# Generated by pormake.
# Topology zzz, (3,6)-cn, num edge types: 1
# Building blocks:
#     Node 0, Type 0, BuildingBlock: KAKCAD_clean_linker_0, # of connection points: 3
#     Node 1, Type 0, BuildingBlock: KAKCAD_clean_linker_0, # of connection points: 3
#     Node 2, Type 0, BuildingBlock: KAKCAD_clean_linker_0, # of connection points: 3
#     Node 3, Type 0, BuildingBlock: KAKCAD_clean_linker_0, # of connection points: 3
#     Node 4, Type 0, BuildingBlock: KAKCAD_clean_linker_0, # of connection points: 3
#     Node 5, Type 0, BuildingBlock: KAKCAD_clean_linker_0, # of connection points: 3
#     Node 6, Type 0, BuildingBlock: KAKCAD_clean_linker_0, # of connection points: 3
#     Node 7, Type 0, BuildingBlock: KAKCAD_clean_linker_0, # of connection points: 3
#     Node 8, Type 1, BuildingBlock: BETDAH_clean_sbu_0, # of connection points: 6
#     Node 9, Type 1, BuildingBlock: BETDAH_clean_sbu_0, # of connection points: 6
#     Node 10, Type 1, BuildingBlock: BETDAH_clean_sbu_0, # of connection points: 6
#     Node 11, Type 1, BuildingBlock: BETDAH_clean_sbu_0, # of connection points: 6
#     Edge 12, Type (0, 1), BuildingBlock: CIFDUS_clean_linker_0, # of connection points: 2
#     Edge 13, Type (0, 1), BuildingBlock: CIFDUS_clean_linker_0, # of connection points: 2
#     Edge 14, Type (0, 1), BuildingBlock: CIFDUS_clean_linker_0, # of connection points: 2
#     Edge 15, Type (0, 1), BuildingBlock: CIFDUS_clean_linker_0, # of connection points: 2
#     Edge 16, Type (0, 1), BuildingBlock: CIFDUS_clean_linker_0, # of connection points: 2
#     Edge 17, Type (0, 1), BuildingBlock: CIFDUS_clean_linker_0, # of connection points: 2
#     Edge 18, Type (0, 1), BuildingBlock: CIFDUS_clean_linker_0, # of connection points: 2
#     Edge 19, Type (0, 1), BuildingBlock: CIFDUS_clean_linker_0, # of connection points: 2
#     Edge 20, Type (0, 1), BuildingBlock: CIFDUS_clean_linker_0, # of connection points: 2
#     Edge 21, Type (0, 1), BuildingBlock: CIFDUS_clean_linker_0, # of connection points: 2
#     Edge 22, Type (0, 1), BuildingBlock: CIFDUS_clean_linker_0, # of connection points: 2
#     Edge 23, Type (0, 1), BuildingBlock: CIFDUS_clean_linker_0, # of connection points: 2
#     Edge 24, Type (0, 1), BuildingBlock: CIFDUS_clean_linker_0, # of connection points: 2
#     Edge 25, Type (0, 1), BuildingBlock: CIFDUS_clean_linker_0, # of connection points: 2
#     Edge 26, Type (0, 1), BuildingBlock: CIFDUS_clean_linker_0, # of connection points: 2
#     Edge 27, Type (0, 1), BuildingBlock: CIFDUS_clean_linker_0, # of connection points: 2
#     Edge 28, Type (0, 1), BuildingBlock: CIFDUS_clean_linker_0, # of connection points: 2
#     Edge 29, Type (0, 1), BuildingBlock: CIFDUS_clean_linker_0, # of connection points: 2
#     Edge 30, Type (0, 1), BuildingBlock: CIFDUS_clean_linker_0, # of connection points: 2
#     Edge 31, Type (0, 1), BuildingBlock: CIFDUS_clean_linker_0, # of connection points: 2
#     Edge 32, Type (0, 1), BuildingBlock: CIFDUS_clean_linker_0, # of connection points: 2
#     Edge 33, Type (0, 1), BuildingBlock: CIFDUS_clean_linker_0, # of connection points: 2
#     Edge 34, Type (0, 1), BuildingBlock: CIFDUS_clean_linker_0, # of connection points: 2
#     Edge 35, Type (0, 1), BuildingBlock: CIFDUS_clean_linker_0, # of connection points: 2
# Relax obj value: 0.462
# Max RMSD: 0.270
# Mean RMSD: 0.255
data_MOF--net-zzz--node1-BETDAH_clean_sbu_0--node2-KAKCAD_clean_linker_0--edge1-CIFDUS_clean_linker_0
_symmetry_space_group_name_H-M    P1
_symmetry_Int_Tables_number       1
_symmetry_cell_setting            triclinic
loop_
_symmetry_equiv_pos_as_xyz
'x, y, z'
_cell_length_a     53.901066
_cell_length_b     53.867222
_cell_length_c     16.380812
_cell_angle_alpha  90.080094
_cell_angle_beta   90.026375
_cell_angle_gamma 90.077353
loop_
_atom_site_label
_atom_site_type_symbol
_atom_site_fract_x
_atom_site_fract_y
_atom_site_fract_z
_atom_type_partial_charge
C0 C 0.78808 0.48893 0.04813 0.0
C1 C 0.78367 0.46374 0.03106 0.0
C2 C 0.77648 0.50028 0.1141 0.0
C3 C 0.76008 0.48663 0.16261 0.0
C4 C 0.75449 0.46191 0.143 0.0
C5 C 0.76646 0.45039 0.07786 0.0
C6 C 0.74924 0.49799 0.23513 0.0
C7 C 0.72397 0.50262 0.23703 0.0
C8 C 0.71278 0.51289 0.30615 0.0
C9 C 0.72763 0.51837 0.3759 0.0
C10 C 0.75359 0.51337 0.3739 0.0
C11 C 0.76402 0.50351 0.30258 0.0
C12 C 0.771 0.51683 0.44392 0.0
C13 C 0.7862 0.53803 0.44725 0.0
C14 C 0.77801 0.49602 0.49013 0.0
C15 C 0.80019 0.49594 0.53538 0.0
C16 C 0.8162 0.51672 0.53579 0.0
C17 C 0.68556 0.51697 0.29868 0.0
C18 C 0.67702 0.53954 0.26633 0.0
C19 C 0.6702 0.49596 0.29128 0.0
C20 C 0.64813 0.49685 0.24586 0.0
C21 C 0.64052 0.51893 0.20705 0.0
C22 C 0.65471 0.54057 0.22185 0.0
C23 C 0.80832 0.53808 0.49305 0.0
H24 H 0.80177 0.49937 0.01393 0.0
H25 H 0.78078 0.51944 0.12868 0.0
H26 H 0.74174 0.45128 0.18031 0.0
H27 H 0.76322 0.43085 0.06632 0.0
H28 H 0.71286 0.49827 0.18352 0.0
H29 H 0.78373 0.49947 0.30023 0.0
H30 H 0.71919 0.52599 0.43038 0.0
H31 H 0.78179 0.55406 0.41011 0.0
H32 H 0.76726 0.47905 0.48623 0.0
H33 H 0.80545 0.47893 0.56582 0.0
H34 H 0.68873 0.55589 0.26878 0.0
H35 H 0.67666 0.4781 0.31296 0.0
H36 H 0.81962 0.5547 0.49251 0.0
H37 H 0.64935 0.55817 0.19544 0.0
H38 H 0.63822 0.47963 0.236 0.0
C39 C 0.97325 0.80212 0.11549 0.0
C40 C 0.99561 0.80376 0.07184 0.0
C41 C 0.96964 0.78279 0.17044 0.0
C42 C 0.9881 0.76479 0.18029 0.0
C43 C 1.0083 0.76411 0.1263 0.0
C44 C 0.01208 0.78363 0.07204 0.0
C45 C 0.98985 0.75114 0.25741 0.0
C46 C 0.99334 0.72563 0.25722 0.0
C47 C 0.99949 0.71298 0.32904 0.0
C48 C 1.00275 0.72663 0.40284 0.0
C49 C 0.99861 0.75273 0.40331 0.0
C50 C 0.992 0.76446 0.33026 0.0
C51 C 1.00174 0.76944 0.47559 0.0
C52 C 0.98081 0.78205 0.50582 0.0
C53 C 0.02534 0.77877 0.4959 0.0
C54 C 0.02788 0.80088 0.54147 0.0
C55 C 1.00685 0.81441 0.56719 0.0
C56 C 1.00387 0.68591 0.31865 0.0
C57 C 0.98366 0.67091 0.29491 0.0
C58 C 0.02789 0.67797 0.29839 0.0
C59 C 0.0314 0.65733 0.24724 0.0
C60 C 0.01095 0.64422 0.2149 0.0
C61 C 0.98714 0.65028 0.2436 0.0
C62 C 0.98331 0.80409 0.55101 0.0
H63 H 0.96025 0.81745 0.11539 0.0
H64 H 0.95385 0.7834 0.21131 0.0
H65 H 0.02274 0.75029 0.13321 0.0
H66 H 0.02946 0.78459 0.03897 0.0
H67 H 0.99209 0.71563 0.19975 0.0
H68 H 0.98989 0.7845 0.32923 0.0
H69 H 1.00827 0.7172 0.45827 0.0
H70 H 0.96237 0.77578 0.48929 0.0
H71 H 0.04181 0.77007 0.47111 0.0
H72 H 0.04634 0.80819 0.55182 0.0
H73 H 0.96488 0.67693 0.30769 0.0
H74 H 0.04377 0.6894 0.31385 0.0
H75 H 0.96663 0.81355 0.57063 0.0
H76 H 0.97096 0.64076 0.21983 0.0
H77 H 0.05005 0.65296 0.22737 0.0
C78 C 0.75248 0.0322 0.0412 0.0
C79 C 0.73392 0.05024 0.04783 0.0
C80 C 0.76764 0.02721 0.10782 0.0
C81 C 0.76429 0.04028 0.18134 0.0
C82 C 0.74804 0.06049 0.18408 0.0
C83 C 0.73304 0.06562 0.11714 0.0
C84 C 0.77449 0.02992 0.25698 0.0
C85 C 0.79901 0.02223 0.25857 0.0
C86 C 0.80804 1.00735 0.32159 0.0
C87 C 0.7918 1.00033 0.38631 0.0
C88 C 0.76679 1.00902 0.38644 0.0
C89 C 0.75867 0.02389 0.32158 0.0
C90 C 0.74716 1.00132 0.44596 0.0
C91 C 0.73084 0.98213 0.4238 0.0
C92 C 0.73973 0.01753 0.50884 0.0
C93 C 0.71641 0.0149 0.54722 0.0
C94 C 0.69937 0.99636 0.52236 0.0
C95 C 0.83433 0.99952 0.31052 0.0
C96 C 0.83928 0.98069 0.2529 0.0
C97 C 0.85273 0.01763 0.32373 0.0
C98 C 0.87377 0.01886 0.27337 0.0
C99 C 0.87722 1.00177 0.20916 0.0
C100 C 0.8605 0.98177 0.20286 0.0
C101 C 0.70742 0.97978 0.46065 0.0
H102 H 0.75329 0.0201 0.98835 0.0
H103 H 0.78007 0.01146 0.10449 0.0
H104 H 0.74546 0.0709 0.24008 0.0
H105 H 0.71866 0.07953 0.12375 0.0
H106 H 0.81103 0.02705 0.20775 0.0
H107 H 0.73932 0.02938 0.31866 0.0
H108 H 0.79831 0.98821 0.4344 0.0
H109 H 0.73544 0.97003 0.37313 0.0
H110 H 0.75142 0.03312 0.52528 0.0
H111 H 0.71161 0.02796 0.59484 0.0
H112 H 0.82517 0.96694 0.23921 0.0
H113 H 0.84925 0.03279 0.3657 0.0
H114 H 0.6952 0.96564 0.43654 0.0
H115 H 0.86244 0.96836 0.15397 0.0
H116 H 0.88637 0.0344 0.28059 0.0
C117 C 0.49972 0.72728 0.54212 0.0
C118 C 0.51472 0.70627 0.52609 0.0
C119 C 0.50107 0.74871 0.49275 0.0
C120 C 0.51771 0.7499 0.42684 0.0
C121 C 0.53392 0.72979 0.41472 0.0
C122 C 0.53234 0.70835 0.46274 0.0
C123 C 0.51368 0.76766 0.35788 0.0
C124 C 0.51709 0.79387 0.36232 0.0
C125 C 0.51244 0.80875 0.2921 0.0
C126 C 0.50453 0.79732 0.21985 0.0
C127 C 0.50161 0.77179 0.2152 0.0
C128 C 0.50607 0.75711 0.28363 0.0
C129 C 0.4935 0.76032 0.13858 0.0
C130 C 0.47056 0.76682 0.10434 0.0
C131 C 0.50776 0.7415 0.10303 0.0
C132 C 0.49833 0.72797 0.03765 0.0
C133 C 0.47435 0.73285 1.00824 0.0
C134 C 0.51693 0.83595 0.28554 0.0
C135 C 0.49688 0.8512 0.26272 0.0
C136 C 0.54105 0.8443 0.26857 0.0
C137 C 0.5449 0.86581 0.22171 0.0
C138 C 0.52468 0.87934 0.18965 0.0
C139 C 0.50066 0.87251 0.21506 0.0
C140 C 0.46092 0.753 0.03971 0.0
H141 H 0.48626 0.72698 0.59106 0.0
H142 H 0.48795 0.76361 0.50275 0.0
H143 H 0.54659 0.72986 0.36337 0.0
H144 H 0.54402 0.69286 0.446 0.0
H145 H 0.52342 0.8024 0.41848 0.0
H146 H 0.50318 0.7372 0.27924 0.0
H147 H 0.5013 0.80838 0.16549 0.0
H148 H 0.45939 0.7814 0.13124 0.0
H149 H 0.52563 0.73649 0.1285 0.0
H150 H 0.50882 0.71221 0.0153 0.0
H151 H 0.47802 0.84496 0.27316 0.0
H152 H 0.55686 0.83278 0.28374 0.0
H153 H 0.44227 0.75679 0.01843 0.0
H154 H 0.48452 0.88217 0.19203 0.0
H155 H 0.56375 0.8708 0.2059 0.0
C156 C 0.23834 0.47621 0.38806 0.0
C157 C 0.22005 0.45841 0.36888 0.0
C158 C 0.25966 0.47798 0.34085 0.0
C159 C 0.26265 0.46237 0.27309 0.0
C160 C 0.24717 0.44162 0.2644 0.0
C161 C 0.2262 0.4393 0.31372 0.0
C162 C 0.27527 0.47286 0.20147 0.0
C163 C 0.29901 0.48266 0.20929 0.0
C164 C 0.30804 0.50011 0.15342 0.0
C165 C 0.29267 0.50773 0.08717 0.0
C166 C 0.26889 0.4966 0.07617 0.0
C167 C 0.2608 0.47915 0.13382 0.0
C168 C 0.25047 0.50344 0.01104 0.0
C169 C 0.24046 0.52752 1.00586 0.0
C170 C 0.23831 0.48423 0.9682 0.0
C171 C 0.21588 0.48842 0.92718 0.0
C172 C 0.20494 0.51208 0.92622 0.0
C173 C 0.33246 0.51126 0.17513 0.0
C174 C 0.3329 0.5322 0.22618 0.0
C175 C 0.35381 0.49629 0.17161 0.0
C176 C 0.37446 0.50124 0.22153 0.0
C177 C 0.37425 0.52113 0.27765 0.0
C178 C 0.3534 0.53703 0.27682 0.0
C179 C 0.21803 0.53183 0.9634 0.0
H180 H 0.23493 0.4911 0.43092 0.0
H181 H 0.27157 0.49401 0.34937 0.0
H182 H 0.24953 0.42905 0.21332 0.0
H183 H 0.21328 0.4244 0.30086 0.0
H184 H 0.30982 0.47813 0.26321 0.0
H185 H 0.24194 0.47212 0.13013 0.0
H186 H 0.29904 0.52193 0.04539 0.0
H187 H 0.24897 0.54265 0.03937 0.0
H188 H 0.24535 0.46542 0.97127 0.0
H189 H 0.20665 0.47284 0.89824 0.0
H190 H 0.31641 0.54351 0.23283 0.0
H191 H 0.35374 0.47954 0.13491 0.0
H192 H 0.21019 0.55032 0.96391 0.0
H193 H 0.35196 0.55232 0.31943 0.0
H194 H 0.39015 0.48877 0.2183 0.0
C195 C 0.99896 0.24664 0.43804 0.0
C196 C 0.01261 0.22475 0.44884 0.0
C197 C 1.0052 0.26296 0.37548 0.0
C198 C 0.0251 0.25744 0.32329 0.0
C199 C 0.04057 0.23725 0.34069 0.0
C200 C 0.03444 0.22104 0.40361 0.0
C201 C 0.02696 0.27014 0.24423 0.0
C202 C 0.02589 0.29587 0.2406 0.0
C203 C 0.02425 0.30824 0.1658 0.0
C204 C 0.0238 0.2941 0.09205 0.0
C205 C 0.02519 0.26768 0.09568 0.0
C206 C 0.02685 0.25622 0.17216 0.0
C207 C 0.02493 0.25044 0.02379 0.0
C208 C 1.00263 0.23871 1.00041 0.0
C209 C 0.04736 0.23942 0.99927 0.0
C210 C 0.04758 0.21659 0.95751 0.0
C211 C 0.02535 0.20393 0.93892 0.0
C212 C 0.02216 0.33577 0.17222 0.0
C213 C 0.99923 0.34594 0.19576 0.0
C214 C 0.04372 0.34977 0.18739 0.0
C215 C 0.04255 0.37251 0.22965 0.0
C216 C 0.01977 0.38182 0.25918 0.0
C217 C 0.99802 0.36856 0.23853 0.0
C218 C 1.00282 0.21589 0.95784 0.0
H219 H 0.98204 0.24977 0.47226 0.0
H220 H 0.99301 0.27848 0.36301 0.0
H221 H 0.05617 0.23291 0.30153 0.0
H222 H 0.04517 0.20417 0.41037 0.0
H223 H 0.02579 0.30645 0.29711 0.0
H224 H 0.02716 0.2361 0.17565 0.0
H225 H 0.02232 0.30338 0.03367 0.0
H226 H 0.98504 0.24615 0.02097 0.0
H227 H 0.06486 0.24743 0.01854 0.0
H228 H 0.06532 0.20818 0.94347 0.0
H229 H 0.98238 0.33518 0.1882 0.0
H230 H 0.06175 0.34209 0.17281 0.0
H231 H 0.98532 0.20672 0.94537 0.0
H232 H 0.98009 0.37461 0.26054 0.0
H233 H 0.05973 0.38219 0.24235 0.0
C234 C 0.27101 0.9911 0.40826 0.0
C235 C 0.29399 1.00263 0.42043 0.0
C236 C 0.25493 1.00011 0.3489 0.0
C237 C 0.26201 0.02042 0.30062 0.0
C238 C 0.28391 0.03339 0.31855 0.0
C239 C 0.29983 0.02457 0.37875 0.0
C240 C 0.24889 0.02503 0.22376 0.0
C241 C 0.22328 0.02775 0.22323 0.0
C242 C 0.21013 0.02933 0.14978 0.0
C243 C 0.22329 0.02779 0.07442 0.0
C244 C 0.24957 0.02484 0.07512 0.0
C245 C 0.26189 0.02378 0.15027 0.0
C246 C 0.26579 0.02276 1.00139 0.0
C247 C 0.27891 1.00049 0.98794 0.0
C248 C 0.27467 0.04444 0.96391 0.0
C249 C 0.29705 0.04426 0.91971 0.0
C250 C 0.31137 0.02241 0.91227 0.0
C251 C 0.18277 0.03202 0.15898 0.0
C252 C 0.16795 0.0106 0.16415 0.0
C253 C 0.17367 0.05409 0.19375 0.0
C254 C 0.15152 0.05428 0.23875 0.0
C255 C 0.13753 0.0324 0.24991 0.0
C256 C 0.14553 0.01083 0.20821 0.0
C257 C 0.30131 1.00027 0.94379 0.0
H258 H 0.26658 0.97388 0.43915 0.0
H259 H 0.23815 0.98978 0.33541 0.0
H260 H 0.28956 0.04914 0.28185 0.0
H261 H 0.31777 0.03335 0.38674 0.0
H262 H 0.2134 0.0283 0.28097 0.0
H263 H 0.28186 0.02116 0.15153 0.0
H264 H 0.21336 0.02872 0.01704 0.0
H265 H 0.273 0.98359 0.01809 0.0
H266 H 0.26548 0.06201 0.97486 0.0
H267 H 0.30385 0.06164 0.8952 0.0
H268 H 0.17475 0.99312 0.14032 0.0
H269 H 0.18506 0.07068 0.1934 0.0
H270 H 0.31169 0.98311 0.9402 0.0
H271 H 0.13517 0.99367 0.21284 0.0
H272 H 0.14654 0.07127 0.26997 0.0
C273 C 0.47814 0.30896 0.98174 0.0
C274 C 0.49827 0.32147 0.9445 0.0
C275 C 0.4813 0.28559 0.01912 0.0
C276 C 0.50463 0.27399 0.01985 0.0
C277 C 0.5242 0.28557 0.97732 0.0
C278 C 0.52112 0.30887 0.94042 0.0
C279 C 0.51061 0.25413 0.08083 0.0
C280 C 0.49923 0.23024 0.08371 0.0
C281 C 0.50675 0.21283 0.14426 0.0
C282 C 0.52438 0.22 0.20245 0.0
C283 C 0.53467 0.24364 0.20237 0.0
C284 C 0.52812 0.26038 0.14096 0.0
C285 C 0.55003 0.25181 0.2719 0.0
C286 C 0.54191 0.24726 0.35207 0.0
C287 C 0.57104 0.26663 0.25905 0.0
C288 C 0.58203 0.27899 0.32442 0.0
C289 C 0.57202 0.27676 0.40333 0.0
C290 C 0.49633 0.18739 0.15578 0.0
C291 C 0.47256 0.18446 0.18919 0.0
C292 C 0.51311 0.16746 0.16265 0.0
C293 C 0.50763 0.1468 0.21136 0.0
C294 C 0.4848 0.14497 0.25282 0.0
C295 C 0.46673 0.16335 0.23601 0.0
C296 C 0.55296 0.25956 0.41745 0.0
H297 H 0.46006 0.31763 0.98489 0.0
H298 H 0.46594 0.27746 0.05233 0.0
H299 H 0.54253 0.27734 0.97774 0.0
H300 H 0.53721 0.31764 0.91343 0.0
H301 H 0.48523 0.22518 0.03925 0.0
H302 H 0.53582 0.279 0.14226 0.0
H303 H 0.52962 0.20719 0.25055 0.0
H304 H 0.52568 0.23592 0.36373 0.0
H305 H 0.57787 0.27003 0.19787 0.0
H306 H 0.59659 0.2923 0.31157 0.0
H307 H 0.45928 0.1995 0.18589 0.0
H308 H 0.53175 0.1693 0.13856 0.0
H309 H 0.54496 0.25755 0.47777 0.0
H310 H 0.44846 0.16235 0.26311 0.0
H311 H 0.52228 0.13347 0.22162 0.0
Ho312 Ho 0.02723 1.00685 0.78296 0.0
Ho313 Ho 0.98937 0.01682 0.67492 0.0
C314 C 1.0042 0.9591 0.70151 0.0
C315 C 0.05532 1.00394 0.91025 0.0
C316 C 0.0565 0.98469 0.97354 0.0
C317 C 0.03676 0.98186 0.0289 0.0
C318 C 0.03345 0.95947 0.06945 0.0
C319 C 0.04986 0.93976 0.05544 0.0
C320 C 0.07134 0.94371 1.00892 0.0
C321 C 0.07473 0.96617 0.96846 0.0
C322 C 0.04513 1.00814 0.62879 0.0
C323 C 0.01189 0.06493 0.75224 0.0
C324 C 0.95916 0.02117 0.55342 0.0
C325 C 0.95454 0.04327 0.50308 0.0
C326 C 0.97388 0.05321 0.4557 0.0
C327 C 0.97377 0.07822 0.43551 0.0
C328 C 0.95426 0.09344 0.46168 0.0
C329 C 0.93326 0.08288 0.49796 0.0
C330 C 0.93334 0.05774 0.5183 0.0
C331 C 0.97252 0.01222 0.83134 0.0
O332 O 0.01589 0.96644 0.76828 0.0
O333 O 0.99458 0.97586 0.65244 0.0
O334 O 0.06237 0.99694 0.83755 0.0
O335 O 0.03487 0.01688 0.90798 0.0
O336 O 0.05103 0.99218 0.68405 0.0
O337 O 0.02979 0.02383 0.65776 0.0
O338 O 0.99962 0.05703 0.68783 0.0
O339 O 0.02269 0.04863 0.80065 0.0
O340 O 0.9523 0.02331 0.62942 0.0
O341 O 0.98117 0.01126 0.54697 0.0
O342 O 0.96657 0.02993 0.78201 0.0
O343 O 0.98767 0.99789 0.79621 0.0
H344 H 0.02258 0.99595 0.03528 0.0
H345 H 0.01671 0.95684 0.10503 0.0
H346 H 0.08441 0.92877 0.99851 0.0
H347 H 0.09034 0.96812 0.92729 0.0
H348 H 0.99032 0.04247 0.4416 0.0
H349 H 0.98998 0.08617 0.4063 0.0
H350 H 0.91801 0.09445 0.51801 0.0
H351 H 0.91808 0.05037 0.55387 0.0
Ho352 Ho 0.5059 0.03066 0.76382 0.0
Ho353 Ho 0.50358 0.98761 0.66193 0.0
C354 C 0.55716 0.00984 0.67877 0.0
C355 C 0.51812 0.06217 0.87444 0.0
C356 C 0.54276 0.06329 0.91045 0.0
C357 C 0.55703 0.04162 0.90817 0.0
C358 C 0.58247 0.04288 0.91581 0.0
C359 C 0.59427 0.06561 0.93261 0.0
C360 C 0.57957 0.08709 0.94212 0.0
C361 C 0.55396 0.08601 0.9291 0.0
C362 C 0.49215 0.04255 0.60983 0.0
C363 C 0.45211 1.00824 0.74644 0.0
C364 C 0.49354 0.95387 0.55489 0.0
C365 C 0.47013 0.94237 0.53007 0.0
C366 C 0.46263 0.94445 0.4485 0.0
C367 C 0.43781 0.94098 0.42779 0.0
C368 C 0.42037 0.93523 0.48862 0.0
C369 C 0.42853 0.93009 0.56815 0.0
C370 C 0.45325 0.93384 0.58904 0.0
C371 C 0.51676 0.97656 0.81801 0.0
O372 O 0.54712 0.02301 0.73862 0.0
O373 O 0.54311 0.99583 0.63214 0.0
O374 O 0.51779 0.06769 0.79687 0.0
O375 O 0.50579 0.04186 0.89057 0.0
O376 O 0.48223 0.05151 0.67555 0.0
O377 O 0.50901 0.02718 0.62904 0.0
O378 O 0.46224 0.99345 0.69063 0.0
O379 O 0.46592 0.02386 0.78819 0.0
O380 O 0.50133 0.94886 0.62849 0.0
O381 O 0.49524 0.97748 0.53749 0.0
O382 O 0.52732 0.96752 0.75358 0.0
O383 O 0.4999 0.99144 0.79619 0.0
H384 H 0.54875 0.02379 0.89386 0.0
H385 H 0.59269 0.02596 0.9046 0.0
H386 H 0.58778 0.10484 0.95729 0.0
H387 H 0.54315 0.10295 0.93021 0.0
H388 H 0.47544 0.95105 0.40236 0.0
H389 H 0.43196 0.94525 0.36612 0.0
H390 H 0.41538 0.92539 0.61574 0.0
H391 H 0.45857 0.93206 0.65254 0.0
Ho392 Ho 0.49371 0.51898 0.79982 0.0
Ho393 Ho 0.53263 0.50892 0.66772 0.0
C394 C 0.51413 0.56462 0.6858 0.0
C395 C 0.47267 0.53202 0.93344 0.0
C396 C 0.45512 0.55212 0.94791 0.0
C397 C 0.45592 0.56504 0.02195 0.0
C398 C 0.44491 0.58837 0.02792 0.0
C399 C 0.43329 0.59895 0.9595 0.0
C400 C 0.43063 0.58504 0.8878 0.0
C401 C 0.44147 0.56169 0.88206 0.0
C402 C 0.4701 0.51509 0.65243 0.0
C403 C 0.51005 0.46193 0.77132 0.0
C404 C 0.55878 0.49156 0.55026 0.0
C405 C 0.56442 0.46537 0.53353 0.0
C406 C 0.55053 0.45259 0.47445 0.0
C407 C 0.55052 0.42678 0.47309 0.0
C408 C 0.56468 0.41346 0.52998 0.0
C409 C 0.58026 0.42613 0.58422 0.0
C410 C 0.58012 0.45195 0.58616 0.0
C411 C 0.551 0.52457 0.81285 0.0
O412 O 0.50377 0.55811 0.75635 0.0
O413 O 0.52368 0.54807 0.63526 0.0
O414 O 0.46451 0.51366 0.88821 0.0
O415 O 0.49483 0.53973 0.91217 0.0
O416 O 0.45888 0.51964 0.72052 0.0
O417 O 0.49286 0.51318 0.66774 0.0
O418 O 0.52365 0.46969 0.70887 0.0
O419 O 0.49776 0.47768 0.8183 0.0
O420 O 0.56857 0.50072 0.61688 0.0
O421 O 0.53543 0.49776 0.54145 0.0
O422 O 0.55857 0.53209 0.74196 0.0
O423 O 0.53364 0.50887 0.80346 0.0
H424 H 0.46677 0.55806 0.07268 0.0
H425 H 0.4476 0.5991 0.08325 0.0
H426 H 0.42198 0.59307 0.83428 0.0
H427 H 0.44093 0.55212 0.82398 0.0
H428 H 0.53845 0.46249 0.43283 0.0
H429 H 0.53887 0.4172 0.42923 0.0
H430 H 0.59149 0.41608 0.62795 0.0
H431 H 0.59117 0.46124 0.63225 0.0
Ho432 Ho 1.0058 0.49196 0.77499 0.0
Ho433 Ho 0.01756 0.53521 0.67473 0.0
C434 C 0.96037 0.51962 0.6784 0.0
C435 C 0.98918 0.45759 0.86981 0.0
C436 C 0.96401 0.45007 0.8904 0.0
C437 C 0.94479 0.46745 0.88552 0.0
C438 C 0.92038 0.45986 0.8951 0.0
C439 C 0.91478 0.43474 0.90927 0.0
C440 C 0.93409 0.41741 0.91586 0.0
C441 C 0.95866 0.42506 0.90588 0.0
C442 C 0.02742 0.47976 0.63053 0.0
C443 C 0.06117 0.51085 0.78343 0.0
C444 C 0.03236 0.56084 0.55188 0.0
C445 C 0.05168 0.55399 0.49367 0.0
C446 C 0.05254 0.52947 0.4645 0.0
C447 C 0.07504 0.51917 0.44126 0.0
C448 C 0.09687 0.53326 0.44687 0.0
C449 C 0.09547 0.55865 0.46573 0.0
C450 C 0.07286 0.56903 0.48859 0.0
C451 C 1.00673 0.55446 0.82336 0.0
O452 O 0.96692 0.50144 0.72848 0.0
O453 O 0.97687 0.5356 0.65091 0.0
O454 O 0.99497 0.45386 0.79357 0.0
O455 O 0.99609 0.47946 0.89612 0.0
O456 O 0.0339 0.4711 0.70092 0.0
O457 O 0.01052 0.49579 0.64098 0.0
O458 O 0.05605 0.5219 0.7132 0.0
O459 O 0.04321 0.50073 0.82666 0.0
O460 O 0.0408 0.5641 0.62587 0.0
O461 O 0.01208 0.54746 0.55027 0.0
O462 O 0.01165 0.56723 0.75895 0.0
O463 O 1.00639 0.53155 0.80579 0.0
H464 H 0.94858 0.48683 0.87317 0.0
H465 H 0.90589 0.47375 0.8921 0.0
H466 H 0.93015 0.39801 0.92743 0.0
H467 H 0.97342 0.41144 0.90862 0.0
H468 H 0.0365 0.51737 0.46812 0.0
H469 H 0.07563 0.49953 0.42698 0.0
H470 H 0.11211 0.56992 0.46892 0.0
H471 H 0.07252 0.58794 0.51124 0.0
H472 H 0.12246 0.99333 0.34554 0.0
H473 H 0.10466 0.06985 0.29429 0.0
H474 H 0.07387 0.06958 0.40364 0.0
H475 H 0.053 0.04786 0.52074 0.0
H476 H 0.07049 0.97071 0.56233 0.0
H477 H 0.09937 0.97099 0.44915 0.0
C478 C 0.11152 0.00989 0.35605 0.0
C479 C 0.11639 0.0316 0.31069 0.0
C480 C 0.09347 0.00955 0.41835 0.0
C481 C 0.10202 0.05287 0.32841 0.0
C482 C 0.08414 0.05273 0.39103 0.0
C483 C 0.06286 0.03108 0.50404 0.0
C484 C 0.05965 0.00936 0.55117 0.0
C485 C 0.07986 0.03124 0.43755 0.0
C486 C 0.07268 0.98781 0.52825 0.0
C487 C 0.08933 0.98788 0.46322 0.0
H488 H 0.50617 0.09808 0.27121 0.0
H489 H 0.45558 0.14892 0.39023 0.0
H490 H 0.45171 0.12071 0.50403 0.0
H491 H 0.46468 0.08335 0.57664 0.0
H492 H 0.51818 0.03402 0.46761 0.0
H493 H 0.51923 0.06013 0.34477 0.0
C494 C 0.49436 0.10326 0.32188 0.0
C495 C 0.48107 0.12599 0.31984 0.0
C496 C 0.4929 0.08722 0.39019 0.0
C497 C 0.4656 0.13157 0.3869 0.0
C498 C 0.46358 0.11549 0.45346 0.0
C499 C 0.47645 0.07811 0.5258 0.0
C500 C 0.49134 0.05669 0.53159 0.0
C501 C 0.47738 0.09349 0.45641 0.0
C502 C 0.50648 0.05033 0.46491 0.0
C503 C 0.50713 0.06534 0.39471 0.0
H504 H 0.40364 0.48525 0.351 0.0
H505 H 0.3915 0.56456 0.34725 0.0
H506 H 0.42055 0.5697 0.45964 0.0
H507 H 0.44763 0.5516 0.56607 0.0
H508 H 0.4628 0.4732 0.56268 0.0
H509 H 0.43496 0.46792 0.44515 0.0
C510 C 0.40765 0.50381 0.37291 0.0
C511 C 0.39462 0.5244 0.34037 0.0
C512 C 0.42511 0.50684 0.43677 0.0
C513 C 0.4003 0.54813 0.37175 0.0
C514 C 0.41721 0.5512 0.43599 0.0
C515 C 0.44526 0.53348 0.53816 0.0
C516 C 0.45743 0.51283 0.57229 0.0
C517 C 0.4294 0.53068 0.47003 0.0
C518 C 0.45397 0.4894 0.53649 0.0
C519 C 0.43787 0.48638 0.46973 0.0
H520 H 0.054 0.3963 0.37494 0.0
H521 H 0.98303 0.41744 0.27463 0.0
H522 H 0.97966 0.45064 0.3756 0.0
H523 H 0.99585 0.47261 0.49884 0.0
H524 H 0.06702 0.45123 0.59585 0.0
H525 H 0.07161 0.42013 0.48849 0.0
C526 C 0.03799 0.40843 0.3733 0.0
C527 C 0.01878 0.40391 0.31633 0.0
C528 C 0.03621 0.42779 0.4314 0.0
C529 C 0.99802 0.41985 0.31793 0.0
C530 C 0.99611 0.4391 0.37564 0.0
C531 C 0.01257 0.4615 0.49529 0.0
C532 C 0.03112 0.46436 0.55558 0.0
C533 C 0.01494 0.44311 0.43358 0.0
C534 C 0.05249 0.4495 0.55045 0.0
C535 C 0.05508 0.43156 0.48916 0.0
H536 H 0.91109 0.97034 0.1342 0.0
H537 H 0.88373 0.04557 0.13066 0.0
H538 H 0.91084 0.05535 0.01627 0.0
H539 H 0.94143 0.04266 0.91387 0.0
H540 H 0.97081 0.96834 0.91763 0.0
H541 H 0.9442 0.95819 0.03473 0.0
C542 C 0.91123 0.98889 0.10866 0.0
C543 C 0.89543 1.00724 0.14205 0.0
C544 C 0.92726 0.99459 0.04253 0.0
C545 C 0.89591 0.03118 0.10773 0.0
C546 C 0.91134 0.03679 0.04169 0.0
C547 C 0.94213 0.02426 0.94053 0.0
C548 C 0.95797 1.00626 0.90641 0.0
C549 C 0.92699 0.01867 1.00828 0.0
C550 C 0.95877 0.98257 0.94239 0.0
C551 C 0.94347 0.97674 0.00934 0.0
H552 H 0.49814 0.92232 0.15657 0.0
H553 H 0.55905 0.87797 0.06655 0.0
H554 H 0.56316 0.9051 0.94922 0.0
H555 H 0.54784 0.93957 0.86537 0.0
H556 H 0.48614 0.98339 0.95013 0.0
H557 H 0.48392 0.95834 0.07483 0.0
C558 C 0.51237 0.91856 0.11155 0.0
C559 C 0.52834 0.89794 0.12197 0.0
C560 C 0.51441 0.93411 0.04222 0.0
C561 C 0.54679 0.89381 0.06246 0.0
C562 C 0.54902 0.90924 0.99423 0.0
C563 C 0.53405 0.94383 0.91149 0.0
C564 C 0.51711 0.9633 0.89797 0.0
C565 C 0.53274 0.9292 0.98273 0.0
C566 C 0.49942 0.96854 0.95871 0.0
C567 C 0.49809 0.95413 0.03003 0.0
H568 H 0.6354 0.54726 0.06861 0.0
H569 H 0.598 0.4897 0.20464 0.0
H570 H 0.56665 0.48648 0.09757 0.0
H571 H 0.55042 0.49896 0.96048 0.0
H572 H 0.58751 0.55813 0.83155 0.0
H573 H 0.61755 0.56216 0.94137 0.0
C574 C 0.62014 0.5344 0.07673 0.0
C575 C 0.61953 0.51873 0.14573 0.0
C576 C 0.6018 0.53289 0.01544 0.0
C577 C 0.59959 0.5018 0.15222 0.0
C578 C 0.5814 0.50002 0.09091 0.0
C579 C 0.56486 0.51295 0.95718 0.0
C580 C 0.5667 0.5281 0.88712 0.0
C581 C 0.58241 0.51528 0.02148 0.0
C582 C 0.58564 0.54608 0.8841 0.0
C583 C 0.60295 0.54841 0.94704 0.0
H584 H 0.98931 0.59851 0.17992 0.0
H585 H 0.03895 0.65392 0.08161 0.0
H586 H 0.04222 0.6307 0.95504 0.0
H587 H 0.02985 0.59609 0.8689 0.0
H588 H 0.98194 0.53882 0.96277 0.0
H589 H 0.97911 0.56118 0.09405 0.0
C590 C 1.00101 0.60532 0.131 0.0
C591 C 0.01409 0.62794 0.14126 0.0
C592 C 1.00297 0.59164 0.05724 0.0
C593 C 0.0291 0.63644 0.07681 0.0
C594 C 0.03082 0.62326 1.00375 0.0
C595 C 0.01881 0.58838 0.91814 0.0
C596 C 1.00588 0.56598 0.90585 0.0
C597 C 0.01768 0.60105 0.99298 0.0
C598 C 0.99203 0.55606 0.97071 0.0
C599 C 0.99038 0.56891 0.04558 0.0
H600 H 0.96717 0.20756 0.41592 0.0
H601 H 0.03245 0.19262 0.56007 0.0
H602 H 0.01796 0.15015 0.58406 0.0
H603 H 0.99062 0.11603 0.54312 0.0
H604 H 0.92674 0.13026 0.39211 0.0
H605 H 0.9368 0.17474 0.3908 0.0
C606 C 0.9777 0.19533 0.45545 0.0
C607 C 1.00079 0.20301 0.48648 0.0
C608 C 0.96987 0.17082 0.46528 0.0
C609 C 0.01459 0.18694 0.53605 0.0
C610 C 1.00646 0.16268 0.54882 0.0
C611 C 0.97879 0.12902 0.51089 0.0
C612 C 0.95836 0.12025 0.46624 0.0
C613 C 0.98481 0.15419 0.51022 0.0
C614 C 0.94274 0.13691 0.42575 0.0
C615 C 0.94847 0.16217 0.42527 0.0
H616 H 0.31681 0.96505 0.34894 0.0
H617 H 0.3168 0.00975 0.56715 0.0
H618 H 0.35501 0.98939 0.61332 0.0
H619 H 0.39029 0.9626 0.58278 0.0
H620 H 0.3922 0.92069 0.35818 0.0
H621 H 0.35098 0.93627 0.3223 0.0
C622 C 0.32496 0.96974 0.40762 0.0
C623 C 0.31423 0.98835 0.45582 0.0
C624 C 0.34713 0.95866 0.43168 0.0
C625 C 0.3249 0.99513 0.53039 0.0
C626 C 0.34665 0.98358 0.55627 0.0
C627 C 0.38131 0.95616 0.52742 0.0
C628 C 0.39396 0.94025 0.47361 0.0
C629 C 0.35817 0.96576 0.50641 0.0
C630 C 0.38259 0.93277 0.40057 0.0
C631 C 0.35917 0.94173 0.38006 0.0
H632 H 0.53688 0.30296 0.47966 0.0
H633 H 0.61625 0.29714 0.45225 0.0
H634 H 0.62123 0.33951 0.504 0.0
H635 H 0.60214 0.38033 0.52727 0.0
H636 H 0.5225 0.38643 0.54123 0.0
H637 H 0.51833 0.34156 0.52464 0.0
C638 C 0.55537 0.31049 0.48853 0.0
C639 C 0.5762 0.29715 0.46169 0.0
C640 C 0.55789 0.33511 0.51348 0.0
C641 C 0.6 0.30726 0.4723 0.0
C642 C 0.60279 0.33151 0.50092 0.0
C643 C 0.58398 0.37163 0.52865 0.0
C644 C 0.56263 0.38637 0.53341 0.0
C645 C 0.58176 0.34602 0.51689 0.0
C646 C 0.5391 0.37523 0.53547 0.0
C647 C 0.53674 0.34967 0.5265 0.0
H648 H 0.20051 0.48315 0.50083 0.0
H649 H 0.17943 0.44782 0.27347 0.0
H650 H 0.13934 0.46752 0.27946 0.0
H651 H 0.11226 0.49916 0.33746 0.0
H652 H 0.1346 0.53811 0.55578 0.0
H653 H 0.17305 0.51422 0.56076 0.0
C654 C 0.18726 0.47971 0.45233 0.0
C655 C 0.19358 0.46423 0.38625 0.0
C656 C 0.1648 0.49269 0.45215 0.0
C657 C 0.17545 0.45927 0.32612 0.0
C658 C 0.15251 0.47103 0.32818 0.0
C659 C 0.1256 0.50237 0.38601 0.0
C660 C 0.12093 0.52051 0.44524 0.0
C661 C 0.14745 0.48853 0.38885 0.0
C662 C 0.13821 0.52461 0.50815 0.0
C663 C 0.15995 0.51071 0.51183 0.0
H664 H 0.99842 0.84224 0.17294 0.0
H665 H 0.01642 0.81931 0.92771 0.0
H666 H 0.03695 0.85939 0.90336 0.0
H667 H 0.04895 0.9008 0.95274 0.0
H668 H 0.03137 0.92277 0.19956 0.0
H669 H 0.01139 0.88265 0.22328 0.0
C670 C 1.00634 0.84625 0.11348 0.0
C671 C 1.00532 0.82841 0.05107 0.0
C672 C 0.01849 0.86874 0.10122 0.0
C673 C 0.01658 0.83319 0.9756 0.0
C674 C 0.02845 0.85589 0.96219 0.0
C675 C 0.04131 0.89651 0.01237 0.0
C676 C 0.04182 0.91441 0.07491 0.0
C677 C 0.0296 0.8737 0.02488 0.0
C678 C 0.03127 0.90907 0.15108 0.0
C679 C 0.01975 0.8863 0.16432 0.0
H680 H 0.70899 0.08627 0.96612 0.0
H681 H 0.7075 1.00844 0.02812 0.0
H682 H 0.66352 1.00643 0.99734 0.0
H683 H 0.62526 0.02843 0.97995 0.0
H684 H 0.62574 0.10489 0.89877 0.0
H685 H 0.67059 0.10623 0.91617 0.0
C686 C 0.69913 0.06874 0.96946 0.0
C687 C 0.71122 0.04763 0.99954 0.0
C688 C 0.6737 0.06775 0.95272 0.0
C689 C 0.69853 0.02488 1.00412 0.0
C690 C 0.6733 0.02381 0.9881 0.0
C691 C 0.63487 0.04521 0.96201 0.0
C692 C 0.62172 0.06657 0.93864 0.0
C693 C 0.6606 0.04541 0.96631 0.0
C694 C 0.63506 0.08832 0.91975 0.0
C695 C 0.66082 0.08901 0.92809 0.0
H696 H 0.43325 0.70964 0.05571 0.0
H697 H 0.48821 0.71097 0.86476 0.0
H698 H 0.47517 0.66957 0.81982 0.0
H699 H 0.455 0.6304 0.85592 0.0
H700 H 0.40524 0.6273 0.06157 0.0
H701 H 0.40894 0.67227 0.07977 0.0
C702 C 0.44154 0.70129 1.00191 0.0
C703 C 0.4615 0.71312 0.96306 0.0
C704 C 0.43514 0.67703 0.98056 0.0
C705 C 0.47267 0.70206 0.89481 0.0
C706 C 0.4654 0.67837 0.86992 0.0
C707 C 0.44422 0.63982 0.90255 0.0
C708 C 0.42975 0.62592 0.95723 0.0
C709 C 0.44765 0.66523 0.91533 0.0
C710 C 0.41632 0.63791 0.01886 0.0
C711 C 0.41858 0.66349 0.02939 0.0
H712 H 0.81281 0.42594 0.07308 0.0
H713 H 0.79422 0.47396 0.87203 0.0
H714 H 0.83291 0.46286 0.8032 0.0
H715 H 0.87541 0.4479 0.81797 0.0
H716 H 0.89616 0.4059 0.03117 0.0
H717 H 0.85302 0.4052 0.07638 0.0
C718 C 0.81677 0.433 0.01243 0.0
C719 C 0.80102 0.45071 0.97726 0.0
C720 C 0.83965 0.42786 0.97638 0.0
C721 C 0.80628 0.46024 0.89957 0.0
C722 C 0.82844 0.4541 0.86085 0.0
C723 C 0.87027 0.43811 0.87328 0.0
C724 C 0.88877 0.42755 0.92244 0.0
C725 C 0.84587 0.43923 0.90133 0.0
C726 C 0.88212 0.41428 0.99274 0.0
C727 C 0.85753 0.41411 0.01898 0.0
H728 H 0.99743 0.18114 0.81713 0.0
H729 H 0.05449 0.16635 0.99523 0.0
H730 H 0.05581 0.12298 0.95301 0.0
H731 H 0.04045 0.08856 0.86762 0.0
H732 H 0.98402 0.10277 0.68713 0.0
H733 H 0.98298 0.14655 0.72729 0.0
C734 C 0.01018 0.16844 0.84659 0.0
C735 C 0.02599 0.17737 0.9092 0.0
C736 C 0.01104 0.14319 0.82131 0.0
C737 C 0.04239 0.1604 0.94614 0.0
C738 C 0.04308 0.13541 0.92228 0.0
C739 C 0.02799 0.1012 0.83658 0.0
C740 C 0.01242 0.09211 0.77383 0.0
C741 C 0.02749 0.12652 0.86007 0.0
C742 C 0.99644 0.10905 0.73484 0.0
C743 C 0.99571 0.13419 0.75829 0.0
H744 H 0.33716 0.98836 0.81637 0.0
H745 H 0.34581 0.05854 0.94107 0.0
H746 H 0.38898 0.0605 0.89911 0.0
H747 H 0.42494 0.04224 0.83091 0.0
H748 H 0.41775 0.97216 0.70565 0.0
H749 H 0.37377 0.97018 0.74433 0.0
C750 C 0.34845 1.00411 0.83425 0.0
C751 C 0.33775 0.02345 0.88133 0.0
C752 C 0.37373 1.00515 0.80999 0.0
C753 C 0.35298 0.04366 0.9034 0.0
C754 C 0.37791 0.04472 0.87999 0.0
C755 C 0.41382 0.02651 0.81152 0.0
C756 C 0.42486 1.00735 0.76517 0.0
C757 C 0.38853 0.02559 0.83363 0.0
C758 C 0.40987 0.98727 0.74071 0.0
C759 C 0.38467 0.98611 0.7632 0.0
H760 H 0.52158 0.34494 0.81473 0.0
H761 H 0.47067 0.35905 0.01292 0.0
H762 H 0.4691 0.40275 0.97581 0.0
H763 H 0.48348 0.43786 0.89133 0.0
H764 H 0.53499 0.42406 0.69483 0.0
H765 H 0.53527 0.37992 0.72811 0.0
C766 C 0.51017 0.35749 0.85025 0.0
C767 C 0.4962 0.34819 0.91682 0.0
C768 C 0.50961 0.383 0.82932 0.0
C769 C 0.4813 0.36511 0.96056 0.0
C770 C 0.48057 0.39037 0.93987 0.0
C771 C 0.49475 0.42525 0.85548 0.0
C772 C 0.50932 0.43464 0.7907 0.0
C773 C 0.49482 0.39963 0.87491 0.0
C774 C 0.52364 0.41769 0.74513 0.0
C775 C 0.52381 0.39228 0.76416 0.0
H776 H 0.16385 0.48338 0.95065 0.0
H777 H 0.18828 0.54873 0.82233 0.0
H778 H 0.14669 0.55373 0.76339 0.0
H779 H 0.10269 0.53957 0.74925 0.0
H780 H 0.07876 0.4753 0.88528 0.0
H781 H 0.12049 0.46982 0.93896 0.0
C782 C 0.16017 0.49866 0.90935 0.0
C783 C 0.1794 0.51554 0.89066 0.0
C784 C 0.13608 0.50164 0.87678 0.0
C785 C 0.17395 0.53548 0.83818 0.0
C786 C 0.15012 0.53829 0.80417 0.0
C787 C 0.10666 0.52433 0.79038 0.0
C788 C 0.08735 0.50791 0.81296 0.0
C789 C 0.13093 0.5215 0.82306 0.0
C790 C 0.09298 0.48837 0.86695 0.0
C791 C 0.11697 0.48516 0.89781 0.0
H792 H 0.97789 0.85535 0.54075 0.0
H793 H 0.04161 0.8314 0.67878 0.0
H794 H 0.04603 0.87319 0.73641 0.0
H795 H 0.03227 0.91759 0.74494 0.0
H796 H 0.96853 0.94012 0.60371 0.0
H797 H 0.96356 0.89817 0.55216 0.0
C798 C 0.99255 0.85901 0.58447 0.0
C799 C 0.00926 0.83987 0.60532 0.0
C800 C 0.99505 0.88315 0.61729 0.0
C801 C 0.0285 0.84557 0.6607 0.0
C802 C 0.03099 0.86956 0.69413 0.0
C803 C 0.01714 0.91321 0.70375 0.0
C804 C 1.00084 0.9323 0.67858 0.0
C805 C 0.01444 0.88866 0.67263 0.0
C806 C 0.9815 0.92611 0.62424 0.0
C807 C 0.97859 0.90198 0.59438 0.0
H808 H 0.67006 0.03331 0.59496 0.0
H809 H 0.66847 0.95527 0.53188 0.0
H810 H 0.62528 0.95304 0.57097 0.0
H811 H 0.58687 0.973 0.61938 0.0
H812 H 0.5892 0.04901 0.70111 0.0
H813 H 0.63303 0.05184 0.66127 0.0
C814 C 0.66067 0.01558 0.59084 0.0
C815 C 0.67314 0.99472 0.55688 0.0
C816 C 0.6356 0.01395 0.61732 0.0
C817 C 0.65979 0.97214 0.55328 0.0
C818 C 0.63486 0.97065 0.57693 0.0
C819 C 0.59699 0.99019 0.62889 0.0
C820 C 0.58451 0.0109 0.66213 0.0
C821 C 0.62242 0.99148 0.60783 0.0
C822 C 0.59817 0.03281 0.67539 0.0
C823 C 0.62329 0.03444 0.65227 0.0
H824 H 0.54904 0.66929 0.55628 0.0
H825 H 0.47186 0.68709 0.59665 0.0
H826 H 0.46531 0.64636 0.65754 0.0
H827 H 0.48061 0.60364 0.68952 0.0
H828 H 0.5565 0.58534 0.63256 0.0
H829 H 0.56402 0.62767 0.58628 0.0
C830 C 0.53059 0.66441 0.57697 0.0
C831 C 0.51105 0.68179 0.57028 0.0
C832 C 0.52655 0.64039 0.60867 0.0
C833 C 0.4876 0.67473 0.60117 0.0
C834 C 0.48367 0.65111 0.63546 0.0
C835 C 0.49881 0.60908 0.66777 0.0
C836 C 0.51799 0.59127 0.66464 0.0
C837 C 0.50289 0.63354 0.63832 0.0
C838 C 0.5414 0.59858 0.63534 0.0
C839 C 0.54574 0.62284 0.60882 0.0
H840 H 0.85966 0.53965 0.48897 0.0
H841 H 0.83045 0.49073 0.67408 0.0
H842 H 0.87178 0.48671 0.73361 0.0
H843 H 0.91702 0.4967 0.73283 0.0
H844 H 0.94461 0.54772 0.5509 0.0
H845 H 0.90341 0.55145 0.49275 0.0
C846 C 0.862 0.52843 0.54327 0.0
C847 C 0.84147 0.5155 0.57607 0.0
C848 C 0.88588 0.52646 0.57842 0.0
C849 C 0.84563 0.50065 0.64574 0.0
C850 C 0.8694 0.49841 0.68046 0.0
C851 C 0.91401 0.5087 0.6807 0.0
C852 C 0.93426 0.52187 0.64687 0.0
C853 C 0.8898 0.5111 0.64711 0.0
C854 C 0.92968 0.53737 0.57919 0.0
C855 C 0.90597 0.53953 0.54531 0.0
loop_
_geom_bond_atom_site_label_1
_geom_bond_atom_site_label_2
_geom_bond_distance
_geom_bond_site_symmetry_2
_ccdc_geom_bond_type
C0 C1 1.386 . S
C0 C2 1.397 . S
C0 H24 0.931 . S
C1 C0 1.386 . S
C1 C5 1.397 . S
C2 C0 1.397 . S
C2 C3 1.384 . S
C2 H25 0.930 . S
C3 C2 1.384 . S
C3 C4 1.377 . S
C3 C6 1.481 . S
C4 C3 1.377 . S
C4 C5 1.389 . S
C4 H26 0.929 . S
C5 C1 1.397 . S
C5 C4 1.389 . S
C5 H27 0.931 . S
C6 C3 1.481 . S
C6 C7 1.387 . S
C6 C11 1.390 . S
C7 C6 1.387 . S
C7 C8 1.401 . S
C7 H28 0.930 . S
C8 C7 1.401 . S
C8 C9 1.376 . S
C8 C17 1.511 . S
C9 C8 1.376 . S
C9 C10 1.392 . S
C9 H30 0.931 . S
C10 C9 1.392 . S
C10 C11 1.361 . S
C10 C12 1.500 . S
C11 C6 1.390 . S
C11 C10 1.361 . S
C11 H29 0.931 . S
C12 C10 1.500 . S
C12 C13 1.371 . S
C12 C14 1.365 . S
C13 C12 1.371 . S
C13 C23 1.386 . S
C13 H31 0.931 . S
C14 C12 1.365 . S
C14 C15 1.409 . S
C14 H32 0.929 . S
C15 C14 1.409 . S
C15 C16 1.380 . S
C15 H33 0.930 . S
C16 C15 1.380 . S
C16 C23 1.357 . S
C17 C8 1.511 . S
C17 C18 1.341 . S
C17 C19 1.371 . S
C18 C17 1.341 . S
C18 C22 1.394 . S
C18 H34 0.930 . S
C19 C17 1.371 . S
C19 C20 1.392 . S
C19 H35 0.931 . S
C20 C19 1.392 . S
C20 C21 1.331 . S
C20 H38 0.932 . S
C21 C20 1.331 . S
C21 C22 1.336 . S
C22 C18 1.394 . S
C22 C21 1.336 . S
C22 H37 0.929 . S
C23 C13 1.386 . S
C23 C16 1.357 . S
C23 H36 0.928 . S
H24 C0 0.931 . S
H25 C2 0.930 . S
H26 C4 0.929 . S
H27 C5 0.931 . S
H28 C7 0.930 . S
H29 C11 0.931 . S
H30 C9 0.931 . S
H31 C13 0.931 . S
H32 C14 0.929 . S
H33 C15 0.930 . S
H34 C18 0.930 . S
H35 C19 0.931 . S
H36 C23 0.928 . S
H37 C22 0.929 . S
H38 C20 0.932 . S
C39 C40 1.394 . S
C39 C41 1.397 . S
C39 H63 0.931 . S
C40 C39 1.394 . S
C40 C44 1.389 1_655 S
C41 C39 1.397 . S
C41 C42 1.389 . S
C41 H64 0.930 . S
C42 C41 1.389 . S
C42 C43 1.373 1_655 S
C42 C45 1.480 . S
C43 C42 1.373 1_455 S
C43 C44 1.389 . S
C43 H65 0.929 . S
C44 C40 1.389 1_455 S
C44 C43 1.389 . S
C44 H66 0.931 . S
C45 C42 1.480 . S
C45 C46 1.388 . S
C45 C50 1.390 . S
C46 C45 1.388 . S
C46 C47 1.402 . S
C46 H67 0.930 . S
C47 C46 1.402 . S
C47 C48 1.376 . S
C47 C56 1.513 . S
C48 C47 1.376 . S
C48 C49 1.392 . S
C48 H69 0.934 . S
C49 C48 1.392 . S
C49 C50 1.361 . S
C49 C51 1.499 1_655 S
C50 C45 1.390 . S
C50 C49 1.361 . S
C50 H68 0.931 . S
C51 C49 1.499 1_455 S
C51 C52 1.362 1_455 S
C51 C53 1.375 . S
C52 C51 1.362 1_655 S
C52 C62 1.386 . S
C52 H70 0.931 . S
C53 C51 1.375 . S
C53 C54 1.409 . S
C53 H71 0.929 . S
C54 C53 1.409 . S
C54 C55 1.379 . S
C54 H72 0.930 . S
C55 C54 1.379 . S
C55 C62 1.358 1_455 S
C56 C47 1.513 . S
C56 C57 1.341 . S
C56 C58 1.371 1_655 S
C57 C56 1.341 . S
C57 C61 1.394 . S
C57 H73 0.930 . S
C58 C56 1.371 1_455 S
C58 C59 1.392 . S
C58 H74 0.931 . S
C59 C58 1.392 . S
C59 C60 1.322 1_455 S
C59 H77 0.932 . S
C60 C59 1.322 1_655 S
C60 C61 1.345 . S
C61 C57 1.394 . S
C61 C60 1.345 . S
C61 H76 0.929 . S
C62 C52 1.386 . S
C62 C55 1.358 1_655 S
C62 H75 0.928 . S
H63 C39 0.931 . S
H64 C41 0.930 . S
H65 C43 0.929 . S
H66 C44 0.931 . S
H67 C46 0.930 . S
H68 C50 0.931 . S
H69 C48 0.934 . S
H70 C52 0.931 . S
H71 C53 0.929 . S
H72 C54 0.930 . S
H73 C57 0.930 . S
H74 C58 0.931 . S
H75 C62 0.928 . S
H76 C61 0.929 . S
H77 C59 0.932 . S
C78 C79 1.394 . S
C78 C80 1.397 . S
C78 H102 0.931 . S
C79 C78 1.394 . S
C79 C83 1.389 1_565 S
C80 C78 1.397 . S
C80 C81 1.389 . S
C80 H103 0.930 . S
C81 C80 1.389 . S
C81 C82 1.373 1_565 S
C81 C84 1.480 . S
C82 C81 1.373 1_545 S
C82 C83 1.389 . S
C82 H104 0.929 . S
C83 C79 1.389 1_545 S
C83 C82 1.389 . S
C83 H105 0.931 . S
C84 C81 1.480 . S
C84 C85 1.388 . S
C84 C89 1.390 . S
C85 C84 1.388 . S
C85 C86 1.402 . S
C85 H106 0.930 . S
C86 C85 1.402 . S
C86 C87 1.376 . S
C86 C95 1.513 . S
C87 C86 1.376 . S
C87 C88 1.392 . S
C87 H108 0.934 . S
C88 C87 1.392 . S
C88 C89 1.361 . S
C88 C90 1.499 1_565 S
C89 C84 1.390 . S
C89 C88 1.361 . S
C89 H107 0.931 . S
C90 C88 1.499 1_545 S
C90 C91 1.362 1_545 S
C90 C92 1.375 . S
C91 C90 1.362 1_565 S
C91 C101 1.386 . S
C91 H109 0.931 . S
C92 C90 1.375 . S
C92 C93 1.409 . S
C92 H110 0.929 . S
C93 C92 1.409 . S
C93 C94 1.379 . S
C93 H111 0.930 . S
C94 C93 1.379 . S
C94 C101 1.358 1_545 S
C95 C86 1.513 . S
C95 C96 1.341 . S
C95 C97 1.371 1_565 S
C96 C95 1.341 . S
C96 C100 1.394 . S
C96 H112 0.930 . S
C97 C95 1.371 1_545 S
C97 C98 1.392 . S
C97 H113 0.931 . S
C98 C97 1.392 . S
C98 C99 1.322 1_545 S
C98 H116 0.932 . S
C99 C98 1.322 1_565 S
C99 C100 1.345 . S
C100 C96 1.394 . S
C100 C99 1.345 . S
C100 H115 0.929 . S
C101 C91 1.386 . S
C101 C94 1.358 1_565 S
C101 H114 0.928 . S
H102 C78 0.931 . S
H103 C80 0.930 . S
H104 C82 0.929 . S
H105 C83 0.931 . S
H106 C85 0.930 . S
H107 C89 0.931 . S
H108 C87 0.934 . S
H109 C91 0.931 . S
H110 C92 0.929 . S
H111 C93 0.930 . S
H112 C96 0.930 . S
H113 C97 0.931 . S
H114 C101 0.928 . S
H115 C100 0.929 . S
H116 C98 0.932 . S
C117 C118 1.386 . S
C117 C119 1.397 . S
C117 H141 0.931 . S
C118 C117 1.386 . S
C118 C122 1.397 . S
C119 C117 1.397 . S
C119 C120 1.384 . S
C119 H142 0.930 . S
C120 C119 1.384 . S
C120 C121 1.377 . S
C120 C123 1.481 . S
C121 C120 1.377 . S
C121 C122 1.389 . S
C121 H143 0.929 . S
C122 C118 1.397 . S
C122 C121 1.389 . S
C122 H144 0.931 . S
C123 C120 1.481 . S
C123 C124 1.387 . S
C123 C128 1.390 . S
C124 C123 1.387 . S
C124 C125 1.401 . S
C124 H145 0.930 . S
C125 C124 1.401 . S
C125 C126 1.376 . S
C125 C134 1.511 . S
C126 C125 1.376 . S
C126 C127 1.392 . S
C126 H147 0.931 . S
C127 C126 1.392 . S
C127 C128 1.361 . S
C127 C129 1.500 . S
C128 C123 1.390 . S
C128 C127 1.361 . S
C128 H146 0.931 . S
C129 C127 1.500 . S
C129 C130 1.371 . S
C129 C131 1.365 . S
C130 C129 1.371 . S
C130 C140 1.386 . S
C130 H148 0.931 . S
C131 C129 1.365 . S
C131 C132 1.409 . S
C131 H149 0.929 . S
C132 C131 1.409 . S
C132 C133 1.380 . S
C132 H150 0.930 . S
C133 C132 1.380 . S
C133 C140 1.357 . S
C134 C125 1.511 . S
C134 C135 1.341 . S
C134 C136 1.371 . S
C135 C134 1.341 . S
C135 C139 1.394 . S
C135 H151 0.930 . S
C136 C134 1.371 . S
C136 C137 1.392 . S
C136 H152 0.931 . S
C137 C136 1.392 . S
C137 C138 1.331 . S
C137 H155 0.932 . S
C138 C137 1.331 . S
C138 C139 1.336 . S
C139 C135 1.394 . S
C139 C138 1.336 . S
C139 H154 0.929 . S
C140 C130 1.386 . S
C140 C133 1.357 . S
C140 H153 0.928 . S
H141 C117 0.931 . S
H142 C119 0.930 . S
H143 C121 0.929 . S
H144 C122 0.931 . S
H145 C124 0.930 . S
H146 C128 0.931 . S
H147 C126 0.931 . S
H148 C130 0.931 . S
H149 C131 0.929 . S
H150 C132 0.930 . S
H151 C135 0.930 . S
H152 C136 0.931 . S
H153 C140 0.928 . S
H154 C139 0.929 . S
H155 C137 0.932 . S
C156 C157 1.386 . S
C156 C158 1.397 . S
C156 H180 0.931 . S
C157 C156 1.386 . S
C157 C161 1.397 . S
C158 C156 1.397 . S
C158 C159 1.384 . S
C158 H181 0.930 . S
C159 C158 1.384 . S
C159 C160 1.377 . S
C159 C162 1.481 . S
C160 C159 1.377 . S
C160 C161 1.389 . S
C160 H182 0.929 . S
C161 C157 1.397 . S
C161 C160 1.389 . S
C161 H183 0.931 . S
C162 C159 1.481 . S
C162 C163 1.387 . S
C162 C167 1.390 . S
C163 C162 1.387 . S
C163 C164 1.401 . S
C163 H184 0.930 . S
C164 C163 1.401 . S
C164 C165 1.376 1_554 S
C164 C173 1.511 . S
C165 C164 1.376 1_556 S
C165 C166 1.392 . S
C165 H186 0.931 . S
C166 C165 1.392 . S
C166 C167 1.361 1_556 S
C166 C168 1.500 . S
C167 C162 1.390 . S
C167 C166 1.361 1_554 S
C167 H185 0.931 . S
C168 C166 1.500 . S
C168 C169 1.371 . S
C168 C170 1.365 . S
C169 C168 1.371 . S
C169 C179 1.386 . S
C169 H187 0.931 . S
C170 C168 1.365 . S
C170 C171 1.409 . S
C170 H188 0.929 . S
C171 C170 1.409 . S
C171 C172 1.380 . S
C171 H189 0.930 . S
C172 C171 1.380 . S
C172 C179 1.357 . S
C173 C164 1.511 . S
C173 C174 1.341 . S
C173 C175 1.371 . S
C174 C173 1.341 . S
C174 C178 1.394 . S
C174 H190 0.930 . S
C175 C173 1.371 . S
C175 C176 1.392 . S
C175 H191 0.931 1_554 S
C176 C175 1.392 . S
C176 C177 1.331 . S
C176 H194 0.932 . S
C177 C176 1.331 . S
C177 C178 1.336 . S
C178 C174 1.394 . S
C178 C177 1.336 . S
C178 H193 0.929 . S
C179 C169 1.386 . S
C179 C172 1.357 . S
C179 H192 0.928 . S
H180 C156 0.931 . S
H181 C158 0.930 . S
H182 C160 0.929 . S
H183 C161 0.931 . S
H184 C163 0.930 . S
H185 C167 0.931 . S
H186 C165 0.931 . S
H187 C169 0.931 . S
H188 C170 0.929 . S
H189 C171 0.930 . S
H190 C174 0.930 . S
H191 C175 0.931 1_556 S
H192 C179 0.928 . S
H193 C178 0.929 . S
H194 C176 0.932 . S
C195 C196 1.388 . S
C195 C197 1.397 . S
C195 H219 0.931 . S
C196 C195 1.388 . S
C196 C200 1.395 1_655 S
C197 C195 1.397 . S
C197 C198 1.382 . S
C197 H220 0.930 . S
C198 C197 1.382 . S
C198 C199 1.379 1_655 S
C198 C201 1.480 . S
C199 C198 1.379 1_455 S
C199 C200 1.389 . S
C199 H221 0.929 . S
C200 C196 1.395 1_455 S
C200 C199 1.389 . S
C200 H222 0.931 . S
C201 C198 1.480 . S
C201 C202 1.388 . S
C201 C206 1.390 . S
C202 C201 1.388 . S
C202 C203 1.402 . S
C202 H223 0.930 . S
C203 C202 1.402 . S
C203 C204 1.376 1_554 S
C203 C212 1.512 . S
C204 C203 1.376 1_556 S
C204 C205 1.392 1_655 S
C204 H225 0.933 . S
C205 C204 1.392 1_455 S
C205 C206 1.361 1_456 S
C205 C207 1.499 . S
C206 C201 1.390 . S
C206 C205 1.361 1_654 S
C206 H224 0.931 . S
C207 C205 1.499 . S
C207 C208 1.357 1_455 S
C207 C209 1.380 . S
C208 C207 1.357 1_655 S
C208 C218 1.386 . S
C208 H226 0.931 . S
C209 C207 1.380 . S
C209 C210 1.409 . S
C209 H227 0.929 . S
C210 C209 1.409 . S
C210 C211 1.384 . S
C210 H228 0.930 . S
C211 C210 1.384 . S
C211 C218 1.353 1_455 S
C212 C203 1.512 . S
C212 C213 1.341 . S
C212 C214 1.371 1_655 S
C213 C212 1.341 . S
C213 C217 1.394 . S
C213 H229 0.930 . S
C214 C212 1.371 1_455 S
C214 C215 1.392 . S
C214 H230 0.931 1_554 S
C215 C214 1.392 . S
C215 C216 1.325 1_455 S
C215 H233 0.932 . S
C216 C215 1.325 1_655 S
C216 C217 1.342 . S
C217 C213 1.394 . S
C217 C216 1.342 . S
C217 H232 0.929 . S
C218 C208 1.386 . S
C218 C211 1.353 1_655 S
C218 H231 0.928 . S
H219 C195 0.931 . S
H220 C197 0.930 . S
H221 C199 0.929 . S
H222 C200 0.931 . S
H223 C202 0.930 . S
H224 C206 0.931 . S
H225 C204 0.933 . S
H226 C208 0.931 . S
H227 C209 0.929 . S
H228 C210 0.930 . S
H229 C213 0.930 . S
H230 C214 0.931 1_556 S
H231 C218 0.928 . S
H232 C217 0.929 . S
H233 C215 0.932 . S
C234 C235 1.388 . S
C234 C236 1.397 . S
C234 H258 0.931 . S
C235 C234 1.388 . S
C235 C239 1.395 1_565 S
C236 C234 1.397 . S
C236 C237 1.382 . S
C236 H259 0.930 . S
C237 C236 1.382 . S
C237 C238 1.379 1_565 S
C237 C240 1.480 . S
C238 C237 1.379 1_545 S
C238 C239 1.389 . S
C238 H260 0.929 . S
C239 C235 1.395 1_545 S
C239 C238 1.389 . S
C239 H261 0.931 . S
C240 C237 1.480 . S
C240 C241 1.388 . S
C240 C245 1.390 . S
C241 C240 1.388 . S
C241 C242 1.402 . S
C241 H262 0.930 . S
C242 C241 1.402 . S
C242 C243 1.376 1_554 S
C242 C251 1.512 . S
C243 C242 1.376 1_556 S
C243 C244 1.392 1_565 S
C243 H264 0.933 . S
C244 C243 1.392 1_545 S
C244 C245 1.361 1_546 S
C244 C246 1.499 . S
C245 C240 1.390 . S
C245 C244 1.361 1_564 S
C245 H263 0.931 . S
C246 C244 1.499 . S
C246 C247 1.357 1_545 S
C246 C248 1.380 . S
C247 C246 1.357 1_565 S
C247 C257 1.386 . S
C247 H265 0.931 . S
C248 C246 1.380 . S
C248 C249 1.409 . S
C248 H266 0.929 . S
C249 C248 1.409 . S
C249 C250 1.384 . S
C249 H267 0.930 . S
C250 C249 1.384 . S
C250 C257 1.353 1_545 S
C251 C242 1.512 . S
C251 C252 1.341 . S
C251 C253 1.371 1_565 S
C252 C251 1.341 . S
C252 C256 1.394 . S
C252 H268 0.930 . S
C253 C251 1.371 1_545 S
C253 C254 1.392 . S
C253 H269 0.931 1_554 S
C254 C253 1.392 . S
C254 C255 1.325 1_545 S
C254 H272 0.932 . S
C255 C254 1.325 1_565 S
C255 C256 1.342 . S
C256 C252 1.394 . S
C256 C255 1.342 . S
C256 H271 0.929 . S
C257 C247 1.386 . S
C257 C250 1.353 1_565 S
C257 H270 0.928 . S
H258 C234 0.931 . S
H259 C236 0.930 . S
H260 C238 0.929 . S
H261 C239 0.931 . S
H262 C241 0.930 . S
H263 C245 0.931 . S
H264 C243 0.933 . S
H265 C247 0.931 . S
H266 C248 0.929 . S
H267 C249 0.930 . S
H268 C252 0.930 . S
H269 C253 0.931 1_556 S
H270 C257 0.928 . S
H271 C256 0.929 . S
H272 C254 0.932 . S
C273 C274 1.386 . S
C273 C275 1.397 . S
C273 H297 0.931 . S
C274 C273 1.386 . S
C274 C278 1.397 . S
C275 C273 1.397 . S
C275 C276 1.384 . S
C275 H298 0.930 . S
C276 C275 1.384 . S
C276 C277 1.377 . S
C276 C279 1.481 . S
C277 C276 1.377 . S
C277 C278 1.389 . S
C277 H299 0.929 . S
C278 C274 1.397 . S
C278 C277 1.389 . S
C278 H300 0.931 . S
C279 C276 1.481 . S
C279 C280 1.387 . S
C279 C284 1.390 1_556 S
C280 C279 1.387 . S
C280 C281 1.401 1_556 S
C280 H301 0.930 . S
C281 C280 1.401 1_554 S
C281 C282 1.376 . S
C281 C290 1.511 . S
C282 C281 1.376 . S
C282 C283 1.392 . S
C282 H303 0.931 . S
C283 C282 1.392 . S
C283 C284 1.361 . S
C283 C285 1.500 . S
C284 C279 1.390 1_554 S
C284 C283 1.361 . S
C284 H302 0.931 . S
C285 C283 1.500 . S
C285 C286 1.371 . S
C285 C287 1.365 . S
C286 C285 1.371 . S
C286 C296 1.386 . S
C286 H304 0.931 . S
C287 C285 1.365 . S
C287 C288 1.409 . S
C287 H305 0.929 . S
C288 C287 1.409 . S
C288 C289 1.380 . S
C288 H306 0.930 . S
C289 C288 1.380 . S
C289 C296 1.357 . S
C290 C281 1.511 . S
C290 C291 1.341 . S
C290 C292 1.371 . S
C291 C290 1.341 . S
C291 C295 1.394 . S
C291 H307 0.930 1_554 S
C292 C290 1.371 . S
C292 C293 1.392 . S
C292 H308 0.931 . S
C293 C292 1.392 . S
C293 C294 1.331 . S
C293 H311 0.932 . S
C294 C293 1.331 . S
C294 C295 1.336 . S
C295 C291 1.394 . S
C295 C294 1.336 . S
C295 H310 0.929 . S
C296 C286 1.386 . S
C296 C289 1.357 . S
C296 H309 0.928 . S
H297 C273 0.931 . S
H298 C275 0.930 . S
H299 C277 0.929 . S
H300 C278 0.931 . S
H301 C280 0.930 . S
H302 C284 0.931 . S
H303 C282 0.931 . S
H304 C286 0.931 . S
H305 C287 0.929 . S
H306 C288 0.930 . S
H307 C291 0.930 1_556 S
H308 C292 0.931 . S
H309 C296 0.928 . S
H310 C295 0.929 . S
H311 C293 0.932 . S
Ho312 C315 2.811 . S
Ho312 O332 2.322 . S
Ho312 O334 2.378 . S
Ho312 O335 2.524 . S
Ho312 O336 2.381 . S
Ho312 O337 2.669 1_565 S
Ho312 O339 2.346 1_565 S
Ho312 O343 2.305 1_455 S
Ho313 C324 2.811 . S
Ho313 O333 2.346 1_545 S
Ho313 O337 2.305 1_655 S
Ho313 O338 2.322 . S
Ho313 O340 2.378 . S
Ho313 O341 2.524 . S
Ho313 O342 2.381 . S
Ho313 O343 2.669 1_545 S
C314 O332 1.259 1_655 S
C314 O333 1.268 . S
C315 Ho312 2.811 . S
C315 C316 1.488 . S
C315 O334 1.215 . S
C315 O335 1.289 . S
C316 C315 1.488 . S
C316 C317 1.348 . S
C316 C321 1.413 . S
C317 C316 1.348 . S
C317 C318 1.442 . S
C317 H344 0.930 1_455 S
C318 C317 1.442 . S
C318 C319 1.381 . S
C318 H345 0.933 1_456 S
C319 C318 1.381 . S
C319 C320 1.321 . S
C320 C319 1.321 . S
C320 C321 1.403 . S
C320 H346 0.934 . S
C321 C316 1.413 . S
C321 C320 1.403 . S
C321 H347 0.930 . S
C322 O336 1.275 . S
C322 O337 1.256 1_565 S
C323 O338 1.259 1_455 S
C323 O339 1.268 . S
C324 Ho313 2.811 . S
C324 C325 1.488 . S
C324 O340 1.215 . S
C324 O341 1.289 . S
C325 C324 1.488 . S
C325 C326 1.348 . S
C325 C330 1.413 . S
C326 C325 1.348 . S
C326 C327 1.442 . S
C326 H348 0.930 1_655 S
C327 C326 1.442 . S
C327 C328 1.381 . S
C327 H349 0.925 1_655 S
C328 C327 1.381 . S
C328 C329 1.321 . S
C329 C328 1.321 . S
C329 C330 1.403 . S
C329 H350 0.934 . S
C330 C325 1.413 . S
C330 C329 1.403 . S
C330 H351 0.930 . S
C331 O342 1.275 . S
C331 O343 1.256 1_545 S
O332 Ho312 2.322 . S
O332 C314 1.259 1_455 S
O333 Ho313 2.346 1_565 S
O333 C314 1.268 . S
O334 Ho312 2.378 . S
O334 C315 1.215 . S
O335 Ho312 2.524 . S
O335 C315 1.289 . S
O336 Ho312 2.381 . S
O336 C322 1.275 . S
O337 Ho312 2.669 1_545 S
O337 Ho313 2.305 1_455 S
O337 C322 1.256 1_545 S
O338 Ho313 2.322 . S
O338 C323 1.259 1_655 S
O339 Ho312 2.346 1_545 S
O339 C323 1.268 . S
O340 Ho313 2.378 . S
O340 C324 1.215 . S
O341 Ho313 2.524 . S
O341 C324 1.289 . S
O342 Ho313 2.381 . S
O342 C331 1.275 . S
O343 Ho312 2.305 1_655 S
O343 Ho313 2.669 1_565 S
O343 C331 1.256 1_565 S
H344 C317 0.930 1_655 S
H345 C318 0.933 1_654 S
H346 C320 0.934 . S
H347 C321 0.930 . S
H348 C326 0.930 1_455 S
H349 C327 0.925 1_455 S
H350 C329 0.934 . S
H351 C330 0.930 . S
Ho352 C355 2.811 . S
Ho352 O372 2.322 . S
Ho352 O374 2.378 . S
Ho352 O375 2.524 . S
Ho352 O376 2.381 . S
Ho352 O377 2.669 . S
Ho352 O379 2.346 . S
Ho352 O383 2.305 1_545 S
Ho353 C364 2.811 . S
Ho353 O373 2.346 . S
Ho353 O377 2.305 1_565 S
Ho353 O378 2.322 . S
Ho353 O380 2.378 . S
Ho353 O381 2.524 . S
Ho353 O382 2.381 . S
Ho353 O383 2.669 . S
C354 O372 1.259 1_565 S
C354 O373 1.268 . S
C355 Ho352 2.811 . S
C355 C356 1.488 . S
C355 O374 1.215 . S
C355 O375 1.289 . S
C356 C355 1.488 . S
C356 C357 1.348 . S
C356 C361 1.413 . S
C357 C356 1.348 . S
C357 C358 1.442 . S
C357 H384 0.930 1_545 S
C358 C357 1.442 . S
C358 C359 1.381 . S
C358 H385 0.910 1_546 S
C359 C358 1.381 . S
C359 C360 1.321 . S
C360 C359 1.321 . S
C360 C361 1.403 . S
C360 H386 0.934 . S
C361 C356 1.413 . S
C361 C360 1.403 . S
C361 H387 0.930 . S
C362 O376 1.275 . S
C362 O377 1.256 . S
C363 O378 1.259 1_545 S
C363 O379 1.268 . S
C364 Ho353 2.811 . S
C364 C365 1.488 . S
C364 O380 1.215 . S
C364 O381 1.289 . S
C365 C364 1.488 . S
C365 C366 1.348 . S
C365 C370 1.413 . S
C366 C365 1.348 . S
C366 C367 1.442 . S
C366 H388 0.930 1_565 S
C367 C366 1.442 . S
C367 C368 1.381 . S
C367 H389 0.902 1_565 S
C368 C367 1.381 . S
C368 C369 1.321 . S
C369 C368 1.321 . S
C369 C370 1.403 . S
C369 H390 0.934 . S
C370 C365 1.413 . S
C370 C369 1.403 . S
C370 H391 0.930 . S
C371 O382 1.275 . S
C371 O383 1.256 . S
O372 Ho352 2.322 . S
O372 C354 1.259 1_545 S
O373 Ho353 2.346 . S
O373 C354 1.268 . S
O374 Ho352 2.378 . S
O374 C355 1.215 . S
O375 Ho352 2.524 . S
O375 C355 1.289 . S
O376 Ho352 2.381 . S
O376 C362 1.275 . S
O377 Ho352 2.669 . S
O377 Ho353 2.305 1_545 S
O377 C362 1.256 . S
O378 Ho353 2.322 . S
O378 C363 1.259 1_565 S
O379 Ho352 2.346 . S
O379 C363 1.268 . S
O380 Ho353 2.378 . S
O380 C364 1.215 . S
O381 Ho353 2.524 . S
O381 C364 1.289 . S
O382 Ho353 2.381 . S
O382 C371 1.275 . S
O383 Ho352 2.305 1_565 S
O383 Ho353 2.669 . S
O383 C371 1.256 . S
H384 C357 0.930 1_565 S
H385 C358 0.910 1_564 S
H386 C360 0.934 . S
H387 C361 0.930 . S
H388 C366 0.930 1_545 S
H389 C367 0.902 1_545 S
H390 C369 0.934 . S
H391 C370 0.930 . S
Ho392 C395 2.811 . S
Ho392 O412 2.322 . S
Ho392 O414 2.378 . S
Ho392 O415 2.524 . S
Ho392 O416 2.381 . S
Ho392 O417 2.669 . S
Ho392 O419 2.346 . S
Ho392 O423 2.305 . S
Ho393 C404 2.811 . S
Ho393 O413 2.346 . S
Ho393 O417 2.305 . S
Ho393 O418 2.322 . S
Ho393 O420 2.378 . S
Ho393 O421 2.524 . S
Ho393 O422 2.381 . S
Ho393 O423 2.669 . S
C394 O412 1.259 . S
C394 O413 1.268 . S
C395 Ho392 2.811 . S
C395 C396 1.488 . S
C395 O414 1.215 . S
C395 O415 1.289 . S
C396 C395 1.488 . S
C396 C397 1.348 . S
C396 C401 1.413 . S
C397 C396 1.348 . S
C397 C398 1.442 . S
C397 H424 0.930 . S
C398 C397 1.442 . S
C398 C399 1.381 . S
C398 H425 0.931 1_556 S
C399 C398 1.381 . S
C399 C400 1.321 . S
C400 C399 1.321 . S
C400 C401 1.403 . S
C400 H426 0.934 . S
C401 C396 1.413 . S
C401 C400 1.403 . S
C401 H427 0.930 . S
C402 O416 1.275 . S
C402 O417 1.256 . S
C403 O418 1.259 . S
C403 O419 1.268 . S
C404 Ho393 2.811 . S
C404 C405 1.488 . S
C404 O420 1.215 . S
C404 O421 1.289 . S
C405 C404 1.488 . S
C405 C406 1.348 . S
C405 C410 1.413 . S
C406 C405 1.348 . S
C406 C407 1.442 . S
C406 H428 0.930 . S
C407 C406 1.442 . S
C407 C408 1.381 . S
C407 H429 0.931 . S
C408 C407 1.381 . S
C408 C409 1.321 . S
C409 C408 1.321 . S
C409 C410 1.403 . S
C409 H430 0.934 . S
C410 C405 1.413 . S
C410 C409 1.403 . S
C410 H431 0.930 . S
C411 O422 1.275 . S
C411 O423 1.256 . S
O412 Ho392 2.322 . S
O412 C394 1.259 . S
O413 Ho393 2.346 . S
O413 C394 1.268 . S
O414 Ho392 2.378 . S
O414 C395 1.215 . S
O415 Ho392 2.524 . S
O415 C395 1.289 . S
O416 Ho392 2.381 . S
O416 C402 1.275 . S
O417 Ho392 2.669 . S
O417 Ho393 2.305 . S
O417 C402 1.256 . S
O418 Ho393 2.322 . S
O418 C403 1.259 . S
O419 Ho392 2.346 . S
O419 C403 1.268 . S
O420 Ho393 2.378 . S
O420 C404 1.215 . S
O421 Ho393 2.524 . S
O421 C404 1.289 . S
O422 Ho393 2.381 . S
O422 C411 1.275 . S
O423 Ho392 2.305 . S
O423 Ho393 2.669 . S
O423 C411 1.256 . S
H424 C397 0.930 . S
H425 C398 0.931 1_554 S
H426 C400 0.934 . S
H427 C401 0.930 . S
H428 C406 0.930 . S
H429 C407 0.931 . S
H430 C409 0.934 . S
H431 C410 0.930 . S
Ho432 C435 2.811 . S
Ho432 O452 2.322 . S
Ho432 O454 2.378 . S
Ho432 O455 2.524 . S
Ho432 O456 2.381 . S
Ho432 O457 2.669 1_655 S
Ho432 O459 2.346 1_655 S
Ho432 O463 2.305 . S
Ho433 C444 2.811 . S
Ho433 O453 2.346 1_455 S
Ho433 O457 2.305 . S
Ho433 O458 2.322 . S
Ho433 O460 2.378 . S
Ho433 O461 2.524 . S
Ho433 O462 2.381 . S
Ho433 O463 2.669 1_455 S
C434 O452 1.259 . S
C434 O453 1.268 . S
C435 Ho432 2.811 . S
C435 C436 1.488 . S
C435 O454 1.215 . S
C435 O455 1.289 . S
C436 C435 1.488 . S
C436 C437 1.348 . S
C436 C441 1.413 . S
C437 C436 1.348 . S
C437 C438 1.442 . S
C437 H464 0.930 . S
C438 C437 1.442 . S
C438 C439 1.381 . S
C438 H465 0.931 1_556 S
C439 C438 1.381 . S
C439 C440 1.321 . S
C440 C439 1.321 . S
C440 C441 1.403 . S
C440 H466 0.934 . S
C441 C436 1.413 . S
C441 C440 1.403 . S
C441 H467 0.930 . S
C442 O456 1.287 . S
C442 O457 1.249 1_655 S
C443 O458 1.259 . S
C443 O459 1.268 . S
C444 Ho433 2.811 . S
C444 C445 1.488 . S
C444 O460 1.215 . S
C444 O461 1.289 . S
C445 C444 1.488 . S
C445 C446 1.348 . S
C445 C450 1.413 . S
C446 C445 1.348 . S
C446 C447 1.442 . S
C446 H468 0.930 . S
C447 C446 1.442 . S
C447 C448 1.381 . S
C447 H469 0.931 . S
C448 C447 1.381 . S
C448 C449 1.321 . S
C449 C448 1.321 . S
C449 C450 1.403 . S
C449 H470 0.934 . S
C450 C445 1.413 . S
C450 C449 1.403 . S
C450 H471 0.930 . S
C451 O462 1.292 . S
C451 O463 1.247 1_455 S
O452 Ho432 2.322 . S
O452 C434 1.259 . S
O453 Ho433 2.346 1_655 S
O453 C434 1.268 . S
O454 Ho432 2.378 . S
O454 C435 1.215 . S
O455 Ho432 2.524 . S
O455 C435 1.289 . S
O456 Ho432 2.381 . S
O456 C442 1.287 . S
O457 Ho432 2.669 1_455 S
O457 Ho433 2.305 . S
O457 C442 1.249 1_455 S
O458 Ho433 2.322 . S
O458 C443 1.259 . S
O459 Ho432 2.346 1_455 S
O459 C443 1.268 . S
O460 Ho433 2.378 . S
O460 C444 1.215 . S
O461 Ho433 2.524 . S
O461 C444 1.289 . S
O462 Ho433 2.381 . S
O462 C451 1.292 . S
O463 Ho432 2.305 . S
O463 Ho433 2.669 1_655 S
O463 C451 1.247 1_655 S
H464 C437 0.930 . S
H465 C438 0.931 1_554 S
H466 C440 0.934 . S
H467 C441 0.930 . S
H468 C446 0.930 . S
H469 C447 0.931 . S
H470 C449 0.934 . S
H471 C450 0.930 . S
H472 C478 0.930 . S
H473 C481 0.930 . S
H474 C482 0.930 . S
H475 C483 0.930 . S
H476 C486 0.930 . S
H477 C487 0.930 . S
C478 H472 0.930 . S
C478 C479 1.355 1_565 S
C478 C480 1.415 . S
C479 C478 1.355 1_545 S
C479 C481 1.419 . S
C480 C478 1.415 . S
C480 C485 1.425 1_565 S
C480 C487 1.409 . S
C481 H473 0.930 . S
C481 C479 1.419 . S
C481 C482 1.362 . S
C482 H474 0.930 . S
C482 C481 1.362 . S
C482 C485 1.409 . S
C483 H475 0.930 . S
C483 C484 1.347 1_545 S
C483 C485 1.415 . S
C484 C483 1.347 1_565 S
C484 C486 1.429 . S
C485 C480 1.425 1_545 S
C485 C482 1.409 . S
C485 C483 1.415 . S
C486 H476 0.930 . S
C486 C484 1.429 . S
C486 C487 1.362 . S
C487 H477 0.930 . S
C487 C480 1.409 . S
C487 C486 1.362 . S
H488 C494 0.930 . S
H489 C497 0.930 . S
H490 C498 0.930 . S
H491 C499 0.930 . S
H492 C502 0.930 . S
H493 C503 0.930 . S
C494 H488 0.930 . S
C494 C495 1.355 . S
C494 C496 1.415 . S
C495 C494 1.355 . S
C495 C497 1.419 . S
C496 C494 1.415 . S
C496 C501 1.425 . S
C496 C503 1.409 . S
C497 H489 0.930 . S
C497 C495 1.419 . S
C497 C498 1.362 . S
C498 H490 0.930 . S
C498 C497 1.362 . S
C498 C501 1.409 . S
C499 H491 0.930 . S
C499 C500 1.355 . S
C499 C501 1.415 . S
C500 C499 1.355 . S
C500 C502 1.419 . S
C501 C496 1.425 . S
C501 C498 1.409 . S
C501 C499 1.415 . S
C502 H492 0.930 . S
C502 C500 1.419 . S
C502 C503 1.362 . S
C503 H493 0.930 . S
C503 C496 1.409 . S
C503 C502 1.362 . S
H504 C510 0.930 . S
H505 C513 0.930 . S
H506 C514 0.930 . S
H507 C515 0.930 . S
H508 C518 0.930 . S
H509 C519 0.930 . S
C510 H504 0.930 . S
C510 C511 1.355 . S
C510 C512 1.415 . S
C511 C510 1.355 . S
C511 C513 1.419 . S
C512 C510 1.415 . S
C512 C517 1.425 . S
C512 C519 1.409 . S
C513 H505 0.930 . S
C513 C511 1.419 . S
C513 C514 1.362 . S
C514 H506 0.930 . S
C514 C513 1.362 . S
C514 C517 1.409 . S
C515 H507 0.930 . S
C515 C516 1.355 . S
C515 C517 1.415 . S
C516 C515 1.355 . S
C516 C518 1.419 . S
C517 C512 1.425 . S
C517 C514 1.409 . S
C517 C515 1.415 . S
C518 H508 0.930 . S
C518 C516 1.419 . S
C518 C519 1.362 . S
C519 H509 0.930 . S
C519 C512 1.409 . S
C519 C518 1.362 . S
H520 C526 0.930 . S
H521 C529 0.930 . S
H522 C530 0.930 . S
H523 C531 0.930 . S
H524 C534 0.930 . S
H525 C535 0.930 . S
C526 H520 0.930 . S
C526 C527 1.355 1_455 S
C526 C528 1.415 . S
C527 C526 1.355 1_655 S
C527 C529 1.419 . S
C528 C526 1.415 . S
C528 C533 1.425 1_455 S
C528 C535 1.409 . S
C529 H521 0.930 . S
C529 C527 1.419 . S
C529 C530 1.362 . S
C530 H522 0.930 . S
C530 C529 1.362 . S
C530 C533 1.409 . S
C531 H523 0.930 . S
C531 C532 1.355 1_655 S
C531 C533 1.415 . S
C532 C531 1.355 1_455 S
C532 C534 1.419 . S
C533 C528 1.425 1_655 S
C533 C530 1.409 . S
C533 C531 1.415 . S
C534 H524 0.930 . S
C534 C532 1.419 . S
C534 C535 1.362 . S
C535 H525 0.930 . S
C535 C528 1.409 . S
C535 C534 1.362 . S
H536 C542 0.930 . S
H537 C545 0.930 . S
H538 C546 0.930 . S
H539 C547 0.930 . S
H540 C550 0.930 . S
H541 C551 0.930 . S
C542 H536 0.930 . S
C542 C543 1.355 1_565 S
C542 C544 1.415 . S
C543 C542 1.355 1_545 S
C543 C545 1.419 . S
C544 C542 1.415 . S
C544 C549 1.425 1_565 S
C544 C551 1.409 . S
C545 H537 0.930 . S
C545 C543 1.419 . S
C545 C546 1.362 . S
C546 H538 0.930 . S
C546 C545 1.362 . S
C546 C549 1.409 . S
C547 H539 0.930 . S
C547 C548 1.355 1_545 S
C547 C549 1.415 1_556 S
C548 C547 1.355 1_565 S
C548 C550 1.419 . S
C549 C544 1.425 1_545 S
C549 C546 1.409 . S
C549 C547 1.415 1_554 S
C550 H540 0.930 . S
C550 C548 1.419 . S
C550 C551 1.362 1_556 S
C551 H541 0.930 . S
C551 C544 1.409 . S
C551 C550 1.362 1_554 S
H552 C558 0.930 . S
H553 C561 0.930 . S
H554 C562 0.930 . S
H555 C563 0.930 . S
H556 C566 0.930 . S
H557 C567 0.930 . S
C558 H552 0.930 . S
C558 C559 1.355 . S
C558 C560 1.415 . S
C559 C558 1.355 . S
C559 C561 1.419 . S
C560 C558 1.415 . S
C560 C565 1.425 . S
C560 C567 1.409 . S
C561 H553 0.930 . S
C561 C559 1.419 . S
C561 C562 1.362 . S
C562 H554 0.930 . S
C562 C561 1.362 . S
C562 C565 1.409 . S
C563 H555 0.930 . S
C563 C564 1.355 . S
C563 C565 1.415 1_556 S
C564 C563 1.355 . S
C564 C566 1.419 . S
C565 C560 1.425 . S
C565 C562 1.409 . S
C565 C563 1.415 1_554 S
C566 H556 0.930 . S
C566 C564 1.419 . S
C566 C567 1.362 1_556 S
C567 H557 0.930 . S
C567 C560 1.409 . S
C567 C566 1.362 1_554 S
H568 C574 0.930 . S
H569 C577 0.930 . S
H570 C578 0.930 . S
H571 C579 0.930 . S
H572 C582 0.930 . S
H573 C583 0.930 . S
C574 H568 0.930 . S
C574 C575 1.355 . S
C574 C576 1.415 . S
C575 C574 1.355 . S
C575 C577 1.419 . S
C576 C574 1.415 . S
C576 C581 1.425 . S
C576 C583 1.409 1_554 S
C577 H569 0.930 . S
C577 C575 1.419 . S
C577 C578 1.362 . S
C578 H570 0.930 . S
C578 C577 1.362 . S
C578 C581 1.409 . S
C579 H571 0.930 . S
C579 C580 1.355 . S
C579 C581 1.415 1_556 S
C580 C579 1.355 . S
C580 C582 1.419 . S
C581 C576 1.425 . S
C581 C578 1.409 . S
C581 C579 1.415 1_554 S
C582 H572 0.930 . S
C582 C580 1.419 . S
C582 C583 1.362 . S
C583 H573 0.930 . S
C583 C576 1.409 1_556 S
C583 C582 1.362 . S
H584 C590 0.930 . S
H585 C593 0.930 . S
H586 C594 0.930 . S
H587 C595 0.930 . S
H588 C598 0.930 . S
H589 C599 0.930 . S
C590 H584 0.930 . S
C590 C591 1.355 1_655 S
C590 C592 1.415 . S
C591 C590 1.355 1_455 S
C591 C593 1.419 . S
C592 C590 1.415 . S
C592 C597 1.425 1_655 S
C592 C599 1.409 . S
C593 H585 0.930 . S
C593 C591 1.419 . S
C593 C594 1.362 . S
C594 H586 0.930 . S
C594 C593 1.362 . S
C594 C597 1.409 . S
C595 H587 0.930 . S
C595 C596 1.355 1_455 S
C595 C597 1.415 1_556 S
C596 C595 1.355 1_655 S
C596 C598 1.419 . S
C597 C592 1.425 1_455 S
C597 C594 1.409 . S
C597 C595 1.415 1_554 S
C598 H588 0.930 . S
C598 C596 1.419 . S
C598 C599 1.362 1_556 S
C599 H589 0.930 . S
C599 C592 1.409 . S
C599 C598 1.362 1_554 S
H600 C606 0.930 . S
H601 C609 0.930 . S
H602 C610 0.930 . S
H603 C611 0.930 . S
H604 C614 0.930 . S
H605 C615 0.930 . S
C606 H600 0.930 . S
C606 C607 1.355 1_655 S
C606 C608 1.415 . S
C607 C606 1.355 1_455 S
C607 C609 1.419 . S
C608 C606 1.415 . S
C608 C613 1.425 . S
C608 C615 1.409 . S
C609 H601 0.930 . S
C609 C607 1.419 . S
C609 C610 1.362 1_455 S
C610 H602 0.930 . S
C610 C609 1.362 1_655 S
C610 C613 1.409 . S
C611 H603 0.930 . S
C611 C612 1.355 . S
C611 C613 1.415 . S
C612 C611 1.355 . S
C612 C614 1.419 . S
C613 C608 1.425 . S
C613 C610 1.409 . S
C613 C611 1.415 . S
C614 H604 0.930 . S
C614 C612 1.419 . S
C614 C615 1.362 . S
C615 H605 0.930 . S
C615 C608 1.409 . S
C615 C614 1.362 . S
H616 C622 0.930 . S
H617 C625 0.930 . S
H618 C626 0.930 . S
H619 C627 0.930 . S
H620 C630 0.930 . S
H621 C631 0.930 1_545 S
C622 H616 0.930 . S
C622 C623 1.355 . S
C622 C624 1.415 1_545 S
C623 C622 1.355 . S
C623 C625 1.417 1_545 S
C624 C622 1.415 1_565 S
C624 C629 1.425 . S
C624 C631 1.409 . S
C625 H617 0.930 . S
C625 C623 1.417 1_565 S
C625 C626 1.362 . S
C626 H618 0.930 . S
C626 C625 1.362 . S
C626 C629 1.409 . S
C627 H619 0.930 . S
C627 C628 1.355 . S
C627 C629 1.415 . S
C628 C627 1.355 . S
C628 C630 1.419 . S
C629 C624 1.425 . S
C629 C626 1.409 . S
C629 C627 1.415 . S
C630 H620 0.930 . S
C630 C628 1.419 . S
C630 C631 1.362 . S
C631 H621 0.930 1_565 S
C631 C624 1.409 . S
C631 C630 1.362 . S
H632 C638 0.930 . S
H633 C641 0.930 . S
H634 C642 0.930 . S
H635 C643 0.930 . S
H636 C646 0.930 . S
H637 C647 0.930 . S
C638 H632 0.930 . S
C638 C639 1.355 . S
C638 C640 1.415 . S
C639 C638 1.355 . S
C639 C641 1.419 . S
C640 C638 1.415 . S
C640 C645 1.425 . S
C640 C647 1.409 . S
C641 H633 0.930 . S
C641 C639 1.419 . S
C641 C642 1.362 . S
C642 H634 0.930 . S
C642 C641 1.362 . S
C642 C645 1.409 . S
C643 H635 0.930 . S
C643 C644 1.355 . S
C643 C645 1.415 . S
C644 C643 1.355 . S
C644 C646 1.419 . S
C645 C640 1.425 . S
C645 C642 1.409 . S
C645 C643 1.415 . S
C646 H636 0.930 . S
C646 C644 1.419 . S
C646 C647 1.362 . S
C647 H637 0.930 . S
C647 C640 1.409 . S
C647 C646 1.362 . S
H648 C654 0.930 . S
H649 C657 0.930 . S
H650 C658 0.930 . S
H651 C659 0.930 . S
H652 C662 0.930 . S
H653 C663 0.930 . S
C654 H648 0.930 . S
C654 C655 1.355 . S
C654 C656 1.415 . S
C655 C654 1.355 . S
C655 C657 1.419 . S
C656 C654 1.415 . S
C656 C661 1.425 . S
C656 C663 1.409 . S
C657 H649 0.930 . S
C657 C655 1.419 . S
C657 C658 1.362 . S
C658 H650 0.930 . S
C658 C657 1.362 . S
C658 C661 1.409 . S
C659 H651 0.930 . S
C659 C660 1.355 . S
C659 C661 1.415 . S
C660 C659 1.355 . S
C660 C662 1.419 . S
C661 C656 1.425 . S
C661 C658 1.409 . S
C661 C659 1.415 . S
C662 H652 0.930 . S
C662 C660 1.419 . S
C662 C663 1.362 . S
C663 H653 0.930 . S
C663 C656 1.409 . S
C663 C662 1.362 . S
H664 C670 0.948 . S
H665 C673 0.930 . S
H666 C674 0.930 . S
H667 C675 0.930 . S
H668 C678 0.930 . S
H669 C679 0.930 . S
C670 H664 0.948 . S
C670 C671 1.357 . S
C670 C672 1.396 1_655 S
C671 C670 1.357 . S
C671 C673 1.419 1_655 S
C672 C670 1.396 1_455 S
C672 C677 1.425 . S
C672 C679 1.409 . S
C673 H665 0.930 . S
C673 C671 1.419 1_455 S
C673 C674 1.362 1_554 S
C674 H666 0.930 . S
C674 C673 1.362 1_556 S
C674 C677 1.409 1_556 S
C675 H667 0.930 . S
C675 C676 1.355 1_556 S
C675 C677 1.415 1_556 S
C676 C675 1.355 1_554 S
C676 C678 1.419 . S
C677 C672 1.425 . S
C677 C674 1.409 1_554 S
C677 C675 1.415 1_554 S
C678 H668 0.930 . S
C678 C676 1.419 . S
C678 C679 1.362 . S
C679 H669 0.930 . S
C679 C672 1.409 . S
C679 C678 1.362 . S
H680 C686 0.930 . S
H681 C689 0.930 . S
H682 C690 0.930 . S
H683 C691 0.930 . S
H684 C694 0.930 . S
H685 C695 0.930 . S
C686 H680 0.930 . S
C686 C687 1.355 1_545 S
C686 C688 1.415 . S
C687 C686 1.355 1_565 S
C687 C689 1.419 . S
C688 C686 1.415 . S
C688 C693 1.425 . S
C688 C695 1.409 1_554 S
C689 H681 0.930 . S
C689 C687 1.419 . S
C689 C690 1.362 1_565 S
C690 H682 0.930 . S
C690 C689 1.362 1_545 S
C690 C693 1.409 . S
C691 H683 0.930 . S
C691 C692 1.358 . S
C691 C693 1.415 . S
C692 C691 1.358 . S
C692 C694 1.416 1_554 S
C693 C688 1.425 . S
C693 C690 1.409 . S
C693 C691 1.415 . S
C694 H684 0.930 . S
C694 C692 1.416 1_556 S
C694 C695 1.362 . S
C695 H685 0.930 . S
C695 C688 1.409 1_556 S
C695 C694 1.362 . S
H696 C702 0.930 . S
H697 C705 0.930 . S
H698 C706 0.930 . S
H699 C707 0.923 1_556 S
H700 C710 0.930 . S
H701 C711 0.930 . S
C702 H696 0.930 . S
C702 C703 1.355 . S
C702 C704 1.415 . S
C703 C702 1.355 . S
C703 C705 1.419 . S
C704 C702 1.415 . S
C704 C709 1.425 . S
C704 C711 1.409 . S
C705 H697 0.930 . S
C705 C703 1.419 . S
C705 C706 1.362 . S
C706 H698 0.930 . S
C706 C705 1.362 . S
C706 C709 1.409 . S
C707 H699 0.923 1_554 S
C707 C708 1.356 . S
C707 C709 1.420 . S
C708 C707 1.356 . S
C708 C710 1.419 . S
C709 C704 1.425 . S
C709 C706 1.409 . S
C709 C707 1.420 . S
C710 H700 0.930 . S
C710 C708 1.419 . S
C710 C711 1.362 . S
C711 H701 0.930 . S
C711 C704 1.409 . S
C711 C710 1.362 . S
H712 C718 0.930 . S
H713 C721 0.930 . S
H714 C722 0.930 . S
H715 C723 0.930 . S
H716 C726 0.930 . S
H717 C727 0.930 . S
C718 H712 0.930 . S
C718 C719 1.355 . S
C718 C720 1.415 . S
C719 C718 1.355 . S
C719 C721 1.419 . S
C720 C718 1.415 . S
C720 C725 1.425 . S
C720 C727 1.409 . S
C721 H713 0.930 . S
C721 C719 1.419 . S
C721 C722 1.362 1_554 S
C722 H714 0.930 . S
C722 C721 1.362 1_556 S
C722 C725 1.409 1_556 S
C723 H715 0.930 . S
C723 C724 1.355 1_556 S
C723 C725 1.415 1_556 S
C724 C723 1.355 1_554 S
C724 C726 1.419 . S
C725 C720 1.425 . S
C725 C722 1.409 1_554 S
C725 C723 1.415 1_554 S
C726 H716 0.930 . S
C726 C724 1.419 . S
C726 C727 1.362 . S
C727 H717 0.930 . S
C727 C720 1.409 . S
C727 C726 1.362 . S
H728 C734 0.930 . S
H729 C737 0.930 . S
H730 C738 0.930 . S
H731 C739 0.930 . S
H732 C742 0.930 . S
H733 C743 0.930 . S
C734 H728 0.930 . S
C734 C735 1.355 1_655 S
C734 C736 1.415 . S
C735 C734 1.355 1_455 S
C735 C737 1.419 . S
C736 C734 1.415 . S
C736 C741 1.425 1_655 S
C736 C743 1.409 . S
C737 H729 0.930 . S
C737 C735 1.419 . S
C737 C738 1.362 . S
C738 H730 0.930 . S
C738 C737 1.362 . S
C738 C741 1.409 . S
C739 H731 0.930 . S
C739 C740 1.355 . S
C739 C741 1.415 . S
C740 C739 1.355 . S
C740 C742 1.419 1_455 S
C741 C736 1.425 1_455 S
C741 C738 1.409 . S
C741 C739 1.415 . S
C742 H732 0.930 . S
C742 C740 1.419 1_655 S
C742 C743 1.362 . S
C743 H733 0.930 . S
C743 C736 1.409 . S
C743 C742 1.362 . S
H744 C750 0.922 1_565 S
H745 C753 0.930 . S
H746 C754 0.930 . S
H747 C755 0.930 . S
H748 C758 0.930 . S
H749 C759 0.922 1_565 S
C750 H744 0.922 1_545 S
C750 C751 1.359 . S
C750 C752 1.419 . S
C751 C750 1.359 . S
C751 C753 1.419 . S
C752 C750 1.419 . S
C752 C757 1.425 . S
C752 C759 1.409 . S
C753 H745 0.930 . S
C753 C751 1.419 . S
C753 C754 1.362 . S
C754 H746 0.930 . S
C754 C753 1.362 . S
C754 C757 1.409 . S
C755 H747 0.930 . S
C755 C756 1.355 . S
C755 C757 1.415 . S
C756 C755 1.355 . S
C756 C758 1.419 . S
C757 C752 1.425 . S
C757 C754 1.409 . S
C757 C755 1.415 . S
C758 H748 0.930 . S
C758 C756 1.419 . S
C758 C759 1.362 . S
C759 H749 0.922 1_545 S
C759 C752 1.409 . S
C759 C758 1.362 . S
H760 C766 0.930 . S
H761 C769 0.930 . S
H762 C770 0.930 . S
H763 C771 0.930 . S
H764 C774 0.930 . S
H765 C775 0.930 . S
C766 H760 0.930 . S
C766 C767 1.355 . S
C766 C768 1.415 . S
C767 C766 1.355 . S
C767 C769 1.419 . S
C768 C766 1.415 . S
C768 C773 1.425 . S
C768 C775 1.409 . S
C769 H761 0.930 . S
C769 C767 1.419 . S
C769 C770 1.362 . S
C770 H762 0.930 . S
C770 C769 1.362 . S
C770 C773 1.409 . S
C771 H763 0.930 . S
C771 C772 1.355 . S
C771 C773 1.415 . S
C772 C771 1.355 . S
C772 C774 1.419 . S
C773 C768 1.425 . S
C773 C770 1.409 . S
C773 C771 1.415 . S
C774 H764 0.930 . S
C774 C772 1.419 . S
C774 C775 1.362 . S
C775 H765 0.930 . S
C775 C768 1.409 . S
C775 C774 1.362 . S
H776 C782 0.930 . S
H777 C785 0.930 . S
H778 C786 0.930 . S
H779 C787 0.930 . S
H780 C790 0.930 . S
H781 C791 0.930 . S
C782 H776 0.930 . S
C782 C783 1.355 . S
C782 C784 1.415 . S
C783 C782 1.355 . S
C783 C785 1.419 . S
C784 C782 1.415 . S
C784 C789 1.425 . S
C784 C791 1.409 . S
C785 H777 0.930 . S
C785 C783 1.419 . S
C785 C786 1.362 . S
C786 H778 0.930 . S
C786 C785 1.362 . S
C786 C789 1.409 . S
C787 H779 0.930 . S
C787 C788 1.355 . S
C787 C789 1.415 . S
C788 C787 1.355 . S
C788 C790 1.419 . S
C789 C784 1.425 . S
C789 C786 1.409 . S
C789 C787 1.415 . S
C790 H780 0.930 . S
C790 C788 1.419 . S
C790 C791 1.362 . S
C791 H781 0.930 . S
C791 C784 1.409 . S
C791 C790 1.362 . S
H792 C798 0.930 . S
H793 C801 0.930 . S
H794 C802 0.930 . S
H795 C803 0.930 1_455 S
H796 C806 0.930 . S
H797 C807 0.930 . S
C798 H792 0.930 . S
C798 C799 1.355 . S
C798 C800 1.415 . S
C799 C798 1.355 . S
C799 C801 1.419 1_655 S
C800 C798 1.415 . S
C800 C805 1.425 . S
C800 C807 1.409 . S
C801 H793 0.930 . S
C801 C799 1.419 1_455 S
C801 C802 1.362 . S
C802 H794 0.930 . S
C802 C801 1.362 . S
C802 C805 1.409 1_455 S
C803 H795 0.930 1_655 S
C803 C804 1.355 . S
C803 C805 1.415 . S
C804 C803 1.355 . S
C804 C806 1.419 . S
C805 C800 1.425 . S
C805 C802 1.409 1_655 S
C805 C803 1.415 . S
C806 H796 0.930 . S
C806 C804 1.419 . S
C806 C807 1.362 . S
C807 H797 0.930 . S
C807 C800 1.409 . S
C807 C806 1.362 . S
H808 C814 0.930 . S
H809 C817 0.930 . S
H810 C818 0.930 . S
H811 C819 0.930 . S
H812 C822 0.930 . S
H813 C823 0.930 . S
C814 H808 0.930 . S
C814 C815 1.355 1_545 S
C814 C816 1.415 . S
C815 C814 1.355 1_565 S
C815 C817 1.419 . S
C816 C814 1.415 . S
C816 C821 1.425 1_545 S
C816 C823 1.409 . S
C817 H809 0.930 . S
C817 C815 1.419 . S
C817 C818 1.362 . S
C818 H810 0.930 . S
C818 C817 1.362 . S
C818 C821 1.409 . S
C819 H811 0.930 . S
C819 C820 1.355 . S
C819 C821 1.415 . S
C820 C819 1.355 . S
C820 C822 1.419 1_565 S
C821 C816 1.425 1_565 S
C821 C818 1.409 . S
C821 C819 1.415 . S
C822 H812 0.930 . S
C822 C820 1.419 1_545 S
C822 C823 1.362 . S
C823 H813 0.930 . S
C823 C816 1.409 . S
C823 C822 1.362 . S
H824 C830 0.930 . S
H825 C833 0.930 . S
H826 C834 0.930 . S
H827 C835 0.930 . S
H828 C838 0.930 . S
H829 C839 0.930 . S
C830 H824 0.930 . S
C830 C831 1.355 . S
C830 C832 1.415 . S
C831 C830 1.355 . S
C831 C833 1.419 . S
C832 C830 1.415 . S
C832 C837 1.425 . S
C832 C839 1.409 . S
C833 H825 0.930 . S
C833 C831 1.419 . S
C833 C834 1.362 . S
C834 H826 0.930 . S
C834 C833 1.362 . S
C834 C837 1.409 . S
C835 H827 0.930 . S
C835 C836 1.355 . S
C835 C837 1.415 . S
C836 C835 1.355 . S
C836 C838 1.419 . S
C837 C832 1.425 . S
C837 C834 1.409 . S
C837 C835 1.415 . S
C838 H828 0.930 . S
C838 C836 1.419 . S
C838 C839 1.362 . S
C839 H829 0.930 . S
C839 C832 1.409 . S
C839 C838 1.362 . S
H840 C846 0.930 . S
H841 C849 0.930 . S
H842 C850 0.930 . S
H843 C851 0.930 . S
H844 C854 0.930 . S
H845 C855 0.930 . S
C846 H840 0.930 . S
C846 C847 1.355 . S
C846 C848 1.415 . S
C847 C846 1.355 . S
C847 C849 1.419 . S
C848 C846 1.415 . S
C848 C853 1.425 . S
C848 C855 1.409 . S
C849 H841 0.930 . S
C849 C847 1.419 . S
C849 C850 1.362 . S
C850 H842 0.930 . S
C850 C849 1.362 . S
C850 C853 1.409 . S
C851 H843 0.930 . S
C851 C852 1.355 . S
C851 C853 1.415 . S
C852 C851 1.355 . S
C852 C854 1.419 . S
C853 C848 1.425 . S
C853 C850 1.409 . S
C853 C851 1.415 . S
C854 H844 0.930 . S
C854 C852 1.419 . S
C854 C855 1.362 . S
C855 H845 0.930 . S
C855 C848 1.409 . S
C855 C854 1.362 . S
C479 C255 2.331 1_545 S
C484 C322 2.535 . S
C500 C362 2.545 . S
C495 C294 2.282 . S
C516 C402 2.557 . S
C511 C177 2.331 . S
C532 C442 2.551 1_455 S
C527 C216 2.322 . S
C548 C331 2.546 1_565 S
C543 C99 2.320 1_545 S
C559 C138 2.257 . S
C564 C371 2.543 . S
C575 C21 2.347 . S
C580 C411 2.550 . S
C591 C60 2.296 1_455 S
C596 C451 2.544 1_655 S
C612 C328 0.593 . S
C607 C196 0.628 1_455 S
C628 C368 0.496 . S
C623 C235 0.535 1_545 S
C644 C408 0.464 . S
C639 C289 0.467 . S
C655 C157 0.598 . S
C660 C448 0.652 . S
C671 C40 0.638 . S
C676 C319 0.604 1_554 S
C692 C359 0.572 1_554 S
C687 C79 0.509 . S
C708 C399 0.677 1_554 S
C703 C133 0.632 . S
C719 C1 0.656 . S
C724 C439 0.673 1_554 S
C735 C211 2.979 . S
C740 C323 3.435 . S
C751 C250 2.942 . S
C756 C363 3.428 . S
C772 C403 3.422 . S
C767 C274 2.952 . S
C788 C443 3.452 . S
C783 C172 2.972 . S
C799 C55 3.021 1_655 S
C804 C314 3.471 . S
C820 C354 3.429 . S
C815 C94 3.002 1_565 S
C836 C394 3.441 . S
C831 C118 2.970 . S
C847 C16 3.019 . S
C852 C434 3.457 . S
