# Generated by pormake.
# Topology wbl, (4,4)-cn, num edge types: 1
# Building blocks:
#     Node 0, Type 0, BuildingBlock: MIFKUJ_clean_linker_1, # of connection points: 4
#     Node 1, Type 0, BuildingBlock: MIFKUJ_clean_linker_1, # of connection points: 4
#     Node 2, Type 0, BuildingBlock: MIFKUJ_clean_linker_1, # of connection points: 4
#     Node 3, Type 0, BuildingBlock: MIFKUJ_clean_linker_1, # of connection points: 4
#     Node 4, Type 0, BuildingBlock: MIFKUJ_clean_linker_1, # of connection points: 4
#     Node 5, Type 0, BuildingBlock: MIFKUJ_clean_linker_1, # of connection points: 4
#     Node 6, Type 0, BuildingBlock: MIFKUJ_clean_linker_1, # of connection points: 4
#     Node 7, Type 0, BuildingBlock: MIFKUJ_clean_linker_1, # of connection points: 4
#     Node 8, Type 1, BuildingBlock: KUFVIS_clean_sbu_0, # of connection points: 4
#     Node 9, Type 1, BuildingBlock: KUFVIS_clean_sbu_0, # of connection points: 4
#     Node 10, Type 1, BuildingBlock: KUFVIS_clean_sbu_0, # of connection points: 4
#     Node 11, Type 1, BuildingBlock: KUFVIS_clean_sbu_0, # of connection points: 4
#     Node 12, Type 1, BuildingBlock: KUFVIS_clean_sbu_0, # of connection points: 4
#     Node 13, Type 1, BuildingBlock: KUFVIS_clean_sbu_0, # of connection points: 4
#     Node 14, Type 1, BuildingBlock: KUFVIS_clean_sbu_0, # of connection points: 4
#     Node 15, Type 1, BuildingBlock: KUFVIS_clean_sbu_0, # of connection points: 4
#     Edge 16, Type (0, 1), BuildingBlock: MIFKUJ_clean_linker_0, # of connection points: 2
#     Edge 17, Type (0, 1), BuildingBlock: MIFKUJ_clean_linker_0, # of connection points: 2
#     Edge 18, Type (0, 1), BuildingBlock: MIFKUJ_clean_linker_0, # of connection points: 2
#     Edge 19, Type (0, 1), BuildingBlock: MIFKUJ_clean_linker_0, # of connection points: 2
#     Edge 20, Type (0, 1), BuildingBlock: MIFKUJ_clean_linker_0, # of connection points: 2
#     Edge 21, Type (0, 1), BuildingBlock: MIFKUJ_clean_linker_0, # of connection points: 2
#     Edge 22, Type (0, 1), BuildingBlock: MIFKUJ_clean_linker_0, # of connection points: 2
#     Edge 23, Type (0, 1), BuildingBlock: MIFKUJ_clean_linker_0, # of connection points: 2
#     Edge 24, Type (0, 1), BuildingBlock: MIFKUJ_clean_linker_0, # of connection points: 2
#     Edge 25, Type (0, 1), BuildingBlock: MIFKUJ_clean_linker_0, # of connection points: 2
#     Edge 26, Type (0, 1), BuildingBlock: MIFKUJ_clean_linker_0, # of connection points: 2
#     Edge 27, Type (0, 1), BuildingBlock: MIFKUJ_clean_linker_0, # of connection points: 2
#     Edge 28, Type (0, 1), BuildingBlock: MIFKUJ_clean_linker_0, # of connection points: 2
#     Edge 29, Type (0, 1), BuildingBlock: MIFKUJ_clean_linker_0, # of connection points: 2
#     Edge 30, Type (0, 1), BuildingBlock: MIFKUJ_clean_linker_0, # of connection points: 2
#     Edge 31, Type (0, 1), BuildingBlock: MIFKUJ_clean_linker_0, # of connection points: 2
#     Edge 32, Type (0, 1), BuildingBlock: MIFKUJ_clean_linker_0, # of connection points: 2
#     Edge 33, Type (0, 1), BuildingBlock: MIFKUJ_clean_linker_0, # of connection points: 2
#     Edge 34, Type (0, 1), BuildingBlock: MIFKUJ_clean_linker_0, # of connection points: 2
#     Edge 35, Type (0, 1), BuildingBlock: MIFKUJ_clean_linker_0, # of connection points: 2
#     Edge 36, Type (0, 1), BuildingBlock: MIFKUJ_clean_linker_0, # of connection points: 2
#     Edge 37, Type (0, 1), BuildingBlock: MIFKUJ_clean_linker_0, # of connection points: 2
#     Edge 38, Type (0, 1), BuildingBlock: MIFKUJ_clean_linker_0, # of connection points: 2
#     Edge 39, Type (0, 1), BuildingBlock: MIFKUJ_clean_linker_0, # of connection points: 2
#     Edge 40, Type (0, 1), BuildingBlock: MIFKUJ_clean_linker_0, # of connection points: 2
#     Edge 41, Type (0, 1), BuildingBlock: MIFKUJ_clean_linker_0, # of connection points: 2
#     Edge 42, Type (0, 1), BuildingBlock: MIFKUJ_clean_linker_0, # of connection points: 2
#     Edge 43, Type (0, 1), BuildingBlock: MIFKUJ_clean_linker_0, # of connection points: 2
#     Edge 44, Type (0, 1), BuildingBlock: MIFKUJ_clean_linker_0, # of connection points: 2
#     Edge 45, Type (0, 1), BuildingBlock: MIFKUJ_clean_linker_0, # of connection points: 2
#     Edge 46, Type (0, 1), BuildingBlock: MIFKUJ_clean_linker_0, # of connection points: 2
#     Edge 47, Type (0, 1), BuildingBlock: MIFKUJ_clean_linker_0, # of connection points: 2
# Relax obj value: 0.149
# Max RMSD: 0.141
# Mean RMSD: 0.129
data_MOF--net-wbl--node1-KUFVIS_clean_sbu_0--node2-MIFKUJ_clean_linker_1--edge1-MIFKUJ_clean_linker_0
_symmetry_space_group_name_H-M    P1
_symmetry_Int_Tables_number       1
_symmetry_cell_setting            triclinic
loop_
_symmetry_equiv_pos_as_xyz
'x, y, z'
_cell_length_a     57.519539
_cell_length_b     57.526986
_cell_length_c     92.656886
_cell_angle_alpha  90.02398
_cell_angle_beta   90.661412
_cell_angle_gamma 89.991013
loop_
_atom_site_label
_atom_site_type_symbol
_atom_site_fract_x
_atom_site_fract_y
_atom_site_fract_z
_atom_type_partial_charge
H0 H 0.00926 0.06444 0.34979 0.0
H1 H 0.9826 0.08689 0.36461 0.0
H2 H 0.92436 0.05055 0.34518 0.0
H3 H 0.95129 0.02745 0.33079 0.0
H4 H 0.01605 0.01793 0.34982 0.0
H5 H 0.98691 0.07542 0.31631 0.0
H6 H 0.95401 0.09482 0.30475 0.0
H7 H 0.93706 0.0312 0.28201 0.0
H8 H 0.96864 0.01145 0.29467 0.0
H9 H 0.02187 0.96822 0.2955 0.0
H10 H 0.05021 0.94504 0.28217 0.0
H11 H 0.10616 0.98113 0.30419 0.0
H12 H 0.07784 0.0046 0.31712 0.0
H13 H 0.01321 0.01396 0.29636 0.0
H14 H 0.03635 0.95561 0.32997 0.0
H15 H 0.05982 0.93117 0.34608 0.0
H16 H 0.08499 0.99254 0.36813 0.0
H17 H 0.0616 0.01691 0.35195 0.0
C18 C 0.98228 0.04438 0.33912 0.0
C19 C 0.99074 0.06132 0.34872 0.0
C20 C 0.97544 0.07433 0.35707 0.0
C21 C 0.9513 0.07065 0.35603 0.0
C22 C 0.94285 0.05372 0.34633 0.0
C23 C 0.9582 0.04062 0.33801 0.0
C24 C 0.99884 0.0303 0.33058 0.0
C25 C 0.0157 0.01737 0.33811 0.0
C26 C 0.99772 0.02893 0.31531 0.0
C27 C 0.97986 0.04175 0.30673 0.0
C28 C 0.97596 0.0656 0.30894 0.0
C29 C 0.95728 0.07679 0.30211 0.0
C30 C 0.9425 0.06455 0.29257 0.0
C31 C 0.94753 0.04107 0.28962 0.0
C32 C 0.96586 0.02978 0.29671 0.0
C33 C 0.04773 0.98801 0.30739 0.0
C34 C 0.04025 0.97122 0.29736 0.0
C35 C 0.05645 0.95787 0.28985 0.0
C36 C 0.08043 0.96123 0.29213 0.0
C37 C 0.08783 0.97828 0.30205 0.0
C38 C 0.07165 0.99157 0.30956 0.0
C39 C 0.03059 0.0018 0.31564 0.0
C40 C 0.01367 0.01468 0.30806 0.0
C41 C 0.03136 0.00287 0.33089 0.0
C42 C 0.04727 0.98813 0.33971 0.0
C43 C 0.0473 0.96384 0.33806 0.0
C44 C 0.06072 0.94988 0.34728 0.0
C45 C 0.07414 0.95994 0.35842 0.0
C46 C 0.07458 0.98428 0.35977 0.0
C47 C 0.06127 0.99822 0.35052 0.0
H48 H 0.00878 0.4482 0.54772 0.0
H49 H 0.98959 0.41625 0.53499 0.0
H50 H 0.92321 0.43951 0.55106 0.0
H51 H 0.94237 0.47226 0.5629 0.0
H52 H 0.00691 0.49431 0.54657 0.0
H53 H 0.9865 0.43571 0.58203 0.0
H54 H 0.96036 0.41057 0.59558 0.0
H55 H 0.92384 0.47121 0.61106 0.0
H56 H 0.94924 0.49607 0.59691 0.0
H57 H 0.99577 0.54992 0.59806 0.0
H58 H 0.01779 0.57733 0.61306 0.0
H59 H 0.08199 0.54659 0.59848 0.0
H60 H 0.05984 0.51969 0.58328 0.0
H61 H 0.99505 0.50239 0.59931 0.0
H62 H 0.00803 0.55978 0.56357 0.0
H63 H 0.03177 0.58897 0.55155 0.0
H64 H 0.07923 0.53528 0.5379 0.0
H65 H 0.05527 0.50598 0.55007 0.0
C66 C 0.97709 0.46239 0.5565 0.0
C67 C 0.99004 0.44663 0.54828 0.0
C68 C 0.97905 0.42818 0.54115 0.0
C69 C 0.95485 0.42502 0.54215 0.0
C70 C 0.94183 0.44142 0.54992 0.0
C71 C 0.95281 0.46004 0.55688 0.0
C72 C 0.98915 0.48063 0.56512 0.0
C73 C 0.0045 0.49582 0.55812 0.0
C74 C 0.98545 0.48325 0.58014 0.0
C75 C 0.96969 0.46778 0.58833 0.0
C76 C 0.97264 0.44354 0.58817 0.0
C77 C 0.95779 0.4292 0.59604 0.0
C78 C 0.93992 0.43883 0.60441 0.0
C79 C 0.93709 0.46313 0.60454 0.0
C80 C 0.9518 0.47741 0.59659 0.0
C81 C 0.02616 0.53284 0.58953 0.0
C82 C 0.01459 0.5492 0.59807 0.0
C83 C 0.02723 0.56481 0.60666 0.0
C84 C 0.0517 0.56417 0.60702 0.0
C85 C 0.06321 0.54788 0.5983 0.0
C86 C 0.05056 0.53239 0.58965 0.0
C87 C 0.0128 0.51574 0.58077 0.0
C88 C 0.99735 0.50078 0.58775 0.0
C89 C 0.01602 0.51356 0.56574 0.0
C90 C 0.02996 0.53078 0.55773 0.0
C91 C 0.02348 0.55427 0.55792 0.0
C92 C 0.03699 0.57089 0.55099 0.0
C93 C 0.0573 0.56436 0.54375 0.0
C94 C 0.06371 0.54077 0.54346 0.0
C95 C 0.05 0.52405 0.5503 0.0
H96 H 0.51299 0.56618 0.84909 0.0
H97 H 0.48618 0.58793 0.86427 0.0
H98 H 0.42837 0.55009 0.84549 0.0
H99 H 0.45541 0.52776 0.83078 0.0
H100 H 0.52024 0.51926 0.84957 0.0
H101 H 0.49582 0.5763 0.81294 0.0
H102 H 0.46397 0.59729 0.80107 0.0
H103 H 0.43414 0.5318 0.78726 0.0
H104 H 0.46652 0.51116 0.79867 0.0
H105 H 0.52641 0.46888 0.79492 0.0
H106 H 0.55548 0.44624 0.78182 0.0
H107 H 0.61025 0.48257 0.80484 0.0
H108 H 0.58127 0.50559 0.81743 0.0
H109 H 0.51622 0.51392 0.79614 0.0
H110 H 0.53686 0.45641 0.83063 0.0
H111 H 0.55908 0.43128 0.8469 0.0
H112 H 0.59037 0.49189 0.86677 0.0
H113 H 0.56747 0.5169 0.85071 0.0
C114 C 0.48621 0.54548 0.83872 0.0
C115 C 0.49453 0.56267 0.8482 0.0
C116 C 0.47914 0.57524 0.85677 0.0
C117 C 0.4551 0.5708 0.85607 0.0
C118 C 0.44679 0.55381 0.84638 0.0
C119 C 0.4622 0.54119 0.83785 0.0
C120 C 0.50279 0.53126 0.83031 0.0
C121 C 0.5197 0.51846 0.83787 0.0
C122 C 0.50132 0.52934 0.81511 0.0
C123 C 0.48344 0.5422 0.80671 0.0
C124 C 0.48255 0.56656 0.80716 0.0
C125 C 0.46421 0.5785 0.80048 0.0
C126 C 0.44629 0.56628 0.79329 0.0
C127 C 0.44773 0.54187 0.79249 0.0
C128 C 0.46621 0.52998 0.79905 0.0
C129 C 0.55164 0.48877 0.80726 0.0
C130 C 0.54469 0.47205 0.79704 0.0
C131 C 0.56132 0.45901 0.78966 0.0
C132 C 0.58521 0.46257 0.79229 0.0
C133 C 0.59204 0.47955 0.80241 0.0
C134 C 0.57546 0.49256 0.80975 0.0
C135 C 0.53417 0.50231 0.81542 0.0
C136 C 0.51703 0.51492 0.80782 0.0
C137 C 0.53508 0.50368 0.83066 0.0
C138 C 0.55053 0.48852 0.83946 0.0
C139 C 0.54879 0.46425 0.83835 0.0
C140 C 0.5616 0.44989 0.84764 0.0
C141 C 0.57646 0.45953 0.85824 0.0
C142 C 0.57877 0.48387 0.85894 0.0
C143 C 0.56581 0.49821 0.84972 0.0
H144 H 0.51031 0.94385 0.04678 0.0
H145 H 0.4906 0.9131 0.03317 0.0
H146 H 0.42435 0.93768 0.04863 0.0
H147 H 0.44409 0.96905 0.0616 0.0
H148 H 0.5088 0.99061 0.04586 0.0
H149 H 0.48956 0.93131 0.0821 0.0
H150 H 0.46454 0.90629 0.0967 0.0
H151 H 0.42439 0.96634 0.10922 0.0
H152 H 0.44923 0.99112 0.09453 0.0
H153 H 0.49774 0.04644 0.09642 0.0
H154 H 0.51963 0.07288 0.11219 0.0
H155 H 0.58342 0.03807 0.10059 0.0
H156 H 0.56144 0.01232 0.08456 0.0
H157 H 0.49665 0.99708 0.09867 0.0
H158 H 0.5038 0.05242 0.05906 0.0
H159 H 0.52602 0.08366 0.04806 0.0
H160 H 0.58506 0.03754 0.04416 0.0
H161 H 0.562 0.00593 0.0546 0.0
C162 C 0.47872 0.95851 0.05541 0.0
C163 C 0.49151 0.94277 0.04709 0.0
C164 C 0.48023 0.92507 0.03942 0.0
C165 C 0.4559 0.92274 0.03992 0.0
C166 C 0.44308 0.93903 0.0479 0.0
C167 C 0.45437 0.95682 0.05548 0.0
C168 C 0.49095 0.97633 0.06424 0.0
C169 C 0.5064 0.99167 0.05744 0.0
C170 C 0.48711 0.97857 0.07926 0.0
C171 C 0.47119 0.96305 0.08722 0.0
C172 C 0.47515 0.93899 0.08783 0.0
C173 C 0.46094 0.92476 0.09622 0.0
C174 C 0.44248 0.93436 0.10408 0.0
C175 C 0.43825 0.95838 0.10313 0.0
C176 C 0.45254 0.97259 0.09485 0.0
C177 C 0.52801 0.02756 0.08929 0.0
C178 C 0.51647 0.04472 0.09721 0.0
C179 C 0.52901 0.05971 0.10627 0.0
C180 C 0.55333 0.05759 0.10773 0.0
C181 C 0.56481 0.04053 0.09957 0.0
C182 C 0.55227 0.0257 0.09043 0.0
C183 C 0.5147 0.01076 0.08034 0.0
C184 C 0.4991 0.99574 0.08711 0.0
C185 C 0.518 0.00903 0.06533 0.0
C186 C 0.53132 0.02699 0.05762 0.0
C187 C 0.52144 0.04901 0.05564 0.0
C188 C 0.5343 0.0669 0.04951 0.0
C189 C 0.55753 0.06329 0.04544 0.0
C190 C 0.5672 0.04092 0.04708 0.0
C191 C 0.55411 0.02286 0.05306 0.0
H192 H 0.99283 0.56902 0.90541 0.0
H193 H 0.01927 0.59065 0.88993 0.0
H194 H 0.0763 0.54734 0.90455 0.0
H195 H 0.04978 0.5263 0.92033 0.0
H196 H 0.9866 0.51912 0.90258 0.0
H197 H 0.00634 0.57679 0.94087 0.0
H198 H 0.03725 0.59861 0.95313 0.0
H199 H 0.07151 0.53389 0.96412 0.0
H200 H 0.0399 0.5124 0.9525 0.0
H201 H 0.97688 0.47132 0.95842 0.0
H202 H 0.94691 0.44781 0.97023 0.0
H203 H 0.89406 0.48105 0.94403 0.0
H204 H 0.92368 0.50513 0.93273 0.0
H205 H 0.98762 0.51501 0.95609 0.0
H206 H 0.96589 0.45655 0.9225 0.0
H207 H 0.9425 0.43168 0.90658 0.0
H208 H 0.91829 0.4924 0.88346 0.0
H209 H 0.94157 0.51719 0.89945 0.0
C210 C 0.01937 0.5461 0.91398 0.0
C211 C 0.01111 0.56446 0.90542 0.0
C212 C 0.02624 0.57671 0.89653 0.0
C213 C 0.0499 0.57058 0.89585 0.0
C214 C 0.05828 0.55272 0.9049 0.0
C215 C 0.04313 0.54059 0.91389 0.0
C216 C 0.00277 0.53159 0.92211 0.0
C217 C 0.98647 0.51847 0.91428 0.0
C218 C 0.00349 0.52994 0.9373 0.0
C219 C 0.02091 0.54304 0.94584 0.0
C220 C 0.02036 0.5674 0.94617 0.0
C221 C 0.03818 0.57982 0.95306 0.0
C222 C 0.05705 0.56809 0.95958 0.0
C223 C 0.05712 0.54359 0.95949 0.0
C224 C 0.03912 0.53121 0.95279 0.0
C225 C 0.95262 0.48966 0.94445 0.0
C226 C 0.95881 0.47377 0.95535 0.0
C227 C 0.94175 0.46032 0.96206 0.0
C228 C 0.91832 0.46242 0.95783 0.0
C229 C 0.91209 0.47882 0.94726 0.0
C230 C 0.92902 0.49252 0.94079 0.0
C231 C 0.97067 0.50291 0.93655 0.0
C232 C 0.98743 0.51568 0.94439 0.0
C233 C 0.97072 0.50379 0.92126 0.0
C234 C 0.95545 0.48876 0.9122 0.0
C235 C 0.95525 0.46454 0.91416 0.0
C236 C 0.94185 0.45034 0.90507 0.0
C237 C 0.92865 0.46009 0.89374 0.0
C238 C 0.92853 0.48437 0.89198 0.0
C239 C 0.94181 0.49855 0.90111 0.0
H240 H 0.50719 0.5498 0.2118 0.0
H241 H 0.48349 0.57902 0.22368 0.0
H242 H 0.42487 0.55982 0.19652 0.0
H243 H 0.44817 0.52927 0.18563 0.0
H244 H 0.50685 0.50437 0.20911 0.0
H245 H 0.4939 0.56939 0.1752 0.0
H246 H 0.47106 0.59493 0.15918 0.0
H247 H 0.44498 0.53478 0.1363 0.0
H248 H 0.46719 0.50941 0.15244 0.0
H249 H 0.51275 0.46046 0.15329 0.0
H250 H 0.53867 0.4366 0.1388 0.0
H251 H 0.59725 0.45954 0.16474 0.0
H252 H 0.57124 0.48405 0.1789 0.0
H253 H 0.51261 0.50645 0.15574 0.0
H254 H 0.51183 0.44337 0.18974 0.0
H255 H 0.53163 0.41152 0.2021 0.0
H256 H 0.57941 0.46063 0.22172 0.0
H257 H 0.55855 0.49257 0.20977 0.0
C258 C 0.47968 0.53771 0.19755 0.0
C259 C 0.48911 0.5516 0.20859 0.0
C260 C 0.47556 0.56857 0.21524 0.0
C261 C 0.45233 0.57229 0.21086 0.0
C262 C 0.44262 0.55754 0.20026 0.0
C263 C 0.45606 0.54022 0.19384 0.0
C264 C 0.4949 0.52136 0.18958 0.0
C265 C 0.50827 0.50512 0.19745 0.0
C266 C 0.49624 0.52157 0.1743 0.0
C267 C 0.48219 0.53746 0.16506 0.0
C268 C 0.48302 0.56172 0.16686 0.0
C269 C 0.47 0.57628 0.15772 0.0
C270 C 0.4564 0.56678 0.14648 0.0
C271 C 0.45553 0.54255 0.14478 0.0
C272 C 0.46823 0.52806 0.15399 0.0
C273 C 0.54001 0.47393 0.16723 0.0
C274 C 0.53115 0.46025 0.15591 0.0
C275 C 0.54599 0.44646 0.14771 0.0
C276 C 0.57004 0.4461 0.15064 0.0
C277 C 0.57884 0.45956 0.16214 0.0
C278 C 0.56396 0.47338 0.17034 0.0
C279 C 0.52436 0.48973 0.17523 0.0
C280 C 0.51113 0.50591 0.1674 0.0
C281 C 0.52257 0.48903 0.19041 0.0
C282 C 0.53382 0.47023 0.19882 0.0
C283 C 0.52642 0.44724 0.19684 0.0
C284 C 0.53796 0.42904 0.2038 0.0
C285 C 0.55743 0.43339 0.21275 0.0
C286 C 0.56441 0.4566 0.21502 0.0
C287 C 0.55257 0.47489 0.20818 0.0
H288 H 0.49196 0.95536 0.40958 0.0
H289 H 0.46864 0.92857 0.39503 0.0
H290 H 0.4066 0.96686 0.40605 0.0
H291 H 0.43013 0.99313 0.42105 0.0
H292 H 0.49421 0.00429 0.4051 0.0
H293 H 0.47071 0.94865 0.44127 0.0
H294 H 0.44044 0.92701 0.45367 0.0
H295 H 0.41341 0.99138 0.47081 0.0
H296 H 0.44297 0.01299 0.45768 0.0
H297 H 0.50163 0.06533 0.45338 0.0
H298 H 0.53237 0.08909 0.46483 0.0
H299 H 0.58323 0.03714 0.4536 0.0
H300 H 0.55275 0.0139 0.44189 0.0
H301 H 0.49008 0.01348 0.45828 0.0
H302 H 0.51217 0.06936 0.42342 0.0
H303 H 0.53705 0.09315 0.40824 0.0
H304 H 0.56312 0.03094 0.3878 0.0
H305 H 0.53922 0.00723 0.40364 0.0
C306 C 0.46276 0.9762 0.41634 0.0
C307 C 0.47331 0.95785 0.40893 0.0
C308 C 0.45994 0.94264 0.40055 0.0
C309 C 0.43574 0.9457 0.39921 0.0
C310 C 0.42514 0.96384 0.40694 0.0
C311 C 0.43855 0.97896 0.41546 0.0
C312 C 0.47742 0.99291 0.42449 0.0
C313 C 0.49347 0.00615 0.41674 0.0
C314 C 0.47571 0.99591 0.43961 0.0
C315 C 0.45878 0.9825 0.44826 0.0
C316 C 0.45816 0.95811 0.44762 0.0
C317 C 0.441 0.94572 0.45489 0.0
C318 C 0.4243 0.95744 0.46316 0.0
C319 C 0.42566 0.98181 0.4643 0.0
C320 C 0.4427 0.99419 0.45691 0.0
C321 C 0.52503 0.03794 0.44682 0.0
C322 C 0.51939 0.05905 0.45352 0.0
C323 C 0.53688 0.07261 0.45995 0.0
C324 C 0.56005 0.06484 0.46008 0.0
C325 C 0.56546 0.04339 0.45372 0.0
C326 C 0.54812 0.03014 0.44704 0.0
C327 C 0.50725 0.02435 0.43887 0.0
C328 C 0.49068 0.0117 0.44663 0.0
C329 C 0.50823 0.02205 0.42371 0.0
C330 C 0.52406 0.03646 0.41485 0.0
C331 C 0.52368 0.06081 0.41593 0.0
C332 C 0.53768 0.07443 0.40707 0.0
C333 C 0.5521 0.06401 0.39676 0.0
C334 C 0.55255 0.03959 0.39577 0.0
C335 C 0.5387 0.02598 0.40473 0.0
H336 H 0.0027 0.04585 0.70783 0.0
H337 H 0.97739 0.0754 0.71815 0.0
H338 H 0.91785 0.0427 0.69768 0.0
H339 H 0.94354 0.01366 0.687 0.0
H340 H 0.00246 0.9955 0.70882 0.0
H341 H 0.98955 0.05921 0.6748 0.0
H342 H 0.9668 0.0847 0.65879 0.0
H343 H 0.94184 0.02467 0.63533 0.0
H344 H 0.96394 0.99925 0.65153 0.0
H345 H 0.00992 0.95085 0.65296 0.0
H346 H 0.03627 0.92683 0.63892 0.0
H347 H 0.09383 0.94902 0.66598 0.0
H348 H 0.06738 0.97371 0.67972 0.0
H349 H 0.00911 0.99609 0.65548 0.0
H350 H 0.01365 0.93278 0.6875 0.0
H351 H 0.03342 0.90219 0.70107 0.0
H352 H 0.06809 0.95416 0.72726 0.0
H353 H 0.0486 0.98486 0.71327 0.0
C354 C 0.975 0.02774 0.69658 0.0
C355 C 0.98415 0.04491 0.70574 0.0
C356 C 0.9696 0.06175 0.71167 0.0
C357 C 0.94552 0.06155 0.70871 0.0
C358 C 0.93633 0.04367 0.69998 0.0
C359 C 0.95094 0.02695 0.69395 0.0
C360 C 0.99082 0.01163 0.68902 0.0
C361 C 0.00414 0.99579 0.69717 0.0
C362 C 0.99234 0.01148 0.67379 0.0
C363 C 0.97831 0.02726 0.66445 0.0
C364 C 0.97885 0.0515 0.66638 0.0
C365 C 0.96592 0.06606 0.65722 0.0
C366 C 0.95267 0.05662 0.64581 0.0
C367 C 0.95211 0.0324 0.64395 0.0
C368 C 0.96473 0.01788 0.6532 0.0
C369 C 0.03663 0.96405 0.66741 0.0
C370 C 0.0282 0.95049 0.65591 0.0
C371 C 0.04327 0.93657 0.64798 0.0
C372 C 0.06717 0.93592 0.65136 0.0
C373 C 0.07556 0.94926 0.66304 0.0
C374 C 0.06042 0.96321 0.67098 0.0
C375 C 0.02065 0.97983 0.67521 0.0
C376 C 0.00744 0.99576 0.66713 0.0
C377 C 0.0186 0.97948 0.69041 0.0
C378 C 0.02989 0.9611 0.69925 0.0
C379 C 0.02555 0.93761 0.69614 0.0
C380 C 0.0367 0.92013 0.70402 0.0
C381 C 0.05232 0.92573 0.71527 0.0
C382 C 0.05633 0.94929 0.71856 0.0
C383 C 0.0451 0.96683 0.71066 0.0
Mn384 Mn 0.32485 0.67524 0.00506 0.0
Mn385 Mn 0.32687 0.61672 0.00706 0.0
C386 C 0.32972 0.65725 0.02726 0.0
C387 C 0.3431 0.71111 0.00242 0.0
C388 C 0.28211 0.64359 0.00288 0.0
O389 O 0.33178 0.66605 0.98438 0.0
O390 O 0.33271 0.62714 0.98695 0.0
C391 C 0.37686 0.61038 0.00081 0.0
N392 N 0.35836 0.60678 0.00957 0.0
C393 C 0.38157 0.58384 0.02598 0.0
C394 C 0.40086 0.5872 0.01709 0.0
C395 C 0.3985 0.60059 0.00448 0.0
C396 C 0.36045 0.59401 0.02176 0.0
H397 H 0.37513 0.62063 0.9911 0.0
C398 C 0.33434 0.64561 0.97931 0.0
O399 O 0.32111 0.70852 0.9995 0.0
O400 O 0.35451 0.69276 0.00649 0.0
N401 N 0.32188 0.60404 0.02583 0.0
C402 C 0.30199 0.60375 0.03367 0.0
C403 C 0.30139 0.59108 0.04661 0.0
C404 C 0.32122 0.57887 0.05131 0.0
C405 C 0.34164 0.57989 0.04325 0.0
C406 C 0.34107 0.59242 0.03031 0.0
H407 H 0.28665 0.61293 0.03001 0.0
O408 O 0.32112 0.67806 0.02637 0.0
O409 O 0.33488 0.64738 0.01505 0.0
O410 O 0.29128 0.66376 0.00261 0.0
O411 O 0.29379 0.62495 0.00472 0.0
C412 C 0.36256 0.56905 0.04756 0.0
C413 C 0.38256 0.57114 0.03898 0.0
H414 H 0.4176 0.57974 0.01991 0.0
H415 H 0.41333 0.60334 0.9976 0.0
H416 H 0.28562 0.59054 0.05286 0.0
H417 H 0.32059 0.56874 0.06114 0.0
H418 H 0.36354 0.55931 0.05755 0.0
H419 H 0.39864 0.56304 0.04251 0.0
Mn420 Mn 0.32005 0.82736 0.25607 0.0
Mn421 Mn 0.37749 0.8358 0.26169 0.0
C422 C 0.33442 0.83268 0.27922 0.0
C423 C 0.28328 0.84276 0.25136 0.0
C424 C 0.35642 0.78855 0.25518 0.0
O425 O 0.33153 0.83565 0.23602 0.0
O426 O 0.36929 0.84257 0.24122 0.0
C427 C 0.37846 0.88681 0.25759 0.0
N428 N 0.38295 0.86785 0.26596 0.0
C429 C 0.3988 0.8917 0.28501 0.0
C430 C 0.39447 0.91149 0.27656 0.0
C431 C 0.38421 0.90903 0.26281 0.0
C432 C 0.39272 0.87002 0.27923 0.0
H433 H 0.3705 0.88498 0.24704 0.0
C434 C 0.35203 0.84156 0.23237 0.0
O435 O 0.28789 0.82108 0.24863 0.0
O436 O 0.30015 0.85543 0.25638 0.0
N437 N 0.38795 0.82997 0.28102 0.0
C438 C 0.39006 0.80923 0.28802 0.0
C439 C 0.39986 0.80865 0.30197 0.0
C440 C 0.4075 0.82934 0.30852 0.0
C441 C 0.40521 0.85046 0.3011 0.0
C442 C 0.39558 0.84992 0.28715 0.0
H443 H 0.38433 0.79326 0.283 0.0
O444 O 0.31449 0.82264 0.27714 0.0
O445 O 0.34523 0.83938 0.26772 0.0
O446 O 0.33521 0.79512 0.25445 0.0
O447 O 0.37333 0.80241 0.25772 0.0
C448 C 0.41184 0.87206 0.30704 0.0
C449 C 0.40854 0.89267 0.29902 0.0
H450 H 0.3988 0.92866 0.28056 0.0
H451 H 0.38071 0.92423 0.25625 0.0
H452 H 0.40155 0.79229 0.30764 0.0
H453 H 0.41509 0.82877 0.31926 0.0
H454 H 0.41919 0.87307 0.31782 0.0
H455 H 0.4134 0.90919 0.30378 0.0
Mn456 Mn 0.17927 0.82311 0.50016 0.0
Mn457 Mn 0.12079 0.82728 0.5005 0.0
C458 C 0.15876 0.82872 0.47875 0.0
C459 C 0.21591 0.84038 0.50159 0.0
C460 C 0.14632 0.78144 0.50286 0.0
O461 O 0.17293 0.82994 0.52128 0.0
O462 O 0.13384 0.83196 0.52024 0.0
C463 C 0.11784 0.87737 0.50768 0.0
N464 N 0.11204 0.85923 0.4989 0.0
C465 C 0.08831 0.88389 0.48381 0.0
C466 C 0.0939 0.90282 0.49274 0.0
C467 C 0.10884 0.89957 0.50467 0.0
C468 C 0.09789 0.86222 0.48731 0.0
H469 H 0.1293 0.87494 0.51687 0.0
C470 C 0.15321 0.83273 0.52718 0.0
O471 O 0.21311 0.81841 0.5043 0.0
O472 O 0.19741 0.85227 0.49841 0.0
N473 N 0.10549 0.82334 0.48224 0.0
C474 C 0.10307 0.80363 0.4742 0.0
C475 C 0.08862 0.80391 0.46189 0.0
C476 C 0.07684 0.8244 0.45801 0.0
C477 C 0.08002 0.84458 0.46626 0.0
C478 C 0.09423 0.84314 0.47857 0.0
H479 H 0.11187 0.78778 0.47726 0.0
O480 O 0.17939 0.8196 0.47873 0.0
O481 O 0.15062 0.83417 0.49137 0.0
O482 O 0.16686 0.78982 0.50257 0.0
O483 O 0.128 0.79391 0.50192 0.0
C484 C 0.06968 0.86607 0.46272 0.0
C485 C 0.07397 0.88576 0.47143 0.0
H486 H 0.08703 0.91998 0.49044 0.0
H487 H 0.11341 0.91416 0.51151 0.0
H488 H 0.08638 0.7883 0.4555 0.0
H489 H 0.06529 0.82447 0.44871 0.0
H490 H 0.05866 0.86772 0.45321 0.0
H491 H 0.06626 0.90229 0.46847 0.0
Mn492 Mn 0.18086 0.67908 0.74746 0.0
Mn493 Mn 0.17681 0.62135 0.74138 0.0
C494 C 0.17502 0.66506 0.72431 0.0
C495 C 0.16375 0.71486 0.75246 0.0
C496 C 0.22247 0.64578 0.7475 0.0
O497 O 0.17397 0.66634 0.76745 0.0
O498 O 0.17099 0.62812 0.76212 0.0
C499 C 0.12645 0.61578 0.74667 0.0
N500 N 0.14499 0.61344 0.73778 0.0
C501 C 0.1209 0.59686 0.71902 0.0
C502 C 0.10158 0.59896 0.72801 0.0
C503 C 0.10436 0.60851 0.74189 0.0
C504 C 0.14249 0.60433 0.72439 0.0
H505 H 0.1285 0.62318 0.75732 0.0
C506 C 0.17044 0.64519 0.77102 0.0
O507 O 0.18569 0.71118 0.75505 0.0
O508 O 0.15169 0.69753 0.74747 0.0
N509 N 0.18183 0.61249 0.72174 0.0
C510 C 0.20195 0.61286 0.71413 0.0
C511 C 0.20207 0.60429 0.69994 0.0
C512 C 0.18155 0.59534 0.69375 0.0
C513 C 0.16105 0.59512 0.70179 0.0
C514 C 0.16204 0.60368 0.71593 0.0
H515 H 0.21777 0.61975 0.71883 0.0
O516 O 0.18414 0.68545 0.72632 0.0
O517 O 0.16998 0.65347 0.73588 0.0
O518 O 0.21405 0.66618 0.74883 0.0
O519 O 0.21013 0.62788 0.74462 0.0
C520 C 0.13959 0.58708 0.69625 0.0
C521 C 0.11952 0.58803 0.70484 0.0
H522 H 0.08449 0.59349 0.72434 0.0
H523 H 0.08951 0.6103 0.74886 0.0
H524 H 0.21794 0.6046 0.69379 0.0
H525 H 0.18171 0.58881 0.68278 0.0
H526 H 0.13827 0.58042 0.68533 0.0
H527 H 0.10305 0.58213 0.70038 0.0
Mn528 Mn 0.82465 0.17524 0.50563 0.0
Mn529 Mn 0.82622 0.1166 0.506 0.0
C530 C 0.82949 0.15556 0.52729 0.0
C531 C 0.843 0.21127 0.50412 0.0
C532 C 0.78163 0.144 0.50283 0.0
O533 O 0.83141 0.16759 0.48467 0.0
O534 O 0.83161 0.12851 0.48618 0.0
C535 C 0.87602 0.11053 0.49912 0.0
N536 N 0.85769 0.10632 0.50792 0.0
C537 C 0.88107 0.08185 0.52334 0.0
C538 C 0.90019 0.08583 0.51441 0.0
C539 C 0.89766 0.1003 0.50228 0.0
C540 C 0.85996 0.09252 0.51965 0.0
H541 H 0.87415 0.1216 0.48977 0.0
C542 C 0.83342 0.14747 0.47902 0.0
O543 O 0.82101 0.20894 0.50114 0.0
O544 O 0.8544 0.19258 0.50754 0.0
N545 N 0.82157 0.10246 0.5244 0.0
C546 C 0.80185 0.1016 0.53238 0.0
C547 C 0.80141 0.08779 0.54486 0.0
C548 C 0.82122 0.07503 0.54897 0.0
C549 C 0.84149 0.07664 0.54079 0.0
C550 C 0.84075 0.09032 0.52831 0.0
H551 H 0.78653 0.11121 0.52917 0.0
O552 O 0.82102 0.17646 0.52701 0.0
O553 O 0.83459 0.14657 0.51481 0.0
O554 O 0.79097 0.16411 0.50292 0.0
O555 O 0.79317 0.12518 0.50422 0.0
C556 C 0.8624 0.06528 0.54455 0.0
C557 C 0.88223 0.06801 0.53588 0.0
H558 H 0.91692 0.07801 0.51683 0.0
H559 H 0.91235 0.10352 0.49537 0.0
H560 H 0.78576 0.08678 0.55119 0.0
H561 H 0.8207 0.064 0.55842 0.0
H562 H 0.86351 0.05466 0.55418 0.0
H563 H 0.89831 0.05949 0.539 0.0
Mn564 Mn 0.82405 0.32177 0.75295 0.0
Mn565 Mn 0.88265 0.32422 0.75389 0.0
C566 C 0.84358 0.32731 0.77471 0.0
C567 C 0.78779 0.33966 0.75078 0.0
C568 C 0.85605 0.27916 0.75146 0.0
O569 O 0.83165 0.32803 0.73194 0.0
O570 O 0.87071 0.3282 0.73382 0.0
C571 C 0.88743 0.37376 0.74568 0.0
N572 N 0.89213 0.35602 0.75501 0.0
C573 C 0.91591 0.38086 0.76997 0.0
C574 C 0.91142 0.39936 0.76049 0.0
C575 C 0.89705 0.39581 0.74833 0.0
C576 C 0.90579 0.35929 0.76679 0.0
H577 H 0.87644 0.3711 0.7363 0.0
C578 C 0.8518 0.32965 0.72643 0.0
O579 O 0.79036 0.31761 0.74825 0.0
O580 O 0.80635 0.35134 0.75417 0.0
N581 N 0.89692 0.32094 0.77251 0.0
C582 C 0.8984 0.30167 0.78101 0.0
C583 C 0.91231 0.30223 0.79355 0.0
C584 C 0.92453 0.32258 0.79719 0.0
C585 C 0.92226 0.34237 0.78849 0.0
C586 C 0.90853 0.34063 0.77598 0.0
H587 H 0.88923 0.28593 0.77815 0.0
O588 O 0.82277 0.31863 0.77437 0.0
O589 O 0.85252 0.33234 0.76225 0.0
O590 O 0.83581 0.28822 0.7509 0.0
O591 O 0.8747 0.29095 0.753 0.0
C592 C 0.93307 0.36375 0.79174 0.0
C593 C 0.92975 0.38303 0.78254 0.0
H594 H 0.91879 0.4164 0.7625 0.0
H595 H 0.89343 0.41004 0.74101 0.0
H596 H 0.91383 0.28695 0.8003 0.0
H597 H 0.93572 0.32284 0.80664 0.0
H598 H 0.94373 0.36562 0.80139 0.0
H599 H 0.93786 0.39947 0.78527 0.0
Mn600 Mn 0.67753 0.32413 0.00055 0.0
Mn601 Mn 0.61914 0.32763 0.00224 0.0
C602 C 0.65569 0.32866 0.97954 0.0
C603 C 0.71362 0.34251 0.0013 0.0
C604 C 0.64607 0.28263 0.00606 0.0
O605 O 0.67179 0.33133 0.02178 0.0
O606 O 0.63286 0.33652 0.02117 0.0
C607 C 0.61334 0.3784 0.00591 0.0
N608 N 0.60877 0.35855 0.99837 0.0
C609 C 0.58389 0.37902 0.98164 0.0
C610 C 0.58827 0.39969 0.98924 0.0
C611 C 0.6031 0.39938 0.0014 0.0
C612 C 0.59457 0.35866 0.98665 0.0
H613 H 0.62471 0.37819 0.01527 0.0
C614 C 0.65257 0.3365 0.02776 0.0
O615 O 0.71166 0.32045 0.00404 0.0
O616 O 0.69466 0.35383 0.9984 0.0
N617 N 0.60381 0.31943 0.98457 0.0
C618 C 0.6025 0.29825 0.97802 0.0
C619 C 0.58862 0.2956 0.96559 0.0
C620 C 0.57618 0.3147 0.96008 0.0
C621 C 0.57797 0.33638 0.96692 0.0
C622 C 0.59189 0.33791 0.97936 0.0
H623 H 0.61183 0.28346 0.98231 0.0
O624 O 0.67662 0.3203 0.97909 0.0
O625 O 0.64826 0.33414 0.9923 0.0
O626 O 0.66625 0.29056 0.00334 0.0
O627 O 0.62779 0.29518 0.0062 0.0
C628 C 0.56654 0.35653 0.9619 0.0
C629 C 0.56963 0.37787 0.96919 0.0
H630 H 0.58045 0.41592 0.98578 0.0
H631 H 0.60662 0.41527 0.00729 0.0
H632 H 0.58732 0.27883 0.96033 0.0
H633 H 0.56521 0.31243 0.95066 0.0
H634 H 0.55547 0.35586 0.95239 0.0
H635 H 0.56104 0.39331 0.9651 0.0
Mn636 Mn 0.67733 0.18101 0.24859 0.0
Mn637 Mn 0.67018 0.12291 0.24603 0.0
C638 C 0.67183 0.16367 0.2263 0.0
C639 C 0.66146 0.21807 0.25108 0.0
C640 C 0.717 0.14567 0.25146 0.0
O641 O 0.66894 0.17192 0.26911 0.0
O642 O 0.66377 0.1333 0.26605 0.0
C643 C 0.61933 0.121 0.2505 0.0
N644 N 0.63815 0.11623 0.24221 0.0
C645 C 0.61409 0.0981 0.224 0.0
C646 C 0.59447 0.10272 0.23238 0.0
C647 C 0.5971 0.11426 0.24567 0.0
C648 C 0.63581 0.10517 0.22939 0.0
H649 H 0.62127 0.12993 0.2607 0.0
C650 C 0.66397 0.15171 0.27386 0.0
O651 O 0.6831 0.21402 0.2544 0.0
O652 O 0.64906 0.20051 0.24683 0.0
N653 N 0.6757 0.11058 0.22719 0.0
C654 C 0.69624 0.10843 0.22012 0.0
C655 C 0.69658 0.09759 0.20654 0.0
C656 C 0.67586 0.08898 0.20041 0.0
C657 C 0.65496 0.09129 0.20792 0.0
C658 C 0.65572 0.10203 0.22148 0.0
H659 H 0.71222 0.11498 0.2248 0.0
O660 O 0.68184 0.18383 0.22725 0.0
O661 O 0.66564 0.15428 0.2384 0.0
O662 O 0.70985 0.1667 0.25126 0.0
O663 O 0.70357 0.1282 0.24962 0.0
C664 C 0.63334 0.08366 0.20239 0.0
C665 C 0.61292 0.08713 0.2104 0.0
H666 H 0.57728 0.09764 0.22866 0.0
H667 H 0.58203 0.11798 0.25216 0.0
H668 H 0.71278 0.0959 0.20081 0.0
H669 H 0.6762 0.0807 0.18992 0.0
H670 H 0.63219 0.07538 0.1919 0.0
H671 H 0.59637 0.08149 0.20595 0.0
H672 H 0.12099 0.97565 0.27993 0.0
H673 H 0.15085 0.95176 0.26874 0.0
H674 H 0.10893 0.89055 0.27524 0.0
H675 H 0.07921 0.91434 0.2869 0.0
H676 H 0.15252 0.88333 0.28404 0.0
H677 H 0.11679 0.91231 0.24126 0.0
H678 H 0.10016 0.94167 0.22475 0.0
H679 H 0.16641 0.97578 0.22248 0.0
H680 H 0.18338 0.94681 0.23915 0.0
H681 H 0.24201 0.81905 0.24979 0.0
H682 H 0.20287 0.83554 0.25216 0.0
H683 H 0.23205 0.9046 0.25297 0.0
H684 H 0.27101 0.88832 0.25068 0.0
H685 H 0.19011 0.9024 0.23758 0.0
H686 H 0.22276 0.87806 0.28383 0.0
H687 H 0.23965 0.84945 0.30077 0.0
H688 H 0.17861 0.80692 0.29639 0.0
H689 H 0.16149 0.83519 0.27927 0.0
C690 C 0.1181 0.95711 0.27898 0.0
C691 C 0.09777 0.94688 0.28437 0.0
C692 C 0.13506 0.9435 0.27241 0.0
C693 C 0.13201 0.91938 0.27098 0.0
C694 C 0.11158 0.90914 0.27615 0.0
C695 C 0.09456 0.92277 0.28273 0.0
C696 C 0.15095 0.90485 0.26501 0.0
C697 C 0.16034 0.88712 0.2737 0.0
C698 C 0.16141 0.90999 0.25162 0.0
C699 C 0.15132 0.92744 0.24153 0.0
C700 C 0.12778 0.92616 0.23732 0.0
C701 C 0.1183 0.94272 0.22792 0.0
C702 C 0.13221 0.9606 0.22259 0.0
C703 C 0.15565 0.96192 0.22662 0.0
C704 C 0.16522 0.94541 0.23603 0.0
C705 C 0.23999 0.83776 0.25014 0.0
C706 C 0.25955 0.85241 0.25019 0.0
C707 C 0.21766 0.84714 0.25154 0.0
C708 C 0.21463 0.87128 0.25289 0.0
C709 C 0.23401 0.88594 0.25194 0.0
C710 C 0.25627 0.8766 0.2507 0.0
C711 C 0.19181 0.88134 0.25675 0.0
C712 C 0.18182 0.89826 0.24772 0.0
C713 C 0.18076 0.8755 0.26982 0.0
C714 C 0.19099 0.85856 0.28014 0.0
C715 C 0.21304 0.86251 0.28639 0.0
C716 C 0.22263 0.84638 0.29604 0.0
C717 C 0.21025 0.82634 0.29961 0.0
C718 C 0.18821 0.82243 0.29358 0.0
C719 C 0.17855 0.8385 0.28391 0.0
H720 H 0.2177 0.81387 0.30709 0.0
H721 H 0.12483 0.97341 0.21531 0.0
H722 H 0.10453 0.56987 0.5457 0.0
H723 H 0.12764 0.60223 0.53625 0.0
H724 H 0.06572 0.63194 0.51708 0.0
H725 H 0.04271 0.59961 0.52629 0.0
H726 H 0.10334 0.63565 0.49928 0.0
H727 H 0.0847 0.64963 0.5497 0.0
H728 H 0.08521 0.63951 0.57557 0.0
H729 H 0.15987 0.63938 0.57575 0.0
H730 H 0.15978 0.64916 0.5498 0.0
H731 H 0.10706 0.7563 0.49746 0.0
H732 H 0.10042 0.71525 0.50199 0.0
H733 H 0.17121 0.70758 0.51708 0.0
H734 H 0.17812 0.74908 0.51256 0.0
H735 H 0.13901 0.68833 0.53573 0.0
H736 H 0.15671 0.68284 0.48602 0.0
H737 H 0.15525 0.69353 0.46027 0.0
H738 H 0.08224 0.67809 0.4586 0.0
H739 H 0.08316 0.66764 0.4844 0.0
C740 C 0.09598 0.5831 0.53923 0.0
C741 C 0.07181 0.58238 0.53682 0.0
C742 C 0.10916 0.6016 0.53391 0.0
C743 C 0.09834 0.61958 0.52608 0.0
C744 C 0.07441 0.61825 0.5231 0.0
C745 C 0.06126 0.59989 0.52845 0.0
C746 C 0.11131 0.6407 0.52181 0.0
C747 C 0.1112 0.64717 0.50722 0.0
C748 C 0.12218 0.65535 0.53215 0.0
C749 C 0.12224 0.64983 0.54778 0.0
C750 C 0.10122 0.64728 0.55524 0.0
C751 C 0.10143 0.64162 0.56991 0.0
C752 C 0.12256 0.63871 0.57729 0.0
C753 C 0.14352 0.64157 0.57001 0.0
C754 C 0.1434 0.64717 0.55532 0.0
C755 C 0.12136 0.74594 0.50162 0.0
C756 C 0.14314 0.75604 0.50467 0.0
C757 C 0.11754 0.72239 0.50413 0.0
C758 C 0.13538 0.7083 0.50974 0.0
C759 C 0.15726 0.71816 0.51267 0.0
C760 C 0.16119 0.74182 0.51004 0.0
C761 C 0.13031 0.68368 0.51323 0.0
C762 C 0.13182 0.67655 0.52769 0.0
C763 C 0.12067 0.66843 0.50277 0.0
C764 C 0.12001 0.67453 0.48719 0.0
C765 C 0.14031 0.68186 0.48019 0.0
C766 C 0.13958 0.68786 0.46557 0.0
C767 C 0.11866 0.68651 0.4578 0.0
C768 C 0.09844 0.67912 0.46463 0.0
C769 C 0.09906 0.67311 0.47925 0.0
H770 H 0.11813 0.69118 0.44649 0.0
H771 H 0.12269 0.63431 0.58865 0.0
H772 H 0.42155 0.55635 0.76849 0.0
H773 H 0.38584 0.57463 0.75984 0.0
H774 H 0.38912 0.62357 0.79511 0.0
H775 H 0.42395 0.60434 0.80443 0.0
H776 H 0.34752 0.60857 0.7929 0.0
H777 H 0.40054 0.63918 0.7589 0.0
H778 H 0.43175 0.63869 0.74089 0.0
H779 H 0.38969 0.59607 0.71291 0.0
H780 H 0.35833 0.59602 0.73084 0.0
H781 H 0.25233 0.67324 0.76318 0.0
H782 H 0.29287 0.66475 0.76972 0.0
H783 H 0.29003 0.60198 0.74432 0.0
H784 H 0.2495 0.61007 0.73792 0.0
H785 H 0.33257 0.62903 0.74161 0.0
H786 H 0.28128 0.59651 0.77779 0.0
H787 H 0.25034 0.59909 0.79593 0.0
H788 H 0.29065 0.64884 0.82005 0.0
H789 H 0.32166 0.64687 0.8019 0.0
C790 C 0.41466 0.57093 0.77448 0.0
C791 C 0.4257 0.57877 0.78721 0.0
C792 C 0.39437 0.58163 0.76937 0.0
C793 C 0.38489 0.60075 0.77668 0.0
C794 C 0.39611 0.60892 0.78923 0.0
C795 C 0.41623 0.59803 0.79446 0.0
C796 C 0.36254 0.61124 0.77173 0.0
C797 C 0.3445 0.61349 0.78174 0.0
C798 C 0.35834 0.61745 0.75713 0.0
C799 C 0.37714 0.61745 0.74628 0.0
C800 C 0.398 0.62956 0.74896 0.0
C801 C 0.41571 0.6294 0.73875 0.0
C802 C 0.41272 0.61732 0.72578 0.0
C803 C 0.39199 0.60541 0.72297 0.0
C804 C 0.37423 0.60549 0.73314 0.0
C805 C 0.26045 0.65782 0.7588 0.0
C806 C 0.24766 0.64225 0.7501 0.0
C807 C 0.28357 0.65299 0.76257 0.0
C808 C 0.29433 0.63269 0.75755 0.0
C809 C 0.282 0.61774 0.74828 0.0
C810 C 0.25881 0.62235 0.7447 0.0
C811 C 0.31781 0.62602 0.76275 0.0
C812 C 0.33592 0.62443 0.7528 0.0
C813 C 0.3222 0.62074 0.77743 0.0
C814 C 0.30365 0.62177 0.78839 0.0
C815 C 0.28344 0.60817 0.78689 0.0
C816 C 0.26591 0.6095 0.79718 0.0
C817 C 0.26849 0.62418 0.80911 0.0
C818 C 0.28865 0.63752 0.81079 0.0
C819 C 0.3062 0.63631 0.8005 0.0
H820 H 0.2549 0.62518 0.81707 0.0
H821 H 0.42646 0.61722 0.71789 0.0
H822 H 0.47067 0.87762 0.03843 0.0
H823 H 0.45047 0.84452 0.02768 0.0
H824 H 0.3937 0.88917 0.01477 0.0
H825 H 0.41406 0.92263 0.02527 0.0
H826 H 0.37882 0.85018 0.02861 0.0
H827 H 0.42886 0.86765 0.98949 0.0
H828 H 0.46598 0.87664 0.97768 0.0
H829 H 0.4936 0.81064 0.99107 0.0
H830 H 0.45676 0.80138 0.00314 0.0
H831 H 0.3235 0.75313 0.9955 0.0
H832 H 0.34154 0.79157 0.99763 0.0
H833 H 0.40601 0.75959 0.01124 0.0
H834 H 0.3883 0.72125 0.00888 0.0
H835 H 0.4142 0.79553 0.9937 0.0
H836 H 0.36716 0.78092 0.03574 0.0
H837 H 0.33084 0.77178 0.04845 0.0
H838 H 0.29841 0.83242 0.03019 0.0
H839 H 0.33448 0.84175 0.01722 0.0
C840 C 0.45413 0.88057 0.03304 0.0
C841 C 0.44404 0.90284 0.03269 0.0
C842 C 0.44256 0.86158 0.02692 0.0
C843 C 0.42069 0.86443 0.0203 0.0
C844 C 0.41059 0.88662 0.01982 0.0
C845 C 0.42221 0.90568 0.02589 0.0
C846 C 0.4079 0.84389 0.01469 0.0
C847 C 0.3863 0.83849 0.02072 0.0
C848 C 0.41789 0.82845 0.00462 0.0
C849 C 0.44007 0.83389 0.99731 0.0
C850 C 0.4429 0.85512 0.99001 0.0
C851 C 0.46389 0.86025 0.98325 0.0
C852 C 0.48215 0.84424 0.98364 0.0
C853 C 0.47944 0.82303 0.99077 0.0
C854 C 0.4585 0.81782 0.99756 0.0
C855 C 0.34161 0.7543 0.99876 0.0
C856 C 0.35442 0.73418 0.00215 0.0
C857 C 0.35186 0.77627 1.00002 0.0
C858 C 0.37502 0.77847 0.0048 0.0
C859 C 0.38812 0.75833 0.00754 0.0
C860 C 0.37792 0.73641 0.00624 0.0
C861 C 0.38537 0.80161 0.00785 0.0
C862 C 0.40652 0.80746 0.00137 0.0
C863 C 0.37505 0.81743 0.01758 0.0
C864 C 0.3534 0.81186 0.02538 0.0
C865 C 0.35222 0.79219 0.03435 0.0
C866 C 0.33169 0.787 0.04161 0.0
C867 C 0.3123 0.80146 0.04009 0.0
C868 C 0.31342 0.8212 0.03133 0.0
C869 C 0.3339 0.82645 0.02403 0.0
H870 H 0.29643 0.79742 0.04572 0.0
H871 H 0.49839 0.84825 0.97841 0.0
H872 H 0.07614 0.60888 0.9498 0.0
H873 H 0.11083 0.62861 0.95882 0.0
H874 H 0.11948 0.57599 0.99161 0.0
H875 H 0.08376 0.55716 0.98341 0.0
H876 H 0.13177 0.61572 0.00235 0.0
H877 H 0.14861 0.5748 0.95815 0.0
H878 H 0.14295 0.56514 0.9324 0.0
H879 H 0.15751 0.63587 0.92081 0.0
H880 H 0.16296 0.64601 0.94652 0.0
H881 H 0.25406 0.608 0.01126 0.0
H882 H 0.21296 0.60238 0.00542 0.0
H883 H 0.21168 0.66773 0.98266 0.0
H884 H 0.25292 0.67375 0.98869 0.0
H885 H 0.19427 0.62816 0.96671 0.0
H886 H 0.18332 0.66643 0.0119 0.0
H887 H 0.19006 0.6737 0.03783 0.0
H888 H 0.16605 0.60494 0.04775 0.0
H889 H 0.15948 0.59711 0.02185 0.0
C890 C 0.085 0.60178 0.95918 0.0
C891 C 0.07718 0.5812 0.96576 0.0
C892 C 0.10508 0.61296 0.96421 0.0
C893 C 0.11813 0.60348 0.97567 0.0
C894 C 0.10983 0.58355 0.98267 0.0
C895 C 0.08953 0.57261 0.97782 0.0
C896 C 0.14104 0.61345 0.97993 0.0
C897 C 0.14545 0.61833 0.99456 0.0
C898 C 0.15881 0.61737 0.96972 0.0
C899 C 0.15593 0.61122 0.95425 0.0
C900 C 0.15048 0.58831 0.95011 0.0
C901 C 0.14732 0.58275 0.93553 0.0
C902 C 0.14979 0.5999 0.92498 0.0
C903 C 0.15555 0.62262 0.92899 0.0
C904 C 0.15869 0.62828 0.94356 0.0
C905 C 0.245 0.62135 0.00517 0.0
C906 C 0.25675 0.64132 0.00042 0.0
C907 C 0.22149 0.61814 0.00189 0.0
C908 C 0.20932 0.63468 0.99366 0.0
C909 C 0.22082 0.65482 0.98907 0.0
C910 C 0.24431 0.65826 0.99257 0.0
C911 C 0.18503 0.62993 0.98912 0.0
C912 C 0.18042 0.62595 0.97444 0.0
C913 C 0.16724 0.62647 0.9993 0.0
C914 C 0.17106 0.63113 0.01491 0.0
C915 C 0.17965 0.65278 0.01959 0.0
C916 C 0.18341 0.65702 0.03429 0.0
C917 C 0.17853 0.63978 0.04443 0.0
C918 C 0.16983 0.61828 0.03989 0.0
C919 C 0.16606 0.61394 0.0252 0.0
H920 H 0.18145 0.64309 0.05581 0.0
H921 H 0.14728 0.59558 0.91369 0.0
H922 H 0.46839 0.61545 0.21859 0.0
H923 H 0.44642 0.64804 0.22815 0.0
H924 H 0.38326 0.60798 0.22526 0.0
H925 H 0.40528 0.57452 0.21642 0.0
H926 H 0.3839 0.65712 0.21239 0.0
H927 H 0.39852 0.6141 0.25609 0.0
H928 H 0.42304 0.59237 0.27342 0.0
H929 H 0.46632 0.65244 0.27962 0.0
H930 H 0.44226 0.67443 0.26215 0.0
H931 H 0.32718 0.7531 0.24651 0.0
H932 H 0.33794 0.71294 0.24079 0.0
H933 H 0.40939 0.72807 0.2519 0.0
H934 H 0.39887 0.76776 0.25788 0.0
H935 H 0.398 0.68697 0.26197 0.0
H936 H 0.38988 0.72784 0.21683 0.0
H937 H 0.36931 0.75104 0.19831 0.0
H938 H 0.31811 0.6972 0.19347 0.0
H939 H 0.3382 0.67382 0.21215 0.0
C940 C 0.44993 0.61321 0.22026 0.0
C941 C 0.43874 0.59211 0.21682 0.0
C942 C 0.43737 0.63201 0.2256 0.0
C943 C 0.41329 0.63032 0.22742 0.0
C944 C 0.40187 0.60955 0.22387 0.0
C945 C 0.41451 0.59051 0.21875 0.0
C946 C 0.40034 0.65058 0.23297 0.0
C947 C 0.38643 0.66341 0.22333 0.0
C948 C 0.40428 0.65897 0.24711 0.0
C949 C 0.41867 0.64586 0.25773 0.0
C950 C 0.41337 0.62262 0.26106 0.0
C951 C 0.42717 0.61027 0.27093 0.0
C952 C 0.44625 0.621 0.2776 0.0
C953 C 0.45154 0.64414 0.27444 0.0
C954 C 0.43781 0.65657 0.26457 0.0
C955 C 0.34514 0.74781 0.24787 0.0
C956 C 0.36217 0.76378 0.25256 0.0
C957 C 0.35127 0.72487 0.24453 0.0
C958 C 0.37452 0.71757 0.24578 0.0
C959 C 0.39134 0.73328 0.25087 0.0
C960 C 0.38527 0.75607 0.25422 0.0
C961 C 0.38184 0.69391 0.24132 0.0
C962 C 0.39486 0.68046 0.25114 0.0
C963 C 0.37747 0.68521 0.22724 0.0
C964 C 0.36535 0.69923 0.21602 0.0
C965 C 0.37411 0.72104 0.21191 0.0
C966 C 0.36257 0.73421 0.20137 0.0
C967 C 0.34239 0.72563 0.19474 0.0
C968 C 0.33372 0.70384 0.19863 0.0
C969 C 0.34517 0.69063 0.2092 0.0
H970 H 0.33349 0.73584 0.18657 0.0
H971 H 0.45691 0.61141 0.28523 0.0
H972 H 0.37872 0.97051 0.46524 0.0
H973 H 0.3467 0.94876 0.47568 0.0
H974 H 0.39349 0.89271 0.48657 0.0
H975 H 0.42593 0.91467 0.47644 0.0
H976 H 0.35349 0.87754 0.47284 0.0
H977 H 0.37321 0.92555 0.51303 0.0
H978 H 0.38266 0.96212 0.52569 0.0
H979 H 0.31547 0.98961 0.51439 0.0
H980 H 0.30573 0.95333 0.50148 0.0
H981 H 0.25842 0.8199 0.50637 0.0
H982 H 0.29681 0.83777 0.50362 0.0
H983 H 0.2642 0.90315 0.49286 0.0
H984 H 0.226 0.88563 0.49585 0.0
H985 H 0.30104 0.91023 0.50984 0.0
H986 H 0.28393 0.8654 0.4667 0.0
H987 H 0.2743 0.8297 0.45315 0.0
H988 H 0.33644 0.79704 0.46936 0.0
H989 H 0.34628 0.83248 0.48317 0.0
C990 C 0.38239 0.95378 0.47012 0.0
C991 C 0.40499 0.94443 0.47005 0.0
C992 C 0.364 0.94132 0.47604 0.0
C993 C 0.36776 0.91922 0.48203 0.0
C994 C 0.39024 0.90976 0.48201 0.0
C995 C 0.40872 0.9223 0.47615 0.0
C996 C 0.34787 0.90574 0.48769 0.0
C997 C 0.34229 0.88442 0.48117 0.0
C998 C 0.33308 0.91492 0.49838 0.0
C999 C 0.3388 0.93675 0.50621 0.0
C1000 C 0.36051 0.93945 0.51316 0.0
C1001 C 0.36591 0.96012 0.52039 0.0
C1002 C 0.34969 0.97819 0.52082 0.0
C1003 C 0.32802 0.9756 0.51405 0.0
C1004 C 0.32254 0.95497 0.50678 0.0
C1005 C 0.25947 0.83815 0.50359 0.0
C1006 C 0.23918 0.85131 0.50123 0.0
C1007 C 0.28141 0.84831 0.50196 0.0
C1008 C 0.28338 0.87173 0.49784 0.0
C1009 C 0.26313 0.88506 0.49604 0.0
C1010 C 0.24127 0.87497 0.4977 0.0
C1011 C 0.30633 0.88233 0.49472 0.0
C1012 C 0.31248 0.90312 0.50172 0.0
C1013 C 0.32158 0.87274 0.4844 0.0
C1014 C 0.31568 0.85146 0.4761 0.0
C1015 C 0.29544 0.85053 0.46747 0.0
C1016 C 0.28996 0.83037 0.45972 0.0
C1017 C 0.30471 0.81109 0.46043 0.0
C1018 C 0.32501 0.81196 0.46885 0.0
C1019 C 0.33055 0.83208 0.47663 0.0
H1020 H 0.30045 0.79549 0.45442 0.0
H1021 H 0.35391 0.99418 0.52643 0.0
H1022 H 0.03461 0.88446 0.7248 0.0
H1023 H 0.05581 0.85192 0.73551 0.0
H1024 H 0.11924 0.8919 0.73471 0.0
H1025 H 0.09822 0.92433 0.72348 0.0
H1026 H 0.12583 0.85012 0.72356 0.0
H1027 H 0.09256 0.87877 0.76682 0.0
H1028 H 0.06159 0.89311 0.7827 0.0
H1029 H 0.02583 0.82787 0.77872 0.0
H1030 H 0.05642 0.81323 0.76265 0.0
H1031 H 0.18613 0.75634 0.75663 0.0
H1032 H 0.16915 0.79532 0.75483 0.0
H1033 H 0.10103 0.76519 0.74902 0.0
H1034 H 0.11782 0.72626 0.75077 0.0
H1035 H 0.10061 0.80511 0.76629 0.0
H1036 H 0.13044 0.77947 0.72027 0.0
H1037 H 0.16073 0.76502 0.70392 0.0
H1038 H 0.20256 0.82518 0.71312 0.0
H1039 H 0.1726 0.83983 0.72969 0.0
C1040 C 0.05306 0.88638 0.72694 0.0
C1041 C 0.06475 0.90694 0.7232 0.0
C1042 C 0.06512 0.86784 0.73324 0.0
C1043 C 0.08909 0.86953 0.73606 0.0
C1044 C 0.10072 0.89025 0.73269 0.0
C1045 C 0.08865 0.90883 0.72637 0.0
C1046 C 0.10219 0.84897 0.74143 0.0
C1047 C 0.12066 0.84063 0.73312 0.0
C1048 C 0.09517 0.83627 0.75373 0.0
C1049 C 0.07674 0.84495 0.76345 0.0
C1050 C 0.07801 0.86753 0.76925 0.0
C1051 C 0.06053 0.8757 0.77829 0.0
C1052 C 0.04173 0.86142 0.78169 0.0
C1053 C 0.0404 0.83891 0.77607 0.0
C1054 C 0.05783 0.83066 0.76701 0.0
C1055 C 0.16748 0.75803 0.75526 0.0
C1056 C 0.15332 0.73825 0.75371 0.0
C1057 C 0.15783 0.7803 0.7542 0.0
C1058 C 0.13388 0.7831 0.75164 0.0
C1059 C 0.11955 0.7634 0.751 0.0
C1060 C 0.12919 0.74116 0.75194 0.0
C1061 C 0.12394 0.80629 0.74832 0.0
C1062 C 0.10604 0.81499 0.75695 0.0
C1063 C 0.13144 0.81936 0.73631 0.0
C1064 C 0.14944 0.81058 0.72636 0.0
C1065 C 0.14619 0.78951 0.71891 0.0
C1066 C 0.16328 0.7813 0.70958 0.0
C1067 C 0.18359 0.79413 0.70752 0.0
C1068 C 0.18683 0.81523 0.71476 0.0
C1069 C 0.16981 0.82349 0.72411 0.0
H1070 H 0.1968 0.78776 0.70029 0.0
H1071 H 0.02821 0.86779 0.7887 0.0
H1072 H 0.62654 0.47743 0.78126 0.0
H1073 H 0.65726 0.45394 0.77072 0.0
H1074 H 0.61493 0.39251 0.7752 0.0
H1075 H 0.5844 0.41585 0.78635 0.0
H1076 H 0.65737 0.38441 0.78484 0.0
H1077 H 0.62563 0.41647 0.7417 0.0
H1078 H 0.61085 0.44702 0.72535 0.0
H1079 H 0.67774 0.48014 0.72599 0.0
H1080 H 0.69285 0.44998 0.74252 0.0
H1081 H 0.74511 0.31861 0.74973 0.0
H1082 H 0.70712 0.33707 0.75307 0.0
H1083 H 0.74026 0.4042 0.75575 0.0
H1084 H 0.77818 0.38595 0.75244 0.0
H1085 H 0.69877 0.40534 0.73999 0.0
H1086 H 0.72798 0.37602 0.78584 0.0
H1087 H 0.74256 0.3455 0.8023 0.0
H1088 H 0.67935 0.30686 0.79613 0.0
H1089 H 0.66453 0.33703 0.77946 0.0
C1090 C 0.62374 0.45892 0.78003 0.0
C1091 C 0.60304 0.44851 0.78473 0.0
C1092 C 0.64122 0.44553 0.77381 0.0
C1093 C 0.63832 0.42147 0.77199 0.0
C1094 C 0.61751 0.41106 0.77643 0.0
C1095 C 0.60001 0.42446 0.7827 0.0
C1096 C 0.65769 0.40711 0.76634 0.0
C1097 C 0.66606 0.38867 0.77485 0.0
C1098 C 0.6693 0.41285 0.75342 0.0
C1099 C 0.66033 0.43102 0.74343 0.0
C1100 C 0.63715 0.43036 0.73844 0.0
C1101 C 0.62872 0.44759 0.72912 0.0
C1102 C 0.64334 0.46553 0.72465 0.0
C1103 C 0.66644 0.46624 0.72946 0.0
C1104 C 0.67495 0.44905 0.73879 0.0
C1105 C 0.74425 0.33733 0.7508 0.0
C1106 C 0.76464 0.35082 0.75094 0.0
C1107 C 0.72256 0.34784 0.75275 0.0
C1108 C 0.72093 0.37197 0.7548 0.0
C1109 C 0.74114 0.38556 0.75418 0.0
C1110 C 0.7628 0.37508 0.75235 0.0
C1111 C 0.69854 0.38303 0.75863 0.0
C1112 C 0.68971 0.40086 0.74981 0.0
C1113 C 0.68642 0.3767 0.77123 0.0
C1114 C 0.69528 0.35861 0.78127 0.0
C1115 C 0.71728 0.36091 0.7879 0.0
C1116 C 0.72557 0.3437 0.79728 0.0
C1117 C 0.71192 0.32421 0.80022 0.0
C1118 C 0.68993 0.32193 0.79381 0.0
C1119 C 0.68157 0.33908 0.7844 0.0
H1120 H 0.71837 0.31091 0.80749 0.0
H1121 H 0.63678 0.47886 0.71744 0.0
H1122 H 0.59052 0.06312 0.024 0.0
H1123 H 0.61199 0.09662 0.01452 0.0
H1124 H 0.5772 0.14159 0.04456 0.0
H1125 H 0.55667 0.10843 0.05456 0.0
H1126 H 0.57536 0.15345 0.0125 0.0
H1127 H 0.62709 0.13165 0.05299 0.0
H1128 H 0.65317 0.10413 0.0656 0.0
H1129 H 0.69626 0.10011 0.02814 0.0
H1130 H 0.6702 0.12738 0.01523 0.0
H1131 H 0.61348 0.26372 0.02319 0.0
H1132 H 0.60494 0.22282 0.02688 0.0
H1133 H 0.6626 0.2038 0.99994 0.0
H1134 H 0.6717 0.2453 0.99642 0.0
H1135 H 0.65736 0.17405 0.02391 0.0
H1136 H 0.61098 0.20197 0.98521 0.0
H1137 H 0.58583 0.23 0.97234 0.0
H1138 H 0.53307 0.22127 0.00428 0.0
H1139 H 0.55809 0.19357 0.01753 0.0
C1140 C 0.58773 0.08008 0.02876 0.0
C1141 C 0.57155 0.08309 0.03992 0.0
C1142 C 0.59993 0.09917 0.02327 0.0
C1143 C 0.59597 0.1215 0.02879 0.0
C1144 C 0.58027 0.12447 0.04008 0.0
C1145 C 0.5684 0.10548 0.04569 0.0
C1146 C 0.60727 0.14224 0.02263 0.0
C1147 C 0.59331 0.15795 0.0149 0.0
C1148 C 0.63092 0.14756 0.0253 0.0
C1149 C 0.64654 0.13126 0.03308 0.0
C1150 C 0.64198 0.12469 0.04739 0.0
C1151 C 0.65679 0.10919 0.0546 0.0
C1152 C 0.67631 0.1003 0.04765 0.0
C1153 C 0.6811 0.10696 0.03349 0.0
C1154 C 0.66632 0.12244 0.02623 0.0
C1155 C 0.6245 0.2509 0.01811 0.0
C1156 C 0.64303 0.25769 0.00932 0.0
C1157 C 0.6196 0.22751 0.02024 0.0
C1158 C 0.63277 0.21031 0.01339 0.0
C1159 C 0.65212 0.21687 0.00522 0.0
C1160 C 0.65727 0.2405 0.00321 0.0
C1161 C 0.62507 0.18578 0.01438 0.0
C1162 C 0.63962 0.16933 0.02108 0.0
C1163 C 0.60198 0.17956 0.01055 0.0
C1164 C 0.58648 0.19569 0.00239 0.0
C1165 C 0.59405 0.20608 0.98953 0.0
C1166 C 0.57983 0.22194 0.98216 0.0
C1167 C 0.55787 0.22741 0.98748 0.0
C1168 C 0.55007 0.21699 0.00016 0.0
C1169 C 0.56427 0.20118 0.00759 0.0
H1170 H 0.54689 0.23972 0.98178 0.0
H1171 H 0.68776 0.08831 0.05326 0.0
H1172 H 0.93632 0.11027 0.28423 0.0
H1173 H 0.90045 0.12871 0.27554 0.0
H1174 H 0.86504 0.0628 0.27743 0.0
H1175 H 0.90012 0.04446 0.2869 0.0
H1176 H 0.85802 0.08971 0.25088 0.0
H1177 H 0.85624 0.09614 0.3031 0.0
H1178 H 0.87235 0.10812 0.32672 0.0
H1179 H 0.87195 0.17946 0.31307 0.0
H1180 H 0.8563 0.1678 0.28922 0.0
H1181 H 0.73826 0.10331 0.25274 0.0
H1182 H 0.77891 0.09482 0.25761 0.0
H1183 H 0.79376 0.16813 0.26094 0.0
H1184 H 0.7526 0.17695 0.25631 0.0
H1185 H 0.81479 0.14392 0.28248 0.0
H1186 H 0.81091 0.13815 0.23141 0.0
H1187 H 0.79491 0.12611 0.20777 0.0
H1188 H 0.80632 0.05445 0.21869 0.0
H1189 H 0.82206 0.06602 0.2425 0.0
C1190 C 0.92089 0.09968 0.28294 0.0
C1191 C 0.92128 0.07578 0.28631 0.0
C1192 C 0.90047 0.11025 0.27785 0.0
C1193 C 0.8802 0.09706 0.27583 0.0
C1194 C 0.88062 0.0732 0.2788 0.0
C1195 C 0.90082 0.06271 0.28413 0.0
C1196 C 0.85816 0.10806 0.27111 0.0
C1197 C 0.84851 0.10155 0.25775 0.0
C1198 C 0.84622 0.12403 0.27995 0.0
C1199 C 0.85543 0.13107 0.29431 0.0
C1200 C 0.85983 0.11435 0.30507 0.0
C1201 C 0.86884 0.12109 0.31851 0.0
C1202 C 0.87324 0.14453 0.32138 0.0
C1203 C 0.86859 0.16129 0.31082 0.0
C1204 C 0.85967 0.15463 0.29733 0.0
C1205 C 0.75006 0.11775 0.25445 0.0
C1206 C 0.74205 0.14087 0.25408 0.0
C1207 C 0.77341 0.11282 0.25716 0.0
C1208 C 0.78947 0.13084 0.25939 0.0
C1209 C 0.78165 0.15396 0.25915 0.0
C1210 C 0.75814 0.15896 0.25647 0.0
C1211 C 0.81423 0.1251 0.26235 0.0
C1212 C 0.82445 0.13253 0.2754 0.0
C1213 C 0.82679 0.11005 0.25318 0.0
C1214 C 0.81757 0.10297 0.23879 0.0
C1215 C 0.80989 0.11981 0.22881 0.0
C1216 C 0.80087 0.11307 0.21538 0.0
C1217 C 0.79957 0.08953 0.21174 0.0
C1218 C 0.80734 0.07268 0.22152 0.0
C1219 C 0.81635 0.07933 0.23498 0.0
H1220 H 0.79257 0.08435 0.20133 0.0
H1221 H 0.88017 0.14972 0.33181 0.0
H1222 H 0.9117 0.42202 0.52913 0.0
H1223 H 0.89201 0.38707 0.52025 0.0
H1224 H 0.95239 0.34601 0.53117 0.0
H1225 H 0.97189 0.38056 0.54061 0.0
H1226 H 0.93286 0.33533 0.50378 0.0
H1227 H 0.90997 0.34478 0.55313 0.0
H1228 H 0.89412 0.36599 0.57394 0.0
H1229 H 0.82873 0.37379 0.55163 0.0
H1230 H 0.84437 0.353 0.53055 0.0
H1231 H 0.88883 0.22073 0.50914 0.0
H1232 H 0.90688 0.25875 0.51257 0.0
H1233 H 0.84096 0.2921 0.50407 0.0
H1234 H 0.82266 0.25398 0.50073 0.0
H1235 H 0.86155 0.30861 0.52844 0.0
H1236 H 0.88417 0.29551 0.47965 0.0
H1237 H 0.90071 0.27357 0.45934 0.0
H1238 H 0.9671 0.27172 0.48098 0.0
H1239 H 0.95088 0.29337 0.50152 0.0
C1240 C 0.92078 0.40556 0.52974 0.0
C1241 C 0.94339 0.40418 0.53568 0.0
C1242 C 0.90955 0.38564 0.52456 0.0
C1243 C 0.92074 0.36399 0.52511 0.0
C1244 C 0.94352 0.36261 0.53057 0.0
C1245 C 0.95468 0.38245 0.5359 0.0
C1246 C 0.90838 0.34256 0.52059 0.0
C1247 C 0.91735 0.32937 0.50921 0.0
C1248 C 0.88791 0.33512 0.52752 0.0
C1249 C 0.87844 0.3476 0.54019 0.0
C1250 C 0.89229 0.35123 0.5526 0.0
C1251 C 0.88333 0.36313 0.56446 0.0
C1252 C 0.86045 0.37127 0.5641 0.0
C1253 C 0.84647 0.3675 0.55188 0.0
C1254 C 0.85538 0.35567 0.53997 0.0
C1255 C 0.87821 0.23615 0.50781 0.0
C1256 C 0.85431 0.23435 0.50467 0.0
C1257 C 0.88858 0.25789 0.50972 0.0
C1258 C 0.8753 0.27828 0.50848 0.0
C1259 C 0.85153 0.27658 0.50506 0.0
C1260 C 0.84113 0.2548 0.50309 0.0
C1261 C 0.88605 0.30121 0.51163 0.0
C1262 C 0.87685 0.31469 0.52283 0.0
C1263 C 0.90637 0.30884 0.50456 0.0
C1264 C 0.91624 0.29592 0.49218 0.0
C1265 C 0.90225 0.29028 0.48013 0.0
C1266 C 0.91158 0.27792 0.46857 0.0
C1267 C 0.93493 0.27121 0.46888 0.0
C1268 C 0.94901 0.27691 0.48075 0.0
C1269 C 0.93977 0.28926 0.49235 0.0
H1270 H 0.94211 0.26163 0.45992 0.0
H1271 H 0.85353 0.38045 0.5733 0.0
H1272 H 0.5913 0.05188 0.48072 0.0
H1273 H 0.62503 0.07386 0.48953 0.0
H1274 H 0.60557 0.13151 0.46219 0.0
H1275 H 0.57146 0.10958 0.45349 0.0
H1276 H 0.65214 0.11656 0.45913 0.0
H1277 H 0.60148 0.14021 0.49623 0.0
H1278 H 0.57209 0.13582 0.51517 0.0
H1279 H 0.61885 0.09256 0.53966 0.0
H1280 H 0.64842 0.09638 0.52074 0.0
H1281 H 0.75257 0.17454 0.48883 0.0
H1282 H 0.71128 0.16875 0.4828 0.0
H1283 H 0.71222 0.10335 0.50553 0.0
H1284 H 0.75335 0.10872 0.51133 0.0
H1285 H 0.67186 0.13094 0.51065 0.0
H1286 H 0.71898 0.10194 0.47153 0.0
H1287 H 0.74809 0.10505 0.45231 0.0
H1288 H 0.70719 0.1579 0.43137 0.0
H1289 H 0.67804 0.15543 0.45066 0.0
C1290 C 0.59405 0.06938 0.47678 0.0
C1291 C 0.57886 0.07912 0.46648 0.0
C1292 C 0.61322 0.08194 0.48184 0.0
C1293 C 0.61769 0.10435 0.47656 0.0
C1294 C 0.60231 0.1143 0.46644 0.0
C1295 C 0.58285 0.10184 0.46154 0.0
C1296 C 0.63942 0.11637 0.4809 0.0
C1297 C 0.65625 0.12033 0.47035 0.0
C1298 C 0.64484 0.12088 0.49556 0.0
C1299 C 0.62713 0.11846 0.507 0.0
C1300 C 0.60544 0.12959 0.50559 0.0
C1301 C 0.58875 0.12724 0.51634 0.0
C1302 C 0.59358 0.11389 0.5286 0.0
C1303 C 0.61513 0.10289 0.53015 0.0
C1304 C 0.63188 0.10517 0.51942 0.0
C1305 C 0.74386 0.15911 0.49272 0.0
C1306 C 0.75623 0.14203 0.5005 0.0
C1307 C 0.72033 0.15582 0.48924 0.0
C1308 C 0.70879 0.1356 0.4937 0.0
C1309 C 0.72083 0.1191 0.50203 0.0
C1310 C 0.74436 0.12216 0.50528 0.0
C1311 C 0.68467 0.13059 0.48892 0.0
C1312 C 0.66748 0.12782 0.49939 0.0
C1313 C 0.67892 0.12713 0.47418 0.0
C1314 C 0.69654 0.1288 0.46267 0.0
C1315 C 0.71635 0.11446 0.46294 0.0
C1316 C 0.73283 0.11605 0.45201 0.0
C1317 C 0.72955 0.13174 0.44066 0.0
C1318 C 0.70976 0.14583 0.4402 0.0
C1319 C 0.69326 0.14435 0.45114 0.0
H1320 H 0.7423 0.13292 0.43219 0.0
H1321 H 0.58065 0.1121 0.53692 0.0
H1322 H 0.94794 0.08373 0.73492 0.0
H1323 H 0.92571 0.11735 0.74277 0.0
H1324 H 0.88565 0.11547 0.70312 0.0
H1325 H 0.90889 0.08275 0.69476 0.0
H1326 H 0.89803 0.15735 0.70781 0.0
H1327 H 0.86188 0.1006 0.73684 0.0
H1328 H 0.85886 0.06759 0.75367 0.0
H1329 H 0.89324 0.10742 0.78679 0.0
H1330 H 0.89679 0.14059 0.7701 0.0
H1331 H 0.82845 0.2504 0.73519 0.0
H1332 H 0.83631 0.2097 0.72888 0.0
H1333 H 0.89685 0.21018 0.75675 0.0
H1334 H 0.88955 0.25088 0.76276 0.0
H1335 H 0.86687 0.16716 0.75717 0.0
H1336 H 0.90763 0.22108 0.72522 0.0
H1337 H 0.90824 0.25393 0.70812 0.0
H1338 H 0.86091 0.21761 0.67991 0.0
H1339 H 0.85974 0.1847 0.69699 0.0
C1340 C 0.93445 0.09046 0.72783 0.0
C1341 C 0.93034 0.08052 0.71416 0.0
C1342 C 0.92146 0.10952 0.73244 0.0
C1343 C 0.90372 0.11882 0.72364 0.0
C1344 C 0.89916 0.10857 0.71015 0.0
C1345 C 0.91234 0.08967 0.70544 0.0
C1346 C 0.89125 0.14028 0.72808 0.0
C1347 C 0.89074 0.15921 0.7185 0.0
C1348 C 0.88182 0.14294 0.74205 0.0
C1349 C 0.87974 0.12305 0.75217 0.0
C1350 C 0.86896 0.10228 0.74768 0.0
C1351 C 0.86712 0.08354 0.7572 0.0
C1352 C 0.87589 0.08539 0.77128 0.0
C1353 C 0.88647 0.10601 0.77587 0.0
C1354 C 0.88837 0.1248 0.76639 0.0
C1355 C 0.84314 0.24166 0.7402 0.0
C1356 C 0.85847 0.25382 0.7494 0.0
C1357 C 0.8476 0.21847 0.73658 0.0
C1358 C 0.86715 0.20705 0.74236 0.0
C1359 C 0.88162 0.21871 0.75225 0.0
C1360 C 0.87748 0.24198 0.75561 0.0
C1361 C 0.87416 0.18393 0.73699 0.0
C1362 C 0.87373 0.16488 0.7464 0.0
C1363 C 0.88237 0.18098 0.7228 0.0
C1364 C 0.88336 0.20059 0.71245 0.0
C1365 C 0.89719 0.2202 0.71543 0.0
C1366 C 0.89767 0.23881 0.70574 0.0
C1367 C 0.88456 0.23789 0.69296 0.0
C1368 C 0.87101 0.21832 0.68983 0.0
C1369 C 0.87044 0.19969 0.69951 0.0
H1370 H 0.88494 0.25232 0.68547 0.0
H1371 H 0.87445 0.07086 0.77863 0.0
H1372 H 0.88747 0.43505 0.94343 0.0
H1373 H 0.85507 0.41306 0.95345 0.0
H1374 H 0.87537 0.43473 0.99638 0.0
H1375 H 0.90846 0.45609 0.98635 0.0
H1376 H 0.85953 0.39155 0.99717 0.0
H1377 H 0.83224 0.4634 0.97752 0.0
H1378 H 0.82749 0.4938 0.95897 0.0
H1379 H 0.79291 0.44505 0.93095 0.0
H1380 H 0.79775 0.41426 0.94926 0.0
H1381 H 0.72228 0.38888 0.00287 0.0
H1382 H 0.75919 0.40871 0.99902 0.0
H1383 H 0.79316 0.34246 0.99337 0.0
H1384 H 0.75635 0.32252 0.99784 0.0
H1385 H 0.78218 0.41043 0.97602 0.0
H1386 H 0.85124 0.3467 0.99979 0.0
H1387 H 0.85568 0.31969 0.02031 0.0
H1388 H 0.80511 0.35839 0.04414 0.0
H1389 H 0.8006 0.3858 0.02385 0.0
C1390 C 0.88512 0.43489 0.95502 0.0
C1391 C 0.9002 0.44743 0.96414 0.0
C1392 C 0.86661 0.42239 0.96073 0.0
C1393 C 0.86244 0.4227 0.97564 0.0
C1394 C 0.87818 0.43432 0.98485 0.0
C1395 C 0.89701 0.44654 0.97913 0.0
C1396 C 0.84092 0.41209 0.98142 0.0
C1397 C 0.84258 0.39565 0.99258 0.0
C1398 C 0.81874 0.41793 0.9757 0.0
C1399 C 0.81552 0.43648 0.96472 0.0
C1400 C 0.82373 0.45913 0.96737 0.0
C1401 C 0.82102 0.47643 0.9569 0.0
C1402 C 0.80995 0.47135 0.94378 0.0
C1403 C 0.8015 0.44896 0.94111 0.0
C1404 C 0.80421 0.43158 0.95154 0.0
C1405 C 0.73771 0.37853 0.00106 0.0
C1406 C 0.73645 0.35417 0.0006 0.0
C1407 C 0.7588 0.38989 0.99882 0.0
C1408 C 0.77905 0.37714 0.9959 0.0
C1409 C 0.77794 0.35272 0.99585 0.0
C1410 C 0.75687 0.34132 0.99835 0.0
C1411 C 0.80066 0.3895 0.99169 0.0
C1412 C 0.79903 0.4063 0.98073 0.0
C1413 C 0.82271 0.38447 0.99791 0.0
C1414 C 0.82543 0.36817 0.01023 0.0
C1415 C 0.84113 0.34949 0.00942 0.0
C1416 C 0.84365 0.3341 0.02101 0.0
C1417 C 0.83063 0.33728 0.0335 0.0
C1418 C 0.81511 0.35589 0.03444 0.0
C1419 C 0.81255 0.37134 0.02289 0.0
H1420 H 0.83259 0.32534 0.04246 0.0
H1421 H 0.80787 0.48477 0.93568 0.0
H1422 H 0.56647 0.39088 0.20075 0.0
H1423 H 0.58596 0.35769 0.21187 0.0
H1424 H 0.5993 0.3979 0.25031 0.0
H1425 H 0.57859 0.43108 0.2396 0.0
H1426 H 0.63893 0.36424 0.23149 0.0
H1427 H 0.56879 0.36904 0.26137 0.0
H1428 H 0.52647 0.37437 0.26392 0.0
H1429 H 0.51389 0.31705 0.23517 0.0
H1430 H 0.55616 0.31164 0.23229 0.0
H1431 H 0.67988 0.25798 0.26288 0.0
H1432 H 0.66404 0.29749 0.26096 0.0
H1433 H 0.60567 0.27105 0.23627 0.0
H1434 H 0.62074 0.23179 0.23874 0.0
H1435 H 0.5904 0.30218 0.25293 0.0
H1436 H 0.65616 0.29768 0.22085 0.0
H1437 H 0.69731 0.29162 0.21463 0.0
H1438 H 0.71757 0.34667 0.24345 0.0
H1439 H 0.67653 0.35288 0.24995 0.0
C1440 C 0.57319 0.3927 0.21165 0.0
C1441 C 0.57057 0.41365 0.21934 0.0
C1442 C 0.58457 0.37376 0.21791 0.0
C1443 C 0.5939 0.37541 0.23189 0.0
C1444 C 0.59213 0.39639 0.23949 0.0
C1445 C 0.5804 0.41534 0.23331 0.0
C1446 C 0.60474 0.35467 0.23851 0.0
C1447 C 0.62855 0.35084 0.23656 0.0
C1448 C 0.59095 0.33706 0.24465 0.0
C1449 C 0.56559 0.3401 0.24651 0.0
C1450 C 0.55698 0.35773 0.25549 0.0
C1451 C 0.53302 0.36073 0.25702 0.0
C1452 C 0.5175 0.3461 0.24968 0.0
C1453 C 0.52593 0.32839 0.24083 0.0
C1454 C 0.54988 0.32533 0.23926 0.0
C1455 C 0.66354 0.26065 0.2572 0.0
C1456 C 0.65158 0.2418 0.25094 0.0
C1457 C 0.65457 0.28324 0.25603 0.0
C1458 C 0.6338 0.28738 0.24828 0.0
C1459 C 0.62165 0.26841 0.24235 0.0
C1460 C 0.63035 0.2459 0.24374 0.0
C1461 C 0.62479 0.31133 0.24578 0.0
C1462 C 0.60116 0.31573 0.24834 0.0
C1463 C 0.63872 0.32927 0.23991 0.0
C1464 C 0.66335 0.32553 0.23602 0.0
C1465 C 0.66942 0.30836 0.22594 0.0
C1466 C 0.69271 0.30493 0.22235 0.0
C1467 C 0.71005 0.31869 0.22868 0.0
C1468 C 0.70413 0.33598 0.23858 0.0
C1469 C 0.68087 0.33947 0.24222 0.0
H1470 H 0.72807 0.31601 0.22588 0.0
H1471 H 0.49895 0.34845 0.25087 0.0
H1472 H 0.07486 0.9652 0.3876 0.0
H1473 H 0.09351 0.94039 0.40559 0.0
H1474 H 0.11946 0.89603 0.37183 0.0
H1475 H 0.10043 0.92085 0.35367 0.0
H1476 H 0.10301 0.87042 0.39275 0.0
H1477 H 0.15647 0.93235 0.39074 0.0
H1478 H 0.17025 0.97291 0.39018 0.0
H1479 H 0.14377 0.98417 0.43276 0.0
H1480 H 0.12951 0.94377 0.4335 0.0
H1481 H 0.16016 0.80976 0.45177 0.0
H1482 H 0.15044 0.829 0.42894 0.0
H1483 H 0.12629 0.88899 0.45253 0.0
H1484 H 0.13934 0.87108 0.47493 0.0
H1485 H 0.14984 0.90389 0.4329 0.0
H1486 H 0.08707 0.8423 0.42953 0.0
H1487 H 0.07464 0.801 0.42816 0.0
H1488 H 0.12328 0.78884 0.39423 0.0
H1489 H 0.13573 0.82989 0.39535 0.0
C1490 C 0.08483 0.95038 0.38397 0.0
C1491 C 0.08637 0.94512 0.36921 0.0
C1492 C 0.09552 0.93619 0.39428 0.0
C1493 C 0.10829 0.91656 0.39007 0.0
C1494 C 0.1098 0.91114 0.37533 0.0
C1495 C 0.09892 0.9253 0.36497 0.0
C1496 C 0.11915 0.9014 0.40125 0.0
C1497 C 0.11349 0.87769 0.40146 0.0
C1498 C 0.13316 0.91069 0.41248 0.0
C1499 C 0.1418 0.93503 0.41214 0.0
C1500 C 0.15344 0.94351 0.39995 0.0
C1501 C 0.16136 0.96647 0.39961 0.0
C1502 C 0.15786 0.98111 0.41142 0.0
C1503 C 0.14647 0.9728 0.42361 0.0
C1504 C 0.13849 0.94986 0.42401 0.0
C1505 C 0.1524 0.82692 0.45199 0.0
C1506 C 0.14923 0.83847 0.46519 0.0
C1507 C 0.14657 0.83785 0.43892 0.0
C1508 C 0.13693 0.86035 0.43883 0.0
C1509 C 0.13352 0.87161 0.45213 0.0
C1510 C 0.14032 0.86111 0.46506 0.0
C1511 C 0.13195 0.87327 0.42514 0.0
C1512 C 0.13924 0.89658 0.42427 0.0
C1513 C 0.11979 0.86349 0.4132 0.0
C1514 C 0.11251 0.83889 0.41272 0.0
C1515 C 0.09519 0.83064 0.42193 0.0
C1516 C 0.08812 0.80738 0.42116 0.0
C1517 C 0.09833 0.79231 0.41124 0.0
C1518 C 0.11547 0.80049 0.40196 0.0
C1519 C 0.12246 0.82374 0.40262 0.0
H1520 H 0.09285 0.77433 0.41068 0.0
H1521 H 0.164 0.99889 0.41113 0.0
H1522 H 0.09325 0.58633 0.60208 0.0
H1523 H 0.11656 0.60908 0.61928 0.0
H1524 H 0.06383 0.59997 0.65149 0.0
H1525 H 0.04076 0.57676 0.6346 0.0
H1526 H 0.08103 0.64519 0.65058 0.0
H1527 H 0.11024 0.56604 0.65233 0.0
H1528 H 0.12699 0.53043 0.64188 0.0
H1529 H 0.1863 0.56915 0.62766 0.0
H1530 H 0.16971 0.60507 0.63788 0.0
H1531 H 0.1302 0.65425 0.71934 0.0
H1532 H 0.11173 0.64352 0.69648 0.0
H1533 H 0.17678 0.65393 0.6746 0.0
H1534 H 0.19549 0.66426 0.6978 0.0
H1535 H 0.15742 0.61389 0.66665 0.0
H1536 H 0.13121 0.69163 0.66927 0.0
H1537 H 0.11472 0.72675 0.68047 0.0
H1538 H 0.05005 0.69115 0.68686 0.0
H1539 H 0.06626 0.65568 0.67591 0.0
C1540 C 0.08664 0.5891 0.61284 0.0
C1541 C 0.06515 0.57958 0.61696 0.0
C1542 C 0.09993 0.60221 0.62262 0.0
C1543 C 0.09195 0.60609 0.63667 0.0
C1544 C 0.07022 0.59729 0.64066 0.0
C1545 C 0.05701 0.58408 0.63095 0.0
C1546 C 0.10656 0.61832 0.64754 0.0
C1547 C 0.0977 0.63834 0.65416 0.0
C1548 C 0.12865 0.60981 0.65184 0.0
C1549 C 0.13859 0.58827 0.64567 0.0
C1550 C 0.12674 0.56699 0.64685 0.0
C1551 C 0.13623 0.54675 0.641 0.0
C1552 C 0.15766 0.54754 0.63406 0.0
C1553 C 0.16967 0.56858 0.633 0.0
C1554 C 0.16024 0.58888 0.63882 0.0
C1555 C 0.14054 0.65416 0.70964 0.0
C1556 C 0.16435 0.65929 0.71029 0.0
C1557 C 0.12992 0.64838 0.69655 0.0
C1558 C 0.14279 0.64814 0.68377 0.0
C1559 C 0.16652 0.65402 0.68433 0.0
C1560 C 0.17718 0.65989 0.69751 0.0
C1561 C 0.13152 0.64028 0.67014 0.0
C1562 C 0.14099 0.62109 0.66294 0.0
C1563 C 0.10998 0.64956 0.66534 0.0
C1564 C 0.10001 0.67094 0.67181 0.0
C1565 C 0.11351 0.69124 0.67314 0.0
C1566 C 0.10421 0.71121 0.67943 0.0
C1567 C 0.08136 0.71117 0.68438 0.0
C1568 C 0.06775 0.69116 0.68301 0.0
C1569 C 0.07697 0.67112 0.67673 0.0
H1570 H 0.07419 0.72665 0.68926 0.0
H1571 H 0.16498 0.53185 0.62954 0.0
H1572 H 0.41866 0.55212 0.87076 0.0
H1573 H 0.39411 0.57106 0.88851 0.0
H1574 H 0.43077 0.63558 0.8821 0.0
H1575 H 0.45537 0.61673 0.86415 0.0
H1576 H 0.42776 0.62536 0.91014 0.0
H1577 H 0.37456 0.62991 0.87066 0.0
H1578 H 0.35181 0.61594 0.84968 0.0
H1579 H 0.31583 0.56759 0.87674 0.0
H1580 H 0.33859 0.58102 0.89786 0.0
H1581 H 0.3537 0.67812 0.96143 0.0
H1582 H 0.36994 0.67141 0.93745 0.0
H1583 H 0.3468 0.60015 0.93881 0.0
H1584 H 0.33061 0.60661 0.9627 0.0
H1585 H 0.34166 0.62052 0.91131 0.0
H1586 H 0.39958 0.61166 0.94941 0.0
H1587 H 0.42212 0.62531 0.97057 0.0
H1588 H 0.44917 0.68193 0.94567 0.0
H1589 H 0.42644 0.66881 0.92441 0.0
C1590 C 0.42119 0.57047 0.87286 0.0
C1591 C 0.43899 0.5829 0.86601 0.0
C1592 C 0.40712 0.58129 0.88304 0.0
C1593 C 0.41044 0.60481 0.88654 0.0
C1594 C 0.4279 0.61742 0.87955 0.0
C1595 C 0.442 0.60659 0.86934 0.0
C1596 C 0.3968 0.61558 0.89829 0.0
C1597 C 0.40891 0.62483 0.91022 0.0
C1598 C 0.37221 0.61453 0.89852 0.0
C1599 C 0.35841 0.60639 0.88584 0.0
C1600 C 0.36192 0.61617 0.87213 0.0
C1601 C 0.349 0.60837 0.86021 0.0
C1602 C 0.33242 0.59087 0.86187 0.0
C1603 C 0.32869 0.58115 0.87546 0.0
C1604 C 0.34157 0.58888 0.88742 0.0
C1605 C 0.35165 0.66115 0.9565 0.0
C1606 C 0.3411 0.64282 0.96404 0.0
C1607 C 0.36097 0.65735 0.94282 0.0
C1608 C 0.35973 0.63523 0.93644 0.0
C1609 C 0.34792 0.61735 0.94354 0.0
C1610 C 0.33882 0.62105 0.95724 0.0
C1611 C 0.37269 0.62988 0.92313 0.0
C1612 C 0.36048 0.62154 0.911 0.0
C1613 C 0.39719 0.63174 0.92268 0.0
C1614 C 0.4111 0.63944 0.93538 0.0
C1615 C 0.41019 0.62713 0.94848 0.0
C1616 C 0.42302 0.63475 0.96048 0.0
C1617 C 0.43702 0.65451 0.95947 0.0
C1618 C 0.43828 0.66665 0.94644 0.0
C1619 C 0.42543 0.65914 0.93441 0.0
H1620 H 0.44694 0.66039 0.96878 0.0
H1621 H 0.32243 0.58486 0.85262 0.0
H1622 H 0.39527 0.9342 0.10771 0.0
H1623 H 0.37338 0.91382 0.12637 0.0
H1624 H 0.4368 0.88198 0.14193 0.0
H1625 H 0.45863 0.902 0.12322 0.0
H1626 H 0.40174 0.85192 0.14363 0.0
H1627 H 0.41496 0.93243 0.15689 0.0
H1628 H 0.41238 0.97487 0.15346 0.0
H1629 H 0.33785 0.97056 0.15215 0.0
H1630 H 0.34002 0.92801 0.15539 0.0
H1631 H 0.39355 0.84035 0.21867 0.0
H1632 H 0.40181 0.85143 0.19388 0.0
H1633 H 0.32938 0.86745 0.18661 0.0
H1634 H 0.32081 0.85609 0.21156 0.0
H1635 H 0.36086 0.90304 0.17826 0.0
H1636 H 0.34904 0.82233 0.17027 0.0
H1637 H 0.35338 0.7804 0.17509 0.0
H1638 H 0.42675 0.78522 0.16765 0.0
H1639 H 0.42295 0.82727 0.16304 0.0
C1640 C 0.40446 0.92264 0.11502 0.0
C1641 C 0.42869 0.91984 0.11408 0.0
C1642 C 0.39195 0.911 0.12566 0.0
C1643 C 0.4035 0.89667 0.1357 0.0
C1644 C 0.42749 0.89292 0.1343 0.0
C1645 C 0.43997 0.90437 0.12359 0.0
C1646 C 0.39118 0.88701 0.14836 0.0
C1647 C 0.3928 0.86308 0.15121 0.0
C1648 C 0.37898 0.90148 0.15808 0.0
C1649 C 0.37766 0.92704 0.15619 0.0
C1650 C 0.39803 0.94052 0.15577 0.0
C1651 C 0.39664 0.96459 0.15387 0.0
C1652 C 0.37496 0.97539 0.15254 0.0
C1653 C 0.35463 0.96216 0.15315 0.0
C1654 C 0.35593 0.93807 0.15501 0.0
C1655 C 0.3793 0.84611 0.21181 0.0
C1656 C 0.35652 0.84743 0.2171 0.0
C1657 C 0.38404 0.85227 0.19761 0.0
C1658 C 0.36618 0.86005 0.18839 0.0
C1659 C 0.34336 0.86134 0.19356 0.0
C1660 C 0.33851 0.85482 0.20778 0.0
C1661 C 0.37198 0.8681 0.1737 0.0
C1662 C 0.36923 0.89176 0.17049 0.0
C1663 C 0.38333 0.85341 0.16376 0.0
C1664 C 0.38571 0.82803 0.16637 0.0
C1665 C 0.36614 0.8145 0.16976 0.0
C1666 C 0.36849 0.7907 0.17244 0.0
C1667 C 0.39033 0.78016 0.17169 0.0
C1668 C 0.40985 0.7934 0.16823 0.0
C1669 C 0.40759 0.81723 0.16556 0.0
H1670 H 0.39212 0.76173 0.17376 0.0
H1671 H 0.37392 0.99403 0.15107 0.0
H1672 H 0.03853 0.58212 0.86807 0.0
H1673 H 0.06391 0.59687 0.84938 0.0
H1674 H 0.1217 0.59703 0.87945 0.0
H1675 H 0.09604 0.58309 0.89856 0.0
H1676 H 0.12288 0.63493 0.8615 0.0
H1677 H 0.11662 0.55298 0.85665 0.0
H1678 H 0.09676 0.51507 0.85507 0.0
H1679 H 0.0613 0.53695 0.81637 0.0
H1680 H 0.08069 0.57515 0.81783 0.0
H1681 H 0.17964 0.60543 0.78588 0.0
H1682 H 0.16573 0.59456 0.80973 0.0
H1683 H 0.1322 0.66139 0.8137 0.0
H1684 H 0.14706 0.6727 0.79009 0.0
H1685 H 0.12447 0.5875 0.81679 0.0
H1686 H 0.12188 0.6751 0.84848 0.0
H1687 H 0.14538 0.71075 0.85107 0.0
H1688 H 0.20621 0.67355 0.83776 0.0
H1689 H 0.18316 0.63761 0.83528 0.0
C1690 C 0.05648 0.58579 0.87089 0.0
C1691 C 0.06521 0.58134 0.88486 0.0
C1692 C 0.07105 0.59401 0.86011 0.0
C1693 C 0.09477 0.59768 0.86296 0.0
C1694 C 0.10346 0.59419 0.87701 0.0
C1695 C 0.08882 0.58602 0.88787 0.0
C1696 C 0.11046 0.60391 0.85096 0.0
C1697 C 0.12337 0.62458 0.85172 0.0
C1698 C 0.11164 0.58999 0.8384 0.0
C1699 C 0.09999 0.567 0.83742 0.0
C1700 C 0.10446 0.54977 0.84786 0.0
C1701 C 0.09331 0.52822 0.84697 0.0
C1702 C 0.07775 0.52362 0.83564 0.0
C1703 C 0.07335 0.54055 0.82515 0.0
C1704 C 0.08444 0.56215 0.82599 0.0
C1705 C 0.16965 0.61796 0.79197 0.0
C1706 C 0.16432 0.63987 0.78611 0.0
C1707 C 0.16168 0.61172 0.8056 0.0
C1708 C 0.14789 0.62711 0.81359 0.0
C1709 C 0.14318 0.64933 0.80793 0.0
C1710 C 0.15158 0.65576 0.79439 0.0
C1711 C 0.13657 0.61899 0.82705 0.0
C1712 C 0.12434 0.59788 0.82657 0.0
C1713 C 0.13665 0.6322 0.83997 0.0
C1714 C 0.15072 0.65369 0.84158 0.0
C1715 C 0.14029 0.67449 0.84617 0.0
C1716 C 0.15353 0.69476 0.8476 0.0
C1717 C 0.17726 0.69443 0.84454 0.0
C1718 C 0.18781 0.6738 0.84008 0.0
C1719 C 0.17466 0.65349 0.83864 0.0
H1720 H 0.18747 0.71014 0.84565 0.0
H1721 H 0.06913 0.50693 0.83497 0.0
H1722 H 0.45713 0.56441 0.11727 0.0
H1723 H 0.43438 0.58721 0.09997 0.0
H1724 H 0.40397 0.62593 0.13489 0.0
H1725 H 0.42689 0.60293 0.15238 0.0
H1726 H 0.37116 0.60945 0.11487 0.0
H1727 H 0.44016 0.65387 0.11439 0.0
H1728 H 0.48234 0.6613 0.11369 0.0
H1729 H 0.48554 0.63075 0.07148 0.0
H1730 H 0.44344 0.6228 0.072 0.0
H1731 H 0.31226 0.66378 0.05427 0.0
H1732 H 0.33206 0.65627 0.07732 0.0
H1733 H 0.38939 0.62534 0.05443 0.0
H1734 H 0.37136 0.63661 0.03172 0.0
H1735 H 0.40706 0.6486 0.07303 0.0
H1736 H 0.3399 0.59315 0.0788 0.0
H1737 H 0.29771 0.58482 0.08075 0.0
H1738 H 0.29169 0.63707 0.11354 0.0
H1739 H 0.33367 0.64553 0.1118 0.0
C1740 C 0.44569 0.57786 0.12126 0.0
C1741 C 0.44367 0.58188 0.13614 0.0
C1742 C 0.43282 0.59098 0.11137 0.0
C1743 C 0.41764 0.60837 0.11615 0.0
C1744 C 0.41569 0.61264 0.13101 0.0
C1745 C 0.42882 0.59962 0.14095 0.0
C1746 C 0.40313 0.62104 0.10542 0.0
C1747 C 0.37893 0.61834 0.10579 0.0
C1748 C 0.41326 0.6328 0.09369 0.0
C1749 C 0.43861 0.63765 0.09327 0.0
C1750 C 0.44987 0.64859 0.105 0.0
C1751 C 0.47377 0.65292 0.10463 0.0
C1752 C 0.48661 0.64648 0.09255 0.0
C1753 C 0.47557 0.63574 0.08082 0.0
C1754 C 0.45167 0.63135 0.08114 0.0
C1755 C 0.32897 0.65509 0.05428 0.0
C1756 C 0.33967 0.64938 0.04119 0.0
C1757 C 0.34022 0.65052 0.06749 0.0
C1758 C 0.36209 0.6395 0.06785 0.0
C1759 C 0.37253 0.63372 0.05467 0.0
C1760 C 0.36186 0.6394 0.04157 0.0
C1761 C 0.37511 0.63497 0.08165 0.0
C1762 C 0.39912 0.63972 0.08204 0.0
C1763 C 0.36479 0.62508 0.09406 0.0
C1764 C 0.33965 0.62017 0.09496 0.0
C1765 C 0.3294 0.60294 0.08628 0.0
C1766 C 0.30563 0.59817 0.08738 0.0
C1767 C 0.29204 0.61054 0.09715 0.0
C1768 C 0.30221 0.62757 0.10593 0.0
C1769 C 0.32597 0.6323 0.10492 0.0
H1770 H 0.27365 0.60684 0.09797 0.0
H1771 H 0.50511 0.64985 0.09229 0.0
H1772 H 0.39167 0.9281 0.40293 0.0
H1773 H 0.36903 0.90416 0.38595 0.0
H1774 H 0.426 0.90532 0.35612 0.0
H1775 H 0.44838 0.92961 0.37269 0.0
H1776 H 0.35476 0.91376 0.35814 0.0
H1777 H 0.43051 0.85308 0.34021 0.0
H1778 H 0.46489 0.83413 0.35109 0.0
H1779 H 0.43336 0.83726 0.39283 0.0
H1780 H 0.39861 0.85589 0.38215 0.0
H1781 H 0.34342 0.877 0.2868 0.0
H1782 H 0.35464 0.89175 0.31059 0.0
H1783 H 0.34872 0.82257 0.32825 0.0
H1784 H 0.33803 0.80771 0.30415 0.0
H1785 H 0.3873 0.84138 0.33739 0.0
H1786 H 0.30909 0.8653 0.33678 0.0
H1787 H 0.27292 0.88237 0.32696 0.0
H1788 H 0.30578 0.94926 0.32464 0.0
H1789 H 0.34228 0.93253 0.33423 0.0
C1790 C 0.39932 0.92335 0.39272 0.0
C1791 C 0.42194 0.93066 0.38924 0.0
C1792 C 0.38641 0.90959 0.38308 0.0
C1793 C 0.39599 0.90271 0.36989 0.0
C1794 C 0.41847 0.91003 0.36639 0.0
C1795 C 0.43128 0.92386 0.37592 0.0
C1796 C 0.38244 0.88863 0.35938 0.0
C1797 C 0.36175 0.89785 0.35364 0.0
C1798 C 0.39119 0.86747 0.35388 0.0
C1799 C 0.41197 0.85601 0.36036 0.0
C1800 C 0.43082 0.84959 0.35168 0.0
C1801 C 0.4504 0.83893 0.35783 0.0
C1802 C 0.45133 0.83453 0.37265 0.0
C1803 C 0.43265 0.84074 0.38135 0.0
C1804 C 0.41302 0.85138 0.37526 0.0
C1805 C 0.34467 0.86498 0.29577 0.0
C1806 C 0.34076 0.84117 0.29367 0.0
C1807 C 0.3507 0.87344 0.3094 0.0
C1808 C 0.35234 0.85831 0.32126 0.0
C1809 C 0.3476 0.83455 0.31925 0.0
C1810 C 0.34154 0.82608 0.30555 0.0
C1811 C 0.36044 0.86732 0.33546 0.0
C1812 C 0.38011 0.85712 0.34195 0.0
C1813 C 0.35048 0.88734 0.3418 0.0
C1814 C 0.32848 0.89762 0.33619 0.0
C1815 C 0.30866 0.88363 0.33411 0.0
C1816 C 0.28808 0.89325 0.32858 0.0
C1817 C 0.28706 0.91688 0.32517 0.0
C1818 C 0.3066 0.93096 0.3273 0.0
C1819 C 0.32723 0.92142 0.33281 0.0
H1820 H 0.27112 0.9243 0.32089 0.0
H1821 H 0.46652 0.82629 0.37739 0.0
H1822 H 0.06035 0.8925 0.64 0.0
H1823 H 0.08425 0.87247 0.62236 0.0
H1824 H 0.13464 0.92795 0.62454 0.0
H1825 H 0.11025 0.94861 0.64178 0.0
H1826 H 0.12378 0.91929 0.5977 0.0
H1827 H 0.14771 0.87244 0.6371 0.0
H1828 H 0.14371 0.84829 0.6589 0.0
H1829 H 0.10436 0.79793 0.63468 0.0
H1830 H 0.10781 0.82193 0.61276 0.0
H1831 H 0.18477 0.85731 0.54342 0.0
H1832 H 0.17945 0.87182 0.5681 0.0
H1833 H 0.11414 0.8353 0.57051 0.0
H1834 H 0.1191 0.82117 0.54586 0.0
H1835 H 0.14189 0.83495 0.5971 0.0
H1836 H 0.11025 0.88733 0.56031 0.0
H1837 H 0.1136 0.91121 0.53837 0.0
H1838 H 0.16845 0.95088 0.55834 0.0
H1839 H 0.16551 0.92701 0.5804 0.0
C1840 C 0.07659 0.90039 0.63681 0.0
C1841 C 0.08327 0.92226 0.64221 0.0
C1842 C 0.09043 0.88875 0.62685 0.0
C1843 C 0.11141 0.89857 0.62221 0.0
C1844 C 0.11859 0.91998 0.62801 0.0
C1845 C 0.10469 0.9317 0.63795 0.0
C1846 C 0.12435 0.88764 0.61019 0.0
C1847 C 0.12836 0.90099 0.59778 0.0
C1848 C 0.13005 0.86367 0.61014 0.0
C1849 C 0.12793 0.84908 0.62329 0.0
C1850 C 0.13806 0.8563 0.63644 0.0
C1851 C 0.13591 0.84262 0.64882 0.0
C1852 C 0.12377 0.8216 0.64818 0.0
C1853 C 0.11377 0.81421 0.63515 0.0
C1854 C 0.11585 0.82783 0.62274 0.0
C1855 C 0.16957 0.85196 0.54936 0.0
C1856 C 0.15223 0.83831 0.54271 0.0
C1857 C 0.16656 0.86024 0.56342 0.0
C1858 C 0.14638 0.85464 0.57107 0.0
C1859 C 0.12987 0.83971 0.5648 0.0
C1860 C 0.13265 0.8318 0.55069 0.0
C1861 C 0.14075 0.86657 0.58474 0.0
C1862 C 0.13798 0.85339 0.59733 0.0
C1863 C 0.13625 0.89071 0.58504 0.0
C1864 C 0.13786 0.90524 0.5719 0.0
C1865 C 0.12314 0.90104 0.55997 0.0
C1866 C 0.12495 0.91458 0.54752 0.0
C1867 C 0.14131 0.93249 0.54692 0.0
C1868 C 0.15582 0.93696 0.55881 0.0
C1869 C 0.15408 0.92345 0.57129 0.0
H1870 H 0.1427 0.94295 0.53726 0.0
H1871 H 0.12212 0.81104 0.65778 0.0
H1872 H 0.58305 0.46797 0.88705 0.0
H1873 H 0.60002 0.44227 0.90519 0.0
H1874 H 0.61255 0.39045 0.87256 0.0
H1875 H 0.5961 0.41641 0.85414 0.0
H1876 H 0.59057 0.37261 0.89631 0.0
H1877 H 0.65788 0.41793 0.88704 0.0
H1878 H 0.68069 0.4537 0.88349 0.0
H1879 H 0.66601 0.47529 0.9268 0.0
H1880 H 0.6428 0.4398 0.93056 0.0
H1881 H 0.65249 0.30726 0.95333 0.0
H1882 H 0.64114 0.32522 0.93033 0.0
H1883 H 0.62391 0.3886 0.95268 0.0
H1884 H 0.63756 0.37147 0.9753 0.0
H1885 H 0.65291 0.39587 0.93077 0.0
H1886 H 0.5655 0.36225 0.92589 0.0
H1887 H 0.53929 0.3283 0.92698 0.0
H1888 H 0.59333 0.28459 0.9104 0.0
H1889 H 0.6194 0.31855 0.90864 0.0
C1890 C 0.58991 0.45137 0.88361 0.0
C1891 C 0.58825 0.44434 0.86908 0.0
C1892 C 0.59954 0.43664 0.89403 0.0
C1893 C 0.60771 0.41453 0.89021 0.0
C1894 C 0.60634 0.40747 0.87573 0.0
C1895 C 0.59684 0.42229 0.86524 0.0
C1896 C 0.61638 0.39847 0.90156 0.0
C1897 C 0.60454 0.37747 0.90369 0.0
C1898 C 0.63445 0.40488 0.91123 0.0
C1899 C 0.64847 0.42624 0.90905 0.0
C1900 C 0.65936 0.43038 0.89578 0.0
C1901 C 0.67239 0.4506 0.89373 0.0
C1902 C 0.67477 0.46677 0.9049 0.0
C1903 C 0.66415 0.46274 0.91815 0.0
C1904 C 0.65108 0.44256 0.92025 0.0
C1905 C 0.64569 0.32482 0.9533 0.0
C1906 C 0.64484 0.33766 0.96618 0.0
C1907 C 0.63886 0.33498 0.94017 0.0
C1908 C 0.6308 0.35804 0.93975 0.0
C1909 C 0.62962 0.37065 0.95271 0.0
C1910 C 0.63704 0.36074 0.9657 0.0
C1911 C 0.62653 0.37035 0.92586 0.0
C1912 C 0.63924 0.39077 0.92325 0.0
C1913 C 0.60937 0.36335 0.9157 0.0
C1914 C 0.59465 0.34265 0.91776 0.0
C1915 C 0.57183 0.3453 0.92269 0.0
C1916 C 0.55689 0.32616 0.92319 0.0
C1917 C 0.56473 0.30423 0.91893 0.0
C1918 C 0.58738 0.30151 0.91389 0.0
C1919 C 0.6022 0.32072 0.91309 0.0
H1920 H 0.5532 0.2894 0.91944 0.0
H1921 H 0.68486 0.48242 0.9033 0.0
H1922 H 0.5969 0.07657 0.10473 0.0
H1923 H 0.61943 0.09837 0.12276 0.0
H1924 H 0.56219 0.09417 0.15227 0.0
H1925 H 0.53984 0.07178 0.13459 0.0
H1926 H 0.58222 0.1384 0.15111 0.0
H1927 H 0.60604 0.05812 0.15644 0.0
H1928 H 0.62168 0.02065 0.14799 0.0
H1929 H 0.68526 0.05418 0.13592 0.0
H1930 H 0.66983 0.09193 0.14412 0.0
H1931 H 0.6268 0.15438 0.22083 0.0
H1932 H 0.60918 0.141 0.19824 0.0
H1933 H 0.67607 0.1444 0.17766 0.0
H1934 H 0.69388 0.15737 0.2006 0.0
H1935 H 0.65489 0.10456 0.17139 0.0
H1936 H 0.63306 0.18397 0.16942 0.0
H1937 H 0.61762 0.22117 0.17842 0.0
H1938 H 0.55071 0.18978 0.18442 0.0
H1939 H 0.56582 0.15229 0.17566 0.0
C1940 C 0.58913 0.08016 0.11508 0.0
C1941 C 0.56654 0.0723 0.1182 0.0
C1942 C 0.602 0.09272 0.12533 0.0
C1943 C 0.5925 0.09776 0.13886 0.0
C1944 C 0.56978 0.09055 0.14186 0.0
C1945 C 0.55698 0.07784 0.13169 0.0
C1946 C 0.60638 0.10988 0.15012 0.0
C1947 C 0.59805 0.13097 0.15563 0.0
C1948 C 0.62741 0.10053 0.15566 0.0
C1949 C 0.63665 0.07788 0.15069 0.0
C1950 C 0.62325 0.05754 0.15184 0.0
C1951 C 0.6321 0.03625 0.14713 0.0
C1952 C 0.65442 0.03505 0.14137 0.0
C1953 C 0.66795 0.05514 0.14035 0.0
C1954 C 0.65917 0.07649 0.14502 0.0
C1955 C 0.63772 0.15215 0.21148 0.0
C1956 C 0.66173 0.1561 0.21246 0.0
C1957 C 0.62762 0.14485 0.19853 0.0
C1958 C 0.64125 0.14191 0.1862 0.0
C1959 C 0.66523 0.14656 0.18705 0.0
C1960 C 0.67537 0.15393 0.20009 0.0
C1961 C 0.63042 0.13279 0.17273 0.0
C1962 C 0.6393 0.11225 0.16677 0.0
C1963 C 0.60989 0.14268 0.16678 0.0
C1964 C 0.60062 0.16527 0.17194 0.0
C1965 C 0.61508 0.18496 0.17274 0.0
C1966 C 0.60639 0.20611 0.17779 0.0
C1967 C 0.58321 0.20783 0.18201 0.0
C1968 C 0.56866 0.18842 0.18115 0.0
C1969 C 0.57727 0.16722 0.17611 0.0
H1970 H 0.57652 0.22422 0.18592 0.0
H1971 H 0.66124 0.01855 0.13774 0.0
H1972 H 0.91316 0.05397 0.37007 0.0
H1973 H 0.88896 0.07426 0.38746 0.0
H1974 H 0.92908 0.13678 0.38147 0.0
H1975 H 0.95322 0.11667 0.36383 0.0
H1976 H 0.9253 0.12615 0.40954 0.0
H1977 H 0.87267 0.13547 0.37008 0.0
H1978 H 0.84919 0.12395 0.34884 0.0
H1979 H 0.81096 0.07577 0.37479 0.0
H1980 H 0.83424 0.08696 0.39621 0.0
H1981 H 0.8543 0.18015 0.46193 0.0
H1982 H 0.86997 0.17416 0.4377 0.0
H1983 H 0.84264 0.10435 0.43726 0.0
H1984 H 0.82699 0.11013 0.46135 0.0
H1985 H 0.83904 0.12611 0.41032 0.0
H1986 H 0.89626 0.11259 0.44841 0.0
H1987 H 0.9193 0.12426 0.46982 0.0
H1988 H 0.94916 0.18058 0.44593 0.0
H1989 H 0.92597 0.16943 0.42442 0.0
C1990 C 0.91651 0.07219 0.37215 0.0
C1991 C 0.93521 0.08365 0.36558 0.0
C1992 C 0.90265 0.08379 0.38212 0.0
C1993 C 0.9071 0.1071 0.3857 0.0
C1994 C 0.92534 0.11879 0.37888 0.0
C1995 C 0.9392 0.10722 0.36886 0.0
C1996 C 0.89397 0.11845 0.39746 0.0
C1997 C 0.90645 0.12669 0.40953 0.0
C1998 C 0.86937 0.11883 0.39758 0.0
C1999 C 0.85532 0.11196 0.38473 0.0
C2000 C 0.85937 0.1223 0.37124 0.0
C2001 C 0.84607 0.11584 0.35917 0.0
C2002 C 0.82868 0.09905 0.36044 0.0
C2003 C 0.82446 0.08876 0.37381 0.0
C2004 C 0.83765 0.0952 0.38594 0.0
C2005 C 0.85119 0.16371 0.45653 0.0
C2006 C 0.83967 0.14551 0.46362 0.0
C2007 C 0.86019 0.16031 0.44272 0.0
C2008 C 0.85765 0.13872 0.43578 0.0
C2009 C 0.84479 0.12112 0.44243 0.0
C2010 C 0.836 0.12442 0.45625 0.0
C2011 C 0.87041 0.13337 0.42238 0.0
C2012 C 0.8579 0.12612 0.4101 0.0
C2013 C 0.89499 0.13389 0.42204 0.0
C2014 C 0.90919 0.14036 0.43487 0.0
C2015 C 0.90762 0.12756 0.44776 0.0
C2016 C 0.92071 0.13406 0.4599 0.0
C2017 C 0.93563 0.15319 0.45925 0.0
C2018 C 0.93755 0.1658 0.44643 0.0
C2019 C 0.92444 0.1594 0.43426 0.0
H2020 H 0.94576 0.1582 0.46866 0.0
H2021 H 0.81842 0.09407 0.35107 0.0
H2022 H 0.95295 0.40052 0.62004 0.0
H2023 H 0.92946 0.37794 0.63666 0.0
H2024 H 0.86991 0.42084 0.62671 0.0
H2025 H 0.8932 0.44328 0.60971 0.0
H2026 H 0.87773 0.41743 0.65552 0.0
H2027 H 0.86881 0.36506 0.61654 0.0
H2028 H 0.88066 0.34088 0.59593 0.0
H2029 H 0.92383 0.29961 0.62402 0.0
H2030 H 0.91243 0.32368 0.6448 0.0
H2031 H 0.81978 0.35068 0.70854 0.0
H2032 H 0.82633 0.36492 0.68396 0.0
H2033 H 0.89512 0.33506 0.68479 0.0
H2034 H 0.88877 0.32084 0.70921 0.0
H2035 H 0.87356 0.33134 0.65769 0.0
H2036 H 0.88828 0.38951 0.69502 0.0
H2037 H 0.87674 0.41383 0.71565 0.0
H2038 H 0.82218 0.44448 0.68998 0.0
H2039 H 0.83322 0.42003 0.66924 0.0
C2040 C 0.93471 0.40483 0.62106 0.0
C2041 C 0.92502 0.4238 0.61355 0.0
C2042 C 0.92129 0.39189 0.6306 0.0
C2043 C 0.89788 0.3976 0.63285 0.0
C2044 C 0.88795 0.41614 0.62513 0.0
C2045 C 0.90134 0.42903 0.61549 0.0
C2046 C 0.88463 0.38545 0.64423 0.0
C2047 C 0.87623 0.39864 0.6558 0.0
C2048 C 0.88293 0.36092 0.64467 0.0
C2049 C 0.88985 0.34629 0.63223 0.0
C2050 C 0.88096 0.35094 0.61831 0.0
C2051 C 0.88758 0.33723 0.6066 0.0
C2052 C 0.90304 0.31877 0.60865 0.0
C2053 C 0.91186 0.31393 0.62244 0.0
C2054 C 0.90528 0.32757 0.6342 0.0
C2055 C 0.83608 0.34669 0.70334 0.0
C2056 C 0.85389 0.33493 0.71088 0.0
C2057 C 0.8398 0.35487 0.68932 0.0
C2058 C 0.8613 0.35123 0.68263 0.0
C2059 C 0.87841 0.33805 0.68975 0.0
C2060 C 0.87481 0.33009 0.70376 0.0
C2061 C 0.86727 0.36333 0.66906 0.0
C2062 C 0.87443 0.35015 0.65716 0.0
C2063 C 0.86782 0.38789 0.66826 0.0
C2064 C 0.86137 0.40276 0.68065 0.0
C2065 C 0.87371 0.40131 0.69381 0.0
C2066 C 0.86728 0.41513 0.70552 0.0
C2067 C 0.84869 0.43064 0.70414 0.0
C2068 C 0.83654 0.43241 0.69104 0.0
C2069 C 0.84287 0.41858 0.6793 0.0
H2070 H 0.84373 0.44132 0.71322 0.0
H2071 H 0.90816 0.30818 0.59956 0.0
H2072 H 0.59603 0.05583 0.38669 0.0
H2073 H 0.61694 0.07765 0.36841 0.0
H2074 H 0.56085 0.12737 0.366 0.0
H2075 H 0.53921 0.10488 0.38368 0.0
H2076 H 0.57227 0.11567 0.34025 0.0
H2077 H 0.61519 0.14117 0.38122 0.0
H2078 H 0.63736 0.13811 0.40407 0.0
H2079 H 0.69018 0.09854 0.38279 0.0
H2080 H 0.66817 0.10105 0.35984 0.0
H2081 H 0.63864 0.18184 0.29022 0.0
H2082 H 0.62218 0.17409 0.3141 0.0
H2083 H 0.65755 0.10802 0.31551 0.0
H2084 H 0.67347 0.11534 0.29157 0.0
H2085 H 0.65623 0.13525 0.3432 0.0
H2086 H 0.60787 0.10465 0.3037 0.0
H2087 H 0.58614 0.10949 0.2808 0.0
H2088 H 0.54339 0.16177 0.30029 0.0
H2089 H 0.5652 0.15749 0.32326 0.0
C2090 C 0.58809 0.07138 0.38226 0.0
C2091 C 0.56585 0.07849 0.38663 0.0
C2092 C 0.60025 0.08406 0.37195 0.0
C2093 C 0.59064 0.10437 0.36594 0.0
C2094 C 0.56869 0.11183 0.37053 0.0
C2095 C 0.55642 0.09904 0.38075 0.0
C2096 C 0.60271 0.11669 0.35408 0.0
C2097 C 0.59048 0.12044 0.34108 0.0
C2098 C 0.62657 0.12278 0.35502 0.0
C2099 C 0.63992 0.12118 0.36881 0.0
C2100 C 0.63144 0.13166 0.38142 0.0
C2101 C 0.644 0.13005 0.39439 0.0
C2102 C 0.66515 0.11811 0.39489 0.0
C2103 C 0.6738 0.10778 0.3824 0.0
C2104 C 0.6613 0.10932 0.3694 0.0
C2105 C 0.64329 0.16592 0.29579 0.0
C2106 C 0.65714 0.14908 0.28905 0.0
C2107 C 0.63391 0.16154 0.30939 0.0
C2108 C 0.6387 0.14049 0.31651 0.0
C2109 C 0.65379 0.1244 0.31021 0.0
C2110 C 0.66272 0.12853 0.29651 0.0
C2111 C 0.62579 0.13375 0.32955 0.0
C2112 C 0.63788 0.13094 0.34265 0.0
C2113 C 0.60176 0.12876 0.3288 0.0
C2114 C 0.58832 0.13096 0.31512 0.0
C2115 C 0.59396 0.11731 0.30306 0.0
C2116 C 0.58162 0.11993 0.29008 0.0
C2117 C 0.56344 0.13599 0.28907 0.0
C2118 C 0.55751 0.14938 0.30108 0.0
C2119 C 0.56985 0.14686 0.31408 0.0
H2120 H 0.55392 0.13801 0.27901 0.0
H2121 H 0.67485 0.11689 0.40494 0.0
H2122 H 0.95374 0.05473 0.61656 0.0
H2123 H 0.93169 0.07833 0.59931 0.0
H2124 H 0.90093 0.11641 0.63437 0.0
H2125 H 0.92314 0.09267 0.65181 0.0
H2126 H 0.86846 0.10082 0.61373 0.0
H2127 H 0.93815 0.14435 0.61488 0.0
H2128 H 0.98045 0.15119 0.61473 0.0
H2129 H 0.98429 0.1227 0.57199 0.0
H2130 H 0.94206 0.11535 0.57195 0.0
H2131 H 0.81176 0.1602 0.55436 0.0
H2132 H 0.83105 0.15056 0.57724 0.0
H2133 H 0.88831 0.12065 0.55378 0.0
H2134 H 0.87081 0.134 0.53133 0.0
H2135 H 0.90607 0.14189 0.57319 0.0
H2136 H 0.83858 0.08649 0.5772 0.0
H2137 H 0.79634 0.07802 0.57844 0.0
H2138 H 0.78909 0.12908 0.61187 0.0
H2139 H 0.83113 0.13761 0.61082 0.0
C2140 C 0.94233 0.06817 0.6206 0.0
C2141 C 0.94005 0.07184 0.6355 0.0
C2142 C 0.92988 0.08175 0.61074 0.0
C2143 C 0.91483 0.09923 0.61557 0.0
C2144 C 0.91255 0.10307 0.63045 0.0
C2145 C 0.92527 0.08961 0.64036 0.0
C2146 C 0.90084 0.11251 0.60488 0.0
C2147 C 0.87661 0.11013 0.60494 0.0
C2148 C 0.91147 0.12474 0.59352 0.0
C2149 C 0.93691 0.1292 0.59345 0.0
C2150 C 0.94803 0.13939 0.60548 0.0
C2151 C 0.972 0.14338 0.60543 0.0
C2152 C 0.98506 0.13736 0.59337 0.0
C2153 C 0.97416 0.12736 0.58132 0.0
C2154 C 0.95019 0.12331 0.58133 0.0
C2155 C 0.82834 0.15128 0.55419 0.0
C2156 C 0.83917 0.14648 0.541 0.0
C2157 C 0.83929 0.14547 0.5673 0.0
C2158 C 0.86098 0.1341 0.56746 0.0
C2159 C 0.87157 0.12926 0.55417 0.0
C2160 C 0.8612 0.13615 0.5412 0.0
C2161 C 0.87366 0.1283 0.58118 0.0
C2162 C 0.89775 0.13258 0.5819 0.0
C2163 C 0.86289 0.11776 0.59324 0.0
C2164 C 0.83771 0.11291 0.5937 0.0
C2165 C 0.82779 0.096 0.58464 0.0
C2166 C 0.80399 0.09117 0.58536 0.0
C2167 C 0.79004 0.10317 0.59511 0.0
C2168 C 0.79988 0.11988 0.60426 0.0
C2169 C 0.82368 0.12466 0.60365 0.0
H2170 H 0.77163 0.09941 0.59563 0.0
H2171 H 0.00361 0.14046 0.59334 0.0
H2172 H 0.92797 0.46392 0.86449 0.0
H2173 H 0.90854 0.43877 0.84699 0.0
H2174 H 0.8818 0.39667 0.88158 0.0
H2175 H 0.90159 0.42184 0.89926 0.0
H2176 H 0.89745 0.3697 0.86097 0.0
H2177 H 0.84537 0.43267 0.86231 0.0
H2178 H 0.83234 0.47349 0.86248 0.0
H2179 H 0.8587 0.48303 0.81973 0.0
H2180 H 0.87222 0.44236 0.81937 0.0
H2181 H 0.84038 0.30891 0.80177 0.0
H2182 H 0.84956 0.32832 0.82465 0.0
H2183 H 0.87623 0.38726 0.80114 0.0
H2184 H 0.86394 0.3692 0.77861 0.0
H2185 H 0.85157 0.40289 0.82032 0.0
H2186 H 0.91506 0.34114 0.82579 0.0
H2187 H 0.92694 0.29973 0.82761 0.0
H2188 H 0.87404 0.28781 0.85902 0.0
H2189 H 0.86215 0.32901 0.85745 0.0
C2190 C 0.91767 0.44953 0.8684 0.0
C2191 C 0.91611 0.44499 0.88325 0.0
C2192 C 0.90655 0.43514 0.85838 0.0
C2193 C 0.89332 0.41607 0.86297 0.0
C2194 C 0.89181 0.41136 0.8778 0.0
C2195 C 0.90313 0.42571 0.88787 0.0
C2196 C 0.88196 0.40074 0.85209 0.0
C2197 C 0.88714 0.37691 0.85217 0.0
C2198 C 0.86812 0.40996 0.84075 0.0
C2199 C 0.85991 0.43445 0.84085 0.0
C2200 C 0.84853 0.4435 0.85298 0.0
C2201 C 0.84103 0.46662 0.85311 0.0
C2202 C 0.84471 0.48085 0.84113 0.0
C2203 C 0.85586 0.47198 0.829 0.0
C2204 C 0.86341 0.44888 0.82882 0.0
C2205 C 0.84856 0.32587 0.80158 0.0
C2206 C 0.85264 0.33708 0.78839 0.0
C2207 C 0.85409 0.33688 0.81468 0.0
C2208 C 0.86425 0.35914 0.81479 0.0
C2209 C 0.86857 0.37007 0.8015 0.0
C2210 C 0.86216 0.35948 0.78853 0.0
C2211 C 0.86888 0.37221 0.82846 0.0
C2212 C 0.86191 0.39563 0.82909 0.0
C2213 C 0.88066 0.36253 0.84055 0.0
C2214 C 0.88752 0.33784 0.84127 0.0
C2215 C 0.90589 0.32949 0.83291 0.0
C2216 C 0.91265 0.30617 0.83395 0.0
C2217 C 0.90109 0.29114 0.84329 0.0
C2218 C 0.8829 0.29943 0.85173 0.0
C2219 C 0.87622 0.32275 0.85081 0.0
H2220 H 0.90633 0.27311 0.84405 0.0
H2221 H 0.8389 0.49874 0.84125 0.0
H2222 H 0.56321 0.40252 0.13956 0.0
H2223 H 0.58688 0.38228 0.12189 0.0
H2224 H 0.63666 0.43838 0.12296 0.0
H2225 H 0.61248 0.45923 0.14024 0.0
H2226 H 0.62573 0.42814 0.09619 0.0
H2227 H 0.6506 0.384 0.13659 0.0
H2228 H 0.64696 0.36123 0.15898 0.0
H2229 H 0.60795 0.30902 0.1361 0.0
H2230 H 0.61104 0.33164 0.11361 0.0
H2231 H 0.68497 0.36251 0.04244 0.0
H2232 H 0.68091 0.37902 0.06679 0.0
H2233 H 0.61607 0.34238 0.07172 0.0
H2234 H 0.61977 0.32633 0.04746 0.0
H2235 H 0.64479 0.34402 0.09753 0.0
H2236 H 0.61273 0.39366 0.05933 0.0
H2237 H 0.61621 0.41613 0.0368 0.0
H2238 H 0.66988 0.45801 0.05622 0.0
H2239 H 0.66697 0.43546 0.07881 0.0
C2240 C 0.57924 0.41052 0.1361 0.0
C2241 C 0.58586 0.43256 0.14125 0.0
C2242 C 0.59295 0.39878 0.12612 0.0
C2243 C 0.61373 0.40867 0.1212 0.0
C2244 C 0.62077 0.43036 0.12666 0.0
C2245 C 0.607 0.44217 0.13662 0.0
C2246 C 0.62676 0.39726 0.1094 0.0
C2247 C 0.63051 0.40991 0.09667 0.0
C2248 C 0.63281 0.3734 0.10991 0.0
C2249 C 0.63097 0.35961 0.1234 0.0
C2250 C 0.64111 0.36774 0.13634 0.0
C2251 C 0.63916 0.35484 0.14905 0.0
C2252 C 0.62721 0.3337 0.14896 0.0
C2253 C 0.61721 0.3254 0.13615 0.0
C2254 C 0.61909 0.33824 0.12341 0.0
C2255 C 0.67017 0.3576 0.04889 0.0
C2256 C 0.65256 0.34337 0.04308 0.0
C2257 C 0.66787 0.36702 0.06275 0.0
C2258 C 0.64816 0.36193 0.07099 0.0
C2259 C 0.63144 0.34642 0.06555 0.0
C2260 C 0.6335 0.33741 0.05167 0.0
C2261 C 0.64311 0.37482 0.08441 0.0
C2262 C 0.64072 0.36243 0.09734 0.0
C2263 C 0.63837 0.39892 0.08414 0.0
C2264 C 0.63985 0.41271 0.07067 0.0
C2265 C 0.6254 0.40754 0.05875 0.0
C2266 C 0.62725 0.42029 0.04598 0.0
C2267 C 0.64331 0.43844 0.04506 0.0
C2268 C 0.65749 0.44391 0.05694 0.0
C2269 C 0.65576 0.43114 0.06972 0.0
H2270 H 0.64472 0.4483 0.03516 0.0
H2271 H 0.62572 0.32375 0.15882 0.0
loop_
_geom_bond_atom_site_label_1
_geom_bond_atom_site_label_2
_geom_bond_distance
_geom_bond_site_symmetry_2
_ccdc_geom_bond_type
H0 C19 0.949 . S
H1 C20 0.950 . S
H2 C22 0.950 . S
H3 C23 0.950 . S
H4 C25 0.950 . S
H5 C28 0.950 . S
H6 C29 0.950 . S
H7 C31 0.951 . S
H8 C32 0.949 1_565 S
H9 C34 0.949 . S
H10 C35 0.950 . S
H11 C37 0.950 . S
H12 C38 0.950 . S
H13 C40 0.950 1_655 S
H14 C43 0.950 . S
H15 C44 0.950 . S
H16 C46 0.951 . S
H17 C47 0.949 1_545 S
C18 C19 1.376 . S
C18 C23 1.386 . S
C18 C24 1.483 . S
C19 H0 0.949 . S
C19 C18 1.376 . S
C19 C20 1.397 . S
C20 H1 0.950 . S
C20 C19 1.397 . S
C20 C21 1.391 . S
C21 C20 1.391 . S
C21 C22 1.405 . S
C22 H2 0.950 . S
C22 C21 1.405 . S
C22 C23 1.367 . S
C23 H3 0.950 . S
C23 C18 1.386 . S
C23 C22 1.367 . S
C24 C18 1.483 . S
C24 C25 1.382 1_655 S
C24 C26 1.403 . S
C25 H4 0.950 . S
C25 C24 1.382 1_455 S
C25 C41 1.411 1_545 S
C26 C24 1.403 . S
C26 C27 1.489 . S
C26 C40 1.411 1_645 S
C27 C26 1.489 . S
C27 C28 1.383 . S
C27 C32 1.382 . S
C28 H5 0.950 . S
C28 C27 1.383 . S
C28 C29 1.395 . S
C29 H6 0.950 . S
C29 C28 1.395 . S
C29 C30 1.288 . S
C30 C29 1.288 . S
C30 C31 1.392 . S
C31 H7 0.951 . S
C31 C30 1.392 . S
C31 C32 1.392 . S
C32 H8 0.949 1_545 S
C32 C27 1.382 . S
C32 C31 1.392 . S
C33 C34 1.376 . S
C33 C38 1.386 . S
C33 C39 1.483 . S
C34 H9 0.949 . S
C34 C33 1.376 . S
C34 C35 1.397 . S
C35 H10 0.950 . S
C35 C34 1.397 . S
C35 C36 1.391 . S
C36 C35 1.391 . S
C36 C37 1.405 . S
C37 H11 0.950 . S
C37 C36 1.405 . S
C37 C38 1.367 . S
C38 H12 0.950 . S
C38 C33 1.386 . S
C38 C37 1.367 . S
C39 C33 1.483 . S
C39 C40 1.381 . S
C39 C41 1.403 . S
C40 H13 0.950 1_455 S
C40 C26 1.411 1_465 S
C40 C39 1.381 . S
C41 C25 1.411 1_565 S
C41 C39 1.403 . S
C41 C42 1.489 . S
C42 C41 1.489 . S
C42 C43 1.383 . S
C42 C47 1.382 . S
C43 H14 0.950 . S
C43 C42 1.383 . S
C43 C44 1.395 . S
C44 H15 0.950 . S
C44 C43 1.395 . S
C44 C45 1.288 . S
C45 C44 1.288 . S
C45 C46 1.392 . S
C46 H16 0.951 . S
C46 C45 1.392 . S
C46 C47 1.392 . S
C47 H17 0.949 1_565 S
C47 C42 1.382 . S
C47 C46 1.392 . S
H48 C67 0.949 1_455 S
H49 C68 0.950 . S
H50 C70 0.950 . S
H51 C71 0.950 . S
H52 C73 0.950 . S
H53 C76 0.950 . S
H54 C77 0.950 . S
H55 C79 0.951 . S
H56 C80 0.949 . S
H57 C82 0.949 1_655 S
H58 C83 0.950 . S
H59 C85 0.950 . S
H60 C86 0.950 . S
H61 C88 0.950 . S
H62 C91 0.950 . S
H63 C92 0.950 . S
H64 C94 0.951 . S
H65 C95 0.949 . S
C66 C67 1.376 . S
C66 C71 1.386 . S
C66 C72 1.483 . S
C67 H48 0.949 1_655 S
C67 C66 1.376 . S
C67 C68 1.397 . S
C68 H49 0.950 . S
C68 C67 1.397 . S
C68 C69 1.391 . S
C69 C68 1.391 . S
C69 C70 1.405 . S
C70 H50 0.950 . S
C70 C69 1.405 . S
C70 C71 1.367 . S
C71 H51 0.950 . S
C71 C66 1.386 . S
C71 C70 1.367 . S
C72 C66 1.483 . S
C72 C73 1.382 1_655 S
C72 C74 1.403 . S
C73 H52 0.950 . S
C73 C72 1.382 1_455 S
C73 C89 1.411 . S
C74 C72 1.403 . S
C74 C75 1.489 . S
C74 C88 1.411 . S
C75 C74 1.489 . S
C75 C76 1.383 . S
C75 C80 1.382 . S
C76 H53 0.950 . S
C76 C75 1.383 . S
C76 C77 1.395 . S
C77 H54 0.950 . S
C77 C76 1.395 . S
C77 C78 1.288 . S
C78 C77 1.288 . S
C78 C79 1.392 . S
C79 H55 0.951 . S
C79 C78 1.392 . S
C79 C80 1.392 . S
C80 H56 0.949 . S
C80 C75 1.382 . S
C80 C79 1.392 . S
C81 C82 1.376 . S
C81 C86 1.386 . S
C81 C87 1.483 . S
C82 H57 0.949 1_455 S
C82 C81 1.376 . S
C82 C83 1.397 . S
C83 H58 0.950 . S
C83 C82 1.397 . S
C83 C84 1.391 . S
C84 C83 1.391 . S
C84 C85 1.405 . S
C85 H59 0.950 . S
C85 C84 1.405 . S
C85 C86 1.367 . S
C86 H60 0.950 . S
C86 C81 1.386 . S
C86 C85 1.367 . S
C87 C81 1.483 . S
C87 C88 1.382 1_455 S
C87 C89 1.403 . S
C88 H61 0.950 . S
C88 C74 1.411 . S
C88 C87 1.382 1_655 S
C89 C73 1.411 . S
C89 C87 1.403 . S
C89 C90 1.489 . S
C90 C89 1.489 . S
C90 C91 1.383 . S
C90 C95 1.382 . S
C91 H62 0.950 . S
C91 C90 1.383 . S
C91 C92 1.395 . S
C92 H63 0.950 . S
C92 C91 1.395 . S
C92 C93 1.288 . S
C93 C92 1.288 . S
C93 C94 1.392 . S
C94 H64 0.951 . S
C94 C93 1.392 . S
C94 C95 1.392 . S
C95 H65 0.949 . S
C95 C90 1.382 . S
C95 C94 1.392 . S
H96 C115 0.949 . S
H97 C116 0.950 . S
H98 C118 0.950 . S
H99 C119 0.950 . S
H100 C121 0.950 . S
H101 C124 0.950 . S
H102 C125 0.950 . S
H103 C127 0.951 . S
H104 C128 0.949 . S
H105 C130 0.949 . S
H106 C131 0.950 . S
H107 C133 0.950 . S
H108 C134 0.950 . S
H109 C136 0.950 . S
H110 C139 0.950 . S
H111 C140 0.950 . S
H112 C142 0.951 . S
H113 C143 0.949 . S
C114 C115 1.376 . S
C114 C119 1.386 . S
C114 C120 1.483 . S
C115 H96 0.949 . S
C115 C114 1.376 . S
C115 C116 1.397 . S
C116 H97 0.950 . S
C116 C115 1.397 . S
C116 C117 1.391 . S
C117 C116 1.391 . S
C117 C118 1.405 . S
C118 H98 0.950 . S
C118 C117 1.405 . S
C118 C119 1.367 . S
C119 H99 0.950 . S
C119 C114 1.386 . S
C119 C118 1.367 . S
C120 C114 1.483 . S
C120 C121 1.382 . S
C120 C122 1.403 . S
C121 H100 0.950 . S
C121 C120 1.382 . S
C121 C137 1.411 . S
C122 C120 1.403 . S
C122 C123 1.489 . S
C122 C136 1.411 . S
C123 C122 1.489 . S
C123 C124 1.383 . S
C123 C128 1.382 . S
C124 H101 0.950 . S
C124 C123 1.383 . S
C124 C125 1.395 . S
C125 H102 0.950 . S
C125 C124 1.395 . S
C125 C126 1.288 . S
C126 C125 1.288 . S
C126 C127 1.392 . S
C127 H103 0.951 . S
C127 C126 1.392 . S
C127 C128 1.392 . S
C128 H104 0.949 . S
C128 C123 1.382 . S
C128 C127 1.392 . S
C129 C130 1.376 . S
C129 C134 1.386 . S
C129 C135 1.483 . S
C130 H105 0.949 . S
C130 C129 1.376 . S
C130 C131 1.397 . S
C131 H106 0.950 . S
C131 C130 1.397 . S
C131 C132 1.391 . S
C132 C131 1.391 . S
C132 C133 1.405 . S
C133 H107 0.950 . S
C133 C132 1.405 . S
C133 C134 1.367 . S
C134 H108 0.950 . S
C134 C129 1.386 . S
C134 C133 1.367 . S
C135 C129 1.483 . S
C135 C136 1.382 . S
C135 C137 1.403 . S
C136 H109 0.950 . S
C136 C122 1.411 . S
C136 C135 1.382 . S
C137 C121 1.411 . S
C137 C135 1.403 . S
C137 C138 1.489 . S
C138 C137 1.489 . S
C138 C139 1.383 . S
C138 C143 1.382 . S
C139 H110 0.950 . S
C139 C138 1.383 . S
C139 C140 1.395 . S
C140 H111 0.950 . S
C140 C139 1.395 . S
C140 C141 1.288 . S
C141 C140 1.288 . S
C141 C142 1.392 . S
C142 H112 0.951 . S
C142 C141 1.392 . S
C142 C143 1.392 . S
C143 H113 0.949 . S
C143 C138 1.382 . S
C143 C142 1.392 . S
H144 C163 0.949 . S
H145 C164 0.950 . S
H146 C166 0.950 . S
H147 C167 0.950 . S
H148 C169 0.952 . S
H149 C172 0.950 . S
H150 C173 0.950 . S
H151 C175 0.951 . S
H152 C176 0.949 . S
H153 C178 0.949 . S
H154 C179 0.950 . S
H155 C181 0.950 . S
H156 C182 0.950 . S
H157 C184 0.950 . S
H158 C187 0.950 . S
H159 C188 0.950 . S
H160 C190 0.951 . S
H161 C191 0.949 . S
C162 C163 1.376 . S
C162 C167 1.386 . S
C162 C168 1.483 . S
C163 H144 0.949 . S
C163 C162 1.376 . S
C163 C164 1.397 . S
C164 H145 0.950 . S
C164 C163 1.397 . S
C164 C165 1.391 . S
C165 C164 1.391 . S
C165 C166 1.405 . S
C166 H146 0.950 . S
C166 C165 1.405 . S
C166 C167 1.367 . S
C167 H147 0.950 . S
C167 C162 1.386 . S
C167 C166 1.367 . S
C168 C162 1.483 . S
C168 C169 1.382 1_565 S
C168 C170 1.403 . S
C169 H148 0.952 . S
C169 C168 1.382 1_545 S
C169 C185 1.411 . S
C170 C168 1.403 . S
C170 C171 1.489 . S
C170 C184 1.411 1_565 S
C171 C170 1.489 . S
C171 C172 1.383 . S
C171 C176 1.382 . S
C172 H149 0.950 . S
C172 C171 1.383 . S
C172 C173 1.395 . S
C173 H150 0.950 . S
C173 C172 1.395 . S
C173 C174 1.288 . S
C174 C173 1.288 . S
C174 C175 1.392 . S
C175 H151 0.951 . S
C175 C174 1.392 . S
C175 C176 1.392 . S
C176 H152 0.949 . S
C176 C171 1.382 . S
C176 C175 1.392 . S
C177 C178 1.376 . S
C177 C182 1.386 . S
C177 C183 1.483 . S
C178 H153 0.949 . S
C178 C177 1.376 . S
C178 C179 1.397 . S
C179 H154 0.950 . S
C179 C178 1.397 . S
C179 C180 1.391 . S
C180 C179 1.391 . S
C180 C181 1.405 . S
C181 H155 0.950 . S
C181 C180 1.405 . S
C181 C182 1.367 . S
C182 H156 0.950 . S
C182 C177 1.386 . S
C182 C181 1.367 . S
C183 C177 1.483 . S
C183 C184 1.382 . S
C183 C185 1.403 . S
C184 H157 0.950 . S
C184 C170 1.411 1_545 S
C184 C183 1.382 . S
C185 C169 1.411 . S
C185 C183 1.403 . S
C185 C186 1.489 . S
C186 C185 1.489 . S
C186 C187 1.383 . S
C186 C191 1.382 . S
C187 H158 0.950 . S
C187 C186 1.383 . S
C187 C188 1.395 . S
C188 H159 0.950 . S
C188 C187 1.395 . S
C188 C189 1.288 . S
C189 C188 1.288 . S
C189 C190 1.392 . S
C190 H160 0.951 . S
C190 C189 1.392 . S
C190 C191 1.392 . S
C191 H161 0.949 . S
C191 C186 1.382 . S
C191 C190 1.392 . S
H192 C211 0.949 . S
H193 C212 0.950 . S
H194 C214 0.950 . S
H195 C215 0.950 . S
H196 C217 0.950 . S
H197 C220 0.950 . S
H198 C221 0.950 . S
H199 C223 0.951 . S
H200 C224 0.949 . S
H201 C226 0.949 . S
H202 C227 0.950 . S
H203 C229 0.950 . S
H204 C230 0.950 . S
H205 C232 0.950 . S
H206 C235 0.950 . S
H207 C236 0.950 . S
H208 C238 0.951 . S
H209 C239 0.949 . S
C210 C211 1.376 . S
C210 C215 1.386 . S
C210 C216 1.483 . S
C211 H192 0.949 . S
C211 C210 1.376 . S
C211 C212 1.397 . S
C212 H193 0.950 . S
C212 C211 1.397 . S
C212 C213 1.391 . S
C213 C212 1.391 . S
C213 C214 1.405 . S
C214 H194 0.950 . S
C214 C213 1.405 . S
C214 C215 1.367 . S
C215 H195 0.950 . S
C215 C210 1.386 . S
C215 C214 1.367 . S
C216 C210 1.483 . S
C216 C217 1.384 1_455 S
C216 C218 1.403 . S
C217 H196 0.950 . S
C217 C216 1.384 1_655 S
C217 C233 1.409 . S
C218 C216 1.403 . S
C218 C219 1.489 . S
C218 C232 1.411 . S
C219 C218 1.489 . S
C219 C220 1.383 . S
C219 C224 1.382 . S
C220 H197 0.950 . S
C220 C219 1.383 . S
C220 C221 1.395 . S
C221 H198 0.950 . S
C221 C220 1.395 . S
C221 C222 1.288 . S
C222 C221 1.288 . S
C222 C223 1.392 . S
C223 H199 0.951 . S
C223 C222 1.392 . S
C223 C224 1.392 . S
C224 H200 0.949 . S
C224 C219 1.382 . S
C224 C223 1.392 . S
C225 C226 1.376 . S
C225 C230 1.386 . S
C225 C231 1.483 . S
C226 H201 0.949 . S
C226 C225 1.376 . S
C226 C227 1.397 . S
C227 H202 0.950 . S
C227 C226 1.397 . S
C227 C228 1.391 . S
C228 C227 1.391 . S
C228 C229 1.405 . S
C229 H203 0.950 . S
C229 C228 1.405 . S
C229 C230 1.367 . S
C230 H204 0.950 . S
C230 C225 1.386 . S
C230 C229 1.367 . S
C231 C225 1.483 . S
C231 C232 1.382 1_655 S
C231 C233 1.403 . S
C232 H205 0.950 . S
C232 C218 1.411 . S
C232 C231 1.382 1_455 S
C233 C217 1.409 . S
C233 C231 1.403 . S
C233 C234 1.489 . S
C234 C233 1.489 . S
C234 C235 1.383 . S
C234 C239 1.382 . S
C235 H206 0.950 . S
C235 C234 1.383 . S
C235 C236 1.395 . S
C236 H207 0.950 . S
C236 C235 1.395 . S
C236 C237 1.288 . S
C237 C236 1.288 . S
C237 C238 1.392 . S
C238 H208 0.951 . S
C238 C237 1.392 . S
C238 C239 1.392 . S
C239 H209 0.949 . S
C239 C234 1.382 . S
C239 C238 1.392 . S
H240 C259 0.949 . S
H241 C260 0.950 . S
H242 C262 0.950 . S
H243 C263 0.950 . S
H244 C265 0.950 . S
H245 C268 0.950 . S
H246 C269 0.950 . S
H247 C271 0.951 . S
H248 C272 0.949 . S
H249 C274 0.949 . S
H250 C275 0.950 . S
H251 C277 0.950 . S
H252 C278 0.950 . S
H253 C280 0.950 . S
H254 C283 0.950 . S
H255 C284 0.950 . S
H256 C286 0.951 . S
H257 C287 0.949 . S
C258 C259 1.376 . S
C258 C263 1.386 . S
C258 C264 1.483 . S
C259 H240 0.949 . S
C259 C258 1.376 . S
C259 C260 1.397 . S
C260 H241 0.950 . S
C260 C259 1.397 . S
C260 C261 1.391 . S
C261 C260 1.391 . S
C261 C262 1.405 . S
C262 H242 0.950 . S
C262 C261 1.405 . S
C262 C263 1.367 . S
C263 H243 0.950 . S
C263 C258 1.386 . S
C263 C262 1.367 . S
C264 C258 1.483 . S
C264 C265 1.382 . S
C264 C266 1.403 . S
C265 H244 0.950 . S
C265 C264 1.382 . S
C265 C281 1.411 . S
C266 C264 1.403 . S
C266 C267 1.489 . S
C266 C280 1.411 . S
C267 C266 1.489 . S
C267 C268 1.383 . S
C267 C272 1.382 . S
C268 H245 0.950 . S
C268 C267 1.383 . S
C268 C269 1.395 . S
C269 H246 0.950 . S
C269 C268 1.395 . S
C269 C270 1.288 . S
C270 C269 1.288 . S
C270 C271 1.392 . S
C271 H247 0.951 . S
C271 C270 1.392 . S
C271 C272 1.392 . S
C272 H248 0.949 . S
C272 C267 1.382 . S
C272 C271 1.392 . S
C273 C274 1.376 . S
C273 C278 1.386 . S
C273 C279 1.483 . S
C274 H249 0.949 . S
C274 C273 1.376 . S
C274 C275 1.397 . S
C275 H250 0.950 . S
C275 C274 1.397 . S
C275 C276 1.391 . S
C276 C275 1.391 . S
C276 C277 1.405 . S
C277 H251 0.950 . S
C277 C276 1.405 . S
C277 C278 1.367 . S
C278 H252 0.950 . S
C278 C273 1.386 . S
C278 C277 1.367 . S
C279 C273 1.483 . S
C279 C280 1.382 . S
C279 C281 1.403 . S
C280 H253 0.950 . S
C280 C266 1.411 . S
C280 C279 1.382 . S
C281 C265 1.411 . S
C281 C279 1.403 . S
C281 C282 1.489 . S
C282 C281 1.489 . S
C282 C283 1.383 . S
C282 C287 1.382 . S
C283 H254 0.950 . S
C283 C282 1.383 . S
C283 C284 1.395 . S
C284 H255 0.950 . S
C284 C283 1.395 . S
C284 C285 1.288 . S
C285 C284 1.288 . S
C285 C286 1.392 . S
C286 H256 0.951 . S
C286 C285 1.392 . S
C286 C287 1.392 . S
C287 H257 0.949 . S
C287 C282 1.382 . S
C287 C286 1.392 . S
H288 C307 0.949 . S
H289 C308 0.950 . S
H290 C310 0.950 . S
H291 C311 0.950 . S
H292 C313 0.950 . S
H293 C316 0.950 . S
H294 C317 0.950 . S
H295 C319 0.951 . S
H296 C320 0.949 1_545 S
H297 C322 0.949 . S
H298 C323 0.950 . S
H299 C325 0.950 . S
H300 C326 0.950 . S
H301 C328 0.950 . S
H302 C331 0.950 . S
H303 C332 0.950 . S
H304 C334 0.951 . S
H305 C335 0.949 1_565 S
C306 C307 1.376 . S
C306 C311 1.386 . S
C306 C312 1.483 . S
C307 H288 0.949 . S
C307 C306 1.376 . S
C307 C308 1.397 . S
C308 H289 0.950 . S
C308 C307 1.397 . S
C308 C309 1.391 . S
C309 C308 1.391 . S
C309 C310 1.405 . S
C310 H290 0.950 . S
C310 C309 1.405 . S
C310 C311 1.367 . S
C311 H291 0.950 . S
C311 C306 1.386 . S
C311 C310 1.367 . S
C312 C306 1.483 . S
C312 C313 1.382 . S
C312 C314 1.403 . S
C313 H292 0.950 . S
C313 C312 1.382 . S
C313 C329 1.411 1_565 S
C314 C312 1.403 . S
C314 C315 1.489 . S
C314 C328 1.411 1_565 S
C315 C314 1.489 . S
C315 C316 1.383 . S
C315 C320 1.382 . S
C316 H293 0.950 . S
C316 C315 1.383 . S
C316 C317 1.395 . S
C317 H294 0.950 . S
C317 C316 1.395 . S
C317 C318 1.288 . S
C318 C317 1.288 . S
C318 C319 1.392 . S
C319 H295 0.951 . S
C319 C318 1.392 . S
C319 C320 1.392 . S
C320 H296 0.949 1_565 S
C320 C315 1.382 . S
C320 C319 1.392 . S
C321 C322 1.376 . S
C321 C326 1.386 . S
C321 C327 1.483 . S
C322 H297 0.949 . S
C322 C321 1.376 . S
C322 C323 1.397 . S
C323 H298 0.950 . S
C323 C322 1.397 . S
C323 C324 1.391 . S
C324 C323 1.391 . S
C324 C325 1.405 . S
C325 H299 0.950 . S
C325 C324 1.405 . S
C325 C326 1.367 . S
C326 H300 0.950 . S
C326 C321 1.386 . S
C326 C325 1.367 . S
C327 C321 1.483 . S
C327 C328 1.382 . S
C327 C329 1.403 . S
C328 H301 0.950 . S
C328 C314 1.411 1_545 S
C328 C327 1.382 . S
C329 C313 1.411 1_545 S
C329 C327 1.403 . S
C329 C330 1.489 . S
C330 C329 1.489 . S
C330 C331 1.383 . S
C330 C335 1.382 . S
C331 H302 0.950 . S
C331 C330 1.383 . S
C331 C332 1.395 . S
C332 H303 0.950 . S
C332 C331 1.395 . S
C332 C333 1.288 . S
C333 C332 1.288 . S
C333 C334 1.392 . S
C334 H304 0.951 . S
C334 C333 1.392 . S
C334 C335 1.392 . S
C335 H305 0.949 1_545 S
C335 C330 1.382 . S
C335 C334 1.392 . S
H336 C355 0.949 1_455 S
H337 C356 0.950 . S
H338 C358 0.950 . S
H339 C359 0.950 . S
H340 C361 0.950 . S
H341 C364 0.950 . S
H342 C365 0.950 . S
H343 C367 0.951 . S
H344 C368 0.949 . S
H345 C370 0.996 . S
H346 C371 0.950 . S
H347 C373 0.950 . S
H348 C374 0.950 . S
H349 C376 0.944 1_665 S
H350 C379 0.950 . S
H351 C380 0.950 . S
H352 C382 0.951 . S
H353 C383 0.949 . S
C354 C355 1.376 . S
C354 C359 1.386 . S
C354 C360 1.483 . S
C355 H336 0.949 1_655 S
C355 C354 1.376 . S
C355 C356 1.397 . S
C356 H337 0.950 . S
C356 C355 1.397 . S
C356 C357 1.391 . S
C357 C356 1.391 . S
C357 C358 1.405 . S
C358 H338 0.950 . S
C358 C357 1.405 . S
C358 C359 1.367 . S
C359 H339 0.950 . S
C359 C354 1.386 . S
C359 C358 1.367 . S
C360 C354 1.483 . S
C360 C361 1.382 1_655 S
C360 C362 1.403 . S
C361 H340 0.950 . S
C361 C360 1.382 1_455 S
C361 C377 1.411 1_545 S
C362 C360 1.403 . S
C362 C363 1.489 . S
C362 C376 1.387 1_655 S
C363 C362 1.489 . S
C363 C364 1.383 . S
C363 C368 1.382 . S
C364 H341 0.950 . S
C364 C363 1.383 . S
C364 C365 1.395 . S
C365 H342 0.950 . S
C365 C364 1.395 . S
C365 C366 1.288 . S
C366 C365 1.288 . S
C366 C367 1.392 . S
C367 H343 0.951 . S
C367 C366 1.392 . S
C367 C368 1.392 . S
C368 H344 0.949 . S
C368 C363 1.382 . S
C368 C367 1.392 . S
C369 C370 1.376 . S
C369 C374 1.386 . S
C369 C375 1.483 . S
C370 H345 0.996 . S
C370 C369 1.376 . S
C370 C371 1.397 . S
C371 H346 0.950 . S
C371 C370 1.397 . S
C371 C372 1.391 . S
C372 C371 1.391 . S
C372 C373 1.405 . S
C373 H347 0.950 . S
C373 C372 1.405 . S
C373 C374 1.367 . S
C374 H348 0.950 . S
C374 C369 1.386 . S
C374 C373 1.367 . S
C375 C369 1.483 . S
C375 C376 1.411 1_565 S
C375 C377 1.403 . S
C376 H349 0.944 1_445 S
C376 C362 1.387 1_455 S
C376 C375 1.411 1_545 S
C377 C361 1.411 1_565 S
C377 C375 1.403 . S
C377 C378 1.489 . S
C378 C377 1.489 . S
C378 C379 1.383 . S
C378 C383 1.382 . S
C379 H350 0.950 . S
C379 C378 1.383 . S
C379 C380 1.395 . S
C380 H351 0.950 . S
C380 C379 1.395 . S
C380 C381 1.288 . S
C381 C380 1.288 . S
C381 C382 1.392 . S
C382 H352 0.951 . S
C382 C381 1.392 . S
C382 C383 1.392 . S
C383 H353 0.949 . S
C383 C378 1.382 . S
C383 C382 1.392 . S
Mn384 O389 2.095 1_554 S
Mn384 O399 2.162 . S
Mn384 O400 2.297 . S
Mn384 O408 2.385 . S
Mn384 O409 2.209 . S
Mn384 O410 2.094 1_554 S
Mn385 O390 2.121 . S
Mn385 N392 2.257 1_556 S
Mn385 N401 2.282 1_556 S
Mn385 O409 2.215 1_556 S
Mn385 O411 2.117 . S
C386 O408 1.234 . S
C386 O409 1.283 . S
C387 O399 1.281 . S
C387 O400 1.236 . S
C388 O410 1.240 . S
C388 O411 1.264 . S
O389 Mn384 2.095 1_556 S
O389 C398 1.250 . S
O390 Mn385 2.121 . S
O390 C398 1.258 . S
C391 N392 1.326 1_556 S
C391 C395 1.460 1_556 S
C391 H397 0.929 . S
N392 Mn385 2.257 1_554 S
N392 C391 1.326 1_554 S
N392 C396 1.362 . S
C393 C394 1.258 . S
C393 C396 1.431 . S
C393 C413 1.449 . S
C394 C393 1.258 . S
C394 C395 1.477 . S
C394 H414 0.931 . S
C395 C391 1.460 1_554 S
C395 C394 1.477 . S
C395 H415 0.930 1_554 S
C396 N392 1.362 . S
C396 C393 1.431 . S
C396 C406 1.476 . S
H397 C391 0.929 . S
C398 O389 1.250 . S
C398 O390 1.258 . S
O399 Mn384 2.162 . S
O399 C387 1.281 . S
O400 Mn384 2.297 . S
O400 C387 1.236 . S
N401 Mn385 2.282 1_554 S
N401 C402 1.328 . S
N401 C406 1.318 . S
C402 N401 1.328 . S
C402 C403 1.457 . S
C402 H407 0.929 . S
C403 C402 1.457 . S
C403 C404 1.291 . S
C403 H416 0.931 . S
C404 C403 1.291 . S
C404 C405 1.373 . S
C404 H417 0.929 . S
C405 C404 1.373 . S
C405 C406 1.396 . S
C405 C412 1.403 . S
C406 C396 1.476 . S
C406 N401 1.318 . S
C406 C405 1.396 . S
H407 C402 0.929 . S
O408 Mn384 2.385 . S
O408 C386 1.234 . S
O409 Mn384 2.209 . S
O409 Mn385 2.215 1_554 S
O409 C386 1.283 . S
O410 Mn384 2.094 1_556 S
O410 C388 1.240 . S
O411 Mn385 2.117 . S
O411 C388 1.264 . S
C412 C405 1.403 . S
C412 C413 1.399 . S
C412 H418 0.929 . S
C413 C393 1.449 . S
C413 C412 1.399 . S
C413 H419 0.930 . S
H414 C394 0.931 . S
H415 C395 0.930 1_556 S
H416 C403 0.931 . S
H417 C404 0.929 . S
H418 C412 0.929 . S
H419 C413 0.930 . S
Mn420 O425 2.095 . S
Mn420 O435 2.162 . S
Mn420 O436 2.297 . S
Mn420 O444 2.385 . S
Mn420 O445 2.209 . S
Mn420 O446 2.094 . S
Mn421 O426 2.121 . S
Mn421 N428 2.257 . S
Mn421 N437 2.282 . S
Mn421 O445 2.215 . S
Mn421 O447 2.117 . S
C422 O444 1.234 . S
C422 O445 1.283 . S
C423 O435 1.281 . S
C423 O436 1.236 . S
C424 O446 1.240 . S
C424 O447 1.264 . S
O425 Mn420 2.095 . S
O425 C434 1.250 . S
O426 Mn421 2.121 . S
O426 C434 1.258 . S
C427 N428 1.326 . S
C427 C431 1.460 . S
C427 H433 0.929 . S
N428 Mn421 2.257 . S
N428 C427 1.326 . S
N428 C432 1.362 . S
C429 C430 1.258 . S
C429 C432 1.431 . S
C429 C449 1.449 . S
C430 C429 1.258 . S
C430 C431 1.477 . S
C430 H450 0.931 . S
C431 C427 1.460 . S
C431 C430 1.477 . S
C431 H451 0.930 . S
C432 N428 1.362 . S
C432 C429 1.431 . S
C432 C442 1.476 . S
H433 C427 0.929 . S
C434 O425 1.250 . S
C434 O426 1.258 . S
O435 Mn420 2.162 . S
O435 C423 1.281 . S
O436 Mn420 2.297 . S
O436 C423 1.236 . S
N437 Mn421 2.282 . S
N437 C438 1.328 . S
N437 C442 1.318 . S
C438 N437 1.328 . S
C438 C439 1.457 . S
C438 H443 0.929 . S
C439 C438 1.457 . S
C439 C440 1.291 . S
C439 H452 0.931 . S
C440 C439 1.291 . S
C440 C441 1.373 . S
C440 H453 0.929 . S
C441 C440 1.373 . S
C441 C442 1.396 . S
C441 C448 1.403 . S
C442 C432 1.476 . S
C442 N437 1.318 . S
C442 C441 1.396 . S
H443 C438 0.929 . S
O444 Mn420 2.385 . S
O444 C422 1.234 . S
O445 Mn420 2.209 . S
O445 Mn421 2.215 . S
O445 C422 1.283 . S
O446 Mn420 2.094 . S
O446 C424 1.240 . S
O447 Mn421 2.117 . S
O447 C424 1.264 . S
C448 C441 1.403 . S
C448 C449 1.399 . S
C448 H454 0.929 . S
C449 C429 1.449 . S
C449 C448 1.399 . S
C449 H455 0.930 . S
H450 C430 0.931 . S
H451 C431 0.930 . S
H452 C439 0.931 . S
H453 C440 0.929 . S
H454 C448 0.929 . S
H455 C449 0.930 . S
Mn456 O461 2.095 . S
Mn456 O471 2.162 . S
Mn456 O472 2.297 . S
Mn456 O480 2.385 . S
Mn456 O481 2.209 . S
Mn456 O482 2.094 . S
Mn457 O462 2.121 . S
Mn457 N464 2.257 . S
Mn457 N473 2.282 . S
Mn457 O481 2.215 . S
Mn457 O483 2.117 . S
C458 O480 1.234 . S
C458 O481 1.283 . S
C459 O471 1.281 . S
C459 O472 1.236 . S
C460 O482 1.240 . S
C460 O483 1.264 . S
O461 Mn456 2.095 . S
O461 C470 1.250 . S
O462 Mn457 2.121 . S
O462 C470 1.258 . S
C463 N464 1.326 . S
C463 C467 1.460 . S
C463 H469 0.929 . S
N464 Mn457 2.257 . S
N464 C463 1.326 . S
N464 C468 1.362 . S
C465 C466 1.258 . S
C465 C468 1.431 . S
C465 C485 1.449 . S
C466 C465 1.258 . S
C466 C467 1.477 . S
C466 H486 0.931 . S
C467 C463 1.460 . S
C467 C466 1.477 . S
C467 H487 0.930 . S
C468 N464 1.362 . S
C468 C465 1.431 . S
C468 C478 1.476 . S
H469 C463 0.929 . S
C470 O461 1.250 . S
C470 O462 1.258 . S
O471 Mn456 2.162 . S
O471 C459 1.281 . S
O472 Mn456 2.297 . S
O472 C459 1.236 . S
N473 Mn457 2.282 . S
N473 C474 1.328 . S
N473 C478 1.318 . S
C474 N473 1.328 . S
C474 C475 1.457 . S
C474 H479 0.929 . S
C475 C474 1.457 . S
C475 C476 1.291 . S
C475 H488 0.931 . S
C476 C475 1.291 . S
C476 C477 1.373 . S
C476 H489 0.929 . S
C477 C476 1.373 . S
C477 C478 1.396 . S
C477 C484 1.403 . S
C478 C468 1.476 . S
C478 N473 1.318 . S
C478 C477 1.396 . S
H479 C474 0.929 . S
O480 Mn456 2.385 . S
O480 C458 1.234 . S
O481 Mn456 2.209 . S
O481 Mn457 2.215 . S
O481 C458 1.283 . S
O482 Mn456 2.094 . S
O482 C460 1.240 . S
O483 Mn457 2.117 . S
O483 C460 1.264 . S
C484 C477 1.403 . S
C484 C485 1.399 . S
C484 H490 0.929 . S
C485 C465 1.449 . S
C485 C484 1.399 . S
C485 H491 0.930 . S
H486 C466 0.931 . S
H487 C467 0.930 . S
H488 C475 0.931 . S
H489 C476 0.929 . S
H490 C484 0.929 . S
H491 C485 0.930 . S
Mn492 O497 2.095 . S
Mn492 O507 2.162 . S
Mn492 O508 2.297 . S
Mn492 O516 2.385 . S
Mn492 O517 2.209 . S
Mn492 O518 2.094 . S
Mn493 O498 2.121 . S
Mn493 N500 2.257 . S
Mn493 N509 2.282 . S
Mn493 O517 2.215 . S
Mn493 O519 2.117 . S
C494 O516 1.234 . S
C494 O517 1.283 . S
C495 O507 1.281 . S
C495 O508 1.236 . S
C496 O518 1.240 . S
C496 O519 1.264 . S
O497 Mn492 2.095 . S
O497 C506 1.250 . S
O498 Mn493 2.121 . S
O498 C506 1.258 . S
C499 N500 1.326 . S
C499 C503 1.460 . S
C499 H505 0.929 . S
N500 Mn493 2.257 . S
N500 C499 1.326 . S
N500 C504 1.362 . S
C501 C502 1.258 . S
C501 C504 1.431 . S
C501 C521 1.449 . S
C502 C501 1.258 . S
C502 C503 1.477 . S
C502 H522 0.931 . S
C503 C499 1.460 . S
C503 C502 1.477 . S
C503 H523 0.930 . S
C504 N500 1.362 . S
C504 C501 1.431 . S
C504 C514 1.476 . S
H505 C499 0.929 . S
C506 O497 1.250 . S
C506 O498 1.258 . S
O507 Mn492 2.162 . S
O507 C495 1.281 . S
O508 Mn492 2.297 . S
O508 C495 1.236 . S
N509 Mn493 2.282 . S
N509 C510 1.328 . S
N509 C514 1.318 . S
C510 N509 1.328 . S
C510 C511 1.457 . S
C510 H515 0.929 . S
C511 C510 1.457 . S
C511 C512 1.291 . S
C511 H524 0.931 . S
C512 C511 1.291 . S
C512 C513 1.373 . S
C512 H525 0.929 . S
C513 C512 1.373 . S
C513 C514 1.396 . S
C513 C520 1.403 . S
C514 C504 1.476 . S
C514 N509 1.318 . S
C514 C513 1.396 . S
H515 C510 0.929 . S
O516 Mn492 2.385 . S
O516 C494 1.234 . S
O517 Mn492 2.209 . S
O517 Mn493 2.215 . S
O517 C494 1.283 . S
O518 Mn492 2.094 . S
O518 C496 1.240 . S
O519 Mn493 2.117 . S
O519 C496 1.264 . S
C520 C513 1.403 . S
C520 C521 1.399 . S
C520 H526 0.929 . S
C521 C501 1.449 . S
C521 C520 1.399 . S
C521 H527 0.930 . S
H522 C502 0.931 . S
H523 C503 0.930 . S
H524 C511 0.931 . S
H525 C512 0.929 . S
H526 C520 0.929 . S
H527 C521 0.930 . S
Mn528 O533 2.095 . S
Mn528 O543 2.162 . S
Mn528 O544 2.297 . S
Mn528 O552 2.385 . S
Mn528 O553 2.209 . S
Mn528 O554 2.094 . S
Mn529 O534 2.121 . S
Mn529 N536 2.257 . S
Mn529 N545 2.282 . S
Mn529 O553 2.215 . S
Mn529 O555 2.117 . S
C530 O552 1.234 . S
C530 O553 1.283 . S
C531 O543 1.281 . S
C531 O544 1.236 . S
C532 O554 1.240 . S
C532 O555 1.264 . S
O533 Mn528 2.095 . S
O533 C542 1.250 . S
O534 Mn529 2.121 . S
O534 C542 1.258 . S
C535 N536 1.326 . S
C535 C539 1.460 . S
C535 H541 0.929 . S
N536 Mn529 2.257 . S
N536 C535 1.326 . S
N536 C540 1.362 . S
C537 C538 1.258 . S
C537 C540 1.431 . S
C537 C557 1.449 . S
C538 C537 1.258 . S
C538 C539 1.477 . S
C538 H558 0.931 . S
C539 C535 1.460 . S
C539 C538 1.477 . S
C539 H559 0.930 . S
C540 N536 1.362 . S
C540 C537 1.431 . S
C540 C550 1.476 . S
H541 C535 0.929 . S
C542 O533 1.250 . S
C542 O534 1.258 . S
O543 Mn528 2.162 . S
O543 C531 1.281 . S
O544 Mn528 2.297 . S
O544 C531 1.236 . S
N545 Mn529 2.282 . S
N545 C546 1.328 . S
N545 C550 1.318 . S
C546 N545 1.328 . S
C546 C547 1.457 . S
C546 H551 0.929 . S
C547 C546 1.457 . S
C547 C548 1.291 . S
C547 H560 0.931 . S
C548 C547 1.291 . S
C548 C549 1.373 . S
C548 H561 0.929 . S
C549 C548 1.373 . S
C549 C550 1.396 . S
C549 C556 1.403 . S
C550 C540 1.476 . S
C550 N545 1.318 . S
C550 C549 1.396 . S
H551 C546 0.929 . S
O552 Mn528 2.385 . S
O552 C530 1.234 . S
O553 Mn528 2.209 . S
O553 Mn529 2.215 . S
O553 C530 1.283 . S
O554 Mn528 2.094 . S
O554 C532 1.240 . S
O555 Mn529 2.117 . S
O555 C532 1.264 . S
C556 C549 1.403 . S
C556 C557 1.399 . S
C556 H562 0.929 . S
C557 C537 1.449 . S
C557 C556 1.399 . S
C557 H563 0.930 . S
H558 C538 0.931 . S
H559 C539 0.930 . S
H560 C547 0.931 . S
H561 C548 0.929 . S
H562 C556 0.929 . S
H563 C557 0.930 . S
Mn564 O569 2.095 . S
Mn564 O579 2.162 . S
Mn564 O580 2.297 . S
Mn564 O588 2.385 . S
Mn564 O589 2.209 . S
Mn564 O590 2.094 . S
Mn565 O570 2.121 . S
Mn565 N572 2.257 . S
Mn565 N581 2.282 . S
Mn565 O589 2.215 . S
Mn565 O591 2.117 . S
C566 O588 1.234 . S
C566 O589 1.283 . S
C567 O579 1.281 . S
C567 O580 1.236 . S
C568 O590 1.240 . S
C568 O591 1.264 . S
O569 Mn564 2.095 . S
O569 C578 1.250 . S
O570 Mn565 2.121 . S
O570 C578 1.258 . S
C571 N572 1.326 . S
C571 C575 1.460 . S
C571 H577 0.929 . S
N572 Mn565 2.257 . S
N572 C571 1.326 . S
N572 C576 1.362 . S
C573 C574 1.258 . S
C573 C576 1.431 . S
C573 C593 1.449 . S
C574 C573 1.258 . S
C574 C575 1.477 . S
C574 H594 0.931 . S
C575 C571 1.460 . S
C575 C574 1.477 . S
C575 H595 0.930 . S
C576 N572 1.362 . S
C576 C573 1.431 . S
C576 C586 1.476 . S
H577 C571 0.929 . S
C578 O569 1.250 . S
C578 O570 1.258 . S
O579 Mn564 2.162 . S
O579 C567 1.281 . S
O580 Mn564 2.297 . S
O580 C567 1.236 . S
N581 Mn565 2.282 . S
N581 C582 1.328 . S
N581 C586 1.318 . S
C582 N581 1.328 . S
C582 C583 1.457 . S
C582 H587 0.929 . S
C583 C582 1.457 . S
C583 C584 1.291 . S
C583 H596 0.931 . S
C584 C583 1.291 . S
C584 C585 1.373 . S
C584 H597 0.929 . S
C585 C584 1.373 . S
C585 C586 1.396 . S
C585 C592 1.403 . S
C586 C576 1.476 . S
C586 N581 1.318 . S
C586 C585 1.396 . S
H587 C582 0.929 . S
O588 Mn564 2.385 . S
O588 C566 1.234 . S
O589 Mn564 2.209 . S
O589 Mn565 2.215 . S
O589 C566 1.283 . S
O590 Mn564 2.094 . S
O590 C568 1.240 . S
O591 Mn565 2.117 . S
O591 C568 1.264 . S
C592 C585 1.403 . S
C592 C593 1.399 . S
C592 H598 0.929 . S
C593 C573 1.449 . S
C593 C592 1.399 . S
C593 H599 0.930 . S
H594 C574 0.931 . S
H595 C575 0.930 . S
H596 C583 0.931 . S
H597 C584 0.929 . S
H598 C592 0.929 . S
H599 C593 0.930 . S
Mn600 O605 2.095 . S
Mn600 O615 2.162 . S
Mn600 O616 2.297 1_554 S
Mn600 O624 2.385 1_554 S
Mn600 O625 2.209 1_554 S
Mn600 O626 2.094 . S
Mn601 O606 2.121 . S
Mn601 N608 2.257 1_554 S
Mn601 N617 2.282 1_554 S
Mn601 O625 2.215 1_554 S
Mn601 O627 2.117 . S
C602 O624 1.234 . S
C602 O625 1.283 . S
C603 O615 1.281 1_556 S
C603 O616 1.236 . S
C604 O626 1.240 . S
C604 O627 1.264 . S
O605 Mn600 2.095 . S
O605 C614 1.250 . S
O606 Mn601 2.121 . S
O606 C614 1.258 . S
C607 N608 1.326 1_554 S
C607 C611 1.460 . S
C607 H613 0.929 . S
N608 Mn601 2.257 1_556 S
N608 C607 1.326 1_556 S
N608 C612 1.362 . S
C609 C610 1.258 . S
C609 C612 1.431 . S
C609 C629 1.449 . S
C610 C609 1.258 . S
C610 C611 1.477 1_556 S
C610 H630 0.931 . S
C611 C607 1.460 . S
C611 C610 1.477 1_554 S
C611 H631 0.930 . S
C612 N608 1.362 . S
C612 C609 1.431 . S
C612 C622 1.476 . S
H613 C607 0.929 . S
C614 O605 1.250 . S
C614 O606 1.258 . S
O615 Mn600 2.162 . S
O615 C603 1.281 1_554 S
O616 Mn600 2.297 1_556 S
O616 C603 1.236 . S
N617 Mn601 2.282 1_556 S
N617 C618 1.328 . S
N617 C622 1.318 . S
C618 N617 1.328 . S
C618 C619 1.457 . S
C618 H623 0.929 . S
C619 C618 1.457 . S
C619 C620 1.291 . S
C619 H632 0.931 . S
C620 C619 1.291 . S
C620 C621 1.373 . S
C620 H633 0.929 . S
C621 C620 1.373 . S
C621 C622 1.396 . S
C621 C628 1.403 . S
C622 C612 1.476 . S
C622 N617 1.318 . S
C622 C621 1.396 . S
H623 C618 0.929 . S
O624 Mn600 2.385 1_556 S
O624 C602 1.234 . S
O625 Mn600 2.209 1_556 S
O625 Mn601 2.215 1_556 S
O625 C602 1.283 . S
O626 Mn600 2.094 . S
O626 C604 1.240 . S
O627 Mn601 2.117 . S
O627 C604 1.264 . S
C628 C621 1.403 . S
C628 C629 1.399 . S
C628 H634 0.929 . S
C629 C609 1.449 . S
C629 C628 1.399 . S
C629 H635 0.930 . S
H630 C610 0.931 . S
H631 C611 0.930 . S
H632 C619 0.931 . S
H633 C620 0.929 . S
H634 C628 0.929 . S
H635 C629 0.930 . S
Mn636 O641 2.095 . S
Mn636 O651 2.162 . S
Mn636 O652 2.297 . S
Mn636 O660 2.385 . S
Mn636 O661 2.209 . S
Mn636 O662 2.094 . S
Mn637 O642 2.121 . S
Mn637 N644 2.257 . S
Mn637 N653 2.282 . S
Mn637 O661 2.215 . S
Mn637 O663 2.117 . S
C638 O660 1.234 . S
C638 O661 1.283 . S
C639 O651 1.281 . S
C639 O652 1.236 . S
C640 O662 1.240 . S
C640 O663 1.264 . S
O641 Mn636 2.095 . S
O641 C650 1.250 . S
O642 Mn637 2.121 . S
O642 C650 1.258 . S
C643 N644 1.326 . S
C643 C647 1.460 . S
C643 H649 0.929 . S
N644 Mn637 2.257 . S
N644 C643 1.326 . S
N644 C648 1.362 . S
C645 C646 1.258 . S
C645 C648 1.431 . S
C645 C665 1.449 . S
C646 C645 1.258 . S
C646 C647 1.477 . S
C646 H666 0.931 . S
C647 C643 1.460 . S
C647 C646 1.477 . S
C647 H667 0.930 . S
C648 N644 1.362 . S
C648 C645 1.431 . S
C648 C658 1.476 . S
H649 C643 0.929 . S
C650 O641 1.250 . S
C650 O642 1.258 . S
O651 Mn636 2.162 . S
O651 C639 1.281 . S
O652 Mn636 2.297 . S
O652 C639 1.236 . S
N653 Mn637 2.282 . S
N653 C654 1.328 . S
N653 C658 1.318 . S
C654 N653 1.328 . S
C654 C655 1.457 . S
C654 H659 0.929 . S
C655 C654 1.457 . S
C655 C656 1.291 . S
C655 H668 0.931 . S
C656 C655 1.291 . S
C656 C657 1.373 . S
C656 H669 0.929 . S
C657 C656 1.373 . S
C657 C658 1.396 . S
C657 C664 1.403 . S
C658 C648 1.476 . S
C658 N653 1.318 . S
C658 C657 1.396 . S
H659 C654 0.929 . S
O660 Mn636 2.385 . S
O660 C638 1.234 . S
O661 Mn636 2.209 . S
O661 Mn637 2.215 . S
O661 C638 1.283 . S
O662 Mn636 2.094 . S
O662 C640 1.240 . S
O663 Mn637 2.117 . S
O663 C640 1.264 . S
C664 C657 1.403 . S
C664 C665 1.399 . S
C664 H670 0.929 . S
C665 C645 1.449 . S
C665 C664 1.399 . S
C665 H671 0.930 . S
H666 C646 0.931 . S
H667 C647 0.930 . S
H668 C655 0.931 . S
H669 C656 0.929 . S
H670 C664 0.929 . S
H671 C665 0.930 . S
H672 C690 0.951 . S
H673 C692 0.951 . S
H674 C694 0.950 . S
H675 C695 0.950 . S
H676 C697 0.950 . S
H677 C700 0.950 . S
H678 C701 0.950 . S
H679 C703 0.950 . S
H680 C704 0.950 . S
H681 C705 0.951 . S
H682 C707 0.951 . S
H683 C709 0.950 . S
H684 C710 0.950 . S
H685 C712 0.950 . S
H686 C715 0.950 . S
H687 C716 0.950 . S
H688 C718 0.950 . S
H689 C719 0.950 . S
C690 H672 0.951 . S
C690 C691 1.366 . S
C690 C692 1.388 . S
C691 C690 1.366 . S
C691 C695 1.385 . S
C692 H673 0.951 . S
C692 C690 1.388 . S
C692 C693 1.366 . S
C693 C692 1.366 . S
C693 C694 1.414 . S
C693 C696 1.499 . S
C694 H674 0.950 . S
C694 C693 1.414 . S
C694 C695 1.374 . S
C695 H675 0.950 . S
C695 C691 1.385 . S
C695 C694 1.374 . S
C696 C693 1.499 . S
C696 C697 1.373 . S
C696 C698 1.389 . S
C697 H676 0.950 . S
C697 C696 1.373 . S
C697 C713 1.377 . S
C698 C696 1.389 . S
C698 C699 1.524 . S
C698 C712 1.377 . S
C699 C698 1.524 . S
C699 C700 1.397 . S
C699 C704 1.363 . S
C700 H677 0.950 . S
C700 C699 1.397 . S
C700 C701 1.334 . S
C701 H678 0.950 . S
C701 C700 1.334 . S
C701 C702 1.287 . S
C702 C701 1.287 . S
C702 C703 1.524 . S
C702 H721 0.913 . S
C703 H679 0.950 . S
C703 C702 1.524 . S
C703 C704 1.415 . S
C704 H680 0.950 . S
C704 C699 1.363 . S
C704 C703 1.415 . S
C705 H681 0.951 . S
C705 C706 1.366 . S
C705 C707 1.388 . S
C706 C705 1.366 . S
C706 C710 1.385 . S
C707 H682 0.951 . S
C707 C705 1.388 . S
C707 C708 1.366 . S
C708 C707 1.366 . S
C708 C709 1.414 . S
C708 C711 1.499 . S
C709 H683 0.950 . S
C709 C708 1.414 . S
C709 C710 1.374 . S
C710 H684 0.950 . S
C710 C706 1.385 . S
C710 C709 1.374 . S
C711 C708 1.499 . S
C711 C712 1.373 . S
C711 C713 1.389 . S
C712 H685 0.950 . S
C712 C698 1.377 . S
C712 C711 1.373 . S
C713 C697 1.377 . S
C713 C711 1.389 . S
C713 C714 1.524 . S
C714 C713 1.524 . S
C714 C715 1.397 . S
C714 C719 1.363 . S
C715 H686 0.950 . S
C715 C714 1.397 . S
C715 C716 1.334 . S
C716 H687 0.950 . S
C716 C715 1.334 . S
C716 C717 1.287 . S
C717 C716 1.287 . S
C717 C718 1.524 . S
C717 H720 0.999 . S
C718 H688 0.950 . S
C718 C717 1.524 . S
C718 C719 1.415 . S
C719 H689 0.950 . S
C719 C714 1.363 . S
C719 C718 1.415 . S
H720 C717 0.999 . S
H721 C702 0.913 . S
H722 C740 0.951 . S
H723 C742 0.951 . S
H724 C744 0.950 . S
H725 C745 0.950 . S
H726 C747 0.950 . S
H727 C750 0.950 . S
H728 C751 0.950 . S
H729 C753 0.950 . S
H730 C754 0.950 . S
H731 C755 0.951 . S
H732 C757 0.951 . S
H733 C759 0.950 . S
H734 C760 0.950 . S
H735 C762 0.950 . S
H736 C765 0.950 . S
H737 C766 0.950 . S
H738 C768 0.950 . S
H739 C769 0.950 . S
C740 H722 0.951 . S
C740 C741 1.366 . S
C740 C742 1.388 . S
C741 C740 1.366 . S
C741 C745 1.385 . S
C742 H723 0.951 . S
C742 C740 1.388 . S
C742 C743 1.366 . S
C743 C742 1.366 . S
C743 C744 1.414 . S
C743 C746 1.499 . S
C744 H724 0.950 . S
C744 C743 1.414 . S
C744 C745 1.374 . S
C745 H725 0.950 . S
C745 C741 1.385 . S
C745 C744 1.374 . S
C746 C743 1.499 . S
C746 C747 1.373 . S
C746 C748 1.389 . S
C747 H726 0.950 . S
C747 C746 1.373 . S
C747 C763 1.377 . S
C748 C746 1.389 . S
C748 C749 1.524 . S
C748 C762 1.377 . S
C749 C748 1.524 . S
C749 C750 1.397 . S
C749 C754 1.363 . S
C750 H727 0.950 . S
C750 C749 1.397 . S
C750 C751 1.334 . S
C751 H728 0.950 . S
C751 C750 1.334 . S
C751 C752 1.287 . S
C752 C751 1.287 . S
C752 C753 1.524 . S
C752 H771 0.913 . S
C753 H729 0.950 . S
C753 C752 1.524 . S
C753 C754 1.415 . S
C754 H730 0.950 . S
C754 C749 1.363 . S
C754 C753 1.415 . S
C755 H731 0.951 . S
C755 C756 1.366 . S
C755 C757 1.388 . S
C756 C755 1.366 . S
C756 C760 1.385 . S
C757 H732 0.951 . S
C757 C755 1.388 . S
C757 C758 1.366 . S
C758 C757 1.366 . S
C758 C759 1.414 . S
C758 C761 1.499 . S
C759 H733 0.950 . S
C759 C758 1.414 . S
C759 C760 1.374 . S
C760 H734 0.950 . S
C760 C756 1.385 . S
C760 C759 1.374 . S
C761 C758 1.499 . S
C761 C762 1.373 . S
C761 C763 1.389 . S
C762 H735 0.950 . S
C762 C748 1.377 . S
C762 C761 1.373 . S
C763 C747 1.377 . S
C763 C761 1.389 . S
C763 C764 1.524 . S
C764 C763 1.524 . S
C764 C765 1.397 . S
C764 C769 1.363 . S
C765 H736 0.950 . S
C765 C764 1.397 . S
C765 C766 1.334 . S
C766 H737 0.950 . S
C766 C765 1.334 . S
C766 C767 1.287 . S
C767 C766 1.287 . S
C767 C768 1.524 . S
C767 H770 0.999 . S
C768 H738 0.950 . S
C768 C767 1.524 . S
C768 C769 1.415 . S
C769 H739 0.950 . S
C769 C764 1.363 . S
C769 C768 1.415 . S
H770 C767 0.999 . S
H771 C752 0.913 . S
H772 C790 0.951 . S
H773 C792 0.951 . S
H774 C794 0.950 . S
H775 C795 0.950 . S
H776 C797 0.950 . S
H777 C800 0.950 . S
H778 C801 0.950 . S
H779 C803 0.950 . S
H780 C804 0.950 . S
H781 C805 0.951 . S
H782 C807 0.951 . S
H783 C809 0.950 . S
H784 C810 0.950 . S
H785 C812 0.950 . S
H786 C815 0.950 . S
H787 C816 0.950 . S
H788 C818 0.950 . S
H789 C819 0.950 . S
C790 H772 0.951 . S
C790 C791 1.366 . S
C790 C792 1.388 . S
C791 C790 1.366 . S
C791 C795 1.385 . S
C792 H773 0.951 . S
C792 C790 1.388 . S
C792 C793 1.366 . S
C793 C792 1.366 . S
C793 C794 1.414 . S
C793 C796 1.499 . S
C794 H774 0.950 . S
C794 C793 1.414 . S
C794 C795 1.374 . S
C795 H775 0.950 . S
C795 C791 1.385 . S
C795 C794 1.374 . S
C796 C793 1.499 . S
C796 C797 1.373 . S
C796 C798 1.389 . S
C797 H776 0.950 . S
C797 C796 1.373 . S
C797 C813 1.377 . S
C798 C796 1.389 . S
C798 C799 1.524 . S
C798 C812 1.377 . S
C799 C798 1.524 . S
C799 C800 1.397 . S
C799 C804 1.363 . S
C800 H777 0.950 . S
C800 C799 1.397 . S
C800 C801 1.334 . S
C801 H778 0.950 . S
C801 C800 1.334 . S
C801 C802 1.287 . S
C802 C801 1.287 . S
C802 C803 1.524 . S
C802 H821 0.913 . S
C803 H779 0.950 . S
C803 C802 1.524 . S
C803 C804 1.415 . S
C804 H780 0.950 . S
C804 C799 1.363 . S
C804 C803 1.415 . S
C805 H781 0.951 . S
C805 C806 1.366 . S
C805 C807 1.388 . S
C806 C805 1.366 . S
C806 C810 1.385 . S
C807 H782 0.951 . S
C807 C805 1.388 . S
C807 C808 1.366 . S
C808 C807 1.366 . S
C808 C809 1.414 . S
C808 C811 1.499 . S
C809 H783 0.950 . S
C809 C808 1.414 . S
C809 C810 1.374 . S
C810 H784 0.950 . S
C810 C806 1.385 . S
C810 C809 1.374 . S
C811 C808 1.499 . S
C811 C812 1.373 . S
C811 C813 1.389 . S
C812 H785 0.950 . S
C812 C798 1.377 . S
C812 C811 1.373 . S
C813 C797 1.377 . S
C813 C811 1.389 . S
C813 C814 1.524 . S
C814 C813 1.524 . S
C814 C815 1.397 . S
C814 C819 1.363 . S
C815 H786 0.950 . S
C815 C814 1.397 . S
C815 C816 1.334 . S
C816 H787 0.950 . S
C816 C815 1.334 . S
C816 C817 1.287 . S
C817 C816 1.287 . S
C817 C818 1.524 . S
C817 H820 0.999 . S
C818 H788 0.950 . S
C818 C817 1.524 . S
C818 C819 1.415 . S
C819 H789 0.950 . S
C819 C814 1.363 . S
C819 C818 1.415 . S
H820 C817 0.999 . S
H821 C802 0.913 . S
H822 C840 0.951 . S
H823 C842 0.951 . S
H824 C844 0.950 . S
H825 C845 0.950 . S
H826 C847 0.950 . S
H827 C850 0.950 . S
H828 C851 0.950 . S
H829 C853 0.950 . S
H830 C854 0.950 1_554 S
H831 C855 0.951 . S
H832 C857 0.951 . S
H833 C859 0.950 . S
H834 C860 0.950 . S
H835 C862 0.950 . S
H836 C865 0.950 . S
H837 C866 0.950 . S
H838 C868 0.950 . S
H839 C869 0.950 . S
C840 H822 0.951 . S
C840 C841 1.366 . S
C840 C842 1.388 . S
C841 C840 1.366 . S
C841 C845 1.385 . S
C842 H823 0.951 . S
C842 C840 1.388 . S
C842 C843 1.366 . S
C843 C842 1.366 . S
C843 C844 1.414 . S
C843 C846 1.499 . S
C844 H824 0.950 . S
C844 C843 1.414 . S
C844 C845 1.374 . S
C845 H825 0.950 . S
C845 C841 1.385 . S
C845 C844 1.374 . S
C846 C843 1.499 . S
C846 C847 1.373 . S
C846 C848 1.389 . S
C847 H826 0.950 . S
C847 C846 1.373 . S
C847 C863 1.377 . S
C848 C846 1.389 . S
C848 C849 1.524 . S
C848 C862 1.377 . S
C849 C848 1.524 . S
C849 C850 1.397 1_554 S
C849 C854 1.363 1_554 S
C850 H827 0.950 . S
C850 C849 1.397 1_556 S
C850 C851 1.334 . S
C851 H828 0.950 . S
C851 C850 1.334 . S
C851 C852 1.287 . S
C852 C851 1.287 . S
C852 C853 1.524 . S
C852 H871 0.913 . S
C853 H829 0.950 . S
C853 C852 1.524 . S
C853 C854 1.415 . S
C854 H830 0.950 1_556 S
C854 C849 1.363 1_556 S
C854 C853 1.415 . S
C855 H831 0.951 . S
C855 C856 1.366 . S
C855 C857 1.388 . S
C856 C855 1.366 . S
C856 C860 1.385 . S
C857 H832 0.951 . S
C857 C855 1.388 . S
C857 C858 1.366 . S
C858 C857 1.366 . S
C858 C859 1.414 . S
C858 C861 1.499 . S
C859 H833 0.950 . S
C859 C858 1.414 . S
C859 C860 1.374 . S
C860 H834 0.950 . S
C860 C856 1.385 . S
C860 C859 1.374 . S
C861 C858 1.499 . S
C861 C862 1.373 . S
C861 C863 1.389 . S
C862 H835 0.950 . S
C862 C848 1.377 . S
C862 C861 1.373 . S
C863 C847 1.377 . S
C863 C861 1.389 . S
C863 C864 1.524 . S
C864 C863 1.524 . S
C864 C865 1.397 . S
C864 C869 1.363 . S
C865 H836 0.950 . S
C865 C864 1.397 . S
C865 C866 1.334 . S
C866 H837 0.950 . S
C866 C865 1.334 . S
C866 C867 1.287 . S
C867 C866 1.287 . S
C867 C868 1.524 . S
C867 H870 0.999 . S
C868 H838 0.950 . S
C868 C867 1.524 . S
C868 C869 1.415 . S
C869 H839 0.950 . S
C869 C864 1.363 . S
C869 C868 1.415 . S
H870 C867 0.999 . S
H871 C852 0.913 . S
H872 C890 0.951 . S
H873 C892 0.951 . S
H874 C894 0.950 . S
H875 C895 0.950 . S
H876 C897 0.950 . S
H877 C900 0.950 . S
H878 C901 0.950 . S
H879 C903 0.950 . S
H880 C904 0.950 . S
H881 C905 0.951 . S
H882 C907 0.962 . S
H883 C909 0.950 . S
H884 C910 0.950 . S
H885 C912 0.950 . S
H886 C915 0.950 1_556 S
H887 C916 0.950 . S
H888 C918 0.950 . S
H889 C919 0.950 . S
C890 H872 0.951 . S
C890 C891 1.366 . S
C890 C892 1.388 . S
C891 C890 1.366 . S
C891 C895 1.385 . S
C892 H873 0.951 . S
C892 C890 1.388 . S
C892 C893 1.366 . S
C893 C892 1.366 . S
C893 C894 1.414 . S
C893 C896 1.499 . S
C894 H874 0.950 . S
C894 C893 1.414 . S
C894 C895 1.374 . S
C895 H875 0.950 . S
C895 C891 1.385 . S
C895 C894 1.374 . S
C896 C893 1.499 . S
C896 C897 1.373 . S
C896 C898 1.389 . S
C897 H876 0.950 . S
C897 C896 1.373 . S
C897 C913 1.377 . S
C898 C896 1.389 . S
C898 C899 1.524 . S
C898 C912 1.377 . S
C899 C898 1.524 . S
C899 C900 1.397 . S
C899 C904 1.363 . S
C900 H877 0.950 . S
C900 C899 1.397 . S
C900 C901 1.334 . S
C901 H878 0.950 . S
C901 C900 1.334 . S
C901 C902 1.287 . S
C902 C901 1.287 . S
C902 C903 1.524 . S
C902 H921 0.913 . S
C903 H879 0.950 . S
C903 C902 1.524 . S
C903 C904 1.415 . S
C904 H880 0.950 . S
C904 C899 1.363 . S
C904 C903 1.415 . S
C905 H881 0.951 . S
C905 C906 1.366 1_554 S
C905 C907 1.391 . S
C906 C905 1.366 1_556 S
C906 C910 1.385 . S
C907 H882 0.962 . S
C907 C905 1.391 . S
C907 C908 1.351 1_554 S
C908 C907 1.351 1_556 S
C908 C909 1.414 . S
C908 C911 1.499 . S
C909 H883 0.950 . S
C909 C908 1.414 . S
C909 C910 1.374 . S
C910 H884 0.950 . S
C910 C906 1.385 . S
C910 C909 1.374 . S
C911 C908 1.499 . S
C911 C912 1.373 . S
C911 C913 1.389 . S
C912 H885 0.950 . S
C912 C898 1.377 . S
C912 C911 1.373 . S
C913 C897 1.377 . S
C913 C911 1.389 . S
C913 C914 1.524 1_556 S
C914 C913 1.524 1_554 S
C914 C915 1.397 . S
C914 C919 1.363 . S
C915 H886 0.950 1_554 S
C915 C914 1.397 . S
C915 C916 1.334 . S
C916 H887 0.950 . S
C916 C915 1.334 . S
C916 C917 1.287 . S
C917 C916 1.287 . S
C917 C918 1.524 . S
C917 H920 0.999 . S
C918 H888 0.950 . S
C918 C917 1.524 . S
C918 C919 1.415 . S
C919 H889 0.950 . S
C919 C914 1.363 . S
C919 C918 1.415 . S
H920 C917 0.999 . S
H921 C902 0.913 . S
H922 C940 0.951 . S
H923 C942 0.951 . S
H924 C944 0.950 . S
H925 C945 0.950 . S
H926 C947 0.950 . S
H927 C950 0.950 . S
H928 C951 0.950 . S
H929 C953 0.950 . S
H930 C954 0.950 . S
H931 C955 0.951 . S
H932 C957 0.951 . S
H933 C959 0.950 . S
H934 C960 0.950 . S
H935 C962 0.950 . S
H936 C965 0.950 . S
H937 C966 0.950 . S
H938 C968 0.950 . S
H939 C969 0.950 . S
C940 H922 0.951 . S
C940 C941 1.366 . S
C940 C942 1.388 . S
C941 C940 1.366 . S
C941 C945 1.385 . S
C942 H923 0.951 . S
C942 C940 1.388 . S
C942 C943 1.366 . S
C943 C942 1.366 . S
C943 C944 1.414 . S
C943 C946 1.499 . S
C944 H924 0.950 . S
C944 C943 1.414 . S
C944 C945 1.374 . S
C945 H925 0.950 . S
C945 C941 1.385 . S
C945 C944 1.374 . S
C946 C943 1.499 . S
C946 C947 1.373 . S
C946 C948 1.389 . S
C947 H926 0.950 . S
C947 C946 1.373 . S
C947 C963 1.377 . S
C948 C946 1.389 . S
C948 C949 1.524 . S
C948 C962 1.377 . S
C949 C948 1.524 . S
C949 C950 1.397 . S
C949 C954 1.363 . S
C950 H927 0.950 . S
C950 C949 1.397 . S
C950 C951 1.334 . S
C951 H928 0.950 . S
C951 C950 1.334 . S
C951 C952 1.287 . S
C952 C951 1.287 . S
C952 C953 1.524 . S
C952 H971 0.913 . S
C953 H929 0.950 . S
C953 C952 1.524 . S
C953 C954 1.415 . S
C954 H930 0.950 . S
C954 C949 1.363 . S
C954 C953 1.415 . S
C955 H931 0.951 . S
C955 C956 1.366 . S
C955 C957 1.388 . S
C956 C955 1.366 . S
C956 C960 1.385 . S
C957 H932 0.951 . S
C957 C955 1.388 . S
C957 C958 1.366 . S
C958 C957 1.366 . S
C958 C959 1.414 . S
C958 C961 1.499 . S
C959 H933 0.950 . S
C959 C958 1.414 . S
C959 C960 1.374 . S
C960 H934 0.950 . S
C960 C956 1.385 . S
C960 C959 1.374 . S
C961 C958 1.499 . S
C961 C962 1.373 . S
C961 C963 1.389 . S
C962 H935 0.950 . S
C962 C948 1.377 . S
C962 C961 1.373 . S
C963 C947 1.377 . S
C963 C961 1.389 . S
C963 C964 1.524 . S
C964 C963 1.524 . S
C964 C965 1.397 . S
C964 C969 1.363 . S
C965 H936 0.950 . S
C965 C964 1.397 . S
C965 C966 1.334 . S
C966 H937 0.950 . S
C966 C965 1.334 . S
C966 C967 1.287 . S
C967 C966 1.287 . S
C967 C968 1.524 . S
C967 H970 0.999 . S
C968 H938 0.950 . S
C968 C967 1.524 . S
C968 C969 1.415 . S
C969 H939 0.950 . S
C969 C964 1.363 . S
C969 C968 1.415 . S
H970 C967 0.999 . S
H971 C952 0.913 . S
H972 C990 0.951 . S
H973 C992 0.951 . S
H974 C994 0.950 . S
H975 C995 0.950 . S
H976 C997 0.950 . S
H977 C1000 0.950 . S
H978 C1001 0.950 . S
H979 C1003 0.950 . S
H980 C1004 0.950 . S
H981 C1005 0.951 . S
H982 C1007 0.951 . S
H983 C1009 0.950 . S
H984 C1010 0.950 . S
H985 C1012 0.950 . S
H986 C1015 0.950 . S
H987 C1016 0.950 . S
H988 C1018 0.950 . S
H989 C1019 0.950 . S
C990 H972 0.951 . S
C990 C991 1.366 . S
C990 C992 1.388 . S
C991 C990 1.366 . S
C991 C995 1.385 . S
C992 H973 0.951 . S
C992 C990 1.388 . S
C992 C993 1.366 . S
C993 C992 1.366 . S
C993 C994 1.414 . S
C993 C996 1.499 . S
C994 H974 0.950 . S
C994 C993 1.414 . S
C994 C995 1.374 . S
C995 H975 0.950 . S
C995 C991 1.385 . S
C995 C994 1.374 . S
C996 C993 1.499 . S
C996 C997 1.373 . S
C996 C998 1.389 . S
C997 H976 0.950 . S
C997 C996 1.373 . S
C997 C1013 1.377 . S
C998 C996 1.389 . S
C998 C999 1.524 . S
C998 C1012 1.377 . S
C999 C998 1.524 . S
C999 C1000 1.397 . S
C999 C1004 1.363 . S
C1000 H977 0.950 . S
C1000 C999 1.397 . S
C1000 C1001 1.334 . S
C1001 H978 0.950 . S
C1001 C1000 1.334 . S
C1001 C1002 1.287 . S
C1002 C1001 1.287 . S
C1002 C1003 1.524 . S
C1002 H1021 0.949 . S
C1003 H979 0.950 . S
C1003 C1002 1.524 . S
C1003 C1004 1.415 . S
C1004 H980 0.950 . S
C1004 C999 1.363 . S
C1004 C1003 1.415 . S
C1005 H981 0.951 . S
C1005 C1006 1.366 . S
C1005 C1007 1.388 . S
C1006 C1005 1.366 . S
C1006 C1010 1.385 . S
C1007 H982 0.951 . S
C1007 C1005 1.388 . S
C1007 C1008 1.366 . S
C1008 C1007 1.366 . S
C1008 C1009 1.414 . S
C1008 C1011 1.499 . S
C1009 H983 0.950 . S
C1009 C1008 1.414 . S
C1009 C1010 1.374 . S
C1010 H984 0.950 . S
C1010 C1006 1.385 . S
C1010 C1009 1.374 . S
C1011 C1008 1.499 . S
C1011 C1012 1.373 . S
C1011 C1013 1.389 . S
C1012 H985 0.950 . S
C1012 C998 1.377 . S
C1012 C1011 1.373 . S
C1013 C997 1.377 . S
C1013 C1011 1.389 . S
C1013 C1014 1.524 . S
C1014 C1013 1.524 . S
C1014 C1015 1.397 . S
C1014 C1019 1.363 . S
C1015 H986 0.950 . S
C1015 C1014 1.397 . S
C1015 C1016 1.334 . S
C1016 H987 0.950 . S
C1016 C1015 1.334 . S
C1016 C1017 1.287 . S
C1017 C1016 1.287 . S
C1017 C1018 1.524 . S
C1017 H1020 0.999 . S
C1018 H988 0.950 . S
C1018 C1017 1.524 . S
C1018 C1019 1.415 . S
C1019 H989 0.950 . S
C1019 C1014 1.363 . S
C1019 C1018 1.415 . S
H1020 C1017 0.999 . S
H1021 C1002 0.949 . S
H1022 C1040 0.951 . S
H1023 C1042 0.951 . S
H1024 C1044 0.950 . S
H1025 C1045 0.950 . S
H1026 C1047 0.950 . S
H1027 C1050 0.950 . S
H1028 C1051 0.950 . S
H1029 C1053 0.950 . S
H1030 C1054 0.950 . S
H1031 C1055 0.951 . S
H1032 C1057 0.951 . S
H1033 C1059 0.950 . S
H1034 C1060 0.950 . S
H1035 C1062 0.950 . S
H1036 C1065 0.950 . S
H1037 C1066 0.950 . S
H1038 C1068 0.950 . S
H1039 C1069 0.950 . S
C1040 H1022 0.951 . S
C1040 C1041 1.366 . S
C1040 C1042 1.388 . S
C1041 C1040 1.366 . S
C1041 C1045 1.385 . S
C1042 H1023 0.951 . S
C1042 C1040 1.388 . S
C1042 C1043 1.366 . S
C1043 C1042 1.366 . S
C1043 C1044 1.414 . S
C1043 C1046 1.499 . S
C1044 H1024 0.950 . S
C1044 C1043 1.414 . S
C1044 C1045 1.374 . S
C1045 H1025 0.950 . S
C1045 C1041 1.385 . S
C1045 C1044 1.374 . S
C1046 C1043 1.499 . S
C1046 C1047 1.373 . S
C1046 C1048 1.389 . S
C1047 H1026 0.950 . S
C1047 C1046 1.373 . S
C1047 C1063 1.377 . S
C1048 C1046 1.389 . S
C1048 C1049 1.524 . S
C1048 C1062 1.377 . S
C1049 C1048 1.524 . S
C1049 C1050 1.397 . S
C1049 C1054 1.363 . S
C1050 H1027 0.950 . S
C1050 C1049 1.397 . S
C1050 C1051 1.334 . S
C1051 H1028 0.950 . S
C1051 C1050 1.334 . S
C1051 C1052 1.287 . S
C1052 C1051 1.287 . S
C1052 C1053 1.524 . S
C1052 H1071 0.913 . S
C1053 H1029 0.950 . S
C1053 C1052 1.524 . S
C1053 C1054 1.415 . S
C1054 H1030 0.950 . S
C1054 C1049 1.363 . S
C1054 C1053 1.415 . S
C1055 H1031 0.951 . S
C1055 C1056 1.366 . S
C1055 C1057 1.388 . S
C1056 C1055 1.366 . S
C1056 C1060 1.385 . S
C1057 H1032 0.951 . S
C1057 C1055 1.388 . S
C1057 C1058 1.366 . S
C1058 C1057 1.366 . S
C1058 C1059 1.414 . S
C1058 C1061 1.499 . S
C1059 H1033 0.950 . S
C1059 C1058 1.414 . S
C1059 C1060 1.374 . S
C1060 H1034 0.950 . S
C1060 C1056 1.385 . S
C1060 C1059 1.374 . S
C1061 C1058 1.499 . S
C1061 C1062 1.373 . S
C1061 C1063 1.389 . S
C1062 H1035 0.950 . S
C1062 C1048 1.377 . S
C1062 C1061 1.373 . S
C1063 C1047 1.377 . S
C1063 C1061 1.389 . S
C1063 C1064 1.524 . S
C1064 C1063 1.524 . S
C1064 C1065 1.397 . S
C1064 C1069 1.363 . S
C1065 H1036 0.950 . S
C1065 C1064 1.397 . S
C1065 C1066 1.334 . S
C1066 H1037 0.950 . S
C1066 C1065 1.334 . S
C1066 C1067 1.287 . S
C1067 C1066 1.287 . S
C1067 C1068 1.524 . S
C1067 H1070 0.999 . S
C1068 H1038 0.950 . S
C1068 C1067 1.524 . S
C1068 C1069 1.415 . S
C1069 H1039 0.950 . S
C1069 C1064 1.363 . S
C1069 C1068 1.415 . S
H1070 C1067 0.999 . S
H1071 C1052 0.913 . S
H1072 C1090 0.951 . S
H1073 C1092 0.951 . S
H1074 C1094 0.950 . S
H1075 C1095 0.950 . S
H1076 C1097 0.950 . S
H1077 C1100 0.950 . S
H1078 C1101 0.950 . S
H1079 C1103 0.950 . S
H1080 C1104 0.950 . S
H1081 C1105 0.951 . S
H1082 C1107 0.951 . S
H1083 C1109 0.950 . S
H1084 C1110 0.950 . S
H1085 C1112 0.950 . S
H1086 C1115 0.950 . S
H1087 C1116 0.950 . S
H1088 C1118 0.950 . S
H1089 C1119 0.950 . S
C1090 H1072 0.951 . S
C1090 C1091 1.366 . S
C1090 C1092 1.388 . S
C1091 C1090 1.366 . S
C1091 C1095 1.385 . S
C1092 H1073 0.951 . S
C1092 C1090 1.388 . S
C1092 C1093 1.366 . S
C1093 C1092 1.366 . S
C1093 C1094 1.414 . S
C1093 C1096 1.499 . S
C1094 H1074 0.950 . S
C1094 C1093 1.414 . S
C1094 C1095 1.374 . S
C1095 H1075 0.950 . S
C1095 C1091 1.385 . S
C1095 C1094 1.374 . S
C1096 C1093 1.499 . S
C1096 C1097 1.373 . S
C1096 C1098 1.389 . S
C1097 H1076 0.950 . S
C1097 C1096 1.373 . S
C1097 C1113 1.377 . S
C1098 C1096 1.389 . S
C1098 C1099 1.524 . S
C1098 C1112 1.377 . S
C1099 C1098 1.524 . S
C1099 C1100 1.397 . S
C1099 C1104 1.363 . S
C1100 H1077 0.950 . S
C1100 C1099 1.397 . S
C1100 C1101 1.334 . S
C1101 H1078 0.950 . S
C1101 C1100 1.334 . S
C1101 C1102 1.287 . S
C1102 C1101 1.287 . S
C1102 C1103 1.524 . S
C1102 H1121 0.913 . S
C1103 H1079 0.950 . S
C1103 C1102 1.524 . S
C1103 C1104 1.415 . S
C1104 H1080 0.950 . S
C1104 C1099 1.363 . S
C1104 C1103 1.415 . S
C1105 H1081 0.951 . S
C1105 C1106 1.366 . S
C1105 C1107 1.388 . S
C1106 C1105 1.366 . S
C1106 C1110 1.385 . S
C1107 H1082 0.951 . S
C1107 C1105 1.388 . S
C1107 C1108 1.366 . S
C1108 C1107 1.366 . S
C1108 C1109 1.414 . S
C1108 C1111 1.499 . S
C1109 H1083 0.950 . S
C1109 C1108 1.414 . S
C1109 C1110 1.374 . S
C1110 H1084 0.950 . S
C1110 C1106 1.385 . S
C1110 C1109 1.374 . S
C1111 C1108 1.499 . S
C1111 C1112 1.373 . S
C1111 C1113 1.389 . S
C1112 H1085 0.950 . S
C1112 C1098 1.377 . S
C1112 C1111 1.373 . S
C1113 C1097 1.377 . S
C1113 C1111 1.389 . S
C1113 C1114 1.524 . S
C1114 C1113 1.524 . S
C1114 C1115 1.397 . S
C1114 C1119 1.363 . S
C1115 H1086 0.950 . S
C1115 C1114 1.397 . S
C1115 C1116 1.334 . S
C1116 H1087 0.950 . S
C1116 C1115 1.334 . S
C1116 C1117 1.287 . S
C1117 C1116 1.287 . S
C1117 C1118 1.524 . S
C1117 H1120 0.999 . S
C1118 H1088 0.950 . S
C1118 C1117 1.524 . S
C1118 C1119 1.415 . S
C1119 H1089 0.950 . S
C1119 C1114 1.363 . S
C1119 C1118 1.415 . S
H1120 C1117 0.999 . S
H1121 C1102 0.913 . S
H1122 C1140 0.951 . S
H1123 C1142 0.951 . S
H1124 C1144 0.950 . S
H1125 C1145 0.950 . S
H1126 C1147 0.950 . S
H1127 C1150 0.950 . S
H1128 C1151 0.950 . S
H1129 C1153 0.950 . S
H1130 C1154 0.950 . S
H1131 C1155 0.951 . S
H1132 C1157 0.951 . S
H1133 C1159 0.950 1_556 S
H1134 C1160 0.950 1_556 S
H1135 C1162 0.950 . S
H1136 C1165 0.997 . S
H1137 C1166 0.950 1_556 S
H1138 C1168 0.950 . S
H1139 C1169 0.950 . S
C1140 H1122 0.951 . S
C1140 C1141 1.366 . S
C1140 C1142 1.388 . S
C1141 C1140 1.366 . S
C1141 C1145 1.385 . S
C1142 H1123 0.951 . S
C1142 C1140 1.388 . S
C1142 C1143 1.366 . S
C1143 C1142 1.366 . S
C1143 C1144 1.414 . S
C1143 C1146 1.499 . S
C1144 H1124 0.950 . S
C1144 C1143 1.414 . S
C1144 C1145 1.374 . S
C1145 H1125 0.950 . S
C1145 C1141 1.385 . S
C1145 C1144 1.374 . S
C1146 C1143 1.499 . S
C1146 C1147 1.373 . S
C1146 C1148 1.389 . S
C1147 H1126 0.950 . S
C1147 C1146 1.373 . S
C1147 C1163 1.377 . S
C1148 C1146 1.389 . S
C1148 C1149 1.524 . S
C1148 C1162 1.377 . S
C1149 C1148 1.524 . S
C1149 C1150 1.397 . S
C1149 C1154 1.363 . S
C1150 H1127 0.950 . S
C1150 C1149 1.397 . S
C1150 C1151 1.334 . S
C1151 H1128 0.950 . S
C1151 C1150 1.334 . S
C1151 C1152 1.287 . S
C1152 C1151 1.287 . S
C1152 C1153 1.524 . S
C1152 H1171 0.913 . S
C1153 H1129 0.950 . S
C1153 C1152 1.524 . S
C1153 C1154 1.415 . S
C1154 H1130 0.950 . S
C1154 C1149 1.363 . S
C1154 C1153 1.415 . S
C1155 H1131 0.951 . S
C1155 C1156 1.366 . S
C1155 C1157 1.388 . S
C1156 C1155 1.366 . S
C1156 C1160 1.385 . S
C1157 H1132 0.951 . S
C1157 C1155 1.388 . S
C1157 C1158 1.366 . S
C1158 C1157 1.366 . S
C1158 C1159 1.414 . S
C1158 C1161 1.499 . S
C1159 H1133 0.950 1_554 S
C1159 C1158 1.414 . S
C1159 C1160 1.374 . S
C1160 H1134 0.950 1_554 S
C1160 C1156 1.385 . S
C1160 C1159 1.374 . S
C1161 C1158 1.499 . S
C1161 C1162 1.373 . S
C1161 C1163 1.389 . S
C1162 H1135 0.950 . S
C1162 C1148 1.377 . S
C1162 C1161 1.373 . S
C1163 C1147 1.377 . S
C1163 C1161 1.389 . S
C1163 C1164 1.524 . S
C1164 C1163 1.524 . S
C1164 C1165 1.397 . S
C1164 C1169 1.363 . S
C1165 H1136 0.997 . S
C1165 C1164 1.397 . S
C1165 C1166 1.334 . S
C1166 H1137 0.950 1_554 S
C1166 C1165 1.334 . S
C1166 C1167 1.287 . S
C1167 C1166 1.287 . S
C1167 C1168 1.524 . S
C1167 H1170 0.999 . S
C1168 H1138 0.950 . S
C1168 C1167 1.524 . S
C1168 C1169 1.415 . S
C1169 H1139 0.950 . S
C1169 C1164 1.363 . S
C1169 C1168 1.415 . S
H1170 C1167 0.999 . S
H1171 C1152 0.913 . S
H1172 C1190 0.951 . S
H1173 C1192 0.951 . S
H1174 C1194 0.950 . S
H1175 C1195 0.950 . S
H1176 C1197 0.950 . S
H1177 C1200 0.950 . S
H1178 C1201 0.950 . S
H1179 C1203 0.950 . S
H1180 C1204 0.950 . S
H1181 C1205 0.951 . S
H1182 C1207 0.951 . S
H1183 C1209 0.950 . S
H1184 C1210 0.950 . S
H1185 C1212 0.950 . S
H1186 C1215 0.950 . S
H1187 C1216 0.950 . S
H1188 C1218 0.950 . S
H1189 C1219 0.950 . S
C1190 H1172 0.951 . S
C1190 C1191 1.366 . S
C1190 C1192 1.388 . S
C1191 C1190 1.366 . S
C1191 C1195 1.385 . S
C1192 H1173 0.951 . S
C1192 C1190 1.388 . S
C1192 C1193 1.366 . S
C1193 C1192 1.366 . S
C1193 C1194 1.414 . S
C1193 C1196 1.499 . S
C1194 H1174 0.950 . S
C1194 C1193 1.414 . S
C1194 C1195 1.374 . S
C1195 H1175 0.950 . S
C1195 C1191 1.385 . S
C1195 C1194 1.374 . S
C1196 C1193 1.499 . S
C1196 C1197 1.373 . S
C1196 C1198 1.389 . S
C1197 H1176 0.950 . S
C1197 C1196 1.373 . S
C1197 C1213 1.377 . S
C1198 C1196 1.389 . S
C1198 C1199 1.524 . S
C1198 C1212 1.377 . S
C1199 C1198 1.524 . S
C1199 C1200 1.397 . S
C1199 C1204 1.363 . S
C1200 H1177 0.950 . S
C1200 C1199 1.397 . S
C1200 C1201 1.334 . S
C1201 H1178 0.950 . S
C1201 C1200 1.334 . S
C1201 C1202 1.287 . S
C1202 C1201 1.287 . S
C1202 C1203 1.524 . S
C1202 H1221 0.913 . S
C1203 H1179 0.950 . S
C1203 C1202 1.524 . S
C1203 C1204 1.415 . S
C1204 H1180 0.950 . S
C1204 C1199 1.363 . S
C1204 C1203 1.415 . S
C1205 H1181 0.951 . S
C1205 C1206 1.366 . S
C1205 C1207 1.388 . S
C1206 C1205 1.366 . S
C1206 C1210 1.385 . S
C1207 H1182 0.951 . S
C1207 C1205 1.388 . S
C1207 C1208 1.366 . S
C1208 C1207 1.366 . S
C1208 C1209 1.414 . S
C1208 C1211 1.499 . S
C1209 H1183 0.950 . S
C1209 C1208 1.414 . S
C1209 C1210 1.374 . S
C1210 H1184 0.950 . S
C1210 C1206 1.385 . S
C1210 C1209 1.374 . S
C1211 C1208 1.499 . S
C1211 C1212 1.373 . S
C1211 C1213 1.389 . S
C1212 H1185 0.950 . S
C1212 C1198 1.377 . S
C1212 C1211 1.373 . S
C1213 C1197 1.377 . S
C1213 C1211 1.389 . S
C1213 C1214 1.524 . S
C1214 C1213 1.524 . S
C1214 C1215 1.397 . S
C1214 C1219 1.363 . S
C1215 H1186 0.950 . S
C1215 C1214 1.397 . S
C1215 C1216 1.334 . S
C1216 H1187 0.950 . S
C1216 C1215 1.334 . S
C1216 C1217 1.287 . S
C1217 C1216 1.287 . S
C1217 C1218 1.524 . S
C1217 H1220 0.999 . S
C1218 H1188 0.950 . S
C1218 C1217 1.524 . S
C1218 C1219 1.415 . S
C1219 H1189 0.950 . S
C1219 C1214 1.363 . S
C1219 C1218 1.415 . S
H1220 C1217 0.999 . S
H1221 C1202 0.913 . S
H1222 C1240 0.951 . S
H1223 C1242 0.951 . S
H1224 C1244 0.950 . S
H1225 C1245 0.950 . S
H1226 C1247 0.950 . S
H1227 C1250 0.950 . S
H1228 C1251 0.950 . S
H1229 C1253 0.950 . S
H1230 C1254 0.950 . S
H1231 C1255 0.951 . S
H1232 C1257 0.951 . S
H1233 C1259 0.950 . S
H1234 C1260 0.950 . S
H1235 C1262 0.950 . S
H1236 C1265 0.950 . S
H1237 C1266 0.950 . S
H1238 C1268 0.950 . S
H1239 C1269 0.950 . S
C1240 H1222 0.951 . S
C1240 C1241 1.366 . S
C1240 C1242 1.388 . S
C1241 C1240 1.366 . S
C1241 C1245 1.385 . S
C1242 H1223 0.951 . S
C1242 C1240 1.388 . S
C1242 C1243 1.366 . S
C1243 C1242 1.366 . S
C1243 C1244 1.414 . S
C1243 C1246 1.499 . S
C1244 H1224 0.950 . S
C1244 C1243 1.414 . S
C1244 C1245 1.374 . S
C1245 H1225 0.950 . S
C1245 C1241 1.385 . S
C1245 C1244 1.374 . S
C1246 C1243 1.499 . S
C1246 C1247 1.373 . S
C1246 C1248 1.389 . S
C1247 H1226 0.950 . S
C1247 C1246 1.373 . S
C1247 C1263 1.377 . S
C1248 C1246 1.389 . S
C1248 C1249 1.524 . S
C1248 C1262 1.377 . S
C1249 C1248 1.524 . S
C1249 C1250 1.397 . S
C1249 C1254 1.363 . S
C1250 H1227 0.950 . S
C1250 C1249 1.397 . S
C1250 C1251 1.334 . S
C1251 H1228 0.950 . S
C1251 C1250 1.334 . S
C1251 C1252 1.287 . S
C1252 C1251 1.287 . S
C1252 C1253 1.524 . S
C1252 H1271 0.913 . S
C1253 H1229 0.950 . S
C1253 C1252 1.524 . S
C1253 C1254 1.415 . S
C1254 H1230 0.950 . S
C1254 C1249 1.363 . S
C1254 C1253 1.415 . S
C1255 H1231 0.951 . S
C1255 C1256 1.366 . S
C1255 C1257 1.388 . S
C1256 C1255 1.366 . S
C1256 C1260 1.385 . S
C1257 H1232 0.951 . S
C1257 C1255 1.388 . S
C1257 C1258 1.366 . S
C1258 C1257 1.366 . S
C1258 C1259 1.414 . S
C1258 C1261 1.499 . S
C1259 H1233 0.950 . S
C1259 C1258 1.414 . S
C1259 C1260 1.374 . S
C1260 H1234 0.950 . S
C1260 C1256 1.385 . S
C1260 C1259 1.374 . S
C1261 C1258 1.499 . S
C1261 C1262 1.373 . S
C1261 C1263 1.389 . S
C1262 H1235 0.950 . S
C1262 C1248 1.377 . S
C1262 C1261 1.373 . S
C1263 C1247 1.377 . S
C1263 C1261 1.389 . S
C1263 C1264 1.524 . S
C1264 C1263 1.524 . S
C1264 C1265 1.397 . S
C1264 C1269 1.363 . S
C1265 H1236 0.950 . S
C1265 C1264 1.397 . S
C1265 C1266 1.334 . S
C1266 H1237 0.950 . S
C1266 C1265 1.334 . S
C1266 C1267 1.287 . S
C1267 C1266 1.287 . S
C1267 C1268 1.524 . S
C1267 H1270 0.999 . S
C1268 H1238 0.950 . S
C1268 C1267 1.524 . S
C1268 C1269 1.415 . S
C1269 H1239 0.950 . S
C1269 C1264 1.363 . S
C1269 C1268 1.415 . S
H1270 C1267 0.999 . S
H1271 C1252 0.913 . S
H1272 C1290 0.951 . S
H1273 C1292 0.951 . S
H1274 C1294 0.950 . S
H1275 C1295 0.950 . S
H1276 C1297 0.950 . S
H1277 C1300 0.950 . S
H1278 C1301 0.950 . S
H1279 C1303 0.950 . S
H1280 C1304 0.950 . S
H1281 C1305 0.951 . S
H1282 C1307 0.951 . S
H1283 C1309 0.950 . S
H1284 C1310 0.950 . S
H1285 C1312 0.950 . S
H1286 C1315 0.950 . S
H1287 C1316 0.950 . S
H1288 C1318 0.950 . S
H1289 C1319 0.950 . S
C1290 H1272 0.951 . S
C1290 C1291 1.366 . S
C1290 C1292 1.388 . S
C1291 C1290 1.366 . S
C1291 C1295 1.385 . S
C1292 H1273 0.951 . S
C1292 C1290 1.388 . S
C1292 C1293 1.366 . S
C1293 C1292 1.366 . S
C1293 C1294 1.414 . S
C1293 C1296 1.499 . S
C1294 H1274 0.950 . S
C1294 C1293 1.414 . S
C1294 C1295 1.374 . S
C1295 H1275 0.950 . S
C1295 C1291 1.385 . S
C1295 C1294 1.374 . S
C1296 C1293 1.499 . S
C1296 C1297 1.373 . S
C1296 C1298 1.389 . S
C1297 H1276 0.950 . S
C1297 C1296 1.373 . S
C1297 C1313 1.377 . S
C1298 C1296 1.389 . S
C1298 C1299 1.524 . S
C1298 C1312 1.377 . S
C1299 C1298 1.524 . S
C1299 C1300 1.397 . S
C1299 C1304 1.363 . S
C1300 H1277 0.950 . S
C1300 C1299 1.397 . S
C1300 C1301 1.334 . S
C1301 H1278 0.950 . S
C1301 C1300 1.334 . S
C1301 C1302 1.287 . S
C1302 C1301 1.287 . S
C1302 C1303 1.524 . S
C1302 H1321 0.913 . S
C1303 H1279 0.950 . S
C1303 C1302 1.524 . S
C1303 C1304 1.415 . S
C1304 H1280 0.950 . S
C1304 C1299 1.363 . S
C1304 C1303 1.415 . S
C1305 H1281 0.951 . S
C1305 C1306 1.366 . S
C1305 C1307 1.388 . S
C1306 C1305 1.366 . S
C1306 C1310 1.385 . S
C1307 H1282 0.951 . S
C1307 C1305 1.388 . S
C1307 C1308 1.366 . S
C1308 C1307 1.366 . S
C1308 C1309 1.414 . S
C1308 C1311 1.499 . S
C1309 H1283 0.950 . S
C1309 C1308 1.414 . S
C1309 C1310 1.374 . S
C1310 H1284 0.950 . S
C1310 C1306 1.385 . S
C1310 C1309 1.374 . S
C1311 C1308 1.499 . S
C1311 C1312 1.373 . S
C1311 C1313 1.389 . S
C1312 H1285 0.950 . S
C1312 C1298 1.377 . S
C1312 C1311 1.373 . S
C1313 C1297 1.377 . S
C1313 C1311 1.389 . S
C1313 C1314 1.524 . S
C1314 C1313 1.524 . S
C1314 C1315 1.397 . S
C1314 C1319 1.363 . S
C1315 H1286 0.950 . S
C1315 C1314 1.397 . S
C1315 C1316 1.334 . S
C1316 H1287 0.950 . S
C1316 C1315 1.334 . S
C1316 C1317 1.287 . S
C1317 C1316 1.287 . S
C1317 C1318 1.524 . S
C1317 H1320 0.999 . S
C1318 H1288 0.950 . S
C1318 C1317 1.524 . S
C1318 C1319 1.415 . S
C1319 H1289 0.950 . S
C1319 C1314 1.363 . S
C1319 C1318 1.415 . S
H1320 C1317 0.999 . S
H1321 C1302 0.913 . S
H1322 C1340 0.951 . S
H1323 C1342 0.951 . S
H1324 C1344 0.950 . S
H1325 C1345 0.950 . S
H1326 C1347 0.950 . S
H1327 C1350 0.950 . S
H1328 C1351 0.950 . S
H1329 C1353 0.950 . S
H1330 C1354 0.950 . S
H1331 C1355 0.951 . S
H1332 C1357 0.951 . S
H1333 C1359 0.950 . S
H1334 C1360 0.950 . S
H1335 C1362 0.950 . S
H1336 C1365 0.950 . S
H1337 C1366 0.950 . S
H1338 C1368 0.950 . S
H1339 C1369 0.950 . S
C1340 H1322 0.951 . S
C1340 C1341 1.366 . S
C1340 C1342 1.388 . S
C1341 C1340 1.366 . S
C1341 C1345 1.385 . S
C1342 H1323 0.951 . S
C1342 C1340 1.388 . S
C1342 C1343 1.366 . S
C1343 C1342 1.366 . S
C1343 C1344 1.414 . S
C1343 C1346 1.499 . S
C1344 H1324 0.950 . S
C1344 C1343 1.414 . S
C1344 C1345 1.374 . S
C1345 H1325 0.950 . S
C1345 C1341 1.385 . S
C1345 C1344 1.374 . S
C1346 C1343 1.499 . S
C1346 C1347 1.373 . S
C1346 C1348 1.389 . S
C1347 H1326 0.950 . S
C1347 C1346 1.373 . S
C1347 C1363 1.377 . S
C1348 C1346 1.389 . S
C1348 C1349 1.524 . S
C1348 C1362 1.377 . S
C1349 C1348 1.524 . S
C1349 C1350 1.397 . S
C1349 C1354 1.363 . S
C1350 H1327 0.950 . S
C1350 C1349 1.397 . S
C1350 C1351 1.334 . S
C1351 H1328 0.950 . S
C1351 C1350 1.334 . S
C1351 C1352 1.287 . S
C1352 C1351 1.287 . S
C1352 C1353 1.524 . S
C1352 H1371 0.913 . S
C1353 H1329 0.950 . S
C1353 C1352 1.524 . S
C1353 C1354 1.415 . S
C1354 H1330 0.950 . S
C1354 C1349 1.363 . S
C1354 C1353 1.415 . S
C1355 H1331 0.951 . S
C1355 C1356 1.366 . S
C1355 C1357 1.388 . S
C1356 C1355 1.366 . S
C1356 C1360 1.385 . S
C1357 H1332 0.951 . S
C1357 C1355 1.388 . S
C1357 C1358 1.366 . S
C1358 C1357 1.366 . S
C1358 C1359 1.414 . S
C1358 C1361 1.499 . S
C1359 H1333 0.950 . S
C1359 C1358 1.414 . S
C1359 C1360 1.374 . S
C1360 H1334 0.950 . S
C1360 C1356 1.385 . S
C1360 C1359 1.374 . S
C1361 C1358 1.499 . S
C1361 C1362 1.373 . S
C1361 C1363 1.389 . S
C1362 H1335 0.950 . S
C1362 C1348 1.377 . S
C1362 C1361 1.373 . S
C1363 C1347 1.377 . S
C1363 C1361 1.389 . S
C1363 C1364 1.524 . S
C1364 C1363 1.524 . S
C1364 C1365 1.397 . S
C1364 C1369 1.363 . S
C1365 H1336 0.950 . S
C1365 C1364 1.397 . S
C1365 C1366 1.334 . S
C1366 H1337 0.950 . S
C1366 C1365 1.334 . S
C1366 C1367 1.287 . S
C1367 C1366 1.287 . S
C1367 C1368 1.524 . S
C1367 H1370 0.999 . S
C1368 H1338 0.950 . S
C1368 C1367 1.524 . S
C1368 C1369 1.415 . S
C1369 H1339 0.950 . S
C1369 C1364 1.363 . S
C1369 C1368 1.415 . S
H1370 C1367 0.999 . S
H1371 C1352 0.913 . S
H1372 C1390 0.951 . S
H1373 C1392 0.951 . S
H1374 C1394 0.950 . S
H1375 C1395 0.950 . S
H1376 C1397 0.950 . S
H1377 C1400 0.950 . S
H1378 C1401 0.950 . S
H1379 C1403 0.950 . S
H1380 C1404 0.950 . S
H1381 C1405 0.951 . S
H1382 C1407 0.951 . S
H1383 C1409 0.950 . S
H1384 C1410 0.950 . S
H1385 C1412 0.950 . S
H1386 C1415 0.950 1_556 S
H1387 C1416 0.950 . S
H1388 C1418 0.950 . S
H1389 C1419 0.950 . S
C1390 H1372 0.951 . S
C1390 C1391 1.366 . S
C1390 C1392 1.388 . S
C1391 C1390 1.366 . S
C1391 C1395 1.385 . S
C1392 H1373 0.951 . S
C1392 C1390 1.388 . S
C1392 C1393 1.366 . S
C1393 C1392 1.366 . S
C1393 C1394 1.414 . S
C1393 C1396 1.499 . S
C1394 H1374 0.950 . S
C1394 C1393 1.414 . S
C1394 C1395 1.374 . S
C1395 H1375 0.950 . S
C1395 C1391 1.385 . S
C1395 C1394 1.374 . S
C1396 C1393 1.499 . S
C1396 C1397 1.373 . S
C1396 C1398 1.389 . S
C1397 H1376 0.950 . S
C1397 C1396 1.373 . S
C1397 C1413 1.377 . S
C1398 C1396 1.389 . S
C1398 C1399 1.524 . S
C1398 C1412 1.377 . S
C1399 C1398 1.524 . S
C1399 C1400 1.397 . S
C1399 C1404 1.363 . S
C1400 H1377 0.950 . S
C1400 C1399 1.397 . S
C1400 C1401 1.334 . S
C1401 H1378 0.950 . S
C1401 C1400 1.334 . S
C1401 C1402 1.287 . S
C1402 C1401 1.287 . S
C1402 C1403 1.524 . S
C1402 H1421 0.913 . S
C1403 H1379 0.950 . S
C1403 C1402 1.524 . S
C1403 C1404 1.415 . S
C1404 H1380 0.950 . S
C1404 C1399 1.363 . S
C1404 C1403 1.415 . S
C1405 H1381 0.951 . S
C1405 C1406 1.366 1_554 S
C1405 C1407 1.388 . S
C1406 C1405 1.366 1_556 S
C1406 C1410 1.385 . S
C1407 H1382 0.951 . S
C1407 C1405 1.388 . S
C1407 C1408 1.366 1_554 S
C1408 C1407 1.366 1_556 S
C1408 C1409 1.414 . S
C1408 C1411 1.499 . S
C1409 H1383 0.950 . S
C1409 C1408 1.414 . S
C1409 C1410 1.374 . S
C1410 H1384 0.950 . S
C1410 C1406 1.385 . S
C1410 C1409 1.374 . S
C1411 C1408 1.499 . S
C1411 C1412 1.373 . S
C1411 C1413 1.389 . S
C1412 H1385 0.950 . S
C1412 C1398 1.377 . S
C1412 C1411 1.373 . S
C1413 C1397 1.377 . S
C1413 C1411 1.389 . S
C1413 C1414 1.524 1_556 S
C1414 C1413 1.524 1_554 S
C1414 C1415 1.397 . S
C1414 C1419 1.363 . S
C1415 H1386 0.950 1_554 S
C1415 C1414 1.397 . S
C1415 C1416 1.334 . S
C1416 H1387 0.950 . S
C1416 C1415 1.334 . S
C1416 C1417 1.287 . S
C1417 C1416 1.287 . S
C1417 C1418 1.524 . S
C1417 H1420 0.999 . S
C1418 H1388 0.950 . S
C1418 C1417 1.524 . S
C1418 C1419 1.415 . S
C1419 H1389 0.950 . S
C1419 C1414 1.363 . S
C1419 C1418 1.415 . S
H1420 C1417 0.999 . S
H1421 C1402 0.913 . S
H1422 C1440 0.951 . S
H1423 C1442 0.951 . S
H1424 C1444 0.950 . S
H1425 C1445 0.950 . S
H1426 C1447 0.950 . S
H1427 C1450 0.950 . S
H1428 C1451 0.950 . S
H1429 C1453 0.950 . S
H1430 C1454 0.950 . S
H1431 C1455 0.951 . S
H1432 C1457 0.951 . S
H1433 C1459 0.950 . S
H1434 C1460 0.950 . S
H1435 C1462 0.950 . S
H1436 C1465 0.950 . S
H1437 C1466 0.950 . S
H1438 C1468 0.950 . S
H1439 C1469 0.950 . S
C1440 H1422 0.951 . S
C1440 C1441 1.366 . S
C1440 C1442 1.388 . S
C1441 C1440 1.366 . S
C1441 C1445 1.385 . S
C1442 H1423 0.951 . S
C1442 C1440 1.388 . S
C1442 C1443 1.366 . S
C1443 C1442 1.366 . S
C1443 C1444 1.414 . S
C1443 C1446 1.499 . S
C1444 H1424 0.950 . S
C1444 C1443 1.414 . S
C1444 C1445 1.374 . S
C1445 H1425 0.950 . S
C1445 C1441 1.385 . S
C1445 C1444 1.374 . S
C1446 C1443 1.499 . S
C1446 C1447 1.373 . S
C1446 C1448 1.389 . S
C1447 H1426 0.950 . S
C1447 C1446 1.373 . S
C1447 C1463 1.377 . S
C1448 C1446 1.389 . S
C1448 C1449 1.524 . S
C1448 C1462 1.377 . S
C1449 C1448 1.524 . S
C1449 C1450 1.397 . S
C1449 C1454 1.363 . S
C1450 H1427 0.950 . S
C1450 C1449 1.397 . S
C1450 C1451 1.334 . S
C1451 H1428 0.950 . S
C1451 C1450 1.334 . S
C1451 C1452 1.287 . S
C1452 C1451 1.287 . S
C1452 C1453 1.524 . S
C1452 H1471 0.913 . S
C1453 H1429 0.950 . S
C1453 C1452 1.524 . S
C1453 C1454 1.415 . S
C1454 H1430 0.950 . S
C1454 C1449 1.363 . S
C1454 C1453 1.415 . S
C1455 H1431 0.951 . S
C1455 C1456 1.366 . S
C1455 C1457 1.388 . S
C1456 C1455 1.366 . S
C1456 C1460 1.385 . S
C1457 H1432 0.951 . S
C1457 C1455 1.388 . S
C1457 C1458 1.366 . S
C1458 C1457 1.366 . S
C1458 C1459 1.414 . S
C1458 C1461 1.499 . S
C1459 H1433 0.950 . S
C1459 C1458 1.414 . S
C1459 C1460 1.374 . S
C1460 H1434 0.950 . S
C1460 C1456 1.385 . S
C1460 C1459 1.374 . S
C1461 C1458 1.499 . S
C1461 C1462 1.373 . S
C1461 C1463 1.389 . S
C1462 H1435 0.950 . S
C1462 C1448 1.377 . S
C1462 C1461 1.373 . S
C1463 C1447 1.377 . S
C1463 C1461 1.389 . S
C1463 C1464 1.524 . S
C1464 C1463 1.524 . S
C1464 C1465 1.397 . S
C1464 C1469 1.363 . S
C1465 H1436 0.950 . S
C1465 C1464 1.397 . S
C1465 C1466 1.334 . S
C1466 H1437 0.950 . S
C1466 C1465 1.334 . S
C1466 C1467 1.287 . S
C1467 C1466 1.287 . S
C1467 C1468 1.524 . S
C1467 H1470 0.999 . S
C1468 H1438 0.950 . S
C1468 C1467 1.524 . S
C1468 C1469 1.415 . S
C1469 H1439 0.950 . S
C1469 C1464 1.363 . S
C1469 C1468 1.415 . S
H1470 C1467 0.999 . S
H1471 C1452 0.913 . S
H1472 C1490 0.951 . S
H1473 C1492 0.951 . S
H1474 C1494 0.950 . S
H1475 C1495 0.950 . S
H1476 C1497 0.950 . S
H1477 C1500 0.950 . S
H1478 C1501 0.950 . S
H1479 C1503 0.950 . S
H1480 C1504 0.950 . S
H1481 C1505 0.951 . S
H1482 C1507 0.951 . S
H1483 C1509 0.950 . S
H1484 C1510 0.950 . S
H1485 C1512 0.950 . S
H1486 C1515 0.950 . S
H1487 C1516 0.950 . S
H1488 C1518 0.950 . S
H1489 C1519 0.950 . S
C1490 H1472 0.951 . S
C1490 C1491 1.366 . S
C1490 C1492 1.388 . S
C1491 C1490 1.366 . S
C1491 C1495 1.385 . S
C1492 H1473 0.951 . S
C1492 C1490 1.388 . S
C1492 C1493 1.366 . S
C1493 C1492 1.366 . S
C1493 C1494 1.414 . S
C1493 C1496 1.499 . S
C1494 H1474 0.950 . S
C1494 C1493 1.414 . S
C1494 C1495 1.374 . S
C1495 H1475 0.950 . S
C1495 C1491 1.385 . S
C1495 C1494 1.374 . S
C1496 C1493 1.499 . S
C1496 C1497 1.373 . S
C1496 C1498 1.389 . S
C1497 H1476 0.950 . S
C1497 C1496 1.373 . S
C1497 C1513 1.377 . S
C1498 C1496 1.389 . S
C1498 C1499 1.524 . S
C1498 C1512 1.377 . S
C1499 C1498 1.524 . S
C1499 C1500 1.397 . S
C1499 C1504 1.363 . S
C1500 H1477 0.950 . S
C1500 C1499 1.397 . S
C1500 C1501 1.334 . S
C1501 H1478 0.950 . S
C1501 C1500 1.334 . S
C1501 C1502 1.287 . S
C1502 C1501 1.287 . S
C1502 C1503 1.524 . S
C1502 H1521 0.913 . S
C1503 H1479 0.950 . S
C1503 C1502 1.524 . S
C1503 C1504 1.415 . S
C1504 H1480 0.950 . S
C1504 C1499 1.363 . S
C1504 C1503 1.415 . S
C1505 H1481 0.951 . S
C1505 C1506 1.366 . S
C1505 C1507 1.388 . S
C1506 C1505 1.366 . S
C1506 C1510 1.385 . S
C1507 H1482 0.951 . S
C1507 C1505 1.388 . S
C1507 C1508 1.366 . S
C1508 C1507 1.366 . S
C1508 C1509 1.414 . S
C1508 C1511 1.499 . S
C1509 H1483 0.950 . S
C1509 C1508 1.414 . S
C1509 C1510 1.374 . S
C1510 H1484 0.950 . S
C1510 C1506 1.385 . S
C1510 C1509 1.374 . S
C1511 C1508 1.499 . S
C1511 C1512 1.373 . S
C1511 C1513 1.389 . S
C1512 H1485 0.950 . S
C1512 C1498 1.377 . S
C1512 C1511 1.373 . S
C1513 C1497 1.377 . S
C1513 C1511 1.389 . S
C1513 C1514 1.524 . S
C1514 C1513 1.524 . S
C1514 C1515 1.397 . S
C1514 C1519 1.363 . S
C1515 H1486 0.950 . S
C1515 C1514 1.397 . S
C1515 C1516 1.334 . S
C1516 H1487 0.950 . S
C1516 C1515 1.334 . S
C1516 C1517 1.287 . S
C1517 C1516 1.287 . S
C1517 C1518 1.524 . S
C1517 H1520 0.999 . S
C1518 H1488 0.950 . S
C1518 C1517 1.524 . S
C1518 C1519 1.415 . S
C1519 H1489 0.950 . S
C1519 C1514 1.363 . S
C1519 C1518 1.415 . S
H1520 C1517 0.999 . S
H1521 C1502 0.913 . S
H1522 C1540 0.951 . S
H1523 C1542 0.951 . S
H1524 C1544 0.950 . S
H1525 C1545 0.950 . S
H1526 C1547 0.950 . S
H1527 C1550 0.950 . S
H1528 C1551 0.950 . S
H1529 C1553 0.950 . S
H1530 C1554 0.950 . S
H1531 C1555 0.951 . S
H1532 C1557 0.951 . S
H1533 C1559 0.950 . S
H1534 C1560 0.950 . S
H1535 C1562 0.950 . S
H1536 C1565 0.950 . S
H1537 C1566 0.950 . S
H1538 C1568 0.950 . S
H1539 C1569 0.950 . S
C1540 H1522 0.951 . S
C1540 C1541 1.366 . S
C1540 C1542 1.388 . S
C1541 C1540 1.366 . S
C1541 C1545 1.385 . S
C1542 H1523 0.951 . S
C1542 C1540 1.388 . S
C1542 C1543 1.366 . S
C1543 C1542 1.366 . S
C1543 C1544 1.414 . S
C1543 C1546 1.499 . S
C1544 H1524 0.950 . S
C1544 C1543 1.414 . S
C1544 C1545 1.374 . S
C1545 H1525 0.950 . S
C1545 C1541 1.385 . S
C1545 C1544 1.374 . S
C1546 C1543 1.499 . S
C1546 C1547 1.373 . S
C1546 C1548 1.389 . S
C1547 H1526 0.950 . S
C1547 C1546 1.373 . S
C1547 C1563 1.377 . S
C1548 C1546 1.389 . S
C1548 C1549 1.524 . S
C1548 C1562 1.377 . S
C1549 C1548 1.524 . S
C1549 C1550 1.397 . S
C1549 C1554 1.363 . S
C1550 H1527 0.950 . S
C1550 C1549 1.397 . S
C1550 C1551 1.334 . S
C1551 H1528 0.950 . S
C1551 C1550 1.334 . S
C1551 C1552 1.287 . S
C1552 C1551 1.287 . S
C1552 C1553 1.524 . S
C1552 H1571 0.913 . S
C1553 H1529 0.950 . S
C1553 C1552 1.524 . S
C1553 C1554 1.415 . S
C1554 H1530 0.950 . S
C1554 C1549 1.363 . S
C1554 C1553 1.415 . S
C1555 H1531 0.951 . S
C1555 C1556 1.366 . S
C1555 C1557 1.388 . S
C1556 C1555 1.366 . S
C1556 C1560 1.385 . S
C1557 H1532 0.951 . S
C1557 C1555 1.388 . S
C1557 C1558 1.366 . S
C1558 C1557 1.366 . S
C1558 C1559 1.414 . S
C1558 C1561 1.499 . S
C1559 H1533 0.950 . S
C1559 C1558 1.414 . S
C1559 C1560 1.374 . S
C1560 H1534 0.950 . S
C1560 C1556 1.385 . S
C1560 C1559 1.374 . S
C1561 C1558 1.499 . S
C1561 C1562 1.373 . S
C1561 C1563 1.389 . S
C1562 H1535 0.950 . S
C1562 C1548 1.377 . S
C1562 C1561 1.373 . S
C1563 C1547 1.377 . S
C1563 C1561 1.389 . S
C1563 C1564 1.524 . S
C1564 C1563 1.524 . S
C1564 C1565 1.397 . S
C1564 C1569 1.363 . S
C1565 H1536 0.950 . S
C1565 C1564 1.397 . S
C1565 C1566 1.334 . S
C1566 H1537 0.950 . S
C1566 C1565 1.334 . S
C1566 C1567 1.287 . S
C1567 C1566 1.287 . S
C1567 C1568 1.524 . S
C1567 H1570 0.999 . S
C1568 H1538 0.950 . S
C1568 C1567 1.524 . S
C1568 C1569 1.415 . S
C1569 H1539 0.950 . S
C1569 C1564 1.363 . S
C1569 C1568 1.415 . S
H1570 C1567 0.999 . S
H1571 C1552 0.913 . S
H1572 C1590 0.951 . S
H1573 C1592 0.951 . S
H1574 C1594 0.950 . S
H1575 C1595 0.950 . S
H1576 C1597 0.950 . S
H1577 C1600 0.950 . S
H1578 C1601 0.950 . S
H1579 C1603 0.950 . S
H1580 C1604 0.950 . S
H1581 C1605 0.951 . S
H1582 C1607 0.951 . S
H1583 C1609 0.950 . S
H1584 C1610 0.950 . S
H1585 C1612 0.950 . S
H1586 C1615 0.950 . S
H1587 C1616 0.950 . S
H1588 C1618 0.950 . S
H1589 C1619 0.950 . S
C1590 H1572 0.951 . S
C1590 C1591 1.366 . S
C1590 C1592 1.388 . S
C1591 C1590 1.366 . S
C1591 C1595 1.385 . S
C1592 H1573 0.951 . S
C1592 C1590 1.388 . S
C1592 C1593 1.366 . S
C1593 C1592 1.366 . S
C1593 C1594 1.414 . S
C1593 C1596 1.499 . S
C1594 H1574 0.950 . S
C1594 C1593 1.414 . S
C1594 C1595 1.374 . S
C1595 H1575 0.950 . S
C1595 C1591 1.385 . S
C1595 C1594 1.374 . S
C1596 C1593 1.499 . S
C1596 C1597 1.373 . S
C1596 C1598 1.389 . S
C1597 H1576 0.950 . S
C1597 C1596 1.373 . S
C1597 C1613 1.377 . S
C1598 C1596 1.389 . S
C1598 C1599 1.524 . S
C1598 C1612 1.377 . S
C1599 C1598 1.524 . S
C1599 C1600 1.397 . S
C1599 C1604 1.363 . S
C1600 H1577 0.950 . S
C1600 C1599 1.397 . S
C1600 C1601 1.334 . S
C1601 H1578 0.950 . S
C1601 C1600 1.334 . S
C1601 C1602 1.287 . S
C1602 C1601 1.287 . S
C1602 C1603 1.524 . S
C1602 H1621 0.913 . S
C1603 H1579 0.950 . S
C1603 C1602 1.524 . S
C1603 C1604 1.415 . S
C1604 H1580 0.950 . S
C1604 C1599 1.363 . S
C1604 C1603 1.415 . S
C1605 H1581 0.951 . S
C1605 C1606 1.366 . S
C1605 C1607 1.388 . S
C1606 C1605 1.366 . S
C1606 C1610 1.385 . S
C1607 H1582 0.951 . S
C1607 C1605 1.388 . S
C1607 C1608 1.366 . S
C1608 C1607 1.366 . S
C1608 C1609 1.414 . S
C1608 C1611 1.499 . S
C1609 H1583 0.950 . S
C1609 C1608 1.414 . S
C1609 C1610 1.374 . S
C1610 H1584 0.950 . S
C1610 C1606 1.385 . S
C1610 C1609 1.374 . S
C1611 C1608 1.499 . S
C1611 C1612 1.373 . S
C1611 C1613 1.389 . S
C1612 H1585 0.950 . S
C1612 C1598 1.377 . S
C1612 C1611 1.373 . S
C1613 C1597 1.377 . S
C1613 C1611 1.389 . S
C1613 C1614 1.524 . S
C1614 C1613 1.524 . S
C1614 C1615 1.397 . S
C1614 C1619 1.363 . S
C1615 H1586 0.950 . S
C1615 C1614 1.397 . S
C1615 C1616 1.334 . S
C1616 H1587 0.950 . S
C1616 C1615 1.334 . S
C1616 C1617 1.287 . S
C1617 C1616 1.287 . S
C1617 C1618 1.524 . S
C1617 H1620 0.999 . S
C1618 H1588 0.950 . S
C1618 C1617 1.524 . S
C1618 C1619 1.415 . S
C1619 H1589 0.950 . S
C1619 C1614 1.363 . S
C1619 C1618 1.415 . S
H1620 C1617 0.999 . S
H1621 C1602 0.913 . S
H1622 C1640 0.951 . S
H1623 C1642 0.951 . S
H1624 C1644 0.950 . S
H1625 C1645 0.950 . S
H1626 C1647 0.950 . S
H1627 C1650 0.950 . S
H1628 C1651 0.950 . S
H1629 C1653 0.950 . S
H1630 C1654 0.950 . S
H1631 C1655 0.951 . S
H1632 C1657 0.951 . S
H1633 C1659 0.950 . S
H1634 C1660 0.950 . S
H1635 C1662 0.950 . S
H1636 C1665 0.950 . S
H1637 C1666 0.950 . S
H1638 C1668 0.950 . S
H1639 C1669 0.950 . S
C1640 H1622 0.951 . S
C1640 C1641 1.366 . S
C1640 C1642 1.388 . S
C1641 C1640 1.366 . S
C1641 C1645 1.385 . S
C1642 H1623 0.951 . S
C1642 C1640 1.388 . S
C1642 C1643 1.366 . S
C1643 C1642 1.366 . S
C1643 C1644 1.414 . S
C1643 C1646 1.499 . S
C1644 H1624 0.950 . S
C1644 C1643 1.414 . S
C1644 C1645 1.374 . S
C1645 H1625 0.950 . S
C1645 C1641 1.385 . S
C1645 C1644 1.374 . S
C1646 C1643 1.499 . S
C1646 C1647 1.373 . S
C1646 C1648 1.389 . S
C1647 H1626 0.950 . S
C1647 C1646 1.373 . S
C1647 C1663 1.377 . S
C1648 C1646 1.389 . S
C1648 C1649 1.524 . S
C1648 C1662 1.377 . S
C1649 C1648 1.524 . S
C1649 C1650 1.397 . S
C1649 C1654 1.363 . S
C1650 H1627 0.950 . S
C1650 C1649 1.397 . S
C1650 C1651 1.334 . S
C1651 H1628 0.950 . S
C1651 C1650 1.334 . S
C1651 C1652 1.287 . S
C1652 C1651 1.287 . S
C1652 C1653 1.524 . S
C1652 H1671 0.913 . S
C1653 H1629 0.950 . S
C1653 C1652 1.524 . S
C1653 C1654 1.415 . S
C1654 H1630 0.950 . S
C1654 C1649 1.363 . S
C1654 C1653 1.415 . S
C1655 H1631 0.951 . S
C1655 C1656 1.366 . S
C1655 C1657 1.388 . S
C1656 C1655 1.366 . S
C1656 C1660 1.385 . S
C1657 H1632 0.951 . S
C1657 C1655 1.388 . S
C1657 C1658 1.366 . S
C1658 C1657 1.366 . S
C1658 C1659 1.414 . S
C1658 C1661 1.499 . S
C1659 H1633 0.950 . S
C1659 C1658 1.414 . S
C1659 C1660 1.374 . S
C1660 H1634 0.950 . S
C1660 C1656 1.385 . S
C1660 C1659 1.374 . S
C1661 C1658 1.499 . S
C1661 C1662 1.373 . S
C1661 C1663 1.389 . S
C1662 H1635 0.950 . S
C1662 C1648 1.377 . S
C1662 C1661 1.373 . S
C1663 C1647 1.377 . S
C1663 C1661 1.389 . S
C1663 C1664 1.524 . S
C1664 C1663 1.524 . S
C1664 C1665 1.397 . S
C1664 C1669 1.363 . S
C1665 H1636 0.950 . S
C1665 C1664 1.397 . S
C1665 C1666 1.334 . S
C1666 H1637 0.950 . S
C1666 C1665 1.334 . S
C1666 C1667 1.287 . S
C1667 C1666 1.287 . S
C1667 C1668 1.524 . S
C1667 H1670 0.999 . S
C1668 H1638 0.950 . S
C1668 C1667 1.524 . S
C1668 C1669 1.415 . S
C1669 H1639 0.950 . S
C1669 C1664 1.363 . S
C1669 C1668 1.415 . S
H1670 C1667 0.999 . S
H1671 C1652 0.913 . S
H1672 C1690 0.951 . S
H1673 C1692 0.951 . S
H1674 C1694 0.950 . S
H1675 C1695 0.950 . S
H1676 C1697 0.950 . S
H1677 C1700 0.950 . S
H1678 C1701 0.950 . S
H1679 C1703 0.950 . S
H1680 C1704 0.950 . S
H1681 C1705 0.951 . S
H1682 C1707 0.951 . S
H1683 C1709 0.950 . S
H1684 C1710 0.950 . S
H1685 C1712 0.950 . S
H1686 C1715 0.950 . S
H1687 C1716 0.950 . S
H1688 C1718 0.950 . S
H1689 C1719 0.950 . S
C1690 H1672 0.951 . S
C1690 C1691 1.366 . S
C1690 C1692 1.388 . S
C1691 C1690 1.366 . S
C1691 C1695 1.385 . S
C1692 H1673 0.951 . S
C1692 C1690 1.388 . S
C1692 C1693 1.366 . S
C1693 C1692 1.366 . S
C1693 C1694 1.414 . S
C1693 C1696 1.499 . S
C1694 H1674 0.950 . S
C1694 C1693 1.414 . S
C1694 C1695 1.374 . S
C1695 H1675 0.950 . S
C1695 C1691 1.385 . S
C1695 C1694 1.374 . S
C1696 C1693 1.499 . S
C1696 C1697 1.373 . S
C1696 C1698 1.389 . S
C1697 H1676 0.950 . S
C1697 C1696 1.373 . S
C1697 C1713 1.377 . S
C1698 C1696 1.389 . S
C1698 C1699 1.524 . S
C1698 C1712 1.377 . S
C1699 C1698 1.524 . S
C1699 C1700 1.397 . S
C1699 C1704 1.363 . S
C1700 H1677 0.950 . S
C1700 C1699 1.397 . S
C1700 C1701 1.334 . S
C1701 H1678 0.950 . S
C1701 C1700 1.334 . S
C1701 C1702 1.287 . S
C1702 C1701 1.287 . S
C1702 C1703 1.524 . S
C1702 H1721 0.913 . S
C1703 H1679 0.950 . S
C1703 C1702 1.524 . S
C1703 C1704 1.415 . S
C1704 H1680 0.950 . S
C1704 C1699 1.363 . S
C1704 C1703 1.415 . S
C1705 H1681 0.951 . S
C1705 C1706 1.366 . S
C1705 C1707 1.388 . S
C1706 C1705 1.366 . S
C1706 C1710 1.385 . S
C1707 H1682 0.951 . S
C1707 C1705 1.388 . S
C1707 C1708 1.366 . S
C1708 C1707 1.366 . S
C1708 C1709 1.414 . S
C1708 C1711 1.499 . S
C1709 H1683 0.950 . S
C1709 C1708 1.414 . S
C1709 C1710 1.374 . S
C1710 H1684 0.950 . S
C1710 C1706 1.385 . S
C1710 C1709 1.374 . S
C1711 C1708 1.499 . S
C1711 C1712 1.373 . S
C1711 C1713 1.389 . S
C1712 H1685 0.950 . S
C1712 C1698 1.377 . S
C1712 C1711 1.373 . S
C1713 C1697 1.377 . S
C1713 C1711 1.389 . S
C1713 C1714 1.524 . S
C1714 C1713 1.524 . S
C1714 C1715 1.397 . S
C1714 C1719 1.363 . S
C1715 H1686 0.950 . S
C1715 C1714 1.397 . S
C1715 C1716 1.334 . S
C1716 H1687 0.950 . S
C1716 C1715 1.334 . S
C1716 C1717 1.287 . S
C1717 C1716 1.287 . S
C1717 C1718 1.524 . S
C1717 H1720 0.999 . S
C1718 H1688 0.950 . S
C1718 C1717 1.524 . S
C1718 C1719 1.415 . S
C1719 H1689 0.950 . S
C1719 C1714 1.363 . S
C1719 C1718 1.415 . S
H1720 C1717 0.999 . S
H1721 C1702 0.913 . S
H1722 C1740 0.951 . S
H1723 C1742 0.951 . S
H1724 C1744 0.950 . S
H1725 C1745 0.950 . S
H1726 C1747 0.950 . S
H1727 C1750 0.950 . S
H1728 C1751 0.950 . S
H1729 C1753 0.950 . S
H1730 C1754 0.950 . S
H1731 C1755 0.951 . S
H1732 C1757 0.951 . S
H1733 C1759 0.950 . S
H1734 C1760 0.950 . S
H1735 C1762 0.950 . S
H1736 C1765 0.950 . S
H1737 C1766 0.950 . S
H1738 C1768 0.950 . S
H1739 C1769 0.950 . S
C1740 H1722 0.951 . S
C1740 C1741 1.366 . S
C1740 C1742 1.388 . S
C1741 C1740 1.366 . S
C1741 C1745 1.385 . S
C1742 H1723 0.951 . S
C1742 C1740 1.388 . S
C1742 C1743 1.366 . S
C1743 C1742 1.366 . S
C1743 C1744 1.414 . S
C1743 C1746 1.499 . S
C1744 H1724 0.950 . S
C1744 C1743 1.414 . S
C1744 C1745 1.374 . S
C1745 H1725 0.950 . S
C1745 C1741 1.385 . S
C1745 C1744 1.374 . S
C1746 C1743 1.499 . S
C1746 C1747 1.373 . S
C1746 C1748 1.389 . S
C1747 H1726 0.950 . S
C1747 C1746 1.373 . S
C1747 C1763 1.377 . S
C1748 C1746 1.389 . S
C1748 C1749 1.524 . S
C1748 C1762 1.377 . S
C1749 C1748 1.524 . S
C1749 C1750 1.397 . S
C1749 C1754 1.363 . S
C1750 H1727 0.950 . S
C1750 C1749 1.397 . S
C1750 C1751 1.334 . S
C1751 H1728 0.950 . S
C1751 C1750 1.334 . S
C1751 C1752 1.287 . S
C1752 C1751 1.287 . S
C1752 C1753 1.524 . S
C1752 H1771 0.913 . S
C1753 H1729 0.950 . S
C1753 C1752 1.524 . S
C1753 C1754 1.415 . S
C1754 H1730 0.950 . S
C1754 C1749 1.363 . S
C1754 C1753 1.415 . S
C1755 H1731 0.951 . S
C1755 C1756 1.366 . S
C1755 C1757 1.388 . S
C1756 C1755 1.366 . S
C1756 C1760 1.385 . S
C1757 H1732 0.951 . S
C1757 C1755 1.388 . S
C1757 C1758 1.366 . S
C1758 C1757 1.366 . S
C1758 C1759 1.414 . S
C1758 C1761 1.499 . S
C1759 H1733 0.950 . S
C1759 C1758 1.414 . S
C1759 C1760 1.374 . S
C1760 H1734 0.950 . S
C1760 C1756 1.385 . S
C1760 C1759 1.374 . S
C1761 C1758 1.499 . S
C1761 C1762 1.373 . S
C1761 C1763 1.389 . S
C1762 H1735 0.950 . S
C1762 C1748 1.377 . S
C1762 C1761 1.373 . S
C1763 C1747 1.377 . S
C1763 C1761 1.389 . S
C1763 C1764 1.524 . S
C1764 C1763 1.524 . S
C1764 C1765 1.397 . S
C1764 C1769 1.363 . S
C1765 H1736 0.950 . S
C1765 C1764 1.397 . S
C1765 C1766 1.334 . S
C1766 H1737 0.950 . S
C1766 C1765 1.334 . S
C1766 C1767 1.287 . S
C1767 C1766 1.287 . S
C1767 C1768 1.524 . S
C1767 H1770 0.999 . S
C1768 H1738 0.950 . S
C1768 C1767 1.524 . S
C1768 C1769 1.415 . S
C1769 H1739 0.950 . S
C1769 C1764 1.363 . S
C1769 C1768 1.415 . S
H1770 C1767 0.999 . S
H1771 C1752 0.913 . S
H1772 C1790 0.951 . S
H1773 C1792 0.951 . S
H1774 C1794 0.950 . S
H1775 C1795 0.950 . S
H1776 C1797 0.950 . S
H1777 C1800 0.950 . S
H1778 C1801 0.950 . S
H1779 C1803 0.950 . S
H1780 C1804 0.950 . S
H1781 C1805 0.951 . S
H1782 C1807 0.951 . S
H1783 C1809 0.950 . S
H1784 C1810 0.950 . S
H1785 C1812 0.950 . S
H1786 C1815 0.950 . S
H1787 C1816 0.950 . S
H1788 C1818 0.950 . S
H1789 C1819 0.950 . S
C1790 H1772 0.951 . S
C1790 C1791 1.366 . S
C1790 C1792 1.388 . S
C1791 C1790 1.366 . S
C1791 C1795 1.385 . S
C1792 H1773 0.951 . S
C1792 C1790 1.388 . S
C1792 C1793 1.366 . S
C1793 C1792 1.366 . S
C1793 C1794 1.414 . S
C1793 C1796 1.499 . S
C1794 H1774 0.950 . S
C1794 C1793 1.414 . S
C1794 C1795 1.374 . S
C1795 H1775 0.950 . S
C1795 C1791 1.385 . S
C1795 C1794 1.374 . S
C1796 C1793 1.499 . S
C1796 C1797 1.373 . S
C1796 C1798 1.389 . S
C1797 H1776 0.950 . S
C1797 C1796 1.373 . S
C1797 C1813 1.377 . S
C1798 C1796 1.389 . S
C1798 C1799 1.524 . S
C1798 C1812 1.377 . S
C1799 C1798 1.524 . S
C1799 C1800 1.397 . S
C1799 C1804 1.363 . S
C1800 H1777 0.950 . S
C1800 C1799 1.397 . S
C1800 C1801 1.334 . S
C1801 H1778 0.950 . S
C1801 C1800 1.334 . S
C1801 C1802 1.287 . S
C1802 C1801 1.287 . S
C1802 C1803 1.524 . S
C1802 H1821 0.913 . S
C1803 H1779 0.950 . S
C1803 C1802 1.524 . S
C1803 C1804 1.415 . S
C1804 H1780 0.950 . S
C1804 C1799 1.363 . S
C1804 C1803 1.415 . S
C1805 H1781 0.951 . S
C1805 C1806 1.366 . S
C1805 C1807 1.388 . S
C1806 C1805 1.366 . S
C1806 C1810 1.385 . S
C1807 H1782 0.951 . S
C1807 C1805 1.388 . S
C1807 C1808 1.366 . S
C1808 C1807 1.366 . S
C1808 C1809 1.414 . S
C1808 C1811 1.499 . S
C1809 H1783 0.950 . S
C1809 C1808 1.414 . S
C1809 C1810 1.374 . S
C1810 H1784 0.950 . S
C1810 C1806 1.385 . S
C1810 C1809 1.374 . S
C1811 C1808 1.499 . S
C1811 C1812 1.373 . S
C1811 C1813 1.389 . S
C1812 H1785 0.950 . S
C1812 C1798 1.377 . S
C1812 C1811 1.373 . S
C1813 C1797 1.377 . S
C1813 C1811 1.389 . S
C1813 C1814 1.524 . S
C1814 C1813 1.524 . S
C1814 C1815 1.397 . S
C1814 C1819 1.363 . S
C1815 H1786 0.950 . S
C1815 C1814 1.397 . S
C1815 C1816 1.334 . S
C1816 H1787 0.950 . S
C1816 C1815 1.334 . S
C1816 C1817 1.287 . S
C1817 C1816 1.287 . S
C1817 C1818 1.524 . S
C1817 H1820 0.999 . S
C1818 H1788 0.950 . S
C1818 C1817 1.524 . S
C1818 C1819 1.415 . S
C1819 H1789 0.950 . S
C1819 C1814 1.363 . S
C1819 C1818 1.415 . S
H1820 C1817 0.999 . S
H1821 C1802 0.913 . S
H1822 C1840 0.951 . S
H1823 C1842 0.951 . S
H1824 C1844 0.950 . S
H1825 C1845 0.950 . S
H1826 C1847 0.950 . S
H1827 C1850 0.950 . S
H1828 C1851 0.950 . S
H1829 C1853 0.950 . S
H1830 C1854 0.950 . S
H1831 C1855 0.951 . S
H1832 C1857 0.951 . S
H1833 C1859 0.950 . S
H1834 C1860 0.950 . S
H1835 C1862 0.950 . S
H1836 C1865 0.950 . S
H1837 C1866 0.950 . S
H1838 C1868 0.950 . S
H1839 C1869 0.950 . S
C1840 H1822 0.951 . S
C1840 C1841 1.366 . S
C1840 C1842 1.388 . S
C1841 C1840 1.366 . S
C1841 C1845 1.385 . S
C1842 H1823 0.951 . S
C1842 C1840 1.388 . S
C1842 C1843 1.366 . S
C1843 C1842 1.366 . S
C1843 C1844 1.414 . S
C1843 C1846 1.499 . S
C1844 H1824 0.950 . S
C1844 C1843 1.414 . S
C1844 C1845 1.374 . S
C1845 H1825 0.950 . S
C1845 C1841 1.385 . S
C1845 C1844 1.374 . S
C1846 C1843 1.499 . S
C1846 C1847 1.373 . S
C1846 C1848 1.389 . S
C1847 H1826 0.950 . S
C1847 C1846 1.373 . S
C1847 C1863 1.377 . S
C1848 C1846 1.389 . S
C1848 C1849 1.524 . S
C1848 C1862 1.377 . S
C1849 C1848 1.524 . S
C1849 C1850 1.397 . S
C1849 C1854 1.363 . S
C1850 H1827 0.950 . S
C1850 C1849 1.397 . S
C1850 C1851 1.334 . S
C1851 H1828 0.950 . S
C1851 C1850 1.334 . S
C1851 C1852 1.287 . S
C1852 C1851 1.287 . S
C1852 C1853 1.524 . S
C1852 H1871 0.913 . S
C1853 H1829 0.950 . S
C1853 C1852 1.524 . S
C1853 C1854 1.415 . S
C1854 H1830 0.950 . S
C1854 C1849 1.363 . S
C1854 C1853 1.415 . S
C1855 H1831 0.951 . S
C1855 C1856 1.366 . S
C1855 C1857 1.388 . S
C1856 C1855 1.366 . S
C1856 C1860 1.385 . S
C1857 H1832 0.951 . S
C1857 C1855 1.388 . S
C1857 C1858 1.366 . S
C1858 C1857 1.366 . S
C1858 C1859 1.414 . S
C1858 C1861 1.499 . S
C1859 H1833 0.950 . S
C1859 C1858 1.414 . S
C1859 C1860 1.374 . S
C1860 H1834 0.950 . S
C1860 C1856 1.385 . S
C1860 C1859 1.374 . S
C1861 C1858 1.499 . S
C1861 C1862 1.373 . S
C1861 C1863 1.389 . S
C1862 H1835 0.950 . S
C1862 C1848 1.377 . S
C1862 C1861 1.373 . S
C1863 C1847 1.377 . S
C1863 C1861 1.389 . S
C1863 C1864 1.524 . S
C1864 C1863 1.524 . S
C1864 C1865 1.397 . S
C1864 C1869 1.363 . S
C1865 H1836 0.950 . S
C1865 C1864 1.397 . S
C1865 C1866 1.334 . S
C1866 H1837 0.950 . S
C1866 C1865 1.334 . S
C1866 C1867 1.287 . S
C1867 C1866 1.287 . S
C1867 C1868 1.524 . S
C1867 H1870 0.999 . S
C1868 H1838 0.950 . S
C1868 C1867 1.524 . S
C1868 C1869 1.415 . S
C1869 H1839 0.950 . S
C1869 C1864 1.363 . S
C1869 C1868 1.415 . S
H1870 C1867 0.999 . S
H1871 C1852 0.913 . S
H1872 C1890 0.951 . S
H1873 C1892 0.951 . S
H1874 C1894 0.950 . S
H1875 C1895 0.950 . S
H1876 C1897 0.950 . S
H1877 C1900 0.950 . S
H1878 C1901 0.950 . S
H1879 C1903 0.950 . S
H1880 C1904 0.950 . S
H1881 C1905 0.951 . S
H1882 C1907 0.951 . S
H1883 C1909 0.950 . S
H1884 C1910 0.950 . S
H1885 C1912 0.950 . S
H1886 C1915 0.950 . S
H1887 C1916 0.950 . S
H1888 C1918 0.950 . S
H1889 C1919 0.950 . S
C1890 H1872 0.951 . S
C1890 C1891 1.366 . S
C1890 C1892 1.388 . S
C1891 C1890 1.366 . S
C1891 C1895 1.385 . S
C1892 H1873 0.951 . S
C1892 C1890 1.388 . S
C1892 C1893 1.366 . S
C1893 C1892 1.366 . S
C1893 C1894 1.414 . S
C1893 C1896 1.499 . S
C1894 H1874 0.950 . S
C1894 C1893 1.414 . S
C1894 C1895 1.374 . S
C1895 H1875 0.950 . S
C1895 C1891 1.385 . S
C1895 C1894 1.374 . S
C1896 C1893 1.499 . S
C1896 C1897 1.373 . S
C1896 C1898 1.389 . S
C1897 H1876 0.950 . S
C1897 C1896 1.373 . S
C1897 C1913 1.377 . S
C1898 C1896 1.389 . S
C1898 C1899 1.524 . S
C1898 C1912 1.377 . S
C1899 C1898 1.524 . S
C1899 C1900 1.397 . S
C1899 C1904 1.363 . S
C1900 H1877 0.950 . S
C1900 C1899 1.397 . S
C1900 C1901 1.334 . S
C1901 H1878 0.950 . S
C1901 C1900 1.334 . S
C1901 C1902 1.287 . S
C1902 C1901 1.287 . S
C1902 C1903 1.524 . S
C1902 H1921 0.913 . S
C1903 H1879 0.950 . S
C1903 C1902 1.524 . S
C1903 C1904 1.415 . S
C1904 H1880 0.950 . S
C1904 C1899 1.363 . S
C1904 C1903 1.415 . S
C1905 H1881 0.951 . S
C1905 C1906 1.366 . S
C1905 C1907 1.388 . S
C1906 C1905 1.366 . S
C1906 C1910 1.385 . S
C1907 H1882 0.951 . S
C1907 C1905 1.388 . S
C1907 C1908 1.366 . S
C1908 C1907 1.366 . S
C1908 C1909 1.414 . S
C1908 C1911 1.499 . S
C1909 H1883 0.950 . S
C1909 C1908 1.414 . S
C1909 C1910 1.374 . S
C1910 H1884 0.950 . S
C1910 C1906 1.385 . S
C1910 C1909 1.374 . S
C1911 C1908 1.499 . S
C1911 C1912 1.373 . S
C1911 C1913 1.389 . S
C1912 H1885 0.950 . S
C1912 C1898 1.377 . S
C1912 C1911 1.373 . S
C1913 C1897 1.377 . S
C1913 C1911 1.389 . S
C1913 C1914 1.524 . S
C1914 C1913 1.524 . S
C1914 C1915 1.397 . S
C1914 C1919 1.363 . S
C1915 H1886 0.950 . S
C1915 C1914 1.397 . S
C1915 C1916 1.334 . S
C1916 H1887 0.950 . S
C1916 C1915 1.334 . S
C1916 C1917 1.287 . S
C1917 C1916 1.287 . S
C1917 C1918 1.524 . S
C1917 H1920 0.999 . S
C1918 H1888 0.950 . S
C1918 C1917 1.524 . S
C1918 C1919 1.415 . S
C1919 H1889 0.950 . S
C1919 C1914 1.363 . S
C1919 C1918 1.415 . S
H1920 C1917 0.999 . S
H1921 C1902 0.913 . S
H1922 C1940 0.951 . S
H1923 C1942 0.951 . S
H1924 C1944 0.950 . S
H1925 C1945 0.950 . S
H1926 C1947 0.950 . S
H1927 C1950 0.950 . S
H1928 C1951 0.950 . S
H1929 C1953 0.950 . S
H1930 C1954 0.950 . S
H1931 C1955 0.951 . S
H1932 C1957 0.951 . S
H1933 C1959 0.950 . S
H1934 C1960 0.950 . S
H1935 C1962 0.950 . S
H1936 C1965 0.950 . S
H1937 C1966 0.950 . S
H1938 C1968 0.950 . S
H1939 C1969 0.950 . S
C1940 H1922 0.951 . S
C1940 C1941 1.366 . S
C1940 C1942 1.388 . S
C1941 C1940 1.366 . S
C1941 C1945 1.385 . S
C1942 H1923 0.951 . S
C1942 C1940 1.388 . S
C1942 C1943 1.366 . S
C1943 C1942 1.366 . S
C1943 C1944 1.414 . S
C1943 C1946 1.499 . S
C1944 H1924 0.950 . S
C1944 C1943 1.414 . S
C1944 C1945 1.374 . S
C1945 H1925 0.950 . S
C1945 C1941 1.385 . S
C1945 C1944 1.374 . S
C1946 C1943 1.499 . S
C1946 C1947 1.373 . S
C1946 C1948 1.389 . S
C1947 H1926 0.950 . S
C1947 C1946 1.373 . S
C1947 C1963 1.377 . S
C1948 C1946 1.389 . S
C1948 C1949 1.524 . S
C1948 C1962 1.377 . S
C1949 C1948 1.524 . S
C1949 C1950 1.397 . S
C1949 C1954 1.363 . S
C1950 H1927 0.950 . S
C1950 C1949 1.397 . S
C1950 C1951 1.334 . S
C1951 H1928 0.950 . S
C1951 C1950 1.334 . S
C1951 C1952 1.287 . S
C1952 C1951 1.287 . S
C1952 C1953 1.524 . S
C1952 H1971 0.913 . S
C1953 H1929 0.950 . S
C1953 C1952 1.524 . S
C1953 C1954 1.415 . S
C1954 H1930 0.950 . S
C1954 C1949 1.363 . S
C1954 C1953 1.415 . S
C1955 H1931 0.951 . S
C1955 C1956 1.366 . S
C1955 C1957 1.388 . S
C1956 C1955 1.366 . S
C1956 C1960 1.385 . S
C1957 H1932 0.951 . S
C1957 C1955 1.388 . S
C1957 C1958 1.366 . S
C1958 C1957 1.366 . S
C1958 C1959 1.414 . S
C1958 C1961 1.499 . S
C1959 H1933 0.950 . S
C1959 C1958 1.414 . S
C1959 C1960 1.374 . S
C1960 H1934 0.950 . S
C1960 C1956 1.385 . S
C1960 C1959 1.374 . S
C1961 C1958 1.499 . S
C1961 C1962 1.373 . S
C1961 C1963 1.389 . S
C1962 H1935 0.950 . S
C1962 C1948 1.377 . S
C1962 C1961 1.373 . S
C1963 C1947 1.377 . S
C1963 C1961 1.389 . S
C1963 C1964 1.524 . S
C1964 C1963 1.524 . S
C1964 C1965 1.397 . S
C1964 C1969 1.363 . S
C1965 H1936 0.950 . S
C1965 C1964 1.397 . S
C1965 C1966 1.334 . S
C1966 H1937 0.950 . S
C1966 C1965 1.334 . S
C1966 C1967 1.287 . S
C1967 C1966 1.287 . S
C1967 C1968 1.524 . S
C1967 H1970 0.999 . S
C1968 H1938 0.950 . S
C1968 C1967 1.524 . S
C1968 C1969 1.415 . S
C1969 H1939 0.950 . S
C1969 C1964 1.363 . S
C1969 C1968 1.415 . S
H1970 C1967 0.999 . S
H1971 C1952 0.913 . S
H1972 C1990 0.951 . S
H1973 C1992 0.951 . S
H1974 C1994 0.950 . S
H1975 C1995 0.950 . S
H1976 C1997 0.950 . S
H1977 C2000 0.950 . S
H1978 C2001 0.950 . S
H1979 C2003 0.950 . S
H1980 C2004 0.950 . S
H1981 C2005 0.951 . S
H1982 C2007 0.951 . S
H1983 C2009 0.950 . S
H1984 C2010 0.950 . S
H1985 C2012 0.950 . S
H1986 C2015 0.950 . S
H1987 C2016 0.950 . S
H1988 C2018 0.950 . S
H1989 C2019 0.950 . S
C1990 H1972 0.951 . S
C1990 C1991 1.366 . S
C1990 C1992 1.388 . S
C1991 C1990 1.366 . S
C1991 C1995 1.385 . S
C1992 H1973 0.951 . S
C1992 C1990 1.388 . S
C1992 C1993 1.366 . S
C1993 C1992 1.366 . S
C1993 C1994 1.414 . S
C1993 C1996 1.499 . S
C1994 H1974 0.950 . S
C1994 C1993 1.414 . S
C1994 C1995 1.374 . S
C1995 H1975 0.950 . S
C1995 C1991 1.385 . S
C1995 C1994 1.374 . S
C1996 C1993 1.499 . S
C1996 C1997 1.373 . S
C1996 C1998 1.389 . S
C1997 H1976 0.950 . S
C1997 C1996 1.373 . S
C1997 C2013 1.377 . S
C1998 C1996 1.389 . S
C1998 C1999 1.524 . S
C1998 C2012 1.377 . S
C1999 C1998 1.524 . S
C1999 C2000 1.397 . S
C1999 C2004 1.363 . S
C2000 H1977 0.950 . S
C2000 C1999 1.397 . S
C2000 C2001 1.334 . S
C2001 H1978 0.950 . S
C2001 C2000 1.334 . S
C2001 C2002 1.287 . S
C2002 C2001 1.287 . S
C2002 C2003 1.524 . S
C2002 H2021 0.913 . S
C2003 H1979 0.950 . S
C2003 C2002 1.524 . S
C2003 C2004 1.415 . S
C2004 H1980 0.950 . S
C2004 C1999 1.363 . S
C2004 C2003 1.415 . S
C2005 H1981 0.951 . S
C2005 C2006 1.366 . S
C2005 C2007 1.388 . S
C2006 C2005 1.366 . S
C2006 C2010 1.385 . S
C2007 H1982 0.951 . S
C2007 C2005 1.388 . S
C2007 C2008 1.366 . S
C2008 C2007 1.366 . S
C2008 C2009 1.414 . S
C2008 C2011 1.499 . S
C2009 H1983 0.950 . S
C2009 C2008 1.414 . S
C2009 C2010 1.374 . S
C2010 H1984 0.950 . S
C2010 C2006 1.385 . S
C2010 C2009 1.374 . S
C2011 C2008 1.499 . S
C2011 C2012 1.373 . S
C2011 C2013 1.389 . S
C2012 H1985 0.950 . S
C2012 C1998 1.377 . S
C2012 C2011 1.373 . S
C2013 C1997 1.377 . S
C2013 C2011 1.389 . S
C2013 C2014 1.524 . S
C2014 C2013 1.524 . S
C2014 C2015 1.397 . S
C2014 C2019 1.363 . S
C2015 H1986 0.950 . S
C2015 C2014 1.397 . S
C2015 C2016 1.334 . S
C2016 H1987 0.950 . S
C2016 C2015 1.334 . S
C2016 C2017 1.287 . S
C2017 C2016 1.287 . S
C2017 C2018 1.524 . S
C2017 H2020 0.999 . S
C2018 H1988 0.950 . S
C2018 C2017 1.524 . S
C2018 C2019 1.415 . S
C2019 H1989 0.950 . S
C2019 C2014 1.363 . S
C2019 C2018 1.415 . S
H2020 C2017 0.999 . S
H2021 C2002 0.913 . S
H2022 C2040 0.951 . S
H2023 C2042 0.951 . S
H2024 C2044 0.950 . S
H2025 C2045 0.950 . S
H2026 C2047 0.950 . S
H2027 C2050 0.950 . S
H2028 C2051 0.950 . S
H2029 C2053 0.950 . S
H2030 C2054 0.950 . S
H2031 C2055 0.951 . S
H2032 C2057 0.951 . S
H2033 C2059 0.950 . S
H2034 C2060 0.950 . S
H2035 C2062 0.950 . S
H2036 C2065 0.950 . S
H2037 C2066 0.950 . S
H2038 C2068 0.950 . S
H2039 C2069 0.950 . S
C2040 H2022 0.951 . S
C2040 C2041 1.366 . S
C2040 C2042 1.388 . S
C2041 C2040 1.366 . S
C2041 C2045 1.385 . S
C2042 H2023 0.951 . S
C2042 C2040 1.388 . S
C2042 C2043 1.366 . S
C2043 C2042 1.366 . S
C2043 C2044 1.414 . S
C2043 C2046 1.499 . S
C2044 H2024 0.950 . S
C2044 C2043 1.414 . S
C2044 C2045 1.374 . S
C2045 H2025 0.950 . S
C2045 C2041 1.385 . S
C2045 C2044 1.374 . S
C2046 C2043 1.499 . S
C2046 C2047 1.373 . S
C2046 C2048 1.389 . S
C2047 H2026 0.950 . S
C2047 C2046 1.373 . S
C2047 C2063 1.377 . S
C2048 C2046 1.389 . S
C2048 C2049 1.524 . S
C2048 C2062 1.377 . S
C2049 C2048 1.524 . S
C2049 C2050 1.397 . S
C2049 C2054 1.363 . S
C2050 H2027 0.950 . S
C2050 C2049 1.397 . S
C2050 C2051 1.334 . S
C2051 H2028 0.950 . S
C2051 C2050 1.334 . S
C2051 C2052 1.287 . S
C2052 C2051 1.287 . S
C2052 C2053 1.524 . S
C2052 H2071 0.913 . S
C2053 H2029 0.950 . S
C2053 C2052 1.524 . S
C2053 C2054 1.415 . S
C2054 H2030 0.950 . S
C2054 C2049 1.363 . S
C2054 C2053 1.415 . S
C2055 H2031 0.951 . S
C2055 C2056 1.366 . S
C2055 C2057 1.388 . S
C2056 C2055 1.366 . S
C2056 C2060 1.385 . S
C2057 H2032 0.951 . S
C2057 C2055 1.388 . S
C2057 C2058 1.366 . S
C2058 C2057 1.366 . S
C2058 C2059 1.414 . S
C2058 C2061 1.499 . S
C2059 H2033 0.950 . S
C2059 C2058 1.414 . S
C2059 C2060 1.374 . S
C2060 H2034 0.950 . S
C2060 C2056 1.385 . S
C2060 C2059 1.374 . S
C2061 C2058 1.499 . S
C2061 C2062 1.373 . S
C2061 C2063 1.389 . S
C2062 H2035 0.950 . S
C2062 C2048 1.377 . S
C2062 C2061 1.373 . S
C2063 C2047 1.377 . S
C2063 C2061 1.389 . S
C2063 C2064 1.524 . S
C2064 C2063 1.524 . S
C2064 C2065 1.397 . S
C2064 C2069 1.363 . S
C2065 H2036 0.950 . S
C2065 C2064 1.397 . S
C2065 C2066 1.334 . S
C2066 H2037 0.950 . S
C2066 C2065 1.334 . S
C2066 C2067 1.287 . S
C2067 C2066 1.287 . S
C2067 C2068 1.524 . S
C2067 H2070 0.999 . S
C2068 H2038 0.950 . S
C2068 C2067 1.524 . S
C2068 C2069 1.415 . S
C2069 H2039 0.950 . S
C2069 C2064 1.363 . S
C2069 C2068 1.415 . S
H2070 C2067 0.999 . S
H2071 C2052 0.913 . S
H2072 C2090 0.951 . S
H2073 C2092 0.951 . S
H2074 C2094 0.950 . S
H2075 C2095 0.950 . S
H2076 C2097 0.950 . S
H2077 C2100 0.950 . S
H2078 C2101 0.950 . S
H2079 C2103 0.950 . S
H2080 C2104 0.950 . S
H2081 C2105 0.951 . S
H2082 C2107 0.951 . S
H2083 C2109 0.950 . S
H2084 C2110 0.950 . S
H2085 C2112 0.950 . S
H2086 C2115 0.950 . S
H2087 C2116 0.950 . S
H2088 C2118 0.950 . S
H2089 C2119 0.950 . S
C2090 H2072 0.951 . S
C2090 C2091 1.366 . S
C2090 C2092 1.388 . S
C2091 C2090 1.366 . S
C2091 C2095 1.385 . S
C2092 H2073 0.951 . S
C2092 C2090 1.388 . S
C2092 C2093 1.366 . S
C2093 C2092 1.366 . S
C2093 C2094 1.414 . S
C2093 C2096 1.499 . S
C2094 H2074 0.950 . S
C2094 C2093 1.414 . S
C2094 C2095 1.374 . S
C2095 H2075 0.950 . S
C2095 C2091 1.385 . S
C2095 C2094 1.374 . S
C2096 C2093 1.499 . S
C2096 C2097 1.373 . S
C2096 C2098 1.389 . S
C2097 H2076 0.950 . S
C2097 C2096 1.373 . S
C2097 C2113 1.377 . S
C2098 C2096 1.389 . S
C2098 C2099 1.524 . S
C2098 C2112 1.377 . S
C2099 C2098 1.524 . S
C2099 C2100 1.397 . S
C2099 C2104 1.363 . S
C2100 H2077 0.950 . S
C2100 C2099 1.397 . S
C2100 C2101 1.334 . S
C2101 H2078 0.950 . S
C2101 C2100 1.334 . S
C2101 C2102 1.287 . S
C2102 C2101 1.287 . S
C2102 C2103 1.524 . S
C2102 H2121 0.913 . S
C2103 H2079 0.950 . S
C2103 C2102 1.524 . S
C2103 C2104 1.415 . S
C2104 H2080 0.950 . S
C2104 C2099 1.363 . S
C2104 C2103 1.415 . S
C2105 H2081 0.951 . S
C2105 C2106 1.366 . S
C2105 C2107 1.388 . S
C2106 C2105 1.366 . S
C2106 C2110 1.385 . S
C2107 H2082 0.951 . S
C2107 C2105 1.388 . S
C2107 C2108 1.366 . S
C2108 C2107 1.366 . S
C2108 C2109 1.414 . S
C2108 C2111 1.499 . S
C2109 H2083 0.950 . S
C2109 C2108 1.414 . S
C2109 C2110 1.374 . S
C2110 H2084 0.950 . S
C2110 C2106 1.385 . S
C2110 C2109 1.374 . S
C2111 C2108 1.499 . S
C2111 C2112 1.373 . S
C2111 C2113 1.389 . S
C2112 H2085 0.950 . S
C2112 C2098 1.377 . S
C2112 C2111 1.373 . S
C2113 C2097 1.377 . S
C2113 C2111 1.389 . S
C2113 C2114 1.524 . S
C2114 C2113 1.524 . S
C2114 C2115 1.397 . S
C2114 C2119 1.363 . S
C2115 H2086 0.950 . S
C2115 C2114 1.397 . S
C2115 C2116 1.334 . S
C2116 H2087 0.950 . S
C2116 C2115 1.334 . S
C2116 C2117 1.287 . S
C2117 C2116 1.287 . S
C2117 C2118 1.524 . S
C2117 H2120 0.999 . S
C2118 H2088 0.950 . S
C2118 C2117 1.524 . S
C2118 C2119 1.415 . S
C2119 H2089 0.950 . S
C2119 C2114 1.363 . S
C2119 C2118 1.415 . S
H2120 C2117 0.999 . S
H2121 C2102 0.913 . S
H2122 C2140 0.951 . S
H2123 C2142 0.951 . S
H2124 C2144 0.950 . S
H2125 C2145 0.950 . S
H2126 C2147 0.950 . S
H2127 C2150 0.950 . S
H2128 C2151 0.950 . S
H2129 C2153 0.950 . S
H2130 C2154 0.950 . S
H2131 C2155 0.951 . S
H2132 C2157 0.951 . S
H2133 C2159 0.950 . S
H2134 C2160 0.950 . S
H2135 C2162 0.950 . S
H2136 C2165 0.950 . S
H2137 C2166 0.950 . S
H2138 C2168 0.950 . S
H2139 C2169 0.950 . S
C2140 H2122 0.951 . S
C2140 C2141 1.366 . S
C2140 C2142 1.388 . S
C2141 C2140 1.366 . S
C2141 C2145 1.385 . S
C2142 H2123 0.951 . S
C2142 C2140 1.388 . S
C2142 C2143 1.366 . S
C2143 C2142 1.366 . S
C2143 C2144 1.414 . S
C2143 C2146 1.499 . S
C2144 H2124 0.950 . S
C2144 C2143 1.414 . S
C2144 C2145 1.374 . S
C2145 H2125 0.950 . S
C2145 C2141 1.385 . S
C2145 C2144 1.374 . S
C2146 C2143 1.499 . S
C2146 C2147 1.373 . S
C2146 C2148 1.389 . S
C2147 H2126 0.950 . S
C2147 C2146 1.373 . S
C2147 C2163 1.377 . S
C2148 C2146 1.389 . S
C2148 C2149 1.524 . S
C2148 C2162 1.377 . S
C2149 C2148 1.524 . S
C2149 C2150 1.397 . S
C2149 C2154 1.363 . S
C2150 H2127 0.950 . S
C2150 C2149 1.397 . S
C2150 C2151 1.334 . S
C2151 H2128 0.950 . S
C2151 C2150 1.334 . S
C2151 C2152 1.287 . S
C2152 C2151 1.287 . S
C2152 C2153 1.524 . S
C2152 H2171 0.913 . S
C2153 H2129 0.950 . S
C2153 C2152 1.524 . S
C2153 C2154 1.415 . S
C2154 H2130 0.950 . S
C2154 C2149 1.363 . S
C2154 C2153 1.415 . S
C2155 H2131 0.951 . S
C2155 C2156 1.366 . S
C2155 C2157 1.388 . S
C2156 C2155 1.366 . S
C2156 C2160 1.385 . S
C2157 H2132 0.951 . S
C2157 C2155 1.388 . S
C2157 C2158 1.366 . S
C2158 C2157 1.366 . S
C2158 C2159 1.414 . S
C2158 C2161 1.499 . S
C2159 H2133 0.950 . S
C2159 C2158 1.414 . S
C2159 C2160 1.374 . S
C2160 H2134 0.950 . S
C2160 C2156 1.385 . S
C2160 C2159 1.374 . S
C2161 C2158 1.499 . S
C2161 C2162 1.373 . S
C2161 C2163 1.389 . S
C2162 H2135 0.950 . S
C2162 C2148 1.377 . S
C2162 C2161 1.373 . S
C2163 C2147 1.377 . S
C2163 C2161 1.389 . S
C2163 C2164 1.524 . S
C2164 C2163 1.524 . S
C2164 C2165 1.397 . S
C2164 C2169 1.363 . S
C2165 H2136 0.950 . S
C2165 C2164 1.397 . S
C2165 C2166 1.334 . S
C2166 H2137 0.950 . S
C2166 C2165 1.334 . S
C2166 C2167 1.287 . S
C2167 C2166 1.287 . S
C2167 C2168 1.524 . S
C2167 H2170 0.999 . S
C2168 H2138 0.950 . S
C2168 C2167 1.524 . S
C2168 C2169 1.415 . S
C2169 H2139 0.950 . S
C2169 C2164 1.363 . S
C2169 C2168 1.415 . S
H2170 C2167 0.999 . S
H2171 C2152 0.913 . S
H2172 C2190 0.951 . S
H2173 C2192 0.951 . S
H2174 C2194 0.950 . S
H2175 C2195 0.950 . S
H2176 C2197 0.950 . S
H2177 C2200 0.950 . S
H2178 C2201 0.950 . S
H2179 C2203 0.950 . S
H2180 C2204 0.950 . S
H2181 C2205 0.951 . S
H2182 C2207 0.951 . S
H2183 C2209 0.950 . S
H2184 C2210 0.950 . S
H2185 C2212 0.950 . S
H2186 C2215 0.950 . S
H2187 C2216 0.950 . S
H2188 C2218 0.950 . S
H2189 C2219 0.950 . S
C2190 H2172 0.951 . S
C2190 C2191 1.366 . S
C2190 C2192 1.388 . S
C2191 C2190 1.366 . S
C2191 C2195 1.385 . S
C2192 H2173 0.951 . S
C2192 C2190 1.388 . S
C2192 C2193 1.366 . S
C2193 C2192 1.366 . S
C2193 C2194 1.414 . S
C2193 C2196 1.499 . S
C2194 H2174 0.950 . S
C2194 C2193 1.414 . S
C2194 C2195 1.374 . S
C2195 H2175 0.950 . S
C2195 C2191 1.385 . S
C2195 C2194 1.374 . S
C2196 C2193 1.499 . S
C2196 C2197 1.373 . S
C2196 C2198 1.389 . S
C2197 H2176 0.950 . S
C2197 C2196 1.373 . S
C2197 C2213 1.377 . S
C2198 C2196 1.389 . S
C2198 C2199 1.524 . S
C2198 C2212 1.377 . S
C2199 C2198 1.524 . S
C2199 C2200 1.397 . S
C2199 C2204 1.363 . S
C2200 H2177 0.950 . S
C2200 C2199 1.397 . S
C2200 C2201 1.334 . S
C2201 H2178 0.950 . S
C2201 C2200 1.334 . S
C2201 C2202 1.287 . S
C2202 C2201 1.287 . S
C2202 C2203 1.524 . S
C2202 H2221 0.913 . S
C2203 H2179 0.950 . S
C2203 C2202 1.524 . S
C2203 C2204 1.415 . S
C2204 H2180 0.950 . S
C2204 C2199 1.363 . S
C2204 C2203 1.415 . S
C2205 H2181 0.951 . S
C2205 C2206 1.366 . S
C2205 C2207 1.388 . S
C2206 C2205 1.366 . S
C2206 C2210 1.385 . S
C2207 H2182 0.951 . S
C2207 C2205 1.388 . S
C2207 C2208 1.366 . S
C2208 C2207 1.366 . S
C2208 C2209 1.414 . S
C2208 C2211 1.499 . S
C2209 H2183 0.950 . S
C2209 C2208 1.414 . S
C2209 C2210 1.374 . S
C2210 H2184 0.950 . S
C2210 C2206 1.385 . S
C2210 C2209 1.374 . S
C2211 C2208 1.499 . S
C2211 C2212 1.373 . S
C2211 C2213 1.389 . S
C2212 H2185 0.950 . S
C2212 C2198 1.377 . S
C2212 C2211 1.373 . S
C2213 C2197 1.377 . S
C2213 C2211 1.389 . S
C2213 C2214 1.524 . S
C2214 C2213 1.524 . S
C2214 C2215 1.397 . S
C2214 C2219 1.363 . S
C2215 H2186 0.950 . S
C2215 C2214 1.397 . S
C2215 C2216 1.334 . S
C2216 H2187 0.950 . S
C2216 C2215 1.334 . S
C2216 C2217 1.287 . S
C2217 C2216 1.287 . S
C2217 C2218 1.524 . S
C2217 H2220 0.999 . S
C2218 H2188 0.950 . S
C2218 C2217 1.524 . S
C2218 C2219 1.415 . S
C2219 H2189 0.950 . S
C2219 C2214 1.363 . S
C2219 C2218 1.415 . S
H2220 C2217 0.999 . S
H2221 C2202 0.913 . S
H2222 C2240 0.951 . S
H2223 C2242 0.951 . S
H2224 C2244 0.950 . S
H2225 C2245 0.950 . S
H2226 C2247 0.950 . S
H2227 C2250 0.950 . S
H2228 C2251 0.950 . S
H2229 C2253 0.950 . S
H2230 C2254 0.950 . S
H2231 C2255 0.951 . S
H2232 C2257 0.951 . S
H2233 C2259 0.950 . S
H2234 C2260 0.950 . S
H2235 C2262 0.950 . S
H2236 C2265 0.950 . S
H2237 C2266 0.950 . S
H2238 C2268 0.950 . S
H2239 C2269 0.950 . S
C2240 H2222 0.951 . S
C2240 C2241 1.366 . S
C2240 C2242 1.388 . S
C2241 C2240 1.366 . S
C2241 C2245 1.385 . S
C2242 H2223 0.951 . S
C2242 C2240 1.388 . S
C2242 C2243 1.366 . S
C2243 C2242 1.366 . S
C2243 C2244 1.414 . S
C2243 C2246 1.499 . S
C2244 H2224 0.950 . S
C2244 C2243 1.414 . S
C2244 C2245 1.374 . S
C2245 H2225 0.950 . S
C2245 C2241 1.385 . S
C2245 C2244 1.374 . S
C2246 C2243 1.499 . S
C2246 C2247 1.373 . S
C2246 C2248 1.389 . S
C2247 H2226 0.950 . S
C2247 C2246 1.373 . S
C2247 C2263 1.377 . S
C2248 C2246 1.389 . S
C2248 C2249 1.524 . S
C2248 C2262 1.377 . S
C2249 C2248 1.524 . S
C2249 C2250 1.397 . S
C2249 C2254 1.363 . S
C2250 H2227 0.950 . S
C2250 C2249 1.397 . S
C2250 C2251 1.334 . S
C2251 H2228 0.950 . S
C2251 C2250 1.334 . S
C2251 C2252 1.287 . S
C2252 C2251 1.287 . S
C2252 C2253 1.524 . S
C2252 H2271 0.913 . S
C2253 H2229 0.950 . S
C2253 C2252 1.524 . S
C2253 C2254 1.415 . S
C2254 H2230 0.950 . S
C2254 C2249 1.363 . S
C2254 C2253 1.415 . S
C2255 H2231 0.951 . S
C2255 C2256 1.366 . S
C2255 C2257 1.388 . S
C2256 C2255 1.366 . S
C2256 C2260 1.385 . S
C2257 H2232 0.951 . S
C2257 C2255 1.388 . S
C2257 C2258 1.366 . S
C2258 C2257 1.366 . S
C2258 C2259 1.414 . S
C2258 C2261 1.499 . S
C2259 H2233 0.950 . S
C2259 C2258 1.414 . S
C2259 C2260 1.374 . S
C2260 H2234 0.950 . S
C2260 C2256 1.385 . S
C2260 C2259 1.374 . S
C2261 C2258 1.499 . S
C2261 C2262 1.373 . S
C2261 C2263 1.389 . S
C2262 H2235 0.950 . S
C2262 C2248 1.377 . S
C2262 C2261 1.373 . S
C2263 C2247 1.377 . S
C2263 C2261 1.389 . S
C2263 C2264 1.524 . S
C2264 C2263 1.524 . S
C2264 C2265 1.397 . S
C2264 C2269 1.363 . S
C2265 H2236 0.950 . S
C2265 C2264 1.397 . S
C2265 C2266 1.334 . S
C2266 H2237 0.950 . S
C2266 C2265 1.334 . S
C2266 C2267 1.287 . S
C2267 C2266 1.287 . S
C2267 C2268 1.524 . S
C2267 H2270 0.999 . S
C2268 H2238 0.950 . S
C2268 C2267 1.524 . S
C2268 C2269 1.415 . S
C2269 H2239 0.950 . S
C2269 C2264 1.363 . S
C2269 C2268 1.415 . S
H2270 C2267 0.999 . S
H2271 C2252 0.913 . S
C706 C423 1.246 . S
C691 C36 1.223 . S
C756 C460 1.228 . S
C741 C93 1.239 . S
C806 C496 1.246 . S
C791 C126 1.242 . S
C841 C165 1.233 . S
C856 C387 1.263 . S
C891 C222 1.245 . S
C906 C388 1.247 . S
C941 C261 1.224 . S
C956 C424 1.228 . S
C1006 C459 1.247 . S
C991 C318 1.227 . S
C1056 C495 1.265 . S
C1041 C381 1.251 . S
C1091 C132 1.224 . S
C1106 C567 1.247 . S
C1156 C604 1.230 . S
C1141 C189 1.240 . S
C1191 C30 1.244 . S
C1206 C640 1.246 . S
C1256 C531 1.265 . S
C1241 C69 1.235 . S
C1291 C324 1.240 . S
C1306 C532 1.246 . S
C1341 C357 1.223 . S
C1356 C568 1.228 . S
C1406 C603 1.246 . S
C1391 C228 1.224 . S
C1441 C285 1.250 . S
C1456 C639 1.264 . S
C1506 C458 1.701 . S
C1491 C45 1.690 . S
C1556 C494 1.685 . S
C1541 C84 1.681 . S
C1591 C117 1.626 . S
C1606 C398 1.511 . S
C1641 C174 1.624 . S
C1656 C434 1.529 . S
C1691 C213 1.628 . S
C1706 C506 1.513 . S
C1756 C386 1.686 . S
C1741 C270 1.652 . S
C1806 C422 1.705 . S
C1791 C309 1.694 . S
C1856 C470 1.532 . S
C1841 C372 1.654 . S
C1906 C602 1.704 . S
C1891 C141 1.692 . S
C1956 C638 1.686 . S
C1941 C180 1.683 . S
C1991 C21 1.628 . S
C2006 C542 1.514 . S
C2056 C578 1.531 . S
C2041 C78 1.624 . S
C2106 C650 1.511 . S
C2091 C333 1.625 . S
C2141 C366 1.649 . S
C2156 C530 1.683 . S
C2206 C566 1.701 . S
C2191 C237 1.690 . S
C2256 C614 1.529 . S
C2241 C276 1.652 . S
