# Generated by pormake.
# Topology zzz, (3,6)-cn, num edge types: 1
# Building blocks:
#     Node 0, Type 0, BuildingBlock: QEWDON_clean_linker_0, # of connection points: 3
#     Node 1, Type 0, BuildingBlock: QEWDON_clean_linker_0, # of connection points: 3
#     Node 2, Type 0, BuildingBlock: QEWDON_clean_linker_0, # of connection points: 3
#     Node 3, Type 0, BuildingBlock: QEWDON_clean_linker_0, # of connection points: 3
#     Node 4, Type 0, BuildingBlock: QEWDON_clean_linker_0, # of connection points: 3
#     Node 5, Type 0, BuildingBlock: QEWDON_clean_linker_0, # of connection points: 3
#     Node 6, Type 0, BuildingBlock: QEWDON_clean_linker_0, # of connection points: 3
#     Node 7, Type 0, BuildingBlock: QEWDON_clean_linker_0, # of connection points: 3
#     Node 8, Type 1, BuildingBlock: BETDEL_clean_sbu_0, # of connection points: 6
#     Node 9, Type 1, BuildingBlock: BETDEL_clean_sbu_0, # of connection points: 6
#     Node 10, Type 1, BuildingBlock: BETDEL_clean_sbu_0, # of connection points: 6
#     Node 11, Type 1, BuildingBlock: BETDEL_clean_sbu_0, # of connection points: 6
#     Edge 12, Type (0, 1), BuildingBlock: CIFDUS_clean_linker_0, # of connection points: 2
#     Edge 13, Type (0, 1), BuildingBlock: CIFDUS_clean_linker_0, # of connection points: 2
#     Edge 14, Type (0, 1), BuildingBlock: CIFDUS_clean_linker_0, # of connection points: 2
#     Edge 15, Type (0, 1), BuildingBlock: CIFDUS_clean_linker_0, # of connection points: 2
#     Edge 16, Type (0, 1), BuildingBlock: CIFDUS_clean_linker_0, # of connection points: 2
#     Edge 17, Type (0, 1), BuildingBlock: CIFDUS_clean_linker_0, # of connection points: 2
#     Edge 18, Type (0, 1), BuildingBlock: CIFDUS_clean_linker_0, # of connection points: 2
#     Edge 19, Type (0, 1), BuildingBlock: CIFDUS_clean_linker_0, # of connection points: 2
#     Edge 20, Type (0, 1), BuildingBlock: CIFDUS_clean_linker_0, # of connection points: 2
#     Edge 21, Type (0, 1), BuildingBlock: CIFDUS_clean_linker_0, # of connection points: 2
#     Edge 22, Type (0, 1), BuildingBlock: CIFDUS_clean_linker_0, # of connection points: 2
#     Edge 23, Type (0, 1), BuildingBlock: CIFDUS_clean_linker_0, # of connection points: 2
#     Edge 24, Type (0, 1), BuildingBlock: CIFDUS_clean_linker_0, # of connection points: 2
#     Edge 25, Type (0, 1), BuildingBlock: CIFDUS_clean_linker_0, # of connection points: 2
#     Edge 26, Type (0, 1), BuildingBlock: CIFDUS_clean_linker_0, # of connection points: 2
#     Edge 27, Type (0, 1), BuildingBlock: CIFDUS_clean_linker_0, # of connection points: 2
#     Edge 28, Type (0, 1), BuildingBlock: CIFDUS_clean_linker_0, # of connection points: 2
#     Edge 29, Type (0, 1), BuildingBlock: CIFDUS_clean_linker_0, # of connection points: 2
#     Edge 30, Type (0, 1), BuildingBlock: CIFDUS_clean_linker_0, # of connection points: 2
#     Edge 31, Type (0, 1), BuildingBlock: CIFDUS_clean_linker_0, # of connection points: 2
#     Edge 32, Type (0, 1), BuildingBlock: CIFDUS_clean_linker_0, # of connection points: 2
#     Edge 33, Type (0, 1), BuildingBlock: CIFDUS_clean_linker_0, # of connection points: 2
#     Edge 34, Type (0, 1), BuildingBlock: CIFDUS_clean_linker_0, # of connection points: 2
#     Edge 35, Type (0, 1), BuildingBlock: CIFDUS_clean_linker_0, # of connection points: 2
# Relax obj value: 0.094
# Max RMSD: 0.194
# Mean RMSD: 0.073
data_MOF--net-zzz--node1-BETDEL_clean_sbu_0--node2-QEWDON_clean_linker_0--edge1-CIFDUS_clean_linker_0
_symmetry_space_group_name_H-M    P1
_symmetry_Int_Tables_number       1
_symmetry_cell_setting            triclinic
loop_
_symmetry_equiv_pos_as_xyz
'x, y, z'
_cell_length_a     46.13753
_cell_length_b     46.907702
_cell_length_c     13.038285
_cell_angle_alpha  91.6931
_cell_angle_beta   87.784598
_cell_angle_gamma 94.561494
loop_
_atom_site_label
_atom_site_type_symbol
_atom_site_fract_x
_atom_site_fract_y
_atom_site_fract_z
_atom_type_partial_charge
H0 H 0.76383 0.52452 -0.00697 0.0
C1 C 0.77514 0.52051 0.06166 0.0
C2 C 0.80256 0.51036 0.04928 0.0
C3 C 0.76339 0.5269 0.16071 0.0
H4 H 0.84129 0.50137 0.11976 0.0
C5 C 0.81925 0.5074 0.13413 0.0
C6 C 0.80999 0.51561 0.23303 0.0
C7 C 0.78156 0.52504 0.24673 0.0
C8 C 0.73318 0.53723 0.17006 0.0
H9 H 0.77394 0.53083 0.3234 0.0
C10 C 0.71277 0.53044 0.09235 0.0
C11 C 0.68599 0.54307 0.09186 0.0
C12 C 0.72493 0.55541 0.25206 0.0
H13 H 0.73964 0.56177 0.31261 0.0
C14 C 0.69771 0.56666 0.25532 0.0
H15 H 0.71761 0.51543 0.0307 0.0
C16 C 0.67853 0.56087 0.17559 0.0
H17 H 0.65828 0.57112 0.17802 0.0
H18 H 0.69184 0.58079 0.31859 0.0
H19 H 0.99586 0.77258 0.90785 0.0
C20 C 0.99583 0.78677 0.97468 0.0
C21 C 0.995 0.81588 0.95891 0.0
C22 C 0.9961 0.77648 0.07556 0.0
H23 H 0.99112 0.85723 0.02737 0.0
C24 C 0.99305 0.83482 0.04235 0.0
C25 C 0.99748 0.82642 0.14184 0.0
C26 C 0.99815 0.79685 0.15928 0.0
C27 C 0.99343 0.74477 0.09174 0.0
H28 H 1.00099 0.78995 0.23647 0.0
C29 C 1.0021 0.72514 0.01365 0.0
C30 C 0.99536 0.69539 0.02195 0.0
C31 C 0.97959 0.73368 0.18171 0.0
H32 H 0.97201 0.74768 0.24273 0.0
C33 C 0.97402 0.70422 0.19251 0.0
H34 H 1.01404 0.73282 0.94567 0.0
C35 C 0.9814 0.68525 0.1131 0.0
H36 H 0.9754 0.66266 0.12235 0.0
H37 H 0.963 0.69608 0.26169 0.0
H38 H 0.77199 0.0261 0.95094 0.0
C39 C 0.75927 0.02594 0.02236 0.0
C40 C 0.73188 0.03694 0.02321 0.0
C41 C 0.76934 1.0135 0.1105 0.0
H42 H 0.6922 0.04205 0.11205 0.0
C43 C 0.71412 0.0352 0.11245 0.0
C44 C 0.72269 0.02216 0.1996 0.0
C45 C 0.75046 1.01165 0.19972 0.0
C46 C 0.79839 1.00071 0.1052 0.0
H47 H 0.75687 1.00192 0.26862 0.0
C48 C 0.82087 1.01019 0.0335 0.0
C49 C 0.84704 0.99647 0.02213 0.0
C50 C 0.80343 0.97773 0.1677 0.0
H51 H 0.78691 0.96893 0.22142 0.0
C52 C 0.8297 0.96485 0.15951 0.0
H53 H 0.8183 0.02829 -0.01388 0.0
C54 C 0.85125 0.97395 0.08717 0.0
H55 H 0.87088 0.96272 0.08012 0.0
H56 H 0.83307 0.94712 0.20786 0.0
H57 H 0.51277 0.76602 0.97654 0.0
C58 C 0.52379 0.75247 0.02565 0.0
C59 C 0.51887 0.72267 0.01447 0.0
C60 C 0.54192 0.76455 0.10323 0.0
H61 H 0.52946 0.68181 0.06648 0.0
C62 C 0.53299 0.70489 0.07682 0.0
C63 C 0.55094 0.71591 0.15384 0.0
C64 C 0.55531 0.74582 0.16803 0.0
C65 C 0.54526 0.79641 0.121 0.0
H66 H 0.56909 0.75432 0.22887 0.0
C67 C 0.54664 0.81593 0.03905 0.0
C68 C 0.54994 0.84585 0.05908 0.0
C69 C 0.54641 0.80755 0.22231 0.0
H70 H 0.54448 0.79354 0.28715 0.0
C71 C 0.54939 0.83696 0.24205 0.0
H72 H 0.54598 0.80799 0.96026 0.0
C73 C 0.55127 0.85592 0.16151 0.0
H74 H 0.55349 0.87868 0.17948 0.0
H75 H 0.55016 0.84512 0.32052 0.0
H76 H 0.27468 0.52699 0.15685 0.0
C77 C 0.26089 0.52109 0.09322 0.0
C78 C 0.23096 0.51756 0.11342 0.0
C79 C 0.27253 0.51708 -0.00804 0.0
H80 H 0.18904 0.50924 0.05054 0.0
C81 C 0.2123 0.51187 0.03303 0.0
C82 C 0.22229 0.51144 0.93102 0.0
C83 C 0.25265 0.51268 0.91012 0.0
C84 C 0.30511 0.51805 0.97359 0.0
H85 H 0.26036 0.51049 0.83117 0.0
C86 C 0.32377 0.51206 0.0532 0.0
C87 C 0.35441 0.51386 0.03836 0.0
C88 C 0.31804 0.52537 0.8774 0.0
H89 H 0.30515 0.53097 0.81462 0.0
C90 C 0.34816 0.52614 0.86075 0.0
H91 H 0.31456 0.50627 0.12766 0.0
C92 C 0.36618 0.5204 0.93992 0.0
H93 H 0.38938 0.52106 0.92332 0.0
H94 H 0.35767 0.53153 0.78593 0.0
H95 H 1.0012 0.27433 0.17859 0.0
C96 C 1.01015 0.26042 0.11973 0.0
C97 C 1.01039 0.2313 0.13808 0.0
C98 C 1.02057 0.27118 0.02406 0.0
H99 H 1.01977 0.19017 0.07738 0.0
C100 C 1.02094 0.21287 0.06223 0.0
C101 C 0.03302 0.22285 0.96912 0.0
C102 C 0.03234 0.2522 0.94917 0.0
C103 C 1.01711 0.30166 0.00078 0.0
H104 H 0.04098 0.26024 0.87625 0.0
C105 C 1.02114 0.3237 0.07661 0.0
C106 C 1.01445 0.35198 0.05801 0.0
C107 C 1.00734 0.30846 0.9045 0.0
H108 H 1.00356 0.29207 0.84523 0.0
C109 C 1.00094 0.33626 0.88498 0.0
H110 H 0.02956 0.31872 0.14975 0.0
C111 C 1.00403 0.3577 0.96102 0.0
H112 H 0.99756 0.37864 0.94372 0.0
H113 H 0.99284 0.34109 0.81114 0.0
H114 H 0.27701 1.01303 0.12603 0.0
C115 C 0.29278 0.02167 0.0691 0.0
C116 C 0.32242 1.01923 0.08324 0.0
C117 C 0.2836 0.03366 0.97871 0.0
H118 H 0.36598 0.02789 0.02126 0.0
C119 C 0.34301 0.0296 0.00947 0.0
C120 C 0.33476 0.0414 0.91949 0.0
C121 C 0.30502 0.04365 0.90384 0.0
C122 C 0.25178 0.03311 0.95882 0.0
H123 H 0.2987 0.05267 0.83332 0.0
C124 C 0.23076 0.03738 0.03903 0.0
C125 C 0.20056 0.03433 0.02054 0.0
C126 C 0.2421 0.02635 0.85947 0.0
H127 H 0.25733 0.02225 0.79654 0.0
C128 C 0.21251 0.02354 0.84043 0.0
H129 H 0.23796 0.04324 0.11536 0.0
C130 C 0.19195 0.02717 0.91989 0.0
H131 H 0.1692 0.02365 0.90219 0.0
H132 H 0.20541 1.01786 0.7638 0.0
H133 H 0.54651 0.27559 0.12807 0.0
C134 C 0.53887 0.28827 0.06805 0.0
C135 C 0.54105 0.31824 0.07934 0.0
C136 C 0.52727 0.27499 0.97786 0.0
H137 H 0.53404 0.35798 0.01111 0.0
C138 C 0.53175 0.33482 0.00183 0.0
C139 C 0.51883 0.32252 0.91478 0.0
C140 C 0.51692 0.29255 0.90194 0.0
C141 C 0.52682 0.24317 0.96003 0.0
H142 H 0.50701 0.28303 0.83384 0.0
C143 C 0.52115 0.22336 0.04031 0.0
C144 C 0.52002 0.1935 0.0188 0.0
C145 C 0.53235 0.23237 0.85982 0.0
H146 H 0.53776 0.24664 0.79693 0.0
C147 C 0.53143 0.20304 0.83893 0.0
H148 H 0.51681 0.23098 0.11818 0.0
C149 C 0.52515 0.18377 0.91732 0.0
H150 H 0.5247 0.16107 0.89876 0.0
H151 H 0.5357 0.19518 0.76135 0.0
Dy152 Dy 0.047 1.00717 0.64513 0.0
C153 C 0.02338 0.09148 0.37798 0.0
C154 C 0.04395 0.95971 0.75991 0.0
Dy155 Dy 0.02527 0.04362 0.48905 0.0
O156 O 0.06815 0.97406 0.73215 0.0
O157 O 0.02198 0.97292 0.73306 0.0
O158 O 0.0934 0.0207 0.60594 0.0
O159 O 0.06291 1.01802 0.48913 0.0
C160 C 0.0891 0.02551 0.51012 0.0
C161 C 0.98448 0.02539 0.63063 0.0
O162 O 0.0233 1.0036 0.39118 0.0
O163 O 0.02607 0.97525 0.53158 0.0
O164 O 1.00063 0.07508 0.40652 0.0
O165 O 0.0468 0.08014 0.40196 0.0
O166 O 0.97893 0.02882 0.53499 0.0
O167 O 1.01066 0.03362 0.64589 0.0
O168 O 0.05175 0.04819 0.73925 0.0
O169 O 0.04809 0.07531 0.59628 0.0
C170 C 0.02137 0.97808 0.43315 0.0
C171 C 0.05362 0.07337 0.69428 0.0
Dy172 Dy 0.50556 1.00215 0.46757 0.0
C173 C 0.59944 0.05177 0.70053 0.0
C174 C 0.45296 0.98758 0.38546 0.0
Dy175 Dy 0.54845 0.03477 0.612 0.0
O176 O 0.47679 0.9757 0.35862 0.0
O177 O 0.45823 1.0076 0.45429 0.0
O178 O 0.54117 0.97838 0.3907 0.0
O179 O 0.55061 0.01987 0.45268 0.0
C180 C 0.56168 0.99798 0.41425 0.0
C181 C 0.4917 0.03646 0.66574 0.0
O182 O 0.54655 0.06835 0.49482 0.0
O183 O 0.50721 0.04737 0.40667 0.0
O184 O 0.59531 0.03007 0.63761 0.0
O185 O 0.57526 0.06384 0.71886 0.0
O186 O 0.511 0.0572 0.68892 0.0
O187 O 0.50437 1.01584 0.6266 0.0
O188 O 0.50893 0.96792 0.5833 0.0
O189 O 0.54835 0.9896 0.66993 0.0
C190 C 0.52629 0.06956 0.426 0.0
C191 C 0.52969 0.96706 0.65099 0.0
Dy192 Dy 0.50046 0.53672 0.65001 0.0
C193 C 0.54484 0.46481 0.34981 0.0
C194 C 0.4845 0.57748 0.78993 0.0
Dy195 Dy 0.5369 0.50834 0.48932 0.0
O196 O 0.46638 0.56002 0.74046 0.0
O197 O 0.51092 0.57157 0.766 0.0
O198 O 0.45981 0.51893 0.57278 0.0
O199 O 0.49741 0.53063 0.48444 0.0
C200 C 0.47164 0.51956 0.48072 0.0
C201 C 0.56684 0.52625 0.65423 0.0
O202 O 0.54403 0.55234 0.42205 0.0
O203 O 0.52416 0.57371 0.56806 0.0
O204 O 0.56463 0.47579 0.41107 0.0
O205 O 0.52241 0.47984 0.35814 0.0
O206 O 0.57824 0.52536 0.56112 0.0
O207 O 0.54076 0.51536 0.65511 0.0
O208 O 0.4963 0.49404 0.7221 0.0
O209 O 0.51297 0.47148 0.57415 0.0
C210 C 0.53774 0.57562 0.47669 0.0
C211 C 0.50077 0.47038 0.66781 0.0
Dy212 Dy 0.99801 0.50364 0.67497 0.0
C213 C 0.08065 0.51966 0.35196 0.0
C214 C 0.95405 0.50794 0.81669 0.0
Dy215 Dy 0.0349 0.52343 0.48769 0.0
O216 O 0.96131 0.484 0.77395 0.0
O217 O 0.97252 0.52875 0.7886 0.0
O218 O 1.00716 0.45786 0.64237 0.0
O219 O 1.00524 0.48622 0.52099 0.0
C220 C 1.011 0.46133 0.5437 0.0
C221 C 0.02219 0.56491 0.62447 0.0
O222 O 0.99136 0.5211 0.41451 0.0
O223 O 0.96562 0.52075 0.57089 0.0
O224 O 0.07185 0.54364 0.38958 0.0
O225 O 0.06269 0.49859 0.38097 0.0
O226 O 0.0252 0.56941 0.52616 0.0
O227 O 0.02821 0.53989 0.64177 0.0
O228 O 0.04129 0.50478 0.74782 0.0
O229 O 0.06729 0.50631 0.59205 0.0
C230 C 0.9666 0.52264 0.46963 0.0
C231 C 0.0661 0.50365 0.69306 0.0
H232 H 0.20263 0.02104 0.22466 0.0
H233 H 0.14662 0.05517 0.00846 0.0
H234 H 0.10731 0.05475 0.13813 0.0
H235 H 0.0877 0.04296 0.31232 0.0
H236 H 0.14523 1.01376 0.53286 0.0
H237 H 0.18488 1.01457 0.40328 0.0
C238 C 0.18211 0.02897 0.20588 0.0
C239 C 0.17777 0.03744 0.105 0.0
C240 C 0.15957 0.0295 0.28209 0.0
C241 C 0.15064 0.04748 0.08366 0.0
C242 C 0.12803 0.04751 0.15832 0.0
C243 C 0.10899 0.03699 0.33198 0.0
C244 C 0.11337 0.02808 0.43189 0.0
C245 C 0.13204 0.03813 0.25743 0.0
C246 C 0.14118 0.02066 0.45653 0.0
C247 C 0.16392 0.02107 0.3823 0.0
H248 H 0.54935 0.18696 0.19392 0.0
H249 H 0.47737 0.15006 0.0208 0.0
H250 H 0.47189 0.109 0.13315 0.0
H251 H 0.49002 0.08155 0.27267 0.0
H252 H 0.56299 0.11808 0.44305 0.0
H253 H 0.56552 0.16082 0.34073 0.0
C254 C 0.53206 0.17024 0.18252 0.0
C255 C 0.51372 0.17166 0.09938 0.0
C256 C 0.52948 0.14622 0.24619 0.0
C257 C 0.49173 0.14952 0.08444 0.0
C258 C 0.48869 0.12592 0.14834 0.0
C259 C 0.50638 0.09889 0.28795 0.0
C260 C 0.52641 0.0962 0.36543 0.0
C261 C 0.50788 0.12366 0.22809 0.0
C262 C 0.54733 0.11918 0.38384 0.0
C263 C 0.54882 0.14383 0.32524 0.0
H264 H 0.40929 0.53941 0.06987 0.0
H265 H 0.34436 0.47897 0.20605 0.0
H266 H 0.37443 0.47568 0.35378 0.0
H267 H 0.4189 0.49084 0.44803 0.0
H268 H 0.48565 0.54709 0.30259 0.0
H269 H 0.45557 0.55023 0.15382 0.0
C270 C 0.40175 0.52493 0.13017 0.0
C271 C 0.37401 0.50987 0.12583 0.0
C272 C 0.41967 0.52224 0.2139 0.0
C273 C 0.36497 0.49168 0.20722 0.0
C274 C 0.38237 0.48948 0.2919 0.0
C275 C 0.4269 0.50356 0.38324 0.0
C276 C 0.45437 0.51888 0.38681 0.0
C277 C 0.40964 0.50489 0.29672 0.0
C278 C 0.46461 0.53507 0.30193 0.0
C279 C 0.44735 0.53697 0.21688 0.0
H280 H 1.00846 0.3478 0.26922 0.0
H281 H 0.02767 0.40967 0.03157 0.0
H282 H 0.02692 0.44833 0.15902 0.0
H283 H 1.01878 0.46509 0.33689 0.0
H284 H 1.00692 0.4039 0.57803 0.0
H285 H 1.00705 0.36456 0.45025 0.0
C286 C 1.01314 0.36961 0.24475 0.0
C287 C 1.01731 0.3754 0.13917 0.0
C288 C 1.01389 0.39204 0.31937 0.0
C289 C 0.02314 0.40416 0.1109 0.0
C290 C 0.02305 0.42648 0.18414 0.0
C291 C 1.01697 0.44319 0.36187 0.0
C292 C 1.01309 0.4375 0.46699 0.0
C293 C 1.01806 0.42072 0.28835 0.0
C294 C 1.01005 0.4089 0.4976 0.0
C295 C 1.01009 0.38639 0.42448 0.0
H296 H 0.90637 1.00208 0.0341 0.0
H297 H 0.8378 1.00797 0.82182 0.0
H298 H 0.87391 1.01698 0.68199 0.0
H299 H 0.92524 0.02185 0.61825 0.0
H300 H 0.99361 1.01708 0.83204 0.0
H301 H 0.95747 1.00843 0.97188 0.0
C302 C 0.89929 1.00532 0.95724 0.0
C303 C 0.86929 1.0043 0.93892 0.0
C304 C 0.92023 1.01039 0.87687 0.0
C305 C 0.86066 1.00897 0.83881 0.0
C306 C 0.88134 1.01388 0.75843 0.0
C307 C 0.93219 1.01884 0.69543 0.0
C308 C 0.96212 0.01982 0.71434 0.0
C309 C 0.9112 1.0144 0.77625 0.0
C310 C 0.97075 1.0162 0.81507 0.0
C311 C 0.95007 1.01135 0.89528 0.0
H312 H 0.51302 0.85203 0.90177 0.0
H313 H 0.59241 0.88868 0.03234 0.0
H314 H 0.59381 0.92868 0.91625 0.0
H315 H 0.5709 0.95517 0.78577 0.0
H316 H 0.49108 0.91934 0.65509 0.0
H317 H 0.49151 0.87745 0.76192 0.0
C318 C 0.53089 0.86849 0.90316 0.0
C319 C 0.55257 0.86731 0.97592 0.0
C320 C 0.53131 0.89191 0.83683 0.0
C321 C 0.5754 0.88907 0.97749 0.0
C322 C 0.57617 0.91205 0.91127 0.0
C323 C 0.55362 0.93819 0.78007 0.0
C324 C 0.53088 0.94074 0.71249 0.0
C325 C 0.55394 0.91406 0.84209 0.0
C326 C 0.50887 0.91821 0.70626 0.0
C327 C 0.50907 0.89413 0.76758 0.0
H328 H 0.62604 0.53626 0.08707 0.0
H329 H 0.70341 0.54255 0.8893 0.0
H330 H 0.67365 0.5386 0.73854 0.0
H331 H 0.62577 0.53376 0.66123 0.0
H332 H 0.54805 0.52683 0.85616 0.0
H333 H 0.57769 0.53119 0.00882 0.0
C334 C 0.63641 0.53685 0.01104 0.0
C335 C 0.66711 0.53948 0.00039 0.0
C336 C 0.61905 0.53469 0.92371 0.0
C337 C 0.67998 0.53997 0.90066 0.0
C338 C 0.66293 0.53798 0.81398 0.0
C339 C 0.61527 0.53331 0.7371 0.0
C340 C 0.58469 0.53004 0.74711 0.0
C341 C 0.63247 0.53538 0.82442 0.0
C342 C 0.57152 0.52936 0.84617 0.0
C343 C 0.5885 0.53179 0.93354 0.0
H344 H 1.0126 0.64102 0.03007 0.0
H345 H 0.99128 0.70363 0.81486 0.0
H346 H 0.99835 0.66953 0.6726 0.0
H347 H 1.00891 0.62081 0.60878 0.0
H348 H 0.0279 0.55832 0.82789 0.0
H349 H 0.02273 0.59309 0.96797 0.0
C350 C 1.00924 0.64726 0.95229 0.0
C351 C 1.00137 0.67503 0.93416 0.0
C352 C 1.01267 0.62733 0.8708 0.0
C353 C 0.99778 0.68265 0.83188 0.0
C354 C 1.00154 0.66302 0.75015 0.0
C355 C 1.01191 0.61489 0.68721 0.0
C356 C 1.01867 0.5869 0.70749 0.0
C357 C 1.00875 0.63515 0.7686 0.0
C358 C 0.02253 0.5796 0.8097 0.0
C359 C 1.01965 0.59953 0.89024 0.0
H360 H 0.04608 0.22135 0.2847 0.0
H361 H 0.95649 0.20952 0.20345 0.0
H362 H 0.95171 0.16262 0.28256 0.0
H363 H 0.97686 0.1206 0.33224 0.0
H364 H 0.06918 0.13089 0.38045 0.0
H365 H 0.06968 0.18193 0.35242 0.0
C366 C 0.0251 0.2091 0.28999 0.0
C367 C 1.00188 0.21835 0.23695 0.0
C368 C 0.02374 0.1809 0.3228 0.0
C369 C 0.97469 0.20265 0.24383 0.0
C370 C 0.97229 0.17542 0.28582 0.0
C371 C 0.99701 0.13411 0.33633 0.0
C372 C 0.02307 0.12195 0.35532 0.0
C373 C 0.99731 0.16349 0.31764 0.0
C374 C 0.04898 0.13964 0.36282 0.0
C375 C 0.04923 0.16892 0.34841 0.0
H376 H 0.35213 0.97241 0.08141 0.0
H377 H 0.31936 0.03774 0.28288 0.0
H378 H 0.35556 0.0292 0.40881 0.0
H379 H 0.40328 1.01177 0.43896 0.0
H380 H 0.43927 0.95074 0.22572 0.0
H381 H 0.39519 0.94881 0.12647 0.0
C382 C 0.35219 0.9838 0.15512 0.0
C383 C 0.33351 1.00582 0.17314 0.0
C384 C 0.37433 0.98022 0.22288 0.0
C385 C 0.33354 0.02063 0.26807 0.0
C386 C 0.35459 1.0161 0.33894 0.0
C387 C 0.40118 0.99762 0.37187 0.0
C388 C 0.42463 0.98194 0.33777 0.0
C389 C 0.37624 0.99737 0.3137 0.0
C390 C 0.4216 0.96331 0.25214 0.0
C391 C 0.39644 0.96222 0.19554 0.0
H392 H 0.50592 0.33799 0.22498 0.0
H393 H 0.5962 0.3374 0.13154 0.0
H394 H 0.60662 0.38409 0.21787 0.0
H395 H 0.58756 0.42944 0.28776 0.0
H396 H 0.495 0.43131 0.3469 0.0
H397 H 0.48769 0.38069 0.30384 0.0
C398 C 0.52813 0.34747 0.22854 0.0
C399 C 0.55026 0.3343 0.17302 0.0
C400 C 0.53315 0.37554 0.26705 0.0
C401 C 0.57889 0.34695 0.17553 0.0
C402 C 0.58464 0.37406 0.22218 0.0
C403 C 0.56589 0.41864 0.29077 0.0
C404 C 0.54181 0.43428 0.31781 0.0
C405 C 0.56157 0.38936 0.26223 0.0
C406 C 0.51384 0.42001 0.32322 0.0
C407 C 0.50962 0.3909 0.30007 0.0
H408 H 0.20258 0.47733 0.22705 0.0
H409 H 0.22543 0.56786 0.21908 0.0
H410 H 0.17824 0.57728 0.29982 0.0
H411 H 0.12664 0.55975 0.33226 0.0
H412 H 0.10248 0.46907 0.3056 0.0
H413 H 0.15309 0.45965 0.27253 0.0
C414 C 0.1977 0.49902 0.24857 0.0
C415 C 0.2169 0.52186 0.21529 0.0
C416 C 0.16932 0.50422 0.2811 0.0
C417 C 0.21079 0.54993 0.24357 0.0
C418 C 0.18339 0.55532 0.28623 0.0
C419 C 0.13253 0.53801 0.3182 0.0
C420 C 0.11083 0.51521 0.31905 0.0
C421 C 0.16177 0.5327 0.29746 0.0
C422 C 0.11873 0.48706 0.30306 0.0
C423 C 0.14772 0.48157 0.28583 0.0
H424 H 0.0481 0.83262 0.88874 0.0
H425 H 0.95777 0.83138 0.8171 0.0
H426 H 0.96653 0.87822 0.73939 0.0
H427 H 0.99667 0.92348 0.73524 0.0
H428 H 0.08574 0.92728 0.82732 0.0
H429 H 0.08051 0.87583 0.85993 0.0
C430 C 0.0308 0.84199 0.85048 0.0
C431 C 1.00228 0.82906 0.85972 0.0
C432 C 0.03537 0.87016 0.81747 0.0
C433 C 0.97986 0.84106 0.8105 0.0
C434 C 0.98472 0.86824 0.76939 0.0
C435 C 1.01496 0.91307 0.76268 0.0
C436 C 0.04127 0.92915 0.78267 0.0
C437 C 1.01177 0.88375 0.78042 0.0
C438 C 0.06507 0.91532 0.81449 0.0
C439 C 0.06217 0.88594 0.83168 0.0
H440 H 0.69971 0.08213 7e-05 0.0
H441 H 0.73386 1.01054 0.83358 0.0
H442 H 0.69775 1.01317 0.7034 0.0
H443 H 0.64977 0.02758 0.66272 0.0
H444 H 0.61135 0.09413 0.84426 0.0
H445 H 0.65535 0.10145 0.94399 0.0
C446 C 0.69966 0.06759 0.93375 0.0
C447 C 0.71882 0.04566 0.92804 0.0
C448 C 0.67735 0.06767 0.86411 0.0
C449 C 0.71925 0.02752 0.84037 0.0
C450 C 0.69823 0.02868 0.76677 0.0
C451 C 0.65125 0.044 0.72311 0.0
C452 C 0.62726 0.0598 0.74852 0.0
C453 C 0.67604 0.0473 0.78206 0.0
C454 C 0.62949 0.08141 0.82504 0.0
C455 C 0.6546 0.08559 0.88178 0.0
H456 H 0.46916 0.6894 0.04584 0.0
H457 H 0.5296 0.72167 0.8091 0.0
H458 H 0.51997 0.6778 0.70648 0.0
H459 H 0.50637 0.62639 0.71209 0.0
H460 H 0.44831 0.5921 0.952 0.0
H461 H 0.44562 0.64043 0.02901 0.0
C462 C 0.47881 0.68738 0.96898 0.0
C463 C 0.50053 0.70824 0.93553 0.0
C464 C 0.47488 0.66118 0.91471 0.0
C465 C 0.51294 0.70579 0.83619 0.0
C466 C 0.50799 0.68039 0.77891 0.0
C467 C 0.49233 0.62972 0.7791 0.0
C468 C 0.47793 0.60606 0.82773 0.0
C469 C 0.49097 0.65726 0.8217 0.0
C470 C 0.45979 0.61022 0.91454 0.0
C471 C 0.45825 0.63777 0.95803 0.0
H472 H 0.83433 0.55222 0.95805 0.0
H473 H 0.80754 0.46258 0.92792 0.0
H474 H 0.85488 0.45339 0.84778 0.0
H475 H 0.90688 0.46956 0.8239 0.0
H476 H 0.93485 0.55831 0.88397 0.0
H477 H 0.88468 0.56904 0.92152 0.0
C478 C 0.83845 0.53098 0.92841 0.0
C479 C 0.81792 0.50806 0.9493 0.0
C480 C 0.86668 0.52547 0.89551 0.0
C481 C 0.82315 0.48053 0.91178 0.0
C482 C 0.85055 0.47517 0.86948 0.0
C483 C 0.90194 0.49114 0.84634 0.0
C484 C 0.92446 0.51299 0.85361 0.0
C485 C 0.87304 0.49715 0.86832 0.0
C486 C 0.91785 0.54102 0.8803 0.0
C487 C 0.88916 0.54728 0.9 0.0
H488 H 0.06429 0.17778 0.00998 0.0
H489 H 0.02676 0.2187 0.75995 0.0
H490 H 0.03401 0.1767 0.64883 0.0
H491 H 0.04331 0.12614 0.63196 0.0
H492 H 0.07355 0.08258 0.89008 0.0
H493 H 0.07584 0.1277 -0.00944 0.0
C494 C 0.05773 0.17762 0.93095 0.0
C495 C 0.04429 0.20124 0.89424 0.0
C496 C 0.05993 0.15264 0.87014 0.0
C497 C 0.03708 0.201 0.79057 0.0
C498 C 0.04082 0.17676 0.72749 0.0
C499 C 0.05081 0.1264 0.70983 0.0
C500 C 0.05813 0.1008 0.75368 0.0
C501 C 0.051 0.15207 0.76794 0.0
C502 C 0.06765 0.1018 0.85472 0.0
C503 C 0.06897 0.12762 0.91197 0.0
H504 H 0.36002 1.00465 0.7906 0.0
H505 H 0.36444 0.09326 0.88756 0.0
H506 H 0.41393 0.10048 0.81153 0.0
H507 H 0.45848 0.07948 0.73858 0.0
H508 H 0.45375 0.98957 0.65495 0.0
H509 H 0.40227 0.98491 0.70428 0.0
C510 C 0.3714 0.02582 0.79083 0.0
C511 C 0.3584 0.04856 0.84213 0.0
C512 C 0.40027 0.02932 0.75195 0.0
C513 C 0.37371 0.07566 0.84569 0.0
C514 C 0.40223 0.0796 0.80402 0.0
C515 C 0.44605 0.05898 0.73058 0.0
C516 C 0.46005 0.03491 0.69326 0.0
C517 C 0.41619 0.05628 0.76063 0.0
C518 C 0.44362 1.00847 0.68319 0.0
C519 C 0.41408 1.00575 0.71133 0.0
H520 H 0.48303 0.36454 0.95497 0.0
H521 H 0.53269 0.32617 0.70856 0.0
H522 H 0.52807 0.36801 0.60317 0.0
H523 H 0.51711 0.41859 0.59399 0.0
H524 H 0.47155 0.45809 0.84954 0.0
H525 H 0.46765 0.4129 0.93892 0.0
C526 C 0.49219 0.36504 0.87704 0.0
C527 C 0.50838 0.3424 0.83979 0.0
C528 C 0.49086 0.38975 0.81981 0.0
C529 C 0.51999 0.34319 0.73871 0.0
C530 C 0.51773 0.36734 0.67922 0.0
C531 C 0.50591 0.41725 0.66858 0.0
C532 C 0.49497 0.44196 0.71552 0.0
C533 C 0.50438 0.39128 0.72092 0.0
C534 C 0.48046 0.43964 0.81199 0.0
C535 C 0.47818 0.41375 0.86318 0.0
H536 H 0.17747 0.5445 0.93352 0.0
H537 H 0.21466 0.4768 0.75501 0.0
H538 H 0.16926 0.46874 0.66063 0.0
H539 H 0.11663 0.47793 0.64389 0.0
H540 H 0.07878 0.5384 0.85505 0.0
H541 H 0.12617 0.55103 0.92689 0.0
C542 C 0.17578 0.52791 0.8737 0.0
C543 C 0.19936 0.51098 0.85263 0.0
C544 C 0.14892 0.52133 0.82906 0.0
C545 C 0.197 0.49022 0.77285 0.0
C546 C 0.17079 0.48524 0.72052 0.0
C547 C 0.11882 0.49348 0.70688 0.0
C548 C 0.09411 0.50693 0.74537 0.0
C549 C 0.1462 0.49995 0.75089 0.0
C550 C 0.09722 0.52728 0.82593 0.0
C551 C 0.12441 0.53484 0.8659 0.0
H552 H 0.03074 0.8759 0.11507 0.0
H553 H 0.97784 0.83018 0.34617 0.0
H554 H 0.98129 0.87323 0.45943 0.0
H555 H 0.99611 0.92538 0.48502 0.0
H556 H 0.04147 0.97124 0.23695 0.0
H557 H 0.04251 0.92692 0.13468 0.0
C558 C 1.01947 0.87525 0.18968 0.0
C559 C 1.00334 0.84988 0.22067 0.0
C560 C 1.01946 0.90045 0.24973 0.0
C561 C 0.99028 0.8493 0.31985 0.0
C562 C 0.9919 0.87407 0.38384 0.0
C563 C 1.0059 0.92563 0.40804 0.0
C564 C 1.01849 0.95166 0.36806 0.0
C565 C 1.00573 0.90002 0.34823 0.0
C566 C 0.03121 0.95169 0.26864 0.0
C567 C 0.03212 0.92628 0.2107 0.0
H568 H 0.68604 0.97509 0.22508 0.0
H569 H 0.7063 0.06017 0.34782 0.0
H570 H 0.65775 0.05991 0.43118 0.0
H571 H 0.60701 0.03853 0.44342 0.0
H572 H 0.5868 0.95336 0.31914 0.0
H573 H 0.63741 0.95084 0.25977 0.0
C574 C 0.68025 0.99297 0.27431 0.0
C575 C 0.69995 1.01736 0.28229 0.0
C576 C 0.65183 0.99311 0.318 0.0
C577 C 0.69181 0.04087 0.34301 0.0
C578 C 0.66381 0.04094 0.38878 0.0
C579 C 0.61383 1.01916 0.40566 0.0
C580 C 0.59303 0.9962 0.38557 0.0
C581 C 0.64321 1.01768 0.37283 0.0
C582 C 0.60224 0.97143 0.33502 0.0
C583 C 0.63126 0.96991 0.30138 0.0
H584 H 0.52973 0.70296 0.34266 0.0
H585 H 0.59285 0.67897 0.11154 0.0
H586 H 0.59592 0.63287 0.19297 0.0
H587 H 0.57512 0.59652 0.31778 0.0
H588 H 0.50869 0.62116 0.53764 0.0
H589 H 0.51256 0.66914 0.47425 0.0
C590 C 0.54517 0.68818 0.31316 0.0
C591 C 0.56156 0.69468 0.22293 0.0
C592 C 0.54563 0.66118 0.35727 0.0
C593 C 0.58062 0.67478 0.18284 0.0
C594 C 0.58191 0.64814 0.22826 0.0
C595 C 0.56175 0.61249 0.3522 0.0
C596 C 0.54202 0.605 0.43419 0.0
C597 C 0.56358 0.64056 0.31331 0.0
C598 C 0.52476 0.62616 0.47704 0.0
C599 C 0.52671 0.6538 0.44008 0.0
H600 H 0.85045 0.47767 0.26268 0.0
H601 H 0.82197 0.55787 0.38226 0.0
H602 H 0.86806 0.56715 0.47045 0.0
H603 H 0.91934 0.55487 0.4955 0.0
H604 H 0.9497 0.48024 0.33742 0.0
H605 H 0.90095 0.46743 0.27572 0.0
C606 C 0.85419 0.49735 0.30772 0.0
C607 C 0.83271 0.51729 0.31342 0.0
C608 C 0.88184 0.50414 0.34722 0.0
C609 C 0.83779 0.54198 0.37616 0.0
C610 C 0.86451 0.54762 0.42468 0.0
C611 C 0.91528 0.53616 0.44576 0.0
C612 C 0.93827 0.51881 0.41906 0.0
C613 C 0.88721 0.52944 0.40704 0.0
C614 C 0.93264 0.49433 0.3564 0.0
C615 C 0.90465 0.48675 0.32259 0.0
loop_
_geom_bond_atom_site_label_1
_geom_bond_atom_site_label_2
_geom_bond_distance
_geom_bond_site_symmetry_2
_ccdc_geom_bond_type
H0 C1 0.949 1_556 S
C1 H0 0.949 1_554 S
C1 C2 1.395 . S
C1 C3 1.391 . S
C2 C1 1.395 . S
C2 C5 1.390 . S
C3 C1 1.391 . S
C3 C7 1.387 . S
C3 C8 1.491 . S
H4 C5 0.950 . S
C5 C2 1.390 . S
C5 H4 0.950 . S
C5 C6 1.378 . S
C6 C5 1.378 . S
C6 C7 1.409 . S
C7 C3 1.387 . S
C7 C6 1.409 . S
C7 H9 0.951 . S
C8 C3 1.491 . S
C8 C10 1.382 . S
C8 C12 1.404 . S
H9 C7 0.951 . S
C10 C8 1.382 . S
C10 C11 1.390 . S
C10 H15 0.949 1_554 S
C11 C10 1.390 . S
C11 C16 1.399 . S
C12 C8 1.404 . S
C12 H13 0.950 . S
C12 C14 1.375 . S
H13 C12 0.950 . S
C14 C12 1.375 . S
C14 C16 1.382 . S
C14 H18 0.950 . S
H15 C10 0.949 1_556 S
C16 C11 1.399 . S
C16 C14 1.382 . S
C16 H17 0.952 . S
H17 C16 0.952 . S
H18 C14 0.950 . S
H19 C20 0.949 . S
C20 H19 0.949 . S
C20 C21 1.395 . S
C20 C22 1.391 1_556 S
C21 C20 1.395 . S
C21 C24 1.390 1_656 S
C22 C20 1.391 1_554 S
C22 C26 1.387 . S
C22 C27 1.491 . S
H23 C24 0.951 . S
C24 C21 1.390 1_454 S
C24 H23 0.951 . S
C24 C25 1.378 1_455 S
C25 C24 1.378 1_655 S
C25 C26 1.409 . S
C26 C22 1.387 . S
C26 C25 1.409 . S
C26 H28 0.951 . S
C27 C22 1.491 . S
C27 C29 1.382 1_554 S
C27 C31 1.404 . S
H28 C26 0.951 . S
C29 C27 1.382 1_556 S
C29 C30 1.390 . S
C29 H34 0.949 1_655 S
C30 C29 1.390 . S
C30 C35 1.399 1_556 S
C31 C27 1.404 . S
C31 H32 0.950 . S
C31 C33 1.375 . S
H32 C31 0.950 . S
C33 C31 1.375 . S
C33 C35 1.382 . S
C33 H37 0.950 . S
H34 C29 0.949 1_455 S
C35 C30 1.399 1_554 S
C35 C33 1.382 . S
C35 H36 0.952 . S
H36 C35 0.952 . S
H37 C33 0.950 . S
H38 C39 0.949 . S
C39 H38 0.949 . S
C39 C40 1.395 . S
C39 C41 1.391 1_556 S
C40 C39 1.395 . S
C40 C43 1.390 1_556 S
C41 C39 1.391 1_554 S
C41 C45 1.387 . S
C41 C46 1.491 . S
H42 C43 0.950 . S
C43 C40 1.390 1_554 S
C43 H42 0.950 . S
C43 C44 1.378 . S
C44 C43 1.378 . S
C44 C45 1.409 . S
C45 C41 1.387 . S
C45 C44 1.409 . S
C45 H47 0.951 . S
C46 C41 1.491 . S
C46 C48 1.382 1_554 S
C46 C50 1.404 . S
H47 C45 0.951 . S
C48 C46 1.382 1_556 S
C48 C49 1.390 . S
C48 H53 0.949 . S
C49 C48 1.390 . S
C49 C54 1.399 1_556 S
C50 C46 1.404 . S
C50 H51 0.950 . S
C50 C52 1.375 . S
H51 C50 0.950 . S
C52 C50 1.375 . S
C52 C54 1.382 . S
C52 H56 0.950 . S
H53 C48 0.949 . S
C54 C49 1.399 1_554 S
C54 C52 1.382 . S
C54 H55 0.952 . S
H55 C54 0.952 . S
H56 C52 0.950 . S
H57 C58 0.949 1_556 S
C58 H57 0.949 1_554 S
C58 C59 1.395 . S
C58 C60 1.391 . S
C59 C58 1.395 . S
C59 C62 1.390 . S
C60 C58 1.391 . S
C60 C64 1.387 . S
C60 C65 1.491 . S
H61 C62 0.950 . S
C62 C59 1.390 . S
C62 H61 0.950 . S
C62 C63 1.378 . S
C63 C62 1.378 . S
C63 C64 1.409 . S
C64 C60 1.387 . S
C64 C63 1.409 . S
C64 H66 0.951 . S
C65 C60 1.491 . S
C65 C67 1.382 . S
C65 C69 1.404 . S
H66 C64 0.951 . S
C67 C65 1.382 . S
C67 C68 1.390 . S
C67 H72 0.949 . S
C68 C67 1.390 . S
C68 C73 1.399 . S
C69 C65 1.404 . S
C69 H70 0.950 . S
C69 C71 1.375 . S
H70 C69 0.950 . S
C71 C69 1.375 . S
C71 C73 1.382 . S
C71 H75 0.950 . S
H72 C67 0.949 . S
C73 C68 1.399 . S
C73 C71 1.382 . S
C73 H74 0.952 . S
H74 C73 0.952 . S
H75 C71 0.950 . S
H76 C77 0.949 . S
C77 H76 0.949 . S
C77 C78 1.395 . S
C77 C79 1.391 . S
C78 C77 1.395 . S
C78 C81 1.390 . S
C79 C77 1.391 . S
C79 C83 1.387 1_554 S
C79 C84 1.491 . S
H80 C81 0.950 . S
C81 C78 1.390 . S
C81 H80 0.950 . S
C81 C82 1.378 1_554 S
C82 C81 1.378 1_556 S
C82 C83 1.409 . S
C83 C79 1.387 1_556 S
C83 C82 1.409 . S
C83 H85 0.951 . S
C84 C79 1.491 . S
C84 C86 1.382 . S
C84 C88 1.404 1_554 S
H85 C83 0.951 . S
C86 C84 1.382 . S
C86 C87 1.390 . S
C86 H91 0.949 . S
C87 C86 1.390 . S
C87 C92 1.399 . S
C88 C84 1.404 1_556 S
C88 H89 0.950 . S
C88 C90 1.375 . S
H89 C88 0.950 . S
C90 C88 1.375 . S
C90 C92 1.382 1_556 S
C90 H94 0.950 . S
H91 C86 0.949 . S
C92 C87 1.399 . S
C92 C90 1.382 1_554 S
C92 H93 0.952 . S
H93 C92 0.952 . S
H94 C90 0.950 . S
H95 C96 0.950 . S
C96 H95 0.950 . S
C96 C97 1.392 1_655 S
C96 C98 1.393 . S
C97 C96 1.392 1_455 S
C97 C100 1.390 . S
C98 C96 1.393 . S
C98 C102 1.387 1_554 S
C98 C103 1.491 . S
H99 C100 0.950 . S
C100 C97 1.390 . S
C100 H99 0.950 . S
C100 C101 1.378 1_554 S
C101 C100 1.378 1_556 S
C101 C102 1.409 1_455 S
C102 C98 1.387 1_556 S
C102 C101 1.409 1_655 S
C102 H104 0.951 . S
C103 C98 1.491 . S
C103 C105 1.382 1_655 S
C103 C107 1.404 . S
H104 C102 0.951 . S
C105 C103 1.382 1_455 S
C105 C106 1.390 1_455 S
C105 H110 0.949 . S
C106 C105 1.390 1_655 S
C106 C111 1.399 . S
C107 C103 1.404 . S
C107 H108 0.950 1_554 S
C107 C109 1.375 . S
H108 C107 0.950 1_556 S
C109 C107 1.375 . S
C109 C111 1.382 . S
C109 H113 0.950 1_554 S
H110 C105 0.949 . S
C111 C106 1.399 . S
C111 C109 1.382 . S
C111 H112 0.952 . S
H112 C111 0.952 . S
H113 C109 0.950 1_556 S
H114 C115 0.949 . S
C115 H114 0.949 . S
C115 C116 1.395 . S
C115 C117 1.391 . S
C116 C115 1.395 . S
C116 C119 1.390 . S
C117 C115 1.391 . S
C117 C121 1.387 1_554 S
C117 C122 1.491 . S
H118 C119 0.950 . S
C119 C116 1.390 . S
C119 H118 0.950 . S
C119 C120 1.378 1_554 S
C120 C119 1.378 1_556 S
C120 C121 1.409 . S
C121 C117 1.387 1_556 S
C121 C120 1.409 . S
C121 H123 0.951 . S
C122 C117 1.491 . S
C122 C124 1.382 . S
C122 C126 1.404 . S
H123 C121 0.951 . S
C124 C122 1.382 . S
C124 C125 1.390 . S
C124 H129 0.949 . S
C125 C124 1.390 . S
C125 C130 1.399 . S
C126 C122 1.404 . S
C126 H127 0.956 1_554 S
C126 C128 1.375 . S
H127 C126 0.956 1_556 S
C128 C126 1.375 . S
C128 C130 1.382 . S
C128 H132 0.950 1_544 S
H129 C124 0.949 . S
C130 C125 1.399 . S
C130 C128 1.382 . S
C130 H131 0.952 . S
H131 C130 0.952 . S
H132 C128 0.950 1_566 S
H133 C134 0.949 . S
C134 H133 0.949 . S
C134 C135 1.395 . S
C134 C136 1.384 1_554 S
C135 C134 1.395 . S
C135 C138 1.390 1_554 S
C136 C134 1.384 1_556 S
C136 C140 1.395 . S
C136 C141 1.490 1_556 S
H137 C138 0.950 . S
C138 C135 1.390 1_556 S
C138 H137 0.950 . S
C138 C139 1.378 . S
C139 C138 1.378 . S
C139 C140 1.409 . S
C140 C136 1.395 . S
C140 C139 1.409 . S
C140 H142 0.951 . S
C141 C136 1.490 1_554 S
C141 C143 1.382 . S
C141 C145 1.404 1_554 S
H142 C140 0.951 . S
C143 C141 1.382 . S
C143 C144 1.390 . S
C143 H148 0.949 . S
C144 C143 1.390 . S
C144 C149 1.399 . S
C145 C141 1.404 1_556 S
C145 H146 0.950 . S
C145 C147 1.375 . S
H146 C145 0.950 . S
C147 C145 1.375 . S
C147 C149 1.382 1_556 S
C147 H151 0.950 . S
H148 C143 0.949 . S
C149 C144 1.399 . S
C149 C147 1.382 1_554 S
C149 H150 0.952 . S
H150 C149 0.952 . S
H151 C147 0.950 . S
Dy152 O156 2.398 . S
Dy152 O157 2.491 1_455 S
Dy152 O158 2.403 . S
Dy152 O159 2.664 1_565 S
Dy152 O163 2.326 . S
Dy152 O167 2.310 1_455 S
Dy152 O168 2.351 1_565 S
C153 O164 1.185 . S
C153 O165 1.355 1_655 S
C154 O156 1.185 . S
C154 O157 1.355 1_455 S
Dy155 O159 2.310 1_655 S
Dy155 O162 2.351 1_545 S
Dy155 O164 2.398 . S
Dy155 O165 2.491 1_655 S
Dy155 O166 2.403 . S
Dy155 O167 2.664 1_545 S
Dy155 O169 2.326 . S
O156 Dy152 2.398 . S
O156 C154 1.185 . S
O157 Dy152 2.491 1_655 S
O157 C154 1.355 1_655 S
O158 Dy152 2.403 . S
O158 C160 1.254 1_565 S
O159 Dy152 2.664 1_545 S
O159 Dy155 2.310 1_455 S
O159 C160 1.268 . S
C160 O158 1.254 1_545 S
C160 O159 1.268 . S
C161 O166 1.254 1_565 S
C161 O167 1.268 . S
O162 Dy155 2.351 1_565 S
O162 C170 1.249 . S
O163 Dy152 2.326 . S
O163 C170 1.267 1_455 S
O164 C153 1.185 . S
O164 Dy155 2.398 . S
O165 C153 1.355 1_455 S
O165 Dy155 2.491 1_455 S
O166 Dy155 2.403 . S
O166 C161 1.254 1_545 S
O167 Dy152 2.310 1_655 S
O167 Dy155 2.664 1_565 S
O167 C161 1.268 . S
O168 Dy152 2.351 1_545 S
O168 C171 1.249 . S
O169 Dy155 2.326 . S
O169 C171 1.267 1_655 S
C170 O162 1.249 . S
C170 O163 1.267 1_655 S
C171 O168 1.249 . S
C171 O169 1.267 1_455 S
Dy172 O176 2.398 . S
Dy172 O177 2.491 1_565 S
Dy172 O178 2.403 . S
Dy172 O179 2.664 . S
Dy172 O183 2.326 1_565 S
Dy172 O187 2.310 1_565 S
Dy172 O188 2.351 . S
C173 O184 1.184 1_565 S
C173 O185 1.356 . S
C174 O176 1.185 1_545 S
C174 O177 1.355 . S
Dy175 O179 2.310 1_545 S
Dy175 O182 2.351 . S
Dy175 O184 2.398 . S
Dy175 O185 2.491 1_545 S
Dy175 O186 2.403 . S
Dy175 O187 2.664 . S
Dy175 O189 2.326 1_545 S
O176 Dy172 2.398 . S
O176 C174 1.185 1_565 S
O177 Dy172 2.491 1_545 S
O177 C174 1.355 . S
O178 Dy172 2.403 . S
O178 C180 1.254 . S
O179 Dy172 2.664 . S
O179 Dy175 2.310 1_565 S
O179 C180 1.268 . S
C180 O178 1.254 . S
C180 O179 1.268 . S
C181 O186 1.254 . S
C181 O187 1.268 . S
O182 Dy175 2.351 . S
O182 C190 1.249 . S
O183 Dy172 2.326 1_545 S
O183 C190 1.267 . S
O184 C173 1.184 1_545 S
O184 Dy175 2.398 . S
O185 C173 1.356 . S
O185 Dy175 2.491 1_565 S
O186 Dy175 2.403 . S
O186 C181 1.254 . S
O187 Dy172 2.310 1_545 S
O187 Dy175 2.664 . S
O187 C181 1.268 . S
O188 Dy172 2.351 . S
O188 C191 1.249 . S
O189 Dy175 2.326 1_565 S
O189 C191 1.267 . S
C190 O182 1.249 . S
C190 O183 1.267 . S
C191 O188 1.249 . S
C191 O189 1.267 . S
Dy192 O196 2.398 . S
Dy192 O197 2.491 . S
Dy192 O198 2.403 . S
Dy192 O199 2.664 . S
Dy192 O203 2.326 . S
Dy192 O207 2.310 . S
Dy192 O208 2.351 . S
C193 O204 1.185 . S
C193 O205 1.355 . S
C194 O196 1.185 . S
C194 O197 1.355 . S
Dy195 O199 2.310 . S
Dy195 O202 2.351 . S
Dy195 O204 2.398 . S
Dy195 O205 2.491 . S
Dy195 O206 2.403 . S
Dy195 O207 2.664 . S
Dy195 O209 2.326 . S
O196 Dy192 2.398 . S
O196 C194 1.185 . S
O197 Dy192 2.491 . S
O197 C194 1.355 . S
O198 Dy192 2.403 . S
O198 C200 1.254 . S
O199 Dy192 2.664 . S
O199 Dy195 2.310 . S
O199 C200 1.268 . S
C200 O198 1.254 . S
C200 O199 1.268 . S
C201 O206 1.254 . S
C201 O207 1.268 . S
O202 Dy195 2.351 . S
O202 C210 1.249 . S
O203 Dy192 2.326 . S
O203 C210 1.267 . S
O204 C193 1.185 . S
O204 Dy195 2.398 . S
O205 C193 1.355 . S
O205 Dy195 2.491 . S
O206 Dy195 2.403 . S
O206 C201 1.254 . S
O207 Dy192 2.310 . S
O207 Dy195 2.664 . S
O207 C201 1.268 . S
O208 Dy192 2.351 . S
O208 C211 1.249 . S
O209 Dy195 2.326 . S
O209 C211 1.267 . S
C210 O202 1.249 . S
C210 O203 1.267 . S
C211 O208 1.249 . S
C211 O209 1.267 . S
Dy212 O216 2.398 . S
Dy212 O217 2.491 . S
Dy212 O218 2.403 . S
Dy212 O219 2.664 1_655 S
Dy212 O223 2.326 . S
Dy212 O227 2.310 . S
Dy212 O228 2.351 1_655 S
C213 O224 1.185 . S
C213 O225 1.355 . S
C214 O216 1.185 . S
C214 O217 1.355 . S
Dy215 O219 2.310 . S
Dy215 O222 2.351 1_455 S
Dy215 O224 2.398 . S
Dy215 O225 2.491 . S
Dy215 O226 2.403 . S
Dy215 O227 2.664 1_455 S
Dy215 O229 2.326 . S
O216 Dy212 2.398 . S
O216 C214 1.185 . S
O217 Dy212 2.491 . S
O217 C214 1.355 . S
O218 Dy212 2.403 . S
O218 C220 1.254 . S
O219 Dy212 2.664 1_455 S
O219 Dy215 2.310 . S
O219 C220 1.268 1_455 S
C220 O218 1.254 . S
C220 O219 1.268 1_655 S
C221 O226 1.254 . S
C221 O227 1.268 1_455 S
O222 Dy215 2.351 1_655 S
O222 C230 1.249 . S
O223 Dy212 2.326 . S
O223 C230 1.267 . S
O224 C213 1.185 . S
O224 Dy215 2.398 . S
O225 C213 1.355 . S
O225 Dy215 2.491 . S
O226 Dy215 2.403 . S
O226 C221 1.254 . S
O227 Dy212 2.310 . S
O227 Dy215 2.664 1_655 S
O227 C221 1.268 1_655 S
O228 Dy212 2.351 1_455 S
O228 C231 1.249 . S
O229 Dy215 2.326 . S
O229 C231 1.267 . S
C230 O222 1.249 . S
C230 O223 1.267 . S
C231 O228 1.249 . S
C231 O229 1.267 . S
H232 C238 0.930 . S
H233 C241 0.930 . S
H234 C242 0.930 1_565 S
H235 C243 0.930 1_565 S
H236 C246 0.930 . S
H237 C247 0.930 . S
C238 H232 0.930 . S
C238 C239 1.355 . S
C238 C240 1.415 . S
C239 C238 1.355 . S
C239 C241 1.419 . S
C240 C238 1.415 . S
C240 C245 1.425 . S
C240 C247 1.409 . S
C241 H233 0.930 . S
C241 C239 1.419 . S
C241 C242 1.362 . S
C242 H234 0.930 1_545 S
C242 C241 1.362 . S
C242 C245 1.409 . S
C243 H235 0.930 1_545 S
C243 C244 1.355 . S
C243 C245 1.415 . S
C244 C243 1.355 . S
C244 C246 1.419 . S
C245 C240 1.425 . S
C245 C242 1.409 . S
C245 C243 1.415 . S
C246 H236 0.930 . S
C246 C244 1.419 . S
C246 C247 1.362 . S
C247 H237 0.930 . S
C247 C240 1.409 . S
C247 C246 1.362 . S
H248 C254 0.930 . S
H249 C257 0.930 . S
H250 C258 0.930 . S
H251 C259 0.930 . S
H252 C262 0.930 . S
H253 C263 0.930 . S
C254 H248 0.930 . S
C254 C255 1.355 . S
C254 C256 1.415 . S
C255 C254 1.355 . S
C255 C257 1.419 . S
C256 C254 1.415 . S
C256 C261 1.425 . S
C256 C263 1.409 . S
C257 H249 0.930 . S
C257 C255 1.419 . S
C257 C258 1.362 . S
C258 H250 0.930 . S
C258 C257 1.362 . S
C258 C261 1.409 . S
C259 H251 0.930 . S
C259 C260 1.355 . S
C259 C261 1.415 . S
C260 C259 1.355 . S
C260 C262 1.419 . S
C261 C256 1.425 . S
C261 C258 1.409 . S
C261 C259 1.415 . S
C262 H252 0.930 . S
C262 C260 1.419 . S
C262 C263 1.362 . S
C263 H253 0.930 . S
C263 C256 1.409 . S
C263 C262 1.362 . S
H264 C270 0.930 . S
H265 C273 0.930 . S
H266 C274 0.930 . S
H267 C275 0.930 . S
H268 C278 0.930 . S
H269 C279 0.930 . S
C270 H264 0.930 . S
C270 C271 1.355 . S
C270 C272 1.415 . S
C271 C270 1.355 . S
C271 C273 1.419 . S
C272 C270 1.415 . S
C272 C277 1.425 . S
C272 C279 1.409 . S
C273 H265 0.930 . S
C273 C271 1.419 . S
C273 C274 1.362 . S
C274 H266 0.930 . S
C274 C273 1.362 . S
C274 C277 1.409 . S
C275 H267 0.930 . S
C275 C276 1.355 . S
C275 C277 1.415 . S
C276 C275 1.355 . S
C276 C278 1.419 . S
C277 C272 1.425 . S
C277 C274 1.409 . S
C277 C275 1.415 . S
C278 H268 0.930 . S
C278 C276 1.419 . S
C278 C279 1.362 . S
C279 H269 0.930 . S
C279 C272 1.409 . S
C279 C278 1.362 . S
H280 C286 0.930 . S
H281 C289 0.930 . S
H282 C290 0.930 . S
H283 C291 0.930 . S
H284 C294 0.930 . S
H285 C295 0.930 . S
C286 H280 0.930 . S
C286 C287 1.355 . S
C286 C288 1.415 . S
C287 C286 1.355 . S
C287 C289 1.419 1_455 S
C288 C286 1.415 . S
C288 C293 1.425 1_455 S
C288 C295 1.409 . S
C289 H281 0.930 . S
C289 C287 1.419 1_655 S
C289 C290 1.362 . S
C290 H282 0.930 . S
C290 C289 1.362 . S
C290 C293 1.409 . S
C291 H283 0.930 . S
C291 C292 1.355 1_655 S
C291 C293 1.415 . S
C292 C291 1.355 1_455 S
C292 C294 1.419 . S
C293 C288 1.425 1_655 S
C293 C290 1.409 . S
C293 C291 1.415 . S
C294 H284 0.930 . S
C294 C292 1.419 . S
C294 C295 1.362 . S
C295 H285 0.930 . S
C295 C288 1.409 . S
C295 C294 1.362 . S
H296 C302 0.930 1_545 S
H297 C305 0.930 . S
H298 C306 0.930 . S
H299 C307 0.930 . S
H300 C310 0.930 . S
H301 C311 0.930 . S
C302 H296 0.930 1_565 S
C302 C303 1.355 . S
C302 C304 1.415 . S
C303 C302 1.355 . S
C303 C305 1.419 . S
C304 C302 1.415 . S
C304 C309 1.425 . S
C304 C311 1.409 1_565 S
C305 H297 0.930 . S
C305 C303 1.419 . S
C305 C306 1.362 . S
C306 H298 0.930 . S
C306 C305 1.362 . S
C306 C309 1.409 . S
C307 H299 0.930 . S
C307 C308 1.355 . S
C307 C309 1.415 . S
C308 C307 1.355 . S
C308 C310 1.419 1_565 S
C309 C304 1.425 . S
C309 C306 1.409 . S
C309 C307 1.415 . S
C310 H300 0.930 . S
C310 C308 1.419 1_545 S
C310 C311 1.362 . S
C311 H301 0.930 . S
C311 C304 1.409 1_545 S
C311 C310 1.362 . S
H312 C318 0.930 . S
H313 C321 0.930 . S
H314 C322 0.930 . S
H315 C323 0.930 . S
H316 C326 0.930 . S
H317 C327 0.930 . S
C318 H312 0.930 . S
C318 C319 1.355 . S
C318 C320 1.415 . S
C319 C318 1.355 . S
C319 C321 1.419 1_556 S
C320 C318 1.415 . S
C320 C325 1.425 . S
C320 C327 1.409 . S
C321 H313 0.930 . S
C321 C319 1.419 1_554 S
C321 C322 1.362 1_554 S
C322 H314 0.930 . S
C322 C321 1.362 1_556 S
C322 C325 1.409 . S
C323 H315 0.930 . S
C323 C324 1.355 . S
C323 C325 1.415 . S
C324 C323 1.355 . S
C324 C326 1.419 . S
C325 C320 1.425 . S
C325 C322 1.409 . S
C325 C323 1.415 . S
C326 H316 0.930 . S
C326 C324 1.419 . S
C326 C327 1.362 . S
C327 H317 0.930 . S
C327 C320 1.409 . S
C327 C326 1.362 . S
H328 C334 0.930 1_554 S
H329 C337 0.930 . S
H330 C338 0.930 . S
H331 C339 0.930 . S
H332 C342 0.930 . S
H333 C343 0.930 . S
C334 H328 0.930 1_556 S
C334 C335 1.355 . S
C334 C336 1.415 . S
C335 C334 1.355 . S
C335 C337 1.419 . S
C336 C334 1.415 . S
C336 C341 1.425 . S
C336 C343 1.409 . S
C337 H329 0.930 . S
C337 C335 1.419 . S
C337 C338 1.362 . S
C338 H330 0.930 . S
C338 C337 1.362 . S
C338 C341 1.409 . S
C339 H331 0.930 . S
C339 C340 1.355 . S
C339 C341 1.415 . S
C340 C339 1.355 . S
C340 C342 1.419 . S
C341 C336 1.425 . S
C341 C338 1.409 . S
C341 C339 1.415 . S
C342 H332 0.930 . S
C342 C340 1.419 . S
C342 C343 1.362 . S
C343 H333 0.930 . S
C343 C336 1.409 . S
C343 C342 1.362 . S
H344 C350 0.930 . S
H345 C353 0.930 . S
H346 C354 0.930 . S
H347 C355 0.930 . S
H348 C358 0.930 . S
H349 C359 0.930 . S
C350 H344 0.930 . S
C350 C351 1.355 1_455 S
C350 C352 1.415 . S
C351 C350 1.355 1_655 S
C351 C353 1.419 . S
C352 C350 1.415 . S
C352 C357 1.425 1_455 S
C352 C359 1.409 . S
C353 H345 0.930 . S
C353 C351 1.419 . S
C353 C354 1.362 . S
C354 H346 0.930 . S
C354 C353 1.362 . S
C354 C357 1.409 . S
C355 H347 0.930 . S
C355 C356 1.355 1_655 S
C355 C357 1.415 . S
C356 C355 1.355 1_455 S
C356 C358 1.419 . S
C357 C352 1.425 1_655 S
C357 C354 1.409 . S
C357 C355 1.415 . S
C358 H348 0.930 . S
C358 C356 1.419 . S
C358 C359 1.362 . S
C359 H349 0.930 . S
C359 C352 1.409 . S
C359 C358 1.362 . S
H360 C366 0.930 . S
H361 C369 0.930 . S
H362 C370 0.930 . S
H363 C371 0.930 . S
H364 C374 0.930 . S
H365 C375 0.930 . S
C366 H360 0.930 . S
C366 C367 1.355 . S
C366 C368 1.415 . S
C367 C366 1.355 . S
C367 C369 1.419 1_455 S
C368 C366 1.415 . S
C368 C373 1.425 1_455 S
C368 C375 1.409 . S
C369 H361 0.930 . S
C369 C367 1.419 1_655 S
C369 C370 1.362 . S
C370 H362 0.930 . S
C370 C369 1.362 . S
C370 C373 1.409 . S
C371 H363 0.930 . S
C371 C372 1.355 . S
C371 C373 1.415 . S
C372 C371 1.355 . S
C372 C374 1.419 1_655 S
C373 C368 1.425 1_655 S
C373 C370 1.409 . S
C373 C371 1.415 . S
C374 H364 0.930 . S
C374 C372 1.419 1_455 S
C374 C375 1.362 . S
C375 H365 0.930 . S
C375 C368 1.409 . S
C375 C374 1.362 . S
H376 C382 0.930 . S
H377 C385 0.930 . S
H378 C386 0.930 . S
H379 C387 0.930 . S
H380 C390 0.930 . S
H381 C391 0.930 . S
C382 H376 0.930 . S
C382 C383 1.355 . S
C382 C384 1.415 . S
C383 C382 1.355 . S
C383 C385 1.419 . S
C384 C382 1.415 . S
C384 C389 1.425 . S
C384 C391 1.409 1_545 S
C385 H377 0.930 . S
C385 C383 1.419 . S
C385 C386 1.362 . S
C386 H378 0.930 . S
C386 C385 1.362 . S
C386 C389 1.409 . S
C387 H379 0.930 . S
C387 C388 1.355 . S
C387 C389 1.415 . S
C388 C387 1.355 . S
C388 C390 1.419 1_545 S
C389 C384 1.425 . S
C389 C386 1.409 . S
C389 C387 1.415 . S
C390 H380 0.930 . S
C390 C388 1.419 1_565 S
C390 C391 1.362 . S
C391 H381 0.930 . S
C391 C384 1.409 1_565 S
C391 C390 1.362 . S
H392 C398 0.930 . S
H393 C401 0.930 . S
H394 C402 0.930 . S
H395 C403 0.930 . S
H396 C406 0.930 . S
H397 C407 0.930 . S
C398 H392 0.930 . S
C398 C399 1.355 . S
C398 C400 1.415 . S
C399 C398 1.355 . S
C399 C401 1.419 . S
C400 C398 1.415 . S
C400 C405 1.425 . S
C400 C407 1.409 . S
C401 H393 0.930 . S
C401 C399 1.419 . S
C401 C402 1.362 . S
C402 H394 0.930 . S
C402 C401 1.362 . S
C402 C405 1.409 . S
C403 H395 0.930 . S
C403 C404 1.355 . S
C403 C405 1.415 . S
C404 C403 1.355 . S
C404 C406 1.419 . S
C405 C400 1.425 . S
C405 C402 1.409 . S
C405 C403 1.415 . S
C406 H396 0.930 . S
C406 C404 1.419 . S
C406 C407 1.362 . S
C407 H397 0.930 . S
C407 C400 1.409 . S
C407 C406 1.362 . S
H408 C414 0.930 . S
H409 C417 0.930 . S
H410 C418 0.930 . S
H411 C419 0.930 . S
H412 C422 0.930 . S
H413 C423 0.930 . S
C414 H408 0.930 . S
C414 C415 1.355 . S
C414 C416 1.415 . S
C415 C414 1.355 . S
C415 C417 1.419 . S
C416 C414 1.415 . S
C416 C421 1.425 . S
C416 C423 1.409 . S
C417 H409 0.930 . S
C417 C415 1.419 . S
C417 C418 1.362 . S
C418 H410 0.930 . S
C418 C417 1.362 . S
C418 C421 1.409 . S
C419 H411 0.930 . S
C419 C420 1.355 . S
C419 C421 1.415 . S
C420 C419 1.355 . S
C420 C422 1.419 . S
C421 C416 1.425 . S
C421 C418 1.409 . S
C421 C419 1.415 . S
C422 H412 0.930 . S
C422 C420 1.419 . S
C422 C423 1.362 . S
C423 H413 0.930 . S
C423 C416 1.409 . S
C423 C422 1.362 . S
H424 C430 0.930 . S
H425 C433 0.930 1_554 S
H426 C434 0.930 . S
H427 C435 0.930 . S
H428 C438 0.930 . S
H429 C439 0.930 . S
C430 H424 0.930 . S
C430 C431 1.355 1_455 S
C430 C432 1.415 . S
C431 C430 1.355 1_655 S
C431 C433 1.419 . S
C432 C430 1.415 . S
C432 C437 1.425 1_455 S
C432 C439 1.409 . S
C433 H425 0.930 1_556 S
C433 C431 1.419 . S
C433 C434 1.362 . S
C434 H426 0.930 . S
C434 C433 1.362 . S
C434 C437 1.409 . S
C435 H427 0.930 . S
C435 C436 1.355 1_655 S
C435 C437 1.415 . S
C436 C435 1.355 1_455 S
C436 C438 1.419 . S
C437 C432 1.425 1_655 S
C437 C434 1.409 . S
C437 C435 1.415 . S
C438 H428 0.930 . S
C438 C436 1.419 . S
C438 C439 1.362 . S
C439 H429 0.930 . S
C439 C432 1.409 . S
C439 C438 1.362 . S
H440 C446 0.930 . S
H441 C449 0.930 . S
H442 C450 0.930 . S
H443 C451 0.930 . S
H444 C454 0.930 . S
H445 C455 0.930 1_545 S
C446 H440 0.930 . S
C446 C447 1.355 . S
C446 C448 1.415 . S
C447 C446 1.355 . S
C447 C449 1.419 1_556 S
C448 C446 1.415 . S
C448 C453 1.425 . S
C448 C455 1.409 . S
C449 H441 0.930 . S
C449 C447 1.419 1_554 S
C449 C450 1.362 . S
C450 H442 0.930 . S
C450 C449 1.362 . S
C450 C453 1.409 1_554 S
C451 H443 0.930 . S
C451 C452 1.355 . S
C451 C453 1.415 . S
C452 C451 1.355 . S
C452 C454 1.419 1_565 S
C453 C448 1.425 . S
C453 C450 1.409 1_556 S
C453 C451 1.415 . S
C454 H444 0.930 . S
C454 C452 1.419 1_545 S
C454 C455 1.362 1_545 S
C455 H445 0.930 1_565 S
C455 C448 1.409 . S
C455 C454 1.362 1_565 S
H456 C462 0.930 . S
H457 C465 0.930 . S
H458 C466 0.930 . S
H459 C467 0.930 . S
H460 C470 0.930 . S
H461 C471 0.930 1_554 S
C462 H456 0.930 . S
C462 C463 1.355 1_554 S
C462 C464 1.415 1_554 S
C463 C462 1.355 1_556 S
C463 C465 1.419 . S
C464 C462 1.415 1_556 S
C464 C469 1.425 . S
C464 C471 1.409 . S
C465 H457 0.930 . S
C465 C463 1.419 . S
C465 C466 1.362 . S
C466 H458 0.930 . S
C466 C465 1.362 . S
C466 C469 1.409 . S
C467 H459 0.930 . S
C467 C468 1.355 . S
C467 C469 1.415 . S
C468 C467 1.355 . S
C468 C470 1.419 . S
C469 C464 1.425 . S
C469 C466 1.409 . S
C469 C467 1.415 . S
C470 H460 0.930 . S
C470 C468 1.419 . S
C470 C471 1.362 . S
C471 H461 0.930 1_556 S
C471 C464 1.409 . S
C471 C470 1.362 . S
H472 C478 0.930 . S
H473 C481 0.930 . S
H474 C482 0.930 . S
H475 C483 0.930 . S
H476 C486 0.930 . S
H477 C487 0.930 . S
C478 H472 0.930 . S
C478 C479 1.355 . S
C478 C480 1.415 . S
C479 C478 1.355 . S
C479 C481 1.419 1_556 S
C480 C478 1.415 . S
C480 C485 1.425 . S
C480 C487 1.409 . S
C481 H473 0.930 . S
C481 C479 1.419 1_554 S
C481 C482 1.362 1_554 S
C482 H474 0.930 . S
C482 C481 1.362 1_556 S
C482 C485 1.409 . S
C483 H475 0.930 . S
C483 C484 1.355 . S
C483 C485 1.415 . S
C484 C483 1.355 . S
C484 C486 1.419 . S
C485 C480 1.425 . S
C485 C482 1.409 . S
C485 C483 1.415 . S
C486 H476 0.930 . S
C486 C484 1.419 . S
C486 C487 1.362 . S
C487 H477 0.930 . S
C487 C480 1.409 . S
C487 C486 1.362 . S
H488 C494 0.936 . S
H489 C497 0.930 1_554 S
H490 C498 0.930 1_554 S
H491 C499 0.930 . S
H492 C502 0.930 . S
H493 C503 0.930 . S
C494 H488 0.936 . S
C494 C495 1.355 . S
C494 C496 1.415 . S
C495 C494 1.355 . S
C495 C497 1.419 . S
C496 C494 1.415 . S
C496 C501 1.425 . S
C496 C503 1.409 . S
C497 H489 0.930 1_556 S
C497 C495 1.419 . S
C497 C498 1.362 . S
C498 H490 0.930 1_556 S
C498 C497 1.362 . S
C498 C501 1.409 . S
C499 H491 0.930 . S
C499 C500 1.355 . S
C499 C501 1.415 . S
C500 C499 1.355 . S
C500 C502 1.419 . S
C501 C496 1.425 . S
C501 C498 1.409 . S
C501 C499 1.415 . S
C502 H492 0.930 . S
C502 C500 1.419 . S
C502 C503 1.362 . S
C503 H493 0.930 . S
C503 C496 1.409 . S
C503 C502 1.362 . S
H504 C510 0.930 . S
H505 C513 0.930 . S
H506 C514 0.930 . S
H507 C515 0.930 . S
H508 C518 0.930 . S
H509 C519 0.930 . S
C510 H504 0.930 . S
C510 C511 1.355 . S
C510 C512 1.415 . S
C511 C510 1.355 . S
C511 C513 1.419 . S
C512 C510 1.415 . S
C512 C517 1.425 . S
C512 C519 1.409 1_545 S
C513 H505 0.930 . S
C513 C511 1.419 . S
C513 C514 1.362 . S
C514 H506 0.930 . S
C514 C513 1.362 . S
C514 C517 1.409 . S
C515 H507 0.930 . S
C515 C516 1.355 . S
C515 C517 1.415 . S
C516 C515 1.355 . S
C516 C518 1.419 1_545 S
C517 C512 1.425 . S
C517 C514 1.409 . S
C517 C515 1.415 . S
C518 H508 0.930 . S
C518 C516 1.419 1_565 S
C518 C519 1.362 . S
C519 H509 0.930 . S
C519 C512 1.409 1_565 S
C519 C518 1.362 . S
H520 C526 0.930 . S
H521 C529 0.930 . S
H522 C530 0.930 . S
H523 C531 0.930 . S
H524 C534 0.930 . S
H525 C535 0.930 . S
C526 H520 0.930 . S
C526 C527 1.355 . S
C526 C528 1.415 . S
C527 C526 1.355 . S
C527 C529 1.419 . S
C528 C526 1.415 . S
C528 C533 1.425 . S
C528 C535 1.409 . S
C529 H521 0.930 . S
C529 C527 1.419 . S
C529 C530 1.362 . S
C530 H522 0.930 . S
C530 C529 1.362 . S
C530 C533 1.409 . S
C531 H523 0.930 . S
C531 C532 1.355 . S
C531 C533 1.415 . S
C532 C531 1.355 . S
C532 C534 1.419 . S
C533 C528 1.425 . S
C533 C530 1.409 . S
C533 C531 1.415 . S
C534 H524 0.930 . S
C534 C532 1.419 . S
C534 C535 1.362 . S
C535 H525 0.930 . S
C535 C528 1.409 . S
C535 C534 1.362 . S
H536 C542 0.930 . S
H537 C545 0.930 . S
H538 C546 0.930 . S
H539 C547 0.930 . S
H540 C550 0.930 . S
H541 C551 0.930 . S
C542 H536 0.930 . S
C542 C543 1.355 . S
C542 C544 1.415 . S
C543 C542 1.355 . S
C543 C545 1.419 . S
C544 C542 1.415 . S
C544 C549 1.425 . S
C544 C551 1.409 . S
C545 H537 0.930 . S
C545 C543 1.419 . S
C545 C546 1.362 . S
C546 H538 0.930 . S
C546 C545 1.362 . S
C546 C549 1.409 . S
C547 H539 0.930 . S
C547 C548 1.355 . S
C547 C549 1.415 . S
C548 C547 1.355 . S
C548 C550 1.419 . S
C549 C544 1.425 . S
C549 C546 1.409 . S
C549 C547 1.415 . S
C550 H540 0.930 . S
C550 C548 1.419 . S
C550 C551 1.362 . S
C551 H541 0.930 . S
C551 C544 1.409 . S
C551 C550 1.362 . S
H552 C558 0.930 . S
H553 C561 0.930 . S
H554 C562 0.930 . S
H555 C563 0.930 . S
H556 C566 0.930 . S
H557 C567 0.930 . S
C558 H552 0.930 . S
C558 C559 1.355 1_455 S
C558 C560 1.415 . S
C559 C558 1.355 1_655 S
C559 C561 1.419 . S
C560 C558 1.415 . S
C560 C565 1.425 1_455 S
C560 C567 1.409 . S
C561 H553 0.930 . S
C561 C559 1.419 . S
C561 C562 1.362 . S
C562 H554 0.930 . S
C562 C561 1.362 . S
C562 C565 1.409 . S
C563 H555 0.930 . S
C563 C564 1.355 . S
C563 C565 1.415 . S
C564 C563 1.355 . S
C564 C566 1.419 1_655 S
C565 C560 1.425 1_655 S
C565 C562 1.409 . S
C565 C563 1.415 . S
C566 H556 0.930 . S
C566 C564 1.419 1_455 S
C566 C567 1.362 . S
C567 H557 0.930 . S
C567 C560 1.409 . S
C567 C566 1.362 . S
H568 C574 0.930 . S
H569 C577 0.930 . S
H570 C578 0.930 . S
H571 C579 0.930 . S
H572 C582 0.930 . S
H573 C583 0.930 . S
C574 H568 0.930 . S
C574 C575 1.355 . S
C574 C576 1.415 . S
C575 C574 1.355 . S
C575 C577 1.419 . S
C576 C574 1.415 . S
C576 C581 1.425 . S
C576 C583 1.409 . S
C577 H569 0.930 . S
C577 C575 1.419 . S
C577 C578 1.362 . S
C578 H570 0.930 . S
C578 C577 1.362 . S
C578 C581 1.409 . S
C579 H571 0.930 . S
C579 C580 1.355 . S
C579 C581 1.415 . S
C580 C579 1.355 . S
C580 C582 1.419 . S
C581 C576 1.425 . S
C581 C578 1.409 . S
C581 C579 1.415 . S
C582 H572 0.930 . S
C582 C580 1.419 . S
C582 C583 1.362 . S
C583 H573 0.930 . S
C583 C576 1.409 . S
C583 C582 1.362 . S
H584 C590 0.930 . S
H585 C593 0.930 . S
H586 C594 0.930 . S
H587 C595 0.930 . S
H588 C598 0.930 . S
H589 C599 0.930 . S
C590 H584 0.930 . S
C590 C591 1.355 . S
C590 C592 1.415 . S
C591 C590 1.355 . S
C591 C593 1.419 . S
C592 C590 1.415 . S
C592 C597 1.425 . S
C592 C599 1.409 . S
C593 H585 0.930 . S
C593 C591 1.419 . S
C593 C594 1.362 . S
C594 H586 0.930 . S
C594 C593 1.362 . S
C594 C597 1.409 . S
C595 H587 0.930 . S
C595 C596 1.355 . S
C595 C597 1.415 . S
C596 C595 1.355 . S
C596 C598 1.419 . S
C597 C592 1.425 . S
C597 C594 1.409 . S
C597 C595 1.415 . S
C598 H588 0.930 . S
C598 C596 1.419 . S
C598 C599 1.362 . S
C599 H589 0.930 . S
C599 C592 1.409 . S
C599 C598 1.362 . S
H600 C606 0.930 . S
H601 C609 0.930 . S
H602 C610 0.930 . S
H603 C611 0.930 . S
H604 C614 0.930 . S
H605 C615 0.930 . S
C606 H600 0.930 . S
C606 C607 1.355 . S
C606 C608 1.415 . S
C607 C606 1.355 . S
C607 C609 1.419 . S
C608 C606 1.415 . S
C608 C613 1.425 . S
C608 C615 1.409 . S
C609 H601 0.930 . S
C609 C607 1.419 . S
C609 C610 1.362 . S
C610 H602 0.930 . S
C610 C609 1.362 . S
C610 C613 1.409 . S
C611 H603 0.930 . S
C611 C612 1.355 . S
C611 C613 1.415 . S
C612 C611 1.355 . S
C612 C614 1.419 . S
C613 C608 1.425 . S
C613 C610 1.409 . S
C613 C611 1.415 . S
C614 H604 0.930 . S
C614 C612 1.419 . S
C614 C615 1.362 . S
C615 H605 0.930 . S
C615 C608 1.409 . S
C615 C614 1.362 . S
C239 C125 1.559 . S
C244 C160 1.712 . S
C260 C190 1.824 . S
C255 C144 1.726 . S
C276 C200 1.549 . S
C271 C87 1.538 . S
C292 C220 1.450 1_455 S
C287 C106 1.357 1_455 S
C308 C161 1.714 . S
C303 C49 1.684 . S
C319 C68 1.791 1_556 S
C324 C191 1.806 . S
C335 C11 1.550 1_556 S
C340 C201 1.574 . S
C351 C30 1.408 . S
C356 C221 1.446 . S
C372 C153 0.962 . S
C367 C97 0.998 . S
C388 C174 0.775 . S
C383 C116 0.807 . S
C404 C193 1.128 . S
C399 C135 1.071 . S
C415 C78 0.802 . S
C420 C213 0.902 . S
C431 C21 0.915 . S
C436 C154 1.010 . S
C452 C173 0.734 . S
C447 C40 0.695 . S
C468 C194 1.139 . S
C463 C59 1.152 1_556 S
C479 C2 0.838 1_556 S
C484 C214 0.875 . S
C495 C101 1.478 . S
C500 C171 1.600 . S
C511 C120 1.460 . S
C516 C181 1.555 . S
C532 C211 1.811 . S
C527 C139 1.655 . S
C548 C231 1.776 . S
C543 C82 1.726 . S
C559 C25 1.539 . S
C564 C170 1.578 . S
C580 C180 1.536 . S
C575 C44 1.480 . S
C596 C210 1.776 . S
C591 C63 1.691 . S
C607 C6 1.656 . S
C612 C230 1.760 . S
