# Generated by pormake.
# Topology ctn, (3,4)-cn, num edge types: 1
# Building blocks:
#     Node 0, Type 0, BuildingBlock: PAMTOO_clean_linker_0, # of connection points: 3
#     Node 1, Type 0, BuildingBlock: PAMTOO_clean_linker_0, # of connection points: 3
#     Node 2, Type 0, BuildingBlock: PAMTOO_clean_linker_0, # of connection points: 3
#     Node 3, Type 0, BuildingBlock: PAMTOO_clean_linker_0, # of connection points: 3
#     Node 4, Type 0, BuildingBlock: PAMTOO_clean_linker_0, # of connection points: 3
#     Node 5, Type 0, BuildingBlock: PAMTOO_clean_linker_0, # of connection points: 3
#     Node 6, Type 0, BuildingBlock: PAMTOO_clean_linker_0, # of connection points: 3
#     Node 7, Type 0, BuildingBlock: PAMTOO_clean_linker_0, # of connection points: 3
#     Node 8, Type 0, BuildingBlock: PAMTOO_clean_linker_0, # of connection points: 3
#     Node 9, Type 0, BuildingBlock: PAMTOO_clean_linker_0, # of connection points: 3
#     Node 10, Type 0, BuildingBlock: PAMTOO_clean_linker_0, # of connection points: 3
#     Node 11, Type 0, BuildingBlock: PAMTOO_clean_linker_0, # of connection points: 3
#     Node 12, Type 0, BuildingBlock: PAMTOO_clean_linker_0, # of connection points: 3
#     Node 13, Type 0, BuildingBlock: PAMTOO_clean_linker_0, # of connection points: 3
#     Node 14, Type 0, BuildingBlock: PAMTOO_clean_linker_0, # of connection points: 3
#     Node 15, Type 0, BuildingBlock: PAMTOO_clean_linker_0, # of connection points: 3
#     Node 16, Type 1, BuildingBlock: UXUYUI_clean_sbu_0, # of connection points: 4
#     Node 17, Type 1, BuildingBlock: UXUYUI_clean_sbu_0, # of connection points: 4
#     Node 18, Type 1, BuildingBlock: UXUYUI_clean_sbu_0, # of connection points: 4
#     Node 19, Type 1, BuildingBlock: UXUYUI_clean_sbu_0, # of connection points: 4
#     Node 20, Type 1, BuildingBlock: UXUYUI_clean_sbu_0, # of connection points: 4
#     Node 21, Type 1, BuildingBlock: UXUYUI_clean_sbu_0, # of connection points: 4
#     Node 22, Type 1, BuildingBlock: UXUYUI_clean_sbu_0, # of connection points: 4
#     Node 23, Type 1, BuildingBlock: UXUYUI_clean_sbu_0, # of connection points: 4
#     Node 24, Type 1, BuildingBlock: UXUYUI_clean_sbu_0, # of connection points: 4
#     Node 25, Type 1, BuildingBlock: UXUYUI_clean_sbu_0, # of connection points: 4
#     Node 26, Type 1, BuildingBlock: UXUYUI_clean_sbu_0, # of connection points: 4
#     Node 27, Type 1, BuildingBlock: UXUYUI_clean_sbu_0, # of connection points: 4
#     Edge 28, Type (0, 1), BuildingBlock: MIFKUJ_clean_linker_0, # of connection points: 2
#     Edge 29, Type (0, 1), BuildingBlock: MIFKUJ_clean_linker_0, # of connection points: 2
#     Edge 30, Type (0, 1), BuildingBlock: MIFKUJ_clean_linker_0, # of connection points: 2
#     Edge 31, Type (0, 1), BuildingBlock: MIFKUJ_clean_linker_0, # of connection points: 2
#     Edge 32, Type (0, 1), BuildingBlock: MIFKUJ_clean_linker_0, # of connection points: 2
#     Edge 33, Type (0, 1), BuildingBlock: MIFKUJ_clean_linker_0, # of connection points: 2
#     Edge 34, Type (0, 1), BuildingBlock: MIFKUJ_clean_linker_0, # of connection points: 2
#     Edge 35, Type (0, 1), BuildingBlock: MIFKUJ_clean_linker_0, # of connection points: 2
#     Edge 36, Type (0, 1), BuildingBlock: MIFKUJ_clean_linker_0, # of connection points: 2
#     Edge 37, Type (0, 1), BuildingBlock: MIFKUJ_clean_linker_0, # of connection points: 2
#     Edge 38, Type (0, 1), BuildingBlock: MIFKUJ_clean_linker_0, # of connection points: 2
#     Edge 39, Type (0, 1), BuildingBlock: MIFKUJ_clean_linker_0, # of connection points: 2
#     Edge 40, Type (0, 1), BuildingBlock: MIFKUJ_clean_linker_0, # of connection points: 2
#     Edge 41, Type (0, 1), BuildingBlock: MIFKUJ_clean_linker_0, # of connection points: 2
#     Edge 42, Type (0, 1), BuildingBlock: MIFKUJ_clean_linker_0, # of connection points: 2
#     Edge 43, Type (0, 1), BuildingBlock: MIFKUJ_clean_linker_0, # of connection points: 2
#     Edge 44, Type (0, 1), BuildingBlock: MIFKUJ_clean_linker_0, # of connection points: 2
#     Edge 45, Type (0, 1), BuildingBlock: MIFKUJ_clean_linker_0, # of connection points: 2
#     Edge 46, Type (0, 1), BuildingBlock: MIFKUJ_clean_linker_0, # of connection points: 2
#     Edge 47, Type (0, 1), BuildingBlock: MIFKUJ_clean_linker_0, # of connection points: 2
#     Edge 48, Type (0, 1), BuildingBlock: MIFKUJ_clean_linker_0, # of connection points: 2
#     Edge 49, Type (0, 1), BuildingBlock: MIFKUJ_clean_linker_0, # of connection points: 2
#     Edge 50, Type (0, 1), BuildingBlock: MIFKUJ_clean_linker_0, # of connection points: 2
#     Edge 51, Type (0, 1), BuildingBlock: MIFKUJ_clean_linker_0, # of connection points: 2
#     Edge 52, Type (0, 1), BuildingBlock: MIFKUJ_clean_linker_0, # of connection points: 2
#     Edge 53, Type (0, 1), BuildingBlock: MIFKUJ_clean_linker_0, # of connection points: 2
#     Edge 54, Type (0, 1), BuildingBlock: MIFKUJ_clean_linker_0, # of connection points: 2
#     Edge 55, Type (0, 1), BuildingBlock: MIFKUJ_clean_linker_0, # of connection points: 2
#     Edge 56, Type (0, 1), BuildingBlock: MIFKUJ_clean_linker_0, # of connection points: 2
#     Edge 57, Type (0, 1), BuildingBlock: MIFKUJ_clean_linker_0, # of connection points: 2
#     Edge 58, Type (0, 1), BuildingBlock: MIFKUJ_clean_linker_0, # of connection points: 2
#     Edge 59, Type (0, 1), BuildingBlock: MIFKUJ_clean_linker_0, # of connection points: 2
#     Edge 60, Type (0, 1), BuildingBlock: MIFKUJ_clean_linker_0, # of connection points: 2
#     Edge 61, Type (0, 1), BuildingBlock: MIFKUJ_clean_linker_0, # of connection points: 2
#     Edge 62, Type (0, 1), BuildingBlock: MIFKUJ_clean_linker_0, # of connection points: 2
#     Edge 63, Type (0, 1), BuildingBlock: MIFKUJ_clean_linker_0, # of connection points: 2
#     Edge 64, Type (0, 1), BuildingBlock: MIFKUJ_clean_linker_0, # of connection points: 2
#     Edge 65, Type (0, 1), BuildingBlock: MIFKUJ_clean_linker_0, # of connection points: 2
#     Edge 66, Type (0, 1), BuildingBlock: MIFKUJ_clean_linker_0, # of connection points: 2
#     Edge 67, Type (0, 1), BuildingBlock: MIFKUJ_clean_linker_0, # of connection points: 2
#     Edge 68, Type (0, 1), BuildingBlock: MIFKUJ_clean_linker_0, # of connection points: 2
#     Edge 69, Type (0, 1), BuildingBlock: MIFKUJ_clean_linker_0, # of connection points: 2
#     Edge 70, Type (0, 1), BuildingBlock: MIFKUJ_clean_linker_0, # of connection points: 2
#     Edge 71, Type (0, 1), BuildingBlock: MIFKUJ_clean_linker_0, # of connection points: 2
#     Edge 72, Type (0, 1), BuildingBlock: MIFKUJ_clean_linker_0, # of connection points: 2
#     Edge 73, Type (0, 1), BuildingBlock: MIFKUJ_clean_linker_0, # of connection points: 2
#     Edge 74, Type (0, 1), BuildingBlock: MIFKUJ_clean_linker_0, # of connection points: 2
#     Edge 75, Type (0, 1), BuildingBlock: MIFKUJ_clean_linker_0, # of connection points: 2
# Relax obj value: 0.062
# Max RMSD: 0.182
# Mean RMSD: 0.116
data_MOF--net-ctn--node1-UXUYUI_clean_sbu_0--node2-PAMTOO_clean_linker_0--edge1-MIFKUJ_clean_linker_0
_symmetry_space_group_name_H-M    P1
_symmetry_Int_Tables_number       1
_symmetry_cell_setting            triclinic
loop_
_symmetry_equiv_pos_as_xyz
'x, y, z'
_cell_length_a     83.201277
_cell_length_b     83.669985
_cell_length_c     85.103186
_cell_angle_alpha  85.382682
_cell_angle_beta   92.350953
_cell_angle_gamma 97.066914
loop_
_atom_site_label
_atom_site_type_symbol
_atom_site_fract_x
_atom_site_fract_y
_atom_site_fract_z
_atom_type_partial_charge
H0 H 0.0234 0.07034 0.05978 0.0
H1 H 0.04487 0.02687 0.07384 0.0
H2 H 0.06133 0.05641 0.03273 0.0
H3 H 0.05709 0.02174 0.02946 0.0
C4 C 0.06135 0.01734 0.04141 0.0
O5 O 0.06507 0.03018 0.05067 0.0
H6 H 0.05139 0.00882 0.0468 0.0
C7 C 0.032 0.062 0.05791 0.0
C8 C 0.04218 0.0651 0.04495 0.0
C9 C 0.03279 0.04826 0.06845 0.0
C10 C 0.04408 0.03758 0.06593 0.0
C11 C 0.05423 0.04049 0.053 0.0
C12 C 0.05328 0.05421 0.04257 0.0
H13 H 0.30704 0.70124 0.25987 0.0
H14 H 0.27883 0.71441 0.21828 0.0
H15 H 0.32126 0.74535 0.23144 0.0
H16 H 0.29433 0.76269 0.22014 0.0
C17 C 0.28808 0.75401 0.21198 0.0
O18 O 0.29712 0.74138 0.21101 0.0
H19 H 0.27602 0.74937 0.21684 0.0
C20 C 0.30503 0.70953 0.24973 0.0
C21 C 0.31582 0.72376 0.2471 0.0
C22 C 0.29167 0.7059 0.23939 0.0
C23 C 0.28914 0.71678 0.22631 0.0
C24 C 0.29972 0.731 0.22361 0.0
C25 C 0.31305 0.73441 0.23389 0.0
H26 H 0.97101 0.49072 0.09519 0.0
H27 H 0.95565 0.4703 0.0513 0.0
H28 H 0.99516 0.45286 0.07861 0.0
H29 H 1.0 0.45707 0.04492 0.0
C30 C 0.98739 0.45375 0.0404 0.0
O31 O 0.97717 0.44989 0.05288 0.0
H32 H 0.98351 0.46434 0.03312 0.0
C33 C 0.97226 0.48228 0.08643 0.0
C34 C 0.98444 0.47194 0.08858 0.0
C35 C 0.96172 0.48183 0.07304 0.0
C36 C 0.96348 0.47078 0.06178 0.0
C37 C 0.97559 0.46047 0.06378 0.0
C38 C 0.98597 0.46104 0.07714 0.0
H39 H 0.71566 0.81639 0.25762 0.0
H40 H 0.69863 0.77199 0.23657 0.0
H41 H 0.7421 0.80052 0.22053 0.0
H42 H 0.71632 0.78742 0.19688 0.0
C43 C 0.71512 0.7747 0.20211 0.0
O44 O 0.72243 0.77409 0.21698 0.0
H45 H 0.702 0.77032 0.20303 0.0
C46 C 0.71699 0.80762 0.2492 0.0
C47 C 0.73028 0.81014 0.23925 0.0
C48 C 0.70537 0.79398 0.24833 0.0
C49 C 0.70741 0.78258 0.2375 0.0
C50 C 0.72059 0.78503 0.22744 0.0
C51 C 0.73192 0.79881 0.22828 0.0
H52 H 0.07955 0.96697 0.50674 0.0
H53 H 0.03579 0.95472 0.47915 0.0
H54 H 0.06768 0.99734 0.46566 0.0
H55 H 0.03403 0.00221 0.46214 0.0
C56 C 0.02842 0.98977 0.46005 0.0
O57 O 0.04039 0.97989 0.45895 0.0
H58 H 0.02068 0.9851 0.47019 0.0
C59 C 0.07162 0.96943 0.49665 0.0
C60 C 0.07553 0.98336 0.48648 0.0
C61 C 0.05731 0.95895 0.49421 0.0
C62 C 0.04679 0.96266 0.48142 0.0
C63 C 0.05052 0.97653 0.47128 0.0
C64 C 0.06486 0.98678 0.47376 0.0
H65 H 0.20605 0.75222 0.81048 0.0
H66 H 0.22077 0.71417 0.78518 0.0
H67 H 0.24862 0.7299 0.8258 0.0
H68 H 0.26783 0.7234 0.79814 0.0
C69 C 0.2592 0.71357 0.7934 0.0
O70 O 0.24627 0.71007 0.8033 0.0
H71 H 0.25483 0.71778 0.78142 0.0
C72 C 0.21436 0.74346 0.80906 0.0
C73 C 0.22756 0.74231 0.81981 0.0
C74 C 0.21174 0.7334 0.79651 0.0
C75 C 0.2225 0.722 0.79481 0.0
C76 C 0.23587 0.72093 0.80523 0.0
C77 C 0.23838 0.73105 0.81768 0.0
H78 H 0.95665 0.56335 0.50703 0.0
H79 H 0.97451 0.5379 0.47063 0.0
H80 H 0.00393 0.57865 0.48832 0.0
H81 H 0.00836 0.57704 0.45472 0.0
C82 C 0.00306 0.5643 0.4536 0.0
O83 O 1.00219 0.5562 0.46839 0.0
H84 H 0.9907 0.56451 0.44808 0.0
C85 C 0.96601 0.56205 0.49889 0.0
C86 C 0.9805 0.5727 0.49894 0.0
C87 C 0.96371 0.54937 0.48883 0.0
C88 C 0.9761 0.54745 0.47864 0.0
C89 C 0.99051 0.55802 0.47847 0.0
C90 C 0.99275 0.5705 0.48867 0.0
H91 H 0.78295 0.80551 0.84216 0.0
H92 H 0.82222 0.78265 0.82593 0.0
H93 H 0.80451 0.82178 0.79756 0.0
H94 H 0.81306 0.79688 0.7787 0.0
C95 C 0.82158 0.79112 0.78713 0.0
O96 O 0.82543 0.80072 0.79953 0.0
H97 H 0.8154 0.77913 0.79157 0.0
C98 C 0.79162 0.80445 0.83325 0.0
C99 C 0.79228 0.81513 0.81956 0.0
C100 C 0.80246 0.79276 0.83579 0.0
C101 C 0.81393 0.79173 0.82436 0.0
C102 C 0.81458 0.80213 0.81061 0.0
C103 C 0.80391 0.81388 0.8083 0.0
H104 H 0.28255 0.30471 0.34349 0.0
H105 H 0.32124 0.28129 0.32688 0.0
H106 H 0.30353 0.32032 0.29846 0.0
H107 H 0.30979 0.29279 0.28086 0.0
C108 C 0.31994 0.28849 0.28833 0.0
O109 O 0.3239 0.2988 0.30014 0.0
H110 H 0.31582 0.27612 0.29356 0.0
C111 C 0.29137 0.30379 0.33468 0.0
C112 C 0.29171 0.31418 0.32077 0.0
C113 C 0.3019 0.2918 0.33704 0.0
C114 C 0.3129 0.2903 0.32529 0.0
C115 C 0.31332 0.30047 0.31139 0.0
C116 C 0.30284 0.3124 0.30919 0.0
H117 H 0.47055 0.99067 0.59375 0.0
H118 H 0.45642 0.971 0.54924 0.0
H119 H 0.49635 0.95434 0.57653 0.0
H120 H 0.5002 0.96161 0.54169 0.0
C121 C 0.48812 0.95577 0.53772 0.0
O122 O 0.47862 0.95128 0.55064 0.0
H123 H 0.48229 0.96466 0.52967 0.0
C124 C 0.47209 0.9824 0.5849 0.0
C125 C 0.48468 0.97254 0.58689 0.0
C126 C 0.4619 0.98214 0.57127 0.0
C127 C 0.46426 0.9716 0.55971 0.0
C128 C 0.47667 0.96164 0.56164 0.0
C129 C 0.48687 0.96218 0.57514 0.0
H130 H 0.21358 0.31747 0.75807 0.0
H131 H 0.19798 0.27268 0.73717 0.0
H132 H 0.24081 0.30228 0.72114 0.0
H133 H 0.22004 0.28946 0.69663 0.0
C134 C 0.2158 0.2772 0.70206 0.0
O135 O 0.22172 0.27557 0.71744 0.0
H136 H 0.20232 0.27567 0.70207 0.0
C137 C 0.21528 0.30875 0.74971 0.0
C138 C 0.22855 0.31168 0.73973 0.0
C139 C 0.20417 0.29471 0.74899 0.0
C140 C 0.20637 0.28359 0.73794 0.0
C141 C 0.21961 0.28634 0.728 0.0
C142 C 0.23073 0.30025 0.72902 0.0
H143 H 0.80607 0.19956 0.76021 0.0
H144 H 0.77874 0.21143 0.71759 0.0
H145 H 0.8186 0.24456 0.73268 0.0
H146 H 0.78903 0.2589 0.72183 0.0
C147 C 0.78487 0.25095 0.71221 0.0
O148 O 0.7954 0.23954 0.71143 0.0
H149 H 0.77255 0.24487 0.71498 0.0
C150 C 0.80392 0.20775 0.75004 0.0
C151 C 0.81411 0.22242 0.74773 0.0
C152 C 0.79102 0.20356 0.73931 0.0
C153 C 0.7884 0.21438 0.72618 0.0
C154 C 0.79828 0.22912 0.72392 0.0
C155 C 0.81113 0.23306 0.73458 0.0
H156 H 0.52349 0.57051 0.55993 0.0
H157 H 0.54675 0.52849 0.57554 0.0
H158 H 0.55992 0.55514 0.53192 0.0
H159 H 0.55399 0.51909 0.53248 0.0
C160 C 0.5609 0.51629 0.54365 0.0
O161 O 0.56522 0.53029 0.55116 0.0
H162 H 0.55295 0.50759 0.55135 0.0
C163 C 0.53213 0.56219 0.55814 0.0
C164 C 0.54151 0.56456 0.54457 0.0
C165 C 0.53382 0.54921 0.56944 0.0
C166 C 0.54507 0.53848 0.56696 0.0
C167 C 0.5544 0.54065 0.55344 0.0
C168 C 0.55267 0.55368 0.54235 0.0
H169 H 0.57876 0.46745 0.00876 0.0
H170 H 0.53582 0.45449 0.98037 0.0
H171 H 0.56715 0.49767 0.9674 0.0
H172 H 0.53334 0.50134 0.96315 0.0
C173 C 0.52824 0.48884 0.96066 0.0
O174 O 0.54065 0.47943 0.95987 0.0
H175 H 0.52021 0.48379 0.97047 0.0
C176 C 0.57076 0.47013 0.99878 0.0
C177 C 0.57477 0.48401 0.98855 0.0
C178 C 0.55677 0.45936 0.99597 0.0
C179 C 0.54674 0.46254 0.98269 0.0
C180 C 0.55053 0.47634 0.97247 0.0
C181 C 0.56452 0.48696 0.97534 0.0
H182 H 0.70612 0.253 0.31076 0.0
H183 H 0.71972 0.21388 0.28615 0.0
H184 H 0.74902 0.23095 0.32531 0.0
H185 H 0.76722 0.22393 0.29789 0.0
C186 C 0.75868 0.21389 0.29341 0.0
O187 O 0.74585 0.21043 0.30343 0.0
H188 H 0.7542 0.21782 0.2814 0.0
C189 C 0.71428 0.24413 0.30929 0.0
C190 C 0.72782 0.24324 0.31967 0.0
C191 C 0.71116 0.23365 0.29708 0.0
C192 C 0.7219 0.22222 0.29531 0.0
C193 C 0.73553 0.22135 0.30542 0.0
C194 C 0.7384 0.23174 0.31761 0.0
H195 H 0.45609 0.06385 0.00667 0.0
H196 H 0.47458 0.0382 0.9708 0.0
H197 H 0.50384 0.07885 0.98889 0.0
H198 H 0.51009 0.07704 0.95559 0.0
C199 C 0.50368 0.06474 0.95427 0.0
O200 O 0.50235 0.05642 0.96895 0.0
H201 H 0.4914 0.06607 0.94895 0.0
C202 C 0.46563 0.06248 0.99876 0.0
C203 C 0.48017 0.07304 0.99908 0.0
C204 C 0.4635 0.04978 0.98872 0.0
C205 C 0.47606 0.04778 0.97878 0.0
C206 C 0.4905 0.05829 0.97883 0.0
C207 C 0.49262 0.07076 0.98905 0.0
Li208 Li 0.26856 0.90329 1.00095 0.0
Li209 Li 0.25601 0.88101 0.01878 0.0
Li210 Li 0.25102 0.88188 0.98908 0.0
Li211 Li 0.23844 0.90012 0.00508 0.0
C212 C 0.28771 0.88019 1.00003 0.0
N213 N 0.32075 0.8815 0.99672 0.0
C214 C 0.29765 0.87588 0.01292 0.0
C215 C 0.29454 0.88496 0.98541 0.0
C216 C 0.31434 0.87666 0.01102 0.0
C217 C 0.31128 0.88561 0.98399 0.0
C218 C 0.25562 0.90879 0.03561 0.0
C219 C 0.24002 0.90939 0.05877 0.0
N220 N 0.25319 0.9172 0.06609 0.0
C221 C 0.26895 0.91699 0.04329 0.0
C222 C 0.241 0.90508 0.04335 0.0
C223 C 0.2675 0.92107 0.05872 0.0
C224 C 0.28887 0.92959 0.98598 0.0
N225 N 0.28764 0.91844 0.99855 0.0
C226 C 0.31417 0.92823 0.0081 0.0
C227 C 0.29984 0.9177 0.00961 0.0
C228 C 0.31586 0.93982 0.99521 0.0
C229 C 0.30293 0.9405 0.9841 0.0
H230 H 0.27895 0.93 0.97741 0.0
H231 H 0.29847 0.90887 0.0196 0.0
C232 C 0.25142 0.85231 0.0391 0.0
N233 N 0.25937 0.86752 0.03757 0.0
C234 C 0.25379 0.84221 0.05269 0.0
C235 C 0.27273 0.86352 0.06274 0.0
C236 C 0.27 0.87318 0.04897 0.0
C237 C 0.26456 0.84779 0.06478 0.0
H238 H 0.24329 0.84796 0.02971 0.0
H239 H 0.27651 0.88514 0.04731 0.0
C240 C 0.24593 0.90776 0.96963 0.0
N241 N 0.23652 0.9114 0.93817 0.0
C242 C 0.23002 0.9104 0.96534 0.0
C243 C 0.2571 0.90715 0.95794 0.0
C244 C 0.2255 0.91218 0.94936 0.0
C245 C 0.25209 0.90895 0.94209 0.0
C246 C 0.22026 0.86897 0.01042 0.0
C247 C 0.20931 0.86279 0.99888 0.0
C248 C 0.21575 0.86763 0.02616 0.0
C249 C 0.19389 0.85569 0.00323 0.0
C250 C 0.20022 0.86044 0.03004 0.0
N251 N 0.18969 0.85469 0.01859 0.0
C252 C 0.25963 0.85881 0.96949 0.0
C253 C 0.23504 0.86897 0.96135 0.0
C254 C 0.25833 0.84891 0.95693 0.0
N255 N 0.24814 0.86866 0.97143 0.0
C256 C 0.23325 0.85926 0.9486 0.0
C257 C 0.24501 0.84904 0.94623 0.0
H258 H 0.26978 0.85852 0.9778 0.0
H259 H 0.22594 0.87673 0.96318 0.0
C260 C 0.22389 0.92685 0.01303 0.0
N261 N 0.22037 0.91189 0.00767 0.0
C262 C 0.21149 0.93604 0.01577 0.0
C263 C 0.192 0.91446 0.0071 0.0
C264 C 0.20479 0.90571 0.00448 0.0
C265 C 0.19526 0.92982 0.01292 0.0
H266 H 0.23638 0.93157 0.01535 0.0
H267 H 0.20222 0.89403 0.99981 0.0
O268 O 0.27139 0.87978 1.00173 0.0
O269 O 0.25687 0.90466 0.0205 0.0
O270 O 0.25056 0.90591 0.98521 0.0
O271 O 0.23542 0.87595 0.00634 0.0
H272 H 0.29256 0.87207 0.0243 0.0
H273 H 0.28701 0.88824 0.9753 0.0
H274 H 0.32219 0.87345 0.02092 0.0
H275 H 0.31675 0.8894 0.97277 0.0
H276 H 0.22877 0.90656 0.06491 0.0
H277 H 0.28032 0.92012 0.03742 0.0
H278 H 0.23045 0.89913 0.03747 0.0
H279 H 0.27775 0.92734 0.06484 0.0
H280 H 0.32373 0.92745 0.01705 0.0
H281 H 0.30378 0.94922 0.97396 0.0
H282 H 0.24744 0.83009 0.05361 0.0
H283 H 0.28107 0.86839 0.07176 0.0
H284 H 0.22124 0.91097 0.97424 0.0
H285 H 0.26948 0.90522 0.96106 0.0
H286 H 0.2132 0.91415 0.94586 0.0
H287 H 0.26058 0.9084 0.93291 0.0
H288 H 0.21262 0.86357 0.98668 0.0
H289 H 0.22418 0.87191 0.03532 0.0
H290 H 0.18526 0.85097 0.9944 0.0
H291 H 0.19657 0.85937 0.04217 0.0
H292 H 0.26753 0.84102 0.95578 0.0
H293 H 0.22284 0.85987 0.94062 0.0
H294 H 0.21459 0.94777 0.02036 0.0
H295 H 0.1797 0.90932 0.00444 0.0
Li296 Li 0.1312 0.49502 0.29723 0.0
Li297 Li 0.14993 0.47848 0.28592 0.0
Li298 Li 0.15184 0.50874 0.27892 0.0
Li299 Li 0.12974 0.48993 0.26818 0.0
C300 C 0.16057 0.50073 0.31451 0.0
N301 N 0.17103 0.50881 0.34442 0.0
C302 C 0.16609 0.48909 0.32545 0.0
C303 C 0.16062 0.51654 0.31873 0.0
C304 C 0.17127 0.49339 0.34052 0.0
C305 C 0.16588 0.52037 0.33392 0.0
C306 C 0.12256 0.4584 0.29232 0.0
C307 C 0.11965 0.43011 0.28771 0.0
N308 N 0.11643 0.4263 0.30319 0.0
C309 C 0.11908 0.45421 0.30815 0.0
C310 C 0.1227 0.44628 0.28197 0.0
C311 C 0.11606 0.43791 0.31343 0.0
C312 C 0.10457 0.50506 0.31136 0.0
N313 N 0.11843 0.49823 0.31482 0.0
C314 C 0.11388 0.49777 0.34247 0.0
C315 C 0.12302 0.49426 0.33003 0.0
C316 C 0.09974 0.50524 0.33925 0.0
C317 C 0.09503 0.5087 0.32342 0.0
H318 H 0.10105 0.50793 0.29919 0.0
H319 H 0.13376 0.48838 0.33256 0.0
C320 C 0.17396 0.45912 0.27917 0.0
N321 N 0.16269 0.46074 0.28988 0.0
C322 C 0.18391 0.44678 0.28149 0.0
C323 C 0.17067 0.43802 0.30595 0.0
C324 C 0.16094 0.45052 0.30313 0.0
C325 C 0.18239 0.43603 0.29505 0.0
H326 H 0.17541 0.46756 0.26889 0.0
H327 H 0.15214 0.45216 0.31165 0.0
C328 C 0.12526 0.526 0.27687 0.0
N329 N 0.11953 0.55797 0.27384 0.0
C330 C 0.11974 0.53283 0.26243 0.0
C331 C 0.12759 0.53536 0.28983 0.0
C332 C 0.117 0.54904 0.26111 0.0
C333 C 0.12469 0.55151 0.28806 0.0
C334 C 0.15476 0.48793 0.2497 0.0
C335 C 0.16079 0.50031 0.23872 0.0
C336 C 0.14995 0.47246 0.24483 0.0
C337 C 0.16167 0.49705 0.22295 0.0
C338 C 0.151 0.46969 0.22896 0.0
N339 N 0.15678 0.48194 0.21843 0.0
C340 C 0.17962 0.53134 0.28366 0.0
C341 C 0.16261 0.53855 0.26192 0.0
C342 C 0.18999 0.54566 0.2809 0.0
N343 N 0.1661 0.52818 0.27437 0.0
C344 C 0.17267 0.55298 0.25867 0.0
C345 C 0.18652 0.55677 0.26831 0.0
H346 H 0.1824 0.52271 0.29322 0.0
H347 H 0.15203 0.53559 0.25444 0.0
C348 C 0.10256 0.47488 0.2512 0.0
N349 N 0.11538 0.48665 0.2502 0.0
C350 C 0.09172 0.47262 0.23834 0.0
C351 C 0.10754 0.49451 0.22359 0.0
C352 C 0.11796 0.49646 0.23677 0.0
C353 C 0.09415 0.48251 0.22428 0.0
H354 H 0.10068 0.46733 0.26205 0.0
H355 H 0.12804 0.50593 0.23634 0.0
O356 O 0.15537 0.49668 0.29972 0.0
O357 O 0.12561 0.47429 0.28696 0.0
O358 O 0.12811 0.51017 0.27834 0.0
O359 O 0.1536 0.49095 0.26515 0.0
H360 H 0.1663 0.47684 0.32237 0.0
H361 H 0.15679 0.5258 0.31033 0.0
H362 H 0.17547 0.48447 0.34912 0.0
H363 H 0.16593 0.53255 0.33734 0.0
H364 H 0.11981 0.4206 0.27985 0.0
H365 H 0.11883 0.46344 0.3163 0.0
H366 H 0.12514 0.44931 0.26964 0.0
H367 H 0.11344 0.43449 0.32568 0.0
H368 H 0.1178 0.4946 0.35449 0.0
H369 H 0.0843 0.51455 0.32037 0.0
H370 H 0.19296 0.44592 0.2729 0.0
H371 H 0.16898 0.42998 0.31652 0.0
H372 H 0.11769 0.52575 0.25231 0.0
H373 H 0.13142 0.53018 0.30119 0.0
H374 H 0.11284 0.55451 0.24997 0.0
H375 H 0.1265 0.55889 0.29799 0.0
H376 H 0.16469 0.51232 0.24231 0.0
H377 H 0.14543 0.46273 0.25321 0.0
H378 H 0.16623 0.50653 0.2143 0.0
H379 H 0.14724 0.45779 0.22501 0.0
H380 H 0.2007 0.54793 0.28843 0.0
H381 H 0.16949 0.5612 0.24887 0.0
H382 H 0.08161 0.46315 0.23935 0.0
H383 H 0.10973 0.50257 0.21309 0.0
Li384 Li 0.76949 0.62275 0.03108 0.0
Li385 Li 0.78245 0.64324 0.0497 0.0
Li386 Li 0.78791 0.64522 0.02018 0.0
Li387 Li 0.79818 0.62477 0.03776 0.0
C388 C 0.75096 0.64679 0.02915 0.0
N389 N 0.71779 0.6469 0.02573 0.0
C390 C 0.74199 0.64983 0.04188 0.0
C391 C 0.74308 0.64399 0.01463 0.0
C392 C 0.72523 0.6498 0.03993 0.0
C393 C 0.7263 0.64403 0.01315 0.0
C394 C 0.78454 0.60707 0.06192 0.0
C395 C 0.79808 0.59709 0.08562 0.0
N396 N 0.7957 0.58194 0.08055 0.0
C397 C 0.78211 0.59141 0.05698 0.0
C398 C 0.79251 0.60997 0.07637 0.0
C399 C 0.78789 0.57886 0.06656 0.0
C400 C 0.74952 0.59885 0.01511 0.0
N401 N 0.75025 0.60834 0.02741 0.0
C402 C 0.72319 0.59776 0.03423 0.0
C403 C 0.73758 0.60773 0.03713 0.0
C404 C 0.72191 0.58809 0.02135 0.0
C405 C 0.73542 0.58862 0.01184 0.0
H406 H 0.75992 0.59918 0.00784 0.0
H407 H 0.73859 0.61514 0.04704 0.0
C408 C 0.78455 0.67116 0.06648 0.0
N409 N 0.7789 0.65519 0.06713 0.0
C410 C 0.78105 0.68069 0.07836 0.0
C411 C 0.76604 0.65713 0.09143 0.0
C412 C 0.76996 0.64802 0.07935 0.0
C413 C 0.77144 0.67377 0.09096 0.0
H414 H 0.79158 0.67655 0.05657 0.0
H415 H 0.76544 0.63532 0.07944 0.0
C416 C 0.79101 0.62292 1.00127 0.0
N417 N 0.79831 0.62577 0.96969 0.0
C418 C 0.80685 0.62214 0.99675 0.0
C419 C 0.77889 0.62509 0.9897 0.0
C420 C 0.81029 0.62359 0.98073 0.0
C421 C 0.78282 0.62655 0.97381 0.0
C422 C 0.81934 0.65084 0.04291 0.0
C423 C 0.83103 0.64837 0.03232 0.0
C424 C 0.82416 0.65553 0.05796 0.0
C425 C 0.84739 0.65048 0.03702 0.0
C426 C 0.84064 0.65756 0.0622 0.0
N427 N 0.85182 0.655 0.05174 0.0
C428 C 0.77904 0.66975 0.99796 0.0
C429 C 0.80507 0.66247 0.99392 0.0
C430 C 0.78024 0.68071 0.98467 0.0
N431 N 0.79123 0.6607 1.0022 0.0
C432 C 0.80674 0.6732 0.98044 0.0
C433 C 0.79415 0.68244 0.97555 0.0
H434 H 0.76833 0.6685 0.0049 0.0
H435 H 0.81476 0.65541 0.99761 0.0
C436 C 0.81586 0.59891 0.03291 0.0
N437 N 0.81538 0.6112 0.04234 0.0
C438 C 0.82757 0.58829 0.03559 0.0
C439 C 0.83781 0.60271 0.05806 0.0
C440 C 0.8259 0.61307 0.05492 0.0
C441 C 0.83882 0.59012 0.04829 0.0
H442 H 0.80702 0.59722 0.02334 0.0
H443 H 0.82489 0.62241 0.06274 0.0
O444 O 0.76736 0.64651 0.0309 0.0
O445 O 0.7794 0.61957 0.05251 0.0
O446 O 0.78741 0.62168 0.01691 0.0
O447 O 0.80326 0.64884 0.03855 0.0
H448 H 0.74786 0.65211 0.05317 0.0
H449 H 0.74982 0.6417 0.00463 0.0
H450 H 0.71814 0.65206 0.04971 0.0
H451 H 0.72004 0.64177 1.00201 0.0
H452 H 0.80437 0.59915 0.09679 0.0
H453 H 0.776 0.58902 0.04578 0.0
H454 H 0.79455 0.62207 0.08029 0.0
H455 H 0.78622 0.56668 0.06285 0.0
H456 H 0.7131 0.59787 0.04184 0.0
H457 H 0.73518 0.58111 1.00203 0.0
H458 H 0.78575 0.69337 0.07759 0.0
H459 H 0.75841 0.65127 0.10072 0.0
H460 H 0.81646 0.6207 0.00548 0.0
H461 H 0.76658 0.62574 0.99294 0.0
H462 H 0.82251 0.6231 0.97708 0.0
H463 H 0.77356 0.62831 0.96475 0.0
H464 H 0.8275 0.64463 0.02069 0.0
H465 H 0.81527 0.65744 0.06632 0.0
H466 H 0.85656 0.64849 0.02899 0.0
H467 H 0.84455 0.66112 0.07382 0.0
H468 H 0.77039 0.68785 0.98167 0.0
H469 H 0.81766 0.67401 0.97379 0.0
H470 H 0.82786 0.57882 0.02769 0.0
H471 H 0.84593 0.60436 0.06823 0.0
Li472 Li 0.87513 0.03589 0.26143 0.0
Li473 Li 0.89432 0.01837 0.27438 0.0
Li474 Li 0.89382 0.02416 0.24466 0.0
Li475 Li 0.87236 0.00587 0.25812 0.0
C476 C 0.90585 0.05508 0.26084 0.0
N477 N 0.9193 0.08704 0.25926 0.0
C478 C 0.9128 0.06191 0.27435 0.0
C479 C 0.90603 0.06443 0.24646 0.0
C480 C 0.91945 0.07812 0.27333 0.0
C481 C 0.91281 0.08058 0.24592 0.0
C482 C 0.86891 0.01492 0.29344 0.0
C483 C 0.86968 0.99785 0.31763 0.0
N484 N 0.86623 0.01027 0.32579 0.0
C485 C 0.86521 0.02745 0.30205 0.0
C486 C 0.87101 0.99995 0.30126 0.0
C487 C 0.86395 0.02488 0.3184 0.0
C488 C 0.84893 0.05471 0.25631 0.0
N489 N 0.86355 0.054 0.26391 0.0
C490 C 0.86112 0.07842 0.27599 0.0
C491 C 0.86968 0.06547 0.2737 0.0
C492 C 0.84602 0.07957 0.26822 0.0
C493 C 0.83996 0.06746 0.25824 0.0
H494 H 0.84416 0.0453 0.2488 0.0
H495 H 0.88101 0.06437 0.28008 0.0
C496 C 0.91869 0.0041 0.29277 0.0
N497 N 0.9082 0.01536 0.29262 0.0
C498 C 0.92891 1.00146 0.30593 0.0
C499 C 0.91742 0.02211 0.31853 0.0
C500 C 0.90754 0.02445 0.30507 0.0
C501 C 0.92829 0.01047 0.31908 0.0
H502 H 0.91914 0.99716 0.28266 0.0
H503 H 0.89935 0.03356 0.30456 0.0
C504 C 0.86518 0.03018 0.22735 0.0
N505 N 0.85568 0.04249 0.19779 0.0
C506 C 0.85731 0.01989 0.21656 0.0
C507 C 0.86796 0.04676 0.2232 0.0
C508 C 0.85268 0.02634 0.20164 0.0
C509 C 0.86314 0.05275 0.20818 0.0
C510 C 0.89618 0.98764 0.25504 0.0
C511 C 0.89944 0.98323 0.2401 0.0
C512 C 0.89312 0.97569 0.26735 0.0
C513 C 0.89928 0.96689 0.23767 0.0
C514 C 0.89305 0.95949 0.26444 0.0
N515 N 0.89609 0.95546 0.24978 0.0
C516 C 0.92251 0.03477 0.22824 0.0
C517 C 0.90132 0.02215 0.21243 0.0
C518 C 0.93289 0.03679 0.21554 0.0
N519 N 0.90703 0.02761 0.22647 0.0
C520 C 0.91129 0.02392 0.19942 0.0
C521 C 0.92735 0.03127 0.20088 0.0
H522 H 0.92685 0.03876 0.2396 0.0
H523 H 0.88919 0.01599 0.21142 0.0
C524 C 0.84697 0.98147 0.26748 0.0
N525 N 0.85742 0.98683 0.25581 0.0
C526 C 0.83635 0.96729 0.26624 0.0
C527 C 0.8473 0.96449 0.24088 0.0
C528 C 0.85762 0.97877 0.24258 0.0
C529 C 0.83649 0.9585 0.25284 0.0
H530 H 0.84685 0.98821 0.27777 0.0
H531 H 0.86594 0.98335 0.23339 0.0
O532 O 0.89933 0.03921 0.26164 0.0
O533 O 0.87038 0.01728 0.27743 0.0
O534 O 0.86982 0.02404 0.242 0.0
O535 O 0.89603 0.00356 0.25759 0.0
H536 H 0.91296 0.05482 0.28553 0.0
H537 H 0.90119 0.05924 0.23579 0.0
H538 H 0.92474 0.08359 0.28373 0.0
H539 H 0.91298 0.08795 0.23487 0.0
H540 H 0.87139 0.98636 0.32384 0.0
H541 H 0.86338 0.03906 0.29619 0.0
H542 H 0.8737 0.99007 0.29478 0.0
H543 H 0.86119 0.03451 0.32521 0.0
H544 H 0.86613 0.08723 0.28407 0.0
H545 H 0.82844 0.06787 0.25192 0.0
H546 H 0.93705 0.99231 0.3059 0.0
H547 H 0.91672 0.02949 0.32831 0.0
H548 H 0.85488 0.00705 0.21962 0.0
H549 H 0.8736 0.05496 0.23154 0.0
H550 H 0.84668 0.0185 0.19313 0.0
H551 H 0.86525 0.06556 0.20481 0.0
H552 H 0.90195 0.9923 0.23046 0.0
H553 H 0.89079 0.97889 0.27902 0.0
H554 H 0.90167 0.96331 0.22614 0.0
H555 H 0.89058 0.95011 0.27385 0.0
H556 H 0.94513 0.04265 0.2172 0.0
H557 H 0.90657 0.01918 0.18846 0.0
H558 H 0.82804 0.96334 0.27562 0.0
H559 H 0.848 0.95809 0.23042 0.0
Li560 Li 0.28043 0.14239 0.5504 0.0
Li561 Li 0.26815 0.12313 0.53324 0.0
Li562 Li 0.29705 0.12333 0.54081 0.0
Li563 Li 0.28625 0.14622 0.52225 0.0
C564 C 0.27774 0.11319 0.56983 0.0
N565 N 0.27709 0.1021 0.60131 0.0
C566 C 0.26294 0.10855 0.57708 0.0
C567 C 0.29221 0.11199 0.57855 0.0
C568 C 0.26287 0.10305 0.59303 0.0
C569 C 0.29163 0.1064 0.59446 0.0
C570 C 0.24957 0.14773 0.53445 0.0
C571 C 0.22416 0.15667 0.52514 0.0
N572 N 0.21729 0.15024 0.53883 0.0
C573 C 0.24227 0.14122 0.54841 0.0
C574 C 0.24047 0.15553 0.52271 0.0
C575 C 0.22594 0.14261 0.55041 0.0
C576 C 0.27002 0.16917 0.56322 0.0
N577 N 0.27675 0.15539 0.56757 0.0
C578 C 0.27664 0.16093 0.59476 0.0
C579 C 0.28041 0.15136 0.583 0.0
C580 C 0.26912 0.17489 0.59063 0.0
C581 C 0.26606 0.17908 0.57456 0.0
H582 H 0.26766 0.17247 0.55088 0.0
H583 H 0.28623 0.14075 0.5863 0.0
C584 C 0.24563 0.09483 0.53688 0.0
N585 N 0.24899 0.10914 0.52822 0.0
C586 C 0.23171 0.08441 0.53341 0.0
C587 C 0.22506 0.10359 0.51209 0.0
C588 C 0.2391 0.11362 0.51597 0.0
C589 C 0.22117 0.08877 0.52088 0.0
H590 H 0.25379 0.09151 0.54648 0.0
H591 H 0.2422 0.12495 0.5091 0.0
C592 C 0.30898 0.15893 0.55018 0.0
N593 N 0.32134 0.18209 0.57024 0.0
C594 C 0.30678 0.17511 0.5465 0.0
C595 C 0.31759 0.15453 0.56397 0.0
C596 C 0.31309 0.18664 0.55682 0.0
C597 C 0.32372 0.16642 0.57398 0.0
C598 C 0.27993 0.11222 0.50869 0.0
C599 C 0.27955 0.09563 0.51257 0.0
C600 C 0.27282 0.11777 0.49445 0.0
C601 C 0.2719 0.08482 0.50214 0.0
C602 C 0.26531 0.10657 0.48433 0.0
N603 N 0.26499 0.09047 0.48836 0.0
C604 C 0.31046 0.09446 0.54999 0.0
C605 C 0.32975 0.11623 0.54118 0.0
C606 C 0.32257 0.08428 0.55262 0.0
N607 N 0.31424 0.11012 0.54445 0.0
C608 C 0.34224 0.10641 0.54346 0.0
C609 C 0.33871 0.09019 0.5493 0.0
H610 H 0.29799 0.08988 0.55235 0.0
H611 H 0.33241 0.12872 0.53673 0.0
C612 C 0.28234 0.17464 0.50331 0.0
N613 N 0.29024 0.1613 0.50448 0.0
C614 C 0.28412 0.18566 0.49009 0.0
C615 C 0.30238 0.16914 0.47961 0.0
C616 C 0.30021 0.15841 0.49304 0.0
C617 C 0.29418 0.18296 0.47792 0.0
H618 H 0.27446 0.1766 0.51259 0.0
H619 H 0.30632 0.14766 0.49428 0.0
O620 O 0.27802 0.11826 0.55414 0.0
O621 O 0.2655 0.1463 0.53216 0.0
O622 O 0.30242 0.14742 0.54051 0.0
O623 O 0.28691 0.12298 0.51896 0.0
H624 H 0.25161 0.10909 0.57047 0.0
H625 H 0.30378 0.11556 0.57319 0.0
H626 H 0.2515 0.09948 0.5988 0.0
H627 H 0.30274 0.10552 0.60136 0.0
H628 H 0.21695 0.16264 0.51614 0.0
H629 H 0.24915 0.13518 0.5576 0.0
H630 H 0.24592 0.16054 0.51178 0.0
H631 H 0.22014 0.13763 0.56117 0.0
H632 H 0.27926 0.1572 0.60698 0.0
H633 H 0.26068 0.18994 0.57075 0.0
H634 H 0.22914 0.07317 0.54059 0.0
H635 H 0.21746 0.10732 0.50217 0.0
H636 H 0.30008 0.17868 0.53589 0.0
H637 H 0.31942 0.14205 0.56694 0.0
H638 H 0.31138 0.19919 0.5542 0.0
H639 H 0.33033 0.16318 0.58475 0.0
H640 H 0.28492 0.09117 0.5236 0.0
H641 H 0.27292 0.13058 0.49135 0.0
H642 H 0.27141 0.07195 0.50502 0.0
H643 H 0.25967 0.11068 0.47331 0.0
H644 H 0.31928 0.07182 0.55693 0.0
H645 H 0.35454 0.11147 0.54085 0.0
H646 H 0.27736 0.19597 0.48926 0.0
H647 H 0.31043 0.16665 0.47067 0.0
Li648 Li 0.39598 0.51857 0.77393 0.0
Li649 Li 0.37599 0.53637 0.76035 0.0
Li650 Li 0.37354 0.50572 0.75734 0.0
Li651 Li 0.39514 0.52418 0.74619 0.0
C652 C 0.36558 0.51737 0.7911 0.0
N653 N 0.35228 0.51734 0.82035 0.0
C654 C 0.3655 0.53184 0.79822 0.0
C655 C 0.35876 0.50288 0.79883 0.0
C656 C 0.35876 0.53157 0.81301 0.0
C657 C 0.35214 0.50312 0.81362 0.0
C658 C 0.41262 0.54977 0.75577 0.0
C659 C 0.42324 0.57343 0.73966 0.0
N660 N 0.43828 0.5686 0.74131 0.0
C661 C 0.42819 0.54508 0.7574 0.0
C662 C 0.4101 0.56408 0.74688 0.0
C663 C 0.441 0.55474 0.74996 0.0
C664 C 0.42366 0.50878 0.79063 0.0
N665 N 0.40981 0.5155 0.79237 0.0
C666 C 0.41599 0.51733 0.81993 0.0
C667 C 0.40597 0.51996 0.80663 0.0
C668 C 0.43023 0.51018 0.81854 0.0
C669 C 0.43407 0.50598 0.80361 0.0
H670 H 0.42659 0.5055 0.77915 0.0
H671 H 0.3952 0.52565 0.80775 0.0
C672 C 0.34783 0.55242 0.75857 0.0
N673 N 0.36395 0.55407 0.76239 0.0
C674 C 0.3386 0.56496 0.76059 0.0
C675 C 0.36275 0.58066 0.77034 0.0
C676 C 0.3715 0.56783 0.76813 0.0
C677 C 0.34603 0.57932 0.76661 0.0
H678 H 0.34214 0.54131 0.75406 0.0
H679 H 0.38428 0.56872 0.7713 0.0
C680 C 0.39863 0.48783 0.76474 0.0
N681 N 0.40153 0.45736 0.77895 0.0
C682 C 0.40682 0.47707 0.75729 0.0
C683 C 0.39186 0.48303 0.77939 0.0
C684 C 0.40817 0.46173 0.76467 0.0
C685 C 0.39348 0.46761 0.78639 0.0
C686 C 0.37001 0.52599 0.72539 0.0
C687 C 0.37289 0.51348 0.71634 0.0
C688 C 0.36571 0.54043 0.71796 0.0
C689 C 0.37165 0.51574 0.69991 0.0
C690 C 0.36457 0.5422 0.7015 0.0
N691 N 0.36756 0.52993 0.69289 0.0
C692 C 0.34402 0.48511 0.762 0.0
C693 C 0.36282 0.47524 0.74617 0.0
C694 C 0.33324 0.47104 0.76069 0.0
N695 N 0.35856 0.48684 0.75494 0.0
C696 C 0.3524 0.46103 0.74448 0.0
C697 C 0.3374 0.4587 0.75189 0.0
H698 H 0.34085 0.49461 0.76874 0.0
H699 H 0.37436 0.47701 0.7405 0.0
C700 C 0.41992 0.51726 0.72716 0.0
N701 N 0.40893 0.52784 0.72819 0.0
C702 C 0.43024 0.5188 0.71446 0.0
C703 C 0.41805 0.54238 0.70416 0.0
C704 C 0.40794 0.54036 0.71708 0.0
C705 C 0.42935 0.53144 0.70266 0.0
H706 H 0.42076 0.50764 0.73629 0.0
H707 H 0.39932 0.54882 0.71823 0.0
O708 O 0.37185 0.51744 0.77645 0.0
O709 O 0.39988 0.54028 0.76268 0.0
O710 O 0.39699 0.5028 0.75749 0.0
O711 O 0.37127 0.52408 0.74147 0.0
H712 H 0.37086 0.54313 0.79254 0.0
H713 H 0.35854 0.49155 0.79349 0.0
H714 H 0.35872 0.54269 0.81869 0.0
H715 H 0.34687 0.49199 0.81974 0.0
H716 H 0.42146 0.58449 0.73266 0.0
H717 H 0.43032 0.53399 0.76418 0.0
H718 H 0.39809 0.56779 0.74536 0.0
H719 H 0.4531 0.55121 0.75103 0.0
H720 H 0.41271 0.52106 0.83114 0.0
H721 H 0.44488 0.50036 0.802 0.0
H722 H 0.32581 0.56344 0.75737 0.0
H723 H 0.36896 0.59136 0.77525 0.0
H724 H 0.41197 0.48044 0.74586 0.0
H725 H 0.38554 0.49114 0.78535 0.0
H726 H 0.41446 0.45329 0.75902 0.0
H727 H 0.38834 0.4638 0.79775 0.0
H728 H 0.37626 0.50226 0.72194 0.0
H729 H 0.36341 0.5502 0.72484 0.0
H730 H 0.37398 0.50622 0.69274 0.0
H731 H 0.36133 0.55333 0.69557 0.0
H732 H 0.3219 0.46976 0.76672 0.0
H733 H 0.35602 0.45205 0.73732 0.0
H734 H 0.43898 0.51028 0.714 0.0
H735 H 0.41687 0.55226 0.69533 0.0
Li736 Li 0.76872 0.40271 0.5025 0.0
Li737 Li 0.75545 0.38049 0.51988 0.0
Li738 Li 0.75069 0.38142 0.49018 0.0
Li739 Li 0.73836 0.3997 0.50639 0.0
C740 C 0.78671 0.37818 0.49953 0.0
N741 N 0.81855 0.37642 0.4925 0.0
C742 C 0.79751 0.37272 0.51119 0.0
C743 C 0.79205 0.38248 0.48424 0.0
C744 C 0.81357 0.37199 0.50742 0.0
C745 C 0.80821 0.38158 0.48093 0.0
C746 C 0.75777 0.40631 0.5377 0.0
C747 C 0.74555 0.40456 0.56309 0.0
N748 N 0.76007 0.41032 0.56966 0.0
C749 C 0.77252 0.41241 0.54466 0.0
C750 C 0.74413 0.40252 0.54695 0.0
C751 C 0.77346 0.41428 0.56086 0.0
C752 C 0.78826 0.43045 0.48926 0.0
N753 N 0.78798 0.41762 0.50015 0.0
C754 C 0.81545 0.42583 0.50819 0.0
C755 C 0.80116 0.41523 0.50964 0.0
C756 C 0.81615 0.43915 0.49698 0.0
C757 C 0.80228 0.44143 0.48746 0.0
H758 H 0.77756 0.4322 0.48198 0.0
H759 H 0.80054 0.40515 0.51845 0.0
C760 C 0.74761 0.35386 0.54236 0.0
N761 N 0.75855 0.36695 0.5387 0.0
C762 C 0.74971 0.34398 0.55616 0.0
C763 C 0.77445 0.36106 0.56203 0.0
C764 C 0.77187 0.37059 0.54812 0.0
C765 C 0.76325 0.34756 0.56626 0.0
H766 H 0.73725 0.35105 0.53455 0.0
H767 H 0.78059 0.38084 0.54479 0.0
C768 C 0.74737 0.40897 0.47097 0.0
N769 N 0.74054 0.41608 0.43931 0.0
C770 C 0.73174 0.41183 0.46584 0.0
C771 C 0.75959 0.40998 0.46002 0.0
C772 C 0.72851 0.41535 0.44978 0.0
C773 C 0.75588 0.41351 0.44406 0.0
C774 C 0.71875 0.37049 0.50921 0.0
C775 C 0.70907 0.36517 0.4964 0.0
C776 C 0.71187 0.37047 0.52392 0.0
C777 C 0.69258 0.36021 0.49845 0.0
C778 C 0.69534 0.36544 0.5255 0.0
N779 N 0.68611 0.36047 0.51283 0.0
C780 C 0.75798 0.35657 0.47216 0.0
C781 C 0.73663 0.37032 0.46076 0.0
C782 C 0.75687 0.34653 0.45971 0.0
N783 N 0.74805 0.36829 0.47243 0.0
C784 C 0.73505 0.3605 0.4481 0.0
C785 C 0.74527 0.34838 0.44743 0.0
H786 H 0.76678 0.35495 0.48166 0.0
H787 H 0.72854 0.37937 0.46137 0.0
C788 C 0.72319 0.4246 0.51776 0.0
N789 N 0.72032 0.41156 0.50903 0.0
C790 C 0.7107 0.43363 0.52057 0.0
C791 C 0.69249 0.41598 0.50501 0.0
C792 C 0.70535 0.40727 0.50252 0.0
C793 C 0.69504 0.42933 0.51423 0.0
H794 H 0.73525 0.42801 0.52255 0.0
H795 H 0.70336 0.39713 0.49531 0.0
O796 O 0.77099 0.37922 0.50305 0.0
O797 O 0.75666 0.4042 0.52189 0.0
O798 O 0.75073 0.40548 0.48666 0.0
O799 O 0.73491 0.37544 0.50738 0.0
H800 H 0.79355 0.36916 0.52303 0.0
H801 H 0.78379 0.38642 0.47503 0.0
H802 H 0.82208 0.3679 0.51635 0.0
H803 H 0.81251 0.38496 0.46916 0.0
H804 H 0.7351 0.4016 0.57039 0.0
H805 H 0.78316 0.41558 0.53768 0.0
H806 H 0.73255 0.39813 0.5417 0.0
H807 H 0.78483 0.41887 0.56642 0.0
H808 H 0.82574 0.42376 0.51597 0.0
H809 H 0.80231 0.45148 0.47862 0.0
H810 H 0.7407 0.33378 0.55898 0.0
H811 H 0.78523 0.36412 0.56926 0.0
H812 H 0.72217 0.41123 0.47414 0.0
H813 H 0.77183 0.40816 0.4638 0.0
H814 H 0.71644 0.41748 0.44564 0.0
H815 H 0.76521 0.41426 0.43545 0.0
H816 H 0.71419 0.36494 0.48497 0.0
H817 H 0.71922 0.37422 0.53403 0.0
H818 H 0.68493 0.35615 0.48861 0.0
H819 H 0.68985 0.36544 0.5368 0.0
H820 H 0.76513 0.3375 0.45968 0.0
H821 H 0.7257 0.36219 0.4391 0.0
H822 H 0.71333 0.44401 0.52749 0.0
H823 H 0.68063 0.41215 0.49994 0.0
Li824 Li 0.64835 0.97773 0.78692 0.0
Li825 Li 0.63014 0.99439 0.79698 0.0
Li826 Li 0.62837 0.98805 0.76798 0.0
Li827 Li 0.65131 0.0066 0.77961 0.0
C828 C 0.62041 0.95732 0.79112 0.0
N829 N 0.61279 0.92461 0.79866 0.0
C830 C 0.62426 0.95059 0.80616 0.0
C831 C 0.61259 0.94746 0.77994 0.0
C832 C 0.62035 0.93401 0.80973 0.0
C833 C 0.60886 0.93094 0.78398 0.0
C834 C 0.6551 0.99776 0.81653 0.0
C835 C 0.65441 0.01484 0.83796 0.0
N836 N 0.65656 0.00206 0.84844 0.0
C837 C 0.65731 0.9848 0.82752 0.0
C838 C 0.65368 0.01291 0.82179 0.0
C839 C 0.65803 0.98723 0.84359 0.0
C840 C 0.67578 0.96346 0.79887 0.0
N841 N 0.66118 0.95996 0.79135 0.0
C842 C 0.6669 0.93296 0.78858 0.0
C843 C 0.6567 0.94508 0.78605 0.0
C844 C 0.68203 0.93624 0.79637 0.0
C845 C 0.6864 0.95175 0.80155 0.0
H846 H 0.67933 0.9755 0.80255 0.0
H847 H 0.64545 0.94271 0.77941 0.0
C848 C 0.60778 0.01078 0.81162 0.0
N849 N 0.61683 0.99827 0.814 0.0
C850 C 0.59822 0.01461 0.82357 0.0
C851 C 0.6072 0.99249 0.84024 0.0
C852 C 0.61648 0.98898 0.82789 0.0
C853 C 0.59793 0.00549 0.83817 0.0
H854 H 0.60798 0.01784 0.80042 0.0
H855 H 0.62349 0.97892 0.82948 0.0
C856 C 0.66505 0.98218 0.76097 0.0
N857 N 0.69149 0.96757 0.75352 0.0
C858 C 0.68074 0.98906 0.76484 0.0
C859 C 0.66281 0.96788 0.75329 0.0
C860 C 0.69395 0.98149 0.76097 0.0
C861 C 0.67634 0.96068 0.74963 0.0
C862 C 0.62782 0.02471 0.77159 0.0
C863 C 0.62428 0.0281 0.75555 0.0
C864 C 0.63185 0.03741 0.78129 0.0
C865 C 0.62494 0.04418 0.74947 0.0
C866 C 0.63242 0.05332 0.77475 0.0
N867 N 0.62898 0.05635 0.75911 0.0
C868 C 0.59864 0.98858 0.751 0.0
C869 C 0.61906 0.97908 0.73692 0.0
C870 C 0.5878 0.98706 0.73806 0.0
N871 N 0.61395 0.98468 0.75017 0.0
C872 C 0.60856 0.97717 0.72376 0.0
C873 C 0.59268 0.9813 0.72413 0.0
H874 H 0.59496 0.99318 0.76164 0.0
H875 H 0.63133 0.97622 0.73648 0.0
C876 C 0.67647 0.03154 0.78624 0.0
N877 N 0.66613 0.02558 0.77475 0.0
C878 C 0.68705 0.04564 0.78307 0.0
C879 C 0.67635 0.04709 0.75623 0.0
C880 C 0.66612 0.03285 0.75987 0.0
C881 C 0.68695 0.0537 0.76794 0.0
H882 H 0.67652 0.02535 0.79787 0.0
H883 H 0.65807 0.02763 0.75084 0.0
O884 O 0.62411 0.9735 0.78736 0.0
O885 O 0.65422 0.99561 0.80073 0.0
O886 O 0.65196 0.98913 0.76515 0.0
O887 O 0.62752 0.00904 0.77771 0.0
H888 H 0.63044 0.95803 0.81488 0.0
H889 H 0.6095 0.95251 0.76825 0.0
H890 H 0.62336 0.92861 0.82128 0.0
H891 H 0.60285 0.92314 0.77543 0.0
H892 H 0.65324 0.02648 0.84219 0.0
H893 H 0.65823 0.97294 0.82371 0.0
H894 H 0.65187 0.02305 0.81348 0.0
H895 H 0.65966 0.97729 0.85222 0.0
H896 H 0.66319 0.9213 0.78406 0.0
H897 H 0.69793 0.95483 0.80762 0.0
H898 H 0.59134 0.0248 0.82148 0.0
H899 H 0.60716 0.98499 0.85123 0.0
H900 H 0.68271 1.0 0.77096 0.0
H901 H 0.65077 0.96217 0.75053 0.0
H902 H 0.70615 0.98664 0.76396 0.0
H903 H 0.67478 0.94954 0.74381 0.0
H904 H 0.62126 0.01845 0.74783 0.0
H905 H 0.63465 0.03501 0.79371 0.0
H906 H 0.6223 0.04698 0.73707 0.0
H907 H 0.63562 0.06326 0.78211 0.0
H908 H 0.57585 0.99072 0.73889 0.0
H909 H 0.61287 0.97245 0.71345 0.0
H910 H 0.69501 0.05035 0.79244 0.0
H911 H 0.67608 0.05279 0.74435 0.0
Li912 Li 0.02666 0.27256 0.88858 0.0
Li913 Li 0.01058 0.28346 0.90825 0.0
Li914 Li 0.01366 0.25357 0.90915 0.0
Li915 Li 0.9961 0.26617 0.88898 0.0
C916 C 0.04675 0.27648 0.91473 0.0
N917 N 0.07956 0.28483 0.92021 0.0
C918 C 0.05266 0.29219 0.91827 0.0
C919 C 0.0575 0.26496 0.91422 0.0
C920 C 0.0693 0.29619 0.92095 0.0
C921 C 0.07405 0.26943 0.91695 0.0
C922 C 0.00847 0.30342 0.88119 0.0
C923 C 0.99291 0.32603 0.87914 0.0
N924 N 0.00624 0.33592 0.87419 0.0
C925 C 0.02199 0.31378 0.87594 0.0
C926 C 0.99377 0.30956 0.88267 0.0
C927 C 0.02063 0.33018 0.8725 0.0
C928 C 0.04411 0.26651 0.86259 0.0
N929 N 0.04473 0.27619 0.87475 0.0
C930 C 0.07045 0.28965 0.86651 0.0
C931 C 0.05749 0.28775 0.87675 0.0
C932 C 0.07026 0.27959 0.85401 0.0
C933 C 0.0568 0.26792 0.85213 0.0
H934 H 0.03373 0.25761 0.86099 0.0
H935 H 0.05759 0.29564 0.88619 0.0
C936 C 0.99939 0.29719 0.93427 0.0
N937 N 0.00854 0.30089 0.92129 0.0
C938 C 0.99711 0.3091 0.9443 0.0
C939 C 0.01389 0.32848 0.92762 0.0
C940 C 0.01589 0.31617 0.91793 0.0
C941 C 0.00436 0.32503 0.94102 0.0
H942 H 0.99383 0.28494 0.93685 0.0
H943 H 0.02346 0.31883 0.90783 0.0
C944 C 0.01563 0.23636 0.8836 0.0
N945 N 0.02137 0.20523 0.87912 0.0
C946 C 0.00312 0.22523 0.87817 0.0
C947 C 0.03111 0.23172 0.88651 0.0
C948 C 0.00625 0.20954 0.87604 0.0
C949 C 0.03376 0.21591 0.88424 0.0
C950 C 0.97785 0.2615 0.91491 0.0
C951 C 0.97075 0.24605 0.92005 0.0
C952 C 0.96826 0.27412 0.91248 0.0
C953 C 0.95407 0.24342 0.92237 0.0
C954 C 0.95164 0.271 0.91493 0.0
N955 N 0.94494 0.25584 0.91977 0.0
C956 C 0.02733 0.2355 0.93472 0.0
C957 C 0.00686 0.22036 0.92006 0.0
C958 C 0.02977 0.22179 0.94462 0.0
N959 N 0.01613 0.23452 0.92264 0.0
C960 C 0.00896 0.20634 0.9296 0.0
C961 C 0.02057 0.20693 0.94207 0.0
H962 H 0.03441 0.24693 0.93666 0.0
H963 H 0.99778 0.21995 0.91061 0.0
C964 C 0.97441 0.27365 0.86376 0.0
N965 N 0.97687 0.26261 0.87596 0.0
C966 C 0.96083 0.27125 0.85362 0.0
C967 C 0.95255 0.2461 0.86872 0.0
C968 C 0.9663 0.24899 0.87856 0.0
C969 C 0.9497 0.25728 0.85598 0.0
H970 H 0.9831 0.28425 0.86175 0.0
H971 H 0.96869 0.2402 0.8881 0.0
O972 O 0.03049 0.27236 0.91205 0.0
O973 O 0.0096 0.28734 0.88466 0.0
O974 O 0.01275 0.25174 0.88594 0.0
O975 O 0.99412 0.26428 0.9124 0.0
H976 H 0.04453 0.30122 0.91884 0.0
H977 H 0.05312 0.25267 0.91183 0.0
H978 H 0.07405 0.30834 0.9236 0.0
H979 H 0.0825 0.26065 0.91652 0.0
H980 H 0.98162 0.33095 0.8803 0.0
H981 H 0.03341 0.30923 0.8746 0.0
H982 H 0.98313 0.30169 0.88645 0.0
H983 H 0.03101 0.33834 0.86851 0.0
H984 H 0.08038 0.29904 0.86826 0.0
H985 H 0.05612 0.25977 0.84281 0.0
H986 H 0.98958 0.30588 0.95442 0.0
H987 H 0.01996 0.34051 0.92478 0.0
H988 H 0.99111 0.22865 0.87569 0.0
H989 H 0.04097 0.24025 0.89042 0.0
H990 H 0.99666 0.20078 0.87195 0.0
H991 H 0.04567 0.21215 0.88653 0.0
H992 H 0.978 0.23618 0.92212 0.0
H993 H 0.97361 0.28619 0.90879 0.0
H994 H 0.9484 0.2315 0.92624 0.0
H995 H 0.94406 0.28065 0.91303 0.0
H996 H 0.03891 0.22279 0.95404 0.0
H997 H 1.00142 0.1952 0.92738 0.0
H998 H 0.95908 0.28026 0.84404 0.0
H999 H 0.94448 0.23502 0.87084 0.0
Li1000 Li 0.52856 0.77241 0.38856 0.0
Li1001 Li 0.51252 0.78371 0.40796 0.0
Li1002 Li 0.51531 0.75382 0.40896 0.0
Li1003 Li 0.49789 0.7663 0.38859 0.0
C1004 C 0.54861 0.77693 0.41393 0.0
N1005 N 0.58152 0.78611 0.41763 0.0
C1006 C 0.55436 0.7926 0.41772 0.0
C1007 C 0.55959 0.76586 0.41223 0.0
C1008 C 0.57105 0.79702 0.4195 0.0
C1009 C 0.57619 0.77075 0.41407 0.0
C1010 C 0.50963 0.80312 0.38011 0.0
C1011 C 0.49251 0.82446 0.37615 0.0
N1012 N 0.50554 0.83495 0.37145 0.0
C1013 C 0.5228 0.81407 0.37505 0.0
C1014 C 0.49432 0.8083 0.38049 0.0
C1015 C 0.5205 0.83013 0.3708 0.0
C1016 C 0.54746 0.76503 0.36408 0.0
N1017 N 0.54688 0.77589 0.37504 0.0
C1018 C 0.572 0.79036 0.36634 0.0
C1019 C 0.55875 0.78851 0.37623 0.0
C1020 C 0.57304 0.77911 0.35513 0.0
C1021 C 0.5605 0.76635 0.35405 0.0
H1022 H 0.53775 0.75531 0.36306 0.0
H1023 H 0.55799 0.79715 0.38485 0.0
C1024 C 0.50179 0.79793 0.43398 0.0
N1025 N 0.5106 0.80136 0.42076 0.0
C1026 C 0.49964 0.81009 0.44377 0.0
C1027 C 0.5161 0.82912 0.42647 0.0
C1028 C 0.51784 0.81659 0.41696 0.0
C1029 C 0.50682 0.82596 0.44006 0.0
H1030 H 0.49644 0.78568 0.43699 0.0
H1031 H 0.52512 0.81904 0.40665 0.0
C1032 C 0.51592 0.73572 0.38445 0.0
N1033 N 0.51864 0.7034 0.38221 0.0
C1034 C 0.50252 0.72525 0.3797 0.0
C1035 C 0.53077 0.72979 0.38781 0.0
C1036 C 0.50413 0.70894 0.37869 0.0
C1037 C 0.53188 0.71341 0.38669 0.0
C1038 C 0.47971 0.76326 0.41522 0.0
C1039 C 0.47178 0.7485 0.42129 0.0
C1040 C 0.47113 0.77664 0.4127 0.0
C1041 C 0.4553 0.74727 0.42441 0.0
C1042 C 0.45467 0.77494 0.41598 0.0
N1043 N 0.44715 0.7604 0.42169 0.0
C1044 C 0.52998 0.73477 0.43324 0.0
C1045 C 0.50659 0.72129 0.4211 0.0
C1046 C 0.53221 0.72086 0.4429 0.0
N1047 N 0.51741 0.73471 0.42251 0.0
C1048 C 0.50836 0.7071 0.43051 0.0
C1049 C 0.52136 0.70672 0.44156 0.0
H1050 H 0.53829 0.74565 0.43431 0.0
H1051 H 0.49665 0.72155 0.41254 0.0
C1052 C 0.47721 0.77276 0.36218 0.0
N1053 N 0.47869 0.76283 0.37548 0.0
C1054 C 0.46363 0.77032 0.35204 0.0
C1055 C 0.45344 0.7473 0.36932 0.0
C1056 C 0.46716 0.75024 0.37916 0.0
C1057 C 0.45155 0.75738 0.35551 0.0
H1058 H 0.4867 0.78246 0.3593 0.0
H1059 H 0.46877 0.74228 0.38958 0.0
O1060 O 0.5323 0.77242 0.41206 0.0
O1061 O 0.51169 0.78735 0.38437 0.0
O1062 O 0.51452 0.7517 0.38572 0.0
O1063 O 0.49581 0.76465 0.41195 0.0
H1064 H 0.54606 0.80127 0.41922 0.0
H1065 H 0.55537 0.75364 0.40951 0.0
H1066 H 0.57566 0.80913 0.42235 0.0
H1067 H 0.58482 0.76234 0.4127 0.0
H1068 H 0.48074 0.82864 0.37645 0.0
H1069 H 0.53469 0.81025 0.37452 0.0
H1070 H 0.48391 0.79993 0.38395 0.0
H1071 H 0.53062 0.83875 0.36697 0.0
H1072 H 0.58142 0.80036 0.36761 0.0
H1073 H 0.56063 0.75758 0.34537 0.0
H1074 H 0.49263 0.80703 0.45426 0.0
H1075 H 0.52182 0.84118 0.42313 0.0
H1076 H 0.49099 0.72964 0.37688 0.0
H1077 H 0.5413 0.73775 0.39129 0.0
H1078 H 0.49382 0.70069 0.37513 0.0
H1079 H 0.54328 0.70865 0.38936 0.0
H1080 H 0.47825 0.73807 0.4235 0.0
H1081 H 0.47715 0.78824 0.40839 0.0
H1082 H 0.44899 0.73588 0.42901 0.0
H1083 H 0.44789 0.78519 0.41403 0.0
H1084 H 0.54223 0.72123 0.45145 0.0
H1085 H 0.49978 0.69648 0.42894 0.0
H1086 H 0.46281 0.77823 0.3414 0.0
H1087 H 0.44439 0.73723 0.3725 0.0
Li1088 Li 0.01493 0.77231 0.63829 0.0
Li1089 Li 0.99663 0.75867 0.65859 0.0
Li1090 Li 0.02651 0.75518 0.65917 0.0
Li1091 Li 0.00771 0.74195 0.6397 0.0
C1092 C 0.01937 0.79124 0.66253 0.0
N1093 N 0.02618 0.82424 0.66428 0.0
C1094 C 0.00729 0.8003 0.66646 0.0
C1095 C 0.03498 0.79894 0.65973 0.0
C1096 C 0.01095 0.81697 0.66723 0.0
C1097 C 0.03817 0.81564 0.6606 0.0
C1098 C 0.97752 0.75856 0.63043 0.0
C1099 C 0.95126 0.74325 0.62708 0.0
N1100 N 0.94529 0.75684 0.62072 0.0
C1101 C 0.97119 0.77233 0.62366 0.0
C1102 C 0.96753 0.74387 0.632 0.0
C1103 C 0.95484 0.77123 0.61891 0.0
C1104 C 0.03028 0.79166 0.6131 0.0
N1105 N 0.01885 0.79123 0.62414 0.0
C1106 C 0.01284 0.81761 0.61468 0.0
C1107 C 0.01007 0.80378 0.62501 0.0
C1108 C 0.02465 0.81847 0.60318 0.0
C1109 C 0.0334 0.80521 0.60248 0.0
H1110 H 0.03688 0.78141 0.61243 0.0
H1111 H 1.00085 0.80305 0.63371 0.0
C1112 C 0.97745 0.75292 0.68577 0.0
N1113 N 0.97867 0.76108 0.6713 0.0
C1114 C 0.96501 0.75507 0.69568 0.0
C1115 C 0.95537 0.77409 0.67571 0.0
C1116 C 0.96796 0.77154 0.66619 0.0
C1117 C 0.95379 0.76586 0.69074 0.0
H1118 H 0.98631 0.74493 0.68973 0.0
H1119 H 0.96942 0.77827 0.65487 0.0
C1120 C 0.04481 0.75276 0.63428 0.0
N1121 N 0.07676 0.74782 0.63137 0.0
C1122 C 0.04863 0.7377 0.63065 0.0
C1123 C 0.05723 0.76538 0.63619 0.0
C1124 C 0.06486 0.73543 0.62929 0.0
C1125 C 0.07331 0.76262 0.63475 0.0
C1126 C 1.00136 0.72326 0.66825 0.0
C1127 C 0.01181 0.71227 0.67436 0.0
C1128 C 0.98466 0.71851 0.66766 0.0
C1129 C 0.00539 0.69657 0.67942 0.0
C1130 C 0.97871 0.70271 0.67285 0.0
N1131 N 0.98911 0.69215 0.67855 0.0
C1132 C 0.04977 0.76392 0.6832 0.0
C1133 C 0.05351 0.73981 0.67176 0.0
C1134 C 0.0634 0.76258 0.69316 0.0
N1135 N 0.04517 0.75268 0.6727 0.0
C1136 C 0.06726 0.73804 0.68143 0.0
C1137 C 0.07241 0.74953 0.69233 0.0
H1138 H 0.04278 0.77388 0.68394 0.0
H1139 H 0.04951 0.73091 0.66348 0.0
C1140 C 0.99577 0.72601 0.61282 0.0
N1141 N 0.00341 0.72375 0.62711 0.0
C1142 C 0.99321 0.71351 0.60271 0.0
C1143 C 0.00661 0.69659 0.6221 0.0
C1144 C 0.00883 0.70939 0.63187 0.0
C1145 C 0.99877 0.69857 0.60724 0.0
H1146 H 0.99193 0.73765 0.60911 0.0
H1147 H 0.0153 0.70799 0.64304 0.0
O1148 O 0.01596 0.77492 0.66154 0.0
O1149 O 0.99351 0.75945 0.63517 0.0
O1150 O 0.02899 0.75516 0.63585 0.0
O1151 O 0.00746 0.73869 0.66325 0.0
H1152 H 0.99519 0.79455 0.66882 0.0
H1153 H 0.04454 0.7921 0.65693 0.0
H1154 H 1.00168 0.82414 0.67016 0.0
H1155 H 0.05017 0.82175 0.65836 0.0
H1156 H 0.94339 0.73195 0.62827 0.0
H1157 H 0.97878 0.78377 0.62219 0.0
H1158 H 0.97233 0.733 0.63677 0.0
H1159 H 0.94975 0.78182 0.61377 0.0
H1160 H 0.00588 0.82756 0.61579 0.0
H1161 H 0.04239 0.80516 0.59364 0.0
H1162 H 0.96444 0.74866 0.70726 0.0
H1163 H 0.94697 0.78245 0.67135 0.0
H1164 H 0.0392 0.72785 0.629 0.0
H1165 H 0.05449 0.77716 0.63875 0.0
H1166 H 0.06799 0.7238 0.62658 0.0
H1167 H 0.08304 0.77225 0.63629 0.0
H1168 H 0.02475 0.71579 0.67508 0.0
H1169 H 0.97636 0.72697 0.66342 0.0
H1170 H 0.01335 0.6879 0.68405 0.0
H1171 H 0.96581 0.69887 0.67241 0.0
H1172 H 0.06668 0.77157 0.70157 0.0
H1173 H 0.07387 0.72786 0.68024 0.0
H1174 H 0.98736 0.71569 0.59126 0.0
H1175 H 0.01105 0.68528 0.62611 0.0
Li1176 Li 0.51381 0.27223 0.13912 0.0
Li1177 Li 0.49559 0.25826 0.15933 0.0
Li1178 Li 0.52553 0.25484 0.16005 0.0
Li1179 Li 0.5067 0.24177 0.14044 0.0
C1180 C 0.51951 0.29054 0.16436 0.0
N1181 N 0.52886 0.32291 0.16811 0.0
C1182 C 0.5084 0.3002 0.16929 0.0
C1183 C 0.53545 0.29729 0.1616 0.0
C1184 C 0.51334 0.31655 0.17105 0.0
C1185 C 0.53993 0.31369 0.16348 0.0
C1186 C 0.47644 0.25974 0.13189 0.0
C1187 C 0.44924 0.24643 0.12864 0.0
N1188 N 0.44408 0.26089 0.12378 0.0
C1189 C 0.47092 0.27442 0.12665 0.0
C1190 C 0.46557 0.2456 0.13272 0.0
C1191 C 0.45449 0.27477 0.12269 0.0
C1192 C 0.52756 0.29076 0.1127 0.0
N1193 N 0.51778 0.2912 0.12504 0.0
C1194 C 0.51358 0.31845 0.11687 0.0
C1195 C 0.51066 0.30462 0.12717 0.0
C1196 C 0.52373 0.31839 0.10408 0.0
C1197 C 0.53071 0.30427 0.10204 0.0
H1198 H 0.53285 0.27986 0.11108 0.0
H1199 H 0.50257 0.30455 0.13678 0.0
C1200 C 0.47448 0.25042 0.18507 0.0
N1201 N 0.47749 0.26054 0.17193 0.0
C1202 C 0.46175 0.25229 0.19475 0.0
C1203 C 0.45555 0.2751 0.17732 0.0
C1204 C 0.46837 0.27276 0.16798 0.0
C1205 C 0.45208 0.2648 0.19096 0.0
H1206 H 0.48208 0.24099 0.18817 0.0
H1207 H 0.4713 0.28099 0.15779 0.0
C1208 C 0.54376 0.25337 0.13426 0.0
N1209 N 0.57573 0.24982 0.12938 0.0
C1210 C 0.54804 0.23837 0.131 0.0
C1211 C 0.55571 0.26663 0.13476 0.0
C1212 C 0.56427 0.2368 0.12864 0.0
C1213 C 0.57181 0.26457 0.13234 0.0
C1214 C 0.50113 0.22248 0.16822 0.0
C1215 C 0.51203 0.2121 0.17467 0.0
C1216 C 0.48475 0.21665 0.16632 0.0
C1217 C 0.50639 0.19595 0.17882 0.0
C1218 C 0.47959 0.20042 0.17062 0.0
N1219 N 0.49043 0.19048 0.1767 0.0
C1220 C 0.54827 0.2629 0.18476 0.0
C1221 C 0.55308 0.23995 0.17191 0.0
C1222 C 0.56187 0.26148 0.19473 0.0
N1223 N 0.54423 0.25231 0.17353 0.0
C1224 C 0.56682 0.2381 0.18158 0.0
C1225 C 0.5714 0.24897 0.19318 0.0
H1226 H 0.54089 0.27245 0.18604 0.0
H1227 H 0.54939 0.2314 0.16322 0.0
C1228 C 0.49424 0.22575 0.11377 0.0
N1229 N 0.50251 0.22365 0.12775 0.0
C1230 C 0.49174 0.21333 0.10356 0.0
C1231 C 0.50635 0.19678 0.12228 0.0
C1232 C 0.50854 0.20952 0.13213 0.0
C1233 C 0.49794 0.19862 0.1077 0.0
H1234 H 0.48987 0.23721 0.11037 0.0
H1235 H 0.51546 0.20824 0.14307 0.0
O1236 O 0.51484 0.27454 0.16239 0.0
O1237 O 0.49248 0.25919 0.13586 0.0
O1238 O 0.52793 0.2551 0.13672 0.0
O1239 O 0.50646 0.23831 0.16401 0.0
H1240 H 0.49608 0.29516 0.17167 0.0
H1241 H 0.54428 0.28994 0.15812 0.0
H1242 H 0.50483 0.32418 0.17475 0.0
H1243 H 0.55221 0.31908 0.16131 0.0
H1244 H 0.44068 0.23559 0.12928 0.0
H1245 H 0.47919 0.28545 0.12578 0.0
H1246 H 0.4697 0.23407 0.13632 0.0
H1247 H 0.45003 0.28607 0.11875 0.0
H1248 H 0.5077 0.32897 0.11872 0.0
H1249 H 0.53867 0.30373 0.09239 0.0
H1250 H 0.45949 0.24397 0.20506 0.0
H1251 H 0.4487 0.28512 0.17409 0.0
H1252 H 0.53896 0.22801 0.13043 0.0
H1253 H 0.55258 0.2784 0.13687 0.0
H1254 H 0.56777 0.22522 0.12624 0.0
H1255 H 0.58118 0.27472 0.13276 0.0
H1256 H 0.52471 0.21645 0.17639 0.0
H1257 H 0.4761 0.22459 0.16172 0.0
H1258 H 0.51471 0.18776 0.18373 0.0
H1259 H 0.46695 0.19574 0.16916 0.0
H1260 H 0.56498 0.27018 0.20344 0.0
H1261 H 0.57361 0.22809 0.18017 0.0
H1262 H 0.48544 0.21541 0.09234 0.0
H1263 H 0.51127 0.18565 0.12603 0.0
H1264 H 0.20451 0.74966 0.83915 0.0
H1265 H 0.20798 0.76786 0.8604 0.0
H1266 H 0.25921 0.77703 0.85216 0.0
H1267 H 0.25582 0.75874 0.83085 0.0
H1268 H 0.25374 0.77306 0.8832 0.0
H1269 H 0.23349 0.8045 0.83882 0.0
H1270 H 0.21461 0.81018 0.81654 0.0
H1271 H 0.17557 0.80761 0.84846 0.0
H1272 H 0.19417 0.80168 0.87093 0.0
H1273 H 0.26882 0.84226 0.92732 0.0
H1274 H 0.2662 0.82422 0.90592 0.0
H1275 H 0.21488 0.81383 0.91329 0.0
H1276 H 0.21741 0.83179 0.93479 0.0
H1277 H 0.22089 0.81879 0.88235 0.0
H1278 H 0.24097 0.78691 0.92662 0.0
H1279 H 0.2597 0.78083 0.9489 0.0
H1280 H 0.29898 0.78409 0.91717 0.0
H1281 H 0.28052 0.79042 0.89471 0.0
C1282 C 0.21651 0.75562 0.84179 0.0
C1283 C 0.22987 0.75287 0.83319 0.0
C1284 C 0.21848 0.76602 0.85396 0.0
C1285 C 0.23381 0.77405 0.85772 0.0
C1286 C 0.24726 0.77101 0.84945 0.0
C1287 C 0.24531 0.76053 0.83729 0.0
C1288 C 0.23576 0.78567 0.87021 0.0
C1289 C 0.24673 0.7832 0.88289 0.0
C1290 C 0.22637 0.79871 0.87 0.0
C1291 C 0.2152 0.80251 0.85654 0.0
C1292 C 0.22085 0.80505 0.84108 0.0
C1293 C 0.21021 0.80832 0.82842 0.0
C1294 C 0.19389 0.80921 0.83108 0.0
C1295 C 0.1882 0.80689 0.84642 0.0
C1296 C 0.1988 0.8036 0.85912 0.0
C1297 C 0.25699 0.83605 0.92448 0.0
C1298 C 0.24334 0.83843 0.93286 0.0
C1299 C 0.25551 0.82575 0.91221 0.0
C1300 C 0.24038 0.8175 0.9081 0.0
C1301 C 0.22668 0.82007 0.91623 0.0
C1302 C 0.22814 0.83039 0.9285 0.0
C1303 C 0.23883 0.80615 0.89537 0.0
C1304 C 0.22793 0.80868 0.88264 0.0
C1305 C 0.24829 0.79317 0.89553 0.0
C1306 C 0.2594 0.78931 0.90901 0.0
C1307 C 0.25363 0.78646 0.92441 0.0
C1308 C 0.26419 0.78295 0.93707 0.0
C1309 C 0.28053 0.78212 0.93446 0.0
C1310 C 0.28633 0.78476 0.91918 0.0
C1311 C 0.27582 0.7883 0.90647 0.0
H1312 H 0.28869 0.77939 0.94428 0.0
H1313 H 0.18566 0.81173 0.82126 0.0
H1314 H 0.99345 0.54473 0.42969 0.0
H1315 H 0.01053 0.53319 0.4119 0.0
H1316 H 0.05329 0.55404 0.43678 0.0
H1317 H 0.03612 0.56591 0.45438 0.0
H1318 H 0.05671 0.5597 0.40611 0.0
H1319 H 0.04048 0.51291 0.44027 0.0
H1320 H 0.02142 0.49262 0.45476 0.0
H1321 H 0.99861 0.47842 0.41104 0.0
H1322 H 0.0174 0.49879 0.39629 0.0
H1323 H 0.11104 0.51869 0.36649 0.0
H1324 H 0.09523 0.52708 0.38732 0.0
H1325 H 0.05097 0.51066 0.36221 0.0
H1326 H 0.0667 0.50193 0.34147 0.0
H1327 H 0.04931 0.50218 0.39403 0.0
H1328 H 0.06492 0.55007 0.36019 0.0
H1329 H 0.08421 0.5703 0.34589 0.0
H1330 H 0.10855 0.58222 0.38964 0.0
H1331 H 0.08953 0.56188 0.40419 0.0
C1332 C 0.00649 0.54676 0.43138 0.0
C1333 C 0.01352 0.55634 0.44327 0.0
C1334 C 0.01625 0.54009 0.42128 0.0
C1335 C 0.03323 0.54263 0.42304 0.0
C1336 C 0.04024 0.55193 0.43516 0.0
C1337 C 0.03046 0.55866 0.44522 0.0
C1338 C 0.04365 0.53621 0.4118 0.0
C1339 C 0.05527 0.54706 0.4037 0.0
C1340 C 0.04157 0.51978 0.40835 0.0
C1341 C 0.03027 0.50749 0.41718 0.0
C1342 C 0.03132 0.50555 0.43375 0.0
C1343 C 0.02058 0.49402 0.44201 0.0
C1344 C 0.00879 0.48426 0.43383 0.0
C1345 C 0.00774 0.48599 0.41736 0.0
C1346 C 0.01845 0.49752 0.40904 0.0
C1347 C 0.09794 0.51667 0.36549 0.0
C1348 C 0.09014 0.5097 0.35227 0.0
C1349 C 0.08892 0.52159 0.37736 0.0
C1350 C 0.07191 0.51966 0.37625 0.0
C1351 C 0.06408 0.51231 0.36329 0.0
C1352 C 0.07309 0.50745 0.35139 0.0
C1353 C 0.06228 0.52569 0.38837 0.0
C1354 C 0.0508 0.51479 0.39658 0.0
C1355 C 0.06452 0.54205 0.39197 0.0
C1356 C 0.07591 0.55433 0.38326 0.0
C1357 C 0.07447 0.55691 0.36675 0.0
C1358 C 0.08534 0.56842 0.3586 0.0
C1359 C 0.09762 0.57751 0.36685 0.0
C1360 C 0.09904 0.57515 0.38327 0.0
C1361 C 0.08822 0.56364 0.39147 0.0
H1362 H 0.10602 0.58641 0.36052 0.0
H1363 H 1.00048 0.47534 0.44024 0.0
H1364 H 0.82775 0.78429 0.85493 0.0
H1365 H 0.82665 0.76574 0.87869 0.0
H1366 H 0.77458 0.75732 0.87319 0.0
H1367 H 0.77562 0.7761 0.84957 0.0
H1368 H 0.78255 0.76061 0.90288 0.0
H1369 H 0.79988 0.7295 0.8633 0.0
H1370 H 0.81701 0.72356 0.84204 0.0
H1371 H 0.85852 0.72611 0.87383 0.0
H1372 H 0.84168 0.73229 0.89523 0.0
H1373 H 0.77007 0.68887 0.95378 0.0
H1374 H 0.77195 0.70793 0.93047 0.0
H1375 H 0.82293 0.72037 0.94064 0.0
H1376 H 0.82112 0.70166 0.9643 0.0
H1377 H 0.81588 0.71509 0.90893 0.0
H1378 H 0.79761 0.74575 0.94867 0.0
H1379 H 0.77976 0.75093 0.96965 0.0
H1380 H 0.739 0.7482 0.93694 0.0
H1381 H 0.75657 0.74276 0.91581 0.0
C1382 C 0.81608 0.77841 0.85875 0.0
C1383 C 0.80177 0.7816 0.85033 0.0
C1384 C 0.81546 0.76779 0.87232 0.0
C1385 C 0.80055 0.7599 0.87764 0.0
C1386 C 0.78623 0.76323 0.86935 0.0
C1387 C 0.78683 0.77398 0.85586 0.0
C1388 C 0.79985 0.74828 0.89187 0.0
C1389 C 0.78968 0.75054 0.90408 0.0
C1390 C 0.80939 0.73529 0.89365 0.0
C1391 C 0.81954 0.73152 0.88082 0.0
C1392 C 0.81269 0.72892 0.86572 0.0
C1393 C 0.82234 0.72549 0.85365 0.0
C1394 C 0.83885 0.72451 0.85657 0.0
C1395 C 0.84573 0.7269 0.87158 0.0
C1396 C 0.83614 0.73036 0.88369 0.0
C1397 C 0.78167 0.69579 0.95123 0.0
C1398 C 0.79542 0.69377 0.96106 0.0
C1399 C 0.78272 0.70663 0.93782 0.0
C1400 C 0.79754 0.71567 0.93389 0.0
C1401 C 0.81137 0.71349 0.94345 0.0
C1402 C 0.81031 0.70273 0.95695 0.0
C1403 C 0.79856 0.72743 0.91983 0.0
C1404 C 0.80877 0.72519 0.90768 0.0
C1405 C 0.78895 0.74033 0.91803 0.0
C1406 C 0.77838 0.74369 0.9307 0.0
C1407 C 0.78482 0.74612 0.94598 0.0
C1408 C 0.77475 0.74913 0.9579 0.0
C1409 C 0.75825 0.74985 0.95464 0.0
C1410 C 0.75178 0.74761 0.93945 0.0
C1411 C 0.76179 0.74458 0.9275 0.0
H1412 H 0.75048 0.75218 0.96388 0.0
H1413 H 0.8463 0.72185 0.84721 0.0
H1414 H 0.03859 0.99306 0.4295 0.0
H1415 H 0.02207 0.9956 0.40511 0.0
H1416 H 0.97902 0.99204 0.43241 0.0
H1417 H 0.99547 0.989 0.45675 0.0
H1418 H 0.9731 0.97479 0.40786 0.0
H1419 H 0.99751 0.0287 0.41587 0.0
H1420 H 0.01999 0.05015 0.42022 0.0
H1421 H 0.04039 0.04203 0.37643 0.0
H1422 H 0.01813 0.02036 0.37192 0.0
H1423 H 0.92002 0.00811 0.35002 0.0
H1424 H 0.93755 0.00375 0.3734 0.0
H1425 H 0.978 0.00227 0.34366 0.0
H1426 H 0.96056 0.0068 0.32021 0.0
H1427 H 0.98576 0.02141 0.3687 0.0
H1428 H 0.96018 0.96803 0.36048 0.0
H1429 H 0.9371 0.94716 0.3563 0.0
H1430 H 0.91823 0.95505 0.40087 0.0
H1431 H 0.94108 0.97615 0.40522 0.0
C1432 C 0.02558 0.99259 0.43024 0.0
C1433 C 0.01826 0.9905 0.44497 0.0
C1434 C 0.01616 0.9942 0.41632 0.0
C1435 C 0.99929 0.99416 0.4169 0.0
C1436 C 0.99198 0.99204 0.43164 0.0
C1437 C 1.00138 0.99031 0.44553 0.0
C1438 C 0.98923 0.9965 0.40222 0.0
C1439 C 0.97578 0.98509 0.3994 0.0
C1440 C 0.99288 0.00975 0.39097 0.0
C1441 C 0.00625 0.0228 0.39364 0.0
C1442 C 0.00686 0.0314 0.40723 0.0
C1443 C 0.01955 0.04361 0.40971 0.0
C1444 C 0.03163 0.04742 0.39863 0.0
C1445 C 0.03103 0.03905 0.38502 0.0
C1446 C 0.01838 0.02681 0.38248 0.0
C1447 C 0.93267 0.00694 0.34847 0.0
C1448 C 0.93891 0.00777 0.33327 0.0
C1449 C 0.94264 0.00434 0.36182 0.0
C1450 C 0.95905 0.00256 0.36026 0.0
C1451 C 0.96536 0.00357 0.34512 0.0
C1452 C 0.95537 0.00604 0.33175 0.0
C1453 C 0.96962 0.99977 0.37445 0.0
C1454 C 0.98315 0.01109 0.37715 0.0
C1455 C 0.96598 0.98651 0.38565 0.0
C1456 C 0.95226 0.97378 0.3831 0.0
C1457 C 0.95104 0.96541 0.36933 0.0
C1458 C 0.93801 0.95352 0.36695 0.0
C1459 C 0.92619 0.94981 0.3783 0.0
C1460 C 0.92739 0.95795 0.39208 0.0
C1461 C 0.94038 0.96987 0.39452 0.0
H1462 H 0.91611 0.9406 0.37643 0.0
H1463 H 0.04145 0.05688 0.40058 0.0
H1464 H 0.24444 0.26321 0.70495 0.0
H1465 H 0.25398 0.24465 0.68758 0.0
H1466 H 0.2104 0.24637 0.65852 0.0
H1467 H 0.20058 0.26442 0.67621 0.0
H1468 H 0.21737 0.21665 0.66192 0.0
H1469 H 0.24782 0.2685 0.64851 0.0
H1470 H 0.26599 0.29318 0.65387 0.0
H1471 H 0.3036 0.26448 0.67016 0.0
H1472 H 0.28557 0.23961 0.66508 0.0
H1473 H 0.24139 0.18937 0.59117 0.0
H1474 H 0.23325 0.20572 0.61125 0.0
H1475 H 0.27713 0.19899 0.63842 0.0
H1476 H 0.28567 0.18305 0.61804 0.0
H1477 H 0.27099 0.22989 0.63753 0.0
H1478 H 0.24079 0.17804 0.64916 0.0
H1479 H 0.22255 0.15359 0.64325 0.0
H1480 H 0.1843 0.18251 0.62983 0.0
H1481 H 0.20239 0.20717 0.63545 0.0
C1482 C 0.23677 0.25939 0.69502 0.0
C1483 C 0.22155 0.26493 0.69216 0.0
C1484 C 0.24232 0.24891 0.68499 0.0
C1485 C 0.23299 0.24418 0.67162 0.0
C1486 C 0.21779 0.24973 0.66878 0.0
C1487 C 0.21218 0.26005 0.67889 0.0
C1488 C 0.23902 0.23363 0.66043 0.0
C1489 C 0.22903 0.21966 0.65647 0.0
C1490 C 0.25443 0.23726 0.65359 0.0
C1491 C 0.26529 0.2522 0.65657 0.0
C1492 C 0.25993 0.26745 0.65334 0.0
C1493 C 0.27021 0.28147 0.65631 0.0
C1494 C 0.28593 0.2804 0.66239 0.0
C1495 C 0.29142 0.2653 0.66547 0.0
C1496 C 0.28118 0.25124 0.66254 0.0
C1497 C 0.24942 0.19149 0.60132 0.0
C1498 C 0.26421 0.18487 0.60296 0.0
C1499 C 0.24465 0.20071 0.6129 0.0
C1500 C 0.25446 0.20341 0.62648 0.0
C1501 C 0.26931 0.19699 0.62809 0.0
C1502 C 0.27412 0.18777 0.61649 0.0
C1503 C 0.24923 0.21307 0.63887 0.0
C1504 C 0.25938 0.22684 0.64306 0.0
C1505 C 0.23394 0.2093 0.64588 0.0
C1506 C 0.22299 0.19447 0.64261 0.0
C1507 C 0.22852 0.1792 0.64484 0.0
C1508 C 0.21821 0.1653 0.64156 0.0
C1509 C 0.20229 0.1665 0.63614 0.0
C1510 C 0.19664 0.1816 0.63402 0.0
C1511 C 0.20691 0.19554 0.63727 0.0
H1512 H 0.19432 0.15572 0.6336 0.0
H1513 H 0.29386 0.29127 0.66469 0.0
H1514 H 0.52603 0.57242 0.58781 0.0
H1515 H 0.50857 0.56888 0.61049 0.0
H1516 H 0.50176 0.51739 0.60657 0.0
H1517 H 0.51875 0.52091 0.58343 0.0
H1518 H 0.47359 0.5281 0.61125 0.0
H1519 H 0.52663 0.53442 0.63562 0.0
H1520 H 0.55444 0.54752 0.64024 0.0
H1521 H 0.53569 0.58993 0.65346 0.0
H1522 H 0.50776 0.57716 0.64871 0.0
H1523 H 0.43807 0.50747 0.68583 0.0
H1524 H 0.45614 0.5102 0.6636 0.0
H1525 H 0.46281 0.56192 0.66584 0.0
H1526 H 0.44513 0.55925 0.68843 0.0
H1527 H 0.49125 0.55056 0.66222 0.0
H1528 H 0.43817 0.54422 0.63744 0.0
H1529 H 0.41041 0.53095 0.63288 0.0
H1530 H 0.42937 0.48832 0.62054 0.0
H1531 H 0.45725 0.50126 0.62524 0.0
C1532 C 0.52075 0.56034 0.59169 0.0
C1533 C 0.52378 0.54694 0.58375 0.0
C1534 C 0.51089 0.55832 0.60478 0.0
C1535 C 0.50398 0.54285 0.61037 0.0
C1536 C 0.507 0.52944 0.60251 0.0
C1537 C 0.51684 0.53146 0.58937 0.0
C1538 C 0.49332 0.54074 0.6242 0.0
C1539 C 0.47754 0.5328 0.62247 0.0
C1540 C 0.49833 0.54718 0.63874 0.0
C1541 C 0.51511 0.55488 0.64167 0.0
C1542 C 0.52844 0.54658 0.6394 0.0
C1543 C 0.54422 0.55395 0.64206 0.0
C1544 C 0.54683 0.56957 0.64711 0.0
C1545 C 0.53365 0.57784 0.64954 0.0
C1546 C 0.51784 0.57054 0.64688 0.0
C1547 C 0.44348 0.51943 0.68169 0.0
C1548 C 0.44013 0.53315 0.68893 0.0
C1549 C 0.45369 0.52098 0.66887 0.0
C1550 C 0.4607 0.53629 0.66293 0.0
C1551 C 0.45749 0.55 0.67019 0.0
C1552 C 0.44726 0.54846 0.68301 0.0
C1553 C 0.47152 0.53798 0.64925 0.0
C1554 C 0.48732 0.54584 0.651 0.0
C1555 C 0.46655 0.53143 0.63474 0.0
C1556 C 0.44979 0.52365 0.63185 0.0
C1557 C 0.43642 0.53197 0.63388 0.0
C1558 C 0.42066 0.52452 0.63125 0.0
C1559 C 0.41813 0.50879 0.62647 0.0
C1560 C 0.43135 0.5005 0.62427 0.0
C1561 C 0.44713 0.50789 0.6269 0.0
H1562 H 0.40592 0.50304 0.62443 0.0
H1563 H 0.55906 0.57525 0.64916 0.0
H1564 H 0.77467 0.24025 0.68353 0.0
H1565 H 0.77166 0.25629 0.65835 0.0
H1566 H 0.78963 0.29967 0.68083 0.0
H1567 H 0.79256 0.28367 0.70597 0.0
H1568 H 0.76241 0.30343 0.66309 0.0
H1569 H 0.81321 0.28348 0.65634 0.0
H1570 H 0.83171 0.26269 0.65572 0.0
H1571 H 0.80205 0.24049 0.61908 0.0
H1572 H 0.78323 0.26103 0.61964 0.0
H1573 H 0.77426 0.35738 0.59513 0.0
H1574 H 0.77848 0.34059 0.61941 0.0
H1575 H 0.76164 0.29783 0.59551 0.0
H1576 H 0.75792 0.31453 0.57099 0.0
H1577 H 0.78802 0.29333 0.61377 0.0
H1578 H 0.73725 0.31299 0.62037 0.0
H1579 H 0.71848 0.33355 0.62089 0.0
H1580 H 0.74761 0.35589 0.65779 0.0
H1581 H 0.7667 0.33559 0.65733 0.0
C1582 C 0.7781 0.25319 0.68299 0.0
C1583 C 0.78391 0.26073 0.69662 0.0
C1584 C 0.77642 0.26234 0.66864 0.0
C1585 C 0.78053 0.27918 0.66768 0.0
C1586 C 0.78639 0.2867 0.6813 0.0
C1587 C 0.78812 0.27756 0.69562 0.0
C1588 C 0.77825 0.28904 0.65262 0.0
C1589 C 0.76819 0.30137 0.65236 0.0
C1590 C 0.78542 0.28605 0.63851 0.0
C1591 C 0.79672 0.2737 0.63815 0.0
C1592 C 0.81055 0.27409 0.64825 0.0
C1593 C 0.82112 0.26236 0.64789 0.0
C1594 C 0.81804 0.25025 0.6374 0.0
C1595 C 0.80441 0.24986 0.62722 0.0
C1596 C 0.7938 0.26155 0.62754 0.0
C1597 C 0.7716 0.3444 0.59497 0.0
C1598 C 0.76571 0.33732 0.58109 0.0
C1599 C 0.77387 0.33481 0.60892 0.0
C1600 C 0.77018 0.31795 0.60935 0.0
C1601 C 0.7645 0.31082 0.59548 0.0
C1602 C 0.76224 0.3204 0.58151 0.0
C1603 C 0.77226 0.30778 0.62427 0.0
C1604 C 0.78224 0.29539 0.62451 0.0
C1605 C 0.76497 0.31066 0.63836 0.0
C1606 C 0.75349 0.32286 0.63871 0.0
C1607 C 0.73973 0.32236 0.62851 0.0
C1608 C 0.72902 0.33395 0.62881 0.0
C1609 C 0.73187 0.34604 0.63934 0.0
C1610 C 0.74543 0.34653 0.64962 0.0
C1611 C 0.75619 0.33498 0.64936 0.0
H1612 H 0.72357 0.35501 0.63955 0.0
H1613 H 0.82623 0.24119 0.63714 0.0
H1614 H 0.51773 0.9747 0.58824 0.0
H1615 H 0.53577 0.97585 0.61164 0.0
H1616 H 0.49439 0.97264 0.64119 0.0
H1617 H 0.47633 0.97196 0.61772 0.0
H1618 H 0.51663 0.99384 0.65155 0.0
H1619 H 0.51644 0.93978 0.63725 0.0
H1620 H 0.51915 0.91826 0.61972 0.0
H1621 H 0.56899 0.93684 0.61271 0.0
H1622 H 0.56652 0.95863 0.63004 0.0
H1623 H 0.55961 0.97283 0.72335 0.0
H1624 H 0.54121 0.97136 0.70025 0.0
H1625 H 0.5816 0.9844 0.66977 0.0
H1626 H 0.60007 0.98659 0.69275 0.0
H1627 H 0.55968 0.9577 0.66045 0.0
H1628 H 0.55887 0.01203 0.67526 0.0
H1629 H 0.55547 0.03259 0.69366 0.0
H1630 H 0.50627 0.01178 0.70082 0.0
H1631 H 0.50946 0.99094 0.68263 0.0
C1632 C 0.51249 0.97415 0.59974 0.0
C1633 C 0.49562 0.97316 0.60115 0.0
C1634 C 0.52281 0.97476 0.61313 0.0
C1635 C 0.51647 0.97405 0.62827 0.0
C1636 C 0.49961 0.9732 0.62968 0.0
C1637 C 0.48929 0.97281 0.61626 0.0
C1638 C 0.52743 0.9744 0.64259 0.0
C1639 C 0.52587 0.98575 0.65358 0.0
C1640 C 0.5397 0.96405 0.64521 0.0
C1641 C 0.54125 0.95093 0.63483 0.0
C1642 C 0.52795 0.93935 0.63188 0.0
C1643 C 0.52944 0.92709 0.62199 0.0
C1644 C 0.54422 0.92621 0.61508 0.0
C1645 C 0.55754 0.93756 0.61806 0.0
C1646 C 0.55611 0.94985 0.62793 0.0
C1647 C 0.56463 0.9756 0.71177 0.0
C1648 C 0.58141 0.97989 0.71002 0.0
C1649 C 0.55406 0.97465 0.69856 0.0
C1650 C 0.56004 0.97783 0.68331 0.0
C1651 C 0.57675 0.98182 0.68145 0.0
C1652 C 0.58731 0.98297 0.69465 0.0
C1653 C 0.54884 0.97711 0.66926 0.0
C1654 C 0.55038 0.96572 0.65837 0.0
C1655 C 0.53641 0.98726 0.66684 0.0
C1656 C 0.53446 0.99982 0.67772 0.0
C1657 C 0.54737 0.01175 0.68087 0.0
C1658 C 0.54547 0.02348 0.69124 0.0
C1659 C 0.53068 0.02347 0.69844 0.0
C1660 C 0.51773 0.01176 0.69525 0.0
C1661 C 0.51957 0.99999 0.6849 0.0
H1662 H 0.52924 0.03255 0.70646 0.0
H1663 H 0.54535 0.91671 0.60743 0.0
H1664 H 0.81451 0.21814 0.78004 0.0
H1665 H 0.83735 0.22437 0.79843 0.0
H1666 H 0.86758 0.24272 0.75944 0.0
H1667 H 0.84493 0.23603 0.74094 0.0
H1668 H 0.88318 0.2237 0.78001 0.0
H1669 H 0.85254 0.26825 0.78305 0.0
H1670 H 0.82816 0.28136 0.78682 0.0
H1671 H 0.82466 0.2591 0.83401 0.0
H1672 H 0.8489 0.24566 0.83044 0.0
H1673 H 0.94851 0.26287 0.8238 0.0
H1674 H 0.92527 0.25747 0.80573 0.0
H1675 H 0.89553 0.23877 0.84497 0.0
H1676 H 0.91863 0.24464 0.86321 0.0
H1677 H 0.8796 0.25795 0.82441 0.0
H1678 H 0.91022 0.21338 0.82132 0.0
H1679 H 0.93463 0.20031 0.81754 0.0
H1680 H 0.93814 0.22266 0.77039 0.0
H1681 H 0.91387 0.23606 0.77397 0.0
C1682 C 0.82604 0.22339 0.77536 0.0
C1683 C 0.82788 0.22658 0.759 0.0
C1684 C 0.83906 0.2271 0.78591 0.0
C1685 C 0.85415 0.23418 0.78034 0.0
C1686 C 0.85604 0.23732 0.76402 0.0
C1687 C 0.84303 0.23361 0.75347 0.0
C1688 C 0.86805 0.23804 0.79149 0.0
C1689 C 0.88247 0.23138 0.78959 0.0
C1690 C 0.86701 0.24773 0.80423 0.0
C1691 C 0.85245 0.25582 0.80642 0.0
C1692 C 0.8465 0.26604 0.79419 0.0
C1693 C 0.83272 0.27355 0.7963 0.0
C1694 C 0.82484 0.27103 0.81063 0.0
C1695 C 0.83076 0.26102 0.8229 0.0
C1696 C 0.84453 0.25347 0.82085 0.0
C1697 C 0.93699 0.25779 0.82863 0.0
C1698 C 0.93547 0.25417 0.84498 0.0
C1699 C 0.92374 0.25455 0.81826 0.0
C1700 C 0.9087 0.24752 0.82397 0.0
C1701 C 0.90704 0.24414 0.84029 0.0
C1702 C 0.9203 0.24737 0.85069 0.0
C1703 C 0.89473 0.24364 0.8129 0.0
C1704 C 0.8803 0.25028 0.81483 0.0
C1705 C 0.89576 0.23393 0.80018 0.0
C1706 C 0.91032 0.22584 0.79797 0.0
C1707 C 0.91627 0.21561 0.81019 0.0
C1708 C 0.93007 0.20812 0.80807 0.0
C1709 C 0.93795 0.21069 0.79375 0.0
C1710 C 0.93203 0.22071 0.78149 0.0
C1711 C 0.91825 0.22823 0.78355 0.0
H1712 H 0.94864 0.20488 0.79213 0.0
H1713 H 0.81417 0.27686 0.81224 0.0
H1714 H 0.4645 0.93225 0.52826 0.0
H1715 H 0.46748 0.90969 0.5123 0.0
H1716 H 0.5189 0.92471 0.51033 0.0
H1717 H 0.51594 0.94723 0.52626 0.0
H1718 H 0.5056 0.91846 0.48146 0.0
H1719 H 0.5045 0.89182 0.53369 0.0
H1720 H 0.49326 0.88368 0.5599 0.0
H1721 H 0.45032 0.85986 0.53823 0.0
H1722 H 0.46121 0.86805 0.51187 0.0
H1723 H 0.5298 0.84985 0.44964 0.0
H1724 H 0.52635 0.87136 0.46656 0.0
H1725 H 0.47572 0.85337 0.47073 0.0
H1726 H 0.47914 0.83171 0.45393 0.0
H1727 H 0.48812 0.86108 0.49852 0.0
H1728 H 0.48863 0.88749 0.44651 0.0
H1729 H 0.49923 0.89573 0.42007 0.0
H1730 H 0.5423 0.92024 0.44088 0.0
H1731 H 0.53205 0.91195 0.46747 0.0
C1732 C 0.47645 0.93056 0.5246 0.0
C1733 C 0.49004 0.94127 0.52877 0.0
C1734 C 0.47815 0.91769 0.51548 0.0
C1735 C 0.49345 0.91539 0.51025 0.0
C1736 C 0.507 0.92619 0.51428 0.0
C1737 C 0.50531 0.939 0.52345 0.0
C1738 C 0.49531 0.90202 0.50019 0.0
C1739 C 0.50198 0.9059 0.48528 0.0
C1740 C 0.49015 0.88566 0.50497 0.0
C1741 C 0.4836 0.8807 0.5208 0.0
C1742 C 0.4926 0.88496 0.53451 0.0
C1743 C 0.48631 0.88032 0.54939 0.0
C1744 C 0.47107 0.8713 0.55073 0.0
C1745 C 0.46211 0.86687 0.53718 0.0
C1746 C 0.46834 0.8715 0.52226 0.0
C1747 C 0.5179 0.85054 0.45405 0.0
C1748 C 0.50473 0.8391 0.45036 0.0
C1749 C 0.51593 0.86286 0.46374 0.0
C1750 C 0.50071 0.86416 0.46978 0.0
C1751 C 0.48758 0.85264 0.46625 0.0
C1752 C 0.48957 0.84025 0.45665 0.0
C1753 C 0.4985 0.8775 0.47979 0.0
C1754 C 0.49174 0.87364 0.49468 0.0
C1755 C 0.50346 0.89391 0.47495 0.0
C1756 C 0.50964 0.89897 0.45898 0.0
C1757 C 0.50041 0.89454 0.44545 0.0
C1758 C 0.50635 0.89923 0.43043 0.0
C1759 C 0.52145 0.90847 0.42879 0.0
C1760 C 0.53062 0.91307 0.44217 0.0
C1761 C 0.52474 0.90839 0.45721 0.0
H1762 H 0.52602 0.91209 0.41716 0.0
H1763 H 0.46622 0.86771 0.56226 0.0
H1764 H 0.17235 0.28433 0.74181 0.0
H1765 H 0.14943 0.28091 0.75947 0.0
H1766 H 0.18169 0.29542 0.79809 0.0
H1767 H 0.20466 0.2986 0.78059 0.0
H1768 H 0.15983 0.26935 0.80691 0.0
H1769 H 0.15891 0.32186 0.77933 0.0
H1770 H 0.15824 0.34102 0.7558 0.0
H1771 H 0.11291 0.31594 0.7404 0.0
H1772 H 0.11342 0.29648 0.76375 0.0
H1773 H 0.10284 0.28616 0.86094 0.0
H1774 H 0.12524 0.28831 0.84293 0.0
H1775 H 0.09134 0.27806 0.80428 0.0
H1776 H 0.06883 0.2767 0.82205 0.0
H1777 H 0.11377 0.30128 0.79502 0.0
H1778 H 0.11403 0.24906 0.82241 0.0
H1779 H 0.11449 0.2294 0.84558 0.0
H1780 H 0.16058 0.253 0.86085 0.0
H1781 H 0.1603 0.27295 0.83788 0.0
C1782 C 0.17458 0.28661 0.7541 0.0
C1783 C 0.1903 0.29184 0.75978 0.0
C1784 C 0.16146 0.28477 0.76415 0.0
C1785 C 0.16382 0.28809 0.78007 0.0
C1786 C 0.17957 0.29285 0.78585 0.0
C1787 C 0.19266 0.29478 0.77581 0.0
C1788 C 0.14989 0.2869 0.79066 0.0
C1789 C 0.14983 0.27645 0.80441 0.0
C1790 C 0.13666 0.29588 0.7872 0.0
C1791 C 0.13629 0.30762 0.7732 0.0
C1792 C 0.14886 0.32035 0.77086 0.0
C1793 C 0.1485 0.33128 0.75757 0.0
C1794 C 0.13556 0.32967 0.74659 0.0
C1795 C 0.12293 0.31716 0.7489 0.0
C1796 C 0.12325 0.30618 0.76217 0.0
C1797 C 0.10011 0.28457 0.84858 0.0
C1798 C 0.08398 0.28116 0.84301 0.0
C1799 C 0.11296 0.2856 0.83831 0.0
C1800 C 0.11002 0.28307 0.82227 0.0
C1801 C 0.09394 0.27996 0.81661 0.0
C1802 C 0.08108 0.27903 0.82685 0.0
C1803 C 0.12368 0.28374 0.81136 0.0
C1804 C 0.12371 0.29411 0.79753 0.0
C1805 C 0.13683 0.2746 0.8147 0.0
C1806 C 0.13707 0.26259 0.8285 0.0
C1807 C 0.12421 0.25013 0.83077 0.0
C1808 C 0.12444 0.23893 0.84386 0.0
C1809 C 0.13753 0.23998 0.8547 0.0
C1810 C 0.15044 0.25222 0.85246 0.0
C1811 C 0.15025 0.26347 0.8394 0.0
H1812 H 0.13769 0.23129 0.86482 0.0
H1813 H 0.1353 0.33815 0.73631 0.0
H1814 H 0.51343 0.57603 0.53335 0.0
H1815 H 0.51053 0.59968 0.51516 0.0
H1816 H 0.5624 0.60808 0.51073 0.0
H1817 H 0.56545 0.58472 0.52938 0.0
H1818 H 0.55036 0.63557 0.51499 0.0
H1819 H 0.53771 0.59249 0.48108 0.0
H1820 H 0.52361 0.56675 0.47271 0.0
H1821 H 0.47802 0.58593 0.47215 0.0
H1822 H 0.49183 0.61173 0.48073 0.0
H1823 H 0.54975 0.69429 0.44987 0.0
H1824 H 0.55344 0.66983 0.46667 0.0
H1825 H 0.50183 0.66056 0.47269 0.0
H1826 H 0.49804 0.68507 0.45598 0.0
H1827 H 0.5143 0.63332 0.46712 0.0
H1828 H 0.52683 0.67604 0.50174 0.0
H1829 H 0.54087 0.70179 0.51016 0.0
H1830 H 0.58666 0.68319 0.50943 0.0
H1831 H 0.57291 0.65739 0.50078 0.0
C1832 C 0.52424 0.58295 0.52857 0.0
C1833 C 0.53968 0.57849 0.53286 0.0
C1834 C 0.52255 0.59638 0.51803 0.0
C1835 C 0.53623 0.60558 0.51144 0.0
C1836 C 0.55166 0.60113 0.51563 0.0
C1837 C 0.55337 0.5877 0.52619 0.0
C1838 C 0.53446 0.62011 0.50054 0.0
C1839 C 0.54268 0.63503 0.50439 0.0
C1840 C 0.52413 0.61949 0.48689 0.0
C1841 C 0.51579 0.604 0.48169 0.0
C1842 C 0.52467 0.59118 0.47929 0.0
C1843 C 0.51673 0.57659 0.47449 0.0
C1844 C 0.49993 0.57469 0.47194 0.0
C1845 C 0.49103 0.58741 0.47415 0.0
C1846 C 0.49891 0.60203 0.47897 0.0
C1847 C 0.53919 0.68714 0.45488 0.0
C1848 C 0.5236 0.69171 0.45163 0.0
C1849 C 0.54132 0.67313 0.46446 0.0
C1850 C 0.52792 0.66344 0.47108 0.0
C1851 C 0.51233 0.66783 0.46769 0.0
C1852 C 0.51019 0.68183 0.45809 0.0
C1853 C 0.53017 0.64877 0.48161 0.0
C1854 C 0.52203 0.63384 0.47769 0.0
C1855 C 0.54057 0.64937 0.4952 0.0
C1856 C 0.54886 0.66485 0.50045 0.0
C1857 C 0.53991 0.67749 0.50325 0.0
C1858 C 0.54781 0.69209 0.50809 0.0
C1859 C 0.56465 0.69414 0.51029 0.0
C1860 C 0.57362 0.68159 0.50769 0.0
C1861 C 0.56578 0.66697 0.50284 0.0
H1862 H 0.57075 0.70545 0.51403 0.0
H1863 H 0.49381 0.56338 0.46822 0.0
H1864 H 0.8415 0.81433 0.77048 0.0
H1865 H 0.86502 0.81083 0.75516 0.0
H1866 H 0.85871 0.75974 0.76901 0.0
H1867 H 0.83547 0.76331 0.78458 0.0
H1868 H 0.89006 0.77103 0.76967 0.0
H1869 H 0.84522 0.77496 0.73255 0.0
H1870 H 0.82248 0.78758 0.71937 0.0
H1871 H 0.8551 0.82932 0.70428 0.0
H1872 H 0.87801 0.81702 0.71755 0.0
H1873 H 0.93511 0.74373 0.70996 0.0
H1874 H 0.91377 0.74869 0.72725 0.0
H1875 H 0.92162 0.79956 0.71273 0.0
H1876 H 0.94298 0.79471 0.69546 0.0
H1877 H 0.89005 0.78912 0.7127 0.0
H1878 H 0.93513 0.78467 0.74903 0.0
H1879 H 0.95783 0.77188 0.76208 0.0
H1880 H 0.92483 0.73101 0.77857 0.0
H1881 H 0.90195 0.74346 0.76543 0.0
C1882 C 0.84527 0.8024 0.77032 0.0
C1883 C 0.83665 0.78908 0.7786 0.0
C1884 C 0.85863 0.80039 0.76152 0.0
C1885 C 0.86349 0.78497 0.7607 0.0
C1886 C 0.85518 0.77174 0.76941 0.0
C1887 C 0.84188 0.77377 0.77826 0.0
C1888 C 0.87695 0.78251 0.75048 0.0
C1889 C 0.88997 0.77483 0.75718 0.0
C1890 C 0.87704 0.78776 0.73423 0.0
C1891 C 0.8633 0.79514 0.72618 0.0
C1892 C 0.84752 0.78688 0.72652 0.0
C1893 C 0.8346 0.79397 0.71901 0.0
C1894 C 0.83733 0.80926 0.71102 0.0
C1895 C 0.853 0.81748 0.71049 0.0
C1896 C 0.86596 0.81045 0.71799 0.0
C1897 C 0.93241 0.756 0.71055 0.0
C1898 C 0.94078 0.76881 0.7013 0.0
C1899 C 0.92019 0.75882 0.72045 0.0
C1900 C 0.91618 0.77453 0.72143 0.0
C1901 C 0.92446 0.78733 0.71216 0.0
C1902 C 0.93664 0.78452 0.70223 0.0
C1903 C 0.90315 0.7776 0.73188 0.0
C1904 C 0.89019 0.78538 0.72521 0.0
C1905 C 0.90311 0.77242 0.74814 0.0
C1906 C 0.91684 0.76493 0.75612 0.0
C1907 C 0.93273 0.7729 0.75534 0.0
C1908 C 0.94563 0.76572 0.76277 0.0
C1909 C 0.94278 0.75063 0.77112 0.0
C1910 C 0.92702 0.74269 0.77208 0.0
C1911 C 0.91408 0.74981 0.76466 0.0
H1912 H 0.95278 0.74509 0.77686 0.0
H1913 H 0.82732 0.81473 0.70522 0.0
H1914 H 0.07809 0.93814 0.50712 0.0
H1915 H 0.0719 0.91436 0.52537 0.0
H1916 H 0.02152 0.92209 0.52364 0.0
H1917 H 0.02775 0.94634 0.50587 0.0
H1918 H 0.03132 0.91484 0.55318 0.0
H1919 H 0.03486 0.89225 0.50376 0.0
H1920 H 0.04726 0.888 0.47884 0.0
H1921 H 0.08757 0.87009 0.50469 0.0
H1922 H 0.07553 0.87444 0.52978 0.0
H1923 H 0.00245 0.83698 0.58869 0.0
H1924 H 0.00757 0.8608 0.5702 0.0
H1925 H 0.05875 0.85654 0.57326 0.0
H1926 H 0.05381 0.8329 0.59201 0.0
H1927 H 0.04772 0.86175 0.5427 0.0
H1928 H 0.04402 0.88492 0.59216 0.0
H1929 H 0.0312 0.889 0.61691 0.0
H1930 H 0.9905 0.90555 0.59058 0.0
H1931 H 0.00298 0.90134 0.56566 0.0
C1932 C 0.06571 0.93488 0.51071 0.0
C1933 C 0.05342 0.94418 0.50501 0.0
C1934 C 0.06215 0.92116 0.52102 0.0
C1935 C 0.0462 0.91629 0.52573 0.0
C1936 C 0.03391 0.92557 0.52013 0.0
C1937 C 0.03747 0.93935 0.50984 0.0
C1938 C 0.04243 0.90167 0.53669 0.0
C1939 C 0.03469 0.90318 0.55076 0.0
C1940 C 0.0471 0.8865 0.53371 0.0
C1941 C 0.05436 0.88382 0.51865 0.0
C1942 C 0.04643 0.88752 0.50413 0.0
C1943 C 0.05338 0.88507 0.48998 0.0
C1944 C 0.06821 0.87881 0.49018 0.0
C1945 C 0.0761 0.87495 0.50455 0.0
C1946 C 0.0692 0.87739 0.51874 0.0
C1947 C 0.01483 0.84121 0.58561 0.0
C1948 C 0.02772 0.83301 0.59191 0.0
C1949 C 0.01772 0.8548 0.57497 0.0
C1950 C 0.03356 0.86051 0.57043 0.0
C1951 C 0.04643 0.85231 0.57657 0.0
C1952 C 0.04356 0.83875 0.58725 0.0
C1953 C 0.0367 0.87497 0.55918 0.0
C1954 C 0.04432 0.87341 0.54507 0.0
C1955 C 0.03185 0.89006 0.56208 0.0
C1956 C 0.02436 0.89265 0.57705 0.0
C1957 C 0.03227 0.8893 0.59165 0.0
C1958 C 0.02508 0.89166 0.6057 0.0
C1959 C 0.01003 0.89749 0.60532 0.0
C1960 C 1.00215 0.90101 0.59086 0.0
C1961 C 0.00928 0.89865 0.57676 0.0
H1962 H 0.00448 0.89931 0.61621 0.0
H1963 H 0.07357 0.87692 0.47921 0.0
H1964 H 0.20172 0.76109 0.78231 0.0
H1965 H 0.1784 0.76372 0.76429 0.0
H1966 H 0.16691 0.71187 0.76714 0.0
H1967 H 0.19041 0.70917 0.78504 0.0
H1968 H 0.16338 0.72393 0.73759 0.0
H1969 H 0.14584 0.73618 0.78783 0.0
H1970 H 0.14771 0.75033 0.81228 0.0
H1971 H 0.14588 0.79566 0.78516 0.0
H1972 H 0.14423 0.7818 0.76052 0.0
H1973 H 0.08227 0.72181 0.70706 0.0
H1974 H 0.10626 0.71915 0.72414 0.0
H1975 H 0.11945 0.77072 0.71884 0.0
H1976 H 0.09564 0.7735 0.70149 0.0
H1977 H 0.12204 0.75882 0.74956 0.0
H1978 H 0.1394 0.7464 0.69934 0.0
H1979 H 0.13767 0.73218 0.67495 0.0
H1980 H 0.13967 0.68696 0.70221 0.0
H1981 H 0.14118 0.70089 0.7268 0.0
C1982 C 0.19417 0.75025 0.77916 0.0
C1983 C 0.19782 0.73492 0.7852 0.0
C1984 C 0.18084 0.75177 0.76885 0.0
C1985 C 0.17071 0.73801 0.76455 0.0
C1986 C 0.17452 0.72267 0.77031 0.0
C1987 C 0.18796 0.72114 0.78052 0.0
C1988 C 0.1561 0.73963 0.75414 0.0
C1989 C 0.15423 0.73138 0.74033 0.0
C1990 C 0.14431 0.74963 0.75751 0.0
C1991 C 0.14506 0.75797 0.77232 0.0
C1992 C 0.14593 0.74918 0.78707 0.0
C1993 C 0.14694 0.75715 0.80097 0.0
C1994 C 0.14695 0.77389 0.80027 0.0
C1995 C 0.14589 0.78269 0.78568 0.0
C1996 C 0.1449 0.77479 0.77175 0.0
C1997 C 0.09036 0.73259 0.70935 0.0
C1998 C 0.087 0.74787 0.70282 0.0
C1999 C 0.10405 0.73104 0.71917 0.0
C2000 C 0.11472 0.74472 0.72267 0.0
C2001 C 0.11136 0.76 0.71633 0.0
C2002 C 0.09769 0.76156 0.70646 0.0
C2003 C 0.12934 0.74311 0.73304 0.0
C2004 C 0.13119 0.75136 0.74684 0.0
C2005 C 0.14108 0.73307 0.72969 0.0
C2006 C 0.14024 0.72467 0.71492 0.0
C2007 C 0.13934 0.73341 0.70014 0.0
C2008 C 0.13842 0.7254 0.68628 0.0
C2009 C 0.13852 0.70867 0.68703 0.0
C2010 C 0.13958 0.69991 0.70165 0.0
C2011 C 0.14047 0.70786 0.71555 0.0
H2012 H 0.13781 0.70249 0.67628 0.0
H2013 H 0.14776 0.78004 0.81104 0.0
H2014 H 0.00766 0.58294 0.5165 0.0
H2015 H 0.01105 0.60446 0.53464 0.0
H2016 H 0.96176 0.61386 0.52425 0.0
H2017 H 0.95843 0.59267 0.50579 0.0
H2018 H 0.98202 0.64165 0.52484 0.0
H2019 H 0.97171 0.59259 0.55823 0.0
H2020 H 0.97626 0.56517 0.56888 0.0
H2021 H 0.02449 0.58295 0.58427 0.0
H2022 H 0.02029 0.61045 0.57351 0.0
H2023 H 0.97226 0.68878 0.58866 0.0
H2024 H 0.96948 0.66757 0.57022 0.0
H2025 H 0.01817 0.65734 0.58258 0.0
H2026 H 0.021 0.67847 0.6011 0.0
H2027 H 0.99859 0.63003 0.58085 0.0
H2028 H 0.00905 0.67905 0.54775 0.0
H2029 H 0.00477 0.70651 0.537 0.0
H2030 H 0.95674 0.68896 0.52086 0.0
H2031 H 0.96066 0.66142 0.53171 0.0
C2032 C 0.9976 0.5897 0.51795 0.0
C2033 C 0.98275 0.58602 0.50974 0.0
C2034 C 0.9995 0.6019 0.52843 0.0
C2035 C 0.98659 0.61066 0.53096 0.0
C2036 C 0.97187 0.60723 0.52255 0.0
C2037 C 0.96994 0.59502 0.51209 0.0
C2038 C 0.98837 0.62333 0.54243 0.0
C2039 C 0.98545 0.63907 0.53713 0.0
C2040 C 0.99322 0.62006 0.55839 0.0
C2041 C 0.99574 0.60355 0.56493 0.0
C2042 C 0.98333 0.59063 0.56378 0.0
C2043 C 0.98584 0.57508 0.56985 0.0
C2044 C 1.00067 0.57231 0.57721 0.0
C2045 C 0.01301 0.58511 0.57855 0.0
C2046 C 0.01057 0.60068 0.57248 0.0
C2047 C 0.98241 0.68207 0.58739 0.0
C2048 C 0.99687 0.68536 0.59633 0.0
C2049 C 0.98081 0.66995 0.57683 0.0
C2050 C 0.9937 0.66098 0.57482 0.0
C2051 C 0.00805 0.66407 0.58391 0.0
C2052 C 0.00963 0.67613 0.59454 0.0
C2053 C 0.99221 0.64838 0.56328 0.0
C2054 C 0.99519 0.63264 0.56855 0.0
C2055 C 0.98746 0.65166 0.54728 0.0
C2056 C 0.9851 0.6682 0.54068 0.0
C2057 C 0.99753 0.68106 0.54201 0.0
C2058 C 0.99518 0.69664 0.53589 0.0
C2059 C 0.98048 0.69949 0.52829 0.0
C2060 C 0.96812 0.68674 0.52677 0.0
C2061 C 0.9704 0.67114 0.53289 0.0
H2062 H 0.97868 0.71155 0.52355 0.0
H2063 H 0.00259 0.56026 0.58191 0.0
H2064 H 0.74529 0.82183 0.26578 0.0
H2065 H 0.76382 0.84667 0.26782 0.0
H2066 H 0.76052 0.85645 0.2173 0.0
H2067 H 0.74228 0.83132 0.21519 0.0
H2068 H 0.79058 0.86384 0.22738 0.0
H2069 H 0.73882 0.87557 0.24296 0.0
H2070 H 0.71389 0.87105 0.25824 0.0
H2071 H 0.74215 0.87665 0.30123 0.0
H2072 H 0.76727 0.88098 0.28623 0.0
H2073 H 0.82035 0.94747 0.22628 0.0
H2074 H 0.80288 0.92203 0.22385 0.0
H2075 H 0.8099 0.90948 0.27359 0.0
H2076 H 0.82769 0.93472 0.27609 0.0
H2077 H 0.77788 0.90377 0.2637 0.0
H2078 H 0.82968 0.8921 0.24763 0.0
H2079 H 0.85437 0.89657 0.23202 0.0
H2080 H 0.82548 0.89127 0.18935 0.0
H2081 H 0.80059 0.887 0.2047 0.0
C2082 C 0.74855 0.82928 0.25511 0.0
C2083 C 0.74225 0.82473 0.24033 0.0
C2084 C 0.7591 0.8435 0.25629 0.0
C2085 C 0.76331 0.85364 0.24275 0.0
C2086 C 0.75741 0.84886 0.22792 0.0
C2087 C 0.74701 0.83451 0.22672 0.0
C2088 C 0.77366 0.86932 0.24409 0.0
C2089 C 0.78767 0.87266 0.23516 0.0
C2090 C 0.77005 0.88075 0.25445 0.0
C2091 C 0.75494 0.87846 0.26348 0.0
C2092 C 0.73972 0.87576 0.25568 0.0
C2093 C 0.72556 0.87323 0.26429 0.0
C2094 C 0.72644 0.87352 0.2807 0.0
C2095 C 0.74149 0.87641 0.28853 0.0
C2096 C 0.75569 0.87892 0.27997 0.0
C2097 C 0.81835 0.93924 0.23669 0.0
C2098 C 0.82552 0.94316 0.25137 0.0
C2099 C 0.80829 0.92472 0.23528 0.0
C2100 C 0.80519 0.9138 0.24852 0.0
C2101 C 0.8121 0.91775 0.26323 0.0
C2102 C 0.82222 0.93224 0.26464 0.0
C2103 C 0.79477 0.89823 0.24701 0.0
C2104 C 0.78075 0.89494 0.25591 0.0
C2105 C 0.7983 0.88691 0.23654 0.0
C2106 C 0.81326 0.88939 0.2273 0.0
C2107 C 0.82858 0.89202 0.23491 0.0
C2108 C 0.84262 0.8945 0.22611 0.0
C2109 C 0.8415 0.89425 0.2097 0.0
C2110 C 0.82633 0.89148 0.20206 0.0
C2111 C 0.81226 0.88902 0.2108 0.0
H2112 H 0.85238 0.89617 0.20291 0.0
H2113 H 0.71546 0.87153 0.28735 0.0
H2114 H 0.79134 0.21241 0.2931 0.0
H2115 H 0.80542 0.18912 0.28897 0.0
H2116 H 0.75953 0.15917 0.28589 0.0
H2117 H 0.74537 0.18252 0.28999 0.0
H2118 H 0.78265 0.14399 0.30406 0.0
H2119 H 0.77837 0.17222 0.25307 0.0
H2120 H 0.78125 0.19585 0.23369 0.0
H2121 H 0.8328 0.20148 0.24212 0.0
H2122 H 0.8302 0.17801 0.26173 0.0
H2123 H 0.81318 0.07851 0.27137 0.0
H2124 H 0.79785 0.1008 0.27568 0.0
H2125 H 0.84213 0.13356 0.2756 0.0
H2126 H 0.85748 0.11146 0.27072 0.0
H2127 H 0.81892 0.14692 0.2588 0.0
H2128 H 0.82336 0.11919 0.3101 0.0
H2129 H 0.82067 0.09575 0.32972 0.0
H2130 H 0.76916 0.08933 0.321 0.0
H2131 H 0.77157 0.11261 0.30116 0.0
C2132 C 0.78428 0.2008 0.29174 0.0
C2133 C 0.76728 0.19918 0.29218 0.0
C2134 C 0.79232 0.18754 0.28929 0.0
C2135 C 0.78353 0.17242 0.28704 0.0
C2136 C 0.76655 0.1707 0.28766 0.0
C2137 C 0.75849 0.18401 0.29004 0.0
C2138 C 0.79208 0.15853 0.2837 0.0
C2139 C 0.7904 0.14453 0.29404 0.0
C2140 C 0.80246 0.15936 0.27081 0.0
C2141 C 0.80407 0.17345 0.25898 0.0
C2142 C 0.79031 0.17858 0.25089 0.0
C2143 C 0.79189 0.19193 0.23984 0.0
C2144 C 0.8072 0.20019 0.2367 0.0
C2145 C 0.82095 0.19509 0.24458 0.0
C2146 C 0.81943 0.18175 0.25565 0.0
C2147 C 0.81966 0.09048 0.27209 0.0
C2148 C 0.8366 0.09315 0.27073 0.0
C2149 C 0.81088 0.1032 0.27474 0.0
C2150 C 0.81884 0.11884 0.27618 0.0
C2151 C 0.83571 0.12159 0.27461 0.0
C2152 C 0.84449 0.1089 0.27194 0.0
C2153 C 0.80963 0.13239 0.27923 0.0
C2154 C 0.81116 0.14634 0.26881 0.0
C2155 C 0.79916 0.13152 0.29208 0.0
C2156 C 0.79767 0.11754 0.30402 0.0
C2157 C 0.81147 0.1127 0.31227 0.0
C2158 C 0.81 0.09945 0.32345 0.0
C2159 C 0.79476 0.09103 0.32657 0.0
C2160 C 0.78096 0.09586 0.31855 0.0
C2161 C 0.78237 0.10908 0.30735 0.0
H2162 H 0.79364 0.08078 0.33524 0.0
H2163 H 0.8084 0.21052 0.22814 0.0
H2164 H 0.46002 0.01682 0.99012 0.0
H2165 H 0.43483 0.99836 0.99046 0.0
H2166 H 0.40726 0.03902 0.98727 0.0
H2167 H 0.43248 0.0575 0.98739 0.0
H2168 H 0.39435 0.01724 0.00777 0.0
H2169 H 0.41178 0.01609 0.95504 0.0
H2170 H 0.43088 0.01304 0.93439 0.0
H2171 H 0.43374 0.96392 0.95213 0.0
H2172 H 0.41482 0.96675 0.97303 0.0
H2173 H 0.31877 0.97245 0.98774 0.0
H2174 H 0.34376 0.99125 0.98575 0.0
H2175 H 0.37203 0.95171 0.99685 0.0
H2176 H 0.3471 0.93284 0.99878 0.0
H2177 H 0.38411 0.97309 0.97172 0.0
H2178 H 0.36664 0.97509 0.02478 0.0
H2179 H 0.34716 0.97865 0.04492 0.0
H2180 H 0.34377 0.02709 0.02533 0.0
H2181 H 0.36306 0.02373 0.00492 0.0
C2182 C 0.44857 0.0218 0.98938 0.0
C2183 C 0.4482 0.03859 0.98867 0.0
C2184 C 0.43417 0.01125 0.98953 0.0
C2185 C 0.41909 0.01727 0.98862 0.0
C2186 C 0.41872 0.03406 0.98797 0.0
C2187 C 0.43312 0.04461 0.98805 0.0
C2188 C 0.40371 0.00608 0.98867 0.0
C2189 C 0.39204 0.00776 0.9997 0.0
C2190 C 0.40074 0.99348 0.97835 0.0
C2191 C 0.41199 0.99168 0.96569 0.0
C2192 C 0.41656 0.00467 0.9546 0.0
C2193 C 0.42735 0.00297 0.94284 0.0
C2194 C 0.43356 0.98831 0.94197 0.0
C2195 C 0.42894 0.97528 0.95283 0.0
C2196 C 0.41817 0.97692 0.96463 0.0
C2197 C 0.33032 0.96776 0.98962 0.0
C2198 C 0.33098 0.95118 0.99348 0.0
C2199 C 0.34457 0.97851 0.98857 0.0
C2200 C 0.35974 0.97288 0.99127 0.0
C2201 C 0.36045 0.9563 0.99475 0.0
C2202 C 0.3462 0.94556 0.99596 0.0
C2203 C 0.37487 0.98432 0.99078 0.0
C2204 C 0.38646 0.98265 0.9797 0.0
C2205 C 0.3777 0.99704 1.00092 0.0
C2206 C 0.36616 0.9991 0.01323 0.0
C2207 C 0.36164 0.98645 0.02469 0.0
C2208 C 0.35065 0.98845 0.03616 0.0
C2209 C 0.3442 0.00307 0.03638 0.0
C2210 C 0.34876 0.01576 0.02514 0.0
C2211 C 0.35973 0.01382 0.01362 0.0
H2212 H 0.3357 0.00459 0.04528 0.0
H2213 H 0.44192 0.98702 0.93287 0.0
H2214 H 0.27534 0.32324 0.29348 0.0
H2215 H 0.25691 0.34389 0.2894 0.0
H2216 H 0.26358 0.35399 0.33828 0.0
H2217 H 0.28223 0.33349 0.34244 0.0
H2218 H 0.23186 0.35201 0.32895 0.0
H2219 H 0.28212 0.37945 0.30982 0.0
H2220 H 0.30652 0.38327 0.2938 0.0
H2221 H 0.27673 0.38304 0.25139 0.0
H2222 H 0.25213 0.37898 0.26717 0.0
H2223 H 0.19712 0.426 0.32293 0.0
H2224 H 0.2153 0.40513 0.32745 0.0
H2225 H 0.21047 0.3959 0.27824 0.0
H2226 H 0.19227 0.41674 0.27363 0.0
H2227 H 0.24137 0.39745 0.28794 0.0
H2228 H 0.19111 0.36991 0.30693 0.0
H2229 H 0.16664 0.36593 0.32285 0.0
H2230 H 0.19627 0.3662 0.36537 0.0
H2231 H 0.22093 0.3704 0.34969 0.0
C2232 C 0.27306 0.32997 0.30334 0.0
C2233 C 0.28037 0.32672 0.31828 0.0
C2234 C 0.26246 0.34175 0.30099 0.0
C2235 C 0.25896 0.35062 0.3135 0.0
C2236 C 0.26607 0.34729 0.32846 0.0
C2237 C 0.2767 0.33552 0.33083 0.0
C2238 C 0.24786 0.36332 0.31096 0.0
C2239 C 0.23405 0.36208 0.32013 0.0
C2240 C 0.25051 0.37625 0.2992 0.0
C2241 C 0.26528 0.37875 0.28968 0.0
C2242 C 0.28077 0.38008 0.29708 0.0
C2243 C 0.29463 0.38231 0.28804 0.0
C2244 C 0.29317 0.38335 0.27159 0.0
C2245 C 0.27784 0.38221 0.26414 0.0
C2246 C 0.26393 0.37996 0.27312 0.0
C2247 C 0.19976 0.41939 0.31309 0.0
C2248 C 0.19318 0.42304 0.29792 0.0
C2249 C 0.21019 0.40747 0.31569 0.0
C2250 C 0.21416 0.3988 0.30322 0.0
C2251 C 0.20763 0.40243 0.28805 0.0
C2252 C 0.19725 0.41439 0.28543 0.0
C2253 C 0.22531 0.38614 0.3059 0.0
C2254 C 0.23915 0.3874 0.29676 0.0
C2255 C 0.22268 0.37321 0.31767 0.0
C2256 C 0.20787 0.37063 0.32713 0.0
C2257 C 0.19241 0.36925 0.31967 0.0
C2258 C 0.1785 0.36693 0.32866 0.0
C2259 C 0.1799 0.36586 0.34511 0.0
C2260 C 0.19521 0.36705 0.35262 0.0
C2261 C 0.20915 0.36939 0.34369 0.0
H2262 H 0.16912 0.36406 0.35205 0.0
H2263 H 0.30392 0.38508 0.26461 0.0
H2264 H 0.07954 0.01644 0.48495 0.0
H2265 H 0.10435 0.03436 0.49023 0.0
H2266 H 0.13054 0.99303 0.49969 0.0
H2267 H 0.10576 0.97505 0.49449 0.0
H2268 H 0.13787 0.0138 0.52159 0.0
H2269 H 0.13473 0.01734 0.465 0.0
H2270 H 0.12183 0.02194 0.43869 0.0
H2271 H 0.11687 0.07071 0.44813 0.0
H2272 H 0.12955 0.06634 0.4746 0.0
H2273 H 0.21742 0.05579 0.52043 0.0
H2274 H 0.19273 0.03806 0.51431 0.0
H2275 H 0.16642 0.07944 0.5063 0.0
H2276 H 0.19104 0.09725 0.5125 0.0
H2277 H 0.15918 0.05876 0.48359 0.0
H2278 H 0.16227 0.05512 0.5402 0.0
H2279 H 0.17522 0.0505 0.56649 0.0
H2280 H 0.18033 1.0018 0.55689 0.0
H2281 H 0.1676 0.0062 0.53045 0.0
C2282 C 0.09062 0.01118 0.48798 0.0
C2283 C 0.09068 0.99432 0.48928 0.0
C2284 C 0.1048 0.02144 0.49101 0.0
C2285 C 0.11937 0.01506 0.49521 0.0
C2286 C 0.11945 0.99824 0.4965 0.0
C2287 C 0.10527 0.98797 0.49355 0.0
C2288 C 0.13446 0.02589 0.49858 0.0
C2289 C 0.14265 0.02349 0.51318 0.0
C2290 C 0.1405 0.03878 0.48778 0.0
C2291 C 0.13294 0.04146 0.47184 0.0
C2292 C 0.13077 0.02901 0.46151 0.0
C2293 C 0.12352 0.03158 0.44656 0.0
C2294 C 0.11849 0.04659 0.44176 0.0
C2295 C 0.12075 0.05908 0.45188 0.0
C2296 C 0.12798 0.05657 0.46685 0.0
C2297 C 0.20635 0.06112 0.51751 0.0
C2298 C 0.2062 0.07795 0.51702 0.0
C2299 C 0.19225 0.05097 0.51398 0.0
C2300 C 0.17768 0.05741 0.51 0.0
C2301 C 0.17753 0.0742 0.50931 0.0
C2302 C 0.19163 0.08437 0.51282 0.0
C2303 C 0.16259 0.04663 0.50657 0.0
C2304 C 0.15439 0.04906 0.49198 0.0
C2305 C 0.15654 0.03375 0.51736 0.0
C2306 C 0.16413 0.03104 0.53329 0.0
C2307 C 0.16627 0.04346 0.54365 0.0
C2308 C 0.17355 0.04088 0.55859 0.0
C2309 C 0.17863 0.02588 0.56334 0.0
C2310 C 0.1764 0.01342 0.55318 0.0
C2311 C 0.16915 0.01595 0.53823 0.0
H2312 H 0.18427 0.0239 0.57491 0.0
H2313 H 0.11288 0.04856 0.43018 0.0
H2314 H 0.7995 0.17393 0.75056 0.0
H2315 H 0.7818 0.14866 0.75524 0.0
H2316 H 0.74065 0.17226 0.73773 0.0
H2317 H 0.75812 0.19783 0.73393 0.0
H2318 H 0.73252 0.15363 0.76269 0.0
H2319 H 0.75912 0.14644 0.71544 0.0
H2320 H 0.7823 0.14593 0.69841 0.0
H2321 H 0.80015 0.10906 0.73005 0.0
H2322 H 0.77718 0.1095 0.7474 0.0
H2323 H 0.67923 0.08154 0.75196 0.0
H2324 H 0.69695 0.10688 0.7467 0.0
H2325 H 0.73673 0.08574 0.77084 0.0
H2326 H 0.71909 0.06032 0.77606 0.0
H2327 H 0.74525 0.10293 0.74217 0.0
H2328 H 0.71792 0.11065 0.78931 0.0
H2329 H 0.69408 0.11116 0.80546 0.0
H2330 H 0.67675 0.14724 0.77249 0.0
H2331 H 0.70039 0.14677 0.75602 0.0
C2332 C 0.78666 0.17383 0.74787 0.0
C2333 C 0.78029 0.18799 0.74183 0.0
C2334 C 0.77656 0.15928 0.75035 0.0
C2335 C 0.75989 0.15845 0.74659 0.0
C2336 C 0.75347 0.17255 0.74065 0.0
C2337 C 0.76353 0.18715 0.73832 0.0
C2338 C 0.74911 0.14294 0.74909 0.0
C2339 C 0.73521 0.14262 0.75799 0.0
C2340 C 0.75271 0.12844 0.74322 0.0
C2341 C 0.76651 0.12811 0.7328 0.0
C2342 C 0.76805 0.13831 0.71883 0.0
C2343 C 0.78114 0.13802 0.70911 0.0
C2344 C 0.79271 0.1275 0.71317 0.0
C2345 C 0.79119 0.11721 0.72694 0.0
C2346 C 0.77813 0.11747 0.73671 0.0
C2347 C 0.69178 0.08226 0.75604 0.0
C2348 C 0.69777 0.06896 0.76446 0.0
C2349 C 0.70186 0.09676 0.75311 0.0
C2350 C 0.71812 0.09822 0.75849 0.0
C2351 C 0.72421 0.08487 0.76663 0.0
C2352 C 0.7141 0.07041 0.76969 0.0
C2353 C 0.72875 0.1137 0.75573 0.0
C2354 C 0.7426 0.11399 0.7468 0.0
C2355 C 0.72502 0.1282 0.76142 0.0
C2356 C 0.71084 0.12855 0.77135 0.0
C2357 C 0.70896 0.11859 0.78544 0.0
C2358 C 0.69549 0.11889 0.79466 0.0
C2359 C 0.68388 0.12919 0.78998 0.0
C2360 C 0.68574 0.13925 0.77609 0.0
C2361 C 0.69918 0.13898 0.76681 0.0
H2362 H 0.67347 0.12941 0.79714 0.0
H2363 H 0.80283 0.12729 0.70563 0.0
H2364 H 0.45441 1.00069 0.54464 0.0
H2365 H 0.43354 0.01904 0.54106 0.0
H2366 H 0.41946 0.00674 0.58915 0.0
H2367 H 0.44026 0.98828 0.59277 0.0
H2368 H 0.39306 0.00695 0.56773 0.0
H2369 H 0.44166 0.04155 0.58046 0.0
H2370 H 0.47011 0.0533 0.57732 0.0
H2371 H 0.45883 0.07161 0.53009 0.0
H2372 H 0.43034 0.05977 0.53288 0.0
H2373 H 0.34379 0.06904 0.57471 0.0
H2374 H 0.36472 0.05087 0.5785 0.0
H2375 H 0.38376 0.06855 0.53312 0.0
H2376 H 0.36304 0.08703 0.52946 0.0
H2377 H 0.40779 0.06537 0.5531 0.0
H2378 H 0.35974 0.03105 0.53954 0.0
H2379 H 0.3313 0.01889 0.54162 0.0
H2380 H 0.3413 0.9995 0.58877 0.0
H2381 H 0.36977 0.01173 0.58705 0.0
C2382 C 0.44679 1.0018 0.55441 0.0
C2383 C 0.449 0.99305 0.569 0.0
C2384 C 0.43495 0.01237 0.55239 0.0
C2385 C 0.42503 0.01436 0.56488 0.0
C2386 C 0.42701 0.00543 0.57937 0.0
C2387 C 0.43895 0.99497 0.58145 0.0
C2388 C 0.41263 0.0258 0.56284 0.0
C2389 C 0.39627 0.01977 0.56474 0.0
C2390 C 0.4168 0.04243 0.55849 0.0
C2391 C 0.4339 0.04963 0.55683 0.0
C2392 C 0.44527 0.04797 0.56936 0.0
C2393 C 0.4614 0.05466 0.56765 0.0
C2394 C 0.46629 0.06316 0.5535 0.0
C2395 C 0.45504 0.06501 0.54104 0.0
C2396 C 0.43889 0.05832 0.54268 0.0
C2397 C 0.35241 0.06901 0.56552 0.0
C2398 C 0.3517 0.07942 0.55175 0.0
C2399 C 0.36436 0.05858 0.56768 0.0
C2400 C 0.37569 0.05807 0.55597 0.0
C2401 C 0.37517 0.06866 0.54232 0.0
C2402 C 0.36333 0.07924 0.54025 0.0
C2403 C 0.38811 0.04657 0.55798 0.0
C2404 C 0.4045 0.05257 0.55608 0.0
C2405 C 0.38395 0.02986 0.56215 0.0
C2406 C 0.36685 0.02244 0.56321 0.0
C2407 C 0.35585 0.02429 0.55039 0.0
C2408 C 0.33972 0.01737 0.5515 0.0
C2409 C 0.33448 0.00846 0.56533 0.0
C2410 C 0.34537 0.00642 0.57807 0.0
C2411 C 0.3615 0.01333 0.57703 0.0
H2412 H 0.322 0.00311 0.56617 0.0
H2413 H 0.47878 0.06834 0.5522 0.0
H2414 H 0.58548 0.50864 0.56428 0.0
H2415 H 0.60879 0.49465 0.55918 0.0
H2416 H 0.59257 0.49202 0.51055 0.0
H2417 H 0.56929 0.50594 0.51564 0.0
H2418 H 0.60055 0.46326 0.52331 0.0
H2419 H 0.62485 0.51845 0.52046 0.0
H2420 H 0.63202 0.5456 0.52987 0.0
H2421 H 0.65777 0.5254 0.56994 0.0
H2422 H 0.65056 0.49808 0.56087 0.0
H2423 H 0.67103 0.4382 0.49347 0.0
H2424 H 0.64872 0.45338 0.4985 0.0
H2425 H 0.6661 0.45705 0.54668 0.0
H2426 H 0.68841 0.44182 0.54176 0.0
H2427 H 0.65763 0.48541 0.5343 0.0
H2428 H 0.63331 0.43034 0.53748 0.0
H2429 H 0.62611 0.40307 0.52837 0.0
H2430 H 0.60028 0.42286 0.48814 0.0
H2431 H 0.60753 0.4503 0.49691 0.0
C2432 C 0.58706 0.50524 0.55247 0.0
C2433 C 0.57576 0.5086 0.5403 0.0
C2434 C 0.60035 0.49727 0.54956 0.0
C2435 C 0.60253 0.49242 0.53443 0.0
C2436 C 0.59117 0.49568 0.52229 0.0
C2437 C 0.57793 0.50371 0.52519 0.0
C2438 C 0.61636 0.48353 0.53135 0.0
C2439 C 0.61305 0.46821 0.5255 0.0
C2440 C 0.63265 0.48978 0.5346 0.0
C2441 C 0.63702 0.5062 0.54007 0.0
C2442 C 0.63192 0.51978 0.53135 0.0
C2443 C 0.63602 0.5352 0.53661 0.0
C2444 C 0.64531 0.53722 0.55052 0.0
C2445 C 0.65056 0.52381 0.55918 0.0
C2446 C 0.64648 0.50836 0.55398 0.0
C2447 C 0.67003 0.4421 0.50518 0.0
C2448 C 0.6815 0.43871 0.51722 0.0
C2449 C 0.65728 0.45082 0.50803 0.0
C2450 C 0.65561 0.45623 0.52302 0.0
C2451 C 0.66714 0.45304 0.53501 0.0
C2452 C 0.67992 0.44435 0.53216 0.0
C2453 C 0.64183 0.46516 0.52621 0.0
C2454 C 0.64514 0.48047 0.53209 0.0
C2455 C 0.62552 0.45888 0.52305 0.0
C2456 C 0.6211 0.44239 0.51777 0.0
C2457 C 0.6262 0.4289 0.52663 0.0
C2458 C 0.62209 0.4134 0.52154 0.0
C2459 C 0.61278 0.41124 0.50766 0.0
C2460 C 0.60752 0.42456 0.49887 0.0
C2461 C 0.61161 0.44008 0.5039 0.0
H2462 H 0.60961 0.39923 0.50374 0.0
H2463 H 0.64847 0.54917 0.55457 0.0
H2464 H 0.72516 0.27564 0.3184 0.0
H2465 H 0.72875 0.29342 0.34003 0.0
H2466 H 0.74092 0.25369 0.37195 0.0
H2467 H 0.73696 0.23572 0.35041 0.0
H2468 H 0.7194 0.2704 0.38458 0.0
H2469 H 0.7701 0.28318 0.3588 0.0
H2470 H 0.78785 0.29127 0.33631 0.0
H2471 H 0.76805 0.33642 0.32903 0.0
H2472 H 0.75001 0.3285 0.35135 0.0
H2473 H 0.74817 0.31596 0.4487 0.0
H2474 H 0.74602 0.29844 0.42696 0.0
H2475 H 0.73607 0.33852 0.3944 0.0
H2476 H 0.73895 0.35634 0.41601 0.0
H2477 H 0.75665 0.32156 0.38207 0.0
H2478 H 0.70572 0.3089 0.40732 0.0
H2479 H 0.68761 0.30095 0.42957 0.0
H2480 H 0.7073 0.25579 0.43749 0.0
H2481 H 0.72569 0.26356 0.41542 0.0
C2482 C 0.72855 0.27067 0.33003 0.0
C2483 C 0.73075 0.25424 0.33268 0.0
C2484 C 0.73073 0.28088 0.34236 0.0
C2485 C 0.73524 0.27493 0.3576 0.0
C2486 C 0.73749 0.25856 0.36028 0.0
C2487 C 0.73535 0.24834 0.34793 0.0
C2488 C 0.7372 0.28569 0.37082 0.0
C2489 C 0.72773 0.28146 0.38413 0.0
C2490 C 0.74773 0.30036 0.37006 0.0
C2491 C 0.7586 0.30517 0.35666 0.0
C2492 C 0.76944 0.29478 0.35233 0.0
C2493 C 0.77957 0.29934 0.33962 0.0
C2494 C 0.77905 0.31433 0.33122 0.0
C2495 C 0.76842 0.3248 0.33553 0.0
C2496 C 0.75826 0.32029 0.34822 0.0
C2497 C 0.74571 0.32114 0.43691 0.0
C2498 C 0.74372 0.33761 0.43416 0.0
C2499 C 0.74429 0.31103 0.42449 0.0
C2500 C 0.74065 0.31708 0.40905 0.0
C2501 C 0.73882 0.33354 0.40622 0.0
C2502 C 0.7403 0.34369 0.41863 0.0
C2503 C 0.73885 0.30626 0.39585 0.0
C2504 C 0.74834 0.31048 0.38253 0.0
C2505 C 0.72828 0.29161 0.39657 0.0
C2506 C 0.71719 0.28688 0.40981 0.0
C2507 C 0.70627 0.29732 0.41388 0.0
C2508 C 0.69594 0.29284 0.42645 0.0
C2509 C 0.69633 0.2779 0.43496 0.0
C2510 C 0.70703 0.26738 0.4309 0.0
C2511 C 0.7174 0.27181 0.41836 0.0
H2512 H 0.68833 0.27445 0.44469 0.0
H2513 H 0.7869 0.31785 0.32139 0.0
H2514 H 0.4951 0.05564 0.92451 0.0
H2515 H 0.5113 0.04354 0.9064 0.0
H2516 H 0.55004 0.04265 0.94165 0.0
H2517 H 0.53392 0.05521 0.95968 0.0
H2518 H 0.56183 0.05368 0.91418 0.0
H2519 H 0.52582 0.00764 0.93205 0.0
H2520 H 0.49945 0.99197 0.93815 0.0
H2521 H 0.4844 0.99701 0.88932 0.0
H2522 H 0.5106 0.01293 0.88295 0.0
H2523 H 0.60659 0.00675 0.86951 0.0
H2524 H 0.59071 0.01463 0.8906 0.0
H2525 H 0.55129 0.0217 0.85727 0.0
H2526 H 0.56699 0.01361 0.83618 0.0
H2527 H 0.54068 0.00586 0.88534 0.0
H2528 H 0.5763 0.0535 0.86822 0.0
H2529 H 0.60278 0.06912 0.86243 0.0
H2530 H 0.61876 0.06041 0.91064 0.0
H2531 H 0.59243 0.04454 0.91666 0.0
C2532 C 0.507 0.05269 0.92845 0.0
C2533 C 0.51319 0.05614 0.94358 0.0
C2534 C 0.51623 0.04571 0.91812 0.0
C2535 C 0.53182 0.04191 0.92272 0.0
C2536 C 0.53803 0.04537 0.93785 0.0
C2537 C 0.52881 0.05245 0.94817 0.0
C2538 C 0.54185 0.03501 0.91147 0.0
C2539 C 0.5573 0.04303 0.90811 0.0
C2540 C 0.53588 0.02129 0.90329 0.0
C2541 C 0.52014 0.0116 0.90705 0.0
C2542 C 0.51685 0.00551 0.92263 0.0
C2543 C 0.50193 0.99656 0.92613 0.0
C2544 C 0.49024 0.99353 0.91414 0.0
C2545 C 0.49346 0.99939 0.8986 0.0
C2546 C 0.50835 0.00835 0.89504 0.0
C2547 C 0.59447 0.0098 0.86671 0.0
C2548 C 0.58808 0.00963 0.85115 0.0
C2549 C 0.58545 0.01441 0.87875 0.0
C2550 C 0.56987 0.0189 0.87548 0.0
C2551 C 0.5633 0.01832 0.86005 0.0
C2552 C 0.57234 0.01382 0.84799 0.0
C2553 C 0.56054 0.02462 0.88801 0.0
C2554 C 0.54523 0.0164 0.89157 0.0
C2555 C 0.56667 0.03809 0.89644 0.0
C2556 C 0.58247 0.04768 0.89285 0.0
C2557 C 0.58551 0.0548 0.87755 0.0
C2558 C 0.60048 0.06372 0.87423 0.0
C2559 C 0.61246 0.06571 0.88615 0.0
C2560 C 0.60948 0.05883 0.90141 0.0
C2561 C 0.59453 0.04988 0.90479 0.0
H2562 H 0.62404 0.07263 0.88355 0.0
H2563 H 0.4787 0.98661 0.91688 0.0
H2564 H 0.30323 0.25914 0.33966 0.0
H2565 H 0.30234 0.24095 0.36366 0.0
H2566 H 0.29796 0.28098 0.39147 0.0
H2567 H 0.29921 0.29934 0.36751 0.0
H2568 H 0.31977 0.26167 0.40482 0.0
H2569 H 0.26521 0.25459 0.38364 0.0
H2570 H 0.24388 0.24896 0.36316 0.0
H2571 H 0.25828 0.20182 0.35987 0.0
H2572 H 0.27985 0.20725 0.38018 0.0
H2573 H 0.29578 0.21606 0.47577 0.0
H2574 H 0.29727 0.23447 0.45199 0.0
H2575 H 0.29834 0.19422 0.42356 0.0
H2576 H 0.29609 0.17563 0.44723 0.0
H2577 H 0.27827 0.21381 0.41048 0.0
H2578 H 0.33281 0.22063 0.43144 0.0
H2579 H 0.35441 0.2261 0.45169 0.0
H2580 H 0.34053 0.27342 0.45517 0.0
H2581 H 0.31869 0.26815 0.43508 0.0
C2582 C 0.3022 0.26411 0.35089 0.0
C2583 C 0.30127 0.2807 0.35166 0.0
C2584 C 0.30156 0.25366 0.36459 0.0
C2585 C 0.29992 0.25957 0.37936 0.0
C2586 C 0.29917 0.27615 0.3802 0.0
C2587 C 0.29976 0.2866 0.36649 0.0
C2588 C 0.29901 0.24843 0.39391 0.0
C2589 C 0.31057 0.25132 0.40616 0.0
C2590 C 0.28725 0.23471 0.3955 0.0
C2591 C 0.27425 0.23139 0.38332 0.0
C2592 C 0.26391 0.24307 0.37846 0.0
C2593 C 0.25176 0.23991 0.36689 0.0
C2594 C 0.24975 0.22506 0.36019 0.0
C2595 C 0.25986 0.21333 0.36506 0.0
C2596 C 0.27204 0.21643 0.37661 0.0
C2597 C 0.29621 0.21107 0.46446 0.0
C2598 C 0.29582 0.19431 0.46347 0.0
C2599 C 0.29725 0.22166 0.45086 0.0
C2600 C 0.29813 0.21578 0.43596 0.0
C2601 C 0.29775 0.19907 0.43492 0.0
C2602 C 0.29663 0.18846 0.44851 0.0
C2603 C 0.29907 0.22699 0.42143 0.0
C2604 C 0.2875 0.22414 0.40917 0.0
C2605 C 0.31086 0.24071 0.41981 0.0
C2606 C 0.32401 0.24393 0.43186 0.0
C2607 C 0.33428 0.23216 0.43661 0.0
C2608 C 0.34658 0.23523 0.44804 0.0
C2609 C 0.34881 0.25008 0.45474 0.0
C2610 C 0.33877 0.26191 0.44998 0.0
C2611 C 0.32644 0.25889 0.43856 0.0
H2612 H 0.35835 0.25244 0.46359 0.0
H2613 H 0.24034 0.22264 0.35124 0.0
H2614 H 0.53952 0.4989 0.93132 0.0
H2615 H 0.52393 0.50141 0.90631 0.0
H2616 H 0.47996 0.48355 0.93049 0.0
H2617 H 0.49558 0.48068 0.95536 0.0
H2618 H 0.48004 0.47051 0.90308 0.0
H2619 H 0.49051 0.52424 0.92049 0.0
H2620 H 0.50752 0.54837 0.92923 0.0
H2621 H 0.5325 0.55367 0.88561 0.0
H2622 H 0.51577 0.52944 0.87669 0.0
H2623 H 0.42138 0.49855 0.84831 0.0
H2624 H 0.43901 0.49401 0.87152 0.0
H2625 H 0.48103 0.51011 0.8438 0.0
H2626 H 0.46342 0.51505 0.82059 0.0
H2627 H 0.48308 0.5235 0.87197 0.0
H2628 H 0.47124 0.47043 0.85404 0.0
H2629 H 0.45373 0.44658 0.84538 0.0
H2630 H 0.43083 0.44025 0.89014 0.0
H2631 H 0.44805 0.46421 0.89898 0.0
C2632 C 0.52655 0.49538 0.93119 0.0
C2633 C 0.51875 0.48954 0.9452 0.0
C2634 C 0.51764 0.49691 0.91696 0.0
C2635 C 0.50072 0.49286 0.91654 0.0
C2636 C 0.49298 0.48674 0.9305 0.0
C2637 C 0.5019 0.48513 0.94471 0.0
C2638 C 0.49101 0.49526 0.90166 0.0
C2639 C 0.48059 0.48214 0.89637 0.0
C2640 C 0.49198 0.51034 0.89267 0.0
C2641 C 0.50201 0.52493 0.898 0.0
C2642 C 0.49972 0.53048 0.91281 0.0
C2643 C 0.50929 0.54419 0.91779 0.0
C2644 C 0.52111 0.55252 0.908 0.0
C2645 C 0.52336 0.54719 0.89319 0.0
C2646 C 0.51383 0.53348 0.88816 0.0
C2647 C 0.43437 0.50122 0.84717 0.0
C2648 C 0.44099 0.50716 0.83259 0.0
C2649 C 0.44444 0.49847 0.86041 0.0
C2650 C 0.46135 0.50155 0.85936 0.0
C2651 C 0.46801 0.50758 0.84486 0.0
C2652 C 0.45794 0.51028 0.83159 0.0
C2653 C 0.47203 0.49879 0.87349 0.0
C2654 C 0.48262 0.51184 0.87863 0.0
C2655 C 0.47117 0.48367 0.88237 0.0
C2656 C 0.46085 0.4692 0.87712 0.0
C2657 C 0.46239 0.46403 0.86199 0.0
C2658 C 0.45253 0.45048 0.85706 0.0
C2659 C 0.44115 0.44193 0.86719 0.0
C2660 C 0.43964 0.44689 0.88229 0.0
C2661 C 0.44946 0.46045 0.88728 0.0
H2662 H 0.43353 0.43144 0.86335 0.0
H2663 H 0.52851 0.56313 0.91188 0.0
H2664 H 0.72508 0.78217 0.17181 0.0
H2665 H 0.73527 0.76448 0.15396 0.0
H2666 H 0.73148 0.7255 0.1905 0.0
H2667 H 0.72123 0.74324 0.20844 0.0
H2668 H 0.76019 0.72774 0.17412 0.0
H2669 H 0.70312 0.72575 0.16225 0.0
H2670 H 0.67755 0.73717 0.15549 0.0
H2671 H 0.69748 0.75994 0.11238 0.0
H2672 H 0.72326 0.74885 0.11899 0.0
H2673 H 0.76782 0.66586 0.12279 0.0
H2674 H 0.75876 0.68232 0.14237 0.0
H2675 H 0.75558 0.72147 0.1066 0.0
H2676 H 0.76374 0.70482 0.08682 0.0
H2677 H 0.73001 0.71823 0.12358 0.0
H2678 H 0.78722 0.7211 0.13539 0.0
H2679 H 0.81312 0.71028 0.14204 0.0
H2680 H 0.79354 0.68654 0.18491 0.0
H2681 H 0.76743 0.69705 0.17841 0.0
C2682 C 0.7266 0.76989 0.17609 0.0
C2683 C 0.72259 0.76413 0.19158 0.0
C2684 C 0.73234 0.75977 0.16587 0.0
C2685 C 0.73404 0.74364 0.17087 0.0
C2686 C 0.73032 0.73792 0.18642 0.0
C2687 C 0.72448 0.74804 0.19665 0.0
C2688 C 0.73927 0.73268 0.15967 0.0
C2689 C 0.75349 0.72546 0.16316 0.0
C2690 C 0.7307 0.72997 0.14523 0.0
C2691 C 0.71517 0.73659 0.14119 0.0
C2692 C 0.7021 0.7333 0.15138 0.0
C2693 C 0.68756 0.73969 0.14757 0.0
C2694 C 0.6859 0.74931 0.13353 0.0
C2695 C 0.69878 0.75251 0.12326 0.0
C2696 C 0.71335 0.74616 0.12702 0.0
C2697 C 0.76508 0.67792 0.11904 0.0
C2698 C 0.76659 0.68398 0.10317 0.0
C2699 C 0.76008 0.68741 0.13032 0.0
C2700 C 0.75668 0.70326 0.12604 0.0
C2701 C 0.75819 0.70932 0.11023 0.0
C2702 C 0.76305 0.69981 0.09894 0.0
C2703 C 0.75111 0.71342 0.13787 0.0
C2704 C 0.73676 0.72046 0.13452 0.0
C2705 C 0.75963 0.71603 0.15239 0.0
C2706 C 0.77532 0.70972 0.15633 0.0
C2707 C 0.78839 0.71347 0.14618 0.0
C2708 C 0.80312 0.70741 0.14993 0.0
C2709 C 0.80496 0.69769 0.16387 0.0
C2710 C 0.79209 0.69405 0.17411 0.0
C2711 C 0.77733 0.70006 0.1704 0.0
H2712 H 0.81637 0.69302 0.16675 0.0
H2713 H 0.67464 0.75425 0.1306 0.0
H2714 H 0.04029 0.03837 0.0991 0.0
H2715 H 0.02243 0.03472 0.1216 0.0
H2716 H 0.98267 0.04771 0.09104 0.0
H2717 H 1.00045 0.0514 0.06855 0.0
H2718 H 0.98401 0.0633 0.11703 0.0
H2719 H 0.98529 0.00831 0.10538 0.0
H2720 H 0.99811 0.98418 0.10058 0.0
H2721 H 0.02039 0.9841 0.147 0.0
H2722 H 0.00787 0.00838 0.152 0.0
H2723 H 0.9201 0.03922 0.16971 0.0
H2724 H 0.93805 0.04135 0.14741 0.0
H2725 H 0.97747 0.02939 0.17892 0.0
H2726 H 0.95945 0.0267 0.20122 0.0
H2727 H 0.97657 0.01326 0.15272 0.0
H2728 H 0.97513 0.06826 0.16431 0.0
H2729 H 0.96219 0.09234 0.16904 0.0
H2730 H 0.94006 0.09231 0.12256 0.0
H2731 H 0.9527 0.06808 0.11763 0.0
C2732 C 0.0277 0.04024 0.09715 0.0
C2733 C 0.02181 0.04522 0.08204 0.0
C2734 C 0.01749 0.03817 0.11002 0.0
C2735 C 1.00116 0.04085 0.10801 0.0
C2736 C 0.99524 0.04564 0.09291 0.0
C2737 C 0.00543 0.04777 0.08006 0.0
C2738 C 0.99032 0.03912 0.12169 0.0
C2739 C 0.98221 0.05227 0.1247 0.0
C2740 C 0.98827 0.02488 0.13196 0.0
C2741 C 0.99577 0.01026 0.129 0.0
C2742 C 0.99303 0.00323 0.11452 0.0
C2743 C 1.00022 0.98951 0.11177 0.0
C2744 C 0.0101 0.98264 0.12346 0.0
C2745 C 0.01276 0.98945 0.13794 0.0
C2746 C 0.00561 0.00318 0.14075 0.0
C2747 C 0.93255 0.03692 0.1719 0.0
C2748 C 0.93833 0.03285 0.18729 0.0
C2749 C 0.94285 0.03828 0.15914 0.0
C2750 C 0.95917 0.03572 0.1615 0.0
C2751 C 0.96494 0.03149 0.17681 0.0
C2752 C 0.95466 0.03011 0.18958 0.0
C2753 C 0.97021 0.03741 0.14799 0.0
C2754 C 0.97837 0.02428 0.14504 0.0
C2755 C 0.9723 0.05165 0.13775 0.0
C2756 C 0.96474 0.06626 0.14066 0.0
C2757 C 0.9674 0.07331 0.15514 0.0
C2758 C 0.96014 0.087 0.15785 0.0
C2759 C 0.95028 0.09382 0.14612 0.0
C2760 C 0.94769 0.087 0.13164 0.0
C2761 C 0.95491 0.07329 0.12888 0.0
H2762 H 0.94466 0.10442 0.14824 0.0
H2763 H 0.01565 0.97201 0.12131 0.0
H2764 H 0.26061 0.75412 0.19293 0.0
H2765 H 0.25729 0.76914 0.16733 0.0
H2766 H 0.30795 0.788 0.16914 0.0
H2767 H 0.31116 0.77322 0.19498 0.0
H2768 H 0.29006 0.81144 0.16046 0.0
H2769 H 0.29302 0.75836 0.14449 0.0
H2770 H 0.28573 0.7289 0.14431 0.0
H2771 H 0.2371 0.73597 0.12909 0.0
H2772 H 0.24404 0.76548 0.12938 0.0
H2773 H 0.29326 0.84455 0.08104 0.0
H2774 H 0.29764 0.82793 0.10542 0.0
H2775 H 0.24668 0.81045 0.1059 0.0
H2776 H 0.24215 0.82717 0.08157 0.0
H2777 H 0.2653 0.78612 0.11307 0.0
H2778 H 0.26237 0.83921 0.12976 0.0
H2779 H 0.26986 0.86865 0.12979 0.0
H2780 H 0.31882 0.86138 0.14356 0.0
H2781 H 0.31167 0.83188 0.14339 0.0
C2782 C 0.27102 0.76144 0.18781 0.0
C2783 C 0.28612 0.76264 0.19592 0.0
C2784 C 0.26915 0.76994 0.17315 0.0
C2785 C 0.28241 0.77961 0.16621 0.0
C2786 C 0.29755 0.78064 0.17425 0.0
C2787 C 0.2994 0.77219 0.18895 0.0
C2788 C 0.28033 0.78908 0.15086 0.0
C2789 C 0.28489 0.80584 0.15004 0.0
C2790 C 0.27323 0.78187 0.13733 0.0
C2791 C 0.26902 0.76413 0.13711 0.0
C2792 C 0.28074 0.75363 0.14123 0.0
C2793 C 0.27667 0.73692 0.14108 0.0
C2794 C 0.26095 0.73057 0.13673 0.0
C2795 C 0.24927 0.74091 0.13247 0.0
C2796 C 0.25327 0.75763 0.13261 0.0
C2797 C 0.28295 0.83728 0.08638 0.0
C2798 C 0.26732 0.8373 0.07938 0.0
C2799 C 0.28549 0.82774 0.10031 0.0
C2800 C 0.27246 0.81808 0.10759 0.0
C2801 C 0.25691 0.8178 0.10048 0.0
C2802 C 0.25436 0.82734 0.08654 0.0
C2803 C 0.27502 0.80843 0.12272 0.0
C2804 C 0.27053 0.79166 0.1235 0.0
C2805 C 0.28222 0.81562 0.13621 0.0
C2806 C 0.28652 0.83335 0.13641 0.0
C2807 C 0.27476 0.84389 0.13267 0.0
C2808 C 0.27894 0.86059 0.13274 0.0
C2809 C 0.29481 0.86688 0.13664 0.0
C2810 C 0.30653 0.85649 0.14052 0.0
C2811 C 0.30242 0.83978 0.14046 0.0
H2812 H 0.29802 0.87982 0.13668 0.0
H2813 H 0.25783 0.71763 0.13662 0.0
H2814 H 0.9767 0.47328 0.11937 0.0
H2815 H 0.99507 0.47451 0.14255 0.0
H2816 H 0.03574 0.4735 0.11291 0.0
H2817 H 0.01736 0.47198 0.08974 0.0
H2818 H 0.03904 0.45451 0.13847 0.0
H2819 H 0.02684 0.50891 0.12809 0.0
H2820 H 0.00929 0.53061 0.12332 0.0
H2821 H 0.98882 0.51838 0.16885 0.0
H2822 H 0.00609 0.49644 0.1738 0.0
H2823 H 0.10134 0.48272 0.19316 0.0
H2824 H 0.08241 0.48031 0.17043 0.0
H2825 H 0.04211 0.47551 0.20146 0.0
H2826 H 0.06099 0.47808 0.22424 0.0
H2827 H 0.0385 0.49723 0.17557 0.0
H2828 H 0.05171 0.44297 0.18578 0.0
H2829 H 0.07001 0.42188 0.19019 0.0
H2830 H 0.08958 0.43485 0.14438 0.0
H2831 H 0.07156 0.45618 0.13978 0.0
C2832 C 0.98957 0.47341 0.11779 0.0
C2833 C 0.99559 0.4726 0.10271 0.0
C2834 C 1.00008 0.47414 0.13105 0.0
C2835 C 0.01686 0.47435 0.12949 0.0
C2836 C 0.02286 0.47335 0.11445 0.0
C2837 C 0.01234 0.47247 0.10121 0.0
C2838 C 0.02815 0.47553 0.14352 0.0
C2839 C 0.03905 0.46399 0.14645 0.0
C2840 C 0.02801 0.4877 0.15416 0.0
C2841 C 0.01765 0.50092 0.15125 0.0
C2842 C 0.01851 0.51076 0.13703 0.0
C2843 C 0.00863 0.52312 0.1343 0.0
C2844 C 0.99792 0.52584 0.14575 0.0
C2845 C 0.9971 0.51624 0.15998 0.0
C2846 C 0.00695 0.50385 0.16276 0.0
C2847 C 0.08844 0.48119 0.19514 0.0
C2848 C 0.08266 0.48057 0.21051 0.0
C2849 C 0.07764 0.4797 0.18215 0.0
C2850 C 0.06084 0.47762 0.18426 0.0
C2851 C 0.05502 0.47707 0.19957 0.0
C2852 C 0.06582 0.47842 0.21258 0.0
C2853 C 0.04935 0.47624 0.17045 0.0
C2854 C 0.03844 0.48775 0.16758 0.0
C2855 C 0.04959 0.46415 0.15979 0.0
C2856 C 0.06039 0.45128 0.1625 0.0
C2857 C 0.06001 0.44142 0.1767 0.0
C2858 C 0.07032 0.4294 0.17922 0.0
C2859 C 0.08098 0.42705 0.16759 0.0
C2860 C 0.08133 0.43669 0.15339 0.0
C2861 C 0.07106 0.44874 0.15081 0.0
H2862 H 0.08895 0.41774 0.16956 0.0
H2863 H 0.99028 0.53542 0.14362 0.0
H2864 H 0.32771 0.75309 0.25787 0.0
H2865 H 0.35071 0.7591 0.27614 0.0
H2866 H 0.35862 0.70895 0.27998 0.0
H2867 H 0.33583 0.70286 0.2615 0.0
H2868 H 0.35968 0.72142 0.30881 0.0
H2869 H 0.38309 0.73621 0.25816 0.0
H2870 H 0.38508 0.75047 0.23168 0.0
H2871 H 0.39005 0.79613 0.25217 0.0
H2872 H 0.38786 0.78214 0.27879 0.0
H2873 H 0.43769 0.72825 0.34594 0.0
H2874 H 0.41447 0.723 0.32779 0.0
H2875 H 0.40991 0.77397 0.32215 0.0
H2876 H 0.43325 0.77931 0.34024 0.0
H2877 H 0.40674 0.76158 0.29441 0.0
H2878 H 0.38369 0.7473 0.34493 0.0
H2879 H 0.38134 0.73343 0.37156 0.0
H2880 H 0.37514 0.68742 0.35168 0.0
H2881 H 0.37768 0.70101 0.32493 0.0
C2882 C 0.33445 0.74336 0.26243 0.0
C2883 C 0.3299 0.72749 0.25817 0.0
C2884 C 0.34757 0.74681 0.27293 0.0
C2885 C 0.35645 0.73449 0.27935 0.0
C2886 C 0.3519 0.71863 0.27521 0.0
C2887 C 0.33882 0.71517 0.26468 0.0
C2888 C 0.37041 0.73809 0.29048 0.0
C2889 C 0.37007 0.73005 0.3056 0.0
C2890 C 0.38375 0.74969 0.28644 0.0
C2891 C 0.38515 0.75812 0.27046 0.0
C2892 C 0.38448 0.74929 0.25702 0.0
C2893 C 0.38567 0.75732 0.24198 0.0
C2894 C 0.38765 0.77419 0.24024 0.0
C2895 C 0.38849 0.78306 0.25354 0.0
C2896 C 0.38729 0.77509 0.2686 0.0
C2897 C 0.43164 0.73833 0.34097 0.0
C2898 C 0.43727 0.75419 0.34461 0.0
C2899 C 0.41836 0.73531 0.33058 0.0
C2900 C 0.41028 0.74806 0.32375 0.0
C2901 C 0.41594 0.76393 0.32726 0.0
C2902 C 0.4293 0.76697 0.33759 0.0
C2903 C 0.39607 0.74485 0.31276 0.0
C2904 C 0.39635 0.75297 0.29766 0.0
C2905 C 0.38261 0.73339 0.31685 0.0
C2906 C 0.38103 0.72517 0.33293 0.0
C2907 C 0.38195 0.73422 0.34624 0.0
C2908 C 0.38056 0.72641 0.36136 0.0
C2909 C 0.37813 0.70955 0.36332 0.0
C2910 C 0.37704 0.70047 0.35015 0.0
C2911 C 0.37844 0.70822 0.335 0.0
H2912 H 0.37706 0.70353 0.37503 0.0
H2913 H 0.38857 0.78039 0.22859 0.0
H2914 H 0.98361 0.45324 0.00825 0.0
H2915 H 0.98546 0.43071 0.99205 0.0
H2916 H 0.9933 0.39979 0.03404 0.0
H2917 H 0.99186 0.42253 0.05026 0.0
H2918 H 0.01396 0.39566 0.01261 0.0
H2919 H 0.95665 0.3965 0.0125 0.0
H2920 H 0.93098 0.40849 0.00913 0.0
H2921 H 0.94036 0.42114 0.96018 0.0
H2922 H 0.9662 0.40941 0.9633 0.0
H2923 H 0.00433 0.32291 0.97336 0.0
H2924 H 1.00037 0.34403 0.99058 0.0
H2925 H 0.99556 0.37751 0.9499 0.0
H2926 H 0.9991 0.35633 0.93256 0.0
H2927 H 0.97265 0.37947 0.97134 0.0
H2928 H 0.0305 0.37913 0.97205 0.0
H2929 H 0.05594 0.36676 0.9757 0.0
H2930 H 0.04501 0.35262 0.02408 0.0
H2931 H 0.01939 0.36472 0.02066 0.0
C2932 C 0.98552 0.44158 0.01402 0.0
C2933 C 0.98728 0.43952 0.03053 0.0
C2934 C 0.98653 0.42869 0.00476 0.0
C2935 C 0.98925 0.41343 0.01181 0.0
C2936 C 0.9911 0.4114 0.02832 0.0
C2937 C 0.99017 0.42433 0.03758 0.0
C2938 C 0.99077 0.39983 1.0019 0.0
C2939 C 0.00478 0.39196 0.00377 0.0
C2940 C 0.97899 0.39516 0.99011 0.0
C2941 C 0.96343 0.4022 0.98817 0.0
C2942 C 0.9533 0.40195 1.00104 0.0
C2943 C 0.93871 0.40868 0.99917 0.0
C2944 C 0.93406 0.41561 0.98446 0.0
C2945 C 0.94398 0.41578 0.97157 0.0
C2946 C 0.95859 0.40908 0.97338 0.0
C2947 C 1.0023 0.33473 0.96805 0.0
C2948 C 1.00207 0.33792 0.95155 0.0
C2949 C 1.00017 0.34683 0.97793 0.0
C2950 C 0.99783 0.36242 0.97155 0.0
C2951 C 0.9974 0.3656 0.9551 0.0
C2952 C 0.99956 0.35351 0.9452 0.0
C2953 C 0.99584 0.37541 0.98202 0.0
C2954 C 0.98176 0.38316 0.98024 0.0
C2955 C 0.00751 0.3799 0.99395 0.0
C2956 C 0.02295 0.37269 0.99605 0.0
C2957 C 0.03346 0.37327 0.98343 0.0
C2958 C 0.04792 0.36633 0.98547 0.0
C2959 C 0.05207 0.35887 1.0001 0.0
C2960 C 0.04178 0.35838 0.01275 0.0
C2961 C 0.02729 0.36529 0.01077 0.0
H2962 H 0.06327 0.3535 1.00166 0.0
H2963 H 0.92276 0.42081 0.98303 0.0
H2964 H 0.68656 0.81692 0.25519 0.0
H2965 H 0.66413 0.81399 0.27322 0.0
H2966 H 0.6693 0.76344 0.28281 0.0
H2967 H 0.69186 0.7663 0.26474 0.0
H2968 H 0.63759 0.76849 0.27903 0.0
H2969 H 0.68425 0.7907 0.3089 0.0
H2970 H 0.7083 0.8103 0.31356 0.0
H2971 H 0.67831 0.84872 0.31146 0.0
H2972 H 0.65409 0.82937 0.30658 0.0
H2973 H 0.59001 0.75518 0.347 0.0
H2974 H 0.61237 0.75749 0.3289 0.0
H2975 H 0.61 0.80874 0.32101 0.0
H2976 H 0.58772 0.80652 0.33928 0.0
H2977 H 0.64051 0.80313 0.32398 0.0
H2978 H 0.59408 0.78177 0.29381 0.0
H2979 H 0.56979 0.76286 0.28805 0.0
H2980 H 0.59884 0.72371 0.28974 0.0
H2981 H 0.62328 0.74235 0.29573 0.0
C2982 C 0.683 0.80519 0.26119 0.0
C2983 C 0.69114 0.79188 0.25866 0.0
C2984 C 0.67014 0.80353 0.27148 0.0
C2985 C 0.6652 0.78856 0.27958 0.0
C2986 C 0.67295 0.77512 0.27673 0.0
C2987 C 0.68581 0.77676 0.26637 0.0
C2988 C 0.65211 0.78704 0.29118 0.0
C2989 C 0.63832 0.77589 0.289 0.0
C2990 C 0.65288 0.797 0.30396 0.0
C2991 C 0.66738 0.8086 0.30725 0.0
C2992 C 0.68279 0.80334 0.30936 0.0
C2993 C 0.69645 0.8144 0.31204 0.0
C2994 C 0.69484 0.83075 0.31276 0.0
C2995 C 0.67954 0.83605 0.31088 0.0
C2996 C 0.66584 0.82504 0.30817 0.0
C2997 C 0.5942 0.76693 0.34135 0.0
C2998 C 0.58701 0.78065 0.3445 0.0
C2999 C 0.60699 0.76824 0.33099 0.0
C3000 C 0.61272 0.78325 0.32335 0.0
C3001 C 0.60579 0.79702 0.32672 0.0
C3002 C 0.59307 0.79575 0.3372 0.0
C3003 C 0.62593 0.78457 0.31185 0.0
C3004 C 0.63976 0.79569 0.31405 0.0
C3005 C 0.62515 0.77466 0.29902 0.0
C3006 C 0.61048 0.76343 0.29537 0.0
C3007 C 0.59527 0.7691 0.29307 0.0
C3008 C 0.58148 0.75844 0.28975 0.0
C3009 C 0.58277 0.74209 0.28857 0.0
C3010 C 0.59786 0.73637 0.29068 0.0
C3011 C 0.61168 0.74698 0.29402 0.0
H3012 H 0.57208 0.73385 0.286 0.0
H3013 H 0.70543 0.8393 0.31481 0.0
H3014 H 0.04036 0.09595 0.05244 0.0
H3015 H 0.03709 0.11969 0.03447 0.0
H3016 H 0.0381 0.09104 0.99465 0.0
H3017 H 0.04156 0.06723 0.01264 0.0
H3018 H 0.05521 0.11976 0.98893 0.0
H3019 H 1.00225 0.10106 0.00751 0.0
H3020 H 0.9816 0.0922 0.02737 0.0
H3021 H 0.99023 0.13844 0.04671 0.0
H3022 H 0.01112 0.1475 0.02711 0.0
H3023 H 0.02201 0.17637 0.93327 0.0
H3024 H 0.026 0.15209 0.95033 0.0
H3025 H 0.02888 0.17981 0.99115 0.0
H3026 H 0.02462 0.20407 0.97421 0.0
H3027 H 0.00934 0.15106 0.99566 0.0
H3028 H 0.06275 0.16935 0.97674 0.0
H3029 H 0.083 0.17783 0.95642 0.0
H3030 H 0.07269 0.13176 0.93695 0.0
H3031 H 0.0522 0.12309 0.95704 0.0
C3032 C 0.03984 0.0947 0.03986 0.0
C3033 C 0.04107 0.07969 0.03396 0.0
C3034 C 0.03796 0.10827 0.02959 0.0
C3035 C 0.03704 0.1071 0.0132 0.0
C3036 C 0.03873 0.09223 0.00725 0.0
C3037 C 0.04074 0.07865 0.01753 0.0
C3038 C 0.03412 0.12136 0.00232 0.0
C3039 C 0.04504 0.12646 0.99027 0.0
C3040 C 0.02099 0.13028 0.00418 0.0
C3041 C 0.00836 0.12491 0.01593 0.0
C3042 C 0.99983 0.1093 0.01607 0.0
C3043 C 0.98807 0.10424 0.02727 0.0
C3044 C 0.98463 0.11473 0.03831 0.0
C3045 C 0.99292 0.13032 0.03816 0.0
C3046 C 0.00471 0.13543 0.027 0.0
C3047 C 0.02339 0.17727 0.94589 0.0
C3048 C 0.02303 0.19216 0.95239 0.0
C3049 C 0.0258 0.16342 0.95561 0.0
C3050 C 0.02789 0.16417 0.972 0.0
C3051 C 0.02735 0.17897 0.97853 0.0
C3052 C 0.02503 0.19284 0.96882 0.0
C3053 C 0.0305 0.14952 0.98238 0.0
C3054 C 0.01949 0.14433 0.99432 0.0
C3055 C 0.04346 0.14047 0.98033 0.0
C3056 C 0.05582 0.14563 0.96829 0.0
C3057 C 0.0647 0.16108 0.96805 0.0
C3058 C 0.07624 0.16591 0.95659 0.0
C3059 C 0.0791 0.15536 0.94538 0.0
C3060 C 0.07045 0.13993 0.94563 0.0
C3061 C 0.05888 0.13505 0.95706 0.0
H3062 H 0.08804 0.15912 0.93651 0.0
H3063 H 0.97552 0.1108 0.04698 0.0
H3064 H 0.34973 0.2802 0.2983 0.0
H3065 H 0.37273 0.27687 0.28217 0.0
H3066 H 0.34551 0.29094 0.24016 0.0
H3067 H 0.32254 0.2942 0.25624 0.0
H3068 H 0.35936 0.26394 0.23675 0.0
H3069 H 0.37649 0.31655 0.25472 0.0
H3070 H 0.38297 0.33656 0.27448 0.0
H3071 H 0.41978 0.30927 0.29562 0.0
H3072 H 0.41336 0.28896 0.27611 0.0
H3073 H 0.42214 0.27358 0.18199 0.0
H3074 H 0.40041 0.27821 0.19889 0.0
H3075 H 0.42956 0.26589 0.24014 0.0
H3076 H 0.45164 0.26188 0.22333 0.0
H3077 H 0.41499 0.29174 0.24443 0.0
H3078 H 0.39816 0.2392 0.22685 0.0
H3079 H 0.39177 0.21881 0.20744 0.0
H3080 H 0.35447 0.24534 0.18612 0.0
H3081 H 0.36078 0.26602 0.20528 0.0
C3082 C 0.3488 0.28278 0.28564 0.0
C3083 C 0.33447 0.28763 0.27852 0.0
C3084 C 0.36192 0.28089 0.27644 0.0
C3085 C 0.3609 0.28378 0.25995 0.0
C3086 C 0.34658 0.28867 0.25285 0.0
C3087 C 0.33351 0.2906 0.26205 0.0
C3088 C 0.37451 0.28116 0.25001 0.0
C3089 C 0.37147 0.2702 0.23829 0.0
C3090 C 0.39044 0.28894 0.25232 0.0
C3091 C 0.39433 0.30115 0.26405 0.0
C3092 C 0.38587 0.31474 0.26366 0.0
C3093 C 0.38955 0.32615 0.2748 0.0
C3094 C 0.40175 0.32417 0.28632 0.0
C3095 C 0.41032 0.31078 0.2867 0.0
C3096 C 0.40667 0.29932 0.2756 0.0
C3097 C 0.42402 0.27199 0.19466 0.0
C3098 C 0.43866 0.2673 0.20127 0.0
C3099 C 0.41149 0.27448 0.20432 0.0
C3100 C 0.41324 0.2722 0.22081 0.0
C3101 C 0.42789 0.26767 0.22746 0.0
C3102 C 0.44045 0.26521 0.2178 0.0
C3103 C 0.39981 0.2746 0.23109 0.0
C3104 C 0.40288 0.28548 0.24289 0.0
C3105 C 0.38391 0.26668 0.22892 0.0
C3106 C 0.38005 0.25424 0.21741 0.0
C3107 C 0.38868 0.24076 0.21795 0.0
C3108 C 0.38506 0.22913 0.20701 0.0
C3109 C 0.37275 0.2308 0.19553 0.0
C3110 C 0.36401 0.24408 0.19501 0.0
C3111 C 0.36759 0.25575 0.20591 0.0
H3112 H 0.36997 0.22179 0.18707 0.0
H3113 H 0.40459 0.33302 0.29493 0.0
H3114 H 0.55735 0.45761 0.02816 0.0
H3115 H 0.55135 0.43365 0.04632 0.0
H3116 H 0.54119 0.4043 0.00683 0.0
H3117 H 0.54693 0.42834 0.9886 0.0
H3118 H 0.51948 0.39553 0.02853 0.0
H3119 H 0.57742 0.40508 0.02867 0.0
H3120 H 0.60424 0.42104 0.03116 0.0
H3121 H 0.59519 0.42849 0.07919 0.0
H3122 H 0.56821 0.41276 0.07691 0.0
H3123 H 0.52431 0.31967 0.07186 0.0
H3124 H 0.52961 0.3436 0.05347 0.0
H3125 H 0.53539 0.37388 0.0925 0.0
H3126 H 0.53035 0.34996 0.11099 0.0
H3127 H 0.55937 0.3819 0.07094 0.0
H3128 H 0.50118 0.37194 0.07037 0.0
H3129 H 0.47463 0.35557 0.0675 0.0
H3130 H 0.48473 0.34822 0.0197 0.0
H3131 H 0.51145 0.36436 0.02237 0.0
C3132 C 0.5539 0.44603 0.02336 0.0
C3133 C 0.55272 0.44483 0.00696 0.0
C3134 C 0.55049 0.43234 0.03374 0.0
C3135 C 0.54609 0.41709 0.02796 0.0
C3136 C 0.54459 0.41591 0.01158 0.0
C3137 C 0.54785 0.42965 1.00117 0.0
C3138 C 0.54309 0.40241 0.039 0.0
C3139 C 0.52831 0.39244 0.03766 0.0
C3140 C 0.55446 0.3985 0.05112 0.0
C3141 C 0.57073 0.40787 0.05257 0.0
C3142 C 0.5811 0.41022 0.03973 0.0
C3143 C 0.59634 0.41921 0.04111 0.0
C3144 C 0.6014 0.42581 0.05531 0.0
C3145 C 0.59125 0.42339 0.06818 0.0
C3146 C 0.57598 0.41443 0.06686 0.0
C3147 C 0.52681 0.33141 0.07654 0.0
C3148 C 0.52689 0.33292 0.09289 0.0
C3149 C 0.52971 0.34509 0.06601 0.0
C3150 C 0.53275 0.36054 0.07161 0.0
C3151 C 0.53302 0.36207 0.08793 0.0
C3152 C 0.53002 0.34841 0.09846 0.0
C3153 C 0.53578 0.37509 0.06047 0.0
C3154 C 0.55057 0.38501 0.06179 0.0
C3155 C 0.52448 0.37888 0.04827 0.0
C3156 C 0.50839 0.36922 0.04662 0.0
C3157 C 0.4978 0.36672 0.05929 0.0
C3158 C 0.48271 0.3575 0.05769 0.0
C3159 C 0.47802 0.35082 0.04344 0.0
C3160 C 0.48839 0.35338 0.03074 0.0
C3161 C 0.5035 0.36258 0.03229 0.0
H3162 H 0.46633 0.34369 0.04223 0.0
H3163 H 0.6132 0.43277 0.05636 0.0
H3164 H 0.70914 0.23095 0.26511 0.0
H3165 H 0.68552 0.2329 0.24734 0.0
H3166 H 0.65712 0.24133 0.28647 0.0
H3167 H 0.68046 0.23864 0.30443 0.0
H3168 H 0.64002 0.2211 0.26825 0.0
H3169 H 0.67245 0.27239 0.25966 0.0
H3170 H 0.69724 0.29078 0.25341 0.0
H3171 H 0.69771 0.27222 0.20785 0.0
H3172 H 0.67304 0.25356 0.21392 0.0
H3173 H 0.57464 0.25239 0.22494 0.0
H3174 H 0.59851 0.24948 0.24217 0.0
H3175 H 0.62477 0.23826 0.20262 0.0
H3176 H 0.60105 0.24155 0.18521 0.0
H3177 H 0.64304 0.25952 0.22062 0.0
H3178 H 0.61002 0.20857 0.22933 0.0
H3179 H 0.585 0.19062 0.23575 0.0
H3180 H 0.58543 0.20914 0.2814 0.0
H3181 H 0.61034 0.22737 0.27516 0.0
C3182 C 0.69782 0.23303 0.26998 0.0
C3183 C 0.69675 0.23471 0.28622 0.0
C3184 C 0.68436 0.23433 0.25976 0.0
C3185 C 0.66958 0.23752 0.26551 0.0
C3186 C 0.6684 0.23895 0.28173 0.0
C3187 C 0.68182 0.23757 0.29197 0.0
C3188 C 0.65532 0.23931 0.25466 0.0
C3189 C 0.64065 0.22965 0.25795 0.0
C3190 C 0.65618 0.25021 0.241 0.0
C3191 C 0.67099 0.26146 0.23731 0.0
C3192 C 0.67791 0.27214 0.24835 0.0
C3193 C 0.69193 0.28263 0.24484 0.0
C3194 C 0.69907 0.28264 0.23026 0.0
C3195 C 0.69218 0.27219 0.21915 0.0
C3196 C 0.67817 0.26166 0.22261 0.0
C3197 C 0.58553 0.24943 0.21987 0.0
C3198 C 0.58592 0.24717 0.20369 0.0
C3199 C 0.59912 0.24763 0.22977 0.0
C3200 C 0.61338 0.24347 0.22372 0.0
C3201 C 0.61388 0.24141 0.20755 0.0
C3202 C 0.60027 0.24316 0.19765 0.0
C3203 C 0.62777 0.24136 0.23427 0.0
C3204 C 0.64245 0.25095 0.23091 0.0
C3205 C 0.6269 0.23046 0.24791 0.0
C3206 C 0.61196 0.21944 0.25172 0.0
C3207 C 0.60471 0.2089 0.24069 0.0
C3208 C 0.59056 0.19866 0.24431 0.0
C3209 C 0.58361 0.19877 0.25896 0.0
C3210 C 0.59082 0.20908 0.27005 0.0
C3211 C 0.60496 0.21936 0.26648 0.0
H3212 H 0.57265 0.19083 0.26174 0.0
H3213 H 0.70992 0.29077 0.22756 0.0
H3214 H 0.50714 0.08313 0.01699 0.0
H3215 H 0.51038 0.10462 0.03513 0.0
H3216 H 0.46125 0.11425 0.02418 0.0
H3217 H 0.45808 0.09311 0.00567 0.0
H3218 H 0.48142 0.14193 0.02507 0.0
H3219 H 0.47087 0.09289 0.05835 0.0
H3220 H 0.47525 0.06543 0.06905 0.0
H3221 H 0.52341 0.08303 0.08477 0.0
H3222 H 0.51939 0.11056 0.07397 0.0
H3223 H 0.47131 0.18855 0.08934 0.0
H3224 H 0.46861 0.16748 0.07076 0.0
H3225 H 0.5176 0.15786 0.0825 0.0
H3226 H 0.52042 0.17896 0.10104 0.0
H3227 H 0.49779 0.13024 0.08113 0.0
H3228 H 0.50838 0.17928 0.04809 0.0
H3229 H 0.50414 0.20676 0.03736 0.0
H3230 H 0.45615 0.18926 0.0211 0.0
H3231 H 0.46002 0.1617 0.03193 0.0
C3232 C 0.49707 0.08993 0.01831 0.0
C3233 C 0.48232 0.08633 0.00992 0.0
C3234 C 0.4989 0.10212 0.0288 0.0
C3235 C 0.48599 0.11092 0.03119 0.0
C3236 C 0.47136 0.10758 0.0226 0.0
C3237 C 0.46952 0.09539 0.01211 0.0
C3238 C 0.48768 0.12358 0.04267 0.0
C3239 C 0.4848 0.13933 0.03737 0.0
C3240 C 0.49246 0.12029 0.05865 0.0
C3241 C 0.49488 0.10375 0.06521 0.0
C3242 C 0.48244 0.09088 0.06398 0.0
C3243 C 0.48485 0.07531 0.07008 0.0
C3244 C 0.49962 0.07248 0.07755 0.0
C3245 C 0.51199 0.08523 0.07897 0.0
C3246 C 0.50965 0.10082 0.07287 0.0
C3247 C 0.48156 0.18203 0.08789 0.0
C3248 C 0.4961 0.18549 0.09667 0.0
C3249 C 0.47999 0.16997 0.07727 0.0
C3250 C 0.49297 0.16119 0.07508 0.0
C3251 C 0.50741 0.16445 0.08399 0.0
C3252 C 0.50898 0.17648 0.09464 0.0
C3253 C 0.4915 0.1486 0.06354 0.0
C3254 C 0.49443 0.13285 0.06882 0.0
C3255 C 0.48678 0.1519 0.04754 0.0
C3256 C 0.48444 0.16845 0.04097 0.0
C3257 C 0.49688 0.18131 0.04234 0.0
C3258 C 0.49455 0.1969 0.03622 0.0
C3259 C 0.47987 0.19976 0.02859 0.0
C3260 C 0.4675 0.18703 0.02703 0.0
C3261 C 0.46976 0.17142 0.03315 0.0
H3262 H 0.47809 0.21184 0.02386 0.0
H3263 H 0.50146 0.06041 0.08227 0.0
H3264 H 0.26173 0.31509 0.73957 0.0
H3265 H 0.2804 0.34 0.74118 0.0
H3266 H 0.23983 0.3672 0.7432 0.0
H3267 H 0.22112 0.34242 0.74133 0.0
H3268 H 0.26277 0.38222 0.72302 0.0
H3269 H 0.26109 0.35791 0.77622 0.0
H3270 H 0.26337 0.33602 0.79709 0.0
H3271 H 0.31322 0.33518 0.78632 0.0
H3272 H 0.31117 0.35694 0.76523 0.0
H3273 H 0.30417 0.45499 0.74882 0.0
H3274 H 0.286 0.42998 0.74666 0.0
H3275 H 0.32709 0.40297 0.7489 0.0
H3276 H 0.3453 0.42781 0.75187 0.0
H3277 H 0.30412 0.38757 0.76657 0.0
H3278 H 0.30625 0.41183 0.71364 0.0
H3279 H 0.30422 0.43344 0.69243 0.0
H3280 H 0.25405 0.43406 0.70206 0.0
H3281 H 0.25583 0.41259 0.72348 0.0
C3282 C 0.2568 0.3264 0.74023 0.0
C3283 C 0.23995 0.32678 0.74042 0.0
C3284 C 0.26747 0.3406 0.74126 0.0
C3285 C 0.2615 0.35543 0.74247 0.0
C3286 C 0.24469 0.35588 0.74233 0.0
C3287 C 0.23403 0.34169 0.74139 0.0
C3288 C 0.27275 0.37048 0.74398 0.0
C3289 C 0.27169 0.38348 0.73264 0.0
C3290 C 0.28464 0.37196 0.75632 0.0
C3291 C 0.28592 0.35894 0.76904 0.0
C3292 C 0.2725 0.35297 0.77822 0.0
C3293 C 0.27376 0.3406 0.7901 0.0
C3294 C 0.28842 0.33418 0.793 0.0
C3295 C 0.30187 0.34015 0.78405 0.0
C3296 C 0.30066 0.35251 0.77213 0.0
C3297 C 0.30936 0.44373 0.74904 0.0
C3298 C 0.32625 0.44348 0.75046 0.0
C3299 C 0.29895 0.42943 0.7476 0.0
C3300 C 0.30517 0.41459 0.74736 0.0
C3301 C 0.32199 0.41427 0.74897 0.0
C3302 C 0.33241 0.42853 0.7505 0.0
C3303 C 0.29416 0.39938 0.7456 0.0
C3304 C 0.29524 0.38634 0.7569 0.0
C3305 C 0.28234 0.39783 0.73317 0.0
C3306 C 0.28122 0.41071 0.72026 0.0
C3307 C 0.29481 0.41665 0.71131 0.0
C3308 C 0.2937 0.42886 0.69924 0.0
C3309 C 0.27903 0.43514 0.69592 0.0
C3310 C 0.26542 0.4292 0.70465 0.0
C3311 C 0.26647 0.417 0.71675 0.0
H3312 H 0.27819 0.4446 0.68657 0.0
H3313 H 0.28937 0.32461 0.80221 0.0
H3314 H 0.2473 0.68098 0.79723 0.0
H3315 H 0.26153 0.65778 0.79307 0.0
H3316 H 0.3044 0.69 0.78061 0.0
H3317 H 0.29028 0.71324 0.78495 0.0
H3318 H 0.29647 0.66657 0.75949 0.0
H3319 H 0.30332 0.66951 0.81568 0.0
H3320 H 0.29413 0.6704 0.84274 0.0
H3321 H 0.26591 0.62414 0.83966 0.0
H3322 H 0.27476 0.62308 0.81248 0.0
H3323 H 0.35495 0.61191 0.76117 0.0
H3324 H 0.33949 0.63391 0.766 0.0
H3325 H 0.29973 0.59934 0.78226 0.0
H3326 H 0.31537 0.57723 0.77801 0.0
H3327 H 0.30491 0.6233 0.80131 0.0
H3328 H 0.29812 0.61963 0.74574 0.0
H3329 H 0.30662 0.61841 0.71849 0.0
H3330 H 0.33359 0.66547 0.71995 0.0
H3331 H 0.32543 0.66688 0.7473 0.0
C3332 C 0.25985 0.68311 0.79389 0.0
C3333 C 0.26786 0.69894 0.79187 0.0
C3334 C 0.26794 0.66984 0.79146 0.0
C3335 C 0.28409 0.67215 0.7867 0.0
C3336 C 0.29198 0.68793 0.78438 0.0
C3337 C 0.28395 0.70118 0.78695 0.0
C3338 C 0.29269 0.65816 0.78379 0.0
C3339 C 0.29849 0.6572 0.76868 0.0
C3340 C 0.29488 0.64569 0.79565 0.0
C3341 C 0.28956 0.6463 0.81198 0.0
C3342 C 0.29503 0.6596 0.82072 0.0
C3343 C 0.28991 0.66012 0.83609 0.0
C3344 C 0.2794 0.64736 0.8429 0.0
C3345 C 0.27403 0.63403 0.83436 0.0
C3346 C 0.2791 0.63346 0.81898 0.0
C3347 C 0.34296 0.60895 0.76588 0.0
C3348 C 0.33642 0.59276 0.76917 0.0
C3349 C 0.33406 0.62157 0.76849 0.0
C3350 C 0.31834 0.6183 0.77431 0.0
C3351 C 0.3118 0.60217 0.7777 0.0
C3352 C 0.32071 0.58953 0.77512 0.0
C3353 C 0.30885 0.63175 0.77703 0.0
C3354 C 0.30285 0.63262 0.79209 0.0
C3355 C 0.30636 0.64409 0.76509 0.0
C3356 C 0.31129 0.6433 0.74863 0.0
C3357 C 0.30597 0.62967 0.7403 0.0
C3358 C 0.31071 0.62895 0.72482 0.0
C3359 C 0.32067 0.64184 0.71751 0.0
C3360 C 0.32589 0.65549 0.72564 0.0
C3361 C 0.3212 0.65626 0.74112 0.0
H3362 H 0.32432 0.64126 0.70552 0.0
H3363 H 0.27546 0.64778 0.85481 0.0
H3364 H 0.93268 0.55693 0.4891 0.0
H3365 H 0.90754 0.5384 0.48988 0.0
H3366 H 0.93501 0.49788 0.48999 0.0
H3367 H 0.96019 0.51641 0.48895 0.0
H3368 H 0.90951 0.49354 0.47085 0.0
H3369 H 0.91842 0.50845 0.52401 0.0
H3370 H 0.92357 0.52717 0.54509 0.0
H3371 H 0.87906 0.54673 0.53237 0.0
H3372 H 0.87376 0.52826 0.51106 0.0
H3373 H 0.84744 0.43215 0.49716 0.0
H3374 H 0.87224 0.45111 0.49519 0.0
H3375 H 0.84381 0.4911 0.49107 0.0
H3376 H 0.81894 0.4722 0.49334 0.0
H3377 H 0.8695 0.49582 0.51203 0.0
H3378 H 0.86064 0.48008 0.45902 0.0
H3379 H 0.85573 0.46081 0.4384 0.0
H3380 H 0.90056 0.44209 0.4516 0.0
H3381 H 0.90563 0.4611 0.47246 0.0
C3382 C 0.93335 0.54406 0.48936 0.0
C3383 C 0.94842 0.53812 0.48904 0.0
C3384 C 0.91898 0.53348 0.48983 0.0
C3385 C 0.91937 0.51671 0.49025 0.0
C3386 C 0.93439 0.51076 0.48968 0.0
C3387 C 0.94877 0.52136 0.48907 0.0
C3388 C 0.90413 0.50536 0.49126 0.0
C3389 C 0.90088 0.49392 0.47999 0.0
C3390 C 0.89266 0.50602 0.50298 0.0
C3391 C 0.89577 0.51708 0.51584 0.0
C3392 C 0.90979 0.51682 0.52564 0.0
C3393 C 0.91273 0.52738 0.53764 0.0
C3394 C 0.90167 0.53816 0.54004 0.0
C3395 C 0.88763 0.53838 0.53048 0.0
C3396 C 0.88464 0.52787 0.51844 0.0
C3397 C 0.84647 0.44498 0.4959 0.0
C3398 C 0.83121 0.45066 0.49539 0.0
C3399 C 0.86065 0.4558 0.49466 0.0
C3400 C 0.85988 0.47252 0.49285 0.0
C3401 C 0.84468 0.47824 0.49241 0.0
C3402 C 0.83048 0.46742 0.49358 0.0
C3403 C 0.87494 0.48403 0.49165 0.0
C3404 C 0.87815 0.49549 0.50289 0.0
C3405 C 0.88642 0.4833 0.47999 0.0
C3406 C 0.88343 0.47191 0.4674 0.0
C3407 C 0.86939 0.47176 0.45761 0.0
C3408 C 0.86659 0.4609 0.44586 0.0
C3409 C 0.87781 0.4502 0.44372 0.0
C3410 C 0.89187 0.45037 0.45329 0.0
C3411 C 0.89472 0.46119 0.46507 0.0
H3412 H 0.87562 0.4418 0.43462 0.0
H3413 H 0.90396 0.54633 0.54934 0.0
H3414 H 0.7989 0.84684 0.80844 0.0
H3415 H 0.78008 0.8672 0.80444 0.0
H3416 H 0.74104 0.83202 0.82118 0.0
H3417 H 0.75973 0.8115 0.82491 0.0
H3418 H 0.73192 0.84979 0.79476 0.0
H3419 H 0.75835 0.86023 0.84478 0.0
H3420 H 0.78175 0.86581 0.8631 0.0
H3421 H 0.79738 0.90956 0.83514 0.0
H3422 H 0.7742 0.90413 0.81652 0.0
H3423 H 0.67482 0.90414 0.80576 0.0
H3424 H 0.69342 0.88358 0.8096 0.0
H3425 H 0.73333 0.91934 0.79611 0.0
H3426 H 0.71481 0.93997 0.7924 0.0
H3427 H 0.74204 0.90113 0.82092 0.0
H3428 H 0.71604 0.89093 0.77081 0.0
H3429 H 0.69296 0.88551 0.7521 0.0
H3430 H 0.67689 0.84155 0.77955 0.0
H3431 H 0.69977 0.84683 0.79856 0.0
C3432 C 0.78628 0.8434 0.81116 0.0
C3433 C 0.78083 0.82754 0.81705 0.0
C3434 C 0.77556 0.85509 0.80898 0.0
C3435 C 0.75917 0.85119 0.81266 0.0
C3436 C 0.75364 0.83532 0.81832 0.0
C3437 C 0.76437 0.82364 0.82056 0.0
C3438 C 0.74778 0.86365 0.8106 0.0
C3439 C 0.73401 0.86092 0.80065 0.0
C3440 C 0.75071 0.87837 0.81796 0.0
C3441 C 0.76463 0.88169 0.82918 0.0
C3442 C 0.76685 0.87098 0.84247 0.0
C3443 C 0.78006 0.87412 0.85292 0.0
C3444 C 0.79107 0.88801 0.85027 0.0
C3445 C 0.78886 0.8988 0.83717 0.0
C3446 C 0.77568 0.8957 0.82668 0.0
C3447 C 0.68755 0.9076 0.8035 0.0
C3448 C 0.69332 0.9237 0.79875 0.0
C3449 C 0.69818 0.89582 0.8057 0.0
C3450 C 0.71479 0.89983 0.80296 0.0
C3451 C 0.72059 0.91593 0.79833 0.0
C3452 C 0.70999 0.92773 0.79624 0.0
C3453 C 0.72614 0.8873 0.80505 0.0
C3454 C 0.73992 0.89001 0.81502 0.0
C3455 C 0.72326 0.8726 0.79763 0.0
C3456 C 0.70953 0.86936 0.78619 0.0
C3457 C 0.70752 0.88017 0.77292 0.0
C3458 C 0.69448 0.87711 0.76225 0.0
C3459 C 0.68344 0.86321 0.76466 0.0
C3460 C 0.68544 0.85232 0.77772 0.0
C3461 C 0.69845 0.85533 0.78843 0.0
H3462 H 0.67336 0.86086 0.75638 0.0
H3463 H 0.80128 0.89042 0.85837 0.0
H3464 H 0.59618 0.4999 0.96717 0.0
H3465 H 0.62071 0.51812 0.97248 0.0
H3466 H 0.61202 0.51143 0.02234 0.0
H3467 H 0.58705 0.49383 0.01707 0.0
H3468 H 0.62162 0.54206 0.01445 0.0
H3469 H 0.64039 0.49183 0.00514 0.0
H3470 H 0.64296 0.46809 0.99045 0.0
H3471 H 0.66376 0.49905 0.95195 0.0
H3472 H 0.66111 0.52301 0.96633 0.0
H3473 H 0.70111 0.57046 0.0423 0.0
H3474 H 0.67588 0.55349 0.03639 0.0
H3475 H 0.68292 0.56449 0.98659 0.0
H3476 H 0.70796 0.58181 0.99236 0.0
H3477 H 0.67425 0.53198 0.99419 0.0
H3478 H 0.65579 0.58226 0.00435 0.0
H3479 H 0.65354 0.6056 0.01971 0.0
H3480 H 0.63251 0.57384 0.05756 0.0
H3481 H 0.63485 0.55028 0.04251 0.0
C3482 C 0.59935 0.50245 0.97926 0.0
C3483 C 0.58965 0.49529 0.9917 0.0
C3484 C 0.61351 0.51274 0.98229 0.0
C3485 C 0.61838 0.51595 0.99784 0.0
C3486 C 0.60857 0.50907 0.01025 0.0
C3487 C 0.59437 0.49887 0.00722 0.0
C3488 C 0.63371 0.52644 1.00121 0.0
C3489 C 0.63315 0.53972 0.01019 0.0
C3490 C 0.64874 0.5236 0.9954 0.0
C3491 C 0.6504 0.50922 0.98674 0.0
C3492 C 0.6454 0.49359 0.99349 0.0
C3493 C 0.64689 0.48009 0.98523 0.0
C3494 C 0.65348 0.48207 0.97026 0.0
C3495 C 0.65864 0.49754 0.96354 0.0
C3496 C 0.65715 0.51108 0.97174 0.0
C3497 C 0.69722 0.56946 0.03008 0.0
C3498 C 0.7066 0.57757 0.01782 0.0
C3499 C 0.68282 0.55968 0.02673 0.0
C3500 C 0.67747 0.55781 0.01105 0.0
C3501 C 0.68685 0.56573 0.99878 0.0
C3502 C 0.70121 0.57558 1.00211 0.0
C3503 C 0.66213 0.54753 0.00745 0.0
C3504 C 0.6627 0.5343 0.99843 0.0
C3505 C 0.64714 0.55033 0.01332 0.0
C3506 C 0.64564 0.56449 0.02236 0.0
C3507 C 0.6508 0.58024 0.016 0.0
C3508 C 0.64949 0.59351 0.02464 0.0
C3509 C 0.64292 0.5912 0.03962 0.0
C3510 C 0.63761 0.57561 0.04597 0.0
C3511 C 0.63892 0.56229 0.03738 0.0
H3512 H 0.64191 0.60149 0.0463 0.0
H3513 H 0.65463 0.4716 0.96388 0.0
H3514 H 0.27972 0.69219 0.26755 0.0
H3515 H 0.26184 0.66696 0.27227 0.0
H3516 H 0.26003 0.66017 0.2225 0.0
H3517 H 0.27807 0.68532 0.21768 0.0
H3518 H 0.23017 0.65376 0.23506 0.0
H3519 H 0.28346 0.63894 0.24754 0.0
H3520 H 0.31041 0.6411 0.26092 0.0
H3521 H 0.28822 0.63206 0.30595 0.0
H3522 H 0.26111 0.63008 0.29285 0.0
H3523 H 0.19676 0.57128 0.23984 0.0
H3524 H 0.2143 0.59671 0.2349 0.0
H3525 H 0.21815 0.60259 0.28487 0.0
H3526 H 0.20066 0.57713 0.28989 0.0
H3527 H 0.24699 0.60955 0.27212 0.0
H3528 H 0.1938 0.62441 0.25995 0.0
H3529 H 0.16672 0.62253 0.24684 0.0
H3530 H 0.18846 0.63176 0.2016 0.0
H3531 H 0.21569 0.63347 0.21444 0.0
C3532 C 0.27565 0.68527 0.25761 0.0
C3533 C 0.28043 0.69075 0.24224 0.0
C3534 C 0.26538 0.67086 0.26033 0.0
C3535 C 0.25974 0.66158 0.24776 0.0
C3536 C 0.26423 0.66714 0.23237 0.0
C3537 C 0.27451 0.68155 0.22964 0.0
C3538 C 0.24921 0.64602 0.25067 0.0
C3539 C 0.23392 0.644 0.243 0.0
C3540 C 0.25396 0.63344 0.26132 0.0
C3541 C 0.27025 0.63451 0.26922 0.0
C3542 C 0.28432 0.63753 0.2603 0.0
C3543 C 0.29963 0.6387 0.26784 0.0
C3544 C 0.30102 0.63676 0.28428 0.0
C3545 C 0.28711 0.63359 0.29322 0.0
C3546 C 0.27178 0.63242 0.28574 0.0
C3547 C 0.20123 0.57805 0.24977 0.0
C3548 C 0.19726 0.57219 0.26526 0.0
C3549 C 0.21127 0.59259 0.24693 0.0
C3550 C 0.2174 0.60169 0.2595 0.0
C3551 C 0.21358 0.59579 0.27498 0.0
C3552 C 0.20362 0.58121 0.27784 0.0
C3553 C 0.2279 0.61727 0.25653 0.0
C3554 C 0.24321 0.61929 0.26418 0.0
C3555 C 0.22314 0.62987 0.24591 0.0
C3556 C 0.20678 0.62891 0.23816 0.0
C3557 C 0.19281 0.62592 0.2472 0.0
C3558 C 0.17743 0.6249 0.23982 0.0
C3559 C 0.17587 0.62698 0.2234 0.0
C3560 C 0.18969 0.63013 0.21432 0.0
C3561 C 0.20509 0.63114 0.22165 0.0
H3562 H 0.16396 0.62619 0.2177 0.0
H3563 H 0.31288 0.63767 0.29009 0.0
H3564 H 0.9301 0.47483 0.06301 0.0
H3565 H 0.90933 0.49318 0.05908 0.0
H3566 H 0.94375 0.53237 0.07393 0.0
H3567 H 0.96454 0.51404 0.07798 0.0
H3568 H 0.9155 0.53319 0.0869 0.0
H3569 H 0.9328 0.52853 0.03461 0.0
H3570 H 0.93886 0.51424 0.01173 0.0
H3571 H 0.88922 0.49317 0.00842 0.0
H3572 H 0.88291 0.50717 0.03143 0.0
H3573 H 0.87061 0.59735 0.05793 0.0
H3574 H 0.89126 0.57894 0.0626 0.0
H3575 H 0.8564 0.53913 0.05003 0.0
H3576 H 0.83562 0.55739 0.04553 0.0
H3577 H 0.8849 0.53877 0.03589 0.0
H3578 H 0.86776 0.54376 0.08829 0.0
H3579 H 0.86193 0.55837 0.11104 0.0
H3580 H 0.91165 0.57929 0.11387 0.0
H3581 H 0.91773 0.56498 0.09099 0.0
C3582 C 0.93328 0.48738 0.06533 0.0
C3583 C 0.94901 0.49297 0.07076 0.0
C3584 C 0.92139 0.49788 0.06308 0.0
C3585 C 0.925 0.51425 0.06601 0.0
C3586 C 0.94064 0.51981 0.0716 0.0
C3587 C 0.95252 0.5093 0.07394 0.0
C3588 C 0.91247 0.52555 0.06328 0.0
C3589 C 0.90898 0.53457 0.07567 0.0
C3590 C 0.90368 0.52714 0.04873 0.0
C3591 C 0.90742 0.51878 0.03484 0.0
C3592 C 0.9232 0.52076 0.02908 0.0
C3593 C 0.92668 0.51272 0.01607 0.0
C3594 C 0.91444 0.50277 0.00865 0.0
C3595 C 0.89869 0.50087 0.01419 0.0
C3596 C 0.89515 0.50886 0.02721 0.0
C3597 C 0.86726 0.58465 0.05634 0.0
C3598 C 0.85141 0.57889 0.05135 0.0
C3599 C 0.87911 0.57413 0.05898 0.0
C3600 C 0.87537 0.55761 0.05677 0.0
C3601 C 0.85959 0.55183 0.05175 0.0
C3602 C 0.84773 0.56232 0.04913 0.0
C3603 C 0.88793 0.54638 0.05951 0.0
C3604 C 0.89144 0.53739 0.04711 0.0
C3605 C 0.89677 0.54486 0.07402 0.0
C3606 C 0.89316 0.55343 0.08783 0.0
C3607 C 0.87742 0.55158 0.09368 0.0
C3608 C 0.87408 0.55979 0.10662 0.0
C3609 C 0.8864 0.56979 0.11387 0.0
C3610 C 0.90211 0.57156 0.10823 0.0
C3611 C 0.90551 0.5634 0.09529 0.0
H3612 H 0.88379 0.57613 0.12389 0.0
H3613 H 0.91716 0.49656 0.99858 0.0
H3614 H 0.06575 0.98586 0.05053 0.0
H3615 H 0.08921 0.97188 0.04633 0.0
H3616 H 0.11372 0.01591 0.0242 0.0
H3617 H 0.09002 0.02982 0.02811 0.0
H3618 H 0.11682 0.99138 0.00732 0.0
H3619 H 0.1247 1.00114 0.06181 0.0
H3620 H 0.11726 1.00087 0.08959 0.0
H3621 H 0.10898 0.94905 0.09266 0.0
H3622 H 0.11617 0.94902 0.06482 0.0
H3623 H 0.19377 0.96228 0.00651 0.0
H3624 H 0.17178 0.97773 0.01201 0.0
H3625 H 0.14427 0.93421 0.03176 0.0
H3626 H 0.16636 0.91874 0.02662 0.0
H3627 H 0.14351 0.95933 0.05011 0.0
H3628 H 0.135 0.94997 0.99517 0.0
H3629 H 0.14275 0.95055 0.96746 0.0
H3630 H 0.15272 0.00225 0.96548 0.0
H3631 H 0.14524 0.00196 0.99327 0.0
C3632 C 0.0762 0.99257 0.04488 0.0
C3633 C 0.07615 0.00894 0.03971 0.0
C3634 C 0.08964 0.9846 0.04254 0.0
C3635 C 0.10336 0.99287 0.03511 0.0
C3636 C 0.10332 0.00927 0.02999 0.0
C3637 C 0.08985 0.01722 0.03228 0.0
C3638 C 0.11748 0.98427 0.03222 0.0
C3639 C 0.12282 0.9846 0.01674 0.0
C3640 C 0.12513 0.97512 0.04443 0.0
C3641 C 0.12083 0.97509 0.06118 0.0
C3642 C 0.12117 0.98969 0.06837 0.0
C3643 C 0.11702 0.98959 0.08413 0.0
C3644 C 0.11261 0.97496 0.09287 0.0
C3645 C 0.11238 0.96038 0.08587 0.0
C3646 C 0.11651 0.96041 0.0701 0.0
C3647 C 0.18309 0.95601 0.01212 0.0
C3648 C 0.18182 0.93925 0.01608 0.0
C3649 C 0.17047 0.96484 0.01515 0.0
C3650 C 0.1563 0.95711 0.02217 0.0
C3651 C 0.15507 0.94043 0.02629 0.0
C3652 C 0.16765 0.93158 0.02322 0.0
C3653 C 0.14276 0.9664 0.02523 0.0
C3654 C 0.13754 0.96619 0.04073 0.0
C3655 C 0.13526 0.97572 0.01307 0.0
C3656 C 0.13972 0.97592 0.99635 0.0
C3657 C 0.13897 0.96145 0.98887 0.0
C3658 C 0.1433 0.96173 0.97314 0.0
C3659 C 0.14827 0.97642 0.96473 0.0
C3660 C 0.14889 0.99087 0.97202 0.0
C3661 C 0.1446 0.99066 0.98775 0.0
H3662 H 0.15161 0.97661 0.95255 0.0
H3663 H 0.10941 0.97491 0.10507 0.0
loop_
_geom_bond_atom_site_label_1
_geom_bond_atom_site_label_2
_geom_bond_distance
_geom_bond_site_symmetry_2
_ccdc_geom_bond_type
H0 C7 0.929 . S
H1 C10 0.930 . S
H2 C12 0.929 . S
H3 C4 0.969 1_565 S
C4 H3 0.969 1_545 S
C4 O5 1.550 . S
C4 H6 0.973 . S
O5 C4 1.550 . S
O5 C11 1.412 . S
H6 C4 0.973 . S
C7 H0 0.929 . S
C7 C8 1.400 . S
C7 C9 1.364 . S
C8 C7 1.400 . S
C8 C12 1.377 . S
C9 C7 1.364 . S
C9 C10 1.374 . S
C10 H1 0.930 . S
C10 C9 1.374 . S
C10 C11 1.383 . S
C11 O5 1.412 . S
C11 C10 1.383 . S
C11 C12 1.394 . S
C12 H2 0.929 . S
C12 C8 1.377 . S
C12 C11 1.394 . S
H13 C20 0.929 . S
H14 C23 0.930 . S
H15 C25 0.929 . S
H16 C17 0.969 . S
C17 H16 0.969 . S
C17 O18 1.550 . S
C17 H19 0.973 . S
O18 C17 1.550 . S
O18 C24 1.412 . S
H19 C17 0.973 . S
C20 H13 0.929 . S
C20 C21 1.400 . S
C20 C22 1.364 . S
C21 C20 1.400 . S
C21 C25 1.377 . S
C22 C20 1.364 . S
C22 C23 1.374 . S
C23 H14 0.930 . S
C23 C22 1.374 . S
C23 C24 1.383 . S
C24 O18 1.412 . S
C24 C23 1.383 . S
C24 C25 1.394 . S
C25 H15 0.929 . S
C25 C21 1.377 . S
C25 C24 1.394 . S
H26 C33 0.929 . S
H27 C36 0.930 . S
H28 C38 0.929 1_455 S
H29 C30 0.969 . S
C30 H29 0.969 . S
C30 O31 1.550 . S
C30 H32 0.973 . S
O31 C30 1.550 . S
O31 C37 1.412 . S
H32 C30 0.973 . S
C33 H26 0.929 . S
C33 C34 1.400 . S
C33 C35 1.364 . S
C34 C33 1.400 . S
C34 C38 1.377 . S
C35 C33 1.364 . S
C35 C36 1.374 . S
C36 H27 0.930 . S
C36 C35 1.374 . S
C36 C37 1.383 . S
C37 O31 1.412 . S
C37 C36 1.383 . S
C37 C38 1.394 . S
C38 H28 0.929 1_655 S
C38 C34 1.377 . S
C38 C37 1.394 . S
H39 C46 0.929 . S
H40 C49 0.930 . S
H41 C51 0.929 . S
H42 C43 0.969 . S
C43 H42 0.969 . S
C43 O44 1.550 . S
C43 H45 0.973 . S
O44 C43 1.550 . S
O44 C50 1.412 . S
H45 C43 0.973 . S
C46 H39 0.929 . S
C46 C47 1.400 . S
C46 C48 1.364 . S
C47 C46 1.400 . S
C47 C51 1.377 . S
C48 C46 1.364 . S
C48 C49 1.374 . S
C49 H40 0.930 . S
C49 C48 1.374 . S
C49 C50 1.383 . S
C50 O44 1.412 . S
C50 C49 1.383 . S
C50 C51 1.394 . S
C51 H41 0.929 . S
C51 C47 1.377 . S
C51 C50 1.394 . S
H52 C59 0.929 . S
H53 C62 0.930 . S
H54 C64 0.929 1_545 S
H55 C56 0.969 . S
C56 H55 0.969 . S
C56 O57 1.550 . S
C56 H58 0.973 . S
O57 C56 1.550 . S
O57 C63 1.412 . S
H58 C56 0.973 . S
C59 H52 0.929 . S
C59 C60 1.400 . S
C59 C61 1.364 . S
C60 C59 1.400 . S
C60 C64 1.377 . S
C61 C59 1.364 . S
C61 C62 1.374 . S
C62 H53 0.930 . S
C62 C61 1.374 . S
C62 C63 1.383 . S
C63 O57 1.412 . S
C63 C62 1.383 . S
C63 C64 1.394 . S
C64 H54 0.929 1_565 S
C64 C60 1.377 . S
C64 C63 1.394 . S
H65 C72 0.929 . S
H66 C75 0.930 . S
H67 C77 0.929 . S
H68 C69 0.969 . S
C69 H68 0.969 . S
C69 O70 1.550 . S
C69 H71 0.973 . S
O70 C69 1.550 . S
O70 C76 1.412 . S
H71 C69 0.973 . S
C72 H65 0.929 . S
C72 C73 1.400 . S
C72 C74 1.364 . S
C73 C72 1.400 . S
C73 C77 1.377 . S
C74 C72 1.364 . S
C74 C75 1.374 . S
C75 H66 0.930 . S
C75 C74 1.374 . S
C75 C76 1.383 . S
C76 O70 1.412 . S
C76 C75 1.383 . S
C76 C77 1.394 . S
C77 H67 0.929 . S
C77 C73 1.377 . S
C77 C76 1.394 . S
H78 C85 0.929 . S
H79 C88 0.930 . S
H80 C90 0.929 1_455 S
H81 C82 0.969 . S
C82 H81 0.969 . S
C82 O83 1.550 . S
C82 H84 0.973 . S
O83 C82 1.550 . S
O83 C89 1.412 1_455 S
H84 C82 0.973 . S
C85 H78 0.929 . S
C85 C86 1.400 . S
C85 C87 1.364 . S
C86 C85 1.400 . S
C86 C90 1.377 . S
C87 C85 1.364 . S
C87 C88 1.374 . S
C88 H79 0.930 . S
C88 C87 1.374 . S
C88 C89 1.383 . S
C89 O83 1.412 1_655 S
C89 C88 1.383 . S
C89 C90 1.394 . S
C90 H80 0.929 1_655 S
C90 C86 1.377 . S
C90 C89 1.394 . S
H91 C98 0.929 . S
H92 C101 0.930 . S
H93 C103 0.929 . S
H94 C95 0.969 . S
C95 H94 0.969 . S
C95 O96 1.550 . S
C95 H97 0.973 . S
O96 C95 1.550 . S
O96 C102 1.412 . S
H97 C95 0.973 . S
C98 H91 0.929 . S
C98 C99 1.400 . S
C98 C100 1.364 . S
C99 C98 1.400 . S
C99 C103 1.377 . S
C100 C98 1.364 . S
C100 C101 1.374 . S
C101 H92 0.930 . S
C101 C100 1.374 . S
C101 C102 1.383 . S
C102 O96 1.412 . S
C102 C101 1.383 . S
C102 C103 1.394 . S
C103 H93 0.929 . S
C103 C99 1.377 . S
C103 C102 1.394 . S
H104 C111 0.929 . S
H105 C114 0.930 . S
H106 C116 0.929 . S
H107 C108 0.969 . S
C108 H107 0.969 . S
C108 O109 1.550 . S
C108 H110 0.973 . S
O109 C108 1.550 . S
O109 C115 1.412 . S
H110 C108 0.973 . S
C111 H104 0.929 . S
C111 C112 1.400 . S
C111 C113 1.364 . S
C112 C111 1.400 . S
C112 C116 1.377 . S
C113 C111 1.364 . S
C113 C114 1.374 . S
C114 H105 0.930 . S
C114 C113 1.374 . S
C114 C115 1.383 . S
C115 O109 1.412 . S
C115 C114 1.383 . S
C115 C116 1.394 . S
C116 H106 0.929 . S
C116 C112 1.377 . S
C116 C115 1.394 . S
H117 C124 0.929 . S
H118 C127 0.930 . S
H119 C129 0.929 . S
H120 C121 0.969 . S
C121 H120 0.969 . S
C121 O122 1.550 . S
C121 H123 0.973 . S
O122 C121 1.550 . S
O122 C128 1.412 . S
H123 C121 0.973 . S
C124 H117 0.929 . S
C124 C125 1.400 . S
C124 C126 1.364 . S
C125 C124 1.400 . S
C125 C129 1.377 . S
C126 C124 1.364 . S
C126 C127 1.374 . S
C127 H118 0.930 . S
C127 C126 1.374 . S
C127 C128 1.383 . S
C128 O122 1.412 . S
C128 C127 1.383 . S
C128 C129 1.394 . S
C129 H119 0.929 . S
C129 C125 1.377 . S
C129 C128 1.394 . S
H130 C137 0.929 . S
H131 C140 0.930 . S
H132 C142 0.929 . S
H133 C134 0.969 . S
C134 H133 0.969 . S
C134 O135 1.550 . S
C134 H136 0.973 . S
O135 C134 1.550 . S
O135 C141 1.412 . S
H136 C134 0.973 . S
C137 H130 0.929 . S
C137 C138 1.400 . S
C137 C139 1.364 . S
C138 C137 1.400 . S
C138 C142 1.377 . S
C139 C137 1.364 . S
C139 C140 1.374 . S
C140 H131 0.930 . S
C140 C139 1.374 . S
C140 C141 1.383 . S
C141 O135 1.412 . S
C141 C140 1.383 . S
C141 C142 1.394 . S
C142 H132 0.929 . S
C142 C138 1.377 . S
C142 C141 1.394 . S
H143 C150 0.929 . S
H144 C153 0.930 . S
H145 C155 0.929 . S
H146 C147 0.969 . S
C147 H146 0.969 . S
C147 O148 1.550 . S
C147 H149 0.973 . S
O148 C147 1.550 . S
O148 C154 1.412 . S
H149 C147 0.973 . S
C150 H143 0.929 . S
C150 C151 1.400 . S
C150 C152 1.364 . S
C151 C150 1.400 . S
C151 C155 1.377 . S
C152 C150 1.364 . S
C152 C153 1.374 . S
C153 H144 0.930 . S
C153 C152 1.374 . S
C153 C154 1.383 . S
C154 O148 1.412 . S
C154 C153 1.383 . S
C154 C155 1.394 . S
C155 H145 0.929 . S
C155 C151 1.377 . S
C155 C154 1.394 . S
H156 C163 0.929 . S
H157 C166 0.930 . S
H158 C168 0.929 . S
H159 C160 0.969 . S
C160 H159 0.969 . S
C160 O161 1.550 . S
C160 H162 0.973 . S
O161 C160 1.550 . S
O161 C167 1.412 . S
H162 C160 0.973 . S
C163 H156 0.929 . S
C163 C164 1.400 . S
C163 C165 1.364 . S
C164 C163 1.400 . S
C164 C168 1.377 . S
C165 C163 1.364 . S
C165 C166 1.374 . S
C166 H157 0.930 . S
C166 C165 1.374 . S
C166 C167 1.383 . S
C167 O161 1.412 . S
C167 C166 1.383 . S
C167 C168 1.394 . S
C168 H158 0.929 . S
C168 C164 1.377 . S
C168 C167 1.394 . S
H169 C176 0.928 1_554 S
H170 C179 0.930 . S
H171 C181 0.929 . S
H172 C173 0.969 . S
C173 H172 0.969 . S
C173 O174 1.550 . S
C173 H175 0.973 . S
O174 C173 1.550 . S
O174 C180 1.412 . S
H175 C173 0.973 . S
C176 H169 0.928 1_556 S
C176 C177 1.400 . S
C176 C178 1.364 . S
C177 C176 1.400 . S
C177 C181 1.377 . S
C178 C176 1.364 . S
C178 C179 1.374 . S
C179 H170 0.930 . S
C179 C178 1.374 . S
C179 C180 1.383 . S
C180 O174 1.412 . S
C180 C179 1.383 . S
C180 C181 1.394 . S
C181 H171 0.929 . S
C181 C177 1.377 . S
C181 C180 1.394 . S
H182 C189 0.929 . S
H183 C192 0.930 . S
H184 C194 0.929 . S
H185 C186 0.969 . S
C186 H185 0.969 . S
C186 O187 1.550 . S
C186 H188 0.973 . S
O187 C186 1.550 . S
O187 C193 1.412 . S
H188 C186 0.973 . S
C189 H182 0.929 . S
C189 C190 1.400 . S
C189 C191 1.364 . S
C190 C189 1.400 . S
C190 C194 1.377 . S
C191 C189 1.364 . S
C191 C192 1.374 . S
C192 H183 0.930 . S
C192 C191 1.374 . S
C192 C193 1.383 . S
C193 O187 1.412 . S
C193 C192 1.383 . S
C193 C194 1.394 . S
C194 H184 0.929 . S
C194 C190 1.377 . S
C194 C193 1.394 . S
H195 C202 0.929 . S
H196 C205 0.930 . S
H197 C207 0.929 . S
H198 C199 0.969 . S
C199 H198 0.969 . S
C199 O200 1.550 . S
C199 H201 0.973 . S
O200 C199 1.550 . S
O200 C206 1.412 . S
H201 C199 0.973 . S
C202 H195 0.929 . S
C202 C203 1.400 . S
C202 C204 1.364 1_554 S
C203 C202 1.400 . S
C203 C207 1.377 1_554 S
C204 C202 1.364 1_556 S
C204 C205 1.374 . S
C205 H196 0.930 . S
C205 C204 1.374 . S
C205 C206 1.383 . S
C206 O200 1.412 . S
C206 C205 1.383 . S
C206 C207 1.394 . S
C207 H197 0.929 . S
C207 C203 1.377 1_556 S
C207 C206 1.394 . S
Li208 N225 1.990 . S
Li208 O268 1.956 . S
Li208 O269 1.970 1_556 S
Li208 O270 1.961 . S
Li209 N233 1.990 . S
Li209 O268 1.971 1_554 S
Li209 O269 1.956 . S
Li209 O271 1.961 . S
Li210 N255 1.990 . S
Li210 O268 1.960 . S
Li210 O270 1.956 . S
Li210 O271 1.970 1_556 S
Li211 N261 1.990 . S
Li211 O269 1.961 . S
Li211 O270 1.970 1_554 S
Li211 O271 1.956 . S
C212 C214 1.348 1_556 S
C212 C215 1.356 . S
C212 O268 1.325 . S
N213 C216 1.314 1_556 S
N213 C217 1.279 . S
C214 C212 1.348 1_554 S
C214 C216 1.353 . S
C214 H272 0.929 . S
C215 C212 1.356 . S
C215 C217 1.358 . S
C215 H273 0.930 . S
C216 N213 1.314 1_554 S
C216 C214 1.353 . S
C216 H274 0.930 . S
C217 N213 1.279 . S
C217 C215 1.358 . S
C217 H275 0.930 . S
C218 C221 1.348 . S
C218 C222 1.356 . S
C218 O269 1.325 . S
C219 N220 1.279 . S
C219 C222 1.358 . S
C219 H276 0.930 . S
N220 C219 1.279 . S
N220 C223 1.314 . S
C221 C218 1.348 . S
C221 C223 1.353 . S
C221 H277 0.929 . S
C222 C218 1.356 . S
C222 C219 1.358 . S
C222 H278 0.930 . S
C223 N220 1.314 . S
C223 C221 1.353 . S
C223 H279 0.930 . S
C224 N225 1.314 . S
C224 C229 1.353 . S
C224 H230 0.930 . S
N225 Li208 1.990 . S
N225 C224 1.314 . S
N225 C227 1.279 . S
C226 C227 1.358 . S
C226 C228 1.356 . S
C226 H280 0.931 . S
C227 N225 1.279 . S
C227 C226 1.358 . S
C227 H231 0.930 1_556 S
C228 C226 1.356 . S
C228 C229 1.348 . S
C229 C224 1.353 . S
C229 C228 1.348 . S
C229 H281 0.929 . S
H230 C224 0.930 . S
H231 C227 0.930 1_554 S
C232 N233 1.314 . S
C232 C234 1.353 . S
C232 H238 0.930 . S
N233 Li209 1.990 . S
N233 C232 1.314 . S
N233 C236 1.279 . S
C234 C232 1.353 . S
C234 C237 1.348 . S
C234 H282 0.929 . S
C235 C236 1.358 . S
C235 C237 1.356 . S
C235 H283 0.930 . S
C236 N233 1.279 . S
C236 C235 1.358 . S
C236 H239 0.930 . S
C237 C234 1.348 . S
C237 C235 1.356 . S
H238 C232 0.930 . S
H239 C236 0.930 . S
C240 C242 1.348 . S
C240 C243 1.356 . S
C240 O270 1.325 . S
N241 C244 1.314 . S
N241 C245 1.279 . S
C242 C240 1.348 . S
C242 C244 1.353 . S
C242 H284 0.929 . S
C243 C240 1.356 . S
C243 C245 1.358 . S
C243 H285 0.930 . S
C244 N241 1.314 . S
C244 C242 1.353 . S
C244 H286 0.930 . S
C245 N241 1.279 . S
C245 C243 1.358 . S
C245 H287 0.930 . S
C246 C247 1.348 1_554 S
C246 C248 1.356 . S
C246 O271 1.325 . S
C247 C246 1.348 1_556 S
C247 C249 1.353 . S
C247 H288 0.929 . S
C248 C246 1.356 . S
C248 C250 1.358 . S
C248 H289 0.930 . S
C249 C247 1.353 . S
C249 N251 1.314 1_556 S
C249 H290 0.930 . S
C250 C248 1.358 . S
C250 N251 1.279 . S
C250 H291 0.930 . S
N251 C249 1.314 1_554 S
N251 C250 1.279 . S
C252 C254 1.353 . S
C252 N255 1.314 . S
C252 H258 0.930 . S
C253 N255 1.279 . S
C253 C256 1.358 . S
C253 H259 0.930 . S
C254 C252 1.353 . S
C254 C257 1.348 . S
C254 H292 0.929 . S
N255 Li210 1.990 . S
N255 C252 1.314 . S
N255 C253 1.279 . S
C256 C253 1.358 . S
C256 C257 1.356 . S
C256 H293 0.930 . S
C257 C254 1.348 . S
C257 C256 1.356 . S
H258 C252 0.930 . S
H259 C253 0.930 . S
C260 N261 1.314 . S
C260 C262 1.353 . S
C260 H266 0.930 . S
N261 Li211 1.990 . S
N261 C260 1.314 . S
N261 C264 1.279 . S
C262 C260 1.353 . S
C262 C265 1.348 . S
C262 H294 0.929 . S
C263 C264 1.358 . S
C263 C265 1.356 . S
C263 H295 0.933 . S
C264 N261 1.279 . S
C264 C263 1.358 . S
C264 H267 0.917 1_554 S
C265 C262 1.348 . S
C265 C263 1.356 . S
H266 C260 0.930 . S
H267 C264 0.917 1_556 S
O268 Li208 1.956 . S
O268 Li209 1.971 1_556 S
O268 Li210 1.960 . S
O268 C212 1.325 . S
O269 Li208 1.970 1_554 S
O269 Li209 1.956 . S
O269 Li211 1.961 . S
O269 C218 1.325 . S
O270 Li208 1.961 . S
O270 Li210 1.956 . S
O270 Li211 1.970 1_556 S
O270 C240 1.325 . S
O271 Li209 1.961 . S
O271 Li210 1.970 1_554 S
O271 Li211 1.956 . S
O271 C246 1.325 . S
H272 C214 0.929 . S
H273 C215 0.930 . S
H274 C216 0.930 . S
H275 C217 0.930 . S
H276 C219 0.930 . S
H277 C221 0.929 . S
H278 C222 0.930 . S
H279 C223 0.930 . S
H280 C226 0.931 . S
H281 C229 0.929 . S
H282 C234 0.929 . S
H283 C235 0.930 . S
H284 C242 0.929 . S
H285 C243 0.930 . S
H286 C244 0.930 . S
H287 C245 0.930 . S
H288 C247 0.929 . S
H289 C248 0.930 . S
H290 C249 0.930 . S
H291 C250 0.930 . S
H292 C254 0.929 . S
H293 C256 0.930 . S
H294 C262 0.929 . S
H295 C263 0.933 . S
Li296 N313 1.990 . S
Li296 O356 1.956 . S
Li296 O357 1.970 . S
Li296 O358 1.961 . S
Li297 N321 1.990 . S
Li297 O356 1.970 . S
Li297 O357 1.956 . S
Li297 O359 1.961 . S
Li298 N343 1.990 . S
Li298 O356 1.961 . S
Li298 O358 1.956 . S
Li298 O359 1.970 . S
Li299 N349 1.990 . S
Li299 O357 1.961 . S
Li299 O358 1.970 . S
Li299 O359 1.956 . S
C300 C302 1.348 . S
C300 C303 1.356 . S
C300 O356 1.325 . S
N301 C304 1.314 . S
N301 C305 1.279 . S
C302 C300 1.348 . S
C302 C304 1.353 . S
C302 H360 0.929 . S
C303 C300 1.356 . S
C303 C305 1.358 . S
C303 H361 0.930 . S
C304 N301 1.314 . S
C304 C302 1.353 . S
C304 H362 0.930 . S
C305 N301 1.279 . S
C305 C303 1.358 . S
C305 H363 0.930 . S
C306 C309 1.348 . S
C306 C310 1.356 . S
C306 O357 1.325 . S
C307 N308 1.279 . S
C307 C310 1.358 . S
C307 H364 0.930 . S
N308 C307 1.279 . S
N308 C311 1.314 . S
C309 C306 1.348 . S
C309 C311 1.353 . S
C309 H365 0.929 . S
C310 C306 1.356 . S
C310 C307 1.358 . S
C310 H366 0.930 . S
C311 N308 1.314 . S
C311 C309 1.353 . S
C311 H367 0.930 . S
C312 N313 1.314 . S
C312 C317 1.353 . S
C312 H318 0.930 . S
N313 Li296 1.990 . S
N313 C312 1.314 . S
N313 C315 1.279 . S
C314 C315 1.358 . S
C314 C316 1.356 . S
C314 H368 0.930 . S
C315 N313 1.279 . S
C315 C314 1.358 . S
C315 H319 0.930 . S
C316 C314 1.356 . S
C316 C317 1.348 . S
C317 C312 1.353 . S
C317 C316 1.348 . S
C317 H369 0.929 . S
H318 C312 0.930 . S
H319 C315 0.930 . S
C320 N321 1.314 . S
C320 C322 1.353 . S
C320 H326 0.930 . S
N321 Li297 1.990 . S
N321 C320 1.314 . S
N321 C324 1.279 . S
C322 C320 1.353 . S
C322 C325 1.348 . S
C322 H370 0.929 . S
C323 C324 1.358 . S
C323 C325 1.356 . S
C323 H371 0.930 . S
C324 N321 1.279 . S
C324 C323 1.358 . S
C324 H327 0.930 . S
C325 C322 1.348 . S
C325 C323 1.356 . S
H326 C320 0.930 . S
H327 C324 0.930 . S
C328 C330 1.348 . S
C328 C331 1.356 . S
C328 O358 1.325 . S
N329 C332 1.314 . S
N329 C333 1.279 . S
C330 C328 1.348 . S
C330 C332 1.353 . S
C330 H372 0.929 . S
C331 C328 1.356 . S
C331 C333 1.358 . S
C331 H373 0.930 . S
C332 N329 1.314 . S
C332 C330 1.353 . S
C332 H374 0.930 . S
C333 N329 1.279 . S
C333 C331 1.358 . S
C333 H375 0.930 . S
C334 C335 1.348 . S
C334 C336 1.356 . S
C334 O359 1.325 . S
C335 C334 1.348 . S
C335 C337 1.353 . S
C335 H376 0.929 . S
C336 C334 1.356 . S
C336 C338 1.358 . S
C336 H377 0.930 . S
C337 C335 1.353 . S
C337 N339 1.314 . S
C337 H378 0.930 . S
C338 C336 1.358 . S
C338 N339 1.279 . S
C338 H379 0.930 . S
N339 C337 1.314 . S
N339 C338 1.279 . S
C340 C342 1.353 . S
C340 N343 1.314 . S
C340 H346 0.930 . S
C341 N343 1.279 . S
C341 C344 1.358 . S
C341 H347 0.930 . S
C342 C340 1.353 . S
C342 C345 1.348 . S
C342 H380 0.929 . S
N343 Li298 1.990 . S
N343 C340 1.314 . S
N343 C341 1.279 . S
C344 C341 1.358 . S
C344 C345 1.356 . S
C344 H381 0.930 . S
C345 C342 1.348 . S
C345 C344 1.356 . S
H346 C340 0.930 . S
H347 C341 0.930 . S
C348 N349 1.314 . S
C348 C350 1.353 . S
C348 H354 0.930 . S
N349 Li299 1.990 . S
N349 C348 1.314 . S
N349 C352 1.279 . S
C350 C348 1.353 . S
C350 C353 1.348 . S
C350 H382 0.929 . S
C351 C352 1.358 . S
C351 C353 1.356 . S
C351 H383 0.930 . S
C352 N349 1.279 . S
C352 C351 1.358 . S
C352 H355 0.930 . S
C353 C350 1.348 . S
C353 C351 1.356 . S
H354 C348 0.930 . S
H355 C352 0.930 . S
O356 Li296 1.956 . S
O356 Li297 1.970 . S
O356 Li298 1.961 . S
O356 C300 1.325 . S
O357 Li296 1.970 . S
O357 Li297 1.956 . S
O357 Li299 1.961 . S
O357 C306 1.325 . S
O358 Li296 1.961 . S
O358 Li298 1.956 . S
O358 Li299 1.970 . S
O358 C328 1.325 . S
O359 Li297 1.961 . S
O359 Li298 1.970 . S
O359 Li299 1.956 . S
O359 C334 1.325 . S
H360 C302 0.929 . S
H361 C303 0.930 . S
H362 C304 0.930 . S
H363 C305 0.930 . S
H364 C307 0.930 . S
H365 C309 0.929 . S
H366 C310 0.930 . S
H367 C311 0.930 . S
H368 C314 0.930 . S
H369 C317 0.929 . S
H370 C322 0.929 . S
H371 C323 0.930 . S
H372 C330 0.929 . S
H373 C331 0.930 . S
H374 C332 0.930 . S
H375 C333 0.930 . S
H376 C335 0.929 . S
H377 C336 0.930 . S
H378 C337 0.930 . S
H379 C338 0.930 . S
H380 C342 0.929 . S
H381 C344 0.930 . S
H382 C350 0.929 . S
H383 C351 0.930 . S
Li384 N401 1.990 . S
Li384 O444 1.956 . S
Li384 O445 1.970 . S
Li384 O446 1.961 . S
Li385 N409 1.990 . S
Li385 O444 1.970 . S
Li385 O445 1.956 . S
Li385 O447 1.961 . S
Li386 N431 1.990 . S
Li386 O444 1.961 . S
Li386 O446 1.956 . S
Li386 O447 1.970 . S
Li387 N437 1.990 . S
Li387 O445 1.961 . S
Li387 O446 1.970 . S
Li387 O447 1.956 . S
C388 C390 1.348 . S
C388 C391 1.356 . S
C388 O444 1.325 . S
N389 C392 1.314 . S
N389 C393 1.279 . S
C390 C388 1.348 . S
C390 C392 1.353 . S
C390 H448 0.929 . S
C391 C388 1.356 . S
C391 C393 1.358 . S
C391 H449 0.930 . S
C392 N389 1.314 . S
C392 C390 1.353 . S
C392 H450 0.930 . S
C393 N389 1.279 . S
C393 C391 1.358 . S
C393 H451 0.930 . S
C394 C397 1.348 . S
C394 C398 1.356 . S
C394 O445 1.325 . S
C395 N396 1.279 . S
C395 C398 1.358 . S
C395 H452 0.930 . S
N396 C395 1.279 . S
N396 C399 1.314 . S
C397 C394 1.348 . S
C397 C399 1.353 . S
C397 H453 0.929 . S
C398 C394 1.356 . S
C398 C395 1.358 . S
C398 H454 0.930 . S
C399 N396 1.314 . S
C399 C397 1.353 . S
C399 H455 0.930 . S
C400 N401 1.314 . S
C400 C405 1.353 . S
C400 H406 0.930 . S
N401 Li384 1.990 . S
N401 C400 1.314 . S
N401 C403 1.279 . S
C402 C403 1.358 . S
C402 C404 1.356 . S
C402 H456 0.930 . S
C403 N401 1.279 . S
C403 C402 1.358 . S
C403 H407 0.930 . S
C404 C402 1.356 . S
C404 C405 1.348 . S
C405 C400 1.353 . S
C405 C404 1.348 . S
C405 H457 0.929 . S
H406 C400 0.930 . S
H407 C403 0.930 . S
C408 N409 1.314 . S
C408 C410 1.353 . S
C408 H414 0.930 . S
N409 Li385 1.990 . S
N409 C408 1.314 . S
N409 C412 1.279 . S
C410 C408 1.353 . S
C410 C413 1.348 . S
C410 H458 0.929 . S
C411 C412 1.358 . S
C411 C413 1.356 . S
C411 H459 0.930 . S
C412 N409 1.279 . S
C412 C411 1.358 . S
C412 H415 0.930 . S
C413 C410 1.348 . S
C413 C411 1.356 . S
H414 C408 0.930 . S
H415 C412 0.930 . S
C416 C418 1.348 . S
C416 C419 1.386 . S
C416 O446 1.325 . S
N417 C420 1.314 . S
N417 C421 1.279 . S
C418 C416 1.348 . S
C418 C420 1.353 1_554 S
C418 H460 0.929 . S
C419 C416 1.386 . S
C419 C421 1.324 1_554 S
C419 H461 0.935 . S
C420 N417 1.314 . S
C420 C418 1.353 1_556 S
C420 H462 0.930 . S
C421 N417 1.279 . S
C421 C419 1.324 1_556 S
C421 H463 0.930 . S
C422 C423 1.348 . S
C422 C424 1.356 . S
C422 O447 1.325 . S
C423 C422 1.348 . S
C423 C425 1.353 . S
C423 H464 0.929 . S
C424 C422 1.356 . S
C424 C426 1.358 . S
C424 H465 0.930 . S
C425 C423 1.353 . S
C425 N427 1.314 . S
C425 H466 0.930 . S
C426 C424 1.358 . S
C426 N427 1.279 . S
C426 H467 0.930 . S
N427 C425 1.314 . S
N427 C426 1.279 . S
C428 C430 1.353 1_554 S
C428 N431 1.314 . S
C428 H434 0.930 . S
C429 N431 1.279 1_556 S
C429 C432 1.358 . S
C429 H435 0.930 . S
C430 C428 1.353 1_556 S
C430 C433 1.348 . S
C430 H468 0.929 . S
N431 Li386 1.990 . S
N431 C428 1.314 . S
N431 C429 1.279 1_554 S
C432 C429 1.358 . S
C432 C433 1.356 . S
C432 H469 0.930 . S
C433 C430 1.348 . S
C433 C432 1.356 . S
H434 C428 0.930 . S
H435 C429 0.930 . S
C436 N437 1.314 . S
C436 C438 1.353 . S
C436 H442 0.930 . S
N437 Li387 1.990 . S
N437 C436 1.314 . S
N437 C440 1.279 . S
C438 C436 1.353 . S
C438 C441 1.348 . S
C438 H470 0.929 . S
C439 C440 1.358 . S
C439 C441 1.356 . S
C439 H471 0.930 . S
C440 N437 1.279 . S
C440 C439 1.358 . S
C440 H443 0.930 . S
C441 C438 1.348 . S
C441 C439 1.356 . S
H442 C436 0.930 . S
H443 C440 0.930 . S
O444 Li384 1.956 . S
O444 Li385 1.970 . S
O444 Li386 1.961 . S
O444 C388 1.325 . S
O445 Li384 1.970 . S
O445 Li385 1.956 . S
O445 Li387 1.961 . S
O445 C394 1.325 . S
O446 Li384 1.961 . S
O446 Li386 1.956 . S
O446 Li387 1.970 . S
O446 C416 1.325 . S
O447 Li385 1.961 . S
O447 Li386 1.970 . S
O447 Li387 1.956 . S
O447 C422 1.325 . S
H448 C390 0.929 . S
H449 C391 0.930 . S
H450 C392 0.930 . S
H451 C393 0.930 . S
H452 C395 0.930 . S
H453 C397 0.929 . S
H454 C398 0.930 . S
H455 C399 0.930 . S
H456 C402 0.930 . S
H457 C405 0.929 . S
H458 C410 0.929 . S
H459 C411 0.930 . S
H460 C418 0.929 . S
H461 C419 0.935 . S
H462 C420 0.930 . S
H463 C421 0.930 . S
H464 C423 0.929 . S
H465 C424 0.930 . S
H466 C425 0.930 . S
H467 C426 0.930 . S
H468 C430 0.929 . S
H469 C432 0.930 . S
H470 C438 0.929 . S
H471 C439 0.930 . S
Li472 N489 1.990 . S
Li472 O532 1.956 . S
Li472 O533 1.970 . S
Li472 O534 1.961 . S
Li473 N497 1.990 . S
Li473 O532 1.970 . S
Li473 O533 1.956 . S
Li473 O535 1.961 . S
Li474 N519 1.990 . S
Li474 O532 1.961 . S
Li474 O534 1.956 . S
Li474 O535 1.970 . S
Li475 N525 1.990 1_545 S
Li475 O533 1.961 . S
Li475 O534 1.970 . S
Li475 O535 1.956 . S
C476 C478 1.348 . S
C476 C479 1.356 . S
C476 O532 1.325 . S
N477 C480 1.314 . S
N477 C481 1.279 . S
C478 C476 1.348 . S
C478 C480 1.353 . S
C478 H536 0.929 . S
C479 C476 1.356 . S
C479 C481 1.358 . S
C479 H537 0.930 . S
C480 N477 1.314 . S
C480 C478 1.353 . S
C480 H538 0.930 . S
C481 N477 1.279 . S
C481 C479 1.358 . S
C481 H539 0.930 . S
C482 C485 1.348 . S
C482 C486 1.356 1_545 S
C482 O533 1.325 . S
C483 N484 1.279 1_565 S
C483 C486 1.358 . S
C483 H540 0.930 . S
N484 C483 1.279 1_545 S
N484 C487 1.314 . S
C485 C482 1.348 . S
C485 C487 1.353 . S
C485 H541 0.929 . S
C486 C482 1.356 1_565 S
C486 C483 1.358 . S
C486 H542 0.930 . S
C487 N484 1.314 . S
C487 C485 1.353 . S
C487 H543 0.930 . S
C488 N489 1.314 . S
C488 C493 1.353 . S
C488 H494 0.930 . S
N489 Li472 1.990 . S
N489 C488 1.314 . S
N489 C491 1.279 . S
C490 C491 1.358 . S
C490 C492 1.356 . S
C490 H544 0.930 . S
C491 N489 1.279 . S
C491 C490 1.358 . S
C491 H495 0.930 . S
C492 C490 1.356 . S
C492 C493 1.348 . S
C493 C488 1.353 . S
C493 C492 1.348 . S
C493 H545 0.929 . S
H494 C488 0.930 . S
H495 C491 0.930 . S
C496 N497 1.314 . S
C496 C498 1.353 . S
C496 H502 0.930 . S
N497 Li473 1.990 . S
N497 C496 1.314 . S
N497 C500 1.279 . S
C498 C496 1.353 . S
C498 C501 1.348 . S
C498 H546 0.929 . S
C499 C500 1.358 . S
C499 C501 1.356 . S
C499 H547 0.930 . S
C500 N497 1.279 . S
C500 C499 1.358 . S
C500 H503 0.930 . S
C501 C498 1.348 . S
C501 C499 1.356 . S
H502 C496 0.930 . S
H503 C500 0.930 . S
C504 C506 1.348 . S
C504 C507 1.356 . S
C504 O534 1.325 . S
N505 C508 1.314 . S
N505 C509 1.279 . S
C506 C504 1.348 . S
C506 C508 1.353 . S
C506 H548 0.929 1_545 S
C507 C504 1.356 . S
C507 C509 1.358 . S
C507 H549 0.930 . S
C508 N505 1.314 . S
C508 C506 1.353 . S
C508 H550 0.930 . S
C509 N505 1.279 . S
C509 C507 1.358 . S
C509 H551 0.930 . S
C510 C511 1.348 . S
C510 C512 1.356 . S
C510 O535 1.325 1_565 S
C511 C510 1.348 . S
C511 C513 1.353 . S
C511 H552 0.929 . S
C512 C510 1.356 . S
C512 C514 1.358 . S
C512 H553 0.930 . S
C513 C511 1.353 . S
C513 N515 1.314 . S
C513 H554 0.930 . S
C514 C512 1.358 . S
C514 N515 1.279 . S
C514 H555 0.930 . S
N515 C513 1.314 . S
N515 C514 1.279 . S
C516 C518 1.353 . S
C516 N519 1.314 . S
C516 H522 0.930 . S
C517 N519 1.279 . S
C517 C520 1.358 . S
C517 H523 0.930 . S
C518 C516 1.353 . S
C518 C521 1.348 . S
C518 H556 0.929 . S
N519 Li474 1.990 . S
N519 C516 1.314 . S
N519 C517 1.279 . S
C520 C517 1.358 . S
C520 C521 1.356 . S
C520 H557 0.930 . S
C521 C518 1.348 . S
C521 C520 1.356 . S
H522 C516 0.930 . S
H523 C517 0.930 . S
C524 N525 1.314 . S
C524 C526 1.353 . S
C524 H530 0.930 . S
N525 Li475 1.990 1_565 S
N525 C524 1.314 . S
N525 C528 1.279 . S
C526 C524 1.353 . S
C526 C529 1.348 . S
C526 H558 0.929 . S
C527 C528 1.358 . S
C527 C529 1.356 . S
C527 H559 0.930 . S
C528 N525 1.279 . S
C528 C527 1.358 . S
C528 H531 0.930 . S
C529 C526 1.348 . S
C529 C527 1.356 . S
H530 C524 0.930 . S
H531 C528 0.930 . S
O532 Li472 1.956 . S
O532 Li473 1.970 . S
O532 Li474 1.961 . S
O532 C476 1.325 . S
O533 Li472 1.970 . S
O533 Li473 1.956 . S
O533 Li475 1.961 . S
O533 C482 1.325 . S
O534 Li472 1.961 . S
O534 Li474 1.956 . S
O534 Li475 1.970 . S
O534 C504 1.325 . S
O535 Li473 1.961 . S
O535 Li474 1.970 . S
O535 Li475 1.956 . S
O535 C510 1.325 1_545 S
H536 C478 0.929 . S
H537 C479 0.930 . S
H538 C480 0.930 . S
H539 C481 0.930 . S
H540 C483 0.930 . S
H541 C485 0.929 . S
H542 C486 0.930 . S
H543 C487 0.930 . S
H544 C490 0.930 . S
H545 C493 0.929 . S
H546 C498 0.929 . S
H547 C499 0.930 . S
H548 C506 0.929 1_565 S
H549 C507 0.930 . S
H550 C508 0.930 . S
H551 C509 0.930 . S
H552 C511 0.929 . S
H553 C512 0.930 . S
H554 C513 0.930 . S
H555 C514 0.930 . S
H556 C518 0.929 . S
H557 C520 0.930 . S
H558 C526 0.929 . S
H559 C527 0.930 . S
Li560 N577 1.990 . S
Li560 O620 1.956 . S
Li560 O621 1.970 . S
Li560 O622 1.961 . S
Li561 N585 1.990 . S
Li561 O620 1.970 . S
Li561 O621 1.956 . S
Li561 O623 1.961 . S
Li562 N607 1.990 . S
Li562 O620 1.961 . S
Li562 O622 1.956 . S
Li562 O623 1.970 . S
Li563 N613 1.990 . S
Li563 O621 1.961 . S
Li563 O622 1.970 . S
Li563 O623 1.956 . S
C564 C566 1.348 . S
C564 C567 1.356 . S
C564 O620 1.325 . S
N565 C568 1.314 . S
N565 C569 1.279 . S
C566 C564 1.348 . S
C566 C568 1.353 . S
C566 H624 0.929 . S
C567 C564 1.356 . S
C567 C569 1.358 . S
C567 H625 0.930 . S
C568 N565 1.314 . S
C568 C566 1.353 . S
C568 H626 0.930 . S
C569 N565 1.279 . S
C569 C567 1.358 . S
C569 H627 0.930 . S
C570 C573 1.348 . S
C570 C574 1.356 . S
C570 O621 1.325 . S
C571 N572 1.279 . S
C571 C574 1.358 . S
C571 H628 0.930 . S
N572 C571 1.279 . S
N572 C575 1.314 . S
C573 C570 1.348 . S
C573 C575 1.353 . S
C573 H629 0.929 . S
C574 C570 1.356 . S
C574 C571 1.358 . S
C574 H630 0.930 . S
C575 N572 1.314 . S
C575 C573 1.353 . S
C575 H631 0.930 . S
C576 N577 1.314 . S
C576 C581 1.353 . S
C576 H582 0.930 . S
N577 Li560 1.990 . S
N577 C576 1.314 . S
N577 C579 1.279 . S
C578 C579 1.358 . S
C578 C580 1.356 . S
C578 H632 0.930 . S
C579 N577 1.279 . S
C579 C578 1.358 . S
C579 H583 0.930 . S
C580 C578 1.356 . S
C580 C581 1.348 . S
C581 C576 1.353 . S
C581 C580 1.348 . S
C581 H633 0.929 . S
H582 C576 0.930 . S
H583 C579 0.930 . S
C584 N585 1.314 . S
C584 C586 1.353 . S
C584 H590 0.930 . S
N585 Li561 1.990 . S
N585 C584 1.314 . S
N585 C588 1.279 . S
C586 C584 1.353 . S
C586 C589 1.348 . S
C586 H634 0.929 . S
C587 C588 1.358 . S
C587 C589 1.356 . S
C587 H635 0.930 . S
C588 N585 1.279 . S
C588 C587 1.358 . S
C588 H591 0.930 . S
C589 C586 1.348 . S
C589 C587 1.356 . S
H590 C584 0.930 . S
H591 C588 0.930 . S
C592 C594 1.348 . S
C592 C595 1.356 . S
C592 O622 1.325 . S
N593 C596 1.314 . S
N593 C597 1.279 . S
C594 C592 1.348 . S
C594 C596 1.353 . S
C594 H636 0.929 . S
C595 C592 1.356 . S
C595 C597 1.358 . S
C595 H637 0.930 . S
C596 N593 1.314 . S
C596 C594 1.353 . S
C596 H638 0.930 . S
C597 N593 1.279 . S
C597 C595 1.358 . S
C597 H639 0.930 . S
C598 C599 1.348 . S
C598 C600 1.356 . S
C598 O623 1.325 . S
C599 C598 1.348 . S
C599 C601 1.353 . S
C599 H640 0.929 . S
C600 C598 1.356 . S
C600 C602 1.358 . S
C600 H641 0.930 . S
C601 C599 1.353 . S
C601 N603 1.314 . S
C601 H642 0.930 . S
C602 C600 1.358 . S
C602 N603 1.279 . S
C602 H643 0.930 . S
N603 C601 1.314 . S
N603 C602 1.279 . S
C604 C606 1.353 . S
C604 N607 1.314 . S
C604 H610 0.930 . S
C605 N607 1.279 . S
C605 C608 1.358 . S
C605 H611 0.930 . S
C606 C604 1.353 . S
C606 C609 1.348 . S
C606 H644 0.929 . S
N607 Li562 1.990 . S
N607 C604 1.314 . S
N607 C605 1.279 . S
C608 C605 1.358 . S
C608 C609 1.356 . S
C608 H645 0.930 . S
C609 C606 1.348 . S
C609 C608 1.356 . S
H610 C604 0.930 . S
H611 C605 0.930 . S
C612 N613 1.314 . S
C612 C614 1.353 . S
C612 H618 0.930 . S
N613 Li563 1.990 . S
N613 C612 1.314 . S
N613 C616 1.279 . S
C614 C612 1.353 . S
C614 C617 1.348 . S
C614 H646 0.929 . S
C615 C616 1.358 . S
C615 C617 1.356 . S
C615 H647 0.930 . S
C616 N613 1.279 . S
C616 C615 1.358 . S
C616 H619 0.930 . S
C617 C614 1.348 . S
C617 C615 1.356 . S
H618 C612 0.930 . S
H619 C616 0.930 . S
O620 Li560 1.956 . S
O620 Li561 1.970 . S
O620 Li562 1.961 . S
O620 C564 1.325 . S
O621 Li560 1.970 . S
O621 Li561 1.956 . S
O621 Li563 1.961 . S
O621 C570 1.325 . S
O622 Li560 1.961 . S
O622 Li562 1.956 . S
O622 Li563 1.970 . S
O622 C592 1.325 . S
O623 Li561 1.961 . S
O623 Li562 1.970 . S
O623 Li563 1.956 . S
O623 C598 1.325 . S
H624 C566 0.929 . S
H625 C567 0.930 . S
H626 C568 0.930 . S
H627 C569 0.930 . S
H628 C571 0.930 . S
H629 C573 0.929 . S
H630 C574 0.930 . S
H631 C575 0.930 . S
H632 C578 0.930 . S
H633 C581 0.929 . S
H634 C586 0.929 . S
H635 C587 0.930 . S
H636 C594 0.929 . S
H637 C595 0.930 . S
H638 C596 0.930 . S
H639 C597 0.930 . S
H640 C599 0.929 . S
H641 C600 0.930 . S
H642 C601 0.930 . S
H643 C602 0.930 . S
H644 C606 0.929 . S
H645 C608 0.930 . S
H646 C614 0.929 . S
H647 C615 0.930 . S
Li648 N665 1.990 . S
Li648 O708 1.956 . S
Li648 O709 1.970 . S
Li648 O710 1.961 . S
Li649 N673 1.990 . S
Li649 O708 1.970 . S
Li649 O709 1.956 . S
Li649 O711 1.961 . S
Li650 N695 1.990 . S
Li650 O708 1.961 . S
Li650 O710 1.956 . S
Li650 O711 1.970 . S
Li651 N701 1.990 . S
Li651 O709 1.961 . S
Li651 O710 1.970 . S
Li651 O711 1.956 . S
C652 C654 1.348 . S
C652 C655 1.356 . S
C652 O708 1.325 . S
N653 C656 1.314 . S
N653 C657 1.279 . S
C654 C652 1.348 . S
C654 C656 1.353 . S
C654 H712 0.929 . S
C655 C652 1.356 . S
C655 C657 1.358 . S
C655 H713 0.930 . S
C656 N653 1.314 . S
C656 C654 1.353 . S
C656 H714 0.930 . S
C657 N653 1.279 . S
C657 C655 1.358 . S
C657 H715 0.930 . S
C658 C661 1.348 . S
C658 C662 1.356 . S
C658 O709 1.325 . S
C659 N660 1.279 . S
C659 C662 1.358 . S
C659 H716 0.930 . S
N660 C659 1.279 . S
N660 C663 1.314 . S
C661 C658 1.348 . S
C661 C663 1.353 . S
C661 H717 0.929 . S
C662 C658 1.356 . S
C662 C659 1.358 . S
C662 H718 0.930 . S
C663 N660 1.314 . S
C663 C661 1.353 . S
C663 H719 0.930 . S
C664 N665 1.314 . S
C664 C669 1.353 . S
C664 H670 0.930 . S
N665 Li648 1.990 . S
N665 C664 1.314 . S
N665 C667 1.279 . S
C666 C667 1.358 . S
C666 C668 1.356 . S
C666 H720 0.930 . S
C667 N665 1.279 . S
C667 C666 1.358 . S
C667 H671 0.930 . S
C668 C666 1.356 . S
C668 C669 1.348 . S
C669 C664 1.353 . S
C669 C668 1.348 . S
C669 H721 0.929 . S
H670 C664 0.930 . S
H671 C667 0.930 . S
C672 N673 1.314 . S
C672 C674 1.353 . S
C672 H678 0.930 . S
N673 Li649 1.990 . S
N673 C672 1.314 . S
N673 C676 1.279 . S
C674 C672 1.353 . S
C674 C677 1.348 . S
C674 H722 0.929 . S
C675 C676 1.358 . S
C675 C677 1.356 . S
C675 H723 0.930 . S
C676 N673 1.279 . S
C676 C675 1.358 . S
C676 H679 0.930 . S
C677 C674 1.348 . S
C677 C675 1.356 . S
H678 C672 0.930 . S
H679 C676 0.930 . S
C680 C682 1.348 . S
C680 C683 1.356 . S
C680 O710 1.325 . S
N681 C684 1.314 . S
N681 C685 1.279 . S
C682 C680 1.348 . S
C682 C684 1.353 . S
C682 H724 0.929 . S
C683 C680 1.356 . S
C683 C685 1.358 . S
C683 H725 0.930 . S
C684 N681 1.314 . S
C684 C682 1.353 . S
C684 H726 0.930 . S
C685 N681 1.279 . S
C685 C683 1.358 . S
C685 H727 0.930 . S
C686 C687 1.348 . S
C686 C688 1.356 . S
C686 O711 1.325 . S
C687 C686 1.348 . S
C687 C689 1.353 . S
C687 H728 0.929 . S
C688 C686 1.356 . S
C688 C690 1.358 . S
C688 H729 0.930 . S
C689 C687 1.353 . S
C689 N691 1.314 . S
C689 H730 0.930 . S
C690 C688 1.358 . S
C690 N691 1.279 . S
C690 H731 0.930 . S
N691 C689 1.314 . S
N691 C690 1.279 . S
C692 C694 1.353 . S
C692 N695 1.314 . S
C692 H698 0.930 . S
C693 N695 1.279 . S
C693 C696 1.358 . S
C693 H699 0.930 . S
C694 C692 1.353 . S
C694 C697 1.348 . S
C694 H732 0.929 . S
N695 Li650 1.990 . S
N695 C692 1.314 . S
N695 C693 1.279 . S
C696 C693 1.358 . S
C696 C697 1.356 . S
C696 H733 0.930 . S
C697 C694 1.348 . S
C697 C696 1.356 . S
H698 C692 0.930 . S
H699 C693 0.930 . S
C700 N701 1.314 . S
C700 C702 1.353 . S
C700 H706 0.930 . S
N701 Li651 1.990 . S
N701 C700 1.314 . S
N701 C704 1.279 . S
C702 C700 1.353 . S
C702 C705 1.348 . S
C702 H734 0.929 . S
C703 C704 1.358 . S
C703 C705 1.356 . S
C703 H735 0.930 . S
C704 N701 1.279 . S
C704 C703 1.358 . S
C704 H707 0.930 . S
C705 C702 1.348 . S
C705 C703 1.356 . S
H706 C700 0.930 . S
H707 C704 0.930 . S
O708 Li648 1.956 . S
O708 Li649 1.970 . S
O708 Li650 1.961 . S
O708 C652 1.325 . S
O709 Li648 1.970 . S
O709 Li649 1.956 . S
O709 Li651 1.961 . S
O709 C658 1.325 . S
O710 Li648 1.961 . S
O710 Li650 1.956 . S
O710 Li651 1.970 . S
O710 C680 1.325 . S
O711 Li649 1.961 . S
O711 Li650 1.970 . S
O711 Li651 1.956 . S
O711 C686 1.325 . S
H712 C654 0.929 . S
H713 C655 0.930 . S
H714 C656 0.930 . S
H715 C657 0.930 . S
H716 C659 0.930 . S
H717 C661 0.929 . S
H718 C662 0.930 . S
H719 C663 0.930 . S
H720 C666 0.930 . S
H721 C669 0.929 . S
H722 C674 0.929 . S
H723 C675 0.930 . S
H724 C682 0.929 . S
H725 C683 0.930 . S
H726 C684 0.930 . S
H727 C685 0.930 . S
H728 C687 0.929 . S
H729 C688 0.930 . S
H730 C689 0.930 . S
H731 C690 0.930 . S
H732 C694 0.929 . S
H733 C696 0.930 . S
H734 C702 0.929 . S
H735 C703 0.930 . S
Li736 N753 1.990 . S
Li736 O796 1.956 . S
Li736 O797 1.970 . S
Li736 O798 1.961 . S
Li737 N761 1.990 . S
Li737 O796 1.970 . S
Li737 O797 1.956 . S
Li737 O799 1.961 . S
Li738 N783 1.990 . S
Li738 O796 1.961 . S
Li738 O798 1.956 . S
Li738 O799 1.970 . S
Li739 N789 1.990 . S
Li739 O797 1.961 . S
Li739 O798 1.970 . S
Li739 O799 1.956 . S
C740 C742 1.348 . S
C740 C743 1.356 . S
C740 O796 1.325 . S
N741 C744 1.314 . S
N741 C745 1.279 . S
C742 C740 1.348 . S
C742 C744 1.353 . S
C742 H800 0.929 . S
C743 C740 1.356 . S
C743 C745 1.358 . S
C743 H801 0.930 . S
C744 N741 1.314 . S
C744 C742 1.353 . S
C744 H802 0.930 . S
C745 N741 1.279 . S
C745 C743 1.358 . S
C745 H803 0.930 . S
C746 C749 1.348 . S
C746 C750 1.356 . S
C746 O797 1.325 . S
C747 N748 1.279 . S
C747 C750 1.358 . S
C747 H804 0.930 . S
N748 C747 1.279 . S
N748 C751 1.314 . S
C749 C746 1.348 . S
C749 C751 1.353 . S
C749 H805 0.929 . S
C750 C746 1.356 . S
C750 C747 1.358 . S
C750 H806 0.930 . S
C751 N748 1.314 . S
C751 C749 1.353 . S
C751 H807 0.930 . S
C752 N753 1.314 . S
C752 C757 1.353 . S
C752 H758 0.930 . S
N753 Li736 1.990 . S
N753 C752 1.314 . S
N753 C755 1.279 . S
C754 C755 1.358 . S
C754 C756 1.356 . S
C754 H808 0.930 . S
C755 N753 1.279 . S
C755 C754 1.358 . S
C755 H759 0.930 . S
C756 C754 1.356 . S
C756 C757 1.348 . S
C757 C752 1.353 . S
C757 C756 1.348 . S
C757 H809 0.929 . S
H758 C752 0.930 . S
H759 C755 0.930 . S
C760 N761 1.314 . S
C760 C762 1.353 . S
C760 H766 0.930 . S
N761 Li737 1.990 . S
N761 C760 1.314 . S
N761 C764 1.279 . S
C762 C760 1.353 . S
C762 C765 1.348 . S
C762 H810 0.929 . S
C763 C764 1.358 . S
C763 C765 1.356 . S
C763 H811 0.930 . S
C764 N761 1.279 . S
C764 C763 1.358 . S
C764 H767 0.930 . S
C765 C762 1.348 . S
C765 C763 1.356 . S
H766 C760 0.930 . S
H767 C764 0.930 . S
C768 C770 1.348 . S
C768 C771 1.356 . S
C768 O798 1.325 . S
N769 C772 1.314 . S
N769 C773 1.279 . S
C770 C768 1.348 . S
C770 C772 1.353 . S
C770 H812 0.929 . S
C771 C768 1.356 . S
C771 C773 1.358 . S
C771 H813 0.930 . S
C772 N769 1.314 . S
C772 C770 1.353 . S
C772 H814 0.930 . S
C773 N769 1.279 . S
C773 C771 1.358 . S
C773 H815 0.930 . S
C774 C775 1.348 . S
C774 C776 1.356 . S
C774 O799 1.325 . S
C775 C774 1.348 . S
C775 C777 1.353 . S
C775 H816 0.929 . S
C776 C774 1.356 . S
C776 C778 1.358 . S
C776 H817 0.930 . S
C777 C775 1.353 . S
C777 N779 1.314 . S
C777 H818 0.930 . S
C778 C776 1.358 . S
C778 N779 1.279 . S
C778 H819 0.930 . S
N779 C777 1.314 . S
N779 C778 1.279 . S
C780 C782 1.353 . S
C780 N783 1.314 . S
C780 H786 0.930 . S
C781 N783 1.279 . S
C781 C784 1.358 . S
C781 H787 0.930 . S
C782 C780 1.353 . S
C782 C785 1.348 . S
C782 H820 0.929 . S
N783 Li738 1.990 . S
N783 C780 1.314 . S
N783 C781 1.279 . S
C784 C781 1.358 . S
C784 C785 1.356 . S
C784 H821 0.930 . S
C785 C782 1.348 . S
C785 C784 1.356 . S
H786 C780 0.930 . S
H787 C781 0.930 . S
C788 N789 1.314 . S
C788 C790 1.353 . S
C788 H794 0.930 . S
N789 Li739 1.990 . S
N789 C788 1.314 . S
N789 C792 1.279 . S
C790 C788 1.353 . S
C790 C793 1.348 . S
C790 H822 0.929 . S
C791 C792 1.358 . S
C791 C793 1.356 . S
C791 H823 0.930 . S
C792 N789 1.279 . S
C792 C791 1.358 . S
C792 H795 0.930 . S
C793 C790 1.348 . S
C793 C791 1.356 . S
H794 C788 0.930 . S
H795 C792 0.930 . S
O796 Li736 1.956 . S
O796 Li737 1.970 . S
O796 Li738 1.961 . S
O796 C740 1.325 . S
O797 Li736 1.970 . S
O797 Li737 1.956 . S
O797 Li739 1.961 . S
O797 C746 1.325 . S
O798 Li736 1.961 . S
O798 Li738 1.956 . S
O798 Li739 1.970 . S
O798 C768 1.325 . S
O799 Li737 1.961 . S
O799 Li738 1.970 . S
O799 Li739 1.956 . S
O799 C774 1.325 . S
H800 C742 0.929 . S
H801 C743 0.930 . S
H802 C744 0.930 . S
H803 C745 0.930 . S
H804 C747 0.930 . S
H805 C749 0.929 . S
H806 C750 0.930 . S
H807 C751 0.930 . S
H808 C754 0.930 . S
H809 C757 0.929 . S
H810 C762 0.929 . S
H811 C763 0.930 . S
H812 C770 0.929 . S
H813 C771 0.930 . S
H814 C772 0.930 . S
H815 C773 0.930 . S
H816 C775 0.929 . S
H817 C776 0.930 . S
H818 C777 0.930 . S
H819 C778 0.930 . S
H820 C782 0.929 . S
H821 C784 0.930 . S
H822 C790 0.929 . S
H823 C791 0.930 . S
Li824 N841 1.990 . S
Li824 O884 1.956 . S
Li824 O885 1.970 1_565 S
Li824 O886 1.961 . S
Li825 N849 1.990 . S
Li825 O884 1.970 1_545 S
Li825 O885 1.956 . S
Li825 O887 1.961 . S
Li826 N871 1.990 . S
Li826 O884 1.961 . S
Li826 O886 1.956 . S
Li826 O887 1.970 1_565 S
Li827 N877 1.990 . S
Li827 O885 1.961 . S
Li827 O886 1.970 1_545 S
Li827 O887 1.956 . S
C828 C830 1.348 . S
C828 C831 1.356 . S
C828 O884 1.325 . S
N829 C832 1.314 . S
N829 C833 1.279 . S
C830 C828 1.348 . S
C830 C832 1.353 . S
C830 H888 0.929 . S
C831 C828 1.356 . S
C831 C833 1.358 . S
C831 H889 0.930 . S
C832 N829 1.314 . S
C832 C830 1.353 . S
C832 H890 0.930 . S
C833 N829 1.279 . S
C833 C831 1.358 . S
C833 H891 0.930 . S
C834 C837 1.348 1_545 S
C834 C838 1.356 . S
C834 O885 1.325 . S
C835 N836 1.279 . S
C835 C838 1.358 . S
C835 H892 0.930 . S
N836 C835 1.279 . S
N836 C839 1.314 . S
C837 C834 1.348 1_565 S
C837 C839 1.353 1_565 S
C837 H893 0.929 . S
C838 C834 1.356 . S
C838 C835 1.358 . S
C838 H894 0.930 . S
C839 N836 1.314 . S
C839 C837 1.353 1_545 S
C839 H895 0.930 1_545 S
C840 N841 1.314 . S
C840 C845 1.353 . S
C840 H846 0.930 . S
N841 Li824 1.990 . S
N841 C840 1.314 . S
N841 C843 1.279 . S
C842 C843 1.358 . S
C842 C844 1.356 . S
C842 H896 0.930 . S
C843 N841 1.279 . S
C843 C842 1.358 . S
C843 H847 0.930 . S
C844 C842 1.356 . S
C844 C845 1.348 . S
C845 C840 1.353 . S
C845 C844 1.348 . S
C845 H897 0.929 . S
H846 C840 0.930 . S
H847 C843 0.930 . S
C848 N849 1.314 . S
C848 C850 1.353 . S
C848 H854 0.930 . S
N849 Li825 1.990 . S
N849 C848 1.314 . S
N849 C852 1.279 . S
C850 C848 1.353 . S
C850 C853 1.348 . S
C850 H898 0.929 . S
C851 C852 1.358 . S
C851 C853 1.356 . S
C851 H899 0.930 . S
C852 N849 1.279 . S
C852 C851 1.358 . S
C852 H855 0.930 . S
C853 C850 1.348 . S
C853 C851 1.356 . S
H854 C848 0.930 . S
H855 C852 0.930 . S
C856 C858 1.348 1_565 S
C856 C859 1.356 . S
C856 O886 1.325 . S
N857 C860 1.314 1_565 S
N857 C861 1.279 . S
C858 C856 1.348 1_545 S
C858 C860 1.353 . S
C858 H900 0.929 . S
C859 C856 1.356 . S
C859 C861 1.358 . S
C859 H901 0.930 . S
C860 N857 1.314 1_545 S
C860 C858 1.353 . S
C860 H902 0.930 . S
C861 N857 1.279 . S
C861 C859 1.358 . S
C861 H903 0.930 . S
C862 C863 1.348 . S
C862 C864 1.356 . S
C862 O887 1.325 . S
C863 C862 1.348 . S
C863 C865 1.353 . S
C863 H904 0.929 . S
C864 C862 1.356 . S
C864 C866 1.358 . S
C864 H905 0.930 . S
C865 C863 1.353 . S
C865 N867 1.314 . S
C865 H906 0.930 . S
C866 C864 1.358 . S
C866 N867 1.279 . S
C866 H907 0.930 . S
N867 C865 1.314 . S
N867 C866 1.279 . S
C868 C870 1.353 . S
C868 N871 1.314 . S
C868 H874 0.930 . S
C869 N871 1.279 . S
C869 C872 1.358 . S
C869 H875 0.930 . S
C870 C868 1.353 . S
C870 C873 1.348 . S
C870 H908 0.929 . S
N871 Li826 1.990 . S
N871 C868 1.314 . S
N871 C869 1.279 . S
C872 C869 1.358 . S
C872 C873 1.356 . S
C872 H909 0.930 . S
C873 C870 1.348 . S
C873 C872 1.356 . S
H874 C868 0.930 . S
H875 C869 0.930 . S
C876 N877 1.314 . S
C876 C878 1.353 . S
C876 H882 0.930 . S
N877 Li827 1.990 . S
N877 C876 1.314 . S
N877 C880 1.279 . S
C878 C876 1.353 . S
C878 C881 1.348 . S
C878 H910 0.929 . S
C879 C880 1.358 . S
C879 C881 1.356 . S
C879 H911 0.930 . S
C880 N877 1.279 . S
C880 C879 1.358 . S
C880 H883 0.930 . S
C881 C878 1.348 . S
C881 C879 1.356 . S
H882 C876 0.930 . S
H883 C880 0.930 . S
O884 Li824 1.956 . S
O884 Li825 1.970 1_565 S
O884 Li826 1.961 . S
O884 C828 1.325 . S
O885 Li824 1.970 1_545 S
O885 Li825 1.956 . S
O885 Li827 1.961 . S
O885 C834 1.325 . S
O886 Li824 1.961 . S
O886 Li826 1.956 . S
O886 Li827 1.970 1_565 S
O886 C856 1.325 . S
O887 Li825 1.961 . S
O887 Li826 1.970 1_545 S
O887 Li827 1.956 . S
O887 C862 1.325 . S
H888 C830 0.929 . S
H889 C831 0.930 . S
H890 C832 0.930 . S
H891 C833 0.930 . S
H892 C835 0.930 . S
H893 C837 0.929 . S
H894 C838 0.930 . S
H895 C839 0.930 1_565 S
H896 C842 0.930 . S
H897 C845 0.929 . S
H898 C850 0.929 . S
H899 C851 0.930 . S
H900 C858 0.929 . S
H901 C859 0.930 . S
H902 C860 0.930 . S
H903 C861 0.930 . S
H904 C863 0.929 . S
H905 C864 0.930 . S
H906 C865 0.930 . S
H907 C866 0.930 . S
H908 C870 0.929 . S
H909 C872 0.930 . S
H910 C878 0.929 . S
H911 C879 0.930 . S
Li912 N929 1.990 . S
Li912 O972 1.956 . S
Li912 O973 1.962 1_455 S
Li912 O974 2.001 . S
Li913 N937 1.999 . S
Li913 O972 1.934 1_655 S
Li913 O973 1.955 . S
Li913 O975 1.987 . S
Li914 N959 1.990 . S
Li914 O972 1.961 . S
Li914 O974 1.956 . S
Li914 O975 1.970 1_455 S
Li915 N965 1.990 . S
Li915 O973 1.967 . S
Li915 O974 1.915 1_655 S
Li915 O975 1.956 . S
C916 C918 1.348 . S
C916 C919 1.356 . S
C916 O972 1.325 . S
N917 C920 1.314 . S
N917 C921 1.279 . S
C918 C916 1.348 . S
C918 C920 1.353 . S
C918 H976 0.929 . S
C919 C916 1.356 . S
C919 C921 1.358 . S
C919 H977 0.930 . S
C920 N917 1.314 . S
C920 C918 1.353 . S
C920 H978 0.930 . S
C921 N917 1.279 . S
C921 C919 1.358 . S
C921 H979 0.930 . S
C922 C925 1.348 1_655 S
C922 C926 1.356 . S
C922 O973 1.326 . S
C923 N924 1.279 . S
C923 C926 1.358 . S
C923 H980 0.930 . S
N924 C923 1.279 . S
N924 C927 1.314 1_655 S
C925 C922 1.348 1_455 S
C925 C927 1.353 . S
C925 H981 0.929 . S
C926 C922 1.356 . S
C926 C923 1.358 . S
C926 H982 0.930 . S
C927 N924 1.314 1_455 S
C927 C925 1.353 . S
C927 H983 0.930 . S
C928 N929 1.314 . S
C928 C933 1.353 . S
C928 H934 0.930 . S
N929 Li912 1.990 . S
N929 C928 1.314 . S
N929 C931 1.279 . S
C930 C931 1.358 . S
C930 C932 1.356 . S
C930 H984 0.930 . S
C931 N929 1.279 . S
C931 C930 1.358 . S
C931 H935 0.930 . S
C932 C930 1.356 . S
C932 C933 1.348 . S
C933 C928 1.353 . S
C933 C932 1.348 . S
C933 H985 0.929 . S
H934 C928 0.930 . S
H935 C931 0.930 . S
C936 N937 1.314 . S
C936 C938 1.353 . S
C936 H942 0.930 . S
N937 Li913 1.999 . S
N937 C936 1.314 . S
N937 C940 1.277 1_655 S
C938 C936 1.353 . S
C938 C941 1.348 . S
C938 H986 0.929 . S
C939 C940 1.357 . S
C939 C941 1.351 1_455 S
C939 H987 0.932 . S
C940 N937 1.277 1_455 S
C940 C939 1.357 . S
C940 H943 0.940 . S
C941 C938 1.348 . S
C941 C939 1.351 1_655 S
H942 C936 0.930 . S
H943 C940 0.940 . S
C944 C946 1.348 1_455 S
C944 C947 1.356 . S
C944 O974 1.339 . S
N945 C948 1.314 1_455 S
N945 C949 1.279 . S
C946 C944 1.348 1_655 S
C946 C948 1.353 . S
C946 H988 0.929 . S
C947 C944 1.356 . S
C947 C949 1.358 . S
C947 H989 0.930 . S
C948 N945 1.314 1_655 S
C948 C946 1.353 . S
C948 H990 0.930 . S
C949 N945 1.279 . S
C949 C947 1.358 . S
C949 H991 0.930 . S
C950 C951 1.348 . S
C950 C952 1.356 . S
C950 O975 1.325 . S
C951 C950 1.348 . S
C951 C953 1.353 . S
C951 H992 0.929 . S
C952 C950 1.356 . S
C952 C954 1.358 . S
C952 H993 0.930 . S
C953 C951 1.353 . S
C953 N955 1.314 . S
C953 H994 0.930 . S
C954 C952 1.358 . S
C954 N955 1.279 . S
C954 H995 0.930 . S
N955 C953 1.314 . S
N955 C954 1.279 . S
C956 C958 1.353 . S
C956 N959 1.314 . S
C956 H962 0.930 . S
C957 N959 1.280 . S
C957 C960 1.357 . S
C957 H963 0.929 1_455 S
C958 C956 1.353 . S
C958 C961 1.348 . S
C958 H996 0.929 . S
N959 Li914 1.990 . S
N959 C956 1.314 . S
N959 C957 1.280 . S
C960 C957 1.357 . S
C960 C961 1.359 . S
C960 H997 0.929 1_455 S
C961 C958 1.348 . S
C961 C960 1.359 . S
H962 C956 0.930 . S
H963 C957 0.929 1_655 S
C964 N965 1.314 . S
C964 C966 1.353 . S
C964 H970 0.930 . S
N965 Li915 1.990 . S
N965 C964 1.314 . S
N965 C968 1.279 . S
C966 C964 1.353 . S
C966 C969 1.348 . S
C966 H998 0.929 . S
C967 C968 1.358 . S
C967 C969 1.356 . S
C967 H999 0.930 . S
C968 N965 1.279 . S
C968 C967 1.358 . S
C968 H971 0.930 . S
C969 C966 1.348 . S
C969 C967 1.356 . S
H970 C964 0.930 . S
H971 C968 0.930 . S
O972 Li912 1.956 . S
O972 Li913 1.934 1_455 S
O972 Li914 1.961 . S
O972 C916 1.325 . S
O973 Li912 1.962 1_655 S
O973 Li913 1.955 . S
O973 Li915 1.967 . S
O973 C922 1.326 . S
O974 Li912 2.001 . S
O974 Li914 1.956 . S
O974 Li915 1.915 1_455 S
O974 C944 1.339 . S
O975 Li913 1.987 . S
O975 Li914 1.970 1_655 S
O975 Li915 1.956 . S
O975 C950 1.325 . S
H976 C918 0.929 . S
H977 C919 0.930 . S
H978 C920 0.930 . S
H979 C921 0.930 . S
H980 C923 0.930 . S
H981 C925 0.929 . S
H982 C926 0.930 . S
H983 C927 0.930 . S
H984 C930 0.930 . S
H985 C933 0.929 . S
H986 C938 0.929 . S
H987 C939 0.932 . S
H988 C946 0.929 . S
H989 C947 0.930 . S
H990 C948 0.930 . S
H991 C949 0.930 . S
H992 C951 0.929 . S
H993 C952 0.930 . S
H994 C953 0.930 . S
H995 C954 0.930 . S
H996 C958 0.929 . S
H997 C960 0.929 1_655 S
H998 C966 0.929 . S
H999 C967 0.930 . S
Li1000 N1017 1.990 . S
Li1000 O1060 1.956 . S
Li1000 O1061 1.970 . S
Li1000 O1062 1.961 . S
Li1001 N1025 1.990 . S
Li1001 O1060 1.970 . S
Li1001 O1061 1.956 . S
Li1001 O1063 1.961 . S
Li1002 N1047 1.990 . S
Li1002 O1060 1.961 . S
Li1002 O1062 1.956 . S
Li1002 O1063 1.970 . S
Li1003 N1053 1.990 . S
Li1003 O1061 1.961 . S
Li1003 O1062 1.970 . S
Li1003 O1063 1.956 . S
C1004 C1006 1.348 . S
C1004 C1007 1.356 . S
C1004 O1060 1.325 . S
N1005 C1008 1.314 . S
N1005 C1009 1.279 . S
C1006 C1004 1.348 . S
C1006 C1008 1.353 . S
C1006 H1064 0.929 . S
C1007 C1004 1.356 . S
C1007 C1009 1.358 . S
C1007 H1065 0.930 . S
C1008 N1005 1.314 . S
C1008 C1006 1.353 . S
C1008 H1066 0.930 . S
C1009 N1005 1.279 . S
C1009 C1007 1.358 . S
C1009 H1067 0.930 . S
C1010 C1013 1.348 . S
C1010 C1014 1.356 . S
C1010 O1061 1.325 . S
C1011 N1012 1.279 . S
C1011 C1014 1.358 . S
C1011 H1068 0.930 . S
N1012 C1011 1.279 . S
N1012 C1015 1.314 . S
C1013 C1010 1.348 . S
C1013 C1015 1.353 . S
C1013 H1069 0.929 . S
C1014 C1010 1.356 . S
C1014 C1011 1.358 . S
C1014 H1070 0.930 . S
C1015 N1012 1.314 . S
C1015 C1013 1.353 . S
C1015 H1071 0.930 . S
C1016 N1017 1.314 . S
C1016 C1021 1.353 . S
C1016 H1022 0.930 . S
N1017 Li1000 1.990 . S
N1017 C1016 1.314 . S
N1017 C1019 1.279 . S
C1018 C1019 1.358 . S
C1018 C1020 1.356 . S
C1018 H1072 0.930 . S
C1019 N1017 1.279 . S
C1019 C1018 1.358 . S
C1019 H1023 0.930 . S
C1020 C1018 1.356 . S
C1020 C1021 1.348 . S
C1021 C1016 1.353 . S
C1021 C1020 1.348 . S
C1021 H1073 0.929 . S
H1022 C1016 0.930 . S
H1023 C1019 0.930 . S
C1024 N1025 1.314 . S
C1024 C1026 1.353 . S
C1024 H1030 0.930 . S
N1025 Li1001 1.990 . S
N1025 C1024 1.314 . S
N1025 C1028 1.279 . S
C1026 C1024 1.353 . S
C1026 C1029 1.348 . S
C1026 H1074 0.929 . S
C1027 C1028 1.358 . S
C1027 C1029 1.356 . S
C1027 H1075 0.930 . S
C1028 N1025 1.279 . S
C1028 C1027 1.358 . S
C1028 H1031 0.930 . S
C1029 C1026 1.348 . S
C1029 C1027 1.356 . S
H1030 C1024 0.930 . S
H1031 C1028 0.930 . S
C1032 C1034 1.348 . S
C1032 C1035 1.356 . S
C1032 O1062 1.325 . S
N1033 C1036 1.314 . S
N1033 C1037 1.279 . S
C1034 C1032 1.348 . S
C1034 C1036 1.353 . S
C1034 H1076 0.929 . S
C1035 C1032 1.356 . S
C1035 C1037 1.358 . S
C1035 H1077 0.930 . S
C1036 N1033 1.314 . S
C1036 C1034 1.353 . S
C1036 H1078 0.930 . S
C1037 N1033 1.279 . S
C1037 C1035 1.358 . S
C1037 H1079 0.930 . S
C1038 C1039 1.348 . S
C1038 C1040 1.356 . S
C1038 O1063 1.325 . S
C1039 C1038 1.348 . S
C1039 C1041 1.353 . S
C1039 H1080 0.929 . S
C1040 C1038 1.356 . S
C1040 C1042 1.358 . S
C1040 H1081 0.930 . S
C1041 C1039 1.353 . S
C1041 N1043 1.314 . S
C1041 H1082 0.930 . S
C1042 C1040 1.358 . S
C1042 N1043 1.279 . S
C1042 H1083 0.930 . S
N1043 C1041 1.314 . S
N1043 C1042 1.279 . S
C1044 C1046 1.353 . S
C1044 N1047 1.314 . S
C1044 H1050 0.930 . S
C1045 N1047 1.279 . S
C1045 C1048 1.358 . S
C1045 H1051 0.930 . S
C1046 C1044 1.353 . S
C1046 C1049 1.348 . S
C1046 H1084 0.929 . S
N1047 Li1002 1.990 . S
N1047 C1044 1.314 . S
N1047 C1045 1.279 . S
C1048 C1045 1.358 . S
C1048 C1049 1.356 . S
C1048 H1085 0.930 . S
C1049 C1046 1.348 . S
C1049 C1048 1.356 . S
H1050 C1044 0.930 . S
H1051 C1045 0.930 . S
C1052 N1053 1.314 . S
C1052 C1054 1.353 . S
C1052 H1058 0.930 . S
N1053 Li1003 1.990 . S
N1053 C1052 1.314 . S
N1053 C1056 1.279 . S
C1054 C1052 1.353 . S
C1054 C1057 1.348 . S
C1054 H1086 0.929 . S
C1055 C1056 1.358 . S
C1055 C1057 1.356 . S
C1055 H1087 0.930 . S
C1056 N1053 1.279 . S
C1056 C1055 1.358 . S
C1056 H1059 0.930 . S
C1057 C1054 1.348 . S
C1057 C1055 1.356 . S
H1058 C1052 0.930 . S
H1059 C1056 0.930 . S
O1060 Li1000 1.956 . S
O1060 Li1001 1.970 . S
O1060 Li1002 1.961 . S
O1060 C1004 1.325 . S
O1061 Li1000 1.970 . S
O1061 Li1001 1.956 . S
O1061 Li1003 1.961 . S
O1061 C1010 1.325 . S
O1062 Li1000 1.961 . S
O1062 Li1002 1.956 . S
O1062 Li1003 1.970 . S
O1062 C1032 1.325 . S
O1063 Li1001 1.961 . S
O1063 Li1002 1.970 . S
O1063 Li1003 1.956 . S
O1063 C1038 1.325 . S
H1064 C1006 0.929 . S
H1065 C1007 0.930 . S
H1066 C1008 0.930 . S
H1067 C1009 0.930 . S
H1068 C1011 0.930 . S
H1069 C1013 0.929 . S
H1070 C1014 0.930 . S
H1071 C1015 0.930 . S
H1072 C1018 0.930 . S
H1073 C1021 0.929 . S
H1074 C1026 0.929 . S
H1075 C1027 0.930 . S
H1076 C1034 0.929 . S
H1077 C1035 0.930 . S
H1078 C1036 0.930 . S
H1079 C1037 0.930 . S
H1080 C1039 0.929 . S
H1081 C1040 0.930 . S
H1082 C1041 0.930 . S
H1083 C1042 0.930 . S
H1084 C1046 0.929 . S
H1085 C1048 0.930 . S
H1086 C1054 0.929 . S
H1087 C1055 0.930 . S
Li1088 N1105 1.990 . S
Li1088 O1148 1.956 . S
Li1088 O1149 2.010 . S
Li1088 O1150 1.961 . S
Li1089 N1113 1.990 1_455 S
Li1089 O1148 1.970 . S
Li1089 O1149 1.960 . S
Li1089 O1151 1.961 . S
Li1090 N1135 1.990 . S
Li1090 O1148 1.961 . S
Li1090 O1150 1.956 . S
Li1090 O1151 1.970 . S
Li1091 N1141 1.990 . S
Li1091 O1149 1.996 . S
Li1091 O1150 1.970 . S
Li1091 O1151 1.956 . S
C1092 C1094 1.348 . S
C1092 C1095 1.356 . S
C1092 O1148 1.325 . S
N1093 C1096 1.314 . S
N1093 C1097 1.279 . S
C1094 C1092 1.348 . S
C1094 C1096 1.353 . S
C1094 H1152 0.929 . S
C1095 C1092 1.356 . S
C1095 C1097 1.358 . S
C1095 H1153 0.930 . S
C1096 N1093 1.314 . S
C1096 C1094 1.353 . S
C1096 H1154 0.930 . S
C1097 N1093 1.279 . S
C1097 C1095 1.358 . S
C1097 H1155 0.930 . S
C1098 C1101 1.348 . S
C1098 C1102 1.356 . S
C1098 O1149 1.280 1_655 S
C1099 N1100 1.279 . S
C1099 C1102 1.358 . S
C1099 H1156 0.930 . S
N1100 C1099 1.279 . S
N1100 C1103 1.314 . S
C1101 C1098 1.348 . S
C1101 C1103 1.353 . S
C1101 H1157 0.929 . S
C1102 C1098 1.356 . S
C1102 C1099 1.358 . S
C1102 H1158 0.930 . S
C1103 N1100 1.314 . S
C1103 C1101 1.353 . S
C1103 H1159 0.930 . S
C1104 N1105 1.314 . S
C1104 C1109 1.353 . S
C1104 H1110 0.930 . S
N1105 Li1088 1.990 . S
N1105 C1104 1.314 . S
N1105 C1107 1.279 . S
C1106 C1107 1.358 . S
C1106 C1108 1.356 . S
C1106 H1160 0.930 . S
C1107 N1105 1.279 . S
C1107 C1106 1.358 . S
C1107 H1111 0.930 . S
C1108 C1106 1.356 . S
C1108 C1109 1.348 . S
C1109 C1104 1.353 . S
C1109 C1108 1.348 . S
C1109 H1161 0.929 . S
H1110 C1104 0.930 . S
H1111 C1107 0.930 . S
C1112 N1113 1.314 . S
C1112 C1114 1.353 . S
C1112 H1118 0.930 . S
N1113 Li1089 1.990 1_655 S
N1113 C1112 1.314 . S
N1113 C1116 1.279 . S
C1114 C1112 1.353 . S
C1114 C1117 1.348 . S
C1114 H1162 0.929 . S
C1115 C1116 1.358 . S
C1115 C1117 1.356 . S
C1115 H1163 0.930 . S
C1116 N1113 1.279 . S
C1116 C1115 1.358 . S
C1116 H1119 0.930 . S
C1117 C1114 1.348 . S
C1117 C1115 1.356 . S
H1118 C1112 0.930 . S
H1119 C1116 0.930 . S
C1120 C1122 1.348 . S
C1120 C1123 1.356 . S
C1120 O1150 1.325 . S
N1121 C1124 1.314 . S
N1121 C1125 1.279 . S
C1122 C1120 1.348 . S
C1122 C1124 1.353 . S
C1122 H1164 0.929 . S
C1123 C1120 1.356 . S
C1123 C1125 1.358 . S
C1123 H1165 0.930 . S
C1124 N1121 1.314 . S
C1124 C1122 1.353 . S
C1124 H1166 0.930 . S
C1125 N1121 1.279 . S
C1125 C1123 1.358 . S
C1125 H1167 0.930 . S
C1126 C1127 1.348 . S
C1126 C1128 1.352 . S
C1126 O1151 1.325 . S
C1127 C1126 1.348 . S
C1127 C1129 1.353 . S
C1127 H1168 0.929 . S
C1128 C1126 1.352 . S
C1128 C1130 1.359 1_455 S
C1128 H1169 0.933 1_455 S
C1129 C1127 1.353 . S
C1129 N1131 1.314 . S
C1129 H1170 0.930 . S
C1130 C1128 1.359 1_655 S
C1130 N1131 1.279 1_655 S
C1130 H1171 0.930 . S
N1131 C1129 1.314 . S
N1131 C1130 1.279 1_455 S
C1132 C1134 1.353 . S
C1132 N1135 1.314 . S
C1132 H1138 0.930 . S
C1133 N1135 1.279 . S
C1133 C1136 1.358 . S
C1133 H1139 0.930 . S
C1134 C1132 1.353 . S
C1134 C1137 1.348 . S
C1134 H1172 0.929 . S
N1135 Li1090 1.990 . S
N1135 C1132 1.314 . S
N1135 C1133 1.279 . S
C1136 C1133 1.358 . S
C1136 C1137 1.356 . S
C1136 H1173 0.930 . S
C1137 C1134 1.348 . S
C1137 C1136 1.356 . S
H1138 C1132 0.930 . S
H1139 C1133 0.930 . S
C1140 N1141 1.314 . S
C1140 C1142 1.356 . S
C1140 H1146 0.930 . S
N1141 Li1091 1.990 . S
N1141 C1140 1.314 . S
N1141 C1144 1.279 . S
C1142 C1140 1.356 . S
C1142 C1145 1.356 . S
C1142 H1174 0.920 1_455 S
C1143 C1144 1.358 . S
C1143 C1145 1.356 . S
C1143 H1175 0.930 . S
C1144 N1141 1.279 . S
C1144 C1143 1.358 . S
C1144 H1147 0.930 . S
C1145 C1142 1.356 . S
C1145 C1143 1.356 . S
H1146 C1140 0.930 . S
H1147 C1144 0.930 . S
O1148 Li1088 1.956 . S
O1148 Li1089 1.970 . S
O1148 Li1090 1.961 . S
O1148 C1092 1.325 . S
O1149 Li1088 2.010 . S
O1149 Li1089 1.960 . S
O1149 Li1091 1.996 . S
O1149 C1098 1.280 1_455 S
O1150 Li1088 1.961 . S
O1150 Li1090 1.956 . S
O1150 Li1091 1.970 . S
O1150 C1120 1.325 . S
O1151 Li1089 1.961 . S
O1151 Li1090 1.970 . S
O1151 Li1091 1.956 . S
O1151 C1126 1.325 . S
H1152 C1094 0.929 . S
H1153 C1095 0.930 . S
H1154 C1096 0.930 . S
H1155 C1097 0.930 . S
H1156 C1099 0.930 . S
H1157 C1101 0.929 . S
H1158 C1102 0.930 . S
H1159 C1103 0.930 . S
H1160 C1106 0.930 . S
H1161 C1109 0.929 . S
H1162 C1114 0.929 . S
H1163 C1115 0.930 . S
H1164 C1122 0.929 . S
H1165 C1123 0.930 . S
H1166 C1124 0.930 . S
H1167 C1125 0.930 . S
H1168 C1127 0.929 . S
H1169 C1128 0.933 1_655 S
H1170 C1129 0.930 . S
H1171 C1130 0.930 . S
H1172 C1134 0.929 . S
H1173 C1136 0.930 . S
H1174 C1142 0.920 1_655 S
H1175 C1143 0.930 . S
Li1176 N1193 1.990 . S
Li1176 O1236 1.956 . S
Li1176 O1237 1.970 . S
Li1176 O1238 1.961 . S
Li1177 N1201 1.990 . S
Li1177 O1236 1.970 . S
Li1177 O1237 1.956 . S
Li1177 O1239 1.961 . S
Li1178 N1223 1.990 . S
Li1178 O1236 1.961 . S
Li1178 O1238 1.956 . S
Li1178 O1239 1.970 . S
Li1179 N1229 1.990 . S
Li1179 O1237 1.961 . S
Li1179 O1238 1.970 . S
Li1179 O1239 1.956 . S
C1180 C1182 1.348 . S
C1180 C1183 1.356 . S
C1180 O1236 1.325 . S
N1181 C1184 1.314 . S
N1181 C1185 1.279 . S
C1182 C1180 1.348 . S
C1182 C1184 1.353 . S
C1182 H1240 0.929 . S
C1183 C1180 1.356 . S
C1183 C1185 1.358 . S
C1183 H1241 0.930 . S
C1184 N1181 1.314 . S
C1184 C1182 1.353 . S
C1184 H1242 0.930 . S
C1185 N1181 1.279 . S
C1185 C1183 1.358 . S
C1185 H1243 0.930 . S
C1186 C1189 1.348 . S
C1186 C1190 1.356 . S
C1186 O1237 1.325 . S
C1187 N1188 1.279 . S
C1187 C1190 1.358 . S
C1187 H1244 0.930 . S
N1188 C1187 1.279 . S
N1188 C1191 1.314 . S
C1189 C1186 1.348 . S
C1189 C1191 1.353 . S
C1189 H1245 0.929 . S
C1190 C1186 1.356 . S
C1190 C1187 1.358 . S
C1190 H1246 0.930 . S
C1191 N1188 1.314 . S
C1191 C1189 1.353 . S
C1191 H1247 0.930 . S
C1192 N1193 1.314 . S
C1192 C1197 1.353 . S
C1192 H1198 0.930 . S
N1193 Li1176 1.990 . S
N1193 C1192 1.314 . S
N1193 C1195 1.279 . S
C1194 C1195 1.358 . S
C1194 C1196 1.356 . S
C1194 H1248 0.930 . S
C1195 N1193 1.279 . S
C1195 C1194 1.358 . S
C1195 H1199 0.930 . S
C1196 C1194 1.356 . S
C1196 C1197 1.348 . S
C1197 C1192 1.353 . S
C1197 C1196 1.348 . S
C1197 H1249 0.929 . S
H1198 C1192 0.930 . S
H1199 C1195 0.930 . S
C1200 N1201 1.314 . S
C1200 C1202 1.353 . S
C1200 H1206 0.930 . S
N1201 Li1177 1.990 . S
N1201 C1200 1.314 . S
N1201 C1204 1.279 . S
C1202 C1200 1.353 . S
C1202 C1205 1.348 . S
C1202 H1250 0.929 . S
C1203 C1204 1.358 . S
C1203 C1205 1.356 . S
C1203 H1251 0.930 . S
C1204 N1201 1.279 . S
C1204 C1203 1.358 . S
C1204 H1207 0.930 . S
C1205 C1202 1.348 . S
C1205 C1203 1.356 . S
H1206 C1200 0.930 . S
H1207 C1204 0.930 . S
C1208 C1210 1.348 . S
C1208 C1211 1.356 . S
C1208 O1238 1.325 . S
N1209 C1212 1.314 . S
N1209 C1213 1.279 . S
C1210 C1208 1.348 . S
C1210 C1212 1.353 . S
C1210 H1252 0.929 . S
C1211 C1208 1.356 . S
C1211 C1213 1.358 . S
C1211 H1253 0.930 . S
C1212 N1209 1.314 . S
C1212 C1210 1.353 . S
C1212 H1254 0.930 . S
C1213 N1209 1.279 . S
C1213 C1211 1.358 . S
C1213 H1255 0.930 . S
C1214 C1215 1.348 . S
C1214 C1216 1.356 . S
C1214 O1239 1.325 . S
C1215 C1214 1.348 . S
C1215 C1217 1.353 . S
C1215 H1256 0.929 . S
C1216 C1214 1.356 . S
C1216 C1218 1.358 . S
C1216 H1257 0.930 . S
C1217 C1215 1.353 . S
C1217 N1219 1.314 . S
C1217 H1258 0.930 . S
C1218 C1216 1.358 . S
C1218 N1219 1.279 . S
C1218 H1259 0.930 . S
N1219 C1217 1.314 . S
N1219 C1218 1.279 . S
C1220 C1222 1.353 . S
C1220 N1223 1.314 . S
C1220 H1226 0.930 . S
C1221 N1223 1.279 . S
C1221 C1224 1.358 . S
C1221 H1227 0.930 . S
C1222 C1220 1.353 . S
C1222 C1225 1.348 . S
C1222 H1260 0.929 . S
N1223 Li1178 1.990 . S
N1223 C1220 1.314 . S
N1223 C1221 1.279 . S
C1224 C1221 1.358 . S
C1224 C1225 1.356 . S
C1224 H1261 0.930 . S
C1225 C1222 1.348 . S
C1225 C1224 1.356 . S
H1226 C1220 0.930 . S
H1227 C1221 0.930 . S
C1228 N1229 1.314 . S
C1228 C1230 1.353 . S
C1228 H1234 0.930 . S
N1229 Li1179 1.990 . S
N1229 C1228 1.314 . S
N1229 C1232 1.279 . S
C1230 C1228 1.353 . S
C1230 C1233 1.348 . S
C1230 H1262 0.929 . S
C1231 C1232 1.358 . S
C1231 C1233 1.356 . S
C1231 H1263 0.930 . S
C1232 N1229 1.279 . S
C1232 C1231 1.358 . S
C1232 H1235 0.930 . S
C1233 C1230 1.348 . S
C1233 C1231 1.356 . S
H1234 C1228 0.930 . S
H1235 C1232 0.930 . S
O1236 Li1176 1.956 . S
O1236 Li1177 1.970 . S
O1236 Li1178 1.961 . S
O1236 C1180 1.325 . S
O1237 Li1176 1.970 . S
O1237 Li1177 1.956 . S
O1237 Li1179 1.961 . S
O1237 C1186 1.325 . S
O1238 Li1176 1.961 . S
O1238 Li1178 1.956 . S
O1238 Li1179 1.970 . S
O1238 C1208 1.325 . S
O1239 Li1177 1.961 . S
O1239 Li1178 1.970 . S
O1239 Li1179 1.956 . S
O1239 C1214 1.325 . S
H1240 C1182 0.929 . S
H1241 C1183 0.930 . S
H1242 C1184 0.930 . S
H1243 C1185 0.930 . S
H1244 C1187 0.930 . S
H1245 C1189 0.929 . S
H1246 C1190 0.930 . S
H1247 C1191 0.930 . S
H1248 C1194 0.930 . S
H1249 C1197 0.929 . S
H1250 C1202 0.929 . S
H1251 C1203 0.930 . S
H1252 C1210 0.929 . S
H1253 C1211 0.930 . S
H1254 C1212 0.930 . S
H1255 C1213 0.930 . S
H1256 C1215 0.929 . S
H1257 C1216 0.930 . S
H1258 C1217 0.930 . S
H1259 C1218 0.930 . S
H1260 C1222 0.929 . S
H1261 C1224 0.930 . S
H1262 C1230 0.929 . S
H1263 C1231 0.930 . S
H1264 C1282 0.951 . S
H1265 C1284 0.951 . S
H1266 C1286 0.950 . S
H1267 C1287 0.950 . S
H1268 C1289 0.950 . S
H1269 C1292 0.950 . S
H1270 C1293 0.950 . S
H1271 C1295 0.950 . S
H1272 C1296 0.950 . S
H1273 C1297 0.951 . S
H1274 C1299 0.951 . S
H1275 C1301 0.950 . S
H1276 C1302 0.950 . S
H1277 C1304 0.950 . S
H1278 C1307 0.950 . S
H1279 C1308 0.950 . S
H1280 C1310 0.950 . S
H1281 C1311 0.950 . S
C1282 H1264 0.951 . S
C1282 C1283 1.366 . S
C1282 C1284 1.388 . S
C1283 C1282 1.366 . S
C1283 C1287 1.385 . S
C1284 H1265 0.951 . S
C1284 C1282 1.388 . S
C1284 C1285 1.366 . S
C1285 C1284 1.366 . S
C1285 C1286 1.414 . S
C1285 C1288 1.499 . S
C1286 H1266 0.950 . S
C1286 C1285 1.414 . S
C1286 C1287 1.374 . S
C1287 H1267 0.950 . S
C1287 C1283 1.385 . S
C1287 C1286 1.374 . S
C1288 C1285 1.499 . S
C1288 C1289 1.373 . S
C1288 C1290 1.389 . S
C1289 H1268 0.950 . S
C1289 C1288 1.373 . S
C1289 C1305 1.377 . S
C1290 C1288 1.389 . S
C1290 C1291 1.524 . S
C1290 C1304 1.377 . S
C1291 C1290 1.524 . S
C1291 C1292 1.397 . S
C1291 C1296 1.363 . S
C1292 H1269 0.950 . S
C1292 C1291 1.397 . S
C1292 C1293 1.334 . S
C1293 H1270 0.950 . S
C1293 C1292 1.334 . S
C1293 C1294 1.287 . S
C1294 C1293 1.287 . S
C1294 C1295 1.524 . S
C1294 H1313 0.913 . S
C1295 H1271 0.950 . S
C1295 C1294 1.524 . S
C1295 C1296 1.415 . S
C1296 H1272 0.950 . S
C1296 C1291 1.363 . S
C1296 C1295 1.415 . S
C1297 H1273 0.951 . S
C1297 C1298 1.366 . S
C1297 C1299 1.388 . S
C1298 C1297 1.366 . S
C1298 C1302 1.385 . S
C1299 H1274 0.951 . S
C1299 C1297 1.388 . S
C1299 C1300 1.366 . S
C1300 C1299 1.366 . S
C1300 C1301 1.414 . S
C1300 C1303 1.499 . S
C1301 H1275 0.950 . S
C1301 C1300 1.414 . S
C1301 C1302 1.374 . S
C1302 H1276 0.950 . S
C1302 C1298 1.385 . S
C1302 C1301 1.374 . S
C1303 C1300 1.499 . S
C1303 C1304 1.373 . S
C1303 C1305 1.389 . S
C1304 H1277 0.950 . S
C1304 C1290 1.377 . S
C1304 C1303 1.373 . S
C1305 C1289 1.377 . S
C1305 C1303 1.389 . S
C1305 C1306 1.524 . S
C1306 C1305 1.524 . S
C1306 C1307 1.397 . S
C1306 C1311 1.363 . S
C1307 H1278 0.950 . S
C1307 C1306 1.397 . S
C1307 C1308 1.334 . S
C1308 H1279 0.950 . S
C1308 C1307 1.334 . S
C1308 C1309 1.287 . S
C1309 C1308 1.287 . S
C1309 C1310 1.524 . S
C1309 H1312 0.999 . S
C1310 H1280 0.950 . S
C1310 C1309 1.524 . S
C1310 C1311 1.415 . S
C1311 H1281 0.950 . S
C1311 C1306 1.363 . S
C1311 C1310 1.415 . S
H1312 C1309 0.999 . S
H1313 C1294 0.913 . S
H1314 C1332 0.951 . S
H1315 C1334 0.951 . S
H1316 C1336 0.950 . S
H1317 C1337 0.950 . S
H1318 C1339 0.950 . S
H1319 C1342 0.950 . S
H1320 C1343 0.950 . S
H1321 C1345 0.950 . S
H1322 C1346 0.950 . S
H1323 C1347 0.951 . S
H1324 C1349 0.951 . S
H1325 C1351 0.950 . S
H1326 C1352 0.950 . S
H1327 C1354 0.950 . S
H1328 C1357 0.950 . S
H1329 C1358 0.950 . S
H1330 C1360 0.950 . S
H1331 C1361 0.950 . S
C1332 H1314 0.951 . S
C1332 C1333 1.366 . S
C1332 C1334 1.388 . S
C1333 C1332 1.366 . S
C1333 C1337 1.385 . S
C1334 H1315 0.951 . S
C1334 C1332 1.388 . S
C1334 C1335 1.366 . S
C1335 C1334 1.366 . S
C1335 C1336 1.414 . S
C1335 C1338 1.499 . S
C1336 H1316 0.950 . S
C1336 C1335 1.414 . S
C1336 C1337 1.374 . S
C1337 H1317 0.950 . S
C1337 C1333 1.385 . S
C1337 C1336 1.374 . S
C1338 C1335 1.499 . S
C1338 C1339 1.373 . S
C1338 C1340 1.389 . S
C1339 H1318 0.950 . S
C1339 C1338 1.373 . S
C1339 C1355 1.377 . S
C1340 C1338 1.389 . S
C1340 C1341 1.524 . S
C1340 C1354 1.377 . S
C1341 C1340 1.524 . S
C1341 C1342 1.397 . S
C1341 C1346 1.363 . S
C1342 H1319 0.950 . S
C1342 C1341 1.397 . S
C1342 C1343 1.334 . S
C1343 H1320 0.950 . S
C1343 C1342 1.334 . S
C1343 C1344 1.287 . S
C1344 C1343 1.287 . S
C1344 C1345 1.524 . S
C1344 H1363 0.913 . S
C1345 H1321 0.950 . S
C1345 C1344 1.524 . S
C1345 C1346 1.415 . S
C1346 H1322 0.950 . S
C1346 C1341 1.363 . S
C1346 C1345 1.415 . S
C1347 H1323 0.951 . S
C1347 C1348 1.366 . S
C1347 C1349 1.388 . S
C1348 C1347 1.366 . S
C1348 C1352 1.385 . S
C1349 H1324 0.951 . S
C1349 C1347 1.388 . S
C1349 C1350 1.366 . S
C1350 C1349 1.366 . S
C1350 C1351 1.414 . S
C1350 C1353 1.499 . S
C1351 H1325 0.950 . S
C1351 C1350 1.414 . S
C1351 C1352 1.374 . S
C1352 H1326 0.950 . S
C1352 C1348 1.385 . S
C1352 C1351 1.374 . S
C1353 C1350 1.499 . S
C1353 C1354 1.373 . S
C1353 C1355 1.389 . S
C1354 H1327 0.950 . S
C1354 C1340 1.377 . S
C1354 C1353 1.373 . S
C1355 C1339 1.377 . S
C1355 C1353 1.389 . S
C1355 C1356 1.524 . S
C1356 C1355 1.524 . S
C1356 C1357 1.397 . S
C1356 C1361 1.363 . S
C1357 H1328 0.950 . S
C1357 C1356 1.397 . S
C1357 C1358 1.334 . S
C1358 H1329 0.950 . S
C1358 C1357 1.334 . S
C1358 C1359 1.287 . S
C1359 C1358 1.287 . S
C1359 C1360 1.524 . S
C1359 H1362 0.999 . S
C1360 H1330 0.950 . S
C1360 C1359 1.524 . S
C1360 C1361 1.415 . S
C1361 H1331 0.950 . S
C1361 C1356 1.363 . S
C1361 C1360 1.415 . S
H1362 C1359 0.999 . S
H1363 C1344 0.913 . S
H1364 C1382 0.951 . S
H1365 C1384 0.951 . S
H1366 C1386 0.950 . S
H1367 C1387 0.950 . S
H1368 C1389 0.950 . S
H1369 C1392 0.950 . S
H1370 C1393 0.950 . S
H1371 C1395 0.950 . S
H1372 C1396 0.950 . S
H1373 C1397 0.951 . S
H1374 C1399 0.951 . S
H1375 C1401 0.950 . S
H1376 C1402 0.950 . S
H1377 C1404 0.950 . S
H1378 C1407 0.950 . S
H1379 C1408 0.950 . S
H1380 C1410 0.950 . S
H1381 C1411 0.950 . S
C1382 H1364 0.951 . S
C1382 C1383 1.366 . S
C1382 C1384 1.388 . S
C1383 C1382 1.366 . S
C1383 C1387 1.385 . S
C1384 H1365 0.951 . S
C1384 C1382 1.388 . S
C1384 C1385 1.366 . S
C1385 C1384 1.366 . S
C1385 C1386 1.414 . S
C1385 C1388 1.499 . S
C1386 H1366 0.950 . S
C1386 C1385 1.414 . S
C1386 C1387 1.374 . S
C1387 H1367 0.950 . S
C1387 C1383 1.385 . S
C1387 C1386 1.374 . S
C1388 C1385 1.499 . S
C1388 C1389 1.373 . S
C1388 C1390 1.389 . S
C1389 H1368 0.950 . S
C1389 C1388 1.373 . S
C1389 C1405 1.377 . S
C1390 C1388 1.389 . S
C1390 C1391 1.524 . S
C1390 C1404 1.377 . S
C1391 C1390 1.524 . S
C1391 C1392 1.397 . S
C1391 C1396 1.363 . S
C1392 H1369 0.950 . S
C1392 C1391 1.397 . S
C1392 C1393 1.334 . S
C1393 H1370 0.950 . S
C1393 C1392 1.334 . S
C1393 C1394 1.287 . S
C1394 C1393 1.287 . S
C1394 C1395 1.524 . S
C1394 H1413 0.913 . S
C1395 H1371 0.950 . S
C1395 C1394 1.524 . S
C1395 C1396 1.415 . S
C1396 H1372 0.950 . S
C1396 C1391 1.363 . S
C1396 C1395 1.415 . S
C1397 H1373 0.951 . S
C1397 C1398 1.366 . S
C1397 C1399 1.388 . S
C1398 C1397 1.366 . S
C1398 C1402 1.385 . S
C1399 H1374 0.951 . S
C1399 C1397 1.388 . S
C1399 C1400 1.366 . S
C1400 C1399 1.366 . S
C1400 C1401 1.414 . S
C1400 C1403 1.499 . S
C1401 H1375 0.950 . S
C1401 C1400 1.414 . S
C1401 C1402 1.374 . S
C1402 H1376 0.950 . S
C1402 C1398 1.385 . S
C1402 C1401 1.374 . S
C1403 C1400 1.499 . S
C1403 C1404 1.373 . S
C1403 C1405 1.389 . S
C1404 H1377 0.950 . S
C1404 C1390 1.377 . S
C1404 C1403 1.373 . S
C1405 C1389 1.377 . S
C1405 C1403 1.389 . S
C1405 C1406 1.524 . S
C1406 C1405 1.524 . S
C1406 C1407 1.397 . S
C1406 C1411 1.363 . S
C1407 H1378 0.950 . S
C1407 C1406 1.397 . S
C1407 C1408 1.334 . S
C1408 H1379 0.950 . S
C1408 C1407 1.334 . S
C1408 C1409 1.287 . S
C1409 C1408 1.287 . S
C1409 C1410 1.524 . S
C1409 H1412 0.999 . S
C1410 H1380 0.950 . S
C1410 C1409 1.524 . S
C1410 C1411 1.415 . S
C1411 H1381 0.950 . S
C1411 C1406 1.363 . S
C1411 C1410 1.415 . S
H1412 C1409 0.999 . S
H1413 C1394 0.913 . S
H1414 C1432 0.951 1_545 S
H1415 C1434 0.976 . S
H1416 C1436 0.950 . S
H1417 C1437 0.950 . S
H1418 C1439 0.950 . S
H1419 C1442 0.950 . S
H1420 C1443 0.950 . S
H1421 C1445 0.950 1_455 S
H1422 C1446 0.950 . S
H1423 C1447 0.951 . S
H1424 C1449 0.951 . S
H1425 C1451 0.950 . S
H1426 C1452 0.950 . S
H1427 C1454 0.950 . S
H1428 C1457 0.950 . S
H1429 C1458 0.950 . S
H1430 C1460 0.950 . S
H1431 C1461 0.950 . S
C1432 H1414 0.951 1_565 S
C1432 C1433 1.366 . S
C1432 C1434 1.380 1_565 S
C1433 C1432 1.366 . S
C1433 C1437 1.385 1_455 S
C1434 H1415 0.976 . S
C1434 C1432 1.380 1_545 S
C1434 C1435 1.350 1_445 S
C1435 C1434 1.350 1_665 S
C1435 C1436 1.414 . S
C1435 C1438 1.499 . S
C1436 H1416 0.950 . S
C1436 C1435 1.414 . S
C1436 C1437 1.374 . S
C1437 H1417 0.950 . S
C1437 C1433 1.385 1_655 S
C1437 C1436 1.374 . S
C1438 C1435 1.499 . S
C1438 C1439 1.373 . S
C1438 C1440 1.389 1_565 S
C1439 H1418 0.950 . S
C1439 C1438 1.373 . S
C1439 C1455 1.377 . S
C1440 C1438 1.389 1_545 S
C1440 C1441 1.524 . S
C1440 C1454 1.377 . S
C1441 C1440 1.524 . S
C1441 C1442 1.397 . S
C1441 C1446 1.363 . S
C1442 H1419 0.950 . S
C1442 C1441 1.397 . S
C1442 C1443 1.334 . S
C1443 H1420 0.950 . S
C1443 C1442 1.334 . S
C1443 C1444 1.287 . S
C1444 C1443 1.287 . S
C1444 C1445 1.524 . S
C1444 H1463 0.913 . S
C1445 H1421 0.950 1_655 S
C1445 C1444 1.524 . S
C1445 C1446 1.415 . S
C1446 H1422 0.950 . S
C1446 C1441 1.363 . S
C1446 C1445 1.415 . S
C1447 H1423 0.951 . S
C1447 C1448 1.366 1_565 S
C1447 C1449 1.388 . S
C1448 C1447 1.366 1_545 S
C1448 C1452 1.385 . S
C1449 H1424 0.951 . S
C1449 C1447 1.388 . S
C1449 C1450 1.366 1_565 S
C1450 C1449 1.366 1_545 S
C1450 C1451 1.414 . S
C1450 C1453 1.502 . S
C1451 H1425 0.950 . S
C1451 C1450 1.414 . S
C1451 C1452 1.374 . S
C1452 H1426 0.950 . S
C1452 C1448 1.385 . S
C1452 C1451 1.374 . S
C1453 C1450 1.502 . S
C1453 C1454 1.391 . S
C1453 C1455 1.369 1_545 S
C1454 H1427 0.950 . S
C1454 C1440 1.377 . S
C1454 C1453 1.391 . S
C1455 C1439 1.377 . S
C1455 C1453 1.369 1_565 S
C1455 C1456 1.524 . S
C1456 C1455 1.524 . S
C1456 C1457 1.397 . S
C1456 C1461 1.363 . S
C1457 H1428 0.950 . S
C1457 C1456 1.397 . S
C1457 C1458 1.334 . S
C1458 H1429 0.950 . S
C1458 C1457 1.334 . S
C1458 C1459 1.287 . S
C1459 C1458 1.287 . S
C1459 C1460 1.524 . S
C1459 H1462 0.999 . S
C1460 H1430 0.950 . S
C1460 C1459 1.524 . S
C1460 C1461 1.415 . S
C1461 H1431 0.950 . S
C1461 C1456 1.363 . S
C1461 C1460 1.415 . S
H1462 C1459 0.999 . S
H1463 C1444 0.913 . S
H1464 C1482 0.951 . S
H1465 C1484 0.951 . S
H1466 C1486 0.950 . S
H1467 C1487 0.950 . S
H1468 C1489 0.950 . S
H1469 C1492 0.950 . S
H1470 C1493 0.950 . S
H1471 C1495 0.950 . S
H1472 C1496 0.950 . S
H1473 C1497 0.951 . S
H1474 C1499 0.951 . S
H1475 C1501 0.950 . S
H1476 C1502 0.950 . S
H1477 C1504 0.950 . S
H1478 C1507 0.950 . S
H1479 C1508 0.950 . S
H1480 C1510 0.950 . S
H1481 C1511 0.950 . S
C1482 H1464 0.951 . S
C1482 C1483 1.366 . S
C1482 C1484 1.388 . S
C1483 C1482 1.366 . S
C1483 C1487 1.385 . S
C1484 H1465 0.951 . S
C1484 C1482 1.388 . S
C1484 C1485 1.366 . S
C1485 C1484 1.366 . S
C1485 C1486 1.414 . S
C1485 C1488 1.499 . S
C1486 H1466 0.950 . S
C1486 C1485 1.414 . S
C1486 C1487 1.374 . S
C1487 H1467 0.950 . S
C1487 C1483 1.385 . S
C1487 C1486 1.374 . S
C1488 C1485 1.499 . S
C1488 C1489 1.373 . S
C1488 C1490 1.389 . S
C1489 H1468 0.950 . S
C1489 C1488 1.373 . S
C1489 C1505 1.377 . S
C1490 C1488 1.389 . S
C1490 C1491 1.524 . S
C1490 C1504 1.377 . S
C1491 C1490 1.524 . S
C1491 C1492 1.397 . S
C1491 C1496 1.363 . S
C1492 H1469 0.950 . S
C1492 C1491 1.397 . S
C1492 C1493 1.334 . S
C1493 H1470 0.950 . S
C1493 C1492 1.334 . S
C1493 C1494 1.287 . S
C1494 C1493 1.287 . S
C1494 C1495 1.524 . S
C1494 H1513 0.913 . S
C1495 H1471 0.950 . S
C1495 C1494 1.524 . S
C1495 C1496 1.415 . S
C1496 H1472 0.950 . S
C1496 C1491 1.363 . S
C1496 C1495 1.415 . S
C1497 H1473 0.951 . S
C1497 C1498 1.366 . S
C1497 C1499 1.388 . S
C1498 C1497 1.366 . S
C1498 C1502 1.385 . S
C1499 H1474 0.951 . S
C1499 C1497 1.388 . S
C1499 C1500 1.366 . S
C1500 C1499 1.366 . S
C1500 C1501 1.414 . S
C1500 C1503 1.499 . S
C1501 H1475 0.950 . S
C1501 C1500 1.414 . S
C1501 C1502 1.374 . S
C1502 H1476 0.950 . S
C1502 C1498 1.385 . S
C1502 C1501 1.374 . S
C1503 C1500 1.499 . S
C1503 C1504 1.373 . S
C1503 C1505 1.389 . S
C1504 H1477 0.950 . S
C1504 C1490 1.377 . S
C1504 C1503 1.373 . S
C1505 C1489 1.377 . S
C1505 C1503 1.389 . S
C1505 C1506 1.524 . S
C1506 C1505 1.524 . S
C1506 C1507 1.397 . S
C1506 C1511 1.363 . S
C1507 H1478 0.950 . S
C1507 C1506 1.397 . S
C1507 C1508 1.334 . S
C1508 H1479 0.950 . S
C1508 C1507 1.334 . S
C1508 C1509 1.287 . S
C1509 C1508 1.287 . S
C1509 C1510 1.524 . S
C1509 H1512 0.999 . S
C1510 H1480 0.950 . S
C1510 C1509 1.524 . S
C1510 C1511 1.415 . S
C1511 H1481 0.950 . S
C1511 C1506 1.363 . S
C1511 C1510 1.415 . S
H1512 C1509 0.999 . S
H1513 C1494 0.913 . S
H1514 C1532 0.951 . S
H1515 C1534 0.951 . S
H1516 C1536 0.950 . S
H1517 C1537 0.950 . S
H1518 C1539 0.950 . S
H1519 C1542 0.950 . S
H1520 C1543 0.950 . S
H1521 C1545 0.950 . S
H1522 C1546 0.950 . S
H1523 C1547 0.951 . S
H1524 C1549 0.951 . S
H1525 C1551 0.950 . S
H1526 C1552 0.950 . S
H1527 C1554 0.950 . S
H1528 C1557 0.950 . S
H1529 C1558 0.950 . S
H1530 C1560 0.950 . S
H1531 C1561 0.950 . S
C1532 H1514 0.951 . S
C1532 C1533 1.366 . S
C1532 C1534 1.388 . S
C1533 C1532 1.366 . S
C1533 C1537 1.385 . S
C1534 H1515 0.951 . S
C1534 C1532 1.388 . S
C1534 C1535 1.366 . S
C1535 C1534 1.366 . S
C1535 C1536 1.414 . S
C1535 C1538 1.499 . S
C1536 H1516 0.950 . S
C1536 C1535 1.414 . S
C1536 C1537 1.374 . S
C1537 H1517 0.950 . S
C1537 C1533 1.385 . S
C1537 C1536 1.374 . S
C1538 C1535 1.499 . S
C1538 C1539 1.373 . S
C1538 C1540 1.389 . S
C1539 H1518 0.950 . S
C1539 C1538 1.373 . S
C1539 C1555 1.377 . S
C1540 C1538 1.389 . S
C1540 C1541 1.524 . S
C1540 C1554 1.377 . S
C1541 C1540 1.524 . S
C1541 C1542 1.397 . S
C1541 C1546 1.363 . S
C1542 H1519 0.950 . S
C1542 C1541 1.397 . S
C1542 C1543 1.334 . S
C1543 H1520 0.950 . S
C1543 C1542 1.334 . S
C1543 C1544 1.287 . S
C1544 C1543 1.287 . S
C1544 C1545 1.524 . S
C1544 H1563 0.913 . S
C1545 H1521 0.950 . S
C1545 C1544 1.524 . S
C1545 C1546 1.415 . S
C1546 H1522 0.950 . S
C1546 C1541 1.363 . S
C1546 C1545 1.415 . S
C1547 H1523 0.951 . S
C1547 C1548 1.366 . S
C1547 C1549 1.388 . S
C1548 C1547 1.366 . S
C1548 C1552 1.385 . S
C1549 H1524 0.951 . S
C1549 C1547 1.388 . S
C1549 C1550 1.366 . S
C1550 C1549 1.366 . S
C1550 C1551 1.414 . S
C1550 C1553 1.499 . S
C1551 H1525 0.950 . S
C1551 C1550 1.414 . S
C1551 C1552 1.374 . S
C1552 H1526 0.950 . S
C1552 C1548 1.385 . S
C1552 C1551 1.374 . S
C1553 C1550 1.499 . S
C1553 C1554 1.373 . S
C1553 C1555 1.389 . S
C1554 H1527 0.950 . S
C1554 C1540 1.377 . S
C1554 C1553 1.373 . S
C1555 C1539 1.377 . S
C1555 C1553 1.389 . S
C1555 C1556 1.524 . S
C1556 C1555 1.524 . S
C1556 C1557 1.397 . S
C1556 C1561 1.363 . S
C1557 H1528 0.950 . S
C1557 C1556 1.397 . S
C1557 C1558 1.334 . S
C1558 H1529 0.950 . S
C1558 C1557 1.334 . S
C1558 C1559 1.287 . S
C1559 C1558 1.287 . S
C1559 C1560 1.524 . S
C1559 H1562 0.999 . S
C1560 H1530 0.950 . S
C1560 C1559 1.524 . S
C1560 C1561 1.415 . S
C1561 H1531 0.950 . S
C1561 C1556 1.363 . S
C1561 C1560 1.415 . S
H1562 C1559 0.999 . S
H1563 C1544 0.913 . S
H1564 C1582 0.951 . S
H1565 C1584 0.951 . S
H1566 C1586 0.950 . S
H1567 C1587 0.950 . S
H1568 C1589 0.950 . S
H1569 C1592 0.950 . S
H1570 C1593 0.950 . S
H1571 C1595 0.950 . S
H1572 C1596 0.950 . S
H1573 C1597 0.951 . S
H1574 C1599 0.951 . S
H1575 C1601 0.950 . S
H1576 C1602 0.950 . S
H1577 C1604 0.950 . S
H1578 C1607 0.950 . S
H1579 C1608 0.950 . S
H1580 C1610 0.950 . S
H1581 C1611 0.950 . S
C1582 H1564 0.951 . S
C1582 C1583 1.366 . S
C1582 C1584 1.388 . S
C1583 C1582 1.366 . S
C1583 C1587 1.385 . S
C1584 H1565 0.951 . S
C1584 C1582 1.388 . S
C1584 C1585 1.366 . S
C1585 C1584 1.366 . S
C1585 C1586 1.414 . S
C1585 C1588 1.499 . S
C1586 H1566 0.950 . S
C1586 C1585 1.414 . S
C1586 C1587 1.374 . S
C1587 H1567 0.950 . S
C1587 C1583 1.385 . S
C1587 C1586 1.374 . S
C1588 C1585 1.499 . S
C1588 C1589 1.373 . S
C1588 C1590 1.389 . S
C1589 H1568 0.950 . S
C1589 C1588 1.373 . S
C1589 C1605 1.377 . S
C1590 C1588 1.389 . S
C1590 C1591 1.524 . S
C1590 C1604 1.377 . S
C1591 C1590 1.524 . S
C1591 C1592 1.397 . S
C1591 C1596 1.363 . S
C1592 H1569 0.950 . S
C1592 C1591 1.397 . S
C1592 C1593 1.334 . S
C1593 H1570 0.950 . S
C1593 C1592 1.334 . S
C1593 C1594 1.287 . S
C1594 C1593 1.287 . S
C1594 C1595 1.524 . S
C1594 H1613 0.913 . S
C1595 H1571 0.950 . S
C1595 C1594 1.524 . S
C1595 C1596 1.415 . S
C1596 H1572 0.950 . S
C1596 C1591 1.363 . S
C1596 C1595 1.415 . S
C1597 H1573 0.951 . S
C1597 C1598 1.366 . S
C1597 C1599 1.388 . S
C1598 C1597 1.366 . S
C1598 C1602 1.385 . S
C1599 H1574 0.951 . S
C1599 C1597 1.388 . S
C1599 C1600 1.366 . S
C1600 C1599 1.366 . S
C1600 C1601 1.414 . S
C1600 C1603 1.499 . S
C1601 H1575 0.950 . S
C1601 C1600 1.414 . S
C1601 C1602 1.374 . S
C1602 H1576 0.950 . S
C1602 C1598 1.385 . S
C1602 C1601 1.374 . S
C1603 C1600 1.499 . S
C1603 C1604 1.373 . S
C1603 C1605 1.389 . S
C1604 H1577 0.950 . S
C1604 C1590 1.377 . S
C1604 C1603 1.373 . S
C1605 C1589 1.377 . S
C1605 C1603 1.389 . S
C1605 C1606 1.524 . S
C1606 C1605 1.524 . S
C1606 C1607 1.397 . S
C1606 C1611 1.363 . S
C1607 H1578 0.950 . S
C1607 C1606 1.397 . S
C1607 C1608 1.334 . S
C1608 H1579 0.950 . S
C1608 C1607 1.334 . S
C1608 C1609 1.287 . S
C1609 C1608 1.287 . S
C1609 C1610 1.524 . S
C1609 H1612 0.999 . S
C1610 H1580 0.950 . S
C1610 C1609 1.524 . S
C1610 C1611 1.415 . S
C1611 H1581 0.950 . S
C1611 C1606 1.363 . S
C1611 C1610 1.415 . S
H1612 C1609 0.999 . S
H1613 C1594 0.913 . S
H1614 C1632 0.951 . S
H1615 C1634 0.951 . S
H1616 C1636 0.950 . S
H1617 C1637 0.950 . S
H1618 C1639 0.950 . S
H1619 C1642 0.950 . S
H1620 C1643 0.950 . S
H1621 C1645 0.950 . S
H1622 C1646 0.950 . S
H1623 C1647 0.951 . S
H1624 C1649 0.951 . S
H1625 C1651 0.950 . S
H1626 C1652 0.950 . S
H1627 C1654 0.950 . S
H1628 C1657 0.950 . S
H1629 C1658 0.950 . S
H1630 C1660 0.950 . S
H1631 C1661 0.950 . S
C1632 H1614 0.951 . S
C1632 C1633 1.366 . S
C1632 C1634 1.388 . S
C1633 C1632 1.366 . S
C1633 C1637 1.385 . S
C1634 H1615 0.951 . S
C1634 C1632 1.388 . S
C1634 C1635 1.366 . S
C1635 C1634 1.366 . S
C1635 C1636 1.414 . S
C1635 C1638 1.499 . S
C1636 H1616 0.950 . S
C1636 C1635 1.414 . S
C1636 C1637 1.374 . S
C1637 H1617 0.950 . S
C1637 C1633 1.385 . S
C1637 C1636 1.374 . S
C1638 C1635 1.499 . S
C1638 C1639 1.373 . S
C1638 C1640 1.389 . S
C1639 H1618 0.950 . S
C1639 C1638 1.373 . S
C1639 C1655 1.377 . S
C1640 C1638 1.389 . S
C1640 C1641 1.524 . S
C1640 C1654 1.377 . S
C1641 C1640 1.524 . S
C1641 C1642 1.397 . S
C1641 C1646 1.363 . S
C1642 H1619 0.950 . S
C1642 C1641 1.397 . S
C1642 C1643 1.334 . S
C1643 H1620 0.950 . S
C1643 C1642 1.334 . S
C1643 C1644 1.287 . S
C1644 C1643 1.287 . S
C1644 C1645 1.524 . S
C1644 H1663 0.913 . S
C1645 H1621 0.950 . S
C1645 C1644 1.524 . S
C1645 C1646 1.415 . S
C1646 H1622 0.950 . S
C1646 C1641 1.363 . S
C1646 C1645 1.415 . S
C1647 H1623 0.951 . S
C1647 C1648 1.366 . S
C1647 C1649 1.388 . S
C1648 C1647 1.366 . S
C1648 C1652 1.385 . S
C1649 H1624 0.951 . S
C1649 C1647 1.388 . S
C1649 C1650 1.366 . S
C1650 C1649 1.366 . S
C1650 C1651 1.414 . S
C1650 C1653 1.499 . S
C1651 H1625 0.950 . S
C1651 C1650 1.414 . S
C1651 C1652 1.374 . S
C1652 H1626 0.950 . S
C1652 C1648 1.385 . S
C1652 C1651 1.374 . S
C1653 C1650 1.499 . S
C1653 C1654 1.373 . S
C1653 C1655 1.389 . S
C1654 H1627 0.950 . S
C1654 C1640 1.377 . S
C1654 C1653 1.373 . S
C1655 C1639 1.377 . S
C1655 C1653 1.389 . S
C1655 C1656 1.524 . S
C1656 C1655 1.524 . S
C1656 C1657 1.397 1_565 S
C1656 C1661 1.363 . S
C1657 H1628 0.950 . S
C1657 C1656 1.397 1_545 S
C1657 C1658 1.334 . S
C1658 H1629 0.950 . S
C1658 C1657 1.334 . S
C1658 C1659 1.287 . S
C1659 C1658 1.287 . S
C1659 C1660 1.524 1_545 S
C1659 H1662 0.999 . S
C1660 H1630 0.950 . S
C1660 C1659 1.524 1_565 S
C1660 C1661 1.415 . S
C1661 H1631 0.950 . S
C1661 C1656 1.363 . S
C1661 C1660 1.415 . S
H1662 C1659 0.999 . S
H1663 C1644 0.913 . S
H1664 C1682 0.951 . S
H1665 C1684 0.951 . S
H1666 C1686 0.950 . S
H1667 C1687 0.950 . S
H1668 C1689 0.950 . S
H1669 C1692 0.950 . S
H1670 C1693 0.950 . S
H1671 C1695 0.950 . S
H1672 C1696 0.950 . S
H1673 C1697 0.951 . S
H1674 C1699 0.951 . S
H1675 C1701 0.950 . S
H1676 C1702 0.950 . S
H1677 C1704 0.950 . S
H1678 C1707 0.950 . S
H1679 C1708 0.950 . S
H1680 C1710 0.950 . S
H1681 C1711 0.950 . S
C1682 H1664 0.951 . S
C1682 C1683 1.366 . S
C1682 C1684 1.388 . S
C1683 C1682 1.366 . S
C1683 C1687 1.385 . S
C1684 H1665 0.951 . S
C1684 C1682 1.388 . S
C1684 C1685 1.366 . S
C1685 C1684 1.366 . S
C1685 C1686 1.414 . S
C1685 C1688 1.499 . S
C1686 H1666 0.950 . S
C1686 C1685 1.414 . S
C1686 C1687 1.374 . S
C1687 H1667 0.950 . S
C1687 C1683 1.385 . S
C1687 C1686 1.374 . S
C1688 C1685 1.499 . S
C1688 C1689 1.373 . S
C1688 C1690 1.389 . S
C1689 H1668 0.950 . S
C1689 C1688 1.373 . S
C1689 C1705 1.377 . S
C1690 C1688 1.389 . S
C1690 C1691 1.524 . S
C1690 C1704 1.377 . S
C1691 C1690 1.524 . S
C1691 C1692 1.397 . S
C1691 C1696 1.363 . S
C1692 H1669 0.950 . S
C1692 C1691 1.397 . S
C1692 C1693 1.334 . S
C1693 H1670 0.950 . S
C1693 C1692 1.334 . S
C1693 C1694 1.287 . S
C1694 C1693 1.287 . S
C1694 C1695 1.524 . S
C1694 H1713 0.913 . S
C1695 H1671 0.950 . S
C1695 C1694 1.524 . S
C1695 C1696 1.415 . S
C1696 H1672 0.950 . S
C1696 C1691 1.363 . S
C1696 C1695 1.415 . S
C1697 H1673 0.951 . S
C1697 C1698 1.366 . S
C1697 C1699 1.388 . S
C1698 C1697 1.366 . S
C1698 C1702 1.385 . S
C1699 H1674 0.951 . S
C1699 C1697 1.388 . S
C1699 C1700 1.366 . S
C1700 C1699 1.366 . S
C1700 C1701 1.414 . S
C1700 C1703 1.499 . S
C1701 H1675 0.950 . S
C1701 C1700 1.414 . S
C1701 C1702 1.374 . S
C1702 H1676 0.950 . S
C1702 C1698 1.385 . S
C1702 C1701 1.374 . S
C1703 C1700 1.499 . S
C1703 C1704 1.373 . S
C1703 C1705 1.389 . S
C1704 H1677 0.950 . S
C1704 C1690 1.377 . S
C1704 C1703 1.373 . S
C1705 C1689 1.377 . S
C1705 C1703 1.389 . S
C1705 C1706 1.524 . S
C1706 C1705 1.524 . S
C1706 C1707 1.397 . S
C1706 C1711 1.363 . S
C1707 H1678 0.950 . S
C1707 C1706 1.397 . S
C1707 C1708 1.334 . S
C1708 H1679 0.950 . S
C1708 C1707 1.334 . S
C1708 C1709 1.287 . S
C1709 C1708 1.287 . S
C1709 C1710 1.524 . S
C1709 H1712 0.999 . S
C1710 H1680 0.950 . S
C1710 C1709 1.524 . S
C1710 C1711 1.415 . S
C1711 H1681 0.950 . S
C1711 C1706 1.363 . S
C1711 C1710 1.415 . S
H1712 C1709 0.999 . S
H1713 C1694 0.913 . S
H1714 C1732 0.951 . S
H1715 C1734 0.951 . S
H1716 C1736 0.950 . S
H1717 C1737 0.950 . S
H1718 C1739 0.950 . S
H1719 C1742 0.950 . S
H1720 C1743 0.950 . S
H1721 C1745 0.950 . S
H1722 C1746 0.950 . S
H1723 C1747 0.951 . S
H1724 C1749 0.951 . S
H1725 C1751 0.950 . S
H1726 C1752 0.950 . S
H1727 C1754 0.950 . S
H1728 C1757 0.950 . S
H1729 C1758 0.950 . S
H1730 C1760 0.950 . S
H1731 C1761 0.950 . S
C1732 H1714 0.951 . S
C1732 C1733 1.366 . S
C1732 C1734 1.388 . S
C1733 C1732 1.366 . S
C1733 C1737 1.385 . S
C1734 H1715 0.951 . S
C1734 C1732 1.388 . S
C1734 C1735 1.366 . S
C1735 C1734 1.366 . S
C1735 C1736 1.414 . S
C1735 C1738 1.499 . S
C1736 H1716 0.950 . S
C1736 C1735 1.414 . S
C1736 C1737 1.374 . S
C1737 H1717 0.950 . S
C1737 C1733 1.385 . S
C1737 C1736 1.374 . S
C1738 C1735 1.499 . S
C1738 C1739 1.373 . S
C1738 C1740 1.389 . S
C1739 H1718 0.950 . S
C1739 C1738 1.373 . S
C1739 C1755 1.377 . S
C1740 C1738 1.389 . S
C1740 C1741 1.524 . S
C1740 C1754 1.377 . S
C1741 C1740 1.524 . S
C1741 C1742 1.397 . S
C1741 C1746 1.363 . S
C1742 H1719 0.950 . S
C1742 C1741 1.397 . S
C1742 C1743 1.334 . S
C1743 H1720 0.950 . S
C1743 C1742 1.334 . S
C1743 C1744 1.287 . S
C1744 C1743 1.287 . S
C1744 C1745 1.524 . S
C1744 H1763 0.913 . S
C1745 H1721 0.950 . S
C1745 C1744 1.524 . S
C1745 C1746 1.415 . S
C1746 H1722 0.950 . S
C1746 C1741 1.363 . S
C1746 C1745 1.415 . S
C1747 H1723 0.951 . S
C1747 C1748 1.366 . S
C1747 C1749 1.388 . S
C1748 C1747 1.366 . S
C1748 C1752 1.385 . S
C1749 H1724 0.951 . S
C1749 C1747 1.388 . S
C1749 C1750 1.366 . S
C1750 C1749 1.366 . S
C1750 C1751 1.414 . S
C1750 C1753 1.499 . S
C1751 H1725 0.950 . S
C1751 C1750 1.414 . S
C1751 C1752 1.374 . S
C1752 H1726 0.950 . S
C1752 C1748 1.385 . S
C1752 C1751 1.374 . S
C1753 C1750 1.499 . S
C1753 C1754 1.373 . S
C1753 C1755 1.389 . S
C1754 H1727 0.950 . S
C1754 C1740 1.377 . S
C1754 C1753 1.373 . S
C1755 C1739 1.377 . S
C1755 C1753 1.389 . S
C1755 C1756 1.524 . S
C1756 C1755 1.524 . S
C1756 C1757 1.397 . S
C1756 C1761 1.363 . S
C1757 H1728 0.950 . S
C1757 C1756 1.397 . S
C1757 C1758 1.334 . S
C1758 H1729 0.950 . S
C1758 C1757 1.334 . S
C1758 C1759 1.287 . S
C1759 C1758 1.287 . S
C1759 C1760 1.524 . S
C1759 H1762 0.999 . S
C1760 H1730 0.950 . S
C1760 C1759 1.524 . S
C1760 C1761 1.415 . S
C1761 H1731 0.950 . S
C1761 C1756 1.363 . S
C1761 C1760 1.415 . S
H1762 C1759 0.999 . S
H1763 C1744 0.913 . S
H1764 C1782 0.951 . S
H1765 C1784 0.951 . S
H1766 C1786 0.950 . S
H1767 C1787 0.950 . S
H1768 C1789 0.950 . S
H1769 C1792 0.950 . S
H1770 C1793 0.950 . S
H1771 C1795 0.950 . S
H1772 C1796 0.950 . S
H1773 C1797 0.951 . S
H1774 C1799 0.951 . S
H1775 C1801 0.950 . S
H1776 C1802 0.950 . S
H1777 C1804 0.950 . S
H1778 C1807 0.950 . S
H1779 C1808 0.950 . S
H1780 C1810 0.950 . S
H1781 C1811 0.950 . S
C1782 H1764 0.951 . S
C1782 C1783 1.366 . S
C1782 C1784 1.388 . S
C1783 C1782 1.366 . S
C1783 C1787 1.385 . S
C1784 H1765 0.951 . S
C1784 C1782 1.388 . S
C1784 C1785 1.366 . S
C1785 C1784 1.366 . S
C1785 C1786 1.414 . S
C1785 C1788 1.499 . S
C1786 H1766 0.950 . S
C1786 C1785 1.414 . S
C1786 C1787 1.374 . S
C1787 H1767 0.950 . S
C1787 C1783 1.385 . S
C1787 C1786 1.374 . S
C1788 C1785 1.499 . S
C1788 C1789 1.373 . S
C1788 C1790 1.389 . S
C1789 H1768 0.950 . S
C1789 C1788 1.373 . S
C1789 C1805 1.377 . S
C1790 C1788 1.389 . S
C1790 C1791 1.524 . S
C1790 C1804 1.377 . S
C1791 C1790 1.524 . S
C1791 C1792 1.397 . S
C1791 C1796 1.363 . S
C1792 H1769 0.950 . S
C1792 C1791 1.397 . S
C1792 C1793 1.334 . S
C1793 H1770 0.950 . S
C1793 C1792 1.334 . S
C1793 C1794 1.287 . S
C1794 C1793 1.287 . S
C1794 C1795 1.524 . S
C1794 H1813 0.913 . S
C1795 H1771 0.950 . S
C1795 C1794 1.524 . S
C1795 C1796 1.415 . S
C1796 H1772 0.950 . S
C1796 C1791 1.363 . S
C1796 C1795 1.415 . S
C1797 H1773 0.951 . S
C1797 C1798 1.366 . S
C1797 C1799 1.388 . S
C1798 C1797 1.366 . S
C1798 C1802 1.385 . S
C1799 H1774 0.951 . S
C1799 C1797 1.388 . S
C1799 C1800 1.366 . S
C1800 C1799 1.366 . S
C1800 C1801 1.414 . S
C1800 C1803 1.499 . S
C1801 H1775 0.950 . S
C1801 C1800 1.414 . S
C1801 C1802 1.374 . S
C1802 H1776 0.950 . S
C1802 C1798 1.385 . S
C1802 C1801 1.374 . S
C1803 C1800 1.499 . S
C1803 C1804 1.373 . S
C1803 C1805 1.389 . S
C1804 H1777 0.950 . S
C1804 C1790 1.377 . S
C1804 C1803 1.373 . S
C1805 C1789 1.377 . S
C1805 C1803 1.389 . S
C1805 C1806 1.524 . S
C1806 C1805 1.524 . S
C1806 C1807 1.397 . S
C1806 C1811 1.363 . S
C1807 H1778 0.950 . S
C1807 C1806 1.397 . S
C1807 C1808 1.334 . S
C1808 H1779 0.950 . S
C1808 C1807 1.334 . S
C1808 C1809 1.287 . S
C1809 C1808 1.287 . S
C1809 C1810 1.524 . S
C1809 H1812 0.999 . S
C1810 H1780 0.950 . S
C1810 C1809 1.524 . S
C1810 C1811 1.415 . S
C1811 H1781 0.950 . S
C1811 C1806 1.363 . S
C1811 C1810 1.415 . S
H1812 C1809 0.999 . S
H1813 C1794 0.913 . S
H1814 C1832 0.951 . S
H1815 C1834 0.951 . S
H1816 C1836 0.950 . S
H1817 C1837 0.950 . S
H1818 C1839 0.950 . S
H1819 C1842 0.950 . S
H1820 C1843 0.950 . S
H1821 C1845 0.950 . S
H1822 C1846 0.950 . S
H1823 C1847 0.951 . S
H1824 C1849 0.951 . S
H1825 C1851 0.950 . S
H1826 C1852 0.950 . S
H1827 C1854 0.950 . S
H1828 C1857 0.950 . S
H1829 C1858 0.950 . S
H1830 C1860 0.950 . S
H1831 C1861 0.950 . S
C1832 H1814 0.951 . S
C1832 C1833 1.366 . S
C1832 C1834 1.388 . S
C1833 C1832 1.366 . S
C1833 C1837 1.385 . S
C1834 H1815 0.951 . S
C1834 C1832 1.388 . S
C1834 C1835 1.366 . S
C1835 C1834 1.366 . S
C1835 C1836 1.414 . S
C1835 C1838 1.499 . S
C1836 H1816 0.950 . S
C1836 C1835 1.414 . S
C1836 C1837 1.374 . S
C1837 H1817 0.950 . S
C1837 C1833 1.385 . S
C1837 C1836 1.374 . S
C1838 C1835 1.499 . S
C1838 C1839 1.373 . S
C1838 C1840 1.389 . S
C1839 H1818 0.950 . S
C1839 C1838 1.373 . S
C1839 C1855 1.377 . S
C1840 C1838 1.389 . S
C1840 C1841 1.524 . S
C1840 C1854 1.377 . S
C1841 C1840 1.524 . S
C1841 C1842 1.397 . S
C1841 C1846 1.363 . S
C1842 H1819 0.950 . S
C1842 C1841 1.397 . S
C1842 C1843 1.334 . S
C1843 H1820 0.950 . S
C1843 C1842 1.334 . S
C1843 C1844 1.287 . S
C1844 C1843 1.287 . S
C1844 C1845 1.524 . S
C1844 H1863 0.913 . S
C1845 H1821 0.950 . S
C1845 C1844 1.524 . S
C1845 C1846 1.415 . S
C1846 H1822 0.950 . S
C1846 C1841 1.363 . S
C1846 C1845 1.415 . S
C1847 H1823 0.951 . S
C1847 C1848 1.366 . S
C1847 C1849 1.388 . S
C1848 C1847 1.366 . S
C1848 C1852 1.385 . S
C1849 H1824 0.951 . S
C1849 C1847 1.388 . S
C1849 C1850 1.366 . S
C1850 C1849 1.366 . S
C1850 C1851 1.414 . S
C1850 C1853 1.499 . S
C1851 H1825 0.950 . S
C1851 C1850 1.414 . S
C1851 C1852 1.374 . S
C1852 H1826 0.950 . S
C1852 C1848 1.385 . S
C1852 C1851 1.374 . S
C1853 C1850 1.499 . S
C1853 C1854 1.373 . S
C1853 C1855 1.389 . S
C1854 H1827 0.950 . S
C1854 C1840 1.377 . S
C1854 C1853 1.373 . S
C1855 C1839 1.377 . S
C1855 C1853 1.389 . S
C1855 C1856 1.524 . S
C1856 C1855 1.524 . S
C1856 C1857 1.397 . S
C1856 C1861 1.363 . S
C1857 H1828 0.950 . S
C1857 C1856 1.397 . S
C1857 C1858 1.334 . S
C1858 H1829 0.950 . S
C1858 C1857 1.334 . S
C1858 C1859 1.287 . S
C1859 C1858 1.287 . S
C1859 C1860 1.524 . S
C1859 H1862 0.999 . S
C1860 H1830 0.950 . S
C1860 C1859 1.524 . S
C1860 C1861 1.415 . S
C1861 H1831 0.950 . S
C1861 C1856 1.363 . S
C1861 C1860 1.415 . S
H1862 C1859 0.999 . S
H1863 C1844 0.913 . S
H1864 C1882 0.951 . S
H1865 C1884 0.951 . S
H1866 C1886 0.950 . S
H1867 C1887 0.950 . S
H1868 C1889 0.950 . S
H1869 C1892 0.950 . S
H1870 C1893 0.950 . S
H1871 C1895 0.950 . S
H1872 C1896 0.950 . S
H1873 C1897 0.951 . S
H1874 C1899 0.951 . S
H1875 C1901 0.950 . S
H1876 C1902 0.950 . S
H1877 C1904 0.950 . S
H1878 C1907 0.950 . S
H1879 C1908 0.950 . S
H1880 C1910 0.950 . S
H1881 C1911 0.950 . S
C1882 H1864 0.951 . S
C1882 C1883 1.366 . S
C1882 C1884 1.388 . S
C1883 C1882 1.366 . S
C1883 C1887 1.385 . S
C1884 H1865 0.951 . S
C1884 C1882 1.388 . S
C1884 C1885 1.366 . S
C1885 C1884 1.366 . S
C1885 C1886 1.414 . S
C1885 C1888 1.499 . S
C1886 H1866 0.950 . S
C1886 C1885 1.414 . S
C1886 C1887 1.374 . S
C1887 H1867 0.950 . S
C1887 C1883 1.385 . S
C1887 C1886 1.374 . S
C1888 C1885 1.499 . S
C1888 C1889 1.373 . S
C1888 C1890 1.389 . S
C1889 H1868 0.950 . S
C1889 C1888 1.373 . S
C1889 C1905 1.377 . S
C1890 C1888 1.389 . S
C1890 C1891 1.524 . S
C1890 C1904 1.377 . S
C1891 C1890 1.524 . S
C1891 C1892 1.397 . S
C1891 C1896 1.363 . S
C1892 H1869 0.950 . S
C1892 C1891 1.397 . S
C1892 C1893 1.334 . S
C1893 H1870 0.950 . S
C1893 C1892 1.334 . S
C1893 C1894 1.287 . S
C1894 C1893 1.287 . S
C1894 C1895 1.524 . S
C1894 H1913 0.913 . S
C1895 H1871 0.950 . S
C1895 C1894 1.524 . S
C1895 C1896 1.415 . S
C1896 H1872 0.950 . S
C1896 C1891 1.363 . S
C1896 C1895 1.415 . S
C1897 H1873 0.951 . S
C1897 C1898 1.366 . S
C1897 C1899 1.388 . S
C1898 C1897 1.366 . S
C1898 C1902 1.385 . S
C1899 H1874 0.951 . S
C1899 C1897 1.388 . S
C1899 C1900 1.366 . S
C1900 C1899 1.366 . S
C1900 C1901 1.414 . S
C1900 C1903 1.499 . S
C1901 H1875 0.950 . S
C1901 C1900 1.414 . S
C1901 C1902 1.374 . S
C1902 H1876 0.950 . S
C1902 C1898 1.385 . S
C1902 C1901 1.374 . S
C1903 C1900 1.499 . S
C1903 C1904 1.373 . S
C1903 C1905 1.389 . S
C1904 H1877 0.950 . S
C1904 C1890 1.377 . S
C1904 C1903 1.373 . S
C1905 C1889 1.377 . S
C1905 C1903 1.389 . S
C1905 C1906 1.524 . S
C1906 C1905 1.524 . S
C1906 C1907 1.397 . S
C1906 C1911 1.363 . S
C1907 H1878 0.950 . S
C1907 C1906 1.397 . S
C1907 C1908 1.334 . S
C1908 H1879 0.950 . S
C1908 C1907 1.334 . S
C1908 C1909 1.287 . S
C1909 C1908 1.287 . S
C1909 C1910 1.524 . S
C1909 H1912 0.999 . S
C1910 H1880 0.950 . S
C1910 C1909 1.524 . S
C1910 C1911 1.415 . S
C1911 H1881 0.950 . S
C1911 C1906 1.363 . S
C1911 C1910 1.415 . S
H1912 C1909 0.999 . S
H1913 C1894 0.913 . S
H1914 C1932 0.951 . S
H1915 C1934 0.951 . S
H1916 C1936 0.950 . S
H1917 C1937 0.950 . S
H1918 C1939 0.950 . S
H1919 C1942 0.950 . S
H1920 C1943 0.950 . S
H1921 C1945 0.950 . S
H1922 C1946 0.950 . S
H1923 C1947 0.951 . S
H1924 C1949 0.951 . S
H1925 C1951 0.950 . S
H1926 C1952 0.950 . S
H1927 C1954 0.950 . S
H1928 C1957 0.950 . S
H1929 C1958 0.950 . S
H1930 C1960 0.950 . S
H1931 C1961 0.978 . S
C1932 H1914 0.951 . S
C1932 C1933 1.366 . S
C1932 C1934 1.388 . S
C1933 C1932 1.366 . S
C1933 C1937 1.385 . S
C1934 H1915 0.951 . S
C1934 C1932 1.388 . S
C1934 C1935 1.366 . S
C1935 C1934 1.366 . S
C1935 C1936 1.414 . S
C1935 C1938 1.499 . S
C1936 H1916 0.950 . S
C1936 C1935 1.414 . S
C1936 C1937 1.374 . S
C1937 H1917 0.950 . S
C1937 C1933 1.385 . S
C1937 C1936 1.374 . S
C1938 C1935 1.499 . S
C1938 C1939 1.373 . S
C1938 C1940 1.389 . S
C1939 H1918 0.950 . S
C1939 C1938 1.373 . S
C1939 C1955 1.377 . S
C1940 C1938 1.389 . S
C1940 C1941 1.524 . S
C1940 C1954 1.377 . S
C1941 C1940 1.524 . S
C1941 C1942 1.397 . S
C1941 C1946 1.363 . S
C1942 H1919 0.950 . S
C1942 C1941 1.397 . S
C1942 C1943 1.334 . S
C1943 H1920 0.950 . S
C1943 C1942 1.334 . S
C1943 C1944 1.287 . S
C1944 C1943 1.287 . S
C1944 C1945 1.524 . S
C1944 H1963 0.913 . S
C1945 H1921 0.950 . S
C1945 C1944 1.524 . S
C1945 C1946 1.415 . S
C1946 H1922 0.950 . S
C1946 C1941 1.363 . S
C1946 C1945 1.415 . S
C1947 H1923 0.951 . S
C1947 C1948 1.366 . S
C1947 C1949 1.388 . S
C1948 C1947 1.366 . S
C1948 C1952 1.385 . S
C1949 H1924 0.951 . S
C1949 C1947 1.388 . S
C1949 C1950 1.366 . S
C1950 C1949 1.366 . S
C1950 C1951 1.414 . S
C1950 C1953 1.499 . S
C1951 H1925 0.950 . S
C1951 C1950 1.414 . S
C1951 C1952 1.374 . S
C1952 H1926 0.950 . S
C1952 C1948 1.385 . S
C1952 C1951 1.374 . S
C1953 C1950 1.499 . S
C1953 C1954 1.373 . S
C1953 C1955 1.389 . S
C1954 H1927 0.950 . S
C1954 C1940 1.377 . S
C1954 C1953 1.373 . S
C1955 C1939 1.377 . S
C1955 C1953 1.389 . S
C1955 C1956 1.524 . S
C1956 C1955 1.524 . S
C1956 C1957 1.397 . S
C1956 C1961 1.303 1_455 S
C1957 H1928 0.950 . S
C1957 C1956 1.397 . S
C1957 C1958 1.334 . S
C1958 H1929 0.950 . S
C1958 C1957 1.334 . S
C1958 C1959 1.287 . S
C1959 C1958 1.287 . S
C1959 C1960 1.524 1_455 S
C1959 H1962 0.999 1_455 S
C1960 H1930 0.950 . S
C1960 C1959 1.524 1_655 S
C1960 C1961 1.450 . S
C1961 H1931 0.978 . S
C1961 C1956 1.303 1_655 S
C1961 C1960 1.450 . S
H1962 C1959 0.999 1_655 S
H1963 C1944 0.913 . S
H1964 C1982 0.951 . S
H1965 C1984 0.951 . S
H1966 C1986 0.950 . S
H1967 C1987 0.950 . S
H1968 C1989 0.950 . S
H1969 C1992 0.950 . S
H1970 C1993 0.950 . S
H1971 C1995 0.950 . S
H1972 C1996 0.950 . S
H1973 C1997 0.951 . S
H1974 C1999 0.951 . S
H1975 C2001 0.950 . S
H1976 C2002 0.950 . S
H1977 C2004 0.950 . S
H1978 C2007 0.950 . S
H1979 C2008 0.950 . S
H1980 C2010 0.950 . S
H1981 C2011 0.950 . S
C1982 H1964 0.951 . S
C1982 C1983 1.366 . S
C1982 C1984 1.388 . S
C1983 C1982 1.366 . S
C1983 C1987 1.385 . S
C1984 H1965 0.951 . S
C1984 C1982 1.388 . S
C1984 C1985 1.366 . S
C1985 C1984 1.366 . S
C1985 C1986 1.414 . S
C1985 C1988 1.499 . S
C1986 H1966 0.950 . S
C1986 C1985 1.414 . S
C1986 C1987 1.374 . S
C1987 H1967 0.950 . S
C1987 C1983 1.385 . S
C1987 C1986 1.374 . S
C1988 C1985 1.499 . S
C1988 C1989 1.373 . S
C1988 C1990 1.389 . S
C1989 H1968 0.950 . S
C1989 C1988 1.373 . S
C1989 C2005 1.377 . S
C1990 C1988 1.389 . S
C1990 C1991 1.524 . S
C1990 C2004 1.377 . S
C1991 C1990 1.524 . S
C1991 C1992 1.397 . S
C1991 C1996 1.363 . S
C1992 H1969 0.950 . S
C1992 C1991 1.397 . S
C1992 C1993 1.334 . S
C1993 H1970 0.950 . S
C1993 C1992 1.334 . S
C1993 C1994 1.287 . S
C1994 C1993 1.287 . S
C1994 C1995 1.524 . S
C1994 H2013 0.913 . S
C1995 H1971 0.950 . S
C1995 C1994 1.524 . S
C1995 C1996 1.415 . S
C1996 H1972 0.950 . S
C1996 C1991 1.363 . S
C1996 C1995 1.415 . S
C1997 H1973 0.951 . S
C1997 C1998 1.366 . S
C1997 C1999 1.388 . S
C1998 C1997 1.366 . S
C1998 C2002 1.385 . S
C1999 H1974 0.951 . S
C1999 C1997 1.388 . S
C1999 C2000 1.366 . S
C2000 C1999 1.366 . S
C2000 C2001 1.414 . S
C2000 C2003 1.499 . S
C2001 H1975 0.950 . S
C2001 C2000 1.414 . S
C2001 C2002 1.374 . S
C2002 H1976 0.950 . S
C2002 C1998 1.385 . S
C2002 C2001 1.374 . S
C2003 C2000 1.499 . S
C2003 C2004 1.373 . S
C2003 C2005 1.389 . S
C2004 H1977 0.950 . S
C2004 C1990 1.377 . S
C2004 C2003 1.373 . S
C2005 C1989 1.377 . S
C2005 C2003 1.389 . S
C2005 C2006 1.524 . S
C2006 C2005 1.524 . S
C2006 C2007 1.397 . S
C2006 C2011 1.363 . S
C2007 H1978 0.950 . S
C2007 C2006 1.397 . S
C2007 C2008 1.334 . S
C2008 H1979 0.950 . S
C2008 C2007 1.334 . S
C2008 C2009 1.287 . S
C2009 C2008 1.287 . S
C2009 C2010 1.524 . S
C2009 H2012 0.999 . S
C2010 H1980 0.950 . S
C2010 C2009 1.524 . S
C2010 C2011 1.415 . S
C2011 H1981 0.950 . S
C2011 C2006 1.363 . S
C2011 C2010 1.415 . S
H2012 C2009 0.999 . S
H2013 C1994 0.913 . S
H2014 C2032 0.951 . S
H2015 C2034 0.951 . S
H2016 C2036 0.950 . S
H2017 C2037 0.950 . S
H2018 C2039 0.950 . S
H2019 C2042 0.950 1_655 S
H2020 C2043 0.950 . S
H2021 C2045 0.950 . S
H2022 C2046 0.950 . S
H2023 C2047 0.951 . S
H2024 C2049 0.951 . S
H2025 C2051 0.950 . S
H2026 C2052 0.950 . S
H2027 C2054 0.950 . S
H2028 C2057 0.950 . S
H2029 C2058 0.950 . S
H2030 C2060 0.950 . S
H2031 C2061 0.950 . S
C2032 H2014 0.951 . S
C2032 C2033 1.366 1_455 S
C2032 C2034 1.388 . S
C2033 C2032 1.366 1_655 S
C2033 C2037 1.385 . S
C2034 H2015 0.951 . S
C2034 C2032 1.388 . S
C2034 C2035 1.366 1_455 S
C2035 C2034 1.366 1_655 S
C2035 C2036 1.414 . S
C2035 C2038 1.499 . S
C2036 H2016 0.950 . S
C2036 C2035 1.414 . S
C2036 C2037 1.374 . S
C2037 H2017 0.950 . S
C2037 C2033 1.385 . S
C2037 C2036 1.374 . S
C2038 C2035 1.499 . S
C2038 C2039 1.373 . S
C2038 C2040 1.389 1_655 S
C2039 H2018 0.950 . S
C2039 C2038 1.373 . S
C2039 C2055 1.377 . S
C2040 C2038 1.389 1_455 S
C2040 C2041 1.524 . S
C2040 C2054 1.377 . S
C2041 C2040 1.524 . S
C2041 C2042 1.397 . S
C2041 C2046 1.363 . S
C2042 H2019 0.950 1_455 S
C2042 C2041 1.397 . S
C2042 C2043 1.334 . S
C2043 H2020 0.950 . S
C2043 C2042 1.334 . S
C2043 C2044 1.287 . S
C2044 C2043 1.287 . S
C2044 C2045 1.524 . S
C2044 H2063 0.913 . S
C2045 H2021 0.950 . S
C2045 C2044 1.524 . S
C2045 C2046 1.415 . S
C2046 H2022 0.950 . S
C2046 C2041 1.363 . S
C2046 C2045 1.415 . S
C2047 H2023 0.951 . S
C2047 C2048 1.361 1_655 S
C2047 C2049 1.388 . S
C2048 C2047 1.361 1_455 S
C2048 C2052 1.389 . S
C2049 H2024 0.951 . S
C2049 C2047 1.388 . S
C2049 C2050 1.366 . S
C2050 C2049 1.366 . S
C2050 C2051 1.414 1_655 S
C2050 C2053 1.499 . S
C2051 H2025 0.950 . S
C2051 C2050 1.414 1_455 S
C2051 C2052 1.374 . S
C2052 H2026 0.950 . S
C2052 C2048 1.389 . S
C2052 C2051 1.374 . S
C2053 C2050 1.499 . S
C2053 C2054 1.373 1_655 S
C2053 C2055 1.389 . S
C2054 H2027 0.950 . S
C2054 C2040 1.377 . S
C2054 C2053 1.373 1_455 S
C2055 C2039 1.377 . S
C2055 C2053 1.389 . S
C2055 C2056 1.524 . S
C2056 C2055 1.524 . S
C2056 C2057 1.397 . S
C2056 C2061 1.363 . S
C2057 H2028 0.950 . S
C2057 C2056 1.397 . S
C2057 C2058 1.334 . S
C2058 H2029 0.950 . S
C2058 C2057 1.334 . S
C2058 C2059 1.287 . S
C2059 C2058 1.287 . S
C2059 C2060 1.524 . S
C2059 H2062 0.999 . S
C2060 H2030 0.950 . S
C2060 C2059 1.524 . S
C2060 C2061 1.415 . S
C2061 H2031 0.950 . S
C2061 C2056 1.363 . S
C2061 C2060 1.415 . S
H2062 C2059 0.999 . S
H2063 C2044 0.913 . S
H2064 C2082 0.951 . S
H2065 C2084 0.951 . S
H2066 C2086 0.950 . S
H2067 C2087 0.950 . S
H2068 C2089 0.950 . S
H2069 C2092 0.950 . S
H2070 C2093 0.950 . S
H2071 C2095 0.950 . S
H2072 C2096 0.950 . S
H2073 C2097 0.951 . S
H2074 C2099 0.951 . S
H2075 C2101 0.950 . S
H2076 C2102 0.950 . S
H2077 C2104 0.950 . S
H2078 C2107 0.950 . S
H2079 C2108 0.950 . S
H2080 C2110 0.950 . S
H2081 C2111 0.950 . S
C2082 H2064 0.951 . S
C2082 C2083 1.366 . S
C2082 C2084 1.388 . S
C2083 C2082 1.366 . S
C2083 C2087 1.385 . S
C2084 H2065 0.951 . S
C2084 C2082 1.388 . S
C2084 C2085 1.366 . S
C2085 C2084 1.366 . S
C2085 C2086 1.414 . S
C2085 C2088 1.499 . S
C2086 H2066 0.950 . S
C2086 C2085 1.414 . S
C2086 C2087 1.374 . S
C2087 H2067 0.950 . S
C2087 C2083 1.385 . S
C2087 C2086 1.374 . S
C2088 C2085 1.499 . S
C2088 C2089 1.373 . S
C2088 C2090 1.389 . S
C2089 H2068 0.950 . S
C2089 C2088 1.373 . S
C2089 C2105 1.377 . S
C2090 C2088 1.389 . S
C2090 C2091 1.524 . S
C2090 C2104 1.377 . S
C2091 C2090 1.524 . S
C2091 C2092 1.397 . S
C2091 C2096 1.363 . S
C2092 H2069 0.950 . S
C2092 C2091 1.397 . S
C2092 C2093 1.334 . S
C2093 H2070 0.950 . S
C2093 C2092 1.334 . S
C2093 C2094 1.287 . S
C2094 C2093 1.287 . S
C2094 C2095 1.524 . S
C2094 H2113 0.913 . S
C2095 H2071 0.950 . S
C2095 C2094 1.524 . S
C2095 C2096 1.415 . S
C2096 H2072 0.950 . S
C2096 C2091 1.363 . S
C2096 C2095 1.415 . S
C2097 H2073 0.951 . S
C2097 C2098 1.366 . S
C2097 C2099 1.388 . S
C2098 C2097 1.366 . S
C2098 C2102 1.385 . S
C2099 H2074 0.951 . S
C2099 C2097 1.388 . S
C2099 C2100 1.366 . S
C2100 C2099 1.366 . S
C2100 C2101 1.414 . S
C2100 C2103 1.499 . S
C2101 H2075 0.950 . S
C2101 C2100 1.414 . S
C2101 C2102 1.374 . S
C2102 H2076 0.950 . S
C2102 C2098 1.385 . S
C2102 C2101 1.374 . S
C2103 C2100 1.499 . S
C2103 C2104 1.373 . S
C2103 C2105 1.389 . S
C2104 H2077 0.950 . S
C2104 C2090 1.377 . S
C2104 C2103 1.373 . S
C2105 C2089 1.377 . S
C2105 C2103 1.389 . S
C2105 C2106 1.524 . S
C2106 C2105 1.524 . S
C2106 C2107 1.397 . S
C2106 C2111 1.363 . S
C2107 H2078 0.950 . S
C2107 C2106 1.397 . S
C2107 C2108 1.334 . S
C2108 H2079 0.950 . S
C2108 C2107 1.334 . S
C2108 C2109 1.287 . S
C2109 C2108 1.287 . S
C2109 C2110 1.524 . S
C2109 H2112 0.999 . S
C2110 H2080 0.950 . S
C2110 C2109 1.524 . S
C2110 C2111 1.415 . S
C2111 H2081 0.950 . S
C2111 C2106 1.363 . S
C2111 C2110 1.415 . S
H2112 C2109 0.999 . S
H2113 C2094 0.913 . S
H2114 C2132 0.951 . S
H2115 C2134 0.951 . S
H2116 C2136 0.950 . S
H2117 C2137 0.950 . S
H2118 C2139 0.950 . S
H2119 C2142 0.950 . S
H2120 C2143 0.950 . S
H2121 C2145 0.950 . S
H2122 C2146 0.950 . S
H2123 C2147 0.951 . S
H2124 C2149 0.951 . S
H2125 C2151 0.950 . S
H2126 C2152 0.950 . S
H2127 C2154 0.950 . S
H2128 C2157 0.950 . S
H2129 C2158 0.950 . S
H2130 C2160 0.950 . S
H2131 C2161 0.950 . S
C2132 H2114 0.951 . S
C2132 C2133 1.366 . S
C2132 C2134 1.388 . S
C2133 C2132 1.366 . S
C2133 C2137 1.385 . S
C2134 H2115 0.951 . S
C2134 C2132 1.388 . S
C2134 C2135 1.366 . S
C2135 C2134 1.366 . S
C2135 C2136 1.414 . S
C2135 C2138 1.499 . S
C2136 H2116 0.950 . S
C2136 C2135 1.414 . S
C2136 C2137 1.374 . S
C2137 H2117 0.950 . S
C2137 C2133 1.385 . S
C2137 C2136 1.374 . S
C2138 C2135 1.499 . S
C2138 C2139 1.373 . S
C2138 C2140 1.389 . S
C2139 H2118 0.950 . S
C2139 C2138 1.373 . S
C2139 C2155 1.377 . S
C2140 C2138 1.389 . S
C2140 C2141 1.524 . S
C2140 C2154 1.377 . S
C2141 C2140 1.524 . S
C2141 C2142 1.397 . S
C2141 C2146 1.363 . S
C2142 H2119 0.950 . S
C2142 C2141 1.397 . S
C2142 C2143 1.334 . S
C2143 H2120 0.950 . S
C2143 C2142 1.334 . S
C2143 C2144 1.287 . S
C2144 C2143 1.287 . S
C2144 C2145 1.524 . S
C2144 H2163 0.913 . S
C2145 H2121 0.950 . S
C2145 C2144 1.524 . S
C2145 C2146 1.415 . S
C2146 H2122 0.950 . S
C2146 C2141 1.363 . S
C2146 C2145 1.415 . S
C2147 H2123 0.951 . S
C2147 C2148 1.366 . S
C2147 C2149 1.388 . S
C2148 C2147 1.366 . S
C2148 C2152 1.385 . S
C2149 H2124 0.951 . S
C2149 C2147 1.388 . S
C2149 C2150 1.366 . S
C2150 C2149 1.366 . S
C2150 C2151 1.414 . S
C2150 C2153 1.499 . S
C2151 H2125 0.950 . S
C2151 C2150 1.414 . S
C2151 C2152 1.374 . S
C2152 H2126 0.950 . S
C2152 C2148 1.385 . S
C2152 C2151 1.374 . S
C2153 C2150 1.499 . S
C2153 C2154 1.373 . S
C2153 C2155 1.389 . S
C2154 H2127 0.950 . S
C2154 C2140 1.377 . S
C2154 C2153 1.373 . S
C2155 C2139 1.377 . S
C2155 C2153 1.389 . S
C2155 C2156 1.524 . S
C2156 C2155 1.524 . S
C2156 C2157 1.397 . S
C2156 C2161 1.363 . S
C2157 H2128 0.950 . S
C2157 C2156 1.397 . S
C2157 C2158 1.334 . S
C2158 H2129 0.950 . S
C2158 C2157 1.334 . S
C2158 C2159 1.287 . S
C2159 C2158 1.287 . S
C2159 C2160 1.524 . S
C2159 H2162 0.999 . S
C2160 H2130 0.950 . S
C2160 C2159 1.524 . S
C2160 C2161 1.415 . S
C2161 H2131 0.950 . S
C2161 C2156 1.363 . S
C2161 C2160 1.415 . S
H2162 C2159 0.999 . S
H2163 C2144 0.913 . S
H2164 C2182 0.952 . S
H2165 C2184 0.949 1_564 S
H2166 C2186 0.950 . S
H2167 C2187 0.950 . S
H2168 C2189 0.950 . S
H2169 C2192 0.950 1_545 S
H2170 C2193 0.961 . S
H2171 C2195 0.950 . S
H2172 C2196 0.950 . S
H2173 C2197 0.951 . S
H2174 C2199 0.951 . S
H2175 C2201 0.950 1_554 S
H2176 C2202 0.954 . S
H2177 C2204 0.950 . S
H2178 C2207 0.950 . S
H2179 C2208 0.950 . S
H2180 C2210 0.950 . S
H2181 C2211 0.950 . S
C2182 H2164 0.952 . S
C2182 C2183 1.365 1_554 S
C2182 C2184 1.386 1_554 S
C2183 C2182 1.365 1_556 S
C2183 C2187 1.385 . S
C2184 H2165 0.949 1_546 S
C2184 C2182 1.386 1_556 S
C2184 C2185 1.371 . S
C2185 C2184 1.371 . S
C2185 C2186 1.414 . S
C2185 C2188 1.499 . S
C2186 H2166 0.950 . S
C2186 C2185 1.414 . S
C2186 C2187 1.374 . S
C2187 H2167 0.950 . S
C2187 C2183 1.385 . S
C2187 C2186 1.374 . S
C2188 C2185 1.499 . S
C2188 C2189 1.373 1_556 S
C2188 C2190 1.389 1_545 S
C2189 H2168 0.950 . S
C2189 C2188 1.373 1_554 S
C2189 C2205 1.377 1_545 S
C2190 C2188 1.389 1_565 S
C2190 C2191 1.524 . S
C2190 C2204 1.377 . S
C2191 C2190 1.524 . S
C2191 C2192 1.397 . S
C2191 C2196 1.363 . S
C2192 H2169 0.950 1_565 S
C2192 C2191 1.397 . S
C2192 C2193 1.334 . S
C2193 H2170 0.961 . S
C2193 C2192 1.334 . S
C2193 C2194 1.287 . S
C2194 C2193 1.287 . S
C2194 C2195 1.524 . S
C2194 H2213 0.913 . S
C2195 H2171 0.950 . S
C2195 C2194 1.524 . S
C2195 C2196 1.415 . S
C2196 H2172 0.950 . S
C2196 C2191 1.363 . S
C2196 C2195 1.415 . S
C2197 H2173 0.951 . S
C2197 C2198 1.366 . S
C2197 C2199 1.388 . S
C2198 C2197 1.366 . S
C2198 C2202 1.385 . S
C2199 H2174 0.951 . S
C2199 C2197 1.388 . S
C2199 C2200 1.366 . S
C2200 C2199 1.366 . S
C2200 C2201 1.414 . S
C2200 C2203 1.499 . S
C2201 H2175 0.950 1_556 S
C2201 C2200 1.414 . S
C2201 C2202 1.374 . S
C2202 H2176 0.954 . S
C2202 C2198 1.385 . S
C2202 C2201 1.374 . S
C2203 C2200 1.499 . S
C2203 C2204 1.373 . S
C2203 C2205 1.389 1_556 S
C2204 H2177 0.950 . S
C2204 C2190 1.377 . S
C2204 C2203 1.373 . S
C2205 C2189 1.377 1_565 S
C2205 C2203 1.389 1_554 S
C2205 C2206 1.524 1_565 S
C2206 C2205 1.524 1_545 S
C2206 C2207 1.397 1_545 S
C2206 C2211 1.363 . S
C2207 H2178 0.950 . S
C2207 C2206 1.397 1_565 S
C2207 C2208 1.334 . S
C2208 H2179 0.950 . S
C2208 C2207 1.334 . S
C2208 C2209 1.287 1_565 S
C2209 C2208 1.287 1_545 S
C2209 C2210 1.524 . S
C2209 H2212 0.999 . S
C2210 H2180 0.950 . S
C2210 C2209 1.524 . S
C2210 C2211 1.415 . S
C2211 H2181 0.950 . S
C2211 C2206 1.363 . S
C2211 C2210 1.415 . S
H2212 C2209 0.999 . S
H2213 C2194 0.913 . S
H2214 C2232 0.951 . S
H2215 C2234 0.951 . S
H2216 C2236 0.950 . S
H2217 C2237 0.950 . S
H2218 C2239 0.950 . S
H2219 C2242 0.950 . S
H2220 C2243 0.950 . S
H2221 C2245 0.950 . S
H2222 C2246 0.950 . S
H2223 C2247 0.951 . S
H2224 C2249 0.951 . S
H2225 C2251 0.950 . S
H2226 C2252 0.950 . S
H2227 C2254 0.950 . S
H2228 C2257 0.950 . S
H2229 C2258 0.950 . S
H2230 C2260 0.950 . S
H2231 C2261 0.950 . S
C2232 H2214 0.951 . S
C2232 C2233 1.366 . S
C2232 C2234 1.388 . S
C2233 C2232 1.366 . S
C2233 C2237 1.385 . S
C2234 H2215 0.951 . S
C2234 C2232 1.388 . S
C2234 C2235 1.366 . S
C2235 C2234 1.366 . S
C2235 C2236 1.414 . S
C2235 C2238 1.499 . S
C2236 H2216 0.950 . S
C2236 C2235 1.414 . S
C2236 C2237 1.374 . S
C2237 H2217 0.950 . S
C2237 C2233 1.385 . S
C2237 C2236 1.374 . S
C2238 C2235 1.499 . S
C2238 C2239 1.373 . S
C2238 C2240 1.389 . S
C2239 H2218 0.950 . S
C2239 C2238 1.373 . S
C2239 C2255 1.377 . S
C2240 C2238 1.389 . S
C2240 C2241 1.524 . S
C2240 C2254 1.377 . S
C2241 C2240 1.524 . S
C2241 C2242 1.397 . S
C2241 C2246 1.363 . S
C2242 H2219 0.950 . S
C2242 C2241 1.397 . S
C2242 C2243 1.334 . S
C2243 H2220 0.950 . S
C2243 C2242 1.334 . S
C2243 C2244 1.287 . S
C2244 C2243 1.287 . S
C2244 C2245 1.524 . S
C2244 H2263 0.913 . S
C2245 H2221 0.950 . S
C2245 C2244 1.524 . S
C2245 C2246 1.415 . S
C2246 H2222 0.950 . S
C2246 C2241 1.363 . S
C2246 C2245 1.415 . S
C2247 H2223 0.951 . S
C2247 C2248 1.366 . S
C2247 C2249 1.388 . S
C2248 C2247 1.366 . S
C2248 C2252 1.385 . S
C2249 H2224 0.951 . S
C2249 C2247 1.388 . S
C2249 C2250 1.366 . S
C2250 C2249 1.366 . S
C2250 C2251 1.414 . S
C2250 C2253 1.499 . S
C2251 H2225 0.950 . S
C2251 C2250 1.414 . S
C2251 C2252 1.374 . S
C2252 H2226 0.950 . S
C2252 C2248 1.385 . S
C2252 C2251 1.374 . S
C2253 C2250 1.499 . S
C2253 C2254 1.373 . S
C2253 C2255 1.389 . S
C2254 H2227 0.950 . S
C2254 C2240 1.377 . S
C2254 C2253 1.373 . S
C2255 C2239 1.377 . S
C2255 C2253 1.389 . S
C2255 C2256 1.524 . S
C2256 C2255 1.524 . S
C2256 C2257 1.397 . S
C2256 C2261 1.363 . S
C2257 H2228 0.950 . S
C2257 C2256 1.397 . S
C2257 C2258 1.334 . S
C2258 H2229 0.950 . S
C2258 C2257 1.334 . S
C2258 C2259 1.287 . S
C2259 C2258 1.287 . S
C2259 C2260 1.524 . S
C2259 H2262 0.999 . S
C2260 H2230 0.950 . S
C2260 C2259 1.524 . S
C2260 C2261 1.415 . S
C2261 H2231 0.950 . S
C2261 C2256 1.363 . S
C2261 C2260 1.415 . S
H2262 C2259 0.999 . S
H2263 C2244 0.913 . S
H2264 C2282 0.951 . S
H2265 C2284 0.951 . S
H2266 C2286 0.950 1_565 S
H2267 C2287 0.950 . S
H2268 C2289 0.950 . S
H2269 C2292 0.950 . S
H2270 C2293 0.950 . S
H2271 C2295 0.950 . S
H2272 C2296 0.950 . S
H2273 C2297 0.951 . S
H2274 C2299 0.951 . S
H2275 C2301 0.950 . S
H2276 C2302 0.950 . S
H2277 C2304 0.950 . S
H2278 C2307 0.950 . S
H2279 C2308 0.950 . S
H2280 C2310 0.950 . S
H2281 C2311 0.950 1_565 S
C2282 H2264 0.951 . S
C2282 C2283 1.333 1_545 S
C2282 C2284 1.388 . S
C2283 C2282 1.333 1_565 S
C2283 C2287 1.403 . S
C2284 H2265 0.951 . S
C2284 C2282 1.388 . S
C2284 C2285 1.366 . S
C2285 C2284 1.366 . S
C2285 C2286 1.414 . S
C2285 C2288 1.499 . S
C2286 H2266 0.950 1_545 S
C2286 C2285 1.414 . S
C2286 C2287 1.374 1_545 S
C2287 H2267 0.950 . S
C2287 C2283 1.403 . S
C2287 C2286 1.374 1_565 S
C2288 C2285 1.499 . S
C2288 C2289 1.373 . S
C2288 C2290 1.389 . S
C2289 H2268 0.950 . S
C2289 C2288 1.373 . S
C2289 C2305 1.377 . S
C2290 C2288 1.389 . S
C2290 C2291 1.524 . S
C2290 C2304 1.377 . S
C2291 C2290 1.524 . S
C2291 C2292 1.397 . S
C2291 C2296 1.363 . S
C2292 H2269 0.950 . S
C2292 C2291 1.397 . S
C2292 C2293 1.334 . S
C2293 H2270 0.950 . S
C2293 C2292 1.334 . S
C2293 C2294 1.287 . S
C2294 C2293 1.287 . S
C2294 C2295 1.524 . S
C2294 H2313 0.913 . S
C2295 H2271 0.950 . S
C2295 C2294 1.524 . S
C2295 C2296 1.415 . S
C2296 H2272 0.950 . S
C2296 C2291 1.363 . S
C2296 C2295 1.415 . S
C2297 H2273 0.951 . S
C2297 C2298 1.366 . S
C2297 C2299 1.388 . S
C2298 C2297 1.366 . S
C2298 C2302 1.385 . S
C2299 H2274 0.951 . S
C2299 C2297 1.388 . S
C2299 C2300 1.366 . S
C2300 C2299 1.366 . S
C2300 C2301 1.414 . S
C2300 C2303 1.499 . S
C2301 H2275 0.950 . S
C2301 C2300 1.414 . S
C2301 C2302 1.374 . S
C2302 H2276 0.950 . S
C2302 C2298 1.385 . S
C2302 C2301 1.374 . S
C2303 C2300 1.499 . S
C2303 C2304 1.373 . S
C2303 C2305 1.389 . S
C2304 H2277 0.950 . S
C2304 C2290 1.377 . S
C2304 C2303 1.373 . S
C2305 C2289 1.377 . S
C2305 C2303 1.389 . S
C2305 C2306 1.524 . S
C2306 C2305 1.524 . S
C2306 C2307 1.397 . S
C2306 C2311 1.363 . S
C2307 H2278 0.950 . S
C2307 C2306 1.397 . S
C2307 C2308 1.334 . S
C2308 H2279 0.950 . S
C2308 C2307 1.334 . S
C2308 C2309 1.287 . S
C2309 C2308 1.287 . S
C2309 C2310 1.524 1_545 S
C2309 H2312 0.999 1_545 S
C2310 H2280 0.950 . S
C2310 C2309 1.524 1_565 S
C2310 C2311 1.415 1_565 S
C2311 H2281 0.950 1_545 S
C2311 C2306 1.363 . S
C2311 C2310 1.415 1_545 S
H2312 C2309 0.999 1_565 S
H2313 C2294 0.913 . S
H2314 C2332 0.951 . S
H2315 C2334 0.951 . S
H2316 C2336 0.950 . S
H2317 C2337 0.950 . S
H2318 C2339 0.950 . S
H2319 C2342 0.950 . S
H2320 C2343 0.950 . S
H2321 C2345 0.950 . S
H2322 C2346 0.950 . S
H2323 C2347 0.951 . S
H2324 C2349 0.951 . S
H2325 C2351 0.950 . S
H2326 C2352 0.950 . S
H2327 C2354 0.950 . S
H2328 C2357 0.950 . S
H2329 C2358 0.950 . S
H2330 C2360 0.950 . S
H2331 C2361 0.950 . S
C2332 H2314 0.951 . S
C2332 C2333 1.366 . S
C2332 C2334 1.388 . S
C2333 C2332 1.366 . S
C2333 C2337 1.385 . S
C2334 H2315 0.951 . S
C2334 C2332 1.388 . S
C2334 C2335 1.366 . S
C2335 C2334 1.366 . S
C2335 C2336 1.414 . S
C2335 C2338 1.499 . S
C2336 H2316 0.950 . S
C2336 C2335 1.414 . S
C2336 C2337 1.374 . S
C2337 H2317 0.950 . S
C2337 C2333 1.385 . S
C2337 C2336 1.374 . S
C2338 C2335 1.499 . S
C2338 C2339 1.373 . S
C2338 C2340 1.389 . S
C2339 H2318 0.950 . S
C2339 C2338 1.373 . S
C2339 C2355 1.377 . S
C2340 C2338 1.389 . S
C2340 C2341 1.524 . S
C2340 C2354 1.377 . S
C2341 C2340 1.524 . S
C2341 C2342 1.397 . S
C2341 C2346 1.363 . S
C2342 H2319 0.950 . S
C2342 C2341 1.397 . S
C2342 C2343 1.334 . S
C2343 H2320 0.950 . S
C2343 C2342 1.334 . S
C2343 C2344 1.287 . S
C2344 C2343 1.287 . S
C2344 C2345 1.524 . S
C2344 H2363 0.913 . S
C2345 H2321 0.950 . S
C2345 C2344 1.524 . S
C2345 C2346 1.415 . S
C2346 H2322 0.950 . S
C2346 C2341 1.363 . S
C2346 C2345 1.415 . S
C2347 H2323 0.951 . S
C2347 C2348 1.366 . S
C2347 C2349 1.388 . S
C2348 C2347 1.366 . S
C2348 C2352 1.385 . S
C2349 H2324 0.951 . S
C2349 C2347 1.388 . S
C2349 C2350 1.366 . S
C2350 C2349 1.366 . S
C2350 C2351 1.414 . S
C2350 C2353 1.499 . S
C2351 H2325 0.950 . S
C2351 C2350 1.414 . S
C2351 C2352 1.374 . S
C2352 H2326 0.950 . S
C2352 C2348 1.385 . S
C2352 C2351 1.374 . S
C2353 C2350 1.499 . S
C2353 C2354 1.373 . S
C2353 C2355 1.389 . S
C2354 H2327 0.950 . S
C2354 C2340 1.377 . S
C2354 C2353 1.373 . S
C2355 C2339 1.377 . S
C2355 C2353 1.389 . S
C2355 C2356 1.524 . S
C2356 C2355 1.524 . S
C2356 C2357 1.397 . S
C2356 C2361 1.363 . S
C2357 H2328 0.950 . S
C2357 C2356 1.397 . S
C2357 C2358 1.334 . S
C2358 H2329 0.950 . S
C2358 C2357 1.334 . S
C2358 C2359 1.287 . S
C2359 C2358 1.287 . S
C2359 C2360 1.524 . S
C2359 H2362 0.999 . S
C2360 H2330 0.950 . S
C2360 C2359 1.524 . S
C2360 C2361 1.415 . S
C2361 H2331 0.950 . S
C2361 C2356 1.363 . S
C2361 C2360 1.415 . S
H2362 C2359 0.999 . S
H2363 C2344 0.913 . S
H2364 C2382 0.951 . S
H2365 C2384 0.951 . S
H2366 C2386 0.950 . S
H2367 C2387 0.950 . S
H2368 C2389 0.950 1_565 S
H2369 C2392 0.950 . S
H2370 C2393 0.950 . S
H2371 C2395 0.950 . S
H2372 C2396 0.950 . S
H2373 C2397 0.951 . S
H2374 C2399 0.951 . S
H2375 C2401 0.950 . S
H2376 C2402 0.950 . S
H2377 C2404 0.950 . S
H2378 C2407 0.950 . S
H2379 C2408 0.950 . S
H2380 C2410 0.950 . S
H2381 C2411 0.950 . S
C2382 H2364 0.951 . S
C2382 C2383 1.366 . S
C2382 C2384 1.388 1_565 S
C2383 C2382 1.366 . S
C2383 C2387 1.385 . S
C2384 H2365 0.951 . S
C2384 C2382 1.388 1_545 S
C2384 C2385 1.366 . S
C2385 C2384 1.366 . S
C2385 C2386 1.414 1_545 S
C2385 C2388 1.499 . S
C2386 H2366 0.950 . S
C2386 C2385 1.414 1_565 S
C2386 C2387 1.374 . S
C2387 H2367 0.950 . S
C2387 C2383 1.385 . S
C2387 C2386 1.374 . S
C2388 C2385 1.499 . S
C2388 C2389 1.373 . S
C2388 C2390 1.389 . S
C2389 H2368 0.950 1_545 S
C2389 C2388 1.373 . S
C2389 C2405 1.377 . S
C2390 C2388 1.389 . S
C2390 C2391 1.524 . S
C2390 C2404 1.377 . S
C2391 C2390 1.524 . S
C2391 C2392 1.397 . S
C2391 C2396 1.363 . S
C2392 H2369 0.950 . S
C2392 C2391 1.397 . S
C2392 C2393 1.334 . S
C2393 H2370 0.950 . S
C2393 C2392 1.334 . S
C2393 C2394 1.287 . S
C2394 C2393 1.287 . S
C2394 C2395 1.524 . S
C2394 H2413 0.913 . S
C2395 H2371 0.950 . S
C2395 C2394 1.524 . S
C2395 C2396 1.415 . S
C2396 H2372 0.950 . S
C2396 C2391 1.363 . S
C2396 C2395 1.415 . S
C2397 H2373 0.951 . S
C2397 C2398 1.366 . S
C2397 C2399 1.388 . S
C2398 C2397 1.366 . S
C2398 C2402 1.385 . S
C2399 H2374 0.951 . S
C2399 C2397 1.388 . S
C2399 C2400 1.366 . S
C2400 C2399 1.366 . S
C2400 C2401 1.414 . S
C2400 C2403 1.499 . S
C2401 H2375 0.950 . S
C2401 C2400 1.414 . S
C2401 C2402 1.374 . S
C2402 H2376 0.950 . S
C2402 C2398 1.385 . S
C2402 C2401 1.374 . S
C2403 C2400 1.499 . S
C2403 C2404 1.373 . S
C2403 C2405 1.389 . S
C2404 H2377 0.950 . S
C2404 C2390 1.377 . S
C2404 C2403 1.373 . S
C2405 C2389 1.377 . S
C2405 C2403 1.389 . S
C2405 C2406 1.524 . S
C2406 C2405 1.524 . S
C2406 C2407 1.397 . S
C2406 C2411 1.363 1_545 S
C2407 H2378 0.950 . S
C2407 C2406 1.397 . S
C2407 C2408 1.334 . S
C2408 H2379 0.950 . S
C2408 C2407 1.334 . S
C2408 C2409 1.287 1_545 S
C2409 C2408 1.287 1_565 S
C2409 C2410 1.524 . S
C2409 H2412 0.999 . S
C2410 H2380 0.950 . S
C2410 C2409 1.524 . S
C2410 C2411 1.415 . S
C2411 H2381 0.950 . S
C2411 C2406 1.363 1_565 S
C2411 C2410 1.415 . S
H2412 C2409 0.999 . S
H2413 C2394 0.913 . S
H2414 C2432 0.951 . S
H2415 C2434 0.951 . S
H2416 C2436 0.950 . S
H2417 C2437 0.950 . S
H2418 C2439 0.950 . S
H2419 C2442 0.950 . S
H2420 C2443 0.950 . S
H2421 C2445 0.950 . S
H2422 C2446 0.950 . S
H2423 C2447 0.951 . S
H2424 C2449 0.951 . S
H2425 C2451 0.950 . S
H2426 C2452 0.950 . S
H2427 C2454 0.950 . S
H2428 C2457 0.950 . S
H2429 C2458 0.950 . S
H2430 C2460 0.950 . S
H2431 C2461 0.950 . S
C2432 H2414 0.951 . S
C2432 C2433 1.366 . S
C2432 C2434 1.388 . S
C2433 C2432 1.366 . S
C2433 C2437 1.385 . S
C2434 H2415 0.951 . S
C2434 C2432 1.388 . S
C2434 C2435 1.366 . S
C2435 C2434 1.366 . S
C2435 C2436 1.414 . S
C2435 C2438 1.499 . S
C2436 H2416 0.950 . S
C2436 C2435 1.414 . S
C2436 C2437 1.374 . S
C2437 H2417 0.950 . S
C2437 C2433 1.385 . S
C2437 C2436 1.374 . S
C2438 C2435 1.499 . S
C2438 C2439 1.373 . S
C2438 C2440 1.389 . S
C2439 H2418 0.950 . S
C2439 C2438 1.373 . S
C2439 C2455 1.377 . S
C2440 C2438 1.389 . S
C2440 C2441 1.524 . S
C2440 C2454 1.377 . S
C2441 C2440 1.524 . S
C2441 C2442 1.397 . S
C2441 C2446 1.363 . S
C2442 H2419 0.950 . S
C2442 C2441 1.397 . S
C2442 C2443 1.334 . S
C2443 H2420 0.950 . S
C2443 C2442 1.334 . S
C2443 C2444 1.287 . S
C2444 C2443 1.287 . S
C2444 C2445 1.524 . S
C2444 H2463 0.913 . S
C2445 H2421 0.950 . S
C2445 C2444 1.524 . S
C2445 C2446 1.415 . S
C2446 H2422 0.950 . S
C2446 C2441 1.363 . S
C2446 C2445 1.415 . S
C2447 H2423 0.951 . S
C2447 C2448 1.366 . S
C2447 C2449 1.388 . S
C2448 C2447 1.366 . S
C2448 C2452 1.385 . S
C2449 H2424 0.951 . S
C2449 C2447 1.388 . S
C2449 C2450 1.366 . S
C2450 C2449 1.366 . S
C2450 C2451 1.414 . S
C2450 C2453 1.499 . S
C2451 H2425 0.950 . S
C2451 C2450 1.414 . S
C2451 C2452 1.374 . S
C2452 H2426 0.950 . S
C2452 C2448 1.385 . S
C2452 C2451 1.374 . S
C2453 C2450 1.499 . S
C2453 C2454 1.373 . S
C2453 C2455 1.389 . S
C2454 H2427 0.950 . S
C2454 C2440 1.377 . S
C2454 C2453 1.373 . S
C2455 C2439 1.377 . S
C2455 C2453 1.389 . S
C2455 C2456 1.524 . S
C2456 C2455 1.524 . S
C2456 C2457 1.397 . S
C2456 C2461 1.363 . S
C2457 H2428 0.950 . S
C2457 C2456 1.397 . S
C2457 C2458 1.334 . S
C2458 H2429 0.950 . S
C2458 C2457 1.334 . S
C2458 C2459 1.287 . S
C2459 C2458 1.287 . S
C2459 C2460 1.524 . S
C2459 H2462 0.999 . S
C2460 H2430 0.950 . S
C2460 C2459 1.524 . S
C2460 C2461 1.415 . S
C2461 H2431 0.950 . S
C2461 C2456 1.363 . S
C2461 C2460 1.415 . S
H2462 C2459 0.999 . S
H2463 C2444 0.913 . S
H2464 C2482 0.951 . S
H2465 C2484 0.951 . S
H2466 C2486 0.950 . S
H2467 C2487 0.950 . S
H2468 C2489 0.950 . S
H2469 C2492 0.950 . S
H2470 C2493 0.950 . S
H2471 C2495 0.950 . S
H2472 C2496 0.950 . S
H2473 C2497 0.951 . S
H2474 C2499 0.951 . S
H2475 C2501 0.950 . S
H2476 C2502 0.950 . S
H2477 C2504 0.950 . S
H2478 C2507 0.950 . S
H2479 C2508 0.950 . S
H2480 C2510 0.950 . S
H2481 C2511 0.950 . S
C2482 H2464 0.951 . S
C2482 C2483 1.366 . S
C2482 C2484 1.388 . S
C2483 C2482 1.366 . S
C2483 C2487 1.385 . S
C2484 H2465 0.951 . S
C2484 C2482 1.388 . S
C2484 C2485 1.366 . S
C2485 C2484 1.366 . S
C2485 C2486 1.414 . S
C2485 C2488 1.499 . S
C2486 H2466 0.950 . S
C2486 C2485 1.414 . S
C2486 C2487 1.374 . S
C2487 H2467 0.950 . S
C2487 C2483 1.385 . S
C2487 C2486 1.374 . S
C2488 C2485 1.499 . S
C2488 C2489 1.373 . S
C2488 C2490 1.389 . S
C2489 H2468 0.950 . S
C2489 C2488 1.373 . S
C2489 C2505 1.377 . S
C2490 C2488 1.389 . S
C2490 C2491 1.524 . S
C2490 C2504 1.377 . S
C2491 C2490 1.524 . S
C2491 C2492 1.397 . S
C2491 C2496 1.363 . S
C2492 H2469 0.950 . S
C2492 C2491 1.397 . S
C2492 C2493 1.334 . S
C2493 H2470 0.950 . S
C2493 C2492 1.334 . S
C2493 C2494 1.287 . S
C2494 C2493 1.287 . S
C2494 C2495 1.524 . S
C2494 H2513 0.913 . S
C2495 H2471 0.950 . S
C2495 C2494 1.524 . S
C2495 C2496 1.415 . S
C2496 H2472 0.950 . S
C2496 C2491 1.363 . S
C2496 C2495 1.415 . S
C2497 H2473 0.951 . S
C2497 C2498 1.366 . S
C2497 C2499 1.388 . S
C2498 C2497 1.366 . S
C2498 C2502 1.385 . S
C2499 H2474 0.951 . S
C2499 C2497 1.388 . S
C2499 C2500 1.366 . S
C2500 C2499 1.366 . S
C2500 C2501 1.414 . S
C2500 C2503 1.499 . S
C2501 H2475 0.950 . S
C2501 C2500 1.414 . S
C2501 C2502 1.374 . S
C2502 H2476 0.950 . S
C2502 C2498 1.385 . S
C2502 C2501 1.374 . S
C2503 C2500 1.499 . S
C2503 C2504 1.373 . S
C2503 C2505 1.389 . S
C2504 H2477 0.950 . S
C2504 C2490 1.377 . S
C2504 C2503 1.373 . S
C2505 C2489 1.377 . S
C2505 C2503 1.389 . S
C2505 C2506 1.524 . S
C2506 C2505 1.524 . S
C2506 C2507 1.397 . S
C2506 C2511 1.363 . S
C2507 H2478 0.950 . S
C2507 C2506 1.397 . S
C2507 C2508 1.334 . S
C2508 H2479 0.950 . S
C2508 C2507 1.334 . S
C2508 C2509 1.287 . S
C2509 C2508 1.287 . S
C2509 C2510 1.524 . S
C2509 H2512 0.999 . S
C2510 H2480 0.950 . S
C2510 C2509 1.524 . S
C2510 C2511 1.415 . S
C2511 H2481 0.950 . S
C2511 C2506 1.363 . S
C2511 C2510 1.415 . S
H2512 C2509 0.999 . S
H2513 C2494 0.913 . S
H2514 C2532 0.951 . S
H2515 C2534 0.951 . S
H2516 C2536 0.950 . S
H2517 C2537 0.950 . S
H2518 C2539 0.950 . S
H2519 C2542 0.950 . S
H2520 C2543 0.950 . S
H2521 C2545 0.950 . S
H2522 C2546 0.950 . S
H2523 C2547 0.951 . S
H2524 C2549 0.951 . S
H2525 C2551 0.950 . S
H2526 C2552 0.950 . S
H2527 C2554 0.949 1_565 S
H2528 C2557 0.950 . S
H2529 C2558 0.950 . S
H2530 C2560 0.950 . S
H2531 C2561 0.950 . S
C2532 H2514 0.951 . S
C2532 C2533 1.366 . S
C2532 C2534 1.388 . S
C2533 C2532 1.366 . S
C2533 C2537 1.385 . S
C2534 H2515 0.951 . S
C2534 C2532 1.388 . S
C2534 C2535 1.366 . S
C2535 C2534 1.366 . S
C2535 C2536 1.414 . S
C2535 C2538 1.499 . S
C2536 H2516 0.950 . S
C2536 C2535 1.414 . S
C2536 C2537 1.374 . S
C2537 H2517 0.950 . S
C2537 C2533 1.385 . S
C2537 C2536 1.374 . S
C2538 C2535 1.499 . S
C2538 C2539 1.373 . S
C2538 C2540 1.389 . S
C2539 H2518 0.950 . S
C2539 C2538 1.373 . S
C2539 C2555 1.377 . S
C2540 C2538 1.389 . S
C2540 C2541 1.524 1_545 S
C2540 C2554 1.377 . S
C2541 C2540 1.524 1_565 S
C2541 C2542 1.397 . S
C2541 C2546 1.363 . S
C2542 H2519 0.950 . S
C2542 C2541 1.397 . S
C2542 C2543 1.334 . S
C2543 H2520 0.950 . S
C2543 C2542 1.334 . S
C2543 C2544 1.287 . S
C2544 C2543 1.287 . S
C2544 C2545 1.524 . S
C2544 H2563 0.913 . S
C2545 H2521 0.950 . S
C2545 C2544 1.524 . S
C2545 C2546 1.415 . S
C2546 H2522 0.950 . S
C2546 C2541 1.363 . S
C2546 C2545 1.415 . S
C2547 H2523 0.951 . S
C2547 C2548 1.366 . S
C2547 C2549 1.388 . S
C2548 C2547 1.366 . S
C2548 C2552 1.385 . S
C2549 H2524 0.951 . S
C2549 C2547 1.388 . S
C2549 C2550 1.366 . S
C2550 C2549 1.366 . S
C2550 C2551 1.414 . S
C2550 C2553 1.499 . S
C2551 H2525 0.950 . S
C2551 C2550 1.414 . S
C2551 C2552 1.374 . S
C2552 H2526 0.950 . S
C2552 C2548 1.385 . S
C2552 C2551 1.374 . S
C2553 C2550 1.499 . S
C2553 C2554 1.373 . S
C2553 C2555 1.389 . S
C2554 H2527 0.949 1_545 S
C2554 C2540 1.377 . S
C2554 C2553 1.373 . S
C2555 C2539 1.377 . S
C2555 C2553 1.389 . S
C2555 C2556 1.524 . S
C2556 C2555 1.524 . S
C2556 C2557 1.397 . S
C2556 C2561 1.363 . S
C2557 H2528 0.950 . S
C2557 C2556 1.397 . S
C2557 C2558 1.334 . S
C2558 H2529 0.950 . S
C2558 C2557 1.334 . S
C2558 C2559 1.287 . S
C2559 C2558 1.287 . S
C2559 C2560 1.524 . S
C2559 H2562 0.999 . S
C2560 H2530 0.950 . S
C2560 C2559 1.524 . S
C2560 C2561 1.415 . S
C2561 H2531 0.950 . S
C2561 C2556 1.363 . S
C2561 C2560 1.415 . S
H2562 C2559 0.999 . S
H2563 C2544 0.913 . S
H2564 C2582 0.951 . S
H2565 C2584 0.951 . S
H2566 C2586 0.950 . S
H2567 C2587 0.950 . S
H2568 C2589 0.950 . S
H2569 C2592 0.950 . S
H2570 C2593 0.950 . S
H2571 C2595 0.950 . S
H2572 C2596 0.950 . S
H2573 C2597 0.951 . S
H2574 C2599 0.951 . S
H2575 C2601 0.950 . S
H2576 C2602 0.950 . S
H2577 C2604 0.950 . S
H2578 C2607 0.950 . S
H2579 C2608 0.950 . S
H2580 C2610 0.950 . S
H2581 C2611 0.950 . S
C2582 H2564 0.951 . S
C2582 C2583 1.366 . S
C2582 C2584 1.388 . S
C2583 C2582 1.366 . S
C2583 C2587 1.385 . S
C2584 H2565 0.951 . S
C2584 C2582 1.388 . S
C2584 C2585 1.366 . S
C2585 C2584 1.366 . S
C2585 C2586 1.414 . S
C2585 C2588 1.499 . S
C2586 H2566 0.950 . S
C2586 C2585 1.414 . S
C2586 C2587 1.374 . S
C2587 H2567 0.950 . S
C2587 C2583 1.385 . S
C2587 C2586 1.374 . S
C2588 C2585 1.499 . S
C2588 C2589 1.373 . S
C2588 C2590 1.389 . S
C2589 H2568 0.950 . S
C2589 C2588 1.373 . S
C2589 C2605 1.377 . S
C2590 C2588 1.389 . S
C2590 C2591 1.524 . S
C2590 C2604 1.377 . S
C2591 C2590 1.524 . S
C2591 C2592 1.397 . S
C2591 C2596 1.363 . S
C2592 H2569 0.950 . S
C2592 C2591 1.397 . S
C2592 C2593 1.334 . S
C2593 H2570 0.950 . S
C2593 C2592 1.334 . S
C2593 C2594 1.287 . S
C2594 C2593 1.287 . S
C2594 C2595 1.524 . S
C2594 H2613 0.913 . S
C2595 H2571 0.950 . S
C2595 C2594 1.524 . S
C2595 C2596 1.415 . S
C2596 H2572 0.950 . S
C2596 C2591 1.363 . S
C2596 C2595 1.415 . S
C2597 H2573 0.951 . S
C2597 C2598 1.366 . S
C2597 C2599 1.388 . S
C2598 C2597 1.366 . S
C2598 C2602 1.385 . S
C2599 H2574 0.951 . S
C2599 C2597 1.388 . S
C2599 C2600 1.366 . S
C2600 C2599 1.366 . S
C2600 C2601 1.414 . S
C2600 C2603 1.499 . S
C2601 H2575 0.950 . S
C2601 C2600 1.414 . S
C2601 C2602 1.374 . S
C2602 H2576 0.950 . S
C2602 C2598 1.385 . S
C2602 C2601 1.374 . S
C2603 C2600 1.499 . S
C2603 C2604 1.373 . S
C2603 C2605 1.389 . S
C2604 H2577 0.950 . S
C2604 C2590 1.377 . S
C2604 C2603 1.373 . S
C2605 C2589 1.377 . S
C2605 C2603 1.389 . S
C2605 C2606 1.524 . S
C2606 C2605 1.524 . S
C2606 C2607 1.397 . S
C2606 C2611 1.363 . S
C2607 H2578 0.950 . S
C2607 C2606 1.397 . S
C2607 C2608 1.334 . S
C2608 H2579 0.950 . S
C2608 C2607 1.334 . S
C2608 C2609 1.287 . S
C2609 C2608 1.287 . S
C2609 C2610 1.524 . S
C2609 H2612 0.999 . S
C2610 H2580 0.950 . S
C2610 C2609 1.524 . S
C2610 C2611 1.415 . S
C2611 H2581 0.950 . S
C2611 C2606 1.363 . S
C2611 C2610 1.415 . S
H2612 C2609 0.999 . S
H2613 C2594 0.913 . S
H2614 C2632 0.951 . S
H2615 C2634 0.951 . S
H2616 C2636 0.950 . S
H2617 C2637 0.950 . S
H2618 C2639 0.950 . S
H2619 C2642 0.950 . S
H2620 C2643 0.950 . S
H2621 C2645 0.950 . S
H2622 C2646 0.950 . S
H2623 C2647 0.951 . S
H2624 C2649 0.951 . S
H2625 C2651 0.950 . S
H2626 C2652 0.950 . S
H2627 C2654 0.950 . S
H2628 C2657 0.950 . S
H2629 C2658 0.950 . S
H2630 C2660 0.950 . S
H2631 C2661 0.950 . S
C2632 H2614 0.951 . S
C2632 C2633 1.366 . S
C2632 C2634 1.388 . S
C2633 C2632 1.366 . S
C2633 C2637 1.385 . S
C2634 H2615 0.951 . S
C2634 C2632 1.388 . S
C2634 C2635 1.366 . S
C2635 C2634 1.366 . S
C2635 C2636 1.414 . S
C2635 C2638 1.499 . S
C2636 H2616 0.950 . S
C2636 C2635 1.414 . S
C2636 C2637 1.374 . S
C2637 H2617 0.950 . S
C2637 C2633 1.385 . S
C2637 C2636 1.374 . S
C2638 C2635 1.499 . S
C2638 C2639 1.373 . S
C2638 C2640 1.389 . S
C2639 H2618 0.950 . S
C2639 C2638 1.373 . S
C2639 C2655 1.377 . S
C2640 C2638 1.389 . S
C2640 C2641 1.524 . S
C2640 C2654 1.377 . S
C2641 C2640 1.524 . S
C2641 C2642 1.397 . S
C2641 C2646 1.363 . S
C2642 H2619 0.950 . S
C2642 C2641 1.397 . S
C2642 C2643 1.334 . S
C2643 H2620 0.950 . S
C2643 C2642 1.334 . S
C2643 C2644 1.287 . S
C2644 C2643 1.287 . S
C2644 C2645 1.524 . S
C2644 H2663 0.913 . S
C2645 H2621 0.950 . S
C2645 C2644 1.524 . S
C2645 C2646 1.415 . S
C2646 H2622 0.950 . S
C2646 C2641 1.363 . S
C2646 C2645 1.415 . S
C2647 H2623 0.951 . S
C2647 C2648 1.366 . S
C2647 C2649 1.388 . S
C2648 C2647 1.366 . S
C2648 C2652 1.385 . S
C2649 H2624 0.951 . S
C2649 C2647 1.388 . S
C2649 C2650 1.366 . S
C2650 C2649 1.366 . S
C2650 C2651 1.414 . S
C2650 C2653 1.499 . S
C2651 H2625 0.950 . S
C2651 C2650 1.414 . S
C2651 C2652 1.374 . S
C2652 H2626 0.950 . S
C2652 C2648 1.385 . S
C2652 C2651 1.374 . S
C2653 C2650 1.499 . S
C2653 C2654 1.373 . S
C2653 C2655 1.389 . S
C2654 H2627 0.950 . S
C2654 C2640 1.377 . S
C2654 C2653 1.373 . S
C2655 C2639 1.377 . S
C2655 C2653 1.389 . S
C2655 C2656 1.524 . S
C2656 C2655 1.524 . S
C2656 C2657 1.397 . S
C2656 C2661 1.363 . S
C2657 H2628 0.950 . S
C2657 C2656 1.397 . S
C2657 C2658 1.334 . S
C2658 H2629 0.950 . S
C2658 C2657 1.334 . S
C2658 C2659 1.287 . S
C2659 C2658 1.287 . S
C2659 C2660 1.524 . S
C2659 H2662 0.999 . S
C2660 H2630 0.950 . S
C2660 C2659 1.524 . S
C2660 C2661 1.415 . S
C2661 H2631 0.950 . S
C2661 C2656 1.363 . S
C2661 C2660 1.415 . S
H2662 C2659 0.999 . S
H2663 C2644 0.913 . S
H2664 C2682 0.951 . S
H2665 C2684 0.951 . S
H2666 C2686 0.950 . S
H2667 C2687 0.950 . S
H2668 C2689 0.950 . S
H2669 C2692 0.950 . S
H2670 C2693 0.950 . S
H2671 C2695 0.950 . S
H2672 C2696 0.950 . S
H2673 C2697 0.951 . S
H2674 C2699 0.951 . S
H2675 C2701 0.950 . S
H2676 C2702 0.950 . S
H2677 C2704 0.950 . S
H2678 C2707 0.950 . S
H2679 C2708 0.950 . S
H2680 C2710 0.950 . S
H2681 C2711 0.950 . S
C2682 H2664 0.951 . S
C2682 C2683 1.366 . S
C2682 C2684 1.388 . S
C2683 C2682 1.366 . S
C2683 C2687 1.385 . S
C2684 H2665 0.951 . S
C2684 C2682 1.388 . S
C2684 C2685 1.366 . S
C2685 C2684 1.366 . S
C2685 C2686 1.414 . S
C2685 C2688 1.499 . S
C2686 H2666 0.950 . S
C2686 C2685 1.414 . S
C2686 C2687 1.374 . S
C2687 H2667 0.950 . S
C2687 C2683 1.385 . S
C2687 C2686 1.374 . S
C2688 C2685 1.499 . S
C2688 C2689 1.373 . S
C2688 C2690 1.389 . S
C2689 H2668 0.950 . S
C2689 C2688 1.373 . S
C2689 C2705 1.377 . S
C2690 C2688 1.389 . S
C2690 C2691 1.524 . S
C2690 C2704 1.377 . S
C2691 C2690 1.524 . S
C2691 C2692 1.397 . S
C2691 C2696 1.363 . S
C2692 H2669 0.950 . S
C2692 C2691 1.397 . S
C2692 C2693 1.334 . S
C2693 H2670 0.950 . S
C2693 C2692 1.334 . S
C2693 C2694 1.287 . S
C2694 C2693 1.287 . S
C2694 C2695 1.524 . S
C2694 H2713 0.913 . S
C2695 H2671 0.950 . S
C2695 C2694 1.524 . S
C2695 C2696 1.415 . S
C2696 H2672 0.950 . S
C2696 C2691 1.363 . S
C2696 C2695 1.415 . S
C2697 H2673 0.951 . S
C2697 C2698 1.366 . S
C2697 C2699 1.388 . S
C2698 C2697 1.366 . S
C2698 C2702 1.385 . S
C2699 H2674 0.951 . S
C2699 C2697 1.388 . S
C2699 C2700 1.366 . S
C2700 C2699 1.366 . S
C2700 C2701 1.414 . S
C2700 C2703 1.499 . S
C2701 H2675 0.950 . S
C2701 C2700 1.414 . S
C2701 C2702 1.374 . S
C2702 H2676 0.950 . S
C2702 C2698 1.385 . S
C2702 C2701 1.374 . S
C2703 C2700 1.499 . S
C2703 C2704 1.373 . S
C2703 C2705 1.389 . S
C2704 H2677 0.950 . S
C2704 C2690 1.377 . S
C2704 C2703 1.373 . S
C2705 C2689 1.377 . S
C2705 C2703 1.389 . S
C2705 C2706 1.524 . S
C2706 C2705 1.524 . S
C2706 C2707 1.397 . S
C2706 C2711 1.363 . S
C2707 H2678 0.950 . S
C2707 C2706 1.397 . S
C2707 C2708 1.334 . S
C2708 H2679 0.950 . S
C2708 C2707 1.334 . S
C2708 C2709 1.287 . S
C2709 C2708 1.287 . S
C2709 C2710 1.524 . S
C2709 H2712 0.999 . S
C2710 H2680 0.950 . S
C2710 C2709 1.524 . S
C2710 C2711 1.415 . S
C2711 H2681 0.950 . S
C2711 C2706 1.363 . S
C2711 C2710 1.415 . S
H2712 C2709 0.999 . S
H2713 C2694 0.913 . S
H2714 C2732 0.951 . S
H2715 C2734 0.929 1_455 S
H2716 C2736 0.950 . S
H2717 C2737 0.950 . S
H2718 C2739 0.950 . S
H2719 C2742 0.950 . S
H2720 C2743 0.950 . S
H2721 C2745 0.950 . S
H2722 C2746 0.950 . S
H2723 C2747 0.951 . S
H2724 C2749 0.951 . S
H2725 C2751 0.950 . S
H2726 C2752 0.950 . S
H2727 C2754 0.950 . S
H2728 C2757 0.950 . S
H2729 C2758 0.950 . S
H2730 C2760 0.950 . S
H2731 C2761 0.950 . S
C2732 H2714 0.951 . S
C2732 C2733 1.366 . S
C2732 C2734 1.348 1_455 S
C2733 C2732 1.366 . S
C2733 C2737 1.385 1_455 S
C2734 H2715 0.929 1_655 S
C2734 C2732 1.348 1_655 S
C2734 C2735 1.431 . S
C2735 C2734 1.431 . S
C2735 C2736 1.414 . S
C2735 C2738 1.499 . S
C2736 H2716 0.950 . S
C2736 C2735 1.414 . S
C2736 C2737 1.374 . S
C2737 H2717 0.950 . S
C2737 C2733 1.385 1_655 S
C2737 C2736 1.374 . S
C2738 C2735 1.499 . S
C2738 C2739 1.373 . S
C2738 C2740 1.389 . S
C2739 H2718 0.950 . S
C2739 C2738 1.373 . S
C2739 C2755 1.377 . S
C2740 C2738 1.389 . S
C2740 C2741 1.524 1_545 S
C2740 C2754 1.377 . S
C2741 C2740 1.524 1_565 S
C2741 C2742 1.397 . S
C2741 C2746 1.363 . S
C2742 H2719 0.950 . S
C2742 C2741 1.397 . S
C2742 C2743 1.334 . S
C2743 H2720 0.950 . S
C2743 C2742 1.334 . S
C2743 C2744 1.287 . S
C2744 C2743 1.287 . S
C2744 C2745 1.524 . S
C2744 H2763 0.913 . S
C2745 H2721 0.950 . S
C2745 C2744 1.524 . S
C2745 C2746 1.415 . S
C2746 H2722 0.950 . S
C2746 C2741 1.363 . S
C2746 C2745 1.415 . S
C2747 H2723 0.951 . S
C2747 C2748 1.366 . S
C2747 C2749 1.388 . S
C2748 C2747 1.366 . S
C2748 C2752 1.385 . S
C2749 H2724 0.951 . S
C2749 C2747 1.388 . S
C2749 C2750 1.366 . S
C2750 C2749 1.366 . S
C2750 C2751 1.414 . S
C2750 C2753 1.499 . S
C2751 H2725 0.950 . S
C2751 C2750 1.414 . S
C2751 C2752 1.374 . S
C2752 H2726 0.950 . S
C2752 C2748 1.385 . S
C2752 C2751 1.374 . S
C2753 C2750 1.499 . S
C2753 C2754 1.373 . S
C2753 C2755 1.389 . S
C2754 H2727 0.950 . S
C2754 C2740 1.377 . S
C2754 C2753 1.373 . S
C2755 C2739 1.377 . S
C2755 C2753 1.389 . S
C2755 C2756 1.524 . S
C2756 C2755 1.524 . S
C2756 C2757 1.397 . S
C2756 C2761 1.363 . S
C2757 H2728 0.950 . S
C2757 C2756 1.397 . S
C2757 C2758 1.334 . S
C2758 H2729 0.950 . S
C2758 C2757 1.334 . S
C2758 C2759 1.287 . S
C2759 C2758 1.287 . S
C2759 C2760 1.524 . S
C2759 H2762 0.999 . S
C2760 H2730 0.950 . S
C2760 C2759 1.524 . S
C2760 C2761 1.415 . S
C2761 H2731 0.950 . S
C2761 C2756 1.363 . S
C2761 C2760 1.415 . S
H2762 C2759 0.999 . S
H2763 C2744 0.913 . S
H2764 C2782 0.951 . S
H2765 C2784 0.951 . S
H2766 C2786 0.950 . S
H2767 C2787 0.950 . S
H2768 C2789 0.950 . S
H2769 C2792 0.950 . S
H2770 C2793 0.950 . S
H2771 C2795 0.950 . S
H2772 C2796 0.950 . S
H2773 C2797 0.951 . S
H2774 C2799 0.951 . S
H2775 C2801 0.950 . S
H2776 C2802 0.950 . S
H2777 C2804 0.950 . S
H2778 C2807 0.950 . S
H2779 C2808 0.950 . S
H2780 C2810 0.950 . S
H2781 C2811 0.950 . S
C2782 H2764 0.951 . S
C2782 C2783 1.366 . S
C2782 C2784 1.388 . S
C2783 C2782 1.366 . S
C2783 C2787 1.385 . S
C2784 H2765 0.951 . S
C2784 C2782 1.388 . S
C2784 C2785 1.366 . S
C2785 C2784 1.366 . S
C2785 C2786 1.414 . S
C2785 C2788 1.499 . S
C2786 H2766 0.950 . S
C2786 C2785 1.414 . S
C2786 C2787 1.374 . S
C2787 H2767 0.950 . S
C2787 C2783 1.385 . S
C2787 C2786 1.374 . S
C2788 C2785 1.499 . S
C2788 C2789 1.373 . S
C2788 C2790 1.389 . S
C2789 H2768 0.950 . S
C2789 C2788 1.373 . S
C2789 C2805 1.377 . S
C2790 C2788 1.389 . S
C2790 C2791 1.524 . S
C2790 C2804 1.377 . S
C2791 C2790 1.524 . S
C2791 C2792 1.397 . S
C2791 C2796 1.363 . S
C2792 H2769 0.950 . S
C2792 C2791 1.397 . S
C2792 C2793 1.334 . S
C2793 H2770 0.950 . S
C2793 C2792 1.334 . S
C2793 C2794 1.287 . S
C2794 C2793 1.287 . S
C2794 C2795 1.524 . S
C2794 H2813 0.913 . S
C2795 H2771 0.950 . S
C2795 C2794 1.524 . S
C2795 C2796 1.415 . S
C2796 H2772 0.950 . S
C2796 C2791 1.363 . S
C2796 C2795 1.415 . S
C2797 H2773 0.951 . S
C2797 C2798 1.366 . S
C2797 C2799 1.388 . S
C2798 C2797 1.366 . S
C2798 C2802 1.385 . S
C2799 H2774 0.951 . S
C2799 C2797 1.388 . S
C2799 C2800 1.366 . S
C2800 C2799 1.366 . S
C2800 C2801 1.414 . S
C2800 C2803 1.499 . S
C2801 H2775 0.950 . S
C2801 C2800 1.414 . S
C2801 C2802 1.374 . S
C2802 H2776 0.950 . S
C2802 C2798 1.385 . S
C2802 C2801 1.374 . S
C2803 C2800 1.499 . S
C2803 C2804 1.373 . S
C2803 C2805 1.389 . S
C2804 H2777 0.950 . S
C2804 C2790 1.377 . S
C2804 C2803 1.373 . S
C2805 C2789 1.377 . S
C2805 C2803 1.389 . S
C2805 C2806 1.524 . S
C2806 C2805 1.524 . S
C2806 C2807 1.397 . S
C2806 C2811 1.363 . S
C2807 H2778 0.950 . S
C2807 C2806 1.397 . S
C2807 C2808 1.334 . S
C2808 H2779 0.950 . S
C2808 C2807 1.334 . S
C2808 C2809 1.287 . S
C2809 C2808 1.287 . S
C2809 C2810 1.524 . S
C2809 H2812 0.999 . S
C2810 H2780 0.950 . S
C2810 C2809 1.524 . S
C2810 C2811 1.415 . S
C2811 H2781 0.950 . S
C2811 C2806 1.363 . S
C2811 C2810 1.415 . S
H2812 C2809 0.999 . S
H2813 C2794 0.913 . S
H2814 C2832 1.013 . S
H2815 C2834 0.951 . S
H2816 C2836 0.950 . S
H2817 C2837 0.950 . S
H2818 C2839 0.950 . S
H2819 C2842 0.950 . S
H2820 C2843 0.950 . S
H2821 C2845 0.950 . S
H2822 C2846 0.950 . S
H2823 C2847 0.951 . S
H2824 C2849 0.951 . S
H2825 C2851 0.950 . S
H2826 C2852 0.950 . S
H2827 C2854 0.950 . S
H2828 C2857 0.950 . S
H2829 C2858 0.950 . S
H2830 C2860 0.950 . S
H2831 C2861 0.950 . S
C2832 H2814 1.013 . S
C2832 C2833 1.343 1_655 S
C2832 C2834 1.353 1_655 S
C2833 C2832 1.343 1_455 S
C2833 C2837 1.385 . S
C2834 H2815 0.951 . S
C2834 C2832 1.353 1_455 S
C2834 C2835 1.366 . S
C2835 C2834 1.366 . S
C2835 C2836 1.414 . S
C2835 C2838 1.499 . S
C2836 H2816 0.950 . S
C2836 C2835 1.414 . S
C2836 C2837 1.374 . S
C2837 H2817 0.950 . S
C2837 C2833 1.385 . S
C2837 C2836 1.374 . S
C2838 C2835 1.499 . S
C2838 C2839 1.373 . S
C2838 C2840 1.389 . S
C2839 H2818 0.950 . S
C2839 C2838 1.373 . S
C2839 C2855 1.377 . S
C2840 C2838 1.389 . S
C2840 C2841 1.524 . S
C2840 C2854 1.377 . S
C2841 C2840 1.524 . S
C2841 C2842 1.397 . S
C2841 C2846 1.363 . S
C2842 H2819 0.950 . S
C2842 C2841 1.397 . S
C2842 C2843 1.334 . S
C2843 H2820 0.950 . S
C2843 C2842 1.334 . S
C2843 C2844 1.287 . S
C2844 C2843 1.287 . S
C2844 C2845 1.524 . S
C2844 H2863 0.913 . S
C2845 H2821 0.950 . S
C2845 C2844 1.524 . S
C2845 C2846 1.415 . S
C2846 H2822 0.950 . S
C2846 C2841 1.363 . S
C2846 C2845 1.415 . S
C2847 H2823 0.951 . S
C2847 C2848 1.366 . S
C2847 C2849 1.388 . S
C2848 C2847 1.366 . S
C2848 C2852 1.385 . S
C2849 H2824 0.951 . S
C2849 C2847 1.388 . S
C2849 C2850 1.366 . S
C2850 C2849 1.366 . S
C2850 C2851 1.414 . S
C2850 C2853 1.499 . S
C2851 H2825 0.950 . S
C2851 C2850 1.414 . S
C2851 C2852 1.374 . S
C2852 H2826 0.950 . S
C2852 C2848 1.385 . S
C2852 C2851 1.374 . S
C2853 C2850 1.499 . S
C2853 C2854 1.373 . S
C2853 C2855 1.389 . S
C2854 H2827 0.950 . S
C2854 C2840 1.377 . S
C2854 C2853 1.373 . S
C2855 C2839 1.377 . S
C2855 C2853 1.389 . S
C2855 C2856 1.524 . S
C2856 C2855 1.524 . S
C2856 C2857 1.397 . S
C2856 C2861 1.363 . S
C2857 H2828 0.950 . S
C2857 C2856 1.397 . S
C2857 C2858 1.334 . S
C2858 H2829 0.950 . S
C2858 C2857 1.334 . S
C2858 C2859 1.287 . S
C2859 C2858 1.287 . S
C2859 C2860 1.524 . S
C2859 H2862 0.999 . S
C2860 H2830 0.950 . S
C2860 C2859 1.524 . S
C2860 C2861 1.415 . S
C2861 H2831 0.950 . S
C2861 C2856 1.363 . S
C2861 C2860 1.415 . S
H2862 C2859 0.999 . S
H2863 C2844 0.913 . S
H2864 C2882 0.951 . S
H2865 C2884 0.951 . S
H2866 C2886 0.950 . S
H2867 C2887 0.950 . S
H2868 C2889 0.950 . S
H2869 C2892 0.950 . S
H2870 C2893 0.950 . S
H2871 C2895 0.950 . S
H2872 C2896 0.950 . S
H2873 C2897 0.951 . S
H2874 C2899 0.951 . S
H2875 C2901 0.950 . S
H2876 C2902 0.950 . S
H2877 C2904 0.950 . S
H2878 C2907 0.950 . S
H2879 C2908 0.950 . S
H2880 C2910 0.950 . S
H2881 C2911 0.950 . S
C2882 H2864 0.951 . S
C2882 C2883 1.366 . S
C2882 C2884 1.388 . S
C2883 C2882 1.366 . S
C2883 C2887 1.385 . S
C2884 H2865 0.951 . S
C2884 C2882 1.388 . S
C2884 C2885 1.366 . S
C2885 C2884 1.366 . S
C2885 C2886 1.414 . S
C2885 C2888 1.499 . S
C2886 H2866 0.950 . S
C2886 C2885 1.414 . S
C2886 C2887 1.374 . S
C2887 H2867 0.950 . S
C2887 C2883 1.385 . S
C2887 C2886 1.374 . S
C2888 C2885 1.499 . S
C2888 C2889 1.373 . S
C2888 C2890 1.389 . S
C2889 H2868 0.950 . S
C2889 C2888 1.373 . S
C2889 C2905 1.377 . S
C2890 C2888 1.389 . S
C2890 C2891 1.524 . S
C2890 C2904 1.377 . S
C2891 C2890 1.524 . S
C2891 C2892 1.397 . S
C2891 C2896 1.363 . S
C2892 H2869 0.950 . S
C2892 C2891 1.397 . S
C2892 C2893 1.334 . S
C2893 H2870 0.950 . S
C2893 C2892 1.334 . S
C2893 C2894 1.287 . S
C2894 C2893 1.287 . S
C2894 C2895 1.524 . S
C2894 H2913 0.913 . S
C2895 H2871 0.950 . S
C2895 C2894 1.524 . S
C2895 C2896 1.415 . S
C2896 H2872 0.950 . S
C2896 C2891 1.363 . S
C2896 C2895 1.415 . S
C2897 H2873 0.951 . S
C2897 C2898 1.366 . S
C2897 C2899 1.388 . S
C2898 C2897 1.366 . S
C2898 C2902 1.385 . S
C2899 H2874 0.951 . S
C2899 C2897 1.388 . S
C2899 C2900 1.366 . S
C2900 C2899 1.366 . S
C2900 C2901 1.414 . S
C2900 C2903 1.499 . S
C2901 H2875 0.950 . S
C2901 C2900 1.414 . S
C2901 C2902 1.374 . S
C2902 H2876 0.950 . S
C2902 C2898 1.385 . S
C2902 C2901 1.374 . S
C2903 C2900 1.499 . S
C2903 C2904 1.373 . S
C2903 C2905 1.389 . S
C2904 H2877 0.950 . S
C2904 C2890 1.377 . S
C2904 C2903 1.373 . S
C2905 C2889 1.377 . S
C2905 C2903 1.389 . S
C2905 C2906 1.524 . S
C2906 C2905 1.524 . S
C2906 C2907 1.397 . S
C2906 C2911 1.363 . S
C2907 H2878 0.950 . S
C2907 C2906 1.397 . S
C2907 C2908 1.334 . S
C2908 H2879 0.950 . S
C2908 C2907 1.334 . S
C2908 C2909 1.287 . S
C2909 C2908 1.287 . S
C2909 C2910 1.524 . S
C2909 H2912 0.999 . S
C2910 H2880 0.950 . S
C2910 C2909 1.524 . S
C2910 C2911 1.415 . S
C2911 H2881 0.950 . S
C2911 C2906 1.363 . S
C2911 C2910 1.415 . S
H2912 C2909 0.999 . S
H2913 C2894 0.913 . S
H2914 C2932 0.951 . S
H2915 C2934 0.951 1_556 S
H2916 C2936 0.950 . S
H2917 C2937 0.950 . S
H2918 C2939 0.928 1_455 S
H2919 C2942 1.004 . S
H2920 C2943 0.950 . S
H2921 C2945 0.950 . S
H2922 C2946 0.950 . S
H2923 C2947 0.951 . S
H2924 C2949 0.951 . S
H2925 C2951 0.951 . S
H2926 C2952 0.942 1_455 S
H2927 C2954 0.950 . S
H2928 C2957 0.950 . S
H2929 C2958 0.950 . S
H2930 C2960 0.950 . S
H2931 C2961 0.954 1_655 S
C2932 H2914 0.951 . S
C2932 C2933 1.366 . S
C2932 C2934 1.388 . S
C2933 C2932 1.366 . S
C2933 C2937 1.385 . S
C2934 H2915 0.951 1_554 S
C2934 C2932 1.388 . S
C2934 C2935 1.366 . S
C2935 C2934 1.366 . S
C2935 C2936 1.414 . S
C2935 C2938 1.499 . S
C2936 H2916 0.950 . S
C2936 C2935 1.414 . S
C2936 C2937 1.374 . S
C2937 H2917 0.950 . S
C2937 C2933 1.385 . S
C2937 C2936 1.374 . S
C2938 C2935 1.499 . S
C2938 C2939 1.373 . S
C2938 C2940 1.389 1_554 S
C2939 H2918 0.928 1_655 S
C2939 C2938 1.373 . S
C2939 C2955 1.398 1_554 S
C2940 C2938 1.389 1_556 S
C2940 C2941 1.524 . S
C2940 C2954 1.377 . S
C2941 C2940 1.524 . S
C2941 C2942 1.397 . S
C2941 C2946 1.363 . S
C2942 H2919 1.004 . S
C2942 C2941 1.397 . S
C2942 C2943 1.334 . S
C2943 H2920 0.950 . S
C2943 C2942 1.334 . S
C2943 C2944 1.287 . S
C2944 C2943 1.287 . S
C2944 C2945 1.524 . S
C2944 H2963 0.913 . S
C2945 H2921 0.950 . S
C2945 C2944 1.524 . S
C2945 C2946 1.415 . S
C2946 H2922 0.950 . S
C2946 C2941 1.363 . S
C2946 C2945 1.415 . S
C2947 H2923 0.951 . S
C2947 C2948 1.366 . S
C2947 C2949 1.388 . S
C2948 C2947 1.366 . S
C2948 C2952 1.387 . S
C2949 H2924 0.951 . S
C2949 C2947 1.388 . S
C2949 C2950 1.366 . S
C2950 C2949 1.366 . S
C2950 C2951 1.414 . S
C2950 C2953 1.499 . S
C2951 H2925 0.951 . S
C2951 C2950 1.414 . S
C2951 C2952 1.380 . S
C2952 H2926 0.942 1_655 S
C2952 C2948 1.387 . S
C2952 C2951 1.380 . S
C2953 C2950 1.499 . S
C2953 C2954 1.373 . S
C2953 C2955 1.416 . S
C2954 H2927 0.950 . S
C2954 C2940 1.377 . S
C2954 C2953 1.373 . S
C2955 C2939 1.398 1_556 S
C2955 C2953 1.416 . S
C2955 C2956 1.476 1_656 S
C2956 C2955 1.476 1_454 S
C2956 C2957 1.397 1_554 S
C2956 C2961 1.363 . S
C2957 H2928 0.950 . S
C2957 C2956 1.397 1_556 S
C2957 C2958 1.334 . S
C2958 H2929 0.950 . S
C2958 C2957 1.334 . S
C2958 C2959 1.287 1_556 S
C2959 C2958 1.287 1_554 S
C2959 C2960 1.524 . S
C2959 H2962 0.999 . S
C2960 H2930 0.950 . S
C2960 C2959 1.524 . S
C2960 C2961 1.415 . S
C2961 H2931 0.954 1_455 S
C2961 C2956 1.363 . S
C2961 C2960 1.415 . S
H2962 C2959 0.999 . S
H2963 C2944 0.913 . S
H2964 C2982 0.951 . S
H2965 C2984 0.951 . S
H2966 C2986 0.950 . S
H2967 C2987 0.950 . S
H2968 C2989 0.950 . S
H2969 C2992 0.950 . S
H2970 C2993 0.950 . S
H2971 C2995 0.950 . S
H2972 C2996 0.950 . S
H2973 C2997 0.951 . S
H2974 C2999 0.951 . S
H2975 C3001 0.950 . S
H2976 C3002 0.950 . S
H2977 C3004 0.950 . S
H2978 C3007 0.950 . S
H2979 C3008 0.950 . S
H2980 C3010 0.950 . S
H2981 C3011 0.950 . S
C2982 H2964 0.951 . S
C2982 C2983 1.366 . S
C2982 C2984 1.388 . S
C2983 C2982 1.366 . S
C2983 C2987 1.385 . S
C2984 H2965 0.951 . S
C2984 C2982 1.388 . S
C2984 C2985 1.366 . S
C2985 C2984 1.366 . S
C2985 C2986 1.414 . S
C2985 C2988 1.499 . S
C2986 H2966 0.950 . S
C2986 C2985 1.414 . S
C2986 C2987 1.374 . S
C2987 H2967 0.950 . S
C2987 C2983 1.385 . S
C2987 C2986 1.374 . S
C2988 C2985 1.499 . S
C2988 C2989 1.373 . S
C2988 C2990 1.389 . S
C2989 H2968 0.950 . S
C2989 C2988 1.373 . S
C2989 C3005 1.377 . S
C2990 C2988 1.389 . S
C2990 C2991 1.524 . S
C2990 C3004 1.377 . S
C2991 C2990 1.524 . S
C2991 C2992 1.397 . S
C2991 C2996 1.363 . S
C2992 H2969 0.950 . S
C2992 C2991 1.397 . S
C2992 C2993 1.334 . S
C2993 H2970 0.950 . S
C2993 C2992 1.334 . S
C2993 C2994 1.287 . S
C2994 C2993 1.287 . S
C2994 C2995 1.524 . S
C2994 H3013 0.913 . S
C2995 H2971 0.950 . S
C2995 C2994 1.524 . S
C2995 C2996 1.415 . S
C2996 H2972 0.950 . S
C2996 C2991 1.363 . S
C2996 C2995 1.415 . S
C2997 H2973 0.951 . S
C2997 C2998 1.366 . S
C2997 C2999 1.388 . S
C2998 C2997 1.366 . S
C2998 C3002 1.385 . S
C2999 H2974 0.951 . S
C2999 C2997 1.388 . S
C2999 C3000 1.366 . S
C3000 C2999 1.366 . S
C3000 C3001 1.414 . S
C3000 C3003 1.499 . S
C3001 H2975 0.950 . S
C3001 C3000 1.414 . S
C3001 C3002 1.374 . S
C3002 H2976 0.950 . S
C3002 C2998 1.385 . S
C3002 C3001 1.374 . S
C3003 C3000 1.499 . S
C3003 C3004 1.373 . S
C3003 C3005 1.389 . S
C3004 H2977 0.950 . S
C3004 C2990 1.377 . S
C3004 C3003 1.373 . S
C3005 C2989 1.377 . S
C3005 C3003 1.389 . S
C3005 C3006 1.524 . S
C3006 C3005 1.524 . S
C3006 C3007 1.397 . S
C3006 C3011 1.363 . S
C3007 H2978 0.950 . S
C3007 C3006 1.397 . S
C3007 C3008 1.334 . S
C3008 H2979 0.950 . S
C3008 C3007 1.334 . S
C3008 C3009 1.287 . S
C3009 C3008 1.287 . S
C3009 C3010 1.524 . S
C3009 H3012 0.999 . S
C3010 H2980 0.950 . S
C3010 C3009 1.524 . S
C3010 C3011 1.415 . S
C3011 H2981 0.950 . S
C3011 C3006 1.363 . S
C3011 C3010 1.415 . S
H3012 C3009 0.999 . S
H3013 C2994 0.913 . S
H3014 C3032 0.951 . S
H3015 C3034 0.951 . S
H3016 C3036 0.950 . S
H3017 C3037 0.950 . S
H3018 C3039 0.950 . S
H3019 C3042 0.950 1_556 S
H3020 C3043 0.950 . S
H3021 C3045 0.950 . S
H3022 C3046 0.950 . S
H3023 C3047 0.951 . S
H3024 C3049 0.951 . S
H3025 C3051 0.950 . S
H3026 C3052 0.950 . S
H3027 C3054 0.902 1_655 S
H3028 C3057 0.950 . S
H3029 C3058 0.950 . S
H3030 C3060 0.950 . S
H3031 C3061 0.950 . S
C3032 H3014 0.951 . S
C3032 C3033 1.366 . S
C3032 C3034 1.388 . S
C3033 C3032 1.366 . S
C3033 C3037 1.385 1_554 S
C3034 H3015 0.951 . S
C3034 C3032 1.388 . S
C3034 C3035 1.366 1_554 S
C3035 C3034 1.366 1_556 S
C3035 C3036 1.414 . S
C3035 C3038 1.499 . S
C3036 H3016 0.950 . S
C3036 C3035 1.414 . S
C3036 C3037 1.374 . S
C3037 H3017 0.950 . S
C3037 C3033 1.385 1_556 S
C3037 C3036 1.374 . S
C3038 C3035 1.499 . S
C3038 C3039 1.373 . S
C3038 C3040 1.389 . S
C3039 H3018 0.950 . S
C3039 C3038 1.373 . S
C3039 C3055 1.377 . S
C3040 C3038 1.389 . S
C3040 C3041 1.524 1_456 S
C3040 C3054 1.388 . S
C3041 C3040 1.524 1_654 S
C3041 C3042 1.397 . S
C3041 C3046 1.363 . S
C3042 H3019 0.950 1_554 S
C3042 C3041 1.397 . S
C3042 C3043 1.334 . S
C3043 H3020 0.950 . S
C3043 C3042 1.334 . S
C3043 C3044 1.287 . S
C3044 C3043 1.287 . S
C3044 C3045 1.524 . S
C3044 H3063 0.913 . S
C3045 H3021 0.950 . S
C3045 C3044 1.524 . S
C3045 C3046 1.415 . S
C3046 H3022 0.950 . S
C3046 C3041 1.363 . S
C3046 C3045 1.415 . S
C3047 H3023 0.951 . S
C3047 C3048 1.366 . S
C3047 C3049 1.388 . S
C3048 C3047 1.366 . S
C3048 C3052 1.385 . S
C3049 H3024 0.951 . S
C3049 C3047 1.388 . S
C3049 C3050 1.366 . S
C3050 C3049 1.366 . S
C3050 C3051 1.414 . S
C3050 C3053 1.499 . S
C3051 H3025 0.950 . S
C3051 C3050 1.414 . S
C3051 C3052 1.374 . S
C3052 H3026 0.950 . S
C3052 C3048 1.385 . S
C3052 C3051 1.374 . S
C3053 C3050 1.499 . S
C3053 C3054 1.415 . S
C3053 C3055 1.389 . S
C3054 H3027 0.902 1_455 S
C3054 C3040 1.388 . S
C3054 C3053 1.415 . S
C3055 C3039 1.377 . S
C3055 C3053 1.389 . S
C3055 C3056 1.524 . S
C3056 C3055 1.524 . S
C3056 C3057 1.397 . S
C3056 C3061 1.363 . S
C3057 H3028 0.950 . S
C3057 C3056 1.397 . S
C3057 C3058 1.334 . S
C3058 H3029 0.950 . S
C3058 C3057 1.334 . S
C3058 C3059 1.287 . S
C3059 C3058 1.287 . S
C3059 C3060 1.524 . S
C3059 H3062 0.999 . S
C3060 H3030 0.950 . S
C3060 C3059 1.524 . S
C3060 C3061 1.415 . S
C3061 H3031 0.950 . S
C3061 C3056 1.363 . S
C3061 C3060 1.415 . S
H3062 C3059 0.999 . S
H3063 C3044 0.913 . S
H3064 C3082 0.951 . S
H3065 C3084 0.951 . S
H3066 C3086 0.950 . S
H3067 C3087 0.950 . S
H3068 C3089 0.950 . S
H3069 C3092 0.950 . S
H3070 C3093 0.950 . S
H3071 C3095 0.950 . S
H3072 C3096 0.950 . S
H3073 C3097 0.951 . S
H3074 C3099 0.951 . S
H3075 C3101 0.950 . S
H3076 C3102 0.950 . S
H3077 C3104 0.950 . S
H3078 C3107 0.950 . S
H3079 C3108 0.950 . S
H3080 C3110 0.950 . S
H3081 C3111 0.950 . S
C3082 H3064 0.951 . S
C3082 C3083 1.366 . S
C3082 C3084 1.388 . S
C3083 C3082 1.366 . S
C3083 C3087 1.385 . S
C3084 H3065 0.951 . S
C3084 C3082 1.388 . S
C3084 C3085 1.366 . S
C3085 C3084 1.366 . S
C3085 C3086 1.414 . S
C3085 C3088 1.499 . S
C3086 H3066 0.950 . S
C3086 C3085 1.414 . S
C3086 C3087 1.374 . S
C3087 H3067 0.950 . S
C3087 C3083 1.385 . S
C3087 C3086 1.374 . S
C3088 C3085 1.499 . S
C3088 C3089 1.373 . S
C3088 C3090 1.389 . S
C3089 H3068 0.950 . S
C3089 C3088 1.373 . S
C3089 C3105 1.377 . S
C3090 C3088 1.389 . S
C3090 C3091 1.524 . S
C3090 C3104 1.377 . S
C3091 C3090 1.524 . S
C3091 C3092 1.397 . S
C3091 C3096 1.363 . S
C3092 H3069 0.950 . S
C3092 C3091 1.397 . S
C3092 C3093 1.334 . S
C3093 H3070 0.950 . S
C3093 C3092 1.334 . S
C3093 C3094 1.287 . S
C3094 C3093 1.287 . S
C3094 C3095 1.524 . S
C3094 H3113 0.913 . S
C3095 H3071 0.950 . S
C3095 C3094 1.524 . S
C3095 C3096 1.415 . S
C3096 H3072 0.950 . S
C3096 C3091 1.363 . S
C3096 C3095 1.415 . S
C3097 H3073 0.951 . S
C3097 C3098 1.366 . S
C3097 C3099 1.388 . S
C3098 C3097 1.366 . S
C3098 C3102 1.385 . S
C3099 H3074 0.951 . S
C3099 C3097 1.388 . S
C3099 C3100 1.366 . S
C3100 C3099 1.366 . S
C3100 C3101 1.414 . S
C3100 C3103 1.499 . S
C3101 H3075 0.950 . S
C3101 C3100 1.414 . S
C3101 C3102 1.374 . S
C3102 H3076 0.950 . S
C3102 C3098 1.385 . S
C3102 C3101 1.374 . S
C3103 C3100 1.499 . S
C3103 C3104 1.373 . S
C3103 C3105 1.389 . S
C3104 H3077 0.950 . S
C3104 C3090 1.377 . S
C3104 C3103 1.373 . S
C3105 C3089 1.377 . S
C3105 C3103 1.389 . S
C3105 C3106 1.524 . S
C3106 C3105 1.524 . S
C3106 C3107 1.397 . S
C3106 C3111 1.363 . S
C3107 H3078 0.950 . S
C3107 C3106 1.397 . S
C3107 C3108 1.334 . S
C3108 H3079 0.950 . S
C3108 C3107 1.334 . S
C3108 C3109 1.287 . S
C3109 C3108 1.287 . S
C3109 C3110 1.524 . S
C3109 H3112 0.999 . S
C3110 H3080 0.950 . S
C3110 C3109 1.524 . S
C3110 C3111 1.415 . S
C3111 H3081 0.950 . S
C3111 C3106 1.363 . S
C3111 C3110 1.415 . S
H3112 C3109 0.999 . S
H3113 C3094 0.913 . S
H3114 C3132 0.951 . S
H3115 C3134 0.951 . S
H3116 C3136 0.962 . S
H3117 C3137 0.950 . S
H3118 C3139 0.950 . S
H3119 C3142 0.950 . S
H3120 C3143 0.950 . S
H3121 C3145 0.950 . S
H3122 C3146 0.950 . S
H3123 C3147 0.951 . S
H3124 C3149 0.951 . S
H3125 C3151 0.950 . S
H3126 C3152 0.950 . S
H3127 C3154 0.950 . S
H3128 C3157 0.950 . S
H3129 C3158 0.950 . S
H3130 C3160 0.950 . S
H3131 C3161 0.950 . S
C3132 H3114 0.951 . S
C3132 C3133 1.366 1_554 S
C3132 C3134 1.388 . S
C3133 C3132 1.366 1_556 S
C3133 C3137 1.385 . S
C3134 H3115 0.951 . S
C3134 C3132 1.388 . S
C3134 C3135 1.366 . S
C3135 C3134 1.366 . S
C3135 C3136 1.414 . S
C3135 C3138 1.499 . S
C3136 H3116 0.962 . S
C3136 C3135 1.414 . S
C3136 C3137 1.374 1_554 S
C3137 H3117 0.950 . S
C3137 C3133 1.385 . S
C3137 C3136 1.374 1_556 S
C3138 C3135 1.499 . S
C3138 C3139 1.373 . S
C3138 C3140 1.389 . S
C3139 H3118 0.950 . S
C3139 C3138 1.373 . S
C3139 C3155 1.377 . S
C3140 C3138 1.389 . S
C3140 C3141 1.524 . S
C3140 C3154 1.377 . S
C3141 C3140 1.524 . S
C3141 C3142 1.397 . S
C3141 C3146 1.363 . S
C3142 H3119 0.950 . S
C3142 C3141 1.397 . S
C3142 C3143 1.334 . S
C3143 H3120 0.950 . S
C3143 C3142 1.334 . S
C3143 C3144 1.287 . S
C3144 C3143 1.287 . S
C3144 C3145 1.524 . S
C3144 H3163 0.913 . S
C3145 H3121 0.950 . S
C3145 C3144 1.524 . S
C3145 C3146 1.415 . S
C3146 H3122 0.950 . S
C3146 C3141 1.363 . S
C3146 C3145 1.415 . S
C3147 H3123 0.951 . S
C3147 C3148 1.366 . S
C3147 C3149 1.388 . S
C3148 C3147 1.366 . S
C3148 C3152 1.385 . S
C3149 H3124 0.951 . S
C3149 C3147 1.388 . S
C3149 C3150 1.366 . S
C3150 C3149 1.366 . S
C3150 C3151 1.414 . S
C3150 C3153 1.499 . S
C3151 H3125 0.950 . S
C3151 C3150 1.414 . S
C3151 C3152 1.374 . S
C3152 H3126 0.950 . S
C3152 C3148 1.385 . S
C3152 C3151 1.374 . S
C3153 C3150 1.499 . S
C3153 C3154 1.373 . S
C3153 C3155 1.389 . S
C3154 H3127 0.950 . S
C3154 C3140 1.377 . S
C3154 C3153 1.373 . S
C3155 C3139 1.377 . S
C3155 C3153 1.389 . S
C3155 C3156 1.524 . S
C3156 C3155 1.524 . S
C3156 C3157 1.397 . S
C3156 C3161 1.363 . S
C3157 H3128 0.950 . S
C3157 C3156 1.397 . S
C3157 C3158 1.334 . S
C3158 H3129 0.950 . S
C3158 C3157 1.334 . S
C3158 C3159 1.287 . S
C3159 C3158 1.287 . S
C3159 C3160 1.524 . S
C3159 H3162 0.999 . S
C3160 H3130 0.950 . S
C3160 C3159 1.524 . S
C3160 C3161 1.415 . S
C3161 H3131 0.950 . S
C3161 C3156 1.363 . S
C3161 C3160 1.415 . S
H3162 C3159 0.999 . S
H3163 C3144 0.913 . S
H3164 C3182 0.951 . S
H3165 C3184 0.951 . S
H3166 C3186 0.950 . S
H3167 C3187 0.950 . S
H3168 C3189 0.950 . S
H3169 C3192 0.950 . S
H3170 C3193 0.950 . S
H3171 C3195 0.950 . S
H3172 C3196 0.950 . S
H3173 C3197 0.951 . S
H3174 C3199 0.951 . S
H3175 C3201 0.950 . S
H3176 C3202 0.950 . S
H3177 C3204 0.950 . S
H3178 C3207 0.950 . S
H3179 C3208 0.950 . S
H3180 C3210 0.950 . S
H3181 C3211 0.950 . S
C3182 H3164 0.951 . S
C3182 C3183 1.366 . S
C3182 C3184 1.388 . S
C3183 C3182 1.366 . S
C3183 C3187 1.385 . S
C3184 H3165 0.951 . S
C3184 C3182 1.388 . S
C3184 C3185 1.366 . S
C3185 C3184 1.366 . S
C3185 C3186 1.414 . S
C3185 C3188 1.499 . S
C3186 H3166 0.950 . S
C3186 C3185 1.414 . S
C3186 C3187 1.374 . S
C3187 H3167 0.950 . S
C3187 C3183 1.385 . S
C3187 C3186 1.374 . S
C3188 C3185 1.499 . S
C3188 C3189 1.373 . S
C3188 C3190 1.389 . S
C3189 H3168 0.950 . S
C3189 C3188 1.373 . S
C3189 C3205 1.377 . S
C3190 C3188 1.389 . S
C3190 C3191 1.524 . S
C3190 C3204 1.377 . S
C3191 C3190 1.524 . S
C3191 C3192 1.397 . S
C3191 C3196 1.363 . S
C3192 H3169 0.950 . S
C3192 C3191 1.397 . S
C3192 C3193 1.334 . S
C3193 H3170 0.950 . S
C3193 C3192 1.334 . S
C3193 C3194 1.287 . S
C3194 C3193 1.287 . S
C3194 C3195 1.524 . S
C3194 H3213 0.913 . S
C3195 H3171 0.950 . S
C3195 C3194 1.524 . S
C3195 C3196 1.415 . S
C3196 H3172 0.950 . S
C3196 C3191 1.363 . S
C3196 C3195 1.415 . S
C3197 H3173 0.951 . S
C3197 C3198 1.366 . S
C3197 C3199 1.388 . S
C3198 C3197 1.366 . S
C3198 C3202 1.385 . S
C3199 H3174 0.951 . S
C3199 C3197 1.388 . S
C3199 C3200 1.366 . S
C3200 C3199 1.366 . S
C3200 C3201 1.414 . S
C3200 C3203 1.499 . S
C3201 H3175 0.950 . S
C3201 C3200 1.414 . S
C3201 C3202 1.374 . S
C3202 H3176 0.950 . S
C3202 C3198 1.385 . S
C3202 C3201 1.374 . S
C3203 C3200 1.499 . S
C3203 C3204 1.373 . S
C3203 C3205 1.389 . S
C3204 H3177 0.950 . S
C3204 C3190 1.377 . S
C3204 C3203 1.373 . S
C3205 C3189 1.377 . S
C3205 C3203 1.389 . S
C3205 C3206 1.524 . S
C3206 C3205 1.524 . S
C3206 C3207 1.397 . S
C3206 C3211 1.363 . S
C3207 H3178 0.950 . S
C3207 C3206 1.397 . S
C3207 C3208 1.334 . S
C3208 H3179 0.950 . S
C3208 C3207 1.334 . S
C3208 C3209 1.287 . S
C3209 C3208 1.287 . S
C3209 C3210 1.524 . S
C3209 H3212 0.999 . S
C3210 H3180 0.950 . S
C3210 C3209 1.524 . S
C3210 C3211 1.415 . S
C3211 H3181 0.950 . S
C3211 C3206 1.363 . S
C3211 C3210 1.415 . S
H3212 C3209 0.999 . S
H3213 C3194 0.913 . S
H3214 C3232 0.951 . S
H3215 C3234 0.951 . S
H3216 C3236 0.950 . S
H3217 C3237 0.950 . S
H3218 C3239 0.950 . S
H3219 C3242 0.950 . S
H3220 C3243 0.950 . S
H3221 C3245 0.950 . S
H3222 C3246 0.950 . S
H3223 C3247 0.951 . S
H3224 C3249 0.951 . S
H3225 C3251 0.950 . S
H3226 C3252 0.950 . S
H3227 C3254 0.950 . S
H3228 C3257 0.950 . S
H3229 C3258 0.950 . S
H3230 C3260 0.950 . S
H3231 C3261 0.950 . S
C3232 H3214 0.951 . S
C3232 C3233 1.366 . S
C3232 C3234 1.388 . S
C3233 C3232 1.366 . S
C3233 C3237 1.385 . S
C3234 H3215 0.951 . S
C3234 C3232 1.388 . S
C3234 C3235 1.366 . S
C3235 C3234 1.366 . S
C3235 C3236 1.414 . S
C3235 C3238 1.499 . S
C3236 H3216 0.950 . S
C3236 C3235 1.414 . S
C3236 C3237 1.374 . S
C3237 H3217 0.950 . S
C3237 C3233 1.385 . S
C3237 C3236 1.374 . S
C3238 C3235 1.499 . S
C3238 C3239 1.373 . S
C3238 C3240 1.389 . S
C3239 H3218 0.950 . S
C3239 C3238 1.373 . S
C3239 C3255 1.377 . S
C3240 C3238 1.389 . S
C3240 C3241 1.524 . S
C3240 C3254 1.377 . S
C3241 C3240 1.524 . S
C3241 C3242 1.397 . S
C3241 C3246 1.363 . S
C3242 H3219 0.950 . S
C3242 C3241 1.397 . S
C3242 C3243 1.334 . S
C3243 H3220 0.950 . S
C3243 C3242 1.334 . S
C3243 C3244 1.287 . S
C3244 C3243 1.287 . S
C3244 C3245 1.524 . S
C3244 H3263 0.913 . S
C3245 H3221 0.950 . S
C3245 C3244 1.524 . S
C3245 C3246 1.415 . S
C3246 H3222 0.950 . S
C3246 C3241 1.363 . S
C3246 C3245 1.415 . S
C3247 H3223 0.951 . S
C3247 C3248 1.366 . S
C3247 C3249 1.388 . S
C3248 C3247 1.366 . S
C3248 C3252 1.385 . S
C3249 H3224 0.951 . S
C3249 C3247 1.388 . S
C3249 C3250 1.366 . S
C3250 C3249 1.366 . S
C3250 C3251 1.414 . S
C3250 C3253 1.499 . S
C3251 H3225 0.950 . S
C3251 C3250 1.414 . S
C3251 C3252 1.374 . S
C3252 H3226 0.950 . S
C3252 C3248 1.385 . S
C3252 C3251 1.374 . S
C3253 C3250 1.499 . S
C3253 C3254 1.373 . S
C3253 C3255 1.389 . S
C3254 H3227 0.950 . S
C3254 C3240 1.377 . S
C3254 C3253 1.373 . S
C3255 C3239 1.377 . S
C3255 C3253 1.389 . S
C3255 C3256 1.524 . S
C3256 C3255 1.524 . S
C3256 C3257 1.397 . S
C3256 C3261 1.363 . S
C3257 H3228 0.950 . S
C3257 C3256 1.397 . S
C3257 C3258 1.334 . S
C3258 H3229 0.950 . S
C3258 C3257 1.334 . S
C3258 C3259 1.287 . S
C3259 C3258 1.287 . S
C3259 C3260 1.524 . S
C3259 H3262 0.999 . S
C3260 H3230 0.950 . S
C3260 C3259 1.524 . S
C3260 C3261 1.415 . S
C3261 H3231 0.950 . S
C3261 C3256 1.363 . S
C3261 C3260 1.415 . S
H3262 C3259 0.999 . S
H3263 C3244 0.913 . S
H3264 C3282 0.951 . S
H3265 C3284 0.951 . S
H3266 C3286 0.950 . S
H3267 C3287 0.950 . S
H3268 C3289 0.950 . S
H3269 C3292 0.950 . S
H3270 C3293 0.950 . S
H3271 C3295 0.950 . S
H3272 C3296 0.950 . S
H3273 C3297 0.951 . S
H3274 C3299 0.951 . S
H3275 C3301 0.950 . S
H3276 C3302 0.950 . S
H3277 C3304 0.950 . S
H3278 C3307 0.950 . S
H3279 C3308 0.950 . S
H3280 C3310 0.950 . S
H3281 C3311 0.950 . S
C3282 H3264 0.951 . S
C3282 C3283 1.366 . S
C3282 C3284 1.388 . S
C3283 C3282 1.366 . S
C3283 C3287 1.385 . S
C3284 H3265 0.951 . S
C3284 C3282 1.388 . S
C3284 C3285 1.366 . S
C3285 C3284 1.366 . S
C3285 C3286 1.414 . S
C3285 C3288 1.499 . S
C3286 H3266 0.950 . S
C3286 C3285 1.414 . S
C3286 C3287 1.374 . S
C3287 H3267 0.950 . S
C3287 C3283 1.385 . S
C3287 C3286 1.374 . S
C3288 C3285 1.499 . S
C3288 C3289 1.373 . S
C3288 C3290 1.389 . S
C3289 H3268 0.950 . S
C3289 C3288 1.373 . S
C3289 C3305 1.377 . S
C3290 C3288 1.389 . S
C3290 C3291 1.524 . S
C3290 C3304 1.377 . S
C3291 C3290 1.524 . S
C3291 C3292 1.397 . S
C3291 C3296 1.363 . S
C3292 H3269 0.950 . S
C3292 C3291 1.397 . S
C3292 C3293 1.334 . S
C3293 H3270 0.950 . S
C3293 C3292 1.334 . S
C3293 C3294 1.287 . S
C3294 C3293 1.287 . S
C3294 C3295 1.524 . S
C3294 H3313 0.913 . S
C3295 H3271 0.950 . S
C3295 C3294 1.524 . S
C3295 C3296 1.415 . S
C3296 H3272 0.950 . S
C3296 C3291 1.363 . S
C3296 C3295 1.415 . S
C3297 H3273 0.951 . S
C3297 C3298 1.366 . S
C3297 C3299 1.388 . S
C3298 C3297 1.366 . S
C3298 C3302 1.385 . S
C3299 H3274 0.951 . S
C3299 C3297 1.388 . S
C3299 C3300 1.366 . S
C3300 C3299 1.366 . S
C3300 C3301 1.414 . S
C3300 C3303 1.499 . S
C3301 H3275 0.950 . S
C3301 C3300 1.414 . S
C3301 C3302 1.374 . S
C3302 H3276 0.950 . S
C3302 C3298 1.385 . S
C3302 C3301 1.374 . S
C3303 C3300 1.499 . S
C3303 C3304 1.373 . S
C3303 C3305 1.389 . S
C3304 H3277 0.950 . S
C3304 C3290 1.377 . S
C3304 C3303 1.373 . S
C3305 C3289 1.377 . S
C3305 C3303 1.389 . S
C3305 C3306 1.524 . S
C3306 C3305 1.524 . S
C3306 C3307 1.397 . S
C3306 C3311 1.363 . S
C3307 H3278 0.950 . S
C3307 C3306 1.397 . S
C3307 C3308 1.334 . S
C3308 H3279 0.950 . S
C3308 C3307 1.334 . S
C3308 C3309 1.287 . S
C3309 C3308 1.287 . S
C3309 C3310 1.524 . S
C3309 H3312 0.999 . S
C3310 H3280 0.950 . S
C3310 C3309 1.524 . S
C3310 C3311 1.415 . S
C3311 H3281 0.950 . S
C3311 C3306 1.363 . S
C3311 C3310 1.415 . S
H3312 C3309 0.999 . S
H3313 C3294 0.913 . S
H3314 C3332 0.951 . S
H3315 C3334 0.951 . S
H3316 C3336 0.950 . S
H3317 C3337 0.950 . S
H3318 C3339 0.950 . S
H3319 C3342 0.950 . S
H3320 C3343 0.950 . S
H3321 C3345 0.950 . S
H3322 C3346 0.950 . S
H3323 C3347 0.951 . S
H3324 C3349 0.951 . S
H3325 C3351 0.950 . S
H3326 C3352 0.950 . S
H3327 C3354 0.950 . S
H3328 C3357 0.950 . S
H3329 C3358 0.950 . S
H3330 C3360 0.950 . S
H3331 C3361 0.950 . S
C3332 H3314 0.951 . S
C3332 C3333 1.366 . S
C3332 C3334 1.388 . S
C3333 C3332 1.366 . S
C3333 C3337 1.385 . S
C3334 H3315 0.951 . S
C3334 C3332 1.388 . S
C3334 C3335 1.366 . S
C3335 C3334 1.366 . S
C3335 C3336 1.414 . S
C3335 C3338 1.499 . S
C3336 H3316 0.950 . S
C3336 C3335 1.414 . S
C3336 C3337 1.374 . S
C3337 H3317 0.950 . S
C3337 C3333 1.385 . S
C3337 C3336 1.374 . S
C3338 C3335 1.499 . S
C3338 C3339 1.373 . S
C3338 C3340 1.389 . S
C3339 H3318 0.950 . S
C3339 C3338 1.373 . S
C3339 C3355 1.377 . S
C3340 C3338 1.389 . S
C3340 C3341 1.524 . S
C3340 C3354 1.377 . S
C3341 C3340 1.524 . S
C3341 C3342 1.397 . S
C3341 C3346 1.363 . S
C3342 H3319 0.950 . S
C3342 C3341 1.397 . S
C3342 C3343 1.334 . S
C3343 H3320 0.950 . S
C3343 C3342 1.334 . S
C3343 C3344 1.287 . S
C3344 C3343 1.287 . S
C3344 C3345 1.524 . S
C3344 H3363 0.913 . S
C3345 H3321 0.950 . S
C3345 C3344 1.524 . S
C3345 C3346 1.415 . S
C3346 H3322 0.950 . S
C3346 C3341 1.363 . S
C3346 C3345 1.415 . S
C3347 H3323 0.951 . S
C3347 C3348 1.366 . S
C3347 C3349 1.388 . S
C3348 C3347 1.366 . S
C3348 C3352 1.385 . S
C3349 H3324 0.951 . S
C3349 C3347 1.388 . S
C3349 C3350 1.366 . S
C3350 C3349 1.366 . S
C3350 C3351 1.414 . S
C3350 C3353 1.499 . S
C3351 H3325 0.950 . S
C3351 C3350 1.414 . S
C3351 C3352 1.374 . S
C3352 H3326 0.950 . S
C3352 C3348 1.385 . S
C3352 C3351 1.374 . S
C3353 C3350 1.499 . S
C3353 C3354 1.373 . S
C3353 C3355 1.389 . S
C3354 H3327 0.950 . S
C3354 C3340 1.377 . S
C3354 C3353 1.373 . S
C3355 C3339 1.377 . S
C3355 C3353 1.389 . S
C3355 C3356 1.524 . S
C3356 C3355 1.524 . S
C3356 C3357 1.397 . S
C3356 C3361 1.363 . S
C3357 H3328 0.950 . S
C3357 C3356 1.397 . S
C3357 C3358 1.334 . S
C3358 H3329 0.950 . S
C3358 C3357 1.334 . S
C3358 C3359 1.287 . S
C3359 C3358 1.287 . S
C3359 C3360 1.524 . S
C3359 H3362 0.999 . S
C3360 H3330 0.950 . S
C3360 C3359 1.524 . S
C3360 C3361 1.415 . S
C3361 H3331 0.950 . S
C3361 C3356 1.363 . S
C3361 C3360 1.415 . S
H3362 C3359 0.999 . S
H3363 C3344 0.913 . S
H3364 C3382 0.951 . S
H3365 C3384 0.951 . S
H3366 C3386 0.950 . S
H3367 C3387 0.950 . S
H3368 C3389 0.950 . S
H3369 C3392 0.950 . S
H3370 C3393 0.950 . S
H3371 C3395 0.950 . S
H3372 C3396 0.950 . S
H3373 C3397 0.951 . S
H3374 C3399 0.951 . S
H3375 C3401 0.950 . S
H3376 C3402 0.950 . S
H3377 C3404 0.950 . S
H3378 C3407 0.950 . S
H3379 C3408 0.950 . S
H3380 C3410 0.950 . S
H3381 C3411 0.950 . S
C3382 H3364 0.951 . S
C3382 C3383 1.366 . S
C3382 C3384 1.388 . S
C3383 C3382 1.366 . S
C3383 C3387 1.385 . S
C3384 H3365 0.951 . S
C3384 C3382 1.388 . S
C3384 C3385 1.366 . S
C3385 C3384 1.366 . S
C3385 C3386 1.414 . S
C3385 C3388 1.499 . S
C3386 H3366 0.950 . S
C3386 C3385 1.414 . S
C3386 C3387 1.374 . S
C3387 H3367 0.950 . S
C3387 C3383 1.385 . S
C3387 C3386 1.374 . S
C3388 C3385 1.499 . S
C3388 C3389 1.373 . S
C3388 C3390 1.389 . S
C3389 H3368 0.950 . S
C3389 C3388 1.373 . S
C3389 C3405 1.377 . S
C3390 C3388 1.389 . S
C3390 C3391 1.524 . S
C3390 C3404 1.377 . S
C3391 C3390 1.524 . S
C3391 C3392 1.397 . S
C3391 C3396 1.363 . S
C3392 H3369 0.950 . S
C3392 C3391 1.397 . S
C3392 C3393 1.334 . S
C3393 H3370 0.950 . S
C3393 C3392 1.334 . S
C3393 C3394 1.287 . S
C3394 C3393 1.287 . S
C3394 C3395 1.524 . S
C3394 H3413 0.913 . S
C3395 H3371 0.950 . S
C3395 C3394 1.524 . S
C3395 C3396 1.415 . S
C3396 H3372 0.950 . S
C3396 C3391 1.363 . S
C3396 C3395 1.415 . S
C3397 H3373 0.951 . S
C3397 C3398 1.366 . S
C3397 C3399 1.388 . S
C3398 C3397 1.366 . S
C3398 C3402 1.385 . S
C3399 H3374 0.951 . S
C3399 C3397 1.388 . S
C3399 C3400 1.366 . S
C3400 C3399 1.366 . S
C3400 C3401 1.414 . S
C3400 C3403 1.499 . S
C3401 H3375 0.950 . S
C3401 C3400 1.414 . S
C3401 C3402 1.374 . S
C3402 H3376 0.950 . S
C3402 C3398 1.385 . S
C3402 C3401 1.374 . S
C3403 C3400 1.499 . S
C3403 C3404 1.373 . S
C3403 C3405 1.389 . S
C3404 H3377 0.950 . S
C3404 C3390 1.377 . S
C3404 C3403 1.373 . S
C3405 C3389 1.377 . S
C3405 C3403 1.389 . S
C3405 C3406 1.524 . S
C3406 C3405 1.524 . S
C3406 C3407 1.397 . S
C3406 C3411 1.363 . S
C3407 H3378 0.950 . S
C3407 C3406 1.397 . S
C3407 C3408 1.334 . S
C3408 H3379 0.950 . S
C3408 C3407 1.334 . S
C3408 C3409 1.287 . S
C3409 C3408 1.287 . S
C3409 C3410 1.524 . S
C3409 H3412 0.999 . S
C3410 H3380 0.950 . S
C3410 C3409 1.524 . S
C3410 C3411 1.415 . S
C3411 H3381 0.950 . S
C3411 C3406 1.363 . S
C3411 C3410 1.415 . S
H3412 C3409 0.999 . S
H3413 C3394 0.913 . S
H3414 C3432 0.951 . S
H3415 C3434 0.951 . S
H3416 C3436 0.950 . S
H3417 C3437 0.950 . S
H3418 C3439 0.950 . S
H3419 C3442 0.950 . S
H3420 C3443 0.950 . S
H3421 C3445 0.950 . S
H3422 C3446 0.950 . S
H3423 C3447 0.951 . S
H3424 C3449 0.951 . S
H3425 C3451 0.950 . S
H3426 C3452 0.950 . S
H3427 C3454 0.950 . S
H3428 C3457 0.950 . S
H3429 C3458 0.950 . S
H3430 C3460 0.950 . S
H3431 C3461 0.950 . S
C3432 H3414 0.951 . S
C3432 C3433 1.366 . S
C3432 C3434 1.388 . S
C3433 C3432 1.366 . S
C3433 C3437 1.385 . S
C3434 H3415 0.951 . S
C3434 C3432 1.388 . S
C3434 C3435 1.366 . S
C3435 C3434 1.366 . S
C3435 C3436 1.414 . S
C3435 C3438 1.499 . S
C3436 H3416 0.950 . S
C3436 C3435 1.414 . S
C3436 C3437 1.374 . S
C3437 H3417 0.950 . S
C3437 C3433 1.385 . S
C3437 C3436 1.374 . S
C3438 C3435 1.499 . S
C3438 C3439 1.373 . S
C3438 C3440 1.389 . S
C3439 H3418 0.950 . S
C3439 C3438 1.373 . S
C3439 C3455 1.377 . S
C3440 C3438 1.389 . S
C3440 C3441 1.524 . S
C3440 C3454 1.377 . S
C3441 C3440 1.524 . S
C3441 C3442 1.397 . S
C3441 C3446 1.363 . S
C3442 H3419 0.950 . S
C3442 C3441 1.397 . S
C3442 C3443 1.334 . S
C3443 H3420 0.950 . S
C3443 C3442 1.334 . S
C3443 C3444 1.287 . S
C3444 C3443 1.287 . S
C3444 C3445 1.524 . S
C3444 H3463 0.913 . S
C3445 H3421 0.950 . S
C3445 C3444 1.524 . S
C3445 C3446 1.415 . S
C3446 H3422 0.950 . S
C3446 C3441 1.363 . S
C3446 C3445 1.415 . S
C3447 H3423 0.951 . S
C3447 C3448 1.366 . S
C3447 C3449 1.388 . S
C3448 C3447 1.366 . S
C3448 C3452 1.385 . S
C3449 H3424 0.951 . S
C3449 C3447 1.388 . S
C3449 C3450 1.366 . S
C3450 C3449 1.366 . S
C3450 C3451 1.414 . S
C3450 C3453 1.499 . S
C3451 H3425 0.950 . S
C3451 C3450 1.414 . S
C3451 C3452 1.374 . S
C3452 H3426 0.950 . S
C3452 C3448 1.385 . S
C3452 C3451 1.374 . S
C3453 C3450 1.499 . S
C3453 C3454 1.373 . S
C3453 C3455 1.389 . S
C3454 H3427 0.950 . S
C3454 C3440 1.377 . S
C3454 C3453 1.373 . S
C3455 C3439 1.377 . S
C3455 C3453 1.389 . S
C3455 C3456 1.524 . S
C3456 C3455 1.524 . S
C3456 C3457 1.397 . S
C3456 C3461 1.363 . S
C3457 H3428 0.950 . S
C3457 C3456 1.397 . S
C3457 C3458 1.334 . S
C3458 H3429 0.950 . S
C3458 C3457 1.334 . S
C3458 C3459 1.287 . S
C3459 C3458 1.287 . S
C3459 C3460 1.524 . S
C3459 H3462 0.999 . S
C3460 H3430 0.950 . S
C3460 C3459 1.524 . S
C3460 C3461 1.415 . S
C3461 H3431 0.950 . S
C3461 C3456 1.363 . S
C3461 C3460 1.415 . S
H3462 C3459 0.999 . S
H3463 C3444 0.913 . S
H3464 C3482 0.951 . S
H3465 C3484 0.951 . S
H3466 C3486 0.950 . S
H3467 C3487 0.950 . S
H3468 C3489 0.950 . S
H3469 C3492 0.950 . S
H3470 C3493 0.950 . S
H3471 C3495 0.950 . S
H3472 C3496 0.950 . S
H3473 C3497 0.951 . S
H3474 C3499 0.951 . S
H3475 C3501 0.950 1_556 S
H3476 C3502 0.947 . S
H3477 C3504 0.950 . S
H3478 C3507 0.950 . S
H3479 C3508 0.950 . S
H3480 C3510 0.950 . S
H3481 C3511 0.950 . S
C3482 H3464 0.951 . S
C3482 C3483 1.366 . S
C3482 C3484 1.388 . S
C3483 C3482 1.366 . S
C3483 C3487 1.385 1_556 S
C3484 H3465 0.951 . S
C3484 C3482 1.388 . S
C3484 C3485 1.366 . S
C3485 C3484 1.366 . S
C3485 C3486 1.414 1_556 S
C3485 C3488 1.483 1_556 S
C3486 H3466 0.950 . S
C3486 C3485 1.414 1_554 S
C3486 C3487 1.374 . S
C3487 H3467 0.950 . S
C3487 C3483 1.385 1_554 S
C3487 C3486 1.374 . S
C3488 C3485 1.483 1_554 S
C3488 C3489 1.415 . S
C3488 C3490 1.364 1_554 S
C3489 H3468 0.950 . S
C3489 C3488 1.415 . S
C3489 C3505 1.377 . S
C3490 C3488 1.364 1_556 S
C3490 C3491 1.524 . S
C3490 C3504 1.377 . S
C3491 C3490 1.524 . S
C3491 C3492 1.397 . S
C3491 C3496 1.363 . S
C3492 H3469 0.950 . S
C3492 C3491 1.397 . S
C3492 C3493 1.334 . S
C3493 H3470 0.950 . S
C3493 C3492 1.334 . S
C3493 C3494 1.287 . S
C3494 C3493 1.287 . S
C3494 C3495 1.524 . S
C3494 H3513 0.913 . S
C3495 H3471 0.950 . S
C3495 C3494 1.524 . S
C3495 C3496 1.415 . S
C3496 H3472 0.950 . S
C3496 C3491 1.363 . S
C3496 C3495 1.415 . S
C3497 H3473 0.951 . S
C3497 C3498 1.366 . S
C3497 C3499 1.388 . S
C3498 C3497 1.366 . S
C3498 C3502 1.385 . S
C3499 H3474 0.951 . S
C3499 C3497 1.388 . S
C3499 C3500 1.366 . S
C3500 C3499 1.366 . S
C3500 C3501 1.414 . S
C3500 C3503 1.499 . S
C3501 H3475 0.950 1_554 S
C3501 C3500 1.414 . S
C3501 C3502 1.374 . S
C3502 H3476 0.947 . S
C3502 C3498 1.385 . S
C3502 C3501 1.374 . S
C3503 C3500 1.499 . S
C3503 C3504 1.373 1_554 S
C3503 C3505 1.389 . S
C3504 H3477 0.950 . S
C3504 C3490 1.377 . S
C3504 C3503 1.373 1_556 S
C3505 C3489 1.377 . S
C3505 C3503 1.389 . S
C3505 C3506 1.524 . S
C3506 C3505 1.524 . S
C3506 C3507 1.397 . S
C3506 C3511 1.363 . S
C3507 H3478 0.950 . S
C3507 C3506 1.397 . S
C3507 C3508 1.334 . S
C3508 H3479 0.950 . S
C3508 C3507 1.334 . S
C3508 C3509 1.287 . S
C3509 C3508 1.287 . S
C3509 C3510 1.524 . S
C3509 H3512 0.999 . S
C3510 H3480 0.950 . S
C3510 C3509 1.524 . S
C3510 C3511 1.415 . S
C3511 H3481 0.950 . S
C3511 C3506 1.363 . S
C3511 C3510 1.415 . S
H3512 C3509 0.999 . S
H3513 C3494 0.913 . S
H3514 C3532 0.951 . S
H3515 C3534 0.951 . S
H3516 C3536 0.950 . S
H3517 C3537 0.950 . S
H3518 C3539 0.950 . S
H3519 C3542 0.950 . S
H3520 C3543 0.950 . S
H3521 C3545 0.950 . S
H3522 C3546 0.950 . S
H3523 C3547 0.951 . S
H3524 C3549 0.951 . S
H3525 C3551 0.950 . S
H3526 C3552 0.950 . S
H3527 C3554 0.950 . S
H3528 C3557 0.950 . S
H3529 C3558 0.950 . S
H3530 C3560 0.950 . S
H3531 C3561 0.950 . S
C3532 H3514 0.951 . S
C3532 C3533 1.366 . S
C3532 C3534 1.388 . S
C3533 C3532 1.366 . S
C3533 C3537 1.385 . S
C3534 H3515 0.951 . S
C3534 C3532 1.388 . S
C3534 C3535 1.366 . S
C3535 C3534 1.366 . S
C3535 C3536 1.414 . S
C3535 C3538 1.499 . S
C3536 H3516 0.950 . S
C3536 C3535 1.414 . S
C3536 C3537 1.374 . S
C3537 H3517 0.950 . S
C3537 C3533 1.385 . S
C3537 C3536 1.374 . S
C3538 C3535 1.499 . S
C3538 C3539 1.373 . S
C3538 C3540 1.389 . S
C3539 H3518 0.950 . S
C3539 C3538 1.373 . S
C3539 C3555 1.377 . S
C3540 C3538 1.389 . S
C3540 C3541 1.524 . S
C3540 C3554 1.377 . S
C3541 C3540 1.524 . S
C3541 C3542 1.397 . S
C3541 C3546 1.363 . S
C3542 H3519 0.950 . S
C3542 C3541 1.397 . S
C3542 C3543 1.334 . S
C3543 H3520 0.950 . S
C3543 C3542 1.334 . S
C3543 C3544 1.287 . S
C3544 C3543 1.287 . S
C3544 C3545 1.524 . S
C3544 H3563 0.913 . S
C3545 H3521 0.950 . S
C3545 C3544 1.524 . S
C3545 C3546 1.415 . S
C3546 H3522 0.950 . S
C3546 C3541 1.363 . S
C3546 C3545 1.415 . S
C3547 H3523 0.951 . S
C3547 C3548 1.366 . S
C3547 C3549 1.388 . S
C3548 C3547 1.366 . S
C3548 C3552 1.385 . S
C3549 H3524 0.951 . S
C3549 C3547 1.388 . S
C3549 C3550 1.366 . S
C3550 C3549 1.366 . S
C3550 C3551 1.414 . S
C3550 C3553 1.499 . S
C3551 H3525 0.950 . S
C3551 C3550 1.414 . S
C3551 C3552 1.374 . S
C3552 H3526 0.950 . S
C3552 C3548 1.385 . S
C3552 C3551 1.374 . S
C3553 C3550 1.499 . S
C3553 C3554 1.373 . S
C3553 C3555 1.389 . S
C3554 H3527 0.950 . S
C3554 C3540 1.377 . S
C3554 C3553 1.373 . S
C3555 C3539 1.377 . S
C3555 C3553 1.389 . S
C3555 C3556 1.524 . S
C3556 C3555 1.524 . S
C3556 C3557 1.397 . S
C3556 C3561 1.363 . S
C3557 H3528 0.950 . S
C3557 C3556 1.397 . S
C3557 C3558 1.334 . S
C3558 H3529 0.950 . S
C3558 C3557 1.334 . S
C3558 C3559 1.287 . S
C3559 C3558 1.287 . S
C3559 C3560 1.524 . S
C3559 H3562 0.999 . S
C3560 H3530 0.950 . S
C3560 C3559 1.524 . S
C3560 C3561 1.415 . S
C3561 H3531 0.950 . S
C3561 C3556 1.363 . S
C3561 C3560 1.415 . S
H3562 C3559 0.999 . S
H3563 C3544 0.913 . S
H3564 C3582 0.951 . S
H3565 C3584 0.951 . S
H3566 C3586 0.950 . S
H3567 C3587 0.950 . S
H3568 C3589 0.950 . S
H3569 C3592 0.950 . S
H3570 C3593 0.950 . S
H3571 C3595 0.950 . S
H3572 C3596 0.950 . S
H3573 C3597 0.951 . S
H3574 C3599 0.951 . S
H3575 C3601 0.950 . S
H3576 C3602 0.950 . S
H3577 C3604 0.950 . S
H3578 C3607 0.950 . S
H3579 C3608 0.950 . S
H3580 C3610 0.950 . S
H3581 C3611 0.950 . S
C3582 H3564 0.951 . S
C3582 C3583 1.366 . S
C3582 C3584 1.388 . S
C3583 C3582 1.366 . S
C3583 C3587 1.385 . S
C3584 H3565 0.951 . S
C3584 C3582 1.388 . S
C3584 C3585 1.366 . S
C3585 C3584 1.366 . S
C3585 C3586 1.414 . S
C3585 C3588 1.499 . S
C3586 H3566 0.950 . S
C3586 C3585 1.414 . S
C3586 C3587 1.374 . S
C3587 H3567 0.950 . S
C3587 C3583 1.385 . S
C3587 C3586 1.374 . S
C3588 C3585 1.499 . S
C3588 C3589 1.373 . S
C3588 C3590 1.389 . S
C3589 H3568 0.950 . S
C3589 C3588 1.373 . S
C3589 C3605 1.377 . S
C3590 C3588 1.389 . S
C3590 C3591 1.524 . S
C3590 C3604 1.377 . S
C3591 C3590 1.524 . S
C3591 C3592 1.397 . S
C3591 C3596 1.363 . S
C3592 H3569 0.950 . S
C3592 C3591 1.397 . S
C3592 C3593 1.334 . S
C3593 H3570 0.950 . S
C3593 C3592 1.334 . S
C3593 C3594 1.287 . S
C3594 C3593 1.287 . S
C3594 C3595 1.524 . S
C3594 H3613 0.913 . S
C3595 H3571 0.950 . S
C3595 C3594 1.524 . S
C3595 C3596 1.415 . S
C3596 H3572 0.950 . S
C3596 C3591 1.363 . S
C3596 C3595 1.415 . S
C3597 H3573 0.951 . S
C3597 C3598 1.366 . S
C3597 C3599 1.388 . S
C3598 C3597 1.366 . S
C3598 C3602 1.385 . S
C3599 H3574 0.951 . S
C3599 C3597 1.388 . S
C3599 C3600 1.366 . S
C3600 C3599 1.366 . S
C3600 C3601 1.414 . S
C3600 C3603 1.499 . S
C3601 H3575 0.950 . S
C3601 C3600 1.414 . S
C3601 C3602 1.374 . S
C3602 H3576 0.950 . S
C3602 C3598 1.385 . S
C3602 C3601 1.374 . S
C3603 C3600 1.499 . S
C3603 C3604 1.373 . S
C3603 C3605 1.389 . S
C3604 H3577 0.950 . S
C3604 C3590 1.377 . S
C3604 C3603 1.373 . S
C3605 C3589 1.377 . S
C3605 C3603 1.389 . S
C3605 C3606 1.524 . S
C3606 C3605 1.524 . S
C3606 C3607 1.397 . S
C3606 C3611 1.363 . S
C3607 H3578 0.950 . S
C3607 C3606 1.397 . S
C3607 C3608 1.334 . S
C3608 H3579 0.950 . S
C3608 C3607 1.334 . S
C3608 C3609 1.287 . S
C3609 C3608 1.287 . S
C3609 C3610 1.524 . S
C3609 H3612 0.999 . S
C3610 H3580 0.950 . S
C3610 C3609 1.524 . S
C3610 C3611 1.415 . S
C3611 H3581 0.950 . S
C3611 C3606 1.363 . S
C3611 C3610 1.415 . S
H3612 C3609 0.999 . S
H3613 C3594 0.913 . S
H3614 C3632 0.951 . S
H3615 C3634 0.951 . S
H3616 C3636 0.950 1_545 S
H3617 C3637 0.950 . S
H3618 C3639 0.950 1_556 S
H3619 C3642 0.971 . S
H3620 C3643 0.950 . S
H3621 C3645 0.950 . S
H3622 C3646 0.950 . S
H3623 C3647 0.951 . S
H3624 C3649 0.951 . S
H3625 C3651 0.950 . S
H3626 C3652 0.950 . S
H3627 C3654 0.950 . S
H3628 C3657 0.950 . S
H3629 C3658 0.950 . S
H3630 C3660 0.950 . S
H3631 C3661 0.950 . S
C3632 H3614 0.951 . S
C3632 C3633 1.382 . S
C3632 C3634 1.388 . S
C3633 C3632 1.382 . S
C3633 C3637 1.381 1_565 S
C3634 H3615 0.951 . S
C3634 C3632 1.388 . S
C3634 C3635 1.366 . S
C3635 C3634 1.366 . S
C3635 C3636 1.414 . S
C3635 C3638 1.499 . S
C3636 H3616 0.950 1_565 S
C3636 C3635 1.414 . S
C3636 C3637 1.374 1_565 S
C3637 H3617 0.950 . S
C3637 C3633 1.381 1_545 S
C3637 C3636 1.374 1_545 S
C3638 C3635 1.499 . S
C3638 C3639 1.373 . S
C3638 C3640 1.389 . S
C3639 H3618 0.950 1_554 S
C3639 C3638 1.373 . S
C3639 C3655 1.377 . S
C3640 C3638 1.389 . S
C3640 C3641 1.524 . S
C3640 C3654 1.377 . S
C3641 C3640 1.524 . S
C3641 C3642 1.352 1_565 S
C3641 C3646 1.363 . S
C3642 H3619 0.971 . S
C3642 C3641 1.352 1_545 S
C3642 C3643 1.359 . S
C3643 H3620 0.950 . S
C3643 C3642 1.359 . S
C3643 C3644 1.282 1_545 S
C3644 C3643 1.282 1_565 S
C3644 C3645 1.533 . S
C3644 H3663 0.908 1_565 S
C3645 H3621 0.950 . S
C3645 C3644 1.533 . S
C3645 C3646 1.415 . S
C3646 H3622 0.950 . S
C3646 C3641 1.363 . S
C3646 C3645 1.415 . S
C3647 H3623 0.951 . S
C3647 C3648 1.366 1_556 S
C3647 C3649 1.388 . S
C3648 C3647 1.366 1_554 S
C3648 C3652 1.385 . S
C3649 H3624 0.951 . S
C3649 C3647 1.388 . S
C3649 C3650 1.366 1_556 S
C3650 C3649 1.366 1_554 S
C3650 C3651 1.414 . S
C3650 C3653 1.499 . S
C3651 H3625 0.950 . S
C3651 C3650 1.414 . S
C3651 C3652 1.374 . S
C3652 H3626 0.950 . S
C3652 C3648 1.385 . S
C3652 C3651 1.374 . S
C3653 C3650 1.499 . S
C3653 C3654 1.373 . S
C3653 C3655 1.389 . S
C3654 H3627 0.950 . S
C3654 C3640 1.377 . S
C3654 C3653 1.373 . S
C3655 C3639 1.377 . S
C3655 C3653 1.389 . S
C3655 C3656 1.524 1_554 S
C3656 C3655 1.524 1_556 S
C3656 C3657 1.397 . S
C3656 C3661 1.363 . S
C3657 H3628 0.950 . S
C3657 C3656 1.397 . S
C3657 C3658 1.334 . S
C3658 H3629 0.950 . S
C3658 C3657 1.334 . S
C3658 C3659 1.287 . S
C3659 C3658 1.287 . S
C3659 C3660 1.524 . S
C3659 H3662 0.999 . S
C3660 H3630 0.950 . S
C3660 C3659 1.524 . S
C3660 C3661 1.415 . S
C3661 H3631 0.950 . S
C3661 C3656 1.363 . S
C3661 C3660 1.415 . S
H3662 C3659 0.999 . S
H3663 C3644 0.908 1_545 S
C1298 C257 1.911 . S
C1283 C73 1.913 . S
C1348 C316 1.195 . S
C1333 C82 1.145 . S
C1383 C100 1.937 . S
C1398 C433 1.934 . S
C1448 C501 1.266 . S
C1433 C56 1.235 . S
C1498 C580 1.319 . S
C1483 C134 1.290 . S
C1548 C705 1.883 . S
C1533 C165 1.868 . S
C1583 C147 1.074 . S
C1598 C765 1.103 . S
C1648 C873 1.902 . S
C1633 C125 1.904 . S
C1683 C151 1.381 . S
C1698 C969 1.381 . S
C1748 C1029 1.413 . S
C1733 C121 1.369 . S
C1783 C139 1.896 . S
C1798 C932 1.903 . S
C1848 C1049 1.203 . S
C1833 C164 1.203 . S
C1883 C95 1.229 . S
C1898 C1117 1.276 . S
C1933 C61 1.508 . S
C1948 C1108 1.518 . S
C1983 C74 1.393 . S
C1998 C1137 1.399 . S
C2033 C86 1.865 . S
C2048 C1145 1.866 . S
C2083 C47 1.351 . S
C2098 C529 1.350 . S
C2133 C186 1.242 . S
C2148 C492 1.288 . S
C2198 C228 1.515 . S
C2183 C204 1.517 . S
C2248 C325 1.997 . S
C2233 C112 2.000 . S
C2283 C60 1.356 . S
C2298 C589 1.337 . S
C2348 C881 1.418 . S
C2333 C152 1.410 . S
C2398 C609 2.060 . S
C2383 C126 2.055 . S
C2448 C793 1.219 . S
C2433 C160 1.207 . S
C2498 C785 1.911 . S
C2483 C190 1.913 . S
C2533 C199 1.146 . S
C2548 C853 1.195 . S
C2583 C113 1.937 . S
C2598 C617 1.934 . S
C2648 C668 1.266 . S
C2633 C173 1.234 . S
C2683 C43 1.291 . S
C2698 C413 1.319 . S
C2748 C521 1.882 . S
C2733 C9 1.867 . S
C2798 C237 1.103 . S
C2783 C17 1.074 . S
C2848 C353 1.902 . S
C2833 C34 1.904 1_455 S
C2883 C21 1.381 . S
C2898 C1057 1.381 . S
C2933 C30 1.370 . S
C2948 C941 1.413 . S
C2983 C48 1.896 . S
C2998 C1020 1.902 . S
C3033 C8 1.203 . S
C3048 C961 1.203 . S
C3098 C1205 1.277 . S
C3083 C108 1.228 . S
C3148 C1196 1.518 . S
C3133 C178 1.509 . S
C3198 C1225 1.399 . S
C3183 C191 1.393 . S
C3233 C203 1.865 . S
C3248 C1233 1.867 . S
C3283 C138 1.350 . S
C3298 C697 1.349 . S
C3348 C677 1.288 . S
C3333 C69 1.240 . S
C3398 C756 1.515 . S
C3383 C87 1.517 . S
C3448 C844 1.997 . S
C3433 C99 2.000 . S
C3483 C177 1.340 . S
C3498 C404 1.337 . S
C3548 C345 1.418 . S
C3533 C22 1.410 . S
C3583 C35 2.055 . S
C3598 C441 2.060 . S
C3648 C265 1.218 . S
C3633 C4 1.199 1_565 S
