# Generated by pormake.
# Topology anh, (6,3)-cn, num edge types: 1
# Building blocks:
#     Node 0, Type 0, BuildingBlock: PAMTOO_clean_sbu_0, # of connection points: 6
#     Node 1, Type 0, BuildingBlock: PAMTOO_clean_sbu_0, # of connection points: 6
#     Node 2, Type 0, BuildingBlock: PAMTOO_clean_sbu_0, # of connection points: 6
#     Node 3, Type 1, BuildingBlock: BETDAH_clean_linker_0, # of connection points: 3
#     Node 4, Type 1, BuildingBlock: BETDAH_clean_linker_0, # of connection points: 3
#     Node 5, Type 1, BuildingBlock: BETDAH_clean_linker_0, # of connection points: 3
#     Node 6, Type 1, BuildingBlock: BETDAH_clean_linker_0, # of connection points: 3
#     Node 7, Type 1, BuildingBlock: BETDAH_clean_linker_0, # of connection points: 3
#     Node 8, Type 1, BuildingBlock: BETDAH_clean_linker_0, # of connection points: 3
#     Edge 9, Type (0, 1), BuildingBlock: KIFKEQ_clean_linker_1, # of connection points: 2
#     Edge 10, Type (0, 1), BuildingBlock: KIFKEQ_clean_linker_1, # of connection points: 2
#     Edge 11, Type (0, 1), BuildingBlock: KIFKEQ_clean_linker_1, # of connection points: 2
#     Edge 12, Type (0, 1), BuildingBlock: KIFKEQ_clean_linker_1, # of connection points: 2
#     Edge 13, Type (0, 1), BuildingBlock: KIFKEQ_clean_linker_1, # of connection points: 2
#     Edge 14, Type (0, 1), BuildingBlock: KIFKEQ_clean_linker_1, # of connection points: 2
#     Edge 15, Type (0, 1), BuildingBlock: KIFKEQ_clean_linker_1, # of connection points: 2
#     Edge 16, Type (0, 1), BuildingBlock: KIFKEQ_clean_linker_1, # of connection points: 2
#     Edge 17, Type (0, 1), BuildingBlock: KIFKEQ_clean_linker_1, # of connection points: 2
#     Edge 18, Type (0, 1), BuildingBlock: KIFKEQ_clean_linker_1, # of connection points: 2
#     Edge 19, Type (0, 1), BuildingBlock: KIFKEQ_clean_linker_1, # of connection points: 2
#     Edge 20, Type (0, 1), BuildingBlock: KIFKEQ_clean_linker_1, # of connection points: 2
#     Edge 21, Type (0, 1), BuildingBlock: KIFKEQ_clean_linker_1, # of connection points: 2
#     Edge 22, Type (0, 1), BuildingBlock: KIFKEQ_clean_linker_1, # of connection points: 2
#     Edge 23, Type (0, 1), BuildingBlock: KIFKEQ_clean_linker_1, # of connection points: 2
#     Edge 24, Type (0, 1), BuildingBlock: KIFKEQ_clean_linker_1, # of connection points: 2
#     Edge 25, Type (0, 1), BuildingBlock: KIFKEQ_clean_linker_1, # of connection points: 2
#     Edge 26, Type (0, 1), BuildingBlock: KIFKEQ_clean_linker_1, # of connection points: 2
# Relax obj value: 0.142
# Max RMSD: 0.159
# Mean RMSD: 0.105
data_MOF--net-anh--node1-PAMTOO_clean_sbu_0--node2-BETDAH_clean_linker_0--edge1-KIFKEQ_clean_linker_1
_symmetry_space_group_name_H-M    P1
_symmetry_Int_Tables_number       1
_symmetry_cell_setting            triclinic
loop_
_symmetry_equiv_pos_as_xyz
'x, y, z'
_cell_length_a     30.57002
_cell_length_b     30.179156
_cell_length_c     50.055574
_cell_angle_alpha  94.389398
_cell_angle_beta   95.815995
_cell_angle_gamma 101.23153
loop_
_atom_site_label
_atom_site_type_symbol
_atom_site_fract_x
_atom_site_fract_y
_atom_site_fract_z
_atom_type_partial_charge
Dy0 Dy 0.11149 0.5562 0.14458 0.0
Dy1 Dy 0.09267 0.44797 0.15388 0.0
C2 C 0.09472 0.47927 0.09581 0.0
O3 O 1.03849 0.53982 0.15027 0.0
O4 O 1.02423 0.46219 0.14113 0.0
O5 O 0.13349 0.61117 0.12075 0.0
O6 O 0.11059 0.62521 0.15948 0.0
O7 O 1.08137 0.48646 0.19121 0.0
O8 O 0.13431 0.54916 0.18777 0.0
O9 O 0.16845 0.4691 0.15952 0.0
O10 O 0.17726 0.53634 0.13989 0.0
O11 O 0.09941 0.39464 0.17946 0.0
O12 O 1.06393 0.37831 0.13903 0.0
C13 C 1.01012 0.50059 0.14469 0.0
O14 O 1.08271 0.51677 0.10467 0.0
O15 O 0.11165 0.45428 0.11266 0.0
C16 C 0.17166 0.67782 0.14797 0.0
C17 C 0.24956 0.74435 0.1669 0.0
C18 C 0.25297 0.70207 0.15425 0.0
C19 C 0.21449 0.66909 0.14504 0.0
C20 C 0.16798 0.72012 0.16017 0.0
C21 C 0.20653 0.75309 0.16958 0.0
C22 C 0.13094 0.6423 0.1398 0.0
C23 C 0.10995 0.52251 0.20258 0.0
C24 C 0.19387 0.50291 0.14947 0.0
C25 C 1.036 0.33466 0.17261 0.0
C26 C 0.95976 0.2794 0.18885 0.0
C27 C 0.96748 0.32696 0.19406 0.0
C28 C 1.00521 0.35435 0.18593 0.0
C29 C 1.02903 0.28737 0.16782 0.0
C30 C 0.99126 0.25993 0.17586 0.0
C31 C 1.07377 0.36327 0.16218 0.0
H32 H 0.28543 0.69437 0.1514 0.0
H33 H 0.21833 0.63661 0.13586 0.0
H34 H 0.13526 0.72737 0.16285 0.0
H35 H 0.20259 0.78498 0.17951 0.0
H36 H 0.94423 0.34305 0.20427 0.0
H37 H 1.00999 0.39093 0.18965 0.0
H38 H 1.05229 0.2717 0.15731 0.0
H39 H 0.98603 0.22353 0.17112 0.0
Dy40 Dy 0.58408 0.0789 0.52289 0.0
Dy41 Dy 0.69474 0.10227 0.52782 0.0
C42 C 0.64247 0.09246 0.57979 0.0
O43 O 0.60464 0.15374 0.53421 0.0
O44 O 0.673 0.16617 0.51769 0.0
O45 O 0.5219 0.0724 0.54083 0.0
O46 O 0.52073 0.05815 0.49773 0.0
O47 O 0.671 0.08396 0.48393 0.0
O48 O 0.60136 0.10154 0.48327 0.0
O49 O 0.67523 0.03017 0.53729 0.0
O50 O 0.60538 0.01355 0.51309 0.0
O51 O 0.75695 0.08807 0.5158 0.0
O52 O 0.75808 0.14254 0.54673 0.0
C53 C 0.63901 0.18127 0.52654 0.0
O54 O 0.60823 0.06623 0.56469 0.0
O55 O 0.67564 0.11629 0.56905 0.0
C56 C 0.46537 0.01293 0.51811 0.0
C57 C 0.40658 0.92739 0.51125 0.0
C58 C 0.45043 0.93266 0.5245 0.0
C59 C 0.47966 0.97505 0.52778 0.0
C60 C 0.42138 0.00826 0.50571 0.0
C61 C 0.39221 0.9659 0.50228 0.0
C62 C 0.49734 0.056 0.51809 0.0
C63 C 0.63459 0.09224 0.47074 0.0
C64 C 0.64006 1.00046 0.52534 0.0
C65 C 0.81385 0.15378 0.51772 0.0
C66 C 0.87525 0.21846 0.4951 0.0
C67 C 0.8302 0.20541 0.48343 0.0
C68 C 0.79973 0.17343 0.4947 0.0
C69 C 0.85878 0.16589 0.5291 0.0
C70 C 0.88923 0.19794 0.51792 0.0
C71 C 0.78152 0.12289 0.53097 0.0
H72 H 0.46245 0.90391 0.53195 0.0
H73 H 0.51377 0.978 0.53717 0.0
H74 H 0.41008 0.03707 0.49779 0.0
H75 H 0.35902 0.96306 0.49158 0.0
H76 H 0.8184 0.22015 0.46571 0.0
H77 H 0.765 0.16457 0.48573 0.0
H78 H 0.87009 0.15133 0.54702 0.0
H79 H 0.92339 0.20769 0.52773 0.0
Dy80 Dy 0.66371 0.66458 0.84744 0.0
Dy81 Dy 0.55455 0.64211 0.83137 0.0
C82 C 0.62092 0.64825 0.78758 0.0
O83 O 0.6448 0.73066 0.83919 0.0
O84 O 0.57127 0.7151 0.84729 0.0
O85 O 0.72812 0.69615 0.83635 0.0
O86 O 0.72418 0.66441 0.8737 0.0
O87 O 0.56678 0.6216 0.87312 0.0
O88 O 0.6337 0.67139 0.88599 0.0
O89 O 0.57297 0.57406 0.82582 0.0
O90 O 0.64529 0.58925 0.84765 0.0
O91 O 0.50006 0.62293 0.7992 0.0
O92 O 0.48632 0.6396 0.84002 0.0
C93 C 0.60779 0.74415 0.84403 0.0
O94 O 0.64857 0.63398 0.80492 0.0
O95 O 0.58866 0.66643 0.79605 0.0
C96 C 0.78284 0.65368 0.84783 0.0
C97 C 0.8398 0.59915 0.82772 0.0
C98 C 0.8421 0.6435 0.82034 0.0
C99 C 0.81391 0.67053 0.83035 0.0
C100 C 0.78103 0.60965 0.85552 0.0
C101 C 0.80933 0.58287 0.84572 0.0
C102 C 0.75012 0.6806 0.85602 0.0
C103 C 0.59859 0.64289 0.89201 0.0
C104 C 0.60908 0.5606 0.83598 0.0
C105 C 0.43264 0.58413 0.81185 0.0
C106 C 0.36219 0.50721 0.80344 0.0
C107 C 0.35948 0.54567 0.78965 0.0
C108 C 0.39439 0.5838 0.79387 0.0
C109 C 0.43613 0.54563 0.82528 0.0
C110 C 0.40108 0.5075 0.82119 0.0
C111 C 0.46934 0.62408 0.81531 0.0
H112 H 0.8651 0.65706 0.80649 0.0
H113 H 0.81568 0.70429 0.82399 0.0
H114 H 0.75736 0.59546 0.86885 0.0
H115 H 0.80746 0.54938 0.85248 0.0
H116 H 0.33038 0.5463 0.77552 0.0
H117 H 0.39159 0.61304 0.78303 0.0
H118 H 0.46582 0.54518 0.83899 0.0
H119 H 0.40405 0.47868 0.83237 0.0
H120 H 0.52071 0.98501 0.27398 0.0
H121 H 0.64985 0.05605 0.25739 0.0
H122 H 0.56038 0.96966 0.19425 0.0
C123 C 0.54477 0.99378 0.25977 0.0
C124 C 0.53532 0.97374 0.23302 0.0
C125 C 0.58623 0.02308 0.26873 0.0
C126 C 0.61789 0.03349 0.25047 0.0
C127 C 0.60824 0.01449 0.22345 0.0
C128 C 0.56736 0.9844 0.21506 0.0
N129 N 0.63889 0.02414 0.20418 0.0
C130 C 0.67683 0.05882 0.20802 0.0
H131 H 0.64784 0.51209 0.59868 0.0
H132 H 0.63156 0.64177 0.57406 0.0
H133 H 0.63407 0.53214 0.51426 0.0
C134 C 0.6443 0.53401 0.58275 0.0
C135 C 0.64153 0.51651 0.55569 0.0
C136 C 0.64019 0.57893 0.58941 0.0
C137 C 0.63455 0.60709 0.5688 0.0
C138 C 0.633 0.59041 0.5416 0.0
C139 C 0.63579 0.54502 0.53524 0.0
N140 N 0.62852 0.61808 0.52015 0.0
C141 C 0.6294 0.66446 0.52363 0.0
H142 H 1.01824 0.42375 0.89024 0.0
H143 H 1.06178 0.29827 0.90025 0.0
H144 H 1.03487 0.33869 0.82065 0.0
C145 C 1.02662 0.39292 0.88154 0.0
C146 C 1.02463 0.3849 0.85342 0.0
C147 C 1.03998 0.36214 0.89864 0.0
C148 C 1.05068 0.32212 0.88731 0.0
C149 C 1.04905 0.31371 0.85925 0.0
C150 C 1.03578 0.34506 0.84233 0.0
N151 N 1.0647 0.27581 0.84839 0.0
C152 C 0.09889 0.28304 0.83205 0.0
H153 H 0.20268 0.64333 0.40423 0.0
H154 H 0.12318 0.51271 0.41489 0.0
H155 H 0.19844 0.59822 0.48341 0.0
C156 C 0.18968 0.61805 0.41725 0.0
C157 C 0.20321 0.62605 0.44511 0.0
C158 C 0.16114 0.57711 0.40599 0.0
C159 C 0.14555 0.54419 0.42322 0.0
C160 C 0.15924 0.55186 0.45118 0.0
C161 C 0.18832 0.59245 0.46183 0.0
N162 N 0.14502 0.51955 0.4693 0.0
C163 C 0.10906 0.48292 0.46337 0.0
H164 H 0.62753 0.23167 0.76768 0.0
H165 H 0.60498 0.09602 0.79127 0.0
H166 H 0.59469 0.2075 0.8477 0.0
C167 C 0.62021 0.20872 0.78303 0.0
C168 C 0.61145 0.22557 0.80846 0.0
C169 C 0.61753 0.16208 0.77675 0.0
C170 C 0.60698 0.13198 0.79626 0.0
C171 C 0.59924 0.14849 0.82208 0.0
C172 C 0.60093 0.19505 0.82784 0.0
N173 N 0.58956 0.1194 0.84267 0.0
C174 C 0.59239 0.07385 0.84078 0.0
H175 H 0.69323 0.53433 0.07201 0.0
H176 H 0.55637 0.52732 0.08828 0.0
H177 H 0.65409 0.49596 0.14827 0.0
C178 C 0.66728 0.52685 0.08518 0.0
C179 C 0.67893 0.51346 0.11074 0.0
C180 C 0.62331 0.532 0.0767 0.0
C181 C 0.59042 0.52404 0.0946 0.0
C182 C 0.6014 0.51119 0.12054 0.0
C183 C 0.64575 0.50626 0.12844 0.0
N184 N 0.56903 0.5025 0.13919 0.0
C185 C 0.52354 0.50471 0.13484 0.0
H186 H 0.25591 0.56758 0.13046 0.0
H187 H 0.24297 0.43893 0.16431 0.0
H188 H 0.33422 0.56773 0.12582 0.0
H189 H 0.32213 0.43955 0.16016 0.0
H190 H 0.45392 0.4326 0.12455 0.0
H191 H 0.37438 0.43177 0.12814 0.0
H192 H 0.40676 0.57666 0.1503 0.0
H193 H 0.48594 0.57711 0.14608 0.0
C194 C 0.26974 0.53936 0.13715 0.0
C195 C 0.24265 0.50322 0.14782 0.0
C196 C 0.31506 0.53959 0.13459 0.0
C197 C 0.33504 0.50369 0.14258 0.0
C198 C 0.30803 0.46757 0.1534 0.0
C199 C 0.26255 0.46736 0.15601 0.0
C200 C 0.44374 0.46427 0.12982 0.0
C201 C 0.47586 0.505 0.13469 0.0
C202 C 0.39821 0.4638 0.13222 0.0
C203 C 0.38368 0.50412 0.13962 0.0
C204 C 0.4162 0.54497 0.1442 0.0
C205 C 0.46169 0.54534 0.14181 0.0
H206 H 0.96434 0.22259 0.48983 0.0
H207 H 0.85834 0.29736 0.47665 0.0
H208 H 1.0182 0.28625 0.47765 0.0
H209 H 0.91179 0.3601 0.46313 0.0
H210 H 1.03118 0.48309 0.48335 0.0
H211 H 0.97185 0.41733 0.48651 0.0
H212 H 1.044 0.33166 0.44262 0.0
H213 H 0.10393 0.39789 0.44022 0.0
C214 C 0.95241 0.25241 0.48404 0.0
C215 C 0.90706 0.25499 0.48454 0.0
C216 C 0.98322 0.28872 0.47668 0.0
C217 C 0.96943 0.32848 0.46954 0.0
C218 C 0.9237 0.33026 0.46889 0.0
C219 C 0.89291 0.29401 0.47634 0.0
C220 C 1.03374 0.45024 0.47398 0.0
C221 C 1.07163 0.44513 0.4615 0.0
C222 C 0.99975 0.41258 0.47566 0.0
C223 C 1.00314 0.36906 0.46488 0.0
C224 C 1.04059 0.36454 0.45144 0.0
C225 C 1.07467 0.40234 0.44983 0.0
H226 H 0.67534 0.81443 0.83608 0.0
H227 H 0.53718 0.78489 0.85272 0.0
H228 H 0.67196 0.89422 0.8346 0.0
H229 H 0.53417 0.8648 0.85174 0.0
H230 H 0.52936 1.00142 0.81886 0.0
H231 H 0.53365 0.92127 0.81967 0.0
H232 H 0.66675 0.96093 0.86352 0.0
H233 H 0.66235 0.04092 0.86212 0.0
C234 C 0.64434 0.82494 0.83963 0.0
C235 C 0.60651 0.79311 0.84448 0.0
C236 C 0.64248 0.87079 0.83889 0.0
C237 C 0.60274 0.88594 0.84294 0.0
C238 C 0.56509 0.85419 0.84809 0.0
C239 C 0.56694 0.80837 0.84886 0.0
C240 C 0.5595 0.9927 0.82849 0.0
C241 C 0.59558 0.02677 0.84037 0.0
C242 C 0.56191 0.94696 0.82917 0.0
C243 C 0.60049 0.93462 0.84177 0.0
C244 C 0.63677 0.96918 0.8534 0.0
C245 C 0.63427 0.01489 0.85272 0.0
H246 H 0.96783 0.5707 0.15699 0.0
H247 H 0.93996 0.42925 0.12608 0.0
H248 H 0.88764 0.57082 0.15098 0.0
H249 H 0.85962 0.42947 0.12009 0.0
H250 H 0.72885 0.46748 0.08079 0.0
H251 H 0.80746 0.4625 0.09064 0.0
H252 H 0.81481 0.54035 0.16757 0.0
H253 H 0.73576 0.54551 0.15754 0.0
C254 C 0.94467 0.5395 0.14901 0.0
C255 C 0.96074 0.50001 0.1419 0.0
C256 C 0.89849 0.53953 0.14574 0.0
C257 C 0.86689 0.5002 0.135 0.0
C258 C 0.88289 0.46054 0.12817 0.0
C259 C 0.92908 0.46038 0.13171 0.0
C260 C 0.74712 0.48334 0.0999 0.0
C261 C 0.72591 0.50709 0.11831 0.0
C262 C 0.79222 0.4802 0.10565 0.0
C263 C 0.8178 0.50113 0.12988 0.0
C264 C 0.79636 0.52416 0.14859 0.0
C265 C 0.75091 0.52679 0.14297 0.0
H266 H 0.43015 0.84693 0.49593 0.0
H267 H 0.31546 0.90423 0.51245 0.0
H268 H 0.38065 0.77337 0.48227 0.0
H269 H 0.26597 0.83075 0.49808 0.0
H270 H 0.19444 0.71141 0.43479 0.0
H271 H 0.24348 0.78337 0.45333 0.0
H272 H 0.32741 0.711 0.50041 0.0
H273 H 0.27848 0.63886 0.48162 0.0
C274 C 0.39452 0.84375 0.49712 0.0
C275 C 0.37682 0.88168 0.5052 0.0
C276 C 0.36616 0.80158 0.48918 0.0
C277 C 0.31947 0.79646 0.48892 0.0
C278 C 0.30181 0.83394 0.49769 0.0
C279 C 0.33017 0.87601 0.50586 0.0
C280 C 0.22344 0.71092 0.44904 0.0
C281 C 0.23277 0.66961 0.45672 0.0
C282 C 0.25122 0.75207 0.45985 0.0
C283 C 0.28915 0.75274 0.47837 0.0
C284 C 0.2985 0.71143 0.48608 0.0
C285 C 0.2704 0.67025 0.47548 0.0
H286 H 0.68085 0.52005 0.84664 0.0
H287 H 0.53834 0.48951 0.81975 0.0
H288 H 0.6819 0.43928 0.84159 0.0
H289 H 0.53966 0.40878 0.81448 0.0
H290 H 0.55092 0.26494 0.83341 0.0
H291 H 0.5508 0.34579 0.84162 0.0
H292 H 0.6731 0.37823 0.80448 0.0
H293 H 0.67371 0.2975 0.79679 0.0
C294 C 0.6497 0.49617 0.83973 0.0
C295 C 0.6095 0.51137 0.83356 0.0
C296 C 0.6504 0.44986 0.83669 0.0
C297 C 0.61089 0.4176 0.82759 0.0
C298 C 0.57059 0.43272 0.82178 0.0
C299 C 0.56992 0.47906 0.82464 0.0
C300 C 0.57806 0.28938 0.8273 0.0
C301 C 0.61231 0.27481 0.81443 0.0
C302 C 0.57774 0.33566 0.83175 0.0
C303 C 0.61186 0.36844 0.82362 0.0
C304 C 0.64652 0.35388 0.81118 0.0
C305 C 0.64666 0.30762 0.80655 0.0
H306 H 0.70671 0.95849 0.54543 0.0
H307 H 0.56979 0.93037 0.50693 0.0
H308 H 0.70389 0.87707 0.54576 0.0
H309 H 0.56676 0.84944 0.50778 0.0
H310 H 0.59415 0.7086 0.48511 0.0
H311 H 0.59717 0.79024 0.48601 0.0
H312 H 0.66953 0.81009 0.56625 0.0
H313 H 0.66707 0.72814 0.56485 0.0
C314 C 0.67598 0.93503 0.53713 0.0
C315 C 0.63864 0.95108 0.52596 0.0
C316 C 0.67426 0.88833 0.53749 0.0
C317 C 0.63515 0.85661 0.52669 0.0
C318 C 0.59769 0.87279 0.51583 0.0
C319 C 0.59942 0.91934 0.51544 0.0
C320 C 0.61051 0.73058 0.50292 0.0
C321 C 0.63024 0.71256 0.52493 0.0
C322 C 0.61209 0.77726 0.50354 0.0
C323 C 0.63349 0.80684 0.52625 0.0
C324 C 0.65323 0.78841 0.54834 0.0
C325 C 0.65158 0.74159 0.54767 0.0
H326 H 0.92855 0.62446 0.81981 0.0
H327 H 0.8192 0.50788 0.81263 0.0
H328 H 0.98063 0.57455 0.81211 0.0
H329 H 0.8713 0.45803 0.80728 0.0
H330 H 0.96312 0.36832 0.80821 0.0
H331 H 0.92384 0.42332 0.78848 0.0
H332 H 1.01135 0.53112 0.84197 0.0
H333 H 1.05194 0.4768 0.85999 0.0
C334 C 0.91543 0.58826 0.81611 0.0
C335 C 0.86994 0.57006 0.81778 0.0
C336 C 0.94541 0.55952 0.81196 0.0
C337 C 0.93066 0.51204 0.80991 0.0
C338 C 0.88432 0.49424 0.80879 0.0
C339 C 0.85435 0.52293 0.81244 0.0
C340 C 0.97497 0.40405 0.81486 0.0
C341 C 1.00949 0.41821 0.83627 0.0
C342 C 0.95218 0.43558 0.8038 0.0
C343 C 0.96316 0.48159 0.81429 0.0
C344 C 1.00145 0.49618 0.83332 0.0
C345 C 1.02451 0.46484 0.84402 0.0
H346 H 0.26414 0.83704 0.16604 0.0
H347 H 0.32846 0.72971 0.19226 0.0
H348 H 0.33237 0.89287 0.18302 0.0
H349 H 0.39672 0.78542 0.20859 0.0
H350 H 0.5248 0.8918 0.20355 0.0
H351 H 0.45516 0.83723 0.18811 0.0
H352 H 0.37999 0.92556 0.22688 0.0
H353 H 0.44989 0.98065 0.24207 0.0
C354 C 0.2926 0.82533 0.1756 0.0
C355 C 0.29079 0.77874 0.17759 0.0
C356 C 0.33171 0.85735 0.18529 0.0
C357 C 0.36995 0.84348 0.19699 0.0
C358 C 0.36802 0.79706 0.19926 0.0
C359 C 0.3289 0.76512 0.18979 0.0
C360 C 0.49339 0.89971 0.20864 0.0
C361 C 0.49277 0.94056 0.22394 0.0
C362 C 0.45356 0.86828 0.20001 0.0
C363 C 0.41213 0.87708 0.20633 0.0
C364 C 0.41141 0.91801 0.22155 0.0
C365 C 0.45138 0.94933 0.23043 0.0
H366 H 0.56886 0.22382 0.53254 0.0
H367 H 0.71095 0.25067 0.52497 0.0
H368 H 0.57076 0.30532 0.53753 0.0
H369 H 0.71273 0.33224 0.53015 0.0
H370 H 0.70191 0.4694 0.57743 0.0
H371 H 0.70194 0.38856 0.56844 0.0
H372 H 0.58467 0.3734 0.51004 0.0
H373 H 0.58467 0.45431 0.51904 0.0
C374 C 0.60046 0.24706 0.53183 0.0
C375 C 0.63976 0.2307 0.5284 0.0
C376 C 0.60146 0.29374 0.53454 0.0
C377 C 0.64189 0.32513 0.53425 0.0
C378 C 0.68115 0.30882 0.53063 0.0
C379 C 0.68004 0.26211 0.52752 0.0
C380 C 0.6763 0.44879 0.56258 0.0
C381 C 0.64326 0.46811 0.54895 0.0
C382 C 0.67649 0.40264 0.55731 0.0
C383 C 0.64325 0.37467 0.53858 0.0
C384 C 0.61052 0.39409 0.52471 0.0
C385 C 0.61072 0.44041 0.5297 0.0
H386 H 0.27307 0.50942 0.80009 0.0
H387 H 0.36406 0.41628 0.80024 0.0
H388 H 0.21011 0.44633 0.7992 0.0
H389 H 0.30053 0.3527 0.79962 0.0
H390 H 0.18464 0.27974 0.84748 0.0
H391 H 0.25034 0.32848 0.83362 0.0
H392 H 0.16412 0.37777 0.77395 0.0
H393 H 0.09846 0.32941 0.78838 0.0
C394 C 0.27957 0.47535 0.79928 0.0
C395 C 0.32367 0.46797 0.80038 0.0
C396 C 0.24336 0.43907 0.79869 0.0
C397 C 0.25031 0.39445 0.79927 0.0
C398 C 0.29421 0.38676 0.79938 0.0
C399 C 0.33055 0.42317 0.79987 0.0
C400 C 0.18015 0.29976 0.83072 0.0
C401 C 0.13704 0.30103 0.81881 0.0
C402 C 0.21766 0.32764 0.82274 0.0
C403 C 0.21234 0.3574 0.8029 0.0
C404 C 0.16917 0.35566 0.78953 0.0
C405 C 0.13171 0.32776 0.79756 0.0
H406 H 0.87452 0.29595 0.1837 0.0
H407 H 0.95036 0.1967 0.20926 0.0
H408 H 0.80546 0.24625 0.19206 0.0
H409 H 0.88096 0.14604 0.21638 0.0
H410 H 0.75055 0.07659 0.24492 0.0
H411 H 0.81928 0.13381 0.24369 0.0
H412 H 0.7595 0.1763 0.17042 0.0
H413 H 0.69099 0.11992 0.17224 0.0
C414 C 0.87657 0.26374 0.19138 0.0
C415 C 0.91804 0.25027 0.19569 0.0
C416 C 0.83686 0.23499 0.19586 0.0
C417 C 0.83758 0.19197 0.20468 0.0
C418 C 0.87918 0.17907 0.2098 0.0
C419 C 0.91894 0.20789 0.20538 0.0
C420 C 0.75227 0.09873 0.22884 0.0
C421 C 0.71598 0.09438 0.20871 0.0
C422 C 0.79153 0.13119 0.22799 0.0
C423 C 0.79495 0.15964 0.20693 0.0
C424 C 0.75785 0.15553 0.18715 0.0
C425 C 0.71873 0.12316 0.18806 0.0
H426 H 0.11574 0.40301 0.0724 0.0
H427 H 1.0571 0.51783 0.05346 0.0
H428 H 0.10097 0.37281 0.02542 0.0
H429 H 1.04327 0.48782 0.00587 0.0
H430 H 0.982 0.39537 0.929 0.0
H431 H 0.99569 0.42456 0.97658 0.0
H432 H 0.12567 0.38745 0.98226 0.0
H433 H 0.11169 0.35792 0.93477 0.0
C434 C 0.10001 0.42213 0.05817 0.0
C435 C 1.08755 0.46293 0.06675 0.0
C436 C 0.09176 0.4048 0.03114 0.0
C437 C 1.07096 0.42784 0.01188 0.0
C438 C 1.05884 0.46894 0.02032 0.0
C439 C 1.06706 0.48634 0.04752 0.0
C440 C 1.01334 0.39318 0.94053 0.0
C441 C 1.04577 0.3743 0.92822 0.0
C442 C 1.02133 0.41022 0.96769 0.0
C443 C 1.06193 0.40875 0.98315 0.0
C444 C 0.09384 0.3887 0.971 0.0
C445 C 1.08579 0.37156 0.94383 0.0
H446 H 0.55694 0.07621 0.43659 0.0
H447 H 0.70102 0.09976 0.43753 0.0
H448 H 0.54769 0.06404 0.38775 0.0
H449 H 0.6921 0.0902 0.3883 0.0
H450 H 0.65767 0.01397 0.30337 0.0
H451 H 0.6711 0.03501 0.35193 0.0
H452 H 0.55313 0.09476 0.34716 0.0
H453 H 0.53862 0.07095 0.29887 0.0
C454 C 0.58674 0.07973 0.42627 0.0
C455 C 0.6297 0.08878 0.44091 0.0
C456 C 0.58149 0.07305 0.39813 0.0
C457 C 0.61912 0.07613 0.38379 0.0
C458 C 0.66224 0.08661 0.39852 0.0
C459 C 0.66744 0.09243 0.42677 0.0
C460 C 0.63499 0.03201 0.3128 0.0
C461 C 0.59702 0.04067 0.29754 0.0
C462 C 0.64273 0.04436 0.34064 0.0
C463 C 0.61305 0.06639 0.35377 0.0
C464 C 0.57614 0.07681 0.33805 0.0
C465 C 0.56793 0.06358 0.31033 0.0
H466 H 0.5879 0.69278 0.74686 0.0
H467 H 0.66361 0.58892 0.76262 0.0
H468 H 0.5957 0.68155 0.69887 0.0
H469 H 0.66926 0.5757 0.71485 0.0
H470 H 0.70526 0.58129 0.63101 0.0
H471 H 0.7032 0.60319 0.67869 0.0
H472 H 0.57102 0.63238 0.65976 0.0
H473 H 0.57485 0.61305 0.61192 0.0
C474 C 0.60594 0.66736 0.74001 0.0
C475 C 0.62531 0.64189 0.75848 0.0
C476 C 0.61023 0.66067 0.71247 0.0
C477 C 0.63328 0.62776 0.70277 0.0
C478 C 0.6523 0.60218 0.72143 0.0
C479 C 0.64875 0.60948 0.74891 0.0
C480 C 0.67613 0.59299 0.63717 0.0
C481 C 0.64022 0.59552 0.61797 0.0
C482 C 0.67462 0.60515 0.6645 0.0
C483 C 0.63662 0.61903 0.67334 0.0
C484 C 0.60113 0.62251 0.65385 0.0
C485 C 0.60312 0.61124 0.62643 0.0
H486 H 0.59616 0.03419 0.61137 0.0
H487 H 0.68809 0.1633 0.61502 0.0
H488 H 0.59376 0.04534 0.65996 0.0
H489 H 0.68377 0.17594 0.66297 0.0
H490 H 0.69346 0.18069 0.75235 0.0
H491 H 0.70309 0.15818 0.70581 0.0
H492 H 0.56451 0.08599 0.69245 0.0
H493 H 0.55648 0.10626 0.73958 0.0
C494 C 0.61576 0.065 0.62258 0.0
C495 C 0.64236 0.09782 0.6094 0.0
C496 C 0.61418 0.07162 0.65044 0.0
C497 C 0.63846 0.11167 0.66566 0.0
C498 C 0.66537 0.14418 0.6523 0.0
C499 C 0.66764 0.13712 0.62463 0.0
C500 C 0.66547 0.15938 0.73943 0.0
C501 C 0.62431 0.14512 0.74934 0.0
C502 C 0.67069 0.14681 0.71267 0.0
C503 C 0.63441 0.1207 0.69499 0.0
C504 C 0.59349 0.10551 0.70535 0.0
C505 C 0.58867 0.11728 0.73232 0.0
H506 H 0.66884 0.65679 0.93192 0.0
H507 H 0.52641 0.60078 0.91573 0.0
H508 H 0.66972 0.62926 0.97651 0.0
H509 H 0.52745 0.57421 0.96096 0.0
H510 H 0.56733 0.58936 0.06074 0.0
H511 H 0.5565 0.61739 0.01627 0.0
H512 H 0.64604 0.53655 0.98629 0.0
H513 H 0.65509 0.5065 0.02982 0.0
C514 C 0.63752 0.63942 0.93803 0.0
C515 C 0.59754 0.63093 0.9202 0.0
C516 C 0.63815 0.62353 0.96353 0.0
C517 C 0.59869 0.59961 0.97204 0.0
C518 C 0.55824 0.59274 0.95482 0.0
C519 C 0.55775 0.60786 0.92898 0.0
C520 C 0.58391 0.5767 0.04453 0.0
C521 C 0.61275 0.54616 0.04916 0.0
C522 C 0.57784 0.59298 0.01916 0.0
C523 C 0.60096 0.57951 -0.00189 0.0
C524 C 0.62838 0.54791 0.00237 0.0
C525 C 0.63377 0.53102 0.02742 0.0
H526 H 1.07108 0.46871 0.23861 0.0
H527 H 0.16111 0.59679 0.23399 0.0
H528 H 1.08081 0.48211 0.28758 0.0
H529 H 0.17105 0.60998 0.28327 0.0
H530 H 0.14035 0.63694 0.37052 0.0
H531 H 0.12715 0.62459 0.32138 0.0
H532 H 0.1417 0.4856 0.3248 0.0
H533 H 0.15572 0.49804 0.37389 0.0
C534 C 0.09292 0.49982 0.24802 0.0
C535 C 0.11542 0.53168 0.23235 0.0
C536 C 0.09865 0.50732 0.27613 0.0
C537 C 0.12678 0.54699 0.28929 0.0
C538 C 0.14883 0.57923 0.27366 0.0
C539 C 0.14334 0.57158 0.24546 0.0
C540 C 0.14094 0.60377 0.36081 0.0
C541 C 0.14932 0.56853 0.37619 0.0
C542 C 0.13339 0.59676 0.33265 0.0
C543 C 0.13363 0.55423 0.31923 0.0
C544 C 0.14087 0.51865 0.33459 0.0
C545 C 0.14873 0.52574 0.36274 0.0
loop_
_geom_bond_atom_site_label_1
_geom_bond_atom_site_label_2
_geom_bond_distance
_geom_bond_site_symmetry_2
_ccdc_geom_bond_type
Dy0 O3 2.307 1_455 S
Dy0 O5 2.395 . S
Dy0 O6 2.379 . S
Dy0 O8 2.339 . S
Dy0 O10 2.298 . S
Dy0 O14 2.275 . S
Dy0 C22 2.738 . S
Dy1 O4 2.298 . S
Dy1 O7 2.275 1_655 S
Dy1 O9 2.307 1_655 S
Dy1 O11 2.395 . S
Dy1 O12 2.379 . S
Dy1 O15 2.339 . S
Dy1 C31 2.738 . S
C2 O14 1.254 . S
C2 O15 1.257 1_455 S
O3 Dy0 2.307 1_655 S
O3 C13 1.266 . S
O4 Dy1 2.298 . S
O4 C13 1.236 . S
O5 Dy0 2.395 . S
O5 C22 1.255 . S
O6 Dy0 2.379 . S
O6 C22 1.249 . S
O7 Dy1 2.275 1_455 S
O7 C23 1.254 . S
O8 Dy0 2.339 . S
O8 C23 1.257 . S
O9 Dy1 2.307 1_455 S
O9 C24 1.266 . S
O10 Dy0 2.298 . S
O10 C24 1.236 . S
O11 Dy1 2.395 . S
O11 C31 1.255 . S
O12 Dy1 2.379 . S
O12 C31 1.249 . S
C13 O3 1.266 . S
C13 O4 1.236 . S
O14 Dy0 2.275 . S
O14 C2 1.254 . S
O15 Dy1 2.339 . S
O15 C2 1.257 1_655 S
C16 C19 1.344 . S
C16 C20 1.328 . S
C16 C22 1.516 . S
C17 C18 1.304 . S
C17 C21 1.323 . S
C18 C17 1.304 . S
C18 C19 1.371 . S
C18 H32 0.930 . S
C19 C16 1.344 . S
C19 C18 1.371 . S
C19 H33 0.931 . S
C20 C16 1.328 . S
C20 C21 1.433 . S
C20 H34 0.931 . S
C21 C17 1.323 . S
C21 C20 1.433 . S
C21 H35 0.933 . S
C22 Dy0 2.738 . S
C22 O5 1.255 . S
C22 O6 1.249 . S
C22 C16 1.516 . S
C23 O7 1.254 . S
C23 O8 1.257 . S
C24 O9 1.266 . S
C24 O10 1.236 . S
C25 C28 1.344 . S
C25 C29 1.328 . S
C25 C31 1.516 . S
C26 C27 1.304 . S
C26 C30 1.323 . S
C27 C26 1.304 . S
C27 C28 1.371 . S
C27 H36 0.930 . S
C28 C25 1.344 . S
C28 C27 1.371 . S
C28 H37 0.931 . S
C29 C25 1.328 . S
C29 C30 1.433 . S
C29 H38 0.931 . S
C30 C26 1.323 . S
C30 C29 1.433 . S
C30 H39 0.933 . S
C31 Dy1 2.738 . S
C31 O11 1.255 . S
C31 O12 1.249 . S
C31 C25 1.516 . S
H32 C18 0.930 . S
H33 C19 0.931 . S
H34 C20 0.931 . S
H35 C21 0.933 . S
H36 C27 0.930 . S
H37 C28 0.931 . S
H38 C29 0.931 . S
H39 C30 0.933 . S
Dy40 O43 2.307 . S
Dy40 O45 2.395 1_545 S
Dy40 O46 2.379 1_545 S
Dy40 O48 2.339 . S
Dy40 O50 2.298 1_545 S
Dy40 O54 2.275 . S
Dy40 C62 2.738 1_545 S
Dy41 O44 2.298 . S
Dy41 O47 2.275 . S
Dy41 O49 2.307 1_545 S
Dy41 O51 2.395 . S
Dy41 O52 2.379 . S
Dy41 O55 2.339 . S
Dy41 C71 2.738 . S
C42 O54 1.254 . S
C42 O55 1.257 . S
O43 Dy40 2.307 . S
O43 C53 1.266 . S
O44 Dy41 2.298 . S
O44 C53 1.236 . S
O45 Dy40 2.395 1_565 S
O45 C62 1.255 . S
O46 Dy40 2.379 1_565 S
O46 C62 1.249 . S
O47 Dy41 2.275 . S
O47 C63 1.254 . S
O48 Dy40 2.339 . S
O48 C63 1.257 . S
O49 Dy41 2.307 1_565 S
O49 C64 1.266 . S
O50 Dy40 2.298 1_565 S
O50 C64 1.236 . S
O51 Dy41 2.395 . S
O51 C71 1.255 . S
O52 Dy41 2.379 . S
O52 C71 1.249 . S
C53 O43 1.266 . S
C53 O44 1.236 . S
O54 Dy40 2.275 . S
O54 C42 1.254 . S
O55 Dy41 2.339 . S
O55 C42 1.257 . S
C56 C59 1.344 . S
C56 C60 1.328 . S
C56 C62 1.516 . S
C57 C58 1.304 . S
C57 C61 1.323 . S
C58 C57 1.304 . S
C58 C59 1.371 . S
C58 H72 0.930 . S
C59 C56 1.344 . S
C59 C58 1.371 . S
C59 H73 0.931 . S
C60 C56 1.328 . S
C60 C61 1.433 . S
C60 H74 0.931 . S
C61 C57 1.323 . S
C61 C60 1.433 . S
C61 H75 0.933 . S
C62 Dy40 2.738 1_565 S
C62 O45 1.255 . S
C62 O46 1.249 . S
C62 C56 1.516 . S
C63 O47 1.254 . S
C63 O48 1.257 . S
C64 O49 1.266 . S
C64 O50 1.236 . S
C65 C68 1.344 . S
C65 C69 1.328 . S
C65 C71 1.516 . S
C66 C67 1.304 . S
C66 C70 1.323 . S
C67 C66 1.304 . S
C67 C68 1.371 . S
C67 H76 0.930 . S
C68 C65 1.344 . S
C68 C67 1.371 . S
C68 H77 0.931 . S
C69 C65 1.328 . S
C69 C70 1.433 . S
C69 H78 0.931 . S
C70 C66 1.323 . S
C70 C69 1.433 . S
C70 H79 0.933 . S
C71 Dy41 2.738 . S
C71 O51 1.255 . S
C71 O52 1.249 . S
C71 C65 1.516 . S
H72 C58 0.930 . S
H73 C59 0.931 . S
H74 C60 0.931 . S
H75 C61 0.933 . S
H76 C67 0.930 . S
H77 C68 0.931 . S
H78 C69 0.931 . S
H79 C70 0.933 . S
Dy80 O83 2.307 . S
Dy80 O85 2.395 . S
Dy80 O86 2.379 . S
Dy80 O88 2.339 . S
Dy80 O90 2.298 . S
Dy80 O94 2.275 . S
Dy80 C102 2.738 . S
Dy81 O84 2.298 . S
Dy81 O87 2.275 . S
Dy81 O89 2.307 . S
Dy81 O91 2.395 . S
Dy81 O92 2.379 . S
Dy81 O95 2.339 . S
Dy81 C111 2.738 . S
C82 O94 1.254 . S
C82 O95 1.257 . S
O83 Dy80 2.307 . S
O83 C93 1.266 . S
O84 Dy81 2.298 . S
O84 C93 1.236 . S
O85 Dy80 2.395 . S
O85 C102 1.255 . S
O86 Dy80 2.379 . S
O86 C102 1.249 . S
O87 Dy81 2.275 . S
O87 C103 1.254 . S
O88 Dy80 2.339 . S
O88 C103 1.257 . S
O89 Dy81 2.307 . S
O89 C104 1.266 . S
O90 Dy80 2.298 . S
O90 C104 1.236 . S
O91 Dy81 2.395 . S
O91 C111 1.255 . S
O92 Dy81 2.379 . S
O92 C111 1.249 . S
C93 O83 1.266 . S
C93 O84 1.236 . S
O94 Dy80 2.275 . S
O94 C82 1.254 . S
O95 Dy81 2.339 . S
O95 C82 1.257 . S
C96 C99 1.344 . S
C96 C100 1.328 . S
C96 C102 1.516 . S
C97 C98 1.304 . S
C97 C101 1.323 . S
C98 C97 1.304 . S
C98 C99 1.371 . S
C98 H112 0.930 . S
C99 C96 1.344 . S
C99 C98 1.371 . S
C99 H113 0.931 . S
C100 C96 1.328 . S
C100 C101 1.433 . S
C100 H114 0.931 . S
C101 C97 1.323 . S
C101 C100 1.433 . S
C101 H115 0.933 . S
C102 Dy80 2.738 . S
C102 O85 1.255 . S
C102 O86 1.249 . S
C102 C96 1.516 . S
C103 O87 1.254 . S
C103 O88 1.257 . S
C104 O89 1.266 . S
C104 O90 1.236 . S
C105 C108 1.344 . S
C105 C109 1.328 . S
C105 C111 1.516 . S
C106 C107 1.304 . S
C106 C110 1.323 . S
C107 C106 1.304 . S
C107 C108 1.371 . S
C107 H116 0.930 . S
C108 C105 1.344 . S
C108 C107 1.371 . S
C108 H117 0.931 . S
C109 C105 1.328 . S
C109 C110 1.433 . S
C109 H118 0.931 . S
C110 C106 1.323 . S
C110 C109 1.433 . S
C110 H119 0.933 . S
C111 Dy81 2.738 . S
C111 O91 1.255 . S
C111 O92 1.249 . S
C111 C105 1.516 . S
H112 C98 0.930 . S
H113 C99 0.931 . S
H114 C100 0.931 . S
H115 C101 0.933 . S
H116 C107 0.930 . S
H117 C108 0.931 . S
H118 C109 0.931 . S
H119 C110 0.933 . S
H120 C123 0.929 . S
H121 C126 0.929 . S
H122 C128 0.930 . S
C123 H120 0.929 . S
C123 C124 1.398 . S
C123 C125 1.396 . S
C124 C123 1.398 . S
C124 C128 1.407 . S
C125 C123 1.396 . S
C125 C126 1.394 . S
C126 H121 0.929 . S
C126 C125 1.394 . S
C126 C127 1.382 . S
C127 C126 1.382 . S
C127 C128 1.392 . S
C127 N129 1.420 . S
C128 H122 0.930 . S
C128 C124 1.407 . S
C128 C127 1.392 . S
N129 C127 1.420 . S
N129 C130 1.244 . S
C130 N129 1.244 . S
H131 C134 0.929 . S
H132 C137 0.929 . S
H133 C139 0.930 . S
C134 H131 0.929 . S
C134 C135 1.398 . S
C134 C136 1.396 . S
C135 C134 1.398 . S
C135 C139 1.407 . S
C136 C134 1.396 . S
C136 C137 1.394 . S
C137 H132 0.929 . S
C137 C136 1.394 . S
C137 C138 1.382 . S
C138 C137 1.382 . S
C138 C139 1.392 . S
C138 N140 1.420 . S
C139 H133 0.930 . S
C139 C135 1.407 . S
C139 C138 1.392 . S
N140 C138 1.420 . S
N140 C141 1.244 . S
C141 N140 1.244 . S
H142 C145 0.929 . S
H143 C148 0.929 . S
H144 C150 0.930 . S
C145 H142 0.929 . S
C145 C146 1.398 . S
C145 C147 1.396 1_655 S
C146 C145 1.398 . S
C146 C150 1.407 1_655 S
C147 C145 1.396 1_455 S
C147 C148 1.394 . S
C148 H143 0.929 . S
C148 C147 1.394 . S
C148 C149 1.382 . S
C149 C148 1.382 . S
C149 C150 1.392 . S
C149 N151 1.420 . S
C150 H144 0.930 . S
C150 C146 1.407 1_455 S
C150 C149 1.392 . S
N151 C149 1.420 . S
N151 C152 1.244 . S
C152 N151 1.244 . S
H153 C156 0.929 . S
H154 C159 0.929 1_655 S
H155 C161 0.930 . S
C156 H153 0.929 . S
C156 C157 1.398 . S
C156 C158 1.396 . S
C157 C156 1.398 . S
C157 C161 1.407 . S
C158 C156 1.396 . S
C158 C159 1.394 . S
C159 H154 0.929 1_455 S
C159 C158 1.394 . S
C159 C160 1.382 . S
C160 C159 1.382 . S
C160 C161 1.392 . S
C160 N162 1.420 1_455 S
C161 H155 0.930 . S
C161 C157 1.407 . S
C161 C160 1.392 . S
N162 C160 1.420 1_655 S
N162 C163 1.244 . S
C163 N162 1.244 . S
H164 C167 0.929 . S
H165 C170 0.929 . S
H166 C172 0.930 . S
C167 H164 0.929 . S
C167 C168 1.398 . S
C167 C169 1.396 . S
C168 C167 1.398 . S
C168 C172 1.407 . S
C169 C167 1.396 . S
C169 C170 1.394 1_545 S
C170 H165 0.929 . S
C170 C169 1.394 1_565 S
C170 C171 1.382 . S
C171 C170 1.382 . S
C171 C172 1.392 1_565 S
C171 N173 1.420 . S
C172 H166 0.930 . S
C172 C168 1.407 . S
C172 C171 1.392 1_545 S
N173 C171 1.420 . S
N173 C174 1.244 . S
C174 N173 1.244 . S
H175 C178 0.929 . S
H176 C181 0.929 . S
H177 C183 0.930 . S
C178 H175 0.929 . S
C178 C179 1.398 . S
C178 C180 1.396 . S
C179 C178 1.398 . S
C179 C183 1.407 . S
C180 C178 1.396 . S
C180 C181 1.394 . S
C181 H176 0.929 . S
C181 C180 1.394 . S
C181 C182 1.382 . S
C182 C181 1.382 . S
C182 C183 1.392 . S
C182 N184 1.420 . S
C183 H177 0.930 . S
C183 C179 1.407 . S
C183 C182 1.392 . S
N184 C182 1.420 . S
N184 C185 1.244 . S
C185 N184 1.244 . S
H186 C194 0.950 . S
H187 C199 0.950 . S
H188 C196 0.950 . S
H189 C198 0.950 . S
H190 C200 0.950 . S
H191 C202 0.950 . S
H192 C204 0.950 . S
H193 C205 0.950 . S
C194 H186 0.950 . S
C194 C195 1.386 . S
C194 C196 1.391 . S
C195 C194 1.386 . S
C195 C199 1.393 . S
C196 H188 0.950 . S
C196 C194 1.391 . S
C196 C197 1.400 . S
C197 C196 1.400 . S
C197 C198 1.398 . S
C197 C203 1.491 . S
C198 H189 0.950 . S
C198 C197 1.398 . S
C198 C199 1.391 . S
C199 H187 0.950 . S
C199 C195 1.393 . S
C199 C198 1.391 . S
C200 H190 0.950 . S
C200 C201 1.386 . S
C200 C202 1.391 . S
C201 C200 1.386 . S
C201 C205 1.393 . S
C202 H191 0.950 . S
C202 C200 1.391 . S
C202 C203 1.400 . S
C203 C197 1.491 . S
C203 C202 1.400 . S
C203 C204 1.398 . S
C204 H192 0.950 . S
C204 C203 1.398 . S
C204 C205 1.391 . S
C205 H193 0.950 . S
C205 C201 1.393 . S
C205 C204 1.391 . S
H206 C214 0.950 . S
H207 C219 0.950 . S
H208 C216 0.950 . S
H209 C218 0.950 . S
H210 C220 0.950 . S
H211 C222 0.950 . S
H212 C224 0.950 . S
H213 C225 0.950 . S
C214 H206 0.950 . S
C214 C215 1.386 . S
C214 C216 1.391 . S
C215 C214 1.386 . S
C215 C219 1.393 . S
C216 H208 0.950 . S
C216 C214 1.391 . S
C216 C217 1.400 . S
C217 C216 1.400 . S
C217 C218 1.398 . S
C217 C223 1.491 . S
C218 H209 0.950 . S
C218 C217 1.398 . S
C218 C219 1.391 . S
C219 H207 0.950 . S
C219 C215 1.393 . S
C219 C218 1.391 . S
C220 H210 0.950 . S
C220 C221 1.386 . S
C220 C222 1.391 . S
C221 C220 1.386 . S
C221 C225 1.393 . S
C222 H211 0.950 . S
C222 C220 1.391 . S
C222 C223 1.400 . S
C223 C217 1.491 . S
C223 C222 1.400 . S
C223 C224 1.398 . S
C224 H212 0.950 . S
C224 C223 1.398 . S
C224 C225 1.391 . S
C225 H213 0.950 . S
C225 C221 1.393 . S
C225 C224 1.391 . S
H226 C234 0.950 . S
H227 C239 0.950 . S
H228 C236 0.950 . S
H229 C238 0.950 . S
H230 C240 0.950 . S
H231 C242 0.950 . S
H232 C244 0.950 . S
H233 C245 0.950 . S
C234 H226 0.950 . S
C234 C235 1.386 . S
C234 C236 1.391 . S
C235 C234 1.386 . S
C235 C239 1.393 . S
C236 H228 0.950 . S
C236 C234 1.391 . S
C236 C237 1.400 . S
C237 C236 1.400 . S
C237 C238 1.398 . S
C237 C243 1.491 . S
C238 H229 0.950 . S
C238 C237 1.398 . S
C238 C239 1.391 . S
C239 H227 0.950 . S
C239 C235 1.393 . S
C239 C238 1.391 . S
C240 H230 0.950 . S
C240 C241 1.386 . S
C240 C242 1.391 . S
C241 C240 1.386 . S
C241 C245 1.393 . S
C242 H231 0.950 . S
C242 C240 1.391 . S
C242 C243 1.400 . S
C243 C237 1.491 . S
C243 C242 1.400 . S
C243 C244 1.398 . S
C244 H232 0.950 . S
C244 C243 1.398 . S
C244 C245 1.391 . S
C245 H233 0.950 . S
C245 C241 1.393 . S
C245 C244 1.391 . S
H246 C254 0.950 . S
H247 C259 0.950 . S
H248 C256 0.950 . S
H249 C258 0.950 . S
H250 C260 0.950 . S
H251 C262 0.950 . S
H252 C264 0.950 . S
H253 C265 0.950 . S
C254 H246 0.950 . S
C254 C255 1.386 . S
C254 C256 1.391 . S
C255 C254 1.386 . S
C255 C259 1.393 . S
C256 H248 0.950 . S
C256 C254 1.391 . S
C256 C257 1.400 . S
C257 C256 1.400 . S
C257 C258 1.398 . S
C257 C263 1.491 . S
C258 H249 0.950 . S
C258 C257 1.398 . S
C258 C259 1.391 . S
C259 H247 0.950 . S
C259 C255 1.393 . S
C259 C258 1.391 . S
C260 H250 0.950 . S
C260 C261 1.386 . S
C260 C262 1.391 . S
C261 C260 1.386 . S
C261 C265 1.393 . S
C262 H251 0.950 . S
C262 C260 1.391 . S
C262 C263 1.400 . S
C263 C257 1.491 . S
C263 C262 1.400 . S
C263 C264 1.398 . S
C264 H252 0.950 . S
C264 C263 1.398 . S
C264 C265 1.391 . S
C265 H253 0.950 . S
C265 C261 1.393 . S
C265 C264 1.391 . S
H266 C274 0.950 . S
H267 C279 0.950 . S
H268 C276 0.950 . S
H269 C278 0.950 . S
H270 C280 0.950 . S
H271 C282 0.950 . S
H272 C284 0.950 . S
H273 C285 0.950 . S
C274 H266 0.950 . S
C274 C275 1.386 . S
C274 C276 1.391 . S
C275 C274 1.386 . S
C275 C279 1.393 . S
C276 H268 0.950 . S
C276 C274 1.391 . S
C276 C277 1.400 . S
C277 C276 1.400 . S
C277 C278 1.398 . S
C277 C283 1.491 . S
C278 H269 0.950 . S
C278 C277 1.398 . S
C278 C279 1.391 . S
C279 H267 0.950 . S
C279 C275 1.393 . S
C279 C278 1.391 . S
C280 H270 0.950 . S
C280 C281 1.386 . S
C280 C282 1.391 . S
C281 C280 1.386 . S
C281 C285 1.393 . S
C282 H271 0.950 . S
C282 C280 1.391 . S
C282 C283 1.400 . S
C283 C277 1.491 . S
C283 C282 1.400 . S
C283 C284 1.398 . S
C284 H272 0.950 . S
C284 C283 1.398 . S
C284 C285 1.391 . S
C285 H273 0.950 . S
C285 C281 1.393 . S
C285 C284 1.391 . S
H286 C294 0.950 . S
H287 C299 0.950 . S
H288 C296 0.950 . S
H289 C298 0.950 . S
H290 C300 0.950 . S
H291 C302 0.950 . S
H292 C304 0.950 . S
H293 C305 0.950 . S
C294 H286 0.950 . S
C294 C295 1.386 . S
C294 C296 1.391 . S
C295 C294 1.386 . S
C295 C299 1.393 . S
C296 H288 0.950 . S
C296 C294 1.391 . S
C296 C297 1.400 . S
C297 C296 1.400 . S
C297 C298 1.398 . S
C297 C303 1.491 . S
C298 H289 0.950 . S
C298 C297 1.398 . S
C298 C299 1.391 . S
C299 H287 0.950 . S
C299 C295 1.393 . S
C299 C298 1.391 . S
C300 H290 0.950 . S
C300 C301 1.386 . S
C300 C302 1.391 . S
C301 C300 1.386 . S
C301 C305 1.393 . S
C302 H291 0.950 . S
C302 C300 1.391 . S
C302 C303 1.400 . S
C303 C297 1.491 . S
C303 C302 1.400 . S
C303 C304 1.398 . S
C304 H292 0.950 . S
C304 C303 1.398 . S
C304 C305 1.391 . S
C305 H293 0.950 . S
C305 C301 1.393 . S
C305 C304 1.391 . S
H306 C314 0.950 . S
H307 C319 0.950 . S
H308 C316 0.950 . S
H309 C318 0.950 . S
H310 C320 0.950 . S
H311 C322 0.950 . S
H312 C324 0.950 . S
H313 C325 0.950 . S
C314 H306 0.950 . S
C314 C315 1.386 . S
C314 C316 1.391 . S
C315 C314 1.386 . S
C315 C319 1.393 . S
C316 H308 0.950 . S
C316 C314 1.391 . S
C316 C317 1.400 . S
C317 C316 1.400 . S
C317 C318 1.398 . S
C317 C323 1.491 . S
C318 H309 0.950 . S
C318 C317 1.398 . S
C318 C319 1.391 . S
C319 H307 0.950 . S
C319 C315 1.393 . S
C319 C318 1.391 . S
C320 H310 0.950 . S
C320 C321 1.386 . S
C320 C322 1.391 . S
C321 C320 1.386 . S
C321 C325 1.393 . S
C322 H311 0.950 . S
C322 C320 1.391 . S
C322 C323 1.400 . S
C323 C317 1.491 . S
C323 C322 1.400 . S
C323 C324 1.398 . S
C324 H312 0.950 . S
C324 C323 1.398 . S
C324 C325 1.391 . S
C325 H313 0.950 . S
C325 C321 1.393 . S
C325 C324 1.391 . S
H326 C334 0.950 . S
H327 C339 0.950 . S
H328 C336 0.950 . S
H329 C338 0.950 . S
H330 C340 0.950 . S
H331 C342 0.950 . S
H332 C344 0.950 . S
H333 C345 0.950 . S
C334 H326 0.950 . S
C334 C335 1.386 . S
C334 C336 1.391 . S
C335 C334 1.386 . S
C335 C339 1.393 . S
C336 H328 0.950 . S
C336 C334 1.391 . S
C336 C337 1.400 . S
C337 C336 1.400 . S
C337 C338 1.398 . S
C337 C343 1.491 . S
C338 H329 0.950 . S
C338 C337 1.398 . S
C338 C339 1.391 . S
C339 H327 0.950 . S
C339 C335 1.393 . S
C339 C338 1.391 . S
C340 H330 0.950 . S
C340 C341 1.386 . S
C340 C342 1.391 . S
C341 C340 1.386 . S
C341 C345 1.393 . S
C342 H331 0.950 . S
C342 C340 1.391 . S
C342 C343 1.400 . S
C343 C337 1.491 . S
C343 C342 1.400 . S
C343 C344 1.398 . S
C344 H332 0.950 . S
C344 C343 1.398 . S
C344 C345 1.391 . S
C345 H333 0.950 . S
C345 C341 1.393 . S
C345 C344 1.391 . S
H346 C354 0.950 . S
H347 C359 0.950 . S
H348 C356 0.950 . S
H349 C358 0.950 . S
H350 C360 0.950 . S
H351 C362 0.950 . S
H352 C364 0.950 . S
H353 C365 0.950 . S
C354 H346 0.950 . S
C354 C355 1.386 . S
C354 C356 1.391 . S
C355 C354 1.386 . S
C355 C359 1.393 . S
C356 H348 0.950 . S
C356 C354 1.391 . S
C356 C357 1.400 . S
C357 C356 1.400 . S
C357 C358 1.398 . S
C357 C363 1.491 . S
C358 H349 0.950 . S
C358 C357 1.398 . S
C358 C359 1.391 . S
C359 H347 0.950 . S
C359 C355 1.393 . S
C359 C358 1.391 . S
C360 H350 0.950 . S
C360 C361 1.386 1_565 S
C360 C362 1.391 . S
C361 C360 1.386 1_545 S
C361 C365 1.393 . S
C362 H351 0.950 . S
C362 C360 1.391 . S
C362 C363 1.400 . S
C363 C357 1.491 . S
C363 C362 1.400 . S
C363 C364 1.398 . S
C364 H352 0.950 . S
C364 C363 1.398 . S
C364 C365 1.391 1_565 S
C365 H353 0.950 . S
C365 C361 1.393 . S
C365 C364 1.391 1_545 S
H366 C374 0.950 . S
H367 C379 0.950 . S
H368 C376 0.950 . S
H369 C378 0.950 . S
H370 C380 0.950 . S
H371 C382 0.950 . S
H372 C384 0.950 . S
H373 C385 0.950 . S
C374 H366 0.950 . S
C374 C375 1.386 . S
C374 C376 1.391 . S
C375 C374 1.386 . S
C375 C379 1.393 . S
C376 H368 0.950 . S
C376 C374 1.391 . S
C376 C377 1.400 . S
C377 C376 1.400 . S
C377 C378 1.398 . S
C377 C383 1.491 . S
C378 H369 0.950 . S
C378 C377 1.398 . S
C378 C379 1.391 . S
C379 H367 0.950 . S
C379 C375 1.393 . S
C379 C378 1.391 . S
C380 H370 0.950 . S
C380 C381 1.386 . S
C380 C382 1.391 . S
C381 C380 1.386 . S
C381 C385 1.393 . S
C382 H371 0.950 . S
C382 C380 1.391 . S
C382 C383 1.400 . S
C383 C377 1.491 . S
C383 C382 1.400 . S
C383 C384 1.398 . S
C384 H372 0.950 . S
C384 C383 1.398 . S
C384 C385 1.391 . S
C385 H373 0.950 . S
C385 C381 1.393 . S
C385 C384 1.391 . S
H386 C394 0.950 . S
H387 C399 0.950 . S
H388 C396 0.950 . S
H389 C398 0.950 . S
H390 C400 0.950 . S
H391 C402 0.950 . S
H392 C404 0.950 . S
H393 C405 0.950 . S
C394 H386 0.950 . S
C394 C395 1.386 . S
C394 C396 1.391 . S
C395 C394 1.386 . S
C395 C399 1.393 . S
C396 H388 0.950 . S
C396 C394 1.391 . S
C396 C397 1.400 . S
C397 C396 1.400 . S
C397 C398 1.398 . S
C397 C403 1.491 . S
C398 H389 0.950 . S
C398 C397 1.398 . S
C398 C399 1.391 . S
C399 H387 0.950 . S
C399 C395 1.393 . S
C399 C398 1.391 . S
C400 H390 0.950 . S
C400 C401 1.386 . S
C400 C402 1.391 . S
C401 C400 1.386 . S
C401 C405 1.393 . S
C402 H391 0.950 . S
C402 C400 1.391 . S
C402 C403 1.400 . S
C403 C397 1.491 . S
C403 C402 1.400 . S
C403 C404 1.398 . S
C404 H392 0.950 . S
C404 C403 1.398 . S
C404 C405 1.391 . S
C405 H393 0.950 . S
C405 C401 1.393 . S
C405 C404 1.391 . S
H406 C414 0.950 . S
H407 C419 0.950 . S
H408 C416 0.950 . S
H409 C418 0.950 . S
H410 C420 0.950 . S
H411 C422 0.950 . S
H412 C424 0.950 . S
H413 C425 0.950 . S
C414 H406 0.950 . S
C414 C415 1.386 . S
C414 C416 1.391 . S
C415 C414 1.386 . S
C415 C419 1.393 . S
C416 H408 0.950 . S
C416 C414 1.391 . S
C416 C417 1.400 . S
C417 C416 1.400 . S
C417 C418 1.398 . S
C417 C423 1.491 . S
C418 H409 0.950 . S
C418 C417 1.398 . S
C418 C419 1.391 . S
C419 H407 0.950 . S
C419 C415 1.393 . S
C419 C418 1.391 . S
C420 H410 0.950 . S
C420 C421 1.386 . S
C420 C422 1.391 . S
C421 C420 1.386 . S
C421 C425 1.393 . S
C422 H411 0.950 . S
C422 C420 1.391 . S
C422 C423 1.400 . S
C423 C417 1.491 . S
C423 C422 1.400 . S
C423 C424 1.398 . S
C424 H412 0.950 . S
C424 C423 1.398 . S
C424 C425 1.391 . S
C425 H413 0.950 . S
C425 C421 1.393 . S
C425 C424 1.391 . S
H426 C434 0.950 . S
H427 C439 0.950 . S
H428 C436 0.950 . S
H429 C438 0.950 . S
H430 C440 0.957 . S
H431 C442 0.950 . S
H432 C444 0.950 1_554 S
H433 C445 0.950 . S
C434 H426 0.950 . S
C434 C435 1.386 . S
C434 C436 1.391 . S
C435 C434 1.386 . S
C435 C439 1.393 1_455 S
C436 H428 0.950 . S
C436 C434 1.391 . S
C436 C437 1.400 . S
C437 C436 1.400 . S
C437 C438 1.398 1_455 S
C437 C443 1.491 . S
C438 H429 0.950 . S
C438 C437 1.398 1_655 S
C438 C439 1.391 . S
C439 H427 0.950 . S
C439 C435 1.393 1_655 S
C439 C438 1.391 . S
C440 H430 0.957 . S
C440 C441 1.376 1_655 S
C440 C442 1.394 . S
C441 C440 1.376 1_455 S
C441 C445 1.393 . S
C442 H431 0.950 . S
C442 C440 1.394 . S
C442 C443 1.400 1_656 S
C443 C437 1.491 . S
C443 C442 1.400 1_454 S
C443 C444 1.398 1_554 S
C444 H432 0.950 1_556 S
C444 C443 1.398 1_556 S
C444 C445 1.391 . S
C445 H433 0.950 . S
C445 C441 1.393 . S
C445 C444 1.391 . S
H446 C454 0.950 . S
H447 C459 0.950 . S
H448 C456 0.950 . S
H449 C458 0.950 . S
H450 C460 0.950 . S
H451 C462 0.950 . S
H452 C464 0.950 . S
H453 C465 0.950 . S
C454 H446 0.950 . S
C454 C455 1.386 . S
C454 C456 1.391 . S
C455 C454 1.386 . S
C455 C459 1.393 . S
C456 H448 0.950 . S
C456 C454 1.391 . S
C456 C457 1.400 . S
C457 C456 1.400 . S
C457 C458 1.398 . S
C457 C463 1.491 . S
C458 H449 0.950 . S
C458 C457 1.398 . S
C458 C459 1.391 . S
C459 H447 0.950 . S
C459 C455 1.393 . S
C459 C458 1.391 . S
C460 H450 0.950 . S
C460 C461 1.386 . S
C460 C462 1.391 . S
C461 C460 1.386 . S
C461 C465 1.393 . S
C462 H451 0.950 . S
C462 C460 1.391 . S
C462 C463 1.400 . S
C463 C457 1.491 . S
C463 C462 1.400 . S
C463 C464 1.398 . S
C464 H452 0.950 . S
C464 C463 1.398 . S
C464 C465 1.391 . S
C465 H453 0.950 . S
C465 C461 1.393 . S
C465 C464 1.391 . S
H466 C474 0.950 . S
H467 C479 0.950 . S
H468 C476 0.950 . S
H469 C478 0.950 . S
H470 C480 0.950 . S
H471 C482 0.950 . S
H472 C484 0.950 . S
H473 C485 0.950 . S
C474 H466 0.950 . S
C474 C475 1.386 . S
C474 C476 1.391 . S
C475 C474 1.386 . S
C475 C479 1.393 . S
C476 H468 0.950 . S
C476 C474 1.391 . S
C476 C477 1.400 . S
C477 C476 1.400 . S
C477 C478 1.398 . S
C477 C483 1.491 . S
C478 H469 0.950 . S
C478 C477 1.398 . S
C478 C479 1.391 . S
C479 H467 0.950 . S
C479 C475 1.393 . S
C479 C478 1.391 . S
C480 H470 0.950 . S
C480 C481 1.386 . S
C480 C482 1.391 . S
C481 C480 1.386 . S
C481 C485 1.393 . S
C482 H471 0.950 . S
C482 C480 1.391 . S
C482 C483 1.400 . S
C483 C477 1.491 . S
C483 C482 1.400 . S
C483 C484 1.398 . S
C484 H472 0.950 . S
C484 C483 1.398 . S
C484 C485 1.391 . S
C485 H473 0.950 . S
C485 C481 1.393 . S
C485 C484 1.391 . S
H486 C494 0.950 . S
H487 C499 0.950 . S
H488 C496 0.950 . S
H489 C498 0.950 . S
H490 C500 0.950 . S
H491 C502 0.950 . S
H492 C504 0.950 . S
H493 C505 0.950 . S
C494 H486 0.950 . S
C494 C495 1.386 1_565 S
C494 C496 1.391 . S
C495 C494 1.386 1_545 S
C495 C499 1.393 . S
C496 H488 0.950 . S
C496 C494 1.391 . S
C496 C497 1.400 1_565 S
C497 C496 1.400 1_545 S
C497 C498 1.398 . S
C497 C503 1.491 . S
C498 H489 0.950 . S
C498 C497 1.398 . S
C498 C499 1.391 . S
C499 H487 0.950 . S
C499 C495 1.393 . S
C499 C498 1.391 . S
C500 H490 0.950 . S
C500 C501 1.386 . S
C500 C502 1.391 . S
C501 C500 1.386 . S
C501 C505 1.393 1_545 S
C502 H491 0.950 . S
C502 C500 1.391 . S
C502 C503 1.400 . S
C503 C497 1.491 . S
C503 C502 1.400 . S
C503 C504 1.398 1_545 S
C504 H492 0.950 . S
C504 C503 1.398 1_565 S
C504 C505 1.391 . S
C505 H493 0.950 . S
C505 C501 1.393 1_565 S
C505 C504 1.391 . S
H506 C514 0.950 . S
H507 C519 0.950 . S
H508 C516 0.950 . S
H509 C518 0.950 . S
H510 C520 0.950 . S
H511 C522 0.950 1_556 S
H512 C524 0.950 . S
H513 C525 0.950 . S
C514 H506 0.950 . S
C514 C515 1.386 . S
C514 C516 1.391 . S
C515 C514 1.386 . S
C515 C519 1.393 . S
C516 H508 0.950 . S
C516 C514 1.391 . S
C516 C517 1.400 . S
C517 C516 1.400 . S
C517 C518 1.398 . S
C517 C523 1.454 1_556 S
C518 H509 0.950 . S
C518 C517 1.398 . S
C518 C519 1.391 . S
C519 H507 0.950 . S
C519 C515 1.393 . S
C519 C518 1.391 . S
C520 H510 0.950 . S
C520 C521 1.386 . S
C520 C522 1.391 . S
C521 C520 1.386 . S
C521 C525 1.393 . S
C522 H511 0.950 1_554 S
C522 C520 1.391 . S
C522 C523 1.414 . S
C523 C517 1.454 1_554 S
C523 C522 1.414 . S
C523 C524 1.423 . S
C524 H512 0.950 . S
C524 C523 1.423 . S
C524 C525 1.391 . S
C525 H513 0.950 . S
C525 C521 1.393 . S
C525 C524 1.391 . S
H526 C534 0.950 . S
H527 C539 0.950 . S
H528 C536 0.950 . S
H529 C538 0.950 . S
H530 C540 0.950 . S
H531 C542 0.950 . S
H532 C544 0.950 . S
H533 C545 0.950 . S
C534 H526 0.950 . S
C534 C535 1.386 . S
C534 C536 1.391 . S
C535 C534 1.386 . S
C535 C539 1.393 . S
C536 H528 0.950 . S
C536 C534 1.391 . S
C536 C537 1.400 . S
C537 C536 1.400 . S
C537 C538 1.398 . S
C537 C543 1.491 . S
C538 H529 0.950 . S
C538 C537 1.398 . S
C538 C539 1.391 . S
C539 H527 0.950 . S
C539 C535 1.393 . S
C539 C538 1.391 . S
C540 H530 0.950 . S
C540 C541 1.386 . S
C540 C542 1.391 . S
C541 C540 1.386 . S
C541 C545 1.393 . S
C542 H531 0.950 . S
C542 C540 1.391 . S
C542 C543 1.400 . S
C543 C537 1.491 . S
C543 C542 1.400 . S
C543 C544 1.398 . S
C544 H532 0.950 . S
C544 C543 1.398 . S
C544 C545 1.391 . S
C545 H533 0.950 . S
C545 C541 1.393 . S
C545 C544 1.391 . S
C195 C24 3.039 . S
C201 C185 2.976 . S
C215 C66 1.174 . S
C221 C163 1.209 . S
C235 C93 1.830 . S
C241 C174 1.803 . S
C255 C13 2.985 . S
C261 C179 2.951 . S
C281 C157 1.090 . S
C275 C57 1.108 . S
C301 C168 1.814 . S
C295 C104 1.858 . S
C315 C64 1.987 . S
C321 C141 1.918 . S
C335 C97 0.388 . S
C341 C146 0.398 . S
C355 C17 1.191 . S
C361 C124 1.216 . S
C381 C135 1.700 . S
C375 C53 1.716 . S
C401 C152 0.273 . S
C395 C106 0.364 . S
C415 C26 1.223 . S
C421 C130 1.218 . S
C441 C147 1.221 . S
C435 C2 1.178 . S
C455 C63 1.480 . S
C461 C125 1.491 . S
C475 C82 1.447 . S
C481 C136 1.471 . S
C501 C169 1.452 . S
C495 C42 1.422 . S
C521 C180 1.744 . S
C515 C103 1.714 . S
C535 C23 1.531 . S
C541 C158 1.549 . S
