# Generated by pormake.
# Topology wbl, (4,4)-cn, num edge types: 1
# Building blocks:
#     Node 0, Type 0, BuildingBlock: MUDLON_clean_linker_0, # of connection points: 4
#     Node 1, Type 0, BuildingBlock: MUDLON_clean_linker_0, # of connection points: 4
#     Node 2, Type 0, BuildingBlock: MUDLON_clean_linker_0, # of connection points: 4
#     Node 3, Type 0, BuildingBlock: MUDLON_clean_linker_0, # of connection points: 4
#     Node 4, Type 0, BuildingBlock: MUDLON_clean_linker_0, # of connection points: 4
#     Node 5, Type 0, BuildingBlock: MUDLON_clean_linker_0, # of connection points: 4
#     Node 6, Type 0, BuildingBlock: MUDLON_clean_linker_0, # of connection points: 4
#     Node 7, Type 0, BuildingBlock: MUDLON_clean_linker_0, # of connection points: 4
#     Node 8, Type 1, BuildingBlock: CEKHIL_clean_sbu_0, # of connection points: 4
#     Node 9, Type 1, BuildingBlock: CEKHIL_clean_sbu_0, # of connection points: 4
#     Node 10, Type 1, BuildingBlock: CEKHIL_clean_sbu_0, # of connection points: 4
#     Node 11, Type 1, BuildingBlock: CEKHIL_clean_sbu_0, # of connection points: 4
#     Node 12, Type 1, BuildingBlock: CEKHIL_clean_sbu_0, # of connection points: 4
#     Node 13, Type 1, BuildingBlock: CEKHIL_clean_sbu_0, # of connection points: 4
#     Node 14, Type 1, BuildingBlock: CEKHIL_clean_sbu_0, # of connection points: 4
#     Node 15, Type 1, BuildingBlock: CEKHIL_clean_sbu_0, # of connection points: 4
#     Edge 16, Type (0, 1), BuildingBlock: UVAHIK_clean_linker_0, # of connection points: 2
#     Edge 17, Type (0, 1), BuildingBlock: UVAHIK_clean_linker_0, # of connection points: 2
#     Edge 18, Type (0, 1), BuildingBlock: UVAHIK_clean_linker_0, # of connection points: 2
#     Edge 19, Type (0, 1), BuildingBlock: UVAHIK_clean_linker_0, # of connection points: 2
#     Edge 20, Type (0, 1), BuildingBlock: UVAHIK_clean_linker_0, # of connection points: 2
#     Edge 21, Type (0, 1), BuildingBlock: UVAHIK_clean_linker_0, # of connection points: 2
#     Edge 22, Type (0, 1), BuildingBlock: UVAHIK_clean_linker_0, # of connection points: 2
#     Edge 23, Type (0, 1), BuildingBlock: UVAHIK_clean_linker_0, # of connection points: 2
#     Edge 24, Type (0, 1), BuildingBlock: UVAHIK_clean_linker_0, # of connection points: 2
#     Edge 25, Type (0, 1), BuildingBlock: UVAHIK_clean_linker_0, # of connection points: 2
#     Edge 26, Type (0, 1), BuildingBlock: UVAHIK_clean_linker_0, # of connection points: 2
#     Edge 27, Type (0, 1), BuildingBlock: UVAHIK_clean_linker_0, # of connection points: 2
#     Edge 28, Type (0, 1), BuildingBlock: UVAHIK_clean_linker_0, # of connection points: 2
#     Edge 29, Type (0, 1), BuildingBlock: UVAHIK_clean_linker_0, # of connection points: 2
#     Edge 30, Type (0, 1), BuildingBlock: UVAHIK_clean_linker_0, # of connection points: 2
#     Edge 31, Type (0, 1), BuildingBlock: UVAHIK_clean_linker_0, # of connection points: 2
#     Edge 32, Type (0, 1), BuildingBlock: UVAHIK_clean_linker_0, # of connection points: 2
#     Edge 33, Type (0, 1), BuildingBlock: UVAHIK_clean_linker_0, # of connection points: 2
#     Edge 34, Type (0, 1), BuildingBlock: UVAHIK_clean_linker_0, # of connection points: 2
#     Edge 35, Type (0, 1), BuildingBlock: UVAHIK_clean_linker_0, # of connection points: 2
#     Edge 36, Type (0, 1), BuildingBlock: UVAHIK_clean_linker_0, # of connection points: 2
#     Edge 37, Type (0, 1), BuildingBlock: UVAHIK_clean_linker_0, # of connection points: 2
#     Edge 38, Type (0, 1), BuildingBlock: UVAHIK_clean_linker_0, # of connection points: 2
#     Edge 39, Type (0, 1), BuildingBlock: UVAHIK_clean_linker_0, # of connection points: 2
#     Edge 40, Type (0, 1), BuildingBlock: UVAHIK_clean_linker_0, # of connection points: 2
#     Edge 41, Type (0, 1), BuildingBlock: UVAHIK_clean_linker_0, # of connection points: 2
#     Edge 42, Type (0, 1), BuildingBlock: UVAHIK_clean_linker_0, # of connection points: 2
#     Edge 43, Type (0, 1), BuildingBlock: UVAHIK_clean_linker_0, # of connection points: 2
#     Edge 44, Type (0, 1), BuildingBlock: UVAHIK_clean_linker_0, # of connection points: 2
#     Edge 45, Type (0, 1), BuildingBlock: UVAHIK_clean_linker_0, # of connection points: 2
#     Edge 46, Type (0, 1), BuildingBlock: UVAHIK_clean_linker_0, # of connection points: 2
#     Edge 47, Type (0, 1), BuildingBlock: UVAHIK_clean_linker_0, # of connection points: 2
# Relax obj value: 0.125
# Max RMSD: 0.145
# Mean RMSD: 0.131
data_MOF--net-wbl--node1-CEKHIL_clean_sbu_0--node2-MUDLON_clean_linker_0--edge1-UVAHIK_clean_linker_0
_symmetry_space_group_name_H-M    P1
_symmetry_Int_Tables_number       1
_symmetry_cell_setting            triclinic
loop_
_symmetry_equiv_pos_as_xyz
'x, y, z'
_cell_length_a     64.903649
_cell_length_b     65.171493
_cell_length_c     93.612588
_cell_angle_alpha  90.321459
_cell_angle_beta   90.105163
_cell_angle_gamma 89.984732
loop_
_atom_site_label
_atom_site_type_symbol
_atom_site_fract_x
_atom_site_fract_y
_atom_site_fract_z
_atom_type_partial_charge
H0 H 0.08678 0.96704 0.31956 0.0
N1 N 0.05152 0.95107 0.30778 0.0
H2 H 0.10204 0.95764 0.34241 0.0
H3 H 0.03536 0.92687 0.32759 0.0
H4 H 0.05099 0.91687 0.35044 0.0
H5 H 0.05855 0.9129 0.29943 0.0
H6 H 0.08844 0.90029 0.2865 0.0
H7 H 0.07751 0.97521 0.29152 0.0
H8 H 0.10671 0.96282 0.27784 0.0
H9 H 0.06377 0.99112 0.31222 0.0
H10 H 0.01246 0.95313 0.29954 0.0
H11 H 0.04225 0.02144 0.31066 0.0
H12 H 0.99039 0.98358 0.29845 0.0
H13 H 0.96275 0.11457 0.31724 0.0
H14 H 0.94424 0.12567 0.33871 0.0
H15 H 0.92404 0.06331 0.34552 0.0
H16 H 0.94295 0.05232 0.32427 0.0
H17 H 0.92762 0.05524 0.30101 0.0
H18 H 0.89873 0.06532 0.28609 0.0
H19 H 0.9346 0.11576 0.26952 0.0
H20 H 0.96323 0.10602 0.28517 0.0
H21 H 0.99335 0.0677 0.32343 0.0
H22 H 0.01493 0.03721 0.32348 0.0
H23 H 0.98361 0.01485 0.28574 0.0
N24 N 0.96292 0.0774 0.30535 0.0
H25 H 0.9617 0.04483 0.28586 0.0
C26 C 0.05963 0.9479 0.32196 0.0
C27 C 0.07842 0.95668 0.32641 0.0
C28 C 0.08725 0.95117 0.33945 0.0
C29 C 0.0777 0.93651 0.34814 0.0
C30 C 0.0587 0.92814 0.34388 0.0
C31 C 0.04971 0.93391 0.33093 0.0
C32 C 0.06575 0.94494 0.2967 0.0
C33 C 0.06871 0.92387 0.29439 0.0
C34 C 0.08588 0.91669 0.28693 0.0
C35 C 0.10039 0.9305 0.28133 0.0
C36 C 0.09627 0.95169 0.2824 0.0
C37 C 0.07929 0.95886 0.29014 0.0
C38 C 0.03976 0.96967 0.30591 0.0
C39 C 0.0479 0.98921 0.30903 0.0
C40 C 0.03544 0.00664 0.30827 0.0
C41 C 0.01449 0.00499 0.30457 0.0
C42 C 0.00649 0.98549 0.30118 0.0
C43 C 0.01904 0.96806 0.30184 0.0
C44 C 0.95429 0.08271 0.31914 0.0
C45 C 0.95464 0.10328 0.32355 0.0
C46 C 0.94386 0.1096 0.3357 0.0
C47 C 0.93245 0.09541 0.34373 0.0
C48 C 0.93276 0.07461 0.33963 0.0
C49 C 0.94354 0.06831 0.32745 0.0
C50 C 0.94755 0.08009 0.29433 0.0
C51 C 0.9294 0.06829 0.29403 0.0
C52 C 0.91291 0.07399 0.28533 0.0
C53 C 0.9142 0.09153 0.27668 0.0
C54 C 0.93293 0.1024 0.27625 0.0
C55 C 0.94938 0.09676 0.28505 0.0
C56 C 0.97504 0.05859 0.30511 0.0
C57 C 0.99081 0.0561 0.31529 0.0
C58 C 0.00338 0.03872 0.31519 0.0
C59 C 0.00096 0.02347 0.30464 0.0
C60 C 0.98559 0.02606 0.29421 0.0
C61 C 0.9729 0.04341 0.29435 0.0
H62 H 0.98233 0.4096 0.57841 0.0
N63 N 0.97138 0.43734 0.55927 0.0
H64 H 0.964 0.40054 0.60033 0.0
H65 H 0.93881 0.45814 0.57057 0.0
H66 H 0.92005 0.44898 0.5924 0.0
H67 H 0.93561 0.44859 0.54603 0.0
H68 H 0.91552 0.42708 0.52974 0.0
H69 H 0.98431 0.40371 0.54609 0.0
H70 H 0.96423 0.38179 0.53012 0.0
H71 H 0.01109 0.43993 0.5651 0.0
H72 H 0.9597 0.47503 0.54941 0.0
H73 H 0.03339 0.46984 0.56299 0.0
H74 H 0.9821 0.50493 0.54645 0.0
H75 H 0.10076 0.55033 0.56863 0.0
H76 H 0.112 0.5651 0.5915 0.0
H77 H 0.0538 0.59685 0.59521 0.0
H78 H 0.04283 0.58222 0.57246 0.0
H79 H 0.04078 0.59011 0.5485 0.0
H80 H 0.05055 0.61941 0.53399 0.0
H81 H 0.10506 0.58681 0.52005 0.0
H82 H 0.09577 0.55817 0.53551 0.0
H83 H 0.07397 0.51949 0.54705 0.0
H84 H 0.05026 0.49043 0.54634 0.0
H85 H 0.00049 0.53054 0.55931 0.0
N86 N 0.06588 0.5577 0.55474 0.0
H87 H 0.02415 0.55964 0.55902 0.0
C88 C 0.96185 0.43438 0.57291 0.0
C89 C 0.96899 0.41849 0.5816 0.0
C90 C 0.95851 0.41337 0.59407 0.0
C91 C 0.94053 0.42399 0.598 0.0
C92 C 0.93374 0.44041 0.58951 0.0
C93 C 0.94444 0.44569 0.57709 0.0
C94 C 0.96148 0.42766 0.54727 0.0
C95 C 0.94226 0.43439 0.54221 0.0
C96 C 0.93069 0.42195 0.53299 0.0
C97 C 0.93811 0.40257 0.52875 0.0
C98 C 0.95806 0.39669 0.533 0.0
C99 C 0.96959 0.40915 0.54216 0.0
C100 C 0.98392 0.4552 0.55726 0.0
C101 C 0.00476 0.45409 0.56097 0.0
C102 C 0.01748 0.47119 0.55962 0.0
C103 C 0.00967 0.48982 0.55434 0.0
C104 C 0.98864 0.4909 0.55063 0.0
C105 C 0.97582 0.47376 0.55218 0.0
C106 C 0.071 0.56502 0.56884 0.0
C107 C 0.09038 0.56026 0.57451 0.0
C108 C 0.09674 0.56872 0.58754 0.0
C109 C 0.08382 0.58225 0.59511 0.0
C110 C 0.06422 0.58672 0.58953 0.0
C111 C 0.05784 0.57816 0.57653 0.0
C112 C 0.06795 0.57226 0.54339 0.0
C113 C 0.05466 0.58916 0.54218 0.0
C114 C 0.0602 0.60587 0.53371 0.0
C115 C 0.07893 0.60574 0.52613 0.0
C116 C 0.09089 0.58772 0.52611 0.0
C117 C 0.08551 0.57124 0.53478 0.0
C118 C 0.05095 0.54155 0.55335 0.0
C119 C 0.05787 0.52196 0.54955 0.0
C120 C 0.04431 0.50537 0.5493 0.0
C121 C 0.02348 0.50799 0.55309 0.0
C122 C 0.01638 0.52791 0.55631 0.0
C123 C 0.02997 0.54459 0.55634 0.0
H124 H 0.60722 0.47797 0.81772 0.0
N125 N 0.56956 0.47548 0.80669 0.0
H126 H 0.61976 0.46225 0.83973 0.0
H127 H 0.54585 0.45663 0.82682 0.0
H128 H 0.55789 0.4418 0.84915 0.0
H129 H 0.56731 0.43358 0.80539 0.0
H130 H 0.58627 0.4123 0.78866 0.0
H131 H 0.58252 0.48737 0.78102 0.0
H132 H 0.59967 0.46594 0.76324 0.0
H133 H 0.57213 0.51586 0.80505 0.0
H134 H 0.52872 0.466 0.80529 0.0
H135 H 0.54394 0.54054 0.80397 0.0
H136 H 0.50007 0.49056 0.8053 0.0
H137 H 0.45308 0.61425 0.82051 0.0
H138 H 0.43579 0.6215 0.8432 0.0
H139 H 0.41888 0.55757 0.84652 0.0
H140 H 0.43621 0.55053 0.82372 0.0
H141 H 0.42118 0.55604 0.80018 0.0
H142 H 0.39355 0.56669 0.78425 0.0
H143 H 0.42988 0.6188 0.77112 0.0
H144 H 0.45756 0.60799 0.78727 0.0
H145 H 0.49213 0.58053 0.81884 0.0
H146 H 0.51918 0.55471 0.81878 0.0
H147 H 0.48101 0.51522 0.79253 0.0
N148 N 0.45539 0.57867 0.80677 0.0
H149 H 0.45355 0.54059 0.79345 0.0
C150 C 0.57565 0.46868 0.82069 0.0
C151 C 0.59637 0.47036 0.8247 0.0
C152 C 0.60347 0.46139 0.8373 0.0
C153 C 0.58987 0.45062 0.84623 0.0
C154 C 0.56888 0.44963 0.84242 0.0
C155 C 0.56187 0.45842 0.82973 0.0
C156 C 0.57427 0.46223 0.79476 0.0
C157 C 0.57408 0.44076 0.79612 0.0
C158 C 0.58483 0.42849 0.78636 0.0
C159 C 0.59537 0.43742 0.77481 0.0
C160 C 0.59269 0.45858 0.77237 0.0
C161 C 0.58258 0.47088 0.7824 0.0
C162 C 0.55243 0.48929 0.80553 0.0
C163 C 0.55639 0.51033 0.80501 0.0
C164 C 0.54022 0.52437 0.80454 0.0
C165 C 0.51961 0.51765 0.80488 0.0
C166 C 0.51569 0.49636 0.80499 0.0
C167 C 0.532 0.48228 0.80517 0.0
C168 C 0.446 0.58193 0.82052 0.0
C169 C 0.44576 0.60182 0.82622 0.0
C170 C 0.4359 0.60589 0.83916 0.0
C171 C 0.42599 0.59009 0.84665 0.0
C172 C 0.4262 0.57009 0.84091 0.0
C173 C 0.43618 0.56601 0.82795 0.0
C174 C 0.44144 0.58133 0.79494 0.0
C175 C 0.42355 0.56932 0.79352 0.0
C176 C 0.40775 0.57541 0.78433 0.0
C177 C 0.40947 0.59371 0.77654 0.0
C178 C 0.42807 0.60473 0.7771 0.0
C179 C 0.44392 0.59854 0.78623 0.0
C180 C 0.47086 0.56277 0.8061 0.0
C181 C 0.48961 0.56627 0.81311 0.0
C182 C 0.50514 0.55151 0.81293 0.0
C183 C 0.50251 0.53292 0.80544 0.0
C184 C 0.48358 0.52927 0.7985 0.0
C185 C 0.46782 0.54396 0.79892 0.0
H186 H 0.48279 0.9078 0.0754 0.0
N187 N 0.47042 0.93691 0.05758 0.0
H188 H 0.46539 0.89642 0.09715 0.0
H189 H 0.4374 0.95525 0.06983 0.0
H190 H 0.41961 0.94389 0.09159 0.0
H191 H 0.43587 0.94915 0.04369 0.0
H192 H 0.41653 0.92886 0.02616 0.0
H193 H 0.48365 0.90339 0.04424 0.0
H194 H 0.46428 0.88255 0.02719 0.0
H195 H 0.50928 0.93756 0.06639 0.0
H196 H 0.46251 0.97466 0.0466 0.0
H197 H 0.53335 0.9662 0.06559 0.0
H198 H 0.48686 0.0032 0.04479 0.0
H199 H 0.60892 0.05033 0.06746 0.0
H200 H 0.62089 0.06724 0.08934 0.0
H201 H 0.55902 0.08888 0.09738 0.0
H202 H 0.54735 0.07228 0.07544 0.0
H203 H 0.54848 0.0869 0.05193 0.0
H204 H 0.55797 0.11588 0.03707 0.0
H205 H 0.60823 0.08052 0.01929 0.0
H206 H 0.59901 0.05181 0.03475 0.0
H207 H 0.57891 0.01302 0.05135 0.0
H208 H 0.55397 0.98505 0.05042 0.0
H209 H 0.50468 0.02861 0.05757 0.0
N210 N 0.57176 0.05242 0.0558 0.0
H211 H 0.52968 0.05651 0.05735 0.0
C212 C 0.46133 0.93228 0.07113 0.0
C213 C 0.46923 0.91595 0.07908 0.0
C214 C 0.45928 0.90951 0.09146 0.0
C215 C 0.44109 0.91923 0.09603 0.0
C216 C 0.43348 0.936 0.08822 0.0
C217 C 0.44362 0.94257 0.07588 0.0
C218 C 0.46121 0.92772 0.04516 0.0
C219 C 0.44245 0.93499 0.03971 0.0
C220 C 0.43132 0.92324 0.02981 0.0
C221 C 0.43867 0.90391 0.02535 0.0
C222 C 0.45818 0.89743 0.03017 0.0
C223 C 0.46931 0.90927 0.03996 0.0
C224 C 0.48428 0.95396 0.05645 0.0
C225 C 0.50436 0.95189 0.06167 0.0
C226 C 0.51814 0.96827 0.06106 0.0
C227 C 0.51224 0.98708 0.05494 0.0
C228 C 0.49196 0.98908 0.0497 0.0
C229 C 0.47804 0.97271 0.05057 0.0
C230 C 0.5773 0.05987 0.06981 0.0
C231 C 0.59791 0.05839 0.07412 0.0
C232 C 0.60469 0.06808 0.08661 0.0
C233 C 0.59092 0.07954 0.09507 0.0
C234 C 0.57007 0.08044 0.09099 0.0
C235 C 0.56332 0.07072 0.07848 0.0
C236 C 0.57328 0.06728 0.04457 0.0
C237 C 0.56117 0.08514 0.04457 0.0
C238 C 0.56661 0.10175 0.03598 0.0
C239 C 0.58415 0.1007 0.02718 0.0
C240 C 0.59495 0.08202 0.0262 0.0
C241 C 0.58958 0.06552 0.03488 0.0
C242 C 0.55627 0.03673 0.05471 0.0
C243 C 0.56268 0.01646 0.05259 0.0
C244 C 0.54837 0.00049 0.05222 0.0
C245 C 0.52723 0.00441 0.05422 0.0
C246 C 0.52076 0.02493 0.05594 0.0
C247 C 0.53513 0.04096 0.05603 0.0
H248 H 0.08819 0.54895 0.9352 0.0
N249 N 0.04982 0.56148 0.94386 0.0
H250 H 0.10557 0.55904 0.91315 0.0
H251 H 0.03327 0.58065 0.92166 0.0
H252 H 0.05047 0.59053 0.89947 0.0
H253 H 0.05749 0.59989 0.95136 0.0
H254 H 0.08568 0.61219 0.96616 0.0
H255 H 0.07205 0.53754 0.96281 0.0
H256 H 0.09931 0.54971 0.97843 0.0
H257 H 0.06262 0.52174 0.93992 0.0
H258 H 0.01018 0.55939 0.95041 0.0
H259 H 0.04112 0.4911 0.9409 0.0
H260 H 0.98821 0.52893 0.95078 0.0
H261 H 0.96032 0.39901 0.93121 0.0
H262 H 0.9425 0.38887 0.90925 0.0
H263 H 0.92352 0.45173 0.90288 0.0
H264 H 0.94122 0.46166 0.92498 0.0
H265 H 0.92483 0.45727 0.94784 0.0
H266 H 0.89605 0.44687 0.96268 0.0
H267 H 0.93241 0.3967 0.97924 0.0
H268 H 0.96101 0.40685 0.96373 0.0
H269 H 0.99296 0.44409 0.92725 0.0
H270 H 0.015 0.47429 0.92775 0.0
H271 H 0.98019 0.4985 0.96335 0.0
N272 N 0.96052 0.43569 0.9437 0.0
H273 H 0.95783 0.46893 0.96255 0.0
C274 C 0.05941 0.56428 0.93011 0.0
C275 C 0.07973 0.55775 0.92737 0.0
C276 C 0.0897 0.5636 0.91481 0.0
C277 C 0.07942 0.5757 0.90467 0.0
C278 C 0.05873 0.58111 0.90706 0.0
C279 C 0.04888 0.57551 0.9197 0.0
C280 C 0.06268 0.56785 0.95571 0.0
C281 C 0.06625 0.58891 0.95755 0.0
C282 C 0.08242 0.59591 0.96611 0.0
C283 C 0.09522 0.58195 0.97335 0.0
C284 C 0.09028 0.56092 0.97265 0.0
C285 C 0.07438 0.55388 0.96378 0.0
C286 C 0.03798 0.54289 0.94524 0.0
C287 C 0.04647 0.52341 0.9425 0.0
C288 C 0.03406 0.50589 0.94292 0.0
C289 C 0.01284 0.50748 0.94585 0.0
C290 C 0.00451 0.52701 0.94872 0.0
C291 C 0.01699 0.54447 0.94846 0.0
C292 C 0.95219 0.431 0.92973 0.0
C293 C 0.95261 0.41062 0.92493 0.0
C294 C 0.94242 0.40489 0.91238 0.0
C295 C 0.93151 0.41949 0.90434 0.0
C296 C 0.93153 0.44007 0.90894 0.0
C297 C 0.94178 0.4458 0.92151 0.0
C298 C 0.94507 0.43267 0.95459 0.0
C299 C 0.92675 0.44423 0.9548 0.0
C300 C 0.91032 0.43833 0.96344 0.0
C301 C 0.91181 0.4208 0.97209 0.0
C302 C 0.93062 0.41007 0.97253 0.0
C303 C 0.94705 0.41595 0.96382 0.0
C304 C 0.97306 0.45417 0.94442 0.0
C305 C 0.98985 0.45603 0.93505 0.0
C306 C 0.00265 0.47324 0.93547 0.0
C307 C 0.99935 0.48897 0.94555 0.0
C308 C 0.98292 0.48695 0.95521 0.0
C309 C 0.96997 0.4698 0.95471 0.0
H310 H 0.52785 0.3923 0.17925 0.0
N311 N 0.52879 0.4284 0.19236 0.0
H312 H 0.54666 0.38191 0.15787 0.0
H313 H 0.55136 0.45378 0.17534 0.0
H314 H 0.56952 0.44392 0.15346 0.0
H315 H 0.56661 0.44348 0.19992 0.0
H316 H 0.59079 0.42694 0.21623 0.0
H317 H 0.51976 0.39977 0.21126 0.0
H318 H 0.54389 0.38253 0.22707 0.0
H319 H 0.4916 0.43234 0.18123 0.0
H320 H 0.53777 0.46581 0.20493 0.0
H321 H 0.4691 0.46223 0.18178 0.0
H322 H 0.51488 0.49541 0.20634 0.0
H323 H 0.39547 0.5509 0.18357 0.0
H324 H 0.38482 0.56915 0.16199 0.0
H325 H 0.4484 0.58442 0.15353 0.0
H326 H 0.45887 0.56587 0.17485 0.0
H327 H 0.45691 0.58305 0.19801 0.0
H328 H 0.44906 0.61198 0.21352 0.0
H329 H 0.40018 0.57699 0.23312 0.0
H330 H 0.40759 0.54837 0.2169 0.0
H331 H 0.42414 0.50947 0.19693 0.0
H332 H 0.44794 0.48053 0.19726 0.0
H333 H 0.49925 0.52257 0.19375 0.0
N334 N 0.43297 0.54884 0.19471 0.0
H335 H 0.47524 0.55142 0.19445 0.0
C336 C 0.53807 0.42375 0.17877 0.0
C337 C 0.53673 0.40365 0.17352 0.0
C338 C 0.54746 0.3978 0.16126 0.0
C339 C 0.55966 0.41206 0.15387 0.0
C340 C 0.56056 0.43243 0.15898 0.0
C341 C 0.54998 0.4382 0.17138 0.0
C342 C 0.54134 0.42279 0.20442 0.0
C343 C 0.56132 0.43073 0.20629 0.0
C344 C 0.57522 0.42106 0.21549 0.0
C345 C 0.56949 0.40312 0.2228 0.0
C346 C 0.54892 0.39638 0.22179 0.0
C347 C 0.53502 0.40619 0.21272 0.0
C348 C 0.51622 0.44662 0.19315 0.0
C349 C 0.49676 0.44611 0.1867 0.0
C350 C 0.48385 0.46319 0.18716 0.0
C351 C 0.48994 0.48123 0.19434 0.0
C352 C 0.50967 0.48187 0.20064 0.0
C353 C 0.52277 0.46479 0.19996 0.0
C354 C 0.42788 0.55691 0.18085 0.0
C355 C 0.4071 0.55782 0.17686 0.0
C356 C 0.40105 0.56846 0.16464 0.0
C357 C 0.41575 0.57847 0.15615 0.0
C358 C 0.43671 0.57678 0.15979 0.0
C359 C 0.44273 0.56613 0.17204 0.0
C360 C 0.43256 0.56364 0.20616 0.0
C361 C 0.44486 0.58137 0.20587 0.0
C362 C 0.44037 0.59796 0.21485 0.0
C363 C 0.42367 0.59704 0.22442 0.0
C364 C 0.41278 0.57846 0.22564 0.0
C365 C 0.41714 0.56199 0.21652 0.0
C366 C 0.44782 0.53249 0.19542 0.0
C367 C 0.44055 0.51236 0.19633 0.0
C368 C 0.45422 0.49585 0.19637 0.0
C369 C 0.4756 0.49909 0.19523 0.0
C370 C 0.48293 0.51943 0.19468 0.0
C371 C 0.46917 0.536 0.1949 0.0
H372 H 0.40221 0.98704 0.42759 0.0
N373 N 0.43348 0.97397 0.44346 0.0
H374 H 0.39005 0.97273 0.40478 0.0
H375 H 0.45223 0.94351 0.42778 0.0
H376 H 0.44024 0.92917 0.40536 0.0
H377 H 0.44716 0.93601 0.45207 0.0
H378 H 0.42963 0.91328 0.46854 0.0
H379 H 0.40222 0.98327 0.46033 0.0
H380 H 0.38395 0.96032 0.47637 0.0
H381 H 0.43893 0.01405 0.44652 0.0
H382 H 0.47232 0.95692 0.44469 0.0
H383 H 0.47151 0.03275 0.44857 0.0
H384 H 0.50457 0.97522 0.44571 0.0
H385 H 0.56262 0.0833 0.4343 0.0
H386 H 0.57513 0.09932 0.4125 0.0
H387 H 0.60222 0.04167 0.39936 0.0
H388 H 0.58944 0.02567 0.42127 0.0
H389 H 0.6065 0.03433 0.45387 0.0
H390 H 0.62632 0.05381 0.47141 0.0
H391 H 0.57517 0.09566 0.47675 0.0
H392 H 0.55537 0.07581 0.45905 0.0
H393 H 0.53319 0.05954 0.43344 0.0
H394 H 0.49989 0.04277 0.43494 0.0
H395 H 0.5273 0.99398 0.45972 0.0
N396 N 0.57025 0.04392 0.44295 0.0
H397 H 0.56096 0.01022 0.45722 0.0
C398 C 0.42824 0.96662 0.42938 0.0
C399 C 0.41073 0.97464 0.42262 0.0
C400 C 0.40372 0.96633 0.40968 0.0
C401 C 0.41418 0.94981 0.40326 0.0
C402 C 0.432 0.9421 0.4099 0.0
C403 C 0.43892 0.95035 0.42283 0.0
C404 C 0.42601 0.96151 0.45498 0.0
C405 C 0.43384 0.94178 0.45767 0.0
C406 C 0.42361 0.92861 0.46702 0.0
C407 C 0.40522 0.93481 0.47371 0.0
C408 C 0.3982 0.95502 0.47163 0.0
C409 C 0.40855 0.9682 0.46239 0.0
C410 C 0.45302 0.98413 0.44527 0.0
C411 C 0.45328 0.00556 0.4465 0.0
C412 C 0.47193 0.0162 0.44755 0.0
C413 C 0.49081 0.00557 0.44721 0.0
C414 C 0.49043 0.98401 0.44624 0.0
C415 C 0.47179 0.9734 0.44542 0.0
C416 C 0.57517 0.05321 0.42943 0.0
C417 C 0.57105 0.07402 0.4267 0.0
C418 C 0.57833 0.08321 0.41425 0.0
C419 C 0.58985 0.07182 0.40428 0.0
C420 C 0.59327 0.05083 0.40678 0.0
C421 C 0.58601 0.04166 0.41927 0.0
C422 C 0.57968 0.05373 0.4551 0.0
C423 C 0.59941 0.04739 0.45912 0.0
C424 C 0.61064 0.05852 0.4692 0.0
C425 C 0.60234 0.07635 0.47547 0.0
C426 C 0.58203 0.0821 0.47201 0.0
C427 C 0.57071 0.07078 0.46194 0.0
C428 C 0.54979 0.03583 0.44493 0.0
C429 C 0.53216 0.04523 0.43916 0.0
C430 C 0.51293 0.03567 0.44018 0.0
C431 C 0.51083 0.01678 0.44728 0.0
C432 C 0.52834 0.00815 0.45379 0.0
C433 C 0.54758 0.0175 0.4525 0.0
H434 H 0.0285 0.90009 0.67844 0.0
N435 N 0.03135 0.93556 0.69223 0.0
H436 H 0.04647 0.88975 0.65671 0.0
H437 H 0.05421 0.96079 0.67524 0.0
H438 H 0.07145 0.95104 0.65302 0.0
H439 H 0.07014 0.94843 0.69938 0.0
H440 H 0.09383 0.93032 0.71521 0.0
H441 H 0.02139 0.90692 0.71086 0.0
H442 H 0.04499 0.88815 0.72622 0.0
H443 H 0.99182 0.93898 0.68611 0.0
H444 H 0.04387 0.97377 0.70141 0.0
H445 H 0.97016 0.96947 0.68771 0.0
H446 H 0.02213 0.0043 0.70365 0.0
H447 H 0.90899 0.04667 0.67635 0.0
H448 H 0.90048 0.06233 0.65333 0.0
H449 H 0.95248 0.10322 0.65791 0.0
H450 H 0.96084 0.08747 0.68084 0.0
H451 H 0.96204 0.08829 0.70586 0.0
H452 H 0.94865 0.11624 0.72071 0.0
H453 H 0.89085 0.08381 0.72478 0.0
H454 H 0.90408 0.05664 0.70918 0.0
H455 H 0.93064 0.02023 0.70358 0.0
H456 H 0.95413 0.99101 0.70476 0.0
H457 H 0.00379 0.02956 0.68984 0.0
N458 N 0.93877 0.05761 0.69433 0.0
H459 H 0.98024 0.05892 0.68945 0.0
C460 C 0.03986 0.93117 0.67836 0.0
C461 C 0.03763 0.91132 0.67278 0.0
C462 C 0.04788 0.90549 0.66032 0.0
C463 C 0.0605 0.91953 0.65306 0.0
C464 C 0.06217 0.9397 0.65845 0.0
C465 C 0.0521 0.94543 0.67106 0.0
C466 C 0.04395 0.92896 0.70399 0.0
C467 C 0.06434 0.93585 0.70569 0.0
C468 C 0.07796 0.92526 0.71461 0.0
C469 C 0.07149 0.90751 0.72183 0.0
C470 C 0.05058 0.90182 0.721 0.0
C471 C 0.037 0.91251 0.71219 0.0
C472 C 0.0193 0.95398 0.69377 0.0
C473 C 0.99847 0.9532 0.68999 0.0
C474 C 0.98611 0.97063 0.69104 0.0
C475 C 0.9943 0.98934 0.69603 0.0
C476 C 0.01533 0.99019 0.69972 0.0
C477 C 0.02777 0.97267 0.69855 0.0
C478 C 0.93551 0.0658 0.68026 0.0
C479 C 0.91868 0.05881 0.67225 0.0
C480 C 0.91386 0.06778 0.65914 0.0
C481 C 0.92577 0.08408 0.65385 0.0
C482 C 0.94288 0.09087 0.6618 0.0
C483 C 0.94777 0.08176 0.67487 0.0
C484 C 0.93374 0.0708 0.70613 0.0
C485 C 0.94664 0.08709 0.71017 0.0
C486 C 0.939 0.10295 0.7188 0.0
C487 C 0.91845 0.10251 0.72363 0.0
C488 C 0.90653 0.0849 0.7209 0.0
C489 C 0.91408 0.06928 0.71212 0.0
C490 C 0.95361 0.04154 0.69623 0.0
C491 C 0.94668 0.02236 0.70078 0.0
C492 C 0.9601 0.00568 0.7013 0.0
C493 C 0.98079 0.00778 0.69708 0.0
C494 C 0.98799 0.02736 0.69317 0.0
C495 C 0.97451 0.04416 0.69283 0.0
Co496 Co 0.32929 0.67358 0.00646 0.0
O497 O 0.31103 0.65053 0.00817 0.0
O498 O 0.30225 0.68082 -0.00061 0.0
C499 C 0.34285 0.67109 0.02862 0.0
O500 O 0.3435 0.70112 0.00352 0.0
Co501 Co 0.37671 0.66778 0.00829 0.0
O502 O 0.37769 0.6981 0.00697 0.0
C503 C 0.3536 0.65219 0.98345 0.0
C504 C 0.29689 0.66223 0.00274 0.0
C505 C 0.36172 0.70884 0.00434 0.0
O506 O 0.33804 0.6634 0.98693 0.0
O507 O 0.36944 0.65003 0.99146 0.0
O508 O 0.32536 0.6804 0.02668 0.0
O509 O 0.35058 0.66243 0.01742 0.0
Co510 Co 0.3348 0.84048 0.24592 0.0
O511 O 0.31632 0.86351 0.24692 0.0
O512 O 0.30872 0.83197 0.25389 0.0
C513 C 0.34559 0.8462 0.22339 0.0
O514 O 0.34946 0.81274 0.2461 0.0
Co515 Co 0.38192 0.84679 0.24161 0.0
O516 O 0.3826 0.81657 0.23965 0.0
C517 C 0.36301 0.85575 0.26966 0.0
C518 C 0.30291 0.85091 0.25221 0.0
C519 C 0.36733 0.80533 0.24302 0.0
O520 O 0.34585 0.8477 0.26553 0.0
O521 O 0.37844 0.85823 0.26135 0.0
O522 O 0.32832 0.83665 0.22562 0.0
O523 O 0.35468 0.85331 0.23463 0.0
Co524 Co 0.17149 0.83915 0.49681 0.0
O525 O 0.14665 0.82293 0.49669 0.0
O526 O 0.17756 0.81172 0.50304 0.0
C527 C 0.16653 0.85328 0.47515 0.0
O528 O 0.2008 0.85027 0.49774 0.0
Co529 Co 0.17129 0.88672 0.4956 0.0
O530 O 0.20152 0.88428 0.49393 0.0
C531 C 0.16161 0.86582 0.5227 0.0
C532 C 0.15814 0.80782 0.50097 0.0
C533 C 0.21059 0.86725 0.49606 0.0
O534 O 0.16574 0.8482 0.51711 0.0
O535 O 0.16189 0.88265 0.51573 0.0
O536 O 0.17436 0.835 0.47623 0.0
O537 O 0.16069 0.86176 0.48697 0.0
Co538 Co 0.16554 0.68146 0.75632 0.0
O539 O 0.1435 0.70114 0.75506 0.0
O540 O 0.17586 0.707 0.7488 0.0
C541 C 0.15738 0.67092 0.77855 0.0
O542 O 0.19275 0.66595 0.75668 0.0
Co543 Co 0.15873 0.63478 0.76104 0.0
O544 O 0.18837 0.63467 0.76611 0.0
C545 C 0.153 0.65287 0.73216 0.0
C546 C 0.15724 0.71395 0.75043 0.0
C547 C 0.19993 0.64911 0.76176 0.0
O548 O 0.15913 0.6707 0.73646 0.0
O549 O 0.15085 0.63746 0.74046 0.0
O550 O 0.16834 0.68741 0.77683 0.0
O551 O 0.15105 0.66212 0.767 0.0
Co552 Co 0.83446 0.17794 0.49499 0.0
O553 O 0.85792 0.19601 0.49461 0.0
O554 O 0.82711 0.20427 0.503 0.0
C555 C 0.83839 0.16639 0.47232 0.0
O556 O 0.80624 0.1645 0.49658 0.0
Co557 Co 0.83793 0.13083 0.49069 0.0
O558 O 0.80747 0.13107 0.49064 0.0
C559 C 0.85044 0.14977 0.51824 0.0
C560 C 0.84586 0.20985 0.50012 0.0
C561 C 0.79748 0.14709 0.49427 0.0
O562 O 0.84311 0.16731 0.51442 0.0
O563 O 0.85122 0.1342 0.50985 0.0
O564 O 0.82914 0.18374 0.47479 0.0
O565 O 0.84589 0.15736 0.48339 0.0
Co566 Co 0.82462 0.34498 0.74517 0.0
O567 O 0.80537 0.36733 0.74649 0.0
O568 O 0.79832 0.33503 0.75183 0.0
C569 C 0.83651 0.35322 0.72329 0.0
O570 O 0.83976 0.31757 0.74454 0.0
Co571 Co 0.87184 0.35159 0.74207 0.0
O572 O 0.87186 0.32234 0.73625 0.0
C573 C 0.85201 0.35599 0.77047 0.0
C574 C 0.79188 0.35381 0.75046 0.0
C575 C 0.85703 0.31065 0.73979 0.0
O576 O 0.83441 0.35038 0.76539 0.0
O577 O 0.86817 0.3583 0.76281 0.0
O578 O 0.81944 0.34299 0.72459 0.0
O579 O 0.84492 0.35928 0.73508 0.0
Co580 Co 0.66708 0.33665 0.99538 0.0
O581 O 0.64405 0.31807 0.99566 0.0
O582 O 0.6762 0.30968 0.00104 0.0
C583 C 0.65925 0.35062 0.97405 0.0
O584 O 0.69506 0.3509 0.9957 0.0
Co585 Co 0.66165 0.38392 0.99463 0.0
O586 O 0.69165 0.38451 0.99109 0.0
C587 C 0.65641 0.36171 0.02186 0.0
C588 C 0.65712 0.30401 -0.00058 0.0
C589 C 0.70278 0.36874 0.99326 0.0
O590 O 0.66162 0.34461 0.01593 0.0
O591 O 0.65464 0.37862 0.01509 0.0
O592 O 0.66928 0.33338 0.97466 0.0
O593 O 0.65324 0.35809 0.98614 0.0
Co594 Co 0.67078 0.18021 0.25475 0.0
O595 O 0.6485 0.19969 0.25446 0.0
O596 O 0.68069 0.20647 0.24822 0.0
C597 C 0.66356 0.16757 0.27658 0.0
O598 O 0.69815 0.16489 0.25432 0.0
Co599 Co 0.66355 0.13315 0.25692 0.0
O600 O 0.69373 0.13164 0.25973 0.0
C601 C 0.65805 0.15409 0.22916 0.0
C602 C 0.66199 0.21303 0.25021 0.0
C603 C 0.70531 0.1469 0.25701 0.0
O604 O 0.66429 0.17129 0.23447 0.0
O605 O 0.65563 0.13779 0.23653 0.0
O606 O 0.67394 0.18451 0.27536 0.0
O607 O 0.65672 0.15976 0.2648 0.0
C608 C 0.12255 0.90359 0.26932 0.0
C609 C 0.1207 0.92289 0.27603 0.0
C610 C 0.14196 0.89527 0.26632 0.0
C611 C 0.19679 0.90086 0.27747 0.0
H612 H 0.20731 0.86545 0.24487 0.0
C613 C 0.27811 0.87889 0.25808 0.0
C614 C 0.28191 0.85792 0.2558 0.0
C615 C 0.25819 0.88587 0.26088 0.0
C616 C 0.20448 0.87518 0.25408 0.0
H617 H 0.13818 0.94886 0.28424 0.0
H618 H 0.17161 0.93507 0.27816 0.0
H619 H 0.17306 0.88036 0.24813 0.0
H620 H 0.26791 0.82776 0.25462 0.0
H621 H 0.23277 0.84015 0.25917 0.0
H622 H 0.22847 0.89624 0.28306 0.0
C623 C 0.15812 0.92593 0.27571 0.0
C624 C 0.18487 0.8837 0.25599 0.0
C625 C 0.13878 0.93409 0.27892 0.0
C626 C 0.2654 0.84401 0.25641 0.0
C627 C 0.24534 0.85107 0.25892 0.0
C628 C 0.21642 0.89264 0.27542 0.0
C629 C 0.16003 0.90616 0.26976 0.0
C630 C 0.18079 0.89679 0.26767 0.0
C631 C 0.2416 0.87207 0.26118 0.0
C632 C 0.22047 0.87981 0.26368 0.0
H633 H 0.10901 0.89463 0.26667 0.0
H634 H 0.14273 0.87999 0.26176 0.0
H635 H 0.19417 0.91035 0.28683 0.0
H636 H 0.29056 0.88995 0.2577 0.0
H637 H 0.25567 0.90215 0.26252 0.0
C638 C 0.07435 0.64001 0.51406 0.0
C639 C 0.08734 0.62509 0.5201 0.0
C640 C 0.08204 0.6594 0.51053 0.0
C641 C 0.1241 0.69412 0.52114 0.0
H642 H 0.10762 0.72582 0.48811 0.0
C643 C 0.16259 0.7709 0.50734 0.0
C644 C 0.14971 0.78698 0.50292 0.0
C645 C 0.15482 0.75105 0.50879 0.0
C646 C 0.1122 0.7172 0.49745 0.0
H647 H 0.11889 0.61877 0.52659 0.0
H648 H 0.13227 0.65202 0.51993 0.0
H649 H 0.09453 0.69089 0.49105 0.0
H650 H 0.11857 0.7949 0.49654 0.0
H651 H 0.10493 0.76021 0.49923 0.0
H652 H 0.14167 0.7203 0.5276 0.0
C653 C 0.11606 0.64893 0.51821 0.0
C654 C 0.10473 0.69721 0.49912 0.0
C655 C 0.10839 0.62968 0.5218 0.0
C656 C 0.12888 0.78282 0.49998 0.0
C657 C 0.1211 0.76293 0.50141 0.0
C658 C 0.13156 0.71401 0.51946 0.0
C659 C 0.10288 0.66423 0.51296 0.0
C660 C 0.1107 0.68542 0.51096 0.0
C661 C 0.13399 0.74684 0.50585 0.0
C662 C 0.12577 0.72576 0.50759 0.0
H663 H 0.05812 0.63693 0.51244 0.0
H664 H 0.07148 0.67087 0.5065 0.0
H665 H 0.12862 0.68565 0.53056 0.0
H666 H 0.17874 0.77359 0.5096 0.0
H667 H 0.16521 0.73893 0.51205 0.0
C668 C 0.38573 0.62337 0.77315 0.0
C669 C 0.39083 0.60287 0.76999 0.0
C670 C 0.36625 0.63102 0.7698 0.0
C671 C 0.31855 0.62302 0.74947 0.0
H672 H 0.29166 0.64268 0.78395 0.0
C673 C 0.23514 0.65618 0.75209 0.0
C674 C 0.22245 0.64594 0.76191 0.0
C675 C 0.25636 0.65249 0.75185 0.0
C676 C 0.29904 0.63734 0.77424 0.0
H677 H 0.3802 0.57486 0.75982 0.0
H678 H 0.34605 0.58838 0.75382 0.0
H679 H 0.3283 0.63413 0.78451 0.0
H680 H 0.22202 0.62417 0.77934 0.0
H681 H 0.25921 0.61825 0.7792 0.0
H682 H 0.28906 0.62615 0.73927 0.0
C683 C 0.35716 0.59843 0.75895 0.0
C684 C 0.31998 0.63261 0.77451 0.0
C685 C 0.37661 0.59067 0.76244 0.0
C686 C 0.23141 0.63223 0.77163 0.0
C687 C 0.25265 0.62888 0.77159 0.0
C688 C 0.29762 0.62815 0.74913 0.0
C689 C 0.35157 0.6184 0.76312 0.0
C690 C 0.32986 0.62514 0.7622 0.0
C691 C 0.26525 0.63887 0.76164 0.0
C692 C 0.28766 0.63501 0.76159 0.0
H693 H 0.39624 0.6331 0.7791 0.0
H694 H 0.36232 0.64652 0.77303 0.0
H695 H 0.32587 0.61726 0.73986 0.0
H696 H 0.22863 0.66674 0.74441 0.0
H697 H 0.26585 0.66041 0.74413 0.0
C698 C 0.43368 0.8752 0.0076 0.0
C699 C 0.42519 0.88936 0.01732 0.0
C700 C 0.42196 0.85875 0.00246 0.0
C701 C 0.37798 0.82753 0.01431 0.0
H702 H 0.39036 0.79707 0.97969 0.0
C703 C 0.34824 0.74499 0.00478 0.0
C704 C 0.36446 0.73115 0.00218 0.0
C705 C 0.35151 0.76617 0.00376 0.0
C706 C 0.38662 0.80552 0.98935 0.0
H707 H 0.39702 0.89828 0.02821 0.0
H708 H 0.3764 0.87027 0.0187 0.0
H709 H 0.40291 0.83221 0.98245 0.0
H710 H 0.39646 0.72861 0.99574 0.0
H711 H 0.40204 0.76544 0.99381 0.0
H712 H 0.36204 0.80066 0.02129 0.0
C713 C 0.39235 0.87144 0.01543 0.0
C714 C 0.39388 0.82559 0.99097 0.0
C715 C 0.40414 0.88774 0.02072 0.0
C716 C 0.3837 0.73887 0.99794 0.0
C717 C 0.38685 0.75996 0.99668 0.0
C718 C 0.3705 0.80758 0.0126 0.0
C719 C 0.40136 0.8562 0.00677 0.0
C720 C 0.39033 0.83659 0.00372 0.0
C721 C 0.37093 0.77384 -0.00016 0.0
C722 C 0.37538 0.79613 0.00033 0.0
H723 H 0.44971 0.87623 0.00448 0.0
H724 H 0.42954 0.84738 0.99584 0.0
H725 H 0.37512 0.8353 0.02437 0.0
H726 H 0.33324 0.73949 0.00806 0.0
H727 H 0.33899 0.77657 0.00625 0.0
C728 C 0.11679 0.60902 0.98576 0.0
C729 C 0.11493 0.58911 0.97997 0.0
C730 C 0.13609 0.6169 0.9896 0.0
C731 C 0.19149 0.60795 0.98171 0.0
H732 H 0.20023 0.64864 0.0115 0.0
C733 C 0.27197 0.6333 0.0006 0.0
C734 C 0.27572 0.65452 0.00057 0.0
C735 C 0.25205 0.62574 -0.00136 0.0
C736 C 0.1979 0.63737 0.0031 0.0
H737 H 0.13216 0.5615 0.97461 0.0
H738 H 0.1652 0.57461 0.98225 0.0
H739 H 0.16598 0.63365 0.00817 0.0
H740 H 0.26157 0.68453 -0.0013 0.0
H741 H 0.22645 0.6712 0.99556 0.0
H742 H 0.22357 0.61128 0.97697 0.0
C743 C 0.1519 0.58454 0.98322 0.0
C744 C 0.17831 0.6288 0.00115 0.0
C745 C 0.13272 0.57682 0.97912 0.0
C746 C 0.25911 0.66809 -0.00131 0.0
C747 C 0.23906 0.66051 0.997 0.0
C748 C 0.21107 0.61624 0.98383 0.0
C749 C 0.15399 0.60494 0.98799 0.0
C750 C 0.17485 0.61392 0.99043 0.0
C751 C 0.23543 0.63926 0.99685 0.0
C752 C 0.21446 0.63099 0.99453 0.0
H753 H 0.10343 0.61883 0.98693 0.0
H754 H 0.13699 0.63267 0.99324 0.0
H755 H 0.18941 0.59705 0.97307 0.0
H756 H 0.28447 0.62247 0.00201 0.0
H757 H 0.2496 0.6093 -0.00137 0.0
C758 C 0.39476 0.61994 0.23244 0.0
C759 C 0.41606 0.61606 0.23157 0.0
C760 C 0.38746 0.63905 0.23697 0.0
C761 C 0.40336 0.68901 0.25325 0.0
H762 H 0.35987 0.71066 0.22917 0.0
C763 C 0.39099 0.7751 0.24414 0.0
C764 C 0.37077 0.78288 0.24392 0.0
C765 C 0.39457 0.75405 0.24504 0.0
C766 C 0.37176 0.70474 0.23615 0.0
H767 H 0.4463 0.6289 0.2358 0.0
H768 H 0.43363 0.66245 0.24316 0.0
H769 H 0.36983 0.6748 0.22688 0.0
H770 H 0.33843 0.77453 0.24455 0.0
H771 H 0.34477 0.73751 0.24587 0.0
H772 H 0.40585 0.71935 0.26201 0.0
C773 C 0.42251 0.65063 0.24051 0.0
C774 C 0.37747 0.68415 0.23489 0.0
C775 C 0.42982 0.63143 0.23611 0.0
C776 C 0.35418 0.76904 0.24468 0.0
C777 C 0.3578 0.74788 0.24541 0.0
C778 C 0.39775 0.70966 0.25443 0.0
C779 C 0.40124 0.65487 0.24059 0.0
C780 C 0.39363 0.67611 0.24322 0.0
C781 C 0.37805 0.7402 0.24561 0.0
C782 C 0.38219 0.71782 0.24568 0.0
H783 H 0.38363 0.60861 0.22891 0.0
H784 H 0.37098 0.64162 0.23717 0.0
H785 H 0.41559 0.68326 0.26002 0.0
H786 H 0.40416 0.78527 0.24366 0.0
H787 H 0.41034 0.74859 0.24496 0.0
C788 C 0.37961 0.92598 0.49281 0.0
C789 C 0.39195 0.91975 0.48126 0.0
C790 C 0.36378 0.91339 0.49775 0.0
C791 C 0.3296 0.87366 0.48292 0.0
H792 H 0.3031 0.88045 0.51972 0.0
C793 C 0.24492 0.84994 0.49329 0.0
C794 C 0.23327 0.86727 0.49719 0.0
C795 C 0.26647 0.85061 0.4938 0.0
C796 C 0.31048 0.87816 0.50946 0.0
H797 H 0.39863 0.89437 0.46685 0.0
H798 H 0.3718 0.87208 0.47595 0.0
H799 H 0.33899 0.89088 0.5168 0.0
H800 H 0.23489 0.89843 0.50537 0.0
H801 H 0.27238 0.89941 0.50653 0.0
H802 H 0.30086 0.86138 0.47555 0.0
C803 C 0.37381 0.88704 0.48084 0.0
C804 C 0.33096 0.88425 0.50774 0.0
C805 C 0.38946 0.89976 0.47576 0.0
C806 C 0.24348 0.88493 0.50216 0.0
C807 C 0.26491 0.88541 0.50298 0.0
C808 C 0.30926 0.86725 0.48472 0.0
C809 C 0.36009 0.89411 0.49139 0.0
C810 C 0.34045 0.88304 0.49425 0.0
C811 C 0.27661 0.8684 0.49862 0.0
C812 C 0.29926 0.87033 0.49781 0.0
H813 H 0.38143 0.94107 0.49755 0.0
H814 H 0.35359 0.91949 0.50586 0.0
H815 H 0.33619 0.87263 0.47232 0.0
H816 H 0.2374 0.83614 0.48943 0.0
H817 H 0.27523 0.83735 0.49031 0.0
C818 C 0.10566 0.88942 0.72161 0.0
C819 C 0.0867 0.89325 0.7284 0.0
C820 C 0.11807 0.87301 0.72585 0.0
C821 C 0.12335 0.83144 0.75316 0.0
H822 H 0.14321 0.80001 0.72066 0.0
C823 C 0.1338 0.74393 0.75373 0.0
C824 C 0.15215 0.73578 0.74814 0.0
C825 C 0.12934 0.76477 0.75237 0.0
C826 C 0.13804 0.80875 0.72986 0.0
H827 H 0.06705 0.88402 0.74594 0.0
H828 H 0.08807 0.85494 0.75287 0.0
H829 H 0.12983 0.83446 0.71705 0.0
H830 H 0.18014 0.74302 0.7366 0.0
H831 H 0.17195 0.77954 0.73384 0.0
H832 H 0.1305 0.805 0.76576 0.0
C833 C 0.09357 0.86467 0.74436 0.0
C834 C 0.13046 0.82859 0.72784 0.0
C835 C 0.0813 0.88126 0.74025 0.0
C836 C 0.16585 0.74888 0.74098 0.0
C837 C 0.1612 0.76973 0.73942 0.0
C838 C 0.13067 0.81148 0.75513 0.0
C839 C 0.11171 0.85985 0.73684 0.0
C840 C 0.12256 0.84004 0.73941 0.0
C841 C 0.14298 0.77787 0.74522 0.0
C842 C 0.13765 0.7998 0.74344 0.0
H843 H 0.11038 0.89822 0.71241 0.0
H844 H 0.13221 0.87012 0.72005 0.0
H845 H 0.11785 0.83992 0.76237 0.0
H846 H 0.12299 0.73426 0.75937 0.0
H847 H 0.11504 0.77061 0.75676 0.0
C848 C 0.62987 0.43565 0.76284 0.0
C849 C 0.61161 0.42565 0.76699 0.0
C850 C 0.64672 0.42453 0.75785 0.0
C851 C 0.67186 0.37606 0.76341 0.0
H852 H 0.70835 0.39575 0.73374 0.0
C853 C 0.75485 0.34427 0.75446 0.0
C854 C 0.76992 0.35936 0.75206 0.0
C855 C 0.73391 0.3495 0.7546 0.0
C856 C 0.69834 0.39007 0.74209 0.0
H857 H 0.59659 0.3959 0.76808 0.0
H858 H 0.62658 0.37639 0.75988 0.0
H859 H 0.67357 0.40965 0.73565 0.0
H860 H 0.77491 0.39179 0.74833 0.0
H861 H 0.73863 0.40091 0.7488 0.0
H862 H 0.697 0.35719 0.77029 0.0
C863 C 0.62757 0.39296 0.76053 0.0
C864 C 0.67841 0.39793 0.7431 0.0
C865 C 0.61045 0.40417 0.76529 0.0
C866 C 0.7637 0.37979 0.75015 0.0
C867 C 0.74286 0.38498 0.75026 0.0
C868 C 0.69189 0.36822 0.76243 0.0
C869 C 0.646 0.40305 0.75706 0.0
C870 C 0.66521 0.39153 0.75408 0.0
C871 C 0.7277 0.36988 0.75227 0.0
C872 C 0.70557 0.37572 0.75207 0.0
H873 H 0.6318 0.45203 0.76426 0.0
H874 H 0.66082 0.43272 0.75548 0.0
H875 H 0.66206 0.37097 0.77205 0.0
H876 H 0.75918 0.32837 0.75592 0.0
H877 H 0.72258 0.33752 0.75617 0.0
C878 C 0.61398 0.12347 0.02125 0.0
C879 C 0.59266 0.11966 0.02067 0.0
C880 C 0.62194 0.14242 0.01713 0.0
C881 C 0.60977 0.19077 -0.00178 0.0
H882 H 0.64951 0.21403 0.02474 0.0
C883 C 0.62988 0.27692 -0.00081 0.0
C884 C 0.65059 0.28247 0.00131 0.0
C885 C 0.62366 0.25652 0.00056 0.0
C886 C 0.63866 0.20767 0.01711 0.0
H887 H 0.56314 0.13246 0.01449 0.0
H888 H 0.577 0.16576 0.00756 0.0
H889 H 0.63722 0.17915 0.02821 0.0
H890 H 0.68103 0.27097 0.0065 0.0
H891 H 0.67017 0.23527 0.00885 0.0
H892 H 0.61102 0.21948 0.98725 0.0
C893 C 0.58758 0.15398 0.01112 0.0
C894 C 0.63162 0.18765 0.01908 0.0
C895 C 0.5796 0.13497 0.01522 0.0
C896 C 0.66495 0.26719 0.00487 0.0
C897 C 0.65871 0.24675 0.00625 0.0
C898 C 0.61682 0.21082 0.99625 0.0
C899 C 0.60878 0.15809 0.01239 0.0
C900 C 0.61699 0.179 0.00972 0.0
C901 C 0.63799 0.24119 0.00408 0.0
C902 C 0.63121 0.21956 0.00575 0.0
H903 H 0.62452 0.11218 0.02555 0.0
H904 H 0.63838 0.14496 0.01801 0.0
H905 H 0.5987 0.18446 0.99072 0.0
H906 H 0.61843 0.28833 0.99645 0.0
H907 H 0.60753 0.2528 -0.00096 0.0
C908 C 0.89124 0.12078 0.26957 0.0
C909 C 0.89541 0.09959 0.2695 0.0
C910 C 0.87216 0.12819 0.26501 0.0
C911 C 0.82284 0.11296 0.2472 0.0
H912 H 0.79951 0.15367 0.27287 0.0
C913 C 0.73577 0.12343 0.25566 0.0
C914 C 0.72785 0.1435 0.25643 0.0
C915 C 0.75697 0.12005 0.25498 0.0
C916 C 0.8059 0.14255 0.26546 0.0
H917 H 0.88326 0.06977 0.26346 0.0
H918 H 0.84975 0.08255 0.25607 0.0
H919 H 0.83562 0.14426 0.27518 0.0
H920 H 0.73608 0.17577 0.25704 0.0
H921 H 0.77328 0.16976 0.25611 0.0
H922 H 0.79267 0.11062 0.23798 0.0
C923 C 0.86128 0.09353 0.25949 0.0
C924 C 0.82665 0.13718 0.26673 0.0
C925 C 0.88045 0.08614 0.26392 0.0
C926 C 0.74167 0.16012 0.25647 0.0
C927 C 0.76295 0.15671 0.25596 0.0
C928 C 0.80203 0.11819 0.24603 0.0
C929 C 0.85667 0.11459 0.26039 0.0
C930 C 0.8353 0.12202 0.2578 0.0
C931 C 0.77078 0.13663 0.2552 0.0
C932 C 0.79327 0.13275 0.25533 0.0
H933 H 0.90229 0.13163 0.27387 0.0
H934 H 0.86931 0.14455 0.26556 0.0
H935 H 0.82906 0.10152 0.23996 0.0
H936 H 0.72559 0.11027 0.25553 0.0
H937 H 0.76259 0.1044 0.2546 0.0
C938 C 0.93217 0.37321 0.51169 0.0
C939 C 0.92433 0.38736 0.52169 0.0
C940 C 0.92038 0.35639 0.50729 0.0
C941 C 0.87872 0.32405 0.52122 0.0
H942 H 0.8841 0.29652 0.4846 0.0
C943 C 0.83997 0.24588 0.5087 0.0
C944 C 0.85284 0.23124 0.50217 0.0
C945 C 0.84631 0.26631 0.51001 0.0
C946 C 0.8825 0.30404 0.49489 0.0
H947 H 0.89728 0.39566 0.53406 0.0
H948 H 0.87652 0.3668 0.52597 0.0
H949 H 0.89851 0.33085 0.48785 0.0
H950 H 0.88241 0.22653 0.49191 0.0
H951 H 0.89348 0.26211 0.49425 0.0
H952 H 0.86298 0.29712 0.52831 0.0
C953 C 0.892 0.36841 0.52182 0.0
C954 C 0.89074 0.32369 0.49675 0.0
C955 C 0.90383 0.38516 0.5263 0.0
C956 C 0.87216 0.23743 0.49702 0.0
C957 C 0.87842 0.25785 0.49823 0.0
C958 C 0.87037 0.30447 0.51932 0.0
C959 C 0.90041 0.35339 0.51271 0.0
C960 C 0.88935 0.33375 0.51004 0.0
C961 C 0.86556 0.27252 0.50471 0.0
C962 C 0.87258 0.29408 0.50624 0.0
H963 H 0.94778 0.37464 0.50775 0.0
H964 H 0.92742 0.34513 0.50029 0.0
H965 H 0.87764 0.33115 0.53168 0.0
H966 H 0.82495 0.24159 0.51273 0.0
H967 H 0.83605 0.27732 0.51501 0.0
C968 C 0.63042 0.08132 0.49353 0.0
C969 C 0.6159 0.08988 0.48416 0.0
C970 C 0.64657 0.09319 0.49893 0.0
C971 C 0.67687 0.13749 0.48736 0.0
H972 H 0.70937 0.12286 0.52057 0.0
C973 C 0.76202 0.1625 0.49493 0.0
C974 C 0.77498 0.14533 0.49632 0.0
C975 C 0.74066 0.16044 0.49645 0.0
C976 C 0.70034 0.12729 0.51134 0.0
H977 H 0.60565 0.11818 0.47434 0.0
H978 H 0.63342 0.13911 0.48419 0.0
H979 H 0.6735 0.11176 0.51891 0.0
H980 H 0.77585 0.11276 0.50097 0.0
H981 H 0.73872 0.10929 0.50383 0.0
H982 H 0.70397 0.15256 0.47967 0.0
C983 C 0.63271 0.12303 0.48701 0.0
C984 C 0.67984 0.12087 0.51034 0.0
C985 C 0.61662 0.11108 0.48151 0.0
C986 C 0.76626 0.12624 0.4997 0.0
C987 C 0.74503 0.12429 0.5015 0.0
C988 C 0.69727 0.14416 0.48847 0.0
C989 C 0.64846 0.11399 0.4952 0.0
C990 C 0.66816 0.12503 0.49801 0.0
C991 C 0.73201 0.14129 0.49973 0.0
C992 C 0.70942 0.13833 0.50016 0.0
H993 H 0.63005 0.0651 0.49599 0.0
H994 H 0.65836 0.08557 0.50514 0.0
H995 H 0.66852 0.14086 0.47763 0.0
H996 H 0.76833 0.17741 0.49233 0.0
H997 H 0.73089 0.17375 0.49497 0.0
C998 C 0.9193 0.13517 0.73825 0.0
C999 C 0.90855 0.12145 0.72928 0.0
C1000 C 0.91102 0.1545 0.74146 0.0
C1001 C 0.87855 0.19237 0.72441 0.0
H1002 H 0.87927 0.22109 0.76081 0.0
C1003 C 0.87498 0.2801 0.72954 0.0
C1004 C 0.86035 0.28825 0.73904 0.0
C1005 C 0.8789 0.25906 0.72918 0.0
C1006 C 0.87885 0.21314 0.75062 0.0
H1007 H 0.88026 0.11707 0.71718 0.0
H1008 H 0.8659 0.15047 0.72294 0.0
H1009 H 0.88953 0.1848 0.75963 0.0
H1010 H 0.83839 0.2808 0.75567 0.0
H1011 H 0.84565 0.24385 0.75522 0.0
H1012 H 0.86851 0.22072 0.71529 0.0
C1013 C 0.88072 0.14632 0.72743 0.0
C1014 C 0.88482 0.1925 0.74994 0.0
C1015 C 0.8889 0.12706 0.72427 0.0
C1016 C 0.84966 0.27491 0.74817 0.0
C1017 C 0.85389 0.25385 0.748 0.0
C1018 C 0.87291 0.21298 0.72505 0.0
C1019 C 0.89196 0.16047 0.73565 0.0
C1020 C 0.88478 0.18198 0.7368 0.0
C1021 C 0.86854 0.24579 0.73848 0.0
C1022 C 0.87316 0.22359 0.73813 0.0
H1023 H 0.93438 0.13125 0.74238 0.0
H1024 H 0.92002 0.16518 0.74781 0.0
H1025 H 0.8786 0.18471 0.71411 0.0
H1026 H 0.88342 0.28999 0.72235 0.0
H1027 H 0.89034 0.25319 0.7218 0.0
C1028 C 0.88893 0.3915 0.97913 0.0
C1029 C 0.89315 0.41267 0.97933 0.0
C1030 C 0.86993 0.38408 0.98382 0.0
C1031 C 0.8213 0.3992 0.00241 0.0
H1032 H 0.79663 0.35962 0.97642 0.0
C1033 C 0.734 0.39116 0.99456 0.0
C1034 C 0.72545 0.37137 0.99358 0.0
C1035 C 0.7553 0.39387 0.99509 0.0
C1036 C 0.8034 0.37041 0.98392 0.0
H1037 H 0.88124 0.44245 0.98567 0.0
H1038 H 0.84791 0.42966 0.99335 0.0
H1039 H 0.83286 0.36851 0.97388 0.0
H1040 H 0.73266 0.33889 0.99238 0.0
H1041 H 0.77007 0.34374 0.99302 0.0
H1042 H 0.79143 0.40176 0.01197 0.0
C1043 C 0.85931 0.4187 0.98971 0.0
C1044 C 0.82421 0.37548 0.98251 0.0
C1045 C 0.87837 0.42609 0.98513 0.0
C1046 C 0.73875 0.35434 0.99313 0.0
C1047 C 0.76014 0.35709 0.99348 0.0
C1048 C 0.80045 0.39425 0.00373 0.0
C1049 C 0.85462 0.39766 0.98872 0.0
C1050 C 0.83331 0.39029 0.99153 0.0
C1051 C 0.7686 0.3769 0.99449 0.0
C1052 C 0.79119 0.38016 0.99429 0.0
H1053 H 0.89986 0.38069 0.97465 0.0
H1054 H 0.86699 0.36775 0.98316 0.0
H1055 H 0.82789 0.41035 0.00972 0.0
H1056 H 0.72424 0.40463 0.995 0.0
H1057 H 0.76138 0.40933 0.99566 0.0
C1058 C 0.58024 0.37745 0.24139 0.0
C1059 C 0.58528 0.38972 0.2296 0.0
C1060 C 0.59321 0.36147 0.24562 0.0
C1061 C 0.63198 0.32728 0.22927 0.0
H1062 H 0.63225 0.3031 0.26701 0.0
C1063 C 0.66983 0.2486 0.24166 0.0
C1064 C 0.65648 0.23488 0.24855 0.0
C1065 C 0.66461 0.26936 0.24045 0.0
C1066 C 0.63237 0.30975 0.25643 0.0
H1067 H 0.60908 0.39591 0.2139 0.0
H1068 H 0.6321 0.36893 0.22177 0.0
H1069 H 0.61822 0.33753 0.26374 0.0
H1070 H 0.62741 0.23216 0.25978 0.0
H1071 H 0.61845 0.26836 0.25779 0.0
H1072 H 0.64599 0.29936 0.222 0.0
C1073 C 0.6177 0.3711 0.22741 0.0
C1074 C 0.62427 0.32943 0.25453 0.0
C1075 C 0.60459 0.38688 0.22305 0.0
C1076 C 0.63796 0.24233 0.25433 0.0
C1077 C 0.63291 0.26309 0.25333 0.0
C1078 C 0.64033 0.30774 0.23122 0.0
C1079 C 0.61173 0.35756 0.23828 0.0
C1080 C 0.62338 0.33821 0.24084 0.0
C1081 C 0.64614 0.2768 0.24635 0.0
C1082 C 0.64004 0.29856 0.24473 0.0
H1083 H 0.56573 0.37949 0.24692 0.0
H1084 H 0.588 0.35143 0.25404 0.0
H1085 H 0.6313 0.33328 0.21852 0.0
H1086 H 0.68423 0.24329 0.23713 0.0
H1087 H 0.67505 0.27965 0.23501 0.0
C1088 C 0.0908 0.90785 0.36329 0.0
C1089 C 0.08825 0.92902 0.36113 0.0
C1090 C 0.10162 0.90068 0.37517 0.0
C1091 C 0.11548 0.91398 0.41162 0.0
H1092 H 0.15808 0.87266 0.40734 0.0
C1093 C 0.15895 0.88435 0.46069 0.0
C1094 C 0.16265 0.86317 0.46128 0.0
C1095 C 0.15273 0.89348 0.44793 0.0
C1096 C 0.14609 0.88403 0.40876 0.0
H1097 H 0.09477 0.95927 0.36971 0.0
H1098 H 0.11331 0.94666 0.39074 0.0
H1099 H 0.14085 0.88626 0.38619 0.0
H1100 H 0.16358 0.83497 0.44894 0.0
H1101 H 0.15196 0.85068 0.42676 0.0
H1102 H 0.11987 0.91128 0.43412 0.0
C1103 C 0.10708 0.93569 0.38316 0.0
C1104 C 0.13629 0.89186 0.39663 0.0
C1105 C 0.09654 0.94288 0.37114 0.0
C1106 C 0.16088 0.85137 0.44875 0.0
C1107 C 0.1543 0.86044 0.43602 0.0
C1108 C 0.12503 0.90597 0.42375 0.0
C1109 C 0.10982 0.91452 0.38522 0.0
C1110 C 0.12083 0.90682 0.39797 0.0
C1111 C 0.14966 0.88154 0.43554 0.0
C1112 C 0.1404 0.89081 0.4225 0.0
H1113 H 0.08476 0.89686 0.35564 0.0
H1114 H 0.10337 0.88428 0.37658 0.0
H1115 H 0.10342 0.92533 0.41295 0.0
H1116 H 0.16047 0.89385 0.47016 0.0
H1117 H 0.14991 0.90985 0.44789 0.0
C1118 C 0.10097 0.57985 0.61904 0.0
C1119 C 0.09079 0.59173 0.60874 0.0
C1120 C 0.10734 0.58864 0.63194 0.0
C1121 C 0.12058 0.63737 0.6496 0.0
H1122 H 0.11039 0.60609 0.68397 0.0
C1123 C 0.14001 0.6647 0.70813 0.0
C1124 C 0.14822 0.64927 0.7169 0.0
C1125 C 0.13298 0.65985 0.6943 0.0
C1126 C 0.11349 0.61497 0.67447 0.0
H1127 H 0.07977 0.62229 0.60373 0.0
H1128 H 0.09089 0.63766 0.6264 0.0
H1129 H 0.0978 0.59332 0.66113 0.0
H1130 H 0.15719 0.61722 0.7177 0.0
H1131 H 0.14542 0.60897 0.69378 0.0
H1132 H 0.13661 0.65891 0.66309 0.0
C1133 C 0.0939 0.62154 0.62444 0.0
C1134 C 0.10627 0.60764 0.66139 0.0
C1135 C 0.08737 0.61269 0.61155 0.0
C1136 C 0.1505 0.62935 0.71132 0.0
C1137 C 0.14367 0.62459 0.69762 0.0
C1138 C 0.12791 0.64473 0.66278 0.0
C1139 C 0.10378 0.60954 0.63482 0.0
C1140 C 0.11012 0.61848 0.64877 0.0
C1141 C 0.13419 0.63955 0.68913 0.0
C1142 C 0.12485 0.6333 0.67528 0.0
H1143 H 0.10373 0.56366 0.61722 0.0
H1144 H 0.11515 0.57906 0.63966 0.0
H1145 H 0.12376 0.64606 0.64003 0.0
H1146 H 0.13814 0.6802 0.71216 0.0
H1147 H 0.12584 0.67171 0.68793 0.0
C1148 C 0.39626 0.58649 0.86371 0.0
C1149 C 0.41581 0.59456 0.86052 0.0
C1150 C 0.38674 0.59104 0.87677 0.0
C1151 C 0.39938 0.60708 0.91343 0.0
H1152 H 0.34212 0.62373 0.91619 0.0
C1153 C 0.36477 0.62323 0.96795 0.0
C1154 C 0.35417 0.6419 0.96937 0.0
C1155 C 0.36871 0.61493 0.95449 0.0
C1156 C 0.35812 0.61909 0.91557 0.0
H1157 H 0.44076 0.61352 0.86855 0.0
H1158 H 0.42419 0.62151 0.8912 0.0
H1159 H 0.35671 0.61461 0.89283 0.0
H1160 H 0.33806 0.66583 0.95791 0.0
H1161 H 0.3455 0.65157 0.93417 0.0
H1162 H 0.4012 0.61206 0.93591 0.0
C1163 C 0.41621 0.61163 0.88367 0.0
C1164 C 0.36642 0.61372 0.90223 0.0
C1165 C 0.42563 0.60721 0.87064 0.0
C1166 C 0.34629 0.65142 0.95708 0.0
C1167 C 0.35052 0.64321 0.94351 0.0
C1168 C 0.39113 0.61234 0.92668 0.0
C1169 C 0.39672 0.60355 0.88692 0.0
C1170 C 0.38724 0.60795 0.90103 0.0
C1171 C 0.36248 0.62528 0.94209 0.0
C1172 C 0.37046 0.61856 0.92793 0.0
H1173 H 0.38824 0.57685 0.85605 0.0
H1174 H 0.37176 0.58452 0.87902 0.0
H1175 H 0.41539 0.60246 0.91289 0.0
H1176 H 0.37067 0.61538 0.97727 0.0
H1177 H 0.37742 0.60078 0.95379 0.0
C1178 C 0.40837 0.90799 0.10789 0.0
C1179 C 0.42976 0.91118 0.10856 0.0
C1180 C 0.39797 0.8989 0.11931 0.0
C1181 C 0.40763 0.867 0.15139 0.0
H1182 H 0.35412 0.88688 0.16358 0.0
C1183 C 0.37512 0.85457 0.20755 0.0
C1184 C 0.35427 0.84929 0.20901 0.0
C1185 C 0.38323 0.85922 0.19418 0.0
C1186 C 0.3689 0.88094 0.16014 0.0
H1187 H 0.45691 0.90813 0.12187 0.0
H1188 H 0.43881 0.89274 0.14189 0.0
H1189 H 0.37043 0.90169 0.14252 0.0
H1190 H 0.3256 0.84426 0.19762 0.0
H1191 H 0.33979 0.85289 0.1741 0.0
H1192 H 0.4064 0.84684 0.16936 0.0
C1193 C 0.43008 0.89665 0.13242 0.0
C1194 C 0.37827 0.88943 0.14809 0.0
C1195 C 0.44046 0.90559 0.12099 0.0
C1196 C 0.34175 0.84825 0.19677 0.0
C1197 C 0.34981 0.85327 0.18336 0.0
C1198 C 0.39835 0.85867 0.16348 0.0
C1199 C 0.40876 0.89292 0.13166 0.0
C1200 C 0.39796 0.88285 0.14375 0.0
C1201 C 0.3706 0.85897 0.18199 0.0
C1202 C 0.37909 0.86584 0.16814 0.0
H1203 H 0.39976 0.91192 0.09837 0.0
H1204 H 0.38159 0.8961 0.11831 0.0
H1205 H 0.42253 0.86117 0.14814 0.0
H1206 H 0.38515 0.85544 0.21679 0.0
H1207 H 0.39925 0.86374 0.19346 0.0
C1208 C 0.08118 0.58351 0.87857 0.0
C1209 C 0.09047 0.58392 0.89211 0.0
C1210 C 0.09046 0.59335 0.86705 0.0
C1211 C 0.13912 0.61665 0.85409 0.0
H1212 H 0.10138 0.64521 0.82892 0.0
C1213 C 0.16178 0.66898 0.8053 0.0
C1214 C 0.1522 0.66225 0.79263 0.0
C1215 C 0.15608 0.66053 0.81849 0.0
C1216 C 0.1121 0.63738 0.83591 0.0
H1217 H 0.11708 0.59436 0.90414 0.0
H1218 H 0.13321 0.61184 0.88402 0.0
H1219 H 0.08806 0.62763 0.84981 0.0
H1220 H 0.12935 0.64139 0.7838 0.0
H1221 H 0.11927 0.62715 0.80664 0.0
H1222 H 0.16316 0.62665 0.83996 0.0
C1223 C 0.11888 0.6037 0.88225 0.0
C1224 C 0.10448 0.62713 0.8478 0.0
C1225 C 0.10965 0.59368 0.89378 0.0
C1226 C 0.13702 0.64694 0.79336 0.0
C1227 C 0.13117 0.63881 0.80643 0.0
C1228 C 0.14679 0.62713 0.8422 0.0
C1229 C 0.10913 0.60405 0.86883 0.0
C1230 C 0.11778 0.61615 0.85683 0.0
C1231 C 0.1405 0.64559 0.81912 0.0
C1232 C 0.13323 0.63713 0.83283 0.0
H1233 H 0.06655 0.57583 0.87694 0.0
H1234 H 0.08282 0.59279 0.85676 0.0
H1235 H 0.14979 0.60834 0.86083 0.0
H1236 H 0.17358 0.68072 0.80502 0.0
H1237 H 0.16347 0.66596 0.82818 0.0
C1238 C 0.42009 0.59121 0.13101 0.0
C1239 C 0.40912 0.5914 0.14394 0.0
C1240 C 0.41377 0.60346 0.11959 0.0
C1241 C 0.36794 0.62947 0.10521 0.0
H1242 H 0.40758 0.6562 0.08058 0.0
C1243 C 0.34162 0.67373 0.05535 0.0
C1244 C 0.35231 0.66835 0.04284 0.0
C1245 C 0.34948 0.66832 0.06875 0.0
C1246 C 0.39632 0.6488 0.08735 0.0
H1247 H 0.38333 0.60518 0.15517 0.0
H1248 H 0.37226 0.62642 0.13524 0.0
H1249 H 0.41948 0.6384 0.10195 0.0
H1250 H 0.38018 0.65433 0.03457 0.0
H1251 H 0.39376 0.64482 0.0578 0.0
H1252 H 0.34485 0.63934 0.09045 0.0
C1253 C 0.38555 0.61656 0.13384 0.0
C1254 C 0.40315 0.63857 0.09957 0.0
C1255 C 0.39186 0.60432 0.14525 0.0
C1256 C 0.37152 0.65859 0.04401 0.0
C1257 C 0.37939 0.65326 0.05736 0.0
C1258 C 0.36113 0.63968 0.093 0.0
C1259 C 0.39635 0.61619 0.12085 0.0
C1260 C 0.38906 0.62846 0.10849 0.0
C1261 C 0.36821 0.65755 0.06987 0.0
C1262 C 0.37527 0.64913 0.08377 0.0
H1263 H 0.43335 0.5813 0.12962 0.0
H1264 H 0.42226 0.60258 0.10965 0.0
H1265 H 0.3567 0.62166 0.11176 0.0
H1266 H 0.32682 0.68136 0.05476 0.0
H1267 H 0.34065 0.67211 0.07821 0.0
C1268 C 0.42008 0.9337 0.37924 0.0
C1269 C 0.4063 0.94004 0.38995 0.0
C1270 C 0.41298 0.9231 0.36722 0.0
C1271 C 0.36744 0.91276 0.34508 0.0
H1272 H 0.40006 0.86627 0.33237 0.0
C1273 C 0.34834 0.86536 0.29374 0.0
C1274 C 0.36543 0.86254 0.28471 0.0
C1275 C 0.35104 0.87283 0.3077 0.0
C1276 C 0.39079 0.87922 0.33578 0.0
H1277 H 0.37416 0.94059 0.39626 0.0
H1278 H 0.36171 0.92221 0.37507 0.0
H1279 H 0.40916 0.88396 0.35448 0.0
H1280 H 0.39878 0.86482 0.28345 0.0
H1281 H 0.40338 0.87772 0.30752 0.0
H1282 H 0.34941 0.90828 0.32609 0.0
C1283 C 0.37801 0.9255 0.37604 0.0
C1284 C 0.39603 0.88938 0.34842 0.0
C1285 C 0.38514 0.93609 0.38813 0.0
C1286 C 0.38523 0.86687 0.29004 0.0
C1287 C 0.38791 0.87412 0.30393 0.0
C1288 C 0.3622 0.90258 0.33237 0.0
C1289 C 0.39193 0.91861 0.36558 0.0
C1290 C 0.38479 0.90661 0.353 0.0
C1291 C 0.3709 0.87731 0.3129 0.0
C1292 C 0.37421 0.88608 0.32739 0.0
H1293 H 0.43641 0.93686 0.38018 0.0
H1294 H 0.42402 0.91841 0.35917 0.0
H1295 H 0.3585 0.92601 0.34836 0.0
H1296 H 0.33288 0.86218 0.28994 0.0
H1297 H 0.33765 0.87508 0.31441 0.0
C1298 C 0.09247 0.92036 0.63787 0.0
C1299 C 0.07244 0.91284 0.64027 0.0
C1300 C 0.10385 0.91377 0.62606 0.0
C1301 C 0.10986 0.87185 0.60035 0.0
H1302 H 0.13228 0.91351 0.57545 0.0
C1303 C 0.14086 0.85397 0.54355 0.0
C1304 C 0.15579 0.86713 0.53786 0.0
C1305 C 0.13268 0.85782 0.55715 0.0
C1306 C 0.1266 0.90159 0.58241 0.0
H1307 H 0.04873 0.89253 0.63188 0.0
H1308 H 0.06893 0.88063 0.6115 0.0
H1309 H 0.11421 0.92372 0.59703 0.0
H1310 H 0.17529 0.89337 0.54217 0.0
H1311 H 0.1621 0.89936 0.56614 0.0
H1312 H 0.12252 0.84965 0.58589 0.0
C1313 C 0.07573 0.89159 0.61886 0.0
C1314 C 0.1161 0.90751 0.59474 0.0
C1315 C 0.0642 0.89842 0.63056 0.0
C1316 C 0.16355 0.88319 0.5463 0.0
C1317 C 0.1558 0.88673 0.55998 0.0
C1318 C 0.12071 0.86587 0.58811 0.0
C1319 C 0.09561 0.89927 0.61648 0.0
C1320 C 0.10747 0.89274 0.60376 0.0
C1321 C 0.13963 0.87466 0.56536 0.0
C1322 C 0.1291 0.88068 0.5789 0.0
H1323 H 0.09954 0.93111 0.64525 0.0
H1324 H 0.11922 0.91981 0.62449 0.0
H1325 H 0.10346 0.86016 0.60723 0.0
H1326 H 0.13459 0.84153 0.53716 0.0
H1327 H 0.12019 0.84823 0.56085 0.0
C1328 C 0.58956 0.42053 0.86292 0.0
C1329 C 0.59769 0.43975 0.85909 0.0
C1330 C 0.59704 0.41014 0.87486 0.0
C1331 C 0.64176 0.40533 0.89851 0.0
H1332 H 0.60227 0.38503 0.92609 0.0
C1333 C 0.66241 0.35395 0.94742 0.0
C1334 C 0.65403 0.36075 0.96045 0.0
C1335 C 0.6565 0.36317 0.93457 0.0
C1336 C 0.61346 0.39059 0.91846 0.0
H1337 H 0.62007 0.46308 0.86499 0.0
H1338 H 0.63339 0.44464 0.88567 0.0
H1339 H 0.59003 0.40187 0.90442 0.0
H1340 H 0.63315 0.38266 0.97027 0.0
H1341 H 0.62266 0.39844 0.94789 0.0
H1342 H 0.6652 0.39401 0.91264 0.0
C1343 C 0.62127 0.43767 0.87932 0.0
C1344 C 0.60646 0.4001 0.90604 0.0
C1345 C 0.61363 0.44819 0.86747 0.0
C1346 C 0.63987 0.37705 0.96041 0.0
C1347 C 0.63377 0.38603 0.9476 0.0
C1348 C 0.64877 0.39552 0.91087 0.0
C1349 C 0.61298 0.41859 0.88316 0.0
C1350 C 0.62053 0.40777 0.89602 0.0
C1351 C 0.64188 0.37909 0.93455 0.0
C1352 C 0.63466 0.38832 0.92103 0.0
H1353 H 0.57762 0.4133 0.85656 0.0
H1354 H 0.59052 0.39534 0.87751 0.0
H1355 H 0.65292 0.41097 0.89089 0.0
H1356 H 0.67338 0.34142 0.94715 0.0
H1357 H 0.66293 0.35754 0.92462 0.0
C1358 C 0.61319 0.08227 0.11693 0.0
C1359 C 0.59849 0.09105 0.10779 0.0
C1360 C 0.62094 0.09332 0.12857 0.0
C1361 C 0.60928 0.1361 0.15298 0.0
H1362 H 0.66691 0.1296 0.16301 0.0
C1363 C 0.64509 0.16816 0.20577 0.0
C1364 C 0.65423 0.15226 0.21365 0.0
C1365 C 0.63985 0.16502 0.19136 0.0
C1366 C 0.65082 0.13172 0.16027 0.0
H1367 H 0.58043 0.11843 0.10372 0.0
H1368 H 0.59386 0.13769 0.12419 0.0
H1369 H 0.65412 0.11545 0.14051 0.0
H1370 H 0.6661 0.12119 0.21255 0.0
H1371 H 0.65743 0.11594 0.18756 0.0
H1372 H 0.60596 0.15184 0.17305 0.0
C1373 C 0.59928 0.12218 0.12236 0.0
C1374 C 0.64346 0.1235 0.14745 0.0
C1375 C 0.59154 0.11111 0.11067 0.0
C1376 C 0.6589 0.13365 0.20676 0.0
C1377 C 0.65409 0.1307 0.19241 0.0
C1378 C 0.61669 0.14441 0.16583 0.0
C1379 C 0.61419 0.11345 0.13138 0.0
C1380 C 0.62246 0.12491 0.14391 0.0
C1381 C 0.64421 0.14617 0.18461 0.0
C1382 C 0.63737 0.14161 0.16982 0.0
H1383 H 0.61861 0.06674 0.11517 0.0
H1384 H 0.63204 0.08595 0.13551 0.0
H1385 H 0.59301 0.13743 0.15057 0.0
H1386 H 0.64131 0.18263 0.21087 0.0
H1387 H 0.63222 0.17718 0.18555 0.0
C1388 C 0.91868 0.09092 0.36862 0.0
C1389 C 0.91966 0.10243 0.35599 0.0
C1390 C 0.90657 0.09757 0.3801 0.0
C1391 C 0.8832 0.14416 0.39555 0.0
H1392 H 0.85282 0.10522 0.41852 0.0
C1393 C 0.83797 0.16998 0.44562 0.0
C1394 C 0.84189 0.15811 0.4578 0.0
C1395 C 0.84388 0.16288 0.43207 0.0
C1396 C 0.86125 0.11628 0.41223 0.0
H1397 H 0.90819 0.12966 0.34538 0.0
H1398 H 0.88719 0.14129 0.36541 0.0
H1399 H 0.87062 0.09343 0.39705 0.0
H1400 H 0.85404 0.12908 0.46529 0.0
H1401 H 0.86435 0.11681 0.44185 0.0
H1402 H 0.87429 0.16692 0.4109 0.0
C1403 C 0.89602 0.12729 0.36653 0.0
C1404 C 0.8715 0.10952 0.39995 0.0
C1405 C 0.90811 0.12064 0.35506 0.0
C1406 C 0.85086 0.13863 0.45612 0.0
C1407 C 0.85666 0.13152 0.44263 0.0
C1408 C 0.87298 0.15093 0.40784 0.0
C1409 C 0.89516 0.11587 0.3792 0.0
C1410 C 0.88291 0.12331 0.39162 0.0
C1411 C 0.85367 0.14372 0.43048 0.0
C1412 C 0.86222 0.137 0.41648 0.0
H1413 H 0.92755 0.07694 0.36975 0.0
H1414 H 0.90652 0.08858 0.38979 0.0
H1415 H 0.89201 0.15516 0.38945 0.0
H1416 H 0.83103 0.18504 0.44659 0.0
H1417 H 0.84113 0.17254 0.42289 0.0
C1418 C 0.93843 0.41231 0.62339 0.0
C1419 C 0.92845 0.41711 0.61052 0.0
C1420 C 0.92736 0.40419 0.63481 0.0
C1421 C 0.87453 0.39747 0.6491 0.0
H1422 H 0.90148 0.35608 0.67217 0.0
C1423 C 0.83477 0.35605 0.69659 0.0
C1424 C 0.84616 0.35738 0.70935 0.0
C1425 C 0.8438 0.36146 0.68357 0.0
C1426 C 0.89376 0.36759 0.6658 0.0
H1427 H 0.89905 0.41737 0.59952 0.0
H1428 H 0.87969 0.40289 0.61941 0.0
H1429 H 0.91904 0.36977 0.6513 0.0
H1430 H 0.87604 0.36474 0.71843 0.0
H1431 H 0.89184 0.3737 0.69576 0.0
H1432 H 0.84921 0.39511 0.66371 0.0
C1433 C 0.89601 0.40572 0.62079 0.0
C1434 C 0.90386 0.37557 0.65391 0.0
C1435 C 0.90708 0.41403 0.60939 0.0
C1436 C 0.86685 0.36359 0.70879 0.0
C1437 C 0.87594 0.36863 0.6958 0.0
C1438 C 0.86433 0.38931 0.66094 0.0
C1439 C 0.90607 0.40046 0.63358 0.0
C1440 C 0.89458 0.39096 0.6456 0.0
C1441 C 0.86447 0.36787 0.68309 0.0
C1442 C 0.87406 0.37462 0.66957 0.0
H1443 H 0.95485 0.41477 0.6246 0.0
H1444 H 0.93553 0.40083 0.64461 0.0
H1445 H 0.86696 0.40938 0.64302 0.0
H1446 H 0.81876 0.35134 0.69673 0.0
H1447 H 0.83466 0.36069 0.67388 0.0
C1448 C 0.60846 0.1013 0.39301 0.0
C1449 C 0.59897 0.082 0.39162 0.0
C1450 C 0.6175 0.11074 0.38121 0.0
C1451 C 0.63778 0.09955 0.34505 0.0
H1452 H 0.62969 0.15783 0.33903 0.0
C1453 C 0.65048 0.13812 0.29079 0.0
C1454 C 0.65964 0.15763 0.29045 0.0
C1455 C 0.64554 0.12898 0.30377 0.0
C1456 C 0.63237 0.14161 0.34068 0.0
H1457 H 0.59125 0.0576 0.37672 0.0
H1458 H 0.60683 0.07415 0.35608 0.0
H1459 H 0.61572 0.14174 0.3604 0.0
H1460 H 0.6712 0.18274 0.30346 0.0
H1461 H 0.66239 0.16673 0.32628 0.0
H1462 H 0.65402 0.09936 0.32517 0.0
C1463 C 0.60765 0.08183 0.36635 0.0
C1464 C 0.62435 0.13237 0.35292 0.0
C1465 C 0.59866 0.07236 0.37817 0.0
C1466 C 0.66413 0.16769 0.3034 0.0
C1467 C 0.65901 0.15858 0.31644 0.0
C1468 C 0.64573 0.10877 0.33281 0.0
C1469 C 0.61723 0.10111 0.36774 0.0
C1470 C 0.6267 0.11117 0.35514 0.0
C1471 C 0.64951 0.13918 0.31673 0.0
C1472 C 0.64285 0.12984 0.33039 0.0
H1473 H 0.60927 0.10896 0.40329 0.0
H1474 H 0.62499 0.12544 0.3827 0.0
H1475 H 0.64027 0.08328 0.34659 0.0
H1476 H 0.64682 0.12997 0.28099 0.0
H1477 H 0.638 0.11415 0.30362 0.0
C1478 C 0.91473 0.08188 0.62825 0.0
C1479 C 0.92021 0.09397 0.64012 0.0
C1480 C 0.90909 0.09105 0.61539 0.0
C1481 C 0.88772 0.13781 0.59987 0.0
H1482 H 0.90814 0.11373 0.56467 0.0
C1483 C 0.86313 0.16346 0.54207 0.0
C1484 C 0.85842 0.14684 0.53296 0.0
C1485 C 0.87197 0.15999 0.55557 0.0
C1486 C 0.90229 0.12064 0.57441 0.0
H1487 H 0.92393 0.12518 0.64786 0.0
H1488 H 0.91396 0.14126 0.62524 0.0
H1489 H 0.92168 0.10198 0.58747 0.0
H1490 H 0.85823 0.11355 0.5313 0.0
H1491 H 0.87331 0.10768 0.55452 0.0
H1492 H 0.86781 0.15604 0.58666 0.0
C1493 C 0.91409 0.12468 0.62596 0.0
C1494 C 0.91004 0.1139 0.58745 0.0
C1495 C 0.91995 0.11548 0.63883 0.0
C1496 C 0.86202 0.12679 0.53784 0.0
C1497 C 0.87077 0.12338 0.55118 0.0
C1498 C 0.87987 0.14456 0.58673 0.0
C1499 C 0.90869 0.11253 0.61409 0.0
C1500 C 0.90239 0.12191 0.60034 0.0
C1501 C 0.87626 0.13987 0.56009 0.0
C1502 C 0.88662 0.13551 0.5739 0.0
H1503 H 0.9149 0.06529 0.62888 0.0
H1504 H 0.90475 0.08127 0.60648 0.0
H1505 H 0.88156 0.14427 0.60966 0.0
H1506 H 0.86047 0.17909 0.53865 0.0
H1507 H 0.87597 0.17299 0.56228 0.0
C1508 C 0.92806 0.39844 0.88195 0.0
C1509 C 0.91973 0.413 0.89143 0.0
C1510 C 0.91666 0.3914 0.87027 0.0
C1511 C 0.87359 0.40426 0.8464 0.0
H1512 H 0.8783 0.34668 0.83621 0.0
C1513 C 0.83895 0.36914 0.79413 0.0
C1514 C 0.85439 0.35956 0.78597 0.0
C1515 C 0.8427 0.37439 0.80847 0.0
C1516 C 0.8767 0.36276 0.83899 0.0
H1517 H 0.89288 0.43176 0.89595 0.0
H1518 H 0.87297 0.41954 0.87538 0.0
H1519 H 0.89333 0.35906 0.85853 0.0
H1520 H 0.8853 0.34696 0.78651 0.0
H1521 H 0.8916 0.35561 0.81141 0.0
H1522 H 0.85744 0.40793 0.82655 0.0
C1523 C 0.88839 0.41364 0.87702 0.0
C1524 C 0.88541 0.36989 0.85171 0.0
C1525 C 0.89983 0.42069 0.88876 0.0
C1526 C 0.87316 0.35445 0.79252 0.0
C1527 C 0.87672 0.35928 0.80681 0.0
C1528 C 0.86478 0.39708 0.83365 0.0
C1529 C 0.8966 0.39872 0.86774 0.0
C1530 C 0.88464 0.39084 0.85531 0.0
C1531 C 0.86172 0.36961 0.81488 0.0
C1532 C 0.86692 0.37639 0.82959 0.0
H1533 H 0.94349 0.39251 0.88353 0.0
H1534 H 0.92366 0.3803 0.86312 0.0
H1535 H 0.87274 0.42049 0.84887 0.0
H1536 H 0.82437 0.37329 0.78929 0.0
H1537 H 0.83088 0.38236 0.81449 0.0
C1538 C 0.56394 0.39068 0.13157 0.0
C1539 C 0.57181 0.40546 0.14116 0.0
C1540 C 0.57557 0.38406 0.11987 0.0
C1541 C 0.61521 0.40105 0.09552 0.0
H1542 H 0.62194 0.3434 0.08611 0.0
C1543 C 0.66014 0.37819 0.04564 0.0
C1544 C 0.6519 0.36231 0.03724 0.0
C1545 C 0.65336 0.38126 0.05961 0.0
C1546 C 0.62006 0.35956 0.08849 0.0
H1547 H 0.59838 0.42457 0.14596 0.0
H1548 H 0.61828 0.41355 0.1252 0.0
H1549 H 0.60357 0.35337 0.10786 0.0
H1550 H 0.6309 0.33656 0.03689 0.0
H1551 H 0.61816 0.34244 0.06114 0.0
H1552 H 0.63059 0.40752 0.07598 0.0
C1553 C 0.6031 0.40708 0.12686 0.0
C1554 C 0.60961 0.36524 0.10097 0.0
C1555 C 0.5916 0.4135 0.13867 0.0
C1556 C 0.63753 0.34884 0.04325 0.0
C1557 C 0.63031 0.35223 0.05716 0.0
C1558 C 0.62534 0.39543 0.08296 0.0
C1559 C 0.5952 0.39227 0.11737 0.0
C1560 C 0.60703 0.38605 0.10455 0.0
C1561 C 0.63766 0.36892 0.06535 0.0
C1562 C 0.62788 0.3746 0.07923 0.0
H1563 H 0.54864 0.38439 0.13296 0.0
H1564 H 0.569 0.37285 0.11259 0.0
H1565 H 0.61318 0.41721 0.09792 0.0
H1566 H 0.67145 0.38862 0.04123 0.0
H1567 H 0.65996 0.3938 0.06572 0.0
loop_
_geom_bond_atom_site_label_1
_geom_bond_atom_site_label_2
_geom_bond_distance
_geom_bond_site_symmetry_2
_ccdc_geom_bond_type
H0 C27 0.929 . S
N1 C26 1.433 . S
N1 C32 1.435 . S
N1 C38 1.423 . S
H2 C28 0.930 . S
H3 C31 0.931 . S
H4 C30 0.929 . S
H5 C33 0.930 . S
H6 C34 0.932 . S
H7 C37 0.929 . S
H8 C36 0.931 . S
H9 C39 0.925 1_545 S
H10 C43 0.932 . S
H11 C40 0.931 . S
H12 C42 0.929 . S
H13 C45 0.929 . S
H14 C46 0.930 . S
H15 C48 0.929 . S
H16 C49 0.931 . S
H17 C51 0.930 . S
H18 C52 0.932 . S
H19 C54 0.931 . S
H20 C55 0.929 . S
H21 C57 0.929 . S
H22 C58 0.931 . S
H23 C60 0.929 . S
N24 C44 1.433 . S
N24 C50 1.435 . S
N24 C56 1.423 . S
H25 C61 0.932 . S
C26 N1 1.433 . S
C26 C27 1.363 . S
C26 C31 1.370 . S
C27 H0 0.929 . S
C27 C26 1.363 . S
C27 C28 1.385 . S
C28 H2 0.930 . S
C28 C27 1.385 . S
C28 C29 1.357 . S
C29 C28 1.357 . S
C29 C30 1.406 . S
C30 H4 0.929 . S
C30 C29 1.406 . S
C30 C31 1.391 . S
C31 H3 0.931 . S
C31 C26 1.370 . S
C31 C30 1.391 . S
C32 N1 1.435 . S
C32 C33 1.358 . S
C32 C37 1.371 . S
C33 H5 0.930 . S
C33 C32 1.358 . S
C33 C34 1.405 . S
C34 H6 0.932 . S
C34 C33 1.405 . S
C34 C35 1.383 . S
C35 C34 1.383 . S
C35 C36 1.393 . S
C36 H8 0.931 . S
C36 C35 1.393 . S
C36 C37 1.382 . S
C37 H7 0.929 . S
C37 C32 1.371 . S
C37 C36 1.382 . S
C38 N1 1.423 . S
C38 C39 1.362 . S
C38 C43 1.388 . S
C39 H9 0.925 1_565 S
C39 C38 1.362 . S
C39 C40 1.376 1_565 S
C40 H11 0.931 . S
C40 C39 1.376 1_545 S
C40 C41 1.396 . S
C41 C40 1.396 . S
C41 C42 1.348 1_545 S
C41 C59 1.472 . S
C42 H12 0.929 . S
C42 C41 1.348 1_565 S
C42 C43 1.443 . S
C43 H10 0.932 . S
C43 C38 1.388 . S
C43 C42 1.443 . S
C44 N24 1.433 . S
C44 C45 1.363 . S
C44 C49 1.370 . S
C45 H13 0.929 . S
C45 C44 1.363 . S
C45 C46 1.385 . S
C46 H14 0.930 . S
C46 C45 1.385 . S
C46 C47 1.357 . S
C47 C46 1.357 . S
C47 C48 1.406 . S
C48 H15 0.929 . S
C48 C47 1.406 . S
C48 C49 1.391 . S
C49 H16 0.931 . S
C49 C44 1.370 . S
C49 C48 1.391 . S
C50 N24 1.435 . S
C50 C51 1.358 . S
C50 C55 1.371 . S
C51 H17 0.930 . S
C51 C50 1.358 . S
C51 C52 1.405 . S
C52 H18 0.932 . S
C52 C51 1.405 . S
C52 C53 1.383 . S
C53 C52 1.383 . S
C53 C54 1.393 . S
C54 H19 0.931 . S
C54 C53 1.393 . S
C54 C55 1.382 . S
C55 H20 0.929 . S
C55 C50 1.371 . S
C55 C54 1.382 . S
C56 N24 1.423 . S
C56 C57 1.362 . S
C56 C61 1.388 . S
C57 H21 0.929 . S
C57 C56 1.362 . S
C57 C58 1.376 1_655 S
C58 H22 0.931 . S
C58 C57 1.376 1_455 S
C58 C59 1.396 . S
C59 C41 1.472 . S
C59 C58 1.396 . S
C59 C60 1.348 1_455 S
C60 H23 0.929 . S
C60 C59 1.348 1_655 S
C60 C61 1.443 . S
C61 H25 0.932 . S
C61 C56 1.388 . S
C61 C60 1.443 . S
H62 C89 0.929 . S
N63 C88 1.433 . S
N63 C94 1.435 . S
N63 C100 1.423 . S
H64 C90 0.930 . S
H65 C93 0.931 . S
H66 C92 0.929 . S
H67 C95 0.930 . S
H68 C96 0.932 . S
H69 C99 0.929 . S
H70 C98 0.931 . S
H71 C101 0.932 . S
H72 C105 0.932 . S
H73 C102 0.931 . S
H74 C104 0.929 . S
H75 C107 0.929 . S
H76 C108 0.930 . S
H77 C110 0.929 . S
H78 C111 0.931 . S
H79 C113 0.930 . S
H80 C114 0.932 . S
H81 C116 0.931 . S
H82 C117 0.929 . S
H83 C119 0.929 . S
H84 C120 0.931 . S
H85 C122 0.929 . S
N86 C106 1.433 . S
N86 C112 1.435 . S
N86 C118 1.423 . S
H87 C123 0.932 . S
C88 N63 1.433 . S
C88 C89 1.363 . S
C88 C93 1.370 . S
C89 H62 0.929 . S
C89 C88 1.363 . S
C89 C90 1.385 . S
C90 H64 0.930 . S
C90 C89 1.385 . S
C90 C91 1.357 . S
C91 C90 1.357 . S
C91 C92 1.406 . S
C92 H66 0.929 . S
C92 C91 1.406 . S
C92 C93 1.391 . S
C93 H65 0.931 . S
C93 C88 1.370 . S
C93 C92 1.391 . S
C94 N63 1.435 . S
C94 C95 1.358 . S
C94 C99 1.371 . S
C95 H67 0.930 . S
C95 C94 1.358 . S
C95 C96 1.405 . S
C96 H68 0.932 . S
C96 C95 1.405 . S
C96 C97 1.383 . S
C97 C96 1.383 . S
C97 C98 1.393 . S
C98 H70 0.931 . S
C98 C97 1.393 . S
C98 C99 1.382 . S
C99 H69 0.929 . S
C99 C94 1.371 . S
C99 C98 1.382 . S
C100 N63 1.423 . S
C100 C101 1.362 . S
C100 C105 1.388 . S
C101 H71 0.932 . S
C101 C100 1.362 . S
C101 C102 1.376 1_655 S
C102 H73 0.931 . S
C102 C101 1.376 1_455 S
C102 C103 1.396 . S
C103 C102 1.396 . S
C103 C104 1.348 1_455 S
C103 C121 1.472 . S
C104 H74 0.929 . S
C104 C103 1.348 1_655 S
C104 C105 1.443 . S
C105 H72 0.932 . S
C105 C100 1.388 . S
C105 C104 1.443 . S
C106 N86 1.433 . S
C106 C107 1.363 . S
C106 C111 1.370 . S
C107 H75 0.929 . S
C107 C106 1.363 . S
C107 C108 1.385 . S
C108 H76 0.930 . S
C108 C107 1.385 . S
C108 C109 1.357 . S
C109 C108 1.357 . S
C109 C110 1.406 . S
C110 H77 0.929 . S
C110 C109 1.406 . S
C110 C111 1.391 . S
C111 H78 0.931 . S
C111 C106 1.370 . S
C111 C110 1.391 . S
C112 N86 1.435 . S
C112 C113 1.358 . S
C112 C117 1.371 . S
C113 H79 0.930 . S
C113 C112 1.358 . S
C113 C114 1.405 . S
C114 H80 0.932 . S
C114 C113 1.405 . S
C114 C115 1.383 . S
C115 C114 1.383 . S
C115 C116 1.393 . S
C116 H81 0.931 . S
C116 C115 1.393 . S
C116 C117 1.382 . S
C117 H82 0.929 . S
C117 C112 1.371 . S
C117 C116 1.382 . S
C118 N86 1.423 . S
C118 C119 1.362 . S
C118 C123 1.388 . S
C119 H83 0.929 . S
C119 C118 1.362 . S
C119 C120 1.376 . S
C120 H84 0.931 . S
C120 C119 1.376 . S
C120 C121 1.396 . S
C121 C103 1.472 . S
C121 C120 1.396 . S
C121 C122 1.348 . S
C122 H85 0.929 . S
C122 C121 1.348 . S
C122 C123 1.443 . S
C123 H87 0.932 . S
C123 C118 1.388 . S
C123 C122 1.443 . S
H124 C151 0.929 . S
N125 C150 1.433 . S
N125 C156 1.435 . S
N125 C162 1.423 . S
H126 C152 0.930 . S
H127 C155 0.931 . S
H128 C154 0.929 . S
H129 C157 0.930 . S
H130 C158 0.932 . S
H131 C161 0.929 . S
H132 C160 0.931 . S
H133 C163 0.929 . S
H134 C167 0.932 . S
H135 C164 0.931 . S
H136 C166 0.929 . S
H137 C169 0.929 . S
H138 C170 0.930 . S
H139 C172 0.929 . S
H140 C173 0.931 . S
H141 C175 0.930 . S
H142 C176 0.932 . S
H143 C178 0.931 . S
H144 C179 0.929 . S
H145 C181 0.929 . S
H146 C182 0.931 . S
H147 C184 0.929 . S
N148 C168 1.433 . S
N148 C174 1.435 . S
N148 C180 1.423 . S
H149 C185 0.932 . S
C150 N125 1.433 . S
C150 C151 1.363 . S
C150 C155 1.370 . S
C151 H124 0.929 . S
C151 C150 1.363 . S
C151 C152 1.385 . S
C152 H126 0.930 . S
C152 C151 1.385 . S
C152 C153 1.357 . S
C153 C152 1.357 . S
C153 C154 1.406 . S
C154 H128 0.929 . S
C154 C153 1.406 . S
C154 C155 1.391 . S
C155 H127 0.931 . S
C155 C150 1.370 . S
C155 C154 1.391 . S
C156 N125 1.435 . S
C156 C157 1.358 . S
C156 C161 1.371 . S
C157 H129 0.930 . S
C157 C156 1.358 . S
C157 C158 1.405 . S
C158 H130 0.932 . S
C158 C157 1.405 . S
C158 C159 1.383 . S
C159 C158 1.383 . S
C159 C160 1.393 . S
C160 H132 0.931 . S
C160 C159 1.393 . S
C160 C161 1.382 . S
C161 H131 0.929 . S
C161 C156 1.371 . S
C161 C160 1.382 . S
C162 N125 1.423 . S
C162 C163 1.362 . S
C162 C167 1.388 . S
C163 H133 0.929 . S
C163 C162 1.362 . S
C163 C164 1.376 . S
C164 H135 0.931 . S
C164 C163 1.376 . S
C164 C165 1.396 . S
C165 C164 1.396 . S
C165 C166 1.348 . S
C165 C183 1.472 . S
C166 H136 0.929 . S
C166 C165 1.348 . S
C166 C167 1.443 . S
C167 H134 0.932 . S
C167 C162 1.388 . S
C167 C166 1.443 . S
C168 N148 1.433 . S
C168 C169 1.363 . S
C168 C173 1.370 . S
C169 H137 0.929 . S
C169 C168 1.363 . S
C169 C170 1.385 . S
C170 H138 0.930 . S
C170 C169 1.385 . S
C170 C171 1.357 . S
C171 C170 1.357 . S
C171 C172 1.406 . S
C172 H139 0.929 . S
C172 C171 1.406 . S
C172 C173 1.391 . S
C173 H140 0.931 . S
C173 C168 1.370 . S
C173 C172 1.391 . S
C174 N148 1.435 . S
C174 C175 1.358 . S
C174 C179 1.371 . S
C175 H141 0.930 . S
C175 C174 1.358 . S
C175 C176 1.405 . S
C176 H142 0.932 . S
C176 C175 1.405 . S
C176 C177 1.383 . S
C177 C176 1.383 . S
C177 C178 1.393 . S
C178 H143 0.931 . S
C178 C177 1.393 . S
C178 C179 1.382 . S
C179 H144 0.929 . S
C179 C174 1.371 . S
C179 C178 1.382 . S
C180 N148 1.423 . S
C180 C181 1.362 . S
C180 C185 1.388 . S
C181 H145 0.929 . S
C181 C180 1.362 . S
C181 C182 1.376 . S
C182 H146 0.931 . S
C182 C181 1.376 . S
C182 C183 1.396 . S
C183 C165 1.472 . S
C183 C182 1.396 . S
C183 C184 1.348 . S
C184 H147 0.929 . S
C184 C183 1.348 . S
C184 C185 1.443 . S
C185 H149 0.932 . S
C185 C180 1.388 . S
C185 C184 1.443 . S
H186 C213 0.929 . S
N187 C212 1.433 . S
N187 C218 1.435 . S
N187 C224 1.423 . S
H188 C214 0.930 . S
H189 C217 0.931 . S
H190 C216 0.929 . S
H191 C219 0.930 . S
H192 C220 0.932 . S
H193 C223 0.929 . S
H194 C222 0.931 . S
H195 C225 0.929 . S
H196 C229 0.932 . S
H197 C226 0.931 . S
H198 C228 0.929 . S
H199 C231 0.929 . S
H200 C232 0.930 . S
H201 C234 0.929 . S
H202 C235 0.931 . S
H203 C237 0.930 . S
H204 C238 0.932 . S
H205 C240 0.931 . S
H206 C241 0.929 . S
H207 C243 0.929 . S
H208 C244 0.931 1_565 S
H209 C246 0.929 . S
N210 C230 1.433 . S
N210 C236 1.435 . S
N210 C242 1.423 . S
H211 C247 0.932 . S
C212 N187 1.433 . S
C212 C213 1.363 . S
C212 C217 1.370 . S
C213 H186 0.929 . S
C213 C212 1.363 . S
C213 C214 1.385 . S
C214 H188 0.930 . S
C214 C213 1.385 . S
C214 C215 1.357 . S
C215 C214 1.357 . S
C215 C216 1.406 . S
C216 H190 0.929 . S
C216 C215 1.406 . S
C216 C217 1.391 . S
C217 H189 0.931 . S
C217 C212 1.370 . S
C217 C216 1.391 . S
C218 N187 1.435 . S
C218 C219 1.358 . S
C218 C223 1.371 . S
C219 H191 0.930 . S
C219 C218 1.358 . S
C219 C220 1.405 . S
C220 H192 0.932 . S
C220 C219 1.405 . S
C220 C221 1.383 . S
C221 C220 1.383 . S
C221 C222 1.393 . S
C222 H194 0.931 . S
C222 C221 1.393 . S
C222 C223 1.382 . S
C223 H193 0.929 . S
C223 C218 1.371 . S
C223 C222 1.382 . S
C224 N187 1.423 . S
C224 C225 1.362 . S
C224 C229 1.388 . S
C225 H195 0.929 . S
C225 C224 1.362 . S
C225 C226 1.376 . S
C226 H197 0.931 . S
C226 C225 1.376 . S
C226 C227 1.396 . S
C227 C226 1.396 . S
C227 C228 1.348 . S
C227 C245 1.472 1_565 S
C228 H198 0.929 . S
C228 C227 1.348 . S
C228 C229 1.443 . S
C229 H196 0.932 . S
C229 C224 1.388 . S
C229 C228 1.443 . S
C230 N210 1.433 . S
C230 C231 1.363 . S
C230 C235 1.370 . S
C231 H199 0.929 . S
C231 C230 1.363 . S
C231 C232 1.385 . S
C232 H200 0.930 . S
C232 C231 1.385 . S
C232 C233 1.357 . S
C233 C232 1.357 . S
C233 C234 1.406 . S
C234 H201 0.929 . S
C234 C233 1.406 . S
C234 C235 1.391 . S
C235 H202 0.931 . S
C235 C230 1.370 . S
C235 C234 1.391 . S
C236 N210 1.435 . S
C236 C237 1.358 . S
C236 C241 1.371 . S
C237 H203 0.930 . S
C237 C236 1.358 . S
C237 C238 1.405 . S
C238 H204 0.932 . S
C238 C237 1.405 . S
C238 C239 1.383 . S
C239 C238 1.383 . S
C239 C240 1.393 . S
C240 H205 0.931 . S
C240 C239 1.393 . S
C240 C241 1.382 . S
C241 H206 0.929 . S
C241 C236 1.371 . S
C241 C240 1.382 . S
C242 N210 1.423 . S
C242 C243 1.362 . S
C242 C247 1.388 . S
C243 H207 0.929 . S
C243 C242 1.362 . S
C243 C244 1.376 . S
C244 H208 0.931 1_545 S
C244 C243 1.376 . S
C244 C245 1.396 . S
C245 C227 1.472 1_545 S
C245 C244 1.396 . S
C245 C246 1.348 . S
C246 H209 0.929 . S
C246 C245 1.348 . S
C246 C247 1.443 . S
C247 H211 0.932 . S
C247 C242 1.388 . S
C247 C246 1.443 . S
H248 C275 0.929 . S
N249 C274 1.433 . S
N249 C280 1.435 . S
N249 C286 1.423 . S
H250 C276 0.930 . S
H251 C279 0.931 . S
H252 C278 0.929 . S
H253 C281 0.930 . S
H254 C282 0.932 . S
H255 C285 0.929 . S
H256 C284 0.931 . S
H257 C287 0.929 . S
H258 C291 0.932 . S
H259 C288 0.931 . S
H260 C290 0.929 . S
H261 C293 0.929 . S
H262 C294 0.930 . S
H263 C296 0.929 . S
H264 C297 0.931 . S
H265 C299 0.930 . S
H266 C300 0.932 . S
H267 C302 0.931 . S
H268 C303 0.929 . S
H269 C305 0.929 . S
H270 C306 0.931 1_455 S
H271 C308 0.929 . S
N272 C292 1.433 . S
N272 C298 1.435 . S
N272 C304 1.423 . S
H273 C309 0.932 . S
C274 N249 1.433 . S
C274 C275 1.363 . S
C274 C279 1.370 . S
C275 H248 0.929 . S
C275 C274 1.363 . S
C275 C276 1.385 . S
C276 H250 0.930 . S
C276 C275 1.385 . S
C276 C277 1.357 . S
C277 C276 1.357 . S
C277 C278 1.406 . S
C278 H252 0.929 . S
C278 C277 1.406 . S
C278 C279 1.391 . S
C279 H251 0.931 . S
C279 C274 1.370 . S
C279 C278 1.391 . S
C280 N249 1.435 . S
C280 C281 1.358 . S
C280 C285 1.371 . S
C281 H253 0.930 . S
C281 C280 1.358 . S
C281 C282 1.405 . S
C282 H254 0.932 . S
C282 C281 1.405 . S
C282 C283 1.383 . S
C283 C282 1.383 . S
C283 C284 1.393 . S
C284 H256 0.931 . S
C284 C283 1.393 . S
C284 C285 1.382 . S
C285 H255 0.929 . S
C285 C280 1.371 . S
C285 C284 1.382 . S
C286 N249 1.423 . S
C286 C287 1.362 . S
C286 C291 1.388 . S
C287 H257 0.929 . S
C287 C286 1.362 . S
C287 C288 1.376 . S
C288 H259 0.931 . S
C288 C287 1.376 . S
C288 C289 1.396 . S
C289 C288 1.396 . S
C289 C290 1.348 . S
C289 C307 1.510 . S
C290 H260 0.929 . S
C290 C289 1.348 . S
C290 C291 1.443 . S
C291 H258 0.932 . S
C291 C286 1.388 . S
C291 C290 1.443 . S
C292 N272 1.433 . S
C292 C293 1.363 . S
C292 C297 1.370 . S
C293 H261 0.929 . S
C293 C292 1.363 . S
C293 C294 1.385 . S
C294 H262 0.930 . S
C294 C293 1.385 . S
C294 C295 1.357 . S
C295 C294 1.357 . S
C295 C296 1.406 . S
C296 H263 0.929 . S
C296 C295 1.406 . S
C296 C297 1.391 . S
C297 H264 0.931 . S
C297 C292 1.370 . S
C297 C296 1.391 . S
C298 N272 1.435 . S
C298 C299 1.358 . S
C298 C303 1.371 . S
C299 H265 0.930 . S
C299 C298 1.358 . S
C299 C300 1.405 . S
C300 H266 0.932 . S
C300 C299 1.405 . S
C300 C301 1.383 . S
C301 C300 1.383 . S
C301 C302 1.393 . S
C302 H267 0.931 . S
C302 C301 1.393 . S
C302 C303 1.382 . S
C303 H268 0.929 . S
C303 C298 1.371 . S
C303 C302 1.382 . S
C304 N272 1.423 . S
C304 C305 1.362 . S
C304 C309 1.388 . S
C305 H269 0.929 . S
C305 C304 1.362 . S
C305 C306 1.376 . S
C306 H270 0.931 1_655 S
C306 C305 1.376 . S
C306 C307 1.392 1_655 S
C307 C289 1.510 . S
C307 C306 1.392 1_455 S
C307 C308 1.313 1_455 S
C308 H271 0.929 . S
C308 C307 1.313 1_655 S
C308 C309 1.443 . S
C309 H273 0.932 . S
C309 C304 1.388 . S
C309 C308 1.443 . S
H310 C337 0.929 . S
N311 C336 1.433 . S
N311 C342 1.435 . S
N311 C348 1.423 . S
H312 C338 0.930 . S
H313 C341 0.931 . S
H314 C340 0.929 . S
H315 C343 0.930 . S
H316 C344 0.932 . S
H317 C347 0.929 . S
H318 C346 0.931 . S
H319 C349 0.929 . S
H320 C353 0.932 . S
H321 C350 0.931 . S
H322 C352 0.929 . S
H323 C355 0.929 . S
H324 C356 0.930 . S
H325 C358 0.929 . S
H326 C359 0.931 . S
H327 C361 0.930 . S
H328 C362 0.932 . S
H329 C364 0.931 . S
H330 C365 0.929 . S
H331 C367 0.929 . S
H332 C368 0.931 . S
H333 C370 0.929 . S
N334 C354 1.433 . S
N334 C360 1.435 . S
N334 C366 1.423 . S
H335 C371 0.932 . S
C336 N311 1.433 . S
C336 C337 1.363 . S
C336 C341 1.370 . S
C337 H310 0.929 . S
C337 C336 1.363 . S
C337 C338 1.385 . S
C338 H312 0.930 . S
C338 C337 1.385 . S
C338 C339 1.357 . S
C339 C338 1.357 . S
C339 C340 1.406 . S
C340 H314 0.929 . S
C340 C339 1.406 . S
C340 C341 1.391 . S
C341 H313 0.931 . S
C341 C336 1.370 . S
C341 C340 1.391 . S
C342 N311 1.435 . S
C342 C343 1.358 . S
C342 C347 1.371 . S
C343 H315 0.930 . S
C343 C342 1.358 . S
C343 C344 1.405 . S
C344 H316 0.932 . S
C344 C343 1.405 . S
C344 C345 1.383 . S
C345 C344 1.383 . S
C345 C346 1.393 . S
C346 H318 0.931 . S
C346 C345 1.393 . S
C346 C347 1.382 . S
C347 H317 0.929 . S
C347 C342 1.371 . S
C347 C346 1.382 . S
C348 N311 1.423 . S
C348 C349 1.362 . S
C348 C353 1.388 . S
C349 H319 0.929 . S
C349 C348 1.362 . S
C349 C350 1.376 . S
C350 H321 0.931 . S
C350 C349 1.376 . S
C350 C351 1.396 . S
C351 C350 1.396 . S
C351 C352 1.348 . S
C351 C369 1.472 . S
C352 H322 0.929 . S
C352 C351 1.348 . S
C352 C353 1.443 . S
C353 H320 0.932 . S
C353 C348 1.388 . S
C353 C352 1.443 . S
C354 N334 1.433 . S
C354 C355 1.363 . S
C354 C359 1.370 . S
C355 H323 0.929 . S
C355 C354 1.363 . S
C355 C356 1.385 . S
C356 H324 0.930 . S
C356 C355 1.385 . S
C356 C357 1.357 . S
C357 C356 1.357 . S
C357 C358 1.406 . S
C358 H325 0.929 . S
C358 C357 1.406 . S
C358 C359 1.391 . S
C359 H326 0.931 . S
C359 C354 1.370 . S
C359 C358 1.391 . S
C360 N334 1.435 . S
C360 C361 1.358 . S
C360 C365 1.371 . S
C361 H327 0.930 . S
C361 C360 1.358 . S
C361 C362 1.405 . S
C362 H328 0.932 . S
C362 C361 1.405 . S
C362 C363 1.383 . S
C363 C362 1.383 . S
C363 C364 1.393 . S
C364 H329 0.931 . S
C364 C363 1.393 . S
C364 C365 1.382 . S
C365 H330 0.929 . S
C365 C360 1.371 . S
C365 C364 1.382 . S
C366 N334 1.423 . S
C366 C367 1.362 . S
C366 C371 1.388 . S
C367 H331 0.929 . S
C367 C366 1.362 . S
C367 C368 1.376 . S
C368 H332 0.931 . S
C368 C367 1.376 . S
C368 C369 1.396 . S
C369 C351 1.472 . S
C369 C368 1.396 . S
C369 C370 1.348 . S
C370 H333 0.929 . S
C370 C369 1.348 . S
C370 C371 1.443 . S
C371 H335 0.932 . S
C371 C366 1.388 . S
C371 C370 1.443 . S
H372 C399 0.929 . S
N373 C398 1.433 . S
N373 C404 1.435 . S
N373 C410 1.423 . S
H374 C400 0.930 . S
H375 C403 0.931 . S
H376 C402 0.929 . S
H377 C405 0.930 . S
H378 C406 0.932 . S
H379 C409 0.929 . S
H380 C408 0.931 . S
H381 C411 0.922 1_545 S
H382 C415 0.932 . S
H383 C412 0.931 . S
H384 C414 0.929 . S
H385 C417 0.929 . S
H386 C418 0.930 . S
H387 C420 0.929 . S
H388 C421 0.931 . S
H389 C423 0.930 . S
H390 C424 0.932 . S
H391 C426 0.931 . S
H392 C427 0.929 . S
H393 C429 0.929 . S
H394 C430 0.931 . S
H395 C432 0.929 . S
N396 C416 1.433 . S
N396 C422 1.435 . S
N396 C428 1.423 . S
H397 C433 0.932 . S
C398 N373 1.433 . S
C398 C399 1.363 . S
C398 C403 1.370 . S
C399 H372 0.929 . S
C399 C398 1.363 . S
C399 C400 1.385 . S
C400 H374 0.930 . S
C400 C399 1.385 . S
C400 C401 1.357 . S
C401 C400 1.357 . S
C401 C402 1.406 . S
C402 H376 0.929 . S
C402 C401 1.406 . S
C402 C403 1.391 . S
C403 H375 0.931 . S
C403 C398 1.370 . S
C403 C402 1.391 . S
C404 N373 1.435 . S
C404 C405 1.358 . S
C404 C409 1.371 . S
C405 H377 0.930 . S
C405 C404 1.358 . S
C405 C406 1.405 . S
C406 H378 0.932 . S
C406 C405 1.405 . S
C406 C407 1.383 . S
C407 C406 1.383 . S
C407 C408 1.393 . S
C408 H380 0.931 . S
C408 C407 1.393 . S
C408 C409 1.382 . S
C409 H379 0.929 . S
C409 C404 1.371 . S
C409 C408 1.382 . S
C410 N373 1.423 . S
C410 C411 1.403 . S
C410 C415 1.388 . S
C411 H381 0.922 1_565 S
C411 C410 1.403 . S
C411 C412 1.342 1_565 S
C412 H383 0.931 . S
C412 C411 1.342 1_545 S
C412 C413 1.396 . S
C413 C412 1.396 . S
C413 C414 1.348 1_545 S
C413 C431 1.472 . S
C414 H384 0.929 . S
C414 C413 1.348 1_565 S
C414 C415 1.443 . S
C415 H382 0.932 . S
C415 C410 1.388 . S
C415 C414 1.443 . S
C416 N396 1.433 . S
C416 C417 1.363 . S
C416 C421 1.370 . S
C417 H385 0.929 . S
C417 C416 1.363 . S
C417 C418 1.385 . S
C418 H386 0.930 . S
C418 C417 1.385 . S
C418 C419 1.357 . S
C419 C418 1.357 . S
C419 C420 1.406 . S
C420 H387 0.929 . S
C420 C419 1.406 . S
C420 C421 1.391 . S
C421 H388 0.931 . S
C421 C416 1.370 . S
C421 C420 1.391 . S
C422 N396 1.435 . S
C422 C423 1.358 . S
C422 C427 1.371 . S
C423 H389 0.930 . S
C423 C422 1.358 . S
C423 C424 1.405 . S
C424 H390 0.932 . S
C424 C423 1.405 . S
C424 C425 1.383 . S
C425 C424 1.383 . S
C425 C426 1.393 . S
C426 H391 0.931 . S
C426 C425 1.393 . S
C426 C427 1.382 . S
C427 H392 0.929 . S
C427 C422 1.371 . S
C427 C426 1.382 . S
C428 N396 1.423 . S
C428 C429 1.362 . S
C428 C433 1.388 . S
C429 H393 0.929 . S
C429 C428 1.362 . S
C429 C430 1.376 . S
C430 H394 0.931 . S
C430 C429 1.376 . S
C430 C431 1.396 . S
C431 C413 1.472 . S
C431 C430 1.396 . S
C431 C432 1.348 . S
C432 H395 0.929 . S
C432 C431 1.348 . S
C432 C433 1.443 . S
C433 H397 0.932 . S
C433 C428 1.388 . S
C433 C432 1.443 . S
H434 C461 0.929 . S
N435 C460 1.433 . S
N435 C466 1.435 . S
N435 C472 1.423 . S
H436 C462 0.930 . S
H437 C465 0.931 . S
H438 C464 0.929 . S
H439 C467 0.930 . S
H440 C468 0.932 . S
H441 C471 0.929 . S
H442 C470 0.931 . S
H443 C473 0.929 . S
H444 C477 0.932 . S
H445 C474 0.931 . S
H446 C476 0.905 1_545 S
H447 C479 0.929 . S
H448 C480 0.930 . S
H449 C482 0.929 . S
H450 C483 0.931 . S
H451 C485 0.930 . S
H452 C486 0.932 . S
H453 C488 0.931 . S
H454 C489 0.929 . S
H455 C491 0.929 . S
H456 C492 0.931 . S
H457 C494 0.929 . S
N458 C478 1.433 . S
N458 C484 1.435 . S
N458 C490 1.423 . S
H459 C495 0.932 . S
C460 N435 1.433 . S
C460 C461 1.363 . S
C460 C465 1.370 . S
C461 H434 0.929 . S
C461 C460 1.363 . S
C461 C462 1.385 . S
C462 H436 0.930 . S
C462 C461 1.385 . S
C462 C463 1.357 . S
C463 C462 1.357 . S
C463 C464 1.406 . S
C464 H438 0.929 . S
C464 C463 1.406 . S
C464 C465 1.391 . S
C465 H437 0.931 . S
C465 C460 1.370 . S
C465 C464 1.391 . S
C466 N435 1.435 . S
C466 C467 1.358 . S
C466 C471 1.371 . S
C467 H439 0.930 . S
C467 C466 1.358 . S
C467 C468 1.405 . S
C468 H440 0.932 . S
C468 C467 1.405 . S
C468 C469 1.383 . S
C469 C468 1.383 . S
C469 C470 1.393 . S
C470 H442 0.931 . S
C470 C469 1.393 . S
C470 C471 1.382 . S
C471 H441 0.929 . S
C471 C466 1.371 . S
C471 C470 1.382 . S
C472 N435 1.423 . S
C472 C473 1.362 . S
C472 C477 1.388 . S
C473 H443 0.929 . S
C473 C472 1.362 . S
C473 C474 1.376 1_455 S
C474 H445 0.931 . S
C474 C473 1.376 1_655 S
C474 C475 1.394 1_655 S
C475 C474 1.394 1_455 S
C475 C476 1.363 . S
C475 C493 1.460 1_465 S
C476 H446 0.905 1_565 S
C476 C475 1.363 . S
C476 C477 1.443 . S
C477 H444 0.932 . S
C477 C472 1.388 . S
C477 C476 1.443 . S
C478 N458 1.433 . S
C478 C479 1.363 . S
C478 C483 1.370 . S
C479 H447 0.929 . S
C479 C478 1.363 . S
C479 C480 1.385 . S
C480 H448 0.930 . S
C480 C479 1.385 . S
C480 C481 1.357 . S
C481 C480 1.357 . S
C481 C482 1.406 . S
C482 H449 0.929 . S
C482 C481 1.406 . S
C482 C483 1.391 . S
C483 H450 0.931 . S
C483 C478 1.370 . S
C483 C482 1.391 . S
C484 N458 1.435 . S
C484 C485 1.358 . S
C484 C489 1.371 . S
C485 H451 0.930 . S
C485 C484 1.358 . S
C485 C486 1.405 . S
C486 H452 0.932 . S
C486 C485 1.405 . S
C486 C487 1.383 . S
C487 C486 1.383 . S
C487 C488 1.393 . S
C488 H453 0.931 . S
C488 C487 1.393 . S
C488 C489 1.382 . S
C489 H454 0.929 . S
C489 C484 1.371 . S
C489 C488 1.382 . S
C490 N458 1.423 . S
C490 C491 1.362 . S
C490 C495 1.388 . S
C491 H455 0.929 . S
C491 C490 1.362 . S
C491 C492 1.376 . S
C492 H456 0.931 . S
C492 C491 1.376 . S
C492 C493 1.396 . S
C493 C475 1.460 1_645 S
C493 C492 1.396 . S
C493 C494 1.348 . S
C494 H457 0.929 . S
C494 C493 1.348 . S
C494 C495 1.443 . S
C495 H459 0.932 . S
C495 C490 1.388 . S
C495 C494 1.443 . S
Co496 O497 2.216 . S
Co496 O498 2.091 . S
Co496 O500 2.004 . S
Co496 O506 2.021 1_554 S
Co496 O508 2.137 . S
Co496 O509 2.244 . S
O497 Co496 2.216 . S
O497 C504 1.246 . S
O498 Co496 2.091 . S
O498 C504 1.261 . S
C499 O508 1.247 . S
C499 O509 1.272 . S
O500 Co496 2.004 . S
O500 C505 1.259 . S
Co501 O502 2.061 . S
Co501 O507 2.052 1_554 S
Co501 O509 2.135 . S
O502 Co501 2.061 . S
O502 C505 1.235 . S
C503 O506 1.238 . S
C503 O507 1.241 . S
C504 O497 1.246 . S
C504 O498 1.261 . S
C505 O500 1.259 . S
C505 O502 1.235 . S
O506 Co496 2.021 1_556 S
O506 C503 1.238 . S
O507 Co501 2.052 1_556 S
O507 C503 1.241 . S
O508 Co496 2.137 . S
O508 C499 1.247 . S
O509 Co496 2.244 . S
O509 C499 1.272 . S
O509 Co501 2.135 . S
Co510 O511 2.216 . S
Co510 O512 2.091 . S
Co510 O514 2.004 . S
Co510 O520 2.021 . S
Co510 O522 2.137 . S
Co510 O523 2.244 . S
O511 Co510 2.216 . S
O511 C518 1.247 . S
O512 Co510 2.091 . S
O512 C518 1.261 . S
C513 O522 1.247 . S
C513 O523 1.272 . S
O514 Co510 2.004 . S
O514 C519 1.259 . S
Co515 O516 2.061 . S
Co515 O521 2.052 . S
Co515 O523 2.135 . S
O516 Co515 2.061 . S
O516 C519 1.235 . S
C517 O520 1.238 . S
C517 O521 1.241 . S
C518 O511 1.247 . S
C518 O512 1.261 . S
C519 O514 1.259 . S
C519 O516 1.235 . S
O520 Co510 2.021 . S
O520 C517 1.238 . S
O521 Co515 2.052 . S
O521 C517 1.241 . S
O522 Co510 2.137 . S
O522 C513 1.247 . S
O523 Co510 2.244 . S
O523 C513 1.272 . S
O523 Co515 2.135 . S
Co524 O525 2.216 . S
Co524 O526 2.091 . S
Co524 O528 2.004 . S
Co524 O534 2.021 . S
Co524 O536 2.137 . S
Co524 O537 2.244 . S
O525 Co524 2.216 . S
O525 C532 1.247 . S
O526 Co524 2.091 . S
O526 C532 1.261 . S
C527 O536 1.247 . S
C527 O537 1.272 . S
O528 Co524 2.004 . S
O528 C533 1.259 . S
Co529 O530 2.061 . S
Co529 O535 2.052 . S
Co529 O537 2.135 . S
O530 Co529 2.061 . S
O530 C533 1.235 . S
C531 O534 1.238 . S
C531 O535 1.241 . S
C532 O525 1.247 . S
C532 O526 1.261 . S
C533 O528 1.259 . S
C533 O530 1.235 . S
O534 Co524 2.021 . S
O534 C531 1.238 . S
O535 Co529 2.052 . S
O535 C531 1.241 . S
O536 Co524 2.137 . S
O536 C527 1.247 . S
O537 Co524 2.244 . S
O537 C527 1.272 . S
O537 Co529 2.135 . S
Co538 O539 2.216 . S
Co538 O540 2.091 . S
Co538 O542 2.004 . S
Co538 O548 2.021 . S
Co538 O550 2.137 . S
Co538 O551 2.244 . S
O539 Co538 2.216 . S
O539 C546 1.247 . S
O540 Co538 2.091 . S
O540 C546 1.261 . S
C541 O550 1.247 . S
C541 O551 1.272 . S
O542 Co538 2.004 . S
O542 C547 1.259 . S
Co543 O544 2.061 . S
Co543 O549 2.052 . S
Co543 O551 2.135 . S
O544 Co543 2.061 . S
O544 C547 1.235 . S
C545 O548 1.238 . S
C545 O549 1.241 . S
C546 O539 1.247 . S
C546 O540 1.261 . S
C547 O542 1.259 . S
C547 O544 1.235 . S
O548 Co538 2.021 . S
O548 C545 1.238 . S
O549 Co543 2.052 . S
O549 C545 1.241 . S
O550 Co538 2.137 . S
O550 C541 1.247 . S
O551 Co538 2.244 . S
O551 C541 1.272 . S
O551 Co543 2.135 . S
Co552 O553 2.216 . S
Co552 O554 2.091 . S
Co552 O556 2.004 . S
Co552 O562 2.021 . S
Co552 O564 2.137 . S
Co552 O565 2.244 . S
O553 Co552 2.216 . S
O553 C560 1.247 . S
O554 Co552 2.091 . S
O554 C560 1.261 . S
C555 O564 1.247 . S
C555 O565 1.272 . S
O556 Co552 2.004 . S
O556 C561 1.259 . S
Co557 O558 2.061 . S
Co557 O563 2.052 . S
Co557 O565 2.135 . S
O558 Co557 2.061 . S
O558 C561 1.235 . S
C559 O562 1.238 . S
C559 O563 1.241 . S
C560 O553 1.247 . S
C560 O554 1.261 . S
C561 O556 1.259 . S
C561 O558 1.235 . S
O562 Co552 2.021 . S
O562 C559 1.238 . S
O563 Co557 2.052 . S
O563 C559 1.241 . S
O564 Co552 2.137 . S
O564 C555 1.247 . S
O565 Co552 2.244 . S
O565 C555 1.272 . S
O565 Co557 2.135 . S
Co566 O567 2.216 . S
Co566 O568 2.091 . S
Co566 O570 2.004 . S
Co566 O576 2.021 . S
Co566 O578 2.137 . S
Co566 O579 2.244 . S
O567 Co566 2.216 . S
O567 C574 1.247 . S
O568 Co566 2.091 . S
O568 C574 1.261 . S
C569 O578 1.247 . S
C569 O579 1.272 . S
O570 Co566 2.004 . S
O570 C575 1.259 . S
Co571 O572 2.061 . S
Co571 O577 2.052 . S
Co571 O579 2.135 . S
O572 Co571 2.061 . S
O572 C575 1.235 . S
C573 O576 1.238 . S
C573 O577 1.241 . S
C574 O567 1.247 . S
C574 O568 1.261 . S
C575 O570 1.259 . S
C575 O572 1.235 . S
O576 Co566 2.021 . S
O576 C573 1.238 . S
O577 Co571 2.052 . S
O577 C573 1.241 . S
O578 Co566 2.137 . S
O578 C569 1.247 . S
O579 Co566 2.244 . S
O579 C569 1.272 . S
O579 Co571 2.135 . S
Co580 O581 2.210 1_556 S
Co580 O582 2.084 1_556 S
Co580 O584 2.010 . S
Co580 O590 1.986 1_556 S
Co580 O592 2.174 . S
Co580 O593 2.262 . S
O581 Co580 2.210 1_554 S
O581 C588 1.247 . S
O582 Co580 2.084 1_554 S
O582 C588 1.261 . S
C583 O592 1.247 . S
C583 O593 1.272 . S
O584 Co580 2.010 . S
O584 C589 1.259 . S
Co585 O586 2.061 . S
Co585 O591 2.052 1_556 S
Co585 O593 2.135 . S
O586 Co585 2.061 . S
O586 C589 1.235 . S
C587 O590 1.238 . S
C587 O591 1.241 . S
C588 O581 1.247 . S
C588 O582 1.261 . S
C589 O584 1.259 . S
C589 O586 1.235 . S
O590 Co580 1.986 1_554 S
O590 C587 1.238 . S
O591 Co585 2.052 1_554 S
O591 C587 1.241 . S
O592 Co580 2.174 . S
O592 C583 1.247 . S
O593 Co580 2.262 . S
O593 C583 1.272 . S
O593 Co585 2.135 . S
Co594 O595 2.216 . S
Co594 O596 2.091 . S
Co594 O598 2.004 . S
Co594 O604 2.021 . S
Co594 O606 2.137 . S
Co594 O607 2.244 . S
O595 Co594 2.216 . S
O595 C602 1.247 . S
O596 Co594 2.091 . S
O596 C602 1.261 . S
C597 O606 1.247 . S
C597 O607 1.272 . S
O598 Co594 2.004 . S
O598 C603 1.259 . S
Co599 O600 2.061 . S
Co599 O605 2.052 . S
Co599 O607 2.135 . S
O600 Co599 2.061 . S
O600 C603 1.235 . S
C601 O604 1.238 . S
C601 O605 1.241 . S
C602 O595 1.247 . S
C602 O596 1.261 . S
C603 O598 1.259 . S
C603 O600 1.235 . S
O604 Co594 2.021 . S
O604 C601 1.238 . S
O605 Co599 2.052 . S
O605 C601 1.241 . S
O606 Co594 2.137 . S
O606 C597 1.247 . S
O607 Co594 2.244 . S
O607 C597 1.272 . S
O607 Co599 2.135 . S
C608 C609 1.349 . S
C608 C610 1.327 . S
C608 H633 0.950 . S
C609 C608 1.349 . S
C609 C625 1.349 . S
C610 C608 1.327 . S
C610 C629 1.429 . S
C610 H634 0.950 . S
C611 C628 1.574 . S
C611 C630 1.368 . S
C611 H635 0.949 . S
H612 C616 0.949 . S
C613 C614 1.349 . S
C613 C615 1.327 . S
C613 H636 0.950 . S
C614 C613 1.349 . S
C614 C626 1.349 . S
C615 C613 1.327 . S
C615 C631 1.429 . S
C615 H637 0.950 . S
C616 H612 0.949 . S
C616 C624 1.574 . S
C616 C632 1.368 . S
H617 C625 0.950 . S
H618 C623 0.950 . S
H619 C624 0.949 . S
H620 C626 0.950 . S
H621 C627 0.950 . S
H622 C628 0.949 . S
C623 H618 0.950 . S
C623 C625 1.327 . S
C623 C629 1.429 . S
C624 C616 1.574 . S
C624 H619 0.949 . S
C624 C630 1.368 . S
C625 C609 1.349 . S
C625 H617 0.950 . S
C625 C623 1.327 . S
C626 C614 1.349 . S
C626 H620 0.950 . S
C626 C627 1.327 . S
C627 H621 0.950 . S
C627 C626 1.327 . S
C627 C631 1.429 . S
C628 C611 1.574 . S
C628 H622 0.949 . S
C628 C632 1.368 . S
C629 C610 1.429 . S
C629 C623 1.429 . S
C629 C630 1.523 . S
C630 C611 1.368 . S
C630 C624 1.368 . S
C630 C629 1.523 . S
C631 C615 1.429 . S
C631 C627 1.429 . S
C631 C632 1.523 . S
C632 C616 1.368 . S
C632 C628 1.368 . S
C632 C631 1.523 . S
H633 C608 0.950 . S
H634 C610 0.950 . S
H635 C611 0.949 . S
H636 C613 0.950 . S
H637 C615 0.950 . S
C638 C639 1.349 . S
C638 C640 1.327 . S
C638 H663 0.950 . S
C639 C638 1.349 . S
C639 C655 1.349 . S
C640 C638 1.327 . S
C640 C659 1.429 . S
C640 H664 0.950 . S
C641 C658 1.574 . S
C641 C660 1.368 . S
C641 H665 0.949 . S
H642 C646 0.949 . S
C643 C644 1.349 . S
C643 C645 1.327 . S
C643 H666 0.950 . S
C644 C643 1.349 . S
C644 C656 1.349 . S
C645 C643 1.327 . S
C645 C661 1.429 . S
C645 H667 0.950 . S
C646 H642 0.949 . S
C646 C654 1.574 . S
C646 C662 1.368 . S
H647 C655 0.950 . S
H648 C653 0.950 . S
H649 C654 0.949 . S
H650 C656 0.950 . S
H651 C657 0.950 . S
H652 C658 0.949 . S
C653 H648 0.950 . S
C653 C655 1.327 . S
C653 C659 1.429 . S
C654 C646 1.574 . S
C654 H649 0.949 . S
C654 C660 1.368 . S
C655 C639 1.349 . S
C655 H647 0.950 . S
C655 C653 1.327 . S
C656 C644 1.349 . S
C656 H650 0.950 . S
C656 C657 1.327 . S
C657 H651 0.950 . S
C657 C656 1.327 . S
C657 C661 1.429 . S
C658 C641 1.574 . S
C658 H652 0.949 . S
C658 C662 1.368 . S
C659 C640 1.429 . S
C659 C653 1.429 . S
C659 C660 1.523 . S
C660 C641 1.368 . S
C660 C654 1.368 . S
C660 C659 1.523 . S
C661 C645 1.429 . S
C661 C657 1.429 . S
C661 C662 1.523 . S
C662 C646 1.368 . S
C662 C658 1.368 . S
C662 C661 1.523 . S
H663 C638 0.950 . S
H664 C640 0.950 . S
H665 C641 0.949 . S
H666 C643 0.950 . S
H667 C645 0.950 . S
C668 C669 1.349 . S
C668 C670 1.327 . S
C668 H693 0.950 . S
C669 C668 1.349 . S
C669 C685 1.349 . S
C670 C668 1.327 . S
C670 C689 1.429 . S
C670 H694 0.950 . S
C671 C688 1.574 . S
C671 C690 1.368 . S
C671 H695 0.949 . S
H672 C676 0.949 . S
C673 C674 1.349 . S
C673 C675 1.327 . S
C673 H696 0.950 . S
C674 C673 1.349 . S
C674 C686 1.349 . S
C675 C673 1.327 . S
C675 C691 1.429 . S
C675 H697 0.950 . S
C676 H672 0.949 . S
C676 C684 1.574 . S
C676 C692 1.368 . S
H677 C685 0.950 . S
H678 C683 0.950 . S
H679 C684 0.949 . S
H680 C686 0.950 . S
H681 C687 0.950 . S
H682 C688 0.949 . S
C683 H678 0.950 . S
C683 C685 1.327 . S
C683 C689 1.429 . S
C684 C676 1.574 . S
C684 H679 0.949 . S
C684 C690 1.368 . S
C685 C669 1.349 . S
C685 H677 0.950 . S
C685 C683 1.327 . S
C686 C674 1.349 . S
C686 H680 0.950 . S
C686 C687 1.327 . S
C687 H681 0.950 . S
C687 C686 1.327 . S
C687 C691 1.429 . S
C688 C671 1.574 . S
C688 H682 0.949 . S
C688 C692 1.368 . S
C689 C670 1.429 . S
C689 C683 1.429 . S
C689 C690 1.523 . S
C690 C671 1.368 . S
C690 C684 1.368 . S
C690 C689 1.523 . S
C691 C675 1.429 . S
C691 C687 1.429 . S
C691 C692 1.523 . S
C692 C676 1.368 . S
C692 C688 1.368 . S
C692 C691 1.523 . S
H693 C668 0.950 . S
H694 C670 0.950 . S
H695 C671 0.949 . S
H696 C673 0.950 . S
H697 C675 0.950 . S
C698 C699 1.349 . S
C698 C700 1.327 . S
C698 H723 0.950 . S
C699 C698 1.349 . S
C699 C715 1.349 . S
C700 C698 1.327 . S
C700 C719 1.429 . S
C700 H724 0.950 . S
C701 C718 1.574 . S
C701 C720 1.368 . S
C701 H725 0.949 . S
H702 C706 0.949 1_556 S
C703 C704 1.349 . S
C703 C705 1.327 . S
C703 H726 0.950 . S
C704 C703 1.349 . S
C704 C716 1.351 . S
C705 C703 1.327 . S
C705 C721 1.429 . S
C705 H727 0.950 . S
C706 H702 0.949 1_554 S
C706 C714 1.574 . S
C706 C722 1.368 . S
H707 C715 0.950 . S
H708 C713 0.950 . S
H709 C714 0.912 1_556 S
H710 C716 0.948 1_556 S
H711 C717 0.950 1_556 S
H712 C718 0.949 . S
C713 H708 0.950 . S
C713 C715 1.327 . S
C713 C719 1.429 . S
C714 C706 1.574 . S
C714 H709 0.912 1_554 S
C714 C720 1.368 . S
C715 C699 1.349 . S
C715 H707 0.950 . S
C715 C713 1.327 . S
C716 C704 1.351 . S
C716 H710 0.948 1_554 S
C716 C717 1.327 . S
C717 H711 0.950 1_554 S
C717 C716 1.327 . S
C717 C721 1.429 . S
C718 C701 1.574 . S
C718 H712 0.949 . S
C718 C722 1.368 . S
C719 C700 1.429 . S
C719 C713 1.429 . S
C719 C720 1.523 . S
C720 C701 1.368 . S
C720 C714 1.368 . S
C720 C719 1.523 . S
C721 C705 1.429 . S
C721 C717 1.429 . S
C721 C722 1.523 . S
C722 C706 1.368 . S
C722 C718 1.368 . S
C722 C721 1.523 . S
H723 C698 0.950 . S
H724 C700 0.950 . S
H725 C701 0.949 . S
H726 C703 0.950 . S
H727 C705 0.950 . S
C728 C729 1.349 . S
C728 C730 1.338 . S
C728 H753 0.950 1_556 S
C729 C728 1.349 . S
C729 C745 1.349 . S
C730 C728 1.338 . S
C730 C749 1.480 . S
C730 H754 0.889 1_556 S
C731 C748 1.574 . S
C731 C750 1.368 . S
C731 H755 0.949 . S
H732 C736 0.949 . S
C733 C734 1.349 . S
C733 C735 1.327 . S
C733 H756 0.950 . S
C734 C733 1.349 . S
C734 C746 1.349 1_556 S
C735 C733 1.327 . S
C735 C751 1.429 . S
C735 H757 0.950 . S
C736 H732 0.949 . S
C736 C744 1.574 . S
C736 C752 1.368 1_554 S
H737 C745 0.950 . S
H738 C743 0.950 . S
H739 C744 0.949 . S
H740 C746 0.950 . S
H741 C747 0.950 . S
H742 C748 0.949 . S
C743 H738 0.950 . S
C743 C745 1.327 . S
C743 C749 1.429 . S
C744 C736 1.574 . S
C744 H739 0.949 . S
C744 C750 1.368 1_554 S
C745 C729 1.349 . S
C745 H737 0.950 . S
C745 C743 1.327 . S
C746 C734 1.349 1_554 S
C746 H740 0.950 . S
C746 C747 1.327 . S
C747 H741 0.950 . S
C747 C746 1.327 . S
C747 C751 1.429 1_554 S
C748 C731 1.574 . S
C748 H742 0.949 . S
C748 C752 1.368 . S
C749 C730 1.480 . S
C749 C743 1.429 . S
C749 C750 1.523 . S
C750 C731 1.368 . S
C750 C744 1.368 1_556 S
C750 C749 1.523 . S
C751 C735 1.429 . S
C751 C747 1.429 1_556 S
C751 C752 1.523 . S
C752 C736 1.368 1_556 S
C752 C748 1.368 . S
C752 C751 1.523 . S
H753 C728 0.950 1_554 S
H754 C730 0.889 1_554 S
H755 C731 0.949 . S
H756 C733 0.950 . S
H757 C735 0.950 . S
C758 C759 1.349 . S
C758 C760 1.327 . S
C758 H783 0.950 . S
C759 C758 1.349 . S
C759 C775 1.349 . S
C760 C758 1.327 . S
C760 C779 1.429 . S
C760 H784 0.950 . S
C761 C778 1.574 . S
C761 C780 1.368 . S
C761 H785 0.949 . S
H762 C766 0.949 . S
C763 C764 1.349 . S
C763 C765 1.327 . S
C763 H786 0.950 . S
C764 C763 1.349 . S
C764 C776 1.349 . S
C765 C763 1.327 . S
C765 C781 1.429 . S
C765 H787 0.950 . S
C766 H762 0.949 . S
C766 C774 1.574 . S
C766 C782 1.368 . S
H767 C775 0.950 . S
H768 C773 0.950 . S
H769 C774 0.949 . S
H770 C776 0.950 . S
H771 C777 0.950 . S
H772 C778 0.949 . S
C773 H768 0.950 . S
C773 C775 1.327 . S
C773 C779 1.429 . S
C774 C766 1.574 . S
C774 H769 0.949 . S
C774 C780 1.368 . S
C775 C759 1.349 . S
C775 H767 0.950 . S
C775 C773 1.327 . S
C776 C764 1.349 . S
C776 H770 0.950 . S
C776 C777 1.327 . S
C777 H771 0.950 . S
C777 C776 1.327 . S
C777 C781 1.429 . S
C778 C761 1.574 . S
C778 H772 0.949 . S
C778 C782 1.368 . S
C779 C760 1.429 . S
C779 C773 1.429 . S
C779 C780 1.523 . S
C780 C761 1.368 . S
C780 C774 1.368 . S
C780 C779 1.523 . S
C781 C765 1.429 . S
C781 C777 1.429 . S
C781 C782 1.523 . S
C782 C766 1.368 . S
C782 C778 1.368 . S
C782 C781 1.523 . S
H783 C758 0.950 . S
H784 C760 0.950 . S
H785 C761 0.949 . S
H786 C763 0.950 . S
H787 C765 0.950 . S
C788 C789 1.349 . S
C788 C790 1.327 . S
C788 H813 0.950 . S
C789 C788 1.349 . S
C789 C805 1.349 . S
C790 C788 1.327 . S
C790 C809 1.429 . S
C790 H814 0.950 . S
C791 C808 1.574 . S
C791 C810 1.368 . S
C791 H815 0.949 . S
H792 C796 0.949 . S
C793 C794 1.349 . S
C793 C795 1.327 . S
C793 H816 0.950 . S
C794 C793 1.349 . S
C794 C806 1.349 . S
C795 C793 1.327 . S
C795 C811 1.429 . S
C795 H817 0.950 . S
C796 H792 0.949 . S
C796 C804 1.574 . S
C796 C812 1.368 . S
H797 C805 0.950 . S
H798 C803 0.950 . S
H799 C804 0.949 . S
H800 C806 0.950 . S
H801 C807 0.950 . S
H802 C808 0.949 . S
C803 H798 0.950 . S
C803 C805 1.327 . S
C803 C809 1.429 . S
C804 C796 1.574 . S
C804 H799 0.949 . S
C804 C810 1.368 . S
C805 C789 1.349 . S
C805 H797 0.950 . S
C805 C803 1.327 . S
C806 C794 1.349 . S
C806 H800 0.950 . S
C806 C807 1.327 . S
C807 H801 0.950 . S
C807 C806 1.327 . S
C807 C811 1.429 . S
C808 C791 1.574 . S
C808 H802 0.949 . S
C808 C812 1.368 . S
C809 C790 1.429 . S
C809 C803 1.429 . S
C809 C810 1.523 . S
C810 C791 1.368 . S
C810 C804 1.368 . S
C810 C809 1.523 . S
C811 C795 1.429 . S
C811 C807 1.429 . S
C811 C812 1.523 . S
C812 C796 1.368 . S
C812 C808 1.368 . S
C812 C811 1.523 . S
H813 C788 0.950 . S
H814 C790 0.950 . S
H815 C791 0.949 . S
H816 C793 0.950 . S
H817 C795 0.950 . S
C818 C819 1.349 . S
C818 C820 1.327 . S
C818 H843 0.950 . S
C819 C818 1.349 . S
C819 C835 1.349 . S
C820 C818 1.327 . S
C820 C839 1.429 . S
C820 H844 0.950 . S
C821 C838 1.574 . S
C821 C840 1.368 . S
C821 H845 0.949 . S
H822 C826 0.949 . S
C823 C824 1.349 . S
C823 C825 1.327 . S
C823 H846 0.950 . S
C824 C823 1.349 . S
C824 C836 1.349 . S
C825 C823 1.327 . S
C825 C841 1.429 . S
C825 H847 0.950 . S
C826 H822 0.949 . S
C826 C834 1.574 . S
C826 C842 1.368 . S
H827 C835 0.950 . S
H828 C833 0.950 . S
H829 C834 0.949 . S
H830 C836 0.950 . S
H831 C837 0.950 . S
H832 C838 0.949 . S
C833 H828 0.950 . S
C833 C835 1.327 . S
C833 C839 1.429 . S
C834 C826 1.574 . S
C834 H829 0.949 . S
C834 C840 1.368 . S
C835 C819 1.349 . S
C835 H827 0.950 . S
C835 C833 1.327 . S
C836 C824 1.349 . S
C836 H830 0.950 . S
C836 C837 1.327 . S
C837 H831 0.950 . S
C837 C836 1.327 . S
C837 C841 1.429 . S
C838 C821 1.574 . S
C838 H832 0.949 . S
C838 C842 1.368 . S
C839 C820 1.429 . S
C839 C833 1.429 . S
C839 C840 1.523 . S
C840 C821 1.368 . S
C840 C834 1.368 . S
C840 C839 1.523 . S
C841 C825 1.429 . S
C841 C837 1.429 . S
C841 C842 1.523 . S
C842 C826 1.368 . S
C842 C838 1.368 . S
C842 C841 1.523 . S
H843 C818 0.950 . S
H844 C820 0.950 . S
H845 C821 0.949 . S
H846 C823 0.950 . S
H847 C825 0.950 . S
C848 C849 1.349 . S
C848 C850 1.327 . S
C848 H873 0.950 . S
C849 C848 1.349 . S
C849 C865 1.349 . S
C850 C848 1.327 . S
C850 C869 1.429 . S
C850 H874 0.950 . S
C851 C868 1.574 . S
C851 C870 1.368 . S
C851 H875 0.949 . S
H852 C856 0.949 . S
C853 C854 1.349 . S
C853 C855 1.327 . S
C853 H876 0.950 . S
C854 C853 1.349 . S
C854 C866 1.349 . S
C855 C853 1.327 . S
C855 C871 1.429 . S
C855 H877 0.950 . S
C856 H852 0.949 . S
C856 C864 1.574 . S
C856 C872 1.368 . S
H857 C865 0.950 . S
H858 C863 0.950 . S
H859 C864 0.949 . S
H860 C866 0.950 . S
H861 C867 0.950 . S
H862 C868 0.949 . S
C863 H858 0.950 . S
C863 C865 1.327 . S
C863 C869 1.429 . S
C864 C856 1.574 . S
C864 H859 0.949 . S
C864 C870 1.368 . S
C865 C849 1.349 . S
C865 H857 0.950 . S
C865 C863 1.327 . S
C866 C854 1.349 . S
C866 H860 0.950 . S
C866 C867 1.327 . S
C867 H861 0.950 . S
C867 C866 1.327 . S
C867 C871 1.429 . S
C868 C851 1.574 . S
C868 H862 0.949 . S
C868 C872 1.368 . S
C869 C850 1.429 . S
C869 C863 1.429 . S
C869 C870 1.523 . S
C870 C851 1.368 . S
C870 C864 1.368 . S
C870 C869 1.523 . S
C871 C855 1.429 . S
C871 C867 1.429 . S
C871 C872 1.523 . S
C872 C856 1.368 . S
C872 C868 1.368 . S
C872 C871 1.523 . S
H873 C848 0.950 . S
H874 C850 0.950 . S
H875 C851 0.949 . S
H876 C853 0.950 . S
H877 C855 0.950 . S
C878 C879 1.349 . S
C878 C880 1.327 . S
C878 H903 0.950 . S
C879 C878 1.349 . S
C879 C895 1.349 . S
C880 C878 1.327 . S
C880 C899 1.429 . S
C880 H904 0.950 . S
C881 C898 1.574 . S
C881 C900 1.368 . S
C881 H905 0.949 1_554 S
H882 C886 0.949 . S
C883 C884 1.349 1_556 S
C883 C885 1.327 . S
C883 H906 0.950 . S
C884 C883 1.349 1_554 S
C884 C896 1.349 . S
C885 C883 1.327 . S
C885 C901 1.429 1_556 S
C885 H907 0.950 . S
C886 H882 0.949 . S
C886 C894 1.574 . S
C886 C902 1.368 . S
H887 C895 0.950 . S
H888 C893 0.894 1_556 S
H889 C894 0.949 . S
H890 C896 0.950 . S
H891 C897 0.950 . S
H892 C898 0.949 1_556 S
C893 H888 0.894 1_554 S
C893 C895 1.327 . S
C893 C899 1.429 . S
C894 C886 1.574 . S
C894 H889 0.949 . S
C894 C900 1.368 . S
C895 C879 1.349 . S
C895 H887 0.950 . S
C895 C893 1.327 . S
C896 C884 1.349 . S
C896 H890 0.950 . S
C896 C897 1.327 . S
C897 H891 0.950 . S
C897 C896 1.327 . S
C897 C901 1.429 . S
C898 C881 1.574 . S
C898 H892 0.949 1_554 S
C898 C902 1.368 . S
C899 C880 1.429 . S
C899 C893 1.429 . S
C899 C900 1.523 . S
C900 C881 1.368 . S
C900 C894 1.368 . S
C900 C899 1.523 . S
C901 C885 1.429 1_554 S
C901 C897 1.429 . S
C901 C902 1.523 . S
C902 C886 1.368 . S
C902 C898 1.368 . S
C902 C901 1.523 . S
H903 C878 0.950 . S
H904 C880 0.950 . S
H905 C881 0.949 1_556 S
H906 C883 0.950 . S
H907 C885 0.950 . S
C908 C909 1.349 . S
C908 C910 1.327 . S
C908 H933 0.950 . S
C909 C908 1.349 . S
C909 C925 1.349 . S
C910 C908 1.327 . S
C910 C929 1.429 . S
C910 H934 0.950 . S
C911 C928 1.574 . S
C911 C930 1.368 . S
C911 H935 0.949 . S
H912 C916 0.949 . S
C913 C914 1.349 . S
C913 C915 1.327 . S
C913 H936 0.950 . S
C914 C913 1.349 . S
C914 C926 1.349 . S
C915 C913 1.327 . S
C915 C931 1.429 . S
C915 H937 0.950 . S
C916 H912 0.949 . S
C916 C924 1.574 . S
C916 C932 1.368 . S
H917 C925 0.950 . S
H918 C923 0.950 . S
H919 C924 0.949 . S
H920 C926 0.950 . S
H921 C927 0.950 . S
H922 C928 0.949 . S
C923 H918 0.950 . S
C923 C925 1.327 . S
C923 C929 1.429 . S
C924 C916 1.574 . S
C924 H919 0.949 . S
C924 C930 1.368 . S
C925 C909 1.349 . S
C925 H917 0.950 . S
C925 C923 1.327 . S
C926 C914 1.349 . S
C926 H920 0.950 . S
C926 C927 1.327 . S
C927 H921 0.950 . S
C927 C926 1.327 . S
C927 C931 1.429 . S
C928 C911 1.574 . S
C928 H922 0.949 . S
C928 C932 1.368 . S
C929 C910 1.429 . S
C929 C923 1.429 . S
C929 C930 1.523 . S
C930 C911 1.368 . S
C930 C924 1.368 . S
C930 C929 1.523 . S
C931 C915 1.429 . S
C931 C927 1.429 . S
C931 C932 1.523 . S
C932 C916 1.368 . S
C932 C928 1.368 . S
C932 C931 1.523 . S
H933 C908 0.950 . S
H934 C910 0.950 . S
H935 C911 0.949 . S
H936 C913 0.950 . S
H937 C915 0.950 . S
C938 C939 1.349 . S
C938 C940 1.327 . S
C938 H963 0.950 . S
C939 C938 1.349 . S
C939 C955 1.349 . S
C940 C938 1.327 . S
C940 C959 1.429 . S
C940 H964 0.950 . S
C941 C958 1.574 . S
C941 C960 1.368 . S
C941 H965 0.949 . S
H942 C946 0.949 . S
C943 C944 1.349 . S
C943 C945 1.327 . S
C943 H966 0.950 . S
C944 C943 1.349 . S
C944 C956 1.349 . S
C945 C943 1.327 . S
C945 C961 1.429 . S
C945 H967 0.950 . S
C946 H942 0.949 . S
C946 C954 1.574 . S
C946 C962 1.368 . S
H947 C955 0.950 . S
H948 C953 0.950 . S
H949 C954 0.949 . S
H950 C956 0.950 . S
H951 C957 0.950 . S
H952 C958 0.949 . S
C953 H948 0.950 . S
C953 C955 1.327 . S
C953 C959 1.429 . S
C954 C946 1.574 . S
C954 H949 0.949 . S
C954 C960 1.368 . S
C955 C939 1.349 . S
C955 H947 0.950 . S
C955 C953 1.327 . S
C956 C944 1.349 . S
C956 H950 0.950 . S
C956 C957 1.327 . S
C957 H951 0.950 . S
C957 C956 1.327 . S
C957 C961 1.429 . S
C958 C941 1.574 . S
C958 H952 0.949 . S
C958 C962 1.368 . S
C959 C940 1.429 . S
C959 C953 1.429 . S
C959 C960 1.523 . S
C960 C941 1.368 . S
C960 C954 1.368 . S
C960 C959 1.523 . S
C961 C945 1.429 . S
C961 C957 1.429 . S
C961 C962 1.523 . S
C962 C946 1.368 . S
C962 C958 1.368 . S
C962 C961 1.523 . S
H963 C938 0.950 . S
H964 C940 0.950 . S
H965 C941 0.949 . S
H966 C943 0.950 . S
H967 C945 0.950 . S
C968 C969 1.349 . S
C968 C970 1.327 . S
C968 H993 0.950 . S
C969 C968 1.349 . S
C969 C985 1.349 . S
C970 C968 1.327 . S
C970 C989 1.429 . S
C970 H994 0.950 . S
C971 C988 1.574 . S
C971 C990 1.368 . S
C971 H995 0.949 . S
H972 C976 0.949 . S
C973 C974 1.349 . S
C973 C975 1.327 . S
C973 H996 0.950 . S
C974 C973 1.349 . S
C974 C986 1.349 . S
C975 C973 1.327 . S
C975 C991 1.429 . S
C975 H997 0.950 . S
C976 H972 0.949 . S
C976 C984 1.574 . S
C976 C992 1.368 . S
H977 C985 0.950 . S
H978 C983 0.950 . S
H979 C984 0.949 . S
H980 C986 0.950 . S
H981 C987 0.950 . S
H982 C988 0.949 . S
C983 H978 0.950 . S
C983 C985 1.327 . S
C983 C989 1.429 . S
C984 C976 1.574 . S
C984 H979 0.949 . S
C984 C990 1.368 . S
C985 C969 1.349 . S
C985 H977 0.950 . S
C985 C983 1.327 . S
C986 C974 1.349 . S
C986 H980 0.950 . S
C986 C987 1.327 . S
C987 H981 0.950 . S
C987 C986 1.327 . S
C987 C991 1.429 . S
C988 C971 1.574 . S
C988 H982 0.949 . S
C988 C992 1.368 . S
C989 C970 1.429 . S
C989 C983 1.429 . S
C989 C990 1.523 . S
C990 C971 1.368 . S
C990 C984 1.368 . S
C990 C989 1.523 . S
C991 C975 1.429 . S
C991 C987 1.429 . S
C991 C992 1.523 . S
C992 C976 1.368 . S
C992 C988 1.368 . S
C992 C991 1.523 . S
H993 C968 0.950 . S
H994 C970 0.950 . S
H995 C971 0.949 . S
H996 C973 0.950 . S
H997 C975 0.950 . S
C998 C999 1.349 . S
C998 C1000 1.327 . S
C998 H1023 0.950 . S
C999 C998 1.349 . S
C999 C1015 1.349 . S
C1000 C998 1.327 . S
C1000 C1019 1.429 . S
C1000 H1024 0.950 . S
C1001 C1018 1.574 . S
C1001 C1020 1.368 . S
C1001 H1025 0.949 . S
H1002 C1006 0.949 . S
C1003 C1004 1.349 . S
C1003 C1005 1.327 . S
C1003 H1026 0.950 . S
C1004 C1003 1.349 . S
C1004 C1016 1.349 . S
C1005 C1003 1.327 . S
C1005 C1021 1.429 . S
C1005 H1027 0.950 . S
C1006 H1002 0.949 . S
C1006 C1014 1.574 . S
C1006 C1022 1.368 . S
H1007 C1015 0.950 . S
H1008 C1013 0.950 . S
H1009 C1014 0.949 . S
H1010 C1016 0.950 . S
H1011 C1017 0.950 . S
H1012 C1018 0.949 . S
C1013 H1008 0.950 . S
C1013 C1015 1.327 . S
C1013 C1019 1.429 . S
C1014 C1006 1.574 . S
C1014 H1009 0.949 . S
C1014 C1020 1.368 . S
C1015 C999 1.349 . S
C1015 H1007 0.950 . S
C1015 C1013 1.327 . S
C1016 C1004 1.349 . S
C1016 H1010 0.950 . S
C1016 C1017 1.327 . S
C1017 H1011 0.950 . S
C1017 C1016 1.327 . S
C1017 C1021 1.429 . S
C1018 C1001 1.574 . S
C1018 H1012 0.949 . S
C1018 C1022 1.368 . S
C1019 C1000 1.429 . S
C1019 C1013 1.429 . S
C1019 C1020 1.523 . S
C1020 C1001 1.368 . S
C1020 C1014 1.368 . S
C1020 C1019 1.523 . S
C1021 C1005 1.429 . S
C1021 C1017 1.429 . S
C1021 C1022 1.523 . S
C1022 C1006 1.368 . S
C1022 C1018 1.368 . S
C1022 C1021 1.523 . S
H1023 C998 0.950 . S
H1024 C1000 0.950 . S
H1025 C1001 0.949 . S
H1026 C1003 0.950 . S
H1027 C1005 0.950 . S
C1028 C1029 1.349 . S
C1028 C1030 1.327 . S
C1028 H1053 0.950 . S
C1029 C1028 1.349 . S
C1029 C1045 1.349 . S
C1030 C1028 1.327 . S
C1030 C1049 1.429 . S
C1030 H1054 0.950 . S
C1031 C1048 1.574 . S
C1031 C1050 1.368 1_554 S
C1031 H1055 0.949 . S
H1032 C1036 0.949 . S
C1033 C1034 1.349 1_554 S
C1033 C1035 1.327 . S
C1033 H1056 0.950 . S
C1034 C1033 1.349 1_556 S
C1034 C1046 1.349 . S
C1035 C1033 1.327 . S
C1035 C1051 1.429 1_554 S
C1035 H1057 0.950 . S
C1036 H1032 0.949 . S
C1036 C1044 1.574 . S
C1036 C1052 1.368 . S
H1037 C1045 0.950 1_554 S
H1038 C1043 0.950 1_554 S
H1039 C1044 0.949 . S
H1040 C1046 0.950 . S
H1041 C1047 0.950 . S
H1042 C1048 0.949 . S
C1043 H1038 0.950 1_556 S
C1043 C1045 1.327 . S
C1043 C1049 1.429 . S
C1044 C1036 1.574 . S
C1044 H1039 0.949 . S
C1044 C1050 1.368 . S
C1045 C1029 1.349 . S
C1045 H1037 0.950 1_556 S
C1045 C1043 1.327 . S
C1046 C1034 1.349 . S
C1046 H1040 0.950 . S
C1046 C1047 1.327 . S
C1047 H1041 0.950 . S
C1047 C1046 1.327 . S
C1047 C1051 1.429 . S
C1048 C1031 1.574 . S
C1048 H1042 0.949 . S
C1048 C1052 1.368 1_554 S
C1049 C1030 1.429 . S
C1049 C1043 1.429 . S
C1049 C1050 1.523 . S
C1050 C1031 1.368 1_556 S
C1050 C1044 1.368 . S
C1050 C1049 1.523 . S
C1051 C1035 1.429 1_556 S
C1051 C1047 1.429 . S
C1051 C1052 1.523 . S
C1052 C1036 1.368 . S
C1052 C1048 1.368 1_556 S
C1052 C1051 1.523 . S
H1053 C1028 0.950 . S
H1054 C1030 0.950 . S
H1055 C1031 0.949 . S
H1056 C1033 0.950 . S
H1057 C1035 0.950 . S
C1058 C1059 1.349 . S
C1058 C1060 1.327 . S
C1058 H1083 0.950 . S
C1059 C1058 1.349 . S
C1059 C1075 1.349 . S
C1060 C1058 1.327 . S
C1060 C1079 1.429 . S
C1060 H1084 0.950 . S
C1061 C1078 1.574 . S
C1061 C1080 1.368 . S
C1061 H1085 0.949 . S
H1062 C1066 0.949 . S
C1063 C1064 1.349 . S
C1063 C1065 1.327 . S
C1063 H1086 0.950 . S
C1064 C1063 1.349 . S
C1064 C1076 1.349 . S
C1065 C1063 1.327 . S
C1065 C1081 1.429 . S
C1065 H1087 0.950 . S
C1066 H1062 0.949 . S
C1066 C1074 1.574 . S
C1066 C1082 1.368 . S
H1067 C1075 0.950 . S
H1068 C1073 0.950 . S
H1069 C1074 0.949 . S
H1070 C1076 0.950 . S
H1071 C1077 0.950 . S
H1072 C1078 0.949 . S
C1073 H1068 0.950 . S
C1073 C1075 1.327 . S
C1073 C1079 1.429 . S
C1074 C1066 1.574 . S
C1074 H1069 0.949 . S
C1074 C1080 1.368 . S
C1075 C1059 1.349 . S
C1075 H1067 0.950 . S
C1075 C1073 1.327 . S
C1076 C1064 1.349 . S
C1076 H1070 0.950 . S
C1076 C1077 1.327 . S
C1077 H1071 0.950 . S
C1077 C1076 1.327 . S
C1077 C1081 1.429 . S
C1078 C1061 1.574 . S
C1078 H1072 0.949 . S
C1078 C1082 1.368 . S
C1079 C1060 1.429 . S
C1079 C1073 1.429 . S
C1079 C1080 1.523 . S
C1080 C1061 1.368 . S
C1080 C1074 1.368 . S
C1080 C1079 1.523 . S
C1081 C1065 1.429 . S
C1081 C1077 1.429 . S
C1081 C1082 1.523 . S
C1082 C1066 1.368 . S
C1082 C1078 1.368 . S
C1082 C1081 1.523 . S
H1083 C1058 0.950 . S
H1084 C1060 0.950 . S
H1085 C1061 0.949 . S
H1086 C1063 0.950 . S
H1087 C1065 0.950 . S
C1088 C1089 1.349 . S
C1088 C1090 1.327 . S
C1088 H1113 0.950 . S
C1089 C1088 1.349 . S
C1089 C1105 1.349 . S
C1090 C1088 1.327 . S
C1090 C1109 1.429 . S
C1090 H1114 0.950 . S
C1091 C1108 1.574 . S
C1091 C1110 1.368 . S
C1091 H1115 0.949 . S
H1092 C1096 0.949 . S
C1093 C1094 1.349 . S
C1093 C1095 1.327 . S
C1093 H1116 0.950 . S
C1094 C1093 1.349 . S
C1094 C1106 1.349 . S
C1095 C1093 1.327 . S
C1095 C1111 1.429 . S
C1095 H1117 0.950 . S
C1096 H1092 0.949 . S
C1096 C1104 1.574 . S
C1096 C1112 1.368 . S
H1097 C1105 0.950 . S
H1098 C1103 0.950 . S
H1099 C1104 0.949 . S
H1100 C1106 0.950 . S
H1101 C1107 0.950 . S
H1102 C1108 0.949 . S
C1103 H1098 0.950 . S
C1103 C1105 1.327 . S
C1103 C1109 1.429 . S
C1104 C1096 1.574 . S
C1104 H1099 0.949 . S
C1104 C1110 1.368 . S
C1105 C1089 1.349 . S
C1105 H1097 0.950 . S
C1105 C1103 1.327 . S
C1106 C1094 1.349 . S
C1106 H1100 0.950 . S
C1106 C1107 1.327 . S
C1107 H1101 0.950 . S
C1107 C1106 1.327 . S
C1107 C1111 1.429 . S
C1108 C1091 1.574 . S
C1108 H1102 0.949 . S
C1108 C1112 1.368 . S
C1109 C1090 1.429 . S
C1109 C1103 1.429 . S
C1109 C1110 1.523 . S
C1110 C1091 1.368 . S
C1110 C1104 1.368 . S
C1110 C1109 1.523 . S
C1111 C1095 1.429 . S
C1111 C1107 1.429 . S
C1111 C1112 1.523 . S
C1112 C1096 1.368 . S
C1112 C1108 1.368 . S
C1112 C1111 1.523 . S
H1113 C1088 0.950 . S
H1114 C1090 0.950 . S
H1115 C1091 0.949 . S
H1116 C1093 0.950 . S
H1117 C1095 0.950 . S
C1118 C1119 1.349 . S
C1118 C1120 1.327 . S
C1118 H1143 0.950 . S
C1119 C1118 1.349 . S
C1119 C1135 1.349 . S
C1120 C1118 1.327 . S
C1120 C1139 1.429 . S
C1120 H1144 0.950 . S
C1121 C1138 1.574 . S
C1121 C1140 1.368 . S
C1121 H1145 0.949 . S
H1122 C1126 0.949 . S
C1123 C1124 1.349 . S
C1123 C1125 1.327 . S
C1123 H1146 0.950 . S
C1124 C1123 1.349 . S
C1124 C1136 1.349 . S
C1125 C1123 1.327 . S
C1125 C1141 1.429 . S
C1125 H1147 0.950 . S
C1126 H1122 0.949 . S
C1126 C1134 1.574 . S
C1126 C1142 1.368 . S
H1127 C1135 0.950 . S
H1128 C1133 0.950 . S
H1129 C1134 0.949 . S
H1130 C1136 0.950 . S
H1131 C1137 0.950 . S
H1132 C1138 0.949 . S
C1133 H1128 0.950 . S
C1133 C1135 1.327 . S
C1133 C1139 1.429 . S
C1134 C1126 1.574 . S
C1134 H1129 0.949 . S
C1134 C1140 1.368 . S
C1135 C1119 1.349 . S
C1135 H1127 0.950 . S
C1135 C1133 1.327 . S
C1136 C1124 1.349 . S
C1136 H1130 0.950 . S
C1136 C1137 1.327 . S
C1137 H1131 0.950 . S
C1137 C1136 1.327 . S
C1137 C1141 1.429 . S
C1138 C1121 1.574 . S
C1138 H1132 0.949 . S
C1138 C1142 1.368 . S
C1139 C1120 1.429 . S
C1139 C1133 1.429 . S
C1139 C1140 1.523 . S
C1140 C1121 1.368 . S
C1140 C1134 1.368 . S
C1140 C1139 1.523 . S
C1141 C1125 1.429 . S
C1141 C1137 1.429 . S
C1141 C1142 1.523 . S
C1142 C1126 1.368 . S
C1142 C1138 1.368 . S
C1142 C1141 1.523 . S
H1143 C1118 0.950 . S
H1144 C1120 0.950 . S
H1145 C1121 0.949 . S
H1146 C1123 0.950 . S
H1147 C1125 0.950 . S
C1148 C1149 1.349 . S
C1148 C1150 1.327 . S
C1148 H1173 0.950 . S
C1149 C1148 1.349 . S
C1149 C1165 1.349 . S
C1150 C1148 1.327 . S
C1150 C1169 1.429 . S
C1150 H1174 0.950 . S
C1151 C1168 1.574 . S
C1151 C1170 1.368 . S
C1151 H1175 0.949 . S
H1152 C1156 0.949 . S
C1153 C1154 1.349 . S
C1153 C1155 1.327 . S
C1153 H1176 0.950 . S
C1154 C1153 1.349 . S
C1154 C1166 1.349 . S
C1155 C1153 1.327 . S
C1155 C1171 1.429 . S
C1155 H1177 0.950 . S
C1156 H1152 0.949 . S
C1156 C1164 1.574 . S
C1156 C1172 1.368 . S
H1157 C1165 0.950 . S
H1158 C1163 0.950 . S
H1159 C1164 0.949 . S
H1160 C1166 0.950 . S
H1161 C1167 0.950 . S
H1162 C1168 0.949 . S
C1163 H1158 0.950 . S
C1163 C1165 1.327 . S
C1163 C1169 1.429 . S
C1164 C1156 1.574 . S
C1164 H1159 0.949 . S
C1164 C1170 1.368 . S
C1165 C1149 1.349 . S
C1165 H1157 0.950 . S
C1165 C1163 1.327 . S
C1166 C1154 1.349 . S
C1166 H1160 0.950 . S
C1166 C1167 1.327 . S
C1167 H1161 0.950 . S
C1167 C1166 1.327 . S
C1167 C1171 1.429 . S
C1168 C1151 1.574 . S
C1168 H1162 0.949 . S
C1168 C1172 1.368 . S
C1169 C1150 1.429 . S
C1169 C1163 1.429 . S
C1169 C1170 1.523 . S
C1170 C1151 1.368 . S
C1170 C1164 1.368 . S
C1170 C1169 1.523 . S
C1171 C1155 1.429 . S
C1171 C1167 1.429 . S
C1171 C1172 1.523 . S
C1172 C1156 1.368 . S
C1172 C1168 1.368 . S
C1172 C1171 1.523 . S
H1173 C1148 0.950 . S
H1174 C1150 0.950 . S
H1175 C1151 0.949 . S
H1176 C1153 0.950 . S
H1177 C1155 0.950 . S
C1178 C1179 1.349 . S
C1178 C1180 1.327 . S
C1178 H1203 0.950 . S
C1179 C1178 1.349 . S
C1179 C1195 1.349 . S
C1180 C1178 1.327 . S
C1180 C1199 1.429 . S
C1180 H1204 0.950 . S
C1181 C1198 1.574 . S
C1181 C1200 1.368 . S
C1181 H1205 0.949 . S
H1182 C1186 0.949 . S
C1183 C1184 1.349 . S
C1183 C1185 1.327 . S
C1183 H1206 0.950 . S
C1184 C1183 1.349 . S
C1184 C1196 1.349 . S
C1185 C1183 1.327 . S
C1185 C1201 1.429 . S
C1185 H1207 0.950 . S
C1186 H1182 0.949 . S
C1186 C1194 1.574 . S
C1186 C1202 1.368 . S
H1187 C1195 0.950 . S
H1188 C1193 0.950 . S
H1189 C1194 0.949 . S
H1190 C1196 0.950 . S
H1191 C1197 0.950 . S
H1192 C1198 0.949 . S
C1193 H1188 0.950 . S
C1193 C1195 1.327 . S
C1193 C1199 1.429 . S
C1194 C1186 1.574 . S
C1194 H1189 0.949 . S
C1194 C1200 1.368 . S
C1195 C1179 1.349 . S
C1195 H1187 0.950 . S
C1195 C1193 1.327 . S
C1196 C1184 1.349 . S
C1196 H1190 0.950 . S
C1196 C1197 1.327 . S
C1197 H1191 0.950 . S
C1197 C1196 1.327 . S
C1197 C1201 1.429 . S
C1198 C1181 1.574 . S
C1198 H1192 0.949 . S
C1198 C1202 1.368 . S
C1199 C1180 1.429 . S
C1199 C1193 1.429 . S
C1199 C1200 1.523 . S
C1200 C1181 1.368 . S
C1200 C1194 1.368 . S
C1200 C1199 1.523 . S
C1201 C1185 1.429 . S
C1201 C1197 1.429 . S
C1201 C1202 1.523 . S
C1202 C1186 1.368 . S
C1202 C1198 1.368 . S
C1202 C1201 1.523 . S
H1203 C1178 0.950 . S
H1204 C1180 0.950 . S
H1205 C1181 0.949 . S
H1206 C1183 0.950 . S
H1207 C1185 0.950 . S
C1208 C1209 1.349 . S
C1208 C1210 1.327 . S
C1208 H1233 0.950 . S
C1209 C1208 1.349 . S
C1209 C1225 1.349 . S
C1210 C1208 1.327 . S
C1210 C1229 1.429 . S
C1210 H1234 0.950 . S
C1211 C1228 1.574 . S
C1211 C1230 1.368 . S
C1211 H1235 0.949 . S
H1212 C1216 0.949 . S
C1213 C1214 1.349 . S
C1213 C1215 1.327 . S
C1213 H1236 0.950 . S
C1214 C1213 1.349 . S
C1214 C1226 1.349 . S
C1215 C1213 1.327 . S
C1215 C1231 1.429 . S
C1215 H1237 0.950 . S
C1216 H1212 0.949 . S
C1216 C1224 1.574 . S
C1216 C1232 1.368 . S
H1217 C1225 0.950 . S
H1218 C1223 0.950 . S
H1219 C1224 0.949 . S
H1220 C1226 0.950 . S
H1221 C1227 0.950 . S
H1222 C1228 0.949 . S
C1223 H1218 0.950 . S
C1223 C1225 1.327 . S
C1223 C1229 1.429 . S
C1224 C1216 1.574 . S
C1224 H1219 0.949 . S
C1224 C1230 1.368 . S
C1225 C1209 1.349 . S
C1225 H1217 0.950 . S
C1225 C1223 1.327 . S
C1226 C1214 1.349 . S
C1226 H1220 0.950 . S
C1226 C1227 1.327 . S
C1227 H1221 0.950 . S
C1227 C1226 1.327 . S
C1227 C1231 1.429 . S
C1228 C1211 1.574 . S
C1228 H1222 0.949 . S
C1228 C1232 1.368 . S
C1229 C1210 1.429 . S
C1229 C1223 1.429 . S
C1229 C1230 1.523 . S
C1230 C1211 1.368 . S
C1230 C1224 1.368 . S
C1230 C1229 1.523 . S
C1231 C1215 1.429 . S
C1231 C1227 1.429 . S
C1231 C1232 1.523 . S
C1232 C1216 1.368 . S
C1232 C1228 1.368 . S
C1232 C1231 1.523 . S
H1233 C1208 0.950 . S
H1234 C1210 0.950 . S
H1235 C1211 0.949 . S
H1236 C1213 0.950 . S
H1237 C1215 0.950 . S
C1238 C1239 1.349 . S
C1238 C1240 1.327 . S
C1238 H1263 0.950 . S
C1239 C1238 1.349 . S
C1239 C1255 1.349 . S
C1240 C1238 1.327 . S
C1240 C1259 1.429 . S
C1240 H1264 0.950 . S
C1241 C1258 1.574 . S
C1241 C1260 1.368 . S
C1241 H1265 0.949 . S
H1242 C1246 0.949 . S
C1243 C1244 1.349 . S
C1243 C1245 1.327 . S
C1243 H1266 0.950 . S
C1244 C1243 1.349 . S
C1244 C1256 1.349 . S
C1245 C1243 1.327 . S
C1245 C1261 1.429 . S
C1245 H1267 0.950 . S
C1246 H1242 0.949 . S
C1246 C1254 1.574 . S
C1246 C1262 1.368 . S
H1247 C1255 0.950 . S
H1248 C1253 0.950 . S
H1249 C1254 0.949 . S
H1250 C1256 0.950 . S
H1251 C1257 0.950 . S
H1252 C1258 0.949 . S
C1253 H1248 0.950 . S
C1253 C1255 1.327 . S
C1253 C1259 1.429 . S
C1254 C1246 1.574 . S
C1254 H1249 0.949 . S
C1254 C1260 1.368 . S
C1255 C1239 1.349 . S
C1255 H1247 0.950 . S
C1255 C1253 1.327 . S
C1256 C1244 1.349 . S
C1256 H1250 0.950 . S
C1256 C1257 1.327 . S
C1257 H1251 0.950 . S
C1257 C1256 1.327 . S
C1257 C1261 1.429 . S
C1258 C1241 1.574 . S
C1258 H1252 0.949 . S
C1258 C1262 1.368 . S
C1259 C1240 1.429 . S
C1259 C1253 1.429 . S
C1259 C1260 1.523 . S
C1260 C1241 1.368 . S
C1260 C1254 1.368 . S
C1260 C1259 1.523 . S
C1261 C1245 1.429 . S
C1261 C1257 1.429 . S
C1261 C1262 1.523 . S
C1262 C1246 1.368 . S
C1262 C1258 1.368 . S
C1262 C1261 1.523 . S
H1263 C1238 0.950 . S
H1264 C1240 0.950 . S
H1265 C1241 0.949 . S
H1266 C1243 0.950 . S
H1267 C1245 0.950 . S
C1268 C1269 1.349 . S
C1268 C1270 1.327 . S
C1268 H1293 0.950 . S
C1269 C1268 1.349 . S
C1269 C1285 1.349 . S
C1270 C1268 1.327 . S
C1270 C1289 1.429 . S
C1270 H1294 0.950 . S
C1271 C1288 1.574 . S
C1271 C1290 1.368 . S
C1271 H1295 0.949 . S
H1272 C1276 0.949 . S
C1273 C1274 1.349 . S
C1273 C1275 1.327 . S
C1273 H1296 0.950 . S
C1274 C1273 1.349 . S
C1274 C1286 1.349 . S
C1275 C1273 1.327 . S
C1275 C1291 1.429 . S
C1275 H1297 0.950 . S
C1276 H1272 0.949 . S
C1276 C1284 1.574 . S
C1276 C1292 1.368 . S
H1277 C1285 0.950 . S
H1278 C1283 0.950 . S
H1279 C1284 0.949 . S
H1280 C1286 0.950 . S
H1281 C1287 0.950 . S
H1282 C1288 0.949 . S
C1283 H1278 0.950 . S
C1283 C1285 1.327 . S
C1283 C1289 1.429 . S
C1284 C1276 1.574 . S
C1284 H1279 0.949 . S
C1284 C1290 1.368 . S
C1285 C1269 1.349 . S
C1285 H1277 0.950 . S
C1285 C1283 1.327 . S
C1286 C1274 1.349 . S
C1286 H1280 0.950 . S
C1286 C1287 1.327 . S
C1287 H1281 0.950 . S
C1287 C1286 1.327 . S
C1287 C1291 1.429 . S
C1288 C1271 1.574 . S
C1288 H1282 0.949 . S
C1288 C1292 1.368 . S
C1289 C1270 1.429 . S
C1289 C1283 1.429 . S
C1289 C1290 1.523 . S
C1290 C1271 1.368 . S
C1290 C1284 1.368 . S
C1290 C1289 1.523 . S
C1291 C1275 1.429 . S
C1291 C1287 1.429 . S
C1291 C1292 1.523 . S
C1292 C1276 1.368 . S
C1292 C1288 1.368 . S
C1292 C1291 1.523 . S
H1293 C1268 0.950 . S
H1294 C1270 0.950 . S
H1295 C1271 0.949 . S
H1296 C1273 0.950 . S
H1297 C1275 0.950 . S
C1298 C1299 1.349 . S
C1298 C1300 1.327 . S
C1298 H1323 0.950 . S
C1299 C1298 1.349 . S
C1299 C1315 1.349 . S
C1300 C1298 1.327 . S
C1300 C1319 1.429 . S
C1300 H1324 0.950 . S
C1301 C1318 1.574 . S
C1301 C1320 1.368 . S
C1301 H1325 0.949 . S
H1302 C1306 0.949 . S
C1303 C1304 1.349 . S
C1303 C1305 1.327 . S
C1303 H1326 0.950 . S
C1304 C1303 1.349 . S
C1304 C1316 1.349 . S
C1305 C1303 1.327 . S
C1305 C1321 1.429 . S
C1305 H1327 0.950 . S
C1306 H1302 0.949 . S
C1306 C1314 1.574 . S
C1306 C1322 1.368 . S
H1307 C1315 0.950 . S
H1308 C1313 0.950 . S
H1309 C1314 0.949 . S
H1310 C1316 0.950 . S
H1311 C1317 0.950 . S
H1312 C1318 0.949 . S
C1313 H1308 0.950 . S
C1313 C1315 1.327 . S
C1313 C1319 1.429 . S
C1314 C1306 1.574 . S
C1314 H1309 0.949 . S
C1314 C1320 1.368 . S
C1315 C1299 1.349 . S
C1315 H1307 0.950 . S
C1315 C1313 1.327 . S
C1316 C1304 1.349 . S
C1316 H1310 0.950 . S
C1316 C1317 1.327 . S
C1317 H1311 0.950 . S
C1317 C1316 1.327 . S
C1317 C1321 1.429 . S
C1318 C1301 1.574 . S
C1318 H1312 0.949 . S
C1318 C1322 1.368 . S
C1319 C1300 1.429 . S
C1319 C1313 1.429 . S
C1319 C1320 1.523 . S
C1320 C1301 1.368 . S
C1320 C1314 1.368 . S
C1320 C1319 1.523 . S
C1321 C1305 1.429 . S
C1321 C1317 1.429 . S
C1321 C1322 1.523 . S
C1322 C1306 1.368 . S
C1322 C1318 1.368 . S
C1322 C1321 1.523 . S
H1323 C1298 0.950 . S
H1324 C1300 0.950 . S
H1325 C1301 0.949 . S
H1326 C1303 0.950 . S
H1327 C1305 0.950 . S
C1328 C1329 1.349 . S
C1328 C1330 1.327 . S
C1328 H1353 0.950 . S
C1329 C1328 1.349 . S
C1329 C1345 1.349 . S
C1330 C1328 1.327 . S
C1330 C1349 1.429 . S
C1330 H1354 0.950 . S
C1331 C1348 1.574 . S
C1331 C1350 1.368 . S
C1331 H1355 0.949 . S
H1332 C1336 0.949 . S
C1333 C1334 1.349 . S
C1333 C1335 1.327 . S
C1333 H1356 0.950 . S
C1334 C1333 1.349 . S
C1334 C1346 1.349 . S
C1335 C1333 1.327 . S
C1335 C1351 1.429 . S
C1335 H1357 0.950 . S
C1336 H1332 0.949 . S
C1336 C1344 1.574 . S
C1336 C1352 1.368 . S
H1337 C1345 0.950 . S
H1338 C1343 0.950 . S
H1339 C1344 0.949 . S
H1340 C1346 0.950 . S
H1341 C1347 0.950 . S
H1342 C1348 0.949 . S
C1343 H1338 0.950 . S
C1343 C1345 1.327 . S
C1343 C1349 1.429 . S
C1344 C1336 1.574 . S
C1344 H1339 0.949 . S
C1344 C1350 1.368 . S
C1345 C1329 1.349 . S
C1345 H1337 0.950 . S
C1345 C1343 1.327 . S
C1346 C1334 1.349 . S
C1346 H1340 0.950 . S
C1346 C1347 1.327 . S
C1347 H1341 0.950 . S
C1347 C1346 1.327 . S
C1347 C1351 1.429 . S
C1348 C1331 1.574 . S
C1348 H1342 0.949 . S
C1348 C1352 1.368 . S
C1349 C1330 1.429 . S
C1349 C1343 1.429 . S
C1349 C1350 1.523 . S
C1350 C1331 1.368 . S
C1350 C1344 1.368 . S
C1350 C1349 1.523 . S
C1351 C1335 1.429 . S
C1351 C1347 1.429 . S
C1351 C1352 1.523 . S
C1352 C1336 1.368 . S
C1352 C1348 1.368 . S
C1352 C1351 1.523 . S
H1353 C1328 0.950 . S
H1354 C1330 0.950 . S
H1355 C1331 0.949 . S
H1356 C1333 0.950 . S
H1357 C1335 0.950 . S
C1358 C1359 1.349 . S
C1358 C1360 1.327 . S
C1358 H1383 0.950 . S
C1359 C1358 1.349 . S
C1359 C1375 1.349 . S
C1360 C1358 1.327 . S
C1360 C1379 1.429 . S
C1360 H1384 0.950 . S
C1361 C1378 1.574 . S
C1361 C1380 1.368 . S
C1361 H1385 0.949 . S
H1362 C1366 0.949 . S
C1363 C1364 1.349 . S
C1363 C1365 1.327 . S
C1363 H1386 0.950 . S
C1364 C1363 1.349 . S
C1364 C1376 1.349 . S
C1365 C1363 1.327 . S
C1365 C1381 1.429 . S
C1365 H1387 0.950 . S
C1366 H1362 0.949 . S
C1366 C1374 1.574 . S
C1366 C1382 1.368 . S
H1367 C1375 0.950 . S
H1368 C1373 0.950 . S
H1369 C1374 0.949 . S
H1370 C1376 0.950 . S
H1371 C1377 0.950 . S
H1372 C1378 0.949 . S
C1373 H1368 0.950 . S
C1373 C1375 1.327 . S
C1373 C1379 1.429 . S
C1374 C1366 1.574 . S
C1374 H1369 0.949 . S
C1374 C1380 1.368 . S
C1375 C1359 1.349 . S
C1375 H1367 0.950 . S
C1375 C1373 1.327 . S
C1376 C1364 1.349 . S
C1376 H1370 0.950 . S
C1376 C1377 1.327 . S
C1377 H1371 0.950 . S
C1377 C1376 1.327 . S
C1377 C1381 1.429 . S
C1378 C1361 1.574 . S
C1378 H1372 0.949 . S
C1378 C1382 1.368 . S
C1379 C1360 1.429 . S
C1379 C1373 1.429 . S
C1379 C1380 1.523 . S
C1380 C1361 1.368 . S
C1380 C1374 1.368 . S
C1380 C1379 1.523 . S
C1381 C1365 1.429 . S
C1381 C1377 1.429 . S
C1381 C1382 1.523 . S
C1382 C1366 1.368 . S
C1382 C1378 1.368 . S
C1382 C1381 1.523 . S
H1383 C1358 0.950 . S
H1384 C1360 0.950 . S
H1385 C1361 0.949 . S
H1386 C1363 0.950 . S
H1387 C1365 0.950 . S
C1388 C1389 1.349 . S
C1388 C1390 1.327 . S
C1388 H1413 0.950 . S
C1389 C1388 1.349 . S
C1389 C1405 1.349 . S
C1390 C1388 1.327 . S
C1390 C1409 1.429 . S
C1390 H1414 0.950 . S
C1391 C1408 1.574 . S
C1391 C1410 1.368 . S
C1391 H1415 0.949 . S
H1392 C1396 0.949 . S
C1393 C1394 1.349 . S
C1393 C1395 1.327 . S
C1393 H1416 0.950 . S
C1394 C1393 1.349 . S
C1394 C1406 1.349 . S
C1395 C1393 1.327 . S
C1395 C1411 1.429 . S
C1395 H1417 0.950 . S
C1396 H1392 0.949 . S
C1396 C1404 1.574 . S
C1396 C1412 1.368 . S
H1397 C1405 0.950 . S
H1398 C1403 0.950 . S
H1399 C1404 0.949 . S
H1400 C1406 0.950 . S
H1401 C1407 0.950 . S
H1402 C1408 0.949 . S
C1403 H1398 0.950 . S
C1403 C1405 1.327 . S
C1403 C1409 1.429 . S
C1404 C1396 1.574 . S
C1404 H1399 0.949 . S
C1404 C1410 1.368 . S
C1405 C1389 1.349 . S
C1405 H1397 0.950 . S
C1405 C1403 1.327 . S
C1406 C1394 1.349 . S
C1406 H1400 0.950 . S
C1406 C1407 1.327 . S
C1407 H1401 0.950 . S
C1407 C1406 1.327 . S
C1407 C1411 1.429 . S
C1408 C1391 1.574 . S
C1408 H1402 0.949 . S
C1408 C1412 1.368 . S
C1409 C1390 1.429 . S
C1409 C1403 1.429 . S
C1409 C1410 1.523 . S
C1410 C1391 1.368 . S
C1410 C1404 1.368 . S
C1410 C1409 1.523 . S
C1411 C1395 1.429 . S
C1411 C1407 1.429 . S
C1411 C1412 1.523 . S
C1412 C1396 1.368 . S
C1412 C1408 1.368 . S
C1412 C1411 1.523 . S
H1413 C1388 0.950 . S
H1414 C1390 0.950 . S
H1415 C1391 0.949 . S
H1416 C1393 0.950 . S
H1417 C1395 0.950 . S
C1418 C1419 1.349 . S
C1418 C1420 1.327 . S
C1418 H1443 0.950 . S
C1419 C1418 1.349 . S
C1419 C1435 1.349 . S
C1420 C1418 1.327 . S
C1420 C1439 1.429 . S
C1420 H1444 0.950 . S
C1421 C1438 1.574 . S
C1421 C1440 1.368 . S
C1421 H1445 0.949 . S
H1422 C1426 0.949 . S
C1423 C1424 1.349 . S
C1423 C1425 1.327 . S
C1423 H1446 0.950 . S
C1424 C1423 1.349 . S
C1424 C1436 1.349 . S
C1425 C1423 1.327 . S
C1425 C1441 1.429 . S
C1425 H1447 0.950 . S
C1426 H1422 0.949 . S
C1426 C1434 1.574 . S
C1426 C1442 1.368 . S
H1427 C1435 0.950 . S
H1428 C1433 0.950 . S
H1429 C1434 0.949 . S
H1430 C1436 0.950 . S
H1431 C1437 0.950 . S
H1432 C1438 0.949 . S
C1433 H1428 0.950 . S
C1433 C1435 1.327 . S
C1433 C1439 1.429 . S
C1434 C1426 1.574 . S
C1434 H1429 0.949 . S
C1434 C1440 1.368 . S
C1435 C1419 1.349 . S
C1435 H1427 0.950 . S
C1435 C1433 1.327 . S
C1436 C1424 1.349 . S
C1436 H1430 0.950 . S
C1436 C1437 1.327 . S
C1437 H1431 0.950 . S
C1437 C1436 1.327 . S
C1437 C1441 1.429 . S
C1438 C1421 1.574 . S
C1438 H1432 0.949 . S
C1438 C1442 1.368 . S
C1439 C1420 1.429 . S
C1439 C1433 1.429 . S
C1439 C1440 1.523 . S
C1440 C1421 1.368 . S
C1440 C1434 1.368 . S
C1440 C1439 1.523 . S
C1441 C1425 1.429 . S
C1441 C1437 1.429 . S
C1441 C1442 1.523 . S
C1442 C1426 1.368 . S
C1442 C1438 1.368 . S
C1442 C1441 1.523 . S
H1443 C1418 0.950 . S
H1444 C1420 0.950 . S
H1445 C1421 0.949 . S
H1446 C1423 0.950 . S
H1447 C1425 0.950 . S
C1448 C1449 1.349 . S
C1448 C1450 1.327 . S
C1448 H1473 0.950 . S
C1449 C1448 1.349 . S
C1449 C1465 1.349 . S
C1450 C1448 1.327 . S
C1450 C1469 1.429 . S
C1450 H1474 0.950 . S
C1451 C1468 1.574 . S
C1451 C1470 1.368 . S
C1451 H1475 0.949 . S
H1452 C1456 0.949 . S
C1453 C1454 1.349 . S
C1453 C1455 1.327 . S
C1453 H1476 0.950 . S
C1454 C1453 1.349 . S
C1454 C1466 1.349 . S
C1455 C1453 1.327 . S
C1455 C1471 1.429 . S
C1455 H1477 0.950 . S
C1456 H1452 0.949 . S
C1456 C1464 1.574 . S
C1456 C1472 1.368 . S
H1457 C1465 0.950 . S
H1458 C1463 0.950 . S
H1459 C1464 0.949 . S
H1460 C1466 0.950 . S
H1461 C1467 0.950 . S
H1462 C1468 0.949 . S
C1463 H1458 0.950 . S
C1463 C1465 1.327 . S
C1463 C1469 1.429 . S
C1464 C1456 1.574 . S
C1464 H1459 0.949 . S
C1464 C1470 1.368 . S
C1465 C1449 1.349 . S
C1465 H1457 0.950 . S
C1465 C1463 1.327 . S
C1466 C1454 1.349 . S
C1466 H1460 0.950 . S
C1466 C1467 1.327 . S
C1467 H1461 0.950 . S
C1467 C1466 1.327 . S
C1467 C1471 1.429 . S
C1468 C1451 1.574 . S
C1468 H1462 0.949 . S
C1468 C1472 1.368 . S
C1469 C1450 1.429 . S
C1469 C1463 1.429 . S
C1469 C1470 1.523 . S
C1470 C1451 1.368 . S
C1470 C1464 1.368 . S
C1470 C1469 1.523 . S
C1471 C1455 1.429 . S
C1471 C1467 1.429 . S
C1471 C1472 1.523 . S
C1472 C1456 1.368 . S
C1472 C1468 1.368 . S
C1472 C1471 1.523 . S
H1473 C1448 0.950 . S
H1474 C1450 0.950 . S
H1475 C1451 0.949 . S
H1476 C1453 0.950 . S
H1477 C1455 0.950 . S
C1478 C1479 1.349 . S
C1478 C1480 1.327 . S
C1478 H1503 0.950 . S
C1479 C1478 1.349 . S
C1479 C1495 1.349 . S
C1480 C1478 1.327 . S
C1480 C1499 1.429 . S
C1480 H1504 0.950 . S
C1481 C1498 1.574 . S
C1481 C1500 1.368 . S
C1481 H1505 0.949 . S
H1482 C1486 0.949 . S
C1483 C1484 1.349 . S
C1483 C1485 1.327 . S
C1483 H1506 0.950 . S
C1484 C1483 1.349 . S
C1484 C1496 1.349 . S
C1485 C1483 1.327 . S
C1485 C1501 1.429 . S
C1485 H1507 0.950 . S
C1486 H1482 0.949 . S
C1486 C1494 1.574 . S
C1486 C1502 1.368 . S
H1487 C1495 0.950 . S
H1488 C1493 0.950 . S
H1489 C1494 0.949 . S
H1490 C1496 0.950 . S
H1491 C1497 0.950 . S
H1492 C1498 0.949 . S
C1493 H1488 0.950 . S
C1493 C1495 1.327 . S
C1493 C1499 1.429 . S
C1494 C1486 1.574 . S
C1494 H1489 0.949 . S
C1494 C1500 1.368 . S
C1495 C1479 1.349 . S
C1495 H1487 0.950 . S
C1495 C1493 1.327 . S
C1496 C1484 1.349 . S
C1496 H1490 0.950 . S
C1496 C1497 1.327 . S
C1497 H1491 0.950 . S
C1497 C1496 1.327 . S
C1497 C1501 1.429 . S
C1498 C1481 1.574 . S
C1498 H1492 0.949 . S
C1498 C1502 1.368 . S
C1499 C1480 1.429 . S
C1499 C1493 1.429 . S
C1499 C1500 1.523 . S
C1500 C1481 1.368 . S
C1500 C1494 1.368 . S
C1500 C1499 1.523 . S
C1501 C1485 1.429 . S
C1501 C1497 1.429 . S
C1501 C1502 1.523 . S
C1502 C1486 1.368 . S
C1502 C1498 1.368 . S
C1502 C1501 1.523 . S
H1503 C1478 0.950 . S
H1504 C1480 0.950 . S
H1505 C1481 0.949 . S
H1506 C1483 0.950 . S
H1507 C1485 0.950 . S
C1508 C1509 1.349 . S
C1508 C1510 1.327 . S
C1508 H1533 0.950 . S
C1509 C1508 1.349 . S
C1509 C1525 1.349 . S
C1510 C1508 1.327 . S
C1510 C1529 1.429 . S
C1510 H1534 0.950 . S
C1511 C1528 1.574 . S
C1511 C1530 1.368 . S
C1511 H1535 0.949 . S
H1512 C1516 0.949 . S
C1513 C1514 1.349 . S
C1513 C1515 1.327 . S
C1513 H1536 0.950 . S
C1514 C1513 1.349 . S
C1514 C1526 1.349 . S
C1515 C1513 1.327 . S
C1515 C1531 1.429 . S
C1515 H1537 0.950 . S
C1516 H1512 0.949 . S
C1516 C1524 1.574 . S
C1516 C1532 1.368 . S
H1517 C1525 0.950 . S
H1518 C1523 0.950 . S
H1519 C1524 0.949 . S
H1520 C1526 0.950 . S
H1521 C1527 0.950 . S
H1522 C1528 0.949 . S
C1523 H1518 0.950 . S
C1523 C1525 1.327 . S
C1523 C1529 1.429 . S
C1524 C1516 1.574 . S
C1524 H1519 0.949 . S
C1524 C1530 1.368 . S
C1525 C1509 1.349 . S
C1525 H1517 0.950 . S
C1525 C1523 1.327 . S
C1526 C1514 1.349 . S
C1526 H1520 0.950 . S
C1526 C1527 1.327 . S
C1527 H1521 0.950 . S
C1527 C1526 1.327 . S
C1527 C1531 1.429 . S
C1528 C1511 1.574 . S
C1528 H1522 0.949 . S
C1528 C1532 1.368 . S
C1529 C1510 1.429 . S
C1529 C1523 1.429 . S
C1529 C1530 1.523 . S
C1530 C1511 1.368 . S
C1530 C1524 1.368 . S
C1530 C1529 1.523 . S
C1531 C1515 1.429 . S
C1531 C1527 1.429 . S
C1531 C1532 1.523 . S
C1532 C1516 1.368 . S
C1532 C1528 1.368 . S
C1532 C1531 1.523 . S
H1533 C1508 0.950 . S
H1534 C1510 0.950 . S
H1535 C1511 0.949 . S
H1536 C1513 0.950 . S
H1537 C1515 0.950 . S
C1538 C1539 1.349 . S
C1538 C1540 1.327 . S
C1538 H1563 0.950 . S
C1539 C1538 1.349 . S
C1539 C1555 1.349 . S
C1540 C1538 1.327 . S
C1540 C1559 1.429 . S
C1540 H1564 0.950 . S
C1541 C1558 1.574 . S
C1541 C1560 1.368 . S
C1541 H1565 0.949 . S
H1542 C1546 0.949 . S
C1543 C1544 1.349 . S
C1543 C1545 1.327 . S
C1543 H1566 0.950 . S
C1544 C1543 1.349 . S
C1544 C1556 1.349 . S
C1545 C1543 1.327 . S
C1545 C1561 1.429 . S
C1545 H1567 0.950 . S
C1546 H1542 0.949 . S
C1546 C1554 1.574 . S
C1546 C1562 1.368 . S
H1547 C1555 0.950 . S
H1548 C1553 0.950 . S
H1549 C1554 0.949 . S
H1550 C1556 0.950 . S
H1551 C1557 0.950 . S
H1552 C1558 0.949 . S
C1553 H1548 0.950 . S
C1553 C1555 1.327 . S
C1553 C1559 1.429 . S
C1554 C1546 1.574 . S
C1554 H1549 0.949 . S
C1554 C1560 1.368 . S
C1555 C1539 1.349 . S
C1555 H1547 0.950 . S
C1555 C1553 1.327 . S
C1556 C1544 1.349 . S
C1556 H1550 0.950 . S
C1556 C1557 1.327 . S
C1557 H1551 0.950 . S
C1557 C1556 1.327 . S
C1557 C1561 1.429 . S
C1558 C1541 1.574 . S
C1558 H1552 0.949 . S
C1558 C1562 1.368 . S
C1559 C1540 1.429 . S
C1559 C1553 1.429 . S
C1559 C1560 1.523 . S
C1560 C1541 1.368 . S
C1560 C1554 1.368 . S
C1560 C1559 1.523 . S
C1561 C1545 1.429 . S
C1561 C1557 1.429 . S
C1561 C1562 1.523 . S
C1562 C1546 1.368 . S
C1562 C1558 1.368 . S
C1562 C1561 1.523 . S
H1563 C1538 0.950 . S
H1564 C1540 0.950 . S
H1565 C1541 0.949 . S
H1566 C1543 0.950 . S
H1567 C1545 0.950 . S
C614 C518 1.369 . S
C609 C35 1.243 . S
C644 C532 1.368 . S
C639 C115 1.255 . S
C674 C547 1.362 . S
C669 C177 1.269 . S
C699 C221 1.242 . S
C704 C505 1.343 . S
C729 C283 1.229 . S
C734 C504 1.353 1_556 S
C759 C363 1.251 . S
C764 C519 1.343 . S
C794 C533 1.395 . S
C789 C407 1.286 . S
C824 C546 1.386 . S
C819 C469 1.259 . S
C849 C159 1.232 . S
C854 C574 1.356 . S
C884 C588 1.402 . S
C879 C239 1.285 . S
C909 C53 1.255 . S
C914 C603 1.348 . S
C944 C560 1.335 . S
C939 C97 1.214 . S
C969 C425 1.265 . S
C974 C561 1.359 . S
C999 C487 1.266 . S
C1004 C575 1.358 . S
C1034 C589 1.362 . S
C1029 C301 1.269 . S
C1059 C345 1.270 . S
C1064 C602 1.398 . S
C1094 C527 1.900 . S
C1089 C29 1.876 . S
C1124 C545 1.846 . S
C1119 C109 1.842 . S
C1149 C171 1.840 . S
C1154 C503 1.848 . S
C1179 C215 1.885 . S
C1184 C513 1.909 . S
C1209 C277 1.873 . S
C1214 C541 1.898 . S
C1244 C499 1.903 . S
C1239 C357 1.847 . S
C1274 C517 1.844 . S
C1269 C401 1.870 . S
C1304 C531 1.848 . S
C1299 C463 1.874 . S
C1334 C583 1.898 . S
C1329 C153 1.874 . S
C1364 C601 1.841 . S
C1359 C233 1.841 . S
C1389 C47 1.840 . S
C1394 C555 1.894 . S
C1424 C569 1.895 . S
C1419 C91 1.870 . S
C1454 C597 1.912 . S
C1449 C419 1.857 . S
C1479 C481 1.848 . S
C1484 C559 1.856 . S
C1514 C573 1.850 . S
C1509 C295 1.844 . S
C1544 C587 1.849 . S
C1539 C339 1.876 . S
