# Generated by pormake.
# Topology eea, (3,6)-cn, num edge types: 1
# Building blocks:
#     Node 0, Type 0, BuildingBlock: BELTOD_clean_linker_0, # of connection points: 3
#     Node 1, Type 0, BuildingBlock: BELTOD_clean_linker_0, # of connection points: 3
#     Node 2, Type 0, BuildingBlock: BELTOD_clean_linker_0, # of connection points: 3
#     Node 3, Type 0, BuildingBlock: BELTOD_clean_linker_0, # of connection points: 3
#     Node 4, Type 0, BuildingBlock: BELTOD_clean_linker_0, # of connection points: 3
#     Node 5, Type 0, BuildingBlock: BELTOD_clean_linker_0, # of connection points: 3
#     Node 6, Type 0, BuildingBlock: BELTOD_clean_linker_0, # of connection points: 3
#     Node 7, Type 0, BuildingBlock: BELTOD_clean_linker_0, # of connection points: 3
#     Node 8, Type 0, BuildingBlock: BELTOD_clean_linker_0, # of connection points: 3
#     Node 9, Type 0, BuildingBlock: BELTOD_clean_linker_0, # of connection points: 3
#     Node 10, Type 0, BuildingBlock: BELTOD_clean_linker_0, # of connection points: 3
#     Node 11, Type 0, BuildingBlock: BELTOD_clean_linker_0, # of connection points: 3
#     Node 12, Type 0, BuildingBlock: BELTOD_clean_linker_0, # of connection points: 3
#     Node 13, Type 0, BuildingBlock: BELTOD_clean_linker_0, # of connection points: 3
#     Node 14, Type 0, BuildingBlock: BELTOD_clean_linker_0, # of connection points: 3
#     Node 15, Type 0, BuildingBlock: BELTOD_clean_linker_0, # of connection points: 3
#     Node 16, Type 0, BuildingBlock: BELTOD_clean_linker_0, # of connection points: 3
#     Node 17, Type 0, BuildingBlock: BELTOD_clean_linker_0, # of connection points: 3
#     Node 18, Type 1, BuildingBlock: CUWYAW_clean_sbu_0, # of connection points: 6
#     Node 19, Type 1, BuildingBlock: CUWYAW_clean_sbu_0, # of connection points: 6
#     Node 20, Type 1, BuildingBlock: CUWYAW_clean_sbu_0, # of connection points: 6
#     Node 21, Type 1, BuildingBlock: CUWYAW_clean_sbu_0, # of connection points: 6
#     Node 22, Type 1, BuildingBlock: CUWYAW_clean_sbu_0, # of connection points: 6
#     Node 23, Type 1, BuildingBlock: CUWYAW_clean_sbu_0, # of connection points: 6
#     Node 24, Type 1, BuildingBlock: CUWYAW_clean_sbu_0, # of connection points: 6
#     Node 25, Type 1, BuildingBlock: CUWYAW_clean_sbu_0, # of connection points: 6
#     Node 26, Type 1, BuildingBlock: CUWYAW_clean_sbu_0, # of connection points: 6
#     Edge 27, Type (0, 1), BuildingBlock: CIFDUS_clean_linker_0, # of connection points: 2
#     Edge 28, Type (0, 1), BuildingBlock: CIFDUS_clean_linker_0, # of connection points: 2
#     Edge 29, Type (0, 1), BuildingBlock: CIFDUS_clean_linker_0, # of connection points: 2
#     Edge 30, Type (0, 1), BuildingBlock: CIFDUS_clean_linker_0, # of connection points: 2
#     Edge 31, Type (0, 1), BuildingBlock: CIFDUS_clean_linker_0, # of connection points: 2
#     Edge 32, Type (0, 1), BuildingBlock: CIFDUS_clean_linker_0, # of connection points: 2
#     Edge 33, Type (0, 1), BuildingBlock: CIFDUS_clean_linker_0, # of connection points: 2
#     Edge 34, Type (0, 1), BuildingBlock: CIFDUS_clean_linker_0, # of connection points: 2
#     Edge 35, Type (0, 1), BuildingBlock: CIFDUS_clean_linker_0, # of connection points: 2
#     Edge 36, Type (0, 1), BuildingBlock: CIFDUS_clean_linker_0, # of connection points: 2
#     Edge 37, Type (0, 1), BuildingBlock: CIFDUS_clean_linker_0, # of connection points: 2
#     Edge 38, Type (0, 1), BuildingBlock: CIFDUS_clean_linker_0, # of connection points: 2
#     Edge 39, Type (0, 1), BuildingBlock: CIFDUS_clean_linker_0, # of connection points: 2
#     Edge 40, Type (0, 1), BuildingBlock: CIFDUS_clean_linker_0, # of connection points: 2
#     Edge 41, Type (0, 1), BuildingBlock: CIFDUS_clean_linker_0, # of connection points: 2
#     Edge 42, Type (0, 1), BuildingBlock: CIFDUS_clean_linker_0, # of connection points: 2
#     Edge 43, Type (0, 1), BuildingBlock: CIFDUS_clean_linker_0, # of connection points: 2
#     Edge 44, Type (0, 1), BuildingBlock: CIFDUS_clean_linker_0, # of connection points: 2
#     Edge 45, Type (0, 1), BuildingBlock: CIFDUS_clean_linker_0, # of connection points: 2
#     Edge 46, Type (0, 1), BuildingBlock: CIFDUS_clean_linker_0, # of connection points: 2
#     Edge 47, Type (0, 1), BuildingBlock: CIFDUS_clean_linker_0, # of connection points: 2
#     Edge 48, Type (0, 1), BuildingBlock: CIFDUS_clean_linker_0, # of connection points: 2
#     Edge 49, Type (0, 1), BuildingBlock: CIFDUS_clean_linker_0, # of connection points: 2
#     Edge 50, Type (0, 1), BuildingBlock: CIFDUS_clean_linker_0, # of connection points: 2
#     Edge 51, Type (0, 1), BuildingBlock: CIFDUS_clean_linker_0, # of connection points: 2
#     Edge 52, Type (0, 1), BuildingBlock: CIFDUS_clean_linker_0, # of connection points: 2
#     Edge 53, Type (0, 1), BuildingBlock: CIFDUS_clean_linker_0, # of connection points: 2
#     Edge 54, Type (0, 1), BuildingBlock: CIFDUS_clean_linker_0, # of connection points: 2
#     Edge 55, Type (0, 1), BuildingBlock: CIFDUS_clean_linker_0, # of connection points: 2
#     Edge 56, Type (0, 1), BuildingBlock: CIFDUS_clean_linker_0, # of connection points: 2
#     Edge 57, Type (0, 1), BuildingBlock: CIFDUS_clean_linker_0, # of connection points: 2
#     Edge 58, Type (0, 1), BuildingBlock: CIFDUS_clean_linker_0, # of connection points: 2
#     Edge 59, Type (0, 1), BuildingBlock: CIFDUS_clean_linker_0, # of connection points: 2
#     Edge 60, Type (0, 1), BuildingBlock: CIFDUS_clean_linker_0, # of connection points: 2
#     Edge 61, Type (0, 1), BuildingBlock: CIFDUS_clean_linker_0, # of connection points: 2
#     Edge 62, Type (0, 1), BuildingBlock: CIFDUS_clean_linker_0, # of connection points: 2
#     Edge 63, Type (0, 1), BuildingBlock: CIFDUS_clean_linker_0, # of connection points: 2
#     Edge 64, Type (0, 1), BuildingBlock: CIFDUS_clean_linker_0, # of connection points: 2
#     Edge 65, Type (0, 1), BuildingBlock: CIFDUS_clean_linker_0, # of connection points: 2
#     Edge 66, Type (0, 1), BuildingBlock: CIFDUS_clean_linker_0, # of connection points: 2
#     Edge 67, Type (0, 1), BuildingBlock: CIFDUS_clean_linker_0, # of connection points: 2
#     Edge 68, Type (0, 1), BuildingBlock: CIFDUS_clean_linker_0, # of connection points: 2
#     Edge 69, Type (0, 1), BuildingBlock: CIFDUS_clean_linker_0, # of connection points: 2
#     Edge 70, Type (0, 1), BuildingBlock: CIFDUS_clean_linker_0, # of connection points: 2
#     Edge 71, Type (0, 1), BuildingBlock: CIFDUS_clean_linker_0, # of connection points: 2
#     Edge 72, Type (0, 1), BuildingBlock: CIFDUS_clean_linker_0, # of connection points: 2
#     Edge 73, Type (0, 1), BuildingBlock: CIFDUS_clean_linker_0, # of connection points: 2
#     Edge 74, Type (0, 1), BuildingBlock: CIFDUS_clean_linker_0, # of connection points: 2
#     Edge 75, Type (0, 1), BuildingBlock: CIFDUS_clean_linker_0, # of connection points: 2
#     Edge 76, Type (0, 1), BuildingBlock: CIFDUS_clean_linker_0, # of connection points: 2
#     Edge 77, Type (0, 1), BuildingBlock: CIFDUS_clean_linker_0, # of connection points: 2
#     Edge 78, Type (0, 1), BuildingBlock: CIFDUS_clean_linker_0, # of connection points: 2
#     Edge 79, Type (0, 1), BuildingBlock: CIFDUS_clean_linker_0, # of connection points: 2
#     Edge 80, Type (0, 1), BuildingBlock: CIFDUS_clean_linker_0, # of connection points: 2
# Relax obj value: 0.032
# Max RMSD: 0.128
# Mean RMSD: 0.087
data_MOF--net-eea--node1-CUWYAW_clean_sbu_0--node2-BELTOD_clean_linker_0--edge1-CIFDUS_clean_linker_0
_symmetry_space_group_name_H-M    P1
_symmetry_Int_Tables_number       1
_symmetry_cell_setting            triclinic
loop_
_symmetry_equiv_pos_as_xyz
'x, y, z'
_cell_length_a     52.02382
_cell_length_b     51.548346
_cell_length_c     76.759753
_cell_angle_alpha  93.872094
_cell_angle_beta   93.302685
_cell_angle_gamma 119.91147
loop_
_atom_site_label
_atom_site_type_symbol
_atom_site_fract_x
_atom_site_fract_y
_atom_site_fract_z
_atom_type_partial_charge
P0 P 0.28787 0.1563 0.39568 0.0
H1 H 0.27419 0.12246 0.36104 0.0
H2 H 0.25097 0.06839 0.35129 0.0
H3 H 0.2372 0.04864 0.40479 0.0
H4 H 0.25915 0.1021 0.41446 0.0
H5 H 0.29243 0.2126 0.40941 0.0
H6 H 0.2682 0.24007 0.39988 0.0
H7 H 0.21457 0.16792 0.3586 0.0
H8 H 0.23784 0.14003 0.36875 0.0
H9 H 0.34216 0.16911 0.41689 0.0
H10 H 0.25508 0.15458 0.42572 0.0
O11 O 0.31902 0.17268 0.38576 0.0
H12 H 0.35386 0.17087 0.44834 0.0
H13 H 0.26606 0.15507 0.45715 0.0
C14 C 0.26849 0.11648 0.38847 0.0
C15 C 0.26568 0.10646 0.37063 0.0
C16 C 0.25244 0.07569 0.36506 0.0
C17 C 0.24242 0.05467 0.37735 0.0
C18 C 0.24479 0.0646 0.39513 0.0
C19 C 0.25743 0.09525 0.40063 0.0
C20 C 0.2667 0.17404 0.38999 0.0
C21 C 0.27494 0.20236 0.39857 0.0
C22 C 0.2613 0.21823 0.39296 0.0
C23 C 0.23954 0.20634 0.37838 0.0
C24 C 0.23091 0.17761 0.37002 0.0
C25 C 0.2444 0.16164 0.37578 0.0
C26 C 0.29793 0.16215 0.41904 0.0
C27 C 0.32571 0.16675 0.42565 0.0
C28 C 0.33223 0.1674 0.44363 0.0
C29 C 0.31083 0.16289 0.4553 0.0
C30 C 0.28325 0.15909 0.44862 0.0
C31 C 0.27689 0.15874 0.43064 0.0
P32 P 0.90711 0.09207 0.43335 0.0
H33 H 0.89507 0.08116 0.39502 0.0
H34 H 0.85176 0.04344 0.37548 0.0
H35 H 0.80263 0.0112 0.42027 0.0
H36 H 0.84591 0.04935 0.43973 0.0
H37 H 0.97158 0.12047 0.43507 0.0
H38 H 0.00958 0.16364 0.42244 0.0
H39 H 0.94164 0.17904 0.39879 0.0
H40 H 0.90336 0.13526 0.41153 0.0
H41 H 0.93399 0.1012 0.46919 0.0
H42 H 0.86517 0.112 0.44262 0.0
O43 O 0.92142 0.07019 0.43749 0.0
H44 H 0.92269 0.11544 0.49748 0.0
H45 H 0.85369 0.12639 0.47099 0.0
C46 C 0.87348 0.06878 0.41881 0.0
C47 C 0.87469 0.06671 0.40062 0.0
C48 C 0.84999 0.04486 0.38946 0.0
C49 C 0.82375 0.02429 0.39633 0.0
C50 C 0.8223 0.02702 0.41454 0.0
C51 C 0.84706 0.04889 0.42568 0.0
C52 C 0.93461 0.12426 0.42388 0.0
C53 C 0.96475 0.13299 0.42711 0.0
C54 C 0.98653 0.15789 0.41999 0.0
C55 C 0.97864 0.17479 0.40959 0.0
C56 C 0.94836 0.16625 0.40657 0.0
C57 C 0.92652 0.14132 0.41385 0.0
C58 C 0.89982 0.10472 0.4539 0.0
C59 C 0.91646 0.1067 0.46946 0.0
C60 C 0.91014 0.11508 0.48562 0.0
C61 C 0.8871 0.12175 0.48648 0.0
C62 C 0.87122 0.12087 0.47075 0.0
C63 C 0.87776 0.11271 0.45456 0.0
P64 P 0.86245 0.71522 0.41646 0.0
H65 H 0.80813 0.69193 0.39231 0.0
H66 H 0.77995 0.71466 0.38133 0.0
H67 H 0.84152 0.7983 0.41298 0.0
H68 H 0.86963 0.77518 0.42409 0.0
H69 H 0.91902 0.71981 0.42915 0.0
H70 H 0.96636 0.73828 0.41633 0.0
H71 H 0.93363 0.77029 0.37481 0.0
H72 H 0.88643 0.75128 0.38742 0.0
H73 H 0.82675 0.66664 0.43713 0.0
H74 H 0.89508 0.76022 0.44722 0.0
O75 O 0.8465 0.68003 0.40668 0.0
H76 H 0.82212 0.66419 0.46844 0.0
H77 H 0.89047 0.75797 0.47886 0.0
C78 C 0.84096 0.73184 0.40907 0.0
C79 C 0.81557 0.71512 0.39698 0.0
C80 C 0.79955 0.72823 0.3906 0.0
C81 C 0.80858 0.75837 0.39618 0.0
C82 C 0.83384 0.77497 0.40853 0.0
C83 C 0.84994 0.76181 0.41487 0.0
C84 C 0.89941 0.73478 0.40952 0.0
C85 C 0.92237 0.7315 0.41755 0.0
C86 C 0.94941 0.74202 0.41016 0.0
C87 C 0.95376 0.75562 0.39446 0.0
C88 C 0.93093 0.75957 0.38676 0.0
C89 C 0.904 0.74907 0.39414 0.0
C90 C 0.86159 0.7135 0.43984 0.0
C91 C 0.84114 0.6866 0.44612 0.0
C92 C 0.83854 0.68519 0.46408 0.0
C93 C 0.85606 0.71082 0.47619 0.0
C94 C 0.87658 0.73786 0.46986 0.0
C95 C 0.87934 0.73915 0.45181 0.0
P96 P 0.13624 0.2927 0.59792 0.0
H97 H 0.11908 0.31846 0.62675 0.0
H98 H 0.07372 0.29999 0.64131 0.0
H99 H 0.03292 0.21686 0.60666 0.0
H100 H 0.07861 0.23594 0.59186 0.0
H101 H 0.18501 0.31596 0.626 0.0
H102 H 0.21452 0.29559 0.63842 0.0
H103 H 0.16224 0.21343 0.60344 0.0
H104 H 0.13295 0.23434 0.59083 0.0
H105 H 0.0896 0.28622 0.57153 0.0
H106 H 0.17315 0.28752 0.57231 0.0
O107 O 0.15608 0.33004 0.60276 0.0
H108 H 0.08723 0.2858 0.53957 0.0
H109 H 0.17132 0.28773 0.54056 0.0
C110 C 0.10197 0.27882 0.60798 0.0
C111 C 0.10031 0.29637 0.62214 0.0
C112 C 0.0744 0.28563 0.63059 0.0
C113 C 0.04963 0.25691 0.62518 0.0
C114 C 0.05144 0.23924 0.61101 0.0
C115 C 0.07752 0.25005 0.60256 0.0
C116 C 0.15719 0.27687 0.60727 0.0
C117 C 0.17992 0.2936 0.62094 0.0
C118 C 0.19665 0.28181 0.62814 0.0
C119 C 0.19082 0.2529 0.62189 0.0
C120 C 0.16758 0.23594 0.60836 0.0
C121 C 0.15076 0.24777 0.6012 0.0
C122 C 0.13109 0.28597 0.57428 0.0
C123 C 0.10703 0.28559 0.5648 0.0
C124 C 0.10589 0.28571 0.54653 0.0
C125 C 0.12907 0.28668 0.53744 0.0
C126 C 0.15277 0.28633 0.54701 0.0
C127 C 0.15384 0.2862 0.56524 0.0
P128 P 0.83856 0.91222 0.58478 0.0
H129 H 0.88333 0.95881 0.61061 0.0
H130 H 0.88802 0.00396 0.62608 0.0
H131 H 0.80681 0.98696 0.59648 0.0
H132 H 0.80166 0.9409 0.58159 0.0
H133 H 0.81949 0.84839 0.5799 0.0
H134 H 0.81062 0.81192 0.60104 0.0
H135 H 0.81705 0.87614 0.64267 0.0
H136 H 0.82552 0.91222 0.62166 0.0
H137 H 0.85592 0.92166 0.54939 0.0
H138 H 0.7742 0.87841 0.5738 0.0
O139 O 0.87267 0.91855 0.58184 0.0
H140 H 0.82761 0.90715 0.52059 0.0
H141 H 0.7454 0.86481 0.54494 0.0
C142 C 0.84247 0.94679 0.59475 0.0
C143 C 0.86672 0.96499 0.6073 0.0
C144 C 0.86942 0.99093 0.61609 0.0
C145 C 0.84798 0.99941 0.61241 0.0
C146 C 0.82363 0.98105 0.59974 0.0
C147 C 0.8208 0.95482 0.59108 0.0
C148 C 0.82336 0.88309 0.59917 0.0
C149 C 0.81796 0.85421 0.59348 0.0
C150 C 0.81282 0.83338 0.60554 0.0
C151 C 0.81343 0.84139 0.62348 0.0
C152 C 0.81669 0.86953 0.62892 0.0
C153 C 0.82158 0.8902 0.61686 0.0
C154 C 0.81712 0.90072 0.56366 0.0
C155 C 0.8318 0.90899 0.54853 0.0
C156 C 0.81554 0.90094 0.53205 0.0
C157 C 0.78417 0.88489 0.5304 0.0
C158 C 0.76951 0.87676 0.54569 0.0
C159 C 0.78589 0.88462 0.5622 0.0
P160 P 0.12977 0.84994 0.60453 0.0
H161 H 0.17229 0.88256 0.63545 0.0
H162 H 0.19716 0.93502 0.64834 0.0
H163 H 0.14833 0.95407 0.6088 0.0
H164 H 0.12385 0.90155 0.59564 0.0
H165 H 0.09902 0.79058 0.61683 0.0
H166 H 0.05138 0.76259 0.62886 0.0
H167 H 0.03122 0.83218 0.6185 0.0
H168 H 0.07914 0.86034 0.60656 0.0
H169 H 0.1719 0.84849 0.58186 0.0
H170 H 0.09029 0.85108 0.57572 0.0
O171 O 0.15035 0.8357 0.61207 0.0
H172 H 0.17574 0.85063 0.55045 0.0
H173 H 0.09422 0.85355 0.54409 0.0
C174 C 0.14659 0.88824 0.6144 0.0
C175 C 0.16689 0.89793 0.6295 0.0
C176 C 0.18103 0.92787 0.63689 0.0
C177 C 0.17468 0.94849 0.62949 0.0
C178 C 0.15345 0.93851 0.61478 0.0
C179 C 0.13961 0.90858 0.60722 0.0
C180 C 0.09289 0.8278 0.61104 0.0
C181 C 0.08435 0.79981 0.61702 0.0
C182 C 0.05715 0.78384 0.62393 0.0
C183 C 0.03783 0.79542 0.62479 0.0
C184 C 0.04572 0.82274 0.61796 0.0
C185 C 0.07314 0.83889 0.61119 0.0
C186 C 0.13054 0.84909 0.5811 0.0
C187 C 0.15453 0.84906 0.57372 0.0
C188 C 0.1567 0.85026 0.55574 0.0
C189 C 0.13515 0.85202 0.5448 0.0
C190 C 0.11115 0.85221 0.55223 0.0
C191 C 0.10881 0.85065 0.57026 0.0
P192 P 0.94194 0.48536 0.73461 0.0
H193 H 0.95357 0.45773 0.70392 0.0
H194 H 0.9289 0.40611 0.68955 0.0
H195 H 0.86436 0.37803 0.72743 0.0
H196 H 0.88925 0.42979 0.74178 0.0
H197 H 0.95724 0.53154 0.71071 0.0
H198 H 0.92993 0.55413 0.69814 0.0
H199 H 0.85539 0.49969 0.72671 0.0
H200 H 0.88293 0.4769 0.73916 0.0
H201 H 0.94651 0.44638 0.75901 0.0
H202 H 0.94257 0.52816 0.76202 0.0
O203 O 0.97711 0.50363 0.72969 0.0
H204 H 0.952 0.44972 0.79101 0.0
H205 H 0.94822 0.53171 0.79415 0.0
C206 C 0.92369 0.44734 0.72417 0.0
C207 C 0.93421 0.44044 0.70918 0.0
C208 C 0.91994 0.411 0.7009 0.0
C209 C 0.89482 0.38802 0.70744 0.0
C210 C 0.88395 0.3952 0.72227 0.0
C211 C 0.89812 0.42472 0.73046 0.0
C212 C 0.92223 0.50288 0.72604 0.0
C213 C 0.93514 0.52461 0.71439 0.0
C214 C 0.9195 0.53755 0.70724 0.0
C215 C 0.89056 0.52882 0.71152 0.0
C216 C 0.87756 0.50673 0.72308 0.0
C217 C 0.89331 0.49387 0.73028 0.0
C218 C 0.94315 0.48648 0.75813 0.0
C219 C 0.94614 0.4647 0.76655 0.0
C220 C 0.94931 0.46664 0.78486 0.0
C221 C 0.95022 0.49081 0.79508 0.0
C222 C 0.94752 0.51281 0.7866 0.0
C223 C 0.94408 0.51067 0.76826 0.0
P224 P 0.56272 0.43932 0.7623 0.0
H225 H 0.55507 0.38329 0.74532 0.0
H226 H 0.51539 0.34245 0.72532 0.0
H227 H 0.46676 0.39026 0.72476 0.0
H228 H 0.50643 0.43082 0.7454 0.0
H229 H 0.62701 0.47955 0.76747 0.0
H230 H 0.66198 0.51801 0.75065 0.0
H231 H 0.5885 0.5061 0.71507 0.0
H232 H 0.55354 0.46713 0.73189 0.0
H233 H 0.50662 0.40799 0.77797 0.0
H234 H 0.58729 0.49473 0.78646 0.0
O235 O 0.58217 0.42525 0.77168 0.0
H236 H 0.48944 0.42017 0.80444 0.0
H237 H 0.57027 0.50692 0.81331 0.0
C238 C 0.53351 0.40988 0.74701 0.0
C239 C 0.53587 0.385 0.74096 0.0
C240 C 0.51322 0.36175 0.72937 0.0
C241 C 0.48787 0.36309 0.72337 0.0
C242 C 0.48578 0.38835 0.72928 0.0
C243 C 0.50849 0.4116 0.74098 0.0
C244 C 0.5877 0.47005 0.75078 0.0
C245 C 0.61836 0.48528 0.75611 0.0
C246 C 0.63835 0.50746 0.74652 0.0
C247 C 0.62807 0.51508 0.73143 0.0
C248 C 0.59717 0.50044 0.72646 0.0
C249 C 0.57714 0.47823 0.73613 0.0
C250 C 0.54781 0.45085 0.77986 0.0
C251 C 0.52024 0.43009 0.78518 0.0
C252 C 0.51045 0.43702 0.80041 0.0
C253 C 0.52841 0.46458 0.8109 0.0
C254 C 0.55595 0.48552 0.80547 0.0
C255 C 0.56557 0.47868 0.79005 0.0
P256 P 0.52853 0.05242 0.74683 0.0
H257 H 0.46694 0.02809 0.73204 0.0
H258 H 0.43888 0.05157 0.72191 0.0
H259 H 0.51567 0.13954 0.73791 0.0
H260 H 0.54393 0.1158 0.74791 0.0
H261 H 0.58532 0.05808 0.76017 0.0
H262 H 0.63254 0.07571 0.74749 0.0
H263 H 0.59901 0.1036 0.70409 0.0
H264 H 0.55166 0.08496 0.7165 0.0
H265 H 0.52616 0.00641 0.76784 0.0
H266 H 0.53362 0.09346 0.77725 0.0
O267 O 0.51087 0.01738 0.73667 0.0
H268 H 0.52294 0.00051 0.79904 0.0
H269 H 0.53079 0.08789 0.80858 0.0
C270 C 0.50768 0.07022 0.74044 0.0
C271 C 0.47783 0.05242 0.73337 0.0
C272 C 0.46179 0.06585 0.72758 0.0
C273 C 0.4752 0.09737 0.72898 0.0
C274 C 0.50478 0.1152 0.73672 0.0
C275 C 0.52094 0.10169 0.74236 0.0
C276 C 0.56519 0.07087 0.73953 0.0
C277 C 0.58838 0.06859 0.74813 0.0
C278 C 0.61541 0.0787 0.74085 0.0
C279 C 0.61958 0.091 0.72472 0.0
C280 C 0.59647 0.0939 0.7164 0.0
C281 C 0.56947 0.08364 0.72364 0.0
C282 C 0.52942 0.05005 0.77015 0.0
C283 C 0.52731 0.02438 0.77664 0.0
C284 C 0.52572 0.02113 0.79453 0.0
C285 C 0.52635 0.04363 0.80629 0.0
C286 C 0.52972 0.06993 0.79981 0.0
C287 C 0.53141 0.07318 0.78189 0.0
P288 P 0.80762 0.61695 0.93252 0.0
H289 H 0.79024 0.64616 0.95955 0.0
H290 H 0.74514 0.6293 0.97417 0.0
H291 H 0.70488 0.54267 0.94307 0.0
H292 H 0.75026 0.56014 0.92813 0.0
H293 H 0.85372 0.61145 0.91565 0.0
H294 H 0.88123 0.58582 0.92252 0.0
H295 H 0.82704 0.54784 0.9647 0.0
H296 H 0.79986 0.57384 0.95789 0.0
H297 H 0.80966 0.66467 0.91335 0.0
H298 H 0.79112 0.57376 0.901 0.0
O299 O 0.83263 0.65157 0.94174 0.0
H300 H 0.8075 0.67057 0.8821 0.0
H301 H 0.78985 0.57974 0.86964 0.0
C302 C 0.77364 0.60434 0.94279 0.0
C303 C 0.77175 0.62355 0.95581 0.0
C304 C 0.74594 0.61378 0.96428 0.0
C305 C 0.72141 0.58452 0.95994 0.0
C306 C 0.72325 0.56542 0.94666 0.0
C307 C 0.74917 0.5753 0.93815 0.0
C308 C 0.82422 0.59399 0.93596 0.0
C309 C 0.84725 0.59701 0.9261 0.0
C310 C 0.86298 0.58231 0.93004 0.0
C311 C 0.85631 0.56473 0.94414 0.0
C312 C 0.83285 0.56137 0.95382 0.0
C313 C 0.81707 0.57601 0.94982 0.0
C314 C 0.80139 0.6191 0.90947 0.0
C315 C 0.80501 0.64592 0.90389 0.0
C316 C 0.80395 0.64931 0.886 0.0
C317 C 0.79917 0.62587 0.87335 0.0
C318 C 0.79361 0.59827 0.87901 0.0
C319 C 0.79453 0.59487 0.89694 0.0
P320 P 0.48545 0.24255 0.91699 0.0
H321 H 0.51959 0.30788 0.91891 0.0
H322 H 0.51535 0.3475 0.93537 0.0
H323 H 0.43268 0.28053 0.95268 0.0
H324 H 0.43693 0.24068 0.9359 0.0
H325 H 0.46351 0.1777 0.90962 0.0
H326 H 0.46161 0.14068 0.92873 0.0
H327 H 0.48742 0.20623 0.97397 0.0
H328 H 0.48945 0.24304 0.95493 0.0
H329 H 0.50711 0.25837 0.88307 0.0
H330 H 0.42328 0.20003 0.90259 0.0
O331 O 0.52205 0.2579 0.91582 0.0
H332 H 0.48319 0.24267 0.85312 0.0
H333 H 0.39896 0.18358 0.87231 0.0
C334 C 0.47906 0.27136 0.92666 0.0
C335 C 0.50037 0.30165 0.92607 0.0
C336 C 0.49793 0.32429 0.93549 0.0
C337 C 0.474 0.31703 0.94558 0.0
C338 C 0.4514 0.28673 0.94505 0.0
C339 C 0.45389 0.264 0.93558 0.0
C340 C 0.47587 0.21293 0.93088 0.0
C341 C 0.46766 0.18374 0.9237 0.0
C342 C 0.46663 0.16261 0.93462 0.0
C343 C 0.47446 0.17065 0.95281 0.0
C344 C 0.48138 0.19947 0.95999 0.0
C345 C 0.48225 0.22044 0.94911 0.0
C346 C 0.46708 0.22984 0.895 0.0
C347 C 0.48356 0.2418 0.88088 0.0
C348 C 0.46986 0.23267 0.86371 0.0
C349 C 0.43925 0.21148 0.86027 0.0
C350 C 0.42259 0.1999 0.87452 0.0
C351 C 0.43643 0.20913 0.89179 0.0
P352 P 0.79191 0.17851 0.93574 0.0
H353 H 0.83257 0.2095 0.96765 0.0
H354 H 0.85846 0.26184 0.98075 0.0
H355 H 0.81238 0.28338 0.94087 0.0
H356 H 0.78691 0.23086 0.92739 0.0
H357 H 0.75736 0.1154 0.94134 0.0
H358 H 0.70855 0.08531 0.95168 0.0
H359 H 0.69258 0.15957 0.94921 0.0
H360 H 0.74178 0.18988 0.93896 0.0
H361 H 0.84075 0.18265 0.91755 0.0
H362 H 0.75787 0.18004 0.90393 0.0
O363 O 0.81071 0.16329 0.94457 0.0
H364 H 0.85257 0.18897 0.88744 0.0
H365 H 0.77007 0.18737 0.87348 0.0
C366 C 0.80801 0.21631 0.94643 0.0
C367 C 0.82782 0.22532 0.96171 0.0
C368 C 0.84261 0.25523 0.96922 0.0
C369 C 0.83746 0.27655 0.96175 0.0
C370 C 0.81659 0.26727 0.94689 0.0
C371 C 0.80212 0.23734 0.93919 0.0
C372 C 0.75355 0.15515 0.93976 0.0
C373 C 0.74331 0.12521 0.94282 0.0
C374 C 0.71543 0.10801 0.94878 0.0
C375 C 0.69702 0.1203 0.95153 0.0
C376 C 0.70638 0.1496 0.94724 0.0
C377 C 0.73454 0.16696 0.94144 0.0
C378 C 0.79818 0.18031 0.91291 0.0
C379 C 0.8249 0.18315 0.908 0.0
C380 C 0.83184 0.18717 0.89077 0.0
C381 C 0.81243 0.189 0.87803 0.0
C382 C 0.78539 0.18582 0.88293 0.0
C383 C 0.77839 0.18166 0.9003 0.0
P384 P 0.60551 0.81799 0.06696 0.0
H385 H 0.56325 0.78482 0.03555 0.0
H386 H 0.53699 0.73157 0.02385 0.0
H387 H 0.57298 0.71125 0.06967 0.0
H388 H 0.59949 0.76443 0.08111 0.0
H389 H 0.63094 0.87058 0.04746 0.0
H390 H 0.61086 0.90021 0.03552 0.0
H391 H 0.52704 0.84364 0.05592 0.0
H392 H 0.54716 0.81344 0.06741 0.0
H393 H 0.65685 0.85523 0.09293 0.0
H394 H 0.56255 0.79389 0.09288 0.0
O395 O 0.6391 0.82952 0.0602 0.0
H396 H 0.66293 0.86038 0.12496 0.0
H397 H 0.56827 0.79953 0.12502 0.0
C398 C 0.58278 0.77849 0.0594 0.0
C399 C 0.56499 0.76882 0.04324 0.0
C400 C 0.54996 0.73836 0.03657 0.0
C401 C 0.55292 0.7172 0.04583 0.0
C402 C 0.57044 0.72702 0.06215 0.0
C403 C 0.58539 0.75739 0.06878 0.0
C404 C 0.59046 0.83972 0.05823 0.0
C405 C 0.60821 0.86445 0.04933 0.0
C406 C 0.59676 0.88156 0.04262 0.0
C407 C 0.56734 0.87438 0.0448 0.0
C408 C 0.54965 0.84958 0.05383 0.0
C409 C 0.56116 0.83242 0.06051 0.0
C410 C 0.60934 0.82378 0.09057 0.0
C411 C 0.63738 0.84308 0.09983 0.0
C412 C 0.64078 0.84621 0.11818 0.0
C413 C 0.61611 0.83023 0.12758 0.0
C414 C 0.5878 0.81178 0.11819 0.0
C415 C 0.58446 0.80866 0.09983 0.0
P416 P 0.24169 0.76365 0.09835 0.0
H417 H 0.2369 0.74165 0.0618 0.0
H418 H 0.19509 0.70326 0.04157 0.0
H419 H 0.13484 0.69362 0.08043 0.0
H420 H 0.17638 0.73303 0.10012 0.0
H421 H 0.30529 0.80416 0.10678 0.0
H422 H 0.34175 0.84824 0.09405 0.0
H423 H 0.27091 0.84481 0.0598 0.0
H424 H 0.23451 0.80001 0.07244 0.0
H425 H 0.2149 0.72315 0.12458 0.0
H426 H 0.2424 0.81554 0.11794 0.0
O427 O 0.25972 0.74482 0.10124 0.0
H428 H 0.19594 0.72792 0.15229 0.0
H429 H 0.22389 0.82061 0.14602 0.0
C430 C 0.20992 0.74005 0.08253 0.0
C431 C 0.21458 0.73175 0.06578 0.0
C432 C 0.19065 0.70955 0.05431 0.0
C433 C 0.16161 0.69483 0.0595 0.0
C434 C 0.15682 0.70446 0.07595 0.0
C435 C 0.18076 0.72693 0.08734 0.0
C436 C 0.26734 0.79852 0.09031 0.0
C437 C 0.29758 0.81303 0.09662 0.0
C438 C 0.3184 0.83843 0.08939 0.0
C439 C 0.30935 0.85006 0.07578 0.0
C440 C 0.27872 0.83616 0.07003 0.0
C441 C 0.25786 0.81064 0.0773 0.0
C442 C 0.23019 0.76901 0.1193 0.0
C443 C 0.21716 0.74458 0.12921 0.0
C444 C 0.20619 0.74726 0.14497 0.0
C445 C 0.20841 0.7746 0.15122 0.0
C446 C 0.22208 0.79935 0.14148 0.0
C447 C 0.23262 0.79647 0.12548 0.0
P448 P 0.199 0.3795 0.08095 0.0
H449 H 0.19962 0.40465 0.04805 0.0
H450 H 0.17543 0.43146 0.03695 0.0
H451 H 0.14326 0.43306 0.08746 0.0
H452 H 0.16804 0.40717 0.09854 0.0
H453 H 0.22873 0.34766 0.0686 0.0
H454 H 0.27679 0.36453 0.05718 0.0
H455 H 0.30054 0.45709 0.07041 0.0
H456 H 0.25203 0.43997 0.0818 0.0
H457 H 0.14861 0.33632 0.0974 0.0
H458 H 0.23696 0.41067 0.11444 0.0
O459 O 0.17723 0.34632 0.06899 0.0
H460 H 0.1378 0.33069 0.12779 0.0
H461 H 0.22614 0.40516 0.14524 0.0
C462 C 0.18583 0.404 0.07412 0.0
C463 C 0.1879 0.41139 0.05683 0.0
C464 C 0.17381 0.42645 0.05046 0.0
C465 C 0.15715 0.4342 0.06126 0.0
C466 C 0.15613 0.42776 0.07882 0.0
C467 C 0.17027 0.41275 0.08517 0.0
C468 C 0.23661 0.39257 0.07575 0.0
C469 C 0.24435 0.3716 0.06923 0.0
C470 C 0.27178 0.38126 0.06263 0.0
C471 C 0.29222 0.41212 0.06263 0.0
C472 C 0.2852 0.43316 0.07022 0.0
C473 C 0.25752 0.42342 0.0767 0.0
C474 C 0.19378 0.37354 0.10366 0.0
C475 C 0.16593 0.35112 0.10772 0.0
C476 C 0.15965 0.34812 0.12512 0.0
C477 C 0.18104 0.36761 0.13891 0.0
C478 C 0.2093 0.3897 0.13488 0.0
C479 C 0.21552 0.39284 0.11732 0.0
P480 P 0.45691 0.93125 0.25646 0.0
H481 H 0.44048 0.92842 0.29208 0.0
H482 H 0.39289 0.90921 0.30436 0.0
H483 H 0.34683 0.88048 0.2519 0.0
H484 H 0.39448 0.89869 0.23979 0.0
H485 H 0.50997 0.93585 0.24313 0.0
H486 H 0.54144 0.91487 0.25112 0.0
H487 H 0.48068 0.86411 0.28804 0.0
H488 H 0.44914 0.88494 0.2799 0.0
H489 H 0.47329 0.98221 0.23603 0.0
H490 H 0.4352 0.88615 0.22572 0.0
O491 O 0.47763 0.96603 0.26677 0.0
H492 H 0.47515 0.98682 0.20476 0.0
H493 H 0.43565 0.89028 0.19413 0.0
C494 C 0.42113 0.91489 0.26504 0.0
C495 C 0.42009 0.91767 0.28323 0.0
C496 C 0.39282 0.90693 0.29023 0.0
C497 C 0.3659 0.89349 0.27914 0.0
C498 C 0.36702 0.89038 0.26087 0.0
C499 C 0.39438 0.90093 0.25389 0.0
C500 C 0.47705 0.91187 0.2608 0.0
C501 C 0.50307 0.91973 0.25269 0.0
C502 C 0.52105 0.9077 0.25725 0.0
C503 C 0.51359 0.8879 0.27025 0.0
C504 C 0.48715 0.87955 0.27809 0.0
C505 C 0.46902 0.89141 0.2734 0.0
C506 C 0.45425 0.93385 0.23319 0.0
C507 C 0.4648 0.96199 0.22699 0.0
C508 C 0.46562 0.96455 0.20901 0.0
C509 C 0.45558 0.93892 0.1968 0.0
C510 C 0.44401 0.91056 0.20311 0.0
C511 C 0.44349 0.9081 0.22115 0.0
P512 P 0.15989 0.57811 0.25804 0.0
H513 H 0.19123 0.64332 0.25813 0.0
H514 H 0.18669 0.683 0.27436 0.0
H515 H 0.11061 0.61574 0.2971 0.0
H516 H 0.11523 0.57595 0.28067 0.0
H517 H 0.13397 0.51235 0.25153 0.0
H518 H 0.13335 0.47558 0.27035 0.0
H519 H 0.17214 0.54465 0.31452 0.0
H520 H 0.17329 0.58132 0.29563 0.0
H521 H 0.17118 0.55643 0.22501 0.0
H522 H 0.10019 0.56598 0.24498 0.0
O523 O 0.19579 0.59422 0.25463 0.0
H524 H 0.1435 0.53908 0.19583 0.0
H525 H 0.07256 0.54919 0.21572 0.0
C526 C 0.15404 0.60678 0.26857 0.0
C527 C 0.17348 0.63706 0.26653 0.0
C528 C 0.17088 0.65971 0.27583 0.0
C529 C 0.14857 0.65246 0.2872 0.0
C530 C 0.12801 0.62198 0.28843 0.0
C531 C 0.13074 0.59927 0.27916 0.0
C532 C 0.15325 0.54949 0.27224 0.0
C533 C 0.14167 0.51941 0.26535 0.0
C534 C 0.14127 0.49837 0.27612 0.0
C535 C 0.15284 0.50726 0.29389 0.0
C536 C 0.16335 0.53718 0.30085 0.0
C537 C 0.16375 0.55811 0.29009 0.0
C538 C 0.13802 0.56313 0.23704 0.0
C539 C 0.14963 0.55484 0.2231 0.0
C540 C 0.13383 0.54502 0.20641 0.0
C541 C 0.10602 0.54315 0.20339 0.0
C542 C 0.09389 0.55028 0.21762 0.0
C543 C 0.10975 0.5601 0.23433 0.0
P544 P 0.45906 0.5114 0.26825 0.0
H545 H 0.45229 0.54147 0.30012 0.0
H546 H 0.47748 0.59431 0.3125 0.0
H547 H 0.52625 0.61988 0.26702 0.0
H548 H 0.5017 0.56719 0.25498 0.0
H549 H 0.43511 0.45736 0.28646 0.0
H550 H 0.38836 0.42846 0.29919 0.0
H551 H 0.35735 0.48598 0.27991 0.0
H552 H 0.40437 0.51484 0.26707 0.0
H553 H 0.48029 0.48282 0.24326 0.0
H554 H 0.43368 0.53232 0.24131 0.0
O555 O 0.48267 0.50093 0.27613 0.0
H556 H 0.48526 0.48529 0.21196 0.0
H557 H 0.438 0.53435 0.20977 0.0
C558 C 0.47454 0.55042 0.27641 0.0
C559 C 0.46797 0.55851 0.29266 0.0
C560 C 0.48234 0.58874 0.29972 0.0
C561 C 0.50385 0.61129 0.29074 0.0
C562 C 0.50998 0.60304 0.27434 0.0
C563 C 0.4957 0.57289 0.26734 0.0
C564 C 0.42326 0.48835 0.27591 0.0
C565 C 0.41822 0.46368 0.28484 0.0
C566 C 0.39153 0.44726 0.29222 0.0
C567 C 0.36929 0.45513 0.29072 0.0
C568 C 0.374 0.47927 0.2812 0.0
C569 C 0.40083 0.49578 0.27387 0.0
C570 C 0.45684 0.50762 0.24463 0.0
C571 C 0.47052 0.49365 0.23601 0.0
C572 C 0.47322 0.49496 0.21805 0.0
C573 C 0.46226 0.51026 0.20837 0.0
C574 C 0.44707 0.52278 0.2169 0.0
C575 C 0.44432 0.52138 0.23488 0.0
C576 C 0.52195 0.0166 0.05135 0.0
Eu577 Eu 0.49981 0.00921 0.0189 0.0
C578 C 0.51003 0.00727 0.06826 0.0
C579 C 0.51933 0.02909 0.08277 0.0
C580 C 0.50829 0.02097 0.0989 0.0
C581 C 0.48789 0.99077 0.10089 0.0
C582 C 0.47849 0.96888 0.08635 0.0
C583 C 0.48932 0.97707 0.07013 0.0
C584 C 0.48284 0.04479 0.0038 0.0
C585 C 0.4278 0.96016 0.01539 0.0
C586 C 0.44194 0.97483 0.95013 0.0
Eu587 Eu 0.46442 0.98324 0.98265 0.0
C588 C 0.45241 0.98782 0.93371 0.0
C589 C 0.48278 0.0022 0.93117 0.0
C590 C 0.49223 0.01368 0.91527 0.0
C591 C 0.47145 0.01102 0.90166 0.0
C592 C 0.4411 0.99698 0.90443 0.0
C593 C 0.4317 0.98551 0.92031 0.0
C594 C 0.48286 0.94869 0.99787 0.0
C595 C 0.5363 0.03151 0.98628 0.0
O596 O 0.51927 0.99549 0.03964 0.0
O597 O 0.51642 0.03607 0.04448 0.0
O598 O 0.50799 0.05492 0.01343 0.0
O599 O 0.46701 0.01652 0.00337 0.0
O600 O 0.45394 0.97382 0.02501 0.0
O601 O 0.42523 0.9628 0.99847 0.0
O602 O 0.43971 0.99233 0.96235 0.0
O603 O 0.45354 0.95951 0.95637 0.0
O604 O 0.4573 0.93769 0.98855 0.0
O605 O 0.49779 0.97684 0.99793 0.0
O606 O 0.51004 0.02071 0.97704 0.0
O607 O 0.53852 0.02619 0.00273 0.0
H608 H 0.53524 0.05249 0.08162 0.0
H609 H 0.51614 0.03826 0.10994 0.0
H610 H 0.46258 0.94549 0.08749 0.0
H611 H 0.48147 0.95978 0.0591 0.0
H612 H 0.49916 0.00431 0.94139 0.0
H613 H 0.51578 0.02467 0.91364 0.0
H614 H 0.42448 0.99421 0.89415 0.0
H615 H 0.40818 0.97448 0.92206 0.0
C616 C 0.99982 0.51488 0.05218 0.0
Eu617 Eu 0.99822 0.4988 0.019 0.0
C618 C 0.01566 0.51782 0.06929 0.0
C619 C 0.00402 0.52185 0.08456 0.0
C620 C 0.01877 0.52514 0.10104 0.0
C621 C 0.04546 0.52439 0.10255 0.0
C622 C 0.05699 0.52014 0.08714 0.0
C623 C 0.04217 0.51687 0.07062 0.0
C624 C 0.95911 0.44408 1.00139 0.0
C625 C 0.04453 0.47508 0.0118 0.0
C626 C 0.00564 0.46996 0.9484 0.0
Eu627 Eu 0.00963 0.48802 0.98146 0.0
C628 C 0.99431 0.47272 0.93093 0.0
C629 C 0.01461 0.48722 0.91875 0.0
C630 C 0.00449 0.48838 0.90174 0.0
C631 C 0.97381 0.47481 0.89649 0.0
C632 C 0.95346 0.46072 0.90876 0.0
C633 C 0.9636 0.45974 0.92585 0.0
C634 C 0.05104 0.54143 0.99883 0.0
C635 C 0.96434 0.51371 0.98905 0.0
O636 O 0.01519 0.5337 0.04116 0.0
O637 O 0.98229 0.48748 0.0446 0.0
O638 O 0.95096 0.45904 0.01171 0.0
O639 O 0.98689 0.45815 1.00129 0.0
O640 O 0.03753 0.49103 0.02275 0.0
O641 O 0.03237 0.46662 0.99532 0.0
O642 O 0.98607 0.4542 0.95899 0.0
O643 O 0.02886 0.49418 0.95655 0.0
O644 O 0.05707 0.52581 0.98758 0.0
O645 O 0.02326 0.52926 0.99957 0.0
O646 O 0.97328 0.50034 0.97752 0.0
O647 O 0.97376 0.51874 0.0059 0.0
H648 H 0.9836 0.52271 0.08373 0.0
H649 H 0.00954 0.52887 0.1126 0.0
H650 H 0.07735 0.51919 0.08784 0.0
H651 H 0.05141 0.51374 0.05892 0.0
H652 H 0.03836 0.49714 0.92228 0.0
H653 H 0.02069 0.49902 0.89251 0.0
H654 H 0.92969 0.45026 0.90511 0.0
H655 H 0.94737 0.4484 0.93495 0.0
C656 C 0.46554 0.4711 0.96139 0.0
Eu657 Eu 0.48883 0.49306 0.99368 0.0
C658 C 0.47646 0.47464 0.94399 0.0
C659 C 0.50437 0.499 0.94146 0.0
C660 C 0.51486 0.50157 0.92493 0.0
C661 C 0.49759 0.47981 0.91065 0.0
C662 C 0.4696 0.45549 0.91332 0.0
C663 C 0.45917 0.45295 0.92985 0.0
C664 C 0.50773 0.54994 0.0082 0.0
C665 C 0.56158 0.52211 0.996 0.0
C666 C 0.54777 0.53505 0.06182 0.0
Eu667 Eu 0.52592 0.51211 0.02952 0.0
C668 C 0.535 0.52889 0.07867 0.0
C669 C 0.50793 0.50238 0.07985 0.0
C670 C 0.4958 0.49647 0.09588 0.0
C671 C 0.51047 0.51703 0.111 0.0
C672 C 0.5374 0.54377 0.10967 0.0
C673 C 0.54957 0.54962 0.09363 0.0
C674 C 0.51077 0.45666 0.01492 0.0
C675 C 0.45286 0.48129 0.027 0.0
O676 O 0.47495 0.45793 0.97187 0.0
O677 O 0.46594 0.49452 0.96942 0.0
O678 O 0.48178 0.53298 0.99936 0.0
O679 O 0.52251 0.53676 0.0082 0.0
O680 O 0.53518 0.50478 0.98687 0.0
O681 O 0.56406 0.53208 0.01273 0.0
O682 O 0.53702 0.54689 0.05114 0.0
O683 O 0.55054 0.51349 0.05381 0.0
O684 O 0.53532 0.47432 0.02492 0.0
O685 O 0.494 0.46788 0.01444 0.0
O686 O 0.4791 0.49875 0.03621 0.0
O687 O 0.45061 0.47218 0.01019 0.0
H688 H 0.51806 0.51593 0.95229 0.0
H689 H 0.53639 0.52068 0.92331 0.0
H690 H 0.45598 0.43804 0.90271 0.0
H691 H 0.43769 0.43387 0.93163 0.0
H692 H 0.49622 0.48621 0.06839 0.0
H693 H 0.47485 0.47589 0.09642 0.0
H694 H 0.54937 0.5599 0.12112 0.0
H695 H 0.57042 0.57023 0.09292 0.0
C696 C 0.19391 0.34364 0.38888 0.0
Eu697 Eu 0.17112 0.33971 0.35699 0.0
C698 C 0.18352 0.3313 0.40551 0.0
C699 C 0.15559 0.32517 0.41041 0.0
C700 C 0.14657 0.31412 0.42648 0.0
C701 C 0.16529 0.30894 0.43791 0.0
C702 C 0.19304 0.31472 0.43277 0.0
C703 C 0.20202 0.32576 0.41673 0.0
C704 C 0.15505 0.37723 0.34369 0.0
C705 C 0.0987 0.29213 0.35284 0.0
C706 C 0.1147 0.31385 0.28812 0.0
Eu707 Eu 0.13521 0.31709 0.32046 0.0
C708 C 0.12776 0.32288 0.27139 0.0
C709 C 0.14514 0.31175 0.26426 0.0
C710 C 0.15688 0.32026 0.24829 0.0
C711 C 0.15165 0.3402 0.23912 0.0
C712 C 0.13472 0.35173 0.24648 0.0
C713 C 0.12285 0.34309 0.26239 0.0
C714 C 0.15381 0.28116 0.33359 0.0
C715 C 0.20801 0.36363 0.3244 0.0
O716 O 0.19209 0.32454 0.37606 0.0
O717 O 0.18614 0.3626 0.38357 0.0
O718 O 0.18005 0.3863 0.35326 0.0
O719 O 0.13881 0.34889 0.34249 0.0
O720 O 0.12498 0.30327 0.36211 0.0
O721 O 0.09619 0.29772 0.33646 0.0
O722 O 0.1203 0.33574 0.30014 0.0
O723 O 0.11598 0.29168 0.29468 0.0
O724 O 0.12831 0.27071 0.32428 0.0
O725 O 0.16849 0.3094 0.33457 0.0
O726 O 0.18189 0.3521 0.31486 0.0
O727 O 0.2101 0.35893 0.34101 0.0
H728 H 0.14087 0.32914 0.40188 0.0
H729 H 0.12493 0.30958 0.42994 0.0
H730 H 0.20819 0.31139 0.44133 0.0
H731 H 0.22363 0.33032 0.41317 0.0
H732 H 0.14951 0.29625 0.27091 0.0
H733 H 0.16949 0.31064 0.24295 0.0
H734 H 0.13065 0.36752 0.23996 0.0
H735 H 0.10975 0.35219 0.26767 0.0
C736 C 0.66076 0.84856 0.38273 0.0
Eu737 Eu 0.66095 0.83365 0.34965 0.0
C738 C 0.6787 0.8549 0.39959 0.0
C739 C 0.66441 0.84866 0.41495 0.0
C740 C 0.68087 0.85483 0.43122 0.0
C741 C 0.71198 0.86746 0.4324 0.0
C742 C 0.72626 0.87351 0.41693 0.0
C743 C 0.70971 0.86717 0.40061 0.0
C744 C 0.62293 0.77924 0.3315 0.0
C745 C 0.70857 0.81133 0.34356 0.0
C746 C 0.67268 0.8059 0.27952 0.0
Eu747 Eu 0.67465 0.82399 0.31235 0.0
C748 C 0.65969 0.80582 0.262 0.0
C749 C 0.65295 0.82814 0.25813 0.0
C750 C 0.64179 0.82809 0.24107 0.0
C751 C 0.63701 0.80558 0.22771 0.0
C752 C 0.64326 0.78298 0.23183 0.0
C753 C 0.6545 0.78314 0.24881 0.0
C754 C 0.71532 0.87709 0.33041 0.0
C755 C 0.62696 0.84696 0.31884 0.0
O756 O 0.67241 0.86814 0.37139 0.0
O757 O 0.64712 0.82069 0.37546 0.0
O758 O 0.61416 0.79352 0.34189 0.0
O759 O 0.65077 0.79368 0.33174 0.0
O760 O 0.70077 0.82691 0.35423 0.0
O761 O 0.6976 0.80337 0.32685 0.0
O762 O 0.65404 0.78898 0.29014 0.0
O763 O 0.69362 0.83197 0.2874 0.0
O764 O 0.7218 0.86195 0.31908 0.0
O765 O 0.68741 0.86473 0.3308 0.0
O766 O 0.63753 0.83485 0.30764 0.0
O767 O 0.63518 0.85171 0.33587 0.0
H768 H 0.64048 0.83919 0.41436 0.0
H769 H 0.66931 0.85027 0.44292 0.0
H770 H 0.75016 0.88295 0.41744 0.0
H771 H 0.7211 0.87194 0.38884 0.0
H772 H 0.65658 0.84571 0.26822 0.0
H773 H 0.63692 0.84562 0.23832 0.0
H774 H 0.64021 0.76557 0.2218 0.0
H775 H 0.65958 0.76575 0.25158 0.0
C776 C 0.13063 0.7997 0.2959 0.0
Eu777 Eu 0.15229 0.82539 0.32788 0.0
C778 C 0.14274 0.7989 0.27915 0.0
C779 C 0.12582 0.79519 0.26334 0.0
C780 C 0.13741 0.79549 0.24733 0.0
C781 C 0.16624 0.79972 0.24687 0.0
C782 C 0.18314 0.80342 0.26278 0.0
C783 C 0.17142 0.80288 0.27878 0.0
C784 C 0.16546 0.88159 0.34024 0.0
C785 C 0.22545 0.86035 0.33142 0.0
C786 C 0.20928 0.87684 0.39582 0.0
Eu787 Eu 0.18853 0.84999 0.36409 0.0
C788 C 0.19842 0.87029 0.41314 0.0
C789 C 0.17786 0.84072 0.41615 0.0
C790 C 0.16769 0.83462 0.43267 0.0
C791 C 0.17763 0.85806 0.44637 0.0
C792 C 0.19773 0.88773 0.44318 0.0
C793 C 0.20809 0.89377 0.42668 0.0
C794 C 0.17814 0.79506 0.35154 0.0
C795 C 0.115 0.81421 0.36089 0.0
O796 O 0.13624 0.78651 0.30833 0.0
O797 O 0.13368 0.82559 0.30172 0.0
O798 O 0.14038 0.86221 0.3312 0.0
O799 O 0.18258 0.87105 0.3415 0.0
O800 O 0.20003 0.83932 0.3225 0.0
O801 O 0.22604 0.87246 0.34729 0.0
O802 O 0.19386 0.88371 0.38495 0.0
O803 O 0.2167 0.85831 0.38828 0.0
O804 O 0.20207 0.81477 0.36143 0.0
O805 O 0.15975 0.8042 0.35012 0.0
O806 O 0.14085 0.83215 0.3704 0.0
O807 O 0.11337 0.80553 0.34405 0.0
H808 H 0.10371 0.79227 0.2634 0.0
H809 H 0.12397 0.79287 0.2353 0.0
H810 H 0.20527 0.80635 0.26284 0.0
H811 H 0.18472 0.80557 0.29084 0.0
H812 H 0.16976 0.82234 0.40574 0.0
H813 H 0.15195 0.81161 0.43471 0.0
H814 H 0.20592 0.90618 0.45354 0.0
H815 H 0.22377 0.91675 0.42452 0.0
C816 C 0.86604 0.69417 0.72531 0.0
Eu817 Eu 0.84233 0.68768 0.69333 0.0
C818 C 0.85639 0.68773 0.7431 0.0
C819 C 0.85772 0.71054 0.75489 0.0
C820 C 0.85049 0.70523 0.77204 0.0
C821 C 0.84199 0.67704 0.7779 0.0
C822 C 0.84013 0.65403 0.76601 0.0
C823 C 0.84733 0.65934 0.74882 0.0
C824 C 0.82116 0.72058 0.67914 0.0
C825 C 0.77055 0.63801 0.69037 0.0
C826 C 0.78387 0.65253 0.62441 0.0
Eu827 Eu 0.80602 0.66027 0.65699 0.0
C828 C 0.79543 0.65871 0.60711 0.0
C829 C 0.8186 0.65388 0.60253 0.0
C830 C 0.82886 0.6595 0.58595 0.0
C831 C 0.8164 0.67037 0.5737 0.0
C832 C 0.79368 0.6758 0.5785 0.0
C833 C 0.78326 0.66995 0.59502 0.0
C834 C 0.83021 0.62973 0.67143 0.0
C835 C 0.87779 0.71044 0.66015 0.0
O836 O 0.85904 0.67106 0.71384 0.0
O837 O 0.86347 0.71539 0.71834 0.0
O838 O 0.84624 0.73215 0.68907 0.0
O839 O 0.80723 0.69215 0.67823 0.0
O840 O 0.79699 0.65187 0.69968 0.0
O841 O 0.7673 0.64025 0.6734 0.0
O842 O 0.79053 0.67609 0.63532 0.0
O843 O 0.78583 0.63163 0.63216 0.0
O844 O 0.80437 0.61636 0.66218 0.0
O845 O 0.84216 0.65772 0.67163 0.0
O846 O 0.85143 0.69743 0.65071 0.0
O847 O 0.88052 0.70654 0.67685 0.0
H848 H 0.86478 0.73271 0.75094 0.0
H849 H 0.8518 0.72334 0.78078 0.0
H850 H 0.83406 0.63219 0.77014 0.0
H851 H 0.84634 0.64132 0.74016 0.0
H852 H 0.8287 0.64565 0.61172 0.0
H853 H 0.84664 0.65543 0.58273 0.0
H854 H 0.78342 0.6839 0.56933 0.0
H855 H 0.76551 0.67401 0.59832 0.0
C856 C 0.33449 0.19918 0.71227 0.0
Eu857 Eu 0.33046 0.17645 0.68015 0.0
C858 C 0.34124 0.19555 0.73044 0.0
C859 C 0.33819 0.21289 0.7441 0.0
C860 C 0.34533 0.21072 0.76154 0.0
C861 C 0.35565 0.19106 0.76565 0.0
C862 C 0.35835 0.17339 0.75186 0.0
C863 C 0.35119 0.17562 0.73436 0.0
C864 C 0.29214 0.119 0.66578 0.0
C865 C 0.37455 0.14872 0.67578 0.0
C866 C 0.33519 0.13567 0.61133 0.0
Eu867 Eu 0.34103 0.15954 0.64332 0.0
C868 C 0.32919 0.14113 0.59346 0.0
C869 C 0.33219 0.16885 0.59002 0.0
C870 C 0.32787 0.17416 0.57276 0.0
C871 C 0.32039 0.15178 0.55871 0.0
C872 C 0.31663 0.12377 0.56238 0.0
C873 C 0.32107 0.11855 0.5796 0.0
C874 C 0.38125 0.21611 0.65743 0.0
C875 C 0.29693 0.18731 0.64783 0.0
O876 O 0.35671 0.20943 0.70258 0.0
O877 O 0.30962 0.17742 0.70383 0.0
O878 O 0.28396 0.13439 0.67569 0.0
O879 O 0.31967 0.13379 0.66495 0.0
O880 O 0.36761 0.16571 0.68593 0.0
O881 O 0.3629 0.13941 0.65924 0.0
O882 O 0.31313 0.12662 0.62113 0.0
O883 O 0.36085 0.15589 0.61981 0.0
O884 O 0.38754 0.19993 0.64679 0.0
O885 O 0.35365 0.20287 0.65883 0.0
O886 O 0.30461 0.17105 0.63766 0.0
O887 O 0.3078 0.19612 0.6645 0.0
H888 H 0.33066 0.22848 0.74126 0.0
H889 H 0.34352 0.22506 0.77177 0.0
H890 H 0.366 0.15787 0.75458 0.0
H891 H 0.35362 0.16203 0.72392 0.0
H892 H 0.33835 0.1865 0.60065 0.0
H893 H 0.33111 0.19602 0.57039 0.0
H894 H 0.31027 0.10583 0.55192 0.0
H895 H 0.31845 0.09695 0.58208 0.0
C896 C 0.7918 0.14285 0.62601 0.0
Eu897 Eu 0.81617 0.16203 0.6583 0.0
C898 C 0.80079 0.13875 0.60872 0.0
C899 C 0.78441 0.13876 0.5936 0.0
C900 C 0.79262 0.13519 0.577 0.0
C901 C 0.81745 0.13156 0.57522 0.0
C902 C 0.83397 0.13176 0.59048 0.0
C903 C 0.82569 0.13531 0.6071 0.0
C904 C 0.82926 0.21415 0.67694 0.0
C905 C 0.88902 0.1925 0.66044 0.0
C906 C 0.87538 0.19333 0.72675 0.0
Eu907 Eu 0.85344 0.17648 0.69399 0.0
C908 C 0.86259 0.19223 0.74359 0.0
C909 C 0.83882 0.16527 0.74806 0.0
C910 C 0.82759 0.16435 0.76426 0.0
C911 C 0.83962 0.19041 0.77633 0.0
C912 C 0.86283 0.21757 0.77156 0.0
C913 C 0.87424 0.21841 0.7554 0.0
C914 C 0.8412 0.12509 0.67491 0.0
C915 C 0.78053 0.14653 0.69183 0.0
O916 O 0.79157 0.12509 0.63749 0.0
O917 O 0.80295 0.17072 0.63289 0.0
O918 O 0.80483 0.19784 0.66657 0.0
O919 O 0.84668 0.20396 0.67565 0.0
O920 O 0.86274 0.17565 0.65109 0.0
O921 O 0.89143 0.1998 0.67757 0.0
O922 O 0.87426 0.21172 0.71618 0.0
O923 O 0.86917 0.16752 0.71845 0.0
O924 O 0.86627 0.14253 0.68454 0.0
O925 O 0.82326 0.13459 0.67662 0.0
O926 O 0.80677 0.16211 0.70131 0.0
O927 O 0.77807 0.14022 0.67465 0.0
H928 H 0.76525 0.14161 0.59464 0.0
H929 H 0.7797 0.1356 0.56556 0.0
H930 H 0.85301 0.12871 0.58956 0.0
H931 H 0.83864 0.13527 0.61866 0.0
H932 H 0.8291 0.14473 0.73914 0.0
H933 H 0.80998 0.14295 0.76749 0.0
H934 H 0.87227 0.23824 0.78032 0.0
H935 H 0.89232 0.23952 0.75216 0.0
H936 H 0.31002 0.8574 0.04082 0.0
H937 H 0.36018 0.90017 0.09135 0.0
H938 H 0.40053 0.93865 0.0771 0.0
H939 H 0.42287 0.95835 0.05034 0.0
H940 H 0.37273 0.91658 0.99973 0.0
H941 H 0.33074 0.87998 0.01404 0.0
C942 C 0.32947 0.87548 0.04877 0.0
C943 C 0.33212 0.87556 0.06716 0.0
C944 C 0.35263 0.89771 0.04048 0.0
C945 C 0.35773 0.89909 0.07717 0.0
C946 C 0.3808 0.92123 0.06903 0.0
C947 C 0.40269 0.94141 0.0424 0.0
C948 C 0.40108 0.94008 0.02396 0.0
C949 C 0.37873 0.92041 0.05069 0.0
C950 C 0.37459 0.91815 0.01393 0.0
C951 C 0.35061 0.89712 0.02211 0.0
H952 H 0.12443 0.41809 0.02942 0.0
H953 H 0.14906 0.47872 0.07691 0.0
H954 H 0.11653 0.49681 0.0658 0.0
H955 H 0.08024 0.49455 0.04285 0.0
H956 H 0.0564 0.43429 0.99523 0.0
H957 H 0.08995 0.41738 0.00605 0.0
C958 C 0.12316 0.43566 0.03724 0.0
C959 C 0.13922 0.44698 0.054 0.0
C960 C 0.10448 0.446 0.03076 0.0
C961 C 0.13672 0.46933 0.06405 0.0
C962 C 0.1182 0.47977 0.05769 0.0
C963 C 0.08234 0.47771 0.03483 0.0
C964 C 0.06563 0.4656 0.01829 0.0
C965 C 0.10174 0.46805 0.04113 0.0
C966 C 0.06894 0.44402 0.00801 0.0
C967 C 0.08812 0.43428 0.0142 0.0
H968 H 0.5789 0.68295 0.04508 0.0
H969 H 0.49671 0.68019 0.02893 0.0
H970 H 0.47513 0.62798 0.01585 0.0
H971 H 0.47986 0.58296 0.009 0.0
H972 H 0.56272 0.58699 0.02519 0.0
H973 H 0.58359 0.63863 0.03848 0.0
C974 C 0.55612 0.67083 0.0389 0.0
C975 C 0.53937 0.68536 0.0381 0.0
C976 C 0.54395 0.64098 0.03142 0.0
C977 C 0.51013 0.66954 0.02965 0.0
C978 C 0.49775 0.63967 0.02223 0.0
C979 C 0.50244 0.59521 0.01547 0.0
C980 C 0.51967 0.58116 0.01619 0.0
C981 C 0.51448 0.62515 0.02301 0.0
C982 C 0.54894 0.59725 0.02454 0.0
C983 C 0.56094 0.62681 0.03213 0.0
H984 H 0.89722 0.31027 0.96612 0.0
H985 H 0.81781 0.31457 0.97301 0.0
H986 H 0.84835 0.36724 0.98602 0.0
H987 H 0.89815 0.41173 0.99616 0.0
H988 H 0.97698 0.40687 0.98757 0.0
H989 H 0.94627 0.35486 0.97452 0.0
C990 C 0.88667 0.32281 0.9705 0.0
C991 C 0.85545 0.30868 0.96885 0.0
C992 C 0.90429 0.35294 0.97768 0.0
C993 C 0.84189 0.32514 0.97423 0.0
C994 C 0.85932 0.35514 0.98169 0.0
C995 C 0.90847 0.3992 0.99139 0.0
C996 C 0.93974 0.41299 0.99296 0.0
C997 C 0.8906 0.36924 0.98361 0.0
C998 C 0.95294 0.39672 0.98656 0.0
C999 C 0.93542 0.36695 0.9791 0.0
H1000 H 0.6631 0.55087 0.94615 0.0
H1001 H 0.7186 0.5949 0.99502 0.0
H1002 H 0.67439 0.57993 0.01043 0.0
H1003 H 0.61985 0.55462 0.01008 0.0
H1004 H 0.56443 0.50955 0.96125 0.0
H1005 H 0.60859 0.52436 0.94594 0.0
C1006 C 0.66554 0.5569 0.96021 0.0
C1007 C 0.69422 0.57417 0.96935 0.0
C1008 C 0.63997 0.54806 0.96905 0.0
C1009 C 0.69687 0.58207 0.98755 0.0
C1010 C 0.67156 0.57337 0.99642 0.0
C1011 C 0.6174 0.54803 0.99609 0.0
C1012 C 0.58875 0.53111 0.98688 0.0
C1013 C 0.64298 0.5565 0.9873 0.0
C1014 C 0.58611 0.52266 0.96875 0.0
C1015 C 0.61141 0.5311 0.95993 0.0
H1016 H 0.43688 0.1106 0.95496 0.0
H1017 H 0.52282 0.18603 0.97553 0.0
H1018 H 0.53253 0.15382 0.99329 0.0
H1019 H 0.51751 0.10427 0.00238 0.0
H1020 H 0.43101 0.02861 0.98329 0.0
H1021 H 0.42062 0.06068 0.96542 0.0
C1022 C 0.45765 0.11987 0.96338 0.0
C1023 C 0.47904 0.15066 0.96401 0.0
C1024 C 0.46306 0.10118 0.97369 0.0
C1025 C 0.50583 0.1625 0.97501 0.0
C1026 C 0.51149 0.14408 0.98509 0.0
C1027 C 0.4963 0.09479 0.99437 0.0
C1028 C 0.47528 0.06402 0.99384 0.0
C1029 C 0.49037 0.11342 0.98447 0.0
C1030 C 0.44781 0.05211 0.98356 0.0
C1031 C 0.44182 0.07049 0.97344 0.0
H1032 H 0.64113 0.10957 0.94112 0.0
H1033 H 0.69105 0.09303 0.98124 0.0
H1034 H 0.64606 0.06483 0.99575 0.0
H1035 H 0.59252 0.04443 0.99698 0.0
H1036 H 0.54172 0.05903 0.95636 0.0
H1037 H 0.5869 0.08834 0.94215 0.0
C1038 C 0.64207 0.09984 0.95307 0.0
C1039 C 0.66931 0.10326 0.96007 0.0
C1040 C 0.61596 0.08328 0.96125 0.0
C1041 C 0.67025 0.09039 0.97549 0.0
C1042 C 0.64457 0.07437 0.98384 0.0
C1043 C 0.59133 0.05414 0.98507 0.0
C1044 C 0.56378 0.0496 0.9778 0.0
C1045 C 0.6173 0.0706 0.97683 0.0
C1046 C 0.56262 0.06208 0.96223 0.0
C1047 C 0.58847 0.07891 0.9541 0.0
H1048 H 0.87782 0.56499 0.97719 0.0
H1049 H 0.87773 0.53614 0.92311 0.0
H1050 H 0.911 0.51753 0.93209 0.0
H1051 H 0.94086 0.51026 0.95544 0.0
H1052 H 0.94038 0.53975 0.00942 0.0
H1053 H 0.90642 0.55691 1.00031 0.0
C1054 C 0.88467 0.5542 0.96737 0.0
C1055 C 0.87516 0.55184 0.94952 0.0
C1056 C 0.90385 0.54374 0.9726 0.0
C1057 C 0.88486 0.53841 0.93694 0.0
C1058 C 0.90383 0.5277 0.94207 0.0
C1059 C 0.93329 0.5204 0.96521 0.0
C1060 C 0.94336 0.52373 0.9831 0.0
C1061 C 0.91365 0.53043 0.95988 0.0
C1062 C 0.93322 0.53692 0.99555 0.0
C1063 C 0.91369 0.54677 0.99037 0.0
H1064 H 0.52025 0.35759 0.96824 0.0
H1065 H 0.42893 0.32918 0.95088 0.0
H1066 H 0.43151 0.36955 0.97124 0.0
H1067 H 0.46073 0.4139 0.99376 0.0
H1068 H 0.5521 0.44073 0.0104 0.0
H1069 H 0.54845 0.39998 0.99064 0.0
C1070 C 0.50096 0.36038 0.96879 0.0
C1071 C 0.47462 0.34081 0.95792 0.0
C1072 C 0.50261 0.38332 0.98048 0.0
C1073 C 0.44951 0.34411 0.95912 0.0
C1074 C 0.45102 0.36719 0.97072 0.0
C1075 C 0.47975 0.41073 0.99298 0.0
C1076 C 0.50672 0.43048 0.00341 0.0
C1077 C 0.47757 0.38708 0.98143 0.0
C1078 C 0.53109 0.42592 0.00251 0.0
C1079 C 0.5291 0.40265 0.99116 0.0
H1080 H 0.1654 0.65043 0.04098 0.0
H1081 H 0.10235 0.67827 0.05357 0.0
H1082 H 0.06205 0.63261 0.03653 0.0
H1083 H 0.04484 0.58463 0.0177 0.0
H1084 H 0.10934 0.5592 0.00439 0.0
H1085 H 0.14895 0.60423 0.02188 0.0
C1086 C 0.14299 0.64693 0.03976 0.0
C1087 C 0.13707 0.66797 0.04846 0.0
C1088 C 0.1201 0.62093 0.02982 0.0
C1089 C 0.10759 0.6624 0.04711 0.0
C1090 C 0.08453 0.63632 0.03732 0.0
C1091 C 0.06759 0.58905 0.0187 0.0
C1092 C 0.07423 0.56874 0.00976 0.0
C1093 C 0.09051 0.61537 0.02862 0.0
C1094 C 0.10374 0.57464 0.01107 0.0
C1095 C 0.12642 0.60036 0.02108 0.0
H1096 H 0.34926 0.45545 0.07496 0.0
H1097 H 0.29687 0.39097 0.03026 0.0
H1098 H 0.34161 0.40666 0.01523 0.0
H1099 H 0.39566 0.43867 0.01469 0.0
H1100 H 0.44852 0.50223 0.05974 0.0
H1101 H 0.40375 0.48699 0.07462 0.0
C1102 C 0.3477 0.44496 0.0619 0.0
C1103 C 0.3198 0.42203 0.05376 0.0
C1104 C 0.37363 0.45391 0.05337 0.0
C1105 C 0.31813 0.40843 0.0369 0.0
C1106 C 0.34369 0.41748 0.02825 0.0
C1107 C 0.39742 0.44925 0.02775 0.0
C1108 C 0.42548 0.47165 0.036 0.0
C1109 C 0.37158 0.44017 0.03636 0.0
C1110 C 0.42727 0.48491 0.05301 0.0
C1111 C 0.40163 0.47624 0.06156 0.0
H1112 H 0.5119 0.8544 0.02819 0.0
H1113 H 0.59577 0.93559 0.04509 0.0
H1114 H 0.57708 0.96561 0.03198 0.0
H1115 H 0.53737 0.96878 0.01519 0.0
H1116 H 0.45289 0.88804 0.99912 0.0
H1117 H 0.47131 0.85785 0.01252 0.0
C1118 C 0.52596 0.87869 0.02922 0.0
C1119 C 0.55527 0.89265 0.03753 0.0
C1120 C 0.51501 0.89589 0.02175 0.0
C1121 C 0.5733 0.92416 0.03852 0.0
C1122 C 0.5626 0.94139 0.0311 0.0
C1123 C 0.52292 0.94461 0.01476 0.0
C1124 C 0.49383 0.93062 0.00624 0.0
C1125 C 0.53358 0.92748 0.02258 0.0
C1126 C 0.47541 0.89928 0.00561 0.0
C1127 C 0.48592 0.88203 0.01328 0.0
H1128 H 0.9779 0.18991 0.37615 0.0
H1129 H 0.03249 0.21853 0.42589 0.0
H1130 H 0.07368 0.25836 0.41288 0.0
H1131 H 0.09525 0.28278 0.38714 0.0
H1132 H 0.04154 0.25491 0.33713 0.0
H1133 H 0.99876 0.2174 0.35057 0.0
C1134 C 0.99864 0.2052 0.38419 0.0
C1135 C 0.00222 0.20098 0.40192 0.0
C1136 C 0.02241 0.22809 0.37658 0.0
C1137 C 0.02933 0.2209 0.41214 0.0
C1138 C 0.05287 0.24376 0.40473 0.0
C1139 C 0.07417 0.26873 0.37914 0.0
C1140 C 0.07175 0.27155 0.3611 0.0
C1141 C 0.04985 0.24716 0.3869 0.0
C1142 C 0.04409 0.25324 0.35104 0.0
C1143 C 0.01963 0.2317 0.35871 0.0
H1144 H 0.78713 0.7532 0.36224 0.0
H1145 H 0.79236 0.79505 0.41393 0.0
H1146 H 0.76298 0.81626 0.40215 0.0
H1147 H 0.73409 0.82118 0.3773 0.0
H1148 H 0.72857 0.77841 0.32573 0.0
H1149 H 0.75958 0.7592 0.33739 0.0
C1150 C 0.7817 0.76681 0.37096 0.0
C1151 C 0.79175 0.77232 0.38897 0.0
C1152 C 0.76466 0.77874 0.36413 0.0
C1153 C 0.78507 0.79059 0.4 0.0
C1154 C 0.76813 0.8026 0.39328 0.0
C1155 C 0.73976 0.80777 0.36858 0.0
C1156 C 0.72881 0.80117 0.35065 0.0
C1157 C 0.75758 0.7966 0.37538 0.0
C1158 C 0.73654 0.78382 0.33958 0.0
C1159 C 0.75428 0.77276 0.34623 0.0
H1160 H 0.19145 0.0148 0.35691 0.0
H1161 H 0.2692 0.02331 0.38588 0.0
H1162 H 0.25226 0.97033 0.37683 0.0
H1163 H 0.21587 0.92209 0.36035 0.0
H1164 H 0.13613 0.91185 0.33287 0.0
H1165 H 0.15321 0.96506 0.34158 0.0
C1166 C 0.20452 0.00486 0.36117 0.0
C1167 C 0.23151 0.02263 0.3719 0.0
C1168 C 0.19431 0.97425 0.35621 0.0
C1169 C 0.24834 0.00981 0.37759 0.0
C1170 C 0.2387 0.97963 0.37242 0.0
C1171 C 0.20208 0.93141 0.35641 0.0
C1172 C 0.1748 0.91317 0.34603 0.0
C1173 C 0.21177 0.96169 0.36171 0.0
C1174 C 0.15722 0.92553 0.34092 0.0
C1175 C 0.16699 0.95592 0.34586 0.0
H1176 H 0.56329 0.64891 0.29157 0.0
H1177 H 0.4838 0.64466 0.30855 0.0
H1178 H 0.51346 0.69661 0.32254 0.0
H1179 H 0.56246 0.74327 0.33014 0.0
H1180 H 0.64132 0.74609 0.31303 0.0
H1181 H 0.61134 0.69494 0.29859 0.0
C1182 C 0.55233 0.65946 0.2981 0.0
C1183 C 0.52137 0.64301 0.2989 0.0
C1184 C 0.56943 0.68915 0.30606 0.0
C1185 C 0.50766 0.6568 0.30782 0.0
C1186 C 0.52458 0.68652 0.31576 0.0
C1187 C 0.57296 0.73263 0.32319 0.0
C1188 C 0.604 0.74847 0.32255 0.0
C1189 C 0.55554 0.70291 0.31501 0.0
C1190 C 0.61742 0.73447 0.31357 0.0
C1191 C 0.60032 0.70516 0.30536 0.0
H1192 H 0.35477 0.92114 0.30685 0.0
H1193 H 0.31163 0.84299 0.26826 0.0
H1194 H 0.26433 0.82647 0.2806 0.0
H1195 H 0.23556 0.83342 0.30292 0.0
H1196 H 0.27928 0.91075 0.34202 0.0
H1197 H 0.32618 0.9279 0.32916 0.0
C1198 C 0.33517 0.90027 0.30124 0.0
C1199 C 0.33695 0.88334 0.28664 0.0
C1200 C 0.30813 0.89064 0.30856 0.0
C1201 C 0.31098 0.85672 0.27935 0.0
C1202 C 0.28392 0.84712 0.28648 0.0
C1203 C 0.25524 0.85416 0.30854 0.0
C1204 C 0.25377 0.87082 0.32337 0.0
C1205 C 0.28225 0.86385 0.30113 0.0
C1206 C 0.27971 0.89741 0.33064 0.0
C1207 C 0.30657 0.90729 0.32327 0.0
H1208 H 0.11281 0.44795 0.29662 0.0
H1209 H 0.20185 0.51975 0.31534 0.0
H1210 H 0.20973 0.48607 0.33272 0.0
H1211 H 0.19222 0.4362 0.342 0.0
H1212 H 0.10332 0.36379 0.32401 0.0
H1213 H 0.09453 0.39759 0.30681 0.0
C1214 C 0.1339 0.45613 0.30451 0.0
C1215 C 0.15662 0.48639 0.30477 0.0
C1216 C 0.13837 0.43654 0.31451 0.0
C1217 C 0.1838 0.49675 0.31513 0.0
C1218 C 0.18843 0.47745 0.325 0.0
C1219 C 0.17083 0.42782 0.3344 0.0
C1220 C 0.14857 0.3975 0.33407 0.0
C1221 C 0.16595 0.44734 0.32473 0.0
C1222 C 0.12094 0.38699 0.32424 0.0
C1223 C 0.11591 0.40632 0.31446 0.0
H1224 H 0.31197 0.43507 0.27746 0.0
H1225 H 0.3649 0.43845 0.32387 0.0
H1226 H 0.31988 0.41085 0.33845 0.0
H1227 H 0.26549 0.38541 0.33799 0.0
H1228 H 0.21237 0.38165 0.29148 0.0
H1229 H 0.25741 0.40994 0.2771 0.0
C1230 C 0.31363 0.42996 0.29081 0.0
C1231 C 0.34174 0.4387 0.29952 0.0
C1232 C 0.28762 0.41402 0.29913 0.0
C1233 C 0.34351 0.43161 0.31677 0.0
C1234 C 0.31779 0.41597 0.32516 0.0
C1235 C 0.26372 0.39085 0.32473 0.0
C1236 C 0.23552 0.38138 0.31588 0.0
C1237 C 0.28972 0.40697 0.31645 0.0
C1238 C 0.23374 0.38858 0.29865 0.0
C1239 C 0.25951 0.40479 0.29038 0.0
H1240 H 0.53164 0.88665 0.30385 0.0
H1241 H 0.54253 0.86661 0.25025 0.0
H1242 H 0.57852 0.85202 0.26044 0.0
H1243 H 0.60741 0.84564 0.2847 0.0
H1244 H 0.59657 0.86674 0.33825 0.0
H1245 H 0.56001 0.88002 0.32792 0.0
C1246 C 0.54158 0.8787 0.29439 0.0
C1247 C 0.53429 0.87755 0.27633 0.0
C1248 C 0.56241 0.87066 0.30033 0.0
C1249 C 0.54787 0.86781 0.26424 0.0
C1250 C 0.5684 0.85943 0.27006 0.0
C1251 C 0.59704 0.85311 0.29412 0.0
C1252 C 0.60488 0.85519 0.31225 0.0
C1253 C 0.57599 0.86093 0.28809 0.0
C1254 C 0.59118 0.86499 0.32423 0.0
C1255 C 0.57015 0.87257 0.31835 0.0
H1256 H 0.19563 0.69957 0.30655 0.0
H1257 H 0.10079 0.65935 0.29365 0.0
H1258 H 0.10115 0.69979 0.31267 0.0
H1259 H 0.12897 0.74707 0.33296 0.0
H1260 H 0.22381 0.78601 0.34558 0.0
H1261 H 0.22292 0.74563 0.32671 0.0
C1262 C 0.17506 0.69981 0.30776 0.0
C1263 C 0.14829 0.67673 0.29859 0.0
C1264 C 0.17545 0.72285 0.31874 0.0
C1265 C 0.12169 0.6769 0.30062 0.0
C1266 C 0.12191 0.70003 0.31145 0.0
C1267 C 0.14936 0.74662 0.33151 0.0
C1268 C 0.17641 0.76951 0.34057 0.0
C1269 C 0.1487 0.72317 0.32058 0.0
C1270 C 0.20267 0.76859 0.33879 0.0
C1271 C 0.20223 0.74557 0.32794 0.0
H1272 H 0.82937 0.9888 0.37116 0.0
H1273 H 0.76322 0.00088 0.39597 0.0
H1274 H 0.72336 0.9565 0.37761 0.0
H1275 H 0.70753 0.91397 0.35436 0.0
H1276 H 0.77485 0.90241 0.33057 0.0
H1277 H 0.81396 0.94724 0.34836 0.0
C1278 C 0.80625 0.98207 0.37237 0.0
C1279 C 0.79929 0.99832 0.38477 0.0
C1280 C 0.78362 0.95658 0.36192 0.0
C1281 C 0.76916 0.98872 0.38651 0.0
C1282 C 0.74639 0.9634 0.376 0.0
C1283 C 0.73075 0.92124 0.35319 0.0
C1284 C 0.73825 0.9048 0.34124 0.0
C1285 C 0.75335 0.94705 0.36367 0.0
C1286 C 0.76845 0.91465 0.33967 0.0
C1287 C 0.79089 0.94029 0.34985 0.0
H1288 H 0.01141 0.78318 0.4095 0.0
H1289 H 0.95795 0.7473 0.3594 0.0
H1290 H 0.00269 0.76163 0.34463 0.0
H1291 H 0.05722 0.78473 0.34581 0.0
H1292 H 0.11056 0.82057 0.39601 0.0
H1293 H 0.06579 0.80553 0.41074 0.0
C1294 C 0.00952 0.77828 0.39536 0.0
C1295 C 0.9813 0.76434 0.38561 0.0
C1296 C 0.03539 0.78652 0.38691 0.0
C1297 C 0.97938 0.75848 0.36725 0.0
C1298 C 0.00497 0.76648 0.35877 0.0
C1299 C 0.05906 0.78911 0.35998 0.0
C1300 C 0.08733 0.80381 0.36971 0.0
C1301 C 0.03313 0.7806 0.36845 0.0
C1302 C 0.08918 0.80941 0.38809 0.0
C1303 C 0.06354 0.8008 0.39659 0.0
H1304 H 0.18227 0.18707 0.36487 0.0
H1305 H 0.26947 0.26675 0.3756 0.0
H1306 H 0.25034 0.29678 0.36319 0.0
H1307 H 0.20951 0.30032 0.34835 0.0
H1308 H 0.12261 0.2209 0.33656 0.0
H1309 H 0.14114 0.19068 0.34993 0.0
C1310 C 0.19714 0.21096 0.3644 0.0
C1311 C 0.22727 0.22456 0.37127 0.0
C1312 C 0.18613 0.2281 0.35691 0.0
C1313 C 0.24608 0.25569 0.37075 0.0
C1314 C 0.23523 0.27289 0.36349 0.0
C1315 C 0.19459 0.27642 0.34879 0.0
C1316 C 0.16476 0.2628 0.34156 0.0
C1317 C 0.20539 0.25931 0.35644 0.0
C1318 C 0.14571 0.2318 0.34204 0.0
C1319 C 0.15628 0.21458 0.34971 0.0
H1320 H 0.6782 0.56798 0.74328 0.0
H1321 H 0.62677 0.51252 0.69552 0.0
H1322 H 0.66507 0.5471 0.67824 0.0
H1323 H 0.71542 0.59113 0.67695 0.0
H1324 H 0.76708 0.64438 0.72531 0.0
H1325 H 0.72671 0.61257 0.74199 0.0
C1326 C 0.67535 0.56339 0.72909 0.0
C1327 C 0.64978 0.53753 0.72076 0.0
C1328 C 0.69769 0.58293 0.7193 0.0
C1329 C 0.64615 0.53236 0.7023 0.0
C1330 C 0.66816 0.55202 0.6924 0.0
C1331 C 0.71761 0.59594 0.6911 0.0
C1332 C 0.74434 0.61996 0.69984 0.0
C1333 C 0.69434 0.57712 0.70078 0.0
C1334 C 0.74691 0.62584 0.71822 0.0
C1335 C 0.72379 0.60768 0.72782 0.0
H1336 H 0.44473 0.08314 0.69687 0.0
H1337 H 0.46882 0.14304 0.74452 0.0
H1338 H 0.43996 0.16468 0.73232 0.0
H1339 H 0.40691 0.1656 0.70813 0.0
H1340 H 0.38433 0.10578 0.6604 0.0
H1341 H 0.41345 0.0851 0.67265 0.0
C1342 C 0.44353 0.10084 0.70461 0.0
C1343 C 0.45859 0.1113 0.72161 0.0
C1344 C 0.42716 0.1132 0.69749 0.0
C1345 C 0.4574 0.13467 0.73138 0.0
C1346 C 0.44085 0.14695 0.72443 0.0
C1347 C 0.40843 0.1481 0.70041 0.0
C1348 C 0.39333 0.13728 0.68337 0.0
C1349 C 0.42549 0.13628 0.7075 0.0
C1350 C 0.3957 0.11466 0.67352 0.0
C1351 C 0.41233 0.1027 0.68052 0.0
H1352 H 0.87715 0.33736 0.72354 0.0
H1353 H 0.88054 0.3683 0.67244 0.0
H1354 H 0.85907 0.31676 0.65845 0.0
H1355 H 0.84095 0.26298 0.66075 0.0
H1356 H 0.83821 0.23224 0.71174 0.0
H1357 H 0.85758 0.2835 0.72588 0.0
C1358 C 0.87282 0.33273 0.70936 0.0
C1359 C 0.88044 0.35657 0.69903 0.0
C1360 C 0.86073 0.30312 0.70142 0.0
C1361 C 0.87514 0.35034 0.68065 0.0
C1362 C 0.86277 0.32089 0.67265 0.0
C1363 C 0.84443 0.26766 0.67495 0.0
C1364 C 0.83867 0.24434 0.6853 0.0
C1365 C 0.85574 0.29715 0.6829 0.0
C1366 C 0.84319 0.25024 0.70363 0.0
C1367 C 0.85406 0.27942 0.71167 0.0
H1368 H 0.23425 0.98356 0.63451 0.0
H1369 H 0.15315 0.98535 0.63978 0.0
H1370 H 0.18222 0.03858 0.6519 0.0
H1371 H 0.23128 0.08462 0.66126 0.0
H1372 H 0.31171 0.08201 0.65422 0.0
H1373 H 0.28244 0.02918 0.64262 0.0
C1374 C 0.22299 0.99563 0.63841 0.0
C1375 C 0.19175 0.98068 0.63649 0.0
C1376 C 0.23976 0.02606 0.64506 0.0
C1377 C 0.17728 0.99656 0.6412 0.0
C1378 C 0.19387 0.02689 0.64816 0.0
C1379 C 0.24224 0.07236 0.6572 0.0
C1380 C 0.27355 0.08708 0.65869 0.0
C1381 C 0.22518 0.04188 0.6502 0.0
C1382 C 0.28762 0.07116 0.65321 0.0
C1383 C 0.27093 0.04092 0.64658 0.0
H1384 H 0.9916 0.22625 0.61072 0.0
H1385 H 0.04601 0.26233 0.66051 0.0
H1386 H 1.00146 0.24618 0.67575 0.0
H1387 H 0.947 0.22214 0.67501 0.0
H1388 H 0.89253 0.18528 0.62521 0.0
H1389 H 0.93701 0.20111 0.61004 0.0
C1390 C 0.9937 0.23028 0.62492 0.0
C1391 C 0.02219 0.24566 0.63441 0.0
C1392 C 0.96793 0.22085 0.63365 0.0
C1393 C 0.02444 0.25098 0.65282 0.0
C1394 C 0.99894 0.24163 0.66157 0.0
C1395 C 0.94482 0.21763 0.66084 0.0
C1396 C 0.91636 0.20263 0.65133 0.0
C1397 C 0.97057 0.22671 0.65213 0.0
C1398 C 0.91407 0.19681 0.63295 0.0
C1399 C 0.93955 0.20585 0.62421 0.0
H1400 H 0.77679 0.78108 0.62541 0.0
H1401 H 0.85572 0.8602 0.6509 0.0
H1402 H 0.86395 0.82988 0.67102 0.0
H1403 H 0.85112 0.78076 0.67991 0.0
H1404 H 0.77077 0.70135 0.65634 0.0
H1405 H 0.76061 0.73178 0.63686 0.0
C1406 C 0.79555 0.79157 0.63552 0.0
C1407 C 0.81564 0.82277 0.63669 0.0
C1408 C 0.80008 0.77396 0.64719 0.0
C1409 C 0.8398 0.83627 0.64987 0.0
C1410 C 0.84464 0.81894 0.66131 0.0
C1411 C 0.83122 0.7701 0.67062 0.0
C1412 C 0.8123 0.73875 0.66905 0.0
C1413 C 0.82526 0.78776 0.65988 0.0
C1414 C 0.78624 0.72535 0.65728 0.0
C1415 C 0.78034 0.74277 0.64626 0.0
H1416 H 0.98152 0.78149 0.61295 0.0
H1417 H 0.0329 0.77451 0.65664 0.0
H1418 H 0.98811 0.74854 0.67166 0.0
H1419 H 0.93448 0.72726 0.67225 0.0
H1420 H 0.88218 0.73229 0.62826 0.0
H1421 H 0.9272 0.75973 0.61353 0.0
C1422 C 0.98283 0.77437 0.62579 0.0
C1423 C 0.01038 0.77976 0.63367 0.0
C1424 C 0.95689 0.75916 0.63429 0.0
C1425 C 0.01183 0.77025 0.65024 0.0
C1426 C 0.98629 0.75555 0.65886 0.0
C1427 C 0.9329 0.73453 0.65949 0.0
C1428 C 0.90504 0.72787 0.65141 0.0
C1429 C 0.95871 0.7498 0.65099 0.0
C1430 C 0.90338 0.73714 0.63478 0.0
C1431 C 0.92911 0.75282 0.62634 0.0
H1432 H 0.21341 0.22203 0.60447 0.0
H1433 H 0.20957 0.25671 0.65643 0.0
H1434 H 0.24197 0.2396 0.66893 0.0
H1435 H 0.27205 0.21563 0.66515 0.0
H1436 H 0.27561 0.18021 0.61331 0.0
H1437 H 0.24243 0.19648 0.60079 0.0
C1438 C 0.21936 0.2255 0.61855 0.0
C1439 C 0.20918 0.24081 0.62946 0.0
C1440 C 0.23802 0.21555 0.62569 0.0
C1441 C 0.21743 0.24542 0.64767 0.0
C1442 C 0.23587 0.23553 0.65486 0.0
C1443 C 0.26562 0.21145 0.65111 0.0
C1444 C 0.27647 0.19681 0.64021 0.0
C1445 C 0.2465 0.2208 0.64398 0.0
C1446 C 0.26766 0.19143 0.62204 0.0
C1447 C 0.24867 0.20075 0.61485 0.0
H1448 H 0.80364 0.00761 0.62443 0.0
H1449 H 0.89899 0.0533 0.62232 0.0
H1450 H 0.90497 0.09617 0.64125 0.0
H1451 H 0.88368 0.11955 0.65975 0.0
H1452 H 0.78844 0.07616 0.66068 0.0
H1453 H 0.78174 0.0337 0.6405 0.0
C1454 C 0.82568 0.02714 0.62781 0.0
C1455 C 0.85088 0.02683 0.62221 0.0
C1456 C 0.82899 0.05205 0.63854 0.0
C1457 C 0.87926 0.05243 0.62683 0.0
C1458 C 0.88273 0.0771 0.63758 0.0
C1459 C 0.86146 0.10078 0.6555 0.0
C1460 C 0.8366 0.10051 0.66187 0.0
C1461 C 0.85785 0.07686 0.6438 0.0
C1462 C 0.80788 0.07656 0.656 0.0
C1463 C 0.80409 0.05235 0.64451 0.0
H1464 H 0.49422 0.33194 0.69565 0.0
H1465 H 0.4273 0.33773 0.72359 0.0
H1466 H 0.38798 0.29409 0.70466 0.0
H1467 H 0.37282 0.25238 0.68117 0.0
H1468 H 0.4406 0.24517 0.65504 0.0
H1469 H 0.47932 0.29125 0.67222 0.0
C1470 C 0.47105 0.32359 0.6977 0.0
C1471 C 0.46378 0.33796 0.71113 0.0
C1472 C 0.44867 0.29815 0.68708 0.0
C1473 C 0.43356 0.32727 0.71326 0.0
C1474 C 0.41105 0.30217 0.70252 0.0
C1475 C 0.39608 0.26093 0.6793 0.0
C1476 C 0.4039 0.24522 0.66705 0.0
C1477 C 0.41837 0.28715 0.68955 0.0
C1478 C 0.43404 0.25677 0.66449 0.0
C1479 C 0.45621 0.28309 0.67432 0.0
H1480 H 0.67717 0.11911 0.74003 0.0
H1481 H 0.624 0.081 0.68991 0.0
H1482 H 0.66879 0.09447 0.67545 0.0
H1483 H 0.72299 0.11714 0.67687 0.0
H1484 H 0.77642 0.15459 0.72697 0.0
H1485 H 0.73158 0.14078 0.74155 0.0
C1486 C 0.67535 0.11353 0.72596 0.0
C1487 C 0.64719 0.09929 0.71609 0.0
C1488 C 0.70125 0.12109 0.71769 0.0
C1489 C 0.64537 0.09251 0.69783 0.0
C1490 C 0.67098 0.09998 0.68954 0.0
C1491 C 0.72489 0.12219 0.69099 0.0
C1492 C 0.75312 0.13693 0.70076 0.0
C1493 C 0.69903 0.11433 0.69932 0.0
C1494 C 0.75503 0.14329 0.71907 0.0
C1495 C 0.72937 0.13544 0.72745 0.0
H1496 H 0.9124 0.58801 0.70844 0.0
H1497 H 0.83206 0.5013 0.69775 0.0
H1498 H 0.8059 0.52474 0.68448 0.0
H1499 H 0.80637 0.57009 0.67528 0.0
H1500 H 0.88734 0.65636 0.68603 0.0
H1501 H 0.91279 0.63287 0.69972 0.0
C1502 C 0.88921 0.5742 0.7031 0.0
C1503 C 0.87426 0.54297 0.70397 0.0
C1504 C 0.87444 0.58776 0.69544 0.0
C1505 C 0.84403 0.52545 0.69733 0.0
C1506 C 0.82911 0.53881 0.68965 0.0
C1507 C 0.82958 0.58363 0.68062 0.0
C1508 C 0.84497 0.61485 0.67965 0.0
C1509 C 0.84416 0.56995 0.68854 0.0
C1510 C 0.87499 0.63226 0.68666 0.0
C1511 C 0.88959 0.61887 0.69449 0.0
H1512 H 0.44792 0.97756 0.17736 0.0
H1513 H 0.47095 0.9078 0.1733 0.0
H1514 H 0.48028 0.91584 0.14283 0.0
H1515 H 0.48589 0.94545 0.118 0.0
H1516 H 0.46618 0.01739 0.12275 0.0
H1517 H 0.45217 0.00615 0.15236 0.0
C1518 C 0.45511 0.96417 0.16988 0.0
C1519 C 0.45882 0.94219 0.17776 0.0
C1520 C 0.46134 0.96952 0.15248 0.0
C1521 C 0.46749 0.92462 0.16762 0.0
C1522 C 0.47313 0.92939 0.15019 0.0
C1523 C 0.47812 0.95835 0.12545 0.0
C1524 C 0.47716 0.98227 0.11825 0.0
C1525 C 0.47062 0.95211 0.14258 0.0
C1526 C 0.46738 0.99906 0.1281 0.0
C1527 C 0.45932 0.9926 0.145 0.0
H1528 H 0.13033 0.56234 0.17311 0.0
H1529 H 0.04641 0.50579 0.19319 0.0
H1530 H 0.02044 0.4942 0.16367 0.0
H1531 H 0.02152 0.50093 0.13229 0.0
H1532 H 0.10545 0.55815 0.11239 0.0
H1533 H 0.1316 0.56789 0.14164 0.0
C1534 C 0.10641 0.54712 0.171 0.0
C1535 C 0.09034 0.53498 0.18535 0.0
C1536 C 0.09166 0.54057 0.15402 0.0
C1537 C 0.05927 0.51573 0.18241 0.0
C1538 C 0.04443 0.50898 0.16553 0.0
C1539 C 0.04553 0.51564 0.13436 0.0
C1540 C 0.06147 0.52886 0.12015 0.0
C1541 C 0.06038 0.52149 0.15127 0.0
C1542 C 0.09264 0.5474 0.12302 0.0
C1543 C 0.1076 0.55317 0.13978 0.0
H1544 H 0.45995 0.47 0.18242 0.0
H1545 H 0.48005 0.5619 0.19286 0.0
H1546 H 0.49548 0.57174 0.16346 0.0
H1547 H 0.50591 0.55511 0.13533 0.0
H1548 H 0.48721 0.46367 0.12519 0.0
H1549 H 0.4687 0.45286 0.15389 0.0
C1550 C 0.46768 0.49218 0.17826 0.0
C1551 C 0.46887 0.51516 0.18988 0.0
C1552 C 0.47696 0.49784 0.1614 0.0
C1553 C 0.47851 0.54365 0.18414 0.0
C1554 C 0.48762 0.5494 0.16737 0.0
C1555 C 0.49786 0.53285 0.13943 0.0
C1556 C 0.49809 0.5103 0.12817 0.0
C1557 C 0.48738 0.52681 0.15599 0.0
C1558 C 0.48707 0.48139 0.13355 0.0
C1559 C 0.47661 0.47522 0.15 0.0
H1560 H 0.92326 0.4471 0.81657 0.0
H1561 H 0.9892 0.54102 0.81708 0.0
H1562 H 1.001 0.54491 0.84877 0.0
H1563 H 0.99476 0.52079 0.87601 0.0
H1564 H 0.9293 0.42667 0.87539 0.0
H1565 H 0.91495 0.42373 0.84413 0.0
C1566 C 0.94016 0.46842 0.82366 0.0
C1567 C 0.95547 0.49367 0.8145 0.0
C1568 C 0.94694 0.47044 0.84184 0.0
C1569 C 0.97697 0.5213 0.82386 0.0
C1570 C 0.98385 0.52349 0.84195 0.0
C1571 C 0.9773 0.49968 0.86902 0.0
C1572 C 0.96324 0.47396 0.87797 0.0
C1573 C 0.96932 0.4981 0.85103 0.0
C1574 C 0.94031 0.44686 0.86883 0.0
C1575 C 0.93223 0.4451 0.85093 0.0
H1576 H 0.56205 0.48538 0.84249 0.0
H1577 H 0.47382 0.45554 0.81775 0.0
H1578 H 0.4569 0.45918 0.8464 0.0
H1579 H 0.4665 0.46818 0.87854 0.0
H1580 H 0.55427 0.49607 0.90337 0.0
H1581 H 0.57222 0.49656 0.87463 0.0
C1582 C 0.53928 0.48023 0.84336 0.0
C1583 C 0.51919 0.47017 0.82804 0.0
C1584 C 0.5296 0.48193 0.8599 0.0
C1585 C 0.48962 0.46311 0.82938 0.0
C1586 C 0.47995 0.46519 0.84575 0.0
C1587 C 0.48954 0.47428 0.87768 0.0
C1588 C 0.50892 0.48189 0.89312 0.0
C1589 C 0.4996 0.47402 0.86111 0.0
C1590 C 0.53889 0.49036 0.89173 0.0
C1591 C 0.54915 0.49046 0.87528 0.0
H1592 H 0.4917 0.05607 0.82647 0.0
H1593 H 0.55072 0.01989 0.82814 0.0
H1594 H 0.5399 0.00776 0.85805 0.0
H1595 H 0.51155 0.00491 0.88309 0.0
H1596 H 0.45284 0.04147 0.88145 0.0
H1597 H 0.46581 0.05611 0.8522 0.0
C1598 C 0.50263 0.04604 0.83348 0.0
C1599 C 0.52191 0.03881 0.82503 0.0
C1600 C 0.49619 0.03898 0.85064 0.0
C1601 C 0.53549 0.02534 0.83424 0.0
C1602 C 0.52939 0.01848 0.85137 0.0
C1603 C 0.50196 0.01652 0.87646 0.0
C1604 C 0.48111 0.02191 0.88443 0.0
C1605 C 0.50945 0.02481 0.8596 0.0
C1606 C 0.46859 0.03662 0.87552 0.0
C1607 C 0.47609 0.04513 0.85882 0.0
H1608 H 0.14658 0.26038 0.51231 0.0
H1609 H 0.11412 0.32237 0.5197 0.0
H1610 H 0.12027 0.33291 0.48925 0.0
H1611 H 0.13883 0.32785 0.46123 0.0
H1612 H 0.1724 0.2668 0.45399 0.0
H1613 H 0.1624 0.25308 0.48372 0.0
C1614 C 0.14081 0.27617 0.50726 0.0
C1615 C 0.12999 0.2906 0.51837 0.0
C1616 C 0.14495 0.28262 0.48979 0.0
C1617 C 0.12214 0.31061 0.51146 0.0
C1618 C 0.12592 0.31689 0.49406 0.0
C1619 C 0.14348 0.31115 0.46603 0.0
C1620 C 0.15659 0.29859 0.45541 0.0
C1621 C 0.13779 0.30344 0.48319 0.0
C1622 C 0.16278 0.27723 0.46197 0.0
C1623 C 0.15695 0.26926 0.47895 0.0
H1624 H 0.797 0.91934 0.50326 0.0
H1625 H 0.73264 0.83261 0.51791 0.0
H1626 H 0.70469 0.81966 0.48895 0.0
H1627 H 0.6989 0.83269 0.45932 0.0
H1628 H 0.76406 0.91885 0.44451 0.0
H1629 H 0.79192 0.93187 0.47354 0.0
C1630 C 0.77708 0.89743 0.50009 0.0
C1631 C 0.76701 0.877 0.5128 0.0
C1632 C 0.76141 0.88991 0.48333 0.0
C1633 C 0.74073 0.84897 0.50851 0.0
C1634 C 0.72484 0.84143 0.49189 0.0
C1635 C 0.71914 0.85436 0.46249 0.0
C1636 C 0.7294 0.87479 0.44981 0.0
C1637 C 0.73499 0.86172 0.4792 0.0
C1638 C 0.75588 0.90261 0.45399 0.0
C1639 C 0.7717 0.91014 0.47061 0.0
H1640 H 0.1483 0.81869 0.52213 0.0
H1641 H 0.13004 0.89171 0.5251 0.0
H1642 H 0.14053 0.89942 0.49461 0.0
H1643 H 0.15766 0.88714 0.46764 0.0
H1644 H 0.17591 0.81409 0.46487 0.0
H1645 H 0.16264 0.80461 0.49473 0.0
C1646 C 0.14655 0.83623 0.51606 0.0
C1647 C 0.13863 0.85474 0.52586 0.0
C1648 C 0.15274 0.84061 0.49861 0.0
C1649 C 0.13594 0.87706 0.51778 0.0
C1650 C 0.14213 0.88161 0.5004 0.0
C1651 C 0.1587 0.86916 0.47361 0.0
C1652 C 0.16791 0.85146 0.46413 0.0
C1653 C 0.15101 0.86382 0.49078 0.0
C1654 C 0.16871 0.82791 0.47188 0.0
C1655 C 0.16127 0.82256 0.48897 0.0
H1656 H 0.59043 0.78377 0.14747 0.0
H1657 H 0.65158 0.87958 0.15137 0.0
H1658 H 0.66206 0.88074 0.18295 0.0
H1659 H 0.65628 0.85391 0.20908 0.0
H1660 H 0.59486 0.75816 0.20504 0.0
H1661 H 0.58176 0.7577 0.17392 0.0
C1662 C 0.6056 0.80503 0.15526 0.0
C1663 C 0.6203 0.83151 0.14702 0.0
C1664 C 0.61159 0.80552 0.17339 0.0
C1665 C 0.64028 0.85877 0.15732 0.0
C1666 C 0.6462 0.85948 0.1754 0.0
C1667 C 0.63962 0.83305 0.20146 0.0
C1668 C 0.62674 0.80607 0.20934 0.0
C1669 C 0.63235 0.83291 0.18352 0.0
C1670 C 0.60544 0.77916 0.19923 0.0
C1671 C 0.59787 0.77889 0.18144 0.0
H1672 H 0.23608 0.81616 0.1798 0.0
H1673 H 0.15251 0.73734 0.1595 0.0
H1674 H 0.13185 0.73856 0.18714 0.0
H1675 H 0.13805 0.76098 0.21736 0.0
H1676 H 0.22196 0.83892 0.23825 0.0
H1677 H 0.24213 0.839 0.21021 0.0
C1678 C 0.21328 0.79949 0.18144 0.0
C1679 C 0.19579 0.77671 0.1677 0.0
C1680 C 0.20173 0.80002 0.1975 0.0
C1681 C 0.16639 0.75497 0.16998 0.0
C1682 C 0.15459 0.75567 0.18575 0.0
C1683 C 0.16065 0.77816 0.21572 0.0
C1684 C 0.17844 0.79994 0.22983 0.0
C1685 C 0.17212 0.77792 0.19964 0.0
C1686 C 0.20789 0.82175 0.22761 0.0
C1687 C 0.21938 0.82189 0.21157 0.0
H1688 H 0.21324 0.36737 0.16834 0.0
H1689 H 0.13061 0.36255 0.15061 0.0
H1690 H 0.11474 0.35458 0.18 0.0
H1691 H 0.12294 0.34627 0.21027 0.0
H1692 H 0.20561 0.35158 0.22857 0.0
H1693 H 0.22266 0.36175 0.19946 0.0
C1694 C 0.19194 0.36493 0.171 0.0
C1695 C 0.17301 0.36523 0.15725 0.0
C1696 C 0.18279 0.36012 0.18799 0.0
C1697 C 0.14538 0.36189 0.16088 0.0
C1698 C 0.13631 0.35742 0.1777 0.0
C1699 C 0.14492 0.35016 0.20803 0.0
C1700 C 0.16287 0.34806 0.22166 0.0
C1701 C 0.15463 0.35607 0.1913 0.0
C1702 C 0.19107 0.35261 0.21831 0.0
C1703 C 0.20094 0.3586 0.20167 0.0
H1704 H 0.84022 0.67586 0.86002 0.0
H1705 H 0.76469 0.58708 0.84425 0.0
H1706 H 0.77099 0.59507 0.81336 0.0
H1707 H 0.79835 0.62732 0.7908 0.0
H1708 H 0.87403 0.7159 0.80706 0.0
H1709 H 0.86667 0.7082 0.83775 0.0
C1710 C 0.82478 0.65839 0.84986 0.0
C1711 C 0.80193 0.63095 0.8545 0.0
C1712 C 0.82849 0.66315 0.83217 0.0
C1713 C 0.78263 0.60833 0.84109 0.0
C1714 C 0.78615 0.61293 0.8234 0.0
C1715 C 0.81329 0.64489 0.80107 0.0
C1716 C 0.83664 0.67221 0.79657 0.0
C1717 C 0.80913 0.64021 0.81879 0.0
C1718 C 0.85558 0.69485 0.81007 0.0
C1719 C 0.85154 0.69039 0.82766 0.0
H1720 H 0.38559 0.20406 0.84774 0.0
H1721 H 0.46107 0.19896 0.83136 0.0
H1722 H 0.44094 0.19034 0.80068 0.0
H1723 H 0.40407 0.18836 0.77845 0.0
H1724 H 0.32794 0.19231 0.79472 0.0
H1725 H 0.34608 0.19705 0.82547 0.0
C1726 C 0.39734 0.20047 0.83749 0.0
C1727 C 0.42499 0.20255 0.84185 0.0
C1728 C 0.38567 0.19558 0.81983 0.0
C1729 C 0.44003 0.19808 0.82835 0.0
C1730 C 0.42849 0.19303 0.8108 0.0
C1731 C 0.39109 0.18961 0.78869 0.0
C1732 C 0.36484 0.19031 0.78424 0.0
C1733 C 0.40165 0.19237 0.80636 0.0
C1734 C 0.34853 0.19231 0.79775 0.0
C1735 C 0.35882 0.19491 0.81536 0.0
H1736 H 0.77724 0.16327 0.84675 0.0
H1737 H 0.86729 0.22806 0.86854 0.0
H1738 H 0.8833 0.23463 0.83918 0.0
H1739 H 0.87262 0.22002 0.80753 0.0
H1740 H 0.78234 0.15718 0.7852 0.0
H1741 H 0.76569 0.15181 0.81452 0.0
C1742 C 0.80026 0.17915 0.84506 0.0
C1743 C 0.82108 0.19475 0.8599 0.0
C1744 C 0.8094 0.18301 0.82803 0.0
C1745 C 0.85088 0.21517 0.85741 0.0
C1746 C 0.86008 0.21909 0.8406 0.0
C1747 C 0.84917 0.20559 0.80896 0.0
C1748 C 0.8289 0.18891 0.79407 0.0
C1749 C 0.83965 0.20281 0.82584 0.0
C1750 C 0.79865 0.16991 0.79638 0.0
C1751 C 0.78903 0.16694 0.81317 0.0
H1752 H 0.29499 0.18403 0.48397 0.0
H1753 H 0.33908 0.13503 0.46899 0.0
H1754 H 0.34698 0.12859 0.49957 0.0
H1755 H 0.34021 0.13544 0.53042 0.0
H1756 H 0.29363 0.18171 0.54555 0.0
H1757 H 0.28789 0.19062 0.51506 0.0
C1758 C 0.30617 0.1718 0.48737 0.0
C1759 C 0.31652 0.16018 0.47413 0.0
C1760 C 0.31016 0.1676 0.50502 0.0
C1761 C 0.33137 0.14475 0.47887 0.0
C1762 C 0.33567 0.14079 0.49637 0.0
C1763 C 0.32851 0.1472 0.52705 0.0
C1764 C 0.31719 0.15769 0.54025 0.0
C1765 C 0.32495 0.15189 0.50951 0.0
C1766 C 0.30277 0.17357 0.53568 0.0
C1767 C 0.29933 0.17853 0.51823 0.0
H1768 H 0.83154 0.09934 0.49676 0.0
H1769 H 0.92451 0.15853 0.51512 0.0
H1770 H 0.91124 0.16683 0.54419 0.0
H1771 H 0.87319 0.15673 0.56448 0.0
H1772 H 0.78029 0.09675 0.5461 0.0
H1773 H 0.79355 0.08974 0.51688 0.0
C1774 C 0.84887 0.11438 0.50705 0.0
C1775 C 0.87895 0.12831 0.50378 0.0
C1776 C 0.8411 0.11889 0.52374 0.0
C1777 C 0.90119 0.14734 0.51736 0.0
C1778 C 0.89362 0.15214 0.53396 0.0
C1779 C 0.85587 0.14195 0.55412 0.0
C1780 C 0.82579 0.12732 0.5575 0.0
C1781 C 0.86365 0.13783 0.53735 0.0
C1782 C 0.80359 0.10859 0.54382 0.0
C1783 C 0.81115 0.10444 0.52712 0.0
H1784 H 0.85017 0.66667 0.49606 0.0
H1785 H 0.85222 0.75155 0.49907 0.0
H1786 H 0.84121 0.74716 0.52964 0.0
H1787 H 0.82856 0.71793 0.55513 0.0
H1788 H 0.82617 0.63286 0.55187 0.0
H1789 H 0.83972 0.6386 0.52186 0.0
C1790 C 0.84821 0.68421 0.50341 0.0
C1791 C 0.85185 0.70931 0.49522 0.0
C1792 C 0.8417 0.68145 0.52094 0.0
C1793 C 0.84976 0.7321 0.50505 0.0
C1794 C 0.84325 0.7295 0.52251 0.0
C1795 C 0.83099 0.70065 0.54783 0.0
C1796 C 0.82623 0.67494 0.55574 0.0
C1797 C 0.83877 0.70408 0.53052 0.0
C1798 C 0.82994 0.65298 0.54619 0.0
C1799 C 0.83753 0.65617 0.52897 0.0
loop_
_geom_bond_atom_site_label_1
_geom_bond_atom_site_label_2
_geom_bond_distance
_geom_bond_site_symmetry_2
_ccdc_geom_bond_type
P0 O11 1.490 . S
P0 C14 1.812 . S
P0 C20 1.803 . S
P0 C26 1.819 . S
H1 C15 0.941 . S
H2 C16 0.939 . S
H3 C18 0.940 . S
H4 C19 0.940 . S
H5 C21 0.939 . S
H6 C22 0.942 . S
H7 C24 0.940 . S
H8 C25 0.939 . S
H9 C27 0.941 . S
H10 C31 0.939 . S
O11 P0 1.490 . S
H12 C28 0.939 . S
H13 C30 0.940 . S
C14 P0 1.812 . S
C14 C15 1.389 . S
C14 C19 1.391 . S
C15 H1 0.941 . S
C15 C14 1.389 . S
C15 C16 1.397 . S
C16 H2 0.939 . S
C16 C15 1.397 . S
C16 C17 1.378 . S
C17 C16 1.378 . S
C17 C18 1.378 . S
C18 H3 0.940 . S
C18 C17 1.378 . S
C18 C19 1.396 . S
C19 H4 0.940 . S
C19 C14 1.391 . S
C19 C18 1.396 . S
C20 P0 1.803 . S
C20 C21 1.378 . S
C20 C25 1.400 . S
C21 H5 0.939 . S
C21 C20 1.378 . S
C21 C22 1.361 . S
C22 H6 0.942 . S
C22 C21 1.361 . S
C22 C23 1.369 . S
C23 C22 1.369 . S
C23 C24 1.404 . S
C24 H7 0.940 . S
C24 C23 1.404 . S
C24 C25 1.389 . S
C25 H8 0.939 . S
C25 C20 1.400 . S
C25 C24 1.389 . S
C26 P0 1.819 . S
C26 C27 1.391 . S
C26 C31 1.391 . S
C27 H9 0.941 . S
C27 C26 1.391 . S
C27 C28 1.396 . S
C28 H12 0.939 . S
C28 C27 1.396 . S
C28 C29 1.397 . S
C29 C28 1.397 . S
C29 C30 1.385 . S
C30 H13 0.940 . S
C30 C29 1.385 . S
C30 C31 1.388 . S
C31 H10 0.939 . S
C31 C26 1.391 . S
C31 C30 1.388 . S
P32 O43 1.490 . S
P32 C46 1.812 . S
P32 C52 1.803 . S
P32 C58 1.819 . S
H33 C47 0.941 . S
H34 C48 0.939 . S
H35 C50 0.940 . S
H36 C51 0.940 . S
H37 C53 0.939 . S
H38 C54 0.942 . S
H39 C56 0.940 . S
H40 C57 0.939 . S
H41 C59 0.941 . S
H42 C63 0.939 . S
O43 P32 1.490 . S
H44 C60 0.939 . S
H45 C62 0.940 . S
C46 P32 1.812 . S
C46 C47 1.389 . S
C46 C51 1.391 . S
C47 H33 0.941 . S
C47 C46 1.389 . S
C47 C48 1.397 . S
C48 H34 0.939 . S
C48 C47 1.397 . S
C48 C49 1.378 . S
C49 C48 1.378 . S
C49 C50 1.378 . S
C50 H35 0.940 . S
C50 C49 1.378 . S
C50 C51 1.396 . S
C51 H36 0.940 . S
C51 C46 1.391 . S
C51 C50 1.396 . S
C52 P32 1.803 . S
C52 C53 1.378 . S
C52 C57 1.400 . S
C53 H37 0.939 . S
C53 C52 1.378 . S
C53 C54 1.361 . S
C54 H38 0.942 . S
C54 C53 1.361 . S
C54 C55 1.369 . S
C55 C54 1.369 . S
C55 C56 1.404 . S
C56 H39 0.940 . S
C56 C55 1.404 . S
C56 C57 1.389 . S
C57 H40 0.939 . S
C57 C52 1.400 . S
C57 C56 1.389 . S
C58 P32 1.819 . S
C58 C59 1.391 . S
C58 C63 1.391 . S
C59 H41 0.941 . S
C59 C58 1.391 . S
C59 C60 1.396 . S
C60 H44 0.939 . S
C60 C59 1.396 . S
C60 C61 1.397 . S
C61 C60 1.397 . S
C61 C62 1.385 . S
C62 H45 0.940 . S
C62 C61 1.385 . S
C62 C63 1.388 . S
C63 H42 0.939 . S
C63 C58 1.391 . S
C63 C62 1.388 . S
P64 O75 1.490 . S
P64 C78 1.812 . S
P64 C84 1.803 . S
P64 C90 1.819 . S
H65 C79 0.941 . S
H66 C80 0.939 . S
H67 C82 0.940 . S
H68 C83 0.940 . S
H69 C85 0.939 . S
H70 C86 0.942 . S
H71 C88 0.940 . S
H72 C89 0.939 . S
H73 C91 0.941 . S
H74 C95 0.939 . S
O75 P64 1.490 . S
H76 C92 0.939 . S
H77 C94 0.940 . S
C78 P64 1.812 . S
C78 C79 1.389 . S
C78 C83 1.391 . S
C79 H65 0.941 . S
C79 C78 1.389 . S
C79 C80 1.397 . S
C80 H66 0.939 . S
C80 C79 1.397 . S
C80 C81 1.378 . S
C81 C80 1.378 . S
C81 C82 1.378 . S
C82 H67 0.940 . S
C82 C81 1.378 . S
C82 C83 1.396 . S
C83 H68 0.940 . S
C83 C78 1.391 . S
C83 C82 1.396 . S
C84 P64 1.803 . S
C84 C85 1.378 . S
C84 C89 1.400 . S
C85 H69 0.939 . S
C85 C84 1.378 . S
C85 C86 1.361 . S
C86 H70 0.942 . S
C86 C85 1.361 . S
C86 C87 1.369 . S
C87 C86 1.369 . S
C87 C88 1.404 . S
C88 H71 0.940 . S
C88 C87 1.404 . S
C88 C89 1.389 . S
C89 H72 0.939 . S
C89 C84 1.400 . S
C89 C88 1.389 . S
C90 P64 1.819 . S
C90 C91 1.391 . S
C90 C95 1.391 . S
C91 H73 0.941 . S
C91 C90 1.391 . S
C91 C92 1.396 . S
C92 H76 0.939 . S
C92 C91 1.396 . S
C92 C93 1.397 . S
C93 C92 1.397 . S
C93 C94 1.385 . S
C94 H77 0.940 . S
C94 C93 1.385 . S
C94 C95 1.388 . S
C95 H74 0.939 . S
C95 C90 1.391 . S
C95 C94 1.388 . S
P96 O107 1.490 . S
P96 C110 1.812 . S
P96 C116 1.803 . S
P96 C122 1.819 . S
H97 C111 0.941 . S
H98 C112 0.939 . S
H99 C114 0.940 . S
H100 C115 0.940 . S
H101 C117 0.939 . S
H102 C118 0.942 . S
H103 C120 0.940 . S
H104 C121 0.939 . S
H105 C123 0.941 . S
H106 C127 0.939 . S
O107 P96 1.490 . S
H108 C124 0.939 . S
H109 C126 0.940 . S
C110 P96 1.812 . S
C110 C111 1.389 . S
C110 C115 1.391 . S
C111 H97 0.941 . S
C111 C110 1.389 . S
C111 C112 1.397 . S
C112 H98 0.939 . S
C112 C111 1.397 . S
C112 C113 1.378 . S
C113 C112 1.378 . S
C113 C114 1.378 . S
C114 H99 0.940 . S
C114 C113 1.378 . S
C114 C115 1.396 . S
C115 H100 0.940 . S
C115 C110 1.391 . S
C115 C114 1.396 . S
C116 P96 1.803 . S
C116 C117 1.378 . S
C116 C121 1.400 . S
C117 H101 0.939 . S
C117 C116 1.378 . S
C117 C118 1.361 . S
C118 H102 0.942 . S
C118 C117 1.361 . S
C118 C119 1.369 . S
C119 C118 1.369 . S
C119 C120 1.404 . S
C120 H103 0.940 . S
C120 C119 1.404 . S
C120 C121 1.389 . S
C121 H104 0.939 . S
C121 C116 1.400 . S
C121 C120 1.389 . S
C122 P96 1.819 . S
C122 C123 1.391 . S
C122 C127 1.391 . S
C123 H105 0.941 . S
C123 C122 1.391 . S
C123 C124 1.396 . S
C124 H108 0.939 . S
C124 C123 1.396 . S
C124 C125 1.397 . S
C125 C124 1.397 . S
C125 C126 1.385 . S
C126 H109 0.940 . S
C126 C125 1.385 . S
C126 C127 1.388 . S
C127 H106 0.939 . S
C127 C122 1.391 . S
C127 C126 1.388 . S
P128 O139 1.490 . S
P128 C142 1.812 . S
P128 C148 1.803 . S
P128 C154 1.819 . S
H129 C143 0.941 . S
H130 C144 0.939 . S
H131 C146 0.940 . S
H132 C147 0.940 . S
H133 C149 0.939 . S
H134 C150 0.942 . S
H135 C152 0.940 . S
H136 C153 0.939 . S
H137 C155 0.941 . S
H138 C159 0.939 . S
O139 P128 1.490 . S
H140 C156 0.939 . S
H141 C158 0.940 . S
C142 P128 1.812 . S
C142 C143 1.389 . S
C142 C147 1.391 . S
C143 H129 0.941 . S
C143 C142 1.389 . S
C143 C144 1.397 . S
C144 H130 0.939 . S
C144 C143 1.397 . S
C144 C145 1.378 . S
C145 C144 1.378 . S
C145 C146 1.378 . S
C146 H131 0.940 . S
C146 C145 1.378 . S
C146 C147 1.396 . S
C147 H132 0.940 . S
C147 C142 1.391 . S
C147 C146 1.396 . S
C148 P128 1.803 . S
C148 C149 1.378 . S
C148 C153 1.400 . S
C149 H133 0.939 . S
C149 C148 1.378 . S
C149 C150 1.361 . S
C150 H134 0.942 . S
C150 C149 1.361 . S
C150 C151 1.369 . S
C151 C150 1.369 . S
C151 C152 1.404 . S
C152 H135 0.940 . S
C152 C151 1.404 . S
C152 C153 1.389 . S
C153 H136 0.939 . S
C153 C148 1.400 . S
C153 C152 1.389 . S
C154 P128 1.819 . S
C154 C155 1.391 . S
C154 C159 1.391 . S
C155 H137 0.941 . S
C155 C154 1.391 . S
C155 C156 1.396 . S
C156 H140 0.939 . S
C156 C155 1.396 . S
C156 C157 1.397 . S
C157 C156 1.397 . S
C157 C158 1.385 . S
C158 H141 0.940 . S
C158 C157 1.385 . S
C158 C159 1.388 . S
C159 H138 0.939 . S
C159 C154 1.391 . S
C159 C158 1.388 . S
P160 O171 1.490 . S
P160 C174 1.812 . S
P160 C180 1.803 . S
P160 C186 1.819 . S
H161 C175 0.941 . S
H162 C176 0.939 . S
H163 C178 0.940 . S
H164 C179 0.940 . S
H165 C181 0.939 . S
H166 C182 0.942 . S
H167 C184 0.940 . S
H168 C185 0.939 . S
H169 C187 0.941 . S
H170 C191 0.939 . S
O171 P160 1.490 . S
H172 C188 0.939 . S
H173 C190 0.940 . S
C174 P160 1.812 . S
C174 C175 1.389 . S
C174 C179 1.391 . S
C175 H161 0.941 . S
C175 C174 1.389 . S
C175 C176 1.397 . S
C176 H162 0.939 . S
C176 C175 1.397 . S
C176 C177 1.378 . S
C177 C176 1.378 . S
C177 C178 1.378 . S
C178 H163 0.940 . S
C178 C177 1.378 . S
C178 C179 1.396 . S
C179 H164 0.940 . S
C179 C174 1.391 . S
C179 C178 1.396 . S
C180 P160 1.803 . S
C180 C181 1.378 . S
C180 C185 1.400 . S
C181 H165 0.939 . S
C181 C180 1.378 . S
C181 C182 1.361 . S
C182 H166 0.942 . S
C182 C181 1.361 . S
C182 C183 1.369 . S
C183 C182 1.369 . S
C183 C184 1.404 . S
C184 H167 0.940 . S
C184 C183 1.404 . S
C184 C185 1.389 . S
C185 H168 0.939 . S
C185 C180 1.400 . S
C185 C184 1.389 . S
C186 P160 1.819 . S
C186 C187 1.391 . S
C186 C191 1.391 . S
C187 H169 0.941 . S
C187 C186 1.391 . S
C187 C188 1.396 . S
C188 H172 0.939 . S
C188 C187 1.396 . S
C188 C189 1.397 . S
C189 C188 1.397 . S
C189 C190 1.385 . S
C190 H173 0.940 . S
C190 C189 1.385 . S
C190 C191 1.388 . S
C191 H170 0.939 . S
C191 C186 1.391 . S
C191 C190 1.388 . S
P192 O203 1.490 1_655 S
P192 C206 1.812 . S
P192 C212 1.803 . S
P192 C218 1.819 . S
H193 C207 0.941 1_455 S
H194 C208 0.939 . S
H195 C210 0.940 . S
H196 C211 0.940 . S
H197 C213 0.939 1_455 S
H198 C214 0.942 . S
H199 C216 0.940 . S
H200 C217 0.939 . S
H201 C219 0.941 . S
H202 C223 0.939 . S
O203 P192 1.490 1_455 S
H204 C220 0.939 . S
H205 C222 0.940 . S
C206 P192 1.812 . S
C206 C207 1.389 . S
C206 C211 1.391 . S
C207 H193 0.941 1_655 S
C207 C206 1.389 . S
C207 C208 1.397 . S
C208 H194 0.939 . S
C208 C207 1.397 . S
C208 C209 1.378 . S
C209 C208 1.378 . S
C209 C210 1.378 . S
C210 H195 0.940 . S
C210 C209 1.378 . S
C210 C211 1.396 . S
C211 H196 0.940 . S
C211 C206 1.391 . S
C211 C210 1.396 . S
C212 P192 1.803 . S
C212 C213 1.378 . S
C212 C217 1.400 . S
C213 H197 0.939 1_655 S
C213 C212 1.378 . S
C213 C214 1.361 . S
C214 H198 0.942 . S
C214 C213 1.361 . S
C214 C215 1.369 . S
C215 C214 1.369 . S
C215 C216 1.404 . S
C216 H199 0.940 . S
C216 C215 1.404 . S
C216 C217 1.389 . S
C217 H200 0.939 . S
C217 C212 1.400 . S
C217 C216 1.389 . S
C218 P192 1.819 . S
C218 C219 1.391 1_655 S
C218 C223 1.391 . S
C219 H201 0.941 . S
C219 C218 1.391 1_455 S
C219 C220 1.396 . S
C220 H204 0.939 . S
C220 C219 1.396 . S
C220 C221 1.397 1_455 S
C221 C220 1.397 1_655 S
C221 C222 1.385 . S
C222 H205 0.940 . S
C222 C221 1.385 . S
C222 C223 1.388 . S
C223 H202 0.939 . S
C223 C218 1.391 . S
C223 C222 1.388 . S
P224 O235 1.490 . S
P224 C238 1.812 . S
P224 C244 1.803 . S
P224 C250 1.819 . S
H225 C239 0.941 . S
H226 C240 0.939 . S
H227 C242 0.940 . S
H228 C243 0.940 . S
H229 C245 0.939 . S
H230 C246 0.942 . S
H231 C248 0.940 . S
H232 C249 0.939 . S
H233 C251 0.941 . S
H234 C255 0.939 . S
O235 P224 1.490 . S
H236 C252 0.939 . S
H237 C254 0.940 . S
C238 P224 1.812 . S
C238 C239 1.389 . S
C238 C243 1.391 . S
C239 H225 0.941 . S
C239 C238 1.389 . S
C239 C240 1.397 . S
C240 H226 0.939 . S
C240 C239 1.397 . S
C240 C241 1.378 . S
C241 C240 1.378 . S
C241 C242 1.378 . S
C242 H227 0.940 . S
C242 C241 1.378 . S
C242 C243 1.396 . S
C243 H228 0.940 . S
C243 C238 1.391 . S
C243 C242 1.396 . S
C244 P224 1.803 . S
C244 C245 1.378 . S
C244 C249 1.400 . S
C245 H229 0.939 . S
C245 C244 1.378 . S
C245 C246 1.361 . S
C246 H230 0.942 . S
C246 C245 1.361 . S
C246 C247 1.369 . S
C247 C246 1.369 . S
C247 C248 1.404 . S
C248 H231 0.940 . S
C248 C247 1.404 . S
C248 C249 1.389 . S
C249 H232 0.939 . S
C249 C244 1.400 . S
C249 C248 1.389 . S
C250 P224 1.819 . S
C250 C251 1.391 . S
C250 C255 1.391 . S
C251 H233 0.941 . S
C251 C250 1.391 . S
C251 C252 1.396 . S
C252 H236 0.939 . S
C252 C251 1.396 . S
C252 C253 1.397 . S
C253 C252 1.397 . S
C253 C254 1.385 . S
C254 H237 0.940 . S
C254 C253 1.385 . S
C254 C255 1.388 . S
C255 H234 0.939 . S
C255 C250 1.391 . S
C255 C254 1.388 . S
P256 O267 1.490 1_545 S
P256 C270 1.812 . S
P256 C276 1.803 . S
P256 C282 1.819 . S
H257 C271 0.941 . S
H258 C272 0.939 . S
H259 C274 0.940 . S
H260 C275 0.940 . S
H261 C277 0.939 . S
H262 C278 0.942 . S
H263 C280 0.940 . S
H264 C281 0.939 . S
H265 C283 0.941 . S
H266 C287 0.939 . S
O267 P256 1.490 1_565 S
H268 C284 0.939 . S
H269 C286 0.940 . S
C270 P256 1.812 . S
C270 C271 1.389 . S
C270 C275 1.391 . S
C271 H257 0.941 . S
C271 C270 1.389 . S
C271 C272 1.397 . S
C272 H258 0.939 . S
C272 C271 1.397 . S
C272 C273 1.378 . S
C273 C272 1.378 . S
C273 C274 1.378 . S
C274 H259 0.940 . S
C274 C273 1.378 . S
C274 C275 1.396 . S
C275 H260 0.940 . S
C275 C270 1.391 . S
C275 C274 1.396 . S
C276 P256 1.803 . S
C276 C277 1.378 . S
C276 C281 1.400 . S
C277 H261 0.939 . S
C277 C276 1.378 . S
C277 C278 1.361 . S
C278 H262 0.942 . S
C278 C277 1.361 . S
C278 C279 1.369 . S
C279 C278 1.369 . S
C279 C280 1.404 . S
C280 H263 0.940 . S
C280 C279 1.404 . S
C280 C281 1.389 . S
C281 H264 0.939 . S
C281 C276 1.400 . S
C281 C280 1.389 . S
C282 P256 1.819 . S
C282 C283 1.391 . S
C282 C287 1.391 . S
C283 H265 0.941 . S
C283 C282 1.391 . S
C283 C284 1.396 . S
C284 H268 0.939 . S
C284 C283 1.396 . S
C284 C285 1.397 . S
C285 C284 1.397 . S
C285 C286 1.385 . S
C286 H269 0.940 . S
C286 C285 1.385 . S
C286 C287 1.388 . S
C287 H266 0.939 . S
C287 C282 1.391 . S
C287 C286 1.388 . S
P288 O299 1.490 . S
P288 C302 1.812 . S
P288 C308 1.803 . S
P288 C314 1.819 . S
H289 C303 0.941 . S
H290 C304 0.939 . S
H291 C306 0.940 . S
H292 C307 0.940 . S
H293 C309 0.939 . S
H294 C310 0.942 . S
H295 C312 0.940 . S
H296 C313 0.939 . S
H297 C315 0.941 . S
H298 C319 0.939 . S
O299 P288 1.490 . S
H300 C316 0.939 . S
H301 C318 0.940 . S
C302 P288 1.812 . S
C302 C303 1.389 . S
C302 C307 1.391 . S
C303 H289 0.941 . S
C303 C302 1.389 . S
C303 C304 1.397 . S
C304 H290 0.939 . S
C304 C303 1.397 . S
C304 C305 1.378 . S
C305 C304 1.378 . S
C305 C306 1.378 . S
C306 H291 0.940 . S
C306 C305 1.378 . S
C306 C307 1.396 . S
C307 H292 0.940 . S
C307 C302 1.391 . S
C307 C306 1.396 . S
C308 P288 1.803 . S
C308 C309 1.378 . S
C308 C313 1.400 . S
C309 H293 0.939 . S
C309 C308 1.378 . S
C309 C310 1.361 . S
C310 H294 0.942 . S
C310 C309 1.361 . S
C310 C311 1.369 . S
C311 C310 1.369 . S
C311 C312 1.404 . S
C312 H295 0.940 . S
C312 C311 1.404 . S
C312 C313 1.389 . S
C313 H296 0.939 . S
C313 C308 1.400 . S
C313 C312 1.389 . S
C314 P288 1.819 . S
C314 C315 1.391 . S
C314 C319 1.391 . S
C315 H297 0.941 . S
C315 C314 1.391 . S
C315 C316 1.396 . S
C316 H300 0.939 . S
C316 C315 1.396 . S
C316 C317 1.397 . S
C317 C316 1.397 . S
C317 C318 1.385 . S
C318 H301 0.940 . S
C318 C317 1.385 . S
C318 C319 1.388 . S
C319 H298 0.939 . S
C319 C314 1.391 . S
C319 C318 1.388 . S
P320 O331 1.490 . S
P320 C334 1.812 . S
P320 C340 1.803 . S
P320 C346 1.819 . S
H321 C335 0.941 . S
H322 C336 0.939 . S
H323 C338 0.940 . S
H324 C339 0.940 . S
H325 C341 0.939 . S
H326 C342 0.942 . S
H327 C344 0.940 . S
H328 C345 0.939 . S
H329 C347 0.941 . S
H330 C351 0.939 . S
O331 P320 1.490 . S
H332 C348 0.939 . S
H333 C350 0.940 . S
C334 P320 1.812 . S
C334 C335 1.389 . S
C334 C339 1.391 . S
C335 H321 0.941 . S
C335 C334 1.389 . S
C335 C336 1.397 . S
C336 H322 0.939 . S
C336 C335 1.397 . S
C336 C337 1.378 . S
C337 C336 1.378 . S
C337 C338 1.378 . S
C338 H323 0.940 . S
C338 C337 1.378 . S
C338 C339 1.396 . S
C339 H324 0.940 . S
C339 C334 1.391 . S
C339 C338 1.396 . S
C340 P320 1.803 . S
C340 C341 1.378 . S
C340 C345 1.400 . S
C341 H325 0.939 . S
C341 C340 1.378 . S
C341 C342 1.361 . S
C342 H326 0.942 . S
C342 C341 1.361 . S
C342 C343 1.369 . S
C343 C342 1.369 . S
C343 C344 1.404 . S
C344 H327 0.940 . S
C344 C343 1.404 . S
C344 C345 1.389 . S
C345 H328 0.939 . S
C345 C340 1.400 . S
C345 C344 1.389 . S
C346 P320 1.819 . S
C346 C347 1.391 . S
C346 C351 1.391 . S
C347 H329 0.941 . S
C347 C346 1.391 . S
C347 C348 1.396 . S
C348 H332 0.939 . S
C348 C347 1.396 . S
C348 C349 1.397 . S
C349 C348 1.397 . S
C349 C350 1.385 . S
C350 H333 0.940 . S
C350 C349 1.385 . S
C350 C351 1.388 . S
C351 H330 0.939 . S
C351 C346 1.391 . S
C351 C350 1.388 . S
P352 O363 1.490 . S
P352 C366 1.812 . S
P352 C372 1.803 . S
P352 C378 1.819 . S
H353 C367 0.941 . S
H354 C368 0.939 . S
H355 C370 0.940 . S
H356 C371 0.940 . S
H357 C373 0.939 . S
H358 C374 0.942 . S
H359 C376 0.940 . S
H360 C377 0.939 . S
H361 C379 0.941 . S
H362 C383 0.939 . S
O363 P352 1.490 . S
H364 C380 0.939 . S
H365 C382 0.940 . S
C366 P352 1.812 . S
C366 C367 1.389 . S
C366 C371 1.391 . S
C367 H353 0.941 . S
C367 C366 1.389 . S
C367 C368 1.397 . S
C368 H354 0.939 . S
C368 C367 1.397 . S
C368 C369 1.378 . S
C369 C368 1.378 . S
C369 C370 1.378 . S
C370 H355 0.940 . S
C370 C369 1.378 . S
C370 C371 1.396 . S
C371 H356 0.940 . S
C371 C366 1.391 . S
C371 C370 1.396 . S
C372 P352 1.803 . S
C372 C373 1.378 . S
C372 C377 1.400 . S
C373 H357 0.939 . S
C373 C372 1.378 . S
C373 C374 1.361 . S
C374 H358 0.942 . S
C374 C373 1.361 . S
C374 C375 1.369 . S
C375 C374 1.369 . S
C375 C376 1.404 . S
C376 H359 0.940 . S
C376 C375 1.404 . S
C376 C377 1.389 . S
C377 H360 0.939 . S
C377 C372 1.400 . S
C377 C376 1.389 . S
C378 P352 1.819 . S
C378 C379 1.391 . S
C378 C383 1.391 . S
C379 H361 0.941 . S
C379 C378 1.391 . S
C379 C380 1.396 . S
C380 H364 0.939 . S
C380 C379 1.396 . S
C380 C381 1.397 . S
C381 C380 1.397 . S
C381 C382 1.385 . S
C382 H365 0.940 . S
C382 C381 1.385 . S
C382 C383 1.388 . S
C383 H362 0.939 . S
C383 C378 1.391 . S
C383 C382 1.388 . S
P384 O395 1.490 . S
P384 C398 1.812 . S
P384 C404 1.803 . S
P384 C410 1.819 . S
H385 C399 0.941 . S
H386 C400 0.939 . S
H387 C402 0.940 . S
H388 C403 0.940 . S
H389 C405 0.939 . S
H390 C406 0.942 . S
H391 C408 0.940 . S
H392 C409 0.939 . S
H393 C411 0.941 . S
H394 C415 0.939 . S
O395 P384 1.490 . S
H396 C412 0.939 . S
H397 C414 0.940 . S
C398 P384 1.812 . S
C398 C399 1.389 . S
C398 C403 1.391 . S
C399 H385 0.941 . S
C399 C398 1.389 . S
C399 C400 1.397 . S
C400 H386 0.939 . S
C400 C399 1.397 . S
C400 C401 1.378 . S
C401 C400 1.378 . S
C401 C402 1.378 . S
C402 H387 0.940 . S
C402 C401 1.378 . S
C402 C403 1.396 . S
C403 H388 0.940 . S
C403 C398 1.391 . S
C403 C402 1.396 . S
C404 P384 1.803 . S
C404 C405 1.378 . S
C404 C409 1.400 . S
C405 H389 0.939 . S
C405 C404 1.378 . S
C405 C406 1.361 . S
C406 H390 0.942 . S
C406 C405 1.361 . S
C406 C407 1.369 . S
C407 C406 1.369 . S
C407 C408 1.404 . S
C408 H391 0.940 . S
C408 C407 1.404 . S
C408 C409 1.389 . S
C409 H392 0.939 . S
C409 C404 1.400 . S
C409 C408 1.389 . S
C410 P384 1.819 . S
C410 C411 1.391 . S
C410 C415 1.391 . S
C411 H393 0.941 . S
C411 C410 1.391 . S
C411 C412 1.396 . S
C412 H396 0.939 . S
C412 C411 1.396 . S
C412 C413 1.397 . S
C413 C412 1.397 . S
C413 C414 1.385 . S
C414 H397 0.940 . S
C414 C413 1.385 . S
C414 C415 1.388 . S
C415 H394 0.939 . S
C415 C410 1.391 . S
C415 C414 1.388 . S
P416 O427 1.490 . S
P416 C430 1.812 . S
P416 C436 1.803 . S
P416 C442 1.819 . S
H417 C431 0.941 . S
H418 C432 0.939 . S
H419 C434 0.940 . S
H420 C435 0.940 . S
H421 C437 0.939 . S
H422 C438 0.942 . S
H423 C440 0.940 . S
H424 C441 0.939 . S
H425 C443 0.941 . S
H426 C447 0.939 . S
O427 P416 1.490 . S
H428 C444 0.939 . S
H429 C446 0.940 . S
C430 P416 1.812 . S
C430 C431 1.389 . S
C430 C435 1.391 . S
C431 H417 0.941 . S
C431 C430 1.389 . S
C431 C432 1.397 . S
C432 H418 0.939 . S
C432 C431 1.397 . S
C432 C433 1.378 . S
C433 C432 1.378 . S
C433 C434 1.378 . S
C434 H419 0.940 . S
C434 C433 1.378 . S
C434 C435 1.396 . S
C435 H420 0.940 . S
C435 C430 1.391 . S
C435 C434 1.396 . S
C436 P416 1.803 . S
C436 C437 1.378 . S
C436 C441 1.400 . S
C437 H421 0.939 . S
C437 C436 1.378 . S
C437 C438 1.361 . S
C438 H422 0.942 . S
C438 C437 1.361 . S
C438 C439 1.369 . S
C439 C438 1.369 . S
C439 C440 1.404 . S
C440 H423 0.940 . S
C440 C439 1.404 . S
C440 C441 1.389 . S
C441 H424 0.939 . S
C441 C436 1.400 . S
C441 C440 1.389 . S
C442 P416 1.819 . S
C442 C443 1.391 . S
C442 C447 1.391 . S
C443 H425 0.941 . S
C443 C442 1.391 . S
C443 C444 1.396 . S
C444 H428 0.939 . S
C444 C443 1.396 . S
C444 C445 1.397 . S
C445 C444 1.397 . S
C445 C446 1.385 . S
C446 H429 0.940 . S
C446 C445 1.385 . S
C446 C447 1.388 . S
C447 H426 0.939 . S
C447 C442 1.391 . S
C447 C446 1.388 . S
P448 O459 1.490 . S
P448 C462 1.812 . S
P448 C468 1.803 . S
P448 C474 1.819 . S
H449 C463 0.941 . S
H450 C464 0.939 . S
H451 C466 0.940 . S
H452 C467 0.940 . S
H453 C469 0.939 . S
H454 C470 0.942 . S
H455 C472 0.940 . S
H456 C473 0.939 . S
H457 C475 0.941 . S
H458 C479 0.939 . S
O459 P448 1.490 . S
H460 C476 0.939 . S
H461 C478 0.940 . S
C462 P448 1.812 . S
C462 C463 1.389 . S
C462 C467 1.391 . S
C463 H449 0.941 . S
C463 C462 1.389 . S
C463 C464 1.397 . S
C464 H450 0.939 . S
C464 C463 1.397 . S
C464 C465 1.378 . S
C465 C464 1.378 . S
C465 C466 1.378 . S
C466 H451 0.940 . S
C466 C465 1.378 . S
C466 C467 1.396 . S
C467 H452 0.940 . S
C467 C462 1.391 . S
C467 C466 1.396 . S
C468 P448 1.803 . S
C468 C469 1.378 . S
C468 C473 1.400 . S
C469 H453 0.939 . S
C469 C468 1.378 . S
C469 C470 1.361 . S
C470 H454 0.942 . S
C470 C469 1.361 . S
C470 C471 1.369 . S
C471 C470 1.369 . S
C471 C472 1.404 . S
C472 H455 0.940 . S
C472 C471 1.404 . S
C472 C473 1.389 . S
C473 H456 0.939 . S
C473 C468 1.400 . S
C473 C472 1.389 . S
C474 P448 1.819 . S
C474 C475 1.391 . S
C474 C479 1.391 . S
C475 H457 0.941 . S
C475 C474 1.391 . S
C475 C476 1.396 . S
C476 H460 0.939 . S
C476 C475 1.396 . S
C476 C477 1.397 . S
C477 C476 1.397 . S
C477 C478 1.385 . S
C478 H461 0.940 . S
C478 C477 1.385 . S
C478 C479 1.388 . S
C479 H458 0.939 . S
C479 C474 1.391 . S
C479 C478 1.388 . S
P480 O491 1.490 1_565 S
P480 C494 1.812 . S
P480 C500 1.803 . S
P480 C506 1.819 . S
H481 C495 0.941 . S
H482 C496 0.939 . S
H483 C498 0.940 . S
H484 C499 0.940 . S
H485 C501 0.939 . S
H486 C502 0.942 . S
H487 C504 0.940 . S
H488 C505 0.939 . S
H489 C507 0.941 . S
H490 C511 0.939 . S
O491 P480 1.490 1_545 S
H492 C508 0.939 . S
H493 C510 0.940 . S
C494 P480 1.812 . S
C494 C495 1.389 . S
C494 C499 1.391 . S
C495 H481 0.941 . S
C495 C494 1.389 . S
C495 C496 1.397 . S
C496 H482 0.939 . S
C496 C495 1.397 . S
C496 C497 1.378 . S
C497 C496 1.378 . S
C497 C498 1.378 . S
C498 H483 0.940 . S
C498 C497 1.378 . S
C498 C499 1.396 . S
C499 H484 0.940 . S
C499 C494 1.391 . S
C499 C498 1.396 . S
C500 P480 1.803 . S
C500 C501 1.378 . S
C500 C505 1.400 . S
C501 H485 0.939 . S
C501 C500 1.378 . S
C501 C502 1.361 . S
C502 H486 0.942 . S
C502 C501 1.361 . S
C502 C503 1.369 . S
C503 C502 1.369 . S
C503 C504 1.404 . S
C504 H487 0.940 . S
C504 C503 1.404 . S
C504 C505 1.389 . S
C505 H488 0.939 . S
C505 C500 1.400 . S
C505 C504 1.389 . S
C506 P480 1.819 . S
C506 C507 1.391 . S
C506 C511 1.391 . S
C507 H489 0.941 . S
C507 C506 1.391 . S
C507 C508 1.396 . S
C508 H492 0.939 . S
C508 C507 1.396 . S
C508 C509 1.397 . S
C509 C508 1.397 . S
C509 C510 1.385 . S
C510 H493 0.940 . S
C510 C509 1.385 . S
C510 C511 1.388 . S
C511 H490 0.939 . S
C511 C506 1.391 . S
C511 C510 1.388 . S
P512 O523 1.490 . S
P512 C526 1.812 . S
P512 C532 1.803 . S
P512 C538 1.819 . S
H513 C527 0.941 . S
H514 C528 0.939 . S
H515 C530 0.940 . S
H516 C531 0.940 . S
H517 C533 0.939 . S
H518 C534 0.942 . S
H519 C536 0.940 . S
H520 C537 0.939 . S
H521 C539 0.941 . S
H522 C543 0.939 . S
O523 P512 1.490 . S
H524 C540 0.939 . S
H525 C542 0.940 . S
C526 P512 1.812 . S
C526 C527 1.389 . S
C526 C531 1.391 . S
C527 H513 0.941 . S
C527 C526 1.389 . S
C527 C528 1.397 . S
C528 H514 0.939 . S
C528 C527 1.397 . S
C528 C529 1.378 . S
C529 C528 1.378 . S
C529 C530 1.378 . S
C530 H515 0.940 . S
C530 C529 1.378 . S
C530 C531 1.396 . S
C531 H516 0.940 . S
C531 C526 1.391 . S
C531 C530 1.396 . S
C532 P512 1.803 . S
C532 C533 1.378 . S
C532 C537 1.400 . S
C533 H517 0.939 . S
C533 C532 1.378 . S
C533 C534 1.361 . S
C534 H518 0.942 . S
C534 C533 1.361 . S
C534 C535 1.369 . S
C535 C534 1.369 . S
C535 C536 1.404 . S
C536 H519 0.940 . S
C536 C535 1.404 . S
C536 C537 1.389 . S
C537 H520 0.939 . S
C537 C532 1.400 . S
C537 C536 1.389 . S
C538 P512 1.819 . S
C538 C539 1.391 . S
C538 C543 1.391 . S
C539 H521 0.941 . S
C539 C538 1.391 . S
C539 C540 1.396 . S
C540 H524 0.939 . S
C540 C539 1.396 . S
C540 C541 1.397 . S
C541 C540 1.397 . S
C541 C542 1.385 . S
C542 H525 0.940 . S
C542 C541 1.385 . S
C542 C543 1.388 . S
C543 H522 0.939 . S
C543 C538 1.391 . S
C543 C542 1.388 . S
P544 O555 1.490 . S
P544 C558 1.812 . S
P544 C564 1.803 . S
P544 C570 1.819 . S
H545 C559 0.941 . S
H546 C560 0.939 . S
H547 C562 0.940 . S
H548 C563 0.940 . S
H549 C565 0.939 . S
H550 C566 0.942 . S
H551 C568 0.940 . S
H552 C569 0.939 . S
H553 C571 0.941 . S
H554 C575 0.939 . S
O555 P544 1.490 . S
H556 C572 0.939 . S
H557 C574 0.940 . S
C558 P544 1.812 . S
C558 C559 1.389 . S
C558 C563 1.391 . S
C559 H545 0.941 . S
C559 C558 1.389 . S
C559 C560 1.397 . S
C560 H546 0.939 . S
C560 C559 1.397 . S
C560 C561 1.378 . S
C561 C560 1.378 . S
C561 C562 1.378 . S
C562 H547 0.940 . S
C562 C561 1.378 . S
C562 C563 1.396 . S
C563 H548 0.940 . S
C563 C558 1.391 . S
C563 C562 1.396 . S
C564 P544 1.803 . S
C564 C565 1.378 . S
C564 C569 1.400 . S
C565 H549 0.939 . S
C565 C564 1.378 . S
C565 C566 1.361 . S
C566 H550 0.942 . S
C566 C565 1.361 . S
C566 C567 1.369 . S
C567 C566 1.369 . S
C567 C568 1.404 . S
C568 H551 0.940 . S
C568 C567 1.404 . S
C568 C569 1.389 . S
C569 H552 0.939 . S
C569 C564 1.400 . S
C569 C568 1.389 . S
C570 P544 1.819 . S
C570 C571 1.391 . S
C570 C575 1.391 . S
C571 H553 0.941 . S
C571 C570 1.391 . S
C571 C572 1.396 . S
C572 H556 0.939 . S
C572 C571 1.396 . S
C572 C573 1.397 . S
C573 C572 1.397 . S
C573 C574 1.385 . S
C574 H557 0.940 . S
C574 C573 1.385 . S
C574 C575 1.388 . S
C575 H554 0.939 . S
C575 C570 1.391 . S
C575 C574 1.388 . S
C576 Eu577 2.835 . S
C576 C578 1.500 . S
C576 O596 1.257 1_545 S
C576 O597 1.260 . S
Eu577 C576 2.835 . S
Eu577 O596 2.473 1_545 S
Eu577 O597 2.480 . S
Eu577 O598 2.430 . S
Eu577 O599 2.670 1_554 S
Eu577 O600 2.394 1_545 S
Eu577 O605 2.355 1_545 S
Eu577 O607 2.374 . S
C578 C576 1.500 . S
C578 C579 1.377 . S
C578 C583 1.377 1_545 S
C579 C578 1.377 . S
C579 C580 1.395 . S
C579 H608 0.931 . S
C580 C579 1.395 . S
C580 C581 1.383 1_545 S
C580 H609 0.931 . S
C581 C580 1.383 1_565 S
C581 C582 1.394 . S
C582 C581 1.394 . S
C582 C583 1.378 . S
C582 H610 0.931 . S
C583 C578 1.377 1_565 S
C583 C582 1.378 . S
C583 H611 0.931 . S
C584 O598 1.313 . S
C584 O599 1.251 1_554 S
C585 O600 1.251 . S
C585 O601 1.251 1_554 S
C586 Eu587 2.835 . S
C586 C588 1.500 . S
C586 O602 1.257 1_565 S
C586 O603 1.260 . S
Eu587 C586 2.835 . S
Eu587 O599 2.355 1_565 S
Eu587 O601 2.374 . S
Eu587 O602 2.473 1_565 S
Eu587 O603 2.480 . S
Eu587 O604 2.430 . S
Eu587 O605 2.670 1_556 S
Eu587 O606 2.394 1_565 S
C588 C586 1.500 . S
C588 C589 1.377 . S
C588 C593 1.377 1_565 S
C589 C588 1.377 . S
C589 C590 1.395 . S
C589 H612 0.931 . S
C590 C589 1.395 . S
C590 C591 1.383 1_565 S
C590 H613 0.931 . S
C591 C590 1.383 1_545 S
C591 C592 1.394 . S
C592 C591 1.394 . S
C592 C593 1.378 . S
C592 H614 0.931 . S
C593 C588 1.377 1_545 S
C593 C592 1.378 . S
C593 H615 0.931 . S
C594 O604 1.259 1_554 S
C594 O605 1.270 . S
C595 O606 1.251 . S
C595 O607 1.251 1_556 S
O596 C576 1.257 1_565 S
O596 Eu577 2.473 1_565 S
O597 C576 1.260 . S
O597 Eu577 2.480 . S
O598 Eu577 2.430 . S
O598 C584 1.313 . S
O599 Eu577 2.670 1_556 S
O599 C584 1.251 1_556 S
O599 Eu587 2.355 1_545 S
O600 Eu577 2.394 1_565 S
O600 C585 1.251 . S
O601 C585 1.251 1_556 S
O601 Eu587 2.374 . S
O602 C586 1.257 1_545 S
O602 Eu587 2.473 1_545 S
O603 C586 1.260 . S
O603 Eu587 2.480 . S
O604 Eu587 2.430 . S
O604 C594 1.259 1_556 S
O605 Eu577 2.355 1_565 S
O605 Eu587 2.670 1_554 S
O605 C594 1.270 . S
O606 Eu587 2.394 1_545 S
O606 C595 1.251 . S
O607 Eu577 2.374 . S
O607 C595 1.251 1_554 S
H608 C579 0.931 . S
H609 C580 0.931 . S
H610 C582 0.931 . S
H611 C583 0.931 . S
H612 C589 0.931 . S
H613 C590 0.931 . S
H614 C592 0.931 . S
H615 C593 0.931 . S
C616 Eu617 2.835 . S
C616 C618 1.500 1_655 S
C616 O636 1.257 1_655 S
C616 O637 1.260 . S
Eu617 C616 2.835 . S
Eu617 O636 2.473 1_655 S
Eu617 O637 2.480 . S
Eu617 O638 2.430 . S
Eu617 O639 2.670 1_554 S
Eu617 O640 2.394 1_655 S
Eu617 O645 2.355 1_655 S
Eu617 O647 2.374 . S
C618 C616 1.500 1_455 S
C618 C619 1.377 1_455 S
C618 C623 1.377 . S
C619 C618 1.377 1_655 S
C619 C620 1.395 . S
C619 H648 0.931 . S
C620 C619 1.395 . S
C620 C621 1.383 1_655 S
C620 H649 0.931 . S
C621 C620 1.383 1_455 S
C621 C622 1.394 . S
C622 C621 1.394 . S
C622 C623 1.378 . S
C622 H650 0.931 . S
C623 C618 1.377 . S
C623 C622 1.378 . S
C623 H651 0.931 . S
C624 O638 1.259 1_556 S
C624 O639 1.270 . S
C625 O640 1.251 . S
C625 O641 1.251 . S
C626 Eu627 2.835 . S
C626 C628 1.500 1_455 S
C626 O642 1.257 1_455 S
C626 O643 1.260 . S
Eu627 C626 2.835 . S
Eu627 O639 2.355 1_455 S
Eu627 O641 2.374 1_556 S
Eu627 O642 2.473 1_455 S
Eu627 O643 2.480 . S
Eu627 O644 2.430 . S
Eu627 O645 2.670 1_556 S
Eu627 O646 2.394 1_455 S
C628 C626 1.500 1_655 S
C628 C629 1.377 1_655 S
C628 C633 1.377 . S
C629 C628 1.377 1_455 S
C629 C630 1.395 . S
C629 H652 0.931 . S
C630 C629 1.395 . S
C630 C631 1.383 1_455 S
C630 H653 0.931 . S
C631 C630 1.383 1_655 S
C631 C632 1.394 . S
C632 C631 1.394 . S
C632 C633 1.378 . S
C632 H654 0.931 . S
C633 C628 1.377 . S
C633 C632 1.378 . S
C633 H655 0.931 . S
C634 O644 1.259 1_554 S
C634 O645 1.270 . S
C635 O646 1.251 . S
C635 O647 1.251 1_556 S
O636 C616 1.257 1_455 S
O636 Eu617 2.473 1_455 S
O637 C616 1.260 . S
O637 Eu617 2.480 . S
O638 Eu617 2.430 . S
O638 C624 1.259 1_554 S
O639 Eu617 2.670 1_556 S
O639 C624 1.270 . S
O639 Eu627 2.355 1_655 S
O640 Eu617 2.394 1_455 S
O640 C625 1.251 . S
O641 C625 1.251 . S
O641 Eu627 2.374 1_554 S
O642 C626 1.257 1_655 S
O642 Eu627 2.473 1_655 S
O643 C626 1.260 . S
O643 Eu627 2.480 . S
O644 Eu627 2.430 . S
O644 C634 1.259 1_556 S
O645 Eu617 2.355 1_455 S
O645 Eu627 2.670 1_554 S
O645 C634 1.270 . S
O646 Eu627 2.394 1_655 S
O646 C635 1.251 . S
O647 Eu617 2.374 . S
O647 C635 1.251 1_554 S
H648 C619 0.931 . S
H649 C620 0.931 . S
H650 C622 0.931 . S
H651 C623 0.931 . S
H652 C629 0.931 . S
H653 C630 0.931 . S
H654 C632 0.931 . S
H655 C633 0.931 . S
C656 Eu657 2.835 . S
C656 C658 1.500 . S
C656 O676 1.257 . S
C656 O677 1.260 . S
Eu657 C656 2.835 . S
Eu657 O676 2.473 . S
Eu657 O677 2.480 . S
Eu657 O678 2.430 . S
Eu657 O679 2.670 1_556 S
Eu657 O680 2.394 . S
Eu657 O685 2.355 . S
Eu657 O687 2.347 1_556 S
C658 C656 1.500 . S
C658 C659 1.377 . S
C658 C663 1.377 . S
C659 C658 1.377 . S
C659 C660 1.395 . S
C659 H688 0.931 . S
C660 C659 1.395 . S
C660 C661 1.383 . S
C660 H689 0.931 . S
C661 C660 1.383 . S
C661 C662 1.394 . S
C662 C661 1.394 . S
C662 C663 1.378 . S
C662 H690 0.931 . S
C663 C658 1.377 . S
C663 C662 1.378 . S
C663 H691 0.931 . S
C664 O678 1.259 1_554 S
C664 O679 1.270 . S
C665 O680 1.251 . S
C665 O681 1.251 1_556 S
C666 Eu667 2.835 . S
C666 C668 1.500 . S
C666 O682 1.257 . S
C666 O683 1.260 . S
Eu667 C666 2.835 . S
Eu667 O679 2.355 . S
Eu667 O681 2.374 . S
Eu667 O682 2.473 . S
Eu667 O683 2.480 . S
Eu667 O684 2.430 . S
Eu667 O685 2.670 1_554 S
Eu667 O686 2.394 . S
C668 C666 1.500 . S
C668 C669 1.377 . S
C668 C673 1.377 . S
C669 C668 1.377 . S
C669 C670 1.395 . S
C669 H692 0.931 . S
C670 C669 1.395 . S
C670 C671 1.383 . S
C670 H693 0.931 . S
C671 C670 1.383 . S
C671 C672 1.394 . S
C672 C671 1.394 . S
C672 C673 1.378 . S
C672 H694 0.931 . S
C673 C668 1.377 . S
C673 C672 1.378 . S
C673 H695 0.931 . S
C674 O684 1.259 1_556 S
C674 O685 1.270 . S
C675 O686 1.251 . S
C675 O687 1.287 . S
O676 C656 1.257 . S
O676 Eu657 2.473 . S
O677 C656 1.260 . S
O677 Eu657 2.480 . S
O678 Eu657 2.430 . S
O678 C664 1.259 1_556 S
O679 Eu657 2.670 1_554 S
O679 C664 1.270 . S
O679 Eu667 2.355 . S
O680 Eu657 2.394 . S
O680 C665 1.251 . S
O681 C665 1.251 1_554 S
O681 Eu667 2.374 . S
O682 C666 1.257 . S
O682 Eu667 2.473 . S
O683 C666 1.260 . S
O683 Eu667 2.480 . S
O684 Eu667 2.430 . S
O684 C674 1.259 1_554 S
O685 Eu657 2.355 . S
O685 Eu667 2.670 1_556 S
O685 C674 1.270 . S
O686 Eu667 2.394 . S
O686 C675 1.251 . S
O687 Eu657 2.347 1_554 S
O687 C675 1.287 . S
H688 C659 0.931 . S
H689 C660 0.931 . S
H690 C662 0.931 . S
H691 C663 0.931 . S
H692 C669 0.931 . S
H693 C670 0.931 . S
H694 C672 0.931 . S
H695 C673 0.931 . S
C696 Eu697 2.835 . S
C696 C698 1.500 . S
C696 O716 1.257 . S
C696 O717 1.260 . S
Eu697 C696 2.835 . S
Eu697 O716 2.473 . S
Eu697 O717 2.480 . S
Eu697 O718 2.430 . S
Eu697 O719 2.670 . S
Eu697 O720 2.394 . S
Eu697 O725 2.355 . S
Eu697 O727 2.374 . S
C698 C696 1.500 . S
C698 C699 1.377 . S
C698 C703 1.377 . S
C699 C698 1.377 . S
C699 C700 1.395 . S
C699 H728 0.931 . S
C700 C699 1.395 . S
C700 C701 1.383 . S
C700 H729 0.931 . S
C701 C700 1.383 . S
C701 C702 1.394 . S
C702 C701 1.394 . S
C702 C703 1.378 . S
C702 H730 0.931 . S
C703 C698 1.377 . S
C703 C702 1.378 . S
C703 H731 0.931 . S
C704 O718 1.259 . S
C704 O719 1.270 . S
C705 O720 1.251 . S
C705 O721 1.251 . S
C706 Eu707 2.835 . S
C706 C708 1.500 . S
C706 O722 1.257 . S
C706 O723 1.260 . S
Eu707 C706 2.835 . S
Eu707 O719 2.355 . S
Eu707 O721 2.374 . S
Eu707 O722 2.473 . S
Eu707 O723 2.480 . S
Eu707 O724 2.430 . S
Eu707 O725 2.670 . S
Eu707 O726 2.394 . S
C708 C706 1.500 . S
C708 C709 1.377 . S
C708 C713 1.377 . S
C709 C708 1.377 . S
C709 C710 1.395 . S
C709 H732 0.931 . S
C710 C709 1.395 . S
C710 C711 1.383 . S
C710 H733 0.931 . S
C711 C710 1.383 . S
C711 C712 1.394 . S
C712 C711 1.394 . S
C712 C713 1.378 . S
C712 H734 0.931 . S
C713 C708 1.377 . S
C713 C712 1.378 . S
C713 H735 0.931 . S
C714 O724 1.259 . S
C714 O725 1.270 . S
C715 O726 1.251 . S
C715 O727 1.251 . S
O716 C696 1.257 . S
O716 Eu697 2.473 . S
O717 C696 1.260 . S
O717 Eu697 2.480 . S
O718 Eu697 2.430 . S
O718 C704 1.259 . S
O719 Eu697 2.670 . S
O719 C704 1.270 . S
O719 Eu707 2.355 . S
O720 Eu697 2.394 . S
O720 C705 1.251 . S
O721 C705 1.251 . S
O721 Eu707 2.374 . S
O722 C706 1.257 . S
O722 Eu707 2.473 . S
O723 C706 1.260 . S
O723 Eu707 2.480 . S
O724 Eu707 2.430 . S
O724 C714 1.259 . S
O725 Eu697 2.355 . S
O725 Eu707 2.670 . S
O725 C714 1.270 . S
O726 Eu707 2.394 . S
O726 C715 1.251 . S
O727 Eu697 2.374 . S
O727 C715 1.251 . S
H728 C699 0.931 . S
H729 C700 0.931 . S
H730 C702 0.931 . S
H731 C703 0.931 . S
H732 C709 0.931 . S
H733 C710 0.931 . S
H734 C712 0.931 . S
H735 C713 0.931 . S
C736 Eu737 2.835 . S
C736 C738 1.500 . S
C736 O756 1.257 . S
C736 O757 1.260 . S
Eu737 C736 2.835 . S
Eu737 O756 2.473 . S
Eu737 O757 2.480 . S
Eu737 O758 2.430 . S
Eu737 O759 2.670 . S
Eu737 O760 2.394 . S
Eu737 O765 2.355 . S
Eu737 O767 2.374 . S
C738 C736 1.500 . S
C738 C739 1.377 . S
C738 C743 1.377 . S
C739 C738 1.377 . S
C739 C740 1.395 . S
C739 H768 0.931 . S
C740 C739 1.395 . S
C740 C741 1.383 . S
C740 H769 0.931 . S
C741 C740 1.383 . S
C741 C742 1.394 . S
C742 C741 1.394 . S
C742 C743 1.378 . S
C742 H770 0.931 . S
C743 C738 1.377 . S
C743 C742 1.378 . S
C743 H771 0.931 . S
C744 O758 1.259 . S
C744 O759 1.270 . S
C745 O760 1.251 . S
C745 O761 1.251 . S
C746 Eu747 2.835 . S
C746 C748 1.500 . S
C746 O762 1.257 . S
C746 O763 1.260 . S
Eu747 C746 2.835 . S
Eu747 O759 2.355 . S
Eu747 O761 2.374 . S
Eu747 O762 2.473 . S
Eu747 O763 2.480 . S
Eu747 O764 2.430 . S
Eu747 O765 2.670 . S
Eu747 O766 2.394 . S
C748 C746 1.500 . S
C748 C749 1.377 . S
C748 C753 1.377 . S
C749 C748 1.377 . S
C749 C750 1.395 . S
C749 H772 0.931 . S
C750 C749 1.395 . S
C750 C751 1.383 . S
C750 H773 0.931 . S
C751 C750 1.383 . S
C751 C752 1.394 . S
C752 C751 1.394 . S
C752 C753 1.378 . S
C752 H774 0.931 . S
C753 C748 1.377 . S
C753 C752 1.378 . S
C753 H775 0.931 . S
C754 O764 1.259 . S
C754 O765 1.270 . S
C755 O766 1.251 . S
C755 O767 1.251 . S
O756 C736 1.257 . S
O756 Eu737 2.473 . S
O757 C736 1.260 . S
O757 Eu737 2.480 . S
O758 Eu737 2.430 . S
O758 C744 1.259 . S
O759 Eu737 2.670 . S
O759 C744 1.270 . S
O759 Eu747 2.355 . S
O760 Eu737 2.394 . S
O760 C745 1.251 . S
O761 C745 1.251 . S
O761 Eu747 2.374 . S
O762 C746 1.257 . S
O762 Eu747 2.473 . S
O763 C746 1.260 . S
O763 Eu747 2.480 . S
O764 Eu747 2.430 . S
O764 C754 1.259 . S
O765 Eu737 2.355 . S
O765 Eu747 2.670 . S
O765 C754 1.270 . S
O766 Eu747 2.394 . S
O766 C755 1.251 . S
O767 Eu737 2.374 . S
O767 C755 1.251 . S
H768 C739 0.931 . S
H769 C740 0.931 . S
H770 C742 0.931 . S
H771 C743 0.931 . S
H772 C749 0.931 . S
H773 C750 0.931 . S
H774 C752 0.931 . S
H775 C753 0.931 . S
C776 Eu777 2.835 . S
C776 C778 1.500 . S
C776 O796 1.257 . S
C776 O797 1.260 . S
Eu777 C776 2.835 . S
Eu777 O796 2.473 . S
Eu777 O797 2.480 . S
Eu777 O798 2.430 . S
Eu777 O799 2.670 . S
Eu777 O800 2.394 . S
Eu777 O805 2.355 . S
Eu777 O807 2.374 . S
C778 C776 1.500 . S
C778 C779 1.377 . S
C778 C783 1.377 . S
C779 C778 1.377 . S
C779 C780 1.395 . S
C779 H808 0.931 . S
C780 C779 1.395 . S
C780 C781 1.383 . S
C780 H809 0.931 . S
C781 C780 1.383 . S
C781 C782 1.394 . S
C782 C781 1.394 . S
C782 C783 1.378 . S
C782 H810 0.931 . S
C783 C778 1.377 . S
C783 C782 1.378 . S
C783 H811 0.931 . S
C784 O798 1.259 . S
C784 O799 1.270 . S
C785 O800 1.251 . S
C785 O801 1.251 . S
C786 Eu787 2.835 . S
C786 C788 1.500 . S
C786 O802 1.257 . S
C786 O803 1.260 . S
Eu787 C786 2.835 . S
Eu787 O799 2.355 . S
Eu787 O801 2.374 . S
Eu787 O802 2.473 . S
Eu787 O803 2.480 . S
Eu787 O804 2.430 . S
Eu787 O805 2.670 . S
Eu787 O806 2.394 . S
C788 C786 1.500 . S
C788 C789 1.377 . S
C788 C793 1.377 . S
C789 C788 1.377 . S
C789 C790 1.395 . S
C789 H812 0.931 . S
C790 C789 1.395 . S
C790 C791 1.383 . S
C790 H813 0.931 . S
C791 C790 1.383 . S
C791 C792 1.394 . S
C792 C791 1.394 . S
C792 C793 1.378 . S
C792 H814 0.931 . S
C793 C788 1.377 . S
C793 C792 1.378 . S
C793 H815 0.931 . S
C794 O804 1.259 . S
C794 O805 1.270 . S
C795 O806 1.251 . S
C795 O807 1.251 . S
O796 C776 1.257 . S
O796 Eu777 2.473 . S
O797 C776 1.260 . S
O797 Eu777 2.480 . S
O798 Eu777 2.430 . S
O798 C784 1.259 . S
O799 Eu777 2.670 . S
O799 C784 1.270 . S
O799 Eu787 2.355 . S
O800 Eu777 2.394 . S
O800 C785 1.251 . S
O801 C785 1.251 . S
O801 Eu787 2.374 . S
O802 C786 1.257 . S
O802 Eu787 2.473 . S
O803 C786 1.260 . S
O803 Eu787 2.480 . S
O804 Eu787 2.430 . S
O804 C794 1.259 . S
O805 Eu777 2.355 . S
O805 Eu787 2.670 . S
O805 C794 1.270 . S
O806 Eu787 2.394 . S
O806 C795 1.251 . S
O807 Eu777 2.374 . S
O807 C795 1.251 . S
H808 C779 0.931 . S
H809 C780 0.931 . S
H810 C782 0.931 . S
H811 C783 0.931 . S
H812 C789 0.931 . S
H813 C790 0.931 . S
H814 C792 0.931 . S
H815 C793 0.931 . S
C816 Eu817 2.835 . S
C816 C818 1.500 . S
C816 O836 1.257 . S
C816 O837 1.260 . S
Eu817 C816 2.835 . S
Eu817 O836 2.473 . S
Eu817 O837 2.480 . S
Eu817 O838 2.430 . S
Eu817 O839 2.670 . S
Eu817 O840 2.394 . S
Eu817 O845 2.355 . S
Eu817 O847 2.374 . S
C818 C816 1.500 . S
C818 C819 1.377 . S
C818 C823 1.377 . S
C819 C818 1.377 . S
C819 C820 1.395 . S
C819 H848 0.931 . S
C820 C819 1.395 . S
C820 C821 1.383 . S
C820 H849 0.931 . S
C821 C820 1.383 . S
C821 C822 1.394 . S
C822 C821 1.394 . S
C822 C823 1.378 . S
C822 H850 0.931 . S
C823 C818 1.377 . S
C823 C822 1.378 . S
C823 H851 0.931 . S
C824 O838 1.259 . S
C824 O839 1.270 . S
C825 O840 1.251 . S
C825 O841 1.251 . S
C826 Eu827 2.835 . S
C826 C828 1.500 . S
C826 O842 1.257 . S
C826 O843 1.260 . S
Eu827 C826 2.835 . S
Eu827 O839 2.355 . S
Eu827 O841 2.374 . S
Eu827 O842 2.473 . S
Eu827 O843 2.480 . S
Eu827 O844 2.430 . S
Eu827 O845 2.670 . S
Eu827 O846 2.394 . S
C828 C826 1.500 . S
C828 C829 1.377 . S
C828 C833 1.377 . S
C829 C828 1.377 . S
C829 C830 1.395 . S
C829 H852 0.931 . S
C830 C829 1.395 . S
C830 C831 1.383 . S
C830 H853 0.931 . S
C831 C830 1.383 . S
C831 C832 1.394 . S
C832 C831 1.394 . S
C832 C833 1.378 . S
C832 H854 0.931 . S
C833 C828 1.377 . S
C833 C832 1.378 . S
C833 H855 0.931 . S
C834 O844 1.259 . S
C834 O845 1.270 . S
C835 O846 1.251 . S
C835 O847 1.251 . S
O836 C816 1.257 . S
O836 Eu817 2.473 . S
O837 C816 1.260 . S
O837 Eu817 2.480 . S
O838 Eu817 2.430 . S
O838 C824 1.259 . S
O839 Eu817 2.670 . S
O839 C824 1.270 . S
O839 Eu827 2.355 . S
O840 Eu817 2.394 . S
O840 C825 1.251 . S
O841 C825 1.251 . S
O841 Eu827 2.374 . S
O842 C826 1.257 . S
O842 Eu827 2.473 . S
O843 C826 1.260 . S
O843 Eu827 2.480 . S
O844 Eu827 2.430 . S
O844 C834 1.259 . S
O845 Eu817 2.355 . S
O845 Eu827 2.670 . S
O845 C834 1.270 . S
O846 Eu827 2.394 . S
O846 C835 1.251 . S
O847 Eu817 2.374 . S
O847 C835 1.251 . S
H848 C819 0.931 . S
H849 C820 0.931 . S
H850 C822 0.931 . S
H851 C823 0.931 . S
H852 C829 0.931 . S
H853 C830 0.931 . S
H854 C832 0.931 . S
H855 C833 0.931 . S
C856 Eu857 2.835 . S
C856 C858 1.500 . S
C856 O876 1.257 . S
C856 O877 1.260 . S
Eu857 C856 2.835 . S
Eu857 O876 2.473 . S
Eu857 O877 2.480 . S
Eu857 O878 2.430 . S
Eu857 O879 2.670 . S
Eu857 O880 2.394 . S
Eu857 O885 2.355 . S
Eu857 O887 2.374 . S
C858 C856 1.500 . S
C858 C859 1.377 . S
C858 C863 1.377 . S
C859 C858 1.377 . S
C859 C860 1.395 . S
C859 H888 0.931 . S
C860 C859 1.395 . S
C860 C861 1.383 . S
C860 H889 0.931 . S
C861 C860 1.383 . S
C861 C862 1.394 . S
C862 C861 1.394 . S
C862 C863 1.378 . S
C862 H890 0.931 . S
C863 C858 1.377 . S
C863 C862 1.378 . S
C863 H891 0.931 . S
C864 O878 1.259 . S
C864 O879 1.270 . S
C865 O880 1.251 . S
C865 O881 1.251 . S
C866 Eu867 2.835 . S
C866 C868 1.500 . S
C866 O882 1.257 . S
C866 O883 1.260 . S
Eu867 C866 2.835 . S
Eu867 O879 2.355 . S
Eu867 O881 2.374 . S
Eu867 O882 2.473 . S
Eu867 O883 2.480 . S
Eu867 O884 2.430 . S
Eu867 O885 2.670 . S
Eu867 O886 2.394 . S
C868 C866 1.500 . S
C868 C869 1.377 . S
C868 C873 1.377 . S
C869 C868 1.377 . S
C869 C870 1.395 . S
C869 H892 0.931 . S
C870 C869 1.395 . S
C870 C871 1.383 . S
C870 H893 0.931 . S
C871 C870 1.383 . S
C871 C872 1.394 . S
C872 C871 1.394 . S
C872 C873 1.378 . S
C872 H894 0.931 . S
C873 C868 1.377 . S
C873 C872 1.378 . S
C873 H895 0.931 . S
C874 O884 1.259 . S
C874 O885 1.270 . S
C875 O886 1.251 . S
C875 O887 1.251 . S
O876 C856 1.257 . S
O876 Eu857 2.473 . S
O877 C856 1.260 . S
O877 Eu857 2.480 . S
O878 Eu857 2.430 . S
O878 C864 1.259 . S
O879 Eu857 2.670 . S
O879 C864 1.270 . S
O879 Eu867 2.355 . S
O880 Eu857 2.394 . S
O880 C865 1.251 . S
O881 C865 1.251 . S
O881 Eu867 2.374 . S
O882 C866 1.257 . S
O882 Eu867 2.473 . S
O883 C866 1.260 . S
O883 Eu867 2.480 . S
O884 Eu867 2.430 . S
O884 C874 1.259 . S
O885 Eu857 2.355 . S
O885 Eu867 2.670 . S
O885 C874 1.270 . S
O886 Eu867 2.394 . S
O886 C875 1.251 . S
O887 Eu857 2.374 . S
O887 C875 1.251 . S
H888 C859 0.931 . S
H889 C860 0.931 . S
H890 C862 0.931 . S
H891 C863 0.931 . S
H892 C869 0.931 . S
H893 C870 0.931 . S
H894 C872 0.931 . S
H895 C873 0.931 . S
C896 Eu897 2.835 . S
C896 C898 1.500 . S
C896 O916 1.257 . S
C896 O917 1.260 . S
Eu897 C896 2.835 . S
Eu897 O916 2.473 . S
Eu897 O917 2.480 . S
Eu897 O918 2.430 . S
Eu897 O919 2.670 . S
Eu897 O920 2.394 . S
Eu897 O925 2.355 . S
Eu897 O927 2.374 . S
C898 C896 1.500 . S
C898 C899 1.377 . S
C898 C903 1.377 . S
C899 C898 1.377 . S
C899 C900 1.395 . S
C899 H928 0.931 . S
C900 C899 1.395 . S
C900 C901 1.383 . S
C900 H929 0.931 . S
C901 C900 1.383 . S
C901 C902 1.394 . S
C902 C901 1.394 . S
C902 C903 1.378 . S
C902 H930 0.931 . S
C903 C898 1.377 . S
C903 C902 1.378 . S
C903 H931 0.931 . S
C904 O918 1.259 . S
C904 O919 1.270 . S
C905 O920 1.251 . S
C905 O921 1.251 . S
C906 Eu907 2.835 . S
C906 C908 1.500 . S
C906 O922 1.257 . S
C906 O923 1.260 . S
Eu907 C906 2.835 . S
Eu907 O919 2.355 . S
Eu907 O921 2.374 . S
Eu907 O922 2.473 . S
Eu907 O923 2.480 . S
Eu907 O924 2.430 . S
Eu907 O925 2.670 . S
Eu907 O926 2.394 . S
C908 C906 1.500 . S
C908 C909 1.377 . S
C908 C913 1.377 . S
C909 C908 1.377 . S
C909 C910 1.395 . S
C909 H932 0.931 . S
C910 C909 1.395 . S
C910 C911 1.383 . S
C910 H933 0.931 . S
C911 C910 1.383 . S
C911 C912 1.394 . S
C912 C911 1.394 . S
C912 C913 1.378 . S
C912 H934 0.931 . S
C913 C908 1.377 . S
C913 C912 1.378 . S
C913 H935 0.931 . S
C914 O924 1.259 . S
C914 O925 1.270 . S
C915 O926 1.251 . S
C915 O927 1.251 . S
O916 C896 1.257 . S
O916 Eu897 2.473 . S
O917 C896 1.260 . S
O917 Eu897 2.480 . S
O918 Eu897 2.430 . S
O918 C904 1.259 . S
O919 Eu897 2.670 . S
O919 C904 1.270 . S
O919 Eu907 2.355 . S
O920 Eu897 2.394 . S
O920 C905 1.251 . S
O921 C905 1.251 . S
O921 Eu907 2.374 . S
O922 C906 1.257 . S
O922 Eu907 2.473 . S
O923 C906 1.260 . S
O923 Eu907 2.480 . S
O924 Eu907 2.430 . S
O924 C914 1.259 . S
O925 Eu897 2.355 . S
O925 Eu907 2.670 . S
O925 C914 1.270 . S
O926 Eu907 2.394 . S
O926 C915 1.251 . S
O927 Eu897 2.374 . S
O927 C915 1.251 . S
H928 C899 0.931 . S
H929 C900 0.931 . S
H930 C902 0.931 . S
H931 C903 0.931 . S
H932 C909 0.931 . S
H933 C910 0.931 . S
H934 C912 0.931 . S
H935 C913 0.931 . S
H936 C942 0.930 . S
H937 C945 0.930 . S
H938 C946 0.930 . S
H939 C947 0.930 . S
H940 C950 0.930 1_556 S
H941 C951 0.930 1_556 S
C942 H936 0.930 . S
C942 C943 1.355 . S
C942 C944 1.415 . S
C943 C942 1.355 . S
C943 C945 1.419 . S
C944 C942 1.415 . S
C944 C949 1.425 . S
C944 C951 1.409 . S
C945 H937 0.930 . S
C945 C943 1.419 . S
C945 C946 1.362 . S
C946 H938 0.930 . S
C946 C945 1.362 . S
C946 C949 1.409 . S
C947 H939 0.930 . S
C947 C948 1.355 . S
C947 C949 1.415 . S
C948 C947 1.355 . S
C948 C950 1.419 . S
C949 C944 1.425 . S
C949 C946 1.409 . S
C949 C947 1.415 . S
C950 H940 0.930 1_554 S
C950 C948 1.419 . S
C950 C951 1.362 . S
C951 H941 0.930 1_554 S
C951 C944 1.409 . S
C951 C950 1.362 . S
H952 C958 0.930 . S
H953 C961 0.930 . S
H954 C962 0.930 . S
H955 C963 0.930 . S
H956 C966 0.930 . S
H957 C967 0.930 . S
C958 H952 0.930 . S
C958 C959 1.355 . S
C958 C960 1.415 . S
C959 C958 1.355 . S
C959 C961 1.419 . S
C960 C958 1.415 . S
C960 C965 1.425 . S
C960 C967 1.409 . S
C961 H953 0.930 . S
C961 C959 1.419 . S
C961 C962 1.362 . S
C962 H954 0.930 . S
C962 C961 1.362 . S
C962 C965 1.409 . S
C963 H955 0.930 . S
C963 C964 1.355 . S
C963 C965 1.415 . S
C964 C963 1.355 . S
C964 C966 1.419 . S
C965 C960 1.425 . S
C965 C962 1.409 . S
C965 C963 1.415 . S
C966 H956 0.930 . S
C966 C964 1.419 . S
C966 C967 1.362 . S
C967 H957 0.930 . S
C967 C960 1.409 . S
C967 C966 1.362 . S
H968 C974 0.930 . S
H969 C977 0.930 . S
H970 C978 0.930 1_556 S
H971 C979 0.954 . S
H972 C982 0.930 . S
H973 C983 0.930 . S
C974 H968 0.930 . S
C974 C975 1.355 . S
C974 C976 1.415 . S
C975 C974 1.355 . S
C975 C977 1.419 . S
C976 C974 1.415 . S
C976 C981 1.425 . S
C976 C983 1.409 . S
C977 H969 0.930 . S
C977 C975 1.419 . S
C977 C978 1.362 . S
C978 H970 0.930 1_554 S
C978 C977 1.362 . S
C978 C981 1.409 . S
C979 H971 0.954 . S
C979 C980 1.355 . S
C979 C981 1.415 . S
C980 C979 1.355 . S
C980 C982 1.419 . S
C981 C976 1.425 . S
C981 C978 1.409 . S
C981 C979 1.415 . S
C982 H972 0.930 . S
C982 C980 1.419 . S
C982 C983 1.362 . S
C983 H973 0.930 . S
C983 C976 1.409 . S
C983 C982 1.362 . S
H984 C990 0.930 . S
H985 C993 0.930 . S
H986 C994 0.930 . S
H987 C995 0.930 . S
H988 C998 0.930 . S
H989 C999 0.930 . S
C990 H984 0.930 . S
C990 C991 1.355 . S
C990 C992 1.415 . S
C991 C990 1.355 . S
C991 C993 1.419 . S
C992 C990 1.415 . S
C992 C997 1.425 . S
C992 C999 1.409 . S
C993 H985 0.930 . S
C993 C991 1.419 . S
C993 C994 1.362 . S
C994 H986 0.930 . S
C994 C993 1.362 . S
C994 C997 1.409 . S
C995 H987 0.930 . S
C995 C996 1.355 . S
C995 C997 1.415 . S
C996 C995 1.355 . S
C996 C998 1.419 . S
C997 C992 1.425 . S
C997 C994 1.409 . S
C997 C995 1.415 . S
C998 H988 0.930 . S
C998 C996 1.419 . S
C998 C999 1.362 . S
C999 H989 0.930 . S
C999 C992 1.409 . S
C999 C998 1.362 . S
H1000 C1006 0.930 . S
H1001 C1009 0.930 . S
H1002 C1010 0.930 . S
H1003 C1011 0.956 . S
H1004 C1014 0.930 . S
H1005 C1015 0.930 . S
C1006 H1000 0.930 . S
C1006 C1007 1.355 . S
C1006 C1008 1.415 . S
C1007 C1006 1.355 . S
C1007 C1009 1.419 . S
C1008 C1006 1.415 . S
C1008 C1013 1.425 . S
C1008 C1015 1.409 . S
C1009 H1001 0.930 . S
C1009 C1007 1.419 . S
C1009 C1010 1.362 . S
C1010 H1002 0.930 . S
C1010 C1009 1.362 . S
C1010 C1013 1.409 . S
C1011 H1003 0.956 . S
C1011 C1012 1.355 . S
C1011 C1013 1.415 . S
C1012 C1011 1.355 . S
C1012 C1014 1.419 . S
C1013 C1008 1.425 . S
C1013 C1010 1.409 . S
C1013 C1011 1.415 . S
C1014 H1004 0.930 . S
C1014 C1012 1.419 . S
C1014 C1015 1.362 . S
C1015 H1005 0.930 . S
C1015 C1008 1.409 . S
C1015 C1014 1.362 . S
H1016 C1022 0.930 . S
H1017 C1025 0.930 . S
H1018 C1026 0.930 . S
H1019 C1027 0.930 . S
H1020 C1030 0.930 . S
H1021 C1031 0.930 . S
C1022 H1016 0.930 . S
C1022 C1023 1.355 . S
C1022 C1024 1.415 . S
C1023 C1022 1.355 . S
C1023 C1025 1.419 . S
C1024 C1022 1.415 . S
C1024 C1029 1.425 . S
C1024 C1031 1.409 . S
C1025 H1017 0.930 . S
C1025 C1023 1.419 . S
C1025 C1026 1.362 . S
C1026 H1018 0.930 . S
C1026 C1025 1.362 . S
C1026 C1029 1.409 . S
C1027 H1019 0.930 . S
C1027 C1028 1.355 . S
C1027 C1029 1.415 . S
C1028 C1027 1.355 . S
C1028 C1030 1.419 . S
C1029 C1024 1.425 . S
C1029 C1026 1.409 . S
C1029 C1027 1.415 . S
C1030 H1020 0.930 . S
C1030 C1028 1.419 . S
C1030 C1031 1.362 . S
C1031 H1021 0.930 . S
C1031 C1024 1.409 . S
C1031 C1030 1.362 . S
H1032 C1038 0.930 . S
H1033 C1041 0.930 . S
H1034 C1042 0.930 1_554 S
H1035 C1043 0.930 1_554 S
H1036 C1046 0.930 . S
H1037 C1047 0.930 . S
C1038 H1032 0.930 . S
C1038 C1039 1.355 . S
C1038 C1040 1.415 . S
C1039 C1038 1.355 . S
C1039 C1041 1.419 . S
C1040 C1038 1.415 . S
C1040 C1045 1.425 . S
C1040 C1047 1.409 . S
C1041 H1033 0.930 . S
C1041 C1039 1.419 . S
C1041 C1042 1.362 . S
C1042 H1034 0.930 1_556 S
C1042 C1041 1.362 . S
C1042 C1045 1.409 . S
C1043 H1035 0.930 1_556 S
C1043 C1044 1.355 . S
C1043 C1045 1.415 . S
C1044 C1043 1.355 . S
C1044 C1046 1.419 . S
C1045 C1040 1.425 . S
C1045 C1042 1.409 . S
C1045 C1043 1.415 . S
C1046 H1036 0.930 . S
C1046 C1044 1.419 . S
C1046 C1047 1.362 . S
C1047 H1037 0.930 . S
C1047 C1040 1.409 . S
C1047 C1046 1.362 . S
H1048 C1054 0.930 . S
H1049 C1057 0.930 . S
H1050 C1058 0.930 . S
H1051 C1059 0.930 . S
H1052 C1062 0.930 . S
H1053 C1063 0.930 . S
C1054 H1048 0.930 . S
C1054 C1055 1.355 . S
C1054 C1056 1.415 . S
C1055 C1054 1.355 . S
C1055 C1057 1.419 . S
C1056 C1054 1.415 . S
C1056 C1061 1.425 . S
C1056 C1063 1.409 . S
C1057 H1049 0.930 . S
C1057 C1055 1.419 . S
C1057 C1058 1.362 . S
C1058 H1050 0.930 . S
C1058 C1057 1.362 . S
C1058 C1061 1.409 . S
C1059 H1051 0.930 . S
C1059 C1060 1.355 . S
C1059 C1061 1.415 . S
C1060 C1059 1.355 . S
C1060 C1062 1.419 . S
C1061 C1056 1.425 . S
C1061 C1058 1.409 . S
C1061 C1059 1.415 . S
C1062 H1052 0.930 . S
C1062 C1060 1.419 . S
C1062 C1063 1.362 . S
C1063 H1053 0.930 . S
C1063 C1056 1.409 . S
C1063 C1062 1.362 . S
H1064 C1070 0.930 . S
H1065 C1073 0.930 . S
H1066 C1074 0.930 . S
H1067 C1075 0.930 . S
H1068 C1078 0.930 . S
H1069 C1079 0.930 . S
C1070 H1064 0.930 . S
C1070 C1071 1.355 . S
C1070 C1072 1.415 . S
C1071 C1070 1.355 . S
C1071 C1073 1.419 . S
C1072 C1070 1.415 . S
C1072 C1077 1.425 . S
C1072 C1079 1.409 1_556 S
C1073 H1065 0.930 . S
C1073 C1071 1.419 . S
C1073 C1074 1.362 . S
C1074 H1066 0.930 . S
C1074 C1073 1.362 . S
C1074 C1077 1.409 . S
C1075 H1067 0.930 . S
C1075 C1076 1.355 . S
C1075 C1077 1.415 . S
C1076 C1075 1.355 . S
C1076 C1078 1.419 1_556 S
C1077 C1072 1.425 . S
C1077 C1074 1.409 . S
C1077 C1075 1.415 . S
C1078 H1068 0.930 . S
C1078 C1076 1.419 1_554 S
C1078 C1079 1.362 . S
C1079 H1069 0.930 . S
C1079 C1072 1.409 1_554 S
C1079 C1078 1.362 . S
H1080 C1086 0.930 . S
H1081 C1089 0.930 . S
H1082 C1090 0.930 . S
H1083 C1091 0.930 . S
H1084 C1094 0.930 . S
H1085 C1095 0.930 . S
C1086 H1080 0.930 . S
C1086 C1087 1.355 . S
C1086 C1088 1.415 . S
C1087 C1086 1.355 . S
C1087 C1089 1.419 . S
C1088 C1086 1.415 . S
C1088 C1093 1.425 . S
C1088 C1095 1.409 . S
C1089 H1081 0.930 . S
C1089 C1087 1.419 . S
C1089 C1090 1.362 . S
C1090 H1082 0.930 . S
C1090 C1089 1.362 . S
C1090 C1093 1.409 . S
C1091 H1083 0.930 . S
C1091 C1092 1.355 . S
C1091 C1093 1.415 . S
C1092 C1091 1.355 . S
C1092 C1094 1.419 . S
C1093 C1088 1.425 . S
C1093 C1090 1.409 . S
C1093 C1091 1.415 . S
C1094 H1084 0.930 . S
C1094 C1092 1.419 . S
C1094 C1095 1.362 . S
C1095 H1085 0.930 . S
C1095 C1088 1.409 . S
C1095 C1094 1.362 . S
H1096 C1102 0.930 . S
H1097 C1105 0.930 . S
H1098 C1106 0.930 . S
H1099 C1107 0.930 . S
H1100 C1110 0.930 . S
H1101 C1111 0.930 . S
C1102 H1096 0.930 . S
C1102 C1103 1.355 . S
C1102 C1104 1.415 . S
C1103 C1102 1.355 . S
C1103 C1105 1.419 . S
C1104 C1102 1.415 . S
C1104 C1109 1.425 . S
C1104 C1111 1.409 . S
C1105 H1097 0.930 . S
C1105 C1103 1.419 . S
C1105 C1106 1.362 . S
C1106 H1098 0.930 . S
C1106 C1105 1.362 . S
C1106 C1109 1.409 . S
C1107 H1099 0.930 . S
C1107 C1108 1.355 . S
C1107 C1109 1.415 . S
C1108 C1107 1.355 . S
C1108 C1110 1.419 . S
C1109 C1104 1.425 . S
C1109 C1106 1.409 . S
C1109 C1107 1.415 . S
C1110 H1100 0.930 . S
C1110 C1108 1.419 . S
C1110 C1111 1.362 . S
C1111 H1101 0.930 . S
C1111 C1104 1.409 . S
C1111 C1110 1.362 . S
H1112 C1118 0.930 . S
H1113 C1121 0.930 . S
H1114 C1122 0.930 . S
H1115 C1123 0.930 . S
H1116 C1126 0.930 . S
H1117 C1127 0.930 . S
C1118 H1112 0.930 . S
C1118 C1119 1.355 . S
C1118 C1120 1.415 . S
C1119 C1118 1.355 . S
C1119 C1121 1.419 . S
C1120 C1118 1.415 . S
C1120 C1125 1.425 . S
C1120 C1127 1.409 . S
C1121 H1113 0.930 . S
C1121 C1119 1.419 . S
C1121 C1122 1.362 . S
C1122 H1114 0.930 . S
C1122 C1121 1.362 . S
C1122 C1125 1.409 . S
C1123 H1115 0.930 . S
C1123 C1124 1.355 . S
C1123 C1125 1.415 . S
C1124 C1123 1.355 . S
C1124 C1126 1.419 . S
C1125 C1120 1.425 . S
C1125 C1122 1.409 . S
C1125 C1123 1.415 . S
C1126 H1116 0.930 . S
C1126 C1124 1.419 . S
C1126 C1127 1.362 . S
C1127 H1117 0.930 . S
C1127 C1120 1.409 . S
C1127 C1126 1.362 . S
H1128 C1134 0.930 . S
H1129 C1137 0.930 . S
H1130 C1138 0.930 . S
H1131 C1139 0.930 . S
H1132 C1142 0.930 . S
H1133 C1143 0.930 . S
C1134 H1128 0.930 . S
C1134 C1135 1.355 . S
C1134 C1136 1.415 1_655 S
C1135 C1134 1.355 . S
C1135 C1137 1.419 . S
C1136 C1134 1.415 1_455 S
C1136 C1141 1.425 . S
C1136 C1143 1.409 . S
C1137 H1129 0.930 . S
C1137 C1135 1.419 . S
C1137 C1138 1.362 1_655 S
C1138 H1130 0.930 . S
C1138 C1137 1.362 1_455 S
C1138 C1141 1.409 . S
C1139 H1131 0.930 . S
C1139 C1140 1.355 . S
C1139 C1141 1.415 . S
C1140 C1139 1.355 . S
C1140 C1142 1.419 . S
C1141 C1136 1.425 . S
C1141 C1138 1.409 . S
C1141 C1139 1.415 . S
C1142 H1132 0.930 . S
C1142 C1140 1.419 . S
C1142 C1143 1.362 . S
C1143 H1133 0.930 . S
C1143 C1136 1.409 . S
C1143 C1142 1.362 . S
H1144 C1150 0.930 . S
H1145 C1153 0.930 . S
H1146 C1154 0.930 . S
H1147 C1155 0.930 . S
H1148 C1158 0.930 . S
H1149 C1159 0.930 . S
C1150 H1144 0.930 . S
C1150 C1151 1.355 . S
C1150 C1152 1.415 . S
C1151 C1150 1.355 . S
C1151 C1153 1.419 . S
C1152 C1150 1.415 . S
C1152 C1157 1.425 . S
C1152 C1159 1.409 . S
C1153 H1145 0.930 . S
C1153 C1151 1.419 . S
C1153 C1154 1.362 . S
C1154 H1146 0.930 . S
C1154 C1153 1.362 . S
C1154 C1157 1.409 . S
C1155 H1147 0.930 . S
C1155 C1156 1.355 . S
C1155 C1157 1.415 . S
C1156 C1155 1.355 . S
C1156 C1158 1.419 . S
C1157 C1152 1.425 . S
C1157 C1154 1.409 . S
C1157 C1155 1.415 . S
C1158 H1148 0.930 . S
C1158 C1156 1.419 . S
C1158 C1159 1.362 . S
C1159 H1149 0.930 . S
C1159 C1152 1.409 . S
C1159 C1158 1.362 . S
H1160 C1166 0.930 . S
H1161 C1169 0.930 . S
H1162 C1170 0.930 . S
H1163 C1171 0.930 . S
H1164 C1174 0.930 . S
H1165 C1175 0.930 . S
C1166 H1160 0.930 . S
C1166 C1167 1.355 . S
C1166 C1168 1.415 1_545 S
C1167 C1166 1.355 . S
C1167 C1169 1.419 . S
C1168 C1166 1.415 1_565 S
C1168 C1173 1.425 . S
C1168 C1175 1.409 . S
C1169 H1161 0.930 . S
C1169 C1167 1.419 . S
C1169 C1170 1.362 1_545 S
C1170 H1162 0.930 . S
C1170 C1169 1.362 1_565 S
C1170 C1173 1.409 . S
C1171 H1163 0.930 . S
C1171 C1172 1.355 . S
C1171 C1173 1.415 . S
C1172 C1171 1.355 . S
C1172 C1174 1.419 . S
C1173 C1168 1.425 . S
C1173 C1170 1.409 . S
C1173 C1171 1.415 . S
C1174 H1164 0.930 . S
C1174 C1172 1.419 . S
C1174 C1175 1.362 . S
C1175 H1165 0.930 . S
C1175 C1168 1.409 . S
C1175 C1174 1.362 . S
H1176 C1182 0.930 . S
H1177 C1185 0.930 . S
H1178 C1186 0.930 . S
H1179 C1187 0.930 . S
H1180 C1190 0.930 . S
H1181 C1191 0.930 . S
C1182 H1176 0.930 . S
C1182 C1183 1.355 . S
C1182 C1184 1.415 . S
C1183 C1182 1.355 . S
C1183 C1185 1.419 . S
C1184 C1182 1.415 . S
C1184 C1189 1.425 . S
C1184 C1191 1.409 . S
C1185 H1177 0.930 . S
C1185 C1183 1.419 . S
C1185 C1186 1.362 . S
C1186 H1178 0.930 . S
C1186 C1185 1.362 . S
C1186 C1189 1.409 . S
C1187 H1179 0.930 . S
C1187 C1188 1.355 . S
C1187 C1189 1.415 . S
C1188 C1187 1.355 . S
C1188 C1190 1.419 . S
C1189 C1184 1.425 . S
C1189 C1186 1.409 . S
C1189 C1187 1.415 . S
C1190 H1180 0.930 . S
C1190 C1188 1.419 . S
C1190 C1191 1.362 . S
C1191 H1181 0.930 . S
C1191 C1184 1.409 . S
C1191 C1190 1.362 . S
H1192 C1198 0.930 . S
H1193 C1201 0.930 . S
H1194 C1202 0.930 . S
H1195 C1203 0.930 . S
H1196 C1206 0.930 . S
H1197 C1207 0.930 . S
C1198 H1192 0.930 . S
C1198 C1199 1.355 . S
C1198 C1200 1.415 . S
C1199 C1198 1.355 . S
C1199 C1201 1.419 . S
C1200 C1198 1.415 . S
C1200 C1205 1.425 . S
C1200 C1207 1.409 . S
C1201 H1193 0.930 . S
C1201 C1199 1.419 . S
C1201 C1202 1.362 . S
C1202 H1194 0.930 . S
C1202 C1201 1.362 . S
C1202 C1205 1.409 . S
C1203 H1195 0.930 . S
C1203 C1204 1.355 . S
C1203 C1205 1.415 . S
C1204 C1203 1.355 . S
C1204 C1206 1.419 . S
C1205 C1200 1.425 . S
C1205 C1202 1.409 . S
C1205 C1203 1.415 . S
C1206 H1196 0.930 . S
C1206 C1204 1.419 . S
C1206 C1207 1.362 . S
C1207 H1197 0.930 . S
C1207 C1200 1.409 . S
C1207 C1206 1.362 . S
H1208 C1214 0.930 . S
H1209 C1217 0.930 . S
H1210 C1218 0.930 . S
H1211 C1219 0.930 . S
H1212 C1222 0.930 . S
H1213 C1223 0.930 . S
C1214 H1208 0.930 . S
C1214 C1215 1.355 . S
C1214 C1216 1.415 . S
C1215 C1214 1.355 . S
C1215 C1217 1.419 . S
C1216 C1214 1.415 . S
C1216 C1221 1.425 . S
C1216 C1223 1.409 . S
C1217 H1209 0.930 . S
C1217 C1215 1.419 . S
C1217 C1218 1.362 . S
C1218 H1210 0.930 . S
C1218 C1217 1.362 . S
C1218 C1221 1.409 . S
C1219 H1211 0.930 . S
C1219 C1220 1.355 . S
C1219 C1221 1.415 . S
C1220 C1219 1.355 . S
C1220 C1222 1.419 . S
C1221 C1216 1.425 . S
C1221 C1218 1.409 . S
C1221 C1219 1.415 . S
C1222 H1212 0.930 . S
C1222 C1220 1.419 . S
C1222 C1223 1.362 . S
C1223 H1213 0.930 . S
C1223 C1216 1.409 . S
C1223 C1222 1.362 . S
H1224 C1230 0.930 . S
H1225 C1233 0.930 . S
H1226 C1234 0.930 . S
H1227 C1235 0.930 . S
H1228 C1238 0.930 . S
H1229 C1239 0.930 . S
C1230 H1224 0.930 . S
C1230 C1231 1.355 . S
C1230 C1232 1.415 . S
C1231 C1230 1.355 . S
C1231 C1233 1.419 . S
C1232 C1230 1.415 . S
C1232 C1237 1.425 . S
C1232 C1239 1.409 . S
C1233 H1225 0.930 . S
C1233 C1231 1.419 . S
C1233 C1234 1.362 . S
C1234 H1226 0.930 . S
C1234 C1233 1.362 . S
C1234 C1237 1.409 . S
C1235 H1227 0.930 . S
C1235 C1236 1.355 . S
C1235 C1237 1.415 . S
C1236 C1235 1.355 . S
C1236 C1238 1.419 . S
C1237 C1232 1.425 . S
C1237 C1234 1.409 . S
C1237 C1235 1.415 . S
C1238 H1228 0.930 . S
C1238 C1236 1.419 . S
C1238 C1239 1.362 . S
C1239 H1229 0.930 . S
C1239 C1232 1.409 . S
C1239 C1238 1.362 . S
H1240 C1246 0.930 . S
H1241 C1249 0.930 . S
H1242 C1250 0.930 . S
H1243 C1251 0.930 . S
H1244 C1254 0.930 . S
H1245 C1255 0.930 . S
C1246 H1240 0.930 . S
C1246 C1247 1.355 . S
C1246 C1248 1.415 . S
C1247 C1246 1.355 . S
C1247 C1249 1.419 . S
C1248 C1246 1.415 . S
C1248 C1253 1.425 . S
C1248 C1255 1.409 . S
C1249 H1241 0.930 . S
C1249 C1247 1.419 . S
C1249 C1250 1.362 . S
C1250 H1242 0.930 . S
C1250 C1249 1.362 . S
C1250 C1253 1.409 . S
C1251 H1243 0.930 . S
C1251 C1252 1.355 . S
C1251 C1253 1.415 . S
C1252 C1251 1.355 . S
C1252 C1254 1.419 . S
C1253 C1248 1.425 . S
C1253 C1250 1.409 . S
C1253 C1251 1.415 . S
C1254 H1244 0.930 . S
C1254 C1252 1.419 . S
C1254 C1255 1.362 . S
C1255 H1245 0.930 . S
C1255 C1248 1.409 . S
C1255 C1254 1.362 . S
H1256 C1262 0.930 . S
H1257 C1265 0.930 . S
H1258 C1266 0.930 . S
H1259 C1267 0.930 . S
H1260 C1270 0.930 . S
H1261 C1271 0.930 . S
C1262 H1256 0.930 . S
C1262 C1263 1.355 . S
C1262 C1264 1.415 . S
C1263 C1262 1.355 . S
C1263 C1265 1.419 . S
C1264 C1262 1.415 . S
C1264 C1269 1.425 . S
C1264 C1271 1.409 . S
C1265 H1257 0.930 . S
C1265 C1263 1.419 . S
C1265 C1266 1.362 . S
C1266 H1258 0.930 . S
C1266 C1265 1.362 . S
C1266 C1269 1.409 . S
C1267 H1259 0.930 . S
C1267 C1268 1.355 . S
C1267 C1269 1.415 . S
C1268 C1267 1.355 . S
C1268 C1270 1.419 . S
C1269 C1264 1.425 . S
C1269 C1266 1.409 . S
C1269 C1267 1.415 . S
C1270 H1260 0.930 . S
C1270 C1268 1.419 . S
C1270 C1271 1.362 . S
C1271 H1261 0.930 . S
C1271 C1264 1.409 . S
C1271 C1270 1.362 . S
H1272 C1278 0.930 . S
H1273 C1281 0.930 . S
H1274 C1282 0.930 . S
H1275 C1283 0.930 . S
H1276 C1286 0.930 . S
H1277 C1287 0.930 . S
C1278 H1272 0.930 . S
C1278 C1279 1.355 . S
C1278 C1280 1.415 1_545 S
C1279 C1278 1.355 . S
C1279 C1281 1.419 . S
C1280 C1278 1.415 1_565 S
C1280 C1285 1.425 . S
C1280 C1287 1.409 . S
C1281 H1273 0.930 . S
C1281 C1279 1.419 . S
C1281 C1282 1.362 1_545 S
C1282 H1274 0.930 . S
C1282 C1281 1.362 1_565 S
C1282 C1285 1.409 . S
C1283 H1275 0.930 . S
C1283 C1284 1.355 . S
C1283 C1285 1.415 . S
C1284 C1283 1.355 . S
C1284 C1286 1.419 . S
C1285 C1280 1.425 . S
C1285 C1282 1.409 . S
C1285 C1283 1.415 . S
C1286 H1276 0.930 . S
C1286 C1284 1.419 . S
C1286 C1287 1.362 . S
C1287 H1277 0.930 . S
C1287 C1280 1.409 . S
C1287 C1286 1.362 . S
H1288 C1294 0.930 . S
H1289 C1297 0.930 . S
H1290 C1298 0.930 . S
H1291 C1299 0.930 . S
H1292 C1302 0.930 . S
H1293 C1303 0.930 . S
C1294 H1288 0.930 . S
C1294 C1295 1.355 1_455 S
C1294 C1296 1.415 . S
C1295 C1294 1.355 1_655 S
C1295 C1297 1.419 . S
C1296 C1294 1.415 . S
C1296 C1301 1.425 . S
C1296 C1303 1.409 . S
C1297 H1289 0.930 . S
C1297 C1295 1.419 . S
C1297 C1298 1.362 1_655 S
C1298 H1290 0.930 . S
C1298 C1297 1.362 1_455 S
C1298 C1301 1.409 . S
C1299 H1291 0.930 . S
C1299 C1300 1.355 . S
C1299 C1301 1.415 . S
C1300 C1299 1.355 . S
C1300 C1302 1.419 . S
C1301 C1296 1.425 . S
C1301 C1298 1.409 . S
C1301 C1299 1.415 . S
C1302 H1292 0.930 . S
C1302 C1300 1.419 . S
C1302 C1303 1.362 . S
C1303 H1293 0.930 . S
C1303 C1296 1.409 . S
C1303 C1302 1.362 . S
H1304 C1310 0.930 . S
H1305 C1313 0.930 . S
H1306 C1314 0.930 . S
H1307 C1315 0.930 . S
H1308 C1318 0.930 . S
H1309 C1319 0.930 . S
C1310 H1304 0.930 . S
C1310 C1311 1.355 . S
C1310 C1312 1.415 . S
C1311 C1310 1.355 . S
C1311 C1313 1.419 . S
C1312 C1310 1.415 . S
C1312 C1317 1.425 . S
C1312 C1319 1.409 . S
C1313 H1305 0.930 . S
C1313 C1311 1.419 . S
C1313 C1314 1.362 . S
C1314 H1306 0.930 . S
C1314 C1313 1.362 . S
C1314 C1317 1.409 . S
C1315 H1307 0.930 . S
C1315 C1316 1.355 . S
C1315 C1317 1.415 . S
C1316 C1315 1.355 . S
C1316 C1318 1.419 . S
C1317 C1312 1.425 . S
C1317 C1314 1.409 . S
C1317 C1315 1.415 . S
C1318 H1308 0.930 . S
C1318 C1316 1.419 . S
C1318 C1319 1.362 . S
C1319 H1309 0.930 . S
C1319 C1312 1.409 . S
C1319 C1318 1.362 . S
H1320 C1326 0.930 . S
H1321 C1329 0.930 . S
H1322 C1330 0.930 . S
H1323 C1331 0.930 . S
H1324 C1334 0.930 . S
H1325 C1335 0.930 . S
C1326 H1320 0.930 . S
C1326 C1327 1.355 . S
C1326 C1328 1.415 . S
C1327 C1326 1.355 . S
C1327 C1329 1.419 . S
C1328 C1326 1.415 . S
C1328 C1333 1.425 . S
C1328 C1335 1.409 . S
C1329 H1321 0.930 . S
C1329 C1327 1.419 . S
C1329 C1330 1.362 . S
C1330 H1322 0.930 . S
C1330 C1329 1.362 . S
C1330 C1333 1.409 . S
C1331 H1323 0.930 . S
C1331 C1332 1.355 . S
C1331 C1333 1.415 . S
C1332 C1331 1.355 . S
C1332 C1334 1.419 . S
C1333 C1328 1.425 . S
C1333 C1330 1.409 . S
C1333 C1331 1.415 . S
C1334 H1324 0.930 . S
C1334 C1332 1.419 . S
C1334 C1335 1.362 . S
C1335 H1325 0.930 . S
C1335 C1328 1.409 . S
C1335 C1334 1.362 . S
H1336 C1342 0.930 . S
H1337 C1345 0.930 . S
H1338 C1346 0.930 . S
H1339 C1347 0.930 . S
H1340 C1350 0.930 . S
H1341 C1351 0.930 . S
C1342 H1336 0.930 . S
C1342 C1343 1.355 . S
C1342 C1344 1.415 . S
C1343 C1342 1.355 . S
C1343 C1345 1.419 . S
C1344 C1342 1.415 . S
C1344 C1349 1.425 . S
C1344 C1351 1.409 . S
C1345 H1337 0.930 . S
C1345 C1343 1.419 . S
C1345 C1346 1.362 . S
C1346 H1338 0.930 . S
C1346 C1345 1.362 . S
C1346 C1349 1.409 . S
C1347 H1339 0.930 . S
C1347 C1348 1.355 . S
C1347 C1349 1.415 . S
C1348 C1347 1.355 . S
C1348 C1350 1.419 . S
C1349 C1344 1.425 . S
C1349 C1346 1.409 . S
C1349 C1347 1.415 . S
C1350 H1340 0.930 . S
C1350 C1348 1.419 . S
C1350 C1351 1.362 . S
C1351 H1341 0.930 . S
C1351 C1344 1.409 . S
C1351 C1350 1.362 . S
H1352 C1358 0.930 . S
H1353 C1361 0.930 . S
H1354 C1362 0.930 . S
H1355 C1363 0.930 . S
H1356 C1366 0.930 . S
H1357 C1367 0.930 . S
C1358 H1352 0.930 . S
C1358 C1359 1.355 . S
C1358 C1360 1.415 . S
C1359 C1358 1.355 . S
C1359 C1361 1.419 . S
C1360 C1358 1.415 . S
C1360 C1365 1.425 . S
C1360 C1367 1.409 . S
C1361 H1353 0.930 . S
C1361 C1359 1.419 . S
C1361 C1362 1.362 . S
C1362 H1354 0.930 . S
C1362 C1361 1.362 . S
C1362 C1365 1.409 . S
C1363 H1355 0.930 . S
C1363 C1364 1.355 . S
C1363 C1365 1.415 . S
C1364 C1363 1.355 . S
C1364 C1366 1.419 . S
C1365 C1360 1.425 . S
C1365 C1362 1.409 . S
C1365 C1363 1.415 . S
C1366 H1356 0.930 . S
C1366 C1364 1.419 . S
C1366 C1367 1.362 . S
C1367 H1357 0.930 . S
C1367 C1360 1.409 . S
C1367 C1366 1.362 . S
H1368 C1374 0.930 . S
H1369 C1377 0.930 . S
H1370 C1378 0.930 . S
H1371 C1379 0.930 . S
H1372 C1382 0.930 . S
H1373 C1383 0.930 . S
C1374 H1368 0.930 . S
C1374 C1375 1.355 . S
C1374 C1376 1.415 1_565 S
C1375 C1374 1.355 . S
C1375 C1377 1.419 . S
C1376 C1374 1.415 1_545 S
C1376 C1381 1.425 . S
C1376 C1383 1.409 . S
C1377 H1369 0.930 . S
C1377 C1375 1.419 . S
C1377 C1378 1.362 1_565 S
C1378 H1370 0.930 . S
C1378 C1377 1.362 1_545 S
C1378 C1381 1.409 . S
C1379 H1371 0.930 . S
C1379 C1380 1.355 . S
C1379 C1381 1.415 . S
C1380 C1379 1.355 . S
C1380 C1382 1.419 . S
C1381 C1376 1.425 . S
C1381 C1378 1.409 . S
C1381 C1379 1.415 . S
C1382 H1372 0.930 . S
C1382 C1380 1.419 . S
C1382 C1383 1.362 . S
C1383 H1373 0.930 . S
C1383 C1376 1.409 . S
C1383 C1382 1.362 . S
H1384 C1390 0.930 . S
H1385 C1393 0.930 . S
H1386 C1394 0.930 . S
H1387 C1395 0.930 . S
H1388 C1398 0.930 . S
H1389 C1399 0.930 . S
C1390 H1384 0.930 . S
C1390 C1391 1.355 1_655 S
C1390 C1392 1.415 . S
C1391 C1390 1.355 1_455 S
C1391 C1393 1.419 . S
C1392 C1390 1.415 . S
C1392 C1397 1.425 . S
C1392 C1399 1.409 . S
C1393 H1385 0.930 . S
C1393 C1391 1.419 . S
C1393 C1394 1.362 1_455 S
C1394 H1386 0.930 . S
C1394 C1393 1.362 1_655 S
C1394 C1397 1.409 . S
C1395 H1387 0.930 . S
C1395 C1396 1.355 . S
C1395 C1397 1.415 . S
C1396 C1395 1.355 . S
C1396 C1398 1.419 . S
C1397 C1392 1.425 . S
C1397 C1394 1.409 . S
C1397 C1395 1.415 . S
C1398 H1388 0.930 . S
C1398 C1396 1.419 . S
C1398 C1399 1.362 . S
C1399 H1389 0.930 . S
C1399 C1392 1.409 . S
C1399 C1398 1.362 . S
H1400 C1406 0.930 . S
H1401 C1409 0.930 . S
H1402 C1410 0.930 . S
H1403 C1411 0.930 . S
H1404 C1414 0.930 . S
H1405 C1415 0.930 . S
C1406 H1400 0.930 . S
C1406 C1407 1.355 . S
C1406 C1408 1.415 . S
C1407 C1406 1.355 . S
C1407 C1409 1.419 . S
C1408 C1406 1.415 . S
C1408 C1413 1.425 . S
C1408 C1415 1.409 . S
C1409 H1401 0.930 . S
C1409 C1407 1.419 . S
C1409 C1410 1.362 . S
C1410 H1402 0.930 . S
C1410 C1409 1.362 . S
C1410 C1413 1.409 . S
C1411 H1403 0.930 . S
C1411 C1412 1.355 . S
C1411 C1413 1.415 . S
C1412 C1411 1.355 . S
C1412 C1414 1.419 . S
C1413 C1408 1.425 . S
C1413 C1410 1.409 . S
C1413 C1411 1.415 . S
C1414 H1404 0.930 . S
C1414 C1412 1.419 . S
C1414 C1415 1.362 . S
C1415 H1405 0.930 . S
C1415 C1408 1.409 . S
C1415 C1414 1.362 . S
H1416 C1422 0.930 . S
H1417 C1425 0.930 . S
H1418 C1426 0.931 1_455 S
H1419 C1427 0.930 . S
H1420 C1430 0.930 . S
H1421 C1431 0.930 . S
C1422 H1416 0.930 . S
C1422 C1423 1.355 1_655 S
C1422 C1424 1.415 . S
C1423 C1422 1.355 1_455 S
C1423 C1425 1.419 . S
C1424 C1422 1.415 . S
C1424 C1429 1.425 . S
C1424 C1431 1.409 . S
C1425 H1417 0.930 . S
C1425 C1423 1.419 . S
C1425 C1426 1.359 1_455 S
C1426 H1418 0.931 1_655 S
C1426 C1425 1.359 1_655 S
C1426 C1429 1.412 . S
C1427 H1419 0.930 . S
C1427 C1428 1.355 . S
C1427 C1429 1.415 . S
C1428 C1427 1.355 . S
C1428 C1430 1.419 . S
C1429 C1424 1.425 . S
C1429 C1426 1.412 . S
C1429 C1427 1.415 . S
C1430 H1420 0.930 . S
C1430 C1428 1.419 . S
C1430 C1431 1.362 . S
C1431 H1421 0.930 . S
C1431 C1424 1.409 . S
C1431 C1430 1.362 . S
H1432 C1438 0.930 . S
H1433 C1441 0.930 . S
H1434 C1442 0.930 . S
H1435 C1443 0.930 . S
H1436 C1446 0.930 . S
H1437 C1447 0.930 . S
C1438 H1432 0.930 . S
C1438 C1439 1.355 . S
C1438 C1440 1.415 . S
C1439 C1438 1.355 . S
C1439 C1441 1.419 . S
C1440 C1438 1.415 . S
C1440 C1445 1.425 . S
C1440 C1447 1.409 . S
C1441 H1433 0.930 . S
C1441 C1439 1.419 . S
C1441 C1442 1.362 . S
C1442 H1434 0.930 . S
C1442 C1441 1.362 . S
C1442 C1445 1.409 . S
C1443 H1435 0.930 . S
C1443 C1444 1.355 . S
C1443 C1445 1.415 . S
C1444 C1443 1.355 . S
C1444 C1446 1.419 . S
C1445 C1440 1.425 . S
C1445 C1442 1.409 . S
C1445 C1443 1.415 . S
C1446 H1436 0.930 . S
C1446 C1444 1.419 . S
C1446 C1447 1.362 . S
C1447 H1437 0.930 . S
C1447 C1440 1.409 . S
C1447 C1446 1.362 . S
H1448 C1454 0.930 . S
H1449 C1457 0.930 . S
H1450 C1458 0.930 . S
H1451 C1459 0.930 . S
H1452 C1462 0.930 . S
H1453 C1463 0.930 . S
C1454 H1448 0.930 . S
C1454 C1455 1.355 . S
C1454 C1456 1.415 1_565 S
C1455 C1454 1.355 . S
C1455 C1457 1.419 . S
C1456 C1454 1.415 1_545 S
C1456 C1461 1.425 . S
C1456 C1463 1.409 . S
C1457 H1449 0.930 . S
C1457 C1455 1.419 . S
C1457 C1458 1.362 1_565 S
C1458 H1450 0.930 . S
C1458 C1457 1.362 1_545 S
C1458 C1461 1.409 . S
C1459 H1451 0.930 . S
C1459 C1460 1.355 . S
C1459 C1461 1.415 . S
C1460 C1459 1.355 . S
C1460 C1462 1.419 . S
C1461 C1456 1.425 . S
C1461 C1458 1.409 . S
C1461 C1459 1.415 . S
C1462 H1452 0.930 . S
C1462 C1460 1.419 . S
C1462 C1463 1.362 . S
C1463 H1453 0.930 . S
C1463 C1456 1.409 . S
C1463 C1462 1.362 . S
H1464 C1470 0.930 . S
H1465 C1473 0.930 . S
H1466 C1474 0.930 . S
H1467 C1475 0.930 . S
H1468 C1478 0.930 . S
H1469 C1479 0.930 . S
C1470 H1464 0.930 . S
C1470 C1471 1.355 . S
C1470 C1472 1.415 . S
C1471 C1470 1.355 . S
C1471 C1473 1.419 . S
C1472 C1470 1.415 . S
C1472 C1477 1.425 . S
C1472 C1479 1.409 . S
C1473 H1465 0.930 . S
C1473 C1471 1.419 . S
C1473 C1474 1.362 . S
C1474 H1466 0.930 . S
C1474 C1473 1.362 . S
C1474 C1477 1.409 . S
C1475 H1467 0.930 . S
C1475 C1476 1.355 . S
C1475 C1477 1.415 . S
C1476 C1475 1.355 . S
C1476 C1478 1.419 . S
C1477 C1472 1.425 . S
C1477 C1474 1.409 . S
C1477 C1475 1.415 . S
C1478 H1468 0.930 . S
C1478 C1476 1.419 . S
C1478 C1479 1.362 . S
C1479 H1469 0.930 . S
C1479 C1472 1.409 . S
C1479 C1478 1.362 . S
H1480 C1486 0.930 . S
H1481 C1489 0.930 . S
H1482 C1490 0.930 . S
H1483 C1491 0.930 . S
H1484 C1494 0.930 . S
H1485 C1495 0.930 . S
C1486 H1480 0.930 . S
C1486 C1487 1.355 . S
C1486 C1488 1.415 . S
C1487 C1486 1.355 . S
C1487 C1489 1.419 . S
C1488 C1486 1.415 . S
C1488 C1493 1.425 . S
C1488 C1495 1.409 . S
C1489 H1481 0.930 . S
C1489 C1487 1.419 . S
C1489 C1490 1.362 . S
C1490 H1482 0.930 . S
C1490 C1489 1.362 . S
C1490 C1493 1.409 . S
C1491 H1483 0.930 . S
C1491 C1492 1.355 . S
C1491 C1493 1.415 . S
C1492 C1491 1.355 . S
C1492 C1494 1.419 . S
C1493 C1488 1.425 . S
C1493 C1490 1.409 . S
C1493 C1491 1.415 . S
C1494 H1484 0.930 . S
C1494 C1492 1.419 . S
C1494 C1495 1.362 . S
C1495 H1485 0.930 . S
C1495 C1488 1.409 . S
C1495 C1494 1.362 . S
H1496 C1502 0.930 . S
H1497 C1505 0.930 . S
H1498 C1506 0.930 . S
H1499 C1507 0.930 . S
H1500 C1510 0.930 . S
H1501 C1511 0.930 . S
C1502 H1496 0.930 . S
C1502 C1503 1.355 . S
C1502 C1504 1.415 . S
C1503 C1502 1.355 . S
C1503 C1505 1.419 . S
C1504 C1502 1.415 . S
C1504 C1509 1.425 . S
C1504 C1511 1.409 . S
C1505 H1497 0.930 . S
C1505 C1503 1.419 . S
C1505 C1506 1.362 . S
C1506 H1498 0.930 . S
C1506 C1505 1.362 . S
C1506 C1509 1.409 . S
C1507 H1499 0.930 . S
C1507 C1508 1.355 . S
C1507 C1509 1.415 . S
C1508 C1507 1.355 . S
C1508 C1510 1.419 . S
C1509 C1504 1.425 . S
C1509 C1506 1.409 . S
C1509 C1507 1.415 . S
C1510 H1500 0.930 . S
C1510 C1508 1.419 . S
C1510 C1511 1.362 . S
C1511 H1501 0.930 . S
C1511 C1504 1.409 . S
C1511 C1510 1.362 . S
H1512 C1518 0.930 . S
H1513 C1521 0.930 . S
H1514 C1522 0.930 . S
H1515 C1523 0.931 1_545 S
H1516 C1526 0.930 . S
H1517 C1527 0.930 . S
C1518 H1512 0.930 . S
C1518 C1519 1.355 . S
C1518 C1520 1.415 . S
C1519 C1518 1.355 . S
C1519 C1521 1.419 . S
C1520 C1518 1.415 . S
C1520 C1525 1.425 . S
C1520 C1527 1.409 . S
C1521 H1513 0.930 . S
C1521 C1519 1.419 . S
C1521 C1522 1.362 . S
C1522 H1514 0.930 . S
C1522 C1521 1.362 . S
C1522 C1525 1.409 . S
C1523 H1515 0.931 1_565 S
C1523 C1524 1.355 . S
C1523 C1525 1.415 . S
C1524 C1523 1.355 . S
C1524 C1526 1.419 . S
C1525 C1520 1.425 . S
C1525 C1522 1.409 . S
C1525 C1523 1.415 . S
C1526 H1516 0.930 . S
C1526 C1524 1.419 . S
C1526 C1527 1.362 . S
C1527 H1517 0.930 . S
C1527 C1520 1.409 . S
C1527 C1526 1.362 . S
H1528 C1534 0.930 . S
H1529 C1537 0.930 . S
H1530 C1538 0.930 . S
H1531 C1539 0.930 1_655 S
H1532 C1542 0.930 . S
H1533 C1543 0.930 . S
C1534 H1528 0.930 . S
C1534 C1535 1.355 . S
C1534 C1536 1.415 . S
C1535 C1534 1.355 . S
C1535 C1537 1.419 1_455 S
C1536 C1534 1.415 . S
C1536 C1541 1.425 . S
C1536 C1543 1.409 . S
C1537 H1529 0.930 . S
C1537 C1535 1.419 1_655 S
C1537 C1538 1.362 . S
C1538 H1530 0.930 . S
C1538 C1537 1.362 . S
C1538 C1541 1.409 1_655 S
C1539 H1531 0.930 1_455 S
C1539 C1540 1.355 . S
C1539 C1541 1.415 . S
C1540 C1539 1.355 . S
C1540 C1542 1.419 . S
C1541 C1536 1.425 . S
C1541 C1538 1.409 1_455 S
C1541 C1539 1.415 . S
C1542 H1532 0.930 . S
C1542 C1540 1.419 . S
C1542 C1543 1.362 . S
C1543 H1533 0.930 . S
C1543 C1536 1.409 . S
C1543 C1542 1.362 . S
H1544 C1550 0.930 . S
H1545 C1553 0.930 . S
H1546 C1554 0.930 . S
H1547 C1555 0.930 . S
H1548 C1558 0.930 . S
H1549 C1559 0.930 . S
C1550 H1544 0.930 . S
C1550 C1551 1.355 . S
C1550 C1552 1.415 . S
C1551 C1550 1.355 . S
C1551 C1553 1.419 . S
C1552 C1550 1.415 . S
C1552 C1557 1.425 . S
C1552 C1559 1.409 . S
C1553 H1545 0.930 . S
C1553 C1551 1.419 . S
C1553 C1554 1.362 . S
C1554 H1546 0.930 . S
C1554 C1553 1.362 . S
C1554 C1557 1.409 . S
C1555 H1547 0.930 . S
C1555 C1556 1.355 . S
C1555 C1557 1.415 . S
C1556 C1555 1.355 . S
C1556 C1558 1.419 . S
C1557 C1552 1.425 . S
C1557 C1554 1.409 . S
C1557 C1555 1.415 . S
C1558 H1548 0.930 . S
C1558 C1556 1.419 . S
C1558 C1559 1.362 . S
C1559 H1549 0.930 . S
C1559 C1552 1.409 . S
C1559 C1558 1.362 . S
H1560 C1566 0.930 . S
H1561 C1569 0.930 . S
H1562 C1570 0.930 . S
H1563 C1571 0.930 . S
H1564 C1574 0.930 . S
H1565 C1575 0.930 . S
C1566 H1560 0.930 . S
C1566 C1567 1.355 . S
C1566 C1568 1.415 . S
C1567 C1566 1.355 . S
C1567 C1569 1.419 . S
C1568 C1566 1.415 . S
C1568 C1573 1.425 . S
C1568 C1575 1.409 . S
C1569 H1561 0.930 . S
C1569 C1567 1.419 . S
C1569 C1570 1.362 . S
C1570 H1562 0.930 . S
C1570 C1569 1.362 . S
C1570 C1573 1.409 . S
C1571 H1563 0.930 . S
C1571 C1572 1.355 . S
C1571 C1573 1.415 . S
C1572 C1571 1.355 . S
C1572 C1574 1.419 . S
C1573 C1568 1.425 . S
C1573 C1570 1.409 . S
C1573 C1571 1.415 . S
C1574 H1564 0.930 . S
C1574 C1572 1.419 . S
C1574 C1575 1.362 . S
C1575 H1565 0.930 . S
C1575 C1568 1.409 . S
C1575 C1574 1.362 . S
H1576 C1582 0.930 . S
H1577 C1585 0.930 . S
H1578 C1586 0.930 . S
H1579 C1587 0.930 . S
H1580 C1590 0.930 . S
H1581 C1591 0.930 . S
C1582 H1576 0.930 . S
C1582 C1583 1.355 . S
C1582 C1584 1.415 . S
C1583 C1582 1.355 . S
C1583 C1585 1.419 . S
C1584 C1582 1.415 . S
C1584 C1589 1.425 . S
C1584 C1591 1.409 . S
C1585 H1577 0.930 . S
C1585 C1583 1.419 . S
C1585 C1586 1.362 . S
C1586 H1578 0.930 . S
C1586 C1585 1.362 . S
C1586 C1589 1.409 . S
C1587 H1579 0.930 . S
C1587 C1588 1.355 . S
C1587 C1589 1.415 . S
C1588 C1587 1.355 . S
C1588 C1590 1.419 . S
C1589 C1584 1.425 . S
C1589 C1586 1.409 . S
C1589 C1587 1.415 . S
C1590 H1580 0.930 . S
C1590 C1588 1.419 . S
C1590 C1591 1.362 . S
C1591 H1581 0.930 . S
C1591 C1584 1.409 . S
C1591 C1590 1.362 . S
H1592 C1598 0.930 . S
H1593 C1601 0.930 1_565 S
H1594 C1602 0.930 . S
H1595 C1603 0.930 . S
H1596 C1606 0.930 . S
H1597 C1607 0.930 . S
C1598 H1592 0.930 . S
C1598 C1599 1.355 . S
C1598 C1600 1.415 . S
C1599 C1598 1.355 . S
C1599 C1601 1.419 . S
C1600 C1598 1.415 . S
C1600 C1605 1.425 . S
C1600 C1607 1.409 . S
C1601 H1593 0.930 1_545 S
C1601 C1599 1.419 . S
C1601 C1602 1.362 1_545 S
C1602 H1594 0.930 . S
C1602 C1601 1.362 1_565 S
C1602 C1605 1.409 1_565 S
C1603 H1595 0.930 . S
C1603 C1604 1.355 1_565 S
C1603 C1605 1.415 1_565 S
C1604 C1603 1.355 1_545 S
C1604 C1606 1.419 . S
C1605 C1600 1.425 . S
C1605 C1602 1.409 1_545 S
C1605 C1603 1.415 1_545 S
C1606 H1596 0.930 . S
C1606 C1604 1.419 . S
C1606 C1607 1.362 . S
C1607 H1597 0.930 . S
C1607 C1600 1.409 . S
C1607 C1606 1.362 . S
H1608 C1614 0.930 . S
H1609 C1617 0.930 . S
H1610 C1618 0.930 . S
H1611 C1619 0.930 . S
H1612 C1622 0.930 . S
H1613 C1623 0.930 . S
C1614 H1608 0.930 . S
C1614 C1615 1.355 . S
C1614 C1616 1.415 . S
C1615 C1614 1.355 . S
C1615 C1617 1.419 . S
C1616 C1614 1.415 . S
C1616 C1621 1.425 . S
C1616 C1623 1.409 . S
C1617 H1609 0.930 . S
C1617 C1615 1.419 . S
C1617 C1618 1.362 . S
C1618 H1610 0.930 . S
C1618 C1617 1.362 . S
C1618 C1621 1.409 . S
C1619 H1611 0.930 . S
C1619 C1620 1.355 . S
C1619 C1621 1.415 . S
C1620 C1619 1.355 . S
C1620 C1622 1.419 . S
C1621 C1616 1.425 . S
C1621 C1618 1.409 . S
C1621 C1619 1.415 . S
C1622 H1612 0.930 . S
C1622 C1620 1.419 . S
C1622 C1623 1.362 . S
C1623 H1613 0.930 . S
C1623 C1616 1.409 . S
C1623 C1622 1.362 . S
H1624 C1630 0.930 . S
H1625 C1633 0.930 . S
H1626 C1634 0.930 . S
H1627 C1635 0.930 . S
H1628 C1638 0.930 . S
H1629 C1639 0.930 . S
C1630 H1624 0.930 . S
C1630 C1631 1.355 . S
C1630 C1632 1.415 . S
C1631 C1630 1.355 . S
C1631 C1633 1.419 . S
C1632 C1630 1.415 . S
C1632 C1637 1.425 . S
C1632 C1639 1.409 . S
C1633 H1625 0.930 . S
C1633 C1631 1.419 . S
C1633 C1634 1.362 . S
C1634 H1626 0.930 . S
C1634 C1633 1.362 . S
C1634 C1637 1.409 . S
C1635 H1627 0.930 . S
C1635 C1636 1.355 . S
C1635 C1637 1.415 . S
C1636 C1635 1.355 . S
C1636 C1638 1.419 . S
C1637 C1632 1.425 . S
C1637 C1634 1.409 . S
C1637 C1635 1.415 . S
C1638 H1628 0.930 . S
C1638 C1636 1.419 . S
C1638 C1639 1.362 . S
C1639 H1629 0.930 . S
C1639 C1632 1.409 . S
C1639 C1638 1.362 . S
H1640 C1646 0.930 . S
H1641 C1649 0.930 . S
H1642 C1650 0.930 . S
H1643 C1651 0.930 . S
H1644 C1654 0.930 . S
H1645 C1655 0.930 . S
C1646 H1640 0.930 . S
C1646 C1647 1.355 . S
C1646 C1648 1.415 . S
C1647 C1646 1.355 . S
C1647 C1649 1.419 . S
C1648 C1646 1.415 . S
C1648 C1653 1.425 . S
C1648 C1655 1.409 . S
C1649 H1641 0.930 . S
C1649 C1647 1.419 . S
C1649 C1650 1.362 . S
C1650 H1642 0.930 . S
C1650 C1649 1.362 . S
C1650 C1653 1.409 . S
C1651 H1643 0.930 . S
C1651 C1652 1.355 . S
C1651 C1653 1.415 . S
C1652 C1651 1.355 . S
C1652 C1654 1.419 . S
C1653 C1648 1.425 . S
C1653 C1650 1.409 . S
C1653 C1651 1.415 . S
C1654 H1644 0.930 . S
C1654 C1652 1.419 . S
C1654 C1655 1.362 . S
C1655 H1645 0.930 . S
C1655 C1648 1.409 . S
C1655 C1654 1.362 . S
H1656 C1662 0.930 . S
H1657 C1665 0.930 . S
H1658 C1666 0.930 . S
H1659 C1667 0.930 . S
H1660 C1670 0.930 . S
H1661 C1671 0.930 . S
C1662 H1656 0.930 . S
C1662 C1663 1.355 . S
C1662 C1664 1.415 . S
C1663 C1662 1.355 . S
C1663 C1665 1.419 . S
C1664 C1662 1.415 . S
C1664 C1669 1.425 . S
C1664 C1671 1.409 . S
C1665 H1657 0.930 . S
C1665 C1663 1.419 . S
C1665 C1666 1.362 . S
C1666 H1658 0.930 . S
C1666 C1665 1.362 . S
C1666 C1669 1.409 . S
C1667 H1659 0.930 . S
C1667 C1668 1.355 . S
C1667 C1669 1.415 . S
C1668 C1667 1.355 . S
C1668 C1670 1.419 . S
C1669 C1664 1.425 . S
C1669 C1666 1.409 . S
C1669 C1667 1.415 . S
C1670 H1660 0.930 . S
C1670 C1668 1.419 . S
C1670 C1671 1.362 . S
C1671 H1661 0.930 . S
C1671 C1664 1.409 . S
C1671 C1670 1.362 . S
H1672 C1678 0.930 . S
H1673 C1681 0.930 . S
H1674 C1682 0.930 . S
H1675 C1683 0.930 . S
H1676 C1686 0.930 . S
H1677 C1687 0.930 . S
C1678 H1672 0.930 . S
C1678 C1679 1.355 . S
C1678 C1680 1.415 . S
C1679 C1678 1.355 . S
C1679 C1681 1.419 . S
C1680 C1678 1.415 . S
C1680 C1685 1.425 . S
C1680 C1687 1.409 . S
C1681 H1673 0.930 . S
C1681 C1679 1.419 . S
C1681 C1682 1.362 . S
C1682 H1674 0.930 . S
C1682 C1681 1.362 . S
C1682 C1685 1.409 . S
C1683 H1675 0.930 . S
C1683 C1684 1.355 . S
C1683 C1685 1.415 . S
C1684 C1683 1.355 . S
C1684 C1686 1.419 . S
C1685 C1680 1.425 . S
C1685 C1682 1.409 . S
C1685 C1683 1.415 . S
C1686 H1676 0.930 . S
C1686 C1684 1.419 . S
C1686 C1687 1.362 . S
C1687 H1677 0.930 . S
C1687 C1680 1.409 . S
C1687 C1686 1.362 . S
H1688 C1694 0.930 . S
H1689 C1697 0.930 . S
H1690 C1698 0.930 . S
H1691 C1699 0.930 . S
H1692 C1702 0.930 . S
H1693 C1703 0.930 . S
C1694 H1688 0.930 . S
C1694 C1695 1.355 . S
C1694 C1696 1.415 . S
C1695 C1694 1.355 . S
C1695 C1697 1.419 . S
C1696 C1694 1.415 . S
C1696 C1701 1.425 . S
C1696 C1703 1.409 . S
C1697 H1689 0.930 . S
C1697 C1695 1.419 . S
C1697 C1698 1.362 . S
C1698 H1690 0.930 . S
C1698 C1697 1.362 . S
C1698 C1701 1.409 . S
C1699 H1691 0.930 . S
C1699 C1700 1.355 . S
C1699 C1701 1.415 . S
C1700 C1699 1.355 . S
C1700 C1702 1.419 . S
C1701 C1696 1.425 . S
C1701 C1698 1.409 . S
C1701 C1699 1.415 . S
C1702 H1692 0.930 . S
C1702 C1700 1.419 . S
C1702 C1703 1.362 . S
C1703 H1693 0.930 . S
C1703 C1696 1.409 . S
C1703 C1702 1.362 . S
H1704 C1710 0.930 . S
H1705 C1713 0.930 . S
H1706 C1714 0.930 . S
H1707 C1715 0.930 . S
H1708 C1718 0.930 . S
H1709 C1719 0.930 . S
C1710 H1704 0.930 . S
C1710 C1711 1.355 . S
C1710 C1712 1.415 . S
C1711 C1710 1.355 . S
C1711 C1713 1.419 . S
C1712 C1710 1.415 . S
C1712 C1717 1.425 . S
C1712 C1719 1.409 . S
C1713 H1705 0.930 . S
C1713 C1711 1.419 . S
C1713 C1714 1.362 . S
C1714 H1706 0.930 . S
C1714 C1713 1.362 . S
C1714 C1717 1.409 . S
C1715 H1707 0.930 . S
C1715 C1716 1.355 . S
C1715 C1717 1.415 . S
C1716 C1715 1.355 . S
C1716 C1718 1.419 . S
C1717 C1712 1.425 . S
C1717 C1714 1.409 . S
C1717 C1715 1.415 . S
C1718 H1708 0.930 . S
C1718 C1716 1.419 . S
C1718 C1719 1.362 . S
C1719 H1709 0.930 . S
C1719 C1712 1.409 . S
C1719 C1718 1.362 . S
H1720 C1726 0.930 . S
H1721 C1729 0.930 . S
H1722 C1730 0.930 . S
H1723 C1731 0.930 . S
H1724 C1734 0.930 . S
H1725 C1735 0.930 . S
C1726 H1720 0.930 . S
C1726 C1727 1.355 . S
C1726 C1728 1.415 . S
C1727 C1726 1.355 . S
C1727 C1729 1.419 . S
C1728 C1726 1.415 . S
C1728 C1733 1.425 . S
C1728 C1735 1.409 . S
C1729 H1721 0.930 . S
C1729 C1727 1.419 . S
C1729 C1730 1.362 . S
C1730 H1722 0.930 . S
C1730 C1729 1.362 . S
C1730 C1733 1.409 . S
C1731 H1723 0.930 . S
C1731 C1732 1.355 . S
C1731 C1733 1.415 . S
C1732 C1731 1.355 . S
C1732 C1734 1.419 . S
C1733 C1728 1.425 . S
C1733 C1730 1.409 . S
C1733 C1731 1.415 . S
C1734 H1724 0.930 . S
C1734 C1732 1.419 . S
C1734 C1735 1.362 . S
C1735 H1725 0.930 . S
C1735 C1728 1.409 . S
C1735 C1734 1.362 . S
H1736 C1742 0.930 . S
H1737 C1745 0.930 . S
H1738 C1746 0.930 . S
H1739 C1747 0.930 . S
H1740 C1750 0.930 . S
H1741 C1751 0.930 . S
C1742 H1736 0.930 . S
C1742 C1743 1.355 . S
C1742 C1744 1.415 . S
C1743 C1742 1.355 . S
C1743 C1745 1.419 . S
C1744 C1742 1.415 . S
C1744 C1749 1.425 . S
C1744 C1751 1.409 . S
C1745 H1737 0.930 . S
C1745 C1743 1.419 . S
C1745 C1746 1.362 . S
C1746 H1738 0.930 . S
C1746 C1745 1.362 . S
C1746 C1749 1.409 . S
C1747 H1739 0.930 . S
C1747 C1748 1.355 . S
C1747 C1749 1.415 . S
C1748 C1747 1.355 . S
C1748 C1750 1.419 . S
C1749 C1744 1.425 . S
C1749 C1746 1.409 . S
C1749 C1747 1.415 . S
C1750 H1740 0.930 . S
C1750 C1748 1.419 . S
C1750 C1751 1.362 . S
C1751 H1741 0.930 . S
C1751 C1744 1.409 . S
C1751 C1750 1.362 . S
H1752 C1758 0.930 . S
H1753 C1761 0.930 . S
H1754 C1762 0.930 . S
H1755 C1763 0.930 . S
H1756 C1766 0.930 . S
H1757 C1767 0.930 . S
C1758 H1752 0.930 . S
C1758 C1759 1.355 . S
C1758 C1760 1.415 . S
C1759 C1758 1.355 . S
C1759 C1761 1.419 . S
C1760 C1758 1.415 . S
C1760 C1765 1.425 . S
C1760 C1767 1.409 . S
C1761 H1753 0.930 . S
C1761 C1759 1.419 . S
C1761 C1762 1.362 . S
C1762 H1754 0.930 . S
C1762 C1761 1.362 . S
C1762 C1765 1.409 . S
C1763 H1755 0.930 . S
C1763 C1764 1.355 . S
C1763 C1765 1.415 . S
C1764 C1763 1.355 . S
C1764 C1766 1.419 . S
C1765 C1760 1.425 . S
C1765 C1762 1.409 . S
C1765 C1763 1.415 . S
C1766 H1756 0.930 . S
C1766 C1764 1.419 . S
C1766 C1767 1.362 . S
C1767 H1757 0.930 . S
C1767 C1760 1.409 . S
C1767 C1766 1.362 . S
H1768 C1774 0.930 . S
H1769 C1777 0.930 . S
H1770 C1778 0.930 . S
H1771 C1779 0.930 . S
H1772 C1782 0.930 . S
H1773 C1783 0.930 . S
C1774 H1768 0.930 . S
C1774 C1775 1.355 . S
C1774 C1776 1.415 . S
C1775 C1774 1.355 . S
C1775 C1777 1.419 . S
C1776 C1774 1.415 . S
C1776 C1781 1.425 . S
C1776 C1783 1.409 . S
C1777 H1769 0.930 . S
C1777 C1775 1.419 . S
C1777 C1778 1.362 . S
C1778 H1770 0.930 . S
C1778 C1777 1.362 . S
C1778 C1781 1.409 . S
C1779 H1771 0.930 . S
C1779 C1780 1.355 . S
C1779 C1781 1.415 . S
C1780 C1779 1.355 . S
C1780 C1782 1.419 . S
C1781 C1776 1.425 . S
C1781 C1778 1.409 . S
C1781 C1779 1.415 . S
C1782 H1772 0.930 . S
C1782 C1780 1.419 . S
C1782 C1783 1.362 . S
C1783 H1773 0.930 . S
C1783 C1776 1.409 . S
C1783 C1782 1.362 . S
H1784 C1790 0.930 . S
H1785 C1793 0.930 . S
H1786 C1794 0.930 . S
H1787 C1795 0.930 . S
H1788 C1798 0.930 . S
H1789 C1799 0.930 . S
C1790 H1784 0.930 . S
C1790 C1791 1.355 . S
C1790 C1792 1.415 . S
C1791 C1790 1.355 . S
C1791 C1793 1.419 . S
C1792 C1790 1.415 . S
C1792 C1797 1.425 . S
C1792 C1799 1.409 . S
C1793 H1785 0.930 . S
C1793 C1791 1.419 . S
C1793 C1794 1.362 . S
C1794 H1786 0.930 . S
C1794 C1793 1.362 . S
C1794 C1797 1.409 . S
C1795 H1787 0.930 . S
C1795 C1796 1.355 . S
C1795 C1797 1.415 . S
C1796 C1795 1.355 . S
C1796 C1798 1.419 . S
C1797 C1792 1.425 . S
C1797 C1794 1.409 . S
C1797 C1795 1.415 . S
C1798 H1788 0.930 . S
C1798 C1796 1.419 . S
C1798 C1799 1.362 . S
C1799 H1789 0.930 . S
C1799 C1792 1.409 . S
C1799 C1798 1.362 . S
C943 C439 1.484 . S
C948 C585 1.568 . S
C959 C465 1.783 . S
C964 C625 1.740 . S
C975 C401 1.734 . S
C980 C664 1.711 . S
C991 C369 1.575 . S
C996 C624 1.554 . S
C1012 C665 1.515 . S
C1007 C305 1.508 . S
C1023 C343 1.249 . S
C1028 C584 1.402 1_556 S
C1044 C595 1.628 . S
C1039 C375 1.674 . S
C1060 C635 1.720 . S
C1055 C311 1.744 . S
C1071 C337 1.615 . S
C1076 C674 1.667 . S
C1087 C433 1.512 . S
C1092 C634 1.541 . S
C1103 C471 1.478 . S
C1108 C675 1.484 . S
C1124 C594 1.460 . S
C1119 C407 1.487 . S
C1140 C705 1.609 . S
C1135 C55 1.544 . S
C1151 C81 1.783 . S
C1156 C745 1.739 . S
C1167 C17 1.716 . S
C1172 C784 1.663 . S
C1183 C561 1.581 . S
C1188 C744 1.556 . S
C1199 C497 1.509 . S
C1204 C785 1.472 . S
C1215 C535 1.314 . S
C1220 C704 1.444 . S
C1231 C567 1.673 . S
C1236 C715 1.625 . S
C1247 C503 1.743 . S
C1252 C755 1.728 . S
C1268 C794 1.658 . S
C1263 C529 1.560 . S
C1279 C49 1.511 . S
C1284 C754 1.543 . S
C1300 C795 1.439 . S
C1295 C87 1.478 . S
C1311 C23 1.477 . S
C1316 C714 1.479 . S
C1332 C825 1.568 . S
C1327 C247 1.478 . S
C1343 C273 1.786 . S
C1348 C865 1.718 . S
C1364 C904 1.698 . S
C1359 C209 1.738 . S
C1380 C864 1.558 . S
C1375 C177 1.576 . S
C1396 C905 1.486 . S
C1391 C113 1.504 . S
C1407 C151 1.237 . S
C1412 C824 1.409 . S
C1423 C183 1.672 . S
C1428 C835 1.621 . S
C1439 C119 1.744 . S
C1444 C875 1.734 . S
C1460 C914 1.679 . S
C1455 C145 1.538 . S
C1471 C241 1.434 . S
C1476 C874 1.507 . S
C1487 C279 1.483 . S
C1492 C915 1.431 . S
C1503 C215 1.466 . S
C1508 C834 1.459 . S
C1519 C509 1.371 . S
C1524 C581 1.403 . S
C1540 C621 1.777 . S
C1535 C541 1.694 . S
C1551 C573 1.561 . S
C1556 C671 1.556 . S
C1567 C221 1.796 . S
C1572 C631 1.784 . S
C1583 C253 1.452 . S
C1588 C661 1.535 . S
C1604 C591 1.369 . S
C1599 C285 1.339 . S
C1615 C125 1.348 . S
C1620 C701 1.380 . S
C1631 C157 1.668 . S
C1636 C741 1.768 . S
C1647 C189 1.562 . S
C1652 C791 1.556 . S
C1663 C413 1.793 . S
C1668 C751 1.795 . S
C1684 C781 1.536 . S
C1679 C445 1.477 . S
C1695 C477 1.360 . S
C1700 C711 1.390 . S
C1711 C317 1.402 . S
C1716 C821 1.396 . S
C1727 C349 1.631 . S
C1732 C861 1.769 . S
C1748 C911 1.560 . S
C1743 C381 1.543 . S
C1759 C29 1.809 . S
C1764 C871 1.801 . S
C1775 C61 1.419 . S
C1780 C901 1.531 . S
C1791 C93 1.389 . S
C1796 C831 1.391 . S
