# Generated by pormake.
# Topology anh, (6,3)-cn, num edge types: 1
# Building blocks:
#     Node 0, Type 0, BuildingBlock: NUHQIS_clean_sbu_0, # of connection points: 6
#     Node 1, Type 0, BuildingBlock: NUHQIS_clean_sbu_0, # of connection points: 6
#     Node 2, Type 0, BuildingBlock: NUHQIS_clean_sbu_0, # of connection points: 6
#     Node 3, Type 1, BuildingBlock: CUQRIR_clean_linker_1, # of connection points: 3
#     Node 4, Type 1, BuildingBlock: CUQRIR_clean_linker_1, # of connection points: 3
#     Node 5, Type 1, BuildingBlock: CUQRIR_clean_linker_1, # of connection points: 3
#     Node 6, Type 1, BuildingBlock: CUQRIR_clean_linker_1, # of connection points: 3
#     Node 7, Type 1, BuildingBlock: CUQRIR_clean_linker_1, # of connection points: 3
#     Node 8, Type 1, BuildingBlock: CUQRIR_clean_linker_1, # of connection points: 3
#     Edge 9, Type (0, 1), BuildingBlock: OJICUG_clean_linker_0, # of connection points: 2
#     Edge 10, Type (0, 1), BuildingBlock: OJICUG_clean_linker_0, # of connection points: 2
#     Edge 11, Type (0, 1), BuildingBlock: OJICUG_clean_linker_0, # of connection points: 2
#     Edge 12, Type (0, 1), BuildingBlock: OJICUG_clean_linker_0, # of connection points: 2
#     Edge 13, Type (0, 1), BuildingBlock: OJICUG_clean_linker_0, # of connection points: 2
#     Edge 14, Type (0, 1), BuildingBlock: OJICUG_clean_linker_0, # of connection points: 2
#     Edge 15, Type (0, 1), BuildingBlock: OJICUG_clean_linker_0, # of connection points: 2
#     Edge 16, Type (0, 1), BuildingBlock: OJICUG_clean_linker_0, # of connection points: 2
#     Edge 17, Type (0, 1), BuildingBlock: OJICUG_clean_linker_0, # of connection points: 2
#     Edge 18, Type (0, 1), BuildingBlock: OJICUG_clean_linker_0, # of connection points: 2
#     Edge 19, Type (0, 1), BuildingBlock: OJICUG_clean_linker_0, # of connection points: 2
#     Edge 20, Type (0, 1), BuildingBlock: OJICUG_clean_linker_0, # of connection points: 2
#     Edge 21, Type (0, 1), BuildingBlock: OJICUG_clean_linker_0, # of connection points: 2
#     Edge 22, Type (0, 1), BuildingBlock: OJICUG_clean_linker_0, # of connection points: 2
#     Edge 23, Type (0, 1), BuildingBlock: OJICUG_clean_linker_0, # of connection points: 2
#     Edge 24, Type (0, 1), BuildingBlock: OJICUG_clean_linker_0, # of connection points: 2
#     Edge 25, Type (0, 1), BuildingBlock: OJICUG_clean_linker_0, # of connection points: 2
#     Edge 26, Type (0, 1), BuildingBlock: OJICUG_clean_linker_0, # of connection points: 2
# Relax obj value: 0.458
# Max RMSD: 0.234
# Mean RMSD: 0.170
data_MOF--net-anh--node1-NUHQIS_clean_sbu_0--node2-CUQRIR_clean_linker_1--edge1-OJICUG_clean_linker_0
_symmetry_space_group_name_H-M    P1
_symmetry_Int_Tables_number       1
_symmetry_cell_setting            triclinic
loop_
_symmetry_equiv_pos_as_xyz
'x, y, z'
_cell_length_a     20.282726
_cell_length_b     20.24281
_cell_length_c     33.716835
_cell_angle_alpha  87.529843
_cell_angle_beta   91.746876
_cell_angle_gamma 119.52599
loop_
_atom_site_label
_atom_site_type_symbol
_atom_site_fract_x
_atom_site_fract_y
_atom_site_fract_z
_atom_type_partial_charge
Tb0 Tb 0.27241 0.6546 0.18135 0.0
Eu1 Eu 0.19812 0.74016 0.14518 0.0
C2 C 0.19993 0.72168 0.235 0.0
C3 C 1.08733 0.55236 0.17435 0.0
C4 C 0.37034 0.54368 0.22964 0.0
C5 C 0.35712 0.42076 0.24753 0.0
C6 C 0.32621 0.46905 0.24454 0.0
C7 C 0.44789 0.5735 0.22438 0.0
C8 C 0.47879 0.52578 0.22745 0.0
C9 C 0.43183 0.44708 0.23514 0.0
C10 C 0.33408 0.58454 0.21182 0.0
O11 O 0.24735 0.6217 0.11733 0.0
O12 O 0.26899 0.73658 0.09664 0.0
O13 O 0.31646 0.84094 0.16555 0.0
O14 O 0.37659 0.77216 0.17598 0.0
C15 C 0.2626 0.672 0.08775 0.0
O16 O 1.14821 0.76649 0.09358 0.0
O17 O 1.16463 0.82708 0.14803 0.0
O18 O 1.15291 0.7084 0.2057 0.0
O19 O 0.26287 0.7205 0.22898 0.0
O20 O 1.15146 0.56158 0.19099 0.0
O21 O 1.09323 0.61122 0.15123 0.0
C22 C 0.38108 0.84027 0.17302 0.0
O23 O 0.27595 0.58359 0.22776 0.0
O24 O 0.35713 0.62412 0.17852 0.0
C25 C 1.04952 0.78112 0.11326 0.0
C26 C 0.90424 0.66589 0.09681 0.0
C27 C 0.94149 0.72543 0.06889 0.0
C28 C 1.01451 0.78342 0.07717 0.0
C29 C 1.00746 0.7272 0.14315 0.0
C30 C 0.93523 0.66897 0.13468 0.0
C31 C 1.13056 0.80956 0.11341 0.0
H32 H 0.32027 0.36122 0.25504 0.0
H33 H 0.26616 0.44578 0.24956 0.0
H34 H 0.48298 0.63169 0.21374 0.0
H35 H 0.53695 0.54957 0.21822 0.0
H36 H 0.91667 0.72377 0.03978 0.0
H37 H 1.04663 0.82426 0.05377 0.0
H38 H 1.0336 0.72413 0.17117 0.0
H39 H 0.90576 0.62364 0.15665 0.0
Tb40 Tb 0.88984 0.22359 0.50227 0.0
Eu41 Eu 0.71316 0.14465 0.50411 0.0
C42 C 0.81039 0.17537 0.58508 0.0
C43 C 0.79203 1.03382 0.51848 0.0
C44 C 1.07662 0.33491 0.46344 0.0
C45 C 1.14763 0.47055 0.45278 0.0
C46 C 1.13276 0.40613 0.47576 0.0
C47 C 1.04771 0.32733 0.42438 0.0
C48 C 1.062 0.39177 0.40148 0.0
C49 C 1.1069 0.46371 0.41717 0.0
C50 C 1.03023 0.27912 0.49409 0.0
O51 O 0.86627 0.23014 0.43849 0.0
O52 O 0.73775 0.17752 0.43807 0.0
O53 O 0.74641 0.26948 0.51552 0.0
O54 O 0.87386 0.32889 0.50558 0.0
C55 C 0.80256 0.21054 0.41911 0.0
O56 O 0.59919 1.06233 0.48488 0.0
O57 O 0.61663 0.15051 0.52553 0.0
O58 O 0.74481 0.13435 0.56754 0.0
O59 O 0.87174 0.2194 0.56508 0.0
O60 O 0.85746 1.09927 0.51529 0.0
O61 O 0.72818 1.03704 0.51386 0.0
C62 C 0.8116 0.33373 0.51332 0.0
O63 O 1.00027 0.30464 0.51867 0.0
O64 O 0.98048 0.21261 0.48156 0.0
C65 C 0.49902 1.03782 0.52905 0.0
C66 C 0.34567 0.94596 0.54719 0.0
C67 C 0.38795 0.91382 0.53283 0.0
C68 C 0.46401 0.9596 0.52362 0.0
C69 C 0.46077 1.06761 0.54955 0.0
C70 C 0.38461 1.02161 0.55909 0.0
C71 C 0.56768 1.09016 0.5072 0.0
H72 H 1.18322 0.52539 0.46561 0.0
H73 H 1.15629 0.41299 0.50558 0.0
H74 H 1.00607 0.27248 0.41352 0.0
H75 H 1.03174 0.38519 0.37358 0.0
H76 H 0.36094 0.8556 0.52361 0.0
H77 H 0.49278 0.93488 0.50863 0.0
H78 H 0.48742 0.12788 0.55477 0.0
H79 H 0.35441 1.04742 0.57148 0.0
Tb80 Tb 0.70862 0.71143 0.84965 0.0
Eu81 Eu 0.62031 0.54739 0.82173 0.0
C82 C 0.65273 0.57501 0.90996 0.0
C83 C 0.80891 0.62399 0.84134 0.0
C84 C 0.86935 0.89843 0.86217 0.0
C85 C 0.96609 1.03013 0.85829 0.0
C86 C 0.90556 0.97032 0.87836 0.0
C87 C 0.90236 0.88372 0.83012 0.0
C88 C 0.96215 0.94385 0.80973 0.0
C89 C 0.98667 1.01883 0.82055 0.0
C90 C 0.79189 0.84324 0.87378 0.0
O91 O 0.73502 0.72091 0.7846 0.0
O92 O 0.63255 0.61249 0.76422 0.0
O93 O 0.52527 0.57108 0.84515 0.0
O94 O 0.59093 0.6997 0.84669 0.0
C95 C 0.69156 0.67821 0.75544 0.0
O96 O 0.59644 0.44678 0.78908 0.0
O97 O 0.51376 0.44264 0.82986 0.0
O98 O 0.66606 0.5429 0.88133 0.0
O99 O 0.64964 0.63733 0.9017 0.0
O100 O 0.80308 0.68251 0.85356 0.0
O101 O 0.74642 0.56642 0.82555 0.0
C102 C 0.52436 0.63572 0.84948 0.0
O103 O 0.74122 0.82706 0.84549 0.0
O104 O 0.78409 0.78254 0.89281 0.0
C105 C 0.53302 0.33822 0.83059 0.0
C106 C 0.5725 0.23497 0.86624 0.0
C107 C 0.54194 0.22421 0.82735 0.0
C108 C 0.52301 0.27606 0.80954 0.0
C109 C 0.5532 0.34307 0.87107 0.0
C110 C 0.57279 0.29163 0.88886 0.0
C111 C 0.53482 0.40351 0.80921 0.0
H112 H 0.98654 1.08674 0.86893 0.0
H113 H 0.88233 0.98199 0.90395 0.0
H114 H 0.87642 0.82754 0.81805 0.0
H115 H 0.97911 0.93289 0.7817 0.0
H116 H 0.54145 0.18154 0.80884 0.0
H117 H 0.50703 0.27129 0.77839 0.0
H118 H 0.55984 0.39016 0.88802 0.0
H119 H 0.59572 0.30101 0.91883 0.0
C120 C 0.73857 0.19556 0.18663 0.0
N121 N 0.79338 0.24749 0.21273 0.0
N122 N 0.67976 0.13143 0.20547 0.0
C123 C 0.74609 0.20244 0.14243 0.0
C124 C 0.70221 0.14571 0.24398 0.0
N125 N 0.76821 0.21335 0.2488 0.0
C126 C 0.65785 1.09288 0.27811 0.0
H127 H 0.71292 0.22832 0.12988 0.0
H128 H 0.72232 0.14527 0.12983 0.0
H129 H 0.80614 0.23797 0.13359 0.0
H130 H 0.69661 1.08949 0.30101 0.0
H131 H 0.61793 1.03469 0.26851 0.0
H132 H 0.62449 1.11543 0.29207 0.0
C133 C 0.80525 0.68754 0.53203 0.0
N134 N 0.78919 0.732 0.55658 0.0
N135 N 0.79595 0.62023 0.55041 0.0
C136 C 0.82647 0.70778 0.48931 0.0
C137 C 0.77398 0.62654 0.58721 0.0
N138 N 0.76989 0.69176 0.59124 0.0
C139 C 0.75646 0.56773 0.62018 0.0
H140 H 0.79539 0.73523 0.47538 0.0
H141 H 0.81436 0.65663 0.47283 0.0
H142 H 0.88806 0.7487 0.48751 0.0
H143 H 0.78506 0.53402 0.61565 0.0
H144 H 0.69436 0.52855 0.62077 0.0
H145 H 0.77421 0.59457 0.64944 0.0
C146 C 1.17047 0.62931 0.85882 0.0
N147 N 0.22547 0.62914 0.88492 0.0
N148 N 1.10799 0.62504 0.87778 0.0
C149 C 1.17854 0.63487 0.81468 0.0
C150 C 1.12827 0.62213 0.91653 0.0
N151 N 0.19676 0.62394 0.92108 0.0
C152 C 1.08151 0.62053 0.95085 0.0
H153 H 0.22359 0.69293 0.80594 0.0
H154 H 1.12472 0.6232 0.79952 0.0
H155 H 0.19645 0.59432 0.80517 0.0
H156 H 1.02095 0.59655 0.94233 0.0
H157 H 1.10328 0.67945 0.96061 0.0
H158 H 1.08554 0.5864 0.97641 0.0
C159 C 1.06023 0.74161 0.43714 0.0
N160 N 1.07005 0.72203 0.40101 0.0
N161 N 1.10879 0.81593 0.44378 0.0
C162 C 1.00768 0.68549 0.46761 0.0
C163 C 1.1428 0.84282 0.40793 0.0
N164 N 1.11762 0.78609 0.38203 0.0
C165 C 0.20864 0.92113 0.40008 0.0
H166 H 0.95076 0.6512 0.45397 0.0
H167 H 1.00311 0.71504 0.49348 0.0
H168 H 1.02793 0.6455 0.47751 0.0
H169 H 0.25857 0.92799 0.41777 0.0
H170 H 0.19445 0.96454 0.40917 0.0
H171 H 0.22366 0.9316 0.36821 0.0
C172 C 0.84991 0.18426 0.81661 0.0
N173 N 0.8746 0.18602 0.77932 0.0
N174 N 0.78547 0.18812 0.81506 0.0
C175 C 0.88134 0.16684 0.8541 0.0
C176 C 0.77143 0.19273 0.77597 0.0
N177 N 0.82446 0.18951 0.75418 0.0
C178 C 0.70697 0.20274 0.75938 0.0
H179 H 0.84605 0.15932 0.88021 0.0
H180 H 0.93958 0.21375 0.8597 0.0
H181 H 0.88397 1.11401 0.85062 0.0
H182 H 0.69398 0.23678 0.77945 0.0
H183 H 0.65556 0.14617 0.75699 0.0
H184 H 0.7206 0.23116 0.72952 0.0
C185 C 0.59979 0.35611 0.10838 0.0
N186 N 0.62714 0.39619 0.07419 0.0
N187 N 0.52842 0.34203 0.11511 0.0
C188 C 0.64704 0.33792 0.13731 0.0
C189 C 0.51 0.36671 0.08042 0.0
N190 N 0.56952 0.39763 0.05541 0.0
C191 C 0.43791 0.36946 0.07301 0.0
H192 H 0.61165 0.29613 0.16073 0.0
H193 H 0.69167 0.3904 0.15104 0.0
H194 H 0.6769 0.31495 0.12064 0.0
H195 H 0.43803 0.41352 0.09155 0.0
H196 H 0.38835 0.314 0.08121 0.0
H197 H 0.43136 0.38246 0.04134 0.0
C198 C 0.53091 0.4182 0.2143 0.0
C199 C 0.4538 0.39417 0.21834 0.0
H200 H 0.61527 0.43041 0.17511 0.0
C201 C 0.40112 0.33448 0.19473 0.0
H202 H 0.57299 0.46149 0.23306 0.0
C203 C 0.42596 0.31004 0.16314 0.0
C204 C 0.50313 0.34701 0.15391 0.0
H205 H 0.3408 0.31267 0.19741 0.0
H206 H 0.38457 0.26743 0.14396 0.0
C207 C 0.55541 0.39865 0.18112 0.0
C208 C 1.16122 0.60163 0.40344 0.0
C209 C 1.09847 0.52869 0.40238 0.0
H210 H 0.19951 0.71949 0.4071 0.0
C211 C 1.02546 0.51994 0.39594 0.0
H212 H 0.21781 0.60998 0.40847 0.0
C213 C 1.01539 0.5836 0.39336 0.0
C214 C 1.07808 0.65592 0.39752 0.0
H215 H 0.97573 0.46402 0.39589 0.0
H216 H 0.95895 0.5764 0.3903 0.0
C217 C 1.15082 0.66426 0.4022 0.0
C218 C 1.03507 0.15369 0.7984 0.0
C219 C 0.99763 1.07657 0.78882 0.0
H220 H 1.02215 0.25216 0.80221 0.0
C221 C 0.94071 1.05272 0.75914 0.0
H222 H 1.08169 0.17517 0.81958 0.0
C223 C 0.9046 1.09509 0.75084 0.0
C224 C 0.92935 0.16378 0.76973 0.0
H225 H 0.91272 0.99497 0.74905 0.0
H226 H 0.85094 1.06836 0.73504 0.0
C227 C 1.00028 0.19733 0.78901 0.0
C228 C 0.76675 0.59907 0.08828 0.0
C229 C 0.83467 0.59828 0.08623 0.0
H230 H 0.64678 0.53299 0.08739 0.0
C231 C 0.83532 0.53109 0.07797 0.0
H232 H 0.76592 0.65036 0.0954 0.0
C233 C 0.76708 0.46405 0.07221 0.0
C234 C 0.69879 0.46462 0.07524 0.0
H235 H 0.8883 0.53038 0.07691 0.0
H236 H 0.76726 0.41185 0.06668 0.0
C237 C 0.69925 0.53243 0.08339 0.0
C238 C 0.22249 0.82986 0.53476 0.0
C239 C 0.26344 0.90897 0.53763 0.0
H240 H 1.14672 0.73897 0.49935 0.0
C241 C 0.23404 0.95252 0.51854 0.0
H242 H 0.2414 0.79421 0.55041 0.0
C243 C 1.17467 0.91933 0.491 0.0
C244 C 1.14594 0.84328 0.48149 0.0
H245 H 0.2626 1.01367 0.52065 0.0
H246 H 1.15719 0.95486 0.47414 0.0
C247 C 1.16671 0.79774 0.50565 0.0
C248 C 0.70122 0.25928 0.88336 0.0
C249 C 0.62461 0.20538 0.87659 0.0
H250 H 0.81566 0.29518 0.86731 0.0
C251 C 0.60672 0.13324 0.86384 0.0
H252 H 0.71713 0.31504 0.89392 0.0
C253 C 0.66356 0.12266 0.84826 0.0
C254 C 0.73804 0.18331 0.84674 0.0
H255 H 0.54816 1.09008 0.8594 0.0
H256 H 0.64796 1.07155 0.83235 0.0
C257 C 0.758 0.2484 0.86796 0.0
C258 C 0.72948 0.89076 0.54741 0.0
C259 C 0.79086 0.95503 0.52809 0.0
H260 H 0.68045 0.77485 0.57187 0.0
C261 C 0.85162 0.94187 0.51869 0.0
H262 H 0.6808 0.89521 0.55588 0.0
C263 C 0.85071 0.87054 0.52729 0.0
C264 C 0.78983 0.8068 0.54711 0.0
H265 H 0.90075 0.98719 0.50395 0.0
H266 H 0.89933 0.86607 0.5188 0.0
C267 C 0.72942 0.8201 0.55702 0.0
C268 C 0.95103 0.68463 0.86713 0.0
C269 C 0.88775 0.62433 0.84763 0.0
H270 H 1.06578 0.73321 0.89105 0.0
C271 C 0.90288 0.56602 0.83577 0.0
H272 H 0.94537 0.73151 0.8774 0.0
C273 C 0.97479 0.56769 0.8434 0.0
C274 C 1.03735 0.6279 0.86344 0.0
H275 H 0.85831 0.51762 0.82087 0.0
H276 H 0.98039 0.51998 0.8345 0.0
C277 C 1.02219 0.68607 0.87492 0.0
C278 C 0.46755 0.99122 0.1765 0.0
C279 C 0.45991 0.91699 0.17857 0.0
H280 H 0.53854 1.11385 0.18219 0.0
C281 C 0.53009 0.9183 0.18671 0.0
H282 H 0.41736 0.99616 0.17066 0.0
C283 C 0.60124 0.98742 0.19291 0.0
C284 C 0.60871 1.06145 0.19113 0.0
H285 H 0.53018 0.86484 0.18909 0.0
H286 H 0.65091 0.98247 0.20045 0.0
C287 C 0.53883 1.06049 0.18277 0.0
C288 C 0.7413 0.41118 0.52686 0.0
C289 C 0.81068 0.41117 0.52024 0.0
H290 H 0.68167 0.47204 0.54034 0.0
C291 C 0.87561 0.48543 0.52191 0.0
H292 H 0.68876 0.35767 0.52665 0.0
C293 C 0.87103 0.55312 0.53019 0.0
C294 C 0.80125 0.5525 0.53623 0.0
H295 H 0.93106 0.49145 0.51782 0.0
H296 H 0.92314 0.60604 0.5335 0.0
C297 C 0.73681 0.4785 0.53462 0.0
C298 C 0.43287 0.69637 0.84831 0.0
C299 C 0.44707 0.63516 0.8586 0.0
H300 H 0.35573 0.74283 0.84683 0.0
C301 C 0.38449 0.57233 0.87802 0.0
H302 H 0.47692 0.74656 0.83341 0.0
C303 C 0.31445 0.57114 0.88697 0.0
C304 C 0.29987 0.63161 0.876 0.0
H305 H 0.3899 0.52326 0.88711 0.0
H306 H 0.2706 0.52138 0.90225 0.0
C307 C 0.36173 0.69419 0.8561 0.0
C308 C 0.93736 0.45039 0.16419 0.0
C309 C 1.00914 0.47413 0.18361 0.0
H310 H 0.81763 0.36607 0.15685 0.0
C311 C 1.00493 0.41927 0.21334 0.0
H312 H 0.93375 0.48755 0.14123 0.0
C313 C 0.93655 0.34821 0.22289 0.0
C314 C 0.86511 0.32391 0.20333 0.0
H315 H 1.05594 0.43125 0.22994 0.0
H316 H 0.941 0.31117 0.24549 0.0
C317 C 0.86877 0.37843 0.17339 0.0
C318 C 0.29037 0.71782 0.01583 0.0
C319 C 0.26172 0.65631 0.04393 0.0
H320 H 0.29451 0.75556 0.95476 0.0
C321 C 0.22436 0.58254 0.02876 0.0
H322 H 0.31959 0.77568 0.02578 0.0
C323 C 0.21088 0.57135 0.98731 0.0
C324 C 0.2348 0.63335 0.95971 0.0
H325 H 0.20078 0.53353 0.04899 0.0
H326 H 1.17608 0.51416 0.97707 0.0
C327 C 0.27716 0.70655 0.9747 0.0
C328 C 0.85274 0.21408 0.34976 0.0
C329 C 0.80424 0.22531 0.37443 0.0
H330 H 0.87962 0.20135 0.29012 0.0
C331 C 0.75597 0.24888 0.35557 0.0
H332 H 0.89075 0.19578 0.36285 0.0
C333 C 0.75378 0.25746 0.31371 0.0
C334 C 0.79751 0.24007 0.28869 0.0
H335 H 0.71808 0.25876 0.37318 0.0
H336 H 0.71181 0.27023 0.30055 0.0
C337 C 0.84806 0.21946 0.30776 0.0
C338 C 0.78583 0.74677 0.69831 0.0
C339 C 0.71114 0.69837 0.71169 0.0
H340 H 0.86319 0.78411 0.64891 0.0
C341 C 0.65511 0.66079 0.68225 0.0
H342 H 0.83101 0.77639 0.71965 0.0
C343 C 0.67347 0.66678 0.64172 0.0
C344 C 0.74866 0.71039 0.6286 0.0
H345 H 0.59689 0.62307 0.69077 0.0
H346 H 0.62949 0.63201 0.62084 0.0
C347 C 0.80431 0.75208 0.65748 0.0
C348 C 0.75246 0.12507 0.65172 0.0
C349 C 0.81543 0.17494 0.6288 0.0
H350 H 0.70716 1.0897 0.71019 0.0
C351 C 0.88289 0.22678 0.64805 0.0
H352 H 0.70004 1.08389 0.63786 0.0
C353 C 0.88632 0.23057 0.68932 0.0
C354 C 0.82258 0.18267 0.71192 0.0
H355 H 0.93262 0.26581 0.63127 0.0
H356 H 0.93797 0.2721 0.70362 0.0
C357 C 0.75624 0.12866 0.69298 0.0
C358 C 0.59091 0.54619 0.97749 0.0
C359 C 0.63089 0.53255 0.94855 0.0
H360 H 0.5389 0.51304 0.035 0.0
C361 C 0.64533 0.47172 0.9549 0.0
H362 H 0.5791 0.59272 0.97343 0.0
C363 C 0.61918 0.42459 0.98854 0.0
C364 C 0.57944 0.4375 0.01758 0.0
H365 H 0.67693 0.45993 0.93365 0.0
H366 H 0.63264 0.37918 0.99285 0.0
C367 C 0.56591 0.49929 0.01206 0.0
C368 C 1.10859 0.73021 0.27854 0.0
C369 C 1.18275 0.7442 0.2726 0.0
H370 H 1.03125 0.73542 0.31822 0.0
C371 C 0.23851 0.78202 0.30171 0.0
H372 H 1.0641 0.70117 0.25673 0.0
C373 C 0.2194 0.80348 0.3367 0.0
C374 C 1.14424 0.78639 0.34296 0.0
H375 H 0.2962 0.79406 0.29768 0.0
H376 H 0.26188 0.8288 0.35983 0.0
C377 C 1.08973 0.75087 0.31332 0.0
loop_
_geom_bond_atom_site_label_1
_geom_bond_atom_site_label_2
_geom_bond_distance
_geom_bond_site_symmetry_2
_ccdc_geom_bond_type
Tb0 C10 2.825 . S
Tb0 O11 2.347 . S
Tb0 O14 2.366 . S
Tb0 O19 2.418 . S
Tb0 O20 2.384 1_455 S
Tb0 O23 2.479 . S
Tb0 O24 2.471 . S
Eu1 O12 2.418 . S
Eu1 O13 2.384 1_655 S
Eu1 O16 2.479 . S
Eu1 O17 2.471 . S
Eu1 O18 2.347 . S
Eu1 O21 2.366 . S
Eu1 C31 2.825 . S
C2 O18 1.259 1_455 S
C2 O19 1.265 . S
C3 O20 1.255 . S
C3 O21 1.265 . S
C4 C6 1.380 . S
C4 C7 1.374 . S
C4 C10 1.507 . S
C5 C6 1.384 . S
C5 C9 1.387 . S
C5 H32 0.930 . S
C6 C4 1.380 . S
C6 C5 1.384 . S
C6 H33 0.931 . S
C7 C4 1.374 . S
C7 C8 1.390 . S
C7 H34 0.930 . S
C8 C7 1.390 . S
C8 C9 1.391 . S
C8 H35 0.930 . S
C9 C5 1.387 . S
C9 C8 1.391 . S
C10 Tb0 2.825 . S
C10 C4 1.507 . S
C10 O23 1.238 . S
C10 O24 1.247 . S
O11 Tb0 2.347 . S
O11 C15 1.259 . S
O12 Eu1 2.418 . S
O12 C15 1.265 1_655 S
O13 Eu1 2.384 1_455 S
O13 C22 1.255 . S
O14 Tb0 2.366 . S
O14 C22 1.265 . S
C15 O11 1.259 . S
C15 O12 1.265 1_455 S
O16 Eu1 2.479 . S
O16 C31 1.238 . S
O17 Eu1 2.471 . S
O17 C31 1.247 . S
O18 Eu1 2.347 . S
O18 C2 1.259 1_655 S
O19 Tb0 2.418 . S
O19 C2 1.265 . S
O20 Tb0 2.384 1_655 S
O20 C3 1.255 . S
O21 Eu1 2.366 . S
O21 C3 1.265 . S
C22 O13 1.255 . S
C22 O14 1.265 . S
O23 Tb0 2.479 . S
O23 C10 1.238 . S
O24 Tb0 2.471 . S
O24 C10 1.247 . S
C25 C28 1.380 . S
C25 C29 1.374 . S
C25 C31 1.507 . S
C26 C27 1.387 . S
C26 C30 1.391 . S
C27 C26 1.387 . S
C27 C28 1.384 . S
C27 H36 0.930 . S
C28 C25 1.380 . S
C28 C27 1.384 . S
C28 H37 0.931 . S
C29 C25 1.374 . S
C29 C30 1.390 . S
C29 H38 0.930 . S
C30 C26 1.391 . S
C30 C29 1.390 . S
C30 H39 0.930 . S
C31 Eu1 2.825 . S
C31 O16 1.238 . S
C31 O17 1.247 . S
C31 C25 1.507 . S
H32 C5 0.930 . S
H33 C6 0.931 . S
H34 C7 0.930 . S
H35 C8 0.930 . S
H36 C27 0.930 . S
H37 C28 0.931 . S
H38 C29 0.930 . S
H39 C30 0.930 . S
Tb40 C50 2.825 . S
Tb40 O51 2.347 . S
Tb40 O54 2.366 . S
Tb40 O59 2.418 . S
Tb40 O60 2.384 1_545 S
Tb40 O63 2.479 . S
Tb40 O64 2.471 . S
Eu41 O52 2.418 1_565 S
Eu41 O53 2.384 1_565 S
Eu41 O56 2.479 . S
Eu41 O57 2.471 . S
Eu41 O58 2.347 1_565 S
Eu41 O61 2.366 . S
Eu41 C71 2.825 . S
C42 O58 1.259 . S
C42 O59 1.265 . S
C43 O60 1.255 . S
C43 O61 1.265 . S
C44 C46 1.380 . S
C44 C47 1.374 . S
C44 C50 1.507 . S
C45 C46 1.384 . S
C45 C49 1.387 . S
C45 H72 0.930 . S
C46 C44 1.380 . S
C46 C45 1.384 . S
C46 H73 0.931 . S
C47 C44 1.374 . S
C47 C48 1.390 . S
C47 H74 0.930 . S
C48 C47 1.390 . S
C48 C49 1.391 . S
C48 H75 0.930 . S
C49 C45 1.387 . S
C49 C48 1.391 . S
C50 Tb40 2.825 . S
C50 C44 1.507 . S
C50 O63 1.238 . S
C50 O64 1.247 . S
O51 Tb40 2.347 . S
O51 C55 1.259 . S
O52 Eu41 2.418 1_545 S
O52 C55 1.265 . S
O53 Eu41 2.384 1_545 S
O53 C62 1.255 . S
O54 Tb40 2.366 . S
O54 C62 1.265 . S
C55 O51 1.259 . S
C55 O52 1.265 . S
O56 Eu41 2.479 . S
O56 C71 1.238 . S
O57 Eu41 2.471 . S
O57 C71 1.247 . S
O58 Eu41 2.347 1_545 S
O58 C42 1.259 . S
O59 Tb40 2.418 . S
O59 C42 1.265 . S
O60 Tb40 2.384 1_565 S
O60 C43 1.255 . S
O61 Eu41 2.366 . S
O61 C43 1.265 . S
C62 O53 1.255 . S
C62 O54 1.265 . S
O63 Tb40 2.479 . S
O63 C50 1.238 . S
O64 Tb40 2.471 . S
O64 C50 1.247 . S
C65 C68 1.380 . S
C65 C69 1.374 . S
C65 C71 1.507 . S
C66 C67 1.387 . S
C66 C70 1.391 . S
C67 C66 1.387 . S
C67 C68 1.384 . S
C67 H76 0.930 . S
C68 C65 1.380 . S
C68 C67 1.384 . S
C68 H77 0.931 . S
C69 C65 1.374 . S
C69 C70 1.390 . S
C69 H78 0.930 . S
C70 C66 1.391 . S
C70 C69 1.390 . S
C70 H79 0.930 . S
C71 Eu41 2.825 . S
C71 O56 1.238 . S
C71 O57 1.247 . S
C71 C65 1.507 . S
H72 C45 0.930 . S
H73 C46 0.931 . S
H74 C47 0.930 . S
H75 C48 0.930 . S
H76 C67 0.930 . S
H77 C68 0.931 . S
H78 C69 0.930 . S
H79 C70 0.930 . S
Tb80 C90 2.825 . S
Tb80 O91 2.347 . S
Tb80 O94 2.366 . S
Tb80 O99 2.418 . S
Tb80 O100 2.384 . S
Tb80 O103 2.479 . S
Tb80 O104 2.471 . S
Eu81 O92 2.418 . S
Eu81 O93 2.384 . S
Eu81 O96 2.479 . S
Eu81 O97 2.471 . S
Eu81 O98 2.347 . S
Eu81 O101 2.366 . S
Eu81 C111 2.825 . S
C82 O98 1.259 . S
C82 O99 1.265 . S
C83 O100 1.255 . S
C83 O101 1.265 . S
C84 C86 1.380 . S
C84 C87 1.374 . S
C84 C90 1.507 . S
C85 C86 1.384 . S
C85 C89 1.387 . S
C85 H112 0.930 . S
C86 C84 1.380 . S
C86 C85 1.384 . S
C86 H113 0.931 . S
C87 C84 1.374 . S
C87 C88 1.390 . S
C87 H114 0.930 . S
C88 C87 1.390 . S
C88 C89 1.391 . S
C88 H115 0.930 . S
C89 C85 1.387 . S
C89 C88 1.391 . S
C90 Tb80 2.825 . S
C90 C84 1.507 . S
C90 O103 1.238 . S
C90 O104 1.247 . S
O91 Tb80 2.347 . S
O91 C95 1.259 . S
O92 Eu81 2.418 . S
O92 C95 1.265 . S
O93 Eu81 2.384 . S
O93 C102 1.255 . S
O94 Tb80 2.366 . S
O94 C102 1.265 . S
C95 O91 1.259 . S
C95 O92 1.265 . S
O96 Eu81 2.479 . S
O96 C111 1.238 . S
O97 Eu81 2.471 . S
O97 C111 1.247 . S
O98 Eu81 2.347 . S
O98 C82 1.259 . S
O99 Tb80 2.418 . S
O99 C82 1.265 . S
O100 Tb80 2.384 . S
O100 C83 1.255 . S
O101 Eu81 2.366 . S
O101 C83 1.265 . S
C102 O93 1.255 . S
C102 O94 1.265 . S
O103 Tb80 2.479 . S
O103 C90 1.238 . S
O104 Tb80 2.471 . S
O104 C90 1.247 . S
C105 C108 1.380 . S
C105 C109 1.374 . S
C105 C111 1.507 . S
C106 C107 1.387 . S
C106 C110 1.391 . S
C107 C106 1.387 . S
C107 C108 1.384 . S
C107 H116 0.930 . S
C108 C105 1.380 . S
C108 C107 1.384 . S
C108 H117 0.931 . S
C109 C105 1.374 . S
C109 C110 1.390 . S
C109 H118 0.930 . S
C110 C106 1.391 . S
C110 C109 1.390 . S
C110 H119 0.930 . S
C111 Eu81 2.825 . S
C111 O96 1.238 . S
C111 O97 1.247 . S
C111 C105 1.507 . S
H112 C85 0.930 . S
H113 C86 0.931 . S
H114 C87 0.930 . S
H115 C88 0.930 . S
H116 C107 0.930 . S
H117 C108 0.931 . S
H118 C109 0.930 . S
H119 C110 0.930 . S
C120 N121 1.317 1_565 S
C120 N122 1.348 . S
C120 C123 1.485 1_565 S
N121 C120 1.317 1_545 S
N121 N125 1.370 . S
N122 C120 1.348 . S
N122 C124 1.346 . S
C123 C120 1.485 1_545 S
C123 H127 0.960 . S
C123 H128 0.961 1_545 S
C123 H129 0.960 . S
C124 N122 1.346 . S
C124 N125 1.307 1_565 S
C124 C126 1.486 . S
N125 N121 1.370 . S
N125 C124 1.307 1_545 S
C126 C124 1.486 . S
C126 H130 0.960 . S
C126 H131 0.960 . S
C126 H132 0.959 . S
H127 C123 0.960 . S
H128 C123 0.961 1_565 S
H129 C123 0.960 . S
H130 C126 0.960 . S
H131 C126 0.960 . S
H132 C126 0.959 . S
C133 N134 1.317 . S
C133 N135 1.348 . S
C133 C136 1.485 . S
N134 C133 1.317 . S
N134 N138 1.370 . S
N135 C133 1.348 . S
N135 C137 1.346 . S
C136 C133 1.485 . S
C136 H140 0.960 . S
C136 H141 0.961 . S
C136 H142 0.960 . S
C137 N135 1.346 . S
C137 N138 1.307 . S
C137 C139 1.486 . S
N138 N134 1.370 . S
N138 C137 1.307 . S
C139 C137 1.486 . S
C139 H143 0.960 . S
C139 H144 0.960 . S
C139 H145 0.959 . S
H140 C136 0.960 . S
H141 C136 0.961 . S
H142 C136 0.960 . S
H143 C139 0.960 . S
H144 C139 0.960 . S
H145 C139 0.959 . S
C146 N147 1.317 . S
C146 N148 1.348 1_455 S
C146 C149 1.485 . S
N147 C146 1.317 . S
N147 N151 1.370 . S
N148 C146 1.348 1_655 S
N148 C150 1.346 . S
C149 C146 1.485 . S
C149 H153 0.960 . S
C149 H154 0.961 . S
C149 H155 0.960 . S
C150 N148 1.346 . S
C150 N151 1.307 1_655 S
C150 C152 1.486 . S
N151 N147 1.370 . S
N151 C150 1.307 1_455 S
C152 C150 1.486 . S
C152 H156 0.960 . S
C152 H157 0.960 . S
C152 H158 0.959 . S
H153 C149 0.960 . S
H154 C149 0.961 . S
H155 C149 0.960 . S
H156 C152 0.960 . S
H157 C152 0.960 . S
H158 C152 0.959 . S
C159 N160 1.317 1_455 S
C159 N161 1.348 . S
C159 C162 1.485 . S
N160 C159 1.317 1_655 S
N160 N164 1.370 1_655 S
N161 C159 1.348 . S
N161 C163 1.346 . S
C162 C159 1.485 . S
C162 H166 0.962 . S
C162 H167 0.961 . S
C162 H168 0.960 1_455 S
C163 N161 1.346 . S
C163 N164 1.307 . S
C163 C165 1.486 . S
N164 N160 1.370 1_455 S
N164 C163 1.307 . S
C165 C163 1.486 . S
C165 H169 0.960 . S
C165 H170 0.960 . S
C165 H171 0.959 . S
H166 C162 0.962 . S
H167 C162 0.961 . S
H168 C162 0.960 1_655 S
H169 C165 0.960 . S
H170 C165 0.960 . S
H171 C165 0.959 . S
C172 N173 1.317 1_545 S
C172 N174 1.348 . S
C172 C175 1.485 . S
N173 C172 1.317 1_565 S
N173 N177 1.370 1_565 S
N174 C172 1.348 . S
N174 C176 1.346 . S
C175 C172 1.485 . S
C175 H179 0.960 1_545 S
C175 H180 0.961 . S
C175 H181 0.960 1_545 S
C176 N174 1.346 . S
C176 N177 1.307 . S
C176 C178 1.486 . S
N177 N173 1.370 1_545 S
N177 C176 1.307 . S
C178 C176 1.486 . S
C178 H182 0.960 . S
C178 H183 0.960 . S
C178 H184 0.959 . S
H179 C175 0.960 1_565 S
H180 C175 0.961 . S
H181 C175 0.960 1_565 S
H182 C178 0.960 . S
H183 C178 0.960 . S
H184 C178 0.959 . S
C185 N186 1.317 . S
C185 N187 1.348 . S
C185 C188 1.485 . S
N186 C185 1.317 . S
N186 N190 1.370 . S
N187 C185 1.348 . S
N187 C189 1.346 . S
C188 C185 1.485 . S
C188 H192 0.960 . S
C188 H193 0.961 . S
C188 H194 0.960 . S
C189 N187 1.346 . S
C189 N190 1.307 . S
C189 C191 1.486 . S
N190 N186 1.370 . S
N190 C189 1.307 . S
C191 C189 1.486 . S
C191 H195 0.960 . S
C191 H196 0.960 . S
C191 H197 0.959 . S
H192 C188 0.960 . S
H193 C188 0.961 . S
H194 C188 0.960 . S
H195 C191 0.960 . S
H196 C191 0.960 . S
H197 C191 0.959 . S
C198 C199 1.387 . S
C198 H202 0.950 . S
C198 C207 1.390 . S
C199 C198 1.387 . S
C199 C201 1.387 . S
H200 C207 0.950 . S
C201 C199 1.387 . S
C201 C203 1.390 . S
C201 H205 0.950 . S
H202 C198 0.950 . S
C203 C201 1.390 . S
C203 C204 1.387 . S
C203 H206 0.950 . S
C204 C203 1.387 . S
C204 C207 1.387 . S
H205 C201 0.950 . S
H206 C203 0.950 . S
C207 C198 1.390 . S
C207 H200 0.950 . S
C207 C204 1.387 . S
C208 C209 1.387 . S
C208 H212 0.950 1_655 S
C208 C217 1.392 1_655 S
C209 C208 1.387 . S
C209 C211 1.387 . S
H210 C217 0.967 . S
C211 C209 1.387 . S
C211 C213 1.390 . S
C211 H215 0.950 . S
H212 C208 0.950 1_455 S
C213 C211 1.390 . S
C213 C214 1.387 . S
C213 H216 0.950 . S
C214 C213 1.387 . S
C214 C217 1.369 1_655 S
H215 C211 0.950 . S
H216 C213 0.950 . S
C217 C208 1.392 1_455 S
C217 H210 0.967 . S
C217 C214 1.369 1_455 S
C218 C219 1.387 . S
C218 H222 0.950 . S
C218 C227 1.390 . S
C219 C218 1.387 . S
C219 C221 1.387 . S
H220 C227 0.950 . S
C221 C219 1.387 . S
C221 C223 1.390 . S
C221 H225 0.950 . S
H222 C218 0.950 . S
C223 C221 1.390 . S
C223 C224 1.387 . S
C223 H226 0.950 . S
C224 C223 1.387 . S
C224 C227 1.387 . S
H225 C221 0.950 . S
H226 C223 0.950 . S
C227 C218 1.390 . S
C227 H220 0.950 . S
C227 C224 1.387 . S
C228 C229 1.387 . S
C228 H232 0.950 . S
C228 C237 1.390 . S
C229 C228 1.387 . S
C229 C231 1.387 . S
H230 C237 0.950 . S
C231 C229 1.387 . S
C231 C233 1.390 . S
C231 H235 0.950 . S
H232 C228 0.950 . S
C233 C231 1.390 . S
C233 C234 1.387 . S
C233 H236 0.950 . S
C234 C233 1.387 . S
C234 C237 1.387 . S
H235 C231 0.950 . S
H236 C233 0.950 . S
C237 C228 1.390 . S
C237 H230 0.950 . S
C237 C234 1.387 . S
C238 C239 1.387 . S
C238 H242 0.950 . S
C238 C247 1.390 . S
C239 C238 1.387 . S
C239 C241 1.387 . S
H240 C247 0.950 . S
C241 C239 1.387 . S
C241 C243 1.390 . S
C241 H245 0.950 . S
H242 C238 0.950 . S
C243 C241 1.390 . S
C243 C244 1.387 . S
C243 H246 0.950 . S
C244 C243 1.387 . S
C244 C247 1.387 . S
H245 C241 0.950 . S
H246 C243 0.950 . S
C247 C238 1.390 . S
C247 H240 0.950 . S
C247 C244 1.387 . S
C248 C249 1.387 . S
C248 H252 0.950 . S
C248 C257 1.390 . S
C249 C248 1.387 . S
C249 C251 1.387 . S
H250 C257 0.950 . S
C251 C249 1.387 . S
C251 C253 1.390 . S
C251 H255 0.950 . S
H252 C248 0.950 . S
C253 C251 1.390 . S
C253 C254 1.387 . S
C253 H256 0.950 . S
C254 C253 1.387 . S
C254 C257 1.387 . S
H255 C251 0.950 . S
H256 C253 0.950 . S
C257 C248 1.390 . S
C257 H250 0.950 . S
C257 C254 1.387 . S
C258 C259 1.387 . S
C258 H262 0.950 . S
C258 C267 1.390 . S
C259 C258 1.387 . S
C259 C261 1.387 . S
H260 C267 0.950 . S
C261 C259 1.387 . S
C261 C263 1.390 . S
C261 H265 0.950 . S
H262 C258 0.950 . S
C263 C261 1.390 . S
C263 C264 1.387 . S
C263 H266 0.950 . S
C264 C263 1.387 . S
C264 C267 1.387 . S
H265 C261 0.950 . S
H266 C263 0.950 . S
C267 C258 1.390 . S
C267 H260 0.950 . S
C267 C264 1.387 . S
C268 C269 1.387 . S
C268 H272 0.950 . S
C268 C277 1.390 . S
C269 C268 1.387 . S
C269 C271 1.387 . S
H270 C277 0.950 . S
C271 C269 1.387 . S
C271 C273 1.390 . S
C271 H275 0.950 . S
H272 C268 0.950 . S
C273 C271 1.390 . S
C273 C274 1.387 . S
C273 H276 0.950 . S
C274 C273 1.387 . S
C274 C277 1.387 . S
H275 C271 0.950 . S
H276 C273 0.950 . S
C277 C268 1.390 . S
C277 H270 0.950 . S
C277 C274 1.387 . S
C278 C279 1.387 . S
C278 H282 0.950 . S
C278 C287 1.390 . S
C279 C278 1.387 . S
C279 C281 1.387 . S
H280 C287 0.950 . S
C281 C279 1.387 . S
C281 C283 1.390 . S
C281 H285 0.950 . S
H282 C278 0.950 . S
C283 C281 1.390 . S
C283 C284 1.387 . S
C283 H286 0.950 . S
C284 C283 1.387 . S
C284 C287 1.387 . S
H285 C281 0.950 . S
H286 C283 0.950 . S
C287 C278 1.390 . S
C287 H280 0.950 . S
C287 C284 1.387 . S
C288 C289 1.387 . S
C288 H292 0.950 . S
C288 C297 1.390 . S
C289 C288 1.387 . S
C289 C291 1.387 . S
H290 C297 0.950 . S
C291 C289 1.387 . S
C291 C293 1.390 . S
C291 H295 0.950 . S
H292 C288 0.950 . S
C293 C291 1.390 . S
C293 C294 1.387 . S
C293 H296 0.950 . S
C294 C293 1.387 . S
C294 C297 1.387 . S
H295 C291 0.950 . S
H296 C293 0.950 . S
C297 C288 1.390 . S
C297 H290 0.950 . S
C297 C294 1.387 . S
C298 C299 1.387 . S
C298 H302 0.950 . S
C298 C307 1.390 . S
C299 C298 1.387 . S
C299 C301 1.387 . S
H300 C307 0.950 . S
C301 C299 1.387 . S
C301 C303 1.390 . S
C301 H305 0.950 . S
H302 C298 0.950 . S
C303 C301 1.390 . S
C303 C304 1.387 . S
C303 H306 0.950 . S
C304 C303 1.387 . S
C304 C307 1.387 . S
H305 C301 0.950 . S
H306 C303 0.950 . S
C307 C298 1.390 . S
C307 H300 0.950 . S
C307 C304 1.387 . S
C308 C309 1.387 . S
C308 H312 0.950 . S
C308 C317 1.390 . S
C309 C308 1.387 . S
C309 C311 1.387 . S
H310 C317 0.950 . S
C311 C309 1.387 . S
C311 C313 1.390 . S
C311 H315 0.950 . S
H312 C308 0.950 . S
C313 C311 1.390 . S
C313 C314 1.387 . S
C313 H316 0.950 . S
C314 C313 1.387 . S
C314 C317 1.387 . S
H315 C311 0.950 . S
H316 C313 0.950 . S
C317 C308 1.390 . S
C317 H310 0.950 . S
C317 C314 1.387 . S
C318 C319 1.387 . S
C318 H322 0.950 . S
C318 C327 1.390 1_554 S
C319 C318 1.387 . S
C319 C321 1.387 . S
H320 C327 0.950 . S
C321 C319 1.387 . S
C321 C323 1.390 1_554 S
C321 H325 0.950 1_455 S
H322 C318 0.950 . S
C323 C321 1.390 1_556 S
C323 C324 1.387 . S
C323 H326 0.950 . S
C324 C323 1.387 . S
C324 C327 1.387 . S
H325 C321 0.950 1_655 S
H326 C323 0.950 . S
C327 C318 1.390 1_556 S
C327 H320 0.950 . S
C327 C324 1.387 . S
C328 C329 1.387 1_565 S
C328 H332 0.950 . S
C328 C337 1.390 . S
C329 C328 1.387 1_545 S
C329 C331 1.387 . S
H330 C337 0.950 . S
C331 C329 1.387 . S
C331 C333 1.390 . S
C331 H335 0.950 . S
H332 C328 0.950 . S
C333 C331 1.390 . S
C333 C334 1.387 . S
C333 H336 0.950 . S
C334 C333 1.387 . S
C334 C337 1.387 1_545 S
H335 C331 0.950 . S
H336 C333 0.950 . S
C337 C328 1.390 . S
C337 H330 0.950 . S
C337 C334 1.387 1_565 S
C338 C339 1.387 . S
C338 H342 0.950 . S
C338 C347 1.390 . S
C339 C338 1.387 . S
C339 C341 1.387 . S
H340 C347 0.950 . S
C341 C339 1.387 . S
C341 C343 1.390 . S
C341 H345 0.950 . S
H342 C338 0.950 . S
C343 C341 1.390 . S
C343 C344 1.387 . S
C343 H346 0.950 . S
C344 C343 1.387 . S
C344 C347 1.387 . S
H345 C341 0.950 . S
H346 C343 0.950 . S
C347 C338 1.390 . S
C347 H340 0.950 . S
C347 C344 1.387 . S
C348 C349 1.387 1_565 S
C348 H352 0.950 . S
C348 C357 1.390 . S
C349 C348 1.387 1_545 S
C349 C351 1.387 . S
H350 C357 0.950 . S
C351 C349 1.387 . S
C351 C353 1.390 . S
C351 H355 0.950 . S
H352 C348 0.950 . S
C353 C351 1.390 . S
C353 C354 1.387 . S
C353 H356 0.950 . S
C354 C353 1.387 . S
C354 C357 1.387 1_545 S
H355 C351 0.950 . S
H356 C353 0.950 . S
C357 C348 1.390 . S
C357 H350 0.950 . S
C357 C354 1.387 1_565 S
C358 C359 1.387 . S
C358 H362 0.950 . S
C358 C367 1.390 1_556 S
C359 C358 1.387 . S
C359 C361 1.387 . S
H360 C367 0.950 . S
C361 C359 1.387 . S
C361 C363 1.390 1_556 S
C361 H365 0.950 . S
H362 C358 0.950 . S
C363 C361 1.390 1_554 S
C363 C364 1.387 . S
C363 H366 0.950 . S
C364 C363 1.387 . S
C364 C367 1.387 . S
H365 C361 0.950 . S
H366 C363 0.950 . S
C367 C358 1.390 1_554 S
C367 H360 0.950 . S
C367 C364 1.387 . S
C368 C369 1.387 1_655 S
C368 H372 0.950 . S
C368 C377 1.390 . S
C369 C368 1.387 1_455 S
C369 C371 1.387 . S
H370 C377 0.950 . S
C371 C369 1.387 . S
C371 C373 1.390 . S
C371 H375 0.950 . S
H372 C368 0.950 . S
C373 C371 1.390 . S
C373 C374 1.399 . S
C373 H376 0.950 . S
C374 C373 1.399 . S
C374 C377 1.379 1_455 S
H375 C371 0.950 . S
H376 C373 0.950 . S
C377 C368 1.390 . S
C377 H370 0.950 . S
C377 C374 1.379 1_655 S
C199 C9 0.663 . S
C204 N187 0.610 . S
C209 C49 0.720 . S
C214 N160 0.725 . S
C219 C89 0.683 . S
C224 N173 0.696 . S
C229 C26 0.892 . S
C234 N186 0.935 . S
C244 N161 1.090 . S
C239 C66 0.947 . S
C254 N174 1.094 . S
C249 C106 0.948 . S
C259 C43 2.954 . S
C264 N134 2.955 . S
C269 C83 2.909 . S
C274 N148 2.845 . S
C279 C22 3.159 . S
C284 N122 3.120 . S
C294 N135 3.138 . S
C289 C62 3.168 . S
C304 N147 3.281 . S
C299 C102 3.264 . S
C309 C3 2.961 . S
C314 N121 2.967 . S
C324 N151 1.807 . S
C319 C15 1.800 . S
C329 C55 1.738 . S
C334 N125 1.824 . S
C339 C95 1.733 . S
C344 N138 1.812 . S
C354 N177 1.146 . S
C349 C42 1.177 . S
C364 N190 1.078 . S
C359 C82 1.097 . S
C369 C2 1.140 . S
C374 N164 1.122 . S
