# Generated by pormake.
# Topology tsx, (6,3)-cn, num edge types: 1
# Building blocks:
#     Node 0, Type 0, BuildingBlock: CIFDUS_clean_sbu_1, # of connection points: 6
#     Node 1, Type 0, BuildingBlock: CIFDUS_clean_sbu_1, # of connection points: 6
#     Node 2, Type 1, BuildingBlock: VETTIZ_charged_linker_0, # of connection points: 3
#     Node 3, Type 1, BuildingBlock: VETTIZ_charged_linker_0, # of connection points: 3
#     Node 4, Type 1, BuildingBlock: VETTIZ_charged_linker_0, # of connection points: 3
#     Node 5, Type 1, BuildingBlock: VETTIZ_charged_linker_0, # of connection points: 3
#     Edge 6, Type (0, 1), BuildingBlock: MIFKUJ_clean_linker_0, # of connection points: 2
#     Edge 7, Type (0, 1), BuildingBlock: MIFKUJ_clean_linker_0, # of connection points: 2
#     Edge 8, Type (0, 1), BuildingBlock: MIFKUJ_clean_linker_0, # of connection points: 2
#     Edge 9, Type (0, 1), BuildingBlock: MIFKUJ_clean_linker_0, # of connection points: 2
#     Edge 10, Type (0, 1), BuildingBlock: MIFKUJ_clean_linker_0, # of connection points: 2
#     Edge 11, Type (0, 1), BuildingBlock: MIFKUJ_clean_linker_0, # of connection points: 2
#     Edge 12, Type (0, 1), BuildingBlock: MIFKUJ_clean_linker_0, # of connection points: 2
#     Edge 13, Type (0, 1), BuildingBlock: MIFKUJ_clean_linker_0, # of connection points: 2
#     Edge 14, Type (0, 1), BuildingBlock: MIFKUJ_clean_linker_0, # of connection points: 2
#     Edge 15, Type (0, 1), BuildingBlock: MIFKUJ_clean_linker_0, # of connection points: 2
#     Edge 16, Type (0, 1), BuildingBlock: MIFKUJ_clean_linker_0, # of connection points: 2
#     Edge 17, Type (0, 1), BuildingBlock: MIFKUJ_clean_linker_0, # of connection points: 2
# Relax obj value: 0.132
# Max RMSD: 0.158
# Mean RMSD: 0.122
data_MOF--net-tsx--node1-CIFDUS_clean_sbu_1--node2-VETTIZ_charged_linker_0--edge1-MIFKUJ_clean_linker_0
_symmetry_space_group_name_H-M    P1
_symmetry_Int_Tables_number       1
_symmetry_cell_setting            triclinic
loop_
_symmetry_equiv_pos_as_xyz
'x, y, z'
_cell_length_a     27.737411
_cell_length_b     33.520787
_cell_length_c     56.094653
_cell_angle_alpha  96.981982
_cell_angle_beta   90.508654
_cell_angle_gamma 90.847134
loop_
_atom_site_label
_atom_site_type_symbol
_atom_site_fract_x
_atom_site_fract_y
_atom_site_fract_z
_atom_type_partial_charge
O0 O 0.00964 0.08104 0.00941 0.0
Mn1 Mn 0.05166 0.02891 0.00601 0.0
O2 O 0.93669 0.06227 0.99413 0.0
Mn3 Mn 0.9571 0.0143 0.97895 0.0
O4 O 0.09401 0.97653 0.00219 0.0
O5 O 0.1104 0.06677 0.01366 0.0
Mn6 Mn 0.14548 0.04216 0.03386 0.0
O7 O 0.041 0.02345 0.04257 0.0
O8 O 0.16604 0.9939 0.01905 0.0
O9 O 0.06155 0.03434 0.969 0.0
O10 O 0.99024 0.01653 0.9512 0.0
O11 O 0.18056 0.08678 0.03082 0.0
O12 O 0.1115 0.03951 0.06157 0.0
C13 C 0.95744 0.9646 0.99728 0.0
C14 C 0.96541 0.08839 0.00483 0.0
C15 C 0.13771 0.96837 0.00754 0.0
C16 C 0.14507 0.09391 0.01683 0.0
C17 C 0.06726 0.02946 0.06169 0.0
C18 C 0.03412 0.02724 0.9502 0.0
O19 O 0.99265 0.99127 -0.00071 0.0
O20 O 0.92264 0.96969 0.98241 0.0
O21 O 0.51212 0.58237 0.51456 0.0
Mn22 Mn 0.55202 0.53024 0.50677 0.0
O23 O 0.46918 0.57441 0.48151 0.0
Mn24 Mn 0.47316 0.5195 0.48043 0.0
O25 O 0.593 0.47715 0.50022 0.0
O26 O 0.61222 0.56805 0.51058 0.0
Mn27 Mn 0.64628 0.54298 0.53092 0.0
O28 O 0.54836 0.52309 0.54382 0.0
O29 O 0.66364 0.49238 0.51891 0.0
O30 O 0.5568 0.5364 0.46861 0.0
O31 O 0.49947 0.49555 0.45337 0.0
O32 O 0.68651 0.58256 0.52608 0.0
O33 O 0.61794 0.54662 0.56019 0.0
C34 C 0.44365 0.48386 0.50219 0.0
C35 C 0.48394 0.59639 0.49982 0.0
C36 C 0.63553 0.46765 0.50673 0.0
C37 C 0.6505 0.59201 0.51303 0.0
C38 C 0.57614 0.53209 0.56219 0.0
C39 C 0.53641 0.51598 0.45006 0.0
O40 O 0.49029 0.49256 0.50493 0.0
O41 O 0.4168 0.50172 0.48785 0.0
C42 C 0.11815 0.91738 0.46494 0.0
C43 C 0.14945 0.88862 0.45334 0.0
C44 C 0.14988 0.8819 0.42813 0.0
C45 C 0.09232 0.93449 0.42599 0.0
C46 C 0.08987 0.94027 0.45081 0.0
C47 C 0.05509 0.97324 0.45939 0.0
H48 H 0.92797 0.13179 0.42886 0.0
C49 C 0.0618 0.96413 0.41623 0.0
C50 C 0.03961 0.98731 0.43563 0.0
H51 H 0.92832 0.08929 0.49853 0.0
H52 H 0.9822 0.03528 0.48348 0.0
H53 H 0.03021 0.11512 0.41072 0.0
H54 H 0.89822 0.04678 0.40606 0.0
H55 H 0.92738 0.03044 0.37917 0.0
H56 H 0.91131 0.08269 0.38574 0.0
H57 H 0.98073 0.1243 0.3914 0.0
H58 H 0.02786 0.0901 0.38136 0.0
C59 C 0.0825 0.00648 0.47584 0.0
C60 C 0.01257 0.95438 0.47196 0.0
C61 C 0.06229 0.97404 0.32605 0.0
C62 C 0.03888 0.00029 0.31206 0.0
C63 C 0.00738 0.02912 0.32336 0.0
C64 C 0.00069 0.03301 0.3481 0.0
C65 C 0.02518 0.00753 0.36196 0.0
C66 C 0.0547 0.97818 0.35096 0.0
C67 C 0.07683 0.95356 0.36887 0.0
C68 C 0.05514 0.97301 0.39229 0.0
C69 C 0.02587 0.00489 0.38799 0.0
C70 C 0.13228 0.96006 0.36832 0.0
C71 C 0.05958 0.90925 0.36248 0.0
C72 C 0.93877 0.11092 0.44112 0.0
C73 C 0.92385 0.11536 0.46508 0.0
C74 C 0.9403 0.08742 0.48017 0.0
C75 C 0.97078 0.05566 0.47127 0.0
C76 C 0.98345 0.05109 0.4468 0.0
C77 C 0.96602 0.07813 0.43226 0.0
C78 C 0.97524 0.06626 0.40624 0.0
C79 C 0.00444 0.029 0.40734 0.0
C80 C 0.01011 0.02009 0.43108 0.0
C81 C 0.00477 0.10061 0.39671 0.0
C82 C 0.92572 0.05626 0.39346 0.0
H83 H 0.12419 0.89813 0.39534 0.0
H84 H 0.11696 0.92269 0.48436 0.0
H85 H 0.00247 0.92432 0.46242 0.0
H86 H 0.97956 0.97234 0.47195 0.0
H87 H 0.02222 0.9504 0.49079 0.0
H88 H 0.11585 0.01573 0.46696 0.0
H89 H 0.09308 0.99565 0.49307 0.0
H90 H 0.06103 0.03378 0.48009 0.0
H91 H 0.08663 0.95146 0.31792 0.0
H92 H 0.98777 0.04895 0.31301 0.0
H93 H 0.97712 0.05627 0.35542 0.0
H94 H 0.14149 0.99179 0.36604 0.0
H95 H 0.14847 0.94058 0.35314 0.0
H96 H 0.15063 0.95481 0.38516 0.0
H97 H 0.02394 0.90734 0.35311 0.0
H98 H 0.0537 0.89377 0.37857 0.0
H99 H 0.08545 0.89188 0.35046 0.0
H100 H 0.1731 0.85939 0.41894 0.0
C101 C 0.12148 0.90449 0.41445 0.0
C102 C 0.08311 0.16306 0.55212 0.0
C103 C 0.1136 0.19269 0.56444 0.0
C104 C 0.11159 0.20035 0.58962 0.0
C105 C 0.05425 0.14593 0.59043 0.0
C106 C 0.05355 0.13994 0.56558 0.0
C107 C 0.01999 0.10576 0.55608 0.0
H108 H 0.87019 0.95403 0.5812 0.0
C109 C 0.02297 0.1154 0.59933 0.0
C110 C 0.00227 0.09171 0.57936 0.0
H111 H 0.90937 0.98293 0.51099 0.0
H112 H 0.95808 0.03999 0.52931 0.0
H113 H 0.97752 0.96709 0.60438 0.0
H114 H 0.85083 0.03902 0.60439 0.0
H115 H 0.87933 0.05457 0.63208 0.0
H116 H 0.85825 0.00312 0.6253 0.0
H117 H 0.92264 0.95676 0.61939 0.0
H118 H 0.96877 0.98941 0.63401 0.0
C119 C 0.04945 0.07338 0.54074 0.0
C120 C 0.97868 0.12326 0.54219 0.0
C121 C 0.01976 0.10296 0.68898 0.0
C122 C 0.99277 0.07812 0.70269 0.0
C123 C 0.95683 0.05245 0.6909 0.0
C124 C 0.95012 0.04947 0.66604 0.0
C125 C 0.97881 0.07298 0.65255 0.0
C126 C 0.01163 0.10025 0.66408 0.0
C127 C 0.03559 0.12526 0.64686 0.0
C128 C 0.0135 0.10673 0.62302 0.0
C129 C 0.98099 0.0758 0.62654 0.0
C130 C 0.09065 0.11847 0.64798 0.0
C131 C 0.02045 0.16963 0.65348 0.0
C132 C 0.88938 0.9727 0.56982 0.0
C133 C 0.8863 0.96446 0.54485 0.0
C134 C 0.9116 0.98904 0.53039 0.0
C135 C 0.93983 0.02187 0.54104 0.0
C136 C 0.94314 0.0294 0.5663 0.0
C137 C 0.91793 0.00488 0.58011 0.0
C138 C 0.92537 0.01644 0.60652 0.0
C139 C 0.95939 0.05207 0.60654 0.0
C140 C 0.96993 0.05973 0.58301 0.0
C141 C 0.94958 0.98069 0.61683 0.0
C142 C 0.87605 0.02871 0.61783 0.0
H143 H 0.08364 0.18369 0.6218 0.0
H144 H 0.08397 0.15685 0.53272 0.0
H145 H 0.96605 0.15196 0.55205 0.0
H146 H 0.94662 0.10324 0.54008 0.0
H147 H 0.99098 0.12968 0.52423 0.0
H148 H 0.08593 0.07066 0.54873 0.0
H149 H 0.05422 0.08114 0.52219 0.0
H150 H 0.03309 0.04303 0.53977 0.0
H151 H 0.04731 0.12346 0.69721 0.0
H152 H 0.9337 0.03428 0.70085 0.0
H153 H 0.92301 0.02861 0.65829 0.0
H154 H 0.09827 0.08606 0.64841 0.0
H155 H 0.10694 0.13546 0.66439 0.0
H156 H 0.10994 0.12698 0.6322 0.0
H157 H 0.98655 0.1719 0.66399 0.0
H158 H 0.01227 0.18465 0.63742 0.0
H159 H 0.04868 0.1873 0.66448 0.0
H160 H 0.13437 0.22352 0.59932 0.0
C161 C 0.0822 0.17715 0.60265 0.0
C162 C 0.61819 0.41659 0.96278 0.0
C163 C 0.6425 0.38353 0.95043 0.0
C164 C 0.63343 0.37362 0.9256 0.0
C165 C 0.58683 0.43322 0.92475 0.0
C166 C 0.58948 0.44058 0.9495 0.0
C167 C 0.55703 0.47483 0.95889 0.0
H168 H 0.42763 0.63393 0.93036 0.0
C169 C 0.5586 0.46467 0.91561 0.0
C170 C 0.53994 0.48918 0.93544 0.0
H171 H 0.43095 0.59007 -0.00041 0.0
H172 H 0.48703 0.5379 0.98411 0.0
H173 H 0.52973 0.62166 0.91328 0.0
H174 H 0.40214 0.54774 0.90571 0.0
H175 H 0.4312 0.53812 0.87808 0.0
H176 H 0.41244 0.58857 0.8884 0.0
H177 H 0.48375 0.62771 0.89141 0.0
H178 H 0.53406 0.59491 0.88453 0.0
C179 C 0.58683 0.50739 0.97463 0.0
C180 C 0.51507 0.45717 0.9725 0.0
C181 C 0.56033 0.4776 0.8259 0.0
C182 C 0.53761 0.50463 0.81231 0.0
C183 C 0.51072 0.53626 0.82405 0.0
C184 C 0.50568 0.54067 0.84892 0.0
C185 C 0.52754 0.51303 0.86235 0.0
C186 C 0.55439 0.48218 0.85091 0.0
C187 C 0.57268 0.45462 0.86815 0.0
C188 C 0.5528 0.47471 0.89188 0.0
C189 C 0.527 0.50886 0.88819 0.0
C190 C 0.62845 0.45624 0.86772 0.0
C191 C 0.55051 0.41198 0.86081 0.0
C192 C 0.43949 0.61298 0.94237 0.0
C193 C 0.42476 0.6164 0.96632 0.0
C194 C 0.44262 0.58873 0.98121 0.0
C195 C 0.47412 0.55793 0.97202 0.0
C196 C 0.48606 0.55395 0.94748 0.0
C197 C 0.46781 0.5811 0.93323 0.0
C198 C 0.47773 0.57047 0.90718 0.0
C199 C 0.50675 0.53305 0.90784 0.0
C200 C 0.51235 0.52328 0.93141 0.0
C201 C 0.50758 0.60539 0.89844 0.0
C202 C 0.42858 0.56097 0.89396 0.0
H203 H 0.60331 0.39011 0.89383 0.0
H204 H 0.62213 0.42414 0.98201 0.0
H205 H 0.50397 0.42686 0.96366 0.0
H206 H 0.4822 0.4753 0.97261 0.0
H207 H 0.52578 0.45402 0.99131 0.0
H208 H 0.61926 0.5161 0.96484 0.0
H209 H 0.59905 0.4962 0.99149 0.0
H210 H 0.56615 0.53499 0.97957 0.0
H211 H 0.58068 0.45269 0.8172 0.0
H212 H 0.49336 0.55763 0.81388 0.0
H213 H 0.48452 0.56534 0.85662 0.0
H214 H 0.64178 0.48796 0.87028 0.0
H215 H 0.64196 0.44186 0.85021 0.0
H216 H 0.64538 0.44126 0.88202 0.0
H217 H 0.52028 0.41211 0.84765 0.0
H218 H 0.53445 0.39925 0.87634 0.0
H219 H 0.57781 0.39092 0.85243 0.0
H220 H 0.64781 0.34673 0.91573 0.0
C221 C 0.60687 0.39864 0.91274 0.0
C222 C 0.58379 0.66418 0.05188 0.0
C223 C 0.61255 0.69542 0.06402 0.0
C224 C 0.61475 0.70009 0.08928 0.0
C225 C 0.56004 0.64369 0.09028 0.0
C226 C 0.55739 0.63883 0.06545 0.0
C227 C 0.52359 0.60457 0.05611 0.0
H228 H 0.37386 0.45329 0.08305 0.0
C229 C 0.52928 0.61278 0.09929 0.0
C230 C 0.50774 0.58935 0.0794 0.0
H231 H 0.40905 0.48112 0.01211 0.0
H232 H 0.45962 0.53782 0.0296 0.0
H233 H 0.47617 0.45889 0.10212 0.0
H234 H 0.36142 0.54372 0.10793 0.0
H235 H 0.38908 0.54734 0.13641 0.0
H236 H 0.36247 0.50011 0.12358 0.0
H237 H 0.42949 0.45733 0.12388 0.0
H238 H 0.48443 0.48634 0.13052 0.0
C239 C 0.5523 0.57296 0.03985 0.0
C240 C 0.481 0.62216 0.04319 0.0
C241 C 0.52006 0.6061 0.18949 0.0
C242 C 0.49682 0.57907 0.20324 0.0
C243 C 0.46836 0.54751 0.19112 0.0
C244 C 0.46261 0.54322 0.16617 0.0
C245 C 0.48627 0.57019 0.15278 0.0
C246 C 0.51471 0.60077 0.16439 0.0
C247 C 0.53896 0.62519 0.14695 0.0
C248 C 0.51975 0.6044 0.12305 0.0
C249 C 0.48885 0.57248 0.12669 0.0
C250 C 0.59424 0.62028 0.14949 0.0
C251 C 0.52135 0.66908 0.15206 0.0
C252 C 0.39223 0.47176 0.07127 0.0
C253 C 0.38749 0.46328 0.04638 0.0
C254 C 0.41249 0.48735 0.03146 0.0
C255 C 0.44183 0.51996 0.04162 0.0
C256 C 0.44684 0.52758 0.06683 0.0
C257 C 0.42198 0.50342 0.08102 0.0
C258 C 0.43201 0.51394 0.10723 0.0
C259 C 0.46657 0.54902 0.10685 0.0
C260 C 0.47556 0.55722 0.08324 0.0
C261 C 0.45648 0.47735 0.11663 0.0
C262 C 0.38392 0.52674 0.11964 0.0
H263 H 0.5925 0.67972 0.12156 0.0
H264 H 0.58159 0.65993 0.03245 0.0
H265 H 0.46795 0.65 0.05386 0.0
H266 H 0.44962 0.60142 0.0409 0.0
H267 H 0.49217 0.6301 0.02537 0.0
H268 H 0.58869 0.56909 0.04766 0.0
H269 H 0.5572 0.58233 0.02168 0.0
H270 H 0.53519 0.54283 0.03796 0.0
H271 H 0.5421 0.63085 0.19795 0.0
H272 H 0.45118 0.52525 0.2008 0.0
H273 H 0.44031 0.51863 0.15831 0.0
H274 H 0.60299 0.58976 0.154 0.0
H275 H 0.60964 0.64247 0.16397 0.0
H276 H 0.61376 0.62284 0.13264 0.0
H277 H 0.48352 0.66994 0.15852 0.0
H278 H 0.52044 0.68476 0.13584 0.0
H279 H 0.54402 0.6868 0.16608 0.0
H280 H 0.6374 0.72337 0.09896 0.0
C281 C 0.58884 0.6745 0.1024 0.0
H282 H 0.09275 0.16031 0.03136 0.0
H283 H 0.12689 0.22866 0.03256 0.0
H284 H 0.24051 0.18298 0.98546 0.0
H285 H 0.20591 0.11529 0.98378 0.0
H286 H 0.26752 0.22039 0.03587 0.0
H287 H 0.1848 0.24405 0.96289 0.0
H288 H 0.12395 0.25947 0.93319 0.0
H289 H 0.06444 0.35001 0.98491 0.0
H290 H 0.12469 0.33483 0.01498 0.0
H291 H 0.41537 0.39255 0.0215 0.0
H292 H 0.36695 0.32999 0.01445 0.0
H293 H 0.24358 0.39284 0.04563 0.0
H294 H 0.29168 0.45498 0.05245 0.0
H295 H 0.21946 0.34718 0.00582 0.0
H296 H 0.30668 0.33081 0.07708 0.0
H297 H 0.37838 0.32834 0.10309 0.0
H298 H 0.43202 0.22886 0.05582 0.0
H299 H 0.36092 0.23109 0.02929 0.0
C300 C 0.12294 0.1654 0.01992 0.0
C301 C 0.14624 0.13264 0.00712 0.0
C302 C 0.14301 0.20432 0.02099 0.0
C303 C 0.18666 0.21068 0.00938 0.0
C304 C 0.20691 0.17869 0.99459 0.0
C305 C 0.18654 0.14012 0.99326 0.0
C306 C 0.21487 0.24863 0.01519 0.0
C307 C 0.25723 0.24812 0.02918 0.0
C308 C 0.2007 0.28504 0.00724 0.0
C309 C 0.15879 0.28797 0.99121 0.0
C310 C 0.15783 0.26638 0.96814 0.0
C311 C 0.12393 0.27552 0.95114 0.0
C312 C 0.09098 0.30622 0.95705 0.0
C313 C 0.0904 0.32662 0.98027 0.0
C314 C 0.12421 0.31761 0.99733 0.0
C315 C 0.37755 0.39301 0.02616 0.0
C316 C 0.35678 0.4285 0.03704 0.0
C317 C 0.35023 0.35723 0.02261 0.0
C318 C 0.30188 0.35661 0.02993 0.0
C319 C 0.28084 0.39253 0.03997 0.0
C320 C 0.30808 0.42807 0.04359 0.0
C321 C 0.27222 0.3191 0.02623 0.0
C322 C 0.2295 0.31965 0.01284 0.0
C323 C 0.28588 0.28305 0.03505 0.0
C324 C 0.32867 0.28143 0.05101 0.0
C325 C 0.33395 0.30863 0.07209 0.0
C326 C 0.37445 0.30723 0.08696 0.0
C327 C 0.40981 0.27854 0.08107 0.0
C328 C 0.40463 0.25111 0.06034 0.0
C329 C 0.3642 0.2524 0.04538 0.0
H330 H 0.44115 0.27752 0.0926 0.0
H331 H 0.06553 0.31395 0.94369 0.0
H332 H 0.14391 0.91697 0.96539 0.0
H333 H 0.18945 0.85385 0.96004 0.0
H334 H 0.21858 0.86554 0.0363 0.0
H335 H 0.174 0.92804 0.04154 0.0
H336 H 0.30043 0.85197 0.0106 0.0
H337 H 0.13734 0.79491 0.01033 0.0
H338 H 0.05379 0.78446 0.99509 0.0
H339 H 0.10642 0.74275 0.92481 0.0
H340 H 0.19022 0.7533 0.93961 0.0
H341 H 0.41886 0.66367 0.01036 0.0
H342 H 0.36508 0.72049 0.02071 0.0
H343 H 0.30083 0.69922 0.94975 0.0
H344 H 0.34875 0.6402 0.94082 0.0
H345 H 0.23574 0.71885 0.97571 0.0
H346 H 0.39681 0.77733 0.9721 0.0
H347 H 0.48204 0.78908 0.98434 0.0
H348 H 0.43877 0.83082 0.05627 0.0
H349 H 0.35333 0.81895 0.0445 0.0
C350 C 0.15903 0.90529 0.98095 0.0
C351 C 0.15544 0.927 0.00386 0.0
C352 C 0.18527 0.86955 0.97793 0.0
C353 C 0.20765 0.8552 0.99781 0.0
C354 C 0.20208 0.8762 0.02072 0.0
C355 C 0.17628 0.91167 0.0237 0.0
C356 C 0.23821 0.81905 0.99503 0.0
C357 C 0.2864 0.82271 0.00304 0.0
C358 C 0.22018 0.7812 0.98485 0.0
C359 C 0.16988 0.77518 0.97602 0.0
C360 C 0.13101 0.78378 0.9916 0.0
C361 C 0.08365 0.77777 0.98305 0.0
C362 C 0.0748 0.76301 0.95899 0.0
C363 C 0.1133 0.75419 0.94343 0.0
C364 C 0.16071 0.76013 0.95189 0.0
C365 C 0.39235 0.67061 0.99728 0.0
C366 C 0.38928 0.64796 0.97449 0.0
C367 C 0.36225 0.70366 0.00301 0.0
C368 C 0.32972 0.71526 0.98576 0.0
C369 C 0.32556 0.69148 0.96346 0.0
C370 C 0.35384 0.65784 0.95819 0.0
C371 C 0.29914 0.75155 0.99035 0.0
C372 C 0.25048 0.74799 0.98302 0.0
C373 C 0.3174 0.7897 0.00045 0.0
C374 C 0.36876 0.79677 0.00749 0.0
C375 C 0.40552 0.78876 0.99056 0.0
C376 C 0.45385 0.79549 0.99741 0.0
C377 C 0.46582 0.81055 0.02109 0.0
C378 C 0.42947 0.81906 0.03795 0.0
C379 C 0.3811 0.81236 0.0312 0.0
H380 H 0.50324 0.8157 0.02636 0.0
H381 H 0.03811 0.75836 0.95242 0.0
H382 H 0.97271 0.88554 0.98515 0.0
H383 H 0.91493 0.83542 0.99631 0.0
H384 H 0.85992 0.92289 0.05184 0.0
H385 H 0.91898 0.97224 0.04123 0.0
H386 H 0.84914 0.85369 0.06538 0.0
H387 H 0.80862 0.90788 0.9928 0.0
H388 H 0.81515 0.92517 0.95142 0.0
H389 H 0.82996 0.80038 0.92483 0.0
H390 H 0.82376 0.78238 0.96607 0.0
H391 H 0.61432 0.77693 0.071 0.0
H392 H 0.67807 0.82121 0.05892 0.0
H393 H 0.74335 0.72021 0.01698 0.0
H394 H 0.67944 0.67554 0.0292 0.0
H395 H 0.7482 0.79478 0.99604 0.0
H396 H 0.78434 0.74378 0.07157 0.0
H397 H 0.76878 0.73127 0.11328 0.0
H398 H 0.75383 0.85793 0.13436 0.0
H399 H 0.76881 0.87114 0.0927 0.0
C400 C 0.95057 0.89309 0.00083 0.0
C401 C 0.95049 0.93262 0.01245 0.0
C402 C 0.91643 0.86485 0.00669 0.0
C403 C 0.88157 0.87592 0.02417 0.0
C404 C 0.88592 0.91371 0.03802 0.0
C405 C 0.92053 0.94171 0.03234 0.0
C406 C 0.83899 0.84945 0.02703 0.0
C407 C 0.82696 0.84118 0.05018 0.0
C408 C 0.80978 0.83287 0.00722 0.0
C409 C 0.81639 0.84384 0.98258 0.0
C410 C 0.81392 0.88418 0.97817 0.0
C411 C 0.81731 0.89409 0.95472 0.0
C412 C 0.82308 0.8639 0.93551 0.0
C413 C 0.82557 0.82375 0.93972 0.0
C414 C 0.82209 0.81367 0.96312 0.0
C415 C 0.64158 0.76438 0.05868 0.0
C416 C 0.64243 0.7228 0.05125 0.0
C417 C 0.67804 0.78963 0.0519 0.0
C418 C 0.71598 0.77375 0.03757 0.0
C419 C 0.7145 0.7329 0.02823 0.0
C420 C 0.6779 0.70749 0.03507 0.0
C421 C 0.75907 0.79904 0.03424 0.0
C422 C 0.77086 0.80719 0.01108 0.0
C423 C 0.78739 0.81636 0.05406 0.0
C424 C 0.77731 0.80839 0.07899 0.0
C425 C 0.77728 0.76891 0.08506 0.0
C426 C 0.76869 0.76171 0.1087 0.0
C427 C 0.76027 0.79378 0.12645 0.0
C428 C 0.76035 0.83312 0.12059 0.0
C429 C 0.76892 0.84048 0.09698 0.0
H430 H 0.75376 0.78815 0.14475 0.0
H431 H 0.82552 0.87162 0.91737 0.0
H432 H 0.94935 0.12492 0.96658 0.0
H433 H 0.8963 0.18097 0.96405 0.0
H434 H 0.8895 0.20129 0.04146 0.0
H435 H 0.93937 0.1414 0.04383 0.0
H436 H 0.80073 0.20132 0.01968 0.0
H437 H 0.96098 0.25922 0.00269 0.0
H438 H 0.03288 0.24692 0.97758 0.0
H439 H 0.94729 0.25282 0.91397 0.0
H440 H 0.8744 0.26267 0.93854 0.0
H441 H 0.64758 0.36579 0.99776 0.0
H442 H 0.70857 0.32514 0.01511 0.0
H443 H 0.77703 0.304 0.9459 0.0
H444 H 0.72278 0.34887 0.93004 0.0
H445 H 0.8414 0.31377 0.97339 0.0
H446 H 0.69387 0.23625 0.97496 0.0
H447 H 0.61121 0.21992 0.98687 0.0
H448 H 0.657 0.22784 0.06064 0.0
H449 H 0.73974 0.24507 0.04924 0.0
C450 C 0.93778 0.14215 0.98311 0.0
C451 C 0.94903 0.12964 0.00541 0.0
C452 C 0.90734 0.17417 0.98165 0.0
C453 C 0.88992 0.19615 0.00258 0.0
C454 C 0.90313 0.18499 0.02511 0.0
C455 C 0.9323 0.15149 0.02653 0.0
C456 C 0.8561 0.22938 0.00052 0.0
C457 C 0.80958 0.22642 0.00991 0.0
C458 C 0.86712 0.26083 0.98666 0.0
C459 C 0.91216 0.26162 0.97254 0.0
C460 C 0.95757 0.25834 0.98338 0.0
C461 C 0.99841 0.2513 0.96918 0.0
C462 C 0.99462 0.24902 0.94417 0.0
C463 C 0.95014 0.25446 0.93332 0.0
C464 C 0.909 0.2606 0.94739 0.0
C465 C 0.67636 0.35317 0.98646 0.0
C466 C 0.67901 0.3599 0.96219 0.0
C467 C 0.71077 0.3293 0.99631 0.0
C468 C 0.74731 0.31076 0.98182 0.0
C469 C 0.74975 0.31788 0.95774 0.0
C470 C 0.7174 0.34302 0.94839 0.0
C471 C 0.78424 0.28444 0.99098 0.0
C472 C 0.83201 0.28915 0.98346 0.0
C473 C 0.77284 0.25242 0.00444 0.0
C474 C 0.72281 0.24286 0.01131 0.0
C475 C 0.68619 0.23508 0.99377 0.0
C476 C 0.63932 0.22556 0.00042 0.0
C477 C 0.62879 0.22309 0.02452 0.0
C478 C 0.66513 0.23 0.042 0.0
C479 C 0.71198 0.23975 0.03546 0.0
H480 H 0.59252 0.21565 0.02963 0.0
H481 H 0.02611 0.24296 0.93316 0.0
H482 H 0.72211 0.61734 0.48698 0.0
H483 H 0.75304 0.68631 0.49237 0.0
H484 H 0.62137 0.72587 0.52729 0.0
H485 H 0.59081 0.6559 0.52278 0.0
H486 H 0.67687 0.7755 0.48886 0.0
H487 H 0.68659 0.72244 0.56456 0.0
H488 H 0.70473 0.67422 0.59313 0.0
H489 H 0.85401 0.67601 0.57371 0.0
H490 H 0.83663 0.72359 0.54462 0.0
H491 H 0.78917 0.96036 0.54088 0.0
H492 H 0.73903 0.89923 0.53277 0.0
H493 H 0.86719 0.8285 0.52047 0.0
H494 H 0.91727 0.88986 0.52864 0.0
H495 H 0.80529 0.79718 0.55147 0.0
H496 H 0.7962 0.8444 0.47421 0.0
H497 H 0.78098 0.89343 0.44573 0.0
H498 H 0.63337 0.90188 0.468 0.0
H499 H 0.64794 0.85334 0.4969 0.0
C500 C 0.69867 0.641 0.49469 0.0
C501 C 0.65407 0.63142 0.50438 0.0
C502 C 0.71683 0.68022 0.49822 0.0
C503 C 0.69006 0.71071 0.51089 0.0
C504 C 0.64277 0.70237 0.51782 0.0
C505 C 0.62486 0.66265 0.51471 0.0
C506 C 0.71325 0.7505 0.51747 0.0
C507 C 0.70413 0.7807 0.50293 0.0
C508 C 0.74987 0.75648 0.53539 0.0
C509 C 0.76006 0.72616 0.55202 0.0
C510 C 0.72311 0.71197 0.56598 0.0
C511 C 0.73332 0.6849 0.5824 0.0
C512 C 0.78046 0.67194 0.58517 0.0
C513 C 0.81747 0.68597 0.5715 0.0
C514 C 0.80744 0.71297 0.55502 0.0
C515 C 0.80633 0.93183 0.53568 0.0
C516 C 0.85674 0.92961 0.53471 0.0
C517 C 0.77782 0.89697 0.53127 0.0
C518 C 0.79938 0.85932 0.52597 0.0
C519 C 0.84985 0.85725 0.52451 0.0
C520 C 0.87836 0.89221 0.5288 0.0
C521 C 0.76931 0.82205 0.52261 0.0
C522 C 0.77747 0.79225 0.53767 0.0
C523 C 0.73201 0.81625 0.50511 0.0
C524 C 0.72328 0.84561 0.48789 0.0
C525 C 0.76062 0.85703 0.4732 0.0
C526 C 0.75209 0.88466 0.45695 0.0
C527 C 0.70627 0.90085 0.4551 0.0
C528 C 0.66886 0.88938 0.46948 0.0
C529 C 0.67723 0.86181 0.4858 0.0
H530 H 0.69971 0.92219 0.44248 0.0
H531 H 0.78832 0.65115 0.59797 0.0
H532 H 0.64507 0.41765 0.46428 0.0
H533 H 0.69233 0.35549 0.45903 0.0
H534 H 0.71503 0.36437 0.53572 0.0
H535 H 0.66852 0.42589 0.54089 0.0
H536 H 0.79929 0.35169 0.51192 0.0
H537 H 0.63664 0.29401 0.50726 0.0
H538 H 0.55422 0.28449 0.49038 0.0
H539 H 0.61192 0.24693 0.42058 0.0
H540 H 0.69463 0.25659 0.43703 0.0
H541 H 0.91646 0.16148 0.50955 0.0
H542 H 0.86337 0.21866 0.52007 0.0
H543 H 0.8045 0.20249 0.44791 0.0
H544 H 0.85107 0.14296 0.43873 0.0
H545 H 0.73754 0.22005 0.47301 0.0
H546 H 0.89942 0.27922 0.47444 0.0
H547 H 0.98336 0.28959 0.48911 0.0
H548 H 0.93279 0.32671 0.56037 0.0
H549 H 0.84858 0.31615 0.54617 0.0
C550 C 0.65894 0.40546 0.47994 0.0
C551 C 0.6528 0.42609 0.50296 0.0
C552 C 0.68634 0.37032 0.47698 0.0
C553 C 0.7075 0.35548 0.49703 0.0
C554 C 0.69954 0.3754 0.52002 0.0
C555 C 0.67246 0.41023 0.52294 0.0
C556 C 0.73844 0.31947 0.49435 0.0
C557 C 0.78592 0.32276 0.50345 0.0
C558 C 0.72128 0.282 0.48312 0.0
C559 C 0.67165 0.27628 0.47332 0.0
C560 C 0.63167 0.28396 0.48829 0.0
C561 C 0.58494 0.27848 0.47881 0.0
C562 C 0.57784 0.26517 0.45442 0.0
C563 C 0.61746 0.25725 0.43946 0.0
C564 C 0.66423 0.26267 0.44885 0.0
C565 C 0.89136 0.16963 0.49618 0.0
C566 C 0.88945 0.14808 0.47303 0.0
C567 C 0.86165 0.20294 0.50204 0.0
C568 C 0.83069 0.21602 0.48459 0.0
C569 C 0.82798 0.19361 0.46181 0.0
C570 C 0.8557 0.15967 0.45638 0.0
C571 C 0.79978 0.25212 0.48949 0.0
C572 C 0.75171 0.24888 0.48118 0.0
C573 C 0.81712 0.28982 0.50084 0.0
C574 C 0.86775 0.29643 0.50929 0.0
C575 C 0.90624 0.28937 0.49326 0.0
C576 C 0.95385 0.29531 0.50149 0.0
C577 C 0.96341 0.30866 0.52567 0.0
C578 C 0.92535 0.31628 0.54166 0.0
C579 C 0.87768 0.31034 0.53353 0.0
H580 H 0.00029 0.31319 0.53201 0.0
H581 H 0.54163 0.26094 0.44711 0.0
H582 H 0.38298 0.43413 0.47576 0.0
H583 H 0.33556 0.37937 0.48794 0.0
H584 H 0.40869 0.39262 0.55669 0.0
H585 H 0.45666 0.44984 0.54467 0.0
H586 H 0.38076 0.30383 0.51967 0.0
H587 H 0.32437 0.42364 0.56909 0.0
H588 H 0.30233 0.49508 0.57526 0.0
H589 H 0.19286 0.4732 0.52045 0.0
H590 H 0.2152 0.40178 0.51346 0.0
H591 H 0.20834 0.19049 0.57339 0.0
H592 H 0.27062 0.23503 0.56116 0.0
H593 H 0.16786 0.28593 0.51552 0.0
H594 H 0.10405 0.24204 0.52898 0.0
H595 H 0.21405 0.34329 0.54252 0.0
H596 H 0.26597 0.22745 0.49206 0.0
H597 H 0.28596 0.1559 0.48232 0.0
H598 H 0.40077 0.16962 0.53466 0.0
H599 H 0.3812 0.24117 0.54487 0.0
C600 C 0.38941 0.42557 0.49353 0.0
C601 C 0.42256 0.44691 0.50957 0.0
C602 C 0.36243 0.39402 0.50032 0.0
C603 C 0.36821 0.38266 0.52323 0.0
C604 C 0.40377 0.40159 0.53893 0.0
C605 C 0.43104 0.43397 0.53211 0.0
C606 C 0.33356 0.35296 0.53041 0.0
C607 C 0.34466 0.31222 0.52541 0.0
C608 C 0.28582 0.36442 0.53624 0.0
C609 C 0.27197 0.40738 0.54053 0.0
C610 C 0.29609 0.43414 0.55809 0.0
C611 C 0.28345 0.47464 0.56178 0.0
C612 C 0.24632 0.48871 0.5482 0.0
C613 C 0.2217 0.46228 0.53092 0.0
C614 C 0.23438 0.42178 0.52708 0.0
C615 C 0.19928 0.21061 0.56035 0.0
C616 C 0.15164 0.2132 0.5522 0.0
C617 C 0.23498 0.23587 0.55321 0.0
C618 C 0.22415 0.26359 0.53723 0.0
C619 C 0.17697 0.26467 0.52787 0.0
C620 C 0.14076 0.23946 0.53532 0.0
C621 C 0.26135 0.29366 0.53247 0.0
C622 C 0.25033 0.33456 0.5373 0.0
C623 C 0.30898 0.28234 0.52607 0.0
C624 C 0.32197 0.23965 0.51931 0.0
C625 C 0.29543 0.2152 0.50152 0.0
C626 C 0.30667 0.17463 0.49592 0.0
C627 C 0.34455 0.15821 0.5079 0.0
C628 C 0.37145 0.18239 0.52539 0.0
C629 C 0.3604 0.22298 0.53104 0.0
H630 H 0.35309 0.12677 0.5036 0.0
H631 H 0.23653 0.52005 0.55111 0.0
H632 H 0.405 0.60794 0.52681 0.0
H633 H 0.3451 0.65995 0.52295 0.0
H634 H 0.44318 0.71863 0.47856 0.0
H635 H 0.50269 0.66625 0.48218 0.0
H636 H 0.39818 0.77139 0.51102 0.0
H637 H 0.35665 0.6602 0.45303 0.0
H638 H 0.33354 0.59127 0.43596 0.0
H639 H 0.20444 0.59818 0.4778 0.0
H640 H 0.22713 0.66696 0.49546 0.0
H641 H 0.2458 0.88915 0.4487 0.0
H642 H 0.30245 0.84197 0.46245 0.0
H643 H 0.18848 0.78948 0.50099 0.0
H644 H 0.13076 0.83626 0.48621 0.0
H645 H 0.23833 0.73264 0.4743 0.0
H646 H 0.28446 0.84808 0.53124 0.0
H647 H 0.30895 0.91884 0.54311 0.0
H648 H 0.43211 0.90356 0.49723 0.0
H649 H 0.40819 0.83283 0.485 0.0
C650 C 0.41445 0.63308 0.51721 0.0
C651 C 0.45884 0.63417 0.50547 0.0
C652 C 0.37988 0.66211 0.51452 0.0
C653 C 0.3895 0.69264 0.50014 0.0
C654 C 0.4351 0.69517 0.48967 0.0
C655 C 0.46939 0.66584 0.49211 0.0
C656 C 0.35227 0.72222 0.49604 0.0
C657 C 0.36327 0.7629 0.50291 0.0
C658 C 0.30657 0.7109 0.48564 0.0
C659 C 0.29407 0.66865 0.47593 0.0
C660 C 0.32376 0.64684 0.45895 0.0
C661 C 0.3106 0.60782 0.44905 0.0
C662 C 0.26765 0.5903 0.45586 0.0
C663 C 0.23779 0.61174 0.4726 0.0
C664 C 0.25081 0.65074 0.48257 0.0
C665 C 0.2331 0.86815 0.46058 0.0
C666 C 0.18415 0.86635 0.46655 0.0
C667 C 0.26551 0.84125 0.4685 0.0
C668 C 0.24993 0.81243 0.48302 0.0
C669 C 0.20129 0.81161 0.48988 0.0
C670 C 0.16853 0.83855 0.48173 0.0
C671 C 0.28416 0.78182 0.48956 0.0
C672 C 0.2728 0.74095 0.48293 0.0
C673 C 0.33001 0.79281 0.49974 0.0
C674 C 0.34445 0.83526 0.50718 0.0
C675 C 0.31665 0.85989 0.52363 0.0
C676 C 0.33046 0.89997 0.53043 0.0
C677 C 0.37203 0.91569 0.52092 0.0
C678 C 0.39995 0.89135 0.50461 0.0
C679 C 0.38637 0.85125 0.49779 0.0
H680 H 0.38264 0.94673 0.5262 0.0
H681 H 0.25743 0.56017 0.44811 0.0
H682 H 0.04391 0.08618 0.09774 0.0
H683 H 0.03779 0.07644 0.14019 0.0
H684 H 0.04809 0.94818 0.12112 0.0
H685 H 0.0528 0.95803 0.07853 0.0
H686 H 0.98761 0.96517 0.15778 0.0
H687 H 0.14967 0.00656 0.13954 0.0
H688 H 0.21364 0.04985 0.12558 0.0
H689 H 0.16789 0.14871 0.17577 0.0
H690 H 0.10348 0.1061 0.1899 0.0
H691 H 0.04605 0.93379 0.27832 0.0
H692 H 0.05148 0.933 0.23462 0.0
H693 H 0.05265 0.06277 0.2433 0.0
H694 H 0.05048 0.0637 0.2866 0.0
H695 H 0.11197 0.03868 0.21079 0.0
H696 H 0.94772 0.00129 0.22767 0.0
H697 H 0.88276 0.95995 0.24245 0.0
H698 H 0.92941 0.85715 0.19563 0.0
H699 H 0.99501 0.89779 0.18078 0.0
C700 C 0.04276 0.05588 0.10263 0.0
C701 C 0.04781 0.02279 0.08506 0.0
C702 C 0.04018 0.05034 0.12684 0.0
C703 C 0.04383 0.01166 0.13384 0.0
C704 C 0.04548 0.9783 0.11611 0.0
C705 C 0.04758 0.98385 0.09182 0.0
C706 C 0.04826 0.00629 0.1596 0.0
C707 C 0.01519 0.98082 0.16934 0.0
C708 C 0.08385 0.02719 0.17475 0.0
C709 C 0.1215 0.05321 0.16562 0.0
C710 C 0.15296 0.03764 0.14742 0.0
C711 C 0.1894 0.06202 0.13954 0.0
C712 C 0.19478 0.10201 0.14976 0.0
C713 C 0.16369 0.11774 0.16786 0.0
C714 C 0.12725 0.09347 0.17583 0.0
C715 C 0.04841 0.96207 0.27086 0.0
C716 C 0.04693 -0.00119 0.28587 0.0
C717 C 0.05086 0.9616 0.24589 0.0
C718 C 0.05128 -0.00216 0.23562 0.0
C719 C 0.05196 0.0344 0.25072 0.0
C720 C 0.05022 0.03488 0.27552 0.0
C721 C 0.05041 -0.00153 0.2092 0.0
C722 C 0.08445 0.02287 0.19927 0.0
C723 C 0.01532 0.97705 0.194 0.0
C724 C 0.97659 0.95245 0.20333 0.0
C725 C 0.94441 0.96977 0.22071 0.0
C726 C 0.90742 0.94649 0.22906 0.0
C727 C 0.90204 0.90592 0.22003 0.0
C728 C 0.93367 0.88855 0.20264 0.0
C729 C 0.97075 0.91168 0.19426 0.0
H730 H 0.8733 0.88798 0.22647 0.0
H731 H 0.22309 0.1208 0.14367 0.0
H732 H 0.01763 0.97587 0.91067 0.0
H733 H 0.01779 0.99127 0.86961 0.0
H734 H 0.08556 0.10639 0.89267 0.0
H735 H 0.08234 0.09177 0.93475 0.0
H736 H 0.01026 0.11343 0.86185 0.0
H737 H 0.14811 0.02397 0.86041 0.0
H738 H 0.18706 0.96101 0.86817 0.0
H739 H 0.08149 0.89235 0.82341 0.0
H740 H 0.04166 0.9548 0.8156 0.0
H741 H 0.02464 0.1403 0.73663 0.0
H742 H 0.04267 0.13713 0.77908 0.0
H743 H 0.99731 0.01245 0.77095 0.0
H744 H 0.98448 0.01404 0.72848 0.0
H745 H 0.07221 0.01779 0.79516 0.0
H746 H 0.92871 0.09642 0.79824 0.0
H747 H 0.87915 0.15366 0.78986 0.0
H748 H 0.97803 0.23549 0.8307 0.0
H749 H 0.02877 0.17877 0.83893 0.0
C750 C 0.03407 0.00398 0.90697 0.0
C751 C 0.05081 0.0323 0.92585 0.0
C752 C 0.034 0.01285 0.88341 0.0
C753 C 0.05243 0.04974 0.87784 0.0
C754 C 0.07144 0.07759 0.89652 0.0
C755 C 0.07063 0.06893 0.92045 0.0
C756 C 0.04985 0.05896 0.85253 0.0
C757 C 0.02465 0.09302 0.84723 0.0
C758 C 0.06687 0.03152 0.83337 0.0
C759 C 0.09198 0.99409 0.83743 0.0
C760 C 0.13326 0.99544 0.85223 0.0
C761 C 0.15543 0.95983 0.85665 0.0
C762 C 0.13677 0.92271 0.84629 0.0
C763 C 0.09597 0.92111 0.8314 0.0
C764 C 0.07368 0.9566 0.82691 0.0
C765 C 0.01919 0.11201 0.74376 0.0
C766 C 0.00255 0.07753 0.72889 0.0
C767 C 0.02878 0.11046 0.76822 0.0
C768 C 0.02072 0.0747 0.77844 0.0
C769 C 0.00385 0.04049 0.76364 0.0
C770 C 0.99565 0.04168 0.73923 0.0
C771 C 0.0314 0.07162 0.80424 0.0
C772 C 0.05828 0.0387 0.80967 0.0
C773 C 0.01418 0.09925 0.82332 0.0
C774 C 0.98296 0.13333 0.81893 0.0
C775 C 0.94011 0.12663 0.8053 0.0
C776 C 0.91179 0.159 0.80057 0.0
C777 C 0.92555 0.19821 0.80965 0.0
C778 C 0.96751 0.20511 0.8236 0.0
C779 C 0.99607 0.17285 0.82831 0.0
H780 H 0.90361 0.22322 0.80595 0.0
H781 H 0.15393 0.8952 0.84979 0.0
H782 H 0.63962 0.51142 0.59463 0.0
H783 H 0.62604 0.49907 0.63541 0.0
H784 H 0.47274 0.51138 0.62539 0.0
H785 H 0.4866 0.52561 0.58371 0.0
H786 H 0.50598 0.55568 0.66605 0.0
H787 H 0.52526 0.4166 0.63266 0.0
H788 H 0.5655 0.3609 0.60812 0.0
H789 H 0.69586 0.3858 0.64945 0.0
H790 H 0.65651 0.44172 0.67415 0.0
H791 H 0.4623 0.50221 0.78119 0.0
H792 H 0.46501 0.5007 0.73759 0.0
H793 H 0.62027 0.49483 0.74018 0.0
H794 H 0.6176 0.49601 0.78408 0.0
H795 H 0.58093 0.44408 0.70298 0.0
H796 H 0.56992 0.58177 0.7344 0.0
H797 H 0.53756 0.64075 0.75936 0.0
H798 H 0.40161 0.62364 0.72207 0.0
H799 H 0.4329 0.56411 0.69712 0.0
C800 C 0.60278 0.51153 0.6009 0.0
C801 C 0.56422 0.5204 0.58606 0.0
C802 C 0.59505 0.50373 0.62425 0.0
C803 C 0.54838 0.50358 0.63344 0.0
C804 C 0.50914 0.51109 0.61854 0.0
C805 C 0.51697 0.51911 0.59481 0.0
C806 C 0.54233 0.49912 0.65923 0.0
C807 C 0.52108 0.53069 0.67405 0.0
C808 C 0.56446 0.46756 0.66982 0.0
C809 C 0.5879 0.43341 0.65522 0.0
C810 C 0.56253 0.41024 0.63647 0.0
C811 C 0.58519 0.37861 0.62255 0.0
C812 C 0.63321 0.36984 0.62721 0.0
C813 C 0.65864 0.39257 0.64588 0.0
C814 C 0.63612 0.42414 0.6599 0.0
C815 C 0.49698 0.50044 0.77242 0.0
C816 C 0.53979 0.49964 0.78587 0.0
C817 C 0.49848 0.49967 0.74758 0.0
C818 C 0.54284 0.49842 0.73578 0.0
C819 C 0.58569 0.49597 0.74904 0.0
C820 C 0.58417 0.49654 0.774 0.0
C821 C 0.54403 0.50028 0.7096 0.0
C822 C 0.56487 0.46857 0.69487 0.0
C823 C 0.52249 0.53211 0.69915 0.0
C824 C 0.50361 0.56814 0.71404 0.0
C825 C 0.53298 0.59034 0.73165 0.0
C826 C 0.51486 0.62392 0.74578 0.0
C827 C 0.46751 0.63587 0.74235 0.0
C828 C 0.43825 0.61431 0.72473 0.0
C829 C 0.45618 0.58065 0.71057 0.0
H830 H 0.45354 0.66187 0.7533 0.0
H831 H 0.6507 0.34541 0.61637 0.0
H832 H 0.48418 0.4852 0.41091 0.0
H833 H 0.48413 0.50502 0.37127 0.0
H834 H 0.60456 0.58578 0.39035 0.0
H835 H 0.6021 0.5684 0.43195 0.0
H836 H 0.53954 0.61919 0.36203 0.0
H837 H 0.6179 0.49012 0.35582 0.0
H838 H 0.62462 0.4193 0.36315 0.0
H839 H 0.49153 0.39024 0.32486 0.0
H840 H 0.48368 0.4609 0.31756 0.0
H841 H 0.57685 0.60612 0.23054 0.0
H842 H 0.58965 0.60442 0.27357 0.0
H843 H 0.44669 0.55481 0.27925 0.0
H844 H 0.43178 0.55924 0.23684 0.0
H845 H 0.53553 0.50897 0.29435 0.0
H846 H 0.45018 0.63335 0.30395 0.0
H847 H 0.43629 0.70277 0.29562 0.0
H848 H 0.57441 0.73947 0.32659 0.0
H849 H 0.58966 0.6699 0.33459 0.0
C850 C 0.51122 0.50708 0.40703 0.0
C851 C 0.54369 0.52484 0.4249 0.0
C852 C 0.51115 0.51827 0.38402 0.0
C853 C 0.54523 0.54598 0.37741 0.0
C854 C 0.57818 0.56391 0.39495 0.0
C855 C 0.57724 0.55359 0.41861 0.0
C856 C 0.54545 0.55519 0.35204 0.0
C857 C 0.53991 0.59517 0.34722 0.0
C858 C 0.54448 0.52379 0.33258 0.0
C859 C 0.55024 0.48089 0.33617 0.0
C860 C 0.59008 0.46863 0.34897 0.0
C861 C 0.59404 0.42851 0.35315 0.0
C862 C 0.55852 0.4003 0.34449 0.0
C863 C 0.51906 0.4121 0.33153 0.0
C864 C 0.51491 0.45216 0.32731 0.0
C865 C 0.54743 0.59602 0.24096 0.0
C866 C 0.50345 0.58219 0.22987 0.0
C867 C 0.55506 0.59483 0.26557 0.0
C868 C 0.51921 0.57926 0.27943 0.0
C869 C 0.47486 0.56673 0.26874 0.0
C870 C 0.46671 0.56886 0.24435 0.0
C871 C 0.52915 0.57252 0.30456 0.0
C872 C 0.53644 0.53299 0.30919 0.0
C873 C 0.531 0.60413 0.32367 0.0
C874 C 0.52143 0.64623 0.31952 0.0
C875 C 0.47789 0.65608 0.30872 0.0
C876 C 0.46971 0.69548 0.3041 0.0
C877 C 0.50455 0.72548 0.31047 0.0
C878 C 0.54753 0.71615 0.3216 0.0
C879 C 0.55596 0.67672 0.32618 0.0
H880 H 0.49818 0.75597 0.30687 0.0
H881 H 0.56159 0.3693 0.34781 0.0
loop_
_geom_bond_atom_site_label_1
_geom_bond_atom_site_label_2
_geom_bond_distance
_geom_bond_site_symmetry_2
_ccdc_geom_bond_type
O0 Mn1 2.163 . S
O0 C14 1.244 1_455 S
Mn1 O0 2.163 . S
Mn1 O4 2.160 1_545 S
Mn1 O5 2.221 . S
Mn1 O7 2.163 . S
Mn1 O9 2.160 1_554 S
Mn1 O19 2.221 1_444 S
O2 Mn3 2.087 . S
O2 C14 1.256 1_556 S
Mn3 O2 2.087 . S
Mn3 O10 2.089 . S
Mn3 O19 2.290 1_545 S
Mn3 O20 2.251 1_546 S
O4 Mn1 2.160 1_565 S
O4 C15 1.253 . S
O5 Mn1 2.221 . S
O5 Mn6 2.290 . S
O5 C16 1.278 . S
Mn6 O5 2.290 . S
Mn6 O8 2.089 1_545 S
Mn6 O11 2.251 . S
Mn6 O12 2.087 . S
O7 Mn1 2.163 . S
O7 C17 1.244 . S
O8 Mn6 2.089 1_565 S
O8 C15 1.256 . S
O9 Mn1 2.160 1_556 S
O9 C18 1.239 . S
O10 Mn3 2.089 . S
O10 C18 1.256 1_655 S
O11 Mn6 2.251 . S
O11 C16 1.241 . S
O12 Mn6 2.087 . S
O12 C17 1.256 . S
C13 O19 1.278 1_554 S
C13 O20 1.241 . S
C14 O0 1.244 1_655 S
C14 O2 1.256 1_554 S
C15 O4 1.253 . S
C15 O8 1.256 . S
C16 O5 1.278 . S
C16 O11 1.241 . S
C17 O7 1.244 . S
C17 O12 1.256 . S
C18 O9 1.239 . S
C18 O10 1.256 1_455 S
O19 Mn1 2.221 1_666 S
O19 Mn3 2.290 1_565 S
O19 C13 1.278 1_556 S
O20 Mn3 2.251 1_564 S
O20 C13 1.241 . S
O21 Mn22 2.163 . S
O21 C35 1.244 . S
Mn22 O21 2.163 . S
Mn22 O25 2.160 . S
Mn22 O26 2.221 . S
Mn22 O28 2.163 . S
Mn22 O30 2.160 . S
Mn22 O40 2.221 . S
O23 Mn24 2.087 . S
O23 C35 1.256 . S
Mn24 O23 2.087 . S
Mn24 O31 2.089 . S
Mn24 O40 2.290 . S
Mn24 O41 2.251 . S
O25 Mn22 2.160 . S
O25 C36 1.239 . S
O26 Mn22 2.221 . S
O26 Mn27 2.290 . S
O26 C37 1.278 . S
Mn27 O26 2.290 . S
Mn27 O29 2.089 . S
Mn27 O32 2.251 . S
Mn27 O33 2.087 . S
O28 Mn22 2.163 . S
O28 C38 1.244 . S
O29 Mn27 2.089 . S
O29 C36 1.256 . S
O30 Mn22 2.160 . S
O30 C39 1.239 . S
O31 Mn24 2.089 . S
O31 C39 1.256 . S
O32 Mn27 2.251 . S
O32 C37 1.241 . S
O33 Mn27 2.087 . S
O33 C38 1.256 . S
C34 O40 1.278 . S
C34 O41 1.241 . S
C35 O21 1.244 . S
C35 O23 1.256 . S
C36 O25 1.239 . S
C36 O29 1.256 . S
C37 O26 1.278 . S
C37 O32 1.241 . S
C38 O28 1.244 . S
C38 O33 1.256 . S
C39 O30 1.239 . S
C39 O31 1.256 . S
O40 Mn22 2.221 . S
O40 Mn24 2.290 . S
O40 C34 1.278 . S
O41 Mn24 2.251 . S
O41 C34 1.241 . S
C42 C43 1.391 . S
C42 C46 1.391 . S
C42 H84 0.948 . S
C43 C42 1.391 . S
C43 C44 1.391 . S
C44 C43 1.391 . S
C44 H100 0.947 . S
C44 C101 1.392 . S
C45 C46 1.391 . S
C45 C49 1.397 . S
C45 C101 1.419 . S
C46 C42 1.391 . S
C46 C45 1.391 . S
C46 C47 1.399 . S
C47 C46 1.399 . S
C47 C50 1.396 . S
C47 C59 1.453 1_565 S
C47 C60 1.684 . S
H48 C72 0.948 . S
C49 C45 1.397 . S
C49 C50 1.394 . S
C49 C68 1.723 . S
C50 C47 1.396 . S
C50 C49 1.394 . S
C50 C80 1.723 1_565 S
H51 C74 0.947 . S
H52 C75 0.948 . S
H53 C81 0.982 1_455 S
H54 C82 0.979 . S
H55 C82 0.980 . S
H56 C82 0.983 . S
H57 C81 0.979 . S
H58 C81 0.977 . S
C59 C47 1.453 1_545 S
C59 H88 0.982 . S
C59 H89 0.979 1_545 S
C59 H90 0.977 . S
C60 C47 1.684 . S
C60 H85 0.979 1_455 S
C60 H86 0.980 . S
C60 H87 0.983 . S
C61 C62 1.390 1_565 S
C61 C66 1.391 . S
C61 H91 0.948 . S
C62 C61 1.390 1_545 S
C62 C63 1.392 . S
C63 C62 1.392 . S
C63 C64 1.392 . S
C63 H92 0.947 1_455 S
C64 C63 1.392 . S
C64 C65 1.419 . S
C64 H93 0.948 1_455 S
C65 C64 1.419 . S
C65 C66 1.391 1_545 S
C65 C69 1.397 . S
C66 C61 1.391 . S
C66 C65 1.391 1_565 S
C66 C67 1.399 . S
C67 C66 1.399 . S
C67 C68 1.396 . S
C67 C70 1.453 . S
C67 C71 1.684 . S
C68 C49 1.723 . S
C68 C67 1.396 . S
C68 C69 1.394 1_565 S
C69 C65 1.397 . S
C69 C68 1.394 1_545 S
C69 C79 1.723 . S
C70 C67 1.453 . S
C70 H94 0.982 . S
C70 H95 0.979 . S
C70 H96 0.977 . S
C71 C67 1.684 . S
C71 H97 0.979 . S
C71 H98 0.980 . S
C71 H99 0.983 . S
C72 H48 0.948 . S
C72 C73 1.391 . S
C72 C77 1.391 . S
C73 C72 1.391 . S
C73 C74 1.391 . S
C74 H51 0.947 . S
C74 C73 1.391 . S
C74 C75 1.392 . S
C75 H52 0.948 . S
C75 C74 1.392 . S
C75 C76 1.419 . S
C76 C75 1.419 . S
C76 C77 1.391 . S
C76 C80 1.397 1_655 S
C77 C72 1.391 . S
C77 C76 1.391 . S
C77 C78 1.399 . S
C78 C77 1.399 . S
C78 C79 1.396 1_655 S
C78 C81 1.453 . S
C78 C82 1.684 . S
C79 C69 1.723 . S
C79 C78 1.396 1_455 S
C79 C80 1.394 . S
C80 C50 1.723 1_545 S
C80 C76 1.397 1_455 S
C80 C79 1.394 . S
C81 H53 0.982 1_655 S
C81 H57 0.979 . S
C81 H58 0.977 . S
C81 C78 1.453 . S
C82 H54 0.979 . S
C82 H55 0.980 . S
C82 H56 0.983 . S
C82 C78 1.684 . S
H83 C101 0.948 . S
H84 C42 0.948 . S
H85 C60 0.979 1_655 S
H86 C60 0.980 . S
H87 C60 0.983 . S
H88 C59 0.982 . S
H89 C59 0.979 1_565 S
H90 C59 0.977 . S
H91 C61 0.948 . S
H92 C63 0.947 1_655 S
H93 C64 0.948 1_655 S
H94 C70 0.982 . S
H95 C70 0.979 . S
H96 C70 0.977 . S
H97 C71 0.979 . S
H98 C71 0.980 . S
H99 C71 0.983 . S
H100 C44 0.947 . S
C101 C44 1.392 . S
C101 C45 1.419 . S
C101 H83 0.948 . S
C102 C103 1.391 . S
C102 C106 1.391 . S
C102 H144 0.948 . S
C103 C102 1.391 . S
C103 C104 1.391 . S
C104 C103 1.391 . S
C104 H160 0.947 . S
C104 C161 1.392 . S
C105 C106 1.391 . S
C105 C109 1.397 . S
C105 C161 1.419 . S
C106 C102 1.391 . S
C106 C105 1.391 . S
C106 C107 1.399 . S
C107 C106 1.399 . S
C107 C110 1.396 . S
C107 C119 1.453 . S
C107 C120 1.684 1_455 S
H108 C132 0.948 . S
C109 C105 1.397 . S
C109 C110 1.394 . S
C109 C128 1.723 . S
C110 C107 1.396 . S
C110 C109 1.394 . S
C110 C140 1.723 1_455 S
H111 C134 0.947 . S
H112 C135 0.948 . S
H113 C141 0.982 . S
H114 C142 0.979 . S
H115 C142 0.980 . S
H116 C142 0.983 1_565 S
H117 C141 0.979 . S
H118 C141 0.977 . S
C119 C107 1.453 . S
C119 H148 0.982 . S
C119 H149 0.979 . S
C119 H150 0.977 . S
C120 C107 1.684 1_655 S
C120 H145 0.979 . S
C120 H146 0.980 . S
C120 H147 0.983 . S
C121 C122 1.391 1_455 S
C121 C126 1.391 . S
C121 H151 0.948 . S
C122 C121 1.391 1_655 S
C122 C123 1.391 . S
C123 C122 1.391 . S
C123 C124 1.392 . S
C123 H152 0.947 . S
C124 C123 1.392 . S
C124 C125 1.419 . S
C124 H153 0.948 . S
C125 C124 1.419 . S
C125 C126 1.391 1_655 S
C125 C129 1.397 . S
C126 C121 1.391 . S
C126 C125 1.391 1_455 S
C126 C127 1.399 . S
C127 C126 1.399 . S
C127 C128 1.396 . S
C127 C130 1.453 . S
C127 C131 1.684 . S
C128 C109 1.723 . S
C128 C127 1.396 . S
C128 C129 1.394 1_455 S
C129 C125 1.397 . S
C129 C128 1.394 1_655 S
C129 C139 1.723 . S
C130 C127 1.453 . S
C130 H154 0.982 . S
C130 H155 0.979 . S
C130 H156 0.977 . S
C131 C127 1.684 . S
C131 H157 0.979 . S
C131 H158 0.980 . S
C131 H159 0.983 . S
C132 H108 0.948 . S
C132 C133 1.391 . S
C132 C137 1.391 1_565 S
C133 C132 1.391 . S
C133 C134 1.391 . S
C134 H111 0.947 . S
C134 C133 1.391 . S
C134 C135 1.392 1_565 S
C135 H112 0.948 . S
C135 C134 1.392 1_545 S
C135 C136 1.419 . S
C136 C135 1.419 . S
C136 C137 1.391 . S
C136 C140 1.397 . S
C137 C132 1.391 1_545 S
C137 C136 1.391 . S
C137 C138 1.399 . S
C138 C137 1.399 . S
C138 C139 1.396 . S
C138 C141 1.453 1_545 S
C138 C142 1.684 . S
C139 C129 1.723 . S
C139 C138 1.396 . S
C139 C140 1.394 . S
C140 C110 1.723 1_655 S
C140 C136 1.397 . S
C140 C139 1.394 . S
C141 H113 0.982 . S
C141 H117 0.979 . S
C141 H118 0.977 . S
C141 C138 1.453 1_565 S
C142 H114 0.979 . S
C142 H115 0.980 . S
C142 H116 0.983 1_545 S
C142 C138 1.684 . S
H143 C161 0.948 . S
H144 C102 0.948 . S
H145 C120 0.979 . S
H146 C120 0.980 . S
H147 C120 0.983 . S
H148 C119 0.982 . S
H149 C119 0.979 . S
H150 C119 0.977 . S
H151 C121 0.948 . S
H152 C123 0.947 . S
H153 C124 0.948 . S
H154 C130 0.982 . S
H155 C130 0.979 . S
H156 C130 0.977 . S
H157 C131 0.979 . S
H158 C131 0.980 . S
H159 C131 0.983 . S
H160 C104 0.947 . S
C161 C104 1.392 . S
C161 C105 1.419 . S
C161 H143 0.948 . S
C162 C163 1.391 . S
C162 C166 1.391 . S
C162 H204 0.948 . S
C163 C162 1.391 . S
C163 C164 1.391 . S
C164 C163 1.391 . S
C164 H220 0.947 . S
C164 C221 1.392 . S
C165 C166 1.391 . S
C165 C169 1.397 . S
C165 C221 1.419 . S
C166 C162 1.391 . S
C166 C165 1.391 . S
C166 C167 1.399 . S
C167 C166 1.399 . S
C167 C170 1.396 . S
C167 C179 1.453 . S
C167 C180 1.684 . S
H168 C192 0.948 . S
C169 C165 1.397 . S
C169 C170 1.394 . S
C169 C188 1.723 . S
C170 C167 1.396 . S
C170 C169 1.394 . S
C170 C200 1.723 . S
H171 C194 0.947 1_554 S
H172 C195 0.948 . S
H173 C201 0.982 . S
H174 C202 0.979 . S
H175 C202 0.980 . S
H176 C202 0.983 . S
H177 C201 0.979 . S
H178 C201 0.977 . S
C179 C167 1.453 . S
C179 H208 0.982 . S
C179 H209 0.979 . S
C179 H210 0.977 . S
C180 C167 1.684 . S
C180 H205 0.979 . S
C180 H206 0.980 . S
C180 H207 0.987 1_556 S
C181 C182 1.391 . S
C181 C186 1.391 . S
C181 H211 0.948 . S
C182 C181 1.391 . S
C182 C183 1.391 . S
C183 C182 1.391 . S
C183 C184 1.392 . S
C183 H212 0.947 . S
C184 C183 1.392 . S
C184 C185 1.419 . S
C184 H213 0.948 . S
C185 C184 1.419 . S
C185 C186 1.391 . S
C185 C189 1.397 . S
C186 C181 1.391 . S
C186 C185 1.391 . S
C186 C187 1.399 . S
C187 C186 1.399 . S
C187 C188 1.396 . S
C187 C190 1.453 . S
C187 C191 1.684 . S
C188 C169 1.723 . S
C188 C187 1.396 . S
C188 C189 1.394 . S
C189 C185 1.397 . S
C189 C188 1.394 . S
C189 C199 1.723 . S
C190 C187 1.453 . S
C190 H214 0.982 . S
C190 H215 0.979 . S
C190 H216 0.977 . S
C191 C187 1.684 . S
C191 H217 0.979 . S
C191 H218 0.980 . S
C191 H219 0.983 . S
C192 H168 0.948 . S
C192 C193 1.391 . S
C192 C197 1.391 . S
C193 C192 1.391 . S
C193 C194 1.391 . S
C194 H171 0.947 1_556 S
C194 C193 1.391 . S
C194 C195 1.392 . S
C195 H172 0.948 . S
C195 C194 1.392 . S
C195 C196 1.419 . S
C196 C195 1.419 . S
C196 C197 1.391 . S
C196 C200 1.397 . S
C197 C192 1.391 . S
C197 C196 1.391 . S
C197 C198 1.399 . S
C198 C197 1.399 . S
C198 C199 1.396 . S
C198 C201 1.453 . S
C198 C202 1.684 . S
C199 C189 1.723 . S
C199 C198 1.396 . S
C199 C200 1.394 . S
C200 C170 1.723 . S
C200 C196 1.397 . S
C200 C199 1.394 . S
C201 H173 0.982 . S
C201 H177 0.979 . S
C201 H178 0.977 . S
C201 C198 1.453 . S
C202 H174 0.979 . S
C202 H175 0.980 . S
C202 H176 0.983 . S
C202 C198 1.684 . S
H203 C221 0.948 . S
H204 C162 0.948 . S
H205 C180 0.979 . S
H206 C180 0.980 . S
H207 C180 0.987 1_554 S
H208 C179 0.982 . S
H209 C179 0.979 . S
H210 C179 0.977 . S
H211 C181 0.948 . S
H212 C183 0.947 . S
H213 C184 0.948 . S
H214 C190 0.982 . S
H215 C190 0.979 . S
H216 C190 0.977 . S
H217 C191 0.979 . S
H218 C191 0.980 . S
H219 C191 0.983 . S
H220 C164 0.947 . S
C221 C164 1.392 . S
C221 C165 1.419 . S
C221 H203 0.948 . S
C222 C223 1.391 . S
C222 C226 1.391 . S
C222 H264 0.948 . S
C223 C222 1.391 . S
C223 C224 1.391 . S
C224 C223 1.391 . S
C224 H280 0.947 . S
C224 C281 1.392 . S
C225 C226 1.391 . S
C225 C229 1.397 . S
C225 C281 1.419 . S
C226 C222 1.391 . S
C226 C225 1.391 . S
C226 C227 1.399 . S
C227 C226 1.399 . S
C227 C230 1.396 . S
C227 C239 1.453 . S
C227 C240 1.684 . S
H228 C252 0.948 . S
C229 C225 1.397 . S
C229 C230 1.394 . S
C229 C248 1.723 . S
C230 C227 1.396 . S
C230 C229 1.394 . S
C230 C260 1.723 . S
H231 C254 0.947 . S
H232 C255 0.948 . S
H233 C261 0.982 . S
H234 C262 0.979 . S
H235 C262 0.980 . S
H236 C262 0.983 . S
H237 C261 0.979 . S
H238 C261 0.977 . S
C239 C227 1.453 . S
C239 H268 0.982 . S
C239 H269 0.979 . S
C239 H270 0.977 . S
C240 C227 1.684 . S
C240 H265 0.979 . S
C240 H266 0.980 . S
C240 H267 0.983 . S
C241 C242 1.391 . S
C241 C246 1.391 . S
C241 H271 0.948 . S
C242 C241 1.391 . S
C242 C243 1.391 . S
C243 C242 1.391 . S
C243 C244 1.392 . S
C243 H272 0.947 . S
C244 C243 1.392 . S
C244 C245 1.419 . S
C244 H273 0.948 . S
C245 C244 1.419 . S
C245 C246 1.391 . S
C245 C249 1.397 . S
C246 C241 1.391 . S
C246 C245 1.391 . S
C246 C247 1.399 . S
C247 C246 1.399 . S
C247 C248 1.396 . S
C247 C250 1.453 . S
C247 C251 1.684 . S
C248 C229 1.723 . S
C248 C247 1.396 . S
C248 C249 1.394 . S
C249 C245 1.397 . S
C249 C248 1.394 . S
C249 C259 1.723 . S
C250 C247 1.453 . S
C250 H274 0.982 . S
C250 H275 0.979 . S
C250 H276 0.977 . S
C251 C247 1.684 . S
C251 H277 0.979 . S
C251 H278 0.980 . S
C251 H279 0.983 . S
C252 H228 0.948 . S
C252 C253 1.391 . S
C252 C257 1.391 . S
C253 C252 1.391 . S
C253 C254 1.391 . S
C254 H231 0.947 . S
C254 C253 1.391 . S
C254 C255 1.392 . S
C255 H232 0.948 . S
C255 C254 1.392 . S
C255 C256 1.419 . S
C256 C255 1.419 . S
C256 C257 1.391 . S
C256 C260 1.397 . S
C257 C252 1.391 . S
C257 C256 1.391 . S
C257 C258 1.399 . S
C258 C257 1.399 . S
C258 C259 1.396 . S
C258 C261 1.453 . S
C258 C262 1.684 . S
C259 C249 1.723 . S
C259 C258 1.396 . S
C259 C260 1.394 . S
C260 C230 1.723 . S
C260 C256 1.397 . S
C260 C259 1.394 . S
C261 H233 0.982 . S
C261 H237 0.979 . S
C261 H238 0.977 . S
C261 C258 1.453 . S
C262 H234 0.979 . S
C262 H235 0.980 . S
C262 H236 0.983 . S
C262 C258 1.684 . S
H263 C281 0.948 . S
H264 C222 0.948 . S
H265 C240 0.979 . S
H266 C240 0.980 . S
H267 C240 0.983 . S
H268 C239 0.982 . S
H269 C239 0.979 . S
H270 C239 0.977 . S
H271 C241 0.948 . S
H272 C243 0.947 . S
H273 C244 0.948 . S
H274 C250 0.982 . S
H275 C250 0.979 . S
H276 C250 0.977 . S
H277 C251 0.979 . S
H278 C251 0.980 . S
H279 C251 0.983 . S
H280 C224 0.947 . S
C281 C224 1.392 . S
C281 C225 1.419 . S
C281 H263 0.948 . S
H282 C300 0.951 . S
H283 C302 0.951 . S
H284 C304 0.950 . S
H285 C305 0.951 1_556 S
H286 C307 0.950 . S
H287 C310 0.950 . S
H288 C311 0.950 . S
H289 C313 0.950 . S
H290 C314 0.950 . S
H291 C315 0.951 . S
H292 C317 0.951 . S
H293 C319 0.950 . S
H294 C320 0.950 . S
H295 C322 0.950 . S
H296 C325 0.950 . S
H297 C326 0.950 . S
H298 C328 0.950 . S
H299 C329 0.950 . S
C300 H282 0.951 . S
C300 C301 1.366 . S
C300 C302 1.388 . S
C301 C300 1.366 . S
C301 C305 1.385 . S
C302 H283 0.951 . S
C302 C300 1.388 . S
C302 C303 1.366 . S
C303 C302 1.366 . S
C303 C304 1.414 . S
C303 C306 1.499 . S
C304 H284 0.950 . S
C304 C303 1.414 . S
C304 C305 1.374 . S
C305 H285 0.951 1_554 S
C305 C301 1.385 . S
C305 C304 1.374 . S
C306 C303 1.499 . S
C306 C307 1.373 . S
C306 C308 1.389 . S
C307 H286 0.950 . S
C307 C306 1.373 . S
C307 C323 1.377 . S
C308 C306 1.389 . S
C308 C309 1.524 1_554 S
C308 C322 1.377 . S
C309 C308 1.524 1_556 S
C309 C310 1.397 . S
C309 C314 1.363 1_556 S
C310 H287 0.950 . S
C310 C309 1.397 . S
C310 C311 1.334 . S
C311 H288 0.950 . S
C311 C310 1.334 . S
C311 C312 1.287 . S
C312 C311 1.287 . S
C312 C313 1.524 . S
C312 H331 0.913 . S
C313 H289 0.950 . S
C313 C312 1.524 . S
C313 C314 1.415 1_556 S
C314 H290 0.950 . S
C314 C309 1.363 1_554 S
C314 C313 1.415 1_554 S
C315 H291 0.951 . S
C315 C316 1.366 . S
C315 C317 1.388 . S
C316 C315 1.366 . S
C316 C320 1.385 . S
C317 H292 0.951 . S
C317 C315 1.388 . S
C317 C318 1.366 . S
C318 C317 1.366 . S
C318 C319 1.414 . S
C318 C321 1.499 . S
C319 H293 0.950 . S
C319 C318 1.414 . S
C319 C320 1.374 . S
C320 H294 0.950 . S
C320 C316 1.385 . S
C320 C319 1.374 . S
C321 C318 1.499 . S
C321 C322 1.373 . S
C321 C323 1.389 . S
C322 H295 0.950 . S
C322 C308 1.377 . S
C322 C321 1.373 . S
C323 C307 1.377 . S
C323 C321 1.389 . S
C323 C324 1.524 . S
C324 C323 1.524 . S
C324 C325 1.397 . S
C324 C329 1.363 . S
C325 H296 0.950 . S
C325 C324 1.397 . S
C325 C326 1.334 . S
C326 H297 0.950 . S
C326 C325 1.334 . S
C326 C327 1.287 . S
C327 C326 1.287 . S
C327 C328 1.524 . S
C327 H330 0.999 . S
C328 H298 0.950 . S
C328 C327 1.524 . S
C328 C329 1.415 . S
C329 H299 0.950 . S
C329 C324 1.363 . S
C329 C328 1.415 . S
H330 C327 0.999 . S
H331 C312 0.913 . S
H332 C350 0.951 . S
H333 C352 0.951 . S
H334 C354 0.950 . S
H335 C355 0.950 . S
H336 C357 0.950 . S
H337 C360 0.950 1_554 S
H338 C361 0.950 . S
H339 C363 0.950 . S
H340 C364 0.950 . S
H341 C365 0.986 . S
H342 C367 0.951 . S
H343 C369 0.950 . S
H344 C370 0.950 . S
H345 C372 0.950 . S
H346 C375 0.950 . S
H347 C376 0.962 . S
H348 C378 0.950 . S
H349 C379 0.950 . S
C350 H332 0.951 . S
C350 C351 1.366 1_556 S
C350 C352 1.388 . S
C351 C350 1.366 1_554 S
C351 C355 1.385 . S
C352 H333 0.951 . S
C352 C350 1.388 . S
C352 C353 1.380 . S
C353 C352 1.380 . S
C353 C354 1.399 1_556 S
C353 C356 1.499 . S
C354 H334 0.950 . S
C354 C353 1.399 1_554 S
C354 C355 1.374 . S
C355 H335 0.950 . S
C355 C351 1.385 . S
C355 C354 1.374 . S
C356 C353 1.499 . S
C356 C357 1.373 1_556 S
C356 C358 1.389 . S
C357 H336 0.950 . S
C357 C356 1.373 1_554 S
C357 C373 1.377 . S
C358 C356 1.389 . S
C358 C359 1.524 . S
C358 C372 1.377 . S
C359 C358 1.524 . S
C359 C360 1.397 . S
C359 C364 1.363 . S
C360 H337 0.950 1_556 S
C360 C359 1.397 . S
C360 C361 1.334 . S
C361 H338 0.950 . S
C361 C360 1.334 . S
C361 C362 1.287 . S
C362 C361 1.287 . S
C362 C363 1.524 . S
C362 H381 0.913 . S
C363 H339 0.950 . S
C363 C362 1.524 . S
C363 C364 1.415 . S
C364 H340 0.950 . S
C364 C359 1.363 . S
C364 C363 1.415 . S
C365 H341 0.986 . S
C365 C366 1.330 1_554 S
C365 C367 1.390 . S
C366 C365 1.330 1_556 S
C366 C370 1.385 . S
C367 H342 0.951 . S
C367 C365 1.390 . S
C367 C368 1.366 1_554 S
C368 C367 1.366 1_556 S
C368 C369 1.414 . S
C368 C371 1.499 . S
C369 H343 0.950 . S
C369 C368 1.414 . S
C369 C370 1.374 . S
C370 H344 0.950 . S
C370 C366 1.385 . S
C370 C369 1.374 . S
C371 C368 1.499 . S
C371 C372 1.373 . S
C371 C373 1.389 1_556 S
C372 H345 0.950 . S
C372 C358 1.377 . S
C372 C371 1.373 . S
C373 C357 1.377 . S
C373 C371 1.389 1_554 S
C373 C374 1.524 . S
C374 C373 1.524 . S
C374 C375 1.397 1_554 S
C374 C379 1.363 . S
C375 H346 0.950 . S
C375 C374 1.397 1_556 S
C375 C376 1.338 . S
C376 H347 0.962 . S
C376 C375 1.338 . S
C376 C377 1.271 1_556 S
C377 C376 1.271 1_554 S
C377 C378 1.524 . S
C377 H380 0.999 . S
C378 H348 0.950 . S
C378 C377 1.524 . S
C378 C379 1.415 . S
C379 H349 0.950 . S
C379 C374 1.363 . S
C379 C378 1.415 . S
H380 C377 0.999 . S
H381 C362 0.913 . S
H382 C400 0.951 1_556 S
H383 C402 0.951 1_556 S
H384 C404 0.950 . S
H385 C405 0.950 . S
H386 C407 0.950 . S
H387 C410 0.950 . S
H388 C411 0.950 . S
H389 C413 0.950 . S
H390 C414 0.950 . S
H391 C415 0.951 . S
H392 C417 0.951 . S
H393 C419 0.950 . S
H394 C420 0.950 . S
H395 C422 0.963 . S
H396 C425 0.950 . S
H397 C426 0.950 . S
H398 C428 0.950 . S
H399 C429 0.950 . S
C400 H382 0.951 1_554 S
C400 C401 1.366 . S
C400 C402 1.388 . S
C401 C400 1.366 . S
C401 C405 1.385 . S
C402 H383 0.951 1_554 S
C402 C400 1.388 . S
C402 C403 1.366 . S
C403 C402 1.366 . S
C403 C404 1.414 . S
C403 C406 1.499 . S
C404 H384 0.950 . S
C404 C403 1.414 . S
C404 C405 1.374 . S
C405 H385 0.950 . S
C405 C401 1.385 . S
C405 C404 1.374 . S
C406 C403 1.499 . S
C406 C407 1.373 . S
C406 C408 1.389 . S
C407 H386 0.950 . S
C407 C406 1.373 . S
C407 C423 1.377 . S
C408 C406 1.389 . S
C408 C409 1.524 1_554 S
C408 C422 1.377 . S
C409 C408 1.524 1_556 S
C409 C410 1.397 . S
C409 C414 1.363 . S
C410 H387 0.950 . S
C410 C409 1.397 . S
C410 C411 1.334 . S
C411 H388 0.950 . S
C411 C410 1.334 . S
C411 C412 1.287 . S
C412 C411 1.287 . S
C412 C413 1.524 . S
C412 H431 0.913 . S
C413 H389 0.950 . S
C413 C412 1.524 . S
C413 C414 1.415 . S
C414 H390 0.950 . S
C414 C409 1.363 . S
C414 C413 1.415 . S
C415 H391 0.951 . S
C415 C416 1.366 . S
C415 C417 1.388 . S
C416 C415 1.366 . S
C416 C420 1.385 . S
C417 H392 0.951 . S
C417 C415 1.388 . S
C417 C418 1.366 . S
C418 C417 1.366 . S
C418 C419 1.414 . S
C418 C421 1.499 . S
C419 H393 0.950 . S
C419 C418 1.414 . S
C419 C420 1.374 . S
C420 H394 0.950 . S
C420 C416 1.385 . S
C420 C419 1.374 . S
C421 C418 1.499 . S
C421 C422 1.373 . S
C421 C423 1.389 . S
C422 H395 0.963 . S
C422 C408 1.377 . S
C422 C421 1.373 . S
C423 C407 1.377 . S
C423 C421 1.389 . S
C423 C424 1.524 . S
C424 C423 1.524 . S
C424 C425 1.397 . S
C424 C429 1.363 . S
C425 H396 0.950 . S
C425 C424 1.397 . S
C425 C426 1.334 . S
C426 H397 0.950 . S
C426 C425 1.334 . S
C426 C427 1.287 . S
C427 C426 1.287 . S
C427 C428 1.524 . S
C427 H430 0.999 . S
C428 H398 0.950 . S
C428 C427 1.524 . S
C428 C429 1.415 . S
C429 H399 0.950 . S
C429 C424 1.363 . S
C429 C428 1.415 . S
H430 C427 0.999 . S
H431 C412 0.913 . S
H432 C450 0.951 . S
H433 C452 0.951 . S
H434 C454 0.950 . S
H435 C455 0.950 . S
H436 C457 0.950 . S
H437 C460 0.950 . S
H438 C461 0.950 1_455 S
H439 C463 0.950 . S
H440 C464 0.950 . S
H441 C465 0.951 1_554 S
H442 C467 0.951 1_554 S
H443 C469 0.950 . S
H444 C470 0.950 . S
H445 C472 0.950 . S
H446 C475 0.950 . S
H447 C476 0.950 1_556 S
H448 C478 0.950 . S
H449 C479 0.950 . S
C450 H432 0.951 . S
C450 C451 1.366 1_556 S
C450 C452 1.388 . S
C451 C450 1.366 1_554 S
C451 C455 1.385 . S
C452 H433 0.951 . S
C452 C450 1.388 . S
C452 C453 1.366 . S
C453 C452 1.366 . S
C453 C454 1.414 1_556 S
C453 C456 1.499 . S
C454 H434 0.950 . S
C454 C453 1.414 1_554 S
C454 C455 1.374 . S
C455 H435 0.950 . S
C455 C451 1.385 . S
C455 C454 1.374 . S
C456 C453 1.499 . S
C456 C457 1.373 1_556 S
C456 C458 1.389 . S
C457 H436 0.950 . S
C457 C456 1.373 1_554 S
C457 C473 1.377 1_554 S
C458 C456 1.389 . S
C458 C459 1.524 . S
C458 C472 1.377 . S
C459 C458 1.524 . S
C459 C460 1.397 . S
C459 C464 1.363 . S
C460 H437 0.950 . S
C460 C459 1.397 . S
C460 C461 1.334 . S
C461 H438 0.950 1_655 S
C461 C460 1.334 . S
C461 C462 1.287 . S
C462 C461 1.287 . S
C462 C463 1.524 . S
C462 H481 0.913 1_655 S
C463 H439 0.950 . S
C463 C462 1.524 . S
C463 C464 1.415 . S
C464 H440 0.950 . S
C464 C459 1.363 . S
C464 C463 1.415 . S
C465 H441 0.951 1_556 S
C465 C466 1.366 . S
C465 C467 1.388 . S
C466 C465 1.366 . S
C466 C470 1.385 . S
C467 H442 0.951 1_556 S
C467 C465 1.388 . S
C467 C468 1.366 . S
C468 C467 1.366 . S
C468 C469 1.414 . S
C468 C471 1.499 . S
C469 H443 0.950 . S
C469 C468 1.414 . S
C469 C470 1.374 . S
C470 H444 0.950 . S
C470 C466 1.385 . S
C470 C469 1.374 . S
C471 C468 1.499 . S
C471 C472 1.373 . S
C471 C473 1.389 . S
C472 H445 0.950 . S
C472 C458 1.377 . S
C472 C471 1.373 . S
C473 C457 1.377 1_556 S
C473 C471 1.389 . S
C473 C474 1.524 1_556 S
C474 C473 1.524 1_554 S
C474 C475 1.397 1_554 S
C474 C479 1.363 . S
C475 H446 0.950 . S
C475 C474 1.397 1_556 S
C475 C476 1.334 1_556 S
C476 H447 0.950 1_554 S
C476 C475 1.334 1_554 S
C476 C477 1.287 . S
C477 C476 1.287 . S
C477 C478 1.524 . S
C477 H480 0.999 . S
C478 H448 0.950 . S
C478 C477 1.524 . S
C478 C479 1.415 . S
C479 H449 0.950 . S
C479 C474 1.363 . S
C479 C478 1.415 . S
H480 C477 0.999 . S
H481 C462 0.913 1_455 S
H482 C500 0.951 . S
H483 C502 0.951 . S
H484 C504 0.950 . S
H485 C505 0.950 . S
H486 C507 0.950 . S
H487 C510 0.950 . S
H488 C511 0.950 . S
H489 C513 0.950 . S
H490 C514 0.950 . S
H491 C515 0.951 . S
H492 C517 0.951 . S
H493 C519 0.950 . S
H494 C520 0.950 . S
H495 C522 0.950 . S
H496 C525 0.950 . S
H497 C526 0.950 . S
H498 C528 0.950 . S
H499 C529 0.950 . S
C500 H482 0.951 . S
C500 C501 1.366 . S
C500 C502 1.388 . S
C501 C500 1.366 . S
C501 C505 1.385 . S
C502 H483 0.951 . S
C502 C500 1.388 . S
C502 C503 1.366 . S
C503 C502 1.366 . S
C503 C504 1.414 . S
C503 C506 1.499 . S
C504 H484 0.950 . S
C504 C503 1.414 . S
C504 C505 1.374 . S
C505 H485 0.950 . S
C505 C501 1.385 . S
C505 C504 1.374 . S
C506 C503 1.499 . S
C506 C507 1.373 . S
C506 C508 1.389 . S
C507 H486 0.950 . S
C507 C506 1.373 . S
C507 C523 1.377 . S
C508 C506 1.389 . S
C508 C509 1.524 . S
C508 C522 1.377 . S
C509 C508 1.524 . S
C509 C510 1.397 . S
C509 C514 1.363 . S
C510 H487 0.950 . S
C510 C509 1.397 . S
C510 C511 1.334 . S
C511 H488 0.950 . S
C511 C510 1.334 . S
C511 C512 1.287 . S
C512 C511 1.287 . S
C512 C513 1.524 . S
C512 H531 0.913 . S
C513 H489 0.950 . S
C513 C512 1.524 . S
C513 C514 1.415 . S
C514 H490 0.950 . S
C514 C509 1.363 . S
C514 C513 1.415 . S
C515 H491 0.951 . S
C515 C516 1.366 . S
C515 C517 1.388 . S
C516 C515 1.366 . S
C516 C520 1.385 . S
C517 H492 0.951 . S
C517 C515 1.388 . S
C517 C518 1.366 . S
C518 C517 1.366 . S
C518 C519 1.414 . S
C518 C521 1.499 . S
C519 H493 0.950 . S
C519 C518 1.414 . S
C519 C520 1.374 . S
C520 H494 0.950 . S
C520 C516 1.385 . S
C520 C519 1.374 . S
C521 C518 1.499 . S
C521 C522 1.373 . S
C521 C523 1.389 . S
C522 H495 0.950 . S
C522 C508 1.377 . S
C522 C521 1.373 . S
C523 C507 1.377 . S
C523 C521 1.389 . S
C523 C524 1.524 . S
C524 C523 1.524 . S
C524 C525 1.397 . S
C524 C529 1.363 . S
C525 H496 0.950 . S
C525 C524 1.397 . S
C525 C526 1.334 . S
C526 H497 0.950 . S
C526 C525 1.334 . S
C526 C527 1.287 . S
C527 C526 1.287 . S
C527 C528 1.524 . S
C527 H530 0.999 . S
C528 H498 0.950 . S
C528 C527 1.524 . S
C528 C529 1.415 . S
C529 H499 0.950 . S
C529 C524 1.363 . S
C529 C528 1.415 . S
H530 C527 0.999 . S
H531 C512 0.913 . S
H532 C550 0.951 . S
H533 C552 0.951 . S
H534 C554 0.950 . S
H535 C555 0.950 . S
H536 C557 0.950 . S
H537 C560 0.950 . S
H538 C561 0.950 . S
H539 C563 0.950 . S
H540 C564 0.950 . S
H541 C565 0.951 . S
H542 C567 0.951 . S
H543 C569 0.950 . S
H544 C570 0.950 . S
H545 C572 0.950 . S
H546 C575 0.950 . S
H547 C576 0.950 . S
H548 C578 0.950 . S
H549 C579 0.950 . S
C550 H532 0.951 . S
C550 C551 1.366 . S
C550 C552 1.388 . S
C551 C550 1.366 . S
C551 C555 1.385 . S
C552 H533 0.951 . S
C552 C550 1.388 . S
C552 C553 1.366 . S
C553 C552 1.366 . S
C553 C554 1.414 . S
C553 C556 1.499 . S
C554 H534 0.950 . S
C554 C553 1.414 . S
C554 C555 1.374 . S
C555 H535 0.950 . S
C555 C551 1.385 . S
C555 C554 1.374 . S
C556 C553 1.499 . S
C556 C557 1.373 . S
C556 C558 1.389 . S
C557 H536 0.950 . S
C557 C556 1.373 . S
C557 C573 1.377 . S
C558 C556 1.389 . S
C558 C559 1.524 . S
C558 C572 1.377 . S
C559 C558 1.524 . S
C559 C560 1.397 . S
C559 C564 1.363 . S
C560 H537 0.950 . S
C560 C559 1.397 . S
C560 C561 1.334 . S
C561 H538 0.950 . S
C561 C560 1.334 . S
C561 C562 1.287 . S
C562 C561 1.287 . S
C562 C563 1.524 . S
C562 H581 0.913 . S
C563 H539 0.950 . S
C563 C562 1.524 . S
C563 C564 1.415 . S
C564 H540 0.950 . S
C564 C559 1.363 . S
C564 C563 1.415 . S
C565 H541 0.951 . S
C565 C566 1.366 . S
C565 C567 1.388 . S
C566 C565 1.366 . S
C566 C570 1.385 . S
C567 H542 0.951 . S
C567 C565 1.388 . S
C567 C568 1.366 . S
C568 C567 1.366 . S
C568 C569 1.414 . S
C568 C571 1.499 . S
C569 H543 0.950 . S
C569 C568 1.414 . S
C569 C570 1.374 . S
C570 H544 0.950 . S
C570 C566 1.385 . S
C570 C569 1.374 . S
C571 C568 1.499 . S
C571 C572 1.373 . S
C571 C573 1.389 . S
C572 H545 0.950 . S
C572 C558 1.377 . S
C572 C571 1.373 . S
C573 C557 1.377 . S
C573 C571 1.389 . S
C573 C574 1.524 . S
C574 C573 1.524 . S
C574 C575 1.397 . S
C574 C579 1.363 . S
C575 H546 0.950 . S
C575 C574 1.397 . S
C575 C576 1.334 . S
C576 H547 0.950 . S
C576 C575 1.334 . S
C576 C577 1.287 . S
C577 C576 1.287 . S
C577 C578 1.524 . S
C577 H580 0.999 . S
C578 H548 0.950 . S
C578 C577 1.524 . S
C578 C579 1.415 . S
C579 H549 0.950 . S
C579 C574 1.363 . S
C579 C578 1.415 . S
H580 C577 0.999 . S
H581 C562 0.913 . S
H582 C600 0.951 . S
H583 C602 0.951 . S
H584 C604 0.950 . S
H585 C605 0.950 . S
H586 C607 0.950 . S
H587 C610 0.950 . S
H588 C611 0.950 . S
H589 C613 0.950 . S
H590 C614 0.950 . S
H591 C615 0.951 . S
H592 C617 0.951 . S
H593 C619 0.950 . S
H594 C620 0.950 . S
H595 C622 0.950 . S
H596 C625 0.950 . S
H597 C626 0.950 . S
H598 C628 0.950 . S
H599 C629 0.950 . S
C600 H582 0.951 . S
C600 C601 1.366 . S
C600 C602 1.388 . S
C601 C600 1.366 . S
C601 C605 1.385 . S
C602 H583 0.951 . S
C602 C600 1.388 . S
C602 C603 1.366 . S
C603 C602 1.366 . S
C603 C604 1.414 . S
C603 C606 1.499 . S
C604 H584 0.950 . S
C604 C603 1.414 . S
C604 C605 1.374 . S
C605 H585 0.950 . S
C605 C601 1.385 . S
C605 C604 1.374 . S
C606 C603 1.499 . S
C606 C607 1.373 . S
C606 C608 1.389 . S
C607 H586 0.950 . S
C607 C606 1.373 . S
C607 C623 1.377 . S
C608 C606 1.389 . S
C608 C609 1.524 . S
C608 C622 1.377 . S
C609 C608 1.524 . S
C609 C610 1.397 . S
C609 C614 1.363 . S
C610 H587 0.950 . S
C610 C609 1.397 . S
C610 C611 1.334 . S
C611 H588 0.950 . S
C611 C610 1.334 . S
C611 C612 1.287 . S
C612 C611 1.287 . S
C612 C613 1.524 . S
C612 H631 0.913 . S
C613 H589 0.950 . S
C613 C612 1.524 . S
C613 C614 1.415 . S
C614 H590 0.950 . S
C614 C609 1.363 . S
C614 C613 1.415 . S
C615 H591 0.951 . S
C615 C616 1.366 . S
C615 C617 1.388 . S
C616 C615 1.366 . S
C616 C620 1.385 . S
C617 H592 0.951 . S
C617 C615 1.388 . S
C617 C618 1.366 . S
C618 C617 1.366 . S
C618 C619 1.414 . S
C618 C621 1.499 . S
C619 H593 0.950 . S
C619 C618 1.414 . S
C619 C620 1.374 . S
C620 H594 0.950 . S
C620 C616 1.385 . S
C620 C619 1.374 . S
C621 C618 1.499 . S
C621 C622 1.373 . S
C621 C623 1.389 . S
C622 H595 0.950 . S
C622 C608 1.377 . S
C622 C621 1.373 . S
C623 C607 1.377 . S
C623 C621 1.389 . S
C623 C624 1.524 . S
C624 C623 1.524 . S
C624 C625 1.397 . S
C624 C629 1.363 . S
C625 H596 0.950 . S
C625 C624 1.397 . S
C625 C626 1.334 . S
C626 H597 0.950 . S
C626 C625 1.334 . S
C626 C627 1.287 . S
C627 C626 1.287 . S
C627 C628 1.524 . S
C627 H630 0.999 . S
C628 H598 0.950 . S
C628 C627 1.524 . S
C628 C629 1.415 . S
C629 H599 0.950 . S
C629 C624 1.363 . S
C629 C628 1.415 . S
H630 C627 0.999 . S
H631 C612 0.913 . S
H632 C650 0.951 . S
H633 C652 0.951 . S
H634 C654 0.950 . S
H635 C655 0.950 . S
H636 C657 0.950 . S
H637 C660 0.950 . S
H638 C661 0.950 . S
H639 C663 0.950 . S
H640 C664 0.950 . S
H641 C665 0.951 . S
H642 C667 0.951 . S
H643 C669 0.950 . S
H644 C670 0.950 . S
H645 C672 0.950 . S
H646 C675 0.950 . S
H647 C676 0.950 . S
H648 C678 0.950 . S
H649 C679 0.950 . S
C650 H632 0.951 . S
C650 C651 1.366 . S
C650 C652 1.388 . S
C651 C650 1.366 . S
C651 C655 1.385 . S
C652 H633 0.951 . S
C652 C650 1.388 . S
C652 C653 1.366 . S
C653 C652 1.366 . S
C653 C654 1.414 . S
C653 C656 1.499 . S
C654 H634 0.950 . S
C654 C653 1.414 . S
C654 C655 1.374 . S
C655 H635 0.950 . S
C655 C651 1.385 . S
C655 C654 1.374 . S
C656 C653 1.499 . S
C656 C657 1.373 . S
C656 C658 1.389 . S
C657 H636 0.950 . S
C657 C656 1.373 . S
C657 C673 1.377 . S
C658 C656 1.389 . S
C658 C659 1.524 . S
C658 C672 1.377 . S
C659 C658 1.524 . S
C659 C660 1.397 . S
C659 C664 1.363 . S
C660 H637 0.950 . S
C660 C659 1.397 . S
C660 C661 1.334 . S
C661 H638 0.950 . S
C661 C660 1.334 . S
C661 C662 1.287 . S
C662 C661 1.287 . S
C662 C663 1.524 . S
C662 H681 0.913 . S
C663 H639 0.950 . S
C663 C662 1.524 . S
C663 C664 1.415 . S
C664 H640 0.950 . S
C664 C659 1.363 . S
C664 C663 1.415 . S
C665 H641 0.951 . S
C665 C666 1.366 . S
C665 C667 1.388 . S
C666 C665 1.366 . S
C666 C670 1.385 . S
C667 H642 0.951 . S
C667 C665 1.388 . S
C667 C668 1.366 . S
C668 C667 1.366 . S
C668 C669 1.414 . S
C668 C671 1.499 . S
C669 H643 0.950 . S
C669 C668 1.414 . S
C669 C670 1.374 . S
C670 H644 0.950 . S
C670 C666 1.385 . S
C670 C669 1.374 . S
C671 C668 1.499 . S
C671 C672 1.373 . S
C671 C673 1.389 . S
C672 H645 0.950 . S
C672 C658 1.377 . S
C672 C671 1.373 . S
C673 C657 1.377 . S
C673 C671 1.389 . S
C673 C674 1.524 . S
C674 C673 1.524 . S
C674 C675 1.397 . S
C674 C679 1.363 . S
C675 H646 0.950 . S
C675 C674 1.397 . S
C675 C676 1.334 . S
C676 H647 0.950 . S
C676 C675 1.334 . S
C676 C677 1.287 . S
C677 C676 1.287 . S
C677 C678 1.524 . S
C677 H680 0.999 . S
C678 H648 0.950 . S
C678 C677 1.524 . S
C678 C679 1.415 . S
C679 H649 0.950 . S
C679 C674 1.363 . S
C679 C678 1.415 . S
H680 C677 0.999 . S
H681 C662 0.913 . S
H682 C700 0.951 . S
H683 C702 0.951 . S
H684 C704 0.950 . S
H685 C705 0.950 . S
H686 C707 0.950 . S
H687 C710 0.950 . S
H688 C711 0.950 . S
H689 C713 0.950 . S
H690 C714 0.950 . S
H691 C715 0.951 . S
H692 C717 0.951 . S
H693 C719 0.950 . S
H694 C720 0.950 . S
H695 C722 0.950 . S
H696 C725 0.950 1_545 S
H697 C726 0.950 . S
H698 C728 0.950 . S
H699 C729 0.950 . S
C700 H682 0.951 . S
C700 C701 1.366 . S
C700 C702 1.388 . S
C701 C700 1.366 . S
C701 C705 1.385 1_545 S
C702 H683 0.951 . S
C702 C700 1.388 . S
C702 C703 1.366 . S
C703 C702 1.366 . S
C703 C704 1.414 1_545 S
C703 C706 1.499 . S
C704 H684 0.950 . S
C704 C703 1.414 1_565 S
C704 C705 1.374 . S
C705 H685 0.950 . S
C705 C701 1.385 1_565 S
C705 C704 1.374 . S
C706 C703 1.499 . S
C706 C707 1.373 1_545 S
C706 C708 1.389 . S
C707 H686 0.950 . S
C707 C706 1.373 1_565 S
C707 C723 1.377 . S
C708 C706 1.389 . S
C708 C709 1.524 . S
C708 C722 1.377 . S
C709 C708 1.524 . S
C709 C710 1.397 . S
C709 C714 1.363 . S
C710 H687 0.950 . S
C710 C709 1.397 . S
C710 C711 1.334 . S
C711 H688 0.950 . S
C711 C710 1.334 . S
C711 C712 1.287 . S
C712 C711 1.287 . S
C712 C713 1.524 . S
C712 H731 0.913 . S
C713 H689 0.950 . S
C713 C712 1.524 . S
C713 C714 1.415 . S
C714 H690 0.950 . S
C714 C709 1.363 . S
C714 C713 1.415 . S
C715 H691 0.951 . S
C715 C716 1.366 . S
C715 C717 1.388 . S
C716 C715 1.366 . S
C716 C720 1.385 1_565 S
C717 H692 0.951 . S
C717 C715 1.388 . S
C717 C718 1.366 1_565 S
C718 C717 1.366 1_545 S
C718 C719 1.414 . S
C718 C721 1.499 . S
C719 H693 0.950 . S
C719 C718 1.414 . S
C719 C720 1.374 . S
C720 H694 0.950 . S
C720 C716 1.385 1_545 S
C720 C719 1.374 . S
C721 C718 1.499 . S
C721 C722 1.373 . S
C721 C723 1.389 1_545 S
C722 H695 0.950 . S
C722 C708 1.377 . S
C722 C721 1.373 . S
C723 C707 1.377 . S
C723 C721 1.389 1_565 S
C723 C724 1.524 1_455 S
C724 C723 1.524 1_655 S
C724 C725 1.397 . S
C724 C729 1.363 . S
C725 H696 0.950 1_565 S
C725 C724 1.397 . S
C725 C726 1.334 . S
C726 H697 0.950 . S
C726 C725 1.334 . S
C726 C727 1.287 . S
C727 C726 1.287 . S
C727 C728 1.524 . S
C727 H730 0.999 . S
C728 H698 0.950 . S
C728 C727 1.524 . S
C728 C729 1.415 . S
C729 H699 0.950 . S
C729 C724 1.363 . S
C729 C728 1.415 . S
H730 C727 0.999 . S
H731 C712 0.913 . S
H732 C750 0.951 1_565 S
H733 C752 0.951 1_565 S
H734 C754 0.950 . S
H735 C755 0.950 . S
H736 C757 0.950 . S
H737 C760 0.930 1_545 S
H738 C761 0.950 . S
H739 C763 0.950 . S
H740 C764 0.950 . S
H741 C765 0.951 . S
H742 C767 0.951 . S
H743 C769 0.950 . S
H744 C770 0.950 . S
H745 C772 0.950 . S
H746 C775 0.950 . S
H747 C776 0.950 . S
H748 C778 0.950 . S
H749 C779 0.950 1_455 S
C750 H732 0.951 1_545 S
C750 C751 1.366 . S
C750 C752 1.388 . S
C751 C750 1.366 . S
C751 C755 1.385 . S
C752 H733 0.951 1_545 S
C752 C750 1.388 . S
C752 C753 1.366 . S
C753 C752 1.366 . S
C753 C754 1.414 . S
C753 C756 1.499 . S
C754 H734 0.950 . S
C754 C753 1.414 . S
C754 C755 1.374 . S
C755 H735 0.950 . S
C755 C751 1.385 . S
C755 C754 1.374 . S
C756 C753 1.499 . S
C756 C757 1.373 . S
C756 C758 1.389 . S
C757 H736 0.950 . S
C757 C756 1.373 . S
C757 C773 1.377 . S
C758 C756 1.389 . S
C758 C759 1.524 1_545 S
C758 C772 1.377 . S
C759 C758 1.524 1_565 S
C759 C760 1.398 . S
C759 C764 1.363 . S
C760 H737 0.930 1_565 S
C760 C759 1.398 . S
C760 C761 1.352 . S
C761 H738 0.950 . S
C761 C760 1.352 . S
C761 C762 1.287 . S
C762 C761 1.287 . S
C762 C763 1.524 . S
C762 H781 0.913 . S
C763 H739 0.950 . S
C763 C762 1.524 . S
C763 C764 1.415 . S
C764 H740 0.950 . S
C764 C759 1.363 . S
C764 C763 1.415 . S
C765 H741 0.951 . S
C765 C766 1.366 . S
C765 C767 1.388 . S
C766 C765 1.366 . S
C766 C770 1.385 1_455 S
C767 H742 0.951 . S
C767 C765 1.388 . S
C767 C768 1.366 . S
C768 C767 1.366 . S
C768 C769 1.414 1_455 S
C768 C771 1.499 . S
C769 H743 0.950 . S
C769 C768 1.414 1_655 S
C769 C770 1.374 . S
C770 H744 0.950 . S
C770 C766 1.385 1_655 S
C770 C769 1.374 . S
C771 C768 1.499 . S
C771 C772 1.373 . S
C771 C773 1.389 . S
C772 H745 0.950 . S
C772 C758 1.377 . S
C772 C771 1.373 . S
C773 C757 1.377 . S
C773 C771 1.389 . S
C773 C774 1.524 1_455 S
C774 C773 1.524 1_655 S
C774 C775 1.397 . S
C774 C779 1.363 . S
C775 H746 0.950 . S
C775 C774 1.397 . S
C775 C776 1.334 . S
C776 H747 0.950 . S
C776 C775 1.334 . S
C776 C777 1.287 . S
C777 C776 1.287 . S
C777 C778 1.524 . S
C777 H780 0.999 . S
C778 H748 0.950 . S
C778 C777 1.524 . S
C778 C779 1.415 . S
C779 H749 0.950 1_655 S
C779 C774 1.363 . S
C779 C778 1.415 . S
H780 C777 0.999 . S
H781 C762 0.913 . S
H782 C800 0.951 . S
H783 C802 0.951 . S
H784 C804 0.950 . S
H785 C805 0.950 . S
H786 C807 0.950 . S
H787 C810 0.950 . S
H788 C811 0.950 . S
H789 C813 0.950 . S
H790 C814 0.950 . S
H791 C815 0.951 . S
H792 C817 0.951 . S
H793 C819 0.950 . S
H794 C820 0.950 . S
H795 C822 0.950 . S
H796 C825 0.950 . S
H797 C826 0.950 . S
H798 C828 0.950 . S
H799 C829 0.950 . S
C800 H782 0.951 . S
C800 C801 1.366 . S
C800 C802 1.388 . S
C801 C800 1.366 . S
C801 C805 1.385 . S
C802 H783 0.951 . S
C802 C800 1.388 . S
C802 C803 1.366 . S
C803 C802 1.366 . S
C803 C804 1.414 . S
C803 C806 1.499 . S
C804 H784 0.950 . S
C804 C803 1.414 . S
C804 C805 1.374 . S
C805 H785 0.950 . S
C805 C801 1.385 . S
C805 C804 1.374 . S
C806 C803 1.499 . S
C806 C807 1.373 . S
C806 C808 1.389 . S
C807 H786 0.950 . S
C807 C806 1.373 . S
C807 C823 1.377 . S
C808 C806 1.389 . S
C808 C809 1.524 . S
C808 C822 1.377 . S
C809 C808 1.524 . S
C809 C810 1.397 . S
C809 C814 1.363 . S
C810 H787 0.950 . S
C810 C809 1.397 . S
C810 C811 1.334 . S
C811 H788 0.950 . S
C811 C810 1.334 . S
C811 C812 1.287 . S
C812 C811 1.287 . S
C812 C813 1.524 . S
C812 H831 0.913 . S
C813 H789 0.950 . S
C813 C812 1.524 . S
C813 C814 1.415 . S
C814 H790 0.950 . S
C814 C809 1.363 . S
C814 C813 1.415 . S
C815 H791 0.951 . S
C815 C816 1.366 . S
C815 C817 1.388 . S
C816 C815 1.366 . S
C816 C820 1.385 . S
C817 H792 0.951 . S
C817 C815 1.388 . S
C817 C818 1.366 . S
C818 C817 1.366 . S
C818 C819 1.414 . S
C818 C821 1.499 . S
C819 H793 0.950 . S
C819 C818 1.414 . S
C819 C820 1.374 . S
C820 H794 0.950 . S
C820 C816 1.385 . S
C820 C819 1.374 . S
C821 C818 1.499 . S
C821 C822 1.373 . S
C821 C823 1.389 . S
C822 H795 0.950 . S
C822 C808 1.377 . S
C822 C821 1.373 . S
C823 C807 1.377 . S
C823 C821 1.389 . S
C823 C824 1.524 . S
C824 C823 1.524 . S
C824 C825 1.397 . S
C824 C829 1.363 . S
C825 H796 0.950 . S
C825 C824 1.397 . S
C825 C826 1.334 . S
C826 H797 0.950 . S
C826 C825 1.334 . S
C826 C827 1.287 . S
C827 C826 1.287 . S
C827 C828 1.524 . S
C827 H830 0.999 . S
C828 H798 0.950 . S
C828 C827 1.524 . S
C828 C829 1.415 . S
C829 H799 0.950 . S
C829 C824 1.363 . S
C829 C828 1.415 . S
H830 C827 0.999 . S
H831 C812 0.913 . S
H832 C850 0.951 . S
H833 C852 0.951 . S
H834 C854 0.950 . S
H835 C855 0.950 . S
H836 C857 0.950 . S
H837 C860 0.950 . S
H838 C861 0.950 . S
H839 C863 0.950 . S
H840 C864 0.950 . S
H841 C865 0.951 . S
H842 C867 0.951 . S
H843 C869 0.950 . S
H844 C870 0.950 . S
H845 C872 0.950 . S
H846 C875 0.950 . S
H847 C876 0.950 . S
H848 C878 0.950 . S
H849 C879 0.950 . S
C850 H832 0.951 . S
C850 C851 1.366 . S
C850 C852 1.388 . S
C851 C850 1.366 . S
C851 C855 1.385 . S
C852 H833 0.951 . S
C852 C850 1.388 . S
C852 C853 1.366 . S
C853 C852 1.366 . S
C853 C854 1.414 . S
C853 C856 1.499 . S
C854 H834 0.950 . S
C854 C853 1.414 . S
C854 C855 1.374 . S
C855 H835 0.950 . S
C855 C851 1.385 . S
C855 C854 1.374 . S
C856 C853 1.499 . S
C856 C857 1.373 . S
C856 C858 1.389 . S
C857 H836 0.950 . S
C857 C856 1.373 . S
C857 C873 1.377 . S
C858 C856 1.389 . S
C858 C859 1.524 . S
C858 C872 1.377 . S
C859 C858 1.524 . S
C859 C860 1.397 . S
C859 C864 1.363 . S
C860 H837 0.950 . S
C860 C859 1.397 . S
C860 C861 1.334 . S
C861 H838 0.950 . S
C861 C860 1.334 . S
C861 C862 1.287 . S
C862 C861 1.287 . S
C862 C863 1.524 . S
C862 H881 0.913 . S
C863 H839 0.950 . S
C863 C862 1.524 . S
C863 C864 1.415 . S
C864 H840 0.950 . S
C864 C859 1.363 . S
C864 C863 1.415 . S
C865 H841 0.951 . S
C865 C866 1.366 . S
C865 C867 1.388 . S
C866 C865 1.366 . S
C866 C870 1.385 . S
C867 H842 0.951 . S
C867 C865 1.388 . S
C867 C868 1.366 . S
C868 C867 1.366 . S
C868 C869 1.414 . S
C868 C871 1.499 . S
C869 H843 0.950 . S
C869 C868 1.414 . S
C869 C870 1.374 . S
C870 H844 0.950 . S
C870 C866 1.385 . S
C870 C869 1.374 . S
C871 C868 1.499 . S
C871 C872 1.373 . S
C871 C873 1.389 . S
C872 H845 0.950 . S
C872 C858 1.377 . S
C872 C871 1.373 . S
C873 C857 1.377 . S
C873 C871 1.389 . S
C873 C874 1.524 . S
C874 C873 1.524 . S
C874 C875 1.397 . S
C874 C879 1.363 . S
C875 H846 0.950 . S
C875 C874 1.397 . S
C875 C876 1.334 . S
C876 H847 0.950 . S
C876 C875 1.334 . S
C876 C877 1.287 . S
C877 C876 1.287 . S
C877 C878 1.524 . S
C877 H880 0.999 . S
C878 H848 0.950 . S
C878 C877 1.524 . S
C878 C879 1.415 . S
C879 H849 0.950 . S
C879 C874 1.363 . S
C879 C878 1.415 . S
H880 C877 0.999 . S
H881 C862 0.913 . S
C316 C253 1.424 . S
C301 C16 1.241 . S
C351 C15 1.474 . S
C366 C193 1.493 . S
C401 C13 1.265 . S
C416 C223 1.382 . S
C451 C14 1.267 . S
C466 C163 1.258 . S
C501 C37 1.243 . S
C516 C133 1.425 . S
C551 C36 1.474 . S
C566 C73 1.493 . S
C616 C103 1.381 . S
C601 C34 1.264 . S
C666 C43 1.258 . S
C651 C35 1.268 . S
C701 C17 1.519 . S
C716 C62 1.530 1_565 S
C751 C18 1.367 . S
C766 C122 1.391 1_455 S
C816 C182 1.530 . S
C801 C38 1.519 . S
C851 C39 1.367 . S
C866 C242 1.392 . S
