# Generated by pormake.
# Topology nom, (4,4)-cn, num edge types: 1
# Building blocks:
#     Node 0, Type 0, BuildingBlock: GIZVER_clean_linker_0, # of connection points: 4
#     Node 1, Type 0, BuildingBlock: GIZVER_clean_linker_0, # of connection points: 4
#     Node 2, Type 0, BuildingBlock: GIZVER_clean_linker_0, # of connection points: 4
#     Node 3, Type 0, BuildingBlock: GIZVER_clean_linker_0, # of connection points: 4
#     Node 4, Type 0, BuildingBlock: GIZVER_clean_linker_0, # of connection points: 4
#     Node 5, Type 0, BuildingBlock: GIZVER_clean_linker_0, # of connection points: 4
#     Node 6, Type 1, BuildingBlock: KUFVIS_clean_sbu_0, # of connection points: 4
#     Node 7, Type 1, BuildingBlock: KUFVIS_clean_sbu_0, # of connection points: 4
#     Node 8, Type 1, BuildingBlock: KUFVIS_clean_sbu_0, # of connection points: 4
#     Node 9, Type 1, BuildingBlock: KUFVIS_clean_sbu_0, # of connection points: 4
#     Node 10, Type 1, BuildingBlock: KUFVIS_clean_sbu_0, # of connection points: 4
#     Node 11, Type 1, BuildingBlock: KUFVIS_clean_sbu_0, # of connection points: 4
#     Edge 12, Type (0, 1), BuildingBlock: KIFKEQ_clean_linker_1, # of connection points: 2
#     Edge 13, Type (0, 1), BuildingBlock: KIFKEQ_clean_linker_1, # of connection points: 2
#     Edge 14, Type (0, 1), BuildingBlock: KIFKEQ_clean_linker_1, # of connection points: 2
#     Edge 15, Type (0, 1), BuildingBlock: KIFKEQ_clean_linker_1, # of connection points: 2
#     Edge 16, Type (0, 1), BuildingBlock: KIFKEQ_clean_linker_1, # of connection points: 2
#     Edge 17, Type (0, 1), BuildingBlock: KIFKEQ_clean_linker_1, # of connection points: 2
#     Edge 18, Type (0, 1), BuildingBlock: KIFKEQ_clean_linker_1, # of connection points: 2
#     Edge 19, Type (0, 1), BuildingBlock: KIFKEQ_clean_linker_1, # of connection points: 2
#     Edge 20, Type (0, 1), BuildingBlock: KIFKEQ_clean_linker_1, # of connection points: 2
#     Edge 21, Type (0, 1), BuildingBlock: KIFKEQ_clean_linker_1, # of connection points: 2
#     Edge 22, Type (0, 1), BuildingBlock: KIFKEQ_clean_linker_1, # of connection points: 2
#     Edge 23, Type (0, 1), BuildingBlock: KIFKEQ_clean_linker_1, # of connection points: 2
#     Edge 24, Type (0, 1), BuildingBlock: KIFKEQ_clean_linker_1, # of connection points: 2
#     Edge 25, Type (0, 1), BuildingBlock: KIFKEQ_clean_linker_1, # of connection points: 2
#     Edge 26, Type (0, 1), BuildingBlock: KIFKEQ_clean_linker_1, # of connection points: 2
#     Edge 27, Type (0, 1), BuildingBlock: KIFKEQ_clean_linker_1, # of connection points: 2
#     Edge 28, Type (0, 1), BuildingBlock: KIFKEQ_clean_linker_1, # of connection points: 2
#     Edge 29, Type (0, 1), BuildingBlock: KIFKEQ_clean_linker_1, # of connection points: 2
#     Edge 30, Type (0, 1), BuildingBlock: KIFKEQ_clean_linker_1, # of connection points: 2
#     Edge 31, Type (0, 1), BuildingBlock: KIFKEQ_clean_linker_1, # of connection points: 2
#     Edge 32, Type (0, 1), BuildingBlock: KIFKEQ_clean_linker_1, # of connection points: 2
#     Edge 33, Type (0, 1), BuildingBlock: KIFKEQ_clean_linker_1, # of connection points: 2
#     Edge 34, Type (0, 1), BuildingBlock: KIFKEQ_clean_linker_1, # of connection points: 2
#     Edge 35, Type (0, 1), BuildingBlock: KIFKEQ_clean_linker_1, # of connection points: 2
# Relax obj value: 0.005
# Max RMSD: 0.073
# Mean RMSD: 0.051
data_MOF--net-nom--node1-KUFVIS_clean_sbu_0--node2-GIZVER_clean_linker_0--edge1-KIFKEQ_clean_linker_1
_symmetry_space_group_name_H-M    P1
_symmetry_Int_Tables_number       1
_symmetry_cell_setting            triclinic
loop_
_symmetry_equiv_pos_as_xyz
'x, y, z'
_cell_length_a     46.382075
_cell_length_b     46.872647
_cell_length_c     47.669697
_cell_angle_alpha  90.500465
_cell_angle_beta   90.411303
_cell_angle_gamma 120.02501
loop_
_atom_site_label
_atom_site_type_symbol
_atom_site_fract_x
_atom_site_fract_y
_atom_site_fract_z
_atom_type_partial_charge
H0 H 0.97893 0.57085 0.3395 0.0
H1 H 1.01234 0.57487 0.25473 0.0
H2 H 0.91723 0.49572 0.27908 0.0
H3 H 0.02474 0.62188 0.32161 0.0
H4 H 0.03533 0.62506 0.28542 0.0
H5 H 0.04684 0.59659 0.35533 0.0
H6 H 0.14089 0.60646 0.33341 0.0
H7 H 0.08133 0.61819 0.27013 0.0
C8 C 0.97516 0.55982 0.31876 0.0
C9 C 0.94524 0.5305 0.3122 0.0
C10 C 0.99969 0.57581 0.29816 0.0
C11 C 0.99421 0.56214 0.27094 0.0
C12 C 0.96477 0.53281 0.26433 0.0
C13 C 0.9408 0.51714 0.28502 0.0
C14 C 0.02985 0.6092 0.30413 0.0
C15 C 0.06008 0.6065 0.31165 0.0
C16 C 0.06503 0.60017 0.33955 0.0
C17 C 0.09397 0.59968 0.34729 0.0
C18 C 0.11775 0.60511 0.32696 0.0
C19 C 0.11371 0.61196 0.29913 0.0
C20 C 0.08456 0.6124 0.29147 0.0
H21 H 0.43448 0.97611 0.50662 0.0
H22 H 0.46137 1.00725 0.42121 0.0
H23 H 0.44989 0.91504 0.44798 0.0
H24 H 0.42792 0.021 0.48769 0.0
H25 H 0.43446 0.03062 0.45133 0.0
H26 H 0.47716 0.04266 0.5209 0.0
H27 H 0.55927 0.13677 0.49885 0.0
H28 H 0.48605 0.07751 0.43615 0.0
C29 C 0.44166 0.97223 0.48598 0.0
C30 C 0.44253 0.94316 0.48013 0.0
C31 C 0.44912 0.99587 0.46488 0.0
C32 C 0.45688 0.98986 0.43778 0.0
C33 C 0.45761 0.9609 0.43177 0.0
C34 C 0.45098 0.93815 0.4531 0.0
C35 C 0.44549 0.02576 0.47022 0.0
C36 C 0.47853 0.05602 0.47744 0.0
C37 C 0.49093 0.06091 0.50514 0.0
C38 C 0.52031 0.08985 0.51279 0.0
C39 C 0.53755 0.11369 0.49249 0.0
C40 C 0.52556 0.10974 0.46484 0.0
C41 C 0.49595 0.08063 0.45732 0.0
H42 H 0.44083 0.49205 0.6091 0.0
H43 H 0.45689 0.47503 0.69493 0.0
H44 H 0.44473 0.55732 0.67499 0.0
H45 H 0.43056 0.43801 0.62343 0.0
H46 H 0.4341 0.42995 0.65935 0.0
H47 H 0.47943 0.46137 0.59274 0.0
H48 H 0.56038 0.4481 0.6195 0.0
H49 H 0.48654 0.43762 0.67882 0.0
C50 C 0.44505 0.49996 0.6309 0.0
C51 C 0.44311 0.52786 0.63933 0.0
C52 C 0.45036 0.48091 0.65083 0.0
C53 C 0.45431 0.49032 0.67932 0.0
C54 C 0.45306 0.51837 0.68787 0.0
C55 C 0.44802 0.53713 0.66781 0.0
C56 C 0.44681 0.44812 0.64244 0.0
C57 C 0.48002 0.45069 0.63673 0.0
C58 C 0.49285 0.45716 0.60939 0.0
C59 C 0.52212 0.45666 0.60324 0.0
C60 C 0.53882 0.45028 0.62469 0.0
C61 C 0.52628 0.44322 0.65195 0.0
C62 C 0.4969 0.44375 0.65798 0.0
H63 H 0.97034 0.45559 0.77165 0.0
H64 H 1.00769 0.47547 0.85668 0.0
H65 H 0.90954 0.45766 0.83849 0.0
H66 H 1.01643 0.44881 0.78439 0.0
H67 H 0.02726 0.44958 0.82029 0.0
H68 H 0.04969 0.49478 0.75506 0.0
H69 H 0.1423 0.57174 0.78903 0.0
H70 H 0.06791 0.50236 0.84425 0.0
C71 C 0.96738 0.46032 0.79342 0.0
C72 C 0.93678 0.45654 0.80241 0.0
C73 C 0.99329 0.46746 0.81282 0.0
C74 C 0.98875 0.47188 0.84136 0.0
C75 C 0.95884 0.46931 0.85043 0.0
C76 C 0.93341 0.46223 0.83084 0.0
C77 C 0.02257 0.46378 0.80408 0.0
C78 C 0.05427 0.49636 0.80028 0.0
C79 C 0.06518 0.50812 0.77305 0.0
C80 C 0.09727 0.535 0.76891 0.0
C81 C 0.11745 0.55129 0.79238 0.0
C82 C 0.10763 0.53956 0.81963 0.0
C83 C 0.07558 0.51234 0.82347 0.0
H84 H 0.59935 0.06919 0.00635 0.0
H85 H 0.56774 0.03449 0.92162 0.0
H86 H 0.59281 0.13278 0.94553 0.0
H87 H 0.60353 0.02314 0.98818 0.0
H88 H 0.59608 1.01229 0.95195 0.0
H89 H 0.55605 1.00137 0.02158 0.0
H90 H 0.47657 0.90457 -0.00125 0.0
H91 H 0.54346 0.9669 0.93585 0.0
C92 C 0.59248 0.07304 0.98554 0.0
C93 C 0.59577 0.10372 0.97883 0.0
C94 C 0.58239 0.04796 0.96495 0.0
C95 C 0.57455 0.05339 0.93767 0.0
C96 C 0.57761 0.08384 0.93065 0.0
C97 C 0.58792 0.10851 0.95144 0.0
C98 C 0.5855 0.01794 0.97066 0.0
C99 C 0.55265 0.988 0.97777 0.0
C100 C 0.54185 0.98269 0.00574 0.0
C101 C 0.51414 0.95265 0.01355 0.0
C102 C 0.49664 0.92856 -0.00726 0.0
C103 C 0.50672 0.93344 0.9647 0.0
C104 C 0.53475 0.96336 0.95726 0.0
H105 H 0.60702 0.54744 0.10835 0.0
H106 H 0.58557 0.56168 0.19338 0.0
H107 H 0.59474 0.47763 0.1717 0.0
H108 H 0.61907 0.6016 0.12514 0.0
H109 H 0.61327 0.60827 0.1609 0.0
H110 H 0.57638 0.58966 0.09023 0.0
H111 H 0.49817 0.60796 0.11382 0.0
H112 H 0.55818 0.59787 0.17778 0.0
C113 C 0.60064 0.53852 0.12958 0.0
C114 C 0.60023 0.50938 0.13727 0.0
C115 C 0.59482 0.5573 0.14967 0.0
C116 C 0.58842 0.54655 0.17756 0.0
C117 C 0.58794 0.51756 0.18548 0.0
C118 C 0.59311 0.49887 0.16514 0.0
C119 C 0.60111 0.59131 0.14266 0.0
C120 C 0.56962 0.59171 0.13497 0.0
C121 C 0.56135 0.59185 0.10649 0.0
C122 C 0.53577 0.59806 0.09905 0.0
C123 C 0.51712 0.60206 0.12002 0.0
C124 C 0.52477 0.60215 0.1485 0.0
C125 C 0.55106 0.59665 0.15591 0.0
Mn126 Mn 0.64511 0.39703 0.40126 0.0
Mn127 Mn 0.68244 0.47685 0.42283 0.0
C128 C 0.6196 0.41405 0.43364 0.0
C129 C 0.63363 0.34247 0.40439 0.0
C130 C 0.64409 0.45289 0.36832 0.0
O131 O 0.69328 0.41435 0.38921 0.0
O132 O 0.71376 0.46737 0.40224 0.0
C133 C 0.72847 0.47282 0.4639 0.0
N134 N 0.70454 0.48064 0.45783 0.0
C135 C 0.70734 0.5013 0.50473 0.0
C136 C 0.73215 0.49363 0.51146 0.0
C137 C 0.74262 0.47916 0.49098 0.0
C138 C 0.69389 0.49406 0.47749 0.0
H139 H 0.73675 0.46188 0.4482 0.0
C140 C 0.71692 0.44426 0.39093 0.0
O141 O 0.62931 0.35412 0.38115 0.0
O142 O 0.64615 0.36297 0.42549 0.0
N143 N 0.65621 0.49077 0.44331 0.0
C144 C 0.63176 0.49631 0.43356 0.0
C145 C 0.6183 0.51041 0.45154 0.0
C146 C 0.63065 0.51943 0.47912 0.0
C147 C 0.65638 0.51426 0.48848 0.0
C148 C 0.66868 0.49993 0.46967 0.0
H149 H 0.62247 0.48982 0.41227 0.0
O150 O 0.60223 0.38756 0.4186 0.0
O151 O 0.65165 0.42982 0.42981 0.0
O152 O 0.63834 0.42332 0.37017 0.0
O153 O 0.6597 0.47496 0.3872 0.0
C154 C 0.67023 0.52262 0.51577 0.0
C155 C 0.69544 0.51584 0.52398 0.0
H156 H 0.74326 0.49867 0.53228 0.0
H157 H 0.76169 0.47308 0.49603 0.0
H158 H 0.59854 0.51445 0.44411 0.0
H159 H 0.62017 0.53026 0.49294 0.0
H160 H 0.66149 0.53406 0.5307 0.0
H161 H 0.70555 0.52198 0.54514 0.0
Mn162 Mn 0.27442 0.65889 0.55166 0.0
Mn163 Mn 0.23103 0.57872 0.53106 0.0
C164 C 0.23074 0.64095 0.51971 0.0
C165 C 0.31766 0.71346 0.5475 0.0
C166 C 0.2184 0.60329 0.58556 0.0
O167 O 0.30581 0.64225 0.56363 0.0
O168 O 0.27282 0.58901 0.55108 0.0
C169 C 0.27984 0.58234 0.48943 0.0
N170 N 0.24815 0.57443 0.49591 0.0
C171 C 0.22845 0.55258 0.44944 0.0
C172 C 0.26083 0.56032 0.4423 0.0
C173 C 0.28666 0.57543 0.46236 0.0
C174 C 0.22323 0.56037 0.47665 0.0
H175 H 0.29974 0.59375 0.50481 0.0
C176 C 0.2996 0.61247 0.56202 0.0
O177 O 0.3024 0.70233 0.57103 0.0
O178 O 0.30888 0.6925 0.52676 0.0
N179 N 0.18997 0.56421 0.5111 0.0
C180 C 0.1603 0.55901 0.52112 0.0
C181 C 0.13197 0.54452 0.50351 0.0
C182 C 0.13426 0.5348 0.47604 0.0
C183 C 0.16489 0.53972 0.4664 0.0
C184 C 0.19231 0.5545 0.48483 0.0
H185 H 0.15831 0.56607 0.54231 0.0
O186 O 0.24029 0.66763 0.53446 0.0
O187 O 0.24722 0.62553 0.52362 0.0
O188 O 0.24222 0.63294 0.58326 0.0
O189 O 0.21128 0.58096 0.56691 0.0
C190 C 0.16935 0.53073 0.43918 0.0
C191 C 0.20116 0.53745 0.43061 0.0
H192 H 0.26615 0.55486 0.42149 0.0
H193 H 0.31174 0.58157 0.457 0.0
H194 H 0.1084 0.54071 0.51114 0.0
H195 H 0.11237 0.52367 0.46252 0.0
H196 H 0.14853 0.51888 0.42457 0.0
H197 H 0.20436 0.53087 0.40949 0.0
Mn198 Mn 0.6351 0.26613 0.71985 0.0
Mn199 Mn 0.67703 0.22722 0.70064 0.0
C200 C 0.61236 0.22398 0.68674 0.0
C201 C 0.62305 0.30874 0.71584 0.0
C202 C 0.63749 0.21212 0.75399 0.0
O203 O 0.68237 0.29773 0.73421 0.0
O204 O 0.70746 0.26985 0.71952 0.0
C205 C 0.71974 0.27468 0.65781 0.0
N206 N 0.69718 0.24328 0.66511 0.0
C207 C 0.69906 0.22252 0.61925 0.0
C208 C 0.72246 0.2546 0.61126 0.0
C209 C 0.73271 0.28081 0.63059 0.0
C210 C 0.68681 0.21796 0.64657 0.0
H211 H 0.72782 0.29486 0.67265 0.0
C212 C 0.70808 0.2947 0.73146 0.0
O213 O 0.61753 0.29225 0.73881 0.0
O214 O 0.63642 0.30108 0.69541 0.0
N215 N 0.65139 0.18556 0.68183 0.0
C216 C 0.62793 0.15626 0.69258 0.0
C217 C 0.61454 0.12763 0.67571 0.0
C218 C 0.62593 0.12929 0.64821 0.0
C219 C 0.65062 0.15958 0.63783 0.0
C220 C 0.66288 0.18731 0.65555 0.0
H221 H 0.61939 0.15476 0.71381 0.0
O222 O 0.59358 0.23243 0.7003 0.0
O223 O 0.64417 0.24102 0.69225 0.0
O224 O 0.6277 0.23291 0.75056 0.0
O225 O 0.65658 0.20848 0.73698 0.0
C226 C 0.66338 0.16342 0.61053 0.0
C227 C 0.68734 0.1949 0.60115 0.0
H228 H 0.73262 0.25941 0.59032 0.0
H229 H 0.75068 0.30566 0.62457 0.0
H230 H 0.59559 0.10432 0.68392 0.0
H231 H 0.6155 0.10717 0.63525 0.0
H232 H 0.65468 0.14235 0.59646 0.0
H233 H 0.69655 0.1976 0.57996 0.0
Mn234 Mn 0.40259 0.64799 0.90119 0.0
Mn235 Mn 0.36733 0.57057 0.92638 0.0
C236 C 0.43263 0.63321 0.93048 0.0
C237 C 0.41335 0.70219 0.90414 0.0
C238 C 0.39525 0.58821 0.86791 0.0
O239 O 0.35319 0.63035 0.8939 0.0
O240 O 0.3324 0.57939 0.91143 0.0
C241 C 0.33311 0.58085 0.97432 0.0
N242 N 0.35469 0.5716 0.9643 0.0
C243 C 0.36579 0.55949 0.01076 0.0
C244 C 0.34351 0.56867 0.02156 0.0
C245 C 0.32718 0.57948 0.00326 0.0
C246 C 0.37076 0.56145 0.98175 0.0
H247 H 0.32058 0.58928 0.96036 0.0
C248 C 0.32888 0.60203 0.89985 0.0
O249 O 0.41488 0.68925 0.8804 0.0
O250 O 0.40491 0.68345 0.92595 0.0
N251 N 0.39755 0.55808 0.94183 0.0
C252 C 0.41838 0.55025 0.92809 0.0
C253 C 0.43632 0.53859 0.94333 0.0
C254 C 0.43244 0.53484 0.97248 0.0
C255 C 0.41064 0.54274 0.98615 0.0
C256 C 0.39306 0.5538 0.9698 0.0
H257 H 0.42141 0.55296 0.90568 0.0
O258 O 0.44785 0.65853 0.91437 0.0
O259 O 0.40024 0.61775 0.92958 0.0
O260 O 0.40407 0.61873 0.86969 0.0
O261 O 0.38087 0.56785 0.88771 0.0
C262 C 0.40576 0.54022 0.01536 0.0
C263 C 0.38348 0.54876 0.02768 0.0
H264 H 0.33889 0.56767 0.04387 0.0
H265 H 0.31007 0.58675 0.01145 0.0
H266 H 0.45307 0.5325 0.93263 0.0
H267 H 0.44624 0.52575 0.98414 0.0
H268 H 0.41922 0.53201 0.02857 0.0
H269 H 0.38016 0.54701 0.05019 0.0
Mn270 Mn 0.77835 0.40125 0.06518 0.0
Mn271 Mn 0.82243 0.36474 0.08464 0.0
C272 C 0.82254 0.4275 0.09642 0.0
C273 C 0.73405 0.41127 0.07032 0.0
C274 C 0.83397 0.40118 0.03027 0.0
O275 O 0.74739 0.35344 0.05324 0.0
O276 O 0.78002 0.33263 0.06563 0.0
C277 C 0.77522 0.32136 0.12746 0.0
N278 N 0.80661 0.34473 0.12023 0.0
C279 C 0.82775 0.34482 0.16648 0.0
C280 C 0.79571 0.3206 0.17438 0.0
C281 C 0.7693 0.30895 0.15481 0.0
C282 C 0.83208 0.35645 0.139 0.0
H283 H 0.75486 0.31222 0.11249 0.0
C284 C 0.75319 0.32963 0.05505 0.0
O285 O 0.74919 0.41571 0.04659 0.0
O286 O 0.74394 0.4 0.09077 0.0
N287 N 0.86409 0.39181 0.10362 0.0
C288 C 0.89337 0.41568 0.09287 0.0
C289 C 0.92218 0.43024 0.1099 0.0
C290 C 0.92079 0.41965 0.13758 0.0
C291 C 0.89056 0.39454 0.14798 0.0
C292 C 0.86264 0.38102 0.13008 0.0
H293 H 0.89466 0.42375 0.07155 0.0
O294 O 0.81216 0.44419 0.08226 0.0
O295 O 0.80634 0.39567 0.09252 0.0
O296 O 0.81039 0.40757 0.03314 0.0
O297 O 0.84087 0.38549 0.04838 0.0
C298 C 0.88698 0.38255 0.17549 0.0
C299 C 0.85554 0.35793 0.18482 0.0
H300 H 0.79107 0.31087 0.19542 0.0
H301 H 0.74447 0.29035 0.16077 0.0
H302 H 0.94543 0.44955 0.10168 0.0
H303 H 0.94303 0.43102 0.15068 0.0
H304 H 0.90818 0.3923 0.18975 0.0
H305 H 0.85302 0.34925 0.20614 0.0
Mn306 Mn 0.40209 0.77818 0.23054 0.0
Mn307 Mn 0.48349 0.82114 0.25018 0.0
C308 C 0.42065 0.82192 0.26198 0.0
C309 C 0.3473 0.73499 0.23509 0.0
C310 C 0.45762 0.83174 0.19523 0.0
O311 O 0.4192 0.74721 0.21862 0.0
O312 O 0.47255 0.77812 0.23317 0.0
C313 C 0.48074 0.77689 0.29534 0.0
N314 N 0.48846 0.80749 0.28668 0.0
C315 C 0.51062 0.83103 0.33226 0.0
C316 C 0.50308 0.7998 0.34164 0.0
C317 C 0.48793 0.77259 0.32313 0.0
C318 C 0.50265 0.83375 0.3044 0.0
H319 H 0.46923 0.75593 0.28114 0.0
C320 C 0.44866 0.75195 0.22197 0.0
O321 O 0.35823 0.75004 0.21152 0.0
O322 O 0.36863 0.74404 0.25576 0.0
N323 N 0.49825 0.86337 0.26731 0.0
C324 C 0.50293 0.89161 0.25523 0.0
C325 C 0.51723 0.921 0.27113 0.0
C326 C 0.52718 0.92121 0.29907 0.0
C327 C 0.52275 0.892 0.31086 0.0
C328 C 0.50821 0.86343 0.29405 0.0
H329 H 0.49567 0.89168 0.23367 0.0
O330 O 0.39317 0.81187 0.24784 0.0
O331 O 0.43628 0.80569 0.25788 0.0
O332 O 0.4272 0.81 0.19883 0.0
O333 O 0.48091 0.83754 0.21276 0.0
C334 C 0.53193 0.89005 0.3387 0.0
C335 C 0.52559 0.85953 0.34948 0.0
H336 H 0.50868 0.7964 0.36304 0.0
H337 H 0.48193 0.74838 0.33023 0.0
H338 H 0.52067 0.94346 0.26185 0.0
H339 H 0.53811 0.94391 0.3113 0.0
H340 H 0.54357 0.91181 0.35211 0.0
H341 H 0.53228 0.85826 0.37107 0.0
H342 H 0.14167 0.666 0.26535 0.0
H343 H 0.15148 0.58299 0.29057 0.0
H344 H 0.19706 0.6914 0.2447 0.0
H345 H 0.20695 0.60857 0.2703 0.0
H346 H 0.2952 0.72251 0.20007 0.0
H347 H 0.23568 0.68783 0.2091 0.0
H348 H 0.25892 0.65893 0.28801 0.0
H349 H 0.31829 0.6937 0.27913 0.0
C350 C 0.15512 0.65263 0.2656 0.0
C351 C 0.14237 0.62269 0.27989 0.0
C352 C 0.18695 0.66726 0.2539 0.0
C353 C 0.20662 0.65226 0.25639 0.0
C354 C 0.19266 0.62101 0.26855 0.0
C355 C 0.16084 0.60631 0.28001 0.0
C356 C 0.2876 0.70835 0.21915 0.0
C357 C 0.31148 0.71092 0.23894 0.0
C358 C 0.25351 0.68864 0.22435 0.0
C359 C 0.24259 0.67065 0.24924 0.0
C360 C 0.26651 0.67218 0.26847 0.0
C361 C 0.30056 0.69223 0.26346 0.0
H362 H 0.59215 0.14718 0.45504 0.0
H363 H 0.49748 0.13801 0.43284 0.0
H364 H 0.621 0.20247 0.43557 0.0
H365 H 0.52641 0.19331 0.41298 0.0
H366 H 0.59216 0.29167 0.36913 0.0
H367 H 0.56736 0.23249 0.37719 0.0
H368 H 0.623 0.25355 0.45498 0.0
H369 H 0.6475 0.31253 0.4471 0.0
C370 C 0.57753 0.15665 0.44527 0.0
C371 C 0.54251 0.13837 0.44578 0.0
C372 C 0.59406 0.18839 0.43429 0.0
C373 C 0.57599 0.20252 0.42324 0.0
C374 C 0.54105 0.1831 0.42133 0.0
C375 C 0.52444 0.15132 0.43255 0.0
C376 C 0.59948 0.28365 0.38774 0.0
C377 C 0.62179 0.30682 0.40752 0.0
C378 C 0.58512 0.24975 0.3924 0.0
C379 C 0.59321 0.23831 0.41669 0.0
C380 C 0.61652 0.26153 0.43588 0.0
C381 C 0.63047 0.29536 0.43145 0.0
H382 H 0.39464 0.499 0.59846 0.0
H383 H 0.46165 0.59356 0.63702 0.0
H384 H 0.36423 0.52243 0.5761 0.0
H385 H 0.42945 0.61633 0.61647 0.0
H386 H 0.36803 0.65125 0.56597 0.0
H387 H 0.40779 0.63327 0.57868 0.0
H388 H 0.32567 0.53562 0.5947 0.0
H389 H 0.28667 0.55315 0.5812 0.0
C390 C 0.40343 0.52498 0.60173 0.0
C391 C 0.43024 0.54412 0.62014 0.0
C392 C 0.3855 0.53832 0.58932 0.0
C393 C 0.3935 0.57098 0.59533 0.0
C394 C 0.42225 0.59102 0.61152 0.0
C395 C 0.44057 0.57782 0.62356 0.0
C396 C 0.35867 0.62604 0.57239 0.0
C397 C 0.32424 0.60359 0.57242 0.0
C398 C 0.3814 0.61566 0.57958 0.0
C399 C 0.37006 0.58272 0.58715 0.0
C400 C 0.33554 0.56081 0.58801 0.0
C401 C 0.31305 0.57101 0.58059 0.0
H402 H 0.9194 0.4074 0.76299 0.0
H403 H 0.88415 0.46829 0.80078 0.0
H404 H 0.86475 0.37212 0.7425 0.0
H405 H 0.82849 0.43109 0.78232 0.0
H406 H 0.73103 0.36132 0.73496 0.0
H407 H 0.78798 0.40506 0.74624 0.0
H408 H 0.81568 0.33118 0.76221 0.0
H409 H 0.7598 0.28821 0.74986 0.0
C410 C 0.90029 0.41381 0.76651 0.0
C411 C 0.90625 0.44045 0.78416 0.0
C412 C 0.86855 0.39301 0.7552 0.0
C413 C 0.84171 0.39785 0.76168 0.0
C414 C 0.84834 0.42626 0.77708 0.0
C415 C 0.88031 0.44748 0.78793 0.0
C416 C 0.74937 0.35462 0.7411 0.0
C417 C 0.74102 0.32137 0.74141 0.0
C418 C 0.78204 0.37964 0.74748 0.0
C419 C 0.80682 0.37182 0.75458 0.0
C420 C 0.79782 0.3384 0.75584 0.0
C421 C 0.76554 0.31362 0.74912 0.0
H422 H 0.53653 0.90903 0.93038 0.0
H423 H 0.44018 0.89238 0.9556 0.0
H424 H 0.51019 0.85373 0.90944 0.0
H425 H 0.41388 0.83705 0.93487 0.0
H426 H 0.44865 0.75207 0.8673 0.0
H427 H 0.46865 0.81099 0.87444 0.0
H428 H 0.41893 0.78996 0.95416 0.0
H429 H 0.39931 0.73152 0.94718 0.0
C430 C 0.50963 0.89407 0.93046 0.0
C431 C 0.49044 0.90485 0.94494 0.0
C432 C 0.49453 0.86232 0.91856 0.0
C433 C 0.46005 0.84085 0.92104 0.0
C434 C 0.44058 0.85285 0.93311 0.0
C435 C 0.4556 0.88455 0.94485 0.0
C436 C 0.44162 0.76006 0.88613 0.0
C437 C 0.42253 0.73722 0.90676 0.0
C438 C 0.45316 0.79375 0.89024 0.0
C439 C 0.44526 0.80508 0.91479 0.0
C440 C 0.42506 0.78199 0.93483 0.0
C441 C 0.41401 0.74851 0.93094 0.0
H442 H 0.65446 0.53736 0.10304 0.0
H443 H 0.5744 0.443 0.12931 0.0
H444 H 0.68213 0.51013 0.08164 0.0
H445 H 0.60235 0.41583 0.10822 0.0
H446 H 0.7186 0.44845 0.03605 0.0
H447 H 0.68092 0.46961 0.04592 0.0
H448 H 0.65461 0.41761 0.12432 0.0
H449 H 0.69218 0.39663 0.11455 0.0
C450 C 0.64217 0.51072 0.10342 0.0
C451 C 0.61239 0.4924 0.1182 0.0
C452 C 0.65813 0.4951 0.09124 0.0
C453 C 0.64472 0.46087 0.09369 0.0
C454 C 0.61362 0.4423 0.10647 0.0
C455 C 0.59757 0.45786 0.11846 0.0
C456 C 0.70436 0.44114 0.05518 0.0
C457 C 0.70847 0.42097 0.07459 0.0
C458 C 0.68292 0.45339 0.06087 0.0
C459 C 0.66477 0.4453 0.08589 0.0
C460 C 0.66789 0.424 0.1047 0.0
C461 C 0.6896 0.41213 0.09919 0.0
H462 H 0.38572 0.91566 0.51141 0.0
H463 H 0.47216 0.90717 0.49322 0.0
H464 H 0.35942 0.86143 0.53326 0.0
H465 H 0.44574 0.85289 0.51462 0.0
H466 H 0.32724 0.76531 0.58101 0.0
H467 H 0.36174 0.82423 0.57141 0.0
H468 H 0.39614 0.80074 0.49547 0.0
H469 H 0.3615 0.74207 0.50483 0.0
C470 C 0.3996 0.90278 0.51299 0.0
C471 C 0.43085 0.91553 0.50029 0.0
C472 C 0.38446 0.87162 0.52536 0.0
C473 C 0.40026 0.85262 0.52513 0.0
C474 C 0.43269 0.86667 0.51463 0.0
C475 C 0.44787 0.89782 0.50252 0.0
C476 C 0.34259 0.77277 0.5625 0.0
C477 C 0.34162 0.74902 0.54364 0.0
C478 C 0.36218 0.8065 0.55695 0.0
C479 C 0.38168 0.81715 0.53272 0.0
C480 C 0.38169 0.79337 0.5145 0.0
C481 C 0.36173 0.75972 0.51978 0.0
H482 H 0.49546 0.38757 0.6835 0.0
H483 H 0.59237 0.46963 0.66459 0.0
H484 H 0.5218 0.35888 0.70472 0.0
H485 H 0.61869 0.44085 0.68553 0.0
H486 H 0.58232 0.31997 0.7498 0.0
H487 H 0.56071 0.35736 0.74156 0.0
H488 H 0.6182 0.39076 0.66586 0.0
H489 H 0.6396 0.35341 0.67396 0.0
C490 C 0.52239 0.40002 0.68487 0.0
C491 C 0.54184 0.43067 0.67209 0.0
C492 C 0.5375 0.38351 0.69688 0.0
C493 C 0.57231 0.39734 0.69624 0.0
C494 C 0.5918 0.4293 0.68582 0.0
C495 C 0.57674 0.44585 0.674 0.0
C496 C 0.59068 0.33564 0.7316 0.0
C497 C 0.61258 0.33366 0.71244 0.0
C498 C 0.5782 0.35694 0.72687 0.0
C499 C 0.58779 0.37706 0.70312 0.0
C500 C 0.61066 0.37591 0.68456 0.0
C501 C 0.62276 0.35434 0.68909 0.0
H502 H 0.15738 0.60326 0.83025 0.0
H503 H 0.11768 0.50396 0.86009 0.0
H504 H 0.20972 0.61951 0.85398 0.0
H505 H 0.16874 0.52099 0.88649 0.0
H506 H 0.27581 0.5425 0.88581 0.0
H507 H 0.21969 0.52952 0.87387 0.0
H508 H 0.24733 0.63129 0.88943 0.0
H509 H 0.30439 0.64445 0.89945 0.0
C510 C 0.15942 0.5851 0.84268 0.0
C511 C 0.13367 0.55197 0.84227 0.0
C512 C 0.18953 0.59454 0.85665 0.0
C513 C 0.19428 0.5713 0.8714 0.0
C514 C 0.16675 0.5393 0.87426 0.0
C515 C 0.13696 0.52963 0.8596 0.0
C516 C 0.26984 0.56207 0.88669 0.0
C517 C 0.29455 0.59453 0.89326 0.0
C518 C 0.23739 0.55458 0.88022 0.0
C519 C 0.22841 0.57921 0.88081 0.0
C520 C 0.25313 0.61165 0.8882 0.0
C521 C 0.28591 0.61928 0.894 0.0
H522 H 0.64877 0.12086 0.01466 0.0
H523 H 0.58111 0.15317 0.98662 0.0
H524 H 0.68361 0.17406 0.03731 0.0
H525 H 0.6175 0.20737 0.00694 0.0
H526 H 0.68523 0.30217 0.055 0.0
H527 H 0.64348 0.2452 0.04327 0.0
H528 H 0.7222 0.22541 0.02115 0.0
H529 H 0.76337 0.28139 0.03434 0.0
C530 C 0.64091 0.13904 0.01374 0.0
C531 C 0.61242 0.13283 -0.00176 0.0
C532 C 0.66136 0.16996 0.02624 0.0
C533 C 0.65421 0.19568 0.02312 0.0
C534 C 0.62414 0.18848 0.00975 0.0
C535 C 0.60334 0.15736 -0.00221 0.0
C536 C 0.69342 0.28554 0.04751 0.0
C537 C 0.72753 0.29621 0.04557 0.0
C538 C 0.66953 0.25283 0.0408 0.0
C539 C 0.67926 0.23026 0.03154 0.0
C540 C 0.71351 0.24146 0.02906 0.0
C541 C 0.73725 0.27382 0.03625 0.0
H542 H 0.45917 0.58564 0.15136 0.0
H543 H 0.55487 0.64703 0.19146 0.0
H544 H 0.43837 0.61923 0.17217 0.0
H545 H 0.53334 0.67908 0.21416 0.0
H546 H 0.50884 0.76087 0.20708 0.0
H547 H 0.52399 0.71973 0.19598 0.0
H548 H 0.42206 0.64271 0.208 0.0
H549 H 0.40661 0.68466 0.21809 0.0
C550 C 0.47544 0.60564 0.16546 0.0
C551 C 0.50903 0.61423 0.16903 0.0
C552 C 0.4634 0.62487 0.17758 0.0
C553 C 0.48449 0.65276 0.19409 0.0
C554 C 0.51674 0.65862 0.20062 0.0
C555 C 0.52896 0.63975 0.18806 0.0
C556 C 0.48956 0.73516 0.20733 0.0
C557 C 0.45648 0.72608 0.21343 0.0
C558 C 0.49837 0.71139 0.20134 0.0
C559 C 0.4745 0.67762 0.20164 0.0
C560 C 0.44118 0.66844 0.20747 0.0
C561 C 0.43224 0.69244 0.21317 0.0
H562 H 0.9242 0.56286 0.3475 0.0
H563 H 0.89996 0.46505 0.32047 0.0
H564 H 0.87047 0.54006 0.37 0.0
H565 H 0.84508 0.44256 0.34081 0.0
H566 H 0.74942 0.40857 0.39068 0.0
H567 H 0.80741 0.42839 0.37769 0.0
H568 H 0.81688 0.52128 0.35304 0.0
H569 H 0.76014 0.50206 0.3672 0.0
C570 C 0.90773 0.53641 0.34676 0.0
C571 C 0.91628 0.51596 0.33157 0.0
C572 C 0.87647 0.52332 0.35919 0.0
C573 C 0.85269 0.48953 0.35636 0.0
C574 C 0.8624 0.46869 0.34333 0.0
C575 C 0.8939 0.48171 0.33137 0.0
C576 C 0.764 0.4331 0.38227 0.0
C577 C 0.75032 0.4538 0.38003 0.0
C578 C 0.79727 0.44456 0.37489 0.0
C579 C 0.81733 0.4768 0.36478 0.0
C580 C 0.80292 0.49683 0.36168 0.0
C581 C 0.77009 0.48562 0.36943 0.0
H582 H 0.09507 0.63761 0.39149 0.0
H583 H 0.11361 0.55884 0.36926 0.0
H584 H 0.1248 0.64561 0.43614 0.0
H585 H 0.1432 0.56681 0.4136 0.0
H586 H 0.23817 0.62805 0.46583 0.0
H587 H 0.19844 0.6136 0.42707 0.0
H588 H 0.13015 0.62296 0.48241 0.0
H589 H 0.17043 0.63763 0.52133 0.0
C590 C 0.10435 0.62118 0.39667 0.0
C591 C 0.10237 0.5978 0.37693 0.0
C592 C 0.12152 0.62586 0.42213 0.0
C593 C 0.13694 0.60726 0.42807 0.0
C594 C 0.13214 0.58188 0.40938 0.0
C595 C 0.115 0.57715 0.3841 0.0
C596 C 0.21448 0.62659 0.46971 0.0
C597 C 0.20663 0.63261 0.49659 0.0
C598 C 0.19173 0.61833 0.4476 0.0
C599 C 0.16081 0.61636 0.45189 0.0
C600 C 0.15363 0.62397 0.47859 0.0
C601 C 0.17654 0.63229 0.50078 0.0
H602 H 0.58259 0.11215 0.53405 0.0
H603 H 0.48337 0.08802 0.55774 0.0
H604 H 0.60432 0.14106 0.57863 0.0
H605 H 0.50514 0.11693 0.60262 0.0
H606 H 0.63385 0.2328 0.63336 0.0
H607 H 0.61041 0.19379 0.59408 0.0
H608 H 0.53416 0.12304 0.64812 0.0
H609 H 0.55781 0.16262 0.68746 0.0
C610 C 0.56534 0.1122 0.54923 0.0
C611 C 0.5314 0.09817 0.5424 0.0
C612 C 0.57779 0.12892 0.57468 0.0
C613 C 0.55658 0.13184 0.59391 0.0
C614 C 0.52212 0.1151 0.58823 0.0
C615 C 0.50962 0.09839 0.56262 0.0
C616 C 0.61239 0.2087 0.63683 0.0
C617 C 0.59827 0.20005 0.66344 0.0
C618 C 0.59895 0.18635 0.61443 0.0
C619 C 0.57083 0.15502 0.61816 0.0
C620 C 0.55596 0.14688 0.64467 0.0
C621 C 0.56945 0.16938 0.66712 0.0
H622 H 0.49106 0.57635 0.71602 0.0
H623 H 0.40946 0.47733 0.72634 0.0
H624 H 0.47913 0.59224 0.76148 0.0
H625 H 0.39649 0.49325 0.77127 0.0
H626 H 0.39178 0.52864 0.85929 0.0
H627 H 0.41057 0.51083 0.81874 0.0
H628 H 0.4368 0.60238 0.77767 0.0
H629 H 0.41933 0.62076 0.8186 0.0
C630 C 0.47103 0.55785 0.7284 0.0
C631 C 0.45122 0.52565 0.71782 0.0
C632 C 0.46384 0.56699 0.75422 0.0
C633 C 0.43635 0.54424 0.76979 0.0
C634 C 0.41794 0.51141 0.75998 0.0
C635 C 0.42541 0.50219 0.73428 0.0
C636 C 0.40153 0.545 0.84161 0.0
C637 C 0.40413 0.57624 0.84232 0.0
C638 C 0.41226 0.53471 0.8183 0.0
C639 C 0.42557 0.55526 0.79499 0.0
C640 C 0.42753 0.58621 0.79551 0.0
C641 C 0.41711 0.59663 0.8189 0.0
H642 H 0.93568 0.5043 0.87885 0.0
H643 H 0.96164 0.42855 0.88908 0.0
H644 H 0.90916 0.49135 0.92465 0.0
H645 H 0.93409 0.41451 0.93426 0.0
H646 H 0.89395 0.4047 0.02157 0.0
H647 H 0.93027 0.42718 0.9815 0.0
H648 H 0.85871 0.44785 0.94183 0.0
H649 H 0.82307 0.42672 0.98249 0.0
C650 C 0.93634 0.48539 0.89128 0.0
C651 C 0.95075 0.46749 0.88056 0.0
C652 C 0.92075 0.4776 0.91731 0.0
C653 C 0.91879 0.45138 0.93297 0.0
C654 C 0.93525 0.435 0.92299 0.0
C655 C 0.9512 0.4431 0.8971 0.0
C656 C 0.88594 0.41411 0.00434 0.0
C657 C 0.85547 0.41382 0.00529 0.0
C658 C 0.90682 0.42696 0.98127 0.0
C659 C 0.89761 0.4395 0.95837 0.0
C660 C 0.86707 0.43912 0.95931 0.0
C661 C 0.84638 0.42663 0.98253 0.0
H662 H 0.55707 0.96745 0.05844 0.0
H663 H 0.45233 0.91698 0.03661 0.0
H664 H 0.54376 0.94319 0.10473 0.0
H665 H 0.4392 0.89022 0.08159 0.0
H666 H 0.41943 0.8527 0.16904 0.0
H667 H 0.43386 0.88897 0.12903 0.0
H668 H 0.52907 0.89311 0.12432 0.0
H669 H 0.51528 0.8588 0.16565 0.0
C670 C 0.53114 0.95162 0.06363 0.0
C671 C 0.50582 0.94376 0.04353 0.0
C672 C 0.5235 0.93705 0.09006 0.0
C673 C 0.49043 0.91382 0.09688 0.0
C674 C 0.46498 0.90792 0.07745 0.0
C675 C 0.47255 0.92303 0.05133 0.0
C676 C 0.44343 0.86142 0.15936 0.0
C677 C 0.46611 0.85267 0.17022 0.0
C678 C 0.45175 0.88221 0.13632 0.0
C679 C 0.48266 0.89408 0.12306 0.0
C680 C 0.50534 0.88525 0.13414 0.0
C681 C 0.49732 0.86516 0.15766 0.0
H682 H 0.62707 0.55833 0.22762 0.0
H683 H 0.55038 0.45793 0.21034 0.0
H684 H 0.63699 0.5424 0.27353 0.0
H685 H 0.55943 0.44193 0.25675 0.0
H686 H 0.62053 0.41828 0.31889 0.0
H687 H 0.60179 0.43419 0.27721 0.0
H688 H 0.61927 0.52351 0.31952 0.0
H689 H 0.63924 0.50821 0.36084 0.0
C690 C 0.61147 0.53306 0.2341 0.0
C691 C 0.58802 0.50934 0.21542 0.0
C692 C 0.61719 0.52385 0.26044 0.0
C693 C 0.59937 0.49072 0.26876 0.0
C694 C 0.5742 0.46748 0.25078 0.0
C695 C 0.56873 0.47666 0.22433 0.0
C696 C 0.62028 0.44127 0.31936 0.0
C697 C 0.63167 0.46205 0.34318 0.0
C698 C 0.6092 0.45028 0.2955 0.0
C699 C 0.60889 0.48015 0.29494 0.0
C700 C 0.6196 0.50058 0.31901 0.0
C701 C 0.631 0.49173 0.34277 0.0
H702 H 0.49845 0.9388 0.41361 0.0
H703 H 0.42263 0.95987 0.38513 0.0
H704 H 0.49239 0.90854 0.37017 0.0
H705 H 0.41654 0.92955 0.34142 0.0
H706 H 0.42548 0.88212 0.25912 0.0
H707 H 0.43999 0.92256 0.29746 0.0
H708 H 0.44734 0.85518 0.35448 0.0
H709 H 0.43335 0.81542 0.31615 0.0
C710 C 0.4812 0.93774 0.39762 0.0
C711 C 0.46082 0.95139 0.40277 0.0
C712 C 0.47756 0.92024 0.37282 0.0
C713 C 0.45357 0.9161 0.35256 0.0
C714 C 0.43529 0.93232 0.3566 0.0
C715 C 0.43888 0.94984 0.38155 0.0
C716 C 0.43047 0.8763 0.27989 0.0
C717 C 0.42961 0.84639 0.28469 0.0
C718 C 0.43867 0.89929 0.30179 0.0
C719 C 0.44549 0.89237 0.32889 0.0
C720 C 0.44326 0.86175 0.3337 0.0
C721 C 0.43522 0.83894 0.31184 0.0
H722 H 0.58459 0.49523 0.58353 0.0
H723 H 0.48581 0.41977 0.55796 0.0
H724 H 0.60688 0.48635 0.54038 0.0
H725 H 0.50819 0.41081 0.51452 0.0
H726 H 0.56287 0.4177 0.43116 0.0
H727 H 0.53733 0.43225 0.46955 0.0
H728 H 0.61414 0.44013 0.52633 0.0
H729 H 0.63954 0.42608 0.48796 0.0
C730 C 0.56756 0.47742 0.56822 0.0
C731 C 0.53355 0.45804 0.57411 0.0
C732 C 0.58035 0.47213 0.54362 0.0
C733 C 0.55946 0.44742 0.5243 0.0
C734 C 0.52495 0.43003 0.529 0.0
C735 C 0.51209 0.43529 0.55377 0.0
C736 C 0.57416 0.42268 0.45191 0.0
C737 C 0.60378 0.42212 0.45658 0.0
C738 C 0.55957 0.4309 0.47384 0.0
C739 C 0.57414 0.4381 0.50083 0.0
C740 C 0.60287 0.43576 0.50561 0.0
C741 C 0.61743 0.4277 0.48372 0.0
H742 H 0.06869 0.53956 0.71924 0.0
H743 H 0.15941 0.54882 0.75396 0.0
H744 H 0.09568 0.55646 0.67329 0.0
H745 H 0.18622 0.56687 0.709 0.0
H746 H 0.23386 0.63651 0.63582 0.0
H747 H 0.20167 0.6198 0.67889 0.0
H748 H 0.12435 0.5331 0.6366 0.0
H749 H 0.15664 0.54938 0.59344 0.0
C750 C 0.09423 0.54519 0.71713 0.0
C751 C 0.11213 0.5437 0.74048 0.0
C752 C 0.10964 0.55493 0.69095 0.0
C753 C 0.14319 0.56359 0.68791 0.0
C754 C 0.16061 0.56112 0.71099 0.0
C755 C 0.14521 0.55095 0.7368 0.0
C756 C 0.2099 0.61403 0.63556 0.0
C757 C 0.198 0.59416 0.61123 0.0
C758 C 0.19151 0.60449 0.66021 0.0
C759 C 0.1606 0.57519 0.66095 0.0
C760 C 0.14801 0.55591 0.63644 0.0
C761 C 0.16666 0.56516 0.61186 0.0
H762 H 0.55034 0.1198 0.91087 0.0
H763 H 0.60129 0.06875 0.88357 0.0
H764 H 0.56182 0.14781 0.86642 0.0
H765 H 0.61029 0.09457 0.83799 0.0
H766 H 0.66781 0.18336 0.78158 0.0
H767 H 0.647 0.14643 0.82118 0.0
H768 H 0.55616 0.15112 0.81884 0.0
H769 H 0.57816 0.18977 0.78033 0.0
C770 C 0.56314 0.11381 0.89499 0.0
C771 C 0.57562 0.09267 0.90107 0.0
C772 C 0.5695 0.12969 0.86927 0.0
C773 C 0.58783 0.12423 0.84864 0.0
C774 C 0.59715 0.10034 0.85367 0.0
C775 C 0.59135 0.08493 0.87967 0.0
C776 C 0.64345 0.17654 0.78965 0.0
C777 C 0.62483 0.18981 0.77816 0.0
C778 C 0.63122 0.15495 0.81216 0.0
C779 C 0.59969 0.14545 0.82334 0.0
C780 C 0.58077 0.15823 0.81128 0.0
C781 C 0.59336 0.18043 0.78917 0.0
H782 H 0.54288 0.65537 0.08096 0.0
H783 H 0.51692 0.55771 0.05227 0.0
H784 H 0.52183 0.66473 0.03704 0.0
H785 H 0.49652 0.56757 0.00757 0.0
H786 H 0.48509 0.62272 0.9247 0.0
H787 H 0.51676 0.61493 0.96275 0.0
H788 H 0.45505 0.62671 0.02378 0.0
H789 H 0.42325 0.63369 0.98601 0.0
C790 C 0.53351 0.63628 0.06482 0.0
C791 C 0.53098 0.60565 0.06999 0.0
C792 C 0.5215 0.64164 0.0398 0.0
C793 C 0.50714 0.61665 0.0193 0.0
C794 C 0.50736 0.58707 0.02326 0.0
C795 C 0.51912 0.58149 0.04864 0.0
C796 C 0.47835 0.62336 0.94631 0.0
C797 C 0.45134 0.62782 0.95268 0.0
C798 C 0.4963 0.61888 0.96791 0.0
C799 C 0.48814 0.62017 -0.004 0.0
C800 C 0.46174 0.62565 0.00222 0.0
C801 C 0.44349 0.62942 0.98073 0.0
H802 H 0.96318 0.56617 0.21839 0.0
H803 H 0.94428 0.47075 0.24532 0.0
H804 H 0.93214 0.54136 0.17479 0.0
H805 H 0.91358 0.44601 0.20184 0.0
H806 H 0.81735 0.40976 0.15066 0.0
H807 H 0.85851 0.43679 0.18825 0.0
H808 H 0.92462 0.51056 0.13023 0.0
H809 H 0.88282 0.48336 0.09262 0.0
C810 C 0.95358 0.54014 0.21441 0.0
C811 C 0.95584 0.52025 0.23518 0.0
C812 C 0.93566 0.52589 0.18955 0.0
C813 C 0.9198 0.49158 0.18519 0.0
C814 C 0.92492 0.47235 0.20486 0.0
C815 C 0.94274 0.48653 0.22962 0.0
C816 C 0.84088 0.4315 0.14597 0.0
C817 C 0.84765 0.4439 0.11874 0.0
C818 C 0.86447 0.44697 0.16739 0.0
C819 C 0.89518 0.47539 0.16203 0.0
C820 C 0.90133 0.48857 0.13491 0.0
C821 C 0.87756 0.47306 0.11346 0.0
loop_
_geom_bond_atom_site_label_1
_geom_bond_atom_site_label_2
_geom_bond_distance
_geom_bond_site_symmetry_2
_ccdc_geom_bond_type
H0 C8 0.930 . S
H1 C11 0.930 . S
H2 C13 0.930 . S
H3 C14 0.970 1_655 S
H4 C14 0.970 . S
H5 C16 0.930 . S
H6 C18 0.930 . S
H7 C20 0.930 . S
C8 H0 0.930 . S
C8 C9 1.382 . S
C8 C10 1.426 . S
C9 C8 1.382 . S
C9 C13 1.389 . S
C10 C8 1.426 . S
C10 C11 1.375 . S
C10 C14 1.532 1_655 S
C11 H1 0.930 . S
C11 C10 1.375 . S
C11 C12 1.416 . S
C12 C11 1.416 . S
C12 C13 1.371 . S
C13 H2 0.930 . S
C13 C9 1.389 . S
C13 C12 1.371 . S
C14 H3 0.970 1_455 S
C14 H4 0.970 . S
C14 C10 1.532 1_455 S
C14 C15 1.499 . S
C15 C14 1.499 . S
C15 C16 1.370 . S
C15 C20 1.415 . S
C16 H5 0.930 . S
C16 C15 1.370 . S
C16 C17 1.407 . S
C17 C16 1.407 . S
C17 C18 1.365 . S
C18 H6 0.930 . S
C18 C17 1.365 . S
C18 C19 1.393 . S
C19 C18 1.393 . S
C19 C20 1.387 . S
C20 H7 0.930 . S
C20 C15 1.415 . S
C20 C19 1.387 . S
H21 C29 0.930 . S
H22 C32 0.930 . S
H23 C34 0.930 . S
H24 C35 0.970 . S
H25 C35 0.970 . S
H26 C37 0.930 . S
H27 C39 0.930 . S
H28 C41 0.930 . S
C29 H21 0.930 . S
C29 C30 1.382 . S
C29 C31 1.426 . S
C30 C29 1.382 . S
C30 C34 1.389 . S
C31 C29 1.426 . S
C31 C32 1.375 . S
C31 C35 1.532 1_565 S
C32 H22 0.930 . S
C32 C31 1.375 . S
C32 C33 1.416 . S
C33 C32 1.416 . S
C33 C34 1.371 . S
C34 H23 0.930 . S
C34 C30 1.389 . S
C34 C33 1.371 . S
C35 H24 0.970 . S
C35 H25 0.970 . S
C35 C31 1.532 1_545 S
C35 C36 1.499 . S
C36 C35 1.499 . S
C36 C37 1.370 . S
C36 C41 1.415 . S
C37 H26 0.930 . S
C37 C36 1.370 . S
C37 C38 1.407 . S
C38 C37 1.407 . S
C38 C39 1.365 . S
C39 H27 0.930 . S
C39 C38 1.365 . S
C39 C40 1.393 . S
C40 C39 1.393 . S
C40 C41 1.387 . S
C41 H28 0.930 . S
C41 C36 1.415 . S
C41 C40 1.387 . S
H42 C50 0.930 . S
H43 C53 0.930 . S
H44 C55 0.930 . S
H45 C56 0.970 . S
H46 C56 0.970 . S
H47 C58 0.930 . S
H48 C60 0.930 . S
H49 C62 0.930 . S
C50 H42 0.930 . S
C50 C51 1.382 . S
C50 C52 1.426 . S
C51 C50 1.382 . S
C51 C55 1.389 . S
C52 C50 1.426 . S
C52 C53 1.375 . S
C52 C56 1.532 . S
C53 H43 0.930 . S
C53 C52 1.375 . S
C53 C54 1.416 . S
C54 C53 1.416 . S
C54 C55 1.371 . S
C55 H44 0.930 . S
C55 C51 1.389 . S
C55 C54 1.371 . S
C56 H45 0.970 . S
C56 H46 0.970 . S
C56 C52 1.532 . S
C56 C57 1.499 . S
C57 C56 1.499 . S
C57 C58 1.370 . S
C57 C62 1.415 . S
C58 H47 0.930 . S
C58 C57 1.370 . S
C58 C59 1.407 . S
C59 C58 1.407 . S
C59 C60 1.365 . S
C60 H48 0.930 . S
C60 C59 1.365 . S
C60 C61 1.393 . S
C61 C60 1.393 . S
C61 C62 1.387 . S
C62 H49 0.930 . S
C62 C57 1.415 . S
C62 C61 1.387 . S
H63 C71 0.930 . S
H64 C74 0.930 . S
H65 C76 0.930 . S
H66 C77 0.970 . S
H67 C77 0.970 . S
H68 C79 0.930 . S
H69 C81 0.930 . S
H70 C83 0.930 . S
C71 H63 0.930 . S
C71 C72 1.382 . S
C71 C73 1.426 . S
C72 C71 1.382 . S
C72 C76 1.389 . S
C73 C71 1.426 . S
C73 C74 1.375 . S
C73 C77 1.532 1_655 S
C74 H64 0.930 . S
C74 C73 1.375 . S
C74 C75 1.416 . S
C75 C74 1.416 . S
C75 C76 1.371 . S
C76 H65 0.930 . S
C76 C72 1.389 . S
C76 C75 1.371 . S
C77 H66 0.970 . S
C77 H67 0.970 . S
C77 C73 1.532 1_455 S
C77 C78 1.499 . S
C78 C77 1.499 . S
C78 C79 1.370 . S
C78 C83 1.415 . S
C79 H68 0.930 . S
C79 C78 1.370 . S
C79 C80 1.407 . S
C80 C79 1.407 . S
C80 C81 1.365 . S
C81 H69 0.930 . S
C81 C80 1.365 . S
C81 C82 1.393 . S
C82 C81 1.393 . S
C82 C83 1.387 . S
C83 H70 0.930 . S
C83 C78 1.415 . S
C83 C82 1.387 . S
H84 C92 0.930 . S
H85 C95 0.930 . S
H86 C97 0.930 . S
H87 C98 0.970 1_554 S
H88 C98 0.970 . S
H89 C100 0.930 . S
H90 C102 0.930 . S
H91 C104 0.930 . S
C92 H84 0.930 . S
C92 C93 1.382 1_554 S
C92 C94 1.426 1_554 S
C93 C92 1.382 1_556 S
C93 C97 1.389 . S
C94 C92 1.426 1_556 S
C94 C95 1.375 . S
C94 C98 1.532 . S
C95 H85 0.930 . S
C95 C94 1.375 . S
C95 C96 1.416 . S
C96 C95 1.416 . S
C96 C97 1.371 . S
C97 H86 0.930 . S
C97 C93 1.389 . S
C97 C96 1.371 . S
C98 H87 0.970 1_556 S
C98 H88 0.970 . S
C98 C94 1.532 . S
C98 C99 1.499 1_545 S
C99 C98 1.499 1_565 S
C99 C100 1.370 1_556 S
C99 C104 1.415 . S
C100 H89 0.930 . S
C100 C99 1.370 1_554 S
C100 C101 1.407 . S
C101 C100 1.407 . S
C101 C102 1.365 . S
C102 H90 0.930 . S
C102 C101 1.365 . S
C102 C103 1.393 1_554 S
C103 C102 1.393 1_556 S
C103 C104 1.387 . S
C104 H91 0.930 . S
C104 C99 1.415 . S
C104 C103 1.387 . S
H105 C113 0.930 . S
H106 C116 0.930 . S
H107 C118 0.930 . S
H108 C119 0.970 . S
H109 C119 0.970 . S
H110 C121 0.930 . S
H111 C123 0.930 . S
H112 C125 0.930 . S
C113 H105 0.930 . S
C113 C114 1.382 . S
C113 C115 1.426 . S
C114 C113 1.382 . S
C114 C118 1.389 . S
C115 C113 1.426 . S
C115 C116 1.375 . S
C115 C119 1.532 . S
C116 H106 0.930 . S
C116 C115 1.375 . S
C116 C117 1.416 . S
C117 C116 1.416 . S
C117 C118 1.371 . S
C118 H107 0.930 . S
C118 C114 1.389 . S
C118 C117 1.371 . S
C119 H108 0.970 . S
C119 H109 0.970 . S
C119 C115 1.532 . S
C119 C120 1.499 . S
C120 C119 1.499 . S
C120 C121 1.370 . S
C120 C125 1.415 . S
C121 H110 0.930 . S
C121 C120 1.370 . S
C121 C122 1.407 . S
C122 C121 1.407 . S
C122 C123 1.365 . S
C123 H111 0.930 . S
C123 C122 1.365 . S
C123 C124 1.393 . S
C124 C123 1.393 . S
C124 C125 1.387 . S
C125 H112 0.930 . S
C125 C120 1.415 . S
C125 C124 1.387 . S
Mn126 O131 2.095 . S
Mn126 O141 2.162 . S
Mn126 O142 2.297 . S
Mn126 O150 2.385 . S
Mn126 O151 2.209 . S
Mn126 O152 2.094 . S
Mn127 O132 2.121 . S
Mn127 N134 2.257 . S
Mn127 N143 2.282 . S
Mn127 O151 2.215 . S
Mn127 O153 2.117 . S
C128 O150 1.234 . S
C128 O151 1.283 . S
C129 O141 1.281 . S
C129 O142 1.236 . S
C130 O152 1.240 . S
C130 O153 1.264 . S
O131 Mn126 2.095 . S
O131 C140 1.250 . S
O132 Mn127 2.121 . S
O132 C140 1.258 . S
C133 N134 1.326 . S
C133 C137 1.460 . S
C133 H139 0.929 . S
N134 Mn127 2.257 . S
N134 C133 1.326 . S
N134 C138 1.362 . S
C135 C136 1.258 . S
C135 C138 1.431 . S
C135 C155 1.449 . S
C136 C135 1.258 . S
C136 C137 1.477 . S
C136 H156 0.931 . S
C137 C133 1.460 . S
C137 C136 1.477 . S
C137 H157 0.930 . S
C138 N134 1.362 . S
C138 C135 1.431 . S
C138 C148 1.476 . S
H139 C133 0.929 . S
C140 O131 1.250 . S
C140 O132 1.258 . S
O141 Mn126 2.162 . S
O141 C129 1.281 . S
O142 Mn126 2.297 . S
O142 C129 1.236 . S
N143 Mn127 2.282 . S
N143 C144 1.328 . S
N143 C148 1.318 . S
C144 N143 1.328 . S
C144 C145 1.457 . S
C144 H149 0.929 . S
C145 C144 1.457 . S
C145 C146 1.291 . S
C145 H158 0.931 . S
C146 C145 1.291 . S
C146 C147 1.373 . S
C146 H159 0.929 . S
C147 C146 1.373 . S
C147 C148 1.396 . S
C147 C154 1.403 . S
C148 C138 1.476 . S
C148 N143 1.318 . S
C148 C147 1.396 . S
H149 C144 0.929 . S
O150 Mn126 2.385 . S
O150 C128 1.234 . S
O151 Mn126 2.209 . S
O151 Mn127 2.215 . S
O151 C128 1.283 . S
O152 Mn126 2.094 . S
O152 C130 1.240 . S
O153 Mn127 2.117 . S
O153 C130 1.264 . S
C154 C147 1.403 . S
C154 C155 1.399 . S
C154 H160 0.929 . S
C155 C135 1.449 . S
C155 C154 1.399 . S
C155 H161 0.930 . S
H156 C136 0.931 . S
H157 C137 0.930 . S
H158 C145 0.931 . S
H159 C146 0.929 . S
H160 C154 0.929 . S
H161 C155 0.930 . S
Mn162 O167 2.095 . S
Mn162 O177 2.162 . S
Mn162 O178 2.297 . S
Mn162 O186 2.385 . S
Mn162 O187 2.209 . S
Mn162 O188 2.094 . S
Mn163 O168 2.121 . S
Mn163 N170 2.257 . S
Mn163 N179 2.282 . S
Mn163 O187 2.215 . S
Mn163 O189 2.117 . S
C164 O186 1.234 . S
C164 O187 1.283 . S
C165 O177 1.281 . S
C165 O178 1.236 . S
C166 O188 1.240 . S
C166 O189 1.264 . S
O167 Mn162 2.095 . S
O167 C176 1.250 . S
O168 Mn163 2.121 . S
O168 C176 1.258 . S
C169 N170 1.326 . S
C169 C173 1.460 . S
C169 H175 0.929 . S
N170 Mn163 2.257 . S
N170 C169 1.326 . S
N170 C174 1.362 . S
C171 C172 1.258 . S
C171 C174 1.431 . S
C171 C191 1.449 . S
C172 C171 1.258 . S
C172 C173 1.477 . S
C172 H192 0.931 . S
C173 C169 1.460 . S
C173 C172 1.477 . S
C173 H193 0.930 . S
C174 N170 1.362 . S
C174 C171 1.431 . S
C174 C184 1.476 . S
H175 C169 0.929 . S
C176 O167 1.250 . S
C176 O168 1.258 . S
O177 Mn162 2.162 . S
O177 C165 1.281 . S
O178 Mn162 2.297 . S
O178 C165 1.236 . S
N179 Mn163 2.282 . S
N179 C180 1.328 . S
N179 C184 1.318 . S
C180 N179 1.328 . S
C180 C181 1.457 . S
C180 H185 0.929 . S
C181 C180 1.457 . S
C181 C182 1.291 . S
C181 H194 0.931 . S
C182 C181 1.291 . S
C182 C183 1.373 . S
C182 H195 0.929 . S
C183 C182 1.373 . S
C183 C184 1.396 . S
C183 C190 1.403 . S
C184 C174 1.476 . S
C184 N179 1.318 . S
C184 C183 1.396 . S
H185 C180 0.929 . S
O186 Mn162 2.385 . S
O186 C164 1.234 . S
O187 Mn162 2.209 . S
O187 Mn163 2.215 . S
O187 C164 1.283 . S
O188 Mn162 2.094 . S
O188 C166 1.240 . S
O189 Mn163 2.117 . S
O189 C166 1.264 . S
C190 C183 1.403 . S
C190 C191 1.399 . S
C190 H196 0.929 . S
C191 C171 1.449 . S
C191 C190 1.399 . S
C191 H197 0.930 . S
H192 C172 0.931 . S
H193 C173 0.930 . S
H194 C181 0.931 . S
H195 C182 0.929 . S
H196 C190 0.929 . S
H197 C191 0.930 . S
Mn198 O203 2.095 . S
Mn198 O213 2.162 . S
Mn198 O214 2.297 . S
Mn198 O222 2.385 . S
Mn198 O223 2.209 . S
Mn198 O224 2.094 . S
Mn199 O204 2.121 . S
Mn199 N206 2.257 . S
Mn199 N215 2.282 . S
Mn199 O223 2.215 . S
Mn199 O225 2.117 . S
C200 O222 1.234 . S
C200 O223 1.283 . S
C201 O213 1.281 . S
C201 O214 1.236 . S
C202 O224 1.240 . S
C202 O225 1.264 . S
O203 Mn198 2.095 . S
O203 C212 1.250 . S
O204 Mn199 2.121 . S
O204 C212 1.258 . S
C205 N206 1.326 . S
C205 C209 1.460 . S
C205 H211 0.929 . S
N206 Mn199 2.257 . S
N206 C205 1.326 . S
N206 C210 1.362 . S
C207 C208 1.258 . S
C207 C210 1.431 . S
C207 C227 1.449 . S
C208 C207 1.258 . S
C208 C209 1.477 . S
C208 H228 0.931 . S
C209 C205 1.460 . S
C209 C208 1.477 . S
C209 H229 0.930 . S
C210 N206 1.362 . S
C210 C207 1.431 . S
C210 C220 1.476 . S
H211 C205 0.929 . S
C212 O203 1.250 . S
C212 O204 1.258 . S
O213 Mn198 2.162 . S
O213 C201 1.281 . S
O214 Mn198 2.297 . S
O214 C201 1.236 . S
N215 Mn199 2.282 . S
N215 C216 1.328 . S
N215 C220 1.318 . S
C216 N215 1.328 . S
C216 C217 1.457 . S
C216 H221 0.929 . S
C217 C216 1.457 . S
C217 C218 1.291 . S
C217 H230 0.931 . S
C218 C217 1.291 . S
C218 C219 1.373 . S
C218 H231 0.929 . S
C219 C218 1.373 . S
C219 C220 1.396 . S
C219 C226 1.403 . S
C220 C210 1.476 . S
C220 N215 1.318 . S
C220 C219 1.396 . S
H221 C216 0.929 . S
O222 Mn198 2.385 . S
O222 C200 1.234 . S
O223 Mn198 2.209 . S
O223 Mn199 2.215 . S
O223 C200 1.283 . S
O224 Mn198 2.094 . S
O224 C202 1.240 . S
O225 Mn199 2.117 . S
O225 C202 1.264 . S
C226 C219 1.403 . S
C226 C227 1.399 . S
C226 H232 0.929 . S
C227 C207 1.449 . S
C227 C226 1.399 . S
C227 H233 0.930 . S
H228 C208 0.931 . S
H229 C209 0.930 . S
H230 C217 0.931 . S
H231 C218 0.929 . S
H232 C226 0.929 . S
H233 C227 0.930 . S
Mn234 O239 2.095 . S
Mn234 O249 2.162 . S
Mn234 O250 2.297 . S
Mn234 O258 2.385 . S
Mn234 O259 2.209 . S
Mn234 O260 2.094 . S
Mn235 O240 2.121 . S
Mn235 N242 2.257 . S
Mn235 N251 2.282 . S
Mn235 O259 2.215 . S
Mn235 O261 2.117 . S
C236 O258 1.234 . S
C236 O259 1.283 . S
C237 O249 1.281 . S
C237 O250 1.236 . S
C238 O260 1.240 . S
C238 O261 1.264 . S
O239 Mn234 2.095 . S
O239 C248 1.250 . S
O240 Mn235 2.121 . S
O240 C248 1.258 . S
C241 N242 1.326 . S
C241 C245 1.460 . S
C241 H247 0.929 . S
N242 Mn235 2.257 . S
N242 C241 1.326 . S
N242 C246 1.362 . S
C243 C244 1.258 . S
C243 C246 1.431 . S
C243 C263 1.449 . S
C244 C243 1.258 . S
C244 C245 1.477 . S
C244 H264 0.931 1_556 S
C245 C241 1.460 . S
C245 C244 1.477 . S
C245 H265 0.930 . S
C246 N242 1.362 . S
C246 C243 1.431 . S
C246 C256 1.476 . S
H247 C241 0.929 . S
C248 O239 1.250 . S
C248 O240 1.258 . S
O249 Mn234 2.162 . S
O249 C237 1.281 . S
O250 Mn234 2.297 . S
O250 C237 1.236 . S
N251 Mn235 2.282 . S
N251 C252 1.328 . S
N251 C256 1.318 . S
C252 N251 1.328 . S
C252 C253 1.457 . S
C252 H257 0.929 . S
C253 C252 1.457 . S
C253 C254 1.291 . S
C253 H266 0.931 . S
C254 C253 1.291 . S
C254 C255 1.373 . S
C254 H267 0.929 . S
C255 C254 1.373 . S
C255 C256 1.396 . S
C255 C262 1.403 . S
C256 C246 1.476 . S
C256 N251 1.318 . S
C256 C255 1.396 . S
H257 C252 0.929 . S
O258 Mn234 2.385 . S
O258 C236 1.234 . S
O259 Mn234 2.209 . S
O259 Mn235 2.215 . S
O259 C236 1.283 . S
O260 Mn234 2.094 . S
O260 C238 1.240 . S
O261 Mn235 2.117 . S
O261 C238 1.264 . S
C262 C255 1.403 . S
C262 C263 1.399 . S
C262 H268 0.929 . S
C263 C243 1.449 . S
C263 C262 1.399 . S
C263 H269 0.930 1_556 S
H264 C244 0.931 1_554 S
H265 C245 0.930 . S
H266 C253 0.931 . S
H267 C254 0.929 . S
H268 C262 0.929 . S
H269 C263 0.930 1_554 S
Mn270 O275 2.095 . S
Mn270 O285 2.162 . S
Mn270 O286 2.297 . S
Mn270 O294 2.385 . S
Mn270 O295 2.209 . S
Mn270 O296 2.094 . S
Mn271 O276 2.121 . S
Mn271 N278 2.257 . S
Mn271 N287 2.282 . S
Mn271 O295 2.215 . S
Mn271 O297 2.117 . S
C272 O294 1.234 . S
C272 O295 1.283 . S
C273 O285 1.281 . S
C273 O286 1.236 . S
C274 O296 1.240 . S
C274 O297 1.264 . S
O275 Mn270 2.095 . S
O275 C284 1.250 . S
O276 Mn271 2.121 . S
O276 C284 1.258 . S
C277 N278 1.326 . S
C277 C281 1.460 . S
C277 H283 0.929 . S
N278 Mn271 2.257 . S
N278 C277 1.326 . S
N278 C282 1.362 . S
C279 C280 1.258 . S
C279 C282 1.431 . S
C279 C299 1.449 . S
C280 C279 1.258 . S
C280 C281 1.477 . S
C280 H300 0.931 . S
C281 C277 1.460 . S
C281 C280 1.477 . S
C281 H301 0.930 . S
C282 N278 1.362 . S
C282 C279 1.431 . S
C282 C292 1.476 . S
H283 C277 0.929 . S
C284 O275 1.250 . S
C284 O276 1.258 . S
O285 Mn270 2.162 . S
O285 C273 1.281 . S
O286 Mn270 2.297 . S
O286 C273 1.236 . S
N287 Mn271 2.282 . S
N287 C288 1.328 . S
N287 C292 1.318 . S
C288 N287 1.328 . S
C288 C289 1.457 . S
C288 H293 0.929 . S
C289 C288 1.457 . S
C289 C290 1.291 . S
C289 H302 0.931 . S
C290 C289 1.291 . S
C290 C291 1.373 . S
C290 H303 0.929 . S
C291 C290 1.373 . S
C291 C292 1.396 . S
C291 C298 1.403 . S
C292 C282 1.476 . S
C292 N287 1.318 . S
C292 C291 1.396 . S
H293 C288 0.929 . S
O294 Mn270 2.385 . S
O294 C272 1.234 . S
O295 Mn270 2.209 . S
O295 Mn271 2.215 . S
O295 C272 1.283 . S
O296 Mn270 2.094 . S
O296 C274 1.240 . S
O297 Mn271 2.117 . S
O297 C274 1.264 . S
C298 C291 1.403 . S
C298 C299 1.399 . S
C298 H304 0.929 . S
C299 C279 1.449 . S
C299 C298 1.399 . S
C299 H305 0.930 . S
H300 C280 0.931 . S
H301 C281 0.930 . S
H302 C289 0.931 . S
H303 C290 0.929 . S
H304 C298 0.929 . S
H305 C299 0.930 . S
Mn306 O311 2.095 . S
Mn306 O321 2.162 . S
Mn306 O322 2.297 . S
Mn306 O330 2.385 . S
Mn306 O331 2.209 . S
Mn306 O332 2.094 . S
Mn307 O312 2.121 . S
Mn307 N314 2.257 . S
Mn307 N323 2.282 . S
Mn307 O331 2.215 . S
Mn307 O333 2.117 . S
C308 O330 1.234 . S
C308 O331 1.283 . S
C309 O321 1.281 . S
C309 O322 1.236 . S
C310 O332 1.240 . S
C310 O333 1.264 . S
O311 Mn306 2.095 . S
O311 C320 1.250 . S
O312 Mn307 2.121 . S
O312 C320 1.258 . S
C313 N314 1.326 . S
C313 C317 1.460 . S
C313 H319 0.929 . S
N314 Mn307 2.257 . S
N314 C313 1.326 . S
N314 C318 1.362 . S
C315 C316 1.258 . S
C315 C318 1.431 . S
C315 C335 1.449 . S
C316 C315 1.258 . S
C316 C317 1.477 . S
C316 H336 0.931 . S
C317 C313 1.460 . S
C317 C316 1.477 . S
C317 H337 0.930 . S
C318 N314 1.362 . S
C318 C315 1.431 . S
C318 C328 1.476 . S
H319 C313 0.929 . S
C320 O311 1.250 . S
C320 O312 1.258 . S
O321 Mn306 2.162 . S
O321 C309 1.281 . S
O322 Mn306 2.297 . S
O322 C309 1.236 . S
N323 Mn307 2.282 . S
N323 C324 1.328 . S
N323 C328 1.318 . S
C324 N323 1.328 . S
C324 C325 1.457 . S
C324 H329 0.929 . S
C325 C324 1.457 . S
C325 C326 1.291 . S
C325 H338 0.931 . S
C326 C325 1.291 . S
C326 C327 1.373 . S
C326 H339 0.929 . S
C327 C326 1.373 . S
C327 C328 1.396 . S
C327 C334 1.403 . S
C328 C318 1.476 . S
C328 N323 1.318 . S
C328 C327 1.396 . S
H329 C324 0.929 . S
O330 Mn306 2.385 . S
O330 C308 1.234 . S
O331 Mn306 2.209 . S
O331 Mn307 2.215 . S
O331 C308 1.283 . S
O332 Mn306 2.094 . S
O332 C310 1.240 . S
O333 Mn307 2.117 . S
O333 C310 1.264 . S
C334 C327 1.403 . S
C334 C335 1.399 . S
C334 H340 0.929 . S
C335 C315 1.449 . S
C335 C334 1.399 . S
C335 H341 0.930 . S
H336 C316 0.931 . S
H337 C317 0.930 . S
H338 C325 0.931 . S
H339 C326 0.929 . S
H340 C334 0.929 . S
H341 C335 0.930 . S
H342 C350 0.950 . S
H343 C355 0.950 . S
H344 C352 0.950 . S
H345 C354 0.950 . S
H346 C356 0.950 . S
H347 C358 0.950 . S
H348 C360 0.950 . S
H349 C361 0.950 . S
C350 H342 0.950 . S
C350 C351 1.386 . S
C350 C352 1.391 . S
C351 C350 1.386 . S
C351 C355 1.393 . S
C352 H344 0.950 . S
C352 C350 1.391 . S
C352 C353 1.400 . S
C353 C352 1.400 . S
C353 C354 1.398 . S
C353 C359 1.491 . S
C354 H345 0.950 . S
C354 C353 1.398 . S
C354 C355 1.391 . S
C355 H343 0.950 . S
C355 C351 1.393 . S
C355 C354 1.391 . S
C356 H346 0.950 . S
C356 C357 1.386 . S
C356 C358 1.391 . S
C357 C356 1.386 . S
C357 C361 1.393 . S
C358 H347 0.950 . S
C358 C356 1.391 . S
C358 C359 1.400 . S
C359 C353 1.491 . S
C359 C358 1.400 . S
C359 C360 1.398 . S
C360 H348 0.950 . S
C360 C359 1.398 . S
C360 C361 1.391 . S
C361 H349 0.950 . S
C361 C357 1.393 . S
C361 C360 1.391 . S
H362 C370 0.950 . S
H363 C375 0.950 . S
H364 C372 0.950 . S
H365 C374 0.950 . S
H366 C376 0.950 . S
H367 C378 0.950 . S
H368 C380 0.950 . S
H369 C381 0.950 . S
C370 H362 0.950 . S
C370 C371 1.386 . S
C370 C372 1.391 . S
C371 C370 1.386 . S
C371 C375 1.393 . S
C372 H364 0.950 . S
C372 C370 1.391 . S
C372 C373 1.400 . S
C373 C372 1.400 . S
C373 C374 1.398 . S
C373 C379 1.491 . S
C374 H365 0.950 . S
C374 C373 1.398 . S
C374 C375 1.391 . S
C375 H363 0.950 . S
C375 C371 1.393 . S
C375 C374 1.391 . S
C376 H366 0.950 . S
C376 C377 1.386 . S
C376 C378 1.391 . S
C377 C376 1.386 . S
C377 C381 1.393 . S
C378 H367 0.950 . S
C378 C376 1.391 . S
C378 C379 1.400 . S
C379 C373 1.491 . S
C379 C378 1.400 . S
C379 C380 1.398 . S
C380 H368 0.950 . S
C380 C379 1.398 . S
C380 C381 1.391 . S
C381 H369 0.950 . S
C381 C377 1.393 . S
C381 C380 1.391 . S
H382 C390 0.950 . S
H383 C395 0.950 . S
H384 C392 0.950 . S
H385 C394 0.950 . S
H386 C396 0.950 . S
H387 C398 0.950 . S
H388 C400 0.950 . S
H389 C401 0.950 . S
C390 H382 0.950 . S
C390 C391 1.386 . S
C390 C392 1.391 . S
C391 C390 1.386 . S
C391 C395 1.393 . S
C392 H384 0.950 . S
C392 C390 1.391 . S
C392 C393 1.400 . S
C393 C392 1.400 . S
C393 C394 1.398 . S
C393 C399 1.491 . S
C394 H385 0.950 . S
C394 C393 1.398 . S
C394 C395 1.391 . S
C395 H383 0.950 . S
C395 C391 1.393 . S
C395 C394 1.391 . S
C396 H386 0.950 . S
C396 C397 1.386 . S
C396 C398 1.391 . S
C397 C396 1.386 . S
C397 C401 1.393 . S
C398 H387 0.950 . S
C398 C396 1.391 . S
C398 C399 1.400 . S
C399 C393 1.491 . S
C399 C398 1.400 . S
C399 C400 1.398 . S
C400 H388 0.950 . S
C400 C399 1.398 . S
C400 C401 1.391 . S
C401 H389 0.950 . S
C401 C397 1.393 . S
C401 C400 1.391 . S
H402 C410 0.950 . S
H403 C415 0.950 . S
H404 C412 0.950 . S
H405 C414 0.950 . S
H406 C416 0.950 . S
H407 C418 0.950 . S
H408 C420 0.950 . S
H409 C421 0.950 . S
C410 H402 0.950 . S
C410 C411 1.386 . S
C410 C412 1.391 . S
C411 C410 1.386 . S
C411 C415 1.393 . S
C412 H404 0.950 . S
C412 C410 1.391 . S
C412 C413 1.400 . S
C413 C412 1.400 . S
C413 C414 1.398 . S
C413 C419 1.491 . S
C414 H405 0.950 . S
C414 C413 1.398 . S
C414 C415 1.391 . S
C415 H403 0.950 . S
C415 C411 1.393 . S
C415 C414 1.391 . S
C416 H406 0.950 . S
C416 C417 1.386 . S
C416 C418 1.391 . S
C417 C416 1.386 . S
C417 C421 1.393 . S
C418 H407 0.950 . S
C418 C416 1.391 . S
C418 C419 1.400 . S
C419 C413 1.491 . S
C419 C418 1.400 . S
C419 C420 1.398 . S
C420 H408 0.950 . S
C420 C419 1.398 . S
C420 C421 1.391 . S
C421 H409 0.950 . S
C421 C417 1.393 . S
C421 C420 1.391 . S
H422 C430 0.950 1_554 S
H423 C435 0.950 . S
H424 C432 0.950 . S
H425 C434 0.950 . S
H426 C436 0.950 . S
H427 C438 0.950 . S
H428 C440 0.950 . S
H429 C441 0.950 . S
C430 H422 0.950 1_556 S
C430 C431 1.386 . S
C430 C432 1.391 . S
C431 C430 1.386 . S
C431 C435 1.393 . S
C432 H424 0.950 . S
C432 C430 1.391 . S
C432 C433 1.400 . S
C433 C432 1.400 . S
C433 C434 1.398 . S
C433 C439 1.491 . S
C434 H425 0.950 . S
C434 C433 1.398 . S
C434 C435 1.391 . S
C435 H423 0.950 . S
C435 C431 1.393 . S
C435 C434 1.391 . S
C436 H426 0.950 . S
C436 C437 1.386 . S
C436 C438 1.391 . S
C437 C436 1.386 . S
C437 C441 1.393 . S
C438 H427 0.950 . S
C438 C436 1.391 . S
C438 C439 1.400 . S
C439 C433 1.491 . S
C439 C438 1.400 . S
C439 C440 1.398 . S
C440 H428 0.950 . S
C440 C439 1.398 . S
C440 C441 1.391 . S
C441 H429 0.950 . S
C441 C437 1.393 . S
C441 C440 1.391 . S
H442 C450 0.950 . S
H443 C455 0.950 . S
H444 C452 0.950 . S
H445 C454 0.950 . S
H446 C456 0.950 . S
H447 C458 0.950 . S
H448 C460 0.950 . S
H449 C461 0.950 . S
C450 H442 0.950 . S
C450 C451 1.386 . S
C450 C452 1.391 . S
C451 C450 1.386 . S
C451 C455 1.393 . S
C452 H444 0.950 . S
C452 C450 1.391 . S
C452 C453 1.400 . S
C453 C452 1.400 . S
C453 C454 1.398 . S
C453 C459 1.491 . S
C454 H445 0.950 . S
C454 C453 1.398 . S
C454 C455 1.391 . S
C455 H443 0.950 . S
C455 C451 1.393 . S
C455 C454 1.391 . S
C456 H446 0.950 . S
C456 C457 1.386 . S
C456 C458 1.391 . S
C457 C456 1.386 . S
C457 C461 1.393 . S
C458 H447 0.950 . S
C458 C456 1.391 . S
C458 C459 1.400 . S
C459 C453 1.491 . S
C459 C458 1.400 . S
C459 C460 1.398 . S
C460 H448 0.950 . S
C460 C459 1.398 . S
C460 C461 1.391 . S
C461 H449 0.950 . S
C461 C457 1.393 . S
C461 C460 1.391 . S
H462 C470 0.950 . S
H463 C475 0.950 . S
H464 C472 0.950 . S
H465 C474 0.950 . S
H466 C476 0.950 . S
H467 C478 0.950 . S
H468 C480 0.950 . S
H469 C481 0.950 . S
C470 H462 0.950 . S
C470 C471 1.386 . S
C470 C472 1.391 . S
C471 C470 1.386 . S
C471 C475 1.393 . S
C472 H464 0.950 . S
C472 C470 1.391 . S
C472 C473 1.400 . S
C473 C472 1.400 . S
C473 C474 1.398 . S
C473 C479 1.491 . S
C474 H465 0.950 . S
C474 C473 1.398 . S
C474 C475 1.391 . S
C475 H463 0.950 . S
C475 C471 1.393 . S
C475 C474 1.391 . S
C476 H466 0.950 . S
C476 C477 1.386 . S
C476 C478 1.391 . S
C477 C476 1.386 . S
C477 C481 1.393 . S
C478 H467 0.950 . S
C478 C476 1.391 . S
C478 C479 1.400 . S
C479 C473 1.491 . S
C479 C478 1.400 . S
C479 C480 1.398 . S
C480 H468 0.950 . S
C480 C479 1.398 . S
C480 C481 1.391 . S
C481 H469 0.950 . S
C481 C477 1.393 . S
C481 C480 1.391 . S
H482 C490 0.950 . S
H483 C495 0.950 . S
H484 C492 0.950 . S
H485 C494 0.950 . S
H486 C496 0.950 . S
H487 C498 0.950 . S
H488 C500 0.950 . S
H489 C501 0.950 . S
C490 H482 0.950 . S
C490 C491 1.386 . S
C490 C492 1.391 . S
C491 C490 1.386 . S
C491 C495 1.393 . S
C492 H484 0.950 . S
C492 C490 1.391 . S
C492 C493 1.400 . S
C493 C492 1.400 . S
C493 C494 1.398 . S
C493 C499 1.491 . S
C494 H485 0.950 . S
C494 C493 1.398 . S
C494 C495 1.391 . S
C495 H483 0.950 . S
C495 C491 1.393 . S
C495 C494 1.391 . S
C496 H486 0.950 . S
C496 C497 1.386 . S
C496 C498 1.391 . S
C497 C496 1.386 . S
C497 C501 1.393 . S
C498 H487 0.950 . S
C498 C496 1.391 . S
C498 C499 1.400 . S
C499 C493 1.491 . S
C499 C498 1.400 . S
C499 C500 1.398 . S
C500 H488 0.950 . S
C500 C499 1.398 . S
C500 C501 1.391 . S
C501 H489 0.950 . S
C501 C497 1.393 . S
C501 C500 1.391 . S
H502 C510 0.950 . S
H503 C515 0.950 . S
H504 C512 0.950 . S
H505 C514 0.950 . S
H506 C516 0.950 . S
H507 C518 0.950 . S
H508 C520 0.950 . S
H509 C521 0.950 . S
C510 H502 0.950 . S
C510 C511 1.386 . S
C510 C512 1.391 . S
C511 C510 1.386 . S
C511 C515 1.393 . S
C512 H504 0.950 . S
C512 C510 1.391 . S
C512 C513 1.400 . S
C513 C512 1.400 . S
C513 C514 1.398 . S
C513 C519 1.491 . S
C514 H505 0.950 . S
C514 C513 1.398 . S
C514 C515 1.391 . S
C515 H503 0.950 . S
C515 C511 1.393 . S
C515 C514 1.391 . S
C516 H506 0.950 . S
C516 C517 1.386 . S
C516 C518 1.391 . S
C517 C516 1.386 . S
C517 C521 1.393 . S
C518 H507 0.950 . S
C518 C516 1.391 . S
C518 C519 1.400 . S
C519 C513 1.491 . S
C519 C518 1.400 . S
C519 C520 1.398 . S
C520 H508 0.950 . S
C520 C519 1.398 . S
C520 C521 1.391 . S
C521 H509 0.950 . S
C521 C517 1.393 . S
C521 C520 1.391 . S
H522 C530 0.950 . S
H523 C535 0.950 . S
H524 C532 0.950 . S
H525 C534 0.950 . S
H526 C536 0.950 . S
H527 C538 0.950 . S
H528 C540 0.950 . S
H529 C541 0.950 . S
C530 H522 0.950 . S
C530 C531 1.386 . S
C530 C532 1.391 . S
C531 C530 1.386 . S
C531 C535 1.393 . S
C532 H524 0.950 . S
C532 C530 1.391 . S
C532 C533 1.400 . S
C533 C532 1.400 . S
C533 C534 1.398 . S
C533 C539 1.491 . S
C534 H525 0.950 . S
C534 C533 1.398 . S
C534 C535 1.391 . S
C535 H523 0.950 . S
C535 C531 1.393 . S
C535 C534 1.391 . S
C536 H526 0.950 . S
C536 C537 1.386 . S
C536 C538 1.391 . S
C537 C536 1.386 . S
C537 C541 1.393 . S
C538 H527 0.950 . S
C538 C536 1.391 . S
C538 C539 1.400 . S
C539 C533 1.491 . S
C539 C538 1.400 . S
C539 C540 1.398 . S
C540 H528 0.950 . S
C540 C539 1.398 . S
C540 C541 1.391 . S
C541 H529 0.950 . S
C541 C537 1.393 . S
C541 C540 1.391 . S
H542 C550 0.950 . S
H543 C555 0.950 . S
H544 C552 0.950 . S
H545 C554 0.950 . S
H546 C556 0.950 . S
H547 C558 0.950 . S
H548 C560 0.950 . S
H549 C561 0.950 . S
C550 H542 0.950 . S
C550 C551 1.386 . S
C550 C552 1.391 . S
C551 C550 1.386 . S
C551 C555 1.393 . S
C552 H544 0.950 . S
C552 C550 1.391 . S
C552 C553 1.400 . S
C553 C552 1.400 . S
C553 C554 1.398 . S
C553 C559 1.491 . S
C554 H545 0.950 . S
C554 C553 1.398 . S
C554 C555 1.391 . S
C555 H543 0.950 . S
C555 C551 1.393 . S
C555 C554 1.391 . S
C556 H546 0.950 . S
C556 C557 1.386 . S
C556 C558 1.391 . S
C557 C556 1.386 . S
C557 C561 1.393 . S
C558 H547 0.950 . S
C558 C556 1.391 . S
C558 C559 1.400 . S
C559 C553 1.491 . S
C559 C558 1.400 . S
C559 C560 1.398 . S
C560 H548 0.950 . S
C560 C559 1.398 . S
C560 C561 1.391 . S
C561 H549 0.950 . S
C561 C557 1.393 . S
C561 C560 1.391 . S
H562 C570 0.950 . S
H563 C575 0.950 . S
H564 C572 0.950 . S
H565 C574 0.950 . S
H566 C576 0.950 . S
H567 C578 0.950 . S
H568 C580 0.950 . S
H569 C581 0.950 . S
C570 H562 0.950 . S
C570 C571 1.386 . S
C570 C572 1.391 . S
C571 C570 1.386 . S
C571 C575 1.393 . S
C572 H564 0.950 . S
C572 C570 1.391 . S
C572 C573 1.400 . S
C573 C572 1.400 . S
C573 C574 1.398 . S
C573 C579 1.491 . S
C574 H565 0.950 . S
C574 C573 1.398 . S
C574 C575 1.391 . S
C575 H563 0.950 . S
C575 C571 1.393 . S
C575 C574 1.391 . S
C576 H566 0.950 . S
C576 C577 1.386 . S
C576 C578 1.391 . S
C577 C576 1.386 . S
C577 C581 1.393 . S
C578 H567 0.950 . S
C578 C576 1.391 . S
C578 C579 1.400 . S
C579 C573 1.491 . S
C579 C578 1.400 . S
C579 C580 1.398 . S
C580 H568 0.950 . S
C580 C579 1.398 . S
C580 C581 1.391 . S
C581 H569 0.950 . S
C581 C577 1.393 . S
C581 C580 1.391 . S
H582 C590 0.950 . S
H583 C595 0.950 . S
H584 C592 0.950 . S
H585 C594 0.950 . S
H586 C596 0.950 . S
H587 C598 0.950 . S
H588 C600 0.950 . S
H589 C601 0.950 . S
C590 H582 0.950 . S
C590 C591 1.386 . S
C590 C592 1.391 . S
C591 C590 1.386 . S
C591 C595 1.393 . S
C592 H584 0.950 . S
C592 C590 1.391 . S
C592 C593 1.400 . S
C593 C592 1.400 . S
C593 C594 1.398 . S
C593 C599 1.491 . S
C594 H585 0.950 . S
C594 C593 1.398 . S
C594 C595 1.391 . S
C595 H583 0.950 . S
C595 C591 1.393 . S
C595 C594 1.391 . S
C596 H586 0.950 . S
C596 C597 1.386 . S
C596 C598 1.391 . S
C597 C596 1.386 . S
C597 C601 1.393 . S
C598 H587 0.950 . S
C598 C596 1.391 . S
C598 C599 1.400 . S
C599 C593 1.491 . S
C599 C598 1.400 . S
C599 C600 1.398 . S
C600 H588 0.950 . S
C600 C599 1.398 . S
C600 C601 1.391 . S
C601 H589 0.950 . S
C601 C597 1.393 . S
C601 C600 1.391 . S
H602 C610 0.950 . S
H603 C615 0.950 . S
H604 C612 0.950 . S
H605 C614 0.950 . S
H606 C616 0.950 . S
H607 C618 0.950 . S
H608 C620 0.950 . S
H609 C621 0.950 . S
C610 H602 0.950 . S
C610 C611 1.386 . S
C610 C612 1.391 . S
C611 C610 1.386 . S
C611 C615 1.393 . S
C612 H604 0.950 . S
C612 C610 1.391 . S
C612 C613 1.400 . S
C613 C612 1.400 . S
C613 C614 1.398 . S
C613 C619 1.491 . S
C614 H605 0.950 . S
C614 C613 1.398 . S
C614 C615 1.391 . S
C615 H603 0.950 . S
C615 C611 1.393 . S
C615 C614 1.391 . S
C616 H606 0.950 . S
C616 C617 1.386 . S
C616 C618 1.391 . S
C617 C616 1.386 . S
C617 C621 1.393 . S
C618 H607 0.950 . S
C618 C616 1.391 . S
C618 C619 1.400 . S
C619 C613 1.491 . S
C619 C618 1.400 . S
C619 C620 1.398 . S
C620 H608 0.950 . S
C620 C619 1.398 . S
C620 C621 1.391 . S
C621 H609 0.950 . S
C621 C617 1.393 . S
C621 C620 1.391 . S
H622 C630 0.950 . S
H623 C635 0.950 . S
H624 C632 0.950 . S
H625 C634 0.950 . S
H626 C636 0.950 . S
H627 C638 0.950 . S
H628 C640 0.950 . S
H629 C641 0.950 . S
C630 H622 0.950 . S
C630 C631 1.386 . S
C630 C632 1.391 . S
C631 C630 1.386 . S
C631 C635 1.393 . S
C632 H624 0.950 . S
C632 C630 1.391 . S
C632 C633 1.400 . S
C633 C632 1.400 . S
C633 C634 1.398 . S
C633 C639 1.491 . S
C634 H625 0.950 . S
C634 C633 1.398 . S
C634 C635 1.391 . S
C635 H623 0.950 . S
C635 C631 1.393 . S
C635 C634 1.391 . S
C636 H626 0.950 . S
C636 C637 1.386 . S
C636 C638 1.391 . S
C637 C636 1.386 . S
C637 C641 1.393 . S
C638 H627 0.950 . S
C638 C636 1.391 . S
C638 C639 1.400 . S
C639 C633 1.491 . S
C639 C638 1.400 . S
C639 C640 1.398 . S
C640 H628 0.950 . S
C640 C639 1.398 . S
C640 C641 1.391 . S
C641 H629 0.950 . S
C641 C637 1.393 . S
C641 C640 1.391 . S
H642 C650 0.950 . S
H643 C655 0.950 . S
H644 C652 0.950 . S
H645 C654 0.950 . S
H646 C656 0.950 . S
H647 C658 0.950 . S
H648 C660 0.950 . S
H649 C661 0.950 . S
C650 H642 0.950 . S
C650 C651 1.386 . S
C650 C652 1.391 . S
C651 C650 1.386 . S
C651 C655 1.393 . S
C652 H644 0.950 . S
C652 C650 1.391 . S
C652 C653 1.400 . S
C653 C652 1.400 . S
C653 C654 1.398 . S
C653 C659 1.491 . S
C654 H645 0.950 . S
C654 C653 1.398 . S
C654 C655 1.391 . S
C655 H643 0.950 . S
C655 C651 1.393 . S
C655 C654 1.391 . S
C656 H646 0.950 . S
C656 C657 1.390 . S
C656 C658 1.391 1_554 S
C657 C656 1.390 . S
C657 C661 1.367 1_554 S
C658 H647 0.950 . S
C658 C656 1.391 1_556 S
C658 C659 1.400 . S
C659 C653 1.491 . S
C659 C658 1.400 . S
C659 C660 1.398 . S
C660 H648 0.950 . S
C660 C659 1.398 . S
C660 C661 1.391 . S
C661 H649 0.950 . S
C661 C657 1.367 1_556 S
C661 C660 1.391 . S
H662 C670 0.950 . S
H663 C675 0.950 . S
H664 C672 0.950 . S
H665 C674 0.950 . S
H666 C676 0.950 . S
H667 C678 0.950 . S
H668 C680 0.950 . S
H669 C681 0.950 . S
C670 H662 0.950 . S
C670 C671 1.386 . S
C670 C672 1.391 . S
C671 C670 1.386 . S
C671 C675 1.393 . S
C672 H664 0.950 . S
C672 C670 1.391 . S
C672 C673 1.400 . S
C673 C672 1.400 . S
C673 C674 1.398 . S
C673 C679 1.491 . S
C674 H665 0.950 . S
C674 C673 1.398 . S
C674 C675 1.391 . S
C675 H663 0.950 . S
C675 C671 1.393 . S
C675 C674 1.391 . S
C676 H666 0.950 . S
C676 C677 1.386 . S
C676 C678 1.391 . S
C677 C676 1.386 . S
C677 C681 1.393 . S
C678 H667 0.950 . S
C678 C676 1.391 . S
C678 C679 1.400 . S
C679 C673 1.491 . S
C679 C678 1.400 . S
C679 C680 1.398 . S
C680 H668 0.950 . S
C680 C679 1.398 . S
C680 C681 1.391 . S
C681 H669 0.950 . S
C681 C677 1.393 . S
C681 C680 1.391 . S
H682 C690 0.950 . S
H683 C695 0.950 . S
H684 C692 0.950 . S
H685 C694 0.950 . S
H686 C696 0.950 . S
H687 C698 0.950 . S
H688 C700 0.950 . S
H689 C701 0.950 . S
C690 H682 0.950 . S
C690 C691 1.386 . S
C690 C692 1.391 . S
C691 C690 1.386 . S
C691 C695 1.393 . S
C692 H684 0.950 . S
C692 C690 1.391 . S
C692 C693 1.400 . S
C693 C692 1.400 . S
C693 C694 1.398 . S
C693 C699 1.491 . S
C694 H685 0.950 . S
C694 C693 1.398 . S
C694 C695 1.391 . S
C695 H683 0.950 . S
C695 C691 1.393 . S
C695 C694 1.391 . S
C696 H686 0.950 . S
C696 C697 1.386 . S
C696 C698 1.391 . S
C697 C696 1.386 . S
C697 C701 1.393 . S
C698 H687 0.950 . S
C698 C696 1.391 . S
C698 C699 1.400 . S
C699 C693 1.491 . S
C699 C698 1.400 . S
C699 C700 1.398 . S
C700 H688 0.950 . S
C700 C699 1.398 . S
C700 C701 1.391 . S
C701 H689 0.950 . S
C701 C697 1.393 . S
C701 C700 1.391 . S
H702 C710 0.950 . S
H703 C715 0.950 . S
H704 C712 0.950 . S
H705 C714 0.950 . S
H706 C716 0.950 . S
H707 C718 0.950 . S
H708 C720 0.950 . S
H709 C721 0.950 . S
C710 H702 0.950 . S
C710 C711 1.386 . S
C710 C712 1.391 . S
C711 C710 1.386 . S
C711 C715 1.393 . S
C712 H704 0.950 . S
C712 C710 1.391 . S
C712 C713 1.400 . S
C713 C712 1.400 . S
C713 C714 1.398 . S
C713 C719 1.491 . S
C714 H705 0.950 . S
C714 C713 1.398 . S
C714 C715 1.391 . S
C715 H703 0.950 . S
C715 C711 1.393 . S
C715 C714 1.391 . S
C716 H706 0.950 . S
C716 C717 1.386 . S
C716 C718 1.391 . S
C717 C716 1.386 . S
C717 C721 1.393 . S
C718 H707 0.950 . S
C718 C716 1.391 . S
C718 C719 1.400 . S
C719 C713 1.491 . S
C719 C718 1.400 . S
C719 C720 1.398 . S
C720 H708 0.950 . S
C720 C719 1.398 . S
C720 C721 1.391 . S
C721 H709 0.950 . S
C721 C717 1.393 . S
C721 C720 1.391 . S
H722 C730 0.950 . S
H723 C735 0.950 . S
H724 C732 0.950 . S
H725 C734 0.950 . S
H726 C736 0.950 . S
H727 C738 0.950 . S
H728 C740 0.950 . S
H729 C741 0.950 . S
C730 H722 0.950 . S
C730 C731 1.386 . S
C730 C732 1.391 . S
C731 C730 1.386 . S
C731 C735 1.393 . S
C732 H724 0.950 . S
C732 C730 1.391 . S
C732 C733 1.400 . S
C733 C732 1.400 . S
C733 C734 1.398 . S
C733 C739 1.491 . S
C734 H725 0.950 . S
C734 C733 1.398 . S
C734 C735 1.391 . S
C735 H723 0.950 . S
C735 C731 1.393 . S
C735 C734 1.391 . S
C736 H726 0.950 . S
C736 C737 1.386 . S
C736 C738 1.391 . S
C737 C736 1.386 . S
C737 C741 1.393 . S
C738 H727 0.950 . S
C738 C736 1.391 . S
C738 C739 1.400 . S
C739 C733 1.491 . S
C739 C738 1.400 . S
C739 C740 1.398 . S
C740 H728 0.950 . S
C740 C739 1.398 . S
C740 C741 1.391 . S
C741 H729 0.950 . S
C741 C737 1.393 . S
C741 C740 1.391 . S
H742 C750 0.950 . S
H743 C755 0.950 . S
H744 C752 0.950 . S
H745 C754 0.950 . S
H746 C756 0.950 . S
H747 C758 0.950 . S
H748 C760 0.950 . S
H749 C761 0.950 . S
C750 H742 0.950 . S
C750 C751 1.386 . S
C750 C752 1.391 . S
C751 C750 1.386 . S
C751 C755 1.393 . S
C752 H744 0.950 . S
C752 C750 1.391 . S
C752 C753 1.400 . S
C753 C752 1.400 . S
C753 C754 1.398 . S
C753 C759 1.491 . S
C754 H745 0.950 . S
C754 C753 1.398 . S
C754 C755 1.391 . S
C755 H743 0.950 . S
C755 C751 1.393 . S
C755 C754 1.391 . S
C756 H746 0.950 . S
C756 C757 1.386 . S
C756 C758 1.391 . S
C757 C756 1.386 . S
C757 C761 1.393 . S
C758 H747 0.950 . S
C758 C756 1.391 . S
C758 C759 1.400 . S
C759 C753 1.491 . S
C759 C758 1.400 . S
C759 C760 1.398 . S
C760 H748 0.950 . S
C760 C759 1.398 . S
C760 C761 1.391 . S
C761 H749 0.950 . S
C761 C757 1.393 . S
C761 C760 1.391 . S
H762 C770 0.950 . S
H763 C775 0.950 . S
H764 C772 0.950 . S
H765 C774 0.950 . S
H766 C776 0.950 . S
H767 C778 0.950 . S
H768 C780 0.950 . S
H769 C781 0.950 . S
C770 H762 0.950 . S
C770 C771 1.386 . S
C770 C772 1.391 . S
C771 C770 1.386 . S
C771 C775 1.393 . S
C772 H764 0.950 . S
C772 C770 1.391 . S
C772 C773 1.400 . S
C773 C772 1.400 . S
C773 C774 1.398 . S
C773 C779 1.491 . S
C774 H765 0.950 . S
C774 C773 1.398 . S
C774 C775 1.391 . S
C775 H763 0.950 . S
C775 C771 1.393 . S
C775 C774 1.391 . S
C776 H766 0.950 . S
C776 C777 1.386 . S
C776 C778 1.391 . S
C777 C776 1.386 . S
C777 C781 1.393 . S
C778 H767 0.950 . S
C778 C776 1.391 . S
C778 C779 1.400 . S
C779 C773 1.491 . S
C779 C778 1.400 . S
C779 C780 1.398 . S
C780 H768 0.950 . S
C780 C779 1.398 . S
C780 C781 1.391 . S
C781 H769 0.950 . S
C781 C777 1.393 . S
C781 C780 1.391 . S
H782 C790 0.950 . S
H783 C795 0.950 . S
H784 C792 0.950 . S
H785 C794 0.950 . S
H786 C796 0.950 . S
H787 C798 0.950 . S
H788 C800 0.950 . S
H789 C801 0.950 1_554 S
C790 H782 0.950 . S
C790 C791 1.386 . S
C790 C792 1.391 . S
C791 C790 1.386 . S
C791 C795 1.393 . S
C792 H784 0.950 . S
C792 C790 1.391 . S
C792 C793 1.400 . S
C793 C792 1.400 . S
C793 C794 1.398 . S
C793 C799 1.491 . S
C794 H785 0.950 . S
C794 C793 1.398 . S
C794 C795 1.391 . S
C795 H783 0.950 . S
C795 C791 1.393 . S
C795 C794 1.391 . S
C796 H786 0.950 . S
C796 C797 1.386 . S
C796 C798 1.391 . S
C797 C796 1.386 . S
C797 C801 1.393 . S
C798 H787 0.950 . S
C798 C796 1.391 . S
C798 C799 1.400 1_556 S
C799 C793 1.491 . S
C799 C798 1.400 1_554 S
C799 C800 1.398 . S
C800 H788 0.950 . S
C800 C799 1.398 . S
C800 C801 1.391 1_554 S
C801 H789 0.950 1_556 S
C801 C797 1.393 . S
C801 C800 1.391 1_556 S
H802 C810 0.950 . S
H803 C815 0.950 . S
H804 C812 0.950 . S
H805 C814 0.950 . S
H806 C816 0.950 . S
H807 C818 0.950 . S
H808 C820 0.950 . S
H809 C821 0.950 . S
C810 H802 0.950 . S
C810 C811 1.386 . S
C810 C812 1.391 . S
C811 C810 1.386 . S
C811 C815 1.393 . S
C812 H804 0.950 . S
C812 C810 1.391 . S
C812 C813 1.400 . S
C813 C812 1.400 . S
C813 C814 1.398 . S
C813 C819 1.491 . S
C814 H805 0.950 . S
C814 C813 1.398 . S
C814 C815 1.391 . S
C815 H803 0.950 . S
C815 C811 1.393 . S
C815 C814 1.391 . S
C816 H806 0.950 . S
C816 C817 1.386 . S
C816 C818 1.391 . S
C817 C816 1.386 . S
C817 C821 1.393 . S
C818 H807 0.950 . S
C818 C816 1.391 . S
C818 C819 1.400 . S
C819 C813 1.491 . S
C819 C818 1.400 . S
C819 C820 1.398 . S
C820 H808 0.950 . S
C820 C819 1.398 . S
C820 C821 1.391 . S
C821 H809 0.950 . S
C821 C817 1.393 . S
C821 C820 1.391 . S
C357 C309 1.586 . S
C351 C19 1.491 . S
C371 C40 1.541 . S
C377 C129 1.621 . S
C391 C51 1.492 . S
C397 C176 1.559 . S
C411 C72 1.455 . S
C417 C212 1.501 . S
C437 C237 1.569 . S
C431 C103 1.488 . S
C451 C114 1.484 . S
C457 C273 1.586 . S
C471 C30 1.499 . S
C477 C165 1.620 . S
C491 C61 1.478 . S
C497 C201 1.568 . S
C511 C82 1.449 . S
C517 C248 1.503 . S
C537 C284 1.535 . S
C531 C93 1.453 1_554 S
C557 C320 1.536 . S
C551 C124 1.500 . S
C577 C140 1.551 . S
C571 C9 1.483 . S
C591 C17 1.445 . S
C597 C164 1.504 . S
C611 C38 1.441 . S
C617 C200 1.510 . S
C637 C238 1.506 . S
C631 C54 1.428 . S
C651 C75 1.419 . S
C657 C274 1.543 . S
C677 C310 1.494 . S
C671 C101 1.408 . S
C697 C130 1.475 . S
C691 C117 1.404 . S
C717 C308 1.493 . S
C711 C33 1.397 . S
C731 C59 1.409 . S
C737 C128 1.496 . S
C757 C166 1.500 . S
C751 C80 1.435 . S
C771 C96 1.408 . S
C777 C202 1.505 . S
C791 C122 1.458 . S
C797 C236 1.544 . S
C811 C12 1.466 . S
C817 C272 1.528 . S
