# Generated by pormake.
# Topology pyr, (3,6)-cn, num edge types: 1
# Building blocks:
#     Node 0, Type 0, BuildingBlock: PAMTOO_clean_linker_0, # of connection points: 3
#     Node 1, Type 0, BuildingBlock: PAMTOO_clean_linker_0, # of connection points: 3
#     Node 2, Type 0, BuildingBlock: PAMTOO_clean_linker_0, # of connection points: 3
#     Node 3, Type 0, BuildingBlock: PAMTOO_clean_linker_0, # of connection points: 3
#     Node 4, Type 0, BuildingBlock: PAMTOO_clean_linker_0, # of connection points: 3
#     Node 5, Type 0, BuildingBlock: PAMTOO_clean_linker_0, # of connection points: 3
#     Node 6, Type 0, BuildingBlock: PAMTOO_clean_linker_0, # of connection points: 3
#     Node 7, Type 0, BuildingBlock: PAMTOO_clean_linker_0, # of connection points: 3
#     Node 8, Type 1, BuildingBlock: MIFKUJ_clean_sbu_0, # of connection points: 6
#     Node 9, Type 1, BuildingBlock: MIFKUJ_clean_sbu_0, # of connection points: 6
#     Node 10, Type 1, BuildingBlock: MIFKUJ_clean_sbu_0, # of connection points: 6
#     Node 11, Type 1, BuildingBlock: MIFKUJ_clean_sbu_0, # of connection points: 6
#     Edge 12, Type (0, 1), BuildingBlock: UVAHIK_clean_linker_0, # of connection points: 2
#     Edge 13, Type (0, 1), BuildingBlock: UVAHIK_clean_linker_0, # of connection points: 2
#     Edge 14, Type (0, 1), BuildingBlock: UVAHIK_clean_linker_0, # of connection points: 2
#     Edge 15, Type (0, 1), BuildingBlock: UVAHIK_clean_linker_0, # of connection points: 2
#     Edge 16, Type (0, 1), BuildingBlock: UVAHIK_clean_linker_0, # of connection points: 2
#     Edge 17, Type (0, 1), BuildingBlock: UVAHIK_clean_linker_0, # of connection points: 2
#     Edge 18, Type (0, 1), BuildingBlock: UVAHIK_clean_linker_0, # of connection points: 2
#     Edge 19, Type (0, 1), BuildingBlock: UVAHIK_clean_linker_0, # of connection points: 2
#     Edge 20, Type (0, 1), BuildingBlock: UVAHIK_clean_linker_0, # of connection points: 2
#     Edge 21, Type (0, 1), BuildingBlock: UVAHIK_clean_linker_0, # of connection points: 2
#     Edge 22, Type (0, 1), BuildingBlock: UVAHIK_clean_linker_0, # of connection points: 2
#     Edge 23, Type (0, 1), BuildingBlock: UVAHIK_clean_linker_0, # of connection points: 2
#     Edge 24, Type (0, 1), BuildingBlock: UVAHIK_clean_linker_0, # of connection points: 2
#     Edge 25, Type (0, 1), BuildingBlock: UVAHIK_clean_linker_0, # of connection points: 2
#     Edge 26, Type (0, 1), BuildingBlock: UVAHIK_clean_linker_0, # of connection points: 2
#     Edge 27, Type (0, 1), BuildingBlock: UVAHIK_clean_linker_0, # of connection points: 2
#     Edge 28, Type (0, 1), BuildingBlock: UVAHIK_clean_linker_0, # of connection points: 2
#     Edge 29, Type (0, 1), BuildingBlock: UVAHIK_clean_linker_0, # of connection points: 2
#     Edge 30, Type (0, 1), BuildingBlock: UVAHIK_clean_linker_0, # of connection points: 2
#     Edge 31, Type (0, 1), BuildingBlock: UVAHIK_clean_linker_0, # of connection points: 2
#     Edge 32, Type (0, 1), BuildingBlock: UVAHIK_clean_linker_0, # of connection points: 2
#     Edge 33, Type (0, 1), BuildingBlock: UVAHIK_clean_linker_0, # of connection points: 2
#     Edge 34, Type (0, 1), BuildingBlock: UVAHIK_clean_linker_0, # of connection points: 2
#     Edge 35, Type (0, 1), BuildingBlock: UVAHIK_clean_linker_0, # of connection points: 2
# Relax obj value: 0.081
# Max RMSD: 0.212
# Mean RMSD: 0.139
data_MOF--net-pyr--node1-MIFKUJ_clean_sbu_0--node2-PAMTOO_clean_linker_0--edge1-UVAHIK_clean_linker_0
_symmetry_space_group_name_H-M    P1
_symmetry_Int_Tables_number       1
_symmetry_cell_setting            triclinic
loop_
_symmetry_equiv_pos_as_xyz
'x, y, z'
_cell_length_a     49.331339
_cell_length_b     45.847674
_cell_length_c     48.834246
_cell_angle_alpha  86.288033
_cell_angle_beta   89.628418
_cell_angle_gamma 101.11226
loop_
_atom_site_label
_atom_site_type_symbol
_atom_site_fract_x
_atom_site_fract_y
_atom_site_fract_z
_atom_type_partial_charge
H0 H 0.17107 0.19948 0.22806 0.0
H1 H 0.22912 0.14075 0.22503 0.0
H2 H 0.22095 0.19953 0.1551 0.0
H3 H 0.22676 0.13991 0.14069 0.0
C4 C 0.23807 0.13337 0.15902 0.0
O5 O 0.24572 0.15755 0.17458 0.0
H6 H 0.22396 0.11511 0.17113 0.0
C7 C 0.1872 0.19167 0.21714 0.0
C8 C 0.19439 0.20264 0.18996 0.0
C9 C 0.19964 0.16945 0.22999 0.0
C10 C 0.21946 0.15806 0.21549 0.0
C11 C 0.2269 0.16891 0.18853 0.0
C12 C 0.21466 0.19127 0.17591 0.0
H13 H 0.35274 0.90993 0.70568 0.0
H14 H 0.35764 0.86258 0.63277 0.0
H15 H 0.41832 0.86149 0.69472 0.0
H16 H 0.43941 0.86999 0.6387 0.0
C17 C 0.42293 0.85433 0.6287 0.0
O18 O 0.40188 0.84269 0.64733 0.0
H19 H 0.41479 0.86705 0.61149 0.0
C20 C 0.36311 0.89642 0.69335 0.0
C21 C 0.38691 0.88696 0.70338 0.0
C22 C 0.35203 0.88747 0.66799 0.0
C23 C 0.36545 0.86939 0.65253 0.0
C24 C 0.38926 0.86021 0.66223 0.0
C25 C 0.39979 0.86876 0.68759 0.0
H26 H 0.73275 0.30508 0.86895 0.0
H27 H 0.67325 0.32859 0.81146 0.0
H28 H 0.74839 0.39051 0.82358 0.0
H29 H 0.70177 0.41965 0.8174 0.0
C30 C 0.68755 0.40266 0.80635 0.0
O31 O 0.7018 0.38172 0.79772 0.0
H32 H 0.67041 0.39195 0.82079 0.0
C33 C 0.7265 0.32068 0.85377 0.0
C34 C 0.74385 0.34847 0.84769 0.0
C35 C 0.70098 0.31311 0.84079 0.0
C36 C 0.69287 0.33384 0.82164 0.0
C37 C 0.71003 0.3616 0.81555 0.0
C38 C 0.73554 0.36875 0.82827 0.0
H39 H 0.86802 0.69776 0.37948 0.0
H40 H 0.86989 0.63278 0.32011 0.0
H41 H 0.93407 0.71067 0.3191 0.0
H42 H 0.9158 0.69233 0.26376 0.0
C43 C 0.90845 0.66809 0.26897 0.0
O44 O 0.91543 0.66114 0.29559 0.0
H45 H 0.88558 0.66315 0.26687 0.0
C46 C 0.87795 0.69021 0.36215 0.0
C47 C 0.90253 0.70769 0.35081 0.0
C48 C 0.86581 0.66326 0.35126 0.0
C49 C 0.87876 0.65357 0.3288 0.0
C50 C 0.90332 0.67065 0.31734 0.0
C51 C 0.91525 0.69755 0.32838 0.0
H52 H 0.83674 0.89157 0.80729 0.0
H53 H 0.81937 0.81737 0.86781 0.0
H54 H 0.88281 0.82067 0.80708 0.0
H55 H 0.84814 0.76335 0.81964 0.0
C56 C 0.84679 0.76367 0.84239 0.0
O57 O 0.85828 0.79149 0.85056 0.0
H58 H 0.82459 0.75796 0.84871 0.0
C59 C 0.84052 0.87029 0.81566 0.0
C60 C 0.86142 0.85785 0.80386 0.0
C61 C 0.82505 0.85595 0.83872 0.0
C62 C 0.83101 0.82902 0.85017 0.0
C63 C 0.85197 0.81671 0.83881 0.0
C64 C 0.86701 0.83096 0.81577 0.0
H65 H 0.74182 0.1314 0.32017 0.0
H66 H 0.68582 0.19243 0.32699 0.0
H67 H 0.74437 0.18513 0.3897 0.0
H68 H 0.68925 0.18682 0.41107 0.0
C69 C 0.68166 0.19962 0.39357 0.0
O70 O 0.70281 0.20941 0.37458 0.0
H71 H 0.66441 0.18441 0.38411 0.0
C72 C 0.73437 0.14837 0.33084 0.0
C73 C 0.74626 0.157 0.35597 0.0
C74 C 0.71231 0.16075 0.32002 0.0
C75 C 0.70237 0.182 0.33484 0.0
C76 C 0.71356 0.19011 0.36006 0.0
C77 C 0.7356 0.17799 0.3704 0.0
H78 H 0.35233 0.68869 0.14207 0.0
H79 H 0.34059 0.61458 0.20279 0.0
H80 H 0.41324 0.68294 0.2039 0.0
H81 H 0.42057 0.62037 0.20781 0.0
C82 C 0.40352 0.61113 0.22284 0.0
O83 O 0.3874 0.63199 0.22689 0.0
H84 H 0.39064 0.5912 0.21436 0.0
C85 C 0.35927 0.67718 0.16 0.0
C86 C 0.38452 0.68918 0.17177 0.0
C87 C 0.34309 0.65033 0.17106 0.0
C88 C 0.35266 0.63536 0.19393 0.0
C89 C 0.37791 0.64709 0.20558 0.0
C90 C 0.39361 0.67416 0.19481 0.0
H91 H 0.13989 0.33144 0.73739 0.0
H92 H 0.21098 0.40092 0.74835 0.0
H93 H 0.21397 0.33777 0.68832 0.0
H94 H 0.26201 0.35125 0.72145 0.0
C95 C 0.26392 0.37582 0.72185 0.0
O96 O 0.24109 0.3846 0.71032 0.0
H97 H 0.26538 0.38161 0.74364 0.0
C98 C 0.16085 0.3425 0.73193 0.0
C99 C 0.17546 0.33125 0.71149 0.0
C100 C 0.17339 0.3678 0.74544 0.0
C101 C 0.20065 0.38176 0.73802 0.0
C102 C 0.21508 0.37084 0.71754 0.0
C103 C 0.20252 0.34581 0.70429 0.0
Zn104 Zn 0.07138 0.01779 0.54124 0.0
Zn105 Zn 0.01571 0.02875 0.5105 0.0
C106 C 0.09136 0.07927 0.55053 0.0
O107 O 0.10966 0.07607 0.53184 0.0
C108 C 0.98825 0.9725 0.4952 0.0
O109 O 0.96833 0.98157 0.50823 0.0
O110 O 0.10469 0.00345 0.55677 0.0
O111 O 0.03783 0.98898 0.55616 0.0
O112 O 0.01 0.02118 0.55139 0.0
C113 C 0.10803 0.97674 0.55578 0.0
O114 O 0.08921 0.95748 0.54404 0.0
O115 O 0.07203 0.05735 0.55745 0.0
C116 C 0.98103 0.04997 0.47025 0.0
O117 O 0.99966 0.04283 0.45394 0.0
O118 O 0.98357 0.0463 0.49608 0.0
O119 O 0.04984 0.05614 0.49495 0.0
O120 O 0.0776 0.02399 0.50035 0.0
O121 O 0.01215 0.98902 0.49381 0.0
C122 C 0.01675 0.99858 0.564 0.0
C123 C 0.0705 0.04592 0.48698 0.0
Zn124 Zn 0.56663 0.99254 0.99029 0.0
Zn125 Zn 0.53169 0.0323 0.04204 0.0
C126 C 0.53183 0.96292 0.95163 0.0
O127 O 0.54056 0.941 0.96534 0.0
C128 C 0.55965 0.07387 0.07927 0.0
O129 O 0.53916 0.08743 0.07292 0.0
O130 O 0.60017 0.97816 0.97717 0.0
O131 O 0.57885 0.03491 0.9995 0.0
O132 O 0.54036 0.05141 0.00388 0.0
C133 C 0.6091 0.98556 0.95274 0.0
O134 O 0.59664 0.00308 0.93705 0.0
O135 O 0.53998 0.98932 0.95878 0.0
C136 C 0.48511 0.03473 0.07707 0.0
O137 O 0.49717 0.01779 0.09381 0.0
O138 O 0.49611 0.04354 0.05364 0.0
O139 O 0.52583 0.98763 0.04833 0.0
O140 O 0.54866 0.96375 0.02064 0.0
O141 O 0.56141 0.05011 0.06789 0.0
C142 C 0.56313 0.05238 0.99132 0.0
C143 C 0.53261 0.96383 0.04107 0.0
Zn144 Zn 0.55855 0.49631 0.50535 0.0
Zn145 Zn 0.5468 0.55287 0.52939 0.0
C146 C 0.59862 0.52454 0.46562 0.0
O147 O 0.58073 0.50846 0.4501 0.0
C148 C 0.50803 0.52815 0.57069 0.0
O149 O 0.5263 0.54645 0.58403 0.0
O150 O 0.56338 0.45637 0.49326 0.0
O151 O 0.55824 0.49326 0.54646 0.0
O152 O 0.57888 0.53992 0.54915 0.0
C153 C 0.58481 0.44737 0.50192 0.0
O154 O 0.60091 0.46351 0.5189 0.0
O155 O 0.5933 0.52416 0.49118 0.0
C156 C 0.52314 0.60392 0.52997 0.0
O157 O 0.50753 0.58816 0.51238 0.0
O158 O 0.54329 0.59377 0.54041 0.0
O159 O 0.54567 0.55496 0.48802 0.0
O160 O 0.52604 0.50794 0.48601 0.0
O161 O 0.51215 0.52603 0.54522 0.0
C162 C 0.57409 0.51302 0.55903 0.0
C163 C 0.52967 0.53474 0.47611 0.0
Zn164 Zn 0.0304 0.52396 0.99994 0.0
Zn165 Zn 0.04344 0.47323 0.03601 0.0
C166 C 0.99182 0.48958 0.96854 0.0
O167 O 0.00866 0.50622 0.95025 0.0
C168 C 0.08379 0.50575 0.0683 0.0
O169 O 0.06608 0.49165 0.08719 0.0
O170 O 0.02161 0.56039 0.97928 0.0
O171 O 0.03307 0.53375 0.03947 0.0
O172 O 0.01217 0.48875 0.05394 0.0
C173 C 0.99998 0.56797 0.98847 0.0
O174 O 0.98749 0.55321 0.01045 0.0
O175 O 0.9966 0.49255 0.99387 0.0
C176 C 0.06315 0.41925 0.04648 0.0
O177 O 0.07363 0.427 0.02169 0.0
O178 O 0.04812 0.43529 0.05715 0.0
O179 O 0.04303 0.46503 0.99576 0.0
O180 O 0.06234 0.51081 0.98155 0.0
O181 O 0.0786 0.50185 0.04319 0.0
C182 C 0.01757 0.51659 0.05704 0.0
C183 C 0.05817 0.48298 0.97839 0.0
C184 C 0.18998 0.1767 0.27913 0.0
C185 C 0.19096 0.15739 0.25816 0.0
C186 C 0.18022 0.16543 0.30536 0.0
C187 C 0.16162 0.09486 0.34987 0.0
H188 H 0.11651 0.14049 0.3879 0.0
C189 C 0.11308 0.05474 0.45701 0.0
C190 C 0.08637 0.05977 0.46217 0.0
C191 C 0.12791 0.06775 0.43338 0.0
C192 C 0.12883 0.12729 0.37748 0.0
H193 H 0.18279 0.1113 0.24798 0.0
H194 H 0.16478 0.09157 0.29343 0.0
H195 H 0.13836 0.16037 0.34426 0.0
H196 H 0.05415 0.08215 0.44658 0.0
H197 H 0.07944 0.10383 0.40498 0.0
H198 H 0.1507 0.06099 0.38235 0.0
C199 C 0.17228 0.11534 0.29005 0.0
C200 C 0.14181 0.13895 0.35259 0.0
C201 C 0.18247 0.12659 0.26394 0.0
C202 C 0.07478 0.07802 0.44327 0.0
C203 C 0.08942 0.09066 0.41948 0.0
C204 C 0.14831 0.083 0.3746 0.0
C205 C 0.17076 0.13464 0.31105 0.0
C206 C 0.15822 0.12281 0.33832 0.0
C207 C 0.1162 0.08575 0.41422 0.0
C208 C 0.13152 0.09894 0.38861 0.0
H209 H 0.19672 0.20053 0.27519 0.0
H210 H 0.17996 0.18094 0.32113 0.0
H211 H 0.17445 0.08198 0.33974 0.0
H212 H 0.12265 0.04097 0.47135 0.0
H213 H 0.14864 0.06386 0.43028 0.0
C214 C 0.40189 0.92542 0.73757 0.0
C215 C 0.39846 0.89577 0.73031 0.0
C216 C 0.41478 0.93392 0.76207 0.0
C217 C 0.4629 0.90957 0.81245 0.0
H218 H 0.43913 0.966 0.85861 0.0
C219 C 0.50623 0.9273 0.91983 0.0
C220 C 0.51425 0.95674 0.92739 0.0
C221 C 0.49106 0.92114 0.89618 0.0
C222 C 0.44614 0.95043 0.84576 0.0
H223 H 0.40437 0.85148 0.74376 0.0
H224 H 0.42645 0.86612 0.7865 0.0
H225 H 0.41403 0.9526 0.81671 0.0
H226 H 0.51192 0.00277 0.91637 0.0
H227 H 0.4853 0.99191 0.8748 0.0
H228 H 0.49482 0.90719 0.8414 0.0
C229 C 0.41996 0.88305 0.77298 0.0
C230 C 0.43179 0.94276 0.82177 0.0
C231 C 0.40723 0.87462 0.74852 0.0
C232 C 0.50608 0.97986 0.91108 0.0
C233 C 0.49076 0.97364 0.88736 0.0
C234 C 0.47711 0.91713 0.83637 0.0
C235 C 0.4244 0.9129 0.77984 0.0
C236 C 0.43984 0.92196 0.80499 0.0
C237 C 0.48348 0.94422 0.87944 0.0
C238 C 0.46875 0.93739 0.85347 0.0
H239 H 0.39546 0.94224 0.72386 0.0
H240 H 0.41802 0.95713 0.76664 0.0
H241 H 0.47014 0.89409 0.79967 0.0
H242 H 0.51195 0.9089 0.93199 0.0
H243 H 0.48533 0.89819 0.89094 0.0
C244 C 0.68704 0.44602 0.77179 0.0
C245 C 0.6756 0.41686 0.78191 0.0
C246 C 0.67601 0.45879 0.74871 0.0
C247 C 0.61309 0.45038 0.70665 0.0
H248 H 0.66214 0.49696 0.6507 0.0
C249 C 0.5773 0.47563 0.59773 0.0
C250 C 0.58588 0.50457 0.58547 0.0
C251 C 0.58814 0.46724 0.62265 0.0
C252 C 0.64819 0.48435 0.66633 0.0
H253 H 0.64441 0.37783 0.77573 0.0
H254 H 0.62529 0.39984 0.73513 0.0
H255 H 0.68143 0.47765 0.69247 0.0
H256 H 0.61267 0.54741 0.58975 0.0
H257 H 0.63186 0.53255 0.63345 0.0
H258 H 0.57993 0.45651 0.68023 0.0
C259 C 0.64228 0.41321 0.74533 0.0
C260 C 0.65921 0.4733 0.69026 0.0
C261 C 0.65325 0.40051 0.76842 0.0
C262 C 0.60565 0.52496 0.59869 0.0
C263 C 0.6167 0.51644 0.62362 0.0
C264 C 0.60212 0.4613 0.68271 0.0
C265 C 0.65347 0.44254 0.73523 0.0
C266 C 0.64179 0.45583 0.71052 0.0
C267 C 0.60795 0.48751 0.63586 0.0
C268 C 0.61957 0.47803 0.66214 0.0
H269 H 0.70446 0.45893 0.78177 0.0
H270 H 0.68498 0.48149 0.74158 0.0
H271 H 0.59906 0.43757 0.7221 0.0
H272 H 0.56213 0.45933 0.58812 0.0
H273 H 0.5813 0.44466 0.63138 0.0
C274 C 0.91002 0.6194 0.24829 0.0
C275 C 0.92098 0.64989 0.2496 0.0
C276 C 0.92105 0.60257 0.22973 0.0
C277 C 0.98308 0.60325 0.18585 0.0
H278 H 0.93277 0.54751 0.14456 0.0
C279 C 0.01602 0.55947 0.08572 0.0
C280 C 0.00684 0.52923 0.08113 0.0
C281 C 0.00603 0.5719 0.10813 0.0
C282 C 0.94711 0.56267 0.1562 0.0
H283 H 0.95248 0.68658 0.23326 0.0
H284 H 0.97152 0.65748 0.20052 0.0
H285 H 0.91458 0.57358 0.1804 0.0
H286 H 0.97991 0.48829 0.09662 0.0
H287 H 0.96225 0.51018 0.13588 0.0
H288 H 0.01553 0.59284 0.16122 0.0
C289 C 0.95459 0.64636 0.21394 0.0
C290 C 0.93671 0.57762 0.17677 0.0
C291 C 0.94358 0.66313 0.23252 0.0
C292 C 0.98739 0.51166 0.09958 0.0
C293 C 0.9772 0.52421 0.12198 0.0
C294 C 0.99345 0.58842 0.16524 0.0
C295 C 0.94336 0.6159 0.21216 0.0
C296 C 0.95453 0.59843 0.19158 0.0
C297 C 0.98647 0.55448 0.12651 0.0
C298 C 0.97556 0.56829 0.1499 0.0
H299 H 0.89275 0.6087 0.26151 0.0
H300 H 0.91216 0.5791 0.22922 0.0
H301 H 0.99748 0.61862 0.19723 0.0
H302 H 0.03096 0.57371 0.07194 0.0
H303 H 0.01329 0.59537 0.11077 0.0
C304 C 0.27637 0.13225 0.12491 0.0
C305 C 0.26344 0.12248 0.15043 0.0
C306 C 0.30026 0.12249 0.11718 0.0
C307 C 0.35833 0.09079 0.14541 0.0
H308 H 0.36561 0.06761 0.07115 0.0
C309 C 0.44714 0.03455 0.11148 0.0
C310 C 0.45946 0.04414 0.0856 0.0
C311 C 0.42308 0.04378 0.11959 0.0
C312 C 0.36403 0.0743 0.09187 0.0
H313 H 0.26567 0.09603 0.18838 0.0
H314 H 0.30737 0.07858 0.17482 0.0
H315 H 0.32404 0.08465 0.08499 0.0
H316 H 0.45619 0.07102 0.04796 0.0
H317 H 0.41443 0.0873 0.06221 0.0
H318 H 0.39837 0.08053 0.15226 0.0
C319 C 0.29907 0.09371 0.16073 0.0
C320 C 0.34021 0.08407 0.0998 0.0
C321 C 0.27514 0.10345 0.16842 0.0
C322 C 0.44717 0.06311 0.06799 0.0
C323 C 0.42314 0.07232 0.0761 0.0
C324 C 0.38217 0.08105 0.13747 0.0
C325 C 0.31183 0.10302 0.13496 0.0
C326 C 0.33711 0.09248 0.12664 0.0
C327 C 0.41081 0.06278 0.10199 0.0
C328 C 0.38532 0.07275 0.11059 0.0
H329 H 0.26796 0.14742 0.11096 0.0
H330 H 0.30988 0.13049 0.09741 0.0
H331 H 0.35672 0.09751 0.16612 0.0
H332 H 0.45606 0.01988 0.12551 0.0
H333 H 0.41391 0.03575 0.13954 0.0
C334 C 0.30605 0.87613 0.64519 0.0
C335 C 0.32637 0.89659 0.6577 0.0
C336 C 0.28225 0.88476 0.63481 0.0
C337 C 0.23913 0.94215 0.63888 0.0
H338 H 0.21225 0.91427 0.5689 0.0
C339 C 0.15283 0.98804 0.58062 0.0
C340 C 0.13284 0.96749 0.5678 0.0
C341 C 0.17624 0.97935 0.59196 0.0
C342 C 0.21928 0.92198 0.58861 0.0
H343 H 0.33749 0.9422 0.66916 0.0
H344 H 0.29593 0.95731 0.65098 0.0
H345 H 0.25333 0.89933 0.58812 0.0
H346 H 0.12179 0.92162 0.55697 0.0
H347 H 0.16252 0.90644 0.5769 0.0
H348 H 0.20507 0.96489 0.63928 0.0
C349 C 0.29828 0.93446 0.6495 0.0
C350 C 0.24285 0.91341 0.59965 0.0
C351 C 0.32211 0.92581 0.65992 0.0
C352 C 0.13681 0.93804 0.56661 0.0
C353 C 0.16025 0.92937 0.57791 0.0
C354 C 0.21555 0.95075 0.62782 0.0
C355 C 0.27814 0.91407 0.63665 0.0
C356 C 0.25306 0.92335 0.62494 0.0
C357 C 0.18027 0.94992 0.59071 0.0
C358 C 0.20532 0.94075 0.60255 0.0
H359 H 0.30842 0.8533 0.64361 0.0
H360 H 0.26693 0.86832 0.62554 0.0
H361 H 0.24619 0.94988 0.65857 0.0
H362 H 0.15047 0.01092 0.58186 0.0
H363 H 0.19141 0.99584 0.60135 0.0
C364 C 0.79439 0.37062 0.84788 0.0
C365 C 0.77014 0.35674 0.86233 0.0
C366 C 0.81891 0.37944 0.86182 0.0
C367 C 0.84425 0.40197 0.92883 0.0
H368 H 0.91496 0.39319 0.89876 0.0
C369 C 0.94752 0.45268 0.97812 0.0
C370 C 0.96764 0.46844 0.95934 0.0
C371 C 0.92397 0.43407 0.96877 0.0
C372 C 0.89537 0.39586 0.90739 0.0
H373 H 0.75253 0.34107 0.90266 0.0
H374 H 0.79549 0.35649 0.92705 0.0
H375 H 0.8724 0.3699 0.87734 0.0
H376 H 0.9793 0.47636 0.91616 0.0
H377 H 0.93838 0.44446 0.89998 0.0
H378 H 0.8672 0.42884 0.95826 0.0
C379 C 0.79548 0.36052 0.90495 0.0
C380 C 0.87104 0.38253 0.89512 0.0
C381 C 0.77098 0.3515 0.89097 0.0
C382 C 0.96416 0.46461 0.93119 0.0
C383 C 0.94077 0.44606 0.9219 0.0
C384 C 0.86862 0.41543 0.94103 0.0
C385 C 0.81964 0.37475 0.89052 0.0
C386 C 0.84526 0.38602 0.90533 0.0
C387 C 0.92026 0.43081 0.94051 0.0
C388 C 0.89446 0.41313 0.93003 0.0
H389 H 0.79436 0.37473 0.82579 0.0
H390 H 0.83714 0.39067 0.85019 0.0
H391 H 0.82468 0.40523 0.93701 0.0
H392 H 0.9497 0.45511 0.99996 0.0
H393 H 0.90861 0.4224 0.98362 0.0
C394 C 0.83446 0.64299 0.39157 0.0
C395 C 0.83919 0.64603 0.36301 0.0
C396 C 0.80862 0.62927 0.40261 0.0
C397 C 0.74342 0.57907 0.38726 0.0
H398 H 0.71311 0.61823 0.44501 0.0
C399 C 0.63049 0.54196 0.42534 0.0
C400 C 0.62541 0.54073 0.45378 0.0
C401 C 0.65638 0.55533 0.41417 0.0
C402 C 0.72138 0.60682 0.42913 0.0
H403 H 0.82062 0.63632 0.32369 0.0
H404 H 0.77549 0.61207 0.34301 0.0
H405 H 0.759 0.63923 0.42587 0.0
H406 H 0.6434 0.55309 0.49278 0.0
H407 H 0.68873 0.57612 0.47333 0.0
H408 H 0.70591 0.54654 0.39062 0.0
C409 C 0.79187 0.62023 0.35685 0.0
C410 C 0.74769 0.61885 0.41815 0.0
C411 C 0.81774 0.63405 0.34578 0.0
C412 C 0.64662 0.55377 0.47076 0.0
C413 C 0.67259 0.56706 0.45959 0.0
C414 C 0.71715 0.56696 0.39831 0.0
C415 C 0.7869 0.61813 0.38537 0.0
C416 C 0.75901 0.60511 0.3971 0.0
C417 C 0.67787 0.5677 0.43118 0.0
C418 C 0.70579 0.58071 0.41936 0.0
H419 H 0.85071 0.65146 0.40544 0.0
H420 H 0.80561 0.62745 0.42469 0.0
H421 H 0.75171 0.56777 0.3713 0.0
H422 H 0.61454 0.5323 0.41164 0.0
H423 H 0.65956 0.55594 0.39216 0.0
C424 C 0.173 0.2232 0.14821 0.0
C425 C 0.17991 0.22495 0.17603 0.0
C426 C 0.15852 0.24342 0.13536 0.0
C427 C 0.13923 0.31701 0.1427 0.0
H428 H 0.08585 0.28976 0.08741 0.0
C429 C 0.06981 0.39219 0.0914 0.0
C430 C 0.0713 0.39407 0.06258 0.0
C431 C 0.08054 0.37023 0.10656 0.0
C432 C 0.1007 0.29763 0.10282 0.0
H433 H 0.17733 0.24988 0.21195 0.0
H434 H 0.15107 0.28426 0.18989 0.0
H435 H 0.10995 0.25437 0.11153 0.0
H436 H 0.08401 0.3737 0.027 0.0
H437 H 0.10222 0.33504 0.05349 0.0
H438 H 0.12958 0.36024 0.13407 0.0
C439 C 0.15729 0.26759 0.17782 0.0
C440 C 0.11468 0.27745 0.11652 0.0
C441 C 0.17207 0.24757 0.1906 0.0
C442 C 0.08263 0.37284 0.0492 0.0
C443 C 0.09295 0.35064 0.06433 0.0
C444 C 0.12497 0.33709 0.12924 0.0
C445 C 0.15024 0.26572 0.15004 0.0
C446 C 0.13443 0.28695 0.13637 0.0
C447 C 0.0925 0.34949 0.09314 0.0
C448 C 0.10584 0.32766 0.10894 0.0
H449 H 0.17833 0.20586 0.13639 0.0
H450 H 0.15393 0.24159 0.11381 0.0
H451 H 0.15456 0.32528 0.15753 0.0
H452 H 0.06129 0.40834 0.10226 0.0
H453 H 0.07981 0.36967 0.12877 0.0
C454 C 0.69343 0.258 0.85212 0.0
C455 C 0.68251 0.28408 0.84829 0.0
C456 C 0.67666 0.23125 0.862 0.0
C457 C 0.61444 0.20457 0.9045 0.0
H458 H 0.62384 0.127 0.88331 0.0
C459 C 0.55625 0.09694 0.96164 0.0
C460 C 0.57264 0.07599 0.96937 0.0
C461 C 0.56618 0.12058 0.94245 0.0
C462 C 0.62103 0.14851 0.88947 0.0
H463 H 0.64518 0.30227 0.8507 0.0
H464 H 0.61576 0.25538 0.86756 0.0
H465 H 0.64742 0.17192 0.85691 0.0
H466 H 0.61182 0.06266 0.96204 0.0
H467 H 0.62926 0.1041 0.92892 0.0
H468 H 0.58879 0.18138 0.93752 0.0
C469 C 0.63739 0.25575 0.86324 0.0
C470 C 0.63451 0.17421 0.87436 0.0
C471 C 0.65418 0.28253 0.85334 0.0
C472 C 0.59871 0.0785 0.95666 0.0
C473 C 0.60863 0.10215 0.93748 0.0
C474 C 0.60099 0.17892 0.91959 0.0
C475 C 0.64859 0.22998 0.86825 0.0
C476 C 0.63178 0.20255 0.88205 0.0
C477 C 0.59269 0.12377 0.93055 0.0
C478 C 0.60455 0.15063 0.91258 0.0
H479 H 0.71511 0.25842 0.84804 0.0
H480 H 0.68601 0.21189 0.86583 0.0
H481 H 0.61224 0.22605 0.91125 0.0
H482 H 0.53595 0.09548 0.97083 0.0
H483 H 0.55323 0.13664 0.93722 0.0
C484 C 0.94304 0.74491 0.36663 0.0
C485 C 0.91444 0.73642 0.36265 0.0
C486 C 0.95359 0.77056 0.38025 0.0
C487 C 0.93268 0.81619 0.43187 0.0
H488 H 0.99338 0.87847 0.40484 0.0
C489 C 0.95483 0.92928 0.47902 0.0
C490 C 0.98226 0.94444 0.48103 0.0
C491 C 0.94865 0.90339 0.46491 0.0
C492 C 0.97671 0.86104 0.41293 0.0
H493 H 0.87484 0.74952 0.36806 0.0
H494 H 0.89315 0.79359 0.39229 0.0
H495 H 0.97915 0.83445 0.37866 0.0
H496 H 0.02484 0.94409 0.46999 0.0
H497 H 0.0141 0.89827 0.44585 0.0
H498 H 0.93023 0.84213 0.46622 0.0
C499 C 0.90733 0.78019 0.38528 0.0
C500 C 0.96854 0.83592 0.39786 0.0
C501 C 0.89686 0.75487 0.37148 0.0
C502 C 0.00347 0.93293 0.46877 0.0
C503 C 0.99729 0.90677 0.45478 0.0
C504 C 0.94101 0.841 0.44705 0.0
C505 C 0.9357 0.78799 0.39029 0.0
C506 C 0.94605 0.81359 0.40694 0.0
C507 C 0.96976 0.89169 0.45265 0.0
C508 C 0.96273 0.8641 0.43751 0.0
H509 H 0.95714 0.73115 0.36018 0.0
H510 H 0.97557 0.77614 0.38386 0.0
H511 H 0.91562 0.79899 0.43961 0.0
H512 H 0.93794 0.93765 0.48797 0.0
H513 H 0.92717 0.89286 0.46322 0.0
C514 C 0.42389 0.81552 0.59459 0.0
C515 C 0.43482 0.82935 0.61798 0.0
C516 C 0.43444 0.7918 0.585 0.0
C517 C 0.49546 0.75586 0.58837 0.0
H518 H 0.44435 0.68843 0.56268 0.0
C519 C 0.52843 0.64586 0.56147 0.0
C520 C 0.51578 0.63174 0.53883 0.0
C521 C 0.51967 0.67078 0.57095 0.0
C522 C 0.45897 0.70724 0.56945 0.0
H523 H 0.46447 0.82874 0.65036 0.0
H524 H 0.48296 0.7871 0.63372 0.0
H525 H 0.42668 0.73 0.57971 0.0
H526 H 0.48479 0.63343 0.50775 0.0
H527 H 0.46992 0.67697 0.52392 0.0
H528 H 0.52776 0.733 0.57805 0.0
C529 C 0.4667 0.795 0.62238 0.0
C530 C 0.44881 0.73108 0.57924 0.0
C531 C 0.4561 0.81872 0.63196 0.0
C532 C 0.49482 0.64359 0.5254 0.0
C533 C 0.48615 0.66847 0.53479 0.0
C534 C 0.50565 0.73198 0.57852 0.0
C535 C 0.45598 0.78124 0.59878 0.0
C536 C 0.46692 0.75575 0.58871 0.0
C537 C 0.49811 0.6821 0.55795 0.0
C538 C 0.48751 0.70745 0.5688 0.0
H539 H 0.40721 0.82313 0.5837 0.0
H540 H 0.42586 0.78188 0.56665 0.0
H541 H 0.50999 0.77468 0.59525 0.0
H542 H 0.5446 0.63722 0.57231 0.0
H543 H 0.52921 0.68061 0.58895 0.0
C544 C 0.86428 0.88721 0.75825 0.0
C545 C 0.87735 0.87288 0.7792 0.0
C546 C 0.87919 0.90111 0.73501 0.0
C547 C 0.95096 0.93013 0.70898 0.0
H548 H 0.91613 0.92637 0.63797 0.0
C549 C 0.01142 0.96451 0.60664 0.0
C550 C 0.0004 0.98379 0.58821 0.0
C551 C 0.99624 0.95109 0.62989 0.0
C552 C 0.92602 0.92773 0.65772 0.0
H553 H 0.91658 0.86235 0.79212 0.0
H554 H 0.94221 0.88531 0.75112 0.0
H555 H 0.89005 0.90251 0.6787 0.0
H556 H 0.96463 0.00366 0.5794 0.0
H557 H 0.93793 0.97976 0.6199 0.0
H558 H 0.98715 0.95474 0.68769 0.0
C559 C 0.92055 0.8864 0.75289 0.0
C560 C 0.91108 0.9142 0.68109 0.0
C561 C 0.90571 0.87279 0.77626 0.0
C562 C 0.97372 0.98901 0.59329 0.0
C563 C 0.95838 0.97524 0.61635 0.0
C564 C 0.96597 0.94331 0.68555 0.0
C565 C 0.9075 0.90078 0.73196 0.0
C566 C 0.92335 0.91526 0.70704 0.0
C567 C 0.96959 0.95633 0.63496 0.0
C568 C 0.95363 0.94227 0.65973 0.0
H569 H 0.8424 0.88741 0.75962 0.0
H570 H 0.86851 0.91231 0.71952 0.0
H571 H 0.96093 0.93193 0.72864 0.0
H572 H 0.03194 0.96008 0.60331 0.0
H573 H 0.00524 0.93639 0.64382 0.0
C574 C 0.71507 0.14405 0.27185 0.0
C575 C 0.69929 0.15138 0.29364 0.0
C576 C 0.70271 0.13603 0.24696 0.0
C577 C 0.64732 0.14867 0.20285 0.0
H578 H 0.64577 0.07087 0.1755 0.0
C579 C 0.5718 0.10462 0.1194 0.0
C580 C 0.57893 0.08481 0.1011 0.0
C581 C 0.58897 0.11374 0.14111 0.0
C582 C 0.64646 0.09296 0.18242 0.0
H583 H 0.65769 0.15468 0.3063 0.0
H584 H 0.63675 0.14228 0.26255 0.0
H585 H 0.67185 0.08484 0.21659 0.0
H586 H 0.61008 0.05967 0.09073 0.0
H587 H 0.64073 0.07656 0.12798 0.0
H588 H 0.62264 0.15741 0.1687 0.0
C589 C 0.65866 0.14278 0.26489 0.0
C590 C 0.6613 0.10082 0.20605 0.0
C591 C 0.6708 0.15013 0.28988 0.0
C592 C 0.60397 0.07484 0.10461 0.0
C593 C 0.62143 0.08438 0.12612 0.0
C594 C 0.63299 0.14111 0.17897 0.0
C595 C 0.6745 0.13577 0.24321 0.0
C596 C 0.66131 0.12848 0.21676 0.0
C597 C 0.61404 0.10375 0.14486 0.0
C598 C 0.63173 0.11285 0.16875 0.0
H599 H 0.73708 0.14507 0.27373 0.0
H600 H 0.71531 0.13075 0.23043 0.0
H601 H 0.64734 0.17029 0.21062 0.0
H602 H 0.55251 0.11248 0.11745 0.0
H603 H 0.5821 0.12805 0.15535 0.0
C604 C 0.40834 0.57419 0.26232 0.0
C605 C 0.41593 0.60296 0.24956 0.0
C606 C 0.42023 0.56676 0.28705 0.0
C607 C 0.4811 0.59059 0.32973 0.0
H608 H 0.43673 0.54034 0.38692 0.0
C609 C 0.52166 0.5717 0.43854 0.0
C610 C 0.51615 0.54235 0.4504 0.0
C611 C 0.50914 0.57897 0.41416 0.0
C612 C 0.44942 0.55416 0.37103 0.0
H613 H 0.44124 0.64669 0.25258 0.0
H614 H 0.4618 0.63398 0.29611 0.0
H615 H 0.41521 0.55356 0.34423 0.0
H616 H 0.49301 0.49765 0.44602 0.0
H617 H 0.47114 0.51039 0.40337 0.0
H618 H 0.51526 0.59136 0.35664 0.0
C619 C 0.44712 0.61694 0.28682 0.0
C620 C 0.43712 0.56171 0.34656 0.0
C621 C 0.43529 0.6243 0.26205 0.0
C622 C 0.49768 0.52046 0.43743 0.0
C623 C 0.48505 0.52779 0.41308 0.0
C624 C 0.49336 0.58315 0.35423 0.0
C625 C 0.43984 0.58802 0.29955 0.0
C626 C 0.45282 0.58003 0.32563 0.0
C627 C 0.49073 0.55709 0.40115 0.0
C628 C 0.47766 0.56486 0.37513 0.0
H629 H 0.39338 0.55738 0.25305 0.0
H630 H 0.4144 0.5442 0.29613 0.0
H631 H 0.49391 0.60429 0.31385 0.0
H632 H 0.53571 0.58915 0.44806 0.0
H633 H 0.51365 0.60182 0.40563 0.0
C634 C 0.16113 0.41023 0.76986 0.0
C635 C 0.15857 0.37937 0.76774 0.0
C636 C 0.1489 0.42124 0.79186 0.0
C637 C 0.12314 0.39964 0.86289 0.0
H638 H 0.09061 0.47011 0.85341 0.0
C639 C 0.06437 0.44061 0.95062 0.0
C640 C 0.0693 0.47143 0.95389 0.0
C641 C 0.07465 0.42945 0.9276 0.0
C642 C 0.09987 0.45059 0.85643 0.0
H643 H 0.14057 0.33589 0.7869 0.0
H644 H 0.11864 0.3551 0.82496 0.0
H645 H 0.10858 0.45008 0.81347 0.0
H646 H 0.08883 0.5147 0.93534 0.0
H647 H 0.10691 0.49514 0.89511 0.0
H648 H 0.11442 0.40014 0.90582 0.0
C649 C 0.13053 0.37081 0.8098 0.0
C650 C 0.11016 0.43908 0.83353 0.0
C651 C 0.1428 0.35978 0.78778 0.0
C652 C 0.08467 0.49085 0.93348 0.0
C653 C 0.09489 0.47965 0.91034 0.0
C654 C 0.11279 0.41109 0.88574 0.0
C655 C 0.13371 0.40169 0.81229 0.0
C656 C 0.12198 0.41349 0.83649 0.0
C657 C 0.09005 0.4488 0.90719 0.0
C658 C 0.10108 0.43673 0.8828 0.0
H659 H 0.17283 0.42595 0.75459 0.0
H660 H 0.15198 0.44514 0.7932 0.0
H661 H 0.13256 0.38025 0.86602 0.0
H662 H 0.05247 0.42499 0.96584 0.0
H663 H 0.07021 0.40561 0.92563 0.0
C664 C 0.79893 0.86827 0.87946 0.0
C665 C 0.80286 0.86922 0.85084 0.0
C666 C 0.77812 0.88082 0.89079 0.0
C667 C 0.71297 0.90616 0.87314 0.0
H668 H 0.7268 0.94844 0.93946 0.0
C669 C 0.63899 0.9775 0.91345 0.0
C670 C 0.63225 0.97341 0.94162 0.0
C671 C 0.66007 0.96498 0.90266 0.0
C672 C 0.72259 0.93649 0.92106 0.0
H673 H 0.78767 0.88386 0.81172 0.0
H674 H 0.75211 0.90665 0.83145 0.0
H675 H 0.76304 0.92616 0.91996 0.0
H676 H 0.6427 0.95342 0.98066 0.0
H677 H 0.67972 0.93176 0.96178 0.0
H678 H 0.67266 0.91694 0.87407 0.0
C679 C 0.7648 0.89576 0.84517 0.0
C680 C 0.7433 0.92364 0.90991 0.0
C681 C 0.78548 0.88304 0.83385 0.0
C682 C 0.64738 0.95696 0.95886 0.0
C683 C 0.66865 0.94467 0.94809 0.0
C684 C 0.69237 0.91921 0.88417 0.0
C685 C 0.76083 0.89478 0.87379 0.0
C686 C 0.73876 0.90832 0.8858 0.0
C687 C 0.67503 0.94834 0.91984 0.0
C688 C 0.69697 0.93451 0.90822 0.0
H689 H 0.81214 0.85811 0.89318 0.0
H690 H 0.77545 0.87933 0.91289 0.0
H691 H 0.70854 0.89405 0.85486 0.0
H692 H 0.62775 0.99005 0.89961 0.0
H693 H 0.66476 0.96845 0.88085 0.0
C694 C 0.7709 0.13676 0.39563 0.0
C695 C 0.7697 0.14416 0.36731 0.0
C696 C 0.7935 0.12607 0.40656 0.0
C697 C 0.85187 0.09088 0.38829 0.0
H698 H 0.88292 0.1224 0.45553 0.0
C699 C 0.95516 0.06665 0.43006 0.0
C700 C 0.95705 0.06124 0.45859 0.0
C701 C 0.93233 0.07672 0.41889 0.0
C702 C 0.87432 0.11307 0.43694 0.0
H703 H 0.79131 0.14577 0.32826 0.0
H704 H 0.8307 0.12687 0.34735 0.0
H705 H 0.84288 0.13941 0.43604 0.0
H706 H 0.93636 0.06216 0.49776 0.0
H707 H 0.89636 0.07934 0.47826 0.0
H708 H 0.8832 0.06442 0.38925 0.0
C709 C 0.81401 0.12918 0.36105 0.0
C710 C 0.85136 0.12286 0.42574 0.0
C711 C 0.79141 0.13997 0.35011 0.0
C712 C 0.93562 0.06625 0.4757 0.0
C713 C 0.91273 0.07624 0.46452 0.0
C714 C 0.87479 0.08102 0.39953 0.0
C715 C 0.81544 0.12238 0.38945 0.0
C716 C 0.83985 0.11188 0.4013 0.0
C717 C 0.91076 0.08154 0.43596 0.0
C718 C 0.88632 0.092 0.424 0.0
H719 H 0.75429 0.13913 0.40941 0.0
H720 H 0.7937 0.12051 0.42844 0.0
H721 H 0.84329 0.0817 0.36963 0.0
H722 H 0.97135 0.06315 0.41628 0.0
H723 H 0.93173 0.08101 0.39686 0.0
C724 C 0.2978 0.65629 0.15068 0.0
C725 C 0.31648 0.63781 0.15849 0.0
C726 C 0.27269 0.64445 0.13889 0.0
C727 C 0.21447 0.60916 0.13162 0.0
H728 H 0.2115 0.55034 0.07751 0.0
C729 C 0.11389 0.5311 0.10401 0.0
C730 C 0.10972 0.52488 0.07639 0.0
C731 C 0.1389 0.54778 0.11214 0.0
C732 C 0.21203 0.567 0.09236 0.0
H733 H 0.32372 0.59258 0.15969 0.0
H734 H 0.27972 0.57184 0.13938 0.0
H735 H 0.25608 0.57387 0.09499 0.0
H736 H 0.12821 0.53189 0.03548 0.0
H737 H 0.17205 0.56105 0.04977 0.0
H738 H 0.1704 0.60213 0.12912 0.0
C739 C 0.28458 0.59551 0.14221 0.0
C740 C 0.23751 0.58021 0.10258 0.0
C741 C 0.30961 0.6073 0.15412 0.0
C742 C 0.13085 0.53625 0.05694 0.0
C743 C 0.15598 0.55281 0.06512 0.0
C744 C 0.18898 0.59583 0.1215 0.0
C745 C 0.26583 0.61394 0.13453 0.0
C746 C 0.23896 0.60117 0.12255 0.0
C747 C 0.16032 0.5585 0.09285 0.0
C748 C 0.18747 0.57436 0.102 0.0
H749 H 0.30246 0.67985 0.154 0.0
H750 H 0.25872 0.65922 0.13302 0.0
H751 H 0.21493 0.6251 0.14712 0.0
H752 H 0.09799 0.52274 0.11949 0.0
H753 H 0.14174 0.55151 0.1337 0.0
C754 C 0.29346 0.38313 0.6788 0.0
C755 C 0.28934 0.39087 0.70563 0.0
C756 C 0.31672 0.39748 0.66331 0.0
C757 C 0.37055 0.46624 0.65936 0.0
H758 H 0.40979 0.42152 0.61344 0.0
C759 C 0.47799 0.51582 0.6128 0.0
C760 C 0.4829 0.51118 0.58518 0.0
C761 C 0.45402 0.5007 0.62656 0.0
C762 C 0.39886 0.43434 0.62594 0.0
H763 H 0.30601 0.41963 0.7374 0.0
H764 H 0.34697 0.44435 0.71067 0.0
H765 H 0.36867 0.39591 0.63951 0.0
H766 H 0.46663 0.48661 0.55046 0.0
H767 H 0.42457 0.46002 0.57467 0.0
H768 H 0.40091 0.50455 0.64609 0.0
C769 C 0.33211 0.42751 0.70135 0.0
C770 C 0.37529 0.4197 0.64086 0.0
C771 C 0.30881 0.41323 0.71676 0.0
C772 C 0.46343 0.49069 0.57173 0.0
C773 C 0.43942 0.47538 0.58561 0.0
C774 C 0.39413 0.4808 0.64457 0.0
C775 C 0.33632 0.41989 0.67439 0.0
C776 C 0.36097 0.43545 0.65792 0.0
C777 C 0.43437 0.48046 0.61311 0.0
C778 C 0.40868 0.46499 0.62787 0.0
H779 H 0.27851 0.36609 0.66978 0.0
H780 H 0.31909 0.39135 0.64251 0.0
H781 H 0.35971 0.47919 0.6718 0.0
H782 H 0.4926 0.53134 0.62383 0.0
H783 H 0.45093 0.50473 0.64787 0.0
C784 C 0.88637 0.73618 0.84298 0.0
C785 C 0.86227 0.74147 0.85554 0.0
C786 C 0.90197 0.71723 0.85617 0.0
C787 C 0.89768 0.6575 0.91156 0.0
H788 H 0.97762 0.68047 0.91086 0.0
C789 C 0.96343 0.59864 0.98441 0.0
C790 C 0.9871 0.5906 0.97336 0.0
C791 C 0.94934 0.61764 0.96933 0.0
C792 C 0.95534 0.67361 0.91098 0.0
H793 H 0.836 0.73223 0.89194 0.0
H794 H 0.8632 0.69912 0.91515 0.0
H795 H 0.9503 0.71185 0.88537 0.0
H796 H 0.01513 0.59707 0.93813 0.0
H797 H 0.99036 0.63044 0.91165 0.0
H798 H 0.90263 0.61946 0.93732 0.0
C799 C 0.86973 0.70892 0.89483 0.0
C800 C 0.93968 0.69154 0.89636 0.0
C801 C 0.85417 0.72787 0.88163 0.0
C802 C 0.99697 0.60289 0.94722 0.0
C803 C 0.98282 0.62201 0.93208 0.0
C804 C 0.91329 0.63966 0.92617 0.0
C805 C 0.89386 0.70344 0.88229 0.0
C806 C 0.91065 0.68381 0.89672 0.0
C807 C 0.95854 0.6291 0.94281 0.0
C808 C 0.94226 0.64767 0.92631 0.0
H809 H 0.89324 0.74694 0.82306 0.0
H810 H 0.92034 0.71333 0.8459 0.0
H811 H 0.8754 0.65061 0.91182 0.0
H812 H 0.95539 0.58979 0.00459 0.0
H813 H 0.93104 0.6232 0.9784 0.0
C814 C 0.41099 0.74109 0.17539 0.0
C815 C 0.40168 0.71694 0.1594 0.0
C816 C 0.4264 0.76767 0.16332 0.0
C817 C 0.44315 0.80832 0.09499 0.0
H818 H 0.50061 0.85716 0.13494 0.0
C819 C 0.51929 0.90826 0.04364 0.0
C820 C 0.52048 0.93525 0.05612 0.0
C821 C 0.50605 0.88141 0.057 0.0
C822 C 0.48454 0.84371 0.12364 0.0
H823 H 0.40189 0.70094 0.11868 0.0
H824 H 0.4297 0.74673 0.09773 0.0
H825 H 0.47533 0.81021 0.1567 0.0
H826 H 0.50961 0.95514 0.09277 0.0
H827 H 0.48696 0.90794 0.11635 0.0
H828 H 0.45302 0.84156 0.0617 0.0
C829 C 0.42434 0.7458 0.11935 0.0
C830 C 0.46993 0.81692 0.1361 0.0
C831 C 0.40855 0.71947 0.13133 0.0
C832 C 0.50892 0.93471 0.0826 0.0
C833 C 0.4961 0.90776 0.09614 0.0
C834 C 0.45806 0.8348 0.08242 0.0
C835 C 0.43319 0.77041 0.13509 0.0
C836 C 0.44899 0.79888 0.12194 0.0
C837 C 0.49418 0.88096 0.08326 0.0
C838 C 0.47883 0.85273 0.09664 0.0
H839 H 0.40577 0.73963 0.19708 0.0
H840 H 0.43246 0.78623 0.17604 0.0
H841 H 0.42676 0.7955 0.08363 0.0
H842 H 0.52791 0.90794 0.02323 0.0
H843 H 0.50495 0.86096 0.04675 0.0
C844 C 0.17805 0.28153 0.69476 0.0
C845 C 0.16297 0.30422 0.69758 0.0
C846 C 0.16775 0.25726 0.67951 0.0
C847 C 0.10467 0.21676 0.64732 0.0
H848 H 0.15887 0.19021 0.60212 0.0
C849 C 0.08113 0.1077 0.59032 0.0
C850 C 0.09502 0.10696 0.56522 0.0
C851 C 0.08708 0.13284 0.60566 0.0
C852 C 0.14332 0.19752 0.61428 0.0
H853 H 0.12487 0.3189 0.68743 0.0
H854 H 0.10693 0.27662 0.66019 0.0
H855 H 0.17345 0.23134 0.63078 0.0
H856 H 0.12472 0.13266 0.53571 0.0
H857 H 0.13447 0.17671 0.56195 0.0
H858 H 0.07441 0.18327 0.63007 0.0
C859 C 0.1266 0.27738 0.67011 0.0
C860 C 0.15179 0.22087 0.63115 0.0
C861 C 0.13685 0.30162 0.68566 0.0
C862 C 0.11393 0.13238 0.55514 0.0
C863 C 0.11965 0.15758 0.57031 0.0
C864 C 0.09613 0.19342 0.63025 0.0
C865 C 0.14221 0.2552 0.6664 0.0
C866 C 0.13267 0.23064 0.6481 0.0
C867 C 0.10686 0.15787 0.59611 0.0
C868 C 0.1154 0.18343 0.61358 0.0
H869 H 0.19805 0.28274 0.70414 0.0
H870 H 0.18 0.24021 0.67778 0.0
H871 H 0.08939 0.2236 0.6602 0.0
H872 H 0.06646 0.08844 0.59867 0.0
H873 H 0.07697 0.13212 0.62551 0.0
C874 C 0.68526 0.24163 0.42496 0.0
C875 C 0.67144 0.22584 0.40385 0.0
C876 C 0.6756 0.26576 0.43487 0.0
C877 C 0.61287 0.29811 0.43898 0.0
H878 H 0.66454 0.36889 0.45717 0.0
C879 C 0.57813 0.40536 0.47052 0.0
C880 C 0.59291 0.42059 0.49151 0.0
C881 C 0.58711 0.38131 0.45956 0.0
C882 C 0.64984 0.34915 0.45249 0.0
H883 H 0.63761 0.22351 0.37557 0.0
H884 H 0.62066 0.2658 0.39279 0.0
H885 H 0.68177 0.32804 0.43802 0.0
H886 H 0.62822 0.42195 0.518 0.0
H887 H 0.64355 0.37989 0.49922 0.0
H888 H 0.58094 0.3192 0.4536 0.0
C889 C 0.63857 0.25917 0.40214 0.0
C890 C 0.65973 0.32575 0.44148 0.0
C891 C 0.6483 0.23509 0.39221 0.0
C892 C 0.61644 0.41084 0.50172 0.0
C893 C 0.62537 0.38683 0.49081 0.0
C894 C 0.60297 0.32153 0.45004 0.0
C895 C 0.65202 0.27468 0.42371 0.0
C896 C 0.64139 0.29989 0.43473 0.0
C897 C 0.61103 0.372 0.46937 0.0
C898 C 0.62136 0.34725 0.45709 0.0
H899 H 0.70334 0.23505 0.43401 0.0
H900 H 0.68632 0.27708 0.45162 0.0
H901 H 0.59822 0.27834 0.43431 0.0
H902 H 0.55996 0.41238 0.46214 0.0
H903 H 0.5757 0.37051 0.44291 0.0
loop_
_geom_bond_atom_site_label_1
_geom_bond_atom_site_label_2
_geom_bond_distance
_geom_bond_site_symmetry_2
_ccdc_geom_bond_type
H0 C7 0.929 . S
H1 C10 0.930 . S
H2 C12 0.929 . S
H3 C4 0.969 . S
C4 H3 0.969 . S
C4 O5 1.550 . S
C4 H6 0.973 . S
O5 C4 1.550 . S
O5 C11 1.412 . S
H6 C4 0.973 . S
C7 H0 0.929 . S
C7 C8 1.400 . S
C7 C9 1.364 . S
C8 C7 1.400 . S
C8 C12 1.377 . S
C9 C7 1.364 . S
C9 C10 1.374 . S
C10 H1 0.930 . S
C10 C9 1.374 . S
C10 C11 1.383 . S
C11 O5 1.412 . S
C11 C10 1.383 . S
C11 C12 1.394 . S
C12 H2 0.929 . S
C12 C8 1.377 . S
C12 C11 1.394 . S
H13 C20 0.929 . S
H14 C23 0.930 . S
H15 C25 0.929 . S
H16 C17 0.969 . S
C17 H16 0.969 . S
C17 O18 1.550 . S
C17 H19 0.973 . S
O18 C17 1.550 . S
O18 C24 1.412 . S
H19 C17 0.973 . S
C20 H13 0.929 . S
C20 C21 1.400 . S
C20 C22 1.364 . S
C21 C20 1.400 . S
C21 C25 1.377 . S
C22 C20 1.364 . S
C22 C23 1.374 . S
C23 H14 0.930 . S
C23 C22 1.374 . S
C23 C24 1.383 . S
C24 O18 1.412 . S
C24 C23 1.383 . S
C24 C25 1.394 . S
C25 H15 0.929 . S
C25 C21 1.377 . S
C25 C24 1.394 . S
H26 C33 0.929 . S
H27 C36 0.930 . S
H28 C38 0.929 . S
H29 C30 0.969 . S
C30 H29 0.969 . S
C30 O31 1.550 . S
C30 H32 0.973 . S
O31 C30 1.550 . S
O31 C37 1.412 . S
H32 C30 0.973 . S
C33 H26 0.929 . S
C33 C34 1.400 . S
C33 C35 1.364 . S
C34 C33 1.400 . S
C34 C38 1.377 . S
C35 C33 1.364 . S
C35 C36 1.374 . S
C36 H27 0.930 . S
C36 C35 1.374 . S
C36 C37 1.383 . S
C37 O31 1.412 . S
C37 C36 1.383 . S
C37 C38 1.394 . S
C38 H28 0.929 . S
C38 C34 1.377 . S
C38 C37 1.394 . S
H39 C46 0.929 . S
H40 C49 0.930 . S
H41 C51 0.929 . S
H42 C43 0.969 . S
C43 H42 0.969 . S
C43 O44 1.550 . S
C43 H45 0.973 . S
O44 C43 1.550 . S
O44 C50 1.412 . S
H45 C43 0.973 . S
C46 H39 0.929 . S
C46 C47 1.400 . S
C46 C48 1.364 . S
C47 C46 1.400 . S
C47 C51 1.377 . S
C48 C46 1.364 . S
C48 C49 1.374 . S
C49 H40 0.930 . S
C49 C48 1.374 . S
C49 C50 1.383 . S
C50 O44 1.412 . S
C50 C49 1.383 . S
C50 C51 1.394 . S
C51 H41 0.929 . S
C51 C47 1.377 . S
C51 C50 1.394 . S
H52 C59 0.929 . S
H53 C62 0.930 . S
H54 C64 0.929 . S
H55 C56 0.969 . S
C56 H55 0.969 . S
C56 O57 1.550 . S
C56 H58 0.973 . S
O57 C56 1.550 . S
O57 C63 1.412 . S
H58 C56 0.973 . S
C59 H52 0.929 . S
C59 C60 1.400 . S
C59 C61 1.364 . S
C60 C59 1.400 . S
C60 C64 1.377 . S
C61 C59 1.364 . S
C61 C62 1.374 . S
C62 H53 0.930 . S
C62 C61 1.374 . S
C62 C63 1.383 . S
C63 O57 1.412 . S
C63 C62 1.383 . S
C63 C64 1.394 . S
C64 H54 0.929 . S
C64 C60 1.377 . S
C64 C63 1.394 . S
H65 C72 0.929 . S
H66 C75 0.930 . S
H67 C77 0.929 . S
H68 C69 0.969 . S
C69 H68 0.969 . S
C69 O70 1.550 . S
C69 H71 0.973 . S
O70 C69 1.550 . S
O70 C76 1.412 . S
H71 C69 0.973 . S
C72 H65 0.929 . S
C72 C73 1.400 . S
C72 C74 1.364 . S
C73 C72 1.400 . S
C73 C77 1.377 . S
C74 C72 1.364 . S
C74 C75 1.374 . S
C75 H66 0.930 . S
C75 C74 1.374 . S
C75 C76 1.383 . S
C76 O70 1.412 . S
C76 C75 1.383 . S
C76 C77 1.394 . S
C77 H67 0.929 . S
C77 C73 1.377 . S
C77 C76 1.394 . S
H78 C85 0.929 . S
H79 C88 0.930 . S
H80 C90 0.929 . S
H81 C82 0.969 . S
C82 H81 0.969 . S
C82 O83 1.550 . S
C82 H84 0.973 . S
O83 C82 1.550 . S
O83 C89 1.412 . S
H84 C82 0.973 . S
C85 H78 0.929 . S
C85 C86 1.400 . S
C85 C87 1.364 . S
C86 C85 1.400 . S
C86 C90 1.377 . S
C87 C85 1.364 . S
C87 C88 1.374 . S
C88 H79 0.930 . S
C88 C87 1.374 . S
C88 C89 1.383 . S
C89 O83 1.412 . S
C89 C88 1.383 . S
C89 C90 1.394 . S
C90 H80 0.929 . S
C90 C86 1.377 . S
C90 C89 1.394 . S
H91 C98 0.929 . S
H92 C101 0.930 . S
H93 C103 0.929 . S
H94 C95 0.969 . S
C95 H94 0.969 . S
C95 O96 1.550 . S
C95 H97 0.973 . S
O96 C95 1.550 . S
O96 C102 1.412 . S
H97 C95 0.973 . S
C98 H91 0.929 . S
C98 C99 1.400 . S
C98 C100 1.364 . S
C99 C98 1.400 . S
C99 C103 1.377 . S
C100 C98 1.364 . S
C100 C101 1.374 . S
C101 H92 0.930 . S
C101 C100 1.374 . S
C101 C102 1.383 . S
C102 O96 1.412 . S
C102 C101 1.383 . S
C102 C103 1.394 . S
C103 H93 0.929 . S
C103 C99 1.377 . S
C103 C102 1.394 . S
Zn104 O110 1.969 . S
Zn104 O111 1.965 1_545 S
Zn104 O115 2.024 . S
Zn104 O120 1.969 . S
Zn105 O112 1.969 1_545 S
Zn105 O118 1.969 . S
Zn105 O119 1.965 1_655 S
Zn105 O121 2.024 1_545 S
C106 O107 1.229 . S
C106 O115 1.058 . S
O107 C106 1.229 . S
C108 O109 1.229 . S
C108 O121 1.058 . S
O109 C108 1.229 . S
O110 Zn104 1.969 . S
O110 C113 1.267 1_545 S
O111 Zn104 1.965 1_565 S
O111 C122 1.229 1_455 S
O112 Zn105 1.969 1_565 S
O112 C122 1.281 . S
C113 O110 1.267 1_565 S
C113 O114 1.228 . S
O114 C113 1.228 . S
O115 Zn104 2.024 . S
O115 C106 1.058 . S
C116 O117 1.228 . S
C116 O118 1.267 . S
O117 C116 1.228 . S
O118 Zn105 1.969 . S
O118 C116 1.267 . S
O119 Zn105 1.965 1_455 S
O119 C123 1.260 . S
O120 Zn104 1.969 . S
O120 C123 1.258 . S
O121 Zn105 2.024 1_565 S
O121 C108 1.058 . S
C122 O111 1.229 1_655 S
C122 O112 1.281 . S
C123 O119 1.260 . S
C123 O120 1.258 . S
Zn124 O130 1.969 . S
Zn124 O131 1.965 1_565 S
Zn124 O135 2.024 . S
Zn124 O140 1.969 1_556 S
Zn125 O132 1.969 . S
Zn125 O138 1.969 . S
Zn125 O139 1.965 . S
Zn125 O141 2.024 . S
C126 O127 1.229 . S
C126 O135 1.058 . S
O127 C126 1.229 . S
C128 O129 1.229 . S
C128 O141 1.058 . S
O129 C128 1.229 . S
O130 Zn124 1.969 . S
O130 C133 1.267 . S
O131 Zn124 1.965 1_545 S
O131 C142 1.260 . S
O132 Zn125 1.969 . S
O132 C142 1.258 1_554 S
C133 O130 1.267 . S
C133 O134 1.228 . S
O134 C133 1.228 . S
O135 Zn124 2.024 . S
O135 C126 1.058 . S
C136 O137 1.228 . S
C136 O138 1.267 . S
O137 C136 1.228 . S
O138 Zn125 1.969 . S
O138 C136 1.267 . S
O139 Zn125 1.965 . S
O139 C143 1.260 1_545 S
O140 Zn124 1.969 1_554 S
O140 C143 1.258 . S
O141 Zn125 2.024 . S
O141 C128 1.058 . S
C142 O131 1.260 . S
C142 O132 1.258 1_556 S
C143 O139 1.260 1_565 S
C143 O140 1.258 . S
Zn144 O150 1.969 . S
Zn144 O151 1.965 . S
Zn144 O155 2.024 . S
Zn144 O160 1.969 . S
Zn145 O152 1.969 . S
Zn145 O158 1.969 . S
Zn145 O159 1.965 . S
Zn145 O161 2.024 . S
C146 O147 1.229 . S
C146 O155 1.058 . S
O147 C146 1.229 . S
C148 O149 1.229 . S
C148 O161 1.058 . S
O149 C148 1.229 . S
O150 Zn144 1.969 . S
O150 C153 1.267 . S
O151 Zn144 1.965 . S
O151 C162 1.260 . S
O152 Zn145 1.969 . S
O152 C162 1.258 . S
C153 O150 1.267 . S
C153 O154 1.228 . S
O154 C153 1.228 . S
O155 Zn144 2.024 . S
O155 C146 1.058 . S
C156 O157 1.228 . S
C156 O158 1.267 . S
O157 C156 1.228 . S
O158 Zn145 1.969 . S
O158 C156 1.267 . S
O159 Zn145 1.965 . S
O159 C163 1.260 . S
O160 Zn144 1.969 . S
O160 C163 1.258 . S
O161 Zn145 2.024 . S
O161 C148 1.058 . S
C162 O151 1.260 . S
C162 O152 1.258 . S
C163 O159 1.260 . S
C163 O160 1.258 . S
Zn164 O170 1.969 . S
Zn164 O171 1.965 1_556 S
Zn164 O175 2.024 1_456 S
Zn164 O180 1.969 . S
Zn165 O172 1.969 . S
Zn165 O178 1.969 . S
Zn165 O179 1.965 . S
Zn165 O181 2.024 . S
C166 O167 1.229 . S
C166 O175 1.058 1_556 S
O167 C166 1.229 . S
C168 O169 1.229 . S
C168 O181 1.058 . S
O169 C168 1.229 . S
O170 Zn164 1.969 . S
O170 C173 1.267 1_455 S
O171 Zn164 1.965 1_554 S
O171 C182 1.260 . S
O172 Zn165 1.969 . S
O172 C182 1.258 . S
C173 O170 1.267 1_655 S
C173 O174 1.228 . S
O174 C173 1.228 . S
O175 Zn164 2.024 1_654 S
O175 C166 1.058 1_554 S
C176 O177 1.228 . S
C176 O178 1.267 . S
O177 C176 1.228 . S
O178 Zn165 1.969 . S
O178 C176 1.267 . S
O179 Zn165 1.965 . S
O179 C183 1.260 1_554 S
O180 Zn164 1.969 . S
O180 C183 1.258 . S
O181 Zn165 2.024 . S
O181 C168 1.058 . S
C182 O171 1.260 . S
C182 O172 1.258 . S
C183 O179 1.260 1_556 S
C183 O180 1.258 . S
C184 C185 1.349 . S
C184 C186 1.327 . S
C184 H209 0.950 . S
C185 C184 1.349 . S
C185 C201 1.349 . S
C186 C184 1.327 . S
C186 C205 1.429 . S
C186 H210 0.950 . S
C187 C204 1.574 . S
C187 C206 1.368 . S
C187 H211 0.949 . S
H188 C192 0.949 . S
C189 C190 1.349 . S
C189 C191 1.327 . S
C189 H212 0.950 . S
C190 C189 1.349 . S
C190 C202 1.349 . S
C191 C189 1.327 . S
C191 C207 1.429 . S
C191 H213 0.950 . S
C192 H188 0.949 . S
C192 C200 1.574 . S
C192 C208 1.368 . S
H193 C201 0.950 . S
H194 C199 0.950 . S
H195 C200 0.949 . S
H196 C202 0.950 . S
H197 C203 0.950 . S
H198 C204 0.949 . S
C199 H194 0.950 . S
C199 C201 1.327 . S
C199 C205 1.429 . S
C200 C192 1.574 . S
C200 H195 0.949 . S
C200 C206 1.368 . S
C201 C185 1.349 . S
C201 H193 0.950 . S
C201 C199 1.327 . S
C202 C190 1.349 . S
C202 H196 0.950 . S
C202 C203 1.327 . S
C203 H197 0.950 . S
C203 C202 1.327 . S
C203 C207 1.429 . S
C204 C187 1.574 . S
C204 H198 0.949 . S
C204 C208 1.368 . S
C205 C186 1.429 . S
C205 C199 1.429 . S
C205 C206 1.523 . S
C206 C187 1.368 . S
C206 C200 1.368 . S
C206 C205 1.523 . S
C207 C191 1.429 . S
C207 C203 1.429 . S
C207 C208 1.523 . S
C208 C192 1.368 . S
C208 C204 1.368 . S
C208 C207 1.523 . S
H209 C184 0.950 . S
H210 C186 0.950 . S
H211 C187 0.949 . S
H212 C189 0.950 . S
H213 C191 0.950 . S
C214 C215 1.349 . S
C214 C216 1.327 . S
C214 H239 0.950 . S
C215 C214 1.349 . S
C215 C231 1.349 . S
C216 C214 1.327 . S
C216 C235 1.429 . S
C216 H240 0.950 . S
C217 C234 1.574 . S
C217 C236 1.368 . S
C217 H241 0.949 . S
H218 C222 0.949 . S
C219 C220 1.349 . S
C219 C221 1.327 . S
C219 H242 0.950 . S
C220 C219 1.349 . S
C220 C232 1.349 . S
C221 C219 1.327 . S
C221 C237 1.429 . S
C221 H243 0.950 . S
C222 H218 0.949 . S
C222 C230 1.574 . S
C222 C238 1.368 . S
H223 C231 0.950 . S
H224 C229 0.950 . S
H225 C230 0.949 . S
H226 C232 0.950 1_545 S
H227 C233 0.950 . S
H228 C234 0.949 . S
C229 H224 0.950 . S
C229 C231 1.327 . S
C229 C235 1.429 . S
C230 C222 1.574 . S
C230 H225 0.949 . S
C230 C236 1.368 . S
C231 C215 1.349 . S
C231 H223 0.950 . S
C231 C229 1.327 . S
C232 C220 1.349 . S
C232 H226 0.950 1_565 S
C232 C233 1.327 . S
C233 H227 0.950 . S
C233 C232 1.327 . S
C233 C237 1.429 . S
C234 C217 1.574 . S
C234 H228 0.949 . S
C234 C238 1.368 . S
C235 C216 1.429 . S
C235 C229 1.429 . S
C235 C236 1.523 . S
C236 C217 1.368 . S
C236 C230 1.368 . S
C236 C235 1.523 . S
C237 C221 1.429 . S
C237 C233 1.429 . S
C237 C238 1.523 . S
C238 C222 1.368 . S
C238 C234 1.368 . S
C238 C237 1.523 . S
H239 C214 0.950 . S
H240 C216 0.950 . S
H241 C217 0.949 . S
H242 C219 0.950 . S
H243 C221 0.950 . S
C244 C245 1.349 . S
C244 C246 1.327 . S
C244 H269 0.950 . S
C245 C244 1.349 . S
C245 C261 1.349 . S
C246 C244 1.327 . S
C246 C265 1.429 . S
C246 H270 0.950 . S
C247 C264 1.574 . S
C247 C266 1.368 . S
C247 H271 0.949 . S
H248 C252 0.949 . S
C249 C250 1.349 . S
C249 C251 1.327 . S
C249 H272 0.950 . S
C250 C249 1.349 . S
C250 C262 1.349 . S
C251 C249 1.327 . S
C251 C267 1.429 . S
C251 H273 0.950 . S
C252 H248 0.949 . S
C252 C260 1.574 . S
C252 C268 1.368 . S
H253 C261 0.950 . S
H254 C259 0.950 . S
H255 C260 0.949 . S
H256 C262 0.950 . S
H257 C263 0.950 . S
H258 C264 0.949 . S
C259 H254 0.950 . S
C259 C261 1.327 . S
C259 C265 1.429 . S
C260 C252 1.574 . S
C260 H255 0.949 . S
C260 C266 1.368 . S
C261 C245 1.349 . S
C261 H253 0.950 . S
C261 C259 1.327 . S
C262 C250 1.349 . S
C262 H256 0.950 . S
C262 C263 1.327 . S
C263 H257 0.950 . S
C263 C262 1.327 . S
C263 C267 1.429 . S
C264 C247 1.574 . S
C264 H258 0.949 . S
C264 C268 1.368 . S
C265 C246 1.429 . S
C265 C259 1.429 . S
C265 C266 1.523 . S
C266 C247 1.368 . S
C266 C260 1.368 . S
C266 C265 1.523 . S
C267 C251 1.429 . S
C267 C263 1.429 . S
C267 C268 1.523 . S
C268 C252 1.368 . S
C268 C264 1.368 . S
C268 C267 1.523 . S
H269 C244 0.950 . S
H270 C246 0.950 . S
H271 C247 0.949 . S
H272 C249 0.950 . S
H273 C251 0.950 . S
C274 C275 1.349 . S
C274 C276 1.327 . S
C274 H299 0.950 . S
C275 C274 1.349 . S
C275 C291 1.349 . S
C276 C274 1.327 . S
C276 C295 1.429 . S
C276 H300 0.950 . S
C277 C294 1.574 . S
C277 C296 1.368 . S
C277 H301 0.949 . S
H278 C282 0.949 . S
C279 C280 1.349 . S
C279 C281 1.327 1_455 S
C279 H302 0.950 . S
C280 C279 1.349 . S
C280 C292 1.349 1_455 S
C281 C279 1.327 1_655 S
C281 C297 1.429 . S
C281 H303 0.951 . S
C282 H278 0.949 . S
C282 C290 1.574 . S
C282 C298 1.368 . S
H283 C291 0.950 . S
H284 C289 0.950 . S
H285 C290 0.949 . S
H286 C292 0.950 . S
H287 C293 0.950 . S
H288 C294 0.949 . S
C289 H284 0.950 . S
C289 C291 1.327 . S
C289 C295 1.429 . S
C290 C282 1.574 . S
C290 H285 0.949 . S
C290 C296 1.368 . S
C291 C275 1.349 . S
C291 H283 0.950 . S
C291 C289 1.327 . S
C292 C280 1.349 1_655 S
C292 H286 0.950 . S
C292 C293 1.327 . S
C293 H287 0.950 . S
C293 C292 1.327 . S
C293 C297 1.429 . S
C294 C277 1.574 . S
C294 H288 0.949 . S
C294 C298 1.368 . S
C295 C276 1.429 . S
C295 C289 1.429 . S
C295 C296 1.523 . S
C296 C277 1.368 . S
C296 C290 1.368 . S
C296 C295 1.523 . S
C297 C281 1.429 . S
C297 C293 1.429 . S
C297 C298 1.523 . S
C298 C282 1.368 . S
C298 C294 1.368 . S
C298 C297 1.523 . S
H299 C274 0.950 . S
H300 C276 0.950 . S
H301 C277 0.949 . S
H302 C279 0.950 . S
H303 C281 0.951 . S
C304 C305 1.349 . S
C304 C306 1.327 . S
C304 H329 0.950 . S
C305 C304 1.349 . S
C305 C321 1.349 . S
C306 C304 1.327 . S
C306 C325 1.429 . S
C306 H330 0.950 . S
C307 C324 1.574 . S
C307 C326 1.368 . S
C307 H331 0.949 . S
H308 C312 0.949 . S
C309 C310 1.349 . S
C309 C311 1.327 . S
C309 H332 0.950 . S
C310 C309 1.349 . S
C310 C322 1.349 . S
C311 C309 1.327 . S
C311 C327 1.429 . S
C311 H333 0.950 . S
C312 H308 0.949 . S
C312 C320 1.574 . S
C312 C328 1.368 . S
H313 C321 0.950 . S
H314 C319 0.950 . S
H315 C320 0.949 . S
H316 C322 0.950 . S
H317 C323 0.950 . S
H318 C324 0.949 . S
C319 H314 0.950 . S
C319 C321 1.327 . S
C319 C325 1.429 . S
C320 C312 1.574 . S
C320 H315 0.949 . S
C320 C326 1.368 . S
C321 C305 1.349 . S
C321 H313 0.950 . S
C321 C319 1.327 . S
C322 C310 1.349 . S
C322 H316 0.950 . S
C322 C323 1.327 . S
C323 H317 0.950 . S
C323 C322 1.327 . S
C323 C327 1.429 . S
C324 C307 1.574 . S
C324 H318 0.949 . S
C324 C328 1.368 . S
C325 C306 1.429 . S
C325 C319 1.429 . S
C325 C326 1.523 . S
C326 C307 1.368 . S
C326 C320 1.368 . S
C326 C325 1.523 . S
C327 C311 1.429 . S
C327 C323 1.429 . S
C327 C328 1.523 . S
C328 C312 1.368 . S
C328 C324 1.368 . S
C328 C327 1.523 . S
H329 C304 0.950 . S
H330 C306 0.950 . S
H331 C307 0.949 . S
H332 C309 0.950 . S
H333 C311 0.950 . S
C334 C335 1.349 . S
C334 C336 1.327 . S
C334 H359 0.950 . S
C335 C334 1.349 . S
C335 C351 1.349 . S
C336 C334 1.327 . S
C336 C355 1.429 . S
C336 H360 0.950 . S
C337 C354 1.574 . S
C337 C356 1.368 . S
C337 H361 0.949 . S
H338 C342 0.949 . S
C339 C340 1.349 . S
C339 C341 1.327 . S
C339 H362 0.950 1_565 S
C340 C339 1.349 . S
C340 C352 1.349 . S
C341 C339 1.327 . S
C341 C357 1.429 . S
C341 H363 0.950 . S
C342 H338 0.949 . S
C342 C350 1.574 . S
C342 C358 1.368 . S
H343 C351 0.950 . S
H344 C349 0.950 . S
H345 C350 0.949 . S
H346 C352 0.950 . S
H347 C353 0.950 . S
H348 C354 0.949 . S
C349 H344 0.950 . S
C349 C351 1.327 . S
C349 C355 1.429 . S
C350 C342 1.574 . S
C350 H345 0.949 . S
C350 C356 1.368 . S
C351 C335 1.349 . S
C351 H343 0.950 . S
C351 C349 1.327 . S
C352 C340 1.349 . S
C352 H346 0.950 . S
C352 C353 1.327 . S
C353 H347 0.950 . S
C353 C352 1.327 . S
C353 C357 1.429 . S
C354 C337 1.574 . S
C354 H348 0.949 . S
C354 C358 1.368 . S
C355 C336 1.429 . S
C355 C349 1.429 . S
C355 C356 1.523 . S
C356 C337 1.368 . S
C356 C350 1.368 . S
C356 C355 1.523 . S
C357 C341 1.429 . S
C357 C353 1.429 . S
C357 C358 1.523 . S
C358 C342 1.368 . S
C358 C354 1.368 . S
C358 C357 1.523 . S
H359 C334 0.950 . S
H360 C336 0.950 . S
H361 C337 0.949 . S
H362 C339 0.950 1_545 S
H363 C341 0.950 . S
C364 C365 1.349 . S
C364 C366 1.327 . S
C364 H389 0.950 . S
C365 C364 1.349 . S
C365 C381 1.349 . S
C366 C364 1.327 . S
C366 C385 1.429 . S
C366 H390 0.950 . S
C367 C384 1.574 . S
C367 C386 1.368 . S
C367 H391 0.949 . S
H368 C372 0.949 . S
C369 C370 1.349 . S
C369 C371 1.327 . S
C369 H392 0.950 . S
C370 C369 1.349 . S
C370 C382 1.349 . S
C371 C369 1.327 . S
C371 C387 1.429 . S
C371 H393 0.950 . S
C372 H368 0.949 . S
C372 C380 1.574 . S
C372 C388 1.368 . S
H373 C381 0.950 . S
H374 C379 0.950 . S
H375 C380 0.949 . S
H376 C382 0.950 . S
H377 C383 0.950 . S
H378 C384 0.949 . S
C379 H374 0.950 . S
C379 C381 1.327 . S
C379 C385 1.429 . S
C380 C372 1.574 . S
C380 H375 0.949 . S
C380 C386 1.368 . S
C381 C365 1.349 . S
C381 H373 0.950 . S
C381 C379 1.327 . S
C382 C370 1.349 . S
C382 H376 0.950 . S
C382 C383 1.327 . S
C383 H377 0.950 . S
C383 C382 1.327 . S
C383 C387 1.429 . S
C384 C367 1.574 . S
C384 H378 0.949 . S
C384 C388 1.368 . S
C385 C366 1.429 . S
C385 C379 1.429 . S
C385 C386 1.523 . S
C386 C367 1.368 . S
C386 C380 1.368 . S
C386 C385 1.523 . S
C387 C371 1.429 . S
C387 C383 1.429 . S
C387 C388 1.523 . S
C388 C372 1.368 . S
C388 C384 1.368 . S
C388 C387 1.523 . S
H389 C364 0.950 . S
H390 C366 0.950 . S
H391 C367 0.949 . S
H392 C369 0.950 . S
H393 C371 0.950 . S
C394 C395 1.349 . S
C394 C396 1.327 . S
C394 H419 0.950 . S
C395 C394 1.349 . S
C395 C411 1.349 . S
C396 C394 1.327 . S
C396 C415 1.429 . S
C396 H420 0.950 . S
C397 C414 1.574 . S
C397 C416 1.368 . S
C397 H421 0.949 . S
H398 C402 0.949 . S
C399 C400 1.349 . S
C399 C401 1.327 . S
C399 H422 0.950 . S
C400 C399 1.349 . S
C400 C412 1.349 . S
C401 C399 1.327 . S
C401 C417 1.429 . S
C401 H423 0.950 . S
C402 H398 0.949 . S
C402 C410 1.574 . S
C402 C418 1.368 . S
H403 C411 0.950 . S
H404 C409 0.950 . S
H405 C410 0.949 . S
H406 C412 0.950 . S
H407 C413 0.950 . S
H408 C414 0.949 . S
C409 H404 0.950 . S
C409 C411 1.327 . S
C409 C415 1.429 . S
C410 C402 1.574 . S
C410 H405 0.949 . S
C410 C416 1.368 . S
C411 C395 1.349 . S
C411 H403 0.950 . S
C411 C409 1.327 . S
C412 C400 1.349 . S
C412 H406 0.950 . S
C412 C413 1.327 . S
C413 H407 0.950 . S
C413 C412 1.327 . S
C413 C417 1.429 . S
C414 C397 1.574 . S
C414 H408 0.949 . S
C414 C418 1.368 . S
C415 C396 1.429 . S
C415 C409 1.429 . S
C415 C416 1.523 . S
C416 C397 1.368 . S
C416 C410 1.368 . S
C416 C415 1.523 . S
C417 C401 1.429 . S
C417 C413 1.429 . S
C417 C418 1.523 . S
C418 C402 1.368 . S
C418 C414 1.368 . S
C418 C417 1.523 . S
H419 C394 0.950 . S
H420 C396 0.950 . S
H421 C397 0.949 . S
H422 C399 0.950 . S
H423 C401 0.950 . S
C424 C425 1.349 . S
C424 C426 1.327 . S
C424 H449 0.950 . S
C425 C424 1.349 . S
C425 C441 1.349 . S
C426 C424 1.327 . S
C426 C445 1.429 . S
C426 H450 0.950 . S
C427 C444 1.574 . S
C427 C446 1.368 . S
C427 H451 0.949 . S
H428 C432 0.949 . S
C429 C430 1.349 . S
C429 C431 1.327 . S
C429 H452 0.950 . S
C430 C429 1.349 . S
C430 C442 1.349 . S
C431 C429 1.327 . S
C431 C447 1.429 . S
C431 H453 0.950 . S
C432 H428 0.949 . S
C432 C440 1.574 . S
C432 C448 1.368 . S
H433 C441 0.950 . S
H434 C439 0.950 . S
H435 C440 0.949 . S
H436 C442 0.950 . S
H437 C443 0.950 . S
H438 C444 0.949 . S
C439 H434 0.950 . S
C439 C441 1.327 . S
C439 C445 1.429 . S
C440 C432 1.574 . S
C440 H435 0.949 . S
C440 C446 1.368 . S
C441 C425 1.349 . S
C441 H433 0.950 . S
C441 C439 1.327 . S
C442 C430 1.349 . S
C442 H436 0.950 . S
C442 C443 1.327 . S
C443 H437 0.950 . S
C443 C442 1.327 . S
C443 C447 1.429 . S
C444 C427 1.574 . S
C444 H438 0.949 . S
C444 C448 1.368 . S
C445 C426 1.429 . S
C445 C439 1.429 . S
C445 C446 1.523 . S
C446 C427 1.368 . S
C446 C440 1.368 . S
C446 C445 1.523 . S
C447 C431 1.429 . S
C447 C443 1.429 . S
C447 C448 1.523 . S
C448 C432 1.368 . S
C448 C444 1.368 . S
C448 C447 1.523 . S
H449 C424 0.950 . S
H450 C426 0.950 . S
H451 C427 0.949 . S
H452 C429 0.950 . S
H453 C431 0.950 . S
C454 C455 1.349 . S
C454 C456 1.327 . S
C454 H479 0.950 . S
C455 C454 1.349 . S
C455 C471 1.349 . S
C456 C454 1.327 . S
C456 C475 1.429 . S
C456 H480 0.950 . S
C457 C474 1.574 . S
C457 C476 1.368 . S
C457 H481 0.949 . S
H458 C462 0.949 . S
C459 C460 1.349 . S
C459 C461 1.327 . S
C459 H482 0.950 . S
C460 C459 1.349 . S
C460 C472 1.349 . S
C461 C459 1.327 . S
C461 C477 1.429 . S
C461 H483 0.950 . S
C462 H458 0.949 . S
C462 C470 1.574 . S
C462 C478 1.368 . S
H463 C471 0.950 . S
H464 C469 0.950 . S
H465 C470 0.949 . S
H466 C472 0.950 . S
H467 C473 0.950 . S
H468 C474 0.949 . S
C469 H464 0.950 . S
C469 C471 1.327 . S
C469 C475 1.429 . S
C470 C462 1.574 . S
C470 H465 0.949 . S
C470 C476 1.368 . S
C471 C455 1.349 . S
C471 H463 0.950 . S
C471 C469 1.327 . S
C472 C460 1.349 . S
C472 H466 0.950 . S
C472 C473 1.327 . S
C473 H467 0.950 . S
C473 C472 1.327 . S
C473 C477 1.429 . S
C474 C457 1.574 . S
C474 H468 0.949 . S
C474 C478 1.368 . S
C475 C456 1.429 . S
C475 C469 1.429 . S
C475 C476 1.523 . S
C476 C457 1.368 . S
C476 C470 1.368 . S
C476 C475 1.523 . S
C477 C461 1.429 . S
C477 C473 1.429 . S
C477 C478 1.523 . S
C478 C462 1.368 . S
C478 C474 1.368 . S
C478 C477 1.523 . S
H479 C454 0.950 . S
H480 C456 0.950 . S
H481 C457 0.949 . S
H482 C459 0.950 . S
H483 C461 0.950 . S
C484 C485 1.349 . S
C484 C486 1.327 . S
C484 H509 0.950 . S
C485 C484 1.349 . S
C485 C501 1.349 . S
C486 C484 1.327 . S
C486 C505 1.429 . S
C486 H510 0.950 . S
C487 C504 1.574 . S
C487 C506 1.368 . S
C487 H511 0.949 . S
H488 C492 0.949 . S
C489 C490 1.349 . S
C489 C491 1.327 . S
C489 H512 0.950 . S
C490 C489 1.349 . S
C490 C502 1.349 . S
C491 C489 1.327 . S
C491 C507 1.429 . S
C491 H513 0.950 . S
C492 H488 0.949 . S
C492 C500 1.574 . S
C492 C508 1.368 . S
H493 C501 0.950 . S
H494 C499 0.950 . S
H495 C500 0.949 . S
H496 C502 0.950 . S
H497 C503 0.950 . S
H498 C504 0.949 . S
C499 H494 0.950 . S
C499 C501 1.327 . S
C499 C505 1.429 . S
C500 C492 1.574 . S
C500 H495 0.949 . S
C500 C506 1.368 . S
C501 C485 1.349 . S
C501 H493 0.950 . S
C501 C499 1.327 . S
C502 C490 1.349 . S
C502 H496 0.950 . S
C502 C503 1.327 . S
C503 H497 0.950 . S
C503 C502 1.327 . S
C503 C507 1.429 . S
C504 C487 1.574 . S
C504 H498 0.949 . S
C504 C508 1.368 . S
C505 C486 1.429 . S
C505 C499 1.429 . S
C505 C506 1.523 . S
C506 C487 1.368 . S
C506 C500 1.368 . S
C506 C505 1.523 . S
C507 C491 1.429 . S
C507 C503 1.429 . S
C507 C508 1.523 . S
C508 C492 1.368 . S
C508 C504 1.368 . S
C508 C507 1.523 . S
H509 C484 0.950 . S
H510 C486 0.950 . S
H511 C487 0.949 . S
H512 C489 0.950 . S
H513 C491 0.950 . S
C514 C515 1.349 . S
C514 C516 1.327 . S
C514 H539 0.950 . S
C515 C514 1.349 . S
C515 C531 1.349 . S
C516 C514 1.327 . S
C516 C535 1.429 . S
C516 H540 0.950 . S
C517 C534 1.574 . S
C517 C536 1.368 . S
C517 H541 0.949 . S
H518 C522 0.949 . S
C519 C520 1.349 . S
C519 C521 1.327 . S
C519 H542 0.950 . S
C520 C519 1.349 . S
C520 C532 1.349 . S
C521 C519 1.327 . S
C521 C537 1.429 . S
C521 H543 0.950 . S
C522 H518 0.949 . S
C522 C530 1.574 . S
C522 C538 1.368 . S
H523 C531 0.950 . S
H524 C529 0.950 . S
H525 C530 0.949 . S
H526 C532 0.950 . S
H527 C533 0.950 . S
H528 C534 0.949 . S
C529 H524 0.950 . S
C529 C531 1.327 . S
C529 C535 1.429 . S
C530 C522 1.574 . S
C530 H525 0.949 . S
C530 C536 1.368 . S
C531 C515 1.349 . S
C531 H523 0.950 . S
C531 C529 1.327 . S
C532 C520 1.349 . S
C532 H526 0.950 . S
C532 C533 1.327 . S
C533 H527 0.950 . S
C533 C532 1.327 . S
C533 C537 1.429 . S
C534 C517 1.574 . S
C534 H528 0.949 . S
C534 C538 1.368 . S
C535 C516 1.429 . S
C535 C529 1.429 . S
C535 C536 1.523 . S
C536 C517 1.368 . S
C536 C530 1.368 . S
C536 C535 1.523 . S
C537 C521 1.429 . S
C537 C533 1.429 . S
C537 C538 1.523 . S
C538 C522 1.368 . S
C538 C534 1.368 . S
C538 C537 1.523 . S
H539 C514 0.950 . S
H540 C516 0.950 . S
H541 C517 0.949 . S
H542 C519 0.950 . S
H543 C521 0.950 . S
C544 C545 1.349 . S
C544 C546 1.327 . S
C544 H569 0.950 . S
C545 C544 1.349 . S
C545 C561 1.349 . S
C546 C544 1.327 . S
C546 C565 1.429 . S
C546 H570 0.950 . S
C547 C564 1.574 . S
C547 C566 1.368 . S
C547 H571 0.949 . S
H548 C552 0.949 . S
C549 C550 1.349 . S
C549 C551 1.327 . S
C549 H572 0.953 1_655 S
C550 C549 1.349 . S
C550 C562 1.349 . S
C551 C549 1.327 . S
C551 C567 1.429 . S
C551 H573 0.950 . S
C552 H548 0.949 . S
C552 C560 1.574 . S
C552 C568 1.368 . S
H553 C561 0.950 . S
H554 C559 0.950 . S
H555 C560 0.949 . S
H556 C562 0.950 . S
H557 C563 0.950 . S
H558 C564 0.949 . S
C559 H554 0.950 . S
C559 C561 1.327 . S
C559 C565 1.429 . S
C560 C552 1.574 . S
C560 H555 0.949 . S
C560 C566 1.368 . S
C561 C545 1.349 . S
C561 H553 0.950 . S
C561 C559 1.327 . S
C562 C550 1.349 . S
C562 H556 0.950 . S
C562 C563 1.327 . S
C563 H557 0.950 . S
C563 C562 1.327 . S
C563 C567 1.429 . S
C564 C547 1.574 . S
C564 H558 0.949 . S
C564 C568 1.368 . S
C565 C546 1.429 . S
C565 C559 1.429 . S
C565 C566 1.523 . S
C566 C547 1.368 . S
C566 C560 1.368 . S
C566 C565 1.523 . S
C567 C551 1.429 . S
C567 C563 1.429 . S
C567 C568 1.523 . S
C568 C552 1.368 . S
C568 C564 1.368 . S
C568 C567 1.523 . S
H569 C544 0.950 . S
H570 C546 0.950 . S
H571 C547 0.949 . S
H572 C549 0.953 1_455 S
H573 C551 0.950 . S
C574 C575 1.349 . S
C574 C576 1.327 . S
C574 H599 0.950 . S
C575 C574 1.349 . S
C575 C591 1.349 . S
C576 C574 1.327 . S
C576 C595 1.429 . S
C576 H600 0.950 . S
C577 C594 1.574 . S
C577 C596 1.368 . S
C577 H601 0.949 . S
H578 C582 0.949 . S
C579 C580 1.349 . S
C579 C581 1.327 . S
C579 H602 0.950 . S
C580 C579 1.349 . S
C580 C592 1.349 . S
C581 C579 1.327 . S
C581 C597 1.429 . S
C581 H603 0.950 . S
C582 H578 0.949 . S
C582 C590 1.574 . S
C582 C598 1.368 . S
H583 C591 0.950 . S
H584 C589 0.950 . S
H585 C590 0.949 . S
H586 C592 0.950 . S
H587 C593 0.950 . S
H588 C594 0.949 . S
C589 H584 0.950 . S
C589 C591 1.327 . S
C589 C595 1.429 . S
C590 C582 1.574 . S
C590 H585 0.949 . S
C590 C596 1.368 . S
C591 C575 1.349 . S
C591 H583 0.950 . S
C591 C589 1.327 . S
C592 C580 1.349 . S
C592 H586 0.950 . S
C592 C593 1.327 . S
C593 H587 0.950 . S
C593 C592 1.327 . S
C593 C597 1.429 . S
C594 C577 1.574 . S
C594 H588 0.949 . S
C594 C598 1.368 . S
C595 C576 1.429 . S
C595 C589 1.429 . S
C595 C596 1.523 . S
C596 C577 1.368 . S
C596 C590 1.368 . S
C596 C595 1.523 . S
C597 C581 1.429 . S
C597 C593 1.429 . S
C597 C598 1.523 . S
C598 C582 1.368 . S
C598 C594 1.368 . S
C598 C597 1.523 . S
H599 C574 0.950 . S
H600 C576 0.950 . S
H601 C577 0.949 . S
H602 C579 0.950 . S
H603 C581 0.950 . S
C604 C605 1.349 . S
C604 C606 1.327 . S
C604 H629 0.950 . S
C605 C604 1.349 . S
C605 C621 1.349 . S
C606 C604 1.327 . S
C606 C625 1.429 . S
C606 H630 0.950 . S
C607 C624 1.574 . S
C607 C626 1.368 . S
C607 H631 0.949 . S
H608 C612 0.949 . S
C609 C610 1.349 . S
C609 C611 1.327 . S
C609 H632 0.950 . S
C610 C609 1.349 . S
C610 C622 1.349 . S
C611 C609 1.327 . S
C611 C627 1.429 . S
C611 H633 0.950 . S
C612 H608 0.949 . S
C612 C620 1.574 . S
C612 C628 1.368 . S
H613 C621 0.950 . S
H614 C619 0.950 . S
H615 C620 0.949 . S
H616 C622 0.950 . S
H617 C623 0.950 . S
H618 C624 0.949 . S
C619 H614 0.950 . S
C619 C621 1.327 . S
C619 C625 1.429 . S
C620 C612 1.574 . S
C620 H615 0.949 . S
C620 C626 1.368 . S
C621 C605 1.349 . S
C621 H613 0.950 . S
C621 C619 1.327 . S
C622 C610 1.349 . S
C622 H616 0.950 . S
C622 C623 1.327 . S
C623 H617 0.950 . S
C623 C622 1.327 . S
C623 C627 1.429 . S
C624 C607 1.574 . S
C624 H618 0.949 . S
C624 C628 1.368 . S
C625 C606 1.429 . S
C625 C619 1.429 . S
C625 C626 1.523 . S
C626 C607 1.368 . S
C626 C620 1.368 . S
C626 C625 1.523 . S
C627 C611 1.429 . S
C627 C623 1.429 . S
C627 C628 1.523 . S
C628 C612 1.368 . S
C628 C624 1.368 . S
C628 C627 1.523 . S
H629 C604 0.950 . S
H630 C606 0.950 . S
H631 C607 0.949 . S
H632 C609 0.950 . S
H633 C611 0.950 . S
C634 C635 1.349 . S
C634 C636 1.327 . S
C634 H659 0.950 . S
C635 C634 1.349 . S
C635 C651 1.349 . S
C636 C634 1.327 . S
C636 C655 1.429 . S
C636 H660 0.950 . S
C637 C654 1.574 . S
C637 C656 1.368 . S
C637 H661 0.949 . S
H638 C642 0.949 . S
C639 C640 1.349 . S
C639 C641 1.327 . S
C639 H662 0.950 . S
C640 C639 1.349 . S
C640 C652 1.349 . S
C641 C639 1.327 . S
C641 C657 1.429 . S
C641 H663 0.950 . S
C642 H638 0.949 . S
C642 C650 1.574 . S
C642 C658 1.368 . S
H643 C651 0.950 . S
H644 C649 0.950 . S
H645 C650 0.949 . S
H646 C652 0.950 . S
H647 C653 0.950 . S
H648 C654 0.949 . S
C649 H644 0.950 . S
C649 C651 1.327 . S
C649 C655 1.429 . S
C650 C642 1.574 . S
C650 H645 0.949 . S
C650 C656 1.368 . S
C651 C635 1.349 . S
C651 H643 0.950 . S
C651 C649 1.327 . S
C652 C640 1.349 . S
C652 H646 0.950 . S
C652 C653 1.327 . S
C653 H647 0.950 . S
C653 C652 1.327 . S
C653 C657 1.429 . S
C654 C637 1.574 . S
C654 H648 0.949 . S
C654 C658 1.368 . S
C655 C636 1.429 . S
C655 C649 1.429 . S
C655 C656 1.523 . S
C656 C637 1.368 . S
C656 C650 1.368 . S
C656 C655 1.523 . S
C657 C641 1.429 . S
C657 C653 1.429 . S
C657 C658 1.523 . S
C658 C642 1.368 . S
C658 C654 1.368 . S
C658 C657 1.523 . S
H659 C634 0.950 . S
H660 C636 0.950 . S
H661 C637 0.949 . S
H662 C639 0.950 . S
H663 C641 0.950 . S
C664 C665 1.349 . S
C664 C666 1.327 . S
C664 H689 0.950 . S
C665 C664 1.349 . S
C665 C681 1.349 . S
C666 C664 1.327 . S
C666 C685 1.429 . S
C666 H690 0.950 . S
C667 C684 1.574 . S
C667 C686 1.368 . S
C667 H691 0.949 . S
H668 C672 0.949 . S
C669 C670 1.349 . S
C669 C671 1.327 . S
C669 H692 0.950 . S
C670 C669 1.349 . S
C670 C682 1.349 . S
C671 C669 1.327 . S
C671 C687 1.429 . S
C671 H693 0.950 . S
C672 H668 0.949 . S
C672 C680 1.574 . S
C672 C688 1.368 . S
H673 C681 0.950 . S
H674 C679 0.950 . S
H675 C680 0.949 . S
H676 C682 0.950 . S
H677 C683 0.950 . S
H678 C684 0.949 . S
C679 H674 0.950 . S
C679 C681 1.327 . S
C679 C685 1.429 . S
C680 C672 1.574 . S
C680 H675 0.949 . S
C680 C686 1.368 . S
C681 C665 1.349 . S
C681 H673 0.950 . S
C681 C679 1.327 . S
C682 C670 1.349 . S
C682 H676 0.950 . S
C682 C683 1.327 . S
C683 H677 0.950 . S
C683 C682 1.327 . S
C683 C687 1.429 . S
C684 C667 1.574 . S
C684 H678 0.949 . S
C684 C688 1.368 . S
C685 C666 1.429 . S
C685 C679 1.429 . S
C685 C686 1.523 . S
C686 C667 1.368 . S
C686 C680 1.368 . S
C686 C685 1.523 . S
C687 C671 1.429 . S
C687 C683 1.429 . S
C687 C688 1.523 . S
C688 C672 1.368 . S
C688 C684 1.368 . S
C688 C687 1.523 . S
H689 C664 0.950 . S
H690 C666 0.950 . S
H691 C667 0.949 . S
H692 C669 0.950 . S
H693 C671 0.950 . S
C694 C695 1.349 . S
C694 C696 1.327 . S
C694 H719 0.950 . S
C695 C694 1.349 . S
C695 C711 1.349 . S
C696 C694 1.327 . S
C696 C715 1.429 . S
C696 H720 0.950 . S
C697 C714 1.574 . S
C697 C716 1.368 . S
C697 H721 0.949 . S
H698 C702 0.949 . S
C699 C700 1.349 . S
C699 C701 1.327 . S
C699 H722 0.950 . S
C700 C699 1.349 . S
C700 C712 1.349 . S
C701 C699 1.327 . S
C701 C717 1.429 . S
C701 H723 0.950 . S
C702 H698 0.949 . S
C702 C710 1.574 . S
C702 C718 1.368 . S
H703 C711 0.950 . S
H704 C709 0.950 . S
H705 C710 0.949 . S
H706 C712 0.950 . S
H707 C713 0.950 . S
H708 C714 0.949 . S
C709 H704 0.950 . S
C709 C711 1.327 . S
C709 C715 1.429 . S
C710 C702 1.574 . S
C710 H705 0.949 . S
C710 C716 1.368 . S
C711 C695 1.349 . S
C711 H703 0.950 . S
C711 C709 1.327 . S
C712 C700 1.349 . S
C712 H706 0.950 . S
C712 C713 1.327 . S
C713 H707 0.950 . S
C713 C712 1.327 . S
C713 C717 1.429 . S
C714 C697 1.574 . S
C714 H708 0.949 . S
C714 C718 1.368 . S
C715 C696 1.429 . S
C715 C709 1.429 . S
C715 C716 1.523 . S
C716 C697 1.368 . S
C716 C710 1.368 . S
C716 C715 1.523 . S
C717 C701 1.429 . S
C717 C713 1.429 . S
C717 C718 1.523 . S
C718 C702 1.368 . S
C718 C714 1.368 . S
C718 C717 1.523 . S
H719 C694 0.950 . S
H720 C696 0.950 . S
H721 C697 0.949 . S
H722 C699 0.950 . S
H723 C701 0.950 . S
C724 C725 1.349 . S
C724 C726 1.327 . S
C724 H749 0.950 . S
C725 C724 1.349 . S
C725 C741 1.349 . S
C726 C724 1.327 . S
C726 C745 1.429 . S
C726 H750 0.950 . S
C727 C744 1.574 . S
C727 C746 1.368 . S
C727 H751 0.949 . S
H728 C732 0.949 . S
C729 C730 1.349 . S
C729 C731 1.327 . S
C729 H752 0.950 . S
C730 C729 1.349 . S
C730 C742 1.349 . S
C731 C729 1.327 . S
C731 C747 1.429 . S
C731 H753 0.950 . S
C732 H728 0.949 . S
C732 C740 1.574 . S
C732 C748 1.368 . S
H733 C741 0.950 . S
H734 C739 0.950 . S
H735 C740 0.949 . S
H736 C742 0.950 . S
H737 C743 0.950 . S
H738 C744 0.949 . S
C739 H734 0.950 . S
C739 C741 1.327 . S
C739 C745 1.429 . S
C740 C732 1.574 . S
C740 H735 0.949 . S
C740 C746 1.368 . S
C741 C725 1.349 . S
C741 H733 0.950 . S
C741 C739 1.327 . S
C742 C730 1.349 . S
C742 H736 0.950 . S
C742 C743 1.327 . S
C743 H737 0.950 . S
C743 C742 1.327 . S
C743 C747 1.429 . S
C744 C727 1.574 . S
C744 H738 0.949 . S
C744 C748 1.368 . S
C745 C726 1.429 . S
C745 C739 1.429 . S
C745 C746 1.523 . S
C746 C727 1.368 . S
C746 C740 1.368 . S
C746 C745 1.523 . S
C747 C731 1.429 . S
C747 C743 1.429 . S
C747 C748 1.523 . S
C748 C732 1.368 . S
C748 C744 1.368 . S
C748 C747 1.523 . S
H749 C724 0.950 . S
H750 C726 0.950 . S
H751 C727 0.949 . S
H752 C729 0.950 . S
H753 C731 0.950 . S
C754 C755 1.349 . S
C754 C756 1.327 . S
C754 H779 0.950 . S
C755 C754 1.349 . S
C755 C771 1.349 . S
C756 C754 1.327 . S
C756 C775 1.429 . S
C756 H780 0.950 . S
C757 C774 1.574 . S
C757 C776 1.368 . S
C757 H781 0.949 . S
H758 C762 0.949 . S
C759 C760 1.349 . S
C759 C761 1.327 . S
C759 H782 0.950 . S
C760 C759 1.349 . S
C760 C772 1.349 . S
C761 C759 1.327 . S
C761 C777 1.429 . S
C761 H783 0.950 . S
C762 H758 0.949 . S
C762 C770 1.574 . S
C762 C778 1.368 . S
H763 C771 0.950 . S
H764 C769 0.950 . S
H765 C770 0.949 . S
H766 C772 0.950 . S
H767 C773 0.950 . S
H768 C774 0.949 . S
C769 H764 0.950 . S
C769 C771 1.327 . S
C769 C775 1.429 . S
C770 C762 1.574 . S
C770 H765 0.949 . S
C770 C776 1.368 . S
C771 C755 1.349 . S
C771 H763 0.950 . S
C771 C769 1.327 . S
C772 C760 1.349 . S
C772 H766 0.950 . S
C772 C773 1.327 . S
C773 H767 0.950 . S
C773 C772 1.327 . S
C773 C777 1.429 . S
C774 C757 1.574 . S
C774 H768 0.949 . S
C774 C778 1.368 . S
C775 C756 1.429 . S
C775 C769 1.429 . S
C775 C776 1.523 . S
C776 C757 1.368 . S
C776 C770 1.368 . S
C776 C775 1.523 . S
C777 C761 1.429 . S
C777 C773 1.429 . S
C777 C778 1.523 . S
C778 C762 1.368 . S
C778 C774 1.368 . S
C778 C777 1.523 . S
H779 C754 0.950 . S
H780 C756 0.950 . S
H781 C757 0.949 . S
H782 C759 0.950 . S
H783 C761 0.950 . S
C784 C785 1.349 . S
C784 C786 1.327 . S
C784 H809 0.950 . S
C785 C784 1.349 . S
C785 C801 1.349 . S
C786 C784 1.327 . S
C786 C805 1.429 . S
C786 H810 0.950 . S
C787 C804 1.574 . S
C787 C806 1.368 . S
C787 H811 0.949 . S
H788 C792 0.949 . S
C789 C790 1.349 . S
C789 C791 1.327 . S
C789 H812 0.950 . S
C790 C789 1.349 . S
C790 C802 1.349 . S
C791 C789 1.327 . S
C791 C807 1.429 . S
C791 H813 0.950 . S
C792 H788 0.949 . S
C792 C800 1.574 . S
C792 C808 1.368 . S
H793 C801 0.950 . S
H794 C799 0.950 . S
H795 C800 0.949 . S
H796 C802 0.950 . S
H797 C803 0.950 . S
H798 C804 0.949 . S
C799 H794 0.950 . S
C799 C801 1.327 . S
C799 C805 1.429 . S
C800 C792 1.574 . S
C800 H795 0.949 . S
C800 C806 1.368 . S
C801 C785 1.349 . S
C801 H793 0.950 . S
C801 C799 1.327 . S
C802 C790 1.349 . S
C802 H796 0.950 . S
C802 C803 1.327 . S
C803 H797 0.950 . S
C803 C802 1.327 . S
C803 C807 1.429 . S
C804 C787 1.574 . S
C804 H798 0.949 . S
C804 C808 1.368 . S
C805 C786 1.429 . S
C805 C799 1.429 . S
C805 C806 1.523 . S
C806 C787 1.368 . S
C806 C800 1.368 . S
C806 C805 1.523 . S
C807 C791 1.429 . S
C807 C803 1.429 . S
C807 C808 1.523 . S
C808 C792 1.368 . S
C808 C804 1.368 . S
C808 C807 1.523 . S
H809 C784 0.950 . S
H810 C786 0.950 . S
H811 C787 0.949 . S
H812 C789 0.950 . S
H813 C791 0.950 . S
C814 C815 1.349 . S
C814 C816 1.327 . S
C814 H839 0.950 . S
C815 C814 1.349 . S
C815 C831 1.349 . S
C816 C814 1.327 . S
C816 C835 1.429 . S
C816 H840 0.950 . S
C817 C834 1.574 . S
C817 C836 1.368 . S
C817 H841 0.949 . S
H818 C822 0.949 . S
C819 C820 1.349 . S
C819 C821 1.327 . S
C819 H842 0.950 . S
C820 C819 1.349 . S
C820 C832 1.349 . S
C821 C819 1.327 . S
C821 C837 1.429 . S
C821 H843 0.950 . S
C822 H818 0.949 . S
C822 C830 1.574 . S
C822 C838 1.368 . S
H823 C831 0.950 . S
H824 C829 0.950 . S
H825 C830 0.949 . S
H826 C832 0.950 . S
H827 C833 0.950 . S
H828 C834 0.949 . S
C829 H824 0.950 . S
C829 C831 1.327 . S
C829 C835 1.429 . S
C830 C822 1.574 . S
C830 H825 0.949 . S
C830 C836 1.368 . S
C831 C815 1.349 . S
C831 H823 0.950 . S
C831 C829 1.327 . S
C832 C820 1.349 . S
C832 H826 0.950 . S
C832 C833 1.327 . S
C833 H827 0.950 . S
C833 C832 1.327 . S
C833 C837 1.429 . S
C834 C817 1.574 . S
C834 H828 0.949 . S
C834 C838 1.368 . S
C835 C816 1.429 . S
C835 C829 1.429 . S
C835 C836 1.523 . S
C836 C817 1.368 . S
C836 C830 1.368 . S
C836 C835 1.523 . S
C837 C821 1.429 . S
C837 C833 1.429 . S
C837 C838 1.523 . S
C838 C822 1.368 . S
C838 C834 1.368 . S
C838 C837 1.523 . S
H839 C814 0.950 . S
H840 C816 0.950 . S
H841 C817 0.949 . S
H842 C819 0.950 . S
H843 C821 0.950 . S
C844 C845 1.349 . S
C844 C846 1.327 . S
C844 H869 0.950 . S
C845 C844 1.349 . S
C845 C861 1.349 . S
C846 C844 1.327 . S
C846 C865 1.429 . S
C846 H870 0.950 . S
C847 C864 1.574 . S
C847 C866 1.368 . S
C847 H871 0.949 . S
H848 C852 0.949 . S
C849 C850 1.349 . S
C849 C851 1.327 . S
C849 H872 0.950 . S
C850 C849 1.349 . S
C850 C862 1.349 . S
C851 C849 1.327 . S
C851 C867 1.429 . S
C851 H873 0.950 . S
C852 H848 0.949 . S
C852 C860 1.574 . S
C852 C868 1.368 . S
H853 C861 0.950 . S
H854 C859 0.950 . S
H855 C860 0.949 . S
H856 C862 0.950 . S
H857 C863 0.950 . S
H858 C864 0.949 . S
C859 H854 0.950 . S
C859 C861 1.327 . S
C859 C865 1.429 . S
C860 C852 1.574 . S
C860 H855 0.949 . S
C860 C866 1.368 . S
C861 C845 1.349 . S
C861 H853 0.950 . S
C861 C859 1.327 . S
C862 C850 1.349 . S
C862 H856 0.950 . S
C862 C863 1.327 . S
C863 H857 0.950 . S
C863 C862 1.327 . S
C863 C867 1.429 . S
C864 C847 1.574 . S
C864 H858 0.949 . S
C864 C868 1.368 . S
C865 C846 1.429 . S
C865 C859 1.429 . S
C865 C866 1.523 . S
C866 C847 1.368 . S
C866 C860 1.368 . S
C866 C865 1.523 . S
C867 C851 1.429 . S
C867 C863 1.429 . S
C867 C868 1.523 . S
C868 C852 1.368 . S
C868 C864 1.368 . S
C868 C867 1.523 . S
H869 C844 0.950 . S
H870 C846 0.950 . S
H871 C847 0.949 . S
H872 C849 0.950 . S
H873 C851 0.950 . S
C874 C875 1.349 . S
C874 C876 1.327 . S
C874 H899 0.950 . S
C875 C874 1.349 . S
C875 C891 1.349 . S
C876 C874 1.327 . S
C876 C895 1.429 . S
C876 H900 0.950 . S
C877 C894 1.574 . S
C877 C896 1.368 . S
C877 H901 0.949 . S
H878 C882 0.949 . S
C879 C880 1.349 . S
C879 C881 1.327 . S
C879 H902 0.950 . S
C880 C879 1.349 . S
C880 C892 1.349 . S
C881 C879 1.327 . S
C881 C897 1.429 . S
C881 H903 0.950 . S
C882 H878 0.949 . S
C882 C890 1.574 . S
C882 C898 1.368 . S
H883 C891 0.950 . S
H884 C889 0.950 . S
H885 C890 0.949 . S
H886 C892 0.950 . S
H887 C893 0.950 . S
H888 C894 0.949 . S
C889 H884 0.950 . S
C889 C891 1.327 . S
C889 C895 1.429 . S
C890 C882 1.574 . S
C890 H885 0.949 . S
C890 C896 1.368 . S
C891 C875 1.349 . S
C891 H883 0.950 . S
C891 C889 1.327 . S
C892 C880 1.349 . S
C892 H886 0.950 . S
C892 C893 1.327 . S
C893 H887 0.950 . S
C893 C892 1.327 . S
C893 C897 1.429 . S
C894 C877 1.574 . S
C894 H888 0.949 . S
C894 C898 1.368 . S
C895 C876 1.429 . S
C895 C889 1.429 . S
C895 C896 1.523 . S
C896 C877 1.368 . S
C896 C890 1.368 . S
C896 C895 1.523 . S
C897 C881 1.429 . S
C897 C893 1.429 . S
C897 C898 1.523 . S
C898 C882 1.368 . S
C898 C894 1.368 . S
C898 C897 1.523 . S
H899 C874 0.950 . S
H900 C876 0.950 . S
H901 C877 0.949 . S
H902 C879 0.950 . S
H903 C881 0.950 . S
C185 C9 1.956 . S
C190 C123 1.948 . S
C215 C21 1.292 . S
C220 C126 1.262 . S
C250 C162 1.309 . S
C245 C30 1.287 . S
C275 C43 1.421 . S
C280 C182 1.423 . S
C310 C136 1.613 . S
C305 C4 1.597 . S
C340 C113 2.169 . S
C335 C22 2.184 . S
C370 C166 1.161 . S
C365 C34 1.264 . S
C400 C146 1.150 . S
C395 C48 1.211 . S
C425 C8 1.428 . S
C430 C176 1.371 . S
C460 C142 1.684 . S
C455 C35 1.694 . S
C485 C47 1.793 . S
C490 C108 1.750 . S
C515 C17 1.124 . S
C520 C156 1.105 . S
C550 C122 1.484 . S
C545 C60 1.495 . S
C575 C74 1.526 . S
C580 C128 1.456 . S
C605 C82 1.127 . S
C610 C163 1.142 . S
C635 C100 1.942 . S
C640 C183 1.921 . S
C665 C61 2.128 . S
C670 C133 2.102 . S
C700 C116 1.670 . S
C695 C73 1.701 . S
C730 C168 1.678 . S
C725 C87 1.752 . S
C760 C148 1.005 . S
C755 C95 1.058 . S
C785 C56 1.379 . S
C790 C173 1.343 . S
C820 C143 1.700 . S
C815 C86 1.727 . S
C850 C106 1.603 . S
C845 C99 1.661 . S
C875 C69 1.175 . S
C880 C153 1.185 . S
