# Generated by pormake.
# Topology rtl, (3,6)-cn, num edge types: 1
# Building blocks:
#     Node 0, Type 0, BuildingBlock: ESEHIV_clean_linker_0, # of connection points: 3
#     Node 1, Type 0, BuildingBlock: ESEHIV_clean_linker_0, # of connection points: 3
#     Node 2, Type 0, BuildingBlock: ESEHIV_clean_linker_0, # of connection points: 3
#     Node 3, Type 0, BuildingBlock: ESEHIV_clean_linker_0, # of connection points: 3
#     Node 4, Type 1, BuildingBlock: VOLQOD_clean_sbu_1, # of connection points: 6
#     Node 5, Type 1, BuildingBlock: VOLQOD_clean_sbu_1, # of connection points: 6
#     Edge 6, Type (0, 1), BuildingBlock: MIFKUJ_clean_linker_0, # of connection points: 2
#     Edge 7, Type (0, 1), BuildingBlock: MIFKUJ_clean_linker_0, # of connection points: 2
#     Edge 8, Type (0, 1), BuildingBlock: MIFKUJ_clean_linker_0, # of connection points: 2
#     Edge 9, Type (0, 1), BuildingBlock: MIFKUJ_clean_linker_0, # of connection points: 2
#     Edge 10, Type (0, 1), BuildingBlock: MIFKUJ_clean_linker_0, # of connection points: 2
#     Edge 11, Type (0, 1), BuildingBlock: MIFKUJ_clean_linker_0, # of connection points: 2
#     Edge 12, Type (0, 1), BuildingBlock: MIFKUJ_clean_linker_0, # of connection points: 2
#     Edge 13, Type (0, 1), BuildingBlock: MIFKUJ_clean_linker_0, # of connection points: 2
#     Edge 14, Type (0, 1), BuildingBlock: MIFKUJ_clean_linker_0, # of connection points: 2
#     Edge 15, Type (0, 1), BuildingBlock: MIFKUJ_clean_linker_0, # of connection points: 2
#     Edge 16, Type (0, 1), BuildingBlock: MIFKUJ_clean_linker_0, # of connection points: 2
#     Edge 17, Type (0, 1), BuildingBlock: MIFKUJ_clean_linker_0, # of connection points: 2
# Relax obj value: 0.079
# Max RMSD: 0.156
# Mean RMSD: 0.088
data_MOF--net-rtl--node1-VOLQOD_clean_sbu_1--node2-ESEHIV_clean_linker_0--edge1-MIFKUJ_clean_linker_0
_symmetry_space_group_name_H-M    P1
_symmetry_Int_Tables_number       1
_symmetry_cell_setting            triclinic
loop_
_symmetry_equiv_pos_as_xyz
'x, y, z'
_cell_length_a     45.353372
_cell_length_b     39.356554
_cell_length_c     29.44875
_cell_angle_alpha  90.006045
_cell_angle_beta   90.367321
_cell_angle_gamma 90.051697
loop_
_atom_site_label
_atom_site_type_symbol
_atom_site_fract_x
_atom_site_fract_y
_atom_site_fract_z
_atom_type_partial_charge
H0 H 0.0733 0.75328 0.01125 0.0
H1 H 0.13248 0.68937 0.08731 0.0
H2 H 0.14391 0.70232 0.94322 0.0
C3 C 0.09146 0.7354 0.01231 0.0
C4 C 0.10678 0.72816 0.97226 0.0
C5 C 0.10097 0.72207 0.05413 0.0
C6 C 0.12541 0.70015 0.05519 0.0
C7 C 0.14109 0.69265 0.01536 0.0
C8 C 0.13155 0.70688 0.974 0.0
H9 H 0.57877 0.75085 0.48459 0.0
H10 H 0.6397 0.8229 0.42784 0.0
H11 H 0.63764 0.80604 0.57226 0.0
C12 C 0.59554 0.77024 0.48905 0.0
C13 C 0.60626 0.7772 0.53279 0.0
C14 C 0.60726 0.78681 0.45097 0.0
C15 C 0.62992 0.81076 0.45715 0.0
C16 C 0.64105 0.81775 0.50082 0.0
C17 C 0.6288 0.80123 0.53857 0.0
H18 H 0.92915 0.24731 0.00052 0.0
H19 H 0.86912 0.30847 0.07787 0.0
H20 H 0.86555 0.31036 0.93208 0.0
C21 C 0.91208 0.26654 0.00184 0.0
C22 C 0.89944 0.27841 0.96116 0.0
C23 C 0.90139 0.27718 0.04419 0.0
C24 C 0.87773 0.30016 0.04548 0.0
C25 C 0.86462 0.31204 0.0052 0.0
C26 C 0.87591 0.30156 0.96319 0.0
H27 H 0.42499 0.26058 0.49905 0.0
H28 H 0.36797 0.1946 0.57397 0.0
H29 H 0.36414 0.19546 0.42779 0.0
C30 C 0.40865 0.24046 0.49924 0.0
C31 C 0.3965 0.22874 0.4581 0.0
C32 C 0.39827 0.22838 0.54096 0.0
C33 C 0.37584 0.20387 0.54158 0.0
C34 C 0.36327 0.19178 0.5009 0.0
C35 C 0.37399 0.20414 0.45931 0.0
O36 O 0.93124 0.00409 0.50322 0.0
Zn37 Zn 0.96924 0.03066 0.50255 0.0
O38 O 0.00371 0.00086 0.50523 0.0
Zn39 Zn 0.02808 0.01263 0.55794 0.0
Zn40 Zn 0.99038 0.95371 0.51028 0.0
Zn41 Zn 0.0271 0.00654 0.45014 0.0
O42 O 0.06839 0.02823 0.53917 0.0
O43 O 0.06908 0.01989 0.46465 0.0
O44 O 0.9685 0.06204 0.55639 0.0
O45 O 0.0095 0.05007 0.59473 0.0
O46 O 0.03391 0.97199 0.59863 0.0
O47 O 0.00677 0.93143 0.56653 0.0
O48 O 0.00297 0.92625 0.45585 0.0
O49 O 0.96962 0.05953 0.44628 0.0
O50 O 0.02783 0.96324 0.41391 0.0
O51 O 0.01014 0.04344 0.41029 0.0
C52 C 0.9256 0.97271 0.50907 0.0
C53 C 0.08189 0.02873 0.50141 0.0
C54 C 0.02393 0.94173 0.59803 0.0
C55 C 0.98581 0.0671 0.58993 0.0
C56 C 0.01753 0.93351 0.42027 0.0
C57 C 0.98726 0.06206 0.41298 0.0
O58 O 0.94617 0.95094 0.51342 0.0
O59 O 0.57658 0.50388 0.99785 0.0
Zn60 Zn 0.53996 0.53294 0.99726 0.0
O61 O 0.50409 0.50527 0.00041 0.0
Zn62 Zn 0.47854 0.51479 0.9481 0.0
Zn63 Zn 0.5149 0.45722 0.00053 0.0
Zn64 Zn 0.48287 0.51584 0.05607 0.0
O65 O 0.43841 0.531 0.96733 0.0
O66 O 0.4419 0.53269 0.04248 0.0
O67 O 0.54027 0.56075 0.94005 0.0
O68 O 0.4966 0.5508 0.90803 0.0
O69 O 0.47275 0.47281 0.90995 0.0
O70 O 0.50074 0.4338 0.94365 0.0
O71 O 0.49745 0.43282 0.05415 0.0
O72 O 0.54271 0.5654 0.05034 0.0
O73 O 0.47884 0.47453 0.09591 0.0
O74 O 0.50327 0.55267 0.09126 0.0
C75 C 0.58053 0.47198 0.00167 0.0
C76 C 0.4272 0.53712 0.006 0.0
C77 C 0.48352 0.44296 0.91163 0.0
C78 C 0.52144 0.56596 0.90856 0.0
C79 C 0.48468 0.4432 0.08995 0.0
C80 C 0.52649 0.57017 0.08493 0.0
O81 O 0.55887 0.45147 0.00405 0.0
H82 H 0.35038 0.13872 0.44315 0.0
H83 H 0.30549 0.1041 0.44131 0.0
H84 H 0.27323 0.15662 0.55944 0.0
H85 H 0.31717 0.19225 0.56053 0.0
H86 H 0.26537 0.0842 0.56138 0.0
H87 H 0.24942 0.18148 0.46214 0.0
H88 H 0.26197 0.21844 0.39746 0.0
H89 H 0.25474 0.13346 0.30659 0.0
H90 H 0.24259 0.09587 0.37092 0.0
H91 H 0.11214 0.06291 0.56751 0.0
H92 H 0.1628 0.08336 0.56525 0.0
H93 H 0.17305 0.04051 0.43137 0.0
H94 H 0.12182 0.02096 0.43274 0.0
H95 H 0.19576 0.10066 0.43255 0.0
H96 H 0.20596 0.00415 0.52804 0.0
H97 H 0.19454 0.96546 0.59138 0.0
H98 H 0.21422 0.04465 0.68721 0.0
H99 H 0.22535 0.084 0.62443 0.0
C100 C 0.33371 0.143 0.46868 0.0
C101 C 0.33743 0.16842 0.5019 0.0
C102 C 0.3082 0.12302 0.46774 0.0
C103 C 0.28611 0.12793 0.5002 0.0
C104 C 0.29018 0.15232 0.53431 0.0
C105 C 0.31544 0.17255 0.53497 0.0
C106 C 0.2579 0.10917 0.49737 0.0
C107 C 0.25002 0.0878 0.53338 0.0
C108 C 0.23845 0.11314 0.46006 0.0
C109 C 0.24545 0.1358 0.42138 0.0
C110 C 0.25076 0.17062 0.42842 0.0
C111 C 0.25776 0.1917 0.39182 0.0
C112 C 0.25924 0.17829 0.34796 0.0
C113 C 0.25364 0.14379 0.34059 0.0
C114 C 0.24669 0.1226 0.37711 0.0
C115 C 0.12519 0.05763 0.53765 0.0
C116 C 0.11295 0.04023 0.50034 0.0
C117 C 0.15427 0.06916 0.53652 0.0
C118 C 0.17199 0.06292 0.49849 0.0
C119 C 0.15985 0.04551 0.46116 0.0
C120 C 0.13058 0.03434 0.46201 0.0
C121 C 0.20272 0.07597 0.49714 0.0
C122 C 0.21115 0.09639 0.46032 0.0
C123 C 0.22284 0.07073 0.53349 0.0
C124 C 0.2163 0.04711 0.57145 0.0
C125 C 0.20766 0.0134 0.5626 0.0
C126 C 0.20127 0.99134 0.59842 0.0
C127 C 0.2036 0.00261 0.64329 0.0
C128 C 0.21241 0.03596 0.65244 0.0
C129 C 0.21881 0.05814 0.61674 0.0
H130 H 0.19863 0.98549 0.67097 0.0
H131 H 0.26466 0.19464 0.31966 0.0
H132 H 0.18404 0.69379 0.0812 0.0
H133 H 0.23077 0.66338 0.08199 0.0
H134 H 0.20863 0.61671 0.95366 0.0
H135 H 0.16089 0.64552 0.95391 0.0
H136 H 0.23594 0.57228 0.00643 0.0
H137 H 0.25399 0.6868 0.9598 0.0
H138 H 0.25205 0.74929 0.96512 0.0
H139 H 0.30084 0.74595 0.09048 0.0
H140 H 0.3027 0.68337 0.08624 0.0
H141 H 0.38464 0.53605 0.9397 0.0
H142 H 0.33454 0.55892 0.94392 0.0
H143 H 0.35077 0.59092 0.08187 0.0
H144 H 0.40075 0.56783 0.07825 0.0
H145 H 0.3266 0.64189 0.02406 0.0
H146 H 0.30908 0.52571 0.06736 0.0
H147 H 0.31156 0.46352 0.05809 0.0
H148 H 0.26264 0.47071 0.93314 0.0
H149 H 0.26024 0.53305 0.94134 0.0
C150 C 0.18871 0.67647 0.05361 0.0
C151 C 0.16868 0.67227 0.01734 0.0
C152 C 0.21567 0.65942 0.05384 0.0
C153 C 0.22348 0.63834 0.0174 0.0
C154 C 0.20315 0.63305 0.98198 0.0
C155 C 0.176 0.64982 0.98196 0.0
C156 C 0.25327 0.62286 0.01554 0.0
C157 C 0.25576 0.58756 0.00975 0.0
C158 C 0.27917 0.64273 0.02038 0.0
C159 C 0.27823 0.68038 0.02292 0.0
C160 C 0.26412 0.69938 0.98867 0.0
C161 C 0.26306 0.73481 0.99147 0.0
C162 C 0.27624 0.75157 0.02817 0.0
C163 C 0.29059 0.73293 0.0621 0.0
C164 C 0.29168 0.69748 0.0595 0.0
C165 C 0.37752 0.54784 0.971 0.0
C166 C 0.39668 0.55016 0.00864 0.0
C167 C 0.34888 0.56075 0.97339 0.0
C168 C 0.33902 0.57644 0.01326 0.0
C169 C 0.35804 0.57882 0.05085 0.0
C170 C 0.38653 0.56553 0.04872 0.0
C171 C 0.30917 0.59143 0.01528 0.0
C172 C 0.30673 0.62667 0.02089 0.0
C173 C 0.28342 0.57156 0.00965 0.0
C174 C 0.28475 0.53408 0.00473 0.0
C175 C 0.29908 0.51407 0.0377 0.0
C176 C 0.30042 0.47878 0.03268 0.0
C177 C 0.28733 0.46318 0.99499 0.0
C178 C 0.2728 0.48284 0.96229 0.0
C179 C 0.27142 0.51814 0.96713 0.0
H180 H 0.28839 0.43586 0.99117 0.0
H181 H 0.2754 0.77901 0.03028 0.0
H182 H 0.69104 0.80285 0.54788 0.0
H183 H 0.73627 0.83614 0.55276 0.0
H184 H 0.69622 0.91497 0.47124 0.0
H185 H 0.65098 0.88095 0.46512 0.0
H186 H 0.74864 0.90327 0.44167 0.0
H187 H 0.71022 0.925 0.5884 0.0
H188 H 0.68819 0.91147 0.66256 0.0
H189 H 0.76439 0.85243 0.69856 0.0
H190 H 0.78672 0.8652 0.62435 0.0
H191 H 0.87606 0.00773 0.48326 0.0
H192 H 0.82488 0.98784 0.48514 0.0
H193 H 0.85373 0.89223 0.54136 0.0
H194 H 0.90487 0.91168 0.53932 0.0
H195 H 0.80404 0.92101 0.58559 0.0
H196 H 0.83866 0.89534 0.43354 0.0
H197 H 0.85996 0.91023 0.3593 0.0
H198 H 0.78915 0.98036 0.33477 0.0
H199 H 0.76764 0.9662 0.4092 0.0
C200 C 0.69171 0.82755 0.53166 0.0
C201 C 0.66747 0.8395 0.50645 0.0
C202 C 0.71756 0.84663 0.53456 0.0
C203 C 0.71953 0.87842 0.5131 0.0
C204 C 0.69519 0.89059 0.48825 0.0
C205 C 0.66939 0.87122 0.48479 0.0
C206 C 0.74767 0.89774 0.51453 0.0
C207 C 0.76039 0.90782 0.4733 0.0
C208 C 0.76327 0.9034 0.5557 0.0
C209 C 0.75007 0.89591 0.60063 0.0
C210 C 0.72221 0.90897 0.61201 0.0
C211 C 0.70967 0.90145 0.65408 0.0
C212 C 0.72485 0.88106 0.68522 0.0
C213 C 0.75265 0.86822 0.6744 0.0
C214 C 0.76528 0.87564 0.63236 0.0
C215 C 0.87151 0.98252 0.49617 0.0
C216 C 0.89455 0.96121 0.51095 0.0
C217 C 0.84228 0.97121 0.49716 0.0
C218 C 0.83563 0.93857 0.51328 0.0
C219 C 0.85847 0.91754 0.52889 0.0
C220 C 0.88769 0.92864 0.52744 0.0
C221 C 0.80497 0.92574 0.51283 0.0
C222 C 0.79189 0.91693 0.5542 0.0
C223 C 0.78889 0.92164 0.47192 0.0
C224 C 0.80175 0.93002 0.42714 0.0
C225 C 0.82778 0.91416 0.41249 0.0
C226 C 0.83986 0.92242 0.37034 0.0
C227 C 0.82597 0.94631 0.3424 0.0
C228 C 0.79992 0.96191 0.35649 0.0
C229 C 0.78776 0.95377 0.39863 0.0
H230 H 0.83535 0.95267 0.30978 0.0
H231 H 0.7151 0.87524 0.71775 0.0
H232 H 0.85167 0.37055 0.95874 0.0
H233 H 0.80462 0.40155 0.95814 0.0
H234 H 0.76884 0.32976 0.05377 0.0
H235 H 0.81564 0.29893 0.05474 0.0
H236 H 0.73376 0.34116 0.97373 0.0
H237 H 0.7855 0.40367 0.09166 0.0
H238 H 0.82679 0.43763 0.12229 0.0
H239 H 0.81154 0.51394 0.02063 0.0
H240 H 0.7704 0.48016 0.98898 0.0
H241 H 0.59861 0.41131 0.03646 0.0
H242 H 0.64831 0.38775 0.03684 0.0
H243 H 0.68055 0.4773 0.96855 0.0
H244 H 0.63092 0.50173 0.96995 0.0
H245 H 0.71896 0.45901 0.02891 0.0
H246 H 0.66748 0.40034 0.91127 0.0
H247 H 0.62708 0.36746 0.87601 0.0
H248 H 0.64299 0.28528 0.96885 0.0
H249 H 0.68323 0.31786 0.00511 0.0
C250 C 0.83379 0.36165 0.97987 0.0
C251 C 0.83727 0.33249 0.00696 0.0
C252 C 0.80706 0.37936 0.9796 0.0
C253 C 0.78338 0.36788 0.00597 0.0
C254 C 0.78692 0.33899 0.03328 0.0
C255 C 0.81368 0.32158 0.03403 0.0
C256 C 0.75441 0.385 0.00387 0.0
C257 C 0.73038 0.36681 0.98618 0.0
C258 C 0.75044 0.41887 0.01852 0.0
C259 C 0.7751 0.4392 0.03764 0.0
C260 C 0.79113 0.42753 0.07557 0.0
C261 C 0.81447 0.44679 0.09317 0.0
C262 C 0.82184 0.47788 0.07334 0.0
C263 C 0.80583 0.48983 0.03592 0.0
C264 C 0.7825 0.47065 0.01815 0.0
C265 C 0.61629 0.42602 0.02157 0.0
C266 C 0.61084 0.45824 0.00283 0.0
C267 C 0.64469 0.41245 0.0216 0.0
C268 C 0.6681 0.43037 0.00172 0.0
C269 C 0.66284 0.46291 0.98387 0.0
C270 C 0.63447 0.47681 0.98462 0.0
C271 C 0.69794 0.41494 -0.00049 0.0
C272 C 0.72222 0.43344 0.01615 0.0
C273 C 0.70229 0.38148 0.98306 0.0
C274 C 0.67823 0.36167 0.96114 0.0
C275 C 0.66224 0.37534 0.92436 0.0
C276 C 0.63938 0.35675 0.90417 0.0
C277 C 0.63243 0.32433 0.92024 0.0
C278 C 0.64838 0.31041 0.95646 0.0
C279 C 0.67124 0.32891 0.97681 0.0
H280 H 0.61471 0.30998 0.90458 0.0
H281 H 0.83991 0.49275 0.08702 0.0
H282 H 0.12927 0.74172 0.13174 0.0
H283 H 0.10801 0.76885 0.19823 0.0
H284 H 0.021 0.75829 0.13976 0.0
H285 H 0.04228 0.73105 0.07271 0.0
H286 H 0.02948 0.82088 0.16643 0.0
H287 H 0.0412 0.71305 0.23534 0.0
H288 H 0.06642 0.65998 0.25711 0.0
H289 H 0.13051 0.71696 0.33347 0.0
H290 H 0.10593 0.77043 0.31164 0.0
H291 H 0.99855 0.86725 0.42072 0.0
H292 H 0.00571 0.8243 0.36168 0.0
H293 H 0.05467 0.89673 0.28212 0.0
H294 H 0.04736 0.93982 0.34036 0.0
H295 H 0.05462 0.79592 0.32724 0.0
H296 H 0.04028 0.88562 0.17146 0.0
H297 H 0.01174 0.9366 0.15031 0.0
H298 H 0.94581 0.91093 0.24854 0.0
H299 H 0.97371 0.85955 0.26982 0.0
C300 C 0.10553 0.74428 0.13351 0.0
C301 C 0.08744 0.73419 0.09695 0.0
C302 C 0.09338 0.75984 0.17161 0.0
C303 C 0.06286 0.76538 0.1742 0.0
C304 C 0.04461 0.75427 0.13847 0.0
C305 C 0.05678 0.73878 0.1002 0.0
C306 C 0.05063 0.78563 0.21218 0.0
C307 C 0.03474 0.81521 0.20161 0.0
C308 C 0.05694 0.77791 0.25818 0.0
C309 C 0.07178 0.7458 0.27162 0.0
C310 C 0.06079 0.7143 0.25653 0.0
C311 C 0.07496 0.68413 0.26892 0.0
C312 C 0.10007 0.6851 0.29661 0.0
C313 C 0.11104 0.71624 0.31203 0.0
C314 C 0.09697 0.74649 0.29972 0.0
C315 C 0.01081 0.87407 0.39063 0.0
C316 C 0.02226 0.90708 0.38522 0.0
C317 C 0.01492 0.84945 0.35699 0.0
C318 C 0.03036 0.85746 0.31727 0.0
C319 C 0.0422 0.89018 0.31213 0.0
C320 C 0.03811 0.91476 0.34563 0.0
C321 C 0.03457 0.8317 0.28116 0.0
C322 C 0.04897 0.80121 0.29209 0.0
C323 C 0.0264 0.83821 0.23554 0.0
C324 C 0.00923 0.86884 0.22245 0.0
C325 C 0.01961 0.89074 0.18837 0.0
C326 C 0.00356 0.91974 0.1764 0.0
C327 C 0.97702 0.92704 0.19815 0.0
C328 C 0.96642 0.90531 0.23182 0.0
C329 C 0.98237 0.87626 0.24389 0.0
H330 H 0.96464 0.94952 0.18885 0.0
H331 H 0.11101 0.66172 0.30615 0.0
H332 H 0.58531 0.80056 0.61376 0.0
H333 H 0.56841 0.76662 0.67844 0.0
H334 H 0.58812 0.67466 0.60459 0.0
H335 H 0.60368 0.7085 0.5395 0.0
H336 H 0.53996 0.66548 0.64578 0.0
H337 H 0.63447 0.7089 0.69064 0.0
H338 H 0.67198 0.75305 0.70528 0.0
H339 H 0.61618 0.7985 0.80562 0.0
H340 H 0.57815 0.75487 0.79111 0.0
H341 H 0.57614 0.58716 0.88303 0.0
H342 H 0.58876 0.62442 0.81986 0.0
H343 H 0.49632 0.63703 0.78834 0.0
H344 H 0.48363 0.59848 0.85033 0.0
H345 H 0.58017 0.68662 0.80026 0.0
H346 H 0.48589 0.64878 0.67622 0.0
H347 H 0.45452 0.59915 0.65867 0.0
H348 H 0.521 0.53238 0.71223 0.0
H349 H 0.5529 0.58155 0.72954 0.0
C350 C 0.58589 0.77309 0.61152 0.0
C351 C 0.59572 0.75707 0.57183 0.0
C352 C 0.57637 0.75372 0.64845 0.0
C353 C 0.57735 0.71802 0.6467 0.0
C354 C 0.58701 0.70211 0.60679 0.0
C355 C 0.59595 0.72143 0.56965 0.0
C356 C 0.56867 0.69704 0.6864 0.0
C357 C 0.54872 0.67019 0.67957 0.0
C358 C 0.58045 0.7027 0.73042 0.0
C359 C 0.60335 0.72884 0.73945 0.0
C360 C 0.63012 0.72845 0.71561 0.0
C361 C 0.65148 0.75336 0.7239 0.0
C362 C 0.64643 0.77862 0.75627 0.0
C363 C 0.62004 0.77896 0.78051 0.0
C364 C 0.59859 0.75413 0.77228 0.0
C365 C 0.55848 0.59787 0.86265 0.0
C366 C 0.52889 0.58966 0.8714 0.0
C367 C 0.56573 0.61928 0.82661 0.0
C368 C 0.54354 0.63324 0.79888 0.0
C369 C 0.51389 0.62596 0.80853 0.0
C370 C 0.50665 0.60401 0.84408 0.0
C371 C 0.55161 0.65493 0.75955 0.0
C372 C 0.57131 0.68202 0.7665 0.0
C373 C 0.54052 0.64866 0.71527 0.0
C374 C 0.52161 0.61888 0.70464 0.0
C375 C 0.49383 0.62349 0.68412 0.0
C376 C 0.47596 0.59545 0.67424 0.0
C377 C 0.48572 0.56265 0.68449 0.0
C378 C 0.51342 0.55781 0.70448 0.0
C379 C 0.53139 0.58576 0.71438 0.0
H380 H 0.47184 0.54098 0.67684 0.0
H381 H 0.66299 0.79789 0.76263 0.0
H382 H 0.95895 0.26205 0.06504 0.0
H383 H 0.97733 0.23021 0.13071 0.0
H384 H 0.88943 0.22612 0.18532 0.0
H385 H 0.87065 0.2569 0.11929 0.0
H386 H 0.93431 0.23937 0.2514 0.0
H387 H 0.91199 0.16124 0.12854 0.0
H388 H 0.91618 0.14004 0.05005 0.0
H389 H 0.00954 0.12728 0.06822 0.0
H390 H 0.00595 0.14894 0.14666 0.0
H391 H 0.93714 0.09957 0.40066 0.0
H392 H 0.9267 0.14065 0.34075 0.0
H393 H 0.01292 0.12347 0.28411 0.0
H394 H 0.02329 0.08157 0.34335 0.0
H395 H 0.97346 0.12419 0.2192 0.0
H396 H 0.99633 0.19713 0.34349 0.0
H397 H 0.99355 0.21951 0.42154 0.0
H398 H 0.90209 0.24364 0.40136 0.0
H399 H 0.9042 0.22095 0.32336 0.0
C400 C 0.94353 0.25447 0.09107 0.0
C401 C 0.91327 0.26181 0.08665 0.0
C402 C 0.95411 0.23647 0.12865 0.0
C403 C 0.93466 0.22565 0.16256 0.0
C404 C 0.90477 0.23441 0.15952 0.0
C405 C 0.89412 0.25215 0.12179 0.0
C406 C 0.94496 0.20303 0.19947 0.0
C407 C 0.94271 0.21409 0.24455 0.0
C408 C 0.95663 0.17047 0.1902 0.0
C409 C 0.95875 0.15707 0.14326 0.0
C410 C 0.93344 0.15417 0.11567 0.0
C411 C 0.93571 0.14204 0.07122 0.0
C412 C 0.96313 0.13241 0.05411 0.0
C413 C 0.98832 0.1348 0.08149 0.0
C414 C 0.98619 0.147 0.12595 0.0
C415 C 0.95396 0.10457 0.37559 0.0
C416 C 0.98108 0.08728 0.37686 0.0
C417 C 0.94801 0.12826 0.34148 0.0
C418 C 0.96921 0.13558 0.30833 0.0
C419 C 0.99628 0.11831 0.30942 0.0
C420 C 0.00216 0.09437 0.34333 0.0
C421 C 0.9626 0.16028 0.27158 0.0
C422 C 0.96546 0.14959 0.22635 0.0
C423 C 0.95174 0.19331 0.28079 0.0
C424 C 0.95037 0.20707 0.32767 0.0
C425 C 0.97556 0.20697 0.3558 0.0
C426 C 0.97411 0.21975 0.40002 0.0
C427 C 0.94764 0.23292 0.41643 0.0
C428 C 0.92257 0.2334 0.38861 0.0
C429 C 0.92389 0.22062 0.34437 0.0
H430 H 0.94657 0.24281 0.45068 0.0
H431 H 0.96483 0.12302 0.01968 0.0
H432 H 0.36475 0.25583 0.60758 0.0
H433 H 0.3817 0.28849 0.67359 0.0
H434 H 0.47205 0.26975 0.63649 0.0
H435 H 0.45517 0.23749 0.56966 0.0
H436 H 0.45272 0.26379 0.7389 0.0
H437 H 0.45498 0.33744 0.60586 0.0
H438 H 0.43263 0.36215 0.53683 0.0
H439 H 0.36185 0.40302 0.61609 0.0
H440 H 0.38355 0.37799 0.6855 0.0
H441 H 0.51725 0.39117 0.87904 0.0
H442 H 0.50488 0.35167 0.81772 0.0
H443 H 0.41935 0.39885 0.80358 0.0
H444 H 0.43247 0.43968 0.86282 0.0
H445 H 0.43829 0.38838 0.72537 0.0
H446 H 0.43293 0.31727 0.85746 0.0
H447 H 0.45075 0.29063 0.92828 0.0
H448 H 0.52149 0.24331 0.85562 0.0
H449 H 0.50429 0.27001 0.78443 0.0
C450 C 0.38821 0.2581 0.61403 0.0
C451 C 0.4087 0.24421 0.58368 0.0
C452 C 0.39783 0.27678 0.65158 0.0
C453 C 0.42806 0.28143 0.65966 0.0
C454 C 0.44863 0.26621 0.63073 0.0
C455 C 0.43901 0.24801 0.59263 0.0
C456 C 0.43791 0.30466 0.69605 0.0
C457 C 0.45002 0.2911 0.73597 0.0
C458 C 0.4335 0.34005 0.69233 0.0
C459 C 0.42072 0.35555 0.65075 0.0
C460 C 0.43451 0.35143 0.60849 0.0
C461 C 0.42199 0.36554 0.56931 0.0
C462 C 0.39579 0.38407 0.57205 0.0
C463 C 0.38212 0.38862 0.614 0.0
C464 C 0.39453 0.37449 0.65327 0.0
C465 C 0.4958 0.39299 0.86283 0.0
C466 C 0.47579 0.41842 0.87561 0.0
C467 C 0.48864 0.37025 0.82799 0.0
C468 C 0.46093 0.37177 0.80641 0.0
C469 C 0.44089 0.39711 0.81953 0.0
C470 C 0.44835 0.42041 0.85345 0.0
C471 C 0.453 0.34776 0.76925 0.0
C472 C 0.4412 0.36114 0.72881 0.0
C473 C 0.45719 0.31212 0.773 0.0
C474 C 0.46749 0.29591 0.81571 0.0
C475 C 0.4524 0.30136 0.85665 0.0
C476 C 0.46237 0.28622 0.89684 0.0
C477 C 0.48728 0.26536 0.89648 0.0
C478 C 0.50222 0.25951 0.85587 0.0
C479 C 0.49235 0.27461 0.81558 0.0
H480 H 0.49497 0.25368 0.92763 0.0
H481 H 0.38613 0.39498 0.54168 0.0
H482 H 0.55114 0.77554 0.42029 0.0
H483 H 0.53666 0.74594 0.3506 0.0
H484 H 0.62744 0.74351 0.30811 0.0
H485 H 0.64219 0.77271 0.37801 0.0
H486 H 0.58498 0.75234 0.23485 0.0
H487 H 0.60537 0.67978 0.36379 0.0
H488 H 0.59958 0.66254 0.44374 0.0
H489 H 0.50703 0.64601 0.42135 0.0
H490 H 0.51217 0.66387 0.34144 0.0
H491 H 0.57827 0.60598 0.09179 0.0
H492 H 0.59132 0.64898 0.14844 0.0
H493 H 0.50553 0.6382 0.20935 0.0
H494 H 0.49263 0.59469 0.15381 0.0
H495 H 0.54593 0.63791 0.27231 0.0
H496 H 0.52477 0.70829 0.14326 0.0
H497 H 0.52915 0.72803 0.06412 0.0
H498 H 0.62095 0.74975 0.08589 0.0
H499 H 0.61722 0.7297 0.16503 0.0
C500 C 0.56794 0.76929 0.39568 0.0
C501 C 0.59784 0.77596 0.40489 0.0
C502 C 0.55962 0.75256 0.35585 0.0
C503 C 0.58107 0.74217 0.32468 0.0
C504 C 0.6106 0.75139 0.33181 0.0
C505 C 0.61897 0.76811 0.37175 0.0
C506 C 0.57325 0.71778 0.28838 0.0
C507 C 0.57668 0.72719 0.24282 0.0
C508 C 0.56207 0.68522 0.2991 0.0
C509 C 0.55911 0.67347 0.34676 0.0
C510 C 0.58375 0.67267 0.37599 0.0
C511 C 0.58059 0.6628 0.4213 0.0
C512 C 0.55294 0.65326 0.43764 0.0
C513 C 0.52842 0.65345 0.40865 0.0
C514 C 0.53145 0.66345 0.36335 0.0
C515 C 0.56215 0.61286 0.11716 0.0
C516 C 0.53444 0.5968 0.11835 0.0
C517 C 0.56958 0.6376 0.14936 0.0
C518 C 0.54928 0.6471 0.18288 0.0
C519 C 0.52156 0.63127 0.18385 0.0
C520 C 0.51423 0.60637 0.15202 0.0
C521 C 0.55722 0.67242 0.21824 0.0
C522 C 0.55405 0.66308 0.26394 0.0
C523 C 0.56847 0.70504 0.20749 0.0
C524 C 0.57077 0.71717 0.15994 0.0
C525 C 0.54595 0.71702 0.13107 0.0
C526 C 0.5483 0.72831 0.08623 0.0
C527 C 0.57533 0.74005 0.06995 0.0
C528 C 0.60004 0.7406 0.09853 0.0
C529 C 0.59781 0.72931 0.14339 0.0
H530 H 0.57711 0.74878 0.03523 0.0
H531 H 0.55053 0.64565 0.47274 0.0
H532 H 0.9557 0.26448 0.93333 0.0
H533 H 0.97056 0.23346 0.86539 0.0
H534 H 0.8798 0.22879 0.82095 0.0
H535 H 0.86464 0.25838 0.88975 0.0
H536 H 0.90377 0.16842 0.81691 0.0
H537 H 0.93143 0.27919 0.76662 0.0
H538 H 0.9557 0.33519 0.77089 0.0
H539 H 0.04044 0.28687 0.77845 0.0
H540 H 0.01665 0.23053 0.77486 0.0
H541 H 0.93306 0.09976 0.59962 0.0
H542 H 0.9192 0.14026 0.65858 0.0
H543 H 0.00635 0.13339 0.7172 0.0
H544 H 0.0205 0.09266 0.6584 0.0
H545 H 0.98384 0.20098 0.7114 0.0
H546 H 0.95496 0.09027 0.76524 0.0
H547 H 0.93011 0.03466 0.75983 0.0
H548 H 0.84643 0.08439 0.74408 0.0
H549 H 0.87087 0.14035 0.74873 0.0
C550 C 0.93892 0.25702 0.90895 0.0
C551 C 0.90897 0.26383 0.91707 0.0
C552 C 0.94749 0.23959 0.86988 0.0
C553 C 0.92631 0.22898 0.83789 0.0
C554 C 0.89652 0.23679 0.84514 0.0
C555 C 0.88792 0.25403 0.8843 0.0
C556 C 0.93492 0.20748 0.79877 0.0
C557 C 0.92091 0.1759 0.79339 0.0
C558 C 0.95782 0.21678 0.76873 0.0
C559 C 0.97222 0.25062 0.7709 0.0
C560 C 0.95523 0.28049 0.76958 0.0
C561 C 0.9689 0.3123 0.7718 0.0
C562 C -0.00041 0.31459 0.77505 0.0
C563 C 0.01667 0.28506 0.77598 0.0
C564 C 0.0031 0.25318 0.7738 0.0
C565 C 0.94939 0.10697 0.62484 0.0
C566 C 0.97785 0.09278 0.62447 0.0
C567 C 0.94139 0.13009 0.65852 0.0
C568 C 0.96171 0.13959 0.69231 0.0
C569 C 0.99039 0.12634 0.69134 0.0
C570 C 0.99835 0.10294 0.65788 0.0
C571 C 0.95258 0.16224 0.72974 0.0
C572 C 0.96656 0.19383 0.73485 0.0
C573 C 0.92954 0.1531 0.75945 0.0
C574 C 0.91479 0.11949 0.75683 0.0
C575 C 0.93129 0.08935 0.76021 0.0
C576 C 0.91728 0.05777 0.75736 0.0
C577 C 0.88672 0.05599 0.75148 0.0
C578 C 0.87011 0.08581 0.74856 0.0
C579 C 0.88403 0.11746 0.75133 0.0
H580 H 0.87591 0.03151 0.74929 0.0
H581 H 0.01013 0.33924 0.77676 0.0
H582 H 0.36149 0.24583 0.38532 0.0
H583 H 0.37581 0.27565 0.31638 0.0
H584 H 0.4658 0.28003 0.36456 0.0
H585 H 0.45203 0.24818 0.43221 0.0
H586 H 0.39425 0.33624 0.30736 0.0
H587 H 0.51377 0.28628 0.27881 0.0
H588 H 0.54157 0.23275 0.28677 0.0
H589 H 0.46117 0.17567 0.27479 0.0
H590 H 0.43294 0.22881 0.26613 0.0
H591 H 0.47227 0.45554 0.179 0.0
H592 H 0.45699 0.41466 0.23655 0.0
H593 H 0.46104 0.33396 0.13751 0.0
H594 H 0.47758 0.37458 0.08022 0.0
H595 H 0.48178 0.31147 0.21285 0.0
H596 H 0.39408 0.37042 0.17162 0.0
H597 H 0.3623 0.42005 0.15675 0.0
H598 H 0.37143 0.45136 0.29581 0.0
H599 H 0.40361 0.40216 0.31138 0.0
C600 C 0.38451 0.25218 0.38072 0.0
C601 C 0.40562 0.24448 0.41441 0.0
C602 C 0.3926 0.26964 0.34144 0.0
C603 C 0.42191 0.28 0.33505 0.0
C604 C 0.44313 0.27185 0.36823 0.0
C605 C 0.43514 0.254 0.40726 0.0
C606 C 0.42989 0.30125 0.29527 0.0
C607 C 0.4133 0.33067 0.28658 0.0
C608 C 0.45436 0.29371 0.26741 0.0
C609 C 0.47122 0.26159 0.27223 0.0
C610 C 0.50204 0.26231 0.27768 0.0
C611 C 0.51787 0.23203 0.28235 0.0
C612 C 0.50314 0.20084 0.28142 0.0
C613 C 0.47254 0.19985 0.27568 0.0
C614 C 0.45661 0.23005 0.27095 0.0
C615 C 0.46994 0.42908 0.16949 0.0
C616 C 0.47596 0.41831 0.12501 0.0
C617 C 0.46106 0.40574 0.20237 0.0
C618 C 0.45726 0.37129 0.19119 0.0
C619 C 0.46374 0.36039 0.14696 0.0
C620 C 0.47314 0.38365 0.11422 0.0
C621 C 0.44649 0.34676 0.22567 0.0
C622 C 0.46259 0.31682 0.23343 0.0
C623 C 0.42095 0.35319 0.25169 0.0
C624 C 0.40144 0.38273 0.24256 0.0
C625 C 0.38946 0.388 0.19896 0.0
C626 C 0.37136 0.41604 0.19041 0.0
C627 C 0.3649 0.43888 0.22529 0.0
C628 C 0.37647 0.43366 0.26882 0.0
C629 C 0.39462 0.40568 0.27754 0.0
H630 H 0.35088 0.46058 0.2186 0.0
H631 H 0.51543 0.17743 0.28507 0.0
H632 H 0.14256 0.76447 0.91654 0.0
H633 H 0.12815 0.79798 0.84989 0.0
H634 H 0.03805 0.76509 0.86537 0.0
H635 H 0.0523 0.73179 0.93258 0.0
H636 H 0.06281 0.76515 0.77087 0.0
H637 H 0.05014 0.83615 0.90403 0.0
H638 H 0.06714 0.8625 0.97553 0.0
H639 H 0.13736 0.91237 0.90455 0.0
H640 H 0.12104 0.88585 0.83271 0.0
H641 H 0.99332 0.88678 0.62892 0.0
H642 H 0.00721 0.84826 0.69046 0.0
H643 H 0.08857 0.90368 0.70965 0.0
H644 H 0.07393 0.94334 0.64983 0.0
H645 H 0.06819 0.89052 0.78705 0.0
H646 H 0.08326 0.82217 0.65486 0.0
H647 H 0.07026 0.7947 0.58216 0.0
H648 H 0.00112 0.7389 0.64764 0.0
H649 H 0.01347 0.76638 0.72064 0.0
C650 C 0.11978 0.76395 0.90524 0.0
C651 C 0.0985 0.74559 0.92955 0.0
C652 C 0.11159 0.78315 0.86737 0.0
C653 C 0.08206 0.78399 0.85298 0.0
C654 C 0.06095 0.76462 0.87604 0.0
C655 C 0.06906 0.74581 0.91439 0.0
C656 C 0.07302 0.80679 0.81557 0.0
C657 C 0.0636 0.79258 0.77435 0.0
C658 C 0.07496 0.84245 0.82004 0.0
C659 C 0.08455 0.85874 0.8631 0.0
C660 C 0.06935 0.8525 0.90374 0.0
C661 C 0.07884 0.86751 0.94431 0.0
C662 C 0.10336 0.88903 0.9446 0.0
C663 C 0.11839 0.89566 0.90428 0.0
C664 C 0.10902 0.88067 0.86363 0.0
C665 C 0.01419 0.89066 0.64625 0.0
C666 C 0.03257 0.91801 0.63459 0.0
C667 C 0.02223 0.86848 0.68124 0.0
C668 C 0.04924 0.87259 0.70428 0.0
C669 C 0.06763 0.89992 0.69249 0.0
C670 C 0.05927 0.92256 0.65825 0.0
C671 C 0.058 0.84909 0.74154 0.0
C672 C 0.06737 0.86313 0.78306 0.0
C673 C 0.05654 0.81324 0.73694 0.0
C674 C 0.04911 0.79659 0.69312 0.0
C675 C 0.06515 0.80422 0.65369 0.0
C676 C 0.05792 0.78862 0.61244 0.0
C677 C 0.03483 0.76514 0.61026 0.0
C678 C 0.01898 0.75713 0.64936 0.0
C679 C 0.0261 0.77268 0.69069 0.0
H680 H 0.02926 0.75309 0.57829 0.0
H681 H 0.11068 0.90062 0.97605 0.0
loop_
_geom_bond_atom_site_label_1
_geom_bond_atom_site_label_2
_geom_bond_distance
_geom_bond_site_symmetry_2
_ccdc_geom_bond_type
H0 C3 0.931 . S
H1 C6 0.928 . S
H2 C8 0.930 . S
C3 H0 0.931 . S
C3 C4 1.413 1_554 S
C3 C5 1.360 . S
C4 C3 1.413 1_556 S
C4 C8 1.429 . S
C5 C3 1.360 . S
C5 C6 1.372 . S
C6 H1 0.928 . S
C6 C5 1.372 . S
C6 C7 1.404 . S
C7 C6 1.404 . S
C7 C8 1.391 1_554 S
C8 H2 0.930 . S
C8 C4 1.429 . S
C8 C7 1.391 1_556 S
H9 C12 0.931 . S
H10 C15 0.928 . S
H11 C17 0.930 . S
C12 H9 0.931 . S
C12 C13 1.413 . S
C12 C14 1.360 . S
C13 C12 1.413 . S
C13 C17 1.429 . S
C14 C12 1.360 . S
C14 C15 1.372 . S
C15 H10 0.928 . S
C15 C14 1.372 . S
C15 C16 1.404 . S
C16 C15 1.404 . S
C16 C17 1.391 . S
C17 H11 0.930 . S
C17 C13 1.429 . S
C17 C16 1.391 . S
H18 C21 0.931 . S
H19 C24 0.928 . S
H20 C26 0.930 . S
C21 H18 0.931 . S
C21 C22 1.413 1_554 S
C21 C23 1.360 . S
C22 C21 1.413 1_556 S
C22 C26 1.429 . S
C23 C21 1.360 . S
C23 C24 1.372 . S
C24 H19 0.928 . S
C24 C23 1.372 . S
C24 C25 1.404 . S
C25 C24 1.404 . S
C25 C26 1.391 1_554 S
C26 H20 0.930 . S
C26 C22 1.429 . S
C26 C25 1.391 1_556 S
H27 C30 0.931 . S
H28 C33 0.928 . S
H29 C35 0.930 . S
C30 H27 0.931 . S
C30 C31 1.413 . S
C30 C32 1.360 . S
C31 C30 1.413 . S
C31 C35 1.429 . S
C32 C30 1.360 . S
C32 C33 1.372 . S
C33 H28 0.928 . S
C33 C32 1.372 . S
C33 C34 1.404 . S
C34 C33 1.404 . S
C34 C35 1.391 . S
C35 H29 0.930 . S
C35 C31 1.429 . S
C35 C34 1.391 . S
O36 Zn37 1.953 1_565 S
O36 C52 1.225 . S
Zn37 O36 1.953 1_545 S
Zn37 O38 1.949 1_655 S
Zn37 O44 1.919 . S
Zn37 O49 1.924 . S
O38 Zn37 1.949 1_455 S
O38 Zn39 1.923 . S
O38 Zn40 1.950 1_445 S
O38 Zn41 1.945 . S
Zn39 O38 1.923 . S
Zn39 O42 1.933 . S
Zn39 O45 1.941 . S
Zn39 O46 1.965 1_545 S
Zn40 O38 1.950 1_665 S
Zn40 O47 1.938 1_655 S
Zn40 O48 1.906 1_655 S
Zn40 O58 1.953 . S
Zn41 O38 1.945 . S
Zn41 O43 1.932 . S
Zn41 O50 1.977 1_545 S
Zn41 O51 1.910 1_455 S
O42 Zn39 1.933 . S
O42 C53 1.226 . S
O43 Zn41 1.932 . S
O43 C53 1.307 . S
O44 Zn37 1.919 . S
O44 C55 1.253 . S
O45 Zn39 1.941 . S
O45 C55 1.283 1_455 S
O46 Zn39 1.965 1_565 S
O46 C54 1.303 . S
O47 Zn40 1.938 1_455 S
O47 C54 1.247 . S
O48 Zn40 1.906 1_455 S
O48 C56 1.304 . S
O49 Zn37 1.924 . S
O49 C57 1.311 . S
O50 Zn41 1.977 1_565 S
O50 C56 1.272 . S
O51 Zn41 1.910 1_655 S
O51 C57 1.231 . S
C52 O36 1.225 . S
C52 O58 1.298 . S
C53 O42 1.226 . S
C53 O43 1.307 . S
C54 O46 1.303 . S
C54 O47 1.247 . S
C55 O44 1.253 . S
C55 O45 1.283 1_655 S
C56 O48 1.304 . S
C56 O50 1.272 . S
C57 O49 1.311 . S
C57 O51 1.231 . S
O58 Zn40 1.953 . S
O58 C52 1.298 . S
O59 Zn60 1.953 . S
O59 C75 1.225 1_556 S
Zn60 O59 1.953 . S
Zn60 O61 1.949 1_556 S
Zn60 O67 1.919 . S
Zn60 O72 1.924 1_556 S
O61 Zn60 1.949 1_554 S
O61 Zn62 1.923 1_554 S
O61 Zn63 1.950 . S
O61 Zn64 1.945 . S
Zn62 O61 1.923 1_556 S
Zn62 O65 1.933 . S
Zn62 O68 1.941 . S
Zn62 O69 1.965 . S
Zn63 O61 1.950 . S
Zn63 O70 1.938 1_554 S
Zn63 O71 1.906 . S
Zn63 O81 1.953 . S
Zn64 O61 1.945 . S
Zn64 O66 1.932 . S
Zn64 O73 1.977 . S
Zn64 O74 1.910 . S
O65 Zn62 1.933 . S
O65 C76 1.226 1_556 S
O66 Zn64 1.932 . S
O66 C76 1.307 . S
O67 Zn60 1.919 . S
O67 C78 1.253 . S
O68 Zn62 1.941 . S
O68 C78 1.283 . S
O69 Zn62 1.965 . S
O69 C77 1.303 . S
O70 Zn63 1.938 1_556 S
O70 C77 1.247 . S
O71 Zn63 1.906 . S
O71 C79 1.304 . S
O72 Zn60 1.924 1_554 S
O72 C80 1.311 . S
O73 Zn64 1.977 . S
O73 C79 1.272 . S
O74 Zn64 1.910 . S
O74 C80 1.231 . S
C75 O59 1.225 1_554 S
C75 O81 1.298 . S
C76 O65 1.226 1_554 S
C76 O66 1.307 . S
C77 O69 1.303 . S
C77 O70 1.247 . S
C78 O67 1.253 . S
C78 O68 1.283 . S
C79 O71 1.304 . S
C79 O73 1.272 . S
C80 O72 1.311 . S
C80 O74 1.231 . S
O81 Zn63 1.953 . S
O81 C75 1.298 . S
H82 C100 0.951 . S
H83 C102 0.951 . S
H84 C104 0.950 . S
H85 C105 0.950 . S
H86 C107 0.950 . S
H87 C110 0.950 . S
H88 C111 0.950 . S
H89 C113 0.950 . S
H90 C114 0.950 . S
H91 C115 0.951 . S
H92 C117 0.951 . S
H93 C119 0.950 . S
H94 C120 0.950 . S
H95 C122 0.950 . S
H96 C125 0.950 . S
H97 C126 0.950 . S
H98 C128 0.950 . S
H99 C129 0.950 . S
C100 H82 0.951 . S
C100 C101 1.366 . S
C100 C102 1.388 . S
C101 C100 1.366 . S
C101 C105 1.385 . S
C102 H83 0.951 . S
C102 C100 1.388 . S
C102 C103 1.366 . S
C103 C102 1.366 . S
C103 C104 1.414 . S
C103 C106 1.499 . S
C104 H84 0.950 . S
C104 C103 1.414 . S
C104 C105 1.374 . S
C105 H85 0.950 . S
C105 C101 1.385 . S
C105 C104 1.374 . S
C106 C103 1.499 . S
C106 C107 1.373 . S
C106 C108 1.389 . S
C107 H86 0.950 . S
C107 C106 1.373 . S
C107 C123 1.377 . S
C108 C106 1.389 . S
C108 C109 1.524 . S
C108 C122 1.377 . S
C109 C108 1.524 . S
C109 C110 1.397 . S
C109 C114 1.363 . S
C110 H87 0.950 . S
C110 C109 1.397 . S
C110 C111 1.334 . S
C111 H88 0.950 . S
C111 C110 1.334 . S
C111 C112 1.287 . S
C112 C111 1.287 . S
C112 C113 1.524 . S
C112 H131 0.913 . S
C113 H89 0.950 . S
C113 C112 1.524 . S
C113 C114 1.415 . S
C114 H90 0.950 . S
C114 C109 1.363 . S
C114 C113 1.415 . S
C115 H91 0.951 . S
C115 C116 1.366 . S
C115 C117 1.388 . S
C116 C115 1.366 . S
C116 C120 1.385 . S
C117 H92 0.951 . S
C117 C115 1.388 . S
C117 C118 1.366 . S
C118 C117 1.366 . S
C118 C119 1.414 . S
C118 C121 1.499 . S
C119 H93 0.950 . S
C119 C118 1.414 . S
C119 C120 1.374 . S
C120 H94 0.950 . S
C120 C116 1.385 . S
C120 C119 1.374 . S
C121 C118 1.499 . S
C121 C122 1.373 . S
C121 C123 1.389 . S
C122 H95 0.950 . S
C122 C108 1.377 . S
C122 C121 1.373 . S
C123 C107 1.377 . S
C123 C121 1.389 . S
C123 C124 1.524 . S
C124 C123 1.524 . S
C124 C125 1.397 . S
C124 C129 1.363 . S
C125 H96 0.950 . S
C125 C124 1.397 . S
C125 C126 1.334 . S
C126 H97 0.950 . S
C126 C125 1.334 . S
C126 C127 1.287 . S
C127 C126 1.287 . S
C127 C128 1.524 . S
C127 H130 0.999 . S
C128 H98 0.950 . S
C128 C127 1.524 . S
C128 C129 1.415 . S
C129 H99 0.950 . S
C129 C124 1.363 . S
C129 C128 1.415 . S
H130 C127 0.999 . S
H131 C112 0.913 . S
H132 C150 0.951 . S
H133 C152 0.951 . S
H134 C154 0.950 . S
H135 C155 0.950 . S
H136 C157 0.950 . S
H137 C160 0.950 . S
H138 C161 0.950 1_556 S
H139 C163 0.950 . S
H140 C164 0.950 . S
H141 C165 0.951 . S
H142 C167 0.951 . S
H143 C169 0.950 . S
H144 C170 0.950 . S
H145 C172 0.950 . S
H146 C175 0.950 . S
H147 C176 0.950 . S
H148 C178 0.950 . S
H149 C179 0.950 . S
C150 H132 0.951 . S
C150 C151 1.366 . S
C150 C152 1.388 . S
C151 C150 1.366 . S
C151 C155 1.385 1_554 S
C152 H133 0.951 . S
C152 C150 1.388 . S
C152 C153 1.366 . S
C153 C152 1.366 . S
C153 C154 1.414 1_554 S
C153 C156 1.499 . S
C154 H134 0.950 . S
C154 C153 1.414 1_556 S
C154 C155 1.374 . S
C155 H135 0.950 . S
C155 C151 1.385 1_556 S
C155 C154 1.374 . S
C156 C153 1.499 . S
C156 C157 1.373 1_554 S
C156 C158 1.389 . S
C157 H136 0.950 . S
C157 C156 1.373 1_556 S
C157 C173 1.377 . S
C158 C156 1.389 . S
C158 C159 1.524 . S
C158 C172 1.377 . S
C159 C158 1.524 . S
C159 C160 1.397 1_554 S
C159 C164 1.363 . S
C160 H137 0.950 . S
C160 C159 1.397 1_556 S
C160 C161 1.334 1_556 S
C161 H138 0.950 1_554 S
C161 C160 1.334 1_554 S
C161 C162 1.287 . S
C162 C161 1.287 . S
C162 C163 1.524 . S
C162 H181 0.913 . S
C163 H139 0.950 . S
C163 C162 1.524 . S
C163 C164 1.415 . S
C164 H140 0.950 . S
C164 C159 1.363 . S
C164 C163 1.415 . S
C165 H141 0.951 . S
C165 C166 1.366 1_556 S
C165 C167 1.388 . S
C166 C165 1.366 1_554 S
C166 C170 1.385 . S
C167 H142 0.951 . S
C167 C165 1.388 . S
C167 C168 1.366 1_556 S
C168 C167 1.366 1_554 S
C168 C169 1.414 . S
C168 C171 1.499 . S
C169 H143 0.950 . S
C169 C168 1.414 . S
C169 C170 1.374 . S
C170 H144 0.950 . S
C170 C166 1.385 . S
C170 C169 1.374 . S
C171 C168 1.499 . S
C171 C172 1.373 . S
C171 C173 1.389 1_554 S
C172 H145 0.950 . S
C172 C158 1.377 . S
C172 C171 1.373 . S
C173 C157 1.377 . S
C173 C171 1.389 1_556 S
C173 C174 1.524 . S
C174 C173 1.524 . S
C174 C175 1.397 1_556 S
C174 C179 1.363 . S
C175 H146 0.950 . S
C175 C174 1.397 1_554 S
C175 C176 1.334 . S
C176 H147 0.950 . S
C176 C175 1.334 . S
C176 C177 1.287 1_554 S
C177 C176 1.287 1_556 S
C177 C178 1.524 . S
C177 H180 0.999 . S
C178 H148 0.950 . S
C178 C177 1.524 . S
C178 C179 1.415 . S
C179 H149 0.950 . S
C179 C174 1.363 . S
C179 C178 1.415 . S
H180 C177 0.999 . S
H181 C162 0.913 . S
H182 C200 0.951 . S
H183 C202 0.951 . S
H184 C204 0.950 . S
H185 C205 0.950 . S
H186 C207 0.950 . S
H187 C210 0.950 . S
H188 C211 0.950 . S
H189 C213 0.950 . S
H190 C214 0.950 . S
H191 C215 0.951 . S
H192 C217 0.951 . S
H193 C219 0.950 . S
H194 C220 0.950 . S
H195 C222 0.950 . S
H196 C225 0.950 . S
H197 C226 0.950 . S
H198 C228 0.950 . S
H199 C229 0.950 . S
C200 H182 0.951 . S
C200 C201 1.366 . S
C200 C202 1.388 . S
C201 C200 1.366 . S
C201 C205 1.385 . S
C202 H183 0.951 . S
C202 C200 1.388 . S
C202 C203 1.366 . S
C203 C202 1.366 . S
C203 C204 1.414 . S
C203 C206 1.499 . S
C204 H184 0.950 . S
C204 C203 1.414 . S
C204 C205 1.374 . S
C205 H185 0.950 . S
C205 C201 1.385 . S
C205 C204 1.374 . S
C206 C203 1.499 . S
C206 C207 1.373 . S
C206 C208 1.389 . S
C207 H186 0.950 . S
C207 C206 1.373 . S
C207 C223 1.377 . S
C208 C206 1.389 . S
C208 C209 1.524 . S
C208 C222 1.377 . S
C209 C208 1.524 . S
C209 C210 1.397 . S
C209 C214 1.363 . S
C210 H187 0.950 . S
C210 C209 1.397 . S
C210 C211 1.334 . S
C211 H188 0.950 . S
C211 C210 1.334 . S
C211 C212 1.287 . S
C212 C211 1.287 . S
C212 C213 1.524 . S
C212 H231 0.913 . S
C213 H189 0.950 . S
C213 C212 1.524 . S
C213 C214 1.415 . S
C214 H190 0.950 . S
C214 C209 1.363 . S
C214 C213 1.415 . S
C215 H191 0.951 . S
C215 C216 1.366 . S
C215 C217 1.388 . S
C216 C215 1.366 . S
C216 C220 1.385 . S
C217 H192 0.951 . S
C217 C215 1.388 . S
C217 C218 1.366 . S
C218 C217 1.366 . S
C218 C219 1.414 . S
C218 C221 1.499 . S
C219 H193 0.950 . S
C219 C218 1.414 . S
C219 C220 1.374 . S
C220 H194 0.950 . S
C220 C216 1.385 . S
C220 C219 1.374 . S
C221 C218 1.499 . S
C221 C222 1.373 . S
C221 C223 1.389 . S
C222 H195 0.950 . S
C222 C208 1.377 . S
C222 C221 1.373 . S
C223 C207 1.377 . S
C223 C221 1.389 . S
C223 C224 1.524 . S
C224 C223 1.524 . S
C224 C225 1.397 . S
C224 C229 1.363 . S
C225 H196 0.950 . S
C225 C224 1.397 . S
C225 C226 1.334 . S
C226 H197 0.950 . S
C226 C225 1.334 . S
C226 C227 1.287 . S
C227 C226 1.287 . S
C227 C228 1.524 . S
C227 H230 0.999 . S
C228 H198 0.950 . S
C228 C227 1.524 . S
C228 C229 1.415 . S
C229 H199 0.950 . S
C229 C224 1.363 . S
C229 C228 1.415 . S
H230 C227 0.999 . S
H231 C212 0.913 . S
H232 C250 0.951 . S
H233 C252 0.951 . S
H234 C254 0.950 . S
H235 C255 0.950 . S
H236 C257 0.950 . S
H237 C260 0.950 . S
H238 C261 0.950 . S
H239 C263 0.950 . S
H240 C264 0.950 . S
H241 C265 0.951 . S
H242 C267 0.951 . S
H243 C269 0.950 . S
H244 C270 0.950 . S
H245 C272 0.950 . S
H246 C275 0.950 . S
H247 C276 0.950 . S
H248 C278 0.950 . S
H249 C279 0.950 . S
C250 H232 0.951 . S
C250 C251 1.366 1_556 S
C250 C252 1.388 . S
C251 C250 1.366 1_554 S
C251 C255 1.385 . S
C252 H233 0.951 . S
C252 C250 1.388 . S
C252 C253 1.366 1_556 S
C253 C252 1.366 1_554 S
C253 C254 1.414 . S
C253 C256 1.499 . S
C254 H234 0.950 . S
C254 C253 1.414 . S
C254 C255 1.374 . S
C255 H235 0.950 . S
C255 C251 1.385 . S
C255 C254 1.374 . S
C256 C253 1.499 . S
C256 C257 1.373 . S
C256 C258 1.389 1_554 S
C257 H236 0.950 . S
C257 C256 1.373 . S
C257 C273 1.377 . S
C258 C256 1.389 1_556 S
C258 C259 1.524 . S
C258 C272 1.377 . S
C259 C258 1.524 . S
C259 C260 1.397 1_556 S
C259 C264 1.363 . S
C260 H237 0.950 . S
C260 C259 1.397 1_554 S
C260 C261 1.334 . S
C261 H238 0.950 . S
C261 C260 1.334 . S
C261 C262 1.287 . S
C262 C261 1.287 . S
C262 C263 1.524 1_554 S
C262 H281 0.913 . S
C263 H239 0.950 . S
C263 C262 1.524 1_556 S
C263 C264 1.415 . S
C264 H240 0.950 . S
C264 C259 1.363 . S
C264 C263 1.415 . S
C265 H241 0.951 . S
C265 C266 1.366 . S
C265 C267 1.388 . S
C266 C265 1.366 . S
C266 C270 1.385 1_554 S
C267 H242 0.951 . S
C267 C265 1.388 . S
C267 C268 1.366 . S
C268 C267 1.366 . S
C268 C269 1.414 1_554 S
C268 C271 1.499 1_554 S
C269 H243 0.950 . S
C269 C268 1.414 1_556 S
C269 C270 1.374 . S
C270 H244 0.950 . S
C270 C266 1.385 1_556 S
C270 C269 1.374 . S
C271 C268 1.499 1_556 S
C271 C272 1.373 . S
C271 C273 1.390 1_556 S
C272 H245 0.950 . S
C272 C258 1.377 . S
C272 C271 1.373 . S
C273 C257 1.377 . S
C273 C271 1.390 1_554 S
C273 C274 1.524 . S
C274 C273 1.524 . S
C274 C275 1.397 1_554 S
C274 C279 1.363 . S
C275 H246 0.950 . S
C275 C274 1.397 1_556 S
C275 C276 1.334 . S
C276 H247 0.950 . S
C276 C275 1.334 . S
C276 C277 1.296 . S
C277 C276 1.296 . S
C277 C278 1.513 1_556 S
C277 H280 0.999 . S
C278 H248 0.950 . S
C278 C277 1.513 1_554 S
C278 C279 1.415 . S
C279 H249 0.950 . S
C279 C274 1.363 . S
C279 C278 1.415 . S
H280 C277 0.999 . S
H281 C262 0.913 . S
H282 C300 0.951 . S
H283 C302 0.951 . S
H284 C304 0.950 . S
H285 C305 0.950 . S
H286 C307 0.950 . S
H287 C310 0.950 . S
H288 C311 0.950 . S
H289 C313 0.950 . S
H290 C314 0.950 . S
H291 C315 0.951 . S
H292 C317 0.951 . S
H293 C319 0.950 . S
H294 C320 0.950 . S
H295 C322 0.950 . S
H296 C325 0.950 . S
H297 C326 0.950 . S
H298 C328 0.950 1_655 S
H299 C329 0.950 . S
C300 H282 0.951 . S
C300 C301 1.366 . S
C300 C302 1.388 . S
C301 C300 1.366 . S
C301 C305 1.385 . S
C302 H283 0.951 . S
C302 C300 1.388 . S
C302 C303 1.366 . S
C303 C302 1.366 . S
C303 C304 1.414 . S
C303 C306 1.499 . S
C304 H284 0.950 . S
C304 C303 1.414 . S
C304 C305 1.374 . S
C305 H285 0.950 . S
C305 C301 1.385 . S
C305 C304 1.374 . S
C306 C303 1.499 . S
C306 C307 1.373 . S
C306 C308 1.389 . S
C307 H286 0.950 . S
C307 C306 1.373 . S
C307 C323 1.377 . S
C308 C306 1.389 . S
C308 C309 1.524 . S
C308 C322 1.377 . S
C309 C308 1.524 . S
C309 C310 1.397 . S
C309 C314 1.363 . S
C310 H287 0.950 . S
C310 C309 1.397 . S
C310 C311 1.334 . S
C311 H288 0.950 . S
C311 C310 1.334 . S
C311 C312 1.287 . S
C312 C311 1.287 . S
C312 C313 1.524 . S
C312 H331 0.913 . S
C313 H289 0.950 . S
C313 C312 1.524 . S
C313 C314 1.415 . S
C314 H290 0.950 . S
C314 C309 1.363 . S
C314 C313 1.415 . S
C315 H291 0.951 . S
C315 C316 1.366 . S
C315 C317 1.388 . S
C316 C315 1.366 . S
C316 C320 1.385 . S
C317 H292 0.951 . S
C317 C315 1.388 . S
C317 C318 1.366 . S
C318 C317 1.366 . S
C318 C319 1.414 . S
C318 C321 1.499 . S
C319 H293 0.950 . S
C319 C318 1.414 . S
C319 C320 1.374 . S
C320 H294 0.950 . S
C320 C316 1.385 . S
C320 C319 1.374 . S
C321 C318 1.499 . S
C321 C322 1.373 . S
C321 C323 1.389 . S
C322 H295 0.950 . S
C322 C308 1.377 . S
C322 C321 1.373 . S
C323 C307 1.377 . S
C323 C321 1.389 . S
C323 C324 1.524 . S
C324 C323 1.524 . S
C324 C325 1.397 . S
C324 C329 1.363 . S
C325 H296 0.950 . S
C325 C324 1.397 . S
C325 C326 1.334 . S
C326 H297 0.950 . S
C326 C325 1.334 . S
C326 C327 1.287 . S
C327 C326 1.287 . S
C327 C328 1.524 . S
C327 H330 0.999 . S
C328 H298 0.950 1_455 S
C328 C327 1.524 . S
C328 C329 1.415 . S
C329 H299 0.950 . S
C329 C324 1.363 . S
C329 C328 1.415 . S
H330 C327 0.999 . S
H331 C312 0.913 . S
H332 C350 0.951 . S
H333 C352 0.951 . S
H334 C354 0.950 . S
H335 C355 0.950 . S
H336 C357 0.950 . S
H337 C360 0.950 . S
H338 C361 0.950 . S
H339 C363 0.950 . S
H340 C364 0.950 . S
H341 C365 0.951 . S
H342 C367 0.951 . S
H343 C369 0.950 . S
H344 C370 0.950 . S
H345 C372 0.950 . S
H346 C375 0.950 . S
H347 C376 0.950 . S
H348 C378 0.950 . S
H349 C379 0.950 . S
C350 H332 0.951 . S
C350 C351 1.366 . S
C350 C352 1.388 . S
C351 C350 1.366 . S
C351 C355 1.385 . S
C352 H333 0.951 . S
C352 C350 1.388 . S
C352 C353 1.366 . S
C353 C352 1.366 . S
C353 C354 1.414 . S
C353 C356 1.499 . S
C354 H334 0.950 . S
C354 C353 1.414 . S
C354 C355 1.374 . S
C355 H335 0.950 . S
C355 C351 1.385 . S
C355 C354 1.374 . S
C356 C353 1.499 . S
C356 C357 1.373 . S
C356 C358 1.389 . S
C357 H336 0.950 . S
C357 C356 1.373 . S
C357 C373 1.377 . S
C358 C356 1.389 . S
C358 C359 1.524 . S
C358 C372 1.377 . S
C359 C358 1.524 . S
C359 C360 1.397 . S
C359 C364 1.363 . S
C360 H337 0.950 . S
C360 C359 1.397 . S
C360 C361 1.334 . S
C361 H338 0.950 . S
C361 C360 1.334 . S
C361 C362 1.287 . S
C362 C361 1.287 . S
C362 C363 1.524 . S
C362 H381 0.913 . S
C363 H339 0.950 . S
C363 C362 1.524 . S
C363 C364 1.415 . S
C364 H340 0.950 . S
C364 C359 1.363 . S
C364 C363 1.415 . S
C365 H341 0.951 . S
C365 C366 1.366 . S
C365 C367 1.388 . S
C366 C365 1.366 . S
C366 C370 1.385 . S
C367 H342 0.951 . S
C367 C365 1.388 . S
C367 C368 1.366 . S
C368 C367 1.366 . S
C368 C369 1.414 . S
C368 C371 1.499 . S
C369 H343 0.950 . S
C369 C368 1.414 . S
C369 C370 1.374 . S
C370 H344 0.950 . S
C370 C366 1.385 . S
C370 C369 1.374 . S
C371 C368 1.499 . S
C371 C372 1.373 . S
C371 C373 1.389 . S
C372 H345 0.950 . S
C372 C358 1.377 . S
C372 C371 1.373 . S
C373 C357 1.377 . S
C373 C371 1.389 . S
C373 C374 1.524 . S
C374 C373 1.524 . S
C374 C375 1.397 . S
C374 C379 1.363 . S
C375 H346 0.950 . S
C375 C374 1.397 . S
C375 C376 1.334 . S
C376 H347 0.950 . S
C376 C375 1.334 . S
C376 C377 1.287 . S
C377 C376 1.287 . S
C377 C378 1.524 . S
C377 H380 0.999 . S
C378 H348 0.950 . S
C378 C377 1.524 . S
C378 C379 1.415 . S
C379 H349 0.950 . S
C379 C374 1.363 . S
C379 C378 1.415 . S
H380 C377 0.999 . S
H381 C362 0.913 . S
H382 C400 0.951 . S
H383 C402 0.951 . S
H384 C404 0.950 . S
H385 C405 0.950 . S
H386 C407 0.950 . S
H387 C410 0.950 . S
H388 C411 0.950 . S
H389 C413 0.950 . S
H390 C414 0.950 . S
H391 C415 0.951 . S
H392 C417 0.951 . S
H393 C419 0.950 . S
H394 C420 0.950 . S
H395 C422 0.950 . S
H396 C425 0.950 . S
H397 C426 0.950 1_455 S
H398 C428 0.950 . S
H399 C429 0.950 . S
C400 H382 0.951 . S
C400 C401 1.366 . S
C400 C402 1.388 . S
C401 C400 1.366 . S
C401 C405 1.385 . S
C402 H383 0.951 . S
C402 C400 1.388 . S
C402 C403 1.366 . S
C403 C402 1.366 . S
C403 C404 1.414 . S
C403 C406 1.499 . S
C404 H384 0.950 . S
C404 C403 1.414 . S
C404 C405 1.374 . S
C405 H385 0.950 . S
C405 C401 1.385 . S
C405 C404 1.374 . S
C406 C403 1.499 . S
C406 C407 1.373 . S
C406 C408 1.389 . S
C407 H386 0.950 . S
C407 C406 1.373 . S
C407 C423 1.377 . S
C408 C406 1.389 . S
C408 C409 1.524 . S
C408 C422 1.377 . S
C409 C408 1.524 . S
C409 C410 1.397 . S
C409 C414 1.363 . S
C410 H387 0.950 . S
C410 C409 1.397 . S
C410 C411 1.334 . S
C411 H388 0.950 . S
C411 C410 1.334 . S
C411 C412 1.287 . S
C412 C411 1.287 . S
C412 C413 1.524 . S
C412 H431 0.913 . S
C413 H389 0.950 . S
C413 C412 1.524 . S
C413 C414 1.415 . S
C414 H390 0.950 . S
C414 C409 1.363 . S
C414 C413 1.415 . S
C415 H391 0.951 . S
C415 C416 1.366 . S
C415 C417 1.388 . S
C416 C415 1.366 . S
C416 C420 1.385 . S
C417 H392 0.951 . S
C417 C415 1.388 . S
C417 C418 1.366 . S
C418 C417 1.366 . S
C418 C419 1.414 . S
C418 C421 1.499 . S
C419 H393 0.950 . S
C419 C418 1.414 . S
C419 C420 1.374 . S
C420 H394 0.950 . S
C420 C416 1.385 . S
C420 C419 1.374 . S
C421 C418 1.499 . S
C421 C422 1.373 . S
C421 C423 1.389 . S
C422 H395 0.950 . S
C422 C408 1.377 . S
C422 C421 1.373 . S
C423 C407 1.377 . S
C423 C421 1.389 . S
C423 C424 1.524 . S
C424 C423 1.524 . S
C424 C425 1.397 . S
C424 C429 1.363 . S
C425 H396 0.950 . S
C425 C424 1.397 . S
C425 C426 1.334 . S
C426 H397 0.950 1_655 S
C426 C425 1.334 . S
C426 C427 1.287 . S
C427 C426 1.287 . S
C427 C428 1.524 . S
C427 H430 0.999 . S
C428 H398 0.950 . S
C428 C427 1.524 . S
C428 C429 1.415 . S
C429 H399 0.950 . S
C429 C424 1.363 . S
C429 C428 1.415 . S
H430 C427 0.999 . S
H431 C412 0.913 . S
H432 C450 0.951 . S
H433 C452 0.951 . S
H434 C454 0.950 . S
H435 C455 0.950 . S
H436 C457 0.950 . S
H437 C460 0.950 . S
H438 C461 0.950 . S
H439 C463 0.950 . S
H440 C464 0.950 . S
H441 C465 0.951 . S
H442 C467 0.951 . S
H443 C469 0.950 . S
H444 C470 0.950 . S
H445 C472 0.950 . S
H446 C475 0.950 . S
H447 C476 0.950 . S
H448 C478 0.950 . S
H449 C479 0.950 . S
C450 H432 0.951 . S
C450 C451 1.366 . S
C450 C452 1.388 . S
C451 C450 1.366 . S
C451 C455 1.385 . S
C452 H433 0.951 . S
C452 C450 1.388 . S
C452 C453 1.366 . S
C453 C452 1.366 . S
C453 C454 1.414 . S
C453 C456 1.499 . S
C454 H434 0.950 . S
C454 C453 1.414 . S
C454 C455 1.374 . S
C455 H435 0.950 . S
C455 C451 1.385 . S
C455 C454 1.374 . S
C456 C453 1.499 . S
C456 C457 1.373 . S
C456 C458 1.389 . S
C457 H436 0.950 . S
C457 C456 1.373 . S
C457 C473 1.377 . S
C458 C456 1.389 . S
C458 C459 1.524 . S
C458 C472 1.377 . S
C459 C458 1.524 . S
C459 C460 1.397 . S
C459 C464 1.363 . S
C460 H437 0.950 . S
C460 C459 1.397 . S
C460 C461 1.334 . S
C461 H438 0.950 . S
C461 C460 1.334 . S
C461 C462 1.287 . S
C462 C461 1.287 . S
C462 C463 1.524 . S
C462 H481 0.913 . S
C463 H439 0.950 . S
C463 C462 1.524 . S
C463 C464 1.415 . S
C464 H440 0.950 . S
C464 C459 1.363 . S
C464 C463 1.415 . S
C465 H441 0.951 . S
C465 C466 1.366 . S
C465 C467 1.388 . S
C466 C465 1.366 . S
C466 C470 1.385 . S
C467 H442 0.951 . S
C467 C465 1.388 . S
C467 C468 1.366 . S
C468 C467 1.366 . S
C468 C469 1.414 . S
C468 C471 1.499 . S
C469 H443 0.950 . S
C469 C468 1.414 . S
C469 C470 1.374 . S
C470 H444 0.950 . S
C470 C466 1.385 . S
C470 C469 1.374 . S
C471 C468 1.499 . S
C471 C472 1.373 . S
C471 C473 1.389 . S
C472 H445 0.950 . S
C472 C458 1.377 . S
C472 C471 1.373 . S
C473 C457 1.377 . S
C473 C471 1.389 . S
C473 C474 1.524 . S
C474 C473 1.524 . S
C474 C475 1.397 . S
C474 C479 1.363 . S
C475 H446 0.950 . S
C475 C474 1.397 . S
C475 C476 1.334 . S
C476 H447 0.950 . S
C476 C475 1.334 . S
C476 C477 1.287 . S
C477 C476 1.287 . S
C477 C478 1.524 . S
C477 H480 0.999 . S
C478 H448 0.950 . S
C478 C477 1.524 . S
C478 C479 1.415 . S
C479 H449 0.950 . S
C479 C474 1.363 . S
C479 C478 1.415 . S
H480 C477 0.999 . S
H481 C462 0.913 . S
H482 C500 0.951 . S
H483 C502 0.951 . S
H484 C504 0.950 . S
H485 C505 0.950 . S
H486 C507 0.950 . S
H487 C510 0.950 . S
H488 C511 0.950 . S
H489 C513 0.950 . S
H490 C514 0.950 . S
H491 C515 0.951 . S
H492 C517 0.951 . S
H493 C519 0.950 . S
H494 C520 0.950 . S
H495 C522 0.950 . S
H496 C525 0.950 . S
H497 C526 0.950 . S
H498 C528 0.950 . S
H499 C529 0.950 . S
C500 H482 0.951 . S
C500 C501 1.366 . S
C500 C502 1.388 . S
C501 C500 1.366 . S
C501 C505 1.385 . S
C502 H483 0.951 . S
C502 C500 1.388 . S
C502 C503 1.366 . S
C503 C502 1.366 . S
C503 C504 1.414 . S
C503 C506 1.499 . S
C504 H484 0.950 . S
C504 C503 1.414 . S
C504 C505 1.374 . S
C505 H485 0.950 . S
C505 C501 1.385 . S
C505 C504 1.374 . S
C506 C503 1.499 . S
C506 C507 1.373 . S
C506 C508 1.389 . S
C507 H486 0.950 . S
C507 C506 1.373 . S
C507 C523 1.377 . S
C508 C506 1.389 . S
C508 C509 1.524 . S
C508 C522 1.377 . S
C509 C508 1.524 . S
C509 C510 1.397 . S
C509 C514 1.363 . S
C510 H487 0.950 . S
C510 C509 1.397 . S
C510 C511 1.334 . S
C511 H488 0.950 . S
C511 C510 1.334 . S
C511 C512 1.287 . S
C512 C511 1.287 . S
C512 C513 1.524 . S
C512 H531 0.913 . S
C513 H489 0.950 . S
C513 C512 1.524 . S
C513 C514 1.415 . S
C514 H490 0.950 . S
C514 C509 1.363 . S
C514 C513 1.415 . S
C515 H491 0.951 . S
C515 C516 1.366 . S
C515 C517 1.388 . S
C516 C515 1.366 . S
C516 C520 1.385 . S
C517 H492 0.951 . S
C517 C515 1.388 . S
C517 C518 1.366 . S
C518 C517 1.366 . S
C518 C519 1.414 . S
C518 C521 1.499 . S
C519 H493 0.950 . S
C519 C518 1.414 . S
C519 C520 1.374 . S
C520 H494 0.950 . S
C520 C516 1.385 . S
C520 C519 1.374 . S
C521 C518 1.499 . S
C521 C522 1.373 . S
C521 C523 1.389 . S
C522 H495 0.950 . S
C522 C508 1.377 . S
C522 C521 1.373 . S
C523 C507 1.377 . S
C523 C521 1.389 . S
C523 C524 1.524 . S
C524 C523 1.524 . S
C524 C525 1.397 . S
C524 C529 1.363 . S
C525 H496 0.950 . S
C525 C524 1.397 . S
C525 C526 1.334 . S
C526 H497 0.950 . S
C526 C525 1.334 . S
C526 C527 1.287 . S
C527 C526 1.287 . S
C527 C528 1.524 . S
C527 H530 0.999 . S
C528 H498 0.950 . S
C528 C527 1.524 . S
C528 C529 1.415 . S
C529 H499 0.950 . S
C529 C524 1.363 . S
C529 C528 1.415 . S
H530 C527 0.999 . S
H531 C512 0.913 . S
H532 C550 0.951 . S
H533 C552 0.951 . S
H534 C554 0.950 . S
H535 C555 0.950 . S
H536 C557 0.950 . S
H537 C560 0.950 . S
H538 C561 0.950 . S
H539 C563 0.950 . S
H540 C564 0.950 . S
H541 C565 0.951 . S
H542 C567 0.951 . S
H543 C569 0.950 1_455 S
H544 C570 0.953 . S
H545 C572 0.950 . S
H546 C575 0.950 . S
H547 C576 0.950 1_455 S
H548 C578 0.950 . S
H549 C579 0.950 . S
C550 H532 0.951 . S
C550 C551 1.366 . S
C550 C552 1.388 . S
C551 C550 1.366 . S
C551 C555 1.385 . S
C552 H533 0.951 . S
C552 C550 1.388 . S
C552 C553 1.366 . S
C553 C552 1.366 . S
C553 C554 1.414 . S
C553 C556 1.499 . S
C554 H534 0.950 . S
C554 C553 1.414 . S
C554 C555 1.374 . S
C555 H535 0.950 . S
C555 C551 1.385 . S
C555 C554 1.374 . S
C556 C553 1.499 . S
C556 C557 1.373 . S
C556 C558 1.389 . S
C557 H536 0.950 . S
C557 C556 1.373 . S
C557 C573 1.377 . S
C558 C556 1.389 . S
C558 C559 1.524 . S
C558 C572 1.377 . S
C559 C558 1.524 . S
C559 C560 1.397 . S
C559 C564 1.363 . S
C560 H537 0.950 . S
C560 C559 1.397 . S
C560 C561 1.334 . S
C561 H538 0.950 . S
C561 C560 1.334 . S
C561 C562 1.287 . S
C562 C561 1.287 . S
C562 C563 1.524 . S
C562 H581 0.913 . S
C563 H539 0.950 . S
C563 C562 1.524 . S
C563 C564 1.415 . S
C564 H540 0.950 . S
C564 C559 1.363 . S
C564 C563 1.415 . S
C565 H541 0.951 . S
C565 C566 1.366 . S
C565 C567 1.388 . S
C566 C565 1.366 . S
C566 C570 1.383 1_655 S
C567 H542 0.951 . S
C567 C565 1.388 . S
C567 C568 1.366 . S
C568 C567 1.366 . S
C568 C569 1.414 . S
C568 C571 1.499 . S
C569 H543 0.950 1_655 S
C569 C568 1.414 . S
C569 C570 1.373 1_655 S
C570 H544 0.953 . S
C570 C566 1.383 1_455 S
C570 C569 1.373 1_455 S
C571 C568 1.499 . S
C571 C572 1.373 . S
C571 C573 1.389 . S
C572 H545 0.950 . S
C572 C558 1.377 . S
C572 C571 1.373 . S
C573 C557 1.377 . S
C573 C571 1.389 . S
C573 C574 1.524 . S
C574 C573 1.524 . S
C574 C575 1.397 . S
C574 C579 1.363 . S
C575 H546 0.950 . S
C575 C574 1.397 . S
C575 C576 1.334 . S
C576 H547 0.950 1_655 S
C576 C575 1.334 . S
C576 C577 1.287 . S
C577 C576 1.287 . S
C577 C578 1.524 . S
C577 H580 0.999 . S
C578 H548 0.950 . S
C578 C577 1.524 . S
C578 C579 1.415 . S
C579 H549 0.950 . S
C579 C574 1.363 . S
C579 C578 1.415 . S
H580 C577 0.999 . S
H581 C562 0.913 . S
H582 C600 0.951 . S
H583 C602 0.951 . S
H584 C604 0.950 . S
H585 C605 0.950 . S
H586 C607 0.950 . S
H587 C610 0.950 . S
H588 C611 0.950 . S
H589 C613 0.950 . S
H590 C614 0.950 . S
H591 C615 0.951 . S
H592 C617 0.951 . S
H593 C619 0.950 . S
H594 C620 0.950 . S
H595 C622 0.950 . S
H596 C625 0.950 . S
H597 C626 0.950 . S
H598 C628 0.950 . S
H599 C629 0.950 . S
C600 H582 0.951 . S
C600 C601 1.366 . S
C600 C602 1.388 . S
C601 C600 1.366 . S
C601 C605 1.385 . S
C602 H583 0.951 . S
C602 C600 1.388 . S
C602 C603 1.366 . S
C603 C602 1.366 . S
C603 C604 1.414 . S
C603 C606 1.499 . S
C604 H584 0.950 . S
C604 C603 1.414 . S
C604 C605 1.374 . S
C605 H585 0.950 . S
C605 C601 1.385 . S
C605 C604 1.374 . S
C606 C603 1.499 . S
C606 C607 1.373 . S
C606 C608 1.389 . S
C607 H586 0.950 . S
C607 C606 1.373 . S
C607 C623 1.377 . S
C608 C606 1.389 . S
C608 C609 1.524 . S
C608 C622 1.377 . S
C609 C608 1.524 . S
C609 C610 1.397 . S
C609 C614 1.363 . S
C610 H587 0.950 . S
C610 C609 1.397 . S
C610 C611 1.334 . S
C611 H588 0.950 . S
C611 C610 1.334 . S
C611 C612 1.287 . S
C612 C611 1.287 . S
C612 C613 1.524 . S
C612 H631 0.913 . S
C613 H589 0.950 . S
C613 C612 1.524 . S
C613 C614 1.415 . S
C614 H590 0.950 . S
C614 C609 1.363 . S
C614 C613 1.415 . S
C615 H591 0.951 . S
C615 C616 1.366 . S
C615 C617 1.388 . S
C616 C615 1.366 . S
C616 C620 1.385 . S
C617 H592 0.951 . S
C617 C615 1.388 . S
C617 C618 1.366 . S
C618 C617 1.366 . S
C618 C619 1.414 . S
C618 C621 1.499 . S
C619 H593 0.950 . S
C619 C618 1.414 . S
C619 C620 1.374 . S
C620 H594 0.950 . S
C620 C616 1.385 . S
C620 C619 1.374 . S
C621 C618 1.499 . S
C621 C622 1.373 . S
C621 C623 1.389 . S
C622 H595 0.950 . S
C622 C608 1.377 . S
C622 C621 1.373 . S
C623 C607 1.377 . S
C623 C621 1.389 . S
C623 C624 1.524 . S
C624 C623 1.524 . S
C624 C625 1.397 . S
C624 C629 1.363 . S
C625 H596 0.950 . S
C625 C624 1.397 . S
C625 C626 1.334 . S
C626 H597 0.950 . S
C626 C625 1.334 . S
C626 C627 1.287 . S
C627 C626 1.287 . S
C627 C628 1.524 . S
C627 H630 0.999 . S
C628 H598 0.950 . S
C628 C627 1.524 . S
C628 C629 1.415 . S
C629 H599 0.950 . S
C629 C624 1.363 . S
C629 C628 1.415 . S
H630 C627 0.999 . S
H631 C612 0.913 . S
H632 C650 0.951 . S
H633 C652 0.951 . S
H634 C654 0.950 . S
H635 C655 0.950 . S
H636 C657 0.950 . S
H637 C660 0.950 . S
H638 C661 0.950 . S
H639 C663 0.950 . S
H640 C664 0.950 . S
H641 C665 0.951 1_655 S
H642 C667 0.943 1_655 S
H643 C669 0.950 . S
H644 C670 0.950 . S
H645 C672 0.950 . S
H646 C675 0.950 . S
H647 C676 0.950 . S
H648 C678 0.950 . S
H649 C679 0.950 . S
C650 H632 0.951 . S
C650 C651 1.366 . S
C650 C652 1.388 . S
C651 C650 1.366 . S
C651 C655 1.385 . S
C652 H633 0.951 . S
C652 C650 1.388 . S
C652 C653 1.366 . S
C653 C652 1.366 . S
C653 C654 1.414 . S
C653 C656 1.499 . S
C654 H634 0.950 . S
C654 C653 1.414 . S
C654 C655 1.374 . S
C655 H635 0.950 . S
C655 C651 1.385 . S
C655 C654 1.374 . S
C656 C653 1.499 . S
C656 C657 1.373 . S
C656 C658 1.389 . S
C657 H636 0.950 . S
C657 C656 1.373 . S
C657 C673 1.377 . S
C658 C656 1.389 . S
C658 C659 1.524 . S
C658 C672 1.377 . S
C659 C658 1.524 . S
C659 C660 1.397 . S
C659 C664 1.363 . S
C660 H637 0.950 . S
C660 C659 1.397 . S
C660 C661 1.334 . S
C661 H638 0.950 . S
C661 C660 1.334 . S
C661 C662 1.287 . S
C662 C661 1.287 . S
C662 C663 1.524 . S
C662 H681 0.913 . S
C663 H639 0.950 . S
C663 C662 1.524 . S
C663 C664 1.415 . S
C664 H640 0.950 . S
C664 C659 1.363 . S
C664 C663 1.415 . S
C665 H641 0.951 1_455 S
C665 C666 1.366 . S
C665 C667 1.388 . S
C666 C665 1.366 . S
C666 C670 1.385 . S
C667 H642 0.943 1_455 S
C667 C665 1.388 . S
C667 C668 1.366 . S
C668 C667 1.366 . S
C668 C669 1.414 . S
C668 C671 1.499 . S
C669 H643 0.950 . S
C669 C668 1.414 . S
C669 C670 1.374 . S
C670 H644 0.950 . S
C670 C666 1.385 . S
C670 C669 1.374 . S
C671 C668 1.499 . S
C671 C672 1.373 . S
C671 C673 1.389 . S
C672 H645 0.950 . S
C672 C658 1.377 . S
C672 C671 1.373 . S
C673 C657 1.377 . S
C673 C671 1.389 . S
C673 C674 1.524 . S
C674 C673 1.524 . S
C674 C675 1.397 . S
C674 C679 1.363 1_455 S
C675 H646 0.950 . S
C675 C674 1.397 . S
C675 C676 1.334 1_455 S
C676 H647 0.950 . S
C676 C675 1.334 1_655 S
C676 C677 1.287 . S
C677 C676 1.287 . S
C677 C678 1.524 . S
C677 H680 0.999 . S
C678 H648 0.950 . S
C678 C677 1.524 . S
C678 C679 1.415 . S
C679 H649 0.950 . S
C679 C674 1.363 1_655 S
C679 C678 1.415 . S
H680 C677 0.999 . S
H681 C662 0.913 . S
C116 C53 1.525 . S
C101 C34 1.513 . S
C151 C7 1.509 . S
C166 C76 1.525 . S
C201 C16 1.531 . S
C216 C52 1.548 . S
C251 C25 1.531 . S
C266 C75 1.547 . S
C316 C56 1.466 . S
C301 C5 1.493 . S
C366 C78 1.502 . S
C351 C13 1.540 . S
C401 C23 1.506 . S
C416 C57 1.481 . S
C451 C32 1.527 . S
C466 C77 1.496 . S
C516 C80 1.478 . S
C501 C14 1.503 . S
C566 C55 1.500 . S
C551 C22 1.538 . S
C616 C79 1.463 . S
C601 C31 1.496 . S
C651 C4 1.521 . S
C666 C54 1.493 . S
