# Generated by pormake.
# Topology pth, (4,4)-cn, num edge types: 1
# Building blocks:
#     Node 0, Type 0, BuildingBlock: UXUYUI_clean_sbu_0, # of connection points: 4
#     Node 1, Type 0, BuildingBlock: UXUYUI_clean_sbu_0, # of connection points: 4
#     Node 2, Type 0, BuildingBlock: UXUYUI_clean_sbu_0, # of connection points: 4
#     Node 3, Type 1, BuildingBlock: AZAVOO_clean_linker_0, # of connection points: 4
#     Node 4, Type 1, BuildingBlock: AZAVOO_clean_linker_0, # of connection points: 4
#     Node 5, Type 1, BuildingBlock: AZAVOO_clean_linker_0, # of connection points: 4
#     Edge 6, Type (0, 1), BuildingBlock: AJUNOK_clean_linker_0, # of connection points: 2
#     Edge 7, Type (0, 1), BuildingBlock: AJUNOK_clean_linker_0, # of connection points: 2
#     Edge 8, Type (0, 1), BuildingBlock: AJUNOK_clean_linker_0, # of connection points: 2
#     Edge 9, Type (0, 1), BuildingBlock: AJUNOK_clean_linker_0, # of connection points: 2
#     Edge 10, Type (0, 1), BuildingBlock: AJUNOK_clean_linker_0, # of connection points: 2
#     Edge 11, Type (0, 1), BuildingBlock: AJUNOK_clean_linker_0, # of connection points: 2
#     Edge 12, Type (0, 1), BuildingBlock: AJUNOK_clean_linker_0, # of connection points: 2
#     Edge 13, Type (0, 1), BuildingBlock: AJUNOK_clean_linker_0, # of connection points: 2
#     Edge 14, Type (0, 1), BuildingBlock: AJUNOK_clean_linker_0, # of connection points: 2
#     Edge 15, Type (0, 1), BuildingBlock: AJUNOK_clean_linker_0, # of connection points: 2
#     Edge 16, Type (0, 1), BuildingBlock: AJUNOK_clean_linker_0, # of connection points: 2
#     Edge 17, Type (0, 1), BuildingBlock: AJUNOK_clean_linker_0, # of connection points: 2
# Relax obj value: 0.184
# Max RMSD: 0.234
# Mean RMSD: 0.228
data_MOF--net-pth--node1-UXUYUI_clean_sbu_0--node2-AZAVOO_clean_linker_0--edge1-AJUNOK_clean_linker_0
_symmetry_space_group_name_H-M    P1
_symmetry_Int_Tables_number       1
_symmetry_cell_setting            triclinic
loop_
_symmetry_equiv_pos_as_xyz
'x, y, z'
_cell_length_a     25.629268
_cell_length_b     25.629664
_cell_length_c     69.101622
_cell_angle_alpha  91.292456
_cell_angle_beta   88.966919
_cell_angle_gamma 120.00893
loop_
_atom_site_label
_atom_site_type_symbol
_atom_site_fract_x
_atom_site_fract_y
_atom_site_fract_z
_atom_type_partial_charge
Li0 Li 0.13462 0.09882 0.06434 0.0
Li1 Li 0.05783 0.08758 0.08791 0.0
Li2 Li 0.08911 0.01049 0.08384 0.0
Li3 Li 0.02739 0.02013 0.05912 0.0
C4 C 0.19482 0.13999 0.09682 0.0
N5 N 0.3111 0.23128 0.10409 0.0
C6 C 0.20509 0.19425 0.10534 0.0
C7 C 0.24365 0.13187 0.09222 0.0
C8 C 0.26422 0.23993 0.10886 0.0
C9 C 0.30211 0.17865 0.09593 0.0
C10 C 0.03742 0.14231 0.05582 0.0
C11 C 0.9492 0.14846 0.04814 0.0
N12 N 0.98424 0.20914 0.0463 0.0
C13 C 0.07264 0.20462 0.05355 0.0
C14 C 0.97528 0.11387 0.05284 0.0
C15 C 0.04489 0.23766 0.04886 0.0
C16 C 0.22223 0.13428 0.0352 0.0
N17 N 0.20376 0.15529 0.05052 0.0
C18 C 0.27414 0.25708 0.04234 0.0
C19 C 0.2291 0.21529 0.05443 0.0
C20 C 0.29251 0.23664 0.02602 0.0
C21 C 0.26684 0.17444 0.02267 0.0
H22 H 0.20051 0.08639 0.03223 0.0
H23 H 0.21256 0.23077 0.06644 0.0
C24 C 0.01185 0.09485 0.12383 0.0
N25 N 0.03628 0.12667 0.10742 0.0
C26 C 0.00266 0.12243 0.14012 0.0
C27 C 0.04328 0.21495 0.12226 0.0
C28 C 0.05134 0.18543 0.10625 0.0
C29 C 0.01997 0.18367 0.1396 0.0
H30 H 0.00142 0.04849 0.12447 0.0
H31 H 0.07254 0.21029 0.0933 0.0
C32 C 0.11154 0.9673 0.05188 0.0
N33 N 0.13153 0.87193 0.0454 0.0
C34 C 0.06518 0.91208 0.04493 0.0
C35 C 0.16824 0.97423 0.05532 0.0
C36 C 0.07614 0.86435 0.04179 0.0
C37 C 0.1774 0.92541 0.05203 0.0
C38 C 0.94588 0.96742 0.09051 0.0
C39 C 0.91706 0.9064 0.09519 0.0
C40 C 0.91267 0.9971 0.09021 0.0
C41 C 0.85519 0.87579 0.09908 0.0
C42 C 0.8509 0.96496 0.0942 0.0
N43 N 0.82365 0.90544 0.09849 0.0
C44 C 0.13988 0.97696 0.11316 0.0
C45 C 0.06318 0.89467 0.09549 0.0
C46 C 0.14233 0.93784 0.12632 0.0
N47 N 0.10002 0.9549 0.09833 0.0
C48 C 0.06428 0.85386 0.10829 0.0
C49 C 0.10299 0.87562 0.12423 0.0
H50 H 0.16788 0.02504 0.11529 0.0
H51 H 0.03101 0.87844 0.08384 0.0
C52 C 0.9887 0.00734 0.02147 0.0
N53 N 0.9711 0.98056 0.03898 0.0
C54 C 0.95488 0.97901 0.00498 0.0
C55 C 0.88462 0.89658 0.02495 0.0
C56 C 0.91989 0.92647 0.04106 0.0
C57 C 0.9025 0.92255 0.00659 0.0
H58 H 0.03029 0.04989 0.02024 0.0
H59 H 0.90754 0.90537 0.055 0.0
O60 O 0.13728 0.09495 0.09307 0.0
O61 O 0.0641 0.10924 0.06017 0.0
O62 O 0.10154 0.0144 0.05522 0.0
O63 O 0.0065 0.998 0.08672 0.0
H64 H 0.16789 0.20119 0.10913 0.0
H65 H 0.23646 0.08999 0.08577 0.0
H66 H 0.27284 0.28227 0.11536 0.0
H67 H 0.34032 0.17311 0.09233 0.0
H68 H 0.90113 0.12701 0.04588 0.0
H69 H 0.12086 0.22735 0.05555 0.0
H70 H 0.9474 0.06557 0.05397 0.0
H71 H 0.07159 0.28598 0.04723 0.0
H72 H 0.29209 0.30477 0.04514 0.0
H73 H 0.27983 0.15719 0.01016 0.0
H74 H 0.98356 0.09651 0.15311 0.0
H75 H 0.05766 0.26241 0.12136 0.0
H76 H 0.02106 0.90589 0.04214 0.0
H77 H 0.20476 0.01682 0.06051 0.0
H78 H 0.04058 0.82126 0.03652 0.0
H79 H 0.22098 0.93006 0.05473 0.0
H80 H 0.94209 0.8828 0.0957 0.0
H81 H 0.9344 0.04461 0.08717 0.0
H82 H 0.83226 0.82847 0.10259 0.0
H83 H 0.82468 0.9874 0.09397 0.0
H84 H 0.17321 0.95608 0.13836 0.0
H85 H 0.03308 0.8061 0.10632 0.0
H86 H 0.97092 -0.00012 0.99103 0.0
H87 H 0.84452 0.85296 0.02674 0.0
Li88 Li 0.06308 0.98524 0.399 0.0
Li89 Li 0.13355 0.06789 0.41832 0.0
Li90 Li 0.02885 0.03221 0.4245 0.0
Li91 Li 0.07854 0.08463 0.39466 0.0
C92 C 0.03612 0.93404 0.43618 0.0
N93 N 0.96124 0.82489 0.45347 0.0
C94 C 0.05776 0.91379 0.45096 0.0
C95 C 0.97626 0.8989 0.43025 0.0
C96 C 0.01924 0.85844 0.4595 0.0
C97 C 0.93917 0.84382 0.43916 0.0
C98 C 0.17985 0.04158 0.38543 0.0
C99 C 0.25717 0.04538 0.3641 0.0
N100 N 0.26465 0.00836 0.37611 0.0
C101 C 0.18828 0.00349 0.39756 0.0
C102 C 0.21452 0.06266 0.36856 0.0
C103 C 0.23138 0.98726 0.3926 0.0
C104 C 0.04458 0.91271 0.36615 0.0
N105 N 0.05012 0.9135 0.38568 0.0
C106 C 0.04883 0.81949 0.38421 0.0
C107 C 0.05304 0.86848 0.39479 0.0
C108 C 0.0423 0.81716 0.36405 0.0
C109 C 0.04043 0.86471 0.35499 0.0
H110 H 0.04549 0.95048 0.35916 0.0
H111 H 0.06059 0.87114 0.41016 0.0
C112 C 0.19682 0.08347 0.45143 0.0
N113 N 0.20591 0.09835 0.43246 0.0
C114 C 0.2455 0.09844 0.4634 0.0
C115 C 0.31256 0.14573 0.43621 0.0
C116 C 0.26227 0.12996 0.42472 0.0
C117 C 0.30415 0.12886 0.45573 0.0
H118 H 0.15143 0.05871 0.45715 0.0
H119 H 0.26811 0.14176 0.40959 0.0
C120 C 0.9634 0.01925 0.38612 0.0
N121 N 0.89421 0.04681 0.36283 0.0
C122 C 0.94541 0.05992 0.39265 0.0
C123 C 0.94579 0.99225 0.3678 0.0
C124 C 0.91057 0.07337 0.38064 0.0
C125 C 0.9109 0.00684 0.35624 0.0
C126 C 0.1394 0.16873 0.4284 0.0
C127 C 0.14195 0.18285 0.44813 0.0
C128 C 0.18586 0.20759 0.41605 0.0
C129 C 0.19132 0.23563 0.45523 0.0
C130 C 0.23443 0.25996 0.42371 0.0
N131 N 0.23616 0.27275 0.44298 0.0
C132 C -0.00071 0.03214 0.46293 0.0
C133 C 0.9166 0.00687 0.44235 0.0
C134 C 0.96599 0.03187 0.47912 0.0
N135 N 0.97471 0.02118 0.445 0.0
C136 C 0.88171 0.00655 0.45816 0.0
C137 C 0.90686 0.02014 0.47676 0.0
H138 H 0.04554 0.04293 0.46453 0.0
H139 H 0.89782 0.99718 0.42797 0.0
C140 C 0.08777 0.13182 0.35716 0.0
N141 N 0.07918 0.13904 0.37627 0.0
C142 C 0.08528 0.1701 0.34357 0.0
C143 C 0.06534 0.22237 0.36965 0.0
C144 C 0.06877 0.18354 0.38272 0.0
C145 C 0.07314 0.21565 0.34977 0.0
H146 H 0.0961 0.09605 0.35249 0.0
H147 H 0.06182 0.18799 0.39801 0.0
O148 O 0.07339 0.98852 0.42789 0.0
O149 O 0.13775 0.0581 0.3898 0.0
O150 O 0.99856 0.00649 0.39753 0.0
O151 O 0.09238 0.11645 0.42123 0.0
H152 H 0.10393 0.94055 0.45575 0.0
H153 H 0.95851 0.91374 0.41889 0.0
H154 H 0.03543 0.84216 0.47093 0.0
H155 H 0.89282 0.81612 0.4347 0.0
H156 H 0.28431 0.06139 0.35108 0.0
H157 H 0.16203 0.98662 0.41069 0.0
H158 H 0.20844 0.09206 0.35899 0.0
H159 H 0.23838 0.95787 0.40187 0.0
H160 H 0.05137 0.78413 0.39168 0.0
H161 H 0.03771 0.86575 0.3394 0.0
H162 H 0.23719 0.08436 0.47834 0.0
H163 H 0.35729 0.16995 0.42989 0.0
H164 H 0.95935 0.08189 0.40667 0.0
H165 H 0.95873 0.96025 0.36258 0.0
H166 H 0.89683 0.10519 0.38545 0.0
H167 H 0.89706 0.98637 0.34201 0.0
H168 H 0.10639 0.15326 0.45789 0.0
H169 H 0.18484 0.19697 0.40077 0.0
H170 H 0.19404 0.24703 0.47049 0.0
H171 H 0.27088 0.29029 0.41435 0.0
H172 H 0.98712 0.04331 0.4932 0.0
H173 H 0.83604 0.997 0.45586 0.0
H174 H 0.09309 0.16431 0.32843 0.0
H175 H 0.05564 0.25668 0.37503 0.0
Li176 Li 0.13161 0.06165 0.72795 0.0
Li177 Li 0.13899 0.14107 0.74984 0.0
Li178 Li 0.06016 0.0352 0.75412 0.0
Li179 Li 0.05568 0.09351 0.72744 0.0
C180 C 0.15457 0.04658 0.77224 0.0
N181 N 0.16174 0.99519 0.80606 0.0
C182 C 0.17049 0.08011 0.78953 0.0
C183 C 0.14274 0.98711 0.7721 0.0
C184 C 0.17381 0.05328 0.80649 0.0
C185 C 0.14643 0.96187 0.78937 0.0
C186 C 0.18652 0.19692 0.71628 0.0
C187 C 0.2242 0.30355 0.71352 0.0
N188 N 0.27853 0.31137 0.70761 0.0
C189 C 0.24261 0.20593 0.71006 0.0
C190 C 0.17705 0.24601 0.71791 0.0
C191 C 0.28859 0.26417 0.70579 0.0
C192 C 0.17917 0.04595 0.6929 0.0
N193 N 0.18135 0.04236 0.71242 0.0
C194 C 0.27054 0.03504 0.70978 0.0
C195 C 0.22494 0.03568 0.72099 0.0
C196 C 0.27119 0.0419 0.68967 0.0
C197 C 0.22351 0.04503 0.68115 0.0
H198 H 0.14501 0.05302 0.68654 0.0
H199 H 0.22633 0.03441 0.73659 0.0
C200 C 0.18087 0.24213 0.77586 0.0
N201 N 0.197 0.21254 0.76265 0.0
C202 C 0.22507 0.29026 0.78669 0.0
C203 C 0.30131 0.27779 0.76952 0.0
C204 C 0.25573 0.22925 0.75936 0.0
C205 C 0.28601 0.30818 0.78358 0.0
H206 H 0.13372 0.22691 0.7785 0.0
H207 H 0.26703 0.20341 0.74931 0.0
C208 C 0.03621 0.97018 0.71253 0.0
N209 N 0.02729 0.89088 0.6833 0.0
C210 C 0.01884 0.97568 0.69398 0.0
C211 C 0.04861 0.92412 0.71627 0.0
C212 C 0.01466 0.93516 0.67938 0.0
C213 C 0.044 0.88458 0.70128 0.0
C214 C 0.00804 0.12217 0.75774 0.0
C215 C 0.95076 0.07819 0.76395 0.0
C216 C 0.01856 0.17949 0.75318 0.0
C217 C 0.9046 0.09212 0.76522 0.0
C218 C 0.9712 0.19162 0.75461 0.0
N219 N 0.91567 0.14804 0.76054 0.0
C220 C 0.01112 0.99041 0.79125 0.0
C221 C 0.96848 0.92041 0.76516 0.0
C222 C 0.96922 0.94868 0.80415 0.0
N223 N 0.0098 0.97564 0.77217 0.0
C224 C 0.92538 0.87761 0.7775 0.0
C225 C 0.92498 0.89199 0.79718 0.0
H226 H 0.04341 0.03524 0.79631 0.0
H227 H 0.96774 0.91026 0.74987 0.0
C228 C 0.02134 0.13987 0.69617 0.0
N229 N 0.001 0.10152 0.71132 0.0
C230 C 0.98053 0.14039 0.68313 0.0
C231 C 0.89882 0.06305 0.70183 0.0
C232 C 0.94116 0.06331 0.7143 0.0
C233 C 0.91855 0.10124 0.68588 0.0
H234 H 0.06921 0.16867 0.69386 0.0
H235 H 0.92642 0.03171 0.72602 0.0
O236 O 0.15027 0.0717 0.75553 0.0
O237 O 0.14107 0.14033 0.72071 0.0
O238 O 0.04124 0.00976 0.72697 0.0
O239 O 0.05365 0.10924 0.7562 0.0
H240 H 0.17971 0.12617 0.7899 0.0
H241 H 0.13044 0.96063 0.75882 0.0
H242 H 0.18583 0.07858 0.82 0.0
H243 H 0.13708 0.91578 0.78951 0.0
H244 H 0.21758 0.342 0.71481 0.0
H245 H 0.25086 0.16854 0.70875 0.0
H246 H 0.13382 0.23974 0.72256 0.0
H247 H 0.33231 0.27184 0.70106 0.0
H248 H 0.30668 0.0327 0.71685 0.0
H249 H 0.22192 0.0493 0.66565 0.0
H250 H 0.21188 0.31235 0.79767 0.0
H251 H 0.3478 0.28955 0.76713 0.0
H252 H 0.00914 0.01109 0.69081 0.0
H253 H 0.06207 0.91928 0.73056 0.0
H254 H 0.00152 0.93902 0.66493 0.0
H255 H 0.05377 0.84891 0.70393 0.0
H256 H 0.94182 0.03359 0.76755 0.0
H257 H 0.06277 0.21417 0.74854 0.0
H258 H 0.85994 0.05842 0.76988 0.0
H259 H 0.97861 0.23571 0.75103 0.0
H260 H 0.96988 0.96131 0.81925 0.0
H261 H 0.89212 0.83409 0.77168 0.0
H262 H 0.99713 0.17037 0.67092 0.0
H263 H 0.85133 0.03179 0.7042 0.0
H264 H 0.96609 0.39924 0.11996 0.0
H265 H 0.14232 0.91633 0.27139 0.0
H266 H 0.94148 0.3884 0.2255 0.0
H267 H 0.92769 0.30286 0.20525 0.0
H268 H 0.11713 0.36242 0.21052 0.0
H269 H 0.1302 0.44712 0.23103 0.0
H270 H 0.95689 0.48968 0.19771 0.0
H271 H 0.94432 0.45077 0.16441 0.0
H272 H 0.12467 0.47714 0.16523 0.0
H273 H 0.13679 0.5166 0.19843 0.0
H274 H 0.9813 0.61747 0.21744 0.0
H275 H 0.99214 0.68933 0.19264 0.0
H276 H 0.16512 0.71123 0.17603 0.0
H277 H 0.15442 0.63988 0.20103 0.0
H278 H 0.97707 0.61718 0.262 0.0
H279 H 0.9857 0.71314 0.27227 0.0
H280 H 0.17111 0.80676 0.25258 0.0
H281 H 0.1619 0.71036 0.24242 0.0
H282 H 0.96821 0.51293 0.28632 0.0
H283 H 0.96082 0.56457 0.31561 0.0
H284 H 0.14843 0.69994 0.30928 0.0
H285 H 0.15603 0.64678 0.28052 0.0
H286 H 0.9588 0.39944 0.2695 0.0
H287 H 0.96167 0.32972 0.29263 0.0
H288 H 0.15486 0.44372 0.2968 0.0
H289 H 0.15115 0.51409 0.2742 0.0
O290 O 0.97257 0.41625 0.13293 0.0
O291 O 0.0654 0.43032 0.13417 0.0
O292 O 0.04273 0.82719 0.27783 0.0
O293 O 0.13748 0.87786 0.26721 0.0
C294 C 0.04841 0.48436 0.23566 0.0
C295 C 0.05315 0.52457 0.22116 0.0
C296 C 0.06148 0.58163 0.22635 0.0
C297 C 0.06404 0.59819 0.24606 0.0
C298 C 0.06119 0.55862 0.26059 0.0
C299 C 0.05395 0.50184 0.25535 0.0
C300 C 0.03681 0.42374 0.22967 0.0
C301 C 0.97931 0.38121 0.22304 0.0
C302 C 0.97166 0.33288 0.21133 0.0
C303 C 0.02141 0.32639 0.20621 0.0
C304 C 0.07783 0.36582 0.21445 0.0
C305 C 0.08541 0.41414 0.22621 0.0
C306 C 0.04765 0.50577 0.20045 0.0
C307 C 0.99382 0.48766 0.19057 0.0
C308 C 0.9867 0.46519 0.17159 0.0
C309 C 0.03338 0.46054 0.16219 0.0
C310 C 0.08776 0.47996 0.17206 0.0
C311 C 0.09485 0.50256 0.191 0.0
C312 C 0.06727 0.62392 0.21108 0.0
C313 C 0.02162 0.63803 0.2085 0.0
C314 C 0.02788 0.67896 0.19441 0.0
C315 C 0.07972 0.706 0.18263 0.0
C316 C 0.12479 0.69084 0.18496 0.0
C317 C 0.11875 0.6503 0.19918 0.0
C318 C 0.06894 0.65688 0.25155 0.0
C319 C 0.01949 0.65848 0.25992 0.0
C320 C 0.02457 0.71332 0.26579 0.0
C321 C 0.07924 0.7676 0.26337 0.0
C322 C 0.12844 0.76581 0.25471 0.0
C323 C 0.12329 0.71088 0.24884 0.0
C324 C 0.06246 0.57659 0.2812 0.0
C325 C 0.00837 0.55211 0.29179 0.0
C326 C 0.004 0.58217 0.30832 0.0
C327 C 0.05355 0.63728 0.3143 0.0
C328 C 0.10943 0.65775 0.30494 0.0
C329 C 0.11391 0.62737 0.28854 0.0
C330 C 0.05476 0.46167 0.27024 0.0
C331 C 0.00158 0.40943 0.27556 0.0
C332 C 0.00344 0.36942 0.28858 0.0
C333 C 0.05869 0.3807 0.29626 0.0
C334 C 0.11166 0.43386 0.29115 0.0
C335 C 0.10967 0.47403 0.27827 0.0
C336 C 0.02503 0.43494 0.14226 0.0
C337 C 0.08512 0.82586 0.26991 0.0
H338 H 0.71714 0.04714 0.45392 0.0
H339 H 0.30678 0.17824 0.60258 0.0
H340 H 0.643 0.97868 0.56302 0.0
H341 H 0.71534 0.96256 0.5441 0.0
H342 H 0.83318 0.15503 0.5407 0.0
H343 H 0.7606 0.17085 0.55979 0.0
H344 H 0.59489 0.99822 0.52915 0.0
H345 H 0.63608 0.00027 0.49677 0.0
H346 H 0.72344 0.19483 0.49763 0.0
H347 H 0.68254 0.19207 0.53015 0.0
H348 H 0.49288 0.02077 0.52948 0.0
H349 H 0.43904 0.03607 0.50331 0.0
H350 H 0.51582 0.22298 0.52073 0.0
H351 H 0.56939 0.20711 0.54704 0.0
H352 H 0.42844 0.01505 0.57025 0.0
H353 H 0.33893 0.02306 0.57777 0.0
H354 H 0.45342 0.20737 0.59715 0.0
H355 H 0.54245 0.19867 0.5895 0.0
H356 H 0.48693 0.98605 0.60495 0.0
H357 H 0.41971 0.97504 0.63205 0.0
H358 H 0.53413 0.16307 0.64714 0.0
H359 H 0.59981 0.17424 0.61945 0.0
H360 H 0.63705 0.9897 0.59907 0.0
H361 H 0.70691 0.9921 0.62346 0.0
H362 H 0.76632 0.17936 0.6357 0.0
H363 H 0.69827 0.17745 0.61082 0.0
O364 O 0.69997 0.04728 0.4665 0.0
O365 O 0.74078 0.14696 0.4671 0.0
O366 O 0.28452 0.07746 0.59083 0.0
O367 O 0.34136 0.17394 0.59934 0.0
C368 C 0.64542 0.08498 0.56762 0.0
C369 C 0.61512 0.09379 0.55223 0.0
C370 C 0.56614 0.10284 0.55615 0.0
C371 C 0.54571 0.10051 0.57534 0.0
C372 C 0.57536 0.09069 0.5907 0.0
C373 C 0.6265 0.08487 0.58694 0.0
C374 C 0.69688 0.07591 0.56288 0.0
C375 C 0.68594 0.01728 0.55916 0.0
C376 C 0.72711 0.00814 0.54824 0.0
C377 C 0.77949 0.05762 0.54089 0.0
C378 C 0.79295 0.11626 0.54621 0.0
C379 C 0.75195 0.12535 0.55724 0.0
C380 C 0.63601 0.095 0.53197 0.0
C381 C 0.62273 0.04119 0.52226 0.0
C382 C 0.64634 0.04251 0.50378 0.0
C383 C 0.68325 0.09774 0.49463 0.0
C384 C 0.69525 0.15155 0.50427 0.0
C385 C 0.6718 0.15013 0.5228 0.0
C386 C 0.53501 0.11287 0.54005 0.0
C387 C 0.49857 0.06514 0.52748 0.0
C388 C 0.46834 0.07409 0.51249 0.0
C389 C 0.47421 0.13101 0.50982 0.0
C390 C 0.51089 0.17882 0.52243 0.0
C391 C 0.54128 0.16983 0.53742 0.0
C392 C 0.49171 0.10627 0.57934 0.0
C393 C 0.43398 0.05715 0.57603 0.0
C394 C 0.38301 0.06183 0.58039 0.0
C395 C 0.38904 0.11589 0.58808 0.0
C396 C 0.44716 0.16515 0.59123 0.0
C397 C 0.49806 0.16033 0.58689 0.0
C398 C 0.54818 0.08088 0.61029 0.0
C399 C 0.49868 0.02428 0.61455 0.0
C400 C 0.46024 0.01813 0.62998 0.0
C401 C 0.47099 0.06855 0.64138 0.0
C402 C 0.52408 0.12383 0.63827 0.0
C403 C 0.56218 0.13009 0.62269 0.0
C404 C 0.66292 0.0835 0.60311 0.0
C405 C 0.6651 0.03117 0.60702 0.0
C406 C 0.7048 0.03256 0.62091 0.0
C407 C 0.74199 0.08605 0.63126 0.0
C408 C 0.73789 0.13764 0.62789 0.0
C409 C 0.69899 0.1365 0.61379 0.0
C410 C 0.7097 0.09906 0.47524 0.0
C411 C 0.33504 0.12102 0.59281 0.0
H412 H 0.648 0.70766 0.02917 0.0
H413 H 0.28889 0.19282 0.88084 0.0
H414 H 0.62223 0.72198 0.92469 0.0
H415 H 0.69712 0.80491 0.9445 0.0
H416 H 0.82527 0.7459 0.93176 0.0
H417 H 0.74933 0.66198 0.91223 0.0
H418 H 0.53792 0.62057 0.95314 0.0
H419 H 0.569 0.65844 0.98623 0.0
H420 H 0.72278 0.63274 0.97938 0.0
H421 H 0.69072 0.59425 0.94644 0.0
H422 H 0.43067 0.49444 0.9336 0.0
H423 H 0.37153 0.42394 0.95928 0.0
H424 H 0.52325 0.40174 0.97249 0.0
H425 H 0.5819 0.47148 0.94656 0.0
H426 H 0.42229 0.49232 0.889 0.0
H427 H 0.33451 0.39576 0.87998 0.0
H428 H 0.42793 0.30351 0.89762 0.0
H429 H 0.51562 0.40049 0.90642 0.0
H430 H 0.51636 0.59677 0.86341 0.0
H431 H 0.45565 0.54493 0.83473 0.0
H432 H 0.50588 0.40823 0.83906 0.0
H433 H 0.56789 0.46093 0.86731 0.0
H434 H 0.62387 0.70976 0.87814 0.0
H435 H 0.69724 0.778 0.85426 0.0
H436 H 0.77246 0.66063 0.84859 0.0
H437 H 0.69881 0.59246 0.87234 0.0
O438 O 0.63572 0.69123 0.01623 0.0
O439 O 0.71502 0.67886 0.01172 0.0
O440 O 0.27707 0.28127 0.87535 0.0
O441 O 0.32266 0.23154 0.88454 0.0
C442 C 0.62987 0.62564 0.91185 0.0
C443 C 0.59568 0.58614 0.92689 0.0
C444 C 0.54573 0.52938 0.92243 0.0
C445 C 0.52944 0.51228 0.90294 0.0
C446 C 0.56481 0.55109 0.88784 0.0
C447 C 0.61556 0.60752 0.89233 0.0
C448 C 0.68041 0.68599 0.91714 0.0
C449 C 0.6674 0.72871 0.92541 0.0
C450 C 0.71024 0.77603 0.93674 0.0
C451 C 0.76681 0.78149 0.93975 0.0
C452 C 0.7818 0.74236 0.92972 0.0
C453 C 0.73882 0.69491 0.91841 0.0
C454 C 0.61221 0.60495 0.94741 0.0
C455 C 0.57793 0.62259 0.95891 0.0
C456 C 0.59596 0.64444 0.97776 0.0
C457 C 0.6486 0.64898 0.98541 0.0
C458 C 0.68215 0.63007 0.97392 0.0
C459 C 0.66395 0.60806 0.95511 0.0
C460 C 0.51043 0.48788 0.93823 0.0
C461 C 0.45104 0.47426 0.94202 0.0
C462 C 0.41749 0.43422 0.95664 0.0
C463 C 0.44319 0.40797 0.96786 0.0
C464 C 0.50287 0.42215 0.96419 0.0
C465 C 0.5362 0.46169 0.94941 0.0
C466 C 0.47528 0.45332 0.8983 0.0
C467 C 0.42362 0.45117 0.89092 0.0
C468 C 0.37356 0.39598 0.88581 0.0
C469 C 0.37427 0.34189 0.88803 0.0
C470 C 0.42591 0.34427 0.89569 0.0
C471 C 0.47598 0.39954 0.90078 0.0
C472 C 0.54618 0.53236 0.86749 0.0
C473 C 0.51674 0.55736 0.85758 0.0
C474 C 0.48186 0.52763 0.84133 0.0
C475 C 0.47607 0.47264 0.83495 0.0
C476 C 0.50997 0.4507 0.84379 0.0
C477 C 0.54549 0.48085 0.85982 0.0
C478 C 0.65594 0.64613 0.8768 0.0
C479 C 0.65566 0.69847 0.87151 0.0
C480 C 0.69737 0.73719 0.85791 0.0
C481 C 0.74018 0.72425 0.8496 0.0
C482 C 0.73991 0.6715 0.85483 0.0
C483 C 0.69782 0.63252 0.86826 0.0
C484 C 0.6686 0.67381 0.00523 0.0
C485 C 0.32162 0.28323 0.88226 0.0
C486 C 0.99174 0.25367 0.15631 0.0
C487 C 0.01667 0.21586 0.15726 0.0
C488 C 0.99151 0.28745 0.17248 0.0
C489 C 0.01647 0.2849 0.19017 0.0
H490 H 0.97287 0.25771 0.1429 0.0
H491 H 0.97344 0.31735 0.17091 0.0
S492 S 0.08664 0.19242 0.20033 0.0
N493 N 0.06682 0.17767 0.17738 0.0
N494 N 0.0653 0.24054 0.20788 0.0
C495 C 0.04058 0.24654 0.19144 0.0
C496 C 0.0408 0.21205 0.17498 0.0
C497 C 0.85026 0.06642 0.49174 0.0
C498 C 0.87363 0.02744 0.49334 0.0
C499 C 0.82134 0.07693 0.50742 0.0
C500 C 0.8142 0.0484 0.52521 0.0
H501 H 0.85512 0.08966 0.47834 0.0
H502 H 0.80356 0.10693 0.50551 0.0
S503 S 0.86613 0.94133 0.53672 0.0
N504 N 0.88723 0.95965 0.51399 0.0
N505 N 0.83217 0.97919 0.54353 0.0
C506 C 0.83685 0.00894 0.52699 0.0
C507 C 0.8669 0.99864 0.51104 0.0
C508 C 0.89261 0.83065 0.82725 0.0
C509 C 0.87721 0.84886 0.81027 0.0
C510 C 0.84792 0.78975 0.8398 0.0
C511 C 0.78641 0.76659 0.83595 0.0
H512 H 0.93951 0.84773 0.83074 0.0
H513 H 0.86154 0.77672 0.85273 0.0
S514 S 0.72271 0.80108 0.79362 0.0
N515 N 0.79641 0.84125 0.79035 0.0
N516 N 0.71242 0.76471 0.81404 0.0
C517 C 0.77048 0.7848 0.81911 0.0
C518 C 0.8159 0.82581 0.80623 0.0
C519 C 0.10362 0.78283 0.13438 0.0
C520 C 0.09906 0.8339 0.13937 0.0
C521 C 0.0982 0.74197 0.14852 0.0
C522 C 0.08701 0.75041 0.16801 0.0
H523 H 0.11157 0.77456 0.11947 0.0
H524 H 0.10173 0.70299 0.14414 0.0
S525 S 0.07112 0.87671 0.18848 0.0
N526 N 0.08259 0.89054 0.16509 0.0
N527 N 0.07255 0.81377 0.19164 0.0
C528 C 0.08251 0.8013 0.17317 0.0
C529 C 0.08855 0.8431 0.15885 0.0
C530 C 0.36024 0.16272 0.48688 0.0
C531 C 0.35509 0.13876 0.46804 0.0
C532 C 0.40131 0.16298 0.50002 0.0
C533 C 0.43837 0.1389 0.4948 0.0
H534 H 0.33071 0.17937 0.49172 0.0
H535 H 0.40185 0.17933 0.51465 0.0
S536 S 0.44637 0.07608 0.4467 0.0
N537 N 0.3932 0.09397 0.44443 0.0
N538 N 0.47123 0.09542 0.46908 0.0
C539 C 0.43603 0.11787 0.4757 0.0
C540 C 0.39428 0.11771 0.4623 0.0
C541 C 0.33071 0.34203 0.81627 0.0
C542 C 0.33313 0.35352 0.79639 0.0
C543 C 0.3775 0.38106 0.82855 0.0
C544 C 0.42771 0.43333 0.82144 0.0
H545 H 0.29322 0.30167 0.82224 0.0
H546 H 0.37456 0.37019 0.84373 0.0
S547 S 0.45438 0.48488 0.77076 0.0
N548 N 0.38916 0.42112 0.77017 0.0
N549 N 0.47658 0.49566 0.79354 0.0
C550 C 0.43009 0.4462 0.80173 0.0
C551 C 0.3829 0.40587 0.78912 0.0
C552 C 0.82799 0.10889 0.67773 0.0
C553 C 0.87446 0.09803 0.67172 0.0
C554 C 0.78522 0.10511 0.66453 0.0
C555 C 0.78686 0.08901 0.64504 0.0
H556 H 0.82506 0.12087 0.69269 0.0
H557 H 0.75033 0.11429 0.66962 0.0
S558 S 0.89882 0.05523 0.62221 0.0
N559 N 0.9195 0.07038 0.6451 0.0
N560 N 0.83852 0.06235 0.62035 0.0
C561 C 0.83278 0.07759 0.63891 0.0
C562 C 0.87681 0.08238 0.65225 0.0
C563 C 0.85469 0.82834 0.98643 0.0
C564 C 0.86913 0.88864 0.98907 0.0
C565 C 0.82351 0.79496 0.97006 0.0
C566 C 0.80539 0.82052 0.95571 0.0
H567 H 0.8677 0.80672 0.9971 0.0
H568 H 0.81208 0.7482 0.96891 0.0
S569 S 0.83242 0.97676 0.95564 0.0
N570 N 0.86308 0.97272 0.97597 0.0
N571 N 0.80482 0.90987 0.94499 0.0
C572 C 0.81997 0.88091 0.95804 0.0
C573 C 0.85191 0.91505 0.97474 0.0
C574 C 0.0848 0.75041 0.35521 0.0
C575 C 0.04086 0.7671 0.3524 0.0
C576 C 0.08737 0.70666 0.34331 0.0
C577 C 0.04569 0.67757 0.32832 0.0
H578 H 0.11877 0.77281 0.36624 0.0
H579 H 0.12294 0.69636 0.3456 0.0
S580 S 0.92023 0.70319 0.31556 0.0
N581 N 0.95313 0.74922 0.33413 0.0
N582 N 0.95849 0.66788 0.31156 0.0
C583 C 0.00048 0.69265 0.32574 0.0
C584 C 0.998 0.73725 0.3378 0.0
C585 C 0.34545 0.00999 0.67916 0.0
C586 C 0.32358 0.05035 0.67782 0.0
C587 C 0.39419 0.01687 0.66769 0.0
C588 C 0.4232 0.06481 0.65469 0.0
H589 H 0.32395 0.97216 0.68886 0.0
H590 H 0.40902 0.98423 0.66889 0.0
S591 S 0.38465 0.18414 0.6464 0.0
N592 N 0.33629 0.14138 0.66315 0.0
N593 N 0.42656 0.15338 0.64124 0.0
C594 C 0.40235 0.10604 0.6535 0.0
C595 C 0.35287 0.09902 0.66514 0.0
C596 C 0.31517 0.27224 0.99204 0.0
C597 C 0.33346 0.27974 0.01146 0.0
C598 C 0.35108 0.31398 0.97804 0.0
C599 C 0.40681 0.3643 0.98294 0.0
H600 H 0.27213 0.23447 0.98771 0.0
H601 H 0.33518 0.30681 0.96326 0.0
S602 S 0.47574 0.40381 0.03163 0.0
N603 N 0.41117 0.34068 0.03483 0.0
N604 N 0.47902 0.4193 0.00841 0.0
C605 C 0.4261 0.37196 0.00222 0.0
C606 C 0.38923 0.3297 0.01653 0.0
C607 C 0.09867 0.31901 0.33956 0.0
C608 C 0.06905 0.25656 0.33572 0.0
C609 C 0.09501 0.35865 0.32675 0.0
C610 C 0.06147 0.33746 0.3096 0.0
H611 H 0.12532 0.33755 0.35253 0.0
H612 H 0.11824 0.40629 0.33041 0.0
S613 S 0.97566 0.17806 0.29272 0.0
N614 N 0.00429 0.17525 0.31362 0.0
N615 N -0.00088 0.25 0.28922 0.0
C616 C 0.03183 0.27515 0.30552 0.0
C617 C 0.03535 0.2347 0.31861 0.0
loop_
_geom_bond_atom_site_label_1
_geom_bond_atom_site_label_2
_geom_bond_distance
_geom_bond_site_symmetry_2
_ccdc_geom_bond_type
Li0 N17 1.990 . S
Li0 O60 1.956 . S
Li0 O61 1.970 . S
Li0 O62 1.961 . S
Li1 N25 1.990 . S
Li1 O60 1.970 . S
Li1 O61 1.956 . S
Li1 O63 1.961 . S
Li2 N47 1.990 1_545 S
Li2 O60 1.961 . S
Li2 O62 1.956 . S
Li2 O63 1.970 . S
Li3 N53 1.990 1_445 S
Li3 O61 1.961 . S
Li3 O62 1.970 . S
Li3 O63 1.956 . S
C4 C6 1.348 . S
C4 C7 1.356 . S
C4 O60 1.325 . S
N5 C8 1.314 . S
N5 C9 1.279 . S
C6 C4 1.348 . S
C6 C8 1.353 . S
C6 H64 0.929 . S
C7 C4 1.356 . S
C7 C9 1.358 . S
C7 H65 0.930 . S
C8 N5 1.314 . S
C8 C6 1.353 . S
C8 H66 0.930 . S
C9 N5 1.279 . S
C9 C7 1.358 . S
C9 H67 0.930 . S
C10 C13 1.348 . S
C10 C14 1.356 1_455 S
C10 O61 1.325 . S
C11 N12 1.279 1_655 S
C11 C14 1.358 . S
C11 H68 0.930 . S
N12 C11 1.279 1_455 S
N12 C15 1.314 . S
C13 C10 1.348 . S
C13 C15 1.353 . S
C13 H69 0.929 . S
C14 C10 1.356 1_655 S
C14 C11 1.358 . S
C14 H70 0.930 . S
C15 N12 1.314 . S
C15 C13 1.353 . S
C15 H71 0.930 . S
C16 N17 1.314 . S
C16 C21 1.353 . S
C16 H22 0.930 . S
N17 Li0 1.990 . S
N17 C16 1.314 . S
N17 C19 1.279 . S
C18 C19 1.358 . S
C18 C20 1.356 . S
C18 H72 0.930 . S
C19 N17 1.279 . S
C19 C18 1.358 . S
C19 H23 0.930 . S
C20 C18 1.356 . S
C20 C21 1.348 . S
C21 C16 1.353 . S
C21 C20 1.348 . S
C21 H73 0.929 . S
H22 C16 0.930 . S
H23 C19 0.930 . S
C24 N25 1.314 . S
C24 C26 1.353 . S
C24 H30 0.930 . S
N25 Li1 1.990 . S
N25 C24 1.314 . S
N25 C28 1.279 . S
C26 C24 1.353 . S
C26 C29 1.348 . S
C26 H74 0.929 1_455 S
C27 C28 1.358 . S
C27 C29 1.356 . S
C27 H75 0.930 . S
C28 N25 1.279 . S
C28 C27 1.358 . S
C28 H31 0.930 . S
C29 C26 1.348 . S
C29 C27 1.356 . S
H30 C24 0.930 . S
H31 C28 0.930 . S
C32 C34 1.348 . S
C32 C35 1.356 . S
C32 O62 1.325 1_565 S
N33 C36 1.314 . S
N33 C37 1.279 . S
C34 C32 1.348 . S
C34 C36 1.353 . S
C34 H76 0.929 . S
C35 C32 1.356 . S
C35 C37 1.358 . S
C35 H77 0.930 1_565 S
C36 N33 1.314 . S
C36 C34 1.353 . S
C36 H78 0.930 . S
C37 N33 1.279 . S
C37 C35 1.358 . S
C37 H79 0.930 . S
C38 C39 1.348 . S
C38 C40 1.356 . S
C38 O63 1.325 1_665 S
C39 C38 1.348 . S
C39 C41 1.353 . S
C39 H80 0.929 . S
C40 C38 1.356 . S
C40 C42 1.358 . S
C40 H81 0.930 1_565 S
C41 C39 1.353 . S
C41 N43 1.314 . S
C41 H82 0.930 . S
C42 C40 1.358 . S
C42 N43 1.279 . S
C42 H83 0.930 . S
N43 C41 1.314 . S
N43 C42 1.279 . S
C44 C46 1.353 . S
C44 N47 1.314 . S
C44 H50 0.930 1_565 S
C45 N47 1.279 . S
C45 C48 1.358 . S
C45 H51 0.930 . S
C46 C44 1.353 . S
C46 C49 1.348 . S
C46 H84 0.929 . S
N47 Li2 1.990 1_565 S
N47 C44 1.314 . S
N47 C45 1.279 . S
C48 C45 1.358 . S
C48 C49 1.356 . S
C48 H85 0.930 . S
C49 C46 1.348 . S
C49 C48 1.356 . S
H50 C44 0.930 1_545 S
H51 C45 0.930 . S
C52 N53 1.314 . S
C52 C54 1.353 . S
C52 H58 0.930 1_565 S
N53 Li3 1.990 1_665 S
N53 C52 1.314 . S
N53 C56 1.279 . S
C54 C52 1.353 . S
C54 C57 1.348 . S
C54 H86 0.929 . S
C55 C56 1.358 . S
C55 C57 1.356 . S
C55 H87 0.930 . S
C56 N53 1.279 . S
C56 C55 1.358 . S
C56 H59 0.930 . S
C57 C54 1.348 . S
C57 C55 1.356 . S
H58 C52 0.930 1_545 S
H59 C56 0.930 . S
O60 Li0 1.956 . S
O60 Li1 1.970 . S
O60 Li2 1.961 . S
O60 C4 1.325 . S
O61 Li0 1.970 . S
O61 Li1 1.956 . S
O61 Li3 1.961 . S
O61 C10 1.325 . S
O62 Li0 1.961 . S
O62 Li2 1.956 . S
O62 Li3 1.970 . S
O62 C32 1.325 1_545 S
O63 Li1 1.961 . S
O63 Li2 1.970 . S
O63 Li3 1.956 . S
O63 C38 1.325 1_445 S
H64 C6 0.929 . S
H65 C7 0.930 . S
H66 C8 0.930 . S
H67 C9 0.930 . S
H68 C11 0.930 . S
H69 C13 0.929 . S
H70 C14 0.930 . S
H71 C15 0.930 . S
H72 C18 0.930 . S
H73 C21 0.929 . S
H74 C26 0.929 1_655 S
H75 C27 0.930 . S
H76 C34 0.929 . S
H77 C35 0.930 1_545 S
H78 C36 0.930 . S
H79 C37 0.930 . S
H80 C39 0.929 . S
H81 C40 0.930 1_545 S
H82 C41 0.930 . S
H83 C42 0.930 . S
H84 C46 0.929 . S
H85 C48 0.930 . S
H86 C54 0.929 . S
H87 C55 0.930 . S
Li88 N105 1.990 . S
Li88 O148 1.956 . S
Li88 O149 1.970 1_565 S
Li88 O150 1.961 1_565 S
Li89 N113 1.990 . S
Li89 O148 1.970 1_545 S
Li89 O149 1.956 . S
Li89 O151 1.961 . S
Li90 N135 1.990 1_445 S
Li90 O148 1.961 1_545 S
Li90 O150 1.956 . S
Li90 O151 1.970 . S
Li91 N141 1.990 . S
Li91 O149 1.961 . S
Li91 O150 1.970 . S
Li91 O151 1.956 . S
C92 C94 1.348 . S
C92 C95 1.356 1_455 S
C92 O148 1.325 . S
N93 C96 1.314 . S
N93 C97 1.279 1_455 S
C94 C92 1.348 . S
C94 C96 1.353 . S
C94 H152 0.929 . S
C95 C92 1.356 1_655 S
C95 C97 1.358 . S
C95 H153 0.930 . S
C96 N93 1.314 . S
C96 C94 1.353 . S
C96 H154 0.930 . S
C97 N93 1.279 1_655 S
C97 C95 1.358 . S
C97 H155 0.930 . S
C98 C101 1.348 . S
C98 C102 1.356 . S
C98 O149 1.325 . S
C99 N100 1.279 . S
C99 C102 1.358 . S
C99 H156 0.930 . S
N100 C99 1.279 . S
N100 C103 1.314 . S
C101 C98 1.348 . S
C101 C103 1.353 . S
C101 H157 0.929 1_545 S
C102 C98 1.356 . S
C102 C99 1.358 . S
C102 H158 0.930 . S
C103 N100 1.314 . S
C103 C101 1.353 . S
C103 H159 0.930 1_545 S
C104 N105 1.314 . S
C104 C109 1.353 1_455 S
C104 H110 0.930 . S
N105 Li88 1.990 . S
N105 C104 1.314 . S
N105 C107 1.279 . S
C106 C107 1.358 . S
C106 C108 1.356 1_455 S
C106 H160 0.930 . S
C107 N105 1.279 . S
C107 C106 1.358 . S
C107 H111 0.930 . S
C108 C106 1.356 1_655 S
C108 C109 1.348 . S
C109 C104 1.353 1_655 S
C109 C108 1.348 . S
C109 H161 0.929 . S
H110 C104 0.930 . S
H111 C107 0.930 . S
C112 N113 1.314 . S
C112 C114 1.353 . S
C112 H118 0.930 . S
N113 Li89 1.990 . S
N113 C112 1.314 . S
N113 C116 1.279 . S
C114 C112 1.353 . S
C114 C117 1.348 . S
C114 H162 0.929 . S
C115 C116 1.358 . S
C115 C117 1.356 . S
C115 H163 0.930 . S
C116 N113 1.279 . S
C116 C115 1.358 . S
C116 H119 0.930 . S
C117 C114 1.348 . S
C117 C115 1.356 . S
H118 C112 0.930 . S
H119 C116 0.930 . S
C120 C122 1.348 1_565 S
C120 C123 1.356 . S
C120 O150 1.325 1_665 S
N121 C124 1.314 1_565 S
N121 C125 1.279 . S
C122 C120 1.348 1_545 S
C122 C124 1.353 . S
C122 H164 0.929 . S
C123 C120 1.356 . S
C123 C125 1.358 . S
C123 H165 0.930 . S
C124 N121 1.314 1_545 S
C124 C122 1.353 . S
C124 H166 0.930 . S
C125 N121 1.279 . S
C125 C123 1.358 . S
C125 H167 0.930 . S
C126 C127 1.348 . S
C126 C128 1.356 . S
C126 O151 1.325 . S
C127 C126 1.348 . S
C127 C129 1.353 . S
C127 H168 0.929 . S
C128 C126 1.356 . S
C128 C130 1.358 . S
C128 H169 0.930 . S
C129 C127 1.353 . S
C129 N131 1.314 . S
C129 H170 0.930 . S
C130 C128 1.358 . S
C130 N131 1.279 . S
C130 H171 0.930 . S
N131 C129 1.314 . S
N131 C130 1.279 . S
C132 C134 1.353 . S
C132 N135 1.314 . S
C132 H138 0.930 . S
C133 N135 1.279 . S
C133 C136 1.358 . S
C133 H139 0.930 . S
C134 C132 1.353 . S
C134 C137 1.348 . S
C134 H172 0.929 . S
N135 Li90 1.990 1_665 S
N135 C132 1.314 . S
N135 C133 1.279 . S
C136 C133 1.358 . S
C136 C137 1.356 . S
C136 H173 0.930 . S
C137 C134 1.348 . S
C137 C136 1.356 . S
H138 C132 0.930 . S
H139 C133 0.930 . S
C140 N141 1.314 . S
C140 C142 1.353 . S
C140 H146 0.930 . S
N141 Li91 1.990 . S
N141 C140 1.314 . S
N141 C144 1.279 . S
C142 C140 1.353 . S
C142 C145 1.348 . S
C142 H174 0.929 . S
C143 C144 1.358 . S
C143 C145 1.356 . S
C143 H175 0.930 . S
C144 N141 1.279 . S
C144 C143 1.358 . S
C144 H147 0.930 . S
C145 C142 1.348 . S
C145 C143 1.356 . S
H146 C140 0.930 . S
H147 C144 0.930 . S
O148 Li88 1.956 . S
O148 Li89 1.970 1_565 S
O148 Li90 1.961 1_565 S
O148 C92 1.325 . S
O149 Li88 1.970 1_545 S
O149 Li89 1.956 . S
O149 Li91 1.961 . S
O149 C98 1.325 . S
O150 Li88 1.961 1_545 S
O150 Li90 1.956 . S
O150 Li91 1.970 . S
O150 C120 1.325 1_445 S
O151 Li89 1.961 . S
O151 Li90 1.970 . S
O151 Li91 1.956 . S
O151 C126 1.325 . S
H152 C94 0.929 . S
H153 C95 0.930 . S
H154 C96 0.930 . S
H155 C97 0.930 . S
H156 C99 0.930 . S
H157 C101 0.929 1_565 S
H158 C102 0.930 . S
H159 C103 0.930 1_565 S
H160 C106 0.930 . S
H161 C109 0.929 . S
H162 C114 0.929 . S
H163 C115 0.930 . S
H164 C122 0.929 . S
H165 C123 0.930 . S
H166 C124 0.930 . S
H167 C125 0.930 . S
H168 C127 0.929 . S
H169 C128 0.930 . S
H170 C129 0.930 . S
H171 C130 0.930 . S
H172 C134 0.929 . S
H173 C136 0.930 . S
H174 C142 0.929 . S
H175 C143 0.930 . S
Li176 N193 1.990 . S
Li176 O236 1.956 . S
Li176 O237 1.970 . S
Li176 O238 1.961 . S
Li177 N201 1.990 . S
Li177 O236 1.970 . S
Li177 O237 1.956 . S
Li177 O239 1.961 . S
Li178 N223 1.990 1_545 S
Li178 O236 1.961 . S
Li178 O238 1.956 . S
Li178 O239 1.970 . S
Li179 N229 1.990 . S
Li179 O237 1.961 . S
Li179 O238 1.970 . S
Li179 O239 1.956 . S
C180 C182 1.348 . S
C180 C183 1.356 . S
C180 O236 1.325 . S
N181 C184 1.314 . S
N181 C185 1.279 . S
C182 C180 1.348 . S
C182 C184 1.353 . S
C182 H240 0.929 . S
C183 C180 1.356 . S
C183 C185 1.358 . S
C183 H241 0.930 1_545 S
C184 N181 1.314 . S
C184 C182 1.353 . S
C184 H242 0.930 . S
C185 N181 1.279 . S
C185 C183 1.358 . S
C185 H243 0.930 1_545 S
C186 C189 1.348 . S
C186 C190 1.356 . S
C186 O237 1.325 . S
C187 N188 1.279 . S
C187 C190 1.358 . S
C187 H244 0.930 . S
N188 C187 1.279 . S
N188 C191 1.314 . S
C189 C186 1.348 . S
C189 C191 1.353 . S
C189 H245 0.929 . S
C190 C186 1.356 . S
C190 C187 1.358 . S
C190 H246 0.930 . S
C191 N188 1.314 . S
C191 C189 1.353 . S
C191 H247 0.930 . S
C192 N193 1.314 . S
C192 C197 1.353 . S
C192 H198 0.930 . S
N193 Li176 1.990 . S
N193 C192 1.314 . S
N193 C195 1.279 . S
C194 C195 1.358 . S
C194 C196 1.356 . S
C194 H248 0.930 . S
C195 N193 1.279 . S
C195 C194 1.358 . S
C195 H199 0.930 . S
C196 C194 1.356 . S
C196 C197 1.348 . S
C197 C192 1.353 . S
C197 C196 1.348 . S
C197 H249 0.929 . S
H198 C192 0.930 . S
H199 C195 0.930 . S
C200 N201 1.314 . S
C200 C202 1.353 . S
C200 H206 0.930 . S
N201 Li177 1.990 . S
N201 C200 1.314 . S
N201 C204 1.279 . S
C202 C200 1.353 . S
C202 C205 1.348 . S
C202 H250 0.929 . S
C203 C204 1.358 . S
C203 C205 1.356 . S
C203 H251 0.930 . S
C204 N201 1.279 . S
C204 C203 1.358 . S
C204 H207 0.930 . S
C205 C202 1.348 . S
C205 C203 1.356 . S
H206 C200 0.930 . S
H207 C204 0.930 . S
C208 C210 1.348 . S
C208 C211 1.356 . S
C208 O238 1.325 1_565 S
N209 C212 1.314 . S
N209 C213 1.279 1_655 S
C210 C208 1.348 . S
C210 C212 1.353 1_455 S
C210 H252 0.929 1_465 S
C211 C208 1.356 . S
C211 C213 1.358 . S
C211 H253 0.930 . S
C212 N209 1.314 . S
C212 C210 1.353 1_655 S
C212 H254 0.930 . S
C213 N209 1.279 1_455 S
C213 C211 1.358 . S
C213 H255 0.930 . S
C214 C215 1.348 . S
C214 C216 1.356 . S
C214 O239 1.325 . S
C215 C214 1.348 . S
C215 C217 1.353 1_455 S
C215 H256 0.929 1_455 S
C216 C214 1.356 . S
C216 C218 1.358 . S
C216 H257 0.930 . S
C217 C215 1.353 1_655 S
C217 N219 1.314 . S
C217 H258 0.930 . S
C218 C216 1.358 . S
C218 N219 1.279 1_455 S
C218 H259 0.930 . S
N219 C217 1.314 . S
N219 C218 1.279 1_655 S
C220 C222 1.353 . S
C220 N223 1.314 . S
C220 H226 0.930 . S
C221 N223 1.279 1_655 S
C221 C224 1.358 . S
C221 H227 0.930 . S
C222 C220 1.353 . S
C222 C225 1.348 1_455 S
C222 H260 0.929 . S
N223 Li178 1.990 1_565 S
N223 C220 1.314 . S
N223 C221 1.279 1_455 S
C224 C221 1.358 . S
C224 C225 1.356 . S
C224 H261 0.930 . S
C225 C222 1.348 1_655 S
C225 C224 1.356 . S
H226 C220 0.930 . S
H227 C221 0.930 . S
C228 N229 1.314 . S
C228 C230 1.353 . S
C228 H234 0.930 . S
N229 Li179 1.990 . S
N229 C228 1.314 . S
N229 C232 1.279 1_455 S
C230 C228 1.353 . S
C230 C233 1.348 1_455 S
C230 H262 0.929 . S
C231 C232 1.358 . S
C231 C233 1.356 . S
C231 H263 0.930 . S
C232 N229 1.279 1_655 S
C232 C231 1.358 . S
C232 H235 0.930 . S
C233 C230 1.348 1_655 S
C233 C231 1.356 . S
H234 C228 0.930 . S
H235 C232 0.930 . S
O236 Li176 1.956 . S
O236 Li177 1.970 . S
O236 Li178 1.961 . S
O236 C180 1.325 . S
O237 Li176 1.970 . S
O237 Li177 1.956 . S
O237 Li179 1.961 . S
O237 C186 1.325 . S
O238 Li176 1.961 . S
O238 Li178 1.956 . S
O238 Li179 1.970 . S
O238 C208 1.325 1_545 S
O239 Li177 1.961 . S
O239 Li178 1.970 . S
O239 Li179 1.956 . S
O239 C214 1.325 . S
H240 C182 0.929 . S
H241 C183 0.930 1_565 S
H242 C184 0.930 . S
H243 C185 0.930 1_565 S
H244 C187 0.930 . S
H245 C189 0.929 . S
H246 C190 0.930 . S
H247 C191 0.930 . S
H248 C194 0.930 . S
H249 C197 0.929 . S
H250 C202 0.929 . S
H251 C203 0.930 . S
H252 C210 0.929 1_645 S
H253 C211 0.930 . S
H254 C212 0.930 . S
H255 C213 0.930 . S
H256 C215 0.929 1_655 S
H257 C216 0.930 . S
H258 C217 0.930 . S
H259 C218 0.930 . S
H260 C222 0.929 . S
H261 C224 0.930 . S
H262 C230 0.929 . S
H263 C231 0.930 . S
H264 O290 0.856 . S
H265 O293 0.854 . S
H266 C301 0.930 1_655 S
H267 C302 0.930 1_655 S
H268 C304 0.930 . S
H269 C305 0.930 . S
H270 C307 0.931 . S
H271 C308 0.930 . S
H272 C310 0.930 . S
H273 C311 0.929 . S
H274 C313 0.930 1_655 S
H275 C314 0.931 . S
H276 C316 0.930 . S
H277 C317 0.929 . S
H278 C319 0.931 1_655 S
H279 C320 0.912 1_655 S
H280 C322 0.930 . S
H281 C323 0.932 . S
H282 C325 0.930 1_655 S
H283 C326 0.923 1_655 S
H284 C328 0.931 . S
H285 C329 0.930 . S
H286 C331 0.929 1_655 S
H287 C332 0.931 1_655 S
H288 C334 0.930 . S
H289 C335 0.929 . S
O290 H264 0.856 . S
O290 C336 1.300 . S
O291 C336 1.209 . S
O292 C337 1.199 . S
O293 H265 0.854 . S
O293 C337 1.297 . S
C294 C295 1.404 . S
C294 C299 1.397 . S
C294 C300 1.492 . S
C295 C294 1.404 . S
C295 C296 1.396 . S
C295 C306 1.492 . S
C296 C295 1.396 . S
C296 C297 1.397 . S
C296 C312 1.509 . S
C297 C296 1.397 . S
C297 C298 1.412 . S
C297 C318 1.485 . S
C298 C297 1.412 . S
C298 C299 1.388 . S
C298 C324 1.490 . S
C299 C294 1.397 . S
C299 C298 1.388 . S
C299 C330 1.519 . S
C300 C294 1.492 . S
C300 C301 1.363 . S
C300 C305 1.390 . S
C301 H266 0.930 1_455 S
C301 C300 1.363 . S
C301 C302 1.372 . S
C302 H267 0.930 1_455 S
C302 C301 1.372 . S
C302 C303 1.383 . S
C303 C302 1.383 . S
C303 C304 1.395 . S
C304 H268 0.930 . S
C304 C303 1.395 . S
C304 C305 1.362 . S
C305 H269 0.930 . S
C305 C300 1.390 . S
C305 C304 1.362 . S
C306 C295 1.492 . S
C306 C307 1.377 . S
C306 C311 1.397 . S
C307 H270 0.931 . S
C307 C306 1.377 . S
C307 C308 1.376 . S
C308 H271 0.930 . S
C308 C307 1.376 . S
C308 C309 1.376 . S
C309 C308 1.376 . S
C309 C310 1.378 . S
C309 C336 1.486 . S
C310 H272 0.930 . S
C310 C309 1.378 . S
C310 C311 1.376 . S
C311 H273 0.929 . S
C311 C306 1.397 . S
C311 C310 1.376 . S
C312 C296 1.509 . S
C312 C313 1.391 . S
C312 C317 1.386 . S
C313 H274 0.930 1_455 S
C313 C312 1.391 . S
C313 C314 1.375 . S
C314 H275 0.931 . S
C314 C313 1.375 . S
C314 C315 1.375 . S
C315 C314 1.375 . S
C315 C316 1.361 . S
C316 H276 0.930 . S
C316 C315 1.361 . S
C316 C317 1.399 . S
C317 H277 0.929 . S
C317 C312 1.386 . S
C317 C316 1.399 . S
C318 C297 1.485 . S
C318 C319 1.394 . S
C318 C323 1.360 . S
C319 H278 0.931 1_455 S
C319 C318 1.394 . S
C319 C320 1.372 . S
C320 H279 0.912 1_455 S
C320 C319 1.372 . S
C320 C321 1.397 . S
C321 C320 1.397 . S
C321 C322 1.390 . S
C321 C337 1.476 . S
C322 H280 0.930 . S
C322 C321 1.390 . S
C322 C323 1.366 . S
C323 H281 0.932 . S
C323 C318 1.360 . S
C323 C322 1.366 . S
C324 C298 1.490 . S
C324 C325 1.380 . S
C324 C329 1.386 . S
C325 H282 0.930 1_455 S
C325 C324 1.380 . S
C325 C326 1.383 . S
C326 H283 0.923 1_455 S
C326 C325 1.383 . S
C326 C327 1.375 . S
C327 C326 1.375 . S
C327 C328 1.380 . S
C328 H284 0.931 . S
C328 C327 1.380 . S
C328 C329 1.387 . S
C329 H285 0.930 . S
C329 C324 1.386 . S
C329 C328 1.387 . S
C330 C299 1.519 . S
C330 C331 1.377 . S
C330 C335 1.361 . S
C331 H286 0.929 1_455 S
C331 C330 1.377 . S
C331 C332 1.386 . S
C332 H287 0.931 1_455 S
C332 C331 1.386 . S
C332 C333 1.363 . S
C333 C332 1.363 . S
C333 C334 1.385 . S
C334 H288 0.930 . S
C334 C333 1.385 . S
C334 C335 1.396 . S
C335 H289 0.929 . S
C335 C330 1.361 . S
C335 C334 1.396 . S
C336 O290 1.300 . S
C336 O291 1.209 . S
C336 C309 1.486 . S
C337 O292 1.199 . S
C337 O293 1.297 . S
C337 C321 1.476 . S
H338 O364 0.856 . S
H339 O367 0.854 . S
H340 C375 0.930 1_565 S
H341 C376 0.930 1_565 S
H342 C378 0.930 . S
H343 C379 0.930 . S
H344 C381 0.928 1_565 S
H345 C382 0.930 1_565 S
H346 C384 0.930 . S
H347 C385 0.929 . S
H348 C387 0.930 . S
H349 C388 0.931 . S
H350 C390 0.930 . S
H351 C391 0.929 . S
H352 C393 0.931 . S
H353 C394 0.930 . S
H354 C396 0.930 . S
H355 C397 0.932 . S
H356 C399 0.930 1_565 S
H357 C400 0.929 1_565 S
H358 C402 0.931 . S
H359 C403 0.930 . S
H360 C405 0.929 . S
H361 C406 0.931 . S
H362 C408 0.930 . S
H363 C409 0.929 . S
O364 H338 0.856 . S
O364 C410 1.300 . S
O365 C410 1.209 . S
O366 C411 1.199 . S
O367 H339 0.854 . S
O367 C411 1.297 . S
C368 C369 1.404 . S
C368 C373 1.397 . S
C368 C374 1.492 . S
C369 C368 1.404 . S
C369 C370 1.396 . S
C369 C380 1.492 . S
C370 C369 1.396 . S
C370 C371 1.397 . S
C370 C386 1.509 . S
C371 C370 1.397 . S
C371 C372 1.412 . S
C371 C392 1.485 . S
C372 C371 1.412 . S
C372 C373 1.388 . S
C372 C398 1.490 . S
C373 C368 1.397 . S
C373 C372 1.388 . S
C373 C404 1.519 . S
C374 C368 1.492 . S
C374 C375 1.363 . S
C374 C379 1.390 . S
C375 H340 0.930 1_545 S
C375 C374 1.363 . S
C375 C376 1.372 . S
C376 H341 0.930 1_545 S
C376 C375 1.372 . S
C376 C377 1.383 . S
C377 C376 1.383 . S
C377 C378 1.395 . S
C378 H342 0.930 . S
C378 C377 1.395 . S
C378 C379 1.362 . S
C379 H343 0.930 . S
C379 C374 1.390 . S
C379 C378 1.362 . S
C380 C369 1.492 . S
C380 C381 1.377 . S
C380 C385 1.397 . S
C381 H344 0.928 1_545 S
C381 C380 1.377 . S
C381 C382 1.376 . S
C382 H345 0.930 1_545 S
C382 C381 1.376 . S
C382 C383 1.376 . S
C383 C382 1.376 . S
C383 C384 1.378 . S
C383 C410 1.486 . S
C384 H346 0.930 . S
C384 C383 1.378 . S
C384 C385 1.376 . S
C385 H347 0.929 . S
C385 C380 1.397 . S
C385 C384 1.376 . S
C386 C370 1.509 . S
C386 C387 1.391 . S
C386 C391 1.386 . S
C387 H348 0.930 . S
C387 C386 1.391 . S
C387 C388 1.375 . S
C388 H349 0.931 . S
C388 C387 1.375 . S
C388 C389 1.375 . S
C389 C388 1.375 . S
C389 C390 1.361 . S
C390 H350 0.930 . S
C390 C389 1.361 . S
C390 C391 1.399 . S
C391 H351 0.929 . S
C391 C386 1.386 . S
C391 C390 1.399 . S
C392 C371 1.485 . S
C392 C393 1.394 . S
C392 C397 1.360 . S
C393 H352 0.931 . S
C393 C392 1.394 . S
C393 C394 1.372 . S
C394 H353 0.930 . S
C394 C393 1.372 . S
C394 C395 1.397 . S
C395 C394 1.397 . S
C395 C396 1.390 . S
C395 C411 1.476 . S
C396 H354 0.930 . S
C396 C395 1.390 . S
C396 C397 1.366 . S
C397 H355 0.932 . S
C397 C392 1.360 . S
C397 C396 1.366 . S
C398 C372 1.490 . S
C398 C399 1.380 . S
C398 C403 1.386 . S
C399 H356 0.930 1_545 S
C399 C398 1.380 . S
C399 C400 1.381 . S
C400 H357 0.929 1_545 S
C400 C399 1.381 . S
C400 C401 1.371 . S
C401 C400 1.371 . S
C401 C402 1.380 . S
C402 H358 0.931 . S
C402 C401 1.380 . S
C402 C403 1.387 . S
C403 H359 0.930 . S
C403 C398 1.386 . S
C403 C402 1.387 . S
C404 C373 1.519 . S
C404 C405 1.377 . S
C404 C409 1.361 . S
C405 H360 0.929 . S
C405 C404 1.377 . S
C405 C406 1.386 . S
C406 H361 0.931 . S
C406 C405 1.386 . S
C406 C407 1.363 . S
C407 C406 1.363 . S
C407 C408 1.385 . S
C408 H362 0.930 . S
C408 C407 1.385 . S
C408 C409 1.396 . S
C409 H363 0.929 . S
C409 C404 1.361 . S
C409 C408 1.396 . S
C410 O364 1.300 . S
C410 O365 1.209 . S
C410 C383 1.486 . S
C411 O366 1.199 . S
C411 O367 1.297 . S
C411 C395 1.476 . S
H412 O438 0.856 . S
H413 O441 0.854 . S
H414 C449 0.930 . S
H415 C450 0.930 . S
H416 C452 0.930 . S
H417 C453 0.930 . S
H418 C455 0.931 . S
H419 C456 0.930 1_554 S
H420 C458 0.930 . S
H421 C459 0.929 . S
H422 C461 0.930 . S
H423 C462 0.931 . S
H424 C464 0.930 . S
H425 C465 0.929 . S
H426 C467 0.931 . S
H427 C468 0.930 . S
H428 C470 0.930 . S
H429 C471 0.932 . S
H430 C473 0.930 . S
H431 C474 0.929 . S
H432 C476 0.931 . S
H433 C477 0.930 . S
H434 C479 0.929 . S
H435 C480 0.931 . S
H436 C482 0.930 . S
H437 C483 0.929 . S
O438 H412 0.856 . S
O438 C484 1.300 . S
O439 C484 1.209 . S
O440 C485 1.199 . S
O441 H413 0.854 . S
O441 C485 1.297 . S
C442 C443 1.404 . S
C442 C447 1.397 . S
C442 C448 1.492 . S
C443 C442 1.404 . S
C443 C444 1.396 . S
C443 C454 1.492 . S
C444 C443 1.396 . S
C444 C445 1.397 . S
C444 C460 1.509 . S
C445 C444 1.397 . S
C445 C446 1.412 . S
C445 C466 1.485 . S
C446 C445 1.412 . S
C446 C447 1.388 . S
C446 C472 1.490 . S
C447 C442 1.397 . S
C447 C446 1.388 . S
C447 C478 1.519 . S
C448 C442 1.492 . S
C448 C449 1.363 . S
C448 C453 1.390 . S
C449 H414 0.930 . S
C449 C448 1.363 . S
C449 C450 1.372 . S
C450 H415 0.930 . S
C450 C449 1.372 . S
C450 C451 1.383 . S
C451 C450 1.383 . S
C451 C452 1.395 . S
C452 H416 0.930 . S
C452 C451 1.395 . S
C452 C453 1.362 . S
C453 H417 0.930 . S
C453 C448 1.390 . S
C453 C452 1.362 . S
C454 C443 1.492 . S
C454 C455 1.377 . S
C454 C459 1.397 . S
C455 H418 0.931 . S
C455 C454 1.377 . S
C455 C456 1.376 . S
C456 H419 0.930 1_556 S
C456 C455 1.376 . S
C456 C457 1.376 1_556 S
C457 C456 1.376 1_554 S
C457 C458 1.378 1_554 S
C457 C484 1.486 . S
C458 H420 0.930 . S
C458 C457 1.378 1_556 S
C458 C459 1.376 . S
C459 H421 0.929 . S
C459 C454 1.397 . S
C459 C458 1.376 . S
C460 C444 1.509 . S
C460 C461 1.391 . S
C460 C465 1.386 . S
C461 H422 0.930 . S
C461 C460 1.391 . S
C461 C462 1.375 . S
C462 H423 0.931 . S
C462 C461 1.375 . S
C462 C463 1.375 . S
C463 C462 1.375 . S
C463 C464 1.361 . S
C464 H424 0.930 . S
C464 C463 1.361 . S
C464 C465 1.399 . S
C465 H425 0.929 . S
C465 C460 1.386 . S
C465 C464 1.399 . S
C466 C445 1.485 . S
C466 C467 1.394 . S
C466 C471 1.360 . S
C467 H426 0.931 . S
C467 C466 1.394 . S
C467 C468 1.372 . S
C468 H427 0.930 . S
C468 C467 1.372 . S
C468 C469 1.397 . S
C469 C468 1.397 . S
C469 C470 1.390 . S
C469 C485 1.476 . S
C470 H428 0.930 . S
C470 C469 1.390 . S
C470 C471 1.366 . S
C471 H429 0.932 . S
C471 C466 1.360 . S
C471 C470 1.366 . S
C472 C446 1.490 . S
C472 C473 1.380 . S
C472 C477 1.386 . S
C473 H430 0.930 . S
C473 C472 1.380 . S
C473 C474 1.381 . S
C474 H431 0.929 . S
C474 C473 1.381 . S
C474 C475 1.371 . S
C475 C474 1.371 . S
C475 C476 1.380 . S
C476 H432 0.931 . S
C476 C475 1.380 . S
C476 C477 1.387 . S
C477 H433 0.930 . S
C477 C472 1.386 . S
C477 C476 1.387 . S
C478 C447 1.519 . S
C478 C479 1.377 . S
C478 C483 1.361 . S
C479 H434 0.929 . S
C479 C478 1.377 . S
C479 C480 1.386 . S
C480 H435 0.931 . S
C480 C479 1.386 . S
C480 C481 1.363 . S
C481 C480 1.363 . S
C481 C482 1.385 . S
C482 H436 0.930 . S
C482 C481 1.385 . S
C482 C483 1.396 . S
C483 H437 0.929 . S
C483 C478 1.361 . S
C483 C482 1.396 . S
C484 O438 1.300 . S
C484 O439 1.209 . S
C484 C457 1.486 . S
C485 O440 1.199 . S
C485 O441 1.297 . S
C485 C469 1.476 . S
C486 C487 1.369 . S
C486 C488 1.419 . S
C486 H490 0.930 . S
C487 C486 1.369 . S
C487 C496 1.429 . S
C488 C486 1.419 . S
C488 C489 1.363 . S
C488 H491 0.929 . S
C489 C488 1.363 . S
C489 C495 1.428 . S
H490 C486 0.930 . S
H491 C488 0.929 . S
S492 N493 1.613 1_455 S
S492 N494 1.610 . S
N493 S492 1.613 1_655 S
N493 C496 1.350 1_655 S
N494 S492 1.610 . S
N494 C495 1.351 . S
C495 C489 1.428 . S
C495 N494 1.351 . S
C495 C496 1.434 . S
C496 C487 1.429 . S
C496 N493 1.350 1_455 S
C496 C495 1.434 . S
C497 C498 1.369 1_545 S
C497 C499 1.419 . S
C497 H501 0.930 . S
C498 C497 1.369 1_565 S
C498 C507 1.429 . S
C499 C497 1.419 . S
C499 C500 1.363 . S
C499 H502 0.929 . S
C500 C499 1.363 . S
C500 C506 1.428 1_545 S
H501 C497 0.930 . S
H502 C499 0.929 . S
S503 N504 1.613 . S
S503 N505 1.610 . S
N504 S503 1.613 . S
N504 C507 1.350 . S
N505 S503 1.610 . S
N505 C506 1.351 . S
C506 C500 1.428 1_565 S
C506 N505 1.351 . S
C506 C507 1.434 . S
C507 C498 1.429 . S
C507 N504 1.350 . S
C507 C506 1.434 . S
C508 C509 1.369 . S
C508 C510 1.419 . S
C508 H512 0.930 . S
C509 C508 1.369 . S
C509 C518 1.429 . S
C510 C508 1.419 . S
C510 C511 1.363 . S
C510 H513 0.929 . S
C511 C510 1.363 . S
C511 C517 1.428 . S
H512 C508 0.930 . S
H513 C510 0.929 . S
S514 N515 1.613 . S
S514 N516 1.610 . S
N515 S514 1.613 . S
N515 C518 1.350 . S
N516 S514 1.610 . S
N516 C517 1.351 . S
C517 C511 1.428 . S
C517 N516 1.351 . S
C517 C518 1.434 . S
C518 C509 1.429 . S
C518 N515 1.350 . S
C518 C517 1.434 . S
C519 C520 1.369 . S
C519 C521 1.419 . S
C519 H523 0.930 . S
C520 C519 1.369 . S
C520 C529 1.429 . S
C521 C519 1.419 . S
C521 C522 1.363 . S
C521 H524 0.929 . S
C522 C521 1.363 . S
C522 C528 1.428 . S
H523 C519 0.930 . S
H524 C521 0.929 . S
S525 N526 1.613 . S
S525 N527 1.610 . S
N526 S525 1.613 . S
N526 C529 1.350 . S
N527 S525 1.610 . S
N527 C528 1.351 . S
C528 C522 1.428 . S
C528 N527 1.351 . S
C528 C529 1.434 . S
C529 C520 1.429 . S
C529 N526 1.350 . S
C529 C528 1.434 . S
C530 C531 1.369 . S
C530 C532 1.419 . S
C530 H534 0.930 . S
C531 C530 1.369 . S
C531 C540 1.429 . S
C532 C530 1.419 . S
C532 C533 1.363 . S
C532 H535 0.929 . S
C533 C532 1.363 . S
C533 C539 1.428 . S
H534 C530 0.930 . S
H535 C532 0.929 . S
S536 N537 1.613 . S
S536 N538 1.610 . S
N537 S536 1.613 . S
N537 C540 1.350 . S
N538 S536 1.610 . S
N538 C539 1.351 . S
C539 C533 1.428 . S
C539 N538 1.351 . S
C539 C540 1.434 . S
C540 C531 1.429 . S
C540 N537 1.350 . S
C540 C539 1.434 . S
C541 C542 1.369 . S
C541 C543 1.419 . S
C541 H545 0.930 . S
C542 C541 1.369 . S
C542 C551 1.429 . S
C543 C541 1.419 . S
C543 C544 1.363 . S
C543 H546 0.929 . S
C544 C543 1.363 . S
C544 C550 1.428 . S
H545 C541 0.930 . S
H546 C543 0.929 . S
S547 N548 1.613 . S
S547 N549 1.610 . S
N548 S547 1.613 . S
N548 C551 1.350 . S
N549 S547 1.610 . S
N549 C550 1.351 . S
C550 C544 1.428 . S
C550 N549 1.351 . S
C550 C551 1.434 . S
C551 C542 1.429 . S
C551 N548 1.350 . S
C551 C550 1.434 . S
C552 C553 1.369 . S
C552 C554 1.419 . S
C552 H556 0.930 . S
C553 C552 1.369 . S
C553 C562 1.429 . S
C554 C552 1.419 . S
C554 C555 1.363 . S
C554 H557 0.929 . S
C555 C554 1.363 . S
C555 C561 1.428 . S
H556 C552 0.930 . S
H557 C554 0.929 . S
S558 N559 1.613 . S
S558 N560 1.610 . S
N559 S558 1.613 . S
N559 C562 1.350 . S
N560 S558 1.610 . S
N560 C561 1.351 . S
C561 C555 1.428 . S
C561 N560 1.351 . S
C561 C562 1.434 . S
C562 C553 1.429 . S
C562 N559 1.350 . S
C562 C561 1.434 . S
C563 C564 1.369 1_556 S
C563 C565 1.419 . S
C563 H567 0.930 1_556 S
C564 C563 1.369 1_554 S
C564 C573 1.429 1_554 S
C565 C563 1.419 . S
C565 C566 1.363 . S
C565 H568 0.929 . S
C566 C565 1.363 . S
C566 C572 1.428 . S
H567 C563 0.930 1_554 S
H568 C565 0.929 . S
S569 N570 1.613 . S
S569 N571 1.610 . S
N570 S569 1.613 . S
N570 C573 1.350 . S
N571 S569 1.610 . S
N571 C572 1.351 . S
C572 C566 1.428 . S
C572 N571 1.351 . S
C572 C573 1.434 . S
C573 C564 1.429 1_556 S
C573 N570 1.350 . S
C573 C572 1.434 . S
C574 C575 1.348 1_455 S
C574 C576 1.419 . S
C574 H578 0.930 . S
C575 C574 1.348 1_655 S
C575 C584 1.436 . S
C576 C574 1.419 . S
C576 C577 1.363 . S
C576 H579 0.929 . S
C577 C576 1.363 . S
C577 C583 1.428 1_455 S
H578 C574 0.930 . S
H579 C576 0.929 . S
S580 N581 1.613 . S
S580 N582 1.610 . S
N581 S580 1.613 . S
N581 C584 1.350 . S
N582 S580 1.610 . S
N582 C583 1.351 . S
C583 C577 1.428 1_655 S
C583 N582 1.351 . S
C583 C584 1.434 . S
C584 C575 1.436 . S
C584 N581 1.350 . S
C584 C583 1.434 . S
C585 C586 1.369 . S
C585 C587 1.419 . S
C585 H589 0.930 . S
C586 C585 1.369 . S
C586 C595 1.429 . S
C587 C585 1.419 . S
C587 C588 1.363 . S
C587 H590 0.929 . S
C588 C587 1.363 . S
C588 C594 1.428 . S
H589 C585 0.930 . S
H590 C587 0.929 . S
S591 N592 1.613 . S
S591 N593 1.610 . S
N592 S591 1.613 . S
N592 C595 1.350 . S
N593 S591 1.610 . S
N593 C594 1.351 . S
C594 C588 1.428 . S
C594 N593 1.351 . S
C594 C595 1.434 . S
C595 C586 1.429 . S
C595 N592 1.350 . S
C595 C594 1.434 . S
C596 C597 1.328 1_556 S
C596 C598 1.448 . S
C596 H600 0.943 . S
C597 C596 1.328 1_554 S
C597 C606 1.429 . S
C598 C596 1.448 . S
C598 C599 1.363 . S
C598 H601 0.929 . S
C599 C598 1.363 . S
C599 C605 1.428 1_556 S
H600 C596 0.943 . S
H601 C598 0.929 . S
S602 N603 1.613 . S
S602 N604 1.610 . S
N603 S602 1.613 . S
N603 C606 1.350 . S
N604 S602 1.610 . S
N604 C605 1.351 . S
C605 C599 1.428 1_554 S
C605 N604 1.351 . S
C605 C606 1.434 . S
C606 C597 1.429 . S
C606 N603 1.350 . S
C606 C605 1.434 . S
C607 C608 1.369 . S
C607 C609 1.419 . S
C607 H611 0.930 . S
C608 C607 1.369 . S
C608 C617 1.429 . S
C609 C607 1.419 . S
C609 C610 1.363 . S
C609 H612 0.929 . S
C610 C609 1.363 . S
C610 C616 1.428 . S
H611 C607 0.930 . S
H612 C609 0.929 . S
S613 N614 1.613 . S
S613 N615 1.610 . S
N614 S613 1.613 . S
N614 C617 1.350 . S
N615 S613 1.610 . S
N615 C616 1.351 . S
C616 C610 1.428 . S
C616 N615 1.351 . S
C616 C617 1.434 . S
C617 C608 1.429 . S
C617 N614 1.350 . S
C617 C616 1.434 . S
C489 C303 1.512 . S
C487 C29 1.590 . S
C498 C137 1.620 . S
C500 C377 1.543 . S
C509 C225 2.116 . S
C511 C481 2.154 . S
C520 C49 0.812 . S
C522 C315 0.822 . S
C533 C389 0.771 . S
C531 C117 0.769 . S
C542 C205 1.516 . S
C544 C475 1.428 . S
C555 C407 2.160 . S
C553 C233 2.122 . S
C564 C57 1.599 . S
C566 C451 1.513 . S
C577 C327 1.468 . S
C575 C108 1.558 . S
C588 C401 1.427 . S
C586 C196 1.532 . S
C599 C463 0.825 . S
C597 C20 0.819 . S
C608 C145 2.112 . S
C610 C333 2.139 . S
