# Generated by pormake.
# Topology ctn, (3,4)-cn, num edge types: 1
# Building blocks:
#     Node 0, Type 0, BuildingBlock: BETDAH_clean_linker_0, # of connection points: 3
#     Node 1, Type 0, BuildingBlock: BETDAH_clean_linker_0, # of connection points: 3
#     Node 2, Type 0, BuildingBlock: BETDAH_clean_linker_0, # of connection points: 3
#     Node 3, Type 0, BuildingBlock: BETDAH_clean_linker_0, # of connection points: 3
#     Node 4, Type 0, BuildingBlock: BETDAH_clean_linker_0, # of connection points: 3
#     Node 5, Type 0, BuildingBlock: BETDAH_clean_linker_0, # of connection points: 3
#     Node 6, Type 0, BuildingBlock: BETDAH_clean_linker_0, # of connection points: 3
#     Node 7, Type 0, BuildingBlock: BETDAH_clean_linker_0, # of connection points: 3
#     Node 8, Type 0, BuildingBlock: BETDAH_clean_linker_0, # of connection points: 3
#     Node 9, Type 0, BuildingBlock: BETDAH_clean_linker_0, # of connection points: 3
#     Node 10, Type 0, BuildingBlock: BETDAH_clean_linker_0, # of connection points: 3
#     Node 11, Type 0, BuildingBlock: BETDAH_clean_linker_0, # of connection points: 3
#     Node 12, Type 0, BuildingBlock: BETDAH_clean_linker_0, # of connection points: 3
#     Node 13, Type 0, BuildingBlock: BETDAH_clean_linker_0, # of connection points: 3
#     Node 14, Type 0, BuildingBlock: BETDAH_clean_linker_0, # of connection points: 3
#     Node 15, Type 0, BuildingBlock: BETDAH_clean_linker_0, # of connection points: 3
#     Node 16, Type 1, BuildingBlock: AZAVOO_clean_sbu_0, # of connection points: 4
#     Node 17, Type 1, BuildingBlock: AZAVOO_clean_sbu_0, # of connection points: 4
#     Node 18, Type 1, BuildingBlock: AZAVOO_clean_sbu_0, # of connection points: 4
#     Node 19, Type 1, BuildingBlock: AZAVOO_clean_sbu_0, # of connection points: 4
#     Node 20, Type 1, BuildingBlock: AZAVOO_clean_sbu_0, # of connection points: 4
#     Node 21, Type 1, BuildingBlock: AZAVOO_clean_sbu_0, # of connection points: 4
#     Node 22, Type 1, BuildingBlock: AZAVOO_clean_sbu_0, # of connection points: 4
#     Node 23, Type 1, BuildingBlock: AZAVOO_clean_sbu_0, # of connection points: 4
#     Node 24, Type 1, BuildingBlock: AZAVOO_clean_sbu_0, # of connection points: 4
#     Node 25, Type 1, BuildingBlock: AZAVOO_clean_sbu_0, # of connection points: 4
#     Node 26, Type 1, BuildingBlock: AZAVOO_clean_sbu_0, # of connection points: 4
#     Node 27, Type 1, BuildingBlock: AZAVOO_clean_sbu_0, # of connection points: 4
#     Edge 28, Type (0, 1), BuildingBlock: UVAHIK_clean_linker_0, # of connection points: 2
#     Edge 29, Type (0, 1), BuildingBlock: UVAHIK_clean_linker_0, # of connection points: 2
#     Edge 30, Type (0, 1), BuildingBlock: UVAHIK_clean_linker_0, # of connection points: 2
#     Edge 31, Type (0, 1), BuildingBlock: UVAHIK_clean_linker_0, # of connection points: 2
#     Edge 32, Type (0, 1), BuildingBlock: UVAHIK_clean_linker_0, # of connection points: 2
#     Edge 33, Type (0, 1), BuildingBlock: UVAHIK_clean_linker_0, # of connection points: 2
#     Edge 34, Type (0, 1), BuildingBlock: UVAHIK_clean_linker_0, # of connection points: 2
#     Edge 35, Type (0, 1), BuildingBlock: UVAHIK_clean_linker_0, # of connection points: 2
#     Edge 36, Type (0, 1), BuildingBlock: UVAHIK_clean_linker_0, # of connection points: 2
#     Edge 37, Type (0, 1), BuildingBlock: UVAHIK_clean_linker_0, # of connection points: 2
#     Edge 38, Type (0, 1), BuildingBlock: UVAHIK_clean_linker_0, # of connection points: 2
#     Edge 39, Type (0, 1), BuildingBlock: UVAHIK_clean_linker_0, # of connection points: 2
#     Edge 40, Type (0, 1), BuildingBlock: UVAHIK_clean_linker_0, # of connection points: 2
#     Edge 41, Type (0, 1), BuildingBlock: UVAHIK_clean_linker_0, # of connection points: 2
#     Edge 42, Type (0, 1), BuildingBlock: UVAHIK_clean_linker_0, # of connection points: 2
#     Edge 43, Type (0, 1), BuildingBlock: UVAHIK_clean_linker_0, # of connection points: 2
#     Edge 44, Type (0, 1), BuildingBlock: UVAHIK_clean_linker_0, # of connection points: 2
#     Edge 45, Type (0, 1), BuildingBlock: UVAHIK_clean_linker_0, # of connection points: 2
#     Edge 46, Type (0, 1), BuildingBlock: UVAHIK_clean_linker_0, # of connection points: 2
#     Edge 47, Type (0, 1), BuildingBlock: UVAHIK_clean_linker_0, # of connection points: 2
#     Edge 48, Type (0, 1), BuildingBlock: UVAHIK_clean_linker_0, # of connection points: 2
#     Edge 49, Type (0, 1), BuildingBlock: UVAHIK_clean_linker_0, # of connection points: 2
#     Edge 50, Type (0, 1), BuildingBlock: UVAHIK_clean_linker_0, # of connection points: 2
#     Edge 51, Type (0, 1), BuildingBlock: UVAHIK_clean_linker_0, # of connection points: 2
#     Edge 52, Type (0, 1), BuildingBlock: UVAHIK_clean_linker_0, # of connection points: 2
#     Edge 53, Type (0, 1), BuildingBlock: UVAHIK_clean_linker_0, # of connection points: 2
#     Edge 54, Type (0, 1), BuildingBlock: UVAHIK_clean_linker_0, # of connection points: 2
#     Edge 55, Type (0, 1), BuildingBlock: UVAHIK_clean_linker_0, # of connection points: 2
#     Edge 56, Type (0, 1), BuildingBlock: UVAHIK_clean_linker_0, # of connection points: 2
#     Edge 57, Type (0, 1), BuildingBlock: UVAHIK_clean_linker_0, # of connection points: 2
#     Edge 58, Type (0, 1), BuildingBlock: UVAHIK_clean_linker_0, # of connection points: 2
#     Edge 59, Type (0, 1), BuildingBlock: UVAHIK_clean_linker_0, # of connection points: 2
#     Edge 60, Type (0, 1), BuildingBlock: UVAHIK_clean_linker_0, # of connection points: 2
#     Edge 61, Type (0, 1), BuildingBlock: UVAHIK_clean_linker_0, # of connection points: 2
#     Edge 62, Type (0, 1), BuildingBlock: UVAHIK_clean_linker_0, # of connection points: 2
#     Edge 63, Type (0, 1), BuildingBlock: UVAHIK_clean_linker_0, # of connection points: 2
#     Edge 64, Type (0, 1), BuildingBlock: UVAHIK_clean_linker_0, # of connection points: 2
#     Edge 65, Type (0, 1), BuildingBlock: UVAHIK_clean_linker_0, # of connection points: 2
#     Edge 66, Type (0, 1), BuildingBlock: UVAHIK_clean_linker_0, # of connection points: 2
#     Edge 67, Type (0, 1), BuildingBlock: UVAHIK_clean_linker_0, # of connection points: 2
#     Edge 68, Type (0, 1), BuildingBlock: UVAHIK_clean_linker_0, # of connection points: 2
#     Edge 69, Type (0, 1), BuildingBlock: UVAHIK_clean_linker_0, # of connection points: 2
#     Edge 70, Type (0, 1), BuildingBlock: UVAHIK_clean_linker_0, # of connection points: 2
#     Edge 71, Type (0, 1), BuildingBlock: UVAHIK_clean_linker_0, # of connection points: 2
#     Edge 72, Type (0, 1), BuildingBlock: UVAHIK_clean_linker_0, # of connection points: 2
#     Edge 73, Type (0, 1), BuildingBlock: UVAHIK_clean_linker_0, # of connection points: 2
#     Edge 74, Type (0, 1), BuildingBlock: UVAHIK_clean_linker_0, # of connection points: 2
#     Edge 75, Type (0, 1), BuildingBlock: UVAHIK_clean_linker_0, # of connection points: 2
# Relax obj value: 0.050
# Max RMSD: 0.173
# Mean RMSD: 0.106
data_MOF--net-ctn--node1-AZAVOO_clean_sbu_0--node2-BETDAH_clean_linker_0--edge1-UVAHIK_clean_linker_0
_symmetry_space_group_name_H-M    P1
_symmetry_Int_Tables_number       1
_symmetry_cell_setting            triclinic
loop_
_symmetry_equiv_pos_as_xyz
'x, y, z'
_cell_length_a     69.175205
_cell_length_b     70.109547
_cell_length_c     70.918656
_cell_angle_alpha  98.309989
_cell_angle_beta   92.784982
_cell_angle_gamma 97.286321
loop_
_atom_site_label
_atom_site_type_symbol
_atom_site_fract_x
_atom_site_fract_y
_atom_site_fract_z
_atom_type_partial_charge
H0 H 0.06495 0.01878 0.06938 0.0
H1 H 0.05903 0.0128 0.00792 0.0
H2 H 0.01462 0.03546 0.04109 0.0
C3 C 0.05696 0.02052 0.05635 0.0
C4 C 0.03888 0.02766 0.05744 0.0
C5 C 0.0645 0.01512 0.03856 0.0
C6 C 0.0538 0.01729 0.02181 0.0
C7 C 0.03607 0.02489 0.02278 0.0
C8 C 0.02858 0.02997 0.04052 0.0
N9 N 0.0253 0.02633 0.00572 0.0
C10 C 0.02451 0.04418 0.99967 0.0
H11 H 0.3333 0.699 0.24887 0.0
H12 H 0.3743 0.73361 0.21953 0.0
H13 H 0.31771 0.71037 0.19247 0.0
C14 C 0.33688 0.70618 0.23669 0.0
C15 C 0.32325 0.70369 0.2209 0.0
C16 C 0.35545 0.71684 0.23639 0.0
C17 C 0.36013 0.7252 0.22008 0.0
C18 C 0.34651 0.72328 0.20449 0.0
C19 C 0.32804 0.71242 0.20481 0.0
N20 N 0.35223 0.73159 0.18827 0.0
C21 C 0.34063 0.74242 0.1788 0.0
H22 H 0.02612 0.46322 0.05408 0.0
H23 H 0.01148 0.51777 0.08154 0.0
H24 H 0.98426 0.49244 0.02629 0.0
C25 C 0.01808 0.47552 0.05401 0.0
C26 C 0.00523 0.47621 0.0382 0.0
C27 C 0.02018 0.49023 0.06991 0.0
C28 C 0.00959 0.50595 0.06964 0.0
C29 C 0.99659 0.50683 0.05416 0.0
C30 C 0.99414 0.49177 0.03844 0.0
N31 N 0.98703 0.52362 0.05491 0.0
C32 C 0.9705 0.52575 0.04391 0.0
H33 H 0.77218 0.83509 0.19833 0.0
H34 H 0.72188 0.80964 0.22388 0.0
H35 H 0.75181 0.86575 0.24891 0.0
C36 C 0.76194 0.83592 0.20941 0.0
C37 C 0.76396 0.85235 0.22361 0.0
C38 C 0.74683 0.82046 0.20941 0.0
C39 C 0.73358 0.82149 0.22386 0.0
C40 C 0.73528 0.8381 0.23793 0.0
C41 C 0.75043 0.85328 0.23769 0.0
N42 N 0.72213 0.84039 0.25258 0.0
C43 C 0.70703 0.82656 0.25605 0.0
H44 H 0.06823 0.01712 0.47298 0.0
H45 H 0.07823 0.01432 0.53282 0.0
H46 H 0.02354 0.98819 0.50314 0.0
C47 C 0.06336 0.01219 0.48598 0.0
C48 C 0.04448 0.00204 0.48595 0.0
C49 C 0.07572 0.01667 0.50277 0.0
C50 C 0.0691 0.01056 0.5196 0.0
C51 C 0.05052 0.99998 0.51969 0.0
C52 C 0.03816 0.9958 0.50288 0.0
N53 N 0.04391 0.99524 0.53723 0.0
C54 C 0.03814 0.97623 0.54008 0.0
H55 H 0.2472 0.70105 0.82259 0.0
H56 H 0.19297 0.71425 0.79829 0.0
H57 H 0.22313 0.67064 0.76798 0.0
C58 C 0.23559 0.69837 0.81132 0.0
C59 C 0.23701 0.68455 0.79525 0.0
C60 C 0.21976 0.70921 0.81266 0.0
C61 C 0.20535 0.70619 0.79739 0.0
C62 C 0.20658 0.69219 0.78128 0.0
C63 C 0.22233 0.68145 0.78039 0.0
N64 N 0.19209 0.68806 0.76586 0.0
C65 C 0.17887 0.70042 0.76156 0.0
H66 H 0.95161 0.52904 0.49787 0.0
H67 H 0.00638 0.52945 0.47114 0.0
H68 H 0.96802 0.47584 0.46933 0.0
C69 C 0.9618 0.52155 0.48942 0.0
C70 C 0.95763 0.5014 0.48377 0.0
C71 C 0.97955 0.53179 0.48528 0.0
C72 C 0.99271 0.52171 0.47448 0.0
C73 C 0.98839 0.5015 0.46851 0.0
C74 C 0.97112 0.49147 0.47362 0.0
N75 N 1.00134 0.49058 0.45807 0.0
C76 C 0.01436 0.49783 0.44568 0.0
H77 H 0.82468 0.746 0.79727 0.0
H78 H 0.78973 0.77334 0.75959 0.0
H79 H 0.76341 0.7474 0.80464 0.0
C80 C 0.81085 0.75034 0.79297 0.0
C81 C 0.79449 0.74631 0.80357 0.0
C82 C 0.80929 0.75977 0.77674 0.0
C83 C 0.79124 0.7657 0.7717 0.0
C84 C 0.77481 0.76116 0.78181 0.0
C85 C 0.77642 0.75117 0.7973 0.0
N86 N 0.75618 0.76552 0.77607 0.0
C87 C 0.75287 0.78392 0.77278 0.0
H88 H 0.33243 0.25152 0.29652 0.0
H89 H 0.30035 0.27587 0.25428 0.0
H90 H 0.26996 0.2499 0.29724 0.0
C91 C 0.31872 0.25472 0.29053 0.0
C92 C 0.30132 0.24994 0.29935 0.0
C93 C 0.31858 0.26396 0.27414 0.0
C94 C 0.30085 0.26898 0.267 0.0
C95 C 0.28343 0.26394 0.27548 0.0
C96 C 0.28368 0.25414 0.29125 0.0
N97 N 0.26528 0.26751 0.26762 0.0
C98 C 0.2613 0.28614 0.26603 0.0
H99 H 0.52843 0.96567 0.5498 0.0
H100 H 0.51315 0.02126 0.57367 0.0
H101 H 0.48586 0.99195 0.51968 0.0
C102 C 0.52022 0.97772 0.54885 0.0
C103 C 0.50725 0.97712 0.53283 0.0
C104 C 0.52223 0.99338 0.56388 0.0
C105 C 0.51138 0.00876 0.56248 0.0
C106 C 0.49815 0.00831 0.54679 0.0
C107 C 0.49585 0.99229 0.53201 0.0
N108 N 0.48814 0.02468 0.54619 0.0
C109 C 0.47049 0.02468 0.53597 0.0
H110 H 0.27145 0.33683 0.70372 0.0
H111 H 0.23313 0.30065 0.73435 0.0
H112 H 0.26632 0.35347 0.76373 0.0
C113 C 0.26459 0.33422 0.71671 0.0
C114 C 0.26996 0.34734 0.73354 0.0
C115 C 0.25162 0.31708 0.71689 0.0
C116 C 0.24314 0.31378 0.73401 0.0
C117 C 0.24828 0.32711 0.75086 0.0
C118 C 0.26202 0.3435 0.7506 0.0
N119 N 0.24085 0.32394 0.76858 0.0
C120 C 0.22188 0.31566 0.77064 0.0
H121 H 0.83707 0.19847 0.74743 0.0
H122 H 0.87684 0.23439 0.71811 0.0
H123 H 0.82182 0.20743 0.69007 0.0
C124 C 0.84039 0.20557 0.73514 0.0
C125 C 0.82708 0.20187 0.719 0.0
C126 C 0.85847 0.21721 0.73504 0.0
C127 C 0.863 0.22535 0.71857 0.0
C128 C 0.84974 0.22213 0.70259 0.0
C129 C 0.83178 0.21038 0.70274 0.0
N130 N 0.85549 0.22953 0.68593 0.0
C131 C 0.84552 0.24265 0.6779 0.0
H132 H 0.56511 0.51441 0.56319 0.0
H133 H 0.55806 0.50583 0.50178 0.0
H134 H 0.51439 0.53022 0.53453 0.0
C135 C 0.55663 0.51532 0.55018 0.0
C136 C 0.53865 0.52275 0.55128 0.0
C137 C 0.56386 0.50914 0.53244 0.0
C138 C 0.55305 0.51088 0.51563 0.0
C139 C 0.53561 0.51897 0.5165 0.0
C140 C 0.52838 0.52482 0.53422 0.0
N141 N 0.52488 0.52025 0.49935 0.0
C142 C 0.52285 0.53814 0.49388 0.0
H143 H 0.56175 0.52556 0.9747 0.0
H144 H 0.57257 0.48651 0.01454 0.0
H145 H 0.52215 0.47318 0.97463 0.0
C146 C 0.55732 0.51249 0.9808 0.0
C147 C 0.54046 0.5001 0.97298 0.0
C148 C 0.56908 0.50771 0.99572 0.0
C149 C 0.5636 0.49033 0.00308 0.0
C150 C 0.54649 0.47795 0.99547 0.0
C151 C 0.53523 0.48286 0.98043 0.0
N152 N 0.5401 0.46021 0.00211 0.0
C153 C 0.54741 0.45396 0.01841 0.0
H154 H 0.75264 0.19311 0.32676 0.0
H155 H 0.7022 0.20858 0.29741 0.0
H156 H 0.73554 0.16661 0.26897 0.0
C157 C 0.74254 0.19127 0.31425 0.0
C158 C 0.74586 0.1785 0.298 0.0
C159 C 0.72688 0.2023 0.31421 0.0
C160 C 0.7144 0.20031 0.29754 0.0
C161 C 0.7175 0.1873 0.28123 0.0
C162 C 0.7332 0.17656 0.28159 0.0
N163 N 0.70514 0.18441 0.26421 0.0
C164 C 0.6907 0.1957 0.26041 0.0
H165 H 0.4499 0.02895 0.9981 0.0
H166 H 0.50113 0.03109 0.9658 0.0
H167 H 0.46123 0.97817 0.96075 0.0
C168 C 0.45874 0.02198 0.98768 0.0
C169 C 0.45332 0.00232 0.97998 0.0
C170 C 0.47605 0.03244 0.98278 0.0
C171 C 0.48778 0.02315 0.96961 0.0
C172 C 0.48228 0.00352 0.96162 0.0
C173 C 0.46527 0.99328 0.96702 0.0
N174 N 0.49361 0.99323 0.94856 0.0
C175 C 0.50758 0.00157 0.93767 0.0
Mg176 Mg 0.23803 0.86498 0.02941 0.0
O177 O 0.26835 0.8812 0.02493 0.0
O178 O 0.28952 0.85976 0.02646 0.0
Mg179 Mg 0.27382 0.83083 0.03241 0.0
C180 C 0.28569 0.87668 0.02423 0.0
C181 C 0.22589 0.90613 0.02974 0.0
O182 O 0.23986 0.90962 0.04351 0.0
O183 O 0.23657 0.84824 0.99879 0.0
O184 O 0.25728 0.82698 0.00315 0.0
O185 O 0.24299 0.87308 0.06152 0.0
O186 O 0.25134 0.84671 0.04473 0.0
C187 C 0.24502 0.83358 0.99258 0.0
C188 C 0.25148 0.85763 0.0609 0.0
O189 O 0.22232 0.88915 0.02014 0.0
Mg190 Mg 0.18043 0.51151 0.27143 0.0
O191 O 0.16074 0.50502 0.24332 0.0
O192 O 0.18107 0.50439 0.21968 0.0
Mg193 Mg 0.21267 0.511 0.23191 0.0
C194 C 0.16384 0.50281 0.22553 0.0
C195 C 0.15696 0.51361 0.30607 0.0
O196 O 0.17293 0.52606 0.31066 0.0
O197 O 0.18812 0.48035 0.26682 0.0
O198 O 0.20882 0.48201 0.2437 0.0
O199 O 0.18077 0.54342 0.27185 0.0
O200 O 0.20226 0.52655 0.25771 0.0
C201 C 0.19982 0.47263 0.25555 0.0
C202 C 0.19559 0.54294 0.26143 0.0
O203 O 0.15485 0.50365 0.28943 0.0
Mg204 Mg 0.79033 0.66162 0.02155 0.0
O205 O 0.7595 0.64382 0.01866 0.0
O206 O 0.73841 0.66552 0.01901 0.0
Mg207 Mg 0.75485 0.69625 0.02173 0.0
C208 C 0.74202 0.648 0.01813 0.0
C209 C 0.82021 0.63626 0.00459 0.0
O210 O 0.8257 0.65317 0.99921 0.0
O211 O 0.78733 0.66655 0.99028 0.0
O212 O 0.76667 0.68868 0.99222 0.0
O213 O 0.78984 0.66552 0.05358 0.0
O214 O 0.77955 0.68587 0.03564 0.0
C215 C 0.77766 0.67814 0.98262 0.0
C216 C 0.78171 0.68098 0.05232 0.0
O217 O 0.80486 0.63425 0.01369 0.0
Mg218 Mg 0.94407 0.05106 0.27458 0.0
O219 O 0.92467 0.0222 0.26287 0.0
O220 O 0.94445 1.00048 0.25296 0.0
Mg221 Mg 0.97608 0.0151 0.25813 0.0
C222 C 0.92738 0.00507 0.25551 0.0
C223 C 0.91616 0.08054 0.28228 0.0
O224 O 0.92973 0.0883 0.27229 0.0
O225 O 0.95211 0.0387 0.30176 0.0
O226 O 0.97263 0.01828 0.29052 0.0
O227 O 0.94383 0.05964 0.2455 0.0
O228 O 0.96595 0.04328 0.2565 0.0
C229 C 0.96388 0.02648 0.3043 0.0
C230 C 0.95881 0.0506 0.24247 0.0
O231 O 0.91778 0.06398 0.28708 0.0
Mg232 Mg 0.29727 0.17004 0.52004 0.0
O233 O 0.26713 0.15103 0.51598 0.0
O234 O 0.24481 0.1714 0.51489 0.0
Mg235 Mg 0.25997 0.20272 0.51897 0.0
C236 C 0.24938 0.15424 0.51424 0.0
C237 C 0.31072 0.12886 0.52119 0.0
O238 O 0.29783 0.1284 0.53418 0.0
O239 O 0.29487 0.17503 0.48875 0.0
O240 O 0.27304 0.19602 0.49003 0.0
O241 O 0.29575 0.17364 0.55196 0.0
O242 O 0.28487 0.19343 0.53372 0.0
C243 C 0.28478 0.18612 0.4808 0.0
C244 C 0.28691 0.18861 0.55045 0.0
O245 O 0.31312 0.1435 0.51243 0.0
Mg246 Mg 0.4362 0.55791 0.76383 0.0
O247 O 0.41764 0.52788 0.75474 0.0
O248 O 0.43847 0.50637 0.74756 0.0
Mg249 Mg 0.46961 0.52215 0.7511 0.0
C250 C 0.42114 0.5105 0.74942 0.0
C251 C 0.40617 0.58594 0.76829 0.0
O252 O 0.41812 0.59245 0.75611 0.0
O253 O 0.44512 0.54894 0.79254 0.0
O254 O 0.4659 0.52795 0.78333 0.0
O255 O 0.43557 0.5634 0.73358 0.0
O256 O 0.45831 0.54916 0.74667 0.0
C257 C 0.457 0.53722 0.79631 0.0
C258 C 0.45098 0.55481 0.7317 0.0
O259 O 0.40958 0.57095 0.7754 0.0
Mg260 Mg 0.74127 0.36224 0.52878 0.0
O261 O 0.77072 0.37864 0.52223 0.0
O262 O 0.79224 0.35727 0.52212 0.0
Mg263 Mg 0.77804 0.329 0.53099 0.0
C264 C 0.78785 0.37402 0.51995 0.0
C265 C 0.72738 0.4026 0.52823 0.0
O266 O 0.74162 0.40701 0.54172 0.0
O267 O 0.73829 0.34412 0.49864 0.0
O268 O 0.75912 0.32294 0.50299 0.0
O269 O 0.74796 0.3719 0.56053 0.0
O270 O 0.75621 0.34524 0.54421 0.0
C271 C 0.74615 0.32897 0.49276 0.0
C272 C 0.757 0.35681 0.56006 0.0
O273 O 0.72421 0.38534 0.5192 0.0
Mg274 Mg 0.67879 0.01072 0.76806 0.0
O275 O 0.65943 0.00504 0.73971 0.0
O276 O 0.68005 0.00263 0.71637 0.0
Mg277 Mg 0.71153 0.00743 0.72893 0.0
C278 C 0.66276 0.0023 0.72199 0.0
C279 C 0.65538 0.0132 0.80299 0.0
O280 O 0.67242 0.02362 0.80841 0.0
O281 O 0.68451 0.97887 0.764 0.0
O282 O 0.70565 0.97884 0.74116 0.0
O283 O 0.68134 0.04283 0.76818 0.0
O284 O 0.70161 0.02418 0.75433 0.0
C285 C 0.69588 0.97021 0.75304 0.0
C286 C 0.6961 0.04115 0.75782 0.0
O287 O 0.65256 0.00459 0.78582 0.0
Mg288 Mg 0.04361 0.25801 0.91503 0.0
O289 O 0.01556 0.24826 0.89555 0.0
O290 O 0.99127 0.23995 0.91369 0.0
Mg291 Mg 0.00363 0.24441 0.94466 0.0
C292 C 0.99766 0.24217 0.89745 0.0
C293 C 0.0609 0.25815 0.8755 0.0
O294 O 0.05276 0.23998 0.87421 0.0
O295 O 0.0325 0.28688 0.92528 0.0
O296 O 0.00868 0.27734 0.9435 0.0
O297 O 0.05007 0.22743 0.91235 0.0
O298 O 0.03275 0.24066 0.93481 0.0
C299 C 0.0189 0.2906 0.93626 0.0
C300 C 0.03958 0.22547 0.92674 0.0
O301 O 0.05911 0.26994 0.89053 0.0
Mg302 Mg 0.54289 0.75436 0.41414 0.0
O303 O 0.51449 0.74581 0.39497 0.0
O304 O 0.4903 0.73795 0.41341 0.0
Mg305 Mg 0.50298 0.74183 0.44423 0.0
C306 C 0.49653 0.74018 0.3971 0.0
C307 C 0.57397 0.75797 0.38555 0.0
O308 O 0.57917 0.74511 0.39587 0.0
O309 O 0.53309 0.78376 0.42492 0.0
O310 O 0.50916 0.77477 0.44325 0.0
O311 O 0.54784 0.72339 0.41065 0.0
O312 O 0.53165 0.73697 0.43388 0.0
C313 C 0.51973 0.78785 0.43607 0.0
C314 C 0.53762 0.72155 0.42523 0.0
O315 O 0.55875 0.76579 0.38955 0.0
Mg316 Mg 0.99056 0.7521 0.6178 0.0
O317 O 0.01885 0.75099 0.63607 0.0
O318 O 0.04239 0.74785 0.61575 0.0
Mg319 Mg 0.02947 0.74568 0.58511 0.0
C320 C 0.03665 0.74957 0.63268 0.0
C321 C 0.95652 0.76181 0.64107 0.0
O322 O 0.94909 0.7565 0.6234 0.0
O323 O 1.00139 0.78323 0.6127 0.0
O324 O 0.02367 0.77741 0.59154 0.0
O325 O 0.98375 0.71962 0.61414 0.0
O326 O 1.00071 0.7355 0.59438 0.0
C327 C 0.01394 0.78911 0.6014 0.0
C328 C 0.9937 0.71911 0.59913 0.0
O329 O 0.97485 0.76247 0.64434 0.0
Mg330 Mg 0.50244 0.25206 0.11946 0.0
O331 O 0.52923 0.24824 0.13851 0.0
O332 O 0.55319 0.24332 0.11905 0.0
Mg333 Mg 0.54185 0.2428 0.08814 0.0
C334 C 0.54682 0.24533 0.13573 0.0
C335 C 0.46821 0.26248 0.14188 0.0
O336 O 0.46101 0.25633 0.12425 0.0
O337 O 0.51652 0.28263 0.11567 0.0
O338 O 0.53903 0.27536 0.0952 0.0
O339 O 0.49277 0.21995 0.11497 0.0
O340 O 0.51203 0.2348 0.09616 0.0
C341 C 0.5301 0.28779 0.10509 0.0
C342 C 0.50328 0.21879 0.10034 0.0
O343 O 0.48653 0.26339 0.14547 0.0
C344 C 0.22447 0.71936 0.8481 0.0
C345 C 0.21866 0.72362 0.83007 0.0
C346 C 0.2257 0.73344 0.86428 0.0
C347 C 0.20922 0.77712 0.88728 0.0
H348 H 0.26048 0.78594 0.91421 0.0
C349 C 0.22952 0.83082 0.95901 0.0
C350 C 0.24063 0.82337 0.9727 0.0
C351 C 0.22603 0.82085 0.94025 0.0
C352 C 0.24604 0.78362 0.90694 0.0
H353 H 0.20842 0.74578 0.81517 0.0
H354 H 0.2101 0.77037 0.84385 0.0
H355 H 0.25484 0.76388 0.88409 0.0
H356 H 0.25615 0.7992 0.97744 0.0
H357 H 0.24988 0.78199 0.94532 0.0
H358 H 0.20021 0.79625 0.91071 0.0
C359 C 0.21392 0.75609 0.84519 0.0
C360 C 0.24287 0.77105 0.88966 0.0
C361 C 0.21291 0.742 0.82884 0.0
C362 C 0.2478 0.80562 0.9673 0.0
C363 C 0.24429 0.79573 0.94876 0.0
C364 C 0.21235 0.78962 0.9048 0.0
C365 C 0.22085 0.75204 0.86292 0.0
C366 C 0.22434 0.76728 0.87993 0.0
C367 C 0.23362 0.80329 0.9349 0.0
C368 C 0.23067 0.79252 0.91509 0.0
H369 H 0.22846 0.7052 0.84969 0.0
H370 H 0.23077 0.72989 0.87788 0.0
H371 H 0.19481 0.77443 0.87995 0.0
H372 H 0.22373 0.84442 0.96272 0.0
H373 H 0.21773 0.82702 0.92987 0.0
C374 C 0.0233 0.49208 0.41252 0.0
C375 C 0.02751 0.50193 0.43118 0.0
C376 C 0.03677 0.49424 0.39866 0.0
C377 C 0.08951 0.5077 0.39413 0.0
H378 H 0.07333 0.50882 0.34121 0.0
C379 C 0.14498 0.52292 0.33836 0.0
C380 C 0.14177 0.51187 0.32002 0.0
C381 C 0.13079 0.5218 0.35163 0.0
C382 C 0.07806 0.50829 0.35588 0.0
H383 H 0.04861 0.52198 0.45022 0.0
H384 H 0.0722 0.52615 0.4259 0.0
H385 H 0.04893 0.50784 0.36491 0.0
H386 H 0.12101 0.49094 0.30127 0.0
H387 H 0.09615 0.48888 0.32459 0.0
H388 H 0.11862 0.50815 0.38513 0.0
C389 C 0.05864 0.51654 0.42194 0.0
C390 C 0.06408 0.50777 0.36949 0.0
C391 C 0.04512 0.51433 0.43582 0.0
C392 C 0.12395 0.49963 0.31527 0.0
C393 C 0.10967 0.49855 0.32859 0.0
C394 C 0.10347 0.50825 0.38055 0.0
C395 C 0.05475 0.50629 0.40324 0.0
C396 C 0.06963 0.50747 0.3888 0.0
C397 C 0.11295 0.50961 0.34695 0.0
C398 C 0.09794 0.50858 0.36126 0.0
H399 H 0.00981 0.48228 0.40877 0.0
H400 H 0.03337 0.48592 0.38453 0.0
H401 H 0.09429 0.50705 0.40876 0.0
H402 H 0.15849 0.53257 0.34252 0.0
H403 H 0.1337 0.53074 0.36552 0.0
C404 C 0.80677 0.7217 0.82249 0.0
C405 C 0.79582 0.73715 0.82122 0.0
C406 C 0.80633 0.71225 0.83867 0.0
C407 C 0.77389 0.70106 0.87552 0.0
H408 H 0.81932 0.69685 0.90811 0.0
C409 C 0.76753 0.69164 0.9535 0.0
C410 C 0.77965 0.68035 0.96225 0.0
C411 C 0.77002 0.69514 0.93486 0.0
C412 C 0.80651 0.69751 0.89895 0.0
H413 H 0.77701 0.75562 0.83662 0.0
H414 H 0.7758 0.73883 0.86428 0.0
H415 H 0.8236 0.70971 0.87796 0.0
H416 H 0.80375 0.66352 0.95797 0.0
H417 H 0.80802 0.66957 0.92513 0.0
H418 H 0.7567 0.68915 0.89632 0.0
C419 C 0.78449 0.73386 0.85271 0.0
C420 C 0.80899 0.70492 0.88174 0.0
C421 C 0.78514 0.74341 0.8368 0.0
C422 C 0.79413 0.67226 0.95166 0.0
C423 C 0.79666 0.67583 0.93289 0.0
C424 C 0.77141 0.6935 0.89252 0.0
C425 C 0.79476 0.71798 0.85368 0.0
C426 C 0.79265 0.70736 0.87023 0.0
C427 C 0.78467 0.68741 0.92432 0.0
C428 C 0.78764 0.6923 0.90481 0.0
H429 H 0.81512 0.71648 0.81076 0.0
H430 H 0.81443 0.70007 0.83916 0.0
H431 H 0.76106 0.70249 0.86672 0.0
H432 H 0.75623 0.69814 0.96115 0.0
H433 H 0.76074 0.70443 0.92892 0.0
C434 C 0.03756 0.99205 0.45071 0.0
C435 C 0.0312 0.99947 0.46846 0.0
C436 C 0.02639 0.99233 0.43382 0.0
C437 C 0.99219 0.02072 0.4139 0.0
H438 H 0.98647 0.97887 0.37101 0.0
C439 C 0.95839 0.02949 0.33952 0.0
C440 C 0.96801 0.02172 0.32374 0.0
C441 C 0.96292 0.02519 0.35781 0.0
C442 C 0.98804 0.99077 0.3828 0.0
H443 H 0.00793 0.01249 0.48256 0.0
H444 H 0.98838 0.01316 0.45292 0.0
H445 H 1.00001 0.9736 0.40194 0.0
H446 H 0.9899 0.00322 0.31495 0.0
H447 H 0.99799 0.99617 0.34656 0.0
H448 H 0.98107 0.03819 0.39463 0.0
C449 C 0.002 0.00706 0.45212 0.0
C450 C 0.99573 0.98769 0.40054 0.0
C451 C 0.01307 0.00651 0.46906 0.0
C452 C 0.98209 0.00943 0.32669 0.0
C453 C 0.98664 0.00522 0.34488 0.0
C454 C 0.98466 0.02387 0.3961 0.0
C455 C 0.00873 1.00029 0.4343 0.0
C456 C 0.99827 0.00275 0.41618 0.0
C457 C 0.97718 0.01305 0.36073 0.0
C458 C 0.98293 0.00907 0.38019 0.0
H459 H 0.0515 0.98657 0.44987 0.0
H460 H 0.03206 0.98716 0.42033 0.0
H461 H 0.99415 0.03267 0.42566 0.0
H462 H 0.94742 0.03895 0.33778 0.0
H463 H 0.95521 0.03134 0.36965 0.0
C464 C 0.25142 0.28269 0.70105 0.0
C465 C 0.24873 0.30198 0.69964 0.0
C466 C 0.25221 0.26922 0.68458 0.0
C467 C 0.26415 0.26865 0.63436 0.0
H468 H 0.24684 0.21325 0.62971 0.0
C469 C 0.27172 0.21718 0.56528 0.0
C470 C 0.27932 0.19983 0.56717 0.0
C471 C 0.26572 0.22859 0.58115 0.0
C472 C 0.25184 0.22868 0.63088 0.0
H473 H 0.24328 0.32192 0.67997 0.0
H474 H 0.24412 0.29835 0.65123 0.0
H475 H 0.23938 0.23506 0.65779 0.0
H476 H 0.28612 0.18063 0.58721 0.0
H477 H 0.27572 0.20072 0.61506 0.0
H478 H 0.27672 0.26234 0.60761 0.0
C479 C 0.24623 0.29372 0.66502 0.0
C480 C 0.24757 0.24118 0.64695 0.0
C481 C 0.24561 0.30721 0.68147 0.0
C482 C 0.28033 0.19391 0.58527 0.0
C483 C 0.27427 0.20536 0.6012 0.0
C484 C 0.26832 0.25621 0.61832 0.0
C485 C 0.2502 0.27474 0.66635 0.0
C486 C 0.25373 0.26134 0.64891 0.0
C487 C 0.26719 0.223 0.59935 0.0
C488 C 0.26227 0.23607 0.61638 0.0
H489 H 0.25407 0.2783 0.71487 0.0
H490 H 0.25543 0.2548 0.68618 0.0
H491 H 0.26958 0.28398 0.63555 0.0
H492 H 0.27079 0.22225 0.5516 0.0
H493 H 0.26009 0.24195 0.57918 0.0
C494 C 0.53286 0.51594 0.58458 0.0
C495 C 0.53024 0.52739 0.57013 0.0
C496 C 0.52464 0.51986 0.60209 0.0
C497 C 0.48419 0.54046 0.62424 0.0
H498 H 0.51563 0.54388 0.67169 0.0
C499 C 0.45309 0.56022 0.69769 0.0
C500 C 0.45962 0.55147 0.713 0.0
C501 C 0.46174 0.55784 0.68025 0.0
C502 C 0.50652 0.54266 0.6586 0.0
H503 H 0.51698 0.55217 0.56308 0.0
H504 H 0.50206 0.5585 0.5935 0.0
H505 H 0.53075 0.53881 0.64136 0.0
H506 H 0.48031 0.53317 0.72183 0.0
H507 H 0.49475 0.52824 0.69129 0.0
H508 H 0.45981 0.54357 0.64128 0.0
C509 C 0.5106 0.54654 0.59114 0.0
C510 C 0.51526 0.53989 0.64124 0.0
C511 C 0.51909 0.54284 0.5737 0.0
C512 C 0.47485 0.54007 0.71038 0.0
C513 C 0.48331 0.53744 0.69285 0.0
C514 C 0.47537 0.54292 0.6416 0.0
C515 C 0.51333 0.53509 0.60549 0.0
C516 C 0.50417 0.53873 0.6239 0.0
C517 C 0.47701 0.54643 0.67758 0.0
C518 C 0.48641 0.54401 0.65904 0.0
H519 H 0.5409 0.50362 0.58228 0.0
H520 H 0.52675 0.51064 0.61283 0.0
H521 H 0.47528 0.53938 0.61104 0.0
H522 H 0.44149 0.56926 0.69928 0.0
H523 H 0.45668 0.56528 0.66899 0.0
C524 C 0.81901 0.26213 0.67223 0.0
C525 C 0.83769 0.25732 0.66879 0.0
C526 C 0.81161 0.27625 0.6629 0.0
C527 C 0.81704 0.29761 0.61906 0.0
H528 H 0.78798 0.33721 0.64315 0.0
C529 C 0.78822 0.35017 0.57448 0.0
C530 C 0.76875 0.3531 0.57657 0.0
C531 C 0.79837 0.3423 0.58828 0.0
C532 C 0.79598 0.32617 0.63621 0.0
H533 H 0.86366 0.26346 0.65373 0.0
H534 H 0.85083 0.28807 0.63739 0.0
H535 H 0.80194 0.31531 0.6624 0.0
H536 H 0.74478 0.3513 0.59497 0.0
H537 H 0.76225 0.33679 0.61895 0.0
H538 H 0.81068 0.30772 0.59285 0.0
C539 C 0.84175 0.28094 0.64704 0.0
C540 C 0.80395 0.31365 0.64723 0.0
C541 C 0.8491 0.26692 0.65637 0.0
C542 C 0.75989 0.34927 0.59324 0.0
C543 C 0.76993 0.34099 0.60693 0.0
C544 C 0.80901 0.30995 0.60808 0.0
C545 C 0.82283 0.28558 0.65 0.0
C546 C 0.81456 0.29925 0.63873 0.0
C547 C 0.78903 0.33666 0.60419 0.0
C548 C 0.79838 0.32442 0.61647 0.0
H549 H 0.81009 0.25485 0.6819 0.0
H550 H 0.79694 0.27943 0.66534 0.0
H551 H 0.82478 0.28641 0.61202 0.0
H552 H 0.79535 0.35322 0.56177 0.0
H553 H 0.81326 0.33977 0.586 0.0
C554 C 0.55395 0.98738 0.57927 0.0
C555 C 0.53548 0.99354 0.58107 0.0
C556 C 0.56624 0.9872 0.59546 0.0
C557 C 0.57552 0.00833 0.64642 0.0
H558 H 0.60633 0.96596 0.64769 0.0
C559 C 0.62748 0.0031 0.71176 0.0
C560 C 0.64626 0.99907 0.70721 0.0
C561 C 0.61243 0.00112 0.69736 0.0
C562 C 0.59787 0.97793 0.64753 0.0
H563 H 0.51537 0.00414 0.60135 0.0
H564 H 0.53684 0.00383 0.62962 0.0
H565 H 0.58314 0.96532 0.62054 0.0
H566 H 0.66371 0.98921 0.68401 0.0
H567 H 0.63762 0.98579 0.65914 0.0
H568 H 0.59048 0.02102 0.67334 0.0
C569 C 0.54192 0.99939 0.61566 0.0
C570 C 0.58462 0.9776 0.63194 0.0
C571 C 0.52963 0.99958 0.59946 0.0
C572 C 0.64947 0.99253 0.68806 0.0
C573 C 0.63445 0.99041 0.67377 0.0
C574 C 0.58877 0.00864 0.66205 0.0
C575 C 0.56035 0.99314 0.61386 0.0
C576 C 0.57352 0.99295 0.63103 0.0
C577 C 0.61581 0.99485 0.67819 0.0
C578 C 0.60033 0.9936 0.66261 0.0
H579 H 0.55903 0.98292 0.56531 0.0
H580 H 0.58049 0.98265 0.59352 0.0
H581 H 0.56733 0.02047 0.6461 0.0
H582 H 0.62452 0.00817 0.72636 0.0
H583 H 0.59815 0.00451 0.70122 0.0
C584 C 0.89297 0.22015 0.74907 0.0
C585 C 0.87295 0.22015 0.75174 0.0
C586 C 0.90657 0.2226 0.76472 0.0
C587 C 0.91118 0.21612 0.81486 0.0
H588 H 0.95915 0.25185 0.81699 0.0
C589 C 0.96343 0.23549 0.8826 0.0
C590 C 0.98364 0.2384 0.88045 0.0
C591 C 0.95011 0.23292 0.86672 0.0
C592 C 0.94597 0.24158 0.8165 0.0
H593 H 0.85161 0.22303 0.77306 0.0
H594 H 0.87538 0.22691 0.8004 0.0
H595 H 0.93548 0.24835 0.78965 0.0
H596 H 0.00569 0.24044 0.85981 0.0
H597 H 0.98241 0.23544 0.83205 0.0
H598 H 0.92171 0.20905 0.84148 0.0
C599 C 0.88047 0.22493 0.78613 0.0
C600 C 0.93239 0.23966 0.80087 0.0
C601 C 0.86687 0.22266 0.77048 0.0
C602 C 0.99022 0.23834 0.86199 0.0
C603 C 0.97686 0.23561 0.84608 0.0
C604 C 0.92483 0.2179 0.8304 0.0
C605 C 0.90044 0.22489 0.78339 0.0
C606 C 0.91484 0.22697 0.79995 0.0
C607 C 0.95664 0.23301 0.84827 0.0
C608 C 0.94236 0.23072 0.83146 0.0
H609 H 0.89815 0.21786 0.73486 0.0
H610 H 0.92185 0.22226 0.7622 0.0
H611 H 0.89789 0.20601 0.81437 0.0
H612 H 0.95783 0.23559 0.8966 0.0
H613 H 0.93465 0.23128 0.869 0.0
C614 C 0.523 0.95479 0.50951 0.0
C615 C 0.50589 0.96038 0.51724 0.0
C616 C 0.52235 0.93744 0.49688 0.0
C617 C 0.49478 0.88917 0.48759 0.0
H618 H 0.52543 0.88199 0.44339 0.0
C619 C 0.49817 0.81254 0.44752 0.0
C620 C 0.51634 0.80834 0.44125 0.0
C621 C 0.49516 0.83169 0.45375 0.0
C622 C 0.51693 0.88369 0.45579 0.0
H623 H 0.47458 0.95276 0.51723 0.0
H624 H 0.47342 0.92213 0.49523 0.0
H625 H 0.52305 0.91484 0.45934 0.0
H626 H 0.54545 0.82102 0.43609 0.0
H627 H 0.54052 0.85444 0.44768 0.0
H628 H 0.48942 0.85824 0.48487 0.0
C629 C 0.48732 0.93124 0.49895 0.0
C630 C 0.51547 0.90253 0.46484 0.0
C631 C 0.48795 0.94878 0.5114 0.0
C632 C 0.53128 0.8238 0.44081 0.0
C633 C 0.52837 0.84299 0.44736 0.0
C634 C 0.49643 0.87038 0.47873 0.0
C635 C 0.5046 0.9252 0.4919 0.0
C636 C 0.50453 0.90545 0.48095 0.0
C637 C 0.51035 0.84716 0.45422 0.0
C638 C 0.50769 0.86733 0.46281 0.0
H639 H 0.537 0.96355 0.51375 0.0
H640 H 0.53591 0.93313 0.49183 0.0
H641 H 0.48655 0.89093 0.50019 0.0
H642 H 0.48624 0.80097 0.44774 0.0
H643 H 0.48092 0.8343 0.45839 0.0
C644 C 0.19306 0.32273 0.7876 0.0
C645 C 0.20256 0.30944 0.77607 0.0
C646 C 0.17529 0.31665 0.79486 0.0
C647 C 0.14683 0.27251 0.80702 0.0
H648 H 0.10732 0.30672 0.81643 0.0
C649 C 0.07782 0.25023 0.84547 0.0
C650 C 0.07367 0.26412 0.86059 0.0
C651 C 0.09138 0.25532 0.83244 0.0
C652 C 0.11824 0.29702 0.81393 0.0
H653 H 0.20113 0.2796 0.76246 0.0
H654 H 0.16969 0.26882 0.77484 0.0
H655 H 0.13476 0.31609 0.79782 0.0
H656 H 0.0799 0.29446 0.87335 0.0
H657 H 0.10354 0.30335 0.85057 0.0
H658 H 0.13041 0.25356 0.82332 0.0
C659 C 0.17602 0.28392 0.77854 0.0
C660 C 0.134 0.30239 0.80328 0.0
C661 C 0.1939 0.29006 0.77133 0.0
C662 C 0.08279 0.2834 0.8619 0.0
C663 C 0.09626 0.28852 0.84879 0.0
C664 C 0.13102 0.26709 0.81755 0.0
C665 C 0.16666 0.29709 0.79068 0.0
C666 C 0.14872 0.29039 0.80003 0.0
C667 C 0.10099 0.27444 0.83414 0.0
C668 C 0.11674 0.27945 0.82143 0.0
H669 H 0.19968 0.33774 0.79153 0.0
H670 H 0.16875 0.32714 0.80438 0.0
H671 H 0.158 0.26302 0.80507 0.0
H672 H 0.071 0.23526 0.84396 0.0
H673 H 0.09452 0.24421 0.82117 0.0
C674 C 0.51615 0.57223 0.49836 0.0
C675 C 0.52207 0.55632 0.48688 0.0
C676 C 0.51628 0.59006 0.4916 0.0
C677 C 0.53987 0.6178 0.45666 0.0
H678 H 0.49795 0.64939 0.46431 0.0
C679 C 0.53787 0.68559 0.42049 0.0
C680 C 0.533 0.70238 0.43154 0.0
C681 C 0.53506 0.66766 0.42702 0.0
C682 C 0.50986 0.64082 0.46223 0.0
H683 H 0.53249 0.54601 0.4595 0.0
H684 H 0.53265 0.57704 0.44754 0.0
H685 H 0.49595 0.61829 0.47643 0.0
H686 H 0.52082 0.71342 0.45789 0.0
H687 H 0.51614 0.68208 0.46945 0.0
H688 H 0.55391 0.64024 0.44268 0.0
C689 C 0.52809 0.57598 0.4618 0.0
C690 C 0.5087 0.62301 0.46916 0.0
C691 C 0.5279 0.55822 0.46855 0.0
C692 C 0.52468 0.70073 0.44902 0.0
C693 C 0.52193 0.68276 0.45562 0.0
C694 C 0.54104 0.63555 0.4498 0.0
C695 C 0.52247 0.59217 0.4733 0.0
C696 C 0.52365 0.61126 0.46633 0.0
C697 C 0.52743 0.66607 0.44483 0.0
C698 C 0.52601 0.64724 0.45236 0.0
H699 H 0.51168 0.57095 0.51261 0.0
H700 H 0.51203 0.60229 0.50085 0.0
H701 H 0.55182 0.60929 0.45459 0.0
H702 H 0.54414 0.68631 0.40687 0.0
H703 H 0.53905 0.65503 0.41815 0.0
C704 C 0.82283 0.76032 0.74454 0.0
C705 C 0.8261 0.76269 0.76454 0.0
C706 C 0.83836 0.76286 0.73289 0.0
C707 C 0.89094 0.76118 0.73075 0.0
H708 H 0.88483 0.78858 0.68755 0.0
C709 C 0.95044 0.76887 0.67604 0.0
C710 C 0.94337 0.76549 0.65675 0.0
C711 C 0.93754 0.77101 0.69064 0.0
C712 C 0.88676 0.78078 0.69947 0.0
H713 H 0.84856 0.76964 0.78786 0.0
H714 H 0.87579 0.77368 0.76736 0.0
H715 H 0.85967 0.7874 0.71037 0.0
H716 H 0.91722 0.76211 0.63773 0.0
H717 H 0.89492 0.76561 0.66294 0.0
H718 H 0.91776 0.75404 0.7195 0.0
C719 C 0.86108 0.76987 0.7608 0.0
C720 C 0.87233 0.78014 0.71257 0.0
C721 C 0.84546 0.76749 0.77253 0.0
C722 C 0.92322 0.76473 0.65241 0.0
C723 C 0.91039 0.76689 0.66692 0.0
C724 C 0.90536 0.76173 0.71755 0.0
C725 C 0.85766 0.76767 0.74085 0.0
C726 C 0.87403 0.76999 0.72814 0.0
C727 C 0.91732 0.76992 0.68624 0.0
C728 C 0.90323 0.77117 0.7015 0.0
H729 H 0.80824 0.75611 0.73777 0.0
H730 H 0.83526 0.76066 0.71755 0.0
H731 H 0.89262 0.75316 0.74255 0.0
H732 H 0.96589 0.76954 0.67988 0.0
H733 H 0.94339 0.77351 0.70536 0.0
C734 C 0.01774 0.95267 0.55592 0.0
C735 C 0.03389 0.95712 0.54539 0.0
C736 C 0.0149 0.93493 0.56297 0.0
C737 C 0.04249 0.89644 0.57608 0.0
H738 H 0.99146 0.86598 0.57491 0.0
C739 C 0.03268 0.81678 0.58861 0.0
C740 C 0.01679 0.80982 0.59854 0.0
C741 C 0.03462 0.8356 0.58405 0.0
C742 C 0.00577 0.87448 0.57564 0.0
H743 H 0.05958 0.94686 0.53358 0.0
H744 H 0.05457 0.91571 0.54561 0.0
H745 H 0.99467 0.89672 0.56217 0.0
H746 H 0.99077 0.81754 0.61196 0.0
H747 H 0.99424 0.85062 0.60402 0.0
H748 H 0.05364 0.8742 0.58937 0.0
C749 C 0.04417 0.92588 0.54867 0.0
C750 C 0.00761 0.89206 0.56827 0.0
C751 C 0.04696 0.94358 0.54161 0.0
C752 C 0.00319 0.82243 0.60432 0.0
C753 C 0.00509 0.84132 0.59964 0.0
C754 C 0.04065 0.87892 0.58344 0.0
C755 C 0.02828 0.92146 0.5597 0.0
C756 C 0.02605 0.90311 0.56815 0.0
C757 C 0.02072 0.84803 0.58925 0.0
C758 C 0.02231 0.86755 0.58306 0.0
H759 H 0.00762 0.9631 0.55913 0.0
H760 H 0.00261 0.93207 0.57152 0.0
H761 H 0.05684 0.90481 0.57664 0.0
H762 H 0.04349 0.80754 0.58396 0.0
H763 H 0.04671 0.84016 0.57585 0.0
C764 C 0.17121 0.72344 0.74028 0.0
C765 C 0.16509 0.7113 0.75348 0.0
C766 C 0.15748 0.73115 0.72953 0.0
C767 C 0.10589 0.73979 0.72465 0.0
H768 H 0.11361 0.7305 0.67048 0.0
C769 C 0.04532 0.74327 0.66589 0.0
C770 C 0.05114 0.7492 0.64868 0.0
C771 C 0.0593 0.74112 0.68014 0.0
C772 C 0.11134 0.73361 0.68555 0.0
H773 H 0.14023 0.69812 0.76659 0.0
H774 H 0.11604 0.71172 0.74785 0.0
H775 H 0.13795 0.72327 0.69319 0.0
H776 H 0.07614 0.75874 0.63345 0.0
H777 H 0.10037 0.75573 0.65842 0.0
H778 H 0.07919 0.75015 0.71693 0.0
C779 C 0.13141 0.71547 0.74588 0.0
C780 C 0.12534 0.7294 0.6986 0.0
C781 C 0.14519 0.70768 0.75658 0.0
C782 C 0.07117 0.75383 0.64641 0.0
C783 C 0.08509 0.75198 0.66072 0.0
C784 C 0.09191 0.74421 0.71155 0.0
C785 C 0.13739 0.72677 0.7318 0.0
C786 C 0.12278 0.73236 0.71828 0.0
C787 C 0.0794 0.74509 0.67757 0.0
C788 C 0.09443 0.74111 0.6918 0.0
H789 H 0.18653 0.72626 0.73763 0.0
H790 H 0.16254 0.74 0.71897 0.0
H791 H 0.10356 0.74227 0.73975 0.0
H792 H 0.02999 0.73955 0.66804 0.0
H793 H 0.05433 0.73564 0.69283 0.0
C794 C 0.00282 0.55914 0.50388 0.0
C795 C 0.98473 0.5526 0.49363 0.0
C796 C 0.00661 0.57799 0.51413 0.0
C797 C 0.99028 0.6266 0.51953 0.0
H798 H 0.00974 0.63062 0.57239 0.0
C799 C 0.00453 0.70023 0.56969 0.0
C800 C 0.99658 0.70044 0.58758 0.0
C801 C 0.00561 0.68262 0.55795 0.0
C802 C 0.00432 0.62973 0.55766 0.0
H803 H 0.95683 0.56094 0.48525 0.0
H804 H 0.96349 0.59388 0.50299 0.0
H805 H 0.00697 0.59939 0.55139 0.0
H806 H 0.98415 0.68231 0.60745 0.0
H807 H 0.98613 0.65154 0.58699 0.0
H808 H 0.98718 0.65681 0.52591 0.0
C809 C 0.97474 0.58446 0.50317 0.0
C810 C 0.00292 0.6119 0.54558 0.0
C811 C 0.97088 0.56557 0.49309 0.0
C812 C 0.99035 0.68264 0.59375 0.0
C813 C 0.99157 0.66502 0.58206 0.0
C814 C 0.99185 0.64446 0.53156 0.0
C815 C 0.99247 0.59074 0.51416 0.0
C816 C 0.99561 0.61007 0.52645 0.0
C817 C 0.9989 0.66482 0.56389 0.0
C818 C 0.99862 0.64616 0.55083 0.0
H819 H 0.01371 0.54941 0.50469 0.0
H820 H 0.02048 0.58248 0.52233 0.0
H821 H 0.98471 0.62567 0.50484 0.0
H822 H 0.00943 0.71368 0.56447 0.0
H823 H 0.01152 0.68294 0.54412 0.0
C824 C 0.77757 0.88786 0.22903 0.0
C825 C 0.78046 0.8683 0.22414 0.0
C826 C 0.7933 0.90277 0.23081 0.0
C827 C 0.84693 0.91128 0.23974 0.0
H828 H 0.84199 0.96121 0.22388 0.0
C829 C 0.913 0.97071 0.24273 0.0
C830 C 0.91028 0.98983 0.25017 0.0
C831 C 0.89706 0.95609 0.23841 0.0
C832 C 0.84353 0.9474 0.22851 0.0
H833 H 0.80217 0.84917 0.2169 0.0
H834 H 0.82951 0.8752 0.2195 0.0
H835 H 0.8144 0.93518 0.21792 0.0
H836 H 0.8885 0.00858 0.25851 0.0
H837 H 0.86067 0.98298 0.25103 0.0
H838 H 0.876 0.92347 0.25036 0.0
C839 C 0.81511 0.87899 0.22228 0.0
C840 C 0.82773 0.93248 0.22511 0.0
C841 C 0.79938 0.86407 0.22055 0.0
C842 C 0.89115 0.99403 0.25282 0.0
C843 C 0.87519 0.97938 0.24844 0.0
C844 C 0.86271 0.92615 0.24308 0.0
C845 C 0.81231 0.8985 0.22769 0.0
C846 C 0.82923 0.91425 0.23073 0.0
C847 C 0.87799 0.9602 0.24137 0.0
C848 C 0.86119 0.94439 0.23754 0.0
H849 H 0.76314 0.89165 0.23165 0.0
H850 H 0.79062 0.91761 0.23513 0.0
H851 H 0.84848 0.89758 0.24461 0.0
H852 H 0.92748 0.96692 0.24039 0.0
H853 H 0.89969 0.94154 0.23271 0.0
C854 C 0.76675 0.15692 0.31261 0.0
C855 C 0.76299 0.16774 0.29794 0.0
C856 C 0.78318 0.14712 0.31264 0.0
C857 C 0.8324 0.14914 0.29665 0.0
H858 H 0.82814 0.09383 0.29883 0.0
C859 C 0.89566 0.10639 0.27725 0.0
C860 C 0.89887 0.09053 0.28648 0.0
C861 C 0.87922 0.11572 0.28042 0.0
C862 C 0.82969 0.10935 0.29858 0.0
H863 H 0.77345 0.17696 0.27196 0.0
H864 H 0.80238 0.16019 0.27225 0.0
H865 H 0.799 0.11026 0.3012 0.0
H866 H 0.88736 0.07215 0.30652 0.0
H867 H 0.85879 0.0889 0.31262 0.0
H868 H 0.86298 0.14858 0.29444 0.0
C869 C 0.79253 0.15914 0.28359 0.0
C870 C 0.81296 0.11871 0.29985 0.0
C871 C 0.77595 0.16861 0.28335 0.0
C872 C 0.88527 0.08431 0.29917 0.0
C873 C 0.86884 0.09385 0.30255 0.0
C874 C 0.84913 0.1399 0.29571 0.0
C875 C 0.79632 0.14832 0.29824 0.0
C876 C 0.81413 0.1386 0.29847 0.0
C877 C 0.86559 0.10969 0.29318 0.0
C878 C 0.84797 0.11978 0.29618 0.0
H879 H 0.75693 0.15599 0.32398 0.0
H880 H 0.78582 0.13891 0.32411 0.0
H881 H 0.83373 0.16457 0.29589 0.0
H882 H 0.90569 0.11145 0.26721 0.0
H883 H 0.87705 0.12747 0.27251 0.0
C884 C 0.41777 0.99893 0.98697 0.0
C885 C 0.43543 0.991 0.98563 0.0
C886 C 0.40077 0.98775 0.99132 0.0
C887 C 0.37938 0.93645 0.98943 0.0
H888 H 0.34321 0.95701 0.02461 0.0
C889 C 0.32101 0.88613 0.01942 0.0
C890 C 0.30201 0.89121 0.02036 0.0
C891 C 0.33642 0.89928 0.01513 0.0
C892 C 0.35305 0.95115 0.01457 0.0
H893 H 0.4493 0.96548 0.9888 0.0
H894 H 0.41981 0.94608 0.99639 0.0
H895 H 0.37191 0.97832 0.01743 0.0
H896 H 0.2845 0.91444 0.01792 0.0
H897 H 0.31161 0.9375 0.01033 0.0
H898 H 0.36075 0.90931 0.98664 0.0
C899 C 0.41892 0.96075 0.99362 0.0
C900 C 0.36949 0.96334 0.01047 0.0
C901 C 0.43584 0.97188 0.98928 0.0
C902 C 0.29892 0.91001 0.01726 0.0
C903 C 0.31445 0.92326 0.01299 0.0
C904 C 0.36303 0.92433 0.99353 0.0
C905 C 0.40111 0.96842 0.99442 0.0
C906 C 0.38301 0.95602 0.99809 0.0
C907 C 0.33332 0.91791 0.01165 0.0
C908 C 0.34985 0.93141 0.00639 0.0
H909 H 0.41696 0.01359 0.98413 0.0
H910 H 0.38726 0.99405 0.99174 0.0
H911 H 0.38922 0.93047 0.97946 0.0
H912 H 0.32405 0.87187 0.02187 0.0
H913 H 0.35084 0.89483 0.01459 0.0
C914 C 0.25961 0.31511 0.25027 0.0
C915 C 0.25515 0.30494 0.26542 0.0
C916 C 0.25269 0.3329 0.24935 0.0
C917 C 0.23312 0.37321 0.27892 0.0
H918 H 0.21404 0.38421 0.22986 0.0
C919 C 0.19725 0.44237 0.27118 0.0
C920 C 0.20369 0.4524 0.25635 0.0
C921 C 0.20211 0.42374 0.27232 0.0
C922 C 0.21943 0.38141 0.24366 0.0
H923 H 0.24019 0.3049 0.29149 0.0
H924 H 0.22792 0.33591 0.28993 0.0
H925 H 0.22597 0.35327 0.23192 0.0
H926 H 0.21988 0.45036 0.2308 0.0
H927 H 0.22833 0.41816 0.23285 0.0
H928 H 0.22666 0.40143 0.29062 0.0
C929 C 0.23693 0.33045 0.27886 0.0
C930 C 0.22633 0.3637 0.24483 0.0
C931 C 0.24387 0.3127 0.27974 0.0
C932 C 0.21468 0.44315 0.24246 0.0
C933 C 0.21943 0.42457 0.24355 0.0
C934 C 0.22619 0.39093 0.27775 0.0
C935 C 0.24116 0.34073 0.26359 0.0
C936 C 0.23343 0.35944 0.26244 0.0
C937 C 0.21338 0.4147 0.25857 0.0
C938 C 0.21945 0.39532 0.26007 0.0
H939 H 0.26831 0.30926 0.23908 0.0
H940 H 0.25645 0.34056 0.23754 0.0
H941 H 0.23867 0.3705 0.29269 0.0
H942 H 0.18875 0.44904 0.2821 0.0
H943 H 0.19707 0.41642 0.28397 0.0
C944 C 0.11179 0.02363 0.51203 0.0
C945 C 0.09508 0.02862 0.50288 0.0
C946 C 0.12995 0.03507 0.51214 0.0
C947 C 0.15593 0.07351 0.48778 0.0
H948 H 0.19014 0.08465 0.53412 0.0
C949 C 0.21484 0.14013 0.50393 0.0
C950 C 0.23341 0.13768 0.51142 0.0
C951 C 0.19946 0.12489 0.5017 0.0
C952 C 0.18087 0.08143 0.52099 0.0
H953 H 0.08419 0.04976 0.48709 0.0
H954 H 0.1156 0.06983 0.48754 0.0
H955 H 0.16024 0.06168 0.53266 0.0
H956 H 0.25038 0.11719 0.52236 0.0
H957 H 0.2232 0.09052 0.51877 0.0
H958 H 0.1762 0.09387 0.47644 0.0
C959 C 0.11493 0.0568 0.49416 0.0
C960 C 0.16374 0.06825 0.52012 0.0
C961 C 0.09687 0.04532 0.49395 0.0
C962 C 0.23626 0.11952 0.51651 0.0
C963 C 0.22072 0.1043 0.51455 0.0
C964 C 0.17292 0.08679 0.48873 0.0
C965 C 0.13174 0.05182 0.50321 0.0
C966 C 0.15085 0.06442 0.50363 0.0
C967 C 0.20217 0.10687 0.50711 0.0
C968 C 0.18537 0.09117 0.50546 0.0
H969 H 0.11087 0.01075 0.51891 0.0
H970 H 0.1426 0.03067 0.51907 0.0
H971 H 0.14664 0.07055 0.47468 0.0
H972 H 0.21214 0.15388 0.49978 0.0
H973 H 0.18528 0.12735 0.49613 0.0
C974 C 0.80541 0.17158 0.70413 0.0
C975 C 0.80928 0.18761 0.71877 0.0
C976 C 0.79057 0.15642 0.70549 0.0
C977 C 0.74642 0.1421 0.72985 0.0
H978 H 0.76471 0.09173 0.72567 0.0
C979 C 0.7048 0.07708 0.75927 0.0
C980 C 0.70619 0.05811 0.75035 0.0
C981 C 0.71552 0.09314 0.75325 0.0
C982 C 0.75911 0.10554 0.72649 0.0
H983 H 0.80002 0.20097 0.74571 0.0
H984 H 0.77382 0.17459 0.74794 0.0
H985 H 0.78601 0.11957 0.71824 0.0
H986 H 0.71907 0.04124 0.72741 0.0
H987 H 0.73709 0.06908 0.71643 0.0
H988 H 0.71945 0.12811 0.738 0.0
C989 C 0.78231 0.17371 0.73547 0.0
C990 C 0.7714 0.12153 0.72228 0.0
C991 C 0.79733 0.18874 0.73425 0.0
C992 C 0.7179 0.05558 0.7348 0.0
C993 C 0.72835 0.07163 0.72856 0.0
C994 C 0.73397 0.12602 0.7338 0.0
C995 C 0.77917 0.15715 0.72138 0.0
C996 C 0.76529 0.14001 0.72416 0.0
C997 C 0.72765 0.09062 0.73796 0.0
C998 C 0.74025 0.10756 0.73245 0.0
H999 H 0.81451 0.17028 0.69213 0.0
H1000 H 0.78836 0.14386 0.69437 0.0
H1001 H 0.74132 0.15619 0.73131 0.0
H1002 H 0.69595 0.0795 0.77135 0.0
H1003 H 0.71477 0.10745 0.76105 0.0
C1004 C 0.43472 0.02114 0.53634 0.0
C1005 C 0.45181 0.02839 0.52848 0.0
C1006 C 0.41711 0.02806 0.53231 0.0
C1007 C 0.39234 0.05754 0.50128 0.0
H1008 H 0.36597 0.0726 0.54701 0.0
C1009 C 0.33959 0.11559 0.50665 0.0
C1010 C 0.32383 0.11363 0.51835 0.0
C1011 C 0.35318 0.10236 0.5056 0.0
C1012 C 0.37286 0.06818 0.53399 0.0
H1013 H 0.46414 0.04784 0.50982 0.0
H1014 H 0.43338 0.06 0.50268 0.0
H1015 H 0.39308 0.05393 0.54874 0.0
H1016 H 0.30944 0.09558 0.53731 0.0
H1017 H 0.33291 0.07233 0.53523 0.0
H1018 H 0.37228 0.07222 0.48664 0.0
C1019 C 0.43337 0.0488 0.51172 0.0
C1020 C 0.38845 0.05744 0.53499 0.0
C1021 C 0.45098 0.04187 0.51578 0.0
C1022 C 0.32149 0.09763 0.52829 0.0
C1023 C 0.33504 0.08436 0.52719 0.0
C1024 C 0.37666 0.06827 0.50027 0.0
C1025 C 0.41636 0.04245 0.52044 0.0
C1026 C 0.39857 0.05219 0.51872 0.0
C1027 C 0.3513 0.08678 0.51616 0.0
C1028 C 0.36689 0.07396 0.51669 0.0
H1029 H 0.43518 0.01086 0.54634 0.0
H1030 H 0.40423 0.02267 0.53904 0.0
H1031 H 0.39969 0.05356 0.48845 0.0
H1032 H 0.34184 0.12774 0.49879 0.0
H1033 H 0.36559 0.10483 0.49712 0.0
C1034 C 0.58662 0.48745 0.54404 0.0
C1035 C 0.58235 0.50036 0.53146 0.0
C1036 C 0.60377 0.47888 0.54293 0.0
C1037 C 0.64096 0.4656 0.50995 0.0
H1038 H 0.67006 0.45965 0.55638 0.0
C1039 C 0.69691 0.4112 0.51277 0.0
C1040 C 0.71348 0.4166 0.52563 0.0
C1041 C 0.68248 0.42343 0.51217 0.0
C1042 C 0.66227 0.4614 0.54325 0.0
H1043 H 0.593 0.5146 0.50805 0.0
H1044 H 0.62288 0.49944 0.50602 0.0
H1045 H 0.64194 0.47736 0.55839 0.0
H1046 H 0.7284 0.43959 0.54717 0.0
H1047 H 0.7033 0.46094 0.546 0.0
H1048 H 0.66128 0.44953 0.49483 0.0
C1049 C 0.61283 0.49586 0.51662 0.0
C1050 C 0.646 0.47135 0.54443 0.0
C1051 C 0.5957 0.50452 0.51778 0.0
C1052 C 0.71575 0.4349 0.53719 0.0
C1053 C 0.70132 0.4471 0.53662 0.0
C1054 C 0.6572 0.45556 0.50878 0.0
C1055 C 0.61704 0.48293 0.52918 0.0
C1056 C 0.63502 0.47337 0.52781 0.0
C1057 C 0.6843 0.44131 0.52443 0.0
C1058 C 0.66792 0.45318 0.52543 0.0
H1059 H 0.57651 0.48363 0.55451 0.0
H1060 H 0.60642 0.46872 0.5526 0.0
H1061 H 0.63273 0.4668 0.49688 0.0
H1062 H 0.69471 0.39721 0.50364 0.0
H1063 H 0.6695 0.41845 0.50271 0.0
C1064 C 0.72693 0.21073 0.34973 0.0
C1065 C 0.72411 0.21609 0.33156 0.0
C1066 C 0.72695 0.22429 0.36616 0.0
C1067 C 0.71268 0.27068 0.38719 0.0
H1068 H 0.75873 0.27241 0.42117 0.0
C1069 C 0.7326 0.32567 0.45848 0.0
C1070 C 0.74029 0.31746 0.47369 0.0
C1071 C 0.72904 0.31466 0.44015 0.0
C1072 C 0.74569 0.27203 0.41194 0.0
H1073 H 0.71787 0.23966 0.31647 0.0
H1074 H 0.71763 0.26342 0.34546 0.0
H1075 H 0.75466 0.25034 0.39111 0.0
H1076 H 0.74885 0.29093 0.48193 0.0
H1077 H 0.74235 0.2719 0.4505 0.0
H1078 H 0.70355 0.29217 0.40848 0.0
C1079 C 0.71994 0.24866 0.34682 0.0
C1080 C 0.7434 0.25941 0.39471 0.0
C1081 C 0.72005 0.23506 0.33026 0.0
C1082 C 0.74336 0.29786 0.47046 0.0
C1083 C 0.73969 0.28694 0.45238 0.0
C1084 C 0.71491 0.28332 0.40466 0.0
C1085 C 0.72399 0.24352 0.36487 0.0
C1086 C 0.72669 0.25825 0.38235 0.0
C1087 C 0.73306 0.2953 0.43687 0.0
C1088 C 0.73124 0.28373 0.41742 0.0
H1089 H 0.7296 0.19612 0.35125 0.0
H1090 H 0.72973 0.21984 0.37994 0.0
H1091 H 0.69971 0.2701 0.37783 0.0
H1092 H 0.73002 0.34073 0.46058 0.0
H1093 H 0.72385 0.32147 0.42847 0.0
C1094 C 0.51705 0.99939 0.90467 0.0
C1095 C 0.52157 0.00638 0.9241 0.0
C1096 C 0.53122 0.00159 0.89148 0.0
C1097 C 0.5848 0.00853 0.88887 0.0
H1098 H 0.57208 0.01744 0.83727 0.0
C1099 C 0.64382 0.02136 0.83568 0.0
C1100 C 0.63981 0.01225 0.81663 0.0
C1101 C 0.62926 0.02107 0.84864 0.0
C1102 C 0.57581 0.01474 0.85157 0.0
H1103 H 0.54401 0.02147 0.94522 0.0
H1104 H 0.56887 0.02581 0.9221 0.0
H1105 H 0.54698 0.01756 0.8603 0.0
H1106 H 0.61729 0.99561 0.79631 0.0
H1107 H 0.59179 0.99501 0.81906 0.0
H1108 H 0.61361 0.00573 0.88015 0.0
C1109 C 0.55448 0.01837 0.917 0.0
C1110 C 0.56143 0.01484 0.8648 0.0
C1111 C 0.54026 0.0161 0.93021 0.0
C1112 C 0.62086 0.00276 0.81087 0.0
C1113 C 0.60623 0.00253 0.82387 0.0
C1114 C 0.59917 0.0085 0.87568 0.0
C1115 C 0.55023 0.01083 0.89749 0.0
C1116 C 0.56572 0.01167 0.88362 0.0
C1117 C 0.61028 0.01169 0.84292 0.0
C1118 C 0.59485 0.01156 0.85685 0.0
H1119 H 0.50272 0.99162 0.89976 0.0
H1120 H 0.52746 0.99536 0.87668 0.0
H1121 H 0.58855 0.00563 0.90309 0.0
H1122 H 0.65822 0.02887 0.84062 0.0
H1123 H 0.63283 0.02848 0.86311 0.0
C1124 C 0.31344 0.22652 0.31975 0.0
C1125 C 0.3013 0.24073 0.31704 0.0
C1126 C 0.31263 0.21751 0.33617 0.0
C1127 C 0.27934 0.20576 0.37268 0.0
H1128 H 0.3254 0.20469 0.40572 0.0
C1129 C 0.27413 0.19874 0.45135 0.0
C1130 C 0.28678 0.18816 0.46041 0.0
C1131 C 0.27632 0.2018 0.43255 0.0
C1132 C 0.31244 0.20449 0.39646 0.0
H1133 H 0.27954 0.2572 0.33004 0.0
H1134 H 0.2778 0.24115 0.35817 0.0
H1135 H 0.32892 0.21655 0.37504 0.0
H1136 H 0.31154 0.17217 0.45653 0.0
H1137 H 0.31532 0.1775 0.42341 0.0
H1138 H 0.26277 0.194 0.39398 0.0
C1139 C 0.28773 0.2368 0.3475 0.0
C1140 C 0.31447 0.21133 0.37894 0.0
C1141 C 0.2887 0.24595 0.33131 0.0
C1142 C 0.30153 0.18039 0.44999 0.0
C1143 C 0.30377 0.18352 0.43106 0.0
C1144 C 0.27732 0.1988 0.39003 0.0
C1145 C 0.29952 0.22237 0.35003 0.0
C1146 C 0.29786 0.2126 0.3672 0.0
C1147 C 0.2912 0.19434 0.42217 0.0
C1148 C 0.29378 0.19871 0.40245 0.0
H1149 H 0.32322 0.22202 0.30901 0.0
H1150 H 0.32189 0.20642 0.3378 0.0
H1151 H 0.26632 0.20623 0.36371 0.0
H1152 H 0.26259 0.20497 0.45885 0.0
H1153 H 0.2666 0.21051 0.42633 0.0
C1154 C 0.52248 0.49046 0.9408 0.0
C1155 C 0.52869 0.50481 0.95661 0.0
C1156 C 0.51189 0.4949 0.92512 0.0
C1157 C 0.50132 0.53644 0.90125 0.0
H1158 H 0.46241 0.49721 0.87203 0.0
C1159 C 0.45934 0.54857 0.83179 0.0
C1160 C 0.46093 0.53407 0.81625 0.0
C1161 C 0.46484 0.54591 0.85043 0.0
C1162 C 0.47318 0.50833 0.8801 0.0
H1163 H 0.52832 0.53499 0.96857 0.0
H1164 H 0.50949 0.54273 0.94129 0.0
H1165 H 0.47724 0.491 0.90205 0.0
H1166 H 0.46864 0.50511 0.80812 0.0
H1167 H 0.47782 0.50036 0.84049 0.0
H1168 H 0.49723 0.55368 0.8791 0.0
C1169 C 0.51313 0.52811 0.94084 0.0
C1170 C 0.48179 0.50475 0.89724 0.0
C1171 C 0.52389 0.52368 0.95649 0.0
C1172 C 0.46736 0.51661 0.81977 0.0
C1173 C 0.4725 0.51382 0.83833 0.0
C1174 C 0.49253 0.5401 0.88418 0.0
C1175 C 0.50707 0.51379 0.9249 0.0
C1176 C 0.49637 0.51853 0.90779 0.0
C1177 C 0.47159 0.52853 0.85383 0.0
C1178 C 0.47875 0.52588 0.87321 0.0
H1179 H 0.52623 0.47586 0.94034 0.0
H1180 H 0.50789 0.48359 0.91296 0.0
H1181 H 0.5126 0.54733 0.90886 0.0
H1182 H 0.45448 0.5622 0.82949 0.0
H1183 H 0.46397 0.55745 0.86216 0.0
C1184 C 0.74503 0.7845 0.19859 0.0
C1185 C 0.7452 0.8034 0.19413 0.0
C1186 C 0.74579 0.76878 0.18411 0.0
C1187 C 0.73773 0.75314 0.13199 0.0
H1188 H 0.77895 0.72144 0.13821 0.0
C1189 C 0.76842 0.71049 0.06768 0.0
C1190 C 0.77467 0.69245 0.06921 0.0
C1191 C 0.76239 0.72182 0.08358 0.0
C1192 C 0.76711 0.72986 0.13633 0.0
H1193 H 0.74539 0.82062 0.17112 0.0
H1194 H 0.74639 0.79323 0.14585 0.0
H1195 H 0.77198 0.74501 0.16501 0.0
H1196 H 0.77928 0.67203 0.08866 0.0
H1197 H 0.76844 0.69174 0.1165 0.0
H1198 H 0.73292 0.73824 0.10331 0.0
C1199 C 0.74576 0.7905 0.16047 0.0
C1200 C 0.76313 0.74339 0.15171 0.0
C1201 C 0.7453 0.80619 0.17492 0.0
C1202 C 0.77457 0.68589 0.08703 0.0
C1203 C 0.76844 0.69723 0.10299 0.0
C1204 C 0.74157 0.73953 0.11668 0.0
C1205 C 0.74637 0.77167 0.16491 0.0
C1206 C 0.74874 0.75551 0.14953 0.0
C1207 C 0.76234 0.71539 0.10147 0.0
C1208 C 0.75668 0.72809 0.11848 0.0
H1209 H 0.74507 0.78202 0.21332 0.0
H1210 H 0.74615 0.75441 0.18792 0.0
H1211 H 0.72634 0.76208 0.12999 0.0
H1212 H 0.76857 0.71614 0.05426 0.0
H1213 H 0.75824 0.73589 0.08191 0.0
C1214 C 0.0416 0.04248 0.09203 0.0
C1215 C 0.03032 0.03162 0.07616 0.0
C1216 C 0.03376 0.04534 0.10988 0.0
C1217 C 0.98655 0.04131 0.13336 0.0
H1218 H 0.02046 0.04166 0.17858 0.0
C1219 C 0.95999 0.05822 0.20912 0.0
C1220 C 0.96688 0.04835 0.22342 0.0
C1221 C 0.96778 0.05657 0.19123 0.0
C1222 C 0.0107 0.04137 0.16612 0.0
H1223 H 0.0021 0.01511 0.0665 0.0
H1224 H 0.98856 0.01956 0.09765 0.0
H1225 H 0.03367 0.03784 0.14736 0.0
H1226 H 0.98744 0.02897 0.23006 0.0
H1227 H 1.00045 0.0254 0.19869 0.0
H1228 H 0.96338 0.0439 0.15202 0.0
C1229 C 0.00326 0.02641 0.09632 0.0
C1230 C 0.01838 0.03951 0.14816 0.0
C1231 C 0.01102 0.02379 0.07844 0.0
C1232 C 0.98171 0.0367 0.21938 0.0
C1233 C 0.98933 0.03484 0.20139 0.0
C1234 C 0.97883 0.04293 0.15129 0.0
C1235 C 0.01455 0.03715 0.11233 0.0
C1236 C 0.00642 0.03946 0.13152 0.0
C1237 C 0.98253 0.04481 0.18707 0.0
C1238 C 0.99078 0.04301 0.16793 0.0
H1239 H 0.05647 0.04882 0.09061 0.0
H1240 H 0.04279 0.05403 0.12173 0.0
H1241 H 0.97691 0.04161 0.12095 0.0
H1242 H 0.94871 0.06748 0.2118 0.0
H1243 H 0.96241 0.06479 0.18077 0.0
C1244 C 0.31239 0.75933 0.17197 0.0
C1245 C 0.33141 0.75549 0.16859 0.0
C1246 C 0.30399 0.77259 0.16222 0.0
C1247 C 0.30831 0.79456 0.11832 0.0
H1248 H 0.27841 0.83303 0.14314 0.0
C1249 C 0.28188 0.85034 0.07635 0.0
C1250 C 0.26222 0.85293 0.07757 0.0
C1251 C 0.29118 0.84141 0.08987 0.0
C1252 C 0.28664 0.82229 0.13601 0.0
H1253 H 0.35686 0.76239 0.15305 0.0
H1254 H 0.34233 0.78553 0.13603 0.0
H1255 H 0.2924 0.81062 0.16177 0.0
H1256 H 0.23701 0.84938 0.09423 0.0
H1257 H 0.25312 0.8332 0.11782 0.0
H1258 H 0.30241 0.80573 0.09256 0.0
C1259 C 0.33371 0.77823 0.14589 0.0
C1260 C 0.2946 0.80945 0.14666 0.0
C1261 C 0.34204 0.76505 0.15562 0.0
C1262 C 0.25229 0.84766 0.0932 0.0
C1263 C 0.26152 0.8384 0.10665 0.0
C1264 C 0.30036 0.80727 0.10773 0.0
C1265 C 0.31455 0.78208 0.14897 0.0
C1266 C 0.30562 0.79553 0.1379 0.0
C1267 C 0.28084 0.83445 0.10464 0.0
C1268 C 0.28955 0.8214 0.11642 0.0
H1269 H 0.30408 0.75211 0.1821 0.0
H1270 H 0.28916 0.77515 0.16478 0.0
H1271 H 0.31636 0.78373 0.11105 0.0
H1272 H 0.28982 0.85445 0.06444 0.0
H1273 H 0.30624 0.83912 0.08822 0.0
C1274 C 0.02754 0.49435 0.1054 0.0
C1275 C 0.03338 0.48927 0.08682 0.0
C1276 C 0.04008 0.49395 0.12134 0.0
C1277 C 0.08454 0.47413 0.13657 0.0
H1278 H 0.08895 0.51719 0.17827 0.0
C1279 C 0.1503 0.49248 0.19175 0.0
C1280 C 0.14712 0.49864 0.21098 0.0
C1281 C 0.13496 0.48948 0.17768 0.0
C1282 C 0.08766 0.5049 0.1669 0.0
H1283 H 0.057 0.47975 0.07045 0.0
H1284 H 0.07895 0.47914 0.09826 0.0
H1285 H 0.06506 0.51562 0.15145 0.0
H1286 H 0.12514 0.50608 0.23054 0.0
H1287 H 0.09824 0.5009 0.20581 0.0
H1288 H 0.10749 0.46369 0.15183 0.0
C1289 C 0.06453 0.48314 0.10052 0.0
C1290 C 0.07397 0.50399 0.15151 0.0
C1291 C 0.05197 0.48352 0.08457 0.0
C1292 C 0.12809 0.50135 0.21587 0.0
C1293 C 0.11271 0.49849 0.2017 0.0
C1294 C 0.09825 0.47507 0.15192 0.0
C1295 C 0.05878 0.48846 0.1191 0.0
C1296 C 0.07245 0.48875 0.13603 0.0
C1297 C 0.11604 0.49264 0.18244 0.0
C1298 C 0.10017 0.49062 0.16711 0.0
H1299 H 0.01317 0.49853 0.10762 0.0
H1300 H 0.03507 0.49783 0.13544 0.0
H1301 H 0.08348 0.46199 0.12508 0.0
H1302 H 0.16474 0.49016 0.18745 0.0
H1303 H 0.13807 0.48521 0.16296 0.0
C1304 C 0.38995 0.71796 0.24979 0.0
C1305 C 0.37011 0.71885 0.25283 0.0
C1306 C 0.40375 0.71997 0.26521 0.0
C1307 C 0.40898 0.71441 0.31566 0.0
H1308 H 0.45752 0.74901 0.31641 0.0
C1309 C 0.46213 0.7344 0.38269 0.0
C1310 C 0.4823 0.73669 0.38027 0.0
C1311 C 0.44864 0.73179 0.36695 0.0
C1312 C 0.44418 0.73905 0.3163 0.0
H1313 H 0.34932 0.72269 0.27456 0.0
H1314 H 0.37343 0.7258 0.3015 0.0
H1315 H 0.43357 0.74529 0.28929 0.0
H1316 H 0.50409 0.73766 0.3593 0.0
H1317 H 0.48052 0.7326 0.33178 0.0
H1318 H 0.4196 0.7079 0.34248 0.0
C1319 C 0.37821 0.72347 0.28712 0.0
C1320 C 0.43045 0.73699 0.30079 0.0
C1321 C 0.36441 0.72164 0.27169 0.0
C1322 C 0.48866 0.73606 0.36169 0.0
C1323 C 0.47514 0.73328 0.34591 0.0
C1324 C 0.42278 0.71632 0.33108 0.0
C1325 C 0.39802 0.7227 0.28402 0.0
C1326 C 0.41267 0.72473 0.30037 0.0
C1327 C 0.45495 0.73122 0.34836 0.0
C1328 C 0.44051 0.72875 0.33166 0.0
H1329 H 0.39481 0.71544 0.23546 0.0
H1330 H 0.41889 0.71905 0.26242 0.0
H1331 H 0.39551 0.70464 0.31556 0.0
H1332 H 0.4567 0.73497 0.3968 0.0
H1333 H 0.43323 0.73061 0.36942 0.0
C1334 C 0.98563 0.44911 0.01549 0.0
C1335 C 0.00366 0.46038 0.02171 0.0
C1336 C 0.98483 0.43212 0.00222 0.0
C1337 C 0.01275 0.40461 0.96687 0.0
H1338 H 0.9868 0.3593 0.98533 0.0
C1339 C 0.02965 0.32667 0.94121 0.0
C1340 C 0.01495 0.31092 0.94134 0.0
C1341 C 0.02633 0.34569 0.94795 0.0
C1342 C 0.99377 0.37174 0.97961 0.0
H1343 H 0.03475 0.46359 0.01809 0.0
H1344 H 0.03335 0.43413 0.99476 0.0
H1345 H 0.98379 0.39156 0.00168 0.0
H1346 H 0.98483 0.30285 0.94736 0.0
H1347 H 0.97879 0.3359 0.95833 0.0
H1348 H 0.02287 0.38479 0.94485 0.0
C1349 C 0.01985 0.43829 1.00012 0.0
C1350 C 0.99204 0.39029 0.98907 0.0
C1351 C 0.02067 0.45508 0.01354 0.0
C1352 C 0.99658 0.31466 0.94739 0.0
C1353 C 0.99315 0.33364 0.95379 0.0
C1354 C 0.0143 0.38603 0.95724 0.0
C1355 C 0.00201 0.4263 0.99475 0.0
C1356 C 0.00181 0.40691 0.98304 0.0
C1357 C 0.00813 0.34939 0.95468 0.0
C1358 C 0.00513 0.3693 0.96371 0.0
H1359 H 0.97233 0.45287 0.02166 0.0
H1360 H 0.97086 0.4232 0.99823 0.0
H1361 H 0.02034 0.4172 0.96183 0.0
H1362 H 0.04398 0.32424 0.93667 0.0
H1363 H 0.03832 0.35735 0.94858 0.0
C1364 C 0.67328 0.82243 0.26539 0.0
C1365 C 0.69109 0.8151 0.26327 0.0
C1366 C 0.65902 0.81362 0.27586 0.0
C1367 C 0.65588 0.78494 0.31526 0.0
H1368 H 0.59996 0.78236 0.30494 0.0
C1369 C 0.60166 0.75288 0.36489 0.0
C1370 C 0.58581 0.76295 0.36963 0.0
C1371 C 0.61333 0.75763 0.35031 0.0
C1372 C 0.61554 0.78314 0.30807 0.0
H1373 H 0.70797 0.79257 0.26947 0.0
H1374 H 0.68288 0.77676 0.28748 0.0
H1375 H 0.6222 0.79241 0.28133 0.0
H1376 H 0.56955 0.78568 0.36242 0.0
H1377 H 0.59022 0.79422 0.33701 0.0
H1378 H 0.64937 0.77604 0.34207 0.0
C1379 C 0.67993 0.78944 0.28132 0.0
C1380 C 0.62828 0.78883 0.29453 0.0
C1381 C 0.6942 0.79831 0.27087 0.0
C1382 C 0.58168 0.77768 0.35915 0.0
C1383 C 0.59344 0.78248 0.34451 0.0
C1384 C 0.64318 0.77925 0.32875 0.0
C1385 C 0.66241 0.79736 0.28445 0.0
C1386 C 0.64863 0.7899 0.29802 0.0
C1387 C 0.60955 0.77264 0.34008 0.0
C1388 C 0.62286 0.77836 0.32538 0.0
H1389 H 0.67078 0.83557 0.2598 0.0
H1390 H 0.64583 0.82023 0.27812 0.0
H1391 H 0.67145 0.78603 0.31866 0.0
H1392 H 0.60517 0.74131 0.37251 0.0
H1393 H 0.62538 0.7495 0.34705 0.0
C1394 C 0.03244 0.06449 0.97494 0.0
C1395 C 0.02435 0.06226 0.99232 0.0
C1396 C 0.03245 0.08198 0.96767 0.0
C1397 C 0.02926 0.13412 0.98227 0.0
H1398 H 0.0193 0.13359 0.9279 0.0
C1399 C 0.02548 0.20482 0.95012 0.0
C1400 C 0.03536 0.20643 0.93346 0.0
C1401 C 0.02251 0.18705 0.95704 0.0
C1402 C 0.02225 0.13399 0.94309 0.0
H1403 H 0.00988 0.07608 0.01589 0.0
H1404 H 0.0097 0.1068 0.00316 0.0
H1405 H 0.0172 0.10294 0.94063 0.0
H1406 H 0.04957 0.19056 0.91079 0.0
H1407 H 0.04453 0.15963 0.92289 0.0
H1408 H 0.0345 0.16515 0.98472 0.0
C1409 C 0.01622 0.09517 0.99517 0.0
C1410 C 0.02106 0.11642 0.9504 0.0
C1411 C 0.01622 0.07763 0.00242 0.0
C1412 C 0.04188 0.1898 0.92365 0.0
C1413 C 0.03888 0.17204 0.93054 0.0
C1414 C 0.03044 0.15169 0.97497 0.0
C1415 C 0.02436 0.09755 0.9777 0.0
C1416 C 0.02473 0.11627 0.97005 0.0
C1417 C 0.02934 0.17049 0.94742 0.0
C1418 C 0.02712 0.15183 0.95527 0.0
H1419 H 0.03884 0.05273 0.96701 0.0
H1420 H 0.0391 0.08341 0.95434 0.0
H1421 H 0.03244 0.13453 0.99744 0.0
H1422 H 0.02032 0.21736 0.95807 0.0
H1423 H 0.0149 0.18629 0.96995 0.0
C1424 C 0.34138 0.28473 0.25634 0.0
C1425 C 0.33664 0.26736 0.26383 0.0
C1426 C 0.35753 0.28719 0.24536 0.0
C1427 C 0.38306 0.28274 0.21185 0.0
H1428 H 0.42991 0.2594 0.22089 0.0
C1429 C 0.43467 0.26519 0.15264 0.0
C1430 C 0.45487 0.26684 0.15722 0.0
C1431 C 0.4217 0.26797 0.16694 0.0
C1432 C 0.41708 0.26627 0.21828 0.0
H1433 H 0.34532 0.23903 0.26582 0.0
H1434 H 0.37325 0.24316 0.24653 0.0
H1435 H 0.40523 0.25965 0.24428 0.0
H1436 H 0.47732 0.27321 0.1805 0.0
H1437 H 0.45461 0.27831 0.20559 0.0
H1438 H 0.39494 0.28949 0.18595 0.0
C1439 C 0.36479 0.25511 0.24944 0.0
C1440 C 0.40278 0.26618 0.23159 0.0
C1441 C 0.34872 0.25271 0.2605 0.0
C1442 C 0.46184 0.27179 0.17649 0.0
C1443 C 0.44881 0.2746 0.19087 0.0
C1444 C 0.39738 0.2829 0.19861 0.0
C1445 C 0.36927 0.27228 0.2415 0.0
C1446 C 0.3854 0.27407 0.22836 0.0
C1447 C 0.42854 0.27254 0.18627 0.0
C1448 C 0.41438 0.27429 0.20142 0.0
H1449 H 0.33251 0.2964 0.25887 0.0
H1450 H 0.36073 0.30074 0.23978 0.0
H1451 H 0.36984 0.28881 0.20876 0.0
H1452 H 0.42874 0.26136 0.13796 0.0
H1453 H 0.4062 0.26593 0.16284 0.0
C1454 C 0.56442 0.43023 0.03272 0.0
C1455 C 0.55115 0.44379 0.0342 0.0
C1456 C 0.5648 0.4171 0.0458 0.0
C1457 C 0.53093 0.3921 0.07513 0.0
H1458 H 0.57676 0.37067 0.09155 0.0
C1459 C 0.52364 0.32271 0.11068 0.0
C1460 C 0.53511 0.30863 0.10313 0.0
C1461 C 0.52729 0.34186 0.10685 0.0
C1462 C 0.56381 0.37647 0.08706 0.0
H1463 H 0.52848 0.45511 0.05064 0.0
H1464 H 0.52925 0.43235 0.07374 0.0
H1465 H 0.58066 0.40006 0.07659 0.0
H1466 H 0.5601 0.30401 0.08647 0.0
H1467 H 0.5662 0.33701 0.07963 0.0
H1468 H 0.51403 0.36813 0.08477 0.0
C1469 C 0.5393 0.4317 0.0625 0.0
C1470 C 0.56606 0.39333 0.07851 0.0
C1471 C 0.53898 0.44484 0.04943 0.0
C1472 C 0.55085 0.31439 0.09245 0.0
C1473 C 0.5545 0.33345 0.08866 0.0
C1474 C 0.52868 0.37522 0.0836 0.0
C1475 C 0.55175 0.41724 0.06045 0.0
C1476 C 0.54963 0.40108 0.07202 0.0
C1477 C 0.54254 0.34735 0.09545 0.0
C1478 C 0.54507 0.36688 0.08921 0.0
H1479 H 0.5737 0.42904 0.02084 0.0
H1480 H 0.57441 0.40605 0.04366 0.0
H1481 H 0.51794 0.39749 0.07007 0.0
H1482 H 0.51145 0.31883 0.11904 0.0
H1483 H 0.51795 0.35227 0.11252 0.0
C1484 C 0.65698 0.20379 0.25975 0.0
C1485 C 0.67583 0.20598 0.2533 0.0
C1486 C 0.64194 0.21157 0.25078 0.0
C1487 C 0.6323 0.24498 0.2158 0.0
H1488 H 0.58356 0.21032 0.20386 0.0
C1489 C 0.58064 0.24625 0.15032 0.0
C1490 C 0.56038 0.24409 0.15222 0.0
C1491 C 0.59356 0.24442 0.16549 0.0
C1492 C 0.59694 0.22032 0.20735 0.0
H1493 H 0.69419 0.21813 0.233 0.0
H1494 H 0.66809 0.2315 0.21713 0.0
H1495 H 0.60849 0.20232 0.22579 0.0
H1496 H 0.53782 0.23855 0.17171 0.0
H1497 H 0.56053 0.23499 0.19821 0.0
H1498 H 0.62104 0.26246 0.19657 0.0
C1499 C 0.66476 0.22423 0.22929 0.0
C1500 C 0.61125 0.21578 0.21997 0.0
C1501 C 0.67972 0.21651 0.23829 0.0
C1502 C 0.55335 0.24031 0.16979 0.0
C1503 C 0.56632 0.2382 0.18492 0.0
C1504 C 0.61807 0.24941 0.20306 0.0
C1505 C 0.64557 0.22154 0.23515 0.0
C1506 C 0.62932 0.2278 0.22397 0.0
C1507 C 0.58656 0.24018 0.18288 0.0
C1508 C 0.60045 0.23689 0.19834 0.0
H1509 H 0.65373 0.19557 0.27129 0.0
H1510 H 0.62741 0.20943 0.25583 0.0
H1511 H 0.64584 0.2548 0.21887 0.0
H1512 H 0.58658 0.24926 0.13704 0.0
H1513 H 0.60906 0.24579 0.1634 0.0
C1514 C 0.50081 0.05839 0.00152 0.0
C1515 C 0.48209 0.05276 0.99228 0.0
C1516 C 0.50569 0.07688 0.01234 0.0
C1517 C 0.50462 0.11055 0.04516 0.0
H1518 H 0.49088 0.15695 0.0269 0.0
C1519 C 0.49727 0.18231 0.09459 0.0
C1520 C 0.50478 0.19985 0.08856 0.0
C1521 C 0.49714 0.16454 0.08268 0.0
C1522 C 0.49498 0.14415 0.03214 0.0
H1523 H 0.45411 0.06226 0.98642 0.0
H1524 H 0.46272 0.09467 0.00503 0.0
H1525 H 0.48583 0.12586 0.00549 0.0
H1526 H 0.51845 0.21244 0.06549 0.0
H1527 H 0.51802 0.18142 0.04466 0.0
H1528 H 0.51332 0.12878 0.07197 0.0
C1529 C 0.47359 0.08478 0.00401 0.0
C1530 C 0.49195 0.12635 0.01994 0.0
C1531 C 0.46862 0.06622 0.99344 0.0
C1532 C 0.51259 0.19919 0.07058 0.0
C1533 C 0.51225 0.18145 0.05859 0.0
C1534 C 0.50741 0.12832 0.05745 0.0
C1535 C 0.49204 0.09019 0.01386 0.0
C1536 C 0.49658 0.10933 0.02636 0.0
C1537 C 0.50429 0.16395 0.06441 0.0
C1538 C 0.50248 0.14528 0.05112 0.0
H1539 H 0.5114 0.04823 1.00097 0.0
H1540 H 0.52006 0.08072 0.01969 0.0
H1541 H 0.50818 0.09763 0.05055 0.0
H1542 H 0.49115 0.18233 0.10836 0.0
H1543 H 0.49078 0.15131 0.0875 0.0
C1544 C 0.30249 0.36633 0.7445 0.0
C1545 C 0.28471 0.36452 0.73357 0.0
C1546 C 0.3166 0.38245 0.7445 0.0
C1547 C 0.324 0.43306 0.74093 0.0
H1548 H 0.37544 0.42495 0.72475 0.0
C1549 C 0.38562 0.49759 0.74138 0.0
C1550 C 0.40478 0.49434 0.74604 0.0
C1551 C 0.37035 0.48207 0.73824 0.0
C1552 C 0.36128 0.42753 0.72962 0.0
H1553 H 0.26748 0.37799 0.71428 0.0
H1554 H 0.29207 0.40675 0.71483 0.0
H1555 H 0.34996 0.39724 0.72289 0.0
H1556 H 0.42287 0.47239 0.75158 0.0
H1557 H 0.39638 0.4457 0.74706 0.0
H1558 H 0.33542 0.46313 0.7487 0.0
C1559 C 0.2951 0.39553 0.72313 0.0
C1560 C 0.34666 0.41163 0.72836 0.0
C1561 C 0.28114 0.37915 0.72278 0.0
C1562 C 0.40831 0.47535 0.74773 0.0
C1563 C 0.39307 0.45996 0.74497 0.0
C1564 C 0.33876 0.44896 0.7426 0.0
C1565 C 0.31298 0.39721 0.7339 0.0
C1566 C 0.32798 0.41425 0.73415 0.0
C1567 C 0.37387 0.46302 0.74004 0.0
C1568 C 0.3577 0.44638 0.73717 0.0
H1569 H 0.30552 0.35516 0.75288 0.0
H1570 H 0.33028 0.38352 0.75295 0.0
H1571 H 0.30967 0.43535 0.74558 0.0
H1572 H 0.38247 0.51206 0.7399 0.0
H1573 H 0.35586 0.48502 0.73422 0.0
C1574 C 0.26466 0.67298 0.77732 0.0
C1575 C 0.25411 0.67375 0.79378 0.0
C1576 C 0.28122 0.66346 0.77613 0.0
C1577 C 0.30497 0.62536 0.79371 0.0
H1578 H 0.3522 0.65298 0.77805 0.0
C1579 C 0.37757 0.59163 0.78815 0.0
C1580 C 0.38885 0.59574 0.7729 0.0
C1581 C 0.36134 0.60126 0.79226 0.0
C1582 C 0.33909 0.64491 0.7822 0.0
H1583 H 0.25232 0.66484 0.82173 0.0
H1584 H 0.28119 0.64777 0.81946 0.0
H1585 H 0.3232 0.66917 0.78176 0.0
H1586 H 0.39164 0.61283 0.74976 0.0
H1587 H 0.36328 0.62899 0.75644 0.0
H1588 H 0.32059 0.60084 0.79347 0.0
C1589 C 0.27667 0.6547 0.80758 0.0
C1590 C 0.32251 0.65426 0.78441 0.0
C1591 C 0.26027 0.66452 0.80891 0.0
C1592 C 0.38344 0.60946 0.76176 0.0
C1593 C 0.36718 0.61888 0.7657 0.0
C1594 C 0.32152 0.61586 0.79122 0.0
C1595 C 0.28741 0.65426 0.79125 0.0
C1596 C 0.30523 0.64452 0.78996 0.0
C1597 C 0.35598 0.61507 0.7811 0.0
C1598 C 0.33873 0.62544 0.78515 0.0
H1599 H 0.26031 0.68008 0.76552 0.0
H1600 H 0.28917 0.66322 0.76333 0.0
H1601 H 0.29178 0.61751 0.79795 0.0
H1602 H 0.3814 0.58114 0.79702 0.0
H1603 H 0.35318 0.59806 0.80433 0.0
C1604 C 0.92126 0.49336 0.48118 0.0
C1605 C 0.93949 0.49049 0.48895 0.0
C1606 C 0.90422 0.48193 0.48502 0.0
C1607 C 0.88834 0.43504 0.50233 0.0
H1608 H 0.83806 0.45391 0.50324 0.0
C1609 C 0.81855 0.38215 0.50414 0.0
C1610 C 0.80346 0.38847 0.51493 0.0
C1611 C 0.83423 0.39538 0.50049 0.0
C1612 C 0.852 0.44843 0.50326 0.0
H1613 H 0.95441 0.47431 0.50746 0.0
H1614 H 0.92476 0.45504 0.51507 0.0
H1615 H 0.86725 0.476 0.49947 0.0
H1616 H 0.79267 0.41364 0.53006 0.0
H1617 H 0.82055 0.43679 0.52446 0.0
H1618 H 0.87345 0.40785 0.50715 0.0
C1619 C 0.92345 0.46544 0.50535 0.0
C1620 C 0.86877 0.46107 0.50081 0.0
C1621 C 0.94046 0.47658 0.50117 0.0
C1622 C 0.8041 0.40841 0.52162 0.0
C1623 C 0.82006 0.42166 0.51833 0.0
C1624 C 0.87171 0.42256 0.50512 0.0
C1625 C 0.9051 0.46763 0.497 0.0
C1626 C 0.88718 0.4545 0.50019 0.0
C1627 C 0.83552 0.41527 0.50796 0.0
C1628 C 0.85324 0.42897 0.5054 0.0
H1629 H 0.92027 0.50401 0.47164 0.0
H1630 H 0.89049 0.48392 0.4781 0.0
H1631 H 0.9021 0.42922 0.50161 0.0
H1632 H 0.81829 0.36689 0.49854 0.0
H1633 H 0.84542 0.38991 0.49189 0.0
C1634 C 0.7364 0.81165 0.78511 0.0
C1635 C 0.74712 0.80266 0.77098 0.0
C1636 C 0.72979 0.82934 0.78318 0.0
C1637 C 0.71899 0.86029 0.747 0.0
H1638 H 0.72104 0.90059 0.79099 0.0
C1639 C 0.7089 0.93944 0.74061 0.0
C1640 C 0.69868 0.9498 0.75443 0.0
C1641 C 0.71307 0.92082 0.74245 0.0
C1642 C 0.72008 0.88938 0.77863 0.0
H1643 H 0.75959 0.8047 0.74387 0.0
H1644 H 0.7483 0.83591 0.74049 0.0
H1645 H 0.73262 0.86981 0.79464 0.0
H1646 H 0.68431 0.94834 0.78079 0.0
H1647 H 0.69159 0.91565 0.784 0.0
H1648 H 0.70668 0.87997 0.73095 0.0
C1649 C 0.74474 0.82926 0.75297 0.0
C1650 C 0.72677 0.87174 0.7807 0.0
C1651 C 0.75134 0.81153 0.75493 0.0
C1652 C 0.69223 0.9408 0.7699 0.0
C1653 C 0.69652 0.92213 0.77181 0.0
C1654 C 0.71234 0.87794 0.74492 0.0
C1655 C 0.73379 0.83834 0.76705 0.0
C1656 C 0.72644 0.85702 0.76489 0.0
C1657 C 0.70718 0.91202 0.75819 0.0
C1658 C 0.71295 0.89276 0.76068 0.0
H1659 H 0.7329 0.80486 0.79754 0.0
H1660 H 0.7212 0.83575 0.79416 0.0
H1661 H 0.71816 0.84914 0.7346 0.0
H1662 H 0.71405 0.94585 0.72845 0.0
H1663 H 0.72148 0.91356 0.73182 0.0
C1664 C 0.60539 0.51347 0.00371 0.0
C1665 C 0.58742 0.52077 0.00269 0.0
C1666 C 0.62296 0.52624 0.00696 0.0
C1667 C 0.64202 0.57572 0.99946 0.0
H1668 H 0.68733 0.57001 0.03149 0.0
C1669 C 0.70605 0.63695 0.01671 0.0
C1670 C 0.72522 0.63226 0.01672 0.0
C1671 C 0.69007 0.62244 0.01542 0.0
C1672 C 0.67487 0.57164 0.0223 0.0
H1673 H 0.57361 0.54701 0.00582 0.0
H1674 H 0.60409 0.56919 0.0117 0.0
H1675 H 0.65774 0.54629 0.02957 0.0
H1676 H 0.74252 0.60842 0.01558 0.0
H1677 H 0.71441 0.58293 0.01311 0.0
H1678 H 0.65892 0.60087 0.99206 0.0
C1679 C 0.60473 0.55368 0.00949 0.0
C1680 C 0.65793 0.55809 0.02125 0.0
C1681 C 0.58727 0.54098 0.00622 0.0
C1682 C 0.72797 0.61257 0.01556 0.0
C1683 C 0.71188 0.59797 0.01427 0.0
C1684 C 0.65886 0.58914 1.00046 0.0
C1685 C 0.6228 0.54649 0.00924 0.0
C1686 C 0.6412 0.56021 0.01006 0.0
C1687 C 0.69272 0.60276 0.01403 0.0
C1688 C 0.6754 0.5875 0.01213 0.0
H1689 H 0.60593 0.49795 1.00093 0.0
H1690 H 0.63665 0.52026 0.00669 0.0
H1691 H 0.62959 0.57746 0.99028 0.0
H1692 H 0.70328 0.65192 0.01773 0.0
H1693 H 0.67556 0.62671 0.01566 0.0
C1694 C 0.30128 0.67312 0.20797 0.0
C1695 C 0.30484 0.69048 0.22094 0.0
C1696 C 0.28595 0.65878 0.21027 0.0
C1697 C 0.25576 0.64308 0.2486 0.0
H1698 H 0.23084 0.60408 0.20727 0.0
C1699 C 0.19954 0.57894 0.26153 0.0
C1700 C 0.20445 0.56058 0.25417 0.0
C1701 C 0.209 0.59583 0.25591 0.0
C1702 C 0.23767 0.61493 0.21892 0.0
H1703 H 0.29462 0.70719 0.24562 0.0
H1704 H 0.26713 0.68273 0.24907 0.0
H1705 H 0.25159 0.6326 0.19995 0.0
H1706 H 0.22273 0.54563 0.23462 0.0
H1707 H 0.23888 0.57507 0.22452 0.0
H1708 H 0.24167 0.62541 0.2675 0.0
C1709 C 0.27655 0.6797 0.23756 0.0
C1710 C 0.24965 0.63123 0.21477 0.0
C1711 C 0.29213 0.69384 0.23549 0.0
C1712 C 0.21853 0.55946 0.24055 0.0
C1713 C 0.22774 0.57633 0.23468 0.0
C1714 C 0.24354 0.627 0.2527 0.0
C1715 C 0.27368 0.66165 0.22544 0.0
C1716 C 0.25919 0.64536 0.22958 0.0
C1717 C 0.22332 0.59469 0.24257 0.0
C1718 C 0.23466 0.6126 0.23794 0.0
H1719 H 0.31109 0.67015 0.19678 0.0
H1720 H 0.28447 0.64506 0.20076 0.0
H1721 H 0.26312 0.6533 0.26046 0.0
H1722 H 0.18877 0.58033 0.27206 0.0
H1723 H 0.20529 0.60982 0.26215 0.0
C1724 C 0.94697 0.5487 0.04835 0.0
C1725 C 0.95356 0.53323 0.03683 0.0
C1726 C 0.93163 0.55757 0.04171 0.0
C1727 C 0.88868 0.55204 0.00898 0.0
H1728 H 0.89892 0.60838 0.01528 0.0
C1729 C 0.82917 0.60385 0.01059 0.0
C1730 C 0.83326 0.62096 0.00247 0.0
C1731 C 0.84298 0.59089 0.01096 0.0
C1732 C 0.89586 0.59265 0.01316 0.0
H1733 H 0.94927 0.51433 0.00959 0.0
H1734 H 0.92184 0.52985 0.99782 0.0
H1735 H 0.92479 0.58992 0.02346 0.0
H1736 H 0.85449 0.63708 0.98711 0.0
H1737 H 0.87847 0.61456 0.9878 0.0
H1738 H 0.85945 0.55494 0.99919 0.0
C1739 C 0.92866 0.53508 0.01202 0.0
C1740 C 0.91064 0.5821 0.018 0.0
C1741 C 0.94427 0.52626 0.01868 0.0
C1742 C 0.85093 0.62418 0.99369 0.0
C1743 C 0.86471 0.6113 0.99411 0.0
C1744 C 0.87372 0.56267 0.00432 0.0
C1745 C 0.92249 0.55108 0.02339 0.0
C1746 C 0.90715 0.56173 0.01626 0.0
C1747 C 0.86116 0.59484 0.00326 0.0
C1748 C 0.87713 0.58312 0.00656 0.0
H1749 H 0.95398 0.55424 0.06243 0.0
H1750 H 0.92701 0.56968 0.05086 0.0
H1751 H 0.88562 0.53634 0.00758 0.0
H1752 H 0.81566 0.60088 0.01741 0.0
H1753 H 0.83986 0.57837 0.01819 0.0
C1754 C 0.09651 0.01125 0.02397 0.0
C1755 C 0.08307 0.00649 0.03739 0.0
C1756 C 0.1136 0.00256 0.02243 0.0
C1757 C 0.14649 0.97645 0.04879 0.0
H1758 H 0.16138 0.95631 0.99849 0.0
C1759 C 0.21525 0.93872 0.03971 0.0
C1760 C 0.21256 0.92074 0.02757 0.0
C1761 C 0.2012 0.95139 0.03964 0.0
C1762 C 0.15742 0.96187 0.01263 0.0
H1763 H 0.07709 0.98873 0.05962 0.0
H1764 H 0.10694 0.97378 0.05708 0.0
H1765 H 0.13316 0.974 0.00148 0.0
H1766 H 0.1935 0.90249 0.00502 0.0
H1767 H 0.16895 0.92454 0.00497 0.0
H1768 H 0.1703 0.96384 0.05998 0.0
C1769 C 0.10438 0.98442 0.0479 0.0
C1770 C 0.14137 0.97215 0.01434 0.0
C1771 C 0.08727 0.99302 0.04938 0.0
C1772 C 0.19602 0.9162 0.0146 0.0
C1773 C 0.18197 0.92889 0.01451 0.0
C1774 C 0.16256 0.96626 0.04708 0.0
C1775 C 0.1177 0.98901 0.03435 0.0
C1776 C 0.13555 0.9793 0.03245 0.0
C1777 C 0.18415 0.94639 0.02738 0.0
C1778 C 0.16807 0.95862 0.02899 0.0
H1779 H 0.09387 0.02177 0.01469 0.0
H1780 H 0.12369 0.00657 0.01201 0.0
H1781 H 0.14252 0.98196 0.06293 0.0
H1782 H 0.2279 0.94276 0.04978 0.0
H1783 H 0.20347 0.96492 0.04949 0.0
loop_
_geom_bond_atom_site_label_1
_geom_bond_atom_site_label_2
_geom_bond_distance
_geom_bond_site_symmetry_2
_ccdc_geom_bond_type
H0 C3 0.929 . S
H1 C6 0.929 . S
H2 C8 0.930 . S
C3 H0 0.929 . S
C3 C4 1.398 . S
C3 C5 1.396 . S
C4 C3 1.398 . S
C4 C8 1.407 . S
C5 C3 1.396 . S
C5 C6 1.394 . S
C6 H1 0.929 . S
C6 C5 1.394 . S
C6 C7 1.382 . S
C7 C6 1.382 . S
C7 C8 1.392 . S
C7 N9 1.420 . S
C8 H2 0.930 . S
C8 C4 1.407 . S
C8 C7 1.392 . S
N9 C7 1.420 . S
N9 C10 1.244 . S
C10 N9 1.244 . S
H11 C14 0.929 . S
H12 C17 0.929 . S
H13 C19 0.930 . S
C14 H11 0.929 . S
C14 C15 1.398 . S
C14 C16 1.396 . S
C15 C14 1.398 . S
C15 C19 1.407 . S
C16 C14 1.396 . S
C16 C17 1.394 . S
C17 H12 0.929 . S
C17 C16 1.394 . S
C17 C18 1.382 . S
C18 C17 1.382 . S
C18 C19 1.392 . S
C18 N20 1.420 . S
C19 H13 0.930 . S
C19 C15 1.407 . S
C19 C18 1.392 . S
N20 C18 1.420 . S
N20 C21 1.244 . S
C21 N20 1.244 . S
H22 C25 0.929 . S
H23 C28 0.929 . S
H24 C30 0.930 . S
C25 H22 0.929 . S
C25 C26 1.375 1_455 S
C25 C27 1.396 . S
C26 C25 1.375 1_655 S
C26 C30 1.447 . S
C27 C25 1.396 . S
C27 C28 1.394 1_455 S
C28 H23 0.929 . S
C28 C27 1.394 1_655 S
C28 C29 1.382 . S
C29 C28 1.382 . S
C29 C30 1.392 . S
C29 N31 1.420 . S
C30 H24 0.930 . S
C30 C26 1.447 . S
C30 C29 1.392 . S
N31 C29 1.420 . S
N31 C32 1.244 . S
C32 N31 1.244 . S
H33 C36 0.929 . S
H34 C39 0.929 . S
H35 C41 0.930 . S
C36 H33 0.929 . S
C36 C37 1.398 . S
C36 C38 1.396 . S
C37 C36 1.398 . S
C37 C41 1.407 . S
C38 C36 1.396 . S
C38 C39 1.394 . S
C39 H34 0.929 . S
C39 C38 1.394 . S
C39 C40 1.382 . S
C40 C39 1.382 . S
C40 C41 1.392 . S
C40 N42 1.420 . S
C41 H35 0.930 . S
C41 C37 1.407 . S
C41 C40 1.392 . S
N42 C40 1.420 . S
N42 C43 1.244 . S
C43 N42 1.244 . S
H44 C47 0.929 1_545 S
H45 C50 0.929 . S
H46 C52 0.930 . S
C47 H44 0.929 1_565 S
C47 C48 1.398 . S
C47 C49 1.396 . S
C48 C47 1.398 . S
C48 C52 1.407 . S
C49 C47 1.396 . S
C49 C50 1.394 . S
C50 H45 0.929 . S
C50 C49 1.394 . S
C50 C51 1.382 . S
C51 C50 1.382 . S
C51 C52 1.392 . S
C51 N53 1.420 . S
C52 H46 0.930 . S
C52 C48 1.407 . S
C52 C51 1.392 . S
N53 C51 1.420 . S
N53 C54 1.244 . S
C54 N53 1.244 . S
H55 C58 0.929 . S
H56 C61 0.929 . S
H57 C63 0.930 . S
C58 H55 0.929 . S
C58 C59 1.398 . S
C58 C60 1.396 . S
C59 C58 1.398 . S
C59 C63 1.407 . S
C60 C58 1.396 . S
C60 C61 1.394 . S
C61 H56 0.929 . S
C61 C60 1.394 . S
C61 C62 1.382 . S
C62 C61 1.382 . S
C62 C63 1.392 . S
C62 N64 1.420 . S
C63 H57 0.930 . S
C63 C59 1.407 . S
C63 C62 1.392 . S
N64 C62 1.420 . S
N64 C65 1.244 . S
C65 N64 1.244 . S
H66 C69 0.929 . S
H67 C72 0.929 1_455 S
H68 C74 0.930 . S
C69 H66 0.929 . S
C69 C70 1.398 . S
C69 C71 1.396 . S
C70 C69 1.398 . S
C70 C74 1.407 . S
C71 C69 1.396 . S
C71 C72 1.394 . S
C72 H67 0.929 1_655 S
C72 C71 1.394 . S
C72 C73 1.382 . S
C73 C72 1.382 . S
C73 C74 1.392 . S
C73 N75 1.413 1_655 S
C74 H68 0.930 . S
C74 C70 1.407 . S
C74 C73 1.392 . S
N75 C73 1.413 1_455 S
N75 C76 1.248 . S
C76 N75 1.248 . S
H77 C80 0.929 . S
H78 C83 0.929 . S
H79 C85 0.930 . S
C80 H77 0.929 . S
C80 C81 1.398 . S
C80 C82 1.396 . S
C81 C80 1.398 . S
C81 C85 1.407 . S
C82 C80 1.396 . S
C82 C83 1.394 . S
C83 H78 0.929 . S
C83 C82 1.394 . S
C83 C84 1.382 . S
C84 C83 1.382 . S
C84 C85 1.392 . S
C84 N86 1.420 . S
C85 H79 0.930 . S
C85 C81 1.407 . S
C85 C84 1.392 . S
N86 C84 1.420 . S
N86 C87 1.244 . S
C87 N86 1.244 . S
H88 C91 0.929 . S
H89 C94 0.929 . S
H90 C96 0.930 . S
C91 H88 0.929 . S
C91 C92 1.398 . S
C91 C93 1.396 . S
C92 C91 1.398 . S
C92 C96 1.407 . S
C93 C91 1.396 . S
C93 C94 1.394 . S
C94 H89 0.929 . S
C94 C93 1.394 . S
C94 C95 1.382 . S
C95 C94 1.382 . S
C95 C96 1.392 . S
C95 N97 1.420 . S
C96 H90 0.930 . S
C96 C92 1.407 . S
C96 C95 1.392 . S
N97 C95 1.420 . S
N97 C98 1.244 . S
C98 N97 1.244 . S
H99 C102 0.929 . S
H100 C105 0.929 1_545 S
H101 C107 0.930 . S
C102 H99 0.929 . S
C102 C103 1.398 . S
C102 C104 1.396 . S
C103 C102 1.398 . S
C103 C107 1.407 . S
C104 C102 1.396 . S
C104 C105 1.394 . S
C105 H100 0.929 1_565 S
C105 C104 1.394 . S
C105 C106 1.382 . S
C106 C105 1.382 . S
C106 C107 1.392 . S
C106 N108 1.420 1_565 S
C107 H101 0.930 . S
C107 C103 1.407 . S
C107 C106 1.392 . S
N108 C106 1.420 1_545 S
N108 C109 1.244 . S
C109 N108 1.244 . S
H110 C113 0.929 . S
H111 C116 0.929 . S
H112 C118 0.930 . S
C113 H110 0.929 . S
C113 C114 1.398 . S
C113 C115 1.396 . S
C114 C113 1.398 . S
C114 C118 1.407 . S
C115 C113 1.396 . S
C115 C116 1.394 . S
C116 H111 0.929 . S
C116 C115 1.394 . S
C116 C117 1.382 . S
C117 C116 1.382 . S
C117 C118 1.392 . S
C117 N119 1.420 . S
C118 H112 0.930 . S
C118 C114 1.407 . S
C118 C117 1.392 . S
N119 C117 1.420 . S
N119 C120 1.244 . S
C120 N119 1.244 . S
H121 C124 0.929 . S
H122 C127 0.929 . S
H123 C129 0.930 . S
C124 H121 0.929 . S
C124 C125 1.398 . S
C124 C126 1.396 . S
C125 C124 1.398 . S
C125 C129 1.407 . S
C126 C124 1.396 . S
C126 C127 1.394 . S
C127 H122 0.929 . S
C127 C126 1.394 . S
C127 C128 1.382 . S
C128 C127 1.382 . S
C128 C129 1.392 . S
C128 N130 1.420 . S
C129 H123 0.930 . S
C129 C125 1.407 . S
C129 C128 1.392 . S
N130 C128 1.420 . S
N130 C131 1.244 . S
C131 N130 1.244 . S
H132 C135 0.929 . S
H133 C138 0.929 . S
H134 C140 0.930 . S
C135 H132 0.929 . S
C135 C136 1.398 . S
C135 C137 1.396 . S
C136 C135 1.398 . S
C136 C140 1.407 . S
C137 C135 1.396 . S
C137 C138 1.394 . S
C138 H133 0.929 . S
C138 C137 1.394 . S
C138 C139 1.382 . S
C139 C138 1.382 . S
C139 C140 1.392 . S
C139 N141 1.420 . S
C140 H134 0.930 . S
C140 C136 1.407 . S
C140 C139 1.392 . S
N141 C139 1.420 . S
N141 C142 1.244 . S
C142 N141 1.244 . S
H143 C146 0.929 . S
H144 C149 0.883 1_554 S
H145 C151 0.930 . S
C146 H143 0.929 . S
C146 C147 1.398 . S
C146 C148 1.396 . S
C147 C146 1.398 . S
C147 C151 1.407 . S
C148 C146 1.396 . S
C148 C149 1.434 . S
C149 H144 0.883 1_556 S
C149 C148 1.434 . S
C149 C150 1.389 . S
C150 C149 1.389 . S
C150 C151 1.392 . S
C150 N152 1.420 1_556 S
C151 H145 0.930 . S
C151 C147 1.407 . S
C151 C150 1.392 . S
N152 C150 1.420 1_554 S
N152 C153 1.244 . S
C153 N152 1.244 . S
H154 C157 0.929 . S
H155 C160 0.929 . S
H156 C162 0.930 . S
C157 H154 0.929 . S
C157 C158 1.398 . S
C157 C159 1.396 . S
C158 C157 1.398 . S
C158 C162 1.407 . S
C159 C157 1.396 . S
C159 C160 1.394 . S
C160 H155 0.929 . S
C160 C159 1.394 . S
C160 C161 1.382 . S
C161 C160 1.382 . S
C161 C162 1.392 . S
C161 N163 1.420 . S
C162 H156 0.930 . S
C162 C158 1.407 . S
C162 C161 1.392 . S
N163 C161 1.420 . S
N163 C164 1.244 . S
C164 N163 1.244 . S
H165 C168 0.929 . S
H166 C171 0.929 . S
H167 C173 0.930 1_565 S
C168 H165 0.929 . S
C168 C169 1.398 . S
C168 C170 1.396 . S
C169 C168 1.398 . S
C169 C173 1.407 . S
C170 C168 1.396 . S
C170 C171 1.394 . S
C171 H166 0.929 . S
C171 C170 1.394 . S
C171 C172 1.382 . S
C172 C171 1.382 . S
C172 C173 1.392 . S
C172 N174 1.420 . S
C173 H167 0.930 1_545 S
C173 C169 1.407 . S
C173 C172 1.392 . S
N174 C172 1.420 . S
N174 C175 1.244 . S
C175 N174 1.244 . S
Mg176 O177 2.028 . S
Mg176 O183 1.986 . S
Mg176 O185 2.114 . S
Mg176 O186 2.251 . S
Mg176 O189 2.010 . S
O177 Mg176 2.028 . S
O177 C180 1.250 . S
O178 Mg179 2.028 . S
O178 C180 1.248 . S
Mg179 O178 2.028 . S
Mg179 O184 2.023 1_554 S
Mg179 O186 2.079 . S
C180 O177 1.250 . S
C180 O178 1.248 . S
C181 O182 1.264 . S
C181 O189 1.249 . S
O182 C181 1.264 . S
O183 Mg176 1.986 . S
O183 C187 1.246 1_554 S
O184 Mg179 2.023 1_556 S
O184 C187 1.262 . S
O185 Mg176 2.114 . S
O185 C188 1.252 . S
O186 Mg176 2.251 . S
O186 Mg179 2.079 . S
O186 C188 1.273 . S
C187 O183 1.246 1_556 S
C187 O184 1.262 . S
C188 O185 1.252 . S
C188 O186 1.273 . S
O189 Mg176 2.010 . S
O189 C181 1.249 . S
Mg190 O191 2.028 . S
Mg190 O197 1.986 . S
Mg190 O199 2.114 . S
Mg190 O200 2.251 . S
Mg190 O203 2.010 . S
O191 Mg190 2.028 . S
O191 C194 1.250 . S
O192 Mg193 2.028 . S
O192 C194 1.248 . S
Mg193 O192 2.028 . S
Mg193 O198 2.032 . S
Mg193 O200 2.079 . S
C194 O191 1.250 . S
C194 O192 1.248 . S
C195 O196 1.264 . S
C195 O203 1.249 . S
O196 C195 1.264 . S
O197 Mg190 1.986 . S
O197 C201 1.246 . S
O198 Mg193 2.032 . S
O198 C201 1.259 . S
O199 Mg190 2.114 . S
O199 C202 1.252 . S
O200 Mg190 2.251 . S
O200 Mg193 2.079 . S
O200 C202 1.273 . S
C201 O197 1.246 . S
C201 O198 1.259 . S
C202 O199 1.252 . S
C202 O200 1.273 . S
O203 Mg190 2.010 . S
O203 C195 1.249 . S
Mg204 O205 2.028 1_554 S
Mg204 O211 1.986 1_554 S
Mg204 O213 2.114 . S
Mg204 O214 2.251 . S
Mg204 O217 2.010 . S
O205 Mg204 2.028 1_556 S
O205 C208 1.253 . S
O206 Mg207 2.028 . S
O206 C208 1.248 . S
Mg207 O206 2.028 . S
Mg207 O212 2.032 . S
Mg207 O214 2.079 1_556 S
C208 O205 1.253 . S
C208 O206 1.248 . S
C209 O210 1.264 . S
C209 O217 1.249 . S
O210 C209 1.264 . S
O211 Mg204 1.986 1_556 S
O211 C215 1.246 . S
O212 Mg207 2.032 . S
O212 C215 1.259 . S
O213 Mg204 2.114 . S
O213 C216 1.252 . S
O214 Mg204 2.251 . S
O214 Mg207 2.079 1_554 S
O214 C216 1.273 . S
C215 O211 1.246 . S
C215 O212 1.259 . S
C216 O213 1.252 . S
C216 O214 1.273 . S
O217 Mg204 2.010 . S
O217 C209 1.249 . S
Mg218 O219 2.028 . S
Mg218 O225 1.986 . S
Mg218 O227 2.114 . S
Mg218 O228 2.251 . S
Mg218 O231 2.010 . S
O219 Mg218 2.028 . S
O219 C222 1.250 . S
O220 Mg221 2.028 . S
O220 C222 1.248 1_565 S
Mg221 O220 2.028 . S
Mg221 O226 2.032 1_565 S
Mg221 O228 2.079 1_565 S
C222 O219 1.250 . S
C222 O220 1.248 1_545 S
C223 O224 1.264 . S
C223 O231 1.249 . S
O224 C223 1.264 . S
O225 Mg218 1.986 . S
O225 C229 1.246 . S
O226 Mg221 2.032 1_545 S
O226 C229 1.259 . S
O227 Mg218 2.114 . S
O227 C230 1.252 . S
O228 Mg218 2.251 . S
O228 Mg221 2.079 1_545 S
O228 C230 1.273 . S
C229 O225 1.246 . S
C229 O226 1.259 . S
C230 O227 1.252 . S
C230 O228 1.273 . S
O231 Mg218 2.010 . S
O231 C223 1.249 . S
Mg232 O233 2.028 . S
Mg232 O239 1.986 . S
Mg232 O241 2.114 . S
Mg232 O242 2.251 . S
Mg232 O245 2.010 . S
O233 Mg232 2.028 . S
O233 C236 1.250 . S
O234 Mg235 2.028 . S
O234 C236 1.248 . S
Mg235 O234 2.028 . S
Mg235 O240 2.032 . S
Mg235 O242 2.079 . S
C236 O233 1.250 . S
C236 O234 1.248 . S
C237 O238 1.264 . S
C237 O245 1.249 . S
O238 C237 1.264 . S
O239 Mg232 1.986 . S
O239 C243 1.246 . S
O240 Mg235 2.032 . S
O240 C243 1.259 . S
O241 Mg232 2.114 . S
O241 C244 1.252 . S
O242 Mg232 2.251 . S
O242 Mg235 2.079 . S
O242 C244 1.273 . S
C243 O239 1.246 . S
C243 O240 1.259 . S
C244 O241 1.252 . S
C244 O242 1.273 . S
O245 Mg232 2.010 . S
O245 C237 1.249 . S
Mg246 O247 2.028 . S
Mg246 O253 1.986 . S
Mg246 O255 2.114 . S
Mg246 O256 2.251 . S
Mg246 O259 2.010 . S
O247 Mg246 2.028 . S
O247 C250 1.250 . S
O248 Mg249 2.028 . S
O248 C250 1.248 . S
Mg249 O248 2.028 . S
Mg249 O254 2.032 . S
Mg249 O256 2.079 . S
C250 O247 1.250 . S
C250 O248 1.248 . S
C251 O252 1.264 . S
C251 O259 1.249 . S
O252 C251 1.264 . S
O253 Mg246 1.986 . S
O253 C257 1.246 . S
O254 Mg249 2.032 . S
O254 C257 1.259 . S
O255 Mg246 2.114 . S
O255 C258 1.252 . S
O256 Mg246 2.251 . S
O256 Mg249 2.079 . S
O256 C258 1.273 . S
C257 O253 1.246 . S
C257 O254 1.259 . S
C258 O255 1.252 . S
C258 O256 1.273 . S
O259 Mg246 2.010 . S
O259 C251 1.249 . S
Mg260 O261 2.028 . S
Mg260 O267 1.986 . S
Mg260 O269 2.114 . S
Mg260 O270 2.251 . S
Mg260 O273 2.010 . S
O261 Mg260 2.028 . S
O261 C264 1.250 . S
O262 Mg263 2.028 . S
O262 C264 1.248 . S
Mg263 O262 2.028 . S
Mg263 O268 2.032 . S
Mg263 O270 2.079 . S
C264 O261 1.250 . S
C264 O262 1.248 . S
C265 O266 1.264 . S
C265 O273 1.249 . S
O266 C265 1.264 . S
O267 Mg260 1.986 . S
O267 C271 1.246 . S
O268 Mg263 2.032 . S
O268 C271 1.259 . S
O269 Mg260 2.114 . S
O269 C272 1.252 . S
O270 Mg260 2.251 . S
O270 Mg263 2.079 . S
O270 C272 1.273 . S
C271 O267 1.246 . S
C271 O268 1.259 . S
C272 O269 1.252 . S
C272 O270 1.273 . S
O273 Mg260 2.010 . S
O273 C265 1.249 . S
Mg274 O275 2.028 1_545 S
Mg274 O281 1.986 1_545 S
Mg274 O283 2.114 . S
Mg274 O284 2.251 . S
Mg274 O287 2.010 . S
O275 Mg274 2.028 1_565 S
O275 C278 1.250 . S
O276 Mg277 2.028 . S
O276 C278 1.248 . S
Mg277 O276 2.028 . S
Mg277 O282 2.032 . S
Mg277 O284 2.079 1_565 S
C278 O275 1.250 . S
C278 O276 1.248 . S
C279 O280 1.264 . S
C279 O287 1.249 . S
O280 C279 1.264 . S
O281 Mg274 1.986 1_565 S
O281 C285 1.246 . S
O282 Mg277 2.032 . S
O282 C285 1.259 . S
O283 Mg274 2.114 . S
O283 C286 1.252 . S
O284 Mg274 2.251 . S
O284 Mg277 2.079 1_545 S
O284 C286 1.273 . S
C285 O281 1.246 . S
C285 O282 1.259 . S
C286 O283 1.252 . S
C286 O284 1.273 . S
O287 Mg274 2.010 . S
O287 C279 1.249 . S
Mg288 O289 2.028 . S
Mg288 O295 1.986 . S
Mg288 O297 2.114 . S
Mg288 O298 2.251 . S
Mg288 O301 2.010 . S
O289 Mg288 2.028 . S
O289 C292 1.250 1_455 S
O290 Mg291 2.028 . S
O290 C292 1.248 . S
Mg291 O290 2.028 . S
Mg291 O296 2.032 1_655 S
Mg291 O298 2.079 1_655 S
C292 O289 1.250 1_655 S
C292 O290 1.248 . S
C293 O294 1.264 . S
C293 O301 1.249 . S
O294 C293 1.264 . S
O295 Mg288 1.986 . S
O295 C299 1.246 . S
O296 Mg291 2.032 1_455 S
O296 C299 1.259 . S
O297 Mg288 2.114 . S
O297 C300 1.252 . S
O298 Mg288 2.251 . S
O298 Mg291 2.079 1_455 S
O298 C300 1.273 . S
C299 O295 1.246 . S
C299 O296 1.259 . S
C300 O297 1.252 . S
C300 O298 1.273 . S
O301 Mg288 2.010 . S
O301 C293 1.249 . S
Mg302 O303 2.028 . S
Mg302 O309 1.986 . S
Mg302 O311 2.114 . S
Mg302 O312 2.251 . S
Mg302 O315 2.010 . S
O303 Mg302 2.028 . S
O303 C306 1.250 . S
O304 Mg305 2.028 . S
O304 C306 1.248 . S
Mg305 O304 2.028 . S
Mg305 O310 2.032 . S
Mg305 O312 2.079 . S
C306 O303 1.250 . S
C306 O304 1.248 . S
C307 O308 1.264 . S
C307 O315 1.249 . S
O308 C307 1.264 . S
O309 Mg302 1.986 . S
O309 C313 1.246 . S
O310 Mg305 2.032 . S
O310 C313 1.259 . S
O311 Mg302 2.114 . S
O311 C314 1.252 . S
O312 Mg302 2.251 . S
O312 Mg305 2.079 . S
O312 C314 1.273 . S
C313 O309 1.246 . S
C313 O310 1.259 . S
C314 O311 1.252 . S
C314 O312 1.273 . S
O315 Mg302 2.010 . S
O315 C307 1.249 . S
Mg316 O317 2.028 1_655 S
Mg316 O323 1.986 1_655 S
Mg316 O325 2.114 . S
Mg316 O326 2.251 1_655 S
Mg316 O329 2.010 . S
O317 Mg316 2.028 1_455 S
O317 C320 1.250 . S
O318 Mg319 2.028 . S
O318 C320 1.248 . S
Mg319 O318 2.028 . S
Mg319 O324 2.032 . S
Mg319 O326 2.079 . S
C320 O317 1.250 . S
C320 O318 1.248 . S
C321 O322 1.264 . S
C321 O329 1.249 . S
O322 C321 1.264 . S
O323 Mg316 1.986 1_455 S
O323 C327 1.246 . S
O324 Mg319 2.032 . S
O324 C327 1.259 . S
O325 Mg316 2.114 . S
O325 C328 1.252 . S
O326 Mg316 2.251 1_455 S
O326 Mg319 2.079 . S
O326 C328 1.273 1_455 S
C327 O323 1.246 . S
C327 O324 1.259 . S
C328 O325 1.252 . S
C328 O326 1.273 1_655 S
O329 Mg316 2.010 . S
O329 C321 1.249 . S
Mg330 O331 2.028 . S
Mg330 O337 1.986 . S
Mg330 O339 2.114 . S
Mg330 O340 2.251 . S
Mg330 O343 2.010 . S
O331 Mg330 2.028 . S
O331 C334 1.250 . S
O332 Mg333 2.028 . S
O332 C334 1.248 . S
Mg333 O332 2.028 . S
Mg333 O338 2.032 . S
Mg333 O340 2.079 . S
C334 O331 1.250 . S
C334 O332 1.248 . S
C335 O336 1.264 . S
C335 O343 1.249 . S
O336 C335 1.264 . S
O337 Mg330 1.986 . S
O337 C341 1.246 . S
O338 Mg333 2.032 . S
O338 C341 1.259 . S
O339 Mg330 2.114 . S
O339 C342 1.252 . S
O340 Mg330 2.251 . S
O340 Mg333 2.079 . S
O340 C342 1.273 . S
C341 O337 1.246 . S
C341 O338 1.259 . S
C342 O339 1.252 . S
C342 O340 1.273 . S
O343 Mg330 2.010 . S
O343 C335 1.249 . S
C344 C345 1.349 . S
C344 C346 1.327 . S
C344 H369 0.950 . S
C345 C344 1.349 . S
C345 C361 1.349 . S
C346 C344 1.327 . S
C346 C365 1.429 . S
C346 H370 0.950 . S
C347 C364 1.574 . S
C347 C366 1.368 . S
C347 H371 0.949 . S
H348 C352 0.949 . S
C349 C350 1.349 . S
C349 C351 1.327 . S
C349 H372 0.950 . S
C350 C349 1.349 . S
C350 C362 1.349 . S
C351 C349 1.327 . S
C351 C367 1.429 . S
C351 H373 0.950 . S
C352 H348 0.949 . S
C352 C360 1.574 . S
C352 C368 1.368 . S
H353 C361 0.950 . S
H354 C359 0.950 . S
H355 C360 0.949 . S
H356 C362 0.950 . S
H357 C363 0.950 . S
H358 C364 0.949 . S
C359 H354 0.950 . S
C359 C361 1.327 . S
C359 C365 1.429 . S
C360 C352 1.574 . S
C360 H355 0.949 . S
C360 C366 1.368 . S
C361 C345 1.349 . S
C361 H353 0.950 . S
C361 C359 1.327 . S
C362 C350 1.349 . S
C362 H356 0.950 . S
C362 C363 1.327 . S
C363 H357 0.950 . S
C363 C362 1.327 . S
C363 C367 1.429 . S
C364 C347 1.574 . S
C364 H358 0.949 . S
C364 C368 1.368 . S
C365 C346 1.429 . S
C365 C359 1.429 . S
C365 C366 1.523 . S
C366 C347 1.368 . S
C366 C360 1.368 . S
C366 C365 1.523 . S
C367 C351 1.429 . S
C367 C363 1.429 . S
C367 C368 1.523 . S
C368 C352 1.368 . S
C368 C364 1.368 . S
C368 C367 1.523 . S
H369 C344 0.950 . S
H370 C346 0.950 . S
H371 C347 0.949 . S
H372 C349 0.950 . S
H373 C351 0.950 . S
C374 C375 1.349 . S
C374 C376 1.327 . S
C374 H399 0.950 . S
C375 C374 1.349 . S
C375 C391 1.349 . S
C376 C374 1.327 . S
C376 C395 1.429 . S
C376 H400 0.950 . S
C377 C394 1.574 . S
C377 C396 1.368 . S
C377 H401 0.949 . S
H378 C382 0.949 . S
C379 C380 1.349 . S
C379 C381 1.327 . S
C379 H402 0.950 . S
C380 C379 1.349 . S
C380 C392 1.349 . S
C381 C379 1.327 . S
C381 C397 1.429 . S
C381 H403 0.950 . S
C382 H378 0.949 . S
C382 C390 1.574 . S
C382 C398 1.368 . S
H383 C391 0.950 . S
H384 C389 0.950 . S
H385 C390 0.949 . S
H386 C392 0.950 . S
H387 C393 0.950 . S
H388 C394 0.949 . S
C389 H384 0.950 . S
C389 C391 1.327 . S
C389 C395 1.429 . S
C390 C382 1.574 . S
C390 H385 0.949 . S
C390 C396 1.368 . S
C391 C375 1.349 . S
C391 H383 0.950 . S
C391 C389 1.327 . S
C392 C380 1.349 . S
C392 H386 0.950 . S
C392 C393 1.327 . S
C393 H387 0.950 . S
C393 C392 1.327 . S
C393 C397 1.429 . S
C394 C377 1.574 . S
C394 H388 0.949 . S
C394 C398 1.368 . S
C395 C376 1.429 . S
C395 C389 1.429 . S
C395 C396 1.523 . S
C396 C377 1.368 . S
C396 C390 1.368 . S
C396 C395 1.523 . S
C397 C381 1.429 . S
C397 C393 1.429 . S
C397 C398 1.523 . S
C398 C382 1.368 . S
C398 C394 1.368 . S
C398 C397 1.523 . S
H399 C374 0.950 . S
H400 C376 0.950 . S
H401 C377 0.949 . S
H402 C379 0.950 . S
H403 C381 0.950 . S
C404 C405 1.349 . S
C404 C406 1.327 . S
C404 H429 0.950 . S
C405 C404 1.349 . S
C405 C421 1.349 . S
C406 C404 1.327 . S
C406 C425 1.429 . S
C406 H430 0.950 . S
C407 C424 1.574 . S
C407 C426 1.368 . S
C407 H431 0.949 . S
H408 C412 0.949 . S
C409 C410 1.349 . S
C409 C411 1.327 . S
C409 H432 0.950 . S
C410 C409 1.349 . S
C410 C422 1.349 . S
C411 C409 1.327 . S
C411 C427 1.429 . S
C411 H433 0.950 . S
C412 H408 0.949 . S
C412 C420 1.574 . S
C412 C428 1.368 . S
H413 C421 0.950 . S
H414 C419 0.950 . S
H415 C420 0.949 . S
H416 C422 0.950 . S
H417 C423 0.950 . S
H418 C424 0.949 . S
C419 H414 0.950 . S
C419 C421 1.327 . S
C419 C425 1.429 . S
C420 C412 1.574 . S
C420 H415 0.949 . S
C420 C426 1.368 . S
C421 C405 1.349 . S
C421 H413 0.950 . S
C421 C419 1.327 . S
C422 C410 1.349 . S
C422 H416 0.950 . S
C422 C423 1.327 . S
C423 H417 0.950 . S
C423 C422 1.327 . S
C423 C427 1.429 . S
C424 C407 1.574 . S
C424 H418 0.949 . S
C424 C428 1.368 . S
C425 C406 1.429 . S
C425 C419 1.429 . S
C425 C426 1.523 . S
C426 C407 1.368 . S
C426 C420 1.368 . S
C426 C425 1.523 . S
C427 C411 1.429 . S
C427 C423 1.429 . S
C427 C428 1.523 . S
C428 C412 1.368 . S
C428 C424 1.368 . S
C428 C427 1.523 . S
H429 C404 0.950 . S
H430 C406 0.950 . S
H431 C407 0.949 . S
H432 C409 0.950 . S
H433 C411 0.950 . S
C434 C435 1.349 . S
C434 C436 1.327 . S
C434 H459 0.950 . S
C435 C434 1.349 . S
C435 C451 1.349 1_565 S
C436 C434 1.327 . S
C436 C455 1.429 . S
C436 H460 0.950 . S
C437 C454 1.574 . S
C437 C456 1.402 . S
C437 H461 0.949 . S
H438 C442 0.949 . S
C439 C440 1.349 . S
C439 C441 1.327 . S
C439 H462 0.950 . S
C440 C439 1.349 . S
C440 C452 1.349 . S
C441 C439 1.327 . S
C441 C457 1.429 . S
C441 H463 0.950 1_655 S
C442 H438 0.949 . S
C442 C450 1.574 . S
C442 C458 1.368 1_565 S
H443 C451 0.950 . S
H444 C449 0.950 . S
H445 C450 0.949 . S
H446 C452 0.975 . S
H447 C453 0.950 1_565 S
H448 C454 0.949 . S
C449 H444 0.950 . S
C449 C451 1.327 . S
C449 C455 1.429 1_545 S
C450 C442 1.574 . S
C450 H445 0.949 . S
C450 C456 1.349 1_665 S
C451 C435 1.349 1_545 S
C451 H443 0.950 . S
C451 C449 1.327 . S
C452 C440 1.349 . S
C452 H446 0.975 . S
C452 C453 1.327 . S
C453 H447 0.950 1_545 S
C453 C452 1.327 . S
C453 C457 1.429 . S
C454 C437 1.574 . S
C454 H448 0.949 . S
C454 C458 1.368 1_455 S
C455 C436 1.429 . S
C455 C449 1.429 1_565 S
C455 C456 1.506 1_565 S
C456 C437 1.402 . S
C456 C450 1.349 1_445 S
C456 C455 1.506 1_545 S
C457 C441 1.429 . S
C457 C453 1.429 . S
C457 C458 1.523 . S
C458 C442 1.368 1_545 S
C458 C454 1.368 1_655 S
C458 C457 1.523 . S
H459 C434 0.950 . S
H460 C436 0.950 . S
H461 C437 0.949 . S
H462 C439 0.950 . S
H463 C441 0.950 1_455 S
C464 C465 1.349 . S
C464 C466 1.327 . S
C464 H489 0.950 . S
C465 C464 1.349 . S
C465 C481 1.349 . S
C466 C464 1.327 . S
C466 C485 1.429 . S
C466 H490 0.950 . S
C467 C484 1.574 . S
C467 C486 1.368 . S
C467 H491 0.949 . S
H468 C472 0.949 . S
C469 C470 1.349 . S
C469 C471 1.327 . S
C469 H492 0.950 . S
C470 C469 1.349 . S
C470 C482 1.349 . S
C471 C469 1.327 . S
C471 C487 1.429 . S
C471 H493 0.950 . S
C472 H468 0.949 . S
C472 C480 1.574 . S
C472 C488 1.368 . S
H473 C481 0.950 . S
H474 C479 0.950 . S
H475 C480 0.949 . S
H476 C482 0.950 . S
H477 C483 0.950 . S
H478 C484 0.949 . S
C479 H474 0.950 . S
C479 C481 1.327 . S
C479 C485 1.429 . S
C480 C472 1.574 . S
C480 H475 0.949 . S
C480 C486 1.368 . S
C481 C465 1.349 . S
C481 H473 0.950 . S
C481 C479 1.327 . S
C482 C470 1.349 . S
C482 H476 0.950 . S
C482 C483 1.327 . S
C483 H477 0.950 . S
C483 C482 1.327 . S
C483 C487 1.429 . S
C484 C467 1.574 . S
C484 H478 0.949 . S
C484 C488 1.368 . S
C485 C466 1.429 . S
C485 C479 1.429 . S
C485 C486 1.523 . S
C486 C467 1.368 . S
C486 C480 1.368 . S
C486 C485 1.523 . S
C487 C471 1.429 . S
C487 C483 1.429 . S
C487 C488 1.523 . S
C488 C472 1.368 . S
C488 C484 1.368 . S
C488 C487 1.523 . S
H489 C464 0.950 . S
H490 C466 0.950 . S
H491 C467 0.949 . S
H492 C469 0.950 . S
H493 C471 0.950 . S
C494 C495 1.349 . S
C494 C496 1.327 . S
C494 H519 0.950 . S
C495 C494 1.349 . S
C495 C511 1.349 . S
C496 C494 1.327 . S
C496 C515 1.429 . S
C496 H520 0.950 . S
C497 C514 1.574 . S
C497 C516 1.368 . S
C497 H521 0.949 . S
H498 C502 0.949 . S
C499 C500 1.349 . S
C499 C501 1.327 . S
C499 H522 0.950 . S
C500 C499 1.349 . S
C500 C512 1.349 . S
C501 C499 1.327 . S
C501 C517 1.429 . S
C501 H523 0.950 . S
C502 H498 0.949 . S
C502 C510 1.574 . S
C502 C518 1.368 . S
H503 C511 0.950 . S
H504 C509 0.950 . S
H505 C510 0.949 . S
H506 C512 0.950 . S
H507 C513 0.950 . S
H508 C514 0.949 . S
C509 H504 0.950 . S
C509 C511 1.327 . S
C509 C515 1.429 . S
C510 C502 1.574 . S
C510 H505 0.949 . S
C510 C516 1.368 . S
C511 C495 1.349 . S
C511 H503 0.950 . S
C511 C509 1.327 . S
C512 C500 1.349 . S
C512 H506 0.950 . S
C512 C513 1.327 . S
C513 H507 0.950 . S
C513 C512 1.327 . S
C513 C517 1.429 . S
C514 C497 1.574 . S
C514 H508 0.949 . S
C514 C518 1.368 . S
C515 C496 1.429 . S
C515 C509 1.429 . S
C515 C516 1.523 . S
C516 C497 1.368 . S
C516 C510 1.368 . S
C516 C515 1.523 . S
C517 C501 1.429 . S
C517 C513 1.429 . S
C517 C518 1.523 . S
C518 C502 1.368 . S
C518 C514 1.368 . S
C518 C517 1.523 . S
H519 C494 0.950 . S
H520 C496 0.950 . S
H521 C497 0.949 . S
H522 C499 0.950 . S
H523 C501 0.950 . S
C524 C525 1.349 . S
C524 C526 1.327 . S
C524 H549 0.950 . S
C525 C524 1.349 . S
C525 C541 1.349 . S
C526 C524 1.327 . S
C526 C545 1.429 . S
C526 H550 0.950 . S
C527 C544 1.574 . S
C527 C546 1.368 . S
C527 H551 0.949 . S
H528 C532 0.949 . S
C529 C530 1.349 . S
C529 C531 1.327 . S
C529 H552 0.950 . S
C530 C529 1.349 . S
C530 C542 1.349 . S
C531 C529 1.327 . S
C531 C547 1.429 . S
C531 H553 0.950 . S
C532 H528 0.949 . S
C532 C540 1.574 . S
C532 C548 1.368 . S
H533 C541 0.950 . S
H534 C539 0.950 . S
H535 C540 0.949 . S
H536 C542 0.950 . S
H537 C543 0.950 . S
H538 C544 0.949 . S
C539 H534 0.950 . S
C539 C541 1.327 . S
C539 C545 1.429 . S
C540 C532 1.574 . S
C540 H535 0.949 . S
C540 C546 1.368 . S
C541 C525 1.349 . S
C541 H533 0.950 . S
C541 C539 1.327 . S
C542 C530 1.349 . S
C542 H536 0.950 . S
C542 C543 1.327 . S
C543 H537 0.950 . S
C543 C542 1.327 . S
C543 C547 1.429 . S
C544 C527 1.574 . S
C544 H538 0.949 . S
C544 C548 1.368 . S
C545 C526 1.429 . S
C545 C539 1.429 . S
C545 C546 1.523 . S
C546 C527 1.368 . S
C546 C540 1.368 . S
C546 C545 1.523 . S
C547 C531 1.429 . S
C547 C543 1.429 . S
C547 C548 1.523 . S
C548 C532 1.368 . S
C548 C544 1.368 . S
C548 C547 1.523 . S
H549 C524 0.950 . S
H550 C526 0.950 . S
H551 C527 0.949 . S
H552 C529 0.950 . S
H553 C531 0.950 . S
C554 C555 1.349 . S
C554 C556 1.327 . S
C554 H579 0.950 . S
C555 C554 1.349 . S
C555 C571 1.349 . S
C556 C554 1.327 . S
C556 C575 1.429 . S
C556 H580 0.950 . S
C557 C574 1.574 . S
C557 C576 1.368 1_545 S
C557 H581 0.949 . S
H558 C562 0.949 . S
C559 C560 1.349 1_545 S
C559 C561 1.327 . S
C559 H582 0.950 . S
C560 C559 1.349 1_565 S
C560 C572 1.349 . S
C561 C559 1.327 . S
C561 C577 1.429 1_545 S
C561 H583 0.950 . S
C562 H558 0.949 . S
C562 C570 1.574 . S
C562 C578 1.368 . S
H563 C571 0.950 1_545 S
H564 C569 0.948 1_545 S
H565 C570 0.949 . S
H566 C572 0.950 . S
H567 C573 0.950 . S
H568 C574 0.949 . S
C569 H564 0.948 1_565 S
C569 C571 1.327 . S
C569 C575 1.431 . S
C570 C562 1.574 . S
C570 H565 0.949 . S
C570 C576 1.368 . S
C571 C555 1.349 . S
C571 H563 0.950 1_565 S
C571 C569 1.327 . S
C572 C560 1.349 . S
C572 H566 0.950 . S
C572 C573 1.327 . S
C573 H567 0.950 . S
C573 C572 1.327 . S
C573 C577 1.429 . S
C574 C557 1.574 . S
C574 H568 0.949 . S
C574 C578 1.368 1_545 S
C575 C556 1.429 . S
C575 C569 1.431 . S
C575 C576 1.523 . S
C576 C557 1.368 1_565 S
C576 C570 1.368 . S
C576 C575 1.523 . S
C577 C561 1.429 1_565 S
C577 C573 1.429 . S
C577 C578 1.523 . S
C578 C562 1.368 . S
C578 C574 1.368 1_565 S
C578 C577 1.523 . S
H579 C554 0.950 . S
H580 C556 0.950 . S
H581 C557 0.949 . S
H582 C559 0.950 . S
H583 C561 0.950 . S
C584 C585 1.349 . S
C584 C586 1.327 . S
C584 H609 0.950 . S
C585 C584 1.349 . S
C585 C601 1.349 . S
C586 C584 1.327 . S
C586 C605 1.429 . S
C586 H610 0.950 . S
C587 C604 1.574 . S
C587 C606 1.368 . S
C587 H611 0.949 . S
H588 C592 0.949 . S
C589 C590 1.349 . S
C589 C591 1.327 . S
C589 H612 0.950 . S
C590 C589 1.349 . S
C590 C602 1.349 . S
C591 C589 1.327 . S
C591 C607 1.429 . S
C591 H613 0.950 . S
C592 H588 0.949 . S
C592 C600 1.574 . S
C592 C608 1.368 . S
H593 C601 0.950 . S
H594 C599 0.950 . S
H595 C600 0.949 . S
H596 C602 0.950 . S
H597 C603 0.950 . S
H598 C604 0.949 . S
C599 H594 0.950 . S
C599 C601 1.327 . S
C599 C605 1.429 . S
C600 C592 1.574 . S
C600 H595 0.949 . S
C600 C606 1.368 . S
C601 C585 1.349 . S
C601 H593 0.950 . S
C601 C599 1.327 . S
C602 C590 1.349 . S
C602 H596 0.950 . S
C602 C603 1.327 . S
C603 H597 0.950 . S
C603 C602 1.327 . S
C603 C607 1.429 . S
C604 C587 1.574 . S
C604 H598 0.949 . S
C604 C608 1.368 . S
C605 C586 1.429 . S
C605 C599 1.429 . S
C605 C606 1.523 . S
C606 C587 1.368 . S
C606 C600 1.368 . S
C606 C605 1.523 . S
C607 C591 1.429 . S
C607 C603 1.429 . S
C607 C608 1.523 . S
C608 C592 1.368 . S
C608 C604 1.368 . S
C608 C607 1.523 . S
H609 C584 0.950 . S
H610 C586 0.950 . S
H611 C587 0.949 . S
H612 C589 0.950 . S
H613 C591 0.950 . S
C614 C615 1.349 . S
C614 C616 1.327 . S
C614 H639 0.950 . S
C615 C614 1.349 . S
C615 C631 1.349 . S
C616 C614 1.327 . S
C616 C635 1.429 . S
C616 H640 0.950 . S
C617 C634 1.574 . S
C617 C636 1.368 . S
C617 H641 0.949 . S
H618 C622 0.949 . S
C619 C620 1.349 . S
C619 C621 1.327 . S
C619 H642 0.950 . S
C620 C619 1.349 . S
C620 C632 1.349 . S
C621 C619 1.327 . S
C621 C637 1.429 . S
C621 H643 0.950 . S
C622 H618 0.949 . S
C622 C630 1.574 . S
C622 C638 1.368 . S
H623 C631 0.950 . S
H624 C629 0.950 . S
H625 C630 0.949 . S
H626 C632 0.950 . S
H627 C633 0.950 . S
H628 C634 0.949 . S
C629 H624 0.950 . S
C629 C631 1.327 . S
C629 C635 1.429 . S
C630 C622 1.574 . S
C630 H625 0.949 . S
C630 C636 1.368 . S
C631 C615 1.349 . S
C631 H623 0.950 . S
C631 C629 1.327 . S
C632 C620 1.349 . S
C632 H626 0.950 . S
C632 C633 1.327 . S
C633 H627 0.950 . S
C633 C632 1.327 . S
C633 C637 1.429 . S
C634 C617 1.574 . S
C634 H628 0.949 . S
C634 C638 1.368 . S
C635 C616 1.429 . S
C635 C629 1.429 . S
C635 C636 1.523 . S
C636 C617 1.368 . S
C636 C630 1.368 . S
C636 C635 1.523 . S
C637 C621 1.429 . S
C637 C633 1.429 . S
C637 C638 1.523 . S
C638 C622 1.368 . S
C638 C634 1.368 . S
C638 C637 1.523 . S
H639 C614 0.950 . S
H640 C616 0.950 . S
H641 C617 0.949 . S
H642 C619 0.950 . S
H643 C621 0.950 . S
C644 C645 1.349 . S
C644 C646 1.327 . S
C644 H669 0.950 . S
C645 C644 1.349 . S
C645 C661 1.349 . S
C646 C644 1.327 . S
C646 C665 1.429 . S
C646 H670 0.950 . S
C647 C664 1.574 . S
C647 C666 1.368 . S
C647 H671 0.949 . S
H648 C652 0.949 . S
C649 C650 1.349 . S
C649 C651 1.327 . S
C649 H672 0.950 . S
C650 C649 1.349 . S
C650 C662 1.349 . S
C651 C649 1.327 . S
C651 C667 1.429 . S
C651 H673 0.950 . S
C652 H648 0.949 . S
C652 C660 1.574 . S
C652 C668 1.368 . S
H653 C661 0.950 . S
H654 C659 0.950 . S
H655 C660 0.949 . S
H656 C662 0.950 . S
H657 C663 0.950 . S
H658 C664 0.949 . S
C659 H654 0.950 . S
C659 C661 1.327 . S
C659 C665 1.429 . S
C660 C652 1.574 . S
C660 H655 0.949 . S
C660 C666 1.368 . S
C661 C645 1.349 . S
C661 H653 0.950 . S
C661 C659 1.327 . S
C662 C650 1.349 . S
C662 H656 0.950 . S
C662 C663 1.327 . S
C663 H657 0.950 . S
C663 C662 1.327 . S
C663 C667 1.429 . S
C664 C647 1.574 . S
C664 H658 0.949 . S
C664 C668 1.368 . S
C665 C646 1.429 . S
C665 C659 1.429 . S
C665 C666 1.523 . S
C666 C647 1.368 . S
C666 C660 1.368 . S
C666 C665 1.523 . S
C667 C651 1.429 . S
C667 C663 1.429 . S
C667 C668 1.523 . S
C668 C652 1.368 . S
C668 C664 1.368 . S
C668 C667 1.523 . S
H669 C644 0.950 . S
H670 C646 0.950 . S
H671 C647 0.949 . S
H672 C649 0.950 . S
H673 C651 0.950 . S
C674 C675 1.349 . S
C674 C676 1.327 . S
C674 H699 0.950 . S
C675 C674 1.349 . S
C675 C691 1.349 . S
C676 C674 1.327 . S
C676 C695 1.429 . S
C676 H700 0.950 . S
C677 C694 1.574 . S
C677 C696 1.368 . S
C677 H701 0.949 . S
H678 C682 0.949 . S
C679 C680 1.349 . S
C679 C681 1.327 . S
C679 H702 0.950 . S
C680 C679 1.349 . S
C680 C692 1.349 . S
C681 C679 1.327 . S
C681 C697 1.429 . S
C681 H703 0.950 . S
C682 H678 0.949 . S
C682 C690 1.574 . S
C682 C698 1.368 . S
H683 C691 0.950 . S
H684 C689 0.950 . S
H685 C690 0.949 . S
H686 C692 0.950 . S
H687 C693 0.950 . S
H688 C694 0.949 . S
C689 H684 0.950 . S
C689 C691 1.327 . S
C689 C695 1.429 . S
C690 C682 1.574 . S
C690 H685 0.949 . S
C690 C696 1.368 . S
C691 C675 1.349 . S
C691 H683 0.950 . S
C691 C689 1.327 . S
C692 C680 1.349 . S
C692 H686 0.950 . S
C692 C693 1.327 . S
C693 H687 0.950 . S
C693 C692 1.327 . S
C693 C697 1.429 . S
C694 C677 1.574 . S
C694 H688 0.949 . S
C694 C698 1.368 . S
C695 C676 1.429 . S
C695 C689 1.429 . S
C695 C696 1.523 . S
C696 C677 1.368 . S
C696 C690 1.368 . S
C696 C695 1.523 . S
C697 C681 1.429 . S
C697 C693 1.429 . S
C697 C698 1.523 . S
C698 C682 1.368 . S
C698 C694 1.368 . S
C698 C697 1.523 . S
H699 C674 0.950 . S
H700 C676 0.950 . S
H701 C677 0.949 . S
H702 C679 0.950 . S
H703 C681 0.950 . S
C704 C705 1.349 . S
C704 C706 1.327 . S
C704 H729 0.950 . S
C705 C704 1.349 . S
C705 C721 1.349 . S
C706 C704 1.327 . S
C706 C725 1.429 . S
C706 H730 0.950 . S
C707 C724 1.574 . S
C707 C726 1.368 . S
C707 H731 0.949 . S
H708 C712 0.949 . S
C709 C710 1.349 . S
C709 C711 1.327 . S
C709 H732 0.950 . S
C710 C709 1.349 . S
C710 C722 1.349 . S
C711 C709 1.327 . S
C711 C727 1.429 . S
C711 H733 0.950 . S
C712 H708 0.949 . S
C712 C720 1.574 . S
C712 C728 1.368 . S
H713 C721 0.950 . S
H714 C719 0.950 . S
H715 C720 0.949 . S
H716 C722 0.950 . S
H717 C723 0.950 . S
H718 C724 0.949 . S
C719 H714 0.950 . S
C719 C721 1.327 . S
C719 C725 1.429 . S
C720 C712 1.574 . S
C720 H715 0.949 . S
C720 C726 1.368 . S
C721 C705 1.349 . S
C721 H713 0.950 . S
C721 C719 1.327 . S
C722 C710 1.349 . S
C722 H716 0.950 . S
C722 C723 1.327 . S
C723 H717 0.950 . S
C723 C722 1.327 . S
C723 C727 1.429 . S
C724 C707 1.574 . S
C724 H718 0.949 . S
C724 C728 1.368 . S
C725 C706 1.429 . S
C725 C719 1.429 . S
C725 C726 1.523 . S
C726 C707 1.368 . S
C726 C720 1.368 . S
C726 C725 1.523 . S
C727 C711 1.429 . S
C727 C723 1.429 . S
C727 C728 1.523 . S
C728 C712 1.368 . S
C728 C724 1.368 . S
C728 C727 1.523 . S
H729 C704 0.950 . S
H730 C706 0.950 . S
H731 C707 0.949 . S
H732 C709 0.950 . S
H733 C711 0.950 . S
C734 C735 1.349 . S
C734 C736 1.327 . S
C734 H759 0.950 . S
C735 C734 1.349 . S
C735 C751 1.349 . S
C736 C734 1.327 . S
C736 C755 1.429 . S
C736 H760 0.950 . S
C737 C754 1.574 . S
C737 C756 1.368 . S
C737 H761 0.949 . S
H738 C742 0.949 . S
C739 C740 1.349 . S
C739 C741 1.327 . S
C739 H762 0.950 . S
C740 C739 1.349 . S
C740 C752 1.349 . S
C741 C739 1.327 . S
C741 C757 1.429 . S
C741 H763 0.950 . S
C742 H738 0.949 . S
C742 C750 1.574 . S
C742 C758 1.368 . S
H743 C751 0.950 . S
H744 C749 0.950 . S
H745 C750 0.949 . S
H746 C752 0.950 . S
H747 C753 0.950 . S
H748 C754 0.949 . S
C749 H744 0.950 . S
C749 C751 1.327 . S
C749 C755 1.429 . S
C750 C742 1.574 . S
C750 H745 0.949 . S
C750 C756 1.368 . S
C751 C735 1.349 . S
C751 H743 0.950 . S
C751 C749 1.327 . S
C752 C740 1.349 . S
C752 H746 0.950 . S
C752 C753 1.327 . S
C753 H747 0.950 . S
C753 C752 1.327 . S
C753 C757 1.429 . S
C754 C737 1.574 . S
C754 H748 0.949 . S
C754 C758 1.368 . S
C755 C736 1.429 . S
C755 C749 1.429 . S
C755 C756 1.523 . S
C756 C737 1.368 . S
C756 C750 1.368 . S
C756 C755 1.523 . S
C757 C741 1.429 . S
C757 C753 1.429 . S
C757 C758 1.523 . S
C758 C742 1.368 . S
C758 C754 1.368 . S
C758 C757 1.523 . S
H759 C734 0.950 . S
H760 C736 0.950 . S
H761 C737 0.949 . S
H762 C739 0.950 . S
H763 C741 0.950 . S
C764 C765 1.349 . S
C764 C766 1.327 . S
C764 H789 0.950 . S
C765 C764 1.349 . S
C765 C781 1.349 . S
C766 C764 1.327 . S
C766 C785 1.429 . S
C766 H790 0.950 . S
C767 C784 1.574 . S
C767 C786 1.368 . S
C767 H791 0.949 . S
H768 C772 0.949 . S
C769 C770 1.349 . S
C769 C771 1.327 . S
C769 H792 0.950 . S
C770 C769 1.349 . S
C770 C782 1.349 . S
C771 C769 1.327 . S
C771 C787 1.429 . S
C771 H793 0.950 . S
C772 H768 0.949 . S
C772 C780 1.574 . S
C772 C788 1.368 . S
H773 C781 0.950 . S
H774 C779 0.950 . S
H775 C780 0.949 . S
H776 C782 0.950 . S
H777 C783 0.950 . S
H778 C784 0.949 . S
C779 H774 0.950 . S
C779 C781 1.327 . S
C779 C785 1.429 . S
C780 C772 1.574 . S
C780 H775 0.949 . S
C780 C786 1.368 . S
C781 C765 1.349 . S
C781 H773 0.950 . S
C781 C779 1.327 . S
C782 C770 1.349 . S
C782 H776 0.950 . S
C782 C783 1.327 . S
C783 H777 0.950 . S
C783 C782 1.327 . S
C783 C787 1.429 . S
C784 C767 1.574 . S
C784 H778 0.949 . S
C784 C788 1.368 . S
C785 C766 1.429 . S
C785 C779 1.429 . S
C785 C786 1.523 . S
C786 C767 1.368 . S
C786 C780 1.368 . S
C786 C785 1.523 . S
C787 C771 1.429 . S
C787 C783 1.429 . S
C787 C788 1.523 . S
C788 C772 1.368 . S
C788 C784 1.368 . S
C788 C787 1.523 . S
H789 C764 0.950 . S
H790 C766 0.950 . S
H791 C767 0.949 . S
H792 C769 0.950 . S
H793 C771 0.950 . S
C794 C795 1.349 . S
C794 C796 1.327 . S
C794 H819 0.950 . S
C795 C794 1.349 . S
C795 C811 1.349 . S
C796 C794 1.327 . S
C796 C815 1.429 . S
C796 H820 0.950 . S
C797 C814 1.574 . S
C797 C816 1.368 . S
C797 H821 0.949 . S
H798 C802 0.949 . S
C799 C800 1.349 . S
C799 C801 1.327 . S
C799 H822 0.952 . S
C800 C799 1.349 . S
C800 C812 1.349 . S
C801 C799 1.327 . S
C801 C817 1.429 . S
C801 H823 0.950 . S
C802 H798 0.949 . S
C802 C810 1.574 . S
C802 C818 1.368 . S
H803 C811 0.950 . S
H804 C809 0.950 . S
H805 C810 0.949 . S
H806 C812 0.950 . S
H807 C813 0.950 . S
H808 C814 0.949 . S
C809 H804 0.950 . S
C809 C811 1.327 . S
C809 C815 1.429 . S
C810 C802 1.574 . S
C810 H805 0.949 . S
C810 C816 1.368 . S
C811 C795 1.349 . S
C811 H803 0.950 . S
C811 C809 1.327 . S
C812 C800 1.349 . S
C812 H806 0.950 . S
C812 C813 1.327 . S
C813 H807 0.950 . S
C813 C812 1.327 . S
C813 C817 1.429 . S
C814 C797 1.574 . S
C814 H808 0.949 . S
C814 C818 1.368 . S
C815 C796 1.429 . S
C815 C809 1.429 . S
C815 C816 1.523 . S
C816 C797 1.368 . S
C816 C810 1.368 . S
C816 C815 1.523 . S
C817 C801 1.429 . S
C817 C813 1.429 . S
C817 C818 1.523 . S
C818 C802 1.368 . S
C818 C814 1.368 . S
C818 C817 1.523 . S
H819 C794 0.950 . S
H820 C796 0.950 . S
H821 C797 0.949 . S
H822 C799 0.952 . S
H823 C801 0.950 . S
C824 C825 1.349 . S
C824 C826 1.327 . S
C824 H849 0.950 . S
C825 C824 1.349 . S
C825 C841 1.349 . S
C826 C824 1.327 . S
C826 C845 1.429 . S
C826 H850 0.950 . S
C827 C844 1.574 . S
C827 C846 1.368 . S
C827 H851 0.949 . S
H828 C832 0.949 . S
C829 C830 1.349 . S
C829 C831 1.327 . S
C829 H852 0.950 . S
C830 C829 1.349 . S
C830 C842 1.349 . S
C831 C829 1.327 . S
C831 C847 1.429 . S
C831 H853 0.950 . S
C832 H828 0.949 . S
C832 C840 1.574 . S
C832 C848 1.368 . S
H833 C841 0.950 . S
H834 C839 0.950 . S
H835 C840 0.949 . S
H836 C842 0.950 . S
H837 C843 0.950 . S
H838 C844 0.949 . S
C839 H834 0.950 . S
C839 C841 1.327 . S
C839 C845 1.429 . S
C840 C832 1.574 . S
C840 H835 0.949 . S
C840 C846 1.368 . S
C841 C825 1.349 . S
C841 H833 0.950 . S
C841 C839 1.327 . S
C842 C830 1.349 . S
C842 H836 0.950 . S
C842 C843 1.327 . S
C843 H837 0.950 . S
C843 C842 1.327 . S
C843 C847 1.429 . S
C844 C827 1.574 . S
C844 H838 0.949 . S
C844 C848 1.368 . S
C845 C826 1.429 . S
C845 C839 1.429 . S
C845 C846 1.523 . S
C846 C827 1.368 . S
C846 C840 1.368 . S
C846 C845 1.523 . S
C847 C831 1.429 . S
C847 C843 1.429 . S
C847 C848 1.523 . S
C848 C832 1.368 . S
C848 C844 1.368 . S
C848 C847 1.523 . S
H849 C824 0.950 . S
H850 C826 0.950 . S
H851 C827 0.949 . S
H852 C829 0.950 . S
H853 C831 0.950 . S
C854 C855 1.349 . S
C854 C856 1.327 . S
C854 H879 0.950 . S
C855 C854 1.349 . S
C855 C871 1.349 . S
C856 C854 1.327 . S
C856 C875 1.429 . S
C856 H880 0.950 . S
C857 C874 1.574 . S
C857 C876 1.368 . S
C857 H881 0.949 . S
H858 C862 0.949 . S
C859 C860 1.349 . S
C859 C861 1.327 . S
C859 H882 0.950 . S
C860 C859 1.349 . S
C860 C872 1.349 . S
C861 C859 1.327 . S
C861 C877 1.429 . S
C861 H883 0.950 . S
C862 H858 0.949 . S
C862 C870 1.574 . S
C862 C878 1.368 . S
H863 C871 0.950 . S
H864 C869 0.950 . S
H865 C870 0.949 . S
H866 C872 0.950 . S
H867 C873 0.950 . S
H868 C874 0.949 . S
C869 H864 0.950 . S
C869 C871 1.327 . S
C869 C875 1.429 . S
C870 C862 1.574 . S
C870 H865 0.949 . S
C870 C876 1.368 . S
C871 C855 1.349 . S
C871 H863 0.950 . S
C871 C869 1.327 . S
C872 C860 1.349 . S
C872 H866 0.950 . S
C872 C873 1.327 . S
C873 H867 0.950 . S
C873 C872 1.327 . S
C873 C877 1.429 . S
C874 C857 1.574 . S
C874 H868 0.949 . S
C874 C878 1.368 . S
C875 C856 1.429 . S
C875 C869 1.429 . S
C875 C876 1.523 . S
C876 C857 1.368 . S
C876 C870 1.368 . S
C876 C875 1.523 . S
C877 C861 1.429 . S
C877 C873 1.429 . S
C877 C878 1.523 . S
C878 C862 1.368 . S
C878 C874 1.368 . S
C878 C877 1.523 . S
H879 C854 0.950 . S
H880 C856 0.950 . S
H881 C857 0.949 . S
H882 C859 0.950 . S
H883 C861 0.950 . S
C884 C885 1.349 . S
C884 C886 1.327 . S
C884 H909 0.950 . S
C885 C884 1.349 . S
C885 C901 1.349 1_545 S
C886 C884 1.327 . S
C886 C905 1.429 1_545 S
C886 H910 0.950 . S
C887 C904 1.574 . S
C887 C906 1.368 1_554 S
C887 H911 0.949 . S
H888 C892 0.949 . S
C889 C890 1.349 . S
C889 C891 1.327 . S
C889 H912 0.950 . S
C890 C889 1.349 . S
C890 C902 1.349 . S
C891 C889 1.327 . S
C891 C907 1.429 . S
C891 H913 0.950 . S
C892 H888 0.949 . S
C892 C900 1.574 1_554 S
C892 C908 1.368 . S
H893 C901 0.950 . S
H894 C899 0.950 . S
H895 C900 0.949 . S
H896 C902 0.950 . S
H897 C903 0.950 . S
H898 C904 0.949 . S
C899 H894 0.950 . S
C899 C901 1.327 . S
C899 C905 1.429 . S
C900 C892 1.574 1_556 S
C900 H895 0.949 . S
C900 C906 1.368 . S
C901 C885 1.349 1_565 S
C901 H893 0.950 . S
C901 C899 1.327 . S
C902 C890 1.349 . S
C902 H896 0.950 . S
C902 C903 1.327 . S
C903 H897 0.950 . S
C903 C902 1.327 . S
C903 C907 1.429 . S
C904 C887 1.574 . S
C904 H898 0.949 . S
C904 C908 1.368 . S
C905 C886 1.429 1_565 S
C905 C899 1.429 . S
C905 C906 1.523 . S
C906 C887 1.368 1_556 S
C906 C900 1.368 . S
C906 C905 1.523 . S
C907 C891 1.429 . S
C907 C903 1.429 . S
C907 C908 1.523 . S
C908 C892 1.368 . S
C908 C904 1.368 . S
C908 C907 1.523 . S
H909 C884 0.950 . S
H910 C886 0.950 . S
H911 C887 0.949 . S
H912 C889 0.950 . S
H913 C891 0.950 . S
C914 C915 1.349 . S
C914 C916 1.327 . S
C914 H939 0.950 . S
C915 C914 1.349 . S
C915 C931 1.349 . S
C916 C914 1.327 . S
C916 C935 1.429 . S
C916 H940 0.950 . S
C917 C934 1.574 . S
C917 C936 1.368 . S
C917 H941 0.949 . S
H918 C922 0.949 . S
C919 C920 1.349 . S
C919 C921 1.327 . S
C919 H942 0.950 . S
C920 C919 1.349 . S
C920 C932 1.349 . S
C921 C919 1.327 . S
C921 C937 1.429 . S
C921 H943 0.950 . S
C922 H918 0.949 . S
C922 C930 1.574 . S
C922 C938 1.368 . S
H923 C931 0.950 . S
H924 C929 0.950 . S
H925 C930 0.949 . S
H926 C932 0.950 . S
H927 C933 0.950 . S
H928 C934 0.949 . S
C929 H924 0.950 . S
C929 C931 1.327 . S
C929 C935 1.429 . S
C930 C922 1.574 . S
C930 H925 0.949 . S
C930 C936 1.368 . S
C931 C915 1.349 . S
C931 H923 0.950 . S
C931 C929 1.327 . S
C932 C920 1.349 . S
C932 H926 0.950 . S
C932 C933 1.327 . S
C933 H927 0.950 . S
C933 C932 1.327 . S
C933 C937 1.429 . S
C934 C917 1.574 . S
C934 H928 0.949 . S
C934 C938 1.368 . S
C935 C916 1.429 . S
C935 C929 1.429 . S
C935 C936 1.523 . S
C936 C917 1.368 . S
C936 C930 1.368 . S
C936 C935 1.523 . S
C937 C921 1.429 . S
C937 C933 1.429 . S
C937 C938 1.523 . S
C938 C922 1.368 . S
C938 C934 1.368 . S
C938 C937 1.523 . S
H939 C914 0.950 . S
H940 C916 0.950 . S
H941 C917 0.949 . S
H942 C919 0.950 . S
H943 C921 0.950 . S
C944 C945 1.349 . S
C944 C946 1.327 . S
C944 H969 0.950 1_545 S
C945 C944 1.349 . S
C945 C961 1.349 . S
C946 C944 1.327 . S
C946 C965 1.429 . S
C946 H970 0.950 . S
C947 C964 1.574 . S
C947 C966 1.368 . S
C947 H971 0.949 . S
H948 C952 0.949 . S
C949 C950 1.349 . S
C949 C951 1.327 . S
C949 H972 0.950 . S
C950 C949 1.349 . S
C950 C962 1.349 . S
C951 C949 1.327 . S
C951 C967 1.429 . S
C951 H973 0.950 . S
C952 H948 0.949 . S
C952 C960 1.574 . S
C952 C968 1.368 . S
H953 C961 0.950 . S
H954 C959 0.950 . S
H955 C960 0.949 . S
H956 C962 0.950 . S
H957 C963 0.950 . S
H958 C964 0.949 . S
C959 H954 0.950 . S
C959 C961 1.327 . S
C959 C965 1.429 . S
C960 C952 1.574 . S
C960 H955 0.949 . S
C960 C966 1.368 . S
C961 C945 1.349 . S
C961 H953 0.950 . S
C961 C959 1.327 . S
C962 C950 1.349 . S
C962 H956 0.950 . S
C962 C963 1.327 . S
C963 H957 0.950 . S
C963 C962 1.327 . S
C963 C967 1.429 . S
C964 C947 1.574 . S
C964 H958 0.949 . S
C964 C968 1.368 . S
C965 C946 1.429 . S
C965 C959 1.429 . S
C965 C966 1.523 . S
C966 C947 1.368 . S
C966 C960 1.368 . S
C966 C965 1.523 . S
C967 C951 1.429 . S
C967 C963 1.429 . S
C967 C968 1.523 . S
C968 C952 1.368 . S
C968 C964 1.368 . S
C968 C967 1.523 . S
H969 C944 0.950 1_565 S
H970 C946 0.950 . S
H971 C947 0.949 . S
H972 C949 0.950 . S
H973 C951 0.950 . S
C974 C975 1.349 . S
C974 C976 1.327 . S
C974 H999 0.950 . S
C975 C974 1.349 . S
C975 C991 1.349 . S
C976 C974 1.327 . S
C976 C995 1.429 . S
C976 H1000 0.950 . S
C977 C994 1.574 . S
C977 C996 1.368 . S
C977 H1001 0.949 . S
H978 C982 0.949 . S
C979 C980 1.349 . S
C979 C981 1.327 . S
C979 H1002 0.950 . S
C980 C979 1.349 . S
C980 C992 1.349 . S
C981 C979 1.327 . S
C981 C997 1.429 . S
C981 H1003 0.950 . S
C982 H978 0.949 . S
C982 C990 1.574 . S
C982 C998 1.368 . S
H983 C991 0.950 . S
H984 C989 0.950 . S
H985 C990 0.949 . S
H986 C992 0.950 . S
H987 C993 0.950 . S
H988 C994 0.949 . S
C989 H984 0.950 . S
C989 C991 1.327 . S
C989 C995 1.429 . S
C990 C982 1.574 . S
C990 H985 0.949 . S
C990 C996 1.368 . S
C991 C975 1.349 . S
C991 H983 0.950 . S
C991 C989 1.327 . S
C992 C980 1.349 . S
C992 H986 0.950 . S
C992 C993 1.327 . S
C993 H987 0.950 . S
C993 C992 1.327 . S
C993 C997 1.429 . S
C994 C977 1.574 . S
C994 H988 0.949 . S
C994 C998 1.368 . S
C995 C976 1.429 . S
C995 C989 1.429 . S
C995 C996 1.523 . S
C996 C977 1.368 . S
C996 C990 1.368 . S
C996 C995 1.523 . S
C997 C981 1.429 . S
C997 C993 1.429 . S
C997 C998 1.523 . S
C998 C982 1.368 . S
C998 C994 1.368 . S
C998 C997 1.523 . S
H999 C974 0.950 . S
H1000 C976 0.950 . S
H1001 C977 0.949 . S
H1002 C979 0.950 . S
H1003 C981 0.950 . S
C1004 C1005 1.349 . S
C1004 C1006 1.327 . S
C1004 H1029 0.950 . S
C1005 C1004 1.349 . S
C1005 C1021 1.349 . S
C1006 C1004 1.327 . S
C1006 C1025 1.429 . S
C1006 H1030 0.950 . S
C1007 C1024 1.574 . S
C1007 C1026 1.368 . S
C1007 H1031 0.949 . S
H1008 C1012 0.949 . S
C1009 C1010 1.349 . S
C1009 C1011 1.327 . S
C1009 H1032 0.950 . S
C1010 C1009 1.349 . S
C1010 C1022 1.349 . S
C1011 C1009 1.327 . S
C1011 C1027 1.429 . S
C1011 H1033 0.950 . S
C1012 H1008 0.949 . S
C1012 C1020 1.574 . S
C1012 C1028 1.368 . S
H1013 C1021 0.950 . S
H1014 C1019 0.950 . S
H1015 C1020 0.949 . S
H1016 C1022 0.950 . S
H1017 C1023 0.950 . S
H1018 C1024 0.949 . S
C1019 H1014 0.950 . S
C1019 C1021 1.327 . S
C1019 C1025 1.429 . S
C1020 C1012 1.574 . S
C1020 H1015 0.949 . S
C1020 C1026 1.368 . S
C1021 C1005 1.349 . S
C1021 H1013 0.950 . S
C1021 C1019 1.327 . S
C1022 C1010 1.349 . S
C1022 H1016 0.950 . S
C1022 C1023 1.327 . S
C1023 H1017 0.950 . S
C1023 C1022 1.327 . S
C1023 C1027 1.429 . S
C1024 C1007 1.574 . S
C1024 H1018 0.949 . S
C1024 C1028 1.368 . S
C1025 C1006 1.429 . S
C1025 C1019 1.429 . S
C1025 C1026 1.523 . S
C1026 C1007 1.368 . S
C1026 C1020 1.368 . S
C1026 C1025 1.523 . S
C1027 C1011 1.429 . S
C1027 C1023 1.429 . S
C1027 C1028 1.523 . S
C1028 C1012 1.368 . S
C1028 C1024 1.368 . S
C1028 C1027 1.523 . S
H1029 C1004 0.950 . S
H1030 C1006 0.950 . S
H1031 C1007 0.949 . S
H1032 C1009 0.950 . S
H1033 C1011 0.950 . S
C1034 C1035 1.349 . S
C1034 C1036 1.327 . S
C1034 H1059 0.950 . S
C1035 C1034 1.349 . S
C1035 C1051 1.349 . S
C1036 C1034 1.327 . S
C1036 C1055 1.429 . S
C1036 H1060 0.950 . S
C1037 C1054 1.574 . S
C1037 C1056 1.368 . S
C1037 H1061 0.949 . S
H1038 C1042 0.949 . S
C1039 C1040 1.349 . S
C1039 C1041 1.327 . S
C1039 H1062 0.950 . S
C1040 C1039 1.349 . S
C1040 C1052 1.349 . S
C1041 C1039 1.327 . S
C1041 C1057 1.429 . S
C1041 H1063 0.950 . S
C1042 H1038 0.949 . S
C1042 C1050 1.574 . S
C1042 C1058 1.368 . S
H1043 C1051 0.950 . S
H1044 C1049 0.950 . S
H1045 C1050 0.949 . S
H1046 C1052 0.950 . S
H1047 C1053 0.950 . S
H1048 C1054 0.949 . S
C1049 H1044 0.950 . S
C1049 C1051 1.327 . S
C1049 C1055 1.429 . S
C1050 C1042 1.574 . S
C1050 H1045 0.949 . S
C1050 C1056 1.368 . S
C1051 C1035 1.349 . S
C1051 H1043 0.950 . S
C1051 C1049 1.327 . S
C1052 C1040 1.349 . S
C1052 H1046 0.950 . S
C1052 C1053 1.327 . S
C1053 H1047 0.950 . S
C1053 C1052 1.327 . S
C1053 C1057 1.429 . S
C1054 C1037 1.574 . S
C1054 H1048 0.949 . S
C1054 C1058 1.368 . S
C1055 C1036 1.429 . S
C1055 C1049 1.429 . S
C1055 C1056 1.523 . S
C1056 C1037 1.368 . S
C1056 C1050 1.368 . S
C1056 C1055 1.523 . S
C1057 C1041 1.429 . S
C1057 C1053 1.429 . S
C1057 C1058 1.523 . S
C1058 C1042 1.368 . S
C1058 C1054 1.368 . S
C1058 C1057 1.523 . S
H1059 C1034 0.950 . S
H1060 C1036 0.950 . S
H1061 C1037 0.949 . S
H1062 C1039 0.950 . S
H1063 C1041 0.950 . S
C1064 C1065 1.349 . S
C1064 C1066 1.327 . S
C1064 H1089 0.950 . S
C1065 C1064 1.349 . S
C1065 C1081 1.349 . S
C1066 C1064 1.327 . S
C1066 C1085 1.429 . S
C1066 H1090 0.950 . S
C1067 C1084 1.574 . S
C1067 C1086 1.368 . S
C1067 H1091 0.949 . S
H1068 C1072 0.949 . S
C1069 C1070 1.349 . S
C1069 C1071 1.327 . S
C1069 H1092 0.950 . S
C1070 C1069 1.349 . S
C1070 C1082 1.349 . S
C1071 C1069 1.327 . S
C1071 C1087 1.429 . S
C1071 H1093 0.950 . S
C1072 H1068 0.949 . S
C1072 C1080 1.574 . S
C1072 C1088 1.368 . S
H1073 C1081 0.950 . S
H1074 C1079 0.950 . S
H1075 C1080 0.949 . S
H1076 C1082 0.950 . S
H1077 C1083 0.950 . S
H1078 C1084 0.949 . S
C1079 H1074 0.950 . S
C1079 C1081 1.327 . S
C1079 C1085 1.429 . S
C1080 C1072 1.574 . S
C1080 H1075 0.949 . S
C1080 C1086 1.368 . S
C1081 C1065 1.349 . S
C1081 H1073 0.950 . S
C1081 C1079 1.327 . S
C1082 C1070 1.349 . S
C1082 H1076 0.950 . S
C1082 C1083 1.327 . S
C1083 H1077 0.950 . S
C1083 C1082 1.327 . S
C1083 C1087 1.429 . S
C1084 C1067 1.574 . S
C1084 H1078 0.949 . S
C1084 C1088 1.368 . S
C1085 C1066 1.429 . S
C1085 C1079 1.429 . S
C1085 C1086 1.523 . S
C1086 C1067 1.368 . S
C1086 C1080 1.368 . S
C1086 C1085 1.523 . S
C1087 C1071 1.429 . S
C1087 C1083 1.429 . S
C1087 C1088 1.523 . S
C1088 C1072 1.368 . S
C1088 C1084 1.368 . S
C1088 C1087 1.523 . S
H1089 C1064 0.950 . S
H1090 C1066 0.950 . S
H1091 C1067 0.949 . S
H1092 C1069 0.950 . S
H1093 C1071 0.950 . S
C1094 C1095 1.349 . S
C1094 C1096 1.327 . S
C1094 H1119 0.950 1_545 S
C1095 C1094 1.349 . S
C1095 C1111 1.349 . S
C1096 C1094 1.327 . S
C1096 C1115 1.429 . S
C1096 H1120 0.950 1_545 S
C1097 C1114 1.574 . S
C1097 C1116 1.368 . S
C1097 H1121 0.949 . S
H1098 C1102 0.949 . S
C1099 C1100 1.349 . S
C1099 C1101 1.327 . S
C1099 H1122 0.950 . S
C1100 C1099 1.349 . S
C1100 C1112 1.349 1_545 S
C1101 C1099 1.327 . S
C1101 C1117 1.429 . S
C1101 H1123 0.950 . S
C1102 H1098 0.949 . S
C1102 C1110 1.572 1_565 S
C1102 C1118 1.368 1_565 S
H1103 C1111 0.950 . S
H1104 C1109 0.950 . S
H1105 C1110 0.924 1_565 S
H1106 C1112 0.950 . S
H1107 C1113 0.950 . S
H1108 C1114 0.949 . S
C1109 H1104 0.950 . S
C1109 C1111 1.327 . S
C1109 C1115 1.429 . S
C1110 C1102 1.572 1_545 S
C1110 H1105 0.924 1_545 S
C1110 C1116 1.399 . S
C1111 C1095 1.349 . S
C1111 H1103 0.950 . S
C1111 C1109 1.327 . S
C1112 C1100 1.349 1_565 S
C1112 H1106 0.950 . S
C1112 C1113 1.327 . S
C1113 H1107 0.950 . S
C1113 C1112 1.327 . S
C1113 C1117 1.429 1_565 S
C1114 C1097 1.574 . S
C1114 H1108 0.949 . S
C1114 C1118 1.368 . S
C1115 C1096 1.429 . S
C1115 C1109 1.429 . S
C1115 C1116 1.523 . S
C1116 C1097 1.368 . S
C1116 C1110 1.399 . S
C1116 C1115 1.523 . S
C1117 C1101 1.429 . S
C1117 C1113 1.429 1_545 S
C1117 C1118 1.523 . S
C1118 C1102 1.368 1_545 S
C1118 C1114 1.368 . S
C1118 C1117 1.523 . S
H1119 C1094 0.950 1_565 S
H1120 C1096 0.950 1_565 S
H1121 C1097 0.949 . S
H1122 C1099 0.950 . S
H1123 C1101 0.950 . S
C1124 C1125 1.349 . S
C1124 C1126 1.327 . S
C1124 H1149 0.950 . S
C1125 C1124 1.349 . S
C1125 C1141 1.349 . S
C1126 C1124 1.327 . S
C1126 C1145 1.429 . S
C1126 H1150 0.950 . S
C1127 C1144 1.574 . S
C1127 C1146 1.368 . S
C1127 H1151 0.949 . S
H1128 C1132 0.949 . S
C1129 C1130 1.349 . S
C1129 C1131 1.327 . S
C1129 H1152 0.950 . S
C1130 C1129 1.349 . S
C1130 C1142 1.349 . S
C1131 C1129 1.327 . S
C1131 C1147 1.429 . S
C1131 H1153 0.950 . S
C1132 H1128 0.949 . S
C1132 C1140 1.574 . S
C1132 C1148 1.368 . S
H1133 C1141 0.950 . S
H1134 C1139 0.950 . S
H1135 C1140 0.949 . S
H1136 C1142 0.950 . S
H1137 C1143 0.950 . S
H1138 C1144 0.949 . S
C1139 H1134 0.950 . S
C1139 C1141 1.327 . S
C1139 C1145 1.429 . S
C1140 C1132 1.574 . S
C1140 H1135 0.949 . S
C1140 C1146 1.368 . S
C1141 C1125 1.349 . S
C1141 H1133 0.950 . S
C1141 C1139 1.327 . S
C1142 C1130 1.349 . S
C1142 H1136 0.950 . S
C1142 C1143 1.327 . S
C1143 H1137 0.950 . S
C1143 C1142 1.327 . S
C1143 C1147 1.429 . S
C1144 C1127 1.574 . S
C1144 H1138 0.949 . S
C1144 C1148 1.368 . S
C1145 C1126 1.429 . S
C1145 C1139 1.429 . S
C1145 C1146 1.523 . S
C1146 C1127 1.368 . S
C1146 C1140 1.368 . S
C1146 C1145 1.523 . S
C1147 C1131 1.429 . S
C1147 C1143 1.429 . S
C1147 C1148 1.523 . S
C1148 C1132 1.368 . S
C1148 C1144 1.368 . S
C1148 C1147 1.523 . S
H1149 C1124 0.950 . S
H1150 C1126 0.950 . S
H1151 C1127 0.949 . S
H1152 C1129 0.950 . S
H1153 C1131 0.950 . S
C1154 C1155 1.349 . S
C1154 C1156 1.327 . S
C1154 H1179 0.950 . S
C1155 C1154 1.349 . S
C1155 C1171 1.349 . S
C1156 C1154 1.327 . S
C1156 C1175 1.429 . S
C1156 H1180 0.950 . S
C1157 C1174 1.574 . S
C1157 C1176 1.368 . S
C1157 H1181 0.949 . S
H1158 C1162 0.949 . S
C1159 C1160 1.349 . S
C1159 C1161 1.327 . S
C1159 H1182 0.950 . S
C1160 C1159 1.349 . S
C1160 C1172 1.349 . S
C1161 C1159 1.327 . S
C1161 C1177 1.429 . S
C1161 H1183 0.950 . S
C1162 H1158 0.949 . S
C1162 C1170 1.574 . S
C1162 C1178 1.368 . S
H1163 C1171 0.950 . S
H1164 C1169 0.950 . S
H1165 C1170 0.949 . S
H1166 C1172 0.950 . S
H1167 C1173 0.950 . S
H1168 C1174 0.949 . S
C1169 H1164 0.950 . S
C1169 C1171 1.327 . S
C1169 C1175 1.429 . S
C1170 C1162 1.574 . S
C1170 H1165 0.949 . S
C1170 C1176 1.368 . S
C1171 C1155 1.349 . S
C1171 H1163 0.950 . S
C1171 C1169 1.327 . S
C1172 C1160 1.349 . S
C1172 H1166 0.950 . S
C1172 C1173 1.327 . S
C1173 H1167 0.950 . S
C1173 C1172 1.327 . S
C1173 C1177 1.429 . S
C1174 C1157 1.574 . S
C1174 H1168 0.949 . S
C1174 C1178 1.368 . S
C1175 C1156 1.429 . S
C1175 C1169 1.429 . S
C1175 C1176 1.523 . S
C1176 C1157 1.368 . S
C1176 C1170 1.368 . S
C1176 C1175 1.523 . S
C1177 C1161 1.429 . S
C1177 C1173 1.429 . S
C1177 C1178 1.523 . S
C1178 C1162 1.368 . S
C1178 C1174 1.368 . S
C1178 C1177 1.523 . S
H1179 C1154 0.950 . S
H1180 C1156 0.950 . S
H1181 C1157 0.949 . S
H1182 C1159 0.950 . S
H1183 C1161 0.950 . S
C1184 C1185 1.349 . S
C1184 C1186 1.327 . S
C1184 H1209 0.950 . S
C1185 C1184 1.349 . S
C1185 C1201 1.349 . S
C1186 C1184 1.327 . S
C1186 C1205 1.429 . S
C1186 H1210 0.950 . S
C1187 C1204 1.574 . S
C1187 C1206 1.368 . S
C1187 H1211 0.949 . S
H1188 C1192 0.949 . S
C1189 C1190 1.349 . S
C1189 C1191 1.327 . S
C1189 H1212 0.950 . S
C1190 C1189 1.349 . S
C1190 C1202 1.349 . S
C1191 C1189 1.327 . S
C1191 C1207 1.429 . S
C1191 H1213 0.950 . S
C1192 H1188 0.949 . S
C1192 C1200 1.574 . S
C1192 C1208 1.368 . S
H1193 C1201 0.950 . S
H1194 C1199 0.950 . S
H1195 C1200 0.949 . S
H1196 C1202 0.950 . S
H1197 C1203 0.950 . S
H1198 C1204 0.949 . S
C1199 H1194 0.950 . S
C1199 C1201 1.327 . S
C1199 C1205 1.429 . S
C1200 C1192 1.574 . S
C1200 H1195 0.949 . S
C1200 C1206 1.368 . S
C1201 C1185 1.349 . S
C1201 H1193 0.950 . S
C1201 C1199 1.327 . S
C1202 C1190 1.349 . S
C1202 H1196 0.950 . S
C1202 C1203 1.327 . S
C1203 H1197 0.950 . S
C1203 C1202 1.327 . S
C1203 C1207 1.429 . S
C1204 C1187 1.574 . S
C1204 H1198 0.949 . S
C1204 C1208 1.368 . S
C1205 C1186 1.429 . S
C1205 C1199 1.429 . S
C1205 C1206 1.523 . S
C1206 C1187 1.368 . S
C1206 C1200 1.368 . S
C1206 C1205 1.523 . S
C1207 C1191 1.429 . S
C1207 C1203 1.429 . S
C1207 C1208 1.523 . S
C1208 C1192 1.368 . S
C1208 C1204 1.368 . S
C1208 C1207 1.523 . S
H1209 C1184 0.950 . S
H1210 C1186 0.950 . S
H1211 C1187 0.949 . S
H1212 C1189 0.950 . S
H1213 C1191 0.950 . S
C1214 C1215 1.349 . S
C1214 C1216 1.327 . S
C1214 H1239 0.950 . S
C1215 C1214 1.349 . S
C1215 C1231 1.349 . S
C1216 C1214 1.327 . S
C1216 C1235 1.429 . S
C1216 H1240 0.950 . S
C1217 C1234 1.574 . S
C1217 C1236 1.368 1_655 S
C1217 H1241 0.949 . S
H1218 C1222 0.949 . S
C1219 C1220 1.349 . S
C1219 C1221 1.327 . S
C1219 H1242 0.950 . S
C1220 C1219 1.349 . S
C1220 C1232 1.349 . S
C1221 C1219 1.327 . S
C1221 C1237 1.429 . S
C1221 H1243 0.950 . S
C1222 H1218 0.949 . S
C1222 C1230 1.574 . S
C1222 C1238 1.368 1_455 S
H1223 C1231 0.950 . S
H1224 C1229 0.950 1_655 S
H1225 C1230 0.949 . S
H1226 C1232 0.950 . S
H1227 C1233 0.950 1_455 S
H1228 C1234 0.949 . S
C1229 H1224 0.950 1_455 S
C1229 C1231 1.327 . S
C1229 C1235 1.429 . S
C1230 C1222 1.574 . S
C1230 H1225 0.949 . S
C1230 C1236 1.368 . S
C1231 C1215 1.349 . S
C1231 H1223 0.950 . S
C1231 C1229 1.327 . S
C1232 C1220 1.349 . S
C1232 H1226 0.950 . S
C1232 C1233 1.327 . S
C1233 H1227 0.950 1_655 S
C1233 C1232 1.327 . S
C1233 C1237 1.429 . S
C1234 C1217 1.574 . S
C1234 H1228 0.949 . S
C1234 C1238 1.368 . S
C1235 C1216 1.429 . S
C1235 C1229 1.429 . S
C1235 C1236 1.523 . S
C1236 C1217 1.368 1_455 S
C1236 C1230 1.368 . S
C1236 C1235 1.523 . S
C1237 C1221 1.429 . S
C1237 C1233 1.429 . S
C1237 C1238 1.523 . S
C1238 C1222 1.368 1_655 S
C1238 C1234 1.368 . S
C1238 C1237 1.523 . S
H1239 C1214 0.950 . S
H1240 C1216 0.950 . S
H1241 C1217 0.949 . S
H1242 C1219 0.950 . S
H1243 C1221 0.950 . S
C1244 C1245 1.349 . S
C1244 C1246 1.327 . S
C1244 H1269 0.950 . S
C1245 C1244 1.349 . S
C1245 C1261 1.349 . S
C1246 C1244 1.327 . S
C1246 C1265 1.429 . S
C1246 H1270 0.950 . S
C1247 C1264 1.574 . S
C1247 C1266 1.368 . S
C1247 H1271 0.949 . S
H1248 C1252 0.949 . S
C1249 C1250 1.349 . S
C1249 C1251 1.327 . S
C1249 H1272 0.950 . S
C1250 C1249 1.349 . S
C1250 C1262 1.349 . S
C1251 C1249 1.327 . S
C1251 C1267 1.429 . S
C1251 H1273 0.950 . S
C1252 H1248 0.949 . S
C1252 C1260 1.574 . S
C1252 C1268 1.368 . S
H1253 C1261 0.950 . S
H1254 C1259 0.950 . S
H1255 C1260 0.949 . S
H1256 C1262 0.950 . S
H1257 C1263 0.950 . S
H1258 C1264 0.949 . S
C1259 H1254 0.950 . S
C1259 C1261 1.327 . S
C1259 C1265 1.429 . S
C1260 C1252 1.574 . S
C1260 H1255 0.949 . S
C1260 C1266 1.368 . S
C1261 C1245 1.349 . S
C1261 H1253 0.950 . S
C1261 C1259 1.327 . S
C1262 C1250 1.349 . S
C1262 H1256 0.950 . S
C1262 C1263 1.327 . S
C1263 H1257 0.950 . S
C1263 C1262 1.327 . S
C1263 C1267 1.429 . S
C1264 C1247 1.574 . S
C1264 H1258 0.949 . S
C1264 C1268 1.368 . S
C1265 C1246 1.429 . S
C1265 C1259 1.429 . S
C1265 C1266 1.523 . S
C1266 C1247 1.368 . S
C1266 C1260 1.368 . S
C1266 C1265 1.523 . S
C1267 C1251 1.429 . S
C1267 C1263 1.429 . S
C1267 C1268 1.523 . S
C1268 C1252 1.368 . S
C1268 C1264 1.368 . S
C1268 C1267 1.523 . S
H1269 C1244 0.950 . S
H1270 C1246 0.950 . S
H1271 C1247 0.949 . S
H1272 C1249 0.950 . S
H1273 C1251 0.950 . S
C1274 C1275 1.349 . S
C1274 C1276 1.327 . S
C1274 H1299 0.950 . S
C1275 C1274 1.349 . S
C1275 C1291 1.349 . S
C1276 C1274 1.327 . S
C1276 C1295 1.429 . S
C1276 H1300 0.950 . S
C1277 C1294 1.574 . S
C1277 C1296 1.368 . S
C1277 H1301 0.949 . S
H1278 C1282 0.949 . S
C1279 C1280 1.349 . S
C1279 C1281 1.327 . S
C1279 H1302 0.950 . S
C1280 C1279 1.349 . S
C1280 C1292 1.349 . S
C1281 C1279 1.327 . S
C1281 C1297 1.429 . S
C1281 H1303 0.950 . S
C1282 H1278 0.949 . S
C1282 C1290 1.574 . S
C1282 C1298 1.368 . S
H1283 C1291 0.950 . S
H1284 C1289 0.950 . S
H1285 C1290 0.949 . S
H1286 C1292 0.950 . S
H1287 C1293 0.950 . S
H1288 C1294 0.949 . S
C1289 H1284 0.950 . S
C1289 C1291 1.327 . S
C1289 C1295 1.429 . S
C1290 C1282 1.574 . S
C1290 H1285 0.949 . S
C1290 C1296 1.368 . S
C1291 C1275 1.349 . S
C1291 H1283 0.950 . S
C1291 C1289 1.327 . S
C1292 C1280 1.349 . S
C1292 H1286 0.950 . S
C1292 C1293 1.327 . S
C1293 H1287 0.950 . S
C1293 C1292 1.327 . S
C1293 C1297 1.429 . S
C1294 C1277 1.574 . S
C1294 H1288 0.949 . S
C1294 C1298 1.368 . S
C1295 C1276 1.429 . S
C1295 C1289 1.429 . S
C1295 C1296 1.523 . S
C1296 C1277 1.368 . S
C1296 C1290 1.368 . S
C1296 C1295 1.523 . S
C1297 C1281 1.429 . S
C1297 C1293 1.429 . S
C1297 C1298 1.523 . S
C1298 C1282 1.368 . S
C1298 C1294 1.368 . S
C1298 C1297 1.523 . S
H1299 C1274 0.950 . S
H1300 C1276 0.950 . S
H1301 C1277 0.949 . S
H1302 C1279 0.950 . S
H1303 C1281 0.950 . S
C1304 C1305 1.349 . S
C1304 C1306 1.327 . S
C1304 H1329 0.950 . S
C1305 C1304 1.349 . S
C1305 C1321 1.349 . S
C1306 C1304 1.327 . S
C1306 C1325 1.429 . S
C1306 H1330 0.950 . S
C1307 C1324 1.574 . S
C1307 C1326 1.368 . S
C1307 H1331 0.949 . S
H1308 C1312 0.949 . S
C1309 C1310 1.349 . S
C1309 C1311 1.327 . S
C1309 H1332 0.950 . S
C1310 C1309 1.349 . S
C1310 C1322 1.349 . S
C1311 C1309 1.327 . S
C1311 C1327 1.429 . S
C1311 H1333 0.950 . S
C1312 H1308 0.949 . S
C1312 C1320 1.574 . S
C1312 C1328 1.368 . S
H1313 C1321 0.950 . S
H1314 C1319 0.950 . S
H1315 C1320 0.949 . S
H1316 C1322 0.950 . S
H1317 C1323 0.950 . S
H1318 C1324 0.949 . S
C1319 H1314 0.950 . S
C1319 C1321 1.327 . S
C1319 C1325 1.429 . S
C1320 C1312 1.574 . S
C1320 H1315 0.949 . S
C1320 C1326 1.368 . S
C1321 C1305 1.349 . S
C1321 H1313 0.950 . S
C1321 C1319 1.327 . S
C1322 C1310 1.349 . S
C1322 H1316 0.950 . S
C1322 C1323 1.327 . S
C1323 H1317 0.950 . S
C1323 C1322 1.327 . S
C1323 C1327 1.429 . S
C1324 C1307 1.574 . S
C1324 H1318 0.949 . S
C1324 C1328 1.368 . S
C1325 C1306 1.429 . S
C1325 C1319 1.429 . S
C1325 C1326 1.523 . S
C1326 C1307 1.368 . S
C1326 C1320 1.368 . S
C1326 C1325 1.523 . S
C1327 C1311 1.429 . S
C1327 C1323 1.429 . S
C1327 C1328 1.523 . S
C1328 C1312 1.368 . S
C1328 C1324 1.368 . S
C1328 C1327 1.523 . S
H1329 C1304 0.950 . S
H1330 C1306 0.950 . S
H1331 C1307 0.949 . S
H1332 C1309 0.950 . S
H1333 C1311 0.950 . S
C1334 C1335 1.349 1_655 S
C1334 C1336 1.346 . S
C1334 H1359 0.950 . S
C1335 C1334 1.349 1_455 S
C1335 C1351 1.349 . S
C1336 C1334 1.346 . S
C1336 C1355 1.415 1_654 S
C1336 H1360 0.946 1_554 S
C1337 C1354 1.574 . S
C1337 C1356 1.368 . S
C1337 H1361 0.949 . S
H1338 C1342 0.949 . S
C1339 C1340 1.349 . S
C1339 C1341 1.327 . S
C1339 H1362 0.950 . S
C1340 C1339 1.349 . S
C1340 C1352 1.349 . S
C1341 C1339 1.327 . S
C1341 C1357 1.429 . S
C1341 H1363 0.950 . S
C1342 H1338 0.949 . S
C1342 C1350 1.574 . S
C1342 C1358 1.368 1_655 S
H1343 C1351 0.950 . S
H1344 C1349 0.948 1_556 S
H1345 C1350 0.949 . S
H1346 C1352 0.950 1_655 S
H1347 C1353 0.972 . S
H1348 C1354 0.949 . S
C1349 H1344 0.948 1_554 S
C1349 C1351 1.329 . S
C1349 C1355 1.428 1_554 S
C1350 C1342 1.574 . S
C1350 H1345 0.949 . S
C1350 C1356 1.368 1_655 S
C1351 C1335 1.349 . S
C1351 H1343 0.950 . S
C1351 C1349 1.329 . S
C1352 C1340 1.349 . S
C1352 H1346 0.950 1_455 S
C1352 C1353 1.321 1_455 S
C1353 H1347 0.972 . S
C1353 C1352 1.321 1_655 S
C1353 C1357 1.414 1_655 S
C1354 C1337 1.574 . S
C1354 H1348 0.949 . S
C1354 C1358 1.368 . S
C1355 C1336 1.415 1_456 S
C1355 C1349 1.428 1_556 S
C1355 C1356 1.523 . S
C1356 C1337 1.368 . S
C1356 C1350 1.368 1_455 S
C1356 C1355 1.523 . S
C1357 C1341 1.429 . S
C1357 C1353 1.414 1_455 S
C1357 C1358 1.523 . S
C1358 C1342 1.368 1_455 S
C1358 C1354 1.368 . S
C1358 C1357 1.523 . S
H1359 C1334 0.950 . S
H1360 C1336 0.946 1_556 S
H1361 C1337 0.949 . S
H1362 C1339 0.950 . S
H1363 C1341 0.950 . S
C1364 C1365 1.349 . S
C1364 C1366 1.327 . S
C1364 H1389 0.950 . S
C1365 C1364 1.349 . S
C1365 C1381 1.349 . S
C1366 C1364 1.327 . S
C1366 C1385 1.429 . S
C1366 H1390 0.950 . S
C1367 C1384 1.574 . S
C1367 C1386 1.368 . S
C1367 H1391 0.949 . S
H1368 C1372 0.949 . S
C1369 C1370 1.349 . S
C1369 C1371 1.327 . S
C1369 H1392 0.950 . S
C1370 C1369 1.349 . S
C1370 C1382 1.349 . S
C1371 C1369 1.327 . S
C1371 C1387 1.429 . S
C1371 H1393 0.950 . S
C1372 H1368 0.949 . S
C1372 C1380 1.574 . S
C1372 C1388 1.368 . S
H1373 C1381 0.950 . S
H1374 C1379 0.950 . S
H1375 C1380 0.949 . S
H1376 C1382 0.950 . S
H1377 C1383 0.950 . S
H1378 C1384 0.949 . S
C1379 H1374 0.950 . S
C1379 C1381 1.327 . S
C1379 C1385 1.429 . S
C1380 C1372 1.574 . S
C1380 H1375 0.949 . S
C1380 C1386 1.368 . S
C1381 C1365 1.349 . S
C1381 H1373 0.950 . S
C1381 C1379 1.327 . S
C1382 C1370 1.349 . S
C1382 H1376 0.950 . S
C1382 C1383 1.327 . S
C1383 H1377 0.950 . S
C1383 C1382 1.327 . S
C1383 C1387 1.429 . S
C1384 C1367 1.574 . S
C1384 H1378 0.949 . S
C1384 C1388 1.368 . S
C1385 C1366 1.429 . S
C1385 C1379 1.429 . S
C1385 C1386 1.523 . S
C1386 C1367 1.368 . S
C1386 C1380 1.368 . S
C1386 C1385 1.523 . S
C1387 C1371 1.429 . S
C1387 C1383 1.429 . S
C1387 C1388 1.523 . S
C1388 C1372 1.368 . S
C1388 C1384 1.368 . S
C1388 C1387 1.523 . S
H1389 C1364 0.950 . S
H1390 C1366 0.950 . S
H1391 C1367 0.949 . S
H1392 C1369 0.950 . S
H1393 C1371 0.950 . S
C1394 C1395 1.349 1_556 S
C1394 C1396 1.327 . S
C1394 H1419 0.950 . S
C1395 C1394 1.349 1_554 S
C1395 C1411 1.349 . S
C1396 C1394 1.327 . S
C1396 C1415 1.429 . S
C1396 H1420 0.950 . S
C1397 C1414 1.574 . S
C1397 C1416 1.368 . S
C1397 H1421 0.949 . S
H1398 C1402 0.949 . S
C1399 C1400 1.349 . S
C1399 C1401 1.327 . S
C1399 H1422 0.950 . S
C1400 C1399 1.349 . S
C1400 C1412 1.349 . S
C1401 C1399 1.327 . S
C1401 C1417 1.429 . S
C1401 H1423 0.950 . S
C1402 H1398 0.949 . S
C1402 C1410 1.574 . S
C1402 C1418 1.368 . S
H1403 C1411 0.950 . S
H1404 C1409 0.950 . S
H1405 C1410 0.949 . S
H1406 C1412 0.950 . S
H1407 C1413 0.950 . S
H1408 C1414 0.949 . S
C1409 H1404 0.950 . S
C1409 C1411 1.327 . S
C1409 C1415 1.429 1_554 S
C1410 C1402 1.574 . S
C1410 H1405 0.949 . S
C1410 C1416 1.368 . S
C1411 C1395 1.349 . S
C1411 H1403 0.950 . S
C1411 C1409 1.327 . S
C1412 C1400 1.349 . S
C1412 H1406 0.950 . S
C1412 C1413 1.327 . S
C1413 H1407 0.950 . S
C1413 C1412 1.327 . S
C1413 C1417 1.429 . S
C1414 C1397 1.574 . S
C1414 H1408 0.949 . S
C1414 C1418 1.368 . S
C1415 C1396 1.429 . S
C1415 C1409 1.429 1_556 S
C1415 C1416 1.523 . S
C1416 C1397 1.368 . S
C1416 C1410 1.368 . S
C1416 C1415 1.523 . S
C1417 C1401 1.429 . S
C1417 C1413 1.429 . S
C1417 C1418 1.523 . S
C1418 C1402 1.368 . S
C1418 C1414 1.368 . S
C1418 C1417 1.523 . S
H1419 C1394 0.950 . S
H1420 C1396 0.950 . S
H1421 C1397 0.949 . S
H1422 C1399 0.950 . S
H1423 C1401 0.950 . S
C1424 C1425 1.349 . S
C1424 C1426 1.327 . S
C1424 H1449 0.950 . S
C1425 C1424 1.349 . S
C1425 C1441 1.349 . S
C1426 C1424 1.327 . S
C1426 C1445 1.429 . S
C1426 H1450 0.950 . S
C1427 C1444 1.574 . S
C1427 C1446 1.368 . S
C1427 H1451 0.949 . S
H1428 C1432 0.949 . S
C1429 C1430 1.349 . S
C1429 C1431 1.327 . S
C1429 H1452 0.950 . S
C1430 C1429 1.349 . S
C1430 C1442 1.349 . S
C1431 C1429 1.327 . S
C1431 C1447 1.429 . S
C1431 H1453 0.950 . S
C1432 H1428 0.949 . S
C1432 C1440 1.574 . S
C1432 C1448 1.368 . S
H1433 C1441 0.950 . S
H1434 C1439 0.950 . S
H1435 C1440 0.949 . S
H1436 C1442 0.950 . S
H1437 C1443 0.950 . S
H1438 C1444 0.949 . S
C1439 H1434 0.950 . S
C1439 C1441 1.327 . S
C1439 C1445 1.429 . S
C1440 C1432 1.574 . S
C1440 H1435 0.949 . S
C1440 C1446 1.368 . S
C1441 C1425 1.349 . S
C1441 H1433 0.950 . S
C1441 C1439 1.327 . S
C1442 C1430 1.349 . S
C1442 H1436 0.950 . S
C1442 C1443 1.327 . S
C1443 H1437 0.950 . S
C1443 C1442 1.327 . S
C1443 C1447 1.429 . S
C1444 C1427 1.574 . S
C1444 H1438 0.949 . S
C1444 C1448 1.368 . S
C1445 C1426 1.429 . S
C1445 C1439 1.429 . S
C1445 C1446 1.523 . S
C1446 C1427 1.368 . S
C1446 C1440 1.368 . S
C1446 C1445 1.523 . S
C1447 C1431 1.429 . S
C1447 C1443 1.429 . S
C1447 C1448 1.523 . S
C1448 C1432 1.368 . S
C1448 C1444 1.368 . S
C1448 C1447 1.523 . S
H1449 C1424 0.950 . S
H1450 C1426 0.950 . S
H1451 C1427 0.949 . S
H1452 C1429 0.950 . S
H1453 C1431 0.950 . S
C1454 C1455 1.349 . S
C1454 C1456 1.327 . S
C1454 H1479 0.950 . S
C1455 C1454 1.349 . S
C1455 C1471 1.349 . S
C1456 C1454 1.327 . S
C1456 C1475 1.429 . S
C1456 H1480 0.950 . S
C1457 C1474 1.574 . S
C1457 C1476 1.368 . S
C1457 H1481 0.949 . S
H1458 C1462 0.949 . S
C1459 C1460 1.349 . S
C1459 C1461 1.327 . S
C1459 H1482 0.950 . S
C1460 C1459 1.349 . S
C1460 C1472 1.349 . S
C1461 C1459 1.327 . S
C1461 C1477 1.429 . S
C1461 H1483 0.950 . S
C1462 H1458 0.949 . S
C1462 C1470 1.574 . S
C1462 C1478 1.368 . S
H1463 C1471 0.950 . S
H1464 C1469 0.950 . S
H1465 C1470 0.949 . S
H1466 C1472 0.950 . S
H1467 C1473 0.950 . S
H1468 C1474 0.949 . S
C1469 H1464 0.950 . S
C1469 C1471 1.327 . S
C1469 C1475 1.429 . S
C1470 C1462 1.574 . S
C1470 H1465 0.949 . S
C1470 C1476 1.368 . S
C1471 C1455 1.349 . S
C1471 H1463 0.950 . S
C1471 C1469 1.327 . S
C1472 C1460 1.349 . S
C1472 H1466 0.950 . S
C1472 C1473 1.327 . S
C1473 H1467 0.950 . S
C1473 C1472 1.327 . S
C1473 C1477 1.429 . S
C1474 C1457 1.574 . S
C1474 H1468 0.949 . S
C1474 C1478 1.368 . S
C1475 C1456 1.429 . S
C1475 C1469 1.429 . S
C1475 C1476 1.523 . S
C1476 C1457 1.368 . S
C1476 C1470 1.368 . S
C1476 C1475 1.523 . S
C1477 C1461 1.429 . S
C1477 C1473 1.429 . S
C1477 C1478 1.523 . S
C1478 C1462 1.368 . S
C1478 C1474 1.368 . S
C1478 C1477 1.523 . S
H1479 C1454 0.950 . S
H1480 C1456 0.950 . S
H1481 C1457 0.949 . S
H1482 C1459 0.950 . S
H1483 C1461 0.950 . S
C1484 C1485 1.349 . S
C1484 C1486 1.327 . S
C1484 H1509 0.950 . S
C1485 C1484 1.349 . S
C1485 C1501 1.349 . S
C1486 C1484 1.327 . S
C1486 C1505 1.429 . S
C1486 H1510 0.950 . S
C1487 C1504 1.574 . S
C1487 C1506 1.368 . S
C1487 H1511 0.949 . S
H1488 C1492 0.949 . S
C1489 C1490 1.349 . S
C1489 C1491 1.327 . S
C1489 H1512 0.950 . S
C1490 C1489 1.349 . S
C1490 C1502 1.349 . S
C1491 C1489 1.327 . S
C1491 C1507 1.429 . S
C1491 H1513 0.950 . S
C1492 H1488 0.949 . S
C1492 C1500 1.574 . S
C1492 C1508 1.368 . S
H1493 C1501 0.950 . S
H1494 C1499 0.950 . S
H1495 C1500 0.949 . S
H1496 C1502 0.950 . S
H1497 C1503 0.950 . S
H1498 C1504 0.949 . S
C1499 H1494 0.950 . S
C1499 C1501 1.327 . S
C1499 C1505 1.429 . S
C1500 C1492 1.574 . S
C1500 H1495 0.949 . S
C1500 C1506 1.368 . S
C1501 C1485 1.349 . S
C1501 H1493 0.950 . S
C1501 C1499 1.327 . S
C1502 C1490 1.349 . S
C1502 H1496 0.950 . S
C1502 C1503 1.327 . S
C1503 H1497 0.950 . S
C1503 C1502 1.327 . S
C1503 C1507 1.429 . S
C1504 C1487 1.574 . S
C1504 H1498 0.949 . S
C1504 C1508 1.368 . S
C1505 C1486 1.429 . S
C1505 C1499 1.429 . S
C1505 C1506 1.523 . S
C1506 C1487 1.368 . S
C1506 C1500 1.368 . S
C1506 C1505 1.523 . S
C1507 C1491 1.429 . S
C1507 C1503 1.429 . S
C1507 C1508 1.523 . S
C1508 C1492 1.368 . S
C1508 C1504 1.368 . S
C1508 C1507 1.523 . S
H1509 C1484 0.950 . S
H1510 C1486 0.950 . S
H1511 C1487 0.949 . S
H1512 C1489 0.950 . S
H1513 C1491 0.950 . S
C1514 C1515 1.349 1_554 S
C1514 C1516 1.327 . S
C1514 H1539 0.950 . S
C1515 C1514 1.349 1_556 S
C1515 C1531 1.349 . S
C1516 C1514 1.327 . S
C1516 C1535 1.429 . S
C1516 H1540 0.950 . S
C1517 C1534 1.574 . S
C1517 C1536 1.368 . S
C1517 H1541 0.949 . S
H1518 C1522 0.949 . S
C1519 C1520 1.349 . S
C1519 C1521 1.327 . S
C1519 H1542 0.950 . S
C1520 C1519 1.349 . S
C1520 C1532 1.349 . S
C1521 C1519 1.327 . S
C1521 C1537 1.429 . S
C1521 H1543 0.950 . S
C1522 H1518 0.949 . S
C1522 C1530 1.574 . S
C1522 C1538 1.368 . S
H1523 C1531 0.950 . S
H1524 C1529 0.950 . S
H1525 C1530 0.949 . S
H1526 C1532 0.950 . S
H1527 C1533 0.950 . S
H1528 C1534 0.949 . S
C1529 H1524 0.950 . S
C1529 C1531 1.327 1_554 S
C1529 C1535 1.429 . S
C1530 C1522 1.574 . S
C1530 H1525 0.949 . S
C1530 C1536 1.368 . S
C1531 C1515 1.349 . S
C1531 H1523 0.950 . S
C1531 C1529 1.327 1_556 S
C1532 C1520 1.349 . S
C1532 H1526 0.950 . S
C1532 C1533 1.327 . S
C1533 H1527 0.950 . S
C1533 C1532 1.327 . S
C1533 C1537 1.429 . S
C1534 C1517 1.574 . S
C1534 H1528 0.949 . S
C1534 C1538 1.368 . S
C1535 C1516 1.429 . S
C1535 C1529 1.429 . S
C1535 C1536 1.523 . S
C1536 C1517 1.368 . S
C1536 C1530 1.368 . S
C1536 C1535 1.523 . S
C1537 C1521 1.429 . S
C1537 C1533 1.429 . S
C1537 C1538 1.523 . S
C1538 C1522 1.368 . S
C1538 C1534 1.368 . S
C1538 C1537 1.523 . S
H1539 C1514 0.950 . S
H1540 C1516 0.950 . S
H1541 C1517 0.949 . S
H1542 C1519 0.950 . S
H1543 C1521 0.950 . S
C1544 C1545 1.349 . S
C1544 C1546 1.327 . S
C1544 H1569 0.950 . S
C1545 C1544 1.349 . S
C1545 C1561 1.349 . S
C1546 C1544 1.327 . S
C1546 C1565 1.429 . S
C1546 H1570 0.950 . S
C1547 C1564 1.574 . S
C1547 C1566 1.368 . S
C1547 H1571 0.949 . S
H1548 C1552 0.949 . S
C1549 C1550 1.349 . S
C1549 C1551 1.327 . S
C1549 H1572 0.950 . S
C1550 C1549 1.349 . S
C1550 C1562 1.349 . S
C1551 C1549 1.327 . S
C1551 C1567 1.429 . S
C1551 H1573 0.950 . S
C1552 H1548 0.949 . S
C1552 C1560 1.574 . S
C1552 C1568 1.368 . S
H1553 C1561 0.950 . S
H1554 C1559 0.950 . S
H1555 C1560 0.949 . S
H1556 C1562 0.950 . S
H1557 C1563 0.950 . S
H1558 C1564 0.949 . S
C1559 H1554 0.950 . S
C1559 C1561 1.327 . S
C1559 C1565 1.429 . S
C1560 C1552 1.574 . S
C1560 H1555 0.949 . S
C1560 C1566 1.368 . S
C1561 C1545 1.349 . S
C1561 H1553 0.950 . S
C1561 C1559 1.327 . S
C1562 C1550 1.349 . S
C1562 H1556 0.950 . S
C1562 C1563 1.327 . S
C1563 H1557 0.950 . S
C1563 C1562 1.327 . S
C1563 C1567 1.429 . S
C1564 C1547 1.574 . S
C1564 H1558 0.949 . S
C1564 C1568 1.368 . S
C1565 C1546 1.429 . S
C1565 C1559 1.429 . S
C1565 C1566 1.523 . S
C1566 C1547 1.368 . S
C1566 C1560 1.368 . S
C1566 C1565 1.523 . S
C1567 C1551 1.429 . S
C1567 C1563 1.429 . S
C1567 C1568 1.523 . S
C1568 C1552 1.368 . S
C1568 C1564 1.368 . S
C1568 C1567 1.523 . S
H1569 C1544 0.950 . S
H1570 C1546 0.950 . S
H1571 C1547 0.949 . S
H1572 C1549 0.950 . S
H1573 C1551 0.950 . S
C1574 C1575 1.349 . S
C1574 C1576 1.327 . S
C1574 H1599 0.950 . S
C1575 C1574 1.349 . S
C1575 C1591 1.349 . S
C1576 C1574 1.327 . S
C1576 C1595 1.429 . S
C1576 H1600 0.950 . S
C1577 C1594 1.574 . S
C1577 C1596 1.368 . S
C1577 H1601 0.949 . S
H1578 C1582 0.949 . S
C1579 C1580 1.349 . S
C1579 C1581 1.327 . S
C1579 H1602 0.950 . S
C1580 C1579 1.349 . S
C1580 C1592 1.349 . S
C1581 C1579 1.327 . S
C1581 C1597 1.429 . S
C1581 H1603 0.950 . S
C1582 H1578 0.949 . S
C1582 C1590 1.574 . S
C1582 C1598 1.368 . S
H1583 C1591 0.950 . S
H1584 C1589 0.950 . S
H1585 C1590 0.949 . S
H1586 C1592 0.950 . S
H1587 C1593 0.950 . S
H1588 C1594 0.949 . S
C1589 H1584 0.950 . S
C1589 C1591 1.327 . S
C1589 C1595 1.429 . S
C1590 C1582 1.574 . S
C1590 H1585 0.949 . S
C1590 C1596 1.368 . S
C1591 C1575 1.349 . S
C1591 H1583 0.950 . S
C1591 C1589 1.327 . S
C1592 C1580 1.349 . S
C1592 H1586 0.950 . S
C1592 C1593 1.327 . S
C1593 H1587 0.950 . S
C1593 C1592 1.327 . S
C1593 C1597 1.429 . S
C1594 C1577 1.574 . S
C1594 H1588 0.949 . S
C1594 C1598 1.368 . S
C1595 C1576 1.429 . S
C1595 C1589 1.429 . S
C1595 C1596 1.523 . S
C1596 C1577 1.368 . S
C1596 C1590 1.368 . S
C1596 C1595 1.523 . S
C1597 C1581 1.429 . S
C1597 C1593 1.429 . S
C1597 C1598 1.523 . S
C1598 C1582 1.368 . S
C1598 C1594 1.368 . S
C1598 C1597 1.523 . S
H1599 C1574 0.950 . S
H1600 C1576 0.950 . S
H1601 C1577 0.949 . S
H1602 C1579 0.950 . S
H1603 C1581 0.950 . S
C1604 C1605 1.349 . S
C1604 C1606 1.327 . S
C1604 H1629 0.950 . S
C1605 C1604 1.349 . S
C1605 C1621 1.349 . S
C1606 C1604 1.327 . S
C1606 C1625 1.429 . S
C1606 H1630 0.950 . S
C1607 C1624 1.574 . S
C1607 C1626 1.368 . S
C1607 H1631 0.949 . S
H1608 C1612 0.949 . S
C1609 C1610 1.349 . S
C1609 C1611 1.327 . S
C1609 H1632 0.950 . S
C1610 C1609 1.349 . S
C1610 C1622 1.349 . S
C1611 C1609 1.327 . S
C1611 C1627 1.429 . S
C1611 H1633 0.950 . S
C1612 H1608 0.949 . S
C1612 C1620 1.574 . S
C1612 C1628 1.368 . S
H1613 C1621 0.950 . S
H1614 C1619 0.950 . S
H1615 C1620 0.949 . S
H1616 C1622 0.950 . S
H1617 C1623 0.950 . S
H1618 C1624 0.949 . S
C1619 H1614 0.950 . S
C1619 C1621 1.327 . S
C1619 C1625 1.429 . S
C1620 C1612 1.574 . S
C1620 H1615 0.949 . S
C1620 C1626 1.368 . S
C1621 C1605 1.349 . S
C1621 H1613 0.950 . S
C1621 C1619 1.327 . S
C1622 C1610 1.349 . S
C1622 H1616 0.950 . S
C1622 C1623 1.327 . S
C1623 H1617 0.950 . S
C1623 C1622 1.327 . S
C1623 C1627 1.429 . S
C1624 C1607 1.574 . S
C1624 H1618 0.949 . S
C1624 C1628 1.368 . S
C1625 C1606 1.429 . S
C1625 C1619 1.429 . S
C1625 C1626 1.523 . S
C1626 C1607 1.368 . S
C1626 C1620 1.368 . S
C1626 C1625 1.523 . S
C1627 C1611 1.429 . S
C1627 C1623 1.429 . S
C1627 C1628 1.523 . S
C1628 C1612 1.368 . S
C1628 C1624 1.368 . S
C1628 C1627 1.523 . S
H1629 C1604 0.950 . S
H1630 C1606 0.950 . S
H1631 C1607 0.949 . S
H1632 C1609 0.950 . S
H1633 C1611 0.950 . S
C1634 C1635 1.349 . S
C1634 C1636 1.327 . S
C1634 H1659 0.950 . S
C1635 C1634 1.349 . S
C1635 C1651 1.349 . S
C1636 C1634 1.327 . S
C1636 C1655 1.429 . S
C1636 H1660 0.950 . S
C1637 C1654 1.574 . S
C1637 C1656 1.368 . S
C1637 H1661 0.949 . S
H1638 C1642 0.949 . S
C1639 C1640 1.349 . S
C1639 C1641 1.327 . S
C1639 H1662 0.950 . S
C1640 C1639 1.349 . S
C1640 C1652 1.349 . S
C1641 C1639 1.327 . S
C1641 C1657 1.429 . S
C1641 H1663 0.950 . S
C1642 H1638 0.949 . S
C1642 C1650 1.574 . S
C1642 C1658 1.368 . S
H1643 C1651 0.950 . S
H1644 C1649 0.950 . S
H1645 C1650 0.949 . S
H1646 C1652 0.950 . S
H1647 C1653 0.950 . S
H1648 C1654 0.949 . S
C1649 H1644 0.950 . S
C1649 C1651 1.327 . S
C1649 C1655 1.429 . S
C1650 C1642 1.574 . S
C1650 H1645 0.949 . S
C1650 C1656 1.368 . S
C1651 C1635 1.349 . S
C1651 H1643 0.950 . S
C1651 C1649 1.327 . S
C1652 C1640 1.349 . S
C1652 H1646 0.950 . S
C1652 C1653 1.327 . S
C1653 H1647 0.950 . S
C1653 C1652 1.327 . S
C1653 C1657 1.429 . S
C1654 C1637 1.574 . S
C1654 H1648 0.949 . S
C1654 C1658 1.368 . S
C1655 C1636 1.429 . S
C1655 C1649 1.429 . S
C1655 C1656 1.523 . S
C1656 C1637 1.368 . S
C1656 C1650 1.368 . S
C1656 C1655 1.523 . S
C1657 C1641 1.429 . S
C1657 C1653 1.429 . S
C1657 C1658 1.523 . S
C1658 C1642 1.368 . S
C1658 C1654 1.368 . S
C1658 C1657 1.523 . S
H1659 C1634 0.950 . S
H1660 C1636 0.950 . S
H1661 C1637 0.949 . S
H1662 C1639 0.950 . S
H1663 C1641 0.950 . S
C1664 C1665 1.349 1_554 S
C1664 C1666 1.327 . S
C1664 H1689 0.950 . S
C1665 C1664 1.349 1_556 S
C1665 C1681 1.349 . S
C1666 C1664 1.327 . S
C1666 C1685 1.429 1_554 S
C1666 H1690 0.950 . S
C1667 C1684 1.574 . S
C1667 C1686 1.368 . S
C1667 H1691 0.949 . S
H1668 C1672 0.949 . S
C1669 C1670 1.349 . S
C1669 C1671 1.327 . S
C1669 H1692 0.950 . S
C1670 C1669 1.349 . S
C1670 C1682 1.349 1_556 S
C1671 C1669 1.327 . S
C1671 C1687 1.429 . S
C1671 H1693 0.950 . S
C1672 H1668 0.949 . S
C1672 C1680 1.574 . S
C1672 C1688 1.368 1_554 S
H1673 C1681 0.950 . S
H1674 C1679 0.950 . S
H1675 C1680 0.949 . S
H1676 C1682 0.950 . S
H1677 C1683 0.950 . S
H1678 C1684 0.949 . S
C1679 H1674 0.950 . S
C1679 C1681 1.327 . S
C1679 C1685 1.429 . S
C1680 C1672 1.574 . S
C1680 H1675 0.949 . S
C1680 C1686 1.368 1_554 S
C1681 C1665 1.349 . S
C1681 H1673 0.950 . S
C1681 C1679 1.327 . S
C1682 C1670 1.349 1_554 S
C1682 H1676 0.950 . S
C1682 C1683 1.327 . S
C1683 H1677 0.950 . S
C1683 C1682 1.327 . S
C1683 C1687 1.429 1_554 S
C1684 C1667 1.574 . S
C1684 H1678 0.949 . S
C1684 C1688 1.368 . S
C1685 C1666 1.429 1_556 S
C1685 C1679 1.429 . S
C1685 C1686 1.523 . S
C1686 C1667 1.368 . S
C1686 C1680 1.368 1_556 S
C1686 C1685 1.523 . S
C1687 C1671 1.429 . S
C1687 C1683 1.429 1_556 S
C1687 C1688 1.523 . S
C1688 C1672 1.368 1_556 S
C1688 C1684 1.368 . S
C1688 C1687 1.523 . S
H1689 C1664 0.950 . S
H1690 C1666 0.950 . S
H1691 C1667 0.949 . S
H1692 C1669 0.950 . S
H1693 C1671 0.950 . S
C1694 C1695 1.349 . S
C1694 C1696 1.327 . S
C1694 H1719 0.950 . S
C1695 C1694 1.349 . S
C1695 C1711 1.349 . S
C1696 C1694 1.327 . S
C1696 C1715 1.429 . S
C1696 H1720 0.950 . S
C1697 C1714 1.574 . S
C1697 C1716 1.368 . S
C1697 H1721 0.949 . S
H1698 C1702 0.949 . S
C1699 C1700 1.349 . S
C1699 C1701 1.327 . S
C1699 H1722 0.950 . S
C1700 C1699 1.349 . S
C1700 C1712 1.349 . S
C1701 C1699 1.327 . S
C1701 C1717 1.429 . S
C1701 H1723 0.950 . S
C1702 H1698 0.949 . S
C1702 C1710 1.574 . S
C1702 C1718 1.368 . S
H1703 C1711 0.950 . S
H1704 C1709 0.950 . S
H1705 C1710 0.949 . S
H1706 C1712 0.950 . S
H1707 C1713 0.950 . S
H1708 C1714 0.949 . S
C1709 H1704 0.950 . S
C1709 C1711 1.327 . S
C1709 C1715 1.429 . S
C1710 C1702 1.574 . S
C1710 H1705 0.949 . S
C1710 C1716 1.368 . S
C1711 C1695 1.349 . S
C1711 H1703 0.950 . S
C1711 C1709 1.327 . S
C1712 C1700 1.349 . S
C1712 H1706 0.950 . S
C1712 C1713 1.327 . S
C1713 H1707 0.950 . S
C1713 C1712 1.327 . S
C1713 C1717 1.429 . S
C1714 C1697 1.574 . S
C1714 H1708 0.949 . S
C1714 C1718 1.368 . S
C1715 C1696 1.429 . S
C1715 C1709 1.429 . S
C1715 C1716 1.523 . S
C1716 C1697 1.368 . S
C1716 C1710 1.368 . S
C1716 C1715 1.523 . S
C1717 C1701 1.429 . S
C1717 C1713 1.429 . S
C1717 C1718 1.523 . S
C1718 C1702 1.368 . S
C1718 C1714 1.368 . S
C1718 C1717 1.523 . S
H1719 C1694 0.950 . S
H1720 C1696 0.950 . S
H1721 C1697 0.949 . S
H1722 C1699 0.950 . S
H1723 C1701 0.950 . S
C1724 C1725 1.349 . S
C1724 C1726 1.327 . S
C1724 H1749 0.950 . S
C1725 C1724 1.349 . S
C1725 C1741 1.349 . S
C1726 C1724 1.327 . S
C1726 C1745 1.429 . S
C1726 H1750 0.950 . S
C1727 C1744 1.574 . S
C1727 C1746 1.368 . S
C1727 H1751 0.949 . S
H1728 C1732 0.949 . S
C1729 C1730 1.349 . S
C1729 C1731 1.327 . S
C1729 H1752 0.950 . S
C1730 C1729 1.349 . S
C1730 C1742 1.349 . S
C1731 C1729 1.327 . S
C1731 C1747 1.429 . S
C1731 H1753 0.950 . S
C1732 H1728 0.949 . S
C1732 C1740 1.574 . S
C1732 C1748 1.368 . S
H1733 C1741 0.950 . S
H1734 C1739 0.950 . S
H1735 C1740 0.949 . S
H1736 C1742 0.950 . S
H1737 C1743 0.950 . S
H1738 C1744 0.949 . S
C1739 H1734 0.950 . S
C1739 C1741 1.327 . S
C1739 C1745 1.429 . S
C1740 C1732 1.574 . S
C1740 H1735 0.949 . S
C1740 C1746 1.368 . S
C1741 C1725 1.349 . S
C1741 H1733 0.950 . S
C1741 C1739 1.327 . S
C1742 C1730 1.349 . S
C1742 H1736 0.950 . S
C1742 C1743 1.327 . S
C1743 H1737 0.950 . S
C1743 C1742 1.327 . S
C1743 C1747 1.429 . S
C1744 C1727 1.574 . S
C1744 H1738 0.949 . S
C1744 C1748 1.368 . S
C1745 C1726 1.429 . S
C1745 C1739 1.429 . S
C1745 C1746 1.523 . S
C1746 C1727 1.368 . S
C1746 C1740 1.368 . S
C1746 C1745 1.523 . S
C1747 C1731 1.429 . S
C1747 C1743 1.429 . S
C1747 C1748 1.523 . S
C1748 C1732 1.368 . S
C1748 C1744 1.368 . S
C1748 C1747 1.523 . S
H1749 C1724 0.950 . S
H1750 C1726 0.950 . S
H1751 C1727 0.949 . S
H1752 C1729 0.950 . S
H1753 C1731 0.950 . S
C1754 C1755 1.349 . S
C1754 C1756 1.327 . S
C1754 H1779 0.950 . S
C1755 C1754 1.349 . S
C1755 C1771 1.349 . S
C1756 C1754 1.327 . S
C1756 C1775 1.429 1_545 S
C1756 H1780 0.950 . S
C1757 C1774 1.574 . S
C1757 C1776 1.368 . S
C1757 H1781 0.949 . S
H1758 C1762 0.949 . S
C1759 C1760 1.349 . S
C1759 C1761 1.327 . S
C1759 H1782 0.950 . S
C1760 C1759 1.349 . S
C1760 C1772 1.349 . S
C1761 C1759 1.327 . S
C1761 C1777 1.429 . S
C1761 H1783 0.950 . S
C1762 H1758 0.949 . S
C1762 C1770 1.574 . S
C1762 C1778 1.368 . S
H1763 C1771 0.950 . S
H1764 C1769 0.950 . S
H1765 C1770 0.949 . S
H1766 C1772 0.950 . S
H1767 C1773 0.950 . S
H1768 C1774 0.949 . S
C1769 H1764 0.950 . S
C1769 C1771 1.327 1_565 S
C1769 C1775 1.429 . S
C1770 C1762 1.574 . S
C1770 H1765 0.949 . S
C1770 C1776 1.368 . S
C1771 C1755 1.349 . S
C1771 H1763 0.950 . S
C1771 C1769 1.327 1_545 S
C1772 C1760 1.349 . S
C1772 H1766 0.950 . S
C1772 C1773 1.327 . S
C1773 H1767 0.950 . S
C1773 C1772 1.327 . S
C1773 C1777 1.429 . S
C1774 C1757 1.574 . S
C1774 H1768 0.949 . S
C1774 C1778 1.368 . S
C1775 C1756 1.429 1_565 S
C1775 C1769 1.429 . S
C1775 C1776 1.523 . S
C1776 C1757 1.368 . S
C1776 C1770 1.368 . S
C1776 C1775 1.523 . S
C1777 C1761 1.429 . S
C1777 C1773 1.429 . S
C1777 C1778 1.523 . S
C1778 C1762 1.368 . S
C1778 C1774 1.368 . S
C1778 C1777 1.523 . S
H1779 C1754 0.950 . S
H1780 C1756 0.950 . S
H1781 C1757 0.949 . S
H1782 C1759 0.950 . S
H1783 C1761 0.950 . S
C350 C187 1.516 . S
C345 C60 1.547 . S
C380 C195 1.101 . S
C375 C76 1.307 . S
C405 C81 1.650 . S
C410 C215 1.622 . S
C440 C229 1.579 . S
C435 C48 1.618 . S
C470 C244 1.538 . S
C465 C115 1.533 . S
C500 C258 1.621 . S
C495 C136 1.623 . S
C525 C131 1.371 . S
C530 C272 1.370 . S
C560 C278 1.496 . S
C555 C104 1.525 . S
C585 C126 1.524 . S
C590 C292 1.498 . S
C620 C313 1.421 . S
C615 C103 1.438 . S
C645 C120 1.369 . S
C650 C293 1.159 . S
C680 C314 1.413 . S
C675 C142 1.413 . S
C705 C82 1.456 . S
C710 C321 1.203 . S
C735 C54 1.868 . S
C740 C327 1.844 . S
C765 C65 1.395 . S
C770 C320 1.356 . S
C795 C71 1.182 . S
C800 C328 1.189 . S
C825 C37 1.581 . S
C830 C222 1.550 1_565 S
C855 C158 2.039 . S
C860 C223 1.814 . S
C890 C180 1.358 . S
C885 C169 1.402 . S
C920 C201 1.163 . S
C915 C98 1.161 . S
C945 C49 1.750 1_545 S
C950 C236 1.727 . S
C980 C286 1.429 . S
C975 C125 1.423 . S
C1010 C237 1.131 . S
C1005 C109 1.300 . S
C1040 C265 1.560 . S
C1035 C137 1.858 . S
C1070 C271 1.516 . S
C1065 C159 1.547 . S
C1095 C175 1.307 . S
C1100 C279 1.101 . S
C1125 C92 1.650 . S
C1130 C243 1.622 . S
C1160 C257 1.579 . S
C1155 C147 1.618 . S
C1185 C38 1.533 . S
C1190 C216 1.538 . S
C1220 C230 1.622 . S
C1215 C4 1.623 . S
C1250 C188 1.370 . S
C1245 C21 1.371 . S
C1280 C194 1.496 . S
C1275 C27 1.525 . S
C1305 C16 1.524 . S
C1310 C306 1.498 . S
C1335 C26 1.424 1_455 S
C1340 C299 1.420 . S
C1365 C43 1.369 . S
C1370 C307 1.159 . S
C1395 C10 1.413 . S
C1400 C300 1.413 . S
C1430 C335 1.203 . S
C1425 C93 1.456 . S
C1460 C341 1.845 . S
C1455 C153 1.868 . S
C1490 C334 1.356 . S
C1485 C164 1.394 . S
C1515 C170 1.182 . S
C1520 C342 1.189 . S
C1545 C114 1.581 . S
C1550 C250 1.550 . S
C1580 C251 1.814 . S
C1575 C59 2.038 . S
C1610 C264 1.358 . S
C1605 C70 1.402 . S
C1640 C285 1.163 . S
C1635 C87 1.168 . S
C1665 C148 1.750 . S
C1670 C208 1.727 . S
C1700 C202 1.429 . S
C1695 C15 1.428 . S
C1725 C32 1.300 . S
C1730 C209 1.131 . S
C1760 C181 1.560 . S
C1755 C5 1.858 . S
