# Generated by pormake.
# Topology pyr, (3,6)-cn, num edge types: 1
# Building blocks:
#     Node 0, Type 0, BuildingBlock: VETTIZ_charged_linker_0, # of connection points: 3
#     Node 1, Type 0, BuildingBlock: VETTIZ_charged_linker_0, # of connection points: 3
#     Node 2, Type 0, BuildingBlock: VETTIZ_charged_linker_0, # of connection points: 3
#     Node 3, Type 0, BuildingBlock: VETTIZ_charged_linker_0, # of connection points: 3
#     Node 4, Type 0, BuildingBlock: VETTIZ_charged_linker_0, # of connection points: 3
#     Node 5, Type 0, BuildingBlock: VETTIZ_charged_linker_0, # of connection points: 3
#     Node 6, Type 0, BuildingBlock: VETTIZ_charged_linker_0, # of connection points: 3
#     Node 7, Type 0, BuildingBlock: VETTIZ_charged_linker_0, # of connection points: 3
#     Node 8, Type 1, BuildingBlock: MIDCAF_clean_sbu_0, # of connection points: 6
#     Node 9, Type 1, BuildingBlock: MIDCAF_clean_sbu_0, # of connection points: 6
#     Node 10, Type 1, BuildingBlock: MIDCAF_clean_sbu_0, # of connection points: 6
#     Node 11, Type 1, BuildingBlock: MIDCAF_clean_sbu_0, # of connection points: 6
#     Edge 12, Type (0, 1), BuildingBlock: EYOCIG_clean_linker_4, # of connection points: 2
#     Edge 13, Type (0, 1), BuildingBlock: EYOCIG_clean_linker_4, # of connection points: 2
#     Edge 14, Type (0, 1), BuildingBlock: EYOCIG_clean_linker_4, # of connection points: 2
#     Edge 15, Type (0, 1), BuildingBlock: EYOCIG_clean_linker_4, # of connection points: 2
#     Edge 16, Type (0, 1), BuildingBlock: EYOCIG_clean_linker_4, # of connection points: 2
#     Edge 17, Type (0, 1), BuildingBlock: EYOCIG_clean_linker_4, # of connection points: 2
#     Edge 18, Type (0, 1), BuildingBlock: EYOCIG_clean_linker_4, # of connection points: 2
#     Edge 19, Type (0, 1), BuildingBlock: EYOCIG_clean_linker_4, # of connection points: 2
#     Edge 20, Type (0, 1), BuildingBlock: EYOCIG_clean_linker_4, # of connection points: 2
#     Edge 21, Type (0, 1), BuildingBlock: EYOCIG_clean_linker_4, # of connection points: 2
#     Edge 22, Type (0, 1), BuildingBlock: EYOCIG_clean_linker_4, # of connection points: 2
#     Edge 23, Type (0, 1), BuildingBlock: EYOCIG_clean_linker_4, # of connection points: 2
#     Edge 24, Type (0, 1), BuildingBlock: EYOCIG_clean_linker_4, # of connection points: 2
#     Edge 25, Type (0, 1), BuildingBlock: EYOCIG_clean_linker_4, # of connection points: 2
#     Edge 26, Type (0, 1), BuildingBlock: EYOCIG_clean_linker_4, # of connection points: 2
#     Edge 27, Type (0, 1), BuildingBlock: EYOCIG_clean_linker_4, # of connection points: 2
#     Edge 28, Type (0, 1), BuildingBlock: EYOCIG_clean_linker_4, # of connection points: 2
#     Edge 29, Type (0, 1), BuildingBlock: EYOCIG_clean_linker_4, # of connection points: 2
#     Edge 30, Type (0, 1), BuildingBlock: EYOCIG_clean_linker_4, # of connection points: 2
#     Edge 31, Type (0, 1), BuildingBlock: EYOCIG_clean_linker_4, # of connection points: 2
#     Edge 32, Type (0, 1), BuildingBlock: EYOCIG_clean_linker_4, # of connection points: 2
#     Edge 33, Type (0, 1), BuildingBlock: EYOCIG_clean_linker_4, # of connection points: 2
#     Edge 34, Type (0, 1), BuildingBlock: EYOCIG_clean_linker_4, # of connection points: 2
#     Edge 35, Type (0, 1), BuildingBlock: EYOCIG_clean_linker_4, # of connection points: 2
# Relax obj value: 0.019
# Max RMSD: 0.063
# Mean RMSD: 0.021
data_MOF--net-pry--node1-MIDCAF_clean_sbu_0--node2-VETTIZ_charged_linker_0--edge1-EYOCIG_clean_linker_4
_symmetry_space_group_name_H-M    P1
_symmetry_Int_Tables_number       1
_symmetry_cell_setting            triclinic
loop_
_symmetry_equiv_pos_as_xyz
'x, y, z'
_cell_length_a     36.169616
_cell_length_b     36.203651
_cell_length_c     36.219516
_cell_angle_alpha  89.847256
_cell_angle_beta   90.02836
_cell_angle_gamma 90.112844
loop_
_atom_site_label
_atom_site_type_symbol
_atom_site_fract_x
_atom_site_fract_y
_atom_site_fract_z
_atom_type_partial_charge
C0 C 0.14154 0.12827 0.29901 0.0
C1 C 0.11115 0.14506 0.31623 0.0
C2 C 0.09279 0.17431 0.29859 0.0
C3 C 0.1366 0.17182 0.24805 0.0
C4 C 0.15373 0.14205 0.26483 0.0
C5 C 0.18652 0.12869 0.24302 0.0
H6 H 0.30913 0.1571 0.10449 0.0
C7 C 0.15756 0.18126 0.2143 0.0
C8 C 0.18677 0.156 0.21106 0.0
H9 H 0.30925 0.07056 0.18673 0.0
H10 H 0.25084 0.09232 0.21069 0.0
H11 H 0.28356 0.22113 0.15671 0.0
H12 H 0.22036 0.15033 0.08528 0.0
H13 H 0.20079 0.19461 0.08208 0.0
H14 H 0.24814 0.18766 0.06795 0.0
H15 H 0.28374 0.22609 0.10739 0.0
H16 H 0.24975 0.24873 0.13569 0.0
C17 C 0.2214 0.13235 0.26766 0.0
C18 C 0.17833 0.08886 0.2297 0.0
C19 C 0.12573 0.29821 0.14296 0.0
C20 C 0.14241 0.31557 0.11252 0.0
C21 C 0.17184 0.29824 0.09425 0.0
C22 C 0.18551 0.2643 0.10686 0.0
C23 C 0.16969 0.24773 0.13826 0.0
C24 C 0.13977 0.26424 0.15531 0.0
C25 C 0.12656 0.24245 0.18823 0.0
C26 C 0.15405 0.21076 0.18861 0.0
C27 C 0.17932 0.2141 0.15938 0.0
C28 C 0.1302 0.26732 0.22286 0.0
C29 C 0.08673 0.22872 0.18027 0.0
C30 C 0.29635 0.14296 0.12762 0.0
C31 C 0.31364 0.1125 0.14431 0.0
C32 C 0.29633 0.09436 0.17394 0.0
C33 C 0.2625 0.10705 0.18774 0.0
C34 C 0.24597 0.13841 0.17185 0.0
C35 C 0.26245 0.15539 0.14178 0.0
C36 C 0.24063 0.18823 0.12847 0.0
C37 C 0.20892 0.18857 0.156 0.0
C38 C 0.21233 0.15944 0.18144 0.0
C39 C 0.26552 0.22299 0.13188 0.0
C40 C 0.22686 0.18018 0.08877 0.0
H41 H 0.09038 0.21041 0.25259 0.0
H42 H 0.1558 0.10541 0.31206 0.0
H43 H 0.14845 0.0853 0.22326 0.0
H44 H 0.19278 0.08198 0.20374 0.0
H45 H 0.18571 0.0682 0.25118 0.0
H46 H 0.21965 0.15729 0.28545 0.0
H47 H 0.22454 0.10797 0.28606 0.0
H48 H 0.24712 0.13615 0.25175 0.0
H49 H 0.10275 0.31103 0.15717 0.0
H50 H 0.18458 0.31123 0.07045 0.0
H51 H 0.20832 0.25262 0.09206 0.0
H52 H 0.15488 0.28559 0.22074 0.0
H53 H 0.10556 0.28528 0.22614 0.0
H54 H 0.13449 0.25158 0.24862 0.0
H55 H 0.08304 0.22238 0.15045 0.0
H56 H 0.08008 0.20259 0.1947 0.0
H57 H 0.06594 0.24993 0.18782 0.0
H58 H 0.06902 0.18712 0.31145 0.0
C59 C 0.10525 0.18771 0.26449 0.0
C60 C 0.2306 0.8873 0.63228 0.0
C61 C 0.21358 0.91783 0.64889 0.0
C62 C 0.23056 0.93532 0.67898 0.0
C63 C 0.28039 0.89076 0.6772 0.0
C64 C 0.26406 0.87425 0.64687 0.0
C65 C 0.28557 0.84125 0.63369 0.0
H66 H 0.42477 0.71926 0.66098 0.0
C67 C 0.31369 0.86936 0.68695 0.0
C68 C 0.31693 0.8403 0.6616 0.0
H69 H 0.34166 0.71873 0.57537 0.0
H70 H 0.31671 0.77619 0.59824 0.0
H71 H 0.44209 0.80895 0.65545 0.0
H72 H 0.37322 0.7419 0.72543 0.0
H73 H 0.39141 0.77684 0.75353 0.0
H74 H 0.42237 0.7447 0.73156 0.0
H75 H 0.46036 0.77963 0.69105 0.0
H76 H 0.44621 0.82643 0.70049 0.0
C77 C 0.29993 0.84962 0.59424 0.0
C78 C 0.26027 0.80672 0.63656 0.0
C79 C 0.38634 0.9021 0.8026 0.0
C80 C 0.41691 0.88553 0.81974 0.0
C81 C 0.43446 0.85541 0.80295 0.0
C82 C 0.42115 0.84112 0.7696 0.0
C83 C 0.38985 0.85712 0.75306 0.0
C84 C 0.3733 0.88746 0.76923 0.0
C85 C 0.34029 0.90067 0.74764 0.0
C86 C 0.33938 0.87277 0.7164 0.0
C87 C 0.36845 0.84737 0.71975 0.0
C88 C 0.34862 0.94016 0.73325 0.0
C89 C 0.30571 0.89773 0.77283 0.0
C90 C 0.40123 0.73175 0.6473 0.0
C91 C 0.38465 0.7147 0.61671 0.0
C92 C 0.35441 0.73154 0.59922 0.0
C93 C 0.34006 0.76483 0.61253 0.0
C94 C 0.35611 0.7813 0.64378 0.0
C95 C 0.38653 0.7651 0.66034 0.0
C96 C 0.39977 0.78665 0.69331 0.0
C97 C 0.37183 0.81792 0.69416 0.0
C98 C 0.34637 0.81461 0.6651 0.0
C99 C 0.43928 0.80108 0.68504 0.0
C100 C 0.3969 0.7614 0.72787 0.0
H101 H 0.27542 0.93627 0.71649 0.0
H102 H 0.21796 0.87364 0.60885 0.0
H103 H 0.24078 0.80914 0.66018 0.0
H104 H 0.2757 0.78101 0.64208 0.0
H105 H 0.24351 0.80312 0.61111 0.0
H106 H 0.30804 0.87916 0.5915 0.0
H107 H 0.27832 0.84391 0.57321 0.0
H108 H 0.32515 0.83395 0.58724 0.0
H109 H 0.37263 0.92555 0.81508 0.0
H110 H 0.45831 0.84269 0.81584 0.0
H111 H 0.43545 0.81784 0.75827 0.0
H112 H 0.37828 0.94308 0.72561 0.0
H113 H 0.34248 0.96122 0.75462 0.0
H114 H 0.33327 0.94703 0.70777 0.0
H115 H 0.30821 0.87414 0.79243 0.0
H116 H 0.28001 0.89208 0.75739 0.0
H117 H 0.30199 0.92321 0.78943 0.0
H118 H 0.21776 0.95914 0.69173 0.0
C119 C 0.26397 0.92201 0.69322 0.0
C120 C 0.67024 0.2324 0.91437 0.0
C121 C 0.64024 0.21014 0.90421 0.0
C122 C 0.61784 0.2205 0.87422 0.0
C123 C 0.65631 0.2745 0.86386 0.0
C124 C 0.67776 0.26443 0.89386 0.0
C125 C 0.7093 0.29077 0.9002 0.0
H126 H 0.80888 0.43917 0.84356 0.0
C127 C 0.67253 0.30838 0.84762 0.0
C128 C 0.70363 0.31801 0.86877 0.0
H129 H 0.83007 0.36778 0.93678 0.0
H130 H 0.77449 0.33283 0.92355 0.0
H131 H 0.71848 0.445 0.8575 0.0
H132 H 0.78674 0.37693 0.7881 0.0
H133 H 0.74732 0.38837 0.76235 0.0
H134 H 0.778 0.42459 0.77761 0.0
H135 H 0.74284 0.46282 0.8181 0.0
H136 H 0.69743 0.44258 0.81379 0.0
C137 C 0.70367 0.30918 0.93833 0.0
C138 C 0.74593 0.26895 0.89629 0.0
C139 C 0.6174 0.363 0.73045 0.0
C140 C 0.62767 0.39296 0.70813 0.0
C141 C 0.65767 0.41537 0.71852 0.0
C142 C 0.67783 0.40761 0.7507 0.0
C143 C 0.66786 0.377 0.77257 0.0
C144 C 0.63782 0.35554 0.76252 0.0
C145 C 0.63137 0.32408 0.78894 0.0
C146 C 0.66278 0.3298 0.81617 0.0
C147 C 0.68403 0.36086 0.80649 0.0
C148 C 0.59315 0.32973 0.80732 0.0
C149 C 0.63529 0.28743 0.76725 0.0
C150 C 0.80133 0.41599 0.86101 0.0
C151 C 0.82362 0.40574 0.89095 0.0
C152 C 0.81317 0.37575 0.91337 0.0
C153 C 0.78094 0.35559 0.90563 0.0
C154 C 0.75908 0.36556 0.87505 0.0
C155 C 0.76922 0.39556 0.85358 0.0
C156 C 0.74282 0.40199 0.82213 0.0
C157 C 0.7155 0.37061 0.82787 0.0
C158 C 0.72512 0.34941 0.85894 0.0
C159 C 0.72445 0.44017 0.82776 0.0
C160 C 0.76461 0.39809 0.7855 0.0
H161 H 0.60777 0.25905 0.83122 0.0
H162 H 0.68767 0.2249 0.93754 0.0
H163 H 0.74326 0.24676 0.87525 0.0
H164 H 0.76915 0.28616 0.88642 0.0
H165 H 0.75382 0.25567 0.92282 0.0
H166 H 0.6739 0.31515 0.9432 0.0
H167 H 0.71331 0.29084 0.96099 0.0
H168 H 0.7177 0.33618 0.94066 0.0
H169 H 0.59421 0.34556 0.72296 0.0
H170 H 0.66565 0.4388 0.70159 0.0
H171 H 0.70059 0.42553 0.7571 0.0
H172 H 0.58827 0.35948 0.81316 0.0
H173 H 0.57049 0.32 0.78903 0.0
H174 H 0.59076 0.31581 0.83437 0.0
H175 H 0.65646 0.29004 0.7451 0.0
H176 H 0.64504 0.26426 0.78454 0.0
H177 H 0.60876 0.27955 0.75394 0.0
H178 H 0.59439 0.20359 0.86632 0.0
C179 C 0.62567 0.25266 0.85397 0.0
C180 C 0.90028 0.80446 0.38557 0.0
C181 C 0.88375 0.82134 0.41624 0.0
C182 C 0.85343 0.80442 0.43359 0.0
C183 C 0.85496 0.7549 0.38876 0.0
C184 C 0.88545 0.77118 0.37232 0.0
C185 C 0.8986 0.74975 0.33926 0.0
H186 H 0.87122 0.61051 0.21752 0.0
C187 C 0.8451 0.72169 0.3673 0.0
C188 C 0.87056 0.71846 0.33826 0.0
H189 H 0.95702 0.69357 0.21657 0.0
H190 H 0.93406 0.71869 0.27395 0.0
H191 H 0.87657 0.5934 0.30703 0.0
H192 H 0.80684 0.66203 0.23974 0.0
H193 H 0.77853 0.64427 0.27481 0.0
H194 H 0.8004 0.61298 0.24294 0.0
H195 H 0.8409 0.57513 0.27781 0.0
H196 H 0.83144 0.58934 0.32458 0.0
C197 C 0.93806 0.73533 0.34749 0.0
C198 C 0.89582 0.77513 0.3048 0.0
C199 C 0.72889 0.64925 0.39971 0.0
C200 C 0.71173 0.61874 0.3831 0.0
C201 C 0.72867 0.60118 0.35307 0.0
C202 C 0.76219 0.61442 0.33892 0.0
C203 C 0.77874 0.64567 0.35495 0.0
C204 C 0.76244 0.66222 0.38521 0.0
C205 C 0.78413 0.69513 0.3985 0.0
C206 C 0.81554 0.69604 0.37068 0.0
C207 C 0.8122 0.66701 0.3453 0.0
C208 C 0.79834 0.68667 0.43799 0.0
C209 C 0.75905 0.72973 0.39559 0.0
C210 C 0.88492 0.63408 0.2299 0.0
C211 C 0.91559 0.65058 0.21278 0.0
C212 C 0.93311 0.68088 0.22945 0.0
C213 C 0.91975 0.69533 0.26269 0.0
C214 C 0.88843 0.6793 0.27926 0.0
C215 C 0.87183 0.64887 0.26316 0.0
C216 C 0.83876 0.63568 0.28471 0.0
C217 C 0.8379 0.66363 0.31589 0.0
C218 C 0.86705 0.68907 0.31256 0.0
C219 C 0.84695 0.59622 0.2992 0.0
C220 C 0.80422 0.63853 0.25943 0.0
H221 H 0.81554 0.75981 0.43426 0.0
H222 H 0.92387 0.81703 0.372 0.0
H223 H 0.8721 0.7945 0.30724 0.0
H224 H 0.89042 0.75977 0.27906 0.0
H225 H 0.92128 0.79197 0.3013 0.0
H226 H 0.94076 0.72707 0.37698 0.0
H227 H 0.95918 0.75693 0.34185 0.0
H228 H 0.94502 0.71023 0.3317 0.0
H229 H 0.7163 0.66294 0.42311 0.0
H230 H 0.71578 0.57734 0.34034 0.0
H231 H 0.77364 0.60009 0.31572 0.0
H232 H 0.80594 0.65702 0.44083 0.0
H233 H 0.77684 0.69271 0.459 0.0
H234 H 0.82384 0.70199 0.44498 0.0
H235 H 0.73961 0.72739 0.37189 0.0
H236 H 0.77465 0.75542 0.39015 0.0
H237 H 0.74224 0.73334 0.42098 0.0
H238 H 0.84071 0.8171 0.45749 0.0
C239 C 0.83896 0.77122 0.42008 0.0
C240 C 0.95649 0.8194 -0.00059 0.0
C241 C 0.98542 0.79777 0.98563 0.0
C242 C 0.00803 0.81179 0.95729 0.0
C243 C 0.97038 0.8671 0.95407 0.0
C244 C 0.94947 0.85396 0.98327 0.0
C245 C 0.91789 0.87929 0.99249 0.0
H246 H 0.80751 0.02108 0.9418 0.0
C247 C 0.95329 0.90184 0.94082 0.0
C248 C 0.92264 0.90926 0.96341 0.0
H249 H 0.79365 0.94616 0.03363 0.0
H250 H 0.8535 0.91901 0.0213 0.0
H251 H 0.83511 0.96413 0.88676 0.0
H252 H 0.89902 0.03636 0.95641 0.0
H253 H 0.9196 0.03626 0.91241 0.0
H254 H 0.87285 0.05284 0.91762 0.0
H255 H 0.83949 0.01265 0.87739 0.0
H256 H 0.87264 0.97973 0.86046 0.0
C257 C 0.88135 0.85734 0.98751 0.0
C258 C 0.92425 0.89443 0.03192 0.0
C259 C 0.99707 0.95887 0.82012 0.0
C260 C 0.98329 0.98774 0.79832 0.0
C261 C 0.9549 0.0103 0.81213 0.0
C262 C 0.93914 0.00307 0.84681 0.0
C263 C 0.95162 0.97264 0.86757 0.0
C264 C 0.98086 0.95179 0.85461 0.0
C265 C 0.98996 0.92011 0.87993 0.0
C266 C 0.96083 0.92473 0.90975 0.0
C267 C 0.93831 0.95545 0.90229 0.0
C268 C 0.98491 0.88372 0.85794 0.0
C269 C 0.02944 0.92634 0.89526 0.0
C270 C 0.81785 0.99925 0.95951 0.0
C271 C 0.7962 0.98541 0.98849 0.0
C272 C 0.81011 0.957 0.01105 0.0
C273 C 0.84472 0.94122 0.00371 0.0
C274 C 0.8653 0.95372 0.97317 0.0
C275 C 0.85229 0.98303 0.95234 0.0
C276 C 0.87751 0.99216 0.92057 0.0
C277 C 0.90731 0.96298 0.92517 0.0
C278 C 0.89987 0.94037 0.9559 0.0
C279 C 0.85528 0.98726 0.88427 0.0
C280 C 0.89301 0.03156 0.92666 0.0
H281 H 0.01848 0.85538 0.91946 0.0
H282 H 0.93876 0.80901 0.02122 0.0
H283 H 0.95415 0.89983 0.03689 0.0
H284 H 0.91056 0.92126 0.03658 0.0
H285 H 0.91473 0.87435 0.05313 0.0
H286 H 0.88356 0.83752 0.96418 0.0
H287 H 0.87455 0.84123 0.01276 0.0
H288 H 0.85756 0.8749 0.98027 0.0
H289 H 0.01887 0.94116 0.80988 0.0
H290 H 0.94411 0.03281 0.79557 0.0
H291 H 0.91698 0.02067 0.85554 0.0
H292 H 0.96184 0.88617 0.83774 0.0
H293 H 0.01033 0.87676 0.84226 0.0
H294 H 0.97716 0.85996 0.87539 0.0
H295 H 0.0344 0.95615 0.90089 0.0
H296 H 0.03409 0.91234 0.92199 0.0
H297 H 0.05069 0.9171 0.8752 0.0
H298 H 0.03058 0.79537 0.9465 0.0
C299 C 0.00083 0.8465 0.94158 0.0
C300 C 0.71742 0.07341 0.49053 0.0
C301 C 0.73694 0.04362 0.47532 0.0
C302 C 0.72098 0.02282 0.44681 0.0
C303 C 0.6679 0.06358 0.44623 0.0
C304 C 0.68284 0.08283 0.47563 0.0
C305 C 0.65903 0.11503 0.48675 0.0
H306 H 0.51967 0.23204 0.44522 0.0
C307 C 0.63363 0.08251 0.43462 0.0
C308 C 0.62808 0.11251 0.45844 0.0
H309 H 0.59719 0.23846 0.53565 0.0
H310 H 0.62229 0.17885 0.51928 0.0
H311 H 0.50103 0.14206 0.45672 0.0
H312 H 0.57395 0.20452 0.38656 0.0
H313 H 0.55612 0.16851 0.35963 0.0
H314 H 0.525 0.20216 0.37876 0.0
H315 H 0.48478 0.16792 0.41764 0.0
H316 H 0.50034 0.12076 0.4132 0.0
C317 C 0.6446 0.1079 0.52642 0.0
C318 C 0.68217 0.1509 0.48234 0.0
C319 C 0.57051 0.04498 0.31482 0.0
C320 C 0.54073 0.06022 0.29517 0.0
C321 C 0.51993 0.0888 0.31093 0.0
C322 C 0.5296 0.10334 0.34542 0.0
C323 C 0.56063 0.08928 0.36413 0.0
C324 C 0.57991 0.05986 0.34933 0.0
C325 C 0.61213 0.04868 0.37321 0.0
C326 C 0.60958 0.07692 0.40408 0.0
C327 C 0.57951 0.10075 0.39845 0.0
C328 C 0.60499 0.00897 0.38763 0.0
C329 C 0.64804 0.05314 0.35019 0.0
C330 C 0.54167 0.22013 0.46169 0.0
C331 C 0.55689 0.23961 0.49154 0.0
C332 C 0.58536 0.22367 0.51249 0.0
C333 C 0.59991 0.1892 0.50283 0.0
C334 C 0.58597 0.17072 0.47168 0.0
C335 C 0.55656 0.18564 0.45232 0.0
C336 C 0.5455 0.16199 0.41998 0.0
C337 C 0.57381 0.13112 0.42255 0.0
C338 C 0.5976 0.13658 0.45271 0.0
C339 C 0.50575 0.1475 0.42684 0.0
C340 C 0.55003 0.18529 0.38424 0.0
H341 H 0.67609 0.01617 0.40987 0.0
H342 H 0.72932 0.08976 0.51258 0.0
H343 H 0.70118 0.14889 0.45829 0.0
H344 H 0.66523 0.17555 0.4766 0.0
H345 H 0.69929 0.15615 0.50725 0.0
H346 H 0.63966 0.07793 0.53121 0.0
H347 H 0.66484 0.11744 0.54742 0.0
H348 H 0.61758 0.1211 0.53168 0.0
H349 H 0.58688 0.0229 0.30307 0.0
H350 H 0.49681 0.10066 0.29602 0.0
H351 H 0.51322 0.12574 0.35565 0.0
H352 H 0.575 0.00428 0.39269 0.0
H353 H 0.61433 0.98801 0.36736 0.0
H354 H 0.61837 0.00356 0.41454 0.0
H355 H 0.6459 0.07703 0.33092 0.0
H356 H 0.67264 0.0592 0.36714 0.0
H357 H 0.65351 0.02812 0.33339 0.0
H358 H 0.73578 -0.00031 0.43499 0.0
C359 C 0.68645 0.03253 0.43225 0.0
C360 C 0.49965 0.57371 0.21166 0.0
C361 C 0.4856 0.54495 0.23351 0.0
C362 C 0.45747 0.5221 0.21944 0.0
C363 C 0.45466 0.55952 0.1638 0.0
C364 C 0.4838 0.58051 0.17693 0.0
C365 C 0.49305 0.61218 0.15158 0.0
H366 H 0.44152 0.72378 0.01095 0.0
C367 C 0.44142 0.57668 0.12904 0.0
C368 C 0.46401 0.60745 0.12162 0.0
H369 H 0.5335 0.7374 0.08562 0.0
H370 H 0.5218 0.67696 0.11198 0.0
H371 H 0.38683 0.69505 0.0672 0.0
H372 H 0.45701 0.63216 0.99487 0.0
H373 H 0.41292 0.61151 0.99474 0.0
H374 H 0.41825 0.65841 0.97847 0.0
H375 H 0.37741 0.69076 0.01874 0.0
H376 H 0.36072 0.65739 0.05176 0.0
C377 C 0.48801 0.64859 0.1735 0.0
C378 C 0.53256 0.60599 0.13643 0.0
C379 C 0.31991 0.53377 0.07291 0.0
C380 C 0.29799 0.54789 0.04428 0.0
C381 C 0.31208 0.57603 0.02143 0.0
C382 C 0.3471 0.59136 0.02824 0.0
C383 C 0.3679 0.57872 0.05858 0.0
C384 C 0.35474 0.54956 0.07958 0.0
C385 C 0.38021 0.54021 0.11107 0.0
C386 C 0.41025 0.56924 0.10626 0.0
C387 C 0.40279 0.59188 0.07557 0.0
C388 C 0.35839 0.54511 0.1476 0.0
C389 C 0.39531 0.50077 0.10471 0.0
C390 C 0.45941 0.71328 0.03255 0.0
C391 C 0.48821 0.73507 0.04658 0.0
C392 C 0.51103 0.72089 0.07466 0.0
C393 C 0.50405 0.68592 0.08999 0.0
C394 C 0.47358 0.66524 0.07742 0.0
C395 C 0.45259 0.67847 0.04834 0.0
C396 C 0.42093 0.65309 0.03909 0.0
C397 C 0.42567 0.62302 0.06807 0.0
C398 C 0.45646 0.6304 0.0906 0.0
C399 C 0.38444 0.67496 0.04412 0.0
C400 C 0.4272 0.63804 -0.00036 0.0
H401 H 0.42004 0.5113 0.17563 0.0
H402 H 0.52128 0.59162 0.22209 0.0
H403 H 0.53743 0.5762 0.13075 0.0
H404 H 0.53736 0.62008 0.10977 0.0
H405 H 0.55376 0.61518 0.15663 0.0
H406 H 0.46488 0.64614 0.19361 0.0
H407 H 0.51341 0.65561 0.18927 0.0
H408 H 0.48038 0.67232 0.15599 0.0
H409 H 0.30948 0.51211 0.09082 0.0
H410 H 0.29547 0.58705 0.99908 0.0
H411 H 0.35602 0.61341 0.01049 0.0
H412 H 0.33825 0.5682 0.14531 0.0
H413 H 0.34262 0.5197 0.15465 0.0
H414 H 0.376 0.55269 0.17124 0.0
H415 H 0.40101 0.49604 0.0749 0.0
H416 H 0.42198 0.49588 0.11874 0.0
H417 H 0.37503 0.47955 0.11383 0.0
H418 H 0.44649 0.49965 0.23601 0.0
C419 C 0.44209 0.52905 0.18453 0.0
C420 C 0.04046 0.31698 0.57169 0.0
C421 C 0.05574 0.29737 0.54199 0.0
C422 C 0.08408 0.31343 0.52088 0.0
C423 C 0.08457 0.36667 0.56132 0.0
C424 C 0.05523 0.35169 0.58079 0.0
C425 C 0.04423 0.37549 0.61302 0.0
H426 H 0.08683 0.51453 0.72984 0.0
C427 C 0.09628 0.40094 0.58012 0.0
C428 C 0.07257 0.40645 0.6103 0.0
H429 H 0.99633 0.43695 0.73713 0.0
H430 H 0.01213 0.4121 0.67727 0.0
H431 H 0.07436 0.53335 0.64007 0.0
H432 H 0.14522 0.46075 0.70177 0.0
H433 H 0.17189 0.47829 0.66535 0.0
H434 H 0.15314 0.50962 0.699 0.0
H435 H 0.11385 0.54965 0.66526 0.0
H436 H 0.11763 0.53407 0.61807 0.0
C437 C 0.00451 0.38986 0.6061 0.0
C438 C 0.04874 0.35239 0.64889 0.0
C439 C 0.21638 0.46399 0.54221 0.0
C440 C 0.23606 0.49379 0.5574 0.0
C441 C 0.22017 0.51469 0.58581 0.0
C442 C 0.18558 0.50506 0.60033 0.0
C443 C 0.1669 0.47397 0.58642 0.0
C444 C 0.18174 0.45465 0.55707 0.0
C445 C 0.15778 0.42242 0.54603 0.0
C446 C 0.12686 0.42499 0.57433 0.0
C447 C 0.13256 0.45507 0.59806 0.0
C448 C 0.14334 0.42948 0.50635 0.0
C449 C 0.18079 0.38656 0.55051 0.0
C450 C 0.07022 0.49256 0.71808 0.0
C451 C 0.04054 0.47725 0.73789 0.0
C452 C 0.01938 0.44884 0.72212 0.0
C453 C 0.02871 0.43443 0.6875 0.0
C454 C 0.05973 0.44844 0.66869 0.0
C455 C 0.07926 0.47781 0.68345 0.0
C456 C 0.11141 0.48897 0.65946 0.0
C457 C 0.10861 0.46072 0.62861 0.0
C458 C 0.07845 0.4369 0.63433 0.0
C459 C 0.10435 0.52866 0.64504 0.0
C460 C 0.14741 0.48452 0.68236 0.0
H461 H 0.1208 0.35849 0.51374 0.0
H462 H 0.01856 0.305 0.58828 0.0
H463 H 0.07261 0.33319 0.64667 0.0
H464 H 0.05489 0.3693 0.67341 0.0
H465 H 0.02368 0.33551 0.65446 0.0
H466 H -0.00017 0.39529 0.57621 0.0
H467 H 0.98351 0.36938 0.61526 0.0
H468 H 0.99911 0.41658 0.61975 0.0
H469 H 0.22822 0.44756 0.52023 0.0
H470 H 0.23508 0.53782 0.59761 0.0
H471 H 0.1753 0.52148 0.62266 0.0
H472 H 0.13835 0.45943 0.50158 0.0
H473 H 0.16361 0.42006 0.48537 0.0
H474 H 0.11635 0.41613 0.50106 0.0
H475 H 0.19996 0.38868 0.57446 0.0
H476 H 0.16379 0.36194 0.55645 0.0
H477 H 0.19775 0.38118 0.52554 0.0
H478 H 0.09594 0.29858 0.49782 0.0
C479 C 0.0985 0.34809 0.53027 0.0
Zn480 Zn 0.95792 0.07499 0.57719 0.0
Zn481 Zn 0.04091 0.99265 0.49269 0.0
Zn482 Zn 0.99926 0.03414 0.53467 0.0
C483 C 0.04829 0.06386 0.46597 0.0
C484 C 0.96983 0.96599 0.4849 0.0
O485 O 0.01279 0.02093 0.59354 0.0
O486 O 0.97022 0.05168 0.62484 0.0
C487 C 0.00276 0.12331 0.53824 0.0
O488 O 0.02898 0.07089 0.49504 0.0
O489 O 0.05614 0.03112 0.45738 0.0
O490 O 0.00261 0.95734 0.4771 0.0
O491 O 0.96279 0.99481 0.50452 0.0
O492 O 0.98081 0.12302 0.56523 0.0
O493 O 0.01169 0.09306 0.52179 0.0
O494 O 0.9404 0.02112 0.52208 0.0
O495 O 0.9099 0.06316 0.55432 0.0
C496 C 0.90994 0.03698 0.53148 0.0
O497 O 0.03891 0.00396 0.57059 0.0
O498 O 0.07652 0.97694 0.53062 0.0
C499 C 0.99699 0.02949 0.62427 0.0
C500 C 0.06786 0.98455 0.5634 0.0
Zn501 Zn 0.49137 0.04282 0.99172 0.0
Zn502 Zn 0.57395 0.95753 0.07514 0.0
Zn503 Zn 0.53226 -0.0 0.03379 0.0
C504 C 0.62186 0.99716 0.03051 0.0
C505 C 0.52861 0.9102 0.03585 0.0
O506 O 0.49206 0.02969 0.06987 0.0
O507 O 0.45561 0.05812 0.02964 0.0
C508 C 0.56271 0.06876 0.98466 0.0
O509 O 0.59131 0.01321 0.02164 0.0
O510 O 0.62201 0.9701 0.05245 0.0
O511 O 0.551 0.9097 0.0625 0.0
O512 O 0.51956 0.94097 0.02025 0.0
O513 O 0.53013 0.07799 0.97659 0.0
O514 O 0.56911 0.03957 0.0041 0.0
O515 O 0.50235 0.96413 0.99426 0.0
O516 O 0.476 0.00447 0.95636 0.0
C517 C 0.48324 0.97158 0.96514 0.0
O518 O 0.51891 0.01256 0.09228 0.0
O519 O 0.56133 0.98063 0.12284 0.0
C520 C 0.46338 0.04952 0.06245 0.0
C521 C 0.53492 0.00327 0.12272 0.0
Zn522 Zn 0.5412 0.54241 0.54118 0.0
Zn523 Zn 0.4565 0.46071 0.45582 0.0
Zn524 Zn 0.49845 0.5017 0.49834 0.0
C525 C 0.5012 0.41247 0.49482 0.0
C526 C 0.49624 0.50583 0.40861 0.0
O527 O 0.46261 0.54106 0.52884 0.0
O528 O 0.50288 0.57727 0.55757 0.0
C529 C 0.54828 0.4707 0.5664 0.0
O530 O 0.5105 0.44283 0.51091 0.0
O531 O 0.47888 0.41255 0.46811 0.0
O532 O 0.46938 0.48364 0.40809 0.0
O533 O 0.51191 0.51469 0.43937 0.0
O534 O 0.5569 0.50315 0.57549 0.0
O535 O 0.52828 0.46454 0.53755 0.0
O536 O 0.53779 0.5321 0.46247 0.0
O537 O 0.57589 0.55867 0.50244 0.0
C538 C 0.56681 0.55151 0.46965 0.0
O539 O 0.4398 0.51501 0.51113 0.0
O540 O 0.40874 0.47336 0.47872 0.0
C541 C 0.47002 0.5693 0.54919 0.0
C542 C 0.40914 0.49946 0.50164 0.0
Zn543 Zn 0.07564 0.57738 0.96015 0.0
Zn544 Zn 0.9895 0.49238 0.04079 0.0
Zn545 Zn 0.03312 0.53458 0.00045 0.0
C546 C 0.06072 0.46525 0.04946 0.0
C547 C 0.96488 0.4857 0.96881 0.0
O548 O 0.02017 0.59326 0.01418 0.0
O549 O 0.05244 0.62499 0.97285 0.0
C550 C 0.12259 0.53703 0.00546 0.0
O551 O 0.06862 0.49442 0.0305 0.0
O552 O 0.02765 0.45687 0.05654 0.0
O553 O 0.9552 0.4775 0.00122 0.0
O554 O 0.99417 0.50519 0.96281 0.0
O555 O 0.12307 0.56427 0.98374 0.0
O556 O 0.09187 0.52087 0.01381 0.0
O557 O 0.02111 0.52304 0.94134 0.0
O558 O 0.06404 0.55527 0.91169 0.0
C559 C 0.03748 0.53271 0.9112 0.0
O560 O 0.00254 0.57023 0.03993 0.0
O561 O 0.97329 0.53026 0.07616 0.0
C562 C 0.02944 0.62416 0.99894 0.0
C563 C 0.98203 0.56302 0.06817 0.0
C564 C 0.08732 0.12329 0.38189 0.0
C565 C 0.09863 0.13277 0.352 0.0
C566 C 0.07273 0.10947 0.41538 0.0
C567 C 0.05994 0.09241 0.44102 0.0
C568 C 0.44248 0.90994 0.88356 0.0
C569 C 0.43051 0.89913 0.85448 0.0
C570 C 0.45766 0.92526 0.91596 0.0
C571 C 0.47081 0.9431 0.94073 0.0
C572 C 0.59188 0.40918 0.64642 0.0
C573 C 0.60751 0.40094 0.6747 0.0
C574 C 0.57432 0.42338 0.61455 0.0
C575 C 0.56058 0.44132 0.59003 0.0
C576 C 0.94146 0.62543 0.14936 0.0
C577 C 0.9294 0.63662 0.17825 0.0
C578 C 0.95671 0.60966 0.11721 0.0
C579 C 0.96988 0.59155 0.09266 0.0
C580 C 0.37882 0.08819 0.12159 0.0
C581 C 0.34914 0.09969 0.13152 0.0
C582 C 0.41218 0.07357 0.10752 0.0
C583 C 0.43791 0.0609 0.09058 0.0
C584 C 0.1496 0.94358 0.62481 0.0
C585 C 0.17874 0.93146 0.63541 0.0
C586 C 0.1171 0.95894 0.60975 0.0
C587 C 0.09226 0.97218 0.59199 0.0
C588 C 0.88531 0.4417 0.90714 0.0
C589 C 0.85705 0.42596 0.89894 0.0
C590 C 0.91713 0.45942 0.92131 0.0
C591 C 0.94156 0.47324 0.93929 0.0
C592 C 0.64774 0.59312 0.40743 0.0
C593 C 0.6769 0.60511 0.39665 0.0
C594 C 0.6154 0.57774 0.42287 0.0
C595 C 0.59086 0.56429 0.44093 0.0
C596 C 0.11992 0.38098 0.08873 0.0
C597 C 0.12981 0.35118 0.09994 0.0
C598 C 0.10577 0.41437 0.0743 0.0
C599 C 0.08876 0.43999 0.0615 0.0
C600 C 0.62403 0.14859 0.94034 0.0
C601 C 0.63221 0.17679 0.9245 0.0
C602 C 0.60991 0.11683 0.95816 0.0
C603 C 0.592 0.09235 0.97204 0.0
C604 C 0.90829 0.88483 0.44282 0.0
C605 C 0.89756 0.85592 0.43026 0.0
C606 C 0.92337 0.91709 0.45872 0.0
C607 C 0.94109 0.9418 0.47229 0.0
C608 C 0.40905 0.65103 0.59071 0.0
C609 C 0.39834 0.68003 0.60297 0.0
C610 C 0.42406 0.61866 0.57511 0.0
C611 C 0.44164 0.59388 0.56164 0.0
C612 C 0.00498 0.99765 0.72911 0.0
C613 C 0.99584 0.99229 0.76075 0.0
C614 C 0.01008 0.00478 0.69102 0.0
C615 C 0.00796 0.01336 0.65886 0.0
C616 C 0.52646 0.0394 0.22657 0.0
C617 C 0.53307 0.04879 0.25783 0.0
C618 C 0.52268 0.02937 0.18907 0.0
C619 C 0.52501 0.01975 0.1573 0.0
C620 C 0.50593 0.53601 0.3033 0.0
C621 C 0.49741 0.54094 0.27141 0.0
C622 C 0.51028 0.52948 0.34162 0.0
C623 C 0.50767 0.52139 0.37388 0.0
C624 C 0.02767 0.49772 0.80684 0.0
C625 C 0.0335 0.48837 0.77543 0.0
C626 C 0.02479 0.50759 0.84445 0.0
C627 C 0.02755 0.5169 0.87628 0.0
C628 C 0.72691 0.00653 0.99884 0.0
C629 C 0.75859 0.99778 0.99313 0.0
C630 C 0.68879 0.01091 0.00631 0.0
C631 C 0.65665 0.00825 0.01487 0.0
C632 C 0.8057 0.02914 0.49582 0.0
C633 C 0.77436 0.03593 0.48665 0.0
C634 C 0.84333 0.02506 0.50552 0.0
C635 C 0.87523 0.02717 0.51497 0.0
C636 C 0.22805 0.52757 0.03552 0.0
C637 C 0.26001 0.53607 0.04037 0.0
C638 C 0.18968 0.52314 0.02901 0.0
C639 C 0.15738 0.52561 0.02092 0.0
C640 C 0.30498 0.50801 0.53711 0.0
C641 C 0.27357 0.50134 0.54619 0.0
C642 C 0.34266 0.51188 0.52753 0.0
C643 C 0.37456 0.50955 0.51814 0.0
C644 C 0.99593 0.72855 0.00705 0.0
C645 C 0.99014 0.76019 0.99818 0.0
C646 C 0.00377 0.69055 0.01181 0.0
C647 C 0.01283 0.65856 0.00953 0.0
C648 C 0.49761 0.80493 0.02638 0.0
C649 C 0.49239 0.77301 0.03476 0.0
C650 C 0.50454 0.84323 0.02213 0.0
C651 C 0.51287 0.87546 0.0247 0.0
C652 C 0.03617 0.22815 0.5286 0.0
C653 C 0.04491 0.2597 0.53491 0.0
C654 C 0.02719 0.19031 0.52516 0.0
C655 C 0.01836 0.15825 0.52772 0.0
C656 C 0.53639 0.30837 0.50516 0.0
C657 C 0.54571 0.27703 0.49893 0.0
C658 C 0.52656 0.34596 0.50823 0.0
C659 C 0.51718 0.37776 0.50526 0.0
loop_
_geom_bond_atom_site_label_1
_geom_bond_atom_site_label_2
_geom_bond_distance
_geom_bond_site_symmetry_2
_ccdc_geom_bond_type
C0 C1 1.391 . S
C0 C4 1.391 . S
C0 H42 0.948 . S
C1 C0 1.391 . S
C1 C2 1.391 . S
C2 C1 1.391 . S
C2 H58 0.947 . S
C2 C59 1.392 . S
C3 C4 1.391 . S
C3 C7 1.397 . S
C3 C59 1.419 . S
C4 C0 1.391 . S
C4 C3 1.391 . S
C4 C5 1.399 . S
C5 C4 1.399 . S
C5 C8 1.396 . S
C5 C17 1.453 . S
C5 C18 1.684 . S
H6 C30 0.948 . S
C7 C3 1.397 . S
C7 C8 1.394 . S
C7 C26 1.723 . S
C8 C5 1.396 . S
C8 C7 1.394 . S
C8 C38 1.723 . S
H9 C32 0.947 . S
H10 C33 0.948 . S
H11 C39 0.982 . S
H12 C40 0.979 . S
H13 C40 0.980 . S
H14 C40 0.983 . S
H15 C39 0.979 . S
H16 C39 0.977 . S
C17 C5 1.453 . S
C17 H46 0.982 . S
C17 H47 0.979 . S
C17 H48 0.977 . S
C18 C5 1.684 . S
C18 H43 0.979 . S
C18 H44 0.980 . S
C18 H45 0.983 . S
C19 C20 1.391 . S
C19 C24 1.391 . S
C19 H49 0.948 . S
C20 C19 1.391 . S
C20 C21 1.391 . S
C21 C20 1.391 . S
C21 C22 1.392 . S
C21 H50 0.947 . S
C22 C21 1.392 . S
C22 C23 1.419 . S
C22 H51 0.948 . S
C23 C22 1.419 . S
C23 C24 1.391 . S
C23 C27 1.397 . S
C24 C19 1.391 . S
C24 C23 1.391 . S
C24 C25 1.399 . S
C25 C24 1.399 . S
C25 C26 1.396 . S
C25 C28 1.453 . S
C25 C29 1.684 . S
C26 C7 1.723 . S
C26 C25 1.396 . S
C26 C27 1.394 . S
C27 C23 1.397 . S
C27 C26 1.394 . S
C27 C37 1.723 . S
C28 C25 1.453 . S
C28 H52 0.982 . S
C28 H53 0.979 . S
C28 H54 0.977 . S
C29 C25 1.684 . S
C29 H55 0.979 . S
C29 H56 0.980 . S
C29 H57 0.983 . S
C30 H6 0.948 . S
C30 C31 1.391 . S
C30 C35 1.391 . S
C31 C30 1.391 . S
C31 C32 1.391 . S
C32 H9 0.947 . S
C32 C31 1.391 . S
C32 C33 1.392 . S
C33 H10 0.948 . S
C33 C32 1.392 . S
C33 C34 1.419 . S
C34 C33 1.419 . S
C34 C35 1.391 . S
C34 C38 1.397 . S
C35 C30 1.391 . S
C35 C34 1.391 . S
C35 C36 1.399 . S
C36 C35 1.399 . S
C36 C37 1.396 . S
C36 C39 1.453 . S
C36 C40 1.684 . S
C37 C27 1.723 . S
C37 C36 1.396 . S
C37 C38 1.394 . S
C38 C8 1.723 . S
C38 C34 1.397 . S
C38 C37 1.394 . S
C39 H11 0.982 . S
C39 H15 0.979 . S
C39 H16 0.977 . S
C39 C36 1.453 . S
C40 H12 0.979 . S
C40 H13 0.980 . S
C40 H14 0.983 . S
C40 C36 1.684 . S
H41 C59 0.948 . S
H42 C0 0.948 . S
H43 C18 0.979 . S
H44 C18 0.980 . S
H45 C18 0.983 . S
H46 C17 0.982 . S
H47 C17 0.979 . S
H48 C17 0.977 . S
H49 C19 0.948 . S
H50 C21 0.947 . S
H51 C22 0.948 . S
H52 C28 0.982 . S
H53 C28 0.979 . S
H54 C28 0.977 . S
H55 C29 0.979 . S
H56 C29 0.980 . S
H57 C29 0.983 . S
H58 C2 0.947 . S
C59 C2 1.392 . S
C59 C3 1.419 . S
C59 H41 0.948 . S
C60 C61 1.391 . S
C60 C64 1.391 . S
C60 H102 0.948 . S
C61 C60 1.391 . S
C61 C62 1.391 . S
C62 C61 1.391 . S
C62 H118 0.947 . S
C62 C119 1.392 . S
C63 C64 1.391 . S
C63 C67 1.397 . S
C63 C119 1.419 . S
C64 C60 1.391 . S
C64 C63 1.391 . S
C64 C65 1.399 . S
C65 C64 1.399 . S
C65 C68 1.396 . S
C65 C77 1.453 . S
C65 C78 1.684 . S
H66 C90 0.948 . S
C67 C63 1.397 . S
C67 C68 1.394 . S
C67 C86 1.723 . S
C68 C65 1.396 . S
C68 C67 1.394 . S
C68 C98 1.723 . S
H69 C92 0.947 . S
H70 C93 0.948 . S
H71 C99 0.982 . S
H72 C100 0.979 . S
H73 C100 0.980 . S
H74 C100 0.983 . S
H75 C99 0.979 . S
H76 C99 0.977 . S
C77 C65 1.453 . S
C77 H106 0.982 . S
C77 H107 0.979 . S
C77 H108 0.977 . S
C78 C65 1.684 . S
C78 H103 0.979 . S
C78 H104 0.980 . S
C78 H105 0.983 . S
C79 C80 1.391 . S
C79 C84 1.391 . S
C79 H109 0.948 . S
C80 C79 1.391 . S
C80 C81 1.391 . S
C81 C80 1.391 . S
C81 C82 1.392 . S
C81 H110 0.947 . S
C82 C81 1.392 . S
C82 C83 1.419 . S
C82 H111 0.948 . S
C83 C82 1.419 . S
C83 C84 1.391 . S
C83 C87 1.397 . S
C84 C79 1.391 . S
C84 C83 1.391 . S
C84 C85 1.399 . S
C85 C84 1.399 . S
C85 C86 1.396 . S
C85 C88 1.453 . S
C85 C89 1.684 . S
C86 C67 1.723 . S
C86 C85 1.396 . S
C86 C87 1.394 . S
C87 C83 1.397 . S
C87 C86 1.394 . S
C87 C97 1.723 . S
C88 C85 1.453 . S
C88 H112 0.982 . S
C88 H113 0.979 . S
C88 H114 0.977 . S
C89 C85 1.684 . S
C89 H115 0.979 . S
C89 H116 0.980 . S
C89 H117 0.983 . S
C90 H66 0.948 . S
C90 C91 1.391 . S
C90 C95 1.391 . S
C91 C90 1.391 . S
C91 C92 1.391 . S
C92 H69 0.947 . S
C92 C91 1.391 . S
C92 C93 1.392 . S
C93 H70 0.948 . S
C93 C92 1.392 . S
C93 C94 1.419 . S
C94 C93 1.419 . S
C94 C95 1.391 . S
C94 C98 1.397 . S
C95 C90 1.391 . S
C95 C94 1.391 . S
C95 C96 1.399 . S
C96 C95 1.399 . S
C96 C97 1.396 . S
C96 C99 1.453 . S
C96 C100 1.684 . S
C97 C87 1.723 . S
C97 C96 1.396 . S
C97 C98 1.394 . S
C98 C68 1.723 . S
C98 C94 1.397 . S
C98 C97 1.394 . S
C99 H71 0.982 . S
C99 H75 0.979 . S
C99 H76 0.977 . S
C99 C96 1.453 . S
C100 H72 0.979 . S
C100 H73 0.980 . S
C100 H74 0.983 . S
C100 C96 1.684 . S
H101 C119 0.948 . S
H102 C60 0.948 . S
H103 C78 0.979 . S
H104 C78 0.980 . S
H105 C78 0.983 . S
H106 C77 0.982 . S
H107 C77 0.979 . S
H108 C77 0.977 . S
H109 C79 0.948 . S
H110 C81 0.947 . S
H111 C82 0.948 . S
H112 C88 0.982 . S
H113 C88 0.979 . S
H114 C88 0.977 . S
H115 C89 0.979 . S
H116 C89 0.980 . S
H117 C89 0.983 . S
H118 C62 0.947 . S
C119 C62 1.392 . S
C119 C63 1.419 . S
C119 H101 0.948 . S
C120 C121 1.391 . S
C120 C124 1.391 . S
C120 H162 0.948 . S
C121 C120 1.391 . S
C121 C122 1.391 . S
C122 C121 1.391 . S
C122 H178 0.947 . S
C122 C179 1.392 . S
C123 C124 1.391 . S
C123 C127 1.397 . S
C123 C179 1.419 . S
C124 C120 1.391 . S
C124 C123 1.391 . S
C124 C125 1.399 . S
C125 C124 1.399 . S
C125 C128 1.396 . S
C125 C137 1.453 . S
C125 C138 1.684 . S
H126 C150 0.948 . S
C127 C123 1.397 . S
C127 C128 1.394 . S
C127 C146 1.723 . S
C128 C125 1.396 . S
C128 C127 1.394 . S
C128 C158 1.723 . S
H129 C152 0.947 . S
H130 C153 0.948 . S
H131 C159 0.982 . S
H132 C160 0.979 . S
H133 C160 0.980 . S
H134 C160 0.983 . S
H135 C159 0.979 . S
H136 C159 0.977 . S
C137 C125 1.453 . S
C137 H166 0.982 . S
C137 H167 0.979 . S
C137 H168 0.977 . S
C138 C125 1.684 . S
C138 H163 0.979 . S
C138 H164 0.980 . S
C138 H165 0.983 . S
C139 C140 1.391 . S
C139 C144 1.391 . S
C139 H169 0.948 . S
C140 C139 1.391 . S
C140 C141 1.391 . S
C141 C140 1.391 . S
C141 C142 1.392 . S
C141 H170 0.947 . S
C142 C141 1.392 . S
C142 C143 1.419 . S
C142 H171 0.948 . S
C143 C142 1.419 . S
C143 C144 1.391 . S
C143 C147 1.397 . S
C144 C139 1.391 . S
C144 C143 1.391 . S
C144 C145 1.399 . S
C145 C144 1.399 . S
C145 C146 1.396 . S
C145 C148 1.453 . S
C145 C149 1.684 . S
C146 C127 1.723 . S
C146 C145 1.396 . S
C146 C147 1.394 . S
C147 C143 1.397 . S
C147 C146 1.394 . S
C147 C157 1.723 . S
C148 C145 1.453 . S
C148 H172 0.982 . S
C148 H173 0.979 . S
C148 H174 0.977 . S
C149 C145 1.684 . S
C149 H175 0.979 . S
C149 H176 0.980 . S
C149 H177 0.983 . S
C150 H126 0.948 . S
C150 C151 1.391 . S
C150 C155 1.391 . S
C151 C150 1.391 . S
C151 C152 1.391 . S
C152 H129 0.947 . S
C152 C151 1.391 . S
C152 C153 1.392 . S
C153 H130 0.948 . S
C153 C152 1.392 . S
C153 C154 1.419 . S
C154 C153 1.419 . S
C154 C155 1.391 . S
C154 C158 1.397 . S
C155 C150 1.391 . S
C155 C154 1.391 . S
C155 C156 1.399 . S
C156 C155 1.399 . S
C156 C157 1.396 . S
C156 C159 1.453 . S
C156 C160 1.684 . S
C157 C147 1.723 . S
C157 C156 1.396 . S
C157 C158 1.394 . S
C158 C128 1.723 . S
C158 C154 1.397 . S
C158 C157 1.394 . S
C159 H131 0.982 . S
C159 H135 0.979 . S
C159 H136 0.977 . S
C159 C156 1.453 . S
C160 H132 0.979 . S
C160 H133 0.980 . S
C160 H134 0.983 . S
C160 C156 1.684 . S
H161 C179 0.948 . S
H162 C120 0.948 . S
H163 C138 0.979 . S
H164 C138 0.980 . S
H165 C138 0.983 . S
H166 C137 0.982 . S
H167 C137 0.979 . S
H168 C137 0.977 . S
H169 C139 0.948 . S
H170 C141 0.947 . S
H171 C142 0.948 . S
H172 C148 0.982 . S
H173 C148 0.979 . S
H174 C148 0.977 . S
H175 C149 0.979 . S
H176 C149 0.980 . S
H177 C149 0.983 . S
H178 C122 0.947 . S
C179 C122 1.392 . S
C179 C123 1.419 . S
C179 H161 0.948 . S
C180 C181 1.391 . S
C180 C184 1.391 . S
C180 H222 0.948 . S
C181 C180 1.391 . S
C181 C182 1.391 . S
C182 C181 1.391 . S
C182 H238 0.947 . S
C182 C239 1.392 . S
C183 C184 1.391 . S
C183 C187 1.397 . S
C183 C239 1.419 . S
C184 C180 1.391 . S
C184 C183 1.391 . S
C184 C185 1.399 . S
C185 C184 1.399 . S
C185 C188 1.396 . S
C185 C197 1.453 . S
C185 C198 1.684 . S
H186 C210 0.948 . S
C187 C183 1.397 . S
C187 C188 1.394 . S
C187 C206 1.723 . S
C188 C185 1.396 . S
C188 C187 1.394 . S
C188 C218 1.723 . S
H189 C212 0.947 . S
H190 C213 0.948 . S
H191 C219 0.982 . S
H192 C220 0.979 . S
H193 C220 0.980 . S
H194 C220 0.983 . S
H195 C219 0.979 . S
H196 C219 0.977 . S
C197 C185 1.453 . S
C197 H226 0.982 . S
C197 H227 0.979 . S
C197 H228 0.977 . S
C198 C185 1.684 . S
C198 H223 0.979 . S
C198 H224 0.980 . S
C198 H225 0.983 . S
C199 C200 1.391 . S
C199 C204 1.391 . S
C199 H229 0.948 . S
C200 C199 1.391 . S
C200 C201 1.391 . S
C201 C200 1.391 . S
C201 C202 1.392 . S
C201 H230 0.947 . S
C202 C201 1.392 . S
C202 C203 1.419 . S
C202 H231 0.948 . S
C203 C202 1.419 . S
C203 C204 1.391 . S
C203 C207 1.397 . S
C204 C199 1.391 . S
C204 C203 1.391 . S
C204 C205 1.399 . S
C205 C204 1.399 . S
C205 C206 1.396 . S
C205 C208 1.453 . S
C205 C209 1.684 . S
C206 C187 1.723 . S
C206 C205 1.396 . S
C206 C207 1.394 . S
C207 C203 1.397 . S
C207 C206 1.394 . S
C207 C217 1.723 . S
C208 C205 1.453 . S
C208 H232 0.982 . S
C208 H233 0.979 . S
C208 H234 0.977 . S
C209 C205 1.684 . S
C209 H235 0.979 . S
C209 H236 0.980 . S
C209 H237 0.983 . S
C210 H186 0.948 . S
C210 C211 1.391 . S
C210 C215 1.391 . S
C211 C210 1.391 . S
C211 C212 1.391 . S
C212 H189 0.947 . S
C212 C211 1.391 . S
C212 C213 1.392 . S
C213 H190 0.948 . S
C213 C212 1.392 . S
C213 C214 1.419 . S
C214 C213 1.419 . S
C214 C215 1.391 . S
C214 C218 1.397 . S
C215 C210 1.391 . S
C215 C214 1.391 . S
C215 C216 1.399 . S
C216 C215 1.399 . S
C216 C217 1.396 . S
C216 C219 1.453 . S
C216 C220 1.684 . S
C217 C207 1.723 . S
C217 C216 1.396 . S
C217 C218 1.394 . S
C218 C188 1.723 . S
C218 C214 1.397 . S
C218 C217 1.394 . S
C219 H191 0.982 . S
C219 H195 0.979 . S
C219 H196 0.977 . S
C219 C216 1.453 . S
C220 H192 0.979 . S
C220 H193 0.980 . S
C220 H194 0.983 . S
C220 C216 1.684 . S
H221 C239 0.948 . S
H222 C180 0.948 . S
H223 C198 0.979 . S
H224 C198 0.980 . S
H225 C198 0.983 . S
H226 C197 0.982 . S
H227 C197 0.979 . S
H228 C197 0.977 . S
H229 C199 0.948 . S
H230 C201 0.947 . S
H231 C202 0.948 . S
H232 C208 0.982 . S
H233 C208 0.979 . S
H234 C208 0.977 . S
H235 C209 0.979 . S
H236 C209 0.980 . S
H237 C209 0.983 . S
H238 C182 0.947 . S
C239 C182 1.392 . S
C239 C183 1.419 . S
C239 H221 0.948 . S
C240 C241 1.391 1_654 S
C240 C244 1.391 1_554 S
C240 H282 0.948 . S
C241 C240 1.391 1_456 S
C241 C242 1.391 . S
C242 C241 1.391 . S
C242 H298 0.947 . S
C242 C299 1.392 . S
C243 C244 1.391 . S
C243 C247 1.397 . S
C243 C299 1.419 1_655 S
C244 C240 1.391 1_556 S
C244 C243 1.391 . S
C244 C245 1.399 . S
C245 C244 1.399 . S
C245 C248 1.396 . S
C245 C257 1.453 . S
C245 C258 1.684 1_556 S
H246 C270 0.948 . S
C247 C243 1.397 . S
C247 C248 1.394 . S
C247 C266 1.723 . S
C248 C245 1.396 . S
C248 C247 1.394 . S
C248 C278 1.723 . S
H249 C272 0.947 . S
H250 C273 0.948 . S
H251 C279 0.982 . S
H252 C280 0.979 . S
H253 C280 0.980 . S
H254 C280 0.983 . S
H255 C279 0.979 1_545 S
H256 C279 0.977 1_545 S
C257 C245 1.453 . S
C257 H286 0.982 . S
C257 H287 0.979 1_556 S
C257 H288 0.977 1_556 S
C258 C245 1.684 1_554 S
C258 H283 0.979 . S
C258 H284 0.980 . S
C258 H285 0.983 . S
C259 C260 1.391 1_565 S
C259 C264 1.391 . S
C259 H289 0.948 1_655 S
C260 C259 1.391 1_545 S
C260 C261 1.391 . S
C261 C260 1.391 . S
C261 C262 1.392 . S
C261 H290 0.947 . S
C262 C261 1.392 . S
C262 C263 1.419 1_545 S
C262 H291 0.948 . S
C263 C262 1.419 1_565 S
C263 C264 1.391 . S
C263 C267 1.397 . S
C264 C259 1.391 . S
C264 C263 1.391 . S
C264 C265 1.399 . S
C265 C264 1.399 . S
C265 C266 1.396 . S
C265 C268 1.453 . S
C265 C269 1.684 1_655 S
C266 C247 1.723 . S
C266 C265 1.396 . S
C266 C267 1.394 . S
C267 C263 1.397 . S
C267 C266 1.394 . S
C267 C277 1.723 . S
C268 C265 1.453 . S
C268 H292 0.982 . S
C268 H293 0.979 1_655 S
C268 H294 0.982 . S
C269 C265 1.684 1_455 S
C269 H295 0.979 . S
C269 H296 0.980 . S
C269 H297 0.983 . S
C270 H246 0.948 . S
C270 C271 1.391 1_546 S
C270 C275 1.391 1_545 S
C271 C270 1.391 1_564 S
C271 C272 1.391 . S
C272 H249 0.947 . S
C272 C271 1.391 . S
C272 C273 1.392 . S
C273 H250 0.948 . S
C273 C272 1.392 . S
C273 C274 1.419 1_554 S
C274 C273 1.419 1_556 S
C274 C275 1.391 . S
C274 C278 1.397 . S
C275 C270 1.391 1_565 S
C275 C274 1.391 . S
C275 C276 1.399 . S
C276 C275 1.399 . S
C276 C277 1.396 . S
C276 C279 1.453 . S
C276 C280 1.684 1_565 S
C277 C267 1.723 . S
C277 C276 1.396 . S
C277 C278 1.394 . S
C278 C248 1.723 . S
C278 C274 1.397 . S
C278 C277 1.394 . S
C279 H251 0.982 . S
C279 H255 0.979 1_565 S
C279 H256 0.977 1_565 S
C279 C276 1.453 . S
C280 H252 0.979 . S
C280 H253 0.980 . S
C280 H254 0.983 . S
C280 C276 1.684 1_545 S
H281 C299 0.948 . S
H282 C240 0.948 . S
H283 C258 0.979 . S
H284 C258 0.980 . S
H285 C258 0.983 . S
H286 C257 0.982 . S
H287 C257 0.979 1_554 S
H288 C257 0.977 1_554 S
H289 C259 0.948 1_455 S
H290 C261 0.947 . S
H291 C262 0.948 . S
H292 C268 0.982 . S
H293 C268 0.979 1_455 S
H294 C268 0.982 . S
H295 C269 0.979 . S
H296 C269 0.980 . S
H297 C269 0.983 . S
H298 C242 0.947 . S
C299 C242 1.392 . S
C299 C243 1.419 1_455 S
C299 H281 0.948 . S
C300 C301 1.391 . S
C300 C304 1.391 . S
C300 H342 0.948 . S
C301 C300 1.391 . S
C301 C302 1.391 . S
C302 C301 1.391 . S
C302 H358 0.947 . S
C302 C359 1.392 . S
C303 C304 1.391 . S
C303 C307 1.397 . S
C303 C359 1.419 . S
C304 C300 1.391 . S
C304 C303 1.391 . S
C304 C305 1.399 . S
C305 C304 1.399 . S
C305 C308 1.396 . S
C305 C317 1.453 . S
C305 C318 1.684 . S
H306 C330 0.948 . S
C307 C303 1.397 . S
C307 C308 1.394 . S
C307 C326 1.723 . S
C308 C305 1.396 . S
C308 C307 1.394 . S
C308 C338 1.723 . S
H309 C332 0.947 . S
H310 C333 0.948 . S
H311 C339 0.982 . S
H312 C340 0.979 . S
H313 C340 0.980 . S
H314 C340 0.983 . S
H315 C339 0.979 . S
H316 C339 0.977 . S
C317 C305 1.453 . S
C317 H346 0.982 . S
C317 H347 0.979 . S
C317 H348 0.977 . S
C318 C305 1.684 . S
C318 H343 0.979 . S
C318 H344 0.980 . S
C318 H345 0.983 . S
C319 C320 1.391 . S
C319 C324 1.391 . S
C319 H349 0.948 . S
C320 C319 1.391 . S
C320 C321 1.391 . S
C321 C320 1.391 . S
C321 C322 1.392 . S
C321 H350 0.947 . S
C322 C321 1.392 . S
C322 C323 1.419 . S
C322 H351 0.948 . S
C323 C322 1.419 . S
C323 C324 1.391 . S
C323 C327 1.397 . S
C324 C319 1.391 . S
C324 C323 1.391 . S
C324 C325 1.399 . S
C325 C324 1.399 . S
C325 C326 1.396 . S
C325 C328 1.453 . S
C325 C329 1.684 . S
C326 C307 1.723 . S
C326 C325 1.396 . S
C326 C327 1.394 . S
C327 C323 1.397 . S
C327 C326 1.394 . S
C327 C337 1.723 . S
C328 C325 1.453 . S
C328 H352 0.982 . S
C328 H353 0.979 1_545 S
C328 H354 0.977 . S
C329 C325 1.684 . S
C329 H355 0.979 . S
C329 H356 0.980 . S
C329 H357 0.983 . S
C330 H306 0.948 . S
C330 C331 1.391 . S
C330 C335 1.391 . S
C331 C330 1.391 . S
C331 C332 1.391 . S
C332 H309 0.947 . S
C332 C331 1.391 . S
C332 C333 1.392 . S
C333 H310 0.948 . S
C333 C332 1.392 . S
C333 C334 1.419 . S
C334 C333 1.419 . S
C334 C335 1.391 . S
C334 C338 1.397 . S
C335 C330 1.391 . S
C335 C334 1.391 . S
C335 C336 1.399 . S
C336 C335 1.399 . S
C336 C337 1.396 . S
C336 C339 1.453 . S
C336 C340 1.684 . S
C337 C327 1.723 . S
C337 C336 1.396 . S
C337 C338 1.394 . S
C338 C308 1.723 . S
C338 C334 1.397 . S
C338 C337 1.394 . S
C339 H311 0.982 . S
C339 H315 0.979 . S
C339 H316 0.977 . S
C339 C336 1.453 . S
C340 H312 0.979 . S
C340 H313 0.980 . S
C340 H314 0.983 . S
C340 C336 1.684 . S
H341 C359 0.948 . S
H342 C300 0.948 . S
H343 C318 0.979 . S
H344 C318 0.980 . S
H345 C318 0.983 . S
H346 C317 0.982 . S
H347 C317 0.979 . S
H348 C317 0.977 . S
H349 C319 0.948 . S
H350 C321 0.947 . S
H351 C322 0.948 . S
H352 C328 0.982 . S
H353 C328 0.979 1_565 S
H354 C328 0.977 . S
H355 C329 0.979 . S
H356 C329 0.980 . S
H357 C329 0.983 . S
H358 C302 0.947 . S
C359 C302 1.392 . S
C359 C303 1.419 . S
C359 H341 0.948 . S
C360 C361 1.391 . S
C360 C364 1.391 . S
C360 H402 0.948 . S
C361 C360 1.391 . S
C361 C362 1.391 . S
C362 C361 1.391 . S
C362 H418 0.947 . S
C362 C419 1.392 . S
C363 C364 1.391 . S
C363 C367 1.397 . S
C363 C419 1.419 . S
C364 C360 1.391 . S
C364 C363 1.391 . S
C364 C365 1.399 . S
C365 C364 1.399 . S
C365 C368 1.396 . S
C365 C377 1.453 . S
C365 C378 1.684 . S
H366 C390 0.948 . S
C367 C363 1.397 . S
C367 C368 1.394 . S
C367 C386 1.723 . S
C368 C365 1.396 . S
C368 C367 1.394 . S
C368 C398 1.723 . S
H369 C392 0.947 . S
H370 C393 0.948 . S
H371 C399 0.982 . S
H372 C400 0.979 . S
H373 C400 0.980 . S
H374 C400 0.983 . S
H375 C399 0.979 . S
H376 C399 0.977 . S
C377 C365 1.453 . S
C377 H406 0.982 . S
C377 H407 0.979 . S
C377 H408 0.977 . S
C378 C365 1.684 . S
C378 H403 0.979 . S
C378 H404 0.980 . S
C378 H405 0.983 . S
C379 C380 1.391 . S
C379 C384 1.391 . S
C379 H409 0.948 . S
C380 C379 1.391 . S
C380 C381 1.391 . S
C381 C380 1.391 . S
C381 C382 1.392 . S
C381 H410 0.947 1_554 S
C382 C381 1.392 . S
C382 C383 1.419 . S
C382 H411 0.948 . S
C383 C382 1.419 . S
C383 C384 1.391 . S
C383 C387 1.397 . S
C384 C379 1.391 . S
C384 C383 1.391 . S
C384 C385 1.399 . S
C385 C384 1.399 . S
C385 C386 1.396 . S
C385 C388 1.453 . S
C385 C389 1.684 . S
C386 C367 1.723 . S
C386 C385 1.396 . S
C386 C387 1.394 . S
C387 C383 1.397 . S
C387 C386 1.394 . S
C387 C397 1.723 . S
C388 C385 1.453 . S
C388 H412 0.982 . S
C388 H413 0.979 . S
C388 H414 0.977 . S
C389 C385 1.684 . S
C389 H415 0.979 . S
C389 H416 0.980 . S
C389 H417 0.983 . S
C390 H366 0.948 . S
C390 C391 1.391 . S
C390 C395 1.391 . S
C391 C390 1.391 . S
C391 C392 1.391 . S
C392 H369 0.947 . S
C392 C391 1.391 . S
C392 C393 1.392 . S
C393 H370 0.948 . S
C393 C392 1.392 . S
C393 C394 1.419 . S
C394 C393 1.419 . S
C394 C395 1.391 . S
C394 C398 1.397 . S
C395 C390 1.391 . S
C395 C394 1.391 . S
C395 C396 1.399 . S
C396 C395 1.399 . S
C396 C397 1.396 . S
C396 C399 1.453 . S
C396 C400 1.684 1_554 S
C397 C387 1.723 . S
C397 C396 1.396 . S
C397 C398 1.394 . S
C398 C368 1.723 . S
C398 C394 1.397 . S
C398 C397 1.394 . S
C399 H371 0.982 . S
C399 H375 0.979 . S
C399 H376 0.977 . S
C399 C396 1.453 . S
C400 H372 0.979 . S
C400 H373 0.980 . S
C400 H374 0.983 . S
C400 C396 1.684 1_556 S
H401 C419 0.948 . S
H402 C360 0.948 . S
H403 C378 0.979 . S
H404 C378 0.980 . S
H405 C378 0.983 . S
H406 C377 0.982 . S
H407 C377 0.979 . S
H408 C377 0.977 . S
H409 C379 0.948 . S
H410 C381 0.947 1_556 S
H411 C382 0.948 . S
H412 C388 0.982 . S
H413 C388 0.979 . S
H414 C388 0.977 . S
H415 C389 0.979 . S
H416 C389 0.980 . S
H417 C389 0.983 . S
H418 C362 0.947 . S
C419 C362 1.392 . S
C419 C363 1.419 . S
C419 H401 0.948 . S
C420 C421 1.391 . S
C420 C424 1.391 . S
C420 H462 0.948 . S
C421 C420 1.391 . S
C421 C422 1.391 . S
C422 C421 1.391 . S
C422 H478 0.947 . S
C422 C479 1.392 . S
C423 C424 1.391 . S
C423 C427 1.397 . S
C423 C479 1.419 . S
C424 C420 1.391 . S
C424 C423 1.391 . S
C424 C425 1.399 . S
C425 C424 1.399 . S
C425 C428 1.396 . S
C425 C437 1.453 . S
C425 C438 1.684 . S
H426 C450 0.948 . S
C427 C423 1.397 . S
C427 C428 1.394 . S
C427 C446 1.723 . S
C428 C425 1.396 . S
C428 C427 1.394 . S
C428 C458 1.723 . S
H429 C452 0.947 . S
H430 C453 0.948 . S
H431 C459 0.982 . S
H432 C460 0.979 . S
H433 C460 0.980 . S
H434 C460 0.983 . S
H435 C459 0.979 . S
H436 C459 0.977 . S
C437 C425 1.453 . S
C437 H466 0.982 . S
C437 H467 0.979 1_455 S
C437 H468 0.977 . S
C438 C425 1.684 . S
C438 H463 0.979 . S
C438 H464 0.980 . S
C438 H465 0.983 . S
C439 C440 1.391 . S
C439 C444 1.391 . S
C439 H469 0.948 . S
C440 C439 1.391 . S
C440 C441 1.391 . S
C441 C440 1.391 . S
C441 C442 1.392 . S
C441 H470 0.947 . S
C442 C441 1.392 . S
C442 C443 1.419 . S
C442 H471 0.948 . S
C443 C442 1.419 . S
C443 C444 1.391 . S
C443 C447 1.397 . S
C444 C439 1.391 . S
C444 C443 1.391 . S
C444 C445 1.399 . S
C445 C444 1.399 . S
C445 C446 1.396 . S
C445 C448 1.453 . S
C445 C449 1.684 . S
C446 C427 1.723 . S
C446 C445 1.396 . S
C446 C447 1.394 . S
C447 C443 1.397 . S
C447 C446 1.394 . S
C447 C457 1.723 . S
C448 C445 1.453 . S
C448 H472 0.982 . S
C448 H473 0.979 . S
C448 H474 0.977 . S
C449 C445 1.684 . S
C449 H475 0.979 . S
C449 H476 0.980 . S
C449 H477 0.983 . S
C450 H426 0.948 . S
C450 C451 1.391 . S
C450 C455 1.391 . S
C451 C450 1.391 . S
C451 C452 1.391 . S
C452 H429 0.947 . S
C452 C451 1.391 . S
C452 C453 1.392 . S
C453 H430 0.948 . S
C453 C452 1.392 . S
C453 C454 1.419 . S
C454 C453 1.419 . S
C454 C455 1.391 . S
C454 C458 1.397 . S
C455 C450 1.391 . S
C455 C454 1.391 . S
C455 C456 1.399 . S
C456 C455 1.399 . S
C456 C457 1.396 . S
C456 C459 1.453 . S
C456 C460 1.684 . S
C457 C447 1.723 . S
C457 C456 1.396 . S
C457 C458 1.394 . S
C458 C428 1.723 . S
C458 C454 1.397 . S
C458 C457 1.394 . S
C459 H431 0.982 . S
C459 H435 0.979 . S
C459 H436 0.977 . S
C459 C456 1.453 . S
C460 H432 0.979 . S
C460 H433 0.980 . S
C460 H434 0.983 . S
C460 C456 1.684 . S
H461 C479 0.948 . S
H462 C420 0.948 . S
H463 C438 0.979 . S
H464 C438 0.980 . S
H465 C438 0.983 . S
H466 C437 0.982 . S
H467 C437 0.979 1_655 S
H468 C437 0.977 . S
H469 C439 0.948 . S
H470 C441 0.947 . S
H471 C442 0.948 . S
H472 C448 0.982 . S
H473 C448 0.979 . S
H474 C448 0.977 . S
H475 C449 0.979 . S
H476 C449 0.980 . S
H477 C449 0.983 . S
H478 C422 0.947 . S
C479 C422 1.392 . S
C479 C423 1.419 . S
C479 H461 0.948 . S
Zn480 O486 1.920 . S
Zn480 O492 1.898 . S
Zn480 O495 1.905 . S
Zn481 O489 1.905 1_565 S
Zn481 O490 1.898 . S
Zn481 O498 1.920 . S
Zn482 O485 2.080 1_455 S
Zn482 O488 2.114 . S
Zn482 O491 2.120 1_445 S
Zn482 O493 2.120 . S
Zn482 O494 2.114 1_455 S
Zn482 O497 2.080 . S
C483 O488 1.166 . S
C483 O489 1.182 . S
C484 O490 1.167 1_655 S
C484 O491 1.299 . S
O485 Zn482 2.080 1_655 S
O485 C499 1.305 . S
O486 Zn480 1.920 . S
O486 C499 1.234 . S
C487 O492 1.167 1_455 S
C487 O493 1.299 . S
O488 Zn482 2.114 . S
O488 C483 1.166 . S
O489 Zn481 1.905 1_545 S
O489 C483 1.182 . S
O490 Zn481 1.898 . S
O490 C484 1.167 1_455 S
O491 Zn482 2.120 1_665 S
O491 C484 1.299 . S
O492 Zn480 1.898 . S
O492 C487 1.167 1_655 S
O493 Zn482 2.120 . S
O493 C487 1.299 . S
O494 Zn482 2.114 1_655 S
O494 C496 1.166 . S
O495 Zn480 1.905 . S
O495 C496 1.182 . S
C496 O494 1.166 . S
C496 O495 1.182 . S
O497 Zn482 2.080 . S
O497 C500 1.305 1_545 S
O498 Zn481 1.920 . S
O498 C500 1.234 . S
C499 O485 1.305 . S
C499 O486 1.234 . S
C500 O497 1.305 1_565 S
C500 O498 1.234 . S
Zn501 O507 1.920 1_556 S
Zn501 O513 1.898 . S
Zn501 O516 1.905 . S
Zn502 O510 1.905 . S
Zn502 O511 1.898 . S
Zn502 O519 1.920 . S
Zn503 O506 2.080 . S
Zn503 O509 2.114 1_545 S
Zn503 O512 2.120 1_545 S
Zn503 O514 2.120 . S
Zn503 O515 2.114 1_544 S
Zn503 O518 2.080 . S
C504 O509 1.166 . S
C504 O510 1.182 . S
C505 O511 1.167 . S
C505 O512 1.299 . S
O506 Zn503 2.080 . S
O506 C520 1.305 . S
O507 Zn501 1.920 1_554 S
O507 C520 1.234 . S
C508 O513 1.167 . S
C508 O514 1.299 1_556 S
O509 Zn503 2.114 1_565 S
O509 C504 1.166 . S
O510 Zn502 1.905 . S
O510 C504 1.182 . S
O511 Zn502 1.898 . S
O511 C505 1.167 . S
O512 Zn503 2.120 1_565 S
O512 C505 1.299 . S
O513 Zn501 1.898 . S
O513 C508 1.167 . S
O514 Zn503 2.120 . S
O514 C508 1.299 1_554 S
O515 Zn503 2.114 1_566 S
O515 C517 1.166 . S
O516 Zn501 1.905 . S
O516 C517 1.182 1_545 S
C517 O515 1.166 . S
C517 O516 1.182 1_565 S
O518 Zn503 2.080 . S
O518 C521 1.305 . S
O519 Zn502 1.920 . S
O519 C521 1.234 1_565 S
C520 O506 1.305 . S
C520 O507 1.234 . S
C521 O518 1.305 . S
C521 O519 1.234 1_545 S
Zn522 O528 1.920 . S
Zn522 O534 1.898 . S
Zn522 O537 1.905 . S
Zn523 O531 1.905 . S
Zn523 O532 1.898 . S
Zn523 O540 1.920 . S
Zn524 O527 2.080 . S
Zn524 O530 2.114 . S
Zn524 O533 2.120 . S
Zn524 O535 2.120 . S
Zn524 O536 2.114 . S
Zn524 O539 2.080 . S
C525 O530 1.166 . S
C525 O531 1.182 . S
C526 O532 1.167 . S
C526 O533 1.299 . S
O527 Zn524 2.080 . S
O527 C541 1.305 . S
O528 Zn522 1.920 . S
O528 C541 1.234 . S
C529 O534 1.167 . S
C529 O535 1.299 . S
O530 Zn524 2.114 . S
O530 C525 1.166 . S
O531 Zn523 1.905 . S
O531 C525 1.182 . S
O532 Zn523 1.898 . S
O532 C526 1.167 . S
O533 Zn524 2.120 . S
O533 C526 1.299 . S
O534 Zn522 1.898 . S
O534 C529 1.167 . S
O535 Zn524 2.120 . S
O535 C529 1.299 . S
O536 Zn524 2.114 . S
O536 C538 1.166 . S
O537 Zn522 1.905 . S
O537 C538 1.182 . S
C538 O536 1.166 . S
C538 O537 1.182 . S
O539 Zn524 2.080 . S
O539 C542 1.305 . S
O540 Zn523 1.920 . S
O540 C542 1.234 . S
C541 O527 1.305 . S
C541 O528 1.234 . S
C542 O539 1.305 . S
C542 O540 1.234 . S
Zn543 O549 1.920 . S
Zn543 O555 1.898 . S
Zn543 O558 1.905 . S
Zn544 O552 1.905 1_655 S
Zn544 O553 1.898 . S
Zn544 O561 1.920 . S
Zn545 O548 2.080 1_554 S
Zn545 O551 2.114 . S
Zn545 O554 2.120 1_454 S
Zn545 O556 2.120 . S
Zn545 O557 2.114 1_554 S
Zn545 O560 2.080 . S
C546 O551 1.166 . S
C546 O552 1.182 . S
C547 O553 1.167 1_556 S
C547 O554 1.299 . S
O548 Zn545 2.080 1_556 S
O548 C562 1.305 . S
O549 Zn543 1.920 . S
O549 C562 1.234 . S
C550 O555 1.167 1_554 S
C550 O556 1.299 . S
O551 Zn545 2.114 . S
O551 C546 1.166 . S
O552 Zn544 1.905 1_455 S
O552 C546 1.182 . S
O553 Zn544 1.898 . S
O553 C547 1.167 1_554 S
O554 Zn545 2.120 1_656 S
O554 C547 1.299 . S
O555 Zn543 1.898 . S
O555 C550 1.167 1_556 S
O556 Zn545 2.120 . S
O556 C550 1.299 . S
O557 Zn545 2.114 1_556 S
O557 C559 1.166 . S
O558 Zn543 1.905 . S
O558 C559 1.182 . S
C559 O557 1.166 . S
C559 O558 1.182 . S
O560 Zn545 2.080 . S
O560 C563 1.305 1_455 S
O561 Zn544 1.920 . S
O561 C563 1.234 . S
C562 O548 1.305 . S
C562 O549 1.234 . S
C563 O560 1.305 1_655 S
C563 O561 1.234 . S
C564 C565 1.170 . S
C564 C566 1.380 . S
C565 C564 1.170 . S
C566 C564 1.380 . S
C566 C567 1.170 . S
C567 C566 1.170 . S
C568 C569 1.170 . S
C568 C570 1.380 . S
C569 C568 1.170 . S
C570 C568 1.380 . S
C570 C571 1.170 . S
C571 C570 1.170 . S
C572 C573 1.170 . S
C572 C574 1.380 . S
C573 C572 1.170 . S
C574 C572 1.380 . S
C574 C575 1.170 . S
C575 C574 1.170 . S
C576 C577 1.170 . S
C576 C578 1.380 . S
C577 C576 1.170 . S
C578 C576 1.380 . S
C578 C579 1.170 . S
C579 C578 1.170 . S
C580 C581 1.170 . S
C580 C582 1.380 . S
C581 C580 1.170 . S
C582 C580 1.380 . S
C582 C583 1.170 . S
C583 C582 1.170 . S
C584 C585 1.170 . S
C584 C586 1.380 . S
C585 C584 1.170 . S
C586 C584 1.380 . S
C586 C587 1.170 . S
C587 C586 1.170 . S
C588 C589 1.170 . S
C588 C590 1.380 . S
C589 C588 1.170 . S
C590 C588 1.380 . S
C590 C591 1.170 . S
C591 C590 1.170 . S
C592 C593 1.170 . S
C592 C594 1.380 . S
C593 C592 1.170 . S
C594 C592 1.380 . S
C594 C595 1.170 . S
C595 C594 1.170 . S
C596 C597 1.170 . S
C596 C598 1.380 . S
C597 C596 1.170 . S
C598 C596 1.380 . S
C598 C599 1.170 . S
C599 C598 1.170 . S
C600 C601 1.170 . S
C600 C602 1.380 . S
C601 C600 1.170 . S
C602 C600 1.380 . S
C602 C603 1.170 . S
C603 C602 1.170 . S
C604 C605 1.170 . S
C604 C606 1.380 . S
C605 C604 1.170 . S
C606 C604 1.380 . S
C606 C607 1.170 . S
C607 C606 1.170 . S
C608 C609 1.170 . S
C608 C610 1.380 . S
C609 C608 1.170 . S
C610 C608 1.380 . S
C610 C611 1.170 . S
C611 C610 1.170 . S
C612 C613 1.170 . S
C612 C614 1.380 . S
C613 C612 1.170 . S
C614 C612 1.380 . S
C614 C615 1.170 . S
C615 C614 1.170 . S
C616 C617 1.170 . S
C616 C618 1.380 . S
C617 C616 1.170 . S
C618 C616 1.380 . S
C618 C619 1.170 . S
C619 C618 1.170 . S
C620 C621 1.170 . S
C620 C622 1.380 . S
C621 C620 1.170 . S
C622 C620 1.380 . S
C622 C623 1.170 . S
C623 C622 1.170 . S
C624 C625 1.170 . S
C624 C626 1.380 . S
C625 C624 1.170 . S
C626 C624 1.380 . S
C626 C627 1.170 . S
C627 C626 1.170 . S
C628 C629 1.170 . S
C628 C630 1.380 . S
C629 C628 1.170 . S
C630 C628 1.380 . S
C630 C631 1.170 . S
C631 C630 1.170 . S
C632 C633 1.170 . S
C632 C634 1.380 . S
C633 C632 1.170 . S
C634 C632 1.380 . S
C634 C635 1.170 . S
C635 C634 1.170 . S
C636 C637 1.170 . S
C636 C638 1.380 . S
C637 C636 1.170 . S
C638 C636 1.380 . S
C638 C639 1.170 . S
C639 C638 1.170 . S
C640 C641 1.170 . S
C640 C642 1.380 . S
C641 C640 1.170 . S
C642 C640 1.380 . S
C642 C643 1.170 . S
C643 C642 1.170 . S
C644 C645 1.170 . S
C644 C646 1.380 . S
C645 C644 1.170 . S
C646 C644 1.380 . S
C646 C647 1.170 . S
C647 C646 1.170 . S
C648 C649 1.170 . S
C648 C650 1.380 . S
C649 C648 1.170 . S
C650 C648 1.380 . S
C650 C651 1.170 . S
C651 C650 1.170 . S
C652 C653 1.170 . S
C652 C654 1.380 . S
C653 C652 1.170 . S
C654 C652 1.380 . S
C654 C655 1.170 . S
C655 C654 1.170 . S
C656 C657 1.170 . S
C656 C658 1.380 . S
C657 C656 1.170 . S
C658 C656 1.380 . S
C658 C659 1.170 . S
C659 C658 1.170 . S
C565 C1 1.521 . S
C567 C483 1.422 . S
C569 C80 1.503 . S
C571 C517 1.403 . S
C575 C529 1.387 . S
C573 C140 1.463 . S
C577 C211 1.482 . S
C579 C563 1.431 . S
C583 C520 1.445 . S
C581 C31 1.494 . S
C587 C500 1.411 . S
C585 C61 1.498 . S
C591 C547 1.407 . S
C589 C151 1.470 . S
C595 C538 1.427 . S
C593 C200 1.489 . S
C597 C20 1.515 . S
C599 C546 1.398 . S
C603 C508 1.378 . S
C601 C121 1.464 . S
C605 C181 1.499 . S
C607 C484 1.406 . S
C609 C91 1.502 . S
C611 C541 1.382 . S
C615 C499 1.672 . S
C613 C260 1.752 . S
C617 C320 1.625 . S
C619 C521 1.673 . S
C621 C361 1.771 . S
C623 C526 1.647 . S
C625 C451 1.680 . S
C627 C559 1.681 . S
C629 C271 1.776 . S
C631 C504 1.671 . S
C635 C496 1.698 . S
C633 C301 1.645 . S
C639 C550 1.672 . S
C637 C380 1.758 . S
C643 C542 1.645 . S
C641 C440 1.677 . S
C645 C241 1.723 . S
C647 C562 1.645 . S
C651 C505 1.662 . S
C649 C391 1.789 . S
C655 C487 1.635 . S
C653 C421 1.669 . S
C657 C331 1.638 . S
C659 C525 1.692 . S
