# Generated by pormake.
# Topology zzz, (3,6)-cn, num edge types: 1
# Building blocks:
#     Node 0, Type 0, BuildingBlock: BETDIP_clean_linker_0, # of connection points: 3
#     Node 1, Type 0, BuildingBlock: BETDIP_clean_linker_0, # of connection points: 3
#     Node 2, Type 0, BuildingBlock: BETDIP_clean_linker_0, # of connection points: 3
#     Node 3, Type 0, BuildingBlock: BETDIP_clean_linker_0, # of connection points: 3
#     Node 4, Type 0, BuildingBlock: BETDIP_clean_linker_0, # of connection points: 3
#     Node 5, Type 0, BuildingBlock: BETDIP_clean_linker_0, # of connection points: 3
#     Node 6, Type 0, BuildingBlock: BETDIP_clean_linker_0, # of connection points: 3
#     Node 7, Type 0, BuildingBlock: BETDIP_clean_linker_0, # of connection points: 3
#     Node 8, Type 1, BuildingBlock: MIFKUJ_clean_sbu_0, # of connection points: 6
#     Node 9, Type 1, BuildingBlock: MIFKUJ_clean_sbu_0, # of connection points: 6
#     Node 10, Type 1, BuildingBlock: MIFKUJ_clean_sbu_0, # of connection points: 6
#     Node 11, Type 1, BuildingBlock: MIFKUJ_clean_sbu_0, # of connection points: 6
#     Edge 12, Type (0, 1), BuildingBlock: EZIPEK_clean_linker_0, # of connection points: 2
#     Edge 13, Type (0, 1), BuildingBlock: EZIPEK_clean_linker_0, # of connection points: 2
#     Edge 14, Type (0, 1), BuildingBlock: EZIPEK_clean_linker_0, # of connection points: 2
#     Edge 15, Type (0, 1), BuildingBlock: EZIPEK_clean_linker_0, # of connection points: 2
#     Edge 16, Type (0, 1), BuildingBlock: EZIPEK_clean_linker_0, # of connection points: 2
#     Edge 17, Type (0, 1), BuildingBlock: EZIPEK_clean_linker_0, # of connection points: 2
#     Edge 18, Type (0, 1), BuildingBlock: EZIPEK_clean_linker_0, # of connection points: 2
#     Edge 19, Type (0, 1), BuildingBlock: EZIPEK_clean_linker_0, # of connection points: 2
#     Edge 20, Type (0, 1), BuildingBlock: EZIPEK_clean_linker_0, # of connection points: 2
#     Edge 21, Type (0, 1), BuildingBlock: EZIPEK_clean_linker_0, # of connection points: 2
#     Edge 22, Type (0, 1), BuildingBlock: EZIPEK_clean_linker_0, # of connection points: 2
#     Edge 23, Type (0, 1), BuildingBlock: EZIPEK_clean_linker_0, # of connection points: 2
#     Edge 24, Type (0, 1), BuildingBlock: EZIPEK_clean_linker_0, # of connection points: 2
#     Edge 25, Type (0, 1), BuildingBlock: EZIPEK_clean_linker_0, # of connection points: 2
#     Edge 26, Type (0, 1), BuildingBlock: EZIPEK_clean_linker_0, # of connection points: 2
#     Edge 27, Type (0, 1), BuildingBlock: EZIPEK_clean_linker_0, # of connection points: 2
#     Edge 28, Type (0, 1), BuildingBlock: EZIPEK_clean_linker_0, # of connection points: 2
#     Edge 29, Type (0, 1), BuildingBlock: EZIPEK_clean_linker_0, # of connection points: 2
#     Edge 30, Type (0, 1), BuildingBlock: EZIPEK_clean_linker_0, # of connection points: 2
#     Edge 31, Type (0, 1), BuildingBlock: EZIPEK_clean_linker_0, # of connection points: 2
#     Edge 32, Type (0, 1), BuildingBlock: EZIPEK_clean_linker_0, # of connection points: 2
#     Edge 33, Type (0, 1), BuildingBlock: EZIPEK_clean_linker_0, # of connection points: 2
#     Edge 34, Type (0, 1), BuildingBlock: EZIPEK_clean_linker_0, # of connection points: 2
#     Edge 35, Type (0, 1), BuildingBlock: EZIPEK_clean_linker_0, # of connection points: 2
# Relax obj value: 0.122
# Max RMSD: 0.123
# Mean RMSD: 0.084
data_MOF--net-zzz--node1-MIFKUJ_clean_sbu_0--node2-BETDIP_clean_linker_0--edge1-EZIPEK_clean_linker_0
_symmetry_space_group_name_H-M    P1
_symmetry_Int_Tables_number       1
_symmetry_cell_setting            triclinic
loop_
_symmetry_equiv_pos_as_xyz
'x, y, z'
_cell_length_a     37.58491
_cell_length_b     37.584434
_cell_length_c     11.946567
_cell_angle_alpha  89.807198
_cell_angle_beta   89.803554
_cell_angle_gamma 90.674081
loop_
_atom_site_label
_atom_site_type_symbol
_atom_site_fract_x
_atom_site_fract_y
_atom_site_fract_z
_atom_type_partial_charge
H0 H 0.70345 0.54715 0.27192 0.0
H1 H 0.73126 0.5617 0.92183 0.0
H2 H 0.81094 0.53342 0.15725 0.0
H3 H 0.68045 0.596 0.92579 0.0
C4 C 0.66472 0.57443 0.96211 0.0
C5 C 0.72297 0.54808 0.20505 0.0
C6 C 0.75896 0.5406 0.22766 0.0
C7 C 0.71247 0.55626 0.09417 0.0
C8 C 0.73836 0.55663 0.00809 0.0
C9 C 0.77345 0.54773 0.0314 0.0
C10 C 0.78344 0.54025 0.1403 0.0
N11 N 0.67576 0.56055 0.06759 0.0
H12 H 0.02064 0.71545 0.29036 0.0
H13 H -0.00284 0.72481 0.93697 0.0
H14 H 0.02733 0.81695 0.12334 0.0
H15 H 0.95406 0.67855 0.02088 0.0
C16 C 0.9776 0.66255 0.03064 0.0
C17 C 0.01868 0.73137 0.21498 0.0
C18 C 0.02442 0.76866 0.21938 0.0
C19 C 0.00902 0.71517 0.11199 0.0
C20 C 0.00512 0.73648 0.01597 0.0
C21 C 0.01231 0.77288 0.02091 0.0
C22 C 0.02264 0.78836 0.12096 0.0
N23 N 0.00376 0.67766 0.10349 0.0
H24 H 0.77986 0.96098 0.281 0.0
H25 H 0.75977 0.9488 0.92671 0.0
H26 H 0.67288 0.9576 0.15509 0.0
H27 H 0.81408 0.91341 0.95219 0.0
C28 C 0.82654 0.93775 0.98277 0.0
C29 C 0.76159 0.95711 0.21208 0.0
C30 C 0.72456 0.95825 0.23088 0.0
C31 C 0.77472 0.95224 0.10229 0.0
C32 C 0.75045 0.94985 0.01251 0.0
C33 C 0.71397 0.95251 0.03231 0.0
C34 C 0.70133 0.95497 0.14104 0.0
N35 N 0.81201 0.95375 0.08035 0.0
H36 H 0.47951 0.79413 0.28311 0.0
H37 H 0.50377 0.77406 0.93414 0.0
H38 H 0.48744 0.68717 0.15942 0.0
H39 H 0.46546 0.82128 0.92032 0.0
C40 C 0.47888 0.83935 0.97759 0.0
C41 C 0.48478 0.77593 0.21511 0.0
C42 C 0.48345 0.73884 0.23397 0.0
C43 C 0.49163 0.78913 0.10589 0.0
C44 C 0.49806 0.76489 0.01832 0.0
C45 C 0.49584 0.72839 0.03828 0.0
C46 C 0.48922 0.71574 0.14539 0.0
N47 N 0.49076 0.82637 0.08313 0.0
H48 H 0.28006 0.44754 0.94661 0.0
H49 H 0.27045 0.44408 0.30623 0.0
H50 H 0.17732 0.43922 0.10425 0.0
H51 H 0.31187 0.49496 0.24639 0.0
C52 C 0.32972 0.47413 0.21905 0.0
C53 C 0.26403 0.4428 0.02079 0.0
C54 C 0.2265 0.44164 0.01275 0.0
C55 C 0.28031 0.4421 0.12751 0.0
C56 C 0.25872 0.44105 0.22404 0.0
C57 C 0.22183 0.44205 0.21396 0.0
C58 C 0.20615 0.43795 0.10995 0.0
N59 N 0.31749 0.44867 0.13933 0.0
H60 H 0.02895 0.28662 0.95467 0.0
H61 H 0.99126 0.27252 0.29362 0.0
H62 H 0.99478 0.18346 0.0759 0.0
H63 H 0.96091 0.32979 0.22057 0.0
C64 C 0.98786 0.34048 0.21557 0.0
C65 C 0.01806 0.26988 0.02062 0.0
C66 C 0.01264 0.23293 0.00223 0.0
C67 C 0.0085 0.28492 0.12522 0.0
C68 C -0.00434 0.26245 0.21066 0.0
C69 C 0.99113 0.22621 0.19256 0.0
C70 C -0.00139 0.21187 0.08846 0.0
N71 N 0.013 0.32198 0.14771 0.0
H72 H 0.21493 0.08503 0.97244 0.0
H73 H 0.22204 0.02969 0.28901 0.0
H74 H 0.31314 0.03685 0.07535 0.0
H75 H 0.16398 0.00665 0.17803 0.0
C76 C 0.15631 0.03378 0.19726 0.0
C77 C 0.23023 0.07029 0.03325 0.0
C78 C 0.26612 0.062 0.01121 0.0
C79 C 0.21374 0.05735 0.13183 0.0
C80 C 0.23389 0.03843 0.21062 0.0
C81 C 0.26968 0.03181 0.19036 0.0
C82 C 0.28535 0.04287 0.09059 0.0
N83 N 0.17687 0.06235 0.1517 0.0
H84 H 0.48045 0.22923 0.92404 0.0
H85 H 0.48541 0.22738 0.28593 0.0
H86 H 0.48757 0.32656 0.11149 0.0
H87 H 0.43718 0.17793 0.22914 0.0
C88 C 0.46139 0.16686 0.19433 0.0
C89 C 0.48104 0.24299 0.00351 0.0
C90 C 0.48301 0.28056 0.00642 0.0
C91 C 0.4803 0.22347 0.1052 0.0
C92 C 0.48381 0.24171 0.20738 0.0
C93 C 0.48734 0.27853 0.20828 0.0
C94 C 0.48494 0.29773 0.10916 0.0
N95 N 0.47898 0.18559 0.10582 0.0
Zn96 Zn 0.98538 0.05372 0.60872 0.0
Zn97 Zn 0.01129 0.95099 0.60362 0.0
C98 C 0.99497 0.11224 0.75171 0.0
O99 O 0.96039 0.10669 0.75514 0.0
C100 C 0.0312 0.89861 0.45021 0.0
O101 O 0.0606 0.90603 0.50521 0.0
O102 O 0.96063 0.08886 0.51159 0.0
O103 O 0.01287 0.0227 0.5036 0.0
O104 O 0.05136 0.98584 0.57104 0.0
C105 C 0.97528 0.09723 0.41927 0.0
O106 O 0.00031 0.07705 0.37802 0.0
O107 O 0.01424 0.08903 0.70371 0.0
C108 C 0.00614 0.8876 0.71278 0.0
O109 O 0.97865 0.88747 0.64578 0.0
O110 O 0.02631 0.91495 0.71771 0.0
O111 O 0.96431 0.97055 0.66718 0.0
O112 O 0.94797 0.02609 0.69228 0.0
O113 O 0.00492 0.91908 0.46613 0.0
C114 C 0.04498 0.0143 0.51801 0.0
C115 C 0.94113 0.99298 0.69948 0.0
Zn116 Zn 0.4351 0.01174 0.59331 0.0
Zn117 Zn 0.54808 0.0073 0.61443 0.0
C118 C 0.37653 0.03132 0.7395 0.0
O119 O 0.3791 0.99777 0.76894 0.0
C120 C 0.61023 0.999 0.50264 0.0
O121 O 0.61165 0.02979 0.55401 0.0
O122 O 0.41305 0.99443 0.45172 0.0
O123 O 0.481 0.03719 0.55231 0.0
O124 O 0.53639 0.05321 0.53208 0.0
C125 C 0.38239 0.98091 0.46502 0.0
O126 O 0.37447 0.96579 0.56121 0.0
O127 O 0.39878 0.04441 0.6696 0.0
C128 C 0.59045 0.98267 0.77316 0.0
O129 O 0.57716 0.95519 0.71945 0.0
O130 O 0.57739 0.01301 0.75305 0.0
O131 O 0.50219 0.98315 0.66348 0.0
O132 O 0.4464 0.96971 0.69285 0.0
O133 O 0.58122 0.98107 0.50743 0.0
C134 C 0.50386 0.05818 0.50845 0.0
C135 C 0.47899 0.96319 0.71018 0.0
Zn136 Zn 0.51508 0.45719 0.57111 0.0
Zn137 Zn 0.48231 0.55612 0.62344 0.0
C138 C 0.51058 0.39993 0.71831 0.0
O139 O 0.54142 0.39718 0.66717 0.0
C140 C 0.46442 0.61974 0.51146 0.0
O141 O 0.43461 0.61102 0.56266 0.0
O142 O 0.53095 0.41956 0.46663 0.0
O143 O 0.48287 0.49015 0.47961 0.0
O144 O 0.44382 0.52423 0.56252 0.0
C145 C 0.50686 0.40628 0.40542 0.0
O146 O 0.47767 0.42426 0.38786 0.0
O147 O 0.49172 0.42709 0.69598 0.0
C148 C 0.49397 0.60118 0.7866 0.0
O149 O 0.52382 0.59709 0.73147 0.0
O150 O 0.46817 0.5803 0.76515 0.0
O151 O 0.52728 0.52943 0.655 0.0
O152 O 0.55826 0.48104 0.63746 0.0
O153 O 0.4903 0.59814 0.51596 0.0
C154 C 0.45061 0.49795 0.49963 0.0
C155 C 0.55556 0.51243 0.67453 0.0
Zn156 Zn 0.0529 0.49921 0.60561 0.0
Zn157 Zn 0.93985 0.50669 0.59866 0.0
C158 C 0.10699 0.49068 0.76896 0.0
O159 O 0.10549 0.5254 0.7583 0.0
C160 C 0.87564 0.50616 0.48758 0.0
O161 O 0.87946 0.47432 0.5308 0.0
O162 O 0.08122 0.49868 0.46469 0.0
O163 O 0.00692 0.4781 0.56923 0.0
O164 O 0.95444 0.46032 0.52485 0.0
C165 C 0.1135 0.50821 0.47211 0.0
O166 O 0.1234 0.5301 0.55144 0.0
O167 O 0.0829 0.47226 0.72092 0.0
C168 C 0.89624 0.52411 0.76372 0.0
O169 O 0.90733 0.55388 0.71725 0.0
O170 O 0.91099 0.49535 0.73546 0.0
O171 O 0.98154 0.5411 0.6521 0.0
O172 O 0.04003 0.54777 0.6633 0.0
O173 O 0.90176 0.52807 0.49561 0.0
C174 C 0.98755 0.45549 0.52002 0.0
C175 C 0.0089 0.55989 0.68049 0.0
C176 C 0.09325 0.01959 0.23785 0.0
C177 C 0.12442 0.03841 0.26906 0.0
C178 C 0.09863 0.04928 0.45481 0.0
C179 C 0.07082 0.02485 0.42984 0.0
N180 N 0.04182 0.98534 0.29825 0.0
N181 N 0.15779 0.07104 0.40848 0.0
C182 C 0.06786 0.00996 0.32098 0.0
C183 C 0.12718 0.05392 0.37717 0.0
N184 N 0.08795 0.01122 0.12784 0.0
N185 N 0.09761 0.06811 0.55244 0.0
H186 H 0.17884 0.07609 0.35373 0.0
H187 H 0.16312 0.0787 0.49047 0.0
H188 H 0.07735 0.06473 0.61161 0.0
H189 H 0.11501 0.08907 0.57039 0.0
H190 H 0.06425 0.00046 0.09731 0.0
H191 H 0.10606 0.01852 0.06515 0.0
H192 H 0.04117 0.97028 0.22525 0.0
H193 H 0.02209 0.97797 0.35545 0.0
C194 C 0.50624 0.14228 0.32926 0.0
C195 C 0.47719 0.13636 0.25589 0.0
C196 C 0.4702 0.07629 0.33409 0.0
C197 C 0.494 0.0852 0.42238 0.0
N198 N 0.52967 0.13048 0.51351 0.0
N199 N 0.42903 0.09818 0.1951 0.0
C200 C 0.51077 0.11925 0.42247 0.0
C201 C 0.45828 0.10352 0.26076 0.0
N202 N 0.52999 0.16932 0.30966 0.0
N203 N 0.46086 0.04163 0.31489 0.0
H204 H 0.42079 0.11667 0.13548 0.0
H205 H 0.412 0.07627 0.2046 0.0
H206 H 0.47171 0.02051 0.3594 0.0
H207 H 0.44584 0.03362 0.24605 0.0
H208 H 0.55301 0.17297 0.35685 0.0
H209 H 0.52941 0.18483 0.23754 0.0
H210 H 0.53958 0.15638 0.52122 0.0
H211 H 0.53189 0.11543 0.58656 0.0
C212 C 0.37159 0.45066 0.36342 0.0
C213 C 0.36556 0.47358 0.271 0.0
C214 C 0.41993 0.50747 0.31542 0.0
C215 C 0.42303 0.48774 0.41661 0.0
N216 N 0.40214 0.44119 0.53996 0.0
N217 N 0.38336 0.52318 0.15556 0.0
C218 C 0.39917 0.45918 0.4408 0.0
C219 C 0.3899 0.50152 0.24521 0.0
N220 N 0.35071 0.42095 0.37731 0.0
N221 N 0.44565 0.53194 0.28686 0.0
H222 H 0.36289 0.51804 0.09881 0.0
H223 H 0.39718 0.54678 0.13912 0.0
H224 H 0.4672 0.53813 0.33826 0.0
H225 H 0.44708 0.54459 0.20936 0.0
H226 H 0.35533 0.40141 0.43726 0.0
H227 H 0.33037 0.41417 0.32203 0.0
H228 H 0.38358 0.42259 0.56914 0.0
H229 H 0.42252 0.44632 0.59689 0.0
C230 C 0.01189 0.40203 0.26266 0.0
C231 C -0.00195 0.36849 0.29892 0.0
C232 C -0.00441 0.39117 0.49169 0.0
C233 C 0.00153 0.42592 0.45139 0.0
N234 N 0.01659 0.46558 0.29991 0.0
N235 N 0.97327 0.33249 0.4501 0.0
C236 C 0.01092 0.43163 0.33758 0.0
C237 C 0.98945 0.36323 0.41439 0.0
N238 N 0.02452 0.40603 0.15597 0.0
N239 N 0.99499 0.38519 0.60453 0.0
H240 H 0.96681 0.31154 0.39744 0.0
H241 H 0.96309 0.32906 0.53069 0.0
H242 H -0.00055 0.40563 0.66202 0.0
H243 H 0.99403 0.35983 0.63998 0.0
H244 H 0.03798 0.42875 0.128 0.0
H245 H 0.02379 0.38567 0.09711 0.0
H246 H 0.01927 0.47235 0.21571 0.0
H247 H 0.017 0.48741 0.35363 0.0
C248 C 0.87995 0.93062 0.86158 0.0
C249 C 0.8556 0.95399 0.91307 0.0
C250 C 0.88234 0.00392 0.80629 0.0
C251 C 0.90726 0.98006 0.75687 0.0
N252 N 0.91198 0.91969 0.69092 0.0
N253 N 0.82644 0.01105 0.90485 0.0
C254 C 0.90109 0.94299 0.77089 0.0
C255 C 0.85493 0.99032 0.87858 0.0
N256 N 0.8828 0.89629 0.89825 0.0
N257 N 0.88296 0.03923 0.77914 0.0
H258 H 0.80456 0.00205 0.95045 0.0
H259 H 0.82245 0.03634 0.87176 0.0
H260 H 0.89289 0.04882 0.70324 0.0
H261 H 0.87149 0.05866 0.82923 0.0
H262 H 0.90136 0.8787 0.86576 0.0
H263 H 0.86895 0.88641 0.96778 0.0
H264 H 0.90576 0.89259 0.69369 0.0
H265 H 0.92181 0.92826 0.61353 0.0
C266 C 0.47289 0.90592 0.96997 0.0
C267 C 0.48943 0.87462 0.93128 0.0
C268 C 0.50699 0.90452 0.75677 0.0
C269 C 0.48861 0.93523 0.79221 0.0
N270 N 0.46408 0.96935 0.9437 0.0
N271 N 0.53226 0.84776 0.80936 0.0
C272 C 0.47494 0.9373 0.90302 0.0
C273 C 0.50995 0.87527 0.83168 0.0
N274 N 0.45354 0.90505 0.06696 0.0
N275 N 0.51952 0.90229 0.64951 0.0
H276 H 0.53526 0.82649 0.86477 0.0
H277 H 0.55037 0.8479 0.74317 0.0
H278 H 0.51824 0.92327 0.59243 0.0
H279 H 0.52936 0.87897 0.61497 0.0
H280 H 0.43727 0.92569 0.09308 0.0
H281 H 0.45255 0.88279 0.11924 0.0
H282 H 0.4566 0.9734 0.02664 0.0
H283 H 0.46585 0.99276 0.89662 0.0
C284 C 0.61835 0.57946 0.81146 0.0
C285 C 0.6361 0.55793 0.89157 0.0
C286 C 0.59772 0.50775 0.83777 0.0
C287 C 0.5838 0.52788 0.74747 0.0
N288 N 0.58949 0.58024 0.63091 0.0
N289 N 0.6503 0.49741 0.94652 0.0
C290 C 0.59668 0.56298 0.7289 0.0
C291 C 0.62799 0.52085 0.8958 0.0
N292 N 0.62103 0.61572 0.8157 0.0
N293 N 0.58178 0.47658 0.87076 0.0
H294 H 0.67544 0.50448 0.97537 0.0
H295 H 0.64615 0.46995 0.94372 0.0
H296 H 0.55839 0.46676 0.83508 0.0
H297 H 0.58962 0.46277 0.94226 0.0
H298 H 0.60586 0.63227 0.76497 0.0
H299 H 0.63496 0.62924 0.87809 0.0
H300 H 0.60098 0.60476 0.60989 0.0
H301 H 0.57476 0.56856 0.56662 0.0
C302 C 0.96066 0.62889 0.85367 0.0
C303 C 0.98557 0.63497 0.94212 0.0
C304 C 0.03012 0.60161 0.83559 0.0
C305 C 0.00429 0.59234 0.75369 0.0
N306 N 0.95168 0.6115 0.65995 0.0
N307 N 0.03957 0.61465 0.03043 0.0
C308 C 0.97138 0.61013 0.75566 0.0
C309 C 0.01914 0.618 0.93683 0.0
N310 N 0.92587 0.63839 0.86622 0.0
N311 N 0.06553 0.59774 0.81384 0.0
H312 H 0.03021 0.62076 0.11013 0.0
H313 H 0.06313 0.60028 0.03142 0.0
H314 H 0.07521 0.5922 0.73408 0.0
H315 H 0.08531 0.60638 0.86873 0.0
H316 H 0.9061 0.63166 0.80892 0.0
H317 H 0.91536 0.64819 0.94054 0.0
H318 H 0.92925 0.62725 0.6509 0.0
H319 H 0.96032 0.6 0.58538 0.0
C320 C 0.94895 0.18412 0.28387 0.0
C321 C 0.98261 0.20137 0.28436 0.0
C322 C 0.00639 0.15552 0.40629 0.0
C323 C 0.97531 0.13476 0.38565 0.0
N324 N 0.91562 0.12916 0.31505 0.0
N325 N 0.04318 0.20562 0.34966 0.0
C326 C 0.94575 0.14931 0.32952 0.0
C327 C 0.01098 0.18825 0.3495 0.0
N328 N 0.92062 0.20103 0.2372 0.0
N329 N 0.03141 0.14387 0.48029 0.0
H330 H 0.04729 0.23046 0.3126 0.0
H331 H 0.06635 0.19479 0.38206 0.0
H332 H 0.02959 0.11934 0.5207 0.0
H333 H 0.05239 0.15965 0.5091 0.0
H334 H 0.89465 0.19117 0.23944 0.0
H335 H 0.92294 0.22669 0.20396 0.0
H336 H 0.89433 0.13676 0.26534 0.0
H337 H 0.91251 0.10379 0.34978 0.0
C338 C 0.30014 0.98031 0.28043 0.0
C339 C 0.29295 0.01715 0.27722 0.0
C340 C 0.346 0.03056 0.38556 0.0
C341 C 0.353 0.99333 0.39368 0.0
N342 N 0.33408 0.93247 0.36303 0.0
N343 N 0.30187 0.07566 0.3532 0.0
C344 C 0.32903 0.96805 0.34615 0.0
C345 C 0.3136 0.04165 0.33863 0.0
N346 N 0.28004 0.95739 0.21773 0.0
N347 N 0.37001 0.05573 0.42095 0.0
H348 H 0.27807 0.08472 0.31938 0.0
H349 H 0.31363 0.09362 0.40852 0.0
H350 H 0.3936 0.05054 0.46203 0.0
H351 H 0.36783 0.08263 0.40113 0.0
H352 H 0.28624 0.93075 0.20575 0.0
H353 H 0.2577 0.96561 0.17336 0.0
H354 H 0.3154 0.913 0.34177 0.0
H355 H 0.35637 0.92238 0.40344 0.0
C356 C 0.53195 0.31436 0.30477 0.0
C357 C 0.49779 0.29844 0.30859 0.0
C358 C 0.47619 0.34724 0.42091 0.0
C359 C 0.50651 0.36759 0.38632 0.0
N360 N 0.56494 0.36999 0.30063 0.0
N361 N 0.43883 0.29548 0.38463 0.0
C362 C 0.53553 0.35078 0.33289 0.0
C363 C 0.47062 0.31312 0.3743 0.0
N364 N 0.55987 0.2951 0.26565 0.0
N365 N 0.45309 0.36046 0.49828 0.0
H366 H 0.43517 0.26968 0.3543 0.0
H367 H 0.41613 0.30662 0.4195 0.0
H368 H 0.45718 0.38497 0.53675 0.0
H369 H 0.43199 0.34579 0.53224 0.0
H370 H 0.58613 0.30427 0.26638 0.0
H371 H 0.55663 0.26849 0.24231 0.0
H372 H 0.58515 0.35965 0.25106 0.0
H373 H 0.56812 0.39707 0.3166 0.0
C374 C 0.17499 0.43695 0.35977 0.0
C375 C 0.19947 0.45859 0.30038 0.0
C376 C 0.1661 0.5121 0.34722 0.0
C377 C 0.14111 0.4905 0.40555 0.0
N378 N 0.11872 0.43175 0.45718 0.0
N379 N 0.223 0.51695 0.25338 0.0
C380 C 0.14468 0.45271 0.40954 0.0
C381 C 0.19655 0.49627 0.29961 0.0
N382 N 0.18172 0.40143 0.37115 0.0
N383 N 0.15915 0.54738 0.32989 0.0
H384 H 0.24522 0.50671 0.21339 0.0
H385 H 0.22462 0.54445 0.26229 0.0
H386 H 0.13626 0.55966 0.35973 0.0
H387 H 0.17398 0.56388 0.2769 0.0
H388 H 0.16718 0.38416 0.42245 0.0
H389 H 0.20422 0.38972 0.33625 0.0
H390 H 0.11741 0.40423 0.44889 0.0
H391 H 0.09706 0.44143 0.50131 0.0
C392 C 0.98166 0.82453 0.94219 0.0
C393 C 0.00656 0.79703 0.92592 0.0
C394 C 0.03078 0.82824 0.76306 0.0
C395 C 0.00961 0.85797 0.79108 0.0
N396 N 0.97006 0.88714 0.91962 0.0
N397 N 0.05709 0.77336 0.8269 0.0
C398 C 0.98643 0.8569 0.88415 0.0
C399 C 0.03153 0.79873 0.83703 0.0
N400 N 0.95379 0.81961 0.01459 0.0
N401 N 0.04995 0.82811 0.66594 0.0
H402 H 0.05812 0.75095 0.87832 0.0
H403 H 0.07851 0.77555 0.7717 0.0
H404 H 0.05211 0.85033 0.61445 0.0
H405 H 0.06206 0.80551 0.63389 0.0
H406 H 0.93331 0.83784 0.02358 0.0
H407 H 0.94946 0.79561 0.05712 0.0
H408 H 0.95606 0.88858 -0.00511 0.0
H409 H 0.97324 0.91163 0.87911 0.0
C410 C 0.66077 0.93277 0.92964 0.0
C411 C 0.68793 0.95853 0.94245 0.0
C412 C 0.6522 0.00198 0.84068 0.0
C413 C 0.62277 0.97746 0.84263 0.0
N414 N 0.5974 0.92318 0.92024 0.0
N415 N 0.70821 0.01947 0.92398 0.0
C416 C 0.62666 0.94377 0.89561 0.0
C417 C 0.68353 0.99351 0.90056 0.0
N418 N 0.66743 0.89797 0.9539 0.0
N419 N 0.65123 0.03304 0.78114 0.0
H420 H 0.7322 0.01452 0.96414 0.0
H421 H 0.70381 0.04644 0.90998 0.0
H422 H 0.62849 0.04416 0.74815 0.0
H423 H 0.67409 0.0478 0.76166 0.0
H424 H 0.64933 0.87743 0.93751 0.0
H425 H 0.69253 0.88954 0.9794 0.0
H426 H 0.59869 0.8996 0.9661 0.0
H427 H 0.57147 0.93193 0.90766 0.0
C428 C 0.46585 0.69189 0.89349 0.0
C429 C 0.4977 0.70163 0.94904 0.0
C430 C 0.52164 0.64255 0.92071 0.0
C431 C 0.49091 0.63288 0.8588 0.0
N432 N 0.43366 0.64919 0.7817 0.0
N433 N 0.55891 0.69044 -0.00941 0.0
C434 C 0.46294 0.65775 0.84363 0.0
C435 C 0.52671 0.6783 0.95312 0.0
N436 N 0.43758 0.71448 0.89472 0.0
N437 N 0.54512 0.61701 0.95306 0.0
H438 H 0.56291 0.71689 0.01451 0.0
H439 H 0.58204 0.67547 0.98701 0.0
H440 H 0.54097 0.59004 0.93623 0.0
H441 H 0.56643 0.62199 0.00653 0.0
H442 H 0.41199 0.70724 0.86984 0.0
H443 H 0.43937 0.74041 0.92506 0.0
H444 H 0.41649 0.66809 0.74889 0.0
H445 H 0.42597 0.62321 0.76428 0.0
C446 C 0.83192 0.56609 0.95741 0.0
C447 C 0.80116 0.54453 0.94456 0.0
C448 C 0.83359 0.50556 0.81737 0.0
C449 C 0.86524 0.52547 0.83969 0.0
N450 N 0.89608 0.56743 0.95713 0.0
N451 N 0.77285 0.49153 0.87118 0.0
C452 C 0.8648 0.55369 0.91739 0.0
C453 C 0.80178 0.51393 0.87551 0.0
N454 N 0.82959 0.59825 0.00971 0.0
N455 N 0.83367 0.47861 0.74137 0.0
H456 H 0.74873 0.49684 0.91041 0.0
H457 H 0.77323 0.46659 0.83358 0.0
H458 H 0.85677 0.46593 0.717 0.0
H459 H 0.81063 0.46836 0.70471 0.0
H460 H 0.85077 0.61635 0.01382 0.0
H461 H 0.80542 0.60811 0.03887 0.0
H462 H 0.89732 0.58552 0.02296 0.0
H463 H 0.9208 0.55765 0.93265 0.0
C464 C 0.04647 0.1862 0.90489 0.0
C465 C 0.02088 0.21345 0.89671 0.0
C466 C 0.99021 0.17898 0.75207 0.0
C467 C 0.00923 0.1481 0.78542 0.0
N468 N 0.0579 0.123 0.89009 0.0
N469 N 0.97094 0.23837 0.8016 0.0
C470 C 0.03888 0.15204 0.85817 0.0
C471 C 0.99417 0.21103 0.81421 0.0
N472 N 0.07675 0.19277 0.96426 0.0
N473 N 0.96844 0.17761 0.66085 0.0
H474 H 0.97445 0.26259 0.84279 0.0
H475 H 0.94785 0.23665 0.75389 0.0
H476 H 0.96531 0.15472 0.61286 0.0
H477 H 0.95644 0.1999 0.62622 0.0
H478 H 0.09793 0.1752 0.96843 0.0
H479 H 0.08163 0.21762 0.00047 0.0
H480 H 0.07721 0.12372 0.95234 0.0
H481 H 0.05301 0.09753 0.85937 0.0
C482 C 0.317 0.09063 0.91379 0.0
C483 C 0.28518 0.07025 0.90484 0.0
C484 C 0.31054 0.03846 0.74624 0.0
C485 C 0.34477 0.05145 0.77663 0.0
N486 N 0.38082 0.09325 0.87986 0.0
N487 N 0.24902 0.02884 0.80133 0.0
C488 C 0.34801 0.07943 0.85532 0.0
C489 C 0.28076 0.04633 0.81479 0.0
N490 N 0.31762 0.11902 0.98461 0.0
N491 N 0.30681 0.01834 0.65225 0.0
H492 H 0.22633 0.03542 0.84666 0.0
H493 H 0.24532 0.00736 0.74767 0.0
H494 H 0.32845 0.01259 0.60157 0.0
H495 H 0.28241 0.01046 0.61901 0.0
H496 H 0.33917 0.13647 -0.00756 0.0
H497 H 0.29487 0.12649 0.0288 0.0
H498 H 0.38556 0.11108 0.9447 0.0
H499 H 0.40377 0.08579 0.83706 0.0
C500 C 0.45902 0.32315 0.86457 0.0
C501 C 0.48841 0.30412 0.90733 0.0
C502 C 0.52816 0.35309 0.85404 0.0
C503 C 0.5 0.37069 0.7983 0.0
N504 N 0.43706 0.37241 0.75418 0.0
N505 N 0.55171 0.29731 0.9201 0.0
C506 C 0.46487 0.35575 0.80437 0.0
C507 C 0.52325 0.31776 0.89239 0.0
N508 N 0.42541 0.31069 0.88653 0.0
N509 N 0.55894 0.37121 0.87797 0.0
H510 H 0.54869 0.27125 0.94949 0.0
H511 H 0.57793 0.30495 0.90308 0.0
H512 H 0.5622 0.39832 0.86119 0.0
H513 H 0.5791 0.36067 0.92728 0.0
H514 H 0.40241 0.32508 0.87159 0.0
H515 H 0.42074 0.28599 0.92443 0.0
H516 H 0.41225 0.36047 0.74207 0.0
H517 H 0.43859 0.39807 0.72227 0.0
C518 C 0.18694 0.43092 0.84804 0.0
C519 C 0.20616 0.45526 0.91527 0.0
C520 C 0.15752 0.49717 0.90304 0.0
C521 C 0.1389 0.47493 0.82634 0.0
N522 N 0.14002 0.42062 0.71441 0.0
N523 N 0.21492 0.5158 0.97341 0.0
C524 C 0.15479 0.44182 0.79463 0.0
C525 C 0.19348 0.49019 0.92787 0.0
N526 N 0.1986 0.39676 0.84012 0.0
N527 N 0.14013 0.52318 0.96033 0.0
H528 H 0.2414 0.5109 -0.00626 0.0
H529 H 0.20735 0.54233 0.97958 0.0
H530 H 0.11259 0.5262 0.95644 0.0
H531 H 0.15217 0.53812 0.02346 0.0
H532 H 0.18362 0.37615 0.80512 0.0
H533 H 0.22293 0.38901 0.87387 0.0
H534 H 0.15362 0.39966 0.67755 0.0
H535 H 0.11488 0.42399 0.68139 0.0
C536 C -0.00187 0.80444 0.37016 0.0
C537 C 0.02932 0.79054 0.32223 0.0
C538 C 0.06011 0.84755 0.35068 0.0
C539 C 0.02816 0.86295 0.39239 0.0
N540 N 0.9639 0.8564 0.41589 0.0
N541 N 0.09233 0.79382 0.30299 0.0
C542 C -0.00366 0.84147 0.39667 0.0
C543 C 0.06121 0.81049 0.32719 0.0
N544 N 0.97 0.78184 0.38836 0.0
N545 N 0.08832 0.86907 0.32213 0.0
H546 H 0.09271 0.76675 0.28336 0.0
H547 H 0.11732 0.80563 0.31312 0.0
H548 H 0.08697 0.89678 0.32397 0.0
H549 H 0.11126 0.85994 0.28312 0.0
H550 H 0.94733 0.7886 0.43344 0.0
H551 H 0.97136 0.75486 0.36858 0.0
H552 H 0.93993 0.84237 0.41148 0.0
H553 H 0.95954 0.88351 0.42113 0.0
C554 C 0.69766 0.00438 0.34502 0.0
C555 C 0.70749 0.96842 0.33778 0.0
C556 C 0.65627 0.95189 0.4559 0.0
C557 C 0.6426 0.98689 0.442 0.0
N558 N 0.64793 0.04417 0.34957 0.0
N559 N 0.69715 0.9073 0.3867 0.0
C560 C 0.66288 0.01272 0.38119 0.0
C561 C 0.68739 0.94205 0.39552 0.0
N562 N 0.72086 0.03028 0.30975 0.0
N563 N 0.6403 0.92829 0.52772 0.0
H564 H 0.72084 0.90004 0.34745 0.0
H565 H 0.68127 0.88601 0.41351 0.0
H566 H 0.61734 0.93389 0.57233 0.0
H567 H 0.65138 0.90397 0.54951 0.0
H568 H 0.7161 0.05734 0.32016 0.0
H569 H 0.74638 0.02429 0.28129 0.0
H570 H 0.66069 0.06247 0.2969 0.0
H571 H 0.62124 0.05002 0.36386 0.0
C572 C 0.50236 0.70934 0.40968 0.0
C573 C 0.4742 0.7212 0.34157 0.0
C574 C 0.43941 0.66777 0.38743 0.0
C575 C 0.46769 0.65526 0.45545 0.0
N576 N 0.52096 0.67047 0.55916 0.0
N577 N 0.4122 0.71861 0.2972 0.0
C578 C 0.49765 0.678 0.47542 0.0
C579 C 0.44114 0.70298 0.34412 0.0
N580 N 0.53428 0.72702 0.40636 0.0
N581 N 0.41247 0.64526 0.3557 0.0
H582 H 0.41375 0.74419 0.26284 0.0
H583 H 0.38657 0.70785 0.30278 0.0
H584 H 0.41167 0.61832 0.37656 0.0
H585 H 0.39305 0.65231 0.29796 0.0
H586 H 0.55743 0.71714 0.44201 0.0
H587 H 0.53764 0.751 0.36306 0.0
H588 H 0.5414 0.6877 0.58344 0.0
H589 H 0.51746 0.64891 0.61251 0.0
C590 C 0.78476 0.49578 0.34909 0.0
C591 C 0.77393 0.53133 0.33855 0.0
C592 C 0.82469 0.54958 0.4546 0.0
C593 C 0.84046 0.51562 0.4372 0.0
N594 N 0.83608 0.45814 0.34546 0.0
N595 N 0.78216 0.59268 0.3862 0.0
C596 C 0.82038 0.48882 0.38022 0.0
C597 C 0.79309 0.55831 0.39536 0.0
N598 N 0.76199 0.46917 0.31776 0.0
N599 N 0.83889 0.57309 0.52931 0.0
H600 H 0.75823 0.59912 0.34725 0.0
H601 H 0.7974 0.61442 0.41237 0.0
H602 H 0.86089 0.56745 0.57812 0.0
H603 H 0.82654 0.59672 0.55148 0.0
H604 H 0.76756 0.44231 0.32955 0.0
H605 H 0.73621 0.47467 0.29072 0.0
H606 H 0.82299 0.43923 0.29645 0.0
H607 H 0.86331 0.45369 0.352 0.0
loop_
_geom_bond_atom_site_label_1
_geom_bond_atom_site_label_2
_geom_bond_distance
_geom_bond_site_symmetry_2
_ccdc_geom_bond_type
H0 C5 0.930 . S
H1 C8 0.930 . S
H2 C10 0.930 . S
H3 C4 1.016 . S
C4 H3 1.016 . S
C4 N11 1.286 1_556 S
C5 H0 0.930 . S
C5 C6 1.397 . S
C5 C7 1.361 . S
C6 C5 1.397 . S
C6 C10 1.390 . S
C7 C5 1.361 . S
C7 C8 1.393 1_554 S
C7 N11 1.413 . S
C8 H1 0.930 . S
C8 C7 1.393 1_556 S
C8 C9 1.399 . S
C9 C8 1.399 . S
C9 C10 1.381 1_556 S
C10 H2 0.930 . S
C10 C6 1.390 . S
C10 C9 1.381 1_554 S
N11 C4 1.286 1_554 S
N11 C7 1.413 . S
H12 C17 0.930 . S
H13 C20 0.930 . S
H14 C22 0.930 . S
H15 C16 1.016 . S
C16 H15 1.016 . S
C16 N23 1.286 1_656 S
C17 H12 0.930 . S
C17 C18 1.397 . S
C17 C19 1.361 . S
C18 C17 1.397 . S
C18 C22 1.390 1_455 S
C19 C17 1.361 . S
C19 C20 1.393 1_554 S
C19 N23 1.413 . S
C20 H13 0.930 . S
C20 C19 1.393 1_556 S
C20 C21 1.403 . S
C21 C20 1.403 . S
C21 C22 1.379 1_456 S
C22 H14 0.930 . S
C22 C18 1.390 1_655 S
C22 C21 1.379 1_654 S
N23 C16 1.286 1_454 S
N23 C19 1.413 . S
H24 C29 0.930 . S
H25 C32 0.930 . S
H26 C34 0.930 . S
H27 C28 1.016 . S
C28 H27 1.016 . S
C28 N35 1.286 1_556 S
C29 H24 0.930 . S
C29 C30 1.397 . S
C29 C31 1.361 . S
C30 C29 1.397 . S
C30 C34 1.390 . S
C31 C29 1.361 . S
C31 C32 1.393 1_554 S
C31 N35 1.413 . S
C32 H25 0.930 . S
C32 C31 1.393 1_556 S
C32 C33 1.399 . S
C33 C32 1.399 . S
C33 C34 1.381 1_556 S
C34 H26 0.930 . S
C34 C30 1.390 . S
C34 C33 1.381 1_554 S
N35 C28 1.286 1_554 S
N35 C31 1.413 . S
H36 C41 0.930 . S
H37 C44 0.930 . S
H38 C46 0.930 . S
H39 C40 1.016 . S
C40 H39 1.016 . S
C40 N47 1.286 1_556 S
C41 H36 0.930 . S
C41 C42 1.397 . S
C41 C43 1.361 . S
C42 C41 1.397 . S
C42 C46 1.390 . S
C43 C41 1.361 . S
C43 C44 1.393 1_554 S
C43 N47 1.413 . S
C44 H37 0.930 . S
C44 C43 1.393 1_556 S
C44 C45 1.399 . S
C45 C44 1.399 . S
C45 C46 1.381 1_556 S
C46 H38 0.930 . S
C46 C42 1.390 . S
C46 C45 1.381 1_554 S
N47 C40 1.286 1_554 S
N47 C43 1.413 . S
H48 C53 0.930 . S
H49 C56 0.930 . S
H50 C58 0.930 . S
H51 C52 1.016 . S
C52 H51 1.016 . S
C52 N59 1.286 . S
C53 H48 0.930 . S
C53 C54 1.397 . S
C53 C55 1.361 . S
C54 C53 1.397 . S
C54 C58 1.390 . S
C55 C53 1.361 . S
C55 C56 1.393 . S
C55 N59 1.413 . S
C56 H49 0.930 . S
C56 C55 1.393 . S
C56 C57 1.399 . S
C57 C56 1.399 . S
C57 C58 1.381 . S
C58 H50 0.930 . S
C58 C54 1.390 . S
C58 C57 1.381 . S
N59 C52 1.286 . S
N59 C55 1.413 . S
H60 C65 0.921 1_556 S
H61 C68 0.930 . S
H62 C70 0.930 . S
H63 C64 1.027 . S
C64 H63 1.027 . S
C64 N71 1.271 1_655 S
C65 H60 0.921 1_554 S
C65 C66 1.397 . S
C65 C67 1.361 . S
C66 C65 1.397 . S
C66 C70 1.390 1_455 S
C67 C65 1.361 . S
C67 C68 1.393 . S
C67 N71 1.413 . S
C68 H61 0.930 . S
C68 C67 1.393 . S
C68 C69 1.404 . S
C69 C68 1.404 . S
C69 C70 1.378 1_455 S
C70 H62 0.930 . S
C70 C66 1.390 1_655 S
C70 C69 1.378 1_655 S
N71 C64 1.271 1_455 S
N71 C67 1.413 . S
H72 C77 0.930 . S
H73 C80 0.930 . S
H74 C82 0.930 . S
H75 C76 1.016 . S
C76 H75 1.016 . S
C76 N83 1.286 . S
C77 H72 0.930 . S
C77 C78 1.397 . S
C77 C79 1.361 . S
C78 C77 1.397 . S
C78 C82 1.390 . S
C79 C77 1.361 . S
C79 C80 1.393 . S
C79 N83 1.413 . S
C80 H73 0.930 . S
C80 C79 1.393 . S
C80 C81 1.399 . S
C81 C80 1.399 . S
C81 C82 1.381 . S
C82 H74 0.930 . S
C82 C78 1.390 . S
C82 C81 1.381 . S
N83 C76 1.286 . S
N83 C79 1.413 . S
H84 C89 0.930 1_556 S
H85 C92 0.930 . S
H86 C94 0.930 . S
H87 C88 1.016 . S
C88 H87 1.016 . S
C88 N95 1.286 . S
C89 H84 0.930 1_554 S
C89 C90 1.397 . S
C89 C91 1.361 . S
C90 C89 1.397 . S
C90 C94 1.390 . S
C91 C89 1.361 . S
C91 C92 1.393 . S
C91 N95 1.413 . S
C92 H85 0.930 . S
C92 C91 1.393 . S
C92 C93 1.399 . S
C93 C92 1.399 . S
C93 C94 1.381 . S
C94 H86 0.930 . S
C94 C90 1.390 . S
C94 C93 1.381 . S
N95 C88 1.286 . S
N95 C91 1.413 . S
Zn96 O102 1.969 . S
Zn96 O103 1.965 1_655 S
Zn96 O107 2.024 1_655 S
Zn96 O112 1.969 . S
Zn97 O104 1.969 . S
Zn97 O110 1.969 . S
Zn97 O111 1.965 1_455 S
Zn97 O113 2.024 1_455 S
C98 O99 1.229 1_455 S
C98 O107 1.058 . S
O99 C98 1.229 1_655 S
C100 O101 1.229 1_655 S
C100 O113 1.058 . S
O101 C100 1.229 1_455 S
O102 Zn96 1.969 . S
O102 C105 1.267 . S
O103 Zn96 1.965 1_455 S
O103 C114 1.260 . S
O104 Zn97 1.969 . S
O104 C114 1.258 1_565 S
C105 O102 1.267 . S
C105 O106 1.228 1_655 S
O106 C105 1.228 1_455 S
O107 Zn96 2.024 1_455 S
O107 C98 1.058 . S
C108 O109 1.228 1_455 S
C108 O110 1.267 . S
O109 C108 1.228 1_655 S
O110 Zn97 1.969 . S
O110 C108 1.267 . S
O111 Zn97 1.965 1_655 S
O111 C115 1.260 1_565 S
O112 Zn96 1.969 . S
O112 C115 1.258 . S
O113 Zn97 2.024 1_655 S
O113 C100 1.058 . S
C114 O103 1.260 . S
C114 O104 1.258 1_545 S
C115 O111 1.260 1_545 S
C115 O112 1.258 . S
Zn116 O122 1.969 1_545 S
Zn116 O123 1.965 . S
Zn116 O127 2.024 . S
Zn116 O132 1.969 1_545 S
Zn117 O124 1.972 . S
Zn117 O130 1.970 . S
Zn117 O131 1.963 1_545 S
Zn117 O133 2.022 1_545 S
C118 O119 1.255 . S
C118 O127 1.058 . S
O119 C118 1.255 . S
C120 O121 1.229 1_565 S
C120 O133 1.058 . S
O121 C120 1.229 1_545 S
O122 Zn116 1.969 1_565 S
O122 C125 1.267 1_565 S
O123 Zn116 1.965 . S
O123 C134 1.260 . S
O124 Zn117 1.972 . S
O124 C134 1.258 . S
C125 O122 1.267 1_545 S
C125 O126 1.228 . S
O126 C125 1.228 . S
O127 Zn116 2.024 . S
O127 C118 1.058 . S
C128 O129 1.228 . S
C128 O130 1.267 1_565 S
O129 C128 1.228 . S
O130 Zn117 1.970 . S
O130 C128 1.267 1_545 S
O131 Zn117 1.963 1_565 S
O131 C135 1.260 . S
O132 Zn116 1.969 1_565 S
O132 C135 1.258 . S
O133 Zn117 2.022 1_565 S
O133 C120 1.058 . S
C134 O123 1.260 . S
C134 O124 1.258 . S
C135 O131 1.260 . S
C135 O132 1.258 . S
Zn136 O142 1.969 . S
Zn136 O143 1.965 . S
Zn136 O147 2.024 . S
Zn136 O152 1.969 . S
Zn137 O144 1.969 . S
Zn137 O150 1.969 . S
Zn137 O151 1.965 . S
Zn137 O153 2.024 . S
C138 O139 1.229 . S
C138 O147 1.058 . S
O139 C138 1.229 . S
C140 O141 1.229 . S
C140 O153 1.058 . S
O141 C140 1.229 . S
O142 Zn136 1.969 . S
O142 C145 1.267 . S
O143 Zn136 1.965 . S
O143 C154 1.260 . S
O144 Zn137 1.969 . S
O144 C154 1.258 . S
C145 O142 1.267 . S
C145 O146 1.228 . S
O146 C145 1.228 . S
O147 Zn136 2.024 . S
O147 C138 1.058 . S
C148 O149 1.228 . S
C148 O150 1.267 . S
O149 C148 1.228 . S
O150 Zn137 1.969 . S
O150 C148 1.267 . S
O151 Zn137 1.965 . S
O151 C155 1.260 . S
O152 Zn136 1.969 . S
O152 C155 1.258 . S
O153 Zn137 2.024 . S
O153 C140 1.058 . S
C154 O143 1.260 . S
C154 O144 1.258 . S
C155 O151 1.260 . S
C155 O152 1.258 . S
Zn156 O162 1.969 . S
Zn156 O163 1.965 . S
Zn156 O167 2.024 . S
Zn156 O172 1.969 . S
Zn157 O164 1.969 . S
Zn157 O170 1.969 . S
Zn157 O171 1.965 . S
Zn157 O173 2.024 . S
C158 O159 1.229 . S
C158 O167 1.058 . S
O159 C158 1.229 . S
C160 O161 1.229 . S
C160 O173 1.058 . S
O161 C160 1.229 . S
O162 Zn156 1.969 . S
O162 C165 1.267 . S
O163 Zn156 1.965 . S
O163 C174 1.260 1_455 S
O164 Zn157 1.969 . S
O164 C174 1.258 . S
C165 O162 1.267 . S
C165 O166 1.228 . S
O166 C165 1.228 . S
O167 Zn156 2.024 . S
O167 C158 1.058 . S
C168 O169 1.228 . S
C168 O170 1.267 . S
O169 C168 1.228 . S
O170 Zn157 1.969 . S
O170 C168 1.267 . S
O171 Zn157 1.965 . S
O171 C175 1.260 1_655 S
O172 Zn156 1.969 . S
O172 C175 1.258 . S
O173 Zn157 2.024 . S
O173 C160 1.058 . S
C174 O163 1.260 1_655 S
C174 O164 1.258 . S
C175 O171 1.260 1_455 S
C175 O172 1.258 . S
C176 C177 1.363 . S
C176 C182 1.379 . S
C176 N184 1.356 . S
C177 C176 1.363 . S
C177 C183 1.363 . S
C178 C179 1.363 . S
C178 C183 1.379 . S
C178 N185 1.356 . S
C179 C178 1.363 . S
C179 C182 1.363 . S
N180 C182 1.356 1_565 S
N180 H192 0.984 . S
N180 H193 0.985 . S
N181 C183 1.356 . S
N181 H186 0.984 . S
N181 H187 0.985 . S
C182 C176 1.379 . S
C182 C179 1.363 . S
C182 N180 1.356 1_545 S
C183 C177 1.363 . S
C183 C178 1.379 . S
C183 N181 1.356 . S
N184 C176 1.356 . S
N184 H190 0.986 1_545 S
N184 H191 0.984 . S
N185 C178 1.356 . S
N185 H188 0.984 . S
N185 H189 0.985 . S
H186 N181 0.984 . S
H187 N181 0.985 . S
H188 N185 0.984 . S
H189 N185 0.985 . S
H190 N184 0.986 1_565 S
H191 N184 0.984 . S
H192 N180 0.984 . S
H193 N180 0.985 . S
C194 C195 1.363 . S
C194 C200 1.379 . S
C194 N202 1.356 . S
C195 C194 1.363 . S
C195 C201 1.363 . S
C196 C197 1.363 . S
C196 C201 1.379 . S
C196 N203 1.356 . S
C197 C196 1.363 . S
C197 C200 1.363 . S
N198 C200 1.356 . S
N198 H210 0.984 . S
N198 H211 0.985 . S
N199 C201 1.356 . S
N199 H204 0.984 . S
N199 H205 0.985 . S
C200 C194 1.379 . S
C200 C197 1.363 . S
C200 N198 1.356 . S
C201 C195 1.363 . S
C201 C196 1.379 . S
C201 N199 1.356 . S
N202 C194 1.356 . S
N202 H208 0.984 . S
N202 H209 0.984 . S
N203 C196 1.356 . S
N203 H206 0.984 . S
N203 H207 0.985 . S
H204 N199 0.984 . S
H205 N199 0.985 . S
H206 N203 0.984 . S
H207 N203 0.985 . S
H208 N202 0.984 . S
H209 N202 0.984 . S
H210 N198 0.984 . S
H211 N198 0.985 . S
C212 C213 1.363 . S
C212 C218 1.379 . S
C212 N220 1.356 . S
C213 C212 1.363 . S
C213 C219 1.363 . S
C214 C215 1.363 . S
C214 C219 1.379 . S
C214 N221 1.356 . S
C215 C214 1.363 . S
C215 C218 1.363 . S
N216 C218 1.356 . S
N216 H228 0.984 . S
N216 H229 0.985 . S
N217 C219 1.356 . S
N217 H222 0.984 . S
N217 H223 0.985 . S
C218 C212 1.379 . S
C218 C215 1.363 . S
C218 N216 1.356 . S
C219 C213 1.363 . S
C219 C214 1.379 . S
C219 N217 1.356 . S
N220 C212 1.356 . S
N220 H226 0.984 . S
N220 H227 0.984 . S
N221 C214 1.356 . S
N221 H224 0.984 . S
N221 H225 0.985 . S
H222 N217 0.984 . S
H223 N217 0.985 . S
H224 N221 0.984 . S
H225 N221 0.985 . S
H226 N220 0.984 . S
H227 N220 0.984 . S
H228 N216 0.984 . S
H229 N216 0.985 . S
C230 C231 1.363 1_455 S
C230 C236 1.379 . S
C230 N238 1.356 . S
C231 C230 1.363 1_655 S
C231 C237 1.364 . S
C232 C233 1.363 . S
C232 C237 1.379 . S
C232 N239 1.356 . S
C233 C232 1.363 . S
C233 C236 1.363 1_655 S
N234 C236 1.356 . S
N234 H246 0.984 . S
N234 H247 0.985 . S
N235 C237 1.356 . S
N235 H240 0.984 . S
N235 H241 0.985 . S
C236 C230 1.379 . S
C236 C233 1.363 1_455 S
C236 N234 1.356 . S
C237 C231 1.364 . S
C237 C232 1.379 . S
C237 N235 1.356 . S
N238 C230 1.356 . S
N238 H244 0.984 . S
N238 H245 0.984 . S
N239 C232 1.356 . S
N239 H242 0.984 . S
N239 H243 0.985 . S
H240 N235 0.984 . S
H241 N235 0.985 . S
H242 N239 0.984 . S
H243 N239 0.985 . S
H244 N238 0.984 . S
H245 N238 0.984 . S
H246 N234 0.984 . S
H247 N234 0.985 . S
C248 C249 1.363 . S
C248 C254 1.379 . S
C248 N256 1.356 . S
C249 C248 1.363 . S
C249 C255 1.363 . S
C250 C251 1.363 1_545 S
C250 C255 1.379 1_545 S
C250 N257 1.356 . S
C251 C250 1.363 1_565 S
C251 C254 1.363 . S
N252 C254 1.356 . S
N252 H264 0.984 . S
N252 H265 0.985 . S
N253 C255 1.356 1_545 S
N253 H258 0.984 1_545 S
N253 H259 0.985 . S
C254 C248 1.379 . S
C254 C251 1.363 . S
C254 N252 1.356 . S
C255 C249 1.363 . S
C255 C250 1.379 1_565 S
C255 N253 1.356 1_565 S
N256 C248 1.356 . S
N256 H262 0.984 1_556 S
N256 H263 0.984 1_556 S
N257 C250 1.356 . S
N257 H260 0.984 . S
N257 H261 0.985 . S
H258 N253 0.984 1_565 S
H259 N253 0.985 . S
H260 N257 0.984 . S
H261 N257 0.985 . S
H262 N256 0.984 1_554 S
H263 N256 0.984 1_554 S
H264 N252 0.984 . S
H265 N252 0.985 . S
C266 C267 1.363 . S
C266 C272 1.379 . S
C266 N274 1.356 1_556 S
C267 C266 1.363 . S
C267 C273 1.363 . S
C268 C269 1.363 . S
C268 C273 1.379 . S
C268 N275 1.356 . S
C269 C268 1.363 . S
C269 C272 1.363 . S
N270 C272 1.356 . S
N270 H282 0.984 . S
N270 H283 0.985 . S
N271 C273 1.356 . S
N271 H276 0.984 . S
N271 H277 0.985 . S
C272 C266 1.379 . S
C272 C269 1.363 . S
C272 N270 1.356 . S
C273 C267 1.363 . S
C273 C268 1.379 . S
C273 N271 1.356 . S
N274 C266 1.356 1_554 S
N274 H280 0.984 . S
N274 H281 0.984 . S
N275 C268 1.356 . S
N275 H278 0.984 . S
N275 H279 0.985 . S
H276 N271 0.984 . S
H277 N271 0.985 . S
H278 N275 0.984 . S
H279 N275 0.985 . S
H280 N274 0.984 . S
H281 N274 0.984 . S
H282 N270 0.984 . S
H283 N270 0.985 . S
C284 C285 1.363 . S
C284 C290 1.379 . S
C284 N292 1.356 . S
C285 C284 1.363 . S
C285 C291 1.363 . S
C286 C287 1.363 . S
C286 C291 1.379 . S
C286 N293 1.356 . S
C287 C286 1.363 . S
C287 C290 1.363 . S
N288 C290 1.356 . S
N288 H300 0.984 . S
N288 H301 0.985 . S
N289 C291 1.356 . S
N289 H294 0.984 . S
N289 H295 0.985 . S
C290 C284 1.379 . S
C290 C287 1.363 . S
C290 N288 1.356 . S
C291 C285 1.363 . S
C291 C286 1.379 . S
C291 N289 1.356 . S
N292 C284 1.356 . S
N292 H298 0.984 . S
N292 H299 0.984 1_556 S
N293 C286 1.356 . S
N293 H296 0.984 . S
N293 H297 0.985 . S
H294 N289 0.984 . S
H295 N289 0.985 . S
H296 N293 0.984 . S
H297 N293 0.985 . S
H298 N292 0.984 . S
H299 N292 0.984 1_554 S
H300 N288 0.984 . S
H301 N288 0.985 . S
C302 C303 1.357 1_655 S
C302 C308 1.379 . S
C302 N310 1.356 . S
C303 C302 1.357 1_455 S
C303 C309 1.369 . S
C304 C305 1.363 . S
C304 C309 1.379 . S
C304 N311 1.356 . S
C305 C304 1.363 . S
C305 C308 1.363 1_455 S
N306 C308 1.356 . S
N306 H318 0.984 . S
N306 H319 0.985 . S
N307 C309 1.356 . S
N307 H312 0.984 . S
N307 H313 0.985 . S
C308 C302 1.379 . S
C308 C305 1.363 1_655 S
C308 N306 1.356 . S
C309 C303 1.369 . S
C309 C304 1.379 . S
C309 N307 1.356 . S
N310 C302 1.356 . S
N310 H316 0.984 . S
N310 H317 0.984 1_556 S
N311 C304 1.356 . S
N311 H314 0.984 . S
N311 H315 0.985 . S
H312 N307 0.984 . S
H313 N307 0.985 . S
H314 N311 0.984 . S
H315 N311 0.985 . S
H316 N310 0.984 . S
H317 N310 0.984 1_554 S
H318 N306 0.984 . S
H319 N306 0.985 . S
C320 C321 1.363 . S
C320 C326 1.379 . S
C320 N328 1.356 . S
C321 C320 1.363 . S
C321 C327 1.363 1_655 S
C322 C323 1.363 1_455 S
C322 C327 1.379 . S
C322 N329 1.356 . S
C323 C322 1.363 1_655 S
C323 C326 1.363 . S
N324 C326 1.356 . S
N324 H336 0.984 . S
N324 H337 0.985 . S
N325 C327 1.356 . S
N325 H330 0.984 . S
N325 H331 0.985 . S
C326 C320 1.379 . S
C326 C323 1.363 . S
C326 N324 1.356 . S
C327 C321 1.363 1_455 S
C327 C322 1.379 . S
C327 N325 1.356 . S
N328 C320 1.356 . S
N328 H334 0.984 . S
N328 H335 0.984 . S
N329 C322 1.356 . S
N329 H332 0.984 . S
N329 H333 0.985 . S
H330 N325 0.984 . S
H331 N325 0.985 . S
H332 N329 0.984 . S
H333 N329 0.985 . S
H334 N328 0.984 . S
H335 N328 0.984 . S
H336 N324 0.984 . S
H337 N324 0.985 . S
C338 C339 1.363 . S
C338 C344 1.379 1_545 S
C338 N346 1.360 . S
C339 C338 1.363 . S
C339 C345 1.363 . S
C340 C341 1.363 . S
C340 C345 1.379 . S
C340 N347 1.356 . S
C341 C340 1.363 . S
C341 C344 1.363 1_545 S
N342 C344 1.356 . S
N342 H354 0.984 . S
N342 H355 0.985 . S
N343 C345 1.356 . S
N343 H348 0.984 . S
N343 H349 0.985 . S
C344 C338 1.379 1_565 S
C344 C341 1.363 1_565 S
C344 N342 1.356 . S
C345 C339 1.363 . S
C345 C340 1.379 . S
C345 N343 1.356 . S
N346 C338 1.360 . S
N346 H352 0.972 1_545 S
N346 H353 0.993 . S
N347 C340 1.356 . S
N347 H350 0.984 . S
N347 H351 0.985 . S
H348 N343 0.984 . S
H349 N343 0.985 . S
H350 N347 0.984 . S
H351 N347 0.985 . S
H352 N346 0.972 1_565 S
H353 N346 0.993 . S
H354 N342 0.984 . S
H355 N342 0.985 . S
C356 C357 1.363 . S
C356 C362 1.379 . S
C356 N364 1.356 . S
C357 C356 1.363 . S
C357 C363 1.363 . S
C358 C359 1.363 . S
C358 C363 1.379 . S
C358 N365 1.356 . S
C359 C358 1.363 . S
C359 C362 1.363 . S
N360 C362 1.356 . S
N360 H372 0.984 . S
N360 H373 0.985 . S
N361 C363 1.356 . S
N361 H366 0.984 . S
N361 H367 0.985 . S
C362 C356 1.379 . S
C362 C359 1.363 . S
C362 N360 1.356 . S
C363 C357 1.363 . S
C363 C358 1.379 . S
C363 N361 1.356 . S
N364 C356 1.356 . S
N364 H370 0.984 . S
N364 H371 0.984 . S
N365 C358 1.356 . S
N365 H368 0.984 . S
N365 H369 0.985 . S
H366 N361 0.984 . S
H367 N361 0.985 . S
H368 N365 0.984 . S
H369 N365 0.985 . S
H370 N364 0.984 . S
H371 N364 0.984 . S
H372 N360 0.984 . S
H373 N360 0.985 . S
C374 C375 1.363 . S
C374 C380 1.379 . S
C374 N382 1.356 . S
C375 C374 1.363 . S
C375 C381 1.363 . S
C376 C377 1.363 . S
C376 C381 1.379 . S
C376 N383 1.356 . S
C377 C376 1.363 . S
C377 C380 1.363 . S
N378 C380 1.356 . S
N378 H390 0.984 . S
N378 H391 0.985 . S
N379 C381 1.356 . S
N379 H384 0.984 . S
N379 H385 0.985 . S
C380 C374 1.379 . S
C380 C377 1.363 . S
C380 N378 1.356 . S
C381 C375 1.363 . S
C381 C376 1.379 . S
C381 N379 1.356 . S
N382 C374 1.356 . S
N382 H388 0.984 . S
N382 H389 0.984 . S
N383 C376 1.356 . S
N383 H386 0.984 . S
N383 H387 0.985 . S
H384 N379 0.984 . S
H385 N379 0.985 . S
H386 N383 0.984 . S
H387 N383 0.985 . S
H388 N382 0.984 . S
H389 N382 0.984 . S
H390 N378 0.984 . S
H391 N378 0.985 . S
C392 C393 1.363 1_655 S
C392 C398 1.379 . S
C392 N400 1.356 1_556 S
C393 C392 1.363 1_455 S
C393 C399 1.363 . S
C394 C395 1.363 . S
C394 C399 1.379 . S
C394 N401 1.356 . S
C395 C394 1.363 . S
C395 C398 1.363 1_455 S
N396 C398 1.356 . S
N396 H408 0.984 1_556 S
N396 H409 0.978 1_655 S
N397 C399 1.356 . S
N397 H402 0.984 . S
N397 H403 0.985 . S
C398 C392 1.379 . S
C398 C395 1.363 1_655 S
C398 N396 1.356 . S
C399 C393 1.363 . S
C399 C394 1.379 . S
C399 N397 1.356 . S
N400 C392 1.356 1_554 S
N400 H406 0.984 . S
N400 H407 0.984 . S
N401 C394 1.356 . S
N401 H404 0.984 . S
N401 H405 0.985 . S
H402 N397 0.984 . S
H403 N397 0.985 . S
H404 N401 0.984 . S
H405 N401 0.985 . S
H406 N400 0.984 . S
H407 N400 0.984 . S
H408 N396 0.984 1_554 S
H409 N396 0.978 1_455 S
C410 C411 1.363 . S
C410 C416 1.379 . S
C410 N418 1.356 . S
C411 C410 1.363 . S
C411 C417 1.350 1_565 S
C412 C413 1.363 1_545 S
C412 C417 1.384 . S
C412 N419 1.356 . S
C413 C412 1.363 1_565 S
C413 C416 1.363 . S
N414 C416 1.356 . S
N414 H426 0.984 . S
N414 H427 0.985 . S
N415 C417 1.360 . S
N415 H420 0.984 1_545 S
N415 H421 0.985 . S
C416 C410 1.379 . S
C416 C413 1.363 . S
C416 N414 1.356 . S
C417 C411 1.350 1_545 S
C417 C412 1.384 . S
C417 N415 1.360 . S
N418 C410 1.356 . S
N418 H424 0.984 . S
N418 H425 0.984 . S
N419 C412 1.356 . S
N419 H422 0.984 . S
N419 H423 0.985 . S
H420 N415 0.984 1_565 S
H421 N415 0.985 . S
H422 N419 0.984 . S
H423 N419 0.985 . S
H424 N418 0.984 . S
H425 N418 0.984 . S
H426 N414 0.984 . S
H427 N414 0.985 . S
C428 C429 1.363 . S
C428 C434 1.379 . S
C428 N436 1.356 . S
C429 C428 1.363 . S
C429 C435 1.363 . S
C430 C431 1.363 . S
C430 C435 1.379 . S
C430 N437 1.356 . S
C431 C430 1.363 . S
C431 C434 1.363 . S
N432 C434 1.356 . S
N432 H444 0.984 . S
N432 H445 0.985 . S
N433 C435 1.356 1_554 S
N433 H438 0.984 . S
N433 H439 0.985 . S
C434 C428 1.379 . S
C434 C431 1.363 . S
C434 N432 1.356 . S
C435 C429 1.363 . S
C435 C430 1.379 . S
C435 N433 1.356 1_556 S
N436 C428 1.356 . S
N436 H442 0.984 . S
N436 H443 0.984 . S
N437 C430 1.356 . S
N437 H440 0.984 . S
N437 H441 0.985 . S
H438 N433 0.984 . S
H439 N433 0.985 . S
H440 N437 0.984 . S
H441 N437 0.985 . S
H442 N436 0.984 . S
H443 N436 0.984 . S
H444 N432 0.984 . S
H445 N432 0.985 . S
C446 C447 1.363 . S
C446 C452 1.379 . S
C446 N454 1.356 1_556 S
C447 C446 1.363 . S
C447 C453 1.363 . S
C448 C449 1.363 . S
C448 C453 1.379 . S
C448 N455 1.356 . S
C449 C448 1.363 . S
C449 C452 1.363 . S
N450 C452 1.356 . S
N450 H462 0.984 1_556 S
N450 H463 0.985 . S
N451 C453 1.356 . S
N451 H456 0.984 . S
N451 H457 0.985 . S
C452 C446 1.379 . S
C452 C449 1.363 . S
C452 N450 1.356 . S
C453 C447 1.363 . S
C453 C448 1.379 . S
C453 N451 1.356 . S
N454 C446 1.356 1_554 S
N454 H460 0.984 . S
N454 H461 0.984 . S
N455 C448 1.356 . S
N455 H458 0.984 . S
N455 H459 0.985 . S
H456 N451 0.984 . S
H457 N451 0.985 . S
H458 N455 0.984 . S
H459 N455 0.985 . S
H460 N454 0.984 . S
H461 N454 0.984 . S
H462 N450 0.984 1_554 S
H463 N450 0.985 . S
C464 C465 1.363 1_554 S
C464 C470 1.379 1_554 S
C464 N472 1.356 . S
C465 C464 1.363 1_556 S
C465 C471 1.363 1_455 S
C466 C467 1.363 1_655 S
C466 C471 1.379 . S
C466 N473 1.356 . S
C467 C466 1.363 1_455 S
C467 C470 1.363 . S
N468 C470 1.356 . S
N468 H480 0.984 1_556 S
N468 H481 0.985 . S
N469 C471 1.356 . S
N469 H474 0.984 . S
N469 H475 0.985 . S
C470 C464 1.379 1_556 S
C470 C467 1.363 . S
C470 N468 1.356 . S
C471 C465 1.363 1_655 S
C471 C466 1.379 . S
C471 N469 1.356 . S
N472 C464 1.356 . S
N472 H478 0.984 . S
N472 H479 0.984 . S
N473 C466 1.356 . S
N473 H476 0.984 . S
N473 H477 0.985 . S
H474 N469 0.984 . S
H475 N469 0.985 . S
H476 N473 0.984 . S
H477 N473 0.985 . S
H478 N472 0.984 . S
H479 N472 0.984 . S
H480 N468 0.984 1_554 S
H481 N468 0.985 . S
C482 C483 1.363 1_554 S
C482 C488 1.379 1_554 S
C482 N490 1.356 . S
C483 C482 1.363 1_556 S
C483 C489 1.363 . S
C484 C485 1.363 . S
C484 C489 1.379 . S
C484 N491 1.356 . S
C485 C484 1.363 . S
C485 C488 1.363 . S
N486 C488 1.356 1_554 S
N486 H498 0.984 . S
N486 H499 0.985 1_554 S
N487 C489 1.356 . S
N487 H492 0.984 . S
N487 H493 0.985 . S
C488 C482 1.379 1_556 S
C488 C485 1.363 . S
C488 N486 1.356 1_556 S
C489 C483 1.363 . S
C489 C484 1.379 . S
C489 N487 1.356 . S
N490 C482 1.356 . S
N490 H496 0.984 . S
N490 H497 0.984 . S
N491 C484 1.356 . S
N491 H494 0.984 . S
N491 H495 0.985 . S
H492 N487 0.984 . S
H493 N487 0.985 . S
H494 N491 0.984 . S
H495 N491 0.985 . S
H496 N490 0.984 . S
H497 N490 0.984 . S
H498 N486 0.984 . S
H499 N486 0.985 1_556 S
C500 C501 1.363 . S
C500 C506 1.379 . S
C500 N508 1.356 . S
C501 C500 1.363 . S
C501 C507 1.363 . S
C502 C503 1.363 . S
C502 C507 1.379 . S
C502 N509 1.356 . S
C503 C502 1.363 . S
C503 C506 1.363 . S
N504 C506 1.356 . S
N504 H516 0.984 . S
N504 H517 0.985 . S
N505 C507 1.356 1_554 S
N505 H510 0.984 . S
N505 H511 0.985 . S
C506 C500 1.379 . S
C506 C503 1.363 . S
C506 N504 1.356 . S
C507 C501 1.363 . S
C507 C502 1.379 . S
C507 N505 1.356 1_556 S
N508 C500 1.356 . S
N508 H514 0.984 . S
N508 H515 0.984 . S
N509 C502 1.356 . S
N509 H512 0.984 . S
N509 H513 0.985 1_556 S
H510 N505 0.984 . S
H511 N505 0.985 . S
H512 N509 0.984 . S
H513 N509 0.985 1_554 S
H514 N508 0.984 . S
H515 N508 0.984 . S
H516 N504 0.984 . S
H517 N504 0.985 . S
C518 C519 1.363 . S
C518 C524 1.379 . S
C518 N526 1.356 . S
C519 C518 1.363 . S
C519 C525 1.363 1_556 S
C520 C521 1.363 . S
C520 C525 1.379 1_556 S
C520 N527 1.356 . S
C521 C520 1.363 . S
C521 C524 1.363 . S
N522 C524 1.356 . S
N522 H534 0.984 . S
N522 H535 0.985 . S
N523 C525 1.356 . S
N523 H528 0.984 . S
N523 H529 0.985 . S
C524 C518 1.379 . S
C524 C521 1.363 . S
C524 N522 1.356 . S
C525 C519 1.363 1_554 S
C525 C520 1.379 1_554 S
C525 N523 1.356 . S
N526 C518 1.356 . S
N526 H532 0.984 . S
N526 H533 0.984 . S
N527 C520 1.356 . S
N527 H530 0.984 . S
N527 H531 0.985 1_556 S
H528 N523 0.984 . S
H529 N523 0.985 . S
H530 N527 0.984 . S
H531 N527 0.985 1_554 S
H532 N526 0.984 . S
H533 N526 0.984 . S
H534 N522 0.984 . S
H535 N522 0.985 . S
C536 C537 1.363 . S
C536 C542 1.379 . S
C536 N544 1.356 . S
C537 C536 1.363 . S
C537 C543 1.363 1_655 S
C538 C539 1.363 1_455 S
C538 C543 1.379 . S
C538 N545 1.356 . S
C539 C538 1.363 1_655 S
C539 C542 1.363 . S
N540 C542 1.356 . S
N540 H552 0.984 . S
N540 H553 0.985 . S
N541 C543 1.356 . S
N541 H546 0.984 . S
N541 H547 0.985 . S
C542 C536 1.379 . S
C542 C539 1.363 . S
C542 N540 1.356 . S
C543 C537 1.363 1_455 S
C543 C538 1.379 . S
C543 N541 1.356 . S
N544 C536 1.356 . S
N544 H550 0.984 . S
N544 H551 0.984 . S
N545 C538 1.356 . S
N545 H548 0.984 . S
N545 H549 0.985 . S
H546 N541 0.984 . S
H547 N541 0.985 . S
H548 N545 0.984 . S
H549 N545 0.985 . S
H550 N544 0.984 . S
H551 N544 0.984 . S
H552 N540 0.984 . S
H553 N540 0.985 . S
C554 C555 1.363 . S
C554 C560 1.379 . S
C554 N562 1.356 1_565 S
C555 C554 1.363 . S
C555 C561 1.363 . S
C556 C557 1.363 . S
C556 C561 1.379 . S
C556 N563 1.356 . S
C557 C556 1.363 . S
C557 C560 1.363 . S
N558 C560 1.356 1_545 S
N558 H570 0.984 . S
N558 H571 0.985 . S
N559 C561 1.356 . S
N559 H564 0.984 . S
N559 H565 0.985 . S
C560 C554 1.379 . S
C560 C557 1.363 . S
C560 N558 1.356 1_565 S
C561 C555 1.363 . S
C561 C556 1.379 . S
C561 N559 1.356 . S
N562 C554 1.356 1_545 S
N562 H568 0.984 . S
N562 H569 0.984 . S
N563 C556 1.356 . S
N563 H566 0.984 . S
N563 H567 0.985 . S
H564 N559 0.984 . S
H565 N559 0.985 . S
H566 N563 0.984 . S
H567 N563 0.985 . S
H568 N562 0.984 . S
H569 N562 0.984 . S
H570 N558 0.984 . S
H571 N558 0.985 . S
C572 C573 1.363 . S
C572 C578 1.379 . S
C572 N580 1.356 . S
C573 C572 1.363 . S
C573 C579 1.363 . S
C574 C575 1.363 . S
C574 C579 1.379 . S
C574 N581 1.356 . S
C575 C574 1.363 . S
C575 C578 1.363 . S
N576 C578 1.356 . S
N576 H588 0.984 . S
N576 H589 0.985 . S
N577 C579 1.356 . S
N577 H582 0.984 . S
N577 H583 0.985 . S
C578 C572 1.379 . S
C578 C575 1.363 . S
C578 N576 1.356 . S
C579 C573 1.363 . S
C579 C574 1.379 . S
C579 N577 1.356 . S
N580 C572 1.356 . S
N580 H586 0.984 . S
N580 H587 0.984 . S
N581 C574 1.356 . S
N581 H584 0.984 . S
N581 H585 0.985 . S
H582 N577 0.984 . S
H583 N577 0.985 . S
H584 N581 0.984 . S
H585 N581 0.985 . S
H586 N580 0.984 . S
H587 N580 0.984 . S
H588 N576 0.984 . S
H589 N576 0.985 . S
C590 C591 1.363 . S
C590 C596 1.379 . S
C590 N598 1.356 . S
C591 C590 1.363 . S
C591 C597 1.363 . S
C592 C593 1.363 . S
C592 C597 1.379 . S
C592 N599 1.356 . S
C593 C592 1.363 . S
C593 C596 1.363 . S
N594 C596 1.356 . S
N594 H606 0.984 . S
N594 H607 0.985 . S
N595 C597 1.356 . S
N595 H600 0.984 . S
N595 H601 0.985 . S
C596 C590 1.379 . S
C596 C593 1.363 . S
C596 N594 1.356 . S
C597 C591 1.363 . S
C597 C592 1.379 . S
C597 N595 1.356 . S
N598 C590 1.356 . S
N598 H604 0.984 . S
N598 H605 0.984 . S
N599 C592 1.356 . S
N599 H602 0.984 . S
N599 H603 0.985 . S
H600 N595 0.984 . S
H601 N595 0.985 . S
H602 N599 0.984 . S
H603 N599 0.985 . S
H604 N598 0.984 . S
H605 N598 0.984 . S
H606 N594 0.984 . S
H607 N594 0.985 . S
C177 C76 1.544 . S
C179 C114 1.597 . S
C197 C134 1.519 . S
C195 C88 1.496 . S
C215 C154 1.598 . S
C213 C52 1.543 . S
C233 C174 1.520 . S
C231 C64 1.496 . S
C251 C115 1.599 1_565 S
C249 C28 1.560 . S
C267 C40 1.496 . S
C269 C135 1.519 . S
C285 C4 1.556 . S
C287 C155 1.598 . S
C303 C16 1.497 1_455 S
C305 C175 1.521 . S
C323 C105 0.985 . S
C321 C69 1.013 1_655 S
C341 C125 1.014 . S
C339 C81 1.050 . S
C359 C145 0.986 . S
C357 C93 1.016 . S
C375 C57 1.048 . S
C377 C165 1.009 . S
C393 C21 1.013 . S
C395 C108 0.983 . S
C413 C128 1.014 . S
C411 C33 1.041 . S
C431 C148 0.986 . S
C429 C45 1.013 . S
C447 C9 1.039 . S
C449 C168 1.015 . S
C465 C66 1.522 1_556 S
C467 C98 1.459 . S
C483 C78 1.556 1_556 S
C485 C118 1.492 . S
C503 C138 1.457 . S
C501 C90 1.520 1_556 S
C521 C158 1.494 . S
C519 C54 1.555 1_556 S
C537 C18 1.530 1_655 S
C539 C100 1.460 . S
C557 C120 1.492 . S
C555 C30 1.548 . S
C575 C140 1.457 . S
C573 C42 1.528 . S
C591 C6 1.550 . S
C593 C160 1.497 . S
