# Generated by pormake.
# Topology bwt, (3,3)-cn, num edge types: 1
# Building blocks:
#     Node 0, Type 0, BuildingBlock: WUSLED_clean_sbu_0, # of connection points: 3
#     Node 1, Type 0, BuildingBlock: WUSLED_clean_sbu_0, # of connection points: 3
#     Node 2, Type 0, BuildingBlock: WUSLED_clean_sbu_0, # of connection points: 3
#     Node 3, Type 0, BuildingBlock: WUSLED_clean_sbu_0, # of connection points: 3
#     Node 4, Type 0, BuildingBlock: WUSLED_clean_sbu_0, # of connection points: 3
#     Node 5, Type 0, BuildingBlock: WUSLED_clean_sbu_0, # of connection points: 3
#     Node 6, Type 0, BuildingBlock: WUSLED_clean_sbu_0, # of connection points: 3
#     Node 7, Type 0, BuildingBlock: WUSLED_clean_sbu_0, # of connection points: 3
#     Node 8, Type 0, BuildingBlock: WUSLED_clean_sbu_0, # of connection points: 3
#     Node 9, Type 0, BuildingBlock: WUSLED_clean_sbu_0, # of connection points: 3
#     Node 10, Type 0, BuildingBlock: WUSLED_clean_sbu_0, # of connection points: 3
#     Node 11, Type 0, BuildingBlock: WUSLED_clean_sbu_0, # of connection points: 3
#     Node 12, Type 0, BuildingBlock: WUSLED_clean_sbu_0, # of connection points: 3
#     Node 13, Type 0, BuildingBlock: WUSLED_clean_sbu_0, # of connection points: 3
#     Node 14, Type 0, BuildingBlock: WUSLED_clean_sbu_0, # of connection points: 3
#     Node 15, Type 0, BuildingBlock: WUSLED_clean_sbu_0, # of connection points: 3
#     Node 16, Type 0, BuildingBlock: WUSLED_clean_sbu_0, # of connection points: 3
#     Node 17, Type 0, BuildingBlock: WUSLED_clean_sbu_0, # of connection points: 3
#     Node 18, Type 0, BuildingBlock: WUSLED_clean_sbu_0, # of connection points: 3
#     Node 19, Type 0, BuildingBlock: WUSLED_clean_sbu_0, # of connection points: 3
#     Node 20, Type 0, BuildingBlock: WUSLED_clean_sbu_0, # of connection points: 3
#     Node 21, Type 0, BuildingBlock: WUSLED_clean_sbu_0, # of connection points: 3
#     Node 22, Type 0, BuildingBlock: WUSLED_clean_sbu_0, # of connection points: 3
#     Node 23, Type 0, BuildingBlock: WUSLED_clean_sbu_0, # of connection points: 3
#     Node 24, Type 1, BuildingBlock: BELTOD_clean_linker_0, # of connection points: 3
#     Node 25, Type 1, BuildingBlock: BELTOD_clean_linker_0, # of connection points: 3
#     Node 26, Type 1, BuildingBlock: BELTOD_clean_linker_0, # of connection points: 3
#     Node 27, Type 1, BuildingBlock: BELTOD_clean_linker_0, # of connection points: 3
#     Node 28, Type 1, BuildingBlock: BELTOD_clean_linker_0, # of connection points: 3
#     Node 29, Type 1, BuildingBlock: BELTOD_clean_linker_0, # of connection points: 3
#     Node 30, Type 1, BuildingBlock: BELTOD_clean_linker_0, # of connection points: 3
#     Node 31, Type 1, BuildingBlock: BELTOD_clean_linker_0, # of connection points: 3
#     Node 32, Type 1, BuildingBlock: BELTOD_clean_linker_0, # of connection points: 3
#     Node 33, Type 1, BuildingBlock: BELTOD_clean_linker_0, # of connection points: 3
#     Node 34, Type 1, BuildingBlock: BELTOD_clean_linker_0, # of connection points: 3
#     Node 35, Type 1, BuildingBlock: BELTOD_clean_linker_0, # of connection points: 3
#     Node 36, Type 1, BuildingBlock: BELTOD_clean_linker_0, # of connection points: 3
#     Node 37, Type 1, BuildingBlock: BELTOD_clean_linker_0, # of connection points: 3
#     Node 38, Type 1, BuildingBlock: BELTOD_clean_linker_0, # of connection points: 3
#     Node 39, Type 1, BuildingBlock: BELTOD_clean_linker_0, # of connection points: 3
#     Node 40, Type 1, BuildingBlock: BELTOD_clean_linker_0, # of connection points: 3
#     Node 41, Type 1, BuildingBlock: BELTOD_clean_linker_0, # of connection points: 3
#     Node 42, Type 1, BuildingBlock: BELTOD_clean_linker_0, # of connection points: 3
#     Node 43, Type 1, BuildingBlock: BELTOD_clean_linker_0, # of connection points: 3
#     Node 44, Type 1, BuildingBlock: BELTOD_clean_linker_0, # of connection points: 3
#     Node 45, Type 1, BuildingBlock: BELTOD_clean_linker_0, # of connection points: 3
#     Node 46, Type 1, BuildingBlock: BELTOD_clean_linker_0, # of connection points: 3
#     Node 47, Type 1, BuildingBlock: BELTOD_clean_linker_0, # of connection points: 3
#     Edge 48, Type (0, 1), None
#     Edge 49, Type (0, 1), None
#     Edge 50, Type (0, 1), None
#     Edge 51, Type (0, 1), None
#     Edge 52, Type (0, 1), None
#     Edge 53, Type (0, 1), None
#     Edge 54, Type (0, 1), None
#     Edge 55, Type (0, 1), None
#     Edge 56, Type (0, 1), None
#     Edge 57, Type (0, 1), None
#     Edge 58, Type (0, 1), None
#     Edge 59, Type (0, 1), None
#     Edge 60, Type (0, 1), None
#     Edge 61, Type (0, 1), None
#     Edge 62, Type (0, 1), None
#     Edge 63, Type (0, 1), None
#     Edge 64, Type (0, 1), None
#     Edge 65, Type (0, 1), None
#     Edge 66, Type (0, 1), None
#     Edge 67, Type (0, 1), None
#     Edge 68, Type (0, 1), None
#     Edge 69, Type (0, 1), None
#     Edge 70, Type (0, 1), None
#     Edge 71, Type (0, 1), None
#     Edge 72, Type (0, 1), None
#     Edge 73, Type (0, 1), None
#     Edge 74, Type (0, 1), None
#     Edge 75, Type (0, 1), None
#     Edge 76, Type (0, 1), None
#     Edge 77, Type (0, 1), None
#     Edge 78, Type (0, 1), None
#     Edge 79, Type (0, 1), None
#     Edge 80, Type (0, 1), None
#     Edge 81, Type (0, 1), None
#     Edge 82, Type (0, 1), None
#     Edge 83, Type (0, 1), None
#     Edge 84, Type (0, 1), None
#     Edge 85, Type (0, 1), None
#     Edge 86, Type (0, 1), None
#     Edge 87, Type (0, 1), None
#     Edge 88, Type (0, 1), None
#     Edge 89, Type (0, 1), None
#     Edge 90, Type (0, 1), None
#     Edge 91, Type (0, 1), None
#     Edge 92, Type (0, 1), None
#     Edge 93, Type (0, 1), None
#     Edge 94, Type (0, 1), None
#     Edge 95, Type (0, 1), None
#     Edge 96, Type (0, 1), None
#     Edge 97, Type (0, 1), None
#     Edge 98, Type (0, 1), None
#     Edge 99, Type (0, 1), None
#     Edge 100, Type (0, 1), None
#     Edge 101, Type (0, 1), None
#     Edge 102, Type (0, 1), None
#     Edge 103, Type (0, 1), None
#     Edge 104, Type (0, 1), None
#     Edge 105, Type (0, 1), None
#     Edge 106, Type (0, 1), None
#     Edge 107, Type (0, 1), None
#     Edge 108, Type (0, 1), None
#     Edge 109, Type (0, 1), None
#     Edge 110, Type (0, 1), None
#     Edge 111, Type (0, 1), None
#     Edge 112, Type (0, 1), None
#     Edge 113, Type (0, 1), None
#     Edge 114, Type (0, 1), None
#     Edge 115, Type (0, 1), None
#     Edge 116, Type (0, 1), None
#     Edge 117, Type (0, 1), None
#     Edge 118, Type (0, 1), None
#     Edge 119, Type (0, 1), None
# Relax obj value: 0.213
# Max RMSD: 0.253
# Mean RMSD: 0.136
data_MOF--net-bwt--node1-WUSLED_clean_sbu_0--node2-BELTOD_clean_linker_0--edge1-none
_symmetry_space_group_name_H-M    P1
_symmetry_Int_Tables_number       1
_symmetry_cell_setting            triclinic
loop_
_symmetry_equiv_pos_as_xyz
'x, y, z'
_cell_length_a     45.62782
_cell_length_b     45.67642
_cell_length_c     45.679004
_cell_angle_alpha  91.20148
_cell_angle_beta   91.192929
_cell_angle_gamma 91.23911
loop_
_atom_site_label
_atom_site_type_symbol
_atom_site_fract_x
_atom_site_fract_y
_atom_site_fract_z
_atom_type_partial_charge
C0 C 0.34473 0.64801 0.35233 0.0
C1 C 0.36225 0.64954 0.37802 0.0
C2 C 0.40527 0.63498 0.35045 0.0
C3 C 0.39218 0.64302 0.37709 0.0
C4 C 0.38743 0.63298 0.32498 0.0
C5 C 0.35761 0.63944 0.32594 0.0
U6 U 0.26179 0.65544 0.37481 0.0
O7 O 0.22486 0.6581 0.34305 0.0
O8 O 0.23618 0.69576 0.37189 0.0
C9 C 0.21812 0.68473 0.35153 0.0
C10 C 0.31406 0.65815 0.35131 0.0
C11 C 0.18644 0.69074 0.35427 0.0
C12 C 0.14012 0.70274 0.33022 0.0
C13 C 0.17015 0.69718 0.32893 0.0
C14 C 0.14213 0.69651 0.38261 0.0
C15 C 0.12532 0.70185 0.35699 0.0
C16 C 0.17226 0.69082 0.38125 0.0
C17 C 0.27042 0.60513 0.44142 0.0
C18 C 0.27047 0.5722 0.48255 0.0
C19 C 0.31651 0.58985 0.46333 0.0
C20 C 0.30119 0.60569 0.44219 0.0
C21 C 0.30132 0.57322 0.48409 0.0
C22 C 0.25524 0.58798 0.46144 0.0
C23 C 0.25357 0.62349 0.42128 0.0
O24 O 0.29349 0.63909 0.34273 0.0
O25 O 0.30568 0.67599 0.3723 0.0
O26 O 0.24948 0.61327 0.39435 0.0
O27 O 0.2601 0.65167 0.42261 0.0
H28 H 0.35304 0.65636 0.39866 0.0
H29 H 0.40524 0.6451 0.39712 0.0
H30 H 0.3965 0.62645 0.30418 0.0
H31 H 0.34466 0.63837 0.30577 0.0
H32 H 0.12857 0.70763 0.31004 0.0
H33 H 0.18069 0.69775 0.3079 0.0
H34 H 0.13196 0.69564 0.40371 0.0
H35 H 0.18435 0.68615 0.40121 0.0
H36 H 0.25797 0.56013 0.49837 0.0
H37 H 0.34024 0.59091 0.46362 0.0
H38 H 0.31331 0.6188 0.42686 0.0
H39 H 0.23148 0.58741 0.46126 0.0
C40 C 0.15262 0.3188 0.71928 0.0
C41 C 0.13494 0.30042 0.73624 0.0
C42 C 0.09397 0.33357 0.73126 0.0
C43 C 0.10598 0.30772 0.74213 0.0
C44 C 0.11128 0.35121 0.71322 0.0
C45 C 0.14013 0.34383 0.70718 0.0
U46 U 0.23026 0.32678 0.749 0.0
O47 O 0.2703 0.33913 0.72617 0.0
O48 O 0.26831 0.29763 0.74957 0.0
C49 C 0.28453 0.31595 0.73463 0.0
C50 C 0.18433 0.31317 0.71566 0.0
C51 C 0.3149 0.32157 0.74522 0.0
C52 C 0.36678 0.31204 0.73987 0.0
C53 C 0.33734 0.30443 0.73391 0.0
C54 C 0.35167 0.353 0.77005 0.0
C55 C 0.37416 0.33681 0.75734 0.0
C56 C 0.32221 0.34551 0.76393 0.0
C57 C 0.23055 0.36767 0.82551 0.0
C58 C 0.26748 0.39626 0.85321 0.0
C59 C 0.22139 0.38318 0.8755 0.0
C60 C 0.21238 0.36835 0.84981 0.0
C61 C 0.24893 0.39754 0.87748 0.0
C62 C 0.2583 0.38147 0.82733 0.0
C63 C 0.2186 0.3542 0.79826 0.0
O64 O 0.20099 0.33655 0.71184 0.0
O65 O 0.19626 0.29461 0.7338 0.0
O66 O 0.21963 0.32553 0.79576 0.0
O67 O 0.22384 0.3678 0.77377 0.0
H68 H 0.14364 0.28073 0.74558 0.0
H69 H 0.09311 0.29323 0.75554 0.0
H70 H 0.10296 0.37139 0.70461 0.0
H71 H 0.15299 0.35832 0.69376 0.0
H72 H 0.38383 0.29898 0.73037 0.0
H73 H 0.33211 0.2858 0.71953 0.0
H74 H 0.35688 0.37222 0.78362 0.0
H75 H 0.30523 0.35905 0.77283 0.0
H76 H 0.28901 0.40672 0.85417 0.0
H77 H 0.20637 0.38405 0.89353 0.0
H78 H 0.19077 0.358 0.84867 0.0
H79 H 0.27259 0.38123 0.80871 0.0
C80 C 0.82553 0.94846 0.70108 0.0
C81 C 0.84338 0.92685 0.68877 0.0
C82 C 0.88726 0.95626 0.70102 0.0
C83 C 0.87387 0.93068 0.68882 0.0
C84 C 0.8696 0.9765 0.71573 0.0
C85 C 0.83909 0.97259 0.71582 0.0
U86 U 0.76935 0.95458 0.64226 0.0
O87 O 0.72714 0.93196 0.63073 0.0
O88 O 0.72979 0.98001 0.63544 0.0
C89 C 0.71312 0.95678 0.62931 0.0
C90 C 0.79361 0.94879 0.69398 0.0
C91 C 0.68292 0.95785 0.63971 0.0
C92 C 0.64848 0.97282 0.6766 0.0
C93 C 0.67667 0.96418 0.66904 0.0
C94 C 0.63224 0.96679 0.62598 0.0
C95 C 0.62639 0.97598 0.65482 0.0
C96 C 0.66022 0.95777 0.61858 0.0
C97 C 0.79938 0.96485 0.56715 0.0
C98 C 0.76783 0.95789 0.52417 0.0
C99 C 0.81548 0.98191 0.52006 0.0
C100 C 0.82054 0.97874 0.55012 0.0
C101 C 0.78933 0.97093 0.50687 0.0
C102 C 0.77272 0.95508 0.55415 0.0
C103 C 0.80488 0.96082 0.59848 0.0
O104 O 0.78409 0.97406 0.68472 0.0
O105 O 0.783 0.92631 0.67831 0.0
O106 O 0.79669 0.93512 0.60832 0.0
O107 O 0.79712 0.98281 0.61534 0.0
H108 H 0.83383 0.90781 0.67737 0.0
H109 H 0.88683 0.91438 0.6778 0.0
H110 H 0.87903 0.99659 0.72521 0.0
H111 H 0.82596 0.98958 0.72552 0.0
H112 H 0.64459 0.97902 0.69917 0.0
H113 H 0.69395 0.96431 0.68567 0.0
H114 H 0.61611 0.96906 0.6085 0.0
H115 H 0.66472 0.95305 0.59577 0.0
H116 H 0.74742 0.9495 0.51437 0.0
H117 H 0.83234 0.99193 0.50698 0.0
H118 H 0.84107 0.98671 0.55998 0.0
H119 H 0.75588 0.94482 0.56711 0.0
C120 C 0.65581 0.95888 0.31695 0.0
C121 C 0.64662 0.97101 0.29026 0.0
C122 C 0.59459 0.97042 0.30796 0.0
C123 C 0.61763 0.97743 0.2837 0.0
C124 C 0.60581 0.95752 0.33597 0.0
C125 C 0.63588 0.95236 0.33918 0.0
U126 U 0.7283 0.95779 0.2818 0.0
O127 O 0.77189 0.9754 0.29501 0.0
O128 O 0.76619 0.92813 0.28311 0.0
C129 C 0.78412 0.94979 0.29162 0.0
C130 C 0.68729 0.95309 0.32088 0.0
C131 C 0.81594 0.94611 0.29711 0.0
C132 C 0.86534 0.96722 0.30175 0.0
C133 C 0.83515 0.97058 0.29753 0.0
C134 C 0.85767 0.91495 0.30641 0.0
C135 C 0.87701 0.93935 0.30597 0.0
C136 C 0.82745 0.91828 0.30184 0.0
C137 C 0.71716 0.98161 0.20031 0.0
C138 C 0.73335 0.96671 0.15208 0.0
C139 C 0.7033 0.00945 0.1579 0.0
C140 C 0.7034 0.00566 0.18803 0.0
C141 C 0.71717 0.98928 0.13938 0.0
C142 C 0.73322 0.96278 0.18237 0.0
C143 C 0.70958 0.97427 0.23034 0.0
O144 O 0.69669 0.9305 0.30572 0.0
O145 O 0.70444 0.97637 0.31883 0.0
O146 O 0.71103 0.94666 0.23775 0.0
O147 O 0.71781 0.99296 0.25132 0.0
H148 H 0.66257 0.97568 0.27369 0.0
H149 H 0.60282 0.97514 0.29398 0.0
H150 H 0.59124 0.95147 0.35329 0.0
H151 H 0.64382 0.94289 0.35931 0.0
H152 H 0.87964 0.98646 0.30149 0.0
H153 H 0.82692 0.99234 0.29408 0.0
H154 H 0.86601 0.89316 0.30932 0.0
H155 H 0.81312 0.89906 0.30182 0.0
H156 H 0.74478 0.95115 0.13849 0.0
H157 H 0.69027 0.02688 0.14912 0.0
H158 H 0.69075 0.02032 0.20152 0.0
H159 H 0.74416 0.94412 0.19147 0.0
C160 C 0.35284 0.33556 0.64331 0.0
C161 C 0.3793 0.35158 0.64107 0.0
C162 C 0.35255 0.39451 0.62522 0.0
C163 C 0.37916 0.38074 0.63193 0.0
C164 C 0.32621 0.37825 0.62734 0.0
C165 C 0.3264 0.34913 0.63622 0.0
U166 U 0.37554 0.25372 0.65483 0.0
O167 O 0.34389 0.21682 0.6583 0.0
O168 O 0.37209 0.22964 0.69604 0.0
C169 C 0.35189 0.21117 0.68536 0.0
C170 C 0.35145 0.30564 0.65507 0.0
C171 C 0.35455 0.17984 0.69258 0.0
C172 C 0.33019 0.13373 0.70464 0.0
C173 C 0.32902 0.16364 0.69868 0.0
C174 C 0.38284 0.13587 0.69994 0.0
C175 C 0.35703 0.119 0.70444 0.0
C176 C 0.3816 0.16585 0.6938 0.0
C177 C 0.44254 0.26225 0.60534 0.0
C178 C 0.48436 0.26334 0.5732 0.0
C179 C 0.46263 0.30875 0.58903 0.0
C180 C 0.44187 0.29293 0.60489 0.0
C181 C 0.48444 0.29416 0.5733 0.0
C182 C 0.46363 0.24759 0.58907 0.0
C183 C 0.42266 0.24518 0.62384 0.0
O184 O 0.34334 0.28429 0.63675 0.0
O185 O 0.37223 0.29821 0.67363 0.0
O186 O 0.39589 0.24024 0.61342 0.0
O187 O 0.42349 0.25241 0.65186 0.0
H188 H 0.39998 0.34182 0.64687 0.0
H189 H 0.39982 0.39275 0.63087 0.0
H190 H 0.30539 0.38802 0.62209 0.0
H191 H 0.3057 0.33729 0.63805 0.0
H192 H 0.30986 0.12213 0.70897 0.0
H193 H 0.30792 0.1741 0.69844 0.0
H194 H 0.40402 0.12579 0.69967 0.0
H195 H 0.40169 0.17791 0.68947 0.0
H196 H 0.50102 0.25133 0.5618 0.0
H197 H 0.46179 0.33243 0.58936 0.0
H198 H 0.42568 0.30462 0.61726 0.0
H199 H 0.46457 0.22391 0.58925 0.0
C200 C 0.31584 0.65859 0.96028 0.0
C201 C 0.28917 0.64948 0.97259 0.0
C202 C 0.30648 0.59737 0.97128 0.0
C203 C 0.28241 0.62046 0.97873 0.0
C204 C 0.33449 0.60854 0.95835 0.0
C205 C 0.3379 0.6386 0.95347 0.0
U206 U 0.28246 0.73212 0.96177 0.0
O207 O 0.29833 0.77585 0.97714 0.0
O208 O 0.28167 0.76918 0.93137 0.0
C209 C 0.29247 0.78752 0.95166 0.0
C210 C 0.32 0.69004 0.95454 0.0
C211 C 0.29824 0.81903 0.94612 0.0
C212 C 0.31518 0.86752 0.96336 0.0
C213 C 0.31076 0.83757 0.96813 0.0
C214 C 0.29421 0.86118 0.91454 0.0
C215 C 0.30659 0.87994 0.93662 0.0
C216 C 0.29027 0.83113 0.91917 0.0
C217 C 0.20207 0.7228 0.98983 0.0
C218 C 0.15339 0.7379 0.97508 0.0
C219 C 0.16005 0.7083 0.01802 0.0
C220 C 0.19023 0.70911 0.01415 0.0
C221 C 0.14114 0.72133 0.99761 0.0
C222 C 0.18371 0.7385 0.9711 0.0
C223 C 0.23175 0.71476 0.98158 0.0
O224 O 0.30368 0.69989 0.93299 0.0
O225 O 0.31979 0.7071 0.97802 0.0
O226 O 0.23779 0.71516 0.95357 0.0
O227 O 0.25371 0.72335 0.99898 0.0
H228 H 0.27277 0.66552 0.97755 0.0
H229 H 0.29253 0.60556 0.97622 0.0
H230 H 0.35168 0.59392 0.95203 0.0
H231 H 0.35805 0.64644 0.94395 0.0
H232 H 0.32525 0.8809 0.9808 0.0
H233 H 0.31701 0.82901 0.98921 0.0
H234 H 0.2867 0.86975 0.89385 0.0
H235 H 0.28036 0.8175 0.90181 0.0
H236 H 0.13946 0.74875 0.95939 0.0
H237 H 0.1516 0.69511 0.03549 0.0
H238 H 0.20406 0.69677 0.02876 0.0
H239 H 0.19247 0.74941 0.95225 0.0
C240 C 0.72127 0.14731 0.31979 0.0
C241 C 0.73652 0.12904 0.30047 0.0
C242 C 0.73252 0.08843 0.33419 0.0
C243 C 0.74208 0.09997 0.30759 0.0
C244 C 0.71633 0.10642 0.35295 0.0
C245 C 0.71064 0.13538 0.34577 0.0
U246 U 0.75025 0.22543 0.32705 0.0
O247 O 0.72668 0.26523 0.33859 0.0
O248 O 0.75057 0.26308 0.29741 0.0
C249 C 0.73524 0.27931 0.31535 0.0
C250 C 0.71758 0.17892 0.31376 0.0
C251 C 0.74572 0.3097 0.32093 0.0
C252 C 0.73937 0.3617 0.31301 0.0
C253 C 0.73284 0.33241 0.30533 0.0
C254 C 0.77277 0.34593 0.35112 0.0
C255 C 0.75873 0.3687 0.33648 0.0
C256 C 0.76625 0.31664 0.34344 0.0
C257 C 0.82645 0.22808 0.36849 0.0
C258 C 0.85271 0.26558 0.39764 0.0
C259 C 0.87728 0.22132 0.38285 0.0
C260 C 0.85178 0.21133 0.36821 0.0
C261 C 0.87804 0.24846 0.39797 0.0
C262 C 0.82703 0.2554 0.38311 0.0
C263 C 0.79955 0.21509 0.35513 0.0
O264 O 0.71332 0.19584 0.33684 0.0
O265 O 0.7359 0.19073 0.29527 0.0
O266 O 0.79724 0.21551 0.32642 0.0
O267 O 0.77478 0.21998 0.3684 0.0
H268 H 0.74466 0.13732 0.28007 0.0
H269 H 0.75407 0.0866 0.2923 0.0
H270 H 0.70881 0.0985 0.37373 0.0
H271 H 0.69854 0.14866 0.36106 0.0
H272 H 0.729 0.37896 0.30098 0.0
H273 H 0.717 0.3275 0.28781 0.0
H274 H 0.7878 0.35078 0.36933 0.0
H275 H 0.77635 0.29943 0.35576 0.0
H276 H 0.85267 0.28679 0.40869 0.0
H277 H 0.89615 0.20734 0.38298 0.0
H278 H 0.85162 0.19005 0.35725 0.0
H279 H 0.80761 0.26855 0.38375 0.0
C280 C 0.70445 0.82037 0.94572 0.0
C281 C 0.69286 0.83847 0.92394 0.0
C282 C 0.70442 0.88197 0.9541 0.0
C283 C 0.69287 0.8689 0.92808 0.0
C284 C 0.71853 0.86409 0.97454 0.0
C285 C 0.71863 0.83365 0.97034 0.0
U286 U 0.64665 0.7632 0.95455 0.0
O287 O 0.63329 0.72237 0.93042 0.0
O288 O 0.64309 0.72192 0.9779 0.0
C289 C 0.63436 0.70687 0.95435 0.0
C290 C 0.69744 0.78842 0.94541 0.0
C291 C 0.64284 0.67605 0.95243 0.0
C292 C 0.67746 0.63757 0.96215 0.0
C293 C 0.67175 0.66714 0.95698 0.0
C294 C 0.62566 0.62575 0.95669 0.0
C295 C 0.65424 0.61667 0.96384 0.0
C296 C 0.62016 0.65497 0.95089 0.0
C297 C 0.57189 0.79184 0.97156 0.0
C298 C 0.52849 0.76072 0.96485 0.0
C299 C 0.5251 0.80805 0.98949 0.0
C300 C 0.5552 0.8129 0.98601 0.0
C301 C 0.51148 0.78222 0.97826 0.0
C302 C 0.55852 0.7654 0.96172 0.0
C303 C 0.60299 0.79767 0.96604 0.0
O304 O 0.69043 0.77774 0.97096 0.0
O305 O 0.67993 0.77866 0.92393 0.0
O306 O 0.61118 0.79117 0.9393 0.0
O307 O 0.62129 0.78866 0.98631 0.0
H308 H 0.68206 0.82915 0.90446 0.0
H309 H 0.68237 0.88205 0.91161 0.0
H310 H 0.72753 0.87328 0.99493 0.0
H311 H 0.72793 0.82038 0.98742 0.0
H312 H 0.69992 0.63158 0.96644 0.0
H313 H 0.6896 0.68317 0.95812 0.0
H314 H 0.60686 0.61105 0.95794 0.0
H315 H 0.59765 0.66148 0.94751 0.0
H316 H 0.51838 0.74057 0.95621 0.0
H317 H 0.51227 0.82494 0.99976 0.0
H318 H 0.5653 0.83333 0.99392 0.0
H319 H 0.57117 0.7487 0.95089 0.0
C320 C 0.64165 0.35643 0.33594 0.0
C321 C 0.63919 0.38236 0.3527 0.0
C322 C 0.62409 0.35412 0.395 0.0
C323 C 0.63034 0.38121 0.38193 0.0
C324 C 0.62643 0.32834 0.37797 0.0
C325 C 0.63505 0.32952 0.34881 0.0
U326 U 0.65498 0.38199 0.25496 0.0
O327 O 0.65655 0.35117 0.21724 0.0
O328 O 0.69607 0.37635 0.23095 0.0
C329 C 0.68422 0.35721 0.21207 0.0
C330 C 0.65307 0.356 0.30588 0.0
C331 C 0.69221 0.35955 0.18091 0.0
C332 C 0.70599 0.33462 0.13567 0.0
C333 C 0.69982 0.334 0.16556 0.0
C334 C 0.69853 0.38686 0.13615 0.0
C335 C 0.70448 0.36088 0.1201 0.0
C336 C 0.69218 0.38615 0.16613 0.0
C337 C 0.61023 0.45292 0.2637 0.0
C338 C 0.58032 0.49637 0.2629 0.0
C339 C 0.59521 0.47611 0.3093 0.0
C340 C 0.60994 0.4538 0.29443 0.0
C341 C 0.58054 0.49799 0.29372 0.0
C342 C 0.59498 0.4741 0.24812 0.0
C343 C 0.6277 0.43152 0.24729 0.0
O344 O 0.63422 0.35019 0.2843 0.0
O345 O 0.67301 0.37587 0.2994 0.0
O346 O 0.61534 0.40567 0.2417 0.0
O347 O 0.65549 0.43011 0.2552 0.0
H348 H 0.64455 0.40337 0.34341 0.0
H349 H 0.62908 0.40148 0.39453 0.0
H350 H 0.62151 0.30717 0.38716 0.0
H351 H 0.63704 0.30922 0.33637 0.0
H352 H 0.71143 0.31426 0.12474 0.0
H353 H 0.70048 0.31327 0.17664 0.0
H354 H 0.69692 0.40761 0.1253 0.0
H355 H 0.68656 0.40622 0.17753 0.0
H356 H 0.56978 0.51297 0.25008 0.0
H357 H 0.5956 0.47639 0.33301 0.0
H358 H 0.62156 0.43762 0.30687 0.0
H359 H 0.59509 0.4739 0.22439 0.0
C360 C 0.96111 0.31563 0.65904 0.0
C361 C 0.97288 0.28899 0.64919 0.0
C362 C 0.97142 0.30753 0.5975 0.0
C363 C 0.97866 0.28284 0.61995 0.0
C364 C 0.959 0.33545 0.60944 0.0
C365 C 0.95445 0.33822 0.63962 0.0
U366 U 0.96289 0.281 0.73212 0.0
O367 O 0.9792 0.29605 0.77576 0.0
O368 O 0.93298 0.28037 0.76968 0.0
C369 C 0.95376 0.29061 0.7878 0.0
C370 C 0.95579 0.31923 0.69064 0.0
C371 C 0.94892 0.29618 0.81949 0.0
C372 C 0.96771 0.31146 0.86793 0.0
C373 C 0.97201 0.30661 0.83798 0.0
C374 C 0.91721 0.29499 0.86179 0.0
C375 C 0.94034 0.30538 0.88046 0.0
C376 C 0.92141 0.29062 0.8317 0.0
C377 C 0.98972 0.20046 0.7217 0.0
C378 C 0.97493 0.15195 0.73718 0.0
C379 C 0.01758 0.15834 0.70703 0.0
C380 C 0.01381 0.18849 0.70772 0.0
C381 C 0.9973 0.13957 0.72048 0.0
C382 C 0.97105 0.18224 0.73767 0.0
C383 C 0.98169 0.23025 0.71393 0.0
O384 O 0.9341 0.30305 0.70048 0.0
O385 O 0.97947 0.31841 0.7074 0.0
O386 O 0.95376 0.23664 0.71485 0.0
O387 O 0.99953 0.25189 0.7224 0.0
H388 H 0.97772 0.27216 0.66479 0.0
H389 H 0.97621 0.29333 0.6053 0.0
H390 H 0.95281 0.35307 0.59531 0.0
H391 H 0.94534 0.35833 0.64802 0.0
H392 H 0.986 0.31996 0.88124 0.0
H393 H 0.99352 0.311 0.82933 0.0
H394 H 0.89594 0.28945 0.87045 0.0
H395 H 0.90319 0.28242 0.8181 0.0
H396 H 0.95935 0.13813 0.74833 0.0
H397 H 0.0349 0.14979 0.6937 0.0
H398 H 0.02835 0.20221 0.69516 0.0
H399 H 0.95237 0.19111 0.7488 0.0
C400 C 0.31941 0.71862 0.15124 0.0
C401 C 0.30127 0.73552 0.13328 0.0
C402 C 0.33464 0.72978 0.09257 0.0
C403 C 0.30878 0.741 0.10431 0.0
C404 C 0.35206 0.71184 0.11018 0.0
C405 C 0.34445 0.7062 0.13904 0.0
U406 U 0.32664 0.74902 0.22868 0.0
O407 O 0.33879 0.72641 0.26885 0.0
O408 O 0.29725 0.74977 0.26658 0.0
C409 C 0.31556 0.73499 0.28295 0.0
C410 C 0.31351 0.7153 0.18291 0.0
C411 C 0.32111 0.74579 0.31326 0.0
C412 C 0.31058 0.74147 0.36501 0.0
C413 C 0.30306 0.73563 0.33556 0.0
C414 C 0.35337 0.76924 0.35019 0.0
C415 C 0.33627 0.75754 0.37257 0.0
C416 C 0.3459 0.76333 0.32074 0.0
C417 C 0.36722 0.8256 0.22922 0.0
C418 C 0.39465 0.8534 0.26688 0.0
C419 C 0.38279 0.87569 0.22054 0.0
C420 C 0.36834 0.84992 0.2111 0.0
C421 C 0.39635 0.87771 0.24843 0.0
C422 C 0.38021 0.82746 0.2573 0.0
C423 C 0.35403 0.79833 0.217 0.0
O424 O 0.3368 0.71171 0.19977 0.0
O425 O 0.29478 0.73348 0.19454 0.0
O426 O 0.32532 0.79569 0.21776 0.0
O427 O 0.36768 0.77391 0.22241 0.0
H428 H 0.28158 0.74511 0.14176 0.0
H429 H 0.29445 0.75434 0.09122 0.0
H430 H 0.37224 0.70298 0.1021 0.0
H431 H 0.35876 0.69282 0.15212 0.0
H432 H 0.29685 0.73271 0.38194 0.0
H433 H 0.28382 0.72207 0.33024 0.0
H434 H 0.37331 0.78171 0.35551 0.0
H435 H 0.36018 0.77132 0.3039 0.0
H436 H 0.40449 0.8544 0.28866 0.0
H437 H 0.38401 0.89376 0.2056 0.0
H438 H 0.35858 0.84874 0.18925 0.0
H439 H 0.3796 0.80884 0.27155 0.0
C440 C 0.94937 0.70106 0.82757 0.0
C441 C 0.92787 0.68829 0.84529 0.0
C442 C 0.95715 0.70052 0.88922 0.0
C443 C 0.9317 0.6881 0.87574 0.0
C444 C 0.97718 0.71576 0.87172 0.0
C445 C 0.97327 0.71609 0.84126 0.0
U446 U 0.95762 0.64278 0.77127 0.0
O447 O 0.93533 0.63037 0.72916 0.0
O448 O 0.98327 0.6372 0.73164 0.0
C449 C 0.96023 0.62982 0.71516 0.0
C450 C 0.94994 0.69412 0.79565 0.0
C451 C 0.96082 0.63917 0.68462 0.0
C452 C 0.9725 0.67557 0.64846 0.0
C453 C 0.9649 0.66853 0.67711 0.0
C454 C 0.97031 0.62413 0.63449 0.0
C455 C 0.97697 0.65328 0.62718 0.0
C456 C 0.96222 0.61724 0.66285 0.0
C457 C 0.97026 0.56795 0.80067 0.0
C458 C 0.96465 0.52534 0.76843 0.0
C459 C 0.98751 0.52087 0.81652 0.0
C460 C 0.98386 0.55081 0.82189 0.0
C461 C 0.97732 0.5079 0.78999 0.0
C462 C 0.96136 0.55521 0.77363 0.0
C463 C 0.96537 0.59907 0.80654 0.0
O464 O 0.97556 0.68586 0.78608 0.0
O465 O 0.92799 0.67768 0.78501 0.0
O466 O 0.93931 0.60818 0.79856 0.0
O467 O 0.98683 0.61668 0.79881 0.0
H468 H 0.90898 0.67669 0.83563 0.0
H469 H 0.91553 0.6767 0.88857 0.0
H470 H 0.99716 0.72545 0.88121 0.0
H471 H 0.99015 0.72619 0.82825 0.0
H472 H 0.97661 0.69835 0.64354 0.0
H473 H 0.96384 0.68577 0.69368 0.0
H474 H 0.97368 0.60619 0.61917 0.0
H475 H 0.95926 0.5944 0.66832 0.0
H476 H 0.95684 0.51571 0.74775 0.0
H477 H 0.99722 0.50766 0.83344 0.0
H478 H 0.99114 0.56047 0.84273 0.0
H479 H 0.95131 0.56827 0.75678 0.0
C480 C 0.66985 0.37145 0.70064 0.0
C481 C 0.64718 0.38148 0.68241 0.0
C482 C 0.61198 0.37398 0.72115 0.0
C483 C 0.6184 0.38253 0.69252 0.0
C484 C 0.63471 0.36322 0.73894 0.0
C485 C 0.66333 0.36195 0.72875 0.0
U486 U 0.72888 0.38914 0.64503 0.0
O487 O 0.77276 0.40921 0.65118 0.0
O488 O 0.76799 0.36451 0.63278 0.0
C489 C 0.78613 0.38568 0.64188 0.0
C490 C 0.70054 0.37187 0.69128 0.0
C491 C 0.81183 0.37707 0.65936 0.0
C492 C 0.83712 0.37147 0.70616 0.0
C493 C 0.81129 0.37626 0.69003 0.0
C494 C 0.86388 0.36704 0.66106 0.0
C495 C 0.86384 0.36751 0.69184 0.0
C496 C 0.8381 0.37179 0.645 0.0
C497 C 0.71048 0.42228 0.57223 0.0
C498 C 0.75011 0.4383 0.54138 0.0
C499 C 0.70017 0.43618 0.52214 0.0
C500 C 0.69041 0.42627 0.54911 0.0
C501 C 0.73017 0.44215 0.51794 0.0
C502 C 0.74036 0.42835 0.56823 0.0
C503 C 0.70053 0.41071 0.60013 0.0
O504 O 0.70659 0.35422 0.66922 0.0
O505 O 0.71276 0.39806 0.68927 0.0
O506 O 0.70845 0.42645 0.6235 0.0
O507 O 0.70469 0.38261 0.60327 0.0
H508 H 0.65185 0.38888 0.66058 0.0
H509 H 0.60143 0.3911 0.67838 0.0
H510 H 0.63041 0.35617 0.76097 0.0
H511 H 0.68052 0.35404 0.74308 0.0
H512 H 0.83641 0.37222 0.72985 0.0
H513 H 0.79117 0.38031 0.70148 0.0
H514 H 0.884 0.36364 0.6494 0.0
H515 H 0.83887 0.37227 0.62132 0.0
H516 H 0.77328 0.4431 0.53903 0.0
H517 H 0.68431 0.4386 0.50443 0.0
H518 H 0.66729 0.42143 0.55181 0.0
H519 H 0.75618 0.42523 0.58586 0.0
C520 C 0.83487 0.71977 0.26609 0.0
C521 C 0.8624 0.71519 0.25401 0.0
C522 C 0.88684 0.73173 0.29959 0.0
C523 C 0.88807 0.721 0.27052 0.0
C524 C 0.85908 0.73845 0.31081 0.0
C525 C 0.8333 0.73226 0.2943 0.0
U526 U 0.75138 0.7018 0.24956 0.0
O527 O 0.72472 0.73962 0.26208 0.0
O528 O 0.73149 0.70421 0.29298 0.0
C529 C 0.71563 0.72678 0.28588 0.0
C530 C 0.80889 0.70727 0.25026 0.0
C531 C 0.68372 0.72085 0.28706 0.0
C532 C 0.63981 0.71657 0.31598 0.0
C533 C 0.66782 0.7289 0.31169 0.0
C534 C 0.64197 0.69088 0.26937 0.0
C535 C 0.62716 0.6961 0.29566 0.0
C536 C 0.67 0.70289 0.26528 0.0
C537 C 0.72662 0.64457 0.18708 0.0
C538 C 0.71403 0.63366 0.13606 0.0
C539 C 0.71666 0.59425 0.17059 0.0
C540 C 0.72506 0.61442 0.19278 0.0
C541 C 0.70946 0.60399 0.14248 0.0
C542 C 0.72247 0.6538 0.15818 0.0
C543 C 0.72479 0.66603 0.21153 0.0
O544 O 0.79173 0.72509 0.23593 0.0
O545 O 0.79447 0.6865 0.26376 0.0
O546 O 0.73352 0.65804 0.23771 0.0
O547 O 0.73018 0.69384 0.20637 0.0
H548 H 0.86406 0.70536 0.23233 0.0
H549 H 0.9087 0.71502 0.26103 0.0
H550 H 0.85715 0.74727 0.33285 0.0
H551 H 0.8122 0.73594 0.30403 0.0
H552 H 0.6292 0.72119 0.33637 0.0
H553 H 0.67787 0.74301 0.32861 0.0
H554 H 0.63263 0.67628 0.25252 0.0
H555 H 0.68165 0.69674 0.24578 0.0
H556 H 0.70907 0.6416 0.11437 0.0
H557 H 0.7133 0.57149 0.1761 0.0
H558 H 0.72785 0.60661 0.21487 0.0
H559 H 0.72333 0.67685 0.15305 0.0
C560 C 0.15781 0.96077 0.42244 0.0
C561 C 0.13079 0.95499 0.43544 0.0
C562 C 0.10645 0.95134 0.38738 0.0
C563 C 0.10535 0.9503 0.41811 0.0
C564 C 0.13362 0.95762 0.37449 0.0
C565 C 0.15905 0.96227 0.39185 0.0
U566 U 0.24062 0.97464 0.43251 0.0
O567 O 0.25001 0.00429 0.3963 0.0
O568 O 0.25632 0.95707 0.39062 0.0
C569 C 0.26158 0.98334 0.38046 0.0
C570 C 0.18456 0.96418 0.44099 0.0
C571 C 0.29217 0.989 0.37218 0.0
C572 C 0.32787 0.00376 0.33643 0.0
C573 C 0.29868 0.99887 0.34422 0.0
C574 C 0.34431 0.9894 0.38471 0.0
C575 C 0.35105 0.99883 0.3565 0.0
C576 C 0.31514 0.98467 0.3925 0.0
C577 C 0.28939 0.97577 0.50568 0.0
C578 C 0.3266 0.98856 0.54265 0.0
C579 C 0.28631 0.95573 0.55447 0.0
C580 C 0.27483 0.95813 0.52585 0.0
C581 C 0.31265 0.97055 0.56291 0.0
C582 C 0.31507 0.99113 0.51442 0.0
C583 C 0.28048 0.97723 0.4747 0.0
O584 O 0.20384 0.94342 0.43784 0.0
O585 O 0.19663 0.99061 0.44251 0.0
O586 O 0.27254 0.95274 0.46083 0.0
O587 O 0.26599 1.00021 0.46617 0.0
H588 H 0.1294 0.95379 0.45903 0.0
H589 H 0.08482 0.94585 0.42881 0.0
H590 H 0.13543 0.95817 0.3509 0.0
H591 H 0.17976 0.96658 0.38139 0.0
H592 H 0.3323 0.01056 0.31435 0.0
H593 H 0.28126 0.00245 0.32831 0.0
H594 H 0.36159 0.98558 0.4007 0.0
H595 H 0.3105 0.97732 0.41435 0.0
H596 H 0.34648 1.00084 0.54866 0.0
H597 H 0.27501 0.94188 0.56975 0.0
H598 H 0.25501 0.946 0.51939 0.0
H599 H 0.32663 0.0048 0.49911 0.0
C600 C 0.34089 0.06808 0.62122 0.0
C601 C 0.35603 0.09307 0.63258 0.0
C602 C 0.40237 0.06713 0.63102 0.0
C603 C 0.38653 0.09253 0.63746 0.0
C604 C 0.38735 0.0431 0.61778 0.0
C605 C 0.35717 0.04383 0.61259 0.0
U606 U 0.25832 0.05783 0.64263 0.0
O607 O 0.21825 0.07472 0.62149 0.0
O608 O 0.22919 0.02835 0.6165 0.0
C609 C 0.20933 0.04834 0.61265 0.0
C610 C 0.3086 0.06675 0.61644 0.0
C611 C 0.17917 0.03937 0.62018 0.0
C612 C 0.12675 0.04346 0.61197 0.0
C613 C 0.15545 0.05245 0.60613 0.0
C614 C 0.14497 0.00797 0.64613 0.0
C615 C 0.12107 0.02084 0.63178 0.0
C616 C 0.17373 0.01722 0.64047 0.0
C617 C 0.26949 0.05179 0.72888 0.0
C618 C 0.27022 0.06874 0.77979 0.0
C619 C 0.2939 0.02361 0.76657 0.0
C620 C 0.28568 0.02749 0.7373 0.0
C621 C 0.28531 0.04366 0.78829 0.0
C622 C 0.26248 0.07281 0.75035 0.0
C623 C 0.25487 0.05238 0.69965 0.0
O624 O 0.29256 0.08832 0.62632 0.0
O625 O 0.29625 0.04087 0.61998 0.0
O626 O 0.2525 0.07767 0.68665 0.0
O627 O 0.25902 0.03029 0.68135 0.0
H628 H 0.34435 0.11273 0.63816 0.0
H629 H 0.39777 0.11201 0.64611 0.0
H630 H 0.39885 0.0235 0.61173 0.0
H631 H 0.34636 0.02523 0.60185 0.0
H632 H 0.109 0.05461 0.60115 0.0
H633 H 0.15912 0.06965 0.59055 0.0
H634 H 0.14154 0.99053 0.66146 0.0
H635 H 0.19169 0.00683 0.65178 0.0
H636 H 0.26345 0.08467 0.79606 0.0
H637 H 0.30524 0.00389 0.7724 0.0
H638 H 0.29043 0.01065 0.72142 0.0
H639 H 0.24951 0.09152 0.74465 0.0
C640 C 0.70645 0.6641 0.38665 0.0
C641 C 0.68721 0.64019 0.39083 0.0
C642 C 0.72757 0.60643 0.38546 0.0
C643 C 0.69769 0.61153 0.39017 0.0
C644 C 0.74645 0.63053 0.38054 0.0
C645 C 0.73598 0.65904 0.38114 0.0
U646 U 0.64788 0.72148 0.40097 0.0
O647 O 0.65234 0.76592 0.42042 0.0
O648 O 0.63568 0.75986 0.37533 0.0
C649 C 0.64349 0.7786 0.39632 0.0
C650 C 0.69624 0.69443 0.38753 0.0
C651 C 0.66037 0.80464 0.38738 0.0
C652 C 0.70637 0.83061 0.37893 0.0
C653 C 0.69102 0.80475 0.38561 0.0
C654 C 0.6605 0.85606 0.37466 0.0
C655 C 0.69129 0.85672 0.3739 0.0
C656 C 0.64523 0.83028 0.38135 0.0
C657 C 0.57249 0.70135 0.42701 0.0
C658 C 0.5385 0.74038 0.43653 0.0
C659 C 0.5235 0.68987 0.4438 0.0
C660 C 0.55108 0.6807 0.4349 0.0
C661 C 0.51696 0.71984 0.44483 0.0
C662 C 0.56599 0.73121 0.42769 0.0
C663 C 0.60175 0.69199 0.41851 0.0
O664 O 0.67551 0.70025 0.3684 0.0
O665 O 0.69166 0.70583 0.41366 0.0
O666 O 0.62324 0.70104 0.43631 0.0
O667 O 0.60769 0.69545 0.39077 0.0
H668 H 0.66423 0.64373 0.39492 0.0
H669 H 0.68263 0.59349 0.39424 0.0
H670 H 0.76947 0.62735 0.37641 0.0
H671 H 0.75104 0.6772 0.37751 0.0
H672 H 0.7301 0.8304 0.3788 0.0
H673 H 0.70307 0.7851 0.39005 0.0
H674 H 0.64819 0.87561 0.37049 0.0
H675 H 0.62153 0.83052 0.38236 0.0
H676 H 0.53433 0.76363 0.43743 0.0
H677 H 0.50725 0.67352 0.44972 0.0
H678 H 0.55575 0.65754 0.43433 0.0
H679 H 0.58231 0.74746 0.42166 0.0
C680 C 0.62046 0.33445 0.06804 0.0
C681 C 0.63238 0.3498 0.0926 0.0
C682 C 0.62805 0.39601 0.06691 0.0
C683 C 0.63604 0.3804 0.09202 0.0
C684 C 0.61329 0.38076 0.04389 0.0
C685 C 0.60935 0.35049 0.04465 0.0
U686 U 0.64639 0.25356 0.05651 0.0
O687 O 0.62657 0.21254 0.07266 0.0
O688 O 0.62189 0.22377 0.02632 0.0
C689 C 0.61811 0.20372 0.04614 0.0
C690 C 0.61762 0.3021 0.06622 0.0
C691 C 0.62598 0.17378 0.03709 0.0
C692 C 0.61649 0.12147 0.03934 0.0
C693 C 0.61072 0.15 0.04872 0.0
C694 C 0.65312 0.13998 0.00643 0.0
C695 C 0.63749 0.11603 0.01777 0.0
C696 C 0.64748 0.1686 0.01605 0.0
C697 C 0.73279 0.26756 0.05183 0.0
C698 C 0.78421 0.26587 0.06683 0.0
C699 C 0.76987 0.29505 0.02555 0.0
C700 C 0.74059 0.28674 0.02958 0.0
C701 C 0.79213 0.28378 0.04346 0.0
C702 C 0.75484 0.25789 0.07098 0.0
C703 C 0.70364 0.25269 0.05168 0.0
O704 O 0.62841 0.28631 0.08754 0.0
O705 O 0.62196 0.29057 0.04015 0.0
O706 O 0.69046 0.2491 0.07673 0.0
O707 O 0.68548 0.257 0.02951 0.0
H708 H 0.63967 0.33823 0.11177 0.0
H709 H 0.6458 0.39167 0.11089 0.0
H710 H 0.60457 0.39224 0.02527 0.0
H711 H 0.59764 0.33944 0.02677 0.0
H712 H 0.60463 0.10363 0.04933 0.0
H713 H 0.59416 0.1535 0.06502 0.0
H714 H 0.66942 0.13668 0.98985 0.0
H715 H 0.65966 0.18666 0.00678 0.0
H716 H 0.80086 0.25711 0.08124 0.0
H717 H 0.77519 0.30872 0.00722 0.0
H718 H 0.72423 0.29392 0.01429 0.0
H719 H 0.74958 0.24269 0.0881 0.0
C720 C 0.3028 0.81339 0.71432 0.0
C721 C 0.28641 0.83655 0.70345 0.0
C722 C 0.32338 0.87174 0.72242 0.0
C723 C 0.29661 0.86547 0.70744 0.0
C724 C 0.33886 0.84846 0.73466 0.0
C725 C 0.32866 0.81951 0.73057 0.0
U726 U 0.2494 0.75829 0.67827 0.0
O727 O 0.23693 0.71298 0.69025 0.0
O728 O 0.25619 0.72191 0.64759 0.0
C729 C 0.24666 0.70193 0.66556 0.0
C730 C 0.29427 0.78292 0.70678 0.0
C731 C 0.26402 0.67514 0.66679 0.0
C732 C 0.30787 0.64933 0.65347 0.0
C733 C 0.29355 0.67551 0.65884 0.0
C734 C 0.26418 0.62185 0.6662 0.0
C735 C 0.29323 0.62213 0.65644 0.0
C736 C 0.24968 0.64815 0.67119 0.0
C737 C 0.18122 0.77724 0.63869 0.0
C738 C 0.14424 0.73879 0.63017 0.0
C739 C 0.16146 0.76704 0.58944 0.0
C740 C 0.17963 0.7838 0.60872 0.0
C741 C 0.14473 0.7435 0.59991 0.0
C742 C 0.16225 0.75546 0.64937 0.0
C743 C 0.20627 0.78854 0.65705 0.0
O744 O 0.27098 0.77254 0.71993 0.0
O745 O 0.29435 0.77643 0.6786 0.0
O746 O 0.23176 0.78688 0.64431 0.0
O747 O 0.20717 0.77984 0.68437 0.0
H748 H 0.26638 0.83218 0.6908 0.0
H749 H 0.28431 0.88271 0.69731 0.0
H750 H 0.35936 0.85253 0.74657 0.0
H751 H 0.3415 0.80185 0.7392 0.0
H752 H 0.32991 0.65052 0.6453 0.0
H753 H 0.30506 0.69602 0.65505 0.0
H754 H 0.25232 0.60135 0.66905 0.0
H755 H 0.22681 0.64738 0.67711 0.0
H756 H 0.13094 0.72117 0.63884 0.0
H757 H 0.16199 0.77122 0.5662 0.0
H758 H 0.19398 0.80048 0.59991 0.0
H759 H 0.16264 0.74986 0.67229 0.0
C760 C 0.4201 0.16196 0.96298 0.0
C761 C 0.43112 0.13393 0.9674 0.0
C762 C 0.38325 0.11161 0.95486 0.0
C763 C 0.4129 0.10898 0.96341 0.0
C764 C 0.3723 0.13991 0.95079 0.0
C765 C 0.39047 0.16477 0.95495 0.0
U766 U 0.43197 0.24419 0.97577 0.0
O767 O 0.39585 0.25391 0.00543 0.0
O768 O 0.39002 0.25976 0.95816 0.0
C769 C 0.37991 0.26523 0.98441 0.0
C770 C 0.43973 0.18801 0.96605 0.0
C771 C 0.37156 0.29577 0.98984 0.0
C772 C 0.33565 0.33135 0.00435 0.0
C773 C 0.34352 0.30222 0.99957 0.0
C774 C 0.38402 0.34787 0.99013 0.0
C775 C 0.35573 0.35455 0.99944 0.0
C776 C 0.39189 0.31875 0.9855 0.0
C777 C 0.50523 0.29276 0.9759 0.0
C778 C 0.54237 0.33016 0.98743 0.0
C779 C 0.55431 0.28829 0.95681 0.0
C780 C 0.52552 0.27723 0.95928 0.0
C781 C 0.56285 0.31512 0.97058 0.0
C782 C 0.51395 0.31907 0.99004 0.0
C783 C 0.47424 0.28397 0.97767 0.0
O784 O 0.43734 0.20714 0.94504 0.0
O785 O 0.44164 0.20032 0.99233 0.0
O786 O 0.46023 0.27577 0.95333 0.0
O787 O 0.46586 0.26972 1.00087 0.0
H788 H 0.45391 0.13131 0.97373 0.0
H789 H 0.42204 0.08767 0.96712 0.0
H790 H 0.3498 0.14293 0.9437 0.0
H791 H 0.38147 0.18621 0.95144 0.0
H792 H 0.31351 0.33573 0.01103 0.0
H793 H 0.3276 0.28478 0.00315 0.0
H794 H 0.40002 0.36517 0.98632 0.0
H795 H 0.41381 0.31414 0.97826 0.0
H796 H 0.54838 0.35045 0.99895 0.0
H797 H 0.56971 0.27615 0.94384 0.0
H798 H 0.51905 0.2569 0.94808 0.0
H799 H 0.49853 0.33137 0.00291 0.0
C800 C 0.37428 0.69741 0.66759 0.0
C801 C 0.38538 0.6795 0.64523 0.0
C802 C 0.37627 0.71744 0.6095 0.0
C803 C 0.38622 0.68937 0.61637 0.0
C804 C 0.3644 0.73484 0.63194 0.0
C805 C 0.36347 0.72493 0.66067 0.0
U806 U 0.39266 0.64264 0.72723 0.0
O807 O 0.41238 0.6496 0.77112 0.0
O808 O 0.36797 0.63034 0.76631 0.0
C809 C 0.38891 0.63999 0.78445 0.0
C810 C 0.37476 0.68831 0.69835 0.0
C811 C 0.37988 0.65739 0.81007 0.0
C812 C 0.37444 0.70408 0.83567 0.0
C813 C 0.37946 0.6881 0.80981 0.0
C814 C 0.36894 0.65879 0.8619 0.0
C815 C 0.36985 0.68958 0.86217 0.0
C816 C 0.37393 0.64289 0.83608 0.0
C817 C 0.42746 0.57025 0.70895 0.0
C818 C 0.44461 0.53939 0.74806 0.0
C819 C 0.44269 0.52067 0.698 0.0
C820 C 0.43194 0.54746 0.68864 0.0
C821 C 0.449 0.51629 0.72786 0.0
C822 C 0.43385 0.56608 0.7387 0.0
C823 C 0.41527 0.59799 0.69926 0.0
O824 O 0.35742 0.66603 0.70454 0.0
O825 O 0.40095 0.68685 0.71069 0.0
O826 O 0.43056 0.62165 0.70726 0.0
O827 O 0.38706 0.60056 0.70336 0.0
H828 H 0.39376 0.65811 0.65019 0.0
H829 H 0.39567 0.6755 0.5997 0.0
H830 H 0.35616 0.75637 0.62737 0.0
H831 H 0.35467 0.73898 0.6776 0.0
H832 H 0.37553 0.72777 0.83519 0.0
H833 H 0.38403 0.6997 0.78991 0.0
H834 H 0.36506 0.64698 0.88182 0.0
H835 H 0.37409 0.61918 0.83667 0.0
H836 H 0.44961 0.5369 0.77115 0.0
H837 H 0.44546 0.50322 0.68194 0.0
H838 H 0.42686 0.55029 0.6656 0.0
H839 H 0.43038 0.58344 0.75471 0.0
C840 C 0.06883 0.62201 0.34052 0.0
C841 C 0.09455 0.63108 0.35596 0.0
C842 C 0.06793 0.63264 0.40192 0.0
C843 C 0.09405 0.63642 0.38638 0.0
C844 C 0.04286 0.62201 0.38659 0.0
C845 C 0.04353 0.61636 0.35653 0.0
U846 U 0.05503 0.63923 0.25754 0.0
O847 O 0.07631 0.62121 0.2183 0.0
O848 O 0.031 0.60832 0.22803 0.0
C849 C 0.05186 0.60819 0.20867 0.0
C850 C 0.06833 0.61595 0.30838 0.0
C851 C 0.04237 0.61502 0.17857 0.0
C852 C 0.04731 0.60787 0.12617 0.0
C853 C 0.05623 0.60187 0.15483 0.0
C854 C 0.01027 0.64026 0.14454 0.0
C855 C 0.02404 0.62697 0.12057 0.0
C856 C 0.01944 0.63445 0.17324 0.0
C857 C 0.0343 0.72325 0.26554 0.0
C858 C 0.00365 0.76613 0.26604 0.0
C859 C 0.05074 0.76792 0.29144 0.0
C860 C 0.05573 0.73909 0.28214 0.0
C861 C 0.02481 0.78207 0.28307 0.0
C862 C 0.00826 0.73705 0.25765 0.0
C863 C 0.03966 0.69404 0.25258 0.0
O864 O 0.08799 0.62902 0.29212 0.0
O865 O 0.0422 0.61443 0.29573 0.0
O866 O 0.06691 0.68545 0.25076 0.0
O867 O 0.02082 0.67267 0.25771 0.0
H868 H 0.11489 0.63435 0.34455 0.0
H869 H 0.11416 0.64319 0.39778 0.0
H870 H 0.02257 0.61812 0.39782 0.0
H871 H 0.02416 0.6073 0.34572 0.0
H872 H 0.05913 0.59787 0.1084 0.0
H873 H 0.0741 0.58703 0.15845 0.0
H874 H 0.99228 0.65497 0.14118 0.0
H875 H 0.0085 0.64508 0.19127 0.0
H876 H 0.9838 0.77627 0.25832 0.0
H877 H 0.06754 0.77923 0.30469 0.0
H878 H 0.07663 0.72955 0.28736 0.0
H879 H 0.99174 0.72559 0.24411 0.0
C880 C 0.71594 0.29947 0.81441 0.0
C881 C 0.70318 0.28386 0.83716 0.0
C882 C 0.72436 0.31887 0.87309 0.0
C883 C 0.70729 0.29349 0.86622 0.0
C884 C 0.73849 0.3334 0.85024 0.0
C885 C 0.73421 0.32382 0.82113 0.0
U886 U 0.67914 0.24763 0.75869 0.0
O887 O 0.69086 0.23525 0.71327 0.0
O888 O 0.64853 0.25517 0.72241 0.0
C889 C 0.66627 0.24538 0.70234 0.0
C890 C 0.70846 0.29169 0.78375 0.0
C891 C 0.66757 0.26263 0.67547 0.0
C892 C 0.65399 0.30622 0.64942 0.0
C893 C 0.65957 0.29211 0.67567 0.0
C894 C 0.66672 0.26248 0.62216 0.0
C895 C 0.65682 0.29145 0.62228 0.0
C896 C 0.67189 0.24817 0.64854 0.0
C897 C 0.63847 0.1801 0.77716 0.0
C898 C 0.62803 0.14549 0.73704 0.0
C899 C 0.589 0.15989 0.76908 0.0
C900 C 0.60904 0.17749 0.78559 0.0
C901 C 0.5982 0.14488 0.7439 0.0
C902 C 0.64797 0.16287 0.75347 0.0
C903 C 0.65716 0.20472 0.78871 0.0
O904 O 0.72122 0.26835 0.77307 0.0
O905 O 0.6803 0.29241 0.77711 0.0
O906 O 0.64478 0.23036 0.78712 0.0
O907 O 0.68454 0.20526 0.7801 0.0
H908 H 0.68901 0.26495 0.83233 0.0
H909 H 0.69566 0.28196 0.88305 0.0
H910 H 0.75207 0.35277 0.85476 0.0
H911 H 0.74437 0.336 0.80379 0.0
H912 H 0.64574 0.3282 0.65055 0.0
H913 H 0.65584 0.30373 0.69612 0.0
H914 H 0.66953 0.25051 0.60174 0.0
H915 H 0.67785 0.22533 0.64789 0.0
H916 H 0.6357 0.13356 0.71803 0.0
H917 H 0.56609 0.15952 0.77484 0.0
H918 H 0.60114 0.19063 0.80368 0.0
H919 H 0.67042 0.16423 0.74628 0.0
C920 C 0.96282 0.42476 0.16135 0.0
C921 C 0.96815 0.43507 0.13319 0.0
C922 C 0.95542 0.38695 0.11163 0.0
C923 C 0.96452 0.41638 0.10856 0.0
C924 C 0.95033 0.37676 0.14005 0.0
C925 C 0.95413 0.39538 0.1646 0.0
U926 U 0.97452 0.43823 0.24357 0.0
O927 O 0.00355 0.40195 0.25445 0.0
O928 O 0.95608 0.39693 0.25984 0.0
C929 C 0.98212 0.38645 0.26566 0.0
C930 C 0.96574 0.44487 0.18706 0.0
C931 C 0.98713 0.37797 0.29625 0.0
C932 C 1.00266 0.34226 0.33162 0.0
C933 C 0.99802 0.35035 0.30254 0.0
C934 C 0.98592 0.38955 0.3485 0.0
C935 C 0.99646 0.36169 0.35497 0.0
C936 C 0.98145 0.39767 0.31939 0.0
C937 C 0.97514 0.51247 0.29072 0.0
C938 C 0.9869 0.5499 0.32774 0.0
C939 C 0.95623 0.56156 0.28581 0.0
C940 C 0.95856 0.53267 0.27502 0.0
C941 C 0.97002 0.57025 0.31258 0.0
C942 C 0.98943 0.52141 0.31689 0.0
C943 C 0.97654 0.48132 0.28242 0.0
O944 O 0.94439 0.44314 0.20592 0.0
O945 O 0.99188 0.44673 0.19974 0.0
O946 O 0.95207 0.4675 0.27418 0.0
O947 O 0.99983 0.4723 0.2687 0.0
H948 H 0.97498 0.45766 0.13023 0.0
H949 H 0.96899 0.42496 0.08716 0.0
H950 H 0.94278 0.35446 0.14338 0.0
H951 H 0.94991 0.38692 0.18613 0.0
H952 H 0.01032 0.32044 0.33582 0.0
H953 H 1.00267 0.33493 0.28499 0.0
H954 H 0.9811 0.40505 0.36592 0.0
H955 H 0.97334 0.41928 0.31494 0.0
H956 H 0.99845 0.55605 0.34798 0.0
H957 H 0.94329 0.57689 0.27356 0.0
H958 H 0.94725 0.52605 0.2548 0.0
H959 H 1.00227 0.50609 0.32932 0.0
P960 P 0.35642 0.52444 0.59484 0.0
H961 H 0.37622 0.56795 0.63937 0.0
H962 H 0.35087 0.60822 0.66276 0.0
H963 H 0.26835 0.57432 0.627 0.0
H964 H 0.29389 0.53405 0.60343 0.0
H965 H 0.38921 0.47446 0.57455 0.0
H966 H 0.38865 0.42264 0.58716 0.0
H967 H 0.31543 0.43738 0.64365 0.0
H968 H 0.31619 0.48917 0.631 0.0
H969 H 0.37202 0.57358 0.5589 0.0
H970 H 0.31139 0.49995 0.55334 0.0
O971 O 0.39213 0.53301 0.59779 0.0
H972 H 0.34939 0.59412 0.51542 0.0
H973 H 0.2889 0.51997 0.50906 0.0
C974 C 0.33697 0.54793 0.61961 0.0
C975 C 0.35258 0.56857 0.63727 0.0
C976 C 0.33805 0.59172 0.65063 0.0
C977 C 0.30762 0.59466 0.64681 0.0
C978 C 0.29175 0.57267 0.6308 0.0
C979 C 0.30634 0.54956 0.61725 0.0
C980 C 0.3528 0.48574 0.60183 0.0
C981 C 0.37285 0.46647 0.58945 0.0
C982 C 0.37268 0.43688 0.59687 0.0
C983 C 0.35215 0.42585 0.61658 0.0
C984 C 0.33143 0.44509 0.62824 0.0
C985 C 0.33182 0.47479 0.62101 0.0
C986 C 0.34389 0.53486 0.55894 0.0
C987 C 0.35446 0.56127 0.54764 0.0
C988 C 0.34143 0.57303 0.52269 0.0
C989 C 0.31729 0.55874 0.50854 0.0
C990 C 0.30729 0.53173 0.51948 0.0
C991 C 0.32036 0.52001 0.54459 0.0
P992 P 0.28799 0.46301 0.98949 0.0
H993 H 0.29726 0.42561 0.03976 0.0
H994 H 0.32288 0.37951 0.04233 0.0
H995 H 0.36684 0.39948 0.9621 0.0
H996 H 0.34137 0.44588 0.95989 0.0
H997 H 0.2493 0.51035 0.9793 0.0
H998 H 0.25655 0.56261 0.97188 0.0
H999 H 0.35026 0.55277 0.97956 0.0
H1000 H 0.34279 0.49989 0.98677 0.0
H1001 H 0.25339 0.40987 0.97881 0.0
H1002 H 0.29346 0.47722 0.92727 0.0
O1003 O 0.2621 0.46104 0.01471 0.0
H1004 H 0.23948 0.3823 0.9342 0.0
H1005 H 0.2786 0.45039 0.88239 0.0
C1006 C 0.31731 0.43925 0.99956 0.0
C1007 C 0.31341 0.42082 0.02342 0.0
C1008 C 0.32775 0.39415 0.02464 0.0
C1009 C 0.34624 0.38544 1.00199 0.0
C1010 C 0.3527 0.40549 0.9799 0.0
C1011 C 0.33834 0.43223 0.97874 0.0
C1012 C 0.29547 0.50133 0.98378 0.0
C1013 C 0.27147 0.51936 0.97929 0.0
C1014 C 0.27561 0.54921 0.97496 0.0
C1015 C 0.30388 0.56184 0.97466 0.0
C1016 C 0.32818 0.5437 0.97887 0.0
C1017 C 0.32396 0.5135 0.98334 0.0
C1018 C 0.27353 0.44602 0.9563 0.0
C1019 C 0.25842 0.41912 0.95781 0.0
C1020 C 0.2506 0.40333 0.93226 0.0
C1021 C 0.25778 0.41419 0.90465 0.0
C1022 C 0.27297 0.44125 0.90327 0.0
C1023 C 0.281 0.45691 0.92892 0.0
P1024 P 0.76809 0.96714 0.37533 0.0
H1025 H 0.77077 0.9119 0.34152 0.0
H1026 H 0.74056 0.86712 0.34169 0.0
H1027 H 0.67956 0.91012 0.39848 0.0
H1028 H 0.70973 0.95455 0.3982 0.0
H1029 H 0.79802 0.01205 0.34174 0.0
H1030 H 0.78426 0.06037 0.32552 0.0
H1031 H 0.69906 0.04823 0.36367 0.0
H1032 H 0.71348 1.00041 0.38079 0.0
H1033 H 0.77078 0.92208 0.41906 0.0
H1034 H 0.78253 0.01611 0.41675 0.0
O1035 O 0.79983 0.95865 0.3602 0.0
H1036 H 0.77869 0.92364 0.47187 0.0
H1037 H 0.79146 0.01749 0.47007 0.0
C1038 C 0.74209 0.93712 0.36897 0.0
C1039 C 0.75034 0.9121 0.35309 0.0
C1040 C 0.73326 0.88628 0.35358 0.0
C1041 C 0.70763 0.88495 0.37014 0.0
C1042 C 0.69884 0.91045 0.38505 0.0
C1043 C 0.71599 0.93615 0.38464 0.0
C1044 C 0.75651 1.00205 0.36177 0.0
C1045 C 0.77622 0.01957 0.34632 0.0
C1046 C 0.76824 0.04726 0.33689 0.0
C1047 C 0.74039 0.05825 0.34298 0.0
C1048 C 0.72076 0.04066 0.35871 0.0
C1049 C 0.72889 0.01303 0.36831 0.0
C1050 C 0.77492 0.96911 0.41413 0.0
C1051 C 0.77476 0.94314 0.42991 0.0
C1052 C 0.7794 0.94397 0.46007 0.0
C1053 C 0.78519 0.97071 0.47486 0.0
C1054 C 0.78676 0.99667 0.45898 0.0
C1055 C 0.78154 0.99588 0.42866 0.0
P1056 P 0.66371 0.98876 0.01708 0.0
H1057 H 0.60864 0.01884 0.00779 0.0
H1058 H 0.59799 0.07059 0.0094 0.0
H1059 H 0.69054 0.09158 0.00407 0.0
H1060 H 0.70086 0.03925 1.00057 0.0
H1061 H 0.63755 0.95525 0.96829 0.0
H1062 H 0.65323 0.9105 0.94418 0.0
H1063 H 0.73992 0.92337 0.98295 0.0
H1064 H 0.72377 0.96821 0.00737 0.0
H1065 H 0.68748 0.03698 0.05642 0.0
H1066 H 0.68629 0.94242 0.05292 0.0
O1067 O 0.63198 0.97288 0.02619 0.0
H1068 H 0.71075 0.03678 0.10423 0.0
H1069 H 0.70751 0.94207 0.1022 0.0
C1070 C 0.6557 0.02518 0.00513 0.0
C1071 C 0.62665 0.03445 0.00593 0.0
C1072 C 0.62059 0.06421 0.00729 0.0
C1073 C 0.64351 0.0853 0.00843 0.0
C1074 C 0.67232 0.07599 0.00368 0.0
C1075 C 0.67829 0.04603 1.00152 0.0
C1076 C 0.67923 0.96462 0.99018 0.0
C1077 C 0.66025 0.94909 0.97072 0.0
C1078 C 0.66934 0.92339 0.95687 0.0
C1079 C 0.69772 0.91288 0.96215 0.0
C1080 C 0.71772 0.93047 0.97898 0.0
C1081 C 0.70856 0.95626 0.99279 0.0
C1082 C 0.68555 0.98962 0.05048 0.0
C1083 C 0.6929 0.01607 0.06531 0.0
C1084 C 0.70594 0.01597 0.09318 0.0
C1085 C 0.71075 0.98944 0.10737 0.0
C1086 C 0.70464 0.96297 0.0919 0.0
C1087 C 0.69219 0.96312 0.06373 0.0
P1088 P 0.59346 0.35335 0.52489 0.0
H1089 H 0.63792 0.37396 0.56809 0.0
H1090 H 0.66185 0.34916 0.60828 0.0
H1091 H 0.62796 0.26599 0.57431 0.0
H1092 H 0.60382 0.29102 0.53405 0.0
H1093 H 0.57303 0.38757 0.47602 0.0
H1094 H 0.58578 0.38893 0.42431 0.0
H1095 H 0.64284 0.31577 0.43667 0.0
H1096 H 0.63 0.31461 0.48842 0.0
H1097 H 0.55616 0.36798 0.5733 0.0
H1098 H 0.55421 0.30621 0.50068 0.0
O1099 O 0.59518 0.38889 0.53425 0.0
H1100 H 0.51342 0.34375 0.5937 0.0
H1101 H 0.51072 0.28195 0.52066 0.0
C1102 C 0.61896 0.33438 0.54804 0.0
C1103 C 0.63636 0.35031 0.56865 0.0
C1104 C 0.65006 0.33608 0.59178 0.0
C1105 C 0.6469 0.30561 0.59474 0.0
C1106 C 0.63126 0.28944 0.57269 0.0
C1107 C 0.61737 0.30375 0.54958 0.0
C1108 C 0.60057 0.35106 0.48614 0.0
C1109 C 0.5881 0.37165 0.46754 0.0
C1110 C 0.5956 0.37258 0.43801 0.0
C1111 C 0.61552 0.35264 0.42633 0.0
C1112 C 0.6273 0.33137 0.44488 0.0
C1113 C 0.61996 0.33065 0.47454 0.0
C1114 C 0.55792 0.3394 0.53506 0.0
C1115 C 0.54584 0.34979 0.56116 0.0
C1116 C 0.52132 0.33583 0.57286 0.0
C1117 C 0.50843 0.31089 0.55884 0.0
C1118 C 0.52016 0.30098 0.53217 0.0
C1119 C 0.5448 0.31503 0.52047 0.0
P1120 P 0.02244 0.65996 0.99429 0.0
H1121 H 0.02031 0.60289 0.02178 0.0
H1122 H 0.02212 0.58966 0.07284 0.0
H1123 H 0.00554 0.67944 0.09814 0.0
H1124 H 1.0018 0.69211 0.04642 0.0
H1125 H 0.97385 0.63285 0.96116 0.0
H1126 H 0.94891 0.64855 0.91687 0.0
H1127 H 0.98458 0.73623 0.93136 0.0
H1128 H 0.00983 0.72009 0.97571 0.0
H1129 H 0.05854 0.68717 0.04343 0.0
H1130 H 0.05792 0.68466 0.94888 0.0
O1131 O 0.03336 0.63004 0.97633 0.0
H1132 H 0.10507 0.71333 0.04428 0.0
H1133 H 0.10574 0.7092 0.94963 0.0
C1134 C 0.01178 0.64874 0.03028 0.0
C1135 C 0.01607 0.61964 0.03816 0.0
C1136 C 0.01756 0.61213 0.06756 0.0
C1137 C 0.0154 0.63371 0.08977 0.0
C1138 C 0.00764 0.66222 0.08173 0.0
C1139 C 0.00537 0.66954 0.0521 0.0
C1140 C 0.99425 0.67506 0.97132 0.0
C1141 C 0.97534 0.65574 0.95551 0.0
C1142 C 0.96104 0.66484 0.93005 0.0
C1143 C 0.9653 0.69356 0.92005 0.0
C1144 C 0.98142 0.71379 0.93802 0.0
C1145 C 0.9957 0.70461 0.96356 0.0
C1146 C 0.05436 0.68397 0.99598 0.0
C1147 C 0.06781 0.69277 0.02274 0.0
C1148 C 0.09486 0.70762 0.02326 0.0
C1149 C 0.10945 0.71312 0.99707 0.0
C1150 C 0.09508 0.70579 0.97027 0.0
C1151 C 0.06779 0.6914 0.96979 0.0
P1152 P 0.98906 0.2921 0.46268 0.0
H1153 H 0.03911 0.3044 0.4257 0.0
H1154 H 0.04079 0.33075 0.37998 0.0
H1155 H 0.95809 0.37014 0.39965 0.0
H1156 H 0.95676 0.34395 0.44572 0.0
H1157 H 0.97899 0.2524 0.50919 0.0
H1158 H 0.97184 0.25845 0.56162 0.0
H1159 H 0.97945 0.35232 0.55378 0.0
H1160 H 0.98631 0.34605 0.50071 0.0
H1161 H 0.9794 0.25814 0.40899 0.0
H1162 H 0.92671 0.29404 0.47771 0.0
O1163 O 0.0154 0.26742 0.46026 0.0
H1164 H 0.93509 0.24236 0.38179 0.0
H1165 H 0.88222 0.27721 0.4513 0.0
C1166 C 0.99774 0.3221 0.43918 0.0
C1167 C 0.02196 0.31971 0.42094 0.0
C1168 C 0.0227 0.33446 0.39448 0.0
C1169 C 0.99917 0.35187 0.38577 0.0
C1170 C 0.97655 0.35686 0.40565 0.0
C1171 C 0.97589 0.34208 0.4322 0.0
C1172 C 0.98329 0.29874 0.50114 0.0
C1173 C 0.97896 0.27434 0.51867 0.0
C1174 C 0.97481 0.2778 0.54863 0.0
C1175 C 0.97458 0.30576 0.5619 0.0
C1176 C 0.97868 0.33045 0.54425 0.0
C1177 C 0.98294 0.32692 0.51394 0.0
C1178 C 0.95635 0.27635 0.44577 0.0
C1179 C 0.95825 0.26185 0.4186 0.0
C1180 C 0.93287 0.25294 0.40304 0.0
C1181 C 0.90503 0.25836 0.41441 0.0
C1182 C 0.90326 0.27292 0.44175 0.0
C1183 C 0.92872 0.28208 0.45717 0.0
P1184 P 0.37902 0.76608 0.9727 0.0
H1185 H 0.34347 0.77046 0.91866 0.0
H1186 H 0.34039 0.74021 0.87386 0.0
H1187 H 0.39746 0.67755 0.91389 0.0
H1188 H 0.40029 0.70766 0.95844 0.0
H1189 H 0.34721 0.79684 0.01832 0.0
H1190 H 0.32972 0.78278 0.06606 0.0
H1191 H 0.36227 0.69558 0.05157 0.0
H1192 H 0.38068 0.71029 0.00426 0.0
H1193 H 0.42356 0.76701 0.92826 0.0
H1194 H 0.42047 0.77738 0.02234 0.0
O1195 O 0.3655 0.79863 0.96462 0.0
H1196 H 0.47667 0.77285 0.93055 0.0
H1197 H 0.47409 0.78445 0.02447 0.0
C1198 C 0.37137 0.74094 0.94236 0.0
C1199 C 0.35453 0.74976 0.91817 0.0
C1200 C 0.35309 0.73262 0.89239 0.0
C1201 C 0.36857 0.7064 0.89033 0.0
C1202 C 0.38474 0.69728 0.91492 0.0
C1203 C 0.38619 0.71441 0.9406 0.0
C1204 C 0.36447 0.7544 0.00716 0.0
C1205 C 0.35018 0.77455 0.02515 0.0
C1206 C 0.34006 0.7664 0.05253 0.0
C1207 C 0.3442 0.73788 0.06269 0.0
C1208 C 0.35879 0.71778 0.04463 0.0
C1209 C 0.36914 0.7261 0.01732 0.0
C1210 C 0.41814 0.77078 0.97523 0.0
C1211 C 0.43429 0.77024 0.94948 0.0
C1212 C 0.46463 0.7737 0.95074 0.0
C1213 C 0.4793 0.77869 0.9777 0.0
C1214 C 0.46312 0.78039 0.00348 0.0
C1215 C 0.43261 0.77627 0.00225 0.0
P1216 P 0.53743 0.61233 0.34732 0.0
H1217 H 0.54413 0.67639 0.35113 0.0
H1218 H 0.58001 0.71037 0.3305 0.0
H1219 H 0.61532 0.63867 0.27989 0.0
H1220 H 0.57869 0.60596 0.2988 0.0
H1221 H 0.49191 0.59671 0.38818 0.0
H1222 H 0.43938 0.60573 0.38995 0.0
H1223 H 0.44416 0.65046 0.30769 0.0
H1224 H 0.4968 0.64091 0.30598 0.0
H1225 H 0.58367 0.57286 0.3645 0.0
H1226 H 0.51207 0.57239 0.30149 0.0
O1227 O 0.54913 0.61619 0.38208 0.0
H1228 H 0.60183 0.52792 0.34255 0.0
H1229 H 0.52966 0.52671 0.27967 0.0
C1230 C 0.5586 0.63851 0.32673 0.0
C1231 C 0.55902 0.66832 0.33481 0.0
C1232 C 0.57989 0.68767 0.32322 0.0
C1233 C 0.60116 0.67745 0.30368 0.0
C1234 C 0.59933 0.64783 0.29444 0.0
C1235 C 0.57827 0.62873 0.30565 0.0
C1236 C 0.49836 0.61842 0.34713 0.0
C1237 C 0.48164 0.60845 0.3705 0.0
C1238 C 0.45157 0.6138 0.37158 0.0
C1239 C 0.43739 0.62902 0.34909 0.0
C1240 C 0.4542 0.63846 0.32532 0.0
C1241 C 0.48438 0.63316 0.32434 0.0
C1242 C 0.54613 0.57569 0.33506 0.0
C1243 C 0.57124 0.5625 0.34652 0.0
C1244 C 0.58165 0.53668 0.33388 0.0
C1245 C 0.56729 0.5235 0.30926 0.0
C1246 C 0.5415 0.53634 0.29841 0.0
C1247 C 0.53115 0.56228 0.31109 0.0
P1248 P 0.99414 0.01984 0.66144 0.0
H1249 H 0.02289 0.0148 0.60516 0.0
H1250 H 0.07437 0.01654 0.59324 0.0
H1251 H 0.09748 0.0039 0.68431 0.0
H1252 H 0.04537 1.00024 0.69574 0.0
H1253 H 0.96048 0.97166 0.63426 0.0
H1254 H 0.91557 0.94743 0.64951 0.0
H1255 H 0.92912 0.98377 0.73702 0.0
H1256 H 0.97415 0.00826 0.72133 0.0
H1257 H 0.0433 0.05693 0.68717 0.0
H1258 H 0.94862 0.05553 0.68578 0.0
O1259 O 0.97725 0.03047 0.6308 0.0
H1260 H 0.04412 0.10376 0.71253 0.0
H1261 H 0.94933 0.10376 0.70936 0.0
C1262 C 0.03028 0.00836 0.65157 0.0
C1263 C 0.03889 0.01138 0.6225 0.0
C1264 C 0.06852 0.01285 0.61574 0.0
C1265 C 0.0902 0.01189 0.63801 0.0
C1266 C 0.08147 0.00513 0.66658 0.0
C1267 C 0.05162 0.00286 0.67318 0.0
C1268 C 0.97024 0.99233 0.67641 0.0
C1269 C 0.95446 0.97347 0.65703 0.0
C1270 C 0.92865 0.95958 0.66587 0.0
C1271 C 0.91826 0.9642 0.69439 0.0
C1272 C 0.93611 0.98033 0.71472 0.0
C1273 C 0.96202 0.99417 0.70581 0.0
C1274 C 0.99579 0.05219 0.68481 0.0
C1275 C 0.02257 0.06605 0.69293 0.0
C1276 C 0.02307 0.09332 0.70726 0.0
C1277 C 0.99684 0.10781 0.71277 0.0
C1278 C 0.97002 0.09317 0.70597 0.0
C1279 C 0.96956 0.06563 0.69216 0.0
P1280 P 0.46032 0.98993 0.28946 0.0
H1281 H 0.42246 0.03985 0.29874 0.0
H1282 H 0.37607 0.04198 0.324 0.0
H1283 H 0.39609 0.96156 0.36751 0.0
H1284 H 0.44276 0.95976 0.34236 0.0
H1285 H 0.50794 0.98095 0.2509 0.0
H1286 H 0.56007 0.97285 0.25814 0.0
H1287 H 0.54974 0.97805 0.35184 0.0
H1288 H 0.49691 0.98586 0.34434 0.0
H1289 H 0.40788 0.9791 0.25373 0.0
H1290 H 0.4747 0.92781 0.29498 0.0
O1291 O 0.45845 0.01537 0.26382 0.0
H1292 H 0.38092 0.93435 0.2389 0.0
H1293 H 0.44849 0.88282 0.27928 0.0
C1294 C 0.43615 0.99959 0.31859 0.0
C1295 C 0.4176 0.02335 0.31471 0.0
C1296 C 0.39077 0.02433 0.32884 0.0
C1297 C 0.38202 1.00153 0.34712 0.0
C1298 C 0.40213 0.97948 0.35354 0.0
C1299 C 0.42903 0.97856 0.33937 0.0
C1300 C 0.49866 0.98427 0.29704 0.0
C1301 C 0.51681 0.9803 0.27306 0.0
C1302 C 0.5466 0.97557 0.27721 0.0
C1303 C 0.55908 0.97435 0.30546 0.0
C1304 C 0.54082 0.97809 0.32974 0.0
C1305 C 0.51065 0.98292 0.32552 0.0
C1306 C 0.44374 0.95673 0.27455 0.0
C1307 C 0.41715 0.95814 0.25886 0.0
C1308 C 0.40172 0.93251 0.25051 0.0
C1309 C 0.41261 0.90495 0.25777 0.0
C1310 C 0.43934 0.90367 0.27357 0.0
C1311 C 0.45465 0.92938 0.28209 0.0
P1312 P 0.97393 0.37626 0.76925 0.0
H1313 H 0.91989 0.34055 0.77275 0.0
H1314 H 0.87537 0.33746 0.7421 0.0
H1315 H 0.91539 0.39604 0.68077 0.0
H1316 H 0.95971 0.39886 0.71129 0.0
H1317 H 0.02048 0.34527 0.79937 0.0
H1318 H 0.06824 0.32828 0.78462 0.0
H1319 H 0.05229 0.36096 0.69772 0.0
H1320 H 0.00499 0.37882 0.71308 0.0
H1321 H 0.92878 0.42003 0.7707 0.0
H1322 H 0.02276 0.41785 0.78363 0.0
O1323 O 0.96598 0.36153 0.80128 0.0
H1324 H 0.93022 0.47286 0.77845 0.0
H1325 H 0.024 0.47122 0.79249 0.0
C1326 C 0.9437 0.36901 0.74382 0.0
C1327 C 0.91952 0.35188 0.75221 0.0
C1328 C 0.89386 0.35048 0.73487 0.0
C1329 C 0.89189 0.36635 0.70889 0.0
C1330 C 0.91641 0.38297 0.70027 0.0
C1331 C 0.94197 0.38439 0.71762 0.0
C1332 C 0.0086 0.36255 0.75714 0.0
C1333 C 0.02701 0.3484 0.77701 0.0
C1334 C 0.05439 0.33856 0.76847 0.0
C1335 C 0.06414 0.34287 0.73982 0.0
C1336 C 0.04568 0.35736 0.72 0.0
C1337 C 0.01837 0.36742 0.72872 0.0
C1338 C 0.97582 0.41516 0.77543 0.0
C1339 C 0.94982 0.43092 0.77485 0.0
C1340 C 0.95058 0.46109 0.77942 0.0
C1341 C 0.97725 0.47592 0.78559 0.0
C1342 C 0.00324 0.46008 0.78748 0.0
C1343 C 1.00253 0.42976 0.78231 0.0
P1344 P 0.77704 0.48438 0.40174 0.0
H1345 H 0.81713 0.44721 0.36958 0.0
H1346 H 0.81005 0.39955 0.34506 0.0
H1347 H 0.7164 0.4066 0.35292 0.0
H1348 H 0.72357 0.45393 0.37872 0.0
H1349 H 0.79733 0.5424 0.41922 0.0
H1350 H 0.77757 0.59092 0.41384 0.0
H1351 H 0.70457 0.55409 0.36265 0.0
H1352 H 0.72474 0.50497 0.36818 0.0
H1353 H 0.79797 0.44228 0.44337 0.0
H1354 H 0.72373 0.49851 0.43434 0.0
O1355 O 0.81323 0.48886 0.40676 0.0
H1356 H 0.7792 0.42472 0.48962 0.0
H1357 H 0.70517 0.48164 0.48101 0.0
C1358 C 0.77083 0.45456 0.37562 0.0
C1359 C 0.79497 0.43905 0.3654 0.0
C1360 C 0.79099 0.41166 0.35152 0.0
C1361 C 0.76274 0.39943 0.34718 0.0
C1362 C 0.73842 0.41573 0.35575 0.0
C1363 C 0.74247 0.44294 0.37022 0.0
C1364 C 0.763 0.52002 0.39349 0.0
C1365 C 0.77741 0.54466 0.40624 0.0
C1366 C 0.76603 0.57252 0.40318 0.0
C1367 C 0.73964 0.57649 0.38755 0.0
C1368 C 0.72497 0.55174 0.37484 0.0
C1369 C 0.7366 0.52367 0.37777 0.0
C1370 C 0.76267 0.47221 0.43584 0.0
C1371 C 0.77779 0.45109 0.45155 0.0
C1372 C 0.76706 0.44115 0.47802 0.0
C1373 C 0.74088 0.45208 0.48922 0.0
C1374 C 0.72535 0.47273 0.47296 0.0
C1375 C 0.73611 0.48262 0.44639 0.0
P1376 P 0.64074 0.52782 0.05361 0.0
H1377 H 0.61583 0.52793 0.99388 0.0
H1378 H 0.62128 0.56479 0.95648 0.0
H1379 H 0.69713 0.60125 0.00406 0.0
H1380 H 0.6935 0.56256 0.03866 0.0
H1381 H 0.63457 0.49161 0.10449 0.0
H1382 H 0.62772 0.43898 0.11011 0.0
H1383 H 0.64326 0.4258 0.01779 0.0
H1384 H 0.64947 0.47861 0.01234 0.0
H1385 H 0.63089 0.58497 0.07894 0.0
H1386 H 0.69302 0.51608 0.09035 0.0
O1387 O 0.60519 0.53527 0.05576 0.0
H1388 H 0.65928 0.61635 0.1132 0.0
H1389 H 0.7217 0.54759 0.12519 0.0
C1390 C 0.65334 0.54329 0.0199 0.0
C1391 C 0.63448 0.543 0.99533 0.0
C1392 C 0.63733 0.56467 0.97425 0.0
C1393 C 0.65839 0.58765 0.97811 0.0
C1394 C 0.68006 0.58475 1.00025 0.0
C1395 C 0.67781 0.56245 0.02059 0.0
C1396 C 0.64309 0.48894 0.0581 0.0
C1397 C 0.63729 0.47726 0.0856 0.0
C1398 C 0.6333 0.44708 0.08879 0.0
C1399 C 0.63474 0.42797 0.06438 0.0
C1400 C 0.64161 0.43982 0.03701 0.0
C1401 C 0.64553 0.47004 0.03386 0.0
C1402 C 0.65935 0.54794 0.08289 0.0
C1403 C 0.65036 0.57639 0.08934 0.0
C1404 C 0.66692 0.59449 0.10848 0.0
C1405 C 0.6929 0.5845 0.12151 0.0
C1406 C 0.70175 0.55577 0.11539 0.0
C1407 C 0.68523 0.53769 0.09584 0.0
P1408 P 0.36984 0.98732 0.68358 0.0
H1409 H 0.40523 0.03067 0.71793 0.0
H1410 H 0.40077 0.08335 0.72621 0.0
H1411 H 0.31477 0.07891 0.68474 0.0
H1412 H 0.31929 0.02706 0.67711 0.0
H1413 H 0.39997 0.93435 0.69969 0.0
H1414 H 0.38064 0.8868 0.71324 0.0
H1415 H 0.2963 0.92473 0.72882 0.0
H1416 H 0.31606 0.97224 0.71458 0.0
H1417 H 0.39288 0.96998 0.62652 0.0
H1418 H 0.30759 0.98089 0.66378 0.0
O1419 O 0.40604 0.98606 0.67915 0.0
H1420 H 0.36993 0.96208 0.57826 0.0
H1421 H 0.28467 0.97429 0.61532 0.0
C1422 C 0.36278 0.02449 0.6964 0.0
C1423 C 0.3851 0.04096 0.71119 0.0
C1424 C 0.38262 0.07133 0.7157 0.0
C1425 C 0.35767 0.08605 0.70552 0.0
C1426 C 0.33435 0.06886 0.69317 0.0
C1427 C 0.337 0.03867 0.68846 0.0
C1428 C 0.35947 0.95718 0.70633 0.0
C1429 C 0.37769 0.93287 0.70731 0.0
C1430 C 0.36651 0.90547 0.71504 0.0
C1431 C 0.33673 0.90175 0.72171 0.0
C1432 C 0.31924 0.9267 0.72337 0.0
C1433 C 0.33059 0.95412 0.71568 0.0
C1434 C 0.35222 0.97826 0.64857 0.0
C1435 C 0.36925 0.9709 0.62444 0.0
C1436 C 0.35608 0.96615 0.59682 0.0
C1437 C 0.32557 0.96854 0.59287 0.0
C1438 C 0.30826 0.97276 0.61758 0.0
C1439 C 0.3215 0.97727 0.64527 0.0
P1440 P 0.29939 0.01159 0.91701 0.0
H1441 H 0.30031 0.97707 0.96959 0.0
H1442 H 0.30099 0.92457 0.97762 0.0
H1443 H 0.31765 0.90949 0.88571 0.0
H1444 H 0.31502 0.96181 0.87769 0.0
H1445 H 0.29184 0.06458 0.95246 0.0
H1446 H 0.32502 0.10471 0.96736 0.0
H1447 H 0.39728 0.05835 0.92976 0.0
H1448 H 0.36386 0.01737 0.91618 0.0
H1449 H 0.2501 0.0331 0.88213 0.0
H1450 H 0.34017 0.01081 0.86783 0.0
O1451 O 0.26712 0.01674 0.93269 0.0
H1452 H 0.24474 0.04675 0.83105 0.0
H1453 H 0.3348 0.02438 0.81637 0.0
C1454 C 0.3077 0.9736 0.92311 0.0
C1455 C 0.30465 0.96247 0.95127 0.0
C1456 C 0.30514 0.93226 0.95582 0.0
C1457 C 0.3091 0.91237 0.93228 0.0
C1458 C 0.31382 0.92386 0.90432 0.0
C1459 C 0.31283 0.95407 0.89974 0.0
C1460 C 0.32535 0.03781 0.93333 0.0
C1461 C 0.31494 0.0626 0.94806 0.0
C1462 C 0.33396 0.08585 0.95624 0.0
C1463 C 0.36385 0.08517 0.94935 0.0
C1464 C 0.37448 0.05968 0.93563 0.0
C1465 C 0.35537 0.03621 0.92773 0.0
C1466 C 0.29544 0.02051 0.87881 0.0
C1467 C 0.26877 0.03107 0.86805 0.0
C1468 C 0.26579 0.0392 0.83885 0.0
C1469 C 0.28941 0.03684 0.81974 0.0
C1470 C 0.3162 0.02638 0.83058 0.0
C1471 C 0.31926 0.01858 0.85996 0.0
P1472 P 0.40163 0.76747 0.48895 0.0
H1473 H 0.37329 0.81114 0.4527 0.0
H1474 H 0.34876 0.8073 0.40474 0.0
H1475 H 0.34859 0.71312 0.40933 0.0
H1476 H 0.37447 0.71687 0.45682 0.0
H1477 H 0.40502 0.79192 0.54824 0.0
H1478 H 0.39585 0.77211 0.59607 0.0
H1479 H 0.36662 0.69005 0.55551 0.0
H1480 H 0.37623 0.71012 0.50711 0.0
H1481 H 0.43733 0.78134 0.43948 0.0
H1482 H 0.43919 0.71923 0.50932 0.0
O1483 O 0.40919 0.8031 0.4946 0.0
H1484 H 0.48319 0.76233 0.42116 0.0
H1485 H 0.48535 0.70033 0.49131 0.0
C1486 C 0.37533 0.76426 0.45885 0.0
C1487 C 0.36732 0.78959 0.44395 0.0
C1488 C 0.35341 0.78747 0.4164 0.0
C1489 C 0.34678 0.75996 0.40345 0.0
C1490 C 0.35314 0.7346 0.41909 0.0
C1491 C 0.36766 0.73673 0.44642 0.0
C1492 C 0.3908 0.75281 0.52378 0.0
C1493 C 0.39609 0.76984 0.54933 0.0
C1494 C 0.39077 0.75846 0.57688 0.0
C1495 C 0.38024 0.72955 0.57972 0.0
C1496 C 0.37477 0.71241 0.55409 0.0
C1497 C 0.37996 0.72398 0.52635 0.0
C1498 C 0.4349 0.75185 0.47581 0.0
C1499 C 0.44761 0.76356 0.45086 0.0
C1500 C 0.47389 0.75275 0.44048 0.0
C1501 C 0.48803 0.72995 0.45489 0.0
C1502 C 0.47487 0.71775 0.47957 0.0
C1503 C 0.44851 0.72867 0.49 0.0
P1504 P 0.92098 0.30077 0.01235 0.0
H1505 H 0.97308 0.29654 0.97733 0.0
H1506 H 0.98073 0.29609 0.92481 0.0
H1507 H 0.89086 0.3214 0.91037 0.0
H1508 H 0.88307 0.32016 0.96295 0.0
H1509 H 0.95397 0.29454 0.067 0.0
H1510 H 0.96752 0.32856 0.10677 0.0
H1511 H 0.93243 0.39977 0.05702 0.0
H1512 H 0.92025 0.36543 0.01638 0.0
H1513 H 0.88568 0.24945 0.02818 0.0
H1514 H 0.87166 0.34132 0.01459 0.0
O1515 O 0.93728 0.26905 0.01863 0.0
H1516 H 0.83459 0.24284 0.04143 0.0
H1517 H 0.82023 0.33478 0.02797 0.0
C1518 C 0.92751 0.30822 0.97424 0.0
C1519 C 0.95514 0.30249 0.96289 0.0
C1520 C 0.9595 0.30234 0.93265 0.0
C1521 C 0.93635 0.3084 0.91292 0.0
C1522 C 0.90907 0.31589 0.92462 0.0
C1523 C 0.90466 0.31562 0.95493 0.0
C1524 C 0.93625 0.32741 0.03853 0.0
C1525 C 0.94984 0.31757 0.06421 0.0
C1526 C 0.95722 0.33709 0.08726 0.0
C1527 C 0.95063 0.36696 0.08551 0.0
C1528 C 0.93803 0.377 0.05919 0.0
C1529 C 0.93094 0.35737 0.03591 0.0
C1530 C 0.88261 0.2959 0.02035 0.0
C1531 C 0.87168 0.26827 0.02805 0.0
C1532 C 0.84245 0.26454 0.03593 0.0
C1533 C 0.82345 0.28837 0.03613 0.0
C1534 C 0.83435 0.31602 0.02806 0.0
C1535 C 0.86374 0.31977 0.02042 0.0
P1536 P 0.06853 0.65367 0.53455 0.0
H1537 H 0.00954 0.62555 0.53508 0.0
H1538 H 0.97243 0.62508 0.57269 0.0
H1539 H 0.02022 0.69463 0.6198 0.0
H1540 H 0.05565 0.69592 0.58238 0.0
H1541 H 0.09385 0.6875 0.48587 0.0
H1542 H 0.09439 0.67818 0.43337 0.0
H1543 H 0.03854 0.60172 0.4435 0.0
H1544 H 0.03739 0.61156 0.49591 0.0
H1545 H 0.12031 0.64833 0.57221 0.0
H1546 H 0.07656 0.7172 0.52641 0.0
O1547 O 0.07943 0.62068 0.54473 0.0
H1548 H 0.14962 0.68465 0.59997 0.0
H1549 H 0.10651 0.75395 0.55423 0.0
C1550 C 0.03583 0.66068 0.55535 0.0
C1551 C 0.01137 0.64158 0.55278 0.0
C1552 C 0.99024 0.64109 0.57468 0.0
C1553 C 0.99348 0.65934 0.59991 0.0
C1554 C 0.01647 0.68031 0.60085 0.0
C1555 C 0.03727 0.68093 0.57899 0.0
C1556 C 0.06461 0.6509 0.49509 0.0
C1557 C 0.08088 0.66927 0.47691 0.0
C1558 C 0.08171 0.66357 0.44671 0.0
C1559 C 0.06662 0.63917 0.43401 0.0
C1560 C 0.05003 0.62106 0.45228 0.0
C1561 C 0.0491 0.62686 0.48241 0.0
C1562 C 0.09647 0.67994 0.54686 0.0
C1563 C 0.11765 0.67121 0.56732 0.0
C1564 C 0.13418 0.69204 0.58351 0.0
C1565 C 0.12984 0.72205 0.57961 0.0
C1566 C 0.1102 0.73091 0.55762 0.0
C1567 C 0.09343 0.70994 0.54145 0.0
P1568 P 0.68556 0.36859 0.98742 0.0
H1569 H 0.7165 0.40711 0.03056 0.0
H1570 H 0.72377 0.40476 0.08342 0.0
H1571 H 0.6878 0.31634 0.08087 0.0
H1572 H 0.6803 0.31923 0.02872 0.0
H1573 H 0.70757 0.39714 0.93556 0.0
H1574 H 0.72096 0.37682 0.88852 0.0
H1575 H 0.72577 0.29092 0.92596 0.0
H1576 H 0.71129 0.31154 0.97282 0.0
H1577 H 0.62912 0.39336 0.97055 0.0
H1578 H 0.66307 0.30703 0.98371 0.0
O1579 O 0.68271 0.40472 0.98376 0.0
H1580 H 0.58025 0.37194 0.96219 0.0
H1581 H 0.61422 0.28572 0.97607 0.0
C1582 C 0.69747 0.36345 0.02524 0.0
C1583 C 0.7106 0.38699 0.04131 0.0
C1584 C 0.71459 0.3857 0.07182 0.0
C1585 C 0.70579 0.36062 0.08711 0.0
C1586 C 0.69509 0.33615 0.07041 0.0
C1587 C 0.69054 0.33777 0.04007 0.0
C1588 C 0.70838 0.3559 0.95813 0.0
C1589 C 0.71264 0.37413 0.93417 0.0
C1590 C 0.72038 0.36239 0.90702 0.0
C1591 C 0.72395 0.33206 0.90319 0.0
C1592 C 0.72265 0.31431 0.92795 0.0
C1593 C 0.71482 0.32616 0.9551 0.0
C1594 C 0.64979 0.35211 0.9793 0.0
C1595 C 0.62625 0.36984 0.97171 0.0
C1596 C 0.59826 0.35753 0.9667 0.0
C1597 C 0.59326 0.32717 0.96909 0.0
C1598 C 0.6173 0.30918 0.97418 0.0
C1599 C 0.6453 0.32155 0.97918 0.0
P1600 P 0.49197 0.39935 0.77236 0.0
H1601 H 0.4545 0.36902 0.81364 0.0
H1602 H 0.40604 0.34567 0.80788 0.0
H1603 H 0.41128 0.35222 0.71409 0.0
H1604 H 0.45927 0.37708 0.71988 0.0
H1605 H 0.55164 0.40798 0.79411 0.0
H1606 H 0.59937 0.3985 0.77391 0.0
H1607 H 0.55771 0.36048 0.69591 0.0
H1608 H 0.50943 0.36988 0.71654 0.0
H1609 H 0.45024 0.44062 0.79429 0.0
H1610 H 0.5066 0.43349 0.71998 0.0
O1611 O 0.49765 0.40409 0.8084 0.0
H1612 H 0.4323 0.48705 0.77652 0.0
H1613 H 0.48922 0.48039 0.70231 0.0
C1614 C 0.46104 0.3743 0.76713 0.0
C1615 C 0.44575 0.36482 0.79172 0.0
C1616 C 0.41793 0.3516 0.78851 0.0
C1617 C 0.40507 0.34714 0.7606 0.0
C1618 C 0.42098 0.35511 0.73585 0.0
C1619 C 0.44858 0.36899 0.73912 0.0
C1620 C 0.52674 0.38905 0.75724 0.0
C1621 C 0.55253 0.39704 0.77291 0.0
C1622 C 0.57997 0.39161 0.76131 0.0
C1623 C 0.58238 0.37844 0.73343 0.0
C1624 C 0.55654 0.37061 0.71749 0.0
C1625 C 0.5289 0.3758 0.72936 0.0
C1626 C 0.4802 0.43395 0.75884 0.0
C1627 C 0.45903 0.44928 0.77431 0.0
C1628 C 0.44885 0.47587 0.76415 0.0
C1629 C 0.45958 0.48764 0.73817 0.0
C1630 C 0.48045 0.47188 0.72235 0.0
C1631 C 0.49061 0.44517 0.73257 0.0
P1632 P 0.00768 0.91359 0.30202 0.0
H1633 H 0.97039 0.95359 0.26992 0.0
H1634 H 0.91818 0.96323 0.27082 0.0
H1635 H 0.90899 0.90681 0.34489 0.0
H1636 H 0.96194 0.89759 0.34425 0.0
H1637 H 0.04825 0.96417 0.30383 0.0
H1638 H 0.08855 0.97872 0.33739 0.0
H1639 H 0.06362 0.90906 0.39504 0.0
H1640 H 0.02301 0.89491 0.36143 0.0
H1641 H 0.96591 0.86246 0.30002 0.0
H1642 H 0.05926 0.87837 0.29637 0.0
O1643 O 0.0187 0.92634 0.26998 0.0
H1644 H 0.97317 0.81023 0.29409 0.0
H1645 H 0.06663 0.82635 0.28785 0.0
C1646 C 0.97005 0.92433 0.30664 0.0
C1647 C 0.95739 0.94354 0.28669 0.0
C1648 C 0.92742 0.94915 0.28726 0.0
C1649 C 0.90935 0.93552 0.3077 0.0
C1650 C 0.9223 0.91732 0.32861 0.0
C1651 C 0.95253 0.91216 0.32837 0.0
C1652 C 0.0328 0.92825 0.32998 0.0
C1653 C 0.0511 0.95233 0.32394 0.0
C1654 C 0.07437 0.96048 0.34305 0.0
C1655 C 0.07973 0.94478 0.36872 0.0
C1656 C 0.06015 0.92174 0.37556 0.0
C1657 C 0.03688 0.91359 0.35635 0.0
C1658 C 0.01213 0.87444 0.2994 0.0
C1659 C 0.98805 0.85482 0.29835 0.0
C1660 C 0.99224 0.82475 0.29438 0.0
C1661 C 0.02053 0.81374 0.29033 0.0
C1662 C 0.04457 0.83363 0.29152 0.0
C1663 C 0.04038 0.86356 0.29615 0.0
P1664 P 0.53463 0.06904 0.65374 0.0
H1665 H 0.53245 0.00772 0.63119 0.0
H1666 H 0.56989 0.97004 0.63113 0.0
H1667 H 0.62391 0.02439 0.69015 0.0
H1668 H 0.58748 0.06091 0.69018 0.0
H1669 H 0.4849 0.08793 0.68987 0.0
H1670 H 0.43245 0.08836 0.67976 0.0
H1671 H 0.44501 0.04187 0.59788 0.0
H1672 H 0.49754 0.04082 0.60844 0.0
H1673 H 0.56494 0.12563 0.64954 0.0
H1674 H 0.52917 0.07244 0.71775 0.0
O1675 O 0.54545 0.08082 0.62127 0.0
H1676 H 0.59232 0.15507 0.68612 0.0
H1677 H 0.55658 0.10247 0.75476 0.0
C1678 C 0.55646 0.03723 0.66107 0.0
C1679 C 0.55184 0.01095 0.64501 0.0
C1680 C 0.57345 0.98947 0.64484 0.0
C1681 C 0.60016 0.99408 0.66057 0.0
C1682 C 0.60358 0.01948 0.67824 0.0
C1683 C 0.58227 0.04078 0.67823 0.0
C1684 C 0.49536 0.06386 0.65016 0.0
C1685 C 0.47649 0.07714 0.67009 0.0
C1686 C 0.44634 0.07787 0.66404 0.0
C1687 C 0.43439 0.06552 0.63787 0.0
C1688 C 0.45329 0.0514 0.61841 0.0
C1689 C 0.48342 0.05059 0.62452 0.0
C1690 C 0.54495 0.09682 0.68087 0.0
C1691 C 0.56208 0.12086 0.67243 0.0
C1692 C 0.57798 0.13755 0.69335 0.0
C1693 C 0.57696 0.13054 0.72309 0.0
C1694 C 0.55771 0.10819 0.73191 0.0
C1695 C 0.54185 0.09129 0.71084 0.0
P1696 P 0.99134 0.69155 0.36637 0.0
H1697 H 0.03699 0.72013 0.40423 0.0
H1698 H 0.09032 0.72406 0.40109 0.0
H1699 H 0.08463 0.68416 0.31454 0.0
H1700 H 0.03206 0.68149 0.31745 0.0
H1701 H 0.93315 0.70472 0.38546 0.0
H1702 H 0.89014 0.71844 0.35775 0.0
H1703 H 0.94489 0.74296 0.2857 0.0
H1704 H 0.98817 0.72773 0.31389 0.0
H1705 H 0.97029 0.6362 0.3909 0.0
H1706 H 0.98488 0.67043 0.30507 0.0
O1707 O 0.98656 0.68984 0.40244 0.0
H1708 H 0.96021 0.58769 0.36909 0.0
H1709 H 0.97642 0.62164 0.28324 0.0
C1710 C 0.03005 0.70024 0.36116 0.0
C1711 C 0.0472 0.71283 0.38427 0.0
C1712 C 0.07793 0.71478 0.38256 0.0
C1713 C 0.09238 0.70404 0.35769 0.0
C1714 C 0.0748 0.69309 0.33401 0.0
C1715 C 0.04421 0.69129 0.3357 0.0
C1716 C 0.96398 0.71539 0.35177 0.0
C1717 C 0.93617 0.71436 0.36424 0.0
C1718 C 0.91133 0.72224 0.34815 0.0
C1719 C 0.91368 0.73137 0.31905 0.0
C1720 C 0.94205 0.73537 0.30776 0.0
C1721 C 0.96695 0.7272 0.32395 0.0
C1722 C 0.9806 0.65651 0.34987 0.0
C1723 C 0.97152 0.63334 0.36739 0.0
C1724 C 0.9655 0.60563 0.35485 0.0
C1725 C 0.9685 0.60065 0.32454 0.0
C1726 C 0.97438 0.62464 0.30669 0.0
C1727 C 0.98005 0.65242 0.31929 0.0
loop_
_geom_bond_atom_site_label_1
_geom_bond_atom_site_label_2
_geom_bond_distance
_geom_bond_site_symmetry_2
_ccdc_geom_bond_type
C0 C1 1.264 . S
C0 C5 1.479 . S
C0 C10 1.465 . S
C1 C0 1.264 . S
C1 C3 1.339 . S
C1 H28 0.931 . S
C2 C3 1.395 . S
C2 C4 1.320 . S
C3 C1 1.339 . S
C3 C2 1.395 . S
C3 H29 0.929 . S
C4 C2 1.320 . S
C4 C5 1.405 . S
C4 H30 0.930 . S
C5 C0 1.479 . S
C5 C4 1.405 . S
C5 H31 0.931 . S
U6 O7 2.454 . S
U6 O8 2.458 . S
U6 C9 2.984 . S
U6 C10 2.847 . S
U6 C23 2.882 . S
U6 O24 2.441 . S
U6 O25 2.420 . S
U6 O26 2.455 . S
U6 O27 2.449 . S
O7 U6 2.454 . S
O7 C9 1.353 . S
O8 U6 2.458 . S
O8 C9 1.286 . S
C9 U6 2.984 . S
C9 O7 1.353 . S
C9 O8 1.286 . S
C9 C11 1.363 . S
C10 C0 1.465 . S
C10 U6 2.847 . S
C10 O24 1.249 . S
C10 O25 1.202 . S
C11 C9 1.363 . S
C11 C13 1.408 . S
C11 C16 1.342 . S
C12 C13 1.310 . S
C12 C15 1.461 . S
C12 H32 0.932 . S
C13 C11 1.408 . S
C13 C12 1.310 . S
C13 H33 0.930 . S
C14 C15 1.474 . S
C14 C16 1.285 . S
C14 H34 0.929 . S
C15 C12 1.461 . S
C15 C14 1.474 . S
C16 C11 1.342 . S
C16 C14 1.285 . S
C16 H35 0.930 . S
C17 C20 1.424 . S
C17 C22 1.245 . S
C17 C23 1.428 . S
C18 C21 1.260 . S
C18 C22 1.477 . S
C18 H36 0.932 . S
C19 C20 1.384 . S
C19 C21 1.479 . S
C19 H37 0.929 . S
C20 C17 1.424 . S
C20 C19 1.384 . S
C20 H38 0.928 . S
C21 C18 1.260 . S
C21 C19 1.479 . S
C22 C17 1.245 . S
C22 C18 1.477 . S
C22 H39 0.932 . S
C23 U6 2.882 . S
C23 C17 1.428 . S
C23 O26 1.301 . S
C23 O27 1.282 . S
O24 U6 2.441 . S
O24 C10 1.249 . S
O25 U6 2.420 . S
O25 C10 1.202 . S
O26 U6 2.455 . S
O26 C23 1.301 . S
O27 U6 2.449 . S
O27 C23 1.282 . S
H28 C1 0.931 . S
H29 C3 0.929 . S
H30 C4 0.930 . S
H31 C5 0.931 . S
H32 C12 0.932 . S
H33 C13 0.930 . S
H34 C14 0.929 . S
H35 C16 0.930 . S
H36 C18 0.932 . S
H37 C19 0.929 . S
H38 C20 0.928 . S
H39 C22 0.932 . S
C40 C41 1.264 . S
C40 C45 1.479 . S
C40 C50 1.465 . S
C41 C40 1.264 . S
C41 C43 1.339 . S
C41 H68 0.931 . S
C42 C43 1.395 . S
C42 C44 1.320 . S
C43 C41 1.339 . S
C43 C42 1.395 . S
C43 H69 0.929 . S
C44 C42 1.320 . S
C44 C45 1.405 . S
C44 H70 0.930 . S
C45 C40 1.479 . S
C45 C44 1.405 . S
C45 H71 0.931 . S
U46 O47 2.454 . S
U46 O48 2.458 . S
U46 C49 2.984 . S
U46 C50 2.847 . S
U46 C63 2.882 . S
U46 O64 2.441 . S
U46 O65 2.420 . S
U46 O66 2.455 . S
U46 O67 2.449 . S
O47 U46 2.454 . S
O47 C49 1.353 . S
O48 U46 2.458 . S
O48 C49 1.286 . S
C49 U46 2.984 . S
C49 O47 1.353 . S
C49 O48 1.286 . S
C49 C51 1.363 . S
C50 C40 1.465 . S
C50 U46 2.847 . S
C50 O64 1.249 . S
C50 O65 1.202 . S
C51 C49 1.363 . S
C51 C53 1.408 . S
C51 C56 1.342 . S
C52 C53 1.310 . S
C52 C55 1.461 . S
C52 H72 0.932 . S
C53 C51 1.408 . S
C53 C52 1.310 . S
C53 H73 0.930 . S
C54 C55 1.474 . S
C54 C56 1.285 . S
C54 H74 0.929 . S
C55 C52 1.461 . S
C55 C54 1.474 . S
C56 C51 1.342 . S
C56 C54 1.285 . S
C56 H75 0.930 . S
C57 C60 1.424 . S
C57 C62 1.245 . S
C57 C63 1.428 . S
C58 C61 1.260 . S
C58 C62 1.477 . S
C58 H76 0.932 . S
C59 C60 1.384 . S
C59 C61 1.479 . S
C59 H77 0.929 . S
C60 C57 1.424 . S
C60 C59 1.384 . S
C60 H78 0.928 . S
C61 C58 1.260 . S
C61 C59 1.479 . S
C62 C57 1.245 . S
C62 C58 1.477 . S
C62 H79 0.932 . S
C63 U46 2.882 . S
C63 C57 1.428 . S
C63 O66 1.301 . S
C63 O67 1.282 . S
O64 U46 2.441 . S
O64 C50 1.249 . S
O65 U46 2.420 . S
O65 C50 1.202 . S
O66 U46 2.455 . S
O66 C63 1.301 . S
O67 U46 2.449 . S
O67 C63 1.282 . S
H68 C41 0.931 . S
H69 C43 0.929 . S
H70 C44 0.930 . S
H71 C45 0.931 . S
H72 C52 0.932 . S
H73 C53 0.930 . S
H74 C54 0.929 . S
H75 C56 0.930 . S
H76 C58 0.932 . S
H77 C59 0.929 . S
H78 C60 0.928 . S
H79 C62 0.932 . S
C80 C81 1.264 1_565 S
C80 C85 1.477 1_565 S
C80 C90 1.467 . S
C81 C80 1.264 1_545 S
C81 C83 1.343 . S
C81 H108 0.928 1_545 S
C82 C83 1.395 . S
C82 C84 1.320 . S
C83 C81 1.343 . S
C83 C82 1.395 . S
C83 H109 0.929 . S
C84 C82 1.320 . S
C84 C85 1.405 . S
C84 H110 0.930 . S
C85 C80 1.477 1_545 S
C85 C84 1.405 . S
C85 H111 0.931 . S
U86 O87 2.454 . S
U86 O88 2.458 . S
U86 C89 2.984 . S
U86 C90 2.847 . S
U86 C103 2.882 . S
U86 O104 2.441 . S
U86 O105 2.420 . S
U86 O106 2.455 . S
U86 O107 2.449 . S
O87 U86 2.454 . S
O87 C89 1.353 . S
O88 U86 2.458 . S
O88 C89 1.286 . S
C89 U86 2.984 . S
C89 O87 1.353 . S
C89 O88 1.286 . S
C89 C91 1.363 . S
C90 C80 1.467 . S
C90 U86 2.847 . S
C90 O104 1.249 . S
C90 O105 1.202 . S
C91 C89 1.363 . S
C91 C93 1.408 . S
C91 C96 1.342 . S
C92 C93 1.310 . S
C92 C95 1.461 . S
C92 H112 0.932 . S
C93 C91 1.408 . S
C93 C92 1.310 . S
C93 H113 0.930 . S
C94 C95 1.474 . S
C94 C96 1.285 . S
C94 H114 0.929 . S
C95 C92 1.461 . S
C95 C94 1.474 . S
C96 C91 1.342 . S
C96 C94 1.285 . S
C96 H115 0.930 . S
C97 C100 1.424 . S
C97 C102 1.245 . S
C97 C103 1.428 . S
C98 C101 1.260 . S
C98 C102 1.477 . S
C98 H116 0.932 . S
C99 C100 1.384 . S
C99 C101 1.479 . S
C99 H117 0.929 . S
C100 C97 1.424 . S
C100 C99 1.384 . S
C100 H118 0.928 . S
C101 C98 1.260 . S
C101 C99 1.479 . S
C102 C97 1.245 . S
C102 C98 1.477 . S
C102 H119 0.932 . S
C103 U86 2.882 . S
C103 C97 1.428 . S
C103 O106 1.301 . S
C103 O107 1.282 . S
O104 U86 2.441 . S
O104 C90 1.249 . S
O105 U86 2.420 . S
O105 C90 1.202 . S
O106 U86 2.455 . S
O106 C103 1.301 . S
O107 U86 2.449 . S
O107 C103 1.282 . S
H108 C81 0.928 1_565 S
H109 C83 0.929 . S
H110 C84 0.930 . S
H111 C85 0.931 . S
H112 C92 0.932 . S
H113 C93 0.930 . S
H114 C94 0.929 . S
H115 C96 0.930 . S
H116 C98 0.932 . S
H117 C99 0.929 . S
H118 C100 0.928 . S
H119 C102 0.932 . S
C120 C121 1.264 . S
C120 C125 1.479 . S
C120 C130 1.465 . S
C121 C120 1.264 . S
C121 C123 1.339 . S
C121 H148 0.931 . S
C122 C123 1.395 . S
C122 C124 1.320 . S
C123 C121 1.339 . S
C123 C122 1.395 . S
C123 H149 0.929 . S
C124 C122 1.320 . S
C124 C125 1.405 . S
C124 H150 0.930 1_545 S
C125 C120 1.479 . S
C125 C124 1.405 . S
C125 H151 0.931 . S
U126 O127 2.462 . S
U126 O128 2.458 . S
U126 C129 2.977 1_545 S
U126 C130 2.847 . S
U126 C143 2.882 . S
U126 O144 2.441 . S
U126 O145 2.420 . S
U126 O146 2.455 . S
U126 O147 2.449 . S
O127 U126 2.462 . S
O127 C129 1.352 1_545 S
O128 U126 2.458 . S
O128 C129 1.281 1_545 S
C129 U126 2.977 1_565 S
C129 O127 1.352 1_565 S
C129 O128 1.281 1_565 S
C129 C131 1.370 . S
C130 C120 1.465 . S
C130 U126 2.847 . S
C130 O144 1.249 . S
C130 O145 1.202 . S
C131 C129 1.370 . S
C131 C133 1.408 . S
C131 C136 1.342 . S
C132 C133 1.310 . S
C132 C135 1.461 . S
C132 H152 0.932 . S
C133 C131 1.408 . S
C133 C132 1.310 . S
C133 H153 0.930 . S
C134 C135 1.474 . S
C134 C136 1.285 . S
C134 H154 0.929 . S
C135 C132 1.461 . S
C135 C134 1.474 . S
C136 C131 1.342 . S
C136 C134 1.285 . S
C136 H155 0.930 . S
C137 C140 1.424 . S
C137 C142 1.245 . S
C137 C143 1.428 . S
C138 C141 1.260 . S
C138 C142 1.477 . S
C138 H156 0.932 . S
C139 C140 1.384 . S
C139 C141 1.479 . S
C139 H157 0.929 . S
C140 C137 1.424 . S
C140 C139 1.384 . S
C140 H158 0.928 . S
C141 C138 1.260 . S
C141 C139 1.479 . S
C142 C137 1.245 . S
C142 C138 1.477 . S
C142 H159 0.932 . S
C143 U126 2.882 . S
C143 C137 1.428 . S
C143 O146 1.301 . S
C143 O147 1.282 . S
O144 U126 2.441 . S
O144 C130 1.249 . S
O145 U126 2.420 . S
O145 C130 1.202 . S
O146 U126 2.455 . S
O146 C143 1.301 . S
O147 U126 2.449 . S
O147 C143 1.282 . S
H148 C121 0.931 . S
H149 C123 0.929 . S
H150 C124 0.930 1_565 S
H151 C125 0.931 . S
H152 C132 0.932 . S
H153 C133 0.930 . S
H154 C134 0.929 . S
H155 C136 0.930 . S
H156 C138 0.932 . S
H157 C139 0.929 . S
H158 C140 0.928 . S
H159 C142 0.932 . S
C160 C161 1.264 . S
C160 C165 1.479 . S
C160 C170 1.465 . S
C161 C160 1.264 . S
C161 C163 1.339 . S
C161 H188 0.931 . S
C162 C163 1.395 . S
C162 C164 1.320 . S
C163 C161 1.339 . S
C163 C162 1.395 . S
C163 H189 0.929 . S
C164 C162 1.320 . S
C164 C165 1.405 . S
C164 H190 0.930 . S
C165 C160 1.479 . S
C165 C164 1.405 . S
C165 H191 0.931 . S
U166 O167 2.454 . S
U166 O168 2.458 . S
U166 C169 2.984 . S
U166 C170 2.847 . S
U166 C183 2.882 . S
U166 O184 2.441 . S
U166 O185 2.420 . S
U166 O186 2.455 . S
U166 O187 2.449 . S
O167 U166 2.454 . S
O167 C169 1.353 . S
O168 U166 2.458 . S
O168 C169 1.286 . S
C169 U166 2.984 . S
C169 O167 1.353 . S
C169 O168 1.286 . S
C169 C171 1.363 . S
C170 C160 1.465 . S
C170 U166 2.847 . S
C170 O184 1.249 . S
C170 O185 1.202 . S
C171 C169 1.363 . S
C171 C173 1.408 . S
C171 C176 1.342 . S
C172 C173 1.310 . S
C172 C175 1.461 . S
C172 H192 0.932 . S
C173 C171 1.408 . S
C173 C172 1.310 . S
C173 H193 0.930 . S
C174 C175 1.474 . S
C174 C176 1.285 . S
C174 H194 0.929 . S
C175 C172 1.461 . S
C175 C174 1.474 . S
C176 C171 1.342 . S
C176 C174 1.285 . S
C176 H195 0.930 . S
C177 C180 1.424 . S
C177 C182 1.245 . S
C177 C183 1.428 . S
C178 C181 1.260 . S
C178 C182 1.477 . S
C178 H196 0.932 . S
C179 C180 1.384 . S
C179 C181 1.479 . S
C179 H197 0.929 . S
C180 C177 1.424 . S
C180 C179 1.384 . S
C180 H198 0.928 . S
C181 C178 1.260 . S
C181 C179 1.479 . S
C182 C177 1.245 . S
C182 C178 1.477 . S
C182 H199 0.932 . S
C183 U166 2.882 . S
C183 C177 1.428 . S
C183 O186 1.301 . S
C183 O187 1.282 . S
O184 U166 2.441 . S
O184 C170 1.249 . S
O185 U166 2.420 . S
O185 C170 1.202 . S
O186 U166 2.455 . S
O186 C183 1.301 . S
O187 U166 2.449 . S
O187 C183 1.282 . S
H188 C161 0.931 . S
H189 C163 0.929 . S
H190 C164 0.930 . S
H191 C165 0.931 . S
H192 C172 0.932 . S
H193 C173 0.930 . S
H194 C174 0.929 . S
H195 C176 0.930 . S
H196 C178 0.932 . S
H197 C179 0.929 . S
H198 C180 0.928 . S
H199 C182 0.932 . S
C200 C201 1.264 . S
C200 C205 1.479 . S
C200 C210 1.465 . S
C201 C200 1.264 . S
C201 C203 1.339 . S
C201 H228 0.931 . S
C202 C203 1.395 . S
C202 C204 1.320 . S
C203 C201 1.339 . S
C203 C202 1.395 . S
C203 H229 0.929 . S
C204 C202 1.320 . S
C204 C205 1.405 . S
C204 H230 0.930 1_554 S
C205 C200 1.479 . S
C205 C204 1.405 . S
C205 H231 0.931 . S
U206 O207 2.462 . S
U206 O208 2.458 . S
U206 C209 2.977 1_554 S
U206 C210 2.847 . S
U206 C223 2.882 . S
U206 O224 2.441 . S
U206 O225 2.420 . S
U206 O226 2.455 . S
U206 O227 2.449 . S
O207 U206 2.462 . S
O207 C209 1.352 1_554 S
O208 U206 2.458 . S
O208 C209 1.281 1_554 S
C209 U206 2.977 1_556 S
C209 O207 1.352 1_556 S
C209 O208 1.281 1_556 S
C209 C211 1.370 . S
C210 C200 1.465 . S
C210 U206 2.847 . S
C210 O224 1.249 . S
C210 O225 1.202 . S
C211 C209 1.370 . S
C211 C213 1.408 . S
C211 C216 1.342 . S
C212 C213 1.310 . S
C212 C215 1.461 . S
C212 H232 0.932 . S
C213 C211 1.408 . S
C213 C212 1.310 . S
C213 H233 0.930 . S
C214 C215 1.474 . S
C214 C216 1.285 . S
C214 H234 0.929 . S
C215 C212 1.461 . S
C215 C214 1.474 . S
C216 C211 1.342 . S
C216 C214 1.285 . S
C216 H235 0.930 . S
C217 C220 1.424 . S
C217 C222 1.245 . S
C217 C223 1.428 . S
C218 C221 1.260 . S
C218 C222 1.477 . S
C218 H236 0.932 . S
C219 C220 1.384 . S
C219 C221 1.479 . S
C219 H237 0.929 . S
C220 C217 1.424 . S
C220 C219 1.384 . S
C220 H238 0.928 . S
C221 C218 1.260 . S
C221 C219 1.479 . S
C222 C217 1.245 . S
C222 C218 1.477 . S
C222 H239 0.932 . S
C223 U206 2.882 . S
C223 C217 1.428 . S
C223 O226 1.301 . S
C223 O227 1.282 . S
O224 U206 2.441 . S
O224 C210 1.249 . S
O225 U206 2.420 . S
O225 C210 1.202 . S
O226 U206 2.455 . S
O226 C223 1.301 . S
O227 U206 2.449 . S
O227 C223 1.282 . S
H228 C201 0.931 . S
H229 C203 0.929 . S
H230 C204 0.930 1_556 S
H231 C205 0.931 . S
H232 C212 0.932 . S
H233 C213 0.930 . S
H234 C214 0.929 . S
H235 C216 0.930 . S
H236 C218 0.932 . S
H237 C219 0.929 . S
H238 C220 0.928 . S
H239 C222 0.932 . S
C240 C241 1.264 . S
C240 C245 1.479 . S
C240 C250 1.465 . S
C241 C240 1.264 . S
C241 C243 1.339 . S
C241 H268 0.931 . S
C242 C243 1.395 . S
C242 C244 1.320 . S
C243 C241 1.339 . S
C243 C242 1.395 . S
C243 H269 0.929 . S
C244 C242 1.320 . S
C244 C245 1.405 . S
C244 H270 0.930 . S
C245 C240 1.479 . S
C245 C244 1.405 . S
C245 H271 0.931 . S
U246 O247 2.454 . S
U246 O248 2.458 . S
U246 C249 2.984 . S
U246 C250 2.847 . S
U246 C263 2.882 . S
U246 O264 2.441 . S
U246 O265 2.420 . S
U246 O266 2.455 . S
U246 O267 2.449 . S
O247 U246 2.454 . S
O247 C249 1.353 . S
O248 U246 2.458 . S
O248 C249 1.286 . S
C249 U246 2.984 . S
C249 O247 1.353 . S
C249 O248 1.286 . S
C249 C251 1.363 . S
C250 C240 1.465 . S
C250 U246 2.847 . S
C250 O264 1.249 . S
C250 O265 1.202 . S
C251 C249 1.363 . S
C251 C253 1.408 . S
C251 C256 1.342 . S
C252 C253 1.310 . S
C252 C255 1.461 . S
C252 H272 0.932 . S
C253 C251 1.408 . S
C253 C252 1.310 . S
C253 H273 0.930 . S
C254 C255 1.474 . S
C254 C256 1.285 . S
C254 H274 0.929 . S
C255 C252 1.461 . S
C255 C254 1.474 . S
C256 C251 1.342 . S
C256 C254 1.285 . S
C256 H275 0.930 . S
C257 C260 1.424 . S
C257 C262 1.245 . S
C257 C263 1.428 . S
C258 C261 1.260 . S
C258 C262 1.477 . S
C258 H276 0.932 . S
C259 C260 1.384 . S
C259 C261 1.479 . S
C259 H277 0.929 . S
C260 C257 1.424 . S
C260 C259 1.384 . S
C260 H278 0.928 . S
C261 C258 1.260 . S
C261 C259 1.479 . S
C262 C257 1.245 . S
C262 C258 1.477 . S
C262 H279 0.932 . S
C263 U246 2.882 . S
C263 C257 1.428 . S
C263 O266 1.301 . S
C263 O267 1.282 . S
O264 U246 2.441 . S
O264 C250 1.249 . S
O265 U246 2.420 . S
O265 C250 1.202 . S
O266 U246 2.455 . S
O266 C263 1.301 . S
O267 U246 2.449 . S
O267 C263 1.282 . S
H268 C241 0.931 . S
H269 C243 0.929 . S
H270 C244 0.930 . S
H271 C245 0.931 . S
H272 C252 0.932 . S
H273 C253 0.930 . S
H274 C254 0.929 . S
H275 C256 0.930 . S
H276 C258 0.932 . S
H277 C259 0.929 . S
H278 C260 0.928 . S
H279 C262 0.932 . S
C280 C281 1.264 1_556 S
C280 C285 1.477 1_556 S
C280 C290 1.467 . S
C281 C280 1.264 1_554 S
C281 C283 1.343 . S
C281 H308 0.928 1_554 S
C282 C283 1.395 . S
C282 C284 1.320 . S
C283 C281 1.343 . S
C283 C282 1.395 . S
C283 H309 0.929 . S
C284 C282 1.320 . S
C284 C285 1.405 . S
C284 H310 0.930 . S
C285 C280 1.477 1_554 S
C285 C284 1.405 . S
C285 H311 0.931 . S
U286 O287 2.454 . S
U286 O288 2.458 . S
U286 C289 2.984 . S
U286 C290 2.847 . S
U286 C303 2.882 . S
U286 O304 2.441 . S
U286 O305 2.420 . S
U286 O306 2.455 . S
U286 O307 2.449 . S
O287 U286 2.454 . S
O287 C289 1.353 . S
O288 U286 2.458 . S
O288 C289 1.286 . S
C289 U286 2.984 . S
C289 O287 1.353 . S
C289 O288 1.286 . S
C289 C291 1.363 . S
C290 C280 1.467 . S
C290 U286 2.847 . S
C290 O304 1.249 . S
C290 O305 1.202 . S
C291 C289 1.363 . S
C291 C293 1.408 . S
C291 C296 1.342 . S
C292 C293 1.310 . S
C292 C295 1.461 . S
C292 H312 0.932 . S
C293 C291 1.408 . S
C293 C292 1.310 . S
C293 H313 0.930 . S
C294 C295 1.474 . S
C294 C296 1.285 . S
C294 H314 0.929 . S
C295 C292 1.461 . S
C295 C294 1.474 . S
C296 C291 1.342 . S
C296 C294 1.285 . S
C296 H315 0.930 . S
C297 C300 1.424 . S
C297 C302 1.245 . S
C297 C303 1.428 . S
C298 C301 1.260 . S
C298 C302 1.477 . S
C298 H316 0.932 . S
C299 C300 1.384 . S
C299 C301 1.479 . S
C299 H317 0.929 . S
C300 C297 1.424 . S
C300 C299 1.384 . S
C300 H318 0.928 . S
C301 C298 1.260 . S
C301 C299 1.479 . S
C302 C297 1.245 . S
C302 C298 1.477 . S
C302 H319 0.932 . S
C303 U286 2.882 . S
C303 C297 1.428 . S
C303 O306 1.301 . S
C303 O307 1.282 . S
O304 U286 2.441 . S
O304 C290 1.249 . S
O305 U286 2.420 . S
O305 C290 1.202 . S
O306 U286 2.455 . S
O306 C303 1.301 . S
O307 U286 2.449 . S
O307 C303 1.282 . S
H308 C281 0.928 1_556 S
H309 C283 0.929 . S
H310 C284 0.930 . S
H311 C285 0.931 . S
H312 C292 0.932 . S
H313 C293 0.930 . S
H314 C294 0.929 . S
H315 C296 0.930 . S
H316 C298 0.932 . S
H317 C299 0.929 . S
H318 C300 0.928 . S
H319 C302 0.932 . S
C320 C321 1.264 . S
C320 C325 1.479 . S
C320 C330 1.465 . S
C321 C320 1.264 . S
C321 C323 1.339 . S
C321 H348 0.931 . S
C322 C323 1.395 . S
C322 C324 1.320 . S
C323 C321 1.339 . S
C323 C322 1.395 . S
C323 H349 0.929 . S
C324 C322 1.320 . S
C324 C325 1.405 . S
C324 H350 0.930 . S
C325 C320 1.479 . S
C325 C324 1.405 . S
C325 H351 0.931 . S
U326 O327 2.454 . S
U326 O328 2.458 . S
U326 C329 2.984 . S
U326 C330 2.847 . S
U326 C343 2.882 . S
U326 O344 2.441 . S
U326 O345 2.420 . S
U326 O346 2.455 . S
U326 O347 2.449 . S
O327 U326 2.454 . S
O327 C329 1.353 . S
O328 U326 2.458 . S
O328 C329 1.286 . S
C329 U326 2.984 . S
C329 O327 1.353 . S
C329 O328 1.286 . S
C329 C331 1.363 . S
C330 C320 1.465 . S
C330 U326 2.847 . S
C330 O344 1.249 . S
C330 O345 1.202 . S
C331 C329 1.363 . S
C331 C333 1.408 . S
C331 C336 1.342 . S
C332 C333 1.310 . S
C332 C335 1.461 . S
C332 H352 0.932 . S
C333 C331 1.408 . S
C333 C332 1.310 . S
C333 H353 0.930 . S
C334 C335 1.474 . S
C334 C336 1.285 . S
C334 H354 0.929 . S
C335 C332 1.461 . S
C335 C334 1.474 . S
C336 C331 1.342 . S
C336 C334 1.285 . S
C336 H355 0.930 . S
C337 C340 1.424 . S
C337 C342 1.245 . S
C337 C343 1.428 . S
C338 C341 1.260 . S
C338 C342 1.477 . S
C338 H356 0.932 . S
C339 C340 1.384 . S
C339 C341 1.479 . S
C339 H357 0.929 . S
C340 C337 1.424 . S
C340 C339 1.384 . S
C340 H358 0.928 . S
C341 C338 1.260 . S
C341 C339 1.479 . S
C342 C337 1.245 . S
C342 C338 1.477 . S
C342 H359 0.932 . S
C343 U326 2.882 . S
C343 C337 1.428 . S
C343 O346 1.301 . S
C343 O347 1.282 . S
O344 U326 2.441 . S
O344 C330 1.249 . S
O345 U326 2.420 . S
O345 C330 1.202 . S
O346 U326 2.455 . S
O346 C343 1.301 . S
O347 U326 2.449 . S
O347 C343 1.282 . S
H348 C321 0.931 . S
H349 C323 0.929 . S
H350 C324 0.930 . S
H351 C325 0.931 . S
H352 C332 0.932 . S
H353 C333 0.930 . S
H354 C334 0.929 . S
H355 C336 0.930 . S
H356 C338 0.932 . S
H357 C339 0.929 . S
H358 C340 0.928 . S
H359 C342 0.932 . S
C360 C361 1.264 . S
C360 C365 1.479 . S
C360 C370 1.465 . S
C361 C360 1.264 . S
C361 C363 1.339 . S
C361 H388 0.931 . S
C362 C363 1.395 . S
C362 C364 1.320 . S
C363 C361 1.339 . S
C363 C362 1.395 . S
C363 H389 0.929 . S
C364 C362 1.320 . S
C364 C365 1.405 . S
C364 H390 0.930 1_455 S
C365 C360 1.479 . S
C365 C364 1.405 . S
C365 H391 0.931 . S
U366 O367 2.462 . S
U366 O368 2.458 . S
U366 C369 2.977 1_455 S
U366 C370 2.847 . S
U366 C383 2.882 . S
U366 O384 2.441 . S
U366 O385 2.420 . S
U366 O386 2.455 . S
U366 O387 2.449 . S
O367 U366 2.462 . S
O367 C369 1.352 1_455 S
O368 U366 2.458 . S
O368 C369 1.281 1_455 S
C369 U366 2.977 1_655 S
C369 O367 1.352 1_655 S
C369 O368 1.281 1_655 S
C369 C371 1.370 . S
C370 C360 1.465 . S
C370 U366 2.847 . S
C370 O384 1.249 . S
C370 O385 1.202 . S
C371 C369 1.370 . S
C371 C373 1.408 . S
C371 C376 1.342 . S
C372 C373 1.310 . S
C372 C375 1.461 . S
C372 H392 0.932 . S
C373 C371 1.408 . S
C373 C372 1.310 . S
C373 H393 0.930 . S
C374 C375 1.474 . S
C374 C376 1.285 . S
C374 H394 0.929 . S
C375 C372 1.461 . S
C375 C374 1.474 . S
C376 C371 1.342 . S
C376 C374 1.285 . S
C376 H395 0.930 . S
C377 C380 1.424 . S
C377 C382 1.245 . S
C377 C383 1.428 . S
C378 C381 1.260 . S
C378 C382 1.477 . S
C378 H396 0.932 . S
C379 C380 1.384 . S
C379 C381 1.479 . S
C379 H397 0.929 . S
C380 C377 1.424 . S
C380 C379 1.384 . S
C380 H398 0.928 . S
C381 C378 1.260 . S
C381 C379 1.479 . S
C382 C377 1.245 . S
C382 C378 1.477 . S
C382 H399 0.932 . S
C383 U366 2.882 . S
C383 C377 1.428 . S
C383 O386 1.301 . S
C383 O387 1.282 . S
O384 U366 2.441 . S
O384 C370 1.249 . S
O385 U366 2.420 . S
O385 C370 1.202 . S
O386 U366 2.455 . S
O386 C383 1.301 . S
O387 U366 2.449 . S
O387 C383 1.282 . S
H388 C361 0.931 . S
H389 C363 0.929 . S
H390 C364 0.930 1_655 S
H391 C365 0.931 . S
H392 C372 0.932 . S
H393 C373 0.930 . S
H394 C374 0.929 . S
H395 C376 0.930 . S
H396 C378 0.932 . S
H397 C379 0.929 . S
H398 C380 0.928 . S
H399 C382 0.932 . S
C400 C401 1.264 . S
C400 C405 1.479 . S
C400 C410 1.465 . S
C401 C400 1.264 . S
C401 C403 1.339 . S
C401 H428 0.931 . S
C402 C403 1.395 . S
C402 C404 1.320 . S
C403 C401 1.339 . S
C403 C402 1.395 . S
C403 H429 0.929 . S
C404 C402 1.320 . S
C404 C405 1.405 . S
C404 H430 0.930 . S
C405 C400 1.479 . S
C405 C404 1.405 . S
C405 H431 0.931 . S
U406 O407 2.454 . S
U406 O408 2.458 . S
U406 C409 2.984 . S
U406 C410 2.847 . S
U406 C423 2.882 . S
U406 O424 2.441 . S
U406 O425 2.420 . S
U406 O426 2.455 . S
U406 O427 2.449 . S
O407 U406 2.454 . S
O407 C409 1.353 . S
O408 U406 2.458 . S
O408 C409 1.286 . S
C409 U406 2.984 . S
C409 O407 1.353 . S
C409 O408 1.286 . S
C409 C411 1.363 . S
C410 C400 1.465 . S
C410 U406 2.847 . S
C410 O424 1.249 . S
C410 O425 1.202 . S
C411 C409 1.363 . S
C411 C413 1.408 . S
C411 C416 1.342 . S
C412 C413 1.310 . S
C412 C415 1.461 . S
C412 H432 0.932 . S
C413 C411 1.408 . S
C413 C412 1.310 . S
C413 H433 0.930 . S
C414 C415 1.474 . S
C414 C416 1.285 . S
C414 H434 0.929 . S
C415 C412 1.461 . S
C415 C414 1.474 . S
C416 C411 1.342 . S
C416 C414 1.285 . S
C416 H435 0.930 . S
C417 C420 1.424 . S
C417 C422 1.245 . S
C417 C423 1.428 . S
C418 C421 1.260 . S
C418 C422 1.477 . S
C418 H436 0.932 . S
C419 C420 1.384 . S
C419 C421 1.479 . S
C419 H437 0.929 . S
C420 C417 1.424 . S
C420 C419 1.384 . S
C420 H438 0.928 . S
C421 C418 1.260 . S
C421 C419 1.479 . S
C422 C417 1.245 . S
C422 C418 1.477 . S
C422 H439 0.932 . S
C423 U406 2.882 . S
C423 C417 1.428 . S
C423 O426 1.301 . S
C423 O427 1.282 . S
O424 U406 2.441 . S
O424 C410 1.249 . S
O425 U406 2.420 . S
O425 C410 1.202 . S
O426 U406 2.455 . S
O426 C423 1.301 . S
O427 U406 2.449 . S
O427 C423 1.282 . S
H428 C401 0.931 . S
H429 C403 0.929 . S
H430 C404 0.930 . S
H431 C405 0.931 . S
H432 C412 0.932 . S
H433 C413 0.930 . S
H434 C414 0.929 . S
H435 C416 0.930 . S
H436 C418 0.932 . S
H437 C419 0.929 . S
H438 C420 0.928 . S
H439 C422 0.932 . S
C440 C441 1.264 1_655 S
C440 C445 1.477 1_655 S
C440 C450 1.467 . S
C441 C440 1.264 1_455 S
C441 C443 1.343 . S
C441 H468 0.928 1_455 S
C442 C443 1.395 . S
C442 C444 1.320 . S
C443 C441 1.343 . S
C443 C442 1.395 . S
C443 H469 0.929 . S
C444 C442 1.320 . S
C444 C445 1.405 . S
C444 H470 0.930 . S
C445 C440 1.477 1_455 S
C445 C444 1.405 . S
C445 H471 0.931 . S
U446 O447 2.454 . S
U446 O448 2.458 . S
U446 C449 2.984 . S
U446 C450 2.847 . S
U446 C463 2.882 . S
U446 O464 2.441 . S
U446 O465 2.420 . S
U446 O466 2.455 . S
U446 O467 2.449 . S
O447 U446 2.454 . S
O447 C449 1.353 . S
O448 U446 2.458 . S
O448 C449 1.286 . S
C449 U446 2.984 . S
C449 O447 1.353 . S
C449 O448 1.286 . S
C449 C451 1.363 . S
C450 C440 1.467 . S
C450 U446 2.847 . S
C450 O464 1.249 . S
C450 O465 1.202 . S
C451 C449 1.363 . S
C451 C453 1.408 . S
C451 C456 1.342 . S
C452 C453 1.310 . S
C452 C455 1.461 . S
C452 H472 0.932 . S
C453 C451 1.408 . S
C453 C452 1.310 . S
C453 H473 0.930 . S
C454 C455 1.474 . S
C454 C456 1.285 . S
C454 H474 0.929 . S
C455 C452 1.461 . S
C455 C454 1.474 . S
C456 C451 1.342 . S
C456 C454 1.285 . S
C456 H475 0.930 . S
C457 C460 1.424 . S
C457 C462 1.245 . S
C457 C463 1.428 . S
C458 C461 1.260 . S
C458 C462 1.477 . S
C458 H476 0.932 . S
C459 C460 1.384 . S
C459 C461 1.479 . S
C459 H477 0.929 . S
C460 C457 1.424 . S
C460 C459 1.384 . S
C460 H478 0.928 . S
C461 C458 1.260 . S
C461 C459 1.479 . S
C462 C457 1.245 . S
C462 C458 1.477 . S
C462 H479 0.932 . S
C463 U446 2.882 . S
C463 C457 1.428 . S
C463 O466 1.301 . S
C463 O467 1.282 . S
O464 U446 2.441 . S
O464 C450 1.249 . S
O465 U446 2.420 . S
O465 C450 1.202 . S
O466 U446 2.455 . S
O466 C463 1.301 . S
O467 U446 2.449 . S
O467 C463 1.282 . S
H468 C441 0.928 1_655 S
H469 C443 0.929 . S
H470 C444 0.930 . S
H471 C445 0.931 . S
H472 C452 0.932 . S
H473 C453 0.930 . S
H474 C454 0.929 . S
H475 C456 0.930 . S
H476 C458 0.932 . S
H477 C459 0.929 . S
H478 C460 0.928 . S
H479 C462 0.932 . S
C480 C481 1.264 . S
C480 C485 1.479 . S
C480 C490 1.465 . S
C481 C480 1.264 . S
C481 C483 1.339 . S
C481 H508 0.931 . S
C482 C483 1.395 . S
C482 C484 1.320 . S
C483 C481 1.339 . S
C483 C482 1.395 . S
C483 H509 0.929 . S
C484 C482 1.320 . S
C484 C485 1.405 . S
C484 H510 0.930 . S
C485 C480 1.479 . S
C485 C484 1.405 . S
C485 H511 0.931 . S
U486 O487 2.454 . S
U486 O488 2.458 . S
U486 C489 2.984 . S
U486 C490 2.847 . S
U486 C503 2.882 . S
U486 O504 2.441 . S
U486 O505 2.420 . S
U486 O506 2.455 . S
U486 O507 2.449 . S
O487 U486 2.454 . S
O487 C489 1.353 . S
O488 U486 2.458 . S
O488 C489 1.286 . S
C489 U486 2.984 . S
C489 O487 1.353 . S
C489 O488 1.286 . S
C489 C491 1.363 . S
C490 C480 1.465 . S
C490 U486 2.847 . S
C490 O504 1.249 . S
C490 O505 1.202 . S
C491 C489 1.363 . S
C491 C493 1.408 . S
C491 C496 1.342 . S
C492 C493 1.310 . S
C492 C495 1.461 . S
C492 H512 0.932 . S
C493 C491 1.408 . S
C493 C492 1.310 . S
C493 H513 0.930 . S
C494 C495 1.474 . S
C494 C496 1.285 . S
C494 H514 0.929 . S
C495 C492 1.461 . S
C495 C494 1.474 . S
C496 C491 1.342 . S
C496 C494 1.285 . S
C496 H515 0.930 . S
C497 C500 1.424 . S
C497 C502 1.245 . S
C497 C503 1.428 . S
C498 C501 1.260 . S
C498 C502 1.477 . S
C498 H516 0.932 . S
C499 C500 1.384 . S
C499 C501 1.479 . S
C499 H517 0.929 . S
C500 C497 1.424 . S
C500 C499 1.384 . S
C500 H518 0.928 . S
C501 C498 1.260 . S
C501 C499 1.479 . S
C502 C497 1.245 . S
C502 C498 1.477 . S
C502 H519 0.932 . S
C503 U486 2.882 . S
C503 C497 1.428 . S
C503 O506 1.301 . S
C503 O507 1.282 . S
O504 U486 2.441 . S
O504 C490 1.249 . S
O505 U486 2.420 . S
O505 C490 1.202 . S
O506 U486 2.455 . S
O506 C503 1.301 . S
O507 U486 2.449 . S
O507 C503 1.282 . S
H508 C481 0.931 . S
H509 C483 0.929 . S
H510 C484 0.930 . S
H511 C485 0.931 . S
H512 C492 0.932 . S
H513 C493 0.930 . S
H514 C494 0.929 . S
H515 C496 0.930 . S
H516 C498 0.932 . S
H517 C499 0.929 . S
H518 C500 0.928 . S
H519 C502 0.932 . S
C520 C521 1.264 . S
C520 C525 1.479 . S
C520 C530 1.465 . S
C521 C520 1.264 . S
C521 C523 1.339 . S
C521 H548 0.931 . S
C522 C523 1.395 . S
C522 C524 1.320 . S
C523 C521 1.339 . S
C523 C522 1.395 . S
C523 H549 0.929 . S
C524 C522 1.320 . S
C524 C525 1.405 . S
C524 H550 0.930 . S
C525 C520 1.479 . S
C525 C524 1.405 . S
C525 H551 0.931 . S
U526 O527 2.454 . S
U526 O528 2.458 . S
U526 C529 2.984 . S
U526 C530 2.847 . S
U526 C543 2.882 . S
U526 O544 2.441 . S
U526 O545 2.420 . S
U526 O546 2.455 . S
U526 O547 2.449 . S
O527 U526 2.454 . S
O527 C529 1.353 . S
O528 U526 2.458 . S
O528 C529 1.286 . S
C529 U526 2.984 . S
C529 O527 1.353 . S
C529 O528 1.286 . S
C529 C531 1.363 . S
C530 C520 1.465 . S
C530 U526 2.847 . S
C530 O544 1.249 . S
C530 O545 1.202 . S
C531 C529 1.363 . S
C531 C533 1.408 . S
C531 C536 1.342 . S
C532 C533 1.310 . S
C532 C535 1.461 . S
C532 H552 0.932 . S
C533 C531 1.408 . S
C533 C532 1.310 . S
C533 H553 0.930 . S
C534 C535 1.474 . S
C534 C536 1.285 . S
C534 H554 0.929 . S
C535 C532 1.461 . S
C535 C534 1.474 . S
C536 C531 1.342 . S
C536 C534 1.285 . S
C536 H555 0.930 . S
C537 C540 1.424 . S
C537 C542 1.245 . S
C537 C543 1.428 . S
C538 C541 1.260 . S
C538 C542 1.477 . S
C538 H556 0.932 . S
C539 C540 1.384 . S
C539 C541 1.479 . S
C539 H557 0.929 . S
C540 C537 1.424 . S
C540 C539 1.384 . S
C540 H558 0.928 . S
C541 C538 1.260 . S
C541 C539 1.479 . S
C542 C537 1.245 . S
C542 C538 1.477 . S
C542 H559 0.932 . S
C543 U526 2.882 . S
C543 C537 1.428 . S
C543 O546 1.301 . S
C543 O547 1.282 . S
O544 U526 2.441 . S
O544 C530 1.249 . S
O545 U526 2.420 . S
O545 C530 1.202 . S
O546 U526 2.455 . S
O546 C543 1.301 . S
O547 U526 2.449 . S
O547 C543 1.282 . S
H548 C521 0.931 . S
H549 C523 0.929 . S
H550 C524 0.930 . S
H551 C525 0.931 . S
H552 C532 0.932 . S
H553 C533 0.930 . S
H554 C534 0.929 . S
H555 C536 0.930 . S
H556 C538 0.932 . S
H557 C539 0.929 . S
H558 C540 0.928 . S
H559 C542 0.932 . S
C560 C561 1.264 . S
C560 C565 1.479 . S
C560 C570 1.465 . S
C561 C560 1.264 . S
C561 C563 1.339 . S
C561 H588 0.931 . S
C562 C563 1.395 . S
C562 C564 1.320 . S
C563 C561 1.339 . S
C563 C562 1.395 . S
C563 H589 0.929 . S
C564 C562 1.320 . S
C564 C565 1.405 . S
C564 H590 0.930 . S
C565 C560 1.479 . S
C565 C564 1.405 . S
C565 H591 0.931 . S
U566 O567 2.454 . S
U566 O568 2.458 . S
U566 C569 2.984 . S
U566 C570 2.847 . S
U566 C583 2.882 . S
U566 O584 2.441 . S
U566 O585 2.420 . S
U566 O586 2.455 . S
U566 O587 2.449 . S
O567 U566 2.454 . S
O567 C569 1.353 . S
O568 U566 2.458 . S
O568 C569 1.286 . S
C569 U566 2.984 . S
C569 O567 1.353 . S
C569 O568 1.286 . S
C569 C571 1.363 1_565 S
C570 C560 1.465 . S
C570 U566 2.847 . S
C570 O584 1.249 . S
C570 O585 1.202 . S
C571 C569 1.363 1_545 S
C571 C573 1.407 1_545 S
C571 C576 1.342 . S
C572 C573 1.309 1_545 S
C572 C575 1.461 . S
C572 H592 0.932 . S
C573 C571 1.407 1_565 S
C573 C572 1.309 1_565 S
C573 H593 0.932 . S
C574 C575 1.474 . S
C574 C576 1.285 . S
C574 H594 0.929 . S
C575 C572 1.461 . S
C575 C574 1.474 . S
C576 C571 1.342 . S
C576 C574 1.285 . S
C576 H595 0.930 . S
C577 C580 1.424 . S
C577 C582 1.245 . S
C577 C583 1.428 . S
C578 C581 1.260 . S
C578 C582 1.477 1_545 S
C578 H596 0.932 . S
C579 C580 1.384 . S
C579 C581 1.479 1_565 S
C579 H597 0.929 . S
C580 C577 1.424 . S
C580 C579 1.384 . S
C580 H598 0.928 . S
C581 C578 1.260 . S
C581 C579 1.479 1_545 S
C582 C577 1.245 . S
C582 C578 1.477 1_565 S
C582 H599 0.933 . S
C583 U566 2.882 . S
C583 C577 1.428 . S
C583 O586 1.301 . S
C583 O587 1.282 . S
O584 U566 2.441 . S
O584 C570 1.249 . S
O585 U566 2.420 . S
O585 C570 1.202 . S
O586 U566 2.455 . S
O586 C583 1.301 . S
O587 U566 2.449 . S
O587 C583 1.282 . S
H588 C561 0.931 . S
H589 C563 0.929 . S
H590 C564 0.930 . S
H591 C565 0.931 . S
H592 C572 0.932 . S
H593 C573 0.932 . S
H594 C574 0.929 . S
H595 C576 0.930 . S
H596 C578 0.932 . S
H597 C579 0.929 . S
H598 C580 0.928 . S
H599 C582 0.933 . S
C600 C601 1.264 . S
C600 C605 1.479 . S
C600 C610 1.465 . S
C601 C600 1.264 . S
C601 C603 1.339 . S
C601 H628 0.931 . S
C602 C603 1.391 1_565 S
C602 C604 1.315 1_565 S
C603 C601 1.339 . S
C603 C602 1.391 1_545 S
C603 H629 0.929 . S
C604 C602 1.315 1_545 S
C604 C605 1.405 . S
C604 H630 0.930 . S
C605 C600 1.479 . S
C605 C604 1.405 . S
C605 H631 0.931 . S
U606 O607 2.454 . S
U606 O608 2.458 . S
U606 C609 2.984 . S
U606 C610 2.847 . S
U606 C623 2.882 . S
U606 O624 2.441 . S
U606 O625 2.420 . S
U606 O626 2.455 . S
U606 O627 2.449 . S
O607 U606 2.454 . S
O607 C609 1.353 . S
O608 U606 2.458 . S
O608 C609 1.286 . S
C609 U606 2.984 . S
C609 O607 1.353 . S
C609 O608 1.286 . S
C609 C611 1.363 . S
C610 C600 1.465 . S
C610 U606 2.847 . S
C610 O624 1.249 . S
C610 O625 1.202 . S
C611 C609 1.363 . S
C611 C613 1.408 . S
C611 C616 1.342 . S
C612 C613 1.310 . S
C612 C615 1.461 . S
C612 H632 0.932 . S
C613 C611 1.408 . S
C613 C612 1.310 . S
C613 H633 0.930 . S
C614 C615 1.474 . S
C614 C616 1.285 . S
C614 H634 0.929 . S
C615 C612 1.461 . S
C615 C614 1.474 . S
C616 C611 1.342 . S
C616 C614 1.285 . S
C616 H635 0.930 . S
C617 C620 1.424 1_545 S
C617 C622 1.245 . S
C617 C623 1.428 . S
C618 C621 1.260 . S
C618 C622 1.477 1_565 S
C618 H636 0.935 . S
C619 C620 1.384 . S
C619 C621 1.479 . S
C619 H637 0.929 . S
C620 C617 1.424 1_565 S
C620 C619 1.384 . S
C620 H638 0.928 . S
C621 C618 1.260 . S
C621 C619 1.479 . S
C622 C617 1.245 . S
C622 C618 1.477 1_545 S
C622 H639 0.932 . S
C623 U606 2.882 . S
C623 C617 1.428 . S
C623 O626 1.301 . S
C623 O627 1.282 . S
O624 U606 2.441 . S
O624 C610 1.249 . S
O625 U606 2.420 . S
O625 C610 1.202 . S
O626 U606 2.455 . S
O626 C623 1.301 . S
O627 U606 2.449 . S
O627 C623 1.282 . S
H628 C601 0.931 . S
H629 C603 0.929 . S
H630 C604 0.930 . S
H631 C605 0.931 . S
H632 C612 0.932 . S
H633 C613 0.930 . S
H634 C614 0.929 . S
H635 C616 0.930 . S
H636 C618 0.935 . S
H637 C619 0.929 . S
H638 C620 0.928 . S
H639 C622 0.932 . S
C640 C641 1.264 . S
C640 C645 1.479 . S
C640 C650 1.465 . S
C641 C640 1.264 . S
C641 C643 1.339 . S
C641 H668 0.931 . S
C642 C643 1.395 . S
C642 C644 1.320 . S
C643 C641 1.339 . S
C643 C642 1.395 . S
C643 H669 0.929 . S
C644 C642 1.320 . S
C644 C645 1.405 . S
C644 H670 0.930 . S
C645 C640 1.479 . S
C645 C644 1.405 . S
C645 H671 0.931 . S
U646 O647 2.454 . S
U646 O648 2.458 . S
U646 C649 2.984 . S
U646 C650 2.847 . S
U646 C663 2.882 . S
U646 O664 2.441 . S
U646 O665 2.420 . S
U646 O666 2.455 . S
U646 O667 2.449 . S
O647 U646 2.454 . S
O647 C649 1.353 . S
O648 U646 2.458 . S
O648 C649 1.286 . S
C649 U646 2.984 . S
C649 O647 1.353 . S
C649 O648 1.286 . S
C649 C651 1.363 . S
C650 C640 1.465 . S
C650 U646 2.847 . S
C650 O664 1.249 . S
C650 O665 1.202 . S
C651 C649 1.363 . S
C651 C653 1.408 . S
C651 C656 1.342 . S
C652 C653 1.310 . S
C652 C655 1.461 . S
C652 H672 0.932 . S
C653 C651 1.408 . S
C653 C652 1.310 . S
C653 H673 0.930 . S
C654 C655 1.474 . S
C654 C656 1.285 . S
C654 H674 0.929 . S
C655 C652 1.461 . S
C655 C654 1.474 . S
C656 C651 1.342 . S
C656 C654 1.285 . S
C656 H675 0.930 . S
C657 C660 1.424 . S
C657 C662 1.245 . S
C657 C663 1.428 . S
C658 C661 1.260 . S
C658 C662 1.477 . S
C658 H676 0.932 . S
C659 C660 1.384 . S
C659 C661 1.479 . S
C659 H677 0.929 . S
C660 C657 1.424 . S
C660 C659 1.384 . S
C660 H678 0.928 . S
C661 C658 1.260 . S
C661 C659 1.479 . S
C662 C657 1.245 . S
C662 C658 1.477 . S
C662 H679 0.932 . S
C663 U646 2.882 . S
C663 C657 1.428 . S
C663 O666 1.301 . S
C663 O667 1.282 . S
O664 U646 2.441 . S
O664 C650 1.249 . S
O665 U646 2.420 . S
O665 C650 1.202 . S
O666 U646 2.455 . S
O666 C663 1.301 . S
O667 U646 2.449 . S
O667 C663 1.282 . S
H668 C641 0.931 . S
H669 C643 0.929 . S
H670 C644 0.930 . S
H671 C645 0.931 . S
H672 C652 0.932 . S
H673 C653 0.930 . S
H674 C654 0.929 . S
H675 C656 0.930 . S
H676 C658 0.932 . S
H677 C659 0.929 . S
H678 C660 0.928 . S
H679 C662 0.932 . S
C680 C681 1.264 . S
C680 C685 1.479 . S
C680 C690 1.465 . S
C681 C680 1.264 . S
C681 C683 1.339 . S
C681 H708 0.931 . S
C682 C683 1.391 1_556 S
C682 C684 1.315 1_556 S
C683 C681 1.339 . S
C683 C682 1.391 1_554 S
C683 H709 0.929 . S
C684 C682 1.315 1_554 S
C684 C685 1.405 . S
C684 H710 0.930 . S
C685 C680 1.479 . S
C685 C684 1.405 . S
C685 H711 0.931 . S
U686 O687 2.454 . S
U686 O688 2.458 . S
U686 C689 2.984 . S
U686 C690 2.847 . S
U686 C703 2.882 . S
U686 O704 2.441 . S
U686 O705 2.420 . S
U686 O706 2.455 . S
U686 O707 2.449 . S
O687 U686 2.454 . S
O687 C689 1.353 . S
O688 U686 2.458 . S
O688 C689 1.286 . S
C689 U686 2.984 . S
C689 O687 1.353 . S
C689 O688 1.286 . S
C689 C691 1.363 . S
C690 C680 1.465 . S
C690 U686 2.847 . S
C690 O704 1.249 . S
C690 O705 1.202 . S
C691 C689 1.363 . S
C691 C693 1.408 . S
C691 C696 1.342 . S
C692 C693 1.310 . S
C692 C695 1.461 . S
C692 H712 0.932 . S
C693 C691 1.408 . S
C693 C692 1.310 . S
C693 H713 0.930 . S
C694 C695 1.474 . S
C694 C696 1.285 . S
C694 H714 0.929 . S
C695 C692 1.461 . S
C695 C694 1.474 . S
C696 C691 1.342 . S
C696 C694 1.285 . S
C696 H715 0.930 . S
C697 C700 1.424 1_554 S
C697 C702 1.245 . S
C697 C703 1.428 . S
C698 C701 1.260 . S
C698 C702 1.477 1_556 S
C698 H716 0.935 . S
C699 C700 1.384 . S
C699 C701 1.479 . S
C699 H717 0.929 . S
C700 C697 1.424 1_556 S
C700 C699 1.384 . S
C700 H718 0.928 . S
C701 C698 1.260 . S
C701 C699 1.479 . S
C702 C697 1.245 . S
C702 C698 1.477 1_554 S
C702 H719 0.932 . S
C703 U686 2.882 . S
C703 C697 1.428 . S
C703 O706 1.301 . S
C703 O707 1.282 . S
O704 U686 2.441 . S
O704 C690 1.249 . S
O705 U686 2.420 . S
O705 C690 1.202 . S
O706 U686 2.455 . S
O706 C703 1.301 . S
O707 U686 2.449 . S
O707 C703 1.282 . S
H708 C681 0.931 . S
H709 C683 0.929 . S
H710 C684 0.930 . S
H711 C685 0.931 . S
H712 C692 0.932 . S
H713 C693 0.930 . S
H714 C694 0.929 . S
H715 C696 0.930 . S
H716 C698 0.935 . S
H717 C699 0.929 . S
H718 C700 0.928 . S
H719 C702 0.932 . S
C720 C721 1.264 . S
C720 C725 1.479 . S
C720 C730 1.465 . S
C721 C720 1.264 . S
C721 C723 1.339 . S
C721 H748 0.931 . S
C722 C723 1.395 . S
C722 C724 1.320 . S
C723 C721 1.339 . S
C723 C722 1.395 . S
C723 H749 0.929 . S
C724 C722 1.320 . S
C724 C725 1.405 . S
C724 H750 0.930 . S
C725 C720 1.479 . S
C725 C724 1.405 . S
C725 H751 0.931 . S
U726 O727 2.454 . S
U726 O728 2.458 . S
U726 C729 2.984 . S
U726 C730 2.847 . S
U726 C743 2.882 . S
U726 O744 2.441 . S
U726 O745 2.420 . S
U726 O746 2.455 . S
U726 O747 2.449 . S
O727 U726 2.454 . S
O727 C729 1.353 . S
O728 U726 2.458 . S
O728 C729 1.286 . S
C729 U726 2.984 . S
C729 O727 1.353 . S
C729 O728 1.286 . S
C729 C731 1.363 . S
C730 C720 1.465 . S
C730 U726 2.847 . S
C730 O744 1.249 . S
C730 O745 1.202 . S
C731 C729 1.363 . S
C731 C733 1.408 . S
C731 C736 1.342 . S
C732 C733 1.310 . S
C732 C735 1.461 . S
C732 H752 0.932 . S
C733 C731 1.408 . S
C733 C732 1.310 . S
C733 H753 0.930 . S
C734 C735 1.474 . S
C734 C736 1.285 . S
C734 H754 0.929 . S
C735 C732 1.461 . S
C735 C734 1.474 . S
C736 C731 1.342 . S
C736 C734 1.285 . S
C736 H755 0.930 . S
C737 C740 1.424 . S
C737 C742 1.245 . S
C737 C743 1.428 . S
C738 C741 1.260 . S
C738 C742 1.477 . S
C738 H756 0.932 . S
C739 C740 1.384 . S
C739 C741 1.479 . S
C739 H757 0.929 . S
C740 C737 1.424 . S
C740 C739 1.384 . S
C740 H758 0.928 . S
C741 C738 1.260 . S
C741 C739 1.479 . S
C742 C737 1.245 . S
C742 C738 1.477 . S
C742 H759 0.932 . S
C743 U726 2.882 . S
C743 C737 1.428 . S
C743 O746 1.301 . S
C743 O747 1.282 . S
O744 U726 2.441 . S
O744 C730 1.249 . S
O745 U726 2.420 . S
O745 C730 1.202 . S
O746 U726 2.455 . S
O746 C743 1.301 . S
O747 U726 2.449 . S
O747 C743 1.282 . S
H748 C721 0.931 . S
H749 C723 0.929 . S
H750 C724 0.930 . S
H751 C725 0.931 . S
H752 C732 0.932 . S
H753 C733 0.930 . S
H754 C734 0.929 . S
H755 C736 0.930 . S
H756 C738 0.932 . S
H757 C739 0.929 . S
H758 C740 0.928 . S
H759 C742 0.932 . S
C760 C761 1.264 . S
C760 C765 1.479 . S
C760 C770 1.465 . S
C761 C760 1.264 . S
C761 C763 1.339 . S
C761 H788 0.931 . S
C762 C763 1.395 . S
C762 C764 1.320 . S
C763 C761 1.339 . S
C763 C762 1.395 . S
C763 H789 0.929 . S
C764 C762 1.320 . S
C764 C765 1.405 . S
C764 H790 0.930 . S
C765 C760 1.479 . S
C765 C764 1.405 . S
C765 H791 0.931 . S
U766 O767 2.454 . S
U766 O768 2.458 . S
U766 C769 2.984 . S
U766 C770 2.847 . S
U766 C783 2.882 . S
U766 O784 2.441 . S
U766 O785 2.420 . S
U766 O786 2.455 . S
U766 O787 2.449 . S
O767 U766 2.454 . S
O767 C769 1.353 . S
O768 U766 2.458 . S
O768 C769 1.286 . S
C769 U766 2.984 . S
C769 O767 1.353 . S
C769 O768 1.286 . S
C769 C771 1.363 1_556 S
C770 C760 1.465 . S
C770 U766 2.847 . S
C770 O784 1.249 . S
C770 O785 1.202 . S
C771 C769 1.363 1_554 S
C771 C773 1.407 1_554 S
C771 C776 1.342 . S
C772 C773 1.309 1_554 S
C772 C775 1.461 . S
C772 H792 0.932 . S
C773 C771 1.407 1_556 S
C773 C772 1.309 1_556 S
C773 H793 0.932 . S
C774 C775 1.474 . S
C774 C776 1.285 . S
C774 H794 0.929 . S
C775 C772 1.461 . S
C775 C774 1.474 . S
C776 C771 1.342 . S
C776 C774 1.285 . S
C776 H795 0.930 . S
C777 C780 1.424 . S
C777 C782 1.245 . S
C777 C783 1.428 . S
C778 C781 1.260 . S
C778 C782 1.477 1_554 S
C778 H796 0.932 . S
C779 C780 1.384 . S
C779 C781 1.479 1_556 S
C779 H797 0.929 . S
C780 C777 1.424 . S
C780 C779 1.384 . S
C780 H798 0.928 . S
C781 C778 1.260 . S
C781 C779 1.479 1_554 S
C782 C777 1.245 . S
C782 C778 1.477 1_556 S
C782 H799 0.933 . S
C783 U766 2.882 . S
C783 C777 1.428 . S
C783 O786 1.301 . S
C783 O787 1.282 . S
O784 U766 2.441 . S
O784 C770 1.249 . S
O785 U766 2.420 . S
O785 C770 1.202 . S
O786 U766 2.455 . S
O786 C783 1.301 . S
O787 U766 2.449 . S
O787 C783 1.282 . S
H788 C761 0.931 . S
H789 C763 0.929 . S
H790 C764 0.930 . S
H791 C765 0.931 . S
H792 C772 0.932 . S
H793 C773 0.932 . S
H794 C774 0.929 . S
H795 C776 0.930 . S
H796 C778 0.932 . S
H797 C779 0.929 . S
H798 C780 0.928 . S
H799 C782 0.933 . S
C800 C801 1.264 . S
C800 C805 1.479 . S
C800 C810 1.465 . S
C801 C800 1.264 . S
C801 C803 1.339 . S
C801 H828 0.931 . S
C802 C803 1.395 . S
C802 C804 1.320 . S
C803 C801 1.339 . S
C803 C802 1.395 . S
C803 H829 0.929 . S
C804 C802 1.320 . S
C804 C805 1.405 . S
C804 H830 0.930 . S
C805 C800 1.479 . S
C805 C804 1.405 . S
C805 H831 0.931 . S
U806 O807 2.454 . S
U806 O808 2.458 . S
U806 C809 2.984 . S
U806 C810 2.847 . S
U806 C823 2.882 . S
U806 O824 2.441 . S
U806 O825 2.420 . S
U806 O826 2.455 . S
U806 O827 2.449 . S
O807 U806 2.454 . S
O807 C809 1.353 . S
O808 U806 2.458 . S
O808 C809 1.286 . S
C809 U806 2.984 . S
C809 O807 1.353 . S
C809 O808 1.286 . S
C809 C811 1.363 . S
C810 C800 1.465 . S
C810 U806 2.847 . S
C810 O824 1.249 . S
C810 O825 1.202 . S
C811 C809 1.363 . S
C811 C813 1.408 . S
C811 C816 1.342 . S
C812 C813 1.310 . S
C812 C815 1.461 . S
C812 H832 0.932 . S
C813 C811 1.408 . S
C813 C812 1.310 . S
C813 H833 0.930 . S
C814 C815 1.474 . S
C814 C816 1.285 . S
C814 H834 0.929 . S
C815 C812 1.461 . S
C815 C814 1.474 . S
C816 C811 1.342 . S
C816 C814 1.285 . S
C816 H835 0.930 . S
C817 C820 1.424 . S
C817 C822 1.245 . S
C817 C823 1.428 . S
C818 C821 1.260 . S
C818 C822 1.477 . S
C818 H836 0.932 . S
C819 C820 1.384 . S
C819 C821 1.479 . S
C819 H837 0.929 . S
C820 C817 1.424 . S
C820 C819 1.384 . S
C820 H838 0.928 . S
C821 C818 1.260 . S
C821 C819 1.479 . S
C822 C817 1.245 . S
C822 C818 1.477 . S
C822 H839 0.932 . S
C823 U806 2.882 . S
C823 C817 1.428 . S
C823 O826 1.301 . S
C823 O827 1.282 . S
O824 U806 2.441 . S
O824 C810 1.249 . S
O825 U806 2.420 . S
O825 C810 1.202 . S
O826 U806 2.455 . S
O826 C823 1.301 . S
O827 U806 2.449 . S
O827 C823 1.282 . S
H828 C801 0.931 . S
H829 C803 0.929 . S
H830 C804 0.930 . S
H831 C805 0.931 . S
H832 C812 0.932 . S
H833 C813 0.930 . S
H834 C814 0.929 . S
H835 C816 0.930 . S
H836 C818 0.932 . S
H837 C819 0.929 . S
H838 C820 0.928 . S
H839 C822 0.932 . S
C840 C841 1.264 . S
C840 C845 1.479 . S
C840 C850 1.465 . S
C841 C840 1.264 . S
C841 C843 1.339 . S
C841 H868 0.931 . S
C842 C843 1.391 1_655 S
C842 C844 1.315 1_655 S
C843 C841 1.339 . S
C843 C842 1.391 1_455 S
C843 H869 0.929 . S
C844 C842 1.315 1_455 S
C844 C845 1.405 . S
C844 H870 0.930 . S
C845 C840 1.479 . S
C845 C844 1.405 . S
C845 H871 0.931 . S
U846 O847 2.454 . S
U846 O848 2.458 . S
U846 C849 2.984 . S
U846 C850 2.847 . S
U846 C863 2.882 . S
U846 O864 2.441 . S
U846 O865 2.420 . S
U846 O866 2.455 . S
U846 O867 2.449 . S
O847 U846 2.454 . S
O847 C849 1.353 . S
O848 U846 2.458 . S
O848 C849 1.286 . S
C849 U846 2.984 . S
C849 O847 1.353 . S
C849 O848 1.286 . S
C849 C851 1.363 . S
C850 C840 1.465 . S
C850 U846 2.847 . S
C850 O864 1.249 . S
C850 O865 1.202 . S
C851 C849 1.363 . S
C851 C853 1.408 . S
C851 C856 1.342 . S
C852 C853 1.310 . S
C852 C855 1.461 . S
C852 H872 0.932 . S
C853 C851 1.408 . S
C853 C852 1.310 . S
C853 H873 0.930 . S
C854 C855 1.474 . S
C854 C856 1.285 . S
C854 H874 0.929 . S
C855 C852 1.461 . S
C855 C854 1.474 . S
C856 C851 1.342 . S
C856 C854 1.285 . S
C856 H875 0.930 . S
C857 C860 1.424 1_455 S
C857 C862 1.245 . S
C857 C863 1.428 . S
C858 C861 1.260 . S
C858 C862 1.477 1_655 S
C858 H876 0.935 . S
C859 C860 1.384 . S
C859 C861 1.479 . S
C859 H877 0.929 . S
C860 C857 1.424 1_655 S
C860 C859 1.384 . S
C860 H878 0.928 . S
C861 C858 1.260 . S
C861 C859 1.479 . S
C862 C857 1.245 . S
C862 C858 1.477 1_455 S
C862 H879 0.932 . S
C863 U846 2.882 . S
C863 C857 1.428 . S
C863 O866 1.301 . S
C863 O867 1.282 . S
O864 U846 2.441 . S
O864 C850 1.249 . S
O865 U846 2.420 . S
O865 C850 1.202 . S
O866 U846 2.455 . S
O866 C863 1.301 . S
O867 U846 2.449 . S
O867 C863 1.282 . S
H868 C841 0.931 . S
H869 C843 0.929 . S
H870 C844 0.930 . S
H871 C845 0.931 . S
H872 C852 0.932 . S
H873 C853 0.930 . S
H874 C854 0.929 . S
H875 C856 0.930 . S
H876 C858 0.935 . S
H877 C859 0.929 . S
H878 C860 0.928 . S
H879 C862 0.932 . S
C880 C881 1.264 . S
C880 C885 1.479 . S
C880 C890 1.465 . S
C881 C880 1.264 . S
C881 C883 1.339 . S
C881 H908 0.931 . S
C882 C883 1.395 . S
C882 C884 1.320 . S
C883 C881 1.339 . S
C883 C882 1.395 . S
C883 H909 0.929 . S
C884 C882 1.320 . S
C884 C885 1.405 . S
C884 H910 0.930 . S
C885 C880 1.479 . S
C885 C884 1.405 . S
C885 H911 0.931 . S
U886 O887 2.454 . S
U886 O888 2.458 . S
U886 C889 2.984 . S
U886 C890 2.847 . S
U886 C903 2.882 . S
U886 O904 2.441 . S
U886 O905 2.420 . S
U886 O906 2.455 . S
U886 O907 2.449 . S
O887 U886 2.454 . S
O887 C889 1.353 . S
O888 U886 2.458 . S
O888 C889 1.286 . S
C889 U886 2.984 . S
C889 O887 1.353 . S
C889 O888 1.286 . S
C889 C891 1.363 . S
C890 C880 1.465 . S
C890 U886 2.847 . S
C890 O904 1.249 . S
C890 O905 1.202 . S
C891 C889 1.363 . S
C891 C893 1.408 . S
C891 C896 1.342 . S
C892 C893 1.310 . S
C892 C895 1.461 . S
C892 H912 0.932 . S
C893 C891 1.408 . S
C893 C892 1.310 . S
C893 H913 0.930 . S
C894 C895 1.474 . S
C894 C896 1.285 . S
C894 H914 0.929 . S
C895 C892 1.461 . S
C895 C894 1.474 . S
C896 C891 1.342 . S
C896 C894 1.285 . S
C896 H915 0.930 . S
C897 C900 1.424 . S
C897 C902 1.245 . S
C897 C903 1.428 . S
C898 C901 1.260 . S
C898 C902 1.477 . S
C898 H916 0.932 . S
C899 C900 1.384 . S
C899 C901 1.479 . S
C899 H917 0.929 . S
C900 C897 1.424 . S
C900 C899 1.384 . S
C900 H918 0.928 . S
C901 C898 1.260 . S
C901 C899 1.479 . S
C902 C897 1.245 . S
C902 C898 1.477 . S
C902 H919 0.932 . S
C903 U886 2.882 . S
C903 C897 1.428 . S
C903 O906 1.301 . S
C903 O907 1.282 . S
O904 U886 2.441 . S
O904 C890 1.249 . S
O905 U886 2.420 . S
O905 C890 1.202 . S
O906 U886 2.455 . S
O906 C903 1.301 . S
O907 U886 2.449 . S
O907 C903 1.282 . S
H908 C881 0.931 . S
H909 C883 0.929 . S
H910 C884 0.930 . S
H911 C885 0.931 . S
H912 C892 0.932 . S
H913 C893 0.930 . S
H914 C894 0.929 . S
H915 C896 0.930 . S
H916 C898 0.932 . S
H917 C899 0.929 . S
H918 C900 0.928 . S
H919 C902 0.932 . S
C920 C921 1.264 . S
C920 C925 1.479 . S
C920 C930 1.465 . S
C921 C920 1.264 . S
C921 C923 1.339 . S
C921 H948 0.931 . S
C922 C923 1.395 . S
C922 C924 1.320 . S
C923 C921 1.339 . S
C923 C922 1.395 . S
C923 H949 0.929 . S
C924 C922 1.320 . S
C924 C925 1.405 . S
C924 H950 0.930 . S
C925 C920 1.479 . S
C925 C924 1.405 . S
C925 H951 0.931 . S
U926 O927 2.454 . S
U926 O928 2.458 . S
U926 C929 2.984 . S
U926 C930 2.847 . S
U926 C943 2.882 . S
U926 O944 2.441 . S
U926 O945 2.420 . S
U926 O946 2.455 . S
U926 O947 2.449 . S
O927 U926 2.454 . S
O927 C929 1.353 . S
O928 U926 2.458 . S
O928 C929 1.286 . S
C929 U926 2.984 . S
C929 O927 1.353 . S
C929 O928 1.286 . S
C929 C931 1.363 1_655 S
C930 C920 1.465 . S
C930 U926 2.847 . S
C930 O944 1.249 . S
C930 O945 1.202 . S
C931 C929 1.363 1_455 S
C931 C933 1.407 1_455 S
C931 C936 1.342 . S
C932 C933 1.309 1_455 S
C932 C935 1.461 . S
C932 H952 0.932 . S
C933 C931 1.407 1_655 S
C933 C932 1.309 1_655 S
C933 H953 0.932 . S
C934 C935 1.474 . S
C934 C936 1.285 . S
C934 H954 0.929 . S
C935 C932 1.461 . S
C935 C934 1.474 . S
C936 C931 1.342 . S
C936 C934 1.285 . S
C936 H955 0.930 . S
C937 C940 1.424 . S
C937 C942 1.245 . S
C937 C943 1.428 . S
C938 C941 1.260 . S
C938 C942 1.477 1_455 S
C938 H956 0.932 . S
C939 C940 1.384 . S
C939 C941 1.479 1_655 S
C939 H957 0.929 . S
C940 C937 1.424 . S
C940 C939 1.384 . S
C940 H958 0.928 . S
C941 C938 1.260 . S
C941 C939 1.479 1_455 S
C942 C937 1.245 . S
C942 C938 1.477 1_655 S
C942 H959 0.933 . S
C943 U926 2.882 . S
C943 C937 1.428 . S
C943 O946 1.301 . S
C943 O947 1.282 . S
O944 U926 2.441 . S
O944 C930 1.249 . S
O945 U926 2.420 . S
O945 C930 1.202 . S
O946 U926 2.455 . S
O946 C943 1.301 . S
O947 U926 2.449 . S
O947 C943 1.282 . S
H948 C921 0.931 . S
H949 C923 0.929 . S
H950 C924 0.930 . S
H951 C925 0.931 . S
H952 C932 0.932 . S
H953 C933 0.932 . S
H954 C934 0.929 . S
H955 C936 0.930 . S
H956 C938 0.932 . S
H957 C939 0.929 . S
H958 C940 0.928 . S
H959 C942 0.933 . S
P960 O971 1.490 . S
P960 C974 1.812 . S
P960 C980 1.803 . S
P960 C986 1.819 . S
H961 C975 0.941 . S
H962 C976 0.939 . S
H963 C978 0.940 . S
H964 C979 0.940 . S
H965 C981 0.939 . S
H966 C982 0.942 . S
H967 C984 0.940 . S
H968 C985 0.939 . S
H969 C987 0.941 . S
H970 C991 0.939 . S
O971 P960 1.490 . S
H972 C988 0.939 . S
H973 C990 0.940 . S
C974 P960 1.812 . S
C974 C975 1.389 . S
C974 C979 1.391 . S
C975 H961 0.941 . S
C975 C974 1.389 . S
C975 C976 1.397 . S
C976 H962 0.939 . S
C976 C975 1.397 . S
C976 C977 1.378 . S
C977 C976 1.378 . S
C977 C978 1.378 . S
C978 H963 0.940 . S
C978 C977 1.378 . S
C978 C979 1.396 . S
C979 H964 0.940 . S
C979 C974 1.391 . S
C979 C978 1.396 . S
C980 P960 1.803 . S
C980 C981 1.378 . S
C980 C985 1.400 . S
C981 H965 0.939 . S
C981 C980 1.378 . S
C981 C982 1.361 . S
C982 H966 0.942 . S
C982 C981 1.361 . S
C982 C983 1.369 . S
C983 C982 1.369 . S
C983 C984 1.404 . S
C984 H967 0.940 . S
C984 C983 1.404 . S
C984 C985 1.389 . S
C985 H968 0.939 . S
C985 C980 1.400 . S
C985 C984 1.389 . S
C986 P960 1.819 . S
C986 C987 1.391 . S
C986 C991 1.391 . S
C987 H969 0.941 . S
C987 C986 1.391 . S
C987 C988 1.396 . S
C988 H972 0.939 . S
C988 C987 1.396 . S
C988 C989 1.397 . S
C989 C988 1.397 . S
C989 C990 1.385 . S
C990 H973 0.940 . S
C990 C989 1.385 . S
C990 C991 1.388 . S
C991 H970 0.939 . S
C991 C986 1.391 . S
C991 C990 1.388 . S
P992 O1003 1.490 . S
P992 C1006 1.812 . S
P992 C1012 1.803 . S
P992 C1018 1.819 1_554 S
H993 C1007 0.941 . S
H994 C1008 0.939 . S
H995 C1010 0.940 . S
H996 C1011 0.940 1_556 S
H997 C1013 0.939 . S
H998 C1014 0.942 . S
H999 C1016 0.940 . S
H1000 C1017 0.939 . S
H1001 C1019 0.941 1_554 S
H1002 C1023 0.939 . S
O1003 P992 1.490 . S
H1004 C1020 0.939 . S
H1005 C1022 0.940 . S
C1006 P992 1.812 . S
C1006 C1007 1.389 . S
C1006 C1011 1.391 . S
C1007 H993 0.941 . S
C1007 C1006 1.389 . S
C1007 C1008 1.397 . S
C1008 H994 0.939 . S
C1008 C1007 1.397 . S
C1008 C1009 1.378 . S
C1009 C1008 1.378 . S
C1009 C1010 1.378 . S
C1010 H995 0.940 . S
C1010 C1009 1.378 . S
C1010 C1011 1.396 . S
C1011 H996 0.940 1_554 S
C1011 C1006 1.391 . S
C1011 C1010 1.396 . S
C1012 P992 1.803 . S
C1012 C1013 1.378 . S
C1012 C1017 1.400 . S
C1013 H997 0.939 . S
C1013 C1012 1.378 . S
C1013 C1014 1.361 . S
C1014 H998 0.942 . S
C1014 C1013 1.361 . S
C1014 C1015 1.369 . S
C1015 C1014 1.369 . S
C1015 C1016 1.404 . S
C1016 H999 0.940 . S
C1016 C1015 1.404 . S
C1016 C1017 1.389 . S
C1017 H1000 0.939 . S
C1017 C1012 1.400 . S
C1017 C1016 1.389 . S
C1018 P992 1.819 1_556 S
C1018 C1019 1.391 . S
C1018 C1023 1.391 . S
C1019 H1001 0.941 1_556 S
C1019 C1018 1.391 . S
C1019 C1020 1.396 . S
C1020 H1004 0.939 . S
C1020 C1019 1.396 . S
C1020 C1021 1.397 . S
C1021 C1020 1.397 . S
C1021 C1022 1.385 . S
C1022 H1005 0.940 . S
C1022 C1021 1.385 . S
C1022 C1023 1.388 . S
C1023 H1002 0.939 . S
C1023 C1018 1.391 . S
C1023 C1022 1.388 . S
P1024 O1035 1.490 . S
P1024 C1038 1.812 . S
P1024 C1044 1.803 1_565 S
P1024 C1050 1.819 . S
H1025 C1039 0.941 . S
H1026 C1040 0.939 . S
H1027 C1042 0.940 . S
H1028 C1043 0.940 . S
H1029 C1045 0.939 . S
H1030 C1046 0.942 . S
H1031 C1048 0.940 . S
H1032 C1049 0.939 . S
H1033 C1051 0.941 . S
H1034 C1055 0.939 . S
O1035 P1024 1.490 . S
H1036 C1052 0.939 . S
H1037 C1054 0.940 . S
C1038 P1024 1.812 . S
C1038 C1039 1.389 . S
C1038 C1043 1.391 . S
C1039 H1025 0.941 . S
C1039 C1038 1.389 . S
C1039 C1040 1.397 . S
C1040 H1026 0.939 . S
C1040 C1039 1.397 . S
C1040 C1041 1.378 . S
C1041 C1040 1.378 . S
C1041 C1042 1.378 . S
C1042 H1027 0.940 . S
C1042 C1041 1.378 . S
C1042 C1043 1.396 . S
C1043 H1028 0.940 . S
C1043 C1038 1.391 . S
C1043 C1042 1.396 . S
C1044 P1024 1.803 1_545 S
C1044 C1045 1.378 . S
C1044 C1049 1.400 . S
C1045 H1029 0.939 . S
C1045 C1044 1.378 . S
C1045 C1046 1.361 . S
C1046 H1030 0.942 . S
C1046 C1045 1.361 . S
C1046 C1047 1.369 . S
C1047 C1046 1.369 . S
C1047 C1048 1.404 . S
C1048 H1031 0.940 . S
C1048 C1047 1.404 . S
C1048 C1049 1.389 . S
C1049 H1032 0.939 . S
C1049 C1044 1.400 . S
C1049 C1048 1.389 . S
C1050 P1024 1.819 . S
C1050 C1051 1.391 . S
C1050 C1055 1.391 1_565 S
C1051 H1033 0.941 . S
C1051 C1050 1.391 . S
C1051 C1052 1.396 . S
C1052 H1036 0.939 . S
C1052 C1051 1.396 . S
C1052 C1053 1.397 1_565 S
C1053 C1052 1.397 1_545 S
C1053 C1054 1.385 . S
C1054 H1037 0.940 . S
C1054 C1053 1.385 . S
C1054 C1055 1.388 . S
C1055 H1034 0.939 . S
C1055 C1050 1.391 1_545 S
C1055 C1054 1.388 . S
P1056 O1067 1.490 . S
P1056 C1070 1.812 . S
P1056 C1076 1.803 1_545 S
P1056 C1082 1.819 . S
H1057 C1071 0.941 . S
H1058 C1072 0.939 . S
H1059 C1074 0.940 . S
H1060 C1075 0.940 . S
H1061 C1077 0.939 . S
H1062 C1078 0.942 . S
H1063 C1080 0.940 1_556 S
H1064 C1081 0.939 . S
H1065 C1083 0.941 . S
H1066 C1087 0.939 . S
O1067 P1056 1.490 . S
H1068 C1084 0.939 . S
H1069 C1086 0.940 . S
C1070 P1056 1.812 . S
C1070 C1071 1.389 . S
C1070 C1075 1.391 . S
C1071 H1057 0.941 . S
C1071 C1070 1.389 . S
C1071 C1072 1.397 . S
C1072 H1058 0.939 . S
C1072 C1071 1.397 . S
C1072 C1073 1.378 . S
C1073 C1072 1.378 . S
C1073 C1074 1.378 . S
C1074 H1059 0.940 . S
C1074 C1073 1.378 . S
C1074 C1075 1.396 . S
C1075 H1060 0.940 . S
C1075 C1070 1.391 . S
C1075 C1074 1.396 . S
C1076 P1056 1.803 1_565 S
C1076 C1077 1.378 . S
C1076 C1081 1.400 . S
C1077 H1061 0.939 . S
C1077 C1076 1.378 . S
C1077 C1078 1.361 . S
C1078 H1062 0.942 . S
C1078 C1077 1.361 . S
C1078 C1079 1.369 . S
C1079 C1078 1.369 . S
C1079 C1080 1.404 . S
C1080 H1063 0.940 1_554 S
C1080 C1079 1.404 . S
C1080 C1081 1.389 . S
C1081 H1064 0.939 . S
C1081 C1076 1.400 . S
C1081 C1080 1.389 . S
C1082 P1056 1.819 . S
C1082 C1083 1.391 . S
C1082 C1087 1.391 1_545 S
C1083 H1065 0.941 . S
C1083 C1082 1.391 . S
C1083 C1084 1.396 . S
C1084 H1068 0.939 . S
C1084 C1083 1.396 . S
C1084 C1085 1.397 1_545 S
C1085 C1084 1.397 1_565 S
C1085 C1086 1.385 . S
C1086 H1069 0.940 . S
C1086 C1085 1.385 . S
C1086 C1087 1.388 . S
C1087 H1066 0.939 . S
C1087 C1082 1.391 1_565 S
C1087 C1086 1.388 . S
P1088 O1099 1.490 . S
P1088 C1102 1.812 . S
P1088 C1108 1.803 . S
P1088 C1114 1.819 . S
H1089 C1103 0.941 . S
H1090 C1104 0.939 . S
H1091 C1106 0.940 . S
H1092 C1107 0.940 . S
H1093 C1109 0.939 . S
H1094 C1110 0.942 . S
H1095 C1112 0.940 . S
H1096 C1113 0.939 . S
H1097 C1115 0.941 . S
H1098 C1119 0.939 . S
O1099 P1088 1.490 . S
H1100 C1116 0.939 . S
H1101 C1118 0.940 . S
C1102 P1088 1.812 . S
C1102 C1103 1.389 . S
C1102 C1107 1.391 . S
C1103 H1089 0.941 . S
C1103 C1102 1.389 . S
C1103 C1104 1.397 . S
C1104 H1090 0.939 . S
C1104 C1103 1.397 . S
C1104 C1105 1.378 . S
C1105 C1104 1.378 . S
C1105 C1106 1.378 . S
C1106 H1091 0.940 . S
C1106 C1105 1.378 . S
C1106 C1107 1.396 . S
C1107 H1092 0.940 . S
C1107 C1102 1.391 . S
C1107 C1106 1.396 . S
C1108 P1088 1.803 . S
C1108 C1109 1.378 . S
C1108 C1113 1.400 . S
C1109 H1093 0.939 . S
C1109 C1108 1.378 . S
C1109 C1110 1.361 . S
C1110 H1094 0.942 . S
C1110 C1109 1.361 . S
C1110 C1111 1.369 . S
C1111 C1110 1.369 . S
C1111 C1112 1.404 . S
C1112 H1095 0.940 . S
C1112 C1111 1.404 . S
C1112 C1113 1.389 . S
C1113 H1096 0.939 . S
C1113 C1108 1.400 . S
C1113 C1112 1.389 . S
C1114 P1088 1.819 . S
C1114 C1115 1.391 . S
C1114 C1119 1.391 . S
C1115 H1097 0.941 . S
C1115 C1114 1.391 . S
C1115 C1116 1.396 . S
C1116 H1100 0.939 . S
C1116 C1115 1.396 . S
C1116 C1117 1.397 . S
C1117 C1116 1.397 . S
C1117 C1118 1.385 . S
C1118 H1101 0.940 . S
C1118 C1117 1.385 . S
C1118 C1119 1.388 . S
C1119 H1098 0.939 . S
C1119 C1114 1.391 . S
C1119 C1118 1.388 . S
P1120 O1131 1.490 . S
P1120 C1134 1.812 . S
P1120 C1140 1.803 1_554 S
P1120 C1146 1.819 . S
H1121 C1135 0.941 . S
H1122 C1136 0.939 . S
H1123 C1138 0.940 . S
H1124 C1139 0.940 . S
H1125 C1141 0.939 . S
H1126 C1142 0.942 . S
H1127 C1144 0.940 1_655 S
H1128 C1145 0.939 . S
H1129 C1147 0.941 . S
H1130 C1151 0.939 . S
O1131 P1120 1.490 . S
H1132 C1148 0.939 . S
H1133 C1150 0.940 . S
C1134 P1120 1.812 . S
C1134 C1135 1.389 . S
C1134 C1139 1.391 . S
C1135 H1121 0.941 . S
C1135 C1134 1.389 . S
C1135 C1136 1.397 . S
C1136 H1122 0.939 . S
C1136 C1135 1.397 . S
C1136 C1137 1.378 . S
C1137 C1136 1.378 . S
C1137 C1138 1.378 . S
C1138 H1123 0.940 . S
C1138 C1137 1.378 . S
C1138 C1139 1.396 . S
C1139 H1124 0.940 . S
C1139 C1134 1.391 . S
C1139 C1138 1.396 . S
C1140 P1120 1.803 1_556 S
C1140 C1141 1.378 . S
C1140 C1145 1.400 . S
C1141 H1125 0.939 . S
C1141 C1140 1.378 . S
C1141 C1142 1.361 . S
C1142 H1126 0.942 . S
C1142 C1141 1.361 . S
C1142 C1143 1.369 . S
C1143 C1142 1.369 . S
C1143 C1144 1.404 . S
C1144 H1127 0.940 1_455 S
C1144 C1143 1.404 . S
C1144 C1145 1.389 . S
C1145 H1128 0.939 . S
C1145 C1140 1.400 . S
C1145 C1144 1.389 . S
C1146 P1120 1.819 . S
C1146 C1147 1.391 . S
C1146 C1151 1.391 1_554 S
C1147 H1129 0.941 . S
C1147 C1146 1.391 . S
C1147 C1148 1.396 . S
C1148 H1132 0.939 . S
C1148 C1147 1.396 . S
C1148 C1149 1.397 1_554 S
C1149 C1148 1.397 1_556 S
C1149 C1150 1.385 . S
C1150 H1133 0.940 . S
C1150 C1149 1.385 . S
C1150 C1151 1.388 . S
C1151 H1130 0.939 . S
C1151 C1146 1.391 1_556 S
C1151 C1150 1.388 . S
P1152 O1163 1.490 . S
P1152 C1166 1.812 . S
P1152 C1172 1.803 . S
P1152 C1178 1.819 1_455 S
H1153 C1167 0.941 . S
H1154 C1168 0.939 . S
H1155 C1170 0.940 . S
H1156 C1171 0.940 1_655 S
H1157 C1173 0.939 . S
H1158 C1174 0.942 . S
H1159 C1176 0.940 . S
H1160 C1177 0.939 . S
H1161 C1179 0.941 1_455 S
H1162 C1183 0.939 . S
O1163 P1152 1.490 . S
H1164 C1180 0.939 . S
H1165 C1182 0.940 . S
C1166 P1152 1.812 . S
C1166 C1167 1.389 . S
C1166 C1171 1.391 . S
C1167 H1153 0.941 . S
C1167 C1166 1.389 . S
C1167 C1168 1.397 . S
C1168 H1154 0.939 . S
C1168 C1167 1.397 . S
C1168 C1169 1.378 . S
C1169 C1168 1.378 . S
C1169 C1170 1.378 . S
C1170 H1155 0.940 . S
C1170 C1169 1.378 . S
C1170 C1171 1.396 . S
C1171 H1156 0.940 1_455 S
C1171 C1166 1.391 . S
C1171 C1170 1.396 . S
C1172 P1152 1.803 . S
C1172 C1173 1.378 . S
C1172 C1177 1.400 . S
C1173 H1157 0.939 . S
C1173 C1172 1.378 . S
C1173 C1174 1.361 . S
C1174 H1158 0.942 . S
C1174 C1173 1.361 . S
C1174 C1175 1.369 . S
C1175 C1174 1.369 . S
C1175 C1176 1.404 . S
C1176 H1159 0.940 . S
C1176 C1175 1.404 . S
C1176 C1177 1.389 . S
C1177 H1160 0.939 . S
C1177 C1172 1.400 . S
C1177 C1176 1.389 . S
C1178 P1152 1.819 1_655 S
C1178 C1179 1.391 . S
C1178 C1183 1.391 . S
C1179 H1161 0.941 1_655 S
C1179 C1178 1.391 . S
C1179 C1180 1.396 . S
C1180 H1164 0.939 . S
C1180 C1179 1.396 . S
C1180 C1181 1.397 . S
C1181 C1180 1.397 . S
C1181 C1182 1.385 . S
C1182 H1165 0.940 . S
C1182 C1181 1.385 . S
C1182 C1183 1.388 . S
C1183 H1162 0.939 . S
C1183 C1178 1.391 . S
C1183 C1182 1.388 . S
P1184 O1195 1.490 . S
P1184 C1198 1.812 . S
P1184 C1204 1.803 1_556 S
P1184 C1210 1.819 . S
H1185 C1199 0.941 . S
H1186 C1200 0.939 . S
H1187 C1202 0.940 . S
H1188 C1203 0.940 . S
H1189 C1205 0.939 . S
H1190 C1206 0.942 . S
H1191 C1208 0.940 . S
H1192 C1209 0.939 . S
H1193 C1211 0.941 . S
H1194 C1215 0.939 . S
O1195 P1184 1.490 . S
H1196 C1212 0.939 . S
H1197 C1214 0.940 . S
C1198 P1184 1.812 . S
C1198 C1199 1.389 . S
C1198 C1203 1.391 . S
C1199 H1185 0.941 . S
C1199 C1198 1.389 . S
C1199 C1200 1.397 . S
C1200 H1186 0.939 . S
C1200 C1199 1.397 . S
C1200 C1201 1.378 . S
C1201 C1200 1.378 . S
C1201 C1202 1.378 . S
C1202 H1187 0.940 . S
C1202 C1201 1.378 . S
C1202 C1203 1.396 . S
C1203 H1188 0.940 . S
C1203 C1198 1.391 . S
C1203 C1202 1.396 . S
C1204 P1184 1.803 1_554 S
C1204 C1205 1.378 . S
C1204 C1209 1.400 . S
C1205 H1189 0.939 . S
C1205 C1204 1.378 . S
C1205 C1206 1.361 . S
C1206 H1190 0.942 . S
C1206 C1205 1.361 . S
C1206 C1207 1.369 . S
C1207 C1206 1.369 . S
C1207 C1208 1.404 . S
C1208 H1191 0.940 . S
C1208 C1207 1.404 . S
C1208 C1209 1.389 . S
C1209 H1192 0.939 . S
C1209 C1204 1.400 . S
C1209 C1208 1.389 . S
C1210 P1184 1.819 . S
C1210 C1211 1.391 . S
C1210 C1215 1.391 1_556 S
C1211 H1193 0.941 . S
C1211 C1210 1.391 . S
C1211 C1212 1.396 . S
C1212 H1196 0.939 . S
C1212 C1211 1.396 . S
C1212 C1213 1.397 1_556 S
C1213 C1212 1.397 1_554 S
C1213 C1214 1.385 . S
C1214 H1197 0.940 . S
C1214 C1213 1.385 . S
C1214 C1215 1.388 . S
C1215 H1194 0.939 . S
C1215 C1210 1.391 1_554 S
C1215 C1214 1.388 . S
P1216 O1227 1.490 . S
P1216 C1230 1.812 . S
P1216 C1236 1.803 . S
P1216 C1242 1.819 . S
H1217 C1231 0.941 . S
H1218 C1232 0.939 . S
H1219 C1234 0.940 . S
H1220 C1235 0.940 . S
H1221 C1237 0.939 . S
H1222 C1238 0.942 . S
H1223 C1240 0.940 . S
H1224 C1241 0.939 . S
H1225 C1243 0.941 . S
H1226 C1247 0.939 . S
O1227 P1216 1.490 . S
H1228 C1244 0.939 . S
H1229 C1246 0.940 . S
C1230 P1216 1.812 . S
C1230 C1231 1.389 . S
C1230 C1235 1.391 . S
C1231 H1217 0.941 . S
C1231 C1230 1.389 . S
C1231 C1232 1.397 . S
C1232 H1218 0.939 . S
C1232 C1231 1.397 . S
C1232 C1233 1.378 . S
C1233 C1232 1.378 . S
C1233 C1234 1.378 . S
C1234 H1219 0.940 . S
C1234 C1233 1.378 . S
C1234 C1235 1.396 . S
C1235 H1220 0.940 . S
C1235 C1230 1.391 . S
C1235 C1234 1.396 . S
C1236 P1216 1.803 . S
C1236 C1237 1.378 . S
C1236 C1241 1.400 . S
C1237 H1221 0.939 . S
C1237 C1236 1.378 . S
C1237 C1238 1.361 . S
C1238 H1222 0.942 . S
C1238 C1237 1.361 . S
C1238 C1239 1.369 . S
C1239 C1238 1.369 . S
C1239 C1240 1.404 . S
C1240 H1223 0.940 . S
C1240 C1239 1.404 . S
C1240 C1241 1.389 . S
C1241 H1224 0.939 . S
C1241 C1236 1.400 . S
C1241 C1240 1.389 . S
C1242 P1216 1.819 . S
C1242 C1243 1.391 . S
C1242 C1247 1.391 . S
C1243 H1225 0.941 . S
C1243 C1242 1.391 . S
C1243 C1244 1.396 . S
C1244 H1228 0.939 . S
C1244 C1243 1.396 . S
C1244 C1245 1.397 . S
C1245 C1244 1.397 . S
C1245 C1246 1.385 . S
C1246 H1229 0.940 . S
C1246 C1245 1.385 . S
C1246 C1247 1.388 . S
C1247 H1226 0.939 . S
C1247 C1242 1.391 . S
C1247 C1246 1.388 . S
P1248 O1259 1.490 . S
P1248 C1262 1.812 . S
P1248 C1268 1.803 1_455 S
P1248 C1274 1.819 . S
H1249 C1263 0.941 . S
H1250 C1264 0.939 . S
H1251 C1266 0.940 . S
H1252 C1267 0.940 . S
H1253 C1269 0.939 . S
H1254 C1270 0.942 . S
H1255 C1272 0.940 1_565 S
H1256 C1273 0.939 . S
H1257 C1275 0.941 . S
H1258 C1279 0.939 . S
O1259 P1248 1.490 . S
H1260 C1276 0.939 . S
H1261 C1278 0.940 . S
C1262 P1248 1.812 . S
C1262 C1263 1.389 . S
C1262 C1267 1.391 . S
C1263 H1249 0.941 . S
C1263 C1262 1.389 . S
C1263 C1264 1.397 . S
C1264 H1250 0.939 . S
C1264 C1263 1.397 . S
C1264 C1265 1.378 . S
C1265 C1264 1.378 . S
C1265 C1266 1.378 . S
C1266 H1251 0.940 . S
C1266 C1265 1.378 . S
C1266 C1267 1.396 . S
C1267 H1252 0.940 . S
C1267 C1262 1.391 . S
C1267 C1266 1.396 . S
C1268 P1248 1.803 1_655 S
C1268 C1269 1.378 . S
C1268 C1273 1.400 . S
C1269 H1253 0.939 . S
C1269 C1268 1.378 . S
C1269 C1270 1.361 . S
C1270 H1254 0.942 . S
C1270 C1269 1.361 . S
C1270 C1271 1.369 . S
C1271 C1270 1.369 . S
C1271 C1272 1.404 . S
C1272 H1255 0.940 1_545 S
C1272 C1271 1.404 . S
C1272 C1273 1.389 . S
C1273 H1256 0.939 . S
C1273 C1268 1.400 . S
C1273 C1272 1.389 . S
C1274 P1248 1.819 . S
C1274 C1275 1.391 . S
C1274 C1279 1.391 1_455 S
C1275 H1257 0.941 . S
C1275 C1274 1.391 . S
C1275 C1276 1.396 . S
C1276 H1260 0.939 . S
C1276 C1275 1.396 . S
C1276 C1277 1.397 1_455 S
C1277 C1276 1.397 1_655 S
C1277 C1278 1.385 . S
C1278 H1261 0.940 . S
C1278 C1277 1.385 . S
C1278 C1279 1.388 . S
C1279 H1258 0.939 . S
C1279 C1274 1.391 1_655 S
C1279 C1278 1.388 . S
P1280 O1291 1.490 . S
P1280 C1294 1.812 . S
P1280 C1300 1.803 . S
P1280 C1306 1.819 1_545 S
H1281 C1295 0.941 . S
H1282 C1296 0.939 . S
H1283 C1298 0.940 . S
H1284 C1299 0.940 1_565 S
H1285 C1301 0.939 . S
H1286 C1302 0.942 . S
H1287 C1304 0.940 . S
H1288 C1305 0.939 . S
H1289 C1307 0.941 1_545 S
H1290 C1311 0.939 . S
O1291 P1280 1.490 . S
H1292 C1308 0.939 . S
H1293 C1310 0.940 . S
C1294 P1280 1.812 . S
C1294 C1295 1.389 . S
C1294 C1299 1.391 . S
C1295 H1281 0.941 . S
C1295 C1294 1.389 . S
C1295 C1296 1.397 . S
C1296 H1282 0.939 . S
C1296 C1295 1.397 . S
C1296 C1297 1.378 . S
C1297 C1296 1.378 . S
C1297 C1298 1.378 . S
C1298 H1283 0.940 . S
C1298 C1297 1.378 . S
C1298 C1299 1.396 . S
C1299 H1284 0.940 1_545 S
C1299 C1294 1.391 . S
C1299 C1298 1.396 . S
C1300 P1280 1.803 . S
C1300 C1301 1.378 . S
C1300 C1305 1.400 . S
C1301 H1285 0.939 . S
C1301 C1300 1.378 . S
C1301 C1302 1.361 . S
C1302 H1286 0.942 . S
C1302 C1301 1.361 . S
C1302 C1303 1.369 . S
C1303 C1302 1.369 . S
C1303 C1304 1.404 . S
C1304 H1287 0.940 . S
C1304 C1303 1.404 . S
C1304 C1305 1.389 . S
C1305 H1288 0.939 . S
C1305 C1300 1.400 . S
C1305 C1304 1.389 . S
C1306 P1280 1.819 1_565 S
C1306 C1307 1.391 . S
C1306 C1311 1.391 . S
C1307 H1289 0.941 1_565 S
C1307 C1306 1.391 . S
C1307 C1308 1.396 . S
C1308 H1292 0.939 . S
C1308 C1307 1.396 . S
C1308 C1309 1.397 . S
C1309 C1308 1.397 . S
C1309 C1310 1.385 . S
C1310 H1293 0.940 . S
C1310 C1309 1.385 . S
C1310 C1311 1.388 . S
C1311 H1290 0.939 . S
C1311 C1306 1.391 . S
C1311 C1310 1.388 . S
P1312 O1323 1.490 . S
P1312 C1326 1.812 . S
P1312 C1332 1.803 1_655 S
P1312 C1338 1.819 . S
H1313 C1327 0.941 . S
H1314 C1328 0.939 . S
H1315 C1330 0.940 . S
H1316 C1331 0.940 . S
H1317 C1333 0.939 . S
H1318 C1334 0.942 . S
H1319 C1336 0.940 . S
H1320 C1337 0.939 . S
H1321 C1339 0.941 . S
H1322 C1343 0.939 . S
O1323 P1312 1.490 . S
H1324 C1340 0.939 . S
H1325 C1342 0.940 . S
C1326 P1312 1.812 . S
C1326 C1327 1.389 . S
C1326 C1331 1.391 . S
C1327 H1313 0.941 . S
C1327 C1326 1.389 . S
C1327 C1328 1.397 . S
C1328 H1314 0.939 . S
C1328 C1327 1.397 . S
C1328 C1329 1.378 . S
C1329 C1328 1.378 . S
C1329 C1330 1.378 . S
C1330 H1315 0.940 . S
C1330 C1329 1.378 . S
C1330 C1331 1.396 . S
C1331 H1316 0.940 . S
C1331 C1326 1.391 . S
C1331 C1330 1.396 . S
C1332 P1312 1.803 1_455 S
C1332 C1333 1.378 . S
C1332 C1337 1.400 . S
C1333 H1317 0.939 . S
C1333 C1332 1.378 . S
C1333 C1334 1.361 . S
C1334 H1318 0.942 . S
C1334 C1333 1.361 . S
C1334 C1335 1.369 . S
C1335 C1334 1.369 . S
C1335 C1336 1.404 . S
C1336 H1319 0.940 . S
C1336 C1335 1.404 . S
C1336 C1337 1.389 . S
C1337 H1320 0.939 . S
C1337 C1332 1.400 . S
C1337 C1336 1.389 . S
C1338 P1312 1.819 . S
C1338 C1339 1.391 . S
C1338 C1343 1.391 1_655 S
C1339 H1321 0.941 . S
C1339 C1338 1.391 . S
C1339 C1340 1.396 . S
C1340 H1324 0.939 . S
C1340 C1339 1.396 . S
C1340 C1341 1.397 1_655 S
C1341 C1340 1.397 1_455 S
C1341 C1342 1.385 . S
C1342 H1325 0.940 . S
C1342 C1341 1.385 . S
C1342 C1343 1.388 . S
C1343 H1322 0.939 . S
C1343 C1338 1.391 1_455 S
C1343 C1342 1.388 . S
P1344 O1355 1.490 . S
P1344 C1358 1.812 . S
P1344 C1364 1.803 . S
P1344 C1370 1.819 . S
H1345 C1359 0.941 . S
H1346 C1360 0.939 . S
H1347 C1362 0.940 . S
H1348 C1363 0.940 . S
H1349 C1365 0.939 . S
H1350 C1366 0.942 . S
H1351 C1368 0.940 . S
H1352 C1369 0.939 . S
H1353 C1371 0.941 . S
H1354 C1375 0.939 . S
O1355 P1344 1.490 . S
H1356 C1372 0.939 . S
H1357 C1374 0.940 . S
C1358 P1344 1.812 . S
C1358 C1359 1.389 . S
C1358 C1363 1.391 . S
C1359 H1345 0.941 . S
C1359 C1358 1.389 . S
C1359 C1360 1.397 . S
C1360 H1346 0.939 . S
C1360 C1359 1.397 . S
C1360 C1361 1.378 . S
C1361 C1360 1.378 . S
C1361 C1362 1.378 . S
C1362 H1347 0.940 . S
C1362 C1361 1.378 . S
C1362 C1363 1.396 . S
C1363 H1348 0.940 . S
C1363 C1358 1.391 . S
C1363 C1362 1.396 . S
C1364 P1344 1.803 . S
C1364 C1365 1.378 . S
C1364 C1369 1.400 . S
C1365 H1349 0.939 . S
C1365 C1364 1.378 . S
C1365 C1366 1.361 . S
C1366 H1350 0.942 . S
C1366 C1365 1.361 . S
C1366 C1367 1.369 . S
C1367 C1366 1.369 . S
C1367 C1368 1.404 . S
C1368 H1351 0.940 . S
C1368 C1367 1.404 . S
C1368 C1369 1.389 . S
C1369 H1352 0.939 . S
C1369 C1364 1.400 . S
C1369 C1368 1.389 . S
C1370 P1344 1.819 . S
C1370 C1371 1.391 . S
C1370 C1375 1.391 . S
C1371 H1353 0.941 . S
C1371 C1370 1.391 . S
C1371 C1372 1.396 . S
C1372 H1356 0.939 . S
C1372 C1371 1.396 . S
C1372 C1373 1.397 . S
C1373 C1372 1.397 . S
C1373 C1374 1.385 . S
C1374 H1357 0.940 . S
C1374 C1373 1.385 . S
C1374 C1375 1.388 . S
C1375 H1354 0.939 . S
C1375 C1370 1.391 . S
C1375 C1374 1.388 . S
P1376 O1387 1.490 . S
P1376 C1390 1.812 1_554 S
P1376 C1396 1.803 . S
P1376 C1402 1.819 . S
H1377 C1391 0.941 . S
H1378 C1392 0.939 . S
H1379 C1394 0.940 . S
H1380 C1395 0.940 . S
H1381 C1397 0.939 . S
H1382 C1398 0.942 . S
H1383 C1400 0.940 . S
H1384 C1401 0.939 . S
H1385 C1403 0.941 . S
H1386 C1407 0.939 . S
O1387 P1376 1.490 . S
H1388 C1404 0.939 . S
H1389 C1406 0.940 . S
C1390 P1376 1.812 1_556 S
C1390 C1391 1.389 . S
C1390 C1395 1.391 . S
C1391 H1377 0.941 . S
C1391 C1390 1.389 . S
C1391 C1392 1.397 . S
C1392 H1378 0.939 . S
C1392 C1391 1.397 . S
C1392 C1393 1.378 . S
C1393 C1392 1.378 . S
C1393 C1394 1.378 . S
C1394 H1379 0.940 . S
C1394 C1393 1.378 . S
C1394 C1395 1.396 . S
C1395 H1380 0.940 . S
C1395 C1390 1.391 . S
C1395 C1394 1.396 . S
C1396 P1376 1.803 . S
C1396 C1397 1.378 . S
C1396 C1401 1.400 1_554 S
C1397 H1381 0.939 . S
C1397 C1396 1.378 . S
C1397 C1398 1.361 . S
C1398 H1382 0.942 . S
C1398 C1397 1.361 . S
C1398 C1399 1.369 1_554 S
C1399 C1398 1.369 1_556 S
C1399 C1400 1.404 . S
C1400 H1383 0.940 . S
C1400 C1399 1.404 . S
C1400 C1401 1.389 . S
C1401 H1384 0.939 . S
C1401 C1396 1.400 1_556 S
C1401 C1400 1.389 . S
C1402 P1376 1.819 . S
C1402 C1403 1.391 . S
C1402 C1407 1.391 . S
C1403 H1385 0.941 . S
C1403 C1402 1.391 . S
C1403 C1404 1.396 . S
C1404 H1388 0.939 . S
C1404 C1403 1.396 . S
C1404 C1405 1.397 . S
C1405 C1404 1.397 . S
C1405 C1406 1.385 . S
C1406 H1389 0.940 . S
C1406 C1405 1.385 . S
C1406 C1407 1.388 . S
C1407 H1386 0.939 . S
C1407 C1402 1.391 . S
C1407 C1406 1.388 . S
P1408 O1419 1.490 . S
P1408 C1422 1.812 1_565 S
P1408 C1428 1.803 . S
P1408 C1434 1.819 . S
H1409 C1423 0.941 . S
H1410 C1424 0.939 . S
H1411 C1426 0.940 . S
H1412 C1427 0.940 . S
H1413 C1429 0.939 . S
H1414 C1430 0.942 . S
H1415 C1432 0.940 . S
H1416 C1433 0.939 . S
H1417 C1435 0.931 1_545 S
H1418 C1439 0.939 . S
O1419 P1408 1.490 . S
H1420 C1436 0.939 . S
H1421 C1438 0.940 . S
C1422 P1408 1.812 1_545 S
C1422 C1423 1.389 . S
C1422 C1427 1.391 . S
C1423 H1409 0.941 . S
C1423 C1422 1.389 . S
C1423 C1424 1.397 . S
C1424 H1410 0.939 . S
C1424 C1423 1.397 . S
C1424 C1425 1.378 . S
C1425 C1424 1.378 . S
C1425 C1426 1.378 . S
C1426 H1411 0.940 . S
C1426 C1425 1.378 . S
C1426 C1427 1.396 . S
C1427 H1412 0.940 . S
C1427 C1422 1.391 . S
C1427 C1426 1.396 . S
C1428 P1408 1.803 . S
C1428 C1429 1.378 . S
C1428 C1433 1.400 . S
C1429 H1413 0.939 . S
C1429 C1428 1.378 . S
C1429 C1430 1.361 . S
C1430 H1414 0.942 . S
C1430 C1429 1.361 . S
C1430 C1431 1.369 . S
C1431 C1430 1.369 . S
C1431 C1432 1.404 . S
C1432 H1415 0.940 . S
C1432 C1431 1.404 . S
C1432 C1433 1.389 . S
C1433 H1416 0.939 . S
C1433 C1428 1.400 . S
C1433 C1432 1.389 . S
C1434 P1408 1.819 . S
C1434 C1435 1.406 . S
C1434 C1439 1.391 . S
C1435 H1417 0.931 1_565 S
C1435 C1434 1.406 . S
C1435 C1436 1.393 1_565 S
C1436 H1420 0.939 . S
C1436 C1435 1.393 1_545 S
C1436 C1437 1.397 1_545 S
C1437 C1436 1.397 1_565 S
C1437 C1438 1.385 . S
C1438 H1421 0.940 . S
C1438 C1437 1.385 . S
C1438 C1439 1.388 . S
C1439 H1418 0.939 . S
C1439 C1434 1.391 . S
C1439 C1438 1.388 . S
P1440 O1451 1.490 . S
P1440 C1454 1.812 1_545 S
P1440 C1460 1.803 . S
P1440 C1466 1.819 . S
H1441 C1455 0.941 1_554 S
H1442 C1456 0.939 . S
H1443 C1458 0.940 . S
H1444 C1459 0.940 . S
H1445 C1461 0.939 . S
H1446 C1462 0.942 . S
H1447 C1464 0.940 . S
H1448 C1465 0.939 . S
H1449 C1467 0.941 . S
H1450 C1471 0.939 . S
O1451 P1440 1.490 . S
H1452 C1468 0.939 . S
H1453 C1470 0.940 . S
C1454 P1440 1.812 1_565 S
C1454 C1455 1.389 . S
C1454 C1459 1.391 . S
C1455 H1441 0.941 1_556 S
C1455 C1454 1.389 . S
C1455 C1456 1.397 1_556 S
C1456 H1442 0.939 . S
C1456 C1455 1.397 1_554 S
C1456 C1457 1.378 1_554 S
C1457 C1456 1.378 1_556 S
C1457 C1458 1.378 . S
C1458 H1443 0.940 . S
C1458 C1457 1.378 . S
C1458 C1459 1.396 . S
C1459 H1444 0.940 . S
C1459 C1454 1.391 . S
C1459 C1458 1.396 . S
C1460 P1440 1.803 . S
C1460 C1461 1.378 . S
C1460 C1465 1.400 . S
C1461 H1445 0.939 . S
C1461 C1460 1.378 . S
C1461 C1462 1.361 . S
C1462 H1446 0.942 . S
C1462 C1461 1.361 . S
C1462 C1463 1.369 . S
C1463 C1462 1.369 . S
C1463 C1464 1.404 . S
C1464 H1447 0.940 . S
C1464 C1463 1.404 . S
C1464 C1465 1.389 . S
C1465 H1448 0.939 . S
C1465 C1460 1.400 . S
C1465 C1464 1.389 . S
C1466 P1440 1.819 . S
C1466 C1467 1.391 1_545 S
C1466 C1471 1.391 . S
C1467 H1449 0.941 . S
C1467 C1466 1.391 1_565 S
C1467 C1468 1.396 . S
C1468 H1452 0.939 . S
C1468 C1467 1.396 . S
C1468 C1469 1.397 1_565 S
C1469 C1468 1.397 1_545 S
C1469 C1470 1.385 . S
C1470 H1453 0.940 . S
C1470 C1469 1.385 . S
C1470 C1471 1.388 . S
C1471 H1450 0.939 . S
C1471 C1466 1.391 . S
C1471 C1470 1.388 . S
P1472 O1483 1.490 . S
P1472 C1486 1.812 . S
P1472 C1492 1.803 . S
P1472 C1498 1.819 . S
H1473 C1487 0.941 . S
H1474 C1488 0.939 . S
H1475 C1490 0.940 . S
H1476 C1491 0.940 . S
H1477 C1493 0.939 . S
H1478 C1494 0.942 . S
H1479 C1496 0.940 . S
H1480 C1497 0.939 . S
H1481 C1499 0.941 . S
H1482 C1503 0.939 . S
O1483 P1472 1.490 . S
H1484 C1500 0.939 . S
H1485 C1502 0.940 . S
C1486 P1472 1.812 . S
C1486 C1487 1.389 . S
C1486 C1491 1.391 . S
C1487 H1473 0.941 . S
C1487 C1486 1.389 . S
C1487 C1488 1.397 . S
C1488 H1474 0.939 . S
C1488 C1487 1.397 . S
C1488 C1489 1.378 . S
C1489 C1488 1.378 . S
C1489 C1490 1.378 . S
C1490 H1475 0.940 . S
C1490 C1489 1.378 . S
C1490 C1491 1.396 . S
C1491 H1476 0.940 . S
C1491 C1486 1.391 . S
C1491 C1490 1.396 . S
C1492 P1472 1.803 . S
C1492 C1493 1.378 . S
C1492 C1497 1.400 . S
C1493 H1477 0.939 . S
C1493 C1492 1.378 . S
C1493 C1494 1.361 . S
C1494 H1478 0.942 . S
C1494 C1493 1.361 . S
C1494 C1495 1.369 . S
C1495 C1494 1.369 . S
C1495 C1496 1.404 . S
C1496 H1479 0.940 . S
C1496 C1495 1.404 . S
C1496 C1497 1.389 . S
C1497 H1480 0.939 . S
C1497 C1492 1.400 . S
C1497 C1496 1.389 . S
C1498 P1472 1.819 . S
C1498 C1499 1.391 . S
C1498 C1503 1.391 . S
C1499 H1481 0.941 . S
C1499 C1498 1.391 . S
C1499 C1500 1.396 . S
C1500 H1484 0.939 . S
C1500 C1499 1.396 . S
C1500 C1501 1.397 . S
C1501 C1500 1.397 . S
C1501 C1502 1.385 . S
C1502 H1485 0.940 . S
C1502 C1501 1.385 . S
C1502 C1503 1.388 . S
C1503 H1482 0.939 . S
C1503 C1498 1.391 . S
C1503 C1502 1.388 . S
P1504 O1515 1.490 . S
P1504 C1518 1.812 1_554 S
P1504 C1524 1.803 . S
P1504 C1530 1.819 . S
H1505 C1519 0.941 1_455 S
H1506 C1520 0.939 . S
H1507 C1522 0.940 . S
H1508 C1523 0.940 . S
H1509 C1525 0.939 . S
H1510 C1526 0.942 . S
H1511 C1528 0.940 . S
H1512 C1529 0.939 . S
H1513 C1531 0.941 . S
H1514 C1535 0.939 . S
O1515 P1504 1.490 . S
H1516 C1532 0.939 . S
H1517 C1534 0.940 . S
C1518 P1504 1.812 1_556 S
C1518 C1519 1.389 . S
C1518 C1523 1.391 . S
C1519 H1505 0.941 1_655 S
C1519 C1518 1.389 . S
C1519 C1520 1.397 1_655 S
C1520 H1506 0.939 . S
C1520 C1519 1.397 1_455 S
C1520 C1521 1.378 1_455 S
C1521 C1520 1.378 1_655 S
C1521 C1522 1.378 . S
C1522 H1507 0.940 . S
C1522 C1521 1.378 . S
C1522 C1523 1.396 . S
C1523 H1508 0.940 . S
C1523 C1518 1.391 . S
C1523 C1522 1.396 . S
C1524 P1504 1.803 . S
C1524 C1525 1.378 . S
C1524 C1529 1.400 . S
C1525 H1509 0.939 . S
C1525 C1524 1.378 . S
C1525 C1526 1.361 . S
C1526 H1510 0.942 . S
C1526 C1525 1.361 . S
C1526 C1527 1.369 . S
C1527 C1526 1.369 . S
C1527 C1528 1.404 . S
C1528 H1511 0.940 . S
C1528 C1527 1.404 . S
C1528 C1529 1.389 . S
C1529 H1512 0.939 . S
C1529 C1524 1.400 . S
C1529 C1528 1.389 . S
C1530 P1504 1.819 . S
C1530 C1531 1.391 1_554 S
C1530 C1535 1.391 . S
C1531 H1513 0.941 . S
C1531 C1530 1.391 1_556 S
C1531 C1532 1.396 . S
C1532 H1516 0.939 . S
C1532 C1531 1.396 . S
C1532 C1533 1.397 1_556 S
C1533 C1532 1.397 1_554 S
C1533 C1534 1.385 . S
C1534 H1517 0.940 . S
C1534 C1533 1.385 . S
C1534 C1535 1.388 . S
C1535 H1514 0.939 . S
C1535 C1530 1.391 . S
C1535 C1534 1.388 . S
P1536 O1547 1.490 . S
P1536 C1550 1.812 1_455 S
P1536 C1556 1.803 . S
P1536 C1562 1.819 . S
H1537 C1551 0.941 . S
H1538 C1552 0.939 . S
H1539 C1554 0.940 . S
H1540 C1555 0.940 . S
H1541 C1557 0.939 . S
H1542 C1558 0.942 . S
H1543 C1560 0.940 . S
H1544 C1561 0.939 . S
H1545 C1563 0.941 . S
H1546 C1567 0.939 . S
O1547 P1536 1.490 . S
H1548 C1564 0.939 . S
H1549 C1566 0.940 . S
C1550 P1536 1.812 1_655 S
C1550 C1551 1.389 . S
C1550 C1555 1.391 . S
C1551 H1537 0.941 . S
C1551 C1550 1.389 . S
C1551 C1552 1.397 . S
C1552 H1538 0.939 . S
C1552 C1551 1.397 . S
C1552 C1553 1.378 . S
C1553 C1552 1.378 . S
C1553 C1554 1.378 . S
C1554 H1539 0.940 . S
C1554 C1553 1.378 . S
C1554 C1555 1.396 . S
C1555 H1540 0.940 . S
C1555 C1550 1.391 . S
C1555 C1554 1.396 . S
C1556 P1536 1.803 . S
C1556 C1557 1.378 . S
C1556 C1561 1.400 1_455 S
C1557 H1541 0.939 . S
C1557 C1556 1.378 . S
C1557 C1558 1.361 . S
C1558 H1542 0.942 . S
C1558 C1557 1.361 . S
C1558 C1559 1.369 1_455 S
C1559 C1558 1.369 1_655 S
C1559 C1560 1.404 . S
C1560 H1543 0.940 . S
C1560 C1559 1.404 . S
C1560 C1561 1.389 . S
C1561 H1544 0.939 . S
C1561 C1556 1.400 1_655 S
C1561 C1560 1.389 . S
C1562 P1536 1.819 . S
C1562 C1563 1.391 . S
C1562 C1567 1.391 . S
C1563 H1545 0.941 . S
C1563 C1562 1.391 . S
C1563 C1564 1.396 . S
C1564 H1548 0.939 . S
C1564 C1563 1.396 . S
C1564 C1565 1.397 . S
C1565 C1564 1.397 . S
C1565 C1566 1.385 . S
C1566 H1549 0.940 . S
C1566 C1565 1.385 . S
C1566 C1567 1.388 . S
C1567 H1546 0.939 . S
C1567 C1562 1.391 . S
C1567 C1566 1.388 . S
P1568 O1579 1.490 . S
P1568 C1582 1.812 1_556 S
P1568 C1588 1.803 . S
P1568 C1594 1.819 . S
H1569 C1583 0.941 . S
H1570 C1584 0.939 . S
H1571 C1586 0.940 . S
H1572 C1587 0.940 . S
H1573 C1589 0.939 . S
H1574 C1590 0.942 . S
H1575 C1592 0.940 . S
H1576 C1593 0.939 . S
H1577 C1595 0.931 1_554 S
H1578 C1599 0.939 . S
O1579 P1568 1.490 . S
H1580 C1596 0.939 . S
H1581 C1598 0.940 . S
C1582 P1568 1.812 1_554 S
C1582 C1583 1.389 . S
C1582 C1587 1.391 . S
C1583 H1569 0.941 . S
C1583 C1582 1.389 . S
C1583 C1584 1.397 . S
C1584 H1570 0.939 . S
C1584 C1583 1.397 . S
C1584 C1585 1.378 . S
C1585 C1584 1.378 . S
C1585 C1586 1.378 . S
C1586 H1571 0.940 . S
C1586 C1585 1.378 . S
C1586 C1587 1.396 . S
C1587 H1572 0.940 . S
C1587 C1582 1.391 . S
C1587 C1586 1.396 . S
C1588 P1568 1.803 . S
C1588 C1589 1.378 . S
C1588 C1593 1.400 . S
C1589 H1573 0.939 . S
C1589 C1588 1.378 . S
C1589 C1590 1.361 . S
C1590 H1574 0.942 . S
C1590 C1589 1.361 . S
C1590 C1591 1.369 . S
C1591 C1590 1.369 . S
C1591 C1592 1.404 . S
C1592 H1575 0.940 . S
C1592 C1591 1.404 . S
C1592 C1593 1.389 . S
C1593 H1576 0.939 . S
C1593 C1588 1.400 . S
C1593 C1592 1.389 . S
C1594 P1568 1.819 . S
C1594 C1595 1.406 . S
C1594 C1599 1.391 . S
C1595 H1577 0.931 1_556 S
C1595 C1594 1.406 . S
C1595 C1596 1.393 1_556 S
C1596 H1580 0.939 . S
C1596 C1595 1.393 1_554 S
C1596 C1597 1.397 1_554 S
C1597 C1596 1.397 1_556 S
C1597 C1598 1.385 . S
C1598 H1581 0.940 . S
C1598 C1597 1.385 . S
C1598 C1599 1.388 . S
C1599 H1578 0.939 . S
C1599 C1594 1.391 . S
C1599 C1598 1.388 . S
P1600 O1611 1.490 . S
P1600 C1614 1.812 . S
P1600 C1620 1.803 . S
P1600 C1626 1.819 . S
H1601 C1615 0.941 . S
H1602 C1616 0.939 . S
H1603 C1618 0.940 . S
H1604 C1619 0.940 . S
H1605 C1621 0.939 . S
H1606 C1622 0.942 . S
H1607 C1624 0.940 . S
H1608 C1625 0.939 . S
H1609 C1627 0.941 . S
H1610 C1631 0.939 . S
O1611 P1600 1.490 . S
H1612 C1628 0.939 . S
H1613 C1630 0.940 . S
C1614 P1600 1.812 . S
C1614 C1615 1.389 . S
C1614 C1619 1.391 . S
C1615 H1601 0.941 . S
C1615 C1614 1.389 . S
C1615 C1616 1.397 . S
C1616 H1602 0.939 . S
C1616 C1615 1.397 . S
C1616 C1617 1.378 . S
C1617 C1616 1.378 . S
C1617 C1618 1.378 . S
C1618 H1603 0.940 . S
C1618 C1617 1.378 . S
C1618 C1619 1.396 . S
C1619 H1604 0.940 . S
C1619 C1614 1.391 . S
C1619 C1618 1.396 . S
C1620 P1600 1.803 . S
C1620 C1621 1.378 . S
C1620 C1625 1.400 . S
C1621 H1605 0.939 . S
C1621 C1620 1.378 . S
C1621 C1622 1.361 . S
C1622 H1606 0.942 . S
C1622 C1621 1.361 . S
C1622 C1623 1.369 . S
C1623 C1622 1.369 . S
C1623 C1624 1.404 . S
C1624 H1607 0.940 . S
C1624 C1623 1.404 . S
C1624 C1625 1.389 . S
C1625 H1608 0.939 . S
C1625 C1620 1.400 . S
C1625 C1624 1.389 . S
C1626 P1600 1.819 . S
C1626 C1627 1.391 . S
C1626 C1631 1.391 . S
C1627 H1609 0.941 . S
C1627 C1626 1.391 . S
C1627 C1628 1.396 . S
C1628 H1612 0.939 . S
C1628 C1627 1.396 . S
C1628 C1629 1.397 . S
C1629 C1628 1.397 . S
C1629 C1630 1.385 . S
C1630 H1613 0.940 . S
C1630 C1629 1.385 . S
C1630 C1631 1.388 . S
C1631 H1610 0.939 . S
C1631 C1626 1.391 . S
C1631 C1630 1.388 . S
P1632 O1643 1.490 . S
P1632 C1646 1.812 1_455 S
P1632 C1652 1.803 . S
P1632 C1658 1.819 . S
H1633 C1647 0.941 1_545 S
H1634 C1648 0.939 . S
H1635 C1650 0.940 . S
H1636 C1651 0.940 . S
H1637 C1653 0.939 . S
H1638 C1654 0.942 . S
H1639 C1656 0.940 . S
H1640 C1657 0.939 . S
H1641 C1659 0.941 . S
H1642 C1663 0.939 . S
O1643 P1632 1.490 . S
H1644 C1660 0.939 . S
H1645 C1662 0.940 . S
C1646 P1632 1.812 1_655 S
C1646 C1647 1.389 . S
C1646 C1651 1.391 . S
C1647 H1633 0.941 1_565 S
C1647 C1646 1.389 . S
C1647 C1648 1.397 1_565 S
C1648 H1634 0.939 . S
C1648 C1647 1.397 1_545 S
C1648 C1649 1.378 1_545 S
C1649 C1648 1.378 1_565 S
C1649 C1650 1.378 . S
C1650 H1635 0.940 . S
C1650 C1649 1.378 . S
C1650 C1651 1.396 . S
C1651 H1636 0.940 . S
C1651 C1646 1.391 . S
C1651 C1650 1.396 . S
C1652 P1632 1.803 . S
C1652 C1653 1.378 . S
C1652 C1657 1.400 . S
C1653 H1637 0.939 . S
C1653 C1652 1.378 . S
C1653 C1654 1.361 . S
C1654 H1638 0.942 . S
C1654 C1653 1.361 . S
C1654 C1655 1.369 . S
C1655 C1654 1.369 . S
C1655 C1656 1.404 . S
C1656 H1639 0.940 . S
C1656 C1655 1.404 . S
C1656 C1657 1.389 . S
C1657 H1640 0.939 . S
C1657 C1652 1.400 . S
C1657 C1656 1.389 . S
C1658 P1632 1.819 . S
C1658 C1659 1.391 1_455 S
C1658 C1663 1.391 . S
C1659 H1641 0.941 . S
C1659 C1658 1.391 1_655 S
C1659 C1660 1.396 . S
C1660 H1644 0.939 . S
C1660 C1659 1.396 . S
C1660 C1661 1.397 1_655 S
C1661 C1660 1.397 1_455 S
C1661 C1662 1.385 . S
C1662 H1645 0.940 . S
C1662 C1661 1.385 . S
C1662 C1663 1.388 . S
C1663 H1642 0.939 . S
C1663 C1658 1.391 . S
C1663 C1662 1.388 . S
P1664 O1675 1.490 . S
P1664 C1678 1.812 1_545 S
P1664 C1684 1.803 . S
P1664 C1690 1.819 . S
H1665 C1679 0.941 . S
H1666 C1680 0.939 . S
H1667 C1682 0.940 . S
H1668 C1683 0.940 . S
H1669 C1685 0.939 . S
H1670 C1686 0.942 . S
H1671 C1688 0.940 . S
H1672 C1689 0.939 . S
H1673 C1691 0.941 . S
H1674 C1695 0.939 . S
O1675 P1664 1.490 . S
H1676 C1692 0.939 . S
H1677 C1694 0.940 . S
C1678 P1664 1.812 1_565 S
C1678 C1679 1.389 . S
C1678 C1683 1.391 . S
C1679 H1665 0.941 . S
C1679 C1678 1.389 . S
C1679 C1680 1.397 . S
C1680 H1666 0.939 . S
C1680 C1679 1.397 . S
C1680 C1681 1.378 . S
C1681 C1680 1.378 . S
C1681 C1682 1.378 . S
C1682 H1667 0.940 . S
C1682 C1681 1.378 . S
C1682 C1683 1.396 . S
C1683 H1668 0.940 . S
C1683 C1678 1.391 . S
C1683 C1682 1.396 . S
C1684 P1664 1.803 . S
C1684 C1685 1.378 . S
C1684 C1689 1.400 1_545 S
C1685 H1669 0.939 . S
C1685 C1684 1.378 . S
C1685 C1686 1.361 . S
C1686 H1670 0.942 . S
C1686 C1685 1.361 . S
C1686 C1687 1.369 1_545 S
C1687 C1686 1.369 1_565 S
C1687 C1688 1.404 . S
C1688 H1671 0.940 . S
C1688 C1687 1.404 . S
C1688 C1689 1.389 . S
C1689 H1672 0.939 . S
C1689 C1684 1.400 1_565 S
C1689 C1688 1.389 . S
C1690 P1664 1.819 . S
C1690 C1691 1.391 . S
C1690 C1695 1.391 . S
C1691 H1673 0.941 . S
C1691 C1690 1.391 . S
C1691 C1692 1.396 . S
C1692 H1676 0.939 . S
C1692 C1691 1.396 . S
C1692 C1693 1.397 . S
C1693 C1692 1.397 . S
C1693 C1694 1.385 . S
C1694 H1677 0.940 . S
C1694 C1693 1.385 . S
C1694 C1695 1.388 . S
C1695 H1674 0.939 . S
C1695 C1690 1.391 . S
C1695 C1694 1.388 . S
P1696 O1707 1.490 . S
P1696 C1710 1.812 1_655 S
P1696 C1716 1.803 . S
P1696 C1722 1.819 . S
H1697 C1711 0.941 . S
H1698 C1712 0.939 . S
H1699 C1714 0.940 . S
H1700 C1715 0.940 . S
H1701 C1717 0.939 . S
H1702 C1718 0.942 . S
H1703 C1720 0.940 . S
H1704 C1721 0.939 . S
H1705 C1723 0.931 1_455 S
H1706 C1727 0.939 . S
O1707 P1696 1.490 . S
H1708 C1724 0.939 . S
H1709 C1726 0.940 . S
C1710 P1696 1.812 1_455 S
C1710 C1711 1.389 . S
C1710 C1715 1.391 . S
C1711 H1697 0.941 . S
C1711 C1710 1.389 . S
C1711 C1712 1.397 . S
C1712 H1698 0.939 . S
C1712 C1711 1.397 . S
C1712 C1713 1.378 . S
C1713 C1712 1.378 . S
C1713 C1714 1.378 . S
C1714 H1699 0.940 . S
C1714 C1713 1.378 . S
C1714 C1715 1.396 . S
C1715 H1700 0.940 . S
C1715 C1710 1.391 . S
C1715 C1714 1.396 . S
C1716 P1696 1.803 . S
C1716 C1717 1.378 . S
C1716 C1721 1.400 . S
C1717 H1701 0.939 . S
C1717 C1716 1.378 . S
C1717 C1718 1.361 . S
C1718 H1702 0.942 . S
C1718 C1717 1.361 . S
C1718 C1719 1.369 . S
C1719 C1718 1.369 . S
C1719 C1720 1.404 . S
C1720 H1703 0.940 . S
C1720 C1719 1.404 . S
C1720 C1721 1.389 . S
C1721 H1704 0.939 . S
C1721 C1716 1.400 . S
C1721 C1720 1.389 . S
C1722 P1696 1.819 . S
C1722 C1723 1.406 . S
C1722 C1727 1.391 . S
C1723 H1705 0.931 1_655 S
C1723 C1722 1.406 . S
C1723 C1724 1.393 1_655 S
C1724 H1708 0.939 . S
C1724 C1723 1.393 1_455 S
C1724 C1725 1.397 1_455 S
C1725 C1724 1.397 1_655 S
C1725 C1726 1.385 . S
C1726 H1709 0.940 . S
C1726 C1725 1.385 . S
C1726 C1727 1.388 . S
C1727 H1706 0.939 . S
C1727 C1722 1.391 . S
C1727 C1726 1.388 . S
C1713 C15 2.962 . S
C1617 C55 2.765 . S
C1681 C95 2.006 . S
C1649 C135 4.380 . S
C1425 C175 2.962 . S
C215 C1457 4.380 . S
C1361 C255 2.765 . S
C295 C1393 2.006 . S
C1585 C335 2.962 . S
C375 C1521 4.380 . S
C415 C1489 2.764 . S
C1553 C455 2.006 . S
C1329 C495 2.728 . S
C535 C1233 2.421 . S
C1297 C575 2.173 . S
C615 C1265 3.926 . S
C1041 C655 2.728 . S
C1073 C695 3.926 . S
C735 C977 2.421 . S
C775 C1009 2.173 . S
C815 C1201 2.727 . S
C855 C1137 3.926 . S
C1105 C895 2.421 . S
C935 C1169 2.173 . S
C989 C21 2.334 . S
C1021 C61 4.006 . S
C101 C1053 0.977 1_565 S
C141 C1085 1.140 1_545 S
C1117 C181 2.334 . S
C221 C1149 1.140 1_554 S
C1181 C261 4.006 . S
C1213 C301 0.977 1_554 S
C1245 C341 2.335 . S
C381 C1277 1.140 1_455 S
C421 C1309 4.006 . S
C461 C1341 0.977 1_655 S
C501 C1373 2.121 . S
C541 C1405 3.765 . S
C581 C1437 1.174 1_545 S
C621 C1469 0.959 1_565 S
C661 C1501 2.121 . S
C1533 C701 0.960 1_554 S
C1565 C741 3.765 . S
C1597 C781 1.174 1_556 S
C1629 C821 2.121 . S
C861 C1661 0.960 1_655 S
C901 C1693 3.765 . S
C941 C1725 1.174 1_455 S
C2 C1239 2.277 . S
C1335 C42 1.838 . S
C82 C1271 1.250 . S
C1303 C122 5.336 . S
C162 C983 2.277 . S
C202 C1015 5.336 . S
C242 C1047 1.838 . S
C282 C1079 1.250 . S
C1111 C322 2.277 . S
C1175 C362 5.336 . S
C402 C1207 1.838 . S
C442 C1143 1.250 . S
C1623 C482 1.957 . S
C1719 C522 1.655 . S
C562 C1655 1.721 . S
C1687 C602 4.894 . S
C642 C1367 1.957 . S
C682 C1399 4.894 . S
C722 C1431 1.655 . S
C1463 C762 1.721 . S
C1495 C802 1.958 . S
C1559 C842 4.894 . S
C882 C1591 1.656 . S
C1527 C922 1.721 . S
