# Generated by pormake.
# Topology zzz, (3,6)-cn, num edge types: 1
# Building blocks:
#     Node 0, Type 0, BuildingBlock: QEWDON_clean_linker_0, # of connection points: 3
#     Node 1, Type 0, BuildingBlock: QEWDON_clean_linker_0, # of connection points: 3
#     Node 2, Type 0, BuildingBlock: QEWDON_clean_linker_0, # of connection points: 3
#     Node 3, Type 0, BuildingBlock: QEWDON_clean_linker_0, # of connection points: 3
#     Node 4, Type 0, BuildingBlock: QEWDON_clean_linker_0, # of connection points: 3
#     Node 5, Type 0, BuildingBlock: QEWDON_clean_linker_0, # of connection points: 3
#     Node 6, Type 0, BuildingBlock: QEWDON_clean_linker_0, # of connection points: 3
#     Node 7, Type 0, BuildingBlock: QEWDON_clean_linker_0, # of connection points: 3
#     Node 8, Type 1, BuildingBlock: GEDQOX_clean_sbu_0, # of connection points: 6
#     Node 9, Type 1, BuildingBlock: GEDQOX_clean_sbu_0, # of connection points: 6
#     Node 10, Type 1, BuildingBlock: GEDQOX_clean_sbu_0, # of connection points: 6
#     Node 11, Type 1, BuildingBlock: GEDQOX_clean_sbu_0, # of connection points: 6
#     Edge 12, Type (0, 1), BuildingBlock: MIFKUJ_clean_linker_0, # of connection points: 2
#     Edge 13, Type (0, 1), BuildingBlock: MIFKUJ_clean_linker_0, # of connection points: 2
#     Edge 14, Type (0, 1), BuildingBlock: MIFKUJ_clean_linker_0, # of connection points: 2
#     Edge 15, Type (0, 1), BuildingBlock: MIFKUJ_clean_linker_0, # of connection points: 2
#     Edge 16, Type (0, 1), BuildingBlock: MIFKUJ_clean_linker_0, # of connection points: 2
#     Edge 17, Type (0, 1), BuildingBlock: MIFKUJ_clean_linker_0, # of connection points: 2
#     Edge 18, Type (0, 1), BuildingBlock: MIFKUJ_clean_linker_0, # of connection points: 2
#     Edge 19, Type (0, 1), BuildingBlock: MIFKUJ_clean_linker_0, # of connection points: 2
#     Edge 20, Type (0, 1), BuildingBlock: MIFKUJ_clean_linker_0, # of connection points: 2
#     Edge 21, Type (0, 1), BuildingBlock: MIFKUJ_clean_linker_0, # of connection points: 2
#     Edge 22, Type (0, 1), BuildingBlock: MIFKUJ_clean_linker_0, # of connection points: 2
#     Edge 23, Type (0, 1), BuildingBlock: MIFKUJ_clean_linker_0, # of connection points: 2
#     Edge 24, Type (0, 1), BuildingBlock: MIFKUJ_clean_linker_0, # of connection points: 2
#     Edge 25, Type (0, 1), BuildingBlock: MIFKUJ_clean_linker_0, # of connection points: 2
#     Edge 26, Type (0, 1), BuildingBlock: MIFKUJ_clean_linker_0, # of connection points: 2
#     Edge 27, Type (0, 1), BuildingBlock: MIFKUJ_clean_linker_0, # of connection points: 2
#     Edge 28, Type (0, 1), BuildingBlock: MIFKUJ_clean_linker_0, # of connection points: 2
#     Edge 29, Type (0, 1), BuildingBlock: MIFKUJ_clean_linker_0, # of connection points: 2
#     Edge 30, Type (0, 1), BuildingBlock: MIFKUJ_clean_linker_0, # of connection points: 2
#     Edge 31, Type (0, 1), BuildingBlock: MIFKUJ_clean_linker_0, # of connection points: 2
#     Edge 32, Type (0, 1), BuildingBlock: MIFKUJ_clean_linker_0, # of connection points: 2
#     Edge 33, Type (0, 1), BuildingBlock: MIFKUJ_clean_linker_0, # of connection points: 2
#     Edge 34, Type (0, 1), BuildingBlock: MIFKUJ_clean_linker_0, # of connection points: 2
#     Edge 35, Type (0, 1), BuildingBlock: MIFKUJ_clean_linker_0, # of connection points: 2
# Relax obj value: 0.061
# Max RMSD: 0.143
# Mean RMSD: 0.048
data_MOF--net-zzz--node1-GEDQOX_clean_sbu_0--node2-QEWDON_clean_linker_0--edge1-MIFKUJ_clean_linker_0
_symmetry_space_group_name_H-M    P1
_symmetry_Int_Tables_number       1
_symmetry_cell_setting            triclinic
loop_
_symmetry_equiv_pos_as_xyz
'x, y, z'
_cell_length_a     74.515584
_cell_length_b     73.561148
_cell_length_c     20.728481
_cell_angle_alpha  81.720101
_cell_angle_beta   89.369278
_cell_angle_gamma 97.604734
loop_
_atom_site_label
_atom_site_type_symbol
_atom_site_fract_x
_atom_site_fract_y
_atom_site_fract_z
_atom_type_partial_charge
H0 H 0.78835 0.5383 0.02329 0.0
C1 C 0.79337 0.53701 0.07238 0.0
C2 C 0.80817 0.52726 0.08766 0.0
C3 C 0.78589 0.5461 0.11961 0.0
H4 H 0.8272 0.51981 0.16038 0.0
C5 C 0.81524 0.52651 0.15019 0.0
C6 C 0.80863 0.53617 0.19666 0.0
C7 C 0.79371 0.54563 0.18151 0.0
C8 C 0.7716 0.55818 0.10273 0.0
H9 H 0.78854 0.55318 0.21728 0.0
C10 C 0.75517 0.55177 0.07462 0.0
C11 C 0.74151 0.56344 0.06257 0.0
C12 C 0.77439 0.57644 0.11691 0.0
H13 H 0.78695 0.58182 0.13751 0.0
C14 C 0.76107 0.58796 0.10511 0.0
H15 H 0.75301 0.53776 0.06309 0.0
C16 C 0.74474 0.58152 0.07891 0.0
H17 H 0.73449 0.59072 0.07264 0.0
H18 H 0.76332 0.60191 0.11707 0.0
H19 H 0.02051 0.77921 0.11534 0.0
C20 C 0.02109 0.78435 0.16182 0.0
C21 C 0.02699 0.80329 0.16364 0.0
C22 C 0.01496 0.77235 0.21967 0.0
H23 H 0.03049 0.82489 0.22414 0.0
C24 C 0.02677 0.81015 0.22315 0.0
C25 C 0.02022 0.79887 0.28052 0.0
C26 C 0.01459 0.7799 0.27916 0.0
C27 C 0.00671 0.75266 0.21728 0.0
H28 H 0.00934 0.77123 0.32384 0.0
C29 C 0.01451 0.74059 0.18036 0.0
C30 C 0.00632 0.72194 0.18186 0.0
C31 C 0.9904 0.74588 0.25278 0.0
H32 H 0.98372 0.75475 0.27985 0.0
C33 C 0.98226 0.72771 0.25334 0.0
H34 H 0.02705 0.74545 0.15258 0.0
C35 C 0.99017 0.71582 0.21871 0.0
H36 H 0.98356 0.70171 0.22046 0.0
H37 H 0.96972 0.72277 0.281 0.0
H38 H 0.75258 0.99678 0.02232 0.0
C39 C 0.74848 0.99818 0.0715 0.0
C40 C 0.73322 1.00687 0.08174 0.0
C41 C 0.75756 0.99007 0.12521 0.0
H42 H 0.71506 0.01381 0.15274 0.0
C43 C 0.72739 1.00788 0.14533 0.0
C44 C 0.73584 0.99935 0.1992 0.0
C45 C 0.75098 0.9905 0.18898 0.0
C46 C 0.77242 0.97908 0.11525 0.0
H47 H 0.7573 0.9835 0.23057 0.0
C48 C 0.78805 0.98682 0.07672 0.0
C49 C 0.80214 0.97612 0.06901 0.0
C50 C 0.7709 0.96054 0.14525 0.0
H51 H 0.75897 0.95425 0.17466 0.0
C52 C 0.78465 0.94988 0.13726 0.0
H53 H 0.7893 1.00113 0.05352 0.0
C54 C 0.80016 0.95757 0.09971 0.0
H55 H 0.81082 0.94906 0.09594 0.0
H56 H 0.78336 0.93562 0.16075 0.0
H57 H 0.53472 0.7828 0.28861 0.0
C58 C 0.53252 0.77244 0.33168 0.0
C59 C 0.52865 0.75382 0.32345 0.0
C60 C 0.5342 0.77749 0.39474 0.0
H61 H 0.52362 0.72559 0.37065 0.0
C62 C 0.52641 0.74003 0.37776 0.0
C63 C 0.52808 0.7445 0.44085 0.0
C64 C 0.53198 0.76324 0.4494 0.0
C65 C 0.53877 0.79749 0.40286 0.0
H66 H 0.53297 0.76657 0.49854 0.0
C67 C 0.53334 0.8118 0.35701 0.0
C68 C 0.53827 0.83061 0.36344 0.0
C69 C 0.54911 0.80252 0.45559 0.0
H70 H 0.55406 0.79215 0.49081 0.0
C71 C 0.55368 0.82111 0.46283 0.0
H72 H 0.52506 0.80845 0.31666 0.0
C73 C 0.54833 0.83507 0.41722 0.0
H74 H 0.55244 0.8494 0.42325 0.0
H75 H 0.56167 0.82474 0.50355 0.0
H76 H 0.26021 0.53002 0.7055 0.0
C77 C 0.25344 0.52478 0.66456 0.0
C78 C 0.23498 0.51741 0.6707 0.0
C79 C 0.26285 0.52646 0.60418 0.0
H80 H 0.2118 0.50664 0.61973 0.0
C81 C 0.22624 0.5114 0.61638 0.0
C82 C 0.23528 0.51315 0.55586 0.0
C83 C 0.2536 0.52082 0.54983 0.0
C84 C 0.28153 0.53645 0.59491 0.0
H85 H 0.26059 0.5227 0.50269 0.0
C86 C 0.29633 0.52955 0.62757 0.0
C87 C 0.31408 0.53898 0.61443 0.0
C88 C 0.28454 0.55303 0.55101 0.0
H89 H 0.27336 0.55859 0.52573 0.0
C90 C 0.30193 0.56264 0.53952 0.0
H91 H 0.29412 0.51662 0.66082 0.0
C92 C 0.31659 0.55568 0.5707 0.0
H93 H 0.32998 0.56342 0.56055 0.0
H94 H 0.30409 0.57548 0.50588 0.0
H95 H 0.01631 0.27414 0.61364 0.0
C96 C 0.02079 0.26932 0.56998 0.0
C97 C 0.0257 0.25136 0.57454 0.0
C98 C 0.02062 0.28051 0.5086 0.0
H99 H 0.03359 0.23046 0.5217 0.0
C100 C 0.0306 0.24462 0.51806 0.0
C101 C 0.02978 0.25491 0.45646 0.0
C102 C 0.02494 0.27294 0.45171 0.0
C103 C 0.01381 0.29905 0.50311 0.0
H104 H 0.02433 0.28088 0.40374 0.0
C105 C 0.01785 0.31158 0.54915 0.0
C106 C 0.01027 0.32847 0.54358 0.0
C107 C 1.00232 0.30394 0.45191 0.0
H108 H 0.99846 0.29467 0.41684 0.0
C109 C 0.99513 0.32061 0.44592 0.0
H110 H 0.0266 0.30817 0.5892 0.0
C111 C 0.99901 0.33272 0.49117 0.0
H112 H 0.99319 0.34558 0.48502 0.0
H113 H 0.98632 0.3241 0.40615 0.0
H114 H 0.28484 0.02675 0.70697 0.0
C115 C 0.29203 0.03423 0.66334 0.0
C116 C 0.31057 0.04074 0.66571 0.0
C117 C 0.28313 0.03607 0.60365 0.0
H118 H 0.33449 0.05397 0.60956 0.0
C119 C 0.31999 0.04971 0.60851 0.0
C120 C 0.31155 0.05103 0.54844 0.0
C121 C 0.2931 0.04421 0.54612 0.0
C122 C 0.26414 0.02728 0.59992 0.0
H123 H 0.28664 0.04479 0.4994 0.0
C124 C 0.25014 0.03133 0.63977 0.0
C125 C 0.23234 0.02235 0.63642 0.0
C126 C 0.26007 0.01429 0.5569 0.0
H127 H 0.27061 0.01084 0.5262 0.0
C128 C 0.24247 1.00531 0.55406 0.0
H129 H 0.25306 0.04142 0.67283 0.0
C130 C 0.22868 0.00926 0.59368 0.0
H131 H 0.21505 1.00224 0.59044 0.0
H132 H 0.2395 0.99525 0.52103 0.0
H133 H 0.52638 0.26937 0.40152 0.0
C134 C 0.52395 0.27803 0.35653 0.0
C135 C 0.51782 0.29514 0.35976 0.0
C136 C 0.52777 0.27255 0.29578 0.0
H137 H 0.51159 0.32039 0.30323 0.0
C138 C 0.51545 0.30676 0.30167 0.0
C139 C 0.51965 0.30199 0.24116 0.0
C140 C 0.52566 0.28486 0.23794 0.0
C141 C 0.53507 0.25463 0.29334 0.0
H142 H 0.52874 0.28131 0.19052 0.0
C143 C 0.52998 0.23901 0.34141 0.0
C144 C 0.53743 0.2224 0.34026 0.0
C145 C 0.54773 0.25319 0.24397 0.0
H146 H 0.5525 0.26492 0.20738 0.0
C147 C 0.55487 0.23668 0.24201 0.0
H148 H 0.52007 0.23959 0.37939 0.0
C149 C 0.5498 0.2214 0.28968 0.0
H150 H 0.55593 0.20892 0.28784 0.0
H151 H 0.56463 0.23582 0.20388 0.0
Nd152 Nd 0.01623 0.02196 0.7932 0.0
Nd153 Nd 0.02586 0.03328 0.93452 0.0
C154 C 1.00411 1.00393 0.69681 0.0
C155 C 0.00626 0.98631 0.6723 0.0
C156 C 0.00871 0.97016 0.71473 0.0
C157 C 0.01083 0.9537 0.69019 0.0
C158 C 0.01036 0.95296 0.62263 0.0
C159 C 0.00795 0.96922 0.58046 0.0
C160 C 0.00598 0.98567 0.60501 0.0
C161 C 0.05184 0.03498 0.81115 0.0
C162 C 0.02529 0.98987 0.91605 0.0
C163 C 0.04307 0.05089 0.0232 0.0
C164 C 0.04125 0.06775 0.05387 0.0
C165 C 0.05577 0.0822 0.04909 0.0
C166 C 0.05438 0.09833 0.07661 0.0
C167 C 0.03841 0.10049 0.1102 0.0
C168 C 0.02385 0.08595 0.11488 0.0
C169 C 0.02523 0.06984 0.08702 0.0
C170 C 0.98876 0.02836 0.92088 0.0
C171 C 0.01388 0.06392 0.81395 0.0
O172 O 0.99526 1.00278 0.75256 0.0
O173 O 0.01827 0.0167 0.69049 0.0
O174 O 0.04357 0.0386 0.75685 0.0
O175 O 0.04145 0.02428 0.85295 0.0
O176 O 0.02041 0.9945 0.85534 0.0
O177 O 0.02871 1.00209 0.95721 0.0
O178 O 0.04812 0.05376 0.9613 0.0
O179 O 0.03071 0.03633 0.03823 0.0
O180 O 0.99646 0.03268 0.97346 0.0
O181 O 1.00076 0.0266 0.88 0.0
O182 O 0.02321 0.06053 0.86734 0.0
O183 O 0.00745 0.05088 0.77924 0.0
H184 H 0.00887 0.97022 0.76688 0.0
H185 H 0.01248 0.94145 0.72425 0.0
H186 H 0.00778 0.96932 0.52818 0.0
H187 H 1.0042 0.99794 0.57123 0.0
H188 H 0.06825 0.08107 0.02357 0.0
H189 H 0.0658 0.10924 0.07066 0.0
H190 H 0.0114 0.08687 0.1409 0.0
H191 H 0.01372 0.05903 0.09152 0.0
Nd192 Nd 0.52611 0.01374 0.80331 0.0
Nd193 Nd 0.51645 0.03799 0.9127 0.0
C194 C 0.53401 0.98987 0.72756 0.0
C195 C 0.55043 0.98878 0.68834 0.0
C196 C 0.55836 0.97237 0.69584 0.0
C197 C 0.57483 0.97166 0.66376 0.0
C198 C 0.58377 0.98739 0.6234 0.0
C199 C 0.5755 1.00368 0.6149 0.0
C200 C 0.55911 1.00441 0.64727 0.0
C201 C 0.53047 0.05155 0.76636 0.0
C202 C 0.5586 0.03322 0.883 0.0
C203 C 0.50608 0.06476 0.97048 0.0
C204 C 0.49086 0.06568 0.0152 0.0
C205 C 0.48411 0.08251 0.01678 0.0
C206 C 0.46889 0.0832 0.05612 0.0
C207 C 0.46019 0.06704 0.09466 0.0
C208 C 0.46718 0.05023 0.09321 0.0
C209 C 0.48227 0.04953 0.05357 0.0
C210 C 0.51687 1.00154 0.96851 0.0
C211 C 0.48323 0.01462 0.84464 0.0
O212 O 0.5358 0.98719 0.79091 0.0
O213 O 0.52467 1.00346 0.7079 0.0
O214 O 0.5409 0.04073 0.74532 0.0
O215 O 0.51787 0.04216 0.80266 0.0
O216 O 0.55301 0.01899 0.85282 0.0
O217 O 0.54761 0.04425 0.90249 0.0
O218 O 0.50157 0.06218 0.91132 0.0
O219 O 0.51847 0.05472 0.99374 0.0
O220 O 0.51318 0.01446 0.00116 0.0
O221 O 0.51987 0.00843 0.90964 0.0
O222 O 0.4881 0.02575 0.88782 0.0
O223 O 0.49485 1.00828 0.80739 0.0
H224 H 0.55203 0.96021 0.72786 0.0
H225 H 0.58081 0.95893 0.67238 0.0
H226 H 0.58169 0.01596 0.58322 0.0
H227 H 0.55342 0.01733 0.64088 0.0
H228 H 0.49049 0.09508 0.98703 0.0
H229 H 0.464 0.0964 0.05658 0.0
H230 H 0.46071 0.03747 0.12147 0.0
H231 H 0.48709 0.03632 0.05219 0.0
Nd232 Nd 0.51478 0.52934 0.91999 0.0
Nd233 Nd 0.53141 0.52002 0.80178 0.0
C234 C 0.49554 0.54432 0.00054 0.0
C235 C 0.4968 0.5637 0.01109 0.0
C236 C 0.48279 0.57 0.04357 0.0
C237 C 0.48398 0.58871 0.05112 0.0
C238 C 0.4992 0.6013 0.02612 0.0
C239 C 0.51307 0.59489 0.99293 0.0
C240 C 0.51189 0.57625 0.98557 0.0
C241 C 0.55173 0.53014 0.92761 0.0
C242 C 0.52797 0.56267 0.79701 0.0
C243 C 0.5493 0.50516 0.71656 0.0
C244 C 0.54791 0.48601 0.70327 0.0
C245 C 0.55975 0.48103 0.65807 0.0
C246 C 0.55833 0.46266 0.64625 0.0
C247 C 0.54511 0.44902 0.67993 0.0
C248 C 0.53343 0.45413 0.72584 0.0
C249 C 0.53474 0.47249 0.73698 0.0
C250 C 0.49452 0.51972 0.79547 0.0
C251 C 0.51928 0.4869 0.92615 0.0
O252 O 0.49005 0.54121 0.94299 0.0
O253 O 0.5095 0.53601 0.01871 0.0
O254 O 0.54041 0.52445 0.97649 0.0
O255 O 0.54369 0.53639 0.87752 0.0
O256 O 0.5166 0.55656 0.84708 0.0
O257 O 0.53812 0.55146 0.77449 0.0
O258 O 0.5554 0.50775 0.77378 0.0
O259 O 0.53519 0.51353 0.70174 0.0
O260 O 0.50587 0.52643 0.74755 0.0
O261 O 0.5026 0.51285 0.84452 0.0
O262 O 0.53037 0.49312 0.87539 0.0
O263 O 0.509 0.4979 0.94916 0.0
H264 H 0.47099 0.56047 0.06301 0.0
H265 H 0.47317 0.59328 0.07738 0.0
H266 H 0.52481 0.60431 0.97228 0.0
H267 H 0.52275 0.57163 0.95968 0.0
H268 H 0.56997 0.49135 0.63166 0.0
H269 H 0.56734 0.45924 0.60985 0.0
H270 H 0.52329 0.44396 0.75329 0.0
H271 H 0.52543 0.47614 0.77193 0.0
Nd272 Nd 0.01976 0.53962 0.80271 0.0
Nd273 Nd 0.02606 0.51287 0.94132 0.0
C274 C 0.00826 0.56533 0.71733 0.0
C275 C 0.99246 0.56409 0.67526 0.0
C276 C 0.98534 0.58008 0.64794 0.0
C277 C 0.96947 0.57861 0.61217 0.0
C278 C 0.96052 0.56111 0.60308 0.0
C279 C 0.96778 0.54514 0.6305 0.0
C280 C 0.98352 0.54662 0.66641 0.0
C281 C 0.01842 0.50243 0.78568 0.0
C282 C 0.98491 0.51714 0.89764 0.0
C283 C 0.03765 0.48681 0.02465 0.0
C284 C 0.05356 0.48772 0.06606 0.0
C285 C 0.06065 0.47156 0.09141 0.0
C286 C 0.07665 0.47269 0.1263 0.0
C287 C 0.08589 0.49003 0.13618 0.0
C288 C 0.07857 0.50617 0.11082 0.0
C289 C 0.06264 0.50502 0.07589 0.0
C290 C 0.0268 0.54996 0.95828 0.0
C291 C 0.06106 0.53685 0.85124 0.0
O292 O 1.00426 0.56331 0.77987 0.0
O293 O 0.02135 0.55602 0.70378 0.0
O294 O 0.0166 0.51581 0.73911 0.0
O295 O 0.02072 0.50944 0.83757 0.0
O296 O 0.99152 0.53083 0.85138 0.0
O297 O 0.99519 0.50652 0.9338 0.0
O298 O 0.04152 0.48913 0.96194 0.0
O299 O 0.02468 0.49612 0.03954 0.0
O300 O 0.02816 0.53657 0.00551 0.0
O301 O 0.02499 0.54291 0.90636 0.0
O302 O 0.05466 0.52364 0.8993 0.0
O303 O 0.05071 0.546 0.81001 0.0
H304 H 0.99191 0.59366 0.65498 0.0
H305 H 0.96423 0.59115 0.59147 0.0
H306 H 0.96103 0.53146 0.62554 0.0
H307 H 0.98856 0.53408 0.68831 0.0
H308 H 0.054 0.45811 0.08322 0.0
H309 H 0.08203 0.45999 0.14403 0.0
H310 H 0.08508 0.51974 0.11814 0.0
H311 H 0.05752 0.51769 0.05582 0.0
H312 H 0.2154 0.05309 0.61647 0.0
H313 H 0.18661 0.05739 0.66641 0.0
H314 H 0.18616 1.00533 0.79343 0.0
H315 H 0.21453 1.00072 0.74093 0.0
H316 H 0.15553 1.00528 0.74355 0.0
H317 H 0.19146 0.04986 0.8489 0.0
H318 H 0.21427 0.07669 0.85947 0.0
H319 H 0.18362 0.11244 0.73632 0.0
H320 H 0.16074 0.08578 0.72422 0.0
H321 H 0.07295 0.01623 0.89747 0.0
H322 H 0.10585 0.01645 0.88842 0.0
H323 H 0.10867 0.05904 0.72091 0.0
H324 H 0.07582 0.05873 0.72924 0.0
H325 H 0.13861 0.06341 0.80691 0.0
H326 H 0.105 0.01673 0.6938 0.0
H327 H 0.08191 0.98965 0.68933 0.0
H328 H 0.10905 0.95737 0.83726 0.0
H329 H 0.13215 0.98438 0.84329 0.0
C330 C 0.20933 0.04286 0.65625 0.0
C331 C 0.21717 0.02669 0.67551 0.0
C332 C 0.1929 0.04531 0.68501 0.0
C333 C 0.18416 0.03178 0.73441 0.0
C334 C 0.19253 0.01599 0.7555 0.0
C335 C 0.20879 0.0134 0.72595 0.0
C336 C 0.16556 0.03316 0.75923 0.0
C337 C 0.15204 0.0179 0.75884 0.0
C338 C 0.16069 0.04967 0.77828 0.0
C339 C 0.17445 0.06577 0.78524 0.0
C340 C 0.18965 0.06341 0.82363 0.0
C341 C 0.20258 0.0786 0.82998 0.0
C342 C 0.20042 0.09625 0.79847 0.0
C343 C 0.18529 0.09876 0.76066 0.0
C344 C 0.17232 0.08361 0.75411 0.0
C345 C 0.08065 0.02593 0.85965 0.0
C346 C 0.07183 0.03735 0.81363 0.0
C347 C 0.09942 0.02602 0.85446 0.0
C348 C 0.10967 0.03765 0.80362 0.0
C349 C 0.10103 0.04998 0.7605 0.0
C350 C 0.08226 0.04973 0.76517 0.0
C351 C 0.12891 0.03563 0.79071 0.0
C352 C 0.14239 0.05076 0.79285 0.0
C353 C 0.13384 0.01894 0.77408 0.0
C354 C 0.12017 1.00262 0.76952 0.0
C355 C 0.10597 1.00389 0.72568 0.0
C356 C 0.09289 0.98856 0.72283 0.0
C357 C 0.09398 0.97182 0.76314 0.0
C358 C 0.1082 0.97036 0.80617 0.0
C359 C 0.12129 0.98567 0.80931 0.0
H360 H 0.08383 0.95997 0.76092 0.0
H361 H 0.21044 0.10799 0.80347 0.0
H362 H 0.52916 0.18584 0.32664 0.0
H363 H 0.52506 0.15905 0.41264 0.0
H364 H 0.53164 0.1955 0.55859 0.0
H365 H 0.536 0.22244 0.4724 0.0
H366 H 0.55255 0.16822 0.58227 0.0
H367 H 0.49068 0.17192 0.5399 0.0
H368 H 0.46345 0.1745 0.47455 0.0
H369 H 0.46887 0.12296 0.40685 0.0
H370 H 0.49631 0.12019 0.47101 0.0
H371 H 0.50447 0.07394 0.77934 0.0
H372 H 0.50344 0.10535 0.72204 0.0
H373 H 0.55499 0.10424 0.62691 0.0
H374 H 0.55621 0.07307 0.68487 0.0
H375 H 0.50193 0.11659 0.59509 0.0
H376 H 0.57812 0.14718 0.5945 0.0
H377 H 0.60405 0.14534 0.66699 0.0
H378 H 0.56763 0.13023 0.83373 0.0
H379 H 0.54149 0.13225 0.7624 0.0
C380 C 0.5296 0.18816 0.37706 0.0
C381 C 0.53295 0.20626 0.3927 0.0
C382 C 0.52713 0.17283 0.42622 0.0
C383 C 0.52795 0.17523 0.49218 0.0
C384 C 0.53092 0.1933 0.50806 0.0
C385 C 0.53327 0.20869 0.4588 0.0
C386 C 0.52679 0.15879 0.54389 0.0
C387 C 0.54142 0.15698 0.58536 0.0
C388 C 0.51209 0.14428 0.54904 0.0
C389 C 0.49565 0.14592 0.50995 0.0
C390 C 0.48616 0.16121 0.51063 0.0
C391 C 0.47067 0.16269 0.47388 0.0
C392 C 0.46445 0.14892 0.43648 0.0
C393 C 0.47371 0.13362 0.43581 0.0
C394 C 0.48923 0.13208 0.47243 0.0
C395 C 0.51573 0.08056 0.74717 0.0
C396 C 0.53046 0.07109 0.73677 0.0
C397 C 0.51507 0.09845 0.7141 0.0
C398 C 0.52919 0.10725 0.67043 0.0
C399 C 0.54406 0.0979 0.66108 0.0
C400 C 0.54472 0.08004 0.69403 0.0
C401 C 0.52801 0.12574 0.63174 0.0
C402 C 0.51295 0.12792 0.59258 0.0
C403 C 0.54217 0.14071 0.62953 0.0
C404 C 0.55784 0.13973 0.67295 0.0
C405 C 0.57564 0.14357 0.64665 0.0
C406 C 0.59038 0.14247 0.68755 0.0
C407 C 0.58749 0.13763 0.7549 0.0
C408 C 0.56985 0.13392 0.78153 0.0
C409 C 0.55507 0.13502 0.74087 0.0
H410 H 0.59891 0.13677 0.78646 0.0
H411 H 0.45244 0.15009 0.40811 0.0
H412 H 0.31943 0.52547 0.743 0.0
H413 H 0.34776 0.51679 0.79071 0.0
H414 H 0.37362 0.5276 0.59925 0.0
H415 H 0.3455 0.53581 0.55177 0.0
H416 H 0.38409 0.49759 0.66617 0.0
H417 H 0.37775 0.55992 0.70739 0.0
H418 H 0.36247 0.58313 0.7535 0.0
H419 H 0.36555 0.55327 0.94609 0.0
H420 H 0.38065 0.52974 0.90093 0.0
H421 H 0.4763 0.52804 0.6851 0.0
H422 H 0.44366 0.52599 0.67195 0.0
H423 H 0.43475 0.50664 0.87768 0.0
H424 H 0.46776 0.50847 0.89118 0.0
H425 H 0.41352 0.53522 0.82588 0.0
H426 H 0.42535 0.47606 0.78323 0.0
H427 H 0.44168 0.45407 0.73457 0.0
H428 H 0.42883 0.47856 0.54284 0.0
H429 H 0.41266 0.50091 0.59028 0.0
C430 C 0.3311 0.52566 0.71117 0.0
C431 C 0.3303 0.53154 0.64372 0.0
C432 C 0.34732 0.52084 0.73847 0.0
C433 C 0.36297 0.52179 0.69873 0.0
C434 C 0.36183 0.52679 0.63111 0.0
C435 C 0.34574 0.53162 0.60401 0.0
C436 C 0.38086 0.51852 0.72651 0.0
C437 C 0.39049 0.50582 0.70116 0.0
C438 C 0.38912 0.52883 0.77365 0.0
C439 C 0.3801 0.54296 0.80074 0.0
C440 C 0.37503 0.55824 0.75951 0.0
C441 C 0.36643 0.57146 0.78547 0.0
C442 C 0.36298 0.56964 0.85266 0.0
C443 C 0.36819 0.55463 0.89404 0.0
C444 C 0.37677 0.54135 0.8683 0.0
C445 C 0.46744 0.52328 0.72766 0.0
C446 C 0.4746 0.51831 0.78914 0.0
C447 C 0.44876 0.52208 0.72001 0.0
C448 C 0.43673 0.516 0.77366 0.0
C449 C 0.44379 0.5113 0.83556 0.0
C450 C 0.46261 0.51229 0.84317 0.0
C451 C 0.41686 0.51478 0.76375 0.0
C452 C 0.40692 0.52665 0.79225 0.0
C453 C 0.40832 0.50377 0.71924 0.0
C454 C 0.41786 0.49023 0.69037 0.0
C455 C 0.4261 0.47684 0.73067 0.0
C456 C 0.43532 0.4643 0.7033 0.0
C457 C 0.43631 0.46493 0.63566 0.0
C458 C 0.42805 0.47809 0.59524 0.0
C459 C 0.41883 0.49068 0.62236 0.0
H460 H 0.44346 0.45522 0.61456 0.0
H461 H 0.35633 0.57989 0.87267 0.0
H462 H 0.98499 0.34236 0.61093 0.0
H463 H 0.98925 0.36946 0.66758 0.0
H464 H 0.04709 0.37336 0.63814 0.0
H465 H 0.04276 0.3462 0.58022 0.0
H466 H 1.00506 0.38104 0.77057 0.0
H467 H 0.0645 0.4198 0.60422 0.0
H468 H 0.07797 0.41998 0.49473 0.0
H469 H 0.02623 0.39816 0.42842 0.0
H470 H 0.01243 0.39811 0.53715 0.0
H471 H 0.02732 0.472 0.87003 0.0
H472 H 0.02895 0.44056 0.84435 0.0
H473 H 0.01087 0.45718 0.6504 0.0
H474 H 0.00991 0.48834 0.67507 0.0
H475 H 0.03642 0.43821 0.63864 0.0
H476 H 0.98304 0.42899 0.78114 0.0
H477 H 0.96633 0.42967 0.88402 0.0
H478 H 1.00059 0.39362 0.98773 0.0
H479 H 0.01763 0.39291 0.88552 0.0
C480 C 0.99867 0.34873 0.6178 0.0
C481 C 0.01353 0.34211 0.59081 0.0
C482 C 1.0011 0.36427 0.65039 0.0
C483 C 0.01848 0.37381 0.65658 0.0
C484 C 0.03349 0.3665 0.63343 0.0
C485 C 0.03104 0.35082 0.60085 0.0
C486 C 0.02047 0.39215 0.68187 0.0
C487 C 0.01211 0.3935 0.74197 0.0
C488 C 0.0294 0.40863 0.64468 0.0
C489 C 0.03752 0.40871 0.57903 0.0
C490 C 0.05601 0.41507 0.5662 0.0
C491 C 0.0637 0.41516 0.50428 0.0
C492 C 0.05298 0.40901 0.45473 0.0
C493 C 0.03454 0.40285 0.4669 0.0
C494 C 0.02678 0.40277 0.52867 0.0
C495 C 0.02371 0.46889 0.82209 0.0
C496 C 0.01859 0.48279 0.77465 0.0
C497 C 0.02456 0.45085 0.80734 0.0
C498 C 0.02002 0.44625 0.74511 0.0
C499 C 0.01466 0.46017 0.69847 0.0
C500 C 0.014 0.47808 0.7129 0.0
C501 C 0.0208 0.42722 0.72707 0.0
C502 C 0.02969 0.42573 0.6681 0.0
C503 C 0.012 0.41072 0.76463 0.0
C504 C 1.00172 0.41107 0.8259 0.0
C505 C 0.98707 0.42131 0.82599 0.0
C506 C 0.97754 0.42169 0.88414 0.0
C507 C 0.98243 0.41174 0.9424 0.0
C508 C 0.99683 0.40134 0.94259 0.0
C509 C 0.00643 0.40094 0.88457 0.0
H510 H 0.97503 0.41205 0.98738 0.0
H511 H 0.05896 0.40908 0.40686 0.0
H512 H 0.82213 0.01022 0.0706 0.0
H513 H 0.85249 0.02122 0.02258 0.0
H514 H 0.85164 0.97099 0.93736 0.0
H515 H 0.82127 0.96002 0.98449 0.0
H516 H 0.88158 0.97722 0.00612 0.0
H517 H 0.85066 0.01243 0.8417 0.0
H518 H 0.82962 0.03401 0.79794 0.0
H519 H 0.85993 0.07764 0.88435 0.0
H520 H 0.88101 0.05624 0.92949 0.0
H521 H 0.96829 1.00525 0.84896 0.0
H522 H 0.93498 0.99863 0.85135 0.0
H523 H 0.93168 0.04015 0.97656 0.0
H524 H 0.96477 0.04632 0.97601 0.0
H525 H 0.90361 0.03808 0.87425 0.0
H526 H 0.92939 1.00224 0.05602 0.0
H527 H 0.95162 0.98223 0.10145 0.0
H528 H 0.93111 0.94106 0.98375 0.0
H529 H 0.90887 0.96099 0.93709 0.0
C530 C 0.82821 1.00173 0.04023 0.0
C531 C 0.81932 0.98415 0.03196 0.0
C532 C 0.8456 1.00802 0.01287 0.0
C533 C 0.8544 0.99691 0.97639 0.0
C534 C 0.8452 0.97975 0.96563 0.0
C535 C 0.82784 0.97349 0.99279 0.0
C536 C 0.8737 1.0024 0.95433 0.0
C537 C 0.88625 0.99036 0.976 0.0
C538 C 0.87999 0.01975 0.91647 0.0
C539 C 0.86733 0.03267 0.88948 0.0
C540 C 0.85275 0.02658 0.85187 0.0
C541 C 0.84083 0.03879 0.82671 0.0
C542 C 0.84341 0.05717 0.83848 0.0
C543 C 0.85794 0.06339 0.87533 0.0
C544 C 0.86989 0.05123 0.90066 0.0
C545 C 0.96039 0.01321 0.87568 0.0
C546 C 0.969 0.02618 0.91264 0.0
C547 C 0.94142 0.00946 0.87699 0.0
C548 C 0.93089 0.01897 0.91402 0.0
C549 C 0.93953 0.03279 0.9473 0.0
C550 C 0.95841 0.03619 0.94732 0.0
C551 C 0.91119 0.01285 0.92582 0.0
C552 C 0.8987 0.0248 0.90301 0.0
C553 C 0.90487 0.9955 0.96304 0.0
C554 C 0.91763 0.98313 0.9927 0.0
C555 C 0.92968 0.98894 0.03972 0.0
C556 C 0.94227 0.97763 0.06568 0.0
C557 C 0.94283 0.96042 0.04536 0.0
C558 C 0.93069 0.95441 0.9994 0.0
C559 C 0.91806 0.96569 0.97322 0.0
H560 H 0.95268 0.95179 0.06537 0.0
H561 H 0.83417 0.06661 0.81893 0.0
H562 H 0.52381 0.86163 0.38369 0.0
H563 H 0.51823 0.88771 0.30254 0.0
H564 H 0.53655 0.86011 0.14911 0.0
H565 H 0.54219 0.83388 0.23048 0.0
H566 H 0.55231 0.89704 0.13939 0.0
H567 H 0.49309 0.86321 0.16049 0.0
H568 H 0.4655 0.84582 0.21754 0.0
H569 H 0.45629 0.89376 0.30272 0.0
H570 H 0.48398 0.91138 0.24693 0.0
H571 H 0.52759 0.97293 0.91164 0.0
H572 H 0.52949 0.94114 0.96486 0.0
H573 H 0.5097 0.95488 0.14572 0.0
H574 H 0.50769 0.98633 0.0929 0.0
H575 H 0.4934 0.92165 0.12438 0.0
H576 H 0.55478 0.95367 0.11628 0.0
H577 H 0.58272 0.97111 0.06157 0.0
H578 H 0.58786 0.92654 0.95268 0.0
H579 H 0.5598 0.90894 0.00616 0.0
C580 C 0.52654 0.86106 0.33264 0.0
C581 C 0.53344 0.8457 0.31348 0.0
C582 C 0.52326 0.87593 0.28625 0.0
C583 C 0.52689 0.87584 0.21965 0.0
C584 C 0.53362 0.86046 0.20019 0.0
C585 C 0.53671 0.84544 0.24664 0.0
C586 C 0.52425 0.89223 0.17128 0.0
C587 C 0.53933 0.90221 0.13496 0.0
C588 C 0.50739 0.89911 0.16607 0.0
C589 C 0.49071 0.88858 0.19985 0.0
C590 C 0.48527 0.87001 0.19181 0.0
C591 C 0.46959 0.86011 0.22384 0.0
C592 C 0.45917 0.86867 0.26382 0.0
C593 C 0.46438 0.88715 0.27176 0.0
C594 C 0.48006 0.8971 0.23986 0.0
C595 C 0.52357 0.96907 0.96254 0.0
C596 C 0.51754 0.98211 0.9981 0.0
C597 C 0.52471 0.95095 0.99302 0.0
C598 C 0.51983 0.94563 0.05951 0.0
C599 C 0.51349 0.9586 0.09443 0.0
C600 C 0.51242 0.97662 0.06417 0.0
C601 C 0.52158 0.92677 0.09405 0.0
C602 C 0.5063 0.9163 0.12781 0.0
C603 C 0.53827 0.91949 0.09697 0.0
C604 C 0.55508 0.93009 0.06464 0.0
C605 C 0.56178 0.94767 0.08024 0.0
C606 C 0.57765 0.95756 0.04955 0.0
C607 C 0.58704 0.94995 0.00362 0.0
C608 C 0.58056 0.93243 0.98823 0.0
C609 C 0.56468 0.92248 0.01871 0.0
H610 H 0.59937 0.95758 0.9802 0.0
H611 H 0.44703 0.86099 0.28857 0.0
H612 H 0.72109 0.58362 0.97767 0.0
H613 H 0.6898 0.57555 0.95024 0.0
H614 H 0.69005 0.5201 0.05204 0.0
H615 H 0.72105 0.52874 0.08533 0.0
H616 H 0.67081 0.55544 0.88682 0.0
H617 H 0.64862 0.50149 0.11464 0.0
H618 H 0.65713 0.49384 0.22915 0.0
H619 H 0.68001 0.5505 0.23066 0.0
H620 H 0.67145 0.55852 0.1165 0.0
H621 H 0.57803 0.52479 0.84206 0.0
H622 H 0.61058 0.52677 0.85875 0.0
H623 H 0.60288 0.54553 0.04408 0.0
H624 H 0.57017 0.54138 0.03022 0.0
H625 H 0.6263 0.52608 0.06292 0.0
H626 H 0.62104 0.5747 0.88513 0.0
H627 H 0.61188 0.58832 0.77669 0.0
H628 H 0.64294 0.55327 0.68577 0.0
H629 H 0.65212 0.5393 0.79375 0.0
C630 C 0.7145 0.56973 0.9951 0.0
C631 C 0.72356 0.55705 0.03568 0.0
C632 C 0.69656 0.56502 0.97841 0.0
C633 C 0.68718 0.54732 0.00032 0.0
C634 C 0.69667 0.53407 0.03616 0.0
C635 C 0.71457 0.53894 0.05436 0.0
C636 C 0.66736 0.54332 0.98796 0.0
C637 C 0.6611 0.549 0.92546 0.0
C638 C 0.65446 0.5352 0.03817 0.0
C639 C 0.65961 0.53052 0.10683 0.0
C640 C 0.65545 0.5123 0.13949 0.0
C641 C 0.66027 0.50791 0.20431 0.0
C642 C 0.66917 0.52166 0.23707 0.0
C643 C 0.67319 0.53985 0.20516 0.0
C644 C 0.66836 0.54432 0.1404 0.0
C645 C 0.58333 0.52925 0.88632 0.0
C646 C 0.5716 0.53289 0.9348 0.0
C647 C 0.60204 0.53061 0.89571 0.0
C648 C 0.60955 0.53671 0.95224 0.0
C649 C 0.59768 0.54066 0.00015 0.0
C650 C 0.57894 0.53845 0.99204 0.0
C651 C 0.62961 0.53885 0.9623 0.0
C652 C 0.63595 0.53257 0.02418 0.0
C653 C 0.64251 0.54738 0.91245 0.0
C654 C 0.6371 0.55583 0.8475 0.0
C655 C 0.62583 0.56984 0.842 0.0
C656 C 0.62065 0.57763 0.78064 0.0
C657 C 0.62678 0.57163 0.72439 0.0
C658 C 0.63817 0.55788 0.72938 0.0
C659 C 0.64338 0.55003 0.79063 0.0
H660 H 0.62275 0.57767 0.67693 0.0
H661 H 0.6729 0.51822 0.28722 0.0
H662 H 0.01754 0.68986 0.23727 0.0
H663 H 0.02406 0.66381 0.18419 0.0
H664 H 0.01799 0.69561 0.99593 0.0
H665 H 0.01124 0.72186 0.04977 0.0
H666 H 0.99937 0.66125 0.00261 0.0
H667 H 0.05993 0.68454 0.04563 0.0
H668 H 0.08528 0.69647 0.11011 0.0
H669 H 0.07843 0.64524 0.24208 0.0
H670 H 0.05287 0.63309 0.17895 0.0
H671 H 0.02371 0.58121 0.86752 0.0
H672 H 0.02317 0.61322 0.88975 0.0
H673 H 0.02848 0.5948 0.09492 0.0
H674 H 0.02911 0.56329 0.07304 0.0
H675 H 0.05049 0.62577 0.06027 0.0
H676 H 0.98738 0.60452 0.02495 0.0
H677 H 0.96206 0.59251 0.9604 0.0
H678 H 0.97418 0.64004 0.81261 0.0
H679 H 0.99974 0.6522 0.87596 0.0
C680 C 0.01809 0.6915 0.18446 0.0
C681 C 0.01417 0.70806 0.14776 0.0
C682 C 0.02179 0.67654 0.15398 0.0
C683 C 0.02169 0.67761 0.08567 0.0
C684 C 0.01823 0.69435 0.04861 0.0
C685 C 0.01461 0.70946 0.07931 0.0
C686 C 0.02426 0.66084 0.05437 0.0
C687 C 0.01078 0.65373 0.01415 0.0
C688 C 0.03898 0.65073 0.06959 0.0
C689 C 0.05439 0.65795 0.10771 0.0
C690 C 0.06374 0.67586 0.08866 0.0
C691 C 0.07817 0.68266 0.12494 0.0
C692 C 0.08344 0.67163 0.18021 0.0
C693 C 0.07433 0.65377 0.19926 0.0
C694 C 0.05988 0.64691 0.16318 0.0
C695 C 0.02466 0.58404 0.91725 0.0
C696 C 0.02633 0.56961 0.96846 0.0
C697 C 0.02435 0.60235 0.93006 0.0
C698 C 0.0257 0.60659 0.99433 0.0
C699 C 0.02749 0.59211 0.04496 0.0
C700 C 0.02777 0.57398 0.03228 0.0
C701 C 0.02532 0.62586 0.01037 0.0
C702 C 0.03924 0.63345 0.04782 0.0
C703 C 0.01103 0.63638 0.99253 0.0
C704 C 0.99559 0.62915 0.95478 0.0
C705 C 0.98472 0.61233 0.97846 0.0
C706 C 0.97032 0.60551 0.94213 0.0
C707 C 0.96655 0.61547 0.88234 0.0
C708 C 0.97714 0.63231 0.85886 0.0
C709 C 0.99158 0.63918 0.89496 0.0
H710 H 0.9554 0.61017 0.85427 0.0
H711 H 0.09461 0.67691 0.20824 0.0
H712 H 0.99364 0.23653 0.63481 0.0
H713 H 0.98773 0.20538 0.69759 0.0
H714 H 0.04521 0.20302 0.70581 0.0
H715 H 0.05106 0.2341 0.64307 0.0
H716 H 0.99749 0.17746 0.63974 0.0
H717 H 0.05352 0.16952 0.83084 0.0
H718 H 0.0689 0.18685 0.91249 0.0
H719 H 0.02324 0.21632 0.92476 0.0
H720 H 0.00747 0.19899 0.84392 0.0
H721 H 0.01908 0.08484 0.69335 0.0
H722 H 0.01809 0.11829 0.66697 0.0
H723 H 0.99986 0.11956 0.86465 0.0
H724 H 1.00211 0.08654 0.8917 0.0
H725 H 0.0242 0.1462 0.83635 0.0
H726 H 0.97206 0.1241 0.71799 0.0
H727 H 0.95573 0.1069 0.63775 0.0
H728 H 0.99107 0.1379 0.48384 0.0
H729 H 0.00776 0.15504 0.56316 0.0
C730 C 1.005 0.22978 0.65343 0.0
C731 C 0.0228 0.23771 0.63462 0.0
C732 C 1.00161 0.21188 0.68844 0.0
C733 C 0.01601 0.20178 0.70579 0.0
C734 C 0.03388 0.21056 0.69347 0.0
C735 C 0.03724 0.2284 0.65808 0.0
C736 C 0.01251 0.18138 0.72599 0.0
C737 C 1.00313 0.17059 0.68322 0.0
C738 C 0.01994 0.17244 0.78241 0.0
C739 C 0.02938 0.18304 0.83081 0.0
C740 C 0.04673 0.17966 0.85107 0.0
C741 C 0.05552 0.18949 0.89723 0.0
C742 C 0.04707 0.20271 0.92367 0.0
C743 C 0.0298 0.20613 0.90405 0.0
C744 C 0.02095 0.19633 0.85794 0.0
C745 C 0.01458 0.09229 0.73058 0.0
C746 C 0.01062 0.08322 0.79438 0.0
C747 C 0.01394 0.1114 0.71556 0.0
C748 C 0.0087 0.12157 0.7636 0.0
C749 C 1.00404 0.11218 0.82669 0.0
C750 C 0.00521 0.09328 0.84208 0.0
C751 C 0.00918 0.14212 0.74998 0.0
C752 C 0.01822 0.15297 0.7935 0.0
C753 C 1.00132 0.15113 0.69434 0.0
C754 C 0.99124 0.14076 0.64668 0.0
C755 C 0.97641 0.12715 0.6671 0.0
C756 C 0.96709 0.11742 0.62174 0.0
C757 C 0.97238 0.12126 0.55574 0.0
C758 C 0.98699 0.13488 0.53493 0.0
C759 C 0.99638 0.14463 0.58008 0.0
H760 H 0.96514 0.11372 0.52069 0.0
H761 H 0.05389 0.21029 0.95946 0.0
H762 H 0.33409 0.06263 0.73115 0.0
H763 H 0.36022 0.05245 0.78933 0.0
H764 H 0.33869 0.99547 0.78141 0.0
H765 H 0.3125 1.00561 0.7236 0.0
H766 H 0.37137 0.02708 0.89404 0.0
H767 H 0.37442 0.9788 0.6989 0.0
H768 H 0.36091 0.97387 0.59353 0.0
H769 H 0.35285 0.03111 0.55577 0.0
H770 H 0.36651 0.03641 0.66024 0.0
H771 H 0.45721 0.99637 0.93207 0.0
H772 H 0.42434 0.99442 0.92032 0.0
H773 H 0.43285 0.02453 0.72511 0.0
H774 H 0.46556 0.02491 0.73523 0.0
H775 H 0.40453 1.00235 0.72415 0.0
H776 H 0.42373 0.04674 0.87762 0.0
H777 H 0.4383 0.05434 0.97875 0.0
H778 H 0.40392 0.00908 0.09086 0.0
H779 H 0.38886 1.00154 0.99069 0.0
C780 C 0.33447 0.04791 0.74505 0.0
C781 C 0.32142 0.0349 0.72245 0.0
C782 C 0.3494 0.04209 0.77825 0.0
C783 C 0.35154 0.02323 0.7883 0.0
C784 C 0.33731 0.0101 0.77363 0.0
C785 C 0.32229 0.01591 0.74096 0.0
C786 C 0.36988 0.01795 0.79995 0.0
C787 C 0.37857 0.02146 0.85733 0.0
C788 C 0.37937 0.01092 0.75143 0.0
C789 C 0.3713 1.00794 0.68789 0.0
C790 C 0.3698 0.99034 0.66802 0.0
C791 C 0.36211 0.98748 0.60842 0.0
C792 C 0.35595 1.00215 0.5681 0.0
C793 C 0.35754 0.01973 0.58714 0.0
C794 C 0.36526 0.02266 0.64655 0.0
C795 C 0.45191 1.00206 0.88615 0.0
C796 C 0.46374 0.01064 0.83429 0.0
C797 C 0.43316 1.00125 0.87975 0.0
C798 C 0.42599 0.00989 0.82259 0.0
C799 C 0.43791 0.01777 0.76982 0.0
C800 C 0.45661 0.01798 0.77544 0.0
C801 C 0.40629 0.01166 0.81817 0.0
C802 C 0.39729 1.00758 0.76172 0.0
C803 C 0.39666 0.01855 0.86682 0.0
C804 C 0.40526 0.02356 0.92691 0.0
C805 C 0.41924 0.03851 0.92398 0.0
C806 C 0.42753 0.04283 0.98109 0.0
C807 C 0.42197 0.03221 0.04115 0.0
C808 C 0.40812 0.01732 0.0443 0.0
C809 C 0.39961 0.01312 0.98754 0.0
H810 H 0.42835 0.03542 0.08537 0.0
H811 H 0.34999 0.99991 0.52203 0.0
H812 H 0.4922 0.31506 0.39884 0.0
H813 H 0.49757 0.3378 0.47393 0.0
H814 H 0.54544 0.31464 0.54015 0.0
H815 H 0.54111 0.29286 0.46129 0.0
H816 H 0.52023 0.33033 0.63702 0.0
H817 H 0.55616 0.33951 0.43665 0.0
H818 H 0.56636 0.33963 0.31219 0.0
H819 H 0.52791 0.40109 0.28196 0.0
H820 H 0.52226 0.39164 0.4139 0.0
H821 H 0.57185 0.4283 0.65624 0.0
H822 H 0.56804 0.39733 0.62359 0.0
H823 H 0.51004 0.39488 0.64021 0.0
H824 H 0.51361 0.42607 0.66985 0.0
H825 H 0.54457 0.39083 0.50738 0.0
H826 H 0.49844 0.3456 0.71117 0.0
H827 H 0.49418 0.34092 0.83093 0.0
H828 H 0.54978 0.36314 0.8503 0.0
H829 H 0.5544 0.36787 0.73075 0.0
C830 C 0.50366 0.31451 0.43044 0.0
C831 C 0.51667 0.30272 0.42209 0.0
C832 C 0.50666 0.32749 0.4733 0.0
C833 C 0.52232 0.32831 0.50998 0.0
C834 C 0.53352 0.31441 0.51063 0.0
C835 C 0.53092 0.30184 0.46593 0.0
C836 C 0.52803 0.34484 0.54105 0.0
C837 C 0.52554 0.34357 0.60876 0.0
C838 C 0.53512 0.36206 0.50368 0.0
C839 C 0.53829 0.36464 0.43181 0.0
C840 C 0.55108 0.34973 0.40157 0.0
C841 C 0.55814 0.34992 0.32319 0.0
C842 C 0.55286 0.36623 0.26156 0.0
C843 C 0.53368 0.38903 0.30589 0.0
C844 C 0.53 0.38324 0.38863 0.0
C845 C 0.55828 0.42117 0.65301 0.0
C846 C 0.54302 0.42968 0.66549 0.0
C847 C 0.55616 0.40343 0.63513 0.0
C848 C 0.53878 0.39383 0.63067 0.0
C849 C 0.52356 0.40201 0.64471 0.0
C850 C 0.52564 0.41982 0.66173 0.0
C851 C 0.53636 0.37639 0.60282 0.0
C852 C 0.53928 0.37755 0.53547 0.0
C853 C 0.52957 0.35922 0.64024 0.0
C854 C 0.52672 0.3572 0.71196 0.0
C855 C 0.50975 0.34951 0.741 0.0
C856 C 0.50728 0.34682 0.80884 0.0
C857 C 0.52173 0.35163 0.84819 0.0
C858 C 0.53862 0.35937 0.81974 0.0
C859 C 0.54114 0.36217 0.75192 0.0
H860 H 0.51981 0.34947 0.90071 0.0
H861 H 0.55819 0.36552 0.21283 0.0
H862 H 0.20947 0.49059 0.73402 0.0
H863 H 0.18266 0.49661 0.79086 0.0
H864 H 0.20748 0.5527 0.79777 0.0
H865 H 0.23391 0.54705 0.73634 0.0
H866 H 0.16805 0.50739 0.88645 0.0
H867 H 0.17621 0.58257 0.74699 0.0
H868 H 0.19417 0.6013 0.65397 0.0
H869 H 0.20032 0.55189 0.5727 0.0
H870 H 0.18208 0.53297 0.6643 0.0
H871 H 0.08542 0.53826 0.94702 0.0
H872 H 0.11812 0.53833 0.93684 0.0
H873 H 0.11414 0.5419 0.72782 0.0
H874 H 0.08148 0.54287 0.7379 0.0
H875 H 0.14431 0.55941 0.74926 0.0
H876 H 0.11367 0.50023 0.8354 0.0
H877 H 0.09444 0.47593 0.90922 0.0
H878 H 0.13037 0.48444 0.06566 0.0
H879 H 0.14925 0.5096 0.99387 0.0
C880 C 0.20948 0.50403 0.74962 0.0
C881 C 0.22349 0.51853 0.72869 0.0
C882 C 0.19412 0.50746 0.78245 0.0
C883 C 0.19269 0.52536 0.79619 0.0
C884 C 0.20804 0.53893 0.78573 0.0
C885 C 0.22328 0.53563 0.75131 0.0
C886 C 0.1744 0.53039 0.80943 0.0
C887 C 0.16295 0.51896 0.85727 0.0
C888 C 0.16742 0.545 0.76936 0.0
C889 C 0.17797 0.55635 0.71299 0.0
C890 C 0.18131 0.57574 0.70907 0.0
C891 C 0.19153 0.58638 0.65656 0.0
C892 C 0.19843 0.57779 0.60757 0.0
C893 C 0.19501 0.55855 0.61071 0.0
C894 C 0.18469 0.54787 0.66283 0.0
C895 C 0.09164 0.53954 0.89876 0.0
C896 C 0.08097 0.54052 0.84317 0.0
C897 C 0.1103 0.53941 0.89303 0.0
C898 C 0.11861 0.53958 0.83175 0.0
C899 C 0.1081 0.54168 0.77575 0.0
C900 C 0.08943 0.54229 0.7814 0.0
C901 C 0.13789 0.53638 0.82635 0.0
C902 C 0.1495 0.54813 0.77976 0.0
C903 C 0.14468 0.52137 0.86494 0.0
C904 C 0.1328 0.50695 0.90936 0.0
C905 C 0.11729 0.4972 0.8859 0.0
C906 C 0.10641 0.48331 0.92746 0.0
C907 C 0.11112 0.47875 0.99224 0.0
C908 C 0.12664 0.48816 0.01572 0.0
C909 C 0.13738 0.5023 0.97472 0.0
H910 H 0.10283 0.46783 0.02408 0.0
H911 H 0.20639 0.58605 0.56711 0.0
H912 H 1.00419 0.811 0.06465 0.0
H913 H 1.00499 0.84131 0.997 0.0
H914 H 0.05769 0.85862 0.06918 0.0
H915 H 0.05718 0.82822 0.13396 0.0
H916 H 1.00305 0.87025 0.04639 0.0
H917 H 0.0801 0.89537 0.9823 0.0
H918 H 0.10591 0.88356 0.93452 0.0
H919 H 0.06922 0.84556 0.84366 0.0
H920 H 0.0432 0.85727 0.89029 0.0
H921 H 0.02047 0.96845 0.03776 0.0
H922 H 0.02126 0.93477 0.06301 0.0
H923 H 0.03529 0.93322 0.8615 0.0
H924 H 0.03505 0.96646 0.83691 0.0
H925 H 0.05442 0.91263 0.93154 0.0
H926 H 0.99299 0.92051 0.92614 0.0
H927 H 0.96329 0.92955 0.95054 0.0
H928 H 0.96281 0.89896 0.14333 0.0
H929 H 0.99256 0.88989 0.12048 0.0
C930 C 0.01639 0.82091 0.06281 0.0
C931 C 0.03065 0.81728 0.10437 0.0
C932 C 0.01672 0.83837 0.02505 0.0
C933 C 0.0313 0.85244 0.02837 0.0
C934 C 0.04637 0.84807 0.06467 0.0
C935 C 0.04612 0.8306 0.1017 0.0
C936 C 0.02974 0.8722 0.00318 0.0
C937 C 0.01424 0.87953 0.021 0.0
C938 C 0.04407 0.88425 0.96816 0.0
C939 C 0.0597 0.8771 0.94034 0.0
C940 C 0.07754 0.88453 0.952 0.0
C941 C 0.09221 0.87784 0.92516 0.0
C942 C 0.08921 0.86378 0.88627 0.0
C943 C 0.07153 0.85639 0.87406 0.0
C944 C 0.05682 0.86301 0.90084 0.0
C945 C 0.02397 0.9609 0.99931 0.0
C946 C 0.02749 0.97008 0.93525 0.0
C947 C 0.02423 0.94165 0.01352 0.0
C948 C 0.02809 0.93135 0.96393 0.0
C949 C 0.03221 0.94073 0.90064 0.0
C950 C 0.03193 0.95979 0.88656 0.0
C951 C 0.02796 0.91086 0.97708 0.0
C952 C 0.04318 0.90341 0.95696 0.0
C953 C 0.01294 0.89861 0.00723 0.0
C954 C 0.99541 0.90497 0.02225 0.0
C955 C 0.98681 0.91606 0.97432 0.0
C956 C 0.96985 0.92107 0.98768 0.0
C957 C 0.9612 0.91487 0.04851 0.0
C958 C 0.96956 0.90383 0.09633 0.0
C959 C 0.98652 0.89881 0.08326 0.0
H960 H 0.94793 0.91845 0.0585 0.0
H961 H 0.10059 0.85863 0.86548 0.0
H962 H 0.72939 0.0411 0.01735 0.0
H963 H 0.70202 0.04937 0.96199 0.0
H964 H 0.68011 0.99138 0.98369 0.0
H965 H 0.70783 0.98323 0.03493 0.0
H966 H 0.66647 1.0069 0.88383 0.0
H967 H 0.67332 0.02009 0.10095 0.0
H968 H 0.68841 0.03391 0.19117 0.0
H969 H 0.68484 0.08844 0.08974 0.0
H970 H 0.66997 0.07485 0.99851 0.0
H971 H 0.57497 0.03313 0.9996 0.0
H972 H 0.60727 0.03198 0.01882 0.0
H973 H 0.61816 0.04008 0.8108 0.0
H974 H 0.58577 0.03992 0.79216 0.0
H975 H 0.63806 0.05115 0.9982 0.0
H976 H 0.64905 0.01669 0.76924 0.0
H977 H 0.63221 0.99558 0.70182 0.0
H978 H 0.59491 0.97388 0.86217 0.0
H979 H 0.61196 0.99439 0.93131 0.0
C980 C 0.7191 0.03017 0.00689 0.0
C981 C 0.72071 0.01156 0.02932 0.0
C982 C 0.70334 0.03486 0.97634 0.0
C983 C 0.68872 0.02104 0.97038 0.0
C984 C 0.6911 1.00234 0.98764 0.0
C985 C 0.707 0.99765 0.01661 0.0
C986 C 0.67034 0.02588 0.95409 0.0
C987 C 0.66037 0.01674 0.90835 0.0
C988 C 0.66198 0.03817 0.98784 0.0
C989 C 0.67074 0.04645 0.0427 0.0
C990 C 0.67585 0.03501 0.09786 0.0
C991 C 0.68436 0.0428 0.14912 0.0
C992 C 0.68762 0.06205 0.14611 0.0
C993 C 0.68234 0.07353 0.09191 0.0
C994 C 0.67388 0.06579 0.04041 0.0
C995 C 0.58439 0.03502 0.95825 0.0
C996 C 0.57807 0.03659 0.89454 0.0
C997 C 0.60282 0.03434 0.96911 0.0
C998 C 0.61516 0.0355 0.91628 0.0
C999 C 0.60889 0.03858 0.85244 0.0
C1000 C 0.59045 0.03871 0.84172 0.0
C1001 C 0.63423 0.03219 0.92787 0.0
C1002 C 0.6443 0.04159 0.97279 0.0
C1003 C 0.64229 0.01925 0.89651 0.0
C1004 C 0.63181 1.00705 0.85523 0.0
C1005 C 0.63737 1.00727 0.79018 0.0
C1006 C 0.62776 0.99546 0.75169 0.0
C1007 C 0.61251 0.98341 0.77768 0.0
C1008 C 0.60677 0.9832 0.8422 0.0
C1009 C 0.61642 0.99489 0.88108 0.0
H1010 H 0.6052 0.97417 0.74795 0.0
H1011 H 0.69421 0.06808 0.18582 0.0
H1012 H 0.55245 0.73708 0.26201 0.0
H1013 H 0.54551 0.71859 0.17446 0.0
H1014 H 0.49328 0.7378 0.155 0.0
H1015 H 0.50033 0.75637 0.24317 0.0
H1016 H 0.49076 0.70095 0.19013 0.0
H1017 H 0.52216 0.74441 0.02242 0.0
H1018 H 0.54711 0.76728 0.9698 0.0
H1019 H 0.58254 0.72542 0.98674 0.0
H1020 H 0.55791 0.70235 0.04037 0.0
H1021 H 0.47333 0.62467 0.01165 0.0
H1022 H 0.47632 0.65695 0.03205 0.0
H1023 H 0.53198 0.65437 0.08337 0.0
H1024 H 0.52906 0.62223 0.0636 0.0
H1025 H 0.52767 0.68737 0.00677 0.0
H1026 H 0.50099 0.64877 0.20333 0.0
H1027 H 0.47815 0.62526 0.26571 0.0
H1028 H 0.43614 0.65777 0.20147 0.0
H1029 H 0.45877 0.68142 0.13833 0.0
C1030 C 0.53988 0.73802 0.2367 0.0
C1031 C 0.52692 0.7481 0.25854 0.0
C1032 C 0.53592 0.72751 0.18661 0.0
C1033 C 0.51889 0.72687 0.15804 0.0
C1034 C 0.50654 0.73824 0.17612 0.0
C1035 C 0.51057 0.74887 0.22611 0.0
C1036 C 0.51285 0.71152 0.12103 0.0
C1037 C 0.49843 0.69833 0.14841 0.0
C1038 C 0.52323 0.70782 0.06805 0.0
C1039 C 0.53815 0.72164 0.03567 0.0
C1040 C 0.5353 0.74009 0.01536 0.0
C1041 C 0.54939 0.7531 0.98527 0.0
C1042 C 0.5664 0.74781 0.97497 0.0
C1043 C 0.56935 0.72949 0.99468 0.0
C1044 C 0.55531 0.71644 0.02482 0.0
C1045 C 0.48618 0.63102 0.02731 0.0
C1046 C 0.50095 0.62095 0.03621 0.0
C1047 C 0.4879 0.64945 0.03851 0.0
C1048 C 0.50438 0.658 0.05912 0.0
C1049 C 0.5192 0.64806 0.06689 0.0
C1050 C 0.5175 0.6297 0.05565 0.0
C1051 C 0.506 0.67683 0.07725 0.0
C1052 C 0.51959 0.69047 0.04663 0.0
C1053 C 0.49511 0.68091 0.12807 0.0
C1054 C 0.48149 0.66669 0.16546 0.0
C1055 C 0.48685 0.6508 0.20209 0.0
C1056 C 0.47396 0.63749 0.23769 0.0
C1057 C 0.45569 0.63998 0.23732 0.0
C1058 C 0.45029 0.65584 0.20155 0.0
C1059 C 0.46314 0.66921 0.1659 0.0
H1060 H 0.44573 0.62965 0.2649 0.0
H1061 H 0.57729 0.75789 0.95167 0.0
H1062 H 0.81564 0.4922 0.08332 0.0
H1063 H 0.84286 0.48461 0.03181 0.0
H1064 H 0.85414 0.54089 0.93362 0.0
H1065 H 0.82667 0.54833 0.98382 0.0
H1066 H 0.86805 0.51713 0.86298 0.0
H1067 H 0.86867 0.52954 0.08622 0.0
H1068 H 0.85823 0.52437 0.20129 0.0
H1069 H 0.87091 0.46862 0.22225 0.0
H1070 H 0.88114 0.47335 0.10658 0.0
H1071 H 0.9616 0.54192 0.86142 0.0
H1072 H 0.92908 0.53826 0.88051 0.0
H1073 H 0.93009 0.48263 0.97922 0.0
H1074 H 0.96317 0.48647 0.96218 0.0
H1075 H 0.90874 0.50039 0.04381 0.0
H1076 H 0.91378 0.49114 0.82143 0.0
H1077 H 0.92686 0.4992 0.70958 0.0
H1078 H 0.90517 0.55089 0.68855 0.0
H1079 H 0.89224 0.54333 0.80064 0.0
C1080 C 0.8234 0.50263 0.04787 0.0
C1081 C 0.81908 0.52084 0.03744 0.0
C1082 C 0.83907 0.49836 0.01906 0.0
C1083 C 0.85083 0.51232 0.98039 0.0
C1084 C 0.84534 0.52991 0.96357 0.0
C1085 C 0.82954 0.53413 0.99187 0.0
C1086 C 0.8699 0.50966 0.96681 0.0
C1087 C 0.87693 0.51341 0.90244 0.0
C1088 C 0.88153 0.50458 0.01816 0.0
C1089 C 0.87545 0.50172 0.08764 0.0
C1090 C 0.86914 0.51614 0.11526 0.0
C1091 C 0.86332 0.51331 0.18066 0.0
C1092 C 0.86391 0.4962 0.21918 0.0
C1093 C 0.87041 0.48187 0.19234 0.0
C1094 C 0.87622 0.48461 0.12685 0.0
C1095 C 0.95499 0.52881 0.8869 0.0
C1096 C 0.96502 0.51439 0.90977 0.0
C1097 C 0.93629 0.52671 0.89745 0.0
C1098 C 0.92699 0.50999 0.92972 0.0
C1099 C 0.93695 0.4956 0.95357 0.0
C1100 C 0.95583 0.4978 0.94383 0.0
C1101 C 0.90698 0.50802 0.94011 0.0
C1102 C 0.89978 0.50354 0.00402 0.0
C1103 C 0.89529 0.51255 0.8884 0.0
C1104 C 0.9021 0.51669 0.81958 0.0
C1105 C 0.91184 0.50426 0.793 0.0
C1106 C 0.91933 0.50878 0.72973 0.0
C1107 C 0.917 0.52561 0.69229 0.0
C1108 C 0.90711 0.53793 0.71783 0.0
C1109 C 0.89963 0.5335 0.78118 0.0
H1110 H 0.92258 0.5289 0.64308 0.0
H1111 H 0.85935 0.49405 0.26979 0.0
H1112 H 0.05966 0.24119 0.41745 0.0
H1113 H 0.06049 0.21751 0.34599 0.0
H1114 H 1.00461 0.22092 0.30032 0.0
H1115 H 1.00386 0.24478 0.37171 0.0
H1116 H 0.01035 0.18524 0.3424 0.0
H1117 H 0.03754 0.23477 0.1827 0.0
H1118 H 0.05919 0.26223 0.13913 0.0
H1119 H 0.10344 0.23058 0.17521 0.0
H1120 H 0.08208 0.20298 0.21988 0.0
H1121 H 0.0087 0.11895 0.11956 0.0
H1122 H 0.00667 0.14695 0.16865 0.0
H1123 H 0.06297 0.14962 0.21696 0.0
H1124 H 0.06505 0.12146 0.16935 0.0
H1125 H 0.05551 0.18336 0.16681 0.0
H1126 H 0.02908 0.13475 0.33309 0.0
H1127 H 0.008 0.10732 0.38118 0.0
H1128 H 0.96285 0.13717 0.33675 0.0
H1129 H 0.98365 0.16472 0.2875 0.0
C1130 C 0.04779 0.23743 0.39 0.0
C1131 C 0.03181 0.24513 0.39913 0.0
C1132 C 0.04822 0.22378 0.34945 0.0
C1133 C 0.03261 0.21733 0.31751 0.0
C1134 C 0.01685 0.22563 0.32423 0.0
C1135 C 0.01649 0.23948 0.36428 0.0
C1136 C 0.0324 0.20092 0.28205 0.0
C1137 C 0.01998 0.18498 0.30303 0.0
C1138 C 0.0453 0.20027 0.23198 0.0
C1139 C 0.05821 0.21684 0.20518 0.0
C1140 C 0.0519 0.2337 0.18187 0.0
C1141 C 0.06412 0.24928 0.15686 0.0
C1142 C 0.08268 0.24816 0.15454 0.0
C1143 C 0.08906 0.23143 0.17709 0.0
C1144 C 0.0769 0.21581 0.20219 0.0
C1145 C 0.02063 0.12531 0.14131 0.0
C1146 C 0.03705 0.11774 0.14024 0.0
C1147 C 0.01945 0.14143 0.16927 0.0
C1148 C 0.03463 0.15046 0.19708 0.0
C1149 C 0.05105 0.14305 0.19566 0.0
C1150 C 0.05223 0.1269 0.168 0.0
C1151 C 0.03351 0.16763 0.22739 0.0
C1152 C 0.04573 0.18368 0.20564 0.0
C1153 C 0.02048 0.16835 0.27706 0.0
C1154 C 0.00792 0.15171 0.30574 0.0
C1155 C 0.01465 0.1354 0.33286 0.0
C1156 C 1.00275 0.11984 0.36046 0.0
C1157 C 0.98409 0.12047 0.36168 0.0
C1158 C 0.9773 0.13668 0.3355 0.0
C1159 C 0.98914 0.15227 0.30776 0.0
H1160 H 0.9749 0.10843 0.38328 0.0
H1161 H 0.09212 0.26024 0.13516 0.0
H1162 H 0.31686 0.03013 0.45428 0.0
H1163 H 0.3407 0.03647 0.36892 0.0
H1164 H 0.35615 0.09089 0.42216 0.0
H1165 H 0.33293 0.08403 0.51018 0.0
H1166 H 0.34992 0.05852 0.26421 0.0
H1167 H 0.39903 0.10506 0.3963 0.0
H1168 H 0.40716 0.1115 0.50673 0.0
H1169 H 0.38856 0.05486 0.5852 0.0
H1170 H 0.37994 0.04815 0.47537 0.0
H1171 H 0.43154 0.08631 0.06362 0.0
H1172 H 0.40459 0.08705 0.13118 0.0
H1173 H 0.42414 0.04895 0.28369 0.0
H1174 H 0.45147 0.04884 0.21792 0.0
H1175 H 0.41252 0.07702 0.33204 0.0
H1176 H 0.38069 0.02963 0.19959 0.0
H1177 H 0.37255 0.01938 0.09404 0.0
H1178 H 0.35928 0.07348 0.02146 0.0
H1179 H 0.36646 0.08372 0.12783 0.0
C1180 C 0.3251 0.04359 0.44663 0.0
C1181 C 0.32305 0.05664 0.48836 0.0
C1182 C 0.33879 0.0472 0.39803 0.0
C1183 C 0.35057 0.06402 0.38974 0.0
C1184 C 0.34765 0.07759 0.42863 0.0
C1185 C 0.33422 0.0738 0.47827 0.0
C1186 C 0.36637 0.06674 0.34289 0.0
C1187 C 0.36358 0.06269 0.27919 0.0
C1188 C 0.38431 0.07224 0.36152 0.0
C1189 C 0.38865 0.07619 0.428 0.0
C1190 C 0.39653 0.09403 0.43731 0.0
C1191 C 0.40116 0.09772 0.49974 0.0
C1192 C 0.39816 0.08361 0.55307 0.0
C1193 C 0.39053 0.06579 0.54402 0.0
C1194 C 0.38571 0.06206 0.48178 0.0
C1195 C 0.4302 0.07824 0.11185 0.0
C1196 C 0.44374 0.06758 0.13545 0.0
C1197 C 0.41461 0.07843 0.14997 0.0
C1198 C 0.41218 0.06783 0.21218 0.0
C1199 C 0.42567 0.05718 0.23574 0.0
C1200 C 0.44126 0.05706 0.19789 0.0
C1201 C 0.39605 0.06833 0.25443 0.0
C1202 C 0.39881 0.07311 0.31701 0.0
C1203 C 0.37817 0.06334 0.23509 0.0
C1204 C 0.37432 0.05747 0.17094 0.0
C1205 C 0.37611 0.03932 0.1609 0.0
C1206 C 0.3716 0.03351 0.10113 0.0
C1207 C 0.36572 0.04585 0.05068 0.0
C1208 C 0.36396 0.06396 0.06039 0.0
C1209 C 0.36806 0.06972 0.12058 0.0
H1210 H 0.36239 0.04135 0.00428 0.0
H1211 H 0.40186 0.08645 0.60133 0.0
H1212 H 0.54881 0.32356 0.17866 0.0
H1213 H 0.54844 0.35443 0.11525 0.0
H1214 H 0.4901 0.34505 0.11793 0.0
H1215 H 0.49045 0.31421 0.18079 0.0
H1216 H 0.50776 0.36609 0.99922 0.0
H1217 H 0.50855 0.35752 0.23627 0.0
H1218 H 0.52093 0.3476 0.35618 0.0
H1219 H 0.56377 0.3898 0.314 0.0
H1220 H 0.55647 0.40737 0.16484 0.0
H1221 H 0.49987 0.46869 0.0359 0.0
H1222 H 0.49904 0.43605 0.08417 0.0
H1223 H 0.53643 0.42817 0.93365 0.0
H1224 H 0.53734 0.46047 0.88536 0.0
H1225 H 0.527 0.4159 0.13173 0.0
H1226 H 0.52553 0.38725 0.8911 0.0
H1227 H 0.51447 0.39348 0.77967 0.0
H1228 H 0.47193 0.42023 0.8504 0.0
H1229 H 0.48237 0.41336 0.96288 0.0
C1230 C 0.53598 0.32778 0.16296 0.0
C1231 C 0.51965 0.31651 0.18393 0.0
C1232 C 0.53577 0.34553 0.128 0.0
C1233 C 0.51924 0.35225 0.1144 0.0
C1234 C 0.503 0.3402 0.12883 0.0
C1235 C 0.50319 0.32253 0.16413 0.0
C1236 C 0.51866 0.37217 0.09063 0.0
C1237 C 0.51209 0.37695 0.02821 0.0
C1238 C 0.52421 0.38638 0.12895 0.0
C1239 C 0.53214 0.38267 0.19453 0.0
C1240 C 0.52118 0.36497 0.24888 0.0
C1241 C 0.52896 0.35906 0.32503 0.0
C1242 C 0.55884 0.38077 0.3446 0.0
C1243 C 0.56473 0.39732 0.27224 0.0
C1244 C 0.55158 0.39704 0.20594 0.0
C1245 C 0.50789 0.45999 0.01306 0.0
C1246 C 0.51857 0.46722 0.95645 0.0
C1247 C 0.50745 0.44137 0.04086 0.0
C1248 C 0.51753 0.42962 0.01215 0.0
C1249 C 0.52834 0.43688 0.95619 0.0
C1250 C 0.52886 0.45543 0.92865 0.0
C1251 C 0.51674 0.4097 0.03982 0.0
C1252 C 0.52286 0.40493 0.10304 0.0
C1253 C 0.51122 0.3955 0.00218 0.0
C1254 C 0.50466 0.39965 0.93518 0.0
C1255 C 0.51366 0.39419 0.88283 0.0
C1256 C 0.50754 0.39792 0.81949 0.0
C1257 C 0.49253 0.40732 0.80774 0.0
C1258 C 0.48356 0.41295 0.85952 0.0
C1259 C 0.48954 0.40907 0.92314 0.0
H1260 H 0.48784 0.41024 0.75858 0.0
H1261 H 0.56716 0.37969 0.39505 0.0
H1262 H 0.23305 0.53492 0.43795 0.0
H1263 H 0.20997 0.53012 0.35594 0.0
H1264 H 0.18968 0.47683 0.46534 0.0
H1265 H 0.21262 0.48151 0.54687 0.0
H1266 H 0.19823 0.50213 0.27574 0.0
H1267 H 0.14783 0.4742 0.48728 0.0
H1268 H 0.14153 0.47876 0.60078 0.0
H1269 H 0.16531 0.53573 0.55659 0.0
H1270 H 0.17237 0.53129 0.44406 0.0
H1271 H 0.09485 0.46682 0.24336 0.0
H1272 H 0.12283 0.46923 0.30349 0.0
H1273 H 0.14365 0.51896 0.17367 0.0
H1274 H 0.116 0.5163 0.11172 0.0
H1275 H 0.13582 0.49607 0.37005 0.0
H1276 H 0.19005 0.52341 0.1654 0.0
H1277 H 0.1959 0.52091 0.04979 0.0
H1278 H 0.16328 0.46758 0.07359 0.0
H1279 H 0.15733 0.4697 0.18936 0.0
C1280 C 0.22404 0.52194 0.44322 0.0
C1281 C 0.22455 0.50862 0.4989 0.0
C1282 C 0.21081 0.51926 0.39659 0.0
C1283 C 0.19793 0.50327 0.40521 0.0
C1284 C 0.19932 0.48939 0.45824 0.0
C1285 C 0.21247 0.49204 0.50463 0.0
C1286 C 0.18204 0.50163 0.36277 0.0
C1287 C 0.18457 0.501 0.29598 0.0
C1288 C 0.16424 0.49994 0.38931 0.0
C1289 C 0.16073 0.50237 0.4577 0.0
C1290 C 0.15185 0.48763 0.5022 0.0
C1291 C 0.14826 0.49017 0.56646 0.0
C1292 C 0.15323 0.50748 0.58626 0.0
C1293 C 0.16183 0.52224 0.54185 0.0
C1294 C 0.16573 0.51969 0.47797 0.0
C1295 C 0.10547 0.4781 0.22673 0.0
C1296 C 0.10308 0.49134 0.17251 0.0
C1297 C 0.12144 0.47953 0.26151 0.0
C1298 C 0.13543 0.49417 0.24281 0.0
C1299 C 0.13317 0.50738 0.18857 0.0
C1300 C 0.11718 0.50599 0.1538 0.0
C1301 C 0.15185 0.49623 0.2827 0.0
C1302 C 0.14942 0.49705 0.34937 0.0
C1303 C 0.16968 0.49823 0.25554 0.0
C1304 C 0.17315 0.49679 0.18596 0.0
C1305 C 0.18418 0.51112 0.146 0.0
C1306 C 0.1875 0.50978 0.08044 0.0
C1307 C 0.17999 0.49408 0.05441 0.0
C1308 C 0.1691 0.47972 0.09384 0.0
C1309 C 0.16569 0.48102 0.15937 0.0
H1310 H 0.18255 0.49308 0.00362 0.0
H1311 H 0.1503 0.50948 0.63583 0.0
H1312 H 0.99277 0.81822 0.29856 0.0
H1313 H 0.99256 0.84225 0.36874 0.0
H1314 H 0.04137 0.82659 0.45744 0.0
H1315 H 0.04178 0.80266 0.38568 0.0
H1316 H 0.01543 0.83791 0.5471 0.0
H1317 H 0.04618 0.85757 0.34349 0.0
H1318 H 0.05161 0.86281 0.22453 0.0
H1319 H 0.01096 0.89929 0.20262 0.0
H1320 H 1.00413 0.89302 0.32057 0.0
H1321 H 0.0334 0.92714 0.6597 0.0
H1322 H 0.03653 0.89883 0.61339 0.0
H1323 H 0.99427 0.91049 0.47927 0.0
H1324 H 0.99123 0.93877 0.52476 0.0
H1325 H 0.02153 0.90063 0.41694 0.0
H1326 H 0.98836 0.87598 0.62242 0.0
H1327 H 0.98495 0.87188 0.74239 0.0
H1328 H 0.03436 0.84769 0.76031 0.0
H1329 H 0.03813 0.85178 0.64039 0.0
C1330 C 1.00303 0.81938 0.33496 0.0
C1331 C 0.01711 0.80835 0.33752 0.0
C1332 C 1.00301 0.83325 0.37458 0.0
C1333 C 0.01706 0.8364 0.41792 0.0
C1334 C 0.03037 0.8244 0.42451 0.0
C1335 C 0.03052 0.81062 0.38396 0.0
C1336 C 0.0187 0.85339 0.45038 0.0
C1337 C 0.01694 0.85164 0.51866 0.0
C1338 C 0.02084 0.87138 0.41335 0.0
C1339 C 0.02436 0.87448 0.34137 0.0
C1340 C 0.03796 0.86623 0.31328 0.0
C1341 C 0.04126 0.86935 0.24576 0.0
C1342 C 0.03144 0.88115 0.20576 0.0
C1343 C 0.01827 0.8898 0.23326 0.0
C1344 C 0.01458 0.88636 0.3005 0.0
C1345 C 0.02465 0.92358 0.62074 0.0
C1346 C 0.01208 0.93535 0.59596 0.0
C1347 C 0.02645 0.90734 0.59425 0.0
C1348 C 0.01553 0.9023 0.54297 0.0
C1349 C 1.00293 0.914 0.51853 0.0
C1350 C 1.00123 0.93026 0.54457 0.0
C1351 C 0.01728 0.88515 0.51328 0.0
C1352 C 0.01991 0.8869 0.44532 0.0
C1353 C 0.01616 0.86725 0.55054 0.0
C1354 C 0.0136 0.86432 0.6225 0.0
C1355 C 0.99851 0.86983 0.65197 0.0
C1356 C 0.99652 0.86751 0.71995 0.0
C1357 C 0.00945 0.85957 0.75895 0.0
C1358 C 0.02436 0.85384 0.73004 0.0
C1359 C 0.02641 0.85613 0.66208 0.0
H1360 H 0.00792 0.85784 0.81156 0.0
H1361 H 0.03416 0.88373 0.15359 0.0
H1362 H 0.72438 0.96725 0.27958 0.0
H1363 H 0.70176 0.96307 0.36911 0.0
H1364 H 0.70298 0.02233 0.35201 0.0
H1365 H 0.72542 0.02656 0.26187 0.0
H1366 H 0.69842 1.00099 0.48729 0.0
H1367 H 0.67542 1.00207 0.26681 0.0
H1368 H 0.67347 0.99027 0.16125 0.0
H1369 H 0.65155 0.93625 0.25816 0.0
H1370 H 0.65407 0.94749 0.36467 0.0
H1371 H 0.61246 0.01538 0.60016 0.0
H1372 H 0.6412 0.01507 0.54368 0.0
H1373 H 0.62527 0.95791 0.52019 0.0
H1374 H 0.59602 0.95839 0.5734 0.0
H1375 H 0.63868 0.97528 0.41175 0.0
H1376 H 0.65999 0.97093 0.62689 0.0
H1377 H 0.66589 0.97768 0.73845 0.0
H1378 H 0.69173 0.03229 0.6615 0.0
H1379 H 0.686 0.02587 0.54941 0.0
C1380 C 0.72037 0.97939 0.29673 0.0
C1381 C 0.72662 0.99723 0.26401 0.0
C1382 C 0.70737 0.97698 0.34753 0.0
C1383 C 0.70061 0.99239 0.36661 0.0
C1384 C 0.70808 0.01029 0.33804 0.0
C1385 C 0.72087 0.01269 0.28667 0.0
C1386 C 0.68411 0.98988 0.40916 0.0
C1387 C 0.68529 0.99552 0.47087 0.0
C1388 C 0.66716 0.9821 0.38827 0.0
C1389 C 0.66515 0.97557 0.32386 0.0
C1390 C 0.67035 0.98764 0.26574 0.0
C1391 C 0.66913 0.98106 0.20571 0.0
C1392 C 0.66236 0.96256 0.20299 0.0
C1393 C 0.65681 0.95058 0.26033 0.0
C1394 C 0.65819 0.95702 0.32057 0.0
C1395 C 0.6149 1.00277 0.58237 0.0
C1396 C 0.60172 0.98694 0.59116 0.0
C1397 C 0.63157 1.00251 0.5511 0.0
C1398 C 0.63559 0.98639 0.52831 0.0
C1399 C 0.62257 0.97051 0.53758 0.0
C1400 C 0.60584 0.97077 0.56856 0.0
C1401 C 0.65277 0.98656 0.49055 0.0
C1402 C 0.65174 0.9806 0.42909 0.0
C1403 C 0.66991 0.9936 0.51249 0.0
C1404 C 0.67244 0.99796 0.57975 0.0
C1405 C 0.66677 0.98445 0.63376 0.0
C1406 C 0.67021 0.98816 0.69706 0.0
C1407 C 0.67925 1.00538 0.70702 0.0
C1408 C 0.68478 0.01895 0.6537 0.0
C1409 C 0.68148 0.01526 0.59026 0.0
H1410 H 0.6819 1.00822 0.75608 0.0
H1411 H 0.66141 0.95751 0.15644 0.0
H1412 H 0.55336 0.73616 0.53095 0.0
H1413 H 0.55367 0.70629 0.60123 0.0
H1414 H 0.49971 0.68785 0.54291 0.0
H1415 H 0.49954 0.71745 0.472 0.0
H1416 H 0.53388 0.68414 0.70182 0.0
H1417 H 0.49811 0.64352 0.50982 0.0
H1418 H 0.49277 0.64807 0.39163 0.0
H1419 H 0.54161 0.68668 0.35826 0.0
H1420 H 0.54745 0.68206 0.47597 0.0
H1421 H 0.50886 0.58923 0.83186 0.0
H1422 H 0.50955 0.62117 0.77929 0.0
H1423 H 0.55005 0.61297 0.63999 0.0
H1424 H 0.54921 0.58074 0.69176 0.0
H1425 H 0.52498 0.63057 0.57938 0.0
H1426 H 0.56053 0.63811 0.76733 0.0
H1427 H 0.56727 0.6344 0.88432 0.0
H1428 H 0.52227 0.66254 0.9232 0.0
H1429 H 0.51506 0.66612 0.8067 0.0
C1430 C 0.54137 0.72594 0.53495 0.0
C1431 C 0.52646 0.72904 0.49601 0.0
C1432 C 0.54158 0.70885 0.57479 0.0
C1433 C 0.52688 0.69466 0.57616 0.0
C1434 C 0.51135 0.69843 0.54167 0.0
C1435 C 0.5112 0.71538 0.50158 0.0
C1436 C 0.52834 0.67548 0.6084 0.0
C1437 C 0.53189 0.67242 0.67515 0.0
C1438 C 0.52612 0.66019 0.57326 0.0
C1439 C 0.52311 0.66256 0.50192 0.0
C1440 C 0.50778 0.65287 0.47722 0.0
C1441 C 0.50466 0.65547 0.4103 0.0
C1442 C 0.51681 0.6677 0.3675 0.0
C1443 C 0.53218 0.67725 0.39148 0.0
C1444 C 0.53541 0.67463 0.4583 0.0
C1445 C 0.518 0.59418 0.79018 0.0
C1446 C 0.529 0.58234 0.76609 0.0
C1447 C 0.51843 0.61254 0.76031 0.0
C1448 C 0.52999 0.61962 0.70597 0.0
C1449 C 0.54102 0.60786 0.68186 0.0
C1450 C 0.54057 0.58944 0.71166 0.0
C1451 C 0.53018 0.63911 0.67333 0.0
C1452 C 0.52695 0.64225 0.60626 0.0
C1453 C 0.5329 0.65447 0.70805 0.0
C1454 C 0.53718 0.65226 0.77828 0.0
C1455 C 0.55198 0.64336 0.80091 0.0
C1456 C 0.55589 0.64129 0.86717 0.0
C1457 C 0.5452 0.64821 0.91121 0.0
C1458 C 0.53054 0.65717 0.88913 0.0
C1459 C 0.52654 0.65923 0.82296 0.0
H1460 H 0.54834 0.64668 0.96237 0.0
H1461 H 0.51432 0.66975 0.31576 0.0
H1462 H 0.81918 0.56837 0.2455 0.0
H1463 H 0.84221 0.57354 0.32646 0.0
H1464 H 0.84657 0.51507 0.35852 0.0
H1465 H 0.82313 0.50973 0.27912 0.0
H1466 H 0.8507 0.52905 0.47078 0.0
H1467 H 0.87855 0.54449 0.25271 0.0
H1468 H 0.88004 0.56028 0.13873 0.0
H1469 H 0.88339 0.61306 0.20676 0.0
H1470 H 0.88157 0.59744 0.32094 0.0
H1471 H 0.9513 0.53845 0.51159 0.0
H1472 H 0.92269 0.5344 0.45485 0.0
H1473 H 0.90248 0.57532 0.55489 0.0
H1474 H 0.9311 0.5795 0.61212 0.0
H1475 H 0.90555 0.57154 0.38211 0.0
H1476 H 0.85981 0.54482 0.59948 0.0
H1477 H 0.85709 0.52406 0.70509 0.0
H1478 H 0.89142 0.48903 0.62965 0.0
H1479 H 0.89451 0.50976 0.52406 0.0
C1480 C 0.82458 0.55653 0.27141 0.0
C1481 C 0.81938 0.53864 0.25564 0.0
C1482 C 0.83794 0.55954 0.31705 0.0
C1483 C 0.84643 0.54476 0.34752 0.0
C1484 C 0.8403 0.52671 0.33545 0.0
C1485 C 0.82692 0.52368 0.28997 0.0
C1486 C 0.86256 0.54818 0.38802 0.0
C1487 C 0.86261 0.53848 0.45148 0.0
C1488 C 0.87824 0.5603 0.36298 0.0
C1489 C 0.87961 0.5698 0.29486 0.0
C1490 C 0.87937 0.55943 0.243 0.0
C1491 C 0.88032 0.56834 0.17854 0.0
C1492 C 0.88172 0.58766 0.1655 0.0
C1493 C 0.88225 0.59809 0.21693 0.0
C1494 C 0.88126 0.58922 0.2815 0.0
C1495 C 0.94076 0.54656 0.5217 0.0
C1496 C 0.94348 0.55932 0.56632 0.0
C1497 C 0.92443 0.54419 0.48938 0.0
C1498 C 0.91046 0.5544 0.50143 0.0
C1499 C 0.9131 0.56722 0.54547 0.0
C1500 C 0.92951 0.56973 0.57749 0.0
C1501 C 0.8936 0.55244 0.46459 0.0
C1502 C 0.89346 0.56246 0.40181 0.0
C1503 C 0.87799 0.54037 0.48976 0.0
C1504 C 0.87753 0.52889 0.55449 0.0
C1505 C 0.86691 0.53278 0.60584 0.0
C1506 C 0.86524 0.52099 0.66549 0.0
C1507 C 0.87399 0.50518 0.67394 0.0
C1508 C 0.8846 0.50124 0.62297 0.0
C1509 C 0.88645 0.5131 0.56346 0.0
H1510 H 0.87267 0.49605 0.72011 0.0
H1511 H 0.88246 0.59455 0.11557 0.0
loop_
_geom_bond_atom_site_label_1
_geom_bond_atom_site_label_2
_geom_bond_distance
_geom_bond_site_symmetry_2
_ccdc_geom_bond_type
H0 C1 0.949 . S
C1 H0 0.949 . S
C1 C2 1.395 . S
C1 C3 1.391 1_556 S
C2 C1 1.395 . S
C2 C5 1.390 1_556 S
C3 C1 1.391 1_554 S
C3 C7 1.387 . S
C3 C8 1.491 . S
H4 C5 0.950 . S
C5 C2 1.390 1_554 S
C5 H4 0.950 . S
C5 C6 1.378 . S
C6 C5 1.378 . S
C6 C7 1.409 . S
C7 C3 1.387 . S
C7 C6 1.409 . S
C7 H9 0.951 . S
C8 C3 1.491 . S
C8 C10 1.382 1_554 S
C8 C12 1.404 . S
H9 C7 0.951 . S
C10 C8 1.382 1_556 S
C10 C11 1.390 . S
C10 H15 0.949 . S
C11 C10 1.390 . S
C11 C16 1.399 1_556 S
C12 C8 1.404 . S
C12 H13 0.950 . S
C12 C14 1.375 . S
H13 C12 0.950 . S
C14 C12 1.375 . S
C14 C16 1.382 . S
C14 H18 0.950 . S
H15 C10 0.949 . S
C16 C11 1.399 1_554 S
C16 C14 1.382 . S
C16 H17 0.951 1_554 S
H17 C16 0.951 1_556 S
H18 C14 0.950 . S
H19 C20 0.949 . S
C20 H19 0.949 . S
C20 C21 1.395 . S
C20 C22 1.391 . S
C21 C20 1.395 . S
C21 C24 1.390 . S
C22 C20 1.391 . S
C22 C26 1.387 . S
C22 C27 1.491 . S
H23 C24 0.950 . S
C24 C21 1.390 . S
C24 H23 0.950 . S
C24 C25 1.378 . S
C25 C24 1.378 . S
C25 C26 1.409 . S
C26 C22 1.387 . S
C26 C25 1.409 . S
C26 H28 0.951 . S
C27 C22 1.491 . S
C27 C29 1.382 . S
C27 C31 1.404 . S
H28 C26 0.951 . S
C29 C27 1.382 . S
C29 C30 1.390 . S
C29 H34 0.949 . S
C30 C29 1.390 . S
C30 C35 1.399 . S
C31 C27 1.404 . S
C31 H32 0.950 . S
C31 C33 1.375 . S
H32 C31 0.950 . S
C33 C31 1.375 . S
C33 C35 1.382 . S
C33 H37 0.950 . S
H34 C29 0.949 . S
C35 C30 1.399 . S
C35 C33 1.382 . S
C35 H36 0.952 . S
H36 C35 0.952 . S
H37 C33 0.950 . S
H38 C39 0.949 1_556 S
C39 H38 0.949 1_554 S
C39 C40 1.395 . S
C39 C41 1.391 . S
C40 C39 1.395 . S
C40 C43 1.390 . S
C41 C39 1.391 . S
C41 C45 1.387 . S
C41 C46 1.491 . S
H42 C43 0.950 . S
C43 C40 1.390 . S
C43 H42 0.950 . S
C43 C44 1.378 . S
C44 C43 1.378 . S
C44 C45 1.409 . S
C45 C41 1.387 . S
C45 C44 1.409 . S
C45 H47 0.951 . S
C46 C41 1.491 . S
C46 C48 1.382 . S
C46 C50 1.404 . S
H47 C45 0.951 . S
C48 C46 1.382 . S
C48 C49 1.390 . S
C48 H53 0.949 1_554 S
C49 C48 1.390 . S
C49 C54 1.399 . S
C50 C46 1.404 . S
C50 H51 0.950 . S
C50 C52 1.375 . S
H51 C50 0.950 . S
C52 C50 1.375 . S
C52 C54 1.382 . S
C52 H56 0.950 . S
H53 C48 0.949 1_556 S
C54 C49 1.399 . S
C54 C52 1.382 . S
C54 H55 0.952 . S
H55 C54 0.952 . S
H56 C52 0.950 . S
H57 C58 0.949 . S
C58 H57 0.949 . S
C58 C59 1.395 . S
C58 C60 1.391 . S
C59 C58 1.395 . S
C59 C62 1.390 . S
C60 C58 1.391 . S
C60 C64 1.387 . S
C60 C65 1.491 . S
H61 C62 0.950 . S
C62 C59 1.390 . S
C62 H61 0.950 . S
C62 C63 1.378 . S
C63 C62 1.378 . S
C63 C64 1.409 . S
C64 C60 1.387 . S
C64 C63 1.409 . S
C64 H66 0.951 . S
C65 C60 1.491 . S
C65 C67 1.382 . S
C65 C69 1.404 . S
H66 C64 0.951 . S
C67 C65 1.382 . S
C67 C68 1.390 . S
C67 H72 0.949 . S
C68 C67 1.390 . S
C68 C73 1.399 . S
C69 C65 1.404 . S
C69 H70 0.950 . S
C69 C71 1.375 . S
H70 C69 0.950 . S
C71 C69 1.375 . S
C71 C73 1.382 . S
C71 H75 0.950 . S
H72 C67 0.949 . S
C73 C68 1.399 . S
C73 C71 1.382 . S
C73 H74 0.952 . S
H74 C73 0.952 . S
H75 C71 0.950 . S
H76 C77 0.949 . S
C77 H76 0.949 . S
C77 C78 1.395 . S
C77 C79 1.391 . S
C78 C77 1.395 . S
C78 C81 1.390 . S
C79 C77 1.391 . S
C79 C83 1.387 . S
C79 C84 1.491 . S
H80 C81 0.950 . S
C81 C78 1.390 . S
C81 H80 0.950 . S
C81 C82 1.378 . S
C82 C81 1.378 . S
C82 C83 1.409 . S
C83 C79 1.387 . S
C83 C82 1.409 . S
C83 H85 0.951 . S
C84 C79 1.491 . S
C84 C86 1.382 . S
C84 C88 1.404 . S
H85 C83 0.951 . S
C86 C84 1.382 . S
C86 C87 1.390 . S
C86 H91 0.949 . S
C87 C86 1.390 . S
C87 C92 1.399 . S
C88 C84 1.404 . S
C88 H89 0.950 . S
C88 C90 1.375 . S
H89 C88 0.950 . S
C90 C88 1.375 . S
C90 C92 1.382 . S
C90 H94 0.950 . S
H91 C86 0.949 . S
C92 C87 1.399 . S
C92 C90 1.382 . S
C92 H93 0.952 . S
H93 C92 0.952 . S
H94 C90 0.950 . S
H95 C96 0.949 . S
C96 H95 0.949 . S
C96 C97 1.395 . S
C96 C98 1.391 . S
C97 C96 1.395 . S
C97 C100 1.390 . S
C98 C96 1.391 . S
C98 C102 1.387 . S
C98 C103 1.491 . S
H99 C100 0.950 . S
C100 C97 1.390 . S
C100 H99 0.950 . S
C100 C101 1.378 . S
C101 C100 1.378 . S
C101 C102 1.409 . S
C102 C98 1.387 . S
C102 C101 1.409 . S
C102 H104 0.951 . S
C103 C98 1.491 . S
C103 C105 1.382 . S
C103 C107 1.404 . S
H104 C102 0.951 . S
C105 C103 1.382 . S
C105 C106 1.390 . S
C105 H110 0.949 . S
C106 C105 1.390 . S
C106 C111 1.399 . S
C107 C103 1.404 . S
C107 H108 0.950 . S
C107 C109 1.375 . S
H108 C107 0.950 . S
C109 C107 1.375 . S
C109 C111 1.382 . S
C109 H113 0.950 . S
H110 C105 0.949 . S
C111 C106 1.399 . S
C111 C109 1.382 . S
C111 H112 0.952 . S
H112 C111 0.952 . S
H113 C109 0.950 . S
H114 C115 0.949 . S
C115 H114 0.949 . S
C115 C116 1.395 . S
C115 C117 1.391 . S
C116 C115 1.395 . S
C116 C119 1.390 . S
C117 C115 1.391 . S
C117 C121 1.387 . S
C117 C122 1.491 . S
H118 C119 0.950 . S
C119 C116 1.390 . S
C119 H118 0.950 . S
C119 C120 1.378 . S
C120 C119 1.378 . S
C120 C121 1.409 . S
C121 C117 1.387 . S
C121 C120 1.409 . S
C121 H123 0.951 . S
C122 C117 1.491 . S
C122 C124 1.382 . S
C122 C126 1.404 . S
H123 C121 0.951 . S
C124 C122 1.382 . S
C124 C125 1.390 . S
C124 H129 0.949 . S
C125 C124 1.390 . S
C125 C130 1.399 . S
C126 C122 1.404 . S
C126 H127 0.950 . S
C126 C128 1.375 . S
H127 C126 0.950 . S
C128 C126 1.375 . S
C128 C130 1.382 . S
C128 H132 0.950 . S
H129 C124 0.949 . S
C130 C125 1.399 . S
C130 C128 1.382 . S
C130 H131 0.952 . S
H131 C130 0.952 . S
H132 C128 0.950 . S
H133 C134 0.949 . S
C134 H133 0.949 . S
C134 C135 1.395 . S
C134 C136 1.391 . S
C135 C134 1.395 . S
C135 C138 1.390 . S
C136 C134 1.391 . S
C136 C140 1.387 . S
C136 C141 1.491 . S
H137 C138 0.950 . S
C138 C135 1.390 . S
C138 H137 0.950 . S
C138 C139 1.378 . S
C139 C138 1.378 . S
C139 C140 1.409 . S
C140 C136 1.387 . S
C140 C139 1.409 . S
C140 H142 0.951 . S
C141 C136 1.491 . S
C141 C143 1.382 . S
C141 C145 1.404 . S
H142 C140 0.951 . S
C143 C141 1.382 . S
C143 C144 1.390 . S
C143 H148 0.949 . S
C144 C143 1.390 . S
C144 C149 1.399 . S
C145 C141 1.404 . S
C145 H146 0.950 . S
C145 C147 1.375 . S
H146 C145 0.950 . S
C147 C145 1.375 . S
C147 C149 1.382 . S
C147 H151 0.950 . S
H148 C143 0.949 . S
C149 C144 1.399 . S
C149 C147 1.382 . S
C149 H150 0.952 . S
H150 C149 0.952 . S
H151 C147 0.950 . S
Nd152 C154 2.836 1_545 S
Nd152 O172 2.500 1_445 S
Nd152 O173 2.492 1_545 S
Nd152 O174 2.487 . S
Nd152 O175 2.682 . S
Nd152 O176 2.410 1_545 S
Nd152 O181 2.414 1_455 S
Nd152 O183 2.424 . S
Nd153 C163 2.836 1_556 S
Nd153 O175 2.414 . S
Nd153 O177 2.424 1_545 S
Nd153 O178 2.500 . S
Nd153 O179 2.492 1_556 S
Nd153 O180 2.487 1_455 S
Nd153 O181 2.682 1_455 S
Nd153 O182 2.410 . S
C154 Nd152 2.836 1_565 S
C154 C155 1.498 . S
C154 O172 1.258 1_455 S
C154 O173 1.239 . S
C155 C154 1.498 . S
C155 C156 1.366 1_455 S
C155 C160 1.407 . S
C156 C155 1.366 1_655 S
C156 C157 1.392 . S
C156 H184 0.930 . S
C157 C156 1.392 . S
C157 C158 1.398 1_655 S
C157 H185 0.929 . S
C158 C157 1.398 1_455 S
C158 C159 1.352 . S
C159 C158 1.352 . S
C159 C160 1.384 . S
C159 H186 0.930 . S
C160 C155 1.407 . S
C160 C159 1.384 . S
C160 H187 0.929 . S
C161 O174 1.241 . S
C161 O175 1.273 . S
C162 O176 1.251 . S
C162 O177 1.268 . S
C163 Nd153 2.836 1_554 S
C163 C164 1.498 . S
C163 O178 1.258 1_554 S
C163 O179 1.239 . S
C164 C163 1.498 . S
C164 C165 1.366 . S
C164 C169 1.407 . S
C165 C164 1.366 . S
C165 C166 1.392 . S
C165 H188 0.930 . S
C166 C165 1.392 . S
C166 C167 1.398 . S
C166 H189 0.929 . S
C167 C166 1.398 . S
C167 C168 1.352 . S
C168 C167 1.352 . S
C168 C169 1.384 . S
C168 H190 0.930 . S
C169 C164 1.407 . S
C169 C168 1.384 . S
C169 H191 0.929 . S
C170 O180 1.241 . S
C170 O181 1.273 . S
C171 O182 1.251 . S
C171 O183 1.268 . S
O172 Nd152 2.500 1_665 S
O172 C154 1.258 1_655 S
O173 Nd152 2.492 1_565 S
O173 C154 1.239 . S
O174 Nd152 2.487 . S
O174 C161 1.241 . S
O175 Nd152 2.682 . S
O175 Nd153 2.414 . S
O175 C161 1.273 . S
O176 Nd152 2.410 1_565 S
O176 C162 1.251 . S
O177 Nd153 2.424 1_565 S
O177 C162 1.268 . S
O178 Nd153 2.500 . S
O178 C163 1.258 1_556 S
O179 Nd153 2.492 1_554 S
O179 C163 1.239 . S
O180 Nd153 2.487 1_655 S
O180 C170 1.241 . S
O181 Nd152 2.414 1_655 S
O181 Nd153 2.682 1_655 S
O181 C170 1.273 . S
O182 Nd153 2.410 . S
O182 C171 1.251 . S
O183 Nd152 2.424 . S
O183 C171 1.268 . S
H184 C156 0.930 . S
H185 C157 0.929 . S
H186 C159 0.930 . S
H187 C160 0.929 . S
H188 C165 0.930 . S
H189 C166 0.929 . S
H190 C168 0.930 . S
H191 C169 0.929 . S
Nd192 C194 2.836 1_545 S
Nd192 O212 2.500 1_545 S
Nd192 O213 2.492 . S
Nd192 O214 2.487 . S
Nd192 O215 2.682 . S
Nd192 O216 2.410 . S
Nd192 O221 2.414 1_545 S
Nd192 O223 2.424 . S
Nd193 C203 2.836 1_556 S
Nd193 O215 2.414 . S
Nd193 O217 2.424 . S
Nd193 O218 2.500 . S
Nd193 O219 2.492 1_556 S
Nd193 O220 2.487 1_545 S
Nd193 O221 2.682 1_545 S
Nd193 O222 2.410 . S
C194 Nd192 2.836 1_565 S
C194 C195 1.498 . S
C194 O212 1.258 . S
C194 O213 1.239 1_565 S
C195 C194 1.498 . S
C195 C196 1.366 . S
C195 C200 1.407 1_565 S
C196 C195 1.366 . S
C196 C197 1.392 . S
C196 H224 0.930 . S
C197 C196 1.392 . S
C197 C198 1.398 . S
C197 H225 0.929 . S
C198 C197 1.398 . S
C198 C199 1.352 . S
C199 C198 1.352 . S
C199 C200 1.384 1_565 S
C199 H226 0.930 1_565 S
C200 C195 1.407 1_545 S
C200 C199 1.384 1_545 S
C200 H227 0.929 . S
C201 O214 1.241 . S
C201 O215 1.273 . S
C202 O216 1.251 . S
C202 O217 1.268 . S
C203 Nd193 2.836 1_554 S
C203 C204 1.498 . S
C203 O218 1.258 1_554 S
C203 O219 1.239 . S
C204 C203 1.498 . S
C204 C205 1.366 . S
C204 C209 1.407 . S
C205 C204 1.366 . S
C205 C206 1.392 . S
C205 H228 0.930 1_554 S
C206 C205 1.392 . S
C206 C207 1.398 . S
C206 H229 0.929 . S
C207 C206 1.398 . S
C207 C208 1.352 . S
C208 C207 1.352 . S
C208 C209 1.384 . S
C208 H230 0.930 . S
C209 C204 1.407 . S
C209 C208 1.384 . S
C209 H231 0.929 . S
C210 O220 1.241 . S
C210 O221 1.273 . S
C211 O222 1.251 . S
C211 O223 1.268 . S
O212 Nd192 2.500 1_565 S
O212 C194 1.258 . S
O213 Nd192 2.492 . S
O213 C194 1.239 1_545 S
O214 Nd192 2.487 . S
O214 C201 1.241 . S
O215 Nd192 2.682 . S
O215 Nd193 2.414 . S
O215 C201 1.273 . S
O216 Nd192 2.410 . S
O216 C202 1.251 . S
O217 Nd193 2.424 . S
O217 C202 1.268 . S
O218 Nd193 2.500 . S
O218 C203 1.258 1_556 S
O219 Nd193 2.492 1_554 S
O219 C203 1.239 . S
O220 Nd193 2.487 1_565 S
O220 C210 1.241 . S
O221 Nd192 2.414 1_565 S
O221 Nd193 2.682 1_565 S
O221 C210 1.273 . S
O222 Nd193 2.410 . S
O222 C211 1.251 . S
O223 Nd192 2.424 . S
O223 C211 1.268 . S
H224 C196 0.930 . S
H225 C197 0.929 . S
H226 C199 0.930 1_545 S
H227 C200 0.929 . S
H228 C205 0.930 1_556 S
H229 C206 0.929 . S
H230 C208 0.930 . S
H231 C209 0.929 . S
Nd232 C234 2.836 . S
Nd232 O252 2.500 . S
Nd232 O253 2.492 . S
Nd232 O254 2.487 . S
Nd232 O255 2.682 . S
Nd232 O256 2.410 . S
Nd232 O261 2.414 . S
Nd232 O263 2.424 . S
Nd233 C243 2.836 . S
Nd233 O255 2.414 . S
Nd233 O257 2.424 . S
Nd233 O258 2.500 . S
Nd233 O259 2.492 . S
Nd233 O260 2.487 . S
Nd233 O261 2.682 . S
Nd233 O262 2.410 . S
C234 Nd232 2.836 . S
C234 C235 1.498 1_556 S
C234 O252 1.258 . S
C234 O253 1.239 . S
C235 C234 1.498 1_554 S
C235 C236 1.366 1_554 S
C235 C240 1.407 . S
C236 C235 1.366 1_556 S
C236 C237 1.392 1_556 S
C236 H264 0.930 . S
C237 C236 1.392 1_554 S
C237 C238 1.398 . S
C237 H265 0.929 1_554 S
C238 C237 1.398 . S
C238 C239 1.352 . S
C239 C238 1.352 . S
C239 C240 1.384 . S
C239 H266 0.930 . S
C240 C235 1.407 . S
C240 C239 1.384 . S
C240 H267 0.929 . S
C241 O254 1.241 . S
C241 O255 1.273 . S
C242 O256 1.251 . S
C242 O257 1.268 . S
C243 Nd233 2.836 . S
C243 C244 1.498 . S
C243 O258 1.258 . S
C243 O259 1.239 . S
C244 C243 1.498 . S
C244 C245 1.366 . S
C244 C249 1.407 . S
C245 C244 1.366 . S
C245 C246 1.392 . S
C245 H268 0.930 . S
C246 C245 1.392 . S
C246 C247 1.398 . S
C246 H269 0.929 . S
C247 C246 1.398 . S
C247 C248 1.352 . S
C248 C247 1.352 . S
C248 C249 1.384 . S
C248 H270 0.930 . S
C249 C244 1.407 . S
C249 C248 1.384 . S
C249 H271 0.929 . S
C250 O260 1.241 . S
C250 O261 1.273 . S
C251 O262 1.251 . S
C251 O263 1.268 . S
O252 Nd232 2.500 . S
O252 C234 1.258 . S
O253 Nd232 2.492 . S
O253 C234 1.239 . S
O254 Nd232 2.487 . S
O254 C241 1.241 . S
O255 Nd232 2.682 . S
O255 Nd233 2.414 . S
O255 C241 1.273 . S
O256 Nd232 2.410 . S
O256 C242 1.251 . S
O257 Nd233 2.424 . S
O257 C242 1.268 . S
O258 Nd233 2.500 . S
O258 C243 1.258 . S
O259 Nd233 2.492 . S
O259 C243 1.239 . S
O260 Nd233 2.487 . S
O260 C250 1.241 . S
O261 Nd232 2.414 . S
O261 Nd233 2.682 . S
O261 C250 1.273 . S
O262 Nd233 2.410 . S
O262 C251 1.251 . S
O263 Nd232 2.424 . S
O263 C251 1.268 . S
H264 C236 0.930 . S
H265 C237 0.929 1_556 S
H266 C239 0.930 . S
H267 C240 0.929 . S
H268 C245 0.930 . S
H269 C246 0.929 . S
H270 C248 0.930 . S
H271 C249 0.929 . S
Nd272 C274 2.836 1_455 S
Nd272 O292 2.500 1_455 S
Nd272 O293 2.492 1_455 S
Nd272 O294 2.487 . S
Nd272 O295 2.682 . S
Nd272 O296 2.410 1_455 S
Nd272 O301 2.414 . S
Nd272 O303 2.424 . S
Nd273 C283 2.836 1_556 S
Nd273 O295 2.414 . S
Nd273 O297 2.424 1_455 S
Nd273 O298 2.500 1_556 S
Nd273 O299 2.492 1_556 S
Nd273 O300 2.487 . S
Nd273 O301 2.682 . S
Nd273 O302 2.410 . S
C274 Nd272 2.836 1_655 S
C274 C275 1.498 . S
C274 O292 1.258 . S
C274 O293 1.239 . S
C275 C274 1.498 . S
C275 C276 1.366 . S
C275 C280 1.407 . S
C276 C275 1.366 . S
C276 C277 1.392 . S
C276 H304 0.930 . S
C277 C276 1.392 . S
C277 C278 1.398 . S
C277 H305 0.929 . S
C278 C277 1.398 . S
C278 C279 1.352 . S
C279 C278 1.352 . S
C279 C280 1.384 . S
C279 H306 0.930 . S
C280 C275 1.407 . S
C280 C279 1.384 . S
C280 H307 0.929 . S
C281 O294 1.241 . S
C281 O295 1.273 . S
C282 O296 1.251 . S
C282 O297 1.268 . S
C283 Nd273 2.836 1_554 S
C283 C284 1.498 . S
C283 O298 1.258 . S
C283 O299 1.239 . S
C284 C283 1.498 . S
C284 C285 1.366 . S
C284 C289 1.407 . S
C285 C284 1.366 . S
C285 C286 1.392 . S
C285 H308 0.930 . S
C286 C285 1.392 . S
C286 C287 1.398 . S
C286 H309 0.929 . S
C287 C286 1.398 . S
C287 C288 1.352 . S
C288 C287 1.352 . S
C288 C289 1.384 . S
C288 H310 0.930 . S
C289 C284 1.407 . S
C289 C288 1.384 . S
C289 H311 0.929 . S
C290 O300 1.241 . S
C290 O301 1.273 . S
C291 O302 1.251 . S
C291 O303 1.268 . S
O292 Nd272 2.500 1_655 S
O292 C274 1.258 . S
O293 Nd272 2.492 1_655 S
O293 C274 1.239 . S
O294 Nd272 2.487 . S
O294 C281 1.241 . S
O295 Nd272 2.682 . S
O295 Nd273 2.414 . S
O295 C281 1.273 . S
O296 Nd272 2.410 1_655 S
O296 C282 1.251 . S
O297 Nd273 2.424 1_655 S
O297 C282 1.268 . S
O298 Nd273 2.500 1_554 S
O298 C283 1.258 . S
O299 Nd273 2.492 1_554 S
O299 C283 1.239 . S
O300 Nd273 2.487 . S
O300 C290 1.241 . S
O301 Nd272 2.414 . S
O301 Nd273 2.682 . S
O301 C290 1.273 . S
O302 Nd273 2.410 . S
O302 C291 1.251 . S
O303 Nd272 2.424 . S
O303 C291 1.268 . S
H304 C276 0.930 . S
H305 C277 0.929 . S
H306 C279 0.930 . S
H307 C280 0.929 . S
H308 C285 0.930 . S
H309 C286 0.929 . S
H310 C288 0.930 . S
H311 C289 0.929 . S
H312 C330 0.951 . S
H313 C332 0.951 . S
H314 C334 0.950 . S
H315 C335 0.950 . S
H316 C337 0.950 . S
H317 C340 0.950 . S
H318 C341 0.950 . S
H319 C343 0.950 . S
H320 C344 0.950 . S
H321 C345 0.951 . S
H322 C347 0.951 . S
H323 C349 0.950 . S
H324 C350 0.950 . S
H325 C352 0.950 . S
H326 C355 0.950 . S
H327 C356 0.950 . S
H328 C358 0.950 . S
H329 C359 0.950 . S
C330 H312 0.951 . S
C330 C331 1.366 . S
C330 C332 1.388 . S
C331 C330 1.366 . S
C331 C335 1.385 . S
C332 H313 0.951 . S
C332 C330 1.388 . S
C332 C333 1.366 . S
C333 C332 1.366 . S
C333 C334 1.414 . S
C333 C336 1.499 . S
C334 H314 0.950 . S
C334 C333 1.414 . S
C334 C335 1.374 . S
C335 H315 0.950 . S
C335 C331 1.385 . S
C335 C334 1.374 . S
C336 C333 1.499 . S
C336 C337 1.373 . S
C336 C338 1.389 . S
C337 H316 0.950 . S
C337 C336 1.373 . S
C337 C353 1.377 . S
C338 C336 1.389 . S
C338 C339 1.524 . S
C338 C352 1.377 . S
C339 C338 1.524 . S
C339 C340 1.397 . S
C339 C344 1.363 . S
C340 H317 0.950 . S
C340 C339 1.397 . S
C340 C341 1.334 . S
C341 H318 0.950 . S
C341 C340 1.334 . S
C341 C342 1.287 . S
C342 C341 1.287 . S
C342 C343 1.524 . S
C342 H361 0.913 . S
C343 H319 0.950 . S
C343 C342 1.524 . S
C343 C344 1.415 . S
C344 H320 0.950 . S
C344 C339 1.363 . S
C344 C343 1.415 . S
C345 H321 0.951 . S
C345 C346 1.366 . S
C345 C347 1.388 . S
C346 C345 1.366 . S
C346 C350 1.385 . S
C347 H322 0.951 . S
C347 C345 1.388 . S
C347 C348 1.366 . S
C348 C347 1.366 . S
C348 C349 1.414 . S
C348 C351 1.499 . S
C349 H323 0.950 . S
C349 C348 1.414 . S
C349 C350 1.374 . S
C350 H324 0.950 . S
C350 C346 1.385 . S
C350 C349 1.374 . S
C351 C348 1.499 . S
C351 C352 1.373 . S
C351 C353 1.389 . S
C352 H325 0.950 . S
C352 C338 1.377 . S
C352 C351 1.373 . S
C353 C337 1.377 . S
C353 C351 1.389 . S
C353 C354 1.524 . S
C354 C353 1.524 . S
C354 C355 1.397 . S
C354 C359 1.363 . S
C355 H326 0.950 . S
C355 C354 1.397 . S
C355 C356 1.334 . S
C356 H327 0.950 . S
C356 C355 1.334 . S
C356 C357 1.287 . S
C357 C356 1.287 . S
C357 C358 1.524 1_545 S
C357 H360 0.999 1_545 S
C358 H328 0.950 . S
C358 C357 1.524 1_565 S
C358 C359 1.415 1_565 S
C359 H329 0.950 . S
C359 C354 1.363 . S
C359 C358 1.415 1_545 S
H360 C357 0.999 1_565 S
H361 C342 0.913 . S
H362 C380 0.951 . S
H363 C382 0.951 . S
H364 C384 0.950 . S
H365 C385 0.950 . S
H366 C387 0.950 . S
H367 C390 0.950 . S
H368 C391 0.950 . S
H369 C393 0.950 . S
H370 C394 0.950 . S
H371 C395 0.951 . S
H372 C397 0.951 . S
H373 C399 0.950 . S
H374 C400 0.950 . S
H375 C402 0.950 . S
H376 C405 0.950 . S
H377 C406 0.950 . S
H378 C408 0.950 . S
H379 C409 0.950 . S
C380 H362 0.951 . S
C380 C381 1.366 . S
C380 C382 1.388 . S
C381 C380 1.366 . S
C381 C385 1.385 . S
C382 H363 0.951 . S
C382 C380 1.388 . S
C382 C383 1.366 . S
C383 C382 1.366 . S
C383 C384 1.414 . S
C383 C386 1.499 . S
C384 H364 0.950 . S
C384 C383 1.414 . S
C384 C385 1.374 . S
C385 H365 0.950 . S
C385 C381 1.385 . S
C385 C384 1.374 . S
C386 C383 1.499 . S
C386 C387 1.373 . S
C386 C388 1.389 . S
C387 H366 0.950 . S
C387 C386 1.373 . S
C387 C403 1.377 . S
C388 C386 1.389 . S
C388 C389 1.524 . S
C388 C402 1.377 . S
C389 C388 1.524 . S
C389 C390 1.397 . S
C389 C394 1.363 . S
C390 H367 0.950 . S
C390 C389 1.397 . S
C390 C391 1.334 . S
C391 H368 0.950 . S
C391 C390 1.334 . S
C391 C392 1.287 . S
C392 C391 1.287 . S
C392 C393 1.524 . S
C392 H411 0.913 . S
C393 H369 0.950 . S
C393 C392 1.524 . S
C393 C394 1.415 . S
C394 H370 0.950 . S
C394 C389 1.363 . S
C394 C393 1.415 . S
C395 H371 0.951 . S
C395 C396 1.366 . S
C395 C397 1.388 . S
C396 C395 1.366 . S
C396 C400 1.385 . S
C397 H372 0.951 . S
C397 C395 1.388 . S
C397 C398 1.366 . S
C398 C397 1.366 . S
C398 C399 1.414 . S
C398 C401 1.499 . S
C399 H373 0.950 . S
C399 C398 1.414 . S
C399 C400 1.374 . S
C400 H374 0.950 . S
C400 C396 1.385 . S
C400 C399 1.374 . S
C401 C398 1.499 . S
C401 C402 1.373 . S
C401 C403 1.389 . S
C402 H375 0.950 . S
C402 C388 1.377 . S
C402 C401 1.373 . S
C403 C387 1.377 . S
C403 C401 1.389 . S
C403 C404 1.524 . S
C404 C403 1.524 . S
C404 C405 1.397 . S
C404 C409 1.363 . S
C405 H376 0.950 . S
C405 C404 1.397 . S
C405 C406 1.334 . S
C406 H377 0.950 . S
C406 C405 1.334 . S
C406 C407 1.287 . S
C407 C406 1.287 . S
C407 C408 1.524 . S
C407 H410 0.999 . S
C408 H378 0.950 . S
C408 C407 1.524 . S
C408 C409 1.415 . S
C409 H379 0.950 . S
C409 C404 1.363 . S
C409 C408 1.415 . S
H410 C407 0.999 . S
H411 C392 0.913 . S
H412 C430 0.951 . S
H413 C432 0.951 . S
H414 C434 0.950 . S
H415 C435 0.950 . S
H416 C437 0.950 . S
H417 C440 0.950 . S
H418 C441 0.950 . S
H419 C443 0.950 . S
H420 C444 0.950 . S
H421 C445 0.951 . S
H422 C447 0.951 . S
H423 C449 0.950 . S
H424 C450 0.950 . S
H425 C452 0.950 . S
H426 C455 0.950 . S
H427 C456 0.950 . S
H428 C458 0.950 . S
H429 C459 0.950 . S
C430 H412 0.951 . S
C430 C431 1.366 . S
C430 C432 1.388 . S
C431 C430 1.366 . S
C431 C435 1.385 . S
C432 H413 0.951 . S
C432 C430 1.388 . S
C432 C433 1.366 . S
C433 C432 1.366 . S
C433 C434 1.414 . S
C433 C436 1.499 . S
C434 H414 0.950 . S
C434 C433 1.414 . S
C434 C435 1.374 . S
C435 H415 0.950 . S
C435 C431 1.385 . S
C435 C434 1.374 . S
C436 C433 1.499 . S
C436 C437 1.373 . S
C436 C438 1.389 . S
C437 H416 0.950 . S
C437 C436 1.373 . S
C437 C453 1.377 . S
C438 C436 1.389 . S
C438 C439 1.524 . S
C438 C452 1.377 . S
C439 C438 1.524 . S
C439 C440 1.397 . S
C439 C444 1.363 . S
C440 H417 0.950 . S
C440 C439 1.397 . S
C440 C441 1.334 . S
C441 H418 0.950 . S
C441 C440 1.334 . S
C441 C442 1.287 . S
C442 C441 1.287 . S
C442 C443 1.524 1_556 S
C442 H461 0.913 1_556 S
C443 H419 0.950 . S
C443 C442 1.524 1_554 S
C443 C444 1.415 1_554 S
C444 H420 0.950 . S
C444 C439 1.363 . S
C444 C443 1.415 1_556 S
C445 H421 0.951 . S
C445 C446 1.366 . S
C445 C447 1.388 . S
C446 C445 1.366 . S
C446 C450 1.385 . S
C447 H422 0.951 . S
C447 C445 1.388 . S
C447 C448 1.366 . S
C448 C447 1.366 . S
C448 C449 1.414 . S
C448 C451 1.499 . S
C449 H423 0.950 . S
C449 C448 1.414 . S
C449 C450 1.374 . S
C450 H424 0.950 . S
C450 C446 1.385 . S
C450 C449 1.374 . S
C451 C448 1.499 . S
C451 C452 1.373 . S
C451 C453 1.389 . S
C452 H425 0.950 . S
C452 C438 1.377 . S
C452 C451 1.373 . S
C453 C437 1.377 . S
C453 C451 1.389 . S
C453 C454 1.524 . S
C454 C453 1.524 . S
C454 C455 1.397 . S
C454 C459 1.363 . S
C455 H426 0.950 . S
C455 C454 1.397 . S
C455 C456 1.334 . S
C456 H427 0.950 . S
C456 C455 1.334 . S
C456 C457 1.287 . S
C457 C456 1.287 . S
C457 C458 1.524 . S
C457 H460 0.999 . S
C458 H428 0.950 . S
C458 C457 1.524 . S
C458 C459 1.415 . S
C459 H429 0.950 . S
C459 C454 1.363 . S
C459 C458 1.415 . S
H460 C457 0.999 . S
H461 C442 0.913 1_554 S
H462 C480 0.951 . S
H463 C482 0.951 . S
H464 C484 0.950 . S
H465 C485 0.950 . S
H466 C487 0.950 . S
H467 C490 0.950 . S
H468 C491 0.950 . S
H469 C493 0.950 . S
H470 C494 0.950 . S
H471 C495 0.951 . S
H472 C497 0.951 . S
H473 C499 0.950 . S
H474 C500 0.950 . S
H475 C502 0.950 . S
H476 C505 0.950 1_655 S
H477 C506 0.950 . S
H478 C508 0.950 . S
H479 C509 0.950 . S
C480 H462 0.951 . S
C480 C481 1.366 . S
C480 C482 1.388 . S
C481 C480 1.366 . S
C481 C485 1.385 . S
C482 H463 0.951 . S
C482 C480 1.388 . S
C482 C483 1.366 . S
C483 C482 1.366 . S
C483 C484 1.414 . S
C483 C486 1.499 . S
C484 H464 0.950 . S
C484 C483 1.414 . S
C484 C485 1.374 . S
C485 H465 0.950 . S
C485 C481 1.385 . S
C485 C484 1.374 . S
C486 C483 1.499 . S
C486 C487 1.373 . S
C486 C488 1.389 . S
C487 H466 0.950 . S
C487 C486 1.373 . S
C487 C503 1.377 . S
C488 C486 1.389 . S
C488 C489 1.524 . S
C488 C502 1.377 . S
C489 C488 1.524 . S
C489 C490 1.397 . S
C489 C494 1.363 . S
C490 H467 0.950 . S
C490 C489 1.397 . S
C490 C491 1.334 . S
C491 H468 0.950 . S
C491 C490 1.334 . S
C491 C492 1.287 . S
C492 C491 1.287 . S
C492 C493 1.524 . S
C492 H511 0.913 . S
C493 H469 0.950 . S
C493 C492 1.524 . S
C493 C494 1.415 . S
C494 H470 0.950 . S
C494 C489 1.363 . S
C494 C493 1.415 . S
C495 H471 0.951 . S
C495 C496 1.366 . S
C495 C497 1.388 . S
C496 C495 1.366 . S
C496 C500 1.385 . S
C497 H472 0.951 . S
C497 C495 1.388 . S
C497 C498 1.366 . S
C498 C497 1.366 . S
C498 C499 1.414 . S
C498 C501 1.499 . S
C499 H473 0.950 . S
C499 C498 1.414 . S
C499 C500 1.374 . S
C500 H474 0.950 . S
C500 C496 1.385 . S
C500 C499 1.374 . S
C501 C498 1.499 . S
C501 C502 1.373 . S
C501 C503 1.389 . S
C502 H475 0.950 . S
C502 C488 1.377 . S
C502 C501 1.373 . S
C503 C487 1.377 . S
C503 C501 1.389 . S
C503 C504 1.524 . S
C504 C503 1.524 . S
C504 C505 1.397 . S
C504 C509 1.363 . S
C505 H476 0.950 1_455 S
C505 C504 1.397 . S
C505 C506 1.334 1_455 S
C506 H477 0.950 . S
C506 C505 1.334 1_655 S
C506 C507 1.287 1_656 S
C507 C506 1.287 1_454 S
C507 C508 1.524 . S
C507 H510 0.999 . S
C508 H478 0.950 . S
C508 C507 1.524 . S
C508 C509 1.415 1_554 S
C509 H479 0.950 . S
C509 C504 1.363 . S
C509 C508 1.415 1_556 S
H510 C507 0.999 . S
H511 C492 0.913 . S
H512 C530 0.951 . S
H513 C532 0.951 . S
H514 C534 0.950 . S
H515 C535 0.947 1_554 S
H516 C537 0.950 1_554 S
H517 C540 0.950 . S
H518 C541 0.950 . S
H519 C543 0.950 . S
H520 C544 0.950 . S
H521 C545 0.951 . S
H522 C547 0.951 . S
H523 C549 0.950 . S
H524 C550 0.950 . S
H525 C552 0.948 . S
H526 C555 0.960 . S
H527 C556 0.950 . S
H528 C558 0.950 . S
H529 C559 0.950 . S
C530 H512 0.951 . S
C530 C531 1.366 . S
C530 C532 1.388 . S
C531 C530 1.366 . S
C531 C535 1.386 . S
C532 H513 0.951 . S
C532 C530 1.388 . S
C532 C533 1.366 . S
C533 C532 1.366 . S
C533 C534 1.414 . S
C533 C536 1.499 . S
C534 H514 0.950 . S
C534 C533 1.414 . S
C534 C535 1.376 . S
C535 H515 0.947 1_556 S
C535 C531 1.386 . S
C535 C534 1.376 . S
C536 C533 1.499 . S
C536 C537 1.373 . S
C536 C538 1.389 . S
C537 H516 0.950 1_556 S
C537 C536 1.373 . S
C537 C553 1.377 . S
C538 C536 1.389 . S
C538 C539 1.524 . S
C538 C552 1.377 . S
C539 C538 1.524 . S
C539 C540 1.397 . S
C539 C544 1.363 1_565 S
C540 H517 0.950 . S
C540 C539 1.397 . S
C540 C541 1.334 . S
C541 H518 0.950 . S
C541 C540 1.334 . S
C541 C542 1.287 . S
C542 C541 1.287 . S
C542 C543 1.524 1_565 S
C542 H561 0.913 . S
C543 H519 0.950 . S
C543 C542 1.524 1_545 S
C543 C544 1.415 . S
C544 H520 0.950 . S
C544 C539 1.363 1_545 S
C544 C543 1.415 . S
C545 H521 0.951 . S
C545 C546 1.366 1_565 S
C545 C547 1.388 . S
C546 C545 1.366 1_545 S
C546 C550 1.385 . S
C547 H522 0.951 . S
C547 C545 1.388 . S
C547 C548 1.366 . S
C548 C547 1.366 . S
C548 C549 1.414 1_565 S
C548 C551 1.499 . S
C549 H523 0.950 . S
C549 C548 1.414 1_545 S
C549 C550 1.374 . S
C550 H524 0.950 . S
C550 C546 1.385 . S
C550 C549 1.374 . S
C551 C548 1.499 . S
C551 C552 1.373 . S
C551 C553 1.389 . S
C552 H525 0.948 . S
C552 C538 1.377 . S
C552 C551 1.373 . S
C553 C537 1.377 . S
C553 C551 1.389 . S
C553 C554 1.524 1_556 S
C554 C553 1.524 1_554 S
C554 C555 1.397 . S
C554 C559 1.363 . S
C555 H526 0.960 . S
C555 C554 1.397 . S
C555 C556 1.334 . S
C556 H527 0.950 . S
C556 C555 1.334 . S
C556 C557 1.287 . S
C557 C556 1.287 . S
C557 C558 1.524 . S
C557 H560 0.999 . S
C558 H528 0.950 . S
C558 C557 1.524 . S
C558 C559 1.415 . S
C559 H529 0.950 . S
C559 C554 1.363 . S
C559 C558 1.415 . S
H560 C557 0.999 . S
H561 C542 0.913 . S
H562 C580 0.951 . S
H563 C582 0.951 . S
H564 C584 0.950 . S
H565 C585 0.950 . S
H566 C587 0.950 . S
H567 C590 0.950 . S
H568 C591 0.950 . S
H569 C593 0.950 . S
H570 C594 0.950 . S
H571 C595 0.951 . S
H572 C597 0.951 . S
H573 C599 0.950 . S
H574 C600 0.950 . S
H575 C602 0.950 . S
H576 C605 0.950 . S
H577 C606 0.950 . S
H578 C608 0.950 1_556 S
H579 C609 0.950 . S
C580 H562 0.951 . S
C580 C581 1.366 . S
C580 C582 1.388 . S
C581 C580 1.366 . S
C581 C585 1.385 . S
C582 H563 0.951 . S
C582 C580 1.388 . S
C582 C583 1.366 . S
C583 C582 1.366 . S
C583 C584 1.414 . S
C583 C586 1.499 . S
C584 H564 0.950 . S
C584 C583 1.414 . S
C584 C585 1.374 . S
C585 H565 0.950 . S
C585 C581 1.385 . S
C585 C584 1.374 . S
C586 C583 1.499 . S
C586 C587 1.373 . S
C586 C588 1.389 . S
C587 H566 0.950 . S
C587 C586 1.373 . S
C587 C603 1.377 . S
C588 C586 1.389 . S
C588 C589 1.524 . S
C588 C602 1.377 . S
C589 C588 1.524 . S
C589 C590 1.397 . S
C589 C594 1.363 . S
C590 H567 0.950 . S
C590 C589 1.397 . S
C590 C591 1.334 . S
C591 H568 0.950 . S
C591 C590 1.334 . S
C591 C592 1.287 . S
C592 C591 1.287 . S
C592 C593 1.524 . S
C592 H611 0.913 . S
C593 H569 0.950 . S
C593 C592 1.524 . S
C593 C594 1.415 . S
C594 H570 0.950 . S
C594 C589 1.363 . S
C594 C593 1.415 . S
C595 H571 0.951 . S
C595 C596 1.366 . S
C595 C597 1.388 . S
C596 C595 1.366 . S
C596 C600 1.385 1_556 S
C597 H572 0.951 . S
C597 C595 1.388 . S
C597 C598 1.366 1_556 S
C598 C597 1.366 1_554 S
C598 C599 1.414 . S
C598 C601 1.499 . S
C599 H573 0.950 . S
C599 C598 1.414 . S
C599 C600 1.374 . S
C600 H574 0.950 . S
C600 C596 1.385 1_554 S
C600 C599 1.374 . S
C601 C598 1.499 . S
C601 C602 1.373 . S
C601 C603 1.389 . S
C602 H575 0.950 . S
C602 C588 1.377 . S
C602 C601 1.373 . S
C603 C587 1.377 . S
C603 C601 1.389 . S
C603 C604 1.524 . S
C604 C603 1.524 . S
C604 C605 1.397 . S
C604 C609 1.363 . S
C605 H576 0.950 . S
C605 C604 1.397 . S
C605 C606 1.334 . S
C606 H577 0.950 . S
C606 C605 1.334 . S
C606 C607 1.287 . S
C607 C606 1.287 . S
C607 C608 1.524 . S
C607 H610 0.999 . S
C608 H578 0.950 1_554 S
C608 C607 1.524 . S
C608 C609 1.415 . S
C609 H579 0.950 . S
C609 C604 1.363 . S
C609 C608 1.415 . S
H610 C607 0.999 . S
H611 C592 0.913 . S
H612 C630 0.951 . S
H613 C632 0.951 . S
H614 C634 0.950 . S
H615 C635 0.950 . S
H616 C637 0.950 . S
H617 C640 0.950 . S
H618 C641 0.950 . S
H619 C643 0.950 . S
H620 C644 0.950 . S
H621 C645 0.951 . S
H622 C647 0.951 . S
H623 C649 0.950 . S
H624 C650 0.950 . S
H625 C652 0.950 . S
H626 C655 0.950 . S
H627 C656 0.950 . S
H628 C658 0.950 . S
H629 C659 0.950 . S
C630 H612 0.951 . S
C630 C631 1.366 . S
C630 C632 1.388 . S
C631 C630 1.366 . S
C631 C635 1.385 . S
C632 H613 0.951 . S
C632 C630 1.388 . S
C632 C633 1.366 . S
C633 C632 1.366 . S
C633 C634 1.414 . S
C633 C636 1.499 . S
C634 H614 0.950 . S
C634 C633 1.414 . S
C634 C635 1.374 . S
C635 H615 0.950 . S
C635 C631 1.385 . S
C635 C634 1.374 . S
C636 C633 1.499 . S
C636 C637 1.373 . S
C636 C638 1.389 . S
C637 H616 0.950 . S
C637 C636 1.373 . S
C637 C653 1.377 . S
C638 C636 1.389 . S
C638 C639 1.524 1_556 S
C638 C652 1.377 . S
C639 C638 1.524 1_554 S
C639 C640 1.397 . S
C639 C644 1.363 . S
C640 H617 0.950 . S
C640 C639 1.397 . S
C640 C641 1.334 . S
C641 H618 0.950 . S
C641 C640 1.334 . S
C641 C642 1.287 . S
C642 C641 1.287 . S
C642 C643 1.524 . S
C642 H661 0.913 . S
C643 H619 0.950 . S
C643 C642 1.524 . S
C643 C644 1.415 . S
C644 H620 0.950 . S
C644 C639 1.363 . S
C644 C643 1.415 . S
C645 H621 0.951 . S
C645 C646 1.366 . S
C645 C647 1.388 . S
C646 C645 1.366 . S
C646 C650 1.385 . S
C647 H622 0.951 . S
C647 C645 1.388 . S
C647 C648 1.366 . S
C648 C647 1.366 . S
C648 C649 1.414 . S
C648 C651 1.499 . S
C649 H623 0.950 . S
C649 C648 1.414 . S
C649 C650 1.374 . S
C650 H624 0.950 . S
C650 C646 1.385 . S
C650 C649 1.374 . S
C651 C648 1.499 . S
C651 C652 1.373 . S
C651 C653 1.389 . S
C652 H625 0.950 . S
C652 C638 1.377 . S
C652 C651 1.373 . S
C653 C637 1.377 . S
C653 C651 1.389 . S
C653 C654 1.524 . S
C654 C653 1.524 . S
C654 C655 1.397 . S
C654 C659 1.363 . S
C655 H626 0.950 . S
C655 C654 1.397 . S
C655 C656 1.334 . S
C656 H627 0.950 . S
C656 C655 1.334 . S
C656 C657 1.287 . S
C657 C656 1.287 . S
C657 C658 1.524 . S
C657 H660 0.999 . S
C658 H628 0.950 . S
C658 C657 1.524 . S
C658 C659 1.415 . S
C659 H629 0.950 . S
C659 C654 1.363 . S
C659 C658 1.415 . S
H660 C657 0.999 . S
H661 C642 0.913 . S
H662 C680 0.951 . S
H663 C682 0.951 . S
H664 C684 0.950 . S
H665 C685 0.950 . S
H666 C687 0.934 1_655 S
H667 C690 0.950 . S
H668 C691 0.950 . S
H669 C693 0.978 . S
H670 C694 0.950 . S
H671 C695 0.951 . S
H672 C697 0.951 . S
H673 C699 0.950 . S
H674 C700 0.950 1_655 S
H675 C702 0.950 . S
H676 C705 0.950 . S
H677 C706 0.950 . S
H678 C708 0.950 . S
H679 C709 0.950 . S
C680 H662 0.951 . S
C680 C681 1.366 . S
C680 C682 1.388 . S
C681 C680 1.366 . S
C681 C685 1.385 1_654 S
C682 H663 0.951 . S
C682 C680 1.388 . S
C682 C683 1.366 1_554 S
C683 C682 1.366 1_556 S
C683 C684 1.414 1_655 S
C683 C686 1.499 1_655 S
C684 H664 0.950 . S
C684 C683 1.414 1_455 S
C684 C685 1.374 . S
C685 H665 0.950 . S
C685 C681 1.385 1_456 S
C685 C684 1.374 . S
C686 C683 1.499 1_455 S
C686 C687 1.375 . S
C686 C688 1.389 1_556 S
C687 H666 0.934 1_455 S
C687 C686 1.375 . S
C687 C703 1.388 . S
C688 C686 1.389 1_554 S
C688 C689 1.524 . S
C688 C702 1.377 . S
C689 C688 1.524 . S
C689 C690 1.397 . S
C689 C694 1.363 1_455 S
C690 H667 0.950 . S
C690 C689 1.397 . S
C690 C691 1.334 . S
C691 H668 0.950 . S
C691 C690 1.334 . S
C691 C692 1.287 . S
C692 C691 1.287 . S
C692 C693 1.485 1_455 S
C692 H711 0.913 . S
C693 H669 0.978 . S
C693 C692 1.485 1_655 S
C693 C694 1.425 . S
C694 H670 0.950 . S
C694 C689 1.363 1_655 S
C694 C693 1.425 . S
C695 H671 0.951 . S
C695 C696 1.366 . S
C695 C697 1.388 . S
C696 C695 1.366 . S
C696 C700 1.385 . S
C697 H672 0.951 . S
C697 C695 1.388 . S
C697 C698 1.366 . S
C698 C697 1.366 . S
C698 C699 1.414 1_455 S
C698 C701 1.499 . S
C699 H673 0.950 . S
C699 C698 1.414 1_655 S
C699 C700 1.374 1_655 S
C700 H674 0.950 1_455 S
C700 C696 1.385 . S
C700 C699 1.374 1_455 S
C701 C698 1.499 . S
C701 C702 1.373 1_556 S
C701 C703 1.389 . S
C702 H675 0.950 . S
C702 C688 1.377 . S
C702 C701 1.373 1_554 S
C703 C687 1.388 . S
C703 C701 1.389 . S
C703 C704 1.525 1_455 S
C704 C703 1.525 1_655 S
C704 C705 1.394 . S
C704 C709 1.365 1_655 S
C705 H676 0.950 . S
C705 C704 1.394 . S
C705 C706 1.334 . S
C706 H677 0.950 . S
C706 C705 1.334 . S
C706 C707 1.287 . S
C707 C706 1.287 . S
C707 C708 1.524 1_655 S
C707 H710 0.999 . S
C708 H678 0.950 . S
C708 C707 1.524 1_455 S
C708 C709 1.415 . S
C709 H679 0.950 . S
C709 C704 1.365 1_455 S
C709 C708 1.415 . S
H710 C707 0.999 . S
H711 C692 0.913 . S
H712 C730 0.951 . S
H713 C732 0.951 . S
H714 C734 0.950 . S
H715 C735 0.950 . S
H716 C737 0.950 . S
H717 C740 0.950 . S
H718 C741 0.950 . S
H719 C743 0.950 1_554 S
H720 C744 0.950 . S
H721 C745 0.951 . S
H722 C747 0.951 . S
H723 C749 0.950 . S
H724 C750 0.950 . S
H725 C752 0.950 . S
H726 C755 0.950 1_655 S
H727 C756 0.950 . S
H728 C758 0.950 . S
H729 C759 0.950 . S
C730 H712 0.951 . S
C730 C731 1.366 . S
C730 C732 1.388 . S
C731 C730 1.366 . S
C731 C735 1.385 . S
C732 H713 0.951 . S
C732 C730 1.388 . S
C732 C733 1.366 . S
C733 C732 1.366 . S
C733 C734 1.414 . S
C733 C736 1.499 . S
C734 H714 0.950 . S
C734 C733 1.414 . S
C734 C735 1.374 . S
C735 H715 0.950 . S
C735 C731 1.385 . S
C735 C734 1.374 . S
C736 C733 1.499 . S
C736 C737 1.373 . S
C736 C738 1.389 . S
C737 H716 0.950 . S
C737 C736 1.373 . S
C737 C753 1.377 . S
C738 C736 1.389 . S
C738 C739 1.524 . S
C738 C752 1.377 . S
C739 C738 1.524 . S
C739 C740 1.397 . S
C739 C744 1.363 . S
C740 H717 0.950 . S
C740 C739 1.397 . S
C740 C741 1.334 . S
C741 H718 0.950 . S
C741 C740 1.334 . S
C741 C742 1.287 . S
C742 C741 1.287 . S
C742 C743 1.524 . S
C742 H761 0.913 . S
C743 H719 0.950 1_556 S
C743 C742 1.524 . S
C743 C744 1.415 . S
C744 H720 0.950 . S
C744 C739 1.363 . S
C744 C743 1.415 . S
C745 H721 0.951 . S
C745 C746 1.366 . S
C745 C747 1.388 . S
C746 C745 1.366 . S
C746 C750 1.385 . S
C747 H722 0.951 . S
C747 C745 1.388 . S
C747 C748 1.366 . S
C748 C747 1.366 . S
C748 C749 1.414 . S
C748 C751 1.499 . S
C749 H723 0.950 . S
C749 C748 1.414 . S
C749 C750 1.374 . S
C750 H724 0.950 . S
C750 C746 1.385 . S
C750 C749 1.374 . S
C751 C748 1.499 . S
C751 C752 1.373 . S
C751 C753 1.389 . S
C752 H725 0.950 . S
C752 C738 1.377 . S
C752 C751 1.373 . S
C753 C737 1.377 . S
C753 C751 1.389 . S
C753 C754 1.524 . S
C754 C753 1.524 . S
C754 C755 1.397 . S
C754 C759 1.363 . S
C755 H726 0.950 1_455 S
C755 C754 1.397 . S
C755 C756 1.334 1_455 S
C756 H727 0.950 . S
C756 C755 1.334 1_655 S
C756 C757 1.287 1_655 S
C757 C756 1.287 1_455 S
C757 C758 1.524 . S
C757 H760 0.999 1_455 S
C758 H728 0.950 . S
C758 C757 1.524 . S
C758 C759 1.415 . S
C759 H729 0.950 . S
C759 C754 1.363 . S
C759 C758 1.415 . S
H760 C757 0.999 1_655 S
H761 C742 0.913 . S
H762 C780 0.951 . S
H763 C782 0.951 . S
H764 C784 0.950 . S
H765 C785 0.950 . S
H766 C787 0.950 . S
H767 C790 0.950 . S
H768 C791 0.950 . S
H769 C793 0.950 . S
H770 C794 0.950 . S
H771 C795 0.951 . S
H772 C797 0.951 . S
H773 C799 0.950 . S
H774 C800 0.950 . S
H775 C802 0.950 . S
H776 C805 0.950 . S
H777 C806 0.950 . S
H778 C808 0.950 . S
H779 C809 0.950 . S
C780 H762 0.951 . S
C780 C781 1.366 . S
C780 C782 1.388 . S
C781 C780 1.366 . S
C781 C785 1.385 . S
C782 H763 0.951 . S
C782 C780 1.388 . S
C782 C783 1.366 . S
C783 C782 1.366 . S
C783 C784 1.414 . S
C783 C786 1.499 . S
C784 H764 0.950 . S
C784 C783 1.414 . S
C784 C785 1.374 . S
C785 H765 0.950 . S
C785 C781 1.385 . S
C785 C784 1.374 . S
C786 C783 1.499 . S
C786 C787 1.373 . S
C786 C788 1.389 . S
C787 H766 0.950 . S
C787 C786 1.373 . S
C787 C803 1.377 . S
C788 C786 1.389 . S
C788 C789 1.524 . S
C788 C802 1.377 . S
C789 C788 1.524 . S
C789 C790 1.397 . S
C789 C794 1.363 . S
C790 H767 0.950 . S
C790 C789 1.397 . S
C790 C791 1.334 . S
C791 H768 0.950 . S
C791 C790 1.334 . S
C791 C792 1.287 . S
C792 C791 1.287 . S
C792 C793 1.524 . S
C792 H811 0.913 . S
C793 H769 0.950 . S
C793 C792 1.524 . S
C793 C794 1.415 . S
C794 H770 0.950 . S
C794 C789 1.363 . S
C794 C793 1.415 . S
C795 H771 0.951 . S
C795 C796 1.366 . S
C795 C797 1.388 . S
C796 C795 1.366 . S
C796 C800 1.385 . S
C797 H772 0.951 . S
C797 C795 1.388 . S
C797 C798 1.366 . S
C798 C797 1.366 . S
C798 C799 1.414 . S
C798 C801 1.499 . S
C799 H773 0.950 . S
C799 C798 1.414 . S
C799 C800 1.374 . S
C800 H774 0.950 . S
C800 C796 1.385 . S
C800 C799 1.374 . S
C801 C798 1.499 . S
C801 C802 1.373 . S
C801 C803 1.389 . S
C802 H775 0.950 . S
C802 C788 1.377 . S
C802 C801 1.373 . S
C803 C787 1.377 . S
C803 C801 1.389 . S
C803 C804 1.524 . S
C804 C803 1.524 . S
C804 C805 1.397 . S
C804 C809 1.363 . S
C805 H776 0.950 . S
C805 C804 1.397 . S
C805 C806 1.334 1_556 S
C806 H777 0.950 . S
C806 C805 1.334 1_554 S
C806 C807 1.287 . S
C807 C806 1.287 . S
C807 C808 1.524 . S
C807 H810 0.999 . S
C808 H778 0.950 . S
C808 C807 1.524 . S
C808 C809 1.415 1_554 S
C809 H779 0.950 . S
C809 C804 1.363 . S
C809 C808 1.415 1_556 S
H810 C807 0.999 . S
H811 C792 0.913 . S
H812 C830 0.951 . S
H813 C832 0.951 . S
H814 C834 0.950 . S
H815 C835 0.950 . S
H816 C837 0.950 . S
H817 C840 0.950 . S
H818 C841 0.950 . S
H819 C843 0.950 . S
H820 C844 0.950 . S
H821 C845 0.951 . S
H822 C847 0.951 . S
H823 C849 0.950 . S
H824 C850 0.950 . S
H825 C852 0.950 . S
H826 C855 0.950 . S
H827 C856 0.950 . S
H828 C858 0.950 . S
H829 C859 0.950 . S
C830 H812 0.951 . S
C830 C831 1.366 . S
C830 C832 1.388 . S
C831 C830 1.366 . S
C831 C835 1.385 . S
C832 H813 0.951 . S
C832 C830 1.388 . S
C832 C833 1.366 . S
C833 C832 1.366 . S
C833 C834 1.414 . S
C833 C836 1.499 . S
C834 H814 0.950 . S
C834 C833 1.414 . S
C834 C835 1.374 . S
C835 H815 0.950 . S
C835 C831 1.385 . S
C835 C834 1.374 . S
C836 C833 1.499 . S
C836 C837 1.373 . S
C836 C838 1.389 . S
C837 H816 0.950 . S
C837 C836 1.373 . S
C837 C853 1.377 . S
C838 C836 1.389 . S
C838 C839 1.524 . S
C838 C852 1.377 . S
C839 C838 1.524 . S
C839 C840 1.397 . S
C839 C844 1.363 . S
C840 H817 0.950 . S
C840 C839 1.397 . S
C840 C841 1.334 . S
C841 H818 0.950 . S
C841 C840 1.334 . S
C841 C842 1.287 . S
C842 C841 1.287 . S
C842 C843 1.524 . S
C842 H861 0.913 . S
C843 H819 0.950 . S
C843 C842 1.524 . S
C843 C844 1.415 . S
C844 H820 0.950 . S
C844 C839 1.363 . S
C844 C843 1.415 . S
C845 H821 0.951 . S
C845 C846 1.366 . S
C845 C847 1.388 . S
C846 C845 1.366 . S
C846 C850 1.385 . S
C847 H822 0.951 . S
C847 C845 1.388 . S
C847 C848 1.366 . S
C848 C847 1.366 . S
C848 C849 1.414 . S
C848 C851 1.499 . S
C849 H823 0.950 . S
C849 C848 1.414 . S
C849 C850 1.374 . S
C850 H824 0.950 . S
C850 C846 1.385 . S
C850 C849 1.374 . S
C851 C848 1.499 . S
C851 C852 1.373 . S
C851 C853 1.389 . S
C852 H825 0.950 . S
C852 C838 1.377 . S
C852 C851 1.373 . S
C853 C837 1.377 . S
C853 C851 1.389 . S
C853 C854 1.524 . S
C854 C853 1.524 . S
C854 C855 1.397 . S
C854 C859 1.363 . S
C855 H826 0.950 . S
C855 C854 1.397 . S
C855 C856 1.334 . S
C856 H827 0.950 . S
C856 C855 1.334 . S
C856 C857 1.287 . S
C857 C856 1.287 . S
C857 C858 1.524 . S
C857 H860 0.999 . S
C858 H828 0.950 . S
C858 C857 1.524 . S
C858 C859 1.415 . S
C859 H829 0.950 . S
C859 C854 1.363 . S
C859 C858 1.415 . S
H860 C857 0.999 . S
H861 C842 0.913 . S
H862 C880 0.951 . S
H863 C882 0.951 . S
H864 C884 0.950 . S
H865 C885 0.950 . S
H866 C887 0.950 . S
H867 C890 0.950 . S
H868 C891 0.950 . S
H869 C893 0.950 . S
H870 C894 0.950 . S
H871 C895 0.951 . S
H872 C897 0.951 . S
H873 C899 0.950 . S
H874 C900 0.950 . S
H875 C902 0.950 . S
H876 C905 0.950 . S
H877 C906 0.950 . S
H878 C908 0.950 . S
H879 C909 0.950 . S
C880 H862 0.951 . S
C880 C881 1.366 . S
C880 C882 1.388 . S
C881 C880 1.366 . S
C881 C885 1.385 . S
C882 H863 0.951 . S
C882 C880 1.388 . S
C882 C883 1.366 . S
C883 C882 1.366 . S
C883 C884 1.414 . S
C883 C886 1.499 . S
C884 H864 0.950 . S
C884 C883 1.414 . S
C884 C885 1.374 . S
C885 H865 0.950 . S
C885 C881 1.385 . S
C885 C884 1.374 . S
C886 C883 1.499 . S
C886 C887 1.373 . S
C886 C888 1.389 . S
C887 H866 0.950 . S
C887 C886 1.373 . S
C887 C903 1.377 . S
C888 C886 1.389 . S
C888 C889 1.524 . S
C888 C902 1.377 . S
C889 C888 1.524 . S
C889 C890 1.397 . S
C889 C894 1.363 . S
C890 H867 0.950 . S
C890 C889 1.397 . S
C890 C891 1.334 . S
C891 H868 0.950 . S
C891 C890 1.334 . S
C891 C892 1.287 . S
C892 C891 1.287 . S
C892 C893 1.524 . S
C892 H911 0.913 . S
C893 H869 0.950 . S
C893 C892 1.524 . S
C893 C894 1.415 . S
C894 H870 0.950 . S
C894 C889 1.363 . S
C894 C893 1.415 . S
C895 H871 0.951 . S
C895 C896 1.366 . S
C895 C897 1.388 . S
C896 C895 1.366 . S
C896 C900 1.385 . S
C897 H872 0.951 . S
C897 C895 1.388 . S
C897 C898 1.366 . S
C898 C897 1.366 . S
C898 C899 1.414 . S
C898 C901 1.499 . S
C899 H873 0.950 . S
C899 C898 1.414 . S
C899 C900 1.374 . S
C900 H874 0.950 . S
C900 C896 1.385 . S
C900 C899 1.374 . S
C901 C898 1.499 . S
C901 C902 1.373 . S
C901 C903 1.389 . S
C902 H875 0.950 . S
C902 C888 1.377 . S
C902 C901 1.373 . S
C903 C887 1.377 . S
C903 C901 1.389 . S
C903 C904 1.524 . S
C904 C903 1.524 . S
C904 C905 1.397 . S
C904 C909 1.363 . S
C905 H876 0.950 . S
C905 C904 1.397 . S
C905 C906 1.334 1_556 S
C906 H877 0.950 . S
C906 C905 1.334 1_554 S
C906 C907 1.287 . S
C907 C906 1.287 . S
C907 C908 1.524 . S
C907 H910 0.999 . S
C908 H878 0.950 . S
C908 C907 1.524 . S
C908 C909 1.415 1_554 S
C909 H879 0.950 . S
C909 C904 1.363 . S
C909 C908 1.415 1_556 S
H910 C907 0.999 . S
H911 C892 0.913 . S
H912 C930 0.951 . S
H913 C932 0.951 . S
H914 C934 0.962 . S
H915 C935 0.950 1_455 S
H916 C937 0.950 . S
H917 C940 0.950 . S
H918 C941 0.950 . S
H919 C943 0.950 . S
H920 C944 0.950 . S
H921 C945 0.938 1_554 S
H922 C947 0.951 1_554 S
H923 C949 0.934 1_655 S
H924 C950 0.950 . S
H925 C952 0.950 . S
H926 C955 0.950 1_556 S
H927 C956 0.950 . S
H928 C958 0.950 . S
H929 C959 0.950 . S
C930 H912 0.951 . S
C930 C931 1.366 1_556 S
C930 C932 1.388 . S
C931 C930 1.366 1_554 S
C931 C935 1.385 . S
C932 H913 0.951 . S
C932 C930 1.388 . S
C932 C933 1.366 . S
C933 C932 1.366 . S
C933 C934 1.405 1_656 S
C933 C936 1.498 1_655 S
C934 H914 0.962 . S
C934 C933 1.405 1_454 S
C934 C935 1.373 1_455 S
C935 H915 0.950 1_655 S
C935 C931 1.385 . S
C935 C934 1.373 1_655 S
C936 C933 1.498 1_455 S
C936 C937 1.364 1_456 S
C936 C938 1.398 . S
C937 H916 0.950 . S
C937 C936 1.364 1_654 S
C937 C953 1.377 . S
C938 C936 1.398 . S
C938 C939 1.524 . S
C938 C952 1.377 . S
C939 C938 1.524 . S
C939 C940 1.397 . S
C939 C944 1.363 . S
C940 H917 0.950 . S
C940 C939 1.397 . S
C940 C941 1.334 . S
C941 H918 0.950 . S
C941 C940 1.334 . S
C941 C942 1.287 . S
C942 C941 1.287 . S
C942 C943 1.524 . S
C942 H961 0.913 . S
C943 H919 0.950 . S
C943 C942 1.524 . S
C943 C944 1.415 . S
C944 H920 0.950 . S
C944 C939 1.363 . S
C944 C943 1.415 . S
C945 H921 0.938 1_556 S
C945 C946 1.366 . S
C945 C947 1.388 . S
C946 C945 1.366 . S
C946 C950 1.385 . S
C947 H922 0.951 1_556 S
C947 C945 1.388 . S
C947 C948 1.366 . S
C948 C947 1.366 . S
C948 C949 1.414 . S
C948 C951 1.499 . S
C949 H923 0.934 1_455 S
C949 C948 1.414 . S
C949 C950 1.374 . S
C950 H924 0.950 . S
C950 C946 1.385 . S
C950 C949 1.374 . S
C951 C948 1.499 . S
C951 C952 1.373 . S
C951 C953 1.389 1_456 S
C952 H925 0.950 . S
C952 C938 1.377 . S
C952 C951 1.373 . S
C953 C937 1.377 . S
C953 C951 1.389 1_654 S
C953 C954 1.524 . S
C954 C953 1.524 . S
C954 C955 1.397 . S
C954 C959 1.363 . S
C955 H926 0.950 1_554 S
C955 C954 1.397 . S
C955 C956 1.334 . S
C956 H927 0.950 . S
C956 C955 1.334 . S
C956 C957 1.287 . S
C957 C956 1.287 . S
C957 C958 1.524 . S
C957 H960 0.999 . S
C958 H928 0.950 . S
C958 C957 1.524 . S
C958 C959 1.415 . S
C959 H929 0.950 . S
C959 C954 1.363 . S
C959 C958 1.415 . S
H960 C957 0.999 . S
H961 C942 0.913 . S
H962 C980 0.951 . S
H963 C982 0.951 . S
H964 C984 0.950 . S
H965 C985 0.950 . S
H966 C987 0.950 . S
H967 C990 0.955 . S
H968 C991 0.950 . S
H969 C993 0.950 . S
H970 C994 0.950 . S
H971 C995 0.955 1_565 S
H972 C997 0.951 1_554 S
H973 C999 0.950 . S
H974 C1000 0.950 . S
H975 C1002 0.950 . S
H976 C1005 0.950 . S
H977 C1006 0.950 . S
H978 C1008 0.950 . S
H979 C1009 0.950 . S
C980 H962 0.951 . S
C980 C981 1.366 . S
C980 C982 1.388 . S
C981 C980 1.366 . S
C981 C985 1.385 1_556 S
C982 H963 0.951 . S
C982 C980 1.388 . S
C982 C983 1.366 . S
C983 C982 1.366 . S
C983 C984 1.414 1_556 S
C983 C986 1.499 . S
C984 H964 0.950 . S
C984 C983 1.414 1_554 S
C984 C985 1.374 . S
C985 H965 0.950 . S
C985 C981 1.385 1_554 S
C985 C984 1.374 . S
C986 C983 1.499 . S
C986 C987 1.373 . S
C986 C988 1.389 . S
C987 H966 0.950 . S
C987 C986 1.373 . S
C987 C1003 1.377 . S
C988 C986 1.389 . S
C988 C989 1.524 1_565 S
C988 C1002 1.377 1_565 S
C989 C988 1.524 1_545 S
C989 C990 1.397 . S
C989 C994 1.363 . S
C990 H967 0.955 . S
C990 C989 1.397 . S
C990 C991 1.334 . S
C991 H968 0.950 . S
C991 C990 1.334 . S
C991 C992 1.287 . S
C992 C991 1.287 . S
C992 C993 1.524 . S
C992 H1011 0.913 . S
C993 H969 0.950 . S
C993 C992 1.524 . S
C993 C994 1.415 . S
C994 H970 0.950 . S
C994 C989 1.363 . S
C994 C993 1.415 . S
C995 H971 0.955 1_545 S
C995 C996 1.382 . S
C995 C997 1.369 1_545 S
C996 C995 1.382 . S
C996 C1000 1.385 . S
C997 H972 0.951 1_556 S
C997 C995 1.369 1_565 S
C997 C998 1.366 . S
C998 C997 1.366 . S
C998 C999 1.414 1_565 S
C998 C1001 1.499 . S
C999 H973 0.950 . S
C999 C998 1.414 1_545 S
C999 C1000 1.374 . S
C1000 H974 0.950 . S
C1000 C996 1.385 . S
C1000 C999 1.374 . S
C1001 C998 1.499 . S
C1001 C1002 1.373 1_565 S
C1001 C1003 1.389 . S
C1002 H975 0.950 . S
C1002 C988 1.377 1_545 S
C1002 C1001 1.373 1_545 S
C1003 C987 1.377 . S
C1003 C1001 1.389 . S
C1003 C1004 1.524 . S
C1004 C1003 1.524 . S
C1004 C1005 1.397 . S
C1004 C1009 1.363 1_556 S
C1005 H976 0.950 . S
C1005 C1004 1.397 . S
C1005 C1006 1.334 . S
C1006 H977 0.950 . S
C1006 C1005 1.334 . S
C1006 C1007 1.287 . S
C1007 C1006 1.287 . S
C1007 C1008 1.524 1_556 S
C1007 H1010 0.999 . S
C1008 H978 0.950 . S
C1008 C1007 1.524 1_554 S
C1008 C1009 1.415 . S
C1009 H979 0.950 . S
C1009 C1004 1.363 1_554 S
C1009 C1008 1.415 . S
H1010 C1007 0.999 . S
H1011 C992 0.913 . S
H1012 C1030 0.951 . S
H1013 C1032 0.951 . S
H1014 C1034 0.950 . S
H1015 C1035 0.950 . S
H1016 C1037 0.950 . S
H1017 C1040 0.950 . S
H1018 C1041 0.950 . S
H1019 C1043 0.950 . S
H1020 C1044 0.950 . S
H1021 C1045 0.951 1_556 S
H1022 C1047 0.951 . S
H1023 C1049 0.950 . S
H1024 C1050 0.950 . S
H1025 C1052 0.950 . S
H1026 C1055 0.950 . S
H1027 C1056 0.950 . S
H1028 C1058 0.950 . S
H1029 C1059 0.950 . S
C1030 H1012 0.951 . S
C1030 C1031 1.366 . S
C1030 C1032 1.388 . S
C1031 C1030 1.366 . S
C1031 C1035 1.385 . S
C1032 H1013 0.951 . S
C1032 C1030 1.388 . S
C1032 C1033 1.366 . S
C1033 C1032 1.366 . S
C1033 C1034 1.414 . S
C1033 C1036 1.499 . S
C1034 H1014 0.950 . S
C1034 C1033 1.414 . S
C1034 C1035 1.374 . S
C1035 H1015 0.950 . S
C1035 C1031 1.385 . S
C1035 C1034 1.374 . S
C1036 C1033 1.499 . S
C1036 C1037 1.373 . S
C1036 C1038 1.389 . S
C1037 H1016 0.950 . S
C1037 C1036 1.373 . S
C1037 C1053 1.377 . S
C1038 C1036 1.389 . S
C1038 C1039 1.524 . S
C1038 C1052 1.377 . S
C1039 C1038 1.524 . S
C1039 C1040 1.397 . S
C1039 C1044 1.363 . S
C1040 H1017 0.950 . S
C1040 C1039 1.397 . S
C1040 C1041 1.334 . S
C1041 H1018 0.950 . S
C1041 C1040 1.334 . S
C1041 C1042 1.287 . S
C1042 C1041 1.287 . S
C1042 C1043 1.524 . S
C1042 H1061 0.913 . S
C1043 H1019 0.950 . S
C1043 C1042 1.524 . S
C1043 C1044 1.415 . S
C1044 H1020 0.950 . S
C1044 C1039 1.363 . S
C1044 C1043 1.415 . S
C1045 H1021 0.951 1_554 S
C1045 C1046 1.366 . S
C1045 C1047 1.388 . S
C1046 C1045 1.366 . S
C1046 C1050 1.385 . S
C1047 H1022 0.951 . S
C1047 C1045 1.388 . S
C1047 C1048 1.366 . S
C1048 C1047 1.366 . S
C1048 C1049 1.414 . S
C1048 C1051 1.499 . S
C1049 H1023 0.950 . S
C1049 C1048 1.414 . S
C1049 C1050 1.374 . S
C1050 H1024 0.950 . S
C1050 C1046 1.385 . S
C1050 C1049 1.374 . S
C1051 C1048 1.499 . S
C1051 C1052 1.373 . S
C1051 C1053 1.389 . S
C1052 H1025 0.950 . S
C1052 C1038 1.377 . S
C1052 C1051 1.373 . S
C1053 C1037 1.377 . S
C1053 C1051 1.389 . S
C1053 C1054 1.524 . S
C1054 C1053 1.524 . S
C1054 C1055 1.397 . S
C1054 C1059 1.363 . S
C1055 H1026 0.950 . S
C1055 C1054 1.397 . S
C1055 C1056 1.334 . S
C1056 H1027 0.950 . S
C1056 C1055 1.334 . S
C1056 C1057 1.287 . S
C1057 C1056 1.287 . S
C1057 C1058 1.524 . S
C1057 H1060 0.999 . S
C1058 H1028 0.950 . S
C1058 C1057 1.524 . S
C1058 C1059 1.415 . S
C1059 H1029 0.950 . S
C1059 C1054 1.363 . S
C1059 C1058 1.415 . S
H1060 C1057 0.999 . S
H1061 C1042 0.913 . S
H1062 C1080 0.951 . S
H1063 C1082 0.951 . S
H1064 C1084 0.950 . S
H1065 C1085 0.950 . S
H1066 C1087 0.950 . S
H1067 C1090 0.950 . S
H1068 C1091 0.950 . S
H1069 C1093 0.950 . S
H1070 C1094 0.950 1_556 S
H1071 C1095 0.951 . S
H1072 C1097 0.951 . S
H1073 C1099 0.950 . S
H1074 C1100 0.950 . S
H1075 C1102 0.950 . S
H1076 C1105 0.950 . S
H1077 C1106 0.950 . S
H1078 C1108 0.950 . S
H1079 C1109 0.950 . S
C1080 H1062 0.951 . S
C1080 C1081 1.366 . S
C1080 C1082 1.388 . S
C1081 C1080 1.366 . S
C1081 C1085 1.385 . S
C1082 H1063 0.951 . S
C1082 C1080 1.388 . S
C1082 C1083 1.366 . S
C1083 C1082 1.366 . S
C1083 C1084 1.414 . S
C1083 C1086 1.499 . S
C1084 H1064 0.950 . S
C1084 C1083 1.414 . S
C1084 C1085 1.374 . S
C1085 H1065 0.950 . S
C1085 C1081 1.385 . S
C1085 C1084 1.374 . S
C1086 C1083 1.499 . S
C1086 C1087 1.373 . S
C1086 C1088 1.389 . S
C1087 H1066 0.950 . S
C1087 C1086 1.373 . S
C1087 C1103 1.377 . S
C1088 C1086 1.389 . S
C1088 C1089 1.524 1_556 S
C1088 C1102 1.377 . S
C1089 C1088 1.524 1_554 S
C1089 C1090 1.397 . S
C1089 C1094 1.363 . S
C1090 H1067 0.950 . S
C1090 C1089 1.397 . S
C1090 C1091 1.334 . S
C1091 H1068 0.950 . S
C1091 C1090 1.334 . S
C1091 C1092 1.287 . S
C1092 C1091 1.287 . S
C1092 C1093 1.524 . S
C1092 H1111 0.913 . S
C1093 H1069 0.950 . S
C1093 C1092 1.524 . S
C1093 C1094 1.415 . S
C1094 H1070 0.950 1_554 S
C1094 C1089 1.363 . S
C1094 C1093 1.415 . S
C1095 H1071 0.951 . S
C1095 C1096 1.366 . S
C1095 C1097 1.388 . S
C1096 C1095 1.366 . S
C1096 C1100 1.385 . S
C1097 H1072 0.951 . S
C1097 C1095 1.388 . S
C1097 C1098 1.366 . S
C1098 C1097 1.366 . S
C1098 C1099 1.414 . S
C1098 C1101 1.499 . S
C1099 H1073 0.950 . S
C1099 C1098 1.414 . S
C1099 C1100 1.374 . S
C1100 H1074 0.950 . S
C1100 C1096 1.385 . S
C1100 C1099 1.374 . S
C1101 C1098 1.499 . S
C1101 C1102 1.373 . S
C1101 C1103 1.389 . S
C1102 H1075 0.950 . S
C1102 C1088 1.377 . S
C1102 C1101 1.373 . S
C1103 C1087 1.377 . S
C1103 C1101 1.389 . S
C1103 C1104 1.524 . S
C1104 C1103 1.524 . S
C1104 C1105 1.397 . S
C1104 C1109 1.363 . S
C1105 H1076 0.950 . S
C1105 C1104 1.397 . S
C1105 C1106 1.334 . S
C1106 H1077 0.950 . S
C1106 C1105 1.334 . S
C1106 C1107 1.287 . S
C1107 C1106 1.287 . S
C1107 C1108 1.524 . S
C1107 H1110 0.999 . S
C1108 H1078 0.950 . S
C1108 C1107 1.524 . S
C1108 C1109 1.415 . S
C1109 H1079 0.950 . S
C1109 C1104 1.363 . S
C1109 C1108 1.415 . S
H1110 C1107 0.999 . S
H1111 C1092 0.913 . S
H1112 C1130 0.951 . S
H1113 C1132 0.951 . S
H1114 C1134 0.950 . S
H1115 C1135 0.950 . S
H1116 C1137 0.950 . S
H1117 C1140 0.950 . S
H1118 C1141 0.950 . S
H1119 C1143 0.950 . S
H1120 C1144 0.950 . S
H1121 C1145 0.951 . S
H1122 C1147 0.951 . S
H1123 C1149 0.950 . S
H1124 C1150 0.950 . S
H1125 C1152 0.950 . S
H1126 C1155 0.950 . S
H1127 C1156 0.950 . S
H1128 C1158 0.950 1_655 S
H1129 C1159 0.950 . S
C1130 H1112 0.951 . S
C1130 C1131 1.366 . S
C1130 C1132 1.388 . S
C1131 C1130 1.366 . S
C1131 C1135 1.385 . S
C1132 H1113 0.951 . S
C1132 C1130 1.388 . S
C1132 C1133 1.366 . S
C1133 C1132 1.366 . S
C1133 C1134 1.414 . S
C1133 C1136 1.499 . S
C1134 H1114 0.950 . S
C1134 C1133 1.414 . S
C1134 C1135 1.374 . S
C1135 H1115 0.950 . S
C1135 C1131 1.385 . S
C1135 C1134 1.374 . S
C1136 C1133 1.499 . S
C1136 C1137 1.373 . S
C1136 C1138 1.389 . S
C1137 H1116 0.950 . S
C1137 C1136 1.373 . S
C1137 C1153 1.377 . S
C1138 C1136 1.389 . S
C1138 C1139 1.524 . S
C1138 C1152 1.377 . S
C1139 C1138 1.524 . S
C1139 C1140 1.397 . S
C1139 C1144 1.363 . S
C1140 H1117 0.950 . S
C1140 C1139 1.397 . S
C1140 C1141 1.334 . S
C1141 H1118 0.950 . S
C1141 C1140 1.334 . S
C1141 C1142 1.287 . S
C1142 C1141 1.287 . S
C1142 C1143 1.524 . S
C1142 H1161 0.913 . S
C1143 H1119 0.950 . S
C1143 C1142 1.524 . S
C1143 C1144 1.415 . S
C1144 H1120 0.950 . S
C1144 C1139 1.363 . S
C1144 C1143 1.415 . S
C1145 H1121 0.951 . S
C1145 C1146 1.366 . S
C1145 C1147 1.388 . S
C1146 C1145 1.366 . S
C1146 C1150 1.385 . S
C1147 H1122 0.951 . S
C1147 C1145 1.388 . S
C1147 C1148 1.366 . S
C1148 C1147 1.366 . S
C1148 C1149 1.414 . S
C1148 C1151 1.499 . S
C1149 H1123 0.950 . S
C1149 C1148 1.414 . S
C1149 C1150 1.374 . S
C1150 H1124 0.950 . S
C1150 C1146 1.385 . S
C1150 C1149 1.374 . S
C1151 C1148 1.499 . S
C1151 C1152 1.373 . S
C1151 C1153 1.389 . S
C1152 H1125 0.950 . S
C1152 C1138 1.377 . S
C1152 C1151 1.373 . S
C1153 C1137 1.377 . S
C1153 C1151 1.389 . S
C1153 C1154 1.524 . S
C1154 C1153 1.524 . S
C1154 C1155 1.397 . S
C1154 C1159 1.363 . S
C1155 H1126 0.950 . S
C1155 C1154 1.397 . S
C1155 C1156 1.334 . S
C1156 H1127 0.950 . S
C1156 C1155 1.334 . S
C1156 C1157 1.287 . S
C1157 C1156 1.287 . S
C1157 C1158 1.524 . S
C1157 H1160 0.999 . S
C1158 H1128 0.950 1_455 S
C1158 C1157 1.524 . S
C1158 C1159 1.415 . S
C1159 H1129 0.950 . S
C1159 C1154 1.363 . S
C1159 C1158 1.415 . S
H1160 C1157 0.999 . S
H1161 C1142 0.913 . S
H1162 C1180 0.951 . S
H1163 C1182 0.951 . S
H1164 C1184 0.950 . S
H1165 C1185 0.950 . S
H1166 C1187 0.950 . S
H1167 C1190 0.950 . S
H1168 C1191 0.950 . S
H1169 C1193 0.950 . S
H1170 C1194 0.950 . S
H1171 C1195 0.951 . S
H1172 C1197 0.951 . S
H1173 C1199 0.950 . S
H1174 C1200 0.950 . S
H1175 C1202 0.950 . S
H1176 C1205 0.950 . S
H1177 C1206 0.950 . S
H1178 C1208 0.950 . S
H1179 C1209 0.950 . S
C1180 H1162 0.951 . S
C1180 C1181 1.366 . S
C1180 C1182 1.388 . S
C1181 C1180 1.366 . S
C1181 C1185 1.385 . S
C1182 H1163 0.951 . S
C1182 C1180 1.388 . S
C1182 C1183 1.366 . S
C1183 C1182 1.366 . S
C1183 C1184 1.414 . S
C1183 C1186 1.499 . S
C1184 H1164 0.950 . S
C1184 C1183 1.414 . S
C1184 C1185 1.374 . S
C1185 H1165 0.950 . S
C1185 C1181 1.385 . S
C1185 C1184 1.374 . S
C1186 C1183 1.499 . S
C1186 C1187 1.373 . S
C1186 C1188 1.389 . S
C1187 H1166 0.950 . S
C1187 C1186 1.373 . S
C1187 C1203 1.377 . S
C1188 C1186 1.389 . S
C1188 C1189 1.524 . S
C1188 C1202 1.377 . S
C1189 C1188 1.524 . S
C1189 C1190 1.397 . S
C1189 C1194 1.363 . S
C1190 H1167 0.950 . S
C1190 C1189 1.397 . S
C1190 C1191 1.334 . S
C1191 H1168 0.950 . S
C1191 C1190 1.334 . S
C1191 C1192 1.287 . S
C1192 C1191 1.287 . S
C1192 C1193 1.524 . S
C1192 H1211 0.913 . S
C1193 H1169 0.950 . S
C1193 C1192 1.524 . S
C1193 C1194 1.415 . S
C1194 H1170 0.950 . S
C1194 C1189 1.363 . S
C1194 C1193 1.415 . S
C1195 H1171 0.951 . S
C1195 C1196 1.366 . S
C1195 C1197 1.388 . S
C1196 C1195 1.366 . S
C1196 C1200 1.385 . S
C1197 H1172 0.951 . S
C1197 C1195 1.388 . S
C1197 C1198 1.366 . S
C1198 C1197 1.366 . S
C1198 C1199 1.414 . S
C1198 C1201 1.499 . S
C1199 H1173 0.950 . S
C1199 C1198 1.414 . S
C1199 C1200 1.374 . S
C1200 H1174 0.950 . S
C1200 C1196 1.385 . S
C1200 C1199 1.374 . S
C1201 C1198 1.499 . S
C1201 C1202 1.373 . S
C1201 C1203 1.389 . S
C1202 H1175 0.950 . S
C1202 C1188 1.377 . S
C1202 C1201 1.373 . S
C1203 C1187 1.377 . S
C1203 C1201 1.389 . S
C1203 C1204 1.524 . S
C1204 C1203 1.524 . S
C1204 C1205 1.397 . S
C1204 C1209 1.363 . S
C1205 H1176 0.950 . S
C1205 C1204 1.397 . S
C1205 C1206 1.334 . S
C1206 H1177 0.950 . S
C1206 C1205 1.334 . S
C1206 C1207 1.287 . S
C1207 C1206 1.287 . S
C1207 C1208 1.524 . S
C1207 H1210 0.999 . S
C1208 H1178 0.950 . S
C1208 C1207 1.524 . S
C1208 C1209 1.415 . S
C1209 H1179 0.950 . S
C1209 C1204 1.363 . S
C1209 C1208 1.415 . S
H1210 C1207 0.999 . S
H1211 C1192 0.913 . S
H1212 C1230 0.951 . S
H1213 C1232 0.951 . S
H1214 C1234 0.950 . S
H1215 C1235 0.950 . S
H1216 C1237 0.950 . S
H1217 C1240 0.950 . S
H1218 C1241 0.950 . S
H1219 C1243 0.950 . S
H1220 C1244 0.950 . S
H1221 C1245 0.951 . S
H1222 C1247 0.951 . S
H1223 C1249 0.950 . S
H1224 C1250 0.950 . S
H1225 C1252 0.950 . S
H1226 C1255 0.950 . S
H1227 C1256 0.950 . S
H1228 C1258 0.950 . S
H1229 C1259 0.950 . S
C1230 H1212 0.951 . S
C1230 C1231 1.366 . S
C1230 C1232 1.388 . S
C1231 C1230 1.366 . S
C1231 C1235 1.385 . S
C1232 H1213 0.951 . S
C1232 C1230 1.388 . S
C1232 C1233 1.366 . S
C1233 C1232 1.366 . S
C1233 C1234 1.414 . S
C1233 C1236 1.499 . S
C1234 H1214 0.950 . S
C1234 C1233 1.414 . S
C1234 C1235 1.374 . S
C1235 H1215 0.950 . S
C1235 C1231 1.385 . S
C1235 C1234 1.374 . S
C1236 C1233 1.499 . S
C1236 C1237 1.373 . S
C1236 C1238 1.389 . S
C1237 H1216 0.950 . S
C1237 C1236 1.373 . S
C1237 C1253 1.377 . S
C1238 C1236 1.389 . S
C1238 C1239 1.524 . S
C1238 C1252 1.377 . S
C1239 C1238 1.524 . S
C1239 C1240 1.397 . S
C1239 C1244 1.363 . S
C1240 H1217 0.950 . S
C1240 C1239 1.397 . S
C1240 C1241 1.334 . S
C1241 H1218 0.950 . S
C1241 C1240 1.334 . S
C1241 C1242 1.287 . S
C1242 C1241 1.287 . S
C1242 C1243 1.524 . S
C1242 H1261 0.913 . S
C1243 H1219 0.950 . S
C1243 C1242 1.524 . S
C1243 C1244 1.415 . S
C1244 H1220 0.950 . S
C1244 C1239 1.363 . S
C1244 C1243 1.415 . S
C1245 H1221 0.951 . S
C1245 C1246 1.366 . S
C1245 C1247 1.388 1_556 S
C1246 C1245 1.366 . S
C1246 C1250 1.385 . S
C1247 H1222 0.951 . S
C1247 C1245 1.388 1_554 S
C1247 C1248 1.366 . S
C1248 C1247 1.366 . S
C1248 C1249 1.414 . S
C1248 C1251 1.499 . S
C1249 H1223 0.950 . S
C1249 C1248 1.414 . S
C1249 C1250 1.374 1_554 S
C1250 H1224 0.950 . S
C1250 C1246 1.385 . S
C1250 C1249 1.374 1_556 S
C1251 C1248 1.499 . S
C1251 C1252 1.373 . S
C1251 C1253 1.389 . S
C1252 H1225 0.950 . S
C1252 C1238 1.377 . S
C1252 C1251 1.373 . S
C1253 C1237 1.377 . S
C1253 C1251 1.389 . S
C1253 C1254 1.524 1_554 S
C1254 C1253 1.524 1_556 S
C1254 C1255 1.397 . S
C1254 C1259 1.363 . S
C1255 H1226 0.950 . S
C1255 C1254 1.397 . S
C1255 C1256 1.334 . S
C1256 H1227 0.950 . S
C1256 C1255 1.334 . S
C1256 C1257 1.287 . S
C1257 C1256 1.287 . S
C1257 C1258 1.524 . S
C1257 H1260 0.999 . S
C1258 H1228 0.950 . S
C1258 C1257 1.524 . S
C1258 C1259 1.415 . S
C1259 H1229 0.950 . S
C1259 C1254 1.363 . S
C1259 C1258 1.415 . S
H1260 C1257 0.999 . S
H1261 C1242 0.913 . S
H1262 C1280 0.951 . S
H1263 C1282 0.951 . S
H1264 C1284 0.950 . S
H1265 C1285 0.950 . S
H1266 C1287 0.950 . S
H1267 C1290 0.950 . S
H1268 C1291 0.950 . S
H1269 C1293 0.950 . S
H1270 C1294 0.950 . S
H1271 C1295 0.951 . S
H1272 C1297 0.951 . S
H1273 C1299 0.950 . S
H1274 C1300 0.950 . S
H1275 C1302 0.950 . S
H1276 C1305 0.950 . S
H1277 C1306 0.950 . S
H1278 C1308 0.950 . S
H1279 C1309 0.950 . S
C1280 H1262 0.951 . S
C1280 C1281 1.366 . S
C1280 C1282 1.388 . S
C1281 C1280 1.366 . S
C1281 C1285 1.385 . S
C1282 H1263 0.951 . S
C1282 C1280 1.388 . S
C1282 C1283 1.366 . S
C1283 C1282 1.366 . S
C1283 C1284 1.414 . S
C1283 C1286 1.499 . S
C1284 H1264 0.950 . S
C1284 C1283 1.414 . S
C1284 C1285 1.374 . S
C1285 H1265 0.950 . S
C1285 C1281 1.385 . S
C1285 C1284 1.374 . S
C1286 C1283 1.499 . S
C1286 C1287 1.373 . S
C1286 C1288 1.389 . S
C1287 H1266 0.950 . S
C1287 C1286 1.373 . S
C1287 C1303 1.377 . S
C1288 C1286 1.389 . S
C1288 C1289 1.524 . S
C1288 C1302 1.377 . S
C1289 C1288 1.524 . S
C1289 C1290 1.397 . S
C1289 C1294 1.363 . S
C1290 H1267 0.950 . S
C1290 C1289 1.397 . S
C1290 C1291 1.334 . S
C1291 H1268 0.950 . S
C1291 C1290 1.334 . S
C1291 C1292 1.287 . S
C1292 C1291 1.287 . S
C1292 C1293 1.524 . S
C1292 H1311 0.913 . S
C1293 H1269 0.950 . S
C1293 C1292 1.524 . S
C1293 C1294 1.415 . S
C1294 H1270 0.950 . S
C1294 C1289 1.363 . S
C1294 C1293 1.415 . S
C1295 H1271 0.951 . S
C1295 C1296 1.366 . S
C1295 C1297 1.388 . S
C1296 C1295 1.366 . S
C1296 C1300 1.385 . S
C1297 H1272 0.951 . S
C1297 C1295 1.388 . S
C1297 C1298 1.366 . S
C1298 C1297 1.366 . S
C1298 C1299 1.414 . S
C1298 C1301 1.499 . S
C1299 H1273 0.950 . S
C1299 C1298 1.414 . S
C1299 C1300 1.374 . S
C1300 H1274 0.950 . S
C1300 C1296 1.385 . S
C1300 C1299 1.374 . S
C1301 C1298 1.499 . S
C1301 C1302 1.373 . S
C1301 C1303 1.389 . S
C1302 H1275 0.950 . S
C1302 C1288 1.377 . S
C1302 C1301 1.373 . S
C1303 C1287 1.377 . S
C1303 C1301 1.389 . S
C1303 C1304 1.524 . S
C1304 C1303 1.524 . S
C1304 C1305 1.397 . S
C1304 C1309 1.363 . S
C1305 H1276 0.950 . S
C1305 C1304 1.397 . S
C1305 C1306 1.334 . S
C1306 H1277 0.950 . S
C1306 C1305 1.334 . S
C1306 C1307 1.287 . S
C1307 C1306 1.287 . S
C1307 C1308 1.524 . S
C1307 H1310 0.999 . S
C1308 H1278 0.950 . S
C1308 C1307 1.524 . S
C1308 C1309 1.415 . S
C1309 H1279 0.950 . S
C1309 C1304 1.363 . S
C1309 C1308 1.415 . S
H1310 C1307 0.999 . S
H1311 C1292 0.913 . S
H1312 C1330 0.951 . S
H1313 C1332 0.951 . S
H1314 C1334 0.965 . S
H1315 C1335 0.918 1_455 S
H1316 C1337 0.950 . S
H1317 C1340 0.950 . S
H1318 C1341 0.950 . S
H1319 C1343 0.950 . S
H1320 C1344 0.950 1_655 S
H1321 C1345 0.951 . S
H1322 C1347 0.951 . S
H1323 C1349 0.950 . S
H1324 C1350 0.950 . S
H1325 C1352 0.954 . S
H1326 C1355 0.950 . S
H1327 C1356 0.950 . S
H1328 C1358 0.950 . S
H1329 C1359 0.950 . S
C1330 H1312 0.951 . S
C1330 C1331 1.366 . S
C1330 C1332 1.388 . S
C1331 C1330 1.366 . S
C1331 C1335 1.419 . S
C1332 H1313 0.951 . S
C1332 C1330 1.388 . S
C1332 C1333 1.366 . S
C1333 C1332 1.366 . S
C1333 C1334 1.399 1_655 S
C1333 C1336 1.499 . S
C1334 H1314 0.965 . S
C1334 C1333 1.399 1_455 S
C1334 C1335 1.378 1_455 S
C1335 H1315 0.918 1_655 S
C1335 C1331 1.419 . S
C1335 C1334 1.378 1_655 S
C1336 C1333 1.499 . S
C1336 C1337 1.373 . S
C1336 C1338 1.385 1_655 S
C1337 H1316 0.950 . S
C1337 C1336 1.373 . S
C1337 C1353 1.377 . S
C1338 C1336 1.385 1_455 S
C1338 C1339 1.535 . S
C1338 C1352 1.376 . S
C1339 C1338 1.535 . S
C1339 C1340 1.397 . S
C1339 C1344 1.363 . S
C1340 H1317 0.950 . S
C1340 C1339 1.397 . S
C1340 C1341 1.334 . S
C1341 H1318 0.950 . S
C1341 C1340 1.334 . S
C1341 C1342 1.287 . S
C1342 C1341 1.287 . S
C1342 C1343 1.524 . S
C1342 H1361 0.913 . S
C1343 H1319 0.950 . S
C1343 C1342 1.524 . S
C1343 C1344 1.415 . S
C1344 H1320 0.950 1_455 S
C1344 C1339 1.363 . S
C1344 C1343 1.415 . S
C1345 H1321 0.951 . S
C1345 C1346 1.367 1_455 S
C1345 C1347 1.388 . S
C1346 C1345 1.367 1_655 S
C1346 C1350 1.383 . S
C1347 H1322 0.951 . S
C1347 C1345 1.388 . S
C1347 C1348 1.366 1_455 S
C1348 C1347 1.366 1_655 S
C1348 C1349 1.414 . S
C1348 C1351 1.499 . S
C1349 H1323 0.950 . S
C1349 C1348 1.414 . S
C1349 C1350 1.374 . S
C1350 H1324 0.950 . S
C1350 C1346 1.383 . S
C1350 C1349 1.374 . S
C1351 C1348 1.499 . S
C1351 C1352 1.368 1_655 S
C1351 C1353 1.389 . S
C1352 H1325 0.954 . S
C1352 C1338 1.376 . S
C1352 C1351 1.368 1_455 S
C1353 C1337 1.377 . S
C1353 C1351 1.389 . S
C1353 C1354 1.524 . S
C1354 C1353 1.524 . S
C1354 C1355 1.397 . S
C1354 C1359 1.363 . S
C1355 H1326 0.950 . S
C1355 C1354 1.397 . S
C1355 C1356 1.334 . S
C1356 H1327 0.950 . S
C1356 C1355 1.334 . S
C1356 C1357 1.287 . S
C1357 C1356 1.287 . S
C1357 C1358 1.524 . S
C1357 H1360 0.999 . S
C1358 H1328 0.950 . S
C1358 C1357 1.524 . S
C1358 C1359 1.415 . S
C1359 H1329 0.950 . S
C1359 C1354 1.363 . S
C1359 C1358 1.415 . S
H1360 C1357 0.999 . S
H1361 C1342 0.913 . S
H1362 C1380 0.951 . S
H1363 C1382 0.951 . S
H1364 C1384 0.950 . S
H1365 C1385 0.950 . S
H1366 C1387 0.950 . S
H1367 C1390 0.950 . S
H1368 C1391 0.950 . S
H1369 C1393 0.950 . S
H1370 C1394 0.950 . S
H1371 C1395 0.951 1_545 S
H1372 C1397 0.951 . S
H1373 C1399 0.950 . S
H1374 C1400 0.950 . S
H1375 C1402 0.950 . S
H1376 C1405 0.950 . S
H1377 C1406 0.950 . S
H1378 C1408 0.950 . S
H1379 C1409 0.950 1_545 S
C1380 H1362 0.951 . S
C1380 C1381 1.366 . S
C1380 C1382 1.388 . S
C1381 C1380 1.366 . S
C1381 C1385 1.385 . S
C1382 H1363 0.951 . S
C1382 C1380 1.388 . S
C1382 C1383 1.366 . S
C1383 C1382 1.366 . S
C1383 C1384 1.414 . S
C1383 C1386 1.499 . S
C1384 H1364 0.950 . S
C1384 C1383 1.414 . S
C1384 C1385 1.374 . S
C1385 H1365 0.950 . S
C1385 C1381 1.385 . S
C1385 C1384 1.374 . S
C1386 C1383 1.499 . S
C1386 C1387 1.373 . S
C1386 C1388 1.389 . S
C1387 H1366 0.950 . S
C1387 C1386 1.373 . S
C1387 C1403 1.377 . S
C1388 C1386 1.389 . S
C1388 C1389 1.524 . S
C1388 C1402 1.377 . S
C1389 C1388 1.524 . S
C1389 C1390 1.397 . S
C1389 C1394 1.363 . S
C1390 H1367 0.950 . S
C1390 C1389 1.397 . S
C1390 C1391 1.334 . S
C1391 H1368 0.950 . S
C1391 C1390 1.334 . S
C1391 C1392 1.287 . S
C1392 C1391 1.287 . S
C1392 C1393 1.524 . S
C1392 H1411 0.913 . S
C1393 H1369 0.950 . S
C1393 C1392 1.524 . S
C1393 C1394 1.415 . S
C1394 H1370 0.950 . S
C1394 C1389 1.363 . S
C1394 C1393 1.415 . S
C1395 H1371 0.951 1_565 S
C1395 C1396 1.366 . S
C1395 C1397 1.388 . S
C1396 C1395 1.366 . S
C1396 C1400 1.385 . S
C1397 H1372 0.951 . S
C1397 C1395 1.388 . S
C1397 C1398 1.366 . S
C1398 C1397 1.366 . S
C1398 C1399 1.414 . S
C1398 C1401 1.499 . S
C1399 H1373 0.950 . S
C1399 C1398 1.414 . S
C1399 C1400 1.374 . S
C1400 H1374 0.950 . S
C1400 C1396 1.385 . S
C1400 C1399 1.374 . S
C1401 C1398 1.499 . S
C1401 C1402 1.373 . S
C1401 C1403 1.389 . S
C1402 H1375 0.950 . S
C1402 C1388 1.377 . S
C1402 C1401 1.373 . S
C1403 C1387 1.377 . S
C1403 C1401 1.389 . S
C1403 C1404 1.524 . S
C1404 C1403 1.524 . S
C1404 C1405 1.397 . S
C1404 C1409 1.363 . S
C1405 H1376 0.950 . S
C1405 C1404 1.397 . S
C1405 C1406 1.334 . S
C1406 H1377 0.950 . S
C1406 C1405 1.334 . S
C1406 C1407 1.287 . S
C1407 C1406 1.287 . S
C1407 C1408 1.524 1_565 S
C1407 H1410 0.999 . S
C1408 H1378 0.950 . S
C1408 C1407 1.524 1_545 S
C1408 C1409 1.415 1_545 S
C1409 H1379 0.950 1_565 S
C1409 C1404 1.363 . S
C1409 C1408 1.415 1_565 S
H1410 C1407 0.999 . S
H1411 C1392 0.913 . S
H1412 C1430 0.951 . S
H1413 C1432 0.951 . S
H1414 C1434 0.950 . S
H1415 C1435 0.950 . S
H1416 C1437 0.950 . S
H1417 C1440 0.950 . S
H1418 C1441 0.950 . S
H1419 C1443 0.950 . S
H1420 C1444 0.950 . S
H1421 C1445 0.951 . S
H1422 C1447 0.951 . S
H1423 C1449 0.950 . S
H1424 C1450 0.950 . S
H1425 C1452 0.950 . S
H1426 C1455 0.950 . S
H1427 C1456 0.950 . S
H1428 C1458 0.950 . S
H1429 C1459 0.950 . S
C1430 H1412 0.951 . S
C1430 C1431 1.366 . S
C1430 C1432 1.388 . S
C1431 C1430 1.366 . S
C1431 C1435 1.385 . S
C1432 H1413 0.951 . S
C1432 C1430 1.388 . S
C1432 C1433 1.366 . S
C1433 C1432 1.366 . S
C1433 C1434 1.414 . S
C1433 C1436 1.499 . S
C1434 H1414 0.950 . S
C1434 C1433 1.414 . S
C1434 C1435 1.374 . S
C1435 H1415 0.950 . S
C1435 C1431 1.385 . S
C1435 C1434 1.374 . S
C1436 C1433 1.499 . S
C1436 C1437 1.373 . S
C1436 C1438 1.389 . S
C1437 H1416 0.950 . S
C1437 C1436 1.373 . S
C1437 C1453 1.377 . S
C1438 C1436 1.389 . S
C1438 C1439 1.524 . S
C1438 C1452 1.377 . S
C1439 C1438 1.524 . S
C1439 C1440 1.397 . S
C1439 C1444 1.363 . S
C1440 H1417 0.950 . S
C1440 C1439 1.397 . S
C1440 C1441 1.334 . S
C1441 H1418 0.950 . S
C1441 C1440 1.334 . S
C1441 C1442 1.287 . S
C1442 C1441 1.287 . S
C1442 C1443 1.524 . S
C1442 H1461 0.913 . S
C1443 H1419 0.950 . S
C1443 C1442 1.524 . S
C1443 C1444 1.415 . S
C1444 H1420 0.950 . S
C1444 C1439 1.363 . S
C1444 C1443 1.415 . S
C1445 H1421 0.951 . S
C1445 C1446 1.366 . S
C1445 C1447 1.388 . S
C1446 C1445 1.366 . S
C1446 C1450 1.385 . S
C1447 H1422 0.951 . S
C1447 C1445 1.388 . S
C1447 C1448 1.366 . S
C1448 C1447 1.366 . S
C1448 C1449 1.414 . S
C1448 C1451 1.499 . S
C1449 H1423 0.950 . S
C1449 C1448 1.414 . S
C1449 C1450 1.374 . S
C1450 H1424 0.950 . S
C1450 C1446 1.385 . S
C1450 C1449 1.374 . S
C1451 C1448 1.499 . S
C1451 C1452 1.373 . S
C1451 C1453 1.389 . S
C1452 H1425 0.950 . S
C1452 C1438 1.377 . S
C1452 C1451 1.373 . S
C1453 C1437 1.377 . S
C1453 C1451 1.389 . S
C1453 C1454 1.524 . S
C1454 C1453 1.524 . S
C1454 C1455 1.397 . S
C1454 C1459 1.363 . S
C1455 H1426 0.950 . S
C1455 C1454 1.397 . S
C1455 C1456 1.334 . S
C1456 H1427 0.950 . S
C1456 C1455 1.334 . S
C1456 C1457 1.287 . S
C1457 C1456 1.287 . S
C1457 C1458 1.524 . S
C1457 H1460 0.999 . S
C1458 H1428 0.950 . S
C1458 C1457 1.524 . S
C1458 C1459 1.415 . S
C1459 H1429 0.950 . S
C1459 C1454 1.363 . S
C1459 C1458 1.415 . S
H1460 C1457 0.999 . S
H1461 C1442 0.913 . S
H1462 C1480 0.951 . S
H1463 C1482 0.951 . S
H1464 C1484 0.950 . S
H1465 C1485 0.950 . S
H1466 C1487 0.950 . S
H1467 C1490 0.950 . S
H1468 C1491 0.950 . S
H1469 C1493 0.950 . S
H1470 C1494 0.950 . S
H1471 C1495 0.951 . S
H1472 C1497 0.951 . S
H1473 C1499 0.950 . S
H1474 C1500 0.950 . S
H1475 C1502 0.950 . S
H1476 C1505 0.950 . S
H1477 C1506 0.950 . S
H1478 C1508 0.950 . S
H1479 C1509 0.950 . S
C1480 H1462 0.951 . S
C1480 C1481 1.366 . S
C1480 C1482 1.388 . S
C1481 C1480 1.366 . S
C1481 C1485 1.385 . S
C1482 H1463 0.951 . S
C1482 C1480 1.388 . S
C1482 C1483 1.366 . S
C1483 C1482 1.366 . S
C1483 C1484 1.414 . S
C1483 C1486 1.499 . S
C1484 H1464 0.950 . S
C1484 C1483 1.414 . S
C1484 C1485 1.374 . S
C1485 H1465 0.950 . S
C1485 C1481 1.385 . S
C1485 C1484 1.374 . S
C1486 C1483 1.499 . S
C1486 C1487 1.373 . S
C1486 C1488 1.389 . S
C1487 H1466 0.950 . S
C1487 C1486 1.373 . S
C1487 C1503 1.377 . S
C1488 C1486 1.389 . S
C1488 C1489 1.524 . S
C1488 C1502 1.377 . S
C1489 C1488 1.524 . S
C1489 C1490 1.397 . S
C1489 C1494 1.363 . S
C1490 H1467 0.950 . S
C1490 C1489 1.397 . S
C1490 C1491 1.334 . S
C1491 H1468 0.950 . S
C1491 C1490 1.334 . S
C1491 C1492 1.287 . S
C1492 C1491 1.287 . S
C1492 C1493 1.524 . S
C1492 H1511 0.913 . S
C1493 H1469 0.950 . S
C1493 C1492 1.524 . S
C1493 C1494 1.415 . S
C1494 H1470 0.950 . S
C1494 C1489 1.363 . S
C1494 C1493 1.415 . S
C1495 H1471 0.951 . S
C1495 C1496 1.366 . S
C1495 C1497 1.388 . S
C1496 C1495 1.366 . S
C1496 C1500 1.385 . S
C1497 H1472 0.951 . S
C1497 C1495 1.388 . S
C1497 C1498 1.366 . S
C1498 C1497 1.366 . S
C1498 C1499 1.414 . S
C1498 C1501 1.499 . S
C1499 H1473 0.950 . S
C1499 C1498 1.414 . S
C1499 C1500 1.374 . S
C1500 H1474 0.950 . S
C1500 C1496 1.385 . S
C1500 C1499 1.374 . S
C1501 C1498 1.499 . S
C1501 C1502 1.373 . S
C1501 C1503 1.389 . S
C1502 H1475 0.950 . S
C1502 C1488 1.377 . S
C1502 C1501 1.373 . S
C1503 C1487 1.377 . S
C1503 C1501 1.389 . S
C1503 C1504 1.524 . S
C1504 C1503 1.524 . S
C1504 C1505 1.397 . S
C1504 C1509 1.363 . S
C1505 H1476 0.950 . S
C1505 C1504 1.397 . S
C1505 C1506 1.334 . S
C1506 H1477 0.950 . S
C1506 C1505 1.334 . S
C1506 C1507 1.287 . S
C1507 C1506 1.287 . S
C1507 C1508 1.524 . S
C1507 H1510 0.999 . S
C1508 H1478 0.950 . S
C1508 C1507 1.524 . S
C1508 C1509 1.415 . S
C1509 H1479 0.950 . S
C1509 C1504 1.363 . S
C1509 C1508 1.415 . S
H1510 C1507 0.999 . S
H1511 C1492 0.913 . S
C331 C125 1.463 . S
C346 C161 1.641 . S
C396 C201 1.250 . S
C381 C144 1.302 . S
C446 C250 1.321 . S
C431 C87 1.226 . S
C496 C281 1.709 . S
C481 C106 1.638 . S
C546 C170 1.641 . S
C531 C49 1.589 1_556 S
C581 C68 1.275 . S
C596 C210 1.249 . S
C631 C11 1.255 . S
C646 C241 1.319 . S
C681 C30 1.702 . S
C696 C290 1.709 . S
C746 C171 0.926 . S
C731 C97 0.874 . S
C796 C211 1.374 . S
C781 C116 1.231 . S
C846 C247 0.693 . S
C831 C135 0.699 . S
C881 C78 0.987 . S
C896 C291 1.078 . S
C931 C21 0.875 . S
C946 C162 0.926 . S
C996 C202 1.375 . S
C981 C40 1.232 1_556 S
C1046 C238 0.693 . S
C1031 C59 0.698 . S
C1081 C2 0.988 . S
C1096 C282 1.078 . S
C1131 C101 1.632 . S
C1146 C167 1.666 . S
C1181 C120 1.362 . S
C1196 C207 1.373 . S
C1246 C251 1.881 . S
C1231 C139 1.774 . S
C1296 C287 1.366 . S
C1281 C82 1.361 . S
C1331 C25 1.634 . S
C1346 C158 1.665 1_655 S
C1396 C198 1.373 . S
C1381 C44 1.364 . S
C1446 C242 1.882 . S
C1431 C63 1.772 . S
C1481 C6 1.358 . S
C1496 C278 1.363 . S
