# Generated by pormake.
# Topology ctn, (3,4)-cn, num edge types: 1
# Building blocks:
#     Node 0, Type 0, BuildingBlock: CUQRIR_clean_linker_1, # of connection points: 3
#     Node 1, Type 0, BuildingBlock: CUQRIR_clean_linker_1, # of connection points: 3
#     Node 2, Type 0, BuildingBlock: CUQRIR_clean_linker_1, # of connection points: 3
#     Node 3, Type 0, BuildingBlock: CUQRIR_clean_linker_1, # of connection points: 3
#     Node 4, Type 0, BuildingBlock: CUQRIR_clean_linker_1, # of connection points: 3
#     Node 5, Type 0, BuildingBlock: CUQRIR_clean_linker_1, # of connection points: 3
#     Node 6, Type 0, BuildingBlock: CUQRIR_clean_linker_1, # of connection points: 3
#     Node 7, Type 0, BuildingBlock: CUQRIR_clean_linker_1, # of connection points: 3
#     Node 8, Type 0, BuildingBlock: CUQRIR_clean_linker_1, # of connection points: 3
#     Node 9, Type 0, BuildingBlock: CUQRIR_clean_linker_1, # of connection points: 3
#     Node 10, Type 0, BuildingBlock: CUQRIR_clean_linker_1, # of connection points: 3
#     Node 11, Type 0, BuildingBlock: CUQRIR_clean_linker_1, # of connection points: 3
#     Node 12, Type 0, BuildingBlock: CUQRIR_clean_linker_1, # of connection points: 3
#     Node 13, Type 0, BuildingBlock: CUQRIR_clean_linker_1, # of connection points: 3
#     Node 14, Type 0, BuildingBlock: CUQRIR_clean_linker_1, # of connection points: 3
#     Node 15, Type 0, BuildingBlock: CUQRIR_clean_linker_1, # of connection points: 3
#     Node 16, Type 1, BuildingBlock: AZAVOO_clean_sbu_0, # of connection points: 4
#     Node 17, Type 1, BuildingBlock: AZAVOO_clean_sbu_0, # of connection points: 4
#     Node 18, Type 1, BuildingBlock: AZAVOO_clean_sbu_0, # of connection points: 4
#     Node 19, Type 1, BuildingBlock: AZAVOO_clean_sbu_0, # of connection points: 4
#     Node 20, Type 1, BuildingBlock: AZAVOO_clean_sbu_0, # of connection points: 4
#     Node 21, Type 1, BuildingBlock: AZAVOO_clean_sbu_0, # of connection points: 4
#     Node 22, Type 1, BuildingBlock: AZAVOO_clean_sbu_0, # of connection points: 4
#     Node 23, Type 1, BuildingBlock: AZAVOO_clean_sbu_0, # of connection points: 4
#     Node 24, Type 1, BuildingBlock: AZAVOO_clean_sbu_0, # of connection points: 4
#     Node 25, Type 1, BuildingBlock: AZAVOO_clean_sbu_0, # of connection points: 4
#     Node 26, Type 1, BuildingBlock: AZAVOO_clean_sbu_0, # of connection points: 4
#     Node 27, Type 1, BuildingBlock: AZAVOO_clean_sbu_0, # of connection points: 4
#     Edge 28, Type (0, 1), BuildingBlock: KIFKEQ_clean_linker_1, # of connection points: 2
#     Edge 29, Type (0, 1), BuildingBlock: KIFKEQ_clean_linker_1, # of connection points: 2
#     Edge 30, Type (0, 1), BuildingBlock: KIFKEQ_clean_linker_1, # of connection points: 2
#     Edge 31, Type (0, 1), BuildingBlock: KIFKEQ_clean_linker_1, # of connection points: 2
#     Edge 32, Type (0, 1), BuildingBlock: KIFKEQ_clean_linker_1, # of connection points: 2
#     Edge 33, Type (0, 1), BuildingBlock: KIFKEQ_clean_linker_1, # of connection points: 2
#     Edge 34, Type (0, 1), BuildingBlock: KIFKEQ_clean_linker_1, # of connection points: 2
#     Edge 35, Type (0, 1), BuildingBlock: KIFKEQ_clean_linker_1, # of connection points: 2
#     Edge 36, Type (0, 1), BuildingBlock: KIFKEQ_clean_linker_1, # of connection points: 2
#     Edge 37, Type (0, 1), BuildingBlock: KIFKEQ_clean_linker_1, # of connection points: 2
#     Edge 38, Type (0, 1), BuildingBlock: KIFKEQ_clean_linker_1, # of connection points: 2
#     Edge 39, Type (0, 1), BuildingBlock: KIFKEQ_clean_linker_1, # of connection points: 2
#     Edge 40, Type (0, 1), BuildingBlock: KIFKEQ_clean_linker_1, # of connection points: 2
#     Edge 41, Type (0, 1), BuildingBlock: KIFKEQ_clean_linker_1, # of connection points: 2
#     Edge 42, Type (0, 1), BuildingBlock: KIFKEQ_clean_linker_1, # of connection points: 2
#     Edge 43, Type (0, 1), BuildingBlock: KIFKEQ_clean_linker_1, # of connection points: 2
#     Edge 44, Type (0, 1), BuildingBlock: KIFKEQ_clean_linker_1, # of connection points: 2
#     Edge 45, Type (0, 1), BuildingBlock: KIFKEQ_clean_linker_1, # of connection points: 2
#     Edge 46, Type (0, 1), BuildingBlock: KIFKEQ_clean_linker_1, # of connection points: 2
#     Edge 47, Type (0, 1), BuildingBlock: KIFKEQ_clean_linker_1, # of connection points: 2
#     Edge 48, Type (0, 1), BuildingBlock: KIFKEQ_clean_linker_1, # of connection points: 2
#     Edge 49, Type (0, 1), BuildingBlock: KIFKEQ_clean_linker_1, # of connection points: 2
#     Edge 50, Type (0, 1), BuildingBlock: KIFKEQ_clean_linker_1, # of connection points: 2
#     Edge 51, Type (0, 1), BuildingBlock: KIFKEQ_clean_linker_1, # of connection points: 2
#     Edge 52, Type (0, 1), BuildingBlock: KIFKEQ_clean_linker_1, # of connection points: 2
#     Edge 53, Type (0, 1), BuildingBlock: KIFKEQ_clean_linker_1, # of connection points: 2
#     Edge 54, Type (0, 1), BuildingBlock: KIFKEQ_clean_linker_1, # of connection points: 2
#     Edge 55, Type (0, 1), BuildingBlock: KIFKEQ_clean_linker_1, # of connection points: 2
#     Edge 56, Type (0, 1), BuildingBlock: KIFKEQ_clean_linker_1, # of connection points: 2
#     Edge 57, Type (0, 1), BuildingBlock: KIFKEQ_clean_linker_1, # of connection points: 2
#     Edge 58, Type (0, 1), BuildingBlock: KIFKEQ_clean_linker_1, # of connection points: 2
#     Edge 59, Type (0, 1), BuildingBlock: KIFKEQ_clean_linker_1, # of connection points: 2
#     Edge 60, Type (0, 1), BuildingBlock: KIFKEQ_clean_linker_1, # of connection points: 2
#     Edge 61, Type (0, 1), BuildingBlock: KIFKEQ_clean_linker_1, # of connection points: 2
#     Edge 62, Type (0, 1), BuildingBlock: KIFKEQ_clean_linker_1, # of connection points: 2
#     Edge 63, Type (0, 1), BuildingBlock: KIFKEQ_clean_linker_1, # of connection points: 2
#     Edge 64, Type (0, 1), BuildingBlock: KIFKEQ_clean_linker_1, # of connection points: 2
#     Edge 65, Type (0, 1), BuildingBlock: KIFKEQ_clean_linker_1, # of connection points: 2
#     Edge 66, Type (0, 1), BuildingBlock: KIFKEQ_clean_linker_1, # of connection points: 2
#     Edge 67, Type (0, 1), BuildingBlock: KIFKEQ_clean_linker_1, # of connection points: 2
#     Edge 68, Type (0, 1), BuildingBlock: KIFKEQ_clean_linker_1, # of connection points: 2
#     Edge 69, Type (0, 1), BuildingBlock: KIFKEQ_clean_linker_1, # of connection points: 2
#     Edge 70, Type (0, 1), BuildingBlock: KIFKEQ_clean_linker_1, # of connection points: 2
#     Edge 71, Type (0, 1), BuildingBlock: KIFKEQ_clean_linker_1, # of connection points: 2
#     Edge 72, Type (0, 1), BuildingBlock: KIFKEQ_clean_linker_1, # of connection points: 2
#     Edge 73, Type (0, 1), BuildingBlock: KIFKEQ_clean_linker_1, # of connection points: 2
#     Edge 74, Type (0, 1), BuildingBlock: KIFKEQ_clean_linker_1, # of connection points: 2
#     Edge 75, Type (0, 1), BuildingBlock: KIFKEQ_clean_linker_1, # of connection points: 2
# Relax obj value: 0.080
# Max RMSD: 0.208
# Mean RMSD: 0.133
data_MOF--net-ctn--node1-AZAVOO_clean_sbu_0--node2-CUQRIR_clean_linker_1--edge1-KIFKEQ_clean_linker_1
_symmetry_space_group_name_H-M    P1
_symmetry_Int_Tables_number       1
_symmetry_cell_setting            triclinic
loop_
_symmetry_equiv_pos_as_xyz
'x, y, z'
_cell_length_a     51.791285
_cell_length_b     49.203906
_cell_length_c     50.508823
_cell_angle_alpha  96.899974
_cell_angle_beta   91.648205
_cell_angle_gamma 95.722613
loop_
_atom_site_label
_atom_site_type_symbol
_atom_site_fract_x
_atom_site_fract_y
_atom_site_fract_z
_atom_type_partial_charge
C0 C 0.03815 0.98039 0.04692 0.0
N1 N 0.0512 0.99083 0.02693 0.0
N2 N 0.01674 0.99348 0.05226 0.0
C3 C 0.04769 0.95925 0.06295 0.0
C4 C 0.01727 0.0123 0.0348 0.0
N5 N 0.03822 0.01079 0.01944 0.0
C6 C 0.99936 0.03469 0.03551 0.0
H7 H 0.03283 0.95199 0.0766 0.0
H8 H 0.06551 0.96838 0.07479 0.0
H9 H 0.05289 0.94133 0.04943 0.0
H10 H 1.00446 0.04974 0.05353 0.0
H11 H 0.97898 0.02588 0.03698 0.0
H12 H 1.00074 0.04564 0.01758 0.0
C13 C 0.31319 0.73188 0.23431 0.0
N14 N 0.3209 0.72103 0.25621 0.0
N15 N 0.32886 0.75477 0.23106 0.0
C16 C 0.2899 0.72053 0.21633 0.0
C17 C 0.34634 0.75766 0.25193 0.0
N18 N 0.34145 0.73713 0.26746 0.0
C19 C 0.36918 0.77935 0.25581 0.0
H20 H 0.28072 0.7374 0.20823 0.0
H21 H 0.27521 0.70836 0.22684 0.0
H22 H 0.29639 0.7068 0.1993 0.0
H23 H 0.36397 0.79711 0.26956 0.0
H24 H 0.37441 0.78677 0.23658 0.0
H25 H 0.38626 0.77125 0.26465 0.0
C26 C 0.98261 0.50065 0.09205 0.0
N27 N 0.99692 0.47901 0.09121 0.0
N28 N 0.96451 0.49684 0.07165 0.0
C29 C 0.98708 0.52599 0.11213 0.0
C30 C 0.96836 0.47206 0.05839 0.0
N31 N 0.98816 0.4613 0.07019 0.0
C32 C 0.95241 0.4582 0.03423 0.0
H33 H 0.97568 0.52258 0.12992 0.0
H34 H 0.98076 0.5442 0.10375 0.0
H35 H 1.00789 0.53017 0.11867 0.0
H36 H 0.96077 0.46572 0.01614 0.0
H37 H 0.93206 0.46336 0.03527 0.0
H38 H 0.9525 0.43554 0.03208 0.0
C39 C 0.69134 0.79581 0.22993 0.0
N40 N 0.71128 0.80819 0.21759 0.0
N41 N 0.68558 0.81202 0.25207 0.0
C42 C 0.67922 0.76681 0.22189 0.0
C43 C 0.70283 0.83471 0.25284 0.0
N44 N 0.71837 0.83253 0.23169 0.0
C45 C 0.70573 0.85809 0.27525 0.0
H46 H 0.65837 0.7648 0.22649 0.0
H47 H 0.68917 0.75279 0.23343 0.0
H48 H 0.68125 0.76035 0.20031 0.0
H49 H 0.69418 0.85344 0.29257 0.0
H50 H 0.69893 0.87664 0.26799 0.0
H51 H 0.72649 0.86303 0.28178 0.0
C52 C 0.03331 0.99553 0.50076 0.0
N53 N 0.05557 0.99795 0.51625 0.0
N54 N 0.03582 0.01197 0.48114 0.0
C55 C 0.01039 0.97445 0.50245 0.0
C56 C 0.06048 0.02404 0.48476 0.0
N57 N 0.07261 0.01538 0.50584 0.0
C58 C 0.0727 0.04443 0.46768 0.0
H59 H 0.0169 0.95484 0.50755 0.0
H60 H 0.99868 0.97014 0.48341 0.0
H61 H 0.99773 0.98237 0.51832 0.0
H62 H 0.0858 0.06063 0.48 0.0
H63 H 0.0577 0.05419 0.45711 0.0
H64 H 0.08449 0.03355 0.45263 0.0
C65 C 0.18351 0.71866 0.78953 0.0
N66 N 0.20269 0.70844 0.8028 0.0
N67 N 0.17819 0.70389 0.76526 0.0
C68 C 0.17193 0.74479 0.79922 0.0
C69 C 0.19513 0.6845 0.76416 0.0
N70 N 0.2103 0.68744 0.78691 0.0
C71 C 0.19523 0.66124 0.74192 0.0
H72 H 0.15433 0.7396 0.81037 0.0
H73 H 0.16632 0.75565 0.78226 0.0
H74 H 0.18584 0.75891 0.81283 0.0
H75 H 0.20903 0.66748 0.72682 0.0
H76 H 0.17565 0.65613 0.73202 0.0
H77 H 0.20149 0.64261 0.74957 0.0
C78 C 0.95505 0.50397 0.45109 0.0
N79 N 0.97305 0.52619 0.45312 0.0
N80 N 0.93639 0.50788 0.46904 0.0
C81 C 0.95468 0.47925 0.43036 0.0
C82 C 0.94365 0.53333 0.48202 0.0
N83 N 0.96574 0.54452 0.47219 0.0
C84 C 0.92998 0.54662 0.50533 0.0
H85 H 0.93454 0.46957 0.42566 0.0
H86 H 0.96622 0.46388 0.43813 0.0
H87 H 0.96343 0.4851 0.41179 0.0
H88 H 0.92201 0.53095 0.51782 0.0
H89 H 0.9136 0.55674 0.49765 0.0
H90 H 0.94308 0.56249 0.51799 0.0
C91 C 0.79686 0.79278 0.81528 0.0
N92 N 0.81717 0.77787 0.80993 0.0
N93 N 0.79345 0.80928 0.79619 0.0
C94 C 0.7798 0.7906 0.83874 0.0
C95 C 0.81239 0.80393 0.77899 0.0
N96 N 0.82669 0.78457 0.78711 0.0
C97 C 0.81797 0.81907 0.75524 0.0
H98 H 0.76013 0.79641 0.83426 0.0
H99 H 0.78869 0.80486 0.85601 0.0
H100 H 0.77801 0.76949 0.84454 0.0
H101 H 0.81073 0.83966 0.75793 0.0
H102 H 0.80802 0.80701 0.73719 0.0
H103 H 0.83912 0.82161 0.75196 0.0
C104 C 0.29349 0.28751 0.3109 0.0
N105 N 0.31559 0.27487 0.3089 0.0
N106 N 0.29555 0.31035 0.29843 0.0
C107 C 0.27047 0.27855 0.32647 0.0
C108 C 0.31971 0.31147 0.28894 0.0
N109 N 0.33217 0.29008 0.29559 0.0
C110 C 0.33041 0.33256 0.27176 0.0
H111 H 0.25929 0.2603 0.31496 0.0
H112 H 0.25745 0.29506 0.33024 0.0
H113 H 0.27704 0.27251 0.34584 0.0
H114 H 0.34397 0.34827 0.28413 0.0
H115 H 0.31472 0.34307 0.26322 0.0
H116 H 0.34134 0.32278 0.25527 0.0
C117 C 0.48365 0.99989 0.59079 0.0
N118 N 0.49926 0.97929 0.58865 0.0
N119 N 0.46619 0.99679 0.56986 0.0
C120 C 0.48654 0.02394 0.61246 0.0
C121 C 0.47186 0.9736 0.55484 0.0
N122 N 0.4922 0.96314 0.56606 0.0
C123 C 0.45599 0.95983 0.53058 0.0
H124 H 0.4749 0.01852 0.62953 0.0
H125 H 0.47951 0.04244 0.60529 0.0
H126 H 0.50711 0.02885 0.61969 0.0
H127 H 0.46504 0.96644 0.51244 0.0
H128 H 0.43582 0.96557 0.53094 0.0
H129 H 0.45539 0.9371 0.5293 0.0
C130 C 0.18226 0.2972 0.72409 0.0
N131 N 0.2049 0.30766 0.71463 0.0
N132 N 0.17755 0.31142 0.74785 0.0
C133 C 0.16635 0.27125 0.71174 0.0
C134 C 0.19823 0.3307 0.75259 0.0
N135 N 0.2149 0.32827 0.73255 0.0
C136 C 0.20184 0.35244 0.77639 0.0
H137 H 0.15165 0.27669 0.69741 0.0
H138 H 0.15609 0.26052 0.72711 0.0
H139 H 0.17872 0.25694 0.70074 0.0
H140 H 0.21403 0.34515 0.79197 0.0
H141 H 0.18289 0.3567 0.7848 0.0
H142 H 0.21196 0.37178 0.77084 0.0
C143 C 0.79865 0.24917 0.75215 0.0
N144 N 0.80879 0.23545 0.77091 0.0
N145 N 0.81619 0.26923 0.74565 0.0
C146 C 0.77241 0.24124 0.73827 0.0
C147 C 0.83761 0.26706 0.76094 0.0
N148 N 0.83317 0.24635 0.77627 0.0
C149 C 0.86299 0.28452 0.76007 0.0
H150 H 0.77409 0.22461 0.72171 0.0
H151 H 0.7652 0.25903 0.72984 0.0
H152 H 0.75818 0.23336 0.75226 0.0
H153 H 0.85989 0.30464 0.75334 0.0
H154 H 0.87548 0.27374 0.74568 0.0
H155 H 0.8732 0.28793 0.77999 0.0
C156 C 0.53256 0.47736 0.55134 0.0
N157 N 0.54512 0.48797 0.53113 0.0
N158 N 0.51126 0.49042 0.55732 0.0
C159 C 0.54252 0.4561 0.56695 0.0
C160 C 0.51139 0.50945 0.54009 0.0
N161 N 0.53197 0.50807 0.52423 0.0
C162 C 0.49352 0.53188 0.54142 0.0
H163 H 0.54596 0.43762 0.5532 0.0
H164 H 0.52866 0.44983 0.58197 0.0
H165 H 0.5614 0.46457 0.57712 0.0
H166 H 0.50046 0.54807 0.55802 0.0
H167 H 0.47352 0.52368 0.54553 0.0
H168 H 0.49306 0.54137 0.5226 0.0
C169 C 0.53221 0.49672 1.00373 0.0
N170 N 0.5556 0.49922 0.01713 0.0
N171 N 0.53348 0.51097 0.98241 0.0
C172 C 0.509 0.47779 0.00974 0.0
C173 C 0.55855 0.52188 0.98302 0.0
N174 N 0.57211 0.5145 1.00387 0.0
C175 C 0.56961 0.54026 0.96348 0.0
H176 H 0.49403 0.47445 0.99323 0.0
H177 H 0.50027 0.4869 0.02811 0.0
H178 H 0.5151 0.45757 0.01357 0.0
H179 H 0.55404 0.54948 0.9532 0.0
H180 H 0.58009 0.5279 0.94829 0.0
H181 H 0.58366 0.55695 0.97379 0.0
C182 C 0.68514 0.21731 0.29015 0.0
N183 N 0.70584 0.20886 0.30269 0.0
N184 N 0.68376 0.20727 0.26396 0.0
C185 C 0.66792 0.23776 0.30276 0.0
C186 C 0.70455 0.19271 0.26088 0.0
N187 N 0.7181 0.19379 0.28441 0.0
C188 C 0.71084 0.17642 0.23517 0.0
H189 H 0.65176 0.22652 0.31226 0.0
H190 H 0.65951 0.24935 0.28767 0.0
H191 H 0.67886 0.25264 0.31834 0.0
H192 H 0.69311 0.17031 0.22211 0.0
H193 H 0.71992 0.15772 0.23909 0.0
H194 H 0.7248 0.18934 0.22449 0.0
C195 C 0.4605 0.0107 0.95611 0.0
N196 N 0.47855 0.03275 0.95673 0.0
N197 N 0.4421 0.01582 0.97409 0.0
C198 C 0.46239 0.98314 0.94011 0.0
C199 C 0.44972 0.0417 0.9858 0.0
N200 N 0.4719 0.05189 0.97542 0.0
C201 C 0.43519 0.05746 0.00689 0.0
H202 H 0.45163 0.9823 0.92066 0.0
H203 H 0.45372 0.96617 0.95069 0.0
H204 H 0.4829 0.97992 0.93623 0.0
H205 H 0.44319 0.05456 0.02686 0.0
H206 H 0.41419 0.0501 0.00545 0.0
H207 H 0.43763 0.0798 0.00507 0.0
Mg208 Mg 0.24476 0.85134 0.03543 0.0
O209 O 0.28131 0.87826 0.02533 0.0
O210 O 0.31376 0.85121 0.02364 0.0
Mg211 Mg 0.29965 0.80922 0.03569 0.0
C212 C 0.30494 0.87415 0.02119 0.0
C213 C 0.21357 0.90344 0.03708 0.0
O214 O 0.22638 0.90887 0.06024 0.0
O215 O 0.24342 0.82724 0.99342 0.0
O216 O 0.27562 0.80053 0.99644 0.0
O217 O 0.2528 0.86361 0.07969 0.0
O218 O 0.26825 0.82851 0.05636 0.0
C219 C 0.25679 0.80831 0.98341 0.0
C220 C 0.26738 0.84365 0.07884 0.0
O221 O 0.21755 0.88186 0.02178 0.0
Mg222 Mg 0.1653 0.52 0.29265 0.0
O223 O 0.14021 0.5123 0.25305 0.0
O224 O 0.16777 0.50826 0.21991 0.0
Mg225 Mg 0.20955 0.51663 0.23711 0.0
C226 C 0.14469 0.50771 0.2282 0.0
C227 C 0.12673 0.53132 0.33589 0.0
O228 O 0.14432 0.55273 0.33911 0.0
O229 O 0.17502 0.47511 0.28785 0.0
O230 O 0.20384 0.47617 0.25561 0.0
O231 O 0.16938 0.56583 0.29314 0.0
O232 O 0.19661 0.53876 0.2739 0.0
C233 C 0.19126 0.4636 0.27272 0.0
C234 C 0.19034 0.56328 0.28018 0.0
O235 O 0.12945 0.51184 0.31747 0.0
Mg236 Mg 0.79598 0.6653 0.02242 0.0
O237 O 0.75635 0.63781 0.01672 0.0
O238 O 0.72661 0.66688 0.01159 0.0
Mg239 Mg 0.74609 0.71063 0.01132 0.0
C240 C 0.73267 0.64269 0.01375 0.0
C241 C 0.83711 0.63138 0.03797 0.0
O242 O 0.8397 0.65469 0.05398 0.0
O243 O 0.7984 0.66973 0.97774 0.0
O244 O 0.76818 0.69848 0.97318 0.0
O245 O 0.78934 0.67307 0.06589 0.0
O246 O 0.77775 0.70018 0.03685 0.0
C247 C 0.78593 0.68433 0.96357 0.0
C248 C 0.77819 0.69443 0.06107 0.0
O249 O 0.81917 0.62781 0.01974 0.0
Mg250 Mg 0.90143 0.03512 0.26596 0.0
O251 O 0.87404 0.99496 0.25639 0.0
O252 O 0.89875 0.96027 0.24855 0.0
Mg253 Mg 0.94133 0.97789 0.25086 0.0
C254 C 0.87659 0.96937 0.25068 0.0
C255 C 0.87113 0.08457 0.28405 0.0
O256 O 0.89417 0.09637 0.2794 0.0
O257 O 0.91313 0.02412 0.30756 0.0
O258 O 0.93858 0.99096 0.29554 0.0
O259 O 0.90169 0.03997 0.2223 0.0
O260 O 0.92974 0.01787 0.24274 0.0
C261 C 0.92842 0.00663 0.31346 0.0
C262 C 0.92116 0.02534 0.2209 0.0
O263 O 0.86753 0.0584 0.28144 0.0
Mg264 Mg 0.29644 0.16526 0.52354 0.0
O265 O 0.25672 0.13776 0.51927 0.0
O266 O 0.22687 0.16664 0.51378 0.0
Mg267 Mg 0.24612 0.21028 0.51248 0.0
C268 C 0.23299 0.14258 0.51646 0.0
C269 C 0.33712 0.1306 0.53971 0.0
O270 O 0.33952 0.15346 0.55636 0.0
O271 O 0.29782 0.16867 0.47853 0.0
O272 O 0.26764 0.19751 0.47419 0.0
O273 O 0.29103 0.17437 0.56723 0.0
O274 O 0.27818 0.2002 0.53764 0.0
C275 C 0.28515 0.18315 0.46439 0.0
C276 C 0.27942 0.19535 0.56212 0.0
O277 O 0.31965 0.12772 0.52104 0.0
Mg278 Mg 0.39457 0.53075 0.77045 0.0
O279 O 0.36964 0.48909 0.76028 0.0
O280 O 0.39617 0.45623 0.75195 0.0
Mg281 Mg 0.43794 0.47636 0.75682 0.0
C282 C 0.37341 0.4639 0.75388 0.0
C283 C 0.35653 0.57031 0.80208 0.0
O284 O 0.3768 0.57857 0.81833 0.0
O285 O 0.40549 0.52054 0.81253 0.0
O286 O 0.43248 0.48863 0.80127 0.0
O287 O 0.39565 0.53539 0.7269 0.0
O288 O 0.4248 0.51557 0.74838 0.0
C289 C 0.42114 0.50357 0.81885 0.0
C290 C 0.41607 0.5222 0.72621 0.0
O291 O 0.35815 0.55113 0.7831 0.0
Mg292 Mg 0.73708 0.34876 0.53697 0.0
O293 O 0.77455 0.37461 0.5272 0.0
O294 O 0.80705 0.34828 0.53105 0.0
Mg295 Mg 0.79118 0.3062 0.54149 0.0
C296 C 0.79862 0.37082 0.52631 0.0
C297 C 0.70822 0.40186 0.53588 0.0
O298 O 0.72205 0.40817 0.55839 0.0
O299 O 0.73688 0.3236 0.49573 0.0
O300 O 0.76932 0.29761 0.5007 0.0
O301 O 0.74362 0.36257 0.58108 0.0
O302 O 0.75915 0.32626 0.56002 0.0
C303 C 0.75091 0.3049 0.48665 0.0
C304 C 0.75774 0.3424 0.58182 0.0
O305 O 0.71092 0.37927 0.52156 0.0
Mg306 Mg 0.66518 0.0205 0.79103 0.0
O307 O 0.64185 0.0136 0.75053 0.0
O308 O 0.67037 0.01094 0.71826 0.0
Mg309 Mg 0.71149 0.01892 0.73755 0.0
C310 C 0.64703 0.00991 0.72584 0.0
C311 C 0.63009 0.01244 0.83857 0.0
O312 O 0.65336 0.01349 0.84997 0.0
O313 O 0.67475 0.97548 0.7859 0.0
O314 O 0.70465 0.97794 0.75483 0.0
O315 O 0.66901 0.0663 0.79192 0.0
O316 O 0.69756 0.03971 0.77454 0.0
C317 C 0.69154 0.96457 0.77103 0.0
C318 C 0.69081 0.0641 0.78037 0.0
O319 O 0.628 0.01243 0.81341 0.0
Mg320 Mg 0.03275 0.23287 0.93165 0.0
O321 O 0.99309 0.22658 0.90908 0.0
O322 O 0.96329 0.21114 0.93617 0.0
Mg323 Mg 0.98478 0.20556 0.97557 0.0
C324 C 0.96957 0.21887 0.91375 0.0
C325 C 0.0475 0.24816 0.87547 0.0
O326 O 0.03345 0.22451 0.86846 0.0
O327 O 0.02102 0.27118 0.95678 0.0
O328 O 0.99472 0.25271 0.98573 0.0
O329 O 0.04102 0.18964 0.91817 0.0
O330 O 0.02179 0.20222 0.9554 0.0
C331 C 1.00724 0.27356 0.97736 0.0
C332 C 0.03056 0.18291 0.93976 0.0
O333 O 0.04992 0.25778 0.90003 0.0
Mg334 Mg 0.53376 0.72972 0.43326 0.0
O335 O 0.4942 0.72598 0.41038 0.0
O336 O 0.46354 0.71156 0.43718 0.0
Mg337 Mg 0.48383 0.70693 0.47734 0.0
C338 C 0.47045 0.719 0.41485 0.0
C339 C 0.57524 0.74409 0.3956 0.0
O340 O 0.58391 0.7253 0.40895 0.0
O341 O 0.52464 0.76956 0.45742 0.0
O342 O 0.49559 0.7541 0.48545 0.0
O343 O 0.53893 0.68559 0.42056 0.0
O344 O 0.52066 0.7004 0.45777 0.0
C345 C 0.50992 0.77376 0.47705 0.0
C346 C 0.5281 0.68007 0.44234 0.0
O347 O 0.55318 0.75208 0.40101 0.0
Mg348 Mg 0.99633 0.7717 0.60906 0.0
O349 O 0.03216 0.76067 0.63184 0.0
O350 O 0.06257 0.75256 0.60207 0.0
Mg351 Mg 0.04619 0.75662 0.5604 0.0
C352 C 0.05482 0.75436 0.62593 0.0
C353 C 0.97508 0.76969 0.66679 0.0
O354 O 0.9882 0.74807 0.6648 0.0
O355 O 0.01695 0.8152 0.60437 0.0
O356 O 0.04422 0.80261 0.57273 0.0
O357 O 0.98182 0.72691 0.6014 0.0
O358 O 1.00693 0.7482 0.57422 0.0
C359 C 0.03435 0.82125 0.58782 0.0
C360 C 0.99512 0.72561 0.58008 0.0
O361 O 0.97634 0.78517 0.64822 0.0
Mg362 Mg 0.49785 0.27703 0.11488 0.0
O363 O 0.53473 0.26515 0.13556 0.0
O364 O 0.56337 0.25689 0.10405 0.0
Mg365 Mg 0.54639 0.26505 0.064 0.0
C366 C 0.55678 0.25801 0.12829 0.0
C367 C 0.47498 0.26905 0.17008 0.0
O368 O 0.48282 0.24491 0.16216 0.0
O369 O 0.51776 0.32079 0.11171 0.0
O370 O 0.54597 0.31077 0.08008 0.0
O371 O 0.48348 0.23251 0.1053 0.0
O372 O 0.50744 0.25546 0.07837 0.0
C373 C 0.53578 0.32817 0.09636 0.0
C374 C 0.49613 0.23234 0.08359 0.0
O375 O 0.47987 0.28849 0.15577 0.0
H376 H 0.17543 0.71126 0.84693 0.0
H377 H 0.25176 0.72956 0.81791 0.0
H378 H 0.18949 0.73577 0.89078 0.0
H379 H 0.26622 0.75426 0.86192 0.0
H380 H 0.28533 0.77341 0.95325 0.0
H381 H 0.27347 0.7475 0.90974 0.0
H382 H 0.20165 0.78503 0.90801 0.0
H383 H 0.21333 0.8109 0.95177 0.0
C384 C 0.19538 0.72026 0.85026 0.0
C385 C 0.21259 0.71869 0.82935 0.0
C386 C 0.20336 0.73448 0.87515 0.0
C387 C 0.22882 0.74734 0.87963 0.0
C388 C 0.24648 0.74453 0.85902 0.0
C389 C 0.23836 0.73035 0.83398 0.0
C390 C 0.26701 0.77627 0.9436 0.0
C391 C 0.25017 0.79413 0.95613 0.0
C392 C 0.26033 0.76149 0.91859 0.0
C393 C 0.23656 0.76405 0.90558 0.0
C394 C 0.21994 0.78233 0.91778 0.0
C395 C 0.22671 0.7973 0.94275 0.0
H396 H 0.9889 0.56666 0.4237 0.0
H397 H 0.0097 0.49103 0.44923 0.0
H398 H 0.02658 0.56831 0.39538 0.0
H399 H 0.04699 0.49208 0.42052 0.0
H400 H 0.09048 0.48775 0.34137 0.0
H401 H 0.05375 0.4874 0.37088 0.0
H402 H 0.0754 0.57318 0.39926 0.0
H403 H 0.11194 0.5736 0.36998 0.0
C404 C 1.00183 0.55069 0.42355 0.0
C405 C 0.99651 0.52873 0.43854 0.0
C406 C 0.02325 0.55147 0.40725 0.0
C407 C 0.03958 0.53013 0.4055 0.0
C408 C 0.03452 0.50854 0.42106 0.0
C409 C 0.0133 0.50796 0.43753 0.0
C410 C 0.08736 0.50651 0.35389 0.0
C411 C 0.10418 0.53066 0.35334 0.0
C412 C 0.06643 0.50628 0.37088 0.0
C413 C 0.06172 0.53028 0.38741 0.0
C414 C 0.07839 0.55445 0.38662 0.0
C415 C 0.09942 0.55459 0.36992 0.0
H416 H 0.79763 0.72504 0.80081 0.0
H417 H 0.84883 0.78279 0.85355 0.0
H418 H 0.79345 0.69396 0.83532 0.0
H419 H 0.84531 0.75168 0.88802 0.0
H420 H 0.75541 0.6925 0.92104 0.0
H421 H 0.76951 0.70778 0.87905 0.0
H422 H 0.84931 0.70226 0.90285 0.0
H423 H 0.83508 0.68616 0.94478 0.0
C424 C 0.80925 0.73022 0.81924 0.0
C425 C 0.82382 0.75602 0.82451 0.0
C426 C 0.80658 0.71269 0.83911 0.0
C427 C 0.81885 0.72051 0.86447 0.0
C428 C 0.83579 0.74496 0.86863 0.0
C429 C 0.83805 0.76268 0.84887 0.0
C430 C 0.77589 0.69374 0.91699 0.0
C431 C 0.79411 0.68808 0.9362 0.0
C432 C 0.78398 0.70239 0.89288 0.0
C433 C 0.81053 0.7062 0.88764 0.0
C434 C 0.82873 0.69943 0.90634 0.0
C435 C 0.82056 0.69008 0.93024 0.0
H436 H 0.98736 0.02773 0.48189 0.0
H437 H 0.04484 0.99634 0.42991 0.0
H438 H 0.9568 0.0261 0.44321 0.0
H439 H 0.01475 0.99463 0.39139 0.0
H440 H 0.94875 0.9645 0.33392 0.0
H441 H 0.97246 0.96614 0.37638 0.0
H442 H 0.95301 0.04877 0.39917 0.0
H443 H 0.92902 0.04721 0.35626 0.0
C444 C 0.99336 0.02066 0.4621 0.0
C445 C 0.01829 0.01225 0.4586 0.0
C446 C 0.97603 0.01977 0.44008 0.0
C447 C 0.98333 0.01 0.41435 0.0
C448 C 1.00845 1.00189 0.41102 0.0
C449 C 0.02574 1.00307 0.4329 0.0
C450 C 0.94908 0.9829 0.3481 0.0
C451 C 0.93734 0.0059 0.34151 0.0
C452 C 0.96279 0.98386 0.37239 0.0
C453 C 0.96509 0.0078 0.39079 0.0
C454 C 0.95161 0.03007 0.38527 0.0
C455 C 0.93783 0.02914 0.36076 0.0
H456 H 0.25203 0.28901 0.71392 0.0
H457 H 0.18584 0.2992 0.66391 0.0
H458 H 0.27114 0.26364 0.67598 0.0
H459 H 0.20432 0.27309 0.62593 0.0
H460 H 0.27782 0.18845 0.61481 0.0
H461 H 0.26112 0.21826 0.65088 0.0
H462 H 0.23958 0.27257 0.59473 0.0
H463 H 0.25602 0.24244 0.55845 0.0
C464 C 0.24189 0.28623 0.69459 0.0
C465 C 0.21762 0.29604 0.69162 0.0
C466 C 0.25257 0.2714 0.67298 0.0
C467 C 0.23911 0.26605 0.64798 0.0
C468 C 0.21528 0.27697 0.64482 0.0
C469 C 0.20464 0.2918 0.66648 0.0
C470 C 0.26945 0.20669 0.6101 0.0
C471 C 0.26817 0.213 0.58372 0.0
C472 C 0.26009 0.22394 0.63084 0.0
C473 C 0.24922 0.24796 0.62575 0.0
C474 C 0.24768 0.25414 0.5993 0.0
C475 C 0.2571 0.23687 0.57851 0.0
H476 H 0.53093 0.50641 0.60696 0.0
H477 H 0.4601 0.47642 0.56156 0.0
H478 H 0.50683 0.51182 0.64784 0.0
H479 H 0.43556 0.48141 0.60249 0.0
H480 H 0.40024 0.52945 0.67553 0.0
H481 H 0.42275 0.51888 0.63428 0.0
H482 H 0.48263 0.48614 0.67852 0.0
H483 H 0.46069 0.49745 0.71965 0.0
C484 C 0.51019 0.50048 0.60601 0.0
C485 C 0.49724 0.49084 0.58145 0.0
C486 C 0.49636 0.50352 0.6293 0.0
C487 C 0.46924 0.49701 0.62844 0.0
C488 C 0.45638 0.48687 0.60378 0.0
C489 C 0.47031 0.48381 0.58046 0.0
C490 C 0.41813 0.51986 0.67639 0.0
C491 C 0.42865 0.51429 0.70089 0.0
C492 C 0.43094 0.51362 0.65274 0.0
C493 C 0.45453 0.50173 0.65313 0.0
C494 C 0.46467 0.49561 0.67757 0.0
C495 C 0.45193 0.50188 0.70115 0.0
H496 H 0.80813 0.32248 0.74571 0.0
H497 H 0.8184 0.24819 0.69468 0.0
H498 H 0.79807 0.34522 0.7064 0.0
H499 H 0.80782 0.27006 0.65545 0.0
H500 H 0.80221 0.31752 0.58715 0.0
H501 H 0.82106 0.304 0.62748 0.0
H502 H 0.76261 0.34247 0.67367 0.0
H503 H 0.74413 0.35663 0.63306 0.0
C504 C 0.8087 0.31134 0.72594 0.0
C505 C 0.81422 0.28387 0.72287 0.0
C506 C 0.8027 0.32412 0.7035 0.0
C507 C 0.80209 0.3095 0.67769 0.0
C508 C 0.80855 0.2822 0.67486 0.0
C509 C 0.81454 0.26957 0.69723 0.0
C510 C 0.7934 0.32321 0.60584 0.0
C511 C 0.7713 0.3376 0.60678 0.0
C512 C 0.80425 0.31546 0.62906 0.0
C513 C 0.79309 0.32164 0.65383 0.0
C514 C 0.77185 0.33746 0.655 0.0
C515 C 0.76116 0.34549 0.63171 0.0
H516 H 0.49679 0.96763 0.6391 0.0
H517 H 0.54995 0.98746 0.57878 0.0
H518 H 0.53283 0.97213 0.67225 0.0
H519 H 0.58619 0.99352 0.61185 0.0
H520 H 0.64951 0.98725 0.67386 0.0
H521 H 0.61423 0.97536 0.64036 0.0
H522 H 0.56035 0.00663 0.69737 0.0
H523 H 0.59551 0.01725 0.73119 0.0
C524 C 0.51642 0.9725 0.63299 0.0
C525 C 0.52084 0.97692 0.60654 0.0
C526 C 0.53705 0.97557 0.65198 0.0
C527 C 0.56259 0.98369 0.64503 0.0
C528 C 0.56698 0.98697 0.61809 0.0
C529 C 0.54631 0.98348 0.59904 0.0
C530 C 0.63011 0.99159 0.67927 0.0
C531 C 0.62541 1.0033 0.70527 0.0
C532 C 0.60981 0.98485 0.65995 0.0
C533 C 0.58422 0.98994 0.66593 0.0
C534 C 0.57959 1.00177 0.69199 0.0
C535 C 0.59985 0.00815 0.71142 0.0
H536 H 0.82682 0.24419 0.8286 0.0
H537 H 0.88011 0.22905 0.76603 0.0
H538 H 0.85935 0.23508 0.86166 0.0
H539 H 0.91263 0.21912 0.79863 0.0
H540 H 0.97466 0.23992 0.86617 0.0
H541 H 0.94098 0.24356 0.83274 0.0
H542 H 0.88401 0.20285 0.87957 0.0
H543 H 0.91772 0.20003 0.9136 0.0
C544 C 0.84541 0.23834 0.82198 0.0
C545 C 0.8512 0.2376 0.79498 0.0
C546 C 0.86407 0.23305 0.84083 0.0
C547 C 0.88888 0.22666 0.83297 0.0
C548 C 0.89406 0.22465 0.8056 0.0
C549 C 0.87545 0.23016 0.78686 0.0
C550 C 0.95499 0.2316 0.86937 0.0
C551 C 0.94899 0.21976 0.89273 0.0
C552 C 0.93561 0.23352 0.85 0.0
C553 C 0.90964 0.22345 0.85328 0.0
C554 C 0.90368 0.21119 0.87646 0.0
C555 C 0.92308 0.20943 0.89596 0.0
H556 H 0.49444 0.91863 0.59203 0.0
H557 H 0.51153 0.95026 0.51797 0.0
H558 H 0.50236 0.87242 0.57202 0.0
H559 H 0.51851 0.90424 0.49739 0.0
H560 H 0.54226 0.81983 0.47007 0.0
H561 H 0.54329 0.8659 0.49422 0.0
H562 H 0.47891 0.83811 0.54015 0.0
H563 H 0.47836 0.79193 0.51661 0.0
C564 C 0.50057 0.9157 0.57166 0.0
C565 C 0.50237 0.93776 0.55643 0.0
C566 C 0.50469 0.88924 0.56001 0.0
C567 C 0.51063 0.88441 0.53289 0.0
C568 C 0.51412 0.90706 0.51831 0.0
C569 C 0.51009 0.93342 0.53 0.0
C570 C 0.52831 0.82352 0.48533 0.0
C571 C 0.51015 0.8021 0.49126 0.0
C572 C 0.5289 0.85 0.49919 0.0
C573 C 0.51125 0.85583 0.51927 0.0
C574 C 0.49316 0.83435 0.52524 0.0
C575 C 0.49266 0.80786 0.51148 0.0
H576 H 0.18393 0.30272 0.79904 0.0
H577 H 0.12585 0.30499 0.73677 0.0
H578 H 0.15003 0.2908 0.8295 0.0
H579 H 0.09157 0.29252 0.76712 0.0
H580 H 0.04723 0.23305 0.82152 0.0
H581 H 0.07729 0.25106 0.78994 0.0
H582 H 0.11338 0.31115 0.8529 0.0
H583 H 0.08351 0.29314 0.88454 0.0
C584 C 0.1638 0.30104 0.79208 0.0
C585 C 0.15735 0.30499 0.76577 0.0
C586 C 0.1444 0.29423 0.80944 0.0
C587 C 0.11813 0.29094 0.80074 0.0
C588 C 0.11166 0.29484 0.77432 0.0
C589 C 0.13115 0.30194 0.75701 0.0
C590 C 0.06133 0.25036 0.82856 0.0
C591 C 0.06318 0.26145 0.85562 0.0
C592 C 0.07846 0.26074 0.81042 0.0
C593 C 0.09785 0.2823 0.81904 0.0
C594 C 0.09887 0.29424 0.8458 0.0
C595 C 0.08166 0.284 0.86388 0.0
H596 H 0.56005 0.55596 0.54018 0.0
H597 H 0.51986 0.50741 0.47211 0.0
H598 H 0.56025 0.59716 0.51744 0.0
H599 H 0.5198 0.54862 0.449 0.0
H600 H 0.54129 0.63273 0.41387 0.0
H601 H 0.54696 0.58895 0.43076 0.0
H602 H 0.52064 0.62126 0.5074 0.0
H603 H 0.51486 0.66475 0.49067 0.0
C604 C 0.55247 0.55399 0.51976 0.0
C605 C 0.54041 0.52864 0.50759 0.0
C606 C 0.55207 0.57756 0.50694 0.0
C607 C 0.53957 0.57617 0.48166 0.0
C608 C 0.52959 0.5503 0.46846 0.0
C609 C 0.52987 0.5267 0.48146 0.0
C610 C 0.53635 0.63032 0.43421 0.0
C611 C 0.52769 0.65228 0.45096 0.0
C612 C 0.53969 0.60529 0.44386 0.0
C613 C 0.53479 0.60193 0.47054 0.0
C614 C 0.52516 0.6235 0.48692 0.0
C615 C 0.52155 0.64832 0.47722 0.0
H616 H 0.87644 0.78919 0.80628 0.0
H617 H 0.82666 0.75936 0.73705 0.0
H618 H 0.91487 0.78496 0.77894 0.0
H619 H 0.86465 0.75582 0.7096 0.0
H620 H 0.93232 0.79822 0.66686 0.0
H621 H 0.8973 0.79779 0.69827 0.0
H622 H 0.93867 0.74783 0.74591 0.0
H623 H 0.97364 0.7477 0.71414 0.0
C624 C 0.87383 0.78077 0.78545 0.0
C625 C 0.84871 0.77455 0.77368 0.0
C626 C 0.89571 0.77866 0.76976 0.0
C627 C 0.89267 0.77065 0.74204 0.0
C628 C 0.86756 0.7625 0.7308 0.0
C629 C 0.84587 0.7642 0.74651 0.0
C630 C 0.9342 0.78747 0.6842 0.0
C631 C 0.95578 0.77293 0.68791 0.0
C632 C 0.91402 0.78702 0.70207 0.0
C633 C 0.91513 0.77248 0.72436 0.0
C634 C 0.93728 0.75913 0.72888 0.0
C635 C 0.95727 0.7591 0.71069 0.0
H636 H 0.02711 0.98932 0.55888 0.0
H637 H 0.09527 0.9664 0.51868 0.0
H638 H 0.02588 0.94858 0.58187 0.0
H639 H 0.09611 0.92715 0.54373 0.0
H640 H 0.06286 0.83914 0.54785 0.0
H641 H 0.07325 0.88517 0.53769 0.0
H642 H 0.0364 0.91685 0.60912 0.0
H643 H 0.02445 0.86962 0.6185 0.0
C644 C 0.04251 0.97606 0.55588 0.0
C645 C 0.0608 0.98053 0.53644 0.0
C646 C 0.04196 0.95266 0.56921 0.0
C647 C 0.06029 0.93359 0.56401 0.0
C648 C 0.08084 0.94046 0.5474 0.0
C649 C 0.08085 0.96342 0.53344 0.0
C650 C 0.05708 0.85579 0.5617 0.0
C651 C 0.04256 0.85042 0.58397 0.0
C652 C 0.06343 0.88259 0.55598 0.0
C653 C 0.05597 0.9053 0.57256 0.0
C654 C 0.04226 0.90007 0.59554 0.0
C655 C 0.03546 0.87294 0.60107 0.0
H656 H 0.12806 0.71278 0.77165 0.0
H657 H 0.1867 0.70651 0.71308 0.0
H658 H 0.09822 0.72634 0.73879 0.0
H659 H 0.15618 0.71702 0.67917 0.0
H660 H 0.10744 0.76459 0.63009 0.0
H661 H 0.13677 0.75211 0.66401 0.0
H662 H 0.07108 0.71405 0.70209 0.0
H663 H 0.04184 0.72859 0.6692 0.0
C664 C 0.13438 0.71398 0.75155 0.0
C665 C 0.15972 0.70887 0.74495 0.0
C666 C 0.11716 0.72135 0.73251 0.0
C667 C 0.12463 0.72303 0.7061 0.0
C668 C 0.14977 0.71673 0.69934 0.0
C669 C 0.16718 0.7101 0.71862 0.0
C670 C 0.09936 0.75377 0.64591 0.0
C671 C 0.07242 0.74765 0.64713 0.0
C672 C 0.11618 0.74627 0.66525 0.0
C673 C 0.10652 0.73171 0.68587 0.0
C674 C 0.07941 0.72565 0.68696 0.0
C675 C 0.06256 0.73387 0.66802 0.0
H676 H 1.00139 0.55432 0.51261 0.0
H677 H 0.95866 0.59319 0.45613 0.0
H678 H 0.01445 0.59941 0.53853 0.0
H679 H 0.97195 0.63838 0.48142 0.0
H680 H 0.01088 0.71762 0.52884 0.0
H681 H 0.01059 0.67388 0.49997 0.0
H682 H 0.98372 0.63014 0.56474 0.0
H683 H 0.98365 0.67376 0.59348 0.0
C684 C 0.99586 0.57276 0.5052 0.0
C685 C 0.97949 0.57065 0.4823 0.0
C686 C 1.00301 0.59841 0.52008 0.0
C687 C 0.99409 0.62235 0.51204 0.0
C688 C 0.97934 0.62034 0.48794 0.0
C689 C 0.97186 0.59463 0.47337 0.0
C690 C 1.00523 0.69863 0.537 0.0
C691 C 0.99713 0.69911 0.56338 0.0
C692 C 1.00504 0.67365 0.52046 0.0
C693 C 0.99725 0.64865 0.53015 0.0
C694 C 0.99014 0.64908 0.55684 0.0
C695 C 0.98989 0.67406 0.57323 0.0
H696 H 0.7681 0.82077 0.22786 0.0
H697 H 0.71937 0.88669 0.22791 0.0
H698 H 0.80653 0.85341 0.22799 0.0
H699 H 0.75758 0.92007 0.23144 0.0
H700 H 0.83079 0.97608 0.22546 0.0
H701 H 0.79312 0.94218 0.21538 0.0
H702 H 0.83176 0.88446 0.25679 0.0
H703 H 0.86993 0.91766 0.26467 0.0
C704 C 0.76564 0.84226 0.22741 0.0
C705 C 0.7408 0.85122 0.22776 0.0
C706 C 0.78773 0.86122 0.22826 0.0
C707 C 0.78552 0.88975 0.23044 0.0
C708 C 0.76043 0.89845 0.22959 0.0
C709 C 0.73839 0.87936 0.22789 0.0
C710 C 0.83108 0.95606 0.2323 0.0
C711 C 0.85319 0.94944 0.24585 0.0
C712 C 0.80943 0.93657 0.22665 0.0
C713 C 0.80909 0.91024 0.23514 0.0
C714 C 0.83128 0.90401 0.24911 0.0
C715 C 0.85315 0.92319 0.25401 0.0
H716 H 0.72494 0.15704 0.31889 0.0
H717 H 0.76309 0.20097 0.25979 0.0
H718 H 0.7629 0.13128 0.3231 0.0
H719 H 0.80081 0.17528 0.26346 0.0
H720 H 0.87288 0.1406 0.28947 0.0
H721 H 0.83669 0.16861 0.29368 0.0
H722 H 0.7835 0.09536 0.29457 0.0
H723 H 0.81985 0.06721 0.29065 0.0
C724 C 0.74166 0.16133 0.30709 0.0
C725 C 0.74125 0.18073 0.28893 0.0
C726 C 0.76323 0.14651 0.30929 0.0
C727 C 0.78487 0.15113 0.29354 0.0
C728 C 0.78464 0.17136 0.27608 0.0
C729 C 0.76305 0.18594 0.27379 0.0
C730 C 0.85353 0.13041 0.29085 0.0
C731 C 0.84928 0.10158 0.28946 0.0
C732 C 0.83275 0.14651 0.29315 0.0
C733 C 0.80716 0.13424 0.29419 0.0
C734 C 0.80299 0.1055 0.294 0.0
C735 C 0.82382 0.08934 0.29162 0.0
H736 H 0.42893 1.00376 0.02302 0.0
H737 H 0.40654 0.98603 0.93935 0.0
H738 H 0.39264 0.97148 0.03365 0.0
H739 H 0.37114 0.95244 0.94984 0.0
H740 H 0.34522 0.86876 0.98848 0.0
H741 H 0.37648 0.90517 0.97601 0.0
H742 H 0.3373 0.96613 0.02337 0.0
H743 H 0.3053 0.92968 0.0353 0.0
C744 C 0.41602 0.99321 0.00699 0.0
C745 C 0.42039 0.99739 0.98039 0.0
C746 C 0.3954 0.97475 0.01304 0.0
C747 C 0.37921 0.95971 0.99252 0.0
C748 C 0.38345 0.96391 0.96593 0.0
C749 C 0.4037 0.98287 0.95995 0.0
C750 C 0.34314 0.88995 0.99607 0.0
C751 C 0.32293 0.89646 0.01291 0.0
C752 C 0.36091 0.9107 0.98882 0.0
C753 C 0.35914 0.93827 0.99876 0.0
C754 C 0.33891 0.94492 0.01549 0.0
C755 C 0.32067 0.92416 0.02222 0.0
H756 H 0.2967 0.3608 0.32543 0.0
H757 H 0.25227 0.30272 0.26673 0.0
H758 H 0.26548 0.39455 0.3207 0.0
H759 H 0.22107 0.33652 0.26139 0.0
H760 H 0.19449 0.44155 0.31969 0.0
H761 H 0.21646 0.40116 0.32754 0.0
H762 H 0.22721 0.38382 0.243 0.0
H763 H 0.20577 0.4243 0.23522 0.0
C764 C 0.28004 0.35537 0.31169 0.0
C765 C 0.27666 0.32951 0.29636 0.0
C766 C 0.26213 0.37444 0.3091 0.0
C767 C 0.24079 0.36805 0.29078 0.0
C768 C 0.23732 0.34192 0.27566 0.0
C769 C 0.25504 0.32269 0.27864 0.0
C770 C 0.20086 0.42862 0.30275 0.0
C771 C 0.19852 0.43608 0.27686 0.0
C772 C 0.21362 0.4057 0.30726 0.0
C773 C 0.22369 0.38954 0.28589 0.0
C774 C 0.21954 0.39582 0.25982 0.0
C775 C 0.2073 0.41901 0.25537 0.0
H776 H 0.08739 0.05078 0.54952 0.0
H777 H 0.11627 1.00339 0.4817 0.0
H778 H 0.12932 0.07919 0.55629 0.0
H779 H 0.15822 0.03161 0.48809 0.0
H780 H 0.23508 0.08625 0.5131 0.0
H781 H 0.19884 0.05062 0.51613 0.0
H782 H 0.14629 0.11346 0.5271 0.0
H783 H 0.18193 0.14864 0.52401 0.0
C784 C 0.1032 0.04569 0.53689 0.0
C785 C 0.09884 0.02485 0.5153 0.0
C786 C 0.12704 0.06214 0.54043 0.0
C787 C 0.147 0.05797 0.52243 0.0
C788 C 0.14339 0.03534 0.50238 0.0
C789 C 0.11947 0.01906 0.49878 0.0
C790 C 0.21579 0.0924 0.51622 0.0
C791 C 0.21149 0.12037 0.5181 0.0
C792 C 0.19505 0.072 0.51799 0.0
C793 C 0.1697 0.0792 0.52221 0.0
C794 C 0.16559 0.10716 0.5244 0.0
C795 C 0.18609 0.12737 0.52227 0.0
H796 H 0.77619 0.22634 0.80997 0.0
H797 H 0.81464 0.1865 0.7441 0.0
H798 H 0.74839 0.18355 0.81289 0.0
H799 H 0.78642 0.14393 0.74581 0.0
H800 H 0.68125 0.11811 0.78757 0.0
H801 H 0.71252 0.15856 0.78763 0.0
H802 H 0.77302 0.10588 0.76808 0.0
H803 H 0.74153 0.0656 0.76694 0.0
C804 C 0.7791 0.20802 0.7967 0.0
C805 C 0.79767 0.20923 0.77718 0.0
C806 C 0.76292 0.18371 0.7979 0.0
C807 C 0.76478 0.16032 0.77926 0.0
C808 C 0.7845 0.16132 0.76067 0.0
C809 C 0.80079 0.18556 0.75971 0.0
C810 C 0.70115 0.11521 0.7829 0.0
C811 C 0.70886 0.08865 0.77714 0.0
C812 C 0.71921 0.1384 0.78333 0.0
C813 C 0.74548 0.13557 0.77829 0.0
C814 C 0.75298 0.10895 0.77188 0.0
C815 C 0.73487 0.08579 0.77118 0.0
H816 H 0.42984 0.01341 0.60354 0.0
H817 H 0.45741 0.01894 0.52451 0.0
H818 H 0.3968 0.04412 0.5955 0.0
H819 H 0.42413 0.04936 0.51609 0.0
H820 H 0.34511 0.08488 0.50489 0.0
H821 H 0.37523 0.05052 0.51149 0.0
H822 H 0.39837 0.0937 0.58938 0.0
H823 H 0.36862 0.12769 0.58293 0.0
C824 C 0.42877 0.02129 0.58447 0.0
C825 C 0.4462 0.01409 0.56472 0.0
C826 C 0.40988 0.03875 0.5798 0.0
C827 C 0.40791 0.04921 0.55516 0.0
C828 C 0.42497 0.04141 0.53514 0.0
C829 C 0.44402 0.02411 0.53994 0.0
C830 C 0.35657 0.08689 0.52344 0.0
C831 C 0.3545 0.10904 0.54335 0.0
C832 C 0.37387 0.06733 0.52716 0.0
C833 C 0.38908 0.06937 0.55101 0.0
C834 C 0.38669 0.09133 0.57095 0.0
C835 C 0.36973 0.11094 0.56713 0.0
H836 H 0.5548 0.44083 0.50285 0.0
H837 H 0.59128 0.51864 0.54075 0.0
H838 H 0.59702 0.4231 0.49899 0.0
H839 H 0.63402 0.50178 0.53587 0.0
H840 H 0.69323 0.44693 0.5661 0.0
H841 H 0.65583 0.47136 0.55863 0.0
H842 H 0.63899 0.42112 0.48267 0.0
H843 H 0.67609 0.39581 0.49077 0.0
C844 C 0.57214 0.45448 0.50926 0.0
C845 C 0.56996 0.48104 0.52194 0.0
C846 C 0.59641 0.44441 0.50708 0.0
C847 C 0.61912 0.46081 0.51747 0.0
C848 C 0.61698 0.48831 0.52815 0.0
C849 C 0.59259 0.49823 0.53052 0.0
C850 C 0.68179 0.44127 0.54762 0.0
C851 C 0.68753 0.41912 0.52921 0.0
C852 C 0.66034 0.45553 0.54318 0.0
C853 C 0.6441 0.44824 0.52006 0.0
C854 C 0.6507 0.42704 0.50094 0.0
C855 C 0.67209 0.41259 0.5055 0.0
H856 H 0.67859 0.20398 0.34661 0.0
H857 H 0.75276 0.23485 0.31966 0.0
H858 H 0.69034 0.2269 0.39174 0.0
H859 H 0.76494 0.25743 0.3649 0.0
H860 H 0.78254 0.27333 0.45673 0.0
H861 H 0.77295 0.24749 0.41264 0.0
H862 H 0.69749 0.27754 0.41055 0.0
H863 H 0.70701 0.30351 0.45469 0.0
C864 C 0.6976 0.21529 0.35061 0.0
C865 C 0.71478 0.21783 0.32987 0.0
C866 C 0.70426 0.22853 0.37626 0.0
C867 C 0.72839 0.24427 0.3817 0.0
C868 C 0.74622 0.2454 0.36127 0.0
C869 C 0.73939 0.23237 0.33549 0.0
C870 C 0.7639 0.27451 0.44687 0.0
C871 C 0.74548 0.29044 0.45929 0.0
C872 C 0.75849 0.25977 0.42158 0.0
C873 C 0.73442 0.26032 0.4083 0.0
C874 C 0.71609 0.27644 0.42053 0.0
C875 C 0.72162 0.29149 0.4457 0.0
H876 H 0.52937 0.04543 0.9719 0.0
H877 H 0.4768 0.0242 0.90331 0.0
H878 H 0.56637 0.04265 0.94299 0.0
H879 H 0.51327 0.01929 0.87447 0.0
H880 H 0.58376 0.03024 0.82501 0.0
H881 H 0.54797 0.03943 0.85377 0.0
H882 H 0.58874 0.00971 0.91868 0.0
H883 H 0.62512 1.00205 0.89018 0.0
C884 C 0.52581 0.0406 0.95056 0.0
C885 C 0.50035 0.03504 0.93974 0.0
C886 C 0.54695 0.03843 0.93397 0.0
C887 C 0.54299 0.03032 0.90627 0.0
C888 C 0.51733 0.02588 0.89552 0.0
C889 C 0.49634 0.02846 0.91204 0.0
C890 C 0.58497 0.02549 0.84537 0.0
C891 C 0.60723 0.0153 0.85528 0.0
C892 C 0.56439 0.03074 0.86195 0.0
C893 C 0.5653 0.02544 0.88875 0.0
C894 C 0.58746 0.01471 0.89842 0.0
C895 C 0.60823 0.00994 0.88197 0.0
H896 H 0.2918 0.22338 0.30164 0.0
H897 H 0.34994 0.27701 0.35023 0.0
H898 H 0.2877 0.19274 0.33641 0.0
H899 H 0.3462 0.24641 0.38516 0.0
H900 H 0.33372 0.18328 0.44407 0.0
H901 H 0.34719 0.19858 0.40155 0.0
H902 H 0.26725 0.20676 0.38034 0.0
H903 H 0.25397 0.19209 0.42272 0.0
C904 C 0.30464 0.22778 0.31926 0.0
C905 C 0.32112 0.25248 0.32339 0.0
C906 C 0.30211 0.21048 0.33929 0.0
C907 C 0.31626 0.21742 0.36376 0.0
C908 C 0.33507 0.24042 0.36653 0.0
C909 C 0.33742 0.25786 0.34649 0.0
C910 C 0.31899 0.18762 0.42996 0.0
C911 C 0.29276 0.18649 0.43674 0.0
C912 C 0.32673 0.19656 0.40572 0.0
C913 C 0.30831 0.20386 0.38755 0.0
C914 C 0.28193 0.20098 0.39369 0.0
C915 C 0.27429 0.19266 0.41806 0.0
H916 H 0.5378 0.48927 0.93179 0.0
H917 H 0.48635 0.53008 0.98497 0.0
H918 H 0.50565 0.48655 0.89495 0.0
H919 H 0.45365 0.52741 0.94799 0.0
H920 H 0.43773 0.4603 0.84051 0.0
H921 H 0.46187 0.46165 0.88274 0.0
H922 H 0.44867 0.54675 0.90311 0.0
H923 H 0.42407 0.54534 0.8606 0.0
C924 C 0.5195 0.49767 0.93542 0.0
C925 C 0.51439 0.50989 0.96095 0.0
C926 C 0.50101 0.49594 0.91451 0.0
C927 C 0.47698 0.50651 0.91865 0.0
C928 C 0.47198 0.51911 0.94423 0.0
C929 C 0.49052 0.52059 0.9653 0.0
C930 C 0.4394 0.47914 0.85425 0.0
C931 C 0.42933 0.50284 0.84707 0.0
C932 C 0.45338 0.47995 0.87838 0.0
C933 C 0.45773 0.50449 0.89591 0.0
C934 C 0.44569 0.52756 0.88992 0.0
C935 C 0.43153 0.52673 0.86564 0.0
H936 H 0.74549 0.77101 0.21813 0.0
H937 H 0.70388 0.81632 0.16642 0.0
H938 H 0.76242 0.74477 0.17952 0.0
H939 H 0.71919 0.78902 0.12723 0.0
H940 H 0.76749 0.74785 0.06206 0.0
H941 H 0.75327 0.7777 0.09982 0.0
H942 H 0.7482 0.70929 0.14648 0.0
H943 H 0.76377 0.68018 0.10931 0.0
C944 C 0.74035 0.77546 0.19829 0.0
C945 C 0.72395 0.79585 0.19497 0.0
C946 C 0.74958 0.76018 0.17612 0.0
C947 C 0.74188 0.76434 0.15004 0.0
C948 C 0.72584 0.78536 0.14688 0.0
C949 C 0.71704 0.80103 0.1692 0.0
C950 C 0.76317 0.73925 0.08039 0.0
C951 C 0.76689 0.71175 0.08281 0.0
C952 C 0.75495 0.75634 0.10206 0.0
C953 C 0.74989 0.74615 0.1265 0.0
C954 C 0.75268 0.71825 0.12838 0.0
C955 C 0.76132 0.70138 0.10693 0.0
H956 H 0.96509 0.9815 0.05557 0.0
H957 H 0.03587 0.00806 0.10233 0.0
H958 H 0.94004 0.98669 0.09617 0.0
H959 H 0.01128 0.01344 0.14286 0.0
H960 H 0.96404 0.99789 0.21335 0.0
H961 H 0.98569 0.98679 0.17207 0.0
H962 H 0.92823 0.02435 0.12915 0.0
H963 H 0.90595 0.03484 0.17062 0.0
C964 C 0.97518 0.98822 0.07466 0.0
C965 C 1.00226 0.99416 0.07612 0.0
C966 C 0.96095 0.99135 0.09779 0.0
C967 C 0.97368 1.00041 0.12275 0.0
C968 C 1.0009 0.00595 0.12406 0.0
C969 C 0.01501 1.0029 0.10097 0.0
C970 C 0.95569 1.00342 0.19511 0.0
C971 C 0.9332 0.01722 0.19531 0.0
C972 C 0.9683 0.99726 0.17144 0.0
C973 C 0.95882 1.00486 0.14735 0.0
C974 C 0.9359 0.018 0.14735 0.0
C975 C 0.92322 0.02416 0.17112 0.0
H976 H 0.32089 0.80844 0.23686 0.0
H977 H 0.33091 0.73942 0.17854 0.0
H978 H 0.31047 0.83568 0.20096 0.0
H979 H 0.32001 0.76587 0.14268 0.0
H980 H 0.31334 0.82107 0.08096 0.0
H981 H 0.33322 0.80398 0.11897 0.0
H982 H 0.27396 0.83531 0.16914 0.0
H983 H 0.2543 0.85289 0.13089 0.0
C984 C 0.32132 0.79941 0.21627 0.0
C985 C 0.32662 0.772 0.21022 0.0
C986 C 0.31513 0.81478 0.19577 0.0
C987 C 0.3143 0.80296 0.1689 0.0
C988 C 0.32079 0.77584 0.16304 0.0
C989 C 0.32689 0.76057 0.18349 0.0
C990 C 0.3046 0.82445 0.10007 0.0
C991 C 0.28187 0.83769 0.10277 0.0
C992 C 0.31605 0.81469 0.12193 0.0
C993 C 0.3049 0.81773 0.14702 0.0
C994 C 0.28315 0.83268 0.15014 0.0
C995 C 0.27181 0.84269 0.12822 0.0
H996 H 0.04772 0.48547 0.08186 0.0
H997 H 0.99338 0.4686 0.142 0.0
H998 H 0.08361 0.49075 0.11519 0.0
H999 H 0.02908 0.47248 0.17556 0.0
H1000 H 0.09346 0.51658 0.23402 0.0
H1001 H 0.05789 0.50626 0.2005 0.0
H1002 H 0.11032 0.47131 0.14391 0.0
H1003 H 0.14593 0.48283 0.17698 0.0
C1004 C 0.04372 0.48191 0.10215 0.0
C1005 C 0.01806 0.47626 0.10946 0.0
C1006 C 0.0642 0.48497 0.12136 0.0
C1007 C 0.05942 0.48227 0.14834 0.0
C1008 C 0.03362 0.47531 0.15522 0.0
C1009 C 0.01317 0.4726 0.13602 0.0
C1010 C 0.09735 0.5067 0.21442 0.0
C1011 C 0.12263 0.5008 0.20818 0.0
C1012 C 0.07688 0.50052 0.19517 0.0
C1013 C 0.08104 0.4879 0.16927 0.0
C1014 C 0.10629 0.48152 0.16333 0.0
C1015 C 0.12679 0.48805 0.18242 0.0
H1016 H 0.36158 0.6904 0.27719 0.0
H1017 H 0.35586 0.77434 0.3104 0.0
H1018 H 0.391 0.68472 0.31461 0.0
H1019 H 0.38664 0.76926 0.34688 0.0
H1020 H 0.47224 0.75262 0.37557 0.0
H1021 H 0.43846 0.75616 0.3416 0.0
H1022 H 0.38941 0.69182 0.37183 0.0
H1023 H 0.42287 0.68879 0.40652 0.0
C1024 C 0.36612 0.7074 0.29279 0.0
C1025 C 0.35637 0.73278 0.29093 0.0
C1026 C 0.38316 0.70425 0.31402 0.0
C1027 C 0.39117 0.72662 0.33344 0.0
C1028 C 0.38088 0.75177 0.33202 0.0
C1029 C 0.36338 0.75469 0.31117 0.0
C1030 C 0.45428 0.7392 0.37499 0.0
C1031 C 0.45023 0.72043 0.39375 0.0
C1032 C 0.43494 0.74135 0.35565 0.0
C1033 C 0.41138 0.72431 0.35422 0.0
C1034 C 0.40743 0.70517 0.37258 0.0
C1035 C 0.42653 0.70351 0.39241 0.0
H1036 H 0.96399 0.4138 0.08144 0.0
H1037 H 0.02882 0.44854 0.04095 0.0
H1038 H 0.97032 0.36788 0.06022 0.0
H1039 H 0.03651 0.40245 0.02044 0.0
H1040 H 0.01925 0.32422 0.96076 0.0
H1041 H 0.0178 0.3693 0.98626 0.0
H1042 H 0.99401 0.33017 0.05512 0.0
H1043 H 0.99419 0.28529 0.02918 0.0
C1044 C 0.98028 0.41123 0.06872 0.0
C1045 C 0.99609 0.43435 0.0629 0.0
C1046 C 0.98398 0.38497 0.05647 0.0
C1047 C 1.00383 0.38124 0.03827 0.0
C1048 C 0.02067 0.40446 0.03382 0.0
C1049 C 0.01667 0.4308 0.04588 0.0
C1050 C 0.01366 0.32529 0.98133 0.0
C1051 C 1.00656 0.30113 0.99281 0.0
C1052 C 0.01309 0.35119 0.99612 0.0
C1053 C 1.00581 0.35361 0.02291 0.0
C1054 C 0.99922 0.32932 0.03446 0.0
C1055 C 0.99938 0.30348 0.01956 0.0
H1056 H 0.70158 0.80097 0.30012 0.0
H1057 H 0.63338 0.80474 0.25055 0.0
H1058 H 0.67438 0.78608 0.3356 0.0
H1059 H 0.60575 0.78892 0.28557 0.0
H1060 H 0.5646 0.78451 0.36501 0.0
H1061 H 0.59117 0.80237 0.33041 0.0
H1062 H 0.64739 0.74562 0.34359 0.0
H1063 H 0.62137 0.72837 0.37835 0.0
C1064 C 0.68065 0.79858 0.29703 0.0
C1065 C 0.66936 0.80399 0.27295 0.0
C1066 C 0.66508 0.78989 0.31712 0.0
C1067 C 0.63786 0.78616 0.31337 0.0
C1068 C 0.6266 0.79188 0.28922 0.0
C1069 C 0.64228 0.80071 0.26915 0.0
C1070 C 0.58268 0.77594 0.36052 0.0
C1071 C 0.59093 0.75512 0.37451 0.0
C1072 C 0.59782 0.78606 0.34061 0.0
C1073 C 0.62149 0.77553 0.33433 0.0
C1074 C 0.62954 0.75458 0.34825 0.0
C1075 C 0.6145 0.74456 0.36811 0.0
H1076 H 0.02625 0.01021 0.96732 0.0
H1077 H 0.06702 0.0583 0.0353 0.0
H1078 H 0.02615 0.05156 0.94445 0.0
H1079 H 0.06711 0.09966 0.0128 0.0
H1080 H 0.01852 0.16611 0.98776 0.0
H1081 H 0.02607 0.12268 1.00364 0.0
H1082 H 0.05325 0.09307 0.92656 0.0
H1083 H 0.04591 0.13694 0.91052 0.0
C1084 C 0.03644 0.0294 0.97666 0.0
C1085 C 0.04707 0.03118 1.00276 0.0
C1086 C 0.03613 0.05309 0.96379 0.0
C1087 C 0.04618 0.07889 0.97709 0.0
C1088 C 0.05892 0.0801 1.00223 0.0
C1089 C 0.05937 0.05643 0.01491 0.0
C1090 C 0.02583 0.15031 0.97403 0.0
C1091 C 0.03166 0.15505 0.94787 0.0
C1092 C 0.03045 0.12553 0.98324 0.0
C1093 C 0.04077 0.10473 0.96649 0.0
C1094 C 0.04549 0.10885 0.93994 0.0
C1095 C 0.04118 0.1339 0.93077 0.0
H1096 H 0.34134 0.2437 0.26487 0.0
H1097 H 0.3781 0.32146 0.3028 0.0
H1098 H 0.37931 0.23786 0.23767 0.0
H1099 H 0.4161 0.31604 0.27561 0.0
H1100 H 0.45366 0.31524 0.19215 0.0
H1101 H 0.42228 0.31825 0.22737 0.0
H1102 H 0.42622 0.23247 0.23581 0.0
H1103 H 0.45745 0.2294 0.20069 0.0
C1104 C 0.35802 0.25901 0.26806 0.0
C1105 C 0.35685 0.28304 0.28578 0.0
C1106 C 0.37971 0.25585 0.25237 0.0
C1107 C 0.4006 0.27677 0.25407 0.0
C1108 C 0.40016 0.29982 0.27337 0.0
C1109 C 0.37859 0.30281 0.28914 0.0
C1110 C 0.44811 0.29713 0.20175 0.0
C1111 C 0.45805 0.27207 0.1934 0.0
C1112 C 0.43018 0.29886 0.22206 0.0
C1113 C 0.42161 0.27554 0.2344 0.0
C1114 C 0.43215 0.25074 0.22657 0.0
C1115 C 0.45019 0.24906 0.20647 0.0
H1116 H 0.53806 0.49969 0.06682 0.0
H1117 H 0.58622 0.45841 0.01048 0.0
H1118 H 0.5379 0.46166 0.09397 0.0
H1119 H 0.58546 0.41979 0.03651 0.0
H1120 H 0.5834 0.35162 0.08518 0.0
H1121 H 0.59448 0.39777 0.07335 0.0
H1122 H 0.51646 0.41708 0.08994 0.0
H1123 H 0.50599 0.37131 0.10307 0.0
C1124 C 0.54937 0.48279 0.06084 0.0
C1125 C 0.56232 0.48191 0.03678 0.0
C1126 C 0.54894 0.46075 0.07606 0.0
C1127 C 0.56121 0.43716 0.06731 0.0
C1128 C 0.57597 0.43752 0.04426 0.0
C1129 C 0.57658 0.45972 0.02927 0.0
C1130 C 0.56884 0.36603 0.08695 0.0
C1131 C 0.54375 0.35776 0.09486 0.0
C1132 C 0.57511 0.39246 0.07991 0.0
C1133 C 0.55628 0.41122 0.08004 0.0
C1134 C 0.53166 0.40349 0.08973 0.0
C1135 C 0.52555 0.37713 0.09726 0.0
H1136 H 0.63173 0.19755 0.26371 0.0
H1137 H 0.6949 0.23013 0.21936 0.0
H1138 H 0.60043 0.20928 0.23069 0.0
H1139 H 0.66394 0.24251 0.18649 0.0
H1140 H 0.60282 0.23647 0.11928 0.0
H1141 H 0.63302 0.22293 0.15168 0.0
H1142 H 0.58343 0.24868 0.21529 0.0
H1143 H 0.55267 0.26156 0.18269 0.0
C1144 C 0.63877 0.20721 0.24676 0.0
C1145 C 0.66554 0.21284 0.2438 0.0
C1146 C 0.62097 0.21412 0.22799 0.0
C1147 C 0.62963 0.22692 0.20593 0.0
C1148 C 0.65655 0.23229 0.20297 0.0
C1149 C 0.67431 0.22526 0.2217 0.0
C1150 C 0.59829 0.23931 0.14017 0.0
C1151 C 0.57528 0.2502 0.14834 0.0
C1152 C 0.61574 0.23164 0.1588 0.0
C1153 C 0.61075 0.23477 0.18614 0.0
C1154 C 0.58773 0.24563 0.19436 0.0
C1155 C 0.57016 0.2532 0.17567 0.0
H1156 H 0.47001 0.09989 0.95541 0.0
H1157 H 0.50377 0.06202 0.01862 0.0
H1158 H 0.48167 0.14552 0.98067 0.0
H1159 H 0.51588 0.10734 0.04394 0.0
H1160 H 0.51379 0.22563 0.03276 0.0
H1161 H 0.51535 0.18233 1.00353 0.0
H1162 H 0.48509 0.13719 0.06609 0.0
H1163 H 0.48358 0.18013 0.09511 0.0
C1164 C 0.48114 0.10159 0.97413 0.0
C1165 C 0.48635 0.07777 0.98509 0.0
C1166 C 0.48766 0.12758 0.98869 0.0
C1167 C 0.49931 0.12997 0.01452 0.0
C1168 C 0.50658 0.10614 0.02429 0.0
C1169 C 0.50005 0.08029 0.00973 0.0
C1170 C 0.50775 0.20641 0.04032 0.0
C1171 C 0.49851 0.20629 0.06624 0.0
C1172 C 0.50858 0.18166 0.02355 0.0
C1173 C 0.50055 0.15633 0.03255 0.0
C1174 C 0.49187 0.1563 0.05868 0.0
C1175 C 0.49077 0.18095 0.07527 0.0
H1176 H 0.22789 0.36439 0.698 0.0
H1177 H 0.25642 0.32888 0.76548 0.0
H1178 H 0.26753 0.39691 0.70066 0.0
H1179 H 0.29608 0.3609 0.76824 0.0
H1180 H 0.37301 0.40798 0.75044 0.0
H1181 H 0.33573 0.37324 0.74193 0.0
H1182 H 0.28526 0.43713 0.73592 0.0
H1183 H 0.32251 0.47204 0.74455 0.0
C1184 C 0.24299 0.36331 0.71299 0.0
C1185 C 0.23946 0.34439 0.73152 0.0
C1186 C 0.26545 0.38191 0.7147 0.0
C1187 C 0.2848 0.38147 0.73474 0.0
C1188 C 0.28161 0.36159 0.75249 0.0
C1189 C 0.25904 0.34335 0.75099 0.0
C1190 C 0.354 0.41468 0.74721 0.0
C1191 C 0.35075 0.44284 0.74833 0.0
C1192 C 0.33267 0.39475 0.74237 0.0
C1193 C 0.30764 0.40249 0.7382 0.0
C1194 C 0.30439 0.43057 0.73879 0.0
C1195 C 0.32569 0.45056 0.74397 0.0
H1196 H 0.21943 0.66198 0.83061 0.0
H1197 H 0.2499 0.6784 0.75497 0.0
H1198 H 0.25469 0.63303 0.83728 0.0
H1199 H 0.28424 0.64878 0.76097 0.0
H1200 H 0.31667 0.5662 0.76483 0.0
H1201 H 0.28128 0.59518 0.76368 0.0
H1202 H 0.3078 0.63851 0.84048 0.0
H1203 H 0.3438 0.60969 0.84161 0.0
C1204 C 0.2338 0.65957 0.81559 0.0
C1205 C 0.23183 0.67205 0.7921 0.0
C1206 C 0.25383 0.64299 0.81933 0.0
C1207 C 0.2719 0.63838 0.79944 0.0
C1208 C 0.2703 0.6516 0.7764 0.0
C1209 C 0.25065 0.66844 0.77291 0.0
C1210 C 0.3149 0.58164 0.78168 0.0
C1211 C 0.33325 0.58573 0.80323 0.0
C1212 C 0.29466 0.59832 0.78092 0.0
C1213 C 0.29199 0.61921 0.80187 0.0
C1214 C 0.30946 0.62251 0.82409 0.0
C1215 C 0.33006 0.60606 0.82467 0.0
H1216 H 0.94017 0.4556 0.478 0.0
H1217 H 0.88588 0.51609 0.47465 0.0
H1218 H 0.90584 0.42286 0.49076 0.0
H1219 H 0.85168 0.48429 0.48971 0.0
H1220 H 0.79055 0.41074 0.49443 0.0
H1221 H 0.82329 0.4439 0.47905 0.0
H1222 H 0.88207 0.41422 0.52754 0.0
H1223 H 0.8497 0.38033 0.54154 0.0
C1224 C 0.92077 0.46178 0.47991 0.0
C1225 C 0.91562 0.48829 0.47535 0.0
C1226 C 0.90114 0.44324 0.48773 0.0
C1227 C 0.87594 0.45097 0.49176 0.0
C1228 C 0.87072 0.47745 0.48667 0.0
C1229 C 0.89034 0.49582 0.47836 0.0
C1230 C 0.81048 0.4115 0.50184 0.0
C1231 C 0.81764 0.3928 0.51896 0.0
C1232 C 0.82927 0.43055 0.49311 0.0
C1233 C 0.85552 0.43158 0.5017 0.0
C1234 C 0.8623 0.41354 0.51975 0.0
C1235 C 0.84367 0.39423 0.52802 0.0
H1236 H 0.75896 0.80802 0.75521 0.0
H1237 H 0.78368 0.85163 0.83221 0.0
H1238 H 0.7277 0.84128 0.7495 0.0
H1239 H 0.7528 0.88536 0.82663 0.0
H1240 H 0.68717 0.9368 0.81505 0.0
H1241 H 0.70731 0.8951 0.82222 0.0
H1242 H 0.73281 0.88861 0.74121 0.0
H1243 H 0.71253 0.92958 0.73402 0.0
C1244 C 0.75748 0.82474 0.77093 0.0
C1245 C 0.77373 0.8276 0.79399 0.0
C1246 C 0.73966 0.84375 0.76774 0.0
C1247 C 0.73783 0.86612 0.78753 0.0
C1248 C 0.75342 0.86822 0.81115 0.0
C1249 C 0.7712 0.8491 0.81433 0.0
C1250 C 0.69644 0.92595 0.7986 0.0
C1251 C 0.69845 0.93659 0.77404 0.0
C1252 C 0.70822 0.90226 0.80278 0.0
C1253 C 0.72192 0.88866 0.78238 0.0
C1254 C 0.72228 0.89834 0.75732 0.0
C1255 C 0.71075 0.92199 0.75323 0.0
H1256 H 0.61463 0.50456 0.97636 0.0
H1257 H 0.58877 0.54859 0.04782 0.0
H1258 H 0.6566 0.53292 0.98189 0.0
H1259 H 0.63068 0.5771 0.05367 0.0
H1260 H 0.73463 0.58627 0.00773 0.0
H1261 H 0.6984 0.55038 0.0099 0.0
H1262 H 0.64617 0.61307 0.0248 0.0
H1263 H 0.68178 0.64854 0.02244 0.0
C1264 C 0.61847 0.51961 0.99386 0.0
C1265 C 0.59866 0.52449 0.01172 0.0
C1266 C 0.6424 0.5359 0.99701 0.0
C1267 C 0.64683 0.55758 0.01797 0.0
C1268 C 0.62774 0.5608 0.03711 0.0
C1269 C 0.60391 0.54431 0.03404 0.0
C1270 C 0.7154 0.59233 0.0115 0.0
C1271 C 0.71117 0.62035 0.01471 0.0
C1272 C 0.69469 0.57178 0.01277 0.0
C1273 C 0.66945 0.57888 0.01787 0.0
C1274 C 0.6654 0.60686 0.02135 0.0
C1275 C 0.68587 0.62724 0.01966 0.0
H1276 H 0.28092 0.72403 0.28821 0.0
H1277 H 0.32737 0.66754 0.24501 0.0
H1278 H 0.2484 0.68624 0.29416 0.0
H1279 H 0.29646 0.62891 0.25293 0.0
H1280 H 0.22411 0.56942 0.24018 0.0
H1281 H 0.25721 0.6076 0.23741 0.0
H1282 H 0.23272 0.64834 0.31193 0.0
H1283 H 0.1984 0.61122 0.31314 0.0
C1284 C 0.2847 0.70315 0.28131 0.0
C1285 C 0.30678 0.69844 0.2668 0.0
C1286 C 0.26604 0.68136 0.28454 0.0
C1287 C 0.26935 0.65418 0.27373 0.0
C1288 C 0.2926 0.64946 0.26087 0.0
C1289 C 0.3108 0.67143 0.25697 0.0
C1290 C 0.22561 0.58684 0.25564 0.0
C1291 C 0.20854 0.58752 0.27668 0.0
C1292 C 0.24492 0.60862 0.25439 0.0
C1293 C 0.24821 0.63122 0.27468 0.0
C1294 C 0.23079 0.63179 0.29561 0.0
C1295 C 0.211 0.61042 0.29637 0.0
H1296 H 0.92987 0.5169 0.1055 0.0
H1297 H 0.9552 0.51646 0.02497 0.0
H1298 H 0.89752 0.54804 0.09653 0.0
H1299 H 0.92256 0.54732 0.01563 0.0
H1300 H 0.84369 0.58396 0.00487 0.0
H1301 H 0.87365 0.54968 0.01229 0.0
H1302 H 0.90003 0.59681 0.08754 0.0
H1303 H 0.87043 0.63071 0.08029 0.0
C1304 C 0.92845 0.52357 0.0859 0.0
C1305 C 0.94503 0.51453 0.06597 0.0
C1306 C 0.90996 0.54128 0.0807 0.0
C1307 C 0.90755 0.55018 0.05538 0.0
C1308 C 0.92377 0.54058 0.03523 0.0
C1309 C 0.94243 0.52301 0.04054 0.0
C1310 C 0.85585 0.58688 0.023 0.0
C1311 C 0.85467 0.61006 0.04197 0.0
C1312 C 0.87306 0.56736 0.02719 0.0
C1313 C 0.88909 0.57051 0.05057 0.0
C1314 C 0.8877 0.59359 0.06951 0.0
C1315 C 0.87081 0.61314 0.06523 0.0
H1316 H 0.09718 0.02083 0.03976 0.0
H1317 H 0.06168 0.94449 0.99774 0.0
H1318 H 0.13987 1.00354 0.03685 0.0
H1319 H 0.10383 0.92633 0.99569 0.0
H1320 H 0.18348 0.89907 0.99068 0.0
H1321 H 0.14683 0.92473 0.9817 0.0
H1322 H 0.15967 0.97166 0.05979 0.0
H1323 H 0.19662 0.94685 0.06824 0.0
C1324 C 0.09877 1.0007 0.02902 0.0
C1325 C 0.07638 0.98403 0.01868 0.0
C1326 C 0.12309 0.99051 0.02778 0.0
C1327 C 0.12541 0.96326 0.01647 0.0
C1328 C 0.10307 0.94744 1.00433 0.0
C1329 C 0.07887 0.95778 0.00542 0.0
C1330 C 0.17868 0.91517 0.00574 0.0
C1331 C 0.19291 0.9207 0.03028 0.0
C1332 C 0.15756 0.92982 1.00066 0.0
C1333 C 0.15002 0.95027 0.02004 0.0
C1334 C 0.16498 0.95646 0.04413 0.0
C1335 C 0.18615 0.94197 0.04912 0.0
loop_
_geom_bond_atom_site_label_1
_geom_bond_atom_site_label_2
_geom_bond_distance
_geom_bond_site_symmetry_2
_ccdc_geom_bond_type
C0 N1 1.317 . S
C0 N2 1.348 1_465 S
C0 C3 1.485 . S
N1 C0 1.317 . S
N1 N5 1.370 1_565 S
N2 C0 1.348 1_645 S
N2 C4 1.346 . S
C3 C0 1.485 . S
C3 H7 0.960 . S
C3 H8 0.961 . S
C3 H9 0.960 . S
C4 N2 1.346 . S
C4 N5 1.307 1_655 S
C4 C6 1.486 . S
N5 N1 1.370 1_545 S
N5 C4 1.307 1_455 S
C6 C4 1.486 . S
C6 H10 0.960 . S
C6 H11 0.960 . S
C6 H12 0.959 . S
H7 C3 0.960 . S
H8 C3 0.961 . S
H9 C3 0.960 . S
H10 C6 0.960 . S
H11 C6 0.960 . S
H12 C6 0.959 . S
C13 N14 1.317 . S
C13 N15 1.348 . S
C13 C16 1.485 . S
N14 C13 1.317 . S
N14 N18 1.370 . S
N15 C13 1.348 . S
N15 C17 1.346 . S
C16 C13 1.485 . S
C16 H20 0.960 . S
C16 H21 0.961 . S
C16 H22 0.960 . S
C17 N15 1.346 . S
C17 N18 1.307 . S
C17 C19 1.486 . S
N18 N14 1.370 . S
N18 C17 1.307 . S
C19 C17 1.486 . S
C19 H23 0.960 . S
C19 H24 0.960 . S
C19 H25 0.959 . S
H20 C16 0.960 . S
H21 C16 0.961 . S
H22 C16 0.960 . S
H23 C19 0.960 . S
H24 C19 0.960 . S
H25 C19 0.959 . S
C26 N27 1.317 . S
C26 N28 1.348 . S
C26 C29 1.485 . S
N27 C26 1.317 . S
N27 N31 1.370 . S
N28 C26 1.348 . S
N28 C30 1.346 . S
C29 C26 1.485 . S
C29 H33 0.960 . S
C29 H34 0.961 . S
C29 H35 0.960 . S
C30 N28 1.346 . S
C30 N31 1.307 . S
C30 C32 1.486 . S
N31 N27 1.370 . S
N31 C30 1.307 . S
C32 C30 1.486 . S
C32 H36 0.960 . S
C32 H37 0.960 . S
C32 H38 0.959 . S
H33 C29 0.960 . S
H34 C29 0.961 . S
H35 C29 0.960 . S
H36 C32 0.960 . S
H37 C32 0.960 . S
H38 C32 0.959 . S
C39 N40 1.317 . S
C39 N41 1.348 . S
C39 C42 1.485 . S
N40 C39 1.317 . S
N40 N44 1.370 . S
N41 C39 1.348 . S
N41 C43 1.346 . S
C42 C39 1.485 . S
C42 H46 0.960 . S
C42 H47 0.961 . S
C42 H48 0.960 . S
C43 N41 1.346 . S
C43 N44 1.307 . S
C43 C45 1.486 . S
N44 N40 1.370 . S
N44 C43 1.307 . S
C45 C43 1.486 . S
C45 H49 0.960 . S
C45 H50 0.960 . S
C45 H51 0.959 . S
H46 C42 0.960 . S
H47 C42 0.961 . S
H48 C42 0.960 . S
H49 C45 0.960 . S
H50 C45 0.960 . S
H51 C45 0.959 . S
C52 N53 1.317 . S
C52 N54 1.348 . S
C52 C55 1.485 . S
N53 C52 1.317 . S
N53 N57 1.370 . S
N54 C52 1.348 . S
N54 C56 1.363 . S
C55 C52 1.485 . S
C55 H59 0.960 . S
C55 H60 0.961 1_455 S
C55 H61 0.960 . S
C56 N54 1.363 . S
C56 N57 1.327 . S
C56 C58 1.454 1_565 S
N57 N53 1.370 . S
N57 C56 1.327 . S
C58 C56 1.454 1_545 S
C58 H62 0.960 . S
C58 H63 0.960 . S
C58 H64 0.959 . S
H59 C55 0.960 . S
H60 C55 0.961 1_655 S
H61 C55 0.960 . S
H62 C58 0.960 . S
H63 C58 0.960 . S
H64 C58 0.959 . S
C65 N66 1.317 . S
C65 N67 1.348 . S
C65 C68 1.485 . S
N66 C65 1.317 . S
N66 N70 1.370 . S
N67 C65 1.348 . S
N67 C69 1.346 . S
C68 C65 1.485 . S
C68 H72 0.960 . S
C68 H73 0.961 . S
C68 H74 0.960 . S
C69 N67 1.346 . S
C69 N70 1.307 . S
C69 C71 1.486 . S
N70 N66 1.370 . S
N70 C69 1.307 . S
C71 C69 1.486 . S
C71 H75 0.960 . S
C71 H76 0.960 . S
C71 H77 0.959 . S
H72 C68 0.960 . S
H73 C68 0.961 . S
H74 C68 0.960 . S
H75 C71 0.960 . S
H76 C71 0.960 . S
H77 C71 0.959 . S
C78 N79 1.317 . S
C78 N80 1.348 . S
C78 C81 1.485 . S
N79 C78 1.317 . S
N79 N83 1.370 . S
N80 C78 1.348 . S
N80 C82 1.346 . S
C81 C78 1.485 . S
C81 H85 0.960 . S
C81 H86 0.961 . S
C81 H87 0.960 . S
C82 N80 1.346 . S
C82 N83 1.307 . S
C82 C84 1.486 . S
N83 N79 1.370 . S
N83 C82 1.307 . S
C84 C82 1.486 . S
C84 H88 0.960 . S
C84 H89 0.960 . S
C84 H90 0.959 . S
H85 C81 0.960 . S
H86 C81 0.961 . S
H87 C81 0.960 . S
H88 C84 0.960 . S
H89 C84 0.960 . S
H90 C84 0.959 . S
C91 N92 1.317 . S
C91 N93 1.348 . S
C91 C94 1.485 . S
N92 C91 1.317 . S
N92 N96 1.370 . S
N93 C91 1.348 . S
N93 C95 1.346 . S
C94 C91 1.485 . S
C94 H98 0.960 . S
C94 H99 0.961 . S
C94 H100 0.960 . S
C95 N93 1.346 . S
C95 N96 1.307 . S
C95 C97 1.486 . S
N96 N92 1.370 . S
N96 C95 1.307 . S
C97 C95 1.486 . S
C97 H101 0.960 . S
C97 H102 0.960 . S
C97 H103 0.959 . S
H98 C94 0.960 . S
H99 C94 0.961 . S
H100 C94 0.960 . S
H101 C97 0.960 . S
H102 C97 0.960 . S
H103 C97 0.959 . S
C104 N105 1.317 . S
C104 N106 1.348 . S
C104 C107 1.485 . S
N105 C104 1.317 . S
N105 N109 1.370 . S
N106 C104 1.348 . S
N106 C108 1.346 . S
C107 C104 1.485 . S
C107 H111 0.960 . S
C107 H112 0.961 . S
C107 H113 0.960 . S
C108 N106 1.346 . S
C108 N109 1.307 . S
C108 C110 1.486 . S
N109 N105 1.370 . S
N109 C108 1.307 . S
C110 C108 1.486 . S
C110 H114 0.960 . S
C110 H115 0.960 . S
C110 H116 0.959 . S
H111 C107 0.960 . S
H112 C107 0.961 . S
H113 C107 0.960 . S
H114 C110 0.960 . S
H115 C110 0.960 . S
H116 C110 0.959 . S
C117 N118 1.317 . S
C117 N119 1.348 . S
C117 C120 1.485 1_565 S
N118 C117 1.317 . S
N118 N122 1.370 . S
N119 C117 1.348 . S
N119 C121 1.346 . S
C120 C117 1.485 1_545 S
C120 H124 0.960 . S
C120 H125 0.961 . S
C120 H126 0.960 . S
C121 N119 1.346 . S
C121 N122 1.307 . S
C121 C123 1.486 . S
N122 N118 1.370 . S
N122 C121 1.307 . S
C123 C121 1.486 . S
C123 H127 0.960 . S
C123 H128 0.960 . S
C123 H129 0.959 . S
H124 C120 0.960 . S
H125 C120 0.961 . S
H126 C120 0.960 . S
H127 C123 0.960 . S
H128 C123 0.960 . S
H129 C123 0.959 . S
C130 N131 1.317 . S
C130 N132 1.348 . S
C130 C133 1.485 . S
N131 C130 1.317 . S
N131 N135 1.370 . S
N132 C130 1.348 . S
N132 C134 1.346 . S
C133 C130 1.485 . S
C133 H137 0.960 . S
C133 H138 0.961 . S
C133 H139 0.960 . S
C134 N132 1.346 . S
C134 N135 1.307 . S
C134 C136 1.486 . S
N135 N131 1.370 . S
N135 C134 1.307 . S
C136 C134 1.486 . S
C136 H140 0.960 . S
C136 H141 0.960 . S
C136 H142 0.959 . S
H137 C133 0.960 . S
H138 C133 0.961 . S
H139 C133 0.960 . S
H140 C136 0.960 . S
H141 C136 0.960 . S
H142 C136 0.959 . S
C143 N144 1.317 . S
C143 N145 1.348 . S
C143 C146 1.485 . S
N144 C143 1.317 . S
N144 N148 1.370 . S
N145 C143 1.348 . S
N145 C147 1.346 . S
C146 C143 1.485 . S
C146 H150 0.960 . S
C146 H151 0.961 . S
C146 H152 0.960 . S
C147 N145 1.346 . S
C147 N148 1.307 . S
C147 C149 1.486 . S
N148 N144 1.370 . S
N148 C147 1.307 . S
C149 C147 1.486 . S
C149 H153 0.960 . S
C149 H154 0.960 . S
C149 H155 0.959 . S
H150 C146 0.960 . S
H151 C146 0.961 . S
H152 C146 0.960 . S
H153 C149 0.960 . S
H154 C149 0.960 . S
H155 C149 0.959 . S
C156 N157 1.317 . S
C156 N158 1.348 . S
C156 C159 1.485 . S
N157 C156 1.317 . S
N157 N161 1.370 . S
N158 C156 1.348 . S
N158 C160 1.346 . S
C159 C156 1.485 . S
C159 H163 0.960 . S
C159 H164 0.961 . S
C159 H165 0.960 . S
C160 N158 1.346 . S
C160 N161 1.307 . S
C160 C162 1.486 . S
N161 N157 1.370 . S
N161 C160 1.307 . S
C162 C160 1.486 . S
C162 H166 0.960 . S
C162 H167 0.960 . S
C162 H168 0.959 . S
H163 C159 0.960 . S
H164 C159 0.961 . S
H165 C159 0.960 . S
H166 C162 0.960 . S
H167 C162 0.960 . S
H168 C162 0.959 . S
C169 N170 1.317 . S
C169 N171 1.348 . S
C169 C172 1.485 . S
N170 C169 1.317 . S
N170 N174 1.370 . S
N171 C169 1.348 . S
N171 C173 1.346 . S
C172 C169 1.485 . S
C172 H176 0.960 . S
C172 H177 0.961 . S
C172 H178 0.960 . S
C173 N171 1.346 . S
C173 N174 1.307 . S
C173 C175 1.486 . S
N174 N170 1.370 . S
N174 C173 1.307 . S
C175 C173 1.486 . S
C175 H179 0.960 . S
C175 H180 0.960 . S
C175 H181 0.959 . S
H176 C172 0.960 . S
H177 C172 0.961 . S
H178 C172 0.960 . S
H179 C175 0.960 . S
H180 C175 0.960 . S
H181 C175 0.959 . S
C182 N183 1.317 . S
C182 N184 1.348 . S
C182 C185 1.485 . S
N183 C182 1.317 . S
N183 N187 1.370 . S
N184 C182 1.348 . S
N184 C186 1.346 . S
C185 C182 1.485 . S
C185 H189 0.960 . S
C185 H190 0.961 . S
C185 H191 0.960 . S
C186 N184 1.346 . S
C186 N187 1.307 . S
C186 C188 1.486 . S
N187 N183 1.370 . S
N187 C186 1.307 . S
C188 C186 1.486 . S
C188 H192 0.960 . S
C188 H193 0.960 . S
C188 H194 0.959 . S
H189 C185 0.960 . S
H190 C185 0.961 . S
H191 C185 0.960 . S
H192 C188 0.960 . S
H193 C188 0.960 . S
H194 C188 0.959 . S
C195 N196 1.317 . S
C195 N197 1.348 . S
C195 C198 1.485 1_545 S
N196 C195 1.317 . S
N196 N200 1.370 . S
N197 C195 1.348 . S
N197 C199 1.346 . S
C198 C195 1.485 1_565 S
C198 H202 0.960 . S
C198 H203 0.961 . S
C198 H204 0.960 . S
C199 N197 1.346 . S
C199 N200 1.307 . S
C199 C201 1.486 1_556 S
N200 N196 1.370 . S
N200 C199 1.307 . S
C201 C199 1.486 1_554 S
C201 H205 0.960 . S
C201 H206 0.960 . S
C201 H207 0.959 . S
H202 C198 0.960 . S
H203 C198 0.961 . S
H204 C198 0.960 . S
H205 C201 0.960 . S
H206 C201 0.960 . S
H207 C201 0.959 . S
Mg208 O209 2.028 . S
Mg208 O215 1.986 1_554 S
Mg208 O217 2.114 . S
Mg208 O218 2.251 . S
Mg208 O221 2.010 . S
O209 Mg208 2.028 . S
O209 C212 1.250 . S
O210 Mg211 2.029 1_554 S
O210 C212 1.248 . S
Mg211 O210 2.029 1_556 S
Mg211 O216 2.049 . S
Mg211 O218 2.063 1_556 S
C212 O209 1.250 . S
C212 O210 1.248 . S
C213 O214 1.264 . S
C213 O221 1.249 . S
O214 C213 1.264 . S
O215 Mg208 1.986 1_556 S
O215 C219 1.246 . S
O216 Mg211 2.049 . S
O216 C219 1.259 . S
O217 Mg208 2.114 . S
O217 C220 1.252 . S
O218 Mg208 2.251 . S
O218 Mg211 2.063 1_554 S
O218 C220 1.273 . S
C219 O215 1.246 . S
C219 O216 1.259 . S
C220 O217 1.252 . S
C220 O218 1.273 . S
O221 Mg208 2.010 . S
O221 C213 1.249 . S
Mg222 O223 2.028 . S
Mg222 O229 1.986 . S
Mg222 O231 2.114 . S
Mg222 O232 2.251 . S
Mg222 O235 2.010 . S
O223 Mg222 2.028 . S
O223 C226 1.250 . S
O224 Mg225 2.028 . S
O224 C226 1.248 . S
Mg225 O224 2.028 . S
Mg225 O230 2.032 . S
Mg225 O232 2.079 . S
C226 O223 1.250 . S
C226 O224 1.248 . S
C227 O228 1.264 . S
C227 O235 1.249 . S
O228 C227 1.264 . S
O229 Mg222 1.986 . S
O229 C233 1.246 . S
O230 Mg225 2.032 . S
O230 C233 1.259 . S
O231 Mg222 2.114 . S
O231 C234 1.252 . S
O232 Mg222 2.251 . S
O232 Mg225 2.079 . S
O232 C234 1.273 . S
C233 O229 1.246 . S
C233 O230 1.259 . S
C234 O231 1.252 . S
C234 O232 1.273 . S
O235 Mg222 2.010 . S
O235 C227 1.249 . S
Mg236 O237 2.028 . S
Mg236 O243 1.986 1_554 S
Mg236 O245 2.114 . S
Mg236 O246 2.251 . S
Mg236 O249 2.010 . S
O237 Mg236 2.028 . S
O237 C240 1.250 . S
O238 Mg239 2.028 . S
O238 C240 1.248 . S
Mg239 O238 2.028 . S
Mg239 O244 2.032 1_554 S
Mg239 O246 2.079 . S
C240 O237 1.250 . S
C240 O238 1.248 . S
C241 O242 1.264 . S
C241 O249 1.249 . S
O242 C241 1.264 . S
O243 Mg236 1.986 1_556 S
O243 C247 1.246 . S
O244 Mg239 2.032 1_556 S
O244 C247 1.259 . S
O245 Mg236 2.114 . S
O245 C248 1.252 . S
O246 Mg236 2.251 . S
O246 Mg239 2.079 . S
O246 C248 1.273 . S
C247 O243 1.246 . S
C247 O244 1.259 . S
C248 O245 1.252 . S
C248 O246 1.273 . S
O249 Mg236 2.010 . S
O249 C241 1.249 . S
Mg250 O251 2.028 1_545 S
Mg250 O257 1.986 . S
Mg250 O259 2.114 . S
Mg250 O260 2.251 1_545 S
Mg250 O263 2.010 . S
O251 Mg250 2.028 1_565 S
O251 C254 1.250 . S
O252 Mg253 2.028 . S
O252 C254 1.248 . S
Mg253 O252 2.028 . S
Mg253 O258 2.032 . S
Mg253 O260 2.079 . S
C254 O251 1.250 . S
C254 O252 1.248 . S
C255 O256 1.264 . S
C255 O263 1.249 . S
O256 C255 1.264 . S
O257 Mg250 1.986 . S
O257 C261 1.246 . S
O258 Mg253 2.032 . S
O258 C261 1.259 1_565 S
O259 Mg250 2.114 . S
O259 C262 1.252 . S
O260 Mg250 2.251 1_565 S
O260 Mg253 2.079 . S
O260 C262 1.273 1_565 S
C261 O257 1.246 . S
C261 O258 1.259 1_545 S
C262 O259 1.252 . S
C262 O260 1.273 1_545 S
O263 Mg250 2.010 . S
O263 C255 1.249 . S
Mg264 O265 2.028 . S
Mg264 O271 1.986 . S
Mg264 O273 2.114 . S
Mg264 O274 2.251 . S
Mg264 O277 2.010 . S
O265 Mg264 2.028 . S
O265 C268 1.250 . S
O266 Mg267 2.028 . S
O266 C268 1.248 . S
Mg267 O266 2.028 . S
Mg267 O272 2.032 . S
Mg267 O274 2.079 . S
C268 O265 1.250 . S
C268 O266 1.248 . S
C269 O270 1.264 . S
C269 O277 1.249 . S
O270 C269 1.264 . S
O271 Mg264 1.986 . S
O271 C275 1.246 . S
O272 Mg267 2.032 . S
O272 C275 1.259 . S
O273 Mg264 2.114 . S
O273 C276 1.252 . S
O274 Mg264 2.251 . S
O274 Mg267 2.079 . S
O274 C276 1.273 . S
C275 O271 1.246 . S
C275 O272 1.259 . S
C276 O273 1.252 . S
C276 O274 1.273 . S
O277 Mg264 2.010 . S
O277 C269 1.249 . S
Mg278 O279 2.028 . S
Mg278 O285 1.986 . S
Mg278 O287 2.114 . S
Mg278 O288 2.251 . S
Mg278 O291 2.010 . S
O279 Mg278 2.028 . S
O279 C282 1.250 . S
O280 Mg281 2.028 . S
O280 C282 1.248 . S
Mg281 O280 2.028 . S
Mg281 O286 2.032 . S
Mg281 O288 2.079 . S
C282 O279 1.250 . S
C282 O280 1.248 . S
C283 O284 1.264 . S
C283 O291 1.249 . S
O284 C283 1.264 . S
O285 Mg278 1.986 . S
O285 C289 1.246 . S
O286 Mg281 2.032 . S
O286 C289 1.259 . S
O287 Mg278 2.114 . S
O287 C290 1.252 . S
O288 Mg278 2.251 . S
O288 Mg281 2.079 . S
O288 C290 1.273 . S
C289 O285 1.246 . S
C289 O286 1.259 . S
C290 O287 1.252 . S
C290 O288 1.273 . S
O291 Mg278 2.010 . S
O291 C283 1.249 . S
Mg292 O293 2.028 . S
Mg292 O299 1.986 . S
Mg292 O301 2.114 . S
Mg292 O302 2.251 . S
Mg292 O305 2.010 . S
O293 Mg292 2.028 . S
O293 C296 1.250 . S
O294 Mg295 2.028 . S
O294 C296 1.248 . S
Mg295 O294 2.028 . S
Mg295 O300 2.032 . S
Mg295 O302 2.079 . S
C296 O293 1.250 . S
C296 O294 1.248 . S
C297 O298 1.264 . S
C297 O305 1.249 . S
O298 C297 1.264 . S
O299 Mg292 1.986 . S
O299 C303 1.246 . S
O300 Mg295 2.032 . S
O300 C303 1.259 . S
O301 Mg292 2.114 . S
O301 C304 1.252 . S
O302 Mg292 2.251 . S
O302 Mg295 2.079 . S
O302 C304 1.273 . S
C303 O299 1.246 . S
C303 O300 1.259 . S
C304 O301 1.252 . S
C304 O302 1.273 . S
O305 Mg292 2.010 . S
O305 C297 1.249 . S
Mg306 O307 2.028 . S
Mg306 O313 1.986 1_545 S
Mg306 O315 2.114 . S
Mg306 O316 2.251 . S
Mg306 O319 2.010 . S
O307 Mg306 2.028 . S
O307 C310 1.246 1_545 S
O308 Mg309 2.030 1_565 S
O308 C310 1.251 . S
Mg309 O308 2.030 1_545 S
Mg309 O314 2.003 1_545 S
Mg309 O316 2.103 . S
C310 O307 1.246 1_565 S
C310 O308 1.251 . S
C311 O312 1.264 . S
C311 O319 1.249 . S
O312 C311 1.264 . S
O313 Mg306 1.986 1_565 S
O313 C317 1.246 . S
O314 Mg309 2.003 1_565 S
O314 C317 1.259 . S
O315 Mg306 2.114 . S
O315 C318 1.252 . S
O316 Mg306 2.251 . S
O316 Mg309 2.103 . S
O316 C318 1.273 . S
C317 O313 1.246 . S
C317 O314 1.259 . S
C318 O315 1.252 . S
C318 O316 1.273 . S
O319 Mg306 2.010 . S
O319 C311 1.249 . S
Mg320 O321 2.028 1_455 S
Mg320 O327 1.986 . S
Mg320 O329 2.114 . S
Mg320 O330 2.251 1_455 S
Mg320 O333 2.010 . S
O321 Mg320 2.028 1_655 S
O321 C324 1.250 . S
O322 Mg323 2.028 . S
O322 C324 1.248 . S
Mg323 O322 2.028 . S
Mg323 O328 2.032 . S
Mg323 O330 2.079 . S
C324 O321 1.250 . S
C324 O322 1.248 . S
C325 O326 1.264 . S
C325 O333 1.249 . S
O326 C325 1.264 . S
O327 Mg320 1.986 . S
O327 C331 1.246 . S
O328 Mg323 2.032 . S
O328 C331 1.259 1_655 S
O329 Mg320 2.114 . S
O329 C332 1.252 . S
O330 Mg320 2.251 1_655 S
O330 Mg323 2.079 . S
O330 C332 1.273 1_655 S
C331 O327 1.246 . S
C331 O328 1.259 1_455 S
C332 O329 1.252 . S
C332 O330 1.273 1_455 S
O333 Mg320 2.010 . S
O333 C325 1.249 . S
Mg334 O335 2.028 . S
Mg334 O341 1.986 . S
Mg334 O343 2.114 . S
Mg334 O344 2.251 . S
Mg334 O347 2.010 . S
O335 Mg334 2.028 . S
O335 C338 1.250 . S
O336 Mg337 2.028 . S
O336 C338 1.248 . S
Mg337 O336 2.028 . S
Mg337 O342 2.032 . S
Mg337 O344 2.079 . S
C338 O335 1.250 . S
C338 O336 1.248 . S
C339 O340 1.264 . S
C339 O347 1.249 . S
O340 C339 1.264 . S
O341 Mg334 1.986 . S
O341 C345 1.246 . S
O342 Mg337 2.032 . S
O342 C345 1.259 . S
O343 Mg334 2.114 . S
O343 C346 1.252 . S
O344 Mg334 2.251 . S
O344 Mg337 2.079 . S
O344 C346 1.273 . S
C345 O341 1.246 . S
C345 O342 1.259 . S
C346 O343 1.252 . S
C346 O344 1.273 . S
O347 Mg334 2.010 . S
O347 C339 1.249 . S
Mg348 O349 2.028 . S
Mg348 O355 1.986 . S
Mg348 O357 2.114 1_455 S
Mg348 O358 2.251 . S
Mg348 O361 2.010 1_455 S
O349 Mg348 2.028 . S
O349 C352 1.250 . S
O350 Mg351 2.028 . S
O350 C352 1.248 . S
Mg351 O350 2.028 . S
Mg351 O356 2.032 . S
Mg351 O358 2.079 . S
C352 O349 1.250 . S
C352 O350 1.248 . S
C353 O354 1.264 . S
C353 O361 1.249 . S
O354 C353 1.264 . S
O355 Mg348 1.986 . S
O355 C359 1.246 . S
O356 Mg351 2.032 . S
O356 C359 1.259 . S
O357 Mg348 2.114 1_655 S
O357 C360 1.252 1_655 S
O358 Mg348 2.251 . S
O358 Mg351 2.079 . S
O358 C360 1.273 . S
C359 O355 1.246 . S
C359 O356 1.259 . S
C360 O357 1.252 1_455 S
C360 O358 1.273 . S
O361 Mg348 2.010 1_655 S
O361 C353 1.249 . S
Mg362 O363 2.028 . S
Mg362 O369 1.986 . S
Mg362 O371 2.114 . S
Mg362 O372 2.251 . S
Mg362 O375 2.010 . S
O363 Mg362 2.028 . S
O363 C366 1.250 . S
O364 Mg365 2.028 . S
O364 C366 1.248 . S
Mg365 O364 2.028 . S
Mg365 O370 2.032 . S
Mg365 O372 2.079 . S
C366 O363 1.250 . S
C366 O364 1.248 . S
C367 O368 1.264 . S
C367 O375 1.249 . S
O368 C367 1.264 . S
O369 Mg362 1.986 . S
O369 C373 1.246 . S
O370 Mg365 2.032 . S
O370 C373 1.259 . S
O371 Mg362 2.114 . S
O371 C374 1.252 . S
O372 Mg362 2.251 . S
O372 Mg365 2.079 . S
O372 C374 1.273 . S
C373 O369 1.246 . S
C373 O370 1.259 . S
C374 O371 1.252 . S
C374 O372 1.273 . S
O375 Mg362 2.010 . S
O375 C367 1.249 . S
H376 C384 0.950 . S
H377 C389 0.950 . S
H378 C386 0.950 . S
H379 C388 0.950 . S
H380 C390 0.950 . S
H381 C392 0.950 . S
H382 C394 0.950 . S
H383 C395 0.950 . S
C384 H376 0.950 . S
C384 C385 1.386 . S
C384 C386 1.391 . S
C385 C384 1.386 . S
C385 C389 1.393 . S
C386 H378 0.950 . S
C386 C384 1.391 . S
C386 C387 1.400 . S
C387 C386 1.400 . S
C387 C388 1.398 . S
C387 C393 1.491 . S
C388 H379 0.950 . S
C388 C387 1.398 . S
C388 C389 1.391 . S
C389 H377 0.950 . S
C389 C385 1.393 . S
C389 C388 1.391 . S
C390 H380 0.950 . S
C390 C391 1.386 . S
C390 C392 1.391 . S
C391 C390 1.386 . S
C391 C395 1.393 . S
C392 H381 0.950 . S
C392 C390 1.391 . S
C392 C393 1.400 . S
C393 C387 1.491 . S
C393 C392 1.400 . S
C393 C394 1.398 . S
C394 H382 0.950 . S
C394 C393 1.398 . S
C394 C395 1.391 . S
C395 H383 0.950 . S
C395 C391 1.393 . S
C395 C394 1.391 . S
H396 C404 0.950 . S
H397 C409 0.949 1_655 S
H398 C406 0.950 . S
H399 C408 0.950 . S
H400 C410 0.950 . S
H401 C412 0.950 . S
H402 C414 0.950 . S
H403 C415 0.950 . S
C404 H396 0.950 . S
C404 C405 1.386 . S
C404 C406 1.391 1_655 S
C405 C404 1.386 . S
C405 C409 1.390 1_655 S
C406 H398 0.950 . S
C406 C404 1.391 1_455 S
C406 C407 1.400 . S
C407 C406 1.400 . S
C407 C408 1.398 . S
C407 C413 1.491 . S
C408 H399 0.950 . S
C408 C407 1.398 . S
C408 C409 1.394 . S
C409 H397 0.949 1_455 S
C409 C405 1.390 1_455 S
C409 C408 1.394 . S
C410 H400 0.950 . S
C410 C411 1.386 . S
C410 C412 1.391 . S
C411 C410 1.386 . S
C411 C415 1.393 . S
C412 H401 0.950 . S
C412 C410 1.391 . S
C412 C413 1.400 . S
C413 C407 1.491 . S
C413 C412 1.400 . S
C413 C414 1.398 . S
C414 H402 0.950 . S
C414 C413 1.398 . S
C414 C415 1.391 . S
C415 H403 0.950 . S
C415 C411 1.393 . S
C415 C414 1.391 . S
H416 C424 0.950 . S
H417 C429 0.950 . S
H418 C426 0.950 . S
H419 C428 0.950 . S
H420 C430 0.950 . S
H421 C432 0.950 . S
H422 C434 0.950 . S
H423 C435 0.950 . S
C424 H416 0.950 . S
C424 C425 1.386 . S
C424 C426 1.391 . S
C425 C424 1.386 . S
C425 C429 1.393 . S
C426 H418 0.950 . S
C426 C424 1.391 . S
C426 C427 1.400 . S
C427 C426 1.400 . S
C427 C428 1.398 . S
C427 C433 1.491 . S
C428 H419 0.950 . S
C428 C427 1.398 . S
C428 C429 1.391 . S
C429 H417 0.950 . S
C429 C425 1.393 . S
C429 C428 1.391 . S
C430 H420 0.950 . S
C430 C431 1.386 . S
C430 C432 1.391 . S
C431 C430 1.386 . S
C431 C435 1.393 . S
C432 H421 0.950 . S
C432 C430 1.391 . S
C432 C433 1.400 . S
C433 C427 1.491 . S
C433 C432 1.400 . S
C433 C434 1.398 . S
C434 H422 0.950 . S
C434 C433 1.398 . S
C434 C435 1.391 . S
C435 H423 0.950 . S
C435 C431 1.393 . S
C435 C434 1.391 . S
H436 C444 0.950 . S
H437 C449 0.950 . S
H438 C446 0.952 . S
H439 C448 0.950 . S
H440 C450 0.950 . S
H441 C452 0.950 . S
H442 C454 0.950 . S
H443 C455 0.950 . S
C444 H436 0.950 . S
C444 C445 1.386 1_545 S
C444 C446 1.418 . S
C445 C444 1.386 1_565 S
C445 C449 1.393 1_455 S
C446 H438 0.952 . S
C446 C444 1.418 . S
C446 C447 1.372 1_445 S
C447 C446 1.372 1_665 S
C447 C448 1.398 . S
C447 C453 1.491 . S
C448 H439 0.950 . S
C448 C447 1.398 . S
C448 C449 1.391 . S
C449 H437 0.950 . S
C449 C445 1.393 1_655 S
C449 C448 1.391 . S
C450 H440 0.950 . S
C450 C451 1.386 1_565 S
C450 C452 1.391 . S
C451 C450 1.386 1_545 S
C451 C455 1.393 . S
C452 H441 0.950 . S
C452 C450 1.391 . S
C452 C453 1.400 . S
C453 C447 1.491 . S
C453 C452 1.400 . S
C453 C454 1.398 1_565 S
C454 H442 0.950 . S
C454 C453 1.398 1_545 S
C454 C455 1.391 . S
C455 H443 0.950 . S
C455 C451 1.393 . S
C455 C454 1.391 . S
H456 C464 0.950 . S
H457 C469 0.950 . S
H458 C466 0.950 . S
H459 C468 0.950 . S
H460 C470 0.950 . S
H461 C472 0.950 . S
H462 C474 0.950 . S
H463 C475 0.950 . S
C464 H456 0.950 . S
C464 C465 1.386 . S
C464 C466 1.391 . S
C465 C464 1.386 . S
C465 C469 1.393 . S
C466 H458 0.950 . S
C466 C464 1.391 . S
C466 C467 1.400 . S
C467 C466 1.400 . S
C467 C468 1.398 . S
C467 C473 1.491 . S
C468 H459 0.950 . S
C468 C467 1.398 . S
C468 C469 1.391 . S
C469 H457 0.950 . S
C469 C465 1.393 . S
C469 C468 1.391 . S
C470 H460 0.950 . S
C470 C471 1.386 . S
C470 C472 1.391 . S
C471 C470 1.386 . S
C471 C475 1.393 . S
C472 H461 0.950 . S
C472 C470 1.391 . S
C472 C473 1.400 . S
C473 C467 1.491 . S
C473 C472 1.400 . S
C473 C474 1.398 . S
C474 H462 0.950 . S
C474 C473 1.398 . S
C474 C475 1.391 . S
C475 H463 0.950 . S
C475 C471 1.393 . S
C475 C474 1.391 . S
H476 C484 0.950 . S
H477 C489 0.950 . S
H478 C486 0.950 . S
H479 C488 0.950 . S
H480 C490 0.950 . S
H481 C492 0.950 . S
H482 C494 0.950 . S
H483 C495 0.950 . S
C484 H476 0.950 . S
C484 C485 1.386 . S
C484 C486 1.391 . S
C485 C484 1.386 . S
C485 C489 1.393 . S
C486 H478 0.950 . S
C486 C484 1.391 . S
C486 C487 1.400 . S
C487 C486 1.400 . S
C487 C488 1.398 . S
C487 C493 1.491 . S
C488 H479 0.950 . S
C488 C487 1.398 . S
C488 C489 1.391 . S
C489 H477 0.950 . S
C489 C485 1.393 . S
C489 C488 1.391 . S
C490 H480 0.950 . S
C490 C491 1.386 . S
C490 C492 1.391 . S
C491 C490 1.386 . S
C491 C495 1.393 . S
C492 H481 0.950 . S
C492 C490 1.391 . S
C492 C493 1.400 . S
C493 C487 1.491 . S
C493 C492 1.400 . S
C493 C494 1.398 . S
C494 H482 0.950 . S
C494 C493 1.398 . S
C494 C495 1.391 . S
C495 H483 0.950 . S
C495 C491 1.393 . S
C495 C494 1.391 . S
H496 C504 0.950 . S
H497 C509 0.950 . S
H498 C506 0.950 . S
H499 C508 0.950 . S
H500 C510 0.950 . S
H501 C512 0.950 . S
H502 C514 0.950 . S
H503 C515 0.950 . S
C504 H496 0.950 . S
C504 C505 1.386 . S
C504 C506 1.391 . S
C505 C504 1.386 . S
C505 C509 1.393 . S
C506 H498 0.950 . S
C506 C504 1.391 . S
C506 C507 1.400 . S
C507 C506 1.400 . S
C507 C508 1.398 . S
C507 C513 1.491 . S
C508 H499 0.950 . S
C508 C507 1.398 . S
C508 C509 1.391 . S
C509 H497 0.950 . S
C509 C505 1.393 . S
C509 C508 1.391 . S
C510 H500 0.950 . S
C510 C511 1.386 . S
C510 C512 1.391 . S
C511 C510 1.386 . S
C511 C515 1.393 . S
C512 H501 0.950 . S
C512 C510 1.391 . S
C512 C513 1.400 . S
C513 C507 1.491 . S
C513 C512 1.400 . S
C513 C514 1.398 . S
C514 H502 0.950 . S
C514 C513 1.398 . S
C514 C515 1.391 . S
C515 H503 0.950 . S
C515 C511 1.393 . S
C515 C514 1.391 . S
H516 C524 0.950 . S
H517 C529 0.950 . S
H518 C526 0.950 . S
H519 C528 0.950 . S
H520 C530 0.950 . S
H521 C532 0.950 . S
H522 C534 0.950 . S
H523 C535 0.950 1_545 S
C524 H516 0.950 . S
C524 C525 1.386 . S
C524 C526 1.391 . S
C525 C524 1.386 . S
C525 C529 1.393 . S
C526 H518 0.950 . S
C526 C524 1.391 . S
C526 C527 1.400 . S
C527 C526 1.400 . S
C527 C528 1.398 . S
C527 C533 1.491 . S
C528 H519 0.950 . S
C528 C527 1.398 . S
C528 C529 1.391 . S
C529 H517 0.950 . S
C529 C525 1.393 . S
C529 C528 1.391 . S
C530 H520 0.950 . S
C530 C531 1.386 . S
C530 C532 1.391 . S
C531 C530 1.386 . S
C531 C535 1.393 . S
C532 H521 0.950 . S
C532 C530 1.391 . S
C532 C533 1.400 . S
C533 C527 1.491 . S
C533 C532 1.400 . S
C533 C534 1.398 . S
C534 H522 0.950 . S
C534 C533 1.398 . S
C534 C535 1.391 . S
C535 H523 0.950 1_565 S
C535 C531 1.393 . S
C535 C534 1.391 . S
H536 C544 0.950 . S
H537 C549 0.950 . S
H538 C546 0.950 . S
H539 C548 0.950 . S
H540 C550 0.950 . S
H541 C552 0.950 . S
H542 C554 0.950 . S
H543 C555 0.950 . S
C544 H536 0.950 . S
C544 C545 1.386 . S
C544 C546 1.391 . S
C545 C544 1.386 . S
C545 C549 1.393 . S
C546 H538 0.950 . S
C546 C544 1.391 . S
C546 C547 1.400 . S
C547 C546 1.400 . S
C547 C548 1.398 . S
C547 C553 1.491 . S
C548 H539 0.950 . S
C548 C547 1.398 . S
C548 C549 1.391 . S
C549 H537 0.950 . S
C549 C545 1.393 . S
C549 C548 1.391 . S
C550 H540 0.950 . S
C550 C551 1.386 . S
C550 C552 1.391 . S
C551 C550 1.386 . S
C551 C555 1.393 . S
C552 H541 0.950 . S
C552 C550 1.391 . S
C552 C553 1.400 . S
C553 C547 1.491 . S
C553 C552 1.400 . S
C553 C554 1.398 . S
C554 H542 0.950 . S
C554 C553 1.398 . S
C554 C555 1.391 . S
C555 H543 0.950 . S
C555 C551 1.393 . S
C555 C554 1.391 . S
H556 C564 0.950 . S
H557 C569 0.950 . S
H558 C566 0.950 . S
H559 C568 0.950 . S
H560 C570 0.950 . S
H561 C572 0.950 . S
H562 C574 0.950 . S
H563 C575 0.950 . S
C564 H556 0.950 . S
C564 C565 1.386 . S
C564 C566 1.391 . S
C565 C564 1.386 . S
C565 C569 1.393 . S
C566 H558 0.950 . S
C566 C564 1.391 . S
C566 C567 1.400 . S
C567 C566 1.400 . S
C567 C568 1.398 . S
C567 C573 1.491 . S
C568 H559 0.950 . S
C568 C567 1.398 . S
C568 C569 1.391 . S
C569 H557 0.950 . S
C569 C565 1.393 . S
C569 C568 1.391 . S
C570 H560 0.950 . S
C570 C571 1.386 . S
C570 C572 1.391 . S
C571 C570 1.386 . S
C571 C575 1.393 . S
C572 H561 0.950 . S
C572 C570 1.391 . S
C572 C573 1.400 . S
C573 C567 1.491 . S
C573 C572 1.400 . S
C573 C574 1.398 . S
C574 H562 0.950 . S
C574 C573 1.398 . S
C574 C575 1.391 . S
C575 H563 0.950 . S
C575 C571 1.393 . S
C575 C574 1.391 . S
H576 C584 0.950 . S
H577 C589 0.950 . S
H578 C586 0.950 . S
H579 C588 0.950 . S
H580 C590 0.950 . S
H581 C592 0.950 . S
H582 C594 0.950 . S
H583 C595 0.950 . S
C584 H576 0.950 . S
C584 C585 1.386 . S
C584 C586 1.391 . S
C585 C584 1.386 . S
C585 C589 1.393 . S
C586 H578 0.950 . S
C586 C584 1.391 . S
C586 C587 1.400 . S
C587 C586 1.400 . S
C587 C588 1.398 . S
C587 C593 1.491 . S
C588 H579 0.950 . S
C588 C587 1.398 . S
C588 C589 1.391 . S
C589 H577 0.950 . S
C589 C585 1.393 . S
C589 C588 1.391 . S
C590 H580 0.950 . S
C590 C591 1.386 . S
C590 C592 1.391 . S
C591 C590 1.386 . S
C591 C595 1.393 . S
C592 H581 0.950 . S
C592 C590 1.391 . S
C592 C593 1.400 . S
C593 C587 1.491 . S
C593 C592 1.400 . S
C593 C594 1.398 . S
C594 H582 0.950 . S
C594 C593 1.398 . S
C594 C595 1.391 . S
C595 H583 0.950 . S
C595 C591 1.393 . S
C595 C594 1.391 . S
H596 C604 0.950 . S
H597 C609 0.950 . S
H598 C606 0.950 . S
H599 C608 0.950 . S
H600 C610 0.950 . S
H601 C612 0.950 . S
H602 C614 0.950 . S
H603 C615 0.950 . S
C604 H596 0.950 . S
C604 C605 1.386 . S
C604 C606 1.391 . S
C605 C604 1.386 . S
C605 C609 1.393 . S
C606 H598 0.950 . S
C606 C604 1.391 . S
C606 C607 1.400 . S
C607 C606 1.400 . S
C607 C608 1.398 . S
C607 C613 1.491 . S
C608 H599 0.950 . S
C608 C607 1.398 . S
C608 C609 1.391 . S
C609 H597 0.950 . S
C609 C605 1.393 . S
C609 C608 1.391 . S
C610 H600 0.950 . S
C610 C611 1.386 . S
C610 C612 1.391 . S
C611 C610 1.386 . S
C611 C615 1.393 . S
C612 H601 0.950 . S
C612 C610 1.391 . S
C612 C613 1.400 . S
C613 C607 1.491 . S
C613 C612 1.400 . S
C613 C614 1.398 . S
C614 H602 0.950 . S
C614 C613 1.398 . S
C614 C615 1.391 . S
C615 H603 0.950 . S
C615 C611 1.393 . S
C615 C614 1.391 . S
H616 C624 0.950 . S
H617 C629 0.950 . S
H618 C626 0.950 . S
H619 C628 0.950 . S
H620 C630 0.950 . S
H621 C632 0.950 . S
H622 C634 0.950 . S
H623 C635 0.950 . S
C624 H616 0.950 . S
C624 C625 1.386 . S
C624 C626 1.391 . S
C625 C624 1.386 . S
C625 C629 1.393 . S
C626 H618 0.950 . S
C626 C624 1.391 . S
C626 C627 1.400 . S
C627 C626 1.400 . S
C627 C628 1.398 . S
C627 C633 1.491 . S
C628 H619 0.950 . S
C628 C627 1.398 . S
C628 C629 1.391 . S
C629 H617 0.950 . S
C629 C625 1.393 . S
C629 C628 1.391 . S
C630 H620 0.950 . S
C630 C631 1.386 . S
C630 C632 1.391 . S
C631 C630 1.386 . S
C631 C635 1.393 . S
C632 H621 0.950 . S
C632 C630 1.391 . S
C632 C633 1.400 . S
C633 C627 1.491 . S
C633 C632 1.400 . S
C633 C634 1.398 . S
C634 H622 0.950 . S
C634 C633 1.398 . S
C634 C635 1.391 . S
C635 H623 0.950 . S
C635 C631 1.393 . S
C635 C634 1.391 . S
H636 C644 0.950 . S
H637 C649 0.950 . S
H638 C646 0.950 . S
H639 C648 0.950 . S
H640 C650 0.950 . S
H641 C652 0.950 . S
H642 C654 0.950 . S
H643 C655 0.950 . S
C644 H636 0.950 . S
C644 C645 1.386 . S
C644 C646 1.391 . S
C645 C644 1.386 . S
C645 C649 1.393 . S
C646 H638 0.950 . S
C646 C644 1.391 . S
C646 C647 1.400 . S
C647 C646 1.400 . S
C647 C648 1.398 . S
C647 C653 1.491 . S
C648 H639 0.950 . S
C648 C647 1.398 . S
C648 C649 1.391 . S
C649 H637 0.950 . S
C649 C645 1.393 . S
C649 C648 1.391 . S
C650 H640 0.950 . S
C650 C651 1.386 . S
C650 C652 1.391 . S
C651 C650 1.386 . S
C651 C655 1.393 . S
C652 H641 0.950 . S
C652 C650 1.391 . S
C652 C653 1.400 . S
C653 C647 1.491 . S
C653 C652 1.400 . S
C653 C654 1.398 . S
C654 H642 0.950 . S
C654 C653 1.398 . S
C654 C655 1.391 . S
C655 H643 0.950 . S
C655 C651 1.393 . S
C655 C654 1.391 . S
H656 C664 0.950 . S
H657 C669 0.950 . S
H658 C666 0.950 . S
H659 C668 0.950 . S
H660 C670 0.950 . S
H661 C672 0.950 . S
H662 C674 0.950 . S
H663 C675 0.950 . S
C664 H656 0.950 . S
C664 C665 1.386 . S
C664 C666 1.391 . S
C665 C664 1.386 . S
C665 C669 1.393 . S
C666 H658 0.950 . S
C666 C664 1.391 . S
C666 C667 1.400 . S
C667 C666 1.400 . S
C667 C668 1.398 . S
C667 C673 1.491 . S
C668 H659 0.950 . S
C668 C667 1.398 . S
C668 C669 1.391 . S
C669 H657 0.950 . S
C669 C665 1.393 . S
C669 C668 1.391 . S
C670 H660 0.950 . S
C670 C671 1.386 . S
C670 C672 1.391 . S
C671 C670 1.386 . S
C671 C675 1.393 . S
C672 H661 0.950 . S
C672 C670 1.391 . S
C672 C673 1.400 . S
C673 C667 1.491 . S
C673 C672 1.400 . S
C673 C674 1.398 . S
C674 H662 0.950 . S
C674 C673 1.398 . S
C674 C675 1.391 . S
C675 H663 0.950 . S
C675 C671 1.393 . S
C675 C674 1.391 . S
H676 C684 0.950 . S
H677 C689 0.950 . S
H678 C686 0.924 1_455 S
H679 C688 0.950 . S
H680 C690 0.950 . S
H681 C692 0.950 . S
H682 C694 0.950 . S
H683 C695 0.950 . S
C684 H676 0.950 . S
C684 C685 1.386 . S
C684 C686 1.391 . S
C685 C684 1.386 . S
C685 C689 1.393 . S
C686 H678 0.924 1_655 S
C686 C684 1.391 . S
C686 C687 1.400 . S
C687 C686 1.400 . S
C687 C688 1.398 . S
C687 C693 1.491 . S
C688 H679 0.950 . S
C688 C687 1.398 . S
C688 C689 1.391 . S
C689 H677 0.950 . S
C689 C685 1.393 . S
C689 C688 1.391 . S
C690 H680 0.950 . S
C690 C691 1.386 1_655 S
C690 C692 1.391 . S
C691 C690 1.386 1_455 S
C691 C695 1.393 . S
C692 H681 0.950 . S
C692 C690 1.391 . S
C692 C693 1.400 . S
C693 C687 1.491 . S
C693 C692 1.400 . S
C693 C694 1.398 1_655 S
C694 H682 0.950 . S
C694 C693 1.398 1_455 S
C694 C695 1.391 . S
C695 H683 0.950 . S
C695 C691 1.393 . S
C695 C694 1.391 . S
H696 C704 0.950 . S
H697 C709 0.950 . S
H698 C706 0.950 . S
H699 C708 0.950 . S
H700 C710 0.950 . S
H701 C712 0.950 . S
H702 C714 0.950 . S
H703 C715 0.950 . S
C704 H696 0.950 . S
C704 C705 1.386 . S
C704 C706 1.391 . S
C705 C704 1.386 . S
C705 C709 1.393 . S
C706 H698 0.950 . S
C706 C704 1.391 . S
C706 C707 1.400 . S
C707 C706 1.400 . S
C707 C708 1.398 . S
C707 C713 1.491 . S
C708 H699 0.950 . S
C708 C707 1.398 . S
C708 C709 1.391 . S
C709 H697 0.950 . S
C709 C705 1.393 . S
C709 C708 1.391 . S
C710 H700 0.950 . S
C710 C711 1.386 . S
C710 C712 1.391 . S
C711 C710 1.386 . S
C711 C715 1.393 . S
C712 H701 0.950 . S
C712 C710 1.391 . S
C712 C713 1.400 . S
C713 C707 1.491 . S
C713 C712 1.400 . S
C713 C714 1.398 . S
C714 H702 0.950 . S
C714 C713 1.398 . S
C714 C715 1.391 . S
C715 H703 0.950 . S
C715 C711 1.393 . S
C715 C714 1.391 . S
H716 C724 0.950 . S
H717 C729 0.950 . S
H718 C726 0.950 . S
H719 C728 0.950 . S
H720 C730 0.950 . S
H721 C732 0.950 . S
H722 C734 0.950 . S
H723 C735 0.950 . S
C724 H716 0.950 . S
C724 C725 1.386 . S
C724 C726 1.391 . S
C725 C724 1.386 . S
C725 C729 1.393 . S
C726 H718 0.950 . S
C726 C724 1.391 . S
C726 C727 1.400 . S
C727 C726 1.400 . S
C727 C728 1.398 . S
C727 C733 1.491 . S
C728 H719 0.950 . S
C728 C727 1.398 . S
C728 C729 1.391 . S
C729 H717 0.950 . S
C729 C725 1.393 . S
C729 C728 1.391 . S
C730 H720 0.950 . S
C730 C731 1.386 . S
C730 C732 1.391 . S
C731 C730 1.386 . S
C731 C735 1.393 . S
C732 H721 0.950 . S
C732 C730 1.391 . S
C732 C733 1.400 . S
C733 C727 1.491 . S
C733 C732 1.400 . S
C733 C734 1.398 . S
C734 H722 0.950 . S
C734 C733 1.398 . S
C734 C735 1.391 . S
C735 H723 0.950 . S
C735 C731 1.393 . S
C735 C734 1.391 . S
H736 C744 0.950 . S
H737 C749 0.932 1_545 S
H738 C746 0.950 . S
H739 C748 0.950 . S
H740 C750 0.950 . S
H741 C752 0.950 . S
H742 C754 0.950 . S
H743 C755 0.950 . S
C744 H736 0.950 . S
C744 C745 1.383 1_564 S
C744 C746 1.391 . S
C745 C744 1.383 1_546 S
C745 C749 1.392 1_545 S
C746 H738 0.950 . S
C746 C744 1.391 . S
C746 C747 1.400 1_554 S
C747 C746 1.400 1_556 S
C747 C748 1.398 . S
C747 C753 1.491 . S
C748 H739 0.950 . S
C748 C747 1.398 . S
C748 C749 1.391 . S
C749 H737 0.932 1_565 S
C749 C745 1.392 1_565 S
C749 C748 1.391 . S
C750 H740 0.950 . S
C750 C751 1.386 1_556 S
C750 C752 1.391 . S
C751 C750 1.386 1_554 S
C751 C755 1.393 . S
C752 H741 0.950 . S
C752 C750 1.391 . S
C752 C753 1.400 . S
C753 C747 1.491 . S
C753 C752 1.400 . S
C753 C754 1.398 1_556 S
C754 H742 0.950 . S
C754 C753 1.398 1_554 S
C754 C755 1.391 . S
C755 H743 0.950 . S
C755 C751 1.393 . S
C755 C754 1.391 . S
H756 C764 0.950 . S
H757 C769 0.950 . S
H758 C766 0.950 . S
H759 C768 0.950 . S
H760 C770 0.950 . S
H761 C772 0.950 . S
H762 C774 0.950 . S
H763 C775 0.950 . S
C764 H756 0.950 . S
C764 C765 1.386 . S
C764 C766 1.391 . S
C765 C764 1.386 . S
C765 C769 1.393 . S
C766 H758 0.950 . S
C766 C764 1.391 . S
C766 C767 1.400 . S
C767 C766 1.400 . S
C767 C768 1.398 . S
C767 C773 1.491 . S
C768 H759 0.950 . S
C768 C767 1.398 . S
C768 C769 1.391 . S
C769 H757 0.950 . S
C769 C765 1.393 . S
C769 C768 1.391 . S
C770 H760 0.950 . S
C770 C771 1.386 . S
C770 C772 1.391 . S
C771 C770 1.386 . S
C771 C775 1.393 . S
C772 H761 0.950 . S
C772 C770 1.391 . S
C772 C773 1.400 . S
C773 C767 1.491 . S
C773 C772 1.400 . S
C773 C774 1.398 . S
C774 H762 0.950 . S
C774 C773 1.398 . S
C774 C775 1.391 . S
C775 H763 0.950 . S
C775 C771 1.393 . S
C775 C774 1.391 . S
H776 C784 0.950 . S
H777 C789 0.950 . S
H778 C786 0.950 . S
H779 C788 0.950 . S
H780 C790 0.950 . S
H781 C792 0.950 . S
H782 C794 0.950 . S
H783 C795 0.950 . S
C784 H776 0.950 . S
C784 C785 1.386 . S
C784 C786 1.391 . S
C785 C784 1.386 . S
C785 C789 1.393 1_545 S
C786 H778 0.950 . S
C786 C784 1.391 . S
C786 C787 1.400 . S
C787 C786 1.400 . S
C787 C788 1.398 . S
C787 C793 1.491 . S
C788 H779 0.950 . S
C788 C787 1.398 . S
C788 C789 1.391 1_545 S
C789 H777 0.950 . S
C789 C785 1.393 1_565 S
C789 C788 1.391 1_565 S
C790 H780 0.950 . S
C790 C791 1.386 . S
C790 C792 1.391 . S
C791 C790 1.386 . S
C791 C795 1.393 . S
C792 H781 0.950 . S
C792 C790 1.391 . S
C792 C793 1.400 . S
C793 C787 1.491 . S
C793 C792 1.400 . S
C793 C794 1.398 . S
C794 H782 0.950 . S
C794 C793 1.398 . S
C794 C795 1.391 . S
C795 H783 0.950 . S
C795 C791 1.393 . S
C795 C794 1.391 . S
H796 C804 0.950 . S
H797 C809 0.950 . S
H798 C806 0.950 . S
H799 C808 0.950 . S
H800 C810 0.950 . S
H801 C812 0.950 . S
H802 C814 0.950 . S
H803 C815 0.950 . S
C804 H796 0.950 . S
C804 C805 1.386 . S
C804 C806 1.391 . S
C805 C804 1.386 . S
C805 C809 1.393 . S
C806 H798 0.950 . S
C806 C804 1.391 . S
C806 C807 1.400 . S
C807 C806 1.400 . S
C807 C808 1.398 . S
C807 C813 1.491 . S
C808 H799 0.950 . S
C808 C807 1.398 . S
C808 C809 1.391 . S
C809 H797 0.950 . S
C809 C805 1.393 . S
C809 C808 1.391 . S
C810 H800 0.950 . S
C810 C811 1.386 . S
C810 C812 1.391 . S
C811 C810 1.386 . S
C811 C815 1.393 . S
C812 H801 0.950 . S
C812 C810 1.391 . S
C812 C813 1.400 . S
C813 C807 1.491 . S
C813 C812 1.400 . S
C813 C814 1.398 . S
C814 H802 0.950 . S
C814 C813 1.398 . S
C814 C815 1.391 . S
C815 H803 0.950 . S
C815 C811 1.393 . S
C815 C814 1.391 . S
H816 C824 0.956 . S
H817 C829 0.950 . S
H818 C826 0.950 . S
H819 C828 0.950 . S
H820 C830 0.950 . S
H821 C832 0.950 . S
H822 C834 0.950 . S
H823 C835 0.950 . S
C824 H816 0.956 . S
C824 C825 1.386 . S
C824 C826 1.384 1_565 S
C825 C824 1.386 . S
C825 C829 1.393 1_565 S
C826 H818 0.950 . S
C826 C824 1.384 1_545 S
C826 C827 1.400 . S
C827 C826 1.400 . S
C827 C828 1.398 . S
C827 C833 1.491 . S
C828 H819 0.950 . S
C828 C827 1.398 . S
C828 C829 1.391 . S
C829 H817 0.950 . S
C829 C825 1.393 1_545 S
C829 C828 1.391 . S
C830 H820 0.950 . S
C830 C831 1.386 . S
C830 C832 1.391 . S
C831 C830 1.386 . S
C831 C835 1.393 . S
C832 H821 0.950 . S
C832 C830 1.391 . S
C832 C833 1.400 . S
C833 C827 1.491 . S
C833 C832 1.400 . S
C833 C834 1.398 . S
C834 H822 0.950 . S
C834 C833 1.398 . S
C834 C835 1.391 . S
C835 H823 0.950 . S
C835 C831 1.393 . S
C835 C834 1.391 . S
H836 C844 0.950 . S
H837 C849 0.950 . S
H838 C846 0.950 . S
H839 C848 0.950 . S
H840 C850 0.950 . S
H841 C852 0.950 . S
H842 C854 0.950 . S
H843 C855 0.950 . S
C844 H836 0.950 . S
C844 C845 1.386 . S
C844 C846 1.391 . S
C845 C844 1.386 . S
C845 C849 1.393 . S
C846 H838 0.950 . S
C846 C844 1.391 . S
C846 C847 1.400 . S
C847 C846 1.400 . S
C847 C848 1.398 . S
C847 C853 1.491 . S
C848 H839 0.950 . S
C848 C847 1.398 . S
C848 C849 1.391 . S
C849 H837 0.950 . S
C849 C845 1.393 . S
C849 C848 1.391 . S
C850 H840 0.950 . S
C850 C851 1.386 . S
C850 C852 1.391 . S
C851 C850 1.386 . S
C851 C855 1.393 . S
C852 H841 0.950 . S
C852 C850 1.391 . S
C852 C853 1.400 . S
C853 C847 1.491 . S
C853 C852 1.400 . S
C853 C854 1.398 . S
C854 H842 0.950 . S
C854 C853 1.398 . S
C854 C855 1.391 . S
C855 H843 0.950 . S
C855 C851 1.393 . S
C855 C854 1.391 . S
H856 C864 0.950 . S
H857 C869 0.950 . S
H858 C866 0.950 . S
H859 C868 0.950 . S
H860 C870 0.950 . S
H861 C872 0.950 . S
H862 C874 0.950 . S
H863 C875 0.950 . S
C864 H856 0.950 . S
C864 C865 1.386 . S
C864 C866 1.391 . S
C865 C864 1.386 . S
C865 C869 1.393 . S
C866 H858 0.950 . S
C866 C864 1.391 . S
C866 C867 1.400 . S
C867 C866 1.400 . S
C867 C868 1.398 . S
C867 C873 1.491 . S
C868 H859 0.950 . S
C868 C867 1.398 . S
C868 C869 1.391 . S
C869 H857 0.950 . S
C869 C865 1.393 . S
C869 C868 1.391 . S
C870 H860 0.950 . S
C870 C871 1.386 . S
C870 C872 1.391 . S
C871 C870 1.386 . S
C871 C875 1.393 . S
C872 H861 0.950 . S
C872 C870 1.391 . S
C872 C873 1.400 . S
C873 C867 1.491 . S
C873 C872 1.400 . S
C873 C874 1.398 . S
C874 H862 0.950 . S
C874 C873 1.398 . S
C874 C875 1.391 . S
C875 H863 0.950 . S
C875 C871 1.393 . S
C875 C874 1.391 . S
H876 C884 0.950 . S
H877 C889 0.950 . S
H878 C886 0.950 . S
H879 C888 0.950 . S
H880 C890 0.950 . S
H881 C892 0.950 . S
H882 C894 0.950 . S
H883 C895 0.933 1_565 S
C884 H876 0.950 . S
C884 C885 1.386 . S
C884 C886 1.391 . S
C885 C884 1.386 . S
C885 C889 1.393 . S
C886 H878 0.950 . S
C886 C884 1.391 . S
C886 C887 1.400 . S
C887 C886 1.400 . S
C887 C888 1.398 . S
C887 C893 1.491 . S
C888 H879 0.950 . S
C888 C887 1.398 . S
C888 C889 1.391 . S
C889 H877 0.950 . S
C889 C885 1.393 . S
C889 C888 1.391 . S
C890 H880 0.950 . S
C890 C891 1.386 . S
C890 C892 1.391 . S
C891 C890 1.386 . S
C891 C895 1.393 . S
C892 H881 0.950 . S
C892 C890 1.391 . S
C892 C893 1.400 . S
C893 C887 1.491 . S
C893 C892 1.400 . S
C893 C894 1.398 . S
C894 H882 0.950 . S
C894 C893 1.398 . S
C894 C895 1.391 . S
C895 H883 0.933 1_545 S
C895 C891 1.393 . S
C895 C894 1.391 . S
H896 C904 0.950 . S
H897 C909 0.950 . S
H898 C906 0.950 . S
H899 C908 0.950 . S
H900 C910 0.950 . S
H901 C912 0.950 . S
H902 C914 0.950 . S
H903 C915 0.950 . S
C904 H896 0.950 . S
C904 C905 1.386 . S
C904 C906 1.391 . S
C905 C904 1.386 . S
C905 C909 1.393 . S
C906 H898 0.950 . S
C906 C904 1.391 . S
C906 C907 1.400 . S
C907 C906 1.400 . S
C907 C908 1.398 . S
C907 C913 1.491 . S
C908 H899 0.950 . S
C908 C907 1.398 . S
C908 C909 1.391 . S
C909 H897 0.950 . S
C909 C905 1.393 . S
C909 C908 1.391 . S
C910 H900 0.950 . S
C910 C911 1.386 . S
C910 C912 1.391 . S
C911 C910 1.386 . S
C911 C915 1.393 . S
C912 H901 0.950 . S
C912 C910 1.391 . S
C912 C913 1.400 . S
C913 C907 1.491 . S
C913 C912 1.400 . S
C913 C914 1.398 . S
C914 H902 0.950 . S
C914 C913 1.398 . S
C914 C915 1.391 . S
C915 H903 0.950 . S
C915 C911 1.393 . S
C915 C914 1.391 . S
H916 C924 0.950 . S
H917 C929 0.950 . S
H918 C926 0.950 . S
H919 C928 0.950 . S
H920 C930 0.950 . S
H921 C932 0.950 . S
H922 C934 0.950 . S
H923 C935 0.950 . S
C924 H916 0.950 . S
C924 C925 1.386 . S
C924 C926 1.391 . S
C925 C924 1.386 . S
C925 C929 1.393 . S
C926 H918 0.950 . S
C926 C924 1.391 . S
C926 C927 1.400 . S
C927 C926 1.400 . S
C927 C928 1.398 . S
C927 C933 1.491 . S
C928 H919 0.950 . S
C928 C927 1.398 . S
C928 C929 1.391 . S
C929 H917 0.950 . S
C929 C925 1.393 . S
C929 C928 1.391 . S
C930 H920 0.950 . S
C930 C931 1.386 . S
C930 C932 1.391 . S
C931 C930 1.386 . S
C931 C935 1.393 . S
C932 H921 0.950 . S
C932 C930 1.391 . S
C932 C933 1.400 . S
C933 C927 1.491 . S
C933 C932 1.400 . S
C933 C934 1.398 . S
C934 H922 0.950 . S
C934 C933 1.398 . S
C934 C935 1.391 . S
C935 H923 0.950 . S
C935 C931 1.393 . S
C935 C934 1.391 . S
H936 C944 0.950 . S
H937 C949 0.950 . S
H938 C946 0.950 . S
H939 C948 0.950 . S
H940 C950 0.950 . S
H941 C952 0.950 . S
H942 C954 0.950 . S
H943 C955 0.950 . S
C944 H936 0.950 . S
C944 C945 1.386 . S
C944 C946 1.391 . S
C945 C944 1.386 . S
C945 C949 1.393 . S
C946 H938 0.950 . S
C946 C944 1.391 . S
C946 C947 1.400 . S
C947 C946 1.400 . S
C947 C948 1.398 . S
C947 C953 1.491 . S
C948 H939 0.950 . S
C948 C947 1.398 . S
C948 C949 1.391 . S
C949 H937 0.950 . S
C949 C945 1.393 . S
C949 C948 1.391 . S
C950 H940 0.950 . S
C950 C951 1.386 . S
C950 C952 1.391 . S
C951 C950 1.386 . S
C951 C955 1.393 . S
C952 H941 0.950 . S
C952 C950 1.391 . S
C952 C953 1.400 . S
C953 C947 1.491 . S
C953 C952 1.400 . S
C953 C954 1.398 . S
C954 H942 0.950 . S
C954 C953 1.398 . S
C954 C955 1.391 . S
C955 H943 0.950 . S
C955 C951 1.393 . S
C955 C954 1.391 . S
H956 C964 0.950 . S
H957 C969 0.950 1_455 S
H958 C966 0.950 . S
H959 C968 0.950 . S
H960 C970 0.950 . S
H961 C972 0.950 . S
H962 C974 0.950 . S
H963 C975 0.950 . S
C964 H956 0.950 . S
C964 C965 1.385 1_565 S
C964 C966 1.391 . S
C965 C964 1.385 1_545 S
C965 C969 1.393 . S
C966 H958 0.950 . S
C966 C964 1.391 . S
C966 C967 1.400 1_565 S
C967 C966 1.400 1_545 S
C967 C968 1.398 . S
C967 C973 1.491 . S
C968 H959 0.950 . S
C968 C967 1.398 . S
C968 C969 1.391 . S
C969 H957 0.950 1_655 S
C969 C965 1.393 . S
C969 C968 1.391 . S
C970 H960 0.950 . S
C970 C971 1.386 . S
C970 C972 1.391 . S
C971 C970 1.386 . S
C971 C975 1.393 1_545 S
C972 H961 0.950 . S
C972 C970 1.391 . S
C972 C973 1.400 . S
C973 C967 1.491 . S
C973 C972 1.400 . S
C973 C974 1.398 1_545 S
C974 H962 0.950 . S
C974 C973 1.398 1_565 S
C974 C975 1.391 . S
C975 H963 0.950 . S
C975 C971 1.393 1_565 S
C975 C974 1.391 . S
H976 C984 0.950 . S
H977 C989 0.950 . S
H978 C986 0.950 . S
H979 C988 0.950 . S
H980 C990 0.950 . S
H981 C992 0.950 . S
H982 C994 0.950 . S
H983 C995 0.950 . S
C984 H976 0.950 . S
C984 C985 1.386 . S
C984 C986 1.391 . S
C985 C984 1.386 . S
C985 C989 1.393 . S
C986 H978 0.950 . S
C986 C984 1.391 . S
C986 C987 1.400 . S
C987 C986 1.400 . S
C987 C988 1.398 . S
C987 C993 1.491 . S
C988 H979 0.950 . S
C988 C987 1.398 . S
C988 C989 1.391 . S
C989 H977 0.950 . S
C989 C985 1.393 . S
C989 C988 1.391 . S
C990 H980 0.950 . S
C990 C991 1.386 . S
C990 C992 1.391 . S
C991 C990 1.386 . S
C991 C995 1.393 . S
C992 H981 0.950 . S
C992 C990 1.391 . S
C992 C993 1.400 . S
C993 C987 1.491 . S
C993 C992 1.400 . S
C993 C994 1.398 . S
C994 H982 0.950 . S
C994 C993 1.398 . S
C994 C995 1.391 . S
C995 H983 0.950 . S
C995 C991 1.393 . S
C995 C994 1.391 . S
H996 C1004 0.950 . S
H997 C1009 0.950 1_655 S
H998 C1006 0.950 . S
H999 C1008 0.950 . S
H1000 C1010 0.950 . S
H1001 C1012 0.950 . S
H1002 C1014 0.950 . S
H1003 C1015 0.950 . S
C1004 H996 0.950 . S
C1004 C1005 1.386 . S
C1004 C1006 1.391 . S
C1005 C1004 1.386 . S
C1005 C1009 1.393 . S
C1006 H998 0.950 . S
C1006 C1004 1.391 . S
C1006 C1007 1.400 . S
C1007 C1006 1.400 . S
C1007 C1008 1.398 . S
C1007 C1013 1.491 . S
C1008 H999 0.950 . S
C1008 C1007 1.398 . S
C1008 C1009 1.391 . S
C1009 H997 0.950 1_455 S
C1009 C1005 1.393 . S
C1009 C1008 1.391 . S
C1010 H1000 0.950 . S
C1010 C1011 1.386 . S
C1010 C1012 1.391 . S
C1011 C1010 1.386 . S
C1011 C1015 1.393 . S
C1012 H1001 0.950 . S
C1012 C1010 1.391 . S
C1012 C1013 1.400 . S
C1013 C1007 1.491 . S
C1013 C1012 1.400 . S
C1013 C1014 1.398 . S
C1014 H1002 0.950 . S
C1014 C1013 1.398 . S
C1014 C1015 1.391 . S
C1015 H1003 0.950 . S
C1015 C1011 1.393 . S
C1015 C1014 1.391 . S
H1016 C1024 0.950 . S
H1017 C1029 0.950 . S
H1018 C1026 0.950 . S
H1019 C1028 0.950 . S
H1020 C1030 0.950 . S
H1021 C1032 0.950 . S
H1022 C1034 0.950 . S
H1023 C1035 0.950 . S
C1024 H1016 0.950 . S
C1024 C1025 1.386 . S
C1024 C1026 1.391 . S
C1025 C1024 1.386 . S
C1025 C1029 1.393 . S
C1026 H1018 0.950 . S
C1026 C1024 1.391 . S
C1026 C1027 1.400 . S
C1027 C1026 1.400 . S
C1027 C1028 1.398 . S
C1027 C1033 1.491 . S
C1028 H1019 0.950 . S
C1028 C1027 1.398 . S
C1028 C1029 1.391 . S
C1029 H1017 0.950 . S
C1029 C1025 1.393 . S
C1029 C1028 1.391 . S
C1030 H1020 0.950 . S
C1030 C1031 1.386 . S
C1030 C1032 1.391 . S
C1031 C1030 1.386 . S
C1031 C1035 1.393 . S
C1032 H1021 0.950 . S
C1032 C1030 1.391 . S
C1032 C1033 1.400 . S
C1033 C1027 1.491 . S
C1033 C1032 1.400 . S
C1033 C1034 1.398 . S
C1034 H1022 0.950 . S
C1034 C1033 1.398 . S
C1034 C1035 1.391 . S
C1035 H1023 0.950 . S
C1035 C1031 1.393 . S
C1035 C1034 1.391 . S
H1036 C1044 0.950 . S
H1037 C1049 0.950 . S
H1038 C1046 0.950 . S
H1039 C1048 0.948 1_456 S
H1040 C1050 0.950 . S
H1041 C1052 0.950 . S
H1042 C1054 0.950 . S
H1043 C1055 0.950 . S
C1044 H1036 0.950 . S
C1044 C1045 1.386 . S
C1044 C1046 1.391 . S
C1045 C1044 1.386 . S
C1045 C1049 1.393 . S
C1046 H1038 0.950 . S
C1046 C1044 1.391 . S
C1046 C1047 1.400 . S
C1047 C1046 1.400 . S
C1047 C1048 1.398 . S
C1047 C1053 1.500 1_554 S
C1048 H1039 0.948 1_654 S
C1048 C1047 1.398 . S
C1048 C1049 1.391 . S
C1049 H1037 0.950 . S
C1049 C1045 1.393 . S
C1049 C1048 1.391 . S
C1050 H1040 0.950 . S
C1050 C1051 1.386 . S
C1050 C1052 1.391 . S
C1051 C1050 1.386 . S
C1051 C1055 1.390 1_455 S
C1052 H1041 0.950 . S
C1052 C1050 1.391 . S
C1052 C1053 1.391 1_455 S
C1053 C1047 1.500 1_556 S
C1053 C1052 1.391 1_655 S
C1053 C1054 1.398 1_556 S
C1054 H1042 0.950 . S
C1054 C1053 1.398 1_554 S
C1054 C1055 1.393 1_554 S
C1055 H1043 0.950 . S
C1055 C1051 1.390 1_655 S
C1055 C1054 1.393 1_556 S
H1056 C1064 0.950 . S
H1057 C1069 0.950 . S
H1058 C1066 0.950 . S
H1059 C1068 0.950 . S
H1060 C1070 0.950 . S
H1061 C1072 0.950 . S
H1062 C1074 0.950 . S
H1063 C1075 0.950 . S
C1064 H1056 0.950 . S
C1064 C1065 1.386 . S
C1064 C1066 1.391 . S
C1065 C1064 1.386 . S
C1065 C1069 1.393 . S
C1066 H1058 0.950 . S
C1066 C1064 1.391 . S
C1066 C1067 1.400 . S
C1067 C1066 1.400 . S
C1067 C1068 1.398 . S
C1067 C1073 1.491 . S
C1068 H1059 0.950 . S
C1068 C1067 1.398 . S
C1068 C1069 1.391 . S
C1069 H1057 0.950 . S
C1069 C1065 1.393 . S
C1069 C1068 1.391 . S
C1070 H1060 0.950 . S
C1070 C1071 1.386 . S
C1070 C1072 1.391 . S
C1071 C1070 1.386 . S
C1071 C1075 1.393 . S
C1072 H1061 0.950 . S
C1072 C1070 1.391 . S
C1072 C1073 1.400 . S
C1073 C1067 1.491 . S
C1073 C1072 1.400 . S
C1073 C1074 1.398 . S
C1074 H1062 0.950 . S
C1074 C1073 1.398 . S
C1074 C1075 1.391 . S
C1075 H1063 0.950 . S
C1075 C1071 1.393 . S
C1075 C1074 1.391 . S
H1076 C1084 0.950 . S
H1077 C1089 0.950 . S
H1078 C1086 0.950 . S
H1079 C1088 0.950 . S
H1080 C1090 0.950 . S
H1081 C1092 0.950 . S
H1082 C1094 0.950 . S
H1083 C1095 0.950 . S
C1084 H1076 0.950 . S
C1084 C1085 1.386 1_556 S
C1084 C1086 1.391 . S
C1085 C1084 1.386 1_554 S
C1085 C1089 1.393 1_455 S
C1086 H1078 0.950 . S
C1086 C1084 1.391 . S
C1086 C1087 1.400 . S
C1087 C1086 1.400 . S
C1087 C1088 1.398 1_456 S
C1087 C1093 1.491 . S
C1088 H1079 0.950 . S
C1088 C1087 1.398 1_654 S
C1088 C1089 1.391 . S
C1089 H1077 0.950 . S
C1089 C1085 1.393 1_655 S
C1089 C1088 1.391 . S
C1090 H1080 0.950 . S
C1090 C1091 1.386 1_655 S
C1090 C1092 1.391 . S
C1091 C1090 1.386 1_455 S
C1091 C1095 1.393 . S
C1092 H1081 0.950 . S
C1092 C1090 1.391 . S
C1092 C1093 1.400 1_655 S
C1093 C1087 1.491 . S
C1093 C1092 1.400 1_455 S
C1093 C1094 1.398 . S
C1094 H1082 0.950 . S
C1094 C1093 1.398 . S
C1094 C1095 1.391 . S
C1095 H1083 0.950 . S
C1095 C1091 1.393 . S
C1095 C1094 1.391 . S
H1096 C1104 0.950 . S
H1097 C1109 0.950 . S
H1098 C1106 0.950 . S
H1099 C1108 0.950 . S
H1100 C1110 0.950 . S
H1101 C1112 0.950 . S
H1102 C1114 0.950 . S
H1103 C1115 0.950 . S
C1104 H1096 0.950 . S
C1104 C1105 1.386 . S
C1104 C1106 1.391 . S
C1105 C1104 1.386 . S
C1105 C1109 1.393 . S
C1106 H1098 0.950 . S
C1106 C1104 1.391 . S
C1106 C1107 1.400 . S
C1107 C1106 1.400 . S
C1107 C1108 1.398 . S
C1107 C1113 1.491 . S
C1108 H1099 0.950 . S
C1108 C1107 1.398 . S
C1108 C1109 1.391 . S
C1109 H1097 0.950 . S
C1109 C1105 1.393 . S
C1109 C1108 1.391 . S
C1110 H1100 0.950 . S
C1110 C1111 1.386 . S
C1110 C1112 1.391 . S
C1111 C1110 1.386 . S
C1111 C1115 1.393 . S
C1112 H1101 0.950 . S
C1112 C1110 1.391 . S
C1112 C1113 1.400 . S
C1113 C1107 1.491 . S
C1113 C1112 1.400 . S
C1113 C1114 1.398 . S
C1114 H1102 0.950 . S
C1114 C1113 1.398 . S
C1114 C1115 1.391 . S
C1115 H1103 0.950 . S
C1115 C1111 1.393 . S
C1115 C1114 1.391 . S
H1116 C1124 0.950 . S
H1117 C1129 0.950 . S
H1118 C1126 0.950 . S
H1119 C1128 0.950 . S
H1120 C1130 0.950 . S
H1121 C1132 0.950 . S
H1122 C1134 0.950 . S
H1123 C1135 0.950 . S
C1124 H1116 0.950 . S
C1124 C1125 1.396 . S
C1124 C1126 1.391 . S
C1125 C1124 1.396 . S
C1125 C1129 1.401 . S
C1126 H1118 0.950 . S
C1126 C1124 1.391 . S
C1126 C1127 1.400 . S
C1127 C1126 1.400 . S
C1127 C1128 1.398 . S
C1127 C1133 1.491 . S
C1128 H1119 0.950 . S
C1128 C1127 1.398 . S
C1128 C1129 1.391 . S
C1129 H1117 0.950 . S
C1129 C1125 1.401 . S
C1129 C1128 1.391 . S
C1130 H1120 0.950 . S
C1130 C1131 1.386 . S
C1130 C1132 1.391 . S
C1131 C1130 1.386 . S
C1131 C1135 1.393 . S
C1132 H1121 0.950 . S
C1132 C1130 1.391 . S
C1132 C1133 1.400 . S
C1133 C1127 1.491 . S
C1133 C1132 1.400 . S
C1133 C1134 1.398 . S
C1134 H1122 0.950 . S
C1134 C1133 1.398 . S
C1134 C1135 1.391 . S
C1135 H1123 0.950 . S
C1135 C1131 1.393 . S
C1135 C1134 1.391 . S
H1136 C1144 0.950 . S
H1137 C1149 0.950 . S
H1138 C1146 0.950 . S
H1139 C1148 0.950 . S
H1140 C1150 0.950 . S
H1141 C1152 0.950 . S
H1142 C1154 0.950 . S
H1143 C1155 0.950 . S
C1144 H1136 0.950 . S
C1144 C1145 1.386 . S
C1144 C1146 1.391 . S
C1145 C1144 1.386 . S
C1145 C1149 1.393 . S
C1146 H1138 0.950 . S
C1146 C1144 1.391 . S
C1146 C1147 1.400 . S
C1147 C1146 1.400 . S
C1147 C1148 1.398 . S
C1147 C1153 1.491 . S
C1148 H1139 0.950 . S
C1148 C1147 1.398 . S
C1148 C1149 1.391 . S
C1149 H1137 0.950 . S
C1149 C1145 1.393 . S
C1149 C1148 1.391 . S
C1150 H1140 0.950 . S
C1150 C1151 1.386 . S
C1150 C1152 1.391 . S
C1151 C1150 1.386 . S
C1151 C1155 1.393 . S
C1152 H1141 0.950 . S
C1152 C1150 1.391 . S
C1152 C1153 1.400 . S
C1153 C1147 1.491 . S
C1153 C1152 1.400 . S
C1153 C1154 1.398 . S
C1154 H1142 0.950 . S
C1154 C1153 1.398 . S
C1154 C1155 1.391 . S
C1155 H1143 0.950 . S
C1155 C1151 1.393 . S
C1155 C1154 1.391 . S
H1156 C1164 0.948 . S
H1157 C1169 0.950 . S
H1158 C1166 0.950 . S
H1159 C1168 0.950 . S
H1160 C1170 0.950 . S
H1161 C1172 0.950 . S
H1162 C1174 0.950 . S
H1163 C1175 0.950 . S
C1164 H1156 0.948 . S
C1164 C1165 1.386 1_556 S
C1164 C1166 1.392 1_556 S
C1165 C1164 1.386 1_554 S
C1165 C1169 1.393 . S
C1166 H1158 0.950 . S
C1166 C1164 1.392 1_554 S
C1166 C1167 1.400 . S
C1167 C1166 1.400 . S
C1167 C1168 1.398 . S
C1167 C1173 1.491 . S
C1168 H1159 0.950 . S
C1168 C1167 1.398 . S
C1168 C1169 1.391 . S
C1169 H1157 0.950 . S
C1169 C1165 1.393 . S
C1169 C1168 1.391 . S
C1170 H1160 0.950 . S
C1170 C1171 1.386 . S
C1170 C1172 1.391 . S
C1171 C1170 1.386 . S
C1171 C1175 1.393 . S
C1172 H1161 0.950 . S
C1172 C1170 1.391 . S
C1172 C1173 1.400 . S
C1173 C1167 1.491 . S
C1173 C1172 1.400 . S
C1173 C1174 1.398 . S
C1174 H1162 0.950 . S
C1174 C1173 1.398 . S
C1174 C1175 1.391 . S
C1175 H1163 0.950 . S
C1175 C1171 1.393 . S
C1175 C1174 1.391 . S
H1176 C1184 0.950 . S
H1177 C1189 0.950 . S
H1178 C1186 0.950 . S
H1179 C1188 0.950 . S
H1180 C1190 0.950 . S
H1181 C1192 0.950 . S
H1182 C1194 0.950 . S
H1183 C1195 0.950 . S
C1184 H1176 0.950 . S
C1184 C1185 1.386 . S
C1184 C1186 1.391 . S
C1185 C1184 1.386 . S
C1185 C1189 1.393 . S
C1186 H1178 0.950 . S
C1186 C1184 1.391 . S
C1186 C1187 1.400 . S
C1187 C1186 1.400 . S
C1187 C1188 1.398 . S
C1187 C1193 1.491 . S
C1188 H1179 0.950 . S
C1188 C1187 1.398 . S
C1188 C1189 1.391 . S
C1189 H1177 0.950 . S
C1189 C1185 1.393 . S
C1189 C1188 1.391 . S
C1190 H1180 0.950 . S
C1190 C1191 1.386 . S
C1190 C1192 1.391 . S
C1191 C1190 1.386 . S
C1191 C1195 1.393 . S
C1192 H1181 0.950 . S
C1192 C1190 1.391 . S
C1192 C1193 1.400 . S
C1193 C1187 1.491 . S
C1193 C1192 1.400 . S
C1193 C1194 1.398 . S
C1194 H1182 0.950 . S
C1194 C1193 1.398 . S
C1194 C1195 1.391 . S
C1195 H1183 0.950 . S
C1195 C1191 1.393 . S
C1195 C1194 1.391 . S
H1196 C1204 0.950 . S
H1197 C1209 0.950 . S
H1198 C1206 0.950 . S
H1199 C1208 0.950 . S
H1200 C1210 0.950 . S
H1201 C1212 0.950 . S
H1202 C1214 0.950 . S
H1203 C1215 0.950 . S
C1204 H1196 0.950 . S
C1204 C1205 1.386 . S
C1204 C1206 1.391 . S
C1205 C1204 1.386 . S
C1205 C1209 1.393 . S
C1206 H1198 0.950 . S
C1206 C1204 1.391 . S
C1206 C1207 1.400 . S
C1207 C1206 1.400 . S
C1207 C1208 1.398 . S
C1207 C1213 1.491 . S
C1208 H1199 0.950 . S
C1208 C1207 1.398 . S
C1208 C1209 1.391 . S
C1209 H1197 0.950 . S
C1209 C1205 1.393 . S
C1209 C1208 1.391 . S
C1210 H1200 0.950 . S
C1210 C1211 1.386 . S
C1210 C1212 1.391 . S
C1211 C1210 1.386 . S
C1211 C1215 1.393 . S
C1212 H1201 0.950 . S
C1212 C1210 1.391 . S
C1212 C1213 1.400 . S
C1213 C1207 1.491 . S
C1213 C1212 1.400 . S
C1213 C1214 1.398 . S
C1214 H1202 0.950 . S
C1214 C1213 1.398 . S
C1214 C1215 1.391 . S
C1215 H1203 0.950 . S
C1215 C1211 1.393 . S
C1215 C1214 1.391 . S
H1216 C1224 0.950 . S
H1217 C1229 0.950 . S
H1218 C1226 0.950 . S
H1219 C1228 0.950 . S
H1220 C1230 0.950 . S
H1221 C1232 0.950 . S
H1222 C1234 0.950 . S
H1223 C1235 0.950 . S
C1224 H1216 0.950 . S
C1224 C1225 1.386 . S
C1224 C1226 1.391 . S
C1225 C1224 1.386 . S
C1225 C1229 1.393 . S
C1226 H1218 0.950 . S
C1226 C1224 1.391 . S
C1226 C1227 1.400 . S
C1227 C1226 1.400 . S
C1227 C1228 1.398 . S
C1227 C1233 1.491 . S
C1228 H1219 0.950 . S
C1228 C1227 1.398 . S
C1228 C1229 1.391 . S
C1229 H1217 0.950 . S
C1229 C1225 1.393 . S
C1229 C1228 1.391 . S
C1230 H1220 0.950 . S
C1230 C1231 1.386 . S
C1230 C1232 1.391 . S
C1231 C1230 1.386 . S
C1231 C1235 1.393 . S
C1232 H1221 0.950 . S
C1232 C1230 1.391 . S
C1232 C1233 1.400 . S
C1233 C1227 1.491 . S
C1233 C1232 1.400 . S
C1233 C1234 1.398 . S
C1234 H1222 0.950 . S
C1234 C1233 1.398 . S
C1234 C1235 1.391 . S
C1235 H1223 0.950 . S
C1235 C1231 1.393 . S
C1235 C1234 1.391 . S
H1236 C1244 0.950 . S
H1237 C1249 0.950 . S
H1238 C1246 0.950 . S
H1239 C1248 0.950 . S
H1240 C1250 0.950 . S
H1241 C1252 0.950 . S
H1242 C1254 0.950 . S
H1243 C1255 0.950 . S
C1244 H1236 0.950 . S
C1244 C1245 1.386 . S
C1244 C1246 1.391 . S
C1245 C1244 1.386 . S
C1245 C1249 1.393 . S
C1246 H1238 0.950 . S
C1246 C1244 1.391 . S
C1246 C1247 1.400 . S
C1247 C1246 1.400 . S
C1247 C1248 1.398 . S
C1247 C1253 1.491 . S
C1248 H1239 0.950 . S
C1248 C1247 1.398 . S
C1248 C1249 1.391 . S
C1249 H1237 0.950 . S
C1249 C1245 1.393 . S
C1249 C1248 1.391 . S
C1250 H1240 0.950 . S
C1250 C1251 1.386 . S
C1250 C1252 1.391 . S
C1251 C1250 1.386 . S
C1251 C1255 1.393 . S
C1252 H1241 0.950 . S
C1252 C1250 1.391 . S
C1252 C1253 1.400 . S
C1253 C1247 1.491 . S
C1253 C1252 1.400 . S
C1253 C1254 1.398 . S
C1254 H1242 0.950 . S
C1254 C1253 1.398 . S
C1254 C1255 1.391 . S
C1255 H1243 0.950 . S
C1255 C1251 1.393 . S
C1255 C1254 1.391 . S
H1256 C1264 0.950 . S
H1257 C1269 0.950 . S
H1258 C1266 0.950 . S
H1259 C1268 0.950 . S
H1260 C1270 0.950 . S
H1261 C1272 0.950 . S
H1262 C1274 0.950 . S
H1263 C1275 0.950 . S
C1264 H1256 0.950 . S
C1264 C1265 1.386 . S
C1264 C1266 1.391 . S
C1265 C1264 1.386 . S
C1265 C1269 1.393 1_556 S
C1266 H1258 0.950 . S
C1266 C1264 1.391 . S
C1266 C1267 1.400 . S
C1267 C1266 1.400 . S
C1267 C1268 1.398 1_556 S
C1267 C1273 1.491 . S
C1268 H1259 0.950 . S
C1268 C1267 1.398 1_554 S
C1268 C1269 1.391 . S
C1269 H1257 0.950 . S
C1269 C1265 1.393 1_554 S
C1269 C1268 1.391 . S
C1270 H1260 0.950 . S
C1270 C1271 1.386 1_554 S
C1270 C1272 1.391 . S
C1271 C1270 1.386 1_556 S
C1271 C1275 1.393 . S
C1272 H1261 0.950 . S
C1272 C1270 1.391 . S
C1272 C1273 1.400 1_554 S
C1273 C1267 1.491 . S
C1273 C1272 1.400 1_556 S
C1273 C1274 1.398 . S
C1274 H1262 0.950 . S
C1274 C1273 1.398 . S
C1274 C1275 1.391 . S
C1275 H1263 0.950 . S
C1275 C1271 1.393 . S
C1275 C1274 1.391 . S
H1276 C1284 0.950 . S
H1277 C1289 0.950 . S
H1278 C1286 0.950 . S
H1279 C1288 0.950 . S
H1280 C1290 0.950 . S
H1281 C1292 0.950 . S
H1282 C1294 0.950 . S
H1283 C1295 0.950 . S
C1284 H1276 0.950 . S
C1284 C1285 1.386 . S
C1284 C1286 1.391 . S
C1285 C1284 1.386 . S
C1285 C1289 1.393 . S
C1286 H1278 0.950 . S
C1286 C1284 1.391 . S
C1286 C1287 1.400 . S
C1287 C1286 1.400 . S
C1287 C1288 1.398 . S
C1287 C1293 1.491 . S
C1288 H1279 0.950 . S
C1288 C1287 1.398 . S
C1288 C1289 1.391 . S
C1289 H1277 0.950 . S
C1289 C1285 1.393 . S
C1289 C1288 1.391 . S
C1290 H1280 0.950 . S
C1290 C1291 1.386 . S
C1290 C1292 1.391 . S
C1291 C1290 1.386 . S
C1291 C1295 1.393 . S
C1292 H1281 0.950 . S
C1292 C1290 1.391 . S
C1292 C1293 1.400 . S
C1293 C1287 1.491 . S
C1293 C1292 1.400 . S
C1293 C1294 1.398 . S
C1294 H1282 0.950 . S
C1294 C1293 1.398 . S
C1294 C1295 1.391 . S
C1295 H1283 0.950 . S
C1295 C1291 1.393 . S
C1295 C1294 1.391 . S
H1296 C1304 0.950 . S
H1297 C1309 0.950 . S
H1298 C1306 0.950 . S
H1299 C1308 0.950 . S
H1300 C1310 0.950 1_556 S
H1301 C1312 0.934 1_556 S
H1302 C1314 0.950 . S
H1303 C1315 0.950 . S
C1304 H1296 0.950 . S
C1304 C1305 1.386 . S
C1304 C1306 1.391 . S
C1305 C1304 1.386 . S
C1305 C1309 1.393 . S
C1306 H1298 0.950 . S
C1306 C1304 1.391 . S
C1306 C1307 1.400 . S
C1307 C1306 1.400 . S
C1307 C1308 1.398 . S
C1307 C1313 1.491 . S
C1308 H1299 0.950 . S
C1308 C1307 1.398 . S
C1308 C1309 1.391 . S
C1309 H1297 0.950 . S
C1309 C1305 1.393 . S
C1309 C1308 1.391 . S
C1310 H1300 0.950 1_554 S
C1310 C1311 1.386 . S
C1310 C1312 1.391 . S
C1311 C1310 1.386 . S
C1311 C1315 1.393 . S
C1312 H1301 0.934 1_554 S
C1312 C1310 1.391 . S
C1312 C1313 1.400 . S
C1313 C1307 1.491 . S
C1313 C1312 1.400 . S
C1313 C1314 1.398 . S
C1314 H1302 0.950 . S
C1314 C1313 1.398 . S
C1314 C1315 1.391 . S
C1315 H1303 0.950 . S
C1315 C1311 1.393 . S
C1315 C1314 1.391 . S
H1316 C1324 0.950 . S
H1317 C1329 0.950 1_556 S
H1318 C1326 0.950 . S
H1319 C1328 0.950 1_556 S
H1320 C1330 0.950 1_556 S
H1321 C1332 0.950 1_556 S
H1322 C1334 0.950 . S
H1323 C1335 0.950 . S
C1324 H1316 0.950 . S
C1324 C1325 1.386 . S
C1324 C1326 1.391 . S
C1325 C1324 1.386 . S
C1325 C1329 1.393 . S
C1326 H1318 0.950 . S
C1326 C1324 1.391 . S
C1326 C1327 1.400 . S
C1327 C1326 1.400 . S
C1327 C1328 1.398 . S
C1327 C1333 1.491 . S
C1328 H1319 0.950 1_554 S
C1328 C1327 1.398 . S
C1328 C1329 1.391 . S
C1329 H1317 0.950 1_554 S
C1329 C1325 1.393 . S
C1329 C1328 1.391 . S
C1330 H1320 0.950 1_554 S
C1330 C1331 1.386 . S
C1330 C1332 1.391 . S
C1331 C1330 1.386 . S
C1331 C1335 1.393 . S
C1332 H1321 0.950 1_554 S
C1332 C1330 1.391 . S
C1332 C1333 1.400 . S
C1333 C1327 1.491 . S
C1333 C1332 1.400 . S
C1333 C1334 1.398 . S
C1334 H1322 0.950 . S
C1334 C1333 1.398 . S
C1334 C1335 1.391 . S
C1335 H1323 0.950 . S
C1335 C1331 1.393 . S
C1335 C1334 1.391 . S
C391 C219 1.249 . S
C385 N66 1.248 . S
C411 C227 1.404 . S
C405 N79 1.576 . S
C425 N92 1.699 . S
C431 C247 1.681 . S
C451 C261 1.335 . S
C445 N54 1.365 . S
C471 C276 1.530 . S
C465 N131 1.512 . S
C491 C290 1.226 . S
C485 N158 1.218 . S
C505 N145 1.590 . S
C511 C304 1.589 . S
C531 C310 1.726 . S
C525 N118 1.742 . S
C545 N148 1.954 . S
C551 C324 1.909 . S
C571 C345 1.602 . S
C565 N122 1.586 . S
C585 N132 1.237 . S
C591 C325 1.030 . S
C611 C346 1.526 . S
C605 N161 1.491 . S
C625 N96 1.829 . S
C631 C353 1.556 . S
C645 N53 1.697 . S
C651 C359 1.710 . S
C665 N67 1.047 . S
C671 C352 1.019 . S
C685 N83 1.348 . S
C691 C360 1.353 . S
C705 N44 1.451 . S
C711 C254 1.419 . S
C725 N187 1.480 . S
C731 C255 1.261 . S
C751 C212 1.162 . S
C745 N197 1.226 . S
C771 C233 1.257 . S
C765 N106 1.280 . S
C785 N57 1.781 1_545 S
C791 C268 1.740 . S
C811 C318 1.443 . S
C805 N144 1.422 . S
C831 C269 1.154 . S
C825 N119 1.342 . S
C851 C297 1.481 . S
C845 N157 1.796 . S
C871 C303 1.250 . S
C865 N183 1.249 . S
C885 N196 1.567 . S
C891 C311 1.362 . S
C905 N105 1.702 . S
C911 C275 1.685 . S
C931 C289 1.335 . S
C925 N171 1.365 . S
C945 N40 1.510 . S
C951 C248 1.530 . S
C971 C262 1.226 . S
C965 N2 1.217 . S
C991 C220 1.592 . S
C985 N15 1.588 . S
C1011 C226 1.731 . S
C1005 N27 1.730 1_455 S
C1025 N18 1.950 . S
C1031 C338 1.908 . S
C1045 N31 1.585 . S
C1051 C331 1.607 . S
C1065 N41 1.237 . S
C1071 C339 1.071 . S
C1085 N5 1.490 . S
C1091 C332 1.522 . S
C1111 C367 1.562 . S
C1105 N109 1.826 . S
C1131 C373 1.719 . S
C1125 N170 1.683 1_554 S
C1151 C366 1.032 . S
C1145 N184 1.050 . S
C1165 N200 1.332 1_554 S
C1171 C374 1.357 . S
C1185 N135 1.442 . S
C1191 C282 1.420 . S
C1211 C283 1.223 . S
C1205 N70 1.481 . S
C1231 C296 1.163 . S
C1225 N80 1.223 . S
C1251 C317 1.248 . S
C1245 N93 1.279 . S
C1265 N174 1.773 . S
C1271 C240 1.750 1_556 S
C1291 C234 1.445 . S
C1285 N14 1.416 . S
C1305 N28 1.342 . S
C1311 C241 1.155 . S
C1331 C213 1.515 . S
C1325 N1 1.786 . S
