# Generated by pormake.
# Topology rtl, (3,6)-cn, num edge types: 1
# Building blocks:
#     Node 0, Type 0, BuildingBlock: BELTOD_clean_linker_0, # of connection points: 3
#     Node 1, Type 0, BuildingBlock: BELTOD_clean_linker_0, # of connection points: 3
#     Node 2, Type 0, BuildingBlock: BELTOD_clean_linker_0, # of connection points: 3
#     Node 3, Type 0, BuildingBlock: BELTOD_clean_linker_0, # of connection points: 3
#     Node 4, Type 1, BuildingBlock: KUMJIN_clean_sbu_1, # of connection points: 6
#     Node 5, Type 1, BuildingBlock: KUMJIN_clean_sbu_1, # of connection points: 6
#     Edge 6, Type (0, 1), BuildingBlock: MIFKUJ_clean_linker_0, # of connection points: 2
#     Edge 7, Type (0, 1), BuildingBlock: MIFKUJ_clean_linker_0, # of connection points: 2
#     Edge 8, Type (0, 1), BuildingBlock: MIFKUJ_clean_linker_0, # of connection points: 2
#     Edge 9, Type (0, 1), BuildingBlock: MIFKUJ_clean_linker_0, # of connection points: 2
#     Edge 10, Type (0, 1), BuildingBlock: MIFKUJ_clean_linker_0, # of connection points: 2
#     Edge 11, Type (0, 1), BuildingBlock: MIFKUJ_clean_linker_0, # of connection points: 2
#     Edge 12, Type (0, 1), BuildingBlock: MIFKUJ_clean_linker_0, # of connection points: 2
#     Edge 13, Type (0, 1), BuildingBlock: MIFKUJ_clean_linker_0, # of connection points: 2
#     Edge 14, Type (0, 1), BuildingBlock: MIFKUJ_clean_linker_0, # of connection points: 2
#     Edge 15, Type (0, 1), BuildingBlock: MIFKUJ_clean_linker_0, # of connection points: 2
#     Edge 16, Type (0, 1), BuildingBlock: MIFKUJ_clean_linker_0, # of connection points: 2
#     Edge 17, Type (0, 1), BuildingBlock: MIFKUJ_clean_linker_0, # of connection points: 2
# Relax obj value: 0.018
# Max RMSD: 0.086
# Mean RMSD: 0.057
data_MOF--net-rtl--node1-KUMJIN_clean_sbu_1--node2-BELTOD_clean_linker_0--edge1-MIFKUJ_clean_linker_0
_symmetry_space_group_name_H-M    P1
_symmetry_Int_Tables_number       1
_symmetry_cell_setting            triclinic
loop_
_symmetry_equiv_pos_as_xyz
'x, y, z'
_cell_length_a     46.959713
_cell_length_b     47.381893
_cell_length_c     40.394799
_cell_angle_alpha  80.759631
_cell_angle_beta   99.86525
_cell_angle_gamma 90.276728
loop_
_atom_site_label
_atom_site_type_symbol
_atom_site_fract_x
_atom_site_fract_y
_atom_site_fract_z
_atom_type_partial_charge
P0 P 0.25437 0.88143 0.02707 0.0
H1 H 0.27105 0.89245 0.09659 0.0
H2 H 0.24346 0.89813 0.14131 0.0
H3 H 0.16463 0.88194 0.07507 0.0
H4 H 0.19245 0.87546 0.03102 0.0
H5 H 0.28427 0.856 0.98168 0.0
H6 H 0.30897 0.80993 0.98649 0.0
H7 H 0.28621 0.7842 0.08602 0.0
H8 H 0.26173 0.83056 0.08113 0.0
H9 H 0.24389 0.93481 0.97867 0.0
H10 H 0.21495 0.84791 0.98512 0.0
O11 O 0.281 0.90482 0.02997 0.0
H12 H 0.21401 0.94697 0.92224 0.0
H13 H 0.18507 0.85987 0.92859 0.0
C14 C 0.23377 0.88407 0.06026 0.0
C15 C 0.24783 0.89007 0.09177 0.0
C16 C 0.23199 0.89346 0.11725 0.0
C17 C 0.20175 0.89083 0.1117 0.0
C18 C 0.18789 0.88394 0.08035 0.0
C19 C 0.20379 0.88044 0.05495 0.0
C20 C 0.27084 0.84657 0.0308 0.0
C21 C 0.28435 0.84033 0.00441 0.0
C22 C 0.29839 0.81394 0.00715 0.0
C23 C 0.29942 0.79331 0.03657 0.0
C24 C 0.28594 0.7997 0.06312 0.0
C25 C 0.27177 0.82615 0.06026 0.0
C26 C 0.23197 0.89036 0.98577 0.0
C27 C 0.2312 0.91831 0.96786 0.0
C28 C 0.21418 0.92521 0.93559 0.0
C29 C 0.19734 0.90433 0.92088 0.0
C30 C 0.19769 0.87646 0.93931 0.0
C31 C 0.21489 0.86955 0.97149 0.0
P32 P 0.69678 0.66257 0.60159 0.0
H33 H 0.71191 0.63833 0.54514 0.0
H34 H 0.6859 0.63436 0.48857 0.0
H35 H 0.61288 0.68053 0.50783 0.0
H36 H 0.63918 0.68414 0.56498 0.0
H37 H 0.75462 0.67308 0.63635 0.0
H38 H 0.7863 0.71396 0.63113 0.0
H39 H 0.71856 0.76243 0.55871 0.0
H40 H 0.68675 0.72146 0.56456 0.0
H41 H 0.64374 0.63155 0.60865 0.0
H42 H 0.70031 0.68557 0.6654 0.0
O43 O 0.71908 0.63403 0.6129 0.0
H44 H 0.61674 0.62117 0.65553 0.0
H45 H 0.67343 0.67507 0.71263 0.0
C46 C 0.67719 0.66085 0.55954 0.0
C47 C 0.69028 0.64754 0.53728 0.0
C48 C 0.67545 0.64554 0.50476 0.0
C49 C 0.64725 0.65709 0.49366 0.0
C50 C 0.63441 0.67108 0.5158 0.0
C51 C 0.6494 0.67316 0.54841 0.0
C52 C 0.71855 0.69404 0.60031 0.0
C53 C 0.74651 0.69254 0.61947 0.0
C54 C 0.76466 0.7159 0.61632 0.0
C55 C 0.75515 0.74131 0.59405 0.0
C56 C 0.72656 0.74319 0.5761 0.0
C57 C 0.70839 0.71973 0.57928 0.0
C58 C 0.67353 0.66003 0.63304 0.0
C59 C 0.64979 0.64194 0.63074 0.0
C60 C 0.6344 0.63593 0.65765 0.0
C61 C 0.64291 0.64735 0.68777 0.0
C62 C 0.66642 0.66589 0.68978 0.0
C63 C 0.68163 0.67211 0.66266 0.0
P64 P 0.83565 0.20445 0.0303 0.0
H65 H 0.84033 0.23587 0.96393 0.0
H66 H 0.85034 0.22149 0.9116 0.0
H67 H 0.85169 0.13274 0.95854 0.0
H68 H 0.84084 0.14736 0.0106 0.0
H69 H 0.81363 0.24207 0.07049 0.0
H70 H 0.76783 0.26823 0.06413 0.0
H71 H 0.73473 0.23016 0.97534 0.0
H72 H 0.78082 0.20411 0.98181 0.0
H73 H 0.88743 0.1705 0.06122 0.0
H74 H 0.80011 0.17689 0.0797 0.0
O75 O 0.86024 0.22935 0.03718 0.0
H76 H 0.90016 0.13683 0.1143 0.0
H77 H 0.81264 0.14314 0.13279 0.0
C78 C 0.84036 0.19274 0.99127 0.0
C79 C 0.8426 0.2133 0.96286 0.0
C80 C 0.8485 0.20504 0.93304 0.0
C81 C 0.85231 0.17597 0.93105 0.0
C82 C 0.84884 0.15529 0.9592 0.0
C83 C 0.84285 0.16364 0.98909 0.0
C84 C 0.80075 0.22148 0.02641 0.0
C85 C 0.79645 0.23924 0.04977 0.0
C86 C 0.77018 0.25403 0.04621 0.0
C87 C 0.74764 0.25136 0.01914 0.0
C88 C 0.7518 0.23296 0.99619 0.0
C89 C 0.77811 0.21799 0.99993 0.0
C90 C 0.84294 0.17635 0.06662 0.0
C91 C 0.87088 0.16428 0.07646 0.0
C92 C 0.87809 0.14494 0.10675 0.0
C93 C 0.85745 0.13744 0.12791 0.0
C94 C 0.82912 0.1488 0.11729 0.0
C95 C 0.8219 0.16804 0.08683 0.0
P96 P 0.37043 0.26558 0.47758 0.0
H97 H 0.39975 0.24946 0.54794 0.0
H98 H 0.40669 0.27433 0.59704 0.0
H99 H 0.35587 0.3463 0.53653 0.0
H100 H 0.34993 0.32155 0.48718 0.0
H101 H 0.35606 0.20585 0.47473 0.0
H102 H 0.3113 0.17979 0.47575 0.0
H103 H 0.26525 0.25855 0.47563 0.0
H104 H 0.31034 0.28471 0.47401 0.0
H105 H 0.41241 0.30907 0.46456 0.0
H106 H 0.33775 0.27524 0.40715 0.0
O107 O 0.39738 0.24144 0.4838 0.0
H108 H 0.42195 0.33905 0.41274 0.0
H109 H 0.34731 0.30518 0.35493 0.0
C110 C 0.37475 0.28388 0.51382 0.0
C111 C 0.39024 0.27066 0.5452 0.0
C112 C 0.39397 0.28484 0.57338 0.0
C113 C 0.38195 0.31242 0.57078 0.0
C114 C 0.3659 0.32533 0.53932 0.0
C115 C 0.36231 0.31114 0.51112 0.0
C116 C 0.33661 0.24719 0.47467 0.0
C117 C 0.33636 0.21762 0.47469 0.0
C118 C 0.31073 0.20268 0.47551 0.0
C119 C 0.28476 0.21701 0.4763 0.0
C120 C 0.28486 0.24688 0.47498 0.0
C121 C 0.31063 0.26184 0.47421 0.0
C122 C 0.37417 0.29025 0.4398 0.0
C123 C 0.39779 0.30844 0.44084 0.0
C124 C 0.40337 0.32539 0.41115 0.0
C125 C 0.38548 0.32436 0.3797 0.0
C126 C 0.36132 0.30662 0.37883 0.0
C127 C 0.35584 0.2895 0.40866 0.0
Eu128 Eu 0.02529 0.96734 0.50766 0.0
C129 C 0.93872 0.06653 0.48981 0.0
N130 N 0.96708 0.06526 0.50439 0.0
C131 C 0.97498 0.11008 0.4706 0.0
C132 C 0.9276 0.08927 0.46387 0.0
C133 C 0.9851 0.08695 0.49597 0.0
C134 C 0.94619 0.11108 0.45416 0.0
C135 C 0.89111 0.04617 0.48716 0.0
C136 C 0.9208 0.04515 0.50125 0.0
C137 C 0.88012 0.06817 0.46039 0.0
C138 C 0.89832 0.08968 0.44879 0.0
Eu139 Eu 0.98264 0.02505 0.54632 0.0
N140 N 0.93203 0.02424 0.52733 0.0
C141 C 0.87317 0.02559 0.50115 0.0
C142 C 0.91422 0.0056 0.54275 0.0
C143 C 0.8847 0.00554 0.52948 0.0
H144 H 0.00739 0.08612 0.50853 0.0
H145 H 0.87082 0.99033 0.54149 0.0
H146 H 0.98521 0.90746 0.51518 0.0
H147 H 0.14001 0.97695 0.55575 0.0
H148 H 0.92254 0.99112 0.56577 0.0
H149 H 0.85024 0.0257 0.49111 0.0
H150 H 0.09286 0.99053 0.51839 0.0
H151 H 0.98941 0.12703 0.46361 0.0
H152 H 0.85743 0.06913 0.44904 0.0
H153 H 0.88942 0.10681 0.42856 0.0
H154 H 0.9859 0.86176 0.55424 0.0
H155 H 0.93845 0.12894 0.43436 0.0
H156 H 0.14438 0.93318 0.59918 0.0
N157 N 0.02513 0.92109 0.54056 0.0
C158 C 0.04956 0.91288 0.56347 0.0
C159 C 0.00376 0.87615 0.55753 0.0
C160 C 0.05144 0.88645 0.58558 0.0
C161 C 0.00313 0.90242 0.5359 0.0
C162 C 0.02779 0.86837 0.58296 0.0
N163 N 0.07116 0.95509 0.54109 0.0
C164 C 0.09481 0.97135 0.53722 0.0
C165 C 0.09973 0.92165 0.58527 0.0
C166 C 0.07346 0.93015 0.56332 0.0
C167 C 0.12379 0.93897 0.58278 0.0
C168 C 0.12142 0.96371 0.55829 0.0
H169 H 0.02835 0.84788 0.59947 0.0
H170 H 0.07885 0.8584 0.62615 0.0
H171 H 0.12113 0.8893 0.62592 0.0
O172 O 0.04258 0.97896 0.46053 0.0
O173 O 0.04333 0.98166 0.55804 0.0
O174 O 0.00281 0.98533 0.58092 0.0
O175 O 0.03419 0.93482 0.47787 0.0
O176 O 0.03906 0.01355 0.49659 0.0
O177 O 0.02899 0.03605 0.54067 0.0
O178 O 0.95915 0.0417 0.58168 0.0
O179 O 0.98487 0.03002 0.48979 0.0
O180 O 0.98137 0.98422 0.47953 0.0
O181 O 0.0044 0.05054 0.58324 0.0
O182 O 0.97069 0.97817 0.55848 0.0
O183 O 0.97806 0.95831 0.51184 0.0
C184 C 0.03027 0.9786 0.58448 0.0
C185 C 0.02736 0.95036 0.4187 0.0
C186 C 0.03093 0.94343 0.36098 0.0
C187 C 1.00058 0.94501 0.35251 0.0
C188 C 0.99713 0.95176 0.40985 0.0
C189 C 0.98385 0.94924 0.37683 0.0
C190 C 0.04418 0.94632 0.39424 0.0
C191 C 0.04358 0.03365 0.51599 0.0
C192 C 0.04149 0.95315 0.45334 0.0
C193 C 0.07714 0.87848 0.60869 0.0
C194 C 0.10125 0.89603 0.60851 0.0
C195 C 0.97543 0.01154 0.4698 0.0
C196 C 0.97546 0.0845 0.60055 0.0
C197 C 0.95699 0.11636 0.63441 0.0
C198 C 0.96398 0.13997 0.61152 0.0
C199 C 0.98265 0.10836 0.57841 0.0
C200 C 0.96273 0.0886 0.62851 0.0
C201 C 0.97678 0.13593 0.58382 0.0
C202 C 0.96458 0.95926 0.53778 0.0
C203 C 0.98114 0.05517 0.59528 0.0
H204 H 0.98981 0.94329 0.32699 0.0
H205 H 0.98388 0.95464 0.42852 0.0
H206 H 0.96052 0.95054 0.37007 0.0
H207 H 0.06754 0.94498 0.40128 0.0
H208 H 0.95941 0.16161 0.61487 0.0
H209 H 0.99294 0.10574 0.55712 0.0
H210 H 0.95785 0.07009 0.646 0.0
H211 H 0.98222 0.15425 0.56651 0.0
Eu212 Eu 0.46007 0.48624 0.99216 0.0
C213 C 0.58989 0.52456 0.04034 0.0
N214 N 0.57656 0.50004 0.05085 0.0
C215 C 0.61892 0.47236 0.04999 0.0
C216 C 0.61837 0.52377 0.03365 0.0
C217 C 0.59068 0.47421 0.05627 0.0
C218 C 0.6328 0.49724 0.03851 0.0
C219 C 0.58776 0.57616 0.02351 0.0
C220 C 0.57464 0.55046 0.03516 0.0
C221 C 0.61615 0.57544 0.01697 0.0
C222 C 0.63139 0.54933 0.02199 0.0
Eu223 Eu 0.52887 0.50511 0.06035 0.0
N224 N 0.54679 0.55044 0.04063 0.0
C225 C 0.57193 0.60186 0.01868 0.0
C226 C 0.53173 0.5756 0.03723 0.0
C227 C 0.54391 0.60157 0.02587 0.0
H228 H 0.58036 0.4551 0.0662 0.0
H229 H 0.53173 0.6214 0.02293 0.0
H230 H 0.40388 0.52231 0.00692 0.0
H231 H 0.47831 0.37014 0.00578 0.0
H232 H 0.51057 0.57604 0.0438 0.0
H233 H 0.58125 0.62204 0.00981 0.0
H234 H 0.48565 0.42045 0.9842 0.0
H235 H 0.63 0.45179 0.0542 0.0
H236 H 0.6265 0.59497 0.00792 0.0
H237 H 0.65323 0.54913 0.01666 0.0
H238 H 0.3594 0.51232 0.03166 0.0
H239 H 0.65467 0.49575 0.0336 0.0
H240 H 0.43888 0.35678 0.03825 0.0
N241 N 0.41737 0.47867 0.01532 0.0
C242 C 0.41127 0.45103 0.02647 0.0
C243 C 0.37385 0.49493 0.03045 0.0
C244 C 0.38638 0.4444 0.04111 0.0
C245 C 0.39895 0.50055 0.0165 0.0
C246 C 0.36761 0.46677 0.043 0.0
N247 N 0.454 0.43643 0.00899 0.0
C248 C 0.46988 0.41541 1.00057 0.0
C249 C 0.42446 0.4006 0.03527 0.0
C250 C 0.4304 0.42944 0.02389 0.0
C251 C 0.4427 0.37916 0.02991 0.0
C252 C 0.46511 0.3866 0.01181 0.0
H253 H 0.34826 0.46252 0.05404 0.0
H254 H 0.36219 0.41033 0.06512 0.0
H255 H 0.39537 0.37198 0.05977 0.0
O256 O 0.45085 0.47129 0.94238 0.0
O257 O 0.45592 0.48327 0.04817 0.0
O258 O 0.50122 0.46707 0.07183 0.0
O259 O 0.424 0.5048 0.95359 0.0
O260 O 0.50414 0.46643 0.99126 0.0
O261 O 0.5245 0.46023 0.04794 0.0
O262 O 0.52816 0.52296 0.10755 0.0
O263 O 0.53376 0.51494 0.00467 0.0
O264 O 0.48742 0.52336 0.97414 0.0
O265 O 0.5594 0.48913 0.10623 0.0
O266 O 0.48688 0.53058 0.05638 0.0
O267 O 0.46207 0.53206 1.00121 0.0
C268 C 0.47415 0.47028 0.07434 0.0
C269 C 0.41062 0.49146 0.89763 0.0
C270 C 0.39819 0.47659 0.84181 0.0
C271 C 0.37676 0.49838 0.83234 0.0
C272 C 0.38895 0.51299 0.88755 0.0
C273 C 0.37216 0.51635 0.85513 0.0
C274 C 0.41502 0.47311 0.87468 0.0
C275 C 0.52342 0.45414 0.01714 0.0
C276 C 0.42887 0.489 0.93165 0.0
C277 C 0.38107 0.41582 0.05353 0.0
C278 C 0.40006 0.39399 0.05063 0.0
C279 C 0.51565 0.52527 0.97679 0.0
C280 C 0.56181 0.50521 0.16039 0.0
C281 C 0.57323 0.52838 0.21052 0.0
C282 C 0.58882 0.50373 0.22817 0.0
C283 C 0.5773 0.48063 0.17861 0.0
C284 C 0.55931 0.52896 0.17671 0.0
C285 C 0.59056 0.47989 0.21236 0.0
C286 C 0.46691 0.5417 0.03042 0.0
C287 C 0.54956 0.50609 0.12414 0.0
H288 H 0.36329 0.5013 0.80737 0.0
H289 H 0.38507 0.52743 0.90464 0.0
H290 H 0.35554 0.53301 0.84762 0.0
H291 H 0.43176 0.45652 0.88209 0.0
H292 H 0.59945 0.50288 0.25435 0.0
H293 H 0.57931 0.46199 0.16669 0.0
H294 H 0.54749 0.54808 0.16294 0.0
H295 H 0.60246 0.46089 0.22621 0.0
H296 H 0.27971 0.16628 0.51749 0.0
H297 H 0.23657 0.1379 0.52127 0.0
H298 H 0.18594 0.2019 0.44672 0.0
H299 H 0.22926 0.23057 0.44277 0.0
H300 H 0.15652 0.18201 0.49738 0.0
H301 H 0.20719 0.14155 0.42304 0.0
H302 H 0.24919 0.12166 0.40461 0.0
H303 H 0.25674 0.05258 0.48884 0.0
H304 H 0.21502 0.0723 0.50808 0.0
H305 H 0.06933 0.04502 0.45966 0.0
H306 H 0.10742 0.07898 0.44972 0.0
H307 H 0.10864 0.10244 0.54886 0.0
H308 H 0.06985 0.06923 0.55849 0.0
H309 H 0.16024 0.08109 0.47905 0.0
H310 H 0.12899 0.17067 0.54981 0.0
H311 H 0.08487 0.19082 0.56344 0.0
H312 H 0.03419 0.16369 0.47565 0.0
H313 H 0.07805 0.14382 0.46116 0.0
C314 C 0.25945 0.17428 0.50171 0.0
C315 C 0.25802 0.20052 0.47946 0.0
C316 C 0.23477 0.15806 0.50399 0.0
C317 C 0.20809 0.16753 0.48388 0.0
C318 C 0.20632 0.19414 0.46242 0.0
C319 C 0.23107 0.2105 0.4602 0.0
C320 C 0.18239 0.14916 0.48481 0.0
C321 C 0.15727 0.15997 0.49329 0.0
C322 C 0.18309 0.12058 0.4787 0.0
C323 C 0.20812 0.10854 0.46715 0.0
C324 C 0.21793 0.12223 0.43777 0.0
C325 C 0.24167 0.11097 0.42716 0.0
C326 C 0.25566 0.0859 0.44559 0.0
C327 C 0.24589 0.07201 0.47462 0.0
C328 C 0.22218 0.08321 0.48537 0.0
C329 C 0.07759 0.05751 0.47931 0.0
C330 C 0.06647 0.05447 0.50984 0.0
C331 C 0.09943 0.0769 0.4736 0.0
C332 C 0.11076 0.09356 0.49835 0.0
C333 C 0.09986 0.09034 0.52902 0.0
C334 C 0.07774 0.07122 0.53457 0.0
C335 C 0.13451 0.11366 0.49243 0.0
C336 C 0.15934 0.10316 0.483 0.0
C337 C 0.13318 0.14268 0.49682 0.0
C338 C 0.10681 0.15555 0.50458 0.0
C339 C 0.10847 0.1692 0.53327 0.0
C340 C 0.08349 0.18054 0.54117 0.0
C341 C 0.05673 0.17846 0.52048 0.0
C342 C 0.05491 0.16521 0.49171 0.0
C343 C 0.07983 0.15391 0.48364 0.0
H344 H 0.03741 0.18715 0.52672 0.0
H345 H 0.27404 0.07721 0.43733 0.0
H346 H 0.29849 0.75936 0.9877 0.0
H347 H 0.32616 0.71514 0.99136 0.0
H348 H 0.36287 0.71972 0.09578 0.0
H349 H 0.33578 0.76453 0.09199 0.0
H350 H 0.40391 0.70784 0.06033 0.0
H351 H 0.31173 0.67112 0.07736 0.0
H352 H 0.25877 0.66683 0.06493 0.0
H353 H 0.26489 0.64158 0.96891 0.0
H354 H 0.31787 0.64611 0.98053 0.0
H355 H 0.46798 0.56763 0.08673 0.0
H356 H 0.43882 0.60883 0.09189 0.0
H357 H 0.39721 0.61367 0.98725 0.0
H358 H 0.42607 0.57257 0.98181 0.0
H359 H 0.35833 0.61913 0.0284 0.0
H360 H 0.44906 0.66085 0.0084 0.0
H361 H 0.50198 0.66576 0.01955 0.0
H362 H 0.49835 0.68115 0.12065 0.0
H363 H 0.44532 0.67635 0.11005 0.0
C364 C 0.31249 0.751 0.01144 0.0
C365 C 0.31496 0.7655 0.03954 0.0
C366 C 0.3281 0.72557 0.0136 0.0
C367 C 0.34638 0.71395 0.04396 0.0
C368 C 0.3488 0.72824 0.07215 0.0
C369 C 0.33313 0.75371 0.07002 0.0
C370 C 0.36365 0.6874 0.04572 0.0
C371 C 0.39389 0.68828 0.05399 0.0
C372 C 0.35065 0.66203 0.03677 0.0
C373 C 0.31878 0.65919 0.02972 0.0
C374 C 0.30177 0.66487 0.05348 0.0
C375 C 0.27175 0.66235 0.04659 0.0
C376 C 0.25847 0.654 0.01612 0.0
C377 C 0.2752 0.64807 0.99249 0.0
C378 C 0.30524 0.65058 0.99924 0.0
C379 C 0.45267 0.57747 0.06477 0.0
C380 C 0.44947 0.56678 0.03382 0.0
C381 C 0.43605 0.60106 0.06777 0.0
C382 C 0.41597 0.61444 0.03988 0.0
C383 C 0.41254 0.60365 0.00911 0.0
C384 C 0.42917 0.58017 0.00604 0.0
C385 C 0.39853 0.63976 0.04253 0.0
C386 C 0.36827 0.63863 0.0351 0.0
C387 C 0.41149 0.6649 0.05217 0.0
C388 C 0.4433 0.66795 0.05856 0.0
C389 C 0.45958 0.6651 0.03308 0.0
C390 C 0.48958 0.66789 0.03928 0.0
C391 C 0.50356 0.67357 0.07087 0.0
C392 C 0.48751 0.67668 0.09623 0.0
C393 C 0.45747 0.67401 0.09011 0.0
H394 H 0.5268 0.67568 0.07564 0.0
H395 H 0.23522 0.65206 0.01084 0.0
H396 H 0.81174 0.73772 0.58692 0.0
H397 H 0.84535 0.77659 0.57855 0.0
H398 H 0.77825 0.83797 0.58008 0.0
H399 H 0.74434 0.79902 0.58846 0.0
H400 H 0.80799 0.85649 0.5305 0.0
H401 H 0.83147 0.81984 0.64912 0.0
H402 H 0.84392 0.78296 0.70011 0.0
H403 H 0.92204 0.76169 0.66684 0.0
H404 H 0.90984 0.79819 0.61538 0.0
H405 H 0.94399 0.94247 0.59702 0.0
H406 H 0.90602 0.90834 0.60705 0.0
H407 H 0.8971 0.893 0.50334 0.0
H408 H 0.93393 0.92829 0.49267 0.0
H409 H 0.9028 0.85436 0.60727 0.0
H410 H 0.83044 0.87385 0.47414 0.0
H411 H 0.81595 0.91335 0.42638 0.0
H412 H 0.83145 0.97423 0.49512 0.0
H413 H 0.8461 0.93514 0.5433 0.0
C414 C 0.80417 0.75946 0.58585 0.0
C415 C 0.77541 0.76523 0.58873 0.0
C416 C 0.82342 0.78168 0.58097 0.0
C417 C 0.81447 0.8102 0.57917 0.0
C418 C 0.78565 0.81613 0.58143 0.0
C419 C 0.76629 0.79386 0.58619 0.0
C420 C 0.83532 0.83369 0.57495 0.0
C421 C 0.82869 0.85608 0.54733 0.0
C422 C 0.86212 0.8335 0.59726 0.0
C423 C 0.86961 0.81159 0.62825 0.0
C424 C 0.8512 0.80716 0.65255 0.0
C425 C 0.85823 0.78634 0.68156 0.0
C426 C 0.88372 0.76995 0.68668 0.0
C427 C 0.90228 0.77439 0.66283 0.0
C428 C 0.89534 0.79515 0.63375 0.0
C429 C 0.93367 0.9321 0.57622 0.0
C430 C 0.94186 0.93822 0.54399 0.0
C431 C 0.91208 0.91244 0.58205 0.0
C432 C 0.89834 0.8983 0.55587 0.0
C433 C 0.90685 0.90405 0.52379 0.0
C434 C 0.92816 0.92402 0.51781 0.0
C435 C 0.87574 0.87698 0.56244 0.0
C436 C 0.88206 0.85491 0.59048 0.0
C437 C 0.8484 0.87787 0.54098 0.0
C438 C 0.83956 0.90156 0.51225 0.0
C439 C 0.83071 0.89567 0.47906 0.0
C440 C 0.82257 0.91799 0.45192 0.0
C441 C 0.82296 0.9463 0.45771 0.0
C442 C 0.83143 0.95233 0.49066 0.0
C443 C 0.83972 0.9301 0.51788 0.0
H444 H 0.81661 0.96355 0.43668 0.0
H445 H 0.88913 0.75384 0.70915 0.0
H446 H 0.71712 0.28066 0.95974 0.0
H447 H 0.67454 0.3121 0.95286 0.0
H448 H 0.67462 0.29308 0.06095 0.0
H449 H 0.7167 0.26115 0.06789 0.0
H450 H 0.62002 0.29441 0.02451 0.0
H451 H 0.70468 0.35332 0.02609 0.0
H452 H 0.74875 0.37225 0.00588 0.0
H453 H 0.69906 0.40326 0.90727 0.0
H454 H 0.65473 0.38412 0.92677 0.0
H455 H 0.54828 0.41019 0.06508 0.0
H456 H 0.58186 0.3733 0.05848 0.0
H457 H 0.57437 0.40762 0.95163 0.0
H458 H 0.54126 0.4454 0.95844 0.0
H459 H 0.62918 0.39716 0.97922 0.0
H460 H 0.5438 0.34235 0.9782 0.0
H461 H 0.4994 0.32352 0.99767 0.0
H462 H 0.54919 0.28546 0.09361 0.0
H463 H 0.59394 0.304 0.0747 0.0
C464 C 0.70776 0.28279 0.98195 0.0
C465 C 0.72042 0.26856 0.01441 0.0
C466 C 0.68357 0.30094 0.97801 0.0
C467 C 0.67163 0.30523 0.00646 0.0
C468 C 0.68353 0.29018 0.03866 0.0
C469 C 0.70772 0.27211 0.04263 0.0
C470 C 0.64754 0.32624 0.00315 0.0
C471 C 0.62204 0.3169 0.01476 0.0
C472 C 0.64983 0.35545 0.98944 0.0
C473 C 0.67647 0.36695 0.97775 0.0
C474 C 0.7032 0.36394 1.0 0.0
C475 C 0.72822 0.37475 0.98869 0.0
C476 C 0.72673 0.38885 0.95527 0.0
C477 C 0.70019 0.39226 0.93312 0.0
C478 C 0.67512 0.38143 0.94428 0.0
C479 C 0.55372 0.40988 0.04014 0.0
C480 C 0.54235 0.43081 0.01233 0.0
C481 C 0.57271 0.38857 0.03631 0.0
C482 C 0.58036 0.38737 0.00444 0.0
C483 C 0.56868 0.40803 0.97643 0.0
C484 C 0.5497 0.4295 0.9803 0.0
C485 C 0.60179 0.36544 1.00116 0.0
C486 C 0.62685 0.3746 0.98839 0.0
C487 C 0.59903 0.33604 0.01362 0.0
C488 C 0.5722 0.32472 0.02509 0.0
C489 C 0.54527 0.33009 0.00352 0.0
C490 C 0.52004 0.31943 0.01444 0.0
C491 C 0.52145 0.30344 0.04692 0.0
C492 C 0.54813 0.29788 0.06847 0.0
C493 C 0.57345 0.30835 0.05761 0.0
H494 H 0.50188 0.29529 0.05535 0.0
H495 H 0.74612 0.39722 0.94657 0.0
H496 H 0.20977 0.93188 0.15288 0.0
H497 H 0.18136 0.9407 0.19564 0.0
H498 H 0.12624 0.87084 0.1727 0.0
H499 H 0.15485 0.86152 0.13021 0.0
H500 H 0.09527 0.91882 0.1762 0.0
H501 H 0.17606 0.86284 0.24425 0.0
H502 H 0.22772 0.85094 0.26536 0.0
H503 H 0.23895 0.93101 0.30235 0.0
H504 H 0.18741 0.94358 0.28103 0.0
H505 H 0.02215 0.90487 0.31698 0.0
H506 H 0.05148 0.89665 0.2748 0.0
H507 H 0.10906 0.96291 0.30444 0.0
H508 H 0.07988 0.97103 0.34698 0.0
H509 H 0.13914 0.91772 0.29724 0.0
H510 H 0.05927 0.97416 0.23028 0.0
H511 H 0.00793 0.98734 0.20888 0.0
H512 H 0.99526 0.90859 0.16909 0.0
H513 H 0.04646 0.89472 0.19071 0.0
C514 C 0.19187 0.91809 0.15723 0.0
C515 C 0.18469 0.89589 0.13815 0.0
C516 C 0.17558 0.92325 0.18161 0.0
C517 C 0.15181 0.90629 0.18754 0.0
C518 C 0.14446 0.88423 0.16847 0.0
C519 C 0.16079 0.87899 0.14412 0.0
C520 C 0.13439 0.91181 0.21332 0.0
C521 C 0.10476 0.9182 0.20277 0.0
C522 C 0.14697 0.91185 0.24776 0.0
C523 C 0.17794 0.90426 0.26074 0.0
C524 C 0.18959 0.87801 0.25665 0.0
C525 C 0.21885 0.87112 0.26869 0.0
C526 C 0.23662 0.89024 0.2851 0.0
C527 C 0.22516 0.91625 0.28959 0.0
C528 C 0.19592 0.92325 0.27756 0.0
C529 C 0.04093 0.91784 0.31431 0.0
C530 C 0.04868 0.93865 0.33521 0.0
C531 C 0.05768 0.91313 0.29019 0.0
C532 C 0.08229 0.92941 0.28612 0.0
C533 C 0.09019 0.95008 0.30714 0.0
C534 C 0.07354 0.95467 0.33145 0.0
C535 C 0.09992 0.92461 0.26019 0.0
C536 C 0.12961 0.91838 0.27068 0.0
C537 C 0.08743 0.92494 0.22562 0.0
C538 C 0.05665 0.93328 0.2124 0.0
C539 C 0.04549 0.95955 0.21719 0.0
C540 C 0.01642 0.96716 0.20499 0.0
C541 C 0.99832 0.94878 0.18771 0.0
C542 C 0.00929 0.92278 0.18252 0.0
C543 C 0.03834 0.91505 0.19472 0.0
H544 H 0.97582 0.95471 0.17828 0.0
H545 H 0.25926 0.88487 0.29441 0.0
H546 H 0.58493 0.64253 0.68937 0.0
H547 H 0.56205 0.62373 0.73833 0.0
H548 H 0.64586 0.61205 0.80262 0.0
H549 H 0.66885 0.63059 0.75382 0.0
H550 H 0.61189 0.56399 0.8096 0.0
H551 H 0.60276 0.66543 0.80892 0.0
H552 H 0.58823 0.71518 0.78335 0.0
H553 H 0.49946 0.69093 0.76389 0.0
H554 H 0.51352 0.64093 0.78893 0.0
H555 H 0.57259 0.53105 0.97034 0.0
H556 H 0.59246 0.5546 0.92172 0.0
H557 H 0.50623 0.57434 0.86567 0.0
H558 H 0.48606 0.55228 0.91534 0.0
H559 H 0.53972 0.61805 0.85274 0.0
H560 H 0.54725 0.51746 0.85328 0.0
H561 H 0.56037 0.4674 0.87884 0.0
H562 H 0.65007 0.48873 0.89648 0.0
H563 H 0.63744 0.53905 0.87153 0.0
C564 C 0.59844 0.63608 0.71399 0.0
C565 C 0.62869 0.63813 0.71777 0.0
C566 C 0.58535 0.62547 0.74195 0.0
C567 C 0.60226 0.61657 0.77413 0.0
C568 C 0.63242 0.61883 0.77802 0.0
C569 C 0.64549 0.62966 0.75018 0.0
C570 C 0.58867 0.60408 0.80358 0.0
C571 C 0.59637 0.57591 0.81931 0.0
C572 C 0.56771 0.61932 0.81549 0.0
C573 C 0.55924 0.64938 0.80047 0.0
C574 C 0.58017 0.67065 0.79891 0.0
C575 C 0.57202 0.69891 0.78457 0.0
C576 C 0.54295 0.70619 0.77191 0.0
C577 C 0.52197 0.68525 0.77366 0.0
C578 C 0.53002 0.65695 0.78794 0.0
C579 C 0.55775 0.54091 0.9481 0.0
C580 C 0.52768 0.53999 0.9471 0.0
C581 C 0.5692 0.55406 0.91999 0.0
C582 C 0.55087 0.56581 0.88973 0.0
C583 C 0.52082 0.56536 0.8887 0.0
C584 C 0.50933 0.5526 0.91711 0.0
C585 C 0.56316 0.57801 0.85907 0.0
C586 C 0.55516 0.60606 0.84301 0.0
C587 C 0.5836 0.56252 0.84655 0.0
C588 C 0.59137 0.5321 0.86076 0.0
C589 C 0.56976 0.51151 0.86274 0.0
C590 C 0.57711 0.48308 0.87713 0.0
C591 C 0.60603 0.4749 0.88934 0.0
C592 C 0.62767 0.49511 0.88704 0.0
C593 C 0.62044 0.52359 0.87275 0.0
H594 H 0.61167 0.4529 0.90054 0.0
H595 H 0.53668 0.72808 0.76083 0.0
H596 H 0.89194 0.0889 0.14431 0.0
H597 H 0.90922 0.06175 0.20108 0.0
H598 H 0.8605 0.11858 0.245 0.0
H599 H 0.84305 0.14559 0.18846 0.0
H600 H 0.942 0.07768 0.25336 0.0
H601 H 0.84052 0.08489 0.31715 0.0
H602 H 0.7874 0.08496 0.30136 0.0
H603 H 0.79479 0.04032 0.21864 0.0
H604 H 0.84793 0.03961 0.2342 0.0
H605 H 0.98082 0.06324 0.43101 0.0
H606 H 0.95809 0.07963 0.37197 0.0
H607 H 0.91578 0.9988 0.36924 0.0
H608 H 0.93783 0.98263 0.42883 0.0
H609 H 0.87941 0.04385 0.33832 0.0
H610 H 0.97349 0.01006 0.33327 0.0
H611 H 0.02661 0.00578 0.34879 0.0
H612 H 0.03373 0.09511 0.31143 0.0
H613 H 0.98062 0.10012 0.29628 0.0
C614 C 0.88476 0.09547 0.16607 0.0
C615 C 0.86606 0.11937 0.16186 0.0
C616 C 0.89463 0.07992 0.19849 0.0
C617 C 0.886 0.08794 0.22735 0.0
C618 C 0.86701 0.11156 0.22312 0.0
C619 C 0.85702 0.127 0.19073 0.0
C620 C 0.89808 0.07272 0.26205 0.0
C621 C 0.92826 0.07016 0.27183 0.0
C622 C 0.88022 0.06233 0.28607 0.0
C623 C 0.84824 0.06244 0.27669 0.0
C624 C 0.83082 0.07498 0.29568 0.0
C625 C 0.8007 0.07515 0.28675 0.0
C626 C 0.78774 0.06273 0.25896 0.0
C627 C 0.80486 0.05003 0.24009 0.0
C628 C 0.83499 0.04978 0.24892 0.0
C629 C 0.96633 0.04914 0.41801 0.0
C630 C 0.96107 0.02169 0.43447 0.0
C631 C 0.95358 0.05841 0.38418 0.0
C632 C 0.93551 0.0403 0.3661 0.0
C633 C 0.9297 0.01308 0.38271 0.0
C634 C 0.94246 0.00381 0.41661 0.0
C635 C 0.92317 0.04975 0.32968 0.0
C636 C 0.89303 0.0512 0.31967 0.0
C637 C 0.94103 0.05851 0.30521 0.0
C638 C 0.97303 0.05551 0.31385 0.0
C639 C 0.98636 0.02884 0.32857 0.0
C640 C 0.01646 0.02626 0.33727 0.0
C641 C 0.03351 0.05013 0.33111 0.0
C642 C 0.02049 0.07664 0.31618 0.0
C643 C 0.99038 0.07936 0.30751 0.0
H644 H 0.05681 0.04808 0.33788 0.0
H645 H 0.76442 0.06289 0.25208 0.0
H646 H 0.38181 0.29003 0.6378 0.0
H647 H 0.38939 0.31506 0.68681 0.0
H648 H 0.39832 0.39446 0.62066 0.0
H649 H 0.39215 0.36935 0.5717 0.0
H650 H 0.43773 0.39025 0.67683 0.0
H651 H 0.33503 0.37743 0.65151 0.0
H652 H 0.29046 0.35004 0.64137 0.0
H653 H 0.31205 0.30093 0.74165 0.0
H654 H 0.35696 0.32779 0.75222 0.0
H655 H 0.40312 0.4923 0.77518 0.0
H656 H 0.40543 0.46117 0.73292 0.0
H657 H 0.40507 0.38694 0.8102 0.0
H658 H 0.40258 0.41814 0.85271 0.0
H659 H 0.36435 0.38498 0.75243 0.0
H660 H 0.46528 0.40211 0.77908 0.0
H661 H 0.5087 0.4312 0.78854 0.0
H662 H 0.48943 0.474 0.68496 0.0
H663 H 0.44563 0.44547 0.67499 0.0
C664 C 0.38574 0.31275 0.63367 0.0
C665 C 0.38625 0.32767 0.6007 0.0
C666 C 0.38978 0.3271 0.66172 0.0
C667 C 0.39407 0.35672 0.6574 0.0
C668 C 0.39497 0.37161 0.62463 0.0
C669 C 0.3911 0.35726 0.59658 0.0
C670 C 0.39723 0.37234 0.68689 0.0
C671 C 0.42156 0.3893 0.69317 0.0
C672 C 0.37651 0.37053 0.70879 0.0
C673 C 0.3495 0.3544 0.70251 0.0
C674 C 0.33038 0.36063 0.6713 0.0
C675 C 0.30504 0.34523 0.66549 0.0
C676 C 0.29847 0.3237 0.69081 0.0
C677 C 0.31719 0.31758 0.72203 0.0
C678 C 0.34258 0.33289 0.72796 0.0
C679 C 0.40376 0.46934 0.78321 0.0
C680 C 0.40255 0.45761 0.81718 0.0
C681 C 0.40528 0.45159 0.75911 0.0
C682 C 0.40556 0.42174 0.76846 0.0
C683 C 0.40495 0.40992 0.80251 0.0
C684 C 0.4037 0.42772 0.82677 0.0
C685 C 0.40465 0.40314 0.74208 0.0
C686 C 0.3807 0.38566 0.73633 0.0
C687 C 0.4256 0.40466 0.72054 0.0
C688 C 0.45202 0.42178 0.72638 0.0
C689 C 0.47016 0.41788 0.75839 0.0
C690 C 0.49487 0.43424 0.76383 0.0
C691 C 0.50178 0.45447 0.73739 0.0
C692 C 0.48403 0.45833 0.70542 0.0
C693 C 0.45928 0.44204 0.69985 0.0
H694 H 0.52092 0.46712 0.74165 0.0
H695 H 0.27884 0.3118 0.68627 0.0
H696 H 0.6681 0.66311 0.43385 0.0
H697 H 0.64418 0.65146 0.37949 0.0
H698 H 0.5662 0.63233 0.42097 0.0
H699 H 0.59054 0.64293 0.47613 0.0
H700 H 0.57857 0.59079 0.39032 0.0
H701 H 0.56886 0.69065 0.35742 0.0
H702 H 0.58277 0.7412 0.35125 0.0
H703 H 0.64508 0.72428 0.29013 0.0
H704 H 0.63188 0.67351 0.29635 0.0
H705 H 0.52638 0.5509 0.22951 0.0
H706 H 0.52743 0.58443 0.27028 0.0
H707 H 0.61892 0.59481 0.27171 0.0
H708 H 0.61801 0.56083 0.23184 0.0
H709 H 0.58645 0.64666 0.2774 0.0
H710 H 0.60197 0.54436 0.32495 0.0
H711 H 0.58533 0.4947 0.32782 0.0
H712 H 0.50767 0.51886 0.35999 0.0
H713 H 0.52362 0.56884 0.35657 0.0
C714 C 0.6458 0.65658 0.4314 0.0
C715 C 0.63133 0.65369 0.45944 0.0
C716 C 0.63198 0.65028 0.40011 0.0
C717 C 0.60322 0.64129 0.39591 0.0
C718 C 0.58834 0.63934 0.42352 0.0
C719 C 0.60222 0.6456 0.45497 0.0
C720 C 0.59003 0.63135 0.36374 0.0
C721 C 0.57954 0.60341 0.36565 0.0
C722 C 0.59132 0.64763 0.33138 0.0
C723 C 0.59945 0.67818 0.32751 0.0
C724 C 0.58568 0.69764 0.34287 0.0
C725 C 0.59342 0.72635 0.33932 0.0
C726 C 0.61482 0.73594 0.32034 0.0
C727 C 0.6285 0.71682 0.30482 0.0
C728 C 0.62086 0.68807 0.3083 0.0
C729 C 0.54645 0.56106 0.23784 0.0
C730 C 0.57217 0.55328 0.22798 0.0
C731 C 0.54704 0.58019 0.26098 0.0
C732 C 0.57329 0.59196 0.27403 0.0
C733 C 0.59845 0.58609 0.26175 0.0
C734 C 0.59795 0.56663 0.23917 0.0
C735 C 0.57597 0.60616 0.30443 0.0
C736 C 0.58464 0.63464 0.30214 0.0
C737 C 0.57269 0.59059 0.33643 0.0
C738 C 0.56383 0.56033 0.3402 0.0
C739 C 0.5813 0.53908 0.33253 0.0
C740 C 0.57199 0.5109 0.3342 0.0
C741 C 0.54542 0.50364 0.344 0.0
C742 C 0.52821 0.52453 0.35234 0.0
C743 C 0.53737 0.55278 0.35053 0.0
H744 H 0.5382 0.48183 0.34518 0.0
H745 H 0.62077 0.75818 0.31762 0.0
H746 H 0.89177 0.20157 0.89439 0.0
H747 H 0.90562 0.18889 0.84313 0.0
H748 H 0.84727 0.11832 0.84668 0.0
H749 H 0.83305 0.13106 0.8982 0.0
H750 H 0.89916 0.10308 0.83196 0.0
H751 H 0.82853 0.17762 0.78962 0.0
H752 H 0.80486 0.22464 0.78575 0.0
H753 H 0.88059 0.26661 0.75803 0.0
H754 H 0.9049 0.21982 0.76223 0.0
H755 H 0.9144 0.08565 0.66194 0.0
H756 H 0.89382 0.09302 0.71172 0.0
H757 H 0.94952 0.16451 0.72452 0.0
H758 H 0.97065 0.15695 0.67541 0.0
H759 H 0.89328 0.17681 0.72865 0.0
H760 H 0.9647 0.10133 0.77541 0.0
H761 H 0.98765 0.05396 0.77913 0.0
H762 H 0.90867 0.01328 0.79756 0.0
H763 H 0.88512 0.06047 0.79346 0.0
C764 C 0.88159 0.18353 0.88412 0.0
C765 C 0.86099 0.16757 0.90017 0.0
C766 C 0.88961 0.17625 0.85483 0.0
C767 C 0.87714 0.15294 0.84073 0.0
C768 C 0.85709 0.13646 0.85707 0.0
C769 C 0.84903 0.14374 0.88652 0.0
C770 C 0.88524 0.14608 0.8089 0.0
C771 C 0.89738 0.11901 0.80915 0.0
C772 C 0.8832 0.16696 0.77924 0.0
C773 C 0.86862 0.19519 0.77649 0.0
C774 C 0.84023 0.19687 0.78294 0.0
C775 C 0.82668 0.22349 0.78066 0.0
C776 C 0.84123 0.2486 0.77172 0.0
C777 C 0.86935 0.24714 0.76497 0.0
C778 C 0.88301 0.22057 0.76726 0.0
C779 C 0.92252 0.10275 0.67555 0.0
C780 C 0.9442 0.12073 0.66457 0.0
C781 C 0.91064 0.10698 0.70393 0.0
C782 C 0.92022 0.12925 0.72188 0.0
C783 C 0.9417 0.14728 0.71092 0.0
C784 C 0.95367 0.143 0.68271 0.0
C785 C 0.90783 0.13408 0.752 0.0
C786 C 0.89478 0.16078 0.75135 0.0
C787 C 0.90888 0.11279 0.78114 0.0
C788 C 0.92305 0.08444 0.78373 0.0
C789 C 0.95215 0.0823 0.77996 0.0
C790 C 0.96528 0.05548 0.78219 0.0
C791 C 0.9496 0.03063 0.78847 0.0
C792 C 0.92078 0.03255 0.79263 0.0
C793 C 0.90753 0.05932 0.79037 0.0
H794 H 0.95981 0.00989 0.7902 0.0
H795 H 0.83071 0.26919 0.76996 0.0
H796 H 0.34942 0.35671 0.3266 0.0
H797 H 0.36248 0.38402 0.27467 0.0
H798 H 0.4514 0.35572 0.30888 0.0
H799 H 0.43855 0.32889 0.36084 0.0
H800 H 0.44962 0.41017 0.28467 0.0
H801 H 0.40475 0.32709 0.246 0.0
H802 H 0.36583 0.29259 0.23693 0.0
H803 H 0.30899 0.36001 0.17819 0.0
H804 H 0.34748 0.39501 0.18731 0.0
H805 H 0.50484 0.43625 0.12985 0.0
H806 H 0.48795 0.41473 0.18188 0.0
H807 H 0.40386 0.4546 0.14337 0.0
H808 H 0.42085 0.47678 0.09151 0.0
H809 H 0.40061 0.39759 0.16923 0.0
H810 H 0.44857 0.47985 0.20436 0.0
H811 H 0.48807 0.51347 0.21469 0.0
H812 H 0.54064 0.44621 0.2805 0.0
H813 H 0.50169 0.41197 0.27001 0.0
C814 C 0.37171 0.35624 0.3229 0.0
C815 C 0.39297 0.34074 0.34787 0.0
C816 C 0.37916 0.37182 0.29321 0.0
C817 C 0.40792 0.37178 0.28766 0.0
C818 C 0.4291 0.35625 0.31259 0.0
C819 C 0.42173 0.34094 0.34233 0.0
C820 C 0.41624 0.38801 0.25615 0.0
C821 C 0.43912 0.40715 0.25943 0.0
C822 C 0.40204 0.38472 0.22316 0.0
C823 C 0.37888 0.36372 0.21769 0.0
C824 C 0.38387 0.3346 0.2314 0.0
C825 C 0.36191 0.31495 0.2262 0.0
C826 C 0.33493 0.32412 0.20709 0.0
C827 C 0.32988 0.35295 0.19305 0.0
C828 C 0.35176 0.3727 0.19822 0.0
C829 C 0.48278 0.44058 0.13245 0.0
C830 C 0.46402 0.45789 0.10622 0.0
C831 C 0.47319 0.42832 0.16229 0.0
C832 C 0.44467 0.43314 0.16657 0.0
C833 C 0.42593 0.45052 0.14054 0.0
C834 C 0.43561 0.46303 0.11081 0.0
C835 C 0.43429 0.41933 0.19784 0.0
C836 C 0.41102 0.40069 0.19449 0.0
C837 C 0.44834 0.42287 0.23078 0.0
C838 C 0.47222 0.44325 0.23617 0.0
C839 C 0.46868 0.4721 0.22067 0.0
C840 C 0.49096 0.4913 0.22663 0.0
C841 C 0.51681 0.48198 0.24831 0.0
C842 C 0.52058 0.45338 0.26376 0.0
C843 C 0.49841 0.43407 0.2578 0.0
H844 H 0.53386 0.49691 0.25335 0.0
H845 H 0.31796 0.30887 0.20308 0.0
H846 H 0.14155 0.88968 0.8995 0.0
H847 H 0.11273 0.90148 0.84242 0.0
H848 H 0.18458 0.94675 0.80706 0.0
H849 H 0.21333 0.93533 0.86419 0.0
H850 H 0.13654 0.97676 0.78301 0.0
H851 H 0.16614 0.87913 0.78888 0.0
H852 H 0.17207 0.82789 0.81312 0.0
H853 H 0.07992 0.8203 0.80255 0.0
H854 H 0.07345 0.87162 0.77867 0.0
H855 H 0.08766 0.98581 0.60572 0.0
H856 H 0.11554 0.97159 0.66294 0.0
H857 H 0.0387 0.93777 0.69834 0.0
H858 H 0.01072 0.95163 0.64084 0.0
H859 H 0.0883 0.90175 0.72212 0.0
H860 H 0.05948 1.00009 0.71532 0.0
H861 H 0.05453 0.05093 0.68911 0.0
H862 H 0.14686 0.05662 0.69998 0.0
H863 H 0.15235 0.00565 0.72577 0.0
C864 C 0.15124 0.902 0.87949 0.0
C865 C 0.17972 0.91153 0.88631 0.0
C866 C 0.13477 0.90871 0.84686 0.0
C867 C 0.1466 0.9247 0.82028 0.0
C868 C 0.17496 0.93442 0.82713 0.0
C869 C 0.19135 0.92792 0.8598 0.0
C870 C 0.12937 0.93156 0.78541 0.0
C871 C 0.12632 0.96028 0.76959 0.0
C872 C 0.1155 0.91016 0.76805 0.0
C873 C 0.11933 0.87928 0.78232 0.0
C874 C 0.14715 0.86658 0.79198 0.0
C875 C 0.1506 0.83752 0.80561 0.0
C876 C 0.12639 0.82087 0.80946 0.0
C877 C 0.09866 0.83324 0.7996 0.0
C878 C 0.09508 0.8623 0.78599 0.0
C879 C 0.0768 0.97503 0.62559 0.0
C880 C 0.04709 0.96973 0.6189 0.0
C881 C 0.09269 0.96709 0.65829 0.0
C882 C 0.07911 0.95383 0.68488 0.0
C883 C 0.04954 0.94801 0.67813 0.0
C884 C 0.03358 0.9561 0.64542 0.0
C885 C 0.09566 0.94682 0.71993 0.0
C886 C 0.09854 0.91814 0.7357 0.0
C887 C 0.10953 0.9682 0.73717 0.0
C888 C 0.10631 0.99898 0.7222 0.0
C889 C 0.07873 0.01213 0.71191 0.0
C890 C 0.07582 0.04098 0.69715 0.0
C891 C 0.10036 0.05698 0.69281 0.0
C892 C 0.12787 0.04418 0.70332 0.0
C893 C 0.13089 0.01532 0.71804 0.0
H894 H 0.09807 0.07931 0.68137 0.0
H895 H 0.12911 0.79837 0.82002 0.0
loop_
_geom_bond_atom_site_label_1
_geom_bond_atom_site_label_2
_geom_bond_distance
_geom_bond_site_symmetry_2
_ccdc_geom_bond_type
P0 O11 1.490 . S
P0 C14 1.812 . S
P0 C20 1.803 . S
P0 C26 1.819 1_554 S
H1 C15 0.941 . S
H2 C16 0.939 . S
H3 C18 0.940 . S
H4 C19 0.940 . S
H5 C21 0.939 . S
H6 C22 0.942 . S
H7 C24 0.940 . S
H8 C25 0.939 . S
H9 C27 0.941 . S
H10 C31 0.939 . S
O11 P0 1.490 . S
H12 C28 0.939 . S
H13 C30 0.940 . S
C14 P0 1.812 . S
C14 C15 1.389 . S
C14 C19 1.391 . S
C15 H1 0.941 . S
C15 C14 1.389 . S
C15 C16 1.397 . S
C16 H2 0.939 . S
C16 C15 1.397 . S
C16 C17 1.378 . S
C17 C16 1.378 . S
C17 C18 1.378 . S
C18 H3 0.940 . S
C18 C17 1.378 . S
C18 C19 1.396 . S
C19 H4 0.940 . S
C19 C14 1.391 . S
C19 C18 1.396 . S
C20 P0 1.803 . S
C20 C21 1.378 . S
C20 C25 1.400 . S
C21 H5 0.939 . S
C21 C20 1.378 . S
C21 C22 1.361 . S
C22 H6 0.942 . S
C22 C21 1.361 . S
C22 C23 1.369 . S
C23 C22 1.369 . S
C23 C24 1.404 . S
C24 H7 0.940 . S
C24 C23 1.404 . S
C24 C25 1.389 . S
C25 H8 0.939 . S
C25 C20 1.400 . S
C25 C24 1.389 . S
C26 P0 1.819 1_556 S
C26 C27 1.391 . S
C26 C31 1.391 . S
C27 H9 0.941 . S
C27 C26 1.391 . S
C27 C28 1.396 . S
C28 H12 0.939 . S
C28 C27 1.396 . S
C28 C29 1.397 . S
C29 C28 1.397 . S
C29 C30 1.385 . S
C30 H13 0.940 . S
C30 C29 1.385 . S
C30 C31 1.388 . S
C31 H10 0.939 . S
C31 C26 1.391 . S
C31 C30 1.388 . S
P32 O43 1.490 . S
P32 C46 1.812 . S
P32 C52 1.803 . S
P32 C58 1.819 . S
H33 C47 0.941 . S
H34 C48 0.939 . S
H35 C50 0.940 . S
H36 C51 0.940 . S
H37 C53 0.939 . S
H38 C54 0.942 . S
H39 C56 0.940 . S
H40 C57 0.939 . S
H41 C59 0.941 . S
H42 C63 0.939 . S
O43 P32 1.490 . S
H44 C60 0.939 . S
H45 C62 0.940 . S
C46 P32 1.812 . S
C46 C47 1.389 . S
C46 C51 1.391 . S
C47 H33 0.941 . S
C47 C46 1.389 . S
C47 C48 1.397 . S
C48 H34 0.939 . S
C48 C47 1.397 . S
C48 C49 1.378 . S
C49 C48 1.378 . S
C49 C50 1.378 . S
C50 H35 0.940 . S
C50 C49 1.378 . S
C50 C51 1.396 . S
C51 H36 0.940 . S
C51 C46 1.391 . S
C51 C50 1.396 . S
C52 P32 1.803 . S
C52 C53 1.378 . S
C52 C57 1.400 . S
C53 H37 0.939 . S
C53 C52 1.378 . S
C53 C54 1.361 . S
C54 H38 0.942 . S
C54 C53 1.361 . S
C54 C55 1.369 . S
C55 C54 1.369 . S
C55 C56 1.404 . S
C56 H39 0.940 . S
C56 C55 1.404 . S
C56 C57 1.389 . S
C57 H40 0.939 . S
C57 C52 1.400 . S
C57 C56 1.389 . S
C58 P32 1.819 . S
C58 C59 1.391 . S
C58 C63 1.391 . S
C59 H41 0.941 . S
C59 C58 1.391 . S
C59 C60 1.396 . S
C60 H44 0.939 . S
C60 C59 1.396 . S
C60 C61 1.397 . S
C61 C60 1.397 . S
C61 C62 1.385 . S
C62 H45 0.940 . S
C62 C61 1.385 . S
C62 C63 1.388 . S
C63 H42 0.939 . S
C63 C58 1.391 . S
C63 C62 1.388 . S
P64 O75 1.490 . S
P64 C78 1.812 1_554 S
P64 C84 1.803 . S
P64 C90 1.819 . S
H65 C79 0.941 . S
H66 C80 0.939 . S
H67 C82 0.940 . S
H68 C83 0.940 1_554 S
H69 C85 0.939 . S
H70 C86 0.942 . S
H71 C88 0.940 1_556 S
H72 C89 0.932 1_556 S
H73 C91 0.941 . S
H74 C95 0.939 . S
O75 P64 1.490 . S
H76 C92 0.939 . S
H77 C94 0.940 . S
C78 P64 1.812 1_556 S
C78 C79 1.389 . S
C78 C83 1.391 . S
C79 H65 0.941 . S
C79 C78 1.389 . S
C79 C80 1.397 . S
C80 H66 0.939 . S
C80 C79 1.397 . S
C80 C81 1.378 . S
C81 C80 1.378 . S
C81 C82 1.378 . S
C82 H67 0.940 . S
C82 C81 1.378 . S
C82 C83 1.396 . S
C83 H68 0.940 1_556 S
C83 C78 1.391 . S
C83 C82 1.396 . S
C84 P64 1.803 . S
C84 C85 1.378 . S
C84 C89 1.400 . S
C85 H69 0.939 . S
C85 C84 1.378 . S
C85 C86 1.361 . S
C86 H70 0.942 . S
C86 C85 1.361 . S
C86 C87 1.369 . S
C87 C86 1.369 . S
C87 C88 1.404 . S
C88 H71 0.940 1_554 S
C88 C87 1.404 . S
C88 C89 1.389 . S
C89 H72 0.932 1_554 S
C89 C84 1.400 . S
C89 C88 1.389 . S
C90 P64 1.819 . S
C90 C91 1.391 . S
C90 C95 1.391 . S
C91 H73 0.941 . S
C91 C90 1.391 . S
C91 C92 1.396 . S
C92 H76 0.939 . S
C92 C91 1.396 . S
C92 C93 1.397 . S
C93 C92 1.397 . S
C93 C94 1.385 . S
C94 H77 0.940 . S
C94 C93 1.385 . S
C94 C95 1.388 . S
C95 H74 0.939 . S
C95 C90 1.391 . S
C95 C94 1.388 . S
P96 O107 1.490 . S
P96 C110 1.812 . S
P96 C116 1.803 . S
P96 C122 1.819 . S
H97 C111 0.941 . S
H98 C112 0.939 . S
H99 C114 0.940 . S
H100 C115 0.940 . S
H101 C117 0.939 . S
H102 C118 0.942 . S
H103 C120 0.940 . S
H104 C121 0.939 . S
H105 C123 0.941 . S
H106 C127 0.939 . S
O107 P96 1.490 . S
H108 C124 0.939 . S
H109 C126 0.940 . S
C110 P96 1.812 . S
C110 C111 1.389 . S
C110 C115 1.391 . S
C111 H97 0.941 . S
C111 C110 1.389 . S
C111 C112 1.397 . S
C112 H98 0.939 . S
C112 C111 1.397 . S
C112 C113 1.378 . S
C113 C112 1.378 . S
C113 C114 1.378 . S
C114 H99 0.940 . S
C114 C113 1.378 . S
C114 C115 1.396 . S
C115 H100 0.940 . S
C115 C110 1.391 . S
C115 C114 1.396 . S
C116 P96 1.803 . S
C116 C117 1.378 . S
C116 C121 1.400 . S
C117 H101 0.939 . S
C117 C116 1.378 . S
C117 C118 1.361 . S
C118 H102 0.942 . S
C118 C117 1.361 . S
C118 C119 1.369 . S
C119 C118 1.369 . S
C119 C120 1.404 . S
C120 H103 0.940 . S
C120 C119 1.404 . S
C120 C121 1.389 . S
C121 H104 0.939 . S
C121 C116 1.400 . S
C121 C120 1.389 . S
C122 P96 1.819 . S
C122 C123 1.391 . S
C122 C127 1.391 . S
C123 H105 0.941 . S
C123 C122 1.391 . S
C123 C124 1.396 . S
C124 H108 0.939 . S
C124 C123 1.396 . S
C124 C125 1.397 . S
C125 C124 1.397 . S
C125 C126 1.385 . S
C126 H109 0.940 . S
C126 C125 1.385 . S
C126 C127 1.388 . S
C127 H106 0.939 . S
C127 C122 1.391 . S
C127 C126 1.388 . S
Eu128 N157 2.600 . S
Eu128 N163 2.562 . S
Eu128 O172 2.462 . S
Eu128 O173 2.373 . S
Eu128 O175 2.432 . S
Eu128 O176 2.291 1_565 S
Eu128 O180 2.338 1_455 S
Eu128 O183 2.372 1_455 S
Eu128 C192 2.787 . S
C129 N130 1.365 . S
C129 C132 1.405 . S
C129 C136 1.448 . S
N130 C129 1.365 . S
N130 C133 1.319 1_655 S
N130 Eu139 2.600 . S
C131 C133 1.397 1_655 S
C131 C134 1.364 . S
C131 H151 0.933 1_655 S
C132 C129 1.405 . S
C132 C134 1.403 . S
C132 C138 1.439 . S
C133 N130 1.319 1_455 S
C133 C131 1.397 1_455 S
C133 H144 0.930 . S
C134 C131 1.364 . S
C134 C132 1.403 . S
C134 H155 0.929 . S
C135 C136 1.430 . S
C135 C137 1.387 . S
C135 C141 1.404 . S
C136 C129 1.448 . S
C136 C135 1.430 . S
C136 N140 1.351 . S
C137 C135 1.387 . S
C137 C138 1.374 . S
C137 H152 0.931 . S
C138 C132 1.439 . S
C138 C137 1.374 . S
C138 H153 0.931 . S
Eu139 N130 2.600 . S
Eu139 N140 2.562 . S
Eu139 O174 2.335 1_655 S
Eu139 O177 2.372 1_655 S
Eu139 O178 2.462 . S
Eu139 O179 2.373 . S
Eu139 O181 2.432 . S
Eu139 O182 2.291 1_545 S
Eu139 C203 2.787 . S
N140 C136 1.351 . S
N140 Eu139 2.562 . S
N140 C142 1.325 . S
C141 C135 1.404 . S
C141 C143 1.366 . S
C141 H149 0.930 . S
C142 N140 1.325 . S
C142 C143 1.416 . S
C142 H148 0.929 . S
C143 C141 1.366 . S
C143 C142 1.416 . S
C143 H145 0.930 . S
H144 C133 0.930 . S
H145 C143 0.930 . S
H146 C161 0.930 1_655 S
H147 C168 0.930 . S
H148 C142 0.929 . S
H149 C141 0.930 . S
H150 C164 0.929 . S
H151 C131 0.933 1_455 S
H152 C137 0.931 . S
H153 C138 0.931 . S
H154 C159 0.931 1_655 S
H155 C134 0.929 . S
H156 C167 0.930 . S
N157 Eu128 2.600 . S
N157 C158 1.365 . S
N157 C161 1.319 . S
C158 N157 1.365 . S
C158 C160 1.405 . S
C158 C166 1.448 . S
C159 H154 0.931 1_455 S
C159 C161 1.397 . S
C159 C162 1.367 . S
C160 C158 1.405 . S
C160 C162 1.403 . S
C160 C193 1.439 . S
C161 H146 0.930 1_455 S
C161 N157 1.319 . S
C161 C159 1.397 . S
C162 C159 1.367 . S
C162 C160 1.403 . S
C162 H169 0.929 . S
N163 Eu128 2.562 . S
N163 C164 1.325 . S
N163 C166 1.351 . S
C164 H150 0.929 . S
C164 N163 1.325 . S
C164 C168 1.416 . S
C165 C166 1.430 . S
C165 C167 1.404 . S
C165 C194 1.387 . S
C166 C158 1.448 . S
C166 N163 1.351 . S
C166 C165 1.430 . S
C167 H156 0.930 . S
C167 C165 1.404 . S
C167 C168 1.366 . S
C168 H147 0.930 . S
C168 C164 1.416 . S
C168 C167 1.366 . S
H169 C162 0.929 . S
H170 C193 0.931 . S
H171 C194 0.931 . S
O172 Eu128 2.462 . S
O172 C192 1.252 . S
O173 Eu128 2.373 . S
O173 C184 1.249 . S
O174 Eu139 2.335 1_455 S
O174 C184 1.264 1_545 S
O175 Eu128 2.432 . S
O175 C192 1.268 . S
O176 Eu128 2.291 1_545 S
O176 C191 1.255 . S
O177 Eu139 2.372 1_455 S
O177 C191 1.257 . S
O178 Eu139 2.462 . S
O178 C203 1.252 . S
O179 Eu139 2.373 . S
O179 C195 1.249 . S
O180 Eu128 2.338 1_655 S
O180 C195 1.259 1_565 S
O181 Eu139 2.432 . S
O181 C203 1.268 . S
O182 Eu139 2.291 1_565 S
O182 C202 1.255 . S
O183 Eu128 2.372 1_655 S
O183 C202 1.257 . S
C184 O173 1.249 . S
C184 O174 1.264 1_565 S
C185 C188 1.382 . S
C185 C190 1.390 . S
C185 C192 1.506 . S
C186 C187 1.398 . S
C186 C190 1.392 . S
C187 C186 1.398 . S
C187 C189 1.372 . S
C187 H204 0.931 . S
C188 C185 1.382 . S
C188 C189 1.390 . S
C188 H205 0.931 . S
C189 C187 1.372 . S
C189 C188 1.390 . S
C189 H206 0.929 . S
C190 C185 1.390 . S
C190 C186 1.392 . S
C190 H207 0.930 . S
C191 O176 1.255 . S
C191 O177 1.257 . S
C192 Eu128 2.787 . S
C192 O172 1.252 . S
C192 O175 1.268 . S
C192 C185 1.506 . S
C193 C160 1.439 . S
C193 H170 0.931 . S
C193 C194 1.374 . S
C194 C165 1.387 . S
C194 H171 0.931 . S
C194 C193 1.374 . S
C195 O179 1.249 . S
C195 O180 1.259 1_545 S
C196 C199 1.382 . S
C196 C200 1.390 . S
C196 C203 1.506 . S
C197 C198 1.398 . S
C197 C200 1.392 . S
C198 C197 1.398 . S
C198 C201 1.372 . S
C198 H208 0.931 . S
C199 C196 1.382 . S
C199 C201 1.390 . S
C199 H209 0.931 . S
C200 C196 1.390 . S
C200 C197 1.392 . S
C200 H210 0.930 . S
C201 C198 1.372 . S
C201 C199 1.390 . S
C201 H211 0.929 . S
C202 O182 1.255 . S
C202 O183 1.257 . S
C203 Eu139 2.787 . S
C203 O178 1.252 . S
C203 O181 1.268 . S
C203 C196 1.506 . S
H204 C187 0.931 . S
H205 C188 0.931 . S
H206 C189 0.929 . S
H207 C190 0.930 . S
H208 C198 0.931 . S
H209 C199 0.931 . S
H210 C200 0.930 . S
H211 C201 0.929 . S
Eu212 N241 2.600 . S
Eu212 N247 2.562 1_556 S
Eu212 O256 2.462 . S
Eu212 O257 2.373 1_556 S
Eu212 O259 2.432 . S
Eu212 O260 2.291 1_556 S
Eu212 O264 2.335 . S
Eu212 O267 2.372 . S
Eu212 C276 2.787 . S
C213 N214 1.365 . S
C213 C216 1.405 . S
C213 C220 1.448 . S
N214 C213 1.365 . S
N214 C217 1.319 . S
N214 Eu223 2.600 . S
C215 C217 1.397 . S
C215 C218 1.367 . S
C215 H235 0.931 . S
C216 C213 1.405 . S
C216 C218 1.403 . S
C216 C222 1.439 . S
C217 N214 1.319 . S
C217 C215 1.397 . S
C217 H228 0.930 . S
C218 C215 1.367 . S
C218 C216 1.403 . S
C218 H239 0.929 . S
C219 C220 1.430 . S
C219 C221 1.387 . S
C219 C225 1.404 . S
C220 C213 1.448 . S
C220 C219 1.430 . S
C220 N224 1.351 . S
C221 C219 1.387 . S
C221 C222 1.374 . S
C221 H236 0.931 . S
C222 C216 1.439 . S
C222 C221 1.374 . S
C222 H237 0.931 . S
Eu223 N214 2.600 . S
Eu223 N224 2.562 . S
Eu223 O258 2.335 . S
Eu223 O261 2.372 . S
Eu223 O262 2.462 . S
Eu223 O263 2.373 1_554 S
Eu223 O265 2.432 . S
Eu223 O266 2.291 . S
Eu223 C287 2.787 . S
N224 C220 1.351 . S
N224 Eu223 2.562 . S
N224 C226 1.325 . S
C225 C219 1.404 . S
C225 C227 1.366 . S
C225 H233 0.930 . S
C226 N224 1.325 . S
C226 C227 1.416 . S
C226 H232 0.929 . S
C227 C225 1.366 . S
C227 C226 1.416 . S
C227 H229 0.930 . S
H228 C217 0.930 . S
H229 C227 0.930 . S
H230 C245 0.930 . S
H231 C252 0.930 . S
H232 C226 0.929 . S
H233 C225 0.930 . S
H234 C248 0.929 . S
H235 C215 0.931 . S
H236 C221 0.931 . S
H237 C222 0.931 . S
H238 C243 0.931 . S
H239 C218 0.929 . S
H240 C251 0.930 . S
N241 Eu212 2.600 . S
N241 C242 1.365 1_556 S
N241 C245 1.319 . S
C242 N241 1.365 1_554 S
C242 C244 1.405 . S
C242 C250 1.448 . S
C243 H238 0.931 . S
C243 C245 1.397 . S
C243 C246 1.367 1_556 S
C244 C242 1.405 . S
C244 C246 1.403 . S
C244 C277 1.439 . S
C245 H230 0.930 . S
C245 N241 1.319 . S
C245 C243 1.397 . S
C246 C243 1.367 1_554 S
C246 C244 1.403 . S
C246 H253 0.929 . S
N247 Eu212 2.562 1_554 S
N247 C248 1.325 . S
N247 C250 1.351 . S
C248 H234 0.929 . S
C248 N247 1.325 . S
C248 C252 1.416 . S
C249 C250 1.430 . S
C249 C251 1.404 . S
C249 C278 1.387 . S
C250 C242 1.448 . S
C250 N247 1.351 . S
C250 C249 1.430 . S
C251 H240 0.930 . S
C251 C249 1.404 . S
C251 C252 1.366 . S
C252 H231 0.930 . S
C252 C248 1.416 . S
C252 C251 1.366 . S
H253 C246 0.929 . S
H254 C277 0.931 . S
H255 C278 0.931 . S
O256 Eu212 2.462 . S
O256 C276 1.252 . S
O257 Eu212 2.373 1_554 S
O257 C268 1.249 . S
O258 Eu223 2.335 . S
O258 C268 1.264 . S
O259 Eu212 2.432 . S
O259 C276 1.268 . S
O260 Eu212 2.291 1_554 S
O260 C275 1.255 . S
O261 Eu223 2.372 . S
O261 C275 1.257 . S
O262 Eu223 2.462 . S
O262 C287 1.252 . S
O263 Eu223 2.373 1_556 S
O263 C279 1.249 . S
O264 Eu212 2.335 . S
O264 C279 1.264 . S
O265 Eu223 2.432 . S
O265 C287 1.268 . S
O266 Eu223 2.291 . S
O266 C286 1.255 . S
O267 Eu212 2.372 . S
O267 C286 1.257 1_556 S
C268 O257 1.249 . S
C268 O258 1.264 . S
C269 C272 1.382 . S
C269 C274 1.390 . S
C269 C276 1.506 . S
C270 C271 1.398 . S
C270 C274 1.392 . S
C271 C270 1.398 . S
C271 C273 1.372 . S
C271 H288 0.931 . S
C272 C269 1.382 . S
C272 C273 1.390 . S
C272 H289 0.931 . S
C273 C271 1.372 . S
C273 C272 1.390 . S
C273 H290 0.929 . S
C274 C269 1.390 . S
C274 C270 1.392 . S
C274 H291 0.930 . S
C275 O260 1.255 . S
C275 O261 1.257 . S
C276 Eu212 2.787 . S
C276 O256 1.252 . S
C276 O259 1.268 . S
C276 C269 1.506 . S
C277 C244 1.439 . S
C277 H254 0.931 . S
C277 C278 1.374 . S
C278 C249 1.387 . S
C278 H255 0.931 . S
C278 C277 1.374 . S
C279 O263 1.249 . S
C279 O264 1.264 . S
C280 C283 1.382 . S
C280 C284 1.390 . S
C280 C287 1.506 . S
C281 C282 1.398 . S
C281 C284 1.392 . S
C282 C281 1.398 . S
C282 C285 1.372 . S
C282 H292 0.931 . S
C283 C280 1.382 . S
C283 C285 1.390 . S
C283 H293 0.931 . S
C284 C280 1.390 . S
C284 C281 1.392 . S
C284 H294 0.930 . S
C285 C282 1.372 . S
C285 C283 1.390 . S
C285 H295 0.929 . S
C286 O266 1.255 . S
C286 O267 1.257 1_554 S
C287 Eu223 2.787 . S
C287 O262 1.252 . S
C287 O265 1.268 . S
C287 C280 1.506 . S
H288 C271 0.931 . S
H289 C272 0.931 . S
H290 C273 0.929 . S
H291 C274 0.930 . S
H292 C282 0.931 . S
H293 C283 0.931 . S
H294 C284 0.930 . S
H295 C285 0.929 . S
H296 C314 0.951 . S
H297 C316 0.951 . S
H298 C318 0.950 . S
H299 C319 0.950 . S
H300 C321 0.950 . S
H301 C324 0.950 . S
H302 C325 0.950 . S
H303 C327 0.950 . S
H304 C328 0.950 . S
H305 C329 0.951 . S
H306 C331 0.951 . S
H307 C333 0.950 . S
H308 C334 0.950 . S
H309 C336 0.950 . S
H310 C339 0.950 . S
H311 C340 0.950 . S
H312 C342 0.950 . S
H313 C343 0.950 . S
C314 H296 0.951 . S
C314 C315 1.366 . S
C314 C316 1.388 . S
C315 C314 1.366 . S
C315 C319 1.385 . S
C316 H297 0.951 . S
C316 C314 1.388 . S
C316 C317 1.366 . S
C317 C316 1.366 . S
C317 C318 1.414 . S
C317 C320 1.499 . S
C318 H298 0.950 . S
C318 C317 1.414 . S
C318 C319 1.374 . S
C319 H299 0.950 . S
C319 C315 1.385 . S
C319 C318 1.374 . S
C320 C317 1.499 . S
C320 C321 1.373 . S
C320 C322 1.389 . S
C321 H300 0.950 . S
C321 C320 1.373 . S
C321 C337 1.377 . S
C322 C320 1.389 . S
C322 C323 1.524 . S
C322 C336 1.377 . S
C323 C322 1.524 . S
C323 C324 1.397 . S
C323 C328 1.363 . S
C324 H301 0.950 . S
C324 C323 1.397 . S
C324 C325 1.334 . S
C325 H302 0.950 . S
C325 C324 1.334 . S
C325 C326 1.287 . S
C326 C325 1.287 . S
C326 C327 1.524 . S
C326 H345 0.913 . S
C327 H303 0.950 . S
C327 C326 1.524 . S
C327 C328 1.415 . S
C328 H304 0.950 . S
C328 C323 1.363 . S
C328 C327 1.415 . S
C329 H305 0.951 . S
C329 C330 1.366 . S
C329 C331 1.388 . S
C330 C329 1.366 . S
C330 C334 1.385 . S
C331 H306 0.951 . S
C331 C329 1.388 . S
C331 C332 1.366 . S
C332 C331 1.366 . S
C332 C333 1.414 . S
C332 C335 1.499 . S
C333 H307 0.950 . S
C333 C332 1.414 . S
C333 C334 1.374 . S
C334 H308 0.950 . S
C334 C330 1.385 . S
C334 C333 1.374 . S
C335 C332 1.499 . S
C335 C336 1.373 . S
C335 C337 1.389 . S
C336 H309 0.950 . S
C336 C322 1.377 . S
C336 C335 1.373 . S
C337 C321 1.377 . S
C337 C335 1.389 . S
C337 C338 1.524 . S
C338 C337 1.524 . S
C338 C339 1.397 . S
C338 C343 1.363 . S
C339 H310 0.950 . S
C339 C338 1.397 . S
C339 C340 1.334 . S
C340 H311 0.950 . S
C340 C339 1.334 . S
C340 C341 1.287 . S
C341 C340 1.287 . S
C341 C342 1.524 . S
C341 H344 0.999 . S
C342 H312 0.950 . S
C342 C341 1.524 . S
C342 C343 1.415 . S
C343 H313 0.950 . S
C343 C338 1.363 . S
C343 C342 1.415 . S
H344 C341 0.999 . S
H345 C326 0.913 . S
H346 C364 0.951 1_556 S
H347 C366 0.951 1_556 S
H348 C368 0.950 . S
H349 C369 0.950 . S
H350 C371 0.950 . S
H351 C374 0.950 . S
H352 C375 0.950 . S
H353 C377 0.950 . S
H354 C378 0.950 . S
H355 C379 0.951 . S
H356 C381 0.951 . S
H357 C383 0.950 . S
H358 C384 0.950 . S
H359 C386 0.950 . S
H360 C389 0.950 1_556 S
H361 C390 0.950 . S
H362 C392 0.950 . S
H363 C393 0.950 . S
C364 H346 0.951 1_554 S
C364 C365 1.366 . S
C364 C366 1.388 . S
C365 C364 1.366 . S
C365 C369 1.385 . S
C366 H347 0.951 1_554 S
C366 C364 1.388 . S
C366 C367 1.366 . S
C367 C366 1.366 . S
C367 C368 1.414 . S
C367 C370 1.499 . S
C368 H348 0.950 . S
C368 C367 1.414 . S
C368 C369 1.374 . S
C369 H349 0.950 . S
C369 C365 1.385 . S
C369 C368 1.374 . S
C370 C367 1.499 . S
C370 C371 1.373 . S
C370 C372 1.389 . S
C371 H350 0.950 . S
C371 C370 1.373 . S
C371 C387 1.377 . S
C372 C370 1.389 . S
C372 C373 1.524 . S
C372 C386 1.377 . S
C373 C372 1.524 . S
C373 C374 1.397 . S
C373 C378 1.363 1_554 S
C374 H351 0.950 . S
C374 C373 1.397 . S
C374 C375 1.334 . S
C375 H352 0.950 . S
C375 C374 1.334 . S
C375 C376 1.287 . S
C376 C375 1.287 . S
C376 C377 1.524 1_554 S
C376 H395 0.913 . S
C377 H353 0.950 . S
C377 C376 1.524 1_556 S
C377 C378 1.415 . S
C378 H354 0.950 . S
C378 C373 1.363 1_556 S
C378 C377 1.415 . S
C379 H355 0.951 . S
C379 C380 1.366 . S
C379 C381 1.388 . S
C380 C379 1.366 . S
C380 C384 1.385 1_554 S
C381 H356 0.951 . S
C381 C379 1.388 . S
C381 C382 1.366 . S
C382 C381 1.366 . S
C382 C383 1.414 1_554 S
C382 C385 1.499 . S
C383 H357 0.950 . S
C383 C382 1.414 1_556 S
C383 C384 1.374 . S
C384 H358 0.950 . S
C384 C380 1.385 1_556 S
C384 C383 1.374 . S
C385 C382 1.499 . S
C385 C386 1.373 . S
C385 C387 1.389 . S
C386 H359 0.950 . S
C386 C372 1.377 . S
C386 C385 1.373 . S
C387 C371 1.377 . S
C387 C385 1.389 . S
C387 C388 1.524 . S
C388 C387 1.524 . S
C388 C389 1.397 . S
C388 C393 1.363 . S
C389 H360 0.950 1_554 S
C389 C388 1.397 . S
C389 C390 1.334 . S
C390 H361 0.950 . S
C390 C389 1.334 . S
C390 C391 1.287 . S
C391 C390 1.287 . S
C391 C392 1.524 . S
C391 H394 0.999 . S
C392 H362 0.950 . S
C392 C391 1.524 . S
C392 C393 1.415 . S
C393 H363 0.950 . S
C393 C388 1.363 . S
C393 C392 1.415 . S
H394 C391 0.999 . S
H395 C376 0.913 . S
H396 C414 0.951 . S
H397 C416 0.951 . S
H398 C418 0.950 . S
H399 C419 0.950 . S
H400 C421 0.950 . S
H401 C424 0.950 . S
H402 C425 0.950 . S
H403 C427 0.950 . S
H404 C428 0.950 . S
H405 C429 0.951 . S
H406 C431 0.951 . S
H407 C433 0.950 . S
H408 C434 0.950 . S
H409 C436 0.950 . S
H410 C439 0.950 . S
H411 C440 0.950 . S
H412 C442 0.950 . S
H413 C443 0.950 . S
C414 H396 0.951 . S
C414 C415 1.366 . S
C414 C416 1.388 . S
C415 C414 1.366 . S
C415 C419 1.385 . S
C416 H397 0.951 . S
C416 C414 1.388 . S
C416 C417 1.366 . S
C417 C416 1.366 . S
C417 C418 1.414 . S
C417 C420 1.499 . S
C418 H398 0.950 . S
C418 C417 1.414 . S
C418 C419 1.374 . S
C419 H399 0.950 . S
C419 C415 1.385 . S
C419 C418 1.374 . S
C420 C417 1.499 . S
C420 C421 1.373 . S
C420 C422 1.389 . S
C421 H400 0.950 . S
C421 C420 1.373 . S
C421 C437 1.377 . S
C422 C420 1.389 . S
C422 C423 1.524 . S
C422 C436 1.377 . S
C423 C422 1.524 . S
C423 C424 1.397 . S
C423 C428 1.363 . S
C424 H401 0.950 . S
C424 C423 1.397 . S
C424 C425 1.334 . S
C425 H402 0.950 . S
C425 C424 1.334 . S
C425 C426 1.287 . S
C426 C425 1.287 . S
C426 C427 1.524 . S
C426 H445 0.913 . S
C427 H403 0.950 . S
C427 C426 1.524 . S
C427 C428 1.415 . S
C428 H404 0.950 . S
C428 C423 1.363 . S
C428 C427 1.415 . S
C429 H405 0.951 . S
C429 C430 1.366 . S
C429 C431 1.388 . S
C430 C429 1.366 . S
C430 C434 1.385 . S
C431 H406 0.951 . S
C431 C429 1.388 . S
C431 C432 1.366 . S
C432 C431 1.366 . S
C432 C433 1.414 . S
C432 C435 1.499 . S
C433 H407 0.950 . S
C433 C432 1.414 . S
C433 C434 1.374 . S
C434 H408 0.950 . S
C434 C430 1.385 . S
C434 C433 1.374 . S
C435 C432 1.499 . S
C435 C436 1.373 . S
C435 C437 1.389 . S
C436 H409 0.950 . S
C436 C422 1.377 . S
C436 C435 1.373 . S
C437 C421 1.377 . S
C437 C435 1.389 . S
C437 C438 1.524 . S
C438 C437 1.524 . S
C438 C439 1.397 . S
C438 C443 1.363 . S
C439 H410 0.950 . S
C439 C438 1.397 . S
C439 C440 1.334 . S
C440 H411 0.950 . S
C440 C439 1.334 . S
C440 C441 1.287 . S
C441 C440 1.287 . S
C441 C442 1.524 . S
C441 H444 0.999 . S
C442 H412 0.950 . S
C442 C441 1.524 . S
C442 C443 1.415 . S
C443 H413 0.950 . S
C443 C438 1.363 . S
C443 C442 1.415 . S
H444 C441 0.999 . S
H445 C426 0.913 . S
H446 C464 0.951 . S
H447 C466 0.951 . S
H448 C468 0.950 . S
H449 C469 0.950 . S
H450 C471 0.950 . S
H451 C474 0.950 . S
H452 C475 0.950 . S
H453 C477 0.950 . S
H454 C478 0.950 . S
H455 C479 0.951 . S
H456 C481 0.951 . S
H457 C483 0.950 . S
H458 C484 0.950 . S
H459 C486 0.950 . S
H460 C489 0.950 . S
H461 C490 0.950 . S
H462 C492 0.950 . S
H463 C493 0.950 . S
C464 H446 0.951 . S
C464 C465 1.366 1_556 S
C464 C466 1.388 . S
C465 C464 1.366 1_554 S
C465 C469 1.385 . S
C466 H447 0.951 . S
C466 C464 1.388 . S
C466 C467 1.366 1_556 S
C467 C466 1.366 1_554 S
C467 C468 1.414 . S
C467 C470 1.499 . S
C468 H448 0.950 . S
C468 C467 1.414 . S
C468 C469 1.374 . S
C469 H449 0.950 . S
C469 C465 1.385 . S
C469 C468 1.374 . S
C470 C467 1.499 . S
C470 C471 1.373 . S
C470 C472 1.389 1_554 S
C471 H450 0.950 . S
C471 C470 1.373 . S
C471 C487 1.377 . S
C472 C470 1.389 1_556 S
C472 C473 1.524 . S
C472 C486 1.377 . S
C473 C472 1.524 . S
C473 C474 1.397 . S
C473 C478 1.363 . S
C474 H451 0.950 . S
C474 C473 1.397 . S
C474 C475 1.334 . S
C475 H452 0.950 . S
C475 C474 1.334 . S
C475 C476 1.287 . S
C476 C475 1.287 . S
C476 C477 1.524 . S
C476 H495 0.913 . S
C477 H453 0.950 . S
C477 C476 1.524 . S
C477 C478 1.415 . S
C478 H454 0.950 . S
C478 C473 1.363 . S
C478 C477 1.415 . S
C479 H455 0.951 . S
C479 C480 1.366 . S
C479 C481 1.388 . S
C480 C479 1.366 . S
C480 C484 1.385 1_554 S
C481 H456 0.951 . S
C481 C479 1.388 . S
C481 C482 1.366 . S
C482 C481 1.366 . S
C482 C483 1.414 1_554 S
C482 C485 1.499 . S
C483 H457 0.950 . S
C483 C482 1.414 1_556 S
C483 C484 1.374 . S
C484 H458 0.950 . S
C484 C480 1.385 1_556 S
C484 C483 1.374 . S
C485 C482 1.499 . S
C485 C486 1.373 1_554 S
C485 C487 1.389 . S
C486 H459 0.950 . S
C486 C472 1.377 . S
C486 C485 1.373 1_556 S
C487 C471 1.377 . S
C487 C485 1.389 . S
C487 C488 1.524 . S
C488 C487 1.524 . S
C488 C489 1.397 . S
C488 C493 1.363 . S
C489 H460 0.950 . S
C489 C488 1.397 . S
C489 C490 1.334 . S
C490 H461 0.950 . S
C490 C489 1.334 . S
C490 C491 1.287 . S
C491 C490 1.287 . S
C491 C492 1.524 . S
C491 H494 0.999 . S
C492 H462 0.950 . S
C492 C491 1.524 . S
C492 C493 1.415 . S
C493 H463 0.950 . S
C493 C488 1.363 . S
C493 C492 1.415 . S
H494 C491 0.999 . S
H495 C476 0.913 . S
H496 C514 0.951 . S
H497 C516 0.951 . S
H498 C518 0.950 . S
H499 C519 0.950 . S
H500 C521 0.950 . S
H501 C524 0.950 . S
H502 C525 0.950 . S
H503 C527 0.956 . S
H504 C528 0.950 . S
H505 C529 0.951 . S
H506 C531 0.951 . S
H507 C533 0.950 . S
H508 C534 0.950 1_545 S
H509 C536 0.950 . S
H510 C539 0.950 . S
H511 C540 0.950 . S
H512 C542 0.950 . S
H513 C543 0.950 . S
C514 H496 0.951 . S
C514 C515 1.366 . S
C514 C516 1.388 . S
C515 C514 1.366 . S
C515 C519 1.385 . S
C516 H497 0.951 . S
C516 C514 1.388 . S
C516 C517 1.366 . S
C517 C516 1.366 . S
C517 C518 1.414 . S
C517 C520 1.499 . S
C518 H498 0.950 . S
C518 C517 1.414 . S
C518 C519 1.374 . S
C519 H499 0.950 . S
C519 C515 1.385 . S
C519 C518 1.374 . S
C520 C517 1.499 . S
C520 C521 1.373 . S
C520 C522 1.389 . S
C521 H500 0.950 . S
C521 C520 1.373 . S
C521 C537 1.377 . S
C522 C520 1.389 . S
C522 C523 1.524 . S
C522 C536 1.377 . S
C523 C522 1.524 . S
C523 C524 1.397 . S
C523 C528 1.363 . S
C524 H501 0.950 . S
C524 C523 1.397 . S
C524 C525 1.334 . S
C525 H502 0.950 . S
C525 C524 1.334 . S
C525 C526 1.287 . S
C526 C525 1.287 . S
C526 C527 1.524 . S
C526 H545 0.913 . S
C527 H503 0.956 . S
C527 C526 1.524 . S
C527 C528 1.415 . S
C528 H504 0.950 . S
C528 C523 1.363 . S
C528 C527 1.415 . S
C529 H505 0.951 . S
C529 C530 1.366 . S
C529 C531 1.388 . S
C530 C529 1.366 . S
C530 C534 1.385 . S
C531 H506 0.951 . S
C531 C529 1.388 . S
C531 C532 1.366 . S
C532 C531 1.366 . S
C532 C533 1.414 . S
C532 C535 1.499 . S
C533 H507 0.950 . S
C533 C532 1.414 . S
C533 C534 1.374 . S
C534 H508 0.950 1_565 S
C534 C530 1.385 . S
C534 C533 1.374 . S
C535 C532 1.499 . S
C535 C536 1.373 . S
C535 C537 1.389 . S
C536 H509 0.950 . S
C536 C522 1.377 . S
C536 C535 1.373 . S
C537 C521 1.377 . S
C537 C535 1.389 . S
C537 C538 1.524 . S
C538 C537 1.524 . S
C538 C539 1.397 . S
C538 C543 1.363 . S
C539 H510 0.950 . S
C539 C538 1.397 . S
C539 C540 1.334 . S
C540 H511 0.950 . S
C540 C539 1.334 . S
C540 C541 1.287 . S
C541 C540 1.287 . S
C541 C542 1.524 . S
C541 H544 0.999 . S
C542 H512 0.950 . S
C542 C541 1.524 . S
C542 C543 1.415 . S
C543 H513 0.950 . S
C543 C538 1.363 . S
C543 C542 1.415 . S
H544 C541 0.999 . S
H545 C526 0.913 . S
H546 C564 0.951 . S
H547 C566 0.951 . S
H548 C568 0.950 . S
H549 C569 0.950 . S
H550 C571 0.950 . S
H551 C574 0.950 . S
H552 C575 0.950 . S
H553 C577 0.950 . S
H554 C578 0.950 . S
H555 C579 0.951 . S
H556 C581 0.951 . S
H557 C583 0.950 . S
H558 C584 0.950 . S
H559 C586 0.950 . S
H560 C589 0.950 . S
H561 C590 0.950 . S
H562 C592 0.950 . S
H563 C593 0.950 . S
C564 H546 0.951 . S
C564 C565 1.366 . S
C564 C566 1.388 . S
C565 C564 1.366 . S
C565 C569 1.385 . S
C566 H547 0.951 . S
C566 C564 1.388 . S
C566 C567 1.366 . S
C567 C566 1.366 . S
C567 C568 1.414 . S
C567 C570 1.499 . S
C568 H548 0.950 . S
C568 C567 1.414 . S
C568 C569 1.374 . S
C569 H549 0.950 . S
C569 C565 1.385 . S
C569 C568 1.374 . S
C570 C567 1.499 . S
C570 C571 1.373 . S
C570 C572 1.389 . S
C571 H550 0.950 . S
C571 C570 1.373 . S
C571 C587 1.377 . S
C572 C570 1.389 . S
C572 C573 1.524 . S
C572 C586 1.377 . S
C573 C572 1.524 . S
C573 C574 1.397 . S
C573 C578 1.363 . S
C574 H551 0.950 . S
C574 C573 1.397 . S
C574 C575 1.334 . S
C575 H552 0.950 . S
C575 C574 1.334 . S
C575 C576 1.287 . S
C576 C575 1.287 . S
C576 C577 1.524 . S
C576 H595 0.913 . S
C577 H553 0.950 . S
C577 C576 1.524 . S
C577 C578 1.415 . S
C578 H554 0.950 . S
C578 C573 1.363 . S
C578 C577 1.415 . S
C579 H555 0.951 . S
C579 C580 1.366 . S
C579 C581 1.388 . S
C580 C579 1.366 . S
C580 C584 1.385 . S
C581 H556 0.951 . S
C581 C579 1.388 . S
C581 C582 1.366 . S
C582 C581 1.366 . S
C582 C583 1.414 . S
C582 C585 1.499 . S
C583 H557 0.950 . S
C583 C582 1.414 . S
C583 C584 1.374 . S
C584 H558 0.950 . S
C584 C580 1.385 . S
C584 C583 1.374 . S
C585 C582 1.499 . S
C585 C586 1.373 . S
C585 C587 1.389 . S
C586 H559 0.950 . S
C586 C572 1.377 . S
C586 C585 1.373 . S
C587 C571 1.377 . S
C587 C585 1.389 . S
C587 C588 1.524 . S
C588 C587 1.524 . S
C588 C589 1.397 . S
C588 C593 1.363 . S
C589 H560 0.950 . S
C589 C588 1.397 . S
C589 C590 1.334 . S
C590 H561 0.950 . S
C590 C589 1.334 . S
C590 C591 1.287 . S
C591 C590 1.287 . S
C591 C592 1.524 . S
C591 H594 0.999 . S
C592 H562 0.950 . S
C592 C591 1.524 . S
C592 C593 1.415 . S
C593 H563 0.950 . S
C593 C588 1.363 . S
C593 C592 1.415 . S
H594 C591 0.999 . S
H595 C576 0.913 . S
H596 C614 0.951 . S
H597 C616 0.951 . S
H598 C618 0.950 . S
H599 C619 0.950 . S
H600 C621 0.950 . S
H601 C624 0.950 . S
H602 C625 0.950 . S
H603 C627 0.950 1_565 S
H604 C628 0.950 . S
H605 C629 0.951 . S
H606 C631 0.951 . S
H607 C633 0.950 . S
H608 C634 0.950 1_565 S
H609 C636 0.950 . S
H610 C639 0.950 . S
H611 C640 0.950 1_455 S
H612 C642 0.950 . S
H613 C643 0.950 . S
C614 H596 0.951 . S
C614 C615 1.366 . S
C614 C616 1.388 . S
C615 C614 1.366 . S
C615 C619 1.385 . S
C616 H597 0.951 . S
C616 C614 1.388 . S
C616 C617 1.366 . S
C617 C616 1.366 . S
C617 C618 1.414 . S
C617 C620 1.499 . S
C618 H598 0.950 . S
C618 C617 1.414 . S
C618 C619 1.374 . S
C619 H599 0.950 . S
C619 C615 1.385 . S
C619 C618 1.374 . S
C620 C617 1.499 . S
C620 C621 1.373 . S
C620 C622 1.389 . S
C621 H600 0.950 . S
C621 C620 1.373 . S
C621 C637 1.377 . S
C622 C620 1.389 . S
C622 C623 1.524 . S
C622 C636 1.377 . S
C623 C622 1.524 . S
C623 C624 1.397 . S
C623 C628 1.363 . S
C624 H601 0.950 . S
C624 C623 1.397 . S
C624 C625 1.334 . S
C625 H602 0.950 . S
C625 C624 1.334 . S
C625 C626 1.287 . S
C626 C625 1.287 . S
C626 C627 1.524 . S
C626 H645 0.913 . S
C627 H603 0.950 1_545 S
C627 C626 1.524 . S
C627 C628 1.415 . S
C628 H604 0.950 . S
C628 C623 1.363 . S
C628 C627 1.415 . S
C629 H605 0.951 . S
C629 C630 1.366 . S
C629 C631 1.388 . S
C630 C629 1.366 . S
C630 C634 1.385 . S
C631 H606 0.951 . S
C631 C629 1.388 . S
C631 C632 1.366 . S
C632 C631 1.366 . S
C632 C633 1.414 . S
C632 C635 1.499 . S
C633 H607 0.950 . S
C633 C632 1.414 . S
C633 C634 1.374 . S
C634 H608 0.950 1_545 S
C634 C630 1.385 . S
C634 C633 1.374 . S
C635 C632 1.499 . S
C635 C636 1.373 . S
C635 C637 1.389 . S
C636 H609 0.950 . S
C636 C622 1.377 . S
C636 C635 1.373 . S
C637 C621 1.377 . S
C637 C635 1.389 . S
C637 C638 1.524 . S
C638 C637 1.524 . S
C638 C639 1.397 . S
C638 C643 1.363 . S
C639 H610 0.950 . S
C639 C638 1.397 . S
C639 C640 1.334 . S
C640 H611 0.950 1_655 S
C640 C639 1.334 . S
C640 C641 1.287 1_655 S
C641 C640 1.287 1_455 S
C641 C642 1.524 1_455 S
C641 H644 0.999 . S
C642 H612 0.950 . S
C642 C641 1.524 1_655 S
C642 C643 1.415 . S
C643 H613 0.950 . S
C643 C638 1.363 . S
C643 C642 1.415 . S
H644 C641 0.999 . S
H645 C626 0.913 . S
H646 C664 0.951 . S
H647 C666 0.951 . S
H648 C668 0.950 . S
H649 C669 0.950 . S
H650 C671 0.950 . S
H651 C674 0.950 . S
H652 C675 0.950 . S
H653 C677 0.950 . S
H654 C678 0.950 . S
H655 C679 0.951 . S
H656 C681 0.951 . S
H657 C683 0.950 . S
H658 C684 0.950 . S
H659 C686 0.950 . S
H660 C689 0.950 . S
H661 C690 0.950 . S
H662 C692 0.950 . S
H663 C693 0.950 . S
C664 H646 0.951 . S
C664 C665 1.366 . S
C664 C666 1.388 . S
C665 C664 1.366 . S
C665 C669 1.385 . S
C666 H647 0.951 . S
C666 C664 1.388 . S
C666 C667 1.366 . S
C667 C666 1.366 . S
C667 C668 1.414 . S
C667 C670 1.499 . S
C668 H648 0.950 . S
C668 C667 1.414 . S
C668 C669 1.374 . S
C669 H649 0.950 . S
C669 C665 1.385 . S
C669 C668 1.374 . S
C670 C667 1.499 . S
C670 C671 1.373 . S
C670 C672 1.389 . S
C671 H650 0.950 . S
C671 C670 1.373 . S
C671 C687 1.377 . S
C672 C670 1.389 . S
C672 C673 1.524 . S
C672 C686 1.377 . S
C673 C672 1.524 . S
C673 C674 1.397 . S
C673 C678 1.363 . S
C674 H651 0.950 . S
C674 C673 1.397 . S
C674 C675 1.334 . S
C675 H652 0.950 . S
C675 C674 1.334 . S
C675 C676 1.287 . S
C676 C675 1.287 . S
C676 C677 1.524 . S
C676 H695 0.913 . S
C677 H653 0.950 . S
C677 C676 1.524 . S
C677 C678 1.415 . S
C678 H654 0.950 . S
C678 C673 1.363 . S
C678 C677 1.415 . S
C679 H655 0.951 . S
C679 C680 1.366 . S
C679 C681 1.388 . S
C680 C679 1.366 . S
C680 C684 1.385 . S
C681 H656 0.951 . S
C681 C679 1.388 . S
C681 C682 1.366 . S
C682 C681 1.366 . S
C682 C683 1.414 . S
C682 C685 1.499 . S
C683 H657 0.950 . S
C683 C682 1.414 . S
C683 C684 1.374 . S
C684 H658 0.950 . S
C684 C680 1.385 . S
C684 C683 1.374 . S
C685 C682 1.499 . S
C685 C686 1.373 . S
C685 C687 1.389 . S
C686 H659 0.950 . S
C686 C672 1.377 . S
C686 C685 1.373 . S
C687 C671 1.377 . S
C687 C685 1.389 . S
C687 C688 1.524 . S
C688 C687 1.524 . S
C688 C689 1.397 . S
C688 C693 1.363 . S
C689 H660 0.950 . S
C689 C688 1.397 . S
C689 C690 1.334 . S
C690 H661 0.950 . S
C690 C689 1.334 . S
C690 C691 1.287 . S
C691 C690 1.287 . S
C691 C692 1.524 . S
C691 H694 0.999 . S
C692 H662 0.950 . S
C692 C691 1.524 . S
C692 C693 1.415 . S
C693 H663 0.950 . S
C693 C688 1.363 . S
C693 C692 1.415 . S
H694 C691 0.999 . S
H695 C676 0.913 . S
H696 C714 0.951 . S
H697 C716 0.951 . S
H698 C718 0.950 . S
H699 C719 0.950 . S
H700 C721 0.950 . S
H701 C724 0.950 . S
H702 C725 0.950 . S
H703 C727 0.950 . S
H704 C728 0.950 . S
H705 C729 0.951 . S
H706 C731 0.951 . S
H707 C733 0.950 . S
H708 C734 0.950 . S
H709 C736 0.950 . S
H710 C739 0.950 . S
H711 C740 0.950 . S
H712 C742 0.950 . S
H713 C743 0.950 . S
C714 H696 0.951 . S
C714 C715 1.366 . S
C714 C716 1.388 . S
C715 C714 1.366 . S
C715 C719 1.385 . S
C716 H697 0.951 . S
C716 C714 1.388 . S
C716 C717 1.366 . S
C717 C716 1.366 . S
C717 C718 1.414 . S
C717 C720 1.499 . S
C718 H698 0.950 . S
C718 C717 1.414 . S
C718 C719 1.374 . S
C719 H699 0.950 . S
C719 C715 1.385 . S
C719 C718 1.374 . S
C720 C717 1.499 . S
C720 C721 1.373 . S
C720 C722 1.389 . S
C721 H700 0.950 . S
C721 C720 1.373 . S
C721 C737 1.377 . S
C722 C720 1.389 . S
C722 C723 1.524 . S
C722 C736 1.377 . S
C723 C722 1.524 . S
C723 C724 1.397 . S
C723 C728 1.363 . S
C724 H701 0.950 . S
C724 C723 1.397 . S
C724 C725 1.334 . S
C725 H702 0.950 . S
C725 C724 1.334 . S
C725 C726 1.287 . S
C726 C725 1.287 . S
C726 C727 1.524 . S
C726 H745 0.913 . S
C727 H703 0.950 . S
C727 C726 1.524 . S
C727 C728 1.415 . S
C728 H704 0.950 . S
C728 C723 1.363 . S
C728 C727 1.415 . S
C729 H705 0.951 . S
C729 C730 1.366 . S
C729 C731 1.388 . S
C730 C729 1.366 . S
C730 C734 1.385 . S
C731 H706 0.951 . S
C731 C729 1.388 . S
C731 C732 1.366 . S
C732 C731 1.366 . S
C732 C733 1.414 . S
C732 C735 1.499 . S
C733 H707 0.950 . S
C733 C732 1.414 . S
C733 C734 1.374 . S
C734 H708 0.950 . S
C734 C730 1.385 . S
C734 C733 1.374 . S
C735 C732 1.499 . S
C735 C736 1.373 . S
C735 C737 1.389 . S
C736 H709 0.950 . S
C736 C722 1.377 . S
C736 C735 1.373 . S
C737 C721 1.377 . S
C737 C735 1.389 . S
C737 C738 1.524 . S
C738 C737 1.524 . S
C738 C739 1.397 . S
C738 C743 1.363 . S
C739 H710 0.950 . S
C739 C738 1.397 . S
C739 C740 1.334 . S
C740 H711 0.950 . S
C740 C739 1.334 . S
C740 C741 1.287 . S
C741 C740 1.287 . S
C741 C742 1.524 . S
C741 H744 0.999 . S
C742 H712 0.950 . S
C742 C741 1.524 . S
C742 C743 1.415 . S
C743 H713 0.950 . S
C743 C738 1.363 . S
C743 C742 1.415 . S
H744 C741 0.999 . S
H745 C726 0.913 . S
H746 C764 0.951 . S
H747 C766 0.951 . S
H748 C768 0.950 . S
H749 C769 0.950 . S
H750 C771 0.950 . S
H751 C774 0.950 . S
H752 C775 0.950 . S
H753 C777 0.950 . S
H754 C778 0.950 . S
H755 C779 0.951 . S
H756 C781 0.951 . S
H757 C783 0.950 . S
H758 C784 0.950 . S
H759 C786 0.950 . S
H760 C789 0.932 1_545 S
H761 C790 0.950 . S
H762 C792 0.950 . S
H763 C793 0.950 1_545 S
C764 H746 0.951 . S
C764 C765 1.366 . S
C764 C766 1.388 . S
C765 C764 1.366 . S
C765 C769 1.385 . S
C766 H747 0.951 . S
C766 C764 1.388 . S
C766 C767 1.366 . S
C767 C766 1.366 . S
C767 C768 1.414 . S
C767 C770 1.499 . S
C768 H748 0.950 . S
C768 C767 1.414 . S
C768 C769 1.374 . S
C769 H749 0.950 . S
C769 C765 1.385 . S
C769 C768 1.374 . S
C770 C767 1.499 . S
C770 C771 1.373 . S
C770 C772 1.389 . S
C771 H750 0.950 . S
C771 C770 1.373 . S
C771 C787 1.377 . S
C772 C770 1.389 . S
C772 C773 1.524 . S
C772 C786 1.377 . S
C773 C772 1.524 . S
C773 C774 1.397 . S
C773 C778 1.363 . S
C774 H751 0.950 . S
C774 C773 1.397 . S
C774 C775 1.334 . S
C775 H752 0.950 . S
C775 C774 1.334 . S
C775 C776 1.287 . S
C776 C775 1.287 . S
C776 C777 1.524 . S
C776 H795 0.913 . S
C777 H753 0.950 . S
C777 C776 1.524 . S
C777 C778 1.415 . S
C778 H754 0.950 . S
C778 C773 1.363 . S
C778 C777 1.415 . S
C779 H755 0.951 . S
C779 C780 1.366 . S
C779 C781 1.388 . S
C780 C779 1.366 . S
C780 C784 1.385 . S
C781 H756 0.951 . S
C781 C779 1.388 . S
C781 C782 1.366 . S
C782 C781 1.366 . S
C782 C783 1.414 . S
C782 C785 1.499 . S
C783 H757 0.950 . S
C783 C782 1.414 . S
C783 C784 1.374 . S
C784 H758 0.950 . S
C784 C780 1.385 . S
C784 C783 1.374 . S
C785 C782 1.499 . S
C785 C786 1.373 . S
C785 C787 1.389 . S
C786 H759 0.950 . S
C786 C772 1.377 . S
C786 C785 1.373 . S
C787 C771 1.377 . S
C787 C785 1.389 . S
C787 C788 1.524 . S
C788 C787 1.524 . S
C788 C789 1.387 1_545 S
C788 C793 1.363 1_545 S
C789 H760 0.932 1_565 S
C789 C788 1.387 1_565 S
C789 C790 1.362 . S
C790 H761 0.950 . S
C790 C789 1.362 . S
C790 C791 1.287 . S
C791 C790 1.287 . S
C791 C792 1.524 . S
C791 H794 0.999 . S
C792 H762 0.950 . S
C792 C791 1.524 . S
C792 C793 1.415 . S
C793 H763 0.950 1_565 S
C793 C788 1.363 1_565 S
C793 C792 1.415 . S
H794 C791 0.999 . S
H795 C776 0.913 . S
H796 C814 0.951 . S
H797 C816 0.951 . S
H798 C818 0.950 . S
H799 C819 0.950 . S
H800 C821 0.950 . S
H801 C824 0.950 . S
H802 C825 0.950 . S
H803 C827 0.950 . S
H804 C828 0.950 . S
H805 C829 0.951 . S
H806 C831 0.951 . S
H807 C833 0.950 . S
H808 C834 0.950 . S
H809 C836 0.950 . S
H810 C839 0.950 . S
H811 C840 0.950 . S
H812 C842 0.950 . S
H813 C843 0.950 . S
C814 H796 0.951 . S
C814 C815 1.366 . S
C814 C816 1.388 . S
C815 C814 1.366 . S
C815 C819 1.385 . S
C816 H797 0.951 . S
C816 C814 1.388 . S
C816 C817 1.366 . S
C817 C816 1.366 . S
C817 C818 1.414 . S
C817 C820 1.499 . S
C818 H798 0.950 . S
C818 C817 1.414 . S
C818 C819 1.374 . S
C819 H799 0.950 . S
C819 C815 1.385 . S
C819 C818 1.374 . S
C820 C817 1.499 . S
C820 C821 1.373 . S
C820 C822 1.389 . S
C821 H800 0.950 . S
C821 C820 1.373 . S
C821 C837 1.377 . S
C822 C820 1.389 . S
C822 C823 1.524 . S
C822 C836 1.377 . S
C823 C822 1.524 . S
C823 C824 1.397 . S
C823 C828 1.363 . S
C824 H801 0.950 . S
C824 C823 1.397 . S
C824 C825 1.334 . S
C825 H802 0.950 . S
C825 C824 1.334 . S
C825 C826 1.287 . S
C826 C825 1.287 . S
C826 C827 1.524 . S
C826 H845 0.913 . S
C827 H803 0.950 . S
C827 C826 1.524 . S
C827 C828 1.415 . S
C828 H804 0.950 . S
C828 C823 1.363 . S
C828 C827 1.415 . S
C829 H805 0.951 . S
C829 C830 1.366 . S
C829 C831 1.388 . S
C830 C829 1.366 . S
C830 C834 1.385 . S
C831 H806 0.951 . S
C831 C829 1.388 . S
C831 C832 1.366 . S
C832 C831 1.366 . S
C832 C833 1.414 . S
C832 C835 1.499 . S
C833 H807 0.950 . S
C833 C832 1.414 . S
C833 C834 1.374 . S
C834 H808 0.950 . S
C834 C830 1.385 . S
C834 C833 1.374 . S
C835 C832 1.499 . S
C835 C836 1.373 . S
C835 C837 1.389 . S
C836 H809 0.950 . S
C836 C822 1.377 . S
C836 C835 1.373 . S
C837 C821 1.377 . S
C837 C835 1.389 . S
C837 C838 1.524 . S
C838 C837 1.524 . S
C838 C839 1.397 . S
C838 C843 1.363 . S
C839 H810 0.950 . S
C839 C838 1.397 . S
C839 C840 1.334 . S
C840 H811 0.950 . S
C840 C839 1.334 . S
C840 C841 1.287 . S
C841 C840 1.287 . S
C841 C842 1.524 . S
C841 H844 0.999 . S
C842 H812 0.950 . S
C842 C841 1.524 . S
C842 C843 1.415 . S
C843 H813 0.950 . S
C843 C838 1.363 . S
C843 C842 1.415 . S
H844 C841 0.999 . S
H845 C826 0.913 . S
H846 C864 0.951 . S
H847 C866 0.951 . S
H848 C868 0.950 . S
H849 C869 0.950 . S
H850 C871 0.950 . S
H851 C874 0.950 . S
H852 C875 0.950 . S
H853 C877 0.950 . S
H854 C878 0.950 . S
H855 C879 0.951 . S
H856 C881 0.951 . S
H857 C883 0.950 . S
H858 C884 0.950 . S
H859 C886 0.950 . S
H860 C889 0.950 . S
H861 C890 0.950 . S
H862 C892 0.950 . S
H863 C893 0.950 . S
C864 H846 0.951 . S
C864 C865 1.366 . S
C864 C866 1.388 . S
C865 C864 1.366 . S
C865 C869 1.385 . S
C866 H847 0.951 . S
C866 C864 1.388 . S
C866 C867 1.366 . S
C867 C866 1.366 . S
C867 C868 1.414 . S
C867 C870 1.499 . S
C868 H848 0.950 . S
C868 C867 1.414 . S
C868 C869 1.374 . S
C869 H849 0.950 . S
C869 C865 1.385 . S
C869 C868 1.374 . S
C870 C867 1.499 . S
C870 C871 1.373 . S
C870 C872 1.389 . S
C871 H850 0.950 . S
C871 C870 1.373 . S
C871 C887 1.377 . S
C872 C870 1.389 . S
C872 C873 1.524 . S
C872 C886 1.377 . S
C873 C872 1.524 . S
C873 C874 1.397 . S
C873 C878 1.363 . S
C874 H851 0.950 . S
C874 C873 1.397 . S
C874 C875 1.334 . S
C875 H852 0.950 . S
C875 C874 1.334 . S
C875 C876 1.287 . S
C876 C875 1.287 . S
C876 C877 1.524 . S
C876 H895 0.913 . S
C877 H853 0.950 . S
C877 C876 1.524 . S
C877 C878 1.415 . S
C878 H854 0.950 . S
C878 C873 1.363 . S
C878 C877 1.415 . S
C879 H855 0.951 . S
C879 C880 1.366 . S
C879 C881 1.388 . S
C880 C879 1.366 . S
C880 C884 1.385 . S
C881 H856 0.951 . S
C881 C879 1.388 . S
C881 C882 1.366 . S
C882 C881 1.366 . S
C882 C883 1.414 . S
C882 C885 1.499 . S
C883 H857 0.950 . S
C883 C882 1.414 . S
C883 C884 1.374 . S
C884 H858 0.950 . S
C884 C880 1.385 . S
C884 C883 1.374 . S
C885 C882 1.499 . S
C885 C886 1.373 . S
C885 C887 1.389 . S
C886 H859 0.950 . S
C886 C872 1.377 . S
C886 C885 1.373 . S
C887 C871 1.377 . S
C887 C885 1.389 . S
C887 C888 1.524 1_565 S
C888 C887 1.524 1_545 S
C888 C889 1.397 . S
C888 C893 1.363 . S
C889 H860 0.950 . S
C889 C888 1.397 . S
C889 C890 1.334 . S
C890 H861 0.950 . S
C890 C889 1.334 . S
C890 C891 1.287 . S
C891 C890 1.287 . S
C891 C892 1.524 . S
C891 H894 0.999 . S
C892 H862 0.950 . S
C892 C891 1.524 . S
C892 C893 1.415 . S
C893 H863 0.950 . S
C893 C888 1.363 . S
C893 C892 1.415 . S
H894 C891 0.999 . S
H895 C876 0.913 . S
C330 C191 1.616 . S
C315 C119 1.617 . S
C365 C23 1.607 . S
C380 C286 1.590 . S
C415 C55 1.569 . S
C430 C202 1.616 . S
C465 C87 1.540 . S
C480 C275 1.590 . S
C530 C186 1.402 . S
C515 C17 1.550 . S
C580 C279 1.606 . S
C565 C61 1.542 . S
C615 C93 1.502 . S
C630 C195 1.588 . S
C665 C113 1.531 . S
C680 C270 1.400 . S
C730 C281 1.402 . S
C715 C49 1.501 . S
C780 C197 1.401 . S
C765 C81 1.510 . S
C830 C268 1.605 . S
C815 C125 1.595 . S
C865 C29 1.579 . S
C880 C184 1.588 . S
