# Generated by pormake.
# Topology pth, (4,4)-cn, num edge types: 1
# Building blocks:
#     Node 0, Type 0, BuildingBlock: AZAVOO_clean_sbu_0, # of connection points: 4
#     Node 1, Type 0, BuildingBlock: AZAVOO_clean_sbu_0, # of connection points: 4
#     Node 2, Type 0, BuildingBlock: AZAVOO_clean_sbu_0, # of connection points: 4
#     Node 3, Type 1, BuildingBlock: AZAVOO_clean_linker_0, # of connection points: 4
#     Node 4, Type 1, BuildingBlock: AZAVOO_clean_linker_0, # of connection points: 4
#     Node 5, Type 1, BuildingBlock: AZAVOO_clean_linker_0, # of connection points: 4
#     Edge 6, Type (0, 1), BuildingBlock: MIFKUJ_clean_linker_0, # of connection points: 2
#     Edge 7, Type (0, 1), BuildingBlock: MIFKUJ_clean_linker_0, # of connection points: 2
#     Edge 8, Type (0, 1), BuildingBlock: MIFKUJ_clean_linker_0, # of connection points: 2
#     Edge 9, Type (0, 1), BuildingBlock: MIFKUJ_clean_linker_0, # of connection points: 2
#     Edge 10, Type (0, 1), BuildingBlock: MIFKUJ_clean_linker_0, # of connection points: 2
#     Edge 11, Type (0, 1), BuildingBlock: MIFKUJ_clean_linker_0, # of connection points: 2
#     Edge 12, Type (0, 1), BuildingBlock: MIFKUJ_clean_linker_0, # of connection points: 2
#     Edge 13, Type (0, 1), BuildingBlock: MIFKUJ_clean_linker_0, # of connection points: 2
#     Edge 14, Type (0, 1), BuildingBlock: MIFKUJ_clean_linker_0, # of connection points: 2
#     Edge 15, Type (0, 1), BuildingBlock: MIFKUJ_clean_linker_0, # of connection points: 2
#     Edge 16, Type (0, 1), BuildingBlock: MIFKUJ_clean_linker_0, # of connection points: 2
#     Edge 17, Type (0, 1), BuildingBlock: MIFKUJ_clean_linker_0, # of connection points: 2
# Relax obj value: 0.166
# Max RMSD: 0.230
# Mean RMSD: 0.224
data_MOF--net-pth--node1-AZAVOO_clean_sbu_0--node2-AZAVOO_clean_linker_0--edge1-MIFKUJ_clean_linker_0
_symmetry_space_group_name_H-M    P1
_symmetry_Int_Tables_number       1
_symmetry_cell_setting            triclinic
loop_
_symmetry_equiv_pos_as_xyz
'x, y, z'
_cell_length_a     32.553467
_cell_length_b     33.31846
_cell_length_c     87.65068
_cell_angle_alpha  92.317897
_cell_angle_beta   92.199611
_cell_angle_gamma 121.79143
loop_
_atom_site_label
_atom_site_type_symbol
_atom_site_fract_x
_atom_site_fract_y
_atom_site_fract_z
_atom_type_partial_charge
Mg0 Mg 0.13458 0.12005 0.06696 0.0
O1 O 0.07647 0.0807 0.04707 0.0
O2 O 0.07141 0.13554 0.03469 0.0
Mg3 Mg 0.12513 0.20827 0.0464 0.0
C4 C 0.05814 0.0925 0.03631 0.0
C5 C 0.13032 0.05839 0.09161 0.0
O6 O 0.15929 0.10189 0.09762 0.0
O7 O 0.08287 0.13156 0.08009 0.0
O8 O 0.08094 0.18781 0.06768 0.0
O9 O 0.19088 0.12685 0.05215 0.0
O10 O 0.16857 0.17911 0.05438 0.0
C11 C 0.06816 0.15991 0.07851 0.0
C12 C 0.19359 0.16467 0.04766 0.0
O13 O 0.11087 0.05216 0.07821 0.0
Mg14 Mg 0.90567 0.98551 0.38886 0.0
O15 O 0.97871 0.01847 0.40277 0.0
O16 O 0.99122 0.08055 0.41763 0.0
Mg17 Mg 0.92719 0.08899 0.41256 0.0
C18 C 0.00438 0.05266 0.41281 0.0
C19 C 0.94026 0.91725 0.38121 0.0
O20 O 0.9447 0.92052 0.39624 0.0
O21 O 0.93981 0.04552 0.37277 0.0
O22 O 0.95132 0.10601 0.38831 0.0
O23 O 0.8694 0.94182 0.40834 0.0
O24 O 0.88177 0.01297 0.40552 0.0
C25 C 0.95466 0.08926 0.37538 0.0
C26 C 0.86803 0.97769 0.41387 0.0
O27 O 0.92483 0.94028 0.3744 0.0
Mg28 Mg 0.03957 0.04366 0.71339 0.0
O29 O 0.08386 0.10852 0.73 0.0
O30 O 0.03535 0.11826 0.74493 0.0
Mg31 Mg 0.958 0.05845 0.73723 0.0
C32 C 0.07748 0.13115 0.74077 0.0
C33 C 0.12031 0.03923 0.69763 0.0
O34 O 0.09268 0.99495 0.70094 0.0
O35 O 0.01663 0.08466 0.69893 0.0
O36 O 0.96549 0.09003 0.71394 0.0
O37 O 0.04288 -0.00131 0.73089 0.0
O38 O 0.98484 0.01425 0.7283 0.0
C39 C 0.98699 0.09784 0.70151 0.0
C40 C 0.00422 0.99523 0.73582 0.0
O41 O 0.10715 0.06816 0.70075 0.0
H42 H 0.01108 0.47993 0.12703 0.0
H43 H 0.15759 0.86115 0.2602 0.0
H44 H 0.95962 0.44886 0.2161 0.0
H45 H 0.9305 0.37053 0.20358 0.0
H46 H 0.07825 0.40504 0.20261 0.0
H47 H 0.10696 0.48318 0.21533 0.0
H48 H 0.98354 0.50377 0.19155 0.0
H49 H 0.98027 0.48604 0.16401 0.0
H50 H 0.13678 0.56138 0.16617 0.0
H51 H 0.13943 0.57829 0.19378 0.0
H52 H 0.0069 0.60248 0.1986 0.0
H53 H 0.01841 0.6575 0.17913 0.0
H54 H 0.17358 0.72957 0.18841 0.0
H55 H 0.16157 0.67412 0.20789 0.0
H56 H 0.00729 0.63301 0.2373 0.0
H57 H 0.01971 0.70904 0.24677 0.0
H58 H 0.17476 0.7723 0.24674 0.0
H59 H 0.16173 0.69589 0.23743 0.0
H60 H 0.97937 0.54039 0.25523 0.0
H61 H 0.96224 0.571 0.27833 0.0
H62 H 0.11538 0.67159 0.28809 0.0
H63 H 0.13237 0.64019 0.26498 0.0
H64 H 0.97152 0.45438 0.24547 0.0
H65 H 0.96498 0.3949 0.26247 0.0
H66 H 0.12016 0.47759 0.27246 0.0
H67 H 0.12635 0.53655 0.25533 0.0
O68 O 0.01318 0.48636 0.13798 0.0
O69 O 0.0937 0.53027 0.13943 0.0
O70 O 0.07163 0.79665 0.25601 0.0
O71 O 0.15162 0.83084 0.25627 0.0
C72 C 0.05238 0.5206 0.22198 0.0
C73 C 0.06363 0.55458 0.21119 0.0
C74 C 0.07587 0.6006 0.21611 0.0
C75 C 0.07586 0.61238 0.23173 0.0
C76 C 0.06501 0.57837 0.24255 0.0
C77 C 0.05465 0.53296 0.2377 0.0
C78 C 0.03528 0.47135 0.2166 0.0
C79 C 0.98551 0.43889 0.21355 0.0
C80 C 0.96899 0.39437 0.2064 0.0
C81 C 0.00211 0.38177 0.20218 0.0
C82 C 0.0519 0.41355 0.20599 0.0
C83 C 0.0684 0.4582 0.21313 0.0
C84 C 0.06169 0.54192 0.19464 0.0
C85 C 0.01702 0.51583 0.18608 0.0
C86 C 0.01529 0.50597 0.17034 0.0
C87 C 0.05828 0.52248 0.16288 0.0
C88 C 0.10301 0.54829 0.17156 0.0
C89 C 0.10465 0.55791 0.18731 0.0
C90 C 0.08342 0.63471 0.20464 0.0
C91 C 0.04332 0.63018 0.19639 0.0
C92 C 0.04999 0.66133 0.18524 0.0
C93 C 0.0969 0.69763 0.18224 0.0
C94 C 0.13705 0.7021 0.19058 0.0
C95 C 0.13032 0.67064 0.20168 0.0
C96 C 0.08362 0.65915 0.23663 0.0
C97 C 0.04387 0.66345 0.23926 0.0
C98 C 0.05108 0.70686 0.2447 0.0
C99 C 0.09827 0.74678 0.24752 0.0
C100 C 0.13798 0.74232 0.24468 0.0
C101 C 0.13068 0.69882 0.2393 0.0
C102 C 0.05706 0.58827 0.25842 0.0
C103 C 0.00935 0.56776 0.26266 0.0
C104 C -0.0004 0.58556 0.27576 0.0
C105 C 0.03746 0.62405 0.28482 0.0
C106 C 0.08559 0.64177 0.28131 0.0
C107 C 0.09534 0.62396 0.26815 0.0
C108 C 0.04945 0.49935 0.24909 0.0
C109 C 0.00401 0.45954 0.25134 0.0
C110 C 0.00039 0.42564 0.26098 0.0
C111 C 0.04215 0.43148 0.26864 0.0
C112 C 0.08741 0.47231 0.26674 0.0
C113 C 0.091 0.50593 0.257 0.0
C114 C 0.05633 0.51335 0.14607 0.0
C115 C 0.10616 0.79282 0.25351 0.0
H116 H 0.55101 0.05218 0.4491 0.0
H117 H 0.32263 0.19378 0.56905 0.0
H118 H 0.57582 0.04907 0.53306 0.0
H119 H 0.63364 0.02641 0.52678 0.0
H120 H 0.75165 0.17118 0.53702 0.0
H121 H 0.69307 0.19374 0.54306 0.0
H122 H 0.50236 0.05421 0.51255 0.0
H123 H 0.51052 0.04014 0.48554 0.0
H124 H 0.64094 0.17919 0.48659 0.0
H125 H 0.63201 0.19298 0.51357 0.0
H126 H 0.43049 0.06381 0.53079 0.0
H127 H 0.36885 0.05317 0.5114 0.0
H128 H 0.47147 0.18841 0.49459 0.0
H129 H 0.53277 0.19911 0.51428 0.0
H130 H 0.44109 0.08041 0.56625 0.0
H131 H 0.3717 0.08402 0.57407 0.0
H132 H 0.42975 0.21857 0.55406 0.0
H133 H 0.49931 0.21481 0.54649 0.0
H134 H 0.53416 0.08462 0.58361 0.0
H135 H 0.50932 0.08433 0.60943 0.0
H136 H 0.52132 0.21849 0.60369 0.0
H137 H 0.55117 0.22065 0.57849 0.0
H138 H 0.59892 0.07152 0.5673 0.0
H139 H 0.66117 0.07604 0.58501 0.0
H140 H 0.72309 0.22655 0.59352 0.0
H141 H 0.66127 0.22181 0.5753 0.0
O142 O 0.54842 0.05854 0.45977 0.0
O143 O 0.61539 0.13024 0.46093 0.0
O144 O 0.32158 0.12238 0.5763 0.0
O145 O 0.34966 0.19146 0.56609 0.0
C146 C 0.59459 0.13538 0.54265 0.0
C147 C 0.56138 0.13334 0.53135 0.0
C148 C 0.52286 0.13819 0.53572 0.0
C149 C 0.51776 0.14542 0.55135 0.0
C150 C 0.55192 0.14876 0.56265 0.0
C151 C 0.59047 0.14399 0.55825 0.0
C152 C 0.63034 0.12307 0.53832 0.0
C153 C 0.61415 0.07591 0.53385 0.0
C154 C 0.64725 0.06293 0.53052 0.0
C155 C 0.69718 0.09695 0.53159 0.0
C156 C 0.71336 0.14428 0.5361 0.0
C157 C 0.6801 0.15724 0.53949 0.0
C158 C 0.56635 0.12477 0.51496 0.0
C159 C 0.53245 0.0817 0.50689 0.0
C160 C 0.53731 0.0737 0.49148 0.0
C161 C 0.57634 0.10858 0.48389 0.0
C162 C 0.61041 0.15161 0.49208 0.0
C163 C 0.60544 0.15959 0.50748 0.0
C164 C 0.48585 0.13232 0.52396 0.0
C165 C 0.43951 0.09118 0.52295 0.0
C166 C 0.4046 0.08499 0.51179 0.0
C167 C 0.41547 0.11989 0.50144 0.0
C168 C 0.46202 0.16113 0.50249 0.0
C169 C 0.49702 0.16723 0.51365 0.0
C170 C 0.47532 0.14746 0.55588 0.0
C171 C 0.43882 0.11071 0.56362 0.0
C172 C 0.39919 0.11282 0.56804 0.0
C173 C 0.39521 0.15164 0.5647 0.0
C174 C 0.43171 0.18821 0.55683 0.0
C175 C 0.47142 0.18613 0.55246 0.0
C176 C 0.54435 0.1526 0.57912 0.0
C177 C 0.53342 0.11491 0.58818 0.0
C178 C 0.51831 0.11443 0.60287 0.0
C179 C 0.51205 0.15079 0.60859 0.0
C180 C 0.52597 0.18997 0.59981 0.0
C181 C 0.54257 0.19109 0.58529 0.0
C182 C 0.62589 0.14639 0.56997 0.0
C183 C 0.62592 0.10543 0.57301 0.0
C184 C 0.6613 0.10806 0.5832 0.0
C185 C 0.6971 0.1517 0.59064 0.0
C186 C 0.69636 0.19257 0.5878 0.0
C187 C 0.66092 0.18989 0.57753 0.0
C188 C 0.5814 0.09996 0.46752 0.0
C189 C 0.35321 0.15409 0.5694 0.0
H190 H 0.65275 0.69923 0.98535 0.0
H191 H 0.32389 0.32086 0.84118 0.0
H192 H 0.62248 0.71794 0.90094 0.0
H193 H 0.6912 0.78349 0.91633 0.0
H194 H 0.7664 0.70849 0.91452 0.0
H195 H 0.6967 0.64254 0.89948 0.0
H196 H 0.56567 0.65747 0.92269 0.0
H197 H 0.59503 0.68204 0.94958 0.0
H198 H 0.65385 0.59203 0.94854 0.0
H199 H 0.62457 0.56809 0.92158 0.0
H200 H 0.47998 0.55777 0.91953 0.0
H201 H 0.43662 0.49818 0.93787 0.0
H202 H 0.48916 0.41358 0.91835 0.0
H203 H 0.53369 0.47415 0.90048 0.0
H204 H 0.43204 0.52468 0.88437 0.0
H205 H 0.3577 0.45456 0.87284 0.0
H206 H 0.44231 0.39983 0.85517 0.0
H207 H 0.51614 0.46959 0.86702 0.0
H208 H 0.48652 0.58985 0.85705 0.0
H209 H 0.44003 0.54594 0.83332 0.0
H210 H 0.54017 0.50014 0.82604 0.0
H211 H 0.5854 0.54284 0.85015 0.0
H212 H 0.61169 0.70496 0.86837 0.0
H213 H 0.6764 0.76163 0.85318 0.0
H214 H 0.72644 0.66502 0.84748 0.0
H215 H 0.66302 0.60983 0.86321 0.0
O216 O 0.64028 0.68799 0.97484 0.0
O217 O 0.66781 0.63945 0.97397 0.0
O218 O 0.30996 0.37511 0.857 0.0
O219 O 0.35242 0.34795 0.84637 0.0
C220 C 0.60942 0.6322 0.89319 0.0
C221 C 0.57923 0.59991 0.90359 0.0
C222 C 0.53767 0.55662 0.89806 0.0
C223 C 0.52468 0.54689 0.88222 0.0
C224 C 0.55456 0.57979 0.87184 0.0
C225 C 0.59769 0.6217 0.87732 0.0
C226 C 0.65482 0.67572 0.89919 0.0
C227 C 0.65442 0.71641 0.90352 0.0
C228 C 0.69373 0.75377 0.91229 0.0
C229 C 0.73402 0.7509 0.91679 0.0
C230 C 0.73554 0.71134 0.91145 0.0
C231 C 0.69611 0.67394 0.90274 0.0
C232 C 0.59293 0.61096 0.92025 0.0
C233 C 0.58451 0.6428 0.92835 0.0
C234 C 0.60146 0.65687 0.94369 0.0
C235 C 0.62696 0.63914 0.9512 0.0
C236 C 0.63438 0.60639 0.94309 0.0
C237 C 0.61752 0.59246 0.92773 0.0
C238 C 0.50979 0.52006 0.90874 0.0
C239 C 0.48204 0.52634 0.91927 0.0
C240 C 0.45713 0.49219 0.92963 0.0
C241 C 0.45953 0.45122 0.92953 0.0
C242 C 0.48715 0.44503 0.91884 0.0
C243 C 0.51218 0.47928 0.90855 0.0
C244 C 0.47942 0.50232 0.87642 0.0
C245 C 0.43431 0.49719 0.87817 0.0
C246 C 0.39198 0.45724 0.87151 0.0
C247 C 0.39412 0.42177 0.86296 0.0
C248 C 0.43937 0.42656 0.86159 0.0
C249 C 0.4816 0.46636 0.86835 0.0
C250 C 0.53923 0.56945 0.85531 0.0
C251 C 0.49969 0.57216 0.84996 0.0
C252 C 0.47309 0.54691 0.83639 0.0
C253 C 0.48593 0.51882 0.82795 0.0
C254 C 0.52897 0.52082 0.83245 0.0
C255 C 0.55537 0.54587 0.84609 0.0
C256 C 0.63247 0.65321 0.86663 0.0
C257 C 0.63636 0.69599 0.86365 0.0
C258 C 0.67326 0.72818 0.85498 0.0
C259 C 0.70667 0.71786 0.84918 0.0
C260 C 0.7018 0.67435 0.85198 0.0
C261 C 0.66518 0.64246 0.86073 0.0
C262 C 0.64622 0.65533 0.96736 0.0
C263 C 0.34954 0.38024 0.85532 0.0
H264 H 0.05269 0.12415 0.10672 0.0
H265 H 0.01878 0.14411 0.12792 0.0
H266 H 0.98409 0.22443 0.09848 0.0
H267 H 0.01897 0.2056 0.07729 0.0
H268 H 0.03906 0.27726 0.1225 0.0
H269 H 0.89504 0.12437 0.11437 0.0
H270 H 0.84596 0.03732 0.1105 0.0
H271 H 0.89905 0.02587 0.15469 0.0
H272 H 0.94901 0.1129 0.15875 0.0
H273 H 0.94225 0.35358 0.17642 0.0
H274 H 0.93079 0.29538 0.15621 0.0
H275 H 0.01494 0.25653 0.18398 0.0
H276 H 0.02692 0.31524 0.20436 0.0
H277 H 0.92725 0.17848 0.16095 0.0
H278 H 0.08098 0.33126 0.16642 0.0
H279 H 0.12823 0.41829 0.17054 0.0
H280 H 0.0551 0.42819 0.13039 0.0
H281 H 0.00621 0.34107 0.12636 0.0
C282 C 0.03681 0.14514 0.10464 0.0
C283 C 0.03932 0.16403 0.09039 0.0
C284 C 0.01712 0.15626 0.11677 0.0
C285 C -0.00102 0.18583 0.11479 0.0
C286 C -0.00187 0.20173 0.10026 0.0
C287 C 0.01818 0.19101 0.08817 0.0
C288 C 0.98793 0.20596 0.12823 0.0
C289 C 0.01383 0.25544 0.1307 0.0
C290 C 0.95612 0.17761 0.1392 0.0
C291 C 0.92612 0.12522 0.13681 0.0
C292 C 0.89659 0.10332 0.12322 0.0
C293 C 0.86854 0.05396 0.12099 0.0
C294 C 0.86947 0.02608 0.13232 0.0
C295 C 0.89839 0.04751 0.14592 0.0
C296 C 0.92654 0.09686 0.14819 0.0
C297 C 0.95663 0.33131 0.17851 0.0
C298 C 0.98586 0.33912 0.19188 0.0
C299 C 0.94993 0.29802 0.16697 0.0
C300 C 0.97209 0.27193 0.16867 0.0
C301 C -0.00274 0.27619 0.18258 0.0
C302 C 0.00451 0.31 0.1941 0.0
C303 C 0.97822 0.24916 0.15494 0.0
C304 C 0.95188 0.19972 0.15254 0.0
C305 C 0.00966 0.2773 0.14395 0.0
C306 C 0.03946 0.32969 0.14622 0.0
C307 C 0.07451 0.35199 0.1586 0.0
C308 C 0.10159 0.40133 0.16092 0.0
C309 C 0.09452 0.42878 0.15079 0.0
C310 C 0.06035 0.40692 0.1383 0.0
C311 C 0.03287 0.35755 0.136 0.0
H312 H 0.11573 0.46697 0.15258 0.0
H313 H 0.84772 0.98788 0.13058 0.0
H314 H 0.85269 0.91683 0.43632 0.0
H315 H 0.83777 0.92597 0.46318 0.0
H316 H 0.84478 0.05566 0.45422 0.0
H317 H 0.85736 0.04594 0.42756 0.0
H318 H 0.90195 0.05888 0.48198 0.0
H319 H 0.73982 0.9644 0.45361 0.0
H320 H 0.67665 0.89232 0.43845 0.0
H321 H 0.67718 0.80652 0.47364 0.0
H322 H 0.7408 0.8782 0.48892 0.0
H323 H 0.77119 0.14356 0.51317 0.0
H324 H 0.81666 0.11373 0.50103 0.0
H325 H 0.7457 0.98901 0.52656 0.0
H326 H 0.69944 0.01883 0.53871 0.0
H327 H 0.73375 0.96399 0.49777 0.0
H328 H 0.87206 0.06388 0.53001 0.0
H329 H 0.93403 0.13583 0.54541 0.0
H330 H 0.98152 0.21035 0.50463 0.0
H331 H 0.91938 0.13918 0.48898 0.0
C332 C 0.85089 0.94718 0.44011 0.0
C333 C 0.85698 0.9811 0.42987 0.0
C334 C 0.84278 0.95247 0.45543 0.0
C335 C 0.84126 0.99199 0.46066 0.0
C336 C 0.84698 0.02551 0.45044 0.0
C337 C 0.85419 0.01987 0.43518 0.0
C338 C 0.83047 -0.002 0.47646 0.0
C339 C 0.86545 0.03799 0.48565 0.0
C340 C 0.78351 0.9693 0.48145 0.0
C341 C 0.74541 0.92644 0.47228 0.0
C342 C 0.72673 0.9301 0.45804 0.0
C343 C 0.69081 0.88936 0.44945 0.0
C344 C 0.67304 0.84484 0.45506 0.0
C345 C 0.69107 0.841 0.46929 0.0
C346 C 0.72705 0.88165 0.47792 0.0
C347 C 0.76649 0.11061 0.51662 0.0
C348 C 0.73147 0.0833 0.52676 0.0
C349 C 0.79274 0.09358 0.50972 0.0
C350 C 0.78494 0.0492 0.51296 0.0
C351 C 0.75235 0.02334 0.5239 0.0
C352 C 0.72583 0.04028 0.53076 0.0
C353 C 0.80444 0.02714 0.50294 0.0
C354 C 0.77109 0.98396 0.49475 0.0
C355 C 0.85314 0.0528 0.49899 0.0
C356 C 0.89094 0.09598 0.5083 0.0
C357 C 0.89553 0.09566 0.52431 0.0
C358 C 0.93074 0.13634 0.5331 0.0
C359 C 0.96171 0.17762 0.526 0.0
C360 C 0.95757 0.17831 0.51011 0.0
C361 C 0.92242 0.13773 0.50127 0.0
H362 H 0.98893 0.20909 0.53283 0.0
H363 H 0.64521 0.81334 0.44839 0.0
H364 H 0.04345 0.96372 0.75688 0.0
H365 H 0.00768 0.92436 0.78015 0.0
H366 H 0.88356 0.93553 0.76975 0.0
H367 H 0.91886 0.97481 0.74676 0.0
H368 H 0.91308 0.95771 0.79964 0.0
H369 H 0.88209 0.83359 0.76084 0.0
H370 H 0.90686 0.79325 0.74258 0.0
H371 H 0.98817 0.77721 0.77896 0.0
H372 H 0.9643 0.81799 0.79741 0.0
H373 H 0.70305 0.77295 0.82756 0.0
H374 H 0.7686 0.82846 0.81258 0.0
H375 H 0.86609 0.79572 0.83543 0.0
H376 H 0.8009 0.7408 0.85078 0.0
H377 H 0.86828 0.79159 0.80401 0.0
H378 H 0.88304 0.90061 0.84358 0.0
H379 H 0.85518 0.93857 0.86161 0.0
H380 H 0.80316 0.98235 0.82398 0.0
H381 H 0.83 0.94401 0.8057 0.0
C382 C 0.00865 0.95793 0.75963 0.0
C383 C 0.98399 0.97244 0.75003 0.0
C384 C 0.98833 0.93551 0.7729 0.0
C385 C 0.94297 0.92701 0.77663 0.0
C386 C 0.9188 0.94213 0.76715 0.0
C387 C 0.93903 0.96453 0.75398 0.0
C388 C 0.9189 0.90057 0.78997 0.0
C389 C 0.90329 0.9214 0.80064 0.0
C390 C 0.90766 0.85381 0.79153 0.0
C391 C 0.92197 0.82937 0.78044 0.0
C392 C 0.90558 0.8218 0.76491 0.0
C393 C 0.91938 0.7988 0.75454 0.0
C394 C 0.94922 0.78283 0.75959 0.0
C395 C 0.96518 0.78971 0.77505 0.0
C396 C 0.95152 0.81275 0.78547 0.0
C397 C 0.73861 0.77812 0.82961 0.0
C398 C 0.74674 0.75243 0.84034 0.0
C399 C 0.776 0.8098 0.82103 0.0
C400 C 0.82221 0.81643 0.82304 0.0
C401 C 0.83063 0.79105 0.83376 0.0
C402 C 0.79328 0.75951 0.84242 0.0
C403 C 0.86066 0.84807 0.81325 0.0
C404 C 0.8791 0.8283 0.8033 0.0
C405 C 0.87436 0.89576 0.81231 0.0
C406 C 0.85836 0.91919 0.82326 0.0
C407 C 0.86536 0.91804 0.83914 0.0
C408 C 0.84979 0.93967 0.84941 0.0
C409 C 0.82737 0.96281 0.84394 0.0
C410 C 0.82055 0.96442 0.8282 0.0
C411 C 0.83601 0.9428 0.81788 0.0
H412 H 0.81533 0.97953 0.85191 0.0
H413 H 0.95985 0.76501 0.75154 0.0
H414 H 0.07615 0.96425 0.08201 0.0
H415 H 0.06997 0.89809 0.0952 0.0
H416 H 0.16354 0.9949 0.1329 0.0
H417 H 0.17025 0.06111 0.1198 0.0
H418 H 0.19098 0.93373 0.12327 0.0
H419 H 0.04311 0.92587 0.13588 0.0
H420 H 0.96501 0.91912 0.12979 0.0
H421 H 0.9116 0.78541 0.10476 0.0
H422 H 0.98966 0.79169 0.11053 0.0
H423 H 0.15616 0.79366 0.18516 0.0
H424 H 0.16264 0.85008 0.16701 0.0
H425 H 0.05905 0.73464 0.13532 0.0
H426 H 0.05213 0.67794 0.15355 0.0
H427 H 0.0357 0.799 0.1386 0.0
H428 H 0.17895 0.80153 0.12795 0.0
H429 H 0.25663 0.807 0.13349 0.0
H430 H 0.31893 0.94844 0.15369 0.0
H431 H 0.24139 0.9436 0.14848 0.0
C432 C 0.09514 0.97139 0.09315 0.0
C433 C 0.12375 0.01789 0.09986 0.0
C434 C 0.09153 0.93358 0.10066 0.0
C435 C 0.11629 0.94173 0.11501 0.0
C436 C 0.14437 0.988 0.12179 0.0
C437 C 0.14796 0.02573 0.11432 0.0
C438 C 0.11375 0.90233 0.12297 0.0
C439 C 0.15712 0.90441 0.12675 0.0
C440 C 0.06931 0.86328 0.12693 0.0
C441 C 0.0224 0.85952 0.12348 0.0
C442 C 0.01486 0.89523 0.12896 0.0
C443 C 0.97057 0.89145 0.12559 0.0
C444 C 0.93342 0.85193 0.11685 0.0
C445 C 0.94043 0.81604 0.1115 0.0
C446 C 0.98468 0.81968 0.11483 0.0
C447 C 0.13544 0.78032 0.17421 0.0
C448 C 0.10361 0.7315 0.17075 0.0
C449 C 0.13919 0.81254 0.16384 0.0
C450 C 0.11167 0.79651 0.14975 0.0
C451 C 0.08057 0.74772 0.14613 0.0
C452 C 0.07658 0.71545 0.15655 0.0
C453 C 0.11316 0.83094 0.13929 0.0
C454 C 0.06958 0.82792 0.13498 0.0
C455 C 0.15741 0.86895 0.13473 0.0
C456 C 0.20418 0.87205 0.13792 0.0
C457 C 0.20908 0.83367 0.13368 0.0
C458 C 0.25313 0.83669 0.13674 0.0
C459 C 0.29266 0.87801 0.14396 0.0
C460 C 0.28826 0.91644 0.14811 0.0
C461 C 0.24428 0.9136 0.14508 0.0
H462 H 0.32674 0.88028 0.14631 0.0
H463 H 0.89915 0.84906 0.11426 0.0
H464 H 0.0788 0.13136 0.42879 0.0
H465 H 0.15276 0.14114 0.44084 0.0
H466 H 0.10767 -0.00066 0.42409 0.0
H467 H 0.03368 0.98928 0.41183 0.0
H468 H 0.13531 0.01997 0.45583 0.0
H469 H 0.19642 0.08452 0.40824 0.0
H470 H 0.21154 0.13577 0.38697 0.0
H471 H 0.29314 0.25926 0.41807 0.0
H472 H 0.27788 0.20872 0.43959 0.0
H473 H 0.35275 0.04018 0.48327 0.0
H474 H 0.28651 0.02774 0.46556 0.0
H475 H 0.32687 0.17231 0.47572 0.0
H476 H 0.39326 0.18501 0.49344 0.0
H477 H 0.30218 0.14628 0.4455 0.0
H478 H 0.23572 0.08388 0.49314 0.0
H479 H 0.21953 0.03444 0.51499 0.0
H480 H 0.14656 0.90894 0.48444 0.0
H481 H 0.16297 0.95773 0.46236 0.0
C482 C 0.08471 0.10233 0.42757 0.0
C483 C 0.05029 0.05947 0.4194 0.0
C484 C 0.12709 0.10809 0.43439 0.0
C485 C 0.13561 0.07102 0.43327 0.0
C486 C 0.10164 0.02835 0.42502 0.0
C487 C 0.05951 0.02275 0.41801 0.0
C488 C 0.17883 0.07617 0.44144 0.0
C489 C 0.17187 0.04693 0.45338 0.0
C490 C 0.22628 0.11223 0.43846 0.0
C491 C 0.23562 0.14279 0.42555 0.0
C492 C 0.21722 0.1226 0.41057 0.0
C493 C 0.22589 0.15153 0.39847 0.0
C494 C 0.25319 0.20074 0.40117 0.0
C495 C 0.27196 0.22113 0.41599 0.0
C496 C 0.26335 0.19235 0.42815 0.0
C497 C 0.34752 0.06931 0.4817 0.0
C498 C 0.37784 0.11344 0.48984 0.0
C499 C 0.30979 0.0622 0.47156 0.0
C500 C 0.30144 0.09893 0.4695 0.0
C501 C 0.33277 0.14353 0.47716 0.0
C502 C 0.37067 0.15074 0.48725 0.0
C503 C 0.25866 0.09025 0.45996 0.0
C504 C 0.26566 0.11892 0.44781 0.0
C505 C 0.21112 0.05391 0.46283 0.0
C506 C 0.20108 0.02448 0.47608 0.0
C507 C 0.21658 0.04576 0.49107 0.0
C508 C 0.20731 0.01785 0.5035 0.0
C509 C 0.18216 0.96858 0.5011 0.0
C510 C 0.16612 0.94711 0.48627 0.0
C511 C 0.17539 0.97487 0.4738 0.0
H512 H 0.17499 0.94703 0.51074 0.0
H513 H 0.25988 0.22308 0.39178 0.0
H514 H 0.17241 0.16885 0.73495 0.0
H515 H 0.2437 0.23648 0.74852 0.0
H516 H 0.15214 0.25729 0.77787 0.0
H517 H 0.08033 0.18907 0.7645 0.0
H518 H 0.27491 0.32843 0.75258 0.0
H519 H 0.20963 0.2939 0.81392 0.0
H520 H 0.15458 0.22685 0.82876 0.0
H521 H 0.1719 0.13203 0.79897 0.0
H522 H 0.22758 0.19858 0.7841 0.0
H523 H 0.42903 0.52661 0.80576 0.0
H524 H 0.36195 0.46205 0.78947 0.0
H525 H 0.39559 0.36341 0.80764 0.0
H526 H 0.4611 0.42706 0.82431 0.0
H527 H 0.30312 0.33049 0.80872 0.0
H528 H 0.41901 0.39763 0.77084 0.0
H529 H 0.47837 0.46084 0.75564 0.0
H530 H 0.36812 0.48373 0.73788 0.0
H531 H 0.30821 0.42105 0.75314 0.0
C532 C 0.16725 0.18776 0.74428 0.0
C533 C 0.12056 0.17326 0.74871 0.0
C534 C 0.20813 0.2266 0.75196 0.0
C535 C 0.20322 0.25163 0.76426 0.0
C536 C 0.1567 0.23803 0.76852 0.0
C537 C 0.11571 0.19909 0.76084 0.0
C538 C 0.24697 0.29117 0.77287 0.0
C539 C 0.28107 0.32902 0.76487 0.0
C540 C 0.25536 0.29141 0.78884 0.0
C541 C 0.22227 0.25116 0.79779 0.0
C542 C 0.20177 0.25876 0.81057 0.0
C543 C 0.17047 0.22084 0.81898 0.0
C544 C 0.15959 0.17518 0.81477 0.0
C545 C 0.18017 0.16738 0.80218 0.0
C546 C 0.21156 0.20518 0.79374 0.0
C547 C 0.42242 0.49124 0.80613 0.0
C548 C 0.45061 0.48205 0.81625 0.0
C549 C 0.38428 0.45444 0.79677 0.0
C550 C 0.37392 0.40794 0.7973 0.0
C551 C 0.40298 0.39902 0.80703 0.0
C552 C 0.4409 0.43564 0.81641 0.0
C553 C 0.33108 0.368 0.78846 0.0
C554 C 0.29697 0.33009 0.79644 0.0
C555 C 0.32331 0.36726 0.77243 0.0
C556 C 0.35924 0.40497 0.76325 0.0
C557 C 0.40751 0.41641 0.76379 0.0
C558 C 0.44124 0.45209 0.75515 0.0
C559 C 0.42706 0.47638 0.74583 0.0
C560 C 0.37907 0.46494 0.74511 0.0
C561 C 0.3452 0.42931 0.75375 0.0
H562 H 0.45322 0.50398 0.73914 0.0
H563 H 0.13532 0.14587 0.82129 0.0
H564 H 0.92912 0.13403 0.70352 0.0
H565 H 0.8957 0.15654 0.68267 0.0
H566 H 0.98103 0.13378 0.65105 0.0
H567 H 0.01414 0.11 0.6719 0.0
H568 H 0.92551 0.22016 0.66168 0.0
H569 H 0.90844 0.07884 0.61813 0.0
H570 H 0.90829 0.00459 0.6172 0.0
H571 H 0.85086 0.97531 0.66147 0.0
H572 H 0.85018 0.04908 0.66256 0.0
H573 H 0.79426 0.21903 0.59316 0.0
H574 H 0.85703 0.2214 0.61025 0.0
H575 H 0.74869 0.09231 0.62882 0.0
H576 H 0.68591 0.09004 0.61202 0.0
H577 H 0.82764 0.0894 0.62182 0.0
H578 H 0.79211 0.19691 0.64831 0.0
H579 H 0.78492 0.26691 0.65091 0.0
H580 H 0.93583 0.35737 0.64351 0.0
H581 H 0.94373 0.28775 0.64066 0.0
C582 C 0.94146 0.1344 0.69219 0.0
C583 C 0.9736 0.11926 0.68933 0.0
C584 C 0.92252 0.14767 0.68029 0.0
C585 C 0.93531 0.14615 0.66528 0.0
C586 C 0.9702 0.13456 0.66254 0.0
C587 C 0.98912 0.12105 0.67447 0.0
C588 C 0.90772 0.15141 0.65253 0.0
C589 C 0.90471 0.19194 0.6528 0.0
C590 C 0.88014 0.11433 0.64106 0.0
C591 C 0.87989 0.0697 0.64049 0.0
C592 C 0.89573 0.05648 0.62764 0.0
C593 C 0.89578 0.0145 0.62709 0.0
C594 C 0.87976 0.98535 0.6393 0.0
C595 C 0.86344 -0.00199 0.65205 0.0
C596 C 0.86325 0.0399 0.65264 0.0
C597 C 0.78381 0.19147 0.60102 0.0
C598 C 0.73516 0.15428 0.60123 0.0
C599 C 0.81971 0.19275 0.61069 0.0
C600 C 0.80744 0.15697 0.62075 0.0
C601 C 0.75893 0.12 0.62102 0.0
C602 C 0.72313 0.11873 0.6114 0.0
C603 C 0.84467 0.15769 0.63117 0.0
C604 C 0.84951 0.11827 0.63041 0.0
C605 C 0.87308 0.19532 0.64237 0.0
C606 C 0.86835 0.23712 0.64407 0.0
C607 C 0.82364 0.23169 0.6471 0.0
C608 C 0.81946 0.2713 0.64865 0.0
C609 C 0.85986 0.31655 0.64732 0.0
C610 C 0.90455 0.32229 0.64449 0.0
C611 C 0.9089 0.28278 0.64291 0.0
H612 H 0.85656 0.34717 0.64854 0.0
H613 H 0.87987 0.9529 0.63886 0.0
H614 H 0.02255 -0.0029 0.03465 0.0
H615 H 0.96682 0.93773 0.01462 0.0
H616 H 0.95686 0.04504 0.99188 0.0
H617 H 0.01176 0.1044 0.01189 0.0
H618 H 0.86946 0.9647 0.99195 0.0
H619 H 0.03026 0.00863 0.9796 0.0
H620 H 0.1113 0.02089 0.98464 0.0
H621 H 0.04666 0.87349 0.99203 0.0
H622 H 0.96516 0.8605 0.98725 0.0
H623 H 0.77593 0.84725 0.91839 0.0
H624 H 0.83145 0.90445 0.93897 0.0
H625 H 0.83235 0.79236 0.96163 0.0
H626 H 0.7763 0.73492 0.94132 0.0
H627 H 0.9235 0.87334 0.96192 0.0
H628 H 0.76278 0.82904 0.97372 0.0
H629 H 0.68178 0.81656 0.9684 0.0
H630 H 0.7462 0.96451 0.96196 0.0
H631 H 0.8277 0.97775 0.96699 0.0
C632 C 0.00824 0.00804 0.02546 0.0
C633 C 0.02196 0.05563 0.02483 0.0
C634 C 0.97656 0.97409 0.01399 0.0
C635 C 0.9583 0.98718 0.00167 0.0
C636 C 0.97065 0.03425 0.00128 0.0
C637 C 0.0022 0.06816 0.01272 0.0
C638 C 0.9273 0.95222 0.98893 0.0
C639 C 0.88147 0.9451 0.98528 0.0
C640 C 0.94267 0.92601 0.98043 0.0
C641 C 0.99163 0.9337 0.98322 0.0
C642 C 0.03332 0.97891 0.98242 0.0
C643 C 0.07934 0.98598 0.98521 0.0
C644 C 0.08412 0.94802 0.98869 0.0
C645 C 0.04289 0.90288 0.98935 0.0
C646 C -0.00321 0.89563 0.98659 0.0
C647 C 0.78811 0.83485 0.92773 0.0
C648 C 0.77172 0.78658 0.92823 0.0
C649 C 0.81982 0.86752 0.93945 0.0
C650 C 0.83552 0.85243 0.95186 0.0
C651 C 0.82071 0.80464 0.95211 0.0
C652 C 0.7889 0.77195 0.94044 0.0
C653 C 0.8659 0.88614 0.9649 0.0
C654 C 0.91152 0.89294 0.96861 0.0
C655 C 0.85036 0.91205 0.97346 0.0
C656 C 0.80137 0.9043 0.97058 0.0
C657 C 0.7597 0.85886 0.97105 0.0
C658 C 0.71369 0.85165 0.96811 0.0
C659 C 0.70885 0.8897 0.96481 0.0
C660 C 0.75001 0.93506 0.96449 0.0
C661 C 0.79613 0.94244 0.9674 0.0
H662 H 0.6732 0.88406 0.96253 0.0
H663 H 0.11977 0.95356 0.99085 0.0
H664 H 0.91724 0.88731 0.3509 0.0
H665 H 0.93441 0.83383 0.33659 0.0
H666 H 0.00704 0.824 0.37714 0.0
H667 H 0.98969 0.8772 0.39162 0.0
H668 H 0.05802 0.83957 0.3498 0.0
H669 H 0.90044 0.73538 0.36784 0.0
H670 H 0.81528 0.70816 0.37182 0.0
H671 H 0.78302 0.69313 0.32321 0.0
H672 H 0.86819 0.72093 0.31894 0.0
H673 H 0.07642 0.65351 0.31441 0.0
H674 H 0.06002 0.6996 0.33303 0.0
H675 H 0.95906 0.69986 0.29967 0.0
H676 H 0.97435 0.65307 0.28133 0.0
H677 H 0.92292 0.68564 0.32612 0.0
H678 H 0.07764 0.79589 0.30735 0.0
H679 H 0.16264 0.82656 0.30198 0.0
H680 H 0.20041 0.83443 0.34997 0.0
H681 H 0.11542 0.80317 0.3556 0.0
C682 C 0.93699 0.8739 0.35677 0.0
C683 C 0.95193 0.88625 0.3724 0.0
C684 C 0.94662 0.84327 0.34859 0.0
C685 C 0.97162 0.8248 0.35587 0.0
C686 C 0.98758 0.83788 0.37137 0.0
C687 C 0.97748 0.86809 0.37961 0.0
C688 C 0.98067 0.7915 0.34725 0.0
C689 C 0.02862 0.80551 0.34482 0.0
C690 C 0.94213 0.74767 0.34054 0.0
C691 C 0.8908 0.73061 0.34308 0.0
C692 C 0.87528 0.72663 0.358 0.0
C693 C 0.82698 0.71103 0.36031 0.0
C694 C 0.79378 0.69902 0.34778 0.0
C695 C 0.80879 0.70248 0.33291 0.0
C696 C 0.85705 0.7181 0.33054 0.0
C697 C 0.0505 0.66321 0.31117 0.0
C698 C 0.02632 0.64947 0.29653 0.0
C699 C 0.04128 0.68962 0.32175 0.0
C700 C 0.00862 0.70357 0.31769 0.0
C701 C 0.98412 0.68926 0.30311 0.0
C702 C 0.99281 0.66244 0.29265 0.0
C703 C 0.00039 0.73397 0.32835 0.0
C704 C 0.9525 0.71942 0.33121 0.0
C705 C 0.03899 0.77769 0.33523 0.0
C706 C 0.0901 0.79668 0.33188 0.0
C707 C 0.10401 0.80383 0.31675 0.0
C708 C 0.15219 0.82137 0.31366 0.0
C709 C 0.18688 0.83231 0.32562 0.0
C710 C 0.17348 0.82586 0.34071 0.0
C711 C 0.12532 0.80825 0.34386 0.0
H712 H 0.22416 0.84589 0.32321 0.0
H713 H 0.75641 0.68695 0.34959 0.0
H714 H 0.19441 0.13056 0.69567 0.0
H715 H 0.27261 0.15806 0.68514 0.0
H716 H 0.23047 0.01329 0.67413 0.0
H717 H 0.15277 0.9855 0.68511 0.0
H718 H 0.32158 0.06313 0.68516 0.0
H719 H 0.22442 0.0834 0.64695 0.0
H720 H 0.17414 0.1131 0.63701 0.0
H721 H 0.2919 0.25629 0.64784 0.0
H722 H 0.34269 0.22736 0.65802 0.0
H723 H 0.43727 0.06871 0.61843 0.0
H724 H 0.38605 0.05989 0.63898 0.0
H725 H 0.4712 0.2104 0.65045 0.0
H726 H 0.52507 0.21968 0.6303 0.0
H727 H 0.37023 0.17099 0.64299 0.0
H728 H 0.47175 0.14591 0.67646 0.0
H729 H 0.51972 0.11185 0.68453 0.0
H730 H 0.3913 0.97266 0.68061 0.0
H731 H 0.34261 0.00576 0.67228 0.0
C732 C 0.20178 0.10457 0.69099 0.0
C733 C 0.16729 0.05585 0.69107 0.0
C734 C 0.2465 0.12036 0.68499 0.0
C735 C 0.25716 0.08775 0.67869 0.0
C736 C 0.22304 0.03908 0.67897 0.0
C737 C 0.17855 0.02325 0.68515 0.0
C738 C 0.30308 0.10412 0.67131 0.0
C739 C 0.33216 0.08657 0.6759 0.0
C740 C 0.31759 0.13579 0.65952 0.0
C741 C 0.28711 0.15323 0.65343 0.0
C742 C 0.23944 0.12121 0.64733 0.0
C743 C 0.21088 0.1379 0.64163 0.0
C744 C 0.22976 0.18655 0.64184 0.0
C745 C 0.27729 0.21861 0.64772 0.0
C746 C 0.30598 0.2021 0.65345 0.0
C747 C 0.44672 0.09993 0.62565 0.0
C748 C 0.48554 0.14504 0.6226 0.0
C749 C 0.41702 0.09473 0.63738 0.0
C750 C 0.425 0.13446 0.64622 0.0
C751 C 0.46465 0.17934 0.64372 0.0
C752 C 0.49507 0.18454 0.63211 0.0
C753 C 0.38797 0.12906 0.65657 0.0
C754 C 0.36035 0.14852 0.65251 0.0
C755 C 0.37443 0.09853 0.66863 0.0
C756 C 0.40354 0.07835 0.67366 0.0
C757 C 0.45376 0.10799 0.67719 0.0
C758 C 0.48108 0.08885 0.68184 0.0
C759 C 0.45858 0.04011 0.68306 0.0
C760 C 0.40869 0.01041 0.67966 0.0
C761 C 0.38119 0.02936 0.675 0.0
H762 H 0.4798 0.02537 0.68666 0.0
H763 H 0.2076 0.1994 0.63742 0.0
H764 H 0.26907 0.16069 0.03722 0.0
H765 H 0.31734 0.20089 0.01575 0.0
H766 H 0.22999 0.2609 0.00719 0.0
H767 H 0.1823 0.22165 0.02861 0.0
H768 H 0.24807 0.21862 0.98041 0.0
H769 H 0.3306 0.32807 0.02558 0.0
H770 H 0.37126 0.3497 0.05154 0.0
H771 H 0.47684 0.31999 0.03616 0.0
H772 H 0.43632 0.29753 0.01013 0.0
H773 H 0.36819 0.41753 0.9384 0.0
H774 H 0.32612 0.35984 0.95721 0.0
H775 H 0.44895 0.34434 0.96403 0.0
H776 H 0.4922 0.40372 0.94566 0.0
H777 H 0.41789 0.35317 0.99059 0.0
H778 H 0.34537 0.25657 0.94469 0.0
H779 H 0.30598 0.2334 0.91856 0.0
H780 H 0.18335 0.23427 0.93449 0.0
H781 H 0.22231 0.25819 0.96069 0.0
C782 C 0.26014 0.18239 0.03072 0.0
C783 C 0.22214 0.18838 0.03467 0.0
C784 C 0.28767 0.2052 0.01851 0.0
C785 C 0.277 0.23366 0.00998 0.0
C786 C 0.23852 0.23889 0.01368 0.0
C787 C 0.21157 0.21676 0.02602 0.0
C788 C 0.30683 0.25966 -0.0025 0.0
C789 C 0.28517 0.24814 0.98256 0.0
C790 C 0.35566 0.29683 0.00037 0.0
C791 C 0.38009 0.31054 0.01598 0.0
C792 C 0.36221 0.32572 0.02777 0.0
C793 C 0.38528 0.33822 0.04249 0.0
C794 C 0.42651 0.33606 0.04552 0.0
C795 C 0.44484 0.32154 0.03381 0.0
C796 C 0.42185 0.30894 0.01908 0.0
C797 C 0.38636 0.40205 0.94397 0.0
C798 C 0.43347 0.41514 0.94057 0.0
C799 C 0.36205 0.36864 0.95456 0.0
C800 C 0.38415 0.34727 0.96181 0.0
C801 C 0.43117 0.36019 0.95845 0.0
C802 C 0.45564 0.39382 0.9479 0.0
C803 C 0.35872 0.31321 0.97344 0.0
C804 C 0.38116 0.32309 0.98826 0.0
C805 C 0.31077 0.2741 0.9704 0.0
C806 C 0.28695 0.25948 0.95466 0.0
C807 C 0.31015 0.25216 0.94262 0.0
C808 C 0.28787 0.23884 0.92779 0.0
C809 C 0.24222 0.23244 0.92486 0.0
C810 C 0.21872 0.23925 0.93677 0.0
C811 C 0.24086 0.25263 0.95163 0.0
H812 H 0.22504 0.22213 0.91338 0.0
H813 H 0.44433 0.34576 0.05692 0.0
H814 H 0.93775 0.06854 0.34428 0.0
H815 H 0.96082 0.12556 0.32456 0.0
H816 H 0.03996 0.24075 0.3592 0.0
H817 H 0.01638 0.18441 0.37885 0.0
H818 H 0.97712 0.25142 0.34304 0.0
H819 H 0.09767 0.21531 0.33217 0.0
H820 H 0.12927 0.16427 0.32574 0.0
H821 H 0.04171 0.11541 0.28327 0.0
H822 H 0.00904 0.16569 0.28955 0.0
H823 H 0.0854 0.44501 0.29723 0.0
H824 H 0.0774 0.38442 0.31388 0.0
H825 H 0.98293 0.27518 0.27907 0.0
H826 H 0.99119 0.33573 0.26225 0.0
H827 H 0.05279 0.25979 0.29426 0.0
H828 H 0.93179 0.29602 0.30597 0.0
H829 H 0.90291 0.34926 0.31256 0.0
H830 H 0.99497 0.39957 0.35412 0.0
H831 H 0.02497 0.34711 0.34765 0.0
C832 C 0.96088 0.106 0.34761 0.0
C833 C 0.97466 0.12209 0.36311 0.0
C834 C 0.97413 0.13852 0.33635 0.0
C835 C 0.00188 0.18741 0.34045 0.0
C836 C 0.01815 0.20322 0.35581 0.0
C837 C 0.0046 0.17095 0.36702 0.0
C838 C 0.00991 0.22232 0.32916 0.0
C839 C 0.99434 0.2536 0.33249 0.0
C840 C 0.03108 0.2243 0.31519 0.0
C841 C 0.05048 0.19386 0.31141 0.0
C842 C 0.08478 0.19333 0.32153 0.0
C843 C 0.10297 0.16461 0.31789 0.0
C844 C 0.08739 0.1365 0.30412 0.0
C845 C 0.05368 0.13714 0.29394 0.0
C846 C 0.03533 0.16577 0.29753 0.0
C847 C 0.06341 0.40812 0.29306 0.0
C848 C 0.03857 0.39497 0.27852 0.0
C849 C 0.05881 0.37362 0.30257 0.0
C850 C 0.02939 0.32546 0.29769 0.0
C851 C 0.00581 0.31222 0.28299 0.0
C852 C 0.01013 0.34673 0.2735 0.0
C853 C 0.02075 0.28902 0.30836 0.0
C854 C 0.03576 0.25742 0.30486 0.0
C855 C -0.00068 0.28677 0.32226 0.0
C856 C 0.98095 0.31797 0.32625 0.0
C857 C 0.94615 0.31871 0.31645 0.0
C858 C 0.92954 0.3487 0.32018 0.0
C859 C 0.94718 0.37787 0.33373 0.0
C860 C 0.98138 0.377 0.34362 0.0
C861 C -0.00182 0.34712 0.33993 0.0
H862 H 0.93428 0.40107 0.3366 0.0
H863 H 0.10154 0.11431 0.30133 0.0
loop_
_geom_bond_atom_site_label_1
_geom_bond_atom_site_label_2
_geom_bond_distance
_geom_bond_site_symmetry_2
_ccdc_geom_bond_type
Mg0 O1 2.028 . S
Mg0 O7 1.986 . S
Mg0 O9 2.114 . S
Mg0 O10 2.251 . S
Mg0 O13 2.010 . S
O1 Mg0 2.028 . S
O1 C4 1.250 . S
O2 Mg3 2.028 . S
O2 C4 1.248 . S
Mg3 O2 2.028 . S
Mg3 O8 2.032 . S
Mg3 O10 2.079 . S
C4 O1 1.250 . S
C4 O2 1.248 . S
C5 O6 1.264 . S
C5 O13 1.249 . S
O6 C5 1.264 . S
O7 Mg0 1.986 . S
O7 C11 1.246 . S
O8 Mg3 2.032 . S
O8 C11 1.259 . S
O9 Mg0 2.114 . S
O9 C12 1.252 . S
O10 Mg0 2.251 . S
O10 Mg3 2.079 . S
O10 C12 1.273 . S
C11 O7 1.246 . S
C11 O8 1.259 . S
C12 O9 1.252 . S
C12 O10 1.273 . S
O13 Mg0 2.010 . S
O13 C5 1.249 . S
Mg14 O15 2.028 1_655 S
Mg14 O21 1.986 1_655 S
Mg14 O23 2.114 1_545 S
Mg14 O24 2.251 . S
Mg14 O27 2.010 1_545 S
O15 Mg14 2.028 1_455 S
O15 C18 1.250 . S
O16 Mg17 2.028 . S
O16 C18 1.248 . S
Mg17 O16 2.028 . S
Mg17 O22 2.032 . S
Mg17 O24 2.079 1_455 S
C18 O15 1.250 . S
C18 O16 1.248 . S
C19 O20 1.264 . S
C19 O27 1.249 . S
O20 C19 1.264 . S
O21 Mg14 1.986 1_455 S
O21 C25 1.246 . S
O22 Mg17 2.032 . S
O22 C25 1.259 . S
O23 Mg14 2.114 1_565 S
O23 C26 1.252 1_565 S
O24 Mg14 2.251 . S
O24 Mg17 2.079 1_655 S
O24 C26 1.273 . S
C25 O21 1.246 . S
C25 O22 1.259 . S
C26 O23 1.252 1_545 S
C26 O24 1.273 . S
O27 Mg14 2.010 1_565 S
O27 C19 1.249 . S
Mg28 O29 2.028 . S
Mg28 O35 1.986 . S
Mg28 O37 2.114 . S
Mg28 O38 2.251 . S
Mg28 O41 2.010 . S
O29 Mg28 2.028 . S
O29 C32 1.250 . S
O30 Mg31 2.028 . S
O30 C32 1.248 . S
Mg31 O30 2.028 . S
Mg31 O36 2.032 . S
Mg31 O38 2.079 . S
C32 O29 1.250 . S
C32 O30 1.248 . S
C33 O34 1.264 . S
C33 O41 1.249 . S
O34 C33 1.264 . S
O35 Mg28 1.986 . S
O35 C39 1.246 . S
O36 Mg31 2.032 . S
O36 C39 1.259 . S
O37 Mg28 2.114 . S
O37 C40 1.252 . S
O38 Mg28 2.251 . S
O38 Mg31 2.079 . S
O38 C40 1.273 . S
C39 O35 1.246 . S
C39 O36 1.259 . S
C40 O37 1.252 . S
C40 O38 1.273 . S
O41 Mg28 2.010 . S
O41 C33 1.249 . S
H42 O68 0.856 . S
H43 O71 0.854 . S
H44 C79 0.930 1_655 S
H45 C80 0.930 1_655 S
H46 C82 0.930 . S
H47 C83 0.930 . S
H48 C85 0.931 . S
H49 C86 0.930 . S
H50 C88 0.930 . S
H51 C89 0.929 . S
H52 C91 0.930 . S
H53 C92 0.931 . S
H54 C94 0.930 . S
H55 C95 0.929 . S
H56 C97 0.931 1_655 S
H57 C98 0.930 1_655 S
H58 C100 0.930 . S
H59 C101 0.932 . S
H60 C103 0.930 . S
H61 C104 0.929 . S
H62 C106 0.931 . S
H63 C107 0.930 . S
H64 C109 0.929 1_655 S
H65 C110 0.931 1_655 S
H66 C112 0.930 . S
H67 C113 0.929 . S
O68 H42 0.856 . S
O68 C114 1.300 . S
O69 C114 1.209 . S
O70 C115 1.199 . S
O71 H43 0.854 . S
O71 C115 1.297 . S
C72 C73 1.404 . S
C72 C77 1.397 . S
C72 C78 1.492 . S
C73 C72 1.404 . S
C73 C74 1.396 . S
C73 C84 1.492 . S
C74 C73 1.396 . S
C74 C75 1.397 . S
C74 C90 1.509 . S
C75 C74 1.397 . S
C75 C76 1.412 . S
C75 C96 1.485 . S
C76 C75 1.412 . S
C76 C77 1.388 . S
C76 C102 1.490 . S
C77 C72 1.397 . S
C77 C76 1.388 . S
C77 C108 1.519 . S
C78 C72 1.492 . S
C78 C79 1.363 . S
C78 C83 1.390 . S
C79 H44 0.930 1_455 S
C79 C78 1.363 . S
C79 C80 1.372 . S
C80 H45 0.930 1_455 S
C80 C79 1.372 . S
C80 C81 1.383 . S
C81 C80 1.383 . S
C81 C82 1.395 . S
C82 H46 0.930 . S
C82 C81 1.395 . S
C82 C83 1.362 . S
C83 H47 0.930 . S
C83 C78 1.390 . S
C83 C82 1.362 . S
C84 C73 1.492 . S
C84 C85 1.377 . S
C84 C89 1.397 . S
C85 H48 0.931 . S
C85 C84 1.377 . S
C85 C86 1.376 . S
C86 H49 0.930 . S
C86 C85 1.376 . S
C86 C87 1.376 . S
C87 C86 1.376 . S
C87 C88 1.378 . S
C87 C114 1.486 . S
C88 H50 0.930 . S
C88 C87 1.378 . S
C88 C89 1.376 . S
C89 H51 0.929 . S
C89 C84 1.397 . S
C89 C88 1.376 . S
C90 C74 1.509 . S
C90 C91 1.391 . S
C90 C95 1.386 . S
C91 H52 0.930 . S
C91 C90 1.391 . S
C91 C92 1.375 . S
C92 H53 0.931 . S
C92 C91 1.375 . S
C92 C93 1.375 . S
C93 C92 1.375 . S
C93 C94 1.361 . S
C94 H54 0.930 . S
C94 C93 1.361 . S
C94 C95 1.399 . S
C95 H55 0.929 . S
C95 C90 1.386 . S
C95 C94 1.399 . S
C96 C75 1.485 . S
C96 C97 1.394 . S
C96 C101 1.360 . S
C97 H56 0.931 1_455 S
C97 C96 1.394 . S
C97 C98 1.372 . S
C98 H57 0.930 1_455 S
C98 C97 1.372 . S
C98 C99 1.397 . S
C99 C98 1.397 . S
C99 C100 1.390 . S
C99 C115 1.476 . S
C100 H58 0.930 . S
C100 C99 1.390 . S
C100 C101 1.366 . S
C101 H59 0.932 . S
C101 C96 1.360 . S
C101 C100 1.366 . S
C102 C76 1.490 . S
C102 C103 1.380 1_455 S
C102 C107 1.386 . S
C103 H60 0.930 . S
C103 C102 1.380 1_655 S
C103 C104 1.381 . S
C104 H61 0.929 . S
C104 C103 1.381 . S
C104 C105 1.371 1_655 S
C105 C104 1.371 1_455 S
C105 C106 1.380 . S
C106 H62 0.931 . S
C106 C105 1.380 . S
C106 C107 1.387 . S
C107 H63 0.930 . S
C107 C102 1.386 . S
C107 C106 1.387 . S
C108 C77 1.519 . S
C108 C109 1.377 . S
C108 C113 1.361 . S
C109 H64 0.929 1_455 S
C109 C108 1.377 . S
C109 C110 1.386 . S
C110 H65 0.931 1_455 S
C110 C109 1.386 . S
C110 C111 1.363 . S
C111 C110 1.363 . S
C111 C112 1.385 . S
C112 H66 0.930 . S
C112 C111 1.385 . S
C112 C113 1.396 . S
C113 H67 0.929 . S
C113 C108 1.361 . S
C113 C112 1.396 . S
C114 O68 1.300 . S
C114 O69 1.209 . S
C114 C87 1.486 . S
C115 O70 1.199 . S
C115 O71 1.297 . S
C115 C99 1.476 . S
H116 O142 0.856 . S
H117 O145 0.854 . S
H118 C153 0.930 . S
H119 C154 0.930 . S
H120 C156 0.930 . S
H121 C157 0.930 . S
H122 C159 0.931 . S
H123 C160 0.930 . S
H124 C162 0.930 . S
H125 C163 0.929 . S
H126 C165 0.930 . S
H127 C166 0.931 . S
H128 C168 0.930 . S
H129 C169 0.929 . S
H130 C171 0.931 . S
H131 C172 0.930 . S
H132 C174 0.930 . S
H133 C175 0.932 . S
H134 C177 0.930 . S
H135 C178 0.929 . S
H136 C180 0.931 . S
H137 C181 0.930 . S
H138 C183 0.929 . S
H139 C184 0.931 . S
H140 C186 0.930 . S
H141 C187 0.929 . S
O142 H116 0.856 . S
O142 C188 1.300 . S
O143 C188 1.209 . S
O144 C189 1.199 . S
O145 H117 0.854 . S
O145 C189 1.297 . S
C146 C147 1.404 . S
C146 C151 1.397 . S
C146 C152 1.492 . S
C147 C146 1.404 . S
C147 C148 1.396 . S
C147 C158 1.492 . S
C148 C147 1.396 . S
C148 C149 1.397 . S
C148 C164 1.509 . S
C149 C148 1.397 . S
C149 C150 1.412 . S
C149 C170 1.485 . S
C150 C149 1.412 . S
C150 C151 1.388 . S
C150 C176 1.490 . S
C151 C146 1.397 . S
C151 C150 1.388 . S
C151 C182 1.519 . S
C152 C146 1.492 . S
C152 C153 1.363 . S
C152 C157 1.390 . S
C153 H118 0.930 . S
C153 C152 1.363 . S
C153 C154 1.372 . S
C154 H119 0.930 . S
C154 C153 1.372 . S
C154 C155 1.383 . S
C155 C154 1.383 . S
C155 C156 1.395 . S
C156 H120 0.930 . S
C156 C155 1.395 . S
C156 C157 1.362 . S
C157 H121 0.930 . S
C157 C152 1.390 . S
C157 C156 1.362 . S
C158 C147 1.492 . S
C158 C159 1.377 . S
C158 C163 1.397 . S
C159 H122 0.931 . S
C159 C158 1.377 . S
C159 C160 1.376 . S
C160 H123 0.930 . S
C160 C159 1.376 . S
C160 C161 1.376 . S
C161 C160 1.376 . S
C161 C162 1.378 . S
C161 C188 1.486 . S
C162 H124 0.930 . S
C162 C161 1.378 . S
C162 C163 1.376 . S
C163 H125 0.929 . S
C163 C158 1.397 . S
C163 C162 1.376 . S
C164 C148 1.509 . S
C164 C165 1.391 . S
C164 C169 1.386 . S
C165 H126 0.930 . S
C165 C164 1.391 . S
C165 C166 1.375 . S
C166 H127 0.931 . S
C166 C165 1.375 . S
C166 C167 1.375 . S
C167 C166 1.375 . S
C167 C168 1.361 . S
C168 H128 0.930 . S
C168 C167 1.361 . S
C168 C169 1.399 . S
C169 H129 0.929 . S
C169 C164 1.386 . S
C169 C168 1.399 . S
C170 C149 1.485 . S
C170 C171 1.394 . S
C170 C175 1.360 . S
C171 H130 0.931 . S
C171 C170 1.394 . S
C171 C172 1.372 . S
C172 H131 0.930 . S
C172 C171 1.372 . S
C172 C173 1.397 . S
C173 C172 1.397 . S
C173 C174 1.390 . S
C173 C189 1.476 . S
C174 H132 0.930 . S
C174 C173 1.390 . S
C174 C175 1.366 . S
C175 H133 0.932 . S
C175 C170 1.360 . S
C175 C174 1.366 . S
C176 C150 1.490 . S
C176 C177 1.380 . S
C176 C181 1.386 . S
C177 H134 0.930 . S
C177 C176 1.380 . S
C177 C178 1.381 . S
C178 H135 0.929 . S
C178 C177 1.381 . S
C178 C179 1.371 . S
C179 C178 1.371 . S
C179 C180 1.380 . S
C180 H136 0.931 . S
C180 C179 1.380 . S
C180 C181 1.387 . S
C181 H137 0.930 . S
C181 C176 1.386 . S
C181 C180 1.387 . S
C182 C151 1.519 . S
C182 C183 1.377 . S
C182 C187 1.361 . S
C183 H138 0.929 . S
C183 C182 1.377 . S
C183 C184 1.386 . S
C184 H139 0.931 . S
C184 C183 1.386 . S
C184 C185 1.363 . S
C185 C184 1.363 . S
C185 C186 1.385 . S
C186 H140 0.930 . S
C186 C185 1.385 . S
C186 C187 1.396 . S
C187 H141 0.929 . S
C187 C182 1.361 . S
C187 C186 1.396 . S
C188 O142 1.300 . S
C188 O143 1.209 . S
C188 C161 1.486 . S
C189 O144 1.199 . S
C189 O145 1.297 . S
C189 C173 1.476 . S
H190 O216 0.856 1_554 S
H191 O219 0.854 . S
H192 C227 0.930 . S
H193 C228 0.930 . S
H194 C230 0.930 . S
H195 C231 0.930 . S
H196 C233 0.931 . S
H197 C234 0.930 . S
H198 C236 0.930 . S
H199 C237 0.929 . S
H200 C239 0.930 . S
H201 C240 0.931 . S
H202 C242 0.930 . S
H203 C243 0.929 . S
H204 C245 0.931 . S
H205 C246 0.930 . S
H206 C248 0.930 . S
H207 C249 0.932 . S
H208 C251 0.930 . S
H209 C252 0.929 . S
H210 C254 0.931 . S
H211 C255 0.930 . S
H212 C257 0.929 . S
H213 C258 0.931 . S
H214 C260 0.930 . S
H215 C261 0.929 . S
O216 H190 0.856 1_556 S
O216 C262 1.300 . S
O217 C262 1.209 . S
O218 C263 1.199 . S
O219 H191 0.854 . S
O219 C263 1.297 . S
C220 C221 1.404 . S
C220 C225 1.397 . S
C220 C226 1.492 . S
C221 C220 1.404 . S
C221 C222 1.396 . S
C221 C232 1.492 . S
C222 C221 1.396 . S
C222 C223 1.397 . S
C222 C238 1.509 . S
C223 C222 1.397 . S
C223 C224 1.412 . S
C223 C244 1.485 . S
C224 C223 1.412 . S
C224 C225 1.388 . S
C224 C250 1.490 . S
C225 C220 1.397 . S
C225 C224 1.388 . S
C225 C256 1.519 . S
C226 C220 1.492 . S
C226 C227 1.363 . S
C226 C231 1.390 . S
C227 H192 0.930 . S
C227 C226 1.363 . S
C227 C228 1.372 . S
C228 H193 0.930 . S
C228 C227 1.372 . S
C228 C229 1.383 . S
C229 C228 1.383 . S
C229 C230 1.395 . S
C230 H194 0.930 . S
C230 C229 1.395 . S
C230 C231 1.362 . S
C231 H195 0.930 . S
C231 C226 1.390 . S
C231 C230 1.362 . S
C232 C221 1.492 . S
C232 C233 1.377 . S
C232 C237 1.397 . S
C233 H196 0.931 . S
C233 C232 1.377 . S
C233 C234 1.376 . S
C234 H197 0.930 . S
C234 C233 1.376 . S
C234 C235 1.376 . S
C235 C234 1.376 . S
C235 C236 1.378 . S
C235 C262 1.486 . S
C236 H198 0.930 . S
C236 C235 1.378 . S
C236 C237 1.376 . S
C237 H199 0.929 . S
C237 C232 1.397 . S
C237 C236 1.376 . S
C238 C222 1.509 . S
C238 C239 1.391 . S
C238 C243 1.386 . S
C239 H200 0.930 . S
C239 C238 1.391 . S
C239 C240 1.375 . S
C240 H201 0.931 . S
C240 C239 1.375 . S
C240 C241 1.375 . S
C241 C240 1.375 . S
C241 C242 1.361 . S
C242 H202 0.930 . S
C242 C241 1.361 . S
C242 C243 1.399 . S
C243 H203 0.929 . S
C243 C238 1.386 . S
C243 C242 1.399 . S
C244 C223 1.485 . S
C244 C245 1.394 . S
C244 C249 1.360 . S
C245 H204 0.931 . S
C245 C244 1.394 . S
C245 C246 1.372 . S
C246 H205 0.930 . S
C246 C245 1.372 . S
C246 C247 1.397 . S
C247 C246 1.397 . S
C247 C248 1.390 . S
C247 C263 1.476 . S
C248 H206 0.930 . S
C248 C247 1.390 . S
C248 C249 1.366 . S
C249 H207 0.932 . S
C249 C244 1.360 . S
C249 C248 1.366 . S
C250 C224 1.490 . S
C250 C251 1.380 . S
C250 C255 1.386 . S
C251 H208 0.930 . S
C251 C250 1.380 . S
C251 C252 1.381 . S
C252 H209 0.929 . S
C252 C251 1.381 . S
C252 C253 1.371 . S
C253 C252 1.371 . S
C253 C254 1.380 . S
C254 H210 0.931 . S
C254 C253 1.380 . S
C254 C255 1.387 . S
C255 H211 0.930 . S
C255 C250 1.386 . S
C255 C254 1.387 . S
C256 C225 1.519 . S
C256 C257 1.377 . S
C256 C261 1.361 . S
C257 H212 0.929 . S
C257 C256 1.377 . S
C257 C258 1.386 . S
C258 H213 0.931 . S
C258 C257 1.386 . S
C258 C259 1.363 . S
C259 C258 1.363 . S
C259 C260 1.385 . S
C260 H214 0.930 . S
C260 C259 1.385 . S
C260 C261 1.396 . S
C261 H215 0.929 . S
C261 C256 1.361 . S
C261 C260 1.396 . S
C262 O216 1.300 . S
C262 O217 1.209 . S
C262 C235 1.486 . S
C263 O218 1.199 . S
C263 O219 1.297 . S
C263 C247 1.476 . S
H264 C282 0.951 . S
H265 C284 0.951 . S
H266 C286 0.950 . S
H267 C287 0.950 . S
H268 C289 0.950 . S
H269 C292 0.950 . S
H270 C293 0.950 . S
H271 C295 0.950 . S
H272 C296 0.950 1_455 S
H273 C297 0.951 . S
H274 C299 0.951 . S
H275 C301 0.950 . S
H276 C302 0.950 . S
H277 C304 0.950 . S
H278 C307 0.950 . S
H279 C308 0.950 . S
H280 C310 0.950 . S
H281 C311 0.950 . S
C282 H264 0.951 . S
C282 C283 1.366 . S
C282 C284 1.388 . S
C283 C282 1.366 . S
C283 C287 1.385 . S
C284 H265 0.951 . S
C284 C282 1.388 . S
C284 C285 1.366 . S
C285 C284 1.366 . S
C285 C286 1.414 . S
C285 C288 1.499 . S
C286 H266 0.950 . S
C286 C285 1.414 . S
C286 C287 1.374 . S
C287 H267 0.950 . S
C287 C283 1.385 . S
C287 C286 1.374 . S
C288 C285 1.499 . S
C288 C289 1.373 . S
C288 C290 1.389 . S
C289 H268 0.950 . S
C289 C288 1.373 . S
C289 C305 1.377 . S
C290 C288 1.389 . S
C290 C291 1.524 1_455 S
C290 C304 1.377 . S
C291 C290 1.524 1_655 S
C291 C292 1.397 . S
C291 C296 1.363 . S
C292 H269 0.950 . S
C292 C291 1.397 . S
C292 C293 1.334 . S
C293 H270 0.950 . S
C293 C292 1.334 . S
C293 C294 1.287 . S
C294 C293 1.287 . S
C294 C295 1.524 . S
C294 H313 0.913 . S
C295 H271 0.950 . S
C295 C294 1.524 . S
C295 C296 1.415 . S
C296 H272 0.950 1_655 S
C296 C291 1.363 . S
C296 C295 1.415 . S
C297 H273 0.951 . S
C297 C298 1.366 . S
C297 C299 1.388 . S
C298 C297 1.366 . S
C298 C302 1.385 . S
C299 H274 0.951 . S
C299 C297 1.388 . S
C299 C300 1.366 . S
C300 C299 1.366 . S
C300 C301 1.414 . S
C300 C303 1.499 . S
C301 H275 0.950 . S
C301 C300 1.414 . S
C301 C302 1.374 . S
C302 H276 0.950 . S
C302 C298 1.385 . S
C302 C301 1.374 . S
C303 C300 1.499 . S
C303 C304 1.373 . S
C303 C305 1.389 . S
C304 H277 0.950 . S
C304 C290 1.377 . S
C304 C303 1.373 . S
C305 C289 1.377 . S
C305 C303 1.389 . S
C305 C306 1.524 . S
C306 C305 1.524 . S
C306 C307 1.397 . S
C306 C311 1.363 . S
C307 H278 0.950 . S
C307 C306 1.397 . S
C307 C308 1.334 . S
C308 H279 0.950 . S
C308 C307 1.334 . S
C308 C309 1.287 . S
C309 C308 1.287 . S
C309 C310 1.524 . S
C309 H312 0.999 . S
C310 H280 0.950 . S
C310 C309 1.524 . S
C310 C311 1.415 . S
C311 H281 0.950 . S
C311 C306 1.363 . S
C311 C310 1.415 . S
H312 C309 0.999 . S
H313 C294 0.913 . S
H314 C332 0.951 . S
H315 C334 0.951 . S
H316 C336 0.950 . S
H317 C337 0.950 . S
H318 C339 0.950 . S
H319 C342 0.950 1_545 S
H320 C343 0.950 . S
H321 C345 0.950 . S
H322 C346 0.950 . S
H323 C347 0.951 . S
H324 C349 0.951 . S
H325 C351 0.950 1_565 S
H326 C352 0.950 . S
H327 C354 0.950 1_565 S
H328 C357 0.950 . S
H329 C358 0.950 . S
H330 C360 0.950 . S
H331 C361 0.950 . S
C332 H314 0.951 . S
C332 C333 1.366 1_565 S
C332 C334 1.388 . S
C333 C332 1.366 1_545 S
C333 C337 1.385 . S
C334 H315 0.951 . S
C334 C332 1.388 . S
C334 C335 1.366 1_565 S
C335 C334 1.366 1_545 S
C335 C336 1.414 . S
C335 C338 1.499 . S
C336 H316 0.950 . S
C336 C335 1.414 . S
C336 C337 1.374 . S
C337 H317 0.950 . S
C337 C333 1.385 . S
C337 C336 1.374 . S
C338 C335 1.499 . S
C338 C339 1.373 . S
C338 C340 1.389 . S
C339 H318 0.950 . S
C339 C338 1.373 . S
C339 C355 1.377 . S
C340 C338 1.389 . S
C340 C341 1.524 1_545 S
C340 C354 1.377 . S
C341 C340 1.524 1_565 S
C341 C342 1.397 . S
C341 C346 1.363 . S
C342 H319 0.950 1_565 S
C342 C341 1.397 . S
C342 C343 1.334 . S
C343 H320 0.950 . S
C343 C342 1.334 . S
C343 C344 1.287 . S
C344 C343 1.287 . S
C344 C345 1.524 . S
C344 H363 0.913 . S
C345 H321 0.950 . S
C345 C344 1.524 . S
C345 C346 1.415 . S
C346 H322 0.950 . S
C346 C341 1.363 . S
C346 C345 1.415 . S
C347 H323 0.951 . S
C347 C348 1.366 . S
C347 C349 1.388 . S
C348 C347 1.366 . S
C348 C352 1.385 . S
C349 H324 0.951 . S
C349 C347 1.388 . S
C349 C350 1.366 . S
C350 C349 1.366 . S
C350 C351 1.414 . S
C350 C353 1.499 . S
C351 H325 0.950 1_545 S
C351 C350 1.414 . S
C351 C352 1.374 . S
C352 H326 0.950 . S
C352 C348 1.385 . S
C352 C351 1.374 . S
C353 C350 1.499 . S
C353 C354 1.373 . S
C353 C355 1.389 . S
C354 H327 0.950 1_545 S
C354 C340 1.377 . S
C354 C353 1.373 . S
C355 C339 1.377 . S
C355 C353 1.389 . S
C355 C356 1.524 . S
C356 C355 1.524 . S
C356 C357 1.397 . S
C356 C361 1.363 . S
C357 H328 0.950 . S
C357 C356 1.397 . S
C357 C358 1.334 . S
C358 H329 0.950 . S
C358 C357 1.334 . S
C358 C359 1.287 . S
C359 C358 1.287 . S
C359 C360 1.524 . S
C359 H362 0.999 . S
C360 H330 0.950 . S
C360 C359 1.524 . S
C360 C361 1.415 . S
C361 H331 0.950 . S
C361 C356 1.363 . S
C361 C360 1.415 . S
H362 C359 0.999 . S
H363 C344 0.913 . S
H364 C382 0.951 . S
H365 C384 0.951 . S
H366 C386 0.950 . S
H367 C387 0.950 . S
H368 C389 0.950 . S
H369 C392 0.950 . S
H370 C393 0.950 . S
H371 C395 0.950 . S
H372 C396 0.950 . S
H373 C397 0.951 . S
H374 C399 0.951 . S
H375 C401 0.950 . S
H376 C402 0.950 . S
H377 C404 0.950 . S
H378 C407 0.950 . S
H379 C408 0.950 . S
H380 C410 0.950 . S
H381 C411 0.950 . S
C382 H364 0.951 . S
C382 C383 1.366 1_455 S
C382 C384 1.388 1_455 S
C383 C382 1.366 1_655 S
C383 C387 1.385 . S
C384 H365 0.951 . S
C384 C382 1.388 1_655 S
C384 C385 1.366 . S
C385 C384 1.366 . S
C385 C386 1.414 . S
C385 C388 1.499 . S
C386 H366 0.950 . S
C386 C385 1.414 . S
C386 C387 1.374 . S
C387 H367 0.950 . S
C387 C383 1.385 . S
C387 C386 1.374 . S
C388 C385 1.499 . S
C388 C389 1.373 . S
C388 C390 1.389 . S
C389 H368 0.950 . S
C389 C388 1.373 . S
C389 C405 1.377 . S
C390 C388 1.389 . S
C390 C391 1.524 . S
C390 C404 1.377 . S
C391 C390 1.524 . S
C391 C392 1.397 . S
C391 C396 1.363 . S
C392 H369 0.950 . S
C392 C391 1.397 . S
C392 C393 1.334 . S
C393 H370 0.950 . S
C393 C392 1.334 . S
C393 C394 1.287 . S
C394 C393 1.287 . S
C394 C395 1.524 . S
C394 H413 0.913 . S
C395 H371 0.950 . S
C395 C394 1.524 . S
C395 C396 1.415 . S
C396 H372 0.950 . S
C396 C391 1.363 . S
C396 C395 1.415 . S
C397 H373 0.951 . S
C397 C398 1.366 . S
C397 C399 1.388 . S
C398 C397 1.366 . S
C398 C402 1.385 . S
C399 H374 0.951 . S
C399 C397 1.388 . S
C399 C400 1.366 . S
C400 C399 1.366 . S
C400 C401 1.414 . S
C400 C403 1.499 . S
C401 H375 0.950 . S
C401 C400 1.414 . S
C401 C402 1.374 . S
C402 H376 0.950 . S
C402 C398 1.385 . S
C402 C401 1.374 . S
C403 C400 1.499 . S
C403 C404 1.373 . S
C403 C405 1.389 . S
C404 H377 0.950 . S
C404 C390 1.377 . S
C404 C403 1.373 . S
C405 C389 1.377 . S
C405 C403 1.389 . S
C405 C406 1.524 . S
C406 C405 1.524 . S
C406 C407 1.397 . S
C406 C411 1.363 . S
C407 H378 0.950 . S
C407 C406 1.397 . S
C407 C408 1.334 . S
C408 H379 0.950 . S
C408 C407 1.334 . S
C408 C409 1.287 . S
C409 C408 1.287 . S
C409 C410 1.524 . S
C409 H412 0.999 . S
C410 H380 0.950 . S
C410 C409 1.524 . S
C410 C411 1.415 . S
C411 H381 0.950 . S
C411 C406 1.363 . S
C411 C410 1.415 . S
H412 C409 0.999 . S
H413 C394 0.913 . S
H414 C432 0.951 . S
H415 C434 0.951 . S
H416 C436 0.950 1_545 S
H417 C437 0.950 . S
H418 C439 0.950 . S
H419 C442 0.950 . S
H420 C443 0.950 . S
H421 C445 0.950 . S
H422 C446 0.950 . S
H423 C447 0.951 . S
H424 C449 0.951 . S
H425 C451 0.950 . S
H426 C452 0.950 . S
H427 C454 0.950 . S
H428 C457 0.950 . S
H429 C458 0.950 . S
H430 C460 0.950 . S
H431 C461 0.950 . S
C432 H414 0.951 . S
C432 C433 1.366 1_565 S
C432 C434 1.388 . S
C433 C432 1.366 1_545 S
C433 C437 1.385 . S
C434 H415 0.951 . S
C434 C432 1.388 . S
C434 C435 1.366 . S
C435 C434 1.366 . S
C435 C436 1.414 . S
C435 C438 1.499 . S
C436 H416 0.950 1_565 S
C436 C435 1.414 . S
C436 C437 1.374 1_565 S
C437 H417 0.950 . S
C437 C433 1.385 . S
C437 C436 1.374 1_545 S
C438 C435 1.499 . S
C438 C439 1.373 . S
C438 C440 1.389 . S
C439 H418 0.950 . S
C439 C438 1.373 . S
C439 C455 1.377 . S
C440 C438 1.389 . S
C440 C441 1.524 . S
C440 C454 1.377 . S
C441 C440 1.524 . S
C441 C442 1.397 . S
C441 C446 1.363 1_455 S
C442 H419 0.950 . S
C442 C441 1.397 . S
C442 C443 1.334 1_455 S
C443 H420 0.950 . S
C443 C442 1.334 1_655 S
C443 C444 1.287 . S
C444 C443 1.287 . S
C444 C445 1.524 . S
C444 H463 0.913 . S
C445 H421 0.950 . S
C445 C444 1.524 . S
C445 C446 1.415 . S
C446 H422 0.950 . S
C446 C441 1.363 1_655 S
C446 C445 1.415 . S
C447 H423 0.951 . S
C447 C448 1.366 . S
C447 C449 1.388 . S
C448 C447 1.366 . S
C448 C452 1.385 . S
C449 H424 0.951 . S
C449 C447 1.388 . S
C449 C450 1.366 . S
C450 C449 1.366 . S
C450 C451 1.414 . S
C450 C453 1.499 . S
C451 H425 0.950 . S
C451 C450 1.414 . S
C451 C452 1.374 . S
C452 H426 0.950 . S
C452 C448 1.385 . S
C452 C451 1.374 . S
C453 C450 1.499 . S
C453 C454 1.373 . S
C453 C455 1.389 . S
C454 H427 0.950 . S
C454 C440 1.377 . S
C454 C453 1.373 . S
C455 C439 1.377 . S
C455 C453 1.389 . S
C455 C456 1.524 . S
C456 C455 1.524 . S
C456 C457 1.397 . S
C456 C461 1.363 . S
C457 H428 0.950 . S
C457 C456 1.397 . S
C457 C458 1.334 . S
C458 H429 0.950 . S
C458 C457 1.334 . S
C458 C459 1.287 . S
C459 C458 1.287 . S
C459 C460 1.524 . S
C459 H462 0.999 . S
C460 H430 0.950 . S
C460 C459 1.524 . S
C460 C461 1.415 . S
C461 H431 0.950 . S
C461 C456 1.363 . S
C461 C460 1.415 . S
H462 C459 0.999 . S
H463 C444 0.913 . S
H464 C482 0.951 . S
H465 C484 0.951 . S
H466 C486 0.952 . S
H467 C487 0.950 1_565 S
H468 C489 0.950 . S
H469 C492 0.950 . S
H470 C493 0.950 . S
H471 C495 0.950 . S
H472 C496 0.950 . S
H473 C497 0.951 . S
H474 C499 0.951 . S
H475 C501 0.950 . S
H476 C502 0.950 . S
H477 C504 0.950 . S
H478 C507 0.950 . S
H479 C508 0.950 . S
H480 C510 0.950 1_565 S
H481 C511 0.950 1_565 S
C482 H464 0.951 . S
C482 C483 1.366 . S
C482 C484 1.388 . S
C483 C482 1.366 . S
C483 C487 1.385 . S
C484 H465 0.951 . S
C484 C482 1.388 . S
C484 C485 1.366 . S
C485 C484 1.366 . S
C485 C486 1.414 . S
C485 C488 1.499 . S
C486 H466 0.952 . S
C486 C485 1.414 . S
C486 C487 1.374 . S
C487 H467 0.950 1_545 S
C487 C483 1.385 . S
C487 C486 1.374 . S
C488 C485 1.499 . S
C488 C489 1.373 . S
C488 C490 1.389 . S
C489 H468 0.950 . S
C489 C488 1.373 . S
C489 C505 1.377 . S
C490 C488 1.389 . S
C490 C491 1.524 . S
C490 C504 1.377 . S
C491 C490 1.524 . S
C491 C492 1.397 . S
C491 C496 1.363 . S
C492 H469 0.950 . S
C492 C491 1.397 . S
C492 C493 1.334 . S
C493 H470 0.950 . S
C493 C492 1.334 . S
C493 C494 1.287 . S
C494 C493 1.287 . S
C494 C495 1.524 . S
C494 H513 0.913 . S
C495 H471 0.950 . S
C495 C494 1.524 . S
C495 C496 1.415 . S
C496 H472 0.950 . S
C496 C491 1.363 . S
C496 C495 1.415 . S
C497 H473 0.951 . S
C497 C498 1.366 . S
C497 C499 1.388 . S
C498 C497 1.366 . S
C498 C502 1.385 . S
C499 H474 0.951 . S
C499 C497 1.388 . S
C499 C500 1.366 . S
C500 C499 1.366 . S
C500 C501 1.414 . S
C500 C503 1.499 . S
C501 H475 0.950 . S
C501 C500 1.414 . S
C501 C502 1.374 . S
C502 H476 0.950 . S
C502 C498 1.385 . S
C502 C501 1.374 . S
C503 C500 1.499 . S
C503 C504 1.373 . S
C503 C505 1.389 . S
C504 H477 0.950 . S
C504 C490 1.377 . S
C504 C503 1.373 . S
C505 C489 1.377 . S
C505 C503 1.389 . S
C505 C506 1.524 . S
C506 C505 1.524 . S
C506 C507 1.397 . S
C506 C511 1.363 . S
C507 H478 0.950 . S
C507 C506 1.397 . S
C507 C508 1.334 . S
C508 H479 0.950 . S
C508 C507 1.334 . S
C508 C509 1.287 . S
C509 C508 1.287 . S
C509 C510 1.524 . S
C509 H512 0.999 . S
C510 H480 0.950 1_545 S
C510 C509 1.524 . S
C510 C511 1.415 . S
C511 H481 0.950 1_545 S
C511 C506 1.363 . S
C511 C510 1.415 . S
H512 C509 0.999 . S
H513 C494 0.913 . S
H514 C532 0.951 . S
H515 C534 0.951 . S
H516 C536 0.950 . S
H517 C537 0.950 . S
H518 C539 0.950 . S
H519 C542 0.950 . S
H520 C543 0.950 . S
H521 C545 0.950 . S
H522 C546 0.950 . S
H523 C547 0.951 . S
H524 C549 0.951 . S
H525 C551 0.950 . S
H526 C552 0.950 . S
H527 C554 0.950 . S
H528 C557 0.950 . S
H529 C558 0.950 . S
H530 C560 0.950 . S
H531 C561 0.950 . S
C532 H514 0.951 . S
C532 C533 1.366 . S
C532 C534 1.388 . S
C533 C532 1.366 . S
C533 C537 1.385 . S
C534 H515 0.951 . S
C534 C532 1.388 . S
C534 C535 1.366 . S
C535 C534 1.366 . S
C535 C536 1.414 . S
C535 C538 1.499 . S
C536 H516 0.950 . S
C536 C535 1.414 . S
C536 C537 1.374 . S
C537 H517 0.950 . S
C537 C533 1.385 . S
C537 C536 1.374 . S
C538 C535 1.499 . S
C538 C539 1.373 . S
C538 C540 1.389 . S
C539 H518 0.950 . S
C539 C538 1.373 . S
C539 C555 1.377 . S
C540 C538 1.389 . S
C540 C541 1.524 . S
C540 C554 1.377 . S
C541 C540 1.524 . S
C541 C542 1.397 . S
C541 C546 1.363 . S
C542 H519 0.950 . S
C542 C541 1.397 . S
C542 C543 1.334 . S
C543 H520 0.950 . S
C543 C542 1.334 . S
C543 C544 1.287 . S
C544 C543 1.287 . S
C544 C545 1.524 . S
C544 H563 0.913 . S
C545 H521 0.950 . S
C545 C544 1.524 . S
C545 C546 1.415 . S
C546 H522 0.950 . S
C546 C541 1.363 . S
C546 C545 1.415 . S
C547 H523 0.951 . S
C547 C548 1.366 . S
C547 C549 1.388 . S
C548 C547 1.366 . S
C548 C552 1.385 . S
C549 H524 0.951 . S
C549 C547 1.388 . S
C549 C550 1.366 . S
C550 C549 1.366 . S
C550 C551 1.414 . S
C550 C553 1.499 . S
C551 H525 0.950 . S
C551 C550 1.414 . S
C551 C552 1.374 . S
C552 H526 0.950 . S
C552 C548 1.385 . S
C552 C551 1.374 . S
C553 C550 1.499 . S
C553 C554 1.373 . S
C553 C555 1.389 . S
C554 H527 0.950 . S
C554 C540 1.377 . S
C554 C553 1.373 . S
C555 C539 1.377 . S
C555 C553 1.389 . S
C555 C556 1.524 . S
C556 C555 1.524 . S
C556 C557 1.397 . S
C556 C561 1.363 . S
C557 H528 0.950 . S
C557 C556 1.397 . S
C557 C558 1.334 . S
C558 H529 0.950 . S
C558 C557 1.334 . S
C558 C559 1.287 . S
C559 C558 1.287 . S
C559 C560 1.524 . S
C559 H562 0.999 . S
C560 H530 0.950 . S
C560 C559 1.524 . S
C560 C561 1.415 . S
C561 H531 0.950 . S
C561 C556 1.363 . S
C561 C560 1.415 . S
H562 C559 0.999 . S
H563 C544 0.913 . S
H564 C582 0.951 . S
H565 C584 0.951 . S
H566 C586 0.950 . S
H567 C587 0.950 . S
H568 C589 0.950 . S
H569 C592 0.950 . S
H570 C593 0.950 . S
H571 C595 0.950 . S
H572 C596 0.950 1_565 S
H573 C597 0.951 . S
H574 C599 0.951 . S
H575 C601 0.950 . S
H576 C602 0.950 . S
H577 C604 0.950 . S
H578 C607 0.950 . S
H579 C608 0.950 . S
H580 C610 0.950 . S
H581 C611 0.950 . S
C582 H564 0.951 . S
C582 C583 1.366 . S
C582 C584 1.388 . S
C583 C582 1.366 . S
C583 C587 1.385 1_655 S
C584 H565 0.951 . S
C584 C582 1.388 . S
C584 C585 1.366 . S
C585 C584 1.366 . S
C585 C586 1.414 . S
C585 C588 1.499 . S
C586 H566 0.950 . S
C586 C585 1.414 . S
C586 C587 1.374 1_655 S
C587 H567 0.950 . S
C587 C583 1.385 1_455 S
C587 C586 1.374 1_455 S
C588 C585 1.499 . S
C588 C589 1.373 . S
C588 C590 1.389 . S
C589 H568 0.950 . S
C589 C588 1.373 . S
C589 C605 1.377 . S
C590 C588 1.389 . S
C590 C591 1.524 . S
C590 C604 1.377 . S
C591 C590 1.524 . S
C591 C592 1.397 . S
C591 C596 1.363 . S
C592 H569 0.950 . S
C592 C591 1.397 . S
C592 C593 1.334 . S
C593 H570 0.950 . S
C593 C592 1.334 . S
C593 C594 1.287 1_545 S
C594 C593 1.287 1_565 S
C594 C595 1.524 . S
C594 H613 0.913 . S
C595 H571 0.950 . S
C595 C594 1.524 . S
C595 C596 1.415 1_565 S
C596 H572 0.950 1_545 S
C596 C591 1.363 . S
C596 C595 1.415 1_545 S
C597 H573 0.951 . S
C597 C598 1.366 . S
C597 C599 1.388 . S
C598 C597 1.366 . S
C598 C602 1.385 . S
C599 H574 0.951 . S
C599 C597 1.388 . S
C599 C600 1.366 . S
C600 C599 1.366 . S
C600 C601 1.414 . S
C600 C603 1.499 . S
C601 H575 0.950 . S
C601 C600 1.414 . S
C601 C602 1.374 . S
C602 H576 0.950 . S
C602 C598 1.385 . S
C602 C601 1.374 . S
C603 C600 1.499 . S
C603 C604 1.373 . S
C603 C605 1.389 . S
C604 H577 0.950 . S
C604 C590 1.377 . S
C604 C603 1.373 . S
C605 C589 1.377 . S
C605 C603 1.389 . S
C605 C606 1.524 . S
C606 C605 1.524 . S
C606 C607 1.397 . S
C606 C611 1.363 . S
C607 H578 0.950 . S
C607 C606 1.397 . S
C607 C608 1.334 . S
C608 H579 0.950 . S
C608 C607 1.334 . S
C608 C609 1.287 . S
C609 C608 1.287 . S
C609 C610 1.524 . S
C609 H612 0.999 . S
C610 H580 0.950 . S
C610 C609 1.524 . S
C610 C611 1.415 . S
C611 H581 0.950 . S
C611 C606 1.363 . S
C611 C610 1.415 . S
H612 C609 0.999 . S
H613 C594 0.913 . S
H614 C632 0.951 . S
H615 C634 0.951 . S
H616 C636 0.950 . S
H617 C637 0.950 . S
H618 C639 0.950 . S
H619 C642 0.950 . S
H620 C643 0.951 1_554 S
H621 C645 0.950 . S
H622 C646 0.952 . S
H623 C647 0.951 . S
H624 C649 0.951 . S
H625 C651 0.950 . S
H626 C652 0.950 . S
H627 C654 0.950 . S
H628 C657 0.950 . S
H629 C658 0.950 . S
H630 C660 0.950 1_545 S
H631 C661 0.950 . S
C632 H614 0.951 . S
C632 C633 1.366 1_665 S
C632 C634 1.388 . S
C633 C632 1.366 1_445 S
C633 C637 1.391 . S
C634 H615 0.951 . S
C634 C632 1.388 . S
C634 C635 1.366 . S
C635 C634 1.366 . S
C635 C636 1.414 1_565 S
C635 C638 1.474 1_554 S
C636 H616 0.950 . S
C636 C635 1.414 1_545 S
C636 C637 1.368 1_655 S
C637 H617 0.950 . S
C637 C633 1.391 . S
C637 C636 1.368 1_455 S
C638 C635 1.474 1_556 S
C638 C639 1.385 . S
C638 C640 1.402 . S
C639 H618 0.950 . S
C639 C638 1.385 . S
C639 C655 1.377 . S
C640 C638 1.402 . S
C640 C641 1.524 . S
C640 C654 1.377 . S
C641 C640 1.524 . S
C641 C642 1.397 1_655 S
C641 C646 1.356 1_556 S
C642 H619 0.950 . S
C642 C641 1.397 1_455 S
C642 C643 1.332 . S
C643 H620 0.951 1_556 S
C643 C642 1.332 . S
C643 C644 1.289 1_556 S
C644 C643 1.289 1_554 S
C644 C645 1.524 1_455 S
C644 H663 0.913 . S
C645 H621 0.950 . S
C645 C644 1.524 1_655 S
C645 C646 1.421 . S
C646 H622 0.952 . S
C646 C641 1.356 1_554 S
C646 C645 1.421 . S
C647 H623 0.951 . S
C647 C648 1.366 . S
C647 C649 1.388 . S
C648 C647 1.366 . S
C648 C652 1.385 . S
C649 H624 0.951 . S
C649 C647 1.388 . S
C649 C650 1.366 . S
C650 C649 1.366 . S
C650 C651 1.414 . S
C650 C653 1.499 . S
C651 H625 0.950 . S
C651 C650 1.414 . S
C651 C652 1.374 . S
C652 H626 0.950 . S
C652 C648 1.385 . S
C652 C651 1.374 . S
C653 C650 1.499 . S
C653 C654 1.373 . S
C653 C655 1.389 . S
C654 H627 0.950 . S
C654 C640 1.377 . S
C654 C653 1.373 . S
C655 C639 1.377 . S
C655 C653 1.389 . S
C655 C656 1.524 . S
C656 C655 1.524 . S
C656 C657 1.397 . S
C656 C661 1.363 . S
C657 H628 0.950 . S
C657 C656 1.397 . S
C657 C658 1.334 . S
C658 H629 0.950 . S
C658 C657 1.334 . S
C658 C659 1.287 . S
C659 C658 1.287 . S
C659 C660 1.524 . S
C659 H662 0.999 . S
C660 H630 0.950 1_565 S
C660 C659 1.524 . S
C660 C661 1.415 . S
C661 H631 0.950 . S
C661 C656 1.363 . S
C661 C660 1.415 . S
H662 C659 0.999 . S
H663 C644 0.913 . S
H664 C682 0.951 . S
H665 C684 0.951 . S
H666 C686 0.950 1_455 S
H667 C687 0.950 . S
H668 C689 0.950 . S
H669 C692 0.950 . S
H670 C693 0.950 . S
H671 C695 0.950 . S
H672 C696 0.950 . S
H673 C697 0.951 . S
H674 C699 0.951 . S
H675 C701 0.950 . S
H676 C702 0.950 . S
H677 C704 0.950 . S
H678 C707 0.950 . S
H679 C708 0.950 . S
H680 C710 0.950 . S
H681 C711 0.950 . S
C682 H664 0.951 . S
C682 C683 1.366 . S
C682 C684 1.388 . S
C683 C682 1.366 . S
C683 C687 1.385 . S
C684 H665 0.951 . S
C684 C682 1.388 . S
C684 C685 1.366 . S
C685 C684 1.366 . S
C685 C686 1.414 . S
C685 C688 1.499 . S
C686 H666 0.950 1_655 S
C686 C685 1.414 . S
C686 C687 1.374 . S
C687 H667 0.950 . S
C687 C683 1.385 . S
C687 C686 1.374 . S
C688 C685 1.499 . S
C688 C689 1.373 1_655 S
C688 C690 1.389 . S
C689 H668 0.950 . S
C689 C688 1.373 1_455 S
C689 C705 1.377 . S
C690 C688 1.389 . S
C690 C691 1.524 . S
C690 C704 1.377 . S
C691 C690 1.524 . S
C691 C692 1.397 . S
C691 C696 1.363 . S
C692 H669 0.950 . S
C692 C691 1.397 . S
C692 C693 1.334 . S
C693 H670 0.950 . S
C693 C692 1.334 . S
C693 C694 1.287 . S
C694 C693 1.287 . S
C694 C695 1.524 . S
C694 H713 0.913 . S
C695 H671 0.950 . S
C695 C694 1.524 . S
C695 C696 1.415 . S
C696 H672 0.950 . S
C696 C691 1.363 . S
C696 C695 1.415 . S
C697 H673 0.951 . S
C697 C698 1.366 . S
C697 C699 1.388 . S
C698 C697 1.366 . S
C698 C702 1.385 1_455 S
C699 H674 0.951 . S
C699 C697 1.388 . S
C699 C700 1.366 . S
C700 C699 1.366 . S
C700 C701 1.414 1_455 S
C700 C703 1.486 1_455 S
C701 H675 0.950 . S
C701 C700 1.414 1_655 S
C701 C702 1.374 . S
C702 H676 0.950 . S
C702 C698 1.385 1_655 S
C702 C701 1.374 . S
C703 C700 1.486 1_655 S
C703 C704 1.397 . S
C703 C705 1.379 1_655 S
C704 H677 0.950 . S
C704 C690 1.377 . S
C704 C703 1.397 . S
C705 C689 1.377 . S
C705 C703 1.379 1_455 S
C705 C706 1.524 . S
C706 C705 1.524 . S
C706 C707 1.397 . S
C706 C711 1.363 . S
C707 H678 0.950 . S
C707 C706 1.397 . S
C707 C708 1.334 . S
C708 H679 0.950 . S
C708 C707 1.334 . S
C708 C709 1.287 . S
C709 C708 1.287 . S
C709 C710 1.524 . S
C709 H712 0.999 . S
C710 H680 0.950 . S
C710 C709 1.524 . S
C710 C711 1.415 . S
C711 H681 0.950 . S
C711 C706 1.363 . S
C711 C710 1.415 . S
H712 C709 0.999 . S
H713 C694 0.913 . S
H714 C732 0.951 . S
H715 C734 0.951 . S
H716 C736 0.950 . S
H717 C737 0.950 . S
H718 C739 0.950 . S
H719 C742 0.950 . S
H720 C743 0.950 . S
H721 C745 0.950 . S
H722 C746 0.950 . S
H723 C747 0.951 . S
H724 C749 0.951 . S
H725 C751 0.950 . S
H726 C752 0.950 . S
H727 C754 0.950 . S
H728 C757 0.950 . S
H729 C758 0.950 . S
H730 C760 0.950 1_565 S
H731 C761 0.950 1_565 S
C732 H714 0.951 . S
C732 C733 1.366 . S
C732 C734 1.388 . S
C733 C732 1.366 . S
C733 C737 1.385 . S
C734 H715 0.951 . S
C734 C732 1.388 . S
C734 C735 1.366 . S
C735 C734 1.366 . S
C735 C736 1.414 . S
C735 C738 1.499 . S
C736 H716 0.950 . S
C736 C735 1.414 . S
C736 C737 1.374 . S
C737 H717 0.950 . S
C737 C733 1.385 . S
C737 C736 1.374 . S
C738 C735 1.499 . S
C738 C739 1.373 . S
C738 C740 1.389 . S
C739 H718 0.950 . S
C739 C738 1.373 . S
C739 C755 1.377 . S
C740 C738 1.389 . S
C740 C741 1.524 . S
C740 C754 1.377 . S
C741 C740 1.524 . S
C741 C742 1.397 . S
C741 C746 1.363 . S
C742 H719 0.950 . S
C742 C741 1.397 . S
C742 C743 1.334 . S
C743 H720 0.950 . S
C743 C742 1.334 . S
C743 C744 1.287 . S
C744 C743 1.287 . S
C744 C745 1.524 . S
C744 H763 0.913 . S
C745 H721 0.950 . S
C745 C744 1.524 . S
C745 C746 1.415 . S
C746 H722 0.950 . S
C746 C741 1.363 . S
C746 C745 1.415 . S
C747 H723 0.951 . S
C747 C748 1.366 . S
C747 C749 1.388 . S
C748 C747 1.366 . S
C748 C752 1.385 . S
C749 H724 0.951 . S
C749 C747 1.388 . S
C749 C750 1.366 . S
C750 C749 1.366 . S
C750 C751 1.414 . S
C750 C753 1.499 . S
C751 H725 0.950 . S
C751 C750 1.414 . S
C751 C752 1.374 . S
C752 H726 0.950 . S
C752 C748 1.385 . S
C752 C751 1.374 . S
C753 C750 1.499 . S
C753 C754 1.373 . S
C753 C755 1.389 . S
C754 H727 0.950 . S
C754 C740 1.377 . S
C754 C753 1.373 . S
C755 C739 1.377 . S
C755 C753 1.389 . S
C755 C756 1.524 . S
C756 C755 1.524 . S
C756 C757 1.397 . S
C756 C761 1.363 . S
C757 H728 0.950 . S
C757 C756 1.397 . S
C757 C758 1.334 . S
C758 H729 0.950 . S
C758 C757 1.334 . S
C758 C759 1.287 . S
C759 C758 1.287 . S
C759 C760 1.524 . S
C759 H762 0.999 . S
C760 H730 0.950 1_545 S
C760 C759 1.524 . S
C760 C761 1.415 . S
C761 H731 0.950 1_545 S
C761 C756 1.363 . S
C761 C760 1.415 . S
H762 C759 0.999 . S
H763 C744 0.913 . S
H764 C782 0.951 . S
H765 C784 0.951 . S
H766 C786 0.950 . S
H767 C787 0.950 . S
H768 C789 0.950 . S
H769 C792 0.950 . S
H770 C793 0.950 . S
H771 C795 0.950 . S
H772 C796 0.950 . S
H773 C797 0.951 . S
H774 C799 0.951 . S
H775 C801 0.950 . S
H776 C802 0.950 . S
H777 C804 0.950 . S
H778 C807 0.950 . S
H779 C808 0.950 . S
H780 C810 0.950 . S
H781 C811 0.950 . S
C782 H764 0.951 . S
C782 C783 1.366 . S
C782 C784 1.388 . S
C783 C782 1.366 . S
C783 C787 1.385 . S
C784 H765 0.951 . S
C784 C782 1.388 . S
C784 C785 1.366 . S
C785 C784 1.366 . S
C785 C786 1.414 . S
C785 C788 1.499 . S
C786 H766 0.950 . S
C786 C785 1.414 . S
C786 C787 1.374 . S
C787 H767 0.950 . S
C787 C783 1.385 . S
C787 C786 1.374 . S
C788 C785 1.499 . S
C788 C789 1.373 1_554 S
C788 C790 1.389 . S
C789 H768 0.950 . S
C789 C788 1.373 1_556 S
C789 C805 1.377 . S
C790 C788 1.389 . S
C790 C791 1.524 . S
C790 C804 1.377 . S
C791 C790 1.524 . S
C791 C792 1.397 . S
C791 C796 1.363 . S
C792 H769 0.950 . S
C792 C791 1.397 . S
C792 C793 1.334 . S
C793 H770 0.950 . S
C793 C792 1.334 . S
C793 C794 1.287 . S
C794 C793 1.287 . S
C794 C795 1.524 . S
C794 H813 0.913 . S
C795 H771 0.950 . S
C795 C794 1.524 . S
C795 C796 1.415 . S
C796 H772 0.950 . S
C796 C791 1.363 . S
C796 C795 1.415 . S
C797 H773 0.951 . S
C797 C798 1.366 . S
C797 C799 1.388 . S
C798 C797 1.366 . S
C798 C802 1.385 . S
C799 H774 0.951 . S
C799 C797 1.388 . S
C799 C800 1.366 . S
C800 C799 1.366 . S
C800 C801 1.414 . S
C800 C803 1.499 . S
C801 H775 0.950 . S
C801 C800 1.414 . S
C801 C802 1.374 . S
C802 H776 0.950 . S
C802 C798 1.385 . S
C802 C801 1.374 . S
C803 C800 1.499 . S
C803 C804 1.373 1_556 S
C803 C805 1.389 . S
C804 H777 0.950 . S
C804 C790 1.377 . S
C804 C803 1.373 1_554 S
C805 C789 1.377 . S
C805 C803 1.389 . S
C805 C806 1.524 . S
C806 C805 1.524 . S
C806 C807 1.397 . S
C806 C811 1.363 . S
C807 H778 0.950 . S
C807 C806 1.397 . S
C807 C808 1.334 . S
C808 H779 0.950 . S
C808 C807 1.334 . S
C808 C809 1.287 . S
C809 C808 1.287 . S
C809 C810 1.524 . S
C809 H812 0.999 . S
C810 H780 0.950 . S
C810 C809 1.524 . S
C810 C811 1.415 . S
C811 H781 0.950 . S
C811 C806 1.363 . S
C811 C810 1.415 . S
H812 C809 0.999 . S
H813 C794 0.913 . S
H814 C832 0.951 . S
H815 C834 0.951 . S
H816 C836 0.950 . S
H817 C837 0.950 . S
H818 C839 0.950 1_655 S
H819 C842 0.950 . S
H820 C843 0.950 . S
H821 C845 0.950 . S
H822 C846 0.950 . S
H823 C847 0.951 . S
H824 C849 0.951 . S
H825 C851 0.950 . S
H826 C852 0.950 . S
H827 C854 0.950 . S
H828 C857 0.950 . S
H829 C858 0.950 . S
H830 C860 0.950 . S
H831 C861 0.968 . S
C832 H814 0.951 . S
C832 C833 1.366 . S
C832 C834 1.388 . S
C833 C832 1.366 . S
C833 C837 1.385 . S
C834 H815 0.951 . S
C834 C832 1.388 . S
C834 C835 1.366 . S
C835 C834 1.366 . S
C835 C836 1.414 . S
C835 C838 1.499 . S
C836 H816 0.950 . S
C836 C835 1.414 . S
C836 C837 1.374 . S
C837 H817 0.950 . S
C837 C833 1.385 . S
C837 C836 1.374 . S
C838 C835 1.499 . S
C838 C839 1.373 . S
C838 C840 1.389 . S
C839 H818 0.950 1_455 S
C839 C838 1.373 . S
C839 C855 1.377 . S
C840 C838 1.389 . S
C840 C841 1.524 . S
C840 C854 1.377 . S
C841 C840 1.524 . S
C841 C842 1.397 . S
C841 C846 1.363 . S
C842 H819 0.950 . S
C842 C841 1.397 . S
C842 C843 1.334 . S
C843 H820 0.950 . S
C843 C842 1.334 . S
C843 C844 1.287 . S
C844 C843 1.287 . S
C844 C845 1.524 . S
C844 H863 0.913 . S
C845 H821 0.950 . S
C845 C844 1.524 . S
C845 C846 1.415 . S
C846 H822 0.950 . S
C846 C841 1.363 . S
C846 C845 1.415 . S
C847 H823 0.951 . S
C847 C848 1.366 . S
C847 C849 1.388 . S
C848 C847 1.366 . S
C848 C852 1.385 . S
C849 H824 0.951 . S
C849 C847 1.388 . S
C849 C850 1.366 . S
C850 C849 1.366 . S
C850 C851 1.414 . S
C850 C853 1.499 . S
C851 H825 0.950 . S
C851 C850 1.414 . S
C851 C852 1.374 . S
C852 H826 0.950 . S
C852 C848 1.385 . S
C852 C851 1.374 . S
C853 C850 1.499 . S
C853 C854 1.373 . S
C853 C855 1.389 . S
C854 H827 0.950 . S
C854 C840 1.377 . S
C854 C853 1.373 . S
C855 C839 1.377 . S
C855 C853 1.389 . S
C855 C856 1.524 1_455 S
C856 C855 1.524 1_655 S
C856 C857 1.397 . S
C856 C861 1.363 . S
C857 H828 0.950 . S
C857 C856 1.397 . S
C857 C858 1.334 . S
C858 H829 0.950 . S
C858 C857 1.334 . S
C858 C859 1.287 . S
C859 C858 1.287 . S
C859 C860 1.524 . S
C859 H862 0.999 . S
C860 H830 0.950 . S
C860 C859 1.524 . S
C860 C861 1.415 . S
C861 H831 0.968 . S
C861 C856 1.363 . S
C861 C860 1.415 . S
H862 C859 0.999 . S
H863 C844 0.913 . S
C298 C81 1.218 . S
C283 C11 1.270 . S
C333 C26 1.361 . S
C348 C155 1.324 . S
C383 C40 2.067 1_665 S
C398 C259 2.077 . S
C433 C5 0.672 . S
C448 C93 0.546 . S
C498 C167 0.747 . S
C483 C18 0.746 . S
C533 C32 1.314 . S
C548 C253 1.251 . S
C598 C185 1.995 . S
C583 C39 1.990 1_655 S
C633 C4 1.306 . S
C648 C229 1.283 . S
C698 C105 1.248 . S
C683 C19 1.172 . S
C748 C179 1.108 . S
C733 C33 1.034 . S
C798 C241 0.602 . S
C783 C12 0.606 . S
C833 C25 2.151 . S
C848 C111 2.166 . S
