# Generated by pormake.
# Topology zzz, (3,6)-cn, num edge types: 1
# Building blocks:
#     Node 0, Type 0, BuildingBlock: MIDCAF_clean_linker_0, # of connection points: 3
#     Node 1, Type 0, BuildingBlock: MIDCAF_clean_linker_0, # of connection points: 3
#     Node 2, Type 0, BuildingBlock: MIDCAF_clean_linker_0, # of connection points: 3
#     Node 3, Type 0, BuildingBlock: MIDCAF_clean_linker_0, # of connection points: 3
#     Node 4, Type 0, BuildingBlock: MIDCAF_clean_linker_0, # of connection points: 3
#     Node 5, Type 0, BuildingBlock: MIDCAF_clean_linker_0, # of connection points: 3
#     Node 6, Type 0, BuildingBlock: MIDCAF_clean_linker_0, # of connection points: 3
#     Node 7, Type 0, BuildingBlock: MIDCAF_clean_linker_0, # of connection points: 3
#     Node 8, Type 1, BuildingBlock: GEDQOX_clean_sbu_0, # of connection points: 6
#     Node 9, Type 1, BuildingBlock: GEDQOX_clean_sbu_0, # of connection points: 6
#     Node 10, Type 1, BuildingBlock: GEDQOX_clean_sbu_0, # of connection points: 6
#     Node 11, Type 1, BuildingBlock: GEDQOX_clean_sbu_0, # of connection points: 6
#     Edge 12, Type (0, 1), None
#     Edge 13, Type (0, 1), None
#     Edge 14, Type (0, 1), None
#     Edge 15, Type (0, 1), None
#     Edge 16, Type (0, 1), None
#     Edge 17, Type (0, 1), None
#     Edge 18, Type (0, 1), None
#     Edge 19, Type (0, 1), None
#     Edge 20, Type (0, 1), None
#     Edge 21, Type (0, 1), None
#     Edge 22, Type (0, 1), None
#     Edge 23, Type (0, 1), None
#     Edge 24, Type (0, 1), None
#     Edge 25, Type (0, 1), None
#     Edge 26, Type (0, 1), None
#     Edge 27, Type (0, 1), None
#     Edge 28, Type (0, 1), None
#     Edge 29, Type (0, 1), None
#     Edge 30, Type (0, 1), None
#     Edge 31, Type (0, 1), None
#     Edge 32, Type (0, 1), None
#     Edge 33, Type (0, 1), None
#     Edge 34, Type (0, 1), None
#     Edge 35, Type (0, 1), None
# Relax obj value: 0.331
# Max RMSD: 0.374
# Mean RMSD: 0.189
data_MOF--net-zzz--node1-GEDQOX_clean_sbu_0--node2-MIDCAF_clean_linker_0--edge1-none
_symmetry_space_group_name_H-M    P1
_symmetry_Int_Tables_number       1
_symmetry_cell_setting            triclinic
loop_
_symmetry_equiv_pos_as_xyz
'x, y, z'
_cell_length_a     34.505716
_cell_length_b     32.039066
_cell_length_c     13.880369
_cell_angle_alpha  75.062018
_cell_angle_beta   90.054604
_cell_angle_gamma 108.01582
loop_
_atom_site_label
_atom_site_type_symbol
_atom_site_fract_x
_atom_site_fract_y
_atom_site_fract_z
_atom_type_partial_charge
C0 C 0.89804 0.65918 0.29908 0.0
C1 C 0.88466 0.64963 0.40019 0.0
C2 C 0.84287 0.62756 0.43132 0.0
C3 C 0.81569 0.61127 0.36398 0.0
H4 H 0.71617 0.6344 0.1127 0.0
H5 H 0.6518 0.64079 0.0472 0.0
H6 H 0.63688 0.52308 0.93647 0.0
H7 H 0.70106 0.51683 1.00014 0.0
H8 H 0.8151 0.54095 0.9111 0.0
H9 H 0.8742 0.53146 0.83378 0.0
H10 H 0.90784 0.47415 0.12551 0.0
H11 H 0.84969 0.48529 0.20326 0.0
H12 H 0.88303 0.64747 0.15688 0.0
H13 H 0.93004 0.67646 0.27321 0.0
H14 H 0.83198 0.61961 0.50916 0.0
H15 H 0.78433 0.59103 0.39093 0.0
N16 N 0.77082 0.59331 0.16901 0.0
N17 N 0.77009 0.54281 0.07152 0.0
N18 N 0.82375 0.56153 0.17162 0.0
C19 C 0.7522 0.56988 0.1032 0.0
C20 C 0.80551 0.53797 0.1069 0.0
C21 C 0.80675 0.58908 0.20304 0.0
C22 C 0.71365 0.57484 0.0626 0.0
C23 C 0.69924 0.60998 0.07412 0.0
C24 C 0.66254 0.61386 0.03609 0.0
C25 C 0.6394 0.5823 0.98721 0.0
C26 C 0.65417 0.54786 0.97387 0.0
C27 C 0.69094 0.54426 0.01075 0.0
C28 C 0.82848 0.51462 0.06296 0.0
C29 C 0.83374 0.52396 0.95851 0.0
C30 C 0.86745 0.51836 0.9142 0.0
C31 C 0.89536 0.50219 0.974 0.0
C32 C 0.88637 0.4861 0.07799 0.0
C33 C 0.85333 0.49286 0.12243 0.0
C34 C 0.8303 0.61694 0.26554 0.0
C35 C 0.87118 0.64272 0.2326 0.0
C36 C 0.95662 0.81084 0.4997 0.0
C37 C 0.98237 0.82511 0.57202 0.0
C38 C 0.01672 0.80996 0.58838 0.0
C39 C 0.02743 0.78593 0.52687 0.0
H40 H 0.00729 0.64848 0.32135 0.0
H41 H 0.99785 0.58542 0.24444 0.0
H42 H 0.03735 0.68217 0.95486 0.0
H43 H 0.04431 0.7445 0.03001 0.0
H44 H 0.05935 0.84592 0.00379 0.0
H45 H 0.05489 0.91945 0.91049 0.0
H46 H 0.09285 0.97387 0.16197 0.0
H47 H 0.09739 0.90008 0.25591 0.0
H48 H 0.9491 0.78052 0.37699 0.0
H49 H 0.93003 0.82176 0.48382 0.0
H50 H 0.03684 0.81905 0.64481 0.0
H51 H 0.05633 0.77917 0.53459 0.0
N52 N 0.01669 0.73657 0.32135 0.0
N53 N 0.0553 0.7833 0.17026 0.0
N54 N 0.04768 0.81525 0.299 0.0
C55 C 0.03313 0.74105 0.22751 0.0
C56 C 0.06291 0.82041 0.20582 0.0
C57 C 0.02471 0.77422 0.3572 0.0
C58 C 0.02579 0.7017 0.18258 0.0
C59 C 0.0125 0.65615 0.24114 0.0
C60 C 0.0076 0.62008 0.19692 0.0
C61 C 0.01691 0.62884 0.09328 0.0
C62 C 0.03001 0.67424 0.03476 0.0
C63 C 0.0341 0.71004 0.07847 0.0
C64 C 0.07746 0.86691 0.13817 0.0
C65 C 0.06853 0.87398 0.03781 0.0
C66 C 0.06545 0.91598 0.98483 0.0
C67 C 0.07191 0.95154 0.031 0.0
C68 C 0.08699 0.94667 0.12555 0.0
C69 C 0.0897 0.90446 0.17903 0.0
C70 C 0.00377 0.77563 0.44855 0.0
C71 C 0.96726 0.78654 0.43877 0.0
C72 C 0.69599 0.01566 0.47649 0.0
C73 C 0.67181 0.96965 0.51094 0.0
C74 C 0.67809 0.93805 0.46381 0.0
C75 C 0.70627 0.95277 0.37975 0.0
H76 H 0.8505 0.99206 0.24452 0.0
H77 H 0.91981 0.99408 0.20286 0.0
H78 H 0.90537 0.04233 0.88884 0.0
H79 H 0.83628 0.04089 0.93001 0.0
H80 H 0.71118 0.1195 0.09204 0.0
H81 H 0.6548 0.13562 1.00127 0.0
H82 H 0.67323 0.06111 0.79613 0.0
H83 H 0.73017 0.04552 0.88683 0.0
H84 H 0.73957 0.06654 0.36227 0.0
H85 H 0.69145 0.04086 0.51049 0.0
H86 H 0.65995 0.90242 0.48942 0.0
H87 H 0.70882 0.92841 0.3406 0.0
N88 N 0.78168 1.00743 0.21351 0.0
N89 N 0.7805 0.04771 0.04598 0.0
N90 N 0.73117 0.04203 0.16878 0.0
C91 C 0.79856 0.02337 0.1169 0.0
C92 C 0.74693 0.05742 0.0722 0.0
C93 C 0.74796 0.01678 0.23921 0.0
C94 C 0.83792 0.01723 0.09075 0.0
C95 C 0.86171 1.00231 0.16637 0.0
C96 C 0.90149 1.00331 0.14261 0.0
C97 C 0.91826 0.01889 0.04275 0.0
C98 C 0.89342 0.03039 0.96667 0.0
C99 C 0.8538 0.02979 0.99039 0.0
C100 C 0.72443 0.0805 0.9975 0.0
C101 C 0.70437 0.1084 0.02471 0.0
C102 C 0.6722 0.11795 0.97211 0.0
C103 C 0.65896 0.09886 0.89271 0.0
C104 C 0.68256 0.07605 0.85756 0.0
C105 C 0.71523 0.06709 0.9094 0.0
C106 C 0.72807 0.9993 0.34145 0.0
C107 C 0.72353 0.0304 0.39185 0.0
C108 C 0.6509 0.73481 0.26811 0.0
C109 C 0.62821 0.73944 0.18413 0.0
C110 C 0.63311 0.78349 0.12292 0.0
C111 C 0.65123 0.82124 0.15894 0.0
H112 H 0.63634 0.94699 0.17865 0.0
H113 H 0.60702 0.99659 0.063 0.0
H114 H 0.4919 0.93591 0.24451 0.0
H115 H 0.52124 0.88325 0.36086 0.0
H116 H 0.52338 0.76892 0.56003 0.0
H117 H 0.50166 0.69448 0.68709 0.0
H118 H 0.62789 0.70409 0.72409 0.0
H119 H 0.64945 0.77875 0.60339 0.0
H120 H 0.68098 0.76715 0.37622 0.0
H121 H 0.64943 0.70152 0.31497 0.0
H122 H 0.61826 0.7883 0.05399 0.0
H123 H 0.64844 0.85376 0.11804 0.0
N124 N 0.6283 0.86742 0.28354 0.0
N125 N 0.58447 0.84711 0.4301 0.0
N126 N 0.6327 0.80987 0.41945 0.0
C127 C 0.59878 0.87484 0.33511 0.0
C128 C 0.60283 0.81519 0.4735 0.0
C129 C 0.64509 0.83472 0.32409 0.0
C130 C 0.58102 0.91019 0.27884 0.0
C131 C 0.60462 0.94362 0.19479 0.0
C132 C 0.5877 0.9722 0.1275 0.0
C133 C 0.54674 0.9695 0.14278 0.0
C134 C 0.52343 0.93824 0.22995 0.0
C135 C 0.54034 0.9085 0.29718 0.0
C136 C 0.58816 0.77993 0.57111 0.0
C137 C 0.54636 0.75618 0.59895 0.0
C138 C 0.534 0.71323 0.67054 0.0
C139 C 0.56321 0.69301 0.71337 0.0
C140 C 0.60472 0.7183 0.69097 0.0
C141 C 0.61696 0.7614 0.62244 0.0
C142 C 0.66236 0.81415 0.25787 0.0
C143 C 0.66948 0.7728 0.30289 0.0
C144 C 0.17743 0.55122 0.38453 0.0
C145 C 0.17509 0.50898 0.36904 0.0
C146 C 0.20291 0.487 0.41239 0.0
C147 C 0.23061 0.50558 0.47635 0.0
H148 H 0.35945 0.54866 0.58027 0.0
H149 H 0.42643 0.54365 0.62261 0.0
H150 H 0.4015 0.55023 0.92202 0.0
H151 H 0.33401 0.55643 0.87901 0.0
H152 H 0.21994 0.66323 0.63807 0.0
H153 H 0.15666 0.66549 0.70968 0.0
H154 H 0.16735 0.56957 0.98357 0.0
H155 H 0.23082 0.56768 0.91108 0.0
H156 H 0.20465 0.60152 0.46062 0.0
H157 H 0.1571 0.5695 0.34987 0.0
H158 H 0.20185 0.45451 0.40083 0.0
H159 H 0.25011 0.4868 0.51372 0.0
N160 N 0.28611 0.55049 0.61283 0.0
N161 N 0.28565 0.58409 0.7453 0.0
N162 N 0.23669 0.58487 0.62869 0.0
C163 C 0.30311 0.56219 0.69495 0.0
C164 C 0.25273 0.59612 0.7109 0.0
C165 C 0.2527 0.56184 0.57962 0.0
C166 C 0.34151 0.55333 0.72594 0.0
C167 C 0.36779 0.54839 0.65564 0.0
C168 C 0.40627 0.5457 0.67979 0.0
C169 C 0.41904 0.54682 0.7754 0.0
C170 C 0.39214 0.54917 0.84792 0.0
C171 C 0.35374 0.55294 0.823 0.0
C172 C 0.22943 0.61435 0.76835 0.0
C173 C 0.20983 0.6446 0.71552 0.0
C174 C 0.17341 0.64567 0.75652 0.0
C175 C 0.15603 0.61609 0.85046 0.0
C176 C 0.17947 0.59197 0.90983 0.0
C177 C 0.21612 0.59114 0.86881 0.0
C178 C 0.23075 0.54635 0.49715 0.0
C179 C 0.20489 0.56967 0.44759 0.0
C180 C 0.02098 0.30718 0.1906 0.0
C181 C 0.05917 0.29979 0.19812 0.0
C182 C 0.08751 0.32341 0.25463 0.0
C183 C 0.07615 0.34887 0.31167 0.0
H184 H 0.99354 0.46119 0.47119 0.0
H185 H 0.98992 0.5162 0.56312 0.0
H186 H 0.03589 0.44248 0.81799 0.0
H187 H 0.03794 0.38666 0.72765 0.0
H188 H 0.98745 0.27466 0.77093 0.0
H189 H 0.99152 0.20116 0.8658 0.0
H190 H 0.9651 0.1496 0.60634 0.0
H191 H 0.95951 0.22251 0.51217 0.0
H192 H 0.97827 0.33252 0.25004 0.0
H193 H 0.99824 0.28978 0.1481 0.0
H194 H 0.11759 0.31959 0.26048 0.0
H195 H 0.09707 0.36202 0.3631 0.0
N196 N 0.02432 0.38764 0.44805 0.0
N197 N 0.993 0.33821 0.60489 0.0
N198 N 0.99861 0.30848 0.47103 0.0
C199 C 0.01095 0.38132 0.54569 0.0
C200 C 0.98634 0.30172 0.56745 0.0
C201 C 0.01762 0.35051 0.41086 0.0
C202 C 0.01622 0.41972 0.59178 0.0
C203 C 0.0035 0.45723 0.54608 0.0
C204 C 1.00096 0.48834 0.5994 0.0
C205 C 0.01212 0.48332 0.69861 0.0
C206 C 0.02684 0.44715 0.74219 0.0
C207 C 0.02825 0.41539 0.69006 0.0
C208 C 0.97458 0.25484 0.63319 0.0
C209 C 0.98106 0.24724 0.73507 0.0
C210 C 0.98409 0.20532 0.78891 0.0
C211 C 0.9808 0.17061 0.7416 0.0
C212 C 0.96883 0.17616 0.64392 0.0
C213 C 0.96559 0.21797 0.59015 0.0
C214 C 0.03615 0.35116 0.31414 0.0
C215 C 0.00964 0.33245 0.24804 0.0
C216 C 0.35808 0.07823 0.34881 0.0
C217 C 0.38381 0.12344 0.31074 0.0
C218 C 0.3759 0.15795 0.34493 0.0
C219 C 0.34614 0.14659 0.42444 0.0
H220 H 0.2027 0.10961 0.55507 0.0
H221 H 0.13252 0.10595 0.58748 0.0
H222 H 0.14365 0.06895 0.90521 0.0
H223 H 0.21414 0.07095 0.8735 0.0
H224 H 0.33428 0.98067 0.72724 0.0
H225 H 0.39363 0.96711 0.80707 0.0
H226 H 0.38557 0.05112 1.00008 0.0
H227 H 0.32612 0.06473 0.91907 0.0
H228 H 0.31176 0.03134 0.46164 0.0
H229 H 0.36246 0.05103 0.32171 0.0
H230 H 0.39468 0.19314 0.31557 0.0
H231 H 0.34311 0.17307 0.45621 0.0
N232 N 0.27094 0.09723 0.59411 0.0
N233 N 0.27101 0.05887 0.76397 0.0
N234 N 0.32016 0.06155 0.64407 0.0
C235 C 0.25371 0.083 0.69036 0.0
C236 C 0.30421 0.04781 0.74019 0.0
C237 C 0.3042 0.08651 0.57127 0.0
C238 C 0.21405 0.08964 0.71171 0.0
C239 C 0.19081 0.10162 0.63213 0.0
C240 C 0.15049 0.09976 0.65051 0.0
C241 C 0.13259 0.08705 0.74872 0.0
C242 C 0.15671 0.07909 0.8287 0.0
C243 C 0.19703 0.0799 0.81039 0.0
C244 C 0.32622 0.02452 0.81575 0.0
C245 C 0.34403 0.99438 0.79016 0.0
C246 C 0.37811 0.98655 0.83612 0.0
C247 C 0.39523 1.00921 0.90772 0.0
C248 C 0.37355 0.03371 0.94383 0.0
C249 C 0.33923 0.04135 0.898 0.0
C250 C 0.32382 0.10071 0.46925 0.0
C251 C 0.32868 0.06695 0.42791 0.0
C252 C 0.39966 0.36155 0.54033 0.0
C253 C 0.42193 0.35491 0.62462 0.0
C254 C 0.41735 0.31004 0.68034 0.0
C255 C 0.40015 0.27402 0.63835 0.0
H256 H 0.41613 0.14829 0.58764 0.0
H257 H 0.44654 0.10087 0.70729 0.0
H258 H 0.56593 0.17816 0.55413 0.0
H259 H 0.53521 0.22832 0.4348 0.0
H260 H 0.52513 0.33091 0.21541 0.0
H261 H 0.54616 0.40495 0.08673 0.0
H262 H 0.42055 0.40176 0.07632 0.0
H263 H 0.39925 0.3275 0.19858 0.0
H264 H 0.371 0.33283 0.42589 0.0
H265 H 0.40091 0.39544 0.49758 0.0
H266 H 0.43194 0.30357 0.74929 0.0
H267 H 0.4032 0.24111 0.67508 0.0
N268 N 0.42475 0.23298 0.50491 0.0
N269 N 0.46701 0.2559 0.35471 0.0
N270 N 0.4179 0.29102 0.37353 0.0
C271 C 0.45414 0.22726 0.44949 0.0
C272 C 0.44745 0.28721 0.31549 0.0
C273 C 0.40683 0.26508 0.46863 0.0
C274 C 0.47324 0.19266 0.50188 0.0
C275 C 0.44893 0.15537 0.57839 0.0
C276 C 0.46643 0.12827 0.64802 0.0
C277 C 0.50884 0.13657 0.64221 0.0
C278 C 0.53318 0.17152 0.56136 0.0
C279 C 0.51556 0.19974 0.49213 0.0
C280 C 0.46053 0.32317 0.21814 0.0
C281 C 0.5019 0.34495 0.18224 0.0
C282 C 0.51394 0.38758 0.10952 0.0
C283 C 0.4849 0.40928 0.07319 0.0
C284 C 0.44353 0.38607 0.1038 0.0
C285 C 0.43147 0.34332 0.17367 0.0
C286 C 0.3895 0.28367 0.5391 0.0
C287 C 0.38208 0.32528 0.49938 0.0
Nd288 Nd 0.00424 0.03184 0.81103 0.0
Nd289 Nd 0.04336 0.08559 0.97501 0.0
C290 C 0.95846 0.96741 0.73383 0.0
C291 C 0.96464 0.92997 0.69734 0.0
C292 C 0.93088 0.89502 0.68201 0.0
C293 C 0.93643 0.86024 0.6446 0.0
C294 C 0.97599 0.85954 0.62136 0.0
C295 C 0.00973 0.89431 0.63914 0.0
C296 C 0.00411 0.92891 0.67687 0.0
C297 C 0.08759 0.07308 0.76455 0.0
C298 C 0.05711 0.99 0.98639 0.0
C299 C 0.08176 0.14952 0.06388 0.0
C300 C 0.0765 0.18887 0.09475 0.0
C301 C 0.0907 0.19677 0.18532 0.0
C302 C 0.08618 0.23342 0.21678 0.0
C303 C 0.06714 0.26332 0.15869 0.0
C304 C 0.05324 0.25557 0.06722 0.0
C305 C 0.05808 0.21898 0.03545 0.0
C306 C 0.96274 0.02977 0.01878 0.0
C307 C 0.99416 0.13144 0.79032 0.0
O308 O 0.95939 0.96276 0.8305 0.0
O309 O 0.97772 1.00924 0.68022 0.0
O310 O 0.06352 0.05208 0.70804 0.0
O311 O 0.0664 0.07409 0.83718 0.0
O312 O 0.02597 0.98204 0.93066 0.0
O313 O 0.07309 0.02946 0.00755 0.0
O314 O 0.08731 0.15391 0.96792 0.0
O315 O 0.05859 0.10857 0.11306 0.0
O316 O 0.98875 0.03584 0.08592 0.0
O317 O 0.97992 0.05387 0.93395 0.0
O318 O 0.01725 0.13539 0.86598 0.0
O319 O 0.98333 0.09461 0.75679 0.0
H320 H 0.9001 0.89483 0.69808 0.0
H321 H 0.90962 0.83401 0.63346 0.0
H322 H 0.04071 0.89582 0.62086 0.0
H323 H 0.03069 0.95534 0.68851 0.0
H324 H 0.1051 0.17425 0.2325 0.0
H325 H 0.09657 0.23742 0.28849 0.0
H326 H 0.03861 0.2778 0.02005 0.0
H327 H 0.04731 0.21413 0.96471 0.0
Nd328 Nd 0.5297 0.0238 0.8313 0.0
Nd329 Nd 0.5262 0.08459 0.95769 0.0
C330 C 0.53297 0.95905 0.74882 0.0
C331 C 0.56787 0.95144 0.70348 0.0
C332 C 0.56275 0.93308 0.62115 0.0
C333 C 0.5969 0.93557 0.56296 0.0
C334 C 0.63664 0.95682 0.58587 0.0
C335 C 0.64163 0.97233 0.67238 0.0
C336 C 0.60751 0.96953 0.73089 0.0
C337 C 0.52623 0.10739 0.71975 0.0
C338 C 0.61586 0.09063 0.86881 0.0
C339 C 0.52238 0.1473 0.04543 0.0
C340 C 0.49041 0.1453 0.11902 0.0
C341 C 0.46876 0.17684 0.09823 0.0
C342 C 0.43452 0.17077 0.16129 0.0
C343 C 0.42132 0.13281 0.24549 0.0
C344 C 0.44433 0.10273 0.26836 0.0
C345 C 0.47821 0.10869 0.20585 0.0
C346 C 0.53011 1.00082 0.06832 0.0
C347 C 0.43931 0.01789 0.92305 0.0
O348 O 0.53127 0.95362 0.84566 0.0
O349 O 0.52518 0.99583 0.70001 0.0
O350 O 0.55078 0.08747 0.69536 0.0
O351 O 0.50617 0.08382 0.8025 0.0
O352 O 0.59753 0.05184 0.84801 0.0
O353 O 0.59431 0.11426 0.89525 0.0
O354 O 0.51124 0.1476 0.95527 0.0
O355 O 0.54417 0.12023 0.07588 0.0
O356 O 0.50596 0.02079 0.09446 0.0
O357 O 0.54993 0.02479 0.98578 0.0
O358 O 0.45784 0.05394 0.95391 0.0
O359 O 0.46041 0.99705 0.88405 0.0
H360 H 0.53246 0.9195 0.59808 0.0
H361 H 0.59218 0.92419 0.49567 0.0
H362 H 0.67191 0.98884 0.69165 0.0
H363 H 0.61222 0.98397 0.79406 0.0
H364 H 0.4775 0.20527 0.03152 0.0
H365 H 0.41762 0.19477 0.14236 0.0
H366 H 0.43583 0.07396 0.33441 0.0
H367 H 0.49403 0.08363 0.2244 0.0
Nd368 Nd 0.51449 0.56603 0.9745 0.0
Nd369 Nd 0.53833 0.54032 0.81203 0.0
C370 C 0.49475 0.5908 0.12676 0.0
C371 C 0.52529 0.62583 0.16284 0.0
C372 C 0.52159 0.66939 0.1461 0.0
C373 C 0.55524 0.7062 0.15187 0.0
C374 C 0.59338 0.70025 0.1742 0.0
C375 C 0.59643 0.65623 0.19644 0.0
C376 C 0.56277 0.61941 0.19116 0.0
C377 C 0.5984 0.58243 0.95787 0.0
C378 C 0.55104 0.64501 0.77645 0.0
C379 C 0.55703 0.50248 0.6807 0.0
C380 C 0.52527 0.46736 0.64843 0.0
C381 C 0.52886 0.42389 0.66299 0.0
C382 C 0.49493 0.38727 0.65763 0.0
C383 C 0.45659 0.39333 0.63854 0.0
C384 C 0.45338 0.43717 0.62117 0.0
C385 C 0.48736 0.47378 0.62569 0.0
C386 C 0.46155 0.54942 0.79422 0.0
C387 C 0.49758 0.45731 0.0111 0.0
O388 O 0.48341 0.60555 0.03764 0.0
O389 O 0.50236 0.55237 0.13822 0.0
O390 O 0.58149 0.61088 0.97399 0.0
O391 O 0.57152 0.54744 0.94838 0.0
O392 O 0.51884 0.62853 0.84197 0.0
O393 O 0.57208 0.61791 0.76685 0.0
O394 O 0.5638 0.49018 0.77448 0.0
O395 O 0.55442 0.54359 0.65449 0.0
O396 O 0.48998 0.56388 0.72254 0.0
O397 O 0.47321 0.53012 0.87466 0.0
O398 O 0.51616 0.46831 0.92129 0.0
O399 O 0.4899 0.48848 0.04695 0.0
H400 H 0.49329 0.67541 0.1235 0.0
H401 H 0.55131 0.73942 0.13849 0.0
H402 H 0.62512 0.65036 0.21527 0.0
H403 H 0.56705 0.58639 0.20363 0.0
H404 H 0.55747 0.41791 0.68239 0.0
H405 H 0.49891 0.35422 0.66783 0.0
H406 H 0.42449 0.44311 0.60542 0.0
H407 H 0.48336 0.50678 0.61517 0.0
Nd408 Nd 0.01885 0.59464 0.8152 0.0
Nd409 Nd 0.0277 0.52128 0.98134 0.0
C410 C 0.00632 0.66432 0.68638 0.0
C411 C 0.97653 0.66375 0.60964 0.0
C412 C 0.94516 0.68298 0.61325 0.0
C413 C 0.91476 0.67856 0.54575 0.0
C414 C 0.91555 0.65495 0.47387 0.0
C415 C 0.9462 0.63481 0.47248 0.0
C416 C 0.9765 0.63942 0.53869 0.0
C417 C 0.00837 0.51561 0.75592 0.0
C418 C 0.93819 0.51751 0.93435 0.0
C419 C 0.05143 0.458 0.10601 0.0
C420 C 0.08099 0.46252 0.18313 0.0
C421 C 0.12036 0.46006 0.16636 0.0
C422 C 0.15076 0.47264 0.23007 0.0
C423 C 0.14216 0.48794 0.31117 0.0
C424 C 0.10204 0.48705 0.33202 0.0
C425 C 0.07184 0.47463 0.26871 0.0
C426 C 0.01501 0.59132 0.04667 0.0
C427 C 0.11133 0.60182 0.87438 0.0
O428 O 0.99041 0.64963 0.77924 0.0
O429 O 0.03638 0.64899 0.67237 0.0
O430 O 0.98759 0.54326 0.72705 0.0
O431 O 0.03433 0.53032 0.81357 0.0
O432 O 0.95555 0.56169 0.89824 0.0
O433 O 0.96061 0.49033 0.95589 0.0
O434 O 0.06686 0.47656 0.01332 0.0
O435 O 0.01742 0.46592 0.12219 0.0
O436 O 0.99961 0.54852 0.09333 0.0
O437 O 0.03755 0.59625 0.97019 0.0
O438 O 0.09465 0.56622 0.951 0.0
O439 O 0.08879 0.61957 0.80978 0.0
H440 H 0.94407 0.70117 0.66852 0.0
H441 H 0.89103 0.69389 0.54895 0.0
H442 H 0.94615 0.61453 0.42095 0.0
H443 H 0.99927 0.62281 0.53557 0.0
H444 H 0.12816 0.45052 0.10135 0.0
H445 H 0.18142 0.47283 0.21276 0.0
H446 H 0.09438 0.49772 0.39551 0.0
H447 H 0.04179 0.47642 0.28492 0.0
loop_
_geom_bond_atom_site_label_1
_geom_bond_atom_site_label_2
_geom_bond_distance
_geom_bond_site_symmetry_2
_ccdc_geom_bond_type
C0 C1 1.384 . S
C0 H13 0.947 . S
C0 C35 1.382 . S
C1 C0 1.384 . S
C1 C2 1.378 . S
C2 C1 1.378 . S
C2 C3 1.378 . S
C2 H14 0.952 . S
C3 C2 1.378 . S
C3 H15 0.950 . S
C3 C34 1.383 . S
H4 C23 0.947 . S
H5 C24 0.946 1_554 S
H6 C26 0.953 . S
H7 C27 0.945 . S
H8 C29 0.952 . S
H9 C30 0.949 . S
H10 C32 0.950 . S
H11 C33 0.948 . S
H12 C35 0.951 . S
H13 C0 0.947 . S
H14 C2 0.952 . S
H15 C3 0.950 . S
N16 C19 1.382 1_554 S
N16 C21 1.363 . S
N17 C19 1.371 . S
N17 C20 1.372 . S
N18 C20 1.361 1_554 S
N18 C21 1.377 . S
C19 N16 1.382 1_556 S
C19 N17 1.371 . S
C19 C22 1.480 . S
C20 N17 1.372 . S
C20 N18 1.361 1_556 S
C20 C28 1.457 . S
C21 N16 1.363 . S
C21 N18 1.377 . S
C21 C34 1.479 . S
C22 C19 1.480 . S
C22 C23 1.383 1_556 S
C22 C27 1.385 . S
C23 H4 0.947 . S
C23 C22 1.383 1_554 S
C23 C24 1.388 1_554 S
C24 H5 0.946 1_556 S
C24 C23 1.388 1_556 S
C24 C25 1.384 . S
C25 C24 1.384 . S
C25 C26 1.377 . S
C26 H6 0.953 . S
C26 C25 1.377 . S
C26 C27 1.369 . S
C27 H7 0.945 . S
C27 C22 1.385 . S
C27 C26 1.369 . S
C28 C20 1.457 . S
C28 C29 1.372 . S
C28 C33 1.364 . S
C29 H8 0.952 . S
C29 C28 1.372 . S
C29 C30 1.389 . S
C30 H9 0.949 . S
C30 C29 1.389 . S
C30 C31 1.387 . S
C31 C30 1.387 . S
C31 C32 1.372 . S
C32 H10 0.950 . S
C32 C31 1.372 . S
C32 C33 1.379 . S
C33 H11 0.948 . S
C33 C28 1.364 . S
C33 C32 1.379 . S
C34 C3 1.383 . S
C34 C21 1.479 . S
C34 C35 1.398 . S
C35 C0 1.382 . S
C35 H12 0.951 . S
C35 C34 1.398 . S
C36 C37 1.384 . S
C36 H49 0.947 . S
C36 C71 1.382 . S
C37 C36 1.384 . S
C37 C38 1.378 . S
C38 C37 1.378 . S
C38 C39 1.378 . S
C38 H50 0.952 . S
C39 C38 1.378 . S
C39 H51 0.950 . S
C39 C70 1.383 . S
H40 C59 0.947 . S
H41 C60 0.946 . S
H42 C62 0.953 . S
H43 C63 0.945 . S
H44 C65 0.952 . S
H45 C66 0.949 . S
H46 C68 0.950 . S
H47 C69 0.948 . S
H48 C71 0.951 . S
H49 C36 0.947 . S
H50 C38 0.952 . S
H51 C39 0.950 . S
N52 C55 1.382 . S
N52 C57 1.363 . S
N53 C55 1.371 1_556 S
N53 C56 1.372 . S
N54 C56 1.361 1_554 S
N54 C57 1.377 . S
C55 N52 1.382 . S
C55 N53 1.371 1_554 S
C55 C58 1.480 . S
C56 N53 1.372 . S
C56 N54 1.361 1_556 S
C56 C64 1.457 . S
C57 N52 1.363 . S
C57 N54 1.377 . S
C57 C70 1.479 . S
C58 C55 1.480 . S
C58 C59 1.383 . S
C58 C63 1.385 1_554 S
C59 H40 0.947 . S
C59 C58 1.383 . S
C59 C60 1.388 . S
C60 H41 0.946 . S
C60 C59 1.388 . S
C60 C61 1.384 . S
C61 C60 1.384 . S
C61 C62 1.377 1_554 S
C62 H42 0.953 . S
C62 C61 1.377 1_556 S
C62 C63 1.369 . S
C63 H43 0.945 . S
C63 C58 1.385 1_556 S
C63 C62 1.369 . S
C64 C56 1.457 . S
C64 C65 1.372 . S
C64 C69 1.364 . S
C65 H44 0.952 . S
C65 C64 1.372 . S
C65 C66 1.389 . S
C66 H45 0.949 . S
C66 C65 1.389 . S
C66 C67 1.387 . S
C67 C66 1.387 . S
C67 C68 1.372 . S
C68 H46 0.950 . S
C68 C67 1.372 . S
C68 C69 1.379 . S
C69 H47 0.948 . S
C69 C64 1.364 . S
C69 C68 1.379 . S
C70 C39 1.383 . S
C70 C57 1.479 . S
C70 C71 1.398 . S
C71 C36 1.382 . S
C71 H48 0.951 . S
C71 C70 1.398 . S
C72 C73 1.384 . S
C72 H85 0.947 . S
C72 C107 1.382 . S
C73 C72 1.384 . S
C73 C74 1.378 . S
C74 C73 1.378 . S
C74 C75 1.378 . S
C74 H86 0.952 . S
C75 C74 1.378 . S
C75 H87 0.950 . S
C75 C106 1.383 . S
H76 C95 0.947 . S
H77 C96 0.946 . S
H78 C98 0.953 . S
H79 C99 0.945 . S
H80 C101 0.952 . S
H81 C102 0.949 . S
H82 C104 0.950 . S
H83 C105 0.948 . S
H84 C107 0.951 . S
H85 C72 0.947 . S
H86 C74 0.952 . S
H87 C75 0.950 . S
N88 C91 1.382 . S
N88 C93 1.363 . S
N89 C91 1.371 1_556 S
N89 C92 1.372 . S
N90 C92 1.361 1_554 S
N90 C93 1.377 . S
C91 N88 1.382 . S
C91 N89 1.371 1_554 S
C91 C94 1.480 1_554 S
C92 N89 1.372 . S
C92 N90 1.361 1_556 S
C92 C100 1.457 . S
C93 N88 1.363 . S
C93 N90 1.377 . S
C93 C106 1.479 . S
C94 C91 1.480 1_556 S
C94 C95 1.383 1_556 S
C94 C99 1.385 . S
C95 H76 0.947 . S
C95 C94 1.383 1_554 S
C95 C96 1.388 . S
C96 H77 0.946 . S
C96 C95 1.388 . S
C96 C97 1.384 1_554 S
C97 C96 1.384 1_556 S
C97 C98 1.377 . S
C98 H78 0.953 . S
C98 C97 1.377 . S
C98 C99 1.369 . S
C99 H79 0.945 . S
C99 C94 1.385 . S
C99 C98 1.369 . S
C100 C92 1.457 . S
C100 C101 1.372 . S
C100 C105 1.364 . S
C101 H80 0.952 . S
C101 C100 1.372 . S
C101 C102 1.389 . S
C102 H81 0.949 . S
C102 C101 1.389 . S
C102 C103 1.387 . S
C103 C102 1.387 . S
C103 C104 1.372 . S
C104 H82 0.950 . S
C104 C103 1.372 . S
C104 C105 1.379 . S
C105 H83 0.948 . S
C105 C100 1.364 . S
C105 C104 1.379 . S
C106 C75 1.383 . S
C106 C93 1.479 . S
C106 C107 1.398 . S
C107 C72 1.382 . S
C107 H84 0.951 . S
C107 C106 1.398 . S
C108 C109 1.384 . S
C108 H121 0.947 . S
C108 C143 1.382 . S
C109 C108 1.384 . S
C109 C110 1.378 . S
C110 C109 1.378 . S
C110 C111 1.378 . S
C110 H122 0.952 . S
C111 C110 1.378 . S
C111 H123 0.950 . S
C111 C142 1.383 . S
H112 C131 0.947 . S
H113 C132 0.946 . S
H114 C134 0.953 . S
H115 C135 0.945 . S
H116 C137 0.952 . S
H117 C138 0.949 . S
H118 C140 0.950 . S
H119 C141 0.948 . S
H120 C143 0.951 . S
H121 C108 0.947 . S
H122 C110 0.952 . S
H123 C111 0.950 . S
N124 C127 1.382 . S
N124 C129 1.363 . S
N125 C127 1.371 . S
N125 C128 1.372 . S
N126 C128 1.361 . S
N126 C129 1.377 . S
C127 N124 1.382 . S
C127 N125 1.371 . S
C127 C130 1.480 . S
C128 N125 1.372 . S
C128 N126 1.361 . S
C128 C136 1.457 . S
C129 N124 1.363 . S
C129 N126 1.377 . S
C129 C142 1.479 . S
C130 C127 1.480 . S
C130 C131 1.383 . S
C130 C135 1.385 . S
C131 H112 0.947 . S
C131 C130 1.383 . S
C131 C132 1.388 1_565 S
C132 H113 0.946 . S
C132 C131 1.388 1_545 S
C132 C133 1.384 . S
C133 C132 1.384 . S
C133 C134 1.377 . S
C134 H114 0.953 . S
C134 C133 1.377 . S
C134 C135 1.369 1_545 S
C135 H115 0.945 . S
C135 C130 1.385 . S
C135 C134 1.369 1_565 S
C136 C128 1.457 . S
C136 C137 1.372 . S
C136 C141 1.364 . S
C137 H116 0.952 . S
C137 C136 1.372 . S
C137 C138 1.389 . S
C138 H117 0.949 . S
C138 C137 1.389 . S
C138 C139 1.387 . S
C139 C138 1.387 . S
C139 C140 1.372 . S
C140 H118 0.950 . S
C140 C139 1.372 . S
C140 C141 1.379 . S
C141 H119 0.948 . S
C141 C136 1.364 . S
C141 C140 1.379 . S
C142 C111 1.383 . S
C142 C129 1.479 . S
C142 C143 1.398 . S
C143 C108 1.382 . S
C143 H120 0.951 . S
C143 C142 1.398 . S
C144 C145 1.384 . S
C144 H157 0.947 . S
C144 C179 1.382 . S
C145 C144 1.384 . S
C145 C146 1.378 . S
C146 C145 1.378 . S
C146 C147 1.378 . S
C146 H158 0.952 . S
C147 C146 1.378 . S
C147 H159 0.950 . S
C147 C178 1.383 . S
H148 C167 0.947 . S
H149 C168 0.946 . S
H150 C170 0.953 1_554 S
H151 C171 0.945 . S
H152 C173 0.952 . S
H153 C174 0.949 . S
H154 C176 0.950 . S
H155 C177 0.948 . S
H156 C179 0.951 . S
H157 C144 0.947 . S
H158 C146 0.952 . S
H159 C147 0.950 . S
N160 C163 1.382 . S
N160 C165 1.363 . S
N161 C163 1.371 . S
N161 C164 1.372 . S
N162 C164 1.361 . S
N162 C165 1.377 . S
C163 N160 1.382 . S
C163 N161 1.371 . S
C163 C166 1.480 . S
C164 N161 1.372 . S
C164 N162 1.361 . S
C164 C172 1.457 . S
C165 N160 1.363 . S
C165 N162 1.377 . S
C165 C178 1.479 . S
C166 C163 1.480 . S
C166 C167 1.383 . S
C166 C171 1.385 . S
C167 H148 0.947 . S
C167 C166 1.383 . S
C167 C168 1.388 . S
C168 H149 0.946 . S
C168 C167 1.388 . S
C168 C169 1.384 . S
C169 C168 1.384 . S
C169 C170 1.377 . S
C170 H150 0.953 1_556 S
C170 C169 1.377 . S
C170 C171 1.369 . S
C171 H151 0.945 . S
C171 C166 1.385 . S
C171 C170 1.369 . S
C172 C164 1.457 . S
C172 C173 1.372 1_556 S
C172 C177 1.364 . S
C173 H152 0.952 . S
C173 C172 1.372 1_554 S
C173 C174 1.389 . S
C174 H153 0.949 . S
C174 C173 1.389 . S
C174 C175 1.387 . S
C175 C174 1.387 . S
C175 C176 1.372 1_554 S
C176 H154 0.950 . S
C176 C175 1.372 1_556 S
C176 C177 1.379 . S
C177 H155 0.948 . S
C177 C172 1.364 . S
C177 C176 1.379 . S
C178 C147 1.383 . S
C178 C165 1.479 . S
C178 C179 1.398 . S
C179 C144 1.382 . S
C179 H156 0.951 . S
C179 C178 1.398 . S
C180 C181 1.384 . S
C180 H193 0.947 . S
C180 C215 1.382 . S
C181 C180 1.384 . S
C181 C182 1.378 . S
C182 C181 1.378 . S
C182 C183 1.378 . S
C182 H194 0.952 . S
C183 C182 1.378 . S
C183 H195 0.950 . S
C183 C214 1.383 . S
H184 C203 0.947 . S
H185 C204 0.946 . S
H186 C206 0.953 . S
H187 C207 0.945 . S
H188 C209 0.952 . S
H189 C210 0.949 . S
H190 C212 0.950 . S
H191 C213 0.948 . S
H192 C215 0.951 . S
H193 C180 0.947 . S
H194 C182 0.952 . S
H195 C183 0.950 . S
N196 C199 1.382 . S
N196 C201 1.363 . S
N197 C199 1.371 . S
N197 C200 1.372 . S
N198 C200 1.361 . S
N198 C201 1.377 . S
C199 N196 1.382 . S
C199 N197 1.371 . S
C199 C202 1.480 . S
C200 N197 1.372 . S
C200 N198 1.361 . S
C200 C208 1.457 . S
C201 N196 1.363 . S
C201 N198 1.377 . S
C201 C214 1.479 . S
C202 C199 1.480 . S
C202 C203 1.383 . S
C202 C207 1.385 . S
C203 H184 0.947 . S
C203 C202 1.383 . S
C203 C204 1.388 . S
C204 H185 0.946 . S
C204 C203 1.388 . S
C204 C205 1.384 . S
C205 C204 1.384 . S
C205 C206 1.377 . S
C206 H186 0.953 . S
C206 C205 1.377 . S
C206 C207 1.369 . S
C207 H187 0.945 . S
C207 C202 1.385 . S
C207 C206 1.369 . S
C208 C200 1.457 . S
C208 C209 1.372 . S
C208 C213 1.364 . S
C209 H188 0.952 . S
C209 C208 1.372 . S
C209 C210 1.389 1_556 S
C210 H189 0.949 . S
C210 C209 1.389 1_554 S
C210 C211 1.387 . S
C211 C210 1.387 . S
C211 C212 1.372 1_554 S
C212 H190 0.950 . S
C212 C211 1.372 1_556 S
C212 C213 1.379 . S
C213 H191 0.948 . S
C213 C208 1.364 . S
C213 C212 1.379 . S
C214 C183 1.383 . S
C214 C201 1.479 . S
C214 C215 1.398 . S
C215 C180 1.382 . S
C215 H192 0.951 . S
C215 C214 1.398 . S
C216 C217 1.384 . S
C216 H229 0.947 . S
C216 C251 1.382 . S
C217 C216 1.384 . S
C217 C218 1.378 . S
C218 C217 1.378 . S
C218 C219 1.378 . S
C218 H230 0.952 . S
C219 C218 1.378 . S
C219 H231 0.950 . S
C219 C250 1.383 . S
H220 C239 0.947 . S
H221 C240 0.946 . S
H222 C242 0.953 . S
H223 C243 0.945 . S
H224 C245 0.952 . S
H225 C246 0.949 . S
H226 C248 0.950 . S
H227 C249 0.948 . S
H228 C251 0.951 . S
H229 C216 0.947 . S
H230 C218 0.952 . S
H231 C219 0.950 . S
N232 C235 1.382 . S
N232 C237 1.363 . S
N233 C235 1.371 . S
N233 C236 1.372 . S
N234 C236 1.361 . S
N234 C237 1.377 . S
C235 N232 1.382 . S
C235 N233 1.371 . S
C235 C238 1.480 . S
C236 N233 1.372 . S
C236 N234 1.361 . S
C236 C244 1.457 . S
C237 N232 1.363 . S
C237 N234 1.377 . S
C237 C250 1.479 . S
C238 C235 1.480 . S
C238 C239 1.383 . S
C238 C243 1.385 . S
C239 H220 0.947 . S
C239 C238 1.383 . S
C239 C240 1.388 . S
C240 H221 0.946 . S
C240 C239 1.388 . S
C240 C241 1.384 . S
C241 C240 1.384 . S
C241 C242 1.377 . S
C242 H222 0.953 . S
C242 C241 1.377 . S
C242 C243 1.369 . S
C243 H223 0.945 . S
C243 C238 1.385 . S
C243 C242 1.369 . S
C244 C236 1.457 . S
C244 C245 1.372 . S
C244 C249 1.364 . S
C245 H224 0.952 . S
C245 C244 1.372 . S
C245 C246 1.389 1_556 S
C246 H225 0.949 . S
C246 C245 1.389 1_554 S
C246 C247 1.387 . S
C247 C246 1.387 . S
C247 C248 1.372 1_554 S
C248 H226 0.950 . S
C248 C247 1.372 1_556 S
C248 C249 1.379 . S
C249 H227 0.948 . S
C249 C244 1.364 . S
C249 C248 1.379 . S
C250 C219 1.383 . S
C250 C237 1.479 . S
C250 C251 1.398 . S
C251 C216 1.382 . S
C251 H228 0.951 . S
C251 C250 1.398 . S
C252 C253 1.384 . S
C252 H265 0.947 . S
C252 C287 1.382 . S
C253 C252 1.384 . S
C253 C254 1.378 . S
C254 C253 1.378 . S
C254 C255 1.378 . S
C254 H266 0.952 . S
C255 C254 1.378 . S
C255 H267 0.950 . S
C255 C286 1.383 . S
H256 C275 0.947 . S
H257 C276 0.946 . S
H258 C278 0.953 . S
H259 C279 0.945 . S
H260 C281 0.952 . S
H261 C282 0.949 . S
H262 C284 0.950 1_556 S
H263 C285 0.948 . S
H264 C287 0.951 . S
H265 C252 0.947 . S
H266 C254 0.952 . S
H267 C255 0.950 . S
N268 C271 1.382 . S
N268 C273 1.363 . S
N269 C271 1.371 . S
N269 C272 1.372 . S
N270 C272 1.361 . S
N270 C273 1.377 . S
C271 N268 1.382 . S
C271 N269 1.371 . S
C271 C274 1.480 . S
C272 N269 1.372 . S
C272 N270 1.361 . S
C272 C280 1.457 . S
C273 N268 1.363 . S
C273 N270 1.377 . S
C273 C286 1.479 . S
C274 C271 1.480 . S
C274 C275 1.383 . S
C274 C279 1.385 . S
C275 H256 0.947 . S
C275 C274 1.383 . S
C275 C276 1.388 . S
C276 H257 0.946 . S
C276 C275 1.388 . S
C276 C277 1.384 . S
C277 C276 1.384 . S
C277 C278 1.377 . S
C278 H258 0.953 . S
C278 C277 1.377 . S
C278 C279 1.369 . S
C279 H259 0.945 . S
C279 C274 1.385 . S
C279 C278 1.369 . S
C280 C272 1.457 . S
C280 C281 1.372 . S
C280 C285 1.364 . S
C281 H260 0.952 . S
C281 C280 1.372 . S
C281 C282 1.389 1_554 S
C282 H261 0.949 . S
C282 C281 1.389 1_556 S
C282 C283 1.387 . S
C283 C282 1.387 . S
C283 C284 1.372 1_556 S
C284 H262 0.950 1_554 S
C284 C283 1.372 1_554 S
C284 C285 1.379 . S
C285 H263 0.948 . S
C285 C280 1.364 . S
C285 C284 1.379 . S
C286 C255 1.383 . S
C286 C273 1.479 . S
C286 C287 1.398 . S
C287 C252 1.382 . S
C287 H264 0.951 . S
C287 C286 1.398 . S
Nd288 C290 2.836 1_445 S
Nd288 O308 2.500 1_445 S
Nd288 O309 2.492 . S
Nd288 O310 2.487 . S
Nd288 O311 2.682 . S
Nd288 O312 2.410 1_545 S
Nd288 O317 2.414 1_455 S
Nd288 O319 2.424 . S
Nd289 C299 2.836 . S
Nd289 O311 2.414 1_554 S
Nd289 O313 2.424 1_545 S
Nd289 O314 2.500 . S
Nd289 O315 2.492 . S
Nd289 O316 2.487 1_455 S
Nd289 O317 2.682 1_454 S
Nd289 O318 2.410 1_554 S
C290 Nd288 2.836 1_665 S
C290 C291 1.498 . S
C290 O308 1.258 . S
C290 O309 1.239 1_665 S
C291 C290 1.498 . S
C291 C292 1.366 . S
C291 C296 1.407 1_655 S
C292 C291 1.366 . S
C292 C293 1.392 . S
C292 H320 0.930 . S
C293 C292 1.392 . S
C293 C294 1.398 . S
C293 H321 0.929 . S
C294 C293 1.398 . S
C294 C295 1.352 . S
C295 C294 1.352 . S
C295 C296 1.384 1_655 S
C295 H322 0.930 1_655 S
C296 C291 1.407 1_455 S
C296 C295 1.384 1_455 S
C296 H323 0.929 . S
C297 O310 1.241 . S
C297 O311 1.273 . S
C298 O312 1.251 . S
C298 O313 1.268 1_556 S
C299 Nd289 2.836 . S
C299 C300 1.498 . S
C299 O314 1.258 . S
C299 O315 1.239 . S
C300 C299 1.498 . S
C300 C301 1.366 . S
C300 C305 1.407 . S
C301 C300 1.366 . S
C301 C302 1.392 . S
C301 H324 0.930 . S
C302 C301 1.392 . S
C302 C303 1.398 . S
C302 H325 0.929 . S
C303 C302 1.398 . S
C303 C304 1.352 . S
C304 C303 1.352 . S
C304 C305 1.384 . S
C304 H326 0.930 . S
C305 C300 1.407 . S
C305 C304 1.384 . S
C305 H327 0.929 . S
C306 O316 1.241 1_556 S
C306 O317 1.273 . S
C307 O318 1.251 . S
C307 O319 1.268 . S
O308 Nd288 2.500 1_665 S
O308 C290 1.258 . S
O309 Nd288 2.492 . S
O309 C290 1.239 1_445 S
O310 Nd288 2.487 . S
O310 C297 1.241 . S
O311 Nd288 2.682 . S
O311 Nd289 2.414 1_556 S
O311 C297 1.273 . S
O312 Nd288 2.410 1_565 S
O312 C298 1.251 . S
O313 Nd289 2.424 1_565 S
O313 C298 1.268 1_554 S
O314 Nd289 2.500 . S
O314 C299 1.258 . S
O315 Nd289 2.492 . S
O315 C299 1.239 . S
O316 Nd289 2.487 1_655 S
O316 C306 1.241 1_554 S
O317 Nd288 2.414 1_655 S
O317 Nd289 2.682 1_656 S
O317 C306 1.273 . S
O318 Nd289 2.410 1_556 S
O318 C307 1.251 . S
O319 Nd288 2.424 . S
O319 C307 1.268 . S
H320 C292 0.930 . S
H321 C293 0.929 . S
H322 C295 0.930 1_455 S
H323 C296 0.929 . S
H324 C301 0.930 . S
H325 C302 0.929 . S
H326 C304 0.930 . S
H327 C305 0.929 . S
Nd328 C330 2.836 1_545 S
Nd328 O348 2.500 1_545 S
Nd328 O349 2.492 . S
Nd328 O350 2.487 . S
Nd328 O351 2.682 . S
Nd328 O352 2.410 . S
Nd328 O357 2.414 1_545 S
Nd328 O359 2.424 . S
Nd329 C339 2.836 1_556 S
Nd329 O351 2.414 . S
Nd329 O353 2.424 . S
Nd329 O354 2.500 1_556 S
Nd329 O355 2.492 1_556 S
Nd329 O356 2.487 1_556 S
Nd329 O357 2.682 1_545 S
Nd329 O358 2.410 . S
C330 Nd328 2.836 1_565 S
C330 C331 1.498 . S
C330 O348 1.258 . S
C330 O349 1.239 1_565 S
C331 C330 1.498 . S
C331 C332 1.366 . S
C331 C336 1.407 . S
C332 C331 1.366 . S
C332 C333 1.392 . S
C332 H360 0.930 . S
C333 C332 1.392 . S
C333 C334 1.398 . S
C333 H361 0.929 . S
C334 C333 1.398 . S
C334 C335 1.352 . S
C335 C334 1.352 . S
C335 C336 1.384 . S
C335 H362 0.930 . S
C336 C331 1.407 . S
C336 C335 1.384 . S
C336 H363 0.929 . S
C337 O350 1.241 . S
C337 O351 1.273 . S
C338 O352 1.251 . S
C338 O353 1.268 . S
C339 Nd329 2.836 1_554 S
C339 C340 1.498 . S
C339 O354 1.258 . S
C339 O355 1.239 . S
C340 C339 1.498 . S
C340 C341 1.366 . S
C340 C345 1.407 . S
C341 C340 1.366 . S
C341 C342 1.392 . S
C341 H364 0.930 . S
C342 C341 1.392 . S
C342 C343 1.398 . S
C342 H365 0.929 . S
C343 C342 1.398 . S
C343 C344 1.352 . S
C344 C343 1.352 . S
C344 C345 1.384 . S
C344 H366 0.930 . S
C345 C340 1.407 . S
C345 C344 1.384 . S
C345 H367 0.929 . S
C346 O356 1.241 1_565 S
C346 O357 1.273 1_554 S
C347 O358 1.251 . S
C347 O359 1.268 . S
O348 Nd328 2.500 1_565 S
O348 C330 1.258 . S
O349 Nd328 2.492 . S
O349 C330 1.239 1_545 S
O350 Nd328 2.487 . S
O350 C337 1.241 . S
O351 Nd328 2.682 . S
O351 Nd329 2.414 . S
O351 C337 1.273 . S
O352 Nd328 2.410 . S
O352 C338 1.251 . S
O353 Nd329 2.424 . S
O353 C338 1.268 . S
O354 Nd329 2.500 1_554 S
O354 C339 1.258 . S
O355 Nd329 2.492 1_554 S
O355 C339 1.239 . S
O356 Nd329 2.487 1_554 S
O356 C346 1.241 1_545 S
O357 Nd328 2.414 1_565 S
O357 Nd329 2.682 1_565 S
O357 C346 1.273 1_556 S
O358 Nd329 2.410 . S
O358 C347 1.251 . S
O359 Nd328 2.424 . S
O359 C347 1.268 . S
H360 C332 0.930 . S
H361 C333 0.929 . S
H362 C335 0.930 . S
H363 C336 0.929 . S
H364 C341 0.930 . S
H365 C342 0.929 . S
H366 C344 0.930 . S
H367 C345 0.929 . S
Nd368 C370 2.836 . S
Nd368 O388 2.500 . S
Nd368 O389 2.492 . S
Nd368 O390 2.487 . S
Nd368 O391 2.682 1_554 S
Nd368 O392 2.410 1_554 S
Nd368 O397 2.414 1_554 S
Nd368 O399 2.424 . S
Nd369 C379 2.836 . S
Nd369 O391 2.414 . S
Nd369 O393 2.424 . S
Nd369 O394 2.500 . S
Nd369 O395 2.492 . S
Nd369 O396 2.487 . S
Nd369 O397 2.682 . S
Nd369 O398 2.410 . S
C370 Nd368 2.836 . S
C370 C371 1.498 . S
C370 O388 1.258 . S
C370 O389 1.239 . S
C371 C370 1.498 . S
C371 C372 1.366 . S
C371 C376 1.407 . S
C372 C371 1.366 . S
C372 C373 1.392 . S
C372 H400 0.930 . S
C373 C372 1.392 . S
C373 C374 1.398 . S
C373 H401 0.929 . S
C374 C373 1.398 . S
C374 C375 1.352 . S
C375 C374 1.352 . S
C375 C376 1.384 . S
C375 H402 0.930 . S
C376 C371 1.407 . S
C376 C375 1.384 . S
C376 H403 0.929 . S
C377 O390 1.241 1_556 S
C377 O391 1.273 . S
C378 O392 1.251 . S
C378 O393 1.268 . S
C379 Nd369 2.836 . S
C379 C380 1.498 . S
C379 O394 1.258 . S
C379 O395 1.239 . S
C380 C379 1.498 . S
C380 C381 1.366 . S
C380 C385 1.407 . S
C381 C380 1.366 . S
C381 C382 1.392 . S
C381 H404 0.930 . S
C382 C381 1.392 . S
C382 C383 1.398 . S
C382 H405 0.929 . S
C383 C382 1.398 . S
C383 C384 1.352 . S
C384 C383 1.352 . S
C384 C385 1.384 . S
C384 H406 0.930 . S
C385 C380 1.407 . S
C385 C384 1.384 . S
C385 H407 0.929 . S
C386 O396 1.241 . S
C386 O397 1.273 . S
C387 O398 1.247 1_554 S
C387 O399 1.271 . S
O388 Nd368 2.500 . S
O388 C370 1.258 . S
O389 Nd368 2.492 . S
O389 C370 1.239 . S
O390 Nd368 2.487 . S
O390 C377 1.241 1_554 S
O391 Nd368 2.682 1_556 S
O391 Nd369 2.414 . S
O391 C377 1.273 . S
O392 Nd368 2.410 1_556 S
O392 C378 1.251 . S
O393 Nd369 2.424 . S
O393 C378 1.268 . S
O394 Nd369 2.500 . S
O394 C379 1.258 . S
O395 Nd369 2.492 . S
O395 C379 1.239 . S
O396 Nd369 2.487 . S
O396 C386 1.241 . S
O397 Nd368 2.414 1_556 S
O397 Nd369 2.682 . S
O397 C386 1.273 . S
O398 Nd369 2.410 . S
O398 C387 1.247 1_556 S
O399 Nd368 2.424 . S
O399 C387 1.271 . S
H400 C372 0.930 . S
H401 C373 0.929 . S
H402 C375 0.930 . S
H403 C376 0.929 . S
H404 C381 0.930 . S
H405 C382 0.929 . S
H406 C384 0.930 . S
H407 C385 0.929 . S
Nd408 C410 2.836 1_455 S
Nd408 O428 2.500 1_455 S
Nd408 O429 2.492 1_455 S
Nd408 O430 2.487 . S
Nd408 O431 2.682 . S
Nd408 O432 2.410 1_455 S
Nd408 O437 2.414 . S
Nd408 O439 2.424 . S
Nd409 C419 2.836 . S
Nd409 O431 2.414 1_554 S
Nd409 O433 2.424 1_455 S
Nd409 O434 2.500 . S
Nd409 O435 2.492 . S
Nd409 O436 2.487 . S
Nd409 O437 2.682 1_554 S
Nd409 O438 2.410 1_554 S
C410 Nd408 2.836 1_655 S
C410 C411 1.498 . S
C410 O428 1.258 . S
C410 O429 1.239 . S
C411 C410 1.498 . S
C411 C412 1.366 . S
C411 C416 1.407 . S
C412 C411 1.366 . S
C412 C413 1.392 . S
C412 H440 0.930 . S
C413 C412 1.392 . S
C413 C414 1.398 . S
C413 H441 0.929 . S
C414 C413 1.398 . S
C414 C415 1.352 . S
C415 C414 1.352 . S
C415 C416 1.384 . S
C415 H442 0.930 . S
C416 C411 1.407 . S
C416 C415 1.384 . S
C416 H443 0.929 . S
C417 O430 1.241 . S
C417 O431 1.273 . S
C418 O432 1.251 . S
C418 O433 1.268 1_556 S
C419 Nd409 2.836 . S
C419 C420 1.498 . S
C419 O434 1.258 . S
C419 O435 1.239 . S
C420 C419 1.498 . S
C420 C421 1.366 . S
C420 C425 1.407 . S
C421 C420 1.366 . S
C421 C422 1.392 . S
C421 H444 0.930 . S
C422 C421 1.392 . S
C422 C423 1.398 . S
C422 H445 0.929 . S
C423 C422 1.398 . S
C423 C424 1.352 . S
C424 C423 1.352 . S
C424 C425 1.384 . S
C424 H446 0.930 . S
C425 C420 1.407 . S
C425 C424 1.384 . S
C425 H447 0.929 . S
C426 O436 1.241 1_556 S
C426 O437 1.273 . S
C427 O438 1.251 . S
C427 O439 1.268 . S
O428 Nd408 2.500 1_655 S
O428 C410 1.258 . S
O429 Nd408 2.492 1_655 S
O429 C410 1.239 . S
O430 Nd408 2.487 . S
O430 C417 1.241 . S
O431 Nd408 2.682 . S
O431 Nd409 2.414 1_556 S
O431 C417 1.273 . S
O432 Nd408 2.410 1_655 S
O432 C418 1.251 . S
O433 Nd409 2.424 1_655 S
O433 C418 1.268 1_554 S
O434 Nd409 2.500 . S
O434 C419 1.258 . S
O435 Nd409 2.492 . S
O435 C419 1.239 . S
O436 Nd409 2.487 . S
O436 C426 1.241 1_554 S
O437 Nd408 2.414 . S
O437 Nd409 2.682 1_556 S
O437 C426 1.273 . S
O438 Nd409 2.410 1_556 S
O438 C427 1.251 . S
O439 Nd408 2.424 . S
O439 C427 1.268 . S
H440 C412 0.930 . S
H441 C413 0.929 . S
H442 C415 0.930 . S
H443 C416 0.929 . S
H444 C421 0.930 . S
H445 C422 0.929 . S
H446 C424 0.930 . S
H447 C425 0.929 . S
C241 C297 2.770 . S
C337 C277 4.581 . S
C386 C169 1.614 . S
C417 C205 3.128 . S
C306 C97 2.588 1_545 S
C133 C346 4.694 1_545 S
C25 C377 1.757 . S
C61 C426 2.947 1_654 S
C307 C211 3.881 1_556 S
C347 C247 4.355 1_556 S
C383 C253 0.865 . S
C175 C427 3.431 1_554 S
C67 C298 3.754 1_655 S
C338 C103 4.205 1_545 S
C374 C109 1.011 . S
C31 C418 3.435 . S
C181 C303 2.836 . S
C217 C343 2.352 . S
C387 C283 5.150 1_554 S
C423 C145 2.220 . S
C37 C294 2.789 . S
C334 C73 2.414 . S
C378 C139 5.205 . S
C1 C414 2.339 . S
