# Generated by pormake.
# Topology anh, (6,3)-cn, num edge types: 1
# Building blocks:
#     Node 0, Type 0, BuildingBlock: CUKXOW_clean_sbu_0, # of connection points: 6
#     Node 1, Type 0, BuildingBlock: CUKXOW_clean_sbu_0, # of connection points: 6
#     Node 2, Type 0, BuildingBlock: CUKXOW_clean_sbu_0, # of connection points: 6
#     Node 3, Type 1, BuildingBlock: BETDAH_clean_linker_0, # of connection points: 3
#     Node 4, Type 1, BuildingBlock: BETDAH_clean_linker_0, # of connection points: 3
#     Node 5, Type 1, BuildingBlock: BETDAH_clean_linker_0, # of connection points: 3
#     Node 6, Type 1, BuildingBlock: BETDAH_clean_linker_0, # of connection points: 3
#     Node 7, Type 1, BuildingBlock: BETDAH_clean_linker_0, # of connection points: 3
#     Node 8, Type 1, BuildingBlock: BETDAH_clean_linker_0, # of connection points: 3
#     Edge 9, Type (0, 1), BuildingBlock: XUDNAN_clean_linker_2, # of connection points: 2
#     Edge 10, Type (0, 1), BuildingBlock: XUDNAN_clean_linker_2, # of connection points: 2
#     Edge 11, Type (0, 1), BuildingBlock: XUDNAN_clean_linker_2, # of connection points: 2
#     Edge 12, Type (0, 1), BuildingBlock: XUDNAN_clean_linker_2, # of connection points: 2
#     Edge 13, Type (0, 1), BuildingBlock: XUDNAN_clean_linker_2, # of connection points: 2
#     Edge 14, Type (0, 1), BuildingBlock: XUDNAN_clean_linker_2, # of connection points: 2
#     Edge 15, Type (0, 1), BuildingBlock: XUDNAN_clean_linker_2, # of connection points: 2
#     Edge 16, Type (0, 1), BuildingBlock: XUDNAN_clean_linker_2, # of connection points: 2
#     Edge 17, Type (0, 1), BuildingBlock: XUDNAN_clean_linker_2, # of connection points: 2
#     Edge 18, Type (0, 1), BuildingBlock: XUDNAN_clean_linker_2, # of connection points: 2
#     Edge 19, Type (0, 1), BuildingBlock: XUDNAN_clean_linker_2, # of connection points: 2
#     Edge 20, Type (0, 1), BuildingBlock: XUDNAN_clean_linker_2, # of connection points: 2
#     Edge 21, Type (0, 1), BuildingBlock: XUDNAN_clean_linker_2, # of connection points: 2
#     Edge 22, Type (0, 1), BuildingBlock: XUDNAN_clean_linker_2, # of connection points: 2
#     Edge 23, Type (0, 1), BuildingBlock: XUDNAN_clean_linker_2, # of connection points: 2
#     Edge 24, Type (0, 1), BuildingBlock: XUDNAN_clean_linker_2, # of connection points: 2
#     Edge 25, Type (0, 1), BuildingBlock: XUDNAN_clean_linker_2, # of connection points: 2
#     Edge 26, Type (0, 1), BuildingBlock: XUDNAN_clean_linker_2, # of connection points: 2
# Relax obj value: 0.070
# Max RMSD: 0.141
# Mean RMSD: 0.087
data_MOF--net-anh--node1-CUKXOW_clean_sbu_0--node2-BETDAH_clean_linker_0--edge1-XUDNAN_clean_linker_2
_symmetry_space_group_name_H-M    P1
_symmetry_Int_Tables_number       1
_symmetry_cell_setting            triclinic
loop_
_symmetry_equiv_pos_as_xyz
'x, y, z'
_cell_length_a     29.082294
_cell_length_b     28.378594
_cell_length_c     48.005556
_cell_angle_alpha  98.123916
_cell_angle_beta   92.714179
_cell_angle_gamma 112.58228
loop_
_atom_site_label
_atom_site_type_symbol
_atom_site_fract_x
_atom_site_fract_y
_atom_site_fract_z
_atom_type_partial_charge
Tb0 Tb 0.08287 0.59981 0.16541 0.0
C1 C 0.05068 0.56209 0.22158 0.0
Tb2 Tb 1.01978 0.48772 0.16211 0.0
O3 O 1.02251 0.62134 0.17982 0.0
O4 O 1.00517 0.55186 0.15193 0.0
O5 O 0.08632 0.59695 0.21047 0.0
C6 C 0.94538 0.39801 0.16569 0.0
O7 O 1.01673 0.51967 0.20588 0.0
C8 C 0.11701 0.51003 0.16153 0.0
C9 C 0.05121 0.52445 0.10571 0.0
O10 O 0.94118 0.4342 0.15342 0.0
O11 O 0.9918 0.41186 0.17562 0.0
O12 O 0.08205 0.46673 0.1487 0.0
O13 O 0.09639 0.53595 0.17571 0.0
O14 O 1.01783 0.48822 0.11722 0.0
O15 O 0.08301 0.56906 0.12086 0.0
C16 C 0.15818 0.69052 0.16454 0.0
O17 O 0.16255 0.64934 0.1705 0.0
O18 O 0.11106 0.68086 0.15885 0.0
C19 C 0.98642 0.57916 0.16681 0.0
Tb20 Tb 0.58348 0.03595 0.50313 0.0
C21 C 0.63066 0.05184 0.44716 0.0
Tb22 Tb 0.6889 0.11394 0.50678 0.0
O23 O 0.55562 0.08693 0.48412 0.0
O24 O 0.61921 0.11832 0.51338 0.0
O25 O 0.60042 0.01654 0.46058 0.0
C26 C 0.76915 0.19731 0.50174 0.0
O27 O 0.66394 0.09672 0.46112 0.0
C28 C 0.68096 0.02194 0.51493 0.0
C29 C 0.6435 0.09305 0.5638 0.0
O30 O 0.76578 0.14992 0.49639 0.0
O31 O 0.72767 0.19778 0.51026 0.0
O32 O 0.71816 0.06468 0.52634 0.0
O33 O 0.65339 0.03174 0.49752 0.0
O34 O 0.68093 0.1241 0.55176 0.0
O35 O 0.60276 0.0559 0.54908 0.0
C36 C 0.49912 0.95479 0.50531 0.0
O37 O 0.50267 0.99399 0.49335 0.0
O38 O 0.54315 0.96124 0.51632 0.0
C39 C 0.59201 0.12929 0.49642 0.0
Tb40 Tb 0.50583 0.57135 0.8256 0.0
C41 C 0.55476 0.57041 0.88488 0.0
Tb42 Tb 0.61443 0.58258 0.8307 0.0
O43 O 0.47884 0.49234 0.83421 0.0
O44 O 0.54405 0.52191 0.81493 0.0
O45 O 0.51973 0.58081 0.87136 0.0
C46 C 0.69397 0.55825 0.82898 0.0
O47 O 0.59278 0.56476 0.87247 0.0
C48 C 0.60271 0.67018 0.83178 0.0
C49 C 0.56606 0.588 0.77233 0.0
O50 O 0.69078 0.59471 0.84757 0.0
O51 O 0.6526 0.53567 0.81237 0.0
O52 O 0.64238 0.66363 0.82398 0.0
O53 O 0.57577 0.63115 0.84164 0.0
O54 O 0.6003 0.5761 0.78524 0.0
O55 O 0.53019 0.59607 0.78569 0.0
C56 C 0.41636 0.57389 0.81422 0.0
O57 O 0.43781 0.55109 0.79734 0.0
O58 O 0.44546 0.59569 0.83778 0.0
C59 C 0.51728 0.48426 0.82599 0.0
H60 H 0.4796 0.95998 0.24728 0.0
H61 H 0.60967 0.09423 0.23861 0.0
H62 H 0.48103 0.03683 0.17619 0.0
C63 C 0.49918 0.99012 0.2354 0.0
C64 C 0.47476 0.99356 0.21035 0.0
C65 C 0.54775 0.02633 0.24588 0.0
C66 C 0.57219 0.06623 0.23072 0.0
C67 C 0.54792 0.06979 0.20546 0.0
C68 C 0.49926 0.03391 0.19572 0.0
N69 N 0.57091 0.10891 0.18924 0.0
C70 C 0.62187 0.13918 0.1921 0.0
H71 H 0.59387 0.47122 0.57215 0.0
H72 H 0.60692 0.62183 0.55764 0.0
H73 H 0.61669 0.51198 0.4893 0.0
C74 C 0.60036 0.4994 0.55815 0.0
C75 C 0.60609 0.48553 0.5296 0.0
C76 C 0.59996 0.54827 0.56835 0.0
C77 C 0.60667 0.58401 0.54981 0.0
C78 C 0.61265 0.57099 0.52125 0.0
C79 C 0.61211 0.52179 0.51135 0.0
N80 N 0.61834 0.60597 0.50184 0.0
C81 C 0.62485 0.6576 0.50951 0.0
H82 H 0.93978 0.43809 0.90661 0.0
H83 H 0.0518 0.37776 0.88876 0.0
H84 H 0.95435 0.38138 0.82044 0.0
C85 C 0.95733 0.42078 0.89125 0.0
C86 C 0.94139 0.41193 0.86213 0.0
C87 C 0.99766 0.40959 0.9009 0.0
C88 C 1.02035 0.3862 0.88155 0.0
C89 C 1.00274 0.37413 0.85276 0.0
C90 C 0.9643 0.38776 0.84307 0.0
N91 N 1.02647 0.35224 0.83301 0.0
C92 C 0.07086 0.38415 0.8245 0.0
H93 H 0.17116 0.68614 0.42566 0.0
H94 H 0.03236 0.56973 0.44222 0.0
H95 H 0.14475 0.66239 0.51075 0.0
C96 C 0.14688 0.66538 0.44013 0.0
C97 C 0.16406 0.67736 0.46911 0.0
C98 C 0.09918 0.62662 0.42988 0.0
C99 C 0.06872 0.60046 0.44948 0.0
C100 C 0.08502 0.61411 0.47866 0.0
C101 C 0.13232 0.65256 0.48824 0.0
N102 N 0.05483 0.58979 0.49897 0.0
C103 C 1.02068 0.53873 0.49329 0.0
H104 H 0.5862 0.17462 0.75836 0.0
H105 H 0.62423 0.05135 0.7801 0.0
H106 H 0.58579 0.14705 0.84444 0.0
C107 C 0.59128 0.15285 0.77421 0.0
C108 C 0.58373 0.16633 0.80243 0.0
C109 C 0.60662 0.11214 0.76621 0.0
C110 C 0.61225 0.08271 0.78628 0.0
C111 C 0.60353 0.09471 0.81443 0.0
C112 C 0.59051 0.13706 0.82244 0.0
N113 N 0.60924 0.06624 0.83546 0.0
C114 C 0.60244 0.01437 0.82997 0.0
H115 H 0.6489 0.53871 0.08321 0.0
H116 H 0.50306 0.53703 0.09852 0.0
H117 H 0.60234 0.53621 0.16698 0.0
C118 C 0.62107 0.538 0.0975 0.0
C119 C 0.6327 0.53917 0.12653 0.0
C120 C 0.57422 0.53666 0.08686 0.0
C121 C 0.5385 0.53643 0.10593 0.0
C122 C 0.54817 0.53554 0.1347 0.0
C123 C 0.59516 0.53687 0.14472 0.0
N124 N 0.51174 0.53282 0.15421 0.0
C125 C 0.46545 0.537 0.14944 0.0
H126 H 0.16675 0.45803 0.13057 0.0
H127 H 0.19295 0.59101 0.19552 0.0
H128 H 0.28425 0.61524 0.19656 0.0
H129 H 0.26425 0.42527 0.16079 0.0
H130 H 0.28156 0.40441 0.12714 0.0
H131 H 0.21841 0.39948 0.13004 0.0
H132 H 0.22541 0.45359 0.09014 0.0
H133 H 0.28871 0.45891 0.08721 0.0
H134 H 0.27582 0.51654 0.09363 0.0
H135 H 0.37354 0.62465 0.19115 0.0
H136 H 0.45293 0.6151 0.18226 0.0
H137 H 0.37076 0.47352 0.12269 0.0
C138 C 0.19175 0.4924 0.14491 0.0
C139 C 0.17235 0.52348 0.16243 0.0
C140 C 0.20656 0.56756 0.18121 0.0
C141 C 0.25867 0.58141 0.1821 0.0
C142 C 0.27657 0.55037 0.16439 0.0
C143 C 0.24413 0.50641 0.14635 0.0
C144 C 0.27324 0.47845 0.13054 0.0
C145 C 0.25848 0.42366 0.13756 0.0
C146 C 0.26531 0.47678 0.09847 0.0
C147 C 0.32703 0.5133 0.14261 0.0
C148 C 0.32799 0.55489 0.1619 0.0
C149 C 0.37308 0.59226 0.17606 0.0
C150 C 0.41811 0.58666 0.17079 0.0
C151 C 0.41821 0.54401 0.15161 0.0
C152 C 0.37195 0.50694 0.13721 0.0
H153 H 0.77754 0.29731 0.51048 0.0
H154 H 0.85718 0.20038 0.48309 0.0
H155 H 0.92915 0.27776 0.47523 0.0
H156 H 0.82231 0.38667 0.46072 0.0
H157 H 0.8264 0.44194 0.48597 0.0
H158 H 0.78074 0.37841 0.48795 0.0
H159 H 0.81642 0.38902 0.54021 0.0
H160 H 0.86216 0.45234 0.53807 0.0
H161 H 0.88217 0.40392 0.54838 0.0
H162 H 0.99293 0.36566 0.47166 0.0
H163 H 0.04562 0.45904 0.47438 0.0
H164 H 0.92437 0.49818 0.50425 0.0
C165 C 0.81013 0.29245 0.50278 0.0
C166 C 0.81216 0.24319 0.4974 0.0
C167 C 0.8552 0.23803 0.48734 0.0
C168 C 0.89605 0.28162 0.48273 0.0
C169 C 0.89291 0.32978 0.4882 0.0
C170 C 0.8511 0.33547 0.49804 0.0
C171 C 0.85772 0.39166 0.50303 0.0
C172 C 0.81953 0.40016 0.48324 0.0
C173 C 0.85444 0.41032 0.53428 0.0
C174 C 0.91028 0.41687 0.49506 0.0
C175 C 0.92969 0.38043 0.48624 0.0
C176 C 0.97806 0.39451 0.47834 0.0
C177 C 1.00758 0.44733 0.47989 0.0
C178 C 0.98842 0.48483 0.48928 0.0
C179 C 0.93926 0.46967 0.49672 0.0
H180 H 0.66263 0.76112 0.81549 0.0
H181 H 0.52027 0.68581 0.84743 0.0
H182 H 0.50241 0.764 0.84697 0.0
H183 H 0.6926 0.88559 0.85706 0.0
H184 H 0.72182 0.92133 0.83003 0.0
H185 H 0.72174 0.85805 0.83079 0.0
H186 H 0.67973 0.82739 0.77902 0.0
H187 H 0.67954 0.8906 0.77813 0.0
H188 H 0.62183 0.83383 0.76989 0.0
H189 H 0.50113 0.85099 0.84471 0.0
H190 H 0.51844 0.94298 0.84301 0.0
H191 H 0.66268 0.96393 0.81398 0.0
C192 C 0.62755 0.76106 0.82215 0.0
C193 C 0.59245 0.71721 0.83121 0.0
C194 C 0.54728 0.71871 0.84009 0.0
C195 C 0.53686 0.76298 0.83991 0.0
C196 C 0.57219 0.80564 0.83092 0.0
C197 C 0.61677 0.80525 0.82234 0.0
C198 C 0.64942 0.85731 0.81508 0.0
C199 C 0.69934 0.88202 0.8344 0.0
C200 C 0.65813 0.85194 0.78366 0.0
C201 C 0.61652 0.88719 0.8213 0.0
C202 C 0.57188 0.85635 0.8301 0.0
C203 C 0.53578 0.8754 0.83769 0.0
C204 C 0.54582 0.92752 0.83662 0.0
C205 C 0.59152 0.95983 0.82816 0.0
C206 C 0.62719 0.9395 0.8202 0.0
H207 H 0.90481 0.51945 0.12557 0.0
H208 H 0.94585 0.62303 0.20655 0.0
H209 H 0.86009 0.62008 0.20593 0.0
H210 H 0.82736 0.57489 0.09525 0.0
H211 H 0.7803 0.51465 0.07664 0.0
H212 H 0.84374 0.52049 0.08409 0.0
H213 H 0.81245 0.44135 0.10981 0.0
H214 H 0.74885 0.435 0.10204 0.0
H215 H 0.77382 0.4413 0.13808 0.0
H216 H 0.77178 0.61091 0.19592 0.0
H217 H 0.68642 0.59623 0.17708 0.0
H218 H 0.6985 0.49826 0.10201 0.0
C219 C 0.89535 0.54069 0.14335 0.0
C220 C 0.93237 0.57141 0.16624 0.0
C221 C 0.91848 0.59929 0.18882 0.0
C222 C 0.86966 0.59781 0.18869 0.0
C223 C 0.83438 0.56831 0.16573 0.0
C224 C 0.8463 0.54004 0.14345 0.0
C225 C 0.80125 0.51349 0.12088 0.0
C226 C 0.81394 0.53199 0.09253 0.0
C227 C 0.78302 0.45426 0.1175 0.0
C228 C 0.76284 0.53217 0.13376 0.0
C229 C 0.78286 0.5633 0.15979 0.0
C230 C 0.75552 0.58609 0.17568 0.0
C231 C 0.70658 0.57713 0.1648 0.0
C232 C 0.68458 0.54558 0.13806 0.0
C233 C 0.71364 0.52276 0.12245 0.0
H234 H 0.40864 0.93535 0.47765 0.0
H235 H 0.48523 0.87168 0.53164 0.0
H236 H 0.40638 0.79423 0.52965 0.0
H237 H 0.28937 0.8896 0.50593 0.0
H238 H 0.25368 0.87549 0.47185 0.0
H239 H 0.31549 0.92648 0.4787 0.0
H240 H 0.34261 0.88294 0.43499 0.0
H241 H 0.28095 0.83181 0.42802 0.0
H242 H 0.33517 0.81635 0.4324 0.0
H243 H 0.31929 0.72381 0.5211 0.0
H244 H 0.23153 0.66371 0.50513 0.0
H245 H 0.21342 0.77365 0.45592 0.0
C246 C 0.40868 0.90528 0.48925 0.0
C247 C 0.45257 0.9093 0.50498 0.0
C248 C 0.45164 0.86913 0.51962 0.0
C249 C 0.40715 0.82519 0.51861 0.0
C250 C 0.36438 0.82234 0.50279 0.0
C251 C 0.3649 0.86124 0.48829 0.0
C252 C 0.31457 0.84811 0.47196 0.0
C253 C 0.29195 0.88725 0.48277 0.0
C254 C 0.31859 0.84458 0.43995 0.0
C255 C 0.28553 0.79554 0.47943 0.0
C256 C 0.31475 0.7815 0.4974 0.0
C257 C 0.29603 0.73445 0.5071 0.0
C258 C 0.24619 0.70075 0.49804 0.0
C259 C 0.21591 0.71424 0.47936 0.0
C260 C 0.23591 0.76231 0.47006 0.0
H261 H 0.57593 0.44398 0.79524 0.0
H262 H 0.47356 0.41468 0.85964 0.0
H263 H 0.48043 0.33114 0.86146 0.0
H264 H 0.52909 0.31293 0.75833 0.0
H265 H 0.58964 0.31499 0.75019 0.0
H266 H 0.57817 0.37347 0.75457 0.0
H267 H 0.65326 0.4166 0.79268 0.0
H268 H 0.66586 0.35889 0.78913 0.0
H269 H 0.65694 0.38769 0.82336 0.0
H270 H 0.49576 0.2492 0.85506 0.0
H271 H 0.51972 0.17537 0.84138 0.0
H272 H 0.61483 0.25912 0.78249 0.0
C273 C 0.55573 0.42033 0.81003 0.0
C274 C 0.52454 0.43589 0.82748 0.0
C275 C 0.49766 0.40338 0.84609 0.0
C276 C 0.50134 0.3559 0.84731 0.0
C277 C 0.53197 0.34129 0.82969 0.0
C278 C 0.55877 0.37248 0.81142 0.0
C279 C 0.5879 0.34678 0.79427 0.0
C280 C 0.57012 0.33643 0.76246 0.0
C281 C 0.64443 0.37938 0.80029 0.0
C282 C 0.57358 0.29671 0.80587 0.0
C283 C 0.5411 0.29416 0.82618 0.0
C284 C 0.52164 0.251 0.83937 0.0
C285 C 0.5358 0.20933 0.83159 0.0
C286 C 0.56942 0.21112 0.8109 0.0
C287 C 0.58859 0.25582 0.79809 0.0
H288 H 0.61534 0.92659 0.48582 0.0
H289 H 0.73422 0.99977 0.55526 0.0
H290 H 0.72852 0.9138 0.5633 0.0
H291 H 0.5426 0.81334 0.51756 0.0
H292 H 0.52542 0.76952 0.48418 0.0
H293 H 0.53628 0.83673 0.48519 0.0
H294 H 0.60245 0.84477 0.44984 0.0
H295 H 0.59192 0.77773 0.4488 0.0
H296 H 0.65424 0.82723 0.45817 0.0
H297 H 0.71342 0.82066 0.56244 0.0
H298 H 0.69072 0.72591 0.55187 0.0
H299 H 0.58236 0.71192 0.48277 0.0
C300 C 0.63971 0.92434 0.5029 0.0
C301 C 0.67524 0.9698 0.51996 0.0
C302 C 0.70682 0.96544 0.54193 0.0
C303 C 0.70374 0.91676 0.54673 0.0
C304 C 0.66878 0.87266 0.5294 0.0
C305 C 0.63723 0.87586 0.50793 0.0
C306 C 0.60458 0.82238 0.49161 0.0
C307 C 0.54892 0.80975 0.49483 0.0
C308 C 0.61388 0.81778 0.46025 0.0
C309 C 0.62363 0.78882 0.5068 0.0
C310 C 0.66024 0.81867 0.52878 0.0
C311 C 0.68456 0.79684 0.54544 0.0
C312 C 0.67152 0.74315 0.53933 0.0
C313 C 0.63481 0.71214 0.51672 0.0
C314 C 0.61028 0.73507 0.50038 0.0
H315 H 0.77399 0.58001 0.86902 0.0
H316 H 0.70789 0.49898 0.78411 0.0
H317 H 0.76557 0.45427 0.7828 0.0
H318 H 0.90548 0.59551 0.85479 0.0
H319 H 0.92083 0.58828 0.89033 0.0
H320 H 0.87692 0.61722 0.88366 0.0
H321 H 0.81129 0.54952 0.90791 0.0
H322 H 0.85447 0.51962 0.91406 0.0
H323 H 0.79355 0.48145 0.89489 0.0
H324 H 0.81728 0.40644 0.79431 0.0
H325 H 0.87503 0.37171 0.81325 0.0
H326 H 0.91965 0.4944 0.88714 0.0
C327 C 0.77278 0.55394 0.84995 0.0
C328 C 0.73568 0.54144 0.827 0.0
C329 C 0.7352 0.50763 0.80225 0.0
C330 C 0.76791 0.48227 0.80121 0.0
C331 C 0.80216 0.49284 0.82475 0.0
C332 C 0.80634 0.52926 0.84823 0.0
C333 C 0.84676 0.53297 0.87055 0.0
C334 C 0.89007 0.58668 0.87509 0.0
C335 C 0.8252 0.52011 0.89849 0.0
C336 C 0.86264 0.49127 0.85637 0.0
C337 C 0.83602 0.46835 0.83013 0.0
C338 C 0.84008 0.42541 0.81432 0.0
C339 C 0.8734 0.40613 0.82529 0.0
C340 C 0.90344 0.43062 0.85154 0.0
C341 C 0.89756 0.47394 0.86715 0.0
H342 H 0.25626 0.71211 0.17883 0.0
H343 H 0.15474 0.7822 0.15508 0.0
H344 H 0.22605 0.8678 0.16171 0.0
H345 H 0.32973 0.81277 0.23347 0.0
H346 H 0.38802 0.80739 0.22646 0.0
H347 H 0.32995 0.75146 0.21741 0.0
H348 H 0.34964 0.73898 0.16549 0.0
H349 H 0.40802 0.79475 0.17435 0.0
H350 H 0.36347 0.79188 0.14608 0.0
H351 H 0.30821 0.94624 0.17363 0.0
H352 H 0.39405 0.01123 0.19018 0.0
H353 H 0.44041 0.88845 0.20626 0.0
C354 C 0.24915 0.74536 0.17464 0.0
C355 C 0.20029 0.74087 0.16635 0.0
C356 C 0.19215 0.78511 0.16132 0.0
C357 C 0.23234 0.83371 0.16501 0.0
C358 C 0.28014 0.837 0.17364 0.0
C359 C 0.28863 0.79389 0.17828 0.0
C360 C 0.34287 0.80786 0.18871 0.0
C361 C 0.3479 0.79406 0.21827 0.0
C362 C 0.36744 0.78183 0.16738 0.0
C363 C 0.36354 0.86581 0.18978 0.0
C364 C 0.32699 0.88191 0.18075 0.0
C365 C 0.3372 0.93402 0.18051 0.0
C366 C 0.386 0.97058 0.18986 0.0
C367 C 0.42373 0.95479 0.19952 0.0
C368 C 0.4122 0.90167 0.19923 0.0
H369 H 0.6426 0.21981 0.53454 0.0
H370 H 0.5447 0.15689 0.45563 0.0
H371 H 0.54207 0.24248 0.45414 0.0
H372 H 0.58109 0.29775 0.56427 0.0
H373 H 0.63724 0.35101 0.58133 0.0
H374 H 0.63562 0.2863 0.57498 0.0
H375 H 0.71342 0.31718 0.54751 0.0
H376 H 0.71548 0.38214 0.55386 0.0
H377 H 0.71219 0.35008 0.5182 0.0
H378 H 0.54626 0.33314 0.46226 0.0
H379 H 0.55516 0.42246 0.48 0.0
H380 H 0.64895 0.42752 0.55439 0.0
C381 C 0.62133 0.22442 0.51674 0.0
C382 C 0.59402 0.18185 0.49507 0.0
C383 C 0.5659 0.18903 0.47239 0.0
C384 C 0.56429 0.23753 0.47134 0.0
C385 C 0.59086 0.27855 0.49322 0.0
C386 C 0.61886 0.27262 0.51553 0.0
C387 C 0.64153 0.32239 0.5371 0.0
C388 C 0.62273 0.31383 0.56613 0.0
C389 C 0.69907 0.34424 0.5393 0.0
C390 C 0.62109 0.3568 0.52368 0.0
C391 C 0.5925 0.33085 0.4982 0.0
C392 C 0.56891 0.35402 0.48207 0.0
C393 C 0.5744 0.40494 0.49228 0.0
C394 C 0.60296 0.43232 0.51852 0.0
C395 C 0.62672 0.40769 0.5343 0.0
H396 H 0.35393 0.57306 0.85462 0.0
H397 H 0.35886 0.54736 0.76391 0.0
H398 H 0.26647 0.50733 0.75645 0.0
H399 H 0.26806 0.45649 0.85696 0.0
H400 H 0.23439 0.47441 0.88426 0.0
H401 H 0.29895 0.5147 0.88283 0.0
H402 H 0.2764 0.59393 0.88021 0.0
H403 H 0.2116 0.55412 0.8823 0.0
H404 H 0.22862 0.58939 0.8534 0.0
H405 H 0.17706 0.4542 0.75903 0.0
H406 H 0.09576 0.3952 0.77172 0.0
H407 H 0.1486 0.45243 0.8607 0.0
C408 C 0.3353 0.56149 0.83321 0.0
C409 C 0.363 0.56386 0.80978 0.0
C410 C 0.33789 0.54638 0.78204 0.0
C411 C 0.28551 0.52366 0.77763 0.0
C412 C 0.25904 0.51886 0.80123 0.0
C413 C 0.283 0.53794 0.82852 0.0
C414 C 0.24674 0.52071 0.85027 0.0
C415 C 0.26303 0.48974 0.86969 0.0
C416 C 0.24046 0.56732 0.86756 0.0
C417 C 0.19954 0.48653 0.83098 0.0
C418 C 0.20709 0.4869 0.80276 0.0
C419 C 0.17026 0.45458 0.78101 0.0
C420 C 0.12455 0.42103 0.78833 0.0
C421 C 0.11676 0.42001 0.81703 0.0
C422 C 0.15413 0.45338 0.83858 0.0
H423 H 0.84666 0.37276 0.15028 0.0
H424 H 0.9486 0.32078 0.19299 0.0
H425 H 0.87619 0.24737 0.20449 0.0
H426 H 0.75628 0.3451 0.19937 0.0
H427 H 0.7035 0.32481 0.17274 0.0
H428 H 0.76352 0.37121 0.16699 0.0
H429 H 0.7612 0.31228 0.11999 0.0
H430 H 0.70126 0.26562 0.12571 0.0
H431 H 0.75266 0.24598 0.12031 0.0
H432 H 0.79183 0.18136 0.21264 0.0
H433 H 0.70233 0.12679 0.21537 0.0
H434 H 0.65722 0.22356 0.16772 0.0
C435 C 0.85374 0.34553 0.16173 0.0
C436 C 0.90299 0.35198 0.17065 0.0
C437 C 0.91095 0.31608 0.18587 0.0
C438 C 0.87014 0.27446 0.19253 0.0
C439 C 0.82186 0.26961 0.1838 0.0
C440 C 0.81358 0.3041 0.16862 0.0
C441 C 0.75829 0.2913 0.16228 0.0
C442 C 0.74461 0.33574 0.17618 0.0
C443 C 0.74243 0.27798 0.13016 0.0
C444 C 0.73658 0.24418 0.17626 0.0
C445 C 0.77374 0.23219 0.18862 0.0
C446 C 0.76246 0.19033 0.203 0.0
C447 C 0.71183 0.15976 0.20454 0.0
C448 C 0.67375 0.17162 0.19185 0.0
C449 C 0.68613 0.2142 0.17766 0.0
H450 H 0.97834 0.45354 0.06599 0.0
H451 H 0.13005 0.57089 0.07623 0.0
H452 H 0.13525 0.54933 0.02501 0.0
H453 H 0.99682 0.36002 0.01348 0.0
H454 H 0.9361 0.34074 0.99401 0.0
H455 H 0.94517 0.36391 0.03161 0.0
H456 H 0.91216 0.43443 0.02371 0.0
H457 H 0.90248 0.41114 0.98616 0.0
H458 H 0.94084 0.47825 -0.00015 0.0
H459 H 0.12367 0.51413 0.97264 0.0
H460 H 0.09271 0.47521 0.92232 0.0
H461 H 0.94783 0.38393 0.94673 0.0
C462 C 1.01278 0.47461 0.05751 0.0
C463 C 0.0539 0.5137 0.07503 0.0
C464 C 0.09803 0.54088 0.0631 0.0
C465 C 0.10147 0.52864 0.03412 0.0
C466 C 0.06033 0.48944 0.01748 0.0
C467 C 1.01662 0.46332 0.0287 0.0
C468 C 0.97683 0.4247 0.00614 0.0
C469 C 0.96293 0.36905 0.01165 0.0
C470 C 0.93035 0.43796 0.00383 0.0
C471 C 1.00472 0.43358 0.98034 0.0
C472 C 0.05314 0.47037 0.98734 0.0
C473 C 0.08589 0.48522 0.96692 0.0
C474 C 0.06819 0.46276 0.93851 0.0
C475 C 1.01814 0.4266 0.93095 0.0
C476 C 0.98634 0.41137 0.95214 0.0
H477 H 0.64476 0.11947 0.40984 0.0
H478 H 0.60656 0.95751 0.41452 0.0
H479 H 0.59344 0.93586 0.36233 0.0
H480 H 0.55074 0.09671 0.35621 0.0
H481 H 0.58625 0.14895 0.33851 0.0
H482 H 0.60123 0.15329 0.37581 0.0
H483 H 0.69292 0.16817 0.36778 0.0
H484 H 0.67813 0.16374 0.33034 0.0
H485 H 0.70516 0.12193 0.34271 0.0
H486 H 0.57667 0.93018 0.31056 0.0
H487 H 0.55093 0.93956 0.26266 0.0
H488 H 0.59567 0.10454 0.29108 0.0
C489 C 0.63504 0.07974 0.39976 0.0
C490 C 0.62729 0.04017 0.41605 0.0
C491 C 0.61289 0.98833 0.40231 0.0
C492 C 0.6057 0.97575 0.37271 0.0
C493 C 0.61269 0.01543 0.35717 0.0
C494 C 0.62678 0.06637 0.37016 0.0
C495 C 0.62582 0.10047 0.34868 0.0
C496 C 0.5888 0.12635 0.35519 0.0
C497 C 0.67866 0.14098 0.3473 0.0
C498 C 0.60749 0.06045 0.32175 0.0
C499 C 0.60125 0.01188 0.3271 0.0
C500 C 0.58185 0.96808 0.30603 0.0
C501 C 0.56713 0.97375 0.27894 0.0
C502 C 0.57127 0.02274 0.27319 0.0
C503 C 0.59296 0.06681 0.29474 0.0
H504 H 0.62063 0.5543 0.73549 0.0
H505 H 0.5129 0.62613 0.73976 0.0
H506 H 0.51182 0.62616 0.68825 0.0
H507 H 0.69033 0.62163 0.68229 0.0
H508 H 0.69936 0.56562 0.66506 0.0
H509 H 0.69347 0.57374 0.70244 0.0
H510 H 0.62001 0.48355 0.69509 0.0
H511 H 0.62549 0.47522 0.65768 0.0
H512 H 0.56642 0.46989 0.67005 0.0
H513 H 0.52084 0.61612 0.63603 0.0
H514 H 0.53817 0.59564 0.58695 0.0
H515 H 0.63941 0.5296 0.61684 0.0
C516 C 0.59722 0.57065 0.72572 0.0
C517 C 0.56703 0.5905 0.74174 0.0
C518 C 0.5364 0.61078 0.72797 0.0
C519 C 0.53559 0.61103 0.69872 0.0
C520 C 0.56545 0.59068 0.68355 0.0
C521 C 0.59566 0.57083 0.69657 0.0
C522 C 0.6228 0.54955 0.67533 0.0
C523 C 0.67988 0.57944 0.68166 0.0
C524 C 0.60776 0.49109 0.6745 0.0
C525 C 0.60296 0.56028 0.64824 0.0
C526 C 0.57016 0.5843 0.65346 0.0
C527 C 0.5467 0.59762 0.63173 0.0
C528 C 0.55699 0.58606 0.60393 0.0
C529 C 0.59034 0.56124 0.59804 0.0
C530 C 0.61354 0.54829 0.62062 0.0
H531 H 0.56829 0.07745 0.59798 0.0
H532 H 0.72862 0.12043 0.59952 0.0
H533 H 0.73556 0.12364 0.6514 0.0
H534 H 0.57604 0.16302 0.66272 0.0
H535 H 0.51901 0.11903 0.67347 0.0
H536 H 0.52677 0.11784 0.63642 0.0
H537 H 0.5088 0.01992 0.63035 0.0
H538 H 0.50161 0.02097 0.66747 0.0
H539 H 0.54635 0.99829 0.65213 0.0
H540 H 0.72435 0.11927 0.70283 0.0
H541 H 0.69794 0.12056 0.75117 0.0
H542 H 0.54625 0.08689 0.71641 0.0
C543 C 0.60481 0.08752 0.6093 0.0
C544 C 0.64794 0.09851 0.59489 0.0
C545 C 0.69522 0.11221 0.61031 0.0
C546 C 0.69944 0.11368 0.63969 0.0
C547 C 0.65609 0.10212 0.65327 0.0
C548 C 0.60984 0.09032 0.63867 0.0
C549 C 0.56961 0.08266 0.65853 0.0
C550 C 0.54652 0.12305 0.65774 0.0
C551 C 0.52921 0.02716 0.6517 0.0
C552 C 0.60043 0.09187 0.68657 0.0
C553 C 0.65006 0.10209 0.68303 0.0
C554 C 0.68565 0.11147 0.70588 0.0
C555 C 0.67034 0.11177 0.73316 0.0
C556 C 0.62019 0.10357 0.73726 0.0
C557 C 0.58476 0.09297 0.71367 0.0
H558 H 0.62828 0.59661 0.9296 0.0
H559 H 0.46747 0.52323 0.90647 0.0
H560 H 0.45551 0.50452 0.95492 0.0
H561 H 0.63823 0.51248 0.97725 0.0
H562 H 0.6843 0.56377 0.00268 0.0
H563 H 0.68089 0.5698 0.96585 0.0
H564 H 0.67038 0.65654 0.97907 0.0
H565 H 0.67407 0.65092 0.01594 0.0
H566 H 0.62079 0.65863 -0.00028 0.0
H567 H 0.46108 0.48979 0.00485 0.0
H568 H 0.48225 0.4884 0.05471 0.0
H569 H 0.63882 0.58086 0.04787 0.0
C570 C 0.59065 0.57652 0.93481 0.0
C571 C 0.54874 0.56115 0.91431 0.0
C572 C 0.5 0.53555 0.92193 0.0
C573 C 0.49286 0.5245 0.94933 0.0
C574 C 0.5348 0.54013 0.96909 0.0
C575 C 0.5827 0.56634 0.9624 0.0
C576 C 0.62093 0.58111 0.98817 0.0
C577 C 0.65829 0.55524 0.98318 0.0
C578 C 0.64813 0.64032 0.9962 0.0
C579 C 0.58702 0.55867 0.01024 0.0
C580 C 0.53763 0.53461 0.9986 0.0
C581 C 0.49954 0.50941 0.01437 0.0
C582 C 0.51204 0.50937 0.04293 0.0
C583 C 0.56222 0.53545 0.05591 0.0
C584 C 0.60011 0.56017 0.03899 0.0
H585 H 0.12855 0.6006 0.26387 0.0
H586 H 0.96658 0.54081 0.24831 0.0
H587 H 0.96104 0.55227 0.29995 0.0
H588 H 0.13023 0.53546 0.32261 0.0
H589 H 0.18527 0.58733 0.34186 0.0
H590 H 0.17657 0.57771 0.30379 0.0
H591 H 0.18547 0.67268 0.3061 0.0
H592 H 0.19415 0.68256 0.3442 0.0
H593 H 0.14521 0.69532 0.32649 0.0
H594 H 0.97366 0.57269 0.35325 0.0
H595 H 1.0025 0.59415 0.40422 0.0
H596 H 0.15566 0.63027 0.38471 0.0
C597 C 0.09205 0.59053 0.27144 0.0
C598 C 0.04798 0.5704 0.25232 0.0
C599 C 1.00071 0.55641 0.26279 0.0
C600 C 0.99724 0.56291 0.29201 0.0
C601 C 0.04137 0.5825 0.31039 0.0
C602 C 0.08784 0.59549 0.30054 0.0
C603 C 0.1292 0.61279 0.32477 0.0
C604 C 0.15693 0.57613 0.32315 0.0
C605 C 0.16565 0.66919 0.32542 0.0
C606 C 0.09878 0.60799 0.34975 0.0
C607 C 0.0483 0.59106 0.34104 0.0
C608 C 1.01308 0.58529 0.36034 0.0
C609 C 0.0299 0.59713 0.38935 0.0
C610 C 0.08151 0.61368 0.39891 0.0
C611 C 0.11608 0.61867 0.37855 0.0
loop_
_geom_bond_atom_site_label_1
_geom_bond_atom_site_label_2
_geom_bond_distance
_geom_bond_site_symmetry_2
_ccdc_geom_bond_type
Tb0 O3 2.453 1_455 S
Tb0 O4 2.596 1_455 S
Tb0 O5 2.374 . S
Tb0 O13 2.343 . S
Tb0 O15 2.353 . S
Tb0 O17 2.427 . S
Tb0 O18 2.513 . S
C1 O5 1.251 . S
C1 O7 1.263 . S
Tb2 O4 2.343 1_455 S
Tb2 O7 2.353 . S
Tb2 O10 2.427 1_455 S
Tb2 O11 2.513 1_455 S
Tb2 O12 2.453 . S
Tb2 O13 2.596 . S
Tb2 O14 2.374 . S
O3 Tb0 2.453 1_655 S
O3 C19 1.245 . S
O4 Tb0 2.596 1_655 S
O4 Tb2 2.343 1_655 S
O4 C19 1.259 . S
O5 Tb0 2.374 . S
O5 C1 1.251 . S
C6 O10 1.275 . S
C6 O11 1.246 . S
O7 C1 1.263 . S
O7 Tb2 2.353 . S
C8 O12 1.245 . S
C8 O13 1.259 . S
C9 O14 1.250 . S
C9 O15 1.263 . S
O10 Tb2 2.427 1_655 S
O10 C6 1.275 . S
O11 Tb2 2.513 1_655 S
O11 C6 1.246 . S
O12 Tb2 2.453 . S
O12 C8 1.245 . S
O13 Tb0 2.343 . S
O13 Tb2 2.596 . S
O13 C8 1.259 . S
O14 Tb2 2.374 . S
O14 C9 1.250 . S
O15 Tb0 2.353 . S
O15 C9 1.263 . S
C16 O17 1.275 . S
C16 O18 1.246 . S
O17 Tb0 2.427 . S
O17 C16 1.275 . S
O18 Tb0 2.513 . S
O18 C16 1.246 . S
C19 O3 1.245 . S
C19 O4 1.259 . S
Tb20 O23 2.453 . S
Tb20 O24 2.596 . S
Tb20 O25 2.374 . S
Tb20 O33 2.343 . S
Tb20 O35 2.353 . S
Tb20 O37 2.427 1_545 S
Tb20 O38 2.513 1_545 S
C21 O25 1.251 . S
C21 O27 1.263 . S
Tb22 O24 2.343 . S
Tb22 O27 2.353 . S
Tb22 O30 2.427 . S
Tb22 O31 2.513 . S
Tb22 O32 2.453 1_545 S
Tb22 O33 2.596 . S
Tb22 O34 2.374 . S
O23 Tb20 2.453 . S
O23 C39 1.245 . S
O24 Tb20 2.596 . S
O24 Tb22 2.343 . S
O24 C39 1.259 . S
O25 Tb20 2.374 . S
O25 C21 1.251 . S
C26 O30 1.275 . S
C26 O31 1.246 . S
O27 C21 1.263 . S
O27 Tb22 2.353 . S
C28 O32 1.245 . S
C28 O33 1.259 1_565 S
C29 O34 1.250 . S
C29 O35 1.263 . S
O30 Tb22 2.427 . S
O30 C26 1.275 . S
O31 Tb22 2.513 . S
O31 C26 1.246 . S
O32 Tb22 2.453 1_565 S
O32 C28 1.245 . S
O33 Tb20 2.343 . S
O33 Tb22 2.596 . S
O33 C28 1.259 1_545 S
O34 Tb22 2.374 . S
O34 C29 1.250 . S
O35 Tb20 2.353 . S
O35 C29 1.263 . S
C36 O37 1.275 . S
C36 O38 1.246 . S
O37 Tb20 2.427 1_565 S
O37 C36 1.275 . S
O38 Tb20 2.513 1_565 S
O38 C36 1.246 . S
C39 O23 1.245 . S
C39 O24 1.259 . S
Tb40 O43 2.453 . S
Tb40 O44 2.596 . S
Tb40 O45 2.374 . S
Tb40 O53 2.343 . S
Tb40 O55 2.353 . S
Tb40 O57 2.427 . S
Tb40 O58 2.513 . S
C41 O45 1.251 . S
C41 O47 1.263 . S
Tb42 O44 2.343 . S
Tb42 O47 2.353 . S
Tb42 O50 2.427 . S
Tb42 O51 2.513 . S
Tb42 O52 2.453 . S
Tb42 O53 2.596 . S
Tb42 O54 2.374 . S
O43 Tb40 2.453 . S
O43 C59 1.245 . S
O44 Tb40 2.596 . S
O44 Tb42 2.343 . S
O44 C59 1.259 . S
O45 Tb40 2.374 . S
O45 C41 1.251 . S
C46 O50 1.275 . S
C46 O51 1.246 . S
O47 C41 1.263 . S
O47 Tb42 2.353 . S
C48 O52 1.245 . S
C48 O53 1.259 . S
C49 O54 1.250 . S
C49 O55 1.263 . S
O50 Tb42 2.427 . S
O50 C46 1.275 . S
O51 Tb42 2.513 . S
O51 C46 1.246 . S
O52 Tb42 2.453 . S
O52 C48 1.245 . S
O53 Tb40 2.343 . S
O53 Tb42 2.596 . S
O53 C48 1.259 . S
O54 Tb42 2.374 . S
O54 C49 1.250 . S
O55 Tb40 2.353 . S
O55 C49 1.263 . S
C56 O57 1.275 . S
C56 O58 1.246 . S
O57 Tb40 2.427 . S
O57 C56 1.275 . S
O58 Tb40 2.513 . S
O58 C56 1.246 . S
C59 O43 1.245 . S
C59 O44 1.259 . S
H60 C63 0.929 . S
H61 C66 0.929 . S
H62 C68 0.930 . S
C63 H60 0.929 . S
C63 C64 1.398 . S
C63 C65 1.396 . S
C64 C63 1.398 . S
C64 C68 1.407 . S
C65 C63 1.396 . S
C65 C66 1.394 . S
C66 H61 0.929 . S
C66 C65 1.394 . S
C66 C67 1.382 . S
C67 C66 1.382 . S
C67 C68 1.392 . S
C67 N69 1.420 . S
C68 H62 0.930 . S
C68 C64 1.407 . S
C68 C67 1.392 . S
N69 C67 1.420 . S
N69 C70 1.244 . S
C70 N69 1.244 . S
H71 C74 0.929 . S
H72 C77 0.929 . S
H73 C79 0.930 . S
C74 H71 0.929 . S
C74 C75 1.398 . S
C74 C76 1.396 . S
C75 C74 1.398 . S
C75 C79 1.407 . S
C76 C74 1.396 . S
C76 C77 1.394 . S
C77 H72 0.929 . S
C77 C76 1.394 . S
C77 C78 1.382 . S
C78 C77 1.382 . S
C78 C79 1.392 . S
C78 N80 1.420 . S
C79 H73 0.930 . S
C79 C75 1.407 . S
C79 C78 1.392 . S
N80 C78 1.420 . S
N80 C81 1.244 . S
C81 N80 1.244 . S
H82 C85 0.929 . S
H83 C88 0.929 . S
H84 C90 0.930 . S
C85 H82 0.929 . S
C85 C86 1.398 . S
C85 C87 1.396 . S
C86 C85 1.398 . S
C86 C90 1.407 . S
C87 C85 1.396 . S
C87 C88 1.394 . S
C88 H83 0.929 . S
C88 C87 1.394 . S
C88 C89 1.382 . S
C89 C88 1.382 . S
C89 C90 1.392 . S
C89 N91 1.420 . S
C90 H84 0.930 . S
C90 C86 1.407 . S
C90 C89 1.392 . S
N91 C89 1.420 . S
N91 C92 1.244 . S
C92 N91 1.244 . S
H93 C96 0.929 . S
H94 C99 0.929 . S
H95 C101 0.930 . S
C96 H93 0.929 . S
C96 C97 1.398 . S
C96 C98 1.396 . S
C97 C96 1.398 . S
C97 C101 1.407 . S
C98 C96 1.396 . S
C98 C99 1.394 1_455 S
C99 H94 0.929 . S
C99 C98 1.394 1_655 S
C99 C100 1.382 . S
C100 C99 1.382 . S
C100 C101 1.392 1_655 S
C100 N102 1.420 . S
C101 H95 0.930 . S
C101 C97 1.407 . S
C101 C100 1.392 1_455 S
N102 C100 1.420 . S
N102 C103 1.244 . S
C103 N102 1.244 . S
H104 C107 0.929 . S
H105 C110 0.929 1_565 S
H106 C112 0.930 . S
C107 H104 0.929 . S
C107 C108 1.398 . S
C107 C109 1.396 . S
C108 C107 1.398 . S
C108 C112 1.407 . S
C109 C107 1.396 . S
C109 C110 1.394 . S
C110 H105 0.929 1_545 S
C110 C109 1.394 . S
C110 C111 1.382 . S
C111 C110 1.382 . S
C111 C112 1.392 . S
C111 N113 1.420 1_545 S
C112 H106 0.930 . S
C112 C108 1.407 . S
C112 C111 1.392 . S
N113 C111 1.420 1_565 S
N113 C114 1.244 . S
C114 N113 1.244 . S
H115 C118 0.929 . S
H116 C121 0.929 . S
H117 C123 0.930 . S
C118 H115 0.929 . S
C118 C119 1.398 . S
C118 C120 1.396 . S
C119 C118 1.398 . S
C119 C123 1.407 . S
C120 C118 1.396 . S
C120 C121 1.394 . S
C121 H116 0.929 . S
C121 C120 1.394 . S
C121 C122 1.382 . S
C122 C121 1.382 . S
C122 C123 1.392 . S
C122 N124 1.420 . S
C123 H117 0.930 . S
C123 C119 1.407 . S
C123 C122 1.392 . S
N124 C122 1.420 . S
N124 C125 1.244 . S
C125 N124 1.244 . S
H126 C138 0.930 . S
H127 C140 0.930 . S
H128 C141 0.930 . S
H129 C145 0.959 . S
H130 C145 0.959 . S
H131 C145 0.961 . S
H132 C146 0.960 . S
H133 C146 0.961 . S
H134 C146 0.959 . S
H135 C149 0.929 . S
H136 C150 0.931 . S
H137 C152 0.930 . S
C138 H126 0.930 . S
C138 C139 1.399 . S
C138 C143 1.399 . S
C139 C138 1.399 . S
C139 C140 1.376 . S
C140 H127 0.930 . S
C140 C139 1.376 . S
C140 C141 1.388 . S
C141 H128 0.930 . S
C141 C140 1.388 . S
C141 C142 1.390 . S
C142 C141 1.390 . S
C142 C143 1.394 . S
C142 C148 1.465 . S
C143 C138 1.399 . S
C143 C142 1.394 . S
C143 C144 1.516 . S
C144 C143 1.516 . S
C144 C145 1.502 . S
C144 C146 1.561 . S
C144 C147 1.526 . S
C145 H129 0.959 . S
C145 H130 0.959 . S
C145 H131 0.961 . S
C145 C144 1.502 . S
C146 H132 0.960 . S
C146 H133 0.961 . S
C146 H134 0.959 . S
C146 C144 1.561 . S
C147 C144 1.526 . S
C147 C148 1.396 . S
C147 C152 1.390 . S
C148 C142 1.465 . S
C148 C147 1.396 . S
C148 C149 1.399 . S
C149 H135 0.929 . S
C149 C148 1.399 . S
C149 C150 1.385 . S
C150 H136 0.931 . S
C150 C149 1.385 . S
C150 C151 1.389 . S
C151 C150 1.389 . S
C151 C152 1.387 . S
C152 H137 0.930 . S
C152 C147 1.390 . S
C152 C151 1.387 . S
H153 C165 0.930 . S
H154 C167 0.930 . S
H155 C168 0.930 . S
H156 C172 0.959 . S
H157 C172 0.959 . S
H158 C172 0.961 . S
H159 C173 0.960 . S
H160 C173 0.961 . S
H161 C173 0.959 . S
H162 C176 0.929 . S
H163 C177 0.931 . S
H164 C179 0.930 . S
C165 H153 0.930 . S
C165 C166 1.399 . S
C165 C170 1.399 . S
C166 C165 1.399 . S
C166 C167 1.376 . S
C167 H154 0.930 . S
C167 C166 1.376 . S
C167 C168 1.388 . S
C168 H155 0.930 . S
C168 C167 1.388 . S
C168 C169 1.390 . S
C169 C168 1.390 . S
C169 C170 1.394 . S
C169 C175 1.465 . S
C170 C165 1.399 . S
C170 C169 1.394 . S
C170 C171 1.516 . S
C171 C170 1.516 . S
C171 C172 1.502 . S
C171 C173 1.561 . S
C171 C174 1.526 . S
C172 H156 0.959 . S
C172 H157 0.959 . S
C172 H158 0.961 . S
C172 C171 1.502 . S
C173 H159 0.960 . S
C173 H160 0.961 . S
C173 H161 0.959 . S
C173 C171 1.561 . S
C174 C171 1.526 . S
C174 C175 1.396 . S
C174 C179 1.390 . S
C175 C169 1.465 . S
C175 C174 1.396 . S
C175 C176 1.399 . S
C176 H162 0.929 . S
C176 C175 1.399 . S
C176 C177 1.385 . S
C177 H163 0.931 . S
C177 C176 1.385 . S
C177 C178 1.389 . S
C178 C177 1.389 . S
C178 C179 1.387 . S
C179 H164 0.930 . S
C179 C174 1.390 . S
C179 C178 1.387 . S
H180 C192 0.930 . S
H181 C194 0.930 . S
H182 C195 0.930 . S
H183 C199 0.959 . S
H184 C199 0.959 . S
H185 C199 0.961 . S
H186 C200 0.960 . S
H187 C200 0.961 . S
H188 C200 0.959 . S
H189 C203 0.929 . S
H190 C204 0.931 . S
H191 C206 0.930 . S
C192 H180 0.930 . S
C192 C193 1.399 . S
C192 C197 1.399 . S
C193 C192 1.399 . S
C193 C194 1.376 . S
C194 H181 0.930 . S
C194 C193 1.376 . S
C194 C195 1.388 . S
C195 H182 0.930 . S
C195 C194 1.388 . S
C195 C196 1.390 . S
C196 C195 1.390 . S
C196 C197 1.394 . S
C196 C202 1.465 . S
C197 C192 1.399 . S
C197 C196 1.394 . S
C197 C198 1.516 . S
C198 C197 1.516 . S
C198 C199 1.502 . S
C198 C200 1.561 . S
C198 C201 1.526 . S
C199 H183 0.959 . S
C199 H184 0.959 . S
C199 H185 0.961 . S
C199 C198 1.502 . S
C200 H186 0.960 . S
C200 H187 0.961 . S
C200 H188 0.959 . S
C200 C198 1.561 . S
C201 C198 1.526 . S
C201 C202 1.396 . S
C201 C206 1.390 . S
C202 C196 1.465 . S
C202 C201 1.396 . S
C202 C203 1.399 . S
C203 H189 0.929 . S
C203 C202 1.399 . S
C203 C204 1.385 . S
C204 H190 0.931 . S
C204 C203 1.385 . S
C204 C205 1.389 . S
C205 C204 1.389 . S
C205 C206 1.387 . S
C206 H191 0.930 . S
C206 C201 1.390 . S
C206 C205 1.387 . S
H207 C219 0.930 . S
H208 C221 0.930 . S
H209 C222 0.930 . S
H210 C226 0.959 . S
H211 C226 0.959 . S
H212 C226 0.961 . S
H213 C227 0.960 . S
H214 C227 0.961 . S
H215 C227 0.959 . S
H216 C230 0.929 . S
H217 C231 0.931 . S
H218 C233 0.930 . S
C219 H207 0.930 . S
C219 C220 1.399 . S
C219 C224 1.399 . S
C220 C219 1.399 . S
C220 C221 1.376 . S
C221 H208 0.930 . S
C221 C220 1.376 . S
C221 C222 1.388 . S
C222 H209 0.930 . S
C222 C221 1.388 . S
C222 C223 1.390 . S
C223 C222 1.390 . S
C223 C224 1.394 . S
C223 C229 1.465 . S
C224 C219 1.399 . S
C224 C223 1.394 . S
C224 C225 1.516 . S
C225 C224 1.516 . S
C225 C226 1.502 . S
C225 C227 1.561 . S
C225 C228 1.526 . S
C226 H210 0.959 . S
C226 H211 0.959 . S
C226 H212 0.961 . S
C226 C225 1.502 . S
C227 H213 0.960 . S
C227 H214 0.961 . S
C227 H215 0.959 . S
C227 C225 1.561 . S
C228 C225 1.526 . S
C228 C229 1.396 . S
C228 C233 1.390 . S
C229 C223 1.465 . S
C229 C228 1.396 . S
C229 C230 1.399 . S
C230 H216 0.929 . S
C230 C229 1.399 . S
C230 C231 1.385 . S
C231 H217 0.931 . S
C231 C230 1.385 . S
C231 C232 1.389 . S
C232 C231 1.389 . S
C232 C233 1.387 . S
C233 H218 0.930 . S
C233 C228 1.390 . S
C233 C232 1.387 . S
H234 C246 0.930 . S
H235 C248 0.930 . S
H236 C249 0.930 . S
H237 C253 0.959 . S
H238 C253 0.959 . S
H239 C253 0.961 . S
H240 C254 0.960 . S
H241 C254 0.961 . S
H242 C254 0.959 . S
H243 C257 0.929 . S
H244 C258 0.931 . S
H245 C260 0.930 . S
C246 H234 0.930 . S
C246 C247 1.399 . S
C246 C251 1.399 . S
C247 C246 1.399 . S
C247 C248 1.376 . S
C248 H235 0.930 . S
C248 C247 1.376 . S
C248 C249 1.388 . S
C249 H236 0.930 . S
C249 C248 1.388 . S
C249 C250 1.390 . S
C250 C249 1.390 . S
C250 C251 1.394 . S
C250 C256 1.465 . S
C251 C246 1.399 . S
C251 C250 1.394 . S
C251 C252 1.516 . S
C252 C251 1.516 . S
C252 C253 1.502 . S
C252 C254 1.561 . S
C252 C255 1.526 . S
C253 H237 0.959 . S
C253 H238 0.959 . S
C253 H239 0.961 . S
C253 C252 1.502 . S
C254 H240 0.960 . S
C254 H241 0.961 . S
C254 H242 0.959 . S
C254 C252 1.561 . S
C255 C252 1.526 . S
C255 C256 1.396 . S
C255 C260 1.390 . S
C256 C250 1.465 . S
C256 C255 1.396 . S
C256 C257 1.399 . S
C257 H243 0.929 . S
C257 C256 1.399 . S
C257 C258 1.385 . S
C258 H244 0.931 . S
C258 C257 1.385 . S
C258 C259 1.389 . S
C259 C258 1.389 . S
C259 C260 1.387 . S
C260 H245 0.930 . S
C260 C255 1.390 . S
C260 C259 1.387 . S
H261 C273 0.930 . S
H262 C275 0.930 . S
H263 C276 0.930 . S
H264 C280 0.959 . S
H265 C280 0.959 . S
H266 C280 0.961 . S
H267 C281 0.960 . S
H268 C281 0.961 . S
H269 C281 0.959 . S
H270 C284 0.929 . S
H271 C285 0.931 . S
H272 C287 0.930 . S
C273 H261 0.930 . S
C273 C274 1.399 . S
C273 C278 1.399 . S
C274 C273 1.399 . S
C274 C275 1.376 . S
C275 H262 0.930 . S
C275 C274 1.376 . S
C275 C276 1.388 . S
C276 H263 0.930 . S
C276 C275 1.388 . S
C276 C277 1.390 . S
C277 C276 1.390 . S
C277 C278 1.394 . S
C277 C283 1.465 . S
C278 C273 1.399 . S
C278 C277 1.394 . S
C278 C279 1.516 . S
C279 C278 1.516 . S
C279 C280 1.502 . S
C279 C281 1.561 . S
C279 C282 1.526 . S
C280 H264 0.959 . S
C280 H265 0.959 . S
C280 H266 0.961 . S
C280 C279 1.502 . S
C281 H267 0.960 . S
C281 H268 0.961 . S
C281 H269 0.959 . S
C281 C279 1.561 . S
C282 C279 1.526 . S
C282 C283 1.396 . S
C282 C287 1.390 . S
C283 C277 1.465 . S
C283 C282 1.396 . S
C283 C284 1.399 . S
C284 H270 0.929 . S
C284 C283 1.399 . S
C284 C285 1.385 . S
C285 H271 0.931 . S
C285 C284 1.385 . S
C285 C286 1.389 . S
C286 C285 1.389 . S
C286 C287 1.387 . S
C287 H272 0.930 . S
C287 C282 1.390 . S
C287 C286 1.387 . S
H288 C300 0.930 . S
H289 C302 0.930 . S
H290 C303 0.930 . S
H291 C307 0.959 . S
H292 C307 0.959 . S
H293 C307 0.961 . S
H294 C308 0.960 . S
H295 C308 0.961 . S
H296 C308 0.959 . S
H297 C311 0.929 . S
H298 C312 0.931 . S
H299 C314 0.930 . S
C300 H288 0.930 . S
C300 C301 1.399 . S
C300 C305 1.399 . S
C301 C300 1.399 . S
C301 C302 1.376 . S
C302 H289 0.930 . S
C302 C301 1.376 . S
C302 C303 1.388 . S
C303 H290 0.930 . S
C303 C302 1.388 . S
C303 C304 1.390 . S
C304 C303 1.390 . S
C304 C305 1.394 . S
C304 C310 1.465 . S
C305 C300 1.399 . S
C305 C304 1.394 . S
C305 C306 1.516 . S
C306 C305 1.516 . S
C306 C307 1.502 . S
C306 C308 1.561 . S
C306 C309 1.526 . S
C307 H291 0.959 . S
C307 H292 0.959 . S
C307 H293 0.961 . S
C307 C306 1.502 . S
C308 H294 0.960 . S
C308 H295 0.961 . S
C308 H296 0.959 . S
C308 C306 1.561 . S
C309 C306 1.526 . S
C309 C310 1.396 . S
C309 C314 1.390 . S
C310 C304 1.465 . S
C310 C309 1.396 . S
C310 C311 1.399 . S
C311 H297 0.929 . S
C311 C310 1.399 . S
C311 C312 1.385 . S
C312 H298 0.931 . S
C312 C311 1.385 . S
C312 C313 1.389 . S
C313 C312 1.389 . S
C313 C314 1.387 . S
C314 H299 0.930 . S
C314 C309 1.390 . S
C314 C313 1.387 . S
H315 C327 0.930 . S
H316 C329 0.930 . S
H317 C330 0.930 . S
H318 C334 0.959 . S
H319 C334 0.959 . S
H320 C334 0.961 . S
H321 C335 0.960 . S
H322 C335 0.961 . S
H323 C335 0.959 . S
H324 C338 0.929 . S
H325 C339 0.931 . S
H326 C341 0.930 . S
C327 H315 0.930 . S
C327 C328 1.399 . S
C327 C332 1.399 . S
C328 C327 1.399 . S
C328 C329 1.376 . S
C329 H316 0.930 . S
C329 C328 1.376 . S
C329 C330 1.388 . S
C330 H317 0.930 . S
C330 C329 1.388 . S
C330 C331 1.390 . S
C331 C330 1.390 . S
C331 C332 1.394 . S
C331 C337 1.465 . S
C332 C327 1.399 . S
C332 C331 1.394 . S
C332 C333 1.516 . S
C333 C332 1.516 . S
C333 C334 1.502 . S
C333 C335 1.561 . S
C333 C336 1.526 . S
C334 H318 0.959 . S
C334 H319 0.959 . S
C334 H320 0.961 . S
C334 C333 1.502 . S
C335 H321 0.960 . S
C335 H322 0.961 . S
C335 H323 0.959 . S
C335 C333 1.561 . S
C336 C333 1.526 . S
C336 C337 1.396 . S
C336 C341 1.390 . S
C337 C331 1.465 . S
C337 C336 1.396 . S
C337 C338 1.399 . S
C338 H324 0.929 . S
C338 C337 1.399 . S
C338 C339 1.385 . S
C339 H325 0.931 . S
C339 C338 1.385 . S
C339 C340 1.389 . S
C340 C339 1.389 . S
C340 C341 1.387 . S
C341 H326 0.930 . S
C341 C336 1.390 . S
C341 C340 1.387 . S
H342 C354 0.930 . S
H343 C356 0.930 . S
H344 C357 0.930 . S
H345 C361 0.959 . S
H346 C361 0.959 . S
H347 C361 0.961 . S
H348 C362 0.960 . S
H349 C362 0.961 . S
H350 C362 0.959 . S
H351 C365 0.929 . S
H352 C366 0.939 . S
H353 C368 0.930 . S
C354 H342 0.930 . S
C354 C355 1.399 . S
C354 C359 1.399 . S
C355 C354 1.399 . S
C355 C356 1.376 . S
C356 H343 0.930 . S
C356 C355 1.376 . S
C356 C357 1.388 . S
C357 H344 0.930 . S
C357 C356 1.388 . S
C357 C358 1.390 . S
C358 C357 1.390 . S
C358 C359 1.394 . S
C358 C364 1.465 . S
C359 C354 1.399 . S
C359 C358 1.394 . S
C359 C360 1.516 . S
C360 C359 1.516 . S
C360 C361 1.502 . S
C360 C362 1.561 . S
C360 C363 1.526 . S
C361 H345 0.959 . S
C361 H346 0.959 . S
C361 H347 0.961 . S
C361 C360 1.502 . S
C362 H348 0.960 . S
C362 H349 0.961 . S
C362 H350 0.959 . S
C362 C360 1.561 . S
C363 C360 1.526 . S
C363 C364 1.396 . S
C363 C368 1.390 . S
C364 C358 1.465 . S
C364 C363 1.396 . S
C364 C365 1.399 . S
C365 H351 0.929 . S
C365 C364 1.399 . S
C365 C366 1.385 . S
C366 H352 0.939 . S
C366 C365 1.385 . S
C366 C367 1.389 . S
C367 C366 1.389 . S
C367 C368 1.387 . S
C368 H353 0.930 . S
C368 C363 1.390 . S
C368 C367 1.387 . S
H369 C381 0.930 . S
H370 C383 0.930 . S
H371 C384 0.930 . S
H372 C388 0.959 . S
H373 C388 0.959 . S
H374 C388 0.961 . S
H375 C389 0.960 . S
H376 C389 0.961 . S
H377 C389 0.959 . S
H378 C392 0.929 . S
H379 C393 0.931 . S
H380 C395 0.930 . S
C381 H369 0.930 . S
C381 C382 1.399 . S
C381 C386 1.399 . S
C382 C381 1.399 . S
C382 C383 1.376 . S
C383 H370 0.930 . S
C383 C382 1.376 . S
C383 C384 1.388 . S
C384 H371 0.930 . S
C384 C383 1.388 . S
C384 C385 1.390 . S
C385 C384 1.390 . S
C385 C386 1.394 . S
C385 C391 1.465 . S
C386 C381 1.399 . S
C386 C385 1.394 . S
C386 C387 1.516 . S
C387 C386 1.516 . S
C387 C388 1.502 . S
C387 C389 1.561 . S
C387 C390 1.526 . S
C388 H372 0.959 . S
C388 H373 0.959 . S
C388 H374 0.961 . S
C388 C387 1.502 . S
C389 H375 0.960 . S
C389 H376 0.961 . S
C389 H377 0.959 . S
C389 C387 1.561 . S
C390 C387 1.526 . S
C390 C391 1.396 . S
C390 C395 1.390 . S
C391 C385 1.465 . S
C391 C390 1.396 . S
C391 C392 1.399 . S
C392 H378 0.929 . S
C392 C391 1.399 . S
C392 C393 1.385 . S
C393 H379 0.931 . S
C393 C392 1.385 . S
C393 C394 1.389 . S
C394 C393 1.389 . S
C394 C395 1.387 . S
C395 H380 0.930 . S
C395 C390 1.390 . S
C395 C394 1.387 . S
H396 C408 0.930 . S
H397 C410 0.930 . S
H398 C411 0.930 . S
H399 C415 0.959 . S
H400 C415 0.959 . S
H401 C415 0.961 . S
H402 C416 0.960 . S
H403 C416 0.961 . S
H404 C416 0.959 . S
H405 C419 0.929 . S
H406 C420 0.931 . S
H407 C422 0.930 . S
C408 H396 0.930 . S
C408 C409 1.399 . S
C408 C413 1.399 . S
C409 C408 1.399 . S
C409 C410 1.376 . S
C410 H397 0.930 . S
C410 C409 1.376 . S
C410 C411 1.388 . S
C411 H398 0.930 . S
C411 C410 1.388 . S
C411 C412 1.390 . S
C412 C411 1.390 . S
C412 C413 1.394 . S
C412 C418 1.465 . S
C413 C408 1.399 . S
C413 C412 1.394 . S
C413 C414 1.516 . S
C414 C413 1.516 . S
C414 C415 1.502 . S
C414 C416 1.561 . S
C414 C417 1.526 . S
C415 H399 0.959 . S
C415 H400 0.959 . S
C415 H401 0.961 . S
C415 C414 1.502 . S
C416 H402 0.960 . S
C416 H403 0.961 . S
C416 H404 0.959 . S
C416 C414 1.561 . S
C417 C414 1.526 . S
C417 C418 1.396 . S
C417 C422 1.390 . S
C418 C412 1.465 . S
C418 C417 1.396 . S
C418 C419 1.399 . S
C419 H405 0.929 . S
C419 C418 1.399 . S
C419 C420 1.385 . S
C420 H406 0.931 . S
C420 C419 1.385 . S
C420 C421 1.389 . S
C421 C420 1.389 . S
C421 C422 1.387 . S
C422 H407 0.930 . S
C422 C417 1.390 . S
C422 C421 1.387 . S
H423 C435 0.930 . S
H424 C437 0.930 . S
H425 C438 0.930 . S
H426 C442 0.959 . S
H427 C442 0.959 . S
H428 C442 0.961 . S
H429 C443 0.960 . S
H430 C443 0.961 . S
H431 C443 0.959 . S
H432 C446 0.929 . S
H433 C447 0.931 . S
H434 C449 0.930 . S
C435 H423 0.930 . S
C435 C436 1.399 . S
C435 C440 1.399 . S
C436 C435 1.399 . S
C436 C437 1.376 . S
C437 H424 0.930 . S
C437 C436 1.376 . S
C437 C438 1.388 . S
C438 H425 0.930 . S
C438 C437 1.388 . S
C438 C439 1.390 . S
C439 C438 1.390 . S
C439 C440 1.394 . S
C439 C445 1.465 . S
C440 C435 1.399 . S
C440 C439 1.394 . S
C440 C441 1.516 . S
C441 C440 1.516 . S
C441 C442 1.502 . S
C441 C443 1.561 . S
C441 C444 1.526 . S
C442 H426 0.959 . S
C442 H427 0.959 . S
C442 H428 0.961 . S
C442 C441 1.502 . S
C443 H429 0.960 . S
C443 H430 0.961 . S
C443 H431 0.959 . S
C443 C441 1.561 . S
C444 C441 1.526 . S
C444 C445 1.396 . S
C444 C449 1.390 . S
C445 C439 1.465 . S
C445 C444 1.396 . S
C445 C446 1.399 . S
C446 H432 0.929 . S
C446 C445 1.399 . S
C446 C447 1.385 . S
C447 H433 0.931 . S
C447 C446 1.385 . S
C447 C448 1.389 . S
C448 C447 1.389 . S
C448 C449 1.387 . S
C449 H434 0.930 . S
C449 C444 1.390 . S
C449 C448 1.387 . S
H450 C462 0.930 . S
H451 C464 0.930 . S
H452 C465 0.930 . S
H453 C469 0.959 . S
H454 C469 0.959 1_556 S
H455 C469 0.961 . S
H456 C470 0.960 1_554 S
H457 C470 0.961 . S
H458 C470 0.959 . S
H459 C473 0.929 . S
H460 C474 0.931 . S
H461 C476 0.930 . S
C462 H450 0.930 . S
C462 C463 1.399 . S
C462 C467 1.399 . S
C463 C462 1.399 . S
C463 C464 1.376 . S
C464 H451 0.930 . S
C464 C463 1.376 . S
C464 C465 1.388 . S
C465 H452 0.930 . S
C465 C464 1.388 . S
C465 C466 1.390 . S
C466 C465 1.390 . S
C466 C467 1.394 . S
C466 C472 1.465 1_554 S
C467 C462 1.399 . S
C467 C466 1.394 . S
C467 C468 1.516 . S
C468 C467 1.516 . S
C468 C469 1.502 . S
C468 C470 1.561 1_454 S
C468 C471 1.526 1_554 S
C469 H453 0.959 . S
C469 H454 0.959 1_554 S
C469 H455 0.961 . S
C469 C468 1.502 . S
C470 H456 0.960 1_556 S
C470 H457 0.961 . S
C470 H458 0.959 . S
C470 C468 1.561 1_656 S
C471 C468 1.526 1_556 S
C471 C472 1.396 . S
C471 C476 1.390 . S
C472 C466 1.465 1_556 S
C472 C471 1.396 . S
C472 C473 1.399 . S
C473 H459 0.929 . S
C473 C472 1.399 . S
C473 C474 1.385 . S
C474 H460 0.931 . S
C474 C473 1.385 . S
C474 C475 1.389 . S
C475 C474 1.389 . S
C475 C476 1.387 . S
C476 H461 0.930 . S
C476 C471 1.390 . S
C476 C475 1.387 . S
H477 C489 0.930 . S
H478 C491 0.933 . S
H479 C492 0.930 1_565 S
H480 C496 0.959 . S
H481 C496 0.959 . S
H482 C496 0.961 . S
H483 C497 0.960 . S
H484 C497 0.961 . S
H485 C497 0.959 . S
H486 C500 0.929 1_565 S
H487 C501 0.931 . S
H488 C503 0.930 . S
C489 H477 0.930 . S
C489 C490 1.399 . S
C489 C494 1.399 . S
C490 C489 1.399 . S
C490 C491 1.376 . S
C491 H478 0.933 . S
C491 C490 1.376 . S
C491 C492 1.388 . S
C492 H479 0.930 1_545 S
C492 C491 1.388 . S
C492 C493 1.390 . S
C493 C492 1.390 . S
C493 C494 1.394 . S
C493 C499 1.465 . S
C494 C489 1.399 . S
C494 C493 1.394 . S
C494 C495 1.516 . S
C495 C494 1.516 . S
C495 C496 1.502 . S
C495 C497 1.561 . S
C495 C498 1.526 . S
C496 H480 0.959 . S
C496 H481 0.959 . S
C496 H482 0.961 . S
C496 C495 1.502 . S
C497 H483 0.960 . S
C497 H484 0.961 . S
C497 H485 0.959 . S
C497 C495 1.561 . S
C498 C495 1.526 . S
C498 C499 1.396 . S
C498 C503 1.390 . S
C499 C493 1.465 . S
C499 C498 1.396 . S
C499 C500 1.399 . S
C500 H486 0.929 1_545 S
C500 C499 1.399 . S
C500 C501 1.385 . S
C501 H487 0.931 . S
C501 C500 1.385 . S
C501 C502 1.389 . S
C502 C501 1.389 . S
C502 C503 1.387 . S
C503 H488 0.930 . S
C503 C498 1.390 . S
C503 C502 1.387 . S
H504 C516 0.930 . S
H505 C518 0.930 . S
H506 C519 0.930 . S
H507 C523 0.959 . S
H508 C523 0.959 . S
H509 C523 0.961 . S
H510 C524 0.960 . S
H511 C524 0.961 . S
H512 C524 0.959 . S
H513 C527 0.929 . S
H514 C528 0.931 . S
H515 C530 0.930 . S
C516 H504 0.930 . S
C516 C517 1.399 . S
C516 C521 1.399 . S
C517 C516 1.399 . S
C517 C518 1.376 . S
C518 H505 0.930 . S
C518 C517 1.376 . S
C518 C519 1.388 . S
C519 H506 0.930 . S
C519 C518 1.388 . S
C519 C520 1.390 . S
C520 C519 1.390 . S
C520 C521 1.394 . S
C520 C526 1.465 . S
C521 C516 1.399 . S
C521 C520 1.394 . S
C521 C522 1.516 . S
C522 C521 1.516 . S
C522 C523 1.502 . S
C522 C524 1.561 . S
C522 C525 1.526 . S
C523 H507 0.959 . S
C523 H508 0.959 . S
C523 H509 0.961 . S
C523 C522 1.502 . S
C524 H510 0.960 . S
C524 H511 0.961 . S
C524 H512 0.959 . S
C524 C522 1.561 . S
C525 C522 1.526 . S
C525 C526 1.396 . S
C525 C530 1.390 . S
C526 C520 1.465 . S
C526 C525 1.396 . S
C526 C527 1.399 . S
C527 H513 0.929 . S
C527 C526 1.399 . S
C527 C528 1.385 . S
C528 H514 0.931 . S
C528 C527 1.385 . S
C528 C529 1.389 . S
C529 C528 1.389 . S
C529 C530 1.387 . S
C530 H515 0.930 . S
C530 C525 1.390 . S
C530 C529 1.387 . S
H531 C543 0.930 1_565 S
H532 C545 0.930 . S
H533 C546 0.930 . S
H534 C550 0.959 . S
H535 C550 0.959 . S
H536 C550 0.961 . S
H537 C551 0.960 . S
H538 C551 0.961 . S
H539 C551 0.959 . S
H540 C554 0.929 . S
H541 C555 0.931 . S
H542 C557 0.930 1_565 S
C543 H531 0.930 1_545 S
C543 C544 1.399 . S
C543 C548 1.399 . S
C544 C543 1.399 . S
C544 C545 1.376 . S
C545 H532 0.930 . S
C545 C544 1.376 . S
C545 C546 1.388 . S
C546 H533 0.930 . S
C546 C545 1.388 . S
C546 C547 1.390 . S
C547 C546 1.390 . S
C547 C548 1.394 . S
C547 C553 1.465 . S
C548 C543 1.399 . S
C548 C547 1.394 . S
C548 C549 1.516 1_545 S
C549 C548 1.516 1_565 S
C549 C550 1.502 . S
C549 C551 1.561 . S
C549 C552 1.526 1_565 S
C550 H534 0.959 . S
C550 H535 0.959 . S
C550 H536 0.961 . S
C550 C549 1.502 . S
C551 H537 0.960 . S
C551 H538 0.961 . S
C551 H539 0.959 . S
C551 C549 1.561 . S
C552 C549 1.526 1_545 S
C552 C553 1.396 . S
C552 C557 1.390 . S
C553 C547 1.465 . S
C553 C552 1.396 . S
C553 C554 1.399 . S
C554 H540 0.929 . S
C554 C553 1.399 . S
C554 C555 1.385 . S
C555 H541 0.931 . S
C555 C554 1.385 . S
C555 C556 1.389 . S
C556 C555 1.389 . S
C556 C557 1.387 . S
C557 H542 0.930 1_545 S
C557 C552 1.390 . S
C557 C556 1.387 . S
H558 C570 0.930 . S
H559 C572 0.930 . S
H560 C573 0.930 . S
H561 C577 0.959 . S
H562 C577 0.959 . S
H563 C577 0.961 1_556 S
H564 C578 0.960 1_556 S
H565 C578 0.961 . S
H566 C578 0.958 1_556 S
H567 C581 0.921 1_556 S
H568 C582 0.931 . S
H569 C584 0.930 . S
C570 H558 0.930 . S
C570 C571 1.399 . S
C570 C575 1.399 . S
C571 C570 1.399 . S
C571 C572 1.376 . S
C572 H559 0.930 . S
C572 C571 1.376 . S
C572 C573 1.388 . S
C573 H560 0.930 . S
C573 C572 1.388 . S
C573 C574 1.390 . S
C574 C573 1.390 . S
C574 C575 1.394 . S
C574 C580 1.497 . S
C575 C570 1.399 . S
C575 C574 1.394 . S
C575 C576 1.516 . S
C576 C575 1.516 . S
C576 C577 1.502 1_556 S
C576 C578 1.561 1_556 S
C576 C579 1.526 1_556 S
C577 H561 0.959 . S
C577 H562 0.959 . S
C577 H563 0.961 1_554 S
C577 C576 1.502 1_554 S
C578 H564 0.960 1_554 S
C578 H565 0.961 . S
C578 H566 0.958 1_554 S
C578 C576 1.561 1_554 S
C579 C576 1.526 1_554 S
C579 C580 1.383 1_554 S
C579 C584 1.390 . S
C580 C574 1.497 . S
C580 C579 1.383 1_556 S
C580 C581 1.381 1_556 S
C581 H567 0.921 1_554 S
C581 C580 1.381 1_554 S
C581 C582 1.385 . S
C582 H568 0.931 . S
C582 C581 1.385 . S
C582 C583 1.389 . S
C583 C582 1.389 . S
C583 C584 1.387 . S
C584 H569 0.930 . S
C584 C579 1.390 . S
C584 C583 1.387 . S
H585 C597 0.930 . S
H586 C599 0.930 . S
H587 C600 0.930 . S
H588 C604 0.959 . S
H589 C604 0.959 . S
H590 C604 0.961 . S
H591 C605 0.960 . S
H592 C605 0.961 . S
H593 C605 0.959 . S
H594 C608 0.929 . S
H595 C609 0.931 . S
H596 C611 0.930 . S
C597 H585 0.930 . S
C597 C598 1.399 . S
C597 C602 1.399 . S
C598 C597 1.399 . S
C598 C599 1.376 1_455 S
C599 H586 0.930 . S
C599 C598 1.376 1_655 S
C599 C600 1.388 . S
C600 H587 0.930 . S
C600 C599 1.388 . S
C600 C601 1.384 1_655 S
C601 C600 1.384 1_455 S
C601 C602 1.405 . S
C601 C607 1.463 1_455 S
C602 C597 1.399 . S
C602 C601 1.405 . S
C602 C603 1.516 . S
C603 C602 1.516 . S
C603 C604 1.502 . S
C603 C605 1.561 . S
C603 C606 1.526 . S
C604 H588 0.959 . S
C604 H589 0.959 . S
C604 H590 0.961 . S
C604 C603 1.502 . S
C605 H591 0.960 . S
C605 H592 0.961 . S
C605 H593 0.959 . S
C605 C603 1.561 . S
C606 C603 1.526 . S
C606 C607 1.396 1_455 S
C606 C611 1.390 . S
C607 C601 1.463 1_655 S
C607 C606 1.396 1_655 S
C607 C608 1.399 . S
C608 H594 0.929 . S
C608 C607 1.399 . S
C608 C609 1.385 . S
C609 H595 0.931 . S
C609 C608 1.385 . S
C609 C610 1.389 1_655 S
C610 C609 1.389 1_455 S
C610 C611 1.387 . S
C611 H596 0.930 . S
C611 C606 1.390 . S
C611 C610 1.387 . S
C139 C8 2.023 . S
C151 C125 2.083 . S
C166 C26 1.355 . S
C178 C103 1.356 . S
C193 C48 1.578 . S
C205 C114 1.593 . S
C220 C19 1.702 . S
C232 C119 1.749 . S
C259 C97 1.319 . S
C247 C36 1.322 . S
C286 C108 1.585 . S
C274 C59 1.544 . S
C301 C28 1.550 . S
C313 C81 1.569 . S
C328 C46 1.129 . S
C340 C86 1.081 1_655 S
C355 C16 1.329 . S
C367 C64 1.332 1_565 S
C394 C75 1.511 . S
C382 C39 1.457 . S
C421 C92 1.101 . S
C409 C56 1.050 . S
C436 C6 1.413 . S
C448 C70 1.421 . S
C475 C87 1.444 . S
C463 C9 1.420 . S
C490 C21 1.491 . S
C502 C65 1.522 . S
C517 C49 1.488 . S
C529 C76 1.478 . S
C556 C109 1.474 . S
C544 C29 1.481 . S
C583 C120 1.614 . S
C571 C41 1.559 . S
C598 C1 1.508 . S
C610 C98 1.519 . S
