# Generated by pormake.
# Topology zzz, (3,6)-cn, num edge types: 1
# Building blocks:
#     Node 0, Type 0, BuildingBlock: ESEHIV_clean_linker_0, # of connection points: 3
#     Node 1, Type 0, BuildingBlock: ESEHIV_clean_linker_0, # of connection points: 3
#     Node 2, Type 0, BuildingBlock: ESEHIV_clean_linker_0, # of connection points: 3
#     Node 3, Type 0, BuildingBlock: ESEHIV_clean_linker_0, # of connection points: 3
#     Node 4, Type 0, BuildingBlock: ESEHIV_clean_linker_0, # of connection points: 3
#     Node 5, Type 0, BuildingBlock: ESEHIV_clean_linker_0, # of connection points: 3
#     Node 6, Type 0, BuildingBlock: ESEHIV_clean_linker_0, # of connection points: 3
#     Node 7, Type 0, BuildingBlock: ESEHIV_clean_linker_0, # of connection points: 3
#     Node 8, Type 1, BuildingBlock: BETDEL_clean_sbu_0, # of connection points: 6
#     Node 9, Type 1, BuildingBlock: BETDEL_clean_sbu_0, # of connection points: 6
#     Node 10, Type 1, BuildingBlock: BETDEL_clean_sbu_0, # of connection points: 6
#     Node 11, Type 1, BuildingBlock: BETDEL_clean_sbu_0, # of connection points: 6
#     Edge 12, Type (0, 1), BuildingBlock: UVAHIK_clean_linker_0, # of connection points: 2
#     Edge 13, Type (0, 1), BuildingBlock: UVAHIK_clean_linker_0, # of connection points: 2
#     Edge 14, Type (0, 1), BuildingBlock: UVAHIK_clean_linker_0, # of connection points: 2
#     Edge 15, Type (0, 1), BuildingBlock: UVAHIK_clean_linker_0, # of connection points: 2
#     Edge 16, Type (0, 1), BuildingBlock: UVAHIK_clean_linker_0, # of connection points: 2
#     Edge 17, Type (0, 1), BuildingBlock: UVAHIK_clean_linker_0, # of connection points: 2
#     Edge 18, Type (0, 1), BuildingBlock: UVAHIK_clean_linker_0, # of connection points: 2
#     Edge 19, Type (0, 1), BuildingBlock: UVAHIK_clean_linker_0, # of connection points: 2
#     Edge 20, Type (0, 1), BuildingBlock: UVAHIK_clean_linker_0, # of connection points: 2
#     Edge 21, Type (0, 1), BuildingBlock: UVAHIK_clean_linker_0, # of connection points: 2
#     Edge 22, Type (0, 1), BuildingBlock: UVAHIK_clean_linker_0, # of connection points: 2
#     Edge 23, Type (0, 1), BuildingBlock: UVAHIK_clean_linker_0, # of connection points: 2
#     Edge 24, Type (0, 1), BuildingBlock: UVAHIK_clean_linker_0, # of connection points: 2
#     Edge 25, Type (0, 1), BuildingBlock: UVAHIK_clean_linker_0, # of connection points: 2
#     Edge 26, Type (0, 1), BuildingBlock: UVAHIK_clean_linker_0, # of connection points: 2
#     Edge 27, Type (0, 1), BuildingBlock: UVAHIK_clean_linker_0, # of connection points: 2
#     Edge 28, Type (0, 1), BuildingBlock: UVAHIK_clean_linker_0, # of connection points: 2
#     Edge 29, Type (0, 1), BuildingBlock: UVAHIK_clean_linker_0, # of connection points: 2
#     Edge 30, Type (0, 1), BuildingBlock: UVAHIK_clean_linker_0, # of connection points: 2
#     Edge 31, Type (0, 1), BuildingBlock: UVAHIK_clean_linker_0, # of connection points: 2
#     Edge 32, Type (0, 1), BuildingBlock: UVAHIK_clean_linker_0, # of connection points: 2
#     Edge 33, Type (0, 1), BuildingBlock: UVAHIK_clean_linker_0, # of connection points: 2
#     Edge 34, Type (0, 1), BuildingBlock: UVAHIK_clean_linker_0, # of connection points: 2
#     Edge 35, Type (0, 1), BuildingBlock: UVAHIK_clean_linker_0, # of connection points: 2
# Relax obj value: 0.334
# Max RMSD: 0.227
# Mean RMSD: 0.209
data_MOF--net-zzz--node1-BETDEL_clean_sbu_0--node2-ESEHIV_clean_linker_0--edge1-UVAHIK_clean_linker_0
_symmetry_space_group_name_H-M    P1
_symmetry_Int_Tables_number       1
_symmetry_cell_setting            triclinic
loop_
_symmetry_equiv_pos_as_xyz
'x, y, z'
_cell_length_a     57.330689
_cell_length_b     56.921658
_cell_length_c     20.111816
_cell_angle_alpha  91.085691
_cell_angle_beta   89.258652
_cell_angle_gamma 95.878854
loop_
_atom_site_label
_atom_site_type_symbol
_atom_site_fract_x
_atom_site_fract_y
_atom_site_fract_z
_atom_type_partial_charge
H0 H 0.79058 0.4521 0.1031 0.0
H1 H 0.74148 0.45423 0.94496 0.0
H2 H 0.73588 0.49829 0.12017 0.0
C3 C 0.77472 0.45822 0.08382 0.0
C4 C 0.76364 0.47521 0.12042 0.0
C5 C 0.76712 0.45077 0.02032 0.0
C6 C 0.74753 0.45996 0.99407 0.0
C7 C 0.73603 0.47697 0.02969 0.0
C8 C 0.74418 0.48468 0.09316 0.0
H9 H 0.9475 0.77368 0.13005 0.0
H10 H 0.95003 0.71799 0.98443 0.0
H11 H 0.96629 0.70605 0.18918 0.0
C12 C 0.94919 0.75525 0.11794 0.0
C13 C 0.95608 0.74062 0.16758 0.0
C14 C 0.9475 0.74744 0.05176 0.0
C15 C 0.9508 0.72394 0.03599 0.0
C16 C 0.95687 0.70861 0.08556 0.0
C17 C 0.96016 0.71722 0.15146 0.0
H18 H 0.71115 0.02021 0.09422 0.0
H19 H 0.7699 0.02979 0.96044 0.0
H20 H 0.77569 0.99205 0.14289 0.0
C21 C 0.72922 0.01759 0.08211 0.0
C22 C 0.74226 0.00553 0.12619 0.0
C23 C 0.73915 0.02638 0.02275 0.0
C24 C 0.76244 0.02328 0.00726 0.0
C25 C 0.77578 0.01075 0.04972 0.0
C26 C 0.76557 0.00163 0.10952 0.0
H27 H 0.58124 0.72992 0.143 0.0
H28 H 0.56333 0.79777 0.2119 0.0
H29 H 0.57813 0.78565 0.004 0.0
C30 C 0.57964 0.74837 0.13317 0.0
C31 C 0.58074 0.7561 0.06753 0.0
C32 C 0.57349 0.76314 0.18559 0.0
C33 C 0.56906 0.78649 0.17223 0.0
C34 C 0.5718 0.79498 0.10675 0.0
C35 C 0.57758 0.77964 0.05493 0.0
H36 H 0.22756 0.55443 0.99007 0.0
H37 H 0.27716 0.56895 0.1469 0.0
H38 H 0.28584 0.51326 0.00234 0.0
C39 C 0.24401 0.55151 0.01307 0.0
C40 C 0.25626 0.53311 0.98858 0.0
C41 C 0.25124 0.56437 0.07044 0.0
C42 C 0.27186 0.55936 0.10163 0.0
C43 C 0.28484 0.54118 0.0773 0.0
C44 C 0.27662 0.52777 0.02087 0.0
H45 H 0.0917 0.2264 0.00527 0.0
H46 H 0.08802 0.28406 0.14399 0.0
H47 H 0.07567 0.29368 0.93553 0.0
C48 C 0.09025 0.24502 0.01505 0.0
C49 C 0.08479 0.25921 0.96254 0.0
C50 C 0.09092 0.25361 0.08064 0.0
C51 C 0.08786 0.2774 0.0931 0.0
C52 C 0.0829 0.2922 0.04091 0.0
C53 C 0.0807 0.28282 0.97555 0.0
H54 H 0.29196 0.97355 0.01504 0.0
H55 H 0.23122 0.96194 0.14089 0.0
H56 H 0.22567 0.99376 0.94924 0.0
C57 C 0.27336 0.97466 0.02341 0.0
C58 C 0.26006 0.98405 0.97432 0.0
C59 C 0.26304 0.96674 0.08322 0.0
C60 C 0.23911 0.96791 0.09403 0.0
C61 C 0.22547 0.97778 0.04643 0.0
C62 C 0.23604 0.98619 0.98639 0.0
H63 H 0.43385 0.27592 0.98053 0.0
H64 H 0.45178 0.20816 0.91035 0.0
H65 H 0.44172 0.22137 0.12007 0.0
C66 C 0.43619 0.25764 0.99043 0.0
C67 C 0.43663 0.25028 0.05628 0.0
C68 C 0.44168 0.24276 0.93747 0.0
C69 C 0.44672 0.21958 0.9506 0.0
C70 C 0.44597 0.21161 0.01671 0.0
C71 C 0.44108 0.2271 0.06904 0.0
Dy72 Dy 0.01334 0.98779 0.625 0.0
C73 C 0.00235 0.04392 0.39447 0.0
C74 C 0.00988 0.9645 0.74179 0.0
Dy75 Dy 0.99973 0.01416 0.49919 0.0
O76 O 0.02966 0.97134 0.71179 0.0
O77 O 0.99245 0.97109 0.70882 0.0
O78 O 0.0389 0.96877 0.56303 0.0
O79 O 0.03176 0.0028 0.53799 0.0
C80 C 0.04228 0.98543 0.5196 0.0
C81 C 0.96531 0.004 0.58933 0.0
O82 O 0.99566 0.97662 0.46223 0.0
O83 O 0.99002 0.9608 0.56731 0.0
O84 O 0.01349 0.02523 0.39835 0.0
O85 O 0.9888 0.0455 0.44632 0.0
O86 O 0.96134 0.00471 0.52575 0.0
O87 O 0.9866 0.0102 0.60004 0.0
O88 O 0.02599 0.02467 0.65913 0.0
O89 O 0.01906 0.04331 0.55965 0.0
C90 C 0.98942 0.95861 0.50166 0.0
C91 C 0.02686 0.04381 0.62168 0.0
Dy92 Dy 0.4868 0.98083 0.53071 0.0
C93 C 0.55423 0.05212 0.64241 0.0
C94 C 0.44936 0.95182 0.48533 0.0
Dy95 Dy 0.51807 0.02209 0.5938 0.0
O96 O 0.46861 0.95726 0.45179 0.0
O97 O 0.45073 0.96213 0.54331 0.0
O98 O 0.51833 0.96188 0.50431 0.0
O99 O 0.5212 0.99897 0.5073 0.0
C100 C 0.53256 0.98118 0.50073 0.0
C101 C 0.47218 0.02136 0.62294 0.0
O102 O 0.50989 0.03901 0.49911 0.0
O103 O 0.47858 0.01182 0.46952 0.0
O104 O 0.53577 0.04419 0.67643 0.0
O105 O 0.55283 0.04365 0.58219 0.0
O106 O 0.48615 0.04079 0.61882 0.0
O107 O 0.48386 0.00383 0.61715 0.0
O108 O 0.49528 0.96398 0.62533 0.0
O109 O 0.52723 0.99079 0.65224 0.0
C110 C 0.49171 0.0322 0.46092 0.0
C111 C 0.51392 0.9706 0.66196 0.0
Dy112 Dy 0.50028 0.51422 0.63064 0.0
C113 C 0.51029 0.4652 0.38378 0.0
C114 C 0.50462 0.5409 0.74446 0.0
Dy115 Dy 0.51413 0.49209 0.49733 0.0
O116 O 0.48625 0.53875 0.70676 0.0
O117 O 0.52007 0.52772 0.72113 0.0
O118 O 0.46209 0.5067 0.60581 0.0
O119 O 0.48725 0.51406 0.52988 0.0
C120 C 0.4659 0.50775 0.54182 0.0
C121 C 0.54831 0.49885 0.58681 0.0
O122 O 0.52134 0.52977 0.46779 0.0
O123 O 0.51965 0.54485 0.57583 0.0
O124 O 0.5282 0.46687 0.42318 0.0
O125 O 0.49509 0.47899 0.40524 0.0
O126 O 0.55231 0.50018 0.52296 0.0
O127 O 0.527 0.49224 0.59796 0.0
O128 O 0.49298 0.47649 0.65977 0.0
O129 O 0.49425 0.46164 0.55146 0.0
C130 C 0.52426 0.54763 0.5113 0.0
C131 C 0.48978 0.45874 0.61598 0.0
Dy132 Dy 0.99906 0.48249 0.598 0.0
C133 C 0.05056 0.53869 0.39264 0.0
C134 C 0.96946 0.45739 0.68322 0.0
Dy135 Dy 0.02565 0.51889 0.4966 0.0
O136 O 0.97284 0.45186 0.62121 0.0
O137 O 0.98236 0.47682 0.69922 0.0
O138 O 0.01758 0.45388 0.55011 0.0
O139 O 0.00951 0.4823 0.4924 0.0
C140 C 0.01986 0.46373 0.4923 0.0
C141 C 0.0155 0.54006 0.61352 0.0
O142 O 0.98906 0.51631 0.45722 0.0
O143 O 0.96946 0.49818 0.54835 0.0
O144 O 0.03452 0.54861 0.42602 0.0
O145 O 0.05274 0.51779 0.41546 0.0
O146 O 0.02752 0.55108 0.56629 0.0
O147 O 0.01029 0.51926 0.59363 0.0
O148 O 0.03456 0.48811 0.64418 0.0
O149 O 0.0549 0.50465 0.5518 0.0
C150 C 0.96951 0.50899 0.49032 0.0
C151 C 0.05438 0.49534 0.61211 0.0
C152 C 0.19283 1.00124 0.08256 0.0
C153 C 0.20048 0.97943 0.06333 0.0
C154 C 0.17195 0.00202 0.11944 0.0
C155 C 0.13886 0.96538 0.24212 0.0
H156 H 0.0929 0.01064 0.23527 0.0
C157 C 0.06393 0.96297 0.4353 0.0
C158 C 0.05722 0.98459 0.45931 0.0
C159 C 0.07878 0.96216 0.37975 0.0
C160 C 0.10572 0.99801 0.23834 0.0
H161 H 0.19167 0.94156 0.06268 0.0
H162 H 0.15507 0.94287 0.12547 0.0
H163 H 0.12288 0.00997 0.14758 0.0
H164 H 0.06035 0.02232 0.44353 0.0
H165 H 0.08694 0.02112 0.34798 0.0
H166 H 0.12272 0.95398 0.33367 0.0
C167 C 0.16523 0.95936 0.11315 0.0
C168 C 0.12282 0.99758 0.18782 0.0
C169 C 0.186 0.95859 0.0765 0.0
C170 C 0.06525 0.00538 0.42593 0.0
C171 C 0.08039 0.00464 0.37082 0.0
C172 C 0.12204 0.96598 0.29276 0.0
C173 C 0.15854 0.98098 0.13784 0.0
C174 C 0.13955 0.98119 0.1891 0.0
C175 C 0.08764 0.98303 0.34742 0.0
C176 C 0.10516 0.98225 0.29177 0.0
H177 H 0.20393 0.0175 0.07402 0.0
H178 H 0.16731 0.01895 0.13786 0.0
H179 H 0.15184 0.95292 0.24562 0.0
H180 H 0.05769 0.94664 0.4595 0.0
H181 H 0.08339 0.9451 0.36238 0.0
C182 C 0.4742 0.18618 0.0631 0.0
C183 C 0.45232 0.18805 0.03439 0.0
C184 C 0.47844 0.16575 0.09642 0.0
C185 C 0.44592 0.11745 0.18924 0.0
H186 H 0.50749 0.09556 0.2028 0.0
C187 C 0.46579 0.04297 0.36824 0.0
C188 C 0.48638 0.04768 0.40558 0.0
C189 C 0.46112 0.05759 0.31569 0.0
C190 C 0.49019 0.10152 0.19971 0.0
H191 H 0.41796 0.16997 0.01569 0.0
H192 H 0.42547 0.13379 0.07255 0.0
H193 H 0.50061 0.1245 0.11923 0.0
H194 H 0.51826 0.07149 0.41636 0.0
H195 H 0.51011 0.09681 0.32528 0.0
H196 H 0.43565 0.09468 0.2705 0.0
C197 C 0.43934 0.14817 0.06989 0.0
C198 C 0.48624 0.11811 0.15176 0.0
C199 C 0.43512 0.16869 0.03647 0.0
C200 C 0.5022 0.06729 0.3889 0.0
C201 C 0.49763 0.08173 0.33618 0.0
C202 C 0.44985 0.10074 0.23698 0.0
C203 C 0.46081 0.14674 0.10217 0.0
C204 C 0.46419 0.12673 0.14684 0.0
C205 C 0.47706 0.07709 0.29887 0.0
C206 C 0.47219 0.09299 0.2438 0.0
H207 H 0.48751 0.20114 0.06332 0.0
H208 H 0.49505 0.16552 0.1213 0.0
H209 H 0.4288 0.12388 0.18772 0.0
H210 H 0.45322 0.02802 0.37963 0.0
H211 H 0.44515 0.05348 0.28774 0.0
C212 C 0.32077 0.55382 0.14441 0.0
C213 C 0.30583 0.53552 0.11468 0.0
C214 C 0.33844 0.54876 0.1874 0.0
C215 C 0.37649 0.50487 0.23669 0.0
H216 H 0.3753 0.53617 0.40969 0.0
C217 C 0.45312 0.51213 0.42456 0.0
C218 C 0.44729 0.50737 0.49141 0.0
C219 C 0.43557 0.51288 0.37722 0.0
C220 C 0.37576 0.52718 0.3618 0.0
H221 H 0.2988 0.49744 0.10437 0.0
H222 H 0.3304 0.48867 0.17794 0.0
H223 H 0.34596 0.54302 0.32705 0.0
H224 H 0.41852 0.49965 0.56111 0.0
H225 H 0.38776 0.50166 0.47852 0.0
H226 H 0.40675 0.48954 0.27112 0.0
C227 C 0.32804 0.50693 0.1683 0.0
C228 C 0.3591 0.53124 0.31437 0.0
C229 C 0.31004 0.51198 0.12589 0.0
C230 C 0.42354 0.5033 0.50994 0.0
C231 C 0.40596 0.50448 0.46277 0.0
C232 C 0.39347 0.50115 0.28383 0.0
C233 C 0.34195 0.5253 0.20086 0.0
C234 C 0.35936 0.52024 0.25126 0.0
C235 C 0.41181 0.5094 0.396 0.0
C236 C 0.39327 0.51232 0.34681 0.0
H237 H 0.31847 0.57215 0.13568 0.0
H238 H 0.34921 0.56326 0.2109 0.0
H239 H 0.37708 0.49621 0.18836 0.0
H240 H 0.47125 0.51583 0.409 0.0
H241 H 0.44059 0.51704 0.32633 0.0
C242 C 0.05553 0.32376 0.04572 0.0
C243 C 0.07778 0.3166 0.05779 0.0
C244 C 0.04879 0.3445 0.07554 0.0
C245 C 0.0351 0.37296 0.19742 0.0
H246 H 0.07471 0.43157 0.22779 0.0
C247 C 0.03286 0.42773 0.43746 0.0
C248 C 0.02745 0.45113 0.4321 0.0
C249 C 0.03817 0.41466 0.38099 0.0
C250 C 0.06335 0.41543 0.21892 0.0
H251 H 0.11103 0.32619 0.10594 0.0
H252 H 0.09948 0.36258 0.157 0.0
H253 H 0.0858 0.40327 0.14207 0.0
H254 H 0.02408 0.47947 0.36351 0.0
H255 H 0.03438 0.45659 0.26401 0.0
H256 H 0.01348 0.38439 0.27692 0.0
C257 C 0.0872 0.35228 0.12477 0.0
C258 C 0.06971 0.39923 0.17024 0.0
C259 C 0.09379 0.33141 0.09578 0.0
C260 C 0.02827 0.4615 0.36905 0.0
C261 C 0.03409 0.44845 0.3123 0.0
C262 C 0.02899 0.38892 0.24662 0.0
C263 C 0.06432 0.35856 0.11717 0.0
C264 C 0.05589 0.37759 0.16002 0.0
C265 C 0.03863 0.42477 0.31791 0.0
C266 C 0.04332 0.41002 0.25882 0.0
H267 H 0.04281 0.31251 0.0171 0.0
H268 H 0.03108 0.34898 0.06856 0.0
H269 H 0.02425 0.35634 0.19144 0.0
H270 H 0.03244 0.41925 0.48529 0.0
H271 H 0.04184 0.3965 0.38654 0.0
C272 C 0.81537 0.02658 0.0092 0.0
C273 C 0.79992 0.00699 0.02773 0.0
C274 C 0.83554 0.0236 0.97166 0.0
C275 C 0.85772 0.9816 0.85028 0.0
H276 H 0.91346 0.02615 0.85819 0.0
C277 C 0.92351 0.99495 0.62856 0.0
C278 C 0.94728 1.00103 0.64283 0.0
C279 C 0.90665 0.99323 0.68001 0.0
C280 C 0.89824 0.01326 0.85548 0.0
H281 H 0.7941 0.96885 0.02496 0.0
H282 H 0.82987 0.96345 0.9605 0.0
H283 H 0.88398 0.02665 0.94559 0.0
H284 H 0.97204 0.01014 0.72209 0.0
H285 H 0.94314 0.006 0.81135 0.0
H286 H 0.87224 0.96798 0.76052 0.0
C287 C 0.82615 0.98119 0.9741 0.0
C288 C 0.88111 0.01376 0.90547 0.0
C289 C 0.80588 0.98422 0.01195 0.0
C290 C 0.95389 0.00507 0.70942 0.0
C291 C 0.9372 0.00304 0.76071 0.0
C292 C 0.87498 0.98097 0.8004 0.0
C293 C 0.84083 1.00091 0.95157 0.0
C294 C 0.86038 0.99827 0.90298 0.0
C295 C 0.91326 0.99744 0.74686 0.0
C296 C 0.89534 0.99705 0.80172 0.0
H297 H 0.81103 0.04434 0.02023 0.0
H298 H 0.84614 0.03925 0.9549 0.0
H299 H 0.84191 0.96953 0.84612 0.0
H300 H 0.91789 0.99187 0.57765 0.0
H301 H 0.88839 0.98921 0.66709 0.0
C302 C 0.58339 0.83451 0.05843 0.0
C303 C 0.56611 0.81877 0.08848 0.0
C304 C 0.57716 0.8541 0.0243 0.0
C305 C 0.52924 0.86929 0.92383 0.0
H306 H 0.56168 0.93247 0.92325 0.0
C307 C 0.5021 0.93879 0.74353 0.0
C308 C 0.51961 0.95508 0.71665 0.0
C309 C 0.50716 0.92407 0.79514 0.0
C310 C 0.55261 0.91483 0.92204 0.0
H311 H 0.52898 0.81149 0.10886 0.0
H312 H 0.51796 0.84572 0.0487 0.0
H313 H 0.57161 0.90431 0.00604 0.0
H314 H 0.55621 0.96871 0.72301 0.0
H315 H 0.56539 0.94229 0.81103 0.0
H316 H 0.51111 0.87899 0.83825 0.0
C317 C 0.53633 0.84303 0.05205 0.0
C318 C 0.55819 0.89878 0.96996 0.0
C319 C 0.54262 0.82364 0.08709 0.0
C320 C 0.54232 0.95638 0.74281 0.0
C321 C 0.54751 0.94132 0.79376 0.0
C322 C 0.52393 0.88513 0.87538 0.0
C323 C 0.55347 0.85801 0.01845 0.0
C324 C 0.54656 0.87583 0.97131 0.0
C325 C 0.53 0.92485 0.82059 0.0
C326 C 0.53553 0.90817 0.87354 0.0
H327 H 0.60157 0.83084 0.05794 0.0
H328 H 0.59073 0.86519 0.99854 0.0
H329 H 0.52032 0.85156 0.92264 0.0
H330 H 0.48432 0.93759 0.72527 0.0
H331 H 0.493 0.91217 0.81531 0.0
C332 C 0.69374 0.48479 0.02617 0.0
C333 C 0.71628 0.48702 0.99743 0.0
C334 C 0.67441 0.4902 0.98942 0.0
C335 C 0.65724 0.51953 0.83582 0.0
H336 H 0.6052 0.47037 0.83461 0.0
C337 C 0.58999 0.50834 0.62257 0.0
C338 C 0.56656 0.50076 0.63851 0.0
C339 C 0.60729 0.50937 0.67141 0.0
C340 C 0.61935 0.48452 0.835 0.0
H341 H 0.73661 0.49799 0.90989 0.0
H342 H 0.70312 0.50757 0.84612 0.0
H343 H 0.63674 0.46874 0.91368 0.0
H344 H 0.5428 0.48834 0.71798 0.0
H345 H 0.57273 0.49074 0.8034 0.0
H346 H 0.64003 0.5351 0.75633 0.0
C347 C 0.70018 0.5017 0.89673 0.0
C348 C 0.63745 0.48359 0.88055 0.0
C349 C 0.71937 0.49612 0.93312 0.0
C350 C 0.5607 0.49446 0.70429 0.0
C351 C 0.57793 0.4956 0.75315 0.0
C352 C 0.63909 0.52051 0.79038 0.0
C353 C 0.67737 0.49817 0.92362 0.0
C354 C 0.65682 0.50086 0.8808 0.0
C355 C 0.6015 0.50287 0.73731 0.0
C356 C 0.62008 0.5028 0.78862 0.0
H357 H 0.69092 0.47768 0.07553 0.0
H358 H 0.65708 0.48753 0.01179 0.0
H359 H 0.67177 0.53327 0.83522 0.0
H360 H 0.59501 0.51322 0.57219 0.0
H361 H 0.62529 0.51472 0.65708 0.0
C362 C 0.94559 0.66937 0.03112 0.0
C363 C 0.96242 0.6847 0.06485 0.0
C364 C 0.95205 0.64916 0.99797 0.0
C365 C 1.00102 0.6324 0.90329 0.0
H366 H 0.96927 0.5689 0.89942 0.0
C367 C 0.02871 0.56604 0.70872 0.0
C368 C 0.01124 0.55024 0.67985 0.0
C369 C 0.02407 0.57867 0.76668 0.0
C370 C 0.9782 0.5866 0.89919 0.0
H371 H 0.99887 0.69055 0.09296 0.0
H372 H 0.01034 0.65538 0.03369 0.0
H373 H 0.95807 0.59759 0.98311 0.0
H374 H 0.97545 0.53446 0.68938 0.0
H375 H 0.96663 0.55766 0.78853 0.0
H376 H 0.01991 0.62259 0.81726 0.0
C377 C 0.99211 0.65883 0.0338 0.0
C378 C 0.97188 0.60293 0.94763 0.0
C379 C 0.98555 0.67882 0.06802 0.0
C380 C 0.98923 0.54651 0.71124 0.0
C381 C 0.98428 0.5598 0.76828 0.0
C382 C 0.00695 0.61635 0.85417 0.0
C383 C 0.97555 0.64422 0.99682 0.0
C384 C 0.98325 0.626 0.94999 0.0
C385 C 1.00149 0.5766 0.79583 0.0
C386 C 0.99566 0.59316 0.85107 0.0
H387 H 0.92769 0.67372 0.02755 0.0
H388 H 0.93899 0.63832 0.9694 0.0
H389 H 0.0097 0.65023 0.90298 0.0
H390 H 0.04593 0.56895 0.68566 0.0
H391 H 0.03816 0.59058 0.78743 0.0
C392 C 0.10408 0.21753 0.13167 0.0
C393 C 0.08999 0.23633 0.13499 0.0
C394 C 0.09805 0.19719 0.16838 0.0
C395 C 0.05753 0.17021 0.29808 0.0
H396 H 0.0544 0.11551 0.17916 0.0
C397 C 0.99961 0.08526 0.36014 0.0
C398 C 0.00997 0.06409 0.35198 0.0
C399 C 0.0103 0.10612 0.3331 0.0
C400 C 0.05538 0.13053 0.21325 0.0
H401 H 0.0601 0.24965 0.1846 0.0
H402 H 0.04973 0.21435 0.24905 0.0
H403 H 0.07453 0.15292 0.14308 0.0
H404 H 0.03875 0.04769 0.3058 0.0
H405 H 0.0574 0.08411 0.25826 0.0
H406 H 0.03804 0.14785 0.36787 0.0
C407 C 0.06539 0.2152 0.21811 0.0
C408 C 0.06705 0.15195 0.19281 0.0
C409 C 0.0714 0.23554 0.18136 0.0
C410 C 0.0303 0.06376 0.31241 0.0
C411 C 0.04102 0.08465 0.28541 0.0
C412 C 0.04587 0.14877 0.31856 0.0
C413 C 0.07788 0.19536 0.20916 0.0
C414 C 0.06802 0.1721 0.23467 0.0
C415 C 0.03156 0.10618 0.29748 0.0
C416 C 0.04438 0.12878 0.27598 0.0
H417 H 0.11866 0.21784 0.09679 0.0
H418 H 0.10834 0.18237 0.16176 0.0
H419 H 0.05815 0.18538 0.33161 0.0
H420 H 0.98393 0.08597 0.39045 0.0
H421 H 0.00228 0.12234 0.34183 0.0
C422 C 0.29633 0.97401 0.16088 0.0
C423 C 0.27772 0.95863 0.1359 0.0
C424 C 0.31061 0.96661 0.21013 0.0
C425 C 0.33617 0.91696 0.26966 0.0
H426 H 0.35051 0.95759 0.42383 0.0
C427 C 0.4262 0.9338 0.38995 0.0
C428 C 0.42752 0.94002 0.45769 0.0
C429 C 0.40442 0.92769 0.36064 0.0
C430 C 0.34639 0.94564 0.38207 0.0
H431 H 0.25922 0.9236 0.14193 0.0
H432 H 0.28502 0.91022 0.22754 0.0
H433 H 0.31766 0.96435 0.35375 0.0
H434 H 0.40763 0.9424 0.54956 0.0
H435 H 0.36957 0.93164 0.49839 0.0
H436 H 0.36594 0.89922 0.29565 0.0
C437 C 0.28819 0.92808 0.20943 0.0
C438 C 0.32769 0.94966 0.34178 0.0
C439 C 0.27352 0.93569 0.16089 0.0
C440 C 0.40702 0.93789 0.49698 0.0
C441 C 0.38526 0.93178 0.46773 0.0
C442 C 0.35512 0.91307 0.3097 0.0
C443 C 0.30676 0.94358 0.23449 0.0
C444 C 0.32298 0.93592 0.28404 0.0
C445 C 0.38367 0.92774 0.39873 0.0
C446 C 0.36089 0.92793 0.36498 0.0
H447 H 0.29976 0.9918 0.14232 0.0
H448 H 0.32501 0.97876 0.22827 0.0
H449 H 0.33284 0.90621 0.2251 0.0
H450 H 0.4418 0.93523 0.35872 0.0
H451 H 0.40376 0.92483 0.30727 0.0
C452 C 0.45602 0.27087 0.15411 0.0
C453 C 0.43707 0.26836 0.11015 0.0
C454 C 0.46089 0.29172 0.19114 0.0
C455 C 0.45366 0.35422 0.17243 0.0
H456 H 0.48516 0.36076 0.34215 0.0
C457 C 0.48279 0.44362 0.30399 0.0
C458 C 0.5043 0.44537 0.33724 0.0
C459 C 0.47397 0.42231 0.27395 0.0
C460 C 0.47659 0.35914 0.29435 0.0
H461 H 0.40677 0.28434 0.07613 0.0
H462 H 0.41496 0.32066 0.1421 0.0
H463 H 0.46754 0.32197 0.30497 0.0
H464 H 0.53432 0.42698 0.36101 0.0
H465 H 0.519 0.38973 0.30778 0.0
H466 H 0.4628 0.3914 0.16185 0.0
C467 C 0.42646 0.30682 0.14644 0.0
C468 C 0.46638 0.33698 0.27329 0.0
C469 C 0.42164 0.28599 0.10918 0.0
C470 C 0.5177 0.42608 0.33561 0.0
C471 C 0.5088 0.40471 0.30594 0.0
C472 C 0.46375 0.37639 0.19368 0.0
C473 C 0.44682 0.31038 0.18506 0.0
C474 C 0.45507 0.33421 0.21168 0.0
C475 C 0.48648 0.40241 0.27703 0.0
C476 C 0.47561 0.37899 0.25436 0.0
H477 H 0.46835 0.25768 0.15537 0.0
H478 H 0.47677 0.29389 0.22018 0.0
H479 H 0.44551 0.35264 0.12406 0.0
H480 H 0.4721 0.45826 0.30478 0.0
H481 H 0.45673 0.42103 0.25194 0.0
C482 C 0.22952 0.57726 0.17103 0.0
C483 C 0.23483 0.57974 0.10295 0.0
C484 C 0.20916 0.58535 0.19771 0.0
C485 C 0.15103 0.58535 0.13867 0.0
H486 H 0.13765 0.6027 0.32152 0.0
C487 C 0.07015 0.57555 0.34341 0.0
C488 C 0.0666 0.55076 0.34377 0.0
C489 C 0.08819 0.58698 0.30484 0.0
C490 C 0.14101 0.59833 0.26985 0.0
H491 H 0.22494 0.59583 0.01196 0.0
H492 H 0.18896 0.60939 0.05838 0.0
H493 H 0.17707 0.61255 0.27518 0.0
H494 H 0.07786 0.51847 0.30153 0.0
H495 H 0.10891 0.53843 0.23248 0.0
H496 H 0.11557 0.56933 0.13518 0.0
C497 C 0.20044 0.60098 0.09076 0.0
C498 C 0.16354 0.60389 0.24349 0.0
C499 C 0.22097 0.59314 0.06424 0.0
C500 C 0.08029 0.5376 0.30197 0.0
C501 C 0.09793 0.54902 0.26233 0.0
C502 C 0.12865 0.57951 0.16531 0.0
C503 C 0.19368 0.5959 0.15669 0.0
C504 C 0.169 0.59654 0.17856 0.0
C505 C 0.10247 0.57375 0.2649 0.0
C506 C 0.12376 0.58507 0.23191 0.0
H507 H 0.23969 0.56697 0.20231 0.0
H508 H 0.20436 0.58108 0.24867 0.0
H509 H 0.15474 0.57922 0.0887 0.0
H510 H 0.05984 0.58605 0.37561 0.0
H511 H 0.09145 0.60606 0.30765 0.0
C512 C 0.96689 0.7686 0.95607 0.0
C513 C 0.94761 0.76546 -0.00015 0.0
C514 C 0.97199 0.78996 0.92335 0.0
C515 C 0.97829 0.83633 0.85077 0.0
H516 H 0.9696 0.88979 0.9679 0.0
C517 C 0.98461 0.9419 0.82387 0.0
C518 C 0.00645 0.94587 0.79146 0.0
C519 C 0.97814 0.92051 0.85507 0.0
C520 C 0.97211 0.87502 0.93472 0.0
H521 H 0.91704 0.78085 0.03804 0.0
H522 H 0.92531 0.81784 0.97854 0.0
H523 H 0.95412 0.85018 0.00062 0.0
H524 H 0.03937 0.93155 0.77022 0.0
H525 H 0.02801 0.89395 0.82489 0.0
H526 H 0.99675 0.86131 0.78563 0.0
C527 C 0.93702 0.80421 0.97136 0.0
C528 C 0.963 0.85234 0.95295 0.0
C529 C 0.93206 0.78294 0.00462 0.0
C530 C 0.02251 0.92895 0.79538 0.0
C531 C 0.0159 0.90736 0.82581 0.0
C532 C 0.98761 0.859 0.8329 0.0
C533 C 0.95776 0.80846 0.93342 0.0
C534 C 0.96597 0.8327 0.91119 0.0
C535 C 0.9933 0.90264 0.85356 0.0
C536 C 0.98463 0.87854 0.87477 0.0
H537 H 0.97932 0.75552 0.95221 0.0
H538 H 0.98814 0.79257 0.8947 0.0
H539 H 0.98069 0.82168 0.81711 0.0
H540 H 0.9719 0.95469 0.82114 0.0
H541 H 0.96062 0.91733 0.87605 0.0
C542 C 0.70437 0.02431 0.95026 0.0
C543 C 0.72458 0.03734 0.97485 0.0
C544 C 0.69044 0.03422 0.90448 0.0
C545 C 0.66708 0.08536 0.85739 0.0
H546 H 0.65398 0.05132 0.69099 0.0
C547 C 0.59557 0.06962 0.63029 0.0
C548 C 0.57559 0.06469 0.67072 0.0
C549 C 0.61733 0.07633 0.65892 0.0
C550 C 0.65778 0.06156 0.73621 0.0
H551 H 0.74624 0.07081 0.97202 0.0
H552 H 0.72105 0.08866 0.89259 0.0
H553 H 0.68696 0.04242 0.75764 0.0
H554 H 0.56201 0.06529 0.77164 0.0
H555 H 0.60003 0.07663 0.82192 0.0
H556 H 0.63671 0.1032 0.83849 0.0
C557 C 0.71638 0.07068 0.90832 0.0
C558 C 0.67659 0.05633 0.77441 0.0
C559 C 0.73067 0.06052 0.95332 0.0
C560 C 0.57722 0.06885 0.73951 0.0
C561 C 0.599 0.07554 0.76819 0.0
C562 C 0.64803 0.09046 0.81939 0.0
C563 C 0.6963 0.05745 0.88337 0.0
C564 C 0.68076 0.06749 0.83638 0.0
C565 C 0.61943 0.07813 0.72841 0.0
C566 C 0.64263 0.07786 0.75979 0.0
H567 H 0.69948 0.00636 0.96606 0.0
H568 H 0.67488 0.02384 0.88606 0.0
H569 H 0.67002 0.09405 0.90539 0.0
H570 H 0.59468 0.06677 0.57692 0.0
H571 H 0.63275 0.07854 0.62704 0.0
C572 C 0.56134 0.73698 0.96778 0.0
C573 C 0.57986 0.73815 0.0132 0.0
C574 C 0.55514 0.71624 0.93144 0.0
C575 C 0.57147 0.6573 0.88338 0.0
H576 H 0.50577 0.6377 0.91975 0.0
C577 C 0.53208 0.56272 0.82393 0.0
C578 C 0.51045 0.56065 0.79136 0.0
C579 C 0.54055 0.58403 0.85459 0.0
C580 C 0.52405 0.64296 0.90846 0.0
H581 H 0.6082 0.71977 0.05011 0.0
H582 H 0.59742 0.68346 0.98603 0.0
H583 H 0.52246 0.67707 0.95343 0.0
H584 H 0.47995 0.57848 0.76894 0.0
H585 H 0.49477 0.61577 0.82159 0.0
H586 H 0.57303 0.62329 0.83763 0.0
C587 C 0.58759 0.69848 0.97908 0.0
C588 C 0.5336 0.66555 0.92751 0.0
C589 C 0.59375 0.71922 0.01573 0.0
C590 C 0.49663 0.57959 0.79413 0.0
C591 C 0.50518 0.60098 0.82427 0.0
C592 C 0.56186 0.63474 0.86365 0.0
C593 C 0.56743 0.6964 0.93962 0.0
C594 C 0.55737 0.67295 0.91509 0.0
C595 C 0.52761 0.60369 0.85273 0.0
C596 C 0.53803 0.6273 0.8761 0.0
H597 H 0.55023 0.75121 0.96499 0.0
H598 H 0.53976 0.71516 0.90033 0.0
H599 H 0.58985 0.6626 0.87335 0.0
H600 H 0.54304 0.54829 0.82256 0.0
H601 H 0.55762 0.58536 0.87763 0.0
C602 C 0.79356 0.4184 0.00672 0.0
C603 C 0.78202 0.4364 0.97853 0.0
C604 C 0.81224 0.40934 0.97305 0.0
C605 C 0.84595 0.41115 0.81318 0.0
H606 H 0.90003 0.42088 0.92814 0.0
C607 C 0.94514 0.45473 0.78707 0.0
C608 C 0.95128 0.44497 0.72561 0.0
C609 C 0.9254 0.44487 0.82194 0.0
C610 C 0.88511 0.41786 0.89547 0.0
H611 H 0.7795 0.45726 0.8902 0.0
H612 H 0.81171 0.44139 0.83153 0.0
H613 H 0.86074 0.41796 0.97667 0.0
H614 H 0.94292 0.41631 0.65457 0.0
H615 H 0.90858 0.39895 0.71577 0.0
H616 H 0.87027 0.41292 0.7317 0.0
C617 C 0.80642 0.43417 0.8795 0.0
C618 C 0.86257 0.41588 0.92327 0.0
C619 C 0.78786 0.4433 0.91323 0.0
C620 C 0.93838 0.42431 0.70167 0.0
C621 C 0.9187 0.41441 0.73656 0.0
C622 C 0.86848 0.41314 0.78538 0.0
C623 C 0.81956 0.418 0.91042 0.0
C624 C 0.84276 0.4136 0.88221 0.0
C625 C 0.91153 0.42505 0.79592 0.0
C626 C 0.88827 0.41759 0.82611 0.0
H627 H 0.78911 0.4124 0.05652 0.0
H628 H 0.8218 0.39658 0.99759 0.0
H629 H 0.83101 0.40912 0.78038 0.0
H630 H 0.95484 0.47066 0.80652 0.0
H631 H 0.92023 0.45368 0.86717 0.0
C632 C 0.05675 0.24099 0.87893 0.0
C633 C 0.0801 0.24715 0.89766 0.0
C634 C 0.05108 0.22169 0.83586 0.0
C635 C 0.07554 0.17683 0.72484 0.0
H636 H 0.02639 0.1342 0.80498 0.0
C637 C 0.0377 0.07124 0.71871 0.0
C638 C 0.03586 0.06725 0.64974 0.0
C639 C 0.04379 0.0941 0.74436 0.0
C640 C 0.04025 0.14583 0.78223 0.0
H641 H 0.11598 0.23963 0.88169 0.0
H642 H 0.10625 0.20637 0.80541 0.0
H643 H 0.03464 0.17421 0.84981 0.0
H644 H 0.04 0.08405 0.55358 0.0
H645 H 0.0506 0.12359 0.59823 0.0
H646 H 0.08147 0.14816 0.65819 0.0
C647 C 0.09226 0.21625 0.8237 0.0
C648 C 0.04472 0.16892 0.80717 0.0
C649 C 0.09789 0.23544 0.867 0.0
C650 C 0.04112 0.08644 0.60705 0.0
C651 C 0.04735 0.10917 0.63259 0.0
C652 C 0.07096 0.15374 0.69958 0.0
C653 C 0.06869 0.20834 0.81069 0.0
C654 C 0.06252 0.18467 0.77912 0.0
C655 C 0.04838 0.11337 0.70154 0.0
C656 C 0.0534 0.1379 0.72839 0.0
H657 H 0.04271 0.2495 0.90279 0.0
H658 H 0.03278 0.21628 0.82579 0.0
H659 H 0.08937 0.1885 0.70215 0.0
H660 H 0.03373 0.05688 0.75295 0.0
H661 H 0.04473 0.09672 0.79778 0.0
C662 C 0.27955 0.01489 0.89923 0.0
C663 C 0.27233 0.99105 0.91145 0.0
C664 C 0.29745 0.02108 0.85256 0.0
C665 C 0.33616 0.99559 0.72257 0.0
H666 H 0.38284 0.04401 0.78987 0.0
C667 C 0.43487 0.99815 0.65952 0.0
C668 C 0.44727 0.02002 0.64453 0.0
C669 C 0.41149 0.99684 0.68112 0.0
C670 C 0.36985 0.03068 0.7698 0.0
H671 H 0.27702 0.95508 0.88236 0.0
H672 H 0.30803 0.96557 0.80176 0.0
H673 H 0.34445 0.03822 0.84382 0.0
H674 H 0.44496 0.05773 0.64122 0.0
H675 H 0.40416 0.0555 0.68087 0.0
H676 H 0.36224 0.98726 0.65089 0.0
C677 C 0.29988 0.97971 0.82663 0.0
C678 C 0.34771 0.02741 0.80051 0.0
C679 C 0.28201 0.9736 0.87288 0.0
C680 C 0.43582 0.04061 0.65218 0.0
C681 C 0.4125 0.03934 0.67491 0.0
C682 C 0.3584 0.99866 0.69249 0.0
C683 C 0.30858 0.0035 0.81768 0.0
C684 C 0.3307 0.00943 0.77836 0.0
C685 C 0.40007 0.01742 0.68957 0.0
C686 C 0.37566 0.01591 0.71665 0.0
H687 H 0.27261 0.02864 0.92919 0.0
H688 H 0.30333 0.03959 0.8462 0.0
H689 H 0.32343 0.98192 0.70299 0.0
H690 H 0.44338 0.98206 0.656 0.0
H691 H 0.40255 0.97973 0.69319 0.0
C692 C 0.42755 0.26521 0.84383 0.0
C693 C 0.44569 0.25395 0.87188 0.0
C694 C 0.43268 0.28399 0.80034 0.0
C695 C 0.4799 0.33145 0.77943 0.0
H696 H 0.44084 0.35161 0.6398 0.0
C697 C 0.48245 0.42933 0.70772 0.0
C698 C 0.48277 0.4344 0.63955 0.0
C699 C 0.47792 0.40603 0.72923 0.0
C700 C 0.45204 0.34619 0.67841 0.0
H701 H 0.48314 0.25193 0.8717 0.0
H702 H 0.49216 0.28435 0.79432 0.0
H703 H 0.43403 0.31123 0.68062 0.0
H704 H 0.47781 0.41882 0.54067 0.0
H705 H 0.46981 0.37832 0.57832 0.0
H706 H 0.49772 0.36637 0.77795 0.0
C707 C 0.47398 0.27894 0.80669 0.0
C708 C 0.44807 0.32307 0.70197 0.0
C709 C 0.46882 0.26007 0.84999 0.0
C710 C 0.47774 0.41563 0.5936 0.0
C711 C 0.47306 0.39237 0.61516 0.0
C712 C 0.48375 0.35454 0.75624 0.0
C713 C 0.45608 0.29196 0.78437 0.0
C714 C 0.46182 0.31547 0.75325 0.0
C715 C 0.47344 0.38722 0.68317 0.0
C716 C 0.46969 0.36232 0.70604 0.0
H717 H 0.40962 0.26108 0.86085 0.0
H718 H 0.41844 0.29358 0.78436 0.0
H719 H 0.4906 0.3264 0.81971 0.0
H720 H 0.48624 0.44329 0.74454 0.0
H721 H 0.47797 0.40273 0.78209 0.0
C722 C 0.23099 0.4975 0.95094 0.0
C723 C 0.24509 0.51824 0.93448 0.0
C724 C 0.21298 0.48831 0.90859 0.0
C725 C 0.18617 0.49333 0.74252 0.0
H726 H 0.12775 0.48897 0.843 0.0
C727 C 0.09792 0.50527 0.61986 0.0
C728 C 0.07712 0.49318 0.64487 0.0
C729 C 0.11932 0.50388 0.65136 0.0
C730 C 0.14381 0.48957 0.81389 0.0
H731 H 0.25278 0.5446 0.85916 0.0
H732 H 0.22187 0.52824 0.78415 0.0
H733 H 0.16478 0.49229 0.90143 0.0
H734 H 0.06272 0.46957 0.72181 0.0
H735 H 0.10011 0.46665 0.77585 0.0
H736 H 0.16521 0.4909 0.65489 0.0
C737 C 0.22462 0.51898 0.82949 0.0
C738 C 0.16512 0.49147 0.84758 0.0
C739 C 0.24245 0.52828 0.87216 0.0
C740 C 0.07835 0.4793 0.70154 0.0
C741 C 0.09983 0.4777 0.7327 0.0
C742 C 0.16482 0.49116 0.70873 0.0
C743 C 0.20889 0.49967 0.84892 0.0
C744 C 0.18656 0.49389 0.81237 0.0
C745 C 0.12061 0.49016 0.70842 0.0
C746 C 0.14332 0.48984 0.74397 0.0
H747 H 0.2324 0.48976 0.99935 0.0
H748 H 0.20129 0.47326 0.92455 0.0
H749 H 0.20239 0.495 0.71402 0.0
H750 H 0.09766 0.51626 0.57655 0.0
H751 H 0.13475 0.51414 0.63179 0.0
C752 C 0.98437 0.76549 0.2364 0.0
C753 C 0.96242 0.75225 0.23195 0.0
C754 C 0.98771 0.78486 0.28021 0.0
C755 C 0.95116 0.82763 0.36233 0.0
H756 H 0.01199 0.85774 0.41511 0.0
C757 C 0.96841 0.91792 0.50628 0.0
C758 C 0.98378 0.93467 0.47275 0.0
C759 C 0.96511 0.89448 0.48322 0.0
C760 C 0.9949 0.84947 0.4006 0.0
H761 H 0.9274 0.74732 0.27377 0.0
H762 H 0.93364 0.7799 0.35446 0.0
H763 H 0.0084 0.81684 0.37477 0.0
H764 H 0.00784 0.94006 0.38916 0.0
H765 H 0.00251 0.89881 0.34986 0.0
H766 H 0.93777 0.86033 0.39026 0.0
C767 C 0.94809 0.77614 0.32216 0.0
C768 C 0.99279 0.82604 0.37718 0.0
C769 C 0.94463 0.75703 0.27717 0.0
C770 C 0.99562 0.92759 0.41535 0.0
C771 C 0.99277 0.904 0.39331 0.0
C772 C 0.95322 0.85086 0.38728 0.0
C773 C 0.9692 0.79124 0.32136 0.0
C774 C 0.97098 0.8149 0.35602 0.0
C775 C 0.97762 0.88723 0.42736 0.0
C776 C 0.97519 0.86214 0.40514 0.0
H777 H 0.99814 0.7625 0.20074 0.0
H778 H 0.00417 0.79593 0.27711 0.0
H779 H 0.93412 0.82012 0.34546 0.0
H780 H 0.95917 0.9229 0.55086 0.0
H781 H 0.95334 0.88183 0.51022 0.0
C782 C 0.72694 0.01541 0.2377 0.0
C783 C 0.73054 0.99801 0.18931 0.0
C784 C 0.70874 0.01173 0.28446 0.0
C785 C 0.66374 0.96937 0.36081 0.0
H786 H 0.62354 0.01946 0.34026 0.0
C787 C 0.56711 0.96144 0.45746 0.0
C788 C 0.55711 0.98217 0.47578 0.0
C789 C 0.58981 0.96257 0.42998 0.0
C790 C 0.63463 0.00552 0.34831 0.0
H791 H 0.71902 0.96263 0.1543 0.0
H792 H 0.68752 0.95582 0.23773 0.0
H793 H 0.66158 0.02218 0.28555 0.0
H794 H 0.56322 0.02029 0.48029 0.0
H795 H 0.60309 0.02235 0.43747 0.0
H796 H 0.63694 0.95283 0.4246 0.0
C797 C 0.69884 0.97227 0.23959 0.0
C798 C 0.6565 0.00707 0.31642 0.0
C799 C 0.71697 0.97605 0.19224 0.0
C800 C 0.5705 0.00399 0.46765 0.0
C801 C 0.59333 0.00513 0.44171 0.0
C802 C 0.64193 0.96799 0.394 0.0
C803 C 0.6938 0.99055 0.28388 0.0
C804 C 0.67128 0.98902 0.32198 0.0
C805 C 0.60324 0.98449 0.42108 0.0
C806 C 0.62695 0.98602 0.38794 0.0
H807 H 0.73684 0.03265 0.23548 0.0
H808 H 0.70538 0.02606 0.31833 0.0
H809 H 0.67477 0.95517 0.36587 0.0
H810 H 0.55717 0.94433 0.4628 0.0
H811 H 0.59649 0.94625 0.41403 0.0
C812 C 0.58642 0.74094 0.28126 0.0
C813 C 0.56854 0.75182 0.25061 0.0
C814 C 0.58093 0.7222 0.32462 0.0
C815 C 0.56481 0.68332 0.42271 0.0
H816 H 0.5167 0.63895 0.34372 0.0
C817 C 0.53539 0.59097 0.53272 0.0
C818 C 0.53106 0.57195 0.48723 0.0
C819 C 0.53992 0.61417 0.51046 0.0
C820 C 0.53025 0.65108 0.36629 0.0
H821 H 0.53104 0.75307 0.24561 0.0
H822 H 0.52136 0.72071 0.32285 0.0
H823 H 0.52382 0.67873 0.30057 0.0
H824 H 0.5287 0.56255 0.38234 0.0
H825 H 0.53674 0.60296 0.34359 0.0
H826 H 0.57167 0.65527 0.48711 0.0
C827 C 0.53964 0.72642 0.31266 0.0
C828 C 0.53408 0.67407 0.34227 0.0
C829 C 0.54516 0.74526 0.26945 0.0
C830 C 0.53192 0.5767 0.41884 0.0
C831 C 0.53634 0.59993 0.39661 0.0
C832 C 0.56088 0.66031 0.44704 0.0
C833 C 0.55742 0.71385 0.33787 0.0
C834 C 0.55161 0.69043 0.36953 0.0
C835 C 0.54012 0.61899 0.44215 0.0
C836 C 0.54378 0.64379 0.4184 0.0
H837 H 0.60456 0.7454 0.26651 0.0
H838 H 0.5951 0.71295 0.34279 0.0
H839 H 0.57841 0.69546 0.44498 0.0
H840 H 0.53488 0.58803 0.58579 0.0
H841 H 0.54262 0.62841 0.54692 0.0
C842 C 0.78102 0.46816 0.22996 0.0
C843 C 0.77509 0.48437 0.18272 0.0
C844 C 0.79917 0.47432 0.27457 0.0
C845 C 0.83935 0.5196 0.3535 0.0
H846 H 0.88725 0.47851 0.30624 0.0
C847 C 0.92595 0.51065 0.49856 0.0
C848 C 0.94656 0.51152 0.45947 0.0
C849 C 0.90402 0.51082 0.46878 0.0
C850 C 0.87408 0.49015 0.31982 0.0
H851 H 0.7817 0.52045 0.14987 0.0
H852 H 0.81314 0.53151 0.2298 0.0
H853 H 0.84881 0.4722 0.25419 0.0
H854 H 0.96029 0.51389 0.35857 0.0
H855 H 0.92191 0.51349 0.30662 0.0
H856 H 0.86471 0.53717 0.42055 0.0
C857 C 0.80381 0.51399 0.23164 0.0
C858 C 0.85206 0.48644 0.29049 0.0
C859 C 0.78571 0.50773 0.18632 0.0
C860 C 0.94479 0.51327 0.39013 0.0
C861 C 0.92284 0.51296 0.36033 0.0
C862 C 0.86134 0.523 0.38416 0.0
C863 C 0.81152 0.49691 0.27345 0.0
C864 C 0.83449 0.50109 0.30693 0.0
C865 C 0.90223 0.51141 0.3993 0.0
C866 C 0.87894 0.50836 0.36715 0.0
H867 H 0.77316 0.45002 0.22802 0.0
H868 H 0.8047 0.46091 0.30669 0.0
H869 H 0.82608 0.53116 0.36669 0.0
H870 H 0.92672 0.50941 0.55215 0.0
H871 H 0.88838 0.50947 0.49987 0.0
loop_
_geom_bond_atom_site_label_1
_geom_bond_atom_site_label_2
_geom_bond_distance
_geom_bond_site_symmetry_2
_ccdc_geom_bond_type
H0 C3 0.931 . S
H1 C6 0.928 . S
H2 C8 0.930 . S
C3 H0 0.931 . S
C3 C4 1.413 . S
C3 C5 1.360 1_554 S
C4 C3 1.413 . S
C4 C8 1.429 . S
C5 C3 1.360 1_556 S
C5 C6 1.372 . S
C6 H1 0.928 . S
C6 C5 1.372 . S
C6 C7 1.404 1_556 S
C7 C6 1.404 1_554 S
C7 C8 1.391 . S
C8 H2 0.930 . S
C8 C4 1.429 . S
C8 C7 1.391 . S
H9 C12 0.931 . S
H10 C15 0.928 . S
H11 C17 0.930 . S
C12 H9 0.931 . S
C12 C13 1.413 . S
C12 C14 1.360 1_554 S
C13 C12 1.413 . S
C13 C17 1.429 . S
C14 C12 1.360 1_556 S
C14 C15 1.372 . S
C15 H10 0.928 . S
C15 C14 1.372 . S
C15 C16 1.404 . S
C16 C15 1.404 . S
C16 C17 1.391 1_556 S
C17 H11 0.930 . S
C17 C13 1.429 . S
C17 C16 1.391 1_554 S
H18 C21 0.931 . S
H19 C24 0.928 . S
H20 C26 0.932 . S
C21 H18 0.931 . S
C21 C22 1.414 . S
C21 C23 1.360 1_554 S
C22 C21 1.414 . S
C22 C26 1.430 1_565 S
C23 C21 1.360 1_556 S
C23 C24 1.374 . S
C24 H19 0.928 . S
C24 C23 1.374 . S
C24 C25 1.403 1_556 S
C25 C24 1.403 1_554 S
C25 C26 1.390 1_565 S
C26 H20 0.932 . S
C26 C22 1.430 1_545 S
C26 C25 1.390 1_545 S
H27 C30 0.931 . S
H28 C33 0.928 . S
H29 C35 0.930 . S
C30 H27 0.931 . S
C30 C31 1.413 . S
C30 C32 1.360 . S
C31 C30 1.413 . S
C31 C35 1.429 1_554 S
C32 C30 1.360 . S
C32 C33 1.372 . S
C33 H28 0.928 . S
C33 C32 1.372 . S
C33 C34 1.404 . S
C34 C33 1.404 . S
C34 C35 1.391 1_554 S
C35 H29 0.930 . S
C35 C31 1.429 1_556 S
C35 C34 1.391 1_556 S
H36 C39 0.931 . S
H37 C42 0.928 . S
H38 C44 0.930 . S
C39 H36 0.931 . S
C39 C40 1.413 . S
C39 C41 1.360 . S
C40 C39 1.413 . S
C40 C44 1.429 . S
C41 C39 1.360 . S
C41 C42 1.372 . S
C42 H37 0.928 . S
C42 C41 1.372 . S
C42 C43 1.404 . S
C43 C42 1.404 . S
C43 C44 1.391 . S
C44 H38 0.930 . S
C44 C40 1.429 . S
C44 C43 1.391 . S
H45 C48 0.931 . S
H46 C51 0.928 . S
H47 C53 0.930 . S
C48 H45 0.931 . S
C48 C49 1.413 . S
C48 C50 1.360 . S
C49 C48 1.413 . S
C49 C53 1.429 . S
C50 C48 1.360 . S
C50 C51 1.372 . S
C51 H46 0.928 . S
C51 C50 1.372 . S
C51 C52 1.404 . S
C52 C51 1.404 . S
C52 C53 1.391 . S
C53 H47 0.930 . S
C53 C49 1.429 . S
C53 C52 1.391 . S
H54 C57 0.930 . S
H55 C60 0.928 . S
H56 C62 0.927 1_556 S
C57 H54 0.930 . S
C57 C58 1.413 . S
C57 C59 1.360 . S
C58 C57 1.413 . S
C58 C62 1.428 1_565 S
C59 C57 1.360 . S
C59 C60 1.371 . S
C60 H55 0.928 . S
C60 C59 1.371 . S
C60 C61 1.404 . S
C61 C60 1.404 . S
C61 C62 1.391 1_565 S
C62 H56 0.927 1_554 S
C62 C58 1.428 1_545 S
C62 C61 1.391 1_545 S
H63 C66 0.931 . S
H64 C69 0.928 1_556 S
H65 C71 0.930 . S
C66 H63 0.931 . S
C66 C67 1.413 . S
C66 C68 1.360 1_554 S
C67 C66 1.413 . S
C67 C71 1.429 . S
C68 C66 1.360 1_556 S
C68 C69 1.372 1_556 S
C69 H64 0.928 1_554 S
C69 C68 1.372 1_554 S
C69 C70 1.404 . S
C70 C69 1.404 . S
C70 C71 1.391 . S
C71 H65 0.930 . S
C71 C67 1.429 . S
C71 C70 1.391 . S
Dy72 O76 2.398 . S
Dy72 O77 2.491 1_455 S
Dy72 O78 2.403 . S
Dy72 O79 2.664 1_565 S
Dy72 O83 2.326 . S
Dy72 O87 2.310 1_455 S
Dy72 O88 2.351 1_565 S
C73 O84 1.185 1_455 S
C73 O85 1.355 . S
C74 O76 1.185 . S
C74 O77 1.355 1_455 S
Dy75 O79 2.310 1_655 S
Dy75 O82 2.351 1_545 S
Dy75 O84 2.398 . S
Dy75 O85 2.491 1_655 S
Dy75 O86 2.403 . S
Dy75 O87 2.664 1_545 S
Dy75 O89 2.326 1_655 S
O76 Dy72 2.398 . S
O76 C74 1.185 . S
O77 Dy72 2.491 1_655 S
O77 C74 1.355 1_655 S
O78 Dy72 2.403 . S
O78 C80 1.254 . S
O79 Dy72 2.664 1_545 S
O79 Dy75 2.310 1_455 S
O79 C80 1.268 1_545 S
C80 O78 1.254 . S
C80 O79 1.268 1_565 S
C81 O86 1.254 . S
C81 O87 1.268 1_545 S
O82 Dy75 2.351 1_565 S
O82 C90 1.249 . S
O83 Dy72 2.326 . S
O83 C90 1.267 1_455 S
O84 C73 1.185 1_655 S
O84 Dy75 2.398 . S
O85 C73 1.355 . S
O85 Dy75 2.491 1_455 S
O86 Dy75 2.403 . S
O86 C81 1.254 . S
O87 Dy72 2.310 1_655 S
O87 Dy75 2.664 1_565 S
O87 C81 1.268 1_565 S
O88 Dy72 2.351 1_545 S
O88 C91 1.249 . S
O89 Dy75 2.326 1_455 S
O89 C91 1.267 . S
C90 O82 1.249 . S
C90 O83 1.267 1_655 S
C91 O88 1.249 . S
C91 O89 1.267 . S
Dy92 O96 2.398 . S
Dy92 O97 2.491 . S
Dy92 O98 2.403 . S
Dy92 O99 2.664 . S
Dy92 O103 2.326 1_565 S
Dy92 O107 2.310 1_565 S
Dy92 O108 2.351 . S
C93 O104 1.185 . S
C93 O105 1.355 . S
C94 O96 1.185 . S
C94 O97 1.355 . S
Dy95 O99 2.310 1_545 S
Dy95 O102 2.351 . S
Dy95 O104 2.398 . S
Dy95 O105 2.491 . S
Dy95 O106 2.403 . S
Dy95 O107 2.664 . S
Dy95 O109 2.326 1_545 S
O96 Dy92 2.398 . S
O96 C94 1.185 . S
O97 Dy92 2.491 . S
O97 C94 1.355 . S
O98 Dy92 2.403 . S
O98 C100 1.254 . S
O99 Dy92 2.664 . S
O99 Dy95 2.310 1_565 S
O99 C100 1.268 . S
C100 O98 1.254 . S
C100 O99 1.268 . S
C101 O106 1.254 . S
C101 O107 1.268 . S
O102 Dy95 2.351 . S
O102 C110 1.249 . S
O103 Dy92 2.326 1_545 S
O103 C110 1.267 . S
O104 C93 1.185 . S
O104 Dy95 2.398 . S
O105 C93 1.355 . S
O105 Dy95 2.491 . S
O106 Dy95 2.403 . S
O106 C101 1.254 . S
O107 Dy92 2.310 1_545 S
O107 Dy95 2.664 . S
O107 C101 1.268 . S
O108 Dy92 2.351 . S
O108 C111 1.249 . S
O109 Dy95 2.326 1_565 S
O109 C111 1.267 . S
C110 O102 1.249 . S
C110 O103 1.267 . S
C111 O108 1.249 . S
C111 O109 1.267 . S
Dy112 O116 2.398 . S
Dy112 O117 2.491 . S
Dy112 O118 2.403 . S
Dy112 O119 2.664 . S
Dy112 O123 2.326 . S
Dy112 O127 2.310 . S
Dy112 O128 2.351 . S
C113 O124 1.185 . S
C113 O125 1.355 . S
C114 O116 1.185 . S
C114 O117 1.355 . S
Dy115 O119 2.310 . S
Dy115 O122 2.351 . S
Dy115 O124 2.398 . S
Dy115 O125 2.491 . S
Dy115 O126 2.403 . S
Dy115 O127 2.664 . S
Dy115 O129 2.326 . S
O116 Dy112 2.398 . S
O116 C114 1.185 . S
O117 Dy112 2.491 . S
O117 C114 1.355 . S
O118 Dy112 2.403 . S
O118 C120 1.254 . S
O119 Dy112 2.664 . S
O119 Dy115 2.310 . S
O119 C120 1.268 . S
C120 O118 1.254 . S
C120 O119 1.268 . S
C121 O126 1.254 . S
C121 O127 1.268 . S
O122 Dy115 2.351 . S
O122 C130 1.249 . S
O123 Dy112 2.326 . S
O123 C130 1.267 . S
O124 C113 1.185 . S
O124 Dy115 2.398 . S
O125 C113 1.355 . S
O125 Dy115 2.491 . S
O126 Dy115 2.403 . S
O126 C121 1.254 . S
O127 Dy112 2.310 . S
O127 Dy115 2.664 . S
O127 C121 1.268 . S
O128 Dy112 2.351 . S
O128 C131 1.249 . S
O129 Dy115 2.326 . S
O129 C131 1.267 . S
C130 O122 1.249 . S
C130 O123 1.267 . S
C131 O128 1.249 . S
C131 O129 1.267 . S
Dy132 O136 2.398 . S
Dy132 O137 2.491 . S
Dy132 O138 2.403 1_655 S
Dy132 O139 2.664 1_655 S
Dy132 O143 2.326 . S
Dy132 O147 2.310 . S
Dy132 O148 2.351 1_655 S
C133 O144 1.185 . S
C133 O145 1.355 . S
C134 O136 1.185 . S
C134 O137 1.355 . S
Dy135 O139 2.310 . S
Dy135 O142 2.351 1_455 S
Dy135 O144 2.398 . S
Dy135 O145 2.491 . S
Dy135 O146 2.403 . S
Dy135 O147 2.664 1_455 S
Dy135 O149 2.326 . S
O136 Dy132 2.398 . S
O136 C134 1.185 . S
O137 Dy132 2.491 . S
O137 C134 1.355 . S
O138 Dy132 2.403 1_455 S
O138 C140 1.254 . S
O139 Dy132 2.664 1_455 S
O139 Dy135 2.310 . S
O139 C140 1.268 . S
C140 O138 1.254 . S
C140 O139 1.268 . S
C141 O146 1.254 1_655 S
C141 O147 1.268 . S
O142 Dy135 2.351 1_655 S
O142 C150 1.249 . S
O143 Dy132 2.326 . S
O143 C150 1.267 . S
O144 C133 1.185 . S
O144 Dy135 2.398 . S
O145 C133 1.355 . S
O145 Dy135 2.491 . S
O146 Dy135 2.403 . S
O146 C141 1.254 1_455 S
O147 Dy132 2.310 . S
O147 Dy135 2.664 1_655 S
O147 C141 1.268 . S
O148 Dy132 2.351 1_455 S
O148 C151 1.249 . S
O149 Dy135 2.326 . S
O149 C151 1.267 . S
C150 O142 1.249 . S
C150 O143 1.267 . S
C151 O148 1.249 . S
C151 O149 1.267 . S
C152 C153 1.347 1_545 S
C152 C154 1.327 . S
C152 H177 0.950 . S
C153 C152 1.347 1_565 S
C153 C169 1.351 . S
C154 C152 1.327 . S
C154 C173 1.429 1_545 S
C154 H178 0.950 . S
C155 C172 1.574 . S
C155 C174 1.368 . S
C155 H179 0.949 . S
H156 C160 0.949 . S
C157 C158 1.349 . S
C157 C159 1.327 . S
C157 H180 0.950 . S
C158 C157 1.349 . S
C158 C170 1.349 1_565 S
C159 C157 1.327 . S
C159 C175 1.429 . S
C159 H181 0.950 . S
C160 H156 0.949 . S
C160 C168 1.574 . S
C160 C176 1.368 1_545 S
H161 C169 0.950 . S
H162 C167 0.950 . S
H163 C168 0.949 . S
H164 C170 0.950 . S
H165 C171 0.950 . S
H166 C172 0.949 . S
C167 H162 0.950 . S
C167 C169 1.327 . S
C167 C173 1.429 . S
C168 C160 1.574 . S
C168 H163 0.949 . S
C168 C174 1.368 1_545 S
C169 C153 1.351 . S
C169 H161 0.950 . S
C169 C167 1.327 . S
C170 C158 1.349 1_545 S
C170 H164 0.950 . S
C170 C171 1.327 . S
C171 H165 0.950 . S
C171 C170 1.327 . S
C171 C175 1.429 1_545 S
C172 C155 1.574 . S
C172 H166 0.949 . S
C172 C176 1.368 . S
C173 C154 1.429 1_565 S
C173 C167 1.429 . S
C173 C174 1.523 . S
C174 C155 1.368 . S
C174 C168 1.368 1_565 S
C174 C173 1.523 . S
C175 C159 1.429 . S
C175 C171 1.429 1_565 S
C175 C176 1.523 . S
C176 C160 1.368 1_565 S
C176 C172 1.368 . S
C176 C175 1.523 . S
H177 C152 0.950 . S
H178 C154 0.950 . S
H179 C155 0.949 . S
H180 C157 0.950 . S
H181 C159 0.950 . S
C182 C183 1.349 . S
C182 C184 1.327 . S
C182 H207 0.950 . S
C183 C182 1.349 . S
C183 C199 1.349 . S
C184 C182 1.327 . S
C184 C203 1.429 . S
C184 H208 0.950 . S
C185 C202 1.574 . S
C185 C204 1.368 . S
C185 H209 0.949 . S
H186 C190 0.949 . S
C187 C188 1.349 . S
C187 C189 1.327 . S
C187 H210 0.950 . S
C188 C187 1.349 . S
C188 C200 1.349 . S
C189 C187 1.327 . S
C189 C205 1.429 . S
C189 H211 0.950 . S
C190 H186 0.949 . S
C190 C198 1.574 . S
C190 C206 1.368 . S
H191 C199 0.950 . S
H192 C197 0.950 . S
H193 C198 0.949 . S
H194 C200 0.950 . S
H195 C201 0.950 . S
H196 C202 0.949 . S
C197 H192 0.950 . S
C197 C199 1.327 . S
C197 C203 1.429 . S
C198 C190 1.574 . S
C198 H193 0.949 . S
C198 C204 1.368 . S
C199 C183 1.349 . S
C199 H191 0.950 . S
C199 C197 1.327 . S
C200 C188 1.349 . S
C200 H194 0.950 . S
C200 C201 1.327 . S
C201 H195 0.950 . S
C201 C200 1.327 . S
C201 C205 1.429 . S
C202 C185 1.574 . S
C202 H196 0.949 . S
C202 C206 1.368 . S
C203 C184 1.429 . S
C203 C197 1.429 . S
C203 C204 1.523 . S
C204 C185 1.368 . S
C204 C198 1.368 . S
C204 C203 1.523 . S
C205 C189 1.429 . S
C205 C201 1.429 . S
C205 C206 1.523 . S
C206 C190 1.368 . S
C206 C202 1.368 . S
C206 C205 1.523 . S
H207 C182 0.950 . S
H208 C184 0.950 . S
H209 C185 0.949 . S
H210 C187 0.950 . S
H211 C189 0.950 . S
C212 C213 1.349 . S
C212 C214 1.327 . S
C212 H237 0.950 . S
C213 C212 1.349 . S
C213 C229 1.349 . S
C214 C212 1.327 . S
C214 C233 1.429 . S
C214 H238 0.950 . S
C215 C232 1.574 . S
C215 C234 1.368 . S
C215 H239 0.949 . S
H216 C220 0.949 . S
C217 C218 1.349 . S
C217 C219 1.327 . S
C217 H240 0.950 . S
C218 C217 1.349 . S
C218 C230 1.349 . S
C219 C217 1.327 . S
C219 C235 1.429 . S
C219 H241 0.950 . S
C220 H216 0.949 . S
C220 C228 1.574 . S
C220 C236 1.368 . S
H221 C229 0.950 . S
H222 C227 0.950 . S
H223 C228 0.949 . S
H224 C230 0.950 . S
H225 C231 0.950 . S
H226 C232 0.949 . S
C227 H222 0.950 . S
C227 C229 1.327 . S
C227 C233 1.429 . S
C228 C220 1.574 . S
C228 H223 0.949 . S
C228 C234 1.368 . S
C229 C213 1.349 . S
C229 H221 0.950 . S
C229 C227 1.327 . S
C230 C218 1.349 . S
C230 H224 0.950 . S
C230 C231 1.327 . S
C231 H225 0.950 . S
C231 C230 1.327 . S
C231 C235 1.429 . S
C232 C215 1.574 . S
C232 H226 0.949 . S
C232 C236 1.368 . S
C233 C214 1.429 . S
C233 C227 1.429 . S
C233 C234 1.523 . S
C234 C215 1.368 . S
C234 C228 1.368 . S
C234 C233 1.523 . S
C235 C219 1.429 . S
C235 C231 1.429 . S
C235 C236 1.523 . S
C236 C220 1.368 . S
C236 C232 1.368 . S
C236 C235 1.523 . S
H237 C212 0.950 . S
H238 C214 0.950 . S
H239 C215 0.949 . S
H240 C217 0.950 . S
H241 C219 0.950 . S
C242 C243 1.349 . S
C242 C244 1.327 . S
C242 H267 0.950 . S
C243 C242 1.349 . S
C243 C259 1.349 . S
C244 C242 1.327 . S
C244 C263 1.429 . S
C244 H268 0.950 . S
C245 C262 1.574 . S
C245 C264 1.368 . S
C245 H269 0.949 . S
H246 C250 0.949 . S
C247 C248 1.349 . S
C247 C249 1.327 . S
C247 H270 0.950 . S
C248 C247 1.349 . S
C248 C260 1.349 . S
C249 C247 1.327 . S
C249 C265 1.429 . S
C249 H271 0.950 . S
C250 H246 0.949 . S
C250 C258 1.574 . S
C250 C266 1.368 . S
H251 C259 0.950 . S
H252 C257 0.950 . S
H253 C258 0.949 . S
H254 C260 0.950 . S
H255 C261 0.950 . S
H256 C262 0.949 . S
C257 H252 0.950 . S
C257 C259 1.327 . S
C257 C263 1.429 . S
C258 C250 1.574 . S
C258 H253 0.949 . S
C258 C264 1.368 . S
C259 C243 1.349 . S
C259 H251 0.950 . S
C259 C257 1.327 . S
C260 C248 1.349 . S
C260 H254 0.950 . S
C260 C261 1.327 . S
C261 H255 0.950 . S
C261 C260 1.327 . S
C261 C265 1.429 . S
C262 C245 1.574 . S
C262 H256 0.949 . S
C262 C266 1.368 . S
C263 C244 1.429 . S
C263 C257 1.429 . S
C263 C264 1.523 . S
C264 C245 1.368 . S
C264 C258 1.368 . S
C264 C263 1.523 . S
C265 C249 1.429 . S
C265 C261 1.429 . S
C265 C266 1.523 . S
C266 C250 1.368 . S
C266 C262 1.368 . S
C266 C265 1.523 . S
H267 C242 0.950 . S
H268 C244 0.950 . S
H269 C245 0.949 . S
H270 C247 0.950 . S
H271 C249 0.950 . S
C272 C273 1.357 . S
C272 C274 1.327 . S
C272 H297 0.950 1_556 S
C273 C272 1.357 . S
C273 C289 1.340 1_545 S
C274 C272 1.327 . S
C274 C293 1.429 . S
C274 H298 0.950 . S
C275 C292 1.574 . S
C275 C294 1.368 1_565 S
C275 H299 0.949 . S
H276 C280 0.949 . S
C277 C278 1.349 1_565 S
C277 C279 1.327 . S
C277 H300 0.950 . S
C278 C277 1.349 1_545 S
C278 C290 1.349 . S
C279 C277 1.327 . S
C279 C295 1.429 1_565 S
C279 H301 0.950 . S
C280 H276 0.949 . S
C280 C288 1.574 . S
C280 C296 1.368 . S
H281 C289 0.950 . S
H282 C287 0.950 . S
H283 C288 0.949 . S
H284 C290 0.950 . S
H285 C291 0.950 . S
H286 C292 0.949 . S
C287 H282 0.950 . S
C287 C289 1.327 . S
C287 C293 1.429 1_565 S
C288 C280 1.574 . S
C288 H283 0.949 . S
C288 C294 1.368 . S
C289 C273 1.340 1_565 S
C289 H281 0.950 . S
C289 C287 1.327 . S
C290 C278 1.349 . S
C290 H284 0.950 . S
C290 C291 1.327 . S
C291 H285 0.950 . S
C291 C290 1.327 . S
C291 C295 1.429 . S
C292 C275 1.574 . S
C292 H286 0.949 . S
C292 C296 1.368 1_565 S
C293 C274 1.429 . S
C293 C287 1.429 1_545 S
C293 C294 1.523 . S
C294 C275 1.368 1_545 S
C294 C288 1.368 . S
C294 C293 1.523 . S
C295 C279 1.429 1_545 S
C295 C291 1.429 . S
C295 C296 1.523 . S
C296 C280 1.368 . S
C296 C292 1.368 1_545 S
C296 C295 1.523 . S
H297 C272 0.950 1_554 S
H298 C274 0.950 . S
H299 C275 0.949 . S
H300 C277 0.950 . S
H301 C279 0.950 . S
C302 C303 1.349 1_556 S
C302 C304 1.327 . S
C302 H327 0.950 1_556 S
C303 C302 1.349 1_554 S
C303 C319 1.349 1_554 S
C304 C302 1.327 . S
C304 C323 1.429 . S
C304 H328 0.950 . S
C305 C322 1.574 . S
C305 C324 1.368 . S
C305 H329 0.949 . S
H306 C310 0.949 . S
C307 C308 1.349 . S
C307 C309 1.327 . S
C307 H330 0.950 . S
C308 C307 1.349 . S
C308 C320 1.349 . S
C309 C307 1.327 . S
C309 C325 1.429 . S
C309 H331 0.950 . S
C310 H306 0.949 . S
C310 C318 1.574 . S
C310 C326 1.368 . S
H311 C319 0.950 . S
H312 C317 0.950 . S
H313 C318 0.949 . S
H314 C320 0.950 . S
H315 C321 0.950 . S
H316 C322 0.949 . S
C317 H312 0.950 . S
C317 C319 1.327 . S
C317 C323 1.429 . S
C318 C310 1.574 . S
C318 H313 0.949 . S
C318 C324 1.368 . S
C319 C303 1.349 1_556 S
C319 H311 0.950 . S
C319 C317 1.327 . S
C320 C308 1.349 . S
C320 H314 0.950 . S
C320 C321 1.327 . S
C321 H315 0.950 . S
C321 C320 1.327 . S
C321 C325 1.429 . S
C322 C305 1.574 . S
C322 H316 0.949 . S
C322 C326 1.368 . S
C323 C304 1.429 . S
C323 C317 1.429 . S
C323 C324 1.523 . S
C324 C305 1.368 . S
C324 C318 1.368 . S
C324 C323 1.523 . S
C325 C309 1.429 . S
C325 C321 1.429 . S
C325 C326 1.523 . S
C326 C310 1.368 . S
C326 C322 1.368 . S
C326 C325 1.523 . S
H327 C302 0.950 1_554 S
H328 C304 0.950 . S
H329 C305 0.949 . S
H330 C307 0.950 . S
H331 C309 0.950 . S
C332 C333 1.349 . S
C332 C334 1.327 . S
C332 H357 0.950 . S
C333 C332 1.349 . S
C333 C349 1.349 . S
C334 C332 1.327 . S
C334 C353 1.429 . S
C334 H358 0.950 . S
C335 C352 1.574 . S
C335 C354 1.368 . S
C335 H359 0.949 . S
H336 C340 0.949 . S
C337 C338 1.349 . S
C337 C339 1.327 . S
C337 H360 0.950 . S
C338 C337 1.349 . S
C338 C350 1.349 . S
C339 C337 1.327 . S
C339 C355 1.429 . S
C339 H361 0.950 . S
C340 H336 0.949 . S
C340 C348 1.574 . S
C340 C356 1.368 . S
H341 C349 0.950 . S
H342 C347 0.950 . S
H343 C348 0.949 . S
H344 C350 0.950 . S
H345 C351 0.950 . S
H346 C352 0.949 . S
C347 H342 0.950 . S
C347 C349 1.327 . S
C347 C353 1.429 . S
C348 C340 1.574 . S
C348 H343 0.949 . S
C348 C354 1.368 . S
C349 C333 1.349 . S
C349 H341 0.950 . S
C349 C347 1.327 . S
C350 C338 1.349 . S
C350 H344 0.950 . S
C350 C351 1.327 . S
C351 H345 0.950 . S
C351 C350 1.327 . S
C351 C355 1.429 . S
C352 C335 1.574 . S
C352 H346 0.949 . S
C352 C356 1.368 . S
C353 C334 1.429 . S
C353 C347 1.429 . S
C353 C354 1.523 . S
C354 C335 1.368 . S
C354 C348 1.368 . S
C354 C353 1.523 . S
C355 C339 1.429 . S
C355 C351 1.429 . S
C355 C356 1.523 . S
C356 C340 1.368 . S
C356 C352 1.368 . S
C356 C355 1.523 . S
H357 C332 0.950 . S
H358 C334 0.950 . S
H359 C335 0.949 . S
H360 C337 0.950 . S
H361 C339 0.950 . S
C362 C363 1.349 . S
C362 C364 1.327 . S
C362 H387 0.950 1_556 S
C363 C362 1.349 . S
C363 C379 1.349 . S
C364 C362 1.327 . S
C364 C383 1.429 . S
C364 H388 0.950 . S
C365 C382 1.574 . S
C365 C384 1.368 . S
C365 H389 0.949 . S
H366 C370 0.949 . S
C367 C368 1.349 . S
C367 C369 1.327 . S
C367 H390 0.950 1_655 S
C368 C367 1.349 . S
C368 C380 1.349 . S
C369 C367 1.327 . S
C369 C385 1.429 . S
C369 H391 0.950 1_655 S
C370 H366 0.949 . S
C370 C378 1.574 . S
C370 C386 1.368 . S
H371 C379 0.950 . S
H372 C377 0.950 . S
H373 C378 0.949 . S
H374 C380 0.950 . S
H375 C381 0.950 . S
H376 C382 0.949 . S
C377 H372 0.950 . S
C377 C379 1.327 . S
C377 C383 1.429 . S
C378 C370 1.574 . S
C378 H373 0.949 . S
C378 C384 1.368 . S
C379 C363 1.349 . S
C379 H371 0.950 . S
C379 C377 1.327 . S
C380 C368 1.349 . S
C380 H374 0.950 . S
C380 C381 1.327 . S
C381 H375 0.950 . S
C381 C380 1.327 . S
C381 C385 1.429 . S
C382 C365 1.574 . S
C382 H376 0.949 . S
C382 C386 1.368 . S
C383 C364 1.429 . S
C383 C377 1.429 . S
C383 C384 1.523 . S
C384 C365 1.368 . S
C384 C378 1.368 . S
C384 C383 1.523 . S
C385 C369 1.429 . S
C385 C381 1.429 . S
C385 C386 1.523 . S
C386 C370 1.368 . S
C386 C382 1.368 . S
C386 C385 1.523 . S
H387 C362 0.950 1_554 S
H388 C364 0.950 . S
H389 C365 0.949 . S
H390 C367 0.950 1_455 S
H391 C369 0.950 1_455 S
C392 C393 1.349 . S
C392 C394 1.327 . S
C392 H417 0.950 . S
C393 C392 1.349 . S
C393 C409 1.349 . S
C394 C392 1.327 . S
C394 C413 1.429 . S
C394 H418 0.950 . S
C395 C412 1.574 . S
C395 C414 1.368 . S
C395 H419 0.949 . S
H396 C400 0.949 . S
C397 C398 1.349 . S
C397 C399 1.327 . S
C397 H420 0.950 1_455 S
C398 C397 1.349 . S
C398 C410 1.349 . S
C399 C397 1.327 . S
C399 C415 1.429 . S
C399 H421 0.950 . S
C400 H396 0.949 . S
C400 C408 1.574 . S
C400 C416 1.368 . S
H401 C409 0.950 . S
H402 C407 0.950 . S
H403 C408 0.949 . S
H404 C410 0.950 . S
H405 C411 0.950 . S
H406 C412 0.949 . S
C407 H402 0.950 . S
C407 C409 1.327 . S
C407 C413 1.429 . S
C408 C400 1.574 . S
C408 H403 0.949 . S
C408 C414 1.368 . S
C409 C393 1.349 . S
C409 H401 0.950 . S
C409 C407 1.327 . S
C410 C398 1.349 . S
C410 H404 0.950 . S
C410 C411 1.327 . S
C411 H405 0.950 . S
C411 C410 1.327 . S
C411 C415 1.429 . S
C412 C395 1.574 . S
C412 H406 0.949 . S
C412 C416 1.368 . S
C413 C394 1.429 . S
C413 C407 1.429 . S
C413 C414 1.523 . S
C414 C395 1.368 . S
C414 C408 1.368 . S
C414 C413 1.523 . S
C415 C399 1.429 . S
C415 C411 1.429 . S
C415 C416 1.523 . S
C416 C400 1.368 . S
C416 C412 1.368 . S
C416 C415 1.523 . S
H417 C392 0.950 . S
H418 C394 0.950 . S
H419 C395 0.949 . S
H420 C397 0.950 1_655 S
H421 C399 0.950 . S
C422 C423 1.380 . S
C422 C424 1.327 . S
C422 H447 0.950 . S
C423 C422 1.380 . S
C423 C439 1.311 1_545 S
C424 C422 1.327 . S
C424 C443 1.429 1_545 S
C424 H448 0.950 . S
C425 C442 1.574 . S
C425 C444 1.368 . S
C425 H449 0.949 . S
H426 C430 0.949 . S
C427 C428 1.349 . S
C427 C429 1.327 . S
C427 H450 0.950 . S
C428 C427 1.349 . S
C428 C440 1.349 1_565 S
C429 C427 1.327 . S
C429 C445 1.429 . S
C429 H451 0.950 . S
C430 H426 0.949 . S
C430 C438 1.574 . S
C430 C446 1.368 1_545 S
H431 C439 0.950 . S
H432 C437 0.950 . S
H433 C438 0.949 . S
H434 C440 0.950 . S
H435 C441 0.950 . S
H436 C442 0.949 . S
C437 H432 0.950 . S
C437 C439 1.327 . S
C437 C443 1.429 . S
C438 C430 1.574 . S
C438 H433 0.949 . S
C438 C444 1.368 1_545 S
C439 C423 1.311 1_565 S
C439 H431 0.950 . S
C439 C437 1.327 . S
C440 C428 1.349 1_545 S
C440 H434 0.950 . S
C440 C441 1.327 . S
C441 H435 0.950 . S
C441 C440 1.327 . S
C441 C445 1.429 1_545 S
C442 C425 1.574 . S
C442 H436 0.949 . S
C442 C446 1.368 . S
C443 C424 1.429 1_565 S
C443 C437 1.429 . S
C443 C444 1.523 . S
C444 C425 1.368 . S
C444 C438 1.368 1_565 S
C444 C443 1.523 . S
C445 C429 1.429 . S
C445 C441 1.429 1_565 S
C445 C446 1.523 . S
C446 C430 1.368 1_565 S
C446 C442 1.368 . S
C446 C445 1.523 . S
H447 C422 0.950 . S
H448 C424 0.950 . S
H449 C425 0.949 . S
H450 C427 0.950 . S
H451 C429 0.950 . S
C452 C453 1.349 . S
C452 C454 1.327 . S
C452 H477 0.950 . S
C453 C452 1.349 . S
C453 C469 1.349 . S
C454 C452 1.327 . S
C454 C473 1.429 . S
C454 H478 0.950 . S
C455 C472 1.574 . S
C455 C474 1.368 . S
C455 H479 0.949 . S
H456 C460 0.949 . S
C457 C458 1.349 . S
C457 C459 1.327 . S
C457 H480 0.950 . S
C458 C457 1.349 . S
C458 C470 1.349 . S
C459 C457 1.327 . S
C459 C475 1.429 . S
C459 H481 0.950 . S
C460 H456 0.949 . S
C460 C468 1.574 . S
C460 C476 1.368 . S
H461 C469 0.950 . S
H462 C467 0.950 . S
H463 C468 0.949 . S
H464 C470 0.950 . S
H465 C471 0.950 . S
H466 C472 0.949 . S
C467 H462 0.950 . S
C467 C469 1.327 . S
C467 C473 1.429 . S
C468 C460 1.574 . S
C468 H463 0.949 . S
C468 C474 1.368 . S
C469 C453 1.349 . S
C469 H461 0.950 . S
C469 C467 1.327 . S
C470 C458 1.349 . S
C470 H464 0.950 . S
C470 C471 1.327 . S
C471 H465 0.950 . S
C471 C470 1.327 . S
C471 C475 1.429 . S
C472 C455 1.574 . S
C472 H466 0.949 . S
C472 C476 1.368 . S
C473 C454 1.429 . S
C473 C467 1.429 . S
C473 C474 1.523 . S
C474 C455 1.368 . S
C474 C468 1.368 . S
C474 C473 1.523 . S
C475 C459 1.429 . S
C475 C471 1.429 . S
C475 C476 1.523 . S
C476 C460 1.368 . S
C476 C472 1.368 . S
C476 C475 1.523 . S
H477 C452 0.950 . S
H478 C454 0.950 . S
H479 C455 0.949 . S
H480 C457 0.950 . S
H481 C459 0.950 . S
C482 C483 1.349 . S
C482 C484 1.327 . S
C482 H507 0.950 . S
C483 C482 1.349 . S
C483 C499 1.349 . S
C484 C482 1.327 . S
C484 C503 1.429 . S
C484 H508 0.950 . S
C485 C502 1.574 . S
C485 C504 1.368 . S
C485 H509 0.949 . S
H486 C490 0.949 . S
C487 C488 1.349 . S
C487 C489 1.327 . S
C487 H510 0.950 . S
C488 C487 1.349 . S
C488 C500 1.349 . S
C489 C487 1.327 . S
C489 C505 1.429 . S
C489 H511 0.950 . S
C490 H486 0.949 . S
C490 C498 1.574 . S
C490 C506 1.368 . S
H491 C499 0.950 . S
H492 C497 0.950 . S
H493 C498 0.949 . S
H494 C500 0.950 . S
H495 C501 0.950 . S
H496 C502 0.949 . S
C497 H492 0.950 . S
C497 C499 1.327 . S
C497 C503 1.429 . S
C498 C490 1.574 . S
C498 H493 0.949 . S
C498 C504 1.368 . S
C499 C483 1.349 . S
C499 H491 0.950 . S
C499 C497 1.327 . S
C500 C488 1.349 . S
C500 H494 0.950 . S
C500 C501 1.327 . S
C501 H495 0.950 . S
C501 C500 1.327 . S
C501 C505 1.429 . S
C502 C485 1.574 . S
C502 H496 0.949 . S
C502 C506 1.368 . S
C503 C484 1.429 . S
C503 C497 1.429 . S
C503 C504 1.523 . S
C504 C485 1.368 . S
C504 C498 1.368 . S
C504 C503 1.523 . S
C505 C489 1.429 . S
C505 C501 1.429 . S
C505 C506 1.523 . S
C506 C490 1.368 . S
C506 C502 1.368 . S
C506 C505 1.523 . S
H507 C482 0.950 . S
H508 C484 0.950 . S
H509 C485 0.949 . S
H510 C487 0.950 . S
H511 C489 0.950 . S
C512 C513 1.349 . S
C512 C514 1.327 . S
C512 H537 0.950 1_556 S
C513 C512 1.349 . S
C513 C529 1.349 . S
C514 C512 1.327 . S
C514 C533 1.429 . S
C514 H538 0.950 . S
C515 C532 1.574 . S
C515 C534 1.368 . S
C515 H539 0.949 . S
H516 C520 0.949 . S
C517 C518 1.349 1_655 S
C517 C519 1.327 . S
C517 H540 0.950 . S
C518 C517 1.349 1_455 S
C518 C530 1.349 . S
C519 C517 1.327 . S
C519 C535 1.429 . S
C519 H541 0.950 . S
C520 H516 0.949 . S
C520 C528 1.574 . S
C520 C536 1.368 . S
H521 C529 0.950 . S
H522 C527 0.950 . S
H523 C528 0.949 . S
H524 C530 0.950 . S
H525 C531 0.950 . S
H526 C532 0.949 . S
C527 H522 0.950 . S
C527 C529 1.327 . S
C527 C533 1.429 . S
C528 C520 1.574 . S
C528 H523 0.949 . S
C528 C534 1.368 . S
C529 C513 1.349 . S
C529 H521 0.950 . S
C529 C527 1.327 . S
C530 C518 1.349 . S
C530 H524 0.950 . S
C530 C531 1.327 1_455 S
C531 H525 0.950 . S
C531 C530 1.327 1_655 S
C531 C535 1.429 . S
C532 C515 1.574 . S
C532 H526 0.949 . S
C532 C536 1.368 . S
C533 C514 1.429 . S
C533 C527 1.429 . S
C533 C534 1.523 . S
C534 C515 1.368 . S
C534 C528 1.368 . S
C534 C533 1.523 . S
C535 C519 1.429 . S
C535 C531 1.429 . S
C535 C536 1.523 . S
C536 C520 1.368 . S
C536 C532 1.368 . S
C536 C535 1.523 . S
H537 C512 0.950 1_554 S
H538 C514 0.950 . S
H539 C515 0.949 . S
H540 C517 0.950 . S
H541 C519 0.950 . S
C542 C543 1.380 . S
C542 C544 1.327 . S
C542 H567 0.950 . S
C543 C542 1.380 . S
C543 C559 1.312 1_565 S
C544 C542 1.327 . S
C544 C563 1.429 1_565 S
C544 H568 0.950 . S
C545 C562 1.574 . S
C545 C564 1.368 . S
C545 H569 0.949 . S
H546 C550 0.949 . S
C547 C548 1.349 . S
C547 C549 1.327 . S
C547 H570 0.950 . S
C548 C547 1.349 . S
C548 C560 1.349 1_545 S
C549 C547 1.327 . S
C549 C565 1.429 . S
C549 H571 0.950 . S
C550 H546 0.949 . S
C550 C558 1.574 . S
C550 C566 1.368 1_565 S
H551 C559 0.950 . S
H552 C557 0.950 . S
H553 C558 0.949 . S
H554 C560 0.950 . S
H555 C561 0.950 . S
H556 C562 0.949 . S
C557 H552 0.950 . S
C557 C559 1.327 . S
C557 C563 1.429 . S
C558 C550 1.574 . S
C558 H553 0.949 . S
C558 C564 1.368 1_565 S
C559 C543 1.312 1_545 S
C559 H551 0.950 . S
C559 C557 1.327 . S
C560 C548 1.349 1_565 S
C560 H554 0.950 . S
C560 C561 1.327 . S
C561 H555 0.950 . S
C561 C560 1.327 . S
C561 C565 1.429 1_565 S
C562 C545 1.574 . S
C562 H556 0.949 . S
C562 C566 1.368 . S
C563 C544 1.429 1_545 S
C563 C557 1.429 . S
C563 C564 1.523 . S
C564 C545 1.368 . S
C564 C558 1.368 1_545 S
C564 C563 1.523 . S
C565 C549 1.429 . S
C565 C561 1.429 1_545 S
C565 C566 1.523 . S
C566 C550 1.368 1_545 S
C566 C562 1.368 . S
C566 C565 1.523 . S
H567 C542 0.950 . S
H568 C544 0.950 . S
H569 C545 0.949 . S
H570 C547 0.950 . S
H571 C549 0.950 . S
C572 C573 1.349 . S
C572 C574 1.327 . S
C572 H597 0.950 . S
C573 C572 1.349 . S
C573 C589 1.349 1_556 S
C574 C572 1.327 . S
C574 C593 1.429 . S
C574 H598 0.950 . S
C575 C592 1.574 . S
C575 C594 1.368 . S
C575 H599 0.949 . S
H576 C580 0.949 . S
C577 C578 1.349 . S
C577 C579 1.327 . S
C577 H600 0.950 . S
C578 C577 1.349 . S
C578 C590 1.349 . S
C579 C577 1.327 . S
C579 C595 1.429 . S
C579 H601 0.950 . S
C580 H576 0.949 . S
C580 C588 1.574 . S
C580 C596 1.368 . S
H581 C589 0.950 . S
H582 C587 0.950 1_554 S
H583 C588 0.949 . S
H584 C590 0.950 . S
H585 C591 0.950 . S
H586 C592 0.949 . S
C587 H582 0.950 1_556 S
C587 C589 1.327 1_556 S
C587 C593 1.429 . S
C588 C580 1.574 . S
C588 H583 0.949 . S
C588 C594 1.368 . S
C589 C573 1.349 1_554 S
C589 H581 0.950 . S
C589 C587 1.327 1_554 S
C590 C578 1.349 . S
C590 H584 0.950 . S
C590 C591 1.327 . S
C591 H585 0.950 . S
C591 C590 1.327 . S
C591 C595 1.429 . S
C592 C575 1.574 . S
C592 H586 0.949 . S
C592 C596 1.368 . S
C593 C574 1.429 . S
C593 C587 1.429 . S
C593 C594 1.523 . S
C594 C575 1.368 . S
C594 C588 1.368 . S
C594 C593 1.523 . S
C595 C579 1.429 . S
C595 C591 1.429 . S
C595 C596 1.523 . S
C596 C580 1.368 . S
C596 C592 1.368 . S
C596 C595 1.523 . S
H597 C572 0.950 . S
H598 C574 0.950 . S
H599 C575 0.949 . S
H600 C577 0.950 . S
H601 C579 0.950 . S
C602 C603 1.349 . S
C602 C604 1.327 . S
C602 H627 0.950 . S
C603 C602 1.349 . S
C603 C619 1.349 . S
C604 C602 1.327 . S
C604 C623 1.429 . S
C604 H628 0.950 . S
C605 C622 1.574 . S
C605 C624 1.368 . S
C605 H629 0.949 . S
H606 C610 0.949 . S
C607 C608 1.349 . S
C607 C609 1.327 . S
C607 H630 0.950 . S
C608 C607 1.349 . S
C608 C620 1.349 . S
C609 C607 1.327 . S
C609 C625 1.429 . S
C609 H631 0.950 . S
C610 H606 0.949 . S
C610 C618 1.574 . S
C610 C626 1.368 . S
H611 C619 0.950 . S
H612 C617 0.950 . S
H613 C618 0.949 . S
H614 C620 0.950 . S
H615 C621 0.950 . S
H616 C622 0.949 . S
C617 H612 0.950 . S
C617 C619 1.327 . S
C617 C623 1.429 . S
C618 C610 1.574 . S
C618 H613 0.949 . S
C618 C624 1.368 . S
C619 C603 1.349 . S
C619 H611 0.950 . S
C619 C617 1.327 . S
C620 C608 1.349 . S
C620 H614 0.950 . S
C620 C621 1.327 . S
C621 H615 0.950 . S
C621 C620 1.327 . S
C621 C625 1.429 . S
C622 C605 1.574 . S
C622 H616 0.949 . S
C622 C626 1.368 . S
C623 C604 1.429 . S
C623 C617 1.429 . S
C623 C624 1.523 . S
C624 C605 1.368 . S
C624 C618 1.368 . S
C624 C623 1.523 . S
C625 C609 1.429 . S
C625 C621 1.429 . S
C625 C626 1.523 . S
C626 C610 1.368 . S
C626 C622 1.368 . S
C626 C625 1.523 . S
H627 C602 0.950 . S
H628 C604 0.950 . S
H629 C605 0.949 . S
H630 C607 0.950 . S
H631 C609 0.950 . S
C632 C633 1.349 . S
C632 C634 1.327 . S
C632 H657 0.950 . S
C633 C632 1.349 . S
C633 C649 1.349 . S
C634 C632 1.327 . S
C634 C653 1.429 . S
C634 H658 0.950 . S
C635 C652 1.574 . S
C635 C654 1.368 . S
C635 H659 0.949 . S
H636 C640 0.949 . S
C637 C638 1.349 . S
C637 C639 1.327 . S
C637 H660 0.950 . S
C638 C637 1.349 . S
C638 C650 1.349 . S
C639 C637 1.327 . S
C639 C655 1.429 . S
C639 H661 0.950 . S
C640 H636 0.949 . S
C640 C648 1.574 . S
C640 C656 1.368 . S
H641 C649 0.950 . S
H642 C647 0.950 . S
H643 C648 0.949 . S
H644 C650 0.950 . S
H645 C651 0.950 . S
H646 C652 0.949 . S
C647 H642 0.950 . S
C647 C649 1.327 . S
C647 C653 1.429 . S
C648 C640 1.574 . S
C648 H643 0.949 . S
C648 C654 1.368 . S
C649 C633 1.349 . S
C649 H641 0.950 . S
C649 C647 1.327 . S
C650 C638 1.349 . S
C650 H644 0.950 . S
C650 C651 1.327 . S
C651 H645 0.950 . S
C651 C650 1.327 . S
C651 C655 1.429 . S
C652 C635 1.574 . S
C652 H646 0.949 . S
C652 C656 1.368 . S
C653 C634 1.429 . S
C653 C647 1.429 . S
C653 C654 1.523 . S
C654 C635 1.368 . S
C654 C648 1.368 . S
C654 C653 1.523 . S
C655 C639 1.429 . S
C655 C651 1.429 . S
C655 C656 1.523 . S
C656 C640 1.368 . S
C656 C652 1.368 . S
C656 C655 1.523 . S
H657 C632 0.950 . S
H658 C634 0.950 . S
H659 C635 0.949 . S
H660 C637 0.950 . S
H661 C639 0.950 . S
C662 C663 1.356 . S
C662 C664 1.327 . S
C662 H687 0.950 1_556 S
C663 C662 1.356 . S
C663 C679 1.341 1_545 S
C664 C662 1.327 . S
C664 C683 1.429 . S
C664 H688 0.950 . S
C665 C682 1.574 . S
C665 C684 1.368 1_565 S
C665 H689 0.949 . S
H666 C670 0.949 . S
C667 C668 1.349 1_565 S
C667 C669 1.327 . S
C667 H690 0.950 . S
C668 C667 1.349 1_545 S
C668 C680 1.349 . S
C669 C667 1.327 . S
C669 C685 1.429 1_565 S
C669 H691 0.950 . S
C670 H666 0.949 . S
C670 C678 1.574 . S
C670 C686 1.368 . S
H671 C679 0.950 . S
H672 C677 0.950 . S
H673 C678 0.949 . S
H674 C680 0.950 . S
H675 C681 0.950 . S
H676 C682 0.949 . S
C677 H672 0.950 . S
C677 C679 1.327 . S
C677 C683 1.429 1_565 S
C678 C670 1.574 . S
C678 H673 0.949 . S
C678 C684 1.368 . S
C679 C663 1.341 1_565 S
C679 H671 0.950 . S
C679 C677 1.327 . S
C680 C668 1.349 . S
C680 H674 0.950 . S
C680 C681 1.327 . S
C681 H675 0.950 . S
C681 C680 1.327 . S
C681 C685 1.429 . S
C682 C665 1.574 . S
C682 H676 0.949 . S
C682 C686 1.368 1_565 S
C683 C664 1.429 . S
C683 C677 1.429 1_545 S
C683 C684 1.523 . S
C684 C665 1.368 1_545 S
C684 C678 1.368 . S
C684 C683 1.523 . S
C685 C669 1.429 1_545 S
C685 C681 1.429 . S
C685 C686 1.523 . S
C686 C670 1.368 . S
C686 C682 1.368 1_545 S
C686 C685 1.523 . S
H687 C662 0.950 1_554 S
H688 C664 0.950 . S
H689 C665 0.949 . S
H690 C667 0.950 . S
H691 C669 0.950 . S
C692 C693 1.349 . S
C692 C694 1.327 . S
C692 H717 0.950 . S
C693 C692 1.349 . S
C693 C709 1.349 . S
C694 C692 1.327 . S
C694 C713 1.429 . S
C694 H718 0.950 . S
C695 C712 1.574 . S
C695 C714 1.368 . S
C695 H719 0.949 . S
H696 C700 0.949 . S
C697 C698 1.349 . S
C697 C699 1.327 . S
C697 H720 0.950 . S
C698 C697 1.349 . S
C698 C710 1.349 . S
C699 C697 1.327 . S
C699 C715 1.429 . S
C699 H721 0.950 . S
C700 H696 0.949 . S
C700 C708 1.574 . S
C700 C716 1.368 . S
H701 C709 0.950 . S
H702 C707 0.950 . S
H703 C708 0.949 . S
H704 C710 0.950 . S
H705 C711 0.950 . S
H706 C712 0.949 . S
C707 H702 0.950 . S
C707 C709 1.327 . S
C707 C713 1.429 . S
C708 C700 1.574 . S
C708 H703 0.949 . S
C708 C714 1.368 . S
C709 C693 1.349 . S
C709 H701 0.950 . S
C709 C707 1.327 . S
C710 C698 1.349 . S
C710 H704 0.950 . S
C710 C711 1.327 . S
C711 H705 0.950 . S
C711 C710 1.327 . S
C711 C715 1.429 . S
C712 C695 1.574 . S
C712 H706 0.949 . S
C712 C716 1.368 . S
C713 C694 1.429 . S
C713 C707 1.429 . S
C713 C714 1.523 . S
C714 C695 1.368 . S
C714 C708 1.368 . S
C714 C713 1.523 . S
C715 C699 1.429 . S
C715 C711 1.429 . S
C715 C716 1.523 . S
C716 C700 1.368 . S
C716 C712 1.368 . S
C716 C715 1.523 . S
H717 C692 0.950 . S
H718 C694 0.950 . S
H719 C695 0.949 . S
H720 C697 0.950 . S
H721 C699 0.950 . S
C722 C723 1.349 . S
C722 C724 1.327 . S
C722 H747 0.950 1_556 S
C723 C722 1.349 . S
C723 C739 1.349 . S
C724 C722 1.327 . S
C724 C743 1.429 . S
C724 H748 0.950 . S
C725 C742 1.574 . S
C725 C744 1.368 . S
C725 H749 0.949 . S
H726 C730 0.949 . S
C727 C728 1.349 . S
C727 C729 1.327 . S
C727 H750 0.950 . S
C728 C727 1.349 . S
C728 C740 1.349 . S
C729 C727 1.327 . S
C729 C745 1.429 . S
C729 H751 0.950 . S
C730 H726 0.949 . S
C730 C738 1.574 . S
C730 C746 1.368 . S
H731 C739 0.950 . S
H732 C737 0.950 . S
H733 C738 0.949 . S
H734 C740 0.950 . S
H735 C741 0.950 . S
H736 C742 0.949 . S
C737 H732 0.950 . S
C737 C739 1.327 . S
C737 C743 1.429 . S
C738 C730 1.574 . S
C738 H733 0.949 . S
C738 C744 1.368 . S
C739 C723 1.349 . S
C739 H731 0.950 . S
C739 C737 1.327 . S
C740 C728 1.349 . S
C740 H734 0.950 . S
C740 C741 1.327 . S
C741 H735 0.950 . S
C741 C740 1.327 . S
C741 C745 1.429 . S
C742 C725 1.574 . S
C742 H736 0.949 . S
C742 C746 1.368 . S
C743 C724 1.429 . S
C743 C737 1.429 . S
C743 C744 1.523 . S
C744 C725 1.368 . S
C744 C738 1.368 . S
C744 C743 1.523 . S
C745 C729 1.429 . S
C745 C741 1.429 . S
C745 C746 1.523 . S
C746 C730 1.368 . S
C746 C742 1.368 . S
C746 C745 1.523 . S
H747 C722 0.950 1_554 S
H748 C724 0.950 . S
H749 C725 0.949 . S
H750 C727 0.950 . S
H751 C729 0.950 . S
C752 C753 1.349 . S
C752 C754 1.327 . S
C752 H777 0.950 . S
C753 C752 1.349 . S
C753 C769 1.349 . S
C754 C752 1.327 . S
C754 C773 1.429 . S
C754 H778 0.950 . S
C755 C772 1.574 . S
C755 C774 1.368 . S
C755 H779 0.949 . S
H756 C760 0.949 . S
C757 C758 1.349 . S
C757 C759 1.327 . S
C757 H780 0.950 . S
C758 C757 1.349 . S
C758 C770 1.349 . S
C759 C757 1.327 . S
C759 C775 1.429 . S
C759 H781 0.950 . S
C760 H756 0.949 . S
C760 C768 1.574 . S
C760 C776 1.368 . S
H761 C769 0.950 . S
H762 C767 0.950 . S
H763 C768 0.949 . S
H764 C770 0.950 . S
H765 C771 0.950 . S
H766 C772 0.949 . S
C767 H762 0.950 . S
C767 C769 1.327 . S
C767 C773 1.429 . S
C768 C760 1.574 . S
C768 H763 0.949 . S
C768 C774 1.368 . S
C769 C753 1.349 . S
C769 H761 0.950 . S
C769 C767 1.327 . S
C770 C758 1.349 . S
C770 H764 0.950 . S
C770 C771 1.327 . S
C771 H765 0.950 . S
C771 C770 1.327 . S
C771 C775 1.429 . S
C772 C755 1.574 . S
C772 H766 0.949 . S
C772 C776 1.368 . S
C773 C754 1.429 . S
C773 C767 1.429 . S
C773 C774 1.523 . S
C774 C755 1.368 . S
C774 C768 1.368 . S
C774 C773 1.523 . S
C775 C759 1.429 . S
C775 C771 1.429 . S
C775 C776 1.523 . S
C776 C760 1.368 . S
C776 C772 1.368 . S
C776 C775 1.523 . S
H777 C752 0.950 . S
H778 C754 0.950 . S
H779 C755 0.949 . S
H780 C757 0.950 . S
H781 C759 0.950 . S
C782 C783 1.348 1_545 S
C782 C784 1.327 . S
C782 H807 0.950 . S
C783 C782 1.348 1_565 S
C783 C799 1.350 . S
C784 C782 1.327 . S
C784 C803 1.429 1_545 S
C784 H808 0.950 . S
C785 C802 1.574 . S
C785 C804 1.368 . S
C785 H809 0.949 . S
H786 C790 0.949 . S
C787 C788 1.349 . S
C787 C789 1.327 . S
C787 H810 0.950 . S
C788 C787 1.349 . S
C788 C800 1.349 1_565 S
C789 C787 1.327 . S
C789 C805 1.429 . S
C789 H811 0.950 . S
C790 H786 0.949 . S
C790 C798 1.574 . S
C790 C806 1.368 1_545 S
H791 C799 0.950 . S
H792 C797 0.950 . S
H793 C798 0.949 . S
H794 C800 0.950 . S
H795 C801 0.950 . S
H796 C802 0.949 . S
C797 H792 0.950 . S
C797 C799 1.327 . S
C797 C803 1.429 . S
C798 C790 1.574 . S
C798 H793 0.949 . S
C798 C804 1.368 1_545 S
C799 C783 1.350 . S
C799 H791 0.950 . S
C799 C797 1.327 . S
C800 C788 1.349 1_545 S
C800 H794 0.950 . S
C800 C801 1.327 . S
C801 H795 0.950 . S
C801 C800 1.327 . S
C801 C805 1.429 1_545 S
C802 C785 1.574 . S
C802 H796 0.949 . S
C802 C806 1.368 . S
C803 C784 1.429 1_565 S
C803 C797 1.429 . S
C803 C804 1.523 . S
C804 C785 1.368 . S
C804 C798 1.368 1_565 S
C804 C803 1.523 . S
C805 C789 1.429 . S
C805 C801 1.429 1_565 S
C805 C806 1.523 . S
C806 C790 1.368 1_565 S
C806 C802 1.368 . S
C806 C805 1.523 . S
H807 C782 0.950 . S
H808 C784 0.950 . S
H809 C785 0.949 . S
H810 C787 0.950 . S
H811 C789 0.950 . S
C812 C813 1.349 . S
C812 C814 1.327 . S
C812 H837 0.950 . S
C813 C812 1.349 . S
C813 C829 1.349 . S
C814 C812 1.327 . S
C814 C833 1.429 . S
C814 H838 0.950 . S
C815 C832 1.574 . S
C815 C834 1.368 . S
C815 H839 0.949 . S
H816 C820 0.949 . S
C817 C818 1.349 . S
C817 C819 1.327 . S
C817 H840 0.950 . S
C818 C817 1.349 . S
C818 C830 1.349 . S
C819 C817 1.327 . S
C819 C835 1.429 . S
C819 H841 0.950 . S
C820 H816 0.949 . S
C820 C828 1.574 . S
C820 C836 1.368 . S
H821 C829 0.950 . S
H822 C827 0.950 . S
H823 C828 0.949 . S
H824 C830 0.950 . S
H825 C831 0.950 . S
H826 C832 0.949 . S
C827 H822 0.950 . S
C827 C829 1.327 . S
C827 C833 1.429 . S
C828 C820 1.574 . S
C828 H823 0.949 . S
C828 C834 1.368 . S
C829 C813 1.349 . S
C829 H821 0.950 . S
C829 C827 1.327 . S
C830 C818 1.349 . S
C830 H824 0.950 . S
C830 C831 1.327 . S
C831 H825 0.950 . S
C831 C830 1.327 . S
C831 C835 1.429 . S
C832 C815 1.574 . S
C832 H826 0.949 . S
C832 C836 1.368 . S
C833 C814 1.429 . S
C833 C827 1.429 . S
C833 C834 1.523 . S
C834 C815 1.368 . S
C834 C828 1.368 . S
C834 C833 1.523 . S
C835 C819 1.429 . S
C835 C831 1.429 . S
C835 C836 1.523 . S
C836 C820 1.368 . S
C836 C832 1.368 . S
C836 C835 1.523 . S
H837 C812 0.950 . S
H838 C814 0.950 . S
H839 C815 0.949 . S
H840 C817 0.950 . S
H841 C819 0.950 . S
C842 C843 1.349 . S
C842 C844 1.327 . S
C842 H867 0.950 . S
C843 C842 1.349 . S
C843 C859 1.349 . S
C844 C842 1.327 . S
C844 C863 1.429 . S
C844 H868 0.950 . S
C845 C862 1.574 . S
C845 C864 1.368 . S
C845 H869 0.949 . S
H846 C850 0.949 . S
C847 C848 1.349 . S
C847 C849 1.327 . S
C847 H870 0.950 . S
C848 C847 1.349 . S
C848 C860 1.349 . S
C849 C847 1.327 . S
C849 C865 1.429 . S
C849 H871 0.950 . S
C850 H846 0.949 . S
C850 C858 1.574 . S
C850 C866 1.368 . S
H851 C859 0.950 . S
H852 C857 0.950 . S
H853 C858 0.949 . S
H854 C860 0.950 . S
H855 C861 0.950 . S
H856 C862 0.949 . S
C857 H852 0.950 . S
C857 C859 1.327 . S
C857 C863 1.429 . S
C858 C850 1.574 . S
C858 H853 0.949 . S
C858 C864 1.368 . S
C859 C843 1.349 . S
C859 H851 0.950 . S
C859 C857 1.327 . S
C860 C848 1.349 . S
C860 H854 0.950 . S
C860 C861 1.327 . S
C861 H855 0.950 . S
C861 C860 1.327 . S
C861 C865 1.429 . S
C862 C845 1.574 . S
C862 H856 0.949 . S
C862 C866 1.368 . S
C863 C844 1.429 . S
C863 C857 1.429 . S
C863 C864 1.523 . S
C864 C845 1.368 . S
C864 C858 1.368 . S
C864 C863 1.523 . S
C865 C849 1.429 . S
C865 C861 1.429 . S
C865 C866 1.523 . S
C866 C850 1.368 . S
C866 C862 1.368 . S
C866 C865 1.523 . S
H867 C842 0.950 . S
H868 C844 0.950 . S
H869 C845 0.949 . S
H870 C847 0.950 . S
H871 C849 0.950 . S
C153 C61 1.469 . S
C158 C80 1.501 . S
C188 C110 1.930 . S
C183 C70 1.876 . S
C218 C120 1.481 . S
C213 C43 1.447 . S
C248 C140 1.341 . S
C243 C52 1.297 . S
C278 C81 1.500 . S
C273 C25 1.470 1_546 S
C303 C34 1.873 . S
C308 C111 1.934 . S
C333 C7 1.443 1_556 S
C338 C121 1.481 . S
C363 C16 1.301 . S
C368 C141 1.341 . S
C398 C73 0.486 . S
C393 C50 0.500 . S
C428 C94 0.183 . S
C423 C59 0.238 1_545 S
C458 C113 0.731 . S
C453 C67 0.732 . S
C483 C41 0.401 . S
C488 C133 0.415 . S
C513 C14 0.493 . S
C518 C74 0.491 . S
C548 C93 0.183 . S
C543 C23 0.240 . S
C578 C114 0.731 . S
C573 C31 0.733 1_556 S
C603 C5 0.408 . S
C608 C134 0.415 . S
C633 C49 1.689 1_556 S
C638 C91 1.764 . S
C663 C58 1.195 1_546 S
C668 C101 1.262 . S
C698 C131 1.834 . S
C693 C68 1.742 . S
C728 C151 1.816 . S
C723 C40 1.738 1_556 S
C753 C13 1.691 . S
C758 C90 1.771 . S
C788 C100 1.262 . S
C783 C22 1.194 . S
C818 C130 1.834 . S
C813 C32 1.734 . S
C843 C4 1.734 . S
C848 C150 1.816 . S
