# Generated by pormake.
# Topology zzz, (3,6)-cn, num edge types: 1
# Building blocks:
#     Node 0, Type 0, BuildingBlock: QEWDON_clean_linker_0, # of connection points: 3
#     Node 1, Type 0, BuildingBlock: QEWDON_clean_linker_0, # of connection points: 3
#     Node 2, Type 0, BuildingBlock: QEWDON_clean_linker_0, # of connection points: 3
#     Node 3, Type 0, BuildingBlock: QEWDON_clean_linker_0, # of connection points: 3
#     Node 4, Type 0, BuildingBlock: QEWDON_clean_linker_0, # of connection points: 3
#     Node 5, Type 0, BuildingBlock: QEWDON_clean_linker_0, # of connection points: 3
#     Node 6, Type 0, BuildingBlock: QEWDON_clean_linker_0, # of connection points: 3
#     Node 7, Type 0, BuildingBlock: QEWDON_clean_linker_0, # of connection points: 3
#     Node 8, Type 1, BuildingBlock: CIFDUS_clean_sbu_1, # of connection points: 6
#     Node 9, Type 1, BuildingBlock: CIFDUS_clean_sbu_1, # of connection points: 6
#     Node 10, Type 1, BuildingBlock: CIFDUS_clean_sbu_1, # of connection points: 6
#     Node 11, Type 1, BuildingBlock: CIFDUS_clean_sbu_1, # of connection points: 6
#     Edge 12, Type (0, 1), BuildingBlock: AJUNOK_clean_linker_0, # of connection points: 2
#     Edge 13, Type (0, 1), BuildingBlock: AJUNOK_clean_linker_0, # of connection points: 2
#     Edge 14, Type (0, 1), BuildingBlock: AJUNOK_clean_linker_0, # of connection points: 2
#     Edge 15, Type (0, 1), BuildingBlock: AJUNOK_clean_linker_0, # of connection points: 2
#     Edge 16, Type (0, 1), BuildingBlock: AJUNOK_clean_linker_0, # of connection points: 2
#     Edge 17, Type (0, 1), BuildingBlock: AJUNOK_clean_linker_0, # of connection points: 2
#     Edge 18, Type (0, 1), BuildingBlock: AJUNOK_clean_linker_0, # of connection points: 2
#     Edge 19, Type (0, 1), BuildingBlock: AJUNOK_clean_linker_0, # of connection points: 2
#     Edge 20, Type (0, 1), BuildingBlock: AJUNOK_clean_linker_0, # of connection points: 2
#     Edge 21, Type (0, 1), BuildingBlock: AJUNOK_clean_linker_0, # of connection points: 2
#     Edge 22, Type (0, 1), BuildingBlock: AJUNOK_clean_linker_0, # of connection points: 2
#     Edge 23, Type (0, 1), BuildingBlock: AJUNOK_clean_linker_0, # of connection points: 2
#     Edge 24, Type (0, 1), BuildingBlock: AJUNOK_clean_linker_0, # of connection points: 2
#     Edge 25, Type (0, 1), BuildingBlock: AJUNOK_clean_linker_0, # of connection points: 2
#     Edge 26, Type (0, 1), BuildingBlock: AJUNOK_clean_linker_0, # of connection points: 2
#     Edge 27, Type (0, 1), BuildingBlock: AJUNOK_clean_linker_0, # of connection points: 2
#     Edge 28, Type (0, 1), BuildingBlock: AJUNOK_clean_linker_0, # of connection points: 2
#     Edge 29, Type (0, 1), BuildingBlock: AJUNOK_clean_linker_0, # of connection points: 2
#     Edge 30, Type (0, 1), BuildingBlock: AJUNOK_clean_linker_0, # of connection points: 2
#     Edge 31, Type (0, 1), BuildingBlock: AJUNOK_clean_linker_0, # of connection points: 2
#     Edge 32, Type (0, 1), BuildingBlock: AJUNOK_clean_linker_0, # of connection points: 2
#     Edge 33, Type (0, 1), BuildingBlock: AJUNOK_clean_linker_0, # of connection points: 2
#     Edge 34, Type (0, 1), BuildingBlock: AJUNOK_clean_linker_0, # of connection points: 2
#     Edge 35, Type (0, 1), BuildingBlock: AJUNOK_clean_linker_0, # of connection points: 2
# Relax obj value: 0.082
# Max RMSD: 0.175
# Mean RMSD: 0.065
data_MOF--net-zzz--node1-CIFDUS_clean_sbu_1--node2-QEWDON_clean_linker_0--edge1-AJUNOK_clean_linker_0
_symmetry_space_group_name_H-M    P1
_symmetry_Int_Tables_number       1
_symmetry_cell_setting            triclinic
loop_
_symmetry_equiv_pos_as_xyz
'x, y, z'
_cell_length_a     39.298157
_cell_length_b     39.54929
_cell_length_c     12.068759
_cell_angle_alpha  90.065439
_cell_angle_beta   89.731013
_cell_angle_gamma 89.749761
loop_
_atom_site_label
_atom_site_type_symbol
_atom_site_fract_x
_atom_site_fract_y
_atom_site_fract_z
_atom_type_partial_charge
H0 H 0.81275 0.57316 0.9619 0.0
C1 C 0.82305 0.56927 0.04406 0.0
C2 C 0.85672 0.55837 0.05515 0.0
C3 C 0.80327 0.57618 0.13973 0.0
H4 H 0.89558 0.54164 0.16589 0.0
C5 C 0.87018 0.55248 0.15948 0.0
C6 C 0.85416 0.56417 0.25418 0.0
C7 C 0.81971 0.57494 0.24585 0.0
C8 C 0.76644 0.58628 0.12627 0.0
H9 H 0.80607 0.58212 0.32038 0.0
C10 C 0.74546 0.57148 0.04349 0.0
C11 C 0.71059 0.58079 0.03176 0.0
C12 C 0.75212 0.61138 0.19456 0.0
H13 H 0.76726 0.62385 0.25705 0.0
C14 C 0.71827 0.62146 0.18133 0.0
H15 H 0.75623 0.55246 -0.01095 0.0
C16 C 0.69773 0.6064 0.10119 0.0
H17 H 0.6714 0.61429 0.09569 0.0
H18 H 0.70772 0.64097 0.23445 0.0
H19 H 0.97983 0.80159 0.93913 0.0
C20 C 0.97799 0.81672 0.01383 0.0
C21 C 0.97637 0.85149 0.00293 0.0
C22 C 0.9774 0.80188 0.11919 0.0
H23 H 0.96926 0.89905 0.08383 0.0
C24 C 0.97185 0.87196 0.09592 0.0
C25 C 0.97933 0.85952 0.20114 0.0
C26 C 0.97987 0.8236 0.21446 0.0
C27 C 0.97203 0.76434 0.12409 0.0
H28 H 0.98312 0.81279 0.29608 0.0
C29 C 0.98556 0.74223 0.04114 0.0
C30 C 0.97305 0.70892 0.02739 0.0
C31 C 0.94789 0.75144 0.19847 0.0
H32 H 0.93678 0.76746 0.262 0.0
C33 C 0.93579 0.7185 0.18639 0.0
H34 H 1.0051 0.75118 -0.01507 0.0
C35 C 0.94753 0.6978 0.10029 0.0
H36 H 0.93704 0.6728 0.09285 0.0
H37 H 0.9165 0.70918 0.24276 0.0
H38 H 0.74084 0.96335 0.95508 0.0
C39 C 0.73037 0.97032 0.0352 0.0
C40 C 0.69532 0.97635 0.04615 0.0
C41 C 0.75156 0.97236 0.12909 0.0
H42 H 0.65557 0.99445 0.15526 0.0
C43 C 0.68204 0.98662 0.14829 0.0
C44 C 0.70147 0.98749 0.24284 0.0
C45 C 0.73667 0.98053 0.23423 0.0
C46 C 0.78829 0.96254 0.11894 0.0
H47 H 0.75227 0.98165 0.30783 0.0
C48 C 0.81007 0.97517 0.03392 0.0
C49 C 0.84465 0.96452 0.02717 0.0
C50 C 0.80135 0.93872 0.19377 0.0
H51 H 0.78529 0.9281 0.25797 0.0
C52 C 0.83492 0.92756 0.18526 0.0
H53 H 0.80055 0.99388 0.9762 0.0
C54 C 0.85637 0.94033 0.10328 0.0
H55 H 0.88246 0.93139 0.09977 0.0
H56 H 0.84447 0.90893 0.24308 0.0
H57 H 0.57507 0.74094 0.94232 0.0
C58 C 0.57717 0.72832 0.02133 0.0
C59 C 0.56835 0.6946 0.025 0.0
C60 C 0.5875 0.74516 0.11812 0.0
H61 H 0.56529 0.64918 0.11876 0.0
C62 C 0.57309 0.67551 0.11999 0.0
C63 C 0.5834 0.69017 0.21864 0.0
C64 C 0.58985 0.72572 0.21885 0.0
C65 C 0.59487 0.78264 0.11068 0.0
H66 H 0.59599 0.73792 0.29642 0.0
C67 C 0.5806 0.80335 0.02545 0.0
C68 C 0.5886 0.83815 0.01427 0.0
C69 C 0.61755 0.79785 0.18485 0.0
H70 H 0.62966 0.78331 0.24961 0.0
C71 C 0.62592 0.83196 0.17432 0.0
H72 H 0.56326 0.79249 0.96682 0.0
C73 C 0.61184 0.85175 0.09018 0.0
H74 H 0.61879 0.87799 0.08661 0.0
H75 H 0.64359 0.84323 0.23198 0.0
H76 H 0.23648 0.49572 0.37131 0.0
C77 C 0.22972 0.48508 0.29186 0.0
C78 C 0.19652 0.47268 0.27199 0.0
C79 C 0.25272 0.48888 0.2028 0.0
H80 H 0.16863 0.44128 0.15945 0.0
C81 C 0.19144 0.45601 0.17134 0.0
C82 C 0.20709 0.47024 0.07891 0.0
C83 C 0.23975 0.48419 0.0941 0.0
C84 C 0.28681 0.50463 0.22165 0.0
H85 H 0.25343 0.49368 0.02266 0.0
C86 C 0.30908 0.49357 0.30718 0.0
C87 C 0.34156 0.5086 0.31974 0.0
C88 C 0.297 0.53165 0.15373 0.0
H89 H 0.28027 0.54163 0.09059 0.0
C90 C 0.32859 0.54676 0.16751 0.0
H91 H 0.30155 0.47315 0.36166 0.0
C92 C 0.3507 0.5353 0.249 0.0
H93 H 0.37498 0.54786 0.25817 0.0
H94 H 0.33596 0.56765 0.11488 0.0
H95 H 0.07203 0.24277 0.40448 0.0
C96 C 0.0773 0.23046 0.32605 0.0
C97 C 0.08171 0.19546 0.32703 0.0
C98 C 0.07286 0.24792 0.22574 0.0
H99 H 0.08943 0.15062 0.23026 0.0
C100 C 0.08738 0.17801 0.22798 0.0
C101 C 0.08086 0.19345 0.12673 0.0
C102 C 0.07419 0.22874 0.12531 0.0
C103 C 0.06041 0.28406 0.23045 0.0
H104 H 0.0684 0.24043 0.04668 0.0
C105 C 0.06725 0.30535 0.32324 0.0
C106 C 0.05149 0.3373 0.33379 0.0
C107 C 0.03818 0.29639 0.14838 0.0
H108 H 0.03079 0.28099 0.07858 0.0
C109 C 0.02348 0.32844 0.15751 0.0
H110 H 0.08409 0.29712 0.38864 0.0
C111 C 0.0299 0.34865 0.24951 0.0
H112 H 0.01711 0.3729 0.25669 0.0
H113 H 1.00612 0.33726 0.09436 0.0
H114 H 0.30876 0.05511 0.39517 0.0
C115 C 0.32113 0.06243 0.31852 0.0
C116 C 0.35654 0.06671 0.31689 0.0
C117 C 0.30238 0.06421 0.21931 0.0
H118 H 0.40049 0.07512 0.2161 0.0
C119 C 0.37289 0.07466 0.2179 0.0
C120 C 0.35571 0.07644 0.11799 0.0
C121 C 0.32018 0.07106 0.1183 0.0
C122 C 0.26578 0.05337 0.21959 0.0
H123 H 0.30686 0.07098 0.03999 0.0
C124 C 0.24308 0.06068 0.30913 0.0
C125 C 0.20946 0.04761 0.31016 0.0
C126 C 0.25417 0.03274 0.13277 0.0
H127 H 0.27088 0.02538 0.06529 0.0
C128 C 0.2213 0.01989 0.13361 0.0
H129 H 0.25145 0.07644 0.37709 0.0
C130 C 0.19926 0.02709 0.22105 0.0
H131 H 0.17425 0.01568 0.22007 0.0
H132 H 0.21302 1.00362 0.06686 0.0
H133 H 0.4901 0.30414 0.40098 0.0
C134 C 0.48335 0.31744 0.32608 0.0
C135 C 0.47753 0.35224 0.335 0.0
C136 C 0.48515 0.30148 0.22137 0.0
H137 H 0.46596 0.39813 0.24826 0.0
C138 C 0.47016 0.37105 0.24044 0.0
C139 C 0.47869 0.35836 0.13666 0.0
C140 C 0.48424 0.32312 0.12569 0.0
C141 C 0.49239 0.26365 0.21473 0.0
H142 H 0.48938 0.31373 0.04343 0.0
C143 C 0.48977 0.24178 0.30921 0.0
C144 C 0.4993 0.20728 0.30268 0.0
C145 C 0.50372 0.24897 0.1143 0.0
H146 H 0.50744 0.26357 0.03999 0.0
C147 C 0.51169 0.21468 0.10718 0.0
H148 H 0.48155 0.25113 0.38907 0.0
C149 C 0.50964 0.19409 0.20012 0.0
H150 H 0.51782 0.16796 0.19319 0.0
H151 H 0.52068 0.20418 0.02945 0.0
O152 O 0.03837 0.06161 0.80546 0.0
Mn153 Mn 0.02482 0.02525 0.68119 0.0
O154 O 0.993 0.09655 0.81263 0.0
Mn155 Mn 0.96817 0.07659 0.70173 0.0
O156 O 1.01098 0.98971 0.5556 0.0
O157 O 0.07693 0.01782 0.64388 0.0
Mn158 Mn 0.07907 0.97322 0.6639 0.0
O159 O 0.02033 0.98604 0.79265 0.0
O160 O 0.0528 0.95073 0.5604 0.0
O161 O 0.02884 0.06459 0.57055 0.0
O162 O 0.97987 0.0925 0.56487 0.0
O163 O 0.12197 0.98277 0.6301 0.0
O164 O 0.07039 0.96144 0.80651 0.0
C165 C 0.9403 0.03402 0.74113 0.0
C166 C 0.02307 0.08864 0.84224 0.0
C167 C 0.0242 0.9611 0.52473 0.0
C168 C 0.10965 1.01311 0.62051 0.0
C169 C 0.03923 0.96257 0.83034 0.0
C170 C 1.01069 0.08923 0.53643 0.0
O171 O 0.97303 0.03242 0.71574 0.0
O172 O 0.92545 0.06318 0.73096 0.0
O173 O 0.56092 0.02492 0.82952 0.0
Mn174 Mn 0.5295 0.02735 0.6958 0.0
O175 O 0.59389 0.06905 0.83336 0.0
Mn176 Mn 0.57714 0.081 0.69918 0.0
O177 O 0.49524 0.02509 0.56621 0.0
O178 O 0.5277 0.97335 0.73789 0.0
Mn179 Mn 0.48374 0.98207 0.76675 0.0
O180 O 0.48852 0.04559 0.79719 0.0
O181 O 0.45614 0.99473 0.65352 0.0
O182 O 0.5718 0.01466 0.58853 0.0
O183 O 0.60238 0.06232 0.5873 0.0
O184 O 0.48323 0.93874 0.77957 0.0
O185 O 0.4737 1.00279 0.89769 0.0
C186 C 0.54103 0.1132 0.64967 0.0
C187 C 0.58714 0.03969 0.86414 0.0
C188 C 0.4652 1.01278 0.573 0.0
C189 C 0.51558 0.94253 0.76391 0.0
C190 C 0.47121 0.03372 0.87803 0.0
C191 C 0.5977 0.03224 0.55433 0.0
O192 O 0.53341 0.08026 0.65716 0.0
O193 O 0.569 0.12433 0.69293 0.0
O194 O 0.53052 0.56349 0.79056 0.0
Mn195 Mn 0.52856 0.52489 0.67583 0.0
O196 O 0.47859 0.58401 0.80345 0.0
Mn197 Mn 0.47464 0.57607 0.65607 0.0
O198 O 0.5239 0.48658 0.56097 0.0
O199 O 0.58059 0.51733 0.72459 0.0
Mn200 Mn 0.57911 0.47371 0.68225 0.0
O201 O 0.51241 0.48959 0.79691 0.0
O202 O 0.57385 0.46459 0.53553 0.0
O203 O 0.54511 0.56108 0.5556 0.0
O204 O 0.50403 0.60051 0.56669 0.0
O205 O 0.62185 0.47738 0.72119 0.0
O206 O 0.55161 0.44872 0.77619 0.0
C207 C 0.44506 0.53702 0.60289 0.0
C208 C 0.50908 0.58391 0.83389 0.0
C209 C 0.54284 0.4651 0.51278 0.0
C210 C 0.61244 0.50775 0.74797 0.0
C211 C 0.52414 0.45981 0.81896 0.0
C212 C 0.53305 0.59075 0.53152 0.0
O213 O 0.47727 0.53196 0.63075 0.0
O214 O 0.43297 0.56757 0.60837 0.0
O215 O 0.06988 0.51343 0.79066 0.0
Mn216 Mn 0.02975 0.52593 0.68006 0.0
O217 O 0.10544 0.5576 0.77914 0.0
Mn218 Mn 0.08003 0.58066 0.67595 0.0
O219 O 0.98921 0.53889 0.56999 0.0
O220 O 0.02476 0.47214 0.64815 0.0
Mn221 Mn 0.9819 0.47445 0.69943 0.0
O222 O 0.9948 0.53095 0.80774 0.0
O223 O 0.95186 0.49908 0.61476 0.0
O224 O 0.06473 0.52198 0.55139 0.0
O225 O 0.09146 0.57075 0.5333 0.0
O226 O 0.98375 0.4319 0.66529 0.0
O227 O 0.97736 0.48037 0.84753 0.0
C228 C 0.04144 0.61137 0.73163 0.0
C229 C 0.09771 0.52868 0.81729 0.0
C230 C 0.95891 0.52631 0.56488 0.0
C231 C 1.0146 0.43993 0.63755 0.0
C232 C 0.97667 0.5114 0.86653 0.0
C233 C 0.08612 0.54092 0.50223 0.0
O234 O 0.03609 0.57853 0.71344 0.0
O235 O 0.07077 0.62366 0.70322 0.0
C236 C 0.14981 0.05722 0.38105 0.0
C237 C 0.18473 0.05239 0.40456 0.0
C238 C 0.12429 0.04918 0.45878 0.0
C239 C 0.13256 0.03779 0.56545 0.0
H240 H 0.14199 0.06371 0.29775 0.0
H241 H 0.09822 0.04796 0.43042 0.0
S242 S 0.21975 0.02759 0.67787 0.0
N243 N 0.22596 0.03953 0.54823 0.0
N244 N 0.17809 0.02726 0.69638 0.0
C245 C 0.16728 0.03766 0.59506 0.0
C246 C 0.19336 0.04444 0.51456 0.0
C247 C 0.54102 0.17951 0.42451 0.0
C248 C 0.50674 0.18634 0.40274 0.0
C249 C 0.55069 0.15527 0.50201 0.0
C250 C 0.52669 0.13665 0.56442 0.0
H251 H 0.56079 0.19231 0.37792 0.0
H252 H 0.57774 0.15089 0.51206 0.0
S253 S 0.43335 0.14969 0.5547 0.0
N254 N 0.44819 0.17521 0.45738 0.0
N255 N 0.46673 0.13036 0.60923 0.0
C256 C 0.49209 0.14447 0.54856 0.0
C257 C 0.48206 0.16922 0.46682 0.0
C258 C 0.40068 0.4926 0.37667 0.0
C259 C 0.36652 0.499 0.40771 0.0
C260 C 0.42778 0.49901 0.44965 0.0
C261 C 0.4216 0.51135 0.55702 0.0
H262 H 0.40671 0.48674 0.29107 0.0
H263 H 0.45346 0.49882 0.41661 0.0
S264 S 0.33691 0.52408 0.68799 0.0
N265 N 0.32813 0.51255 0.55965 0.0
N266 N 0.37881 0.52296 0.69789 0.0
C267 C 0.38752 0.51225 0.59442 0.0
C268 C 0.35996 0.50655 0.51951 0.0
C269 C 0.02933 0.35249 0.52052 0.0
C270 C 0.05333 0.35799 0.43661 0.0
C271 C 0.0207 0.37832 0.59529 0.0
C272 C 0.03466 0.4113 0.5867 0.0
H273 H 1.01496 0.32918 0.52238 0.0
H274 H 1.00044 0.37305 0.65386 0.0
S275 S 0.10942 0.43185 0.41411 0.0
N276 N 0.09875 0.39376 0.37193 0.0
N277 N 0.08176 0.44334 0.51068 0.0
C278 C 0.06258 0.41503 0.51495 0.0
C279 C 0.07185 0.38818 0.43982 0.0
C280 C 0.90094 0.99236 -0.01061 0.0
C281 C 0.86998 0.97961 0.94801 0.0
C282 C 0.92581 1.00637 0.91909 0.0
C283 C 0.921 1.00821 0.80396 0.0
H284 H 0.90555 0.99249 0.07781 0.0
H285 H 0.94802 0.01788 0.95606 0.0
S286 S 0.84653 0.97523 0.65094 0.0
N287 N 0.83751 0.96709 0.78218 0.0
N288 N 0.88376 0.99454 0.65073 0.0
C289 C 0.89066 0.99478 0.76089 0.0
C290 C 0.86536 0.98016 0.83244 0.0
C291 C 0.58921 0.88828 0.87871 0.0
C292 C 0.57162 0.86095 0.92911 0.0
C293 C 0.57211 0.91377 0.81701 0.0
C294 C 0.53682 0.91222 0.79858 0.0
H295 H 0.61627 0.89103 0.8919 0.0
H296 H 0.58632 0.93554 0.78879 0.0
S297 S 0.48027 0.84098 0.88446 0.0
N298 N 0.51718 0.83223 0.94185 0.0
N299 N 0.48672 0.87589 0.81345 0.0
C300 C 0.52012 0.88222 0.83439 0.0
C301 C 0.53696 0.85771 0.90249 0.0
C302 C 0.66049 0.57996 0.89614 0.0
C303 C 0.68667 0.56261 0.95396 0.0
C304 C 0.63631 0.5627 0.83009 0.0
C305 C 0.63719 0.52731 0.81868 0.0
H306 H 0.65863 0.60724 0.90166 0.0
H307 H 0.61717 0.57715 0.78672 0.0
S308 S 0.69915 0.46952 0.95807 0.0
N309 N 0.71046 0.50763 -0.00167 0.0
N310 N 0.66639 0.47548 0.87559 0.0
C311 C 0.66328 0.50977 0.87665 0.0
C312 C 0.68759 0.52726 0.94346 0.0
C313 C 0.02384 0.67874 0.94933 0.0
C314 C 0.9887 0.68469 0.94504 0.0
C315 C 0.03947 0.65395 0.88311 0.0
C316 C 0.02102 0.63369 0.80778 0.0
H317 H 0.03948 0.69288 0.00659 0.0
H318 H 0.06675 0.65073 0.89118 0.0
S319 S 0.92837 0.64053 0.75765 0.0
N320 N 0.93564 0.6692 0.85463 0.0
N321 N 0.96549 0.62255 0.72941 0.0
C322 C 0.98585 0.63964 0.80042 0.0
C323 C 0.96968 0.6652 0.8686 0.0
C324 C 0.08322 0.14607 0.45123 0.0
C325 C 0.06643 0.17545 0.41658 0.0
C326 C 0.06475 0.11855 0.49017 0.0
C327 C 0.02889 0.11912 0.49407 0.0
H328 H 0.11044 0.14331 0.43898 0.0
H329 H 0.07879 0.09654 0.51612 0.0
S330 S 0.97416 0.19439 0.44506 0.0
N331 N 1.01294 0.20676 0.41226 0.0
N332 N 0.97811 0.15467 0.48477 0.0
C333 C 1.01225 0.14999 0.47301 0.0
C334 C 0.03114 0.1783 0.43516 0.0
C335 C 0.40907 0.07434 0.42546 0.0
C336 C 0.37909 0.05572 0.40749 0.0
C337 C 0.438 0.05925 0.47015 0.0
C338 C 0.4374 0.02552 0.50452 0.0
H339 H 0.4111 0.09994 0.39452 0.0
H340 H 0.46079 0.07425 0.47927 0.0
S341 S 0.36361 0.96715 0.49391 0.0
N342 N 0.34965 1.00248 0.43697 0.0
N343 N 0.40341 0.9746 0.52907 0.0
C344 C 0.40681 1.00722 0.49515 0.0
C345 C 0.37762 0.02237 0.44657 0.0
C346 C 0.47444 0.3995 0.46698 0.0
C347 C 0.49291 0.37188 0.42508 0.0
C348 C 0.49091 0.4296 0.49333 0.0
C349 C 0.52646 0.43302 0.48038 0.0
H350 H 0.44686 0.39918 0.46644 0.0
H351 H 0.47536 0.45052 0.52165 0.0
S352 S 0.58686 0.36401 0.40695 0.0
N353 N 0.54884 0.34679 0.3964 0.0
N354 N 0.58004 0.40342 0.4465 0.0
C355 C 0.54549 0.40393 0.45347 0.0
C356 C 0.52866 0.37316 0.42771 0.0
C357 C 0.16997 0.49916 0.44167 0.0
C358 C 0.16631 0.48758 0.33191 0.0
C359 C 0.14407 0.51749 0.49439 0.0
C360 C 0.11324 0.52436 0.44055 0.0
H361 H 0.19289 0.4941 0.48814 0.0
H362 H 0.14792 0.52582 0.57902 0.0
S363 S 0.0864 0.49634 0.16398 0.0
N364 N 0.12594 0.48287 0.17628 0.0
N365 N 0.07797 0.51631 0.28068 0.0
C366 C 0.10806 0.51231 0.33444 0.0
C367 C 0.13442 0.49417 0.27869 0.0
C368 C 0.02799 0.87231 0.92118 0.0
C369 C 0.99276 0.8678 0.9092 0.0
C370 C 0.04273 0.90339 0.89693 0.0
C371 C 0.02292 0.93008 0.85506 0.0
H372 H 0.04305 0.85382 0.96584 0.0
H373 H 0.06936 0.90699 0.91651 0.0
S374 S 0.93352 0.92293 0.75768 0.0
N375 N 0.94115 0.88692 0.82165 0.0
N376 N 0.969 0.94501 0.76609 0.0
C377 C 0.98914 0.92306 0.82251 0.0
C378 C 0.97418 0.8916 0.85001 0.0
C379 C 0.6757 1.0029 0.87624 0.0
C380 C 0.67126 0.97673 0.95295 0.0
C381 C 0.64804 0.02331 0.84724 0.0
C382 C 0.61551 0.01747 0.8931 0.0
H383 H 0.70103 1.0109 0.85238 0.0
H384 H 0.65253 0.04468 0.7931 0.0
S385 S 0.59016 0.94614 0.07161 0.0
N386 N 0.6312 0.94023 0.04791 0.0
N387 N 0.57948 0.9798 -0.00101 0.0
C388 C 0.61 0.98767 0.95234 0.0
C389 C 0.63783 0.96606 0.97701 0.0
C390 C 0.56751 0.65809 0.86448 0.0
C391 C 0.54914 0.67871 0.93732 0.0
C392 C 0.55413 0.62725 0.83147 0.0
C393 C 0.52226 0.6163 0.87151 0.0
H394 H 0.59369 0.66395 0.84353 0.0
H395 H 0.5693 0.6116 0.77659 0.0
S396 S 0.46131 0.66628 0.04044 0.0
N397 N 0.49525 0.69052 0.0288 0.0
N398 N 0.47015 0.63158 0.9695 0.0
C399 C 0.50195 0.63896 0.93212 0.0
C400 C 0.51525 0.67078 0.96278 0.0
C401 C 0.88214 0.52466 0.90613 0.0
C402 C 0.88128 0.55538 0.96389 0.0
C403 C 0.91335 0.51012 0.87582 0.0
C404 C 0.94433 0.52589 0.90362 0.0
H405 H 0.85908 0.5101 0.89549 0.0
H406 H 0.91319 0.48594 0.83354 0.0
S407 S 0.95502 0.60676 0.04913 0.0
N408 N 0.91345 0.6028 0.03578 0.0
N409 N 0.97207 0.574 -0.01469 0.0
C410 C 0.94349 0.55789 0.95146 0.0
C411 C 0.91187 0.57342 0.97745 0.0
C412 C 0.03523 0.16988 0.00876 0.0
C413 C 0.06984 0.17017 0.036 0.0
C414 C 0.02088 0.14294 0.95018 0.0
C415 C 0.04033 0.11473 0.91353 0.0
H416 H 0.01851 0.18979 0.03872 0.0
H417 H 0.9938 0.14441 0.93458 0.0
S418 S 0.13296 0.10365 0.96132 0.0
N419 N 0.12372 0.14004 0.02218 0.0
N420 N 0.09699 0.08978 0.90756 0.0
C421 C 0.07535 0.115 0.93815 0.0
C422 C 0.08997 0.14253 -0.00012 0.0
C423 C 0.37833 0.04465 0.95669 0.0
C424 C 0.37808 0.0749 0.01763 0.0
C425 C 0.40835 0.03276 0.90631 0.0
C426 C 0.43923 0.05071 0.91414 0.0
H427 H 0.35647 0.02806 0.95907 0.0
H428 H 0.40787 1.00817 0.86668 0.0
S429 S 0.45038 0.13459 0.04438 0.0
N430 N 0.40989 0.12546 0.06601 0.0
N431 N 0.46637 0.10265 0.9723 0.0
C432 C 0.43833 0.08295 0.96209 0.0
C433 C 0.4076 0.09531 0.01244 0.0
C434 C 0.47423 0.38731 0.94827 0.0
C435 C 0.48996 0.38391 0.05227 0.0
C436 C 0.48352 0.41366 0.87479 0.0
C437 C 0.50831 0.43779 0.90388 0.0
H438 H 0.4547 0.36961 0.92377 0.0
H439 H 0.47195 0.4146 0.79354 0.0
S440 S 0.55784 0.43965 0.16399 0.0
N441 N 0.5326 0.40665 0.17771 0.0
N442 N 0.54879 0.45605 0.04188 0.0
C443 C 0.52397 0.43468 0.00733 0.0
C444 C 0.51512 0.40784 0.08079 0.0
C445 C 0.16331 0.46561 0.92691 0.0
C446 C 0.18282 0.48579 -0.00107 0.0
C447 C 0.13458 0.47889 0.87154 0.0
C448 C 0.12386 0.51254 0.88879 0.0
H449 H 0.16994 0.43924 0.91515 0.0
H450 H 0.12106 0.46294 0.81373 0.0
S451 S 0.16158 0.57346 0.08682 0.0
N452 N 0.18658 0.5399 0.0939 0.0
N453 N 0.1325 0.56421 -0.00652 0.0
C454 C 0.14233 0.53242 0.96397 0.0
C455 C 0.17182 0.5193 0.0178 0.0
C456 C 0.97833 0.88538 0.39661 0.0
C457 C 0.99052 0.88536 0.2866 0.0
C458 C 0.98723 0.91141 0.47215 0.0
C459 C 1.00787 0.93898 0.44016 0.0
H460 H 0.96188 0.8652 0.42458 0.0
H461 H 0.97872 0.9094 0.5572 0.0
S462 S 0.04912 0.95007 0.16653 0.0
N463 N 0.02747 0.91461 0.15452 0.0
N464 N 0.04155 0.96369 0.29351 0.0
C465 C 0.02027 0.93921 0.33139 0.0
C466 C 1.01229 0.91249 0.25573 0.0
C467 C 0.67399 0.03167 0.35776 0.0
C468 C 0.68231 0.99735 0.3447 0.0
C469 C 0.64613 0.04202 0.42267 0.0
C470 C 0.62493 0.01865 0.47855 0.0
H471 H 0.68779 0.05064 0.31114 0.0
H472 H 0.64083 0.0689 0.42705 0.0
S473 S 0.63495 0.92545 0.46749 0.0
N474 N 0.66623 0.93971 0.38858 0.0
N475 N 0.61461 0.95918 0.51511 0.0
C476 C 0.63302 0.98415 0.46676 0.0
C477 C 0.66146 0.97358 0.39931 0.0
C478 C 0.55688 0.67595 0.40217 0.0
C479 C 0.58046 0.66762 0.31886 0.0
C480 C 0.54339 0.65105 0.47307 0.0
C481 C 0.55252 0.61638 0.46417 0.0
H482 H 0.54658 0.70136 0.4069 0.0
H483 H 0.52428 0.65904 0.53265 0.0
S484 S 0.61655 0.5817 0.2677 0.0
N485 N 0.61533 0.62255 0.23929 0.0
N486 N 0.58934 0.57592 0.3707 0.0
C487 C 0.57806 0.60807 0.3869 0.0
C488 C 0.59215 0.63357 0.31523 0.0
C489 C 0.90957 0.5775 0.34787 0.0
C490 C 0.87613 0.56412 0.35562 0.0
C491 C 0.9361 0.56665 0.41806 0.0
C492 C 0.93024 0.54237 0.50076 0.0
H493 H 0.91599 0.5943 0.28015 0.0
H494 H 0.96162 0.57591 0.40316 0.0
S495 S 0.84565 0.50529 0.5714 0.0
N496 N 0.838 0.52898 0.46178 0.0
N497 N 0.88648 0.51002 0.59835 0.0
C498 C 0.89598 0.5318 0.51696 0.0
C499 C 0.86929 0.54243 0.44394 0.0
loop_
_geom_bond_atom_site_label_1
_geom_bond_atom_site_label_2
_geom_bond_distance
_geom_bond_site_symmetry_2
_ccdc_geom_bond_type
H0 C1 0.949 . S
C1 H0 0.949 . S
C1 C2 1.395 . S
C1 C3 1.391 1_556 S
C2 C1 1.395 . S
C2 C5 1.390 1_556 S
C3 C1 1.391 1_554 S
C3 C7 1.387 . S
C3 C8 1.491 . S
H4 C5 0.950 . S
C5 C2 1.390 1_554 S
C5 H4 0.950 . S
C5 C6 1.378 . S
C6 C5 1.378 . S
C6 C7 1.409 . S
C7 C3 1.387 . S
C7 C6 1.409 . S
C7 H9 0.951 . S
C8 C3 1.491 . S
C8 C10 1.382 . S
C8 C12 1.404 . S
H9 C7 0.951 . S
C10 C8 1.382 . S
C10 C11 1.390 1_554 S
C10 H15 0.949 1_554 S
C11 C10 1.390 1_556 S
C11 C16 1.399 1_556 S
C12 C8 1.404 . S
C12 H13 0.950 . S
C12 C14 1.375 . S
H13 C12 0.950 . S
C14 C12 1.375 . S
C14 C16 1.382 . S
C14 H18 0.950 . S
H15 C10 0.949 1_556 S
C16 C11 1.399 1_554 S
C16 C14 1.382 . S
C16 H17 0.952 . S
H17 C16 0.952 . S
H18 C14 0.950 . S
H19 C20 0.949 . S
C20 H19 0.949 . S
C20 C21 1.395 . S
C20 C22 1.391 1_556 S
C21 C20 1.395 . S
C21 C24 1.390 1_556 S
C22 C20 1.391 1_554 S
C22 C26 1.387 . S
C22 C27 1.491 . S
H23 C24 0.950 . S
C24 C21 1.390 1_554 S
C24 H23 0.950 . S
C24 C25 1.378 . S
C25 C24 1.378 . S
C25 C26 1.409 . S
C26 C22 1.387 . S
C26 C25 1.409 . S
C26 H28 0.951 . S
C27 C22 1.491 . S
C27 C29 1.382 . S
C27 C31 1.404 . S
H28 C26 0.951 . S
C29 C27 1.382 . S
C29 C30 1.390 1_554 S
C29 H34 0.949 1_554 S
C30 C29 1.390 1_556 S
C30 C35 1.399 1_556 S
C31 C27 1.404 . S
C31 H32 0.950 . S
C31 C33 1.375 . S
H32 C31 0.950 . S
C33 C31 1.375 . S
C33 C35 1.382 . S
C33 H37 0.950 . S
H34 C29 0.949 1_556 S
C35 C30 1.399 1_554 S
C35 C33 1.382 . S
C35 H36 0.952 . S
H36 C35 0.952 . S
H37 C33 0.950 . S
H38 C39 0.949 . S
C39 H38 0.949 . S
C39 C40 1.395 . S
C39 C41 1.391 1_556 S
C40 C39 1.395 . S
C40 C43 1.390 1_556 S
C41 C39 1.391 1_554 S
C41 C45 1.387 . S
C41 C46 1.491 . S
H42 C43 0.950 . S
C43 C40 1.390 1_554 S
C43 H42 0.950 . S
C43 C44 1.378 . S
C44 C43 1.378 . S
C44 C45 1.409 . S
C45 C41 1.387 . S
C45 C44 1.409 . S
C45 H47 0.951 . S
C46 C41 1.491 . S
C46 C48 1.382 . S
C46 C50 1.404 . S
H47 C45 0.951 . S
C48 C46 1.382 . S
C48 C49 1.390 1_554 S
C48 H53 0.949 1_554 S
C49 C48 1.390 1_556 S
C49 C54 1.399 1_556 S
C50 C46 1.404 . S
C50 H51 0.950 . S
C50 C52 1.375 . S
H51 C50 0.950 . S
C52 C50 1.375 . S
C52 C54 1.382 . S
C52 H56 0.950 . S
H53 C48 0.949 1_556 S
C54 C49 1.399 1_554 S
C54 C52 1.382 . S
C54 H55 0.952 . S
H55 C54 0.952 . S
H56 C52 0.950 . S
H57 C58 0.949 . S
C58 H57 0.949 . S
C58 C59 1.395 . S
C58 C60 1.391 1_556 S
C59 C58 1.395 . S
C59 C62 1.390 1_556 S
C60 C58 1.391 1_554 S
C60 C64 1.387 . S
C60 C65 1.491 . S
H61 C62 0.950 . S
C62 C59 1.390 1_554 S
C62 H61 0.950 . S
C62 C63 1.378 . S
C63 C62 1.378 . S
C63 C64 1.409 . S
C64 C60 1.387 . S
C64 C63 1.409 . S
C64 H66 0.951 . S
C65 C60 1.491 . S
C65 C67 1.382 . S
C65 C69 1.404 . S
H66 C64 0.951 . S
C67 C65 1.382 . S
C67 C68 1.390 1_554 S
C67 H72 0.949 1_554 S
C68 C67 1.390 1_556 S
C68 C73 1.399 1_556 S
C69 C65 1.404 . S
C69 H70 0.950 . S
C69 C71 1.375 . S
H70 C69 0.950 . S
C71 C69 1.375 . S
C71 C73 1.382 . S
C71 H75 0.950 . S
H72 C67 0.949 1_556 S
C73 C68 1.399 1_554 S
C73 C71 1.382 . S
C73 H74 0.952 . S
H74 C73 0.952 . S
H75 C71 0.950 . S
H76 C77 0.949 . S
C77 H76 0.949 . S
C77 C78 1.395 . S
C77 C79 1.391 . S
C78 C77 1.395 . S
C78 C81 1.390 . S
C79 C77 1.391 . S
C79 C83 1.387 . S
C79 C84 1.491 . S
H80 C81 0.950 . S
C81 C78 1.390 . S
C81 H80 0.950 . S
C81 C82 1.378 . S
C82 C81 1.378 . S
C82 C83 1.409 . S
C83 C79 1.387 . S
C83 C82 1.409 . S
C83 H85 0.951 . S
C84 C79 1.491 . S
C84 C86 1.382 . S
C84 C88 1.404 . S
H85 C83 0.951 . S
C86 C84 1.382 . S
C86 C87 1.390 . S
C86 H91 0.949 . S
C87 C86 1.390 . S
C87 C92 1.399 . S
C88 C84 1.404 . S
C88 H89 0.950 . S
C88 C90 1.375 . S
H89 C88 0.950 . S
C90 C88 1.375 . S
C90 C92 1.382 . S
C90 H94 0.950 . S
H91 C86 0.949 . S
C92 C87 1.399 . S
C92 C90 1.382 . S
C92 H93 0.952 . S
H93 C92 0.952 . S
H94 C90 0.950 . S
H95 C96 0.949 . S
C96 H95 0.949 . S
C96 C97 1.395 . S
C96 C98 1.391 . S
C97 C96 1.395 . S
C97 C100 1.390 . S
C98 C96 1.391 . S
C98 C102 1.387 . S
C98 C103 1.491 . S
H99 C100 0.950 . S
C100 C97 1.390 . S
C100 H99 0.950 . S
C100 C101 1.378 . S
C101 C100 1.378 . S
C101 C102 1.409 . S
C102 C98 1.387 . S
C102 C101 1.409 . S
C102 H104 0.951 . S
C103 C98 1.491 . S
C103 C105 1.382 . S
C103 C107 1.404 . S
H104 C102 0.951 . S
C105 C103 1.382 . S
C105 C106 1.390 . S
C105 H110 0.949 . S
C106 C105 1.390 . S
C106 C111 1.399 . S
C107 C103 1.404 . S
C107 H108 0.950 1_455 S
C107 C109 1.375 . S
H108 C107 0.950 1_655 S
C109 C107 1.375 . S
C109 C111 1.382 . S
C109 H113 0.950 1_455 S
H110 C105 0.949 . S
C111 C106 1.399 . S
C111 C109 1.382 . S
C111 H112 0.952 . S
H112 C111 0.952 . S
H113 C109 0.950 1_655 S
H114 C115 0.949 . S
C115 H114 0.949 . S
C115 C116 1.395 . S
C115 C117 1.391 . S
C116 C115 1.395 . S
C116 C119 1.390 . S
C117 C115 1.391 . S
C117 C121 1.387 . S
C117 C122 1.491 . S
H118 C119 0.950 . S
C119 C116 1.390 . S
C119 H118 0.950 . S
C119 C120 1.378 . S
C120 C119 1.378 . S
C120 C121 1.409 . S
C121 C117 1.387 . S
C121 C120 1.409 . S
C121 H123 0.951 . S
C122 C117 1.491 . S
C122 C124 1.382 . S
C122 C126 1.404 . S
H123 C121 0.951 . S
C124 C122 1.382 . S
C124 C125 1.390 . S
C124 H129 0.949 . S
C125 C124 1.390 . S
C125 C130 1.399 . S
C126 C122 1.404 . S
C126 H127 0.950 1_545 S
C126 C128 1.375 . S
H127 C126 0.950 1_565 S
C128 C126 1.375 . S
C128 C130 1.382 . S
C128 H132 0.950 1_545 S
H129 C124 0.949 . S
C130 C125 1.399 . S
C130 C128 1.382 . S
C130 H131 0.952 . S
H131 C130 0.952 . S
H132 C128 0.950 1_565 S
H133 C134 0.949 . S
C134 H133 0.949 . S
C134 C135 1.395 . S
C134 C136 1.391 . S
C135 C134 1.395 . S
C135 C138 1.390 . S
C136 C134 1.391 . S
C136 C140 1.387 . S
C136 C141 1.491 . S
H137 C138 0.950 . S
C138 C135 1.390 . S
C138 H137 0.950 . S
C138 C139 1.378 . S
C139 C138 1.378 . S
C139 C140 1.409 . S
C140 C136 1.387 . S
C140 C139 1.409 . S
C140 H142 0.951 . S
C141 C136 1.491 . S
C141 C143 1.382 . S
C141 C145 1.404 . S
H142 C140 0.951 . S
C143 C141 1.382 . S
C143 C144 1.390 . S
C143 H148 0.949 . S
C144 C143 1.390 . S
C144 C149 1.399 . S
C145 C141 1.404 . S
C145 H146 0.950 . S
C145 C147 1.375 . S
H146 C145 0.950 . S
C147 C145 1.375 . S
C147 C149 1.382 . S
C147 H151 0.950 . S
H148 C143 0.949 . S
C149 C144 1.399 . S
C149 C147 1.382 . S
C149 H150 0.952 . S
H150 C149 0.952 . S
H151 C147 0.950 . S
O152 Mn153 2.163 . S
O152 C166 1.244 . S
Mn153 O152 2.163 . S
Mn153 O156 2.160 1_445 S
Mn153 O157 2.223 . S
Mn153 O159 2.163 1_545 S
Mn153 O161 2.160 . S
Mn153 O171 2.221 1_455 S
O154 Mn155 2.087 . S
O154 C166 1.256 1_655 S
Mn155 O154 2.087 . S
Mn155 O162 2.089 . S
Mn155 O171 2.290 . S
Mn155 O172 2.251 . S
O156 Mn153 2.160 1_665 S
O156 C167 1.237 1_655 S
O157 Mn153 2.223 . S
O157 Mn158 2.283 1_545 S
O157 C168 1.278 . S
Mn158 O157 2.283 1_565 S
Mn158 O160 2.089 . S
Mn158 O163 2.251 . S
Mn158 O164 2.087 . S
O159 Mn153 2.163 1_565 S
O159 C169 1.244 . S
O160 Mn158 2.089 . S
O160 C167 1.263 . S
O161 Mn153 2.160 . S
O161 C170 1.239 . S
O162 Mn155 2.089 . S
O162 C170 1.256 1_655 S
O163 Mn158 2.251 . S
O163 C168 1.241 1_565 S
O164 Mn158 2.087 . S
O164 C169 1.256 . S
C165 O171 1.278 . S
C165 O172 1.241 . S
C166 O152 1.244 . S
C166 O154 1.256 1_455 S
C167 O156 1.237 1_455 S
C167 O160 1.263 . S
C168 O157 1.278 . S
C168 O163 1.241 1_545 S
C169 O159 1.244 . S
C169 O164 1.256 . S
C170 O161 1.239 . S
C170 O162 1.256 1_455 S
O171 Mn153 2.221 1_655 S
O171 Mn155 2.290 . S
O171 C165 1.278 . S
O172 Mn155 2.251 . S
O172 C165 1.241 . S
O173 Mn174 2.163 . S
O173 C187 1.244 . S
Mn174 O173 2.163 . S
Mn174 O177 2.160 . S
Mn174 O178 2.221 1_545 S
Mn174 O180 2.163 . S
Mn174 O182 2.160 1_545 S
Mn174 O192 2.221 . S
O175 Mn176 2.087 . S
O175 C187 1.256 . S
Mn176 O175 2.087 . S
Mn176 O183 2.089 . S
Mn176 O192 2.290 . S
Mn176 O193 2.251 . S
O177 Mn174 2.160 . S
O177 C188 1.239 . S
O178 Mn174 2.221 1_565 S
O178 Mn179 2.290 . S
O178 C189 1.278 . S
Mn179 O178 2.290 . S
Mn179 O181 2.089 . S
Mn179 O184 2.251 . S
Mn179 O185 2.087 . S
O180 Mn174 2.163 . S
O180 C190 1.244 . S
O181 Mn179 2.089 . S
O181 C188 1.256 1_565 S
O182 Mn174 2.160 1_565 S
O182 C191 1.233 1_565 S
O183 Mn176 2.089 . S
O183 C191 1.280 . S
O184 Mn179 2.251 . S
O184 C189 1.241 . S
O185 Mn179 2.087 . S
O185 C190 1.256 1_565 S
C186 O192 1.278 . S
C186 O193 1.241 . S
C187 O173 1.244 . S
C187 O175 1.256 . S
C188 O177 1.239 . S
C188 O181 1.256 1_545 S
C189 O178 1.278 . S
C189 O184 1.241 . S
C190 O180 1.244 . S
C190 O185 1.256 1_545 S
C191 O182 1.233 1_545 S
C191 O183 1.280 . S
O192 Mn174 2.221 . S
O192 Mn176 2.290 . S
O192 C186 1.278 . S
O193 Mn176 2.251 . S
O193 C186 1.241 . S
O194 Mn195 2.163 . S
O194 C208 1.244 . S
Mn195 O194 2.163 . S
Mn195 O198 2.160 . S
Mn195 O199 2.221 . S
Mn195 O201 2.163 . S
Mn195 O203 2.160 . S
Mn195 O213 2.221 . S
O196 Mn197 2.087 . S
O196 C208 1.256 . S
Mn197 O196 2.087 . S
Mn197 O204 2.089 . S
Mn197 O213 2.290 . S
Mn197 O214 2.251 . S
O198 Mn195 2.160 . S
O198 C209 1.239 . S
O199 Mn195 2.221 . S
O199 Mn200 2.290 . S
O199 C210 1.278 . S
Mn200 O199 2.290 . S
Mn200 O202 2.089 . S
Mn200 O205 2.251 . S
Mn200 O206 2.087 . S
O201 Mn195 2.163 . S
O201 C211 1.244 . S
O202 Mn200 2.089 . S
O202 C209 1.256 . S
O203 Mn195 2.160 . S
O203 C212 1.239 . S
O204 Mn197 2.089 . S
O204 C212 1.256 . S
O205 Mn200 2.251 . S
O205 C210 1.241 . S
O206 Mn200 2.087 . S
O206 C211 1.256 . S
C207 O213 1.278 . S
C207 O214 1.241 . S
C208 O194 1.244 . S
C208 O196 1.256 . S
C209 O198 1.239 . S
C209 O202 1.256 . S
C210 O199 1.278 . S
C210 O205 1.241 . S
C211 O201 1.244 . S
C211 O206 1.256 . S
C212 O203 1.239 . S
C212 O204 1.256 . S
O213 Mn195 2.221 . S
O213 Mn197 2.290 . S
O213 C207 1.278 . S
O214 Mn197 2.251 . S
O214 C207 1.241 . S
O215 Mn216 2.163 . S
O215 C229 1.244 . S
Mn216 O215 2.163 . S
Mn216 O219 2.160 1_455 S
Mn216 O220 2.220 1_455 S
Mn216 O222 2.163 1_455 S
Mn216 O224 2.160 . S
Mn216 O234 2.221 . S
O217 Mn218 2.087 . S
O217 C229 1.256 . S
Mn218 O217 2.087 . S
Mn218 O225 2.089 . S
Mn218 O234 2.290 . S
Mn218 O235 2.251 . S
O219 Mn216 2.160 1_655 S
O219 C230 1.239 . S
O220 Mn216 2.220 1_655 S
O220 Mn221 2.295 . S
O220 C231 1.277 1_655 S
Mn221 O220 2.295 . S
Mn221 O223 2.089 . S
Mn221 O226 2.251 . S
Mn221 O227 2.087 . S
O222 Mn216 2.163 1_655 S
O222 C232 1.244 . S
O223 Mn221 2.089 . S
O223 C230 1.256 . S
O224 Mn216 2.160 . S
O224 C233 1.239 . S
O225 Mn218 2.089 . S
O225 C233 1.256 . S
O226 Mn221 2.251 . S
O226 C231 1.214 1_655 S
O227 Mn221 2.087 . S
O227 C232 1.256 . S
C228 O234 1.278 . S
C228 O235 1.241 . S
C229 O215 1.244 . S
C229 O217 1.256 . S
C230 O219 1.239 . S
C230 O223 1.256 . S
C231 O220 1.277 1_455 S
C231 O226 1.214 1_455 S
C232 O222 1.244 . S
C232 O227 1.256 . S
C233 O224 1.239 . S
C233 O225 1.256 . S
O234 Mn216 2.221 . S
O234 Mn218 2.290 . S
O234 C228 1.278 . S
O235 Mn218 2.251 . S
O235 C228 1.241 . S
C236 C237 1.369 . S
C236 C238 1.419 . S
C236 H240 0.930 . S
C237 C236 1.369 . S
C237 C246 1.429 . S
C238 C236 1.419 . S
C238 C239 1.363 . S
C238 H241 0.929 . S
C239 C238 1.363 . S
C239 C245 1.428 . S
H240 C236 0.930 . S
H241 C238 0.929 . S
S242 N243 1.613 1_565 S
S242 N244 1.610 . S
N243 S242 1.613 1_545 S
N243 C246 1.350 . S
N244 S242 1.610 . S
N244 C245 1.351 1_565 S
C245 C239 1.428 . S
C245 N244 1.351 1_545 S
C245 C246 1.434 . S
C246 C237 1.429 . S
C246 N243 1.350 . S
C246 C245 1.434 . S
C247 C248 1.369 . S
C247 C249 1.419 . S
C247 H251 0.930 . S
C248 C247 1.369 . S
C248 C257 1.429 . S
C249 C247 1.419 . S
C249 C250 1.363 . S
C249 H252 0.929 . S
C250 C249 1.363 . S
C250 C256 1.428 . S
H251 C247 0.930 . S
H252 C249 0.929 . S
S253 N254 1.613 . S
S253 N255 1.610 . S
N254 S253 1.613 . S
N254 C257 1.350 . S
N255 S253 1.610 . S
N255 C256 1.351 . S
C256 C250 1.428 . S
C256 N255 1.351 . S
C256 C257 1.434 . S
C257 C248 1.429 . S
C257 N254 1.350 . S
C257 C256 1.434 . S
C258 C259 1.369 . S
C258 C260 1.419 . S
C258 H262 0.930 . S
C259 C258 1.369 . S
C259 C268 1.429 . S
C260 C258 1.419 . S
C260 C261 1.363 . S
C260 H263 0.929 . S
C261 C260 1.363 . S
C261 C267 1.428 . S
H262 C258 0.930 . S
H263 C260 0.929 . S
S264 N265 1.613 . S
S264 N266 1.610 . S
N265 S264 1.613 . S
N265 C268 1.350 . S
N266 S264 1.610 . S
N266 C267 1.351 . S
C267 C261 1.428 . S
C267 N266 1.351 . S
C267 C268 1.434 . S
C268 C259 1.429 . S
C268 N265 1.350 . S
C268 C267 1.434 . S
C269 C270 1.369 . S
C269 C271 1.419 . S
C269 H273 0.930 . S
C270 C269 1.369 . S
C270 C279 1.429 . S
C271 C269 1.419 . S
C271 C272 1.363 . S
C271 H274 0.929 1_455 S
C272 C271 1.363 . S
C272 C278 1.428 . S
H273 C269 0.930 . S
H274 C271 0.929 1_655 S
S275 N276 1.613 . S
S275 N277 1.610 . S
N276 S275 1.613 . S
N276 C279 1.350 . S
N277 S275 1.610 . S
N277 C278 1.351 . S
C278 C272 1.428 . S
C278 N277 1.351 . S
C278 C279 1.434 . S
C279 C270 1.429 . S
C279 N276 1.350 . S
C279 C278 1.434 . S
C280 C281 1.369 1_545 S
C280 C282 1.419 . S
C280 H284 0.930 1_556 S
C281 C280 1.369 1_565 S
C281 C290 1.429 . S
C282 C280 1.419 . S
C282 C283 1.363 1_545 S
C282 H285 0.929 . S
C283 C282 1.363 1_565 S
C283 C289 1.428 . S
H284 C280 0.930 1_554 S
H285 C282 0.929 . S
S286 N287 1.613 . S
S286 N288 1.610 . S
N287 S286 1.613 . S
N287 C290 1.350 . S
N288 S286 1.610 . S
N288 C289 1.351 . S
C289 C283 1.428 . S
C289 N288 1.351 . S
C289 C290 1.434 . S
C290 C281 1.429 . S
C290 N287 1.350 . S
C290 C289 1.434 . S
C291 C292 1.369 . S
C291 C293 1.419 . S
C291 H295 0.930 . S
C292 C291 1.369 . S
C292 C301 1.429 . S
C293 C291 1.419 . S
C293 C294 1.363 . S
C293 H296 0.929 . S
C294 C293 1.363 . S
C294 C300 1.428 . S
H295 C291 0.930 . S
H296 C293 0.929 . S
S297 N298 1.613 1_556 S
S297 N299 1.610 . S
N298 S297 1.613 1_554 S
N298 C301 1.349 1_554 S
N299 S297 1.610 . S
N299 C300 1.351 . S
C300 C294 1.428 . S
C300 N299 1.351 . S
C300 C301 1.434 . S
C301 C292 1.429 . S
C301 N298 1.349 1_556 S
C301 C300 1.434 . S
C302 C303 1.369 . S
C302 C304 1.419 . S
C302 H306 0.930 . S
C303 C302 1.369 . S
C303 C312 1.429 . S
C304 C302 1.419 . S
C304 C305 1.363 . S
C304 H307 0.929 . S
C305 C304 1.363 . S
C305 C311 1.428 . S
H306 C302 0.930 . S
H307 C304 0.929 . S
S308 N309 1.613 . S
S308 N310 1.610 . S
N309 S308 1.613 . S
N309 C312 1.350 . S
N310 S308 1.610 . S
N310 C311 1.351 . S
C311 C305 1.428 . S
C311 N310 1.351 . S
C311 C312 1.434 . S
C312 C303 1.429 . S
C312 N309 1.350 . S
C312 C311 1.434 . S
C313 C314 1.369 1_455 S
C313 C315 1.419 . S
C313 H317 0.930 . S
C314 C313 1.369 1_655 S
C314 C323 1.429 . S
C315 C313 1.419 . S
C315 C316 1.363 1_455 S
C315 H318 0.929 . S
C316 C315 1.363 1_655 S
C316 C322 1.428 . S
H317 C313 0.930 . S
H318 C315 0.929 . S
S319 N320 1.613 . S
S319 N321 1.610 . S
N320 S319 1.613 . S
N320 C323 1.350 . S
N321 S319 1.610 . S
N321 C322 1.351 . S
C322 C316 1.428 . S
C322 N321 1.351 . S
C322 C323 1.434 . S
C323 C314 1.429 . S
C323 N320 1.350 . S
C323 C322 1.434 . S
C324 C325 1.369 . S
C324 C326 1.419 . S
C324 H328 0.930 . S
C325 C324 1.369 . S
C325 C334 1.429 . S
C326 C324 1.419 . S
C326 C327 1.363 . S
C326 H329 0.929 . S
C327 C326 1.363 . S
C327 C333 1.428 1_455 S
H328 C324 0.930 . S
H329 C326 0.929 . S
S330 N331 1.613 . S
S330 N332 1.610 . S
N331 S330 1.613 . S
N331 C334 1.350 1_655 S
N332 S330 1.610 . S
N332 C333 1.351 . S
C333 C327 1.428 1_655 S
C333 N332 1.351 . S
C333 C334 1.434 1_655 S
C334 C325 1.429 . S
C334 N331 1.350 1_455 S
C334 C333 1.434 1_455 S
C335 C336 1.369 . S
C335 C337 1.419 . S
C335 H339 0.930 . S
C336 C335 1.369 . S
C336 C345 1.429 . S
C337 C335 1.419 . S
C337 C338 1.363 . S
C337 H340 0.929 . S
C338 C337 1.363 . S
C338 C344 1.428 1_545 S
H339 C335 0.930 . S
H340 C337 0.929 . S
S341 N342 1.613 . S
S341 N343 1.610 . S
N342 S341 1.613 . S
N342 C345 1.350 1_565 S
N343 S341 1.610 . S
N343 C344 1.351 . S
C344 C338 1.428 1_565 S
C344 N343 1.351 . S
C344 C345 1.434 1_565 S
C345 C336 1.429 . S
C345 N342 1.350 1_545 S
C345 C344 1.434 1_545 S
C346 C347 1.369 . S
C346 C348 1.419 . S
C346 H350 0.930 . S
C347 C346 1.369 . S
C347 C356 1.429 . S
C348 C346 1.419 . S
C348 C349 1.363 . S
C348 H351 0.929 . S
C349 C348 1.363 . S
C349 C355 1.428 . S
H350 C346 0.930 . S
H351 C348 0.929 . S
S352 N353 1.613 . S
S352 N354 1.610 . S
N353 S352 1.613 . S
N353 C356 1.350 . S
N354 S352 1.610 . S
N354 C355 1.351 . S
C355 C349 1.428 . S
C355 N354 1.351 . S
C355 C356 1.434 . S
C356 C347 1.429 . S
C356 N353 1.350 . S
C356 C355 1.434 . S
C357 C358 1.369 . S
C357 C359 1.419 . S
C357 H361 0.930 . S
C358 C357 1.369 . S
C358 C367 1.429 . S
C359 C357 1.419 . S
C359 C360 1.363 . S
C359 H362 0.929 . S
C360 C359 1.363 . S
C360 C366 1.428 . S
H361 C357 0.930 . S
H362 C359 0.929 . S
S363 N364 1.613 . S
S363 N365 1.610 . S
N364 S363 1.613 . S
N364 C367 1.350 . S
N365 S363 1.610 . S
N365 C366 1.351 . S
C366 C360 1.428 . S
C366 N365 1.351 . S
C366 C367 1.434 . S
C367 C358 1.429 . S
C367 N364 1.350 . S
C367 C366 1.434 . S
C368 C369 1.369 1_455 S
C368 C370 1.419 . S
C368 H372 0.930 1_556 S
C369 C368 1.369 1_655 S
C369 C378 1.429 . S
C370 C368 1.419 . S
C370 C371 1.363 . S
C370 H373 0.929 . S
C371 C370 1.363 . S
C371 C377 1.428 1_455 S
H372 C368 0.930 1_554 S
H373 C370 0.929 . S
S374 N375 1.613 . S
S374 N376 1.610 . S
N375 S374 1.613 . S
N375 C378 1.350 . S
N376 S374 1.610 . S
N376 C377 1.351 . S
C377 C371 1.428 1_655 S
C377 N376 1.351 . S
C377 C378 1.434 . S
C378 C369 1.429 . S
C378 N375 1.350 . S
C378 C377 1.434 . S
C379 C380 1.369 . S
C379 C381 1.419 1_565 S
C379 H383 0.929 1_565 S
C380 C379 1.369 . S
C380 C389 1.429 1_556 S
C381 C379 1.419 1_545 S
C381 C382 1.363 . S
C381 H384 0.929 . S
C382 C381 1.363 . S
C382 C388 1.428 1_545 S
H383 C379 0.929 1_545 S
H384 C381 0.929 . S
S385 N386 1.613 . S
S385 N387 1.610 . S
N386 S385 1.613 . S
N386 C389 1.350 . S
N387 S385 1.610 . S
N387 C388 1.351 1_554 S
C388 C382 1.428 1_565 S
C388 N387 1.351 1_556 S
C388 C389 1.434 1_556 S
C389 C380 1.429 1_554 S
C389 N386 1.350 . S
C389 C388 1.434 1_554 S
C390 C391 1.369 . S
C390 C392 1.419 . S
C390 H394 0.930 . S
C391 C390 1.369 . S
C391 C400 1.429 1_556 S
C392 C390 1.419 . S
C392 C393 1.363 . S
C392 H395 0.929 . S
C393 C392 1.363 . S
C393 C399 1.428 . S
H394 C390 0.930 . S
H395 C392 0.929 . S
S396 N397 1.613 . S
S396 N398 1.610 . S
N397 S396 1.613 . S
N397 C400 1.350 . S
N398 S396 1.610 . S
N398 C399 1.351 1_554 S
C399 C393 1.428 . S
C399 N398 1.351 1_556 S
C399 C400 1.434 1_556 S
C400 C391 1.429 1_554 S
C400 N397 1.350 . S
C400 C399 1.434 1_554 S
C401 C402 1.369 . S
C401 C403 1.419 . S
C401 H405 0.930 . S
C402 C401 1.369 . S
C402 C411 1.429 . S
C403 C401 1.419 . S
C403 C404 1.363 . S
C403 H406 0.929 . S
C404 C403 1.363 . S
C404 C410 1.428 . S
H405 C401 0.930 . S
H406 C403 0.929 . S
S407 N408 1.613 . S
S407 N409 1.610 . S
N408 S407 1.613 . S
N408 C411 1.350 1_554 S
N409 S407 1.610 . S
N409 C410 1.351 1_554 S
C410 C404 1.428 . S
C410 N409 1.351 1_556 S
C410 C411 1.434 . S
C411 C402 1.429 . S
C411 N408 1.350 1_556 S
C411 C410 1.434 . S
C412 C413 1.369 . S
C412 C414 1.419 1_554 S
C412 H416 0.930 1_455 S
C413 C412 1.369 . S
C413 C422 1.429 . S
C414 C412 1.419 1_556 S
C414 C415 1.363 . S
C414 H417 0.929 1_455 S
C415 C414 1.363 . S
C415 C421 1.428 . S
H416 C412 0.930 1_655 S
H417 C414 0.929 1_655 S
S418 N419 1.613 . S
S418 N420 1.610 1_554 S
N419 S418 1.613 . S
N419 C422 1.350 . S
N420 S418 1.610 1_556 S
N420 C421 1.351 . S
C421 C415 1.428 . S
C421 N420 1.351 . S
C421 C422 1.434 1_556 S
C422 C413 1.429 . S
C422 N419 1.350 . S
C422 C421 1.434 1_554 S
C423 C424 1.369 . S
C423 C425 1.419 1_554 S
C423 H427 0.930 . S
C424 C423 1.369 . S
C424 C433 1.429 . S
C425 C423 1.419 1_556 S
C425 C426 1.363 . S
C425 H428 0.923 1_545 S
C426 C425 1.363 . S
C426 C432 1.428 1_556 S
H427 C423 0.930 . S
H428 C425 0.923 1_565 S
S429 N430 1.613 . S
S429 N431 1.610 . S
N430 S429 1.613 . S
N430 C433 1.350 . S
N431 S429 1.610 . S
N431 C432 1.351 . S
C432 C426 1.428 1_554 S
C432 N431 1.351 . S
C432 C433 1.434 . S
C433 C424 1.429 . S
C433 N430 1.350 . S
C433 C432 1.434 . S
C434 C435 1.369 1_556 S
C434 C436 1.419 . S
C434 H438 0.930 . S
C435 C434 1.369 1_554 S
C435 C444 1.429 . S
C436 C434 1.419 . S
C436 C437 1.363 . S
C436 H439 0.929 . S
C437 C436 1.363 . S
C437 C443 1.428 1_556 S
H438 C434 0.930 . S
H439 C436 0.929 . S
S440 N441 1.613 . S
S440 N442 1.610 . S
N441 S440 1.613 . S
N441 C444 1.350 . S
N442 S440 1.610 . S
N442 C443 1.351 . S
C443 C437 1.428 1_554 S
C443 N442 1.351 . S
C443 C444 1.434 . S
C444 C435 1.429 . S
C444 N441 1.350 . S
C444 C443 1.434 . S
C445 C446 1.369 1_556 S
C445 C447 1.419 . S
C445 H449 0.930 . S
C446 C445 1.369 1_554 S
C446 C455 1.429 . S
C447 C445 1.419 . S
C447 C448 1.363 . S
C447 H450 0.929 . S
C448 C447 1.363 . S
C448 C454 1.428 1_556 S
H449 C445 0.930 . S
H450 C447 0.929 . S
S451 N452 1.613 . S
S451 N453 1.610 . S
N452 S451 1.613 . S
N452 C455 1.350 . S
N453 S451 1.610 . S
N453 C454 1.351 . S
C454 C448 1.428 1_554 S
C454 N453 1.351 . S
C454 C455 1.434 . S
C455 C446 1.429 . S
C455 N452 1.350 . S
C455 C454 1.434 . S
C456 C457 1.369 . S
C456 C458 1.419 . S
C456 H460 0.930 . S
C457 C456 1.369 . S
C457 C466 1.429 . S
C458 C456 1.419 . S
C458 C459 1.363 . S
C458 H461 0.929 . S
C459 C458 1.363 . S
C459 C465 1.428 . S
H460 C456 0.930 . S
H461 C458 0.929 . S
S462 N463 1.613 . S
S462 N464 1.610 . S
N463 S462 1.613 . S
N463 C466 1.350 1_455 S
N464 S462 1.610 . S
N464 C465 1.351 1_455 S
C465 C459 1.428 . S
C465 N464 1.351 1_655 S
C465 C466 1.434 . S
C466 C457 1.429 . S
C466 N463 1.350 1_655 S
C466 C465 1.434 . S
C467 C468 1.369 1_545 S
C467 C469 1.419 . S
C467 H471 0.930 . S
C468 C467 1.369 1_565 S
C468 C477 1.429 . S
C469 C467 1.419 . S
C469 C470 1.363 1_545 S
C469 H472 0.929 . S
C470 C469 1.363 1_565 S
C470 C476 1.428 . S
H471 C467 0.930 . S
H472 C469 0.929 . S
S473 N474 1.613 . S
S473 N475 1.610 . S
N474 S473 1.613 . S
N474 C477 1.350 . S
N475 S473 1.610 . S
N475 C476 1.351 . S
C476 C470 1.428 . S
C476 N475 1.351 . S
C476 C477 1.434 . S
C477 C468 1.429 . S
C477 N474 1.350 . S
C477 C476 1.434 . S
C478 C479 1.369 . S
C478 C480 1.419 . S
C478 H482 0.930 . S
C479 C478 1.369 . S
C479 C488 1.429 . S
C480 C478 1.419 . S
C480 C481 1.363 . S
C480 H483 0.929 . S
C481 C480 1.363 . S
C481 C487 1.428 . S
H482 C478 0.930 . S
H483 C480 0.929 . S
S484 N485 1.613 . S
S484 N486 1.610 . S
N485 S484 1.613 . S
N485 C488 1.350 . S
N486 S484 1.610 . S
N486 C487 1.351 . S
C487 C481 1.428 . S
C487 N486 1.351 . S
C487 C488 1.434 . S
C488 C479 1.429 . S
C488 N485 1.350 . S
C488 C487 1.434 . S
C489 C490 1.369 . S
C489 C491 1.419 . S
C489 H493 0.930 . S
C490 C489 1.369 . S
C490 C499 1.429 . S
C491 C489 1.419 . S
C491 C492 1.363 . S
C491 H494 0.929 . S
C492 C491 1.363 . S
C492 C498 1.428 . S
H493 C489 0.930 . S
H494 C491 0.929 . S
S495 N496 1.613 . S
S495 N497 1.610 . S
N496 S495 1.613 . S
N496 C499 1.350 . S
N497 S495 1.610 . S
N497 C498 1.351 . S
C498 C492 1.428 . S
C498 N497 1.351 . S
C498 C499 1.434 . S
C499 C490 1.429 . S
C499 N496 1.350 . S
C499 C498 1.434 . S
C237 C125 1.548 . S
C239 C168 1.484 . S
C250 C186 1.493 . S
C248 C144 1.557 . S
C261 C207 1.485 . S
C259 C87 1.549 . S
C272 C231 1.511 . S
C270 C106 1.555 . S
C283 C165 1.398 1_565 S
C281 C49 1.516 . S
C292 C68 1.519 . S
C294 C189 1.387 . S
C303 C11 1.520 . S
C305 C210 1.387 . S
C314 C30 1.513 . S
C316 C228 1.396 1_655 S
C327 C170 0.967 . S
C325 C97 0.943 . S
C338 C188 0.966 . S
C336 C116 0.944 . S
C349 C209 0.969 . S
C347 C135 0.940 . S
C358 C78 0.928 . S
C360 C233 0.977 . S
C369 C21 1.023 . S
C371 C169 1.058 . S
C382 C187 1.064 . S
C380 C40 1.011 . S
C393 C208 1.065 . S
C391 C59 1.005 . S
C402 C2 1.012 . S
C404 C232 1.064 . S
C413 C101 1.592 . S
C415 C166 1.555 . S
C424 C120 1.590 . S
C426 C190 1.555 . S
C437 C211 1.551 . S
C435 C139 1.586 . S
C448 C229 1.551 . S
C446 C82 1.586 . S
C457 C25 1.474 . S
C459 C167 1.425 1_655 S
C470 C191 1.420 1_565 S
C468 C44 1.478 . S
C481 C212 1.432 . S
C479 C63 1.473 . S
C490 C6 1.483 . S
C492 C230 1.425 . S
