# Generated by pormake.
# Topology pyr, (3,6)-cn, num edge types: 1
# Building blocks:
#     Node 0, Type 0, BuildingBlock: ESEHIV_clean_linker_0, # of connection points: 3
#     Node 1, Type 0, BuildingBlock: ESEHIV_clean_linker_0, # of connection points: 3
#     Node 2, Type 0, BuildingBlock: ESEHIV_clean_linker_0, # of connection points: 3
#     Node 3, Type 0, BuildingBlock: ESEHIV_clean_linker_0, # of connection points: 3
#     Node 4, Type 0, BuildingBlock: ESEHIV_clean_linker_0, # of connection points: 3
#     Node 5, Type 0, BuildingBlock: ESEHIV_clean_linker_0, # of connection points: 3
#     Node 6, Type 0, BuildingBlock: ESEHIV_clean_linker_0, # of connection points: 3
#     Node 7, Type 0, BuildingBlock: ESEHIV_clean_linker_0, # of connection points: 3
#     Node 8, Type 1, BuildingBlock: MIDCAF_clean_sbu_0, # of connection points: 6
#     Node 9, Type 1, BuildingBlock: MIDCAF_clean_sbu_0, # of connection points: 6
#     Node 10, Type 1, BuildingBlock: MIDCAF_clean_sbu_0, # of connection points: 6
#     Node 11, Type 1, BuildingBlock: MIDCAF_clean_sbu_0, # of connection points: 6
#     Edge 12, Type (0, 1), BuildingBlock: AJUNOK_clean_linker_0, # of connection points: 2
#     Edge 13, Type (0, 1), BuildingBlock: AJUNOK_clean_linker_0, # of connection points: 2
#     Edge 14, Type (0, 1), BuildingBlock: AJUNOK_clean_linker_0, # of connection points: 2
#     Edge 15, Type (0, 1), BuildingBlock: AJUNOK_clean_linker_0, # of connection points: 2
#     Edge 16, Type (0, 1), BuildingBlock: AJUNOK_clean_linker_0, # of connection points: 2
#     Edge 17, Type (0, 1), BuildingBlock: AJUNOK_clean_linker_0, # of connection points: 2
#     Edge 18, Type (0, 1), BuildingBlock: AJUNOK_clean_linker_0, # of connection points: 2
#     Edge 19, Type (0, 1), BuildingBlock: AJUNOK_clean_linker_0, # of connection points: 2
#     Edge 20, Type (0, 1), BuildingBlock: AJUNOK_clean_linker_0, # of connection points: 2
#     Edge 21, Type (0, 1), BuildingBlock: AJUNOK_clean_linker_0, # of connection points: 2
#     Edge 22, Type (0, 1), BuildingBlock: AJUNOK_clean_linker_0, # of connection points: 2
#     Edge 23, Type (0, 1), BuildingBlock: AJUNOK_clean_linker_0, # of connection points: 2
#     Edge 24, Type (0, 1), BuildingBlock: AJUNOK_clean_linker_0, # of connection points: 2
#     Edge 25, Type (0, 1), BuildingBlock: AJUNOK_clean_linker_0, # of connection points: 2
#     Edge 26, Type (0, 1), BuildingBlock: AJUNOK_clean_linker_0, # of connection points: 2
#     Edge 27, Type (0, 1), BuildingBlock: AJUNOK_clean_linker_0, # of connection points: 2
#     Edge 28, Type (0, 1), BuildingBlock: AJUNOK_clean_linker_0, # of connection points: 2
#     Edge 29, Type (0, 1), BuildingBlock: AJUNOK_clean_linker_0, # of connection points: 2
#     Edge 30, Type (0, 1), BuildingBlock: AJUNOK_clean_linker_0, # of connection points: 2
#     Edge 31, Type (0, 1), BuildingBlock: AJUNOK_clean_linker_0, # of connection points: 2
#     Edge 32, Type (0, 1), BuildingBlock: AJUNOK_clean_linker_0, # of connection points: 2
#     Edge 33, Type (0, 1), BuildingBlock: AJUNOK_clean_linker_0, # of connection points: 2
#     Edge 34, Type (0, 1), BuildingBlock: AJUNOK_clean_linker_0, # of connection points: 2
#     Edge 35, Type (0, 1), BuildingBlock: AJUNOK_clean_linker_0, # of connection points: 2
# Relax obj value: 0.019
# Max RMSD: 0.063
# Mean RMSD: 0.024
data_MOF--net-pry--node1-MIDCAF_clean_sbu_0--node2-ESEHIV_clean_linker_0--edge1-AJUNOK_clean_linker_0
_symmetry_space_group_name_H-M    P1
_symmetry_Int_Tables_number       1
_symmetry_cell_setting            triclinic
loop_
_symmetry_equiv_pos_as_xyz
'x, y, z'
_cell_length_a     24.137062
_cell_length_b     24.052914
_cell_length_c     24.078355
_cell_angle_alpha  90.055313
_cell_angle_beta   89.952036
_cell_angle_gamma 90.129612
loop_
_atom_site_label
_atom_site_type_symbol
_atom_site_fract_x
_atom_site_fract_y
_atom_site_fract_z
_atom_type_partial_charge
H0 H 0.15722 0.29013 0.28743 0.0
H1 H 0.27719 0.15829 0.28954 0.0
H2 H 0.29027 0.28874 0.16874 0.0
C3 C 0.19428 0.27115 0.27084 0.0
C4 C 0.22035 0.295 0.22413 0.0
C5 C 0.21414 0.22172 0.2949 0.0
C6 C 0.26228 0.19723 0.27268 0.0
C7 C 0.29022 0.22114 0.22731 0.0
C8 C 0.2694 0.27056 0.20409 0.0
H9 H 0.2464 0.88458 0.78524 0.0
H10 H 0.37864 0.76634 0.77861 0.0
H11 H 0.24268 0.75286 0.66411 0.0
C12 C 0.26372 0.84691 0.76767 0.0
C13 C 0.23728 0.82088 0.72259 0.0
C14 C 0.31483 0.82773 0.78762 0.0
C15 C 0.33788 0.77926 0.76497 0.0
C16 C 0.3112 0.75081 0.7212 0.0
C17 C 0.26119 0.77236 0.70012 0.0
H18 H 0.79118 0.26171 0.8851 0.0
H19 H 0.80055 0.37259 0.74616 0.0
H20 H 0.65132 0.27913 0.77847 0.0
C21 C 0.77261 0.28002 0.84862 0.0
C22 C 0.72006 0.26169 0.83151 0.0
C23 C 0.80011 0.32339 0.82054 0.0
C24 C 0.77685 0.34354 0.77091 0.0
C25 C 0.72238 0.32918 0.75484 0.0
C26 C 0.69431 0.28859 0.78652 0.0
H27 H 0.74508 0.78879 0.37914 0.0
H28 H 0.87664 0.78804 0.25923 0.0
H29 H 0.75412 0.65791 0.25808 0.0
C30 C 0.76491 0.77021 0.34341 0.0
C31 C 0.74257 0.7213 0.32022 0.0
C32 C 0.81422 0.79376 0.32295 0.0
C33 C 0.83949 0.76941 0.27614 0.0
C34 C 0.81883 0.71991 0.25261 0.0
C35 C 0.76997 0.69658 0.27487 0.0
H36 H 0.88707 0.00585 0.87293 0.0
H37 H 1.00112 0.87064 0.89553 0.0
H38 H 0.8657 0.89268 0.00972 0.0
C39 C 0.90087 0.97006 0.89648 0.0
C40 C 0.87093 0.95318 0.94348 0.0
C41 C 0.94783 0.94034 0.87894 0.0
C42 C 0.96521 0.8939 0.90934 0.0
C43 C 0.93586 0.87668 0.9568 0.0
C44 C 0.88883 0.90643 0.97362 0.0
H45 H 0.53085 0.17019 0.38521 0.0
H46 H 0.64341 0.0326 0.36966 0.0
H47 H 0.66656 0.15316 0.49969 0.0
C48 C 0.5665 0.14731 0.40016 0.0
C49 C 0.59659 0.16724 0.44604 0.0
C50 C 0.58263 0.09848 0.37288 0.0
C51 C 0.62977 0.06967 0.39135 0.0
C52 C 0.66007 0.08907 0.43706 0.0
C53 C 0.6431 0.13777 0.46448 0.0
H54 H 0.36723 0.65118 0.03638 0.0
H55 H 0.3928 0.53699 0.17129 0.0
H56 H 0.50083 0.67845 0.15114 0.0
C57 C 0.39113 0.63762 0.07199 0.0
C58 C 0.43619 0.66961 0.08983 0.0
C59 C 0.37578 0.58921 0.10079 0.0
C60 C 0.4056 0.57349 0.14814 0.0
C61 C 0.45101 0.60543 0.16647 0.0
C62 C 0.46631 0.65328 0.1369 0.0
H63 H 0.02899 0.37477 0.65563 0.0
H64 H 0.16483 0.3926 0.54095 0.0
H65 H 0.14419 0.5103 0.67387 0.0
C66 C 0.06499 0.3975 0.64097 0.0
C67 C 0.08221 0.44544 0.66934 0.0
C68 C 0.09457 0.37827 0.59438 0.0
C69 C 0.14168 0.40748 0.57659 0.0
C70 C 0.15978 0.45511 0.60523 0.0
C71 C 0.12986 0.47392 0.65138 0.0
Zn72 Zn 0.94457 0.08921 0.59149 0.0
Zn73 Zn 0.0685 0.96709 0.46654 0.0
Zn74 Zn 0.00404 0.03138 0.53198 0.0
C75 C 0.10102 0.0782 0.45069 0.0
C76 C 0.95831 0.95057 0.4337 0.0
O77 O 0.01473 0.00426 0.62036 0.0
O78 O 0.97183 0.07122 0.66571 0.0
C79 C 0.00671 0.16593 0.53781 0.0
O80 O 0.0605 0.08671 0.48456 0.0
O81 O 0.11503 0.02934 0.43767 0.0
O82 O 0.00702 0.93798 0.41935 0.0
O83 O 0.94977 0.9839 0.4748 0.0
O84 O 0.96211 0.16397 0.56493 0.0
O85 O 0.03039 0.1203 0.52267 0.0
O86 O 0.91577 0.021 0.50529 0.0
O87 O 0.87044 0.06176 0.57353 0.0
C88 C 0.86968 0.03501 0.52855 0.0
O89 O 0.05108 0.97366 0.5859 0.0
O90 O 0.09748 0.91943 0.52778 0.0
C91 C 0.99988 0.02714 0.66651 0.0
C92 C 0.08427 0.93273 0.57677 0.0
Zn93 Zn 0.46555 0.08669 0.97044 0.0
Zn94 Zn 0.58088 0.95428 0.08415 0.0
Zn95 Zn 0.52379 0.01546 0.02785 0.0
C96 C 0.65866 0.00973 0.02788 0.0
C97 C 0.51813 0.88167 0.02717 0.0
O98 O 0.47669 0.07023 0.08605 0.0
O99 O 0.42801 0.12635 0.03213 0.0
C100 C 0.57474 0.10604 0.9412 0.0
O101 O 0.61347 0.02501 1.00359 0.0
O102 O 0.65599 0.98161 0.07186 0.0
O103 O 0.56405 0.88174 0.05191 0.0
O104 O 0.49458 0.9282 0.01482 0.0
O105 O 0.52692 0.12473 0.93174 0.0
O106 O 0.58168 0.06511 0.97508 0.0
O107 O 0.46766 0.96366 0.97429 0.0
O108 O 0.42523 0.02971 0.92714 0.0
C109 C 0.43393 0.97866 0.93554 0.0
O110 O 0.51236 0.03685 0.11762 0.0
O111 O 0.552 0.96576 0.15913 0.0
C112 C 0.44158 0.11011 0.08 0.0
C113 C 0.52515 0.01044 0.16243 0.0
Zn114 Zn 0.5639 0.58313 0.57491 0.0
Zn115 Zn 0.44719 0.45862 0.453 0.0
Zn116 Zn 0.50658 0.5138 0.51414 0.0
C117 C 0.51099 0.38101 0.50351 0.0
C118 C 0.50213 0.51972 0.37866 0.0
O119 O 0.44944 0.56043 0.5711 0.0
O120 O 0.50392 0.61698 0.61904 0.0
C121 C 0.59931 0.47292 0.60113 0.0
O122 O 0.53469 0.42573 0.5215 0.0
O123 O 0.46614 0.38413 0.47708 0.0
O124 O 0.47285 0.4764 0.37857 0.0
O125 O 0.51752 0.54134 0.4253 0.0
O126 O 0.60698 0.52382 0.61176 0.0
O127 O 0.56356 0.4588 0.56373 0.0
O128 O 0.55438 0.57122 0.45915 0.0
O129 O 0.59955 0.62818 0.51552 0.0
C130 C 0.58795 0.61231 0.46695 0.0
O131 O 0.41741 0.52236 0.54021 0.0
O132 O 0.37247 0.48313 0.47074 0.0
C133 C 0.4562 0.59848 0.60838 0.0
C134 C 0.37141 0.5085 0.51647 0.0
Zn135 Zn 0.08905 0.59403 0.95726 0.0
Zn136 Zn 0.96748 0.46565 0.07865 0.0
Zn137 Zn 0.03141 0.53287 0.01545 0.0
C138 C 0.07823 0.45191 0.11247 0.0
C139 C 0.95366 0.43323 0.96741 0.0
O140 O 0.00402 0.621 0.02742 0.0
O141 O 0.07248 0.66744 0.98834 0.0
C142 C 0.16532 0.53555 0.01499 0.0
O143 O 0.08662 0.48556 0.07165 0.0
O144 O 0.02955 0.43827 0.12623 0.0
O145 O 0.94092 0.4178 0.01592 0.0
O146 O 0.98554 0.47564 0.95996 0.0
O147 O 0.16324 0.56453 0.97151 0.0
O148 O 0.12002 0.52163 0.03985 0.0
O149 O 0.01984 0.50912 0.92644 0.0
O150 O 0.05908 0.57951 0.88295 0.0
C151 C 0.03211 0.53467 0.88097 0.0
O152 O 0.97437 0.58568 0.06465 0.0
O153 O 0.91883 0.52631 0.10788 0.0
C154 C 0.02732 0.6676 0.01462 0.0
C155 C 0.93307 0.57573 0.09719 0.0
C156 C 0.21204 0.16603 0.38352 0.0
C157 C 0.18291 0.19293 0.34047 0.0
C158 C 0.18475 0.13168 0.42196 0.0
C159 C 0.12707 0.12446 0.42013 0.0
H160 H 0.25668 0.16977 0.38632 0.0
H161 H 0.20915 0.10901 0.4521 0.0
S162 S 0.03043 0.18629 0.31838 0.0
N163 N 0.09202 0.20953 0.29945 0.0
N164 N 0.04109 0.14806 0.37423 0.0
C165 C 0.09686 0.15353 0.37993 0.0
C166 C 0.12463 0.18714 0.33957 0.0
C167 C 0.36464 0.84707 0.87798 0.0
C168 C 0.34805 0.86422 0.82469 0.0
C169 C 0.39356 0.88355 0.91364 0.0
C170 C 0.40692 0.93811 0.89716 0.0
H171 H 0.35403 0.80582 0.89263 0.0
H172 H 0.40399 0.8695 0.95467 0.0
S173 S 0.37929 0.99956 0.75815 0.0
N174 N 0.35152 0.93692 0.75509 0.0
N175 N 0.40578 0.00494 0.82108 0.0
C176 C 0.3925 0.95443 0.84276 0.0
C177 C 0.36316 0.91762 0.80685 0.0
C178 C 0.70715 0.41818 0.70175 0.0
C179 C 0.69323 0.36179 0.70994 0.0
C180 C 0.67824 0.45182 0.66445 0.0
C181 C 0.63205 0.43208 0.63455 0.0
H182 H 0.73944 0.438 0.7258 0.0
H183 H 0.69144 0.49474 0.66072 0.0
S184 S 0.57693 0.28806 0.63985 0.0
N185 N 0.63191 0.28657 0.68042 0.0
N186 N 0.57228 0.35274 0.61753 0.0
C187 C 0.61715 0.37604 0.64209 0.0
C188 C 0.64873 0.34045 0.67801 0.0
C189 C 0.82099 0.66177 0.16524 0.0
C190 C 0.85004 0.68994 0.20771 0.0
C191 C 0.84846 0.62713 0.12719 0.0
C192 C 0.90625 0.62091 0.1287 0.0
H193 H 0.77635 0.66501 0.1624 0.0
H194 H 0.82417 0.60383 0.0973 0.0
S195 S 0.00275 0.68554 0.2292 0.0
N196 N 0.94103 0.70807 0.24821 0.0
N197 N 0.99218 0.64644 0.17385 0.0
C198 C 0.93632 0.65095 0.16843 0.0
C199 C 0.9084 0.68471 0.20852 0.0
C200 C 0.33112 0.13359 0.18769 0.0
C201 C 0.33655 0.19087 0.19934 0.0
C202 C 0.36879 0.10608 0.15275 0.0
C203 C 0.41292 0.1349 0.12797 0.0
H204 H 0.29554 0.11052 0.20265 0.0
H205 H 0.36104 0.063 0.14197 0.0
S206 S 0.45142 0.28205 0.15171 0.0
N207 N 0.39476 0.27304 0.18921 0.0
N208 N 0.46381 0.22161 0.12155 0.0
C209 C 0.42117 0.19087 0.14201 0.0
C210 C 0.38344 0.21877 0.17824 0.0
C211 C 0.19229 0.90771 0.68609 0.0
C212 C 0.19042 0.84946 0.69359 0.0
C213 C 0.15421 0.93512 0.65185 0.0
C214 C 0.11356 0.90534 0.62278 0.0
H215 H 0.2254 0.93227 0.70402 0.0
H216 H 0.15912 0.97939 0.64499 0.0
S217 S 0.08432 0.7546 0.63391 0.0
N218 N 0.13829 0.76461 0.67491 0.0
N219 N 0.06952 0.81603 0.60717 0.0
C220 C 0.10895 0.84794 0.63187 0.0
C221 C 0.14666 0.82006 0.66809 0.0
C222 C 0.88612 0.32144 0.88028 0.0
C223 C 0.84858 0.352 0.84739 0.0
C224 C 0.923 0.34808 0.91672 0.0
C225 C 0.92548 0.4063 0.92009 0.0
H226 H 0.88513 0.27644 0.88015 0.0
H227 H 0.94818 0.32292 0.94412 0.0
S228 S 0.84194 0.50659 0.83949 0.0
N229 N 0.8195 0.44502 0.81911 0.0
N230 N 0.89169 0.49408 0.88467 0.0
C231 C 0.89228 0.43756 0.88415 0.0
C232 C 0.85329 0.41069 0.84835 0.0
C233 C 0.69772 0.63454 0.35794 0.0
C234 C 0.69523 0.69239 0.34833 0.0
C235 C 0.65942 0.60781 0.39285 0.0
C236 C 0.61789 0.63803 0.42019 0.0
H237 H 0.73151 0.61011 0.34128 0.0
H238 H 0.66478 0.56396 0.40158 0.0
S239 S 0.58672 0.78755 0.40233 0.0
N240 N 0.64145 0.77684 0.36253 0.0
N241 N 0.57234 0.72702 0.43138 0.0
C242 C 0.61257 0.69484 0.40854 0.0
C243 C 0.65046 0.72187 0.37175 0.0
C244 C 0.16435 0.38355 0.22374 0.0
C245 C 0.19304 0.3421 0.19382 0.0
C246 C 0.12993 0.42202 0.19682 0.0
C247 C 0.12456 0.42206 0.13879 0.0
H248 H 0.16651 0.38489 0.26864 0.0
H249 H 0.10565 0.45054 0.22172 0.0
S250 S 0.19259 0.32618 0.03991 0.0
N251 N 0.21389 0.30531 0.10156 0.0
N252 N 0.15265 0.38053 0.05163 0.0
C253 C 0.15589 0.38407 0.10789 0.0
C254 C 0.18942 0.34348 0.13518 0.0
C255 C 0.66052 0.176 0.83123 0.0
C256 C 0.69009 0.21638 0.86175 0.0
C257 C 0.62649 0.13683 0.85774 0.0
C258 C 0.62183 0.13552 0.91581 0.0
H259 H 0.66206 0.17595 0.78626 0.0
H260 H 0.60172 0.10894 0.83252 0.0
S261 S 0.69127 0.22962 0.01561 0.0
N262 N 0.71251 0.25139 0.95412 0.0
N263 N 0.65048 0.17577 1.00345 0.0
C264 C 0.6533 0.17317 0.94714 0.0
C265 C 0.68709 0.21403 0.92026 0.0
C266 C 0.87103 0.88198 0.32301 0.0
C267 C 0.84263 0.84039 0.35309 0.0
C268 C 0.90596 0.92032 0.34972 0.0
C269 C 0.91217 0.91999 0.40767 0.0
H270 H 0.8681 0.88358 0.27817 0.0
H271 H 0.92977 0.94922 0.32472 0.0
S272 S 0.84594 0.82296 0.50673 0.0
N273 N 0.82345 0.80261 0.44525 0.0
N274 N 0.8857 0.87757 0.49488 0.0
C275 C 0.88143 0.88161 0.43873 0.0
C276 C 0.84736 0.84119 0.41164 0.0
C277 C 0.34278 0.70219 0.63397 0.0
C278 C 0.33959 0.70355 0.69253 0.0
C279 C 0.37663 0.66365 0.60624 0.0
C280 C 0.4089 0.62553 0.63602 0.0
H281 H 0.32185 0.73334 0.60931 0.0
H282 H 0.38077 0.66654 0.56151 0.0
S283 S 0.40897 0.60507 0.78842 0.0
N284 N 0.36585 0.65734 0.77843 0.0
N285 N 0.43159 0.5871 0.72618 0.0
C286 C 0.40348 0.62382 0.69399 0.0
C287 C 0.36829 0.66225 0.72226 0.0
C288 C 0.99402 0.01236 0.82081 0.0
C289 C 0.9765 0.95706 0.82716 0.0
C290 C 0.00894 0.0331 0.76865 0.0
C291 C 0.00629 0.99945 0.72084 0.0
H292 H 0.99275 0.04071 0.8558 0.0
H293 H 0.01805 0.07709 0.765 0.0
S294 S 0.97028 0.84961 0.71685 0.0
N295 N 0.96373 0.86709 0.7829 0.0
N296 N 0.99073 0.9065 0.6843 0.0
C297 C 0.99411 0.94268 0.72751 0.0
C298 C 0.97923 0.9214 0.78091 0.0
C299 C 0.54699 0.11424 0.27652 0.0
C300 C 0.55272 0.07899 0.32282 0.0
C301 C 0.53057 0.093 0.22471 0.0
C302 C 0.51962 0.03593 0.21793 0.0
H303 H 0.55953 0.15743 0.27923 0.0
H304 H 0.53186 0.1203 0.18897 0.0
S305 S 0.51544 0.92969 0.32946 0.0
N306 N 0.53631 0.98703 0.36098 0.0
N307 N 0.50555 0.947 0.26385 0.0
C308 C 0.51881 1.00195 0.26544 0.0
C309 C 0.5356 0.02347 0.31787 0.0
C310 C 0.4993 0.53514 0.22467 0.0
C311 C 0.47982 0.58971 0.2184 0.0
C312 C 0.5142 0.51474 0.27692 0.0
C313 C 0.50963 0.54801 0.32484 0.0
H314 H 0.49947 0.50693 0.18955 0.0
H315 H 0.5246 0.47108 0.28055 0.0
S316 S 0.46812 0.69614 0.32922 0.0
N317 N 0.46318 0.67883 0.26299 0.0
N318 N 0.49026 0.63997 0.36171 0.0
C319 C 0.49563 0.60426 0.31831 0.0
C320 C 0.4807 0.62523 0.26485 0.0
C321 C 0.04978 0.42974 0.76689 0.0
C322 C 0.05314 0.46454 0.72003 0.0
C323 C 0.0357 0.45143 0.81925 0.0
C324 C 0.02479 0.50848 0.82596 0.0
H325 H 0.06258 0.38669 0.764 0.0
H326 H 0.03877 0.42456 0.85519 0.0
S327 S 0.01505 0.61345 0.71367 0.0
N328 N 0.03471 0.55595 0.68178 0.0
N329 N 0.00815 0.59675 0.77984 0.0
C330 C 0.02155 0.5419 0.77819 0.0
C331 C 0.03597 0.51995 0.72524 0.0
C332 C 0.81255 0.99801 0.01622 0.0
C333 C 0.81953 0.98241 0.96046 0.0
C334 C 0.76074 0.01436 0.03639 0.0
C335 C 0.71381 0.01523 1.00169 0.0
H336 H 0.84666 0.99434 0.04521 0.0
H337 H 0.75645 0.02186 0.08058 0.0
S338 S 0.71214 0.98684 0.85039 0.0
N339 N 0.77704 0.97589 0.8691 0.0
N340 N 0.67925 0.00624 0.90735 0.0
C341 C 0.72142 0.00545 0.94466 0.0
C342 C 0.77444 0.98887 0.92397 0.0
C343 C 0.71606 0.04439 0.51128 0.0
C344 C 0.71098 0.06036 0.4555 0.0
C345 C 0.76739 0.02891 0.53316 0.0
C346 C 0.81564 0.02961 0.50023 0.0
H347 H 0.68075 0.04714 0.53897 0.0
H348 H 0.7701 0.0208 0.57734 0.0
S349 S 0.82255 0.06103 0.34966 0.0
N350 N 0.75662 0.06948 0.36598 0.0
N351 N 0.85374 0.04171 0.40751 0.0
C352 C 0.8101 0.04035 0.44313 0.0
C353 C 0.75752 0.05566 0.42067 0.0
C354 C 0.27971 0.55393 0.11839 0.0
C355 C 0.32593 0.55808 0.08291 0.0
C356 C 0.22744 0.53876 0.0975 0.0
C357 C 0.22024 0.52766 0.04059 0.0
H358 H 0.2829 0.56718 0.16129 0.0
H359 H 0.19182 0.54148 0.12477 0.0
S360 S 0.33103 0.51951 0.9341 0.0
N361 N 0.36326 0.5399 0.99109 0.0
N362 N 0.26536 0.51142 0.95176 0.0
C363 C 0.26753 0.52491 0.00657 0.0
C364 C 0.32038 0.54037 0.02771 0.0
C365 C 0.21745 0.4997 0.53205 0.0
C366 C 0.21145 0.48327 0.5876 0.0
C367 C 0.26925 0.51489 0.51088 0.0
C368 C 0.31708 0.51348 0.54432 0.0
H369 H 0.18245 0.49763 0.50396 0.0
H370 H 0.27257 0.52348 0.46683 0.0
S371 S 0.32167 0.48094 0.69472 0.0
N372 N 0.25586 0.47304 0.67757 0.0
N373 N 0.35386 0.50042 0.63736 0.0
C374 C 0.3107 0.5023 0.60126 0.0
C375 C 0.25763 0.48723 0.62299 0.0
C376 C 0.00908 0.82153 0.0042 0.0
C377 C 0.9538 0.82603 0.98677 0.0
C378 C 0.03094 0.77034 0.02074 0.0
C379 C 0.99851 0.72159 0.01974 0.0
H380 H 0.03654 0.85715 1.00171 0.0
H381 H 0.07485 0.76809 0.02977 0.0
S382 S 0.84903 0.71311 0.98527 0.0
N383 N 0.86506 0.7793 0.97625 0.0
N384 N 0.9065 0.68253 0.00629 0.0
C385 C 0.94172 0.72663 0.00781 0.0
C386 C 0.9193 0.77905 0.9913 0.0
C387 C 0.50011 0.72744 0.0327 0.0
C388 C 0.44997 0.72229 0.06173 0.0
C389 C 0.51889 0.77955 0.0147 0.0
C390 C 0.48841 0.82818 0.02575 0.0
H391 H 0.5263 0.69142 0.02655 0.0
H392 H 0.55964 0.7824 0.99598 0.0
S393 S 0.3529 0.83561 0.09799 0.0
N394 N 0.36818 0.76869 0.0974 0.0
N395 N 0.4045 0.86719 0.06568 0.0
C396 C 0.43657 0.82289 0.05189 0.0
C397 C 0.41711 0.7697 0.06946 0.0
C398 C 0.02127 0.32031 0.54989 0.0
C399 C 0.0768 0.32644 0.56605 0.0
C400 C 1.00036 0.26855 0.53356 0.0
C401 C 0.03405 0.22081 0.53334 0.0
H402 H 0.99303 0.35515 0.55287 0.0
H403 H 0.95635 0.26504 0.52533 0.0
S404 S 0.18432 0.2165 0.5646 0.0
N405 N 0.16686 0.28214 0.57449 0.0
N406 N 0.12718 0.18436 0.54459 0.0
C407 C 0.09087 0.22742 0.54423 0.0
C408 C 0.11233 0.28041 0.56065 0.0
C409 C 0.52405 0.22633 0.48949 0.0
C410 C 0.57947 0.21976 0.47315 0.0
C411 C 0.5036 0.27837 0.50499 0.0
C412 C 0.53774 0.3259 0.50452 0.0
H413 H 0.49559 0.19147 0.48754 0.0
H414 H 0.45978 0.28207 0.51405 0.0
S415 S 0.68771 0.32944 0.47172 0.0
N416 N 0.66975 0.2637 0.46288 0.0
N417 N 0.63094 0.36211 0.49165 0.0
C418 C 0.59432 0.31915 0.49263 0.0
C419 C 0.6153 0.26585 0.47701 0.0
loop_
_geom_bond_atom_site_label_1
_geom_bond_atom_site_label_2
_geom_bond_distance
_geom_bond_site_symmetry_2
_ccdc_geom_bond_type
H0 C3 0.931 . S
H1 C6 0.928 . S
H2 C8 0.930 . S
C3 H0 0.931 . S
C3 C4 1.413 . S
C3 C5 1.360 . S
C4 C3 1.413 . S
C4 C8 1.429 . S
C5 C3 1.360 . S
C5 C6 1.372 . S
C6 H1 0.928 . S
C6 C5 1.372 . S
C6 C7 1.404 . S
C7 C6 1.404 . S
C7 C8 1.391 . S
C8 H2 0.930 . S
C8 C4 1.429 . S
C8 C7 1.391 . S
H9 C12 0.931 . S
H10 C15 0.928 . S
H11 C17 0.930 . S
C12 H9 0.931 . S
C12 C13 1.413 . S
C12 C14 1.360 . S
C13 C12 1.413 . S
C13 C17 1.429 . S
C14 C12 1.360 . S
C14 C15 1.372 . S
C15 H10 0.928 . S
C15 C14 1.372 . S
C15 C16 1.404 . S
C16 C15 1.404 . S
C16 C17 1.391 . S
C17 H11 0.930 . S
C17 C13 1.429 . S
C17 C16 1.391 . S
H18 C21 0.931 . S
H19 C24 0.928 . S
H20 C26 0.930 . S
C21 H18 0.931 . S
C21 C22 1.413 . S
C21 C23 1.360 . S
C22 C21 1.413 . S
C22 C26 1.429 . S
C23 C21 1.360 . S
C23 C24 1.372 . S
C24 H19 0.928 . S
C24 C23 1.372 . S
C24 C25 1.404 . S
C25 C24 1.404 . S
C25 C26 1.391 . S
C26 H20 0.930 . S
C26 C22 1.429 . S
C26 C25 1.391 . S
H27 C30 0.931 . S
H28 C33 0.928 . S
H29 C35 0.930 . S
C30 H27 0.931 . S
C30 C31 1.413 . S
C30 C32 1.360 . S
C31 C30 1.413 . S
C31 C35 1.429 . S
C32 C30 1.360 . S
C32 C33 1.372 . S
C33 H28 0.928 . S
C33 C32 1.372 . S
C33 C34 1.404 . S
C34 C33 1.404 . S
C34 C35 1.391 . S
C35 H29 0.930 . S
C35 C31 1.429 . S
C35 C34 1.391 . S
H36 C39 0.931 1_545 S
H37 C42 0.916 1_455 S
H38 C44 0.930 1_554 S
C39 H36 0.931 1_565 S
C39 C40 1.413 . S
C39 C41 1.360 . S
C40 C39 1.413 . S
C40 C44 1.429 . S
C41 C39 1.360 . S
C41 C42 1.372 . S
C42 H37 0.916 1_655 S
C42 C41 1.372 . S
C42 C43 1.404 . S
C43 C42 1.404 . S
C43 C44 1.391 . S
C44 H38 0.930 1_556 S
C44 C40 1.429 . S
C44 C43 1.391 . S
H45 C48 0.931 . S
H46 C51 0.928 . S
H47 C53 0.930 . S
C48 H45 0.931 . S
C48 C49 1.413 . S
C48 C50 1.360 . S
C49 C48 1.413 . S
C49 C53 1.429 . S
C50 C48 1.360 . S
C50 C51 1.372 . S
C51 H46 0.928 . S
C51 C50 1.372 . S
C51 C52 1.404 . S
C52 C51 1.404 . S
C52 C53 1.391 . S
C53 H47 0.930 . S
C53 C49 1.429 . S
C53 C52 1.391 . S
H54 C57 0.931 . S
H55 C60 0.928 . S
H56 C62 0.930 . S
C57 H54 0.931 . S
C57 C58 1.413 . S
C57 C59 1.360 . S
C58 C57 1.413 . S
C58 C62 1.429 . S
C59 C57 1.360 . S
C59 C60 1.372 . S
C60 H55 0.928 . S
C60 C59 1.372 . S
C60 C61 1.404 . S
C61 C60 1.404 . S
C61 C62 1.391 . S
C62 H56 0.930 . S
C62 C58 1.429 . S
C62 C61 1.391 . S
H63 C66 0.931 . S
H64 C69 0.928 . S
H65 C71 0.930 . S
C66 H63 0.931 . S
C66 C67 1.413 . S
C66 C68 1.360 . S
C67 C66 1.413 . S
C67 C71 1.429 . S
C68 C66 1.360 . S
C68 C69 1.372 . S
C69 H64 0.928 . S
C69 C68 1.372 . S
C69 C70 1.404 . S
C70 C69 1.404 . S
C70 C71 1.391 . S
C71 H65 0.930 . S
C71 C67 1.429 . S
C71 C70 1.391 . S
Zn72 O78 1.920 . S
Zn72 O84 1.898 . S
Zn72 O87 1.905 . S
Zn73 O81 1.905 1_565 S
Zn73 O82 1.898 . S
Zn73 O90 1.920 . S
Zn74 O77 2.080 1_455 S
Zn74 O80 2.114 . S
Zn74 O83 2.120 1_445 S
Zn74 O85 2.120 . S
Zn74 O86 2.114 1_455 S
Zn74 O89 2.080 . S
C75 O80 1.166 . S
C75 O81 1.182 . S
C76 O82 1.167 1_655 S
C76 O83 1.299 . S
O77 Zn74 2.080 1_655 S
O77 C91 1.305 . S
O78 Zn72 1.920 . S
O78 C91 1.234 . S
C79 O84 1.167 1_455 S
C79 O85 1.299 . S
O80 Zn74 2.114 . S
O80 C75 1.166 . S
O81 Zn73 1.905 1_545 S
O81 C75 1.182 . S
O82 Zn73 1.898 . S
O82 C76 1.167 1_455 S
O83 Zn74 2.120 1_665 S
O83 C76 1.299 . S
O84 Zn72 1.898 . S
O84 C79 1.167 1_655 S
O85 Zn74 2.120 . S
O85 C79 1.299 . S
O86 Zn74 2.114 1_655 S
O86 C88 1.166 . S
O87 Zn72 1.905 . S
O87 C88 1.182 . S
C88 O86 1.166 . S
C88 O87 1.182 . S
O89 Zn74 2.080 . S
O89 C92 1.305 1_545 S
O90 Zn73 1.920 . S
O90 C92 1.234 . S
C91 O77 1.305 . S
C91 O78 1.234 . S
C92 O89 1.305 1_565 S
C92 O90 1.234 . S
Zn93 O99 1.920 1_556 S
Zn93 O105 1.898 . S
Zn93 O108 1.905 . S
Zn94 O102 1.905 . S
Zn94 O103 1.898 . S
Zn94 O111 1.920 . S
Zn95 O98 2.080 . S
Zn95 O101 2.114 1_545 S
Zn95 O104 2.120 1_545 S
Zn95 O106 2.120 . S
Zn95 O107 2.114 1_544 S
Zn95 O110 2.080 . S
C96 O101 1.166 . S
C96 O102 1.182 . S
C97 O103 1.167 . S
C97 O104 1.299 . S
O98 Zn95 2.080 . S
O98 C112 1.305 . S
O99 Zn93 1.920 1_554 S
O99 C112 1.234 . S
C100 O105 1.167 . S
C100 O106 1.299 1_556 S
O101 Zn95 2.114 1_565 S
O101 C96 1.166 . S
O102 Zn94 1.905 . S
O102 C96 1.182 . S
O103 Zn94 1.898 . S
O103 C97 1.167 . S
O104 Zn95 2.120 1_565 S
O104 C97 1.299 . S
O105 Zn93 1.898 . S
O105 C100 1.167 . S
O106 Zn95 2.120 . S
O106 C100 1.299 1_554 S
O107 Zn95 2.114 1_566 S
O107 C109 1.166 . S
O108 Zn93 1.905 . S
O108 C109 1.182 1_545 S
C109 O107 1.166 . S
C109 O108 1.182 1_565 S
O110 Zn95 2.080 . S
O110 C113 1.305 . S
O111 Zn94 1.920 . S
O111 C113 1.234 1_565 S
C112 O98 1.305 . S
C112 O99 1.234 . S
C113 O110 1.305 . S
C113 O111 1.234 1_545 S
Zn114 O120 1.920 . S
Zn114 O126 1.898 . S
Zn114 O129 1.905 . S
Zn115 O123 1.905 . S
Zn115 O124 1.898 . S
Zn115 O132 1.920 . S
Zn116 O119 2.080 . S
Zn116 O122 2.114 . S
Zn116 O125 2.120 . S
Zn116 O127 2.120 . S
Zn116 O128 2.114 . S
Zn116 O131 2.080 . S
C117 O122 1.166 . S
C117 O123 1.182 . S
C118 O124 1.167 . S
C118 O125 1.299 . S
O119 Zn116 2.080 . S
O119 C133 1.305 . S
O120 Zn114 1.920 . S
O120 C133 1.234 . S
C121 O126 1.167 . S
C121 O127 1.299 . S
O122 Zn116 2.114 . S
O122 C117 1.166 . S
O123 Zn115 1.905 . S
O123 C117 1.182 . S
O124 Zn115 1.898 . S
O124 C118 1.167 . S
O125 Zn116 2.120 . S
O125 C118 1.299 . S
O126 Zn114 1.898 . S
O126 C121 1.167 . S
O127 Zn116 2.120 . S
O127 C121 1.299 . S
O128 Zn116 2.114 . S
O128 C130 1.166 . S
O129 Zn114 1.905 . S
O129 C130 1.182 . S
C130 O128 1.166 . S
C130 O129 1.182 . S
O131 Zn116 2.080 . S
O131 C134 1.305 . S
O132 Zn115 1.920 . S
O132 C134 1.234 . S
C133 O119 1.305 . S
C133 O120 1.234 . S
C134 O131 1.305 . S
C134 O132 1.234 . S
Zn135 O141 1.920 . S
Zn135 O147 1.898 . S
Zn135 O150 1.905 . S
Zn136 O144 1.905 1_655 S
Zn136 O145 1.898 . S
Zn136 O153 1.920 . S
Zn137 O140 2.080 1_554 S
Zn137 O143 2.114 . S
Zn137 O146 2.120 1_454 S
Zn137 O148 2.120 . S
Zn137 O149 2.114 1_554 S
Zn137 O152 2.080 . S
C138 O143 1.166 . S
C138 O144 1.182 . S
C139 O145 1.167 1_556 S
C139 O146 1.299 . S
O140 Zn137 2.080 1_556 S
O140 C154 1.305 . S
O141 Zn135 1.920 . S
O141 C154 1.234 . S
C142 O147 1.167 1_554 S
C142 O148 1.299 . S
O143 Zn137 2.114 . S
O143 C138 1.166 . S
O144 Zn136 1.905 1_455 S
O144 C138 1.182 . S
O145 Zn136 1.898 . S
O145 C139 1.167 1_554 S
O146 Zn137 2.120 1_656 S
O146 C139 1.299 . S
O147 Zn135 1.898 . S
O147 C142 1.167 1_556 S
O148 Zn137 2.120 . S
O148 C142 1.299 . S
O149 Zn137 2.114 1_556 S
O149 C151 1.166 . S
O150 Zn135 1.905 . S
O150 C151 1.182 . S
C151 O149 1.166 . S
C151 O150 1.182 . S
O152 Zn137 2.080 . S
O152 C155 1.305 1_455 S
O153 Zn136 1.920 . S
O153 C155 1.234 . S
C154 O140 1.305 . S
C154 O141 1.234 . S
C155 O152 1.305 1_655 S
C155 O153 1.234 . S
C156 C157 1.369 . S
C156 C158 1.419 . S
C156 H160 0.930 . S
C157 C156 1.369 . S
C157 C166 1.429 . S
C158 C156 1.419 . S
C158 C159 1.363 . S
C158 H161 0.929 . S
C159 C158 1.363 . S
C159 C165 1.428 . S
H160 C156 0.930 . S
H161 C158 0.929 . S
S162 N163 1.613 . S
S162 N164 1.610 . S
N163 S162 1.613 . S
N163 C166 1.350 . S
N164 S162 1.610 . S
N164 C165 1.351 . S
C165 C159 1.428 . S
C165 N164 1.351 . S
C165 C166 1.434 . S
C166 C157 1.429 . S
C166 N163 1.350 . S
C166 C165 1.434 . S
C167 C168 1.369 . S
C167 C169 1.419 . S
C167 H171 0.930 . S
C168 C167 1.369 . S
C168 C177 1.429 . S
C169 C167 1.419 . S
C169 C170 1.363 . S
C169 H172 0.929 . S
C170 C169 1.363 . S
C170 C176 1.428 . S
H171 C167 0.930 . S
H172 C169 0.929 . S
S173 N174 1.613 1_545 S
S173 N175 1.610 . S
N174 S173 1.613 1_565 S
N174 C177 1.350 . S
N175 S173 1.610 . S
N175 C176 1.351 1_545 S
C176 C170 1.428 . S
C176 N175 1.351 1_565 S
C176 C177 1.434 . S
C177 C168 1.429 . S
C177 N174 1.350 . S
C177 C176 1.434 . S
C178 C179 1.369 . S
C178 C180 1.419 . S
C178 H182 0.930 . S
C179 C178 1.369 . S
C179 C188 1.429 . S
C180 C178 1.419 . S
C180 C181 1.363 . S
C180 H183 0.929 . S
C181 C180 1.363 . S
C181 C187 1.428 . S
H182 C178 0.930 . S
H183 C180 0.929 . S
S184 N185 1.613 . S
S184 N186 1.610 . S
N185 S184 1.613 . S
N185 C188 1.350 . S
N186 S184 1.610 . S
N186 C187 1.351 . S
C187 C181 1.428 . S
C187 N186 1.351 . S
C187 C188 1.434 . S
C188 C179 1.429 . S
C188 N185 1.350 . S
C188 C187 1.434 . S
C189 C190 1.369 . S
C189 C191 1.419 . S
C189 H193 0.930 . S
C190 C189 1.369 . S
C190 C199 1.429 . S
C191 C189 1.419 . S
C191 C192 1.363 . S
C191 H194 0.929 . S
C192 C191 1.363 . S
C192 C198 1.428 . S
H193 C189 0.930 . S
H194 C191 0.929 . S
S195 N196 1.613 1_455 S
S195 N197 1.610 . S
N196 S195 1.613 1_655 S
N196 C199 1.350 . S
N197 S195 1.610 . S
N197 C198 1.351 1_455 S
C198 C192 1.428 . S
C198 N197 1.351 1_655 S
C198 C199 1.434 . S
C199 C190 1.429 . S
C199 N196 1.350 . S
C199 C198 1.434 . S
C200 C201 1.369 . S
C200 C202 1.419 . S
C200 H204 0.930 . S
C201 C200 1.369 . S
C201 C210 1.429 . S
C202 C200 1.419 . S
C202 C203 1.363 . S
C202 H205 0.929 . S
C203 C202 1.363 . S
C203 C209 1.428 . S
H204 C200 0.930 . S
H205 C202 0.929 . S
S206 N207 1.613 . S
S206 N208 1.610 . S
N207 S206 1.613 . S
N207 C210 1.350 . S
N208 S206 1.610 . S
N208 C209 1.351 . S
C209 C203 1.428 . S
C209 N208 1.351 . S
C209 C210 1.434 . S
C210 C201 1.429 . S
C210 N207 1.350 . S
C210 C209 1.434 . S
C211 C212 1.369 . S
C211 C213 1.419 . S
C211 H215 0.930 . S
C212 C211 1.369 . S
C212 C221 1.429 . S
C213 C211 1.419 . S
C213 C214 1.363 . S
C213 H216 0.929 . S
C214 C213 1.363 . S
C214 C220 1.428 . S
H215 C211 0.930 . S
H216 C213 0.929 . S
S217 N218 1.613 . S
S217 N219 1.610 . S
N218 S217 1.613 . S
N218 C221 1.350 . S
N219 S217 1.610 . S
N219 C220 1.351 . S
C220 C214 1.428 . S
C220 N219 1.351 . S
C220 C221 1.434 . S
C221 C212 1.429 . S
C221 N218 1.350 . S
C221 C220 1.434 . S
C222 C223 1.369 . S
C222 C224 1.419 . S
C222 H226 0.930 . S
C223 C222 1.369 . S
C223 C232 1.429 . S
C224 C222 1.419 . S
C224 C225 1.363 . S
C224 H227 0.929 . S
C225 C224 1.363 . S
C225 C231 1.428 . S
H226 C222 0.930 . S
H227 C224 0.929 . S
S228 N229 1.613 . S
S228 N230 1.610 . S
N229 S228 1.613 . S
N229 C232 1.350 . S
N230 S228 1.610 . S
N230 C231 1.351 . S
C231 C225 1.428 . S
C231 N230 1.351 . S
C231 C232 1.434 . S
C232 C223 1.429 . S
C232 N229 1.350 . S
C232 C231 1.434 . S
C233 C234 1.369 . S
C233 C235 1.419 . S
C233 H237 0.930 . S
C234 C233 1.369 . S
C234 C243 1.429 . S
C235 C233 1.419 . S
C235 C236 1.363 . S
C235 H238 0.929 . S
C236 C235 1.363 . S
C236 C242 1.428 . S
H237 C233 0.930 . S
H238 C235 0.929 . S
S239 N240 1.613 . S
S239 N241 1.610 . S
N240 S239 1.613 . S
N240 C243 1.350 . S
N241 S239 1.610 . S
N241 C242 1.351 . S
C242 C236 1.428 . S
C242 N241 1.351 . S
C242 C243 1.434 . S
C243 C234 1.429 . S
C243 N240 1.350 . S
C243 C242 1.434 . S
C244 C245 1.369 . S
C244 C246 1.419 . S
C244 H248 0.930 . S
C245 C244 1.369 . S
C245 C254 1.429 . S
C246 C244 1.419 . S
C246 C247 1.363 . S
C246 H249 0.929 . S
C247 C246 1.363 . S
C247 C253 1.428 . S
H248 C244 0.930 . S
H249 C246 0.929 . S
S250 N251 1.613 1_655 S
S250 N252 1.610 1_655 S
N251 S250 1.613 1_455 S
N251 C254 1.350 . S
N252 S250 1.610 1_455 S
N252 C253 1.351 . S
C253 C247 1.428 . S
C253 N252 1.351 . S
C253 C254 1.434 . S
C254 C245 1.429 . S
C254 N251 1.350 . S
C254 C253 1.434 . S
C255 C256 1.369 . S
C255 C257 1.419 . S
C255 H259 0.930 . S
C256 C255 1.369 . S
C256 C265 1.429 . S
C257 C255 1.419 . S
C257 C258 1.363 . S
C257 H260 0.929 . S
C258 C257 1.363 . S
C258 C264 1.428 . S
H259 C255 0.930 . S
H260 C257 0.929 . S
S261 N262 1.613 1_554 S
S261 N263 1.610 . S
N262 S261 1.613 1_556 S
N262 C265 1.350 . S
N263 S261 1.610 . S
N263 C264 1.351 1_554 S
C264 C258 1.428 . S
C264 N263 1.351 1_556 S
C264 C265 1.434 . S
C265 C256 1.429 . S
C265 N262 1.350 . S
C265 C264 1.434 . S
C266 C267 1.369 . S
C266 C268 1.419 . S
C266 H270 0.930 . S
C267 C266 1.369 . S
C267 C276 1.429 . S
C268 C266 1.419 . S
C268 C269 1.363 . S
C268 H271 0.929 . S
C269 C268 1.363 . S
C269 C275 1.428 . S
H270 C266 0.930 . S
H271 C268 0.929 . S
S272 N273 1.613 . S
S272 N274 1.610 . S
N273 S272 1.613 . S
N273 C276 1.350 . S
N274 S272 1.610 . S
N274 C275 1.351 . S
C275 C269 1.428 . S
C275 N274 1.351 . S
C275 C276 1.434 . S
C276 C267 1.429 . S
C276 N273 1.350 . S
C276 C275 1.434 . S
C277 C278 1.369 . S
C277 C279 1.419 . S
C277 H281 0.930 . S
C278 C277 1.369 . S
C278 C287 1.429 . S
C279 C277 1.419 . S
C279 C280 1.363 . S
C279 H282 0.929 . S
C280 C279 1.363 . S
C280 C286 1.428 . S
H281 C277 0.930 . S
H282 C279 0.929 . S
S283 N284 1.613 . S
S283 N285 1.610 . S
N284 S283 1.613 . S
N284 C287 1.350 . S
N285 S283 1.610 . S
N285 C286 1.351 . S
C286 C280 1.428 . S
C286 N285 1.351 . S
C286 C287 1.434 . S
C287 C278 1.429 . S
C287 N284 1.350 . S
C287 C286 1.434 . S
C288 C289 1.369 1_545 S
C288 C290 1.419 . S
C288 H292 0.930 . S
C289 C288 1.369 1_565 S
C289 C298 1.429 . S
C290 C288 1.419 . S
C290 C291 1.352 1_545 S
C290 H293 0.936 . S
C291 C290 1.352 1_565 S
C291 C297 1.443 . S
H292 C288 0.930 . S
H293 C290 0.936 . S
S294 N295 1.613 . S
S294 N296 1.610 . S
N295 S294 1.613 . S
N295 C298 1.350 . S
N296 S294 1.610 . S
N296 C297 1.351 . S
C297 C291 1.443 . S
C297 N296 1.351 . S
C297 C298 1.434 . S
C298 C289 1.429 . S
C298 N295 1.350 . S
C298 C297 1.434 . S
C299 C300 1.369 . S
C299 C301 1.419 . S
C299 H303 0.930 . S
C300 C299 1.369 . S
C300 C309 1.429 . S
C301 C299 1.419 . S
C301 C302 1.363 . S
C301 H304 0.929 . S
C302 C301 1.363 . S
C302 C308 1.428 . S
H303 C299 0.930 . S
H304 C301 0.929 . S
S305 N306 1.613 . S
S305 N307 1.610 . S
N306 S305 1.613 . S
N306 C309 1.350 1_565 S
N307 S305 1.610 . S
N307 C308 1.351 1_565 S
C308 C302 1.428 . S
C308 N307 1.351 1_545 S
C308 C309 1.434 . S
C309 C300 1.429 . S
C309 N306 1.350 1_545 S
C309 C308 1.434 . S
C310 C311 1.369 . S
C310 C312 1.419 . S
C310 H314 0.930 . S
C311 C310 1.369 . S
C311 C320 1.429 . S
C312 C310 1.419 . S
C312 C313 1.363 . S
C312 H315 0.929 . S
C313 C312 1.363 . S
C313 C319 1.428 . S
H314 C310 0.930 . S
H315 C312 0.929 . S
S316 N317 1.613 . S
S316 N318 1.610 . S
N317 S316 1.613 . S
N317 C320 1.350 . S
N318 S316 1.610 . S
N318 C319 1.351 . S
C319 C313 1.428 . S
C319 N318 1.351 . S
C319 C320 1.434 . S
C320 C311 1.429 . S
C320 N317 1.350 . S
C320 C319 1.434 . S
C321 C322 1.369 . S
C321 C323 1.419 . S
C321 H325 0.930 . S
C322 C321 1.369 . S
C322 C331 1.429 . S
C323 C321 1.419 . S
C323 C324 1.363 . S
C323 H326 0.929 . S
C324 C323 1.363 . S
C324 C330 1.428 . S
H325 C321 0.930 . S
H326 C323 0.929 . S
S327 N328 1.613 . S
S327 N329 1.610 . S
N328 S327 1.613 . S
N328 C331 1.350 1_655 S
N329 S327 1.610 . S
N329 C330 1.351 1_655 S
C330 C324 1.428 . S
C330 N329 1.351 1_455 S
C330 C331 1.434 . S
C331 C322 1.429 . S
C331 N328 1.350 1_455 S
C331 C330 1.434 . S
C332 C333 1.369 1_554 S
C332 C334 1.419 . S
C332 H336 0.930 . S
C333 C332 1.369 1_556 S
C333 C342 1.429 . S
C334 C332 1.419 . S
C334 C335 1.363 1_554 S
C334 H337 0.929 . S
C335 C334 1.363 1_556 S
C335 C341 1.428 . S
H336 C332 0.930 . S
H337 C334 0.929 . S
S338 N339 1.613 . S
S338 N340 1.610 . S
N339 S338 1.613 . S
N339 C342 1.350 . S
N340 S338 1.610 . S
N340 C341 1.351 . S
C341 C335 1.428 . S
C341 N340 1.351 . S
C341 C342 1.434 . S
C342 C333 1.429 . S
C342 N339 1.350 . S
C342 C341 1.434 . S
C343 C344 1.369 . S
C343 C345 1.419 . S
C343 H347 0.930 . S
C344 C343 1.369 . S
C344 C353 1.429 . S
C345 C343 1.419 . S
C345 C346 1.363 . S
C345 H348 0.929 . S
C346 C345 1.363 . S
C346 C352 1.428 . S
H347 C343 0.930 . S
H348 C345 0.929 . S
S349 N350 1.613 . S
S349 N351 1.610 . S
N350 S349 1.613 . S
N350 C353 1.350 . S
N351 S349 1.610 . S
N351 C352 1.351 . S
C352 C346 1.428 . S
C352 N351 1.351 . S
C352 C353 1.434 . S
C353 C344 1.429 . S
C353 N350 1.350 . S
C353 C352 1.434 . S
C354 C355 1.369 . S
C354 C356 1.419 . S
C354 H358 0.930 . S
C355 C354 1.369 . S
C355 C364 1.429 . S
C356 C354 1.419 . S
C356 C357 1.363 . S
C356 H359 0.929 . S
C357 C356 1.363 . S
C357 C363 1.417 1_554 S
H358 C354 0.930 . S
H359 C356 0.929 . S
S360 N361 1.613 . S
S360 N362 1.610 . S
N361 S360 1.613 . S
N361 C364 1.350 1_556 S
N362 S360 1.610 . S
N362 C363 1.366 . S
C363 C357 1.417 1_556 S
C363 N362 1.366 . S
C363 C364 1.431 1_556 S
C364 C355 1.429 . S
C364 N361 1.350 1_554 S
C364 C363 1.431 1_554 S
C365 C366 1.369 . S
C365 C367 1.419 . S
C365 H369 0.930 . S
C366 C365 1.369 . S
C366 C375 1.429 . S
C367 C365 1.419 . S
C367 C368 1.363 . S
C367 H370 0.929 . S
C368 C367 1.363 . S
C368 C374 1.428 . S
H369 C365 0.930 . S
H370 C367 0.929 . S
S371 N372 1.613 . S
S371 N373 1.610 . S
N372 S371 1.613 . S
N372 C375 1.350 . S
N373 S371 1.610 . S
N373 C374 1.351 . S
C374 C368 1.428 . S
C374 N373 1.351 . S
C374 C375 1.434 . S
C375 C366 1.429 . S
C375 N372 1.350 . S
C375 C374 1.434 . S
C376 C377 1.369 1_554 S
C376 C378 1.419 . S
C376 H380 0.930 . S
C377 C376 1.369 1_556 S
C377 C386 1.429 . S
C378 C376 1.419 . S
C378 C379 1.363 1_554 S
C378 H381 0.929 1_655 S
C379 C378 1.363 1_556 S
C379 C385 1.428 . S
H380 C376 0.930 . S
H381 C378 0.929 1_455 S
S382 N383 1.613 . S
S382 N384 1.610 . S
N383 S382 1.613 . S
N383 C386 1.350 . S
N384 S382 1.610 . S
N384 C385 1.351 . S
C385 C379 1.428 . S
C385 N384 1.351 . S
C385 C386 1.434 . S
C386 C377 1.429 . S
C386 N383 1.350 . S
C386 C385 1.434 . S
C387 C388 1.369 . S
C387 C389 1.419 . S
C387 H391 0.930 . S
C388 C387 1.369 . S
C388 C397 1.429 . S
C389 C387 1.419 . S
C389 C390 1.363 . S
C389 H392 0.929 . S
C390 C389 1.363 . S
C390 C396 1.428 . S
H391 C387 0.930 . S
H392 C389 0.929 . S
S393 N394 1.613 1_556 S
S393 N395 1.610 1_556 S
N394 S393 1.613 1_554 S
N394 C397 1.350 . S
N395 S393 1.610 1_554 S
N395 C396 1.351 . S
C396 C390 1.428 . S
C396 N395 1.351 . S
C396 C397 1.434 . S
C397 C388 1.429 . S
C397 N394 1.350 . S
C397 C396 1.434 . S
C398 C399 1.369 . S
C398 C400 1.419 1_455 S
C398 H402 0.930 1_455 S
C399 C398 1.369 . S
C399 C408 1.429 . S
C400 C398 1.419 1_655 S
C400 C401 1.363 1_655 S
C400 H403 0.929 . S
C401 C400 1.363 1_455 S
C401 C407 1.428 . S
H402 C398 0.930 1_655 S
H403 C400 0.929 . S
S404 N405 1.613 . S
S404 N406 1.610 . S
N405 S404 1.613 . S
N405 C408 1.350 . S
N406 S404 1.610 . S
N406 C407 1.351 . S
C407 C401 1.428 . S
C407 N406 1.351 . S
C407 C408 1.434 . S
C408 C399 1.429 . S
C408 N405 1.350 . S
C408 C407 1.434 . S
C409 C410 1.369 . S
C409 C411 1.419 . S
C409 H413 0.930 . S
C410 C409 1.369 . S
C410 C419 1.429 . S
C411 C409 1.419 . S
C411 C412 1.363 . S
C411 H414 0.929 . S
C412 C411 1.363 . S
C412 C418 1.428 . S
H413 C409 0.930 . S
H414 C411 0.929 . S
S415 N416 1.613 . S
S415 N417 1.610 . S
N416 S415 1.613 . S
N416 C419 1.350 . S
N417 S415 1.610 . S
N417 C418 1.351 . S
C418 C412 1.428 . S
C418 N417 1.351 . S
C418 C419 1.434 . S
C419 C410 1.429 . S
C419 N416 1.350 . S
C419 C418 1.434 . S
C157 C5 1.541 . S
C159 C75 1.435 . S
C168 C14 1.514 . S
C170 C109 1.409 . S
C181 C121 1.402 . S
C179 C25 1.496 . S
C190 C34 1.502 . S
C192 C155 1.404 . S
C203 C112 1.419 . S
C201 C7 1.517 . S
C214 C92 1.423 . S
C212 C13 1.522 . S
C225 C139 1.397 . S
C223 C23 1.495 . S
C236 C130 1.408 . S
C234 C31 1.509 . S
C245 C4 1.529 . S
C247 C138 1.423 . S
C258 C100 1.403 . S
C256 C22 1.500 . S
C267 C32 1.515 . S
C269 C76 1.406 . S
C278 C16 1.508 . S
C280 C133 1.408 . S
C291 C91 1.454 1_565 S
C289 C41 1.538 . S
C300 C50 1.555 . S
C302 C113 1.459 . S
C311 C61 1.533 . S
C313 C118 1.453 . S
C322 C67 1.562 . S
C324 C151 1.481 . S
C333 C40 1.557 . S
C335 C96 1.482 1_556 S
C346 C88 1.476 . S
C344 C52 1.556 . S
C357 C142 1.455 . S
C355 C59 1.550 . S
C368 C134 1.455 . S
C366 C70 1.528 . S
C377 C43 1.533 . S
C379 C154 1.456 1_655 S
C390 C97 1.468 . S
C388 C58 1.550 . S
C401 C79 1.448 . S
C399 C68 1.531 . S
C410 C49 1.553 . S
C412 C117 1.474 . S
