# Generated by pormake.
# Topology zzz, (3,6)-cn, num edge types: 1
# Building blocks:
#     Node 0, Type 0, BuildingBlock: MIDCAF_clean_linker_0, # of connection points: 3
#     Node 1, Type 0, BuildingBlock: MIDCAF_clean_linker_0, # of connection points: 3
#     Node 2, Type 0, BuildingBlock: MIDCAF_clean_linker_0, # of connection points: 3
#     Node 3, Type 0, BuildingBlock: MIDCAF_clean_linker_0, # of connection points: 3
#     Node 4, Type 0, BuildingBlock: MIDCAF_clean_linker_0, # of connection points: 3
#     Node 5, Type 0, BuildingBlock: MIDCAF_clean_linker_0, # of connection points: 3
#     Node 6, Type 0, BuildingBlock: MIDCAF_clean_linker_0, # of connection points: 3
#     Node 7, Type 0, BuildingBlock: MIDCAF_clean_linker_0, # of connection points: 3
#     Node 8, Type 1, BuildingBlock: KUMBUR_clean_sbu_0, # of connection points: 6
#     Node 9, Type 1, BuildingBlock: KUMBUR_clean_sbu_0, # of connection points: 6
#     Node 10, Type 1, BuildingBlock: KUMBUR_clean_sbu_0, # of connection points: 6
#     Node 11, Type 1, BuildingBlock: KUMBUR_clean_sbu_0, # of connection points: 6
#     Edge 12, Type (0, 1), BuildingBlock: KIFKEQ_clean_linker_1, # of connection points: 2
#     Edge 13, Type (0, 1), BuildingBlock: KIFKEQ_clean_linker_1, # of connection points: 2
#     Edge 14, Type (0, 1), BuildingBlock: KIFKEQ_clean_linker_1, # of connection points: 2
#     Edge 15, Type (0, 1), BuildingBlock: KIFKEQ_clean_linker_1, # of connection points: 2
#     Edge 16, Type (0, 1), BuildingBlock: KIFKEQ_clean_linker_1, # of connection points: 2
#     Edge 17, Type (0, 1), BuildingBlock: KIFKEQ_clean_linker_1, # of connection points: 2
#     Edge 18, Type (0, 1), BuildingBlock: KIFKEQ_clean_linker_1, # of connection points: 2
#     Edge 19, Type (0, 1), BuildingBlock: KIFKEQ_clean_linker_1, # of connection points: 2
#     Edge 20, Type (0, 1), BuildingBlock: KIFKEQ_clean_linker_1, # of connection points: 2
#     Edge 21, Type (0, 1), BuildingBlock: KIFKEQ_clean_linker_1, # of connection points: 2
#     Edge 22, Type (0, 1), BuildingBlock: KIFKEQ_clean_linker_1, # of connection points: 2
#     Edge 23, Type (0, 1), BuildingBlock: KIFKEQ_clean_linker_1, # of connection points: 2
#     Edge 24, Type (0, 1), BuildingBlock: KIFKEQ_clean_linker_1, # of connection points: 2
#     Edge 25, Type (0, 1), BuildingBlock: KIFKEQ_clean_linker_1, # of connection points: 2
#     Edge 26, Type (0, 1), BuildingBlock: KIFKEQ_clean_linker_1, # of connection points: 2
#     Edge 27, Type (0, 1), BuildingBlock: KIFKEQ_clean_linker_1, # of connection points: 2
#     Edge 28, Type (0, 1), BuildingBlock: KIFKEQ_clean_linker_1, # of connection points: 2
#     Edge 29, Type (0, 1), BuildingBlock: KIFKEQ_clean_linker_1, # of connection points: 2
#     Edge 30, Type (0, 1), BuildingBlock: KIFKEQ_clean_linker_1, # of connection points: 2
#     Edge 31, Type (0, 1), BuildingBlock: KIFKEQ_clean_linker_1, # of connection points: 2
#     Edge 32, Type (0, 1), BuildingBlock: KIFKEQ_clean_linker_1, # of connection points: 2
#     Edge 33, Type (0, 1), BuildingBlock: KIFKEQ_clean_linker_1, # of connection points: 2
#     Edge 34, Type (0, 1), BuildingBlock: KIFKEQ_clean_linker_1, # of connection points: 2
#     Edge 35, Type (0, 1), BuildingBlock: KIFKEQ_clean_linker_1, # of connection points: 2
# Relax obj value: 0.298
# Max RMSD: 0.227
# Mean RMSD: 0.213
data_MOF--net-zzz--node1-KUMBUR_clean_sbu_0--node2-MIDCAF_clean_linker_0--edge1-KIFKEQ_clean_linker_1
_symmetry_space_group_name_H-M    P1
_symmetry_Int_Tables_number       1
_symmetry_cell_setting            triclinic
loop_
_symmetry_equiv_pos_as_xyz
'x, y, z'
_cell_length_a     57.877557
_cell_length_b     57.858159
_cell_length_c     20.275843
_cell_angle_alpha  90.434179
_cell_angle_beta   90.166017
_cell_angle_gamma 90.012243
loop_
_atom_site_label
_atom_site_type_symbol
_atom_site_fract_x
_atom_site_fract_y
_atom_site_fract_z
_atom_type_partial_charge
C0 C 0.79602 0.53768 0.3246 0.0
C1 C 0.8173 0.52725 0.30719 0.0
C2 C 0.8204 0.521 0.24046 0.0
C3 C 0.80361 0.52606 0.19271 0.0
H4 H 0.70746 0.5184 0.10903 0.0
H5 H 0.66952 0.51141 0.05717 0.0
H6 H 0.67553 0.57609 0.95356 0.0
H7 H 0.71197 0.58338 1.00656 0.0
H8 H 0.76304 0.59002 0.94077 0.0
H9 H 0.79059 0.60539 0.86148 0.0
H10 H 0.84311 0.60723 0.0133 0.0
H11 H 0.81572 0.59233 0.09227 0.0
H12 H 0.76376 0.55223 0.29073 0.0
H13 H 0.79263 0.54255 0.3753 0.0
H14 H 0.83647 0.5134 0.22384 0.0
H15 H 0.80747 0.52234 0.14144 0.0
N16 N 0.7473 0.54468 0.13926 0.0
N17 N 0.75049 0.5705 0.05025 0.0
N18 N 0.78226 0.56426 0.1185 0.0
C19 C 0.73742 0.55561 0.08599 0.0
C20 C 0.77274 0.57502 0.0661 0.0
C21 C 0.76997 0.54928 0.15563 0.0
C22 C 0.71307 0.55144 0.06231 0.0
C23 C 0.70038 0.53128 0.07622 0.0
C24 C 0.67869 0.52717 0.04565 0.0
C25 C 0.66908 0.54316 1.00064 0.0
C26 C 0.6817 0.56344 0.98849 0.0
C27 C 0.70304 0.56753 0.01883 0.0
C28 C 0.78738 0.58928 0.02243 0.0
C29 C 0.78028 0.59437 0.95771 0.0
C30 C 0.79605 0.6032 0.91219 0.0
C31 C 0.81916 0.60721 0.93064 0.0
C32 C 0.82546 0.6045 0.99719 0.0
C33 C 0.80977 0.5956 0.0425 0.0
C34 C 0.78298 0.5375 0.20944 0.0
C35 C 0.77912 0.5428 0.27632 0.0
C36 C 0.97085 0.8153 0.31601 0.0
C37 C 0.99218 0.82707 0.31393 0.0
C38 C 0.0091 0.81831 0.27006 0.0
C39 C 1.00429 0.79949 0.2272 0.0
H40 H 0.97667 0.70012 0.14867 0.0
H41 H 0.98211 0.66307 0.09056 0.0
H42 H 0.99858 0.69991 0.91226 0.0
H43 H 0.9924 0.73642 0.96976 0.0
H44 H 0.92939 0.75992 0.95972 0.0
H45 H 0.91261 0.78416 0.8744 0.0
H46 H 0.9185 0.84355 1.00411 0.0
H47 H 0.93419 0.81935 0.0896 0.0
H48 H 0.94885 0.78929 0.27325 0.0
H49 H 0.95744 0.82084 0.3497 0.0
H50 H 0.0257 0.82678 0.26592 0.0
H51 H 0.01708 0.79445 0.19095 0.0
N52 N 0.98341 0.75415 0.14866 0.0
N53 N 0.95865 0.75438 0.05592 0.0
N54 N 0.95748 0.78498 0.1314 0.0
C55 C 0.97523 0.74362 0.09197 0.0
C56 C 0.9496 0.77491 0.07524 0.0
C57 C 0.97422 0.77505 0.16852 0.0
C58 C 0.98441 0.72134 0.06429 0.0
C59 C 0.98214 0.70022 0.09764 0.0
C60 C 0.9851 0.67891 0.06383 0.0
C61 C 0.99038 0.67812 0.99565 0.0
C62 C 0.99386 0.69942 0.96384 0.0
C63 C 0.99074 0.72053 0.99731 0.0
C64 C 0.93397 0.78784 0.03068 0.0
C65 C 0.92644 0.77803 0.97069 0.0
C66 C 0.91681 0.79195 0.92168 0.0
C67 C 0.91486 0.81599 0.93134 0.0
C68 C 0.91971 0.82516 0.99436 0.0
C69 C 0.92905 0.81123 0.04353 0.0
C70 C 0.98244 0.7888 0.22694 0.0
C71 C 0.96603 0.79673 0.27296 0.0
C72 C 0.70818 0.96954 0.34088 0.0
C73 C 0.696 0.99047 0.33388 0.0
C74 C 0.70361 1.0059 0.28474 0.0
C75 C 0.72152 0.99973 0.24091 0.0
H76 H 0.81247 0.98606 0.15668 0.0
H77 H 0.84993 0.99166 0.10062 0.0
H78 H 0.82183 0.96045 0.92398 0.0
H79 H 0.78532 0.95502 0.97807 0.0
H80 H 0.74989 0.91184 0.99615 0.0
H81 H 0.72402 0.89824 0.90926 0.0
H82 H 0.66614 0.92802 0.01469 0.0
H83 H 0.69161 0.93996 0.10233 0.0
H84 H 0.73356 0.94636 0.30085 0.0
H85 H 0.70334 0.95734 0.37865 0.0
H86 H 0.69469 0.0221 0.27708 0.0
H87 H 0.72544 0.01107 0.20018 0.0
N88 N 0.76491 0.97395 0.16206 0.0
N89 N 0.75963 0.94776 0.07377 0.0
N90 N 0.73079 0.95172 0.1528 0.0
C91 C 0.77308 0.96368 0.10518 0.0
C92 C 0.73862 0.9417 0.09679 0.0
C93 C 0.7436 0.96759 0.18615 0.0
C94 C 0.79571 0.9697 0.07286 0.0
C95 C 0.8143 0.98059 0.10578 0.0
C96 C 0.8358 0.98377 0.07356 0.0
C97 C 0.83919 0.97601 0.00794 0.0
C98 C 0.82029 0.96603 0.9749 0.0
C99 C 0.7991 0.96299 1.00644 0.0
C100 C 0.72289 0.9277 0.05493 0.0
C101 C 0.7315 0.91472 1.00156 0.0
C102 C 0.71662 0.90705 0.95149 0.0
C103 C 0.69299 0.91287 0.95286 0.0
C104 C 0.68413 0.92317 0.01075 0.0
C105 C 0.6989 0.93032 0.06138 0.0
C106 C 0.73245 0.97809 0.24533 0.0
C107 C 0.72596 0.96341 0.29709 0.0
C108 C 0.61552 0.68836 0.0602 0.0
C109 C 0.61337 0.68961 0.99119 0.0
C110 C 0.60827 0.71113 0.96272 0.0
C111 C 0.60233 0.73002 1.00242 0.0
H112 H 0.58838 0.79785 0.00907 0.0
H113 H 0.58118 0.83353 0.95312 0.0
H114 H 0.52876 0.85131 0.09578 0.0
H115 H 0.53568 0.81443 0.15257 0.0
H116 H 0.51772 0.74114 0.22393 0.0
H117 H 0.50377 0.71291 0.30444 0.0
H118 H 0.57221 0.70946 0.38944 0.0
H119 H 0.58569 0.73769 0.31016 0.0
H120 H 0.60914 0.705 0.15293 0.0
H121 H 0.62007 0.67222 0.08368 0.0
H122 H 0.60645 0.71285 0.90983 0.0
H123 H 0.5965 0.74569 0.97867 0.0
N124 N 0.58239 0.76549 0.08618 0.0
N125 N 0.55739 0.7729 0.17532 0.0
N126 N 0.5784 0.73804 0.16869 0.0
C127 C 0.56749 0.78 0.11762 0.0
C128 C 0.5632 0.7518 0.20118 0.0
C129 C 0.58797 0.74462 0.11114 0.0
C130 C 0.56263 0.80292 0.08605 0.0
C131 C 0.57525 0.80914 0.02943 0.0
C132 C 0.57129 0.82997 0.99714 0.0
C133 C 0.55459 0.84568 0.01998 0.0
C134 C 0.54176 0.83964 0.07652 0.0
C135 C 0.54579 0.81853 0.10936 0.0
C136 C 0.55269 0.74201 0.26157 0.0
C137 C 0.52941 0.73514 0.26196 0.0
C138 C 0.52158 0.71857 0.30734 0.0
C139 C 0.53688 0.70851 0.35337 0.0
C140 C 0.55974 0.71681 0.35569 0.0
C141 C 0.56752 0.73319 0.3103 0.0
C142 C 0.60115 0.72766 0.07124 0.0
C143 C 0.60925 0.70715 0.09991 0.0
C144 C 0.19754 0.49991 0.99914 0.0
C145 C 0.20096 0.49449 0.93198 0.0
C146 C 0.22241 0.48449 0.91422 0.0
C147 C 0.23921 0.47902 0.96247 0.0
H148 H 0.31004 0.50306 0.1325 0.0
H149 H 0.34744 0.51053 0.1875 0.0
H150 H 0.34404 0.44355 0.27886 0.0
H151 H 0.30751 0.43606 0.22464 0.0
H152 H 0.25545 0.43124 0.29813 0.0
H153 H 0.22786 0.41653 0.37833 0.0
H154 H 0.17522 0.41412 0.22688 0.0
H155 H 0.20266 0.42835 0.14704 0.0
H156 H 0.21015 0.49762 0.0983 0.0
H157 H 0.18134 0.50715 0.01597 0.0
H158 H 0.22601 0.48025 0.8632 0.0
H159 H 0.25475 0.46998 0.94764 0.0
N160 N 0.27096 0.47598 0.09854 0.0
N161 N 0.26802 0.45006 0.18741 0.0
N162 N 0.23599 0.45658 0.12035 0.0
C163 C 0.28101 0.4649 0.1513 0.0
C164 C 0.24567 0.44571 0.17232 0.0
C165 C 0.24821 0.47153 0.08289 0.0
C166 C 0.3054 0.46907 0.17443 0.0
C167 C 0.31751 0.48981 0.16335 0.0
C168 C 0.33893 0.49411 0.19517 0.0
C169 C 0.34861 0.47784 0.23905 0.0
C170 C 0.33696 0.45677 0.24711 0.0
C171 C 0.3159 0.45246 0.2154 0.0
C172 C 0.23106 0.43164 0.21658 0.0
C173 C 0.23818 0.42688 0.28149 0.0
C174 C 0.22237 0.41844 0.32754 0.0
C175 C 0.19922 0.4145 0.30944 0.0
C176 C 0.1929 0.41682 0.24276 0.0
C177 C 0.20862 0.42533 0.19693 0.0
C178 C 0.23504 0.48349 0.02967 0.0
C179 C 0.21421 0.49448 0.04686 0.0
C180 C 0.00737 0.20689 0.96388 0.0
C181 C 0.02461 0.19711 0.92295 0.0
C182 C 0.04652 0.20773 0.92349 0.0
C183 C 0.05145 0.22634 0.96637 0.0
H184 H 0.02018 0.28913 0.2592 0.0
H185 H 0.01477 0.32574 0.31696 0.0
H186 H 0.03855 0.36221 0.145 0.0
H187 H 0.04352 0.32509 0.08662 0.0
H188 H 0.08859 0.26619 0.27284 0.0
H189 H 0.10163 0.24393 0.36733 0.0
H190 H 0.08353 0.18079 0.26353 0.0
H191 H 0.072 0.20284 0.16895 0.0
H192 H 0.99904 0.23179 0.03998 0.0
H193 H 0.9902 0.19946 0.96471 0.0
H194 H 0.06039 0.20076 0.89367 0.0
H195 H 0.069 0.23283 0.96871 0.0
N196 N 0.03348 0.27074 0.085 0.0
N197 N 0.05637 0.27045 0.18145 0.0
N198 N 0.05775 0.23907 0.10865 0.0
C199 C 0.04097 0.28147 0.14215 0.0
C200 C 0.0649 0.24941 0.16524 0.0
C201 C 0.04226 0.24935 0.06799 0.0
C202 C 0.03187 0.30406 0.16767 0.0
C203 C 0.02358 0.30499 0.23287 0.0
C204 C 0.02089 0.32611 0.26657 0.0
C205 C 0.02666 0.34724 0.23675 0.0
C206 C 0.03381 0.34645 0.17003 0.0
C207 C 0.03646 0.32513 0.13603 0.0
C208 C 0.07855 0.23631 0.21422 0.0
C209 C 0.08812 0.2475 0.26968 0.0
C210 C 0.0955 0.2347 0.32406 0.0
C211 C 0.0929 0.2105 0.32463 0.0
C212 C 0.08591 0.19932 0.26585 0.0
C213 C 0.079 0.21208 0.21118 0.0
C214 C 0.03457 0.23542 0.00932 0.0
C215 C 0.01227 0.22579 1.00628 0.0
C216 C 0.31436 0.04928 0.90602 0.0
C217 C 0.32749 0.02923 0.91812 0.0
C218 C 0.32038 0.01485 0.97032 0.0
C219 C 0.30194 0.02123 0.01195 0.0
H220 H 0.21655 0.02326 0.11155 0.0
H221 H 0.17964 0.01604 0.16841 0.0
H222 H 0.19159 0.076 0.29189 0.0
H223 H 0.22704 0.08351 0.23537 0.0
H224 H 0.27183 0.10747 0.25382 0.0
H225 H 0.29929 0.12372 0.33271 0.0
H226 H 0.35535 0.10603 0.2011 0.0
H227 H 0.32809 0.09099 0.1218 0.0
H228 H 0.28779 0.07224 0.94037 0.0
H229 H 0.31924 0.06101 0.86713 0.0
H230 H 0.32971 0.99908 0.9809 0.0
H231 H 0.2983 0.01078 0.0548 0.0
N232 N 0.25702 0.04755 0.08333 0.0
N233 N 0.2614 0.07578 0.16683 0.0
N234 N 0.29072 0.07044 0.08998 0.0
C235 C 0.24827 0.0591 0.13748 0.0
C236 C 0.2825 0.08156 0.14378 0.0
C237 C 0.27838 0.05363 0.05918 0.0
C238 C 0.2251 0.05401 0.16813 0.0
C239 C 0.21111 0.03499 0.15037 0.0
C240 C 0.18998 0.03077 0.18344 0.0
C241 C 0.18223 0.04556 0.23478 0.0
C242 C 0.19633 0.06445 0.25191 0.0
C243 C 0.21712 0.06862 0.21931 0.0
C244 C 0.29783 0.09707 0.1826 0.0
C245 C 0.28997 0.10774 0.24091 0.0
C246 C 0.30575 0.11704 0.28627 0.0
C247 C 0.32967 0.11548 0.27464 0.0
C248 C 0.33715 0.10757 0.21245 0.0
C249 C 0.32141 0.09858 0.16685 0.0
C250 C 0.29 0.0421 1.00242 0.0
C251 C 0.29606 0.05565 0.94776 0.0
C252 C 0.41998 0.32775 0.24422 0.0
C253 C 0.41473 0.319 0.30712 0.0
C254 C 0.41246 0.29487 0.3138 0.0
C255 C 0.41824 0.27998 0.26159 0.0
H256 H 0.4249 0.20552 0.14829 0.0
H257 H 0.43079 0.16903 0.20485 0.0
H258 H 0.50431 0.18218 0.21089 0.0
H259 H 0.4982 0.21834 0.15097 0.0
H260 H 0.50401 0.28009 0.01441 0.0
H261 H 0.51584 0.30895 0.93258 0.0
H262 H 0.44425 0.31959 0.88032 0.0
H263 H 0.43277 0.29097 0.96117 0.0
H264 H 0.43077 0.32054 0.14593 0.0
H265 H 0.4221 0.34608 0.236 0.0
H266 H 0.40764 0.28736 0.36051 0.0
H267 H 0.41794 0.26152 0.26994 0.0
N268 N 0.44276 0.2517 0.16571 0.0
N269 N 0.46514 0.24865 0.06888 0.0
N270 N 0.44581 0.28328 0.0954 0.0
C271 C 0.45633 0.23887 0.12491 0.0
C272 C 0.45941 0.27098 0.05365 0.0
C273 C 0.43758 0.27396 0.1517 0.0
C274 C 0.4611 0.21464 0.14444 0.0
C275 C 0.4424 0.20022 0.15993 0.0
C276 C 0.44579 0.17943 0.19352 0.0
C277 C 0.46801 0.17264 0.2143 0.0
C278 C 0.48693 0.18658 0.19564 0.0
C279 C 0.48351 0.20732 0.16091 0.0
C280 C 0.46749 0.28296 0.99335 0.0
C281 C 0.49098 0.288 0.9835 0.0
C282 C 0.49767 0.30483 0.93736 0.0
C283 C 0.48102 0.31683 0.89975 0.0
C284 C 0.45766 0.31066 0.90736 0.0
C285 C 0.45103 0.29414 0.95372 0.0
C286 C 0.42597 0.28893 0.20123 0.0
C287 C 0.42533 0.31294 0.192 0.0
Tb288 Tb 0.03444 1.00512 0.68078 0.0
C289 C 0.94709 0.98394 0.52578 0.0
C290 C 0.95905 0.96106 0.43183 0.0
C291 C 0.92154 0.95425 0.48142 0.0
C292 C 0.96358 0.97836 0.47967 0.0
C293 C 0.92552 0.97258 0.52581 0.0
C294 C 0.93833 0.94846 0.43451 0.0
C295 C 0.9125 1.00013 0.60762 0.0
N296 N 0.95154 1.00182 0.56726 0.0
C297 C 0.93418 0.0108 0.60571 0.0
C298 C 0.90831 0.98061 0.56852 0.0
Tb299 Tb 0.98851 0.01645 0.56643 0.0
N300 N 0.98327 0.99114 0.47855 0.0
C301 C 0.99761 0.98932 0.42501 0.0
C302 C 0.97505 0.95755 0.38134 0.0
C303 C 0.99411 0.97216 0.377 0.0
H304 H 0.93738 0.02565 0.63703 0.0
H305 H 0.00598 0.97044 0.33612 0.0
H306 H 0.93476 0.93483 0.39896 0.0
H307 H 0.89914 0.00686 0.63967 0.0
H308 H 0.01168 1.00107 0.41725 0.0
H309 H 0.01976 0.05883 0.89722 0.0
H310 H 0.97231 0.94437 0.34387 0.0
H311 H 0.0834 0.9933 0.60192 0.0
H312 H 0.01072 0.02839 0.81727 0.0
H313 H 0.12269 0.00952 0.59397 0.0
H314 H 0.90524 0.94504 0.48136 0.0
H315 H 0.05654 0.08036 0.88963 0.0
H316 H 0.09497 0.08539 0.8342 0.0
H317 H 0.8915 0.97238 0.57002 0.0
H318 H 0.12311 0.07194 0.75148 0.0
N319 N 0.04162 0.03255 0.7614 0.0
C320 C 0.02683 0.03735 0.81226 0.0
C321 C 0.05265 0.06688 0.85391 0.0
C322 C 0.06841 0.06097 0.80452 0.0
C323 C 0.03192 0.05474 0.85838 0.0
C324 C 0.06241 0.04336 0.75907 0.0
H325 H 0.13373 0.0434 0.66231 0.0
N326 N 0.07196 0.01806 0.67315 0.0
C327 C 0.11032 0.01716 0.62761 0.0
C328 C 0.07815 0.03585 0.71312 0.0
C329 C 0.08805 0.00795 0.63255 0.0
C330 C 0.11645 0.03632 0.66605 0.0
C331 C 0.10044 0.04566 0.71039 0.0
O332 O 0.05735 0.9784 0.70496 0.0
O333 O 0.01032 0.99058 0.60926 0.0
O334 O 0.97468 0.99531 0.64751 0.0
O335 O 1.00063 1.0031 0.73246 0.0
O336 O 0.04279 0.97746 0.60872 0.0
O337 O 0.02803 0.98592 0.76671 0.0
O338 O 0.96356 0.0393 0.52848 0.0
O339 O 0.01167 0.03099 0.64044 0.0
O340 O 0.04753 0.0268 0.6006 0.0
O341 O 0.02271 0.01554 0.51645 0.0
O342 O 0.97808 0.0411 0.64428 0.0
O343 O 0.9993 0.04376 0.50548 0.0
C344 C 0.02278 0.97531 0.58222 0.0
C345 C 0.03653 0.94656 0.74216 0.0
C346 C 0.00601 0.91803 0.72402 0.0
C347 C 0.01297 0.94047 0.74198 0.0
C348 C 0.02289 0.90169 0.70598 0.0
C349 C 0.05309 0.92983 0.72524 0.0
C350 C 0.04626 0.90757 0.70696 0.0
C351 C 0.97997 0.99624 0.71114 0.0
C352 C 0.04389 0.9708 0.75116 0.0
C353 C 0.10617 0.06399 0.75321 0.0
C354 C 0.09016 0.07164 0.80027 0.0
C355 C 0.99804 0.04459 0.67021 0.0
C356 C 0.97847 0.07727 0.53647 0.0
C357 C 0.99821 0.0914 0.53454 0.0
C358 C 0.99905 0.11241 0.56992 0.0
C359 C 0.97979 0.11918 0.60748 0.0
C360 C 0.95914 0.08481 0.57274 0.0
C361 C 0.95993 0.10554 0.60832 0.0
C362 C 0.04309 0.0234 0.53723 0.0
C363 C 0.97914 0.05363 0.50776 0.0
H364 H 0.99998 0.95317 0.75476 0.0
H365 H 0.0181 0.88413 0.69307 0.0
H366 H 0.07129 0.93418 0.72439 0.0
H367 H 0.05913 0.89482 0.69348 0.0
H368 H 0.01295 0.08599 0.5054 0.0
H369 H 0.98005 0.13507 0.63604 0.0
H370 H 0.94367 0.07434 0.57554 0.0
H371 H 0.94516 0.11093 0.63721 0.0
Tb372 Tb 0.51641 0.03519 0.67933 0.0
C373 C 0.53891 0.94358 0.54023 0.0
C374 C 0.56359 0.9531 0.44857 0.0
C375 C 0.56778 0.91599 0.50264 0.0
C376 C 0.54586 0.95903 0.49324 0.0
C377 C 0.54938 0.92164 0.54482 0.0
C378 C 0.57489 0.93172 0.45453 0.0
C379 C 0.52149 0.91196 0.6285 0.0
N380 N 0.5211 0.94974 0.57972 0.0
C381 C 0.51166 0.9339 0.62183 0.0
C382 C 0.54066 0.9059 0.59048 0.0
Tb383 Tb 0.50712 0.98675 0.56934 0.0
N384 N 0.53453 0.9795 0.48952 0.0
C385 C 0.53902 0.99407 0.43824 0.0
C386 C 0.56907 0.9686 0.39846 0.0
C387 C 0.55647 0.98902 0.39272 0.0
H388 H 0.49706 0.9385 0.65226 0.0
H389 H 0.56027 1.00099 0.35346 0.0
H390 H 0.58875 0.92698 0.42126 0.0
H391 H 0.51436 0.89979 0.66325 0.0
H392 H 0.5298 0.01003 0.43262 0.0
H393 H 0.46889 0.01952 0.90562 0.0
H394 H 0.58263 0.96477 0.36331 0.0
H395 H 0.5239 0.08476 0.60023 0.0
H396 H 0.49961 0.01301 0.8257 0.0
H397 H 0.50455 0.12262 0.5923 0.0
H398 H 0.57623 0.89933 0.50579 0.0
H399 H 0.44281 0.05309 0.89433 0.0
H400 H 0.43306 0.08989 0.83535 0.0
H401 H 0.54824 0.88889 0.59567 0.0
H402 H 0.44301 0.11832 0.7502 0.0
N403 N 0.49026 0.0412 0.7637 0.0
C404 C 0.48813 0.02721 0.81752 0.0
C405 C 0.45616 0.05007 0.85792 0.0
C406 C 0.4597 0.06553 0.80634 0.0
C407 C 0.47081 0.03111 0.86433 0.0
C408 C 0.47724 0.06066 0.76005 0.0
H409 H 0.47012 0.13099 0.66054 0.0
N410 N 0.50064 0.07162 0.67222 0.0
C411 C 0.49814 0.10978 0.6262 0.0
C412 C 0.48268 0.07651 0.71252 0.0
C413 C 0.50914 0.08833 0.63115 0.0
C414 C 0.47866 0.11439 0.66453 0.0
C415 C 0.47094 0.09783 0.7093 0.0
O416 O 0.54056 0.06086 0.70471 0.0
O417 O 0.53157 0.01124 0.60903 0.0
O418 O 0.52986 0.97569 0.64976 0.0
O419 O 0.5186 1.00154 0.73198 0.0
O420 O 0.54169 0.04472 0.60286 0.0
O421 O 0.54046 0.02843 0.75516 0.0
O422 O 0.47953 0.96412 0.54987 0.0
O423 O 0.49202 0.01111 0.63854 0.0
O424 O 0.49369 0.0462 0.5983 0.0
O425 O 0.50379 0.01999 0.5159 0.0
O426 O 0.48037 0.97807 0.64267 0.0
O427 O 0.48856 0.99069 0.48066 0.0
C428 C 0.54526 0.02445 0.57905 0.0
C429 C 0.57669 0.0432 0.7198 0.0
C430 C 0.60891 0.01692 0.69788 0.0
C431 C 0.58745 0.02161 0.72761 0.0
C432 C 0.61952 0.0342 0.66003 0.0
C433 C 0.5881 0.06045 0.68374 0.0
C434 C 0.60926 0.05586 0.6537 0.0
C435 C 0.52723 0.98124 0.71275 0.0
C436 C 0.55246 0.0468 0.741 0.0
C437 C 0.45249 0.1022 0.75247 0.0
C438 C 0.44684 0.08603 0.80093 0.0
C439 C 0.47758 0.99835 0.6672 0.0
C440 C 0.44887 0.98581 0.50703 0.0
C441 C 0.44411 0.00904 0.49211 0.0
C442 C 0.42301 0.01919 0.51036 0.0
C443 C 0.40635 1.00562 0.54237 0.0
C444 C 0.43175 0.97247 0.53772 0.0
C445 C 0.41066 0.98237 0.55532 0.0
C446 C 0.49525 0.04026 0.53524 0.0
C447 C 0.47252 0.97643 0.50023 0.0
H448 H 0.57906 0.00843 0.75669 0.0
H449 H 0.63577 0.03099 0.63527 0.0
H450 H 0.58025 0.07725 0.67664 0.0
H451 H 0.61761 0.06906 0.62467 0.0
H452 H 0.45701 0.01948 0.46792 0.0
H453 H 0.38975 0.01282 0.55601 0.0
H454 H 0.43499 0.95458 0.55012 0.0
H455 H 0.39768 0.97204 0.57968 0.0
Tb456 Tb 0.53577 0.50581 0.57801 0.0
C457 C 0.43765 0.48727 0.68729 0.0
C458 C 0.40975 0.49552 0.60162 0.0
C459 C 0.40072 0.46718 0.68549 0.0
C460 C 0.43173 0.49881 0.63055 0.0
C461 C 0.42216 0.47142 0.71586 0.0
C462 C 0.39448 0.47929 0.62859 0.0
C463 C 0.44958 0.46622 0.80438 0.0
N464 N 0.45843 0.49204 0.71543 0.0
C465 C 0.46427 0.48221 0.77453 0.0
C466 C 0.42851 0.46065 0.77469 0.0
Tb467 Tb 0.48158 0.51807 0.66128 0.0
N468 N 0.44704 0.51417 0.60569 0.0
C469 C 0.44056 0.52819 0.55466 0.0
C470 C 0.40348 0.50919 0.54789 0.0
C471 C 0.41882 0.52587 0.52504 0.0
H472 H 0.48059 0.4859 0.79799 0.0
H473 H 0.41402 0.53682 0.48419 0.0
H474 H 0.37764 0.47633 0.60662 0.0
H475 H 0.45457 0.45813 0.85022 0.0
H476 H 0.45227 0.54117 0.53623 0.0
H477 H 0.60109 0.48029 0.75442 0.0
H478 H 0.38669 0.50734 0.52465 0.0
H479 H 0.53881 0.54114 0.44982 0.0
H480 H 0.56348 0.47807 0.69798 0.0
H481 H 0.56559 0.57057 0.40713 0.0
H482 H 0.38865 0.45497 0.70644 0.0
H483 H 0.62896 0.51097 0.72554 0.0
H484 H 0.63912 0.54467 0.65355 0.0
H485 H 0.41715 0.44831 0.79805 0.0
H486 H 0.62936 0.56943 0.55919 0.0
N487 N 0.56959 0.50738 0.63737 0.0
C488 C 0.57543 0.49149 0.68426 0.0
C489 C 0.61249 0.51 0.70012 0.0
C490 C 0.6069 0.52556 0.65011 0.0
C491 C 0.59682 0.49265 0.71648 0.0
C492 C 0.58523 0.52349 0.61856 0.0
H493 H 0.60208 0.57903 0.46642 0.0
N494 N 0.55952 0.53344 0.53395 0.0
C495 C 0.56982 0.56133 0.45178 0.0
C496 C 0.57996 0.53711 0.56517 0.0
C497 C 0.55472 0.54456 0.47604 0.0
C498 C 0.59036 0.56611 0.48549 0.0
C499 C 0.59587 0.55364 0.54227 0.0
O500 O 0.54497 0.49221 0.48521 0.0
O501 O 0.49847 0.50451 0.57454 0.0
O502 O 0.48481 0.48045 0.65281 0.0
O503 O 0.52497 0.47724 0.64459 0.0
O504 O 0.51478 0.50842 0.48698 0.0
O505 O 0.55249 0.47374 0.57503 0.0
O506 O 0.47698 0.53764 0.74853 0.0
O507 O 0.51885 0.51847 0.66471 0.0
O508 O 0.53207 0.54333 0.59182 0.0
O509 O 0.49201 0.54524 0.59048 0.0
O510 O 0.50257 0.51623 0.75265 0.0
O511 O 0.46217 0.54853 0.65643 0.0
C512 C 0.49481 0.50623 0.51333 0.0
C513 C 0.54674 0.45161 0.47902 0.0
C514 C 0.52105 0.41856 0.46658 0.0
C515 C 0.52607 0.44023 0.49495 0.0
C516 C 0.53665 0.40884 0.42093 0.0
C517 C 0.56205 0.44167 0.4336 0.0
C518 C 0.55695 0.42039 0.4045 0.0
C519 C 0.50423 0.46839 0.65828 0.0
C520 C 0.55332 0.47338 0.51089 0.0
C521 C 0.61697 0.55669 0.57564 0.0
C522 C 0.62251 0.54261 0.62938 0.0
C523 C 0.52262 0.51715 0.72596 0.0
C524 C 0.47607 0.57772 0.72446 0.0
C525 C 0.49975 0.58138 0.73548 0.0
C526 C 0.50879 0.60391 0.73808 0.0
C527 C 0.49382 0.62272 0.72743 0.0
C528 C 0.46146 0.59667 0.7142 0.0
C529 C 0.47035 0.61906 0.71535 0.0
C530 C 0.51261 0.55503 0.58295 0.0
C531 C 0.46668 0.5543 0.71694 0.0
H532 H 0.51422 0.44796 0.52998 0.0
H533 H 0.53299 0.39241 0.39715 0.0
H534 H 0.57803 0.45031 0.42101 0.0
H535 H 0.56879 0.41278 0.36927 0.0
H536 H 0.51114 0.5667 0.74159 0.0
H537 H 0.50004 0.64035 0.73043 0.0
H538 H 0.44322 0.59409 0.70433 0.0
H539 H 0.45899 0.63364 0.70747 0.0
Tb540 Tb 0.01509 0.53774 0.57268 0.0
C541 C 0.03264 0.44016 0.67619 0.0
C542 C 0.01794 0.4134 0.5942 0.0
C543 C 0.04994 0.40205 0.66463 0.0
C544 C 0.01764 0.43533 0.6252 0.0
C545 C 0.04859 0.4234 0.69781 0.0
C546 C 0.0346 0.39704 0.61287 0.0
C547 C 0.05888 0.44909 0.78756 0.0
N548 N 0.0306 0.46086 0.70724 0.0
C549 C 0.04278 0.46513 0.76422 0.0
C550 C 0.06209 0.42829 0.75354 0.0
Tb551 Tb 1.00381 0.48623 0.66529 0.0
N552 N 1.0018 0.45161 0.6088 0.0
C553 C 0.9844 0.44609 0.5656 0.0
C554 C 1.00098 0.40829 0.5471 0.0
C555 C 0.98392 0.42459 0.53356 0.0
H556 H 0.04064 0.48128 0.79055 0.0
H557 H 0.97042 0.42066 0.49816 0.0
H558 H 0.03531 0.38024 0.58897 0.0
H559 H 0.06889 0.45287 0.83151 0.0
H560 H 0.97103 0.45824 0.55393 0.0
H561 H 0.0488 0.6032 0.73968 0.0
H562 H 1.00057 0.39166 0.52219 0.0
H563 H 0.97836 0.543 0.44726 0.0
H564 H 0.04812 0.56569 0.68354 0.0
H565 H 0.95017 0.5715 0.40661 0.0
H566 H 0.06225 0.38903 0.67996 0.0
H567 H 0.01857 0.63221 0.71645 0.0
H568 H 0.98377 0.64371 0.6501 0.0
H569 H 0.07455 0.41587 0.77174 0.0
H570 H 0.95677 0.63506 0.5591 0.0
N571 N 0.01723 0.57235 0.62923 0.0
C572 C 0.03471 0.57784 0.67222 0.0
C573 C 0.01814 0.61561 0.69134 0.0
C574 C 1.00113 0.61056 0.64437 0.0
C575 C 0.03524 0.59931 0.70445 0.0
C576 C 1.00138 0.58866 0.61317 0.0
H577 H 0.94449 0.60839 0.46691 0.0
N578 N 0.98839 0.56326 0.53091 0.0
C579 C 0.96016 0.57519 0.45065 0.0
C580 C 0.98635 0.58391 0.56223 0.0
C581 C 0.97623 0.5591 0.47382 0.0
C582 C 0.95693 0.59593 0.48497 0.0
C583 C 0.97041 0.60071 0.54081 0.0
O584 O 0.02461 0.54778 0.47755 0.0
O585 O 0.01645 0.50019 0.57412 0.0
O586 O 0.0414 0.48887 0.65097 0.0
O587 O 0.04484 0.52856 0.63775 0.0
O588 O 0.00783 0.51493 0.48713 0.0
O589 O 0.04948 0.54814 0.55689 0.0
O590 O 0.99436 0.47611 0.76038 0.0
O591 O 1.00242 0.52374 0.66366 0.0
O592 O 0.97744 0.535 0.58642 0.0
O593 O 0.974 0.49532 0.60049 0.0
O594 O 0.01086 0.50918 0.75089 0.0
O595 O 0.9695 0.47555 0.68098 0.0
C596 C 0.01149 0.49545 0.5148 0.0
C597 C 0.06223 0.53794 0.45004 0.0
C598 C 0.08173 0.50261 0.41569 0.0
C599 C 0.06847 0.51486 0.46205 0.0
C600 C 0.08887 0.5138 0.35776 0.0
C601 C 0.06953 0.54881 0.39225 0.0
C602 C 0.08285 0.53676 0.34636 0.0
C603 C 0.05373 0.50817 0.65432 0.0
C604 C 0.04621 0.55021 0.49357 0.0
C605 C 0.96909 0.62202 0.57425 0.0
C606 C 0.98445 0.62694 0.62601 0.0
C607 C 0.00722 0.52862 0.72296 0.0
C608 C 0.95665 0.48555 0.78785 0.0
C609 C 0.95042 0.50866 0.77635 0.0
C610 C 0.93708 0.52076 0.82284 0.0
C611 C 0.92984 0.50937 0.88037 0.0
C612 C 0.94926 0.47449 0.84525 0.0
C613 C 0.93585 0.48638 0.89125 0.0
C614 C 0.96512 0.51568 0.5835 0.0
C615 C 0.97278 0.47347 0.7443 0.0
H616 H 0.06267 0.50636 0.50648 0.0
H617 H 0.09952 0.50492 0.32178 0.0
H618 H 0.06458 0.5665 0.38214 0.0
H619 H 0.08847 0.54521 0.30173 0.0
H620 H 0.95628 0.5173 0.73222 0.0
H621 H 0.91912 0.51813 0.91643 0.0
H622 H 0.95421 0.45677 0.85497 0.0
H623 H 0.93016 0.47778 0.93558 0.0
H624 H 0.16173 1.00426 0.27229 0.0
H625 H 0.15166 0.07816 0.28213 0.0
H626 H 0.12759 0.99886 0.34186 0.0
H627 H 0.11823 0.07274 0.35263 0.0
H628 H 0.07792 0.05542 0.54272 0.0
H629 H 0.11036 0.06016 0.46686 0.0
H630 H 0.08456 1.00374 0.34723 0.0
H631 H 0.05223 0.99893 0.42356 0.0
C632 C 0.1522 0.01936 0.28846 0.0
C633 C 0.15995 0.04169 0.2719 0.0
C634 C 0.1326 0.01626 0.32873 0.0
C635 C 0.12024 0.03538 0.35403 0.0
C636 C 0.12754 0.0576 0.33563 0.0
C637 C 0.14687 0.06068 0.29501 0.0
C638 C 0.07904 0.04416 0.49989 0.0
C639 C 0.06215 0.02708 0.48871 0.0
C640 C 0.09765 0.0469 0.45617 0.0
C641 C 0.10015 0.03242 0.40036 0.0
C642 C 0.08332 0.0152 0.38955 0.0
C643 C 0.06453 0.01266 0.43287 0.0
H644 H 0.43878 0.15696 0.31128 0.0
H645 H 0.50428 0.14141 0.21942 0.0
H646 H 0.44342 0.12412 0.38333 0.0
H647 H 0.50955 0.10919 0.29456 0.0
H648 H 0.50683 0.04141 0.40361 0.0
H649 H 0.49916 0.07191 0.32457 0.0
H650 H 0.46152 0.10983 0.47419 0.0
H651 H 0.46785 0.07852 0.55112 0.0
C652 C 0.45415 0.14646 0.30577 0.0
C653 C 0.47104 0.152 0.25843 0.0
C654 C 0.45696 0.12764 0.34819 0.0
C655 C 0.47684 0.11364 0.34538 0.0
C656 C 0.49376 0.11914 0.298 0.0
C657 C 0.4909 0.13796 0.25521 0.0
C658 C 0.49671 0.05612 0.41947 0.0
C659 C 0.4886 0.05773 0.48466 0.0
C660 C 0.49251 0.07388 0.37413 0.0
C661 C 0.4801 0.09388 0.39258 0.0
C662 C 0.47112 0.0949 0.45719 0.0
C663 C 0.47508 0.077 0.5021 0.0
H664 H 0.35669 0.46906 0.3698 0.0
H665 H 0.38977 0.4973 0.19804 0.0
H666 H 0.39175 0.47503 0.43377 0.0
H667 H 0.42536 0.50269 0.26138 0.0
H668 H 0.47963 0.52996 0.40728 0.0
H669 H 0.44513 0.52334 0.34059 0.0
H670 H 0.42891 0.4635 0.45849 0.0
H671 H 0.46281 0.47137 0.52761 0.0
C672 C 0.37157 0.47639 0.34537 0.0
C673 C 0.37026 0.48261 0.27836 0.0
C674 C 0.39191 0.47972 0.38223 0.0
C675 C 0.41187 0.48926 0.35347 0.0
C676 C 0.41047 0.49564 0.28633 0.0
C677 C 0.38997 0.49251 0.24957 0.0
C678 C 0.46852 0.5155 0.41909 0.0
C679 C 0.4735 0.50168 0.47403 0.0
C680 C 0.44877 0.51147 0.38024 0.0
C681 C 0.4337 0.49292 0.39364 0.0
C682 C 0.43948 0.47835 0.44702 0.0
C683 C 0.45903 0.48274 0.48679 0.0
H684 H 0.01414 0.39124 0.19628 0.0
H685 H 0.03801 0.35447 0.36788 0.0
H686 H 0.01244 0.42688 0.26137 0.0
H687 H 0.03552 0.38983 0.43335 0.0
H688 H 0.04581 0.46218 0.52605 0.0
H689 H 0.05119 0.42746 0.45719 0.0
H690 H 0.99046 0.44554 0.34445 0.0
H691 H 0.98563 0.4802 0.41221 0.0
C692 C 0.01909 0.39065 0.24777 0.0
C693 C 0.02598 0.3696 0.2763 0.0
C694 C 0.01788 0.41118 0.28561 0.0
C695 C 0.02364 0.41152 0.35341 0.0
C696 C 0.03103 0.39057 0.38153 0.0
C697 C 0.03215 0.37005 0.34381 0.0
C698 C 0.03352 0.45852 0.48697 0.0
C699 C 0.01482 0.47357 0.47608 0.0
C700 C 0.0366 0.43861 0.44715 0.0
C701 C 0.02118 0.43329 0.39487 0.0
C702 C 1.0029 0.44887 0.38334 0.0
C703 C 0.99995 0.46873 0.42276 0.0
H704 H 0.86022 0.94324 0.93038 0.0
H705 H 0.87015 0.01257 1.00488 0.0
H706 H 0.89497 0.94665 0.86404 0.0
H707 H 0.90498 0.01622 0.9373 0.0
H708 H 0.97618 0.01078 0.84064 0.0
H709 H 0.94408 1.00503 0.9164 0.0
H710 H 0.90873 0.96442 0.76768 0.0
H711 H 0.94125 0.96952 0.69319 0.0
C712 C 0.8698 0.95932 0.93254 0.0
C713 C 0.86205 0.97773 0.97274 0.0
C714 C 0.88981 0.96132 0.894 0.0
C715 C 0.90287 0.98186 0.89389 0.0
C716 C 0.89562 1.00003 0.936 0.0
C717 C 0.87556 0.99797 0.97497 0.0
C718 C 0.96174 1.00038 0.82427 0.0
C719 C 0.96134 0.99091 0.76008 0.0
C720 C 0.94307 0.99728 0.86772 0.0
C721 C 0.92342 0.98443 0.84862 0.0
C722 C 0.92344 0.97431 0.78503 0.0
C723 C 0.94208 0.97745 0.74169 0.0
H724 H 0.5871 0.87379 0.96305 0.0
H725 H 0.51347 0.86805 0.99274 0.0
H726 H 0.58102 0.90706 0.89238 0.0
H727 H 0.50743 0.90179 0.92257 0.0
H728 H 0.50704 0.97489 0.83386 0.0
H729 H 0.5139 0.94392 0.91252 0.0
H730 H 0.56498 0.91449 0.7819 0.0
H731 H 0.55821 0.94561 0.70358 0.0
C732 C 0.56955 0.87957 0.95459 0.0
C733 C 0.55075 0.86784 0.98319 0.0
C734 C 0.56609 0.89874 0.91389 0.0
C735 C 0.54371 0.90703 0.90088 0.0
C736 C 0.52493 0.89599 0.93166 0.0
C737 C 0.5284 0.87663 0.97217 0.0
C738 C 0.52015 0.96221 0.82255 0.0
C739 C 0.53247 0.9632 0.7629 0.0
C740 C 0.52382 0.94416 0.86732 0.0
C741 C 0.54006 0.92665 0.85396 0.0
C742 C 0.55257 0.9278 0.79453 0.0
C743 C 0.54869 0.94569 0.74949 0.0
H744 H 0.63619 0.57505 0.96217 0.0
H745 H 0.65013 0.50171 0.95614 0.0
H746 H 0.6019 0.56907 0.89526 0.0
H747 H 0.61494 0.49574 0.89108 0.0
H748 H 0.53782 0.49196 0.82934 0.0
H749 H 0.57227 0.49808 0.89778 0.0
H750 H 0.58957 0.55814 0.78287 0.0
H751 H 0.55504 0.5518 0.71434 0.0
C752 C 0.63211 0.55759 0.9466 0.0
C753 C 0.64649 0.53892 0.96462 0.0
C754 C 0.61217 0.55418 0.90813 0.0
C755 C 0.60543 0.53194 0.88727 0.0
C756 C 0.61935 0.51314 0.90664 0.0
C757 C 0.63958 0.51657 0.94444 0.0
C758 C 0.54915 0.50634 0.81841 0.0
C759 C 0.54423 0.52084 0.76479 0.0
C760 C 0.56894 0.50985 0.85759 0.0
C761 C 0.58404 0.52845 0.84571 0.0
C762 C 0.57846 0.54361 0.79373 0.0
C763 C 0.55882 0.53984 0.75377 0.0
H764 H 1.00539 0.63487 0.03649 0.0
H765 H 0.97761 0.66951 0.86592 0.0
H766 H 0.00746 0.59893 0.97329 0.0
H767 H 0.98083 0.63397 0.80193 0.0
H768 H 0.97253 0.56142 0.71134 0.0
H769 H 0.96684 0.59629 0.77916 0.0
H770 H 0.02816 0.57951 0.8911 0.0
H771 H 0.03312 0.54455 0.82479 0.0
C772 C 0.99969 0.63496 0.98561 0.0
C773 C 0.99154 0.65555 0.95693 0.0
C774 C 1.00115 0.61423 0.94872 0.0
C775 C 0.99451 0.6132 0.8816 0.0
C776 C 0.98598 0.63369 0.85329 0.0
C777 C 0.98449 0.65438 0.89015 0.0
C778 C 0.98486 0.56538 0.75011 0.0
C779 C 1.00374 0.55058 0.7612 0.0
C780 C 0.98162 0.58541 0.78932 0.0
C781 C 0.99713 0.5912 0.84102 0.0
C782 C 0.01561 0.57586 0.85275 0.0
C783 C 0.01866 0.55582 0.8141 0.0
H784 H 0.10437 0.16484 0.34765 0.0
H785 H 0.08004 0.22653 0.44734 0.0
H786 H 0.08741 0.14141 0.43332 0.0
H787 H 0.06533 0.20324 0.53601 0.0
H788 H 0.99872 0.15907 0.55599 0.0
H789 H 0.03028 0.18357 0.52365 0.0
H790 H 0.07736 0.1257 0.53658 0.0
H791 H 0.04522 0.10086 0.56855 0.0
C792 C 0.09616 0.17352 0.38888 0.0
C793 C 0.09239 0.19755 0.38806 0.0
C794 C 0.08673 0.16002 0.43892 0.0
C795 C 0.07394 0.17041 0.49007 0.0
C796 C 0.07415 0.19463 0.49567 0.0
C797 C 0.08299 0.20809 0.44481 0.0
C798 C 0.01589 0.15166 0.55416 0.0
C799 C 0.01933 0.12792 0.5636 0.0
C800 C 0.03419 0.16582 0.53585 0.0
C801 C 0.0565 0.15664 0.52666 0.0
C802 C 0.06036 0.13327 0.54189 0.0
C803 C 0.04193 0.11903 0.56003 0.0
H804 H 0.37502 0.13062 0.27417 0.0
H805 H 0.32284 0.10191 0.40192 0.0
H806 H 0.4049 0.11683 0.34888 0.0
H807 H 0.35229 0.08895 0.47638 0.0
H808 H 0.40213 0.0524 0.58664 0.0
H809 H 0.38504 0.08844 0.54797 0.0
H810 H 0.41516 0.07663 0.35577 0.0
H811 H 0.43222 0.04103 0.3945 0.0
C812 C 0.36983 0.12216 0.31922 0.0
C813 C 0.3465 0.11655 0.33035 0.0
C814 C 0.38701 0.11435 0.3623 0.0
C815 C 0.38111 0.10114 0.41771 0.0
C816 C 0.35764 0.09897 0.4342 0.0
C817 C 0.34053 0.10653 0.39097 0.0
C818 C 0.40546 0.05784 0.53656 0.0
C819 C 0.41772 0.04347 0.4928 0.0
C820 C 0.39582 0.07854 0.51454 0.0
C821 C 0.39808 0.0851 0.44819 0.0
C822 C 0.41291 0.07219 0.40713 0.0
C823 C 0.42261 0.05157 0.42923 0.0
H824 H 0.42916 0.30822 0.43338 0.0
H825 H 0.40413 0.36558 0.31781 0.0
H826 H 0.44651 0.33492 0.51065 0.0
H827 H 0.42428 0.3921 0.38997 0.0
H828 H 0.47697 0.4357 0.4729 0.0
H829 H 0.44125 0.41326 0.47237 0.0
H830 H 0.48162 0.35055 0.49074 0.0
H831 H 0.51648 0.37313 0.49588 0.0
C832 C 0.42677 0.32649 0.42472 0.0
C833 C 0.41653 0.33458 0.36617 0.0
C834 C 0.43722 0.34193 0.46893 0.0
C835 C 0.43854 0.36561 0.454 0.0
C836 C 0.42453 0.37396 0.40249 0.0
C837 C 0.41325 0.35858 0.35983 0.0
C838 C 0.47793 0.4172 0.47957 0.0
C839 C 0.49945 0.40604 0.48228 0.0
C840 C 0.45749 0.40423 0.47849 0.0
C841 C 0.4583 0.37987 0.47904 0.0
C842 C 0.47985 0.36915 0.48994 0.0
C843 C 0.50011 0.3821 0.4918 0.0
H844 H 0.19644 0.43932 0.42366 0.0
H845 H 0.15976 0.38774 0.30936 0.0
H846 H 0.16122 0.4499 0.47855 0.0
H847 H 0.12401 0.39815 0.36582 0.0
H848 H 0.07979 0.46581 0.33167 0.0
H849 H 0.10441 0.43213 0.33585 0.0
H850 H 0.12551 0.45091 0.53403 0.0
H851 H 0.10124 0.48536 0.52823 0.0
C852 C 0.18107 0.4293 0.41264 0.0
C853 C 0.18075 0.41332 0.36015 0.0
C854 C 0.16063 0.43539 0.44456 0.0
C855 C 0.13943 0.4256 0.42461 0.0
C856 C 0.13989 0.40668 0.38056 0.0
C857 C 0.16038 0.40068 0.34821 0.0
C858 C 0.0892 0.46236 0.37681 0.0
C859 C 0.08957 0.47869 0.42825 0.0
C860 C 0.10316 0.44278 0.3798 0.0
C861 C 0.11783 0.43924 0.43436 0.0
C862 C 0.11508 0.45356 0.49032 0.0
C863 C 0.1011 0.47327 0.48717 0.0
H864 H 0.89317 0.8585 0.92296 0.0
H865 H 0.93392 0.80992 0.8096 0.0
H866 H 0.9045 0.88927 0.84795 0.0
H867 H 0.945 0.84007 0.73593 0.0
H868 H 0.98037 0.89207 0.63708 0.0
H869 H 0.94493 0.87116 0.66251 0.0
H870 H 0.94167 0.90642 0.85115 0.0
H871 H 0.97634 0.92766 0.82455 0.0
C872 C 0.90388 0.85418 0.88093 0.0
C873 C 0.91335 0.83189 0.87402 0.0
C874 C 0.91036 0.87183 0.83788 0.0
C875 C 0.92641 0.86743 0.78729 0.0
C876 C 0.93273 0.84436 0.77432 0.0
C877 C 0.9263 0.82681 0.81717 0.0
C878 C 0.97157 0.89583 0.68299 0.0
C879 C 0.98154 0.91081 0.7299 0.0
C880 C 0.95126 0.88389 0.6976 0.0
C881 C 0.94091 0.88634 0.76001 0.0
C882 C 0.94912 0.90383 0.80274 0.0
C883 C 0.96923 0.91599 0.78771 0.0
H884 H 0.64558 0.90838 0.93643 0.0
H885 H 0.7085 0.91927 0.82602 0.0
H886 H 0.6238 0.92744 0.85007 0.0
H887 H 0.68642 0.93616 0.73779 0.0
H888 H 0.65485 0.00982 0.71837 0.0
H889 H 0.67362 0.975 0.75457 0.0
H890 H 0.60877 0.93806 0.74243 0.0
H891 H 0.58985 0.9734 0.7045 0.0
C892 C 0.65473 0.914 0.89291 0.0
C893 C 0.67906 0.91358 0.8907 0.0
C894 C 0.64211 0.92464 0.84266 0.0
C895 C 0.65361 0.93439 0.78859 0.0
C896 C 0.67723 0.92968 0.7803 0.0
C897 C 0.68991 0.91963 0.83111 0.0
C898 C 0.64465 0.99416 0.72101 0.0
C899 C 0.62075 0.99453 0.70944 0.0
C900 C 0.65548 0.97401 0.74166 0.0
C901 C 0.64272 0.95362 0.75159 0.0
C902 C 0.61905 0.95352 0.73587 0.0
C903 C 0.6082 0.97378 0.71467 0.0
H904 H 0.5918 0.64994 0.02718 0.0
H905 H 0.62766 0.68087 0.86335 0.0
H906 H 0.57499 0.6218 0.9547 0.0
H907 H 0.61096 0.65183 0.78932 0.0
H908 H 0.53878 0.63685 0.69228 0.0
H909 H 0.57364 0.65022 0.7469 0.0
H910 H 0.56981 0.59251 0.88089 0.0
H911 H 0.53414 0.58029 0.82954 0.0
C912 C 0.59708 0.65009 0.97599 0.0
C913 C 0.61061 0.66817 0.95096 0.0
C914 C 0.58732 0.63371 0.93375 0.0
C915 C 0.59091 0.63485 0.86523 0.0
C916 C 0.60709 0.65094 0.84145 0.0
C917 C 0.61677 0.66753 0.88391 0.0
C918 C 0.54557 0.62688 0.73299 0.0
C919 C 0.53316 0.60805 0.75812 0.0
C920 C 0.56591 0.6343 0.76375 0.0
C921 C 0.57444 0.62282 0.81983 0.0
C922 C 0.56359 0.60218 0.83905 0.0
C923 C 0.54308 0.59501 0.80904 0.0
H924 H 0.8583 0.63442 0.9323 0.0
H925 H 0.82227 0.58316 0.81519 0.0
H926 H 0.8942 0.62476 0.87557 0.0
H927 H 0.85764 0.57329 0.76006 0.0
H928 H 0.91779 0.53836 0.71045 0.0
H929 H 0.89342 0.57275 0.70528 0.0
H930 H 0.91412 0.5909 0.90427 0.0
H931 H 0.93884 0.55729 0.90783 0.0
C932 C 0.85785 0.62172 0.8928 0.0
C933 C 0.83764 0.60892 0.88011 0.0
C934 C 0.87843 0.61615 0.86029 0.0
C935 C 0.87913 0.59747 0.81538 0.0
C936 C 0.85806 0.58759 0.79476 0.0
C937 C 0.83752 0.59327 0.82681 0.0
C938 C 0.91782 0.55031 0.75185 0.0
C939 C 0.92925 0.54471 0.8108 0.0
C940 C 0.90379 0.56998 0.74906 0.0
C941 C 0.90087 0.58407 0.80543 0.0
C942 C 0.91548 0.58041 0.86004 0.0
C943 C 0.9295 0.56087 0.86266 0.0
H944 H 1.00013 0.15839 0.9592 0.0
H945 H 0.04005 0.18522 0.79764 0.0
H946 H 0.99501 0.12212 0.89961 0.0
H947 H 0.03441 0.14901 0.73673 0.0
H948 H 0.97022 0.06673 0.75675 0.0
H949 H 0.97613 0.1034 0.81376 0.0
H950 H 0.04354 0.10936 0.7244 0.0
H951 H 0.03692 0.07276 0.66513 0.0
C952 C 0.0075 0.15678 0.91036 0.0
C953 C 0.02041 0.1751 0.88362 0.0
C954 C 1.00455 0.13578 0.87575 0.0
C955 C 0.01416 0.13223 0.81249 0.0
C956 C 0.02699 0.15062 0.7855 0.0
C957 C 0.03013 0.1716 0.8205 0.0
C958 C 0.98643 0.07576 0.74977 0.0
C959 C 1.00338 0.06634 0.70796 0.0
C960 C 0.98993 0.09688 0.78292 0.0
C961 C 0.01054 0.10961 0.77531 0.0
C962 C 0.02738 0.10036 0.73203 0.0
C963 C 0.0238 0.07911 0.69861 0.0
H964 H 0.36868 0.01166 0.96426 0.0
H965 H 0.33681 0.03671 0.78582 0.0
H966 H 0.40476 1.00572 0.9053 0.0
H967 H 0.37305 0.03067 0.72657 0.0
H968 H 0.44856 0.03588 0.65242 0.0
H969 H 0.41245 0.04373 0.71206 0.0
H970 H 0.42253 0.98152 0.82509 0.0
H971 H 0.45856 0.97419 0.76652 0.0
C972 C 0.36915 0.01557 0.91215 0.0
C973 C 0.34946 0.02451 0.88016 0.0
C974 C 0.39003 0.01222 0.87813 0.0
C975 C 0.39207 0.01761 0.81068 0.0
C976 C 0.37242 0.02659 0.77856 0.0
C977 C 0.3515 0.02998 0.81269 0.0
C978 C 0.44322 0.02423 0.69107 0.0
C979 C 0.45682 1.00485 0.70647 0.0
C980 C 0.42231 0.02848 0.72462 0.0
C981 C 0.41442 0.01339 0.77424 0.0
C982 C 0.42808 0.99389 0.7886 0.0
C983 C 0.44878 0.98961 0.75485 0.0
H984 H 0.51298 0.35119 0.92384 0.0
H985 H 0.46327 0.32844 0.77815 0.0
H986 H 0.51994 0.38616 0.86043 0.0
H987 H 0.47031 0.3633 0.7145 0.0
H988 H 0.46581 0.44092 0.66703 0.0
H989 H 0.46202 0.40361 0.72033 0.0
H990 H 0.53523 0.40352 0.7623 0.0
H991 H 0.53886 0.44136 0.71041 0.0
C992 C 0.50386 0.35336 0.87759 0.0
C993 C 0.48742 0.33689 0.85666 0.0
C994 C 0.50785 0.37353 0.84106 0.0
C995 C 0.49554 0.37788 0.78233 0.0
C996 C 0.47977 0.36095 0.76011 0.0
C997 C 0.47577 0.34083 0.79666 0.0
C998 C 0.48115 0.43299 0.68752 0.0
C999 C 0.5026 0.44444 0.68509 0.0
C1000 C 0.47902 0.41136 0.7177 0.0
C1001 C 0.49829 0.40037 0.74628 0.0
C1002 C 0.5199 0.41151 0.74194 0.0
C1003 C 0.52204 0.43318 0.71158 0.0
H1004 H 0.18963 0.46818 0.82138 0.0
H1005 H 0.16768 0.52883 0.92954 0.0
H1006 H 0.15676 0.47238 0.7472 0.0
H1007 H 0.13405 0.53201 0.85895 0.0
H1008 H 0.08094 0.54383 0.70165 0.0
H1009 H 0.11759 0.54154 0.75984 0.0
H1010 H 0.1174 0.46731 0.73433 0.0
H1011 H 0.08151 0.47 0.67197 0.0
C1012 C 0.17797 0.48254 0.8294 0.0
C1013 C 0.1816 0.49803 0.88252 0.0
C1014 C 0.1587 0.48475 0.78714 0.0
C1015 C 0.14221 0.50246 0.79652 0.0
C1016 C 0.1462 0.51825 0.84871 0.0
C1017 C 0.16553 0.51618 0.89042 0.0
C1018 C 0.08877 0.52703 0.70764 0.0
C1019 C 0.07765 0.50705 0.68344 0.0
C1020 C 0.10987 0.52563 0.74208 0.0
C1021 C 0.12064 0.50414 0.75402 0.0
C1022 C 0.11002 0.48426 0.72676 0.0
C1023 C 0.08907 0.48575 0.69153 0.0
H1024 H 0.03286 0.84358 0.37033 0.0
H1025 H 0.96061 0.8609 0.35059 0.0
H1026 H 0.03916 0.87908 0.43341 0.0
H1027 H 0.96694 0.89619 0.41446 0.0
H1028 H 0.98359 0.9479 0.58683 0.0
H1029 H 0.97585 0.91227 0.5236 0.0
H1030 H 0.04081 0.92039 0.42223 0.0
H1031 H 0.04832 0.95573 0.48529 0.0
C1032 C 0.01826 0.85489 0.37892 0.0
C1033 C 0.99616 0.84889 0.35475 0.0
C1034 C 0.0219 0.87542 0.41544 0.0
C1035 C 1.0036 0.89081 0.42951 0.0
C1036 C 0.98147 0.88478 0.4059 0.0
C1037 C 0.97784 0.86431 0.36909 0.0
C1038 C 0.99592 0.94228 0.54996 0.0
C1039 C 0.01623 0.95511 0.53958 0.0
C1040 C 0.99161 0.92171 0.51392 0.0
C1041 C 0.00771 0.91312 0.46743 0.0
C1042 C 0.02805 0.92605 0.45779 0.0
C1043 C 0.03228 0.94654 0.49352 0.0
H1044 H 0.68041 0.03212 0.38532 0.0
H1045 H 0.66235 0.95981 0.37364 0.0
H1046 H 0.64497 0.03982 0.44665 0.0
H1047 H 0.62694 0.96751 0.43452 0.0
H1048 H 0.573 0.98591 0.59339 0.0
H1049 H 0.60993 0.97782 0.53885 0.0
H1050 H 0.60427 0.04217 0.4333 0.0
H1051 H 0.56778 0.0502 0.48886 0.0
C1052 C 0.66891 0.01783 0.39551 0.0
C1053 C 0.67457 0.9953 0.37422 0.0
C1054 C 0.64844 0.02226 0.4308 0.0
C1055 C 0.63279 1.00434 0.44585 0.0
C1056 C 0.63858 0.98178 0.42519 0.0
C1057 C 0.65905 0.97735 0.39005 0.0
C1058 C 0.57957 0.99812 0.55789 0.0
C1059 C 0.56712 0.01838 0.54402 0.0
C1060 C 0.60082 0.99355 0.52659 0.0
C1061 C 0.61031 0.00925 0.48095 0.0
C1062 C 0.59788 0.0297 0.46837 0.0
C1063 C 0.57676 0.03425 0.49977 0.0
H1064 H 0.5497 0.69803 0.48112 0.0
H1065 H 0.50877 0.67196 0.31843 0.0
H1066 H 0.54233 0.66257 0.54191 0.0
H1067 H 0.50129 0.63664 0.37939 0.0
H1068 H 0.47884 0.58067 0.52217 0.0
H1069 H 0.48247 0.61897 0.47312 0.0
H1070 H 0.55358 0.62236 0.53767 0.0
H1071 H 0.54976 0.58438 0.5877 0.0
C1072 C 0.53905 0.68483 0.45823 0.0
C1073 C 0.52997 0.68804 0.39433 0.0
C1074 C 0.53484 0.66439 0.49323 0.0
C1075 C 0.52134 0.64649 0.46564 0.0
C1076 C 0.51154 0.65005 0.40283 0.0
C1077 C 0.5158 0.67046 0.36775 0.0
C1078 C 0.49518 0.58969 0.52647 0.0
C1079 C 0.51412 0.57921 0.55801 0.0
C1080 C 0.49733 0.61163 0.49784 0.0
C1081 C 0.5184 0.62383 0.50054 0.0
C1082 C 0.53703 0.61369 0.53464 0.0
C1083 C 0.53491 0.59173 0.56293 0.0
H1084 H 0.82909 0.55465 0.41526 0.0
H1085 H 0.85049 0.49282 0.31173 0.0
H1086 H 0.86211 0.55105 0.48908 0.0
H1087 H 0.88429 0.49023 0.38179 0.0
H1088 H 0.93773 0.47973 0.53896 0.0
H1089 H 0.90101 0.48163 0.48107 0.0
H1090 H 0.90144 0.55605 0.50139 0.0
H1091 H 0.93738 0.55378 0.56364 0.0
C1092 C 0.84066 0.54016 0.40817 0.0
C1093 C 0.83681 0.52415 0.35644 0.0
C1094 C 0.86003 0.5383 0.45021 0.0
C1095 C 0.87642 0.52043 0.44197 0.0
C1096 C 0.87223 0.50414 0.39116 0.0
C1097 C 0.85279 0.50587 0.34971 0.0
C1098 C 0.92995 0.49651 0.53181 0.0
C1099 C 0.94117 0.51665 0.55448 0.0
C1100 C 0.90881 0.49767 0.49755 0.0
C1101 C 0.89807 0.51907 0.48424 0.0
C1102 C 0.9088 0.53914 0.50999 0.0
C1103 C 0.92979 0.5379 0.54509 0.0
loop_
_geom_bond_atom_site_label_1
_geom_bond_atom_site_label_2
_geom_bond_distance
_geom_bond_site_symmetry_2
_ccdc_geom_bond_type
C0 C1 1.384 . S
C0 H13 0.947 . S
C0 C35 1.382 . S
C1 C0 1.384 . S
C1 C2 1.378 . S
C2 C1 1.378 . S
C2 C3 1.378 . S
C2 H14 0.952 . S
C3 C2 1.378 . S
C3 H15 0.950 . S
C3 C34 1.383 . S
H4 C23 0.947 . S
H5 C24 0.946 . S
H6 C26 0.953 . S
H7 C27 0.945 . S
H8 C29 0.952 . S
H9 C30 0.949 . S
H10 C32 0.950 . S
H11 C33 0.948 . S
H12 C35 0.951 . S
H13 C0 0.947 . S
H14 C2 0.952 . S
H15 C3 0.950 . S
N16 C19 1.382 . S
N16 C21 1.363 . S
N17 C19 1.371 . S
N17 C20 1.372 . S
N18 C20 1.361 . S
N18 C21 1.377 . S
C19 N16 1.382 . S
C19 N17 1.371 . S
C19 C22 1.480 . S
C20 N17 1.372 . S
C20 N18 1.361 . S
C20 C28 1.457 . S
C21 N16 1.363 . S
C21 N18 1.377 . S
C21 C34 1.479 . S
C22 C19 1.480 . S
C22 C23 1.383 . S
C22 C27 1.385 . S
C23 H4 0.947 . S
C23 C22 1.383 . S
C23 C24 1.388 . S
C24 H5 0.946 . S
C24 C23 1.388 . S
C24 C25 1.384 . S
C25 C24 1.384 . S
C25 C26 1.377 . S
C26 H6 0.953 . S
C26 C25 1.377 . S
C26 C27 1.369 . S
C27 H7 0.945 . S
C27 C22 1.385 . S
C27 C26 1.369 . S
C28 C20 1.457 . S
C28 C29 1.372 . S
C28 C33 1.364 . S
C29 H8 0.952 . S
C29 C28 1.372 . S
C29 C30 1.389 1_554 S
C30 H9 0.949 . S
C30 C29 1.389 1_556 S
C30 C31 1.387 1_556 S
C31 C30 1.387 1_554 S
C31 C32 1.372 . S
C32 H10 0.950 . S
C32 C31 1.372 . S
C32 C33 1.379 . S
C33 H11 0.948 . S
C33 C28 1.364 . S
C33 C32 1.379 . S
C34 C3 1.383 . S
C34 C21 1.479 . S
C34 C35 1.398 . S
C35 C0 1.382 . S
C35 H12 0.951 . S
C35 C34 1.398 . S
C36 C37 1.384 . S
C36 H49 0.947 . S
C36 C71 1.382 . S
C37 C36 1.384 . S
C37 C38 1.378 . S
C38 C37 1.378 . S
C38 C39 1.378 . S
C38 H50 0.952 . S
C39 C38 1.378 . S
C39 H51 0.950 . S
C39 C70 1.383 . S
H40 C59 0.947 . S
H41 C60 0.946 . S
H42 C62 0.953 . S
H43 C63 0.945 . S
H44 C65 0.952 . S
H45 C66 0.946 1_556 S
H46 C68 0.950 . S
H47 C69 0.948 . S
H48 C71 0.951 . S
H49 C36 0.947 . S
H50 C38 0.952 . S
H51 C39 0.950 . S
N52 C55 1.382 . S
N52 C57 1.363 . S
N53 C55 1.371 . S
N53 C56 1.372 . S
N54 C56 1.361 . S
N54 C57 1.377 . S
C55 N52 1.382 . S
C55 N53 1.371 . S
C55 C58 1.480 . S
C56 N53 1.372 . S
C56 N54 1.361 . S
C56 C64 1.457 . S
C57 N52 1.363 . S
C57 N54 1.377 . S
C57 C70 1.479 . S
C58 C55 1.480 . S
C58 C59 1.383 . S
C58 C63 1.385 . S
C59 H40 0.947 . S
C59 C58 1.383 . S
C59 C60 1.388 . S
C60 H41 0.946 . S
C60 C59 1.388 . S
C60 C61 1.384 . S
C61 C60 1.384 . S
C61 C62 1.377 . S
C62 H42 0.953 . S
C62 C61 1.377 . S
C62 C63 1.369 . S
C63 H43 0.945 . S
C63 C58 1.385 . S
C63 C62 1.369 . S
C64 C56 1.457 . S
C64 C65 1.372 . S
C64 C69 1.364 . S
C65 H44 0.952 . S
C65 C64 1.372 . S
C65 C66 1.390 . S
C66 H45 0.946 1_554 S
C66 C65 1.390 . S
C66 C67 1.387 . S
C67 C66 1.387 . S
C67 C68 1.372 . S
C68 H46 0.950 . S
C68 C67 1.372 . S
C68 C69 1.379 . S
C69 H47 0.948 . S
C69 C64 1.364 . S
C69 C68 1.379 . S
C70 C39 1.383 . S
C70 C57 1.479 . S
C70 C71 1.398 . S
C71 C36 1.382 . S
C71 H48 0.951 . S
C71 C70 1.398 . S
C72 C73 1.384 . S
C72 H85 0.947 . S
C72 C107 1.382 . S
C73 C72 1.384 . S
C73 C74 1.378 . S
C74 C73 1.378 . S
C74 C75 1.378 . S
C74 H86 0.952 . S
C75 C74 1.378 . S
C75 H87 0.950 . S
C75 C106 1.383 . S
H76 C95 0.947 . S
H77 C96 0.946 . S
H78 C98 0.953 . S
H79 C99 0.945 . S
H80 C101 0.952 . S
H81 C102 0.949 1_556 S
H82 C104 0.950 . S
H83 C105 0.948 . S
H84 C107 0.951 . S
H85 C72 0.947 . S
H86 C74 0.952 . S
H87 C75 0.950 . S
N88 C91 1.382 . S
N88 C93 1.363 . S
N89 C91 1.371 . S
N89 C92 1.372 . S
N90 C92 1.361 . S
N90 C93 1.377 . S
C91 N88 1.382 . S
C91 N89 1.371 . S
C91 C94 1.480 . S
C92 N89 1.372 . S
C92 N90 1.361 . S
C92 C100 1.457 . S
C93 N88 1.363 . S
C93 N90 1.377 . S
C93 C106 1.479 . S
C94 C91 1.480 . S
C94 C95 1.383 . S
C94 C99 1.385 . S
C95 H76 0.947 . S
C95 C94 1.383 . S
C95 C96 1.388 . S
C96 H77 0.946 . S
C96 C95 1.388 . S
C96 C97 1.384 . S
C97 C96 1.384 . S
C97 C98 1.377 . S
C98 H78 0.953 . S
C98 C97 1.377 . S
C98 C99 1.369 . S
C99 H79 0.945 . S
C99 C94 1.385 . S
C99 C98 1.369 . S
C100 C92 1.457 . S
C100 C101 1.372 . S
C100 C105 1.364 . S
C101 H80 0.952 . S
C101 C100 1.372 . S
C101 C102 1.389 . S
C102 H81 0.949 1_554 S
C102 C101 1.389 . S
C102 C103 1.387 . S
C103 C102 1.387 . S
C103 C104 1.372 . S
C104 H82 0.950 . S
C104 C103 1.372 . S
C104 C105 1.379 . S
C105 H83 0.948 . S
C105 C100 1.364 . S
C105 C104 1.379 . S
C106 C75 1.383 . S
C106 C93 1.479 . S
C106 C107 1.398 . S
C107 C72 1.382 . S
C107 H84 0.951 . S
C107 C106 1.398 . S
C108 C109 1.384 . S
C108 H121 0.947 . S
C108 C143 1.382 . S
C109 C108 1.384 . S
C109 C110 1.378 1_554 S
C110 C109 1.378 1_556 S
C110 C111 1.378 1_556 S
C110 H122 0.952 . S
C111 C110 1.378 1_554 S
C111 H123 0.950 . S
C111 C142 1.383 . S
H112 C131 0.947 . S
H113 C132 0.946 . S
H114 C134 0.953 . S
H115 C135 0.945 . S
H116 C137 0.952 . S
H117 C138 0.949 . S
H118 C140 0.950 . S
H119 C141 0.948 . S
H120 C143 0.951 . S
H121 C108 0.947 . S
H122 C110 0.952 . S
H123 C111 0.950 . S
N124 C127 1.382 . S
N124 C129 1.363 . S
N125 C127 1.371 . S
N125 C128 1.372 . S
N126 C128 1.361 . S
N126 C129 1.377 . S
C127 N124 1.382 . S
C127 N125 1.371 . S
C127 C130 1.480 . S
C128 N125 1.372 . S
C128 N126 1.361 . S
C128 C136 1.457 . S
C129 N124 1.363 . S
C129 N126 1.377 . S
C129 C142 1.479 . S
C130 C127 1.480 . S
C130 C131 1.383 . S
C130 C135 1.385 . S
C131 H112 0.947 . S
C131 C130 1.383 . S
C131 C132 1.388 . S
C132 H113 0.946 . S
C132 C131 1.388 . S
C132 C133 1.384 . S
C133 C132 1.384 . S
C133 C134 1.377 . S
C134 H114 0.953 . S
C134 C133 1.377 . S
C134 C135 1.369 . S
C135 H115 0.945 . S
C135 C130 1.385 . S
C135 C134 1.369 . S
C136 C128 1.457 . S
C136 C137 1.372 . S
C136 C141 1.364 . S
C137 H116 0.952 . S
C137 C136 1.372 . S
C137 C138 1.389 . S
C138 H117 0.949 . S
C138 C137 1.389 . S
C138 C139 1.387 . S
C139 C138 1.387 . S
C139 C140 1.372 . S
C140 H118 0.950 . S
C140 C139 1.372 . S
C140 C141 1.379 . S
C141 H119 0.948 . S
C141 C136 1.364 . S
C141 C140 1.379 . S
C142 C111 1.383 . S
C142 C129 1.479 . S
C142 C143 1.398 . S
C143 C108 1.382 . S
C143 H120 0.951 . S
C143 C142 1.398 . S
C144 C145 1.384 . S
C144 H157 0.947 . S
C144 C179 1.382 . S
C145 C144 1.384 . S
C145 C146 1.378 . S
C146 C145 1.378 . S
C146 C147 1.378 . S
C146 H158 0.952 . S
C147 C146 1.378 . S
C147 H159 0.950 . S
C147 C178 1.383 . S
H148 C167 0.947 1_556 S
H149 C168 0.946 1_556 S
H150 C170 0.953 . S
H151 C171 0.945 . S
H152 C173 0.952 . S
H153 C174 0.949 . S
H154 C176 0.950 . S
H155 C177 0.948 . S
H156 C179 0.951 . S
H157 C144 0.947 . S
H158 C146 0.952 . S
H159 C147 0.950 . S
N160 C163 1.382 1_556 S
N160 C165 1.363 . S
N161 C163 1.371 . S
N161 C164 1.372 . S
N162 C164 1.361 . S
N162 C165 1.377 1_554 S
C163 N160 1.382 1_554 S
C163 N161 1.371 . S
C163 C166 1.480 . S
C164 N161 1.372 . S
C164 N162 1.361 . S
C164 C172 1.457 . S
C165 N160 1.363 . S
C165 N162 1.377 1_556 S
C165 C178 1.479 . S
C166 C163 1.480 . S
C166 C167 1.383 . S
C166 C171 1.385 . S
C167 H148 0.947 1_554 S
C167 C166 1.383 . S
C167 C168 1.388 . S
C168 H149 0.946 1_554 S
C168 C167 1.388 . S
C168 C169 1.384 . S
C169 C168 1.384 . S
C169 C170 1.377 . S
C170 H150 0.953 . S
C170 C169 1.377 . S
C170 C171 1.369 . S
C171 H151 0.945 . S
C171 C166 1.385 . S
C171 C170 1.369 . S
C172 C164 1.457 . S
C172 C173 1.372 . S
C172 C177 1.364 . S
C173 H152 0.952 . S
C173 C172 1.372 . S
C173 C174 1.389 . S
C174 H153 0.949 . S
C174 C173 1.389 . S
C174 C175 1.387 . S
C175 C174 1.387 . S
C175 C176 1.372 . S
C176 H154 0.950 . S
C176 C175 1.372 . S
C176 C177 1.379 . S
C177 H155 0.948 . S
C177 C172 1.364 . S
C177 C176 1.379 . S
C178 C147 1.383 . S
C178 C165 1.479 . S
C178 C179 1.398 . S
C179 C144 1.382 . S
C179 H156 0.951 . S
C179 C178 1.398 . S
C180 C181 1.384 . S
C180 H193 0.947 . S
C180 C215 1.382 . S
C181 C180 1.384 . S
C181 C182 1.378 . S
C182 C181 1.378 . S
C182 C183 1.378 . S
C182 H194 0.952 . S
C183 C182 1.378 . S
C183 H195 0.950 . S
C183 C214 1.383 . S
H184 C203 0.947 1_556 S
H185 C204 0.946 1_556 S
H186 C206 0.953 . S
H187 C207 0.945 . S
H188 C209 0.952 . S
H189 C210 0.949 . S
H190 C212 0.950 . S
H191 C213 0.948 . S
H192 C215 0.951 . S
H193 C180 0.947 . S
H194 C182 0.952 . S
H195 C183 0.950 . S
N196 C199 1.382 1_556 S
N196 C201 1.363 . S
N197 C199 1.371 . S
N197 C200 1.372 . S
N198 C200 1.361 . S
N198 C201 1.377 1_554 S
C199 N196 1.382 1_554 S
C199 N197 1.371 . S
C199 C202 1.480 . S
C200 N197 1.372 . S
C200 N198 1.361 . S
C200 C208 1.457 . S
C201 N196 1.363 . S
C201 N198 1.377 1_556 S
C201 C214 1.479 . S
C202 C199 1.480 . S
C202 C203 1.383 . S
C202 C207 1.385 . S
C203 H184 0.947 1_554 S
C203 C202 1.383 . S
C203 C204 1.388 . S
C204 H185 0.946 1_554 S
C204 C203 1.388 . S
C204 C205 1.384 . S
C205 C204 1.384 . S
C205 C206 1.377 . S
C206 H186 0.953 . S
C206 C205 1.377 . S
C206 C207 1.369 . S
C207 H187 0.945 . S
C207 C202 1.385 . S
C207 C206 1.369 . S
C208 C200 1.457 . S
C208 C209 1.372 . S
C208 C213 1.364 . S
C209 H188 0.952 . S
C209 C208 1.372 . S
C209 C210 1.389 . S
C210 H189 0.949 . S
C210 C209 1.389 . S
C210 C211 1.387 . S
C211 C210 1.387 . S
C211 C212 1.372 . S
C212 H190 0.950 . S
C212 C211 1.372 . S
C212 C213 1.379 . S
C213 H191 0.948 . S
C213 C208 1.364 . S
C213 C212 1.379 . S
C214 C183 1.383 . S
C214 C201 1.479 . S
C214 C215 1.398 . S
C215 C180 1.382 . S
C215 H192 0.951 . S
C215 C214 1.398 . S
C216 C217 1.384 . S
C216 H229 0.947 . S
C216 C251 1.382 . S
C217 C216 1.384 . S
C217 C218 1.378 . S
C218 C217 1.378 . S
C218 C219 1.378 . S
C218 H230 0.952 . S
C219 C218 1.378 . S
C219 H231 0.950 . S
C219 C250 1.383 . S
H220 C239 0.935 1_556 S
H221 C240 0.946 1_556 S
H222 C242 0.953 . S
H223 C243 0.945 . S
H224 C245 0.952 . S
H225 C246 0.949 . S
H226 C248 0.950 . S
H227 C249 0.948 . S
H228 C251 0.951 . S
H229 C216 0.947 . S
H230 C218 0.952 . S
H231 C219 0.950 . S
N232 C235 1.382 1_556 S
N232 C237 1.363 . S
N233 C235 1.371 . S
N233 C236 1.372 . S
N234 C236 1.361 . S
N234 C237 1.377 1_554 S
C235 N232 1.382 1_554 S
C235 N233 1.371 . S
C235 C238 1.480 . S
C236 N233 1.372 . S
C236 N234 1.361 . S
C236 C244 1.457 . S
C237 N232 1.363 . S
C237 N234 1.377 1_556 S
C237 C250 1.479 . S
C238 C235 1.480 . S
C238 C239 1.392 . S
C238 C243 1.385 . S
C239 H220 0.935 1_554 S
C239 C238 1.392 . S
C239 C240 1.391 . S
C240 H221 0.946 1_554 S
C240 C239 1.391 . S
C240 C241 1.384 . S
C241 C240 1.384 . S
C241 C242 1.377 . S
C242 H222 0.953 . S
C242 C241 1.377 . S
C242 C243 1.369 . S
C243 H223 0.945 . S
C243 C238 1.385 . S
C243 C242 1.369 . S
C244 C236 1.457 . S
C244 C245 1.372 . S
C244 C249 1.364 . S
C245 H224 0.952 . S
C245 C244 1.372 . S
C245 C246 1.389 . S
C246 H225 0.949 . S
C246 C245 1.389 . S
C246 C247 1.387 . S
C247 C246 1.387 . S
C247 C248 1.372 . S
C248 H226 0.950 . S
C248 C247 1.372 . S
C248 C249 1.379 . S
C249 H227 0.948 . S
C249 C244 1.364 . S
C249 C248 1.379 . S
C250 C219 1.383 . S
C250 C237 1.479 . S
C250 C251 1.398 . S
C251 C216 1.382 . S
C251 H228 0.951 . S
C251 C250 1.398 . S
C252 C253 1.384 . S
C252 H265 0.947 . S
C252 C287 1.382 . S
C253 C252 1.384 . S
C253 C254 1.378 . S
C254 C253 1.378 . S
C254 C255 1.378 . S
C254 H266 0.952 . S
C255 C254 1.378 . S
C255 H267 0.950 . S
C255 C286 1.383 . S
H256 C275 0.947 . S
H257 C276 0.946 . S
H258 C278 0.953 1_556 S
H259 C279 0.945 1_556 S
H260 C281 0.952 . S
H261 C282 0.949 . S
H262 C284 0.950 . S
H263 C285 0.948 . S
H264 C287 0.951 . S
H265 C252 0.947 . S
H266 C254 0.952 . S
H267 C255 0.950 . S
N268 C271 1.382 . S
N268 C273 1.363 . S
N269 C271 1.371 1_556 S
N269 C272 1.372 . S
N270 C272 1.361 1_554 S
N270 C273 1.377 . S
C271 N268 1.382 . S
C271 N269 1.371 1_554 S
C271 C274 1.480 . S
C272 N269 1.372 . S
C272 N270 1.361 1_556 S
C272 C280 1.457 . S
C273 N268 1.363 . S
C273 N270 1.377 . S
C273 C286 1.479 . S
C274 C271 1.480 . S
C274 C275 1.383 . S
C274 C279 1.385 . S
C275 H256 0.947 . S
C275 C274 1.383 . S
C275 C276 1.388 . S
C276 H257 0.946 . S
C276 C275 1.388 . S
C276 C277 1.384 . S
C277 C276 1.384 . S
C277 C278 1.377 . S
C278 H258 0.953 1_554 S
C278 C277 1.377 . S
C278 C279 1.369 . S
C279 H259 0.945 1_554 S
C279 C274 1.385 . S
C279 C278 1.369 . S
C280 C272 1.457 . S
C280 C281 1.372 . S
C280 C285 1.364 . S
C281 H260 0.952 . S
C281 C280 1.372 . S
C281 C282 1.389 . S
C282 H261 0.949 . S
C282 C281 1.389 . S
C282 C283 1.387 . S
C283 C282 1.387 . S
C283 C284 1.372 . S
C284 H262 0.950 . S
C284 C283 1.372 . S
C284 C285 1.379 . S
C285 H263 0.948 . S
C285 C280 1.364 . S
C285 C284 1.379 . S
C286 C255 1.383 . S
C286 C273 1.479 . S
C286 C287 1.398 . S
C287 C252 1.382 . S
C287 H264 0.951 . S
C287 C286 1.398 . S
Tb288 N319 2.660 1_565 S
Tb288 N326 2.600 . S
Tb288 O332 2.546 . S
Tb288 O333 2.610 1_455 S
Tb288 O335 2.320 1_455 S
Tb288 O336 2.552 . S
Tb288 O337 2.413 . S
Tb288 O339 2.362 1_565 S
Tb288 O340 2.421 . S
Tb288 C352 2.833 . S
C289 C292 1.432 1_545 S
C289 C293 1.414 . S
C289 N296 1.359 . S
C290 C292 1.417 . S
C290 C294 1.432 . S
C290 C302 1.410 . S
C291 C293 1.444 1_565 S
C291 C294 1.317 . S
C291 H314 0.929 . S
C292 C289 1.432 1_565 S
C292 C290 1.417 . S
C292 N300 1.361 1_565 S
C293 C289 1.414 . S
C293 C291 1.444 1_545 S
C293 C298 1.385 . S
C294 C290 1.432 . S
C294 C291 1.317 . S
C294 H306 0.930 . S
C295 C297 1.392 . S
C295 C298 1.370 . S
C295 H307 0.931 . S
N296 C289 1.359 . S
N296 C297 1.327 . S
N296 Tb299 2.600 . S
C297 C295 1.392 . S
C297 N296 1.327 . S
C297 H304 0.930 . S
C298 C293 1.385 . S
C298 C295 1.370 . S
C298 H317 0.930 . S
Tb299 N296 2.600 . S
Tb299 N300 2.657 . S
Tb299 O333 2.362 1_545 S
Tb299 O334 2.421 . S
Tb299 O338 2.546 . S
Tb299 O339 2.610 1_655 S
Tb299 O341 2.320 1_655 S
Tb299 O342 2.552 1_655 S
Tb299 O343 2.413 . S
Tb299 C363 2.833 . S
N300 C292 1.361 1_545 S
N300 Tb299 2.657 . S
N300 C301 1.307 1_645 S
C301 N300 1.307 1_465 S
C301 C303 1.407 . S
C301 H308 0.930 . S
C302 C290 1.410 . S
C302 C303 1.347 1_655 S
C302 H310 0.930 . S
C303 C301 1.407 . S
C303 C302 1.347 1_455 S
C303 H305 0.928 . S
H304 C297 0.930 . S
H305 C303 0.928 . S
H306 C294 0.930 . S
H307 C295 0.931 . S
H308 C301 0.930 . S
H309 C323 0.930 1_655 S
H310 C302 0.930 . S
H311 C329 0.930 . S
H312 C320 0.930 1_655 S
H313 C327 0.931 . S
H314 C291 0.929 . S
H315 C321 0.930 . S
H316 C354 0.930 . S
H317 C298 0.930 . S
H318 C353 0.929 . S
N319 Tb288 2.660 1_545 S
N319 C320 1.305 . S
N319 C324 1.360 . S
C320 H312 0.930 1_455 S
C320 N319 1.305 . S
C320 C323 1.407 . S
C321 H315 0.930 . S
C321 C322 1.410 . S
C321 C323 1.345 . S
C322 C321 1.410 . S
C322 C324 1.417 . S
C322 C354 1.432 . S
C323 H309 0.930 1_455 S
C323 C320 1.407 . S
C323 C321 1.345 . S
C324 N319 1.360 . S
C324 C322 1.417 . S
C324 C328 1.432 . S
H325 C330 0.927 1_545 S
N326 Tb288 2.600 . S
N326 C328 1.359 1_565 S
N326 C329 1.327 . S
C327 H313 0.931 . S
C327 C329 1.392 . S
C327 C330 1.389 . S
C328 C324 1.432 . S
C328 N326 1.359 1_545 S
C328 C331 1.414 . S
C329 H311 0.930 . S
C329 N326 1.327 . S
C329 C327 1.392 . S
C330 H325 0.927 1_565 S
C330 C327 1.389 . S
C330 C331 1.369 1_565 S
C331 C328 1.414 . S
C331 C330 1.369 1_545 S
C331 C353 1.444 . S
O332 Tb288 2.546 . S
O332 C352 1.251 . S
O333 Tb288 2.610 1_655 S
O333 Tb299 2.362 1_565 S
O333 C344 1.283 . S
O334 Tb299 2.421 . S
O334 C351 1.262 . S
O335 Tb288 2.320 1_655 S
O335 C351 1.260 1_565 S
O336 Tb288 2.552 . S
O336 C344 1.243 1_455 S
O337 Tb288 2.413 . S
O337 C352 1.256 . S
O338 Tb299 2.546 . S
O338 C363 1.251 . S
O339 Tb288 2.362 1_545 S
O339 Tb299 2.610 1_455 S
O339 C355 1.283 . S
O340 Tb288 2.421 . S
O340 C362 1.262 1_565 S
O341 Tb299 2.320 1_455 S
O341 C362 1.260 . S
O342 Tb299 2.552 1_455 S
O342 C355 1.243 . S
O343 Tb299 2.413 . S
O343 C363 1.256 . S
C344 O333 1.283 . S
C344 O336 1.243 1_655 S
C345 C347 1.382 . S
C345 C349 1.393 . S
C345 C352 1.500 . S
C346 C347 1.400 . S
C346 C348 1.384 . S
C347 C345 1.382 . S
C347 C346 1.400 . S
C347 H364 0.915 1_455 S
C348 C346 1.384 . S
C348 C350 1.392 . S
C348 H365 0.931 . S
C349 C345 1.393 . S
C349 C350 1.401 . S
C349 H366 0.930 . S
C350 C348 1.392 . S
C350 C349 1.401 . S
C350 H367 0.930 . S
C351 O334 1.262 . S
C351 O335 1.260 1_545 S
C352 Tb288 2.833 . S
C352 O332 1.251 . S
C352 O337 1.256 . S
C352 C345 1.500 . S
C353 H318 0.929 . S
C353 C331 1.444 . S
C353 C354 1.317 . S
C354 H316 0.930 . S
C354 C322 1.432 . S
C354 C353 1.317 . S
C355 O339 1.283 . S
C355 O342 1.243 . S
C356 C357 1.382 . S
C356 C360 1.393 . S
C356 C363 1.500 . S
C357 C356 1.382 . S
C357 C358 1.400 . S
C357 H368 0.930 1_655 S
C358 C357 1.400 . S
C358 C359 1.384 . S
C359 C358 1.384 . S
C359 C361 1.392 . S
C359 H369 0.931 . S
C360 C356 1.393 . S
C360 C361 1.401 . S
C360 H370 0.930 . S
C361 C359 1.392 . S
C361 C360 1.401 . S
C361 H371 0.930 . S
C362 O340 1.262 1_545 S
C362 O341 1.260 . S
C363 Tb299 2.833 . S
C363 O338 1.251 . S
C363 O343 1.256 . S
C363 C356 1.500 . S
H364 C347 0.915 1_655 S
H365 C348 0.931 . S
H366 C349 0.930 . S
H367 C350 0.930 . S
H368 C357 0.930 1_455 S
H369 C359 0.931 . S
H370 C360 0.930 . S
H371 C361 0.930 . S
Tb372 N403 2.660 . S
Tb372 N410 2.600 . S
Tb372 O416 2.546 . S
Tb372 O417 2.610 1_545 S
Tb372 O419 2.320 1_545 S
Tb372 O420 2.552 . S
Tb372 O421 2.413 . S
Tb372 O423 2.362 . S
Tb372 O424 2.421 . S
Tb372 C436 2.833 . S
C373 C376 1.432 . S
C373 C377 1.414 . S
C373 N380 1.359 . S
C374 C376 1.417 . S
C374 C378 1.432 . S
C374 C386 1.410 . S
C375 C377 1.444 . S
C375 C378 1.317 . S
C375 H398 0.929 . S
C376 C373 1.432 . S
C376 C374 1.417 . S
C376 N384 1.360 . S
C377 C373 1.414 . S
C377 C375 1.444 . S
C377 C382 1.385 . S
C378 C374 1.432 . S
C378 C375 1.317 . S
C378 H390 0.930 . S
C379 C381 1.392 . S
C379 C382 1.370 . S
C379 H391 0.931 . S
N380 C373 1.359 . S
N380 C381 1.327 . S
N380 Tb383 2.600 . S
C381 C379 1.392 . S
C381 N380 1.327 . S
C381 H388 0.930 . S
C382 C377 1.385 . S
C382 C379 1.370 . S
C382 H401 0.930 . S
Tb383 N380 2.600 . S
Tb383 N384 2.660 . S
Tb383 O417 2.362 . S
Tb383 O418 2.421 . S
Tb383 O422 2.546 . S
Tb383 O423 2.610 1_565 S
Tb383 O425 2.320 1_565 S
Tb383 O426 2.552 1_565 S
Tb383 O427 2.413 . S
Tb383 C447 2.833 . S
N384 C376 1.360 . S
N384 Tb383 2.660 . S
N384 C385 1.305 1_565 S
C385 N384 1.305 1_545 S
C385 C387 1.407 . S
C385 H392 0.930 . S
C386 C374 1.410 . S
C386 C387 1.345 1_565 S
C386 H394 0.930 . S
C387 C385 1.407 . S
C387 C386 1.345 1_545 S
C387 H389 0.930 . S
H388 C381 0.930 . S
H389 C387 0.930 . S
H390 C378 0.930 . S
H391 C379 0.931 . S
H392 C385 0.930 . S
H393 C407 0.930 1_565 S
H394 C386 0.930 . S
H395 C413 0.930 . S
H396 C404 0.930 1_565 S
H397 C411 0.931 . S
H398 C375 0.929 . S
H399 C405 0.930 . S
H400 C438 0.930 . S
H401 C382 0.930 . S
H402 C437 0.929 . S
N403 Tb372 2.660 . S
N403 C404 1.305 . S
N403 C408 1.360 . S
C404 H396 0.930 1_545 S
C404 N403 1.305 . S
C404 C407 1.407 . S
C405 H399 0.930 . S
C405 C406 1.410 . S
C405 C407 1.345 . S
C406 C405 1.410 . S
C406 C408 1.417 . S
C406 C438 1.432 . S
C407 H393 0.930 1_545 S
C407 C404 1.407 . S
C407 C405 1.345 . S
C408 N403 1.360 . S
C408 C406 1.417 . S
C408 C412 1.432 . S
H409 C414 0.930 . S
N410 Tb372 2.600 . S
N410 C412 1.359 . S
N410 C413 1.327 . S
C411 H397 0.931 . S
C411 C413 1.392 . S
C411 C414 1.370 . S
C412 C408 1.432 . S
C412 N410 1.359 . S
C412 C415 1.414 . S
C413 H395 0.930 . S
C413 N410 1.327 . S
C413 C411 1.392 . S
C414 H409 0.930 . S
C414 C411 1.370 . S
C414 C415 1.385 . S
C415 C412 1.414 . S
C415 C414 1.385 . S
C415 C437 1.444 . S
O416 Tb372 2.546 . S
O416 C436 1.251 . S
O417 Tb372 2.610 1_565 S
O417 Tb383 2.362 . S
O417 C428 1.283 . S
O418 Tb383 2.421 . S
O418 C435 1.262 . S
O419 Tb372 2.320 1_565 S
O419 C435 1.260 . S
O420 Tb372 2.552 . S
O420 C428 1.243 1_545 S
O421 Tb372 2.413 . S
O421 C436 1.256 . S
O422 Tb383 2.546 . S
O422 C447 1.251 . S
O423 Tb372 2.362 . S
O423 Tb383 2.610 1_545 S
O423 C439 1.283 . S
O424 Tb372 2.421 . S
O424 C446 1.262 . S
O425 Tb383 2.320 1_545 S
O425 C446 1.260 . S
O426 Tb383 2.552 1_545 S
O426 C439 1.243 . S
O427 Tb383 2.413 . S
O427 C447 1.256 . S
C428 O417 1.283 . S
C428 O420 1.243 1_565 S
C429 C431 1.382 . S
C429 C433 1.393 . S
C429 C436 1.500 . S
C430 C431 1.400 . S
C430 C432 1.384 . S
C431 C429 1.382 . S
C431 C430 1.400 . S
C431 H448 0.930 . S
C432 C430 1.384 . S
C432 C434 1.392 . S
C432 H449 0.931 . S
C433 C429 1.393 . S
C433 C434 1.401 . S
C433 H450 0.930 . S
C434 C432 1.392 . S
C434 C433 1.401 . S
C434 H451 0.930 . S
C435 O418 1.262 . S
C435 O419 1.260 . S
C436 Tb372 2.833 . S
C436 O416 1.251 . S
C436 O421 1.256 . S
C436 C429 1.500 . S
C437 H402 0.929 . S
C437 C415 1.444 . S
C437 C438 1.317 . S
C438 H400 0.930 . S
C438 C406 1.432 . S
C438 C437 1.317 . S
C439 O423 1.283 . S
C439 O426 1.243 . S
C440 C441 1.382 . S
C440 C444 1.393 . S
C440 C447 1.500 . S
C441 C440 1.382 . S
C441 C442 1.400 . S
C441 H452 0.930 1_565 S
C442 C441 1.400 . S
C442 C443 1.384 . S
C443 C442 1.384 . S
C443 C445 1.392 . S
C443 H453 0.931 . S
C444 C440 1.393 . S
C444 C445 1.401 . S
C444 H454 0.930 . S
C445 C443 1.392 . S
C445 C444 1.401 . S
C445 H455 0.930 . S
C446 O424 1.262 . S
C446 O425 1.260 . S
C447 Tb383 2.833 . S
C447 O422 1.251 . S
C447 O427 1.256 . S
C447 C440 1.500 . S
H448 C431 0.930 . S
H449 C432 0.931 . S
H450 C433 0.930 . S
H451 C434 0.930 . S
H452 C441 0.930 1_545 S
H453 C443 0.931 . S
H454 C444 0.930 . S
H455 C445 0.930 . S
Tb456 N487 2.660 . S
Tb456 N494 2.600 . S
Tb456 O500 2.546 . S
Tb456 O501 2.610 . S
Tb456 O503 2.320 . S
Tb456 O504 2.552 . S
Tb456 O505 2.413 . S
Tb456 O507 2.362 . S
Tb456 O508 2.421 . S
Tb456 C520 2.833 . S
C457 C460 1.432 . S
C457 C461 1.414 . S
C457 N464 1.359 . S
C458 C460 1.417 . S
C458 C462 1.432 . S
C458 C470 1.410 . S
C459 C461 1.444 . S
C459 C462 1.317 . S
C459 H482 0.929 . S
C460 C457 1.432 . S
C460 C458 1.417 . S
C460 N468 1.360 . S
C461 C457 1.414 . S
C461 C459 1.444 . S
C461 C466 1.385 . S
C462 C458 1.432 . S
C462 C459 1.317 . S
C462 H474 0.930 . S
C463 C465 1.392 . S
C463 C466 1.370 . S
C463 H475 0.931 . S
N464 C457 1.359 . S
N464 C465 1.327 . S
N464 Tb467 2.600 . S
C465 C463 1.392 . S
C465 N464 1.327 . S
C465 H472 0.930 . S
C466 C461 1.385 . S
C466 C463 1.370 . S
C466 H485 0.930 . S
Tb467 N464 2.600 . S
Tb467 N468 2.660 . S
Tb467 O501 2.362 . S
Tb467 O502 2.421 . S
Tb467 O506 2.546 . S
Tb467 O507 2.610 . S
Tb467 O509 2.320 . S
Tb467 O510 2.552 . S
Tb467 O511 2.413 . S
Tb467 C531 2.833 . S
N468 C460 1.360 . S
N468 Tb467 2.660 . S
N468 C469 1.305 . S
C469 N468 1.305 . S
C469 C471 1.407 . S
C469 H476 0.930 . S
C470 C458 1.410 . S
C470 C471 1.345 . S
C470 H478 0.930 . S
C471 C469 1.407 . S
C471 C470 1.345 . S
C471 H473 0.930 . S
H472 C465 0.930 . S
H473 C471 0.930 . S
H474 C462 0.930 . S
H475 C463 0.931 . S
H476 C469 0.930 . S
H477 C491 0.930 . S
H478 C470 0.930 . S
H479 C497 0.930 . S
H480 C488 0.930 . S
H481 C495 0.931 . S
H482 C459 0.929 . S
H483 C489 0.930 . S
H484 C522 0.930 . S
H485 C466 0.930 . S
H486 C521 0.929 . S
N487 Tb456 2.660 . S
N487 C488 1.305 . S
N487 C492 1.360 . S
C488 H480 0.930 . S
C488 N487 1.305 . S
C488 C491 1.407 . S
C489 H483 0.930 . S
C489 C490 1.410 . S
C489 C491 1.345 . S
C490 C489 1.410 . S
C490 C492 1.417 . S
C490 C522 1.432 . S
C491 H477 0.930 . S
C491 C488 1.407 . S
C491 C489 1.345 . S
C492 N487 1.360 . S
C492 C490 1.417 . S
C492 C496 1.432 . S
H493 C498 0.930 . S
N494 Tb456 2.600 . S
N494 C496 1.359 . S
N494 C497 1.327 . S
C495 H481 0.931 . S
C495 C497 1.392 . S
C495 C498 1.370 . S
C496 C492 1.432 . S
C496 N494 1.359 . S
C496 C499 1.414 . S
C497 H479 0.930 . S
C497 N494 1.327 . S
C497 C495 1.392 . S
C498 H493 0.930 . S
C498 C495 1.370 . S
C498 C499 1.385 . S
C499 C496 1.414 . S
C499 C498 1.385 . S
C499 C521 1.444 . S
O500 Tb456 2.546 . S
O500 C520 1.251 . S
O501 Tb456 2.610 . S
O501 Tb467 2.362 . S
O501 C512 1.283 . S
O502 Tb467 2.421 . S
O502 C519 1.262 . S
O503 Tb456 2.320 . S
O503 C519 1.260 . S
O504 Tb456 2.552 . S
O504 C512 1.243 . S
O505 Tb456 2.413 . S
O505 C520 1.256 . S
O506 Tb467 2.546 . S
O506 C531 1.251 . S
O507 Tb456 2.362 . S
O507 Tb467 2.610 . S
O507 C523 1.283 . S
O508 Tb456 2.421 . S
O508 C530 1.262 . S
O509 Tb467 2.320 . S
O509 C530 1.260 . S
O510 Tb467 2.552 . S
O510 C523 1.243 . S
O511 Tb467 2.413 . S
O511 C531 1.256 . S
C512 O501 1.283 . S
C512 O504 1.243 . S
C513 C515 1.382 . S
C513 C517 1.393 . S
C513 C520 1.500 . S
C514 C515 1.400 . S
C514 C516 1.384 . S
C515 C513 1.382 . S
C515 C514 1.400 . S
C515 H532 0.930 . S
C516 C514 1.384 . S
C516 C518 1.392 . S
C516 H533 0.931 . S
C517 C513 1.393 . S
C517 C518 1.401 . S
C517 H534 0.930 . S
C518 C516 1.392 . S
C518 C517 1.401 . S
C518 H535 0.930 . S
C519 O502 1.262 . S
C519 O503 1.260 . S
C520 Tb456 2.833 . S
C520 O500 1.251 . S
C520 O505 1.256 . S
C520 C513 1.500 . S
C521 H486 0.929 . S
C521 C499 1.444 . S
C521 C522 1.317 . S
C522 H484 0.930 . S
C522 C490 1.432 . S
C522 C521 1.317 . S
C523 O507 1.283 . S
C523 O510 1.243 . S
C524 C525 1.382 . S
C524 C528 1.393 . S
C524 C531 1.500 . S
C525 C524 1.382 . S
C525 C526 1.400 . S
C525 H536 0.930 . S
C526 C525 1.400 . S
C526 C527 1.384 . S
C527 C526 1.384 . S
C527 C529 1.392 . S
C527 H537 0.931 . S
C528 C524 1.393 . S
C528 C529 1.401 . S
C528 H538 0.930 . S
C529 C527 1.392 . S
C529 C528 1.401 . S
C529 H539 0.930 . S
C530 O508 1.262 . S
C530 O509 1.260 . S
C531 Tb467 2.833 . S
C531 O506 1.251 . S
C531 O511 1.256 . S
C531 C524 1.500 . S
H532 C515 0.930 . S
H533 C516 0.931 . S
H534 C517 0.930 . S
H535 C518 0.930 . S
H536 C525 0.930 . S
H537 C527 0.931 . S
H538 C528 0.930 . S
H539 C529 0.930 . S
Tb540 N571 2.660 . S
Tb540 N578 2.600 . S
Tb540 O584 2.546 . S
Tb540 O585 2.610 . S
Tb540 O587 2.320 . S
Tb540 O588 2.552 . S
Tb540 O589 2.413 . S
Tb540 O591 2.374 . S
Tb540 O592 2.421 1_455 S
Tb540 C604 2.833 . S
C541 C544 1.432 . S
C541 C545 1.414 . S
C541 N548 1.359 . S
C542 C544 1.417 . S
C542 C546 1.432 . S
C542 C554 1.410 . S
C543 C545 1.444 . S
C543 C546 1.317 . S
C543 H566 0.929 . S
C544 C541 1.432 . S
C544 C542 1.417 . S
C544 N552 1.360 . S
C545 C541 1.414 . S
C545 C543 1.444 . S
C545 C550 1.385 . S
C546 C542 1.432 . S
C546 C543 1.317 . S
C546 H558 0.930 . S
C547 C549 1.392 . S
C547 C550 1.370 1_455 S
C547 H559 0.931 . S
N548 C541 1.359 . S
N548 C549 1.327 1_655 S
N548 Tb551 2.600 . S
C549 C547 1.392 . S
C549 N548 1.327 1_455 S
C549 H556 0.930 . S
C550 C545 1.385 . S
C550 C547 1.370 1_655 S
C550 H569 0.930 . S
Tb551 N548 2.600 . S
Tb551 N552 2.660 . S
Tb551 O585 2.362 1_655 S
Tb551 O586 2.421 1_655 S
Tb551 O590 2.546 . S
Tb551 O591 2.602 1_655 S
Tb551 O593 2.320 . S
Tb551 O594 2.552 . S
Tb551 O595 2.413 . S
Tb551 C615 2.833 . S
N552 C544 1.360 . S
N552 Tb551 2.660 . S
N552 C553 1.305 . S
C553 N552 1.305 . S
C553 C555 1.407 . S
C553 H560 0.930 . S
C554 C542 1.410 . S
C554 C555 1.345 . S
C554 H562 0.930 . S
C555 C553 1.407 . S
C555 C554 1.345 . S
C555 H557 0.930 . S
H556 C549 0.930 . S
H557 C555 0.930 . S
H558 C546 0.930 . S
H559 C547 0.931 . S
H560 C553 0.930 . S
H561 C575 0.930 . S
H562 C554 0.930 . S
H563 C581 0.930 1_655 S
H564 C572 0.930 . S
H565 C579 0.918 1_655 S
H566 C543 0.929 . S
H567 C573 0.930 . S
H568 C606 0.930 . S
H569 C550 0.930 . S
H570 C605 0.929 . S
N571 Tb540 2.660 . S
N571 C572 1.305 . S
N571 C576 1.360 . S
C572 H564 0.930 . S
C572 N571 1.305 . S
C572 C575 1.407 . S
C573 H567 0.930 . S
C573 C574 1.410 . S
C573 C575 1.345 . S
C574 C573 1.410 . S
C574 C576 1.417 . S
C574 C606 1.432 . S
C575 H561 0.930 . S
C575 C572 1.407 . S
C575 C573 1.345 . S
C576 N571 1.360 . S
C576 C574 1.417 . S
C576 C580 1.432 . S
H577 C582 0.930 . S
N578 Tb540 2.600 . S
N578 C580 1.359 . S
N578 C581 1.327 . S
C579 H565 0.918 1_455 S
C579 C581 1.395 . S
C579 C582 1.381 . S
C580 C576 1.432 . S
C580 N578 1.359 . S
C580 C583 1.414 . S
C581 H563 0.930 1_455 S
C581 N578 1.327 . S
C581 C579 1.395 . S
C582 H577 0.930 . S
C582 C579 1.381 . S
C582 C583 1.385 . S
C583 C580 1.414 . S
C583 C582 1.385 . S
C583 C605 1.444 . S
O584 Tb540 2.546 . S
O584 C604 1.251 . S
O585 Tb540 2.610 . S
O585 Tb551 2.362 1_455 S
O585 C596 1.283 . S
O586 Tb551 2.421 1_455 S
O586 C603 1.262 . S
O587 Tb540 2.320 . S
O587 C603 1.260 . S
O588 Tb540 2.552 . S
O588 C596 1.243 . S
O589 Tb540 2.413 . S
O589 C604 1.256 . S
O590 Tb551 2.546 . S
O590 C615 1.251 . S
O591 Tb540 2.374 . S
O591 Tb551 2.602 1_455 S
O591 C607 1.274 1_455 S
O592 Tb540 2.421 1_655 S
O592 C614 1.262 . S
O593 Tb551 2.320 . S
O593 C614 1.260 . S
O594 Tb551 2.552 . S
O594 C607 1.243 . S
O595 Tb551 2.413 . S
O595 C615 1.256 . S
C596 O585 1.283 . S
C596 O588 1.243 . S
C597 C599 1.382 . S
C597 C601 1.393 . S
C597 C604 1.500 . S
C598 C599 1.400 . S
C598 C600 1.384 . S
C599 C597 1.382 . S
C599 C598 1.400 . S
C599 H616 0.930 . S
C600 C598 1.384 . S
C600 C602 1.392 . S
C600 H617 0.931 . S
C601 C597 1.393 . S
C601 C602 1.401 . S
C601 H618 0.930 . S
C602 C600 1.392 . S
C602 C601 1.401 . S
C602 H619 0.930 . S
C603 O586 1.262 . S
C603 O587 1.260 . S
C604 Tb540 2.833 . S
C604 O584 1.251 . S
C604 O589 1.256 . S
C604 C597 1.500 . S
C605 H570 0.929 . S
C605 C583 1.444 . S
C605 C606 1.317 . S
C606 H568 0.930 . S
C606 C574 1.432 . S
C606 C605 1.317 . S
C607 O591 1.274 1_655 S
C607 O594 1.243 . S
C608 C609 1.382 . S
C608 C612 1.393 . S
C608 C615 1.500 . S
C609 C608 1.382 . S
C609 C610 1.400 . S
C609 H620 0.930 . S
C610 C609 1.400 . S
C610 C611 1.384 . S
C611 C610 1.384 . S
C611 C613 1.392 . S
C611 H621 0.931 . S
C612 C608 1.393 . S
C612 C613 1.401 . S
C612 H622 0.930 . S
C613 C611 1.392 . S
C613 C612 1.401 . S
C613 H623 0.930 . S
C614 O592 1.262 . S
C614 O593 1.260 . S
C615 Tb551 2.833 . S
C615 O590 1.251 . S
C615 O595 1.256 . S
C615 C608 1.500 . S
H616 C599 0.930 . S
H617 C600 0.931 . S
H618 C601 0.930 . S
H619 C602 0.930 . S
H620 C609 0.930 . S
H621 C611 0.931 . S
H622 C612 0.930 . S
H623 C613 0.930 . S
H624 C632 0.950 . S
H625 C637 0.950 . S
H626 C634 0.950 . S
H627 C636 0.950 . S
H628 C638 0.950 . S
H629 C640 0.950 . S
H630 C642 0.950 . S
H631 C643 0.950 1_565 S
C632 H624 0.950 . S
C632 C633 1.386 . S
C632 C634 1.391 . S
C633 C632 1.386 . S
C633 C637 1.393 . S
C634 H626 0.950 . S
C634 C632 1.391 . S
C634 C635 1.400 . S
C635 C634 1.400 . S
C635 C636 1.398 . S
C635 C641 1.491 . S
C636 H627 0.950 . S
C636 C635 1.398 . S
C636 C637 1.391 . S
C637 H625 0.950 . S
C637 C633 1.393 . S
C637 C636 1.391 . S
C638 H628 0.950 . S
C638 C639 1.386 . S
C638 C640 1.391 . S
C639 C638 1.386 . S
C639 C643 1.393 . S
C640 H629 0.950 . S
C640 C638 1.391 . S
C640 C641 1.400 . S
C641 C635 1.491 . S
C641 C640 1.400 . S
C641 C642 1.398 . S
C642 H630 0.950 . S
C642 C641 1.398 . S
C642 C643 1.391 . S
C643 H631 0.950 1_545 S
C643 C639 1.393 . S
C643 C642 1.391 . S
H644 C652 0.950 . S
H645 C657 0.950 . S
H646 C654 0.950 . S
H647 C656 0.950 . S
H648 C658 0.950 . S
H649 C660 0.950 . S
H650 C662 0.950 . S
H651 C663 0.950 . S
C652 H644 0.950 . S
C652 C653 1.386 . S
C652 C654 1.391 . S
C653 C652 1.386 . S
C653 C657 1.393 . S
C654 H646 0.950 . S
C654 C652 1.391 . S
C654 C655 1.400 . S
C655 C654 1.400 . S
C655 C656 1.398 . S
C655 C661 1.491 . S
C656 H647 0.950 . S
C656 C655 1.398 . S
C656 C657 1.391 . S
C657 H645 0.950 . S
C657 C653 1.393 . S
C657 C656 1.391 . S
C658 H648 0.950 . S
C658 C659 1.386 . S
C658 C660 1.391 . S
C659 C658 1.386 . S
C659 C663 1.393 . S
C660 H649 0.950 . S
C660 C658 1.391 . S
C660 C661 1.400 . S
C661 C655 1.491 . S
C661 C660 1.400 . S
C661 C662 1.398 . S
C662 H650 0.950 . S
C662 C661 1.398 . S
C662 C663 1.391 . S
C663 H651 0.950 . S
C663 C659 1.393 . S
C663 C662 1.391 . S
H664 C672 0.950 . S
H665 C677 0.950 . S
H666 C674 0.950 . S
H667 C676 0.950 . S
H668 C678 0.950 . S
H669 C680 0.950 . S
H670 C682 0.950 . S
H671 C683 0.950 . S
C672 H664 0.950 . S
C672 C673 1.386 . S
C672 C674 1.391 . S
C673 C672 1.386 . S
C673 C677 1.393 . S
C674 H666 0.950 . S
C674 C672 1.391 . S
C674 C675 1.400 . S
C675 C674 1.400 . S
C675 C676 1.398 . S
C675 C681 1.491 . S
C676 H667 0.950 . S
C676 C675 1.398 . S
C676 C677 1.391 . S
C677 H665 0.950 . S
C677 C673 1.393 . S
C677 C676 1.391 . S
C678 H668 0.950 . S
C678 C679 1.386 . S
C678 C680 1.391 . S
C679 C678 1.386 . S
C679 C683 1.393 . S
C680 H669 0.950 . S
C680 C678 1.391 . S
C680 C681 1.400 . S
C681 C675 1.491 . S
C681 C680 1.400 . S
C681 C682 1.398 . S
C682 H670 0.950 . S
C682 C681 1.398 . S
C682 C683 1.391 . S
C683 H671 0.950 . S
C683 C679 1.393 . S
C683 C682 1.391 . S
H684 C692 0.950 . S
H685 C697 0.950 . S
H686 C694 0.950 . S
H687 C696 0.950 . S
H688 C698 0.950 . S
H689 C700 0.950 . S
H690 C702 0.950 . S
H691 C703 0.950 . S
C692 H684 0.950 . S
C692 C693 1.386 . S
C692 C694 1.391 . S
C693 C692 1.386 . S
C693 C697 1.393 . S
C694 H686 0.950 . S
C694 C692 1.391 . S
C694 C695 1.400 . S
C695 C694 1.400 . S
C695 C696 1.398 . S
C695 C701 1.491 . S
C696 H687 0.950 . S
C696 C695 1.398 . S
C696 C697 1.391 . S
C697 H685 0.950 . S
C697 C693 1.393 . S
C697 C696 1.391 . S
C698 H688 0.950 . S
C698 C699 1.386 . S
C698 C700 1.391 . S
C699 C698 1.386 . S
C699 C703 1.393 . S
C700 H689 0.950 . S
C700 C698 1.391 . S
C700 C701 1.400 . S
C701 C695 1.491 . S
C701 C700 1.400 . S
C701 C702 1.398 . S
C702 H690 0.950 . S
C702 C701 1.398 . S
C702 C703 1.391 . S
C703 H691 0.950 . S
C703 C699 1.393 . S
C703 C702 1.391 . S
H704 C712 0.950 . S
H705 C717 0.950 . S
H706 C714 0.950 . S
H707 C716 0.950 . S
H708 C718 0.950 1_545 S
H709 C720 0.950 . S
H710 C722 0.950 . S
H711 C723 0.950 . S
C712 H704 0.950 . S
C712 C713 1.386 . S
C712 C714 1.391 1_554 S
C713 C712 1.386 . S
C713 C717 1.393 . S
C714 H706 0.950 . S
C714 C712 1.391 1_556 S
C714 C715 1.400 . S
C715 C714 1.400 . S
C715 C716 1.398 1_556 S
C715 C721 1.491 . S
C716 H707 0.950 . S
C716 C715 1.398 1_554 S
C716 C717 1.391 . S
C717 H705 0.950 . S
C717 C713 1.393 . S
C717 C716 1.391 . S
C718 H708 0.950 1_565 S
C718 C719 1.386 . S
C718 C720 1.391 . S
C719 C718 1.386 . S
C719 C723 1.393 . S
C720 H709 0.950 . S
C720 C718 1.391 . S
C720 C721 1.400 . S
C721 C715 1.491 . S
C721 C720 1.400 . S
C721 C722 1.398 . S
C722 H710 0.950 . S
C722 C721 1.398 . S
C722 C723 1.391 . S
C723 H711 0.950 . S
C723 C719 1.393 . S
C723 C722 1.391 . S
H724 C732 0.950 . S
H725 C737 0.950 . S
H726 C734 0.950 . S
H727 C736 0.950 . S
H728 C738 0.950 . S
H729 C740 0.950 . S
H730 C742 0.950 . S
H731 C743 0.950 . S
C732 H724 0.950 . S
C732 C733 1.386 . S
C732 C734 1.391 1_554 S
C733 C732 1.386 . S
C733 C737 1.393 . S
C734 H726 0.950 . S
C734 C732 1.391 1_556 S
C734 C735 1.400 . S
C735 C734 1.400 . S
C735 C736 1.398 1_556 S
C735 C741 1.491 . S
C736 H727 0.950 . S
C736 C735 1.398 1_554 S
C736 C737 1.391 . S
C737 H725 0.950 . S
C737 C733 1.393 . S
C737 C736 1.391 . S
C738 H728 0.950 . S
C738 C739 1.386 . S
C738 C740 1.391 . S
C739 C738 1.386 . S
C739 C743 1.393 . S
C740 H729 0.950 . S
C740 C738 1.391 . S
C740 C741 1.400 . S
C741 C735 1.491 . S
C741 C740 1.400 . S
C741 C742 1.398 . S
C742 H730 0.950 . S
C742 C741 1.398 . S
C742 C743 1.391 . S
C743 H731 0.950 . S
C743 C739 1.393 . S
C743 C742 1.391 . S
H744 C752 0.950 . S
H745 C757 0.950 . S
H746 C754 0.950 . S
H747 C756 0.950 . S
H748 C758 0.950 . S
H749 C760 0.950 . S
H750 C762 0.950 . S
H751 C763 0.950 . S
C752 H744 0.950 . S
C752 C753 1.386 . S
C752 C754 1.391 1_554 S
C753 C752 1.386 . S
C753 C757 1.393 . S
C754 H746 0.950 . S
C754 C752 1.391 1_556 S
C754 C755 1.400 . S
C755 C754 1.400 . S
C755 C756 1.398 . S
C755 C761 1.491 . S
C756 H747 0.950 . S
C756 C755 1.398 . S
C756 C757 1.391 1_556 S
C757 H745 0.950 . S
C757 C753 1.393 . S
C757 C756 1.391 1_554 S
C758 H748 0.950 . S
C758 C759 1.386 . S
C758 C760 1.391 . S
C759 C758 1.386 . S
C759 C763 1.393 . S
C760 H749 0.950 . S
C760 C758 1.391 . S
C760 C761 1.400 . S
C761 C755 1.491 . S
C761 C760 1.400 . S
C761 C762 1.398 . S
C762 H750 0.950 . S
C762 C761 1.398 . S
C762 C763 1.391 . S
C763 H751 0.950 . S
C763 C759 1.393 . S
C763 C762 1.391 . S
H764 C772 0.950 . S
H765 C777 0.950 . S
H766 C774 0.950 . S
H767 C776 0.950 . S
H768 C778 0.950 . S
H769 C780 0.950 . S
H770 C782 0.950 . S
H771 C783 0.950 1_455 S
C772 H764 0.950 . S
C772 C773 1.386 . S
C772 C774 1.391 . S
C773 C772 1.386 . S
C773 C777 1.393 . S
C774 H766 0.950 . S
C774 C772 1.391 . S
C774 C775 1.400 1_554 S
C775 C774 1.400 1_556 S
C775 C776 1.398 . S
C775 C781 1.491 . S
C776 H767 0.950 . S
C776 C775 1.398 . S
C776 C777 1.391 1_556 S
C777 H765 0.950 . S
C777 C773 1.393 . S
C777 C776 1.391 1_554 S
C778 H768 0.950 . S
C778 C779 1.386 . S
C778 C780 1.391 . S
C779 C778 1.386 . S
C779 C783 1.393 . S
C780 H769 0.950 . S
C780 C778 1.391 . S
C780 C781 1.400 . S
C781 C775 1.491 . S
C781 C780 1.400 . S
C781 C782 1.398 . S
C782 H770 0.950 . S
C782 C781 1.398 . S
C782 C783 1.391 . S
C783 H771 0.950 1_655 S
C783 C779 1.393 . S
C783 C782 1.391 . S
H784 C792 0.950 . S
H785 C797 0.950 . S
H786 C794 0.950 . S
H787 C796 0.950 . S
H788 C798 0.950 . S
H789 C800 0.962 . S
H790 C802 0.950 . S
H791 C803 0.950 . S
C792 H784 0.950 . S
C792 C793 1.386 . S
C792 C794 1.391 . S
C793 C792 1.386 . S
C793 C797 1.393 . S
C794 H786 0.950 . S
C794 C792 1.391 . S
C794 C795 1.400 . S
C795 C794 1.400 . S
C795 C796 1.398 . S
C795 C801 1.491 . S
C796 H787 0.950 . S
C796 C795 1.398 . S
C796 C797 1.391 . S
C797 H785 0.950 . S
C797 C793 1.393 . S
C797 C796 1.391 . S
C798 H788 0.950 . S
C798 C799 1.386 1_655 S
C798 C800 1.391 1_655 S
C799 C798 1.386 1_455 S
C799 C803 1.393 . S
C800 H789 0.962 . S
C800 C798 1.391 1_455 S
C800 C801 1.400 . S
C801 C795 1.491 . S
C801 C800 1.400 . S
C801 C802 1.398 . S
C802 H790 0.950 . S
C802 C801 1.398 . S
C802 C803 1.391 . S
C803 H791 0.950 . S
C803 C799 1.393 . S
C803 C802 1.391 . S
H804 C812 0.950 . S
H805 C817 0.950 . S
H806 C814 0.950 . S
H807 C816 0.950 . S
H808 C818 0.953 . S
H809 C820 0.950 . S
H810 C822 0.950 . S
H811 C823 0.950 . S
C812 H804 0.950 . S
C812 C813 1.386 . S
C812 C814 1.391 . S
C813 C812 1.386 . S
C813 C817 1.393 . S
C814 H806 0.950 . S
C814 C812 1.391 . S
C814 C815 1.400 . S
C815 C814 1.400 . S
C815 C816 1.398 . S
C815 C821 1.491 . S
C816 H807 0.950 . S
C816 C815 1.398 . S
C816 C817 1.391 . S
C817 H805 0.950 . S
C817 C813 1.393 . S
C817 C816 1.391 . S
C818 H808 0.953 . S
C818 C819 1.385 1_565 S
C818 C820 1.388 1_565 S
C819 C818 1.385 1_545 S
C819 C823 1.404 . S
C820 H809 0.950 . S
C820 C818 1.388 1_545 S
C820 C821 1.400 . S
C821 C815 1.491 . S
C821 C820 1.400 . S
C821 C822 1.398 . S
C822 H810 0.950 . S
C822 C821 1.398 . S
C822 C823 1.391 . S
C823 H811 0.950 . S
C823 C819 1.404 . S
C823 C822 1.391 . S
H824 C832 0.950 . S
H825 C837 0.950 . S
H826 C834 0.950 . S
H827 C836 0.950 . S
H828 C838 0.950 . S
H829 C840 0.950 . S
H830 C842 0.950 . S
H831 C843 0.950 . S
C832 H824 0.950 . S
C832 C833 1.386 . S
C832 C834 1.391 . S
C833 C832 1.386 . S
C833 C837 1.393 . S
C834 H826 0.950 . S
C834 C832 1.391 . S
C834 C835 1.400 . S
C835 C834 1.400 . S
C835 C836 1.398 . S
C835 C841 1.491 . S
C836 H827 0.950 . S
C836 C835 1.398 . S
C836 C837 1.391 . S
C837 H825 0.950 . S
C837 C833 1.393 . S
C837 C836 1.391 . S
C838 H828 0.950 . S
C838 C839 1.386 . S
C838 C840 1.391 . S
C839 C838 1.386 . S
C839 C843 1.393 . S
C840 H829 0.950 . S
C840 C838 1.391 . S
C840 C841 1.400 . S
C841 C835 1.491 . S
C841 C840 1.400 . S
C841 C842 1.398 . S
C842 H830 0.950 . S
C842 C841 1.398 . S
C842 C843 1.391 . S
C843 H831 0.950 . S
C843 C839 1.393 . S
C843 C842 1.391 . S
H844 C852 0.950 . S
H845 C857 0.950 . S
H846 C854 0.950 . S
H847 C856 0.950 . S
H848 C858 0.950 . S
H849 C860 0.950 . S
H850 C862 0.950 . S
H851 C863 0.950 . S
C852 H844 0.950 . S
C852 C853 1.386 . S
C852 C854 1.391 . S
C853 C852 1.386 . S
C853 C857 1.393 . S
C854 H846 0.950 . S
C854 C852 1.391 . S
C854 C855 1.400 . S
C855 C854 1.400 . S
C855 C856 1.398 . S
C855 C861 1.491 . S
C856 H847 0.950 . S
C856 C855 1.398 . S
C856 C857 1.391 . S
C857 H845 0.950 . S
C857 C853 1.393 . S
C857 C856 1.391 . S
C858 H848 0.950 . S
C858 C859 1.386 . S
C858 C860 1.391 . S
C859 C858 1.386 . S
C859 C863 1.393 . S
C860 H849 0.950 . S
C860 C858 1.391 . S
C860 C861 1.400 . S
C861 C855 1.491 . S
C861 C860 1.400 . S
C861 C862 1.398 . S
C862 H850 0.950 . S
C862 C861 1.398 . S
C862 C863 1.391 . S
C863 H851 0.950 . S
C863 C859 1.393 . S
C863 C862 1.391 . S
H864 C872 0.950 . S
H865 C877 0.950 . S
H866 C874 0.950 1_554 S
H867 C876 0.950 . S
H868 C878 0.950 . S
H869 C880 0.950 . S
H870 C882 0.950 . S
H871 C883 0.950 . S
C872 H864 0.950 . S
C872 C873 1.386 1_554 S
C872 C874 1.391 1_554 S
C873 C872 1.386 1_556 S
C873 C877 1.393 . S
C874 H866 0.950 1_556 S
C874 C872 1.391 1_556 S
C874 C875 1.400 . S
C875 C874 1.400 . S
C875 C876 1.398 . S
C875 C881 1.491 . S
C876 H867 0.950 . S
C876 C875 1.398 . S
C876 C877 1.391 . S
C877 H865 0.950 . S
C877 C873 1.393 . S
C877 C876 1.391 . S
C878 H868 0.950 . S
C878 C879 1.386 . S
C878 C880 1.391 1_455 S
C879 C878 1.386 . S
C879 C883 1.393 1_455 S
C880 H869 0.950 . S
C880 C878 1.391 1_655 S
C880 C881 1.400 . S
C881 C875 1.491 . S
C881 C880 1.400 . S
C881 C882 1.398 . S
C882 H870 0.950 . S
C882 C881 1.398 . S
C882 C883 1.391 . S
C883 H871 0.950 . S
C883 C879 1.393 1_655 S
C883 C882 1.391 . S
H884 C892 0.950 . S
H885 C897 0.950 . S
H886 C894 0.950 . S
H887 C896 0.950 . S
H888 C898 0.950 . S
H889 C900 0.950 . S
H890 C902 0.950 . S
H891 C903 0.950 . S
C892 H884 0.950 . S
C892 C893 1.386 . S
C892 C894 1.391 . S
C893 C892 1.386 . S
C893 C897 1.393 1_556 S
C894 H886 0.950 . S
C894 C892 1.391 . S
C894 C895 1.400 . S
C895 C894 1.400 . S
C895 C896 1.398 . S
C895 C901 1.491 . S
C896 H887 0.950 . S
C896 C895 1.398 . S
C896 C897 1.391 1_556 S
C897 H885 0.950 . S
C897 C893 1.393 1_554 S
C897 C896 1.391 1_554 S
C898 H888 0.950 . S
C898 C899 1.386 . S
C898 C900 1.391 . S
C899 C898 1.386 . S
C899 C903 1.393 1_545 S
C900 H889 0.950 . S
C900 C898 1.391 . S
C900 C901 1.400 1_545 S
C901 C895 1.491 . S
C901 C900 1.400 1_565 S
C901 C902 1.398 . S
C902 H890 0.950 . S
C902 C901 1.398 . S
C902 C903 1.391 . S
C903 H891 0.950 . S
C903 C899 1.393 1_565 S
C903 C902 1.391 . S
H904 C912 0.950 . S
H905 C917 0.950 . S
H906 C914 0.950 . S
H907 C916 0.950 . S
H908 C918 0.950 . S
H909 C920 0.950 . S
H910 C922 0.950 . S
H911 C923 0.950 . S
C912 H904 0.950 . S
C912 C913 1.386 1_554 S
C912 C914 1.391 . S
C913 C912 1.386 1_556 S
C913 C917 1.393 . S
C914 H906 0.950 . S
C914 C912 1.391 . S
C914 C915 1.400 1_554 S
C915 C914 1.400 1_556 S
C915 C916 1.398 . S
C915 C921 1.491 . S
C916 H907 0.950 . S
C916 C915 1.398 . S
C916 C917 1.391 . S
C917 H905 0.950 . S
C917 C913 1.393 . S
C917 C916 1.391 . S
C918 H908 0.950 . S
C918 C919 1.386 . S
C918 C920 1.391 . S
C919 C918 1.386 . S
C919 C923 1.393 . S
C920 H909 0.950 . S
C920 C918 1.391 . S
C920 C921 1.400 . S
C921 C915 1.491 . S
C921 C920 1.400 . S
C921 C922 1.398 . S
C922 H910 0.950 . S
C922 C921 1.398 . S
C922 C923 1.391 . S
C923 H911 0.950 . S
C923 C919 1.393 . S
C923 C922 1.391 . S
H924 C932 0.950 . S
H925 C937 0.950 . S
H926 C934 0.950 1_554 S
H927 C936 0.950 . S
H928 C938 0.950 . S
H929 C940 0.950 . S
H930 C942 0.950 . S
H931 C943 0.950 . S
C932 H924 0.950 . S
C932 C933 1.386 1_554 S
C932 C934 1.391 1_554 S
C933 C932 1.386 1_556 S
C933 C937 1.393 . S
C934 H926 0.950 1_556 S
C934 C932 1.391 1_556 S
C934 C935 1.400 . S
C935 C934 1.400 . S
C935 C936 1.398 . S
C935 C941 1.491 . S
C936 H927 0.950 . S
C936 C935 1.398 . S
C936 C937 1.391 . S
C937 H925 0.950 . S
C937 C933 1.393 . S
C937 C936 1.391 . S
C938 H928 0.950 . S
C938 C939 1.386 . S
C938 C940 1.391 . S
C939 C938 1.386 . S
C939 C943 1.393 . S
C940 H929 0.950 . S
C940 C938 1.391 . S
C940 C941 1.400 . S
C941 C935 1.491 . S
C941 C940 1.400 . S
C941 C942 1.398 . S
C942 H930 0.950 . S
C942 C941 1.398 . S
C942 C943 1.391 . S
C943 H931 0.950 . S
C943 C939 1.393 . S
C943 C942 1.391 . S
H944 C952 0.950 . S
H945 C957 0.950 . S
H946 C954 0.950 . S
H947 C956 0.950 . S
H948 C958 0.950 . S
H949 C960 0.950 . S
H950 C962 0.950 . S
H951 C963 0.950 . S
C952 H944 0.950 . S
C952 C953 1.386 . S
C952 C954 1.391 . S
C953 C952 1.386 . S
C953 C957 1.393 . S
C954 H946 0.950 . S
C954 C952 1.391 . S
C954 C955 1.400 . S
C955 C954 1.400 . S
C955 C956 1.398 . S
C955 C961 1.491 . S
C956 H947 0.950 . S
C956 C955 1.398 . S
C956 C957 1.391 . S
C957 H945 0.950 . S
C957 C953 1.393 . S
C957 C956 1.391 . S
C958 H948 0.950 . S
C958 C959 1.386 . S
C958 C960 1.391 . S
C959 C958 1.386 . S
C959 C963 1.393 . S
C960 H949 0.950 . S
C960 C958 1.391 . S
C960 C961 1.400 . S
C961 C955 1.491 . S
C961 C960 1.400 . S
C961 C962 1.398 . S
C962 H950 0.950 . S
C962 C961 1.398 . S
C962 C963 1.391 . S
C963 H951 0.950 . S
C963 C959 1.393 . S
C963 C962 1.391 . S
H964 C972 0.950 . S
H965 C977 0.950 . S
H966 C974 0.950 . S
H967 C976 0.950 . S
H968 C978 0.950 . S
H969 C980 0.950 . S
H970 C982 0.950 . S
H971 C983 0.950 . S
C972 H964 0.950 . S
C972 C973 1.386 . S
C972 C974 1.391 . S
C973 C972 1.386 . S
C973 C977 1.393 . S
C974 H966 0.950 . S
C974 C972 1.391 . S
C974 C975 1.400 . S
C975 C974 1.400 . S
C975 C976 1.398 . S
C975 C981 1.491 . S
C976 H967 0.950 . S
C976 C975 1.398 . S
C976 C977 1.391 . S
C977 H965 0.950 . S
C977 C973 1.393 . S
C977 C976 1.391 . S
C978 H968 0.950 . S
C978 C979 1.386 . S
C978 C980 1.391 . S
C979 C978 1.386 . S
C979 C983 1.393 . S
C980 H969 0.950 . S
C980 C978 1.391 . S
C980 C981 1.400 . S
C981 C975 1.491 . S
C981 C980 1.400 . S
C981 C982 1.398 . S
C982 H970 0.950 . S
C982 C981 1.398 . S
C982 C983 1.391 . S
C983 H971 0.950 . S
C983 C979 1.393 . S
C983 C982 1.391 . S
H984 C992 0.950 . S
H985 C997 0.950 . S
H986 C994 0.950 . S
H987 C996 0.950 . S
H988 C998 0.950 . S
H989 C1000 0.950 . S
H990 C1002 0.950 . S
H991 C1003 0.950 . S
C992 H984 0.950 . S
C992 C993 1.386 . S
C992 C994 1.391 . S
C993 C992 1.386 . S
C993 C997 1.393 . S
C994 H986 0.950 . S
C994 C992 1.391 . S
C994 C995 1.400 . S
C995 C994 1.400 . S
C995 C996 1.398 . S
C995 C1001 1.491 . S
C996 H987 0.950 . S
C996 C995 1.398 . S
C996 C997 1.391 . S
C997 H985 0.950 . S
C997 C993 1.393 . S
C997 C996 1.391 . S
C998 H988 0.950 . S
C998 C999 1.386 . S
C998 C1000 1.391 . S
C999 C998 1.386 . S
C999 C1003 1.393 . S
C1000 H989 0.950 . S
C1000 C998 1.391 . S
C1000 C1001 1.400 . S
C1001 C995 1.491 . S
C1001 C1000 1.400 . S
C1001 C1002 1.398 . S
C1002 H990 0.950 . S
C1002 C1001 1.398 . S
C1002 C1003 1.391 . S
C1003 H991 0.950 . S
C1003 C999 1.393 . S
C1003 C1002 1.391 . S
H1004 C1012 0.950 . S
H1005 C1017 0.950 . S
H1006 C1014 0.950 . S
H1007 C1016 0.950 . S
H1008 C1018 0.950 . S
H1009 C1020 0.950 . S
H1010 C1022 0.950 . S
H1011 C1023 0.950 . S
C1012 H1004 0.950 . S
C1012 C1013 1.386 . S
C1012 C1014 1.391 . S
C1013 C1012 1.386 . S
C1013 C1017 1.393 . S
C1014 H1006 0.950 . S
C1014 C1012 1.391 . S
C1014 C1015 1.400 . S
C1015 C1014 1.400 . S
C1015 C1016 1.398 . S
C1015 C1021 1.491 . S
C1016 H1007 0.950 . S
C1016 C1015 1.398 . S
C1016 C1017 1.391 . S
C1017 H1005 0.950 . S
C1017 C1013 1.393 . S
C1017 C1016 1.391 . S
C1018 H1008 0.950 . S
C1018 C1019 1.386 . S
C1018 C1020 1.391 . S
C1019 C1018 1.386 . S
C1019 C1023 1.393 . S
C1020 H1009 0.950 . S
C1020 C1018 1.391 . S
C1020 C1021 1.400 . S
C1021 C1015 1.491 . S
C1021 C1020 1.400 . S
C1021 C1022 1.398 . S
C1022 H1010 0.950 . S
C1022 C1021 1.398 . S
C1022 C1023 1.391 . S
C1023 H1011 0.950 . S
C1023 C1019 1.393 . S
C1023 C1022 1.391 . S
H1024 C1032 0.950 . S
H1025 C1037 0.950 . S
H1026 C1034 0.950 . S
H1027 C1036 0.950 . S
H1028 C1038 0.950 . S
H1029 C1040 0.950 . S
H1030 C1042 0.950 . S
H1031 C1043 0.950 1_455 S
C1032 H1024 0.950 . S
C1032 C1033 1.386 . S
C1032 C1034 1.391 . S
C1033 C1032 1.386 . S
C1033 C1037 1.393 . S
C1034 H1026 0.950 . S
C1034 C1032 1.391 . S
C1034 C1035 1.400 . S
C1035 C1034 1.400 . S
C1035 C1036 1.398 . S
C1035 C1041 1.491 . S
C1036 H1027 0.950 . S
C1036 C1035 1.398 . S
C1036 C1037 1.391 . S
C1037 H1025 0.950 . S
C1037 C1033 1.393 . S
C1037 C1036 1.391 . S
C1038 H1028 0.950 . S
C1038 C1039 1.386 . S
C1038 C1040 1.391 . S
C1039 C1038 1.386 . S
C1039 C1043 1.393 . S
C1040 H1029 0.950 . S
C1040 C1038 1.391 . S
C1040 C1041 1.400 . S
C1041 C1035 1.491 . S
C1041 C1040 1.400 . S
C1041 C1042 1.398 . S
C1042 H1030 0.950 . S
C1042 C1041 1.398 . S
C1042 C1043 1.391 . S
C1043 H1031 0.950 1_655 S
C1043 C1039 1.393 . S
C1043 C1042 1.391 . S
H1044 C1052 0.950 . S
H1045 C1057 0.950 . S
H1046 C1054 0.950 . S
H1047 C1056 0.950 . S
H1048 C1058 0.950 . S
H1049 C1060 0.950 . S
H1050 C1062 0.950 . S
H1051 C1063 0.950 1_545 S
C1052 H1044 0.950 . S
C1052 C1053 1.386 . S
C1052 C1054 1.391 . S
C1053 C1052 1.386 . S
C1053 C1057 1.393 . S
C1054 H1046 0.950 . S
C1054 C1052 1.391 . S
C1054 C1055 1.400 . S
C1055 C1054 1.400 . S
C1055 C1056 1.398 . S
C1055 C1061 1.491 . S
C1056 H1047 0.950 . S
C1056 C1055 1.398 . S
C1056 C1057 1.391 . S
C1057 H1045 0.950 . S
C1057 C1053 1.393 . S
C1057 C1056 1.391 . S
C1058 H1048 0.950 . S
C1058 C1059 1.386 . S
C1058 C1060 1.391 . S
C1059 C1058 1.386 . S
C1059 C1063 1.393 . S
C1060 H1049 0.950 . S
C1060 C1058 1.391 . S
C1060 C1061 1.400 . S
C1061 C1055 1.491 . S
C1061 C1060 1.400 . S
C1061 C1062 1.398 . S
C1062 H1050 0.950 . S
C1062 C1061 1.398 . S
C1062 C1063 1.391 . S
C1063 H1051 0.950 1_565 S
C1063 C1059 1.393 . S
C1063 C1062 1.391 . S
H1064 C1072 0.950 . S
H1065 C1077 0.950 . S
H1066 C1074 0.950 . S
H1067 C1076 0.950 . S
H1068 C1078 0.950 . S
H1069 C1080 0.950 . S
H1070 C1082 0.950 . S
H1071 C1083 0.950 . S
C1072 H1064 0.950 . S
C1072 C1073 1.386 . S
C1072 C1074 1.391 . S
C1073 C1072 1.386 . S
C1073 C1077 1.393 . S
C1074 H1066 0.950 . S
C1074 C1072 1.391 . S
C1074 C1075 1.400 . S
C1075 C1074 1.400 . S
C1075 C1076 1.398 . S
C1075 C1081 1.491 . S
C1076 H1067 0.950 . S
C1076 C1075 1.398 . S
C1076 C1077 1.391 . S
C1077 H1065 0.950 . S
C1077 C1073 1.393 . S
C1077 C1076 1.391 . S
C1078 H1068 0.950 . S
C1078 C1079 1.386 . S
C1078 C1080 1.391 . S
C1079 C1078 1.386 . S
C1079 C1083 1.393 . S
C1080 H1069 0.950 . S
C1080 C1078 1.391 . S
C1080 C1081 1.400 . S
C1081 C1075 1.491 . S
C1081 C1080 1.400 . S
C1081 C1082 1.398 . S
C1082 H1070 0.950 . S
C1082 C1081 1.398 . S
C1082 C1083 1.391 . S
C1083 H1071 0.950 . S
C1083 C1079 1.393 . S
C1083 C1082 1.391 . S
H1084 C1092 0.950 . S
H1085 C1097 0.950 . S
H1086 C1094 0.950 . S
H1087 C1096 0.950 . S
H1088 C1098 0.950 . S
H1089 C1100 0.950 . S
H1090 C1102 0.950 . S
H1091 C1103 0.950 . S
C1092 H1084 0.950 . S
C1092 C1093 1.386 . S
C1092 C1094 1.391 . S
C1093 C1092 1.386 . S
C1093 C1097 1.393 . S
C1094 H1086 0.950 . S
C1094 C1092 1.391 . S
C1094 C1095 1.400 . S
C1095 C1094 1.400 . S
C1095 C1096 1.398 . S
C1095 C1101 1.491 . S
C1096 H1087 0.950 . S
C1096 C1095 1.398 . S
C1096 C1097 1.391 . S
C1097 H1085 0.950 . S
C1097 C1093 1.393 . S
C1097 C1096 1.391 . S
C1098 H1088 0.950 . S
C1098 C1099 1.386 . S
C1098 C1100 1.391 . S
C1099 C1098 1.386 . S
C1099 C1103 1.393 . S
C1100 H1089 0.950 . S
C1100 C1098 1.391 . S
C1100 C1101 1.400 . S
C1101 C1095 1.491 . S
C1101 C1100 1.400 . S
C1101 C1102 1.398 . S
C1102 H1090 0.950 . S
C1102 C1101 1.398 . S
C1102 C1103 1.391 . S
C1103 H1091 0.950 . S
C1103 C1099 1.393 . S
C1103 C1102 1.391 . S
C633 C241 2.211 . S
C639 C362 2.313 . S
C659 C446 2.358 . S
C653 C277 2.274 . S
C679 C512 2.257 . S
C673 C169 2.358 . S
C699 C596 2.251 . S
C693 C205 2.355 . S
C719 C351 2.320 1_565 S
C713 C97 2.164 . S
C733 C133 2.310 . S
C739 C435 2.358 . S
C753 C25 2.289 . S
C759 C523 2.239 . S
C773 C61 2.310 . S
C779 C607 2.258 . S
C799 C358 0.637 1_455 S
C793 C211 0.658 . S
C819 C442 0.543 1_545 S
C813 C247 0.632 . S
C839 C514 0.584 . S
C833 C253 0.578 . S
C853 C175 0.605 . S
C859 C598 0.636 . S
C873 C67 0.634 1_556 S
C879 C346 0.652 . S
C899 C430 0.578 . S
C893 C103 0.624 1_556 S
C919 C526 0.550 . S
C913 C109 0.543 1_556 S
C933 C31 0.615 1_556 S
C939 C610 0.624 . S
C953 C181 2.785 . S
C959 C355 2.898 . S
C973 C217 2.743 . S
C979 C439 2.854 . S
C999 C519 2.919 . S
C993 C283 2.538 . S
C1019 C603 2.946 . S
C1013 C145 2.651 . S
C1033 C37 2.744 . S
C1039 C344 2.888 . S
C1059 C428 2.836 . S
C1053 C73 2.705 . S
C1079 C530 2.920 . S
C1073 C139 2.582 . S
C1093 C1 2.636 . S
C1099 C614 2.943 . S
