# Generated by pormake.
# Topology ctn, (3,4)-cn, num edge types: 1
# Building blocks:
#     Node 0, Type 0, BuildingBlock: KAKCAD_clean_linker_0, # of connection points: 3
#     Node 1, Type 0, BuildingBlock: KAKCAD_clean_linker_0, # of connection points: 3
#     Node 2, Type 0, BuildingBlock: KAKCAD_clean_linker_0, # of connection points: 3
#     Node 3, Type 0, BuildingBlock: KAKCAD_clean_linker_0, # of connection points: 3
#     Node 4, Type 0, BuildingBlock: KAKCAD_clean_linker_0, # of connection points: 3
#     Node 5, Type 0, BuildingBlock: KAKCAD_clean_linker_0, # of connection points: 3
#     Node 6, Type 0, BuildingBlock: KAKCAD_clean_linker_0, # of connection points: 3
#     Node 7, Type 0, BuildingBlock: KAKCAD_clean_linker_0, # of connection points: 3
#     Node 8, Type 0, BuildingBlock: KAKCAD_clean_linker_0, # of connection points: 3
#     Node 9, Type 0, BuildingBlock: KAKCAD_clean_linker_0, # of connection points: 3
#     Node 10, Type 0, BuildingBlock: KAKCAD_clean_linker_0, # of connection points: 3
#     Node 11, Type 0, BuildingBlock: KAKCAD_clean_linker_0, # of connection points: 3
#     Node 12, Type 0, BuildingBlock: KAKCAD_clean_linker_0, # of connection points: 3
#     Node 13, Type 0, BuildingBlock: KAKCAD_clean_linker_0, # of connection points: 3
#     Node 14, Type 0, BuildingBlock: KAKCAD_clean_linker_0, # of connection points: 3
#     Node 15, Type 0, BuildingBlock: KAKCAD_clean_linker_0, # of connection points: 3
#     Node 16, Type 1, BuildingBlock: AZAVOO_clean_sbu_0, # of connection points: 4
#     Node 17, Type 1, BuildingBlock: AZAVOO_clean_sbu_0, # of connection points: 4
#     Node 18, Type 1, BuildingBlock: AZAVOO_clean_sbu_0, # of connection points: 4
#     Node 19, Type 1, BuildingBlock: AZAVOO_clean_sbu_0, # of connection points: 4
#     Node 20, Type 1, BuildingBlock: AZAVOO_clean_sbu_0, # of connection points: 4
#     Node 21, Type 1, BuildingBlock: AZAVOO_clean_sbu_0, # of connection points: 4
#     Node 22, Type 1, BuildingBlock: AZAVOO_clean_sbu_0, # of connection points: 4
#     Node 23, Type 1, BuildingBlock: AZAVOO_clean_sbu_0, # of connection points: 4
#     Node 24, Type 1, BuildingBlock: AZAVOO_clean_sbu_0, # of connection points: 4
#     Node 25, Type 1, BuildingBlock: AZAVOO_clean_sbu_0, # of connection points: 4
#     Node 26, Type 1, BuildingBlock: AZAVOO_clean_sbu_0, # of connection points: 4
#     Node 27, Type 1, BuildingBlock: AZAVOO_clean_sbu_0, # of connection points: 4
#     Edge 28, Type (0, 1), BuildingBlock: OJICUG_clean_linker_0, # of connection points: 2
#     Edge 29, Type (0, 1), BuildingBlock: OJICUG_clean_linker_0, # of connection points: 2
#     Edge 30, Type (0, 1), BuildingBlock: OJICUG_clean_linker_0, # of connection points: 2
#     Edge 31, Type (0, 1), BuildingBlock: OJICUG_clean_linker_0, # of connection points: 2
#     Edge 32, Type (0, 1), BuildingBlock: OJICUG_clean_linker_0, # of connection points: 2
#     Edge 33, Type (0, 1), BuildingBlock: OJICUG_clean_linker_0, # of connection points: 2
#     Edge 34, Type (0, 1), BuildingBlock: OJICUG_clean_linker_0, # of connection points: 2
#     Edge 35, Type (0, 1), BuildingBlock: OJICUG_clean_linker_0, # of connection points: 2
#     Edge 36, Type (0, 1), BuildingBlock: OJICUG_clean_linker_0, # of connection points: 2
#     Edge 37, Type (0, 1), BuildingBlock: OJICUG_clean_linker_0, # of connection points: 2
#     Edge 38, Type (0, 1), BuildingBlock: OJICUG_clean_linker_0, # of connection points: 2
#     Edge 39, Type (0, 1), BuildingBlock: OJICUG_clean_linker_0, # of connection points: 2
#     Edge 40, Type (0, 1), BuildingBlock: OJICUG_clean_linker_0, # of connection points: 2
#     Edge 41, Type (0, 1), BuildingBlock: OJICUG_clean_linker_0, # of connection points: 2
#     Edge 42, Type (0, 1), BuildingBlock: OJICUG_clean_linker_0, # of connection points: 2
#     Edge 43, Type (0, 1), BuildingBlock: OJICUG_clean_linker_0, # of connection points: 2
#     Edge 44, Type (0, 1), BuildingBlock: OJICUG_clean_linker_0, # of connection points: 2
#     Edge 45, Type (0, 1), BuildingBlock: OJICUG_clean_linker_0, # of connection points: 2
#     Edge 46, Type (0, 1), BuildingBlock: OJICUG_clean_linker_0, # of connection points: 2
#     Edge 47, Type (0, 1), BuildingBlock: OJICUG_clean_linker_0, # of connection points: 2
#     Edge 48, Type (0, 1), BuildingBlock: OJICUG_clean_linker_0, # of connection points: 2
#     Edge 49, Type (0, 1), BuildingBlock: OJICUG_clean_linker_0, # of connection points: 2
#     Edge 50, Type (0, 1), BuildingBlock: OJICUG_clean_linker_0, # of connection points: 2
#     Edge 51, Type (0, 1), BuildingBlock: OJICUG_clean_linker_0, # of connection points: 2
#     Edge 52, Type (0, 1), BuildingBlock: OJICUG_clean_linker_0, # of connection points: 2
#     Edge 53, Type (0, 1), BuildingBlock: OJICUG_clean_linker_0, # of connection points: 2
#     Edge 54, Type (0, 1), BuildingBlock: OJICUG_clean_linker_0, # of connection points: 2
#     Edge 55, Type (0, 1), BuildingBlock: OJICUG_clean_linker_0, # of connection points: 2
#     Edge 56, Type (0, 1), BuildingBlock: OJICUG_clean_linker_0, # of connection points: 2
#     Edge 57, Type (0, 1), BuildingBlock: OJICUG_clean_linker_0, # of connection points: 2
#     Edge 58, Type (0, 1), BuildingBlock: OJICUG_clean_linker_0, # of connection points: 2
#     Edge 59, Type (0, 1), BuildingBlock: OJICUG_clean_linker_0, # of connection points: 2
#     Edge 60, Type (0, 1), BuildingBlock: OJICUG_clean_linker_0, # of connection points: 2
#     Edge 61, Type (0, 1), BuildingBlock: OJICUG_clean_linker_0, # of connection points: 2
#     Edge 62, Type (0, 1), BuildingBlock: OJICUG_clean_linker_0, # of connection points: 2
#     Edge 63, Type (0, 1), BuildingBlock: OJICUG_clean_linker_0, # of connection points: 2
#     Edge 64, Type (0, 1), BuildingBlock: OJICUG_clean_linker_0, # of connection points: 2
#     Edge 65, Type (0, 1), BuildingBlock: OJICUG_clean_linker_0, # of connection points: 2
#     Edge 66, Type (0, 1), BuildingBlock: OJICUG_clean_linker_0, # of connection points: 2
#     Edge 67, Type (0, 1), BuildingBlock: OJICUG_clean_linker_0, # of connection points: 2
#     Edge 68, Type (0, 1), BuildingBlock: OJICUG_clean_linker_0, # of connection points: 2
#     Edge 69, Type (0, 1), BuildingBlock: OJICUG_clean_linker_0, # of connection points: 2
#     Edge 70, Type (0, 1), BuildingBlock: OJICUG_clean_linker_0, # of connection points: 2
#     Edge 71, Type (0, 1), BuildingBlock: OJICUG_clean_linker_0, # of connection points: 2
#     Edge 72, Type (0, 1), BuildingBlock: OJICUG_clean_linker_0, # of connection points: 2
#     Edge 73, Type (0, 1), BuildingBlock: OJICUG_clean_linker_0, # of connection points: 2
#     Edge 74, Type (0, 1), BuildingBlock: OJICUG_clean_linker_0, # of connection points: 2
#     Edge 75, Type (0, 1), BuildingBlock: OJICUG_clean_linker_0, # of connection points: 2
# Relax obj value: 0.002
# Max RMSD: 0.041
# Mean RMSD: 0.022
data_MOF--net-ctn--node1-AZAVOO_clean_sbu_0--node2-KAKCAD_clean_linker_0--edge1-OJICUG_clean_linker_0
_symmetry_space_group_name_H-M    P1
_symmetry_Int_Tables_number       1
_symmetry_cell_setting            triclinic
loop_
_symmetry_equiv_pos_as_xyz
'x, y, z'
_cell_length_a     51.709699
_cell_length_b     52.650844
_cell_length_c     52.548803
_cell_angle_alpha  90.184095
_cell_angle_beta   93.289177
_cell_angle_gamma 93.398009
loop_
_atom_site_label
_atom_site_type_symbol
_atom_site_fract_x
_atom_site_fract_y
_atom_site_fract_z
_atom_type_partial_charge
C0 C 0.04055 0.09699 0.94738 0.0
C1 C 0.03852 0.11962 0.96131 0.0
C2 C 0.04271 0.07372 0.96001 0.0
C3 C 0.04267 0.07274 0.98672 0.0
C4 C 0.04141 0.09543 0.00057 0.0
C5 C 0.03947 0.11854 0.98807 0.0
C6 C 0.04344 0.04837 0.00066 0.0
C7 C 0.06284 0.03144 0.99692 0.0
C8 C 0.06561 0.01028 0.01295 0.0
C9 C 0.04847 0.00614 0.03267 0.0
C10 C 0.02874 0.02284 0.03641 0.0
C11 C 0.02607 0.04344 0.01978 0.0
C12 C 0.01204 0.02018 0.05858 0.0
C13 C 0.00317 0.99616 0.06739 0.0
C14 C 0.00498 0.04208 0.07132 0.0
C15 C 0.98904 0.04012 0.0918 0.0
C16 C 0.98012 0.01622 0.1005 0.0
C17 C 0.08766 0.99374 0.01034 0.0
C18 C 0.09451 0.98572 0.9862 0.0
C19 C 0.10252 0.98647 0.03204 0.0
C20 C 0.1238 0.97166 0.02968 0.0
C21 C 0.13074 0.96369 0.00557 0.0
C22 C 0.11576 0.97075 0.98384 0.0
C23 C 0.9875 0.9942 0.0883 0.0
H24 H 0.03988 0.09719 0.92675 0.0
H25 H 0.04372 0.05645 0.94895 0.0
H26 H 0.04197 0.0953 0.02122 0.0
H27 H 0.0388 0.13564 0.99946 0.0
H28 H 0.07668 0.03559 0.98255 0.0
H29 H 0.01069 0.05625 0.02204 0.0
H30 H 0.05098 0.99031 0.0455 0.0
H31 H 0.00807 0.97891 0.058 0.0
H32 H 0.01207 0.06089 0.06576 0.0
H33 H 0.98418 0.05737 0.10126 0.0
H34 H 0.08336 0.99093 0.96913 0.0
H35 H 0.098 0.9926 0.05088 0.0
H36 H 0.9809 0.97553 0.09475 0.0
H37 H 0.12068 0.96501 0.965 0.0
H38 H 0.1347 0.96626 0.04683 0.0
C39 C 0.38411 0.7663 0.29567 0.0
C40 C 0.39468 0.74495 0.30732 0.0
C41 C 0.363 0.76324 0.27774 0.0
C42 C 0.35228 0.73877 0.27108 0.0
C43 C 0.36379 0.71749 0.28193 0.0
C44 C 0.3846 0.72055 0.29993 0.0
C45 C 0.3287 0.7351 0.25357 0.0
C46 C 0.3256 0.74963 0.2313 0.0
C47 C 0.30406 0.74462 0.21403 0.0
C48 C 0.28546 0.72506 0.2194 0.0
C49 C 0.2883 0.71039 0.24149 0.0
C50 C 0.30964 0.71596 0.25868 0.0
C51 C 0.27033 0.68788 0.2456 0.0
C52 C 0.24342 0.68859 0.24014 0.0
C53 C 0.28037 0.665 0.25417 0.0
C54 C 0.26405 0.6433 0.2569 0.0
C55 C 0.23724 0.64378 0.25097 0.0
C56 C 0.3015 0.75873 0.18968 0.0
C57 C 0.30608 0.7853 0.18895 0.0
C58 C 0.29383 0.74556 0.16694 0.0
C59 C 0.29006 0.75865 0.14415 0.0
C60 C 0.29403 0.78528 0.14341 0.0
C61 C 0.30231 0.79846 0.16604 0.0
C62 C 0.227 0.66675 0.24288 0.0
H63 H 0.39153 0.78533 0.30112 0.0
H64 H 0.35457 0.78001 0.26977 0.0
H65 H 0.35656 0.69835 0.27667 0.0
H66 H 0.39272 0.70377 0.30827 0.0
H67 H 0.34049 0.76402 0.22683 0.0
H68 H 0.31152 0.70511 0.27611 0.0
H69 H 0.26908 0.72079 0.20597 0.0
H70 H 0.23507 0.70599 0.23368 0.0
H71 H 0.30102 0.66364 0.25821 0.0
H72 H 0.27251 0.62604 0.2636 0.0
H73 H 0.31197 0.79596 0.20619 0.0
H74 H 0.29057 0.72504 0.16676 0.0
H75 H 0.20642 0.66768 0.23812 0.0
H76 H 0.30575 0.81895 0.16607 0.0
H77 H 0.28332 0.74788 0.12722 0.0
C78 C 0.0307 0.50285 0.13893 0.0
C79 C 0.05665 0.49864 0.13436 0.0
C80 C 0.01121 0.49963 0.11938 0.0
C81 C 0.01721 0.49223 0.09476 0.0
C82 C 0.04318 0.48821 0.09018 0.0
C83 C 0.06259 0.49123 0.10972 0.0
C84 C 0.99652 0.48838 0.07394 0.0
C85 C 0.97602 0.50472 0.0714 0.0
C86 C 0.95646 0.50109 0.05175 0.0
C87 C 0.9578 0.48099 0.03428 0.0
C88 C 0.97821 0.46452 0.03643 0.0
C89 C 0.99729 0.46825 0.05643 0.0
C90 C 0.97951 0.44298 0.01828 0.0
C91 C 0.95714 0.42769 0.01082 0.0
C92 C 0.00344 0.43686 0.00919 0.0
C93 C 0.00515 0.41538 0.99386 0.0
C94 C 0.98296 0.39952 0.98718 0.0
C95 C 0.93473 0.51838 0.04955 0.0
C96 C 0.92301 0.52628 0.07149 0.0
C97 C 0.92575 0.52738 0.02566 0.0
C98 C 0.90587 0.54432 0.02383 0.0
C99 C 0.89459 0.55265 0.04586 0.0
C100 C 0.9032 0.5432 0.06966 0.0
C101 C 0.95885 0.4062 0.99544 0.0
H102 H 0.02542 0.50883 0.15757 0.0
H103 H 0.99138 0.50263 0.12368 0.0
H104 H 0.04862 0.48283 0.0714 0.0
H105 H 0.08226 0.48744 0.10552 0.0
H106 H 0.97558 0.52068 0.08439 0.0
H107 H 0.01248 0.45499 0.05875 0.0
H108 H 0.94287 0.47808 0.01905 0.0
H109 H 0.93843 0.43181 0.01758 0.0
H110 H 0.02097 0.44848 0.01428 0.0
H111 H 0.02407 0.41071 0.98805 0.0
H112 H 0.9291 0.5193 0.09012 0.0
H113 H 0.93454 0.52187 0.00842 0.0
H114 H 0.94132 0.39457 0.99036 0.0
H115 H 0.89459 0.54889 0.08695 0.0
H116 H 0.89987 0.55146 0.00525 0.0
C117 C 0.69619 0.75913 0.14189 0.0
C118 C 0.71942 0.7465 0.14223 0.0
C119 C 0.69276 0.77797 0.16005 0.0
C120 C 0.71266 0.78473 0.17859 0.0
C121 C 0.73558 0.77166 0.17929 0.0
C122 C 0.73889 0.7527 0.16137 0.0
C123 C 0.71014 0.80605 0.19657 0.0
C124 C 0.68792 0.8075 0.21048 0.0
C125 C 0.68611 0.82722 0.22834 0.0
C126 C 0.70658 0.84602 0.23155 0.0
C127 C 0.72889 0.84473 0.2177 0.0
C128 C 0.73051 0.8247 0.20033 0.0
C129 C 0.75102 0.86374 0.22163 0.0
C130 C 0.7474 0.88988 0.21958 0.0
C131 C 0.77621 0.85561 0.22624 0.0
C132 C 0.79749 0.87321 0.22811 0.0
C133 C 0.79415 0.89937 0.22503 0.0
C134 C 0.66386 0.82678 0.24503 0.0
C135 C 0.63851 0.8202 0.23514 0.0
C136 C 0.66816 0.83094 0.2714 0.0
C137 C 0.64783 0.82742 0.28766 0.0
C138 C 0.62268 0.81969 0.27792 0.0
C139 C 0.61813 0.81673 0.2514 0.0
C140 C 0.76879 0.90754 0.22111 0.0
H141 H 0.68082 0.75464 0.12742 0.0
H142 H 0.67492 0.78781 0.15909 0.0
H143 H 0.75112 0.77633 0.19355 0.0
H144 H 0.75712 0.74352 0.16196 0.0
H145 H 0.6726 0.79256 0.20826 0.0
H146 H 0.74763 0.82381 0.18944 0.0
H147 H 0.70545 0.86131 0.24523 0.0
H148 H 0.72814 0.89657 0.21588 0.0
H149 H 0.77945 0.83556 0.22827 0.0
H150 H 0.81661 0.86622 0.23186 0.0
H151 H 0.63452 0.81723 0.21485 0.0
H152 H 0.68752 0.83569 0.27968 0.0
H153 H 0.76546 0.92749 0.21843 0.0
H154 H 0.5989 0.8112 0.24323 0.0
H155 H 0.65214 0.8295 0.30799 0.0
C156 C 0.975 0.98782 0.40749 0.0
C157 C 0.98767 0.99325 0.38503 0.0
C158 C 0.98941 0.98566 0.43075 0.0
C159 C 0.01663 0.9894 0.43191 0.0
C160 C 0.02908 0.99565 0.4095 0.0
C161 C 0.01478 0.99744 0.38634 0.0
C162 C 0.03247 0.98561 0.45591 0.0
C163 C 0.02862 0.96342 0.47023 0.0
C164 C 0.04573 0.95814 0.49107 0.0
C165 C 0.06665 0.97566 0.49785 0.0
C166 C 0.07082 0.998 0.48364 0.0
C167 C 0.05328 0.00294 0.46304 0.0
C168 C 0.09411 0.01566 0.4891 0.0
C169 C 0.10319 0.02188 0.51426 0.0
C170 C 0.10706 0.02708 0.46884 0.0
C171 C 0.12746 0.0453 0.47352 0.0
C172 C 0.13579 0.05228 0.49857 0.0
C173 C 0.04309 0.93321 0.50408 0.0
C174 C 0.04446 0.93152 0.53083 0.0
C175 C 0.03949 0.91073 0.48951 0.0
C176 C 0.03738 0.88709 0.50134 0.0
C177 C 0.03866 0.8853 0.52805 0.0
C178 C 0.04202 0.90775 0.54273 0.0
C179 C 0.12395 0.03998 0.51895 0.0
H180 H 0.95411 0.98442 0.4069 0.0
H181 H 0.97935 0.98089 0.44777 0.0
H182 H 0.05002 0.99836 0.40971 0.0
H183 H 0.02498 0.00176 0.36929 0.0
H184 H 0.01285 0.94972 0.46452 0.0
H185 H 0.05597 0.02025 0.45216 0.0
H186 H 0.08044 0.97118 0.51326 0.0
H187 H 0.09368 0.01347 0.5303 0.0
H188 H 0.10122 0.02219 0.44923 0.0
H189 H 0.13654 0.05427 0.4575 0.0
H190 H 0.04718 0.94857 0.54249 0.0
H191 H 0.03866 0.9114 0.46888 0.0
H192 H 0.12999 0.04516 0.53845 0.0
H193 H 0.04314 0.9069 0.56335 0.0
H194 H 0.03452 0.87014 0.48952 0.0
C195 C 0.128 0.68274 0.70147 0.0
C196 C 0.1192 0.70702 0.69627 0.0
C197 C 0.14741 0.67941 0.72059 0.0
C198 C 0.1588 0.70034 0.73475 0.0
C199 C 0.14971 0.72462 0.72966 0.0
C200 C 0.13002 0.72788 0.71076 0.0
C201 C 0.18028 0.69688 0.75443 0.0
C202 C 0.199 0.67903 0.75058 0.0
C203 C 0.21934 0.67564 0.76894 0.0
C204 C 0.22091 0.69039 0.7913 0.0
C205 C 0.20254 0.70831 0.79557 0.0
C206 C 0.18231 0.71147 0.77707 0.0
C207 C 0.20493 0.72366 0.81944 0.0
C208 C 0.21122 0.71197 0.84279 0.0
C209 C 0.20269 0.75016 0.81895 0.0
C210 C 0.20802 0.7648 0.84118 0.0
C211 C 0.21573 0.75315 0.86419 0.0
C212 C 0.23905 0.65675 0.76495 0.0
C213 C 0.23156 0.63224 0.75553 0.0
C214 C 0.26549 0.66291 0.77121 0.0
C215 C 0.28398 0.64497 0.76826 0.0
C216 C 0.27652 0.62038 0.75901 0.0
C217 C 0.25007 0.61425 0.75264 0.0
C218 C 0.21656 0.72653 0.86487 0.0
H219 H 0.11976 0.66628 0.69079 0.0
H220 H 0.15341 0.66035 0.7243 0.0
H221 H 0.15822 0.74126 0.73984 0.0
H222 H 0.12379 0.74685 0.70695 0.0
H223 H 0.19821 0.66819 0.73297 0.0
H224 H 0.16781 0.72487 0.78066 0.0
H225 H 0.23657 0.6879 0.80551 0.0
H226 H 0.21251 0.69154 0.8439 0.0
H227 H 0.19794 0.75969 0.80121 0.0
H228 H 0.20724 0.78528 0.84012 0.0
H229 H 0.21131 0.62679 0.75087 0.0
H230 H 0.27196 0.68176 0.77814 0.0
H231 H 0.22185 0.71696 0.88246 0.0
H232 H 0.24358 0.59541 0.74573 0.0
H233 H 0.30421 0.65055 0.77286 0.0
C234 C 0.97588 0.60292 0.48636 0.0
C235 C 0.97687 0.6012 0.51312 0.0
C236 C 0.9719 0.58108 0.47115 0.0
C237 C 0.96861 0.55697 0.48227 0.0
C238 C 0.96971 0.55515 0.50899 0.0
C239 C 0.97388 0.577 0.52424 0.0
C240 C 0.96353 0.53391 0.46597 0.0
C241 C 0.97795 0.53046 0.4445 0.0
C242 C 0.97284 0.50906 0.4285 0.0
C243 C 0.95282 0.49106 0.43415 0.0
C244 C 0.93829 0.49418 0.45564 0.0
C245 C 0.94388 0.51556 0.4715 0.0
C246 C 0.91714 0.47526 0.46162 0.0
C247 C 0.89806 0.46703 0.44278 0.0
C248 C 0.91567 0.46565 0.48644 0.0
C249 C 0.89567 0.44799 0.49227 0.0
C250 C 0.87652 0.43982 0.47348 0.0
C251 C 0.98872 0.5056 0.40613 0.0
C252 C 0.99556 0.52646 0.39078 0.0
C253 C 0.99801 0.48176 0.40053 0.0
C254 C 0.01437 0.47904 0.38048 0.0
C255 C 0.02169 0.50007 0.3655 0.0
C256 C 0.01184 0.52375 0.37076 0.0
C257 C 0.87781 0.44962 0.44871 0.0
H258 H 0.97755 0.62122 0.47708 0.0
H259 H 0.97077 0.58313 0.45061 0.0
H260 H 0.96754 0.53678 0.51811 0.0
H261 H 0.97491 0.5749 0.54476 0.0
H262 H 0.99362 0.54423 0.4406 0.0
H263 H 0.93235 0.5183 0.48777 0.0
H264 H 0.94855 0.47458 0.42187 0.0
H265 H 0.89864 0.47431 0.42355 0.0
H266 H 0.93017 0.47161 0.5013 0.0
H267 H 0.89507 0.44084 0.51155 0.0
H268 H 0.9885 0.54503 0.39438 0.0
H269 H 0.99323 0.46534 0.41209 0.0
H270 H 0.86339 0.44348 0.43384 0.0
H271 H 0.01729 0.54045 0.35987 0.0
H272 H 0.02143 0.46049 0.37681 0.0
C273 C 0.8086 0.72092 0.85986 0.0
C274 C 0.78363 0.71874 0.86936 0.0
C275 C 0.81338 0.73534 0.8381 0.0
C276 C 0.79322 0.74753 0.82485 0.0
C277 C 0.76803 0.74415 0.83355 0.0
C278 C 0.76339 0.73037 0.85562 0.0
C279 C 0.79842 0.76455 0.80278 0.0
C280 C 0.81787 0.75964 0.78602 0.0
C281 C 0.82311 0.77611 0.76566 0.0
C282 C 0.80811 0.79733 0.76172 0.0
C283 C 0.78846 0.80249 0.77806 0.0
C284 C 0.78411 0.78625 0.7987 0.0
C285 C 0.77266 0.82502 0.77385 0.0
C286 C 0.78429 0.84839 0.76635 0.0
C287 C 0.74583 0.82337 0.77746 0.0
C288 C 0.73102 0.84459 0.77362 0.0
C289 C 0.74268 0.86785 0.7659 0.0
C290 C 0.84446 0.7714 0.74866 0.0
C291 C 0.86837 0.76337 0.7588 0.0
C292 C 0.8413 0.77541 0.72224 0.0
C293 C 0.86155 0.77162 0.7064 0.0
C294 C 0.88547 0.76363 0.71653 0.0
C295 C 0.88861 0.75949 0.74292 0.0
C296 C 0.76949 0.86951 0.76238 0.0
H297 H 0.82467 0.71184 0.86939 0.0
H298 H 0.8331 0.73751 0.83219 0.0
H299 H 0.75177 0.75253 0.82357 0.0
H300 H 0.74394 0.72967 0.86224 0.0
H301 H 0.82869 0.74275 0.7885 0.0
H302 H 0.76993 0.79104 0.81204 0.0
H303 H 0.81185 0.80997 0.74596 0.0
H304 H 0.80496 0.85051 0.7639 0.0
H305 H 0.73617 0.80558 0.78293 0.0
H306 H 0.71038 0.84267 0.77628 0.0
H307 H 0.87163 0.76049 0.7791 0.0
H308 H 0.82302 0.78118 0.71372 0.0
H309 H 0.77915 0.88731 0.75691 0.0
H310 H 0.90687 0.75357 0.75137 0.0
H311 H 0.85831 0.77451 0.68609 0.0
C312 C 0.30682 0.21906 0.35976 0.0
C313 C 0.28179 0.21645 0.36906 0.0
C314 C 0.31149 0.23346 0.33796 0.0
C315 C 0.29116 0.24516 0.32448 0.0
C316 C 0.26593 0.24132 0.33297 0.0
C317 C 0.26138 0.22758 0.35508 0.0
C318 C 0.29622 0.26216 0.30236 0.0
C319 C 0.31598 0.25757 0.28587 0.0
C320 C 0.32117 0.27406 0.26551 0.0
C321 C 0.30573 0.29492 0.26125 0.0
C322 C 0.28574 0.29975 0.27731 0.0
C323 C 0.28149 0.28353 0.298 0.0
C324 C 0.26951 0.32194 0.27283 0.0
C325 C 0.28075 0.34543 0.26515 0.0
C326 C 0.24267 0.31989 0.2764 0.0
C327 C 0.22749 0.34082 0.27243 0.0
C328 C 0.23877 0.36419 0.26456 0.0
C329 C 0.34293 0.26974 0.24891 0.0
C330 C 0.36685 0.26211 0.25947 0.0
C331 C 0.34015 0.27363 0.22245 0.0
C332 C 0.36076 0.27009 0.20698 0.0
C333 C 0.38465 0.26245 0.21754 0.0
C334 C 0.38744 0.25846 0.24396 0.0
C335 C 0.26557 0.36625 0.26101 0.0
H336 H 0.32302 0.21037 0.36948 0.0
H337 H 0.33125 0.23598 0.33223 0.0
H338 H 0.24955 0.24933 0.3228 0.0
H339 H 0.24186 0.22654 0.36154 0.0
H340 H 0.32712 0.24092 0.28856 0.0
H341 H 0.26707 0.28809 0.31116 0.0
H342 H 0.30942 0.30756 0.24548 0.0
H343 H 0.3014 0.34789 0.26273 0.0
H344 H 0.2333 0.30199 0.28199 0.0
H345 H 0.20687 0.33861 0.27513 0.0
H346 H 0.36982 0.25935 0.27982 0.0
H347 H 0.32189 0.2791 0.2136 0.0
H348 H 0.27493 0.38416 0.25543 0.0
H349 H 0.40567 0.25282 0.25272 0.0
H350 H 0.35781 0.27286 0.18662 0.0
C351 C 0.53012 0.99657 0.64252 0.0
C352 C 0.55601 0.0029 0.6368 0.0
C353 C 0.51036 0.99451 0.62311 0.0
C354 C 0.51616 0.99828 0.59761 0.0
C355 C 0.54177 0.00503 0.59183 0.0
C356 C 0.56141 0.00763 0.6112 0.0
C357 C 0.49594 0.9936 0.57681 0.0
C358 C 0.47375 0.00775 0.57515 0.0
C359 C 0.45466 0.00322 0.5552 0.0
C360 C 0.45788 0.98389 0.53729 0.0
C361 C 0.47984 0.96935 0.53893 0.0
C362 C 0.49892 0.97459 0.55865 0.0
C363 C 0.48232 0.94794 0.52084 0.0
C364 C 0.46057 0.93177 0.51339 0.0
C365 C 0.50657 0.94275 0.51183 0.0
C366 C 0.50918 0.92132 0.4966 0.0
C367 C 0.48758 0.90466 0.48996 0.0
C368 C 0.43134 0.01855 0.55287 0.0
C369 C 0.41872 0.02561 0.57459 0.0
C370 C 0.42133 0.02601 0.52877 0.0
C371 C 0.39921 0.04 0.5264 0.0
C372 C 0.38662 0.04715 0.5481 0.0
C373 C 0.39667 0.03978 0.57223 0.0
C374 C 0.46315 0.91049 0.49805 0.0
H375 H 0.52513 0.99245 0.66186 0.0
H376 H 0.49072 0.98906 0.62792 0.0
H377 H 0.5466 0.00819 0.57225 0.0
H378 H 0.58086 0.01327 0.60599 0.0
H379 H 0.47178 0.02267 0.58904 0.0
H380 H 0.51575 0.96326 0.56053 0.0
H381 H 0.44311 0.97998 0.5221 0.0
H382 H 0.44163 0.93502 0.52012 0.0
H383 H 0.52365 0.95503 0.51687 0.0
H384 H 0.52831 0.91733 0.49085 0.0
H385 H 0.42571 0.01997 0.59343 0.0
H386 H 0.43072 0.02125 0.51163 0.0
H387 H 0.44603 0.89828 0.49295 0.0
H388 H 0.38772 0.04524 0.5894 0.0
H389 H 0.3919 0.04505 0.50749 0.0
C390 C 0.22215 0.27789 0.63312 0.0
C391 C 0.21653 0.25197 0.63802 0.0
C392 C 0.2191 0.29628 0.65168 0.0
C393 C 0.21039 0.28924 0.67562 0.0
C394 C 0.2041 0.26341 0.68038 0.0
C395 C 0.20723 0.24493 0.66178 0.0
C396 C 0.20897 0.30878 0.69581 0.0
C397 C 0.18754 0.30891 0.711 0.0
C398 C 0.18635 0.3274 0.73024 0.0
C399 C 0.20693 0.346 0.73406 0.0
C400 C 0.22864 0.3458 0.71922 0.0
C401 C 0.22948 0.3272 0.70018 0.0
C402 C 0.25089 0.36456 0.72359 0.0
C403 C 0.2474 0.39077 0.72251 0.0
C404 C 0.27607 0.35618 0.7273 0.0
C405 C 0.29748 0.37362 0.72922 0.0
C406 C 0.29427 0.3999 0.72704 0.0
C407 C 0.16423 0.32622 0.74711 0.0
C408 C 0.13875 0.32068 0.73698 0.0
C409 C 0.16866 0.32877 0.77365 0.0
C410 C 0.14827 0.32467 0.78977 0.0
C411 C 0.12298 0.31796 0.7797 0.0
C412 C 0.11835 0.31661 0.7531 0.0
C413 C 0.2689 0.40829 0.72406 0.0
H414 H 0.22969 0.28396 0.61518 0.0
H415 H 0.22384 0.31607 0.64738 0.0
H416 H 0.1975 0.25741 0.69872 0.0
H417 H 0.20257 0.22513 0.66605 0.0
H418 H 0.17189 0.2944 0.70802 0.0
H419 H 0.24634 0.32699 0.68884 0.0
H420 H 0.2063 0.36035 0.74882 0.0
H421 H 0.22814 0.39764 0.71949 0.0
H422 H 0.27919 0.33603 0.7285 0.0
H423 H 0.3166 0.36643 0.73225 0.0
H424 H 0.13466 0.31903 0.71657 0.0
H425 H 0.1881 0.33274 0.78205 0.0
H426 H 0.26564 0.42833 0.72208 0.0
H427 H 0.09903 0.31191 0.74473 0.0
H428 H 0.15258 0.32554 0.81018 0.0
C429 C 0.88286 0.26363 0.79408 0.0
C430 C 0.89304 0.24136 0.80408 0.0
C431 C 0.86154 0.26217 0.77637 0.0
C432 C 0.85014 0.23839 0.76817 0.0
C433 C 0.8611 0.21617 0.77748 0.0
C434 C 0.88217 0.21764 0.79535 0.0
C435 C 0.8264 0.23662 0.75068 0.0
C436 C 0.82337 0.25356 0.7302 0.0
C437 C 0.80091 0.25167 0.71378 0.0
C438 C 0.78163 0.23239 0.71761 0.0
C439 C 0.78444 0.21517 0.73771 0.0
C440 C 0.80664 0.21767 0.75439 0.0
C441 C 0.76501 0.19364 0.74043 0.0
C442 C 0.75595 0.1872 0.76442 0.0
C443 C 0.75649 0.17852 0.71916 0.0
C444 C 0.74005 0.15683 0.72196 0.0
C445 C 0.73159 0.14996 0.74606 0.0
C446 C 0.7977 0.26904 0.69188 0.0
C447 C 0.77423 0.28079 0.68726 0.0
C448 C 0.81718 0.2724 0.67443 0.0
C449 C 0.81269 0.28618 0.65206 0.0
C450 C 0.7888 0.29711 0.64696 0.0
C451 C 0.76986 0.2948 0.66508 0.0
C452 C 0.73927 0.16563 0.76718 0.0
H453 H 0.89078 0.28216 0.80065 0.0
H454 H 0.85349 0.27966 0.76977 0.0
H455 H 0.85329 0.19754 0.7711 0.0
H456 H 0.88992 0.20018 0.80247 0.0
H457 H 0.8385 0.2681 0.72688 0.0
H458 H 0.80868 0.20447 0.77006 0.0
H459 H 0.76454 0.23051 0.70463 0.0
H460 H 0.76208 0.19865 0.78109 0.0
H461 H 0.76332 0.18293 0.70048 0.0
H462 H 0.73429 0.14515 0.70535 0.0
H463 H 0.75898 0.2786 0.70052 0.0
H464 H 0.83539 0.26341 0.67753 0.0
H465 H 0.7332 0.16066 0.78601 0.0
H466 H 0.75118 0.3028 0.66157 0.0
H467 H 0.82767 0.2878 0.63846 0.0
C468 C 0.53881 0.60108 0.4486 0.0
C469 C 0.53712 0.62378 0.46251 0.0
C470 C 0.54039 0.57776 0.46125 0.0
C471 C 0.54009 0.57678 0.48795 0.0
C472 C 0.539 0.5995 0.50177 0.0
C473 C 0.53766 0.62267 0.48926 0.0
C474 C 0.54094 0.5524 0.50189 0.0
C475 C 0.56013 0.53539 0.4977 0.0
C476 C 0.56315 0.51419 0.5136 0.0
C477 C 0.54645 0.51006 0.53367 0.0
C478 C 0.52688 0.52682 0.53789 0.0
C479 C 0.52398 0.54752 0.5214 0.0
C480 C 0.51058 0.52404 0.56037 0.0
C481 C 0.50193 0.49995 0.5692 0.0
C482 C 0.5037 0.54584 0.57339 0.0
C483 C 0.48822 0.54371 0.59422 0.0
C484 C 0.47956 0.51973 0.60297 0.0
C485 C 0.58508 0.49763 0.51044 0.0
C486 C 0.59138 0.48971 0.48608 0.0
C487 C 0.60049 0.49043 0.53179 0.0
C488 C 0.62182 0.47583 0.52887 0.0
C489 C 0.62826 0.46801 0.50453 0.0
C490 C 0.61267 0.47495 0.48316 0.0
C491 C 0.48672 0.49782 0.59043 0.0
H492 H 0.5384 0.60128 0.42798 0.0
H493 H 0.54128 0.56047 0.45019 0.0
H494 H 0.5394 0.59939 0.52241 0.0
H495 H 0.53723 0.6398 0.50066 0.0
H496 H 0.57368 0.53951 0.48306 0.0
H497 H 0.50875 0.5604 0.52404 0.0
H498 H 0.54918 0.49418 0.5464 0.0
H499 H 0.50667 0.48276 0.55958 0.0
H500 H 0.51062 0.5647 0.5678 0.0
H501 H 0.4835 0.56089 0.6039 0.0
H502 H 0.57978 0.49488 0.46928 0.0
H503 H 0.59639 0.49649 0.55078 0.0
H504 H 0.4803 0.47909 0.59687 0.0
H505 H 0.61718 0.4693 0.46416 0.0
H506 H 0.6332 0.4705 0.54575 0.0
C507 C 0.47566 0.48526 0.90995 0.0
C508 C 0.48813 0.48935 0.88712 0.0
C509 C 0.4903 0.48356 0.93314 0.0
C510 C 0.51755 0.48648 0.93385 0.0
C511 C 0.52985 0.49113 0.91103 0.0
C512 C 0.51532 0.49243 0.88795 0.0
C513 C 0.53356 0.48411 0.95799 0.0
C514 C 0.52982 0.46291 0.97375 0.0
C515 C 0.547 0.45906 0.99498 0.0
C516 C 0.5679 0.47703 0.00045 0.0
C517 C 0.57181 0.49848 0.98492 0.0
C518 C 0.55423 0.50195 0.96399 0.0
C519 C 0.59465 0.51688 0.98976 0.0
C520 C 0.60363 0.52399 0.01474 0.0
C521 C 0.60735 0.52796 0.96917 0.0
C522 C 0.62757 0.5465 0.97335 0.0
C523 C 0.63598 0.55408 0.99821 0.0
C524 C 0.54417 0.43528 0.01012 0.0
C525 C 0.5195 0.42499 0.01593 0.0
C526 C 0.56607 0.42191 0.01762 0.0
C527 C 0.56329 0.39842 0.0298 0.0
C528 C 0.53855 0.38765 0.03472 0.0
C529 C 0.51672 0.40146 0.02808 0.0
C530 C 0.62423 0.54232 0.01891 0.0
H531 H 0.45471 0.48275 0.90974 0.0
H532 H 0.48037 0.48003 0.9505 0.0
H533 H 0.55081 0.49321 0.91095 0.0
H534 H 0.52539 0.49576 0.87064 0.0
H535 H 0.51439 0.44867 0.9686 0.0
H536 H 0.55667 0.51857 0.95205 0.0
H537 H 0.58144 0.47399 0.01649 0.0
H538 H 0.59426 0.51601 0.03105 0.0
H539 H 0.60159 0.52245 0.94971 0.0
H540 H 0.63657 0.55509 0.95709 0.0
H541 H 0.50226 0.43493 0.01069 0.0
H542 H 0.58535 0.42911 0.01326 0.0
H543 H 0.63032 0.548 0.03827 0.0
H544 H 0.49735 0.39366 0.03138 0.0
H545 H 0.58055 0.38847 0.03495 0.0
C546 C 0.63339 0.18597 0.1997 0.0
C547 C 0.62257 0.20955 0.19546 0.0
C548 C 0.65334 0.18346 0.21848 0.0
C549 C 0.6632 0.20455 0.23331 0.0
C550 C 0.65218 0.22812 0.2291 0.0
C551 C 0.63201 0.23054 0.21052 0.0
C552 C 0.68503 0.20206 0.25285 0.0
C553 C 0.70531 0.18607 0.24841 0.0
C554 C 0.72612 0.18401 0.26656 0.0
C555 C 0.72641 0.19787 0.2894 0.0
C556 C 0.70647 0.21382 0.29428 0.0
C557 C 0.68588 0.21589 0.27595 0.0
C558 C 0.70777 0.22844 0.31856 0.0
C559 C 0.71459 0.21641 0.34158 0.0
C560 C 0.70428 0.25472 0.31873 0.0
C561 C 0.70893 0.26891 0.34132 0.0
C562 C 0.71713 0.25701 0.36406 0.0
C563 C 0.74795 0.16779 0.26185 0.0
C564 C 0.74335 0.14266 0.25285 0.0
C565 C 0.77368 0.17713 0.26746 0.0
C566 C 0.79432 0.16167 0.2645 0.0
C567 C 0.78979 0.13641 0.25589 0.0
C568 C 0.76406 0.12707 0.25003 0.0
C569 C 0.71917 0.23051 0.36404 0.0
H570 H 0.62629 0.16939 0.18856 0.0
H571 H 0.66091 0.16489 0.22147 0.0
H572 H 0.6595 0.24492 0.23977 0.0
H573 H 0.62427 0.24903 0.20745 0.0
H574 H 0.70542 0.17584 0.2305 0.0
H575 H 0.67027 0.22786 0.28 0.0
H576 H 0.74242 0.19635 0.30346 0.0
H577 H 0.71692 0.1961 0.3421 0.0
H578 H 0.69913 0.26448 0.30122 0.0
H579 H 0.70721 0.2893 0.34075 0.0
H580 H 0.72371 0.13491 0.24853 0.0
H581 H 0.77788 0.19648 0.27422 0.0
H582 H 0.72479 0.22067 0.38139 0.0
H583 H 0.75996 0.10778 0.24309 0.0
H584 H 0.81387 0.1694 0.26936 0.0
C585 C 0.47643 0.10293 0.98761 0.0
C586 C 0.47667 0.10127 0.01436 0.0
C587 C 0.47271 0.08106 0.9724 0.0
C588 C 0.46888 0.05702 0.98352 0.0
C589 C 0.46905 0.05526 0.0102 0.0
C590 C 0.47302 0.07712 0.02546 0.0
C591 C 0.46472 0.03384 0.9673 0.0
C592 C 0.48067 0.03007 0.94709 0.0
C593 C 0.47693 0.00826 0.93153 0.0
C594 C 0.45706 0.9899 0.93665 0.0
C595 C 0.44053 0.99347 0.95664 0.0
C596 C 0.44461 0.01561 0.97181 0.0
C597 C 0.41879 0.97444 0.96149 0.0
C598 C 0.40521 0.9609 0.94121 0.0
C599 C 0.41119 0.9698 0.98648 0.0
C600 C 0.39054 0.95235 0.991 0.0
C601 C 0.37737 0.93872 0.97075 0.0
C602 C 0.49363 0.00508 0.90974 0.0
C603 C 0.49978 0.0259 0.89408 0.0
C604 C 0.50393 0.98157 0.90466 0.0
C605 C 0.52044 0.97912 0.88467 0.0
C606 C 0.52684 0.0001 0.86924 0.0
C607 C 0.51617 0.02345 0.87414 0.0
C608 C 0.38493 0.94305 0.94584 0.0
H609 H 0.47861 0.12119 0.97832 0.0
H610 H 0.47235 0.08302 0.95187 0.0
H611 H 0.46645 0.03692 0.01929 0.0
H612 H 0.47347 0.07503 0.04596 0.0
H613 H 0.49639 0.04399 0.94375 0.0
H614 H 0.43169 0.01916 0.98676 0.0
H615 H 0.45438 0.97294 0.92486 0.0
H616 H 0.40998 0.96425 0.92167 0.0
H617 H 0.42141 0.97934 0.00269 0.0
H618 H 0.38527 0.94904 0.01042 0.0
H619 H 0.49193 0.04419 0.89727 0.0
H620 H 0.49967 0.9652 0.91648 0.0
H621 H 0.37494 0.93279 0.92991 0.0
H622 H 0.52095 0.04011 0.86291 0.0
H623 H 0.52819 0.96083 0.8813 0.0
Mg624 Mg 0.23777 0.84319 0.00635 0.0
O625 O 0.27544 0.86633 0.99722 0.0
O626 O 0.30674 0.83868 0.99768 0.0
Mg627 Mg 0.29048 0.79952 0.00953 0.0
C628 C 0.29895 0.86106 0.9944 0.0
C629 C 0.21507 0.89633 0.00551 0.0
O630 O 0.23411 0.89956 0.02309 0.0
O631 O 0.23527 0.82458 0.96663 0.0
O632 O 0.26609 0.79671 0.97174 0.0
O633 O 0.24551 0.8505 0.04819 0.0
O634 O 0.25927 0.81773 0.02779 0.0
C635 C 0.24779 0.80634 0.95831 0.0
C636 C 0.25853 0.83025 0.04878 0.0
O637 O 0.21237 0.87534 0.99334 0.0
Mg638 Mg 0.15777 0.50545 0.27589 0.0
O639 O 0.13454 0.50487 0.23709 0.0
O640 O 0.16269 0.51185 0.20681 0.0
Mg641 Mg 0.20362 0.51603 0.22557 0.0
C642 C 0.13955 0.50775 0.21371 0.0
C643 C 0.10117 0.50282 0.29243 0.0
O644 O 0.10087 0.52113 0.27551 0.0
O645 O 0.17134 0.46542 0.26829 0.0
O646 O 0.20013 0.47468 0.239 0.0
O647 O 0.15676 0.54802 0.27868 0.0
O648 O 0.18756 0.52815 0.261 0.0
C649 C 0.18857 0.45877 0.25345 0.0
C650 C 0.17797 0.54927 0.26671 0.0
O651 O 0.12176 0.49094 0.29617 0.0
Mg652 Mg 0.77305 0.66107 0.02664 0.0
O653 O 0.73571 0.63509 0.01932 0.0
O654 O 0.70351 0.66091 0.01074 0.0
Mg655 Mg 0.71926 0.7022 0.0136 0.0
C656 C 0.71185 0.63869 0.01349 0.0
C657 C 0.81797 0.62873 0.04013 0.0
O658 O 0.82061 0.64814 0.05605 0.0
O659 O 0.77471 0.66981 0.98422 0.0
O660 O 0.74202 0.6956 0.97799 0.0
O661 O 0.7659 0.66335 0.06792 0.0
O662 O 0.75144 0.69033 0.03915 0.0
C663 C 0.76084 0.68382 0.96987 0.0
C664 C 0.7526 0.6829 0.06249 0.0
O665 O 0.79879 0.62756 0.02382 0.0
Mg666 Mg 0.91031 0.02895 0.23733 0.0
O667 O 0.88292 0.99316 0.23237 0.0
O668 O 0.90687 0.96057 0.22381 0.0
Mg669 Mg 0.94938 0.97513 0.22364 0.0
C670 C 0.88501 0.96964 0.22743 0.0
C671 C 0.87667 0.07361 0.24324 0.0
O672 O 0.89546 0.08217 0.22918 0.0
O673 O 0.92415 0.01572 0.27723 0.0
O674 O 0.94932 0.98485 0.26625 0.0
O675 O 0.90751 0.03621 0.19537 0.0
O676 O 0.93719 0.01328 0.21429 0.0
C677 C 0.94004 0.99866 0.28316 0.0
C678 C 0.92706 0.02221 0.19351 0.0
O679 O 0.87719 0.05102 0.25169 0.0
Mg680 Mg 0.27146 0.16142 0.52722 0.0
O681 O 0.23456 0.13452 0.52051 0.0
O682 O 0.20209 0.15978 0.511 0.0
Mg683 Mg 0.21691 0.20134 0.51283 0.0
C684 C 0.21066 0.13773 0.51439 0.0
C685 C 0.2992 0.11133 0.5414 0.0
O686 O 0.28286 0.11091 0.55966 0.0
O687 O 0.27288 0.16913 0.48457 0.0
O688 O 0.23982 0.19433 0.47748 0.0
O689 O 0.26435 0.16509 0.56858 0.0
O690 O 0.24926 0.19049 0.53865 0.0
C691 C 0.25886 0.18258 0.46978 0.0
C692 C 0.25066 0.18415 0.5623 0.0
O693 O 0.29819 0.12872 0.52471 0.0
Mg694 Mg 0.41051 0.52908 0.74088 0.0
O695 O 0.38345 0.4932 0.73499 0.0
O696 O 0.4072 0.46084 0.72528 0.0
Mg697 Mg 0.44966 0.47574 0.72547 0.0
C698 C 0.38541 0.46983 0.72935 0.0
C699 C 0.35681 0.55108 0.74125 0.0
O700 O 0.35596 0.53874 0.71942 0.0
O701 O 0.42439 0.51461 0.78028 0.0
O702 O 0.44948 0.48402 0.7684 0.0
O703 O 0.40786 0.53768 0.69914 0.0
O704 O 0.43749 0.51422 0.71732 0.0
C705 C 0.44016 0.49732 0.78571 0.0
C706 C 0.42741 0.52379 0.69683 0.0
O707 O 0.37705 0.55023 0.75615 0.0
Mg708 Mg 0.73377 0.34747 0.506 0.0
O709 O 0.77248 0.3693 0.49758 0.0
O710 O 0.80334 0.34139 0.50264 0.0
Mg711 Mg 0.78516 0.30254 0.51294 0.0
C712 C 0.79623 0.36372 0.49755 0.0
C713 C 0.71274 0.40113 0.50311 0.0
O714 O 0.73172 0.40431 0.52076 0.0
O715 O 0.73244 0.32803 0.46694 0.0
O716 O 0.76292 0.30006 0.47375 0.0
O717 O 0.74015 0.35603 0.54765 0.0
O718 O 0.75361 0.32199 0.52913 0.0
C719 C 0.74529 0.30971 0.45941 0.0
C720 C 0.75263 0.33547 0.54949 0.0
O721 O 0.70969 0.37993 0.49133 0.0
Mg722 Mg 0.66062 0.00875 0.77638 0.0
O723 O 0.63609 0.00743 0.73826 0.0
O724 O 0.66349 0.01262 0.70702 0.0
Mg725 Mg 0.70473 0.0193 0.72466 0.0
C726 C 0.64057 0.00892 0.71463 0.0
C727 C 0.60475 0.00458 0.79462 0.0
O728 O 0.6034 0.02269 0.77753 0.0
O729 O 0.67501 0.96903 0.76889 0.0
O730 O 0.70332 0.97832 0.73918 0.0
O731 O 0.65828 0.05098 0.77901 0.0
O732 O 0.68911 0.0322 0.76017 0.0
C733 C 0.69234 0.96249 0.75412 0.0
C734 C 0.67889 0.05295 0.76613 0.0
O735 O 0.62581 0.9934 0.79797 0.0
Mg736 Mg 0.03351 0.26675 0.90625 0.0
O737 O 0.99544 0.25795 0.88216 0.0
O738 O 0.96651 0.24054 0.90799 0.0
Mg739 Mg 0.98548 0.23885 0.9482 0.0
C740 C 0.9728 0.24821 0.88603 0.0
C741 C 0.05073 0.27991 0.85224 0.0
O742 O 0.03941 0.25709 0.84851 0.0
O743 O 0.01606 0.30117 0.92352 0.0
O744 O 0.98854 0.28264 0.95007 0.0
O745 O 0.04644 0.22764 0.89944 0.0
O746 O 0.02347 0.238 0.93163 0.0
C747 C 0.99945 0.30253 0.94049 0.0
C748 C 0.03423 0.22065 0.91931 0.0
O749 O 0.05049 0.29016 0.87415 0.0
Mg750 Mg 0.53631 0.7713 0.40743 0.0
O751 O 0.49748 0.76342 0.38436 0.0
O752 O 0.46895 0.7467 0.41097 0.0
Mg753 Mg 0.48889 0.7445 0.4507 0.0
C754 C 0.47478 0.75424 0.38884 0.0
C755 C 0.55214 0.78354 0.35282 0.0
O756 O 0.54044 0.76081 0.34973 0.0
O757 O 0.52038 0.80636 0.4253 0.0
O758 O 0.49332 0.78809 0.45243 0.0
O759 O 0.54791 0.73166 0.40032 0.0
O760 O 0.52626 0.74278 0.43314 0.0
C761 C 0.50434 0.80788 0.44278 0.0
C762 C 0.5361 0.72506 0.42054 0.0
O763 O 0.55276 0.79413 0.37464 0.0
Mg764 Mg 0.98513 0.73907 0.59179 0.0
O765 O 0.02167 0.7298 0.61653 0.0
O766 O 0.05146 0.71917 0.58983 0.0
Mg767 Mg 0.03482 0.72209 0.54879 0.0
C768 C 0.04427 0.72267 0.61236 0.0
C769 C 0.96226 0.74102 0.64507 0.0
O770 O 0.97132 0.71823 0.64529 0.0
O771 O 0.00441 0.77764 0.58124 0.0
O772 O 0.03251 0.76539 0.55352 0.0
O773 O 0.97062 0.69814 0.59091 0.0
O774 O 0.99573 0.71555 0.56244 0.0
C775 C 0.02174 0.78284 0.56532 0.0
C776 C 0.98359 0.69552 0.57082 0.0
O777 O 0.96627 0.75539 0.62611 0.0
Mg778 Mg 0.48525 0.23866 0.09373 0.0
O779 O 0.52239 0.22979 0.11788 0.0
O780 O 0.55189 0.22007 0.09049 0.0
Mg781 Mg 0.53442 0.22294 0.04972 0.0
C782 C 0.54506 0.22318 0.11321 0.0
C783 C 0.46256 0.2403 0.1472 0.0
O784 O 0.4716 0.2175 0.14741 0.0
O785 O 0.50372 0.27744 0.08313 0.0
O786 O 0.53168 0.26622 0.0548 0.0
O787 O 0.47125 0.19768 0.09291 0.0
O788 O 0.49572 0.21548 0.0641 0.0
C789 C 0.52071 0.28323 0.06705 0.0
C790 C 0.48391 0.1953 0.07258 0.0
O791 O 0.46662 0.2547 0.12827 0.0
C792 C 0.21024 0.78844 0.89571 0.0
C793 C 0.22448 0.76845 0.88718 0.0
H794 H 0.20632 0.81622 0.92504 0.0
C795 C 0.24726 0.76252 0.90115 0.0
H796 H 0.19263 0.79344 0.88525 0.0
C797 C 0.25511 0.77546 0.92367 0.0
C798 C 0.24038 0.79474 0.93296 0.0
H799 H 0.25898 0.74762 0.89475 0.0
H800 H 0.27257 0.76993 0.93406 0.0
C801 C 0.21808 0.80144 0.91848 0.0
C802 C 0.0626 0.48378 0.34935 0.0
C803 C 0.04047 0.49788 0.34524 0.0
H804 H 0.09909 0.47406 0.33582 0.0
C805 C 0.03735 0.51135 0.32231 0.0
H806 H 0.06572 0.47332 0.36686 0.0
C807 C 0.05655 0.51192 0.30462 0.0
C808 C 0.07931 0.49895 0.30935 0.0
H809 H 0.0203 0.52197 0.31826 0.0
H810 H 0.05386 0.52319 0.28757 0.0
C811 C 0.0818 0.48427 0.33157 0.0
C812 C 0.75412 0.69502 0.89911 0.0
C813 C 0.77888 0.70599 0.89424 0.0
H814 H 0.72894 0.67978 0.92709 0.0
C815 C 0.79842 0.70647 0.91414 0.0
H816 H 0.73872 0.69333 0.88426 0.0
C817 C 0.79298 0.69746 0.93839 0.0
C818 C 0.76777 0.68844 0.94346 0.0
H819 H 0.81763 0.715 0.91154 0.0
H820 H 0.80807 0.69909 0.9536 0.0
C821 C 0.7485 0.68686 0.92357 0.0
C822 C 0.98136 0.97795 0.34019 0.0
C823 C 0.97326 0.9931 0.35986 0.0
H824 H 0.97703 0.96745 0.30098 0.0
C825 C 0.95255 0.00882 0.35478 0.0
H826 H 0.99707 0.96544 0.34371 0.0
C827 C 0.94104 0.01024 0.33 0.0
C828 C 0.94986 0.9957 0.31006 0.0
H829 H 0.94599 0.02067 0.36971 0.0
H830 H 0.92572 0.02315 0.32636 0.0
C831 C 0.96975 0.9791 0.31569 0.0
C832 C 0.23434 0.21045 0.62615 0.0
C833 C 0.22183 0.2325 0.6188 0.0
H834 H 0.25311 0.17769 0.614 0.0
C835 C 0.21641 0.23687 0.59273 0.0
H836 H 0.23896 0.20662 0.64608 0.0
C837 C 0.22469 0.22044 0.57438 0.0
C838 C 0.23846 0.19917 0.58167 0.0
H839 H 0.20639 0.25343 0.58646 0.0
H840 H 0.22113 0.22504 0.55449 0.0
C841 C 0.24256 0.19393 0.60775 0.0
C842 C 0.47157 0.50287 0.64652 0.0
C843 C 0.46399 0.51799 0.62578 0.0
H844 H 0.46618 0.493 0.68536 0.0
C845 C 0.44278 0.53322 0.62784 0.0
H846 H 0.48799 0.49111 0.64549 0.0
C847 C 0.43005 0.5341 0.65056 0.0
C848 C 0.43851 0.52003 0.67181 0.0
H849 H 0.43643 0.54493 0.61203 0.0
H850 H 0.41426 0.5466 0.65175 0.0
C851 C 0.45908 0.50402 0.66938 0.0
C852 C 0.76962 0.33158 0.62036 0.0
C853 C 0.78255 0.30886 0.62193 0.0
H854 H 0.75037 0.35806 0.59614 0.0
C855 C 0.7874 0.2961 0.59934 0.0
H856 H 0.76577 0.34188 0.63748 0.0
C857 C 0.77842 0.30521 0.57572 0.0
C858 C 0.76465 0.32743 0.57416 0.0
H859 H 0.79703 0.27837 0.59998 0.0
H860 H 0.78155 0.29429 0.55882 0.0
C861 C 0.76087 0.34085 0.59669 0.0
C862 C 0.57336 0.01207 0.68214 0.0
C863 C 0.57744 0.00394 0.65719 0.0
H864 H 0.58998 0.01974 0.71994 0.0
C865 C 0.60235 0.99672 0.65178 0.0
H866 H 0.55462 0.01811 0.68706 0.0
C867 C 0.6227 0.99829 0.67046 0.0
C868 C 0.61862 0.00657 0.69525 0.0
H869 H 0.60623 0.98962 0.63311 0.0
H870 H 0.64164 0.99278 0.66551 0.0
C871 C 0.59366 0.01314 0.70102 0.0
C872 C 0.91143 0.22801 0.8466 0.0
C873 C 0.914 0.24274 0.82457 0.0
H874 H 0.92786 0.21826 0.88326 0.0
C875 C 0.93633 0.25899 0.82257 0.0
H876 H 0.8943 0.2155 0.84873 0.0
C877 C 0.95576 0.26043 0.8423 0.0
C878 C 0.95296 0.24599 0.86455 0.0
H879 H 0.93881 0.27046 0.80571 0.0
H880 H 0.97273 0.27319 0.84029 0.0
C881 C 0.9306 0.22972 0.86643 0.0
C882 C 0.50792 0.87898 0.45661 0.0
C883 C 0.49076 0.88034 0.47634 0.0
H884 H 0.52559 0.85509 0.43029 0.0
C885 C 0.47737 0.85791 0.48398 0.0
H886 H 0.51834 0.89596 0.4501 0.0
C887 C 0.48135 0.83465 0.47257 0.0
C888 C 0.49894 0.83309 0.45326 0.0
H889 H 0.46436 0.85812 0.49939 0.0
H890 H 0.47095 0.81777 0.47936 0.0
C891 C 0.51196 0.85558 0.44515 0.0
C892 C 0.08554 0.28866 0.79125 0.0
C893 C 0.10212 0.31032 0.79695 0.0
H894 H 0.05619 0.26224 0.80411 0.0
C895 C 0.09986 0.32329 0.82008 0.0
H896 H 0.08693 0.27805 0.77375 0.0
C897 C 0.08226 0.31413 0.83761 0.0
C898 C 0.06663 0.29174 0.8324 0.0
H899 H 0.1121 0.34023 0.82487 0.0
H900 H 0.08158 0.3241 0.85559 0.0
C901 C 0.06799 0.27949 0.80876 0.0
C902 C 0.54946 0.65535 0.4286 0.0
C903 C 0.53487 0.64873 0.44963 0.0
H904 H 0.56117 0.68473 0.40275 0.0
C905 C 0.51904 0.66679 0.4594 0.0
H906 H 0.56195 0.64194 0.42067 0.0
C907 C 0.51896 0.69129 0.44949 0.0
C908 C 0.53429 0.69831 0.42919 0.0
H909 H 0.50701 0.66216 0.47515 0.0
H910 H 0.50725 0.7048 0.45825 0.0
C911 C 0.5491 0.67991 0.41842 0.0
C912 C 0.92124 0.7374 0.70261 0.0
C913 C 0.90675 0.75905 0.69948 0.0
H914 H 0.9502 0.71483 0.68804 0.0
C915 C 0.9121 0.77575 0.67936 0.0
H916 H 0.91749 0.72405 0.71779 0.0
C917 C 0.9309 0.77049 0.66228 0.0
C918 C 0.94467 0.74831 0.66484 0.0
H919 H 0.90157 0.79281 0.67666 0.0
H920 H 0.93409 0.78345 0.64664 0.0
C921 C 0.93994 0.73207 0.68547 0.0
C922 C 0.01932 0.85473 0.55953 0.0
C923 C 0.03649 0.85987 0.54015 0.0
H924 H 1.00106 0.8263 0.5828 0.0
C925 C 0.05048 0.84003 0.53104 0.0
H926 H 0.00826 0.86969 0.56688 0.0
C927 C 0.0465 0.81534 0.54013 0.0
C928 C 0.02827 0.80975 0.55851 0.0
H929 H 0.06417 0.84352 0.51641 0.0
H930 H 0.05718 0.80047 0.53207 0.0
C931 C 0.01517 0.82987 0.56858 0.0
C932 C 0.10248 0.69994 0.65103 0.0
C933 C 0.09952 0.71066 0.67511 0.0
H934 H 0.08755 0.69547 0.6124 0.0
C935 C 0.07797 0.7251 0.67862 0.0
H936 H 0.11902 0.68891 0.64773 0.0
C937 C 0.0597 0.72868 0.65841 0.0
C938 C 0.06292 0.71827 0.63418 0.0
H939 H 0.07517 0.73347 0.69705 0.0
H940 H 0.04331 0.73993 0.66165 0.0
C941 C 0.08451 0.70384 0.63077 0.0
C942 C 0.99657 0.64542 0.52198 0.0
C943 C 0.98027 0.62466 0.5292 0.0
H944 H 0.01037 0.68394 0.52929 0.0
C945 C 0.96643 0.62695 0.5513 0.0
H946 H 0.00792 0.64422 0.50537 0.0
C947 C 0.96823 0.64967 0.56535 0.0
C948 C 0.9838 0.67068 0.55754 0.0
H949 H 0.95346 0.6115 0.55731 0.0
H950 H 0.95679 0.65099 0.58188 0.0
C951 C 0.99821 0.66817 0.5359 0.0
C952 C 0.84008 0.91106 0.21442 0.0
C953 C 0.81717 0.91781 0.22525 0.0
H954 H 0.87929 0.92197 0.20664 0.0
C955 C 0.81657 0.94216 0.23623 0.0
H956 H 0.84112 0.89275 0.20521 0.0
C957 C 0.83843 0.95918 0.2366 0.0
C958 C 0.86146 0.95214 0.22623 0.0
H959 H 0.79938 0.94794 0.24498 0.0
H960 H 0.83743 0.97768 0.24547 0.0
C961 C 0.86197 0.92792 0.21506 0.0
C962 C 0.83455 0.13008 0.242 0.0
C963 C 0.81197 0.1201 0.2529 0.0
H964 H 0.87254 0.12336 0.23056 0.0
C965 C 0.81096 0.09468 0.26114 0.0
H966 H 0.83586 0.14949 0.2352 0.0
C967 C 0.83213 0.07961 0.25854 0.0
C968 C 0.85463 0.08962 0.24745 0.0
H969 H 0.79393 0.08652 0.26986 0.0
H970 H 0.83075 0.06007 0.26495 0.0
C971 C 0.85557 0.11503 0.23927 0.0
C972 C 0.35832 0.89409 0.96761 0.0
C973 C 0.35648 0.91927 0.97576 0.0
H974 H 0.34166 0.8559 0.9674 0.0
C975 C 0.33506 0.92551 0.98933 0.0
H976 H 0.37472 0.88883 0.95722 0.0
C977 C 0.31583 0.90677 0.99475 0.0
C978 C 0.31809 0.88139 0.98725 0.0
H979 H 0.33325 0.94487 0.99574 0.0
H980 H 0.2996 0.91199 0.00541 0.0
C981 C 0.33948 0.87528 0.97354 0.0
C982 C 0.20507 0.3935 0.2778 0.0
C983 C 0.22295 0.38658 0.26017 0.0
H984 H 0.1799 0.4218 0.2895 0.0
C985 C 0.22681 0.40208 0.23889 0.0
H986 H 0.20171 0.3819 0.29441 0.0
C987 C 0.21436 0.42475 0.23605 0.0
C988 C 0.19774 0.43259 0.25446 0.0
H989 H 0.24 0.39696 0.22468 0.0
H990 H 0.21854 0.43658 0.21978 0.0
C991 C 0.19257 0.41633 0.27498 0.0
C992 C 0.17785 0.07139 0.51892 0.0
C993 C 0.15531 0.0738 0.50306 0.0
H994 H 0.21354 0.0897 0.5346 0.0
C995 C 0.1513 0.0971 0.49105 0.0
H996 H 0.18135 0.05354 0.52832 0.0
C997 C 0.16931 0.1177 0.49486 0.0
C998 C 0.19204 0.1154 0.51048 0.0
H999 H 0.13399 0.09949 0.47886 0.0
H1000 H 0.1655 0.13542 0.48533 0.0
C1001 C 0.19626 0.09198 0.52237 0.0
C1002 C 0.6948 0.12411 0.76443 0.0
C1003 C 0.71651 0.12551 0.74949 0.0
H1004 H 0.6655 0.10003 0.78101 0.0
C1005 C 0.72477 0.10308 0.73889 0.0
H1006 H 0.68797 0.14115 0.77273 0.0
C1007 C 0.71213 0.07961 0.74377 0.0
C1008 C 0.69071 0.07805 0.7591 0.0
H1009 H 0.74166 0.10356 0.72757 0.0
H1010 H 0.71964 0.06269 0.73601 0.0
C1011 C 0.68189 0.10059 0.76905 0.0
C1012 C 0.34271 0.05854 0.56154 0.0
C1013 C 0.36345 0.06269 0.54556 0.0
H1014 H 0.30607 0.07046 0.57266 0.0
C1015 C 0.36212 0.08217 0.52735 0.0
H1016 H 0.34283 0.04343 0.57547 0.0
C1017 C 0.34086 0.09737 0.52546 0.0
C1018 C 0.32048 0.09365 0.54189 0.0
H1019 H 0.37785 0.08619 0.51495 0.0
H1020 H 0.34079 0.1125 0.51155 0.0
C1021 C 0.3215 0.0739 0.55978 0.0
C1022 C 0.64927 0.43106 0.48547 0.0
C1023 C 0.651 0.45244 0.50171 0.0
H1024 H 0.66751 0.3981 0.47295 0.0
C1025 C 0.67427 0.45815 0.51629 0.0
H1026 H 0.63158 0.4261 0.47404 0.0
C1027 C 0.69484 0.44217 0.51566 0.0
C1028 C 0.69263 0.42003 0.50049 0.0
H1029 H 0.67641 0.47478 0.5286 0.0
H1030 H 0.71215 0.44676 0.52779 0.0
C1031 C 0.66986 0.41499 0.48488 0.0
C1032 C 0.71002 0.29165 0.39578 0.0
C1033 C 0.72489 0.27202 0.38753 0.0
H1034 H 0.70472 0.31909 0.42503 0.0
C1035 C 0.74736 0.26629 0.40218 0.0
H1036 H 0.69261 0.2965 0.38487 0.0
C1037 C 0.75427 0.27911 0.42502 0.0
C1038 C 0.73894 0.29808 0.43388 0.0
H1039 H 0.7596 0.25172 0.39604 0.0
H1040 H 0.7715 0.27378 0.43592 0.0
C1041 C 0.71695 0.30455 0.41878 0.0
C1042 C 0.54116 0.01102 0.82552 0.0
C1043 C 0.54533 0.9982 0.84869 0.0
H1044 H 0.55645 0.0228 0.79021 0.0
C1045 C 0.56815 0.98512 0.85269 0.0
H1046 H 0.52354 0.02081 0.82156 0.0
C1047 C 0.58699 0.98605 0.83454 0.0
C1048 C 0.58341 0.00014 0.81205 0.0
H1049 H 0.57205 0.97517 0.87037 0.0
H1050 H 0.60482 0.97667 0.83867 0.0
C1051 C 0.55998 0.01203 0.80746 0.0
C1052 C 0.25251 0.19246 0.39883 0.0
C1053 C 0.27712 0.20384 0.39402 0.0
H1054 H 0.22736 0.17717 0.42681 0.0
C1055 C 0.29652 0.20492 0.41406 0.0
H1056 H 0.23724 0.19031 0.38388 0.0
C1057 C 0.29106 0.19615 0.43838 0.0
C1058 C 0.26594 0.18677 0.44336 0.0
H1059 H 0.3156 0.21379 0.4115 0.0
H1060 H 0.306 0.19829 0.45368 0.0
C1061 C 0.24685 0.18454 0.42334 0.0
C1062 C 0.45327 0.50611 0.85739 0.0
C1063 C 0.47332 0.48957 0.86215 0.0
H1064 H 0.42696 0.52176 0.82934 0.0
C1065 C 0.4806 0.47418 0.84228 0.0
H1066 H 0.44735 0.51818 0.87247 0.0
C1067 C 0.46893 0.476 0.81785 0.0
C1068 C 0.44981 0.4935 0.81253 0.0
H1069 H 0.49579 0.46104 0.84554 0.0
H1070 H 0.47561 0.46419 0.80294 0.0
C1071 C 0.44168 0.50818 0.83272 0.0
C1072 C 0.71917 0.73437 0.09608 0.0
C1073 C 0.72435 0.72821 0.12179 0.0
H1074 H 0.72409 0.72492 0.05713 0.0
C1075 C 0.73645 0.70559 0.12771 0.0
H1076 H 0.71006 0.75178 0.09095 0.0
C1077 C 0.74442 0.69013 0.10833 0.0
C1078 C 0.7406 0.69706 0.08264 0.0
H1079 H 0.7404 0.70022 0.14737 0.0
H1080 H 0.7545 0.67329 0.11356 0.0
C1081 C 0.72729 0.719 0.0767 0.0
C1082 C 0.97149 -3e-05 0.1441 0.0
C1083 C 0.96412 0.0147 0.123 0.0
H1084 H 0.96575 0.99094 0.18306 0.0
C1085 C 0.94286 0.02996 0.12448 0.0
H1086 H 0.98794 0.9882 0.1435 0.0
C1087 C 0.92991 0.03133 0.14703 0.0
C1088 C 0.93821 0.01774 0.16866 0.0
H1089 H 0.9367 0.04138 0.10838 0.0
H1090 H 0.91413 0.0439 0.1478 0.0
C1091 C 0.95878 0.00161 0.16679 0.0
C1092 C 0.2749 0.82154 0.11925 0.0
C1093 C 0.28824 0.79902 0.11925 0.0
H1094 H 0.25523 0.84923 0.09691 0.0
C1095 C 0.29408 0.78853 0.09578 0.0
H1096 H 0.26991 0.83004 0.13697 0.0
C1097 C 0.28538 0.79931 0.07287 0.0
C1098 C 0.27087 0.82104 0.07285 0.0
H1099 H 0.3048 0.7715 0.09508 0.0
H1100 H 0.28932 0.79004 0.05524 0.0
C1101 C 0.26636 0.83247 0.09627 0.0
C1102 C 0.07304 0.49425 0.1802 0.0
C1103 C 0.07752 0.50182 0.15508 0.0
H1104 H 0.089 0.49021 0.21843 0.0
C1105 C 0.10236 0.51203 0.14974 0.0
H1106 H 0.05426 0.48604 0.18498 0.0
C1107 C 0.12234 0.51405 0.1688 0.0
C1108 C 0.11798 0.50617 0.1938 0.0
H1109 H 0.10642 0.5186 0.1308 0.0
H1110 H 0.14123 0.52187 0.16387 0.0
C1111 C 0.09301 0.4965 0.19937 0.0
C1112 C 0.43776 0.76366 0.32533 0.0
C1113 C 0.41526 0.74785 0.32807 0.0
H1114 H 0.47453 0.77783 0.34228 0.0
C1115 C 0.41246 0.73438 0.35086 0.0
H1116 H 0.44039 0.77416 0.30788 0.0
C1117 C 0.43174 0.7366 0.37054 0.0
C1118 C 0.45444 0.75214 0.3678 0.0
H1119 H 0.39518 0.72224 0.35356 0.0
H1120 H 0.42889 0.72592 0.38784 0.0
C1121 C 0.4573 0.76563 0.34494 0.0
C1122 C 0.97168 0.3529 0.98083 0.0
C1123 C 0.98536 0.3752 0.97327 0.0
H1124 H 0.96524 0.31267 0.97641 0.0
C1125 C 0.0025 0.37367 0.95356 0.0
H1126 H 0.95857 0.35329 0.99616 0.0
C1127 C 0.00654 0.35022 0.94229 0.0
C1128 C 0.99353 0.32778 0.95053 0.0
H1129 H 0.01308 0.39056 0.94705 0.0
H1130 H 0.0203 0.34964 0.92755 0.0
C1131 C 0.97568 0.32951 0.96959 0.0
C1132 C 0.59977 0.82644 0.31819 0.0
C1133 C 0.602 0.81258 0.29558 0.0
H1134 H 0.58204 0.82835 0.35394 0.0
C1135 C 0.58575 0.79048 0.29096 0.0
H1136 H 0.61171 0.84376 0.32215 0.0
C1137 C 0.56864 0.78176 0.30907 0.0
C1138 C 0.56743 0.79487 0.33227 0.0
H1139 H 0.58712 0.77917 0.2739 0.0
H1140 H 0.55713 0.76416 0.30526 0.0
C1141 C 0.58266 0.81769 0.33635 0.0
C1142 C 0.01908 0.16202 0.95833 0.0
C1143 C 0.03541 0.14446 0.94845 0.0
H1144 H 0.00608 0.19964 0.95715 0.0
C1145 C 0.04967 0.15149 0.92733 0.0
H1146 H 0.00732 0.15704 0.97418 0.0
C1147 C 0.04851 0.17598 0.91714 0.0
C1148 C 0.03319 0.19391 0.92797 0.0
H1149 H 0.06251 0.13846 0.91932 0.0
H1150 H 0.06035 0.18113 0.90139 0.0
C1151 C 0.01815 0.18646 0.94837 0.0
C1152 C 0.41182 0.27479 0.18084 0.0
C1153 C 0.40628 0.25805 0.20087 0.0
H1154 H 0.43423 0.28261 0.14844 0.0
C1155 C 0.42089 0.23651 0.20425 0.0
H1156 H 0.40119 0.29176 0.17797 0.0
C1157 C 0.43988 0.23129 0.18739 0.0
C1158 C 0.44478 0.24754 0.1668 0.0
H1159 H 0.41701 0.22315 0.21939 0.0
H1160 H 0.45022 0.21411 0.1901 0.0
C1161 C 0.43091 0.26964 0.16404 0.0
C1162 C 0.55027 0.34211 0.036 0.0
C1163 C 0.5354 0.36139 0.045 0.0
H1164 H 0.5575 0.30262 0.03598 0.0
C1165 C 0.51672 0.355 0.06272 0.0
H1166 H 0.56458 0.34623 0.02209 0.0
C1167 C 0.51251 0.32979 0.07066 0.0
C1168 C 0.52681 0.31039 0.06094 0.0
H1169 H 0.50515 0.36945 0.07026 0.0
H1170 H 0.49758 0.32543 0.08388 0.0
C1171 C 0.54605 0.31699 0.04387 0.0
C1172 C 0.6052 0.20251 0.15036 0.0
C1173 C 0.60216 0.21245 0.17476 0.0
H1174 H 0.58974 0.19821 0.11188 0.0
C1175 C 0.57986 0.22555 0.17901 0.0
H1176 H 0.62229 0.19253 0.14645 0.0
C1177 C 0.56101 0.22866 0.1592 0.0
C1178 C 0.5643 0.2191 0.13465 0.0
H1179 H 0.57695 0.23327 0.19769 0.0
H1180 H 0.54409 0.23892 0.16303 0.0
C1181 C 0.5866 0.20592 0.13052 0.0
C1182 C 0.466 0.12709 0.0524 0.0
C1183 C 0.48008 0.12472 0.03047 0.0
H1184 H 0.45638 0.15107 0.083 0.0
C1185 C 0.49676 0.14532 0.02355 0.0
H1186 H 0.45272 0.11179 0.05817 0.0
C1187 C 0.49856 0.168 0.03761 0.0
C1188 C 0.48397 0.17055 0.05911 0.0
H1189 H 0.50832 0.14404 0.0071 0.0
H1190 H 0.51105 0.18364 0.03128 0.0
C1191 C 0.468 0.14969 0.0666 0.0
C1192 C 0.31711 0.44237 0.73876 0.0
C1193 C 0.31737 0.41824 0.72722 0.0
H1194 H 0.33826 0.47763 0.74836 0.0
C1195 C 0.34002 0.41166 0.71576 0.0
H1196 H 0.30016 0.44803 0.74801 0.0
C1197 C 0.36198 0.42844 0.71636 0.0
C1198 C 0.36179 0.45242 0.72809 0.0
H1199 H 0.34079 0.39354 0.7061 0.0
H1200 H 0.3791 0.42262 0.70748 0.0
C1201 C 0.33902 0.45932 0.73906 0.0
C1202 C 0.29463 0.58564 0.73374 0.0
C1203 C 0.29637 0.60148 0.75542 0.0
H1204 H 0.31212 0.55732 0.71241 0.0
C1205 C 0.3176 0.59961 0.7732 0.0
H1206 H 0.27874 0.58674 0.71951 0.0
C1207 C 0.33694 0.58278 0.76904 0.0
C1208 C 0.33547 0.56744 0.74701 0.0
H1209 H 0.31935 0.61124 0.79032 0.0
H1210 H 0.35324 0.58212 0.78287 0.0
C1211 C 0.3139 0.56884 0.7296 0.0
C1212 C 0.82954 0.42424 0.47269 0.0
C1213 C 0.85571 0.4206 0.47967 0.0
H1214 H 0.79004 0.40929 0.47322 0.0
C1215 C 0.86205 0.39838 0.49268 0.0
H1216 H 0.82413 0.44131 0.46278 0.0
C1217 C 0.8427 0.38003 0.49842 0.0
C1218 C 0.81647 0.3836 0.49158 0.0
H1219 H 0.88208 0.395 0.49811 0.0
H1220 H 0.84835 0.36305 0.50836 0.0
C1221 C 0.81005 0.406 0.4788 0.0
C1222 C 0.73146 0.90611 0.74041 0.0
C1223 C 0.7272 0.89049 0.76154 0.0
H1224 H 0.72344 0.94064 0.72124 0.0
C1225 C 0.70908 0.8974 0.77892 0.0
H1226 H 0.74484 0.90103 0.72637 0.0
C1227 C 0.6966 0.92023 0.77595 0.0
C1228 C 0.70202 0.93652 0.75552 0.0
H1229 H 0.70541 0.88573 0.79541 0.0
H1230 H 0.68362 0.9256 0.79024 0.0
C1231 C 0.71904 0.92878 0.73743 0.0
C1232 C 0.65214 0.59862 0.98996 0.0
C1233 C 0.6558 0.57539 0.00225 0.0
H1234 H 0.66687 0.63679 0.98405 0.0
C1235 C 0.67825 0.57283 0.01817 0.0
H1236 H 0.6349 0.6011 0.9777 0.0
C1237 C 0.69688 0.5932 0.02151 0.0
C1238 C 0.69299 0.61659 0.00945 0.0
H1239 H 0.68148 0.55503 0.02778 0.0
H1240 H 0.71406 0.59081 0.03386 0.0
C1241 C 0.67039 0.61906 0.99369 0.0
C1242 C 0.2292 0.5969 0.24451 0.0
C1243 C 0.22044 0.62008 0.25286 0.0
H1244 H 0.22292 0.55664 0.24247 0.0
C1245 C 0.19635 0.62006 0.264 0.0
H1246 H 0.24742 0.59631 0.23539 0.0
C1247 C 0.18193 0.59712 0.26774 0.0
C1248 C 0.19136 0.57386 0.26036 0.0
H1249 H 0.18913 0.63764 0.27069 0.0
H1250 H 0.16384 0.59755 0.2771 0.0
C1251 C 0.21494 0.57411 0.24833 0.0
C1252 C 0.8758 0.59196 0.06197 0.0
C1253 C 0.87463 0.57185 0.04424 0.0
H1254 H 0.859 0.62554 0.07453 0.0
C1255 C 0.85451 0.57049 0.02499 0.0
H1256 H 0.89126 0.59381 0.07679 0.0
C1257 C 0.83592 0.58882 0.02363 0.0
C1258 C 0.83721 0.60895 0.0414 0.0
H1259 H 0.85298 0.5551 0.01116 0.0
H1260 H 0.82063 0.58727 0.00864 0.0
C1261 C 0.85736 0.61027 0.06056 0.0
C1262 C 0.17636 0.9533 0.0185 0.0
C1263 C 0.15339 0.94784 0.00336 0.0
H1264 H 0.21395 0.94162 0.03072 0.0
C1265 C 0.15186 0.92649 0.98707 0.0
H1266 H 0.17836 0.96987 0.03088 0.0
C1267 C 0.17237 0.91029 0.98687 0.0
C1268 C 0.19486 0.91515 0.00291 0.0
H1269 H 0.1344 0.92171 0.97524 0.0
H1270 H 0.1702 0.8935 0.97481 0.0
C1271 C 0.19685 0.93718 0.01826 0.0
loop_
_geom_bond_atom_site_label_1
_geom_bond_atom_site_label_2
_geom_bond_distance
_geom_bond_site_symmetry_2
_ccdc_geom_bond_type
C0 C1 1.386 . S
C0 C2 1.397 . S
C0 H24 0.931 . S
C1 C0 1.386 . S
C1 C5 1.397 . S
C2 C0 1.397 . S
C2 C3 1.384 . S
C2 H25 0.930 . S
C3 C2 1.384 . S
C3 C4 1.377 1_556 S
C3 C6 1.481 1_556 S
C4 C3 1.377 1_554 S
C4 C5 1.389 1_554 S
C4 H26 0.929 . S
C5 C1 1.397 . S
C5 C4 1.389 1_556 S
C5 H27 0.931 . S
C6 C3 1.481 1_554 S
C6 C7 1.387 . S
C6 C11 1.390 . S
C7 C6 1.387 . S
C7 C8 1.401 . S
C7 H28 0.930 1_554 S
C8 C7 1.401 . S
C8 C9 1.376 . S
C8 C17 1.511 . S
C9 C8 1.376 . S
C9 C10 1.392 . S
C9 H30 0.931 . S
C10 C9 1.392 . S
C10 C11 1.361 . S
C10 C12 1.519 . S
C11 C6 1.390 . S
C11 C10 1.361 . S
C11 H29 0.931 . S
C12 C10 1.519 . S
C12 C13 1.364 1_455 S
C12 C14 1.352 1_455 S
C13 C12 1.364 1_655 S
C13 C23 1.386 . S
C13 H31 0.935 1_545 S
C14 C12 1.352 1_655 S
C14 C15 1.409 . S
C14 H32 0.929 . S
C15 C14 1.409 . S
C15 C16 1.380 . S
C15 H33 0.930 . S
C16 C15 1.380 . S
C16 C23 1.357 . S
C17 C8 1.511 . S
C17 C18 1.341 1_544 S
C17 C19 1.371 1_545 S
C18 C17 1.341 1_566 S
C18 C22 1.395 . S
C18 H34 0.929 1_565 S
C19 C17 1.371 1_565 S
C19 C20 1.392 . S
C19 H35 0.931 . S
C20 C19 1.392 . S
C20 C21 1.331 . S
C20 H38 0.932 . S
C21 C20 1.331 . S
C21 C22 1.336 1_554 S
C22 C18 1.395 . S
C22 C21 1.336 1_556 S
C22 H37 0.929 . S
C23 C13 1.386 . S
C23 C16 1.357 . S
C23 H36 0.928 1_545 S
H24 C0 0.931 . S
H25 C2 0.930 . S
H26 C4 0.929 . S
H27 C5 0.931 . S
H28 C7 0.930 1_556 S
H29 C11 0.931 . S
H30 C9 0.931 . S
H31 C13 0.935 1_565 S
H32 C14 0.929 . S
H33 C15 0.930 . S
H34 C18 0.929 1_545 S
H35 C19 0.931 . S
H36 C23 0.928 1_565 S
H37 C22 0.929 . S
H38 C20 0.932 . S
C39 C40 1.386 . S
C39 C41 1.397 . S
C39 H63 0.931 . S
C40 C39 1.386 . S
C40 C44 1.397 . S
C41 C39 1.397 . S
C41 C42 1.384 . S
C41 H64 0.930 . S
C42 C41 1.384 . S
C42 C43 1.377 . S
C42 C45 1.481 . S
C43 C42 1.377 . S
C43 C44 1.389 . S
C43 H65 0.929 . S
C44 C40 1.397 . S
C44 C43 1.389 . S
C44 H66 0.931 . S
C45 C42 1.481 . S
C45 C46 1.387 . S
C45 C50 1.390 . S
C46 C45 1.387 . S
C46 C47 1.401 . S
C46 H67 0.930 . S
C47 C46 1.401 . S
C47 C48 1.376 . S
C47 C56 1.511 . S
C48 C47 1.376 . S
C48 C49 1.392 . S
C48 H69 0.931 . S
C49 C48 1.392 . S
C49 C50 1.361 . S
C49 C51 1.500 . S
C50 C45 1.390 . S
C50 C49 1.361 . S
C50 H68 0.931 . S
C51 C49 1.500 . S
C51 C52 1.371 . S
C51 C53 1.365 . S
C52 C51 1.371 . S
C52 C62 1.386 . S
C52 H70 0.931 . S
C53 C51 1.365 . S
C53 C54 1.409 . S
C53 H71 0.929 . S
C54 C53 1.409 . S
C54 C55 1.380 . S
C54 H72 0.930 . S
C55 C54 1.380 . S
C55 C62 1.357 . S
C56 C47 1.511 . S
C56 C57 1.341 . S
C56 C58 1.371 . S
C57 C56 1.341 . S
C57 C61 1.394 . S
C57 H73 0.930 . S
C58 C56 1.371 . S
C58 C59 1.392 . S
C58 H74 0.931 . S
C59 C58 1.392 . S
C59 C60 1.331 . S
C59 H77 0.932 . S
C60 C59 1.331 . S
C60 C61 1.336 . S
C61 C57 1.394 . S
C61 C60 1.336 . S
C61 H76 0.929 . S
C62 C52 1.386 . S
C62 C55 1.357 . S
C62 H75 0.928 . S
H63 C39 0.931 . S
H64 C41 0.930 . S
H65 C43 0.929 . S
H66 C44 0.931 . S
H67 C46 0.930 . S
H68 C50 0.931 . S
H69 C48 0.931 . S
H70 C52 0.931 . S
H71 C53 0.929 . S
H72 C54 0.930 . S
H73 C57 0.930 . S
H74 C58 0.931 . S
H75 C62 0.928 . S
H76 C61 0.929 . S
H77 C59 0.932 . S
C78 C79 1.386 . S
C78 C80 1.397 . S
C78 H102 0.931 . S
C79 C78 1.386 . S
C79 C83 1.397 . S
C80 C78 1.397 . S
C80 C81 1.384 . S
C80 H103 0.930 1_455 S
C81 C80 1.384 . S
C81 C82 1.377 . S
C81 C84 1.481 1_455 S
C82 C81 1.377 . S
C82 C83 1.389 . S
C82 H104 0.929 . S
C83 C79 1.397 . S
C83 C82 1.389 . S
C83 H105 0.931 . S
C84 C81 1.481 1_655 S
C84 C85 1.387 . S
C84 C89 1.390 . S
C85 C84 1.387 . S
C85 C86 1.401 . S
C85 H106 0.930 . S
C86 C85 1.401 . S
C86 C87 1.376 . S
C86 C95 1.511 . S
C87 C86 1.376 . S
C87 C88 1.392 . S
C87 H108 0.931 . S
C88 C87 1.392 . S
C88 C89 1.361 . S
C88 C90 1.500 . S
C89 C84 1.390 . S
C89 C88 1.361 . S
C89 H107 0.931 1_655 S
C90 C88 1.500 . S
C90 C91 1.351 1_554 S
C90 C92 1.365 1_655 S
C91 C90 1.351 1_556 S
C91 C101 1.414 . S
C91 H109 0.921 1_556 S
C92 C90 1.365 1_455 S
C92 C93 1.409 1_554 S
C92 H110 0.929 . S
C93 C92 1.409 1_556 S
C93 C94 1.380 1_455 S
C93 H111 0.930 . S
C94 C93 1.380 1_655 S
C94 C101 1.357 . S
C95 C86 1.511 . S
C95 C96 1.341 . S
C95 C97 1.371 . S
C96 C95 1.341 . S
C96 C100 1.394 . S
C96 H112 0.930 . S
C97 C95 1.371 . S
C97 C98 1.392 . S
C97 H113 0.931 . S
C98 C97 1.392 . S
C98 C99 1.331 . S
C98 H116 0.932 1_554 S
C99 C98 1.331 . S
C99 C100 1.336 . S
C100 C96 1.394 . S
C100 C99 1.336 . S
C100 H115 0.929 . S
C101 C91 1.414 . S
C101 C94 1.357 . S
C101 H114 0.928 . S
H102 C78 0.931 . S
H103 C80 0.930 1_655 S
H104 C82 0.929 . S
H105 C83 0.931 . S
H106 C85 0.930 . S
H107 C89 0.931 1_455 S
H108 C87 0.931 . S
H109 C91 0.921 1_554 S
H110 C92 0.929 . S
H111 C93 0.930 . S
H112 C96 0.930 . S
H113 C97 0.931 . S
H114 C101 0.928 . S
H115 C100 0.929 . S
H116 C98 0.932 1_556 S
C117 C118 1.386 . S
C117 C119 1.397 . S
C117 H141 0.931 . S
C118 C117 1.386 . S
C118 C122 1.397 . S
C119 C117 1.397 . S
C119 C120 1.384 . S
C119 H142 0.930 . S
C120 C119 1.384 . S
C120 C121 1.377 . S
C120 C123 1.481 . S
C121 C120 1.377 . S
C121 C122 1.389 . S
C121 H143 0.929 . S
C122 C118 1.397 . S
C122 C121 1.389 . S
C122 H144 0.931 . S
C123 C120 1.481 . S
C123 C124 1.387 . S
C123 C128 1.390 . S
C124 C123 1.387 . S
C124 C125 1.401 . S
C124 H145 0.930 . S
C125 C124 1.401 . S
C125 C126 1.376 . S
C125 C134 1.511 . S
C126 C125 1.376 . S
C126 C127 1.392 . S
C126 H147 0.931 . S
C127 C126 1.392 . S
C127 C128 1.361 . S
C127 C129 1.500 . S
C128 C123 1.390 . S
C128 C127 1.361 . S
C128 H146 0.931 . S
C129 C127 1.500 . S
C129 C130 1.371 . S
C129 C131 1.365 . S
C130 C129 1.371 . S
C130 C140 1.386 . S
C130 H148 0.931 . S
C131 C129 1.365 . S
C131 C132 1.409 . S
C131 H149 0.929 . S
C132 C131 1.409 . S
C132 C133 1.380 . S
C132 H150 0.930 . S
C133 C132 1.380 . S
C133 C140 1.357 . S
C134 C125 1.511 . S
C134 C135 1.341 . S
C134 C136 1.371 . S
C135 C134 1.341 . S
C135 C139 1.394 . S
C135 H151 0.930 . S
C136 C134 1.371 . S
C136 C137 1.392 . S
C136 H152 0.931 . S
C137 C136 1.392 . S
C137 C138 1.331 . S
C137 H155 0.932 . S
C138 C137 1.331 . S
C138 C139 1.336 . S
C139 C135 1.394 . S
C139 C138 1.336 . S
C139 H154 0.929 . S
C140 C130 1.386 . S
C140 C133 1.357 . S
C140 H153 0.928 . S
H141 C117 0.931 . S
H142 C119 0.930 . S
H143 C121 0.929 . S
H144 C122 0.931 . S
H145 C124 0.930 . S
H146 C128 0.931 . S
H147 C126 0.931 . S
H148 C130 0.931 . S
H149 C131 0.929 . S
H150 C132 0.930 . S
H151 C135 0.930 . S
H152 C136 0.931 . S
H153 C140 0.928 . S
H154 C139 0.929 . S
H155 C137 0.932 . S
C156 C157 1.386 . S
C156 C158 1.397 . S
C156 H180 0.931 . S
C157 C156 1.386 . S
C157 C161 1.397 1_655 S
C158 C156 1.397 . S
C158 C159 1.384 1_655 S
C158 H181 0.930 . S
C159 C158 1.384 1_455 S
C159 C160 1.377 . S
C159 C162 1.481 . S
C160 C159 1.377 . S
C160 C161 1.389 . S
C160 H182 0.929 . S
C161 C157 1.397 1_455 S
C161 C160 1.389 . S
C161 H183 0.931 . S
C162 C159 1.481 . S
C162 C163 1.387 . S
C162 C167 1.390 . S
C163 C162 1.387 . S
C163 C164 1.401 . S
C163 H184 0.930 . S
C164 C163 1.401 . S
C164 C165 1.376 . S
C164 C173 1.511 . S
C165 C164 1.376 . S
C165 C166 1.392 . S
C165 H186 0.931 . S
C166 C165 1.392 . S
C166 C167 1.361 . S
C166 C168 1.500 1_565 S
C167 C162 1.390 . S
C167 C166 1.361 . S
C167 H185 0.931 1_565 S
C168 C166 1.500 1_545 S
C168 C169 1.371 . S
C168 C170 1.365 . S
C169 C168 1.371 . S
C169 C179 1.386 . S
C169 H187 0.931 . S
C170 C168 1.365 . S
C170 C171 1.409 . S
C170 H188 0.929 . S
C171 C170 1.409 . S
C171 C172 1.380 . S
C171 H189 0.930 . S
C172 C171 1.380 . S
C172 C179 1.357 . S
C173 C164 1.511 . S
C173 C174 1.341 . S
C173 C175 1.371 . S
C174 C173 1.341 . S
C174 C178 1.394 . S
C174 H190 0.930 . S
C175 C173 1.371 . S
C175 C176 1.392 . S
C175 H191 0.931 . S
C176 C175 1.392 . S
C176 C177 1.331 . S
C176 H194 0.932 . S
C177 C176 1.331 . S
C177 C178 1.336 . S
C178 C174 1.394 . S
C178 C177 1.336 . S
C178 H193 0.929 1_455 S
C179 C169 1.386 . S
C179 C172 1.357 . S
C179 H192 0.928 . S
H180 C156 0.931 . S
H181 C158 0.930 . S
H182 C160 0.929 . S
H183 C161 0.931 . S
H184 C163 0.930 . S
H185 C167 0.931 1_545 S
H186 C165 0.931 . S
H187 C169 0.931 . S
H188 C170 0.929 . S
H189 C171 0.930 . S
H190 C174 0.930 . S
H191 C175 0.931 . S
H192 C179 0.928 . S
H193 C178 0.929 1_655 S
H194 C176 0.932 . S
C195 C196 1.386 . S
C195 C197 1.397 . S
C195 H219 0.931 . S
C196 C195 1.386 . S
C196 C200 1.397 . S
C197 C195 1.397 . S
C197 C198 1.384 . S
C197 H220 0.930 . S
C198 C197 1.384 . S
C198 C199 1.377 . S
C198 C201 1.481 . S
C199 C198 1.377 . S
C199 C200 1.389 . S
C199 H221 0.929 . S
C200 C196 1.397 . S
C200 C199 1.389 . S
C200 H222 0.931 . S
C201 C198 1.481 . S
C201 C202 1.387 . S
C201 C206 1.390 . S
C202 C201 1.387 . S
C202 C203 1.401 . S
C202 H223 0.930 . S
C203 C202 1.401 . S
C203 C204 1.376 . S
C203 C212 1.511 . S
C204 C203 1.376 . S
C204 C205 1.392 . S
C204 H225 0.931 . S
C205 C204 1.392 . S
C205 C206 1.361 . S
C205 C207 1.500 . S
C206 C201 1.390 . S
C206 C205 1.361 . S
C206 H224 0.931 . S
C207 C205 1.500 . S
C207 C208 1.371 . S
C207 C209 1.365 . S
C208 C207 1.371 . S
C208 C218 1.386 . S
C208 H226 0.931 . S
C209 C207 1.365 . S
C209 C210 1.409 . S
C209 H227 0.929 . S
C210 C209 1.409 . S
C210 C211 1.380 . S
C210 H228 0.930 . S
C211 C210 1.380 . S
C211 C218 1.357 . S
C212 C203 1.511 . S
C212 C213 1.341 . S
C212 C214 1.371 . S
C213 C212 1.341 . S
C213 C217 1.394 . S
C213 H229 0.930 . S
C214 C212 1.371 . S
C214 C215 1.392 . S
C214 H230 0.931 . S
C215 C214 1.392 . S
C215 C216 1.331 . S
C215 H233 0.932 . S
C216 C215 1.331 . S
C216 C217 1.336 . S
C217 C213 1.394 . S
C217 C216 1.336 . S
C217 H232 0.929 . S
C218 C208 1.386 . S
C218 C211 1.357 . S
C218 H231 0.928 . S
H219 C195 0.931 . S
H220 C197 0.930 . S
H221 C199 0.929 . S
H222 C200 0.931 . S
H223 C202 0.930 . S
H224 C206 0.931 . S
H225 C204 0.931 . S
H226 C208 0.931 . S
H227 C209 0.929 . S
H228 C210 0.930 . S
H229 C213 0.930 . S
H230 C214 0.931 . S
H231 C218 0.928 . S
H232 C217 0.929 . S
H233 C215 0.932 . S
C234 C235 1.386 . S
C234 C236 1.397 . S
C234 H258 0.931 . S
C235 C234 1.386 . S
C235 C239 1.397 . S
C236 C234 1.397 . S
C236 C237 1.384 . S
C236 H259 0.930 . S
C237 C236 1.384 . S
C237 C238 1.377 . S
C237 C240 1.481 . S
C238 C237 1.377 . S
C238 C239 1.389 . S
C238 H260 0.929 . S
C239 C235 1.397 . S
C239 C238 1.389 . S
C239 H261 0.931 . S
C240 C237 1.481 . S
C240 C241 1.387 . S
C240 C245 1.390 . S
C241 C240 1.387 . S
C241 C242 1.401 . S
C241 H262 0.942 . S
C242 C241 1.401 . S
C242 C243 1.376 . S
C242 C251 1.513 . S
C243 C242 1.376 . S
C243 C244 1.392 . S
C243 H264 0.931 . S
C244 C243 1.392 . S
C244 C245 1.361 . S
C244 C246 1.500 . S
C245 C240 1.390 . S
C245 C244 1.361 . S
C245 H263 0.931 . S
C246 C244 1.500 . S
C246 C247 1.371 . S
C246 C248 1.365 . S
C247 C246 1.371 . S
C247 C257 1.386 . S
C247 H265 0.931 . S
C248 C246 1.365 . S
C248 C249 1.409 . S
C248 H266 0.929 . S
C249 C248 1.409 . S
C249 C250 1.380 . S
C249 H267 0.930 . S
C250 C249 1.380 . S
C250 C257 1.357 . S
C251 C242 1.513 . S
C251 C252 1.339 1_655 S
C251 C253 1.371 1_655 S
C252 C251 1.339 1_455 S
C252 C256 1.394 . S
C252 H268 0.930 . S
C253 C251 1.371 1_455 S
C253 C254 1.392 . S
C253 H269 0.931 1_455 S
C254 C253 1.392 . S
C254 C255 1.331 . S
C254 H272 0.932 . S
C255 C254 1.331 . S
C255 C256 1.336 . S
C256 C252 1.394 . S
C256 C255 1.336 . S
C256 H271 0.929 . S
C257 C247 1.386 . S
C257 C250 1.357 . S
C257 H270 0.928 . S
H258 C234 0.931 . S
H259 C236 0.930 . S
H260 C238 0.929 . S
H261 C239 0.931 . S
H262 C241 0.942 . S
H263 C245 0.931 . S
H264 C243 0.931 . S
H265 C247 0.931 . S
H266 C248 0.929 . S
H267 C249 0.930 . S
H268 C252 0.930 . S
H269 C253 0.931 1_655 S
H270 C257 0.928 . S
H271 C256 0.929 . S
H272 C254 0.932 . S
C273 C274 1.386 . S
C273 C275 1.397 . S
C273 H297 0.931 . S
C274 C273 1.386 . S
C274 C278 1.397 . S
C275 C273 1.397 . S
C275 C276 1.384 . S
C275 H298 0.930 . S
C276 C275 1.384 . S
C276 C277 1.377 . S
C276 C279 1.481 . S
C277 C276 1.377 . S
C277 C278 1.389 . S
C277 H299 0.929 . S
C278 C274 1.397 . S
C278 C277 1.389 . S
C278 H300 0.931 . S
C279 C276 1.481 . S
C279 C280 1.387 . S
C279 C284 1.390 . S
C280 C279 1.387 . S
C280 C281 1.401 . S
C280 H301 0.930 . S
C281 C280 1.401 . S
C281 C282 1.376 . S
C281 C290 1.511 . S
C282 C281 1.376 . S
C282 C283 1.392 . S
C282 H303 0.931 . S
C283 C282 1.392 . S
C283 C284 1.361 . S
C283 C285 1.500 . S
C284 C279 1.390 . S
C284 C283 1.361 . S
C284 H302 0.931 . S
C285 C283 1.500 . S
C285 C286 1.371 . S
C285 C287 1.365 . S
C286 C285 1.371 . S
C286 C296 1.386 . S
C286 H304 0.931 . S
C287 C285 1.365 . S
C287 C288 1.409 . S
C287 H305 0.929 . S
C288 C287 1.409 . S
C288 C289 1.380 . S
C288 H306 0.930 . S
C289 C288 1.380 . S
C289 C296 1.357 . S
C290 C281 1.511 . S
C290 C291 1.341 . S
C290 C292 1.371 . S
C291 C290 1.341 . S
C291 C295 1.394 . S
C291 H307 0.930 . S
C292 C290 1.371 . S
C292 C293 1.392 . S
C292 H308 0.931 . S
C293 C292 1.392 . S
C293 C294 1.331 . S
C293 H311 0.932 . S
C294 C293 1.331 . S
C294 C295 1.336 . S
C295 C291 1.394 . S
C295 C294 1.336 . S
C295 H310 0.929 . S
C296 C286 1.386 . S
C296 C289 1.357 . S
C296 H309 0.928 . S
H297 C273 0.931 . S
H298 C275 0.930 . S
H299 C277 0.929 . S
H300 C278 0.931 . S
H301 C280 0.930 . S
H302 C284 0.931 . S
H303 C282 0.931 . S
H304 C286 0.931 . S
H305 C287 0.929 . S
H306 C288 0.930 . S
H307 C291 0.930 . S
H308 C292 0.931 . S
H309 C296 0.928 . S
H310 C295 0.929 . S
H311 C293 0.932 . S
C312 C313 1.386 . S
C312 C314 1.397 . S
C312 H336 0.931 . S
C313 C312 1.386 . S
C313 C317 1.397 . S
C314 C312 1.397 . S
C314 C315 1.384 . S
C314 H337 0.930 . S
C315 C314 1.384 . S
C315 C316 1.377 . S
C315 C318 1.481 . S
C316 C315 1.377 . S
C316 C317 1.389 . S
C316 H338 0.929 . S
C317 C313 1.397 . S
C317 C316 1.389 . S
C317 H339 0.931 . S
C318 C315 1.481 . S
C318 C319 1.387 . S
C318 C323 1.390 . S
C319 C318 1.387 . S
C319 C320 1.401 . S
C319 H340 0.930 . S
C320 C319 1.401 . S
C320 C321 1.376 . S
C320 C329 1.511 . S
C321 C320 1.376 . S
C321 C322 1.392 . S
C321 H342 0.931 . S
C322 C321 1.392 . S
C322 C323 1.361 . S
C322 C324 1.500 . S
C323 C318 1.390 . S
C323 C322 1.361 . S
C323 H341 0.931 . S
C324 C322 1.500 . S
C324 C325 1.371 . S
C324 C326 1.365 . S
C325 C324 1.371 . S
C325 C335 1.386 . S
C325 H343 0.931 . S
C326 C324 1.365 . S
C326 C327 1.409 . S
C326 H344 0.929 . S
C327 C326 1.409 . S
C327 C328 1.380 . S
C327 H345 0.930 . S
C328 C327 1.380 . S
C328 C335 1.357 . S
C329 C320 1.511 . S
C329 C330 1.341 . S
C329 C331 1.371 . S
C330 C329 1.341 . S
C330 C334 1.394 . S
C330 H346 0.930 . S
C331 C329 1.371 . S
C331 C332 1.392 . S
C331 H347 0.931 . S
C332 C331 1.392 . S
C332 C333 1.331 . S
C332 H350 0.932 . S
C333 C332 1.331 . S
C333 C334 1.336 . S
C334 C330 1.394 . S
C334 C333 1.336 . S
C334 H349 0.929 . S
C335 C325 1.386 . S
C335 C328 1.357 . S
C335 H348 0.928 . S
H336 C312 0.931 . S
H337 C314 0.930 . S
H338 C316 0.929 . S
H339 C317 0.931 . S
H340 C319 0.930 . S
H341 C323 0.931 . S
H342 C321 0.931 . S
H343 C325 0.931 . S
H344 C326 0.929 . S
H345 C327 0.930 . S
H346 C330 0.930 . S
H347 C331 0.931 . S
H348 C335 0.928 . S
H349 C334 0.929 . S
H350 C332 0.932 . S
C351 C352 1.386 . S
C351 C353 1.397 . S
C351 H375 0.931 . S
C352 C351 1.386 . S
C352 C356 1.397 . S
C353 C351 1.397 . S
C353 C354 1.384 . S
C353 H376 0.930 . S
C354 C353 1.384 . S
C354 C355 1.377 . S
C354 C357 1.481 . S
C355 C354 1.377 . S
C355 C356 1.389 . S
C355 H377 0.929 . S
C356 C352 1.397 . S
C356 C355 1.389 . S
C356 H378 0.931 . S
C357 C354 1.481 . S
C357 C358 1.387 . S
C357 C362 1.390 . S
C358 C357 1.387 . S
C358 C359 1.401 . S
C358 H379 0.930 . S
C359 C358 1.401 . S
C359 C360 1.376 . S
C359 C368 1.515 . S
C360 C359 1.376 . S
C360 C361 1.392 . S
C360 H381 0.931 . S
C361 C360 1.392 . S
C361 C362 1.361 . S
C361 C363 1.500 . S
C362 C357 1.390 . S
C362 C361 1.361 . S
C362 H380 0.931 . S
C363 C361 1.500 . S
C363 C364 1.371 . S
C363 C365 1.365 . S
C364 C363 1.371 . S
C364 C374 1.386 . S
C364 H382 0.931 . S
C365 C363 1.365 . S
C365 C366 1.409 . S
C365 H383 0.929 . S
C366 C365 1.409 . S
C366 C367 1.380 . S
C366 H384 0.930 . S
C367 C366 1.380 . S
C367 C374 1.357 . S
C368 C359 1.515 . S
C368 C369 1.337 1_565 S
C368 C370 1.370 1_565 S
C369 C368 1.337 1_545 S
C369 C373 1.394 . S
C369 H385 0.930 . S
C370 C368 1.370 1_545 S
C370 C371 1.392 . S
C370 H386 0.931 1_545 S
C371 C370 1.392 . S
C371 C372 1.331 . S
C371 H389 0.932 . S
C372 C371 1.331 . S
C372 C373 1.336 . S
C373 C369 1.394 . S
C373 C372 1.336 . S
C373 H388 0.929 . S
C374 C364 1.386 . S
C374 C367 1.357 . S
C374 H387 0.928 . S
H375 C351 0.931 . S
H376 C353 0.930 . S
H377 C355 0.929 . S
H378 C356 0.931 . S
H379 C358 0.930 . S
H380 C362 0.931 . S
H381 C360 0.931 . S
H382 C364 0.931 . S
H383 C365 0.929 . S
H384 C366 0.930 . S
H385 C369 0.930 . S
H386 C370 0.931 1_565 S
H387 C374 0.928 . S
H388 C373 0.929 . S
H389 C371 0.932 . S
C390 C391 1.386 . S
C390 C392 1.397 . S
C390 H414 0.931 . S
C391 C390 1.386 . S
C391 C395 1.397 . S
C392 C390 1.397 . S
C392 C393 1.384 . S
C392 H415 0.930 . S
C393 C392 1.384 . S
C393 C394 1.377 . S
C393 C396 1.481 . S
C394 C393 1.377 . S
C394 C395 1.389 . S
C394 H416 0.929 . S
C395 C391 1.397 . S
C395 C394 1.389 . S
C395 H417 0.931 . S
C396 C393 1.481 . S
C396 C397 1.387 . S
C396 C401 1.390 . S
C397 C396 1.387 . S
C397 C398 1.401 . S
C397 H418 0.930 . S
C398 C397 1.401 . S
C398 C399 1.376 . S
C398 C407 1.511 . S
C399 C398 1.376 . S
C399 C400 1.392 . S
C399 H420 0.931 . S
C400 C399 1.392 . S
C400 C401 1.361 . S
C400 C402 1.500 . S
C401 C396 1.390 . S
C401 C400 1.361 . S
C401 H419 0.931 . S
C402 C400 1.500 . S
C402 C403 1.371 . S
C402 C404 1.365 . S
C403 C402 1.371 . S
C403 C413 1.386 . S
C403 H421 0.931 . S
C404 C402 1.365 . S
C404 C405 1.409 . S
C404 H422 0.929 . S
C405 C404 1.409 . S
C405 C406 1.380 . S
C405 H423 0.930 . S
C406 C405 1.380 . S
C406 C413 1.357 . S
C407 C398 1.511 . S
C407 C408 1.341 . S
C407 C409 1.371 . S
C408 C407 1.341 . S
C408 C412 1.394 . S
C408 H424 0.930 . S
C409 C407 1.371 . S
C409 C410 1.392 . S
C409 H425 0.931 . S
C410 C409 1.392 . S
C410 C411 1.331 . S
C410 H428 0.932 . S
C411 C410 1.331 . S
C411 C412 1.336 . S
C412 C408 1.394 . S
C412 C411 1.336 . S
C412 H427 0.929 . S
C413 C403 1.386 . S
C413 C406 1.357 . S
C413 H426 0.928 . S
H414 C390 0.931 . S
H415 C392 0.930 . S
H416 C394 0.929 . S
H417 C395 0.931 . S
H418 C397 0.930 . S
H419 C401 0.931 . S
H420 C399 0.931 . S
H421 C403 0.931 . S
H422 C404 0.929 . S
H423 C405 0.930 . S
H424 C408 0.930 . S
H425 C409 0.931 . S
H426 C413 0.928 . S
H427 C412 0.929 . S
H428 C410 0.932 . S
C429 C430 1.386 . S
C429 C431 1.397 . S
C429 H453 0.931 . S
C430 C429 1.386 . S
C430 C434 1.397 . S
C431 C429 1.397 . S
C431 C432 1.384 . S
C431 H454 0.930 . S
C432 C431 1.384 . S
C432 C433 1.377 . S
C432 C435 1.481 . S
C433 C432 1.377 . S
C433 C434 1.389 . S
C433 H455 0.929 . S
C434 C430 1.397 . S
C434 C433 1.389 . S
C434 H456 0.931 . S
C435 C432 1.481 . S
C435 C436 1.387 . S
C435 C440 1.390 . S
C436 C435 1.387 . S
C436 C437 1.401 . S
C436 H457 0.930 . S
C437 C436 1.401 . S
C437 C438 1.376 . S
C437 C446 1.511 . S
C438 C437 1.376 . S
C438 C439 1.392 . S
C438 H459 0.931 . S
C439 C438 1.392 . S
C439 C440 1.361 . S
C439 C441 1.500 . S
C440 C435 1.390 . S
C440 C439 1.361 . S
C440 H458 0.931 . S
C441 C439 1.500 . S
C441 C442 1.371 . S
C441 C443 1.365 . S
C442 C441 1.371 . S
C442 C452 1.386 . S
C442 H460 0.931 . S
C443 C441 1.365 . S
C443 C444 1.409 . S
C443 H461 0.929 . S
C444 C443 1.409 . S
C444 C445 1.380 . S
C444 H462 0.930 . S
C445 C444 1.380 . S
C445 C452 1.357 . S
C446 C437 1.511 . S
C446 C447 1.341 . S
C446 C448 1.371 . S
C447 C446 1.341 . S
C447 C451 1.394 . S
C447 H463 0.930 . S
C448 C446 1.371 . S
C448 C449 1.392 . S
C448 H464 0.931 . S
C449 C448 1.392 . S
C449 C450 1.331 . S
C449 H467 0.932 . S
C450 C449 1.331 . S
C450 C451 1.336 . S
C451 C447 1.394 . S
C451 C450 1.336 . S
C451 H466 0.929 . S
C452 C442 1.386 . S
C452 C445 1.357 . S
C452 H465 0.928 . S
H453 C429 0.931 . S
H454 C431 0.930 . S
H455 C433 0.929 . S
H456 C434 0.931 . S
H457 C436 0.930 . S
H458 C440 0.931 . S
H459 C438 0.931 . S
H460 C442 0.931 . S
H461 C443 0.929 . S
H462 C444 0.930 . S
H463 C447 0.930 . S
H464 C448 0.931 . S
H465 C452 0.928 . S
H466 C451 0.929 . S
H467 C449 0.932 . S
C468 C469 1.386 . S
C468 C470 1.397 . S
C468 H492 0.931 . S
C469 C468 1.386 . S
C469 C473 1.397 . S
C470 C468 1.397 . S
C470 C471 1.384 . S
C470 H493 0.930 . S
C471 C470 1.384 . S
C471 C472 1.377 . S
C471 C474 1.481 . S
C472 C471 1.377 . S
C472 C473 1.389 . S
C472 H494 0.929 . S
C473 C469 1.397 . S
C473 C472 1.389 . S
C473 H495 0.931 . S
C474 C471 1.481 . S
C474 C475 1.387 . S
C474 C479 1.390 . S
C475 C474 1.387 . S
C475 C476 1.401 . S
C475 H496 0.930 . S
C476 C475 1.401 . S
C476 C477 1.376 . S
C476 C485 1.511 . S
C477 C476 1.376 . S
C477 C478 1.392 . S
C477 H498 0.931 . S
C478 C477 1.392 . S
C478 C479 1.361 . S
C478 C480 1.500 . S
C479 C474 1.390 . S
C479 C478 1.361 . S
C479 H497 0.931 . S
C480 C478 1.500 . S
C480 C481 1.371 . S
C480 C482 1.365 . S
C481 C480 1.371 . S
C481 C491 1.386 . S
C481 H499 0.931 . S
C482 C480 1.365 . S
C482 C483 1.409 . S
C482 H500 0.929 . S
C483 C482 1.409 . S
C483 C484 1.380 . S
C483 H501 0.930 . S
C484 C483 1.380 . S
C484 C491 1.357 . S
C485 C476 1.511 . S
C485 C486 1.341 . S
C485 C487 1.371 . S
C486 C485 1.341 . S
C486 C490 1.394 . S
C486 H502 0.930 . S
C487 C485 1.371 . S
C487 C488 1.392 . S
C487 H503 0.931 . S
C488 C487 1.392 . S
C488 C489 1.331 . S
C488 H506 0.932 . S
C489 C488 1.331 . S
C489 C490 1.336 . S
C490 C486 1.394 . S
C490 C489 1.336 . S
C490 H505 0.929 . S
C491 C481 1.386 . S
C491 C484 1.357 . S
C491 H504 0.928 . S
H492 C468 0.931 . S
H493 C470 0.930 . S
H494 C472 0.929 . S
H495 C473 0.931 . S
H496 C475 0.930 . S
H497 C479 0.931 . S
H498 C477 0.931 . S
H499 C481 0.931 . S
H500 C482 0.929 . S
H501 C483 0.930 . S
H502 C486 0.930 . S
H503 C487 0.931 . S
H504 C491 0.928 . S
H505 C490 0.929 . S
H506 C488 0.932 . S
C507 C508 1.386 . S
C507 C509 1.397 . S
C507 H531 0.931 . S
C508 C507 1.386 . S
C508 C512 1.397 . S
C509 C507 1.397 . S
C509 C510 1.384 . S
C509 H532 0.930 . S
C510 C509 1.384 . S
C510 C511 1.377 . S
C510 C513 1.481 . S
C511 C510 1.377 . S
C511 C512 1.389 . S
C511 H533 0.929 . S
C512 C508 1.397 . S
C512 C511 1.389 . S
C512 H534 0.931 . S
C513 C510 1.481 . S
C513 C514 1.387 . S
C513 C518 1.390 . S
C514 C513 1.387 . S
C514 C515 1.401 . S
C514 H535 0.930 . S
C515 C514 1.401 . S
C515 C516 1.376 . S
C515 C524 1.531 . S
C516 C515 1.376 . S
C516 C517 1.392 . S
C516 H537 0.920 1_556 S
C517 C516 1.392 . S
C517 C518 1.361 . S
C517 C519 1.500 . S
C518 C513 1.390 . S
C518 C517 1.361 . S
C518 H536 0.931 . S
C519 C517 1.500 . S
C519 C520 1.371 . S
C519 C521 1.365 . S
C520 C519 1.371 . S
C520 C530 1.386 1_556 S
C520 H538 0.931 1_556 S
C521 C519 1.365 . S
C521 C522 1.409 . S
C521 H539 0.929 . S
C522 C521 1.409 . S
C522 C523 1.380 . S
C522 H540 0.930 . S
C523 C522 1.380 . S
C523 C530 1.357 1_556 S
C524 C515 1.531 . S
C524 C525 1.340 . S
C524 C526 1.353 1_556 S
C525 C524 1.340 . S
C525 C529 1.383 1_556 S
C525 H541 0.940 . S
C526 C524 1.353 1_554 S
C526 C527 1.392 . S
C526 H542 0.931 . S
C527 C526 1.392 . S
C527 C528 1.331 . S
C527 H545 0.932 . S
C528 C527 1.331 . S
C528 C529 1.336 . S
C529 C525 1.383 1_554 S
C529 C528 1.336 . S
C529 H544 0.929 . S
C530 C520 1.386 1_554 S
C530 C523 1.357 1_554 S
C530 H543 0.928 . S
H531 C507 0.931 . S
H532 C509 0.930 . S
H533 C511 0.929 . S
H534 C512 0.931 . S
H535 C514 0.930 . S
H536 C518 0.931 . S
H537 C516 0.920 1_554 S
H538 C520 0.931 1_554 S
H539 C521 0.929 . S
H540 C522 0.930 . S
H541 C525 0.940 . S
H542 C526 0.931 . S
H543 C530 0.928 . S
H544 C529 0.929 . S
H545 C527 0.932 . S
C546 C547 1.386 . S
C546 C548 1.397 . S
C546 H570 0.931 . S
C547 C546 1.386 . S
C547 C551 1.397 . S
C548 C546 1.397 . S
C548 C549 1.384 . S
C548 H571 0.930 . S
C549 C548 1.384 . S
C549 C550 1.377 . S
C549 C552 1.481 . S
C550 C549 1.377 . S
C550 C551 1.389 . S
C550 H572 0.929 . S
C551 C547 1.397 . S
C551 C550 1.389 . S
C551 H573 0.931 . S
C552 C549 1.481 . S
C552 C553 1.387 . S
C552 C557 1.390 . S
C553 C552 1.387 . S
C553 C554 1.401 . S
C553 H574 0.930 . S
C554 C553 1.401 . S
C554 C555 1.376 . S
C554 C563 1.511 . S
C555 C554 1.376 . S
C555 C556 1.392 . S
C555 H576 0.931 . S
C556 C555 1.392 . S
C556 C557 1.361 . S
C556 C558 1.500 . S
C557 C552 1.390 . S
C557 C556 1.361 . S
C557 H575 0.931 . S
C558 C556 1.500 . S
C558 C559 1.371 . S
C558 C560 1.365 . S
C559 C558 1.371 . S
C559 C569 1.386 . S
C559 H577 0.931 . S
C560 C558 1.365 . S
C560 C561 1.409 . S
C560 H578 0.929 . S
C561 C560 1.409 . S
C561 C562 1.380 . S
C561 H579 0.930 . S
C562 C561 1.380 . S
C562 C569 1.357 . S
C563 C554 1.511 . S
C563 C564 1.341 . S
C563 C565 1.371 . S
C564 C563 1.341 . S
C564 C568 1.394 . S
C564 H580 0.930 . S
C565 C563 1.371 . S
C565 C566 1.392 . S
C565 H581 0.931 . S
C566 C565 1.392 . S
C566 C567 1.331 . S
C566 H584 0.932 . S
C567 C566 1.331 . S
C567 C568 1.336 . S
C568 C564 1.394 . S
C568 C567 1.336 . S
C568 H583 0.929 . S
C569 C559 1.386 . S
C569 C562 1.357 . S
C569 H582 0.928 . S
H570 C546 0.931 . S
H571 C548 0.930 . S
H572 C550 0.929 . S
H573 C551 0.931 . S
H574 C553 0.930 . S
H575 C557 0.931 . S
H576 C555 0.931 . S
H577 C559 0.931 . S
H578 C560 0.929 . S
H579 C561 0.930 . S
H580 C564 0.930 . S
H581 C565 0.931 . S
H582 C569 0.928 . S
H583 C568 0.929 . S
H584 C566 0.932 . S
C585 C586 1.386 . S
C585 C587 1.397 1_554 S
C585 H609 0.931 . S
C586 C585 1.386 . S
C586 C590 1.397 . S
C587 C585 1.397 1_556 S
C587 C588 1.384 1_556 S
C587 H610 0.930 . S
C588 C587 1.384 1_554 S
C588 C589 1.377 . S
C588 C591 1.481 1_554 S
C589 C588 1.377 . S
C589 C590 1.389 . S
C589 H611 0.929 . S
C590 C586 1.397 . S
C590 C589 1.389 . S
C590 H612 0.931 . S
C591 C588 1.481 1_556 S
C591 C592 1.387 . S
C591 C596 1.390 . S
C592 C591 1.387 . S
C592 C593 1.401 . S
C592 H613 0.930 . S
C593 C592 1.401 . S
C593 C594 1.376 . S
C593 C602 1.511 . S
C594 C593 1.376 . S
C594 C595 1.392 . S
C594 H615 0.931 1_545 S
C595 C594 1.392 . S
C595 C596 1.361 . S
C595 C597 1.500 1_545 S
C596 C591 1.390 . S
C596 C595 1.361 . S
C596 H614 0.931 1_556 S
C597 C595 1.500 1_565 S
C597 C598 1.371 . S
C597 C599 1.365 1_556 S
C598 C597 1.371 . S
C598 C608 1.386 . S
C598 H616 0.931 . S
C599 C597 1.365 1_554 S
C599 C600 1.409 . S
C599 H617 0.924 1_565 S
C600 C599 1.409 . S
C600 C601 1.380 1_554 S
C600 H618 0.930 . S
C601 C600 1.380 1_556 S
C601 C608 1.357 . S
C602 C593 1.511 . S
C602 C603 1.341 . S
C602 C604 1.372 1_545 S
C603 C602 1.341 . S
C603 C607 1.394 . S
C603 H619 0.930 . S
C604 C602 1.372 1_565 S
C604 C605 1.392 . S
C604 H620 0.931 . S
C605 C604 1.392 . S
C605 C606 1.331 1_565 S
C605 H623 0.932 . S
C606 C605 1.331 1_545 S
C606 C607 1.336 . S
C607 C603 1.394 . S
C607 C606 1.336 . S
C607 H622 0.929 . S
C608 C598 1.386 . S
C608 C601 1.357 . S
C608 H621 0.928 . S
H609 C585 0.931 . S
H610 C587 0.930 . S
H611 C589 0.929 . S
H612 C590 0.931 . S
H613 C592 0.930 . S
H614 C596 0.931 1_554 S
H615 C594 0.931 1_565 S
H616 C598 0.931 . S
H617 C599 0.924 1_545 S
H618 C600 0.930 . S
H619 C603 0.930 . S
H620 C604 0.931 . S
H621 C608 0.928 . S
H622 C607 0.929 . S
H623 C605 0.932 . S
Mg624 O625 2.034 . S
Mg624 O631 1.986 1_554 S
Mg624 O633 2.114 . S
Mg624 O634 2.251 . S
Mg624 O637 2.010 . S
O625 Mg624 2.034 . S
O625 C628 1.245 1_554 S
O626 Mg627 2.028 . S
O626 C628 1.248 . S
Mg627 O626 2.028 . S
Mg627 O632 2.032 . S
Mg627 O634 2.079 1_556 S
C628 O625 1.245 1_556 S
C628 O626 1.248 . S
C629 O630 1.264 . S
C629 O637 1.249 . S
O630 C629 1.264 . S
O631 Mg624 1.986 1_556 S
O631 C635 1.246 . S
O632 Mg627 2.032 . S
O632 C635 1.259 . S
O633 Mg624 2.114 . S
O633 C636 1.252 . S
O634 Mg624 2.251 . S
O634 Mg627 2.079 1_554 S
O634 C636 1.273 . S
C635 O631 1.246 . S
C635 O632 1.259 . S
C636 O633 1.252 . S
C636 O634 1.273 . S
O637 Mg624 2.010 . S
O637 C629 1.249 . S
Mg638 O639 2.028 . S
Mg638 O645 1.986 . S
Mg638 O647 2.114 . S
Mg638 O648 2.251 . S
Mg638 O651 2.010 . S
O639 Mg638 2.028 . S
O639 C642 1.250 . S
O640 Mg641 2.028 . S
O640 C642 1.248 . S
Mg641 O640 2.028 . S
Mg641 O646 2.032 . S
Mg641 O648 2.079 . S
C642 O639 1.250 . S
C642 O640 1.248 . S
C643 O644 1.264 . S
C643 O651 1.249 . S
O644 C643 1.264 . S
O645 Mg638 1.986 . S
O645 C649 1.246 . S
O646 Mg641 2.032 . S
O646 C649 1.259 . S
O647 Mg638 2.114 . S
O647 C650 1.252 . S
O648 Mg638 2.251 . S
O648 Mg641 2.079 . S
O648 C650 1.273 . S
C649 O645 1.246 . S
C649 O646 1.259 . S
C650 O647 1.252 . S
C650 O648 1.273 . S
O651 Mg638 2.010 . S
O651 C643 1.249 . S
Mg652 O653 2.028 . S
Mg652 O659 1.986 1_554 S
Mg652 O661 2.114 . S
Mg652 O662 2.251 . S
Mg652 O665 2.010 . S
O653 Mg652 2.028 . S
O653 C656 1.251 1_554 S
O654 Mg655 2.028 . S
O654 C656 1.247 . S
Mg655 O654 2.028 . S
Mg655 O660 2.032 . S
Mg655 O662 2.079 1_556 S
C656 O653 1.251 1_556 S
C656 O654 1.247 . S
C657 O658 1.264 . S
C657 O665 1.249 . S
O658 C657 1.264 . S
O659 Mg652 1.986 1_556 S
O659 C663 1.246 . S
O660 Mg655 2.032 . S
O660 C663 1.259 . S
O661 Mg652 2.114 . S
O661 C664 1.252 . S
O662 Mg652 2.251 . S
O662 Mg655 2.079 1_554 S
O662 C664 1.273 . S
C663 O659 1.246 . S
C663 O660 1.259 . S
C664 O661 1.252 . S
C664 O662 1.273 . S
O665 Mg652 2.010 . S
O665 C657 1.249 . S
Mg666 O667 2.043 . S
Mg666 O673 1.986 . S
Mg666 O675 2.114 . S
Mg666 O676 2.251 . S
Mg666 O679 2.010 . S
O667 Mg666 2.043 . S
O667 C670 1.230 1_545 S
O668 Mg669 2.028 . S
O668 C670 1.248 . S
Mg669 O668 2.028 . S
Mg669 O674 2.032 . S
Mg669 O676 2.079 1_565 S
C670 O667 1.230 1_565 S
C670 O668 1.248 . S
C671 O672 1.264 . S
C671 O679 1.249 . S
O672 C671 1.264 . S
O673 Mg666 1.986 . S
O673 C677 1.246 . S
O674 Mg669 2.032 . S
O674 C677 1.259 1_565 S
O675 Mg666 2.114 . S
O675 C678 1.252 . S
O676 Mg666 2.251 . S
O676 Mg669 2.079 1_545 S
O676 C678 1.273 . S
C677 O673 1.246 . S
C677 O674 1.259 1_545 S
C678 O675 1.252 . S
C678 O676 1.273 . S
O679 Mg666 2.010 . S
O679 C671 1.249 . S
Mg680 O681 2.028 . S
Mg680 O687 1.986 . S
Mg680 O689 2.114 . S
Mg680 O690 2.251 . S
Mg680 O693 2.010 . S
O681 Mg680 2.028 . S
O681 C684 1.250 . S
O682 Mg683 2.028 . S
O682 C684 1.248 . S
Mg683 O682 2.028 . S
Mg683 O688 2.032 . S
Mg683 O690 2.079 . S
C684 O681 1.250 . S
C684 O682 1.248 . S
C685 O686 1.264 . S
C685 O693 1.249 . S
O686 C685 1.264 . S
O687 Mg680 1.986 . S
O687 C691 1.246 . S
O688 Mg683 2.032 . S
O688 C691 1.259 . S
O689 Mg680 2.114 . S
O689 C692 1.252 . S
O690 Mg680 2.251 . S
O690 Mg683 2.079 . S
O690 C692 1.273 . S
C691 O687 1.246 . S
C691 O688 1.259 . S
C692 O689 1.252 . S
C692 O690 1.273 . S
O693 Mg680 2.010 . S
O693 C685 1.249 . S
Mg694 O695 2.028 . S
Mg694 O701 1.986 . S
Mg694 O703 2.114 . S
Mg694 O704 2.251 . S
Mg694 O707 2.010 . S
O695 Mg694 2.028 . S
O695 C698 1.250 . S
O696 Mg697 2.028 . S
O696 C698 1.248 . S
Mg697 O696 2.028 . S
Mg697 O702 2.032 . S
Mg697 O704 2.079 . S
C698 O695 1.250 . S
C698 O696 1.248 . S
C699 O700 1.264 . S
C699 O707 1.249 . S
O700 C699 1.264 . S
O701 Mg694 1.986 . S
O701 C705 1.246 . S
O702 Mg697 2.032 . S
O702 C705 1.259 . S
O703 Mg694 2.114 . S
O703 C706 1.252 . S
O704 Mg694 2.251 . S
O704 Mg697 2.079 . S
O704 C706 1.273 . S
C705 O701 1.246 . S
C705 O702 1.259 . S
C706 O703 1.252 . S
C706 O704 1.273 . S
O707 Mg694 2.010 . S
O707 C699 1.249 . S
Mg708 O709 2.028 . S
Mg708 O715 1.986 . S
Mg708 O717 2.114 . S
Mg708 O718 2.251 . S
Mg708 O721 2.010 . S
O709 Mg708 2.028 . S
O709 C712 1.250 . S
O710 Mg711 2.028 . S
O710 C712 1.248 . S
Mg711 O710 2.028 . S
Mg711 O716 2.032 . S
Mg711 O718 2.079 . S
C712 O709 1.250 . S
C712 O710 1.248 . S
C713 O714 1.264 . S
C713 O721 1.249 . S
O714 C713 1.264 . S
O715 Mg708 1.986 . S
O715 C719 1.246 . S
O716 Mg711 2.032 . S
O716 C719 1.259 . S
O717 Mg708 2.114 . S
O717 C720 1.252 . S
O718 Mg708 2.251 . S
O718 Mg711 2.079 . S
O718 C720 1.273 . S
C719 O715 1.246 . S
C719 O716 1.259 . S
C720 O717 1.252 . S
C720 O718 1.273 . S
O721 Mg708 2.010 . S
O721 C713 1.249 . S
Mg722 O723 2.028 1_545 S
Mg722 O729 1.986 1_545 S
Mg722 O731 2.114 . S
Mg722 O732 2.251 . S
Mg722 O735 2.010 . S
O723 Mg722 2.028 1_565 S
O723 C726 1.250 . S
O724 Mg725 2.028 . S
O724 C726 1.248 . S
Mg725 O724 2.028 . S
Mg725 O730 2.032 . S
Mg725 O732 2.079 1_565 S
C726 O723 1.250 . S
C726 O724 1.248 . S
C727 O728 1.264 . S
C727 O735 1.249 . S
O728 C727 1.264 . S
O729 Mg722 1.986 1_565 S
O729 C733 1.246 . S
O730 Mg725 2.032 . S
O730 C733 1.259 . S
O731 Mg722 2.114 . S
O731 C734 1.252 . S
O732 Mg722 2.251 . S
O732 Mg725 2.079 1_545 S
O732 C734 1.273 . S
C733 O729 1.246 . S
C733 O730 1.259 . S
C734 O731 1.252 . S
C734 O732 1.273 . S
O735 Mg722 2.010 . S
O735 C727 1.249 . S
Mg736 O737 2.027 . S
Mg736 O743 1.986 . S
Mg736 O745 2.114 . S
Mg736 O746 2.251 . S
Mg736 O749 2.010 . S
O737 Mg736 2.027 . S
O737 C740 1.252 1_455 S
O738 Mg739 2.028 . S
O738 C740 1.248 . S
Mg739 O738 2.028 . S
Mg739 O744 2.032 . S
Mg739 O746 2.079 1_655 S
C740 O737 1.252 1_655 S
C740 O738 1.248 . S
C741 O742 1.264 . S
C741 O749 1.249 . S
O742 C741 1.264 . S
O743 Mg736 1.986 . S
O743 C747 1.246 . S
O744 Mg739 2.032 . S
O744 C747 1.259 1_655 S
O745 Mg736 2.114 . S
O745 C748 1.252 . S
O746 Mg736 2.251 . S
O746 Mg739 2.079 1_455 S
O746 C748 1.273 . S
C747 O743 1.246 . S
C747 O744 1.259 1_455 S
C748 O745 1.252 . S
C748 O746 1.273 . S
O749 Mg736 2.010 . S
O749 C741 1.249 . S
Mg750 O751 2.028 . S
Mg750 O757 1.986 . S
Mg750 O759 2.114 . S
Mg750 O760 2.251 . S
Mg750 O763 2.010 . S
O751 Mg750 2.028 . S
O751 C754 1.250 . S
O752 Mg753 2.028 . S
O752 C754 1.248 . S
Mg753 O752 2.028 . S
Mg753 O758 2.032 . S
Mg753 O760 2.079 . S
C754 O751 1.250 . S
C754 O752 1.248 . S
C755 O756 1.264 . S
C755 O763 1.249 . S
O756 C755 1.264 . S
O757 Mg750 1.986 . S
O757 C761 1.246 . S
O758 Mg753 2.032 . S
O758 C761 1.259 . S
O759 Mg750 2.114 . S
O759 C762 1.252 . S
O760 Mg750 2.251 . S
O760 Mg753 2.079 . S
O760 C762 1.273 . S
C761 O757 1.246 . S
C761 O758 1.259 . S
C762 O759 1.252 . S
C762 O760 1.273 . S
O763 Mg750 2.010 . S
O763 C755 1.249 . S
Mg764 O765 2.028 1_655 S
Mg764 O771 1.986 . S
Mg764 O773 2.114 . S
Mg764 O774 2.251 1_655 S
Mg764 O777 2.010 . S
O765 Mg764 2.028 1_455 S
O765 C768 1.250 . S
O766 Mg767 2.028 . S
O766 C768 1.248 . S
Mg767 O766 2.028 . S
Mg767 O772 2.032 . S
Mg767 O774 2.079 . S
C768 O765 1.250 . S
C768 O766 1.248 . S
C769 O770 1.264 . S
C769 O777 1.249 . S
O770 C769 1.264 . S
O771 Mg764 1.986 . S
O771 C775 1.246 1_655 S
O772 Mg767 2.032 . S
O772 C775 1.259 . S
O773 Mg764 2.114 . S
O773 C776 1.252 . S
O774 Mg764 2.251 1_455 S
O774 Mg767 2.079 . S
O774 C776 1.273 1_455 S
C775 O771 1.246 1_455 S
C775 O772 1.259 . S
C776 O773 1.252 . S
C776 O774 1.273 1_655 S
O777 Mg764 2.010 . S
O777 C769 1.249 . S
Mg778 O779 2.028 . S
Mg778 O785 1.986 . S
Mg778 O787 2.114 . S
Mg778 O788 2.251 . S
Mg778 O791 2.010 . S
O779 Mg778 2.028 . S
O779 C782 1.250 . S
O780 Mg781 2.028 . S
O780 C782 1.248 . S
Mg781 O780 2.028 . S
Mg781 O786 2.032 . S
Mg781 O788 2.079 . S
C782 O779 1.250 . S
C782 O780 1.248 . S
C783 O784 1.264 . S
C783 O791 1.249 . S
O784 C783 1.264 . S
O785 Mg778 1.986 . S
O785 C789 1.246 . S
O786 Mg781 2.032 . S
O786 C789 1.259 . S
O787 Mg778 2.114 . S
O787 C790 1.252 . S
O788 Mg778 2.251 . S
O788 Mg781 2.079 . S
O788 C790 1.273 . S
C789 O785 1.246 . S
C789 O786 1.259 . S
C790 O787 1.252 . S
C790 O788 1.273 . S
O791 Mg778 2.010 . S
O791 C783 1.249 . S
C792 C793 1.387 . S
C792 H796 0.950 . S
C792 C801 1.390 . S
C793 C792 1.387 . S
C793 C795 1.387 . S
H794 C801 0.950 . S
C795 C793 1.387 . S
C795 C797 1.390 . S
C795 H799 0.950 . S
H796 C792 0.950 . S
C797 C795 1.390 . S
C797 C798 1.387 . S
C797 H800 0.950 . S
C798 C797 1.387 . S
C798 C801 1.387 . S
H799 C795 0.950 . S
H800 C797 0.950 . S
C801 C792 1.390 . S
C801 H794 0.950 . S
C801 C798 1.387 . S
C802 C803 1.387 . S
C802 H806 0.950 . S
C802 C811 1.390 . S
C803 C802 1.387 . S
C803 C805 1.387 . S
H804 C811 0.950 . S
C805 C803 1.387 . S
C805 C807 1.390 . S
C805 H809 0.950 . S
H806 C802 0.950 . S
C807 C805 1.390 . S
C807 C808 1.387 . S
C807 H810 0.950 . S
C808 C807 1.387 . S
C808 C811 1.387 . S
H809 C805 0.950 . S
H810 C807 0.950 . S
C811 C802 1.390 . S
C811 H804 0.950 . S
C811 C808 1.387 . S
C812 C813 1.387 . S
C812 H816 0.950 . S
C812 C821 1.390 . S
C813 C812 1.387 . S
C813 C815 1.387 . S
H814 C821 0.950 . S
C815 C813 1.387 . S
C815 C817 1.390 . S
C815 H819 0.950 . S
H816 C812 0.950 . S
C817 C815 1.390 . S
C817 C818 1.387 . S
C817 H820 0.950 . S
C818 C817 1.387 . S
C818 C821 1.387 . S
H819 C815 0.950 . S
H820 C817 0.950 . S
C821 C812 1.390 . S
C821 H814 0.950 . S
C821 C818 1.387 . S
C822 C823 1.387 . S
C822 H826 0.950 . S
C822 C831 1.390 . S
C823 C822 1.387 . S
C823 C825 1.387 1_565 S
H824 C831 0.950 . S
C825 C823 1.387 1_545 S
C825 C827 1.390 . S
C825 H829 0.950 . S
H826 C822 0.950 . S
C827 C825 1.390 . S
C827 C828 1.387 . S
C827 H830 0.950 . S
C828 C827 1.387 . S
C828 C831 1.387 1_545 S
H829 C825 0.950 . S
H830 C827 0.950 . S
C831 C822 1.390 . S
C831 H824 0.950 . S
C831 C828 1.387 1_565 S
C832 C833 1.387 . S
C832 H836 0.950 . S
C832 C841 1.390 . S
C833 C832 1.387 . S
C833 C835 1.387 . S
H834 C841 0.950 . S
C835 C833 1.387 . S
C835 C837 1.390 . S
C835 H839 0.950 . S
H836 C832 0.950 . S
C837 C835 1.390 . S
C837 C838 1.387 . S
C837 H840 0.950 . S
C838 C837 1.387 . S
C838 C841 1.387 . S
H839 C835 0.950 . S
H840 C837 0.950 . S
C841 C832 1.390 . S
C841 H834 0.950 . S
C841 C838 1.387 . S
C842 C843 1.387 . S
C842 H846 0.950 . S
C842 C851 1.390 . S
C843 C842 1.387 . S
C843 C845 1.387 . S
H844 C851 0.950 . S
C845 C843 1.387 . S
C845 C847 1.390 . S
C845 H849 0.950 . S
H846 C842 0.950 . S
C847 C845 1.390 . S
C847 C848 1.387 . S
C847 H850 0.950 . S
C848 C847 1.387 . S
C848 C851 1.387 . S
H849 C845 0.950 . S
H850 C847 0.950 . S
C851 C842 1.390 . S
C851 H844 0.950 . S
C851 C848 1.387 . S
C852 C853 1.387 . S
C852 H856 0.950 . S
C852 C861 1.390 . S
C853 C852 1.387 . S
C853 C855 1.387 . S
H854 C861 0.950 . S
C855 C853 1.387 . S
C855 C857 1.390 . S
C855 H859 0.950 . S
H856 C852 0.950 . S
C857 C855 1.390 . S
C857 C858 1.387 . S
C857 H860 0.950 . S
C858 C857 1.387 . S
C858 C861 1.387 . S
H859 C855 0.950 . S
H860 C857 0.950 . S
C861 C852 1.390 . S
C861 H854 0.950 . S
C861 C858 1.387 . S
C862 C863 1.387 1_545 S
C862 H866 0.950 . S
C862 C871 1.390 . S
C863 C862 1.387 1_565 S
C863 C865 1.387 . S
H864 C871 0.950 . S
C865 C863 1.387 . S
C865 C867 1.390 . S
C865 H869 0.950 . S
H866 C862 0.950 . S
C867 C865 1.390 . S
C867 C868 1.387 . S
C867 H870 0.950 . S
C868 C867 1.387 . S
C868 C871 1.387 1_565 S
H869 C865 0.950 . S
H870 C867 0.950 . S
C871 C862 1.390 . S
C871 H864 0.950 . S
C871 C868 1.387 1_545 S
C872 C873 1.387 . S
C872 H876 0.950 . S
C872 C881 1.390 . S
C873 C872 1.387 . S
C873 C875 1.387 . S
H874 C881 0.950 . S
C875 C873 1.387 . S
C875 C877 1.390 . S
C875 H879 0.950 . S
H876 C872 0.950 . S
C877 C875 1.390 . S
C877 C878 1.387 . S
C877 H880 0.950 . S
C878 C877 1.387 . S
C878 C881 1.387 . S
H879 C875 0.950 . S
H880 C877 0.950 . S
C881 C872 1.390 . S
C881 H874 0.950 . S
C881 C878 1.387 . S
C882 C883 1.387 . S
C882 H886 0.950 . S
C882 C891 1.390 . S
C883 C882 1.387 . S
C883 C885 1.387 . S
H884 C891 0.950 . S
C885 C883 1.387 . S
C885 C887 1.390 . S
C885 H889 0.950 . S
H886 C882 0.950 . S
C887 C885 1.390 . S
C887 C888 1.387 . S
C887 H890 0.950 . S
C888 C887 1.387 . S
C888 C891 1.387 . S
H889 C885 0.950 . S
H890 C887 0.950 . S
C891 C882 1.390 . S
C891 H884 0.950 . S
C891 C888 1.387 . S
C892 C893 1.387 . S
C892 H896 0.950 . S
C892 C901 1.390 . S
C893 C892 1.387 . S
C893 C895 1.387 . S
H894 C901 0.950 . S
C895 C893 1.387 . S
C895 C897 1.390 . S
C895 H899 0.950 . S
H896 C892 0.950 . S
C897 C895 1.390 . S
C897 C898 1.387 . S
C897 H900 0.950 . S
C898 C897 1.387 . S
C898 C901 1.387 . S
H899 C895 0.950 . S
H900 C897 0.950 . S
C901 C892 1.390 . S
C901 H894 0.950 . S
C901 C898 1.387 . S
C902 C903 1.387 . S
C902 H906 0.950 . S
C902 C911 1.390 . S
C903 C902 1.387 . S
C903 C905 1.387 . S
H904 C911 0.950 . S
C905 C903 1.387 . S
C905 C907 1.390 . S
C905 H909 0.950 . S
H906 C902 0.950 . S
C907 C905 1.390 . S
C907 C908 1.387 . S
C907 H910 0.950 . S
C908 C907 1.387 . S
C908 C911 1.387 . S
H909 C905 0.950 . S
H910 C907 0.950 . S
C911 C902 1.390 . S
C911 H904 0.950 . S
C911 C908 1.387 . S
C912 C913 1.387 . S
C912 H916 0.950 . S
C912 C921 1.390 . S
C913 C912 1.387 . S
C913 C915 1.387 . S
H914 C921 0.950 . S
C915 C913 1.387 . S
C915 C917 1.390 . S
C915 H919 0.950 . S
H916 C912 0.950 . S
C917 C915 1.390 . S
C917 C918 1.387 . S
C917 H920 0.950 . S
C918 C917 1.387 . S
C918 C921 1.387 . S
H919 C915 0.950 . S
H920 C917 0.950 . S
C921 C912 1.390 . S
C921 H914 0.950 . S
C921 C918 1.387 . S
C922 C923 1.387 . S
C922 H926 0.950 1_455 S
C922 C931 1.390 1_455 S
C923 C922 1.387 . S
C923 C925 1.387 . S
H924 C931 0.950 . S
C925 C923 1.387 . S
C925 C927 1.390 . S
C925 H929 0.950 . S
H926 C922 0.950 1_655 S
C927 C925 1.390 . S
C927 C928 1.387 . S
C927 H930 0.950 . S
C928 C927 1.387 . S
C928 C931 1.387 1_455 S
H929 C925 0.950 . S
H930 C927 0.950 . S
C931 C922 1.390 1_655 S
C931 H924 0.950 . S
C931 C928 1.387 1_655 S
C932 C933 1.387 . S
C932 H936 0.950 . S
C932 C941 1.390 . S
C933 C932 1.387 . S
C933 C935 1.387 . S
H934 C941 0.950 . S
C935 C933 1.387 . S
C935 C937 1.390 . S
C935 H939 0.950 . S
H936 C932 0.950 . S
C937 C935 1.390 . S
C937 C938 1.387 . S
C937 H940 0.950 . S
C938 C937 1.387 . S
C938 C941 1.387 . S
H939 C935 0.950 . S
H940 C937 0.950 . S
C941 C932 1.390 . S
C941 H934 0.950 . S
C941 C938 1.387 . S
C942 C943 1.381 1_455 S
C942 H946 0.956 . S
C942 C951 1.390 . S
C943 C942 1.381 1_655 S
C943 C945 1.387 . S
H944 C951 0.950 . S
C945 C943 1.387 . S
C945 C947 1.390 . S
C945 H949 0.950 . S
H946 C942 0.956 . S
C947 C945 1.390 . S
C947 C948 1.387 . S
C947 H950 0.950 . S
C948 C947 1.387 . S
C948 C951 1.387 1_655 S
H949 C945 0.950 . S
H950 C947 0.950 . S
C951 C942 1.390 . S
C951 H944 0.950 . S
C951 C948 1.387 1_455 S
C952 C953 1.387 . S
C952 H956 0.950 . S
C952 C961 1.390 . S
C953 C952 1.387 . S
C953 C955 1.387 . S
H954 C961 0.950 . S
C955 C953 1.387 . S
C955 C957 1.390 . S
C955 H959 0.950 . S
H956 C952 0.950 . S
C957 C955 1.390 . S
C957 C958 1.387 . S
C957 H960 0.950 . S
C958 C957 1.387 . S
C958 C961 1.387 . S
H959 C955 0.950 . S
H960 C957 0.950 . S
C961 C952 1.390 . S
C961 H954 0.950 . S
C961 C958 1.387 . S
C962 C963 1.387 . S
C962 H966 0.950 . S
C962 C971 1.390 . S
C963 C962 1.387 . S
C963 C965 1.387 . S
H964 C971 0.950 . S
C965 C963 1.387 . S
C965 C967 1.390 . S
C965 H969 0.950 . S
H966 C962 0.950 . S
C967 C965 1.390 . S
C967 C968 1.387 . S
C967 H970 0.950 . S
C968 C967 1.387 . S
C968 C971 1.387 . S
H969 C965 0.950 . S
H970 C967 0.950 . S
C971 C962 1.390 . S
C971 H964 0.950 . S
C971 C968 1.387 . S
C972 C973 1.387 . S
C972 H976 0.950 . S
C972 C981 1.390 . S
C973 C972 1.387 . S
C973 C975 1.387 1_556 S
H974 C981 0.950 . S
C975 C973 1.387 1_554 S
C975 C977 1.390 . S
C975 H979 0.950 . S
H976 C972 0.950 . S
C977 C975 1.390 . S
C977 C978 1.387 1_554 S
C977 H980 0.950 . S
C978 C977 1.387 1_556 S
C978 C981 1.387 . S
H979 C975 0.950 . S
H980 C977 0.950 . S
C981 C972 1.390 . S
C981 H974 0.950 . S
C981 C978 1.387 . S
C982 C983 1.387 . S
C982 H986 0.950 . S
C982 C991 1.390 . S
C983 C982 1.387 . S
C983 C985 1.387 . S
H984 C991 0.950 . S
C985 C983 1.387 . S
C985 C987 1.390 . S
C985 H989 0.950 . S
H986 C982 0.950 . S
C987 C985 1.390 . S
C987 C988 1.387 . S
C987 H990 0.950 . S
C988 C987 1.387 . S
C988 C991 1.387 . S
H989 C985 0.950 . S
H990 C987 0.950 . S
C991 C982 1.390 . S
C991 H984 0.950 . S
C991 C988 1.387 . S
C992 C993 1.387 . S
C992 H996 0.950 . S
C992 C1001 1.390 . S
C993 C992 1.387 . S
C993 C995 1.387 . S
H994 C1001 0.950 . S
C995 C993 1.387 . S
C995 C997 1.390 . S
C995 H999 0.950 . S
H996 C992 0.950 . S
C997 C995 1.390 . S
C997 C998 1.387 . S
C997 H1000 0.950 . S
C998 C997 1.387 . S
C998 C1001 1.387 . S
H999 C995 0.950 . S
H1000 C997 0.950 . S
C1001 C992 1.390 . S
C1001 H994 0.950 . S
C1001 C998 1.387 . S
C1002 C1003 1.387 . S
C1002 H1006 0.950 . S
C1002 C1011 1.390 . S
C1003 C1002 1.387 . S
C1003 C1005 1.387 . S
H1004 C1011 0.950 . S
C1005 C1003 1.387 . S
C1005 C1007 1.390 . S
C1005 H1009 0.950 . S
H1006 C1002 0.950 . S
C1007 C1005 1.390 . S
C1007 C1008 1.387 . S
C1007 H1010 0.950 . S
C1008 C1007 1.387 . S
C1008 C1011 1.387 . S
H1009 C1005 0.950 . S
H1010 C1007 0.950 . S
C1011 C1002 1.390 . S
C1011 H1004 0.950 . S
C1011 C1008 1.387 . S
C1012 C1013 1.387 . S
C1012 H1016 0.950 . S
C1012 C1021 1.390 . S
C1013 C1012 1.387 . S
C1013 C1015 1.387 . S
H1014 C1021 0.950 . S
C1015 C1013 1.387 . S
C1015 C1017 1.390 . S
C1015 H1019 0.950 . S
H1016 C1012 0.950 . S
C1017 C1015 1.390 . S
C1017 C1018 1.387 . S
C1017 H1020 0.950 . S
C1018 C1017 1.387 . S
C1018 C1021 1.387 . S
H1019 C1015 0.950 . S
H1020 C1017 0.950 . S
C1021 C1012 1.390 . S
C1021 H1014 0.950 . S
C1021 C1018 1.387 . S
C1022 C1023 1.387 . S
C1022 H1026 0.950 . S
C1022 C1031 1.390 . S
C1023 C1022 1.387 . S
C1023 C1025 1.387 . S
H1024 C1031 0.950 . S
C1025 C1023 1.387 . S
C1025 C1027 1.390 . S
C1025 H1029 0.950 . S
H1026 C1022 0.950 . S
C1027 C1025 1.390 . S
C1027 C1028 1.387 . S
C1027 H1030 0.950 . S
C1028 C1027 1.387 . S
C1028 C1031 1.387 . S
H1029 C1025 0.950 . S
H1030 C1027 0.950 . S
C1031 C1022 1.390 . S
C1031 H1024 0.950 . S
C1031 C1028 1.387 . S
C1032 C1033 1.387 . S
C1032 H1036 0.950 . S
C1032 C1041 1.390 . S
C1033 C1032 1.387 . S
C1033 C1035 1.387 . S
H1034 C1041 0.950 . S
C1035 C1033 1.387 . S
C1035 C1037 1.390 . S
C1035 H1039 0.950 . S
H1036 C1032 0.950 . S
C1037 C1035 1.390 . S
C1037 C1038 1.387 . S
C1037 H1040 0.950 . S
C1038 C1037 1.387 . S
C1038 C1041 1.387 . S
H1039 C1035 0.950 . S
H1040 C1037 0.950 . S
C1041 C1032 1.390 . S
C1041 H1034 0.950 . S
C1041 C1038 1.387 . S
C1042 C1043 1.387 . S
C1042 H1046 0.950 . S
C1042 C1051 1.390 . S
C1043 C1042 1.387 . S
C1043 C1045 1.387 1_545 S
H1044 C1051 0.950 . S
C1045 C1043 1.387 1_565 S
C1045 C1047 1.390 . S
C1045 H1049 0.950 . S
H1046 C1042 0.950 . S
C1047 C1045 1.390 . S
C1047 C1048 1.387 1_565 S
C1047 H1050 0.950 . S
C1048 C1047 1.387 1_545 S
C1048 C1051 1.387 . S
H1049 C1045 0.950 . S
H1050 C1047 0.950 . S
C1051 C1042 1.390 . S
C1051 H1044 0.950 . S
C1051 C1048 1.387 . S
C1052 C1053 1.387 . S
C1052 H1056 0.950 . S
C1052 C1061 1.390 . S
C1053 C1052 1.387 . S
C1053 C1055 1.387 . S
H1054 C1061 0.950 . S
C1055 C1053 1.387 . S
C1055 C1057 1.390 . S
C1055 H1059 0.950 . S
H1056 C1052 0.950 . S
C1057 C1055 1.390 . S
C1057 C1058 1.387 . S
C1057 H1060 0.950 . S
C1058 C1057 1.387 . S
C1058 C1061 1.387 . S
H1059 C1055 0.950 . S
H1060 C1057 0.950 . S
C1061 C1052 1.390 . S
C1061 H1054 0.950 . S
C1061 C1058 1.387 . S
C1062 C1063 1.387 . S
C1062 H1066 0.950 . S
C1062 C1071 1.390 . S
C1063 C1062 1.387 . S
C1063 C1065 1.387 . S
H1064 C1071 0.950 . S
C1065 C1063 1.387 . S
C1065 C1067 1.390 . S
C1065 H1069 0.950 . S
H1066 C1062 0.950 . S
C1067 C1065 1.390 . S
C1067 C1068 1.387 . S
C1067 H1070 0.950 . S
C1068 C1067 1.387 . S
C1068 C1071 1.387 . S
H1069 C1065 0.950 . S
H1070 C1067 0.950 . S
C1071 C1062 1.390 . S
C1071 H1064 0.950 . S
C1071 C1068 1.387 . S
C1072 C1073 1.387 . S
C1072 H1076 0.950 . S
C1072 C1081 1.390 . S
C1073 C1072 1.387 . S
C1073 C1075 1.387 . S
H1074 C1081 0.950 . S
C1075 C1073 1.387 . S
C1075 C1077 1.390 . S
C1075 H1079 0.950 . S
H1076 C1072 0.950 . S
C1077 C1075 1.390 . S
C1077 C1078 1.387 . S
C1077 H1080 0.950 . S
C1078 C1077 1.387 . S
C1078 C1081 1.387 . S
H1079 C1075 0.950 . S
H1080 C1077 0.950 . S
C1081 C1072 1.390 . S
C1081 H1074 0.950 . S
C1081 C1078 1.387 . S
C1082 C1083 1.370 1_565 S
C1082 H1086 0.967 . S
C1082 C1091 1.390 . S
C1083 C1082 1.370 1_545 S
C1083 C1085 1.387 . S
H1084 C1091 0.950 . S
C1085 C1083 1.387 . S
C1085 C1087 1.390 . S
C1085 H1089 0.950 . S
H1086 C1082 0.967 . S
C1087 C1085 1.390 . S
C1087 C1088 1.387 . S
C1087 H1090 0.950 . S
C1088 C1087 1.387 . S
C1088 C1091 1.387 1_545 S
H1089 C1085 0.950 . S
H1090 C1087 0.950 . S
C1091 C1082 1.390 . S
C1091 H1084 0.950 . S
C1091 C1088 1.387 1_565 S
C1092 C1093 1.387 . S
C1092 H1096 0.950 . S
C1092 C1101 1.390 . S
C1093 C1092 1.387 . S
C1093 C1095 1.387 . S
H1094 C1101 0.950 . S
C1095 C1093 1.387 . S
C1095 C1097 1.390 . S
C1095 H1099 0.950 . S
H1096 C1092 0.950 . S
C1097 C1095 1.390 . S
C1097 C1098 1.387 . S
C1097 H1100 0.950 . S
C1098 C1097 1.387 . S
C1098 C1101 1.387 . S
H1099 C1095 0.950 . S
H1100 C1097 0.950 . S
C1101 C1092 1.390 . S
C1101 H1094 0.950 . S
C1101 C1098 1.387 . S
C1102 C1103 1.387 . S
C1102 H1106 0.950 . S
C1102 C1111 1.390 . S
C1103 C1102 1.387 . S
C1103 C1105 1.387 . S
H1104 C1111 0.950 . S
C1105 C1103 1.387 . S
C1105 C1107 1.390 . S
C1105 H1109 0.950 . S
H1106 C1102 0.950 . S
C1107 C1105 1.390 . S
C1107 C1108 1.387 . S
C1107 H1110 0.950 . S
C1108 C1107 1.387 . S
C1108 C1111 1.387 . S
H1109 C1105 0.950 . S
H1110 C1107 0.950 . S
C1111 C1102 1.390 . S
C1111 H1104 0.950 . S
C1111 C1108 1.387 . S
C1112 C1113 1.387 . S
C1112 H1116 0.950 . S
C1112 C1121 1.390 . S
C1113 C1112 1.387 . S
C1113 C1115 1.387 . S
H1114 C1121 0.950 . S
C1115 C1113 1.387 . S
C1115 C1117 1.390 . S
C1115 H1119 0.950 . S
H1116 C1112 0.950 . S
C1117 C1115 1.390 . S
C1117 C1118 1.387 . S
C1117 H1120 0.950 . S
C1118 C1117 1.387 . S
C1118 C1121 1.387 . S
H1119 C1115 0.950 . S
H1120 C1117 0.950 . S
C1121 C1112 1.390 . S
C1121 H1114 0.950 . S
C1121 C1118 1.387 . S
C1122 C1123 1.387 . S
C1122 H1126 0.950 . S
C1122 C1131 1.390 . S
C1123 C1122 1.387 . S
C1123 C1125 1.387 1_655 S
H1124 C1131 0.950 . S
C1125 C1123 1.387 1_455 S
C1125 C1127 1.390 . S
C1125 H1129 0.950 . S
H1126 C1122 0.950 . S
C1127 C1125 1.390 . S
C1127 C1128 1.387 . S
C1127 H1130 0.950 . S
C1128 C1127 1.387 . S
C1128 C1131 1.387 1_455 S
H1129 C1125 0.950 . S
H1130 C1127 0.950 . S
C1131 C1122 1.390 . S
C1131 H1124 0.950 . S
C1131 C1128 1.387 1_655 S
C1132 C1133 1.387 . S
C1132 H1136 0.950 . S
C1132 C1141 1.390 . S
C1133 C1132 1.387 . S
C1133 C1135 1.387 . S
H1134 C1141 0.950 . S
C1135 C1133 1.387 . S
C1135 C1137 1.390 . S
C1135 H1139 0.950 . S
H1136 C1132 0.950 . S
C1137 C1135 1.390 . S
C1137 C1138 1.387 . S
C1137 H1140 0.950 . S
C1138 C1137 1.387 . S
C1138 C1141 1.387 . S
H1139 C1135 0.950 . S
H1140 C1137 0.950 . S
C1141 C1132 1.390 . S
C1141 H1134 0.950 . S
C1141 C1138 1.387 . S
C1142 C1143 1.387 1_655 S
C1142 H1146 0.950 . S
C1142 C1151 1.390 . S
C1143 C1142 1.387 1_455 S
C1143 C1145 1.387 . S
H1144 C1151 0.950 . S
C1145 C1143 1.387 . S
C1145 C1147 1.390 . S
C1145 H1149 0.950 . S
H1146 C1142 0.950 . S
C1147 C1145 1.390 . S
C1147 C1148 1.387 . S
C1147 H1150 0.950 . S
C1148 C1147 1.387 . S
C1148 C1151 1.387 1_455 S
H1149 C1145 0.950 . S
H1150 C1147 0.950 . S
C1151 C1142 1.390 . S
C1151 H1144 0.950 . S
C1151 C1148 1.387 1_655 S
C1152 C1153 1.387 . S
C1152 H1156 0.950 . S
C1152 C1161 1.390 . S
C1153 C1152 1.387 . S
C1153 C1155 1.387 . S
H1154 C1161 0.950 . S
C1155 C1153 1.387 . S
C1155 C1157 1.390 . S
C1155 H1159 0.950 . S
H1156 C1152 0.950 . S
C1157 C1155 1.390 . S
C1157 C1158 1.387 . S
C1157 H1160 0.950 . S
C1158 C1157 1.387 . S
C1158 C1161 1.387 . S
H1159 C1155 0.950 . S
H1160 C1157 0.950 . S
C1161 C1152 1.390 . S
C1161 H1154 0.950 . S
C1161 C1158 1.387 . S
C1162 C1163 1.387 . S
C1162 H1166 0.950 . S
C1162 C1171 1.390 . S
C1163 C1162 1.387 . S
C1163 C1165 1.387 . S
H1164 C1171 0.950 . S
C1165 C1163 1.387 . S
C1165 C1167 1.390 . S
C1165 H1169 0.950 . S
H1166 C1162 0.950 . S
C1167 C1165 1.390 . S
C1167 C1168 1.387 . S
C1167 H1170 0.950 . S
C1168 C1167 1.387 . S
C1168 C1171 1.387 . S
H1169 C1165 0.950 . S
H1170 C1167 0.950 . S
C1171 C1162 1.390 . S
C1171 H1164 0.950 . S
C1171 C1168 1.387 . S
C1172 C1173 1.387 . S
C1172 H1176 0.950 . S
C1172 C1181 1.390 . S
C1173 C1172 1.387 . S
C1173 C1175 1.387 . S
H1174 C1181 0.950 . S
C1175 C1173 1.387 . S
C1175 C1177 1.390 . S
C1175 H1179 0.950 . S
H1176 C1172 0.950 . S
C1177 C1175 1.390 . S
C1177 C1178 1.387 . S
C1177 H1180 0.950 . S
C1178 C1177 1.387 . S
C1178 C1181 1.387 . S
H1179 C1175 0.950 . S
H1180 C1177 0.950 . S
C1181 C1172 1.390 . S
C1181 H1174 0.950 . S
C1181 C1178 1.387 . S
C1182 C1183 1.387 . S
C1182 H1186 0.950 . S
C1182 C1191 1.390 . S
C1183 C1182 1.387 . S
C1183 C1185 1.387 . S
H1184 C1191 0.950 . S
C1185 C1183 1.387 . S
C1185 C1187 1.390 . S
C1185 H1189 0.950 . S
H1186 C1182 0.950 . S
C1187 C1185 1.390 . S
C1187 C1188 1.387 . S
C1187 H1190 0.950 . S
C1188 C1187 1.387 . S
C1188 C1191 1.387 . S
H1189 C1185 0.950 . S
H1190 C1187 0.950 . S
C1191 C1182 1.390 . S
C1191 H1184 0.950 . S
C1191 C1188 1.387 . S
C1192 C1193 1.387 . S
C1192 H1196 0.950 . S
C1192 C1201 1.390 . S
C1193 C1192 1.387 . S
C1193 C1195 1.387 . S
H1194 C1201 0.950 . S
C1195 C1193 1.387 . S
C1195 C1197 1.390 . S
C1195 H1199 0.950 . S
H1196 C1192 0.950 . S
C1197 C1195 1.390 . S
C1197 C1198 1.387 . S
C1197 H1200 0.950 . S
C1198 C1197 1.387 . S
C1198 C1201 1.387 . S
H1199 C1195 0.950 . S
H1200 C1197 0.950 . S
C1201 C1192 1.390 . S
C1201 H1194 0.950 . S
C1201 C1198 1.387 . S
C1202 C1203 1.387 . S
C1202 H1206 0.950 . S
C1202 C1211 1.390 . S
C1203 C1202 1.387 . S
C1203 C1205 1.387 . S
H1204 C1211 0.950 . S
C1205 C1203 1.387 . S
C1205 C1207 1.390 . S
C1205 H1209 0.950 . S
H1206 C1202 0.950 . S
C1207 C1205 1.390 . S
C1207 C1208 1.387 . S
C1207 H1210 0.950 . S
C1208 C1207 1.387 . S
C1208 C1211 1.387 . S
H1209 C1205 0.950 . S
H1210 C1207 0.950 . S
C1211 C1202 1.390 . S
C1211 H1204 0.950 . S
C1211 C1208 1.387 . S
C1212 C1213 1.387 . S
C1212 H1216 0.950 . S
C1212 C1221 1.390 . S
C1213 C1212 1.387 . S
C1213 C1215 1.387 . S
H1214 C1221 0.950 . S
C1215 C1213 1.387 . S
C1215 C1217 1.390 . S
C1215 H1219 0.950 . S
H1216 C1212 0.950 . S
C1217 C1215 1.390 . S
C1217 C1218 1.387 . S
C1217 H1220 0.950 . S
C1218 C1217 1.387 . S
C1218 C1221 1.387 . S
H1219 C1215 0.950 . S
H1220 C1217 0.950 . S
C1221 C1212 1.390 . S
C1221 H1214 0.950 . S
C1221 C1218 1.387 . S
C1222 C1223 1.387 . S
C1222 H1226 0.950 . S
C1222 C1231 1.390 . S
C1223 C1222 1.387 . S
C1223 C1225 1.387 . S
H1224 C1231 0.950 . S
C1225 C1223 1.387 . S
C1225 C1227 1.390 . S
C1225 H1229 0.950 . S
H1226 C1222 0.950 . S
C1227 C1225 1.390 . S
C1227 C1228 1.387 . S
C1227 H1230 0.950 . S
C1228 C1227 1.387 . S
C1228 C1231 1.387 . S
H1229 C1225 0.950 . S
H1230 C1227 0.950 . S
C1231 C1222 1.390 . S
C1231 H1224 0.950 . S
C1231 C1228 1.387 . S
C1232 C1233 1.387 . S
C1232 H1236 0.950 . S
C1232 C1241 1.390 . S
C1233 C1232 1.387 . S
C1233 C1235 1.387 1_556 S
H1234 C1241 0.950 . S
C1235 C1233 1.387 1_554 S
C1235 C1237 1.390 . S
C1235 H1239 0.950 . S
H1236 C1232 0.950 . S
C1237 C1235 1.390 . S
C1237 C1238 1.387 1_554 S
C1237 H1240 0.950 . S
C1238 C1237 1.387 1_556 S
C1238 C1241 1.387 . S
H1239 C1235 0.950 . S
H1240 C1237 0.950 . S
C1241 C1232 1.390 . S
C1241 H1234 0.950 . S
C1241 C1238 1.387 . S
C1242 C1243 1.387 . S
C1242 H1246 0.950 . S
C1242 C1251 1.390 . S
C1243 C1242 1.387 . S
C1243 C1245 1.387 . S
H1244 C1251 0.950 . S
C1245 C1243 1.387 . S
C1245 C1247 1.390 . S
C1245 H1249 0.950 . S
H1246 C1242 0.950 . S
C1247 C1245 1.390 . S
C1247 C1248 1.387 . S
C1247 H1250 0.950 . S
C1248 C1247 1.387 . S
C1248 C1251 1.387 . S
H1249 C1245 0.950 . S
H1250 C1247 0.950 . S
C1251 C1242 1.390 . S
C1251 H1244 0.950 . S
C1251 C1248 1.387 . S
C1252 C1253 1.387 . S
C1252 H1256 0.950 . S
C1252 C1261 1.390 . S
C1253 C1252 1.387 . S
C1253 C1255 1.387 . S
H1254 C1261 0.950 . S
C1255 C1253 1.387 . S
C1255 C1257 1.389 1_554 S
C1255 H1259 0.950 1_554 S
H1256 C1252 0.950 . S
C1257 C1255 1.389 1_556 S
C1257 C1258 1.368 1_556 S
C1257 H1260 0.971 . S
C1258 C1257 1.368 1_554 S
C1258 C1261 1.387 . S
H1259 C1255 0.950 1_556 S
H1260 C1257 0.971 . S
C1261 C1252 1.390 . S
C1261 H1254 0.950 . S
C1261 C1258 1.387 . S
C1262 C1263 1.387 . S
C1262 H1266 0.950 . S
C1262 C1271 1.390 . S
C1263 C1262 1.387 . S
C1263 C1265 1.387 1_554 S
H1264 C1271 0.950 . S
C1265 C1263 1.387 1_556 S
C1265 C1267 1.390 . S
C1265 H1269 0.950 . S
H1266 C1262 0.950 . S
C1267 C1265 1.390 . S
C1267 C1268 1.387 1_556 S
C1267 H1270 0.950 . S
C1268 C1267 1.387 1_554 S
C1268 C1271 1.387 . S
H1269 C1265 0.950 . S
H1270 C1267 0.950 . S
C1271 C1262 1.390 . S
C1271 H1264 0.950 . S
C1271 C1268 1.387 . S
C798 C635 1.448 . S
C793 C211 1.469 . S
C808 C643 1.272 . S
C803 C255 1.536 . S
C813 C274 1.451 . S
C818 C663 1.430 . S
C828 C677 1.502 . S
C823 C157 1.521 . S
C838 C692 1.529 . S
C833 C391 1.529 . S
C848 C706 1.524 . S
C843 C484 1.517 . S
C853 C450 1.555 . S
C858 C720 1.555 . S
C868 C726 1.444 . S
C863 C352 1.488 . S
C873 C430 1.520 . S
C878 C740 1.485 . S
C888 C761 1.528 . S
C883 C367 1.551 . S
C893 C411 1.487 . S
C898 C741 1.254 . S
C908 C762 1.539 . S
C903 C469 1.535 . S
C913 C294 1.485 . S
C918 C769 1.208 . S
C923 C177 1.514 . S
C928 C775 1.496 . S
C933 C196 1.510 . S
C938 C768 1.460 . S
C943 C235 1.484 . S
C948 C776 1.487 . S
C953 C133 1.503 . S
C958 C670 1.461 . S
C963 C567 1.494 . S
C968 C671 1.247 . S
C978 C628 1.496 . S
C973 C601 1.551 . S
C988 C649 1.449 . S
C983 C328 1.476 . S
C993 C172 1.490 . S
C998 C684 1.454 . S
C1008 C734 1.525 . S
C1003 C445 1.525 . S
C1018 C685 1.230 . S
C1013 C372 1.473 . S
C1028 C713 1.253 . S
C1023 C489 1.551 . S
C1038 C719 1.448 . S
C1033 C562 1.470 . S
C1043 C606 1.535 . S
C1048 C727 1.266 . S
C1053 C313 1.451 . S
C1058 C691 1.430 . S
C1068 C705 1.501 . S
C1063 C508 1.521 . S
C1073 C118 1.529 . S
C1078 C664 1.528 . S
C1088 C678 1.523 . S
C1083 C16 1.517 . S
C1098 C636 1.554 . S
C1093 C60 1.554 . S
C1108 C642 1.441 . S
C1103 C79 1.488 . S
C1113 C40 1.520 . S
C1118 C754 1.483 . S
C1123 C94 1.552 . S
C1128 C747 1.529 . S
C1133 C138 1.488 . S
C1138 C755 1.260 . S
C1143 C1 1.535 . S
C1148 C748 1.539 . S
C1158 C783 1.215 . S
C1153 C333 1.487 . S
C1168 C789 1.497 . S
C1163 C528 1.513 . S
C1178 C782 1.462 . S
C1173 C547 1.510 . S
C1183 C586 1.483 . S
C1188 C790 1.486 . S
C1193 C406 1.503 . S
C1198 C698 1.458 . S
C1208 C699 1.247 . S
C1203 C216 1.494 . S
C1218 C712 1.496 . S
C1213 C250 1.551 . S
C1228 C733 1.450 . S
C1223 C289 1.477 . S
C1233 C523 1.490 . S
C1238 C656 1.451 . S
C1248 C650 1.526 . S
C1243 C55 1.526 . S
C1253 C99 1.473 . S
C1258 C657 1.230 . S
C1268 C629 1.248 . S
C1263 C21 1.552 . S
