# Generated by pormake.
# Topology zzz, (3,6)-cn, num edge types: 1
# Building blocks:
#     Node 0, Type 0, BuildingBlock: PAMTOO_clean_linker_0, # of connection points: 3
#     Node 1, Type 0, BuildingBlock: PAMTOO_clean_linker_0, # of connection points: 3
#     Node 2, Type 0, BuildingBlock: PAMTOO_clean_linker_0, # of connection points: 3
#     Node 3, Type 0, BuildingBlock: PAMTOO_clean_linker_0, # of connection points: 3
#     Node 4, Type 0, BuildingBlock: PAMTOO_clean_linker_0, # of connection points: 3
#     Node 5, Type 0, BuildingBlock: PAMTOO_clean_linker_0, # of connection points: 3
#     Node 6, Type 0, BuildingBlock: PAMTOO_clean_linker_0, # of connection points: 3
#     Node 7, Type 0, BuildingBlock: PAMTOO_clean_linker_0, # of connection points: 3
#     Node 8, Type 1, BuildingBlock: MIFKUJ_clean_sbu_0, # of connection points: 6
#     Node 9, Type 1, BuildingBlock: MIFKUJ_clean_sbu_0, # of connection points: 6
#     Node 10, Type 1, BuildingBlock: MIFKUJ_clean_sbu_0, # of connection points: 6
#     Node 11, Type 1, BuildingBlock: MIFKUJ_clean_sbu_0, # of connection points: 6
#     Edge 12, Type (0, 1), BuildingBlock: OJICUG_clean_linker_0, # of connection points: 2
#     Edge 13, Type (0, 1), BuildingBlock: OJICUG_clean_linker_0, # of connection points: 2
#     Edge 14, Type (0, 1), BuildingBlock: OJICUG_clean_linker_0, # of connection points: 2
#     Edge 15, Type (0, 1), BuildingBlock: OJICUG_clean_linker_0, # of connection points: 2
#     Edge 16, Type (0, 1), BuildingBlock: OJICUG_clean_linker_0, # of connection points: 2
#     Edge 17, Type (0, 1), BuildingBlock: OJICUG_clean_linker_0, # of connection points: 2
#     Edge 18, Type (0, 1), BuildingBlock: OJICUG_clean_linker_0, # of connection points: 2
#     Edge 19, Type (0, 1), BuildingBlock: OJICUG_clean_linker_0, # of connection points: 2
#     Edge 20, Type (0, 1), BuildingBlock: OJICUG_clean_linker_0, # of connection points: 2
#     Edge 21, Type (0, 1), BuildingBlock: OJICUG_clean_linker_0, # of connection points: 2
#     Edge 22, Type (0, 1), BuildingBlock: OJICUG_clean_linker_0, # of connection points: 2
#     Edge 23, Type (0, 1), BuildingBlock: OJICUG_clean_linker_0, # of connection points: 2
#     Edge 24, Type (0, 1), BuildingBlock: OJICUG_clean_linker_0, # of connection points: 2
#     Edge 25, Type (0, 1), BuildingBlock: OJICUG_clean_linker_0, # of connection points: 2
#     Edge 26, Type (0, 1), BuildingBlock: OJICUG_clean_linker_0, # of connection points: 2
#     Edge 27, Type (0, 1), BuildingBlock: OJICUG_clean_linker_0, # of connection points: 2
#     Edge 28, Type (0, 1), BuildingBlock: OJICUG_clean_linker_0, # of connection points: 2
#     Edge 29, Type (0, 1), BuildingBlock: OJICUG_clean_linker_0, # of connection points: 2
#     Edge 30, Type (0, 1), BuildingBlock: OJICUG_clean_linker_0, # of connection points: 2
#     Edge 31, Type (0, 1), BuildingBlock: OJICUG_clean_linker_0, # of connection points: 2
#     Edge 32, Type (0, 1), BuildingBlock: OJICUG_clean_linker_0, # of connection points: 2
#     Edge 33, Type (0, 1), BuildingBlock: OJICUG_clean_linker_0, # of connection points: 2
#     Edge 34, Type (0, 1), BuildingBlock: OJICUG_clean_linker_0, # of connection points: 2
#     Edge 35, Type (0, 1), BuildingBlock: OJICUG_clean_linker_0, # of connection points: 2
# Relax obj value: 0.121
# Max RMSD: 0.123
# Mean RMSD: 0.082
data_MOF--net-zzz--node1-MIFKUJ_clean_sbu_0--node2-PAMTOO_clean_linker_0--edge1-OJICUG_clean_linker_0
_symmetry_space_group_name_H-M    P1
_symmetry_Int_Tables_number       1
_symmetry_cell_setting            triclinic
loop_
_symmetry_equiv_pos_as_xyz
'x, y, z'
_cell_length_a     36.827196
_cell_length_b     36.711517
_cell_length_c     12.105524
_cell_angle_alpha  88.968525
_cell_angle_beta   90.213579
_cell_angle_gamma 90.126004
loop_
_atom_site_label
_atom_site_type_symbol
_atom_site_fract_x
_atom_site_fract_y
_atom_site_fract_z
_atom_type_partial_charge
H0 H 0.81561 0.57725 0.09406 0.0
H1 H 0.71627 0.56344 0.91391 0.0
H2 H 0.71912 0.54234 0.26449 0.0
H3 H 0.65357 0.49773 0.13495 0.0
C4 C 0.66538 0.51099 0.06003 0.0
O5 O 0.67728 0.54549 0.08667 0.0
H6 H 0.68828 0.49338 0.03346 0.0
C7 C 0.78643 0.5728 0.09449 0.0
C8 C 0.76964 0.56117 0.19215 0.0
C9 C 0.76779 0.57266 -0.00601 0.0
C10 C 0.73071 0.56439 -0.00805 0.0
C11 C 0.71284 0.55464 0.09018 0.0
C12 C 0.73246 0.5522 0.19013 0.0
H13 H 0.01996 0.82653 0.09407 0.0
H14 H 0.00274 0.72893 0.90994 0.0
H15 H 0.97626 0.73131 0.25616 0.0
H16 H 0.98999 0.64264 0.15337 0.0
C17 C 1.00024 0.66081 0.08598 0.0
O18 O 0.97767 0.69075 0.07685 0.0
H19 H 0.02831 0.66888 0.11049 0.0
C20 C 0.01266 0.79787 0.09137 0.0
C21 C 0.99846 0.78118 0.18609 0.0
C22 C 0.01435 0.77954 -0.00853 0.0
C23 C 0.00275 0.74318 -0.01243 0.0
C24 C 0.98982 0.72545 0.0833 0.0
C25 C 0.98743 0.74454 0.18313 0.0
H26 H 0.6858 0.95822 0.0844 0.0
H27 H 0.78777 0.96566 0.9155 0.0
H28 H 0.78539 0.955 0.27067 0.0
H29 H 0.86586 0.98901 0.17174 0.0
C30 C 0.84794 0.99035 0.09782 0.0
O31 O 0.82766 0.95861 0.09444 0.0
H32 H 0.83003 0.01457 0.10689 0.0
C33 C 0.71528 0.95712 0.08718 0.0
C34 C 0.733 0.95481 0.18898 0.0
C35 C 0.73464 0.96226 -0.0104 0.0
C36 C 0.77258 0.96186 -0.00865 0.0
C37 C 0.79097 0.95829 0.09275 0.0
C38 C 0.77118 0.95562 0.19214 0.0
H39 H 0.48472 0.6911 0.10005 0.0
H40 H 0.50154 0.79115 0.91793 0.0
H41 H 0.52123 0.78632 0.26943 0.0
H42 H 0.50441 0.87577 0.15765 0.0
C43 C 0.49686 0.8572 0.08986 0.0
O44 O 0.52145 0.82877 0.08878 0.0
H45 H 0.46893 0.84708 0.10852 0.0
C46 C 0.49145 0.71993 0.09864 0.0
C47 C 0.50315 0.73606 0.19577 0.0
C48 C 0.49041 0.73948 -0.00122 0.0
C49 C 0.50101 0.7761 -0.00425 0.0
C50 C 0.51131 0.79332 0.09352 0.0
C51 C 0.51248 0.77328 0.19431 0.0
H52 H 0.18311 0.45071 0.09716 0.0
H53 H 0.27422 0.47874 0.29847 0.0
H54 H 0.28391 0.48267 0.94477 0.0
H55 H 0.36054 0.46265 0.06391 0.0
C56 C 0.34743 0.46579 0.14576 0.0
O57 O 0.31895 0.48995 0.13359 0.0
H58 H 0.33771 0.43837 0.17357 0.0
C59 C 0.21194 0.45665 0.10335 0.0
C60 C 0.23162 0.46511 0.00773 0.0
C61 C 0.22679 0.46232 0.20766 0.0
C62 C 0.263 0.47322 0.21774 0.0
C63 C 0.28417 0.47875 0.12294 0.0
C64 C 0.26832 0.47544 0.01766 0.0
H65 H 0.97119 0.20739 0.11882 0.0
H66 H 0.97157 0.30231 0.32071 0.0
H67 H 0.01435 0.30815 -0.00993 0.0
H68 H 0.05342 0.36624 0.17144 0.0
C69 C 0.03337 0.35477 0.23109 0.0
O70 O 0.0023 0.34493 0.17388 0.0
H71 H 0.04645 0.33069 0.27197 0.0
C72 C 0.97594 0.23636 0.12852 0.0
C73 C 0.9924 0.25587 0.04231 0.0
C74 C 0.96904 0.25246 0.22986 0.0
C75 C 0.97645 0.28962 0.24221 0.0
C76 C 0.99298 0.30977 0.15654 0.0
C77 C 1.00107 0.29286 0.05581 0.0
H78 H 0.313 0.05836 0.14217 0.0
H79 H 0.21124 0.03071 0.29253 0.0
H80 H 0.21726 0.048 0.9403 0.0
H81 H 0.12708 0.05851 0.06031 0.0
C82 C 0.14697 0.05865 0.12947 0.0
O83 O 0.17376 0.03343 0.10847 0.0
H84 H 0.15847 0.08675 0.13226 0.0
C85 C 0.2838 0.05491 0.13429 0.0
C86 C 0.26776 0.05528 0.02968 0.0
C87 C 0.26389 0.04536 0.22812 0.0
C88 C 0.22668 0.03862 0.21991 0.0
C89 C 0.20956 0.04108 0.11644 0.0
C90 C 0.23015 0.04874 0.02082 0.0
H91 H 0.52457 0.33437 0.11801 0.0
H92 H 0.53185 0.22989 0.28135 0.0
H93 H 0.50905 0.23698 0.93151 0.0
H94 H 0.48171 0.15343 0.06558 0.0
C95 C 0.48854 0.17183 0.13445 0.0
O96 O 0.51886 0.19212 0.10485 0.0
H97 H 0.4646 0.18988 0.14625 0.0
C98 C 0.52333 0.30483 0.11426 0.0
C99 C 0.51555 0.28854 0.01395 0.0
C100 C 0.52982 0.28405 0.20976 0.0
C101 C 0.52762 0.2461 0.20673 0.0
C102 C 0.51987 0.22898 0.10673 0.0
C103 C 0.51422 0.25019 0.00929 0.0
Zn104 Zn 0.99899 0.07406 0.6402 0.0
Zn105 Zn 0.0028 0.96234 0.59011 0.0
C106 C 0.99016 0.13509 0.76857 0.0
O107 O 0.95703 0.12694 0.73657 0.0
C108 C 0.00997 0.90646 0.44519 0.0
O109 O 0.04331 0.91435 0.47585 0.0
O110 O 0.97193 0.10533 0.53 0.0
O111 O 0.04045 0.054 0.55142 0.0
O112 O 0.04085 0.99477 0.51764 0.0
C113 C 0.99284 0.13156 0.50313 0.0
O114 O 0.02724 0.12998 0.53216 0.0
O115 O 0.01575 0.11287 0.74825 0.0
C116 C 0.00279 0.90003 0.70874 0.0
O117 O 0.96905 0.90562 0.67709 0.0
O118 O 0.02626 0.92497 0.69118 0.0
O119 O 0.96239 0.98223 0.68645 0.0
O120 O 0.96354 0.0415 0.71941 0.0
O121 O 0.98443 0.92799 0.47164 0.0
C122 C 0.05441 0.02649 0.50567 0.0
C123 C 0.94987 0.01004 0.73462 0.0
Zn124 Zn 0.44509 0.01788 0.62189 0.0
Zn125 Zn 0.55752 1.00517 0.58619 0.0
C126 C 0.38913 0.02031 0.7661 0.0
O127 O 0.39014 0.98665 0.73106 0.0
C128 C 0.61471 1.00063 0.44544 0.0
O129 O 0.61516 0.03437 0.48 0.0
O130 O 0.40436 1.00702 0.51639 0.0
O131 O 0.47778 0.05292 0.53679 0.0
O132 O 0.53745 0.05167 0.51423 0.0
C133 C 0.38536 0.03574 0.50332 0.0
O134 O 0.39777 0.06659 0.54192 0.0
O135 O 0.41548 0.04158 0.74213 0.0
C136 C 0.61498 0.9838 0.70791 0.0
O137 O 0.6005 0.95403 0.66807 0.0
O138 O 0.59847 0.01403 0.69325 0.0
O139 O 0.52511 0.96994 0.67279 0.0
O140 O 0.4654 0.97202 0.69222 0.0
O141 O 0.58707 0.98083 0.46735 0.0
C142 C 0.50678 0.06675 0.49721 0.0
C143 C 0.49571 0.95663 0.71106 0.0
Zn144 Zn 0.52249 0.46782 0.57759 0.0
Zn145 Zn 0.48852 0.55544 0.62482 0.0
C146 C 0.53123 0.41518 0.74176 0.0
O147 O 0.5643 0.42149 0.70567 0.0
C148 C 0.48477 0.61063 0.46912 0.0
O149 O 0.45109 0.60425 0.49942 0.0
O150 O 0.54296 0.42729 0.48904 0.0
O151 O 0.48198 0.48518 0.47791 0.0
O152 O 0.44731 0.52583 0.55943 0.0
C153 C 0.51922 0.4021 0.48348 0.0
O154 O 0.48621 0.40833 0.51946 0.0
O155 O 0.50603 0.43713 0.71196 0.0
C156 C 0.49472 0.61844 0.73142 0.0
O157 O 0.52778 0.60935 0.70228 0.0
O158 O 0.46895 0.59576 0.71742 0.0
O159 O 0.52562 0.53218 0.73064 0.0
O160 O 0.56223 0.50241 0.62114 0.0
O161 O 0.50929 0.58805 0.50024 0.0
C162 C 0.45286 0.50349 0.48226 0.0
C163 C 0.55663 0.51868 0.711 0.0
Zn164 Zn 0.05554 0.51534 0.60329 0.0
Zn165 Zn 0.94212 0.51453 0.62072 0.0
C166 C 0.11933 0.51116 0.71717 0.0
O167 O 0.12172 0.54195 0.66057 0.0
C168 C 0.8855 0.51379 0.4757 0.0
O169 O 0.88291 0.48271 0.53073 0.0
O170 O 0.08655 0.51435 0.46947 0.0
O171 O 0.00989 0.48747 0.58699 0.0
O172 O 0.95687 0.46306 0.57525 0.0
C173 C 0.10034 0.48267 0.46336 0.0
O174 O 0.0868 0.45601 0.52439 0.0
O175 O 0.08953 0.4935 0.71577 0.0
C176 C 0.8897 0.54922 0.73004 0.0
O177 O 0.90657 0.57512 0.67404 0.0
O178 O 0.90286 0.51714 0.73247 0.0
O179 O 0.98413 0.54871 0.66965 0.0
O180 O 0.04206 0.5641 0.66421 0.0
O181 O 0.91352 0.53365 0.4901 0.0
C182 C 0.99039 0.46151 0.55347 0.0
C183 C 0.01002 0.5697 0.6996 0.0
C184 C 0.11365 0.01358 0.25343 0.0
C185 C 0.12742 0.04891 0.23556 0.0
H186 H 0.08066 0.9784 0.35427 0.0
C187 C 0.12005 0.07577 0.31345 0.0
H188 H 0.11874 0.99246 0.19412 0.0
C189 C 0.09819 0.06785 0.40515 0.0
C190 C 0.08302 0.03289 0.42086 0.0
H191 H 0.13021 0.10326 0.30152 0.0
H192 H 0.09203 0.08959 0.46134 0.0
C193 C 0.09193 1.00556 0.34546 0.0
C194 C 0.46586 0.13948 0.30681 0.0
C195 C 0.49521 0.14878 0.23799 0.0
H196 H 0.44661 0.10741 0.44362 0.0
C197 C 0.52924 0.13288 0.26044 0.0
H198 H 0.43918 0.15078 0.29061 0.0
C199 C 0.5336 0.10788 0.34869 0.0
C200 C 0.50386 0.09765 0.41548 0.0
H201 H 0.55227 0.13894 0.20783 0.0
H202 H 0.55993 0.09538 0.36137 0.0
C203 C 0.47015 0.11445 0.39455 0.0
C204 C 0.36269 0.48934 0.33627 0.0
C205 C 0.37422 0.47928 0.23036 0.0
H206 H 0.37851 0.5057 0.4992 0.0
C207 C 0.4115 0.47901 0.20727 0.0
H208 H 0.33416 0.48916 0.35688 0.0
C209 C 0.43676 0.48789 0.28877 0.0
C210 C 0.42534 0.49746 0.39514 0.0
H211 H 0.4212 0.4711 0.1268 0.0
H212 H 0.4654 0.48681 0.26886 0.0
C213 C 0.38802 0.4988 0.41766 0.0
C214 C 0.00808 0.37105 0.4183 0.0
C215 C 0.02412 0.38229 0.318 0.0
H216 H 0.98473 0.38751 0.57216 0.0
C217 C 0.03034 0.41961 0.29853 0.0
H218 H 0.00323 0.34245 0.43576 0.0
C219 C 0.02064 0.44516 0.37759 0.0
C220 C 0.00426 0.43394 0.47716 0.0
H221 H 0.04238 0.42904 0.22166 0.0
H222 H 0.02497 0.47385 0.35954 0.0
C223 C 0.99781 0.39671 0.49663 0.0
C224 C 0.88601 0.02983 0.9717 0.0
C225 C 0.87134 0.9953 -0.00397 0.0
H226 H 0.92166 0.06176 0.86999 0.0
C227 C 0.88145 0.96577 0.93035 0.0
H228 H 0.87918 0.05292 0.02208 0.0
C229 C 0.90582 0.97075 0.84268 0.0
C230 C 0.92102 1.00525 0.81953 0.0
H231 H 0.87111 0.93864 0.94771 0.0
H232 H 0.91344 0.94732 0.79492 0.0
C233 C 0.91037 0.03482 0.8844 0.0
C234 C 0.52992 0.89435 0.94307 0.0
C235 C 0.49751 0.87846 0.98148 0.0
H236 H 0.555 0.93097 0.8267 0.0
C237 C 0.46518 0.88545 0.92287 0.0
H238 H 0.55516 0.88961 -0.01276 0.0
C239 C 0.46498 0.90917 0.83088 0.0
C240 C 0.49713 0.92645 0.79506 0.0
H241 H 0.43977 0.87362 0.95064 0.0
H242 H 0.43932 0.91503 0.79037 0.0
C243 C 0.52979 0.91792 0.85062 0.0
C244 C 0.64782 0.51284 0.85765 0.0
C245 C 0.63737 0.51357 0.96913 0.0
H246 H 0.63037 0.51357 0.68819 0.0
C247 C 0.60048 0.51745 -0.0051 0.0
H248 H 0.6762 0.5105 0.83584 0.0
C249 C 0.57437 0.51961 0.91085 0.0
C250 C 0.58462 0.51782 0.79924 0.0
H251 H 0.59184 0.51844 0.08023 0.0
H252 H 0.54605 0.52196 0.93347 0.0
C253 C 0.62164 0.51457 0.77343 0.0
C254 C 0.9722 0.61673 0.95153 0.0
C255 C 1.00079 0.64034 0.97872 0.0
H256 H 0.95277 0.57563 0.8429 0.0
C257 C 0.03039 0.64365 0.90646 0.0
H258 H 0.94896 0.61394 0.00564 0.0
C259 C 0.03238 0.62214 0.81224 0.0
C260 C 0.00464 0.59703 0.78757 0.0
H261 H 0.05259 0.662 0.92489 0.0
H262 H 0.05632 0.62429 0.7608 0.0
C263 C 0.97418 0.59516 0.85736 0.0
C264 C 0.98968 0.22926 0.41139 0.0
C265 C 0.96381 0.22791 0.32633 0.0
H266 H 0.0194 0.19905 0.53337 0.0
C267 C 0.94162 0.19677 0.31738 0.0
H268 H 0.00712 0.25283 0.42072 0.0
C269 C 0.94917 0.16552 0.38095 0.0
C270 C 0.97881 0.16545 0.45377 0.0
H271 H 0.92118 0.19531 0.253 0.0
H272 H 0.93397 0.14076 0.36625 0.0
C273 C 0.9973 0.19814 0.47411 0.0
C274 C 0.30428 1.00557 0.33714 0.0
C275 C 0.28468 0.03829 0.3292 0.0
H276 H 0.35238 0.97914 0.39767 0.0
C277 C 0.29522 0.068 0.39244 0.0
H278 H 0.29683 0.98264 0.28657 0.0
C279 C 0.32716 0.06629 0.45417 0.0
C280 C 0.34904 0.03492 0.45249 0.0
H281 H 0.28077 0.09363 0.38542 0.0
H282 H 0.33575 0.09039 0.49756 0.0
C283 C 0.33637 1.00385 0.39862 0.0
C284 C 0.56357 0.32978 0.31553 0.0
C285 C 0.53541 0.30394 0.31208 0.0
H286 H 0.58023 0.38212 0.37221 0.0
C287 C 0.506 0.30679 0.38409 0.0
H288 H 0.58638 0.32796 0.25961 0.0
C289 C 0.50212 0.33796 0.44674 0.0
C290 C 0.52771 0.36636 0.43795 0.0
H291 H 0.48393 0.28723 0.38184 0.0
H292 H 0.47768 0.34093 0.49526 0.0
C293 C 0.55971 0.36099 0.37821 0.0
C294 C 0.19107 0.50085 0.3303 0.0
C295 C 0.201 0.4657 0.29865 0.0
H296 H 0.15048 0.53402 0.40426 0.0
C297 C 0.17894 0.43592 0.32777 0.0
H298 H 0.20738 0.52424 0.30605 0.0
C299 C 0.14625 0.44149 0.38247 0.0
C300 C 0.13498 0.47697 0.40688 0.0
H301 H 0.18586 0.40874 0.30161 0.0
H302 H 0.12913 0.41819 0.40154 0.0
C303 C 0.15812 0.50651 0.38347 0.0
C304 C 0.99233 0.80387 0.81261 0.0
C305 C 0.02042 0.8018 0.8907 0.0
H306 H 0.96472 0.83725 0.6937 0.0
C307 C 0.04762 0.82884 0.88996 0.0
H308 H 0.97107 0.78343 0.81114 0.0
C309 C 0.04356 0.86026 0.82431 0.0
C310 C 0.01242 0.86457 0.75861 0.0
H311 H 0.06978 0.82752 0.94904 0.0
H312 H 0.06303 0.88223 0.83215 0.0
C313 C 0.98829 0.83514 0.74723 0.0
C314 C 0.70184 0.94404 0.82168 0.0
C315 C 0.71345 0.97182 0.89088 0.0
H316 H 0.66124 0.92627 0.70863 0.0
C317 C 0.69555 1.0056 0.88797 0.0
H318 H 0.71491 0.91761 0.82468 0.0
C319 C 0.66429 0.01044 0.82401 0.0
C320 C 0.65064 0.98143 0.76264 0.0
H321 H 0.70382 0.02704 0.94315 0.0
H322 H 0.64964 0.03591 0.82835 0.0
C323 C 0.67068 0.94886 0.7575 0.0
C324 C 0.4544 0.69481 0.89328 0.0
C325 C 0.48441 0.71849 0.89831 0.0
H326 H 0.43428 0.64359 0.83674 0.0
C327 C 0.51415 0.71291 0.82914 0.0
H328 H 0.43118 0.69883 0.94639 0.0
C329 C 0.51624 0.68116 0.76849 0.0
C330 C 0.48848 0.65485 0.77584 0.0
H331 H 0.53762 0.73075 0.83211 0.0
H332 H 0.5408 0.6761 0.72229 0.0
C333 C 0.45643 0.66301 0.83221 0.0
C334 C 0.81462 0.59944 0.87132 0.0
C335 C 0.79028 0.57092 0.89469 0.0
H336 H 0.86587 0.61455 0.80139 0.0
C337 C 0.79647 0.53638 0.85078 0.0
H338 H 0.81061 0.62605 0.90656 0.0
C339 C 0.82867 0.52937 0.79502 0.0
C340 C 0.85456 0.55707 0.78055 0.0
H341 H 0.77829 0.51388 0.86972 0.0
H342 H 0.8339 0.50201 0.76706 0.0
C343 C 0.84649 0.5926 0.81358 0.0
C344 C 0.02869 0.20855 0.95083 0.0
C345 C 1.00101 0.2349 0.94311 0.0
H346 H 0.04695 0.1557 0.90179 0.0
C347 C 0.97366 0.2309 0.8636 0.0
H348 H 0.04958 0.2107 0.01366 0.0
C349 C 0.9716 0.19915 0.80206 0.0
C350 C 0.99694 0.17091 0.81875 0.0
H351 H 0.95167 0.25041 0.8577 0.0
H352 H 0.94882 0.19582 0.74624 0.0
C353 C 0.02679 0.17679 0.88853 0.0
C354 C 0.32293 0.07726 0.92827 0.0
C355 C 0.29274 0.05363 0.93439 0.0
H356 H 0.37768 0.08501 0.87179 0.0
C357 C 0.2928 0.02195 0.87165 0.0
H358 H 0.32356 0.10186 0.97638 0.0
C359 C 0.32389 0.01197 0.8143 0.0
C360 C 0.35545 0.03364 0.81758 0.0
H361 H 0.27018 1.00305 0.87558 0.0
H362 H 0.32362 0.98631 0.77149 0.0
C363 C 0.35409 0.06734 0.87017 0.0
C364 C 0.54361 0.31849 0.85086 0.0
C365 C 0.51282 0.31352 0.91692 0.0
H366 H 0.57378 0.35468 0.74584 0.0
C367 C 0.48574 0.34063 0.91496 0.0
H368 H 0.56524 0.29851 0.85287 0.0
C369 C 0.49077 0.3733 0.85484 0.0
C370 C 0.52325 0.37962 0.7972 0.0
H371 H 0.46209 0.33777 0.9674 0.0
H372 H 0.47026 0.39433 0.8588 0.0
C373 C 0.54884 0.35119 0.79202 0.0
C374 C 0.18184 0.44814 0.87789 0.0
C375 C 0.21022 0.47206 0.9059 0.0
H376 H 0.13006 0.44215 0.79903 0.0
C377 C 0.21081 0.50718 0.85824 0.0
H378 H 0.18078 0.42087 0.9135 0.0
C379 C 0.18173 0.5194 0.79347 0.0
C380 C 0.15153 0.49676 0.77566 0.0
H381 H 0.23199 0.52638 0.87941 0.0
H382 H 0.18201 0.54732 0.76291 0.0
C383 C 0.15252 0.46052 0.81426 0.0
C384 C 0.96643 0.83085 0.28091 0.0
C385 C 0.99433 0.80468 0.28259 0.0
H386 H 0.9495 0.88409 0.33055 0.0
C387 C 0.02475 0.8102 0.34991 0.0
H388 H 0.94316 0.82755 0.22697 0.0
C389 C 0.02888 0.84281 0.4062 0.0
C390 C 0.00261 0.87051 0.39634 0.0
H391 H 0.04694 0.79086 0.35041 0.0
H392 H 0.05359 0.84695 0.45318 0.0
C393 C 0.97042 0.86349 0.3381 0.0
C394 C 0.67976 0.93687 0.30346 0.0
C395 C 0.71 0.95984 0.28694 0.0
H396 H 0.62537 0.93196 0.36493 0.0
C397 C 0.71048 0.99404 0.33626 0.0
H398 H 0.67867 0.9105 0.26474 0.0
C399 C 0.67973 1.00672 0.39031 0.0
C400 C 0.64803 0.98527 0.39702 0.0
H401 H 0.73313 0.01248 0.32304 0.0
H402 H 0.6803 0.03412 0.42201 0.0
C403 C 0.64899 0.94948 0.35832 0.0
C404 C 0.47328 0.70687 0.35652 0.0
C405 C 0.50494 0.71188 0.29446 0.0
H406 H 0.44206 0.67086 0.45895 0.0
C407 C 0.53223 0.68508 0.30069 0.0
H408 H 0.45147 0.72659 0.35074 0.0
C409 C 0.52673 0.65259 0.36139 0.0
C410 C 0.49355 0.64621 0.41513 0.0
H411 H 0.55649 0.68794 0.25086 0.0
H412 H 0.54742 0.63169 0.3605 0.0
C413 C 0.46762 0.67442 0.41608 0.0
C414 C 0.79554 0.51534 0.32373 0.0
C415 C 0.7938 0.55165 0.28614 0.0
H416 H 0.82646 0.47471 0.41069 0.0
C417 C 0.82131 0.57608 0.31761 0.0
H418 H 0.77521 0.49575 0.29855 0.0
C419 C 0.85119 0.56389 0.37919 0.0
C420 C 0.85395 0.52709 0.41126 0.0
H421 H 0.82071 0.60418 0.28872 0.0
H422 H 0.87238 0.58313 0.39986 0.0
C423 C 0.82531 0.50318 0.38588 0.0
loop_
_geom_bond_atom_site_label_1
_geom_bond_atom_site_label_2
_geom_bond_distance
_geom_bond_site_symmetry_2
_ccdc_geom_bond_type
H0 C7 0.929 . S
H1 C10 0.930 . S
H2 C12 0.929 . S
H3 C4 0.969 . S
C4 H3 0.969 . S
C4 O5 1.550 1_556 S
C4 H6 0.973 . S
O5 C4 1.550 1_554 S
O5 C11 1.412 . S
H6 C4 0.973 . S
C7 H0 0.929 . S
C7 C8 1.400 . S
C7 C9 1.364 1_554 S
C8 C7 1.400 . S
C8 C12 1.377 . S
C9 C7 1.364 1_556 S
C9 C10 1.374 . S
C10 H1 0.930 . S
C10 C9 1.374 . S
C10 C11 1.383 1_556 S
C11 O5 1.412 . S
C11 C10 1.383 1_554 S
C11 C12 1.394 . S
C12 H2 0.929 . S
C12 C8 1.377 . S
C12 C11 1.394 . S
H13 C20 0.928 1_655 S
H14 C23 0.931 . S
H15 C25 0.928 1_655 S
H16 C17 0.969 . S
C17 H16 0.969 . S
C17 O18 1.550 1_456 S
C17 H19 0.973 1_455 S
O18 C17 1.550 1_654 S
O18 C24 1.404 1_655 S
H19 C17 0.973 1_655 S
C20 H13 0.928 1_455 S
C20 C21 1.399 . S
C20 C22 1.364 1_554 S
C21 C20 1.399 . S
C21 C25 1.377 . S
C22 C20 1.364 1_556 S
C22 C23 1.374 1_455 S
C23 H14 0.931 . S
C23 C22 1.374 1_655 S
C23 C24 1.382 1_656 S
C24 O18 1.404 1_455 S
C24 C23 1.382 1_454 S
C24 C25 1.394 . S
C25 H15 0.928 1_455 S
C25 C21 1.377 . S
C25 C24 1.394 . S
H26 C33 0.929 . S
H27 C36 0.930 . S
H28 C38 0.929 . S
H29 C30 0.969 . S
C30 H29 0.969 . S
C30 O31 1.550 1_556 S
C30 H32 0.973 . S
O31 C30 1.550 1_554 S
O31 C37 1.412 . S
H32 C30 0.973 . S
C33 H26 0.929 . S
C33 C34 1.400 . S
C33 C35 1.364 1_554 S
C34 C33 1.400 . S
C34 C38 1.377 . S
C35 C33 1.364 1_556 S
C35 C36 1.374 . S
C36 H27 0.930 . S
C36 C35 1.374 . S
C36 C37 1.383 1_556 S
C37 O31 1.412 . S
C37 C36 1.383 1_554 S
C37 C38 1.394 . S
C38 H28 0.929 . S
C38 C34 1.377 . S
C38 C37 1.394 . S
H39 C46 0.929 . S
H40 C49 0.930 . S
H41 C51 0.929 . S
H42 C43 0.969 . S
C43 H42 0.969 . S
C43 O44 1.550 1_556 S
C43 H45 0.973 . S
O44 C43 1.550 1_554 S
O44 C50 1.412 . S
H45 C43 0.973 . S
C46 H39 0.929 . S
C46 C47 1.400 . S
C46 C48 1.364 1_554 S
C47 C46 1.400 . S
C47 C51 1.377 . S
C48 C46 1.364 1_556 S
C48 C49 1.374 . S
C49 H40 0.930 . S
C49 C48 1.374 . S
C49 C50 1.383 1_556 S
C50 O44 1.412 . S
C50 C49 1.383 1_554 S
C50 C51 1.394 . S
C51 H41 0.929 . S
C51 C47 1.377 . S
C51 C50 1.394 . S
H52 C59 0.929 . S
H53 C62 0.930 . S
H54 C64 0.929 . S
H55 C56 0.969 . S
C56 H55 0.969 . S
C56 O57 1.550 . S
C56 H58 0.973 . S
O57 C56 1.550 . S
O57 C63 1.412 . S
H58 C56 0.973 . S
C59 H52 0.929 . S
C59 C60 1.400 . S
C59 C61 1.364 . S
C60 C59 1.400 . S
C60 C64 1.377 . S
C61 C59 1.364 . S
C61 C62 1.374 . S
C62 H53 0.930 . S
C62 C61 1.374 . S
C62 C63 1.383 . S
C63 O57 1.412 . S
C63 C62 1.383 . S
C63 C64 1.394 . S
C64 H54 0.929 . S
C64 C60 1.377 . S
C64 C63 1.394 . S
H65 C72 0.928 1_655 S
H66 C75 0.931 . S
H67 C77 0.928 1_655 S
H68 C69 0.969 . S
C69 H68 0.969 . S
C69 O70 1.550 1_455 S
C69 H71 0.973 1_455 S
O70 C69 1.550 1_655 S
O70 C76 1.412 1_655 S
H71 C69 0.973 1_655 S
C72 H65 0.928 1_455 S
C72 C73 1.400 . S
C72 C74 1.364 . S
C73 C72 1.400 . S
C73 C77 1.377 . S
C74 C72 1.364 . S
C74 C75 1.374 1_455 S
C75 H66 0.931 . S
C75 C74 1.374 1_655 S
C75 C76 1.383 1_655 S
C76 O70 1.412 1_455 S
C76 C75 1.383 1_455 S
C76 C77 1.395 . S
C77 H67 0.928 1_455 S
C77 C73 1.377 . S
C77 C76 1.395 . S
H78 C85 0.929 . S
H79 C88 0.930 . S
H80 C90 0.929 . S
H81 C82 0.969 . S
C82 H81 0.969 . S
C82 O83 1.550 . S
C82 H84 0.973 . S
O83 C82 1.550 . S
O83 C89 1.412 . S
H84 C82 0.973 . S
C85 H78 0.929 . S
C85 C86 1.400 . S
C85 C87 1.364 . S
C86 C85 1.400 . S
C86 C90 1.377 . S
C87 C85 1.364 . S
C87 C88 1.374 . S
C88 H79 0.930 . S
C88 C87 1.374 . S
C88 C89 1.383 . S
C89 O83 1.412 . S
C89 C88 1.383 . S
C89 C90 1.394 . S
C90 H80 0.929 . S
C90 C86 1.377 . S
C90 C89 1.394 . S
H91 C98 0.929 . S
H92 C101 0.930 . S
H93 C103 0.936 . S
H94 C95 0.969 . S
C95 H94 0.969 . S
C95 O96 1.550 . S
C95 H97 0.973 . S
O96 C95 1.550 . S
O96 C102 1.412 . S
H97 C95 0.973 . S
C98 H91 0.929 . S
C98 C99 1.400 . S
C98 C100 1.364 . S
C99 C98 1.400 . S
C99 C103 1.377 . S
C100 C98 1.364 . S
C100 C101 1.374 . S
C101 H92 0.930 . S
C101 C100 1.374 . S
C101 C102 1.383 . S
C102 O96 1.412 . S
C102 C101 1.383 . S
C102 C103 1.394 . S
C103 H93 0.936 . S
C103 C99 1.377 . S
C103 C102 1.394 . S
Zn104 O110 1.969 . S
Zn104 O111 1.965 1_655 S
Zn104 O115 2.024 1_655 S
Zn104 O120 1.969 . S
Zn105 O112 1.969 . S
Zn105 O118 1.969 . S
Zn105 O119 1.965 1_455 S
Zn105 O121 2.024 1_455 S
C106 O107 1.229 1_455 S
C106 O115 1.058 . S
O107 C106 1.229 1_655 S
C108 O109 1.229 1_655 S
C108 O121 1.058 . S
O109 C108 1.229 1_455 S
O110 Zn104 1.969 . S
O110 C113 1.267 . S
O111 Zn104 1.965 1_455 S
O111 C122 1.260 . S
O112 Zn105 1.969 . S
O112 C122 1.258 1_565 S
C113 O110 1.267 . S
C113 O114 1.228 1_655 S
O114 C113 1.228 1_455 S
O115 Zn104 2.024 1_455 S
O115 C106 1.058 . S
C116 O117 1.228 1_455 S
C116 O118 1.267 . S
O117 C116 1.228 1_655 S
O118 Zn105 1.969 . S
O118 C116 1.267 . S
O119 Zn105 1.965 1_655 S
O119 C123 1.260 1_565 S
O120 Zn104 1.969 . S
O120 C123 1.258 . S
O121 Zn105 2.024 1_655 S
O121 C108 1.058 . S
C122 O111 1.260 . S
C122 O112 1.258 1_545 S
C123 O119 1.260 1_545 S
C123 O120 1.258 . S
Zn124 O130 1.969 1_545 S
Zn124 O131 1.965 . S
Zn124 O135 2.024 . S
Zn124 O140 1.969 1_545 S
Zn125 O132 1.990 . S
Zn125 O138 1.978 . S
Zn125 O139 1.955 1_545 S
Zn125 O141 2.010 1_545 S
C126 O127 1.229 . S
C126 O135 1.058 . S
O127 C126 1.229 . S
C128 O129 1.229 1_565 S
C128 O141 1.058 . S
O129 C128 1.229 1_545 S
O130 Zn124 1.969 1_565 S
O130 C133 1.267 1_565 S
O131 Zn124 1.965 . S
O131 C142 1.260 . S
O132 Zn125 1.990 . S
O132 C142 1.258 . S
C133 O130 1.267 1_545 S
C133 O134 1.228 . S
O134 C133 1.228 . S
O135 Zn124 2.024 . S
O135 C126 1.058 . S
C136 O137 1.228 . S
C136 O138 1.267 1_565 S
O137 C136 1.228 . S
O138 Zn125 1.978 . S
O138 C136 1.267 1_545 S
O139 Zn125 1.955 1_565 S
O139 C143 1.260 . S
O140 Zn124 1.969 1_565 S
O140 C143 1.258 . S
O141 Zn125 2.010 1_565 S
O141 C128 1.058 . S
C142 O131 1.260 . S
C142 O132 1.258 . S
C143 O139 1.260 . S
C143 O140 1.258 . S
Zn144 O150 1.969 . S
Zn144 O151 1.965 . S
Zn144 O155 2.024 . S
Zn144 O160 1.969 . S
Zn145 O152 1.969 . S
Zn145 O158 1.969 . S
Zn145 O159 1.965 . S
Zn145 O161 2.024 . S
C146 O147 1.229 . S
C146 O155 1.058 . S
O147 C146 1.229 . S
C148 O149 1.229 . S
C148 O161 1.058 . S
O149 C148 1.229 . S
O150 Zn144 1.969 . S
O150 C153 1.267 . S
O151 Zn144 1.965 . S
O151 C162 1.260 . S
O152 Zn145 1.969 . S
O152 C162 1.258 . S
C153 O150 1.267 . S
C153 O154 1.228 . S
O154 C153 1.228 . S
O155 Zn144 2.024 . S
O155 C146 1.058 . S
C156 O157 1.228 . S
C156 O158 1.267 . S
O157 C156 1.228 . S
O158 Zn145 1.969 . S
O158 C156 1.267 . S
O159 Zn145 1.965 . S
O159 C163 1.260 . S
O160 Zn144 1.969 . S
O160 C163 1.258 . S
O161 Zn145 2.024 . S
O161 C148 1.058 . S
C162 O151 1.260 . S
C162 O152 1.258 . S
C163 O159 1.260 . S
C163 O160 1.258 . S
Zn164 O170 1.969 . S
Zn164 O171 1.965 . S
Zn164 O175 2.024 . S
Zn164 O180 1.969 . S
Zn165 O172 1.969 . S
Zn165 O178 1.969 . S
Zn165 O179 1.965 . S
Zn165 O181 2.024 . S
C166 O167 1.229 . S
C166 O175 1.058 . S
O167 C166 1.229 . S
C168 O169 1.229 . S
C168 O181 1.058 . S
O169 C168 1.229 . S
O170 Zn164 1.969 . S
O170 C173 1.267 . S
O171 Zn164 1.965 . S
O171 C182 1.260 1_455 S
O172 Zn165 1.969 . S
O172 C182 1.258 . S
C173 O170 1.267 . S
C173 O174 1.228 . S
O174 C173 1.228 . S
O175 Zn164 2.024 . S
O175 C166 1.058 . S
C176 O177 1.228 . S
C176 O178 1.267 . S
O177 C176 1.228 . S
O178 Zn165 1.969 . S
O178 C176 1.267 . S
O179 Zn165 1.965 . S
O179 C183 1.260 1_655 S
O180 Zn164 1.969 . S
O180 C183 1.258 . S
O181 Zn165 2.024 . S
O181 C168 1.058 . S
C182 O171 1.260 1_655 S
C182 O172 1.258 . S
C183 O179 1.260 1_455 S
C183 O180 1.258 . S
C184 C185 1.387 . S
C184 H188 0.950 1_545 S
C184 C193 1.386 1_545 S
C185 C184 1.387 . S
C185 C187 1.387 . S
H186 C193 0.962 . S
C187 C185 1.387 . S
C187 C189 1.390 . S
C187 H191 0.950 . S
H188 C184 0.950 1_565 S
C189 C187 1.390 . S
C189 C190 1.387 . S
C189 H192 0.950 . S
C190 C189 1.387 . S
C190 C193 1.379 1_545 S
H191 C187 0.950 . S
H192 C189 0.950 . S
C193 C184 1.386 1_565 S
C193 H186 0.962 . S
C193 C190 1.379 1_565 S
C194 C195 1.387 . S
C194 H198 0.950 . S
C194 C203 1.390 . S
C195 C194 1.387 . S
C195 C197 1.387 . S
H196 C203 0.950 . S
C197 C195 1.387 . S
C197 C199 1.390 . S
C197 H201 0.950 . S
H198 C194 0.950 . S
C199 C197 1.390 . S
C199 C200 1.387 . S
C199 H202 0.950 . S
C200 C199 1.387 . S
C200 C203 1.387 . S
H201 C197 0.950 . S
H202 C199 0.950 . S
C203 C194 1.390 . S
C203 H196 0.950 . S
C203 C200 1.387 . S
C204 C205 1.387 . S
C204 H208 0.950 . S
C204 C213 1.390 . S
C205 C204 1.387 . S
C205 C207 1.387 . S
H206 C213 0.950 . S
C207 C205 1.387 . S
C207 C209 1.390 . S
C207 H211 0.950 . S
H208 C204 0.950 . S
C209 C207 1.390 . S
C209 C210 1.387 . S
C209 H212 0.950 . S
C210 C209 1.387 . S
C210 C213 1.387 . S
H211 C207 0.950 . S
H212 C209 0.950 . S
C213 C204 1.390 . S
C213 H206 0.950 . S
C213 C210 1.387 . S
C214 C215 1.385 1_455 S
C214 H218 0.950 . S
C214 C223 1.390 . S
C215 C214 1.385 1_655 S
C215 C217 1.390 . S
H216 C223 0.950 . S
C217 C215 1.390 . S
C217 C219 1.390 . S
C217 H221 0.950 . S
H218 C214 0.950 . S
C219 C217 1.390 . S
C219 C220 1.387 . S
C219 H222 0.950 . S
C220 C219 1.387 . S
C220 C223 1.387 1_655 S
H221 C217 0.950 . S
H222 C219 0.950 . S
C223 C214 1.390 . S
C223 H216 0.950 . S
C223 C220 1.387 1_455 S
C224 C225 1.387 . S
C224 H228 0.950 1_565 S
C224 C233 1.390 1_565 S
C225 C224 1.387 . S
C225 C227 1.387 . S
H226 C233 0.950 . S
C227 C225 1.387 . S
C227 C229 1.390 . S
C227 H231 0.950 . S
H228 C224 0.950 1_545 S
C229 C227 1.390 . S
C229 C230 1.387 . S
C229 H232 0.950 . S
C230 C229 1.387 . S
C230 C233 1.387 1_565 S
H231 C227 0.950 . S
H232 C229 0.950 . S
C233 C224 1.390 1_545 S
C233 H226 0.950 . S
C233 C230 1.387 1_545 S
C234 C235 1.387 . S
C234 H238 0.950 . S
C234 C243 1.390 . S
C235 C234 1.387 . S
C235 C237 1.387 . S
H236 C243 0.950 . S
C237 C235 1.387 . S
C237 C239 1.390 . S
C237 H241 0.950 . S
H238 C234 0.950 . S
C239 C237 1.390 . S
C239 C240 1.387 . S
C239 H242 0.950 . S
C240 C239 1.387 . S
C240 C243 1.387 . S
H241 C237 0.950 . S
H242 C239 0.950 . S
C243 C234 1.390 . S
C243 H236 0.950 . S
C243 C240 1.387 . S
C244 C245 1.387 . S
C244 H248 0.950 . S
C244 C253 1.390 . S
C245 C244 1.387 . S
C245 C247 1.387 . S
H246 C253 0.950 . S
C247 C245 1.387 . S
C247 C249 1.390 . S
C247 H251 0.950 . S
H248 C244 0.950 . S
C249 C247 1.390 . S
C249 C250 1.387 . S
C249 H252 0.950 . S
C250 C249 1.387 . S
C250 C253 1.387 . S
H251 C247 0.950 . S
H252 C249 0.950 . S
C253 C244 1.390 . S
C253 H246 0.950 . S
C253 C250 1.387 . S
C254 C255 1.380 1_655 S
C254 H258 0.950 . S
C254 C263 1.390 . S
C255 C254 1.380 1_455 S
C255 C257 1.396 . S
H256 C263 0.950 . S
C257 C255 1.396 . S
C257 C259 1.390 . S
C257 H261 0.950 . S
H258 C254 0.950 . S
C259 C257 1.390 . S
C259 C260 1.387 . S
C259 H262 0.950 . S
C260 C259 1.387 . S
C260 C263 1.387 1_455 S
H261 C257 0.950 . S
H262 C259 0.950 . S
C263 C254 1.390 . S
C263 H256 0.950 . S
C263 C260 1.387 1_655 S
C264 C265 1.387 1_455 S
C264 H268 0.950 . S
C264 C273 1.392 . S
C265 C264 1.387 1_655 S
C265 C267 1.387 . S
H266 C273 0.952 . S
C267 C265 1.387 . S
C267 C269 1.390 . S
C267 H271 0.950 . S
H268 C264 0.950 . S
C269 C267 1.390 . S
C269 C270 1.387 . S
C269 H272 0.950 . S
C270 C269 1.387 . S
C270 C273 1.384 1_655 S
H271 C267 0.950 . S
H272 C269 0.950 . S
C273 C264 1.392 . S
C273 H266 0.952 . S
C273 C270 1.384 1_455 S
C274 C275 1.387 . S
C274 H278 0.950 . S
C274 C283 1.396 . S
C275 C274 1.387 . S
C275 C277 1.387 . S
H276 C283 0.939 1_565 S
C277 C275 1.387 . S
C277 C279 1.390 . S
C277 H281 0.950 . S
H278 C274 0.950 . S
C279 C277 1.390 . S
C279 C280 1.387 . S
C279 H282 0.950 . S
C280 C279 1.387 . S
C280 C283 1.392 . S
H281 C277 0.950 . S
H282 C279 0.950 . S
C283 C274 1.396 . S
C283 H276 0.939 1_545 S
C283 C280 1.392 . S
C284 C285 1.387 . S
C284 H288 0.950 . S
C284 C293 1.390 . S
C285 C284 1.387 . S
C285 C287 1.387 . S
H286 C293 0.950 . S
C287 C285 1.387 . S
C287 C289 1.390 . S
C287 H291 0.950 . S
H288 C284 0.950 . S
C289 C287 1.390 . S
C289 C290 1.387 . S
C289 H292 0.950 . S
C290 C289 1.387 . S
C290 C293 1.387 . S
H291 C287 0.950 . S
H292 C289 0.950 . S
C293 C284 1.390 . S
C293 H286 0.950 . S
C293 C290 1.387 . S
C294 C295 1.387 . S
C294 H298 0.950 . S
C294 C303 1.390 . S
C295 C294 1.387 . S
C295 C297 1.387 . S
H296 C303 0.950 . S
C297 C295 1.387 . S
C297 C299 1.390 . S
C297 H301 0.950 . S
H298 C294 0.950 . S
C299 C297 1.390 . S
C299 C300 1.387 . S
C299 H302 0.950 . S
C300 C299 1.387 . S
C300 C303 1.387 . S
H301 C297 0.950 . S
H302 C299 0.950 . S
C303 C294 1.390 . S
C303 H296 0.950 . S
C303 C300 1.387 . S
C304 C305 1.387 1_655 S
C304 H308 0.950 . S
C304 C313 1.390 . S
C305 C304 1.387 1_455 S
C305 C307 1.387 . S
H306 C313 0.950 . S
C307 C305 1.387 . S
C307 C309 1.390 . S
C307 H311 0.950 1_556 S
H308 C304 0.950 . S
C309 C307 1.390 . S
C309 C310 1.387 . S
C309 H312 0.950 . S
C310 C309 1.387 . S
C310 C313 1.387 1_455 S
H311 C307 0.950 1_554 S
H312 C309 0.950 . S
C313 C304 1.390 . S
C313 H306 0.950 . S
C313 C310 1.387 1_655 S
C314 C315 1.387 . S
C314 H318 0.950 . S
C314 C323 1.390 . S
C315 C314 1.387 . S
C315 C317 1.387 . S
H316 C323 0.950 . S
C317 C315 1.387 . S
C317 C319 1.390 . S
C317 H321 0.950 1_556 S
H318 C314 0.950 . S
C319 C317 1.390 . S
C319 C320 1.387 . S
C319 H322 0.950 1_566 S
C320 C319 1.387 . S
C320 C323 1.387 . S
H321 C317 0.950 1_554 S
H322 C319 0.950 1_544 S
C323 C314 1.390 . S
C323 H316 0.950 . S
C323 C320 1.387 . S
C324 C325 1.387 . S
C324 H328 0.950 . S
C324 C333 1.390 . S
C325 C324 1.387 . S
C325 C327 1.387 . S
H326 C333 0.950 . S
C327 C325 1.387 . S
C327 C329 1.390 . S
C327 H331 0.950 . S
H328 C324 0.950 . S
C329 C327 1.390 . S
C329 C330 1.387 . S
C329 H332 0.950 . S
C330 C329 1.387 . S
C330 C333 1.387 . S
H331 C327 0.950 . S
H332 C329 0.950 . S
C333 C324 1.390 . S
C333 H326 0.950 . S
C333 C330 1.387 . S
C334 C335 1.387 . S
C334 H338 0.950 . S
C334 C343 1.390 . S
C335 C334 1.387 . S
C335 C337 1.387 . S
H336 C343 0.950 . S
C337 C335 1.387 . S
C337 C339 1.390 . S
C337 H341 0.950 . S
H338 C334 0.950 . S
C339 C337 1.390 . S
C339 C340 1.387 . S
C339 H342 0.950 . S
C340 C339 1.387 . S
C340 C343 1.387 . S
H341 C337 0.950 . S
H342 C339 0.950 . S
C343 C334 1.390 . S
C343 H336 0.950 . S
C343 C340 1.387 . S
C344 C345 1.387 1_554 S
C344 H348 0.950 . S
C344 C353 1.390 1_554 S
C345 C344 1.387 1_556 S
C345 C347 1.387 1_455 S
H346 C353 0.950 1_554 S
C347 C345 1.387 1_655 S
C347 C349 1.390 . S
C347 H351 0.950 . S
H348 C344 0.950 . S
C349 C347 1.390 . S
C349 C350 1.387 1_655 S
C349 H352 0.950 . S
C350 C349 1.387 1_455 S
C350 C353 1.387 . S
H351 C347 0.950 . S
H352 C349 0.950 . S
C353 C344 1.390 1_556 S
C353 H346 0.950 1_556 S
C353 C350 1.387 . S
C354 C355 1.387 . S
C354 H358 0.950 . S
C354 C363 1.390 . S
C355 C354 1.387 . S
C355 C357 1.387 . S
H356 C363 0.950 . S
C357 C355 1.387 . S
C357 C359 1.390 . S
C357 H361 0.950 1_546 S
H358 C354 0.950 . S
C359 C357 1.390 . S
C359 C360 1.387 . S
C359 H362 0.950 1_545 S
C360 C359 1.387 . S
C360 C363 1.387 . S
H361 C357 0.950 1_564 S
H362 C359 0.950 1_565 S
C363 C354 1.390 . S
C363 H356 0.950 . S
C363 C360 1.387 . S
C364 C365 1.387 . S
C364 H368 0.950 1_556 S
C364 C373 1.390 . S
C365 C364 1.387 . S
C365 C367 1.387 . S
H366 C373 0.950 . S
C367 C365 1.387 . S
C367 C369 1.390 . S
C367 H371 0.950 . S
H368 C364 0.950 1_554 S
C369 C367 1.390 . S
C369 C370 1.387 . S
C369 H372 0.950 . S
C370 C369 1.387 . S
C370 C373 1.387 . S
H371 C367 0.950 . S
H372 C369 0.950 . S
C373 C364 1.390 . S
C373 H366 0.950 . S
C373 C370 1.387 . S
C374 C375 1.387 . S
C374 H378 0.950 . S
C374 C383 1.390 . S
C375 C374 1.387 . S
C375 C377 1.387 1_556 S
H376 C383 0.950 . S
C377 C375 1.387 1_554 S
C377 C379 1.390 1_554 S
C377 H381 0.950 . S
H378 C374 0.950 . S
C379 C377 1.390 1_556 S
C379 C380 1.387 . S
C379 H382 0.950 1_556 S
C380 C379 1.387 . S
C380 C383 1.387 . S
H381 C377 0.950 . S
H382 C379 0.950 1_554 S
C383 C374 1.390 . S
C383 H376 0.950 . S
C383 C380 1.387 . S
C384 C385 1.387 . S
C384 H388 0.950 . S
C384 C393 1.390 . S
C385 C384 1.387 . S
C385 C387 1.387 1_655 S
H386 C393 0.950 . S
C387 C385 1.387 1_455 S
C387 C389 1.390 . S
C387 H391 0.950 . S
H388 C384 0.950 . S
C389 C387 1.390 . S
C389 C390 1.387 1_455 S
C389 H392 0.950 . S
C390 C389 1.387 1_655 S
C390 C393 1.387 . S
H391 C387 0.950 . S
H392 C389 0.950 . S
C393 C384 1.390 . S
C393 H386 0.950 . S
C393 C390 1.387 . S
C394 C395 1.387 . S
C394 H398 0.950 . S
C394 C403 1.390 . S
C395 C394 1.387 . S
C395 C397 1.387 . S
H396 C403 0.950 . S
C397 C395 1.387 . S
C397 C399 1.391 . S
C397 H401 0.950 1_565 S
H398 C394 0.950 . S
C399 C397 1.391 . S
C399 C400 1.394 . S
C399 H402 0.942 1_565 S
C400 C399 1.394 . S
C400 C403 1.387 . S
H401 C397 0.950 1_545 S
H402 C399 0.942 1_545 S
C403 C394 1.390 . S
C403 H396 0.950 . S
C403 C400 1.387 . S
C404 C405 1.387 . S
C404 H408 0.950 . S
C404 C413 1.390 . S
C405 C404 1.387 . S
C405 C407 1.387 . S
H406 C413 0.950 . S
C407 C405 1.387 . S
C407 C409 1.390 . S
C407 H411 0.950 . S
H408 C404 0.950 . S
C409 C407 1.390 . S
C409 C410 1.387 . S
C409 H412 0.950 . S
C410 C409 1.387 . S
C410 C413 1.387 . S
H411 C407 0.950 . S
H412 C409 0.950 . S
C413 C404 1.390 . S
C413 H406 0.950 . S
C413 C410 1.387 . S
C414 C415 1.387 . S
C414 H418 0.950 . S
C414 C423 1.390 . S
C415 C414 1.387 . S
C415 C417 1.387 . S
H416 C423 0.950 . S
C417 C415 1.387 . S
C417 C419 1.390 . S
C417 H421 0.950 . S
H418 C414 0.950 . S
C419 C417 1.390 . S
C419 C420 1.387 . S
C419 H422 0.950 . S
C420 C419 1.387 . S
C420 C423 1.387 . S
H421 C417 0.950 . S
H422 C419 0.950 . S
C423 C414 1.390 . S
C423 H416 0.950 . S
C423 C420 1.387 . S
C185 C82 1.484 . S
C190 C122 1.590 . S
C200 C142 1.505 . S
C195 C95 1.386 . S
C210 C162 1.590 . S
C205 C56 1.480 . S
C220 C182 1.509 . S
C215 C69 1.389 1_655 S
C230 C123 1.591 1_565 S
C225 C30 1.410 . S
C235 C43 1.390 . S
C240 C143 1.508 . S
C245 C4 1.411 . S
C250 C163 1.591 . S
C255 C17 1.390 . S
C260 C183 1.511 . S
C270 C113 0.997 . S
C265 C74 1.024 1_655 S
C280 C133 1.025 . S
C275 C87 1.058 . S
C290 C153 0.996 . S
C285 C100 1.026 . S
C295 C61 1.057 . S
C300 C173 1.021 . S
C305 C22 1.025 . S
C310 C116 0.994 . S
C320 C136 1.023 . S
C315 C35 1.053 . S
C330 C156 0.996 . S
C325 C48 1.023 . S
C335 C9 1.054 . S
C340 C176 1.027 . S
C345 C73 1.525 1_556 S
C350 C106 1.456 . S
C355 C86 1.553 1_556 S
C360 C126 1.491 . S
C370 C146 1.450 . S
C365 C99 1.518 1_556 S
C380 C166 1.494 . S
C375 C60 1.553 1_556 S
C385 C21 1.523 1_655 S
C390 C108 1.456 . S
C400 C128 1.487 . S
C395 C34 1.547 . S
C410 C148 1.454 . S
C405 C47 1.524 . S
C415 C8 1.553 . S
C420 C168 1.497 . S
