# Generated by pormake.
# Topology sqc, (4,8)-cn, num edge types: 1
# Building blocks:
#     Node 0, Type 0, BuildingBlock: NAWXER_clean_linker_0, # of connection points: 4
#     Node 1, Type 0, BuildingBlock: NAWXER_clean_linker_0, # of connection points: 4
#     Node 2, Type 0, BuildingBlock: NAWXER_clean_linker_0, # of connection points: 4
#     Node 3, Type 0, BuildingBlock: NAWXER_clean_linker_0, # of connection points: 4
#     Node 4, Type 0, BuildingBlock: NAWXER_clean_linker_0, # of connection points: 4
#     Node 5, Type 0, BuildingBlock: NAWXER_clean_linker_0, # of connection points: 4
#     Node 6, Type 0, BuildingBlock: NAWXER_clean_linker_0, # of connection points: 4
#     Node 7, Type 0, BuildingBlock: NAWXER_clean_linker_0, # of connection points: 4
#     Node 8, Type 1, BuildingBlock: VETTIZ_charged_sbu_0, # of connection points: 8
#     Node 9, Type 1, BuildingBlock: VETTIZ_charged_sbu_0, # of connection points: 8
#     Node 10, Type 1, BuildingBlock: VETTIZ_charged_sbu_0, # of connection points: 8
#     Node 11, Type 1, BuildingBlock: VETTIZ_charged_sbu_0, # of connection points: 8
#     Edge 12, Type (0, 1), BuildingBlock: OJICUG_clean_linker_0, # of connection points: 2
#     Edge 13, Type (0, 1), BuildingBlock: OJICUG_clean_linker_0, # of connection points: 2
#     Edge 14, Type (0, 1), BuildingBlock: OJICUG_clean_linker_0, # of connection points: 2
#     Edge 15, Type (0, 1), BuildingBlock: OJICUG_clean_linker_0, # of connection points: 2
#     Edge 16, Type (0, 1), BuildingBlock: OJICUG_clean_linker_0, # of connection points: 2
#     Edge 17, Type (0, 1), BuildingBlock: OJICUG_clean_linker_0, # of connection points: 2
#     Edge 18, Type (0, 1), BuildingBlock: OJICUG_clean_linker_0, # of connection points: 2
#     Edge 19, Type (0, 1), BuildingBlock: OJICUG_clean_linker_0, # of connection points: 2
#     Edge 20, Type (0, 1), BuildingBlock: OJICUG_clean_linker_0, # of connection points: 2
#     Edge 21, Type (0, 1), BuildingBlock: OJICUG_clean_linker_0, # of connection points: 2
#     Edge 22, Type (0, 1), BuildingBlock: OJICUG_clean_linker_0, # of connection points: 2
#     Edge 23, Type (0, 1), BuildingBlock: OJICUG_clean_linker_0, # of connection points: 2
#     Edge 24, Type (0, 1), BuildingBlock: OJICUG_clean_linker_0, # of connection points: 2
#     Edge 25, Type (0, 1), BuildingBlock: OJICUG_clean_linker_0, # of connection points: 2
#     Edge 26, Type (0, 1), BuildingBlock: OJICUG_clean_linker_0, # of connection points: 2
#     Edge 27, Type (0, 1), BuildingBlock: OJICUG_clean_linker_0, # of connection points: 2
#     Edge 28, Type (0, 1), BuildingBlock: OJICUG_clean_linker_0, # of connection points: 2
#     Edge 29, Type (0, 1), BuildingBlock: OJICUG_clean_linker_0, # of connection points: 2
#     Edge 30, Type (0, 1), BuildingBlock: OJICUG_clean_linker_0, # of connection points: 2
#     Edge 31, Type (0, 1), BuildingBlock: OJICUG_clean_linker_0, # of connection points: 2
#     Edge 32, Type (0, 1), BuildingBlock: OJICUG_clean_linker_0, # of connection points: 2
#     Edge 33, Type (0, 1), BuildingBlock: OJICUG_clean_linker_0, # of connection points: 2
#     Edge 34, Type (0, 1), BuildingBlock: OJICUG_clean_linker_0, # of connection points: 2
#     Edge 35, Type (0, 1), BuildingBlock: OJICUG_clean_linker_0, # of connection points: 2
#     Edge 36, Type (0, 1), BuildingBlock: OJICUG_clean_linker_0, # of connection points: 2
#     Edge 37, Type (0, 1), BuildingBlock: OJICUG_clean_linker_0, # of connection points: 2
#     Edge 38, Type (0, 1), BuildingBlock: OJICUG_clean_linker_0, # of connection points: 2
#     Edge 39, Type (0, 1), BuildingBlock: OJICUG_clean_linker_0, # of connection points: 2
#     Edge 40, Type (0, 1), BuildingBlock: OJICUG_clean_linker_0, # of connection points: 2
#     Edge 41, Type (0, 1), BuildingBlock: OJICUG_clean_linker_0, # of connection points: 2
#     Edge 42, Type (0, 1), BuildingBlock: OJICUG_clean_linker_0, # of connection points: 2
#     Edge 43, Type (0, 1), BuildingBlock: OJICUG_clean_linker_0, # of connection points: 2
# Relax obj value: 0.124
# Max RMSD: 0.266
# Mean RMSD: 0.155
data_MOF--net-sqc--node1-VETTIZ_charged_sbu_0--node2-NAWXER_clean_linker_0--edge1-OJICUG_clean_linker_0
_symmetry_space_group_name_H-M    P1
_symmetry_Int_Tables_number       1
_symmetry_cell_setting            triclinic
loop_
_symmetry_equiv_pos_as_xyz
'x, y, z'
_cell_length_a     21.937848
_cell_length_b     22.01495
_cell_length_c     65.856897
_cell_angle_alpha  90.124884
_cell_angle_beta   90.399528
_cell_angle_gamma 90.402749
loop_
_atom_site_label
_atom_site_type_symbol
_atom_site_fract_x
_atom_site_fract_y
_atom_site_fract_z
_atom_type_partial_charge
C0 C 0.22163 0.06415 0.4706 0.0
C1 C 0.2287 0.01249 0.45834 0.0
C2 C 0.16951 0.07049 0.48255 0.0
C3 C 0.12497 0.02411 0.48299 0.0
C4 C 0.18343 0.96713 0.45837 0.0
C5 C 0.13227 0.97281 0.47058 0.0
C6 C 0.06816 0.0301 0.49483 0.0
C7 C 0.21893 0.03862 0.5417 0.0
C8 C 0.21892 0.089 0.55478 0.0
C9 C 0.16938 0.02768 0.52855 0.0
C10 C 0.11982 0.0682 0.52767 0.0
C11 C 0.16927 0.12901 0.5541 0.0
C12 C 0.12047 0.11884 0.54069 0.0
C13 C 0.06516 0.0559 0.51455 0.0
C14 C 0.79808 0.03477 0.5353 0.0
C15 C 0.78535 0.09527 0.54062 0.0
C16 C 0.85355 0.01985 0.52629 0.0
C17 C 0.89717 0.0652 0.52227 0.0
C18 C 0.82912 0.14053 0.53649 0.0
C19 C 0.88458 0.12555 0.52751 0.0
C20 C 0.95611 0.05035 0.51273 0.0
C21 C 0.8095 1.0078 0.46538 0.0
C22 C 0.80288 0.94449 0.46332 0.0
C23 C 0.86047 0.03259 0.4754 0.0
C24 C 0.90594 0.99442 0.4832 0.0
C25 C 0.84866 0.90654 0.47105 0.0
C26 C 0.90011 0.93135 0.48066 0.0
C27 C 0.9598 0.01934 0.49406 0.0
H28 H 0.2561 0.09961 0.47079 0.0
H29 H 0.16397 0.11171 0.49132 0.0
H30 H 0.18839 0.92632 0.44932 0.0
H31 H 0.09848 0.93667 0.47043 0.0
H32 H 0.25626 1.00669 0.54214 0.0
H33 H 0.16941 0.98674 0.51943 0.0
H34 H 0.1682 0.16829 0.56403 0.0
H35 H 0.0829 0.15052 0.54061 0.0
H36 H 0.76543 0.99884 0.53832 0.0
H37 H 0.86267 0.97275 0.52274 0.0
H38 H 0.8214 0.18734 0.54081 0.0
H39 H 0.91772 0.16118 0.52465 0.0
H40 H 0.77464 0.03793 0.45961 0.0
H41 H 0.86441 0.08142 0.4771 0.0
H42 H 0.84472 0.85765 0.46955 0.0
H43 H 0.93485 0.90122 0.48652 0.0
N44 N 0.01547 0.01128 0.48572 0.0
N45 N 1.00887 0.06672 0.52241 0.0
C46 C 0.36061 0.57127 0.74747 0.0
C47 C 0.34605 0.55822 0.72713 0.0
C48 C 0.34096 0.62548 0.7564 0.0
C49 C 0.30682 0.66765 0.74508 0.0
C50 C 0.31353 0.60135 0.7157 0.0
C51 C 0.29461 0.65574 0.72454 0.0
C52 C 0.28387 0.72412 0.75459 0.0
C53 C 0.17244 0.57112 0.77871 0.0
C54 C 0.18203 0.55865 0.79939 0.0
C55 C 0.19465 0.62498 0.77021 0.0
C56 C 0.22737 0.66734 0.78214 0.0
C57 C 0.21366 0.6018 0.81139 0.0
C58 C 0.2358 0.65568 0.80287 0.0
C59 C 0.25161 0.72411 0.77303 0.0
C60 C 0.20762 0.99495 0.78797 0.0
C61 C 0.2155 0.99465 0.80926 0.0
C62 C 0.21839 0.94282 0.77632 0.0
C63 C 0.24091 0.88953 0.78535 0.0
C64 C 0.23625 0.94042 0.81829 0.0
C65 C 0.24929 0.88917 0.80652 0.0
C66 C 0.25379 0.83298 0.77348 0.0
C67 C 0.35411 0.97895 0.73629 0.0
C68 C 0.32196 0.98951 0.71808 0.0
C69 C 0.34018 0.92846 0.74831 0.0
C70 C 0.2944 0.88754 0.74215 0.0
C71 C 0.27545 0.949 0.71217 0.0
C72 C 0.26234 0.89797 0.72398 0.0
C73 C 0.28092 0.83242 0.75398 0.0
H74 H 0.38572 0.53892 0.75658 0.0
H75 H 0.35204 0.6343 0.77219 0.0
H76 H 0.30245 0.59281 0.69989 0.0
H77 H 0.269 0.68781 0.71547 0.0
H78 H 0.14811 0.5391 0.76907 0.0
H79 H 0.18599 0.63365 0.75427 0.0
H80 H 0.22055 0.59438 0.82749 0.0
H81 H 0.26009 0.68797 0.81243 0.0
H82 H 0.19237 0.03514 0.78009 0.0
H83 H 0.20755 0.94445 0.76032 0.0
H84 H 0.24111 0.93632 0.83457 0.0
H85 H 0.26552 0.84872 0.81412 0.0
H86 H 0.39028 0.00957 0.74113 0.0
H87 H 0.36564 0.92081 0.76222 0.0
H88 H 0.25061 0.95575 0.69808 0.0
H89 H 0.22709 0.86655 0.71896 0.0
N90 N 0.29564 0.77816 0.74547 0.0
N91 N 0.23938 0.77838 0.78206 0.0
C92 C 0.28344 0.0344 0.99242 0.0
C93 C 0.26961 0.09293 0.98532 0.0
C94 C 0.33953 0.02282 1.00179 0.0
C95 C 0.38287 0.06958 1.00436 0.0
C96 C 0.31294 0.13976 0.98802 0.0
C97 C 0.3692 0.12804 0.99731 0.0
C98 C 0.44368 0.05682 0.01327 0.0
C99 C 0.30874 0.04104 0.06375 0.0
C100 C 0.29508 0.97979 0.0675 0.0
C101 C 0.36023 0.05676 0.05241 0.0
C102 C 0.39925 0.01143 0.04507 0.0
C103 C 0.33435 0.93461 0.06028 0.0
C104 C 0.38647 0.95036 0.04936 0.0
C105 C 0.45155 0.02732 0.03204 0.0
C106 C 0.6887 0.99338 0.06389 0.0
C107 C 0.73034 0.9612 0.05182 0.0
C108 C 0.63422 0.01528 0.05566 0.0
C109 C 0.61984 1.00623 0.03508 0.0
C110 C 0.71589 0.95189 0.03117 0.0
C111 C 0.66121 0.97414 0.02289 0.0
C112 C 0.55955 0.02657 0.02716 0.0
C113 C 0.64218 0.09047 0.96139 0.0
C114 C 0.69356 0.1216 0.96904 0.0
C115 C 0.597 0.06943 0.97444 0.0
C116 C 0.60219 0.07857 0.99548 0.0
C117 C 0.69827 0.1319 0.9901 0.0
C118 C 0.65286 0.11072 1.00321 0.0
C119 C 0.55159 0.05861 0.00869 0.0
H120 H 0.25105 0.99741 0.99058 0.0
H121 H 0.34955 0.97695 0.00662 0.0
H122 H 0.30411 0.1851 0.98242 0.0
H123 H 0.4022 0.16461 0.99891 0.0
H124 H 0.27922 0.07648 0.06935 0.0
H125 H 0.36952 0.1042 0.04927 0.0
H126 H 0.32484 0.88709 0.06324 0.0
H127 H 0.41589 0.91481 0.04377 0.0
H128 H 0.69726 1.00025 0.07995 0.0
H129 H 0.60292 0.03905 0.06549 0.0
H130 H 0.74667 0.9272 0.02144 0.0
H131 H 0.65069 0.96499 0.00709 0.0
H132 H 0.63669 0.08259 0.94523 0.0
H133 H 0.55786 0.04569 0.96806 0.0
H134 H 0.73748 0.15547 0.99647 0.0
H135 H 0.65703 0.12006 0.01931 0.0
N136 N 0.49395 0.07187 1.00245 0.0
N137 N 0.50897 0.01274 0.03822 0.0
C138 C 0.23232 0.07223 0.23226 0.0
C139 C 0.17306 0.05617 0.22566 0.0
C140 C 0.24181 0.12099 0.24568 0.0
C141 C 0.1924 0.15519 0.2527 0.0
C142 C 0.12368 0.09028 0.23307 0.0
C143 C 0.13338 0.13966 0.24617 0.0
C144 C 0.20234 0.20893 0.26599 0.0
C145 C 0.23861 0.04275 0.30418 0.0
C146 C 0.29423 0.04372 0.31482 0.0
C147 C 0.21755 0.0953 0.29452 0.0
C148 C 0.253 0.14893 0.29474 0.0
C149 C 0.32891 0.09742 0.31542 0.0
C150 C 0.30868 0.14931 0.30542 0.0
C151 C 0.23201 0.20614 0.28511 0.0
C152 C 0.22969 0.47344 0.31147 0.0
C153 C 0.28769 0.47512 0.32058 0.0
C154 C 0.20885 0.42063 0.30161 0.0
C155 C 0.24682 0.3695 0.29988 0.0
C156 C 0.32405 0.42299 0.32001 0.0
C157 C 0.30396 0.37085 0.3097 0.0
C158 C 0.22863 0.31469 0.28779 0.0
C159 C 0.22427 0.47103 0.2444 0.0
C160 C 0.16613 0.48358 0.23637 0.0
C161 C 0.23507 0.41698 0.25478 0.0
C162 C 0.18763 0.37494 0.25783 0.0
C163 C 0.11874 0.44115 0.23932 0.0
C164 C 0.12953 0.38714 0.24987 0.0
C165 C 0.19929 0.31729 0.26859 0.0
H166 H 0.27172 0.04813 0.22674 0.0
H167 H 0.28792 0.13278 0.25027 0.0
H168 H 0.0772 0.07883 0.22888 0.0
H169 H 0.09458 0.16543 0.25139 0.0
H170 H 0.21096 1.00179 0.30371 0.0
H171 H 0.17317 0.09406 0.28727 0.0
H172 H 0.37219 0.099 0.32344 0.0
H173 H 0.33686 0.18991 0.30602 0.0
H174 H 0.20064 0.513 0.31194 0.0
H175 H 0.16347 0.42032 0.29506 0.0
H176 H 0.36899 0.42332 0.32694 0.0
H177 H 0.33404 0.33211 0.30891 0.0
H178 H 0.26169 0.50284 0.24254 0.0
H179 H 0.28065 0.40791 0.26038 0.0
H180 H 0.07374 0.44888 0.23301 0.0
H181 H 0.09252 0.35487 0.25182 0.0
N182 N 0.18681 0.2644 0.25858 0.0
N183 N 0.2439 0.25915 0.29513 0.0
C184 C 0.90144 0.0597 0.25509 0.0
C185 C 0.88094 0.05134 0.23502 0.0
C186 C 0.89093 0.11465 0.26516 0.0
C187 C 0.85979 0.16182 0.25525 0.0
C188 C 0.85208 0.09956 0.22495 0.0
C189 C 0.84184 0.15427 0.23493 0.0
C190 C 0.84453 0.21894 0.26578 0.0
C191 C 0.7286 0.07703 0.29641 0.0
C192 C 0.7336 0.07355 0.31766 0.0
C193 C 0.75763 0.12355 0.28577 0.0
C194 C 0.79381 0.16678 0.29607 0.0
C195 C 0.76907 0.11707 0.32805 0.0
C196 C 0.79896 0.16322 0.31733 0.0
C197 C 0.81802 0.22078 0.28525 0.0
C198 C 0.70419 0.45017 0.29746 0.0
C199 C 0.72477 0.46511 0.3171 0.0
C200 C 0.73686 0.40948 0.28553 0.0
C201 C 0.79016 0.38306 0.2932 0.0
C202 C 0.77976 0.44093 0.32433 0.0
C203 C 0.81184 0.39954 0.31253 0.0
C204 C 0.81488 0.32891 0.2834 0.0
C205 C 0.87219 0.48822 0.24449 0.0
C206 C 0.86343 0.48088 0.22348 0.0
C207 C 0.86442 0.43888 0.25769 0.0
C208 C 0.8458 0.38167 0.25015 0.0
C209 C 0.84589 0.42382 0.2159 0.0
C210 C 0.83679 0.37498 0.22907 0.0
C211 C 0.83849 0.32735 0.26349 0.0
H212 H 0.9242 0.02337 0.26313 0.0
H213 H 0.90641 0.12005 0.28071 0.0
H214 H 0.83712 0.09489 0.20931 0.0
H215 H 0.81833 0.19019 0.22691 0.0
H216 H 0.70046 0.04483 0.28805 0.0
H217 H 0.7497 0.12684 0.26957 0.0
H218 H 0.77364 0.11538 0.34443 0.0
H219 H 0.82532 0.19686 0.3257 0.0
H220 H 0.66223 0.46904 0.29152 0.0
H221 H 0.71873 0.39601 0.27084 0.0
H222 H 0.79641 0.45194 0.33943 0.0
H223 H 0.85222 0.37839 0.31882 0.0
H224 H 0.88692 0.53166 0.25061 0.0
H225 H 0.87472 0.44543 0.27362 0.0
H226 H 0.8391 0.41707 0.19973 0.0
H227 H 0.82279 0.33165 0.22267 0.0
N228 N 0.85301 0.27211 0.25565 0.0
N229 N 0.80548 0.27581 0.29334 0.0
C230 C 0.6506 0.95773 0.74926 0.0
C231 C 0.66362 0.96735 0.72866 0.0
C232 C 0.66791 0.90355 0.75879 0.0
C233 C 0.69857 0.85802 0.74789 0.0
C234 C 0.69206 0.92065 0.71764 0.0
C235 C 0.70899 0.86654 0.72712 0.0
C236 C 0.71978 0.80149 0.75798 0.0
C237 C 0.83472 0.95292 0.78211 0.0
C238 C 0.82651 0.9666 0.80276 0.0
C239 C 0.81076 0.89926 0.77378 0.0
C240 C 0.77721 0.85827 0.78579 0.0
C241 C 0.79423 0.92468 0.81487 0.0
C242 C 0.7701 0.87105 0.80649 0.0
C243 C 0.75116 0.80165 0.77677 0.0
C244 C 0.8194 0.54428 0.79438 0.0
C245 C 0.78785 0.53265 0.81259 0.0
C246 C 0.80599 0.59558 0.78256 0.0
C247 C 0.76105 0.63662 0.78875 0.0
C248 C 0.74145 0.57316 0.81827 0.0
C249 C 0.72884 0.6248 0.80664 0.0
C250 C 0.7482 0.69285 0.77713 0.0
C251 C 0.6766 0.53355 0.73948 0.0
C252 C 0.69121 0.53669 0.71877 0.0
C253 C 0.6867 0.58378 0.75223 0.0
C254 C 0.71347 0.63731 0.7446 0.0
C255 C 0.71714 0.59017 0.71109 0.0
C256 C 0.72847 0.63972 0.72388 0.0
C257 C 0.72307 0.69281 0.75724 0.0
H258 H 0.62856 0.99267 0.75812 0.0
H259 H 0.65784 0.89747 0.77474 0.0
H260 H 0.7016 0.92612 0.70163 0.0
H261 H 0.73172 0.83193 0.7183 0.0
H262 H 0.85935 0.98386 0.77233 0.0
H263 H 0.81868 0.88973 0.75788 0.0
H264 H 0.78833 0.93279 0.83096 0.0
H265 H 0.74538 0.83981 0.81616 0.0
H266 H 0.85615 0.51514 0.78958 0.0
H267 H 0.83169 0.60401 0.76886 0.0
H268 H 0.71518 0.56555 0.83189 0.0
H269 H 0.69368 0.65566 0.81163 0.0
H270 H 0.65531 0.49306 0.7456 0.0
H271 H 0.67185 0.58107 0.76783 0.0
H272 H 0.72835 0.5937 0.69514 0.0
H273 H 0.74867 0.68038 0.71747 0.0
N274 N 0.70882 0.74726 0.7487 0.0
N275 N 0.76227 0.74735 0.78597 0.0
C276 C 0.74683 0.50037 0.99055 0.0
C277 C 0.7614 0.441 0.98449 0.0
C278 C 0.6908 0.51271 0.99952 0.0
C279 C 0.64827 0.46588 1.00299 0.0
C280 C 0.71879 0.39405 0.98796 0.0
C281 C 0.66259 0.40649 0.99701 0.0
C282 C 0.58778 0.47991 0.01176 0.0
C283 C 0.72346 0.50549 0.06179 0.0
C284 C 0.73953 0.56687 0.06426 0.0
C285 C 0.67145 0.48929 0.05055 0.0
C286 C 0.63408 0.53425 0.04198 0.0
C287 C 0.70183 0.61179 0.05582 0.0
C288 C 0.64907 0.59562 0.04499 0.0
C289 C 0.5812 0.51697 0.02907 0.0
C290 C 0.30961 0.52552 0.04296 0.0
C291 C 0.30365 0.58782 0.04745 0.0
C292 C 0.36396 0.50272 0.03494 0.0
C293 C 0.41352 0.54175 0.03109 0.0
C294 C 0.35301 0.62683 0.04319 0.0
C295 C 0.4073 0.604 0.03524 0.0
C296 C 0.4732 0.51824 0.02395 0.0
C297 C 0.33955 0.47623 0.9731 0.0
C298 C 0.33581 0.41452 0.96748 0.0
C299 C 0.38546 0.497 0.98625 0.0
C300 C 0.42806 0.45636 0.99441 0.0
C301 C 0.37858 0.37392 0.97567 0.0
C302 C 0.42438 0.39474 0.9889 0.0
C303 C 0.47964 0.47812 0.00721 0.0
H304 H 0.77855 0.53755 0.98818 0.0
H305 H 0.68026 0.5593 1.00336 0.0
H306 H 0.7281 0.34799 0.98314 0.0
H307 H 0.63021 0.36978 0.99926 0.0
H308 H 0.75159 0.47018 0.0683 0.0
H309 H 0.66044 0.44162 0.04847 0.0
H310 H 0.71292 0.65948 0.05781 0.0
H311 H 0.62091 0.63091 0.03848 0.0
H312 H 0.27259 0.49411 0.04601 0.0
H313 H 0.36773 0.45434 0.03227 0.0
H314 H 0.35072 0.67478 0.04679 0.0
H315 H 0.44491 0.63506 0.03256 0.0
H316 H 0.30694 0.50872 0.96733 0.0
H317 H 0.38825 0.54505 0.98971 0.0
H318 H 0.37755 0.3263 0.97152 0.0
H319 H 0.45731 0.36264 0.99475 0.0
N320 N 0.53675 0.46102 1.00172 0.0
N321 N 0.52445 0.53568 0.03432 0.0
C322 C 0.83782 0.48685 0.56143 0.0
C323 C 0.78771 0.44973 0.55591 0.0
C324 C 0.88733 0.49438 0.54836 0.0
C325 C 0.88743 0.46642 0.52921 0.0
C326 C 0.78759 0.42269 0.53648 0.0
C327 C 0.83674 0.43117 0.52326 0.0
C328 C 0.94126 0.4732 0.51582 0.0
C329 C 0.81279 0.52459 0.45715 0.0
C330 C 0.77843 0.56958 0.4669 0.0
C331 C 0.86333 0.49912 0.46683 0.0
C332 C 0.88001 0.51754 0.48652 0.0
C333 C 0.79529 0.58787 0.48666 0.0
C334 C 0.84569 0.56225 0.49634 0.0
C335 C 0.93703 0.49489 0.4957 0.0
C336 C 0.19865 0.47006 0.46582 0.0
C337 C 0.20173 0.52529 0.45521 0.0
C338 C 0.14685 0.45515 0.47715 0.0
C339 C 0.09824 0.49631 0.47867 0.0
C340 C 0.15163 0.5646 0.45578 0.0
C341 C 0.1006 0.55032 0.46739 0.0
C342 C 0.04469 0.48482 0.49189 0.0
C343 C 0.20942 0.48077 0.53337 0.0
C344 C 0.22041 0.42195 0.54076 0.0
C345 C 0.15373 0.49462 0.52406 0.0
C346 C 0.10808 0.44992 0.52202 0.0
C347 C 0.17457 0.37733 0.53863 0.0
C348 C 0.11873 0.39137 0.5295 0.0
C349 C 0.04917 0.46392 0.51214 0.0
H350 H 0.83939 0.50954 0.57603 0.0
H351 H 0.92566 0.52226 0.55321 0.0
H352 H 0.75072 0.39287 0.53172 0.0
H353 H 0.83598 0.40866 0.50861 0.0
H354 H 0.80064 0.50903 0.44203 0.0
H355 H 0.88972 0.46522 0.45889 0.0
H356 H 0.77059 0.62331 0.49444 0.0
H357 H 0.85897 0.57889 0.51122 0.0
H358 H 0.23646 0.4387 0.46545 0.0
H359 H 0.14531 0.4119 0.48491 0.0
H360 H 0.15295 0.60777 0.44791 0.0
H361 H 0.06366 0.58267 0.46808 0.0
H362 H 0.24379 0.51608 0.53488 0.0
H363 H 0.14613 0.54028 0.51854 0.0
H364 H 0.1812 0.33197 0.54455 0.0
H365 H 0.08394 0.35638 0.52815 0.0
N366 N 0.99731 0.45856 0.52328 0.0
N367 N 0.98872 0.49965 0.48457 0.0
Fe368 Fe 0.01993 0.76666 0.16511 0.0
O369 O 0.07157 0.73629 0.14264 0.0
Fe370 Fe 0.87958 0.78956 0.1433 0.0
Fe371 Fe 0.16023 0.74752 0.14355 0.0
O372 O 0.96826 0.80008 0.14291 0.0
O373 O 0.96852 0.80086 0.14084 0.0
O374 O 0.07126 0.73585 0.14057 0.0
Fe375 Fe 0.01967 0.76954 0.11793 0.0
C376 C 0.12184 0.8529 0.17122 0.0
O377 O 0.07934 0.72454 0.18588 0.0
O378 O 0.15362 0.68285 0.1658 0.0
O379 O 0.96986 0.68933 0.11606 0.0
O380 O 0.87528 0.72289 0.12176 0.0
O381 O 0.87943 0.72329 0.16599 0.0
O382 O 0.97288 0.68632 0.16467 0.0
O383 O 0.1584 0.69054 0.11857 0.0
O384 O 0.0833 0.73041 0.09746 0.0
C385 C 0.91757 0.68128 0.16976 0.0
O386 O 0.95589 0.81076 0.09775 0.0
O387 O 0.88152 0.8493 0.11912 0.0
O388 O 0.06646 0.84718 0.16608 0.0
O389 O 0.16041 0.81157 0.16719 0.0
C390 C 0.12254 0.6856 0.18245 0.0
C391 C 0.13085 0.69612 0.1011 0.0
C392 C 0.12689 0.85623 0.11644 0.0
O393 O 0.16398 0.81676 0.12304 0.0
O394 O 0.06911 0.84998 0.11733 0.0
C395 C 0.91199 0.68391 0.11472 0.0
O396 O 0.88693 0.85119 0.16658 0.0
O397 O 0.96089 0.80596 0.18627 0.0
C398 C 0.90857 0.84492 0.10165 0.0
C399 C 0.91802 0.84561 0.1833 0.0
Fe400 Fe 0.46822 0.7698 0.43585 0.0
O401 O 0.46292 0.7664 0.406 0.0
Fe402 Fe 0.50388 0.8373 0.38929 0.0
Fe403 Fe 0.49586 0.69642 0.39023 0.0
O404 O 0.46381 0.77268 0.40602 0.0
O405 O 0.53543 0.76705 0.37336 0.0
O406 O 0.53486 0.76108 0.37339 0.0
Fe407 Fe 0.53052 0.76145 0.3436 0.0
C408 C 0.573 0.68453 0.42738 0.0
O409 O 0.40225 0.70335 0.43293 0.0
O410 O 0.44714 0.63813 0.40984 0.0
O411 O 0.4661 0.82865 0.34061 0.0
O412 O 0.42709 0.84252 0.37143 0.0
O413 O 0.46326 0.90252 0.40818 0.0
O414 O 0.41464 0.84547 0.43287 0.0
O415 O 0.41925 0.69443 0.37211 0.0
O416 O 0.46259 0.69593 0.34173 0.0
C417 C 0.42451 0.89538 0.42292 0.0
O418 O 0.59343 0.83094 0.34578 0.0
O419 O 0.55176 0.8957 0.36945 0.0
O420 O 0.52799 0.69875 0.43839 0.0
O421 O 0.5727 0.69369 0.40834 0.0
C422 C 0.40669 0.65151 0.42359 0.0
C423 C 0.41942 0.67992 0.35342 0.0
C424 C 0.57981 0.64027 0.35759 0.0
O425 O 0.53844 0.63183 0.37148 0.0
O426 O 0.58891 0.69015 0.34755 0.0
C427 C 0.42542 0.84986 0.35229 0.0
O428 O 0.58114 0.83667 0.40713 0.0
O429 O 0.54117 0.8294 0.43813 0.0
C430 C 0.58971 0.88323 0.35484 0.0
C431 C 0.58505 0.84255 0.42631 0.0
Fe432 Fe 0.50775 0.26338 0.66133 0.0
O433 O 0.55512 0.22636 0.63884 0.0
Fe434 Fe 0.36953 0.29712 0.63882 0.0
Fe435 Fe 0.64436 0.22841 0.63901 0.0
O436 O 0.45909 0.29993 0.63883 0.0
O437 O 0.45894 0.29972 0.63665 0.0
O438 O 0.55477 0.22581 0.63667 0.0
Fe439 Fe 0.50635 0.2626 0.61383 0.0
C440 C 0.61844 0.33851 0.6662 0.0
O441 O 0.56405 0.2156 0.68231 0.0
O442 O 0.63274 0.16662 0.66173 0.0
O443 O 0.44902 0.18673 0.61216 0.0
O444 O 0.359 0.23071 0.61754 0.0
O445 O 0.36255 0.23131 0.6616 0.0
O446 O 0.45348 0.18842 0.66139 0.0
O447 O 0.63551 0.17037 0.61443 0.0
O448 O 0.56518 0.21802 0.59348 0.0
C449 C 0.3977 0.18729 0.66603 0.0
O450 O 0.44662 0.30692 0.59349 0.0
O451 O 0.37755 0.35554 0.61441 0.0
O452 O 0.56241 0.3386 0.66156 0.0
O453 O 0.65221 0.29324 0.66217 0.0
C454 C 0.6048 0.17376 0.67883 0.0
C455 C 0.60941 0.17975 0.59691 0.0
C456 C 0.62158 0.33821 0.61102 0.0
O457 O 0.65418 0.29553 0.61801 0.0
O458 O 0.56345 0.33841 0.61237 0.0
C459 C 0.39088 0.1877 0.61055 0.0
O460 O 0.38152 0.35855 0.6618 0.0
O461 O 0.45217 0.31079 0.68226 0.0
C462 C 0.40247 0.34524 0.59686 0.0
C463 C 0.4106 0.35185 0.67882 0.0
Fe464 Fe 0.01389 0.266 0.91646 0.0
O465 O 0.01816 0.20946 0.89281 0.0
Fe466 Fe 0.02558 0.4075 0.89191 0.0
Fe467 Fe 1.00032 0.12366 0.89252 0.0
O468 O 1.00597 0.3219 0.89278 0.0
O469 O 0.02855 0.31965 0.88946 0.0
O470 O 0.99437 0.21161 0.88979 0.0
Fe471 Fe 1.00897 0.26542 0.86575 0.0
C472 C 0.06257 0.15197 0.93458 0.0
O473 O 0.92249 0.23702 0.91836 0.0
O474 O 0.92695 0.13519 0.91161 0.0
O475 O 0.92491 0.31327 0.86456 0.0
O476 O 0.94941 0.41109 0.87382 0.0
O477 O 0.97206 0.41068 0.91788 0.0
O478 O 0.99636 0.33115 0.93793 0.0
O479 O 0.94448 0.12586 0.86704 0.0
O480 O 0.97444 0.20118 0.84523 0.0
C481 C 0.96853 0.38126 0.9347 0.0
O482 O 0.03958 0.32849 0.84453 0.0
O483 O 0.07676 0.40292 0.86567 0.0
O484 O 0.03435 0.20174 0.93789 0.0
O485 O 0.05822 0.12236 0.91776 0.0
C486 C 0.90015 0.18242 0.91892 0.0
C487 C 0.94458 0.15198 0.84954 0.0
C488 C 0.10502 0.16101 0.86382 0.0
O489 O 0.07318 0.12051 0.87315 0.0
O490 O 0.09285 0.21866 0.86338 0.0
C491 C 0.91425 0.37137 0.86525 0.0
O492 O 0.10204 0.39584 0.90991 0.0
O493 O 0.10566 0.2945 0.91722 0.0
C494 C 0.072 0.37659 0.84823 0.0
C495 C 0.12904 0.34867 0.91719 0.0
C496 C 0.2812 0.98219 0.42647 0.0
C497 C 0.28499 1.00207 0.44673 0.0
H498 H 0.32498 0.93324 0.40261 0.0
C499 C 0.34123 0.9999 0.45697 0.0
H500 H 0.23817 0.9835 0.4183 0.0
C501 C 0.39085 0.97129 0.44795 0.0
C502 C 0.38495 0.94577 0.42849 0.0
H503 H 0.34504 0.01448 0.47266 0.0
H504 H 0.43181 0.96396 0.45689 0.0
C505 C 0.33099 0.95419 0.41739 0.0
C506 C 0.29667 0.08141 0.69701 0.0
C507 C 0.33989 0.04016 0.70458 0.0
H508 H 0.28085 0.16111 0.67897 0.0
C509 C 0.40091 0.04634 0.69878 0.0
H510 H 0.24919 0.07727 0.70123 0.0
C511 C 0.41865 0.09294 0.68579 0.0
C512 C 0.37613 0.13563 0.6786 0.0
H513 H 0.43493 0.01456 0.70411 0.0
H514 H 0.4662 0.09574 0.68157 0.0
C515 C 0.31474 0.1292 0.68427 0.0
C516 C 0.17847 0.15774 0.97754 0.0
C517 C 0.2118 0.10447 0.9741 0.0
H518 H 0.10418 0.21378 0.96821 0.0
C519 C 0.19138 0.06376 0.959 0.0
H520 H 0.1926 0.18962 0.98924 0.0
C521 C 0.14076 0.07756 0.94689 0.0
C522 C 0.10904 0.13225 0.94967 0.0
H523 H 0.21625 0.02248 0.95588 0.0
H524 H 0.12797 0.04634 0.93483 0.0
C525 C 0.12741 0.17126 0.96557 0.0
C526 C 0.2002 0.95312 0.21089 0.0
C527 C 0.16259 1.00489 0.21094 0.0
H528 H 0.21764 0.86497 0.19817 0.0
C529 C 0.11416 1.00708 0.19681 0.0
H530 H 0.23749 0.94902 0.22163 0.0
C531 C 0.10231 0.95844 0.18366 0.0
C532 C 0.13908 0.90638 0.1839 0.0
H533 H 0.08503 0.04645 0.19583 0.0
H534 H 0.06379 0.96151 0.17333 0.0
C535 C 0.18883 0.90467 0.19744 0.0
C536 C 0.25462 0.10462 0.59044 0.0
C537 C 0.26884 0.09948 0.56979 0.0
H538 H 0.28426 0.13369 0.6199 0.0
C539 C 0.32914 0.11087 0.5636 0.0
H540 H 0.20871 0.09549 0.59563 0.0
C541 C 0.37285 0.13286 0.57759 0.0
C542 C 0.35672 0.14316 0.59794 0.0
H543 H 0.34114 0.10723 0.54772 0.0
H544 H 0.41715 0.14709 0.57212 0.0
C545 C 0.29812 0.12581 0.60436 0.0
C546 C 0.15272 0.08944 0.81546 0.0
C547 C 0.19771 0.04835 0.82215 0.0
H548 H 0.09096 0.16042 0.82342 0.0
C549 C 0.22128 0.05622 0.84203 0.0
H550 H 0.13207 0.08553 0.80057 0.0
C551 C 0.19555 0.09836 0.85541 0.0
C552 C 0.14792 0.13592 0.84895 0.0
H553 H 0.25756 0.02787 0.84775 0.0
H554 H 0.21027 0.09895 0.87115 0.0
C555 C 0.12893 0.13314 0.82861 0.0
C556 C 0.1946 0.92703 0.07065 0.0
C557 C 0.2414 0.96206 0.07955 0.0
H558 H 0.11821 0.86786 0.07581 0.0
C559 C 0.24121 0.97231 0.10058 0.0
H560 H 0.19432 0.91834 0.05445 0.0
C561 C 0.19819 0.943 0.11278 0.0
C562 C 0.154 0.90443 0.10403 0.0
H563 H 0.2773 0.99876 0.10772 0.0
H564 H 0.20245 0.94651 0.12915 0.0
C565 C 0.15072 0.89888 0.08282 0.0
C566 C 0.33132 0.93673 0.31401 0.0
C567 C 0.31744 0.98911 0.32519 0.0
H568 H 0.37687 0.8508 0.31395 0.0
C569 C 0.33246 0.99173 0.34592 0.0
H570 H 0.32043 0.93406 0.29796 0.0
C571 C 0.3637 0.944 0.35512 0.0
C572 C 0.38136 0.89327 0.34366 0.0
H573 H 0.32223 0.03186 0.35478 0.0
H574 H 0.37776 0.94884 0.37083 0.0
C575 C 0.36363 0.88936 0.32313 0.0
C576 C 0.71201 0.07408 0.5687 0.0
C577 C 0.72965 0.11058 0.55225 0.0
H578 H 0.65844 0.0671 0.59561 0.0
C579 C 0.69793 0.1649 0.54858 0.0
H580 H 0.73559 0.03218 0.57205 0.0
C581 C 0.65312 0.18471 0.56207 0.0
C582 C 0.63987 0.15077 0.57954 0.0
H583 H 0.70992 0.19355 0.53585 0.0
H584 H 0.63278 0.22889 0.55974 0.0
C585 C 0.66777 0.09408 0.58223 0.0
C586 C 0.70409 0.96482 0.32163 0.0
C587 C 0.70092 0.02474 0.32871 0.0
H588 H 0.67276 0.87371 0.32436 0.0
C589 C 0.66388 0.03772 0.34551 0.0
H590 H 0.7329 0.95339 0.3089 0.0
C591 C 0.62855 0.99177 0.35447 0.0
C592 C 0.63013 0.93202 0.34686 0.0
H593 H 0.66055 0.08374 0.35122 0.0
H594 H 0.5991 1.00335 0.36701 0.0
C595 C 0.66946 0.91911 0.3306 0.0
C596 C 0.81807 0.96779 0.07658 0.0
C597 C 0.78662 0.93522 0.06132 0.0
H598 H 0.88272 0.96462 0.10107 0.0
C599 C 0.80562 0.87558 0.0569 0.0
H600 H 0.80585 0.01419 0.08011 0.0
C601 C 0.85112 0.84759 0.06869 0.0
C602 C 0.87823 0.87875 0.08509 0.0
H603 H 0.78235 0.84897 0.04533 0.0
H604 H 0.86117 0.80009 0.0661 0.0
C605 C 0.86284 0.93974 0.08841 0.0
C606 C 0.82126 0.0545 0.82711 0.0
C607 C 0.853 0.02315 0.81191 0.0
H608 H 0.82548 0.12171 0.85064 0.0
C609 C 0.91179 0.04391 0.80664 0.0
H610 H 0.77546 0.04092 0.83124 0.0
C611 C 0.93986 0.09159 0.81747 0.0
C612 C 0.90964 0.11916 0.83374 0.0
H613 H 0.93778 0.02075 0.79509 0.0
H614 H 0.98687 0.10326 0.81426 0.0
C615 C 0.84943 0.10158 0.83798 0.0
C616 C 0.72969 0.93557 0.43396 0.0
C617 C 0.74777 0.91779 0.45356 0.0
H618 H 0.66457 0.92455 0.40972 0.0
C619 C 0.71285 0.87417 0.4639 0.0
H620 H 0.75613 0.96889 0.42566 0.0
C621 C 0.66011 0.84966 0.45499 0.0
C622 C 0.64195 0.86729 0.43537 0.0
H623 H 0.72581 0.85983 0.47904 0.0
H624 H 0.63367 0.8166 0.46341 0.0
C625 C 0.67765 0.90996 0.42483 0.0
C626 C 0.84019 0.96877 0.21274 0.0
C627 C 0.88864 0.99273 0.22435 0.0
H628 H 0.8114 0.90264 0.19087 0.0
C629 C 0.94497 0.96271 0.22442 0.0
H630 H 0.79589 0.99023 0.21276 0.0
C631 C 0.95368 0.91182 0.21202 0.0
C632 C 0.90622 0.89064 0.19935 0.0
H633 H 0.98312 0.98042 0.23319 0.0
H634 H 0.99847 0.89149 0.21144 0.0
C635 C 0.84896 0.91845 0.2003 0.0
C636 C 0.76254 0.10053 0.93985 0.0
C637 C 0.74315 0.1405 0.95511 0.0
H638 H 0.82616 0.08291 0.91627 0.0
C639 C 0.77252 0.19723 0.95718 0.0
H640 H 0.74128 0.05631 0.93794 0.0
C641 C 0.82154 0.21271 0.94463 0.0
C642 C 0.84249 0.17142 0.92995 0.0
H643 H 0.75805 0.22935 0.96863 0.0
H644 H 0.84444 0.25589 0.94695 0.0
C645 C 0.81149 0.11576 0.92745 0.0
C646 C 0.69386 0.05249 0.70585 0.0
C647 C 0.64999 0.02623 0.71856 0.0
H648 H 0.71435 0.1205 0.68393 0.0
C649 C 0.59315 0.05508 0.72055 0.0
H650 H 0.73868 0.0326 0.70444 0.0
C651 C 0.57916 0.10659 0.70881 0.0
C652 C 0.6217 0.12948 0.69485 0.0
H653 H 0.55855 0.03613 0.73038 0.0
H654 H 0.53415 0.12617 0.70982 0.0
C655 C 0.67994 0.10324 0.69418 0.0
C656 C 0.83935 0.46918 0.95835 0.0
C657 C 0.81913 0.42893 0.97347 0.0
H658 H 0.90282 0.48646 0.93456 0.0
C659 C 0.85298 0.37611 0.97726 0.0
H660 H 0.81416 0.51006 0.9549 0.0
C661 C 0.90429 0.36261 0.9656 0.0
C662 C 0.9225 0.40128 0.94971 0.0
H663 H 0.83912 0.34457 0.98898 0.0
H664 H 0.92783 0.32034 0.96843 0.0
C665 C 0.89031 0.45555 0.94663 0.0
C666 C 0.92059 0.52619 0.1945 0.0
C667 C 0.87529 0.53169 0.20932 0.0
H668 H 0.96955 0.56935 0.17043 0.0
C669 C 0.84175 0.58569 0.21046 0.0
H670 H 0.94711 0.485 0.19339 0.0
C671 C 0.8535 0.63355 0.197 0.0
C672 C 0.89998 0.62867 0.18249 0.0
H673 H 0.80645 0.59074 0.22175 0.0
H674 H 0.8276 0.67504 0.19838 0.0
C675 C 0.93328 0.5744 0.18138 0.0
C676 C 0.67252 0.61109 0.46738 0.0
C677 C 0.72563 0.598 0.45649 0.0
H678 H 0.58317 0.64847 0.46681 0.0
C679 C 0.72809 0.61307 0.43575 0.0
H680 H 0.66872 0.59924 0.48328 0.0
C681 C 0.67856 0.64096 0.42617 0.0
C682 C 0.62568 0.65448 0.43716 0.0
H683 H 0.76869 0.60427 0.42699 0.0
H684 H 0.68195 0.65235 0.41022 0.0
C685 C 0.62328 0.6391 0.45787 0.0
C686 C 0.63331 0.49555 0.68906 0.0
C687 C 0.6755 0.48612 0.70481 0.0
H688 H 0.58219 0.45598 0.66452 0.0
C689 C 0.7018 0.42854 0.70714 0.0
H690 H 0.6124 0.53959 0.68702 0.0
C691 C 0.68573 0.38091 0.69391 0.0
C692 C 0.64198 0.38992 0.67853 0.0
H693 H 0.73461 0.42046 0.71918 0.0
H694 H 0.70572 0.33658 0.69621 0.0
C695 C 0.61619 0.44779 0.67619 0.0
C696 C 0.83811 0.62375 0.06795 0.0
C697 C 0.79398 0.5848 0.0763 0.0
H698 H 0.91366 0.68365 0.0739 0.0
C699 C 0.79848 0.56876 0.09688 0.0
H700 H 0.83549 0.63664 0.0521 0.0
C701 C 0.84285 0.59599 0.10935 0.0
C702 C 0.88433 0.63815 0.10126 0.0
H703 H 0.76471 0.53909 0.10366 0.0
H704 H 0.8417 0.58785 0.12557 0.0
C705 C 0.88335 0.6498 0.08032 0.0
C706 C 0.62597 0.49468 0.33287 0.0
C707 C 0.6886 0.50552 0.33009 0.0
H708 H 0.54193 0.52894 0.3447 0.0
C709 C 0.71612 0.55663 0.33908 0.0
H710 H 0.6041 0.455 0.32623 0.0
C711 C 0.68076 0.59858 0.34947 0.0
C712 C 0.61772 0.58933 0.35137 0.0
H713 H 0.76432 0.56578 0.33713 0.0
H714 H 0.70213 0.63975 0.35523 0.0
C715 C 0.59071 0.53622 0.34363 0.0
C716 C 0.6786 0.42136 0.56496 0.0
C717 C 0.7392 0.43433 0.57103 0.0
H718 H 0.59219 0.38199 0.57323 0.0
C719 C 0.75487 0.42658 0.59162 0.0
H720 H 0.6643 0.42786 0.54936 0.0
C721 C 0.71318 0.40185 0.60526 0.0
C722 C 0.65467 0.38382 0.59878 0.0
H723 H 0.80083 0.43519 0.59702 0.0
H724 H 0.72843 0.39224 0.62061 0.0
C725 C 0.6367 0.39628 0.57872 0.0
C726 C 0.80657 0.49104 0.84772 0.0
C727 C 0.80712 0.48224 0.82653 0.0
H728 H 0.83788 0.46064 0.87677 0.0
C729 C 0.83161 0.42755 0.81901 0.0
H730 H 0.78892 0.5324 0.85427 0.0
C731 C 0.85988 0.3859 0.83216 0.0
C732 C 0.86421 0.39812 0.85307 0.0
H733 H 0.83178 0.41831 0.80286 0.0
H734 H 0.88327 0.34727 0.82572 0.0
C735 C 0.83455 0.44955 0.86076 0.0
C736 C 0.22497 0.66914 0.05425 0.0
C737 C 0.24917 0.61125 0.05846 0.0
H738 H 0.16635 0.74116 0.06424 0.0
C739 C 0.22507 0.57825 0.07483 0.0
H740 H 0.242 0.69556 0.04162 0.0
C741 C 0.18178 0.60422 0.08761 0.0
C742 C 0.1608 0.66356 0.08425 0.0
H743 H 0.24277 0.53394 0.07871 0.0
H744 H 0.16749 0.57926 0.10094 0.0
C745 C 0.18094 0.69496 0.06699 0.0
C746 C 0.19177 0.47153 0.82361 0.0
C747 C 0.15751 0.50211 0.80876 0.0
H748 H 0.19128 0.40575 0.84748 0.0
C749 C 0.09802 0.48117 0.80429 0.0
H750 H 0.23814 0.48545 0.82709 0.0
C751 C 0.07162 0.4343 0.81573 0.0
C752 C 0.10438 0.40787 0.83176 0.0
H753 H 0.07033 0.50383 0.79297 0.0
H754 H 0.02409 0.4226 0.81323 0.0
C755 C 0.16535 0.42521 0.83505 0.0
C756 C 0.29691 0.4472 0.56788 0.0
C757 C 0.2771 0.40811 0.55226 0.0
H758 H 0.35367 0.45802 0.59424 0.0
C759 C 0.30778 0.35291 0.54928 0.0
H760 H 0.27404 0.48986 0.57061 0.0
C761 C 0.3542 0.33511 0.56265 0.0
C762 C 0.36995 0.37185 0.57937 0.0
H763 H 0.29382 0.3222 0.53722 0.0
H764 H 0.37391 0.29042 0.56091 0.0
C765 C 0.34258 0.42904 0.58139 0.0
C766 C 0.32668 0.58156 0.31731 0.0
C767 C 0.31226 0.53183 0.32973 0.0
H768 H 0.37223 0.66789 0.31513 0.0
C769 C 0.32718 0.53439 0.35048 0.0
H770 H 0.316 0.58027 0.30123 0.0
C771 C 0.35793 0.58505 0.35855 0.0
C772 C 0.37568 0.63334 0.34589 0.0
H773 H 0.31677 0.49635 0.36031 0.0
H774 H 0.3713 0.58456 0.37441 0.0
C775 C 0.35876 0.63155 0.32526 0.0
C776 C 0.2702 0.4298 0.93657 0.0
C777 C 0.2876 0.39316 0.95304 0.0
H778 H 0.20746 0.44391 0.91211 0.0
C779 C 0.25697 0.33744 0.95596 0.0
H780 H 0.2939 0.47205 0.93346 0.0
C781 C 0.20778 0.32068 0.94341 0.0
C782 C 0.18796 0.35949 0.92781 0.0
H783 H 0.2691 0.30804 0.96849 0.0
H784 H 0.1833 0.279 0.94664 0.0
C785 C 0.22093 0.41333 0.92418 0.0
C786 C 0.42235 0.47688 0.71832 0.0
C787 C 0.36231 0.49917 0.71775 0.0
H788 H 0.48535 0.4114 0.70637 0.0
C789 C 0.3176 0.46653 0.70693 0.0
H790 H 0.45765 0.50123 0.72663 0.0
C791 C 0.33314 0.41543 0.69567 0.0
C792 C 0.39385 0.3956 0.69487 0.0
H793 H 0.27077 0.48186 0.70658 0.0
H794 H 0.29792 0.39303 0.68671 0.0
C795 C 0.43812 0.42535 0.70689 0.0
C796 C 0.31405 0.54564 0.45568 0.0
C797 C 0.25844 0.54509 0.44495 0.0
H798 H 0.40572 0.58035 0.45705 0.0
C799 C 0.2559 0.57139 0.42552 0.0
H800 H 0.31706 0.52634 0.47078 0.0
C801 C 0.30681 0.6014 0.4176 0.0
C802 C 0.36081 0.60573 0.42903 0.0
H803 H 0.2136 0.57148 0.41694 0.0
H804 H 0.30261 0.62493 0.40323 0.0
C805 C 0.36471 0.57635 0.44786 0.0
C806 C 0.20078 0.55728 0.20992 0.0
C807 C 0.15623 0.53883 0.22388 0.0
H808 H 0.22554 0.61844 0.18626 0.0
C809 C 0.10182 0.57212 0.22514 0.0
H810 H 0.24281 0.53227 0.20831 0.0
C811 C 0.0917 0.62181 0.21233 0.0
C812 C 0.13567 0.63883 0.19795 0.0
H813 H 0.06681 0.55937 0.23587 0.0
H814 H 0.04861 0.64538 0.2132 0.0
C815 C 0.19066 0.60658 0.19715 0.0
loop_
_geom_bond_atom_site_label_1
_geom_bond_atom_site_label_2
_geom_bond_distance
_geom_bond_site_symmetry_2
_ccdc_geom_bond_type
C0 C1 1.384 . S
C0 C2 1.384 1_565 S
C0 H28 0.931 1_565 S
C1 C0 1.384 . S
C1 C4 1.382 . S
C2 C0 1.384 1_545 S
C2 C3 1.381 1_545 S
C2 H29 0.930 . S
C3 C2 1.381 1_565 S
C3 C5 1.381 . S
C3 C6 1.487 . S
C4 C1 1.382 . S
C4 C5 1.387 . S
C4 H30 0.930 . S
C5 C3 1.381 . S
C5 C4 1.387 . S
C5 H31 0.931 . S
C6 C3 1.487 . S
C6 C13 1.399 1_565 S
C6 N44 1.343 . S
C7 C8 1.384 . S
C7 C9 1.384 . S
C7 H32 0.931 . S
C8 C7 1.384 . S
C8 C11 1.382 . S
C9 C7 1.384 . S
C9 C10 1.381 . S
C9 H33 0.930 1_545 S
C10 C9 1.381 . S
C10 C12 1.381 . S
C10 C13 1.487 . S
C11 C8 1.382 . S
C11 C12 1.387 . S
C11 H34 0.930 . S
C12 C10 1.381 . S
C12 C11 1.387 . S
C12 H35 0.931 . S
C13 C6 1.399 1_545 S
C13 C10 1.487 . S
C13 N45 1.343 . S
C14 C15 1.384 . S
C14 C16 1.384 . S
C14 H36 0.931 . S
C15 C14 1.384 . S
C15 C18 1.382 . S
C16 C14 1.384 . S
C16 C17 1.381 . S
C16 H37 0.930 1_545 S
C17 C16 1.381 . S
C17 C19 1.381 . S
C17 C20 1.487 . S
C18 C15 1.382 . S
C18 C19 1.387 . S
C18 H38 0.930 . S
C19 C17 1.381 . S
C19 C18 1.387 . S
C19 H39 0.931 . S
C20 C17 1.487 . S
C20 C27 1.399 1_545 S
C20 N45 1.343 1_655 S
C21 C22 1.384 . S
C21 C23 1.384 1_565 S
C21 H40 0.931 1_565 S
C22 C21 1.384 . S
C22 C25 1.382 . S
C23 C21 1.384 1_545 S
C23 C24 1.381 1_545 S
C23 H41 0.930 . S
C24 C23 1.381 1_565 S
C24 C26 1.381 . S
C24 C27 1.487 . S
C25 C22 1.382 . S
C25 C26 1.387 . S
C25 H42 0.930 . S
C26 C24 1.381 . S
C26 C25 1.387 . S
C26 H43 0.931 . S
C27 C20 1.399 1_565 S
C27 C24 1.487 . S
C27 N44 1.343 1_655 S
H28 C0 0.931 1_545 S
H29 C2 0.930 . S
H30 C4 0.930 . S
H31 C5 0.931 . S
H32 C7 0.931 . S
H33 C9 0.930 1_565 S
H34 C11 0.930 . S
H35 C12 0.931 . S
H36 C14 0.931 . S
H37 C16 0.930 1_565 S
H38 C18 0.930 . S
H39 C19 0.931 . S
H40 C21 0.931 1_545 S
H41 C23 0.930 . S
H42 C25 0.930 . S
H43 C26 0.931 . S
N44 C6 1.343 . S
N44 C27 1.343 1_455 S
N45 C13 1.343 . S
N45 C20 1.343 1_455 S
C46 C47 1.384 . S
C46 C48 1.384 . S
C46 H74 0.931 . S
C47 C46 1.384 . S
C47 C50 1.382 . S
C48 C46 1.384 . S
C48 C49 1.381 . S
C48 H75 0.930 . S
C49 C48 1.381 . S
C49 C51 1.381 . S
C49 C52 1.487 . S
C50 C47 1.382 . S
C50 C51 1.387 . S
C50 H76 0.930 . S
C51 C49 1.381 . S
C51 C50 1.387 . S
C51 H77 0.931 . S
C52 C49 1.487 . S
C52 C59 1.399 . S
C52 N90 1.343 . S
C53 C54 1.384 . S
C53 C55 1.384 . S
C53 H78 0.931 . S
C54 C53 1.384 . S
C54 C57 1.382 . S
C55 C53 1.384 . S
C55 C56 1.381 . S
C55 H79 0.930 . S
C56 C55 1.381 . S
C56 C58 1.381 . S
C56 C59 1.487 . S
C57 C54 1.382 . S
C57 C58 1.387 . S
C57 H80 0.930 . S
C58 C56 1.381 . S
C58 C57 1.387 . S
C58 H81 0.931 . S
C59 C52 1.399 . S
C59 C56 1.487 . S
C59 N91 1.343 . S
C60 C61 1.384 . S
C60 C62 1.384 . S
C60 H82 0.931 . S
C61 C60 1.384 . S
C61 C64 1.382 . S
C62 C60 1.384 . S
C62 C63 1.381 . S
C62 H83 0.930 . S
C63 C62 1.381 . S
C63 C65 1.381 . S
C63 C66 1.487 . S
C64 C61 1.382 . S
C64 C65 1.387 . S
C64 H84 0.930 . S
C65 C63 1.381 . S
C65 C64 1.387 . S
C65 H85 0.931 . S
C66 C63 1.487 . S
C66 C73 1.399 . S
C66 N91 1.343 . S
C67 C68 1.384 . S
C67 C69 1.384 . S
C67 H86 0.931 . S
C68 C67 1.384 . S
C68 C71 1.382 . S
C69 C67 1.384 . S
C69 C70 1.381 . S
C69 H87 0.930 . S
C70 C69 1.381 . S
C70 C72 1.381 . S
C70 C73 1.487 . S
C71 C68 1.382 . S
C71 C72 1.387 . S
C71 H88 0.930 . S
C72 C70 1.381 . S
C72 C71 1.387 . S
C72 H89 0.931 . S
C73 C66 1.399 . S
C73 C70 1.487 . S
C73 N90 1.343 . S
H74 C46 0.931 . S
H75 C48 0.930 . S
H76 C50 0.930 . S
H77 C51 0.931 . S
H78 C53 0.931 . S
H79 C55 0.930 . S
H80 C57 0.930 . S
H81 C58 0.931 . S
H82 C60 0.931 . S
H83 C62 0.930 . S
H84 C64 0.930 . S
H85 C65 0.931 . S
H86 C67 0.931 . S
H87 C69 0.930 . S
H88 C71 0.930 . S
H89 C72 0.931 . S
N90 C52 1.343 . S
N90 C73 1.343 . S
N91 C59 1.343 . S
N91 C66 1.343 . S
C92 C93 1.384 . S
C92 C94 1.384 . S
C92 H120 0.931 1_545 S
C93 C92 1.384 . S
C93 C96 1.382 . S
C94 C92 1.384 . S
C94 C95 1.381 . S
C94 H121 0.930 1_545 S
C95 C94 1.381 . S
C95 C97 1.381 . S
C95 C98 1.487 1_556 S
C96 C93 1.382 . S
C96 C97 1.387 . S
C96 H122 0.930 . S
C97 C95 1.381 . S
C97 C96 1.387 . S
C97 H123 0.931 . S
C98 C95 1.487 1_554 S
C98 C105 1.399 1_545 S
C98 N136 1.343 1_554 S
C99 C100 1.384 . S
C99 C101 1.384 . S
C99 H124 0.931 1_565 S
C100 C99 1.384 . S
C100 C103 1.382 . S
C101 C99 1.384 . S
C101 C102 1.381 . S
C101 H125 0.930 1_565 S
C102 C101 1.381 . S
C102 C104 1.381 . S
C102 C105 1.487 . S
C103 C100 1.382 . S
C103 C104 1.387 . S
C103 H126 0.930 . S
C104 C102 1.381 . S
C104 C103 1.387 . S
C104 H127 0.931 . S
C105 C98 1.399 1_565 S
C105 C102 1.487 . S
C105 N137 1.343 . S
C106 C107 1.384 . S
C106 C108 1.384 . S
C106 H128 0.931 1_565 S
C107 C106 1.384 . S
C107 C110 1.382 . S
C108 C106 1.384 . S
C108 C109 1.381 . S
C108 H129 0.930 1_565 S
C109 C108 1.381 . S
C109 C111 1.381 . S
C109 C112 1.487 . S
C110 C107 1.382 . S
C110 C111 1.387 . S
C110 H130 0.930 . S
C111 C109 1.381 . S
C111 C110 1.387 . S
C111 H131 0.931 . S
C112 C109 1.487 . S
C112 C119 1.399 1_565 S
C112 N137 1.343 . S
C113 C114 1.384 . S
C113 C115 1.384 . S
C113 H132 0.931 1_545 S
C114 C113 1.384 . S
C114 C117 1.382 . S
C115 C113 1.384 . S
C115 C116 1.381 . S
C115 H133 0.930 1_545 S
C116 C115 1.381 . S
C116 C118 1.381 . S
C116 C119 1.487 1_556 S
C117 C114 1.382 . S
C117 C118 1.387 . S
C117 H134 0.930 . S
C118 C116 1.381 . S
C118 C117 1.387 . S
C118 H135 0.931 . S
C119 C112 1.399 1_545 S
C119 C116 1.487 1_554 S
C119 N136 1.343 1_554 S
H120 C92 0.931 1_565 S
H121 C94 0.930 1_565 S
H122 C96 0.930 . S
H123 C97 0.931 . S
H124 C99 0.931 1_545 S
H125 C101 0.930 1_545 S
H126 C103 0.930 . S
H127 C104 0.931 . S
H128 C106 0.931 1_545 S
H129 C108 0.930 1_545 S
H130 C110 0.930 . S
H131 C111 0.931 . S
H132 C113 0.931 1_565 S
H133 C115 0.930 1_565 S
H134 C117 0.930 . S
H135 C118 0.931 . S
N136 C98 1.343 1_556 S
N136 C119 1.343 1_556 S
N137 C105 1.343 . S
N137 C112 1.343 . S
C138 C139 1.384 . S
C138 C140 1.384 . S
C138 H166 0.931 . S
C139 C138 1.384 . S
C139 C142 1.382 . S
C140 C138 1.384 . S
C140 C141 1.381 . S
C140 H167 0.930 . S
C141 C140 1.381 . S
C141 C143 1.381 . S
C141 C144 1.487 . S
C142 C139 1.382 . S
C142 C143 1.387 . S
C142 H168 0.930 . S
C143 C141 1.381 . S
C143 C142 1.387 . S
C143 H169 0.931 . S
C144 C141 1.487 . S
C144 C151 1.399 . S
C144 N182 1.343 . S
C145 C146 1.384 . S
C145 C147 1.384 . S
C145 H170 0.931 . S
C146 C145 1.384 . S
C146 C149 1.382 . S
C147 C145 1.384 . S
C147 C148 1.381 . S
C147 H171 0.930 . S
C148 C147 1.381 . S
C148 C150 1.381 . S
C148 C151 1.487 . S
C149 C146 1.382 . S
C149 C150 1.387 . S
C149 H172 0.930 . S
C150 C148 1.381 . S
C150 C149 1.387 . S
C150 H173 0.931 . S
C151 C144 1.399 . S
C151 C148 1.487 . S
C151 N183 1.343 . S
C152 C153 1.384 . S
C152 C154 1.384 . S
C152 H174 0.931 . S
C153 C152 1.384 . S
C153 C156 1.382 . S
C154 C152 1.384 . S
C154 C155 1.381 . S
C154 H175 0.930 . S
C155 C154 1.381 . S
C155 C157 1.381 . S
C155 C158 1.487 . S
C156 C153 1.382 . S
C156 C157 1.387 . S
C156 H176 0.930 . S
C157 C155 1.381 . S
C157 C156 1.387 . S
C157 H177 0.931 . S
C158 C155 1.487 . S
C158 C165 1.399 . S
C158 N183 1.343 . S
C159 C160 1.384 . S
C159 C161 1.384 . S
C159 H178 0.931 . S
C160 C159 1.384 . S
C160 C163 1.382 . S
C161 C159 1.384 . S
C161 C162 1.381 . S
C161 H179 0.930 . S
C162 C161 1.381 . S
C162 C164 1.381 . S
C162 C165 1.487 . S
C163 C160 1.382 . S
C163 C164 1.387 . S
C163 H180 0.930 . S
C164 C162 1.381 . S
C164 C163 1.387 . S
C164 H181 0.931 . S
C165 C158 1.399 . S
C165 C162 1.487 . S
C165 N182 1.343 . S
H166 C138 0.931 . S
H167 C140 0.930 . S
H168 C142 0.930 . S
H169 C143 0.931 . S
H170 C145 0.931 . S
H171 C147 0.930 . S
H172 C149 0.930 . S
H173 C150 0.931 . S
H174 C152 0.931 . S
H175 C154 0.930 . S
H176 C156 0.930 . S
H177 C157 0.931 . S
H178 C159 0.931 . S
H179 C161 0.930 . S
H180 C163 0.930 . S
H181 C164 0.931 . S
N182 C144 1.343 . S
N182 C165 1.343 . S
N183 C151 1.343 . S
N183 C158 1.343 . S
C184 C185 1.384 . S
C184 C186 1.384 . S
C184 H212 0.931 . S
C185 C184 1.384 . S
C185 C188 1.382 . S
C186 C184 1.384 . S
C186 C187 1.381 . S
C186 H213 0.930 . S
C187 C186 1.381 . S
C187 C189 1.381 . S
C187 C190 1.487 . S
C188 C185 1.382 . S
C188 C189 1.387 . S
C188 H214 0.930 . S
C189 C187 1.381 . S
C189 C188 1.387 . S
C189 H215 0.931 . S
C190 C187 1.487 . S
C190 C197 1.399 . S
C190 N228 1.343 . S
C191 C192 1.384 . S
C191 C193 1.384 . S
C191 H216 0.931 . S
C192 C191 1.384 . S
C192 C195 1.382 . S
C193 C191 1.384 . S
C193 C194 1.381 . S
C193 H217 0.930 . S
C194 C193 1.381 . S
C194 C196 1.381 . S
C194 C197 1.487 . S
C195 C192 1.382 . S
C195 C196 1.387 . S
C195 H218 0.930 . S
C196 C194 1.381 . S
C196 C195 1.387 . S
C196 H219 0.931 . S
C197 C190 1.399 . S
C197 C194 1.487 . S
C197 N229 1.343 . S
C198 C199 1.384 . S
C198 C200 1.384 . S
C198 H220 0.931 . S
C199 C198 1.384 . S
C199 C202 1.382 . S
C200 C198 1.384 . S
C200 C201 1.381 . S
C200 H221 0.930 . S
C201 C200 1.381 . S
C201 C203 1.381 . S
C201 C204 1.487 . S
C202 C199 1.382 . S
C202 C203 1.387 . S
C202 H222 0.930 . S
C203 C201 1.381 . S
C203 C202 1.387 . S
C203 H223 0.931 . S
C204 C201 1.487 . S
C204 C211 1.399 . S
C204 N229 1.343 . S
C205 C206 1.384 . S
C205 C207 1.384 . S
C205 H224 0.931 . S
C206 C205 1.384 . S
C206 C209 1.382 . S
C207 C205 1.384 . S
C207 C208 1.381 . S
C207 H225 0.930 . S
C208 C207 1.381 . S
C208 C210 1.381 . S
C208 C211 1.487 . S
C209 C206 1.382 . S
C209 C210 1.387 . S
C209 H226 0.930 . S
C210 C208 1.381 . S
C210 C209 1.387 . S
C210 H227 0.931 . S
C211 C204 1.399 . S
C211 C208 1.487 . S
C211 N228 1.343 . S
H212 C184 0.931 . S
H213 C186 0.930 . S
H214 C188 0.930 . S
H215 C189 0.931 . S
H216 C191 0.931 . S
H217 C193 0.930 . S
H218 C195 0.930 . S
H219 C196 0.931 . S
H220 C198 0.931 . S
H221 C200 0.930 . S
H222 C202 0.930 . S
H223 C203 0.931 . S
H224 C205 0.931 . S
H225 C207 0.930 . S
H226 C209 0.930 . S
H227 C210 0.931 . S
N228 C190 1.343 . S
N228 C211 1.343 . S
N229 C197 1.343 . S
N229 C204 1.343 . S
C230 C231 1.384 . S
C230 C232 1.384 . S
C230 H258 0.931 . S
C231 C230 1.384 . S
C231 C234 1.382 . S
C232 C230 1.384 . S
C232 C233 1.381 . S
C232 H259 0.930 . S
C233 C232 1.381 . S
C233 C235 1.381 . S
C233 C236 1.487 . S
C234 C231 1.382 . S
C234 C235 1.387 . S
C234 H260 0.930 . S
C235 C233 1.381 . S
C235 C234 1.387 . S
C235 H261 0.931 . S
C236 C233 1.487 . S
C236 C243 1.399 . S
C236 N274 1.343 . S
C237 C238 1.384 . S
C237 C239 1.384 . S
C237 H262 0.931 . S
C238 C237 1.384 . S
C238 C241 1.382 . S
C239 C237 1.384 . S
C239 C240 1.381 . S
C239 H263 0.930 . S
C240 C239 1.381 . S
C240 C242 1.381 . S
C240 C243 1.487 . S
C241 C238 1.382 . S
C241 C242 1.387 . S
C241 H264 0.930 . S
C242 C240 1.381 . S
C242 C241 1.387 . S
C242 H265 0.931 . S
C243 C236 1.399 . S
C243 C240 1.487 . S
C243 N275 1.343 . S
C244 C245 1.384 . S
C244 C246 1.384 . S
C244 H266 0.931 . S
C245 C244 1.384 . S
C245 C248 1.382 . S
C246 C244 1.384 . S
C246 C247 1.381 . S
C246 H267 0.930 . S
C247 C246 1.381 . S
C247 C249 1.381 . S
C247 C250 1.487 . S
C248 C245 1.382 . S
C248 C249 1.387 . S
C248 H268 0.930 . S
C249 C247 1.381 . S
C249 C248 1.387 . S
C249 H269 0.931 . S
C250 C247 1.487 . S
C250 C257 1.399 . S
C250 N275 1.343 . S
C251 C252 1.384 . S
C251 C253 1.384 . S
C251 H270 0.931 . S
C252 C251 1.384 . S
C252 C255 1.382 . S
C253 C251 1.384 . S
C253 C254 1.381 . S
C253 H271 0.930 . S
C254 C253 1.381 . S
C254 C256 1.381 . S
C254 C257 1.487 . S
C255 C252 1.382 . S
C255 C256 1.387 . S
C255 H272 0.930 . S
C256 C254 1.381 . S
C256 C255 1.387 . S
C256 H273 0.931 . S
C257 C250 1.399 . S
C257 C254 1.487 . S
C257 N274 1.343 . S
H258 C230 0.931 . S
H259 C232 0.930 . S
H260 C234 0.930 . S
H261 C235 0.931 . S
H262 C237 0.931 . S
H263 C239 0.930 . S
H264 C241 0.930 . S
H265 C242 0.931 . S
H266 C244 0.931 . S
H267 C246 0.930 . S
H268 C248 0.930 . S
H269 C249 0.931 . S
H270 C251 0.931 . S
H271 C253 0.930 . S
H272 C255 0.930 . S
H273 C256 0.931 . S
N274 C236 1.343 . S
N274 C257 1.343 . S
N275 C243 1.343 . S
N275 C250 1.343 . S
C276 C277 1.384 . S
C276 C278 1.384 . S
C276 H304 0.931 . S
C277 C276 1.384 . S
C277 C280 1.382 . S
C278 C276 1.384 . S
C278 C279 1.381 . S
C278 H305 0.930 . S
C279 C278 1.381 . S
C279 C281 1.381 . S
C279 C282 1.487 1_556 S
C280 C277 1.382 . S
C280 C281 1.387 . S
C280 H306 0.930 . S
C281 C279 1.381 . S
C281 C280 1.387 . S
C281 H307 0.931 . S
C282 C279 1.487 1_554 S
C282 C289 1.399 . S
C282 N320 1.343 1_554 S
C283 C284 1.384 . S
C283 C285 1.384 . S
C283 H308 0.931 . S
C284 C283 1.384 . S
C284 C287 1.382 . S
C285 C283 1.384 . S
C285 C286 1.381 . S
C285 H309 0.930 . S
C286 C285 1.381 . S
C286 C288 1.381 . S
C286 C289 1.487 . S
C287 C284 1.382 . S
C287 C288 1.387 . S
C287 H310 0.930 . S
C288 C286 1.381 . S
C288 C287 1.387 . S
C288 H311 0.931 . S
C289 C282 1.399 . S
C289 C286 1.487 . S
C289 N321 1.343 . S
C290 C291 1.384 . S
C290 C292 1.384 . S
C290 H312 0.931 . S
C291 C290 1.384 . S
C291 C294 1.382 . S
C292 C290 1.384 . S
C292 C293 1.381 . S
C292 H313 0.930 . S
C293 C292 1.381 . S
C293 C295 1.381 . S
C293 C296 1.487 . S
C294 C291 1.382 . S
C294 C295 1.387 . S
C294 H314 0.930 . S
C295 C293 1.381 . S
C295 C294 1.387 . S
C295 H315 0.931 . S
C296 C293 1.487 . S
C296 C303 1.399 . S
C296 N321 1.343 . S
C297 C298 1.384 . S
C297 C299 1.384 . S
C297 H316 0.931 . S
C298 C297 1.384 . S
C298 C301 1.382 . S
C299 C297 1.384 . S
C299 C300 1.381 . S
C299 H317 0.930 . S
C300 C299 1.381 . S
C300 C302 1.381 . S
C300 C303 1.487 1_556 S
C301 C298 1.382 . S
C301 C302 1.387 . S
C301 H318 0.930 . S
C302 C300 1.381 . S
C302 C301 1.387 . S
C302 H319 0.931 . S
C303 C296 1.399 . S
C303 C300 1.487 1_554 S
C303 N320 1.343 1_554 S
H304 C276 0.931 . S
H305 C278 0.930 . S
H306 C280 0.930 . S
H307 C281 0.931 . S
H308 C283 0.931 . S
H309 C285 0.930 . S
H310 C287 0.930 . S
H311 C288 0.931 . S
H312 C290 0.931 . S
H313 C292 0.930 . S
H314 C294 0.930 . S
H315 C295 0.931 . S
H316 C297 0.931 . S
H317 C299 0.930 . S
H318 C301 0.930 . S
H319 C302 0.931 . S
N320 C282 1.343 1_556 S
N320 C303 1.343 1_556 S
N321 C289 1.343 . S
N321 C296 1.343 . S
C322 C323 1.384 . S
C322 C324 1.384 . S
C322 H350 0.931 . S
C323 C322 1.384 . S
C323 C326 1.382 . S
C324 C322 1.384 . S
C324 C325 1.381 . S
C324 H351 0.930 . S
C325 C324 1.381 . S
C325 C327 1.381 . S
C325 C328 1.487 . S
C326 C323 1.382 . S
C326 C327 1.387 . S
C326 H352 0.930 . S
C327 C325 1.381 . S
C327 C326 1.387 . S
C327 H353 0.931 . S
C328 C325 1.487 . S
C328 C335 1.399 . S
C328 N366 1.343 1_655 S
C329 C330 1.384 . S
C329 C331 1.384 . S
C329 H354 0.931 . S
C330 C329 1.384 . S
C330 C333 1.382 . S
C331 C329 1.384 . S
C331 C332 1.381 . S
C331 H355 0.930 . S
C332 C331 1.381 . S
C332 C334 1.381 . S
C332 C335 1.487 . S
C333 C330 1.382 . S
C333 C334 1.387 . S
C333 H356 0.930 . S
C334 C332 1.381 . S
C334 C333 1.387 . S
C334 H357 0.931 . S
C335 C328 1.399 . S
C335 C332 1.487 . S
C335 N367 1.343 1_655 S
C336 C337 1.384 . S
C336 C338 1.384 . S
C336 H358 0.931 . S
C337 C336 1.384 . S
C337 C340 1.382 . S
C338 C336 1.384 . S
C338 C339 1.381 . S
C338 H359 0.930 . S
C339 C338 1.381 . S
C339 C341 1.381 . S
C339 C342 1.487 . S
C340 C337 1.382 . S
C340 C341 1.387 . S
C340 H360 0.930 . S
C341 C339 1.381 . S
C341 C340 1.387 . S
C341 H361 0.931 . S
C342 C339 1.487 . S
C342 C349 1.399 . S
C342 N367 1.343 . S
C343 C344 1.384 . S
C343 C345 1.384 . S
C343 H362 0.931 . S
C344 C343 1.384 . S
C344 C347 1.382 . S
C345 C343 1.384 . S
C345 C346 1.381 . S
C345 H363 0.930 . S
C346 C345 1.381 . S
C346 C348 1.381 . S
C346 C349 1.487 . S
C347 C344 1.382 . S
C347 C348 1.387 . S
C347 H364 0.930 . S
C348 C346 1.381 . S
C348 C347 1.387 . S
C348 H365 0.931 . S
C349 C342 1.399 . S
C349 C346 1.487 . S
C349 N366 1.343 . S
H350 C322 0.931 . S
H351 C324 0.930 . S
H352 C326 0.930 . S
H353 C327 0.931 . S
H354 C329 0.931 . S
H355 C331 0.930 . S
H356 C333 0.930 . S
H357 C334 0.931 . S
H358 C336 0.931 . S
H359 C338 0.930 . S
H360 C340 0.930 . S
H361 C341 0.931 . S
H362 C343 0.931 . S
H363 C345 0.930 . S
H364 C347 0.930 . S
H365 C348 0.931 . S
N366 C328 1.343 1_455 S
N366 C349 1.343 . S
N367 C335 1.343 1_455 S
N367 C342 1.343 . S
Fe368 O369 1.886 . S
Fe368 O372 1.715 1_455 S
Fe368 O377 2.077 . S
Fe368 O382 1.935 1_455 S
Fe368 O388 2.077 . S
Fe368 O397 1.935 1_455 S
O369 Fe368 1.886 . S
O369 Fe371 1.715 . S
Fe370 O372 1.886 . S
Fe370 O373 1.715 . S
Fe370 O380 1.935 . S
Fe370 O381 2.077 . S
Fe370 O387 1.935 . S
Fe370 O396 2.077 . S
Fe371 O369 1.715 . S
Fe371 O374 1.886 . S
Fe371 O378 1.935 . S
Fe371 O383 2.077 . S
Fe371 O389 1.935 . S
Fe371 O393 2.077 . S
O372 Fe368 1.715 1_655 S
O372 Fe370 1.886 . S
O373 Fe370 1.715 . S
O373 Fe375 1.886 . S
O374 Fe371 1.886 . S
O374 Fe375 1.715 1_455 S
Fe375 O373 1.886 . S
Fe375 O374 1.715 1_655 S
Fe375 O379 2.077 . S
Fe375 O384 1.935 1_655 S
Fe375 O386 2.077 . S
Fe375 O394 1.935 1_655 S
C376 O388 1.381 . S
C376 O389 1.421 . S
O377 Fe368 2.077 . S
O377 C390 1.381 . S
O378 Fe371 1.935 . S
O378 C390 1.421 . S
O379 Fe375 2.077 . S
O379 C395 1.381 . S
O380 Fe370 1.935 . S
O380 C395 1.421 . S
O381 Fe370 2.077 . S
O381 C385 1.381 . S
O382 Fe368 1.935 1_655 S
O382 C385 1.421 . S
O383 Fe371 2.077 . S
O383 C391 1.381 . S
O384 Fe375 1.935 1_455 S
O384 C391 1.421 . S
C385 O381 1.381 . S
C385 O382 1.421 . S
O386 Fe375 2.077 . S
O386 C398 1.381 . S
O387 Fe370 1.935 . S
O387 C398 1.421 . S
O388 Fe368 2.077 . S
O388 C376 1.381 . S
O389 Fe371 1.935 . S
O389 C376 1.421 . S
C390 O377 1.381 . S
C390 O378 1.421 . S
C391 O383 1.381 . S
C391 O384 1.421 . S
C392 O393 1.381 . S
C392 O394 1.421 . S
O393 Fe371 2.077 . S
O393 C392 1.381 . S
O394 Fe375 1.935 1_455 S
O394 C392 1.421 . S
C395 O379 1.381 . S
C395 O380 1.421 . S
O396 Fe370 2.077 . S
O396 C399 1.381 . S
O397 Fe368 1.935 1_655 S
O397 C399 1.421 . S
C398 O386 1.381 . S
C398 O387 1.421 . S
C399 O396 1.381 . S
C399 O397 1.421 . S
Fe400 O401 1.886 . S
Fe400 O404 1.715 . S
Fe400 O409 2.077 . S
Fe400 O414 1.935 . S
Fe400 O420 2.077 . S
Fe400 O429 1.935 . S
O401 Fe400 1.886 . S
O401 Fe403 1.715 . S
Fe402 O404 1.886 . S
Fe402 O405 1.715 . S
Fe402 O412 1.935 . S
Fe402 O413 2.077 . S
Fe402 O419 1.935 . S
Fe402 O428 2.077 . S
Fe403 O401 1.715 . S
Fe403 O406 1.886 . S
Fe403 O410 1.935 . S
Fe403 O415 2.077 . S
Fe403 O421 1.935 . S
Fe403 O425 2.077 . S
O404 Fe400 1.715 . S
O404 Fe402 1.886 . S
O405 Fe402 1.715 . S
O405 Fe407 1.886 . S
O406 Fe403 1.886 . S
O406 Fe407 1.715 . S
Fe407 O405 1.886 . S
Fe407 O406 1.715 . S
Fe407 O411 2.077 . S
Fe407 O416 1.935 . S
Fe407 O418 2.077 . S
Fe407 O426 1.935 . S
C408 O420 1.381 . S
C408 O421 1.421 . S
O409 Fe400 2.077 . S
O409 C422 1.381 . S
O410 Fe403 1.935 . S
O410 C422 1.421 . S
O411 Fe407 2.077 . S
O411 C427 1.381 . S
O412 Fe402 1.935 . S
O412 C427 1.421 . S
O413 Fe402 2.077 . S
O413 C417 1.381 . S
O414 Fe400 1.935 . S
O414 C417 1.421 . S
O415 Fe403 2.077 . S
O415 C423 1.381 . S
O416 Fe407 1.935 . S
O416 C423 1.421 . S
C417 O413 1.381 . S
C417 O414 1.421 . S
O418 Fe407 2.077 . S
O418 C430 1.381 . S
O419 Fe402 1.935 . S
O419 C430 1.421 . S
O420 Fe400 2.077 . S
O420 C408 1.381 . S
O421 Fe403 1.935 . S
O421 C408 1.421 . S
C422 O409 1.381 . S
C422 O410 1.421 . S
C423 O415 1.381 . S
C423 O416 1.421 . S
C424 O425 1.381 . S
C424 O426 1.421 . S
O425 Fe403 2.077 . S
O425 C424 1.381 . S
O426 Fe407 1.935 . S
O426 C424 1.421 . S
C427 O411 1.381 . S
C427 O412 1.421 . S
O428 Fe402 2.077 . S
O428 C431 1.381 . S
O429 Fe400 1.935 . S
O429 C431 1.421 . S
C430 O418 1.381 . S
C430 O419 1.421 . S
C431 O428 1.381 . S
C431 O429 1.421 . S
Fe432 O433 1.886 . S
Fe432 O436 1.715 . S
Fe432 O441 2.077 . S
Fe432 O446 1.935 . S
Fe432 O452 2.077 . S
Fe432 O461 1.935 . S
O433 Fe432 1.886 . S
O433 Fe435 1.715 . S
Fe434 O436 1.886 . S
Fe434 O437 1.715 . S
Fe434 O444 1.935 . S
Fe434 O445 2.077 . S
Fe434 O451 1.935 . S
Fe434 O460 2.077 . S
Fe435 O433 1.715 . S
Fe435 O438 1.886 . S
Fe435 O442 1.935 . S
Fe435 O447 2.077 . S
Fe435 O453 1.935 . S
Fe435 O457 2.077 . S
O436 Fe432 1.715 . S
O436 Fe434 1.886 . S
O437 Fe434 1.715 . S
O437 Fe439 1.886 . S
O438 Fe435 1.886 . S
O438 Fe439 1.715 . S
Fe439 O437 1.886 . S
Fe439 O438 1.715 . S
Fe439 O443 2.077 . S
Fe439 O448 1.935 . S
Fe439 O450 2.077 . S
Fe439 O458 1.935 . S
C440 O452 1.381 . S
C440 O453 1.421 . S
O441 Fe432 2.077 . S
O441 C454 1.381 . S
O442 Fe435 1.935 . S
O442 C454 1.421 . S
O443 Fe439 2.077 . S
O443 C459 1.381 . S
O444 Fe434 1.935 . S
O444 C459 1.421 . S
O445 Fe434 2.077 . S
O445 C449 1.381 . S
O446 Fe432 1.935 . S
O446 C449 1.421 . S
O447 Fe435 2.077 . S
O447 C455 1.381 . S
O448 Fe439 1.935 . S
O448 C455 1.421 . S
C449 O445 1.381 . S
C449 O446 1.421 . S
O450 Fe439 2.077 . S
O450 C462 1.381 . S
O451 Fe434 1.935 . S
O451 C462 1.421 . S
O452 Fe432 2.077 . S
O452 C440 1.381 . S
O453 Fe435 1.935 . S
O453 C440 1.421 . S
C454 O441 1.381 . S
C454 O442 1.421 . S
C455 O447 1.381 . S
C455 O448 1.421 . S
C456 O457 1.381 . S
C456 O458 1.421 . S
O457 Fe435 2.077 . S
O457 C456 1.381 . S
O458 Fe439 1.935 . S
O458 C456 1.421 . S
C459 O443 1.381 . S
C459 O444 1.421 . S
O460 Fe434 2.077 . S
O460 C463 1.381 . S
O461 Fe432 1.935 . S
O461 C463 1.421 . S
C462 O450 1.381 . S
C462 O451 1.421 . S
C463 O460 1.381 . S
C463 O461 1.421 . S
Fe464 O465 1.886 . S
Fe464 O468 1.715 . S
Fe464 O473 2.077 1_455 S
Fe464 O478 1.935 1_455 S
Fe464 O484 2.077 . S
Fe464 O493 1.935 . S
O465 Fe464 1.886 . S
O465 Fe467 1.715 . S
Fe466 O468 1.886 . S
Fe466 O469 1.715 . S
Fe466 O476 1.935 1_455 S
Fe466 O477 2.077 1_455 S
Fe466 O483 1.935 . S
Fe466 O492 2.077 . S
Fe467 O465 1.715 . S
Fe467 O470 1.886 . S
Fe467 O474 1.935 1_455 S
Fe467 O479 2.077 1_455 S
Fe467 O485 1.935 . S
Fe467 O489 2.077 . S
O468 Fe464 1.715 . S
O468 Fe466 1.886 . S
O469 Fe466 1.715 . S
O469 Fe471 1.886 . S
O470 Fe467 1.886 . S
O470 Fe471 1.715 . S
Fe471 O469 1.886 . S
Fe471 O470 1.715 . S
Fe471 O475 2.077 1_455 S
Fe471 O480 1.935 1_455 S
Fe471 O482 2.077 . S
Fe471 O490 1.935 . S
C472 O484 1.381 . S
C472 O485 1.421 . S
O473 Fe464 2.077 1_655 S
O473 C486 1.381 . S
O474 Fe467 1.935 1_655 S
O474 C486 1.421 . S
O475 Fe471 2.077 1_655 S
O475 C491 1.381 . S
O476 Fe466 1.935 1_655 S
O476 C491 1.421 . S
O477 Fe466 2.077 1_655 S
O477 C481 1.381 . S
O478 Fe464 1.935 1_655 S
O478 C481 1.421 . S
O479 Fe467 2.077 1_655 S
O479 C487 1.381 . S
O480 Fe471 1.935 1_655 S
O480 C487 1.421 . S
C481 O477 1.381 . S
C481 O478 1.421 . S
O482 Fe471 2.077 . S
O482 C494 1.381 . S
O483 Fe466 1.935 . S
O483 C494 1.421 . S
O484 Fe464 2.077 . S
O484 C472 1.381 . S
O485 Fe467 1.935 . S
O485 C472 1.421 . S
C486 O473 1.381 . S
C486 O474 1.421 . S
C487 O479 1.381 . S
C487 O480 1.421 . S
C488 O489 1.381 . S
C488 O490 1.421 . S
O489 Fe467 2.077 . S
O489 C488 1.381 . S
O490 Fe471 1.935 . S
O490 C488 1.421 . S
C491 O475 1.381 . S
C491 O476 1.421 . S
O492 Fe466 2.077 . S
O492 C495 1.381 . S
O493 Fe464 1.935 . S
O493 C495 1.421 . S
C494 O482 1.381 . S
C494 O483 1.421 . S
C495 O492 1.381 . S
C495 O493 1.421 . S
C496 C497 1.387 . S
C496 H500 0.950 . S
C496 C505 1.390 . S
C497 C496 1.387 . S
C497 C499 1.387 . S
H498 C505 0.950 . S
C499 C497 1.387 . S
C499 C501 1.390 . S
C499 H503 0.950 . S
H500 C496 0.950 . S
C501 C499 1.390 . S
C501 C502 1.387 . S
C501 H504 0.950 . S
C502 C501 1.387 . S
C502 C505 1.387 . S
H503 C499 0.950 . S
H504 C501 0.950 . S
C505 C496 1.390 . S
C505 H498 0.950 . S
C505 C502 1.387 . S
C506 C507 1.387 . S
C506 H510 0.950 1_545 S
C506 C515 1.390 . S
C507 C506 1.387 . S
C507 C509 1.387 . S
H508 C515 0.950 . S
C509 C507 1.387 . S
C509 C511 1.390 . S
C509 H513 0.950 . S
H510 C506 0.950 1_565 S
C511 C509 1.390 . S
C511 C512 1.387 . S
C511 H514 0.950 . S
C512 C511 1.387 . S
C512 C515 1.387 . S
H513 C509 0.950 . S
H514 C511 0.950 . S
C515 C506 1.390 . S
C515 H508 0.950 . S
C515 C512 1.387 . S
C516 C517 1.387 . S
C516 H520 0.950 . S
C516 C525 1.390 . S
C517 C516 1.387 . S
C517 C519 1.387 . S
H518 C525 0.950 . S
C519 C517 1.387 . S
C519 C521 1.390 . S
C519 H523 0.950 . S
H520 C516 0.950 . S
C521 C519 1.390 . S
C521 C522 1.387 . S
C521 H524 0.950 . S
C522 C521 1.387 . S
C522 C525 1.387 . S
H523 C519 0.950 . S
H524 C521 0.950 . S
C525 C516 1.390 . S
C525 H518 0.950 . S
C525 C522 1.387 . S
C526 C527 1.393 . S
C526 H530 0.950 . S
C526 C535 1.390 . S
C527 C526 1.393 . S
C527 C529 1.388 . S
H528 C535 0.950 . S
C529 C527 1.388 . S
C529 C531 1.390 . S
C529 H533 0.950 1_565 S
H530 C526 0.950 . S
C531 C529 1.390 . S
C531 C532 1.387 . S
C531 H534 0.950 . S
C532 C531 1.387 . S
C532 C535 1.387 . S
H533 C529 0.950 1_545 S
H534 C531 0.950 . S
C535 C526 1.390 . S
C535 H528 0.950 . S
C535 C532 1.387 . S
C536 C537 1.387 . S
C536 H540 0.950 . S
C536 C545 1.390 . S
C537 C536 1.387 . S
C537 C539 1.387 . S
H538 C545 0.950 . S
C539 C537 1.387 . S
C539 C541 1.390 . S
C539 H543 0.950 . S
H540 C536 0.950 . S
C541 C539 1.390 . S
C541 C542 1.387 . S
C541 H544 0.950 . S
C542 C541 1.387 . S
C542 C545 1.387 . S
H543 C539 0.950 . S
H544 C541 0.950 . S
C545 C536 1.390 . S
C545 H538 0.950 . S
C545 C542 1.387 . S
C546 C547 1.387 . S
C546 H550 0.950 . S
C546 C555 1.390 . S
C547 C546 1.387 . S
C547 C549 1.387 . S
H548 C555 0.950 . S
C549 C547 1.387 . S
C549 C551 1.390 . S
C549 H553 0.950 1_545 S
H550 C546 0.950 . S
C551 C549 1.390 . S
C551 C552 1.387 . S
C551 H554 0.950 . S
C552 C551 1.387 . S
C552 C555 1.387 . S
H553 C549 0.950 1_565 S
H554 C551 0.950 . S
C555 C546 1.390 . S
C555 H548 0.950 . S
C555 C552 1.387 . S
C556 C557 1.387 . S
C556 H560 0.950 . S
C556 C565 1.390 . S
C557 C556 1.387 . S
C557 C559 1.387 . S
H558 C565 0.950 . S
C559 C557 1.387 . S
C559 C561 1.390 . S
C559 H563 0.950 . S
H560 C556 0.950 . S
C561 C559 1.390 . S
C561 C562 1.387 . S
C561 H564 0.950 . S
C562 C561 1.387 . S
C562 C565 1.387 . S
H563 C559 0.950 . S
H564 C561 0.950 . S
C565 C556 1.390 . S
C565 H558 0.950 . S
C565 C562 1.387 . S
C566 C567 1.383 1_565 S
C566 H570 0.950 . S
C566 C575 1.390 . S
C567 C566 1.383 1_545 S
C567 C569 1.388 . S
H568 C575 0.950 . S
C569 C567 1.388 . S
C569 C571 1.390 1_545 S
C569 H573 0.950 . S
H570 C566 0.950 . S
C571 C569 1.390 1_565 S
C571 C572 1.387 . S
C571 H574 0.950 . S
C572 C571 1.387 . S
C572 C575 1.387 . S
H573 C569 0.950 . S
H574 C571 0.950 . S
C575 C566 1.390 . S
C575 H568 0.950 . S
C575 C572 1.387 . S
C576 C577 1.387 . S
C576 H580 0.950 . S
C576 C585 1.390 . S
C577 C576 1.387 . S
C577 C579 1.387 . S
H578 C585 0.950 . S
C579 C577 1.387 . S
C579 C581 1.390 . S
C579 H583 0.950 . S
H580 C576 0.950 . S
C581 C579 1.390 . S
C581 C582 1.387 . S
C581 H584 0.950 . S
C582 C581 1.387 . S
C582 C585 1.387 . S
H583 C579 0.950 . S
H584 C581 0.950 . S
C585 C576 1.390 . S
C585 H578 0.950 . S
C585 C582 1.387 . S
C586 C587 1.386 1_565 S
C586 H590 0.950 . S
C586 C595 1.390 . S
C587 C586 1.386 1_545 S
C587 C589 1.388 . S
H588 C595 0.950 . S
C589 C587 1.388 . S
C589 C591 1.390 1_545 S
C589 H593 0.950 . S
H590 C586 0.950 . S
C591 C589 1.390 1_565 S
C591 C592 1.387 . S
C591 H594 0.950 . S
C592 C591 1.387 . S
C592 C595 1.387 . S
H593 C589 0.950 . S
H594 C591 0.950 . S
C595 C586 1.390 . S
C595 H588 0.950 . S
C595 C592 1.387 . S
C596 C597 1.387 . S
C596 H600 0.950 . S
C596 C605 1.390 . S
C597 C596 1.387 . S
C597 C599 1.387 . S
H598 C605 0.950 . S
C599 C597 1.387 . S
C599 C601 1.390 . S
C599 H603 0.950 . S
H600 C596 0.950 . S
C601 C599 1.390 . S
C601 C602 1.387 . S
C601 H604 0.950 . S
C602 C601 1.387 . S
C602 C605 1.387 . S
H603 C599 0.950 . S
H604 C601 0.950 . S
C605 C596 1.390 . S
C605 H598 0.950 . S
C605 C602 1.387 . S
C606 C607 1.387 . S
C606 H610 0.950 . S
C606 C615 1.390 . S
C607 C606 1.387 . S
C607 C609 1.387 . S
H608 C615 0.950 . S
C609 C607 1.387 . S
C609 C611 1.390 . S
C609 H613 0.949 1_545 S
H610 C606 0.950 . S
C611 C609 1.390 . S
C611 C612 1.387 . S
C611 H614 0.950 . S
C612 C611 1.387 . S
C612 C615 1.387 . S
H613 C609 0.949 1_565 S
H614 C611 0.950 . S
C615 C606 1.390 . S
C615 H608 0.950 . S
C615 C612 1.387 . S
C616 C617 1.387 . S
C616 H620 0.950 . S
C616 C625 1.390 . S
C617 C616 1.387 . S
C617 C619 1.387 . S
H618 C625 0.950 . S
C619 C617 1.387 . S
C619 C621 1.390 . S
C619 H623 0.950 . S
H620 C616 0.950 . S
C621 C619 1.390 . S
C621 C622 1.387 . S
C621 H624 0.950 . S
C622 C621 1.387 . S
C622 C625 1.387 . S
H623 C619 0.950 . S
H624 C621 0.950 . S
C625 C616 1.390 . S
C625 H618 0.950 . S
C625 C622 1.387 . S
C626 C627 1.398 . S
C626 H630 0.950 . S
C626 C635 1.390 . S
C627 C626 1.398 . S
C627 C629 1.388 . S
H628 C635 0.950 . S
C629 C627 1.388 . S
C629 C631 1.390 . S
C629 H633 0.950 1_565 S
H630 C626 0.950 . S
C631 C629 1.390 . S
C631 C632 1.387 . S
C631 H634 0.950 . S
C632 C631 1.387 . S
C632 C635 1.387 . S
H633 C629 0.950 1_545 S
H634 C631 0.950 . S
C635 C626 1.390 . S
C635 H628 0.950 . S
C635 C632 1.387 . S
C636 C637 1.387 . S
C636 H640 0.950 . S
C636 C645 1.390 . S
C637 C636 1.387 . S
C637 C639 1.387 . S
H638 C645 0.950 . S
C639 C637 1.387 . S
C639 C641 1.390 . S
C639 H643 0.950 . S
H640 C636 0.950 . S
C641 C639 1.390 . S
C641 C642 1.387 . S
C641 H644 0.950 . S
C642 C641 1.387 . S
C642 C645 1.387 . S
H643 C639 0.950 . S
H644 C641 0.950 . S
C645 C636 1.390 . S
C645 H638 0.950 . S
C645 C642 1.387 . S
C646 C647 1.387 . S
C646 H650 0.950 1_545 S
C646 C655 1.390 . S
C647 C646 1.387 . S
C647 C649 1.387 . S
H648 C655 0.950 . S
C649 C647 1.387 . S
C649 C651 1.390 . S
C649 H653 0.950 . S
H650 C646 0.950 1_565 S
C651 C649 1.390 . S
C651 C652 1.387 . S
C651 H654 0.950 . S
C652 C651 1.387 . S
C652 C655 1.387 . S
H653 C649 0.950 . S
H654 C651 0.950 . S
C655 C646 1.390 . S
C655 H648 0.950 . S
C655 C652 1.387 . S
C656 C657 1.387 . S
C656 H660 0.950 . S
C656 C665 1.390 . S
C657 C656 1.387 . S
C657 C659 1.387 . S
H658 C665 0.950 . S
C659 C657 1.387 . S
C659 C661 1.390 . S
C659 H663 0.950 . S
H660 C656 0.950 . S
C661 C659 1.390 . S
C661 C662 1.387 . S
C661 H664 0.950 . S
C662 C661 1.387 . S
C662 C665 1.387 . S
H663 C659 0.950 . S
H664 C661 0.950 . S
C665 C656 1.390 . S
C665 H658 0.950 . S
C665 C662 1.387 . S
C666 C667 1.387 . S
C666 H670 0.950 . S
C666 C675 1.390 . S
C667 C666 1.387 . S
C667 C669 1.387 . S
H668 C675 0.950 . S
C669 C667 1.387 . S
C669 C671 1.390 . S
C669 H673 0.950 . S
H670 C666 0.950 . S
C671 C669 1.390 . S
C671 C672 1.387 . S
C671 H674 0.950 . S
C672 C671 1.387 . S
C672 C675 1.387 . S
H673 C669 0.950 . S
H674 C671 0.950 . S
C675 C666 1.390 . S
C675 H668 0.950 . S
C675 C672 1.387 . S
C676 C677 1.387 . S
C676 H680 0.950 . S
C676 C685 1.390 . S
C677 C676 1.387 . S
C677 C679 1.387 . S
H678 C685 0.950 . S
C679 C677 1.387 . S
C679 C681 1.390 . S
C679 H683 0.950 . S
H680 C676 0.950 . S
C681 C679 1.390 . S
C681 C682 1.387 . S
C681 H684 0.950 . S
C682 C681 1.387 . S
C682 C685 1.387 . S
H683 C679 0.950 . S
H684 C681 0.950 . S
C685 C676 1.390 . S
C685 H678 0.950 . S
C685 C682 1.387 . S
C686 C687 1.387 . S
C686 H690 0.950 . S
C686 C695 1.390 . S
C687 C686 1.387 . S
C687 C689 1.387 . S
H688 C695 0.950 . S
C689 C687 1.387 . S
C689 C691 1.390 . S
C689 H693 0.950 . S
H690 C686 0.950 . S
C691 C689 1.390 . S
C691 C692 1.387 . S
C691 H694 0.950 . S
C692 C691 1.387 . S
C692 C695 1.387 . S
H693 C689 0.950 . S
H694 C691 0.950 . S
C695 C686 1.390 . S
C695 H688 0.950 . S
C695 C692 1.387 . S
C696 C697 1.387 . S
C696 H700 0.950 . S
C696 C705 1.390 . S
C697 C696 1.387 . S
C697 C699 1.387 . S
H698 C705 0.950 . S
C699 C697 1.387 . S
C699 C701 1.390 . S
C699 H703 0.950 . S
H700 C696 0.950 . S
C701 C699 1.390 . S
C701 C702 1.387 . S
C701 H704 0.950 . S
C702 C701 1.387 . S
C702 C705 1.387 . S
H703 C699 0.950 . S
H704 C701 0.950 . S
C705 C696 1.390 . S
C705 H698 0.950 . S
C705 C702 1.387 . S
C706 C707 1.387 . S
C706 H710 0.950 . S
C706 C715 1.390 . S
C707 C706 1.387 . S
C707 C709 1.387 . S
H708 C715 0.950 . S
C709 C707 1.387 . S
C709 C711 1.390 . S
C709 H713 0.950 . S
H710 C706 0.950 . S
C711 C709 1.390 . S
C711 C712 1.387 . S
C711 H714 0.950 . S
C712 C711 1.387 . S
C712 C715 1.387 . S
H713 C709 0.950 . S
H714 C711 0.950 . S
C715 C706 1.390 . S
C715 H708 0.950 . S
C715 C712 1.387 . S
C716 C717 1.387 . S
C716 H720 0.950 . S
C716 C725 1.390 . S
C717 C716 1.387 . S
C717 C719 1.387 . S
H718 C725 0.950 . S
C719 C717 1.387 . S
C719 C721 1.390 . S
C719 H723 0.950 . S
H720 C716 0.950 . S
C721 C719 1.390 . S
C721 C722 1.387 . S
C721 H724 0.950 . S
C722 C721 1.387 . S
C722 C725 1.387 . S
H723 C719 0.950 . S
H724 C721 0.950 . S
C725 C716 1.390 . S
C725 H718 0.950 . S
C725 C722 1.387 . S
C726 C727 1.387 . S
C726 H730 0.950 . S
C726 C735 1.390 . S
C727 C726 1.387 . S
C727 C729 1.387 . S
H728 C735 0.950 . S
C729 C727 1.387 . S
C729 C731 1.390 . S
C729 H733 0.950 . S
H730 C726 0.950 . S
C731 C729 1.390 . S
C731 C732 1.387 . S
C731 H734 0.950 . S
C732 C731 1.387 . S
C732 C735 1.387 . S
H733 C729 0.950 . S
H734 C731 0.950 . S
C735 C726 1.390 . S
C735 H728 0.950 . S
C735 C732 1.387 . S
C736 C737 1.387 . S
C736 H740 0.950 . S
C736 C745 1.390 . S
C737 C736 1.387 . S
C737 C739 1.387 . S
H738 C745 0.950 . S
C739 C737 1.387 . S
C739 C741 1.390 . S
C739 H743 0.950 . S
H740 C736 0.950 . S
C741 C739 1.390 . S
C741 C742 1.387 . S
C741 H744 0.950 . S
C742 C741 1.387 . S
C742 C745 1.387 . S
H743 C739 0.950 . S
H744 C741 0.950 . S
C745 C736 1.390 . S
C745 H738 0.950 . S
C745 C742 1.387 . S
C746 C747 1.387 . S
C746 H750 0.950 . S
C746 C755 1.390 . S
C747 C746 1.387 . S
C747 C749 1.387 . S
H748 C755 0.950 . S
C749 C747 1.387 . S
C749 C751 1.390 . S
C749 H753 0.950 . S
H750 C746 0.950 . S
C751 C749 1.390 . S
C751 C752 1.387 . S
C751 H754 0.950 . S
C752 C751 1.387 . S
C752 C755 1.387 . S
H753 C749 0.950 . S
H754 C751 0.950 . S
C755 C746 1.390 . S
C755 H748 0.950 . S
C755 C752 1.387 . S
C756 C757 1.387 . S
C756 H760 0.950 . S
C756 C765 1.390 . S
C757 C756 1.387 . S
C757 C759 1.387 . S
H758 C765 0.950 . S
C759 C757 1.387 . S
C759 C761 1.390 . S
C759 H763 0.950 . S
H760 C756 0.950 . S
C761 C759 1.390 . S
C761 C762 1.387 . S
C761 H764 0.950 . S
C762 C761 1.387 . S
C762 C765 1.387 . S
H763 C759 0.950 . S
H764 C761 0.950 . S
C765 C756 1.390 . S
C765 H758 0.950 . S
C765 C762 1.387 . S
C766 C767 1.387 . S
C766 H770 0.950 . S
C766 C775 1.390 . S
C767 C766 1.387 . S
C767 C769 1.387 . S
H768 C775 0.950 . S
C769 C767 1.387 . S
C769 C771 1.390 . S
C769 H773 0.950 . S
H770 C766 0.950 . S
C771 C769 1.390 . S
C771 C772 1.387 . S
C771 H774 0.950 . S
C772 C771 1.387 . S
C772 C775 1.387 . S
H773 C769 0.950 . S
H774 C771 0.950 . S
C775 C766 1.390 . S
C775 H768 0.950 . S
C775 C772 1.387 . S
C776 C777 1.387 . S
C776 H780 0.950 . S
C776 C785 1.390 . S
C777 C776 1.387 . S
C777 C779 1.387 . S
H778 C785 0.950 . S
C779 C777 1.387 . S
C779 C781 1.390 . S
C779 H783 0.950 . S
H780 C776 0.950 . S
C781 C779 1.390 . S
C781 C782 1.387 . S
C781 H784 0.950 . S
C782 C781 1.387 . S
C782 C785 1.387 . S
H783 C779 0.950 . S
H784 C781 0.950 . S
C785 C776 1.390 . S
C785 H778 0.950 . S
C785 C782 1.387 . S
C786 C787 1.387 . S
C786 H790 0.950 . S
C786 C795 1.390 . S
C787 C786 1.387 . S
C787 C789 1.387 . S
H788 C795 0.950 . S
C789 C787 1.387 . S
C789 C791 1.390 . S
C789 H793 0.950 . S
H790 C786 0.950 . S
C791 C789 1.390 . S
C791 C792 1.387 . S
C791 H794 0.950 . S
C792 C791 1.387 . S
C792 C795 1.387 . S
H793 C789 0.950 . S
H794 C791 0.950 . S
C795 C786 1.390 . S
C795 H788 0.950 . S
C795 C792 1.387 . S
C796 C797 1.387 . S
C796 H800 0.950 . S
C796 C805 1.390 . S
C797 C796 1.387 . S
C797 C799 1.387 . S
H798 C805 0.950 . S
C799 C797 1.387 . S
C799 C801 1.390 . S
C799 H803 0.950 . S
H800 C796 0.950 . S
C801 C799 1.390 . S
C801 C802 1.387 . S
C801 H804 0.950 . S
C802 C801 1.387 . S
C802 C805 1.387 . S
H803 C799 0.950 . S
H804 C801 0.950 . S
C805 C796 1.390 . S
C805 H798 0.950 . S
C805 C802 1.387 . S
C806 C807 1.387 . S
C806 H810 0.950 . S
C806 C815 1.390 . S
C807 C806 1.387 . S
C807 C809 1.387 . S
H808 C815 0.950 . S
C809 C807 1.387 . S
C809 C811 1.390 . S
C809 H813 0.950 . S
H810 C806 0.950 . S
C811 C809 1.390 . S
C811 C812 1.387 . S
C811 H814 0.950 . S
C812 C811 1.387 . S
C812 C815 1.387 . S
H813 C809 0.950 . S
H814 C811 0.950 . S
C815 C806 1.390 . S
C815 H808 0.950 . S
C815 C812 1.387 . S
C502 C417 1.528 . S
C497 C1 1.551 . S
C507 C68 1.548 1_545 S
C512 C449 1.527 . S
C517 C93 1.553 . S
C522 C472 1.543 . S
C532 C376 1.544 . S
C527 C139 1.546 1_565 S
C542 C459 1.364 . S
C537 C8 1.531 . S
C552 C488 1.371 . S
C547 C61 1.525 1_545 S
C562 C392 1.372 . S
C557 C100 1.531 . S
C572 C427 1.361 . S
C567 C146 1.537 . S
C577 C15 1.533 . S
C582 C455 1.374 . S
C587 C192 1.528 . S
C592 C430 1.364 . S
C597 C107 1.533 . S
C602 C398 1.364 . S
C612 C487 1.374 . S
C607 C238 1.527 1_545 S
C622 C431 1.527 . S
C617 C22 1.554 . S
C627 C185 1.538 1_565 S
C632 C399 1.529 . S
C637 C114 1.553 . S
C642 C486 1.547 . S
C652 C454 1.545 . S
C647 C231 1.548 1_545 S
C657 C277 1.553 . S
C662 C481 1.528 . S
C667 C206 1.549 . S
C672 C385 1.529 . S
C677 C330 1.553 . S
C682 C408 1.547 . S
C687 C252 1.548 . S
C692 C440 1.545 . S
C702 C395 1.361 . S
C697 C284 1.535 . S
C707 C199 1.526 . S
C712 C424 1.371 . S
C717 C323 1.533 . S
C722 C456 1.374 . S
C732 C491 1.365 . S
C727 C245 1.527 . S
C737 C291 1.533 . S
C742 C391 1.372 . S
C747 C54 1.525 . S
C752 C494 1.358 . S
C757 C344 1.533 . S
C762 C462 1.360 . S
C772 C423 1.374 . S
C767 C153 1.533 . S
C782 C495 1.528 . S
C777 C298 1.551 . S
C792 C463 1.526 . S
C787 C47 1.548 . S
C802 C422 1.545 . S
C797 C337 1.551 . S
C812 C390 1.545 . S
C807 C160 1.552 . S
