# Generated by pormake.
# Topology pyr, (3,6)-cn, num edge types: 1
# Building blocks:
#     Node 0, Type 0, BuildingBlock: VETTIZ_charged_linker_0, # of connection points: 3
#     Node 1, Type 0, BuildingBlock: VETTIZ_charged_linker_0, # of connection points: 3
#     Node 2, Type 0, BuildingBlock: VETTIZ_charged_linker_0, # of connection points: 3
#     Node 3, Type 0, BuildingBlock: VETTIZ_charged_linker_0, # of connection points: 3
#     Node 4, Type 0, BuildingBlock: VETTIZ_charged_linker_0, # of connection points: 3
#     Node 5, Type 0, BuildingBlock: VETTIZ_charged_linker_0, # of connection points: 3
#     Node 6, Type 0, BuildingBlock: VETTIZ_charged_linker_0, # of connection points: 3
#     Node 7, Type 0, BuildingBlock: VETTIZ_charged_linker_0, # of connection points: 3
#     Node 8, Type 1, BuildingBlock: BETDIP_clean_sbu_0, # of connection points: 6
#     Node 9, Type 1, BuildingBlock: BETDIP_clean_sbu_0, # of connection points: 6
#     Node 10, Type 1, BuildingBlock: BETDIP_clean_sbu_0, # of connection points: 6
#     Node 11, Type 1, BuildingBlock: BETDIP_clean_sbu_0, # of connection points: 6
#     Edge 12, Type (0, 1), BuildingBlock: XUDNAN_clean_linker_2, # of connection points: 2
#     Edge 13, Type (0, 1), BuildingBlock: XUDNAN_clean_linker_2, # of connection points: 2
#     Edge 14, Type (0, 1), BuildingBlock: XUDNAN_clean_linker_2, # of connection points: 2
#     Edge 15, Type (0, 1), BuildingBlock: XUDNAN_clean_linker_2, # of connection points: 2
#     Edge 16, Type (0, 1), BuildingBlock: XUDNAN_clean_linker_2, # of connection points: 2
#     Edge 17, Type (0, 1), BuildingBlock: XUDNAN_clean_linker_2, # of connection points: 2
#     Edge 18, Type (0, 1), BuildingBlock: XUDNAN_clean_linker_2, # of connection points: 2
#     Edge 19, Type (0, 1), BuildingBlock: XUDNAN_clean_linker_2, # of connection points: 2
#     Edge 20, Type (0, 1), BuildingBlock: XUDNAN_clean_linker_2, # of connection points: 2
#     Edge 21, Type (0, 1), BuildingBlock: XUDNAN_clean_linker_2, # of connection points: 2
#     Edge 22, Type (0, 1), BuildingBlock: XUDNAN_clean_linker_2, # of connection points: 2
#     Edge 23, Type (0, 1), BuildingBlock: XUDNAN_clean_linker_2, # of connection points: 2
#     Edge 24, Type (0, 1), BuildingBlock: XUDNAN_clean_linker_2, # of connection points: 2
#     Edge 25, Type (0, 1), BuildingBlock: XUDNAN_clean_linker_2, # of connection points: 2
#     Edge 26, Type (0, 1), BuildingBlock: XUDNAN_clean_linker_2, # of connection points: 2
#     Edge 27, Type (0, 1), BuildingBlock: XUDNAN_clean_linker_2, # of connection points: 2
#     Edge 28, Type (0, 1), BuildingBlock: XUDNAN_clean_linker_2, # of connection points: 2
#     Edge 29, Type (0, 1), BuildingBlock: XUDNAN_clean_linker_2, # of connection points: 2
#     Edge 30, Type (0, 1), BuildingBlock: XUDNAN_clean_linker_2, # of connection points: 2
#     Edge 31, Type (0, 1), BuildingBlock: XUDNAN_clean_linker_2, # of connection points: 2
#     Edge 32, Type (0, 1), BuildingBlock: XUDNAN_clean_linker_2, # of connection points: 2
#     Edge 33, Type (0, 1), BuildingBlock: XUDNAN_clean_linker_2, # of connection points: 2
#     Edge 34, Type (0, 1), BuildingBlock: XUDNAN_clean_linker_2, # of connection points: 2
#     Edge 35, Type (0, 1), BuildingBlock: XUDNAN_clean_linker_2, # of connection points: 2
# Relax obj value: 0.120
# Max RMSD: 0.193
# Mean RMSD: 0.087
data_MOF--net-pyr--node1-BETDIP_clean_sbu_0--node2-VETTIZ_charged_linker_0--edge1-XUDNAN_clean_linker_2
_symmetry_space_group_name_H-M    P1
_symmetry_Int_Tables_number       1
_symmetry_cell_setting            triclinic
loop_
_symmetry_equiv_pos_as_xyz
'x, y, z'
_cell_length_a     42.950549
_cell_length_b     46.954173
_cell_length_c     46.629665
_cell_angle_alpha  88.791427
_cell_angle_beta   92.700367
_cell_angle_gamma 102.01002
loop_
_atom_site_label
_atom_site_type_symbol
_atom_site_fract_x
_atom_site_fract_y
_atom_site_fract_z
_atom_type_partial_charge
C0 C 0.3244 0.23353 0.3208 0.0
C1 C 0.29326 0.23208 0.32947 0.0
C2 C 0.27282 0.24643 0.31275 0.0
C3 C 0.31297 0.25941 0.27752 0.0
C4 C 0.33327 0.24623 0.29441 0.0
C5 C 0.36253 0.24342 0.27935 0.0
H6 H 0.43208 0.24144 0.15466 0.0
C7 C 0.32781 0.2671 0.24988 0.0
C8 C 0.35675 0.25775 0.25075 0.0
H9 H 0.46056 0.21136 0.23808 0.0
H10 H 0.42249 0.23402 0.2603 0.0
H11 H 0.42513 0.30593 0.17676 0.0
H12 H 0.35805 0.22533 0.16113 0.0
H13 H 0.34303 0.25434 0.1449 0.0
H14 H 0.37989 0.24704 0.13357 0.0
H15 H 0.40884 0.2961 0.14138 0.0
H16 H 0.38895 0.31536 0.16552 0.0
C17 C 0.39204 0.26077 0.29635 0.0
C18 C 0.36196 0.21036 0.27644 0.0
C19 C 0.26967 0.3149 0.1722 0.0
C20 C 0.27632 0.32332 0.14371 0.0
C21 C 0.30425 0.31807 0.13206 0.0
C22 C 0.32538 0.30476 0.14874 0.0
C23 C 0.31827 0.29642 0.17722 0.0
C24 C 0.29087 0.30169 0.18849 0.0
C25 C 0.28672 0.29097 0.21888 0.0
C26 C 0.31698 0.27963 0.22447 0.0
C27 C 0.3351 0.28242 0.19994 0.0
C28 C 0.2859 0.31729 0.2381 0.0
C29 C 0.25635 0.26629 0.21954 0.0
C30 C 0.43046 0.24045 0.17779 0.0
C31 C 0.44878 0.22447 0.19477 0.0
C32 C 0.44665 0.22373 0.22475 0.0
C33 C 0.42426 0.23655 0.2375 0.0
C34 C 0.40375 0.24984 0.21994 0.0
C35 C 0.40805 0.25297 0.19081 0.0
C36 C 0.38433 0.26829 0.17575 0.0
C37 C 0.36382 0.272 0.20043 0.0
C38 C 0.37503 0.26062 0.22602 0.0
C39 C 0.40256 0.2979 0.16401 0.0
C40 C 0.3653 0.24788 0.15246 0.0
H41 H 0.26591 0.27043 0.27497 0.0
H42 H 0.34102 0.22329 0.33329 0.0
H43 H 0.33714 0.19772 0.27303 0.0
H44 H 0.37439 0.2051 0.25775 0.0
H45 H 0.3723 0.20153 0.29612 0.0
H46 H 0.38632 0.27993 0.30699 0.0
H47 H 0.40071 0.24703 0.31334 0.0
H48 H 0.41182 0.27007 0.28236 0.0
H49 H 0.24801 0.318 0.18156 0.0
H50 H 0.30985 0.32448 0.11014 0.0
H51 H 0.34623 0.30119 0.13878 0.0
H52 H 0.30459 0.33639 0.2321 0.0
H53 H 0.26247 0.32377 0.23563 0.0
H54 H 0.29084 0.31309 0.26107 0.0
H55 H 0.24961 0.25652 0.19802 0.0
H56 H 0.25982 0.24771 0.23347 0.0
H57 H 0.2356 0.27453 0.22673 0.0
H58 H 0.24853 0.24552 0.31858 0.0
C59 C 0.28274 0.26048 0.28704 0.0
C60 C 0.14057 0.84099 0.68871 0.0
C61 C 0.12278 0.85832 0.70234 0.0
C62 C 0.12459 0.8602 0.73245 0.0
C63 C 0.16187 0.82812 0.73511 0.0
C64 C 0.15967 0.82579 0.70556 0.0
C65 C 0.17921 0.80525 0.69505 0.0
H66 H 0.27673 0.71172 0.72863 0.0
C67 C 0.18359 0.80982 0.74642 0.0
C68 C 0.19355 0.79594 0.72321 0.0
H69 H 0.24326 0.73401 0.64406 0.0
H70 H 0.21412 0.7671 0.66482 0.0
H71 H 0.29602 0.77371 0.74846 0.0
H72 H 0.21165 0.70878 0.76183 0.0
H73 H 0.22309 0.72606 0.79491 0.0
H74 H 0.2502 0.70777 0.77798 0.0
H75 H 0.2943 0.74778 0.77737 0.0
H76 H 0.28331 0.78247 0.78171 0.0
C77 C 0.20498 0.82265 0.67566 0.0
C78 C 0.15634 0.77955 0.67993 0.0
C79 C 0.21701 0.81377 0.85198 0.0
C80 C 0.23928 0.80127 0.86805 0.0
C81 C 0.25355 0.78057 0.85536 0.0
C82 C 0.24656 0.77318 0.82659 0.0
C83 C 0.22534 0.78687 0.81037 0.0
C84 C 0.21061 0.80645 0.82319 0.0
C85 C 0.18977 0.81969 0.80235 0.0
C86 C 0.19517 0.80533 0.77472 0.0
C87 C 0.2159 0.78621 0.77966 0.0
C88 C 0.20279 0.85308 0.80142 0.0
C89 C 0.15482 0.81039 0.81159 0.0
C90 C 0.26254 0.72328 0.71468 0.0
C91 C 0.2614 0.71994 0.68493 0.0
C92 C 0.2439 0.73617 0.66718 0.0
C93 C 0.22712 0.75527 0.67925 0.0
C94 C 0.2284 0.75831 0.70925 0.0
C95 C 0.24624 0.74266 0.72629 0.0
C96 C 0.24696 0.7499 0.75741 0.0
C97 C 0.22542 0.77158 0.75653 0.0
C98 C 0.21453 0.77651 0.72838 0.0
C99 C 0.28186 0.76403 0.76696 0.0
C100 C 0.23245 0.72175 0.77415 0.0
H101 H 0.14464 0.84776 0.77171 0.0
H102 H 0.13923 0.83901 0.66555 0.0
H103 H 0.1339 0.77308 0.69162 0.0
H104 H 0.16618 0.75967 0.67945 0.0
H105 H 0.14987 0.78561 0.65762 0.0
H106 H 0.21436 0.84487 0.68424 0.0
H107 H 0.19508 0.82509 0.65352 0.0
H108 H 0.22605 0.81272 0.67466 0.0
H109 H 0.20624 0.83023 0.86113 0.0
H110 H 0.27083 0.77079 0.86751 0.0
H111 H 0.25865 0.7577 0.81796 0.0
H112 H 0.22929 0.85809 0.8018 0.0
H113 H 0.19533 0.86374 0.82021 0.0
H114 H 0.19534 0.86366 0.78167 0.0
H115 H 0.15107 0.78986 0.82452 0.0
H116 H 0.13763 0.80547 0.79301 0.0
H117 H 0.14807 0.82735 0.82483 0.0
H118 H 0.11121 0.87366 0.74325 0.0
C119 C 0.14407 0.84523 0.7489 0.0
C120 C 0.6093 0.27175 0.90182 0.0
C121 C 0.58259 0.2526 0.88941 0.0
C122 C 0.57047 0.26031 0.86218 0.0
C123 C 0.60947 0.30584 0.86155 0.0
C124 C 0.62241 0.29784 0.88746 0.0
C125 C 0.6514 0.31988 0.89731 0.0
H126 H 0.75381 0.44848 0.87767 0.0
C127 C 0.62821 0.33471 0.8527 0.0
C128 C 0.65303 0.34281 0.8736 0.0
H129 H 0.75831 0.38306 0.94375 0.0
H130 H 0.70971 0.35363 0.92427 0.0
H131 H 0.67822 0.44457 0.87748 0.0
H132 H 0.73624 0.40282 0.8264 0.0
H133 H 0.70702 0.41307 0.80316 0.0
H134 H 0.73527 0.44073 0.82238 0.0
H135 H 0.70242 0.46368 0.84997 0.0
H136 H 0.66229 0.4439 0.84206 0.0
C137 C 0.64474 0.33179 0.92663 0.0
C138 C 0.68052 0.30503 0.89795 0.0
C139 C 0.59516 0.38794 0.76262 0.0
C140 C 0.60784 0.4153 0.74989 0.0
C141 C 0.63525 0.43273 0.76328 0.0
C142 C 0.64948 0.42352 0.78854 0.0
C143 C 0.6366 0.39632 0.80089 0.0
C144 C 0.60986 0.37896 0.788 0.0
C145 C 0.59985 0.35054 0.80427 0.0
C146 C 0.62472 0.35397 0.82913 0.0
C147 C 0.64628 0.38086 0.82687 0.0
C148 C 0.5659 0.34899 0.81474 0.0
C149 C 0.60262 0.32538 0.78427 0.0
C150 C 0.74463 0.42771 0.88789 0.0
C151 C 0.76032 0.4184 0.91253 0.0
C152 C 0.74677 0.3913 0.92517 0.0
C153 C 0.71859 0.37393 0.91356 0.0
C154 C 0.70364 0.38337 0.88873 0.0
C155 C 0.71669 0.40985 0.87631 0.0
C156 C 0.69797 0.41598 0.84955 0.0
C157 C 0.67172 0.38869 0.84782 0.0
C158 C 0.67509 0.36976 0.87095 0.0
C159 C 0.6846 0.44356 0.85472 0.0
C160 C 0.72012 0.41854 0.82391 0.0
H161 H 0.57266 0.29129 0.82813 0.0
H162 H 0.61964 0.26696 0.92251 0.0
H163 H 0.67715 0.28721 0.88201 0.0
H164 H 0.70267 0.32007 0.89187 0.0
H165 H 0.68444 0.29535 0.91942 0.0
H166 H 0.61991 0.33533 0.92665 0.0
H167 H 0.64766 0.31623 0.94433 0.0
H168 H 0.66009 0.35316 0.93169 0.0
H169 H 0.57409 0.37389 0.75326 0.0
H170 H 0.64623 0.45349 0.75397 0.0
H171 H 0.67023 0.43797 0.79738 0.0
H172 H 0.5638 0.37031 0.82358 0.0
H173 H 0.54781 0.34363 0.79678 0.0
H174 H 0.5596 0.33299 0.83225 0.0
H175 H 0.62368 0.33174 0.77075 0.0
H176 H 0.60648 0.30574 0.79614 0.0
H177 H 0.58115 0.31949 0.76965 0.0
H178 H 0.55089 0.24586 0.85113 0.0
C179 C 0.58343 0.28676 0.84848 0.0
C180 C 0.93819 0.79224 0.37051 0.0
C181 C 0.931 0.80402 0.39656 0.0
C182 C 0.90801 0.787 0.41373 0.0
C183 C 0.89829 0.74808 0.37887 0.0
C184 C 0.92188 0.7639 0.36238 0.0
C185 C 0.92696 0.74664 0.33639 0.0
H186 H 0.88619 0.62008 0.25899 0.0
C187 C 0.88445 0.72028 0.36417 0.0
C188 C 0.90123 0.71875 0.33934 0.0
H189 H 0.96188 0.69479 0.24427 0.0
H190 H 0.94566 0.71962 0.28361 0.0
H191 H 0.89035 0.61938 0.33048 0.0
H192 H 0.83258 0.66301 0.27282 0.0
H193 H 0.81005 0.6442 0.30061 0.0
H194 H 0.82627 0.62396 0.27475 0.0
H195 H 0.86103 0.59952 0.30543 0.0
H196 H 0.84959 0.61143 0.33897 0.0
C197 C 0.96096 0.74051 0.33969 0.0
C198 C 0.92106 0.76427 0.30906 0.0
C199 C 0.78583 0.65882 0.40579 0.0
C200 C 0.76306 0.63425 0.3969 0.0
C201 C 0.76946 0.61925 0.37253 0.0
C202 C 0.79719 0.62962 0.35677 0.0
C203 C 0.81877 0.65538 0.36529 0.0
C204 C 0.81263 0.66915 0.38969 0.0
C205 C 0.8364 0.69669 0.39571 0.0
C206 C 0.85788 0.69798 0.3707 0.0
C207 C 0.84815 0.67363 0.35282 0.0
C208 C 0.85424 0.69265 0.42481 0.0
C209 C 0.81822 0.72213 0.39471 0.0
C210 C 0.8992 0.64181 0.26417 0.0
C211 C 0.92619 0.65484 0.24857 0.0
C212 C 0.94186 0.68347 0.25617 0.0
C213 C 0.93238 0.69808 0.2792 0.0
C214 C 0.90657 0.68436 0.29534 0.0
C215 C 0.88988 0.65691 0.28738 0.0
C216 C 0.86203 0.64651 0.30648 0.0
C217 C 0.86608 0.6712 0.32809 0.0
C218 C 0.89235 0.69363 0.32131 0.0
C219 C 0.86572 0.61756 0.32113 0.0
C220 C 0.83094 0.64405 0.2878 0.0
H221 H 0.87402 0.74823 0.41909 0.0
H222 H 0.95612 0.80467 0.35703 0.0
H223 H 0.89927 0.7733 0.31087 0.0
H224 H 0.91692 0.75091 0.28953 0.0
H225 H 0.94141 0.7828 0.30579 0.0
H226 H 0.96651 0.73466 0.36233 0.0
H227 H 0.97904 0.76002 0.33368 0.0
H228 H 0.96406 0.72186 0.32697 0.0
H229 H 0.78249 0.67062 0.42474 0.0
H230 H 0.75255 0.60012 0.36511 0.0
H231 H 0.80057 0.6175 0.33829 0.0
H232 H 0.8547 0.66935 0.42922 0.0
H233 H 0.84265 0.70053 0.44299 0.0
H234 H 0.87969 0.70368 0.42511 0.0
H235 H 0.7978 0.71795 0.37868 0.0
H236 H 0.83283 0.7431 0.38774 0.0
H237 H 0.80853 0.72501 0.41588 0.0
H238 H 0.90193 0.79549 0.43369 0.0
C239 C 0.89168 0.75941 0.40507 0.0
C240 C 0.73408 0.75016 0.92166 0.0
C241 C 0.76275 0.74433 0.91226 0.0
C242 C 0.77345 0.7549 0.88515 0.0
C243 C 0.72803 0.77738 0.87771 0.0
C244 C 0.71708 0.76663 0.90399 0.0
C245 C 0.68657 0.77563 0.91071 0.0
H246 H 0.57932 0.85845 0.87414 0.0
C247 C 0.70572 0.79444 0.865 0.0
C248 C 0.68096 0.79312 0.8839 0.0
H249 H 0.58588 0.80934 0.95265 0.0
H250 H 0.62726 0.78811 0.93319 0.0
H251 H 0.5893 0.80969 0.82907 0.0
H252 H 0.64882 0.88173 0.87282 0.0
H253 H 0.66428 0.88227 0.83878 0.0
H254 H 0.62379 0.88626 0.84192 0.0
H255 H 0.5917 0.84669 0.81742 0.0
H256 H 0.61806 0.82486 0.80448 0.0
C257 C 0.66018 0.74789 0.91375 0.0
C258 C 0.6931 0.7948 0.93785 0.0
C259 C 0.73468 0.85575 0.77589 0.0
C260 C 0.71964 0.87569 0.76077 0.0
C261 C 0.68874 0.87801 0.76757 0.0
C262 C 0.67359 0.86169 0.79016 0.0
C263 C 0.68968 0.84313 0.80622 0.0
C264 C 0.71926 0.8397 0.79848 0.0
C265 C 0.73265 0.81897 0.81805 0.0
C266 C 0.70661 0.81146 0.83951 0.0
C267 C 0.68186 0.82593 0.83253 0.0
C268 C 0.73573 0.79217 0.80033 0.0
C269 C 0.76446 0.8358 0.83209 0.0
C270 C 0.58908 0.84245 0.88677 0.0
C271 C 0.57974 0.83547 0.91479 0.0
C272 C 0.59286 0.81479 0.93086 0.0
C273 C 0.61714 0.80294 0.91971 0.0
C274 C 0.62839 0.81235 0.89252 0.0
C275 C 0.61371 0.8312 0.87632 0.0
C276 C 0.62992 0.84089 0.84908 0.0
C277 C 0.65679 0.8246 0.85133 0.0
C278 C 0.65609 0.8081 0.87683 0.0
C279 C 0.60613 0.83027 0.82355 0.0
C280 C 0.64225 0.87448 0.85037 0.0
H281 H 0.76573 0.77877 0.84756 0.0
H282 H 0.72512 0.74214 0.94227 0.0
H283 H 0.71731 0.80903 0.9378 0.0
H284 H 0.67675 0.80994 0.9392 0.0
H285 H 0.69177 0.78117 0.95769 0.0
H286 H 0.66264 0.73136 0.89772 0.0
H287 H 0.66158 0.73788 0.93544 0.0
H288 H 0.636 0.75203 0.90953 0.0
H289 H 0.75853 0.85363 0.77112 0.0
H290 H 0.67655 0.89287 0.75574 0.0
H291 H 0.65042 0.86501 0.79483 0.0
H292 H 0.71852 0.7889 0.78149 0.0
H293 H 0.76 0.79472 0.79206 0.0
H294 H 0.72998 0.77155 0.81277 0.0
H295 H 0.7624 0.85815 0.838 0.0
H296 H 0.77154 0.82577 0.85228 0.0
H297 H 0.78417 0.8379 0.81709 0.0
H298 H 0.79571 0.7512 0.87756 0.0
C299 C 0.75614 0.77116 0.86779 0.0
C300 C 0.91577 0.25573 0.41336 0.0
C301 C 0.93444 0.23542 0.40714 0.0
C302 C 0.93764 0.2288 0.37819 0.0
C303 C 0.89937 0.2578 0.36313 0.0
C304 C 0.89814 0.26633 0.39112 0.0
C305 C 0.87348 0.28452 0.39436 0.0
H306 H 0.75013 0.33682 0.33343 0.0
C307 C 0.87478 0.26874 0.3458 0.0
C308 C 0.85979 0.2849 0.36376 0.0
H309 H 0.78405 0.3427 0.4224 0.0
H310 H 0.82791 0.32058 0.411 0.0
H311 H 0.74982 0.27595 0.32945 0.0
H312 H 0.81922 0.34946 0.3027 0.0
H313 H 0.81405 0.32368 0.27503 0.0
H314 H 0.7803 0.33746 0.28595 0.0
H315 H 0.74778 0.29067 0.29389 0.0
H316 H 0.76868 0.26172 0.30234 0.0
C317 C 0.84849 0.26843 0.41528 0.0
C318 C 0.89074 0.31522 0.40422 0.0
C319 C 0.8427 0.22727 0.24711 0.0
C320 C 0.81583 0.22801 0.22895 0.0
C321 C 0.79723 0.24875 0.23398 0.0
C322 C 0.80408 0.267 0.25765 0.0
C323 C 0.829 0.26382 0.27715 0.0
C324 C 0.84834 0.24478 0.27138 0.0
C325 C 0.872 0.24257 0.29565 0.0
C326 C 0.86314 0.26308 0.31713 0.0
C327 C 0.83785 0.2752 0.30616 0.0
C328 C 0.86528 0.21048 0.30661 0.0
C329 C 0.90596 0.2538 0.28473 0.0
C330 C 0.76687 0.33338 0.3506 0.0
C331 C 0.76326 0.34124 0.37888 0.0
C332 C 0.78625 0.33697 0.40033 0.0
C333 C 0.81151 0.3238 0.39375 0.0
C334 C 0.81335 0.31425 0.36563 0.0
C335 C 0.79135 0.31942 0.34465 0.0
C336 C 0.79474 0.3057 0.31663 0.0
C337 C 0.82323 0.2922 0.32384 0.0
C338 C 0.8341 0.29713 0.35253 0.0
C339 C 0.76376 0.28244 0.30999 0.0
C340 C 0.80228 0.33019 0.29366 0.0
H341 H 0.92299 0.23336 0.33478 0.0
H342 H 0.91329 0.26182 0.43527 0.0
H343 H 0.91327 0.32248 0.39283 0.0
H344 H 0.87665 0.33199 0.39924 0.0
H345 H 0.89689 0.31531 0.42763 0.0
H346 H 0.84417 0.24445 0.41228 0.0
H347 H 0.85672 0.27295 0.43798 0.0
H348 H 0.82486 0.27393 0.41169 0.0
H349 H 0.85791 0.21206 0.2436 0.0
H350 H 0.7761 0.24982 0.22076 0.0
H351 H 0.78854 0.28171 0.26063 0.0
H352 H 0.83918 0.20139 0.30662 0.0
H353 H 0.87594 0.19652 0.29266 0.0
H354 H 0.87385 0.20782 0.32893 0.0
H355 H 0.90593 0.26995 0.26692 0.0
H356 H 0.92256 0.2656 0.30146 0.0
H357 H 0.91596 0.23569 0.27656 0.0
H358 H 0.95152 0.21314 0.37251 0.0
C359 C 0.92055 0.24022 0.35619 0.0
C360 C 0.43141 0.67618 0.30712 0.0
C361 C 0.41931 0.64893 0.32045 0.0
C362 C 0.39128 0.63143 0.30817 0.0
C363 C 0.38859 0.66707 0.27012 0.0
C364 C 0.41571 0.68477 0.28202 0.0
C365 C 0.4249 0.71289 0.2649 0.0
H366 H 0.3921 0.79432 0.14779 0.0
C367 C 0.37814 0.68156 0.24388 0.0
C368 C 0.39947 0.70854 0.24042 0.0
H369 H 0.46651 0.82071 0.21319 0.0
H370 H 0.45138 0.77343 0.237 0.0
H371 H 0.33875 0.76701 0.19056 0.0
H372 H 0.4025 0.73207 0.13999 0.0
H373 H 0.36779 0.70476 0.14049 0.0
H374 H 0.36609 0.73995 0.12475 0.0
H375 H 0.33508 0.76464 0.15214 0.0
H376 H 0.31627 0.7352 0.17484 0.0
C377 C 0.42223 0.73843 0.28431 0.0
C378 C 0.45862 0.71492 0.25387 0.0
C379 C 0.27862 0.6318 0.18508 0.0
C380 C 0.26461 0.63869 0.15841 0.0
C381 C 0.27984 0.66403 0.14367 0.0
C382 C 0.30712 0.68243 0.15541 0.0
C383 C 0.32031 0.6755 0.18211 0.0
C384 C 0.30657 0.65021 0.1962 0.0
C385 C 0.32559 0.64544 0.22332 0.0
C386 C 0.35232 0.67254 0.2235 0.0
C387 C 0.34868 0.69016 0.1995 0.0
C388 C 0.30392 0.64484 0.24903 0.0
C389 C 0.33834 0.61718 0.2198 0.0
C390 C 0.40506 0.79029 0.16744 0.0
C391 C 0.43015 0.81171 0.17878 0.0
C392 C 0.44695 0.80474 0.20391 0.0
C393 C 0.43793 0.77735 0.21787 0.0
C394 C 0.4118 0.75662 0.20664 0.0
C395 C 0.3962 0.76349 0.18162 0.0
C396 C 0.36889 0.73975 0.17228 0.0
C397 C 0.36986 0.71741 0.19599 0.0
C398 C 0.39511 0.72694 0.21626 0.0
C399 C 0.33803 0.75209 0.17219 0.0
C400 C 0.37637 0.72855 0.14279 0.0
H401 H 0.35496 0.6257 0.27531 0.0
H402 H 0.45282 0.69035 0.31576 0.0
H403 H 0.46071 0.69384 0.24449 0.0
H404 H 0.46437 0.73144 0.23671 0.0
H405 H 0.47697 0.7201 0.27165 0.0
H406 H 0.39974 0.73322 0.29604 0.0
H407 H 0.44243 0.74284 0.30049 0.0
H408 H 0.42147 0.75864 0.2721 0.0
H409 H 0.26813 0.61266 0.19731 0.0
H410 H 0.27108 0.66973 0.12265 0.0
H411 H 0.31688 0.70142 0.14307 0.0
H412 H 0.28942 0.66186 0.2463 0.0
H413 H 0.28723 0.62343 0.25085 0.0
H414 H 0.31743 0.64968 0.26969 0.0
H415 H 0.34193 0.61326 0.19685 0.0
H416 H 0.36205 0.61827 0.23054 0.0
H417 H 0.32145 0.59784 0.22797 0.0
H418 H 0.3806 0.61087 0.31805 0.0
C419 C 0.37609 0.64023 0.28329 0.0
C420 C 0.09353 0.26246 0.70478 0.0
C421 C 0.10172 0.2485 0.6801 0.0
C422 C 0.12802 0.26338 0.66493 0.0
C423 C 0.13749 0.30377 0.69814 0.0
C424 C 0.11154 0.29021 0.71317 0.0
C425 C 0.10619 0.30907 0.73799 0.0
H426 H 0.15358 0.43888 0.80997 0.0
C427 C 0.15131 0.33226 0.71153 0.0
C428 C 0.13316 0.33605 0.73496 0.0
H429 H 0.07447 0.36907 0.82978 0.0
H430 H 0.0876 0.3407 0.79081 0.0
H431 H 0.14042 0.43584 0.74033 0.0
H432 H 0.20476 0.3974 0.79571 0.0
H433 H 0.22484 0.4158 0.76631 0.0
H434 H 0.20868 0.43616 0.79199 0.0
H435 H 0.17401 0.4578 0.75934 0.0
H436 H 0.17824 0.44139 0.72554 0.0
C437 C 0.07304 0.31662 0.73317 0.0
C438 C 0.10993 0.29233 0.76633 0.0
C439 C 0.249 0.39253 0.66672 0.0
C440 C 0.26673 0.42122 0.66962 0.0
C441 C 0.25869 0.43811 0.69192 0.0
C442 C 0.23323 0.42678 0.71005 0.0
C443 C 0.21508 0.3983 0.70576 0.0
C444 C 0.22327 0.38207 0.68409 0.0
C445 C 0.20065 0.35339 0.68028 0.0
C446 C 0.17796 0.35409 0.70404 0.0
C447 C 0.18627 0.38024 0.71931 0.0
C448 C 0.18378 0.35371 0.65001 0.0
C449 C 0.21985 0.32899 0.68537 0.0
C450 C 0.13872 0.41761 0.80598 0.0
C451 C 0.11257 0.40667 0.8233 0.0
C452 C 0.0948 0.37832 0.81726 0.0
C453 C 0.10232 0.36187 0.79433 0.0
C454 C 0.12801 0.37361 0.7769 0.0
C455 C 0.14584 0.40107 0.78317 0.0
C456 C 0.17226 0.4106 0.76263 0.0
C457 C 0.16785 0.38444 0.74308 0.0
C458 C 0.14159 0.36252 0.75122 0.0
C459 C 0.16623 0.43798 0.7461 0.0
C460 C 0.20446 0.41545 0.77993 0.0
H461 H 0.16575 0.29945 0.66131 0.0
H462 H 0.07373 0.25218 0.71743 0.0
H463 H 0.13171 0.28299 0.76642 0.0
H464 H 0.11268 0.3064 0.78529 0.0
H465 H 0.08913 0.2741 0.76906 0.0
H466 H 0.06983 0.32437 0.71074 0.0
H467 H 0.05387 0.29718 0.73689 0.0
H468 H 0.06959 0.33423 0.74716 0.0
H469 H 0.25448 0.37809 0.65081 0.0
H470 H 0.27151 0.46031 0.69502 0.0
H471 H 0.22826 0.4408 0.72639 0.0
H472 H 0.18367 0.37627 0.64224 0.0
H473 H 0.19581 0.34328 0.63383 0.0
H474 H 0.15822 0.34304 0.64986 0.0
H475 H 0.23909 0.33529 0.70227 0.0
H476 H 0.20528 0.30839 0.69336 0.0
H477 H 0.23123 0.32461 0.66549 0.0
H478 H 0.13482 0.25476 0.64541 0.0
C479 C 0.14593 0.29024 0.67396 0.0
Tb480 Tb 0.97845 1.02023 0.54365 0.0
Tb481 Tb 0.0442 0.03274 0.52908 0.0
C482 C 0.92126 0.99526 0.54511 0.0
C483 C 0.89901 0.98798 0.56802 0.0
C484 C 0.87374 0.964 0.56492 0.0
C485 C 0.85277 0.95627 0.58696 0.0
C486 C 0.85694 0.97253 0.61231 0.0
C487 C 0.88228 0.99662 0.61535 0.0
C488 C 0.90331 1.00424 0.59335 0.0
C489 C 1.00551 0.06359 0.57839 0.0
C490 C 0.02828 0.99302 0.58116 0.0
C491 C 0.09902 0.0488 0.51125 0.0
C492 C 0.12133 0.0745 0.50152 0.0
C493 C 0.11258 0.09297 0.47992 0.0
C494 C 0.13604 0.11319 0.4666 0.0
C495 C 0.16826 0.11507 0.4749 0.0
C496 C 0.17647 0.09846 0.49832 0.0
C497 C 0.15311 0.07816 0.51144 0.0
C498 C 1.00852 0.9844 0.50639 0.0
C499 C 0.99893 0.07162 0.5036 0.0
O500 O 0.94466 0.98121 0.5461 0.0
O501 O 0.93065 1.02311 0.5396 0.0
O502 O 0.01999 0.05215 0.56004 0.0
O503 O 0.97615 0.05006 0.57786 0.0
O504 O 0.99827 0.99018 0.57194 0.0
O505 O 0.05114 1.01218 0.56969 0.0
O506 O 0.093 0.04734 0.53855 0.0
O507 O 0.07381 0.03949 0.49449 0.0
O508 O 1.00164 1.00908 0.50755 0.0
O509 O 0.03599 0.98596 0.51923 0.0
O510 O 0.02828 0.07174 0.51321 0.0
O511 O 0.97608 0.04885 0.50759 0.0
H512 H 0.87034 0.9512 0.54553 0.0
H513 H 0.83322 0.93767 0.58417 0.0
H514 H 0.88615 1.00918 0.6349 0.0
H515 H 0.92293 1.02268 0.59623 0.0
H516 H 0.088 0.09058 0.47214 0.0
H517 H 0.12917 0.12574 0.44851 0.0
H518 H 0.20116 0.09996 0.50535 0.0
H519 H 0.16011 0.06409 0.52818 0.0
Tb520 Tb 0.54317 0.04011 0.04292 0.0
Tb521 Tb 0.47023 0.03323 1.03586 0.0
C522 C 0.60141 0.06031 0.03949 0.0
C523 C 0.62723 0.07246 0.06017 0.0
C524 C 0.62332 0.09342 0.07999 0.0
C525 C 0.64859 0.10596 0.09845 0.0
C526 C 0.67797 0.09747 0.09761 0.0
C527 C 0.68153 0.07571 0.07862 0.0
C528 C 0.65629 0.06337 0.05986 0.0
C529 C 0.51325 0.99711 0.07681 0.0
C530 C 0.50552 0.07013 0.08604 0.0
C531 C 0.41124 1.01803 1.02783 0.0
C532 C 0.38956 0.99035 1.02209 0.0
C533 C 0.40081 0.96437 1.02336 0.0
C534 C 0.38069 0.93831 1.01527 0.0
C535 C 0.34907 0.93798 1.00597 0.0
C536 C 0.33764 0.96395 1.0056 0.0
C537 C 0.35787 0.99004 1.01356 0.0
C538 C 0.50522 0.0805 1.01192 0.0
C539 C 0.50593 0.99346 1.00198 0.0
O540 O 0.5795 0.07578 1.03475 0.0
O541 O 0.58951 0.03235 0.04209 0.0
O542 O 0.50245 1.01437 0.06026 0.0
O543 O 0.54397 1.00458 0.07551 0.0
O544 O 0.53301 0.07061 0.07409 0.0
O545 O 0.47845 0.05305 0.07726 0.0
O546 O 0.42552 1.02039 0.05341 0.0
O547 O 0.43064 1.02756 1.00722 0.0
O548 O 0.51074 0.05507 1.01233 0.0
O549 O 0.47873 0.07919 1.0244 0.0
O550 O 0.47976 0.99502 1.0151 0.0
O551 O 0.53251 1.01319 1.00552 0.0
H552 H 0.60093 0.10047 0.08101 0.0
H553 H 0.64524 0.12239 0.11331 0.0
H554 H 0.70407 0.0689 0.07771 0.0
H555 H 0.65958 0.04705 0.04485 0.0
H556 H 0.42527 0.96433 1.02997 0.0
H557 H 0.38997 0.91853 1.01577 0.0
H558 H 0.3135 0.9643 0.998 0.0
H559 H 0.34904 1.01006 1.01232 0.0
Tb560 Tb 0.51248 0.56184 0.5488 0.0
Tb561 Tb 0.5165 0.50088 0.51977 0.0
C562 C 0.49549 0.609 0.55371 0.0
C563 C 0.47441 0.6201 0.57218 0.0
C564 C 0.45656 0.63945 0.56024 0.0
C565 C 0.43244 0.64689 0.57549 0.0
C566 C 0.42601 0.63534 0.60318 0.0
C567 C 0.44461 0.61645 0.61541 0.0
C568 C 0.46851 0.60866 0.59988 0.0
C569 C 0.53478 0.5253 0.5852 0.0
C570 C 0.45702 0.50544 0.55792 0.0
C571 C 0.53339 0.45367 0.51483 0.0
C572 C 0.55326 0.44181 0.49553 0.0
C573 C 0.57708 0.42839 0.50762 0.0
C574 C 0.59772 0.41835 0.49008 0.0
C575 C 0.59465 0.42139 0.46014 0.0
C576 C 0.57074 0.4348 0.44798 0.0
C577 C 0.55027 0.44518 0.4656 0.0
C578 C 0.49459 0.53761 0.48327 0.0
C579 C 0.57115 0.55761 0.50937 0.0
O580 O 0.48052 0.58805 0.53684 0.0
O581 O 0.5223 0.60396 0.56556 0.0
O582 O 0.52554 0.52236 0.55925 0.0
O583 O 0.53237 0.55155 0.59188 0.0
O584 O 0.46738 0.53397 0.56153 0.0
O585 O 0.47252 0.48889 0.54347 0.0
O586 O 0.54911 0.47496 0.53097 0.0
O587 O 0.50588 0.45832 0.50422 0.0
O588 O 0.50325 0.54025 0.50938 0.0
O589 O 0.49747 0.51152 0.4764 0.0
O590 O 0.5617 0.52882 0.50698 0.0
O591 O 0.55521 0.57395 0.52361 0.0
H592 H 0.46039 0.64785 0.53857 0.0
H593 H 0.41812 0.66089 0.56509 0.0
H594 H 0.44049 0.60742 0.63679 0.0
H595 H 0.48171 0.59315 0.60914 0.0
H596 H 0.57989 0.42592 0.5307 0.0
H597 H 0.6158 0.40782 0.49991 0.0
H598 H 0.56815 0.43755 0.42493 0.0
H599 H 0.53237 0.45597 0.45586 0.0
Tb600 Tb 0.01491 0.55563 1.01891 0.0
Tb601 Tb 1.0107 0.50006 0.05097 0.0
C602 C 1.00331 0.5994 0.9919 0.0
C603 C 0.97949 0.61754 0.99216 0.0
C604 C 0.97795 0.6373 0.96954 0.0
C605 C 0.95323 0.65242 0.96741 0.0
C606 C 0.9297 0.64796 0.98794 0.0
C607 C 0.93199 0.62898 1.01125 0.0
C608 C 0.95667 0.6137 1.01325 0.0
C609 C 0.06918 0.55024 0.04579 0.0
C610 C 0.98729 0.55004 0.08195 0.0
C611 C 0.02143 0.45554 0.07723 0.0
C612 C 0.04565 0.43778 0.07661 0.0
C613 C 0.05293 0.42328 0.10175 0.0
C614 C 0.07839 0.40906 0.1029 0.0
C615 C 0.09711 0.40927 0.07891 0.0
C616 C 0.08903 0.42294 0.05336 0.0
C617 C 0.06349 0.43718 0.05225 0.0
C618 C 0.95703 0.5057 1.02308 0.0
C619 C 0.04058 0.50691 0.98829 0.0
O620 O 0.99227 0.57255 0.98388 0.0
O621 O 0.02321 0.6011 1.01421 0.0
O622 O 0.0415 0.5418 0.05475 0.0
O623 O 0.06691 0.56425 1.02181 0.0
O624 O 0.98784 0.56312 0.05643 0.0
O625 O 0.99813 0.52578 0.08569 0.0
O626 O 0.03203 0.4821 0.0862 0.0
O627 O 1.00186 0.45448 0.05475 0.0
O628 O 0.98499 0.51365 1.01481 0.0
O629 O 0.95846 0.49277 0.04781 0.0
O630 O 0.03843 0.49279 1.0134 0.0
O631 O 0.03037 0.5315 0.98489 0.0
H632 H 0.99535 0.6404 0.95305 0.0
H633 H 0.95215 0.6672 0.9494 0.0
H634 H 0.914 0.62504 1.0272 0.0
H635 H 0.95732 0.5983 1.03071 0.0
H636 H 0.03943 0.4236 0.12076 0.0
H637 H 0.08374 0.39825 0.12272 0.0
H638 H 0.10312 0.42356 1.03461 0.0
H639 H 0.05829 0.44829 1.03264 0.0
H640 H 0.2481 0.23905 0.36734 0.0
H641 H 0.30949 0.1804 0.3456 0.0
H642 H 0.28783 0.14718 0.38421 0.0
H643 H 0.24617 0.22566 0.44401 0.0
H644 H 0.20419 0.22531 0.44525 0.0
H645 H 0.2276 0.24696 0.41843 0.0
H646 H 0.18891 0.22083 0.37827 0.0
H647 H 0.16535 0.19918 0.40494 0.0
H648 H 0.18101 0.18166 0.3765 0.0
H649 H 0.25798 0.11886 0.42231 0.0
H650 H 0.21849 0.09502 0.45637 0.0
H651 H 0.17325 0.16967 0.45123 0.0
C652 C 0.25719 0.21935 0.37071 0.0
C653 C 0.28121 0.21292 0.35381 0.0
C654 C 0.29216 0.18666 0.35895 0.0
C655 C 0.27977 0.16739 0.38069 0.0
C656 C 0.25603 0.17435 0.39669 0.0
C657 C 0.24449 0.19943 0.39179 0.0
C658 C 0.21656 0.20014 0.41012 0.0
C659 C 0.2241 0.22606 0.43068 0.0
C660 C 0.18617 0.20046 0.39134 0.0
C661 C 0.21441 0.17154 0.42612 0.0
C662 C 0.23764 0.15722 0.41818 0.0
C663 C 0.23991 0.12994 0.42907 0.0
C664 C 0.21755 0.11673 0.44853 0.0
C665 C 0.1933 0.13084 0.45672 0.0
C666 C 0.19181 0.15863 0.44548 0.0
H667 H 0.30065 0.82032 0.88625 0.0
H668 H 0.20341 0.81057 0.91235 0.0
H669 H 0.2228 0.83901 0.95596 0.0
H670 H 0.34026 0.82072 0.96026 0.0
H671 H 0.37363 0.84831 0.94954 0.0
H672 H 0.35287 0.82211 0.92383 0.0
H673 H 0.34336 0.86411 0.88991 0.0
H674 H 0.36378 0.89039 0.91544 0.0
H675 H 0.32363 0.8913 0.90297 0.0
H676 H 0.25108 0.87466 0.99127 0.0
H677 H 0.2868 0.91526 1.01671 0.0
H678 H 0.36553 0.90195 0.96727 0.0
C679 C 0.28363 0.82299 0.90189 0.0
C680 C 0.25068 0.81289 0.89648 0.0
C681 C 0.22881 0.81793 0.91653 0.0
C682 C 0.23961 0.8339 0.94131 0.0
C683 C 0.27226 0.84441 0.94561 0.0
C684 C 0.29402 0.83902 0.92656 0.0
C685 C 0.32722 0.85607 0.93394 0.0
C686 C 0.34983 0.83557 0.94241 0.0
C687 C 0.34022 0.87668 0.9091 0.0
C688 C 0.32048 0.87273 0.95949 0.0
C689 C 0.28875 0.86538 0.96612 0.0
C690 C 0.27615 0.8801 0.98687 0.0
C691 C 0.29647 0.90318 1.00102 0.0
C692 C 0.32885 0.91129 0.99415 0.0
C693 C 0.34108 0.8955 0.97355 0.0
H694 H 0.60321 0.47161 0.73455 0.0
H695 H 0.57954 0.38307 0.70296 0.0
H696 H 0.55824 0.40096 0.6574 0.0
H697 H 0.53555 0.49591 0.70193 0.0
H698 H 0.55806 0.53182 0.69385 0.0
H699 H 0.57007 0.51162 0.72417 0.0
H700 H 0.62629 0.51746 0.70407 0.0
H701 H 0.61443 0.53747 0.67354 0.0
H702 H 0.63026 0.5054 0.66823 0.0
H703 H 0.53941 0.4296 0.61427 0.0
H704 H 0.52477 0.46558 0.57926 0.0
H705 H 0.56421 0.53515 0.63826 0.0
C706 C 0.59382 0.45584 0.71808 0.0
C707 C 0.59331 0.42577 0.72265 0.0
C708 C 0.57998 0.40612 0.70043 0.0
C709 C 0.568 0.41615 0.67427 0.0
C710 C 0.56945 0.44598 0.67042 0.0
C711 C 0.58199 0.46547 0.69184 0.0
C712 C 0.58118 0.49646 0.68247 0.0
C713 C 0.55995 0.50973 0.70175 0.0
C714 C 0.61505 0.51531 0.68205 0.0
C715 C 0.56636 0.49152 0.65235 0.0
C716 C 0.55961 0.46227 0.64571 0.0
C717 C 0.54507 0.45256 0.61922 0.0
C718 C 0.53723 0.47322 0.59921 0.0
C719 C 0.5443 0.50332 0.60551 0.0
C720 C 0.55894 0.51236 0.63255 0.0
H721 H 0.89469 0.61634 0.20535 0.0
H722 H 0.98901 0.65672 0.23951 0.0
H723 H 1.01312 0.63493 0.20117 0.0
H724 H 0.91723 0.54808 0.18431 0.0
H725 H 0.8919 0.54377 0.1521 0.0
H726 H 0.88122 0.56218 0.18254 0.0
H727 H 0.87813 0.60716 0.15042 0.0
H728 H 0.88897 0.58896 0.11993 0.0
H729 H 0.91214 0.62406 0.13038 0.0
H730 H 0.02824 0.60992 0.15903 0.0
H731 H 0.03315 0.58178 0.11592 0.0
H732 H 0.93029 0.5559 0.10677 0.0
C733 C 0.9204 0.6204 0.20491 0.0
C734 C 0.93972 0.63901 0.22558 0.0
C735 C 0.97335 0.64345 0.22386 0.0
C736 C 0.98745 0.6309 0.20212 0.0
C737 C 0.96793 0.6134 0.1819 0.0
C738 C 0.93513 0.60784 0.18307 0.0
C739 C 0.92007 0.58792 0.15834 0.0
C740 C 0.9015 0.55875 0.17002 0.0
C741 C 0.89855 0.60293 0.1386 0.0
C742 C 0.94951 0.58372 0.14295 0.0
C743 C 0.9768 0.59857 0.15725 0.0
C744 C 1.00702 0.59814 0.14773 0.0
C745 C 1.00961 0.58207 0.12318 0.0
C746 C 0.98228 0.5666 0.10791 0.0
C747 C 0.95168 0.56754 0.11794 0.0
H748 H 0.42218 0.18417 0.15597 0.0
H749 H 0.5105 0.21784 0.20417 0.0
H750 H 0.53519 0.18039 0.1826 0.0
H751 H 0.42523 0.10912 0.16395 0.0
H752 H 0.40794 0.09979 0.12854 0.0
H753 H 0.39813 0.12972 0.14718 0.0
H754 H 0.41646 0.1642 0.10424 0.0
H755 H 0.42609 0.13428 0.08548 0.0
H756 H 0.45598 0.16698 0.09152 0.0
H757 H 0.55013 0.14024 0.15394 0.0
H758 H 0.5535 0.09949 0.12199 0.0
H759 H 0.45364 0.09164 0.09623 0.0
C760 C 0.44692 0.18398 0.16157 0.0
C761 C 0.46489 0.20409 0.18104 0.0
C762 C 0.49674 0.2027 0.18884 0.0
C763 C 0.51079 0.18156 0.17682 0.0
C764 C 0.4923 0.16193 0.15763 0.0
C765 C 0.46098 0.16291 0.15025 0.0
C766 C 0.44579 0.1391 0.12978 0.0
C767 C 0.41762 0.1182 0.14319 0.0
C768 C 0.4355 0.15191 0.10106 0.0
C769 C 0.47358 0.12463 0.12656 0.0
C770 C 0.50029 0.1381 0.14256 0.0
C771 C 0.52927 0.12926 0.14161 0.0
C772 C 0.53097 0.10618 0.12352 0.0
C773 C 0.5037 0.0922 0.1072 0.0
C774 C 0.47469 0.1014 0.10908 0.0
H775 H 0.14009 0.89601 0.65783 0.0
H776 H 0.06041 0.85833 0.70986 0.0
H777 H 0.02742 0.88905 0.68445 0.0
H778 H 0.12714 0.96827 0.65741 0.0
H779 H 0.13845 0.97628 0.6209 0.0
H780 H 0.15521 0.95005 0.64185 0.0
H781 H 0.1354 0.91113 0.60288 0.0
H782 H 0.11889 0.93737 0.58168 0.0
H783 H 0.09386 0.90308 0.5914 0.0
H784 H 1.00349 0.92382 0.65407 0.0
H785 H 0.98982 0.96104 0.62024 0.0
H786 H 0.08592 0.97761 0.58958 0.0
C787 C 0.11552 0.89396 0.66344 0.0
C788 C 0.10254 0.87483 0.68555 0.0
C789 C 0.07059 0.87297 0.6929 0.0
C790 C 0.05176 0.89026 0.67863 0.0
C791 C 0.0654 0.90932 0.65726 0.0
C792 C 0.09651 0.9113 0.64964 0.0
C793 C 0.10566 0.9343 0.62662 0.0
C794 C 0.13324 0.95867 0.63735 0.0
C795 C 0.11392 0.92065 0.59901 0.0
C796 C 0.07482 0.94499 0.62263 0.0
C797 C 0.05186 0.93015 0.64036 0.0
C798 C 0.02123 0.9357 0.6401 0.0
C799 C 1.0137 0.95684 0.6209 0.0
C800 C 0.03687 0.97229 0.60259 0.0
C801 C 0.06787 0.96643 0.60369 0.0
H802 H 0.78251 0.42405 0.9694 0.0
H803 H 0.80861 0.45298 0.88301 0.0
H804 H 0.85957 0.48156 0.9025 0.0
H805 H 0.81964 0.49005 1.00648 0.0
H806 H 0.83338 0.47114 1.03701 0.0
H807 H 0.7978 0.45448 1.01664 0.0
H808 H 0.82164 0.40916 1.00818 0.0
H809 H 0.85714 0.42552 1.02876 0.0
H810 H 0.86002 0.41381 0.99259 0.0
H811 H 0.90906 0.50544 0.9311 0.0
H812 H 0.95389 0.52079 0.96632 0.0
H813 H 0.89672 0.47505 1.03388 0.0
C814 C 0.79886 0.43625 0.95443 0.0
C815 C 0.79103 0.43629 0.92454 0.0
C816 C 0.81335 0.45298 0.90601 0.0
C817 C 0.8426 0.4692 0.91687 0.0
C818 C 0.84949 0.46851 0.94635 0.0
C819 C 0.82833 0.45233 0.96486 0.0
C820 C 0.84217 0.45413 0.99548 0.0
C821 C 0.82204 0.4683 1.01506 0.0
C822 C 0.84544 0.42386 1.00692 0.0
C823 C 0.87452 0.47372 0.99129 0.0
C824 C 0.87816 0.48194 0.9628 0.0
C825 C 0.90637 0.49929 0.95349 0.0
C826 C 0.93169 0.50802 0.97369 0.0
C827 C 0.92876 0.49934 1.0029 0.0
C828 C 0.89957 0.4823 1.01178 0.0
H829 H 0.7272 0.57926 0.41252 0.0
H830 H 0.72838 0.67188 0.41598 0.0
H831 H 0.68146 0.66184 0.44538 0.0
H832 H 0.63934 0.5569 0.40731 0.0
H833 H 0.63827 0.52452 0.42904 0.0
H834 H 0.67228 0.53853 0.40787 0.0
H835 H 0.70928 0.54065 0.45355 0.0
H836 H 0.67534 0.52689 0.47485 0.0
H837 H 0.70191 0.56079 0.48412 0.0
H838 H 0.63628 0.64317 0.47603 0.0
H839 H 0.59176 0.61635 0.50318 0.0
H840 H 0.6154 0.53455 0.4795 0.0
C841 C 0.71734 0.59736 0.41919 0.0
C842 C 0.73229 0.62652 0.41228 0.0
C843 C 0.7183 0.64945 0.42151 0.0
C844 C 0.69137 0.64398 0.43818 0.0
C845 C 0.67788 0.61531 0.44531 0.0
C846 C 0.68991 0.59225 0.43585 0.0
C847 C 0.66997 0.56352 0.44656 0.0
C848 C 0.65401 0.54475 0.42118 0.0
C849 C 0.69035 0.54699 0.46592 0.0
C850 C 0.6453 0.57425 0.46371 0.0
C851 C 0.65063 0.60427 0.46264 0.0
C852 C 0.63172 0.61963 0.47691 0.0
C853 C 0.60641 0.60404 0.49247 0.0
C854 C 0.59971 0.57315 0.49376 0.0
C855 C 0.61968 0.55811 0.4791 0.0
H856 H 0.24668 0.36578 0.16045 0.0
H857 H 0.25395 0.31094 0.08838 0.0
H858 H 0.21121 0.33 0.0618 0.0
H859 H 0.16396 0.35449 0.15787 0.0
H860 H 0.16238 0.39105 0.16776 0.0
H861 H 0.19601 0.37582 0.17946 0.0
H862 H 0.23419 0.41927 0.15611 0.0
H863 H 0.20064 0.43474 0.14438 0.0
H864 H 0.22814 0.42782 0.11865 0.0
H865 H 0.16414 0.3517 0.04524 0.0
H866 H 0.11725 0.37472 0.03986 0.0
H867 H 0.14155 0.41479 0.12317 0.0
C868 C 0.23956 0.35804 0.13892 0.0
C869 C 0.25357 0.33696 0.12638 0.0
C870 C 0.24376 0.32742 0.09816 0.0
C871 C 0.21945 0.33801 0.083 0.0
C872 C 0.20553 0.35825 0.09634 0.0
C873 C 0.21543 0.36831 0.12361 0.0
C874 C 0.19551 0.3887 0.13395 0.0
C875 C 0.17846 0.37678 0.16137 0.0
C876 C 0.21584 0.41946 0.13853 0.0
C877 C 0.17224 0.38795 0.10855 0.0
C878 C 0.17851 0.37054 0.08693 0.0
C879 C 0.15923 0.36566 0.06188 0.0
C880 C 0.13273 0.37882 0.05899 0.0
C881 C 0.12574 0.39636 0.08118 0.0
C882 C 0.14608 0.40119 0.10601 0.0
H883 H 0.60904 0.21744 0.9292 0.0
H884 H 0.5192 0.2258 0.88606 0.0
H885 H 0.49269 0.18059 0.909 0.0
H886 H 0.59733 0.13903 0.92942 0.0
H887 H 0.61359 0.13615 0.96547 0.0
H888 H 0.6273 0.16842 0.94417 0.0
H889 H 0.61265 0.20047 0.98379 0.0
H890 H 0.59935 0.16833 1.00534 0.0
H891 H 0.57278 0.19264 0.99663 0.0
H892 H 0.47481 0.13527 0.93608 0.0
H893 H 0.46499 0.09472 0.97099 0.0
H894 H 0.56418 0.11595 1.00087 0.0
C895 C 0.58378 0.20997 0.92454 0.0
C896 C 0.56672 0.22524 0.90473 0.0
C897 C 0.53353 0.21429 0.89981 0.0
C898 C 0.51799 0.18858 0.91305 0.0
C899 C 0.53554 0.17399 0.93183 0.0
C900 C 0.56753 0.18444 0.93816 0.0
C901 C 0.57992 0.16529 0.96095 0.0
C902 C 0.60609 0.1514 0.94929 0.0
C903 C 0.59188 0.18273 0.9883 0.0
C904 C 0.54982 0.14247 0.96617 0.0
C905 C 0.52471 0.14796 0.94879 0.0
C906 C 0.49424 0.13071 0.94981 0.0
C907 C 0.48892 0.10768 0.96967 0.0
C908 C 0.51382 0.10199 0.98843 0.0
C909 C 0.54486 0.11936 0.98638 0.0
H910 H 0.96358 0.82091 0.44755 0.0
H911 H 0.92923 0.85528 0.36802 0.0
H912 H 0.94393 0.90523 0.38772 0.0
H913 H 0.93719 0.86807 0.49484 0.0
H914 H 0.97153 0.87225 0.51932 0.0
H915 H 0.95945 0.83952 0.49865 0.0
H916 H 0.01554 0.8473 0.47797 0.0
H917 H 0.02794 0.87982 0.49891 0.0
H918 H 0.03197 0.88141 0.46056 0.0
H919 H 0.95734 0.95109 0.41876 0.0
H920 H 0.97702 0.98966 0.45466 0.0
H921 H 1.00689 0.9259 0.5123 0.0
C922 C 0.95986 0.83907 0.43405 0.0
C923 C 0.94554 0.83425 0.40608 0.0
C924 C 0.94065 0.85851 0.38925 0.0
C925 C 0.94862 0.88691 0.40043 0.0
C926 C 0.96191 0.89081 0.42839 0.0
C927 C 0.9682 0.86757 0.4447 0.0
C928 C 0.983 0.87756 0.47398 0.0
C929 C 0.96151 0.86351 0.49812 0.0
C930 C 0.01662 0.87115 0.47808 0.0
C931 C 0.98411 0.91005 0.47169 0.0
C932 C 0.97119 0.91722 0.44547 0.0
C933 C 0.96799 0.94572 0.43912 0.0
C934 C 0.97903 0.96748 0.45971 0.0
C935 C 0.99376 0.96084 0.48611 0.0
C936 C 0.99606 0.93167 0.49214 0.0
H937 H 0.30776 0.73525 0.64671 0.0
H938 H 0.25908 0.66281 0.6978 0.0
H939 H 0.29587 0.63255 0.68215 0.0
H940 H 0.32553 0.69322 0.58727 0.0
H941 H 0.36429 0.71612 0.5828 0.0
H942 H 0.33274 0.73121 0.59646 0.0
H943 H 0.36837 0.74941 0.64157 0.0
H944 H 0.40004 0.73444 0.62805 0.0
H945 H 0.38559 0.72383 0.66317 0.0
H946 H 0.33847 0.61084 0.6615 0.0
H947 H 0.38419 0.59911 0.63755 0.0
H948 H 0.40705 0.68749 0.60339 0.0
C949 C 0.30444 0.71277 0.65393 0.0
C950 C 0.28043 0.70095 0.67285 0.0
C951 C 0.27723 0.67188 0.68287 0.0
C952 C 0.29798 0.65466 0.6742 0.0
C953 C 0.32182 0.6671 0.65582 0.0
C954 C 0.3252 0.69549 0.64586 0.0
C955 C 0.35373 0.70413 0.62749 0.0
C956 C 0.34345 0.7116 0.59668 0.0
C957 C 0.37838 0.72945 0.64089 0.0
C958 C 0.36588 0.67617 0.62869 0.0
C959 C 0.34709 0.655 0.64495 0.0
C960 C 0.3535 0.62727 0.64882 0.0
C961 C 0.37971 0.62093 0.63538 0.0
C962 C 0.39931 0.6424 0.61862 0.0
C963 C 0.39233 0.67042 0.61564 0.0
H964 H 0.75582 0.86113 0.71928 0.0
H965 H 0.72292 0.9341 0.75419 0.0
H966 H 0.75454 0.96726 0.71955 0.0
H967 H 0.83579 0.89929 0.70913 0.0
H968 H 0.83935 0.88071 0.67639 0.0
H969 H 0.81328 0.86279 0.70338 0.0
H970 H 0.76608 0.85397 0.66564 0.0
H971 H 0.79193 0.87199 0.63854 0.0
H972 H 0.75615 0.88445 0.64576 0.0
H973 H 0.7907 0.99234 0.68227 0.0
H974 H 0.8279 1.00756 0.64321 0.0
H975 H 0.83765 0.91806 0.63418 0.0
C976 C 0.75528 0.88409 0.71961 0.0
C977 C 0.73691 0.89515 0.73914 0.0
C978 C 0.73651 0.92523 0.73894 0.0
C979 C 0.75454 0.94421 0.71958 0.0
C980 C 0.7727 0.93261 0.70079 0.0
C981 C 0.77316 0.90327 0.70061 0.0
C982 C 0.79487 0.89634 0.67848 0.0
C983 C 0.82246 0.88407 0.69271 0.0
C984 C 0.77613 0.87546 0.65576 0.0
C985 C 0.80647 0.92641 0.66614 0.0
C986 C 0.79354 0.94706 0.67934 0.0
C987 C 0.80099 0.97642 0.67169 0.0
C988 C 0.82215 0.98485 0.64968 0.0
C989 C 0.83527 0.96387 0.63577 0.0
C990 C 0.82747 0.9344 0.64425 0.0
H991 H 0.78391 0.23266 0.17722 0.0
H992 H 0.82059 0.17058 0.23283 0.0
H993 H 0.79494 0.13098 0.20078 0.0
H994 H 0.70843 0.18877 0.17047 0.0
H995 H 0.70037 0.2 0.13416 0.0
H996 H 0.7274 0.22433 0.15763 0.0
H997 H 0.77147 0.22883 0.1207 0.0
H998 H 0.74457 0.20443 0.09702 0.0
H999 H 0.78262 0.19642 0.10821 0.0
H1000 H 0.76016 0.09733 0.16643 0.0
H1001 H 0.71701 0.07216 0.13315 0.0
H1002 H 0.69918 0.15569 0.10344 0.0
C1003 C 0.78704 0.21086 0.18254 0.0
C1004 C 0.80473 0.205 0.20741 0.0
C1005 C 0.80812 0.176 0.21343 0.0
C1006 C 0.79338 0.1532 0.19547 0.0
C1007 C 0.77504 0.15968 0.17183 0.0
C1008 C 0.77167 0.18779 0.16544 0.0
C1009 C 0.74714 0.18855 0.14135 0.0
C1010 C 0.7192 0.20115 0.15153 0.0
C1011 C 0.76237 0.20555 0.11527 0.0
C1012 C 0.737 0.15642 0.13538 0.0
C1013 C 0.75368 0.14013 0.15287 0.0
C1014 C 0.7472 0.10981 0.15231 0.0
C1015 C 0.72278 0.09574 0.13345 0.0
C1016 C 0.70503 0.11212 0.11594 0.0
C1017 C 0.7125 0.14277 0.11672 0.0
H1018 H 0.42431 0.59259 0.33517 0.0
H1019 H 0.44973 0.68106 0.36677 0.0
H1020 H 0.47202 0.66285 0.4118 0.0
H1021 H 0.39857 0.55899 0.40178 0.0
H1022 H 0.41372 0.52664 0.39596 0.0
H1023 H 0.40151 0.54689 0.36576 0.0
H1024 H 0.45712 0.55209 0.34458 0.0
H1025 H 0.46947 0.53164 0.37456 0.0
H1026 H 0.49226 0.56738 0.36626 0.0
H1027 H 0.49129 0.63374 0.45456 0.0
H1028 H 0.50589 0.5974 0.48917 0.0
H1029 H 0.46443 0.52824 0.43037 0.0
C1030 C 0.43434 0.6083 0.35152 0.0
C1031 C 0.43494 0.63843 0.34714 0.0
C1032 C 0.44914 0.65797 0.36917 0.0
C1033 C 0.46169 0.64776 0.39502 0.0
C1034 C 0.45999 0.61785 0.39875 0.0
C1035 C 0.44671 0.59848 0.37744 0.0
C1036 C 0.44726 0.56737 0.38663 0.0
C1037 C 0.41325 0.54889 0.38759 0.0
C1038 C 0.46775 0.55383 0.36683 0.0
C1039 C 0.46279 0.57207 0.41652 0.0
C1040 C 0.4701 0.60133 0.42321 0.0
C1041 C 0.48521 0.6108 0.44955 0.0
C1042 C 0.49301 0.58993 0.46936 0.0
C1043 C 0.48536 0.55983 0.46302 0.0
C1044 C 0.4702 0.55102 0.4361 0.0
H1045 H 0.08657 0.39106 0.87753 0.0
H1046 H 0.11642 0.46574 0.82124 0.0
H1047 H 0.1034 0.49784 0.85759 0.0
H1048 H 0.01938 0.41682 0.90579 0.0
H1049 H 0.02478 0.40317 0.9417 0.0
H1050 H 0.03687 0.38532 0.91155 0.0
H1051 H 0.09368 0.39161 0.93482 0.0
H1052 H 0.08183 0.4097 0.96495 0.0
H1053 H 0.11531 0.42746 0.94471 0.0
H1054 H 0.08674 0.52269 0.89897 0.0
H1055 H 0.06659 0.53883 0.94291 0.0
H1056 H 0.04624 0.44968 0.97498 0.0
C1057 C 0.09029 0.41414 0.87276 0.0
C1058 C 0.1033 0.42558 0.84622 0.0
C1059 C 0.10754 0.45609 0.84132 0.0
C1060 C 0.0999 0.47468 0.8619 0.0
C1061 C 0.08768 0.46286 0.88771 0.0
C1062 C 0.0827 0.43331 0.89333 0.0
C1063 C 0.06877 0.42667 0.923 0.0
C1064 C 0.03547 0.40681 0.92035 0.0
C1065 C 0.09124 0.41305 0.94306 0.0
C1066 C 0.06688 0.45709 0.93303 0.0
C1067 C 0.07791 0.47747 0.91208 0.0
C1068 C 0.07812 0.50691 0.91553 0.0
C1069 C 0.06651 0.51589 0.94075 0.0
C1070 C 0.05478 0.49577 0.96282 0.0
C1071 C 0.05533 0.46582 0.95886 0.0
H1072 H 0.59547 0.89372 0.9177 0.0
H1073 H 0.52384 0.81919 0.94298 0.0
H1074 H 0.49369 0.8525 0.96482 0.0
H1075 H 0.59621 0.93354 0.98082 0.0
H1076 H 0.60263 0.9685 0.96284 0.0
H1077 H 0.61685 0.93892 0.94773 0.0
H1078 H 0.58524 0.9446 0.89993 0.0
H1079 H 0.57102 0.97433 0.9149 0.0
H1080 H 0.54303 0.94343 0.90035 0.0
H1081 H 0.4726 0.89434 0.98439 0.0
H1082 H 0.46463 0.94053 1.00428 0.0
H1083 H 0.55125 0.98647 0.96569 0.0
C1084 C 0.57318 0.88445 0.92752 0.0
C1085 C 0.56145 0.85413 0.92845 0.0
C1086 C 0.53284 0.8425 0.94209 0.0
C1087 C 0.51562 0.8612 0.95427 0.0
C1088 C 0.52769 0.89116 0.9526 0.0
C1089 C 0.556 0.90262 0.93976 0.0
C1090 C 0.56515 0.93529 0.94229 0.0
C1091 C 0.59708 0.94459 0.95945 0.0
C1092 C 0.56615 0.95027 0.91259 0.0
C1093 C 0.53758 0.94054 0.95874 0.0
C1094 C 0.51601 0.91497 0.96426 0.0
C1095 C 0.48917 0.91452 0.98002 0.0
C1096 C 0.48474 0.94086 0.99103 0.0
C1097 C 0.50726 0.96702 0.98634 0.0
C1098 C 0.53354 0.96683 0.96947 0.0
H1099 H 0.98907 0.21273 0.4097 0.0
H1100 H 0.90444 0.21571 0.45627 0.0
H1101 H 0.91697 0.17853 0.48978 0.0
H1102 H 0.97769 0.13846 0.4105 0.0
H1103 H 0.01898 0.13603 0.41476 0.0
H1104 H 1.00837 0.16768 0.39789 0.0
H1105 H 0.04485 0.20098 0.43485 0.0
H1106 H 0.05596 0.16942 0.45172 0.0
H1107 H 0.03967 0.19418 0.4727 0.0
H1108 H 0.93142 0.13549 0.51206 0.0
H1109 H 0.95026 0.09069 0.52491 0.0
H1110 H 0.02569 0.1136 0.46469 0.0
C1111 C 0.97361 0.20612 0.42738 0.0
C1112 C 0.94594 0.21758 0.4304 0.0
C1113 C 0.92629 0.20812 0.4538 0.0
C1114 C 0.93305 0.18672 0.47292 0.0
C1115 C 0.95956 0.17497 0.46848 0.0
C1116 C 0.97984 0.18448 0.44656 0.0
C1117 C 1.00456 0.16579 0.44469 0.0
C1118 C 1.00224 0.15113 0.41522 0.0
C1119 C 0.03826 0.18367 0.4514 0.0
C1120 C 0.99414 0.14367 0.46827 0.0
C1121 C 0.96823 0.14963 0.48176 0.0
C1122 C 0.95214 0.13094 0.50219 0.0
C1123 C 0.9628 0.10545 0.50909 0.0
C1124 C 0.98935 0.09897 0.49571 0.0
C1125 C 1.00562 0.11847 0.47541 0.0
H1126 H 0.21862 0.65488 0.12132 0.0
H1127 H 0.24196 0.57909 0.16567 0.0
H1128 H 0.19357 0.5485 0.14354 0.0
H1129 H 0.13392 0.63496 0.12227 0.0
H1130 H 0.12787 0.64832 0.08635 0.0
H1131 H 0.16272 0.66465 0.1078 0.0
H1132 H 0.1988 0.6546 0.06784 0.0
H1133 H 0.16411 0.6382 0.04623 0.0
H1134 H 0.19474 0.61801 0.05499 0.0
H1135 H 0.1412 0.52588 0.11601 0.0
H1136 H 0.09316 0.5135 0.08318 0.0
H1137 H 0.10926 0.60296 0.05282 0.0
C1138 C 0.21421 0.63183 0.1263 0.0
C1139 C 0.23472 0.61978 0.14558 0.0
C1140 C 0.22671 0.5894 0.15165 0.0
C1141 C 0.19925 0.57164 0.13891 0.0
C1142 C 0.1801 0.58432 0.1197 0.0
C1143 C 0.18754 0.61371 0.1132 0.0
C1144 C 0.16434 0.62192 0.09061 0.0
C1145 C 0.14614 0.64375 0.10248 0.0
C1146 C 0.18153 0.63388 0.06331 0.0
C1147 C 0.14254 0.59256 0.08538 0.0
C1148 C 0.15161 0.57114 0.10266 0.0
C1149 C 0.13414 0.54248 0.10223 0.0
C1150 C 0.1069 0.53562 0.0836 0.0
C1151 C 0.09785 0.55717 0.06529 0.0
C1152 C 0.116 0.58593 0.06625 0.0
H1153 H 0.32291 0.46458 0.67681 0.0
H1154 H 0.2683 0.40595 0.61299 0.0
H1155 H 0.31096 0.42008 0.57959 0.0
H1156 H 0.35127 0.52206 0.62327 0.0
H1157 H 0.38969 0.53373 0.64136 0.0
H1158 H 0.35546 0.51826 0.66172 0.0
H1159 H 0.38501 0.47957 0.68343 0.0
H1160 H 0.41932 0.49486 0.66312 0.0
H1161 H 0.401 0.45682 0.65982 0.0
H1162 H 0.36081 0.43725 0.55361 0.0
H1163 H 0.41191 0.46216 0.53405 0.0
H1164 H 0.43275 0.51539 0.61026 0.0
C1165 C 0.31965 0.45485 0.65577 0.0
C1166 C 0.29223 0.43294 0.64852 0.0
C1167 C 0.28936 0.4214 0.62029 0.0
C1168 C 0.31347 0.42962 0.60072 0.0
C1169 C 0.34031 0.45038 0.60885 0.0
C1170 C 0.34331 0.4635 0.63536 0.0
C1171 C 0.37425 0.48641 0.63771 0.0
C1172 C 0.36725 0.51693 0.64123 0.0
C1173 C 0.39619 0.47896 0.66249 0.0
C1174 C 0.3882 0.48355 0.60865 0.0
C1175 C 0.36824 0.4623 0.59259 0.0
C1176 C 0.3764 0.4543 0.56576 0.0
C1177 C 0.40557 0.46852 0.55484 0.0
C1178 C 0.42619 0.49099 0.57034 0.0
C1179 C 0.41722 0.49866 0.59764 0.0
H1180 H 0.7943 0.70314 0.89548 0.0
H1181 H 0.77616 0.74963 0.97032 0.0
H1182 H 0.81403 0.72664 0.99948 0.0
H1183 H 0.80636 0.63639 0.93248 0.0
H1184 H 0.83792 0.63259 0.90963 0.0
H1185 H 0.80628 0.64965 0.89592 0.0
H1186 H 0.84791 0.69545 0.88153 0.0
H1187 H 0.87964 0.67865 0.89528 0.0
H1188 H 0.87626 0.71367 0.90839 0.0
H1189 H 0.85772 0.70176 1.0192 0.0
H1190 H 0.90333 0.67728 1.02753 0.0
H1191 H 0.89334 0.6493 0.93894 0.0
C1192 C 0.79801 0.7083 0.91808 0.0
C1193 C 0.78231 0.72814 0.93065 0.0
C1194 C 0.78761 0.73413 0.96034 0.0
C1195 C 0.80918 0.7213 0.97702 0.0
C1196 C 0.82504 0.70253 0.96365 0.0
C1197 C 0.81954 0.69597 0.93485 0.0
C1198 C 0.84114 0.67691 0.92495 0.0
C1199 C 0.82176 0.64712 0.91518 0.0
C1200 C 0.8625 0.69209 0.90114 0.0
C1201 C 0.86024 0.67428 0.95251 0.0
C1202 C 0.85043 0.68884 0.97474 0.0
C1203 C 0.86541 0.69008 1.00202 0.0
C1204 C 0.8912 0.67617 1.00656 0.0
C1205 C 0.90184 0.66168 0.9838 0.0
C1206 C 0.88588 0.66053 0.95662 0.0
H1207 H 0.48903 0.84785 0.16884 0.0
H1208 H 0.38719 0.84266 0.15633 0.0
H1209 H 0.39737 0.88888 0.12918 0.0
H1210 H 0.50973 0.9268 0.17844 0.0
H1211 H 0.54626 0.93123 0.15976 0.0
H1212 H 0.53118 0.89762 0.17854 0.0
H1213 H 0.53203 0.86892 0.13186 0.0
H1214 H 0.54702 0.90243 0.11291 0.0
H1215 H 0.51103 0.87839 0.09985 0.0
H1216 H 0.41813 0.93516 0.10196 0.0
H1217 H 0.44862 0.97922 0.07842 0.0
H1218 H 0.53697 0.95598 0.10892 0.0
C1219 C 0.46889 0.85662 0.16072 0.0
C1220 C 0.43725 0.84118 0.16454 0.0
C1221 C 0.41165 0.85354 0.1533 0.0
C1222 C 0.41716 0.87997 0.13791 0.0
C1223 C 0.44848 0.89427 0.13404 0.0
C1224 C 0.47397 0.88323 0.14529 0.0
C1225 C 0.50529 0.90317 0.1379 0.0
C1226 C 0.52423 0.91543 0.16529 0.0
C1227 C 0.525 0.88727 0.11953 0.0
C1228 C 0.49338 0.92693 0.12065 0.0
C1229 C 0.46049 0.92131 0.11868 0.0
C1230 C 0.44391 0.93986 0.10353 0.0
C1231 C 0.46138 0.96485 0.09016 0.0
C1232 C 0.49507 0.97112 0.09185 0.0
C1233 C 0.51119 0.95185 0.10738 0.0
H1234 H 0.12176 0.20732 0.64601 0.0
H1235 H 0.03843 0.22244 0.68823 0.0
H1236 H 1.00746 0.1766 0.66848 0.0
H1237 H 0.07761 0.18103 0.58015 0.0
H1238 H 0.10206 0.15519 0.57348 0.0
H1239 H 0.11878 0.18811 0.59275 0.0
H1240 H 0.13622 0.15758 0.63498 0.0
H1241 H 0.11944 0.12456 0.61592 0.0
H1242 H 0.10699 0.12968 0.6515 0.0
H1243 H 0.98482 0.12985 0.6439 0.0
H1244 H 0.97058 0.08601 0.61472 0.0
H1245 H 0.0664 0.1018 0.58334 0.0
C1246 C 0.09691 0.20162 0.651 0.0
C1247 C 0.083 0.21939 0.66911 0.0
C1248 C 0.05041 0.20963 0.67521 0.0
C1249 C 0.03234 0.18353 0.66375 0.0
C1250 C 0.04675 0.16723 0.64569 0.0
C1251 C 0.0782 0.17598 0.63907 0.0
C1252 C 0.08736 0.15502 0.61785 0.0
C1253 C 0.09702 0.17078 0.58937 0.0
C1254 C 0.11409 0.14087 0.63085 0.0
C1255 C 0.05611 0.13273 0.61394 0.0
C1256 C 0.03322 0.14043 0.63042 0.0
C1257 C 1.00252 0.12371 0.6309 0.0
C1258 C 0.99471 0.09865 0.61411 0.0
C1259 C 0.01722 0.09008 0.59654 0.0
C1260 C 0.04858 0.1075 0.59653 0.0
H1261 H 0.75807 0.38249 0.41856 0.0
H1262 H 0.7026 0.32314 0.3559 0.0
H1263 H 0.65463 0.34079 0.36688 0.0
H1264 H 0.69844 0.36978 0.47037 0.0
H1265 H 0.7072 0.40667 0.48317 0.0
H1266 H 0.7381 0.39165 0.46824 0.0
H1267 H 0.74864 0.43439 0.43141 0.0
H1268 H 0.71774 0.44953 0.44626 0.0
H1269 H 0.71617 0.44173 0.40848 0.0
H1270 H 0.61233 0.36341 0.38536 0.0
H1271 H 0.57742 0.38686 0.41345 0.0
H1272 H 0.6594 0.42905 0.46607 0.0
C1273 C 0.73589 0.37318 0.40713 0.0
C1274 C 0.73441 0.35189 0.38592 0.0
C1275 C 0.70474 0.34022 0.37155 0.0
C1276 C 0.67722 0.34994 0.37774 0.0
C1277 C 0.6796 0.37103 0.39862 0.0
C1278 C 0.70803 0.38229 0.41334 0.0
C1279 C 0.70354 0.40316 0.43628 0.0
C1280 C 0.71233 0.39215 0.46629 0.0
C1281 C 0.72266 0.43403 0.43023 0.0
C1282 C 0.66809 0.40164 0.43225 0.0
C1283 C 0.65483 0.38329 0.41014 0.0
C1284 C 0.62238 0.37796 0.40265 0.0
C1285 C 0.60282 0.39144 0.41857 0.0
C1286 C 0.61584 0.40966 0.44178 0.0
C1287 C 0.64891 0.41508 0.44844 0.0
loop_
_geom_bond_atom_site_label_1
_geom_bond_atom_site_label_2
_geom_bond_distance
_geom_bond_site_symmetry_2
_ccdc_geom_bond_type
C0 C1 1.391 . S
C0 C4 1.391 . S
C0 H42 0.948 . S
C1 C0 1.391 . S
C1 C2 1.391 . S
C2 C1 1.391 . S
C2 H58 0.947 . S
C2 C59 1.392 . S
C3 C4 1.391 . S
C3 C7 1.397 . S
C3 C59 1.419 . S
C4 C0 1.391 . S
C4 C3 1.391 . S
C4 C5 1.399 . S
C5 C4 1.399 . S
C5 C8 1.396 . S
C5 C17 1.453 . S
C5 C18 1.684 . S
H6 C30 0.948 . S
C7 C3 1.397 . S
C7 C8 1.394 . S
C7 C26 1.723 . S
C8 C5 1.396 . S
C8 C7 1.394 . S
C8 C38 1.723 . S
H9 C32 0.947 . S
H10 C33 0.948 . S
H11 C39 0.982 . S
H12 C40 0.979 . S
H13 C40 0.980 . S
H14 C40 0.983 . S
H15 C39 0.979 . S
H16 C39 0.977 . S
C17 C5 1.453 . S
C17 H46 0.982 . S
C17 H47 0.979 . S
C17 H48 0.977 . S
C18 C5 1.684 . S
C18 H43 0.979 . S
C18 H44 0.980 . S
C18 H45 0.983 . S
C19 C20 1.391 . S
C19 C24 1.391 . S
C19 H49 0.948 . S
C20 C19 1.391 . S
C20 C21 1.391 . S
C21 C20 1.391 . S
C21 C22 1.392 . S
C21 H50 0.947 . S
C22 C21 1.392 . S
C22 C23 1.419 . S
C22 H51 0.948 . S
C23 C22 1.419 . S
C23 C24 1.391 . S
C23 C27 1.397 . S
C24 C19 1.391 . S
C24 C23 1.391 . S
C24 C25 1.399 . S
C25 C24 1.399 . S
C25 C26 1.396 . S
C25 C28 1.453 . S
C25 C29 1.684 . S
C26 C7 1.723 . S
C26 C25 1.396 . S
C26 C27 1.394 . S
C27 C23 1.397 . S
C27 C26 1.394 . S
C27 C37 1.723 . S
C28 C25 1.453 . S
C28 H52 0.982 . S
C28 H53 0.979 . S
C28 H54 0.977 . S
C29 C25 1.684 . S
C29 H55 0.979 . S
C29 H56 0.980 . S
C29 H57 0.983 . S
C30 H6 0.948 . S
C30 C31 1.391 . S
C30 C35 1.391 . S
C31 C30 1.391 . S
C31 C32 1.391 . S
C32 H9 0.947 . S
C32 C31 1.391 . S
C32 C33 1.392 . S
C33 H10 0.948 . S
C33 C32 1.392 . S
C33 C34 1.419 . S
C34 C33 1.419 . S
C34 C35 1.391 . S
C34 C38 1.397 . S
C35 C30 1.391 . S
C35 C34 1.391 . S
C35 C36 1.399 . S
C36 C35 1.399 . S
C36 C37 1.396 . S
C36 C39 1.453 . S
C36 C40 1.684 . S
C37 C27 1.723 . S
C37 C36 1.396 . S
C37 C38 1.394 . S
C38 C8 1.723 . S
C38 C34 1.397 . S
C38 C37 1.394 . S
C39 H11 0.982 . S
C39 H15 0.979 . S
C39 H16 0.977 . S
C39 C36 1.453 . S
C40 H12 0.979 . S
C40 H13 0.980 . S
C40 H14 0.983 . S
C40 C36 1.684 . S
H41 C59 0.948 . S
H42 C0 0.948 . S
H43 C18 0.979 . S
H44 C18 0.980 . S
H45 C18 0.983 . S
H46 C17 0.982 . S
H47 C17 0.979 . S
H48 C17 0.977 . S
H49 C19 0.948 . S
H50 C21 0.947 . S
H51 C22 0.948 . S
H52 C28 0.982 . S
H53 C28 0.979 . S
H54 C28 0.977 . S
H55 C29 0.979 . S
H56 C29 0.980 . S
H57 C29 0.983 . S
H58 C2 0.947 . S
C59 C2 1.392 . S
C59 C3 1.419 . S
C59 H41 0.948 . S
C60 C61 1.391 . S
C60 C64 1.391 . S
C60 H102 0.948 . S
C61 C60 1.391 . S
C61 C62 1.391 . S
C62 C61 1.391 . S
C62 H118 0.947 . S
C62 C119 1.392 . S
C63 C64 1.391 . S
C63 C67 1.397 . S
C63 C119 1.419 . S
C64 C60 1.391 . S
C64 C63 1.391 . S
C64 C65 1.399 . S
C65 C64 1.399 . S
C65 C68 1.396 . S
C65 C77 1.453 . S
C65 C78 1.684 . S
H66 C90 0.948 . S
C67 C63 1.397 . S
C67 C68 1.394 . S
C67 C86 1.723 . S
C68 C65 1.396 . S
C68 C67 1.394 . S
C68 C98 1.723 . S
H69 C92 0.947 . S
H70 C93 0.948 . S
H71 C99 0.982 . S
H72 C100 0.979 . S
H73 C100 0.980 . S
H74 C100 0.983 . S
H75 C99 0.979 . S
H76 C99 0.977 . S
C77 C65 1.453 . S
C77 H106 0.982 . S
C77 H107 0.979 . S
C77 H108 0.977 . S
C78 C65 1.684 . S
C78 H103 0.979 . S
C78 H104 0.980 . S
C78 H105 0.983 . S
C79 C80 1.391 . S
C79 C84 1.391 . S
C79 H109 0.948 . S
C80 C79 1.391 . S
C80 C81 1.391 . S
C81 C80 1.391 . S
C81 C82 1.392 . S
C81 H110 0.947 . S
C82 C81 1.392 . S
C82 C83 1.419 . S
C82 H111 0.948 . S
C83 C82 1.419 . S
C83 C84 1.391 . S
C83 C87 1.397 . S
C84 C79 1.391 . S
C84 C83 1.391 . S
C84 C85 1.399 . S
C85 C84 1.399 . S
C85 C86 1.396 . S
C85 C88 1.453 . S
C85 C89 1.684 . S
C86 C67 1.723 . S
C86 C85 1.396 . S
C86 C87 1.394 . S
C87 C83 1.397 . S
C87 C86 1.394 . S
C87 C97 1.723 . S
C88 C85 1.453 . S
C88 H112 0.982 . S
C88 H113 0.979 . S
C88 H114 0.977 . S
C89 C85 1.684 . S
C89 H115 0.979 . S
C89 H116 0.980 . S
C89 H117 0.983 . S
C90 H66 0.948 . S
C90 C91 1.391 . S
C90 C95 1.391 . S
C91 C90 1.391 . S
C91 C92 1.391 . S
C92 H69 0.947 . S
C92 C91 1.391 . S
C92 C93 1.392 . S
C93 H70 0.948 . S
C93 C92 1.392 . S
C93 C94 1.419 . S
C94 C93 1.419 . S
C94 C95 1.391 . S
C94 C98 1.397 . S
C95 C90 1.391 . S
C95 C94 1.391 . S
C95 C96 1.399 . S
C96 C95 1.399 . S
C96 C97 1.396 . S
C96 C99 1.453 . S
C96 C100 1.684 . S
C97 C87 1.723 . S
C97 C96 1.396 . S
C97 C98 1.394 . S
C98 C68 1.723 . S
C98 C94 1.397 . S
C98 C97 1.394 . S
C99 H71 0.982 . S
C99 H75 0.979 . S
C99 H76 0.977 . S
C99 C96 1.453 . S
C100 H72 0.979 . S
C100 H73 0.980 . S
C100 H74 0.983 . S
C100 C96 1.684 . S
H101 C119 0.948 . S
H102 C60 0.948 . S
H103 C78 0.979 . S
H104 C78 0.980 . S
H105 C78 0.983 . S
H106 C77 0.982 . S
H107 C77 0.979 . S
H108 C77 0.977 . S
H109 C79 0.948 . S
H110 C81 0.947 . S
H111 C82 0.948 . S
H112 C88 0.982 . S
H113 C88 0.979 . S
H114 C88 0.977 . S
H115 C89 0.979 . S
H116 C89 0.980 . S
H117 C89 0.983 . S
H118 C62 0.947 . S
C119 C62 1.392 . S
C119 C63 1.419 . S
C119 H101 0.948 . S
C120 C121 1.391 . S
C120 C124 1.391 . S
C120 H162 0.948 . S
C121 C120 1.391 . S
C121 C122 1.391 . S
C122 C121 1.391 . S
C122 H178 0.947 . S
C122 C179 1.392 . S
C123 C124 1.391 . S
C123 C127 1.397 . S
C123 C179 1.419 . S
C124 C120 1.391 . S
C124 C123 1.391 . S
C124 C125 1.399 . S
C125 C124 1.399 . S
C125 C128 1.396 . S
C125 C137 1.453 . S
C125 C138 1.684 . S
H126 C150 0.948 . S
C127 C123 1.397 . S
C127 C128 1.394 . S
C127 C146 1.723 . S
C128 C125 1.396 . S
C128 C127 1.394 . S
C128 C158 1.723 . S
H129 C152 0.947 . S
H130 C153 0.948 . S
H131 C159 0.982 . S
H132 C160 0.979 . S
H133 C160 0.980 . S
H134 C160 0.983 . S
H135 C159 0.979 . S
H136 C159 0.977 . S
C137 C125 1.453 . S
C137 H166 0.982 . S
C137 H167 0.979 . S
C137 H168 0.977 . S
C138 C125 1.684 . S
C138 H163 0.979 . S
C138 H164 0.980 . S
C138 H165 0.983 . S
C139 C140 1.391 . S
C139 C144 1.391 . S
C139 H169 0.948 . S
C140 C139 1.391 . S
C140 C141 1.391 . S
C141 C140 1.391 . S
C141 C142 1.392 . S
C141 H170 0.947 . S
C142 C141 1.392 . S
C142 C143 1.419 . S
C142 H171 0.948 . S
C143 C142 1.419 . S
C143 C144 1.391 . S
C143 C147 1.397 . S
C144 C139 1.391 . S
C144 C143 1.391 . S
C144 C145 1.399 . S
C145 C144 1.399 . S
C145 C146 1.396 . S
C145 C148 1.453 . S
C145 C149 1.684 . S
C146 C127 1.723 . S
C146 C145 1.396 . S
C146 C147 1.394 . S
C147 C143 1.397 . S
C147 C146 1.394 . S
C147 C157 1.723 . S
C148 C145 1.453 . S
C148 H172 0.982 . S
C148 H173 0.979 . S
C148 H174 0.977 . S
C149 C145 1.684 . S
C149 H175 0.979 . S
C149 H176 0.980 . S
C149 H177 0.983 . S
C150 H126 0.948 . S
C150 C151 1.391 . S
C150 C155 1.391 . S
C151 C150 1.391 . S
C151 C152 1.391 . S
C152 H129 0.947 . S
C152 C151 1.391 . S
C152 C153 1.392 . S
C153 H130 0.948 . S
C153 C152 1.392 . S
C153 C154 1.419 . S
C154 C153 1.419 . S
C154 C155 1.391 . S
C154 C158 1.397 . S
C155 C150 1.391 . S
C155 C154 1.391 . S
C155 C156 1.399 . S
C156 C155 1.399 . S
C156 C157 1.396 . S
C156 C159 1.453 . S
C156 C160 1.684 . S
C157 C147 1.723 . S
C157 C156 1.396 . S
C157 C158 1.394 . S
C158 C128 1.723 . S
C158 C154 1.397 . S
C158 C157 1.394 . S
C159 H131 0.982 . S
C159 H135 0.979 . S
C159 H136 0.977 . S
C159 C156 1.453 . S
C160 H132 0.979 . S
C160 H133 0.980 . S
C160 H134 0.983 . S
C160 C156 1.684 . S
H161 C179 0.948 . S
H162 C120 0.948 . S
H163 C138 0.979 . S
H164 C138 0.980 . S
H165 C138 0.983 . S
H166 C137 0.982 . S
H167 C137 0.979 . S
H168 C137 0.977 . S
H169 C139 0.948 . S
H170 C141 0.947 . S
H171 C142 0.948 . S
H172 C148 0.982 . S
H173 C148 0.979 . S
H174 C148 0.977 . S
H175 C149 0.979 . S
H176 C149 0.980 . S
H177 C149 0.983 . S
H178 C122 0.947 . S
C179 C122 1.392 . S
C179 C123 1.419 . S
C179 H161 0.948 . S
C180 C181 1.391 . S
C180 C184 1.391 . S
C180 H222 0.948 . S
C181 C180 1.391 . S
C181 C182 1.391 . S
C182 C181 1.391 . S
C182 H238 0.947 . S
C182 C239 1.392 . S
C183 C184 1.391 . S
C183 C187 1.397 . S
C183 C239 1.419 . S
C184 C180 1.391 . S
C184 C183 1.391 . S
C184 C185 1.399 . S
C185 C184 1.399 . S
C185 C188 1.396 . S
C185 C197 1.453 . S
C185 C198 1.684 . S
H186 C210 0.948 . S
C187 C183 1.397 . S
C187 C188 1.394 . S
C187 C206 1.723 . S
C188 C185 1.396 . S
C188 C187 1.394 . S
C188 C218 1.723 . S
H189 C212 0.947 . S
H190 C213 0.948 . S
H191 C219 0.982 . S
H192 C220 0.979 . S
H193 C220 0.980 . S
H194 C220 0.983 . S
H195 C219 0.979 . S
H196 C219 0.977 . S
C197 C185 1.453 . S
C197 H226 0.982 . S
C197 H227 0.979 . S
C197 H228 0.977 . S
C198 C185 1.684 . S
C198 H223 0.979 . S
C198 H224 0.980 . S
C198 H225 0.983 . S
C199 C200 1.391 . S
C199 C204 1.391 . S
C199 H229 0.948 . S
C200 C199 1.391 . S
C200 C201 1.391 . S
C201 C200 1.391 . S
C201 C202 1.392 . S
C201 H230 0.947 . S
C202 C201 1.392 . S
C202 C203 1.419 . S
C202 H231 0.948 . S
C203 C202 1.419 . S
C203 C204 1.391 . S
C203 C207 1.397 . S
C204 C199 1.391 . S
C204 C203 1.391 . S
C204 C205 1.399 . S
C205 C204 1.399 . S
C205 C206 1.396 . S
C205 C208 1.453 . S
C205 C209 1.684 . S
C206 C187 1.723 . S
C206 C205 1.396 . S
C206 C207 1.394 . S
C207 C203 1.397 . S
C207 C206 1.394 . S
C207 C217 1.723 . S
C208 C205 1.453 . S
C208 H232 0.982 . S
C208 H233 0.979 . S
C208 H234 0.977 . S
C209 C205 1.684 . S
C209 H235 0.979 . S
C209 H236 0.980 . S
C209 H237 0.983 . S
C210 H186 0.948 . S
C210 C211 1.391 . S
C210 C215 1.391 . S
C211 C210 1.391 . S
C211 C212 1.391 . S
C212 H189 0.947 . S
C212 C211 1.391 . S
C212 C213 1.392 . S
C213 H190 0.948 . S
C213 C212 1.392 . S
C213 C214 1.419 . S
C214 C213 1.419 . S
C214 C215 1.391 . S
C214 C218 1.397 . S
C215 C210 1.391 . S
C215 C214 1.391 . S
C215 C216 1.399 . S
C216 C215 1.399 . S
C216 C217 1.396 . S
C216 C219 1.453 . S
C216 C220 1.684 . S
C217 C207 1.723 . S
C217 C216 1.396 . S
C217 C218 1.394 . S
C218 C188 1.723 . S
C218 C214 1.397 . S
C218 C217 1.394 . S
C219 H191 0.982 . S
C219 H195 0.979 . S
C219 H196 0.977 . S
C219 C216 1.453 . S
C220 H192 0.979 . S
C220 H193 0.980 . S
C220 H194 0.983 . S
C220 C216 1.684 . S
H221 C239 0.948 . S
H222 C180 0.948 . S
H223 C198 0.979 . S
H224 C198 0.980 . S
H225 C198 0.983 . S
H226 C197 0.982 . S
H227 C197 0.979 . S
H228 C197 0.977 . S
H229 C199 0.948 . S
H230 C201 0.947 . S
H231 C202 0.948 . S
H232 C208 0.982 . S
H233 C208 0.979 . S
H234 C208 0.977 . S
H235 C209 0.979 . S
H236 C209 0.980 . S
H237 C209 0.983 . S
H238 C182 0.947 . S
C239 C182 1.392 . S
C239 C183 1.419 . S
C239 H221 0.948 . S
C240 C241 1.391 . S
C240 C244 1.391 . S
C240 H282 0.948 . S
C241 C240 1.391 . S
C241 C242 1.391 . S
C242 C241 1.391 . S
C242 H298 0.947 . S
C242 C299 1.392 . S
C243 C244 1.391 . S
C243 C247 1.397 . S
C243 C299 1.419 . S
C244 C240 1.391 . S
C244 C243 1.391 . S
C244 C245 1.399 . S
C245 C244 1.399 . S
C245 C248 1.396 . S
C245 C257 1.453 . S
C245 C258 1.684 . S
H246 C270 0.948 . S
C247 C243 1.397 . S
C247 C248 1.394 . S
C247 C266 1.723 . S
C248 C245 1.396 . S
C248 C247 1.394 . S
C248 C278 1.723 . S
H249 C272 0.947 . S
H250 C273 0.948 . S
H251 C279 0.982 . S
H252 C280 0.979 . S
H253 C280 0.980 . S
H254 C280 0.983 . S
H255 C279 0.979 . S
H256 C279 0.977 . S
C257 C245 1.453 . S
C257 H286 0.982 . S
C257 H287 0.979 . S
C257 H288 0.977 . S
C258 C245 1.684 . S
C258 H283 0.979 . S
C258 H284 0.980 . S
C258 H285 0.983 . S
C259 C260 1.391 . S
C259 C264 1.391 . S
C259 H289 0.948 . S
C260 C259 1.391 . S
C260 C261 1.391 . S
C261 C260 1.391 . S
C261 C262 1.392 . S
C261 H290 0.947 . S
C262 C261 1.392 . S
C262 C263 1.419 . S
C262 H291 0.948 . S
C263 C262 1.419 . S
C263 C264 1.391 . S
C263 C267 1.397 . S
C264 C259 1.391 . S
C264 C263 1.391 . S
C264 C265 1.399 . S
C265 C264 1.399 . S
C265 C266 1.396 . S
C265 C268 1.453 . S
C265 C269 1.684 . S
C266 C247 1.723 . S
C266 C265 1.396 . S
C266 C267 1.394 . S
C267 C263 1.397 . S
C267 C266 1.394 . S
C267 C277 1.723 . S
C268 C265 1.453 . S
C268 H292 0.982 . S
C268 H293 0.979 . S
C268 H294 0.977 . S
C269 C265 1.684 . S
C269 H295 0.979 . S
C269 H296 0.980 . S
C269 H297 0.983 . S
C270 H246 0.948 . S
C270 C271 1.391 . S
C270 C275 1.391 . S
C271 C270 1.391 . S
C271 C272 1.391 . S
C272 H249 0.947 . S
C272 C271 1.391 . S
C272 C273 1.392 . S
C273 H250 0.948 . S
C273 C272 1.392 . S
C273 C274 1.419 . S
C274 C273 1.419 . S
C274 C275 1.391 . S
C274 C278 1.397 . S
C275 C270 1.391 . S
C275 C274 1.391 . S
C275 C276 1.399 . S
C276 C275 1.399 . S
C276 C277 1.396 . S
C276 C279 1.453 . S
C276 C280 1.684 . S
C277 C267 1.723 . S
C277 C276 1.396 . S
C277 C278 1.394 . S
C278 C248 1.723 . S
C278 C274 1.397 . S
C278 C277 1.394 . S
C279 H251 0.982 . S
C279 H255 0.979 . S
C279 H256 0.977 . S
C279 C276 1.453 . S
C280 H252 0.979 . S
C280 H253 0.980 . S
C280 H254 0.983 . S
C280 C276 1.684 . S
H281 C299 0.948 . S
H282 C240 0.948 . S
H283 C258 0.979 . S
H284 C258 0.980 . S
H285 C258 0.983 . S
H286 C257 0.982 . S
H287 C257 0.979 . S
H288 C257 0.977 . S
H289 C259 0.948 . S
H290 C261 0.947 . S
H291 C262 0.948 . S
H292 C268 0.982 . S
H293 C268 0.979 . S
H294 C268 0.977 . S
H295 C269 0.979 . S
H296 C269 0.980 . S
H297 C269 0.983 . S
H298 C242 0.947 . S
C299 C242 1.392 . S
C299 C243 1.419 . S
C299 H281 0.948 . S
C300 C301 1.391 . S
C300 C304 1.391 . S
C300 H342 0.948 . S
C301 C300 1.391 . S
C301 C302 1.391 . S
C302 C301 1.391 . S
C302 H358 0.947 . S
C302 C359 1.392 . S
C303 C304 1.391 . S
C303 C307 1.397 . S
C303 C359 1.419 . S
C304 C300 1.391 . S
C304 C303 1.391 . S
C304 C305 1.399 . S
C305 C304 1.399 . S
C305 C308 1.396 . S
C305 C317 1.453 . S
C305 C318 1.684 . S
H306 C330 0.948 . S
C307 C303 1.397 . S
C307 C308 1.394 . S
C307 C326 1.723 . S
C308 C305 1.396 . S
C308 C307 1.394 . S
C308 C338 1.723 . S
H309 C332 0.947 . S
H310 C333 0.948 . S
H311 C339 0.982 . S
H312 C340 0.979 . S
H313 C340 0.980 . S
H314 C340 0.983 . S
H315 C339 0.979 . S
H316 C339 0.977 . S
C317 C305 1.453 . S
C317 H346 0.982 . S
C317 H347 0.979 . S
C317 H348 0.977 . S
C318 C305 1.684 . S
C318 H343 0.979 . S
C318 H344 0.980 . S
C318 H345 0.983 . S
C319 C320 1.391 . S
C319 C324 1.391 . S
C319 H349 0.948 . S
C320 C319 1.391 . S
C320 C321 1.391 . S
C321 C320 1.391 . S
C321 C322 1.392 . S
C321 H350 0.947 . S
C322 C321 1.392 . S
C322 C323 1.419 . S
C322 H351 0.948 . S
C323 C322 1.419 . S
C323 C324 1.391 . S
C323 C327 1.397 . S
C324 C319 1.391 . S
C324 C323 1.391 . S
C324 C325 1.399 . S
C325 C324 1.399 . S
C325 C326 1.396 . S
C325 C328 1.453 . S
C325 C329 1.684 . S
C326 C307 1.723 . S
C326 C325 1.396 . S
C326 C327 1.394 . S
C327 C323 1.397 . S
C327 C326 1.394 . S
C327 C337 1.723 . S
C328 C325 1.453 . S
C328 H352 0.982 . S
C328 H353 0.979 . S
C328 H354 0.977 . S
C329 C325 1.684 . S
C329 H355 0.979 . S
C329 H356 0.980 . S
C329 H357 0.983 . S
C330 H306 0.948 . S
C330 C331 1.391 . S
C330 C335 1.391 . S
C331 C330 1.391 . S
C331 C332 1.391 . S
C332 H309 0.947 . S
C332 C331 1.391 . S
C332 C333 1.392 . S
C333 H310 0.948 . S
C333 C332 1.392 . S
C333 C334 1.419 . S
C334 C333 1.419 . S
C334 C335 1.391 . S
C334 C338 1.397 . S
C335 C330 1.391 . S
C335 C334 1.391 . S
C335 C336 1.399 . S
C336 C335 1.399 . S
C336 C337 1.396 . S
C336 C339 1.453 . S
C336 C340 1.684 . S
C337 C327 1.723 . S
C337 C336 1.396 . S
C337 C338 1.394 . S
C338 C308 1.723 . S
C338 C334 1.397 . S
C338 C337 1.394 . S
C339 H311 0.982 . S
C339 H315 0.979 . S
C339 H316 0.977 . S
C339 C336 1.453 . S
C340 H312 0.979 . S
C340 H313 0.980 . S
C340 H314 0.983 . S
C340 C336 1.684 . S
H341 C359 0.948 . S
H342 C300 0.948 . S
H343 C318 0.979 . S
H344 C318 0.980 . S
H345 C318 0.983 . S
H346 C317 0.982 . S
H347 C317 0.979 . S
H348 C317 0.977 . S
H349 C319 0.948 . S
H350 C321 0.947 . S
H351 C322 0.948 . S
H352 C328 0.982 . S
H353 C328 0.979 . S
H354 C328 0.977 . S
H355 C329 0.979 . S
H356 C329 0.980 . S
H357 C329 0.983 . S
H358 C302 0.947 . S
C359 C302 1.392 . S
C359 C303 1.419 . S
C359 H341 0.948 . S
C360 C361 1.391 . S
C360 C364 1.391 . S
C360 H402 0.948 . S
C361 C360 1.391 . S
C361 C362 1.391 . S
C362 C361 1.391 . S
C362 H418 0.947 . S
C362 C419 1.392 . S
C363 C364 1.391 . S
C363 C367 1.397 . S
C363 C419 1.419 . S
C364 C360 1.391 . S
C364 C363 1.391 . S
C364 C365 1.399 . S
C365 C364 1.399 . S
C365 C368 1.396 . S
C365 C377 1.453 . S
C365 C378 1.684 . S
H366 C390 0.948 . S
C367 C363 1.397 . S
C367 C368 1.394 . S
C367 C386 1.723 . S
C368 C365 1.396 . S
C368 C367 1.394 . S
C368 C398 1.723 . S
H369 C392 0.947 . S
H370 C393 0.948 . S
H371 C399 0.982 . S
H372 C400 0.979 . S
H373 C400 0.980 . S
H374 C400 0.983 . S
H375 C399 0.979 . S
H376 C399 0.977 . S
C377 C365 1.453 . S
C377 H406 0.982 . S
C377 H407 0.979 . S
C377 H408 0.977 . S
C378 C365 1.684 . S
C378 H403 0.979 . S
C378 H404 0.980 . S
C378 H405 0.983 . S
C379 C380 1.391 . S
C379 C384 1.391 . S
C379 H409 0.948 . S
C380 C379 1.391 . S
C380 C381 1.391 . S
C381 C380 1.391 . S
C381 C382 1.392 . S
C381 H410 0.947 . S
C382 C381 1.392 . S
C382 C383 1.419 . S
C382 H411 0.948 . S
C383 C382 1.419 . S
C383 C384 1.391 . S
C383 C387 1.397 . S
C384 C379 1.391 . S
C384 C383 1.391 . S
C384 C385 1.399 . S
C385 C384 1.399 . S
C385 C386 1.396 . S
C385 C388 1.453 . S
C385 C389 1.684 . S
C386 C367 1.723 . S
C386 C385 1.396 . S
C386 C387 1.394 . S
C387 C383 1.397 . S
C387 C386 1.394 . S
C387 C397 1.723 . S
C388 C385 1.453 . S
C388 H412 0.982 . S
C388 H413 0.979 . S
C388 H414 0.977 . S
C389 C385 1.684 . S
C389 H415 0.979 . S
C389 H416 0.980 . S
C389 H417 0.983 . S
C390 H366 0.948 . S
C390 C391 1.391 . S
C390 C395 1.391 . S
C391 C390 1.391 . S
C391 C392 1.391 . S
C392 H369 0.947 . S
C392 C391 1.391 . S
C392 C393 1.392 . S
C393 H370 0.948 . S
C393 C392 1.392 . S
C393 C394 1.419 . S
C394 C393 1.419 . S
C394 C395 1.391 . S
C394 C398 1.397 . S
C395 C390 1.391 . S
C395 C394 1.391 . S
C395 C396 1.399 . S
C396 C395 1.399 . S
C396 C397 1.396 . S
C396 C399 1.453 . S
C396 C400 1.684 . S
C397 C387 1.723 . S
C397 C396 1.396 . S
C397 C398 1.394 . S
C398 C368 1.723 . S
C398 C394 1.397 . S
C398 C397 1.394 . S
C399 H371 0.982 . S
C399 H375 0.979 . S
C399 H376 0.977 . S
C399 C396 1.453 . S
C400 H372 0.979 . S
C400 H373 0.980 . S
C400 H374 0.983 . S
C400 C396 1.684 . S
H401 C419 0.948 . S
H402 C360 0.948 . S
H403 C378 0.979 . S
H404 C378 0.980 . S
H405 C378 0.983 . S
H406 C377 0.982 . S
H407 C377 0.979 . S
H408 C377 0.977 . S
H409 C379 0.948 . S
H410 C381 0.947 . S
H411 C382 0.948 . S
H412 C388 0.982 . S
H413 C388 0.979 . S
H414 C388 0.977 . S
H415 C389 0.979 . S
H416 C389 0.980 . S
H417 C389 0.983 . S
H418 C362 0.947 . S
C419 C362 1.392 . S
C419 C363 1.419 . S
C419 H401 0.948 . S
C420 C421 1.391 . S
C420 C424 1.391 . S
C420 H462 0.948 . S
C421 C420 1.391 . S
C421 C422 1.391 . S
C422 C421 1.391 . S
C422 H478 0.947 . S
C422 C479 1.392 . S
C423 C424 1.391 . S
C423 C427 1.397 . S
C423 C479 1.419 . S
C424 C420 1.391 . S
C424 C423 1.391 . S
C424 C425 1.399 . S
C425 C424 1.399 . S
C425 C428 1.396 . S
C425 C437 1.453 . S
C425 C438 1.684 . S
H426 C450 0.948 . S
C427 C423 1.397 . S
C427 C428 1.394 . S
C427 C446 1.723 . S
C428 C425 1.396 . S
C428 C427 1.394 . S
C428 C458 1.723 . S
H429 C452 0.947 . S
H430 C453 0.948 . S
H431 C459 0.982 . S
H432 C460 0.979 . S
H433 C460 0.980 . S
H434 C460 0.983 . S
H435 C459 0.979 . S
H436 C459 0.977 . S
C437 C425 1.453 . S
C437 H466 0.982 . S
C437 H467 0.979 . S
C437 H468 0.977 . S
C438 C425 1.684 . S
C438 H463 0.979 . S
C438 H464 0.980 . S
C438 H465 0.983 . S
C439 C440 1.391 . S
C439 C444 1.391 . S
C439 H469 0.948 . S
C440 C439 1.391 . S
C440 C441 1.391 . S
C441 C440 1.391 . S
C441 C442 1.392 . S
C441 H470 0.947 . S
C442 C441 1.392 . S
C442 C443 1.419 . S
C442 H471 0.948 . S
C443 C442 1.419 . S
C443 C444 1.391 . S
C443 C447 1.397 . S
C444 C439 1.391 . S
C444 C443 1.391 . S
C444 C445 1.399 . S
C445 C444 1.399 . S
C445 C446 1.396 . S
C445 C448 1.453 . S
C445 C449 1.684 . S
C446 C427 1.723 . S
C446 C445 1.396 . S
C446 C447 1.394 . S
C447 C443 1.397 . S
C447 C446 1.394 . S
C447 C457 1.723 . S
C448 C445 1.453 . S
C448 H472 0.982 . S
C448 H473 0.979 . S
C448 H474 0.977 . S
C449 C445 1.684 . S
C449 H475 0.979 . S
C449 H476 0.980 . S
C449 H477 0.983 . S
C450 H426 0.948 . S
C450 C451 1.391 . S
C450 C455 1.391 . S
C451 C450 1.391 . S
C451 C452 1.391 . S
C452 H429 0.947 . S
C452 C451 1.391 . S
C452 C453 1.392 . S
C453 H430 0.948 . S
C453 C452 1.392 . S
C453 C454 1.419 . S
C454 C453 1.419 . S
C454 C455 1.391 . S
C454 C458 1.397 . S
C455 C450 1.391 . S
C455 C454 1.391 . S
C455 C456 1.399 . S
C456 C455 1.399 . S
C456 C457 1.396 . S
C456 C459 1.453 . S
C456 C460 1.684 . S
C457 C447 1.723 . S
C457 C456 1.396 . S
C457 C458 1.394 . S
C458 C428 1.723 . S
C458 C454 1.397 . S
C458 C457 1.394 . S
C459 H431 0.982 . S
C459 H435 0.979 . S
C459 H436 0.977 . S
C459 C456 1.453 . S
C460 H432 0.979 . S
C460 H433 0.980 . S
C460 H434 0.983 . S
C460 C456 1.684 . S
H461 C479 0.948 . S
H462 C420 0.948 . S
H463 C438 0.979 . S
H464 C438 0.980 . S
H465 C438 0.983 . S
H466 C437 0.982 . S
H467 C437 0.979 . S
H468 C437 0.977 . S
H469 C439 0.948 . S
H470 C441 0.947 . S
H471 C442 0.948 . S
H472 C448 0.982 . S
H473 C448 0.979 . S
H474 C448 0.977 . S
H475 C449 0.979 . S
H476 C449 0.980 . S
H477 C449 0.983 . S
H478 C422 0.947 . S
C479 C422 1.392 . S
C479 C423 1.419 . S
C479 H461 0.948 . S
Tb480 C482 2.809 . S
Tb480 O500 2.484 . S
Tb480 O501 2.440 . S
Tb480 O502 2.658 1_665 S
Tb480 O503 2.409 1_565 S
Tb480 O504 2.378 1_655 S
Tb480 O508 2.325 . S
Tb480 O511 2.341 1_565 S
Tb481 C491 2.809 . S
Tb481 O502 2.325 . S
Tb481 O505 2.341 1_545 S
Tb481 O506 2.484 . S
Tb481 O507 2.440 . S
Tb481 O508 2.658 1_445 S
Tb481 O509 2.409 1_545 S
Tb481 O510 2.378 1_455 S
C482 Tb480 2.809 . S
C482 C483 1.514 . S
C482 O500 1.248 . S
C482 O501 1.266 . S
C483 C482 1.514 . S
C483 C484 1.359 . S
C483 C488 1.348 . S
C484 C483 1.359 . S
C484 C485 1.380 . S
C484 H512 0.929 . S
C485 C484 1.380 . S
C485 C486 1.347 . S
C485 H513 0.931 . S
C486 C485 1.347 . S
C486 C487 1.369 . S
C487 C486 1.369 . S
C487 C488 1.408 . S
C487 H514 0.930 . S
C488 C483 1.348 . S
C488 C487 1.408 . S
C488 H515 0.930 . S
C489 O502 1.281 . S
C489 O503 1.254 1_455 S
C490 O504 1.236 . S
C490 O505 1.266 . S
C491 Tb481 2.809 . S
C491 C492 1.514 . S
C491 O506 1.248 . S
C491 O507 1.266 . S
C492 C491 1.514 . S
C492 C493 1.359 . S
C492 C497 1.348 . S
C493 C492 1.359 . S
C493 C494 1.380 . S
C493 H516 0.929 . S
C494 C493 1.380 . S
C494 C495 1.347 . S
C494 H517 0.931 . S
C495 C494 1.347 . S
C495 C496 1.369 . S
C496 C495 1.369 . S
C496 C497 1.408 . S
C496 H518 0.930 . S
C497 C492 1.348 . S
C497 C496 1.408 . S
C497 H519 0.930 . S
C498 O508 1.281 . S
C498 O509 1.254 1_655 S
C499 O510 1.236 . S
C499 O511 1.266 . S
O500 Tb480 2.484 . S
O500 C482 1.248 . S
O501 Tb480 2.440 . S
O501 C482 1.266 . S
O502 Tb480 2.658 1_445 S
O502 Tb481 2.325 . S
O502 C489 1.281 . S
O503 Tb480 2.409 1_545 S
O503 C489 1.254 1_655 S
O504 Tb480 2.378 1_455 S
O504 C490 1.236 . S
O505 Tb481 2.341 1_565 S
O505 C490 1.266 . S
O506 Tb481 2.484 . S
O506 C491 1.248 . S
O507 Tb481 2.440 . S
O507 C491 1.266 . S
O508 Tb480 2.325 . S
O508 Tb481 2.658 1_665 S
O508 C498 1.281 . S
O509 Tb481 2.409 1_565 S
O509 C498 1.254 1_455 S
O510 Tb481 2.378 1_655 S
O510 C499 1.236 . S
O511 Tb480 2.341 1_545 S
O511 C499 1.266 . S
H512 C484 0.929 . S
H513 C485 0.931 . S
H514 C487 0.930 . S
H515 C488 0.930 . S
H516 C493 0.929 . S
H517 C494 0.931 . S
H518 C496 0.930 . S
H519 C497 0.930 . S
Tb520 C522 2.809 . S
Tb520 O540 2.484 . S
Tb520 O541 2.440 . S
Tb520 O542 2.658 1_545 S
Tb520 O543 2.409 1_545 S
Tb520 O544 2.378 . S
Tb520 O548 2.325 1_554 S
Tb520 O551 2.341 1_544 S
Tb521 C531 2.809 . S
Tb521 O542 2.325 1_556 S
Tb521 O545 2.341 1_566 S
Tb521 O546 2.484 . S
Tb521 O547 2.440 . S
Tb521 O548 2.658 1_565 S
Tb521 O549 2.409 1_565 S
Tb521 O550 2.378 . S
C522 Tb520 2.809 . S
C522 C523 1.514 . S
C522 O540 1.248 . S
C522 O541 1.266 . S
C523 C522 1.514 . S
C523 C524 1.359 . S
C523 C528 1.348 . S
C524 C523 1.359 . S
C524 C525 1.380 . S
C524 H552 0.929 . S
C525 C524 1.380 . S
C525 C526 1.347 . S
C525 H553 0.931 . S
C526 C525 1.347 . S
C526 C527 1.369 . S
C527 C526 1.369 . S
C527 C528 1.408 . S
C527 H554 0.930 . S
C528 C523 1.348 . S
C528 C527 1.408 . S
C528 H555 0.930 . S
C529 O542 1.281 . S
C529 O543 1.254 . S
C530 O544 1.236 . S
C530 O545 1.266 . S
C531 Tb521 2.809 . S
C531 C532 1.514 . S
C531 O546 1.248 . S
C531 O547 1.266 . S
C532 C531 1.514 . S
C532 C533 1.359 . S
C532 C537 1.348 . S
C533 C532 1.359 . S
C533 C534 1.380 . S
C533 H556 0.929 . S
C534 C533 1.380 . S
C534 C535 1.347 . S
C534 H557 0.931 . S
C535 C534 1.347 . S
C535 C536 1.369 . S
C536 C535 1.369 . S
C536 C537 1.408 . S
C536 H558 0.930 . S
C537 C532 1.348 . S
C537 C536 1.408 . S
C537 H559 0.930 . S
C538 O548 1.281 . S
C538 O549 1.254 . S
C539 O550 1.236 . S
C539 O551 1.266 . S
O540 Tb520 2.484 . S
O540 C522 1.248 . S
O541 Tb520 2.440 . S
O541 C522 1.266 . S
O542 Tb520 2.658 1_565 S
O542 Tb521 2.325 1_554 S
O542 C529 1.281 . S
O543 Tb520 2.409 1_565 S
O543 C529 1.254 . S
O544 Tb520 2.378 . S
O544 C530 1.236 . S
O545 Tb521 2.341 1_544 S
O545 C530 1.266 . S
O546 Tb521 2.484 . S
O546 C531 1.248 . S
O547 Tb521 2.440 . S
O547 C531 1.266 . S
O548 Tb520 2.325 1_556 S
O548 Tb521 2.658 1_545 S
O548 C538 1.281 . S
O549 Tb521 2.409 1_545 S
O549 C538 1.254 . S
O550 Tb521 2.378 . S
O550 C539 1.236 . S
O551 Tb520 2.341 1_566 S
O551 C539 1.266 . S
H552 C524 0.929 . S
H553 C525 0.931 . S
H554 C527 0.930 . S
H555 C528 0.930 . S
H556 C533 0.929 . S
H557 C534 0.931 . S
H558 C536 0.930 . S
H559 C537 0.930 . S
Tb560 C562 2.809 . S
Tb560 O580 2.484 . S
Tb560 O581 2.440 . S
Tb560 O582 2.658 . S
Tb560 O583 2.409 . S
Tb560 O584 2.378 . S
Tb560 O588 2.325 . S
Tb560 O591 2.341 . S
Tb561 C571 2.809 . S
Tb561 O582 2.325 . S
Tb561 O585 2.341 . S
Tb561 O586 2.484 . S
Tb561 O587 2.440 . S
Tb561 O588 2.658 . S
Tb561 O589 2.409 . S
Tb561 O590 2.378 . S
C562 Tb560 2.809 . S
C562 C563 1.514 . S
C562 O580 1.248 . S
C562 O581 1.266 . S
C563 C562 1.514 . S
C563 C564 1.359 . S
C563 C568 1.348 . S
C564 C563 1.359 . S
C564 C565 1.380 . S
C564 H592 0.929 . S
C565 C564 1.380 . S
C565 C566 1.347 . S
C565 H593 0.931 . S
C566 C565 1.347 . S
C566 C567 1.369 . S
C567 C566 1.369 . S
C567 C568 1.408 . S
C567 H594 0.930 . S
C568 C563 1.348 . S
C568 C567 1.408 . S
C568 H595 0.930 . S
C569 O582 1.281 . S
C569 O583 1.254 . S
C570 O584 1.236 . S
C570 O585 1.266 . S
C571 Tb561 2.809 . S
C571 C572 1.514 . S
C571 O586 1.248 . S
C571 O587 1.266 . S
C572 C571 1.514 . S
C572 C573 1.359 . S
C572 C577 1.348 . S
C573 C572 1.359 . S
C573 C574 1.380 . S
C573 H596 0.929 . S
C574 C573 1.380 . S
C574 C575 1.347 . S
C574 H597 0.931 . S
C575 C574 1.347 . S
C575 C576 1.369 . S
C576 C575 1.369 . S
C576 C577 1.408 . S
C576 H598 0.930 . S
C577 C572 1.348 . S
C577 C576 1.408 . S
C577 H599 0.930 . S
C578 O588 1.281 . S
C578 O589 1.254 . S
C579 O590 1.236 . S
C579 O591 1.266 . S
O580 Tb560 2.484 . S
O580 C562 1.248 . S
O581 Tb560 2.440 . S
O581 C562 1.266 . S
O582 Tb560 2.658 . S
O582 Tb561 2.325 . S
O582 C569 1.281 . S
O583 Tb560 2.409 . S
O583 C569 1.254 . S
O584 Tb560 2.378 . S
O584 C570 1.236 . S
O585 Tb561 2.341 . S
O585 C570 1.266 . S
O586 Tb561 2.484 . S
O586 C571 1.248 . S
O587 Tb561 2.440 . S
O587 C571 1.266 . S
O588 Tb560 2.325 . S
O588 Tb561 2.658 . S
O588 C578 1.281 . S
O589 Tb561 2.409 . S
O589 C578 1.254 . S
O590 Tb561 2.378 . S
O590 C579 1.236 . S
O591 Tb560 2.341 . S
O591 C579 1.266 . S
H592 C564 0.929 . S
H593 C565 0.931 . S
H594 C567 0.930 . S
H595 C568 0.930 . S
H596 C573 0.929 . S
H597 C574 0.931 . S
H598 C576 0.930 . S
H599 C577 0.930 . S
Tb600 C602 2.809 . S
Tb600 O620 2.484 . S
Tb600 O621 2.440 . S
Tb600 O622 2.658 1_656 S
Tb600 O623 2.408 1_656 S
Tb600 O624 2.378 1_556 S
Tb600 O628 2.325 . S
Tb600 O631 2.341 1_655 S
Tb601 C611 2.809 . S
Tb601 O622 2.325 . S
Tb601 O625 2.341 1_455 S
Tb601 O626 2.484 . S
Tb601 O627 2.440 . S
Tb601 O628 2.658 1_454 S
Tb601 O629 2.408 1_455 S
Tb601 O630 2.378 1_554 S
C602 Tb600 2.809 . S
C602 C603 1.514 . S
C602 O620 1.248 . S
C602 O621 1.266 . S
C603 C602 1.514 . S
C603 C604 1.359 . S
C603 C608 1.348 . S
C604 C603 1.359 . S
C604 C605 1.380 . S
C604 H632 0.929 . S
C605 C604 1.380 . S
C605 C606 1.347 . S
C605 H633 0.931 . S
C606 C605 1.347 . S
C606 C607 1.369 . S
C607 C606 1.369 . S
C607 C608 1.408 . S
C607 H634 0.930 . S
C608 C603 1.348 . S
C608 C607 1.408 . S
C608 H635 0.930 . S
C609 O622 1.281 . S
C609 O623 1.255 . S
C610 O624 1.236 . S
C610 O625 1.266 . S
C611 Tb601 2.809 . S
C611 C612 1.514 . S
C611 O626 1.248 . S
C611 O627 1.266 . S
C612 C611 1.514 . S
C612 C613 1.359 . S
C612 C617 1.348 . S
C613 C612 1.359 . S
C613 C614 1.380 . S
C613 H636 0.929 . S
C614 C613 1.380 . S
C614 C615 1.347 . S
C614 H637 0.931 . S
C615 C614 1.347 . S
C615 C616 1.369 . S
C616 C615 1.369 . S
C616 C617 1.408 . S
C616 H638 0.930 . S
C617 C612 1.348 . S
C617 C616 1.408 . S
C617 H639 0.930 . S
C618 O628 1.281 . S
C618 O629 1.255 1_556 S
C619 O630 1.236 . S
C619 O631 1.266 . S
O620 Tb600 2.484 . S
O620 C602 1.248 . S
O621 Tb600 2.440 . S
O621 C602 1.266 . S
O622 Tb600 2.658 1_454 S
O622 Tb601 2.325 . S
O622 C609 1.281 . S
O623 Tb600 2.408 1_454 S
O623 C609 1.255 . S
O624 Tb600 2.378 1_554 S
O624 C610 1.236 . S
O625 Tb601 2.341 1_655 S
O625 C610 1.266 . S
O626 Tb601 2.484 . S
O626 C611 1.248 . S
O627 Tb601 2.440 . S
O627 C611 1.266 . S
O628 Tb600 2.325 . S
O628 Tb601 2.658 1_656 S
O628 C618 1.281 . S
O629 Tb601 2.408 1_655 S
O629 C618 1.255 1_554 S
O630 Tb601 2.378 1_556 S
O630 C619 1.236 . S
O631 Tb600 2.341 1_455 S
O631 C619 1.266 . S
H632 C604 0.929 . S
H633 C605 0.931 . S
H634 C607 0.930 . S
H635 C608 0.930 . S
H636 C613 0.929 . S
H637 C614 0.931 . S
H638 C616 0.930 . S
H639 C617 0.930 . S
H640 C652 0.930 . S
H641 C654 0.930 . S
H642 C655 0.930 . S
H643 C659 0.959 . S
H644 C659 0.959 . S
H645 C659 0.961 . S
H646 C660 0.960 . S
H647 C660 0.961 . S
H648 C660 0.959 . S
H649 C663 0.929 . S
H650 C664 0.931 . S
H651 C666 0.930 . S
C652 H640 0.930 . S
C652 C653 1.399 . S
C652 C657 1.399 . S
C653 C652 1.399 . S
C653 C654 1.376 . S
C654 H641 0.930 . S
C654 C653 1.376 . S
C654 C655 1.388 . S
C655 H642 0.930 . S
C655 C654 1.388 . S
C655 C656 1.390 . S
C656 C655 1.390 . S
C656 C657 1.394 . S
C656 C662 1.465 . S
C657 C652 1.399 . S
C657 C656 1.394 . S
C657 C658 1.516 . S
C658 C657 1.516 . S
C658 C659 1.502 . S
C658 C660 1.561 . S
C658 C661 1.526 . S
C659 H643 0.959 . S
C659 H644 0.959 . S
C659 H645 0.961 . S
C659 C658 1.502 . S
C660 H646 0.960 . S
C660 H647 0.961 . S
C660 H648 0.959 . S
C660 C658 1.561 . S
C661 C658 1.526 . S
C661 C662 1.396 . S
C661 C666 1.390 . S
C662 C656 1.465 . S
C662 C661 1.396 . S
C662 C663 1.399 . S
C663 H649 0.929 . S
C663 C662 1.399 . S
C663 C664 1.385 . S
C664 H650 0.931 . S
C664 C663 1.385 . S
C664 C665 1.389 . S
C665 C664 1.389 . S
C665 C666 1.387 . S
C666 H651 0.930 . S
C666 C661 1.390 . S
C666 C665 1.387 . S
H667 C679 0.930 . S
H668 C681 0.930 . S
H669 C682 0.930 . S
H670 C686 0.959 . S
H671 C686 0.959 . S
H672 C686 0.961 . S
H673 C687 0.960 . S
H674 C687 0.961 . S
H675 C687 0.959 . S
H676 C690 0.929 . S
H677 C691 0.931 . S
H678 C693 0.930 . S
C679 H667 0.930 . S
C679 C680 1.399 . S
C679 C684 1.399 . S
C680 C679 1.399 . S
C680 C681 1.376 . S
C681 H668 0.930 . S
C681 C680 1.376 . S
C681 C682 1.388 . S
C682 H669 0.930 . S
C682 C681 1.388 . S
C682 C683 1.390 . S
C683 C682 1.390 . S
C683 C684 1.394 . S
C683 C689 1.465 . S
C684 C679 1.399 . S
C684 C683 1.394 . S
C684 C685 1.516 . S
C685 C684 1.516 . S
C685 C686 1.502 . S
C685 C687 1.561 . S
C685 C688 1.526 . S
C686 H670 0.959 . S
C686 H671 0.959 . S
C686 H672 0.961 . S
C686 C685 1.502 . S
C687 H673 0.960 . S
C687 H674 0.961 . S
C687 H675 0.959 . S
C687 C685 1.561 . S
C688 C685 1.526 . S
C688 C689 1.396 . S
C688 C693 1.390 . S
C689 C683 1.465 . S
C689 C688 1.396 . S
C689 C690 1.399 . S
C690 H676 0.929 . S
C690 C689 1.399 . S
C690 C691 1.385 . S
C691 H677 0.931 . S
C691 C690 1.385 . S
C691 C692 1.389 . S
C692 C691 1.389 . S
C692 C693 1.387 . S
C693 H678 0.930 . S
C693 C688 1.390 . S
C693 C692 1.387 . S
H694 C706 0.930 . S
H695 C708 0.930 . S
H696 C709 0.930 . S
H697 C713 0.959 . S
H698 C713 0.959 . S
H699 C713 0.961 . S
H700 C714 0.960 . S
H701 C714 0.961 . S
H702 C714 0.959 . S
H703 C717 0.929 . S
H704 C718 0.931 . S
H705 C720 0.930 . S
C706 H694 0.930 . S
C706 C707 1.399 . S
C706 C711 1.399 . S
C707 C706 1.399 . S
C707 C708 1.376 . S
C708 H695 0.930 . S
C708 C707 1.376 . S
C708 C709 1.388 . S
C709 H696 0.930 . S
C709 C708 1.388 . S
C709 C710 1.390 . S
C710 C709 1.390 . S
C710 C711 1.394 . S
C710 C716 1.465 . S
C711 C706 1.399 . S
C711 C710 1.394 . S
C711 C712 1.516 . S
C712 C711 1.516 . S
C712 C713 1.502 . S
C712 C714 1.561 . S
C712 C715 1.526 . S
C713 H697 0.959 . S
C713 H698 0.959 . S
C713 H699 0.961 . S
C713 C712 1.502 . S
C714 H700 0.960 . S
C714 H701 0.961 . S
C714 H702 0.959 . S
C714 C712 1.561 . S
C715 C712 1.526 . S
C715 C716 1.396 . S
C715 C720 1.390 . S
C716 C710 1.465 . S
C716 C715 1.396 . S
C716 C717 1.399 . S
C717 H703 0.929 . S
C717 C716 1.399 . S
C717 C718 1.385 . S
C718 H704 0.931 . S
C718 C717 1.385 . S
C718 C719 1.389 . S
C719 C718 1.389 . S
C719 C720 1.387 . S
C720 H705 0.930 . S
C720 C715 1.390 . S
C720 C719 1.387 . S
H721 C733 0.930 . S
H722 C735 0.930 . S
H723 C736 0.930 . S
H724 C740 0.959 . S
H725 C740 0.959 . S
H726 C740 0.961 . S
H727 C741 0.960 . S
H728 C741 0.961 . S
H729 C741 0.959 . S
H730 C744 0.929 . S
H731 C745 0.931 . S
H732 C747 0.930 . S
C733 H721 0.930 . S
C733 C734 1.399 . S
C733 C738 1.399 . S
C734 C733 1.399 . S
C734 C735 1.376 . S
C735 H722 0.930 . S
C735 C734 1.376 . S
C735 C736 1.388 . S
C736 H723 0.930 . S
C736 C735 1.388 . S
C736 C737 1.390 . S
C737 C736 1.390 . S
C737 C738 1.394 . S
C737 C743 1.465 . S
C738 C733 1.399 . S
C738 C737 1.394 . S
C738 C739 1.516 . S
C739 C738 1.516 . S
C739 C740 1.502 . S
C739 C741 1.561 . S
C739 C742 1.526 . S
C740 H724 0.959 . S
C740 H725 0.959 . S
C740 H726 0.961 . S
C740 C739 1.502 . S
C741 H727 0.960 . S
C741 H728 0.961 . S
C741 H729 0.959 . S
C741 C739 1.561 . S
C742 C739 1.526 . S
C742 C743 1.396 . S
C742 C747 1.390 . S
C743 C737 1.465 . S
C743 C742 1.396 . S
C743 C744 1.399 . S
C744 H730 0.929 . S
C744 C743 1.399 . S
C744 C745 1.385 . S
C745 H731 0.931 . S
C745 C744 1.385 . S
C745 C746 1.389 . S
C746 C745 1.389 . S
C746 C747 1.387 . S
C747 H732 0.930 . S
C747 C742 1.390 . S
C747 C746 1.387 . S
H748 C760 0.930 . S
H749 C762 0.930 . S
H750 C763 0.930 . S
H751 C767 0.959 . S
H752 C767 0.959 . S
H753 C767 0.961 . S
H754 C768 0.960 . S
H755 C768 0.961 . S
H756 C768 0.959 . S
H757 C771 0.929 . S
H758 C772 0.931 . S
H759 C774 0.930 . S
C760 H748 0.930 . S
C760 C761 1.399 . S
C760 C765 1.399 . S
C761 C760 1.399 . S
C761 C762 1.376 . S
C762 H749 0.930 . S
C762 C761 1.376 . S
C762 C763 1.388 . S
C763 H750 0.930 . S
C763 C762 1.388 . S
C763 C764 1.390 . S
C764 C763 1.390 . S
C764 C765 1.394 . S
C764 C770 1.465 . S
C765 C760 1.399 . S
C765 C764 1.394 . S
C765 C766 1.516 . S
C766 C765 1.516 . S
C766 C767 1.502 . S
C766 C768 1.561 . S
C766 C769 1.526 . S
C767 H751 0.959 . S
C767 H752 0.959 . S
C767 H753 0.961 . S
C767 C766 1.502 . S
C768 H754 0.960 . S
C768 H755 0.961 . S
C768 H756 0.959 . S
C768 C766 1.561 . S
C769 C766 1.526 . S
C769 C770 1.396 . S
C769 C774 1.390 . S
C770 C764 1.465 . S
C770 C769 1.396 . S
C770 C771 1.399 . S
C771 H757 0.929 . S
C771 C770 1.399 . S
C771 C772 1.385 . S
C772 H758 0.931 . S
C772 C771 1.385 . S
C772 C773 1.389 . S
C773 C772 1.389 . S
C773 C774 1.387 . S
C774 H759 0.930 . S
C774 C769 1.390 . S
C774 C773 1.387 . S
H775 C787 0.930 . S
H776 C789 0.930 . S
H777 C790 0.930 . S
H778 C794 0.959 . S
H779 C794 0.959 . S
H780 C794 0.961 . S
H781 C795 0.960 . S
H782 C795 0.961 . S
H783 C795 0.959 1_655 S
H784 C798 0.929 . S
H785 C799 0.931 . S
H786 C801 0.930 . S
C787 H775 0.930 . S
C787 C788 1.399 . S
C787 C792 1.399 . S
C788 C787 1.399 . S
C788 C789 1.376 . S
C789 H776 0.930 . S
C789 C788 1.376 . S
C789 C790 1.388 . S
C790 H777 0.930 . S
C790 C789 1.388 . S
C790 C791 1.390 . S
C791 C790 1.390 . S
C791 C792 1.394 . S
C791 C797 1.465 . S
C792 C787 1.399 . S
C792 C791 1.394 . S
C792 C793 1.516 . S
C793 C792 1.516 . S
C793 C794 1.502 . S
C793 C795 1.561 . S
C793 C796 1.526 . S
C794 H778 0.959 . S
C794 H779 0.959 . S
C794 H780 0.961 . S
C794 C793 1.502 . S
C795 H781 0.960 . S
C795 H782 0.961 . S
C795 H783 0.959 1_455 S
C795 C793 1.561 . S
C796 C793 1.526 . S
C796 C797 1.396 . S
C796 C801 1.390 . S
C797 C791 1.465 . S
C797 C796 1.396 . S
C797 C798 1.399 . S
C798 H784 0.929 . S
C798 C797 1.399 . S
C798 C799 1.385 . S
C799 H785 0.931 . S
C799 C798 1.385 . S
C799 C800 1.389 . S
C800 C799 1.389 . S
C800 C801 1.387 . S
C801 H786 0.930 . S
C801 C796 1.390 . S
C801 C800 1.387 . S
H802 C814 0.930 . S
H803 C816 0.930 . S
H804 C817 0.930 . S
H805 C821 0.959 . S
H806 C821 0.959 . S
H807 C821 0.961 . S
H808 C822 0.960 . S
H809 C822 0.961 . S
H810 C822 0.959 . S
H811 C825 0.929 . S
H812 C826 0.931 . S
H813 C828 0.930 . S
C814 H802 0.930 . S
C814 C815 1.399 . S
C814 C819 1.399 . S
C815 C814 1.399 . S
C815 C816 1.376 . S
C816 H803 0.930 . S
C816 C815 1.376 . S
C816 C817 1.388 . S
C817 H804 0.930 . S
C817 C816 1.388 . S
C817 C818 1.390 . S
C818 C817 1.390 . S
C818 C819 1.394 . S
C818 C824 1.465 . S
C819 C814 1.399 . S
C819 C818 1.394 . S
C819 C820 1.516 . S
C820 C819 1.516 . S
C820 C821 1.502 . S
C820 C822 1.561 . S
C820 C823 1.526 . S
C821 H805 0.959 . S
C821 H806 0.959 . S
C821 H807 0.961 . S
C821 C820 1.502 . S
C822 H808 0.960 . S
C822 H809 0.961 . S
C822 H810 0.959 . S
C822 C820 1.561 . S
C823 C820 1.526 . S
C823 C824 1.396 . S
C823 C828 1.390 . S
C824 C818 1.465 . S
C824 C823 1.396 . S
C824 C825 1.399 . S
C825 H811 0.929 . S
C825 C824 1.399 . S
C825 C826 1.385 . S
C826 H812 0.931 . S
C826 C825 1.385 . S
C826 C827 1.389 . S
C827 C826 1.389 . S
C827 C828 1.387 . S
C828 H813 0.930 . S
C828 C823 1.390 . S
C828 C827 1.387 . S
H829 C841 0.930 . S
H830 C843 0.930 . S
H831 C844 0.930 . S
H832 C848 0.959 . S
H833 C848 0.959 . S
H834 C848 0.961 . S
H835 C849 0.960 . S
H836 C849 0.961 . S
H837 C849 0.959 . S
H838 C852 0.929 . S
H839 C853 0.931 . S
H840 C855 0.930 . S
C841 H829 0.930 . S
C841 C842 1.399 . S
C841 C846 1.399 . S
C842 C841 1.399 . S
C842 C843 1.376 . S
C843 H830 0.930 . S
C843 C842 1.376 . S
C843 C844 1.388 . S
C844 H831 0.930 . S
C844 C843 1.388 . S
C844 C845 1.390 . S
C845 C844 1.390 . S
C845 C846 1.394 . S
C845 C851 1.465 . S
C846 C841 1.399 . S
C846 C845 1.394 . S
C846 C847 1.516 . S
C847 C846 1.516 . S
C847 C848 1.502 . S
C847 C849 1.561 . S
C847 C850 1.526 . S
C848 H832 0.959 . S
C848 H833 0.959 . S
C848 H834 0.961 . S
C848 C847 1.502 . S
C849 H835 0.960 . S
C849 H836 0.961 . S
C849 H837 0.959 . S
C849 C847 1.561 . S
C850 C847 1.526 . S
C850 C851 1.396 . S
C850 C855 1.390 . S
C851 C845 1.465 . S
C851 C850 1.396 . S
C851 C852 1.399 . S
C852 H838 0.929 . S
C852 C851 1.399 . S
C852 C853 1.385 . S
C853 H839 0.931 . S
C853 C852 1.385 . S
C853 C854 1.389 . S
C854 C853 1.389 . S
C854 C855 1.387 . S
C855 H840 0.930 . S
C855 C850 1.390 . S
C855 C854 1.387 . S
H856 C868 0.930 . S
H857 C870 0.930 . S
H858 C871 0.930 . S
H859 C875 0.959 . S
H860 C875 0.959 . S
H861 C875 0.961 . S
H862 C876 0.960 . S
H863 C876 0.961 . S
H864 C876 0.959 . S
H865 C879 0.929 . S
H866 C880 0.931 . S
H867 C882 0.930 . S
C868 H856 0.930 . S
C868 C869 1.399 . S
C868 C873 1.399 . S
C869 C868 1.399 . S
C869 C870 1.376 . S
C870 H857 0.930 . S
C870 C869 1.376 . S
C870 C871 1.388 . S
C871 H858 0.930 . S
C871 C870 1.388 . S
C871 C872 1.390 . S
C872 C871 1.390 . S
C872 C873 1.394 . S
C872 C878 1.465 . S
C873 C868 1.399 . S
C873 C872 1.394 . S
C873 C874 1.516 . S
C874 C873 1.516 . S
C874 C875 1.502 . S
C874 C876 1.561 . S
C874 C877 1.526 . S
C875 H859 0.959 . S
C875 H860 0.959 . S
C875 H861 0.961 . S
C875 C874 1.502 . S
C876 H862 0.960 . S
C876 H863 0.961 . S
C876 H864 0.959 . S
C876 C874 1.561 . S
C877 C874 1.526 . S
C877 C878 1.396 . S
C877 C882 1.390 . S
C878 C872 1.465 . S
C878 C877 1.396 . S
C878 C879 1.399 . S
C879 H865 0.929 . S
C879 C878 1.399 . S
C879 C880 1.385 . S
C880 H866 0.931 . S
C880 C879 1.385 . S
C880 C881 1.389 . S
C881 C880 1.389 . S
C881 C882 1.387 . S
C882 H867 0.930 . S
C882 C877 1.390 . S
C882 C881 1.387 . S
H883 C895 0.930 . S
H884 C897 0.930 . S
H885 C898 0.930 . S
H886 C902 0.959 . S
H887 C902 0.959 . S
H888 C902 0.961 . S
H889 C903 0.960 . S
H890 C903 0.961 . S
H891 C903 0.959 . S
H892 C906 0.929 . S
H893 C907 0.931 . S
H894 C909 0.930 . S
C895 H883 0.930 . S
C895 C896 1.399 . S
C895 C900 1.399 . S
C896 C895 1.399 . S
C896 C897 1.376 . S
C897 H884 0.930 . S
C897 C896 1.376 . S
C897 C898 1.388 . S
C898 H885 0.930 . S
C898 C897 1.388 . S
C898 C899 1.390 . S
C899 C898 1.390 . S
C899 C900 1.394 . S
C899 C905 1.465 . S
C900 C895 1.399 . S
C900 C899 1.394 . S
C900 C901 1.516 . S
C901 C900 1.516 . S
C901 C902 1.502 . S
C901 C903 1.561 . S
C901 C904 1.526 . S
C902 H886 0.959 . S
C902 H887 0.959 . S
C902 H888 0.961 . S
C902 C901 1.502 . S
C903 H889 0.960 . S
C903 H890 0.961 . S
C903 H891 0.959 . S
C903 C901 1.561 . S
C904 C901 1.526 . S
C904 C905 1.396 . S
C904 C909 1.390 . S
C905 C899 1.465 . S
C905 C904 1.396 . S
C905 C906 1.399 . S
C906 H892 0.929 . S
C906 C905 1.399 . S
C906 C907 1.385 . S
C907 H893 0.931 . S
C907 C906 1.385 . S
C907 C908 1.389 . S
C908 C907 1.389 . S
C908 C909 1.387 . S
C909 H894 0.930 . S
C909 C904 1.390 . S
C909 C908 1.387 . S
H910 C922 0.930 . S
H911 C924 0.930 . S
H912 C925 0.930 . S
H913 C929 0.959 . S
H914 C929 0.959 . S
H915 C929 0.961 . S
H916 C930 0.960 . S
H917 C930 0.961 1_455 S
H918 C930 0.959 . S
H919 C933 0.929 . S
H920 C934 0.931 . S
H921 C936 0.930 . S
C922 H910 0.930 . S
C922 C923 1.399 . S
C922 C927 1.399 . S
C923 C922 1.399 . S
C923 C924 1.376 . S
C924 H911 0.930 . S
C924 C923 1.376 . S
C924 C925 1.388 . S
C925 H912 0.930 . S
C925 C924 1.388 . S
C925 C926 1.390 . S
C926 C925 1.390 . S
C926 C927 1.394 . S
C926 C932 1.465 . S
C927 C922 1.399 . S
C927 C926 1.394 . S
C927 C928 1.516 . S
C928 C927 1.516 . S
C928 C929 1.502 . S
C928 C930 1.561 . S
C928 C931 1.526 . S
C929 H913 0.959 . S
C929 H914 0.959 . S
C929 H915 0.961 . S
C929 C928 1.502 . S
C930 H916 0.960 . S
C930 H917 0.961 1_655 S
C930 H918 0.959 . S
C930 C928 1.561 . S
C931 C928 1.526 . S
C931 C932 1.396 . S
C931 C936 1.390 . S
C932 C926 1.465 . S
C932 C931 1.396 . S
C932 C933 1.399 . S
C933 H919 0.929 . S
C933 C932 1.399 . S
C933 C934 1.385 . S
C934 H920 0.931 . S
C934 C933 1.385 . S
C934 C935 1.389 . S
C935 C934 1.389 . S
C935 C936 1.387 . S
C936 H921 0.930 . S
C936 C931 1.390 . S
C936 C935 1.387 . S
H937 C949 0.930 . S
H938 C951 0.930 . S
H939 C952 0.930 . S
H940 C956 0.959 . S
H941 C956 0.959 . S
H942 C956 0.961 . S
H943 C957 0.960 . S
H944 C957 0.961 . S
H945 C957 0.959 . S
H946 C960 0.929 . S
H947 C961 0.931 . S
H948 C963 0.930 . S
C949 H937 0.930 . S
C949 C950 1.399 . S
C949 C954 1.399 . S
C950 C949 1.399 . S
C950 C951 1.376 . S
C951 H938 0.930 . S
C951 C950 1.376 . S
C951 C952 1.388 . S
C952 H939 0.930 . S
C952 C951 1.388 . S
C952 C953 1.390 . S
C953 C952 1.390 . S
C953 C954 1.394 . S
C953 C959 1.465 . S
C954 C949 1.399 . S
C954 C953 1.394 . S
C954 C955 1.516 . S
C955 C954 1.516 . S
C955 C956 1.502 . S
C955 C957 1.561 . S
C955 C958 1.526 . S
C956 H940 0.959 . S
C956 H941 0.959 . S
C956 H942 0.961 . S
C956 C955 1.502 . S
C957 H943 0.960 . S
C957 H944 0.961 . S
C957 H945 0.959 . S
C957 C955 1.561 . S
C958 C955 1.526 . S
C958 C959 1.396 . S
C958 C963 1.390 . S
C959 C953 1.465 . S
C959 C958 1.396 . S
C959 C960 1.399 . S
C960 H946 0.929 . S
C960 C959 1.399 . S
C960 C961 1.385 . S
C961 H947 0.931 . S
C961 C960 1.385 . S
C961 C962 1.389 . S
C962 C961 1.389 . S
C962 C963 1.387 . S
C963 H948 0.930 . S
C963 C958 1.390 . S
C963 C962 1.387 . S
H964 C976 0.930 . S
H965 C978 0.930 . S
H966 C979 0.930 . S
H967 C983 0.959 . S
H968 C983 0.959 . S
H969 C983 0.961 . S
H970 C984 0.960 . S
H971 C984 0.961 . S
H972 C984 0.959 . S
H973 C987 0.929 . S
H974 C988 0.931 . S
H975 C990 0.930 . S
C976 H964 0.930 . S
C976 C977 1.399 . S
C976 C981 1.399 . S
C977 C976 1.399 . S
C977 C978 1.376 . S
C978 H965 0.930 . S
C978 C977 1.376 . S
C978 C979 1.388 . S
C979 H966 0.930 . S
C979 C978 1.388 . S
C979 C980 1.390 . S
C980 C979 1.390 . S
C980 C981 1.394 . S
C980 C986 1.465 . S
C981 C976 1.399 . S
C981 C980 1.394 . S
C981 C982 1.516 . S
C982 C981 1.516 . S
C982 C983 1.502 . S
C982 C984 1.561 . S
C982 C985 1.526 . S
C983 H967 0.959 . S
C983 H968 0.959 . S
C983 H969 0.961 . S
C983 C982 1.502 . S
C984 H970 0.960 . S
C984 H971 0.961 . S
C984 H972 0.959 . S
C984 C982 1.561 . S
C985 C982 1.526 . S
C985 C986 1.396 . S
C985 C990 1.390 . S
C986 C980 1.465 . S
C986 C985 1.396 . S
C986 C987 1.399 . S
C987 H973 0.929 . S
C987 C986 1.399 . S
C987 C988 1.385 . S
C988 H974 0.931 . S
C988 C987 1.385 . S
C988 C989 1.389 . S
C989 C988 1.389 . S
C989 C990 1.387 . S
C990 H975 0.930 . S
C990 C985 1.390 . S
C990 C989 1.387 . S
H991 C1003 0.930 . S
H992 C1005 0.930 . S
H993 C1006 0.930 . S
H994 C1010 0.959 . S
H995 C1010 0.959 . S
H996 C1010 0.961 . S
H997 C1011 0.960 . S
H998 C1011 0.961 . S
H999 C1011 0.959 . S
H1000 C1014 0.929 . S
H1001 C1015 0.931 . S
H1002 C1017 0.930 . S
C1003 H991 0.930 . S
C1003 C1004 1.399 . S
C1003 C1008 1.399 . S
C1004 C1003 1.399 . S
C1004 C1005 1.376 . S
C1005 H992 0.930 . S
C1005 C1004 1.376 . S
C1005 C1006 1.388 . S
C1006 H993 0.930 . S
C1006 C1005 1.388 . S
C1006 C1007 1.390 . S
C1007 C1006 1.390 . S
C1007 C1008 1.394 . S
C1007 C1013 1.465 . S
C1008 C1003 1.399 . S
C1008 C1007 1.394 . S
C1008 C1009 1.516 . S
C1009 C1008 1.516 . S
C1009 C1010 1.502 . S
C1009 C1011 1.561 . S
C1009 C1012 1.526 . S
C1010 H994 0.959 . S
C1010 H995 0.959 . S
C1010 H996 0.961 . S
C1010 C1009 1.502 . S
C1011 H997 0.960 . S
C1011 H998 0.961 . S
C1011 H999 0.959 . S
C1011 C1009 1.561 . S
C1012 C1009 1.526 . S
C1012 C1013 1.396 . S
C1012 C1017 1.390 . S
C1013 C1007 1.465 . S
C1013 C1012 1.396 . S
C1013 C1014 1.399 . S
C1014 H1000 0.929 . S
C1014 C1013 1.399 . S
C1014 C1015 1.385 . S
C1015 H1001 0.931 . S
C1015 C1014 1.385 . S
C1015 C1016 1.389 . S
C1016 C1015 1.389 . S
C1016 C1017 1.387 . S
C1017 H1002 0.930 . S
C1017 C1012 1.390 . S
C1017 C1016 1.387 . S
H1018 C1030 0.930 . S
H1019 C1032 0.930 . S
H1020 C1033 0.930 . S
H1021 C1037 0.959 . S
H1022 C1037 0.959 . S
H1023 C1037 0.961 . S
H1024 C1038 0.960 . S
H1025 C1038 0.961 . S
H1026 C1038 0.959 . S
H1027 C1041 0.929 . S
H1028 C1042 0.931 . S
H1029 C1044 0.930 . S
C1030 H1018 0.930 . S
C1030 C1031 1.399 . S
C1030 C1035 1.399 . S
C1031 C1030 1.399 . S
C1031 C1032 1.376 . S
C1032 H1019 0.930 . S
C1032 C1031 1.376 . S
C1032 C1033 1.388 . S
C1033 H1020 0.930 . S
C1033 C1032 1.388 . S
C1033 C1034 1.390 . S
C1034 C1033 1.390 . S
C1034 C1035 1.394 . S
C1034 C1040 1.465 . S
C1035 C1030 1.399 . S
C1035 C1034 1.394 . S
C1035 C1036 1.516 . S
C1036 C1035 1.516 . S
C1036 C1037 1.502 . S
C1036 C1038 1.561 . S
C1036 C1039 1.526 . S
C1037 H1021 0.959 . S
C1037 H1022 0.959 . S
C1037 H1023 0.961 . S
C1037 C1036 1.502 . S
C1038 H1024 0.960 . S
C1038 H1025 0.961 . S
C1038 H1026 0.959 . S
C1038 C1036 1.561 . S
C1039 C1036 1.526 . S
C1039 C1040 1.396 . S
C1039 C1044 1.390 . S
C1040 C1034 1.465 . S
C1040 C1039 1.396 . S
C1040 C1041 1.399 . S
C1041 H1027 0.929 . S
C1041 C1040 1.399 . S
C1041 C1042 1.385 . S
C1042 H1028 0.931 . S
C1042 C1041 1.385 . S
C1042 C1043 1.389 . S
C1043 C1042 1.389 . S
C1043 C1044 1.387 . S
C1044 H1029 0.930 . S
C1044 C1039 1.390 . S
C1044 C1043 1.387 . S
H1045 C1057 0.930 . S
H1046 C1059 0.930 . S
H1047 C1060 0.930 . S
H1048 C1064 0.959 . S
H1049 C1064 0.959 . S
H1050 C1064 0.961 . S
H1051 C1065 0.960 . S
H1052 C1065 0.961 . S
H1053 C1065 0.959 . S
H1054 C1068 0.929 . S
H1055 C1069 0.931 . S
H1056 C1071 0.930 . S
C1057 H1045 0.930 . S
C1057 C1058 1.399 . S
C1057 C1062 1.399 . S
C1058 C1057 1.399 . S
C1058 C1059 1.376 . S
C1059 H1046 0.930 . S
C1059 C1058 1.376 . S
C1059 C1060 1.388 . S
C1060 H1047 0.930 . S
C1060 C1059 1.388 . S
C1060 C1061 1.390 . S
C1061 C1060 1.390 . S
C1061 C1062 1.394 . S
C1061 C1067 1.465 . S
C1062 C1057 1.399 . S
C1062 C1061 1.394 . S
C1062 C1063 1.516 . S
C1063 C1062 1.516 . S
C1063 C1064 1.502 . S
C1063 C1065 1.561 . S
C1063 C1066 1.526 . S
C1064 H1048 0.959 . S
C1064 H1049 0.959 . S
C1064 H1050 0.961 . S
C1064 C1063 1.502 . S
C1065 H1051 0.960 . S
C1065 H1052 0.961 . S
C1065 H1053 0.959 . S
C1065 C1063 1.561 . S
C1066 C1063 1.526 . S
C1066 C1067 1.396 . S
C1066 C1071 1.390 . S
C1067 C1061 1.465 . S
C1067 C1066 1.396 . S
C1067 C1068 1.399 . S
C1068 H1054 0.929 . S
C1068 C1067 1.399 . S
C1068 C1069 1.385 . S
C1069 H1055 0.931 . S
C1069 C1068 1.385 . S
C1069 C1070 1.389 . S
C1070 C1069 1.389 . S
C1070 C1071 1.387 . S
C1071 H1056 0.930 . S
C1071 C1066 1.390 . S
C1071 C1070 1.387 . S
H1072 C1084 0.930 . S
H1073 C1086 0.930 . S
H1074 C1087 0.930 . S
H1075 C1091 0.959 . S
H1076 C1091 0.959 . S
H1077 C1091 0.961 . S
H1078 C1092 0.960 . S
H1079 C1092 0.961 . S
H1080 C1092 0.959 . S
H1081 C1095 0.929 . S
H1082 C1096 0.931 . S
H1083 C1098 0.930 . S
C1084 H1072 0.930 . S
C1084 C1085 1.399 . S
C1084 C1089 1.399 . S
C1085 C1084 1.399 . S
C1085 C1086 1.376 . S
C1086 H1073 0.930 . S
C1086 C1085 1.376 . S
C1086 C1087 1.388 . S
C1087 H1074 0.930 . S
C1087 C1086 1.388 . S
C1087 C1088 1.390 . S
C1088 C1087 1.390 . S
C1088 C1089 1.394 . S
C1088 C1094 1.465 . S
C1089 C1084 1.399 . S
C1089 C1088 1.394 . S
C1089 C1090 1.516 . S
C1090 C1089 1.516 . S
C1090 C1091 1.502 . S
C1090 C1092 1.561 . S
C1090 C1093 1.526 . S
C1091 H1075 0.959 . S
C1091 H1076 0.959 . S
C1091 H1077 0.961 . S
C1091 C1090 1.502 . S
C1092 H1078 0.960 . S
C1092 H1079 0.961 . S
C1092 H1080 0.959 . S
C1092 C1090 1.561 . S
C1093 C1090 1.526 . S
C1093 C1094 1.396 . S
C1093 C1098 1.390 . S
C1094 C1088 1.465 . S
C1094 C1093 1.396 . S
C1094 C1095 1.399 . S
C1095 H1081 0.929 . S
C1095 C1094 1.399 . S
C1095 C1096 1.385 . S
C1096 H1082 0.931 . S
C1096 C1095 1.385 . S
C1096 C1097 1.389 . S
C1097 C1096 1.389 . S
C1097 C1098 1.387 . S
C1098 H1083 0.930 . S
C1098 C1093 1.390 . S
C1098 C1097 1.387 . S
H1099 C1111 0.930 . S
H1100 C1113 0.930 . S
H1101 C1114 0.930 . S
H1102 C1118 0.959 . S
H1103 C1118 0.959 . S
H1104 C1118 0.961 . S
H1105 C1119 0.960 . S
H1106 C1119 0.961 . S
H1107 C1119 0.959 . S
H1108 C1122 0.929 . S
H1109 C1123 0.931 . S
H1110 C1125 0.930 . S
C1111 H1099 0.930 . S
C1111 C1112 1.399 . S
C1111 C1116 1.399 . S
C1112 C1111 1.399 . S
C1112 C1113 1.376 . S
C1113 H1100 0.930 . S
C1113 C1112 1.376 . S
C1113 C1114 1.388 . S
C1114 H1101 0.930 . S
C1114 C1113 1.388 . S
C1114 C1115 1.390 . S
C1115 C1114 1.390 . S
C1115 C1116 1.394 . S
C1115 C1121 1.465 . S
C1116 C1111 1.399 . S
C1116 C1115 1.394 . S
C1116 C1117 1.516 . S
C1117 C1116 1.516 . S
C1117 C1118 1.502 . S
C1117 C1119 1.561 1_655 S
C1117 C1120 1.526 . S
C1118 H1102 0.959 . S
C1118 H1103 0.959 . S
C1118 H1104 0.961 . S
C1118 C1117 1.502 . S
C1119 H1105 0.960 . S
C1119 H1106 0.961 . S
C1119 H1107 0.959 . S
C1119 C1117 1.561 1_455 S
C1120 C1117 1.526 . S
C1120 C1121 1.396 . S
C1120 C1125 1.390 . S
C1121 C1115 1.465 . S
C1121 C1120 1.396 . S
C1121 C1122 1.399 . S
C1122 H1108 0.929 . S
C1122 C1121 1.399 . S
C1122 C1123 1.385 . S
C1123 H1109 0.931 . S
C1123 C1122 1.385 . S
C1123 C1124 1.389 . S
C1124 C1123 1.389 . S
C1124 C1125 1.387 . S
C1125 H1110 0.930 . S
C1125 C1120 1.390 . S
C1125 C1124 1.387 . S
H1126 C1138 0.930 . S
H1127 C1140 0.930 . S
H1128 C1141 0.930 . S
H1129 C1145 0.959 . S
H1130 C1145 0.959 . S
H1131 C1145 0.961 . S
H1132 C1146 0.960 . S
H1133 C1146 0.961 . S
H1134 C1146 0.959 . S
H1135 C1149 0.929 . S
H1136 C1150 0.931 . S
H1137 C1152 0.930 . S
C1138 H1126 0.930 . S
C1138 C1139 1.399 . S
C1138 C1143 1.399 . S
C1139 C1138 1.399 . S
C1139 C1140 1.376 . S
C1140 H1127 0.930 . S
C1140 C1139 1.376 . S
C1140 C1141 1.388 . S
C1141 H1128 0.930 . S
C1141 C1140 1.388 . S
C1141 C1142 1.390 . S
C1142 C1141 1.390 . S
C1142 C1143 1.394 . S
C1142 C1148 1.465 . S
C1143 C1138 1.399 . S
C1143 C1142 1.394 . S
C1143 C1144 1.516 . S
C1144 C1143 1.516 . S
C1144 C1145 1.502 . S
C1144 C1146 1.561 . S
C1144 C1147 1.526 . S
C1145 H1129 0.959 . S
C1145 H1130 0.959 . S
C1145 H1131 0.961 . S
C1145 C1144 1.502 . S
C1146 H1132 0.960 . S
C1146 H1133 0.961 . S
C1146 H1134 0.959 . S
C1146 C1144 1.561 . S
C1147 C1144 1.526 . S
C1147 C1148 1.396 . S
C1147 C1152 1.390 . S
C1148 C1142 1.465 . S
C1148 C1147 1.396 . S
C1148 C1149 1.399 . S
C1149 H1135 0.929 . S
C1149 C1148 1.399 . S
C1149 C1150 1.385 . S
C1150 H1136 0.931 . S
C1150 C1149 1.385 . S
C1150 C1151 1.389 . S
C1151 C1150 1.389 . S
C1151 C1152 1.387 . S
C1152 H1137 0.930 . S
C1152 C1147 1.390 . S
C1152 C1151 1.387 . S
H1153 C1165 0.930 . S
H1154 C1167 0.930 . S
H1155 C1168 0.930 . S
H1156 C1172 0.959 . S
H1157 C1172 0.959 . S
H1158 C1172 0.961 . S
H1159 C1173 0.960 . S
H1160 C1173 0.961 . S
H1161 C1173 0.959 . S
H1162 C1176 0.929 . S
H1163 C1177 0.931 . S
H1164 C1179 0.930 . S
C1165 H1153 0.930 . S
C1165 C1166 1.399 . S
C1165 C1170 1.399 . S
C1166 C1165 1.399 . S
C1166 C1167 1.376 . S
C1167 H1154 0.930 . S
C1167 C1166 1.376 . S
C1167 C1168 1.388 . S
C1168 H1155 0.930 . S
C1168 C1167 1.388 . S
C1168 C1169 1.390 . S
C1169 C1168 1.390 . S
C1169 C1170 1.394 . S
C1169 C1175 1.465 . S
C1170 C1165 1.399 . S
C1170 C1169 1.394 . S
C1170 C1171 1.516 . S
C1171 C1170 1.516 . S
C1171 C1172 1.502 . S
C1171 C1173 1.561 . S
C1171 C1174 1.526 . S
C1172 H1156 0.959 . S
C1172 H1157 0.959 . S
C1172 H1158 0.961 . S
C1172 C1171 1.502 . S
C1173 H1159 0.960 . S
C1173 H1160 0.961 . S
C1173 H1161 0.959 . S
C1173 C1171 1.561 . S
C1174 C1171 1.526 . S
C1174 C1175 1.396 . S
C1174 C1179 1.390 . S
C1175 C1169 1.465 . S
C1175 C1174 1.396 . S
C1175 C1176 1.399 . S
C1176 H1162 0.929 . S
C1176 C1175 1.399 . S
C1176 C1177 1.385 . S
C1177 H1163 0.931 . S
C1177 C1176 1.385 . S
C1177 C1178 1.389 . S
C1178 C1177 1.389 . S
C1178 C1179 1.387 . S
C1179 H1164 0.930 . S
C1179 C1174 1.390 . S
C1179 C1178 1.387 . S
H1180 C1192 0.930 . S
H1181 C1194 0.930 . S
H1182 C1195 0.930 . S
H1183 C1199 0.959 . S
H1184 C1199 0.959 . S
H1185 C1199 0.961 . S
H1186 C1200 0.960 . S
H1187 C1200 0.961 . S
H1188 C1200 0.959 . S
H1189 C1203 0.929 . S
H1190 C1204 0.931 . S
H1191 C1206 0.930 . S
C1192 H1180 0.930 . S
C1192 C1193 1.399 . S
C1192 C1197 1.399 . S
C1193 C1192 1.399 . S
C1193 C1194 1.376 . S
C1194 H1181 0.930 . S
C1194 C1193 1.376 . S
C1194 C1195 1.388 . S
C1195 H1182 0.930 . S
C1195 C1194 1.388 . S
C1195 C1196 1.390 . S
C1196 C1195 1.390 . S
C1196 C1197 1.394 . S
C1196 C1202 1.465 . S
C1197 C1192 1.399 . S
C1197 C1196 1.394 . S
C1197 C1198 1.516 . S
C1198 C1197 1.516 . S
C1198 C1199 1.502 . S
C1198 C1200 1.561 . S
C1198 C1201 1.526 . S
C1199 H1183 0.959 . S
C1199 H1184 0.959 . S
C1199 H1185 0.961 . S
C1199 C1198 1.502 . S
C1200 H1186 0.960 . S
C1200 H1187 0.961 . S
C1200 H1188 0.959 . S
C1200 C1198 1.561 . S
C1201 C1198 1.526 . S
C1201 C1202 1.396 . S
C1201 C1206 1.390 . S
C1202 C1196 1.465 . S
C1202 C1201 1.396 . S
C1202 C1203 1.399 . S
C1203 H1189 0.929 . S
C1203 C1202 1.399 . S
C1203 C1204 1.385 . S
C1204 H1190 0.931 . S
C1204 C1203 1.385 . S
C1204 C1205 1.389 . S
C1205 C1204 1.389 . S
C1205 C1206 1.387 . S
C1206 H1191 0.930 . S
C1206 C1201 1.390 . S
C1206 C1205 1.387 . S
H1207 C1219 0.930 . S
H1208 C1221 0.930 . S
H1209 C1222 0.930 . S
H1210 C1226 0.959 . S
H1211 C1226 0.959 . S
H1212 C1226 0.961 . S
H1213 C1227 0.960 . S
H1214 C1227 0.961 . S
H1215 C1227 0.959 . S
H1216 C1230 0.929 . S
H1217 C1231 0.931 . S
H1218 C1233 0.930 . S
C1219 H1207 0.930 . S
C1219 C1220 1.399 . S
C1219 C1224 1.399 . S
C1220 C1219 1.399 . S
C1220 C1221 1.376 . S
C1221 H1208 0.930 . S
C1221 C1220 1.376 . S
C1221 C1222 1.388 . S
C1222 H1209 0.930 . S
C1222 C1221 1.388 . S
C1222 C1223 1.390 . S
C1223 C1222 1.390 . S
C1223 C1224 1.394 . S
C1223 C1229 1.465 . S
C1224 C1219 1.399 . S
C1224 C1223 1.394 . S
C1224 C1225 1.516 . S
C1225 C1224 1.516 . S
C1225 C1226 1.502 . S
C1225 C1227 1.561 . S
C1225 C1228 1.526 . S
C1226 H1210 0.959 . S
C1226 H1211 0.959 . S
C1226 H1212 0.961 . S
C1226 C1225 1.502 . S
C1227 H1213 0.960 . S
C1227 H1214 0.961 . S
C1227 H1215 0.959 . S
C1227 C1225 1.561 . S
C1228 C1225 1.526 . S
C1228 C1229 1.396 . S
C1228 C1233 1.390 . S
C1229 C1223 1.465 . S
C1229 C1228 1.396 . S
C1229 C1230 1.399 . S
C1230 H1216 0.929 . S
C1230 C1229 1.399 . S
C1230 C1231 1.385 . S
C1231 H1217 0.931 . S
C1231 C1230 1.385 . S
C1231 C1232 1.389 . S
C1232 C1231 1.389 . S
C1232 C1233 1.387 . S
C1233 H1218 0.930 . S
C1233 C1228 1.390 . S
C1233 C1232 1.387 . S
H1234 C1246 0.930 . S
H1235 C1248 0.930 . S
H1236 C1249 0.930 . S
H1237 C1253 0.959 . S
H1238 C1253 0.959 . S
H1239 C1253 0.961 . S
H1240 C1254 0.960 . S
H1241 C1254 0.961 . S
H1242 C1254 0.959 . S
H1243 C1257 0.929 . S
H1244 C1258 0.931 . S
H1245 C1260 0.930 . S
C1246 H1234 0.930 . S
C1246 C1247 1.399 . S
C1246 C1251 1.399 . S
C1247 C1246 1.399 . S
C1247 C1248 1.376 . S
C1248 H1235 0.930 . S
C1248 C1247 1.376 . S
C1248 C1249 1.388 . S
C1249 H1236 0.930 . S
C1249 C1248 1.388 . S
C1249 C1250 1.390 . S
C1250 C1249 1.390 . S
C1250 C1251 1.394 . S
C1250 C1256 1.465 . S
C1251 C1246 1.399 . S
C1251 C1250 1.394 . S
C1251 C1252 1.516 . S
C1252 C1251 1.516 . S
C1252 C1253 1.502 . S
C1252 C1254 1.561 . S
C1252 C1255 1.526 . S
C1253 H1237 0.959 . S
C1253 H1238 0.959 . S
C1253 H1239 0.961 . S
C1253 C1252 1.502 . S
C1254 H1240 0.960 . S
C1254 H1241 0.961 . S
C1254 H1242 0.959 . S
C1254 C1252 1.561 . S
C1255 C1252 1.526 . S
C1255 C1256 1.396 . S
C1255 C1260 1.390 . S
C1256 C1250 1.465 . S
C1256 C1255 1.396 . S
C1256 C1257 1.399 . S
C1257 H1243 0.929 . S
C1257 C1256 1.399 . S
C1257 C1258 1.385 . S
C1258 H1244 0.931 . S
C1258 C1257 1.385 . S
C1258 C1259 1.389 . S
C1259 C1258 1.389 . S
C1259 C1260 1.387 . S
C1260 H1245 0.930 . S
C1260 C1255 1.390 . S
C1260 C1259 1.387 . S
H1261 C1273 0.930 . S
H1262 C1275 0.930 . S
H1263 C1276 0.930 . S
H1264 C1280 0.959 . S
H1265 C1280 0.959 . S
H1266 C1280 0.961 . S
H1267 C1281 0.960 . S
H1268 C1281 0.961 . S
H1269 C1281 0.959 . S
H1270 C1284 0.929 . S
H1271 C1285 0.931 . S
H1272 C1287 0.930 . S
C1273 H1261 0.930 . S
C1273 C1274 1.399 . S
C1273 C1278 1.399 . S
C1274 C1273 1.399 . S
C1274 C1275 1.376 . S
C1275 H1262 0.930 . S
C1275 C1274 1.376 . S
C1275 C1276 1.388 . S
C1276 H1263 0.930 . S
C1276 C1275 1.388 . S
C1276 C1277 1.390 . S
C1277 C1276 1.390 . S
C1277 C1278 1.394 . S
C1277 C1283 1.465 . S
C1278 C1273 1.399 . S
C1278 C1277 1.394 . S
C1278 C1279 1.516 . S
C1279 C1278 1.516 . S
C1279 C1280 1.502 . S
C1279 C1281 1.561 . S
C1279 C1282 1.526 . S
C1280 H1264 0.959 . S
C1280 H1265 0.959 . S
C1280 H1266 0.961 . S
C1280 C1279 1.502 . S
C1281 H1267 0.960 . S
C1281 H1268 0.961 . S
C1281 H1269 0.959 . S
C1281 C1279 1.561 . S
C1282 C1279 1.526 . S
C1282 C1283 1.396 . S
C1282 C1287 1.390 . S
C1283 C1277 1.465 . S
C1283 C1282 1.396 . S
C1283 C1284 1.399 . S
C1284 H1270 0.929 . S
C1284 C1283 1.399 . S
C1284 C1285 1.385 . S
C1285 H1271 0.931 . S
C1285 C1284 1.385 . S
C1285 C1286 1.389 . S
C1286 C1285 1.389 . S
C1286 C1287 1.387 . S
C1287 H1272 0.930 . S
C1287 C1282 1.390 . S
C1287 C1286 1.387 . S
C653 C1 1.167 . S
C665 C495 1.340 . S
C680 C80 1.319 . S
C692 C535 1.309 . S
C719 C569 2.273 . S
C707 C140 2.234 . S
C734 C211 2.636 . S
C746 C610 2.581 . S
C773 C530 1.443 . S
C761 C31 1.344 . S
C800 C490 2.187 . S
C788 C61 2.051 . S
C827 C618 1.583 . S
C815 C151 1.568 . S
C854 C579 1.822 . S
C842 C200 1.913 . S
C869 C20 1.284 . S
C881 C615 1.420 . S
C908 C538 1.968 . S
C896 C121 2.050 . S
C923 C181 2.408 . S
C935 C498 2.398 . S
C950 C91 1.639 . S
C962 C566 1.625 . S
C989 C486 1.291 . S
C977 C260 1.316 . S
C1004 C320 1.306 . S
C1016 C526 1.345 . S
C1031 C361 2.181 . S
C1043 C578 2.248 . S
C1058 C451 2.653 . S
C1070 C619 2.608 . S
C1085 C271 1.382 . S
C1097 C539 1.449 . S
C1124 C499 2.183 . S
C1112 C301 2.091 . S
C1151 C609 1.576 . S
C1139 C380 1.475 . S
C1178 C570 1.851 . S
C1166 C440 1.910 . S
C1193 C241 1.235 . S
C1205 C606 1.400 . S
C1232 C529 1.979 . S
C1220 C391 2.007 . S
C1259 C489 2.370 . S
C1247 C421 2.422 . S
C1274 C331 1.609 . S
C1286 C575 1.642 . S
