# Generated by pormake.
# Topology zzz, (3,6)-cn, num edge types: 1
# Building blocks:
#     Node 0, Type 0, BuildingBlock: VETTIZ_charged_linker_0, # of connection points: 3
#     Node 1, Type 0, BuildingBlock: VETTIZ_charged_linker_0, # of connection points: 3
#     Node 2, Type 0, BuildingBlock: VETTIZ_charged_linker_0, # of connection points: 3
#     Node 3, Type 0, BuildingBlock: VETTIZ_charged_linker_0, # of connection points: 3
#     Node 4, Type 0, BuildingBlock: VETTIZ_charged_linker_0, # of connection points: 3
#     Node 5, Type 0, BuildingBlock: VETTIZ_charged_linker_0, # of connection points: 3
#     Node 6, Type 0, BuildingBlock: VETTIZ_charged_linker_0, # of connection points: 3
#     Node 7, Type 0, BuildingBlock: VETTIZ_charged_linker_0, # of connection points: 3
#     Node 8, Type 1, BuildingBlock: PAMTUU_clean_sbu_0, # of connection points: 6
#     Node 9, Type 1, BuildingBlock: PAMTUU_clean_sbu_0, # of connection points: 6
#     Node 10, Type 1, BuildingBlock: PAMTUU_clean_sbu_0, # of connection points: 6
#     Node 11, Type 1, BuildingBlock: PAMTUU_clean_sbu_0, # of connection points: 6
#     Edge 12, Type (0, 1), BuildingBlock: TEMPAE_clean_linker_10, # of connection points: 2
#     Edge 13, Type (0, 1), BuildingBlock: TEMPAE_clean_linker_10, # of connection points: 2
#     Edge 14, Type (0, 1), BuildingBlock: TEMPAE_clean_linker_10, # of connection points: 2
#     Edge 15, Type (0, 1), BuildingBlock: TEMPAE_clean_linker_10, # of connection points: 2
#     Edge 16, Type (0, 1), BuildingBlock: TEMPAE_clean_linker_10, # of connection points: 2
#     Edge 17, Type (0, 1), BuildingBlock: TEMPAE_clean_linker_10, # of connection points: 2
#     Edge 18, Type (0, 1), BuildingBlock: TEMPAE_clean_linker_10, # of connection points: 2
#     Edge 19, Type (0, 1), BuildingBlock: TEMPAE_clean_linker_10, # of connection points: 2
#     Edge 20, Type (0, 1), BuildingBlock: TEMPAE_clean_linker_10, # of connection points: 2
#     Edge 21, Type (0, 1), BuildingBlock: TEMPAE_clean_linker_10, # of connection points: 2
#     Edge 22, Type (0, 1), BuildingBlock: TEMPAE_clean_linker_10, # of connection points: 2
#     Edge 23, Type (0, 1), BuildingBlock: TEMPAE_clean_linker_10, # of connection points: 2
#     Edge 24, Type (0, 1), BuildingBlock: TEMPAE_clean_linker_10, # of connection points: 2
#     Edge 25, Type (0, 1), BuildingBlock: TEMPAE_clean_linker_10, # of connection points: 2
#     Edge 26, Type (0, 1), BuildingBlock: TEMPAE_clean_linker_10, # of connection points: 2
#     Edge 27, Type (0, 1), BuildingBlock: TEMPAE_clean_linker_10, # of connection points: 2
#     Edge 28, Type (0, 1), BuildingBlock: TEMPAE_clean_linker_10, # of connection points: 2
#     Edge 29, Type (0, 1), BuildingBlock: TEMPAE_clean_linker_10, # of connection points: 2
#     Edge 30, Type (0, 1), BuildingBlock: TEMPAE_clean_linker_10, # of connection points: 2
#     Edge 31, Type (0, 1), BuildingBlock: TEMPAE_clean_linker_10, # of connection points: 2
#     Edge 32, Type (0, 1), BuildingBlock: TEMPAE_clean_linker_10, # of connection points: 2
#     Edge 33, Type (0, 1), BuildingBlock: TEMPAE_clean_linker_10, # of connection points: 2
#     Edge 34, Type (0, 1), BuildingBlock: TEMPAE_clean_linker_10, # of connection points: 2
#     Edge 35, Type (0, 1), BuildingBlock: TEMPAE_clean_linker_10, # of connection points: 2
# Relax obj value: 0.389
# Max RMSD: 0.266
# Mean RMSD: 0.224
data_MOF--net-zzz--node1-PAMTUU_clean_sbu_0--node2-VETTIZ_charged_linker_0--edge1-TEMPAE_clean_linker_10
_symmetry_space_group_name_H-M    P1
_symmetry_Int_Tables_number       1
_symmetry_cell_setting            triclinic
loop_
_symmetry_equiv_pos_as_xyz
'x, y, z'
_cell_length_a     58.044718
_cell_length_b     61.534147
_cell_length_c     20.863264
_cell_angle_alpha  98.630746
_cell_angle_beta   90.140463
_cell_angle_gamma 89.636787
loop_
_atom_site_label
_atom_site_type_symbol
_atom_site_fract_x
_atom_site_fract_y
_atom_site_fract_z
_atom_type_partial_charge
C0 C 0.82704 0.50354 0.41222 0.0
C1 C 0.85131 0.49958 0.40353 0.0
C2 C 0.85933 0.49412 0.33914 0.0
C3 C 0.82288 0.50422 0.29675 0.0
C4 C 0.81285 0.50484 0.35669 0.0
C5 C 0.78669 0.50793 0.3504 0.0
H6 H 0.69926 0.53517 0.15032 0.0
C7 C 0.80603 0.51095 0.25107 0.0
C8 C 0.78397 0.51023 0.27797 0.0
H9 H 0.69649 0.47596 0.23669 0.0
H10 H 0.73624 0.48257 0.27785 0.0
H11 H 0.73872 0.56763 0.2502 0.0
H12 H 0.73767 0.51722 0.08335 0.0
H13 H 0.76117 0.53347 0.07157 0.0
H14 H 0.73279 0.54557 0.0763 0.0
H15 H 0.72782 0.5716 0.17214 0.0
H16 H 0.75798 0.57514 0.19215 0.0
C17 C 0.7788 0.52905 0.39404 0.0
C18 C 0.77405 0.48781 0.3681 0.0
C19 C 0.83766 0.55297 0.08009 0.0
C20 C 0.8271 0.56509 0.03588 0.0
C21 C 0.8038 0.57126 0.04506 0.0
C22 C 0.79089 0.56389 0.09434 0.0
C23 C 0.80119 0.54952 0.1328 0.0
C24 C 0.82446 0.54514 0.1273 0.0
C25 C 0.83244 0.52851 0.16864 0.0
C26 C 0.80997 0.52395 0.20141 0.0
C27 C 0.79175 0.53581 0.17877 0.0
C28 C 0.85103 0.53929 0.21639 0.0
C29 C 0.84122 0.50785 0.12334 0.0
C30 C 0.70636 0.52446 0.18223 0.0
C31 C 0.69417 0.50577 0.19306 0.0
C32 C 0.70509 0.49099 0.22977 0.0
C33 C 0.72772 0.49502 0.25497 0.0
C34 C 0.73965 0.51384 0.2429 0.0
C35 C 0.72925 0.52738 0.20351 0.0
C36 C 0.74664 0.5404 0.17214 0.0
C37 C 0.76893 0.53221 0.19814 0.0
C38 C 0.76484 0.5184 0.24469 0.0
C39 C 0.74261 0.56505 0.19739 0.0
C40 C 0.74453 0.53412 0.09711 0.0
H41 H 0.85263 0.49267 0.23875 0.0
H42 H 0.81957 0.50623 0.46022 0.0
H43 H 0.77738 0.47308 0.33135 0.0
H44 H 0.75524 0.49094 0.37176 0.0
H45 H 0.77994 0.48414 0.41609 0.0
H46 H 0.78842 0.5435 0.38216 0.0
H47 H 0.7818 0.52774 0.44596 0.0
H48 H 0.76012 0.53202 0.38709 0.0
H49 H 0.85538 0.54745 0.0738 0.0
H50 H 0.79529 0.58059 0.01169 0.0
H51 H 0.77298 0.56835 0.09756 0.0
H52 H 0.843 0.54896 0.26003 0.0
H53 H 0.86209 0.55066 0.19356 0.0
H54 H 0.86315 0.52718 0.23174 0.0
H55 H 0.83104 0.50501 0.07761 0.0
H56 H 0.83919 0.49262 0.14476 0.0
H57 H 0.85959 0.50964 0.11031 0.0
H58 H 0.87685 0.4885 0.32911 0.0
C59 C 0.84539 0.49659 0.2863 0.0
C60 C 0.92305 0.79077 0.07119 0.0
C61 C 0.92157 0.81385 0.08554 0.0
C62 C 0.91614 0.82343 0.14948 0.0
C63 C 0.92296 0.78855 0.18587 0.0
C64 C 0.92402 0.77838 0.1224 0.0
C65 C 0.92954 0.75423 0.11792 0.0
H66 H 0.99236 0.67727 0.2313 0.0
C67 C 0.93241 0.7733 0.22745 0.0
C68 C 0.93583 0.75294 0.1886 0.0
H69 H 0.94352 0.66915 0.07226 0.0
H70 H 0.92892 0.70573 0.1069 0.0
H71 H 1.00644 0.73001 0.22661 0.0
H72 H 0.95266 0.70416 0.33756 0.0
H73 H 0.96962 0.72399 0.3864 0.0
H74 H 0.98263 0.69848 0.35024 0.0
H75 H 0.01311 0.71359 0.28867 0.0
H76 H 1.00674 0.74246 0.30862 0.0
C77 C 0.95025 0.7484 0.07174 0.0
C78 C 0.90748 0.74108 0.09523 0.0
C79 C 0.96608 0.80848 0.44105 0.0
C80 C 0.98364 0.80266 0.48141 0.0
C81 C 0.99352 0.78143 0.46755 0.0
C82 C 0.98579 0.76633 0.41404 0.0
C83 C 0.96852 0.7728 0.37297 0.0
C84 C 0.95926 0.79374 0.38697 0.0
C85 C 0.9433 0.79933 0.33536 0.0
C86 C 0.94347 0.7779 0.28874 0.0
C87 C 0.95807 0.76216 0.31081 0.0
C88 C 0.95383 0.81888 0.30567 0.0
C89 C 0.91916 0.80418 0.36571 0.0
C90 C 0.9788 0.68357 0.20333 0.0
C91 C 0.96943 0.67037 0.14805 0.0
C92 C 0.95119 0.67888 0.11444 0.0
C93 C 0.943 0.70021 0.13336 0.0
C94 C 0.95345 0.71357 0.18518 0.0
C95 C 0.97007 0.70508 0.22192 0.0
C96 C 0.97629 0.72152 0.28106 0.0
C97 C 0.96067 0.74101 0.27238 0.0
C98 C 0.94837 0.73628 0.21388 0.0
C99 C 1.00205 0.72721 0.27659 0.0
C100 C 0.97012 0.71158 0.34241 0.0
H101 H 0.91328 0.81888 0.24787 0.0
H102 H 0.92596 0.78293 0.02187 0.0
H103 H 0.89305 0.75182 0.08355 0.0
H104 H 0.90091 0.73192 0.13336 0.0
H105 H 0.91063 0.72926 0.05034 0.0
H106 H 0.96511 0.75928 0.08716 0.0
H107 H 0.94563 0.75027 0.02118 0.0
H108 H 0.95612 0.73126 0.07042 0.0
H109 H 0.95873 0.82491 0.44889 0.0
H110 H 1.00727 0.77662 0.49775 0.0
H111 H 0.9939 0.75044 0.40568 0.0
H112 H 0.97057 0.82453 0.32802 0.0
H113 H 0.94233 0.83353 0.31246 0.0
H114 H 0.95778 0.81435 0.25337 0.0
H115 H 0.91491 0.79219 0.39881 0.0
H116 H 0.90529 0.80262 0.32891 0.0
H117 H 0.91842 0.82092 0.39433 0.0
H118 H 0.91418 0.84106 0.16219 0.0
C119 C 0.91645 0.81072 0.19967 0.0
C120 C 0.84666 0.99256 0.19227 0.0
C121 C 0.85756 1.00015 0.13863 0.0
C122 C 0.84584 0.01556 0.10705 0.0
C123 C 0.81528 0.01863 0.18641 0.0
C124 C 0.82506 0.00195 0.21502 0.0
C125 C 0.80995 0.99694 0.27125 0.0
H126 H 0.72053 0.03603 0.47792 0.0
C127 C 0.79559 0.028 0.22569 0.0
C128 C 0.79115 0.01496 0.27424 0.0
H129 H 0.7343 0.96701 0.4179 0.0
H130 H 0.76453 0.97646 0.34454 0.0
H131 H 0.7749 0.05772 0.46191 0.0
H132 H 0.71825 0.07146 0.39704 0.0
H133 H 0.71158 0.04392 0.3627 0.0
H134 H 0.72447 0.06084 0.31349 0.0
H135 H 0.74768 0.07147 0.47822 0.0
H136 H 0.76792 0.08021 0.42177 0.0
C137 C 0.82398 0.99949 0.33453 0.0
C138 C 0.80032 0.97347 0.25421 0.0
C139 C 0.75891 0.09882 0.1782 0.0
C140 C 0.74261 0.11306 0.21261 0.0
C141 C 0.73955 0.11229 0.27934 0.0
C142 C 0.74965 0.09543 0.30827 0.0
C143 C 0.76289 0.07927 0.27002 0.0
C144 C 0.76886 0.08211 0.20797 0.0
C145 C 0.78467 0.06419 0.17662 0.0
C146 C 0.78503 0.04895 0.22783 0.0
C147 C 0.77161 0.05757 0.28123 0.0
C148 C 0.80855 0.07462 0.16719 0.0
C149 C 0.77333 0.05286 0.11296 0.0
C150 C 0.73043 0.02271 0.45105 0.0
C151 C 0.72482 0.00077 0.45468 0.0
C152 C 0.73835 0.98414 0.41758 0.0
C153 C 0.75614 0.98953 0.37579 0.0
C154 C 0.76077 0.0117 0.37134 0.0
C155 C 0.74718 0.02771 0.40726 0.0
C156 C 0.74912 0.0496 0.38448 0.0
C157 C 0.76546 0.04406 0.32774 0.0
C158 C 0.77389 0.02229 0.3225 0.0
C159 C 0.76037 0.06576 0.43945 0.0
C160 C 0.72477 0.05699 0.36361 0.0
H161 H 0.81714 0.03638 0.10379 0.0
H162 H 0.85498 0.98029 0.21664 0.0
H163 H 0.78464 0.97329 0.22347 0.0
H164 H 0.79637 0.96621 0.29829 0.0
H165 H 0.81326 0.96222 0.22736 0.0
H166 H 0.83169 0.01615 0.34473 0.0
H167 H 0.8381 0.98709 0.33122 0.0
H168 H 0.81275 0.99719 0.37601 0.0
H169 H 0.76207 0.09909 0.12721 0.0
H170 H 0.72777 0.12358 0.30774 0.0
H171 H 0.74569 0.09482 0.35809 0.0
H172 H 0.80964 0.09198 0.19135 0.0
H173 H 0.81237 0.07475 0.11511 0.0
H174 H 0.82272 0.06596 0.18882 0.0
H175 H 0.75452 0.05072 0.11991 0.0
H176 H 0.7802 0.03615 0.09677 0.0
H177 H 0.77556 0.06282 0.0732 0.0
H178 H 0.85333 0.02112 0.06484 0.0
C179 C 0.82491 0.02466 0.13024 0.0
C180 C 0.53794 0.74214 0.38775 0.0
C181 C 0.52493 0.72761 0.41996 0.0
C182 C 0.50102 0.72582 0.40764 0.0
C183 C 0.50497 0.74689 0.32036 0.0
C184 C 0.52713 0.75241 0.33939 0.0
C185 C 0.53698 0.76846 0.29832 0.0
H186 H 0.53229 0.81184 0.01985 0.0
C187 C 0.50026 0.75446 0.25855 0.0
C188 C 0.51715 0.76998 0.25007 0.0
H189 H 0.54333 0.85121 0.20645 0.0
H190 H 0.53212 0.81991 0.26004 0.0
H191 H 0.55085 0.76231 0.05331 0.0
H192 H 0.4853 0.79594 0.06307 0.0
H193 H 0.48124 0.76841 0.02715 0.0
H194 H 0.49953 0.78587 0.98796 0.0
H195 H 0.53387 0.76388 0.98219 0.0
H196 H 0.52964 0.74239 0.03114 0.0
C197 C 0.55887 0.75871 0.26318 0.0
C198 C 0.54223 0.79037 0.34164 0.0
C199 C 0.46749 0.69396 0.09426 0.0
C200 C 0.47221 0.68802 0.02813 0.0
C201 C 0.48121 0.70385 0.99301 0.0
C202 C 0.48744 0.72471 0.02501 0.0
C203 C 0.48505 0.72952 0.09282 0.0
C204 C 0.47492 0.71431 0.12624 0.0
C205 C 0.47544 0.72125 0.19849 0.0
C206 C 0.48917 0.74254 0.20326 0.0
C207 C 0.49415 0.74748 0.14104 0.0
C208 C 0.48757 0.70314 0.23143 0.0
C209 C 0.45037 0.7257 0.22154 0.0
C210 C 0.53387 0.81331 0.07208 0.0
C211 C 0.53995 0.83348 0.10895 0.0
C212 C 0.53992 0.83546 0.17727 0.0
C213 C 0.53433 0.81737 0.20825 0.0
C214 C 0.52931 0.79715 0.17053 0.0
C215 C 0.52779 0.79565 0.10383 0.0
C216 C 0.51552 0.77501 0.07395 0.0
C217 C 0.50847 0.7656 0.1343 0.0
C218 C 0.51849 0.77759 0.18946 0.0
C219 C 0.5332 0.76007 0.03252 0.0
C220 C 0.49431 0.78147 0.03555 0.0
H221 H 0.47283 0.73364 0.34922 0.0
H222 H 0.55607 0.74473 0.3983 0.0
H223 H 0.55142 0.78748 0.38642 0.0
H224 H 0.52609 0.79962 0.35615 0.0
H225 H 0.55384 0.80062 0.31672 0.0
H226 H 0.55519 0.74247 0.23386 0.0
H227 H 0.57272 0.75649 0.29855 0.0
H228 H 0.56544 0.76981 0.23011 0.0
H229 H 0.46008 0.68207 0.12152 0.0
H230 H 0.48496 0.69956 0.94181 0.0
H231 H 0.49496 0.73588 0.99628 0.0
H232 H 0.48611 0.68645 0.20323 0.0
H233 H 0.47971 0.70158 0.27875 0.0
H234 H 0.50632 0.70631 0.23779 0.0
H235 H 0.44107 0.73584 0.18974 0.0
H236 H 0.44945 0.73493 0.27107 0.0
H237 H 0.44091 0.71 0.22044 0.0
H238 H 0.49035 0.71538 0.43257 0.0
C239 C 0.49094 0.73575 0.3585 0.0
C240 C 0.34201 0.47846 0.34655 0.0
C241 C 0.35816 0.46709 0.38158 0.0
C242 C 0.35422 0.44472 0.38484 0.0
C243 C 0.31786 0.44597 0.3294 0.0
C244 C 0.32208 0.46715 0.31895 0.0
C245 C 0.30348 0.47441 0.2741 0.0
H246 H 0.20143 0.4444 0.10876 0.0
C247 C 0.29565 0.43862 0.3008 0.0
C248 C 0.28715 0.45448 0.26443 0.0
H249 H 0.23776 0.50487 0.10295 0.0
H250 H 0.26721 0.49379 0.17711 0.0
H251 H 0.24361 0.41038 0.10787 0.0
H252 H 0.2007 0.44884 0.24446 0.0
H253 H 0.21281 0.43109 0.29372 0.0
H254 H 0.19548 0.42019 0.22428 0.0
H255 H 0.21375 0.40593 0.12393 0.0
H256 H 0.2363 0.39377 0.16672 0.0
C257 C 0.31488 0.47802 0.21004 0.0
C258 C 0.29136 0.49521 0.30862 0.0
C259 C 0.24955 0.38668 0.41291 0.0
C260 C 0.22567 0.38276 0.4085 0.0
C261 C 0.21501 0.38262 0.34741 0.0
C262 C 0.22649 0.39095 0.29761 0.0
C263 C 0.24838 0.40016 0.3098 0.0
C264 C 0.26034 0.39638 0.36421 0.0
C265 C 0.28372 0.40694 0.36809 0.0
C266 C 0.28188 0.42069 0.31267 0.0
C267 C 0.26103 0.41672 0.27954 0.0
C268 C 0.30208 0.38831 0.35566 0.0
C269 C 0.28641 0.42148 0.43507 0.0
C270 C 0.21597 0.45513 0.12195 0.0
C271 C 0.2175 0.47517 0.09839 0.0
C272 C 0.23627 0.48911 0.11965 0.0
C273 C 0.25338 0.48263 0.16228 0.0
C274 C 0.2515 0.46221 0.18498 0.0
C275 C 0.23257 0.44925 0.16521 0.0
C276 C 0.23089 0.42956 0.1988 0.0
C277 C 0.25302 0.43136 0.23778 0.0
C278 C 0.26549 0.45053 0.23051 0.0
C279 C 0.23098 0.40872 0.14686 0.0
C280 C 0.20892 0.43236 0.24237 0.0
H281 H 0.33302 0.41703 0.35994 0.0
H282 H 0.345 0.49535 0.34027 0.0
H283 H 0.28494 0.49245 0.35691 0.0
H284 H 0.27638 0.49983 0.28072 0.0
H285 H 0.30345 0.5093 0.31592 0.0
H286 H 0.32522 0.46333 0.18967 0.0
H287 H 0.32657 0.49241 0.21802 0.0
H288 H 0.30207 0.48078 0.17294 0.0
H289 H 0.25878 0.38512 0.45709 0.0
H290 H 0.19696 0.37875 0.33999 0.0
H291 H 0.21714 0.39162 0.25365 0.0
H292 H 0.2945 0.37161 0.35239 0.0
H293 H 0.31487 0.38944 0.3957 0.0
H294 H 0.3113 0.38863 0.30919 0.0
H295 H 0.27189 0.43342 0.444 0.0
H296 H 0.30254 0.43094 0.43943 0.0
H297 H 0.28675 0.41132 0.47475 0.0
H298 H 0.36627 0.4353 0.4096 0.0
C299 C 0.33462 0.43414 0.35777 0.0
C300 C 0.96192 0.21561 0.50329 0.0
C301 C 0.94872 0.19654 0.48594 0.0
C302 C 0.9449 0.1887 0.41984 0.0
C303 C 0.97238 0.21471 0.39044 0.0
C304 C 0.97345 0.22457 0.45429 0.0
C305 C 0.98934 0.24406 0.46265 0.0
H306 H 0.06441 0.30878 0.33132 0.0
C307 C 0.98993 0.22476 0.35351 0.0
C308 C 0.99938 0.24249 0.39457 0.0
H309 H 0.03215 0.31922 0.52012 0.0
H310 H 0.01375 0.28415 0.4976 0.0
H311 H 0.07521 0.25395 0.34539 0.0
H312 H 0.02209 0.28401 0.24028 0.0
H313 H 0.0373 0.26251 0.19092 0.0
H314 H 0.05227 0.28704 0.22439 0.0
H315 H 0.08197 0.2666 0.27559 0.0
H316 H 0.07097 0.23899 0.26759 0.0
C317 C 1.0081 0.24047 0.51303 0.0
C318 C 0.97447 0.26513 0.48152 0.0
C319 C 0.01741 0.1803 0.1453 0.0
C320 C 0.0371 0.18086 0.107 0.0
C321 C 0.05085 0.19996 0.11662 0.0
C322 C 0.0457 0.21747 0.16693 0.0
C323 C 0.02686 0.21564 0.20837 0.0
C324 C 0.01297 0.19729 0.196 0.0
C325 C 0.99476 0.19663 0.2462 0.0
C326 C 1.00012 0.21738 0.29237 0.0
C327 C 0.01877 0.22882 0.27028 0.0
C328 C 0.99891 0.17552 0.27736 0.0
C329 C 0.97082 0.19783 0.2135 0.0
C330 C 0.05332 0.30331 0.36731 0.0
C331 C 0.04946 0.31678 0.42744 0.0
C332 C 0.03531 0.30912 0.47372 0.0
C333 C 0.0244 0.28885 0.46028 0.0
C334 C 0.02771 0.27581 0.39994 0.0
C335 C 0.04244 0.2826 0.35492 0.0
C336 C 0.04483 0.26512 0.29565 0.0
C337 C 0.02689 0.24836 0.30957 0.0
C338 C 0.01729 0.25484 0.37144 0.0
C339 C 0.06956 0.25565 0.29537 0.0
C340 C 0.03888 0.27515 0.2342 0.0
H341 H 0.95403 0.19032 0.32271 0.0
H342 H 0.96468 0.22226 0.55377 0.0
H343 H 0.95584 0.26213 0.47139 0.0
H344 H 0.97909 0.27829 0.45303 0.0
H345 H 0.97607 0.27159 0.53398 0.0
H346 H 0.01466 0.22325 0.50401 0.0
H347 H 1.00108 0.24355 0.56309 0.0
H348 H 0.02334 0.25097 0.51082 0.0
H349 H 1.00611 0.16618 0.13804 0.0
H350 H 0.06598 0.20099 0.08701 0.0
H351 H 0.05678 0.23153 0.17266 0.0
H352 H 0.01755 0.17351 0.28784 0.0
H353 H 0.99329 0.16065 0.24428 0.0
H354 H 0.99015 0.17553 0.32395 0.0
H355 H 0.97195 0.20465 0.16714 0.0
H356 H 0.95878 0.20903 0.24384 0.0
H357 H 0.96291 0.1813 0.20232 0.0
H358 H 0.93425 0.17438 0.4055 0.0
C359 C 0.95656 0.1978 0.37194 0.0
C360 C 0.32903 0.01037 0.13292 0.0
C361 C 0.34753 0.022 0.10855 0.0
C362 C 0.35035 0.0444 0.13345 0.0
C363 C 0.32122 0.04203 0.21399 0.0
C364 C 0.31537 0.02126 0.18499 0.0
C365 C 0.29278 0.01444 0.21444 0.0
H366 H 0.21438 0.04211 0.46584 0.0
C367 C 0.30639 0.04883 0.2697 0.0
C368 C 0.28829 0.03375 0.26952 0.0
H369 H 0.20698 0.9875 0.31145 0.0
H370 H 0.24355 0.99743 0.26424 0.0
H371 H 0.2578 0.03598 0.50158 0.0
H372 H 0.23119 0.07821 0.37988 0.0
H373 H 0.253 0.09284 0.42684 0.0
H374 H 0.2299 0.08067 0.46673 0.0
H375 H 0.25861 0.06463 0.52907 0.0
H376 H 0.28336 0.05014 0.49083 0.0
C377 C 0.29639 0.99263 0.24075 0.0
C378 C 0.27391 0.01292 0.16203 0.0
C379 C 0.34428 0.0886 0.46935 0.0
C380 C 0.33595 0.09379 0.53322 0.0
C381 C 0.31207 0.09698 0.54269 0.0
C382 C 0.29671 0.09136 0.49102 0.0
C383 C 0.3054 0.08199 0.43028 0.0
C384 C 0.32871 0.08255 0.41861 0.0
C385 C 0.33464 0.07321 0.34975 0.0
C386 C 0.31104 0.06451 0.32492 0.0
C387 C 0.29449 0.0686 0.37385 0.0
C388 C 0.35255 0.05443 0.34902 0.0
C389 C 0.34389 0.09216 0.31605 0.0
C390 C 0.21998 0.03246 0.42078 0.0
C391 C 0.20711 0.0144 0.39189 0.0
C392 C 0.21624 0.00174 0.33491 0.0
C393 C 0.23732 0.00762 0.3071 0.0
C394 C 0.24951 0.02628 0.33651 0.0
C395 C 0.24062 0.03802 0.39301 0.0
C396 C 0.25564 0.05658 0.42171 0.0
C397 C 0.27457 0.05522 0.37145 0.0
C398 C 0.2714 0.03739 0.32081 0.0
C399 C 0.26433 0.05177 0.48909 0.0
C400 C 0.24176 0.07829 0.4245 0.0
H401 H 0.33815 0.07194 0.19899 0.0
H402 H 0.32527 0.99362 0.11172 0.0
H403 H 0.27327 0.02826 0.13988 0.0
H404 H 0.25665 0.01071 0.18192 0.0
H405 H 0.27742 0.99894 0.1229 0.0
H406 H 0.31097 0.99403 0.27577 0.0
H407 H 0.30038 0.97912 0.20065 0.0
H408 H 0.2809 0.98802 0.26622 0.0
H409 H 0.36256 0.08661 0.46002 0.0
H410 H 0.3052 0.10181 0.59101 0.0
H411 H 0.27866 0.09318 0.50105 0.0
H412 H 0.34607 0.04157 0.37649 0.0
H413 H 0.36913 0.06069 0.37085 0.0
H414 H 0.3565 0.04653 0.29901 0.0
H415 H 0.35182 0.1054 0.35122 0.0
H416 H 0.32987 0.09984 0.29065 0.0
H417 H 0.35793 0.08649 0.28149 0.0
H418 H 0.36328 0.0541 0.11349 0.0
C419 C 0.33688 0.05452 0.18478 0.0
C420 C 0.50922 0.24486 0.19066 0.0
C421 C 0.52245 0.25898 0.15768 0.0
C422 C 0.54639 0.26045 0.1694 0.0
C423 C 0.54223 0.23975 0.25753 0.0
C424 C 0.51994 0.23457 0.23904 0.0
C425 C 0.5099 0.21869 0.28028 0.0
H426 H 0.51865 0.17232 0.55447 0.0
C427 C 0.54696 0.232 0.31906 0.0
C428 C 0.52989 0.21664 0.32758 0.0
H429 H 0.5041 0.13512 0.3662 0.0
H430 H 0.5143 0.16708 0.3153 0.0
H431 H 0.56474 0.19157 0.50894 0.0
H432 H 0.49701 0.22069 0.53059 0.0
H433 H 0.51673 0.24244 0.54409 0.0
H434 H 0.51648 0.22198 0.59786 0.0
H435 H 0.54992 0.19823 0.58503 0.0
H436 H 0.56631 0.21858 0.55239 0.0
C437 C 0.50387 0.19699 0.2369 0.0
C438 C 0.48841 0.22893 0.31653 0.0
C439 C 0.58132 0.29165 0.48358 0.0
C440 C 0.57602 0.29813 0.54931 0.0
C441 C 0.56581 0.28271 0.584 0.0
C442 C 0.55924 0.26191 0.55215 0.0
C443 C 0.56238 0.25671 0.48475 0.0
C444 C 0.57325 0.27152 0.45152 0.0
C445 C 0.57261 0.26463 0.3792 0.0
C446 C 0.55823 0.24373 0.37434 0.0
C447 C 0.55309 0.23886 0.43651 0.0
C448 C 0.59752 0.2595 0.3558 0.0
C449 C 0.56109 0.28309 0.34647 0.0
C450 C 0.51605 0.17135 0.50271 0.0
C451 C 0.50963 0.15136 0.46486 0.0
C452 C 0.50818 0.15043 0.39678 0.0
C453 C 0.51309 0.16899 0.36727 0.0
C454 C 0.51855 0.18887 0.40612 0.0
C455 C 0.52106 0.18964 0.47236 0.0
C456 C 0.53278 0.21052 0.50303 0.0
C457 C 0.53884 0.22068 0.44316 0.0
C458 C 0.52858 0.20892 0.38804 0.0
C459 C 0.55459 0.20455 0.53965 0.0
C460 C 0.515 0.22468 0.54654 0.0
H461 H 0.57457 0.25236 0.22768 0.0
H462 H 0.49102 0.24259 0.18058 0.0
H463 H 0.49263 0.24504 0.34586 0.0
H464 H 0.48173 0.21793 0.34976 0.0
H465 H 0.47446 0.23154 0.28186 0.0
H466 H 0.4945 0.2002 0.1927 0.0
H467 H 0.49212 0.18698 0.26224 0.0
H468 H 0.51969 0.18738 0.22135 0.0
H469 H 0.58982 0.30292 0.45629 0.0
H470 H 0.56152 0.28719 0.63477 0.0
H471 H 0.55095 0.25107 0.58052 0.0
H472 H 0.60639 0.24883 0.38687 0.0
H473 H 0.60755 0.27491 0.35775 0.0
H474 H 0.59813 0.2506 0.30581 0.0
H475 H 0.5634 0.29974 0.37433 0.0
H476 H 0.54219 0.28062 0.3411 0.0
H477 H 0.56878 0.28426 0.29869 0.0
H478 H 0.55714 0.27057 0.1436 0.0
C479 C 0.55639 0.25056 0.21881 0.0
Tb480 Tb 0.016 1.00019 0.71795 0.0
Tb481 Tb 0.05224 0.98427 0.82098 0.0
C482 C 0.99869 0.98893 0.85359 0.0
C483 C 0.96919 0.03296 0.66439 0.0
C484 C 0.94272 0.07165 0.69155 0.0
C485 C 0.95431 0.06323 0.74177 0.0
C486 C 0.96738 0.04394 0.72829 0.0
C487 C 0.95631 0.04035 0.61518 0.0
C488 C 0.94306 0.0595 0.62866 0.0
C489 C 0.98676 0.01584 0.64784 0.0
O490 O 0.02197 0.02766 0.79504 0.0
O491 O 0.05817 0.01939 0.82715 0.0
O492 O 0.07432 0.98684 0.73767 0.0
O493 O 0.04908 1.00045 0.66745 0.0
O494 O 0.06541 0.98635 0.91575 0.0
O495 O 0.07788 0.96175 0.83894 0.0
O496 O 0.03273 0.95563 0.77675 0.0
O497 O 0.02358 0.96617 0.67955 0.0
O498 O 0.99413 0.98917 0.79194 0.0
O499 O 0.01999 0.9903 0.87553 0.0
C500 C 0.0416 0.03375 0.82328 0.0
O501 O 1.00788 0.02283 0.65573 0.0
O502 O 0.98374 0.9976 0.67135 0.0
C503 C 0.06988 0.99401 0.68246 0.0
C504 C 0.0663 0.94949 0.93532 0.0
C505 C 0.03476 0.91846 0.96794 0.0
C506 C 0.05129 0.91228 0.91968 0.0
C507 C 0.06714 0.92758 0.90401 0.0
C508 C 0.05155 0.95484 0.98895 0.0
C509 C 0.03586 0.93941 0.00508 0.0
C510 C 0.0754 0.96714 0.90152 0.0
C511 C 0.02671 0.95071 0.71565 0.0
H512 H 0.95436 0.07223 0.79056 0.0
H513 H 0.97719 0.03834 0.76698 0.0
H514 H 0.9576 0.0321 0.56563 0.0
H515 H 0.93467 0.06574 0.58864 0.0
H516 H 0.05111 0.89597 0.89166 0.0
H517 H 0.07851 0.92276 0.86317 0.0
H518 H 0.05059 0.97147 0.01465 0.0
H519 H 0.02343 0.94441 0.04315 0.0
Tb520 Tb 0.52457 0.97411 0.72275 0.0
Tb521 Tb 0.54699 0.00935 0.83752 0.0
C522 C 0.54518 0.9586 0.84639 0.0
C523 C 0.47859 0.95611 0.61846 0.0
C524 C 0.44003 0.98383 0.61694 0.0
C525 C 0.44258 0.97089 0.66642 0.0
C526 C 0.46159 0.95695 0.66685 0.0
C527 C 0.47424 0.96665 0.56438 0.0
C528 C 0.45515 0.98053 0.56379 0.0
C529 C 0.50269 0.95111 0.63428 0.0
O530 O 0.49759 0.97888 0.79669 0.0
O531 O 0.50991 0.01063 0.85886 0.0
O532 O 0.54409 0.02502 0.75138 0.0
O533 O 0.51201 0.00692 0.71237 0.0
O534 O 0.57065 0.01805 0.9129 0.0
O535 O 0.5452 0.04139 0.88871 0.0
O536 O 0.57699 0.99783 0.77783 0.0
O537 O 0.55952 0.97865 0.68732 0.0
O538 O 0.54349 0.95424 0.78295 0.0
O539 O 0.54329 0.97877 0.87742 0.0
C540 C 0.49398 0.99564 0.84269 0.0
O541 O 0.5174 0.96609 0.62336 0.0
O542 O 0.50619 0.94509 0.69093 0.0
C543 C 0.52556 0.02397 0.71534 0.0
C544 C 0.58124 0.05536 0.92468 0.0
C545 C 0.61734 0.08594 0.93778 0.0
C546 C 0.59841 0.08877 0.9802 0.0
C547 C 0.58053 0.07355 0.97374 0.0
C548 C 0.59926 0.05324 0.8794 0.0
C549 C 0.61726 0.0684 0.88608 0.0
C550 C 0.56347 0.03844 0.92282 0.0
C551 C 0.57796 0.98747 0.71769 0.0
H552 H 0.43077 0.97273 0.70707 0.0
H553 H 0.46411 0.94869 0.70867 0.0
H554 H 0.48696 0.96623 0.52629 0.0
H555 H 0.45348 0.99022 0.52472 0.0
H556 H 0.59816 0.10192 0.02105 0.0
H557 H 0.56659 0.0755 0.00865 0.0
H558 H 0.59984 0.03945 0.84048 0.0
H559 H 0.63162 0.06586 0.85265 0.0
Tb560 Tb 0.50735 0.48095 0.83596 0.0
Tb561 Tb 0.54195 0.50536 0.74153 0.0
C562 C 0.48963 0.49346 0.70218 0.0
C563 C 0.48561 0.4381 0.92843 0.0
C564 C 0.48993 0.3966 0.97037 0.0
C565 C 0.4681 0.40623 0.96473 0.0
C566 C 0.466 0.4268 0.94408 0.0
C567 C 0.50743 0.42849 0.93339 0.0
C568 C 0.50957 0.40799 0.95445 0.0
C569 C 0.483 0.45943 0.90479 0.0
O570 O 0.52119 0.4559 0.76204 0.0
O571 O 0.5545 0.4716 0.73187 0.0
O572 O 0.55895 0.50748 0.83629 0.0
O573 O 0.54206 0.47869 0.87612 0.0
O574 O 0.55325 0.51123 0.64932 0.0
O575 O 0.56841 0.52806 0.73693 0.0
O576 O 0.51733 0.53004 0.78153 0.0
O577 O 0.50365 0.51601 0.87057 0.0
O578 O 0.48455 0.49144 0.76257 0.0
O579 O 0.5111 0.49548 0.68319 0.0
C580 C 0.54184 0.45425 0.73632 0.0
O581 O 0.48069 0.45839 0.84234 0.0
O582 O 0.49716 0.47498 0.92844 0.0
C583 C 0.55872 0.49316 0.87731 0.0
C584 C 0.56385 0.54876 0.65043 0.0
C585 C 0.56003 0.58968 0.60384 0.0
C586 C 0.56182 0.56986 0.56048 0.0
C587 C 0.5638 0.54966 0.58354 0.0
C588 C 0.56188 0.56858 0.69377 0.0
C589 C 0.56004 0.58875 0.67076 0.0
C590 C 0.56654 0.5273 0.67448 0.0
C591 C 0.50662 0.53235 0.83736 0.0
H592 H 0.45266 0.39801 0.97712 0.0
H593 H 0.449 0.43387 0.94017 0.0
H594 H 0.5228 0.43679 0.92068 0.0
H595 H 0.5266 0.40092 0.95743 0.0
H596 H 0.56203 0.57001 0.50864 0.0
H597 H 0.56543 0.53471 0.54903 0.0
H598 H 0.56182 0.56859 0.74568 0.0
H599 H 0.55836 0.60363 0.70548 0.0
Tb600 Tb 0.04255 0.51263 0.7285 0.0
Tb601 Tb 0.01777 0.48151 0.81972 0.0
C602 C 0.01989 0.53284 0.85848 0.0
C603 C 0.08865 0.52356 0.62971 0.0
C604 C 0.12241 0.49088 0.59642 0.0
C605 C 0.12273 0.50382 0.65781 0.0
C606 C 0.10612 0.52017 0.67413 0.0
C607 C 0.09024 0.5126 0.56574 0.0
C608 C 0.10692 0.49627 0.5493 0.0
C609 C 0.06594 0.53196 0.65426 0.0
O610 O 0.06806 0.50845 0.80378 0.0
O611 O 0.05428 0.47806 0.84323 0.0
O612 O 0.02158 0.46293 0.72322 0.0
O613 O 0.0544 0.47912 0.697 0.0
O614 O 0.99825 0.47838 0.90212 0.0
O615 O 1.00904 0.44965 0.83679 0.0
O616 O 0.98885 0.49435 0.7687 0.0
O617 O 1.00799 0.50739 0.68589 0.0
O618 O 0.02229 0.53496 0.79716 0.0
O619 O 0.02276 0.51367 0.878 0.0
C620 C 0.07079 0.49239 0.83858 0.0
O621 O 0.04892 0.51893 0.63414 0.0
O622 O 0.06446 0.53889 0.71649 0.0
C623 C 0.04051 0.4623 0.68913 0.0
C624 C 0.97002 0.45278 0.86945 0.0
C625 C 0.92489 0.46643 0.84694 0.0
C626 C 0.93219 0.4642 0.91015 0.0
C627 C 0.9546 0.45733 0.92123 0.0
C628 C 0.96162 0.45154 0.80562 0.0
C629 C 0.93915 0.4583 0.79447 0.0
C630 C 0.99451 0.45763 0.88203 0.0
C631 C 0.98885 0.50163 0.71255 0.0
H632 H 0.13495 0.50041 0.69443 0.0
H633 H 0.10569 0.52861 0.72352 0.0
H634 H 0.07704 0.51487 0.53049 0.0
H635 H 0.1064 0.48664 0.50139 0.0
H636 H 0.9217 0.47026 0.95194 0.0
H637 H 0.96072 0.45849 0.97075 0.0
H638 H 0.97314 0.44798 0.76454 0.0
H639 H 0.93372 0.4592 0.74525 0.0
C640 C 0.17827 0.98783 0.43023 0.0
C641 C 0.18471 0.00937 0.42354 0.0
C642 C 0.15888 0.98372 0.46789 0.0
C643 C 0.14563 0.00152 0.50058 0.0
C644 C 0.15155 0.02318 0.4918 0.0
C645 C 0.17059 0.02676 0.45301 0.0
C646 C 0.15298 0.96031 0.47424 0.0
C647 C 0.13826 0.04279 0.52552 0.0
C648 C 0.0849 0.99536 0.56901 0.0
C649 C 0.08926 0.995 0.6352 0.0
C650 C 0.10301 0.99649 0.52434 0.0
C651 C 0.12623 0.99786 0.54611 0.0
C652 C 0.13073 0.99736 0.61282 0.0
C653 C 0.11234 0.99568 0.6561 0.0
C654 C 0.09725 0.99645 0.45377 0.0
C655 C 0.15501 0.99925 0.63901 0.0
H656 H 0.18887 0.9742 0.40808 0.0
H657 H 0.17479 0.04347 0.44707 0.0
H658 H 0.15632 0.9574 0.52464 0.0
H659 H 0.1344 0.95728 0.46428 0.0
H660 H 0.16323 0.94825 0.44072 0.0
H661 H 0.14479 0.05857 0.51317 0.0
H662 H 0.11977 0.04134 0.51223 0.0
H663 H 0.13944 0.04329 0.57883 0.0
H664 H 0.06724 0.99461 0.55184 0.0
H665 H 0.11605 0.99549 0.70695 0.0
H666 H 0.10758 0.98371 0.423 0.0
H667 H 0.10174 0.01255 0.43948 0.0
H668 H 0.07868 0.99333 0.44337 0.0
H669 H 0.16605 0.98615 0.61239 0.0
H670 H 0.1558 0.99802 0.69155 0.0
H671 H 0.16239 0.01526 0.63143 0.0
C672 C 0.51758 0.11129 0.46857 0.0
C673 C 0.50712 0.13115 0.49604 0.0
C674 C 0.51794 0.09291 0.50143 0.0
C675 C 0.50761 0.09434 0.56339 0.0
C676 C 0.49586 0.1139 0.58967 0.0
C677 C 0.49584 0.13206 0.55589 0.0
C678 C 0.53041 0.07232 0.47126 0.0
C679 C 0.48408 0.11592 0.65472 0.0
C680 C 0.50058 0.04159 0.63802 0.0
C681 C 0.52027 0.04209 0.67751 0.0
C682 C 0.4959 0.05859 0.60135 0.0
C683 C 0.51141 0.07643 0.60365 0.0
C684 C 0.53113 0.07709 0.64403 0.0
C685 C 0.53529 0.06 0.68033 0.0
C686 C 0.47467 0.05706 0.55904 0.0
C687 C 0.54807 0.0958 0.6485 0.0
H688 H 0.52651 0.11039 0.42269 0.0
H689 H 0.48738 0.1472 0.57703 0.0
H690 H 0.54605 0.06988 0.50013 0.0
H691 H 0.51928 0.05776 0.47173 0.0
H692 H 0.53571 0.07306 0.4205 0.0
H693 H 0.4741 0.13148 0.66604 0.0
H694 H 0.47225 0.10189 0.65596 0.0
H695 H 0.49716 0.11534 0.69333 0.0
H696 H 0.48884 0.02784 0.63535 0.0
H697 H 0.55052 0.06065 0.7107 0.0
H698 H 0.47969 0.05091 0.50824 0.0
H699 H 0.46644 0.07341 0.55971 0.0
H700 H 0.46179 0.04558 0.57434 0.0
H701 H 0.55556 0.0966 0.60003 0.0
H702 H 0.56235 0.09408 0.68294 0.0
H703 H 0.53908 0.11166 0.66438 0.0
C704 C 0.40024 0.46558 0.40929 0.0
C705 C 0.3792 0.47719 0.4162 0.0
C706 C 0.4185 0.47043 0.45368 0.0
C707 C 0.41622 0.48784 0.50611 0.0
C708 C 0.39581 0.50092 0.51014 0.0
C709 C 0.3775 0.49534 0.46561 0.0
C710 C 0.4396 0.45578 0.44701 0.0
C711 C 0.39277 0.52009 0.56365 0.0
C712 C 0.4501 0.48142 0.6607 0.0
C713 C 0.47044 0.49307 0.65353 0.0
C714 C 0.4323 0.47994 0.61391 0.0
C715 C 0.43435 0.49093 0.559 0.0
C716 C 0.45449 0.50343 0.55282 0.0
C717 C 0.47238 0.50403 0.59931 0.0
C718 C 0.41158 0.46594 0.62226 0.0
C719 C 0.45726 0.51604 0.49667 0.0
H720 H 0.40187 0.4516 0.37116 0.0
H721 H 0.36135 0.50435 0.472 0.0
H722 H 0.45545 0.46576 0.44761 0.0
H723 H 0.44061 0.4466 0.48886 0.0
H724 H 0.43937 0.44374 0.40166 0.0
H725 H 0.37801 0.53076 0.55414 0.0
H726 H 0.38961 0.51391 0.6101 0.0
H727 H 0.40863 0.53017 0.56972 0.0
H728 H 0.44838 0.4728 0.70207 0.0
H729 H 0.48786 0.5133 0.59349 0.0
H730 H 0.41033 0.45246 0.58064 0.0
H731 H 0.39559 0.47592 0.6227 0.0
H732 H 0.41238 0.45862 0.66775 0.0
H733 H 0.45894 0.50442 0.45084 0.0
H734 H 0.47266 0.5268 0.50221 0.0
H735 H 0.44175 0.52634 0.49204 0.0
C736 C 0.07262 0.34472 0.49785 0.0
C737 C 0.05837 0.33947 0.44344 0.0
C738 C 0.07426 0.36644 0.52985 0.0
C739 C 0.06098 0.38319 0.50754 0.0
C740 C 0.04884 0.37838 0.44812 0.0
C741 C 0.04762 0.35649 0.41673 0.0
C742 C 0.08817 0.37095 0.59156 0.0
C743 C 0.03517 0.3959 0.42135 0.0
C744 C 0.03233 0.42358 0.63949 0.0
C745 C 0.04602 0.44237 0.6418 0.0
C746 C 0.03708 0.40445 0.59582 0.0
C747 C 0.05596 0.40396 0.5526 0.0
C748 C 0.06985 0.42292 0.55433 0.0
C749 C 0.06473 0.4419 0.59894 0.0
C750 C 0.02188 0.38462 0.59639 0.0
C751 C 0.08979 0.42348 0.5084 0.0
H752 H 0.08089 0.33154 0.51867 0.0
H753 H 0.03646 0.35245 0.37493 0.0
H754 H 0.09745 0.38678 0.5944 0.0
H755 H 0.07638 0.37222 0.63378 0.0
H756 H 0.10089 0.35764 0.59538 0.0
H757 H 0.02995 0.39055 0.37017 0.0
H758 H 0.01937 0.39979 0.45083 0.0
H759 H 0.04533 0.41123 0.42422 0.0
H760 H 0.01788 0.4237 0.67235 0.0
H761 H 0.07534 0.45639 0.5999 0.0
H762 H 0.03237 0.37047 0.60724 0.0
H763 H 0.01396 0.3798 0.54792 0.0
H764 H 1.00787 0.38769 0.63288 0.0
H765 H 0.0984 0.40723 0.49725 0.0
H766 H 0.10275 0.4359 0.52829 0.0
H767 H 0.08324 0.42802 0.46217 0.0
C768 C 0.88639 0.97356 0.07775 0.0
C769 C 0.88148 0.99402 0.11492 0.0
C770 C 0.90669 0.97021 0.03961 0.0
C771 C 0.92228 0.98785 0.03752 0.0
C772 C 0.91798 0.00807 0.07818 0.0
C773 C 0.89784 0.01083 0.11622 0.0
C774 C 0.91069 0.94818 0.99854 0.0
C775 C 0.93382 0.02744 0.07808 0.0
C776 C 0.98281 0.98132 0.96137 0.0
C777 C 0.97909 0.98747 0.89983 0.0
C778 C 0.96447 0.98044 0.00555 0.0
C779 C 0.94174 0.98618 0.98872 0.0
C780 C 0.93789 0.99206 0.92627 0.0
C781 C 0.95644 0.99246 0.88275 0.0
C782 C 0.96946 0.97356 0.07063 0.0
C783 C 0.91416 0.99857 0.90591 0.0
H784 H 0.87372 0.9606 0.07532 0.0
H785 H 0.89405 0.0268 0.14402 0.0
H786 H 0.9073 0.94955 0.94695 0.0
H787 H 0.92889 0.94287 1.00225 0.0
H788 H 0.89928 0.93531 0.01285 0.0
H789 H 0.92918 0.04141 0.11611 0.0
H790 H 0.95192 0.02256 0.08578 0.0
H791 H 0.93295 0.03318 0.03016 0.0
H792 H 1.00012 0.97715 0.9751 0.0
H793 H 0.95321 0.99726 0.83562 0.0
H794 H 0.95883 0.95911 0.07691 0.0
H795 H 0.96471 0.98701 0.11003 0.0
H796 H 0.9879 0.96929 0.07629 0.0
H797 H 0.9017 0.98531 0.91053 0.0
H798 H 0.91377 0.00202 0.85514 0.0
H799 H 0.90824 0.0135 0.9384 0.0
C800 C 0.5617 0.8536 0.03268 0.0
C801 C 0.54336 0.85295 0.07587 0.0
C802 C 0.56395 0.87114 0.99692 0.0
C803 C 0.54701 0.88803 1.00292 0.0
C804 C 0.52854 0.88745 0.047 0.0
C805 C 0.52711 0.87005 0.08351 0.0
C806 C 0.58423 0.8714 0.95191 0.0
C807 C 0.50979 0.90476 0.05382 0.0
C808 C 0.55757 0.94328 0.9461 0.0
C809 C 0.5473 0.94013 0.88448 0.0
C810 C 0.55835 0.92625 0.98423 0.0
C811 C 0.54796 0.90577 0.96113 0.0
C812 C 0.53769 0.90249 0.89872 0.0
C813 C 0.53779 0.91958 0.86085 0.0
C814 C 0.57007 0.93024 0.04957 0.0
C815 C 0.5259 0.88117 0.87274 0.0
H816 H 0.5742 0.84029 0.02668 0.0
H817 H 0.51275 0.86935 0.11628 0.0
H818 H 0.57814 0.86929 0.90093 0.0
H819 H 0.59309 0.88749 0.96169 0.0
H820 H 0.59689 0.85815 0.95699 0.0
H821 H 0.49677 0.90212 0.09079 0.0
H822 H 0.51734 0.92132 0.0675 0.0
H823 H 0.50092 0.90464 0.00658 0.0
H824 H 0.56504 0.9591 0.96452 0.0
H825 H 0.52958 0.91711 0.8136 0.0
H826 H 0.58297 0.9171 0.05333 0.0
H827 H 0.55721 0.92966 0.08849 0.0
H828 H 0.57884 0.94641 0.0584 0.0
H829 H 0.53818 0.86723 0.87131 0.0
H830 H 0.5188 0.88119 0.82326 0.0
H831 H 0.5116 0.87819 0.90551 0.0
C832 C 0.65423 0.51676 0.1615 0.0
C833 C 0.67184 0.50082 0.15712 0.0
C834 C 0.63498 0.5144 0.11943 0.0
C835 C 0.63335 0.49588 0.07009 0.0
C836 C 0.65076 0.47939 0.06672 0.0
C837 C 0.66961 0.48197 0.11042 0.0
C838 C 0.6168 0.53223 0.12633 0.0
C839 C 0.65015 0.45955 0.01463 0.0
C840 C 0.57551 0.48306 0.98157 0.0
C841 C 0.57789 0.49341 0.92622 0.0
C842 C 0.59326 0.48369 0.02853 0.0
C843 C 0.61429 0.49455 0.01985 0.0
C844 C 0.61693 0.50466 0.96345 0.0
C845 C 0.59875 0.50417 0.91802 0.0
C846 C 0.58933 0.47304 0.08812 0.0
C847 C 0.63905 0.51608 0.95098 0.0
H848 H 0.65586 0.53148 0.19693 0.0
H849 H 0.68332 0.46979 0.10558 0.0
H850 H 0.61732 0.54102 0.08366 0.0
H851 H 0.5994 0.52495 0.12777 0.0
H852 H 0.61927 0.5444 0.17079 0.0
H853 H 0.66396 0.44747 0.02101 0.0
H854 H 0.63323 0.45126 0.01445 0.0
H855 H 0.65227 0.46486 0.96645 0.0
H856 H 0.55953 0.47475 0.98892 0.0
H857 H 0.601 0.5121 0.87548 0.0
H858 H 0.59066 0.48556 0.13215 0.0
H859 H 0.60283 0.46046 0.0919 0.0
H860 H 0.57218 0.4651 0.08776 0.0
H861 H 0.64197 0.53017 0.98994 0.0
H862 H 0.63888 0.52227 0.90361 0.0
H863 H 0.65385 0.50462 0.95179 0.0
C864 C 0.96337 0.63092 0.1011 0.0
C865 C 0.97866 0.64813 0.12218 0.0
C866 C 0.97101 0.61134 0.06362 0.0
C867 C 0.99461 0.60876 0.047 0.0
C868 C 1.0104 0.62542 0.07202 0.0
C869 C 1.00224 0.64493 0.10935 0.0
C870 C 0.95354 0.59402 0.0385 0.0
C871 C 0.03573 0.62321 0.05611 0.0
C872 C 0.0148 0.55126 0.97367 0.0
C873 C 0.01415 0.55244 0.90692 0.0
C874 C 1.00904 0.56956 0.01992 0.0
C875 C 1.00226 0.58952 0.99911 0.0
C876 C 1.00176 0.59087 0.93187 0.0
C877 C 1.00779 0.57239 0.88672 0.0
C878 C 1.00993 0.56745 0.09105 0.0
C879 C 0.99443 0.61175 0.90747 0.0
H880 H 0.94515 0.63319 0.11157 0.0
H881 H 0.01412 0.6582 0.12511 0.0
H882 H 0.9519 0.59302 0.98513 0.0
H883 H 0.95929 0.57763 0.04847 0.0
H884 H 0.93626 0.59763 0.06046 0.0
H885 H 0.04609 0.63624 0.08539 0.0
H886 H 0.04235 0.60692 0.06449 0.0
H887 H 0.03831 0.62435 1.00404 0.0
H888 H 0.01979 0.53599 0.98996 0.0
H889 H 1.00717 0.57351 0.8354 0.0
H890 H 0.99241 0.56973 0.11221 0.0
H891 H 0.02096 0.58051 0.11746 0.0
H892 H 0.01671 0.5512 0.09952 0.0
H893 H 0.9764 0.61592 0.92236 0.0
H894 H 0.99553 0.61033 0.85385 0.0
H895 H 1.0054 0.62562 0.92936 0.0
C896 C 0.95093 0.16038 0.52278 0.0
C897 C 0.9431 0.18215 0.53432 0.0
C898 C 0.94665 0.14589 0.56659 0.0
C899 C 0.93402 0.15329 0.62389 0.0
C900 C 0.92625 0.17541 0.63659 0.0
C901 C 0.93102 0.18972 0.59151 0.0
C902 C 0.95576 0.12259 0.55109 0.0
C903 C 0.91248 0.1839 0.69641 0.0
C904 C 0.91457 0.10039 0.66812 0.0
C905 C 0.93448 0.09477 0.70026 0.0
C906 C 0.91173 0.12165 0.65266 0.0
C907 C 0.92943 0.13723 0.66879 0.0
C908 C 0.94711 0.13283 0.71195 0.0
C909 C 0.94947 0.1115 0.72722 0.0
C910 C 0.89184 0.12621 0.60995 0.0
C911 C 0.9658 0.14932 0.73275 0.0
H912 H 0.96079 0.15471 0.47931 0.0
H913 H 0.92507 0.20663 0.60045 0.0
H914 H 0.96716 0.11876 0.59073 0.0
H915 H 0.94127 0.11079 0.54664 0.0
H916 H 0.96572 0.11979 0.50515 0.0
H917 H 0.91382 0.20204 0.7089 0.0
H918 H 0.89407 0.1798 0.68707 0.0
H919 H 0.91807 0.17623 0.73876 0.0
H920 H 0.9025 0.08763 0.64911 0.0
H921 H 0.96471 0.10742 0.75324 0.0
H922 H 0.8975 0.12344 0.55856 0.0
H923 H 0.88598 0.14354 0.62186 0.0
H924 H 0.8771 0.11515 0.61492 0.0
H925 H 0.9789 0.14841 0.69374 0.0
H926 H 0.97454 0.14586 0.77762 0.0
H927 H 0.95875 0.16631 0.74117 0.0
C928 C 0.37472 0.09298 0.58536 0.0
C929 C 0.351 0.08889 0.587 0.0
C930 C 0.39048 0.07912 0.6107 0.0
C931 C 0.38209 0.06112 0.63858 0.0
C932 C 0.35833 0.05987 0.65216 0.0
C933 C 0.34297 0.07392 0.62632 0.0
C934 C 0.41582 0.08162 0.59788 0.0
C935 C 0.34868 0.04139 0.68381 0.0
C936 C 0.41026 0.00682 0.57222 0.0
C937 C 0.42376 0.00261 0.62458 0.0
C938 C 0.39652 0.02575 0.57681 0.0
C939 C 0.39641 0.04093 0.63524 0.0
C940 C 0.40974 0.0366 0.68875 0.0
C941 C 0.42327 0.01743 0.68277 0.0
C942 C 0.38232 0.0296 0.51859 0.0
C943 C 0.41031 0.05245 0.7514 0.0
H944 H 0.38102 0.1051 0.55703 0.0
H945 H 0.32467 0.07084 0.62923 0.0
H946 H 0.4265 0.0766 0.63736 0.0
H947 H 0.4205 0.07087 0.55212 0.0
H948 H 0.42006 0.09883 0.59242 0.0
H949 H 0.33145 0.04572 0.70526 0.0
H950 H 0.34677 0.02658 0.64665 0.0
H951 H 0.36034 0.03708 0.72221 0.0
H952 H 0.41063 0.99534 0.52739 0.0
H953 H 0.43411 0.0144 0.72296 0.0
H954 H 0.38777 0.04504 0.50173 0.0
H955 H 0.36385 0.03144 0.53197 0.0
H956 H 0.38404 0.01595 0.47748 0.0
H957 H 0.41945 0.06761 0.74356 0.0
H958 H 0.41929 0.04538 0.79067 0.0
H959 H 0.39261 0.05736 0.76774 0.0
C960 C 0.56985 0.33771 0.54011 0.0
C961 C 0.57725 0.3218 0.57751 0.0
C962 C 0.56768 0.35985 0.56703 0.0
C963 C 0.57293 0.36639 0.63329 0.0
C964 C 0.58158 0.35071 0.67067 0.0
C965 C 0.58353 0.32852 0.64239 0.0
C966 C 0.55813 0.37594 0.52553 0.0
C967 C 0.58757 0.35713 0.74136 0.0
C968 C 0.57317 0.42826 0.68853 0.0
C969 C 0.55057 0.43186 0.71163 0.0
C970 C 0.58116 0.40688 0.66531 0.0
C971 C 0.56612 0.3888 0.66477 0.0
C972 C 0.54349 0.39234 0.68929 0.0
C973 C 0.53606 0.41373 0.71249 0.0
C974 C 0.60547 0.40366 0.6401 0.0
C975 C 0.52679 0.37357 0.68916 0.0
H976 H 0.56444 0.33271 0.49035 0.0
H977 H 0.58942 0.31638 0.67145 0.0
H978 H 0.5688 0.39098 0.53053 0.0
H979 H 0.55732 0.36878 0.47343 0.0
H980 H 0.54047 0.38099 0.54202 0.0
H981 H 0.59791 0.37241 0.74863 0.0
H982 H 0.57151 0.3605 0.76995 0.0
H983 H 0.59733 0.34396 0.76081 0.0
H984 H 0.5846 0.44211 0.68835 0.0
H985 H 0.5186 0.4162 0.73057 0.0
H986 H 0.60513 0.39797 0.58707 0.0
H987 H 0.61437 0.39074 0.66288 0.0
H988 H 0.61567 0.41903 0.64949 0.0
H989 H 0.52319 0.36594 0.63852 0.0
H990 H 0.51018 0.37899 0.71287 0.0
H991 H 0.53442 0.36066 0.7146 0.0
C992 C 0.18789 0.38022 0.46591 0.0
C993 C 0.21111 0.38669 0.46826 0.0
C994 C 0.17127 0.39307 0.50326 0.0
C995 C 0.17832 0.41222 0.54458 0.0
C996 C 0.20195 0.41552 0.55838 0.0
C997 C 0.21818 0.40269 0.51998 0.0
C998 C 0.14613 0.38801 0.49132 0.0
C999 C 0.21018 0.43489 0.60579 0.0
C1000 C 0.14841 0.46556 0.52473 0.0
C1001 C 0.13663 0.47066 0.58345 0.0
C1002 C 0.16137 0.44617 0.51103 0.0
C1003 C 0.16248 0.43142 0.55719 0.0
C1004 C 0.15005 0.43617 0.61589 0.0
C1005 C 0.13741 0.45586 0.62855 0.0
C1006 C 0.17431 0.44177 0.4475 0.0
C1007 C 0.15038 0.42097 0.66632 0.0
H1008 H 0.18229 0.36686 0.42949 0.0
H1009 H 0.23605 0.40753 0.52527 0.0
H1010 H 0.13602 0.39231 0.53657 0.0
H1011 H 0.1394 0.39796 0.45513 0.0
H1012 H 0.14347 0.37037 0.47206 0.0
H1013 H 0.22835 0.43274 0.62054 0.0
H1014 H 0.20902 0.45 0.58278 0.0
H1015 H 0.19921 0.43735 0.64977 0.0
H1016 H 0.14777 0.47696 0.48984 0.0
H1017 H 0.12784 0.45951 0.67349 0.0
H1018 H 0.16932 0.42557 0.42036 0.0
H1019 H 0.19312 0.44122 0.45692 0.0
H1020 H 0.17095 0.45453 0.41616 0.0
H1021 H 0.15401 0.40367 0.64508 0.0
H1022 H 0.13367 0.42165 0.69246 0.0
H1023 H 0.16396 0.42641 0.70261 0.0
C1024 C 0.92395 0.84932 0.03965 0.0
C1025 C 0.93193 0.82781 0.04102 0.0
C1026 C 0.93799 0.86486 0.01603 0.0
C1027 C 0.96046 0.85867 0.99391 0.0
C1028 C 0.96747 0.83643 0.9881 0.0
C1029 C 0.95308 0.82125 0.01149 0.0
C1030 C 0.92959 0.88829 0.02025 0.0
C1031 C 0.99123 0.82909 0.96419 0.0
C1032 C 1.00179 0.89565 0.92093 0.0
C1033 C 0.01516 0.90387 0.97519 0.0
C1034 C 0.98307 0.88178 0.92654 0.0
C1035 C 0.978 0.87567 0.98765 0.0
C1036 C 0.99115 0.88441 0.04287 0.0
C1037 C 1.00947 0.8986 0.03601 0.0
C1038 C 0.96926 0.87325 0.86673 0.0
C1039 C 0.9864 0.87816 0.10888 0.0
H1040 H 0.90743 0.85441 0.06115 0.0
H1041 H 0.95959 0.80475 0.01246 0.0
H1042 H 0.93783 0.89853 0.06231 0.0
H1043 H 0.93443 0.89525 0.9761 0.0
H1044 H 0.9106 0.88957 0.02654 0.0
H1045 H 0.99292 0.81089 0.95488 0.0
H1046 H 0.99537 0.83565 0.91895 0.0
H1047 H 1.00421 0.83561 1.00117 0.0
H1048 H 1.00593 0.9002 0.87407 0.0
H1049 H 0.01976 0.90512 0.07787 0.0
H1050 H 0.95065 0.87247 0.87809 0.0
H1051 H 0.97514 0.85635 0.84738 0.0
H1052 H 0.9715 0.88365 0.82805 0.0
H1053 H 0.96822 0.88195 0.12285 0.0
H1054 H 0.99778 0.8869 0.14707 0.0
H1055 H 0.98898 0.8602 0.10731 0.0
C1056 C 0.7017 0.12093 0.18963 0.0
C1057 C 0.72502 0.12378 0.17569 0.0
C1058 C 0.68468 0.12243 0.14299 0.0
C1059 C 0.69114 0.1272 0.08122 0.0
C1060 C 0.71395 0.13385 0.07101 0.0
C1061 C 0.7308 0.13183 0.1183 0.0
C1062 C 0.66039 0.11575 0.15693 0.0
C1063 C 0.72113 0.14077 0.00773 0.0
C1064 C 0.65924 0.08711 0.9609 0.0
C1065 C 0.63862 0.09861 0.95542 0.0
C1066 C 0.67784 0.09718 0.99604 0.0
C1067 C 0.67585 0.11944 0.02537 0.0
C1068 C 0.65637 0.13195 0.01195 0.0
C1069 C 0.63771 0.12127 0.97795 0.0
C1070 C 0.69838 0.08313 0.00839 0.0
C1071 C 0.65419 0.15607 0.03827 0.0
H1072 H 0.69689 0.11489 0.23388 0.0
H1073 H 0.7487 0.13482 0.108 0.0
H1074 H 0.64778 0.12782 0.14313 0.0
H1075 H 0.65653 0.09955 0.1278 0.0
H1076 H 0.65782 0.1144 0.20894 0.0
H1077 H 0.73575 0.15245 0.01511 0.0
H1078 H 0.72694 0.12613 0.97388 0.0
H1079 H 0.70663 0.14856 0.98465 0.0
H1080 H 0.66005 0.06961 0.94347 0.0
H1081 H 0.62193 0.13034 0.97247 0.0
H1082 H 0.69873 0.08087 0.06019 0.0
H1083 H 0.71463 0.09128 0.99804 0.0
H1084 H 0.69794 0.06664 0.97826 0.0
H1085 H 0.64447 0.15809 0.08452 0.0
H1086 H 0.6444 0.16481 1.00397 0.0
H1087 H 0.67128 0.16393 0.04749 0.0
C1088 C 0.48558 0.65 0.0322 0.0
C1089 C 0.47258 0.66446 1.00048 0.0
C1090 C 0.48848 0.62797 0.00518 0.0
C1091 C 0.47776 0.62006 0.94535 0.0
C1092 C 0.46377 0.63435 0.91429 0.0
C1093 C 0.46164 0.65659 0.9418 0.0
C1094 C 0.50409 0.61352 0.039 0.0
C1095 C 0.45166 0.6263 0.85119 0.0
C1096 C 0.5095 0.57287 0.84588 0.0
C1097 C 0.49815 0.55458 0.86327 0.0
C1098 C 0.50252 0.59427 0.87065 0.0
C1099 C 0.48334 0.59751 0.91278 0.0
C1100 C 0.47121 0.57912 0.92861 0.0
C1101 C 0.479 0.55778 0.90437 0.0
C1102 C 0.51637 0.61337 0.85392 0.0
C1103 C 0.45033 0.582 0.97207 0.0
H1104 H 0.49437 0.65621 0.07711 0.0
H1105 H 0.4516 0.66782 0.91741 0.0
H1106 H 0.49497 0.59836 0.04684 0.0
H1107 H 0.51928 0.6084 0.00803 0.0
H1108 H 0.5103 0.622 0.08663 0.0
H1109 H 0.43906 0.63855 0.83796 0.0
H1110 H 0.46451 0.62285 0.81166 0.0
H1111 H 0.44253 0.6107 0.85432 0.0
H1112 H 0.5244 0.57047 0.81431 0.0
H1113 H 0.47002 0.54364 0.91715 0.0
H1114 H 0.52432 0.62234 0.89857 0.0
H1115 H 0.505 0.62515 0.83346 0.0
H1116 H 0.53027 0.60802 0.81841 0.0
H1117 H 0.44128 0.56623 0.97353 0.0
H1118 H 0.43807 0.59387 0.95526 0.0
H1119 H 0.4556 0.58886 0.02212 0.0
C1120 C 0.86301 0.56795 0.97404 0.0
C1121 C 0.83899 0.56572 0.97344 0.0
C1122 C 0.8764 0.55462 0.92795 0.0
C1123 C 0.86513 0.54017 0.87863 0.0
C1124 C 0.84139 0.54312 0.86756 0.0
C1125 C 0.82827 0.55565 0.91627 0.0
C1126 C 0.90207 0.55335 0.93865 0.0
C1127 C 0.82945 0.53043 0.80963 0.0
C1128 C 0.90808 0.4981 0.79972 0.0
C1129 C 0.90536 0.48146 0.83849 0.0
C1130 C 0.89354 0.51663 0.80722 0.0
C1131 C 0.87615 0.5186 0.85504 0.0
C1132 C 0.87186 0.50073 0.88929 0.0
C1133 C 0.88625 0.48221 0.8794 0.0
C1134 C 0.8982 0.53453 0.76696 0.0
C1135 C 0.85375 0.502 0.94174 0.0
H1136 H 0.87129 0.57685 0.01667 0.0
H1137 H 0.80964 0.55474 0.91354 0.0
H1138 H 0.90662 0.53724 0.95332 0.0
H1139 H 0.91139 0.55466 0.89309 0.0
H1140 H 0.90822 0.56659 0.97688 0.0
H1141 H 0.81384 0.53935 0.79657 0.0
H1142 H 0.84122 0.52755 0.76724 0.0
H1143 H 0.82395 0.51422 0.8211 0.0
H1144 H 0.92268 0.49768 0.76729 0.0
H1145 H 0.88374 0.46909 0.90802 0.0
H1146 H 0.91657 0.53943 0.77192 0.0
H1147 H 0.88718 0.54932 0.77956 0.0
H1148 H 0.8952 0.528 0.71529 0.0
H1149 H 0.85723 0.51621 0.97983 0.0
H1150 H 0.85328 0.48693 0.96511 0.0
H1151 H 0.83645 0.50442 0.92136 0.0
C1152 C 0.0416 0.14007 0.08281 0.0
C1153 C 0.04341 0.16059 0.06145 0.0
C1154 C 0.04364 0.12035 0.03983 0.0
C1155 C 0.04816 0.12092 0.97349 0.0
C1156 C 0.05158 0.14153 0.95216 0.0
C1157 C 0.04907 0.16118 0.99641 0.0
C1158 C 0.03977 0.09889 0.06508 0.0
C1159 C 0.05692 0.14286 0.88216 0.0
C1160 C 0.06532 0.06479 0.88204 0.0
C1161 C 0.04412 0.05688 0.856 0.0
C1162 C 0.06729 0.08619 0.91677 0.0
C1163 C 0.04753 0.09993 0.92674 0.0
C1164 C 0.0263 0.09233 0.89829 0.0
C1165 C 0.0249 0.07103 0.86307 0.0
C1166 C 0.09036 0.09379 0.94491 0.0
C1167 C 1.0047 0.10624 0.90792 0.0
H1168 H 0.03777 0.13946 0.13335 0.0
H1169 H 0.05055 0.17693 0.97954 0.0
H1170 H 0.0243 0.09066 0.04157 0.0
H1171 H 0.05463 0.08765 0.05283 0.0
H1172 H 0.03723 0.10124 0.11845 0.0
H1173 H 0.06248 0.15959 0.87522 0.0
H1174 H 0.07064 0.13089 0.86396 0.0
H1175 H 0.04134 0.13855 0.85215 0.0
H1176 H 0.08036 0.05414 0.87621 0.0
H1177 H 1.00843 0.06523 0.84293 0.0
H1178 H 0.08998 0.09452 0.99835 0.0
H1179 H 0.09412 0.1106 0.93472 0.0
H1180 H 0.10459 0.0826 0.92529 0.0
H1181 H 0.99964 0.10844 0.95978 0.0
H1182 H 0.99005 0.09873 0.87831 0.0
H1183 H 1.00787 0.12281 0.89511 0.0
C1184 C 0.36772 0.02153 1.00175 0.0
C1185 C 0.3646 0.01202 0.05836 0.0
C1186 C 0.38755 0.01715 0.96266 0.0
C1187 C 0.40513 0.0031 0.98066 0.0
C1188 C 0.40145 0.99246 0.03575 0.0
C1189 C 0.38129 0.99702 0.07374 0.0
C1190 C 0.39029 0.0287 0.90423 0.0
C1191 C 0.4195 0.97731 0.05704 0.0
C1192 C 0.45315 0.98279 0.85856 0.0
C1193 C 0.47117 0.99759 0.87767 0.0
C1194 C 0.43171 0.98433 0.89119 0.0
C1195 C 0.42796 0.00098 0.94509 0.0
C1196 C 0.44607 0.01597 0.96462 0.0
C1197 C 0.46726 0.01415 0.93082 0.0
C1198 C 0.41302 0.96813 0.86772 0.0
C1199 C 0.44306 0.03403 0.02151 0.0
H1200 H 0.35513 0.03341 0.98993 0.0
H1201 H 0.37937 0.98998 0.11804 0.0
H1202 H 0.40394 0.04132 0.91394 0.0
H1203 H 0.39577 0.01691 0.86137 0.0
H1204 H 0.37411 0.03692 0.89206 0.0
H1205 H 0.41323 0.96862 0.09654 0.0
H1206 H 0.42498 0.96493 0.01555 0.0
H1207 H 0.43495 0.98697 0.07461 0.0
H1208 H 0.45574 0.9699 0.81781 0.0
H1209 H 0.48087 0.02572 0.9465 0.0
H1210 H 0.39754 0.97702 0.85383 0.0
H1211 H 0.40784 0.95902 0.90735 0.0
H1212 H 0.41855 0.9561 0.82535 0.0
H1213 H 0.42851 0.04492 0.01214 0.0
H1214 H 0.45878 0.0442 0.0314 0.0
H1215 H 0.43873 0.02685 0.06565 0.0
C1216 C 0.52176 0.27797 0.05942 0.0
C1217 C 0.51167 0.27452 0.11809 0.0
C1218 C 0.51589 0.2964 0.03016 0.0
C1219 C 0.49968 0.31189 0.06057 0.0
C1220 C 0.48817 0.3076 0.11718 0.0
C1221 C 0.49424 0.28891 0.14511 0.0
C1222 C 0.52831 0.30008 0.96926 0.0
C1223 C 0.47078 0.32363 0.15123 0.0
C1224 C 0.50915 0.37156 0.03911 0.0
C1225 C 0.49222 0.37485 0.99339 0.0
C1226 C 0.51156 0.35125 0.06159 0.0
C1227 C 0.49678 0.33362 0.03752 0.0
C1228 C 0.47965 0.33681 0.99131 0.0
C1229 C 0.47751 0.35739 0.97001 0.0
C1230 C 0.52994 0.34868 0.1113 0.0
C1231 C 0.46373 0.31841 0.96396 0.0
H1232 H 0.53518 0.26684 0.03822 0.0
H1233 H 0.48658 0.2865 0.19085 0.0
H1234 H 0.51596 0.30483 0.93308 0.0
H1235 H 0.54068 0.31379 0.98098 0.0
H1236 H 0.538 0.28523 0.94697 0.0
H1237 H 0.46126 0.31664 0.18945 0.0
H1238 H 0.47977 0.33868 0.17419 0.0
H1239 H 0.45819 0.32866 0.11609 0.0
H1240 H 0.52037 0.38503 0.05809 0.0
H1241 H 0.46454 0.35972 0.93417 0.0
H1242 H 0.54221 0.33548 0.09151 0.0
H1243 H 0.52199 0.34372 0.15517 0.0
H1244 H 0.53977 0.36407 0.12595 0.0
H1245 H 0.47394 0.30435 0.93897 0.0
H1246 H 0.45111 0.32359 0.92903 0.0
H1247 H 0.45417 0.31241 1.00375 0.0
C1248 C 0.18411 0.49906 0.07152 0.0
C1249 C 0.19877 0.48093 0.05372 0.0
C1250 C 0.1638 0.50201 0.03579 0.0
C1251 C 0.15803 0.48665 0.9802 0.0
C1252 C 0.17342 0.46892 0.96046 0.0
C1253 C 0.19333 0.46618 0.99759 0.0
C1254 C 0.14797 0.52106 0.0593 0.0
C1255 C 0.16848 0.45232 0.90115 0.0
C1256 C 0.09481 0.47841 0.92595 0.0
C1257 C 0.09312 0.49079 0.87466 0.0
C1258 C 0.11556 0.47728 0.96113 0.0
C1259 C 0.13551 0.48844 0.94435 0.0
C1260 C 0.13397 0.50076 0.89217 0.0
C1261 C 0.11289 0.50195 0.85864 0.0
C1262 C 0.1161 0.4641 0.01656 0.0
C1263 C 0.1547 0.51257 0.87119 0.0
H1264 H 0.18789 0.51032 0.11534 0.0
H1265 H 0.20444 0.45204 0.98362 0.0
H1266 H 0.14426 0.53066 0.01949 0.0
H1267 H 0.1313 0.51474 0.0745 0.0
H1268 H 0.15538 0.53224 0.1009 0.0
H1269 H 0.15282 0.44288 0.90939 0.0
H1270 H 0.16501 0.46079 0.85874 0.0
H1271 H 0.18298 0.44056 0.88908 0.0
H1272 H 0.07975 0.4698 0.93936 0.0
H1273 H 0.112 0.5115 0.81917 0.0
H1274 H 0.1217 0.47467 0.06167 0.0
H1275 H 0.12884 0.4505 0.00635 0.0
H1276 H 0.09905 0.45699 0.02519 0.0
H1277 H 0.161 0.52471 0.91208 0.0
H1278 H 0.15084 0.52127 0.8294 0.0
H1279 H 0.16891 0.50065 0.8574 0.0
C1280 C 0.97691 0.83293 0.57377 0.0
C1281 C 0.99251 0.81992 0.53313 0.0
C1282 C 0.98376 0.85279 0.61095 0.0
C1283 C 1.00681 0.85991 0.60741 0.0
C1284 C 0.02308 0.84594 0.5707 0.0
C1285 C 0.01573 0.82608 0.53396 0.0
C1286 C 0.96586 0.86694 0.64993 0.0
C1287 C 0.04789 0.85272 0.56636 0.0
C1288 C 0.01491 0.92186 0.62345 0.0
C1289 C 0.02234 0.92733 0.68786 0.0
C1290 C 1.01018 0.89999 0.59674 0.0
C1291 C 0.01302 0.883 0.6351 0.0
C1292 C 0.02085 0.88831 0.69989 0.0
C1293 C 0.02534 0.91039 0.72556 0.0
C1294 C 1.00177 0.89513 0.52751 0.0
C1295 C 0.02411 0.87074 0.74244 0.0
H1296 H 0.95895 0.82816 0.57353 0.0
H1297 H 0.02783 0.81619 0.50231 0.0
H1298 H 0.97241 0.87303 0.69928 0.0
H1299 H 0.96201 0.88151 0.6261 0.0
H1300 H 0.94954 0.85793 0.65428 0.0
H1301 H 0.05898 0.83888 0.54394 0.0
H1302 H 0.04901 0.86618 0.53656 0.0
H1303 H 0.05476 0.85911 0.61518 0.0
H1304 H 0.01254 0.93473 0.59377 0.0
H1305 H 0.03109 0.91436 0.77538 0.0
H1306 H 0.98434 0.88777 0.52625 0.0
H1307 H 0.01335 0.88298 0.49881 0.0
H1308 H 1.00092 0.9101 0.5037 0.0
H1309 H 1.00709 0.86418 0.75384 0.0
H1310 H 0.03291 0.87707 0.78872 0.0
H1311 H 0.03432 0.85679 0.71678 0.0
C1312 C 0.6836 0.00923 0.48983 0.0
C1313 C 0.70345 0.99601 0.49172 0.0
C1314 C 0.66385 0.00654 0.52702 0.0
C1315 C 0.66334 0.98992 0.56723 0.0
C1316 C 0.68298 0.97599 0.56798 0.0
C1317 C 0.70271 0.97916 0.53036 0.0
C1318 C 0.64353 0.0218 0.52378 0.0
C1319 C 0.68326 0.9579 0.60937 0.0
C1320 C 0.6196 0.99898 0.70732 0.0
C1321 C 0.6005 0.98664 0.68141 0.0
C1322 C 0.64026 0.99963 0.67177 0.0
C1323 C 0.64229 0.98751 0.60847 0.0
C1324 C 0.62335 0.97448 0.58286 0.0
C1325 C 0.60281 0.97428 0.61921 0.0
C1326 C 0.65972 0.01394 0.70131 0.0
C1327 C 0.62452 0.96115 0.51604 0.0
H1328 H 0.68344 0.0219 0.45893 0.0
H1329 H 0.71775 0.96878 0.53247 0.0
H1330 H 0.62794 0.01216 0.50749 0.0
H1331 H 0.63983 0.0309 0.57274 0.0
H1332 H 0.64654 0.0339 0.49022 0.0
H1333 H 0.69929 0.94786 0.60286 0.0
H1334 H 0.6817 0.96509 0.66123 0.0
H1335 H 0.66826 0.94694 0.59736 0.0
H1336 H 0.61825 0.00866 0.75504 0.0
H1337 H 0.58838 0.96459 0.59828 0.0
H1338 H 0.66275 0.02734 0.6722 0.0
H1339 H 0.67588 0.00418 0.70044 0.0
H1340 H 0.65607 0.02142 0.75214 0.0
H1341 H 0.6256 0.97234 0.47913 0.0
H1342 H 0.60925 0.95043 0.50506 0.0
H1343 H 0.64027 0.95073 0.51126 0.0
C1344 C 0.52487 0.70712 0.51533 0.0
C1345 C 0.53589 0.71207 0.45947 0.0
C1346 C 0.53106 0.68846 0.54301 0.0
C1347 C 0.54891 0.67443 0.51463 0.0
C1348 C 0.56143 0.68039 0.46172 0.0
C1349 C 0.55475 0.69911 0.4347 0.0
C1350 C 0.51731 0.68289 0.59964 0.0
C1351 C 0.5808 0.66612 0.43057 0.0
C1352 C 0.57045 0.6296 0.6086 0.0
C1353 C 0.55791 0.61124 0.57958 0.0
C1354 C 0.56813 0.65015 0.58721 0.0
C1355 C 0.55272 0.65252 0.53596 0.0
C1356 C 0.54017 0.634 0.50613 0.0
C1357 C 0.54299 0.61363 0.52807 0.0
C1358 C 0.58202 0.66936 0.61979 0.0
C1359 C 0.52339 0.6358 0.45172 0.0
H1360 H 0.51045 0.7172 0.53525 0.0
H1361 H 0.56326 0.70267 0.39128 0.0
H1362 H 0.50665 0.66817 0.5835 0.0
H1363 H 0.52895 0.67883 0.63845 0.0
H1364 H 0.50572 0.69658 0.62039 0.0
H1365 H 0.59094 0.67455 0.39659 0.0
H1366 H 0.59258 0.66126 0.46799 0.0
H1367 H 0.57358 0.65083 0.40314 0.0
H1368 H 0.58224 0.62784 0.64789 0.0
H1369 H 0.53305 0.59963 0.50585 0.0
H1370 H 0.5703 0.68247 0.6433 0.0
H1371 H 0.5922 0.67648 0.58317 0.0
H1372 H 0.59397 0.66461 0.65707 0.0
H1373 H 0.50959 0.64783 0.46897 0.0
H1374 H 0.51526 0.61981 0.4329 0.0
H1375 H 0.53232 0.64197 0.41115 0.0
C1376 C 0.86473 0.49606 0.51968 0.0
C1377 C 0.86914 0.50148 0.45774 0.0
C1378 C 0.88247 0.49643 0.56708 0.0
C1379 C 0.90554 0.50202 0.55235 0.0
C1380 C 0.9099 0.50755 0.48994 0.0
C1381 C 0.89175 0.50807 0.44537 0.0
C1382 C 0.8759 0.49071 0.63238 0.0
C1383 C 0.93387 0.51264 0.46836 0.0
C1384 C 0.95612 0.52175 0.66634 0.0
C1385 C 0.96665 0.50193 0.67597 0.0
C1386 C 0.93552 0.52206 0.62994 0.0
C1387 C 0.92536 0.502 0.60021 0.0
C1388 C 0.93611 0.48193 0.61019 0.0
C1389 C 0.95626 0.48217 0.64868 0.0
C1390 C 0.92522 0.54415 0.6227 0.0
C1391 C 0.92692 0.46009 0.57812 0.0
H1392 H 0.84751 0.49112 0.53108 0.0
H1393 H 0.89565 0.51347 0.39953 0.0
H1394 H 0.89079 0.4895 0.66492 0.0
H1395 H 0.86379 0.50339 0.6565 0.0
H1396 H 0.86659 0.47481 0.62587 0.0
H1397 H 0.93582 0.50807 0.41506 0.0
H1398 H 0.93688 0.53057 0.47997 0.0
H1399 H 0.94744 0.50391 0.49223 0.0
H1400 H 0.96398 0.53712 0.68741 0.0
H1401 H 0.96439 0.46679 0.65563 0.0
H1402 H 0.90667 0.54312 0.60967 0.0
H1403 H 0.93469 0.55116 0.58458 0.0
H1404 H 0.92722 0.55586 0.66834 0.0
H1405 H 0.91018 0.45682 0.60023 0.0
H1406 H 0.93885 0.44628 0.58346 0.0
H1407 H 0.9239 0.46037 0.52567 0.0
loop_
_geom_bond_atom_site_label_1
_geom_bond_atom_site_label_2
_geom_bond_distance
_geom_bond_site_symmetry_2
_ccdc_geom_bond_type
C0 C1 1.391 . S
C0 C4 1.391 . S
C0 H42 0.948 . S
C1 C0 1.391 . S
C1 C2 1.391 . S
C2 C1 1.391 . S
C2 H58 0.947 . S
C2 C59 1.392 . S
C3 C4 1.391 . S
C3 C7 1.397 . S
C3 C59 1.419 . S
C4 C0 1.391 . S
C4 C3 1.391 . S
C4 C5 1.399 . S
C5 C4 1.399 . S
C5 C8 1.396 . S
C5 C17 1.453 . S
C5 C18 1.684 . S
H6 C30 0.948 . S
C7 C3 1.397 . S
C7 C8 1.394 . S
C7 C26 1.723 . S
C8 C5 1.396 . S
C8 C7 1.394 . S
C8 C38 1.723 . S
H9 C32 0.947 . S
H10 C33 0.948 . S
H11 C39 0.982 . S
H12 C40 0.979 . S
H13 C40 0.980 . S
H14 C40 0.983 . S
H15 C39 0.979 . S
H16 C39 0.977 . S
C17 C5 1.453 . S
C17 H46 0.982 . S
C17 H47 0.979 . S
C17 H48 0.977 . S
C18 C5 1.684 . S
C18 H43 0.979 . S
C18 H44 0.980 . S
C18 H45 0.983 . S
C19 C20 1.391 . S
C19 C24 1.391 . S
C19 H49 0.948 . S
C20 C19 1.391 . S
C20 C21 1.391 . S
C21 C20 1.391 . S
C21 C22 1.392 . S
C21 H50 0.947 . S
C22 C21 1.392 . S
C22 C23 1.419 . S
C22 H51 0.948 . S
C23 C22 1.419 . S
C23 C24 1.391 . S
C23 C27 1.397 . S
C24 C19 1.391 . S
C24 C23 1.391 . S
C24 C25 1.399 . S
C25 C24 1.399 . S
C25 C26 1.396 . S
C25 C28 1.453 . S
C25 C29 1.684 . S
C26 C7 1.723 . S
C26 C25 1.396 . S
C26 C27 1.394 . S
C27 C23 1.397 . S
C27 C26 1.394 . S
C27 C37 1.723 . S
C28 C25 1.453 . S
C28 H52 0.982 . S
C28 H53 0.979 . S
C28 H54 0.977 . S
C29 C25 1.684 . S
C29 H55 0.979 . S
C29 H56 0.980 . S
C29 H57 0.983 . S
C30 H6 0.948 . S
C30 C31 1.391 . S
C30 C35 1.391 . S
C31 C30 1.391 . S
C31 C32 1.391 . S
C32 H9 0.947 . S
C32 C31 1.391 . S
C32 C33 1.392 . S
C33 H10 0.948 . S
C33 C32 1.392 . S
C33 C34 1.419 . S
C34 C33 1.419 . S
C34 C35 1.391 . S
C34 C38 1.397 . S
C35 C30 1.391 . S
C35 C34 1.391 . S
C35 C36 1.399 . S
C36 C35 1.399 . S
C36 C37 1.396 . S
C36 C39 1.453 . S
C36 C40 1.684 . S
C37 C27 1.723 . S
C37 C36 1.396 . S
C37 C38 1.394 . S
C38 C8 1.723 . S
C38 C34 1.397 . S
C38 C37 1.394 . S
C39 H11 0.982 . S
C39 H15 0.979 . S
C39 H16 0.977 . S
C39 C36 1.453 . S
C40 H12 0.979 . S
C40 H13 0.980 . S
C40 H14 0.983 . S
C40 C36 1.684 . S
H41 C59 0.948 . S
H42 C0 0.948 . S
H43 C18 0.979 . S
H44 C18 0.980 . S
H45 C18 0.983 . S
H46 C17 0.982 . S
H47 C17 0.979 . S
H48 C17 0.977 . S
H49 C19 0.948 . S
H50 C21 0.947 . S
H51 C22 0.948 . S
H52 C28 0.982 . S
H53 C28 0.979 . S
H54 C28 0.977 . S
H55 C29 0.979 . S
H56 C29 0.980 . S
H57 C29 0.983 . S
H58 C2 0.947 . S
C59 C2 1.392 . S
C59 C3 1.419 . S
C59 H41 0.948 . S
C60 C61 1.391 . S
C60 C64 1.391 . S
C60 H102 0.948 . S
C61 C60 1.391 . S
C61 C62 1.391 . S
C62 C61 1.391 . S
C62 H118 0.947 . S
C62 C119 1.392 . S
C63 C64 1.391 . S
C63 C67 1.397 . S
C63 C119 1.419 . S
C64 C60 1.391 . S
C64 C63 1.391 . S
C64 C65 1.399 . S
C65 C64 1.399 . S
C65 C68 1.396 . S
C65 C77 1.453 . S
C65 C78 1.684 . S
H66 C90 0.948 . S
C67 C63 1.397 . S
C67 C68 1.394 . S
C67 C86 1.723 . S
C68 C65 1.396 . S
C68 C67 1.394 . S
C68 C98 1.723 . S
H69 C92 0.947 . S
H70 C93 0.948 . S
H71 C99 0.982 1_455 S
H72 C100 0.979 . S
H73 C100 0.980 . S
H74 C100 0.983 . S
H75 C99 0.979 . S
H76 C99 0.977 . S
C77 C65 1.453 . S
C77 H106 0.982 1_655 S
C77 H107 0.979 . S
C77 H108 0.977 . S
C78 C65 1.684 . S
C78 H103 0.979 . S
C78 H104 0.980 . S
C78 H105 0.983 . S
C79 C80 1.391 . S
C79 C84 1.391 . S
C79 H109 0.948 . S
C80 C79 1.391 . S
C80 C81 1.391 . S
C81 C80 1.391 . S
C81 C82 1.392 . S
C81 H110 0.947 . S
C82 C81 1.392 . S
C82 C83 1.419 . S
C82 H111 0.948 . S
C83 C82 1.419 . S
C83 C84 1.391 . S
C83 C87 1.397 . S
C84 C79 1.391 . S
C84 C83 1.391 . S
C84 C85 1.399 . S
C85 C84 1.399 . S
C85 C86 1.396 . S
C85 C88 1.453 . S
C85 C89 1.684 . S
C86 C67 1.723 . S
C86 C85 1.396 . S
C86 C87 1.394 . S
C87 C83 1.397 . S
C87 C86 1.394 . S
C87 C97 1.723 . S
C88 C85 1.453 . S
C88 H112 0.982 1_655 S
C88 H113 0.979 . S
C88 H114 0.977 . S
C89 C85 1.684 . S
C89 H115 0.979 . S
C89 H116 0.980 . S
C89 H117 0.983 . S
C90 H66 0.948 . S
C90 C91 1.391 . S
C90 C95 1.391 . S
C91 C90 1.391 . S
C91 C92 1.391 . S
C92 H69 0.947 . S
C92 C91 1.391 . S
C92 C93 1.392 . S
C93 H70 0.948 . S
C93 C92 1.392 . S
C93 C94 1.419 . S
C94 C93 1.419 . S
C94 C95 1.391 . S
C94 C98 1.397 . S
C95 C90 1.391 . S
C95 C94 1.391 . S
C95 C96 1.399 . S
C96 C95 1.399 . S
C96 C97 1.396 . S
C96 C99 1.453 . S
C96 C100 1.684 . S
C97 C87 1.723 . S
C97 C96 1.396 . S
C97 C98 1.394 . S
C98 C68 1.723 . S
C98 C94 1.397 . S
C98 C97 1.394 . S
C99 H71 0.982 1_655 S
C99 H75 0.979 . S
C99 H76 0.977 . S
C99 C96 1.453 . S
C100 H72 0.979 . S
C100 H73 0.980 . S
C100 H74 0.983 . S
C100 C96 1.684 . S
H101 C119 0.948 . S
H102 C60 0.948 . S
H103 C78 0.979 . S
H104 C78 0.980 . S
H105 C78 0.983 . S
H106 C77 0.982 1_455 S
H107 C77 0.979 . S
H108 C77 0.977 . S
H109 C79 0.948 . S
H110 C81 0.947 . S
H111 C82 0.948 . S
H112 C88 0.982 1_455 S
H113 C88 0.979 . S
H114 C88 0.977 . S
H115 C89 0.979 . S
H116 C89 0.980 . S
H117 C89 0.983 . S
H118 C62 0.947 . S
C119 C62 1.392 . S
C119 C63 1.419 . S
C119 H101 0.948 . S
C120 C121 1.391 . S
C120 C124 1.391 . S
C120 H162 0.948 . S
C121 C120 1.391 . S
C121 C122 1.391 . S
C122 C121 1.391 . S
C122 H178 0.947 . S
C122 C179 1.392 . S
C123 C124 1.391 . S
C123 C127 1.397 1_565 S
C123 C179 1.419 . S
C124 C120 1.391 . S
C124 C123 1.391 . S
C124 C125 1.399 . S
C125 C124 1.399 . S
C125 C128 1.396 1_565 S
C125 C137 1.453 1_565 S
C125 C138 1.684 . S
H126 C150 0.948 . S
C127 C123 1.397 1_545 S
C127 C128 1.395 . S
C127 C146 1.722 . S
C128 C125 1.396 1_545 S
C128 C127 1.395 . S
C128 C158 1.722 . S
H129 C152 0.947 . S
H130 C153 0.948 . S
H131 C159 0.982 . S
H132 C160 0.979 . S
H133 C160 0.980 . S
H134 C160 0.983 . S
H135 C159 0.979 . S
H136 C159 0.977 . S
C137 C125 1.453 1_545 S
C137 H166 0.982 . S
C137 H167 0.979 . S
C137 H168 0.977 . S
C138 C125 1.684 . S
C138 H163 0.979 . S
C138 H164 0.980 . S
C138 H165 0.983 . S
C139 C140 1.391 . S
C139 C144 1.391 . S
C139 H169 0.948 . S
C140 C139 1.391 . S
C140 C141 1.391 . S
C141 C140 1.391 . S
C141 C142 1.392 . S
C141 H170 0.947 . S
C142 C141 1.392 . S
C142 C143 1.419 . S
C142 H171 0.948 . S
C143 C142 1.419 . S
C143 C144 1.391 . S
C143 C147 1.397 1_565 S
C144 C139 1.391 . S
C144 C143 1.391 . S
C144 C145 1.399 . S
C145 C144 1.399 . S
C145 C146 1.396 1_565 S
C145 C148 1.453 1_565 S
C145 C149 1.684 . S
C146 C127 1.722 . S
C146 C145 1.396 1_545 S
C146 C147 1.394 . S
C147 C143 1.397 1_545 S
C147 C146 1.394 . S
C147 C157 1.723 . S
C148 C145 1.453 1_545 S
C148 H172 0.982 . S
C148 H173 0.979 . S
C148 H174 0.977 . S
C149 C145 1.684 . S
C149 H175 0.979 . S
C149 H176 0.980 . S
C149 H177 0.983 . S
C150 H126 0.948 . S
C150 C151 1.391 . S
C150 C155 1.391 . S
C151 C150 1.391 . S
C151 C152 1.391 . S
C152 H129 0.947 . S
C152 C151 1.391 . S
C152 C153 1.392 . S
C153 H130 0.948 . S
C153 C152 1.392 . S
C153 C154 1.419 . S
C154 C153 1.419 . S
C154 C155 1.391 . S
C154 C158 1.398 1_565 S
C155 C150 1.391 . S
C155 C154 1.391 . S
C155 C156 1.399 . S
C156 C155 1.399 . S
C156 C157 1.396 1_565 S
C156 C159 1.453 1_565 S
C156 C160 1.684 . S
C157 C147 1.723 . S
C157 C156 1.396 1_545 S
C157 C158 1.394 . S
C158 C128 1.722 . S
C158 C154 1.398 1_545 S
C158 C157 1.394 . S
C159 H131 0.982 . S
C159 H135 0.979 . S
C159 H136 0.977 . S
C159 C156 1.453 1_545 S
C160 H132 0.979 . S
C160 H133 0.980 . S
C160 H134 0.983 . S
C160 C156 1.684 . S
H161 C179 0.948 . S
H162 C120 0.948 . S
H163 C138 0.979 . S
H164 C138 0.980 . S
H165 C138 0.983 . S
H166 C137 0.982 . S
H167 C137 0.979 . S
H168 C137 0.977 . S
H169 C139 0.948 . S
H170 C141 0.947 . S
H171 C142 0.948 . S
H172 C148 0.982 . S
H173 C148 0.979 . S
H174 C148 0.977 . S
H175 C149 0.979 . S
H176 C149 0.980 . S
H177 C149 0.983 . S
H178 C122 0.947 . S
C179 C122 1.392 . S
C179 C123 1.419 . S
C179 H161 0.948 . S
C180 C181 1.391 . S
C180 C184 1.391 . S
C180 H222 0.948 . S
C181 C180 1.391 . S
C181 C182 1.391 . S
C182 C181 1.391 . S
C182 H238 0.947 . S
C182 C239 1.392 . S
C183 C184 1.391 . S
C183 C187 1.397 . S
C183 C239 1.419 . S
C184 C180 1.391 . S
C184 C183 1.391 . S
C184 C185 1.399 . S
C185 C184 1.399 . S
C185 C188 1.396 . S
C185 C197 1.453 . S
C185 C198 1.684 . S
H186 C210 0.948 . S
C187 C183 1.397 . S
C187 C188 1.394 . S
C187 C206 1.723 1_554 S
C188 C185 1.396 . S
C188 C187 1.394 . S
C188 C218 1.740 . S
H189 C212 0.947 . S
H190 C213 0.948 . S
H191 C219 0.982 . S
H192 C220 0.979 . S
H193 C220 0.980 . S
H194 C220 0.983 . S
H195 C219 0.979 . S
H196 C219 0.977 . S
C197 C185 1.453 . S
C197 H226 0.982 . S
C197 H227 0.979 . S
C197 H228 0.977 . S
C198 C185 1.684 . S
C198 H223 0.979 . S
C198 H224 0.980 . S
C198 H225 0.983 . S
C199 C200 1.391 . S
C199 C204 1.391 . S
C199 H229 0.948 . S
C200 C199 1.391 . S
C200 C201 1.391 . S
C201 C200 1.391 . S
C201 C202 1.392 . S
C201 H230 0.947 . S
C202 C201 1.392 . S
C202 C203 1.419 . S
C202 H231 0.948 . S
C203 C202 1.419 . S
C203 C204 1.391 . S
C203 C207 1.397 . S
C204 C199 1.391 . S
C204 C203 1.391 . S
C204 C205 1.399 . S
C205 C204 1.399 . S
C205 C206 1.396 . S
C205 C208 1.453 . S
C205 C209 1.683 . S
C206 C187 1.723 1_556 S
C206 C205 1.396 . S
C206 C207 1.394 . S
C207 C203 1.397 . S
C207 C206 1.394 . S
C207 C217 1.723 . S
C208 C205 1.453 . S
C208 H232 0.982 . S
C208 H233 0.979 . S
C208 H234 0.977 1_556 S
C209 C205 1.683 . S
C209 H235 0.978 . S
C209 H236 0.981 1_556 S
C209 H237 0.983 . S
C210 H186 0.948 . S
C210 C211 1.391 . S
C210 C215 1.391 . S
C211 C210 1.391 . S
C211 C212 1.391 1_556 S
C212 H189 0.947 . S
C212 C211 1.391 1_554 S
C212 C213 1.392 . S
C213 H190 0.948 . S
C213 C212 1.392 . S
C213 C214 1.419 1_554 S
C214 C213 1.419 1_556 S
C214 C215 1.391 . S
C214 C218 1.393 1_556 S
C215 C210 1.391 . S
C215 C214 1.391 . S
C215 C216 1.399 . S
C216 C215 1.399 . S
C216 C217 1.396 . S
C216 C219 1.453 . S
C216 C220 1.684 . S
C217 C207 1.723 . S
C217 C216 1.396 . S
C217 C218 1.378 1_556 S
C218 C188 1.740 . S
C218 C214 1.393 1_554 S
C218 C217 1.378 1_554 S
C219 H191 0.982 . S
C219 H195 0.979 . S
C219 H196 0.977 . S
C219 C216 1.453 . S
C220 H192 0.979 . S
C220 H193 0.980 . S
C220 H194 0.983 . S
C220 C216 1.684 . S
H221 C239 0.948 . S
H222 C180 0.948 . S
H223 C198 0.979 . S
H224 C198 0.980 . S
H225 C198 0.983 . S
H226 C197 0.982 . S
H227 C197 0.979 . S
H228 C197 0.977 . S
H229 C199 0.948 . S
H230 C201 0.947 . S
H231 C202 0.948 . S
H232 C208 0.982 . S
H233 C208 0.979 . S
H234 C208 0.977 1_554 S
H235 C209 0.978 . S
H236 C209 0.981 1_554 S
H237 C209 0.983 . S
H238 C182 0.947 . S
C239 C182 1.392 . S
C239 C183 1.419 . S
C239 H221 0.948 . S
C240 C241 1.391 . S
C240 C244 1.391 . S
C240 H282 0.948 . S
C241 C240 1.391 . S
C241 C242 1.391 . S
C242 C241 1.391 . S
C242 H298 0.947 . S
C242 C299 1.392 . S
C243 C244 1.391 . S
C243 C247 1.397 . S
C243 C299 1.419 . S
C244 C240 1.391 . S
C244 C243 1.391 . S
C244 C245 1.399 . S
C245 C244 1.399 . S
C245 C248 1.396 . S
C245 C257 1.453 . S
C245 C258 1.684 . S
H246 C270 0.948 . S
C247 C243 1.397 . S
C247 C248 1.394 . S
C247 C266 1.723 . S
C248 C245 1.396 . S
C248 C247 1.394 . S
C248 C278 1.723 . S
H249 C272 0.947 . S
H250 C273 0.948 . S
H251 C279 0.982 . S
H252 C280 0.979 . S
H253 C280 0.980 . S
H254 C280 0.983 . S
H255 C279 0.979 . S
H256 C279 0.977 . S
C257 C245 1.453 . S
C257 H286 0.982 . S
C257 H287 0.979 . S
C257 H288 0.977 . S
C258 C245 1.684 . S
C258 H283 0.979 . S
C258 H284 0.980 . S
C258 H285 0.983 . S
C259 C260 1.391 . S
C259 C264 1.391 . S
C259 H289 0.948 . S
C260 C259 1.391 . S
C260 C261 1.391 . S
C261 C260 1.391 . S
C261 C262 1.392 . S
C261 H290 0.947 . S
C262 C261 1.392 . S
C262 C263 1.419 . S
C262 H291 0.948 . S
C263 C262 1.419 . S
C263 C264 1.391 . S
C263 C267 1.397 . S
C264 C259 1.391 . S
C264 C263 1.391 . S
C264 C265 1.399 . S
C265 C264 1.399 . S
C265 C266 1.396 . S
C265 C268 1.453 . S
C265 C269 1.684 . S
C266 C247 1.723 . S
C266 C265 1.396 . S
C266 C267 1.394 . S
C267 C263 1.397 . S
C267 C266 1.394 . S
C267 C277 1.723 . S
C268 C265 1.453 . S
C268 H292 0.982 . S
C268 H293 0.979 . S
C268 H294 0.977 . S
C269 C265 1.684 . S
C269 H295 0.979 . S
C269 H296 0.980 . S
C269 H297 0.983 . S
C270 H246 0.948 . S
C270 C271 1.391 . S
C270 C275 1.391 1_556 S
C271 C270 1.391 . S
C271 C272 1.391 . S
C272 H249 0.947 . S
C272 C271 1.391 . S
C272 C273 1.392 . S
C273 H250 0.948 . S
C273 C272 1.392 . S
C273 C274 1.419 1_556 S
C274 C273 1.419 1_554 S
C274 C275 1.391 . S
C274 C278 1.397 . S
C275 C270 1.391 1_554 S
C275 C274 1.391 . S
C275 C276 1.399 . S
C276 C275 1.399 . S
C276 C277 1.396 . S
C276 C279 1.453 . S
C276 C280 1.684 . S
C277 C267 1.723 . S
C277 C276 1.396 . S
C277 C278 1.394 . S
C278 C248 1.723 . S
C278 C274 1.397 . S
C278 C277 1.394 . S
C279 H251 0.982 . S
C279 H255 0.979 . S
C279 H256 0.977 . S
C279 C276 1.453 . S
C280 H252 0.979 . S
C280 H253 0.980 . S
C280 H254 0.983 . S
C280 C276 1.684 . S
H281 C299 0.948 . S
H282 C240 0.948 . S
H283 C258 0.979 . S
H284 C258 0.980 . S
H285 C258 0.983 . S
H286 C257 0.982 . S
H287 C257 0.979 . S
H288 C257 0.977 . S
H289 C259 0.948 . S
H290 C261 0.947 . S
H291 C262 0.948 . S
H292 C268 0.982 . S
H293 C268 0.979 . S
H294 C268 0.977 . S
H295 C269 0.979 . S
H296 C269 0.980 . S
H297 C269 0.983 . S
H298 C242 0.947 . S
C299 C242 1.392 . S
C299 C243 1.419 . S
C299 H281 0.948 . S
C300 C301 1.391 . S
C300 C304 1.391 . S
C300 H342 0.948 . S
C301 C300 1.391 . S
C301 C302 1.391 . S
C302 C301 1.391 . S
C302 H358 0.947 . S
C302 C359 1.392 . S
C303 C304 1.391 . S
C303 C307 1.397 . S
C303 C359 1.419 . S
C304 C300 1.391 . S
C304 C303 1.391 . S
C304 C305 1.399 . S
C305 C304 1.399 . S
C305 C308 1.396 . S
C305 C317 1.453 . S
C305 C318 1.684 . S
H306 C330 0.948 . S
C307 C303 1.397 . S
C307 C308 1.394 . S
C307 C326 1.723 . S
C308 C305 1.396 . S
C308 C307 1.394 . S
C308 C338 1.723 . S
H309 C332 0.947 . S
H310 C333 0.948 . S
H311 C339 0.982 . S
H312 C340 0.979 . S
H313 C340 0.980 . S
H314 C340 0.983 . S
H315 C339 0.979 . S
H316 C339 0.977 . S
C317 C305 1.453 . S
C317 H346 0.982 . S
C317 H347 0.979 . S
C317 H348 0.977 . S
C318 C305 1.684 . S
C318 H343 0.979 . S
C318 H344 0.980 . S
C318 H345 0.983 . S
C319 C320 1.391 1_554 S
C319 C324 1.391 . S
C319 H349 0.948 1_554 S
C320 C319 1.391 1_556 S
C320 C321 1.391 . S
C321 C320 1.391 . S
C321 C322 1.392 1_556 S
C321 H350 0.947 . S
C322 C321 1.392 1_554 S
C322 C323 1.419 . S
C322 H351 0.948 . S
C323 C322 1.419 . S
C323 C324 1.391 . S
C323 C327 1.397 . S
C324 C319 1.391 . S
C324 C323 1.391 . S
C324 C325 1.399 . S
C325 C324 1.399 . S
C325 C326 1.396 . S
C325 C328 1.453 . S
C325 C329 1.684 . S
C326 C307 1.723 . S
C326 C325 1.396 . S
C326 C327 1.394 . S
C327 C323 1.397 . S
C327 C326 1.394 . S
C327 C337 1.723 . S
C328 C325 1.453 . S
C328 H352 0.982 . S
C328 H353 0.979 . S
C328 H354 0.977 . S
C329 C325 1.684 . S
C329 H355 0.979 . S
C329 H356 0.980 . S
C329 H357 0.983 . S
C330 H306 0.948 . S
C330 C331 1.391 . S
C330 C335 1.391 . S
C331 C330 1.391 . S
C331 C332 1.391 . S
C332 H309 0.947 . S
C332 C331 1.391 . S
C332 C333 1.392 . S
C333 H310 0.948 . S
C333 C332 1.392 . S
C333 C334 1.419 . S
C334 C333 1.419 . S
C334 C335 1.391 . S
C334 C338 1.397 . S
C335 C330 1.391 . S
C335 C334 1.391 . S
C335 C336 1.399 . S
C336 C335 1.399 . S
C336 C337 1.396 . S
C336 C339 1.453 . S
C336 C340 1.684 . S
C337 C327 1.723 . S
C337 C336 1.396 . S
C337 C338 1.394 . S
C338 C308 1.723 . S
C338 C334 1.397 . S
C338 C337 1.394 . S
C339 H311 0.982 . S
C339 H315 0.979 . S
C339 H316 0.977 . S
C339 C336 1.453 . S
C340 H312 0.979 . S
C340 H313 0.980 . S
C340 H314 0.983 . S
C340 C336 1.684 . S
H341 C359 0.948 . S
H342 C300 0.948 . S
H343 C318 0.979 . S
H344 C318 0.980 . S
H345 C318 0.983 . S
H346 C317 0.982 . S
H347 C317 0.979 . S
H348 C317 0.977 . S
H349 C319 0.948 1_556 S
H350 C321 0.947 . S
H351 C322 0.948 . S
H352 C328 0.982 . S
H353 C328 0.979 . S
H354 C328 0.977 . S
H355 C329 0.979 . S
H356 C329 0.980 . S
H357 C329 0.983 . S
H358 C302 0.947 . S
C359 C302 1.392 . S
C359 C303 1.419 . S
C359 H341 0.948 . S
C360 C361 1.391 . S
C360 C364 1.391 1_556 S
C360 H402 0.948 . S
C361 C360 1.391 . S
C361 C362 1.391 . S
C362 C361 1.391 . S
C362 H418 0.947 . S
C362 C419 1.392 1_556 S
C363 C364 1.391 . S
C363 C367 1.398 1_545 S
C363 C419 1.419 . S
C364 C360 1.391 1_554 S
C364 C363 1.391 . S
C364 C365 1.399 . S
C365 C364 1.399 . S
C365 C368 1.396 1_545 S
C365 C377 1.453 1_545 S
C365 C378 1.684 . S
H366 C390 0.948 . S
C367 C363 1.398 1_565 S
C367 C368 1.394 . S
C367 C386 1.722 . S
C368 C365 1.396 1_565 S
C368 C367 1.394 . S
C368 C398 1.723 . S
H369 C392 0.947 . S
H370 C393 0.948 . S
H371 C399 0.982 . S
H372 C400 0.979 . S
H373 C400 0.980 . S
H374 C400 0.983 . S
H375 C399 0.979 . S
H376 C399 0.977 . S
C377 C365 1.453 1_565 S
C377 H406 0.982 . S
C377 H407 0.979 1_554 S
C377 H408 0.977 . S
C378 C365 1.684 . S
C378 H403 0.979 . S
C378 H404 0.980 . S
C378 H405 0.983 1_554 S
C379 C380 1.391 . S
C379 C384 1.391 . S
C379 H409 0.948 . S
C380 C379 1.391 . S
C380 C381 1.391 . S
C381 C380 1.391 . S
C381 C382 1.392 . S
C381 H410 0.947 . S
C382 C381 1.392 . S
C382 C383 1.419 . S
C382 H411 0.948 . S
C383 C382 1.419 . S
C383 C384 1.391 . S
C383 C387 1.397 1_545 S
C384 C379 1.391 . S
C384 C383 1.391 . S
C384 C385 1.399 . S
C385 C384 1.399 . S
C385 C386 1.396 1_545 S
C385 C388 1.453 1_545 S
C385 C389 1.684 . S
C386 C367 1.722 . S
C386 C385 1.396 1_565 S
C386 C387 1.395 . S
C387 C383 1.397 1_565 S
C387 C386 1.395 . S
C387 C397 1.723 . S
C388 C385 1.453 1_565 S
C388 H412 0.982 . S
C388 H413 0.979 . S
C388 H414 0.977 . S
C389 C385 1.684 . S
C389 H415 0.979 . S
C389 H416 0.980 . S
C389 H417 0.983 . S
C390 H366 0.948 . S
C390 C391 1.391 . S
C390 C395 1.391 . S
C391 C390 1.391 . S
C391 C392 1.391 . S
C392 H369 0.947 . S
C392 C391 1.391 . S
C392 C393 1.392 . S
C393 H370 0.948 . S
C393 C392 1.392 . S
C393 C394 1.419 . S
C394 C393 1.419 . S
C394 C395 1.391 . S
C394 C398 1.397 1_545 S
C395 C390 1.391 . S
C395 C394 1.391 . S
C395 C396 1.399 . S
C396 C395 1.399 . S
C396 C397 1.396 1_545 S
C396 C399 1.453 1_545 S
C396 C400 1.684 . S
C397 C387 1.723 . S
C397 C396 1.396 1_565 S
C397 C398 1.394 . S
C398 C368 1.723 . S
C398 C394 1.397 1_565 S
C398 C397 1.394 . S
C399 H371 0.982 . S
C399 H375 0.979 . S
C399 H376 0.977 . S
C399 C396 1.453 1_565 S
C400 H372 0.979 . S
C400 H373 0.980 . S
C400 H374 0.983 . S
C400 C396 1.684 . S
H401 C419 0.948 . S
H402 C360 0.948 . S
H403 C378 0.979 . S
H404 C378 0.980 . S
H405 C378 0.983 1_556 S
H406 C377 0.982 . S
H407 C377 0.979 1_556 S
H408 C377 0.977 . S
H409 C379 0.948 . S
H410 C381 0.947 . S
H411 C382 0.948 . S
H412 C388 0.982 . S
H413 C388 0.979 . S
H414 C388 0.977 . S
H415 C389 0.979 . S
H416 C389 0.980 . S
H417 C389 0.983 . S
H418 C362 0.947 . S
C419 C362 1.392 1_554 S
C419 C363 1.419 . S
C419 H401 0.948 . S
C420 C421 1.391 . S
C420 C424 1.391 . S
C420 H462 0.948 . S
C421 C420 1.391 . S
C421 C422 1.391 . S
C422 C421 1.391 . S
C422 H478 0.947 . S
C422 C479 1.392 . S
C423 C424 1.391 . S
C423 C427 1.397 . S
C423 C479 1.419 . S
C424 C420 1.391 . S
C424 C423 1.391 . S
C424 C425 1.399 . S
C425 C424 1.399 . S
C425 C428 1.396 . S
C425 C437 1.453 . S
C425 C438 1.684 . S
H426 C450 0.948 . S
C427 C423 1.397 . S
C427 C428 1.394 . S
C427 C446 1.723 . S
C428 C425 1.396 . S
C428 C427 1.394 . S
C428 C458 1.723 . S
H429 C452 0.947 . S
H430 C453 0.948 . S
H431 C459 0.982 . S
H432 C460 0.979 . S
H433 C460 0.980 . S
H434 C460 0.983 . S
H435 C459 0.979 . S
H436 C459 0.977 . S
C437 C425 1.453 . S
C437 H466 0.982 . S
C437 H467 0.979 . S
C437 H468 0.977 . S
C438 C425 1.684 . S
C438 H463 0.979 . S
C438 H464 0.980 . S
C438 H465 0.983 . S
C439 C440 1.391 . S
C439 C444 1.391 . S
C439 H469 0.948 . S
C440 C439 1.391 . S
C440 C441 1.391 . S
C441 C440 1.391 . S
C441 C442 1.392 . S
C441 H470 0.947 . S
C442 C441 1.392 . S
C442 C443 1.419 . S
C442 H471 0.948 . S
C443 C442 1.419 . S
C443 C444 1.391 . S
C443 C447 1.397 . S
C444 C439 1.391 . S
C444 C443 1.391 . S
C444 C445 1.399 . S
C445 C444 1.399 . S
C445 C446 1.396 . S
C445 C448 1.453 . S
C445 C449 1.684 . S
C446 C427 1.723 . S
C446 C445 1.396 . S
C446 C447 1.394 . S
C447 C443 1.397 . S
C447 C446 1.394 . S
C447 C457 1.723 . S
C448 C445 1.453 . S
C448 H472 0.982 . S
C448 H473 0.979 . S
C448 H474 0.977 . S
C449 C445 1.684 . S
C449 H475 0.979 . S
C449 H476 0.980 . S
C449 H477 0.983 . S
C450 H426 0.948 . S
C450 C451 1.391 . S
C450 C455 1.391 . S
C451 C450 1.391 . S
C451 C452 1.391 . S
C452 H429 0.947 . S
C452 C451 1.391 . S
C452 C453 1.392 . S
C453 H430 0.948 . S
C453 C452 1.392 . S
C453 C454 1.419 . S
C454 C453 1.419 . S
C454 C455 1.391 . S
C454 C458 1.397 . S
C455 C450 1.391 . S
C455 C454 1.391 . S
C455 C456 1.399 . S
C456 C455 1.399 . S
C456 C457 1.396 . S
C456 C459 1.453 . S
C456 C460 1.684 . S
C457 C447 1.723 . S
C457 C456 1.396 . S
C457 C458 1.394 . S
C458 C428 1.723 . S
C458 C454 1.397 . S
C458 C457 1.394 . S
C459 H431 0.982 . S
C459 H435 0.979 . S
C459 H436 0.977 . S
C459 C456 1.453 . S
C460 H432 0.979 . S
C460 H433 0.980 . S
C460 H434 0.983 . S
C460 C456 1.684 . S
H461 C479 0.948 . S
H462 C420 0.948 . S
H463 C438 0.979 . S
H464 C438 0.980 . S
H465 C438 0.983 . S
H466 C437 0.982 . S
H467 C437 0.979 . S
H468 C437 0.977 . S
H469 C439 0.948 . S
H470 C441 0.947 . S
H471 C442 0.948 . S
H472 C448 0.982 . S
H473 C448 0.979 . S
H474 C448 0.977 . S
H475 C449 0.979 . S
H476 C449 0.980 . S
H477 C449 0.983 . S
H478 C422 0.947 . S
C479 C422 1.392 . S
C479 C423 1.419 . S
C479 H461 0.948 . S
Tb480 C489 2.764 . S
Tb480 O490 2.325 1_655 S
Tb480 O493 2.303 1_655 S
Tb480 O497 2.322 1_545 S
Tb480 O498 2.349 . S
Tb480 O501 2.415 1_655 S
Tb480 O502 2.399 . S
Tb481 O491 2.322 1_565 S
Tb481 O492 2.349 . S
Tb481 O494 2.415 . S
Tb481 O495 2.399 . S
Tb481 O496 2.325 . S
Tb481 O499 2.303 1_455 S
Tb481 C510 2.764 . S
C482 O498 1.261 . S
C482 O499 1.257 1_545 S
C483 C486 1.358 . S
C483 C487 1.332 1_655 S
C483 C489 1.504 . S
C484 C485 1.373 . S
C484 C488 1.308 1_655 S
C485 C484 1.373 . S
C485 C486 1.429 . S
C485 H512 0.932 . S
C486 C483 1.358 . S
C486 C485 1.429 . S
C486 H513 0.930 . S
C487 C483 1.332 1_455 S
C487 C488 1.394 . S
C487 H514 0.932 . S
C488 C484 1.308 1_455 S
C488 C487 1.394 . S
C488 H515 0.929 . S
C489 Tb480 2.764 . S
C489 C483 1.504 . S
C489 O501 1.239 1_655 S
C489 O502 1.263 . S
O490 Tb480 2.325 1_455 S
O490 C500 1.236 . S
O491 Tb481 2.322 1_545 S
O491 C500 1.257 . S
O492 Tb481 2.349 . S
O492 C503 1.261 . S
O493 Tb480 2.303 1_455 S
O493 C503 1.257 1_545 S
O494 Tb481 2.415 . S
O494 C510 1.239 . S
O495 Tb481 2.399 . S
O495 C510 1.263 . S
O496 Tb481 2.325 . S
O496 C511 1.236 1_455 S
O497 Tb480 2.322 1_565 S
O497 C511 1.257 . S
O498 Tb480 2.349 . S
O498 C482 1.261 . S
O499 Tb481 2.303 1_655 S
O499 C482 1.257 1_565 S
C500 O490 1.236 . S
C500 O491 1.257 . S
O501 Tb480 2.415 1_455 S
O501 C489 1.239 1_455 S
O502 Tb480 2.399 . S
O502 C489 1.263 . S
C503 O492 1.261 . S
C503 O493 1.257 1_565 S
C504 C507 1.358 . S
C504 C508 1.332 . S
C504 C510 1.504 . S
C505 C506 1.373 . S
C505 C509 1.308 . S
C506 C505 1.373 . S
C506 C507 1.429 . S
C506 H516 0.932 . S
C507 C504 1.358 . S
C507 C506 1.429 . S
C507 H517 0.930 . S
C508 C504 1.332 . S
C508 C509 1.394 . S
C508 H518 0.932 1_455 S
C509 C505 1.308 . S
C509 C508 1.394 . S
C509 H519 0.929 . S
C510 Tb481 2.764 . S
C510 O494 1.239 . S
C510 O495 1.263 . S
C510 C504 1.504 . S
C511 O496 1.236 1_655 S
C511 O497 1.257 . S
H512 C485 0.932 . S
H513 C486 0.930 . S
H514 C487 0.932 . S
H515 C488 0.929 . S
H516 C506 0.932 . S
H517 C507 0.930 . S
H518 C508 0.932 1_655 S
H519 C509 0.929 . S
Tb520 C529 2.764 . S
Tb520 O530 2.325 . S
Tb520 O533 2.303 1_565 S
Tb520 O537 2.322 . S
Tb520 O538 2.349 . S
Tb520 O541 2.415 1_565 S
Tb520 O542 2.399 . S
Tb521 O531 2.322 . S
Tb521 O532 2.349 . S
Tb521 O534 2.415 1_545 S
Tb521 O535 2.399 . S
Tb521 O536 2.325 . S
Tb521 O539 2.303 1_545 S
Tb521 C550 2.764 . S
C522 O538 1.261 . S
C522 O539 1.257 . S
C523 C526 1.358 . S
C523 C527 1.333 . S
C523 C529 1.504 . S
C524 C525 1.373 . S
C524 C528 1.308 . S
C525 C524 1.373 . S
C525 C526 1.429 . S
C525 H552 0.932 . S
C526 C523 1.358 . S
C526 C525 1.429 . S
C526 H553 0.930 . S
C527 C523 1.333 . S
C527 C528 1.394 . S
C527 H554 0.930 1_565 S
C528 C524 1.308 . S
C528 C527 1.394 . S
C528 H555 0.929 1_565 S
C529 Tb520 2.764 . S
C529 C523 1.504 . S
C529 O541 1.239 1_565 S
C529 O542 1.263 . S
O530 Tb520 2.325 . S
O530 C540 1.236 1_565 S
O531 Tb521 2.322 . S
O531 C540 1.257 . S
O532 Tb521 2.349 . S
O532 C543 1.261 . S
O533 Tb520 2.303 1_545 S
O533 C543 1.257 . S
O534 Tb521 2.415 1_565 S
O534 C550 1.239 1_565 S
O535 Tb521 2.399 . S
O535 C550 1.263 . S
O536 Tb521 2.325 . S
O536 C551 1.236 1_545 S
O537 Tb520 2.322 . S
O537 C551 1.257 . S
O538 Tb520 2.349 . S
O538 C522 1.261 . S
O539 Tb521 2.303 1_565 S
O539 C522 1.257 . S
C540 O530 1.236 1_545 S
C540 O531 1.257 . S
O541 Tb520 2.415 1_545 S
O541 C529 1.239 1_545 S
O542 Tb520 2.399 . S
O542 C529 1.263 . S
C543 O532 1.261 . S
C543 O533 1.257 . S
C544 C547 1.358 . S
C544 C548 1.343 . S
C544 C550 1.504 . S
C545 C546 1.373 . S
C545 C549 1.308 1_554 S
C546 C545 1.373 . S
C546 C547 1.429 1_554 S
C546 H556 0.932 . S
C547 C544 1.358 . S
C547 C546 1.429 1_556 S
C547 H557 0.930 . S
C548 C544 1.343 . S
C548 C549 1.394 . S
C548 H558 0.920 1_545 S
C549 C545 1.308 1_556 S
C549 C548 1.394 . S
C549 H559 0.929 1_545 S
C550 Tb521 2.764 . S
C550 O534 1.239 1_545 S
C550 O535 1.263 . S
C550 C544 1.504 . S
C551 O536 1.236 1_565 S
C551 O537 1.257 . S
H552 C525 0.932 . S
H553 C526 0.930 . S
H554 C527 0.930 1_545 S
H555 C528 0.929 1_545 S
H556 C546 0.932 . S
H557 C547 0.930 . S
H558 C548 0.920 1_565 S
H559 C549 0.929 1_565 S
Tb560 C569 2.764 . S
Tb560 O570 2.325 . S
Tb560 O573 2.303 . S
Tb560 O577 2.322 . S
Tb560 O578 2.349 . S
Tb560 O581 2.415 . S
Tb560 O582 2.399 . S
Tb561 O571 2.322 . S
Tb561 O572 2.349 . S
Tb561 O574 2.415 . S
Tb561 O575 2.399 . S
Tb561 O576 2.325 . S
Tb561 O579 2.303 . S
Tb561 C590 2.764 . S
C562 O578 1.261 . S
C562 O579 1.257 . S
C563 C566 1.358 . S
C563 C567 1.332 . S
C563 C569 1.504 . S
C564 C565 1.373 . S
C564 C568 1.308 . S
C565 C564 1.373 . S
C565 C566 1.429 1_554 S
C565 H592 0.932 . S
C566 C563 1.358 . S
C566 C565 1.429 1_556 S
C566 H593 0.930 . S
C567 C563 1.332 . S
C567 C568 1.394 1_556 S
C567 H594 0.932 . S
C568 C564 1.308 . S
C568 C567 1.394 1_554 S
C568 H595 0.929 . S
C569 Tb560 2.764 . S
C569 C563 1.504 . S
C569 O581 1.239 . S
C569 O582 1.263 . S
O570 Tb560 2.325 . S
O570 C580 1.236 . S
O571 Tb561 2.322 . S
O571 C580 1.257 . S
O572 Tb561 2.349 . S
O572 C583 1.261 . S
O573 Tb560 2.303 . S
O573 C583 1.257 . S
O574 Tb561 2.415 . S
O574 C590 1.239 . S
O575 Tb561 2.399 . S
O575 C590 1.263 . S
O576 Tb561 2.325 . S
O576 C591 1.236 . S
O577 Tb560 2.322 . S
O577 C591 1.257 . S
O578 Tb560 2.349 . S
O578 C562 1.261 . S
O579 Tb561 2.303 . S
O579 C562 1.257 . S
C580 O570 1.236 . S
C580 O571 1.257 . S
O581 Tb560 2.415 . S
O581 C569 1.239 . S
O582 Tb560 2.399 . S
O582 C569 1.263 . S
C583 O572 1.261 . S
C583 O573 1.257 . S
C584 C587 1.358 . S
C584 C588 1.332 . S
C584 C590 1.504 . S
C585 C586 1.373 . S
C585 C589 1.308 . S
C586 C585 1.373 . S
C586 C587 1.429 . S
C586 H596 0.932 . S
C587 C584 1.358 . S
C587 C586 1.429 . S
C587 H597 0.930 . S
C588 C584 1.332 . S
C588 C589 1.394 . S
C588 H598 0.932 . S
C589 C585 1.308 . S
C589 C588 1.394 . S
C589 H599 0.929 . S
C590 Tb561 2.764 . S
C590 O574 1.239 . S
C590 O575 1.263 . S
C590 C584 1.504 . S
C591 O576 1.236 . S
C591 O577 1.257 . S
H592 C565 0.932 . S
H593 C566 0.930 . S
H594 C567 0.932 . S
H595 C568 0.929 . S
H596 C586 0.932 . S
H597 C587 0.930 . S
H598 C588 0.932 . S
H599 C589 0.929 . S
Tb600 C609 2.764 . S
Tb600 O610 2.325 . S
Tb600 O613 2.303 . S
Tb600 O617 2.322 1_455 S
Tb600 O618 2.349 . S
Tb600 O621 2.415 . S
Tb600 O622 2.399 . S
Tb601 O611 2.322 1_655 S
Tb601 O612 2.349 1_655 S
Tb601 O614 2.415 . S
Tb601 O615 2.399 . S
Tb601 O616 2.325 . S
Tb601 O619 2.303 1_655 S
Tb601 C630 2.764 . S
C602 O618 1.261 . S
C602 O619 1.257 . S
C603 C606 1.358 . S
C603 C607 1.332 . S
C603 C609 1.504 . S
C604 C605 1.373 . S
C604 C608 1.308 . S
C605 C604 1.373 . S
C605 C606 1.429 . S
C605 H632 0.932 . S
C606 C603 1.358 . S
C606 C605 1.429 . S
C606 H633 0.930 . S
C607 C603 1.332 . S
C607 C608 1.394 . S
C607 H634 0.932 . S
C608 C604 1.308 . S
C608 C607 1.394 . S
C608 H635 0.929 . S
C609 Tb600 2.764 . S
C609 C603 1.504 . S
C609 O621 1.239 . S
C609 O622 1.263 . S
O610 Tb600 2.325 . S
O610 C620 1.236 . S
O611 Tb601 2.322 1_455 S
O611 C620 1.257 . S
O612 Tb601 2.349 1_455 S
O612 C623 1.261 . S
O613 Tb600 2.303 . S
O613 C623 1.257 . S
O614 Tb601 2.415 . S
O614 C630 1.239 . S
O615 Tb601 2.399 . S
O615 C630 1.263 . S
O616 Tb601 2.325 . S
O616 C631 1.236 . S
O617 Tb600 2.322 1_655 S
O617 C631 1.257 . S
O618 Tb600 2.349 . S
O618 C602 1.261 . S
O619 Tb601 2.303 1_455 S
O619 C602 1.257 . S
C620 O610 1.236 . S
C620 O611 1.257 . S
O621 Tb600 2.415 . S
O621 C609 1.239 . S
O622 Tb600 2.399 . S
O622 C609 1.263 . S
C623 O612 1.261 . S
C623 O613 1.257 . S
C624 C627 1.358 . S
C624 C628 1.332 . S
C624 C630 1.504 . S
C625 C626 1.373 . S
C625 C629 1.308 . S
C626 C625 1.373 . S
C626 C627 1.429 . S
C626 H636 0.932 . S
C627 C624 1.358 . S
C627 C626 1.429 . S
C627 H637 0.930 . S
C628 C624 1.332 . S
C628 C629 1.394 . S
C628 H638 0.932 . S
C629 C625 1.308 . S
C629 C628 1.394 . S
C629 H639 0.932 . S
C630 Tb601 2.764 . S
C630 O614 1.239 . S
C630 O615 1.263 . S
C630 C624 1.504 . S
C631 O616 1.236 . S
C631 O617 1.257 . S
H632 C605 0.932 . S
H633 C606 0.930 . S
H634 C607 0.932 . S
H635 C608 0.929 . S
H636 C626 0.932 . S
H637 C627 0.930 . S
H638 C628 0.932 . S
H639 C629 0.932 . S
C640 C641 1.416 . S
C640 C642 1.394 . S
C640 H656 0.931 . S
C641 C640 1.416 . S
C641 C645 1.356 1_565 S
C642 C640 1.394 . S
C642 C643 1.369 . S
C642 C646 1.531 . S
C643 C642 1.369 . S
C643 C644 1.410 1_565 S
C643 C651 1.503 . S
C644 C643 1.410 1_545 S
C644 C645 1.392 . S
C644 C647 1.511 . S
C645 C641 1.356 1_545 S
C645 C644 1.392 . S
C645 H657 0.929 . S
C646 C642 1.531 . S
C646 H658 0.960 . S
C646 H659 0.962 . S
C646 H660 0.960 . S
C647 C644 1.511 . S
C647 H661 0.961 . S
C647 H662 0.961 . S
C647 H663 0.961 . S
C648 C649 1.370 . S
C648 C650 1.363 . S
C648 H664 0.931 . S
C649 C648 1.370 . S
C649 C653 1.408 1_545 S
C650 C648 1.363 . S
C650 C651 1.370 1_545 S
C650 C654 1.524 . S
C651 C643 1.503 . S
C651 C650 1.370 1_565 S
C651 C652 1.403 . S
C652 C651 1.403 . S
C652 C653 1.404 . S
C652 C655 1.539 . S
C653 C649 1.408 1_565 S
C653 C652 1.404 . S
C653 H665 0.930 . S
C654 C650 1.524 . S
C654 H666 0.956 . S
C654 H667 0.961 . S
C654 H668 0.961 . S
C655 C652 1.539 . S
C655 H669 0.958 . S
C655 H670 0.961 . S
C655 H671 0.960 . S
H656 C640 0.931 . S
H657 C645 0.929 . S
H658 C646 0.960 . S
H659 C646 0.962 . S
H660 C646 0.960 . S
H661 C647 0.961 . S
H662 C647 0.961 . S
H663 C647 0.961 . S
H664 C648 0.931 . S
H665 C653 0.930 . S
H666 C654 0.956 . S
H667 C654 0.961 . S
H668 C654 0.961 . S
H669 C655 0.958 . S
H670 C655 0.961 . S
H671 C655 0.960 . S
C672 C673 1.391 . S
C672 C674 1.394 . S
C672 H688 0.931 . S
C673 C672 1.391 . S
C673 C677 1.376 . S
C674 C672 1.394 . S
C674 C675 1.369 . S
C674 C678 1.531 . S
C675 C674 1.369 . S
C675 C676 1.410 . S
C675 C683 1.503 . S
C676 C675 1.410 . S
C676 C677 1.392 . S
C676 C679 1.511 . S
C677 C673 1.376 . S
C677 C676 1.392 . S
C677 H689 0.929 . S
C678 C674 1.531 . S
C678 H690 0.960 . S
C678 H691 0.962 . S
C678 H692 0.960 . S
C679 C676 1.511 . S
C679 H693 0.961 . S
C679 H694 0.961 . S
C679 H695 0.961 . S
C680 C681 1.370 . S
C680 C682 1.363 . S
C680 H696 0.931 . S
C681 C680 1.370 . S
C681 C685 1.408 . S
C682 C680 1.363 . S
C682 C683 1.370 . S
C682 C686 1.524 . S
C683 C675 1.503 . S
C683 C682 1.370 . S
C683 C684 1.403 . S
C684 C683 1.403 . S
C684 C685 1.404 . S
C684 C687 1.539 . S
C685 C681 1.408 . S
C685 C684 1.404 . S
C685 H697 0.930 . S
C686 C682 1.524 . S
C686 H698 0.956 . S
C686 H699 0.961 . S
C686 H700 0.961 . S
C687 C684 1.539 . S
C687 H701 0.958 . S
C687 H702 0.961 . S
C687 H703 0.960 . S
H688 C672 0.931 . S
H689 C677 0.929 . S
H690 C678 0.960 . S
H691 C678 0.962 . S
H692 C678 0.960 . S
H693 C679 0.961 . S
H694 C679 0.961 . S
H695 C679 0.961 . S
H696 C680 0.931 . S
H697 C685 0.930 . S
H698 C686 0.956 . S
H699 C686 0.961 . S
H700 C686 0.961 . S
H701 C687 0.958 . S
H702 C687 0.961 . S
H703 C687 0.960 . S
C704 C705 1.391 . S
C704 C706 1.394 . S
C704 H720 0.931 . S
C705 C704 1.391 . S
C705 C709 1.376 . S
C706 C704 1.394 . S
C706 C707 1.369 . S
C706 C710 1.531 . S
C707 C706 1.369 . S
C707 C708 1.410 . S
C707 C715 1.503 . S
C708 C707 1.410 . S
C708 C709 1.392 . S
C708 C711 1.511 . S
C709 C705 1.376 . S
C709 C708 1.392 . S
C709 H721 0.929 . S
C710 C706 1.531 . S
C710 H722 0.960 . S
C710 H723 0.962 . S
C710 H724 0.960 . S
C711 C708 1.511 . S
C711 H725 0.961 . S
C711 H726 0.961 . S
C711 H727 0.961 . S
C712 C713 1.370 . S
C712 C714 1.363 . S
C712 H728 0.931 . S
C713 C712 1.370 . S
C713 C717 1.408 . S
C714 C712 1.363 . S
C714 C715 1.370 . S
C714 C718 1.524 . S
C715 C707 1.503 . S
C715 C714 1.370 . S
C715 C716 1.403 . S
C716 C715 1.403 . S
C716 C717 1.404 . S
C716 C719 1.539 . S
C717 C713 1.408 . S
C717 C716 1.404 . S
C717 H729 0.930 . S
C718 C714 1.524 . S
C718 H730 0.956 . S
C718 H731 0.961 . S
C718 H732 0.961 . S
C719 C716 1.539 . S
C719 H733 0.958 . S
C719 H734 0.961 . S
C719 H735 0.960 . S
H720 C704 0.931 . S
H721 C709 0.929 . S
H722 C710 0.960 . S
H723 C710 0.962 . S
H724 C710 0.960 . S
H725 C711 0.961 . S
H726 C711 0.961 . S
H727 C711 0.961 . S
H728 C712 0.931 . S
H729 C717 0.930 . S
H730 C718 0.956 . S
H731 C718 0.961 . S
H732 C718 0.961 . S
H733 C719 0.958 . S
H734 C719 0.961 . S
H735 C719 0.960 . S
C736 C737 1.391 . S
C736 C738 1.394 . S
C736 H752 0.931 . S
C737 C736 1.391 . S
C737 C741 1.376 . S
C738 C736 1.394 . S
C738 C739 1.369 . S
C738 C742 1.531 . S
C739 C738 1.369 . S
C739 C740 1.410 . S
C739 C747 1.503 . S
C740 C739 1.410 . S
C740 C741 1.392 . S
C740 C743 1.511 1_455 S
C741 C737 1.376 . S
C741 C740 1.392 . S
C741 H753 0.929 . S
C742 C738 1.531 . S
C742 H754 0.960 . S
C742 H755 0.962 . S
C742 H756 0.960 . S
C743 C740 1.511 1_655 S
C743 H757 0.961 . S
C743 H758 0.961 . S
C743 H759 0.961 . S
C744 C745 1.370 . S
C744 C746 1.363 . S
C744 H760 0.931 . S
C745 C744 1.370 . S
C745 C749 1.408 . S
C746 C744 1.363 . S
C746 C747 1.370 . S
C746 C750 1.524 . S
C747 C739 1.503 . S
C747 C746 1.370 . S
C747 C748 1.403 . S
C748 C747 1.403 . S
C748 C749 1.404 . S
C748 C751 1.539 . S
C749 C745 1.408 . S
C749 C748 1.404 . S
C749 H761 0.930 . S
C750 C746 1.524 . S
C750 H762 0.956 . S
C750 H763 0.961 . S
C750 H764 0.961 . S
C751 C748 1.539 . S
C751 H765 0.958 . S
C751 H766 0.961 . S
C751 H767 0.960 . S
H752 C736 0.931 . S
H753 C741 0.929 . S
H754 C742 0.960 . S
H755 C742 0.962 . S
H756 C742 0.960 . S
H757 C743 0.961 . S
H758 C743 0.961 . S
H759 C743 0.961 . S
H760 C744 0.931 . S
H761 C749 0.930 . S
H762 C750 0.956 . S
H763 C750 0.961 . S
H764 C750 0.961 . S
H765 C751 0.958 . S
H766 C751 0.961 . S
H767 C751 0.960 . S
C768 C769 1.427 . S
C768 C770 1.394 . S
C768 H784 0.931 . S
C769 C768 1.427 . S
C769 C773 1.336 1_565 S
C770 C768 1.394 . S
C770 C771 1.369 . S
C770 C774 1.531 . S
C771 C770 1.369 . S
C771 C772 1.410 1_565 S
C771 C779 1.503 . S
C772 C771 1.410 1_545 S
C772 C773 1.392 . S
C772 C775 1.511 . S
C773 C769 1.336 1_545 S
C773 C772 1.392 . S
C773 H785 0.929 . S
C774 C770 1.531 . S
C774 H786 0.960 . S
C774 H787 0.962 . S
C774 H788 0.960 . S
C775 C772 1.511 . S
C775 H789 0.961 . S
C775 H790 0.961 . S
C775 H791 0.961 . S
C776 C777 1.366 1_545 S
C776 C778 1.363 1_556 S
C776 H792 0.931 . S
C777 C776 1.366 1_565 S
C777 C781 1.416 . S
C778 C776 1.363 1_554 S
C778 C779 1.370 1_545 S
C778 C782 1.524 . S
C779 C771 1.503 . S
C779 C778 1.370 1_565 S
C779 C780 1.403 1_554 S
C780 C779 1.403 1_556 S
C780 C781 1.404 . S
C780 C783 1.539 . S
C781 C777 1.416 . S
C781 C780 1.404 . S
C781 H793 0.930 . S
C782 C778 1.524 . S
C782 H794 0.956 . S
C782 H795 0.961 . S
C782 H796 0.961 . S
C783 C780 1.539 . S
C783 H797 0.958 . S
C783 H798 0.961 . S
C783 H799 0.960 1_556 S
H784 C768 0.931 . S
H785 C773 0.929 . S
H786 C774 0.960 . S
H787 C774 0.962 . S
H788 C774 0.960 . S
H789 C775 0.961 . S
H790 C775 0.961 . S
H791 C775 0.961 . S
H792 C776 0.931 . S
H793 C781 0.930 . S
H794 C782 0.956 . S
H795 C782 0.961 . S
H796 C782 0.961 . S
H797 C783 0.958 . S
H798 C783 0.961 . S
H799 C783 0.960 1_554 S
C800 C801 1.391 . S
C800 C802 1.394 . S
C800 H816 0.931 . S
C801 C800 1.391 . S
C801 C805 1.376 . S
C802 C800 1.394 . S
C802 C803 1.369 . S
C802 C806 1.531 . S
C803 C802 1.369 . S
C803 C804 1.410 . S
C803 C811 1.503 . S
C804 C803 1.410 . S
C804 C805 1.392 . S
C804 C807 1.511 . S
C805 C801 1.376 . S
C805 C804 1.392 . S
C805 H817 0.929 1_556 S
C806 C802 1.531 . S
C806 H818 0.960 . S
C806 H819 0.962 . S
C806 H820 0.960 . S
C807 C804 1.511 . S
C807 H821 0.961 1_556 S
C807 H822 0.961 . S
C807 H823 0.961 . S
C808 C809 1.370 . S
C808 C810 1.363 . S
C808 H824 0.931 . S
C809 C808 1.370 . S
C809 C813 1.408 . S
C810 C808 1.363 . S
C810 C811 1.370 . S
C810 C814 1.524 . S
C811 C803 1.503 . S
C811 C810 1.370 . S
C811 C812 1.403 . S
C812 C811 1.403 . S
C812 C813 1.404 . S
C812 C815 1.539 . S
C813 C809 1.408 . S
C813 C812 1.404 . S
C813 H825 0.930 . S
C814 C810 1.524 . S
C814 H826 0.956 . S
C814 H827 0.961 . S
C814 H828 0.961 . S
C815 C812 1.539 . S
C815 H829 0.958 . S
C815 H830 0.961 . S
C815 H831 0.960 . S
H816 C800 0.931 . S
H817 C805 0.929 1_554 S
H818 C806 0.960 . S
H819 C806 0.962 . S
H820 C806 0.960 . S
H821 C807 0.961 1_554 S
H822 C807 0.961 . S
H823 C807 0.961 . S
H824 C808 0.931 . S
H825 C813 0.930 . S
H826 C814 0.956 . S
H827 C814 0.961 . S
H828 C814 0.961 . S
H829 C815 0.958 . S
H830 C815 0.961 . S
H831 C815 0.960 . S
C832 C833 1.391 . S
C832 C834 1.394 . S
C832 H848 0.931 . S
C833 C832 1.391 . S
C833 C837 1.376 . S
C834 C832 1.394 . S
C834 C835 1.369 . S
C834 C838 1.531 . S
C835 C834 1.369 . S
C835 C836 1.410 . S
C835 C843 1.503 . S
C836 C835 1.410 . S
C836 C837 1.392 . S
C836 C839 1.511 . S
C837 C833 1.376 . S
C837 C836 1.392 . S
C837 H849 0.929 . S
C838 C834 1.531 . S
C838 H850 0.960 . S
C838 H851 0.962 . S
C838 H852 0.960 . S
C839 C836 1.511 . S
C839 H853 0.961 . S
C839 H854 0.961 . S
C839 H855 0.961 . S
C840 C841 1.370 . S
C840 C842 1.363 1_556 S
C840 H856 0.931 . S
C841 C840 1.370 . S
C841 C845 1.408 . S
C842 C840 1.363 1_554 S
C842 C843 1.370 . S
C842 C846 1.524 . S
C843 C835 1.503 . S
C843 C842 1.370 . S
C843 C844 1.403 1_554 S
C844 C843 1.403 1_556 S
C844 C845 1.404 . S
C844 C847 1.539 1_556 S
C845 C841 1.408 . S
C845 C844 1.404 . S
C845 H857 0.930 . S
C846 C842 1.524 . S
C846 H858 0.956 . S
C846 H859 0.961 . S
C846 H860 0.961 . S
C847 C844 1.539 1_554 S
C847 H861 0.958 1_554 S
C847 H862 0.961 1_554 S
C847 H863 0.960 . S
H848 C832 0.931 . S
H849 C837 0.929 . S
H850 C838 0.960 . S
H851 C838 0.962 . S
H852 C838 0.960 . S
H853 C839 0.961 . S
H854 C839 0.961 . S
H855 C839 0.961 . S
H856 C840 0.931 . S
H857 C845 0.930 . S
H858 C846 0.956 . S
H859 C846 0.961 . S
H860 C846 0.961 . S
H861 C847 0.958 1_556 S
H862 C847 0.961 1_556 S
H863 C847 0.960 . S
C864 C865 1.391 . S
C864 C866 1.394 . S
C864 H880 0.931 . S
C865 C864 1.391 . S
C865 C869 1.376 1_655 S
C866 C864 1.394 . S
C866 C867 1.369 . S
C866 C870 1.531 . S
C867 C866 1.369 . S
C867 C868 1.410 1_655 S
C867 C875 1.503 . S
C868 C867 1.410 1_455 S
C868 C869 1.392 . S
C868 C871 1.511 . S
C869 C865 1.376 1_455 S
C869 C868 1.392 . S
C869 H881 0.929 . S
C870 C866 1.531 . S
C870 H882 0.960 . S
C870 H883 0.962 . S
C870 H884 0.960 . S
C871 C868 1.511 . S
C871 H885 0.961 . S
C871 H886 0.961 . S
C871 H887 0.961 . S
C872 C873 1.369 1_655 S
C872 C874 1.363 1_556 S
C872 H888 0.931 1_655 S
C873 C872 1.369 1_455 S
C873 C877 1.404 1_455 S
C874 C872 1.363 1_554 S
C874 C875 1.370 . S
C874 C878 1.524 . S
C875 C867 1.503 . S
C875 C874 1.370 . S
C875 C876 1.403 1_554 S
C876 C875 1.403 1_556 S
C876 C877 1.404 . S
C876 C879 1.539 . S
C877 C873 1.404 1_655 S
C877 C876 1.404 . S
C877 H889 0.930 . S
C878 C874 1.524 . S
C878 H890 0.956 . S
C878 H891 0.961 1_655 S
C878 H892 0.961 1_655 S
C879 C876 1.539 . S
C879 H893 0.958 . S
C879 H894 0.983 . S
C879 H895 0.956 1_556 S
H880 C864 0.931 . S
H881 C869 0.929 . S
H882 C870 0.960 . S
H883 C870 0.962 . S
H884 C870 0.960 . S
H885 C871 0.961 . S
H886 C871 0.961 . S
H887 C871 0.961 . S
H888 C872 0.931 1_455 S
H889 C877 0.930 . S
H890 C878 0.956 . S
H891 C878 0.961 1_455 S
H892 C878 0.961 1_455 S
H893 C879 0.958 . S
H894 C879 0.983 . S
H895 C879 0.956 1_554 S
C896 C897 1.391 . S
C896 C898 1.394 . S
C896 H912 0.931 . S
C897 C896 1.391 . S
C897 C901 1.376 . S
C898 C896 1.394 . S
C898 C899 1.369 . S
C898 C902 1.531 . S
C899 C898 1.369 . S
C899 C900 1.410 . S
C899 C907 1.503 . S
C900 C899 1.410 . S
C900 C901 1.392 . S
C900 C903 1.511 1_455 S
C901 C897 1.376 . S
C901 C900 1.392 . S
C901 H913 0.929 . S
C902 C898 1.531 . S
C902 H914 0.960 . S
C902 H915 0.962 . S
C902 H916 0.960 . S
C903 C900 1.511 1_655 S
C903 H917 0.961 . S
C903 H918 0.961 . S
C903 H919 0.961 . S
C904 C905 1.347 1_455 S
C904 C906 1.377 . S
C904 H920 0.942 . S
C905 C904 1.347 1_655 S
C905 C909 1.408 . S
C906 C904 1.377 . S
C906 C907 1.370 . S
C906 C910 1.524 . S
C907 C899 1.503 . S
C907 C906 1.370 . S
C907 C908 1.403 1_455 S
C908 C907 1.403 1_655 S
C908 C909 1.404 . S
C908 C911 1.539 . S
C909 C905 1.408 . S
C909 C908 1.404 . S
C909 H921 0.930 . S
C910 C906 1.524 . S
C910 H922 0.956 . S
C910 H923 0.961 . S
C910 H924 0.961 . S
C911 C908 1.539 . S
C911 H925 0.958 . S
C911 H926 0.961 . S
C911 H927 0.960 . S
H912 C896 0.931 . S
H913 C901 0.929 . S
H914 C902 0.960 . S
H915 C902 0.962 . S
H916 C902 0.960 . S
H917 C903 0.961 . S
H918 C903 0.961 . S
H919 C903 0.961 . S
H920 C904 0.942 . S
H921 C909 0.930 . S
H922 C910 0.956 . S
H923 C910 0.961 . S
H924 C910 0.961 . S
H925 C911 0.958 . S
H926 C911 0.961 . S
H927 C911 0.960 . S
C928 C929 1.391 . S
C928 C930 1.394 . S
C928 H944 0.931 . S
C929 C928 1.391 . S
C929 C933 1.380 . S
C930 C928 1.394 . S
C930 C931 1.369 1_545 S
C930 C934 1.531 . S
C931 C930 1.369 1_565 S
C931 C932 1.410 . S
C931 C939 1.503 . S
C932 C931 1.410 . S
C932 C933 1.390 1_565 S
C932 C935 1.511 . S
C933 C929 1.380 . S
C933 C932 1.390 1_545 S
C933 H945 0.927 1_545 S
C934 C930 1.531 . S
C934 H946 0.960 . S
C934 H947 0.962 1_545 S
C934 H948 0.960 . S
C935 C932 1.511 . S
C935 H949 0.961 . S
C935 H950 0.961 . S
C935 H951 0.961 1_565 S
C936 C937 1.370 . S
C936 C938 1.363 . S
C936 H952 0.931 . S
C937 C936 1.370 . S
C937 C941 1.408 . S
C938 C936 1.363 . S
C938 C939 1.370 . S
C938 C942 1.524 . S
C939 C931 1.503 . S
C939 C938 1.370 . S
C939 C940 1.403 1_565 S
C940 C939 1.403 1_545 S
C940 C941 1.404 1_545 S
C940 C943 1.539 . S
C941 C937 1.408 . S
C941 C940 1.404 1_565 S
C941 H953 0.930 1_565 S
C942 C938 1.524 . S
C942 H954 0.956 . S
C942 H955 0.961 . S
C942 H956 0.961 . S
C943 C940 1.539 . S
C943 H957 0.958 . S
C943 H958 0.961 . S
C943 H959 0.960 . S
H944 C928 0.931 . S
H945 C933 0.927 1_565 S
H946 C934 0.960 . S
H947 C934 0.962 1_565 S
H948 C934 0.960 . S
H949 C935 0.961 . S
H950 C935 0.961 . S
H951 C935 0.961 1_545 S
H952 C936 0.931 . S
H953 C941 0.930 1_545 S
H954 C942 0.956 . S
H955 C942 0.961 . S
H956 C942 0.961 . S
H957 C943 0.958 . S
H958 C943 0.961 . S
H959 C943 0.960 . S
C960 C961 1.391 . S
C960 C962 1.394 . S
C960 H976 0.931 . S
C961 C960 1.391 . S
C961 C965 1.376 . S
C962 C960 1.394 . S
C962 C963 1.369 . S
C962 C966 1.531 . S
C963 C962 1.369 . S
C963 C964 1.410 . S
C963 C971 1.503 . S
C964 C963 1.410 . S
C964 C965 1.392 . S
C964 C967 1.511 . S
C965 C961 1.376 . S
C965 C964 1.392 . S
C965 H977 0.929 . S
C966 C962 1.531 . S
C966 H978 0.960 . S
C966 H979 0.962 . S
C966 H980 0.960 . S
C967 C964 1.511 . S
C967 H981 0.961 . S
C967 H982 0.961 . S
C967 H983 0.961 . S
C968 C969 1.370 . S
C968 C970 1.363 . S
C968 H984 0.931 . S
C969 C968 1.370 . S
C969 C973 1.408 . S
C970 C968 1.363 . S
C970 C971 1.370 . S
C970 C974 1.524 . S
C971 C963 1.503 . S
C971 C970 1.370 . S
C971 C972 1.403 . S
C972 C971 1.403 . S
C972 C973 1.404 . S
C972 C975 1.539 . S
C973 C969 1.408 . S
C973 C972 1.404 . S
C973 H985 0.930 . S
C974 C970 1.524 . S
C974 H986 0.956 . S
C974 H987 0.961 . S
C974 H988 0.961 . S
C975 C972 1.539 . S
C975 H989 0.958 . S
C975 H990 0.961 . S
C975 H991 0.960 . S
H976 C960 0.931 . S
H977 C965 0.929 . S
H978 C966 0.960 . S
H979 C966 0.962 . S
H980 C966 0.960 . S
H981 C967 0.961 . S
H982 C967 0.961 . S
H983 C967 0.961 . S
H984 C968 0.931 . S
H985 C973 0.930 . S
H986 C974 0.956 . S
H987 C974 0.961 . S
H988 C974 0.961 . S
H989 C975 0.958 . S
H990 C975 0.961 . S
H991 C975 0.960 . S
C992 C993 1.391 . S
C992 C994 1.394 . S
C992 H1008 0.931 . S
C993 C992 1.391 . S
C993 C997 1.376 . S
C994 C992 1.394 . S
C994 C995 1.369 . S
C994 C998 1.531 . S
C995 C994 1.369 . S
C995 C996 1.410 . S
C995 C1003 1.503 . S
C996 C995 1.410 . S
C996 C997 1.392 . S
C996 C999 1.511 . S
C997 C993 1.376 . S
C997 C996 1.392 . S
C997 H1009 0.929 . S
C998 C994 1.531 . S
C998 H1010 0.960 . S
C998 H1011 0.962 . S
C998 H1012 0.960 . S
C999 C996 1.511 . S
C999 H1013 0.961 . S
C999 H1014 0.961 . S
C999 H1015 0.961 . S
C1000 C1001 1.370 . S
C1000 C1002 1.363 . S
C1000 H1016 0.931 . S
C1001 C1000 1.370 . S
C1001 C1005 1.408 . S
C1002 C1000 1.363 . S
C1002 C1003 1.370 . S
C1002 C1006 1.524 . S
C1003 C995 1.503 . S
C1003 C1002 1.370 . S
C1003 C1004 1.403 . S
C1004 C1003 1.403 . S
C1004 C1005 1.404 . S
C1004 C1007 1.539 . S
C1005 C1001 1.408 . S
C1005 C1004 1.404 . S
C1005 H1017 0.930 . S
C1006 C1002 1.524 . S
C1006 H1018 0.956 . S
C1006 H1019 0.961 . S
C1006 H1020 0.961 . S
C1007 C1004 1.539 . S
C1007 H1021 0.958 . S
C1007 H1022 0.961 . S
C1007 H1023 0.960 . S
H1008 C992 0.931 . S
H1009 C997 0.929 . S
H1010 C998 0.960 . S
H1011 C998 0.962 . S
H1012 C998 0.960 . S
H1013 C999 0.961 . S
H1014 C999 0.961 . S
H1015 C999 0.961 . S
H1016 C1000 0.931 . S
H1017 C1005 0.930 . S
H1018 C1006 0.956 . S
H1019 C1006 0.961 . S
H1020 C1006 0.961 . S
H1021 C1007 0.958 . S
H1022 C1007 0.961 . S
H1023 C1007 0.960 . S
C1024 C1025 1.391 . S
C1024 C1026 1.394 . S
C1024 H1040 0.931 . S
C1025 C1024 1.391 . S
C1025 C1029 1.376 1_655 S
C1026 C1024 1.394 . S
C1026 C1027 1.369 1_655 S
C1026 C1030 1.531 . S
C1027 C1026 1.369 1_455 S
C1027 C1028 1.410 . S
C1027 C1035 1.503 . S
C1028 C1027 1.410 . S
C1028 C1029 1.392 . S
C1028 C1031 1.511 . S
C1029 C1025 1.376 1_455 S
C1029 C1028 1.392 . S
C1029 H1041 0.929 . S
C1030 C1026 1.531 . S
C1030 H1042 0.960 . S
C1030 H1043 0.962 . S
C1030 H1044 0.960 . S
C1031 C1028 1.511 . S
C1031 H1045 0.961 . S
C1031 H1046 0.961 . S
C1031 H1047 0.961 . S
C1032 C1033 1.370 . S
C1032 C1034 1.363 . S
C1032 H1048 0.931 . S
C1033 C1032 1.370 . S
C1033 C1037 1.408 1_556 S
C1034 C1032 1.363 . S
C1034 C1035 1.370 1_556 S
C1034 C1038 1.524 1_455 S
C1035 C1027 1.503 . S
C1035 C1034 1.370 1_554 S
C1035 C1036 1.403 . S
C1036 C1035 1.403 . S
C1036 C1037 1.404 . S
C1036 C1039 1.539 . S
C1037 C1033 1.408 1_554 S
C1037 C1036 1.404 . S
C1037 H1049 0.930 . S
C1038 C1034 1.524 1_655 S
C1038 H1050 0.956 . S
C1038 H1051 0.961 1_655 S
C1038 H1052 0.961 . S
C1039 C1036 1.539 . S
C1039 H1053 0.958 . S
C1039 H1054 0.961 . S
C1039 H1055 0.960 . S
H1040 C1024 0.931 . S
H1041 C1029 0.929 . S
H1042 C1030 0.960 . S
H1043 C1030 0.962 . S
H1044 C1030 0.960 . S
H1045 C1031 0.961 . S
H1046 C1031 0.961 . S
H1047 C1031 0.961 . S
H1048 C1032 0.931 . S
H1049 C1037 0.930 . S
H1050 C1038 0.956 . S
H1051 C1038 0.961 1_455 S
H1052 C1038 0.961 . S
H1053 C1039 0.958 . S
H1054 C1039 0.961 . S
H1055 C1039 0.960 . S
C1056 C1057 1.399 . S
C1056 C1058 1.394 1_565 S
C1056 H1072 0.931 . S
C1057 C1056 1.399 . S
C1057 C1061 1.352 1_565 S
C1058 C1056 1.394 1_545 S
C1058 C1059 1.369 . S
C1058 C1062 1.531 . S
C1059 C1058 1.369 . S
C1059 C1060 1.410 . S
C1059 C1067 1.503 . S
C1060 C1059 1.410 . S
C1060 C1061 1.392 . S
C1060 C1063 1.511 . S
C1061 C1057 1.352 1_545 S
C1061 C1060 1.392 . S
C1061 H1073 0.929 . S
C1062 C1058 1.531 . S
C1062 H1074 0.960 . S
C1062 H1075 0.962 1_545 S
C1062 H1076 0.960 . S
C1063 C1060 1.511 . S
C1063 H1077 0.961 . S
C1063 H1078 0.961 . S
C1063 H1079 0.961 . S
C1064 C1065 1.370 . S
C1064 C1066 1.363 . S
C1064 H1080 0.931 1_544 S
C1065 C1064 1.370 . S
C1065 C1069 1.408 . S
C1066 C1064 1.363 . S
C1066 C1067 1.370 . S
C1066 C1070 1.524 1_545 S
C1067 C1059 1.503 . S
C1067 C1066 1.370 . S
C1067 C1068 1.403 . S
C1068 C1067 1.403 . S
C1068 C1069 1.404 . S
C1068 C1071 1.539 . S
C1069 C1065 1.408 . S
C1069 C1068 1.404 . S
C1069 H1081 0.930 . S
C1070 C1066 1.524 1_565 S
C1070 H1082 0.956 . S
C1070 H1083 0.961 . S
C1070 H1084 0.961 1_554 S
C1071 C1068 1.539 . S
C1071 H1085 0.958 . S
C1071 H1086 0.961 . S
C1071 H1087 0.960 . S
H1072 C1056 0.931 . S
H1073 C1061 0.929 . S
H1074 C1062 0.960 . S
H1075 C1062 0.962 1_565 S
H1076 C1062 0.960 . S
H1077 C1063 0.961 . S
H1078 C1063 0.961 . S
H1079 C1063 0.961 . S
H1080 C1064 0.931 1_566 S
H1081 C1069 0.930 . S
H1082 C1070 0.956 . S
H1083 C1070 0.961 . S
H1084 C1070 0.961 1_556 S
H1085 C1071 0.958 . S
H1086 C1071 0.961 . S
H1087 C1071 0.960 . S
C1088 C1089 1.391 . S
C1088 C1090 1.394 . S
C1088 H1104 0.931 . S
C1089 C1088 1.391 . S
C1089 C1093 1.376 . S
C1090 C1088 1.394 . S
C1090 C1091 1.369 . S
C1090 C1094 1.531 . S
C1091 C1090 1.369 . S
C1091 C1092 1.410 . S
C1091 C1099 1.503 . S
C1092 C1091 1.410 . S
C1092 C1093 1.392 . S
C1092 C1095 1.511 . S
C1093 C1089 1.376 . S
C1093 C1092 1.392 . S
C1093 H1105 0.929 . S
C1094 C1090 1.531 . S
C1094 H1106 0.960 . S
C1094 H1107 0.962 . S
C1094 H1108 0.960 . S
C1095 C1092 1.511 . S
C1095 H1109 0.961 . S
C1095 H1110 0.961 . S
C1095 H1111 0.961 . S
C1096 C1097 1.370 . S
C1096 C1098 1.363 . S
C1096 H1112 0.931 . S
C1097 C1096 1.370 . S
C1097 C1101 1.408 . S
C1098 C1096 1.363 . S
C1098 C1099 1.370 . S
C1098 C1102 1.524 . S
C1099 C1091 1.503 . S
C1099 C1098 1.370 . S
C1099 C1100 1.403 . S
C1100 C1099 1.403 . S
C1100 C1101 1.404 . S
C1100 C1103 1.539 . S
C1101 C1097 1.408 . S
C1101 C1100 1.404 . S
C1101 H1113 0.930 . S
C1102 C1098 1.524 . S
C1102 H1114 0.956 . S
C1102 H1115 0.961 . S
C1102 H1116 0.961 . S
C1103 C1100 1.539 . S
C1103 H1117 0.958 . S
C1103 H1118 0.961 . S
C1103 H1119 0.960 . S
H1104 C1088 0.931 . S
H1105 C1093 0.929 . S
H1106 C1094 0.960 . S
H1107 C1094 0.962 . S
H1108 C1094 0.960 . S
H1109 C1095 0.961 . S
H1110 C1095 0.961 . S
H1111 C1095 0.961 . S
H1112 C1096 0.931 . S
H1113 C1101 0.930 . S
H1114 C1102 0.956 . S
H1115 C1102 0.961 . S
H1116 C1102 0.961 . S
H1117 C1103 0.958 . S
H1118 C1103 0.961 . S
H1119 C1103 0.960 . S
C1120 C1121 1.391 . S
C1120 C1122 1.394 . S
C1120 H1136 0.931 . S
C1121 C1120 1.391 . S
C1121 C1125 1.376 . S
C1122 C1120 1.394 . S
C1122 C1123 1.369 . S
C1122 C1126 1.531 . S
C1123 C1122 1.369 . S
C1123 C1124 1.410 . S
C1123 C1131 1.503 . S
C1124 C1123 1.410 . S
C1124 C1125 1.392 . S
C1124 C1127 1.511 . S
C1125 C1121 1.376 . S
C1125 C1124 1.392 . S
C1125 H1137 0.929 . S
C1126 C1122 1.531 . S
C1126 H1138 0.960 . S
C1126 H1139 0.962 . S
C1126 H1140 0.960 . S
C1127 C1124 1.511 . S
C1127 H1141 0.961 1_554 S
C1127 H1142 0.961 1_554 S
C1127 H1143 0.961 1_554 S
C1128 C1129 1.370 . S
C1128 C1130 1.363 . S
C1128 H1144 0.931 . S
C1129 C1128 1.370 . S
C1129 C1133 1.408 . S
C1130 C1128 1.363 . S
C1130 C1131 1.370 . S
C1130 C1134 1.524 . S
C1131 C1123 1.503 . S
C1131 C1130 1.370 . S
C1131 C1132 1.403 . S
C1132 C1131 1.403 . S
C1132 C1133 1.404 . S
C1132 C1135 1.539 . S
C1133 C1129 1.408 . S
C1133 C1132 1.404 . S
C1133 H1145 0.930 . S
C1134 C1130 1.524 . S
C1134 H1146 0.956 . S
C1134 H1147 0.961 . S
C1134 H1148 0.961 . S
C1135 C1132 1.539 . S
C1135 H1149 0.958 . S
C1135 H1150 0.961 . S
C1135 H1151 0.960 . S
H1136 C1120 0.931 . S
H1137 C1125 0.929 . S
H1138 C1126 0.960 . S
H1139 C1126 0.962 . S
H1140 C1126 0.960 . S
H1141 C1127 0.961 1_556 S
H1142 C1127 0.961 1_556 S
H1143 C1127 0.961 1_556 S
H1144 C1128 0.931 . S
H1145 C1133 0.930 . S
H1146 C1134 0.956 . S
H1147 C1134 0.961 . S
H1148 C1134 0.961 . S
H1149 C1135 0.958 . S
H1150 C1135 0.961 . S
H1151 C1135 0.960 . S
C1152 C1153 1.391 . S
C1152 C1154 1.394 . S
C1152 H1168 0.931 1_556 S
C1153 C1152 1.391 . S
C1153 C1157 1.376 . S
C1154 C1152 1.394 . S
C1154 C1155 1.369 . S
C1154 C1158 1.531 1_556 S
C1155 C1154 1.369 . S
C1155 C1156 1.410 . S
C1155 C1163 1.503 . S
C1156 C1155 1.410 . S
C1156 C1157 1.392 . S
C1156 C1159 1.511 . S
C1157 C1153 1.376 . S
C1157 C1156 1.392 . S
C1157 H1169 0.929 . S
C1158 C1154 1.531 1_554 S
C1158 H1170 0.960 . S
C1158 H1171 0.962 . S
C1158 H1172 0.960 . S
C1159 C1156 1.511 . S
C1159 H1173 0.961 . S
C1159 H1174 0.961 . S
C1159 H1175 0.961 . S
C1160 C1161 1.370 . S
C1160 C1162 1.363 . S
C1160 H1176 0.931 . S
C1161 C1160 1.370 . S
C1161 C1165 1.408 . S
C1162 C1160 1.363 . S
C1162 C1163 1.370 . S
C1162 C1166 1.524 . S
C1163 C1155 1.503 . S
C1163 C1162 1.370 . S
C1163 C1164 1.403 . S
C1164 C1163 1.403 . S
C1164 C1165 1.404 . S
C1164 C1167 1.539 1_455 S
C1165 C1161 1.408 . S
C1165 C1164 1.404 . S
C1165 H1177 0.930 1_455 S
C1166 C1162 1.524 . S
C1166 H1178 0.956 . S
C1166 H1179 0.961 . S
C1166 H1180 0.961 . S
C1167 C1164 1.539 1_655 S
C1167 H1181 0.958 . S
C1167 H1182 0.961 . S
C1167 H1183 0.960 . S
H1168 C1152 0.931 1_554 S
H1169 C1157 0.929 . S
H1170 C1158 0.960 . S
H1171 C1158 0.962 . S
H1172 C1158 0.960 . S
H1173 C1159 0.961 . S
H1174 C1159 0.961 . S
H1175 C1159 0.961 . S
H1176 C1160 0.931 . S
H1177 C1165 0.930 1_655 S
H1178 C1166 0.956 . S
H1179 C1166 0.961 . S
H1180 C1166 0.961 . S
H1181 C1167 0.958 . S
H1182 C1167 0.961 . S
H1183 C1167 0.960 . S
C1184 C1185 1.391 . S
C1184 C1186 1.394 . S
C1184 H1200 0.931 . S
C1185 C1184 1.391 . S
C1185 C1189 1.376 1_545 S
C1186 C1184 1.394 . S
C1186 C1187 1.369 . S
C1186 C1190 1.531 . S
C1187 C1186 1.369 . S
C1187 C1188 1.410 1_545 S
C1187 C1195 1.503 . S
C1188 C1187 1.410 1_565 S
C1188 C1189 1.392 . S
C1188 C1191 1.511 . S
C1189 C1185 1.376 1_565 S
C1189 C1188 1.392 . S
C1189 H1201 0.929 . S
C1190 C1186 1.531 . S
C1190 H1202 0.960 . S
C1190 H1203 0.962 . S
C1190 H1204 0.960 . S
C1191 C1188 1.511 . S
C1191 H1205 0.961 . S
C1191 H1206 0.961 . S
C1191 H1207 0.961 1_556 S
C1192 C1193 1.370 1_565 S
C1192 C1194 1.363 . S
C1192 H1208 0.931 . S
C1193 C1192 1.370 1_545 S
C1193 C1197 1.408 . S
C1194 C1192 1.363 . S
C1194 C1195 1.370 1_565 S
C1194 C1198 1.524 . S
C1195 C1187 1.503 . S
C1195 C1194 1.370 1_545 S
C1195 C1196 1.403 . S
C1196 C1195 1.403 . S
C1196 C1197 1.404 . S
C1196 C1199 1.539 . S
C1197 C1193 1.408 . S
C1197 C1196 1.404 . S
C1197 H1209 0.930 . S
C1198 C1194 1.524 . S
C1198 H1210 0.956 . S
C1198 H1211 0.961 . S
C1198 H1212 0.961 . S
C1199 C1196 1.539 . S
C1199 H1213 0.958 . S
C1199 H1214 0.961 1_556 S
C1199 H1215 0.960 . S
H1200 C1184 0.931 . S
H1201 C1189 0.929 . S
H1202 C1190 0.960 . S
H1203 C1190 0.962 . S
H1204 C1190 0.960 . S
H1205 C1191 0.961 . S
H1206 C1191 0.961 . S
H1207 C1191 0.961 1_554 S
H1208 C1192 0.931 . S
H1209 C1197 0.930 . S
H1210 C1198 0.956 . S
H1211 C1198 0.961 . S
H1212 C1198 0.961 . S
H1213 C1199 0.958 . S
H1214 C1199 0.961 1_554 S
H1215 C1199 0.960 . S
C1216 C1217 1.391 . S
C1216 C1218 1.394 . S
C1216 H1232 0.931 . S
C1217 C1216 1.391 . S
C1217 C1221 1.376 . S
C1218 C1216 1.394 . S
C1218 C1219 1.369 . S
C1218 C1222 1.531 . S
C1219 C1218 1.369 . S
C1219 C1220 1.410 . S
C1219 C1227 1.503 . S
C1220 C1219 1.410 . S
C1220 C1221 1.392 . S
C1220 C1223 1.511 . S
C1221 C1217 1.376 . S
C1221 C1220 1.392 . S
C1221 H1233 0.929 . S
C1222 C1218 1.531 . S
C1222 H1234 0.960 . S
C1222 H1235 0.962 . S
C1222 H1236 0.960 . S
C1223 C1220 1.511 . S
C1223 H1237 0.961 . S
C1223 H1238 0.961 . S
C1223 H1239 0.961 . S
C1224 C1225 1.370 . S
C1224 C1226 1.363 . S
C1224 H1240 0.931 . S
C1225 C1224 1.370 . S
C1225 C1229 1.408 . S
C1226 C1224 1.363 . S
C1226 C1227 1.370 . S
C1226 C1230 1.524 . S
C1227 C1219 1.503 . S
C1227 C1226 1.370 . S
C1227 C1228 1.403 . S
C1228 C1227 1.403 . S
C1228 C1229 1.404 . S
C1228 C1231 1.539 . S
C1229 C1225 1.408 . S
C1229 C1228 1.404 . S
C1229 H1241 0.930 . S
C1230 C1226 1.524 . S
C1230 H1242 0.956 . S
C1230 H1243 0.961 . S
C1230 H1244 0.961 . S
C1231 C1228 1.539 . S
C1231 H1245 0.958 . S
C1231 H1246 0.961 . S
C1231 H1247 0.960 . S
H1232 C1216 0.931 . S
H1233 C1221 0.929 . S
H1234 C1222 0.960 . S
H1235 C1222 0.962 . S
H1236 C1222 0.960 . S
H1237 C1223 0.961 . S
H1238 C1223 0.961 . S
H1239 C1223 0.961 . S
H1240 C1224 0.931 . S
H1241 C1229 0.930 . S
H1242 C1230 0.956 . S
H1243 C1230 0.961 . S
H1244 C1230 0.961 . S
H1245 C1231 0.958 . S
H1246 C1231 0.961 . S
H1247 C1231 0.960 . S
C1248 C1249 1.391 . S
C1248 C1250 1.394 . S
C1248 H1264 0.931 . S
C1249 C1248 1.391 . S
C1249 C1253 1.376 . S
C1250 C1248 1.394 . S
C1250 C1251 1.369 . S
C1250 C1254 1.531 . S
C1251 C1250 1.369 . S
C1251 C1252 1.410 . S
C1251 C1259 1.503 . S
C1252 C1251 1.410 . S
C1252 C1253 1.392 . S
C1252 C1255 1.511 . S
C1253 C1249 1.376 . S
C1253 C1252 1.392 . S
C1253 H1265 0.929 . S
C1254 C1250 1.531 . S
C1254 H1266 0.960 . S
C1254 H1267 0.962 . S
C1254 H1268 0.960 . S
C1255 C1252 1.511 . S
C1255 H1269 0.961 . S
C1255 H1270 0.961 . S
C1255 H1271 0.961 . S
C1256 C1257 1.370 . S
C1256 C1258 1.363 . S
C1256 H1272 0.931 . S
C1257 C1256 1.370 . S
C1257 C1261 1.408 . S
C1258 C1256 1.363 . S
C1258 C1259 1.370 . S
C1258 C1262 1.524 . S
C1259 C1251 1.503 . S
C1259 C1258 1.370 . S
C1259 C1260 1.403 . S
C1260 C1259 1.403 . S
C1260 C1261 1.404 . S
C1260 C1263 1.539 . S
C1261 C1257 1.408 . S
C1261 C1260 1.404 . S
C1261 H1273 0.930 . S
C1262 C1258 1.524 . S
C1262 H1274 0.956 . S
C1262 H1275 0.961 . S
C1262 H1276 0.961 . S
C1263 C1260 1.539 . S
C1263 H1277 0.958 . S
C1263 H1278 0.961 . S
C1263 H1279 0.960 . S
H1264 C1248 0.931 . S
H1265 C1253 0.929 . S
H1266 C1254 0.960 . S
H1267 C1254 0.962 . S
H1268 C1254 0.960 . S
H1269 C1255 0.961 . S
H1270 C1255 0.961 . S
H1271 C1255 0.961 . S
H1272 C1256 0.931 . S
H1273 C1261 0.930 . S
H1274 C1262 0.956 . S
H1275 C1262 0.961 . S
H1276 C1262 0.961 . S
H1277 C1263 0.958 . S
H1278 C1263 0.961 . S
H1279 C1263 0.960 . S
C1280 C1281 1.391 . S
C1280 C1282 1.394 . S
C1280 H1296 0.931 . S
C1281 C1280 1.391 . S
C1281 C1285 1.376 . S
C1282 C1280 1.394 . S
C1282 C1283 1.369 . S
C1282 C1286 1.531 . S
C1283 C1282 1.369 . S
C1283 C1284 1.410 . S
C1283 C1291 1.503 . S
C1284 C1283 1.410 . S
C1284 C1285 1.392 . S
C1284 C1287 1.511 1_655 S
C1285 C1281 1.376 . S
C1285 C1284 1.392 . S
C1285 H1297 0.929 . S
C1286 C1282 1.531 . S
C1286 H1298 0.960 . S
C1286 H1299 0.962 . S
C1286 H1300 0.960 . S
C1287 C1284 1.511 1_455 S
C1287 H1301 0.961 . S
C1287 H1302 0.961 . S
C1287 H1303 0.961 . S
C1288 C1289 1.370 . S
C1288 C1290 1.363 . S
C1288 H1304 0.931 . S
C1289 C1288 1.370 . S
C1289 C1293 1.408 1_655 S
C1290 C1288 1.363 . S
C1290 C1291 1.370 . S
C1290 C1294 1.524 . S
C1291 C1283 1.503 . S
C1291 C1290 1.370 . S
C1291 C1292 1.403 1_655 S
C1292 C1291 1.403 1_455 S
C1292 C1293 1.404 . S
C1292 C1295 1.539 . S
C1293 C1289 1.408 1_455 S
C1293 C1292 1.404 . S
C1293 H1305 0.930 . S
C1294 C1290 1.524 . S
C1294 H1306 0.956 . S
C1294 H1307 0.961 . S
C1294 H1308 0.961 . S
C1295 C1292 1.539 . S
C1295 H1309 0.958 . S
C1295 H1310 0.961 . S
C1295 H1311 0.960 . S
H1296 C1280 0.931 . S
H1297 C1285 0.929 . S
H1298 C1286 0.960 . S
H1299 C1286 0.962 . S
H1300 C1286 0.960 . S
H1301 C1287 0.961 . S
H1302 C1287 0.961 . S
H1303 C1287 0.961 . S
H1304 C1288 0.931 . S
H1305 C1293 0.930 . S
H1306 C1294 0.956 . S
H1307 C1294 0.961 . S
H1308 C1294 0.961 . S
H1309 C1295 0.958 . S
H1310 C1295 0.961 . S
H1311 C1295 0.960 . S
C1312 C1313 1.391 . S
C1312 C1314 1.394 . S
C1312 H1328 0.931 . S
C1313 C1312 1.391 . S
C1313 C1317 1.376 1_565 S
C1314 C1312 1.394 . S
C1314 C1315 1.369 . S
C1314 C1318 1.531 . S
C1315 C1314 1.369 . S
C1315 C1316 1.410 1_565 S
C1315 C1323 1.503 . S
C1316 C1315 1.410 1_545 S
C1316 C1317 1.392 . S
C1316 C1319 1.511 . S
C1317 C1313 1.376 1_545 S
C1317 C1316 1.392 . S
C1317 H1329 0.929 . S
C1318 C1314 1.531 . S
C1318 H1330 0.960 . S
C1318 H1331 0.962 . S
C1318 H1332 0.960 . S
C1319 C1316 1.511 . S
C1319 H1333 0.961 . S
C1319 H1334 0.961 . S
C1319 H1335 0.961 . S
C1320 C1321 1.370 1_545 S
C1320 C1322 1.363 . S
C1320 H1336 0.931 . S
C1321 C1320 1.370 1_565 S
C1321 C1325 1.408 . S
C1322 C1320 1.363 . S
C1322 C1323 1.370 1_545 S
C1322 C1326 1.524 . S
C1323 C1315 1.503 . S
C1323 C1322 1.370 1_565 S
C1323 C1324 1.403 . S
C1324 C1323 1.403 . S
C1324 C1325 1.404 . S
C1324 C1327 1.539 . S
C1325 C1321 1.408 . S
C1325 C1324 1.404 . S
C1325 H1337 0.930 . S
C1326 C1322 1.524 . S
C1326 H1338 0.956 . S
C1326 H1339 0.961 . S
C1326 H1340 0.961 . S
C1327 C1324 1.539 . S
C1327 H1341 0.958 . S
C1327 H1342 0.961 . S
C1327 H1343 0.960 . S
H1328 C1312 0.931 . S
H1329 C1317 0.929 . S
H1330 C1318 0.960 . S
H1331 C1318 0.962 . S
H1332 C1318 0.960 . S
H1333 C1319 0.961 . S
H1334 C1319 0.961 . S
H1335 C1319 0.961 . S
H1336 C1320 0.931 . S
H1337 C1325 0.930 . S
H1338 C1326 0.956 . S
H1339 C1326 0.961 . S
H1340 C1326 0.961 . S
H1341 C1327 0.958 . S
H1342 C1327 0.961 . S
H1343 C1327 0.960 . S
C1344 C1345 1.391 . S
C1344 C1346 1.394 . S
C1344 H1360 0.931 . S
C1345 C1344 1.391 . S
C1345 C1349 1.376 . S
C1346 C1344 1.394 . S
C1346 C1347 1.369 . S
C1346 C1350 1.531 . S
C1347 C1346 1.369 . S
C1347 C1348 1.410 . S
C1347 C1355 1.503 . S
C1348 C1347 1.410 . S
C1348 C1349 1.392 . S
C1348 C1351 1.511 . S
C1349 C1345 1.376 . S
C1349 C1348 1.392 . S
C1349 H1361 0.929 . S
C1350 C1346 1.531 . S
C1350 H1362 0.960 . S
C1350 H1363 0.962 . S
C1350 H1364 0.960 . S
C1351 C1348 1.511 . S
C1351 H1365 0.961 . S
C1351 H1366 0.961 . S
C1351 H1367 0.961 . S
C1352 C1353 1.370 . S
C1352 C1354 1.363 . S
C1352 H1368 0.931 . S
C1353 C1352 1.370 . S
C1353 C1357 1.408 . S
C1354 C1352 1.363 . S
C1354 C1355 1.370 . S
C1354 C1358 1.524 . S
C1355 C1347 1.503 . S
C1355 C1354 1.370 . S
C1355 C1356 1.403 . S
C1356 C1355 1.403 . S
C1356 C1357 1.404 . S
C1356 C1359 1.539 . S
C1357 C1353 1.408 . S
C1357 C1356 1.404 . S
C1357 H1369 0.930 . S
C1358 C1354 1.524 . S
C1358 H1370 0.956 . S
C1358 H1371 0.961 . S
C1358 H1372 0.961 . S
C1359 C1356 1.539 . S
C1359 H1373 0.958 . S
C1359 H1374 0.961 . S
C1359 H1375 0.960 . S
H1360 C1344 0.931 . S
H1361 C1349 0.929 . S
H1362 C1350 0.960 . S
H1363 C1350 0.962 . S
H1364 C1350 0.960 . S
H1365 C1351 0.961 . S
H1366 C1351 0.961 . S
H1367 C1351 0.961 . S
H1368 C1352 0.931 . S
H1369 C1357 0.930 . S
H1370 C1358 0.956 . S
H1371 C1358 0.961 . S
H1372 C1358 0.961 . S
H1373 C1359 0.958 . S
H1374 C1359 0.961 . S
H1375 C1359 0.960 . S
C1376 C1377 1.391 . S
C1376 C1378 1.394 . S
C1376 H1392 0.931 . S
C1377 C1376 1.391 . S
C1377 C1381 1.376 . S
C1378 C1376 1.394 . S
C1378 C1379 1.369 . S
C1378 C1382 1.531 . S
C1379 C1378 1.369 . S
C1379 C1380 1.410 . S
C1379 C1387 1.503 . S
C1380 C1379 1.410 . S
C1380 C1381 1.392 . S
C1380 C1383 1.511 . S
C1381 C1377 1.376 . S
C1381 C1380 1.392 . S
C1381 H1393 0.929 . S
C1382 C1378 1.531 . S
C1382 H1394 0.960 . S
C1382 H1395 0.962 . S
C1382 H1396 0.960 . S
C1383 C1380 1.511 . S
C1383 H1397 0.961 . S
C1383 H1398 0.961 . S
C1383 H1399 0.961 . S
C1384 C1385 1.370 . S
C1384 C1386 1.363 . S
C1384 H1400 0.931 . S
C1385 C1384 1.370 . S
C1385 C1389 1.408 . S
C1386 C1384 1.363 . S
C1386 C1387 1.370 . S
C1386 C1390 1.524 . S
C1387 C1379 1.503 . S
C1387 C1386 1.370 . S
C1387 C1388 1.403 . S
C1388 C1387 1.403 . S
C1388 C1389 1.404 . S
C1388 C1391 1.539 . S
C1389 C1385 1.408 . S
C1389 C1388 1.404 . S
C1389 H1401 0.930 . S
C1390 C1386 1.524 . S
C1390 H1402 0.956 . S
C1390 H1403 0.961 . S
C1390 H1404 0.961 . S
C1391 C1388 1.539 . S
C1391 H1405 0.958 . S
C1391 H1406 0.961 . S
C1391 H1407 0.960 . S
H1392 C1376 0.931 . S
H1393 C1381 0.929 . S
H1394 C1382 0.960 . S
H1395 C1382 0.962 . S
H1396 C1382 0.960 . S
H1397 C1383 0.961 . S
H1398 C1383 0.961 . S
H1399 C1383 0.961 . S
H1400 C1384 0.931 . S
H1401 C1389 0.930 . S
H1402 C1390 0.956 . S
H1403 C1390 0.961 . S
H1404 C1390 0.961 . S
H1405 C1391 0.958 . S
H1406 C1391 0.961 . S
H1407 C1391 0.960 . S
C641 C391 2.259 1_565 S
C649 C503 2.362 1_545 S
C681 C543 1.621 . S
C673 C451 1.609 . S
C713 C562 2.424 . S
C705 C241 2.073 . S
C745 C623 1.790 . S
C737 C331 1.556 . S
C777 C482 2.361 1_565 S
C769 C121 1.974 . S
C801 C211 1.537 . S
C809 C522 1.626 . S
C833 C31 2.311 . S
C841 C583 2.426 . S
C865 C91 1.476 . S
C873 C602 1.804 . S
C905 C484 0.759 . S
C897 C301 0.743 . S
C937 C524 0.280 . S
C929 C380 0.175 . S
C969 C580 0.935 . S
C961 C440 0.996 . S
C993 C260 0.639 . S
C1001 C604 0.360 . S
C1025 C61 0.659 . S
C1033 C505 0.760 . S
C1065 C545 0.378 . S
C1057 C140 0.446 . S
C1097 C591 0.984 . S
C1089 C200 0.840 . S
C1121 C20 0.258 . S
C1129 C625 0.439 1_554 S
C1153 C320 2.358 . S
C1161 C500 2.528 . S
C1185 C361 2.578 . S
C1193 C540 3.167 . S
C1225 C564 1.954 . S
C1217 C421 1.753 . S
C1257 C620 3.147 . S
C1249 C271 2.987 . S
C1281 C80 2.400 . S
C1289 C511 2.539 . S
C1321 C551 3.162 . S
C1313 C151 2.978 . S
C1353 C585 1.957 . S
C1345 C181 1.713 . S
C1377 C1 2.599 . S
C1385 C631 3.147 . S
