# Generated by pormake.
# Topology pth, (4,4)-cn, num edge types: 1
# Building blocks:
#     Node 0, Type 0, BuildingBlock: CEKHIL_clean_sbu_0, # of connection points: 4
#     Node 1, Type 0, BuildingBlock: CEKHIL_clean_sbu_0, # of connection points: 4
#     Node 2, Type 0, BuildingBlock: CEKHIL_clean_sbu_0, # of connection points: 4
#     Node 3, Type 1, BuildingBlock: MIFKUJ_clean_linker_1, # of connection points: 4
#     Node 4, Type 1, BuildingBlock: MIFKUJ_clean_linker_1, # of connection points: 4
#     Node 5, Type 1, BuildingBlock: MIFKUJ_clean_linker_1, # of connection points: 4
#     Edge 6, Type (0, 1), BuildingBlock: FUNLAD_clean_linker_1, # of connection points: 2
#     Edge 7, Type (0, 1), BuildingBlock: FUNLAD_clean_linker_1, # of connection points: 2
#     Edge 8, Type (0, 1), BuildingBlock: FUNLAD_clean_linker_1, # of connection points: 2
#     Edge 9, Type (0, 1), BuildingBlock: FUNLAD_clean_linker_1, # of connection points: 2
#     Edge 10, Type (0, 1), BuildingBlock: FUNLAD_clean_linker_1, # of connection points: 2
#     Edge 11, Type (0, 1), BuildingBlock: FUNLAD_clean_linker_1, # of connection points: 2
#     Edge 12, Type (0, 1), BuildingBlock: FUNLAD_clean_linker_1, # of connection points: 2
#     Edge 13, Type (0, 1), BuildingBlock: FUNLAD_clean_linker_1, # of connection points: 2
#     Edge 14, Type (0, 1), BuildingBlock: FUNLAD_clean_linker_1, # of connection points: 2
#     Edge 15, Type (0, 1), BuildingBlock: FUNLAD_clean_linker_1, # of connection points: 2
#     Edge 16, Type (0, 1), BuildingBlock: FUNLAD_clean_linker_1, # of connection points: 2
#     Edge 17, Type (0, 1), BuildingBlock: FUNLAD_clean_linker_1, # of connection points: 2
# Relax obj value: 0.014
# Max RMSD: 0.063
# Mean RMSD: 0.055
data_MOF--net-pth--node1-CEKHIL_clean_sbu_0--node2-MIFKUJ_clean_linker_1--edge1-FUNLAD_clean_linker_1
_symmetry_space_group_name_H-M    P1
_symmetry_Int_Tables_number       1
_symmetry_cell_setting            triclinic
loop_
_symmetry_equiv_pos_as_xyz
'x, y, z'
_cell_length_a     30.054899
_cell_length_b     30.174613
_cell_length_c     66.408413
_cell_angle_alpha  90.842521
_cell_angle_beta   90.143089
_cell_angle_gamma 120.18408
loop_
_atom_site_label
_atom_site_type_symbol
_atom_site_fract_x
_atom_site_fract_y
_atom_site_fract_z
_atom_type_partial_charge
Co0 Co 0.03549 0.03852 0.06143 0.0
O1 O 0.01163 0.98583 0.08137 0.0
O2 O 0.07487 0.0037 0.06012 0.0
C3 C 0.03934 0.10043 0.08206 0.0
O4 O 0.07261 0.09176 0.03964 0.0
Co5 Co 0.96813 0.08415 0.04857 0.0
O6 O 0.0322 0.13685 0.03568 0.0
C7 C 0.94218 0.98194 0.03314 0.0
C8 C 0.04688 0.97644 0.07499 0.0
C9 C 0.06977 0.12961 0.03229 0.0
O10 O 0.98398 0.98801 0.04112 0.0
O11 O 0.92673 0.01422 0.03556 0.0
O12 O 0.07664 0.09053 0.08175 0.0
O13 O 0.99895 0.06972 0.07142 0.0
Co14 Co 0.02353 0.04245 0.37855 0.0
O15 O 0.99167 0.06302 0.35817 0.0
O16 O 0.06099 0.11615 0.37611 0.0
C17 C 0.0216 0.97737 0.36053 0.0
O18 O 0.06995 0.03712 0.39977 0.0
Co19 Co 0.96765 0.93606 0.39828 0.0
O20 O 0.03548 0.95643 0.41073 0.0
C21 C 0.94019 0.01367 0.41021 0.0
C22 C 0.02782 0.10981 0.36217 0.0
C23 C 0.07224 1.00272 0.41024 0.0
O24 O 0.97803 0.0474 0.39989 0.0
O25 O 0.92735 0.96628 0.41035 0.0
O26 O 0.05784 0.02442 0.3577 0.0
O27 O 0.98581 0.97152 0.37279 0.0
Co28 Co 0.01815 0.03224 0.7172 0.0
O29 O 0.07221 0.06407 0.69746 0.0
O30 O 0.05849 0.99869 0.71638 0.0
C31 C 0.95448 0.02779 0.69746 0.0
O32 O 0.96635 0.98702 0.73832 0.0
Co33 Co 0.95716 0.08238 0.73408 0.0
O34 O 0.91021 0.0136 0.74515 0.0
C35 C 0.06387 0.11921 0.74833 0.0
C36 C 0.08507 0.03041 0.70234 0.0
C37 C 0.92522 0.98111 0.74674 0.0
O38 O 0.06482 0.08206 0.73887 0.0
O39 O 0.02642 0.12788 0.74703 0.0
O40 O 0.96815 0.99334 0.6956 0.0
O41 O 0.9815 0.06498 0.70996 0.0
H42 H 0.092 0.49874 0.17926 0.0
H43 H 0.08039 0.42704 0.15794 0.0
H44 H 0.93795 0.32696 0.18808 0.0
H45 H 0.94962 0.39935 0.20929 0.0
H46 H 0.03022 0.53999 0.18186 0.0
H47 H 0.09074 0.45697 0.22516 0.0
H48 H 0.08808 0.38651 0.24389 0.0
H49 H 0.9645 0.37721 0.28002 0.0
H50 H 0.96618 0.44655 0.26089 0.0
H51 H 0.97231 0.5816 0.26013 0.0
H52 H 0.98014 0.65283 0.28033 0.0
H53 H 0.11675 0.75697 0.24758 0.0
H54 H 0.10885 0.68463 0.2276 0.0
H55 H 0.03307 0.54216 0.25652 0.0
H56 H 0.96753 0.61936 0.21111 0.0
H57 H 0.96499 0.6841 0.19012 0.0
H58 H 0.09712 0.70173 0.15752 0.0
H59 H 0.10013 0.63831 0.17882 0.0
C60 C 0.02204 0.45433 0.19604 0.0
C61 C 0.05849 0.46125 0.1814 0.0
C62 C 0.05202 0.41996 0.16934 0.0
C63 C 0.00865 0.37085 0.17162 0.0
C64 C 0.97195 0.36421 0.18613 0.0
C65 C 0.97867 0.40545 0.1983 0.0
C66 C 0.02834 0.49878 0.20832 0.0
C67 C 0.03166 0.54087 0.1982 0.0
C68 C 0.02886 0.49908 0.22967 0.0
C69 C 0.02816 0.45685 0.24136 0.0
C70 C 0.06263 0.43947 0.23695 0.0
C71 C 0.06139 0.39943 0.24777 0.0
C72 C 0.02676 0.37681 0.26363 0.0
C73 C 0.99262 0.39456 0.26824 0.0
C74 C 0.99336 0.43413 0.25721 0.0
C75 C 0.03959 0.62762 0.24216 0.0
C76 C 1.00402 0.61979 0.25732 0.0
C77 C 0.00861 0.66109 0.2689 0.0
C78 C 0.04923 0.71142 0.2656 0.0
C79 C 0.08494 0.7189 0.25048 0.0
C80 C 0.08031 0.67757 0.23895 0.0
C81 C 0.03466 0.58337 0.23004 0.0
C82 C 0.03168 0.54132 0.24019 0.0
C83 C 0.03445 0.58299 0.20869 0.0
C84 C 0.03451 0.62445 0.19677 0.0
C85 C 0.9966 0.63801 0.19972 0.0
C86 C 0.995 0.67479 0.18763 0.0
C87 C 0.03124 0.69893 0.17234 0.0
C88 C 0.06926 0.68527 0.16942 0.0
C89 C 0.07079 0.64846 0.18151 0.0
H90 H 0.6161 0.09318 0.51656 0.0
H91 H 0.67778 0.08661 0.49491 0.0
H92 H 0.64754 0.9481 0.52492 0.0
H93 H 0.58452 0.95432 0.54623 0.0
H94 H 0.51474 0.02853 0.51968 0.0
H95 H 0.66234 0.09159 0.56365 0.0
H96 H 0.73132 0.08691 0.58135 0.0
H97 H 0.61795 0.95752 0.61465 0.0
H98 H 0.54922 0.96158 0.59661 0.0
H99 H 0.42034 0.97014 0.59874 0.0
H100 H 0.35686 0.9774 0.61899 0.0
H101 H 0.3854 0.11138 0.58586 0.0
H102 H 0.44911 0.10371 0.56562 0.0
H103 H 0.52021 0.03027 0.59432 0.0
H104 H 0.37407 0.96128 0.55049 0.0
H105 H 0.30266 0.95329 0.53002 0.0
H106 H 0.41008 0.08461 0.49578 0.0
H107 H 0.48048 0.0926 0.51647 0.0
C108 C 0.59606 0.02466 0.53322 0.0
C109 C 0.62297 0.06153 0.51855 0.0
C110 C 0.65886 0.05794 0.50627 0.0
C111 C 0.66865 0.0172 0.50841 0.0
C112 C 0.64134 0.98021 0.52303 0.0
C113 C 0.60543 0.98381 0.53529 0.0
C114 C 0.55694 0.0281 0.54583 0.0
C115 C 0.51639 0.02985 0.53601 0.0
C116 C 0.55811 0.02765 0.56718 0.0
C117 C 0.60037 0.02654 0.57858 0.0
C118 C 0.65225 0.06199 0.57467 0.0
C119 C 0.69169 0.05947 0.58487 0.0
C120 C 0.68029 0.02241 0.59959 0.0
C121 C 0.62834 0.98741 0.60376 0.0
C122 C 0.58886 0.98954 0.59337 0.0
C123 C 0.43942 0.03611 0.58052 0.0
C124 C 0.41321 1.00133 0.59594 0.0
C125 C 0.3769 0.00582 0.60765 0.0
C126 C 0.36632 0.0457 0.60432 0.0
C127 C 0.39266 0.08036 0.58886 0.0
C128 C 0.42896 0.07586 0.5772 0.0
C129 C 0.47821 0.03135 0.56814 0.0
C130 C 0.51865 0.02924 0.57799 0.0
C131 C 0.47666 0.03077 0.54679 0.0
C132 C 0.43273 0.02788 0.53519 0.0
C133 C 0.38204 0.9889 0.5388 0.0
C134 C 0.34124 0.98419 0.52697 0.0
C135 C 0.35 0.01802 0.51114 0.0
C136 C 0.40092 0.05752 0.50771 0.0
C137 C 0.44169 0.06223 0.51958 0.0
H138 H 0.50387 0.41739 0.85385 0.0
H139 H 0.44137 0.34526 0.83281 0.0
H140 H 0.31937 0.36688 0.85613 0.0
H141 H 0.38201 0.43922 0.87682 0.0
H142 H 0.52718 0.51656 0.8519 0.0
H143 H 0.46208 0.38492 0.90171 0.0
H144 H 0.39883 0.31664 0.9229 0.0
H145 H 0.35384 0.42166 0.94742 0.0
H146 H 0.41595 0.48893 0.92593 0.0
H147 H 0.54015 0.62998 0.92421 0.0
H148 H 0.60101 0.7031 0.94506 0.0
H149 H 0.72618 0.68675 0.92163 0.0
H150 H 0.66491 0.61312 0.90109 0.0
H151 H 0.51789 0.5328 0.92588 0.0
H152 H 0.59391 0.66863 0.87873 0.0
H153 H 0.65393 0.73488 0.85606 0.0
H154 H 0.67668 0.6224 0.82427 0.0
H155 H 0.62021 0.55688 0.84789 0.0
C156 C 0.44766 0.43374 0.86691 0.0
C157 C 0.46363 0.40655 0.8544 0.0
C158 C 0.42792 0.36534 0.84242 0.0
C159 C 0.37566 0.35105 0.84238 0.0
C160 C 0.3595 0.37767 0.85526 0.0
C161 C 0.39522 0.41869 0.86736 0.0
C162 C 0.48631 0.47942 0.87865 0.0
C163 C 0.52612 0.51998 0.86815 0.0
C164 C 0.48313 0.48416 0.89975 0.0
C165 C 0.4433 0.44194 0.91198 0.0
C166 C 0.43784 0.39289 0.91136 0.0
C167 C 0.40188 0.35398 0.92356 0.0
C168 C 0.37039 0.36307 0.93657 0.0
C169 C 0.37606 0.41237 0.93721 0.0
C170 C 0.41214 0.45129 0.92504 0.0
C171 C 0.59789 0.61599 0.91107 0.0
C172 C 0.58071 0.64204 0.92362 0.0
C173 C 0.61555 0.68388 0.93551 0.0
C174 C 0.66834 0.70032 0.93539 0.0
C175 C 0.68573 0.67461 0.92259 0.0
C176 C 0.65076 0.63275 0.91059 0.0
C177 C 0.55993 0.57017 0.89917 0.0
C178 C 0.51979 0.52957 0.90965 0.0
C179 C 0.56318 0.5655 0.878 0.0
C180 C 0.60279 0.60744 0.8654 0.0
C181 C 0.61329 0.65835 0.86748 0.0
C182 C 0.6473 0.69625 0.8544 0.0
C183 C 0.67004 0.68356 0.83857 0.0
C184 C 0.65971 0.633 0.83644 0.0
C185 C 0.62721 0.59557 0.8499 0.0
H186 H 0.08081 0.17002 0.10109 0.0
C187 C 0.04385 0.14415 0.09397 0.0
H188 H 0.96631 0.12551 0.09065 0.0
H189 H 0.99569 0.2454 0.17516 0.0
H190 H 0.95176 0.15783 0.18662 0.0
H191 H 0.93316 0.08608 0.16327 0.0
H192 H 0.95912 0.10171 0.12832 0.0
C193 C 1.00415 0.15198 0.09694 0.0
C194 C 0.01029 0.1949 0.11029 0.0
C195 C 0.99301 0.18507 0.13044 0.0
C196 C 1.0023 0.22639 0.14374 0.0
C197 C 0.9877 0.21553 0.16414 0.0
C198 C 0.96285 0.16537 0.17099 0.0
C199 C 0.95249 0.12498 0.15786 0.0
C200 C 0.96755 0.1345 0.13784 0.0
H201 H 0.95985 0.29591 0.15613 0.0
C202 C 0.99944 0.32644 0.15857 0.0
H203 H 0.07751 0.35084 0.15275 0.0
H204 H 0.04614 0.22648 0.07233 0.0
H205 H 0.08898 0.31393 0.06051 0.0
H206 H 0.10332 0.38549 0.0832 0.0
H207 H 0.07514 0.37017 0.11787 0.0
C208 C 0.03759 0.32141 0.1503 0.0
C209 C 0.02709 0.27741 0.1366 0.0
C210 C 0.04367 0.28703 0.11631 0.0
C211 C 0.03531 0.24577 0.10317 0.0
C212 C 0.052 0.25647 0.08299 0.0
C213 C 0.07645 0.30646 0.07598 0.0
C214 C 0.08452 0.34674 0.08876 0.0
C215 C 0.06828 0.33739 0.10867 0.0
H216 H 0.91905 0.07021 0.42138 0.0
C217 C 0.91018 0.03069 0.42249 0.0
H218 H 0.86258 0.95885 0.43571 0.0
H219 H 0.82705 0.10671 0.50052 0.0
H220 H 0.9182 0.14652 0.50833 0.0
H221 H 0.97434 0.12543 0.48833 0.0
H222 H 0.93988 0.06479 0.46033 0.0
C223 C 0.87258 0.99874 0.43488 0.0
C224 C 0.84 0.01432 0.44648 0.0
C225 C 0.86083 0.04976 0.46292 0.0
C226 C 0.82823 0.06132 0.47469 0.0
C227 C 0.84999 0.09659 0.49107 0.0
C228 C 0.90224 0.11964 0.49576 0.0
C229 C 0.93386 0.1078 0.48449 0.0
C230 C 0.91358 0.07311 0.46833 0.0
H231 H 0.70252 0.97315 0.49514 0.0
C232 C 0.70491 0.01035 0.49517 0.0
H233 H 0.74669 0.08567 0.48374 0.0
H234 H 0.78795 0.94625 0.41563 0.0
H235 H 0.69708 0.90744 0.40757 0.0
H236 H 0.641 0.92843 0.42767 0.0
H237 H 0.67535 0.98803 0.45602 0.0
C238 C 0.74036 0.04699 0.48335 0.0
C239 C 0.77473 0.03671 0.4703 0.0
C240 C 0.75419 1.00236 0.45354 0.0
C241 C 0.78673 0.99084 0.44176 0.0
C242 C 0.76503 0.95618 0.42518 0.0
C243 C 0.71294 0.93377 0.42032 0.0
C244 C 0.68136 0.94555 0.43164 0.0
C245 C 0.70155 0.97957 0.448 0.0
H246 H 0.91752 0.91902 0.76623 0.0
C247 C 0.89699 0.93708 0.76021 0.0
H248 H 0.82776 0.93854 0.75959 0.0
H249 H 0.78147 0.72274 0.80701 0.0
H250 H 0.8131 0.70055 0.77725 0.0
H251 H 0.84457 0.75842 0.7483 0.0
H252 H 0.84677 0.83976 0.74938 0.0
C253 C 0.84795 0.92016 0.76565 0.0
C254 C 0.82162 0.88086 0.78156 0.0
C255 C 0.81628 0.8314 0.77989 0.0
C256 C 0.79338 0.79576 0.79575 0.0
C257 C 0.7945 0.7494 0.79475 0.0
C258 C 0.81315 0.73645 0.77784 0.0
C259 C 0.83119 0.76918 0.76161 0.0
C260 C 0.83278 0.81609 0.76252 0.0
H261 H 0.69168 0.70988 0.80741 0.0
C262 C 0.70107 0.72143 0.82314 0.0
H263 H 0.75062 0.77898 0.84369 0.0
H264 H 0.82818 0.97309 0.79057 0.0
H265 H 0.79038 0.99237 0.81903 0.0
H266 H 0.74135 0.92692 0.84432 0.0
H267 H 0.73076 0.84218 0.84152 0.0
C268 C 0.74101 0.76809 0.82791 0.0
C269 C 0.77041 0.80716 0.81223 0.0
C270 C 0.77475 0.85617 0.81369 0.0
C271 C 0.8013 0.89333 0.79863 0.0
C272 C 0.80705 0.94272 0.8011 0.0
C273 C 0.78572 0.95449 0.81746 0.0
C274 C 0.75825 0.91771 0.83173 0.0
C275 C 0.75266 0.86913 0.82995 0.0
H276 H 0.08457 0.92988 0.07832 0.0
C277 C 0.05586 0.93771 0.08464 0.0
H278 H 1.00344 0.92283 0.10826 0.0
H279 H 0.01171 0.71161 0.11801 0.0
H280 H 0.96008 0.68376 0.08731 0.0
H281 H 0.94498 0.74413 0.06788 0.0
H282 H 0.98181 0.83288 0.07891 0.0
C283 C 0.03081 0.91379 0.10142 0.0
C284 C 0.04226 0.87782 0.11234 0.0
C285 C 0.02012 0.826 0.10578 0.0
C286 C 0.02799 0.79091 0.11722 0.0
C287 C 0.00615 0.73961 0.11012 0.0
C288 C 0.97658 0.72316 0.09249 0.0
C289 C 0.96814 0.75718 0.08153 0.0
C290 C 0.98954 0.80803 0.08802 0.0
H291 H 0.99018 0.73589 0.15936 0.0
C292 C 0.02652 0.73617 0.15925 0.0
H293 H 0.10272 0.77505 0.14811 0.0
H294 H 0.09122 0.97469 0.12882 0.0
H295 H 0.14251 1.00248 0.1596 0.0
H296 H 0.15554 0.94154 0.17957 0.0
H297 H 0.11736 0.8524 0.1689 0.0
C298 C 0.06467 0.77076 0.14772 0.0
C299 C 0.05742 0.80755 0.13535 0.0
C300 C 0.08034 0.85959 0.14169 0.0
C301 C 0.07259 0.89469 0.13022 0.0
C302 C 0.0956 0.94635 0.13701 0.0
C303 C 0.1252 0.96284 0.15463 0.0
C304 C 0.13258 0.92854 0.16587 0.0
C305 C 0.11049 0.87748 0.15956 0.0
H306 H 0.1532 0.05539 0.4195 0.0
C307 C 0.11965 0.01807 0.42218 0.0
H308 H 0.08887 0.95025 0.43894 0.0
H309 H 0.29499 0.95892 0.46269 0.0
H310 H 0.25544 0.8849 0.44012 0.0
H311 H 0.17698 0.86385 0.42069 0.0
H312 H 0.13766 0.91668 0.42369 0.0
C313 C 0.12208 0.98786 0.43636 0.0
C314 C 0.1704 1.00212 0.44788 0.0
C315 C 0.19286 0.97061 0.44607 0.0
C316 C 0.238 0.98256 0.45737 0.0
C317 C 0.26015 0.95106 0.45484 0.0
C318 C 0.23801 0.90859 0.44182 0.0
C319 C 0.19386 0.89674 0.43088 0.0
C320 C 0.17154 0.92735 0.43283 0.0
H321 H 0.26777 0.97646 0.50187 0.0
C322 C 0.3051 0.00931 0.4984 0.0
H323 H 0.34295 0.07251 0.47881 0.0
H324 H 0.13465 0.06779 0.45687 0.0
H325 H 0.17534 0.14258 0.47895 0.0
H326 H 0.25573 0.16534 0.49728 0.0
H327 H 0.29551 0.11288 0.49381 0.0
C328 C 0.3075 0.0383 0.48272 0.0
C329 C 0.26059 0.0259 0.4706 0.0
C330 C 0.23865 0.05782 0.47222 0.0
C331 C 0.19303 0.04548 0.46116 0.0
C332 C 0.17037 0.07639 0.46415 0.0
C333 C 0.19309 0.11926 0.47697 0.0
C334 C 0.23829 0.13202 0.48732 0.0
C335 C 0.26079 0.10163 0.48514 0.0
H336 H 0.10447 0.18512 0.76916 0.0
C337 C 0.10672 0.15365 0.76198 0.0
H338 H 0.15083 0.11701 0.75941 0.0
H339 H 0.35122 0.32474 0.78908 0.0
H340 H 0.37321 0.31742 0.75459 0.0
H341 H 0.31067 0.24848 0.73193 0.0
H342 H 0.22551 0.18657 0.74364 0.0
C343 C 0.14671 0.1473 0.7666 0.0
C344 C 0.18711 0.18331 0.7812 0.0
C345 C 0.23727 0.21817 0.77435 0.0
C346 C 0.27366 0.25746 0.78756 0.0
C347 C 0.32252 0.29334 0.77994 0.0
C348 C 0.33557 0.28978 0.76011 0.0
C349 C 0.30033 0.25101 0.74734 0.0
C350 C 0.2516 0.2157 0.75426 0.0
H351 H 0.34973 0.28001 0.82404 0.0
C352 C 0.33927 0.30817 0.82884 0.0
H353 H 0.28472 0.33238 0.82543 0.0
H354 H 0.09775 0.1169 0.80017 0.0
H355 H 0.0763 0.1225 0.83496 0.0
H356 H 0.13861 0.19144 0.85767 0.0
H357 H 0.22289 0.25496 0.84579 0.0
C358 C 0.29589 0.30443 0.82129 0.0
C359 C 0.26008 0.26104 0.80774 0.0
C360 C 0.21079 0.22451 0.81485 0.0
C361 C 0.17451 0.18529 0.80165 0.0
C362 C 0.12615 0.14845 0.80936 0.0
C363 C 0.1135 0.15095 0.82935 0.0
C364 C 0.1486 0.18972 0.84214 0.0
C365 C 0.19678 0.22605 0.83509 0.0
H366 H 0.89601 0.04975 0.69209 0.0
C367 C 0.91053 0.02541 0.68652 0.0
H368 H 0.90511 0.97368 0.66364 0.0
H369 H 0.68047 0.90734 0.63339 0.0
H370 H 0.67078 0.82695 0.64465 0.0
H371 H 0.74165 0.82463 0.66247 0.0
H372 H 0.8229 0.90259 0.66892 0.0
C373 C 0.89087 0.99813 0.66934 0.0
C374 C 0.84854 0.99968 0.65798 0.0
C375 C 0.80088 0.95383 0.65459 0.0
C376 C 0.75951 0.95532 0.6447 0.0
C377 C 0.71284 0.90868 0.64114 0.0
C378 C 0.70676 0.86217 0.64748 0.0
C379 C 0.74669 0.86086 0.65749 0.0
C380 C 0.79322 0.90598 0.66106 0.0
H381 H 0.75965 0.03572 0.60182 0.0
C382 C 0.72346 0.02051 0.60981 0.0
H383 H 0.68559 0.98908 0.63717 0.0
H384 H 0.93777 0.0931 0.6576 0.0
H385 H 0.94628 0.17412 0.64803 0.0
H386 H 0.8713 0.17841 0.6354 0.0
H387 H 0.78798 0.10149 0.63159 0.0
C388 C 0.72095 0.00379 0.62871 0.0
C389 C 0.76532 1.00278 0.63853 0.0
C390 C 0.81293 0.04875 0.64203 0.0
C391 C 0.85516 0.04686 0.65089 0.0
C392 C 0.90353 0.09268 0.6523 0.0
C393 C 0.90912 0.13945 0.64665 0.0
C394 C 0.867 0.14182 0.63943 0.0
C395 C 0.81941 0.09718 0.63713 0.0
H396 H 0.92809 0.91185 0.01657 0.0
C397 C 0.91191 0.93619 0.01998 0.0
H398 H 0.85014 0.9492 0.01476 0.0
H399 H 0.77665 0.8328 0.93147 0.0
H400 H 0.81023 0.92106 0.92183 0.0
H401 H 0.85718 0.99197 0.94641 0.0
H402 H 0.871 0.97509 0.98072 0.0
C403 C 0.86606 0.92442 0.01187 0.0
C404 C 0.83807 0.88091 0.99714 0.0
C405 C 0.82982 0.89136 0.97712 0.0
C406 C 0.80224 0.85042 0.96298 0.0
C407 C 0.79604 0.86224 0.94297 0.0
C408 C 0.81548 0.9128 0.93718 0.0
C409 C 0.84195 0.95272 0.95101 0.0
C410 C 0.84939 0.94241 0.97072 0.0
H411 H 0.68901 0.76882 0.95454 0.0
C412 C 0.70355 0.74476 0.94861 0.0
H413 H 0.76579 0.73068 0.95015 0.0
H414 H 0.84258 0.84642 0.03469 0.0
H415 H 0.81012 0.75826 0.04406 0.0
H416 H 0.7649 0.68765 0.01921 0.0
H417 H 0.75149 0.70486 0.98486 0.0
C418 C 0.75096 0.75557 0.95447 0.0
C419 C 0.78229 0.79889 0.96889 0.0
C420 C 0.79127 0.78842 0.98877 0.0
C421 C 0.81847 0.82933 1.003 0.0
C422 C 0.82409 0.81726 0.02304 0.0
C423 C 0.80517 0.76666 0.02869 0.0
C424 C 0.77963 0.72691 0.01472 0.0
C425 C 0.77234 0.73737 0.99502 0.0
H426 H 0.98804 0.89495 0.35351 0.0
C427 C 0.01989 0.93288 0.35018 0.0
H428 H 0.08572 0.97555 0.33244 0.0
H429 H 0.04577 0.73664 0.32633 0.0
H430 H 0.06831 0.74729 0.36188 0.0
H431 H 0.08379 0.82487 0.38077 0.0
H432 H 0.07642 0.89208 0.36428 0.0
C433 C 0.05483 0.93771 0.33647 0.0
C434 C 0.04918 0.89227 0.3249 0.0
C435 C 0.0543 0.85356 0.33471 0.0
C436 C 0.04618 0.80914 0.32372 0.0
C437 C 0.05136 0.77107 0.33394 0.0
C438 C 0.06445 0.77676 0.35433 0.0
C439 C 0.07309 0.8204 0.36497 0.0
C440 C 0.06835 0.85855 0.35534 0.0
H441 H 0.08973 0.7941 0.27403 0.0
C442 C 0.05627 0.75719 0.2774 0.0
H443 H 0.99063 0.72075 0.29611 0.0
H444 H 0.03874 0.96016 0.30129 0.0
H445 H 0.01699 0.94994 0.26571 0.0
H446 H 1.00136 0.87235 0.24681 0.0
H447 H 0.0077 0.8047 0.26332 0.0
C448 C 0.02393 0.7563 0.29165 0.0
C449 C 0.03391 0.80382 0.30285 0.0
C450 C 0.02959 0.84293 0.29297 0.0
C451 C 0.03779 0.88738 0.30396 0.0
C452 C 0.03304 0.92568 0.29371 0.0
C453 C 0.02043 0.92026 0.27328 0.0
C454 C 0.01169 0.8766 0.26264 0.0
C455 C 0.01586 0.83817 0.2723 0.0
H456 H 0.13639 0.99868 0.69763 0.0
C457 C 0.12657 0.02644 0.69207 0.0
H458 H 0.14153 0.08212 0.67017 0.0
H459 H 0.36284 0.12203 0.64752 0.0
H460 H 0.38399 0.20197 0.66457 0.0
H461 H 0.31711 0.21203 0.68198 0.0
H462 H 0.22865 0.14219 0.68248 0.0
C463 C 0.15033 0.05361 0.67566 0.0
C464 C 0.19048 0.04717 0.66491 0.0
C465 C 0.24197 0.08859 0.66449 0.0
C466 C 0.28056 0.08291 0.6543 0.0
C467 C 0.33184 0.12451 0.65466 0.0
C468 C 0.34459 0.17056 0.66449 0.0
C469 C 0.30694 0.17622 0.6743 0.0
C470 C 0.25624 0.13583 0.67442 0.0
H471 H 0.31512 0.07753 0.61019 0.0
C472 C 0.32752 0.05201 0.61613 0.0
H473 H 0.31881 0.00362 0.6405 0.0
H474 H 0.09459 0.96181 0.66052 0.0
H475 H 0.07382 0.88183 0.64373 0.0
H476 H 0.14128 0.87108 0.62722 0.0
H477 H 0.22994 0.94059 0.62721 0.0
C478 C 0.30774 0.02923 0.63379 0.0
C479 C 0.26759 0.0359 0.64437 0.0
C480 C 0.21615 0.9945 0.64477 0.0
C481 C 0.17742 1.00032 0.65475 0.0
C482 C 0.12594 0.95906 0.6539 0.0
C483 C 0.11335 0.91298 0.64414 0.0
C484 C 0.15131 0.90695 0.63481 0.0
C485 C 0.2021 0.94716 0.63498 0.0
H486 H 0.10729 0.19892 0.01393 0.0
C487 C 0.11084 0.16681 0.01915 0.0
H488 H 0.15544 0.13057 0.01767 0.0
H489 H 0.25036 0.23926 0.93407 0.0
H490 H 0.19669 0.15077 0.9231 0.0
H491 H 0.14018 0.0846 0.94698 0.0
H492 H 0.13673 0.10667 0.982 0.0
C493 C 0.15168 0.16312 0.01333 0.0
C494 C 0.19076 0.20197 0.99963 0.0
C495 C 0.19371 0.18824 0.97937 0.0
C496 C 0.22713 0.22632 0.96566 0.0
C497 C 0.22703 0.21182 0.94528 0.0
C498 C 0.19608 0.16115 0.93873 0.0
C499 C 0.1642 0.1239 0.95217 0.0
C500 C 0.16266 0.13709 0.97224 0.0
H501 H 0.34163 0.29011 0.95283 0.0
C502 C 0.33408 0.32111 0.94989 0.0
H503 H 0.2828 0.34872 0.95534 0.0
H504 H 0.19952 0.24007 0.03802 0.0
H505 H 0.25404 0.32834 0.0492 0.0
H506 H 0.31136 0.39449 0.02547 0.0
H507 H 0.31468 0.37273 0.99042 0.0
C508 C 0.29208 0.31892 0.9581 0.0
C509 C 0.25856 0.27796 0.97239 0.0
C510 C 0.2567 0.29133 0.99282 0.0
C511 C 0.22314 0.2533 1.00647 0.0
C512 C 0.22321 0.26762 0.02689 0.0
C513 C 0.25461 0.31811 0.03355 0.0
C514 C 0.28692 0.35533 0.02019 0.0
C515 C 0.28829 0.34232 1.00008 0.0
H516 H 0.05837 0.19238 0.35745 0.0
C517 C 0.03161 0.15423 0.35152 0.0
H518 H 0.97709 0.11087 0.32882 0.0
H519 H 0.91778 0.27317 0.30228 0.0
H520 H 0.83782 0.20657 0.31611 0.0
H521 H 0.83457 0.13417 0.33416 0.0
H522 H 0.91112 0.12761 0.33829 0.0
C523 C 1.00435 0.14898 0.33465 0.0
C524 C 0.00744 0.19407 0.3242 0.0
C525 C 0.96249 0.19795 0.32222 0.0
C526 C 0.96461 0.24041 0.31221 0.0
C527 C 0.91872 0.24238 0.31005 0.0
C528 C 0.87244 0.20431 0.31788 0.0
C529 C 0.87059 0.16351 0.328 0.0
C530 C 0.9149 0.16017 0.33021 0.0
H531 H 0.03867 0.31043 0.26649 0.0
C532 C 0.02618 0.33381 0.27457 0.0
H533 H 1.00158 0.34732 0.30261 0.0
H534 H 0.09917 0.19507 0.32221 0.0
H535 H 0.18018 0.2641 0.31019 0.0
H536 H 0.18603 0.3425 0.29663 0.0
H537 H 0.11056 0.35155 0.29443 0.0
C538 C 0.01337 0.32403 0.2941 0.0
C539 C 0.01189 0.27963 0.30447 0.0
C540 C 0.05716 0.27639 0.30686 0.0
C541 C 0.05453 0.23271 0.31602 0.0
C542 C 0.09944 0.22858 0.31654 0.0
C543 C 0.14618 0.26777 0.30951 0.0
C544 C 0.14942 0.31178 0.30177 0.0
C545 C 0.10561 0.31627 0.30044 0.0
loop_
_geom_bond_atom_site_label_1
_geom_bond_atom_site_label_2
_geom_bond_distance
_geom_bond_site_symmetry_2
_ccdc_geom_bond_type
Co0 O1 2.216 1_445 S
Co0 O2 2.091 1_545 S
Co0 O4 2.004 . S
Co0 O10 2.021 1_445 S
Co0 O12 2.137 . S
Co0 O13 2.244 1_455 S
O1 Co0 2.216 1_665 S
O1 C8 1.247 1_655 S
O2 Co0 2.091 1_565 S
O2 C8 1.261 . S
C3 O12 1.247 . S
C3 O13 1.272 1_455 S
O4 Co0 2.004 . S
O4 C9 1.259 . S
Co5 O6 2.061 1_655 S
Co5 O11 2.052 . S
Co5 O13 2.135 . S
O6 Co5 2.061 1_455 S
O6 C9 1.235 . S
C7 O10 1.238 . S
C7 O11 1.241 1_565 S
C8 O1 1.247 1_455 S
C8 O2 1.261 . S
C9 O4 1.259 . S
C9 O6 1.235 . S
O10 Co0 2.021 1_665 S
O10 C7 1.238 . S
O11 Co5 2.052 . S
O11 C7 1.241 1_545 S
O12 Co0 2.137 . S
O12 C3 1.247 . S
O13 Co0 2.244 1_655 S
O13 C3 1.272 1_655 S
O13 Co5 2.135 . S
Co14 O15 2.216 1_455 S
Co14 O16 2.091 . S
Co14 O18 2.004 . S
Co14 O24 2.021 1_455 S
Co14 O26 2.137 . S
Co14 O27 2.244 1_445 S
O15 Co14 2.216 1_655 S
O15 C22 1.247 1_655 S
O16 Co14 2.091 . S
O16 C22 1.261 . S
C17 O26 1.247 1_565 S
C17 O27 1.272 1_455 S
O18 Co14 2.004 . S
O18 C23 1.259 . S
Co19 O20 2.061 1_655 S
Co19 O25 2.052 . S
Co19 O27 2.135 . S
O20 Co19 2.061 1_455 S
O20 C23 1.235 1_565 S
C21 O24 1.238 . S
C21 O25 1.241 1_545 S
C22 O15 1.247 1_455 S
C22 O16 1.261 . S
C23 O18 1.259 . S
C23 O20 1.235 1_545 S
O24 Co14 2.021 1_655 S
O24 C21 1.238 . S
O25 Co19 2.052 . S
O25 C21 1.241 1_565 S
O26 Co14 2.137 . S
O26 C17 1.247 1_545 S
O27 Co14 2.244 1_665 S
O27 C17 1.272 1_655 S
O27 Co19 2.135 . S
Co28 O29 2.216 . S
Co28 O30 2.091 1_545 S
Co28 O32 2.004 1_445 S
Co28 O38 2.021 . S
Co28 O40 2.137 1_445 S
Co28 O41 2.244 1_455 S
O29 Co28 2.216 . S
O29 C36 1.247 . S
O30 Co28 2.091 1_565 S
O30 C36 1.261 1_565 S
C31 O40 1.247 1_545 S
C31 O41 1.272 . S
O32 Co28 2.004 1_665 S
O32 C37 1.259 . S
Co33 O34 2.061 1_545 S
Co33 O39 2.052 1_655 S
Co33 O41 2.135 . S
O34 Co33 2.061 1_565 S
O34 C37 1.235 . S
C35 O38 1.238 . S
C35 O39 1.241 . S
C36 O29 1.247 . S
C36 O30 1.261 1_545 S
C37 O32 1.259 . S
C37 O34 1.235 . S
O38 Co28 2.021 . S
O38 C35 1.238 . S
O39 Co33 2.052 1_455 S
O39 C35 1.241 . S
O40 Co28 2.137 1_665 S
O40 C31 1.247 1_565 S
O41 Co28 2.244 1_655 S
O41 C31 1.272 . S
O41 Co33 2.135 . S
H42 C61 0.949 . S
H43 C62 0.950 . S
H44 C64 0.950 . S
H45 C65 0.950 . S
H46 C67 0.950 . S
H47 C70 0.950 . S
H48 C71 0.950 . S
H49 C73 0.951 . S
H50 C74 0.949 . S
H51 C76 0.949 . S
H52 C77 0.950 . S
H53 C79 0.950 . S
H54 C80 0.950 . S
H55 C82 0.950 1_655 S
H56 C85 0.950 . S
H57 C86 0.950 . S
H58 C88 0.951 . S
H59 C89 0.949 . S
C60 C61 1.376 . S
C60 C65 1.386 1_455 S
C60 C66 1.483 . S
C61 H42 0.949 . S
C61 C60 1.376 . S
C61 C62 1.397 . S
C62 H43 0.950 . S
C62 C61 1.397 . S
C62 C63 1.391 . S
C63 C62 1.391 . S
C63 C64 1.405 1_455 S
C64 H44 0.950 . S
C64 C63 1.405 1_655 S
C64 C65 1.367 . S
C65 H45 0.950 . S
C65 C60 1.386 1_655 S
C65 C64 1.367 . S
C66 C60 1.483 . S
C66 C67 1.382 . S
C66 C68 1.403 . S
C67 H46 0.950 . S
C67 C66 1.382 . S
C67 C83 1.411 . S
C68 C66 1.403 . S
C68 C69 1.489 . S
C68 C82 1.411 . S
C69 C68 1.489 . S
C69 C70 1.383 . S
C69 C74 1.382 1_455 S
C70 H47 0.950 . S
C70 C69 1.383 . S
C70 C71 1.395 . S
C71 H48 0.950 . S
C71 C70 1.395 . S
C71 C72 1.288 . S
C72 C71 1.288 . S
C72 C73 1.392 1_455 S
C73 H49 0.951 . S
C73 C72 1.392 1_655 S
C73 C74 1.392 . S
C74 H50 0.949 . S
C74 C69 1.382 1_655 S
C74 C73 1.392 . S
C75 C76 1.376 1_455 S
C75 C80 1.386 . S
C75 C81 1.483 . S
C76 H51 0.949 . S
C76 C75 1.376 1_655 S
C76 C77 1.397 . S
C77 H52 0.950 . S
C77 C76 1.397 . S
C77 C78 1.391 1_655 S
C78 C77 1.391 1_455 S
C78 C79 1.405 . S
C79 H53 0.950 . S
C79 C78 1.405 . S
C79 C80 1.367 . S
C80 H54 0.950 . S
C80 C75 1.386 . S
C80 C79 1.367 . S
C81 C75 1.483 . S
C81 C82 1.382 . S
C81 C83 1.403 . S
C82 H55 0.950 1_455 S
C82 C68 1.411 . S
C82 C81 1.382 . S
C83 C67 1.411 . S
C83 C81 1.403 . S
C83 C84 1.489 . S
C84 C83 1.489 . S
C84 C85 1.383 1_455 S
C84 C89 1.382 . S
C85 H56 0.950 . S
C85 C84 1.383 1_655 S
C85 C86 1.395 . S
C86 H57 0.950 . S
C86 C85 1.395 . S
C86 C87 1.288 1_655 S
C87 C86 1.288 1_455 S
C87 C88 1.392 . S
C88 H58 0.951 . S
C88 C87 1.392 . S
C88 C89 1.392 . S
C89 H59 0.949 . S
C89 C84 1.382 . S
C89 C88 1.392 . S
H90 C109 0.949 . S
H91 C110 0.950 . S
H92 C112 0.950 . S
H93 C113 0.950 . S
H94 C115 0.950 . S
H95 C118 0.950 . S
H96 C119 0.950 . S
H97 C121 0.951 . S
H98 C122 0.949 . S
H99 C124 0.949 . S
H100 C125 0.950 . S
H101 C127 0.950 . S
H102 C128 0.950 . S
H103 C130 0.950 . S
H104 C133 0.950 . S
H105 C134 0.950 . S
H106 C136 0.951 . S
H107 C137 0.949 . S
C108 C109 1.376 . S
C108 C113 1.386 1_545 S
C108 C114 1.483 . S
C109 H90 0.949 . S
C109 C108 1.376 . S
C109 C110 1.397 . S
C110 H91 0.950 . S
C110 C109 1.397 . S
C110 C111 1.391 . S
C111 C110 1.391 . S
C111 C112 1.405 1_545 S
C112 H92 0.950 . S
C112 C111 1.405 1_565 S
C112 C113 1.367 . S
C113 H93 0.950 . S
C113 C108 1.386 1_565 S
C113 C112 1.367 . S
C114 C108 1.483 . S
C114 C115 1.382 . S
C114 C116 1.403 . S
C115 H94 0.950 . S
C115 C114 1.382 . S
C115 C131 1.411 . S
C116 C114 1.403 . S
C116 C117 1.489 . S
C116 C130 1.411 . S
C117 C116 1.489 . S
C117 C118 1.383 . S
C117 C122 1.382 1_545 S
C118 H95 0.950 . S
C118 C117 1.383 . S
C118 C119 1.395 . S
C119 H96 0.950 . S
C119 C118 1.395 . S
C119 C120 1.288 . S
C120 C119 1.288 . S
C120 C121 1.392 1_545 S
C121 H97 0.951 . S
C121 C120 1.392 1_565 S
C121 C122 1.392 . S
C122 H98 0.949 . S
C122 C117 1.382 1_565 S
C122 C121 1.392 . S
C123 C124 1.376 1_545 S
C123 C128 1.386 . S
C123 C129 1.483 . S
C124 H99 0.949 . S
C124 C123 1.376 1_565 S
C124 C125 1.397 . S
C125 H100 0.950 . S
C125 C124 1.397 . S
C125 C126 1.391 1_565 S
C126 C125 1.391 1_545 S
C126 C127 1.405 . S
C127 H101 0.950 . S
C127 C126 1.405 . S
C127 C128 1.367 . S
C128 H102 0.950 . S
C128 C123 1.386 . S
C128 C127 1.367 . S
C129 C123 1.483 . S
C129 C130 1.382 . S
C129 C131 1.403 . S
C130 H103 0.950 . S
C130 C116 1.411 . S
C130 C129 1.382 . S
C131 C115 1.411 . S
C131 C129 1.403 . S
C131 C132 1.489 . S
C132 C131 1.489 . S
C132 C133 1.383 1_545 S
C132 C137 1.382 . S
C133 H104 0.950 . S
C133 C132 1.383 1_565 S
C133 C134 1.395 . S
C134 H105 0.950 . S
C134 C133 1.395 . S
C134 C135 1.288 1_565 S
C135 C134 1.288 1_545 S
C135 C136 1.392 . S
C136 H106 0.951 . S
C136 C135 1.392 . S
C136 C137 1.392 . S
C137 H107 0.949 . S
C137 C132 1.382 . S
C137 C136 1.392 . S
H138 C157 0.949 . S
H139 C158 0.950 . S
H140 C160 0.950 . S
H141 C161 0.950 . S
H142 C163 0.950 . S
H143 C166 0.950 . S
H144 C167 0.950 . S
H145 C169 0.951 . S
H146 C170 0.949 . S
H147 C172 0.949 . S
H148 C173 0.950 . S
H149 C175 0.950 . S
H150 C176 0.950 . S
H151 C178 0.950 . S
H152 C181 0.950 . S
H153 C182 0.950 . S
H154 C184 0.951 . S
H155 C185 0.949 . S
C156 C157 1.376 . S
C156 C161 1.386 . S
C156 C162 1.483 . S
C157 H138 0.949 . S
C157 C156 1.376 . S
C157 C158 1.397 . S
C158 H139 0.950 . S
C158 C157 1.397 . S
C158 C159 1.391 . S
C159 C158 1.391 . S
C159 C160 1.405 . S
C160 H140 0.950 . S
C160 C159 1.405 . S
C160 C161 1.367 . S
C161 H141 0.950 . S
C161 C156 1.386 . S
C161 C160 1.367 . S
C162 C156 1.483 . S
C162 C163 1.382 . S
C162 C164 1.403 . S
C163 H142 0.950 . S
C163 C162 1.382 . S
C163 C179 1.411 . S
C164 C162 1.403 . S
C164 C165 1.489 . S
C164 C178 1.411 . S
C165 C164 1.489 . S
C165 C166 1.383 . S
C165 C170 1.382 . S
C166 H143 0.950 . S
C166 C165 1.383 . S
C166 C167 1.395 . S
C167 H144 0.950 . S
C167 C166 1.395 . S
C167 C168 1.288 . S
C168 C167 1.288 . S
C168 C169 1.392 . S
C169 H145 0.951 . S
C169 C168 1.392 . S
C169 C170 1.392 . S
C170 H146 0.949 . S
C170 C165 1.382 . S
C170 C169 1.392 . S
C171 C172 1.376 . S
C171 C176 1.386 . S
C171 C177 1.483 . S
C172 H147 0.949 . S
C172 C171 1.376 . S
C172 C173 1.397 . S
C173 H148 0.950 . S
C173 C172 1.397 . S
C173 C174 1.391 . S
C174 C173 1.391 . S
C174 C175 1.405 . S
C175 H149 0.950 . S
C175 C174 1.405 . S
C175 C176 1.367 . S
C176 H150 0.950 . S
C176 C171 1.386 . S
C176 C175 1.367 . S
C177 C171 1.483 . S
C177 C178 1.382 . S
C177 C179 1.403 . S
C178 H151 0.950 . S
C178 C164 1.411 . S
C178 C177 1.382 . S
C179 C163 1.411 . S
C179 C177 1.403 . S
C179 C180 1.489 . S
C180 C179 1.489 . S
C180 C181 1.383 . S
C180 C185 1.382 . S
C181 H152 0.950 . S
C181 C180 1.383 . S
C181 C182 1.395 . S
C182 H153 0.950 . S
C182 C181 1.395 . S
C182 C183 1.288 . S
C183 C182 1.288 . S
C183 C184 1.392 . S
C184 H154 0.951 . S
C184 C183 1.392 . S
C184 C185 1.392 . S
C185 H155 0.949 . S
C185 C180 1.382 . S
C185 C184 1.392 . S
H186 C187 0.951 . S
C187 H186 0.951 . S
C187 C193 1.265 1_455 S
H188 C193 0.950 . S
H189 C197 0.949 . S
H190 C198 0.950 . S
H191 C199 0.951 . S
H192 C200 0.951 . S
C193 C187 1.265 1_655 S
C193 H188 0.950 . S
C193 C194 1.475 . S
C194 C193 1.475 . S
C194 C195 1.404 . S
C194 C211 1.390 1_655 S
C195 C194 1.404 . S
C195 C196 1.438 . S
C195 C200 1.429 . S
C196 C195 1.438 . S
C196 C197 1.428 . S
C196 C209 1.394 1_655 S
C197 H189 0.949 . S
C197 C196 1.428 . S
C197 C198 1.345 . S
C198 H190 0.950 . S
C198 C197 1.345 . S
C198 C199 1.424 . S
C199 H191 0.951 . S
C199 C198 1.424 . S
C199 C200 1.347 . S
C200 H192 0.951 . S
C200 C195 1.429 . S
C200 C199 1.347 . S
H201 C202 0.951 1_655 S
C202 H201 0.951 1_455 S
C202 C208 1.265 . S
H203 C208 0.950 . S
H204 C212 0.949 . S
H205 C213 0.950 . S
H206 C214 0.951 . S
H207 C215 0.951 . S
C208 C202 1.265 . S
C208 H203 0.950 . S
C208 C209 1.478 . S
C209 C196 1.394 1_455 S
C209 C208 1.478 . S
C209 C210 1.397 . S
C210 C209 1.397 . S
C210 C211 1.438 . S
C210 C215 1.429 . S
C211 C194 1.390 1_455 S
C211 C210 1.438 . S
C211 C212 1.428 . S
C212 H204 0.949 . S
C212 C211 1.428 . S
C212 C213 1.345 . S
C213 H205 0.950 . S
C213 C212 1.345 . S
C213 C214 1.424 . S
C214 H206 0.951 . S
C214 C213 1.424 . S
C214 C215 1.347 . S
C215 H207 0.951 . S
C215 C210 1.429 . S
C215 C214 1.347 . S
H216 C217 0.951 . S
C217 H216 0.951 . S
C217 C223 1.265 . S
H218 C223 0.950 . S
H219 C227 0.949 . S
H220 C228 0.950 . S
H221 C229 0.951 . S
H222 C230 0.951 . S
C223 C217 1.265 . S
C223 H218 0.950 . S
C223 C224 1.478 . S
C224 C223 1.478 . S
C224 C225 1.397 . S
C224 C241 1.394 1_545 S
C225 C224 1.397 . S
C225 C226 1.438 . S
C225 C230 1.429 . S
C226 C225 1.438 . S
C226 C227 1.428 . S
C226 C239 1.394 . S
C227 H219 0.949 . S
C227 C226 1.428 . S
C227 C228 1.345 . S
C228 H220 0.950 . S
C228 C227 1.345 . S
C228 C229 1.424 . S
C229 H221 0.951 . S
C229 C228 1.424 . S
C229 C230 1.347 . S
C230 H222 0.951 . S
C230 C225 1.429 . S
C230 C229 1.347 . S
H231 C232 0.951 . S
C232 H231 0.951 . S
C232 C238 1.265 . S
H233 C238 0.950 . S
H234 C242 0.949 . S
H235 C243 0.950 . S
H236 C244 0.951 . S
H237 C245 0.951 . S
C238 C232 1.265 . S
C238 H233 0.950 . S
C238 C239 1.478 . S
C239 C226 1.394 . S
C239 C238 1.478 . S
C239 C240 1.397 1_545 S
C240 C239 1.397 1_565 S
C240 C241 1.438 . S
C240 C245 1.429 . S
C241 C224 1.394 1_565 S
C241 C240 1.438 . S
C241 C242 1.428 . S
C242 H234 0.949 . S
C242 C241 1.428 . S
C242 C243 1.345 . S
C243 H235 0.950 . S
C243 C242 1.345 . S
C243 C244 1.424 . S
C244 H236 0.951 . S
C244 C243 1.424 . S
C244 C245 1.347 . S
C245 H237 0.951 . S
C245 C240 1.429 . S
C245 C244 1.347 . S
H246 C247 0.951 . S
C247 H246 0.951 . S
C247 C253 1.265 . S
H248 C253 0.950 . S
H249 C257 0.949 . S
H250 C258 0.950 . S
H251 C259 0.951 . S
H252 C260 0.951 . S
C253 C247 1.265 . S
C253 H248 0.950 . S
C253 C254 1.478 . S
C254 C253 1.478 . S
C254 C255 1.397 . S
C254 C271 1.394 . S
C255 C254 1.397 . S
C255 C256 1.438 . S
C255 C260 1.429 . S
C256 C255 1.438 . S
C256 C257 1.428 . S
C256 C269 1.394 . S
C257 H249 0.949 . S
C257 C256 1.428 . S
C257 C258 1.345 . S
C258 H250 0.950 . S
C258 C257 1.345 . S
C258 C259 1.424 . S
C259 H251 0.951 . S
C259 C258 1.424 . S
C259 C260 1.347 . S
C260 H252 0.951 . S
C260 C255 1.429 . S
C260 C259 1.347 . S
H261 C262 0.951 . S
C262 H261 0.951 . S
C262 C268 1.265 . S
H263 C268 0.950 . S
H264 C272 0.949 . S
H265 C273 0.950 . S
H266 C274 0.951 . S
H267 C275 0.951 . S
C268 C262 1.265 . S
C268 H263 0.950 . S
C268 C269 1.478 . S
C269 C256 1.394 . S
C269 C268 1.478 . S
C269 C270 1.397 . S
C270 C269 1.397 . S
C270 C271 1.438 . S
C270 C275 1.429 . S
C271 C254 1.394 . S
C271 C270 1.438 . S
C271 C272 1.428 . S
C272 H264 0.949 . S
C272 C271 1.428 . S
C272 C273 1.345 . S
C273 H265 0.950 . S
C273 C272 1.345 . S
C273 C274 1.424 . S
C274 H266 0.951 . S
C274 C273 1.424 . S
C274 C275 1.347 . S
C275 H267 0.951 . S
C275 C270 1.429 . S
C275 C274 1.347 . S
H276 C277 0.951 . S
C277 H276 0.951 . S
C277 C283 1.265 1_455 S
H278 C283 0.950 . S
H279 C287 0.949 . S
H280 C288 0.950 . S
H281 C289 0.951 . S
H282 C290 0.951 . S
C283 C277 1.265 1_655 S
C283 H278 0.950 . S
C283 C284 1.478 1_655 S
C284 C283 1.478 1_455 S
C284 C285 1.397 1_455 S
C284 C301 1.394 . S
C285 C284 1.397 1_655 S
C285 C286 1.438 . S
C285 C290 1.429 . S
C286 C285 1.438 . S
C286 C287 1.428 . S
C286 C299 1.394 1_655 S
C287 H279 0.949 . S
C287 C286 1.428 . S
C287 C288 1.345 . S
C288 H280 0.950 . S
C288 C287 1.345 . S
C288 C289 1.424 . S
C289 H281 0.951 . S
C289 C288 1.424 . S
C289 C290 1.347 . S
C290 H282 0.951 . S
C290 C285 1.429 . S
C290 C289 1.347 . S
H291 C292 0.951 1_655 S
C292 H291 0.951 1_455 S
C292 C298 1.265 . S
H293 C298 0.950 . S
H294 C302 0.949 . S
H295 C303 0.950 . S
H296 C304 0.951 . S
H297 C305 0.951 . S
C298 C292 1.265 . S
C298 H293 0.950 . S
C298 C299 1.478 . S
C299 C286 1.394 1_455 S
C299 C298 1.478 . S
C299 C300 1.397 . S
C300 C299 1.397 . S
C300 C301 1.438 . S
C300 C305 1.429 . S
C301 C284 1.394 . S
C301 C300 1.438 . S
C301 C302 1.428 . S
C302 H294 0.949 . S
C302 C301 1.428 . S
C302 C303 1.345 . S
C303 H295 0.950 . S
C303 C302 1.345 . S
C303 C304 1.424 . S
C304 H296 0.951 . S
C304 C303 1.424 . S
C304 C305 1.347 . S
C305 H297 0.951 . S
C305 C300 1.429 . S
C305 C304 1.347 . S
H306 C307 0.951 . S
C307 H306 0.951 . S
C307 C313 1.265 . S
H308 C313 0.950 . S
H309 C317 0.949 . S
H310 C318 0.950 . S
H311 C319 0.951 . S
H312 C320 0.951 . S
C313 C307 1.265 . S
C313 H308 0.950 . S
C313 C314 1.478 . S
C314 C313 1.478 . S
C314 C315 1.397 1_545 S
C314 C331 1.394 . S
C315 C314 1.397 1_565 S
C315 C316 1.438 . S
C315 C320 1.429 . S
C316 C315 1.438 . S
C316 C317 1.428 . S
C316 C329 1.394 1_565 S
C317 H309 0.949 . S
C317 C316 1.428 . S
C317 C318 1.345 . S
C318 H310 0.950 . S
C318 C317 1.345 . S
C318 C319 1.424 . S
C319 H311 0.951 . S
C319 C318 1.424 . S
C319 C320 1.347 . S
C320 H312 0.951 . S
C320 C315 1.429 . S
C320 C319 1.347 . S
H321 C322 0.951 . S
C322 H321 0.951 . S
C322 C328 1.265 . S
H323 C328 0.950 . S
H324 C332 0.949 . S
H325 C333 0.950 . S
H326 C334 0.951 . S
H327 C335 0.951 . S
C328 C322 1.265 . S
C328 H323 0.950 . S
C328 C329 1.478 . S
C329 C316 1.394 1_545 S
C329 C328 1.478 . S
C329 C330 1.397 . S
C330 C329 1.397 . S
C330 C331 1.438 . S
C330 C335 1.429 . S
C331 C314 1.394 . S
C331 C330 1.438 . S
C331 C332 1.428 . S
C332 H324 0.949 . S
C332 C331 1.428 . S
C332 C333 1.345 . S
C333 H325 0.950 . S
C333 C332 1.345 . S
C333 C334 1.424 . S
C334 H326 0.951 . S
C334 C333 1.424 . S
C334 C335 1.347 . S
C335 H327 0.951 . S
C335 C330 1.429 . S
C335 C334 1.347 . S
H336 C337 0.951 . S
C337 H336 0.951 . S
C337 C343 1.265 . S
H338 C343 0.950 . S
H339 C347 0.949 . S
H340 C348 0.950 . S
H341 C349 0.951 . S
H342 C350 0.951 . S
C343 C337 1.265 . S
C343 H338 0.950 . S
C343 C344 1.478 . S
C344 C343 1.478 . S
C344 C345 1.397 . S
C344 C361 1.394 . S
C345 C344 1.397 . S
C345 C346 1.438 . S
C345 C350 1.429 . S
C346 C345 1.438 . S
C346 C347 1.428 . S
C346 C359 1.394 . S
C347 H339 0.949 . S
C347 C346 1.428 . S
C347 C348 1.345 . S
C348 H340 0.950 . S
C348 C347 1.345 . S
C348 C349 1.424 . S
C349 H341 0.951 . S
C349 C348 1.424 . S
C349 C350 1.347 . S
C350 H342 0.951 . S
C350 C345 1.429 . S
C350 C349 1.347 . S
H351 C352 0.951 . S
C352 H351 0.951 . S
C352 C358 1.265 . S
H353 C358 0.950 . S
H354 C362 0.949 . S
H355 C363 0.950 . S
H356 C364 0.951 . S
H357 C365 0.951 . S
C358 C352 1.265 . S
C358 H353 0.950 . S
C358 C359 1.478 . S
C359 C346 1.394 . S
C359 C358 1.478 . S
C359 C360 1.397 . S
C360 C359 1.397 . S
C360 C361 1.438 . S
C360 C365 1.429 . S
C361 C344 1.394 . S
C361 C360 1.438 . S
C361 C362 1.428 . S
C362 H354 0.949 . S
C362 C361 1.428 . S
C362 C363 1.345 . S
C363 H355 0.950 . S
C363 C362 1.345 . S
C363 C364 1.424 . S
C364 H356 0.951 . S
C364 C363 1.424 . S
C364 C365 1.347 . S
C365 H357 0.951 . S
C365 C360 1.429 . S
C365 C364 1.347 . S
H366 C367 0.951 . S
C367 H366 0.951 . S
C367 C373 1.265 . S
H368 C373 0.950 . S
H369 C377 0.949 . S
H370 C378 0.950 . S
H371 C379 0.951 . S
H372 C380 0.951 . S
C373 C367 1.265 . S
C373 H368 0.950 . S
C373 C374 1.478 . S
C374 C373 1.478 . S
C374 C375 1.397 1_545 S
C374 C391 1.394 . S
C375 C374 1.397 1_565 S
C375 C376 1.438 . S
C375 C380 1.429 . S
C376 C375 1.438 . S
C376 C377 1.428 . S
C376 C389 1.394 1_565 S
C377 H369 0.949 . S
C377 C376 1.428 . S
C377 C378 1.345 . S
C378 H370 0.950 . S
C378 C377 1.345 . S
C378 C379 1.424 . S
C379 H371 0.951 . S
C379 C378 1.424 . S
C379 C380 1.347 . S
C380 H372 0.951 . S
C380 C375 1.429 . S
C380 C379 1.347 . S
H381 C382 0.951 . S
C382 H381 0.951 . S
C382 C388 1.265 . S
H383 C388 0.950 . S
H384 C392 0.949 . S
H385 C393 0.950 . S
H386 C394 0.951 . S
H387 C395 0.951 . S
C388 C382 1.265 . S
C388 H383 0.950 . S
C388 C389 1.478 . S
C389 C376 1.394 1_545 S
C389 C388 1.478 . S
C389 C390 1.397 . S
C390 C389 1.397 . S
C390 C391 1.438 . S
C390 C395 1.429 . S
C391 C374 1.394 . S
C391 C390 1.438 . S
C391 C392 1.428 . S
C392 H384 0.949 . S
C392 C391 1.428 . S
C392 C393 1.345 . S
C393 H385 0.950 . S
C393 C392 1.345 . S
C393 C394 1.424 . S
C394 H386 0.951 . S
C394 C393 1.424 . S
C394 C395 1.347 . S
C395 H387 0.951 . S
C395 C390 1.429 . S
C395 C394 1.347 . S
H396 C397 0.951 1_556 S
C397 H396 0.951 1_554 S
C397 C403 1.265 . S
H398 C403 0.950 . S
H399 C407 0.949 . S
H400 C408 0.950 . S
H401 C409 0.951 . S
H402 C410 0.951 1_554 S
C403 C397 1.265 . S
C403 H398 0.950 . S
C403 C404 1.478 1_554 S
C404 C403 1.478 1_556 S
C404 C405 1.397 . S
C404 C421 1.394 . S
C405 C404 1.397 . S
C405 C406 1.438 . S
C405 C410 1.429 . S
C406 C405 1.438 . S
C406 C407 1.428 . S
C406 C419 1.394 . S
C407 H399 0.949 . S
C407 C406 1.428 . S
C407 C408 1.345 . S
C408 H400 0.950 . S
C408 C407 1.345 . S
C408 C409 1.424 . S
C409 H401 0.951 . S
C409 C408 1.424 . S
C409 C410 1.347 . S
C410 H402 0.951 1_556 S
C410 C405 1.429 . S
C410 C409 1.347 . S
H411 C412 0.951 . S
C412 H411 0.951 . S
C412 C418 1.265 . S
H413 C418 0.950 . S
H414 C422 0.949 1_554 S
H415 C423 0.950 . S
H416 C424 0.951 . S
H417 C425 0.951 . S
C418 C412 1.265 . S
C418 H413 0.950 . S
C418 C419 1.478 . S
C419 C406 1.394 . S
C419 C418 1.478 . S
C419 C420 1.397 . S
C420 C419 1.397 . S
C420 C421 1.438 . S
C420 C425 1.429 . S
C421 C404 1.394 . S
C421 C420 1.438 . S
C421 C422 1.428 . S
C422 H414 0.949 1_556 S
C422 C421 1.428 . S
C422 C423 1.345 . S
C423 H415 0.950 . S
C423 C422 1.345 . S
C423 C424 1.424 . S
C424 H416 0.951 . S
C424 C423 1.424 . S
C424 C425 1.347 . S
C425 H417 0.951 . S
C425 C420 1.429 . S
C425 C424 1.347 . S
H426 C427 0.951 1_655 S
C427 H426 0.951 1_455 S
C427 C433 1.265 . S
H428 C433 0.950 . S
H429 C437 0.949 . S
H430 C438 0.950 . S
H431 C439 0.951 . S
H432 C440 0.951 . S
C433 C427 1.265 . S
C433 H428 0.950 . S
C433 C434 1.478 . S
C434 C433 1.478 . S
C434 C435 1.397 . S
C434 C451 1.394 . S
C435 C434 1.397 . S
C435 C436 1.438 . S
C435 C440 1.429 . S
C436 C435 1.438 . S
C436 C437 1.428 1_455 S
C436 C449 1.394 . S
C437 H429 0.949 . S
C437 C436 1.428 1_655 S
C437 C438 1.345 . S
C438 H430 0.950 . S
C438 C437 1.345 . S
C438 C439 1.424 1_655 S
C439 H431 0.951 . S
C439 C438 1.424 1_455 S
C439 C440 1.347 . S
C440 H432 0.951 . S
C440 C435 1.429 . S
C440 C439 1.347 . S
H441 C442 0.951 . S
C442 H441 0.951 . S
C442 C448 1.265 1_455 S
H443 C448 0.950 . S
H444 C452 0.949 . S
H445 C453 0.950 . S
H446 C454 0.951 . S
H447 C455 0.951 . S
C448 C442 1.265 1_655 S
C448 H443 0.950 . S
C448 C449 1.478 1_655 S
C449 C436 1.394 . S
C449 C448 1.478 1_455 S
C449 C450 1.397 . S
C450 C449 1.397 . S
C450 C451 1.438 . S
C450 C455 1.429 . S
C451 C434 1.394 . S
C451 C450 1.438 . S
C451 C452 1.428 . S
C452 H444 0.949 . S
C452 C451 1.428 . S
C452 C453 1.345 . S
C453 H445 0.950 . S
C453 C452 1.345 . S
C453 C454 1.424 . S
C454 H446 0.951 . S
C454 C453 1.424 . S
C454 C455 1.347 . S
C455 H447 0.951 . S
C455 C450 1.429 . S
C455 C454 1.347 . S
H456 C457 0.951 . S
C457 H456 0.951 . S
C457 C463 1.265 . S
H458 C463 0.950 . S
H459 C467 0.949 . S
H460 C468 0.950 . S
H461 C469 0.951 . S
H462 C470 0.951 . S
C463 C457 1.265 . S
C463 H458 0.950 . S
C463 C464 1.478 . S
C464 C463 1.478 . S
C464 C465 1.397 . S
C464 C481 1.394 1_545 S
C465 C464 1.397 . S
C465 C466 1.438 . S
C465 C470 1.429 . S
C466 C465 1.438 . S
C466 C467 1.428 . S
C466 C479 1.394 . S
C467 H459 0.949 . S
C467 C466 1.428 . S
C467 C468 1.345 . S
C468 H460 0.950 . S
C468 C467 1.345 . S
C468 C469 1.424 . S
C469 H461 0.951 . S
C469 C468 1.424 . S
C469 C470 1.347 . S
C470 H462 0.951 . S
C470 C465 1.429 . S
C470 C469 1.347 . S
H471 C472 0.951 . S
C472 H471 0.951 . S
C472 C478 1.265 . S
H473 C478 0.950 . S
H474 C482 0.949 . S
H475 C483 0.950 . S
H476 C484 0.951 . S
H477 C485 0.951 . S
C478 C472 1.265 . S
C478 H473 0.950 . S
C478 C479 1.478 . S
C479 C466 1.394 . S
C479 C478 1.478 . S
C479 C480 1.397 1_545 S
C480 C479 1.397 1_565 S
C480 C481 1.438 . S
C480 C485 1.429 . S
C481 C464 1.394 1_565 S
C481 C480 1.438 . S
C481 C482 1.428 . S
C482 H474 0.949 . S
C482 C481 1.428 . S
C482 C483 1.345 . S
C483 H475 0.950 . S
C483 C482 1.345 . S
C483 C484 1.424 . S
C484 H476 0.951 . S
C484 C483 1.424 . S
C484 C485 1.347 . S
C485 H477 0.951 . S
C485 C480 1.429 . S
C485 C484 1.347 . S
H486 C487 0.951 . S
C487 H486 0.951 . S
C487 C493 1.265 . S
H488 C493 0.950 . S
H489 C497 0.949 . S
H490 C498 0.950 . S
H491 C499 0.951 . S
H492 C500 0.951 . S
C493 C487 1.265 . S
C493 H488 0.950 . S
C493 C494 1.478 1_554 S
C494 C493 1.478 1_556 S
C494 C495 1.397 . S
C494 C511 1.394 . S
C495 C494 1.397 . S
C495 C496 1.438 . S
C495 C500 1.429 . S
C496 C495 1.438 . S
C496 C497 1.428 . S
C496 C509 1.394 . S
C497 H489 0.949 . S
C497 C496 1.428 . S
C497 C498 1.345 . S
C498 H490 0.950 . S
C498 C497 1.345 . S
C498 C499 1.424 . S
C499 H491 0.951 . S
C499 C498 1.424 . S
C499 C500 1.347 . S
C500 H492 0.951 . S
C500 C495 1.429 . S
C500 C499 1.347 . S
H501 C502 0.951 . S
C502 H501 0.951 . S
C502 C508 1.265 . S
H503 C508 0.950 . S
H504 C512 0.949 . S
H505 C513 0.950 . S
H506 C514 0.951 . S
H507 C515 0.951 . S
C508 C502 1.265 . S
C508 H503 0.950 . S
C508 C509 1.478 . S
C509 C496 1.394 . S
C509 C508 1.478 . S
C509 C510 1.397 . S
C510 C509 1.397 . S
C510 C511 1.438 . S
C510 C515 1.429 . S
C511 C494 1.394 . S
C511 C510 1.438 . S
C511 C512 1.428 1_556 S
C512 H504 0.949 . S
C512 C511 1.428 1_554 S
C512 C513 1.345 . S
C513 H505 0.950 . S
C513 C512 1.345 . S
C513 C514 1.424 . S
C514 H506 0.951 . S
C514 C513 1.424 . S
C514 C515 1.347 1_554 S
C515 H507 0.951 . S
C515 C510 1.429 . S
C515 C514 1.347 1_556 S
H516 C517 0.951 . S
C517 H516 0.951 . S
C517 C523 1.265 . S
H518 C523 0.950 . S
H519 C527 0.949 . S
H520 C528 0.950 . S
H521 C529 0.951 . S
H522 C530 0.951 . S
C523 C517 1.265 . S
C523 H518 0.950 . S
C523 C524 1.478 . S
C524 C523 1.478 . S
C524 C525 1.397 1_455 S
C524 C541 1.394 . S
C525 C524 1.397 1_655 S
C525 C526 1.438 . S
C525 C530 1.429 . S
C526 C525 1.438 . S
C526 C527 1.428 . S
C526 C539 1.394 1_655 S
C527 H519 0.949 . S
C527 C526 1.428 . S
C527 C528 1.345 . S
C528 H520 0.950 . S
C528 C527 1.345 . S
C528 C529 1.424 . S
C529 H521 0.951 . S
C529 C528 1.424 . S
C529 C530 1.347 . S
C530 H522 0.951 . S
C530 C525 1.429 . S
C530 C529 1.347 . S
H531 C532 0.951 . S
C532 H531 0.951 . S
C532 C538 1.265 . S
H533 C538 0.950 . S
H534 C542 0.949 . S
H535 C543 0.950 . S
H536 C544 0.951 . S
H537 C545 0.951 . S
C538 C532 1.265 . S
C538 H533 0.950 . S
C538 C539 1.478 . S
C539 C526 1.394 1_455 S
C539 C538 1.478 . S
C539 C540 1.397 . S
C540 C539 1.397 . S
C540 C541 1.438 . S
C540 C545 1.429 . S
C541 C524 1.394 . S
C541 C540 1.438 . S
C541 C542 1.428 . S
C542 H534 0.949 . S
C542 C541 1.428 . S
C542 C543 1.345 . S
C543 H535 0.950 . S
C543 C542 1.345 . S
C543 C544 1.424 . S
C544 H536 0.951 . S
C544 C543 1.424 . S
C544 C545 1.347 . S
C545 H537 0.951 . S
C545 C540 1.429 . S
C545 C544 1.347 . S
C202 C63 1.507 . S
C187 C3 1.487 . S
C217 C21 1.531 . S
C232 C111 1.535 . S
C247 C37 1.504 . S
C262 C183 1.505 . S
C277 C8 1.507 . S
C292 C87 1.517 . S
C322 C135 1.521 . S
C307 C23 1.501 . S
C337 C35 1.483 . S
C352 C159 1.509 . S
C382 C120 1.495 . S
C367 C31 1.491 . S
C397 C7 1.493 . S
C412 C174 1.520 . S
C442 C78 1.506 . S
C427 C17 1.507 . S
C472 C126 1.483 . S
C457 C36 1.486 . S
C502 C168 1.520 . S
C487 C9 1.466 . S
C517 C22 1.509 . S
C532 C72 1.510 . S
