# Generated by pormake.
# Topology zzz, (3,6)-cn, num edge types: 1
# Building blocks:
#     Node 0, Type 0, BuildingBlock: BETDIP_clean_linker_0, # of connection points: 3
#     Node 1, Type 0, BuildingBlock: BETDIP_clean_linker_0, # of connection points: 3
#     Node 2, Type 0, BuildingBlock: BETDIP_clean_linker_0, # of connection points: 3
#     Node 3, Type 0, BuildingBlock: BETDIP_clean_linker_0, # of connection points: 3
#     Node 4, Type 0, BuildingBlock: BETDIP_clean_linker_0, # of connection points: 3
#     Node 5, Type 0, BuildingBlock: BETDIP_clean_linker_0, # of connection points: 3
#     Node 6, Type 0, BuildingBlock: BETDIP_clean_linker_0, # of connection points: 3
#     Node 7, Type 0, BuildingBlock: BETDIP_clean_linker_0, # of connection points: 3
#     Node 8, Type 1, BuildingBlock: BETGAK_clean_sbu_0, # of connection points: 6
#     Node 9, Type 1, BuildingBlock: BETGAK_clean_sbu_0, # of connection points: 6
#     Node 10, Type 1, BuildingBlock: BETGAK_clean_sbu_0, # of connection points: 6
#     Node 11, Type 1, BuildingBlock: BETGAK_clean_sbu_0, # of connection points: 6
#     Edge 12, Type (0, 1), BuildingBlock: ZUJKAS_clean_linker_0, # of connection points: 2
#     Edge 13, Type (0, 1), BuildingBlock: ZUJKAS_clean_linker_0, # of connection points: 2
#     Edge 14, Type (0, 1), BuildingBlock: ZUJKAS_clean_linker_0, # of connection points: 2
#     Edge 15, Type (0, 1), BuildingBlock: ZUJKAS_clean_linker_0, # of connection points: 2
#     Edge 16, Type (0, 1), BuildingBlock: ZUJKAS_clean_linker_0, # of connection points: 2
#     Edge 17, Type (0, 1), BuildingBlock: ZUJKAS_clean_linker_0, # of connection points: 2
#     Edge 18, Type (0, 1), BuildingBlock: ZUJKAS_clean_linker_0, # of connection points: 2
#     Edge 19, Type (0, 1), BuildingBlock: ZUJKAS_clean_linker_0, # of connection points: 2
#     Edge 20, Type (0, 1), BuildingBlock: ZUJKAS_clean_linker_0, # of connection points: 2
#     Edge 21, Type (0, 1), BuildingBlock: ZUJKAS_clean_linker_0, # of connection points: 2
#     Edge 22, Type (0, 1), BuildingBlock: ZUJKAS_clean_linker_0, # of connection points: 2
#     Edge 23, Type (0, 1), BuildingBlock: ZUJKAS_clean_linker_0, # of connection points: 2
#     Edge 24, Type (0, 1), BuildingBlock: ZUJKAS_clean_linker_0, # of connection points: 2
#     Edge 25, Type (0, 1), BuildingBlock: ZUJKAS_clean_linker_0, # of connection points: 2
#     Edge 26, Type (0, 1), BuildingBlock: ZUJKAS_clean_linker_0, # of connection points: 2
#     Edge 27, Type (0, 1), BuildingBlock: ZUJKAS_clean_linker_0, # of connection points: 2
#     Edge 28, Type (0, 1), BuildingBlock: ZUJKAS_clean_linker_0, # of connection points: 2
#     Edge 29, Type (0, 1), BuildingBlock: ZUJKAS_clean_linker_0, # of connection points: 2
#     Edge 30, Type (0, 1), BuildingBlock: ZUJKAS_clean_linker_0, # of connection points: 2
#     Edge 31, Type (0, 1), BuildingBlock: ZUJKAS_clean_linker_0, # of connection points: 2
#     Edge 32, Type (0, 1), BuildingBlock: ZUJKAS_clean_linker_0, # of connection points: 2
#     Edge 33, Type (0, 1), BuildingBlock: ZUJKAS_clean_linker_0, # of connection points: 2
#     Edge 34, Type (0, 1), BuildingBlock: ZUJKAS_clean_linker_0, # of connection points: 2
#     Edge 35, Type (0, 1), BuildingBlock: ZUJKAS_clean_linker_0, # of connection points: 2
# Relax obj value: 0.232
# Max RMSD: 0.177
# Mean RMSD: 0.158
data_MOF--net-zzz--node1-BETGAK_clean_sbu_0--node2-BETDIP_clean_linker_0--edge1-ZUJKAS_clean_linker_0
_symmetry_space_group_name_H-M    P1
_symmetry_Int_Tables_number       1
_symmetry_cell_setting            triclinic
loop_
_symmetry_equiv_pos_as_xyz
'x, y, z'
_cell_length_a     68.844306
_cell_length_b     68.872689
_cell_length_c     17.194913
_cell_angle_alpha  90.036608
_cell_angle_beta   90.06405
_cell_angle_gamma 90.030803
loop_
_atom_site_label
_atom_site_type_symbol
_atom_site_fract_x
_atom_site_fract_y
_atom_site_fract_z
_atom_type_partial_charge
H0 H 0.7574 0.52069 0.3834 0.0
H1 H 0.74682 0.51211 0.13838 0.0
H2 H 0.80465 0.5066 0.22938 0.0
H3 H 0.72727 0.54612 0.19833 0.0
C4 C 0.71935 0.53362 0.22039 0.0
C5 C 0.76275 0.51749 0.32561 0.0
C6 C 0.78282 0.51391 0.31382 0.0
C7 C 0.74969 0.51712 0.26164 0.0
C8 C 0.75678 0.51276 0.1872 0.0
C9 C 0.7765 0.50899 0.17534 0.0
C10 C 0.78937 0.50969 0.23856 0.0
N11 N 0.72938 0.52059 0.27106 0.0
H12 H 1.00089 0.75935 0.37708 0.0
H13 H 0.99958 0.748 0.13036 0.0
H14 H 1.00839 0.8061 0.21392 0.0
H15 H 0.9699 0.72682 0.21061 0.0
C16 C 0.98359 0.71982 0.22515 0.0
C17 C 1.00161 0.76456 0.31775 0.0
C18 C 1.00449 0.78462 0.30295 0.0
C19 C 0.99971 0.75126 0.25498 0.0
C20 C 1.00078 0.75816 0.1783 0.0
C21 C 1.00389 0.77785 0.16302 0.0
C22 C 1.00569 0.79086 0.22551 0.0
N23 N 0.99764 0.73086 0.26757 0.0
H24 H 0.76315 0.99815 0.34622 0.0
H25 H 0.77866 0.0347 0.1526 0.0
H26 H 0.72082 0.03663 0.24632 0.0
H27 H 0.78837 0.99601 0.12603 0.0
C28 C 0.79901 1.00003 0.17005 0.0
C29 C 0.75938 1.00939 0.30488 0.0
C30 C 0.74033 0.01714 0.30387 0.0
C31 C 0.77316 0.01547 0.24869 0.0
C32 C 0.76799 0.02986 0.19463 0.0
C33 C 0.74928 0.03785 0.19388 0.0
C34 C 0.73562 0.03127 0.24848 0.0
N35 N 0.79194 1.00674 0.2434 0.0
H36 H 0.52057 0.76435 0.37609 0.0
H37 H 0.51879 0.77634 0.12976 0.0
H38 H 0.51173 0.718 0.21148 0.0
H39 H 0.54955 0.79679 0.20167 0.0
C40 C 0.53644 0.80405 0.22155 0.0
C41 C 0.51924 0.75928 0.3167 0.0
C42 C 0.51613 0.73925 0.30146 0.0
C43 C 0.5205 0.77274 0.25424 0.0
C44 C 0.51837 0.76608 0.17749 0.0
C45 C 0.51521 0.74643 0.16195 0.0
C46 C 0.51433 0.73323 0.22385 0.0
N47 N 0.52306 0.79307 0.26738 0.0
H48 H 0.26715 0.51069 0.02263 0.0
H49 H 0.28145 0.49458 0.25789 0.0
H50 H 0.22261 0.48963 0.17624 0.0
H51 H 0.29628 0.53296 0.20991 0.0
C52 C 0.30535 0.52173 0.18424 0.0
C53 C 0.26277 0.505 0.07864 0.0
C54 C 0.24312 0.49977 0.0918 0.0
C55 C 0.27663 0.50323 0.13939 0.0
C56 C 0.27076 0.49608 0.21195 0.0
C57 C 0.25142 0.49095 0.22581 0.0
C58 C 0.2378 0.49279 0.16531 0.0
N59 N 0.29644 0.50886 0.12961 0.0
H60 H 0.02776 0.26328 0.0867 0.0
H61 H 0.98163 0.27922 0.24411 0.0
H62 H 0.9835 0.22191 0.14519 0.0
H63 H 0.9876 0.30924 0.15693 0.0
C64 C 1.00195 0.30956 0.18346 0.0
C65 C 0.01448 0.2597 0.11716 0.0
C66 C 1.00605 0.24107 0.10804 0.0
C67 C 1.00541 0.27377 0.16533 0.0
C68 C 0.98831 0.26874 0.20552 0.0
C69 C 0.98025 0.2501 0.19888 0.0
C70 C 0.98918 0.23657 0.14938 0.0
N71 N 0.0138 0.29259 0.17675 0.0
H72 H 0.25921 0.01841 0.05485 0.0
H73 H 0.2472 0.99656 0.28509 0.0
H74 H 0.30599 0.99996 0.20392 0.0
H75 H 0.22155 0.9811 0.18701 0.0
C76 C 0.21673 0.99613 0.18499 0.0
C77 C 0.26426 0.01257 0.10972 0.0
C78 C 0.28441 0.00981 0.12261 0.0
C79 C 0.25067 1.00752 0.16832 0.0
C80 C 0.25745 1.0 0.2393 0.0
C81 C 0.27731 0.99754 0.25287 0.0
C82 C 0.2906 1.00236 0.19426 0.0
N83 N 0.23026 0.01031 0.15776 0.0
H84 H 0.50622 0.25713 0.03792 0.0
H85 H 0.51115 0.24579 0.28404 0.0
H86 H 0.51256 0.30435 0.20037 0.0
H87 H 0.53626 0.2237 0.20519 0.0
C88 C 0.52273 0.21672 0.18803 0.0
C89 C 0.50737 0.26239 0.0971 0.0
C90 C 0.50907 0.28264 0.11166 0.0
C91 C 0.50853 0.24895 0.15972 0.0
C92 C 0.51045 0.25597 0.23606 0.0
C93 C 0.51178 0.27584 0.25113 0.0
C94 C 0.51095 0.28894 0.18891 0.0
N95 N 0.50884 0.22839 0.14741 0.0
La96 La 0.02194 1.0047 0.78037 0.0
La97 La 1.00305 0.02027 0.6319 0.0
C98 C 0.03357 0.99198 0.90793 0.0
C99 C 0.04303 0.97305 0.91999 0.0
C100 C 0.05771 0.96685 0.86873 0.0
C101 C 0.06214 0.94717 0.86166 0.0
C102 C 0.0521 0.93339 0.90613 0.0
C103 C 0.03878 0.93979 0.96267 0.0
C104 C 0.03428 0.95947 0.96949 0.0
C105 C 0.04457 1.00505 0.65526 0.0
C106 C 1.00734 0.97465 0.65612 0.0
C107 C 0.99682 0.03638 0.50394 0.0
C108 C 0.98635 0.05481 0.49041 0.0
C109 C 0.96855 0.05488 0.45035 0.0
C110 C 0.95708 0.07167 0.44847 0.0
C111 C 0.96319 0.08859 0.48724 0.0
C112 C 0.98132 0.08866 0.52475 0.0
C113 C 0.99277 0.07202 0.52623 0.0
C114 C 0.97584 0.0154 0.7417 0.0
C115 C 0.01377 0.05044 0.76522 0.0
O116 O 0.04338 1.0048 0.86736 0.0
O117 O 0.01541 0.99068 0.88523 0.0
O118 O 0.04492 0.992 0.70908 0.0
O119 O 0.03231 0.01784 0.67429 0.0
O120 O 1.00987 0.978 0.73138 0.0
O121 O 1.00683 0.98914 0.60497 0.0
O122 O 0.98615 0.02206 0.53016 0.0
O123 O 0.01341 0.03773 0.54115 0.0
O124 O 0.97267 0.02208 0.67264 0.0
O125 O 0.99377 0.01203 0.74513 0.0
O126 O 1.00726 0.04779 0.69338 0.0
O127 O 0.01954 0.03573 0.80962 0.0
H128 H 0.06481 0.97696 0.82987 0.0
H129 H 0.07272 0.94266 0.81869 0.0
H130 H 0.03073 0.92948 0.9976 0.0
H131 H 0.0228 0.96388 0.00878 0.0
H132 H 0.96322 0.04177 0.42272 0.0
H133 H 0.94322 0.07127 0.41859 0.0
H134 H 0.98669 0.10163 0.55323 0.0
H135 H 1.00641 0.07257 0.55755 0.0
La136 La 0.51769 0.02219 0.77265 0.0
La137 La 0.50618 0.99931 0.64344 0.0
C138 C 0.53586 0.03701 0.88515 0.0
C139 C 0.55537 0.04587 0.8886 0.0
C140 C 0.55736 0.06589 0.90239 0.0
C141 C 0.57548 0.07492 0.89483 0.0
C142 C 0.5918 0.06406 0.87255 0.0
C143 C 0.58993 0.04394 0.86182 0.0
C144 C 0.57195 0.03491 0.87019 0.0
C145 C 0.50539 0.0436 0.65374 0.0
C146 C 0.54982 1.00939 0.64647 0.0
C147 C 0.4877 0.98504 0.53071 0.0
C148 C 0.46776 0.97726 0.52766 0.0
C149 C 0.46453 0.95797 0.50437 0.0
C150 C 0.44612 0.94957 0.51241 0.0
C151 C 0.43085 0.96032 0.54503 0.0
C152 C 0.43389 0.97978 0.56546 0.0
C153 C 0.45213 0.98822 0.55653 0.0
C154 C 0.5187 0.97791 0.76178 0.0
C155 C 0.47418 0.01178 0.77088 0.0
O156 O 0.52321 0.04647 0.84324 0.0
O157 O 0.53503 0.0183 0.87202 0.0
O158 O 0.50152 0.04681 0.72609 0.0
O159 O 0.51609 0.02872 0.64962 0.0
O160 O 0.54608 0.01518 0.71845 0.0
O161 O 0.53541 1.00448 0.5998 0.0
O162 O 0.49975 0.97508 0.57365 0.0
O163 O 0.48945 1.00373 0.54278 0.0
O164 O 0.52265 0.97485 0.68929 0.0
O165 O 0.50784 0.99268 0.76637 0.0
O166 O 0.47783 1.00584 0.69908 0.0
O167 O 0.48858 0.01698 0.81695 0.0
H168 H 0.5448 0.07464 0.91685 0.0
H169 H 0.57665 0.09042 0.90449 0.0
H170 H 0.60243 0.03516 0.84679 0.0
H171 H 0.57099 0.01943 0.85988 0.0
H172 H 0.47638 0.94924 0.48209 0.0
H173 H 0.44391 0.93461 0.49507 0.0
H174 H 0.42213 0.98846 0.58885 0.0
H175 H 0.45405 1.00316 0.57461 0.0
La176 La 0.50148 0.51782 0.77397 0.0
La177 La 0.52241 0.50447 0.64187 0.0
C178 C 0.48642 0.52891 0.89887 0.0
C179 C 0.47667 0.54767 0.91244 0.0
C180 C 0.46165 0.55394 0.86275 0.0
C181 C 0.45611 0.57343 0.86122 0.0
C182 C 0.4655 0.58703 0.9091 0.0
C183 C 0.47944 0.58044 0.96296 0.0
C184 C 0.48491 0.56093 0.96476 0.0
C185 C 0.4798 0.5171 0.64589 0.0
C186 C 0.51547 0.54988 0.66057 0.0
C187 C 0.53789 0.4936 0.51744 0.0
C188 C 0.54812 0.47509 0.50419 0.0
C189 C 0.56301 0.46908 0.55493 0.0
C190 C 0.56898 0.44972 0.5564 0.0
C191 C 0.56014 0.436 0.50741 0.0
C192 C 0.54633 0.44238 0.45256 0.0
C193 C 0.54044 0.46175 0.45084 0.0
C194 C 0.54395 0.50575 0.77061 0.0
C195 C 0.50829 0.47236 0.7547 0.0
O196 O 0.47778 0.51696 0.85081 0.0
O197 O 0.50505 0.53021 0.88472 0.0
O198 O 0.47941 0.53043 0.69852 0.0
O199 O 0.49191 0.50425 0.66642 0.0
O200 O 0.51108 0.54626 0.73376 0.0
O201 O 0.51815 0.53535 0.61129 0.0
O202 O 0.54618 0.50578 0.56552 0.0
O203 O 0.51929 0.49183 0.53136 0.0
O204 O 0.54443 0.4921 0.71926 0.0
O205 O 0.53185 0.51837 0.74843 0.0
O206 O 0.51282 0.47601 0.68168 0.0
O207 O 0.50552 0.48687 0.80403 0.0
H208 H 0.45495 0.54409 0.82158 0.0
H209 H 0.44506 0.57796 0.82023 0.0
H210 H 0.48713 0.59052 1.00025 0.0
H211 H 0.4966 0.5565 0.00309 0.0
H212 H 0.56927 0.479 0.59692 0.0
H213 H 0.57991 0.44535 0.59821 0.0
H214 H 0.53906 0.43219 0.41439 0.0
H215 H 0.52885 0.466 0.41169 0.0
La216 La 1.00442 0.50308 0.79214 0.0
La217 La 0.01812 0.52144 0.63973 0.0
C218 C 0.99237 0.49174 0.92083 0.0
C219 C 0.9735 0.482 0.93182 0.0
C220 C 0.96798 0.46686 0.88125 0.0
C221 C 0.9484 0.46267 0.86881 0.0
C222 C 0.93401 0.4734 0.90726 0.0
C223 C 0.93962 0.48688 0.96467 0.0
C224 C 0.95922 0.49117 0.97674 0.0
C225 C 1.00676 0.47932 0.67126 0.0
C226 C 0.97274 0.51591 0.66865 0.0
C227 C 0.0329 0.52387 0.50715 0.0
C228 C 0.05259 0.51751 0.48454 0.0
C229 C 0.06748 0.53139 0.48019 0.0
C230 C 0.08682 0.52579 0.48843 0.0
C231 C 0.0916 0.50619 0.50062 0.0
C232 C 0.07693 0.49208 0.49484 0.0
C233 C 0.05757 0.49771 0.48606 0.0
C234 C 0.01012 0.54944 0.74319 0.0
C235 C 0.0496 0.512 0.7701 0.0
O236 O 1.00544 0.48211 0.88082 0.0
O237 O 0.99086 0.50984 0.89779 0.0
O238 O 0.99337 0.4788 0.72366 0.0
O239 O 0.01865 0.49269 0.68847 0.0
O240 O 0.97651 0.51219 0.74287 0.0
O241 O 0.98683 0.51847 0.61685 0.0
O242 O 0.03275 0.53822 0.55711 0.0
O243 O 0.02044 0.51023 0.5262 0.0
O244 O 0.01568 0.5524 0.67228 0.0
O245 O 1.00877 0.53131 0.75076 0.0
O246 O 0.0462 0.51612 0.696 0.0
O247 O 0.03531 0.50787 0.81926 0.0
H248 H 0.97863 0.45938 0.84598 0.0
H249 H 0.94457 0.45209 0.82472 0.0
H250 H 0.92882 0.49494 0.99707 0.0
H251 H 0.96308 0.50287 0.01599 0.0
H252 H 0.0641 0.54674 0.47739 0.0
H253 H 0.09794 0.53692 0.48947 0.0
H254 H 0.0802 0.47682 0.5025 0.0
H255 H 0.04644 0.48665 0.48647 0.0
H256 H 0.19212 0.97066 0.25065 0.0
H257 H 0.1623 0.97693 0.32323 0.0
H258 H 0.16868 0.0383 0.2817 0.0
H259 H 0.19892 0.03205 0.20866 0.0
H260 H 0.16053 1.00317 0.46135 0.0
H261 H 0.10997 0.02368 0.22193 0.0
H262 H 0.13131 1.00906 0.2042 0.0
H263 H 0.13386 0.03442 0.22513 0.0
C264 C 0.18712 0.98551 0.2562 0.0
C265 C 0.1979 1.00083 0.2237 0.0
C266 C 0.17005 0.98907 0.29788 0.0
C267 C 0.16312 1.00805 0.30775 0.0
C268 C 0.17362 0.02349 0.27423 0.0
H269 H 0.05535 0.03722 0.56855 0.0
H270 H 0.084 0.0402 0.48324 0.0
C271 C 0.19091 0.01992 0.2326 0.0
C272 C 0.14548 0.01134 0.35671 0.0
H273 H 0.09666 0.02069 0.34752 0.0
C274 C 0.14662 1.00722 0.43653 0.0
C275 C 0.12733 0.01676 0.32468 0.0
C276 C 0.12533 0.02121 0.23925 0.0
C277 C 0.1301 1.00789 0.48466 0.0
C278 C 0.11169 0.01226 0.45199 0.0
C279 C 0.11067 0.0172 0.37269 0.0
C280 C 0.09338 0.01045 0.49856 0.0
C281 C 0.13258 1.00379 0.57031 0.0
C282 C 0.08865 0.99263 0.5334 0.0
C283 C 0.07243 0.99094 0.58191 0.0
C284 C 0.0603 1.00696 0.59636 0.0
C285 C 0.0644 0.02461 0.55856 0.0
C286 C 0.0808 0.02633 0.50996 0.0
H287 H 0.14763 1.00698 0.59001 0.0
H288 H 0.12231 0.01249 0.60583 0.0
H289 H 0.12973 0.98818 0.58135 0.0
H290 H 0.09773 0.98 0.52409 0.0
H291 H 0.06959 0.97708 0.60942 0.0
H292 H 0.54422 0.19864 0.29636 0.0
H293 H 0.53872 0.1676 0.36003 0.0
H294 H 0.48677 0.15917 0.22375 0.0
H295 H 0.49188 0.19109 0.16165 0.0
H296 H 0.48023 0.14759 0.36674 0.0
H297 H 0.54997 0.11484 0.2825 0.0
H298 H 0.5544 0.13711 0.33326 0.0
H299 H 0.54167 0.13745 0.24143 0.0
C300 C 0.53164 0.19016 0.27938 0.0
C301 C 0.5186 0.19731 0.22329 0.0
C302 C 0.52861 0.17223 0.31551 0.0
C303 C 0.51266 0.16051 0.2954 0.0
C304 C 0.49935 0.16772 0.23991 0.0
H305 H 0.51572 0.04216 0.49867 0.0
H306 H 0.5153 0.06892 0.40395 0.0
C307 C 0.50227 0.18597 0.20423 0.0
C308 C 0.50979 0.14123 0.33505 0.0
H309 H 0.53438 0.10066 0.39494 0.0
C310 C 0.49201 0.13722 0.37185 0.0
C311 C 0.52486 0.12722 0.34062 0.0
C312 C 0.54369 0.12928 0.29651 0.0
C313 C 0.48927 0.12031 0.417 0.0
C314 C 0.50496 0.10721 0.42845 0.0
C315 C 0.52238 0.11071 0.38813 0.0
C316 C 0.50399 0.09038 0.48427 0.0
C317 C 0.46943 0.11667 0.45119 0.0
C318 C 0.49787 0.09325 0.56146 0.0
C319 C 0.49779 0.0779 0.61499 0.0
C320 C 0.5043 0.05927 0.59382 0.0
C321 C 0.51053 0.05629 0.51683 0.0
C322 C 0.51034 0.07165 0.46269 0.0
H323 H 0.45787 0.12312 0.41421 0.0
H324 H 0.46645 0.10091 0.45781 0.0
H325 H 0.46853 0.12369 0.50917 0.0
H326 H 0.49358 0.10753 0.58127 0.0
H327 H 0.49308 0.08083 0.67393 0.0
H328 H 0.33149 0.49115 0.16461 0.0
H329 H 0.3625 0.48639 0.23438 0.0
H330 H 0.35456 0.54125 0.35077 0.0
H331 H 0.3238 0.54589 0.28267 0.0
H332 H 0.39751 0.50915 0.2465 0.0
H333 H 0.36097 0.50335 0.53183 0.0
H334 H 0.3479 0.50153 0.44105 0.0
H335 H 0.35421 0.52495 0.48026 0.0
C336 C 0.33649 0.50224 0.20454 0.0
C337 C 0.32512 0.51888 0.21837 0.0
C338 C 0.35421 0.4995 0.24453 0.0
C339 C 0.36077 0.51328 0.29927 0.0
C340 C 0.34972 0.53018 0.31039 0.0
H341 H 0.45153 0.54314 0.61303 0.0
H342 H 0.42391 0.53976 0.52525 0.0
C343 C 0.33214 0.53288 0.27091 0.0
C344 C 0.37882 0.51016 0.34664 0.0
H345 H 0.39514 0.50989 0.5348 0.0
C346 C 0.39699 0.50897 0.30951 0.0
C347 C 0.37824 0.50978 0.42905 0.0
C348 C 0.35927 0.50977 0.47294 0.0
C349 C 0.41452 0.50856 0.35254 0.0
C350 C 0.4139 0.50919 0.43488 0.0
C351 C 0.39571 0.50954 0.47177 0.0
C352 C 0.43177 0.51116 0.48418 0.0
C353 C 0.43361 0.5084 0.30976 0.0
C354 C 0.44569 0.49623 0.49047 0.0
C355 C 0.46167 0.49811 0.54147 0.0
C356 C 0.46398 0.51494 0.58708 0.0
C357 C 0.45023 0.52994 0.57912 0.0
C358 C 0.43436 0.52803 0.52881 0.0
H359 H 0.43172 0.51068 0.24624 0.0
H360 H 0.44338 0.51986 0.33298 0.0
H361 H 0.44085 0.49419 0.3188 0.0
H362 H 0.44395 0.48295 0.45747 0.0
H363 H 0.47196 0.48628 0.54635 0.0
H364 H 0.03226 0.31524 0.28856 0.0
H365 H 0.03818 0.3443 0.36919 0.0
H366 H 0.98959 0.37293 0.26045 0.0
H367 H 0.9836 0.34411 0.18082 0.0
H368 H 0.02375 0.39722 0.27897 0.0
H369 H 1.00168 0.36033 0.55294 0.0
H370 H 0.02019 0.34876 0.49546 0.0
H371 H 0.9959 0.35052 0.4583 0.0
C372 C 0.02302 0.32782 0.28129 0.0
C373 C 1.00745 0.32736 0.22817 0.0
C374 C 0.02633 0.34441 0.32774 0.0
C375 C 0.01423 0.36085 0.32151 0.0
C376 C 0.99915 0.36053 0.26657 0.0
H377 H 0.97954 0.45415 0.61895 0.0
H378 H 0.98373 0.42593 0.53433 0.0
C379 C 0.99573 0.344 0.22102 0.0
C380 C 0.01649 0.37817 0.37372 0.0
H381 H 1.00917 0.39353 0.5609 0.0
C382 C 0.02085 0.39637 0.34084 0.0
C383 C 0.01248 0.37718 0.45441 0.0
C384 C 1.00717 0.35822 0.49279 0.0
C385 C 0.021 0.41352 0.38599 0.0
C386 C 0.01664 0.41256 0.46637 0.0
C387 C 0.01263 0.39432 0.49946 0.0
C388 C 0.01447 0.43038 0.51576 0.0
C389 C 0.02501 0.43269 0.34685 0.0
C390 C 0.03035 0.44251 0.53388 0.0
C391 C 0.02797 0.45875 0.58298 0.0
C392 C 1.00964 0.46327 0.61421 0.0
C393 C 0.99383 0.45119 0.59539 0.0
C394 C 0.99621 0.43498 0.54708 0.0
H395 H 0.02536 0.43136 0.28247 0.0
H396 H 0.01378 0.44352 0.36316 0.0
H397 H 0.03929 0.43832 0.36669 0.0
H398 H 0.04467 0.43915 0.51166 0.0
H399 H 0.04053 0.46738 0.59852 0.0
H400 H 0.81394 0.98427 0.04001 0.0
H401 H 0.84714 0.98585 0.99091 0.0
H402 H 0.86471 0.01753 0.19556 0.0
H403 H 0.83114 0.01599 0.24525 0.0
H404 H 0.87756 0.03467 0.05797 0.0
H405 H 0.89602 0.95663 0.054 0.0
H406 H 0.87336 0.96141 0.00607 0.0
H407 H 0.87573 0.96611 0.10867 0.0
C408 C 0.82492 0.9913 0.07535 0.0
C409 C 0.8199 0.99985 0.14684 0.0
C410 C 0.84398 0.99211 0.04729 0.0
C411 C 0.85865 1.0015 0.08988 0.0
C412 C 0.85374 0.01001 0.16184 0.0
H413 H 0.97815 0.99903 0.88948 0.0
H414 H 0.95165 0.99606 0.98543 0.0
C415 C 0.83456 1.00907 0.1904 0.0
C416 C 0.87859 1.00344 0.05577 0.0
H417 H 0.91492 0.97721 0.96924 0.0
C418 C 0.88587 0.02209 0.0399 0.0
C419 C 0.88972 0.98709 0.03274 0.0
C420 C 0.88341 0.96668 0.05196 0.0
C421 C 0.90323 0.02478 0.99778 0.0
C422 C 0.91359 1.00842 0.96977 0.0
C423 C 0.90697 0.98979 0.98978 0.0
C424 C 0.93013 0.01041 0.91373 0.0
C425 C 0.91013 0.04521 0.98232 0.0
C426 C 0.9269 0.01915 0.8412 0.0
C427 C 0.94189 0.02073 0.78677 0.0
C428 C 0.96062 0.0136 0.80291 0.0
C429 C 0.96397 1.00477 0.87544 0.0
C430 C 0.9488 1.00306 0.93019 0.0
H431 H 0.90457 0.05549 0.02684 0.0
H432 H 0.92624 0.04601 0.98145 0.0
H433 H 0.9046 0.05001 0.92481 0.0
H434 H 0.91262 0.02456 0.82604 0.0
H435 H 0.93871 0.02753 0.73139 0.0
H436 H 0.50188 0.82501 0.21855 0.0
H437 H 0.49617 0.85649 0.15412 0.0
H438 H 0.55658 0.85922 0.08962 0.0
H439 H 0.56227 0.82795 0.15296 0.0
H440 H 0.54069 0.89548 0.14856 0.0
H441 H 0.49624 0.86286 0.91148 0.0
H442 H 0.48911 0.85759 0.00991 0.0
H443 H 0.51171 0.84839 0.9734 0.0
C444 C 0.51396 0.83247 0.19153 0.0
C445 C 0.53256 0.82399 0.19103 0.0
C446 C 0.51067 0.85041 0.15422 0.0
C447 C 0.52592 0.86024 0.11628 0.0
C448 C 0.54456 0.85202 0.1183 0.0
H449 H 0.53573 0.94253 0.74493 0.0
H450 H 0.53612 0.91533 0.83603 0.0
C451 C 0.5478 0.83411 0.15463 0.0
C452 C 0.52264 0.87865 0.07168 0.0
H453 H 0.50273 0.89629 0.90333 0.0
C454 C 0.53216 0.89574 0.09553 0.0
C455 C 0.51173 0.87899 1.00181 0.0
C456 C 0.50167 0.86101 0.97189 0.0
C457 C 0.53126 0.91296 0.05111 0.0
C458 C 0.52057 0.91321 0.98069 0.0
C459 C 0.51082 0.8962 0.95748 0.0
C460 C 0.52059 0.93038 0.92712 0.0
C461 C 0.54239 0.93059 0.07813 0.0
C462 C 0.5118 0.94813 0.9477 0.0
C463 C 0.51149 0.96383 0.89513 0.0
C464 C 0.52 0.9621 0.82101 0.0
C465 C 0.52903 0.94443 0.8014 0.0
C466 C 0.52922 0.92879 0.85346 0.0
H467 H 0.55229 0.92721 0.12734 0.0
H468 H 0.55106 0.93673 0.02959 0.0
H469 H 0.532 0.94191 0.0975 0.0
H470 H 0.50487 0.94972 0.00383 0.0
H471 H 0.50433 0.97719 0.91196 0.0
H472 H 0.69605 0.56 0.15182 0.0
H473 H 0.6647 0.55505 0.08818 0.0
H474 H 0.6667 0.49428 0.14845 0.0
H475 H 0.69784 0.4995 0.21548 0.0
H476 H 0.6564 0.53512 0.96617 0.0
H477 H 0.61178 0.50477 0.2047 0.0
H478 H 0.63533 0.51544 0.22183 0.0
H479 H 0.63332 0.49084 0.18703 0.0
C480 C 0.6896 0.54565 0.15298 0.0
C481 C 0.69934 0.53021 0.18957 0.0
C482 C 0.67167 0.54279 0.11609 0.0
C483 C 0.66297 0.52432 0.11373 0.0
C484 C 0.67264 0.50882 0.15094 0.0
H485 H 0.56962 0.47881 0.82315 0.0
H486 H 0.59753 0.48355 0.90977 0.0
C487 C 0.69055 0.51177 0.18914 0.0
C488 C 0.64451 0.52136 0.06816 0.0
H489 H 0.5982 0.50303 0.07703 0.0
C490 C 0.64367 0.52824 0.99106 0.0
C491 C 0.6277 0.51238 0.09974 0.0
C492 C 0.62696 0.50561 0.18308 0.0
C493 C 0.62681 0.52625 0.94509 0.0
C494 C 0.61019 0.51709 0.97635 0.0
C495 C 0.61093 0.5101 0.05306 0.0
C496 C 0.59223 0.51411 0.92877 0.0
C497 C 0.62693 0.53369 0.86261 0.0
C498 C 0.57965 0.52964 0.91151 0.0
C499 C 0.56349 0.52692 0.86239 0.0
C500 C 0.55975 0.50866 0.82886 0.0
C501 C 0.57212 0.49308 0.84781 0.0
C502 C 0.58808 0.49575 0.89746 0.0
H503 H 0.64157 0.53866 0.84414 0.0
H504 H 0.6219 0.52216 0.82213 0.0
H505 H 0.61669 0.54607 0.85752 0.0
H506 H 0.58253 0.54394 0.9351 0.0
H507 H 0.55428 0.53922 0.84889 0.0
H508 H 0.9566 0.69461 0.17288 0.0
H509 H 0.96125 0.66379 0.10528 0.0
H510 H 0.02333 0.67004 0.12864 0.0
H511 H 0.01858 0.70069 0.19964 0.0
H512 H 0.97667 0.65781 0.97217 0.0
H513 H 0.01877 0.61391 0.18237 0.0
H514 H 1.00725 0.63646 0.20927 0.0
H515 H 0.03036 0.63657 0.16033 0.0
C516 C 0.97125 0.68921 0.16517 0.0
C517 C 0.98719 0.70003 0.19236 0.0
C518 C 0.97392 0.67156 0.12603 0.0
C519 C 0.99265 0.66423 0.11188 0.0
C520 C 1.00868 0.67492 0.14019 0.0
H521 H 0.01741 0.58764 0.7236 0.0
H522 H 0.01329 0.61427 0.81525 0.0
C523 C 1.00597 0.69255 0.18064 0.0
C524 C 0.99511 0.64633 0.06241 0.0
H525 H 0.017 0.60165 0.05226 0.0
C526 C 0.98542 0.64553 0.99036 0.0
C527 C 1.00626 0.62999 0.08562 0.0
C528 C 0.01609 0.62914 0.16395 0.0
C529 C 0.98675 0.62926 0.94098 0.0
C530 C 0.99864 0.61332 0.96237 0.0
C531 C 1.00803 0.61385 0.03508 0.0
C532 C 1.00198 0.59647 0.90839 0.0
C533 C 0.97507 0.62925 0.86661 0.0
C534 C 0.99776 0.5772 0.93043 0.0
C535 C 1.00035 0.56169 0.87766 0.0
C536 C 1.00724 0.56517 0.80192 0.0
C537 C 0.01182 0.58439 0.781 0.0
C538 C 1.00938 0.59974 0.83347 0.0
H539 H 0.96226 0.63899 0.87096 0.0
H540 H 0.9843 0.63465 0.81835 0.0
H541 H 0.96993 0.61443 0.85164 0.0
H542 H 0.99217 0.57418 0.98801 0.0
H543 H 0.99683 0.5471 0.89591 0.0
H544 H 0.97352 0.25953 0.35237 0.0
H545 H 0.95471 0.24013 0.44398 0.0
H546 H 0.9333 0.20507 0.25438 0.0
H547 H 0.95008 0.22576 0.16213 0.0
H548 H 0.91006 0.20088 0.37303 0.0
H549 H 0.98637 0.19325 0.48009 0.0
H550 H 0.97519 0.21643 0.4947 0.0
H551 H 0.98063 0.20816 0.39762 0.0
C552 C 0.964 0.24836 0.32964 0.0
C553 C 0.96413 0.2435 0.25009 0.0
C554 C 0.95345 0.23707 0.38243 0.0
C555 C 0.94369 0.22035 0.35654 0.0
C556 C 0.94121 0.21754 0.2763 0.0
H557 H 0.94444 0.10517 0.36397 0.0
H558 H 0.93191 0.13826 0.35713 0.0
C559 C 0.95109 0.22924 0.22344 0.0
C560 C 0.93994 0.2037 0.40932 0.0
H561 H 0.96491 0.16886 0.50877 0.0
C562 C 0.92192 0.1941 0.40451 0.0
C563 C 0.95539 0.19478 0.45084 0.0
C564 C 0.97551 0.20355 0.45596 0.0
C565 C 0.91954 0.17516 0.43341 0.0
C566 C 0.93549 0.16579 0.46875 0.0
C567 C 0.95272 0.17615 0.48142 0.0
C568 C 0.93641 0.1445 0.47931 0.0
C569 C 0.90039 0.16495 0.42206 0.0
C570 C 0.9425 0.13677 0.55074 0.0
C571 C 0.94984 0.11791 0.55455 0.0
C572 C 0.95131 0.10652 0.48686 0.0
C573 C 0.94344 0.11359 0.41704 0.0
C574 C 0.93611 0.13248 0.41326 0.0
H575 H 0.88819 0.1755 0.42073 0.0
H576 H 0.90057 0.15719 0.36548 0.0
H577 H 0.89772 0.15418 0.46887 0.0
H578 H 0.94299 0.14585 0.60221 0.0
H579 H 0.95546 0.11266 0.60952 0.0
H580 H 0.26378 0.96619 0.33514 0.0
H581 H 0.27918 0.95093 0.44853 0.0
H582 H 0.3229 0.99594 0.44899 0.0
H583 H 0.3072 0.01146 0.33934 0.0
H584 H 0.31237 0.93474 0.4469 0.0
H585 H 0.31849 0.98891 0.67524 0.0
H586 H 0.30097 0.99169 0.59768 0.0
H587 H 0.32521 1.00166 0.58889 0.0
C588 C 0.27629 0.97312 0.36148 0.0
C589 C 0.28449 0.98986 0.32799 0.0
C590 C 0.28507 0.9644 0.42615 0.0
C591 C 0.30204 0.9724 0.45845 0.0
C592 C 0.30949 0.98973 0.42727 0.0
H593 H 0.40767 0.94573 0.43243 0.0
H594 H 0.37294 0.94013 0.44158 0.0
C595 C 0.30073 0.99843 0.36332 0.0
C596 C 0.31429 0.96127 0.51368 0.0
H597 H 0.35051 0.97202 0.64057 0.0
C598 C 0.32025 0.94255 0.49171 0.0
C599 C 0.32399 0.97063 0.57574 0.0
C600 C 0.31656 0.98924 0.6111 0.0
C601 C 0.33776 0.9348 0.51948 0.0
C602 C 0.3498 0.94646 0.56718 0.0
C603 C 0.34191 0.96333 0.60077 0.0
C604 C 0.3713 0.94439 0.5667 0.0
C605 C 0.3438 0.91486 0.49263 0.0
C606 C 0.38229 0.94852 0.63367 0.0
C607 C 0.40214 0.95247 0.62758 0.0
C608 C 0.41136 0.95189 0.55478 0.0
C609 C 0.40086 0.946 0.48921 0.0
C610 C 0.38096 0.94255 0.49487 0.0
H611 H 0.33127 0.90474 0.49602 0.0
H612 H 0.34829 0.9155 0.43069 0.0
H613 H 0.35592 0.90892 0.52804 0.0
H614 H 0.37528 0.95008 0.6897 0.0
H615 H 0.41009 0.95699 0.67893 0.0
H616 H 0.49635 0.30752 0.32316 0.0
H617 H 0.51076 0.32514 0.43088 0.0
H618 H 0.55066 0.27785 0.47113 0.0
H619 H 0.53725 0.26076 0.35843 0.0
H620 H 0.52029 0.32347 0.58025 0.0
H621 H 0.58827 0.31817 0.40444 0.0
H622 H 0.5658 0.30852 0.36759 0.0
H623 H 0.57828 0.29648 0.44596 0.0
C624 C 0.50803 0.30073 0.3555 0.0
C625 C 0.5162 0.28317 0.3303 0.0
C626 C 0.51614 0.31072 0.4179 0.0
C627 C 0.53236 0.30316 0.45724 0.0
C628 C 0.53866 0.28429 0.43967 0.0
H629 H 0.56474 0.41605 0.64466 0.0
H630 H 0.56512 0.38078 0.66216 0.0
C631 C 0.53079 0.27443 0.37578 0.0
C632 C 0.54419 0.31675 0.50461 0.0
H633 H 0.58392 0.34565 0.47931 0.0
C634 C 0.53449 0.32809 0.56017 0.0
C635 C 0.56301 0.32242 0.47987 0.0
C636 C 0.57452 0.31085 0.42116 0.0
C637 C 0.5414 0.34656 0.58077 0.0
C638 C 0.55894 0.35333 0.54732 0.0
C639 C 0.57027 0.34052 0.50319 0.0
C640 C 0.56302 0.37437 0.53936 0.0
C641 C 0.52881 0.3593 0.63134 0.0
C642 C 0.56325 0.3824 0.46427 0.0
C643 C 0.56372 0.40243 0.45384 0.0
C644 C 0.56365 0.41491 0.51832 0.0
C645 C 0.56483 0.40685 0.59356 0.0
C646 C 0.56473 0.38669 0.6039 0.0
H647 H 0.5145 0.35257 0.64414 0.0
H648 H 0.53634 0.3618 0.68742 0.0
H649 H 0.52624 0.37358 0.60325 0.0
H650 H 0.56207 0.37319 0.41335 0.0
H651 H 0.56328 0.40814 0.39518 0.0
H652 H 0.22429 0.46368 0.26559 0.0
H653 H 0.20634 0.46252 0.38695 0.0
H654 H 0.24663 0.50304 0.49027 0.0
H655 H 0.26369 0.50568 0.36644 0.0
H656 H 0.20787 0.45799 0.54486 0.0
H657 H 0.19972 0.53666 0.4707 0.0
H658 H 0.21248 0.52061 0.40609 0.0
H659 H 0.22326 0.52773 0.49721 0.0
C660 C 0.22949 0.47221 0.3143 0.0
C661 C 0.24479 0.4855 0.30506 0.0
C662 C 0.21942 0.47127 0.38432 0.0
C663 C 0.22469 0.48333 0.44671 0.0
C664 C 0.24192 0.49415 0.44186 0.0
H665 H 0.11477 0.52494 0.60447 0.0
H666 H 0.1485 0.51775 0.63772 0.0
C667 C 0.25175 0.4955 0.37097 0.0
C668 C 0.20971 0.48768 0.50588 0.0
H669 H 0.17427 0.5215 0.53172 0.0
C670 C 0.20081 0.47206 0.54452 0.0
C671 C 0.20068 0.50619 0.5074 0.0
C672 C 0.20942 0.52379 0.46818 0.0
C673 C 0.18193 0.47378 0.57441 0.0
C674 C 0.17184 0.49145 0.56451 0.0
C675 C 0.18191 0.50781 0.53765 0.0
C676 C 0.15038 0.49245 0.56343 0.0
C677 C 0.1725 0.45633 0.61126 0.0
C678 C 0.14003 0.48034 0.51214 0.0
C679 C 0.12071 0.48437 0.49344 0.0
C680 C 0.11153 0.50079 0.52467 0.0
C681 C 0.12159 0.51232 0.57889 0.0
C682 C 0.14078 0.50811 0.59858 0.0
H683 H 0.18331 0.44796 0.64559 0.0
H684 H 0.16029 0.46054 0.64991 0.0
H685 H 0.16688 0.44659 0.56497 0.0
H686 H 0.14725 0.46855 0.48214 0.0
H687 H 0.11335 0.47527 0.45127 0.0
H688 H 0.02435 0.76083 0.04352 0.0
H689 H 0.0348 0.77659 0.92301 0.0
H690 H 1.00115 0.82726 0.98378 0.0
H691 H 0.98943 0.81104 0.0995 0.0
H692 H 1.00417 0.82475 0.83127 0.0
H693 H 0.07814 0.81321 0.95699 0.0
H694 H 0.0644 0.7927 0.92347 0.0
H695 H 0.05704 0.80543 0.01009 0.0
C696 C 0.0186 0.77504 0.02947 0.0
C697 C 1.00662 0.78503 0.08239 0.0
C698 C 0.0248 0.78412 0.96097 0.0
C699 C 0.01949 0.80344 0.94587 0.0
C700 C 1.00573 0.81244 0.99427 0.0
H701 H 0.05496 0.90351 0.00901 0.0
H702 H 0.0517 0.86902 0.98106 0.0
C703 C 0.99923 0.80326 0.06134 0.0
C704 C 0.03027 0.8159 0.89019 0.0
H705 H 0.07228 0.84213 0.89312 0.0
C706 C 0.0193 0.82823 0.8421 0.0
C707 C 0.05023 0.82008 0.90232 0.0
C708 C 0.06322 0.80723 0.95092 0.0
C709 C 0.02648 0.84646 0.81974 0.0
C710 C 0.04542 0.85189 0.84328 0.0
C711 C 0.05761 0.83797 0.87713 0.0
C712 C 0.05047 0.87254 0.85583 0.0
C713 C 0.01285 0.86067 0.78119 0.0
C714 C 0.05145 0.88594 0.79464 0.0
C715 C 0.05302 0.9058 0.81081 0.0
C716 C 0.0538 0.91243 0.88834 0.0
C717 C 0.05413 0.89884 0.94892 0.0
C718 C 0.05243 0.87912 0.93282 0.0
H719 H 0.99849 0.8541 0.7677 0.0
H720 H 0.01055 0.87343 0.81958 0.0
H721 H 0.0193 0.86594 0.72615 0.0
H722 H 0.05027 0.88116 0.73485 0.0
H723 H 0.05258 0.91598 0.76286 0.0
H724 H 0.72483 0.06903 0.207 0.0
H725 H 0.70685 0.08415 0.10151 0.0
H726 H 0.74283 0.05457 0.93388 0.0
H727 H 0.75969 0.03787 0.03921 0.0
H728 H 0.70909 0.10486 0.96855 0.0
H729 H 0.69245 0.02726 0.90028 0.0
H730 H 0.70652 0.03386 0.98434 0.0
H731 H 0.71714 0.03496 0.88879 0.0
C732 C 0.72905 0.06582 0.14771 0.0
C733 C 0.74304 0.0515 0.13166 0.0
C734 C 0.71896 0.07475 0.08729 0.0
C735 C 0.72297 0.06985 0.00974 0.0
C736 C 0.73903 0.05799 0.99342 0.0
H737 H 0.61682 0.06047 0.75075 0.0
H738 H 0.6514 0.06869 0.75095 0.0
C739 C 0.74881 0.04859 0.05396 0.0
C740 C 0.70794 0.07391 0.95014 0.0
H741 H 0.67131 0.05045 0.85551 0.0
C742 C 0.70109 0.09303 0.94183 0.0
C743 C 0.69756 0.05849 0.91449 0.0
C744 C 0.70365 0.03748 0.92248 0.0
C745 C 0.68321 0.09688 0.9056 0.0
C746 C 0.67197 0.08121 0.87744 0.0
C747 C 0.67991 0.06247 0.87749 0.0
C748 C 0.65077 0.08275 0.8636 0.0
C749 C 0.67607 0.11754 0.90172 0.0
C750 C 0.63871 0.08881 0.92493 0.0
C751 C 0.61897 0.0842 0.92469 0.0
C752 C 0.61108 0.07321 0.86369 0.0
C753 C 0.6227 0.06876 0.79894 0.0
C754 C 0.64239 0.07359 0.79872 0.0
H755 H 0.6884 0.12771 0.89289 0.0
H756 H 0.66536 0.11959 0.85409 0.0
H757 H 0.66908 0.1214 0.95777 0.0
H758 H 0.64484 0.09543 0.97657 0.0
H759 H 0.6103 0.08771 0.97535 0.0
H760 H 0.49066 0.7623 0.05346 0.0
H761 H 0.477 0.74537 0.94048 0.0
H762 H 0.5159 0.69732 0.9821 0.0
H763 H 0.53034 0.71465 0.09061 0.0
H764 H 0.50636 0.69913 0.83172 0.0
H765 H 0.43877 0.70558 0.00936 0.0
H766 H 0.44916 0.72705 0.96745 0.0
H767 H 0.46145 0.71485 0.04583 0.0
C768 C 0.49683 0.74849 0.03618 0.0
C769 C 0.5111 0.73943 0.08218 0.0
C770 C 0.48885 0.73874 0.97218 0.0
C771 C 0.4948 0.71971 0.95494 0.0
C772 C 0.51081 0.71187 0.99473 0.0
H773 H 0.46357 0.6151 0.02105 0.0
H774 H 0.46512 0.65001 1.00205 0.0
C775 C 0.51897 0.7217 0.05741 0.0
C776 C 0.4827 0.70626 0.90803 0.0
H777 H 0.44286 0.67769 0.9365 0.0
C778 C 0.49216 0.6947 0.85247 0.0
C779 C 0.46391 0.7008 0.93378 0.0
C780 C 0.45265 0.71263 0.9924 0.0
C781 C 0.48503 0.67625 0.83277 0.0
C782 C 0.46755 0.66969 0.8674 0.0
C783 C 0.45646 0.68268 0.91167 0.0
C784 C 0.46335 0.6487 0.87624 0.0
C785 C 0.49733 0.66327 0.78205 0.0
C786 C 0.46109 0.63632 0.81213 0.0
C787 C 0.4608 0.61618 0.82285 0.0
C788 C 0.46233 0.60818 0.89811 0.0
C789 C 0.46286 0.62074 0.96233 0.0
C790 C 0.46351 0.64075 0.95147 0.0
H791 H 0.50006 0.64914 0.81111 0.0
H792 H 0.4895 0.66044 0.72686 0.0
H793 H 0.51156 0.66993 0.76746 0.0
H794 H 0.46038 0.64219 0.75385 0.0
H795 H 0.46043 0.60693 0.77193 0.0
H796 H 0.76238 0.48101 0.07746 0.0
H797 H 0.77874 0.46774 0.96212 0.0
H798 H 0.82352 0.51122 0.98493 0.0
H799 H 0.80723 0.52455 0.09893 0.0
H800 H 0.81376 0.49915 0.82218 0.0
H801 H 0.82887 0.43798 0.02654 0.0
H802 H 0.80431 0.4447 0.00283 0.0
H803 H 0.81874 0.46025 0.06368 0.0
C804 C 0.77538 0.48808 0.05606 0.0
C805 C 0.78382 0.50354 0.0976 0.0
C806 C 0.78467 0.4805 0.99034 0.0
C807 C 0.8024 0.4884 0.96566 0.0
C808 C 0.80979 0.50497 0.00293 0.0
H809 H 0.90861 0.50307 0.88587 0.0
H810 H 0.87411 0.50108 0.86003 0.0
C811 C 0.80062 0.51244 0.0685 0.0
C812 C 0.81555 0.47771 0.91313 0.0
H813 H 0.85297 0.44618 0.9378 0.0
C814 C 0.82197 0.487 0.84525 0.0
C815 C 0.82588 0.46145 0.94162 0.0
C816 C 0.81919 0.4504 0.01255 0.0
C817 C 0.84001 0.48233 0.81237 0.0
C818 C 0.85202 0.46861 0.85043 0.0
C819 C 0.84404 0.45708 0.90965 0.0
C820 C 0.87353 0.46974 0.84638 0.0
C821 C 0.84664 0.49331 0.74135 0.0
C822 C 0.88497 0.45283 0.84794 0.0
C823 C 0.90477 0.45393 0.866 0.0
C824 C 0.91342 0.47195 0.88277 0.0
C825 C 0.90224 0.4889 0.87582 0.0
C826 C 0.88252 0.4878 0.85859 0.0
H827 H 0.83473 0.49389 0.69778 0.0
H828 H 0.85002 0.50852 0.75781 0.0
H829 H 0.85962 0.48662 0.71394 0.0
H830 H 0.87837 0.43871 0.8394 0.0
H831 H 0.91306 0.44061 0.87026 0.0
H832 H 0.99604 0.23179 0.9594 0.0
H833 H 1.00044 0.2001 0.89621 0.0
H834 H 0.0369 0.18168 0.08618 0.0
H835 H 0.03233 0.21333 0.14958 0.0
H836 H 0.03195 0.17646 0.84715 0.0
H837 H 0.99208 0.1425 0.09223 0.0
H838 H 0.99295 0.16844 0.07815 0.0
H839 H 0.01331 0.15595 0.1204 0.0
C840 C 1.00569 0.22127 0.9859 0.0
C841 C 0.01425 0.22527 0.05853 0.0
C842 C 1.008 0.20303 0.95022 0.0
C843 C 0.01869 0.18823 0.98693 0.0
C844 C 0.02832 0.19266 0.05704 0.0
H845 H 0.03003 0.06301 0.90293 0.0
H846 H 0.03191 0.09618 0.95365 0.0
C847 C 0.02602 0.21091 0.09264 0.0
C848 C 0.01858 0.16792 0.95478 0.0
H849 H 1.00444 0.12134 0.99637 0.0
C850 C 0.02594 0.16442 0.87982 0.0
C851 C 0.01066 0.15208 0.99692 0.0
C852 C 1.00163 0.15486 0.07608 0.0
C853 C 0.02597 0.14561 0.84676 0.0
C854 C 0.01797 0.12977 0.8888 0.0
C855 C 0.01063 0.13331 0.96381 0.0
C856 C 0.01699 0.10946 0.85643 0.0
C857 C 0.03505 0.14287 0.76771 0.0
C858 C 1.00772 0.10552 0.78511 0.0
C859 C 1.0067 0.08649 0.75566 0.0
C860 C 0.01471 0.07073 0.79705 0.0
C861 C 0.0237 0.07466 0.86907 0.0
C862 C 0.0248 0.09372 0.89829 0.0
H863 H 0.04556 0.15465 0.75425 0.0
H864 H 0.04269 0.12872 0.76364 0.0
H865 H 0.0235 0.14323 0.72269 0.0
H866 H 1.00102 0.11715 0.75238 0.0
H867 H 0.99943 0.08413 0.70058 0.0
H868 H 0.3123 0.03755 0.13164 0.0
H869 H 0.34285 0.03879 0.05909 0.0
H870 H 0.32331 0.99146 0.9146 0.0
H871 H 0.29251 0.99043 0.98697 0.0
H872 H 0.36841 1.00829 0.05842 0.0
H873 H 0.34897 0.02664 0.75372 0.0
H874 H 0.33257 0.03077 0.83398 0.0
H875 H 0.3357 1.00674 0.79528 0.0
C876 C 0.31419 0.02797 0.08223 0.0
C877 C 0.2998 0.01418 0.06398 0.0
C878 C 0.33177 0.02853 0.04123 0.0
C879 C 0.33553 0.01529 0.98082 0.0
C880 C 0.32075 1.00212 0.95973 0.0
H881 H 0.443 0.99027 0.72065 0.0
H882 H 0.40954 0.99071 0.76951 0.0
C883 C 0.30305 1.00159 1.00085 0.0
C884 C 0.35557 0.01403 0.94663 0.0
H885 H 0.38167 0.01767 0.77764 0.0
C886 C 0.37127 0.01044 0.997 0.0
C887 C 0.35943 0.01645 0.86627 0.0
C888 C 0.34333 0.02051 0.80904 0.0
C889 C 0.39054 1.00922 0.96979 0.0
C890 C 0.39454 0.01229 0.88981 0.0
C891 C 0.37879 0.0155 0.83901 0.0
C892 C 0.41493 0.01237 0.85829 0.0
C893 C 0.40633 1.00412 0.02721 0.0
C894 C 0.42927 0.02457 0.89045 0.0
C895 C 0.44845 0.02425 0.86261 0.0
C896 C 0.45376 0.01203 0.80058 0.0
C897 C 0.43935 1.0001 0.7674 0.0
C898 C 0.42019 1.00028 0.79573 0.0
H899 H 0.40042 0.99608 0.07795 0.0
H900 H 0.41782 0.99512 0.9998 0.0
H901 H 0.41306 0.01768 0.04945 0.0
H902 H 0.42563 0.03447 0.93713 0.0
H903 H 0.45908 0.03379 0.88911 0.0
H904 H 0.5376 0.30942 0.09233 0.0
H905 H 0.53626 0.33949 0.01829 0.0
H906 H 0.48216 0.32119 0.91473 0.0
H907 H 0.48297 0.29129 0.99334 0.0
H908 H 0.53653 0.35159 0.87978 0.0
H909 H 0.46441 0.3716 0.99835 0.0
H910 H 0.47756 0.35061 0.03191 0.0
H911 H 0.46396 0.34963 0.94242 0.0
C912 C 0.5255 0.31163 0.05293 0.0
C913 C 0.51028 0.29796 0.04961 0.0
C914 C 0.52473 0.32895 0.01039 0.0
C915 C 0.50879 0.33321 0.96218 0.0
C916 C 0.49431 0.3188 0.9535 0.0
H917 H 0.51284 0.43888 0.66906 0.0
H918 H 0.51214 0.40523 0.71441 0.0
C919 C 0.49495 0.30144 0.99726 0.0
C920 C 0.50735 0.35299 0.92458 0.0
H921 H 0.4784 0.39339 0.90873 0.0
C922 C 0.52371 0.36059 0.88575 0.0
C923 C 0.49088 0.36524 0.93356 0.0
C924 C 0.47329 0.35898 0.97946 0.0
C925 C 0.52414 0.37981 0.85699 0.0
C926 C 0.50749 0.39177 0.86404 0.0
C927 C 0.49109 0.38421 0.90211 0.0
C928 C 0.50717 0.4124 0.83536 0.0
C929 C 0.54289 0.38766 0.82415 0.0
C930 C 0.50388 0.42788 0.8872 0.0
C931 C 0.50402 0.44724 0.86114 0.0
C932 C 0.50738 0.4517 0.78231 0.0
C933 C 0.51031 0.43615 0.73024 0.0
C934 C 0.51008 0.4168 0.7563 0.0
H935 H 0.55513 0.37729 0.8308 0.0
H936 H 0.5411 0.39089 0.7615 0.0
H937 H 0.54676 0.40148 0.85365 0.0
H938 H 0.50149 0.42499 0.94836 0.0
H939 H 0.50169 0.45874 0.9031 0.0
H940 H 0.22168 0.47139 0.02257 0.0
H941 H 0.19042 0.47498 0.95589 0.0
H942 H 0.19583 0.53724 0.96969 0.0
H943 H 0.22727 0.53359 0.03649 0.0
H944 H 0.16076 0.52422 0.0272 0.0
H945 H 0.17329 0.49142 0.73824 0.0
H946 H 0.18041 0.4756 0.81608 0.0
H947 H 0.19298 0.49824 0.80199 0.0
C948 C 0.21657 0.48585 0.00854 0.0
C949 C 0.22723 0.5022 0.03311 0.0
C950 C 0.1986 0.48791 0.97063 0.0
C951 C 0.19064 0.5064 0.95679 0.0
C952 C 0.2016 0.5228 0.97896 0.0
H953 H 0.08239 0.5252 0.69519 0.0
H954 H 0.11605 0.52502 0.74197 0.0
C955 C 0.21972 0.52073 0.01631 0.0
C956 C 0.17026 0.50846 0.92607 0.0
H957 H 0.14009 0.49523 0.77637 0.0
C958 C 0.15631 0.518 0.97203 0.0
C959 C 0.16428 0.50054 0.85373 0.0
C960 C 0.17857 0.49104 0.79927 0.0
C961 C 0.13666 0.51939 0.94892 0.0
C962 C 0.13049 0.51072 0.87819 0.0
C963 C 0.14457 0.50167 0.83112 0.0
C964 C 0.10965 0.51115 0.85139 0.0
C965 C 0.12275 0.53043 1.00025 0.0
C966 C 0.09456 0.50356 0.89754 0.0
C967 C 0.07515 0.50399 0.87174 0.0
C968 C 0.07027 0.51172 0.79839 0.0
C969 C 0.08544 0.51909 0.75192 0.0
C970 C 0.10479 0.51889 0.7783 0.0
H971 H 0.13052 0.54078 0.03895 0.0
H972 H 0.112 0.53864 0.96511 0.0
H973 H 0.11477 0.52002 0.03766 0.0
H974 H 0.0978 0.4971 0.95344 0.0
H975 H 0.06399 0.49801 0.90905 0.0
H976 H 0.03461 0.80961 0.32552 0.0
H977 H 0.03465 0.83965 0.40087 0.0
H978 H 0.97821 0.82533 0.49287 0.0
H979 H 0.97801 0.79523 0.41538 0.0
H980 H 0.97826 0.86154 0.43797 0.0
H981 H 0.04343 0.8543 0.62293 0.0
H982 H 0.04902 0.84992 0.52272 0.0
H983 H 0.03269 0.83385 0.57327 0.0
C984 C 0.02247 0.81252 0.36382 0.0
C985 C 1.00641 0.79982 0.36509 0.0
C986 C 0.02251 0.82979 0.40721 0.0
C987 C 1.00654 0.83491 0.45387 0.0
C988 C 0.9908 0.82181 0.45791 0.0
H989 H 0.01024 0.94105 0.74244 0.0
H990 H 1.00914 0.90739 0.6971 0.0
C991 C 0.99077 0.80443 0.41432 0.0
C992 C 1.00564 0.85464 0.49177 0.0
H993 H 0.03173 0.88682 0.60275 0.0
C994 C 0.98987 0.86692 0.47479 0.0
C995 C 0.0206 0.86187 0.54084 0.0
C996 C 0.03727 0.84922 0.56673 0.0
C997 C 0.98895 0.88619 0.50289 0.0
C998 C 1.00448 0.89379 0.54799 0.0
C999 C 0.01993 0.8813 0.56724 0.0
C1000 C 1.00496 0.91457 0.57569 0.0
C1001 C 0.97115 0.8981 0.48446 0.0
C1002 C 1.00329 0.93014 0.52301 0.0
C1003 C 1.00381 0.94953 0.54893 0.0
C1004 C 1.00619 0.95397 0.62837 0.0
C1005 C 1.00815 0.93835 0.68093 0.0
C1006 C 1.0076 0.91898 0.65495 0.0
H1007 H 0.95839 0.88871 0.47203 0.0
H1008 H 0.96742 0.908 0.5332 0.0
H1009 H 0.97398 0.90699 0.43188 0.0
H1010 H 1.00182 0.92734 0.46133 0.0
H1011 H 1.00251 0.96104 0.50639 0.0
H1012 H 0.73392 0.0254 0.45797 0.0
H1013 H 0.70313 0.02139 0.529 0.0
H1014 H 0.67864 0.99169 0.33097 0.0
H1015 H 0.70936 0.99531 0.26144 0.0
H1016 H 0.66901 0.03696 0.49053 0.0
H1017 H 0.65849 0.95755 0.49991 0.0
H1018 H 0.68155 0.96839 0.47535 0.0
H1019 H 0.66287 0.96572 0.40257 0.0
C1020 C 0.72222 0.01725 0.43123 0.0
C1021 C 0.72425 0.01018 0.35496 0.0
C1022 C 0.7045 0.01518 0.47137 0.0
C1023 C 0.68843 1.00598 0.43615 0.0
C1024 C 0.69079 0.99833 0.36088 0.0
H1025 H 0.56353 0.99633 0.50527 0.0
H1026 H 0.59718 0.99573 0.45877 0.0
C1027 C 0.70844 1.00037 0.32101 0.0
C1028 C 0.66876 1.00597 0.47424 0.0
H1029 H 0.62982 0.97695 0.51815 0.0
C1030 C 0.66058 0.02377 0.49753 0.0
C1031 C 0.65754 0.98884 0.48351 0.0
C1032 C 0.66565 0.96904 0.46475 0.0
C1033 C 0.64146 0.02501 0.52679 0.0
C1034 C 0.63008 1.00794 0.53398 0.0
C1035 C 0.63836 0.99009 0.51212 0.0
C1036 C 0.60951 1.0083 0.56308 0.0
C1037 C 0.63341 0.04474 0.54719 0.0
C1038 C 0.60504 0.01536 0.63771 0.0
C1039 C 0.58576 0.01571 0.66442 0.0
C1040 C 0.57037 1.00896 0.6176 0.0
C1041 C 0.5749 1.00173 0.54311 0.0
C1042 C 0.59421 1.00133 0.51642 0.0
H1043 H 0.64187 0.05663 0.51965 0.0
H1044 H 0.61799 0.04606 0.52887 0.0
H1045 H 0.63412 0.04679 0.61115 0.0
H1046 H 0.61649 0.02048 0.67579 0.0
H1047 H 0.58294 0.02131 0.72192 0.0
H1048 H 0.5412 0.7307 0.42299 0.0
H1049 H 0.54152 0.70085 0.50178 0.0
H1050 H 0.48832 0.68229 0.39179 0.0
H1051 H 0.48744 0.71231 0.31717 0.0
H1052 H 0.48726 0.67046 0.53206 0.0
H1053 H 0.55987 0.65043 0.41831 0.0
H1054 H 0.56 0.6725 0.47367 0.0
H1055 H 0.54676 0.67131 0.38337 0.0
C1056 C 0.52929 0.72051 0.41756 0.0
C1057 C 0.5144 0.72388 0.3631 0.0
C1058 C 0.52966 0.70319 0.46151 0.0
C1059 C 0.51532 0.68873 0.45112 0.0
C1060 C 0.49974 0.69288 0.40089 0.0
H1061 H 0.52228 0.56338 0.51225 0.0
H1062 H 0.52249 0.59709 0.46658 0.0
C1063 C 0.49925 0.71016 0.358 0.0
C1064 C 0.5166 0.669 0.489 0.0
H1065 H 0.54553 0.62868 0.50717 0.0
C1066 C 0.50011 0.66145 0.52703 0.0
C1067 C 0.53312 0.65678 0.48119 0.0
C1068 C 0.55087 0.66304 0.43629 0.0
C1069 C 0.49961 0.64229 0.55629 0.0
C1070 C 0.51629 0.63034 0.55028 0.0
C1071 C 0.53282 0.63786 0.51294 0.0
C1072 C 0.51654 0.60974 0.57925 0.0
C1073 C 0.48081 0.63451 0.5888 0.0
C1074 C 0.51347 0.60541 0.65825 0.0
C1075 C 0.51324 0.58609 0.68456 0.0
C1076 C 0.51632 0.57051 0.63276 0.0
C1077 C 0.51982 0.5749 0.55398 0.0
C1078 C 0.51997 0.59424 0.52769 0.0
H1079 H 0.46856 0.64482 0.58105 0.0
H1080 H 0.47705 0.62056 0.56001 0.0
H1081 H 0.48247 0.63153 0.6517 0.0
H1082 H 0.51128 0.61701 0.69991 0.0
H1083 H 0.51059 0.58339 0.74568 0.0
H1084 H 0.80055 0.54555 0.37911 0.0
H1085 H 0.83118 0.54572 0.453 0.0
H1086 H 0.83042 0.48317 0.45955 0.0
H1087 H 0.80009 0.48304 0.38445 0.0
H1088 H 0.84543 0.53118 0.59477 0.0
H1089 H 0.881 0.4943 0.34604 0.0
H1090 H 0.85681 0.50421 0.33968 0.0
H1091 H 0.86083 0.48112 0.38584 0.0
C1092 C 0.80658 0.53188 0.39882 0.0
C1093 C 0.7977 0.51429 0.37715 0.0
C1094 C 0.82422 0.53196 0.44051 0.0
C1095 C 0.83347 0.51444 0.46079 0.0
C1096 C 0.82389 0.4969 0.44354 0.0
H1097 H 0.93988 0.50447 0.74817 0.0
H1098 H 0.90625 0.50393 0.70183 0.0
C1099 C 0.80636 0.49682 0.40161 0.0
C1100 C 0.85368 0.51447 0.49438 0.0
H1101 H 0.90017 0.49916 0.45828 0.0
C1102 C 0.85739 0.52415 0.56496 0.0
C1103 C 0.86949 0.50558 0.45527 0.0
C1104 C 0.86695 0.49587 0.37719 0.0
C1105 C 0.87628 0.52506 0.59742 0.0
C1106 C 0.892 0.51579 0.55904 0.0
C1107 C 0.88825 0.50618 0.48838 0.0
C1108 C 0.91257 0.5164 0.58907 0.0
C1109 C 0.87931 0.53655 0.67114 0.0
C1110 C 0.92773 0.52303 0.54096 0.0
C1111 C 0.9471 0.52307 0.56694 0.0
C1112 C 0.95196 0.51653 0.64207 0.0
C1113 C 0.93678 0.50991 0.69037 0.0
C1114 C 0.9174 0.50971 0.66402 0.0
H1115 H 0.86703 0.54659 0.68267 0.0
H1116 H 0.88047 0.52644 0.72112 0.0
H1117 H 0.89295 0.54513 0.66814 0.0
H1118 H 0.92458 0.52819 0.48281 0.0
H1119 H 0.95829 0.52822 0.52782 0.0
loop_
_geom_bond_atom_site_label_1
_geom_bond_atom_site_label_2
_geom_bond_distance
_geom_bond_site_symmetry_2
_ccdc_geom_bond_type
H0 C5 0.930 . S
H1 C8 0.930 . S
H2 C10 0.930 . S
H3 C4 1.016 . S
C4 H3 1.016 . S
C4 N11 1.286 . S
C5 H0 0.930 . S
C5 C6 1.397 . S
C5 C7 1.361 . S
C6 C5 1.397 . S
C6 C10 1.390 . S
C7 C5 1.361 . S
C7 C8 1.393 . S
C7 N11 1.413 . S
C8 H1 0.930 . S
C8 C7 1.393 . S
C8 C9 1.399 . S
C9 C8 1.399 . S
C9 C10 1.381 . S
C10 H2 0.930 . S
C10 C6 1.390 . S
C10 C9 1.381 . S
N11 C4 1.286 . S
N11 C7 1.413 . S
H12 C17 0.930 . S
H13 C20 0.930 . S
H14 C22 0.930 . S
H15 C16 1.016 . S
C16 H15 1.016 . S
C16 N23 1.286 1_655 S
C17 H12 0.930 . S
C17 C18 1.401 . S
C17 C19 1.361 . S
C18 C17 1.401 . S
C18 C22 1.388 1_455 S
C19 C17 1.361 . S
C19 C20 1.393 . S
C19 N23 1.413 . S
C20 H13 0.930 . S
C20 C19 1.393 . S
C20 C21 1.400 1_455 S
C21 C20 1.400 1_655 S
C21 C22 1.380 . S
C22 H14 0.930 . S
C22 C18 1.388 1_655 S
C22 C21 1.380 . S
N23 C16 1.286 1_455 S
N23 C19 1.413 . S
H24 C29 0.930 . S
H25 C32 0.930 . S
H26 C34 0.930 . S
H27 C28 1.016 . S
C28 H27 1.016 . S
C28 N35 1.286 1_565 S
C29 H24 0.930 . S
C29 C30 1.398 1_545 S
C29 C31 1.361 . S
C30 C29 1.398 1_565 S
C30 C34 1.390 . S
C31 C29 1.361 . S
C31 C32 1.393 . S
C31 N35 1.413 . S
C32 H25 0.930 . S
C32 C31 1.393 . S
C32 C33 1.395 1_545 S
C33 C32 1.395 1_565 S
C33 C34 1.384 . S
C34 H26 0.930 . S
C34 C30 1.390 . S
C34 C33 1.384 . S
N35 C28 1.286 1_545 S
N35 C31 1.413 . S
H36 C41 0.930 . S
H37 C44 0.930 . S
H38 C46 0.930 . S
H39 C40 1.016 . S
C40 H39 1.016 . S
C40 N47 1.286 . S
C41 H36 0.930 . S
C41 C42 1.397 . S
C41 C43 1.361 . S
C42 C41 1.397 . S
C42 C46 1.390 . S
C43 C41 1.361 . S
C43 C44 1.393 . S
C43 N47 1.413 . S
C44 H37 0.930 . S
C44 C43 1.393 . S
C44 C45 1.399 . S
C45 C44 1.399 . S
C45 C46 1.381 . S
C46 H38 0.930 . S
C46 C42 1.390 . S
C46 C45 1.381 . S
N47 C40 1.286 . S
N47 C43 1.413 . S
H48 C53 0.930 . S
H49 C56 0.930 . S
H50 C58 0.930 . S
H51 C52 1.016 . S
C52 H51 1.016 . S
C52 N59 1.286 . S
C53 H48 0.930 . S
C53 C54 1.397 . S
C53 C55 1.361 1_556 S
C54 C53 1.397 . S
C54 C58 1.390 1_556 S
C55 C53 1.361 1_554 S
C55 C56 1.393 . S
C55 N59 1.413 . S
C56 H49 0.930 . S
C56 C55 1.393 . S
C56 C57 1.399 . S
C57 C56 1.399 . S
C57 C58 1.381 . S
C58 H50 0.930 . S
C58 C54 1.390 1_554 S
C58 C57 1.381 . S
N59 C52 1.286 . S
N59 C55 1.413 . S
H60 C65 0.930 . S
H61 C68 0.930 . S
H62 C70 0.931 . S
H63 C64 1.001 1_655 S
C64 H63 1.001 1_455 S
C64 N71 1.311 . S
C65 H60 0.930 . S
C65 C66 1.397 . S
C65 C67 1.361 1_556 S
C66 C65 1.397 . S
C66 C70 1.390 1_456 S
C67 C65 1.361 1_554 S
C67 C68 1.393 . S
C67 N71 1.413 . S
C68 H61 0.930 . S
C68 C67 1.393 . S
C68 C69 1.399 . S
C69 C68 1.399 . S
C69 C70 1.381 1_455 S
C70 H62 0.931 . S
C70 C66 1.390 1_654 S
C70 C69 1.381 1_655 S
N71 C64 1.311 . S
N71 C67 1.413 . S
H72 C77 0.930 . S
H73 C80 0.930 . S
H74 C82 0.937 . S
H75 C76 1.009 1_565 S
C76 H75 1.009 1_545 S
C76 N83 1.297 . S
C77 H72 0.930 . S
C77 C78 1.397 . S
C77 C79 1.361 1_556 S
C78 C77 1.397 . S
C78 C82 1.387 1_546 S
C79 C77 1.361 1_554 S
C79 C80 1.393 . S
C79 N83 1.413 . S
C80 H73 0.930 . S
C80 C79 1.393 . S
C80 C81 1.399 . S
C81 C80 1.399 . S
C81 C82 1.378 1_545 S
C82 H74 0.937 . S
C82 C78 1.387 1_564 S
C82 C81 1.378 1_565 S
N83 C76 1.297 . S
N83 C79 1.413 . S
H84 C89 0.930 . S
H85 C92 0.930 . S
H86 C94 0.930 . S
H87 C88 1.016 . S
C88 H87 1.016 . S
C88 N95 1.286 . S
C89 H84 0.930 . S
C89 C90 1.397 . S
C89 C91 1.361 1_556 S
C90 C89 1.397 . S
C90 C94 1.390 1_556 S
C91 C89 1.361 1_554 S
C91 C92 1.393 . S
C91 N95 1.413 . S
C92 H85 0.930 . S
C92 C91 1.393 . S
C92 C93 1.399 . S
C93 C92 1.399 . S
C93 C94 1.381 . S
C94 H86 0.930 . S
C94 C90 1.390 1_554 S
C94 C93 1.381 . S
N95 C88 1.286 . S
N95 C91 1.413 . S
La96 C98 2.928 . S
La96 O116 2.521 . S
La96 O117 2.633 . S
La96 O118 2.554 . S
La96 O119 2.757 1_565 S
La96 O120 2.470 . S
La96 O125 2.482 1_455 S
La96 O127 2.503 1_565 S
La97 C107 2.928 . S
La97 O119 2.482 1_655 S
La97 O121 2.503 1_545 S
La97 O122 2.521 . S
La97 O123 2.614 1_655 S
La97 O124 2.554 . S
La97 O125 2.757 1_545 S
La97 O126 2.470 . S
C98 La96 2.928 . S
C98 C99 1.503 . S
C98 O116 1.261 . S
C98 O117 1.256 . S
C99 C98 1.503 . S
C99 C100 1.394 . S
C99 C104 1.373 . S
C100 C99 1.394 . S
C100 C101 1.380 . S
C100 H128 0.930 . S
C101 C100 1.380 . S
C101 C102 1.376 . S
C101 H129 0.930 . S
C102 C101 1.376 . S
C102 C103 1.370 . S
C103 C102 1.370 . S
C103 C104 1.396 . S
C103 H130 0.929 1_455 S
C104 C99 1.373 . S
C104 C103 1.396 . S
C104 H131 0.929 1_455 S
C105 O118 1.264 . S
C105 O119 1.275 1_565 S
C106 O120 1.258 1_655 S
C106 O121 1.256 . S
C107 La97 2.928 . S
C107 C108 1.503 . S
C107 O122 1.261 . S
C107 O123 1.209 1_655 S
C108 C107 1.503 . S
C108 C109 1.394 . S
C108 C113 1.373 . S
C109 C108 1.394 . S
C109 C110 1.380 . S
C109 H132 0.930 . S
C110 C109 1.380 . S
C110 C111 1.376 . S
C110 H133 0.930 . S
C111 C110 1.376 . S
C111 C112 1.370 . S
C112 C111 1.370 . S
C112 C113 1.396 . S
C112 H134 0.929 1_655 S
C113 C108 1.373 . S
C113 C112 1.396 . S
C113 H135 0.929 1_655 S
C114 O124 1.272 . S
C114 O125 1.271 1_545 S
C115 O126 1.258 1_455 S
C115 O127 1.256 . S
O116 La96 2.521 . S
O116 C98 1.261 . S
O117 La96 2.633 . S
O117 C98 1.256 . S
O118 La96 2.554 . S
O118 C105 1.264 . S
O119 La96 2.757 1_545 S
O119 La97 2.482 1_455 S
O119 C105 1.275 1_545 S
O120 La96 2.470 . S
O120 C106 1.258 1_455 S
O121 La97 2.503 1_565 S
O121 C106 1.256 . S
O122 La97 2.521 . S
O122 C107 1.261 . S
O123 La97 2.614 1_455 S
O123 C107 1.209 1_455 S
O124 La97 2.554 . S
O124 C114 1.272 . S
O125 La96 2.482 1_655 S
O125 La97 2.757 1_565 S
O125 C114 1.271 1_565 S
O126 La97 2.470 . S
O126 C115 1.258 1_655 S
O127 La96 2.503 1_545 S
O127 C115 1.256 . S
H128 C100 0.930 . S
H129 C101 0.930 . S
H130 C103 0.929 1_655 S
H131 C104 0.929 1_655 S
H132 C109 0.930 . S
H133 C110 0.930 . S
H134 C112 0.929 1_455 S
H135 C113 0.929 1_455 S
La136 C138 2.928 . S
La136 O156 2.521 . S
La136 O157 2.629 1_545 S
La136 O158 2.554 . S
La136 O159 2.757 . S
La136 O160 2.470 . S
La136 O165 2.482 1_545 S
La136 O167 2.503 . S
La137 C147 2.928 . S
La137 O159 2.482 1_565 S
La137 O161 2.503 . S
La137 O162 2.521 . S
La137 O163 2.623 1_565 S
La137 O164 2.554 . S
La137 O165 2.757 . S
La137 O166 2.470 . S
C138 La136 2.928 . S
C138 C139 1.503 . S
C138 O156 1.261 . S
C138 O157 1.245 1_545 S
C139 C138 1.503 . S
C139 C140 1.394 . S
C139 C144 1.373 . S
C140 C139 1.394 . S
C140 C141 1.380 . S
C140 H168 0.930 . S
C141 C140 1.380 . S
C141 C142 1.376 . S
C141 H169 0.930 . S
C142 C141 1.376 . S
C142 C143 1.370 . S
C143 C142 1.370 . S
C143 C144 1.396 . S
C143 H170 0.929 1_545 S
C144 C139 1.373 . S
C144 C143 1.396 . S
C144 H171 0.929 1_545 S
C145 O158 1.240 . S
C145 O159 1.289 . S
C146 O160 1.258 1_565 S
C146 O161 1.256 . S
C147 La137 2.928 . S
C147 C148 1.503 . S
C147 O162 1.261 . S
C147 O163 1.232 1_565 S
C148 C147 1.503 . S
C148 C149 1.394 . S
C148 C153 1.373 . S
C149 C148 1.394 . S
C149 C150 1.380 . S
C149 H172 0.930 . S
C150 C149 1.380 . S
C150 C151 1.376 . S
C150 H173 0.930 . S
C151 C150 1.376 . S
C151 C152 1.370 . S
C152 C151 1.370 . S
C152 C153 1.396 . S
C152 H174 0.929 1_565 S
C153 C148 1.373 . S
C153 C152 1.396 . S
C153 H175 0.929 1_565 S
C154 O164 1.240 . S
C154 O165 1.289 . S
C155 O166 1.258 1_545 S
C155 O167 1.256 . S
O156 La136 2.521 . S
O156 C138 1.261 . S
O157 La136 2.629 1_565 S
O157 C138 1.245 1_565 S
O158 La136 2.554 . S
O158 C145 1.240 . S
O159 La136 2.757 . S
O159 La137 2.482 1_545 S
O159 C145 1.289 . S
O160 La136 2.470 . S
O160 C146 1.258 1_545 S
O161 La137 2.503 . S
O161 C146 1.256 . S
O162 La137 2.521 . S
O162 C147 1.261 . S
O163 La137 2.623 1_545 S
O163 C147 1.232 1_545 S
O164 La137 2.554 . S
O164 C154 1.240 . S
O165 La136 2.482 1_565 S
O165 La137 2.757 . S
O165 C154 1.289 . S
O166 La137 2.470 . S
O166 C155 1.258 1_565 S
O167 La136 2.503 . S
O167 C155 1.256 . S
H168 C140 0.930 . S
H169 C141 0.930 . S
H170 C143 0.929 1_565 S
H171 C144 0.929 1_565 S
H172 C149 0.930 . S
H173 C150 0.930 . S
H174 C152 0.929 1_545 S
H175 C153 0.929 1_545 S
La176 C178 2.928 . S
La176 O196 2.521 . S
La176 O197 2.628 . S
La176 O198 2.554 . S
La176 O199 2.757 . S
La176 O200 2.470 . S
La176 O205 2.482 . S
La176 O207 2.503 . S
La177 C187 2.928 . S
La177 O199 2.482 . S
La177 O201 2.503 . S
La177 O202 2.521 . S
La177 O203 2.628 . S
La177 O204 2.554 . S
La177 O205 2.757 . S
La177 O206 2.470 . S
C178 La176 2.928 . S
C178 C179 1.503 . S
C178 O196 1.261 . S
C178 O197 1.243 . S
C179 C178 1.503 . S
C179 C180 1.394 . S
C179 C184 1.373 . S
C180 C179 1.394 . S
C180 C181 1.380 . S
C180 H208 0.930 . S
C181 C180 1.380 . S
C181 C182 1.376 . S
C181 H209 0.930 . S
C182 C181 1.376 . S
C182 C183 1.370 . S
C183 C182 1.370 . S
C183 C184 1.396 . S
C183 H210 0.929 . S
C184 C179 1.373 . S
C184 C183 1.396 . S
C184 H211 0.929 . S
C185 O198 1.240 . S
C185 O199 1.289 . S
C186 O200 1.258 . S
C186 O201 1.256 . S
C187 La177 2.928 . S
C187 C188 1.503 . S
C187 O202 1.261 . S
C187 O203 1.243 . S
C188 C187 1.503 . S
C188 C189 1.394 . S
C188 C193 1.373 . S
C189 C188 1.394 . S
C189 C190 1.380 . S
C189 H212 0.930 . S
C190 C189 1.380 . S
C190 C191 1.376 . S
C190 H213 0.930 . S
C191 C190 1.376 . S
C191 C192 1.370 . S
C192 C191 1.370 . S
C192 C193 1.396 . S
C192 H214 0.929 . S
C193 C188 1.373 . S
C193 C192 1.396 . S
C193 H215 0.929 . S
C194 O204 1.240 . S
C194 O205 1.289 . S
C195 O206 1.258 . S
C195 O207 1.256 . S
O196 La176 2.521 . S
O196 C178 1.261 . S
O197 La176 2.628 . S
O197 C178 1.243 . S
O198 La176 2.554 . S
O198 C185 1.240 . S
O199 La176 2.757 . S
O199 La177 2.482 . S
O199 C185 1.289 . S
O200 La176 2.470 . S
O200 C186 1.258 . S
O201 La177 2.503 . S
O201 C186 1.256 . S
O202 La177 2.521 . S
O202 C187 1.261 . S
O203 La177 2.628 . S
O203 C187 1.243 . S
O204 La177 2.554 . S
O204 C194 1.240 . S
O205 La176 2.482 . S
O205 La177 2.757 . S
O205 C194 1.289 . S
O206 La177 2.470 . S
O206 C195 1.258 . S
O207 La176 2.503 . S
O207 C195 1.256 . S
H208 C180 0.930 . S
H209 C181 0.930 . S
H210 C183 0.929 . S
H211 C184 0.929 . S
H212 C189 0.930 . S
H213 C190 0.930 . S
H214 C192 0.929 . S
H215 C193 0.929 . S
La216 C218 2.928 . S
La216 O236 2.521 . S
La216 O237 2.628 . S
La216 O238 2.554 . S
La216 O239 2.757 1_655 S
La216 O240 2.470 . S
La216 O245 2.482 . S
La216 O247 2.503 1_655 S
La217 C227 2.928 . S
La217 O239 2.482 . S
La217 O241 2.503 1_455 S
La217 O242 2.521 . S
La217 O243 2.628 . S
La217 O244 2.554 . S
La217 O245 2.757 1_455 S
La217 O246 2.470 . S
C218 La216 2.928 . S
C218 C219 1.503 . S
C218 O236 1.261 . S
C218 O237 1.243 . S
C219 C218 1.503 . S
C219 C220 1.394 . S
C219 C224 1.373 . S
C220 C219 1.394 . S
C220 C221 1.380 . S
C220 H248 0.930 . S
C221 C220 1.380 . S
C221 C222 1.376 . S
C221 H249 0.930 . S
C222 C221 1.376 . S
C222 C223 1.370 . S
C223 C222 1.370 . S
C223 C224 1.396 . S
C223 H250 0.929 . S
C224 C219 1.373 . S
C224 C223 1.396 . S
C224 H251 0.929 . S
C225 O238 1.250 . S
C225 O239 1.284 1_655 S
C226 O240 1.258 . S
C226 O241 1.256 . S
C227 La217 2.928 . S
C227 C228 1.503 . S
C227 O242 1.261 . S
C227 O243 1.243 . S
C228 C227 1.503 . S
C228 C229 1.394 . S
C228 C233 1.373 . S
C229 C228 1.394 . S
C229 C230 1.380 . S
C229 H252 0.930 . S
C230 C229 1.380 . S
C230 C231 1.376 . S
C230 H253 0.930 . S
C231 C230 1.376 . S
C231 C232 1.370 . S
C232 C231 1.370 . S
C232 C233 1.396 . S
C232 H254 0.929 . S
C233 C228 1.373 . S
C233 C232 1.396 . S
C233 H255 0.929 . S
C234 O244 1.240 . S
C234 O245 1.289 1_455 S
C235 O246 1.258 . S
C235 O247 1.256 . S
O236 La216 2.521 . S
O236 C218 1.261 . S
O237 La216 2.628 . S
O237 C218 1.243 . S
O238 La216 2.554 . S
O238 C225 1.250 . S
O239 La216 2.757 1_455 S
O239 La217 2.482 . S
O239 C225 1.284 1_455 S
O240 La216 2.470 . S
O240 C226 1.258 . S
O241 La217 2.503 1_655 S
O241 C226 1.256 . S
O242 La217 2.521 . S
O242 C227 1.261 . S
O243 La217 2.628 . S
O243 C227 1.243 . S
O244 La217 2.554 . S
O244 C234 1.240 . S
O245 La216 2.482 . S
O245 La217 2.757 1_655 S
O245 C234 1.289 1_655 S
O246 La217 2.470 . S
O246 C235 1.258 . S
O247 La216 2.503 1_455 S
O247 C235 1.256 . S
H248 C220 0.930 . S
H249 C221 0.930 . S
H250 C223 0.929 . S
H251 C224 0.929 . S
H252 C229 0.930 . S
H253 C230 0.930 . S
H254 C232 0.929 . S
H255 C233 0.929 . S
H256 C264 0.929 . S
H257 C266 0.930 . S
H258 C268 0.930 . S
H259 C271 0.929 . S
H260 C274 0.930 . S
H261 C276 0.960 . S
H262 C276 0.960 . S
H263 C276 0.960 1_545 S
C264 H256 0.929 . S
C264 C265 1.345 1_565 S
C264 C266 1.384 . S
C265 C264 1.345 1_545 S
C265 C271 1.422 . S
C266 H257 0.930 . S
C266 C264 1.384 . S
C266 C267 1.371 1_565 S
C267 C266 1.371 1_545 S
C267 C268 1.400 . S
C267 C272 1.490 . S
C268 H258 0.930 . S
C268 C267 1.400 . S
C268 C271 1.386 . S
H269 C285 0.930 . S
H270 C286 0.931 . S
C271 H259 0.929 . S
C271 C265 1.422 . S
C271 C268 1.386 . S
C272 C267 1.490 . S
C272 C274 1.395 . S
C272 C275 1.402 1_545 S
H273 C279 0.934 . S
C274 H260 0.930 . S
C274 C272 1.395 . S
C274 C277 1.403 . S
C275 C272 1.402 1_565 S
C275 C276 1.524 . S
C275 C279 1.402 . S
C276 H261 0.960 . S
C276 H262 0.960 . S
C276 H263 0.960 1_565 S
C276 C275 1.524 . S
C277 C274 1.403 . S
C277 C278 1.397 . S
C277 C281 1.495 . S
C278 C277 1.397 . S
C278 C279 1.380 1_545 S
C278 C280 1.480 . S
C279 H273 0.934 . S
C279 C275 1.402 . S
C279 C278 1.380 1_565 S
C280 C278 1.480 . S
C280 C282 1.381 1_545 S
C280 C286 1.383 . S
C281 C277 1.495 . S
C281 H287 0.959 . S
C281 H288 0.961 . S
C281 H289 0.960 1_545 S
C282 C280 1.381 1_565 S
C282 C283 1.394 . S
C282 H290 0.930 . S
C283 C282 1.394 . S
C283 C284 1.383 1_565 S
C283 H291 0.929 . S
C284 C283 1.383 1_545 S
C284 C285 1.377 . S
C285 H269 0.930 . S
C285 C284 1.377 . S
C285 C286 1.379 . S
C286 H270 0.931 . S
C286 C280 1.383 . S
C286 C285 1.379 . S
H287 C281 0.959 . S
H288 C281 0.961 . S
H289 C281 0.960 1_565 S
H290 C282 0.930 . S
H291 C283 0.929 . S
H292 C300 0.929 . S
H293 C302 0.930 . S
H294 C304 0.930 . S
H295 C307 0.929 . S
H296 C310 0.930 . S
H297 C312 0.960 . S
H298 C312 0.960 . S
H299 C312 0.960 . S
C300 H292 0.929 . S
C300 C301 1.377 . S
C300 C302 1.384 . S
C301 C300 1.377 . S
C301 C307 1.390 . S
C302 H293 0.930 . S
C302 C300 1.384 . S
C302 C303 1.372 . S
C303 C302 1.372 . S
C303 C304 1.400 . S
C303 C308 1.490 . S
C304 H294 0.930 . S
C304 C303 1.400 . S
C304 C307 1.386 . S
H305 C321 0.930 . S
H306 C322 0.931 . S
C307 H295 0.929 . S
C307 C301 1.390 . S
C307 C304 1.386 . S
C308 C303 1.490 . S
C308 C310 1.395 . S
C308 C311 1.403 . S
H309 C315 0.930 . S
C310 H296 0.930 . S
C310 C308 1.395 . S
C310 C313 1.403 . S
C311 C308 1.403 . S
C311 C312 1.524 . S
C311 C315 1.400 . S
C312 H297 0.960 . S
C312 H298 0.960 . S
C312 H299 0.960 . S
C312 C311 1.524 . S
C313 C310 1.403 . S
C313 C314 1.392 . S
C313 C317 1.495 . S
C314 C313 1.392 . S
C314 C315 1.385 . S
C314 C316 1.478 . S
C315 H309 0.930 . S
C315 C311 1.400 . S
C315 C314 1.385 . S
C316 C314 1.478 . S
C316 C318 1.381 . S
C316 C322 1.383 . S
C317 C313 1.495 . S
C317 H323 0.959 . S
C317 H324 0.961 . S
C317 H325 0.960 . S
C318 C316 1.381 . S
C318 C319 1.394 . S
C318 H326 0.930 . S
C319 C318 1.394 . S
C319 C320 1.383 . S
C319 H327 0.929 . S
C320 C319 1.383 . S
C320 C321 1.377 . S
C321 H305 0.930 . S
C321 C320 1.377 . S
C321 C322 1.379 . S
C322 H306 0.931 . S
C322 C316 1.383 . S
C322 C321 1.379 . S
H323 C317 0.959 . S
H324 C317 0.961 . S
H325 C317 0.960 . S
H326 C318 0.930 . S
H327 C319 0.929 . S
H328 C336 0.929 . S
H329 C338 0.930 . S
H330 C340 0.930 . S
H331 C343 0.929 . S
H332 C346 0.930 . S
H333 C348 0.960 . S
H334 C348 0.960 . S
H335 C348 0.960 . S
C336 H328 0.929 . S
C336 C337 1.377 . S
C336 C338 1.384 . S
C337 C336 1.377 . S
C337 C343 1.390 . S
C338 H329 0.930 . S
C338 C336 1.384 . S
C338 C339 1.372 . S
C339 C338 1.372 . S
C339 C340 1.400 . S
C339 C344 1.490 . S
C340 H330 0.930 . S
C340 C339 1.400 . S
C340 C343 1.386 . S
H341 C357 0.930 . S
H342 C358 0.931 . S
C343 H331 0.929 . S
C343 C337 1.390 . S
C343 C340 1.386 . S
C344 C339 1.490 . S
C344 C346 1.395 . S
C344 C347 1.403 . S
H345 C351 0.930 . S
C346 H332 0.930 . S
C346 C344 1.395 . S
C346 C349 1.403 . S
C347 C344 1.403 . S
C347 C348 1.524 . S
C347 C351 1.400 . S
C348 H333 0.960 . S
C348 H334 0.960 . S
C348 H335 0.960 . S
C348 C347 1.524 . S
C349 C346 1.403 . S
C349 C350 1.392 . S
C349 C353 1.495 . S
C350 C349 1.392 . S
C350 C351 1.385 . S
C350 C352 1.478 . S
C351 H345 0.930 . S
C351 C347 1.400 . S
C351 C350 1.385 . S
C352 C350 1.478 . S
C352 C354 1.381 . S
C352 C358 1.383 . S
C353 C349 1.495 . S
C353 H359 0.959 . S
C353 H360 0.961 . S
C353 H361 0.960 . S
C354 C352 1.381 . S
C354 C355 1.394 . S
C354 H362 0.930 . S
C355 C354 1.394 . S
C355 C356 1.383 . S
C355 H363 0.929 . S
C356 C355 1.383 . S
C356 C357 1.377 . S
C357 H341 0.930 . S
C357 C356 1.377 . S
C357 C358 1.379 . S
C358 H342 0.931 . S
C358 C352 1.383 . S
C358 C357 1.379 . S
H359 C353 0.959 . S
H360 C353 0.961 . S
H361 C353 0.960 . S
H362 C354 0.930 . S
H363 C355 0.929 . S
H364 C372 0.929 . S
H365 C374 0.930 . S
H366 C376 0.930 . S
H367 C379 0.929 . S
H368 C382 0.932 . S
H369 C384 0.960 . S
H370 C384 0.960 . S
H371 C384 0.960 1_655 S
C372 H364 0.929 . S
C372 C373 1.377 . S
C372 C374 1.384 . S
C373 C372 1.377 . S
C373 C379 1.390 1_455 S
C374 H365 0.930 . S
C374 C372 1.384 . S
C374 C375 1.372 . S
C375 C374 1.372 . S
C375 C376 1.400 1_455 S
C375 C380 1.490 . S
C376 H366 0.930 . S
C376 C375 1.400 1_655 S
C376 C379 1.386 . S
H377 C393 0.930 . S
H378 C394 0.931 . S
C379 H367 0.929 . S
C379 C373 1.390 1_655 S
C379 C376 1.386 . S
C380 C375 1.490 . S
C380 C382 1.395 . S
C380 C383 1.403 . S
H381 C387 0.930 . S
C382 H368 0.932 . S
C382 C380 1.395 . S
C382 C385 1.405 . S
C383 C380 1.403 . S
C383 C384 1.524 . S
C383 C387 1.400 . S
C384 H369 0.960 . S
C384 H370 0.960 . S
C384 H371 0.960 1_455 S
C384 C383 1.524 . S
C385 C382 1.405 . S
C385 C386 1.396 . S
C385 C389 1.490 1_455 S
C386 C385 1.396 . S
C386 C387 1.385 . S
C386 C388 1.478 . S
C387 H381 0.930 . S
C387 C383 1.400 . S
C387 C386 1.385 . S
C388 C386 1.478 . S
C388 C390 1.381 . S
C388 C394 1.383 1_455 S
C389 C385 1.490 1_655 S
C389 H395 0.963 . S
C389 H396 1.009 . S
C389 H397 0.915 1_655 S
C390 C388 1.381 . S
C390 C391 1.394 . S
C390 H398 0.930 . S
C391 C390 1.394 . S
C391 C392 1.383 . S
C391 H399 0.929 . S
C392 C391 1.383 . S
C392 C393 1.377 1_455 S
C393 H377 0.930 . S
C393 C392 1.377 1_655 S
C393 C394 1.379 . S
C394 H378 0.931 . S
C394 C388 1.383 1_655 S
C394 C393 1.379 . S
H395 C389 0.963 . S
H396 C389 1.009 . S
H397 C389 0.915 1_455 S
H398 C390 0.930 . S
H399 C391 0.929 . S
H400 C408 0.929 . S
H401 C410 0.930 . S
H402 C412 0.930 . S
H403 C415 0.929 . S
H404 C418 0.930 . S
H405 C420 0.960 . S
H406 C420 0.960 1_565 S
H407 C420 0.960 . S
C408 H400 0.929 . S
C408 C409 1.377 . S
C408 C410 1.384 . S
C409 C408 1.377 . S
C409 C415 1.390 1_565 S
C410 H401 0.930 . S
C410 C408 1.384 . S
C410 C411 1.372 . S
C411 C410 1.372 . S
C411 C412 1.400 1_565 S
C411 C416 1.490 . S
C412 H402 0.930 . S
C412 C411 1.400 1_545 S
C412 C415 1.386 . S
H413 C429 0.930 . S
H414 C430 0.931 . S
C415 H403 0.929 . S
C415 C409 1.390 1_545 S
C415 C412 1.386 . S
C416 C411 1.490 . S
C416 C418 1.395 . S
C416 C419 1.396 1_565 S
H417 C423 0.941 . S
C418 H404 0.930 . S
C418 C416 1.395 . S
C418 C421 1.403 1_554 S
C419 C416 1.396 1_545 S
C419 C420 1.531 . S
C419 C423 1.400 . S
C420 H405 0.960 . S
C420 H406 0.960 1_545 S
C420 H407 0.960 . S
C420 C419 1.531 . S
C421 C418 1.403 1_556 S
C421 C422 1.392 . S
C421 C425 1.495 . S
C422 C421 1.392 . S
C422 C423 1.378 1_566 S
C422 C424 1.478 . S
C423 H417 0.941 . S
C423 C419 1.400 . S
C423 C422 1.378 1_544 S
C424 C422 1.478 . S
C424 C426 1.381 . S
C424 C430 1.383 1_565 S
C425 C421 1.495 . S
C425 H431 0.959 . S
C425 H432 0.961 1_565 S
C425 H433 0.960 . S
C426 C424 1.381 . S
C426 C427 1.394 . S
C426 H434 0.930 . S
C427 C426 1.394 . S
C427 C428 1.383 . S
C427 H435 0.929 . S
C428 C427 1.383 . S
C428 C429 1.377 1_565 S
C429 H413 0.930 . S
C429 C428 1.377 1_545 S
C429 C430 1.379 . S
C430 H414 0.931 . S
C430 C424 1.383 1_545 S
C430 C429 1.379 . S
H431 C425 0.959 . S
H432 C425 0.961 1_545 S
H433 C425 0.960 . S
H434 C426 0.930 . S
H435 C427 0.929 . S
H436 C444 0.929 . S
H437 C446 0.930 . S
H438 C448 0.930 . S
H439 C451 0.929 . S
H440 C454 0.930 . S
H441 C456 0.960 1_556 S
H442 C456 0.960 . S
H443 C456 0.960 . S
C444 H436 0.929 . S
C444 C445 1.377 . S
C444 C446 1.384 . S
C445 C444 1.377 . S
C445 C451 1.390 . S
C446 H437 0.930 . S
C446 C444 1.384 . S
C446 C447 1.372 . S
C447 C446 1.372 . S
C447 C448 1.400 . S
C447 C452 1.490 . S
C448 H438 0.930 . S
C448 C447 1.400 . S
C448 C451 1.386 . S
H449 C465 0.930 . S
H450 C466 0.931 . S
C451 H439 0.929 . S
C451 C445 1.390 . S
C451 C448 1.386 . S
C452 C447 1.490 . S
C452 C454 1.395 . S
C452 C455 1.403 . S
H453 C459 0.930 . S
C454 H440 0.930 . S
C454 C452 1.395 . S
C454 C457 1.403 . S
C455 C452 1.403 . S
C455 C456 1.524 . S
C455 C459 1.400 1_554 S
C456 H441 0.960 1_554 S
C456 H442 0.960 . S
C456 H443 0.960 . S
C456 C455 1.524 . S
C457 C454 1.403 . S
C457 C458 1.392 . S
C457 C461 1.495 . S
C458 C457 1.392 . S
C458 C459 1.385 1_554 S
C458 C460 1.478 1_554 S
C459 H453 0.930 . S
C459 C455 1.400 1_556 S
C459 C458 1.385 1_556 S
C460 C458 1.478 1_556 S
C460 C462 1.381 . S
C460 C466 1.383 . S
C461 C457 1.495 . S
C461 H467 0.959 . S
C461 H468 0.961 . S
C461 H469 0.960 . S
C462 C460 1.381 . S
C462 C463 1.394 . S
C462 H470 0.930 . S
C463 C462 1.394 . S
C463 C464 1.383 . S
C463 H471 0.929 . S
C464 C463 1.383 . S
C464 C465 1.377 . S
C465 H449 0.930 . S
C465 C464 1.377 . S
C465 C466 1.379 . S
C466 H450 0.931 . S
C466 C460 1.383 . S
C466 C465 1.379 . S
H467 C461 0.959 . S
H468 C461 0.961 . S
H469 C461 0.960 . S
H470 C462 0.930 . S
H471 C463 0.929 . S
H472 C480 0.929 . S
H473 C482 0.930 . S
H474 C484 0.930 . S
H475 C487 0.929 . S
H476 C490 0.930 . S
H477 C492 0.960 . S
H478 C492 0.960 . S
H479 C492 0.960 . S
C480 H472 0.929 . S
C480 C481 1.377 . S
C480 C482 1.384 . S
C481 C480 1.377 . S
C481 C487 1.390 . S
C482 H473 0.930 . S
C482 C480 1.384 . S
C482 C483 1.372 . S
C483 C482 1.372 . S
C483 C484 1.400 . S
C483 C488 1.490 . S
C484 H474 0.930 . S
C484 C483 1.400 . S
C484 C487 1.386 . S
H485 C501 0.930 . S
H486 C502 0.931 . S
C487 H475 0.929 . S
C487 C481 1.390 . S
C487 C484 1.386 . S
C488 C483 1.490 . S
C488 C490 1.395 . S
C488 C491 1.403 . S
H489 C495 0.930 . S
C490 H476 0.930 . S
C490 C488 1.395 . S
C490 C493 1.403 1_554 S
C491 C488 1.403 . S
C491 C492 1.524 . S
C491 C495 1.400 . S
C492 H477 0.960 . S
C492 H478 0.960 . S
C492 H479 0.960 . S
C492 C491 1.524 . S
C493 C490 1.403 1_556 S
C493 C494 1.392 . S
C493 C497 1.495 . S
C494 C493 1.392 . S
C494 C495 1.385 1_556 S
C494 C496 1.478 . S
C495 H489 0.930 . S
C495 C491 1.400 . S
C495 C494 1.385 1_554 S
C496 C494 1.478 . S
C496 C498 1.381 . S
C496 C502 1.383 . S
C497 C493 1.495 . S
C497 H503 0.959 . S
C497 H504 0.961 . S
C497 H505 0.960 . S
C498 C496 1.381 . S
C498 C499 1.394 . S
C498 H506 0.930 . S
C499 C498 1.394 . S
C499 C500 1.383 . S
C499 H507 0.929 . S
C500 C499 1.383 . S
C500 C501 1.377 . S
C501 H485 0.930 . S
C501 C500 1.377 . S
C501 C502 1.379 . S
C502 H486 0.931 . S
C502 C496 1.383 . S
C502 C501 1.379 . S
H503 C497 0.959 . S
H504 C497 0.961 . S
H505 C497 0.960 . S
H506 C498 0.930 . S
H507 C499 0.929 . S
H508 C516 0.929 . S
H509 C518 0.930 . S
H510 C520 0.930 . S
H511 C523 0.929 . S
H512 C526 0.930 . S
H513 C528 0.960 . S
H514 C528 0.960 . S
H515 C528 0.960 . S
C516 H508 0.929 . S
C516 C517 1.380 . S
C516 C518 1.384 . S
C517 C516 1.380 . S
C517 C523 1.388 1_655 S
C518 H509 0.930 . S
C518 C516 1.384 . S
C518 C519 1.378 . S
C519 C518 1.378 . S
C519 C520 1.394 1_655 S
C519 C524 1.491 . S
C520 H510 0.930 . S
C520 C519 1.394 1_455 S
C520 C523 1.386 . S
H521 C537 0.929 1_455 S
H522 C538 0.931 . S
C523 H511 0.929 . S
C523 C517 1.388 1_455 S
C523 C520 1.386 . S
C524 C519 1.491 . S
C524 C526 1.395 . S
C524 C527 1.403 1_655 S
H525 C531 0.930 1_556 S
C526 H512 0.930 . S
C526 C524 1.395 . S
C526 C529 1.403 . S
C527 C524 1.403 1_455 S
C527 C528 1.524 . S
C527 C531 1.400 . S
C528 H513 0.960 . S
C528 H514 0.960 . S
C528 H515 0.960 . S
C528 C527 1.524 . S
C529 C526 1.403 . S
C529 C530 1.392 . S
C529 C533 1.495 . S
C530 C529 1.392 . S
C530 C531 1.385 1_655 S
C530 C532 1.478 1_554 S
C531 H525 0.930 1_554 S
C531 C527 1.400 . S
C531 C530 1.385 1_455 S
C532 C530 1.478 1_556 S
C532 C534 1.381 . S
C532 C538 1.383 . S
C533 C529 1.495 . S
C533 H539 0.959 . S
C533 H540 0.961 1_554 S
C533 H541 0.960 . S
C534 C532 1.381 . S
C534 C535 1.394 . S
C534 H542 0.930 1_556 S
C535 C534 1.394 . S
C535 C536 1.383 . S
C535 H543 0.929 . S
C536 C535 1.383 . S
C536 C537 1.377 . S
C537 H521 0.929 1_655 S
C537 C536 1.377 . S
C537 C538 1.379 . S
C538 H522 0.931 . S
C538 C532 1.383 . S
C538 C537 1.379 . S
H539 C533 0.959 . S
H540 C533 0.961 1_556 S
H541 C533 0.960 . S
H542 C534 0.930 1_554 S
H543 C535 0.929 . S
H544 C552 0.929 . S
H545 C554 0.932 . S
H546 C556 0.930 . S
H547 C559 0.929 . S
H548 C562 0.930 . S
H549 C564 0.960 . S
H550 C564 0.960 . S
H551 C564 0.960 . S
C552 H544 0.929 . S
C552 C553 1.377 . S
C552 C554 1.389 . S
C553 C552 1.377 . S
C553 C559 1.390 1_455 S
C554 H545 0.932 . S
C554 C552 1.389 . S
C554 C555 1.366 1_455 S
C555 C554 1.366 1_655 S
C555 C556 1.400 . S
C555 C560 1.490 . S
C556 H546 0.930 . S
C556 C555 1.400 . S
C556 C559 1.386 . S
H557 C573 0.930 . S
H558 C574 0.931 . S
C559 H547 0.929 . S
C559 C553 1.390 1_655 S
C559 C556 1.386 . S
C560 C555 1.490 . S
C560 C562 1.395 . S
C560 C563 1.403 1_655 S
H561 C567 0.930 1_455 S
C562 H548 0.930 . S
C562 C560 1.395 . S
C562 C565 1.403 . S
C563 C560 1.403 1_455 S
C563 C564 1.524 . S
C563 C567 1.400 1_455 S
C564 H549 0.960 . S
C564 H550 0.960 . S
C564 H551 0.960 . S
C564 C563 1.524 . S
C565 C562 1.403 . S
C565 C566 1.392 . S
C565 C569 1.495 . S
C566 C565 1.392 . S
C566 C567 1.385 . S
C566 C568 1.478 . S
C567 H561 0.930 1_655 S
C567 C563 1.400 1_655 S
C567 C566 1.385 . S
C568 C566 1.478 . S
C568 C570 1.381 . S
C568 C574 1.383 . S
C569 C565 1.495 . S
C569 H575 0.959 . S
C569 H576 0.961 . S
C569 H577 0.960 . S
C570 C568 1.381 . S
C570 C571 1.394 . S
C570 H578 0.930 . S
C571 C570 1.394 . S
C571 C572 1.383 . S
C571 H579 0.929 . S
C572 C571 1.383 . S
C572 C573 1.377 . S
C573 H557 0.930 . S
C573 C572 1.377 . S
C573 C574 1.379 . S
C574 H558 0.931 . S
C574 C568 1.383 . S
C574 C573 1.379 . S
H575 C569 0.959 . S
H576 C569 0.961 . S
H577 C569 0.960 . S
H578 C570 0.930 . S
H579 C571 0.929 . S
H580 C588 0.930 . S
H581 C590 0.930 . S
H582 C592 0.930 . S
H583 C595 0.929 . S
H584 C598 0.930 . S
H585 C600 0.960 . S
H586 C600 0.960 . S
H587 C600 0.960 . S
C588 H580 0.930 . S
C588 C589 1.379 . S
C588 C590 1.381 1_545 S
C589 C588 1.379 . S
C589 C595 1.390 . S
C590 H581 0.930 . S
C590 C588 1.381 1_565 S
C590 C591 1.372 . S
C591 C590 1.372 . S
C591 C592 1.400 . S
C591 C596 1.490 . S
C592 H582 0.930 . S
C592 C591 1.400 . S
C592 C595 1.386 1_565 S
H593 C609 0.930 . S
H594 C610 0.931 . S
C595 H583 0.929 . S
C595 C589 1.390 . S
C595 C592 1.386 1_545 S
C596 C591 1.490 . S
C596 C598 1.395 . S
C596 C599 1.403 1_565 S
H597 C603 0.930 1_545 S
C598 H584 0.930 . S
C598 C596 1.395 . S
C598 C601 1.403 . S
C599 C596 1.403 1_545 S
C599 C600 1.524 . S
C599 C603 1.400 1_545 S
C600 H585 0.960 . S
C600 H586 0.960 . S
C600 H587 0.960 . S
C600 C599 1.524 . S
C601 C598 1.403 . S
C601 C602 1.392 . S
C601 C605 1.495 . S
C602 C601 1.392 . S
C602 C603 1.385 . S
C602 C604 1.478 . S
C603 H597 0.930 1_565 S
C603 C599 1.400 1_565 S
C603 C602 1.385 . S
C604 C602 1.478 . S
C604 C606 1.381 . S
C604 C610 1.383 . S
C605 C601 1.495 . S
C605 H611 0.959 . S
C605 H612 0.961 . S
C605 H613 0.960 . S
C606 C604 1.381 . S
C606 C607 1.394 . S
C606 H614 0.930 . S
C607 C606 1.394 . S
C607 C608 1.383 . S
C607 H615 0.929 . S
C608 C607 1.383 . S
C608 C609 1.377 . S
C609 H593 0.930 . S
C609 C608 1.377 . S
C609 C610 1.379 . S
C610 H594 0.931 . S
C610 C604 1.383 . S
C610 C609 1.379 . S
H611 C605 0.959 . S
H612 C605 0.961 . S
H613 C605 0.960 . S
H614 C606 0.930 . S
H615 C607 0.929 . S
H616 C624 0.929 . S
H617 C626 0.930 . S
H618 C628 0.930 . S
H619 C631 0.929 . S
H620 C634 0.930 . S
H621 C636 0.960 . S
H622 C636 0.960 . S
H623 C636 0.960 . S
C624 H616 0.929 . S
C624 C625 1.377 . S
C624 C626 1.384 . S
C625 C624 1.377 . S
C625 C631 1.390 . S
C626 H617 0.930 . S
C626 C624 1.384 . S
C626 C627 1.372 . S
C627 C626 1.372 . S
C627 C628 1.400 . S
C627 C632 1.490 . S
C628 H618 0.930 . S
C628 C627 1.400 . S
C628 C631 1.386 . S
H629 C645 0.930 . S
H630 C646 0.931 . S
C631 H619 0.929 . S
C631 C625 1.390 . S
C631 C628 1.386 . S
C632 C627 1.490 . S
C632 C634 1.395 . S
C632 C635 1.403 . S
H633 C639 0.930 . S
C634 H620 0.930 . S
C634 C632 1.395 . S
C634 C637 1.403 . S
C635 C632 1.403 . S
C635 C636 1.524 . S
C635 C639 1.400 . S
C636 H621 0.960 . S
C636 H622 0.960 . S
C636 H623 0.960 . S
C636 C635 1.524 . S
C637 C634 1.403 . S
C637 C638 1.392 . S
C637 C641 1.495 . S
C638 C637 1.392 . S
C638 C639 1.385 . S
C638 C640 1.478 . S
C639 H633 0.930 . S
C639 C635 1.400 . S
C639 C638 1.385 . S
C640 C638 1.478 . S
C640 C642 1.381 . S
C640 C646 1.383 . S
C641 C637 1.495 . S
C641 H647 0.959 . S
C641 H648 0.961 . S
C641 H649 0.960 . S
C642 C640 1.381 . S
C642 C643 1.394 . S
C642 H650 0.930 . S
C643 C642 1.394 . S
C643 C644 1.383 . S
C643 H651 0.929 . S
C644 C643 1.383 . S
C644 C645 1.377 . S
C645 H629 0.930 . S
C645 C644 1.377 . S
C645 C646 1.379 . S
C646 H630 0.931 . S
C646 C640 1.383 . S
C646 C645 1.379 . S
H647 C641 0.959 . S
H648 C641 0.961 . S
H649 C641 0.960 . S
H650 C642 0.930 . S
H651 C643 0.929 . S
H652 C660 0.929 . S
H653 C662 0.930 . S
H654 C664 0.930 . S
H655 C667 0.929 . S
H656 C670 0.930 . S
H657 C672 0.960 . S
H658 C672 0.960 . S
H659 C672 0.960 . S
C660 H652 0.929 . S
C660 C661 1.377 . S
C660 C662 1.384 . S
C661 C660 1.377 . S
C661 C667 1.390 . S
C662 H653 0.930 . S
C662 C660 1.384 . S
C662 C663 1.372 . S
C663 C662 1.372 . S
C663 C664 1.400 . S
C663 C668 1.490 . S
C664 H654 0.930 . S
C664 C663 1.400 . S
C664 C667 1.386 . S
H665 C681 0.930 . S
H666 C682 0.931 . S
C667 H655 0.929 . S
C667 C661 1.390 . S
C667 C664 1.386 . S
C668 C663 1.490 . S
C668 C670 1.395 . S
C668 C671 1.403 . S
H669 C675 0.930 . S
C670 H656 0.930 . S
C670 C668 1.395 . S
C670 C673 1.403 . S
C671 C668 1.403 . S
C671 C672 1.524 . S
C671 C675 1.400 . S
C672 H657 0.960 . S
C672 H658 0.960 . S
C672 H659 0.960 . S
C672 C671 1.524 . S
C673 C670 1.403 . S
C673 C674 1.392 . S
C673 C677 1.495 . S
C674 C673 1.392 . S
C674 C675 1.385 . S
C674 C676 1.478 . S
C675 H669 0.930 . S
C675 C671 1.400 . S
C675 C674 1.385 . S
C676 C674 1.478 . S
C676 C678 1.381 . S
C676 C682 1.383 . S
C677 C673 1.495 . S
C677 H683 0.959 . S
C677 H684 0.961 . S
C677 H685 0.960 . S
C678 C676 1.381 . S
C678 C679 1.394 . S
C678 H686 0.930 . S
C679 C678 1.394 . S
C679 C680 1.383 . S
C679 H687 0.929 . S
C680 C679 1.383 . S
C680 C681 1.377 . S
C681 H665 0.930 . S
C681 C680 1.377 . S
C681 C682 1.379 . S
C682 H666 0.931 . S
C682 C676 1.383 . S
C682 C681 1.379 . S
H683 C677 0.959 . S
H684 C677 0.961 . S
H685 C677 0.960 . S
H686 C678 0.930 . S
H687 C679 0.929 . S
H688 C696 0.929 . S
H689 C698 0.930 . S
H690 C700 0.930 . S
H691 C703 0.929 . S
H692 C706 0.930 1_655 S
H693 C708 0.960 . S
H694 C708 0.960 . S
H695 C708 0.960 . S
C696 H688 0.929 . S
C696 C697 1.377 1_455 S
C696 C698 1.384 . S
C697 C696 1.377 1_655 S
C697 C703 1.390 . S
C698 H689 0.930 . S
C698 C696 1.384 . S
C698 C699 1.372 . S
C699 C698 1.372 . S
C699 C700 1.400 1_455 S
C699 C704 1.490 . S
C700 H690 0.930 . S
C700 C699 1.400 1_655 S
C700 C703 1.386 . S
H701 C717 0.930 . S
H702 C718 0.931 1_655 S
C703 H691 0.929 . S
C703 C697 1.390 . S
C703 C700 1.386 . S
C704 C699 1.490 . S
C704 C706 1.395 . S
C704 C707 1.403 . S
H705 C711 0.930 . S
C706 H692 0.930 1_455 S
C706 C704 1.395 . S
C706 C709 1.403 . S
C707 C704 1.403 . S
C707 C708 1.524 . S
C707 C711 1.400 . S
C708 H693 0.960 . S
C708 H694 0.960 . S
C708 H695 0.960 . S
C708 C707 1.524 . S
C709 C706 1.403 . S
C709 C710 1.392 . S
C709 C713 1.495 1_554 S
C710 C709 1.392 . S
C710 C711 1.385 . S
C710 C712 1.478 . S
C711 H705 0.930 . S
C711 C707 1.400 . S
C711 C710 1.385 . S
C712 C710 1.478 . S
C712 C714 1.381 1_554 S
C712 C718 1.383 . S
C713 C709 1.495 1_556 S
C713 H719 0.959 1_455 S
C713 H720 0.961 1_455 S
C713 H721 0.960 . S
C714 C712 1.381 1_556 S
C714 C715 1.394 . S
C714 H722 0.930 . S
C715 C714 1.394 . S
C715 C716 1.383 . S
C715 H723 0.929 . S
C716 C715 1.383 . S
C716 C717 1.377 1_556 S
C717 H701 0.930 . S
C717 C716 1.377 1_554 S
C717 C718 1.379 . S
C718 H702 0.931 1_455 S
C718 C712 1.383 . S
C718 C717 1.379 . S
H719 C713 0.959 1_655 S
H720 C713 0.961 1_655 S
H721 C713 0.960 . S
H722 C714 0.930 . S
H723 C715 0.929 . S
H724 C732 0.929 . S
H725 C734 0.930 . S
H726 C736 0.930 . S
H727 C739 0.929 . S
H728 C742 0.930 . S
H729 C744 0.960 . S
H730 C744 0.960 . S
H731 C744 0.960 . S
C732 H724 0.929 . S
C732 C733 1.377 1_545 S
C732 C734 1.384 . S
C733 C732 1.377 1_565 S
C733 C739 1.390 . S
C734 H725 0.930 . S
C734 C732 1.384 . S
C734 C735 1.372 . S
C735 C734 1.372 . S
C735 C736 1.400 1_545 S
C735 C740 1.490 . S
C736 H726 0.930 . S
C736 C735 1.400 1_565 S
C736 C739 1.386 . S
H737 C753 0.930 . S
H738 C754 0.931 . S
C739 H727 0.929 . S
C739 C733 1.390 . S
C739 C736 1.386 . S
C740 C735 1.490 . S
C740 C742 1.395 . S
C740 C743 1.403 1_545 S
H741 C747 0.930 1_565 S
C742 H728 0.930 . S
C742 C740 1.395 . S
C742 C745 1.403 . S
C743 C740 1.403 1_565 S
C743 C744 1.524 . S
C743 C747 1.400 1_565 S
C744 H729 0.960 . S
C744 H730 0.960 . S
C744 H731 0.960 . S
C744 C743 1.524 . S
C745 C742 1.403 . S
C745 C746 1.392 . S
C745 C749 1.495 . S
C746 C745 1.392 . S
C746 C747 1.385 . S
C746 C748 1.478 . S
C747 H741 0.930 1_545 S
C747 C743 1.400 1_545 S
C747 C746 1.385 . S
C748 C746 1.478 . S
C748 C750 1.381 . S
C748 C754 1.383 1_554 S
C749 C745 1.495 . S
C749 H755 0.959 . S
C749 H756 0.961 . S
C749 H757 0.960 . S
C750 C748 1.381 . S
C750 C751 1.394 . S
C750 H758 0.930 . S
C751 C750 1.394 . S
C751 C752 1.383 1_554 S
C751 H759 0.929 . S
C752 C751 1.383 1_556 S
C752 C753 1.377 . S
C753 H737 0.930 . S
C753 C752 1.377 . S
C753 C754 1.379 . S
C754 H738 0.931 . S
C754 C748 1.383 1_556 S
C754 C753 1.379 . S
H755 C749 0.959 . S
H756 C749 0.961 . S
H757 C749 0.960 . S
H758 C750 0.930 . S
H759 C751 0.929 . S
H760 C768 0.929 . S
H761 C770 0.930 . S
H762 C772 0.930 . S
H763 C775 0.929 . S
H764 C778 0.930 . S
H765 C780 0.960 . S
H766 C780 0.960 . S
H767 C780 0.960 . S
C768 H760 0.929 . S
C768 C769 1.377 . S
C768 C770 1.384 . S
C769 C768 1.377 . S
C769 C775 1.390 . S
C770 H761 0.930 . S
C770 C768 1.384 . S
C770 C771 1.372 . S
C771 C770 1.372 . S
C771 C772 1.400 . S
C771 C776 1.490 . S
C772 H762 0.930 . S
C772 C771 1.400 . S
C772 C775 1.386 . S
H773 C789 0.930 . S
H774 C790 0.931 . S
C775 H763 0.929 . S
C775 C769 1.390 . S
C775 C772 1.386 . S
C776 C771 1.490 . S
C776 C778 1.395 . S
C776 C779 1.403 . S
H777 C783 0.930 . S
C778 H764 0.930 . S
C778 C776 1.395 . S
C778 C781 1.403 . S
C779 C776 1.403 . S
C779 C780 1.524 . S
C779 C783 1.400 . S
C780 H765 0.960 . S
C780 H766 0.960 . S
C780 H767 0.960 . S
C780 C779 1.524 . S
C781 C778 1.403 . S
C781 C782 1.392 . S
C781 C785 1.495 . S
C782 C781 1.392 . S
C782 C783 1.385 . S
C782 C784 1.478 . S
C783 H777 0.930 . S
C783 C779 1.400 . S
C783 C782 1.385 . S
C784 C782 1.478 . S
C784 C786 1.381 1_554 S
C784 C790 1.383 . S
C785 C781 1.495 . S
C785 H791 0.960 . S
C785 H792 0.961 . S
C785 H793 0.960 1_554 S
C786 C784 1.381 1_556 S
C786 C787 1.394 . S
C786 H794 0.930 . S
C787 C786 1.394 . S
C787 C788 1.383 . S
C787 H795 0.929 . S
C788 C787 1.383 . S
C788 C789 1.377 1_556 S
C789 H773 0.930 . S
C789 C788 1.377 1_554 S
C789 C790 1.379 . S
C790 H774 0.931 . S
C790 C784 1.383 . S
C790 C789 1.379 . S
H791 C785 0.960 . S
H792 C785 0.961 . S
H793 C785 0.960 1_556 S
H794 C786 0.930 . S
H795 C787 0.929 . S
H796 C804 0.929 . S
H797 C806 0.930 . S
H798 C808 0.930 . S
H799 C811 0.929 . S
H800 C814 0.930 . S
H801 C816 0.960 . S
H802 C816 0.960 . S
H803 C816 0.960 . S
C804 H796 0.929 . S
C804 C805 1.377 . S
C804 C806 1.384 . S
C805 C804 1.377 . S
C805 C811 1.390 . S
C806 H797 0.930 . S
C806 C804 1.384 . S
C806 C807 1.372 . S
C807 C806 1.372 . S
C807 C808 1.400 . S
C807 C812 1.490 . S
C808 H798 0.930 . S
C808 C807 1.400 . S
C808 C811 1.386 . S
H809 C825 0.930 . S
H810 C826 0.931 . S
C811 H799 0.929 . S
C811 C805 1.390 . S
C811 C808 1.386 . S
C812 C807 1.490 . S
C812 C814 1.395 . S
C812 C815 1.403 . S
H813 C819 0.930 . S
C814 H800 0.930 . S
C814 C812 1.395 . S
C814 C817 1.403 . S
C815 C812 1.403 . S
C815 C816 1.524 . S
C815 C819 1.400 . S
C816 H801 0.960 . S
C816 H802 0.960 . S
C816 H803 0.960 . S
C816 C815 1.524 . S
C817 C814 1.403 . S
C817 C818 1.392 . S
C817 C821 1.495 1_554 S
C818 C817 1.392 . S
C818 C819 1.385 . S
C818 C820 1.478 . S
C819 H813 0.930 . S
C819 C815 1.400 . S
C819 C818 1.385 . S
C820 C818 1.478 . S
C820 C822 1.381 . S
C820 C826 1.383 . S
C821 C817 1.495 1_556 S
C821 H827 0.959 . S
C821 H828 0.961 . S
C821 H829 0.960 . S
C822 C820 1.381 . S
C822 C823 1.394 . S
C822 H830 0.930 . S
C823 C822 1.394 . S
C823 C824 1.383 1_554 S
C823 H831 0.929 1_554 S
C824 C823 1.383 1_556 S
C824 C825 1.377 . S
C825 H809 0.930 . S
C825 C824 1.377 . S
C825 C826 1.379 1_556 S
C826 H810 0.931 . S
C826 C820 1.383 . S
C826 C825 1.379 1_554 S
H827 C821 0.959 . S
H828 C821 0.961 . S
H829 C821 0.960 . S
H830 C822 0.930 . S
H831 C823 0.929 1_556 S
H832 C840 0.929 . S
H833 C842 0.930 . S
H834 C844 0.930 . S
H835 C847 0.929 . S
H836 C850 0.930 . S
H837 C852 0.960 1_554 S
H838 C852 0.960 1_554 S
H839 C852 0.960 . S
C840 H832 0.929 . S
C840 C841 1.377 1_655 S
C840 C842 1.384 . S
C841 C840 1.377 1_455 S
C841 C847 1.390 . S
C842 H833 0.930 . S
C842 C840 1.384 . S
C842 C843 1.372 1_655 S
C843 C842 1.372 1_455 S
C843 C844 1.400 . S
C843 C848 1.490 . S
C844 H834 0.930 . S
C844 C843 1.400 . S
C844 C847 1.386 . S
H845 C861 0.930 . S
H846 C862 0.931 . S
C847 H835 0.929 . S
C847 C841 1.390 . S
C847 C844 1.386 . S
C848 C843 1.490 . S
C848 C850 1.395 1_455 S
C848 C851 1.403 . S
H849 C855 0.930 . S
C850 H836 0.930 . S
C850 C848 1.395 1_655 S
C850 C853 1.403 . S
C851 C848 1.403 . S
C851 C852 1.524 . S
C851 C855 1.400 . S
C852 H837 0.960 1_556 S
C852 H838 0.960 1_556 S
C852 H839 0.960 . S
C852 C851 1.524 . S
C853 C850 1.403 . S
C853 C854 1.392 1_655 S
C853 C857 1.495 . S
C854 C853 1.392 1_455 S
C854 C855 1.385 . S
C854 C856 1.478 . S
C855 H849 0.930 . S
C855 C851 1.400 . S
C855 C854 1.385 . S
C856 C854 1.478 . S
C856 C858 1.381 1_455 S
C856 C862 1.383 . S
C857 C853 1.495 . S
C857 H863 0.959 . S
C857 H864 0.982 . S
C857 H865 0.960 . S
C858 C856 1.381 1_655 S
C858 C859 1.394 . S
C858 H866 0.930 . S
C859 C858 1.394 . S
C859 C860 1.383 1_655 S
C859 H867 0.929 . S
C860 C859 1.383 1_455 S
C860 C861 1.377 . S
C861 H845 0.930 . S
C861 C860 1.377 . S
C861 C862 1.379 . S
C862 H846 0.931 . S
C862 C856 1.383 . S
C862 C861 1.379 . S
H863 C857 0.959 . S
H864 C857 0.982 . S
H865 C857 0.960 . S
H866 C858 0.930 . S
H867 C859 0.929 . S
H868 C876 0.929 . S
H869 C878 0.930 . S
H870 C880 0.930 . S
H871 C883 0.929 . S
H872 C886 0.930 . S
H873 C888 0.963 . S
H874 C888 0.960 . S
H875 C888 0.960 1_565 S
C876 H868 0.929 . S
C876 C877 1.377 . S
C876 C878 1.384 . S
C877 C876 1.377 . S
C877 C883 1.390 1_545 S
C878 H869 0.930 . S
C878 C876 1.384 . S
C878 C879 1.372 . S
C879 C878 1.372 . S
C879 C880 1.400 1_545 S
C879 C884 1.490 . S
C880 H870 0.930 . S
C880 C879 1.400 1_565 S
C880 C883 1.386 . S
H881 C897 0.930 . S
H882 C898 0.931 . S
C883 H871 0.929 . S
C883 C877 1.390 1_565 S
C883 C880 1.386 . S
C884 C879 1.490 . S
C884 C886 1.395 . S
C884 C887 1.403 . S
H885 C891 0.930 . S
C886 H872 0.930 . S
C886 C884 1.395 . S
C886 C889 1.403 . S
C887 C884 1.403 . S
C887 C888 1.524 . S
C887 C891 1.400 . S
C888 H873 0.963 . S
C888 H874 0.960 . S
C888 H875 0.960 1_545 S
C888 C887 1.524 . S
C889 C886 1.403 . S
C889 C890 1.392 . S
C889 C893 1.495 . S
C890 C889 1.392 . S
C890 C891 1.385 . S
C890 C892 1.478 . S
C891 H885 0.930 . S
C891 C887 1.400 . S
C891 C890 1.385 . S
C892 C890 1.478 . S
C892 C894 1.381 . S
C892 C898 1.383 1_545 S
C893 C889 1.495 . S
C893 H899 0.959 1_556 S
C893 H900 0.961 . S
C893 H901 0.960 . S
C894 C892 1.381 . S
C894 C895 1.394 . S
C894 H902 0.930 . S
C895 C894 1.394 . S
C895 C896 1.383 . S
C895 H903 0.929 . S
C896 C895 1.383 . S
C896 C897 1.377 1_545 S
C897 H881 0.930 . S
C897 C896 1.377 1_565 S
C897 C898 1.379 . S
C898 H882 0.931 . S
C898 C892 1.383 1_565 S
C898 C897 1.379 . S
H899 C893 0.959 1_554 S
H900 C893 0.961 . S
H901 C893 0.960 . S
H902 C894 0.930 . S
H903 C895 0.929 . S
H904 C912 0.931 . S
H905 C914 0.930 . S
H906 C916 0.930 . S
H907 C919 0.929 . S
H908 C922 0.930 . S
H909 C924 0.960 . S
H910 C924 0.960 . S
H911 C924 0.960 . S
C912 H904 0.931 . S
C912 C913 1.377 . S
C912 C914 1.384 . S
C913 C912 1.377 . S
C913 C919 1.390 . S
C914 H905 0.930 . S
C914 C912 1.384 . S
C914 C915 1.372 . S
C915 C914 1.372 . S
C915 C916 1.400 . S
C915 C920 1.490 . S
C916 H906 0.930 . S
C916 C915 1.400 . S
C916 C919 1.386 . S
H917 C933 0.930 . S
H918 C934 0.931 . S
C919 H907 0.929 . S
C919 C913 1.390 . S
C919 C916 1.386 . S
C920 C915 1.490 . S
C920 C922 1.395 . S
C920 C923 1.403 . S
H921 C927 0.930 . S
C922 H908 0.930 . S
C922 C920 1.395 . S
C922 C925 1.403 . S
C923 C920 1.403 . S
C923 C924 1.524 . S
C923 C927 1.400 . S
C924 H909 0.960 . S
C924 H910 0.960 . S
C924 H911 0.960 . S
C924 C923 1.524 . S
C925 C922 1.403 . S
C925 C926 1.392 . S
C925 C929 1.495 . S
C926 C925 1.392 . S
C926 C927 1.385 . S
C926 C928 1.478 . S
C927 H921 0.930 . S
C927 C923 1.400 . S
C927 C926 1.385 . S
C928 C926 1.478 . S
C928 C930 1.381 . S
C928 C934 1.383 . S
C929 C925 1.495 . S
C929 H935 0.959 . S
C929 H936 0.961 . S
C929 H937 0.960 . S
C930 C928 1.381 . S
C930 C931 1.394 . S
C930 H938 0.930 . S
C931 C930 1.394 . S
C931 C932 1.383 . S
C931 H939 0.929 . S
C932 C931 1.383 . S
C932 C933 1.377 . S
C933 H917 0.930 . S
C933 C932 1.377 . S
C933 C934 1.379 . S
C934 H918 0.931 . S
C934 C928 1.383 . S
C934 C933 1.379 . S
H935 C929 0.959 . S
H936 C929 0.961 . S
H937 C929 0.960 . S
H938 C930 0.930 . S
H939 C931 0.929 . S
H940 C948 0.929 . S
H941 C950 0.930 . S
H942 C952 0.930 . S
H943 C955 0.929 . S
H944 C958 0.930 . S
H945 C960 0.960 . S
H946 C960 0.960 . S
H947 C960 0.960 . S
C948 H940 0.929 . S
C948 C949 1.377 . S
C948 C950 1.384 . S
C949 C948 1.377 . S
C949 C955 1.390 . S
C950 H941 0.930 . S
C950 C948 1.384 . S
C950 C951 1.372 . S
C951 C950 1.372 . S
C951 C952 1.400 . S
C951 C956 1.490 . S
C952 H942 0.930 . S
C952 C951 1.400 . S
C952 C955 1.386 . S
H953 C969 0.930 . S
H954 C970 0.931 . S
C955 H943 0.929 . S
C955 C949 1.390 . S
C955 C952 1.386 . S
C956 C951 1.490 . S
C956 C958 1.395 . S
C956 C959 1.403 . S
H957 C963 0.930 . S
C958 H944 0.930 . S
C958 C956 1.395 . S
C958 C961 1.403 . S
C959 C956 1.403 . S
C959 C960 1.524 . S
C959 C963 1.400 . S
C960 H945 0.960 . S
C960 H946 0.960 . S
C960 H947 0.960 . S
C960 C959 1.524 . S
C961 C958 1.403 . S
C961 C962 1.392 . S
C961 C965 1.495 . S
C962 C961 1.392 . S
C962 C963 1.385 . S
C962 C964 1.478 . S
C963 H957 0.930 . S
C963 C959 1.400 . S
C963 C962 1.385 . S
C964 C962 1.478 . S
C964 C966 1.381 . S
C964 C970 1.383 . S
C965 C961 1.495 . S
C965 H971 0.959 . S
C965 H972 0.961 . S
C965 H973 0.960 . S
C966 C964 1.381 . S
C966 C967 1.394 . S
C966 H974 0.930 . S
C967 C966 1.394 . S
C967 C968 1.383 . S
C967 H975 0.929 . S
C968 C967 1.383 . S
C968 C969 1.377 . S
C969 H953 0.930 . S
C969 C968 1.377 . S
C969 C970 1.379 . S
C970 H954 0.931 . S
C970 C964 1.383 . S
C970 C969 1.379 . S
H971 C965 0.959 . S
H972 C965 0.961 . S
H973 C965 0.960 . S
H974 C966 0.930 . S
H975 C967 0.929 . S
H976 C984 0.929 . S
H977 C986 0.930 . S
H978 C988 0.930 . S
H979 C991 0.929 . S
H980 C994 0.930 . S
H981 C996 0.960 . S
H982 C996 0.960 . S
H983 C996 0.960 . S
C984 H976 0.929 . S
C984 C985 1.356 1_455 S
C984 C986 1.384 . S
C985 C984 1.356 1_655 S
C985 C991 1.415 . S
C986 H977 0.930 . S
C986 C984 1.384 . S
C986 C987 1.372 1_455 S
C987 C986 1.372 1_655 S
C987 C988 1.400 . S
C987 C992 1.490 . S
C988 H978 0.930 . S
C988 C987 1.400 . S
C988 C991 1.386 . S
H989 C1005 0.930 . S
H990 C1006 0.931 . S
C991 H979 0.929 . S
C991 C985 1.415 . S
C991 C988 1.386 . S
C992 C987 1.490 . S
C992 C994 1.395 . S
C992 C995 1.403 1_655 S
H993 C999 0.930 . S
C994 H980 0.930 . S
C994 C992 1.395 . S
C994 C997 1.403 . S
C995 C992 1.403 1_455 S
C995 C996 1.524 . S
C995 C999 1.400 . S
C996 H981 0.960 . S
C996 H982 0.960 . S
C996 H983 0.960 . S
C996 C995 1.524 . S
C997 C994 1.403 . S
C997 C998 1.392 . S
C997 C1001 1.495 . S
C998 C997 1.392 . S
C998 C999 1.385 1_655 S
C998 C1000 1.478 . S
C999 H993 0.930 . S
C999 C995 1.400 . S
C999 C998 1.385 1_455 S
C1000 C998 1.478 . S
C1000 C1002 1.381 . S
C1000 C1006 1.383 . S
C1001 C997 1.495 . S
C1001 H1007 0.959 . S
C1001 H1008 0.961 . S
C1001 H1009 0.960 . S
C1002 C1000 1.381 . S
C1002 C1003 1.394 . S
C1002 H1010 0.931 1_655 S
C1003 C1002 1.394 . S
C1003 C1004 1.383 . S
C1003 H1011 0.929 1_655 S
C1004 C1003 1.383 . S
C1004 C1005 1.377 . S
C1005 H989 0.930 . S
C1005 C1004 1.377 . S
C1005 C1006 1.379 . S
C1006 H990 0.931 . S
C1006 C1000 1.383 . S
C1006 C1005 1.379 . S
H1007 C1001 0.959 . S
H1008 C1001 0.961 . S
H1009 C1001 0.960 . S
H1010 C1002 0.931 1_455 S
H1011 C1003 0.929 1_455 S
H1012 C1020 0.929 . S
H1013 C1022 0.930 . S
H1014 C1024 0.930 . S
H1015 C1027 0.929 . S
H1016 C1030 0.930 . S
H1017 C1032 0.960 . S
H1018 C1032 0.960 . S
H1019 C1032 0.960 . S
C1020 H1012 0.929 . S
C1020 C1021 1.377 1_545 S
C1020 C1022 1.384 . S
C1021 C1020 1.377 1_565 S
C1021 C1027 1.390 . S
C1022 H1013 0.930 . S
C1022 C1020 1.384 . S
C1022 C1023 1.372 1_545 S
C1023 C1022 1.372 1_565 S
C1023 C1024 1.400 . S
C1023 C1028 1.490 . S
C1024 H1014 0.930 . S
C1024 C1023 1.400 . S
C1024 C1027 1.386 . S
H1025 C1041 0.930 . S
H1026 C1042 0.931 . S
C1027 H1015 0.929 . S
C1027 C1021 1.390 . S
C1027 C1024 1.386 . S
C1028 C1023 1.490 . S
C1028 C1030 1.395 1_565 S
C1028 C1031 1.403 . S
H1029 C1035 0.930 . S
C1030 H1016 0.930 . S
C1030 C1028 1.395 1_545 S
C1030 C1033 1.403 . S
C1031 C1028 1.403 . S
C1031 C1032 1.524 . S
C1031 C1035 1.400 . S
C1032 H1017 0.960 . S
C1032 H1018 0.960 . S
C1032 H1019 0.960 . S
C1032 C1031 1.524 . S
C1033 C1030 1.403 . S
C1033 C1034 1.392 1_545 S
C1033 C1037 1.495 . S
C1034 C1033 1.392 1_565 S
C1034 C1035 1.385 . S
C1034 C1036 1.478 . S
C1035 H1029 0.930 . S
C1035 C1031 1.400 . S
C1035 C1034 1.385 . S
C1036 C1034 1.478 . S
C1036 C1038 1.381 1_565 S
C1036 C1042 1.383 . S
C1037 C1033 1.495 . S
C1037 H1043 0.959 . S
C1037 H1044 0.961 . S
C1037 H1045 0.960 . S
C1038 C1036 1.381 1_545 S
C1038 C1039 1.394 . S
C1038 H1046 0.930 . S
C1039 C1038 1.394 . S
C1039 C1040 1.383 1_545 S
C1039 H1047 0.929 . S
C1040 C1039 1.383 1_565 S
C1040 C1041 1.377 . S
C1041 H1025 0.930 . S
C1041 C1040 1.377 . S
C1041 C1042 1.379 . S
C1042 H1026 0.931 . S
C1042 C1036 1.383 . S
C1042 C1041 1.379 . S
H1043 C1037 0.959 . S
H1044 C1037 0.961 . S
H1045 C1037 0.960 . S
H1046 C1038 0.930 . S
H1047 C1039 0.929 . S
H1048 C1056 0.929 . S
H1049 C1058 0.930 . S
H1050 C1060 0.930 . S
H1051 C1063 0.929 . S
H1052 C1066 0.930 . S
H1053 C1068 0.960 . S
H1054 C1068 0.960 . S
H1055 C1068 0.960 . S
C1056 H1048 0.929 . S
C1056 C1057 1.377 . S
C1056 C1058 1.384 . S
C1057 C1056 1.377 . S
C1057 C1063 1.390 . S
C1058 H1049 0.930 . S
C1058 C1056 1.384 . S
C1058 C1059 1.372 . S
C1059 C1058 1.372 . S
C1059 C1060 1.400 . S
C1059 C1064 1.490 . S
C1060 H1050 0.930 . S
C1060 C1059 1.400 . S
C1060 C1063 1.386 . S
H1061 C1077 0.930 . S
H1062 C1078 0.931 . S
C1063 H1051 0.929 . S
C1063 C1057 1.390 . S
C1063 C1060 1.386 . S
C1064 C1059 1.490 . S
C1064 C1066 1.395 . S
C1064 C1067 1.403 . S
H1065 C1071 0.930 . S
C1066 H1052 0.930 . S
C1066 C1064 1.395 . S
C1066 C1069 1.403 . S
C1067 C1064 1.403 . S
C1067 C1068 1.524 . S
C1067 C1071 1.400 . S
C1068 H1053 0.960 . S
C1068 H1054 0.960 . S
C1068 H1055 0.960 . S
C1068 C1067 1.524 . S
C1069 C1066 1.403 . S
C1069 C1070 1.392 . S
C1069 C1073 1.495 . S
C1070 C1069 1.392 . S
C1070 C1071 1.385 . S
C1070 C1072 1.478 . S
C1071 H1065 0.930 . S
C1071 C1067 1.400 . S
C1071 C1070 1.385 . S
C1072 C1070 1.478 . S
C1072 C1074 1.381 . S
C1072 C1078 1.383 . S
C1073 C1069 1.495 . S
C1073 H1079 0.959 . S
C1073 H1080 0.961 . S
C1073 H1081 0.960 . S
C1074 C1072 1.381 . S
C1074 C1075 1.394 . S
C1074 H1082 0.930 . S
C1075 C1074 1.394 . S
C1075 C1076 1.383 . S
C1075 H1083 0.929 . S
C1076 C1075 1.383 . S
C1076 C1077 1.377 . S
C1077 H1061 0.930 . S
C1077 C1076 1.377 . S
C1077 C1078 1.379 . S
C1078 H1062 0.931 . S
C1078 C1072 1.383 . S
C1078 C1077 1.379 . S
H1079 C1073 0.959 . S
H1080 C1073 0.961 . S
H1081 C1073 0.960 . S
H1082 C1074 0.930 . S
H1083 C1075 0.929 . S
H1084 C1092 0.929 . S
H1085 C1094 0.930 . S
H1086 C1096 0.930 . S
H1087 C1099 0.929 . S
H1088 C1102 0.930 . S
H1089 C1104 0.960 . S
H1090 C1104 0.960 . S
H1091 C1104 0.960 . S
C1092 H1084 0.929 . S
C1092 C1093 1.377 . S
C1092 C1094 1.384 . S
C1093 C1092 1.377 . S
C1093 C1099 1.390 . S
C1094 H1085 0.930 . S
C1094 C1092 1.384 . S
C1094 C1095 1.372 . S
C1095 C1094 1.372 . S
C1095 C1096 1.400 . S
C1095 C1100 1.490 . S
C1096 H1086 0.930 . S
C1096 C1095 1.400 . S
C1096 C1099 1.386 . S
H1097 C1113 0.930 . S
H1098 C1114 0.931 . S
C1099 H1087 0.929 . S
C1099 C1093 1.390 . S
C1099 C1096 1.386 . S
C1100 C1095 1.490 . S
C1100 C1102 1.395 . S
C1100 C1103 1.403 . S
H1101 C1107 0.930 . S
C1102 H1088 0.930 . S
C1102 C1100 1.395 . S
C1102 C1105 1.403 . S
C1103 C1100 1.403 . S
C1103 C1104 1.524 . S
C1103 C1107 1.400 . S
C1104 H1089 0.960 . S
C1104 H1090 0.960 . S
C1104 H1091 0.960 . S
C1104 C1103 1.524 . S
C1105 C1102 1.403 . S
C1105 C1106 1.392 . S
C1105 C1109 1.495 . S
C1106 C1105 1.392 . S
C1106 C1107 1.385 . S
C1106 C1108 1.478 . S
C1107 H1101 0.930 . S
C1107 C1103 1.400 . S
C1107 C1106 1.385 . S
C1108 C1106 1.478 . S
C1108 C1110 1.381 . S
C1108 C1114 1.383 . S
C1109 C1105 1.495 . S
C1109 H1115 0.959 . S
C1109 H1116 0.961 . S
C1109 H1117 0.960 . S
C1110 C1108 1.381 . S
C1110 C1111 1.394 . S
C1110 H1118 0.930 . S
C1111 C1110 1.394 . S
C1111 C1112 1.383 . S
C1111 H1119 0.929 . S
C1112 C1111 1.383 . S
C1112 C1113 1.377 . S
C1113 H1097 0.930 . S
C1113 C1112 1.377 . S
C1113 C1114 1.379 . S
C1114 H1098 0.931 . S
C1114 C1108 1.383 . S
C1114 C1113 1.379 . S
H1115 C1109 0.959 . S
H1116 C1109 0.961 . S
H1117 C1109 0.960 . S
H1118 C1110 0.930 . S
H1119 C1111 0.929 . S
C265 C76 1.735 . S
C284 C105 1.818 1_545 S
C320 C145 1.837 . S
C301 C88 1.727 . S
C356 C185 1.839 . S
C337 C52 1.731 . S
C392 C225 1.833 1_455 S
C373 C64 1.735 . S
C428 C114 1.818 1_565 S
C409 C28 1.738 . S
C445 C40 1.729 . S
C464 C154 1.833 . S
C481 C4 1.739 . S
C500 C194 1.825 . S
C517 C16 1.741 . S
C536 C234 1.840 1_655 S
C572 C111 0.378 . S
C553 C69 0.378 . S
C608 C151 0.384 . S
C589 C81 0.380 . S
C644 C191 0.268 . S
C625 C93 0.349 . S
C661 C57 0.348 . S
C680 C231 0.262 . S
C697 C21 0.368 . S
C716 C102 0.286 . S
C752 C142 0.383 . S
C733 C33 0.371 . S
C788 C182 0.249 . S
C769 C45 0.381 . S
C805 C9 0.361 . S
C824 C222 0.339 . S
C841 C66 1.884 . S
C860 C115 2.052 . S
C877 C78 1.891 . S
C896 C155 2.057 . S
C932 C195 2.045 . S
C913 C90 1.882 . S
C968 C235 2.066 . S
C949 C54 1.894 . S
C985 C18 1.888 1_655 S
C1004 C106 2.073 . S
C1040 C146 2.044 . S
C1021 C30 1.898 . S
C1076 C186 2.062 . S
C1057 C42 1.889 . S
C1093 C6 1.888 . S
C1112 C226 2.066 . S
