# Generated by pormake.
# Topology pyr, (3,6)-cn, num edge types: 1
# Building blocks:
#     Node 0, Type 0, BuildingBlock: CUQRIR_clean_linker_1, # of connection points: 3
#     Node 1, Type 0, BuildingBlock: CUQRIR_clean_linker_1, # of connection points: 3
#     Node 2, Type 0, BuildingBlock: CUQRIR_clean_linker_1, # of connection points: 3
#     Node 3, Type 0, BuildingBlock: CUQRIR_clean_linker_1, # of connection points: 3
#     Node 4, Type 0, BuildingBlock: CUQRIR_clean_linker_1, # of connection points: 3
#     Node 5, Type 0, BuildingBlock: CUQRIR_clean_linker_1, # of connection points: 3
#     Node 6, Type 0, BuildingBlock: CUQRIR_clean_linker_1, # of connection points: 3
#     Node 7, Type 0, BuildingBlock: CUQRIR_clean_linker_1, # of connection points: 3
#     Node 8, Type 1, BuildingBlock: LEVNOQ01_clean_sbu_1, # of connection points: 6
#     Node 9, Type 1, BuildingBlock: LEVNOQ01_clean_sbu_1, # of connection points: 6
#     Node 10, Type 1, BuildingBlock: LEVNOQ01_clean_sbu_1, # of connection points: 6
#     Node 11, Type 1, BuildingBlock: LEVNOQ01_clean_sbu_1, # of connection points: 6
#     Edge 12, Type (0, 1), BuildingBlock: OJICUG_clean_linker_0, # of connection points: 2
#     Edge 13, Type (0, 1), BuildingBlock: OJICUG_clean_linker_0, # of connection points: 2
#     Edge 14, Type (0, 1), BuildingBlock: OJICUG_clean_linker_0, # of connection points: 2
#     Edge 15, Type (0, 1), BuildingBlock: OJICUG_clean_linker_0, # of connection points: 2
#     Edge 16, Type (0, 1), BuildingBlock: OJICUG_clean_linker_0, # of connection points: 2
#     Edge 17, Type (0, 1), BuildingBlock: OJICUG_clean_linker_0, # of connection points: 2
#     Edge 18, Type (0, 1), BuildingBlock: OJICUG_clean_linker_0, # of connection points: 2
#     Edge 19, Type (0, 1), BuildingBlock: OJICUG_clean_linker_0, # of connection points: 2
#     Edge 20, Type (0, 1), BuildingBlock: OJICUG_clean_linker_0, # of connection points: 2
#     Edge 21, Type (0, 1), BuildingBlock: OJICUG_clean_linker_0, # of connection points: 2
#     Edge 22, Type (0, 1), BuildingBlock: OJICUG_clean_linker_0, # of connection points: 2
#     Edge 23, Type (0, 1), BuildingBlock: OJICUG_clean_linker_0, # of connection points: 2
#     Edge 24, Type (0, 1), BuildingBlock: OJICUG_clean_linker_0, # of connection points: 2
#     Edge 25, Type (0, 1), BuildingBlock: OJICUG_clean_linker_0, # of connection points: 2
#     Edge 26, Type (0, 1), BuildingBlock: OJICUG_clean_linker_0, # of connection points: 2
#     Edge 27, Type (0, 1), BuildingBlock: OJICUG_clean_linker_0, # of connection points: 2
#     Edge 28, Type (0, 1), BuildingBlock: OJICUG_clean_linker_0, # of connection points: 2
#     Edge 29, Type (0, 1), BuildingBlock: OJICUG_clean_linker_0, # of connection points: 2
#     Edge 30, Type (0, 1), BuildingBlock: OJICUG_clean_linker_0, # of connection points: 2
#     Edge 31, Type (0, 1), BuildingBlock: OJICUG_clean_linker_0, # of connection points: 2
#     Edge 32, Type (0, 1), BuildingBlock: OJICUG_clean_linker_0, # of connection points: 2
#     Edge 33, Type (0, 1), BuildingBlock: OJICUG_clean_linker_0, # of connection points: 2
#     Edge 34, Type (0, 1), BuildingBlock: OJICUG_clean_linker_0, # of connection points: 2
#     Edge 35, Type (0, 1), BuildingBlock: OJICUG_clean_linker_0, # of connection points: 2
# Relax obj value: 0.108
# Max RMSD: 0.216
# Mean RMSD: 0.158
data_MOF--net-pry--node1-LEVNOQ01_clean_sbu_1--node2-CUQRIR_clean_linker_1--edge1-OJICUG_clean_linker_0
_symmetry_space_group_name_H-M    P1
_symmetry_Int_Tables_number       1
_symmetry_cell_setting            triclinic
loop_
_symmetry_equiv_pos_as_xyz
'x, y, z'
_cell_length_a     24.626815
_cell_length_b     23.466126
_cell_length_c     22.156218
_cell_angle_alpha  90.39309
_cell_angle_beta   93.820867
_cell_angle_gamma 97.12456
loop_
_atom_site_label
_atom_site_type_symbol
_atom_site_fract_x
_atom_site_fract_y
_atom_site_fract_z
_atom_type_partial_charge
C0 C 0.1332 0.22315 0.1744 0.0
N1 N 0.17075 0.18794 0.19283 0.0
N2 N 0.13836 0.23791 0.11577 0.0
C3 C 0.0913 0.24306 0.21374 0.0
C4 C 0.18015 0.21023 0.09894 0.0
N5 N 0.19909 0.17878 0.1452 0.0
C6 C 0.20357 0.21505 0.03786 0.0
H7 H 0.0718 0.20653 0.23946 0.0
H8 H 0.0588 0.26277 0.18771 0.0
H9 H 0.11209 0.27591 0.24653 0.0
H10 H 0.24895 0.22419 0.04341 0.0
H11 H 0.18709 0.24884 1.01003 0.0
H12 H 0.19315 0.17351 1.01307 0.0
C13 C 0.38764 0.85799 0.61458 0.0
N14 N 0.37079 0.90278 0.64404 0.0
N15 N 0.43325 0.84166 0.64327 0.0
C16 C 0.358 0.82767 0.55947 0.0
C17 C 0.44432 0.87924 0.69056 0.0
N18 N 0.40682 0.91699 0.69093 0.0
C19 C 0.48801 0.87463 0.7406 0.0
H20 H 0.32963 0.79062 0.57401 0.0
H21 H 0.38734 0.81098 0.53014 0.0
H22 H 0.33418 0.85685 0.53244 0.0
H23 H 0.51528 0.8423 0.72966 0.0
H24 H 0.46834 0.86274 0.78314 0.0
H25 H 0.51341 0.91677 0.74838 0.0
C26 C 0.68265 0.26703 0.76325 0.0
N27 N 0.70187 0.25478 0.8197 0.0
N28 N 0.71705 0.30814 0.7376 0.0
C29 C 0.62475 0.24803 0.7382 0.0
C30 C 0.76158 0.31364 0.77762 0.0
N31 N 0.75135 0.28443 0.82913 0.0
C32 C 0.81056 0.35809 0.77149 0.0
H33 H 0.62382 0.24225 0.68844 0.0
H34 H 0.59832 0.2815 0.7481 0.0
H35 H 0.60792 0.20707 0.75859 0.0
H36 H 0.80886 0.39498 0.8026 0.0
H37 H 0.81177 0.37382 0.7244 0.0
H38 H 0.8488 0.33924 0.78415 0.0
C39 C 0.8604 0.5833 0.40202 0.0
N40 N 0.90038 0.62276 0.38343 0.0
N41 N 0.84936 0.59452 0.45962 0.0
C42 C 0.82904 0.5363 0.36222 0.0
C43 C 0.88514 0.64149 0.47589 0.0
N44 N 0.91683 0.65857 0.42987 0.0
C45 C 0.88432 0.6747 0.53427 0.0
H46 H 0.79284 0.55282 0.33929 0.0
H47 H 0.81436 0.49842 0.38879 0.0
H48 H 0.85484 0.52196 0.32733 0.0
H49 H 0.92554 0.67912 0.5584 0.0
H50 H 0.85466 0.65297 0.56482 0.0
H51 H 0.87373 0.71845 0.52438 0.0
C52 C 0.82532 0.89213 0.93106 0.0
N53 N 0.86363 0.8748 0.8963 0.0
N54 N 0.80154 0.93537 0.90452 0.0
C55 C 0.80601 0.86136 0.98677 0.0
C56 C 0.82583 0.94315 0.85179 0.0
N57 N 0.8631 0.9058 0.84609 0.0
C58 C 0.81394 0.98871 0.80707 0.0
H59 H 0.79752 0.81446 0.97739 0.0
H60 H 0.76855 0.87653 1.00277 0.0
H61 H 0.83908 0.86823 0.02355 0.0
H62 H 0.85232 0.0086 0.78825 0.0
H63 H 0.79378 0.02267 0.82854 0.0
H64 H 0.786 0.96882 0.76928 0.0
C65 C 0.69408 0.17322 0.49041 0.0
N66 N 0.71241 0.1334 0.45467 0.0
N67 N 0.63864 0.17005 0.48437 0.0
C68 C 0.73061 0.21998 0.52536 0.0
C69 C 0.62423 0.1249 0.44588 0.0
N70 N 0.6687 0.10484 0.42417 0.0
C71 C 0.56596 0.10751 0.42077 0.0
H72 H 0.73648 0.20647 0.573 0.0
H73 H 0.71168 0.26049 0.52555 0.0
H74 H 0.77134 0.22801 0.50628 0.0
H75 H 0.55983 0.12604 0.37522 0.0
H76 H 0.53623 0.12286 0.45068 0.0
H77 H 0.55765 0.06008 0.41629 0.0
C78 C 0.30406 0.66879 0.25098 0.0
N79 N 0.35358 0.69682 0.27036 0.0
N80 N 0.27973 0.69773 0.20627 0.0
C81 C 0.28186 0.60999 0.27163 0.0
C82 C 0.31561 0.74541 0.20006 0.0
N83 N 0.36058 0.74506 0.23889 0.0
C84 C 0.31135 0.78758 0.14925 0.0
H85 H 0.30194 0.57715 0.2482 0.0
H86 H 0.23685 0.6014 0.26127 0.0
H87 H 0.29126 0.60608 0.321 0.0
H88 H 0.2745 0.77647 0.11808 0.0
H89 H 0.34814 0.78957 0.12266 0.0
H90 H 0.31005 0.83105 0.16866 0.0
C91 C 0.08026 0.43191 0.62098 0.0
N92 N 0.11346 0.3998 0.59291 0.0
N93 N 0.10724 0.48351 0.63923 0.0
C94 C 0.02422 0.40922 0.64021 0.0
C95 C 0.15758 0.48294 0.61883 0.0
N96 N 0.16141 0.43247 0.59033 0.0
C97 C 0.20573 0.52713 0.6367 0.0
H98 H 0.99753 0.44404 0.63932 0.0
H99 H 0.02797 0.39369 0.68732 0.0
H100 H 0.005 0.37316 0.61023 0.0
H101 H 0.19203 0.56726 0.6536 0.0
H102 H 0.23085 0.53708 0.59751 0.0
H103 H 0.23197 0.50953 0.67287 0.0
O104 O 0.05316 0.00655 0.69095 0.0
Mg105 Mg 0.09633 0.05996 0.63132 0.0
O106 O 0.00022 0.97677 0.61096 0.0
Mg107 Mg 0.04531 0.02306 0.52775 0.0
O108 O 0.0678 0.11803 0.57233 0.0
O109 O 0.10155 0.13794 0.66797 0.0
O110 O 0.0937 0.07338 0.44487 0.0
O111 O 0.9587 0.05716 0.50874 0.0
Mg112 Mg 0.01234 0.99809 0.42565 0.0
O113 O 0.01567 0.92757 0.48096 0.0
O114 O 0.07667 0.01061 0.37139 0.0
O115 O 0.94773 0.04909 0.4109 0.0
O116 O 0.97378 0.92659 0.38782 0.0
C117 C 0.17643 0.00596 0.58524 0.0
C118 C 0.01143 0.97554 0.66815 0.0
C119 C 0.08416 0.15517 0.61602 0.0
C120 C 0.10371 0.05599 0.39212 0.0
C121 C 0.93063 0.06493 0.45978 0.0
C122 C 0.98917 0.89933 0.43453 0.0
O123 O 0.17534 0.04718 0.62127 0.0
O124 O 0.13291 0.98666 0.55237 0.0
O125 O 0.4433 0.16073 0.12064 0.0
Mg126 Mg 0.52467 0.16601 0.09899 0.0
O127 O 0.42534 0.0699 0.09057 0.0
Mg128 Mg 0.50958 0.04222 0.05751 0.0
O129 O 0.54224 0.13148 0.01905 0.0
O130 O 0.54999 0.22619 0.03889 0.0
O131 O 0.59129 0.01697 0.02609 0.0
O132 O 0.46416 0.02852 0.95499 0.0
Mg133 Mg 0.48374 0.94453 1.0119 0.0
O134 O 0.4833 0.95138 0.10441 0.0
O135 O 0.55422 0.95097 0.96097 0.0
O136 O 0.40904 0.94917 0.96252 0.0
O137 O 0.48395 0.86862 0.05313 0.0
C138 C 0.58629 0.10015 0.18361 0.0
C139 C 0.41008 0.11534 0.11321 0.0
C140 C 0.55783 0.18421 1.00382 0.0
C141 C 0.59602 0.98306 0.98243 0.0
C142 C 0.42452 0.9925 0.93191 0.0
C143 C 0.48154 0.89555 0.10351 0.0
O144 O 0.58269 0.15103 0.16703 0.0
O145 O 0.55908 0.0577 0.15393 0.0
O146 O 0.4715 0.57838 0.67732 0.0
Mg147 Mg 0.47405 0.48913 0.68766 0.0
O148 O 0.49033 0.5858 0.58051 0.0
Mg149 Mg 0.50844 0.49572 0.54639 0.0
O150 O 0.53662 0.47076 0.63989 0.0
O151 O 0.53811 0.45742 0.73819 0.0
O152 O 0.52909 0.40168 0.52306 0.0
O153 O 0.59833 0.53427 0.53876 0.0
Mg154 Mg 0.52797 0.46712 0.43526 0.0
O155 O 0.48032 0.53167 0.4501 0.0
O156 O 0.49643 0.37985 0.43094 0.0
O157 O 0.61337 0.48338 0.45911 0.0
O158 O 0.50809 0.50897 0.35939 0.0
C159 C 0.3866 0.43395 0.59622 0.0
C160 C 0.47817 0.60811 0.63 0.0
C161 C 0.56167 0.45418 0.68825 0.0
C162 C 0.51775 0.36436 0.48054 0.0
C163 C 0.63118 0.51651 0.50318 0.0
C164 C 0.48115 0.53994 0.39192 0.0
O165 O 0.40389 0.43558 0.65161 0.0
O166 O 0.41661 0.45648 0.55539 0.0
O167 O 0.98103 0.41849 0.06658 0.0
Mg168 Mg 0.00882 0.50709 0.08277 0.0
O169 O 0.03556 0.45993 1.00308 0.0
Mg170 Mg 0.98773 0.54647 1.00066 0.0
O171 O 0.95956 0.56502 0.10532 0.0
O172 O 0.00729 0.51654 0.17258 0.0
O173 O 0.94936 0.63428 0.98339 0.0
O174 O 0.90566 0.47586 0.99161 0.0
Mg175 Mg 0.93456 0.54035 0.90499 0.0
O176 O 0.0185 0.54382 0.89852 0.0
O177 O 0.88747 0.60746 0.91079 0.0
O178 O 0.89411 0.45915 0.89417 0.0
O179 O 0.95795 0.55956 0.82234 0.0
C180 C 0.10518 0.58533 0.05481 0.0
C181 C 0.01757 0.41439 0.03021 0.0
C182 C 0.97522 0.55486 0.16137 0.0
C183 C 0.9111 0.64646 0.9458 0.0
C184 C 0.88371 0.44447 0.94685 0.0
C185 C 0.00716 0.55364 0.8414 0.0
O186 O 0.09426 0.53617 0.07705 0.0
O187 O 0.06781 0.60645 0.02335 0.0
C188 C 0.16634 0.09612 0.24592 0.0
C189 C 0.17108 0.1561 0.2486 0.0
H190 H 0.14362 0.0175 0.29051 0.0
C191 C 0.16646 0.18313 0.30485 0.0
H192 H 0.16997 0.07406 0.20358 0.0
C193 C 0.14922 0.15069 0.35482 0.0
C194 C 0.13797 0.09068 0.34948 0.0
H195 H 0.17226 0.22946 0.30887 0.0
H196 H 0.14072 0.17272 0.3956 0.0
C197 C 0.15059 0.06382 0.29588 0.0
C198 C 0.35881 0.93215 0.78241 0.0
C199 C 0.39912 0.95182 0.74308 0.0
H200 H 0.33443 0.93095 0.87343 0.0
C201 C 0.4404 0.99591 0.76347 0.0
H202 H 0.327 0.89779 0.76798 0.0
C203 C 0.44517 0.01492 0.82412 0.0
C204 C 0.40872 0.98989 0.86556 0.0
H205 H 0.47213 0.01146 0.73394 0.0
H206 H 0.48055 0.04476 0.83966 0.0
C207 C 0.3635 0.95097 0.84299 0.0
C208 C 0.6658 0.35556 0.65655 0.0
C209 C 0.69495 0.35799 0.71336 0.0
H210 H 0.60089 0.38718 0.60248 0.0
C211 C 0.68924 0.40317 0.75367 0.0
H212 H 0.66976 0.32142 0.62462 0.0
C213 C 0.64938 0.43919 0.74172 0.0
C214 C 0.61475 0.43138 0.68891 0.0
H215 H 0.7107 0.40624 0.798 0.0
H216 H 0.64222 0.46953 0.77655 0.0
C217 C 0.62612 0.39274 0.64413 0.0
C218 C 0.97704 0.61127 0.32147 0.0
C219 C 0.92309 0.62289 0.32501 0.0
H220 H 0.03564 0.58085 0.26642 0.0
C221 C 0.88878 0.62219 0.27132 0.0
H222 H 0.00401 0.61148 0.36216 0.0
C223 C 0.9065 0.60416 0.21606 0.0
C224 C 0.95873 0.58646 0.21411 0.0
H225 H 0.84691 0.63137 0.27321 0.0
H226 H 0.87814 0.60002 0.17632 0.0
C227 C 0.99463 0.59302 0.26672 0.0
C228 C 0.29295 0.17116 0.18622 0.0
C229 C 0.24833 0.15103 0.14611 0.0
H230 H 0.37924 0.17466 0.20747 0.0
C231 C 0.25536 0.11011 0.10136 0.0
H232 H 0.28849 0.20266 0.22092 0.0
C233 C 0.30747 0.09372 0.09342 0.0
C234 C 0.35318 0.11842 0.13003 0.0
H235 H 0.2211 0.09332 0.07051 0.0
H236 H 0.31261 0.06536 0.05602 0.0
C237 C 0.34483 0.15526 0.17815 0.0
C238 C 0.32464 0.98752 0.61941 0.0
C239 C 0.32158 0.9284 0.6287 0.0
H240 H 0.2807 0.05814 0.59553 0.0
C241 C 0.27071 0.89393 0.61816 0.0
H242 H 0.36348 0.01463 0.62674 0.0
C243 C 0.22368 0.91824 0.59821 0.0
C244 C 0.22664 0.97763 0.58986 0.0
H245 H 0.26734 0.8482 0.62601 0.0
H246 H 0.18463 0.89121 0.5927 0.0
C247 C 0.27762 0.01195 0.60036 0.0
C248 C 0.83022 0.29737 0.90329 0.0
C249 C 0.77594 0.30615 0.887 0.0
H250 H 0.90882 0.33622 0.94004 0.0
C251 C 0.75479 0.3525 0.91384 0.0
H252 H 0.84753 0.26237 0.88267 0.0
C253 C 0.78983 0.39503 0.94651 0.0
C254 C 0.84625 0.39134 0.95296 0.0
H255 H 0.71345 0.36098 0.90119 0.0
H256 H 0.77428 0.43469 0.95792 0.0
C257 C 0.86526 0.33977 0.93627 0.0
C258 C 0.78293 0.51891 0.49836 0.0
C259 C 0.7981 0.57678 0.48528 0.0
H260 H 0.71631 0.45386 0.5139 0.0
C261 C 0.75974 0.61603 0.4891 0.0
H262 H 0.8123 0.48834 0.49631 0.0
C263 C 0.70579 0.59694 0.50141 0.0
C264 C 0.68947 0.53821 0.50833 0.0
H265 H 0.77072 0.6608 0.47854 0.0
H266 H 0.67592 0.62724 0.50024 0.0
C267 C 0.72851 0.49945 0.5087 0.0
C268 C 0.05208 0.2667 0.06956 0.0
C269 C 0.1091 0.27795 0.08161 0.0
H270 H 0.97773 0.30185 0.04342 0.0
C271 C 0.13635 0.33122 0.06556 0.0
H272 H 0.03049 0.22561 0.08115 0.0
C273 C 0.10659 0.37409 0.04194 0.0
C274 C 0.04897 0.36472 0.03549 0.0
H275 H 0.18031 0.34066 0.07463 0.0
H276 H 0.12833 0.41609 0.03386 0.0
C277 C 0.02211 0.31004 0.04764 0.0
C278 C 0.66663 0.18117 0.89142 0.0
C279 C 0.66632 0.23584 0.86638 0.0
H280 H 0.63051 0.12046 0.95413 0.0
C281 C 0.62707 0.27048 0.88264 0.0
H282 H 0.69602 0.15355 0.87816 0.0
C283 C 0.58984 0.25191 0.92493 0.0
C284 C 0.59052 0.19783 0.95137 0.0
H285 H 0.62544 0.31217 0.86239 0.0
H286 H 0.56105 0.28043 0.93785 0.0
C287 C 0.62863 0.16201 0.93365 0.0
C288 C 0.9839 0.73999 0.46963 0.0
C289 C 0.94406 0.71611 0.42485 0.0
H290 H 0.02886 0.8173 0.50943 0.0
C291 C 0.92273 0.75216 0.38198 0.0
H292 H 0.00121 0.71264 0.50295 0.0
C293 C 0.93838 0.81111 0.3854 0.0
C294 C 0.97569 0.83595 0.43218 0.0
H295 H 0.89113 0.73508 0.34803 0.0
H296 H 0.91936 0.83741 0.3522 0.0
C297 C -0.00069 0.79967 0.47367 0.0
C298 C 0.4728 0.76496 0.59006 0.0
C299 C 0.44875 0.78465 0.64067 0.0
H300 H 0.50079 0.69302 0.54632 0.0
C301 C 0.43584 0.74677 0.68758 0.0
H302 H 0.48293 0.79378 0.55341 0.0
C303 C 0.44642 0.69003 0.68417 0.0
C304 C 0.46954 0.66941 0.63319 0.0
H305 H 0.4164 0.76102 0.72645 0.0
H306 H 0.43524 0.66202 0.72119 0.0
C307 C 0.48289 0.70754 0.58612 0.0
C308 C 0.88244 0.90766 0.73764 0.0
C309 C 0.90112 0.90654 0.79909 0.0
H310 H 0.90267 0.93042 0.64723 0.0
C311 C 0.95746 0.91766 0.81454 0.0
H312 H 0.83909 0.89829 0.72459 0.0
C313 C 0.99376 0.9358 0.77058 0.0
C314 C 0.97451 0.94307 0.71003 0.0
H315 H 0.97278 0.91707 0.86147 0.0
H316 H 0.03662 0.94763 0.78494 0.0
C317 C 0.9188 0.92591 0.69339 0.0
C318 C 0.63608 0.04299 0.33481 0.0
C319 C 0.66677 0.09318 0.36003 0.0
H320 H 0.5851 0.00552 0.25835 0.0
C321 C 0.67882 0.14022 0.32241 0.0
H322 H 0.6253 0.0066 0.36331 0.0
C323 C 0.65678 0.13956 0.2631 0.0
C324 C 0.62037 0.09243 0.24001 0.0
H325 H 0.70085 0.17998 0.34103 0.0
H326 H 0.66472 0.17827 0.23706 0.0
C327 C 0.61264 0.04267 0.27507 0.0
C328 C 0.39938 0.66654 0.36501 0.0
C329 C 0.39558 0.66848 0.30152 0.0
H330 H 0.42912 0.62405 0.44405 0.0
C331 C 0.42182 0.62987 0.26883 0.0
H332 H 0.37756 0.69449 0.39093 0.0
C333 C 0.45052 0.58949 0.29852 0.0
C334 C 0.45283 0.58569 0.36197 0.0
H335 H 0.41668 0.62822 0.21993 0.0
H336 H 0.46895 0.55958 0.27126 0.0
C337 C 0.42791 0.62555 0.39513 0.0
C338 C 0.06005 0.55597 0.68694 0.0
C339 C 0.09502 0.5136 0.69225 0.0
H340 H 0.00635 0.60421 0.73188 0.0
C341 C 0.11019 0.49353 0.74986 0.0
H342 H 0.04798 0.57157 0.64278 0.0
C343 C 0.08622 0.51158 0.80108 0.0
C344 C 0.04673 0.54974 0.79482 0.0
H345 H 0.13701 0.46033 0.75422 0.0
H346 H 0.09463 0.49164 0.84408 0.0
C347 C 0.03639 0.57432 0.73794 0.0
C348 C 0.70297 0.93765 0.88438 0.0
C349 C 0.75139 0.95524 0.91985 0.0
H350 H 0.61563 0.93288 0.8764 0.0
C351 C 0.74935 0.98689 0.97335 0.0
H352 H 0.7041 0.91291 0.84313 0.0
C353 C 0.69887 -0.00137 0.99261 0.0
C354 C 0.6499 0.97803 0.95884 0.0
H355 H 0.78662 0.00047 1.00114 0.0
H356 H 0.69801 0.02143 0.03514 0.0
C357 C 0.65259 0.94876 0.90374 0.0
C358 C 0.79542 0.11431 0.40238 0.0
C359 C 0.76818 0.11877 0.45568 0.0
H360 H 0.86762 0.09499 0.36197 0.0
C361 C 0.7964 0.10823 0.51113 0.0
H362 H 0.7767 0.12328 0.35885 0.0
C363 C 0.84982 0.0927 0.5131 0.0
C364 C 0.87633 0.08699 0.45948 0.0
H365 H 0.77654 0.11088 0.55303 0.0
H366 H 0.8697 0.0837 0.55646 0.0
C367 C 0.84852 0.09861 0.40425 0.0
C368 C 0.19085 0.69986 0.14872 0.0
C369 C 0.23826 0.6735 0.16153 0.0
H370 H 0.11155 0.6932 0.1012 0.0
C371 C 0.24514 0.62296 0.13027 0.0
H372 H 0.18533 0.73917 0.17213 0.0
C373 C 0.20324 0.5965 0.09044 0.0
C374 C 0.15454 0.62118 0.07991 0.0
H375 H 0.2822 0.60294 0.13848 0.0
H376 H 0.20769 0.55529 0.07024 0.0
C377 C 0.14937 0.67414 0.10755 0.0
C378 C 0.24218 0.43668 0.53095 0.0
C379 C 0.21283 0.41292 0.57884 0.0
H380 H 0.32144 0.46129 0.49802 0.0
C381 C 0.24008 0.38398 0.62433 0.0
H382 H 0.22172 0.45987 0.49597 0.0
C383 C 0.29689 0.38467 0.6258 0.0
C384 C 0.32743 0.41507 0.58216 0.0
H385 H 0.21845 0.36648 0.6623 0.0
H386 H 0.31732 0.36625 0.66441 0.0
C387 C 0.29922 0.43763 0.53239 0.0
C388 C 0.91636 0.80935 0.95623 0.0
C389 C 0.88465 0.82052 0.90342 0.0
H390 H 0.94935 0.7454 1.01199 0.0
C391 C 0.863 0.77478 0.86484 0.0
H392 H 0.93253 0.84421 0.98715 0.0
C393 C 0.87077 0.71858 0.8798 0.0
C394 C 0.90113 0.70664 0.93353 0.0
H395 H 0.83732 0.78237 0.82482 0.0
H396 H 0.85257 0.68435 0.84903 0.0
C397 C 0.92499 0.75289 0.97096 0.0
C398 C 0.44843 0.76344 0.19399 0.0
C399 C 0.41083 0.78209 0.23209 0.0
H400 H 0.50143 0.78573 0.1232 0.0
C401 C 0.41072 0.84156 0.24081 0.0
H402 H 0.44899 0.71818 0.1855 0.0
C403 C 0.43947 0.88082 0.20332 0.0
C404 C 0.46928 0.86068 0.15754 0.0
H405 H 0.3817 0.85686 0.26977 0.0
H406 H 0.43294 0.92558 0.20545 0.0
C407 C 0.47751 0.80241 0.15702 0.0
C408 C 0.0969 0.30299 0.54407 0.0
C409 C 0.10718 0.33818 0.5961 0.0
H410 H 0.0804 0.21613 0.50911 0.0
C411 C 0.10734 0.31312 0.65317 0.0
H412 H 0.09616 0.32197 0.49968 0.0
C413 C 0.09736 0.25404 0.65877 0.0
C414 C 0.0876 0.21796 0.60727 0.0
H415 H 0.11498 0.33981 0.69369 0.0
H416 H 0.09809 0.23668 0.70396 0.0
C417 C 0.08713 0.2429 0.54959 0.0
C418 C 0.59518 0.24545 0.43079 0.0
C419 C 0.60797 0.21857 0.48541 0.0
H420 H 0.55516 0.31061 0.38631 0.0
C421 C 0.58823 0.23772 0.5389 0.0
H422 H 0.61024 0.23141 0.38904 0.0
C423 C 0.55663 0.2838 0.53761 0.0
C424 C 0.54398 0.31073 0.48263 0.0
H425 H 0.59725 0.21705 0.58125 0.0
H426 H 0.54234 0.29851 0.57946 0.0
C427 C 0.56311 0.29036 0.42924 0.0
loop_
_geom_bond_atom_site_label_1
_geom_bond_atom_site_label_2
_geom_bond_distance
_geom_bond_site_symmetry_2
_ccdc_geom_bond_type
C0 N1 1.317 . S
C0 N2 1.348 . S
C0 C3 1.485 . S
N1 C0 1.317 . S
N1 N5 1.370 . S
N2 C0 1.348 . S
N2 C4 1.346 . S
C3 C0 1.485 . S
C3 H7 0.960 . S
C3 H8 0.961 . S
C3 H9 0.960 . S
C4 N2 1.346 . S
C4 N5 1.307 . S
C4 C6 1.486 . S
N5 N1 1.370 . S
N5 C4 1.307 . S
C6 C4 1.486 . S
C6 H10 0.960 . S
C6 H11 0.951 1_554 S
C6 H12 0.959 . S
H7 C3 0.960 . S
H8 C3 0.961 . S
H9 C3 0.960 . S
H10 C6 0.960 . S
H11 C6 0.951 1_556 S
H12 C6 0.959 . S
C13 N14 1.317 . S
C13 N15 1.348 . S
C13 C16 1.485 . S
N14 C13 1.317 . S
N14 N18 1.370 . S
N15 C13 1.348 . S
N15 C17 1.346 . S
C16 C13 1.485 . S
C16 H20 0.960 . S
C16 H21 0.961 . S
C16 H22 0.960 . S
C17 N15 1.346 . S
C17 N18 1.307 . S
C17 C19 1.486 . S
N18 N14 1.370 . S
N18 C17 1.307 . S
C19 C17 1.486 . S
C19 H23 0.960 . S
C19 H24 0.960 . S
C19 H25 0.959 . S
H20 C16 0.960 . S
H21 C16 0.961 . S
H22 C16 0.960 . S
H23 C19 0.960 . S
H24 C19 0.960 . S
H25 C19 0.959 . S
C26 N27 1.317 . S
C26 N28 1.348 . S
C26 C29 1.485 . S
N27 C26 1.317 . S
N27 N31 1.370 . S
N28 C26 1.348 . S
N28 C30 1.346 . S
C29 C26 1.485 . S
C29 H33 0.960 . S
C29 H34 0.961 . S
C29 H35 0.960 . S
C30 N28 1.346 . S
C30 N31 1.307 . S
C30 C32 1.486 . S
N31 N27 1.370 . S
N31 C30 1.307 . S
C32 C30 1.486 . S
C32 H36 0.960 . S
C32 H37 0.960 . S
C32 H38 0.959 . S
H33 C29 0.960 . S
H34 C29 0.961 . S
H35 C29 0.960 . S
H36 C32 0.960 . S
H37 C32 0.960 . S
H38 C32 0.959 . S
C39 N40 1.317 . S
C39 N41 1.348 . S
C39 C42 1.485 . S
N40 C39 1.317 . S
N40 N44 1.370 . S
N41 C39 1.348 . S
N41 C43 1.346 . S
C42 C39 1.485 . S
C42 H46 0.960 . S
C42 H47 0.961 . S
C42 H48 0.960 . S
C43 N41 1.346 . S
C43 N44 1.307 . S
C43 C45 1.486 . S
N44 N40 1.370 . S
N44 C43 1.307 . S
C45 C43 1.486 . S
C45 H49 0.960 . S
C45 H50 0.960 . S
C45 H51 0.959 . S
H46 C42 0.960 . S
H47 C42 0.961 . S
H48 C42 0.960 . S
H49 C45 0.960 . S
H50 C45 0.960 . S
H51 C45 0.959 . S
C52 N53 1.317 . S
C52 N54 1.348 . S
C52 C55 1.485 . S
N53 C52 1.317 . S
N53 N57 1.370 . S
N54 C52 1.348 . S
N54 C56 1.346 . S
C55 C52 1.485 . S
C55 H59 0.960 . S
C55 H60 0.961 1_556 S
C55 H61 0.960 . S
C56 N54 1.346 . S
C56 N57 1.307 . S
C56 C58 1.486 . S
N57 N53 1.370 . S
N57 C56 1.307 . S
C58 C56 1.486 . S
C58 H62 0.960 1_565 S
C58 H63 0.960 . S
C58 H64 0.959 . S
H59 C55 0.960 . S
H60 C55 0.961 1_554 S
H61 C55 0.960 . S
H62 C58 0.960 1_545 S
H63 C58 0.960 . S
H64 C58 0.959 . S
C65 N66 1.317 . S
C65 N67 1.348 . S
C65 C68 1.485 . S
N66 C65 1.317 . S
N66 N70 1.370 . S
N67 C65 1.348 . S
N67 C69 1.346 . S
C68 C65 1.485 . S
C68 H72 0.960 . S
C68 H73 0.961 . S
C68 H74 0.960 . S
C69 N67 1.346 . S
C69 N70 1.307 . S
C69 C71 1.486 . S
N70 N66 1.370 . S
N70 C69 1.307 . S
C71 C69 1.486 . S
C71 H75 0.960 . S
C71 H76 0.960 . S
C71 H77 0.959 . S
H72 C68 0.960 . S
H73 C68 0.961 . S
H74 C68 0.960 . S
H75 C71 0.960 . S
H76 C71 0.960 . S
H77 C71 0.959 . S
C78 N79 1.317 . S
C78 N80 1.348 . S
C78 C81 1.485 . S
N79 C78 1.317 . S
N79 N83 1.370 . S
N80 C78 1.348 . S
N80 C82 1.346 . S
C81 C78 1.485 . S
C81 H85 0.960 . S
C81 H86 0.961 . S
C81 H87 0.960 . S
C82 N80 1.346 . S
C82 N83 1.307 . S
C82 C84 1.486 . S
N83 N79 1.370 . S
N83 C82 1.307 . S
C84 C82 1.486 . S
C84 H88 0.960 . S
C84 H89 0.960 . S
C84 H90 0.959 . S
H85 C81 0.960 . S
H86 C81 0.961 . S
H87 C81 0.960 . S
H88 C84 0.960 . S
H89 C84 0.960 . S
H90 C84 0.959 . S
C91 N92 1.317 . S
C91 N93 1.348 . S
C91 C94 1.485 . S
N92 C91 1.317 . S
N92 N96 1.370 . S
N93 C91 1.348 . S
N93 C95 1.346 . S
C94 C91 1.485 . S
C94 H98 0.960 . S
C94 H99 0.961 . S
C94 H100 0.960 . S
C95 N93 1.346 . S
C95 N96 1.307 . S
C95 C97 1.486 . S
N96 N92 1.370 . S
N96 C95 1.307 . S
C97 C95 1.486 . S
C97 H101 0.960 . S
C97 H102 0.960 . S
C97 H103 0.959 . S
H98 C94 0.960 . S
H99 C94 0.961 . S
H100 C94 0.960 . S
H101 C97 0.960 . S
H102 C97 0.960 . S
H103 C97 0.959 . S
O104 Mg105 1.990 . S
O104 C118 1.253 1_545 S
Mg105 O104 1.990 . S
Mg105 O108 2.180 . S
Mg105 O109 2.117 . S
Mg105 O123 2.030 1_545 S
O106 Mg107 2.072 1_565 S
O106 C118 1.260 . S
Mg107 O106 2.072 1_545 S
Mg107 O108 2.099 . S
Mg107 O110 2.079 . S
Mg107 O111 2.072 1_455 S
Mg107 O113 2.099 1_545 S
Mg107 O124 2.079 1_545 S
O108 Mg105 2.180 . S
O108 Mg107 2.099 . S
O108 C119 1.279 . S
O109 Mg105 2.117 . S
O109 C119 1.250 . S
O110 Mg107 2.079 . S
O110 C120 1.264 . S
O111 Mg107 2.072 1_655 S
O111 C121 1.260 . S
Mg112 O113 2.180 1_655 S
Mg112 O114 2.030 1_665 S
Mg112 O115 1.990 1_565 S
Mg112 O116 2.117 . S
O113 Mg107 2.099 1_565 S
O113 Mg112 2.180 1_455 S
O113 C122 1.279 1_455 S
O114 Mg112 2.030 1_445 S
O114 C120 1.248 . S
O115 Mg112 1.990 1_545 S
O115 C121 1.253 . S
O116 Mg112 2.117 . S
O116 C122 1.250 . S
C117 O123 1.248 . S
C117 O124 1.264 . S
C118 O104 1.253 1_565 S
C118 O106 1.260 . S
C119 O108 1.279 . S
C119 O109 1.250 . S
C120 O110 1.264 . S
C120 O114 1.248 . S
C121 O111 1.260 . S
C121 O115 1.253 . S
C122 O113 1.279 1_655 S
C122 O116 1.250 . S
O123 Mg105 2.030 1_565 S
O123 C117 1.248 . S
O124 Mg107 2.079 1_565 S
O124 C117 1.264 . S
O125 Mg126 1.990 . S
O125 C139 1.253 . S
Mg126 O125 1.990 . S
Mg126 O129 2.180 . S
Mg126 O130 2.132 . S
Mg126 O144 2.030 . S
O127 Mg128 2.072 . S
O127 C139 1.260 . S
Mg128 O127 2.072 . S
Mg128 O129 2.099 . S
Mg128 O131 2.079 . S
Mg128 O132 2.072 1_554 S
Mg128 O134 2.099 1_545 S
Mg128 O145 2.079 . S
O129 Mg126 2.180 . S
O129 Mg128 2.099 . S
O129 C140 1.279 1_554 S
O130 Mg126 2.132 . S
O130 C140 1.246 1_554 S
O131 Mg128 2.079 . S
O131 C141 1.264 1_544 S
O132 Mg128 2.072 1_556 S
O132 C142 1.260 1_545 S
Mg133 O134 2.180 1_556 S
Mg133 O135 2.030 . S
Mg133 O136 1.990 . S
Mg133 O137 2.117 1_556 S
O134 Mg128 2.099 1_565 S
O134 Mg133 2.180 1_554 S
O134 C143 1.279 . S
O135 Mg133 2.030 . S
O135 C141 1.248 . S
O136 Mg133 1.990 . S
O136 C142 1.253 . S
O137 Mg133 2.117 1_554 S
O137 C143 1.250 . S
C138 O144 1.248 . S
C138 O145 1.264 . S
C139 O125 1.253 . S
C139 O127 1.260 . S
C140 O129 1.279 1_556 S
C140 O130 1.246 1_556 S
C141 O131 1.264 1_566 S
C141 O135 1.248 . S
C142 O132 1.260 1_565 S
C142 O136 1.253 . S
C143 O134 1.279 . S
C143 O137 1.250 . S
O144 Mg126 2.030 . S
O144 C138 1.248 . S
O145 Mg128 2.079 . S
O145 C138 1.264 . S
O146 Mg147 1.990 . S
O146 C160 1.253 . S
Mg147 O146 1.990 . S
Mg147 O150 2.180 . S
Mg147 O151 2.117 . S
Mg147 O165 2.030 . S
O148 Mg149 2.072 . S
O148 C160 1.260 . S
Mg149 O148 2.072 . S
Mg149 O150 2.099 . S
Mg149 O152 2.079 . S
Mg149 O153 2.072 . S
Mg149 O155 2.099 . S
Mg149 O166 2.079 . S
O150 Mg147 2.180 . S
O150 Mg149 2.099 . S
O150 C161 1.279 . S
O151 Mg147 2.117 . S
O151 C161 1.250 . S
O152 Mg149 2.079 . S
O152 C162 1.264 . S
O153 Mg149 2.072 . S
O153 C163 1.260 . S
Mg154 O155 2.180 . S
Mg154 O156 2.030 . S
Mg154 O157 1.990 . S
Mg154 O158 2.117 . S
O155 Mg149 2.099 . S
O155 Mg154 2.180 . S
O155 C164 1.279 . S
O156 Mg154 2.030 . S
O156 C162 1.248 . S
O157 Mg154 1.990 . S
O157 C163 1.253 . S
O158 Mg154 2.117 . S
O158 C164 1.250 . S
C159 O165 1.248 . S
C159 O166 1.264 . S
C160 O146 1.253 . S
C160 O148 1.260 . S
C161 O150 1.279 . S
C161 O151 1.250 . S
C162 O152 1.264 . S
C162 O156 1.248 . S
C163 O153 1.260 . S
C163 O157 1.253 . S
C164 O155 1.279 . S
C164 O158 1.250 . S
O165 Mg147 2.030 . S
O165 C159 1.248 . S
O166 Mg149 2.079 . S
O166 C159 1.264 . S
O167 Mg168 1.990 . S
O167 C181 1.253 . S
Mg168 O167 1.990 . S
Mg168 O171 2.171 1_455 S
Mg168 O172 2.117 1_455 S
Mg168 O186 2.030 . S
O169 Mg170 2.072 . S
O169 C181 1.260 . S
Mg170 O169 2.072 . S
Mg170 O171 2.096 1_455 S
Mg170 O173 2.079 1_454 S
Mg170 O174 2.072 1_454 S
Mg170 O176 2.099 1_554 S
Mg170 O187 2.079 . S
O171 Mg168 2.171 1_655 S
O171 Mg170 2.096 1_655 S
O171 C182 1.288 . S
O172 Mg168 2.117 1_655 S
O172 C182 1.250 . S
O173 Mg170 2.079 1_656 S
O173 C183 1.264 . S
O174 Mg170 2.072 1_656 S
O174 C184 1.260 . S
Mg175 O176 2.180 1_655 S
Mg175 O177 2.030 . S
Mg175 O178 1.990 . S
Mg175 O179 2.117 . S
O176 Mg170 2.099 1_556 S
O176 Mg175 2.180 1_455 S
O176 C185 1.279 . S
O177 Mg175 2.030 . S
O177 C183 1.248 . S
O178 Mg175 1.990 . S
O178 C184 1.253 . S
O179 Mg175 2.117 . S
O179 C185 1.250 1_655 S
C180 O186 1.248 . S
C180 O187 1.264 . S
C181 O167 1.253 . S
C181 O169 1.260 . S
C182 O171 1.288 . S
C182 O172 1.250 . S
C183 O173 1.264 . S
C183 O177 1.248 . S
C184 O174 1.260 . S
C184 O178 1.253 . S
C185 O176 1.279 . S
C185 O179 1.250 1_455 S
O186 Mg168 2.030 . S
O186 C180 1.248 . S
O187 Mg170 2.079 . S
O187 C180 1.264 . S
C188 C189 1.387 . S
C188 H192 0.950 . S
C188 C197 1.390 . S
C189 C188 1.387 . S
C189 C191 1.387 . S
H190 C197 0.950 . S
C191 C189 1.387 . S
C191 C193 1.390 . S
C191 H195 0.950 . S
H192 C188 0.950 . S
C193 C191 1.390 . S
C193 C194 1.387 . S
C193 H196 0.950 . S
C194 C193 1.387 . S
C194 C197 1.387 . S
H195 C191 0.950 . S
H196 C193 0.950 . S
C197 C188 1.390 . S
C197 H190 0.950 . S
C197 C194 1.387 . S
C198 C199 1.387 . S
C198 H202 0.950 . S
C198 C207 1.390 . S
C199 C198 1.387 . S
C199 C201 1.387 . S
H200 C207 0.950 . S
C201 C199 1.387 . S
C201 C203 1.390 1_565 S
C201 H205 0.950 1_565 S
H202 C198 0.950 . S
C203 C201 1.390 1_545 S
C203 C204 1.387 1_545 S
C203 H206 0.950 . S
C204 C203 1.387 1_565 S
C204 C207 1.387 . S
H205 C201 0.950 1_545 S
H206 C203 0.950 . S
C207 C198 1.390 . S
C207 H200 0.950 . S
C207 C204 1.387 . S
C208 C209 1.387 . S
C208 H212 0.950 . S
C208 C217 1.390 . S
C209 C208 1.387 . S
C209 C211 1.387 . S
H210 C217 0.950 . S
C211 C209 1.387 . S
C211 C213 1.390 . S
C211 H215 0.950 . S
H212 C208 0.950 . S
C213 C211 1.390 . S
C213 C214 1.387 . S
C213 H216 0.950 . S
C214 C213 1.387 . S
C214 C217 1.387 . S
H215 C211 0.950 . S
H216 C213 0.950 . S
C217 C208 1.390 . S
C217 H210 0.950 . S
C217 C214 1.387 . S
C218 C219 1.387 . S
C218 H222 0.950 . S
C218 C227 1.390 . S
C219 C218 1.387 . S
C219 C221 1.387 . S
H220 C227 0.950 . S
C221 C219 1.387 . S
C221 C223 1.390 . S
C221 H225 0.950 . S
H222 C218 0.950 . S
C223 C221 1.390 . S
C223 C224 1.387 . S
C223 H226 0.950 . S
C224 C223 1.387 . S
C224 C227 1.387 . S
H225 C221 0.950 . S
H226 C223 0.950 . S
C227 C218 1.390 . S
C227 H220 0.950 . S
C227 C224 1.387 . S
C228 C229 1.387 . S
C228 H232 0.950 . S
C228 C237 1.390 . S
C229 C228 1.387 . S
C229 C231 1.387 . S
H230 C237 0.950 . S
C231 C229 1.387 . S
C231 C233 1.390 . S
C231 H235 0.950 . S
H232 C228 0.950 . S
C233 C231 1.390 . S
C233 C234 1.387 . S
C233 H236 0.950 . S
C234 C233 1.387 . S
C234 C237 1.387 . S
H235 C231 0.950 . S
H236 C233 0.950 . S
C237 C228 1.390 . S
C237 H230 0.950 . S
C237 C234 1.387 . S
C238 C239 1.387 . S
C238 H242 0.950 . S
C238 C247 1.390 . S
C239 C238 1.387 . S
C239 C241 1.387 . S
H240 C247 0.950 . S
C241 C239 1.387 . S
C241 C243 1.390 . S
C241 H245 0.950 . S
H242 C238 0.950 . S
C243 C241 1.390 . S
C243 C244 1.387 . S
C243 H246 0.950 . S
C244 C243 1.387 . S
C244 C247 1.387 . S
H245 C241 0.950 . S
H246 C243 0.950 . S
C247 C238 1.390 . S
C247 H240 0.950 . S
C247 C244 1.387 . S
C248 C249 1.387 . S
C248 H252 0.950 . S
C248 C257 1.390 . S
C249 C248 1.387 . S
C249 C251 1.387 . S
H250 C257 0.950 1_554 S
C251 C249 1.387 . S
C251 C253 1.390 . S
C251 H255 0.950 . S
H252 C248 0.950 . S
C253 C251 1.390 . S
C253 C254 1.387 . S
C253 H256 0.950 . S
C254 C253 1.387 . S
C254 C257 1.387 . S
H255 C251 0.950 . S
H256 C253 0.950 . S
C257 C248 1.390 . S
C257 H250 0.950 1_556 S
C257 C254 1.387 . S
C258 C259 1.387 . S
C258 H262 0.950 . S
C258 C267 1.390 . S
C259 C258 1.387 . S
C259 C261 1.387 . S
H260 C267 0.950 . S
C261 C259 1.387 . S
C261 C263 1.390 . S
C261 H265 0.950 . S
H262 C258 0.950 . S
C263 C261 1.390 . S
C263 C264 1.387 . S
C263 H266 0.950 . S
C264 C263 1.387 . S
C264 C267 1.387 . S
H265 C261 0.950 . S
H266 C263 0.950 . S
C267 C258 1.390 . S
C267 H260 0.950 . S
C267 C264 1.387 . S
C268 C269 1.387 . S
C268 H272 0.950 . S
C268 C277 1.390 . S
C269 C268 1.387 . S
C269 C271 1.387 . S
H270 C277 0.950 . S
C271 C269 1.387 . S
C271 C273 1.390 . S
C271 H275 0.950 . S
H272 C268 0.950 . S
C273 C271 1.390 . S
C273 C274 1.387 . S
C273 H276 0.950 1_554 S
C274 C273 1.387 . S
C274 C277 1.387 . S
H275 C271 0.950 . S
H276 C273 0.950 1_556 S
C277 C268 1.390 . S
C277 H270 0.950 . S
C277 C274 1.387 . S
C278 C279 1.387 . S
C278 H282 0.950 . S
C278 C287 1.390 . S
C279 C278 1.387 . S
C279 C281 1.387 . S
H280 C287 0.950 . S
C281 C279 1.387 . S
C281 C283 1.390 . S
C281 H285 0.943 1_556 S
H282 C278 0.950 . S
C283 C281 1.390 . S
C283 C284 1.387 . S
C283 H286 0.950 1_556 S
C284 C283 1.387 . S
C284 C287 1.387 . S
H285 C281 0.943 1_554 S
H286 C283 0.950 1_554 S
C287 C278 1.390 . S
C287 H280 0.950 . S
C287 C284 1.387 . S
C288 C289 1.387 . S
C288 H292 0.950 . S
C288 C297 1.390 . S
C289 C288 1.387 . S
C289 C291 1.387 . S
H290 C297 0.950 . S
C291 C289 1.387 . S
C291 C293 1.390 . S
C291 H295 0.950 . S
H292 C288 0.950 . S
C293 C291 1.390 . S
C293 C294 1.387 . S
C293 H296 0.950 1_655 S
C294 C293 1.387 . S
C294 C297 1.387 . S
H295 C291 0.950 . S
H296 C293 0.950 1_455 S
C297 C288 1.390 . S
C297 H290 0.950 . S
C297 C294 1.387 . S
C298 C299 1.387 . S
C298 H302 0.950 . S
C298 C307 1.390 . S
C299 C298 1.387 . S
C299 C301 1.387 . S
H300 C307 0.950 . S
C301 C299 1.387 . S
C301 C303 1.390 . S
C301 H305 0.950 . S
H302 C298 0.950 . S
C303 C301 1.390 . S
C303 C304 1.387 . S
C303 H306 0.950 . S
C304 C303 1.387 . S
C304 C307 1.387 . S
H305 C301 0.950 . S
H306 C303 0.950 . S
C307 C298 1.390 . S
C307 H300 0.950 . S
C307 C304 1.387 . S
C308 C309 1.387 . S
C308 H312 0.950 . S
C308 C317 1.390 . S
C309 C308 1.387 . S
C309 C311 1.387 . S
H310 C317 0.950 . S
C311 C309 1.387 . S
C311 C313 1.390 . S
C311 H315 0.950 1_565 S
H312 C308 0.950 . S
C313 C311 1.390 . S
C313 C314 1.387 . S
C313 H316 0.950 1_565 S
C314 C313 1.387 . S
C314 C317 1.387 . S
H315 C311 0.950 1_545 S
H316 C313 0.950 1_545 S
C317 C308 1.390 . S
C317 H310 0.950 . S
C317 C314 1.387 . S
C318 C319 1.387 . S
C318 H322 0.950 . S
C318 C327 1.390 . S
C319 C318 1.387 . S
C319 C321 1.387 . S
H320 C327 0.950 . S
C321 C319 1.387 . S
C321 C323 1.390 . S
C321 H325 0.950 . S
H322 C318 0.950 . S
C323 C321 1.390 . S
C323 C324 1.387 . S
C323 H326 0.950 . S
C324 C323 1.387 . S
C324 C327 1.387 . S
H325 C321 0.950 . S
H326 C323 0.950 . S
C327 C318 1.390 . S
C327 H320 0.950 . S
C327 C324 1.387 . S
C328 C329 1.387 . S
C328 H332 0.950 . S
C328 C337 1.390 . S
C329 C328 1.387 . S
C329 C331 1.387 . S
H330 C337 0.950 . S
C331 C329 1.387 . S
C331 C333 1.390 . S
C331 H335 0.950 . S
H332 C328 0.950 . S
C333 C331 1.390 . S
C333 C334 1.387 . S
C333 H336 0.950 . S
C334 C333 1.387 . S
C334 C337 1.387 . S
H335 C331 0.950 . S
H336 C333 0.950 . S
C337 C328 1.390 . S
C337 H330 0.950 . S
C337 C334 1.387 . S
C338 C339 1.387 . S
C338 H342 0.950 . S
C338 C347 1.390 . S
C339 C338 1.387 . S
C339 C341 1.387 . S
H340 C347 0.950 . S
C341 C339 1.387 . S
C341 C343 1.390 . S
C341 H345 0.950 . S
H342 C338 0.950 . S
C343 C341 1.390 . S
C343 C344 1.387 . S
C343 H346 0.950 . S
C344 C343 1.387 . S
C344 C347 1.387 . S
H345 C341 0.950 . S
H346 C343 0.950 . S
C347 C338 1.390 . S
C347 H340 0.950 . S
C347 C344 1.387 . S
C348 C349 1.387 . S
C348 H352 0.950 . S
C348 C357 1.390 . S
C349 C348 1.387 . S
C349 C351 1.387 . S
H350 C357 0.950 . S
C351 C349 1.387 . S
C351 C353 1.390 1_556 S
C351 H355 0.950 1_556 S
H352 C348 0.950 . S
C353 C351 1.390 1_554 S
C353 C354 1.387 1_554 S
C353 H356 0.950 . S
C354 C353 1.387 1_556 S
C354 C357 1.387 . S
H355 C351 0.950 1_554 S
H356 C353 0.950 . S
C357 C348 1.390 . S
C357 H350 0.950 . S
C357 C354 1.387 . S
C358 C359 1.387 . S
C358 H362 0.950 . S
C358 C367 1.390 . S
C359 C358 1.387 . S
C359 C361 1.387 . S
H360 C367 0.950 . S
C361 C359 1.387 . S
C361 C363 1.390 . S
C361 H365 0.950 . S
H362 C358 0.950 . S
C363 C361 1.390 . S
C363 C364 1.387 . S
C363 H366 0.950 . S
C364 C363 1.387 . S
C364 C367 1.387 . S
H365 C361 0.950 . S
H366 C363 0.950 . S
C367 C358 1.390 . S
C367 H360 0.950 . S
C367 C364 1.387 . S
C368 C369 1.387 . S
C368 H372 0.950 . S
C368 C377 1.390 . S
C369 C368 1.387 . S
C369 C371 1.387 . S
H370 C377 0.950 . S
C371 C369 1.387 . S
C371 C373 1.390 . S
C371 H375 0.950 . S
H372 C368 0.950 . S
C373 C371 1.390 . S
C373 C374 1.387 . S
C373 H376 0.950 . S
C374 C373 1.387 . S
C374 C377 1.387 . S
H375 C371 0.950 . S
H376 C373 0.950 . S
C377 C368 1.390 . S
C377 H370 0.950 . S
C377 C374 1.387 . S
C378 C379 1.387 . S
C378 H382 0.950 . S
C378 C387 1.390 . S
C379 C378 1.387 . S
C379 C381 1.387 . S
H380 C387 0.950 . S
C381 C379 1.387 . S
C381 C383 1.390 . S
C381 H385 0.950 . S
H382 C378 0.950 . S
C383 C381 1.390 . S
C383 C384 1.387 . S
C383 H386 0.950 . S
C384 C383 1.387 . S
C384 C387 1.387 . S
H385 C381 0.950 . S
H386 C383 0.950 . S
C387 C378 1.390 . S
C387 H380 0.950 . S
C387 C384 1.387 . S
C388 C389 1.387 . S
C388 H392 0.950 . S
C388 C397 1.390 . S
C389 C388 1.387 . S
C389 C391 1.387 . S
H390 C397 0.950 1_554 S
C391 C389 1.387 . S
C391 C393 1.390 . S
C391 H395 0.950 . S
H392 C388 0.950 . S
C393 C391 1.390 . S
C393 C394 1.387 . S
C393 H396 0.950 . S
C394 C393 1.387 . S
C394 C397 1.387 . S
H395 C391 0.950 . S
H396 C393 0.950 . S
C397 C388 1.390 . S
C397 H390 0.950 1_556 S
C397 C394 1.387 . S
C398 C399 1.387 . S
C398 H402 0.950 . S
C398 C407 1.390 . S
C399 C398 1.387 . S
C399 C401 1.387 . S
H400 C407 0.950 . S
C401 C399 1.387 . S
C401 C403 1.390 . S
C401 H405 0.950 . S
H402 C398 0.950 . S
C403 C401 1.390 . S
C403 C404 1.387 . S
C403 H406 0.950 . S
C404 C403 1.387 . S
C404 C407 1.387 . S
H405 C401 0.950 . S
H406 C403 0.950 . S
C407 C398 1.390 . S
C407 H400 0.950 . S
C407 C404 1.387 . S
C408 C409 1.387 . S
C408 H412 0.950 . S
C408 C417 1.390 . S
C409 C408 1.387 . S
C409 C411 1.387 . S
H410 C417 0.950 . S
C411 C409 1.387 . S
C411 C413 1.390 . S
C411 H415 0.950 . S
H412 C408 0.950 . S
C413 C411 1.390 . S
C413 C414 1.387 . S
C413 H416 0.950 . S
C414 C413 1.387 . S
C414 C417 1.387 . S
H415 C411 0.950 . S
H416 C413 0.950 . S
C417 C408 1.390 . S
C417 H410 0.950 . S
C417 C414 1.387 . S
C418 C419 1.387 . S
C418 H422 0.950 . S
C418 C427 1.390 . S
C419 C418 1.387 . S
C419 C421 1.387 . S
H420 C427 0.950 . S
C421 C419 1.387 . S
C421 C423 1.390 . S
C421 H425 0.950 . S
H422 C418 0.950 . S
C423 C421 1.390 . S
C423 C424 1.387 . S
C423 H426 0.950 . S
C424 C423 1.387 . S
C424 C427 1.387 . S
H425 C421 0.950 . S
H426 C423 0.950 . S
C427 C418 1.390 . S
C427 H420 0.950 . S
C427 C424 1.387 . S
C189 N1 1.484 . S
C194 C120 1.494 . S
C199 N18 1.695 . S
C204 C142 1.657 . S
C214 C161 1.001 . S
C209 N28 1.209 . S
C219 N40 1.789 . S
C224 C182 1.479 . S
C234 C139 1.877 . S
C229 N5 1.944 . S
C244 C117 1.569 . S
C239 N14 1.610 . S
C254 C184 1.346 . S
C249 N31 1.395 . S
C264 C163 1.214 . S
C259 N41 1.255 . S
C269 N2 1.541 . S
C274 C181 1.513 . S
C284 C140 1.345 . S
C279 N27 1.605 . S
C289 N44 1.659 . S
C294 C122 1.470 . S
C299 N15 1.397 . S
C304 C160 1.350 . S
C314 C118 1.709 1_655 S
C309 N57 1.790 . S
C319 N70 1.273 . S
C324 C138 1.285 . S
C329 N79 1.431 . S
C334 C164 1.265 . S
C339 N93 1.485 . S
C344 C185 1.239 . S
C349 N54 1.541 . S
C354 C141 1.500 . S
C364 C121 1.928 . S
C359 N66 1.964 . S
C374 C180 0.981 . S
C369 N80 1.023 . S
C384 C159 1.457 . S
C379 N96 1.516 . S
C389 N53 1.507 . S
C394 C183 1.495 . S
C404 C143 1.209 . S
C399 N83 1.447 . S
C414 C119 1.431 . S
C409 N92 1.566 . S
C419 N67 1.447 . S
C424 C162 1.435 . S
