# Generated by pormake.
# Topology ant, (3,6)-cn, num edge types: 1
# Building blocks:
#     Node 0, Type 0, BuildingBlock: BETDAH_clean_linker_0, # of connection points: 3
#     Node 1, Type 0, BuildingBlock: BETDAH_clean_linker_0, # of connection points: 3
#     Node 2, Type 0, BuildingBlock: BETDAH_clean_linker_0, # of connection points: 3
#     Node 3, Type 0, BuildingBlock: BETDAH_clean_linker_0, # of connection points: 3
#     Node 4, Type 0, BuildingBlock: BETDAH_clean_linker_0, # of connection points: 3
#     Node 5, Type 0, BuildingBlock: BETDAH_clean_linker_0, # of connection points: 3
#     Node 6, Type 0, BuildingBlock: BETDAH_clean_linker_0, # of connection points: 3
#     Node 7, Type 0, BuildingBlock: BETDAH_clean_linker_0, # of connection points: 3
#     Node 8, Type 1, BuildingBlock: MIDCAF_clean_sbu_0, # of connection points: 6
#     Node 9, Type 1, BuildingBlock: MIDCAF_clean_sbu_0, # of connection points: 6
#     Node 10, Type 1, BuildingBlock: MIDCAF_clean_sbu_0, # of connection points: 6
#     Node 11, Type 1, BuildingBlock: MIDCAF_clean_sbu_0, # of connection points: 6
#     Edge 12, Type (0, 1), BuildingBlock: AJUNOK_clean_linker_0, # of connection points: 2
#     Edge 13, Type (0, 1), BuildingBlock: AJUNOK_clean_linker_0, # of connection points: 2
#     Edge 14, Type (0, 1), BuildingBlock: AJUNOK_clean_linker_0, # of connection points: 2
#     Edge 15, Type (0, 1), BuildingBlock: AJUNOK_clean_linker_0, # of connection points: 2
#     Edge 16, Type (0, 1), BuildingBlock: AJUNOK_clean_linker_0, # of connection points: 2
#     Edge 17, Type (0, 1), BuildingBlock: AJUNOK_clean_linker_0, # of connection points: 2
#     Edge 18, Type (0, 1), BuildingBlock: AJUNOK_clean_linker_0, # of connection points: 2
#     Edge 19, Type (0, 1), BuildingBlock: AJUNOK_clean_linker_0, # of connection points: 2
#     Edge 20, Type (0, 1), BuildingBlock: AJUNOK_clean_linker_0, # of connection points: 2
#     Edge 21, Type (0, 1), BuildingBlock: AJUNOK_clean_linker_0, # of connection points: 2
#     Edge 22, Type (0, 1), BuildingBlock: AJUNOK_clean_linker_0, # of connection points: 2
#     Edge 23, Type (0, 1), BuildingBlock: AJUNOK_clean_linker_0, # of connection points: 2
#     Edge 24, Type (0, 1), BuildingBlock: AJUNOK_clean_linker_0, # of connection points: 2
#     Edge 25, Type (0, 1), BuildingBlock: AJUNOK_clean_linker_0, # of connection points: 2
#     Edge 26, Type (0, 1), BuildingBlock: AJUNOK_clean_linker_0, # of connection points: 2
#     Edge 27, Type (0, 1), BuildingBlock: AJUNOK_clean_linker_0, # of connection points: 2
#     Edge 28, Type (0, 1), BuildingBlock: AJUNOK_clean_linker_0, # of connection points: 2
#     Edge 29, Type (0, 1), BuildingBlock: AJUNOK_clean_linker_0, # of connection points: 2
#     Edge 30, Type (0, 1), BuildingBlock: AJUNOK_clean_linker_0, # of connection points: 2
#     Edge 31, Type (0, 1), BuildingBlock: AJUNOK_clean_linker_0, # of connection points: 2
#     Edge 32, Type (0, 1), BuildingBlock: AJUNOK_clean_linker_0, # of connection points: 2
#     Edge 33, Type (0, 1), BuildingBlock: AJUNOK_clean_linker_0, # of connection points: 2
#     Edge 34, Type (0, 1), BuildingBlock: AJUNOK_clean_linker_0, # of connection points: 2
#     Edge 35, Type (0, 1), BuildingBlock: AJUNOK_clean_linker_0, # of connection points: 2
# Relax obj value: 0.057
# Max RMSD: 0.148
# Mean RMSD: 0.088
data_MOF--net-ant--node1-MIDCAF_clean_sbu_0--node2-BETDAH_clean_linker_0--edge1-AJUNOK_clean_linker_0
_symmetry_space_group_name_H-M    P1
_symmetry_Int_Tables_number       1
_symmetry_cell_setting            triclinic
loop_
_symmetry_equiv_pos_as_xyz
'x, y, z'
_cell_length_a     21.373083
_cell_length_b     21.014666
_cell_length_c     51.138021
_cell_angle_alpha  94.12484
_cell_angle_beta   99.058194
_cell_angle_gamma 89.47711
loop_
_atom_site_label
_atom_site_type_symbol
_atom_site_fract_x
_atom_site_fract_y
_atom_site_fract_z
_atom_type_partial_charge
H0 H 0.18026 0.37512 0.03674 0.0
H1 H 0.24226 0.19377 0.06492 0.0
H2 H 0.2547 0.36049 0.11945 0.0
C3 C 0.19869 0.34685 0.05315 0.0
C4 C 0.21642 0.37707 0.07864 0.0
C5 C 0.20776 0.28093 0.04818 0.0
C6 C 0.23441 0.24423 0.069 0.0
C7 C 0.25178 0.27298 0.09481 0.0
C8 C 0.2422 0.33904 0.09943 0.0
N9 N 0.28043 0.23757 0.11636 0.0
C10 C 0.285 0.17108 0.11572 0.0
H11 H 0.18785 0.80012 0.27032 0.0
H12 H 0.00302 0.78595 0.29254 0.0
H13 H 0.16995 0.7779 0.35159 0.0
C14 C 0.15832 0.79754 0.28564 0.0
C15 C 0.18695 0.78917 0.31174 0.0
C16 C 0.0922 0.79528 0.27846 0.0
C17 C 0.05396 0.78967 0.29815 0.0
C18 C 0.08235 0.78564 0.32482 0.0
C19 C 0.14855 0.78507 0.33135 0.0
N20 N 0.04661 0.77726 0.34544 0.0
C21 C 0.98116 0.78158 0.3431 0.0
H22 H 0.6665 0.84498 0.52769 0.0
H23 H 0.73583 0.66294 0.55285 0.0
H24 H 0.79108 0.83429 0.60191 0.0
C25 C 0.69322 0.81679 0.54253 0.0
C26 C 0.72681 0.84786 0.56561 0.0
C27 C 0.69653 0.75008 0.53773 0.0
C28 C 0.73344 0.71414 0.55656 0.0
C29 C 0.76806 0.7446 0.57974 0.0
C30 C 0.76457 0.81116 0.58399 0.0
N31 N 0.80771 0.71017 0.59889 0.0
C32 C 0.80737 0.64399 0.59928 0.0
H33 H 0.71415 0.26797 0.77707 0.0
H34 H 0.52432 0.23465 0.79037 0.0
H35 H 0.67943 0.23493 0.85551 0.0
C36 C 0.68125 0.26078 0.79074 0.0
C37 C 0.70475 0.2532 0.81748 0.0
C38 C 0.61646 0.25378 0.78093 0.0
C39 C 0.57402 0.24197 0.79826 0.0
C40 C 0.59646 0.23638 0.8254 0.0
C41 C 0.66187 0.24187 0.83485 0.0
N42 N 0.55507 0.22143 0.84327 0.0
C43 C 0.48931 0.22566 0.83769 0.0
H44 H 0.01243 0.61096 0.94567 0.0
H45 H 0.01224 0.81344 0.93846 0.0
H46 H 0.96095 0.68577 0.86904 0.0
C47 C 0.00361 0.65112 0.93346 0.0
C48 C 0.9846 0.64059 0.90592 0.0
C49 C 0.0133 0.71318 0.94531 0.0
C50 C 0.00426 0.76541 0.92939 0.0
C51 C 0.98528 0.75545 0.90184 0.0
C52 C 0.97475 0.69322 0.89036 0.0
N53 N 0.97711 0.80642 0.88488 0.0
C54 C 0.99655 0.86914 0.892 0.0
H55 H 0.56624 0.85074 0.22604 0.0
H56 H 0.74462 0.79747 0.20306 0.0
H57 H 0.58386 0.82181 0.14312 0.0
C58 C 0.59472 0.84178 0.21042 0.0
C59 C 0.56576 0.83968 0.18359 0.0
C60 C 0.65822 0.82373 0.21746 0.0
C61 C 0.69591 0.81234 0.19761 0.0
C62 C 0.66942 0.81503 0.17078 0.0
C63 C 0.60433 0.8266 0.16391 0.0
N64 N 0.70588 0.80086 0.15021 0.0
C65 C 0.77172 0.80115 0.15431 0.0
H66 H 0.52057 0.06413 0.44416 0.0
H67 H 0.53629 0.26841 0.45131 0.0
H68 H 0.44558 0.17321 0.37807 0.0
C69 C 0.51086 0.10948 0.43549 0.0
C70 C 0.48134 0.11113 0.40896 0.0
C71 C 0.53045 0.16575 0.45081 0.0
C72 C 0.52149 0.22478 0.43943 0.0
C73 C 0.49044 0.22757 0.4132 0.0
C74 C 0.46963 0.17077 0.39827 0.0
N75 N 0.47755 0.2865 0.40141 0.0
C76 C 0.51222 0.34278 0.40842 0.0
H77 H 0.06384 0.30362 0.71924 0.0
H78 H 0.26013 0.30258 0.71024 0.0
H79 H 0.11869 0.3649 0.64763 0.0
C80 C 0.10018 0.31475 0.70768 0.0
C81 C 0.08293 0.33748 0.68238 0.0
C82 C 0.16376 0.30288 0.7179 0.0
C83 C 0.2112 0.31268 0.70249 0.0
C84 C 0.1947 0.33547 0.67706 0.0
C85 C 0.13089 0.34783 0.66729 0.0
N86 N 0.24014 0.34585 0.66034 0.0
C87 C 0.30512 0.33583 0.66618 0.0
Zn88 Zn 0.22717 0.65612 0.1609 0.0
Zn89 Zn 0.09216 0.86752 0.10136 0.0
Zn90 Zn 0.15589 0.77706 0.11776 0.0
C91 C 0.08489 0.77638 0.05826 0.0
C92 C 0.21231 0.917 0.11402 0.0
O93 O 0.11608 0.75547 0.15459 0.0
O94 O 0.15788 0.68035 0.18141 0.0
C95 C 0.17926 0.6508 0.10171 0.0
O96 O 0.12268 0.74579 0.07516 0.0
O97 O 0.06399 0.83018 0.06529 0.0
O98 O 0.15683 0.93239 0.10446 0.0
O99 O 0.22414 0.85991 0.12129 0.0
O100 O 0.19317 0.66953 0.12549 0.0
O101 O 0.15412 0.69357 0.08715 0.0
O102 O 0.2557 0.80326 0.13548 0.0
O103 O 0.29145 0.72655 0.16278 0.0
C104 C 0.29919 0.779 0.15256 0.0
O105 O 0.06939 0.79142 0.13692 0.0
O106 O 0.02536 0.88079 0.12323 0.0
C107 C 0.11726 0.72372 0.17554 0.0
C108 C 0.02455 0.83301 0.13669 0.0
Zn109 Zn 0.56255 0.64218 0.33393 0.0
Zn110 Zn 0.63967 0.81471 0.39716 0.0
Zn111 Zn 0.59037 0.73051 0.36948 0.0
C112 C 0.53721 0.87053 0.37213 0.0
C113 C 0.73365 0.78629 0.37253 0.0
O114 O 0.58835 0.6383 0.38939 0.0
O115 O 0.58748 0.56837 0.35499 0.0
C116 C 0.45325 0.72088 0.33808 0.0
O117 O 0.52078 0.81123 0.37004 0.0
O118 O 0.5945 0.88533 0.37954 0.0
O119 O 0.731 0.81206 0.39535 0.0
O120 O 0.68404 0.75826 0.35913 0.0
O121 O 0.47105 0.66786 0.32847 0.0
O122 O 0.49316 0.75615 0.35406 0.0
O123 O 0.64566 0.73643 0.3361 0.0
O124 O 0.60956 0.66136 0.30515 0.0
C125 C 0.64391 0.70984 0.31241 0.0
O126 O 0.60906 0.69138 0.40872 0.0
O127 O 0.61087 0.78693 0.42952 0.0
C128 C 0.58999 0.57994 0.37969 0.0
C129 C 0.60864 0.72711 0.43019 0.0
Zn130 Zn 0.60619 0.33001 0.59169 0.0
Zn131 Zn 0.74508 0.1853 0.651 0.0
Zn132 Zn 0.67978 0.2567 0.61918 0.0
C133 C 0.82137 0.29001 0.64896 0.0
C134 C 0.72361 0.11215 0.60357 0.0
O135 O 0.59264 0.28207 0.63769 0.0
O136 O 0.54255 0.35638 0.61413 0.0
C137 C 0.72155 0.39098 0.59979 0.0
O138 O 0.77471 0.30327 0.63093 0.0
O139 O 0.81865 0.24214 0.66225 0.0
O140 O 0.75685 0.11252 0.62624 0.0
O141 O 0.68907 0.16101 0.59698 0.0
O142 O 0.66743 0.39433 0.58604 0.0
O143 O 0.73545 0.3439 0.61453 0.0
O144 O 0.65234 0.20342 0.58002 0.0
O145 O 0.5791 0.26857 0.56151 0.0
C146 C 0.60986 0.21728 0.56045 0.0
O147 O 0.63508 0.24788 0.65512 0.0
O148 O 0.68878 0.17306 0.6772 0.0
C149 C 0.54628 0.32182 0.63344 0.0
C150 C 0.64375 0.2124 0.67492 0.0
Zn151 Zn 0.03003 0.108 0.82315 0.0
Zn152 Zn 0.18256 0.33375 0.89744 0.0
Zn153 Zn 0.10799 0.25015 0.87684 0.0
C154 C 0.16875 0.2486 0.93674 0.0
C155 C 0.0685 0.39475 0.88169 0.0
O156 O 0.13205 0.21901 0.8353 0.0
O157 O 0.09871 0.13964 0.80392 0.0
C158 C 0.07034 0.12822 0.88343 0.0
O159 O 0.13477 0.21712 0.91713 0.0
O160 O 0.19327 0.30133 0.93347 0.0
O161 O 0.12643 0.40674 0.88942 0.0
O162 O 0.04901 0.33677 0.87726 0.0
O163 O 0.06035 0.14579 0.8601 0.0
O164 O 0.09766 0.16928 0.90093 0.0
O165 O 0.01037 0.2836 0.86591 0.0
O166 O 0.0107 0.19353 0.84305 0.0
C167 C 0.97889 0.24103 0.85024 0.0
O168 O 0.19029 0.24792 0.85545 0.0
O169 O 0.25301 0.32279 0.87752 0.0
C170 C 0.13343 0.18871 0.81219 0.0
C171 C 0.2429 0.27905 0.85919 0.0
C172 C 0.15478 0.48004 0.07098 0.0
C173 C 0.20928 0.44827 0.08314 0.0
C174 C 0.14654 0.5465 0.07555 0.0
C175 C 0.19217 0.58367 0.09268 0.0
H176 H 0.1172 0.4531 0.05841 0.0
H177 H 0.10296 0.56826 0.06662 0.0
S178 S 0.34695 0.52692 0.12645 0.0
N179 N 0.31275 0.46205 0.11057 0.0
N180 N 0.296 0.58533 0.11995 0.0
C181 C 0.24776 0.55322 0.10406 0.0
C182 C 0.2566 0.48609 0.09914 0.0
C183 C 0.87355 0.73596 0.33854 0.0
C184 C 0.91549 0.7874 0.34617 0.0
C185 C 0.81287 0.7371 0.3459 0.0
C186 C 0.79331 0.78922 0.36151 0.0
H187 H 0.88861 0.69368 0.32781 0.0
H188 H 0.78257 0.69564 0.34058 0.0
S189 S 0.88405 0.93831 0.38369 0.0
N190 N 0.9321 0.89362 0.36785 0.0
N191 N 0.81865 0.89591 0.38197 0.0
C192 C 0.83401 0.84218 0.36795 0.0
C193 C 0.89514 0.84118 0.36021 0.0
C194 C 0.78597 0.53781 0.57629 0.0
C195 C 0.80165 0.57572 0.60007 0.0
C196 C 0.76695 0.47425 0.57651 0.0
C197 C 0.76361 0.44649 0.60052 0.0
H198 H 0.78454 0.55834 0.55737 0.0
H199 H 0.75023 0.44805 0.55771 0.0
S200 S 0.80751 0.52432 0.66817 0.0
N201 N 0.81885 0.58019 0.64823 0.0
N202 N 0.78327 0.46028 0.64867 0.0
C203 C 0.7846 0.48243 0.62446 0.0
C204 C 0.80344 0.54744 0.62421 0.0
C205 C 0.80571 0.29173 0.8466 0.0
C206 C 0.77445 0.24978 0.82611 0.0
C207 C 0.87207 0.28986 0.85391 0.0
C208 C 0.90933 0.2454 0.84121 0.0
H209 H 0.77879 0.32664 0.85681 0.0
H210 H 0.89417 0.32289 0.86985 0.0
S211 S 0.84928 0.1242 0.78669 0.0
N212 N 0.78522 0.16203 0.79358 0.0
N213 N 0.90902 0.1583 0.8071 0.0
C214 C 0.87817 0.2031 0.82076 0.0
C215 C 0.81103 0.20531 0.81329 0.0
C216 C 0.02273 0.56299 0.87303 0.0
C217 C 0.98569 0.57494 0.89326 0.0
C218 C 0.0424 0.50116 0.86645 0.0
C219 C 0.02538 0.44934 0.87973 0.0
H220 H 0.04222 0.60208 0.86415 0.0
H221 H 0.07646 0.49478 0.85285 0.0
S222 S 0.91674 0.45311 0.92942 0.0
N223 N 0.92265 0.52842 0.92277 0.0
N224 N 0.961 0.4118 0.91056 0.0
C225 C 0.9818 0.45926 0.8974 0.0
C226 C 0.96172 0.5224 0.9042 0.0
C227 C 0.86703 0.86715 0.15863 0.0
C228 C 0.83946 0.80641 0.1562 0.0
C229 C 0.92995 0.87488 0.15493 0.0
C230 C 0.96717 0.82203 0.14858 0.0
H231 H 0.83875 0.90924 0.16185 0.0
H232 H 0.94824 0.92292 0.15532 0.0
S233 S 0.91794 0.65212 0.14349 0.0
N234 N 0.85463 0.69214 0.15001 0.0
N235 N 0.97307 0.70623 0.14269 0.0
C236 C 0.94136 0.76055 0.14832 0.0
C237 C 0.87714 0.75285 0.15211 0.0
C238 C 0.59475 0.40776 0.39488 0.0
C239 C 0.54404 0.40372 0.40905 0.0
C240 C 0.61509 0.46697 0.38825 0.0
C241 C 0.58547 0.52428 0.39558 0.0
H242 H 0.61555 0.36469 0.38702 0.0
H243 H 0.65074 0.46742 0.37536 0.0
S244 S 0.4565 0.53937 0.43631 0.0
N245 N 0.46923 0.46171 0.43287 0.0
N246 N 0.50784 0.57334 0.42061 0.0
C247 C 0.53897 0.52116 0.41208 0.0
C248 C 0.51788 0.46061 0.41866 0.0
C249 C 0.99187 0.31608 0.64526 0.0
C250 C 0.01451 0.34351 0.67096 0.0
C251 C 0.9267 0.30684 0.63647 0.0
C252 C 0.88208 0.32452 0.65309 0.0
H253 H 0.0247 0.2966 0.63268 0.0
H254 H 0.91172 0.27999 0.61766 0.0
S255 S 0.91513 0.40956 0.71974 0.0
N256 N 0.98572 0.39857 0.71087 0.0
N257 N 0.86375 0.37774 0.69481 0.0
C258 C 0.90345 0.3573 0.67767 0.0
C259 C 0.96956 0.36773 0.68649 0.0
C260 C 0.40467 0.38723 0.66179 0.0
C261 C 0.37241 0.33172 0.66562 0.0
C262 C 0.46429 0.38378 0.65367 0.0
C263 C 0.49375 0.32468 0.6492 0.0
H264 H 0.38179 0.43332 0.66322 0.0
H265 H 0.48569 0.42747 0.64922 0.0
S266 S 0.43096 0.16588 0.65929 0.0
N267 N 0.37566 0.21651 0.66671 0.0
N268 N 0.48806 0.2097 0.65137 0.0
C269 C 0.46402 0.26914 0.65505 0.0
C270 C 0.40299 0.27274 0.66322 0.0
C271 C 0.45998 0.80703 0.19339 0.0
C272 C 0.49472 0.83798 0.17677 0.0
C273 C 0.39554 0.79437 0.18614 0.0
C274 C 0.36222 0.80956 0.1614 0.0
H275 H 0.48296 0.78829 0.21161 0.0
H276 H 0.37252 0.7685 0.19959 0.0
S277 S 0.42692 0.89993 0.11199 0.0
N278 N 0.48765 0.89286 0.13595 0.0
N279 N 0.36682 0.86332 0.12127 0.0
C280 C 0.39452 0.84426 0.14515 0.0
C281 C 0.46062 0.85928 0.15299 0.0
C282 C 0.39796 0.29751 0.83517 0.0
C283 C 0.42169 0.23517 0.83552 0.0
C284 C 0.33601 0.3105 0.8397 0.0
C285 C 0.29587 0.26153 0.84473 0.0
H286 H 0.42879 0.33704 0.83328 0.0
H287 H 0.3211 0.35987 0.84138 0.0
S288 S 0.33338 0.08903 0.8437 0.0
N289 N 0.39897 0.12305 0.83808 0.0
N290 N 0.28202 0.14741 0.84655 0.0
C291 C 0.31716 0.19824 0.84247 0.0
C292 C 0.38055 0.18508 0.83801 0.0
C293 C 0.29497 0.80567 0.33932 0.0
C294 C 0.2557 0.77462 0.31755 0.0
C295 C 0.35931 0.78936 0.34559 0.0
C296 C 0.38635 0.74088 0.33046 0.0
H297 H 0.27573 0.84258 0.35166 0.0
H298 H 0.3875 0.81384 0.36273 0.0
S299 S 0.30301 0.64498 0.27143 0.0
N300 N 0.24812 0.69273 0.28111 0.0
N301 N 0.36844 0.66313 0.29228 0.0
C302 C 0.34742 0.71013 0.30844 0.0
C303 C 0.2823 0.72666 0.30214 0.0
C304 C 0.7809 0.95318 0.57874 0.0
C305 C 0.72437 0.91874 0.57033 0.0
C306 C 0.78008 0.01826 0.58677 0.0
C307 C 0.72278 0.0519 0.58665 0.0
H308 H 0.8262 0.92907 0.58011 0.0
H309 H 0.82472 0.04166 0.59472 0.0
S310 S 0.56172 0.98571 0.56424 0.0
N311 N 0.60932 0.92446 0.56049 0.0
N312 N 0.60822 0.04719 0.57565 0.0
C313 C 0.66606 0.01945 0.57648 0.0
C314 C 0.66676 0.95275 0.56833 0.0
C315 C 0.28188 0.06214 0.09356 0.0
C316 C 0.28584 0.10211 0.11694 0.0
C317 C 0.26894 0.99665 0.09361 0.0
C318 C 0.25933 0.96903 0.11701 0.0
H319 H 0.28418 0.08222 0.0748 0.0
H320 H 0.25948 0.96891 0.07471 0.0
S321 S 0.27477 0.05201 0.18406 0.0
N322 N 0.28755 0.10852 0.16463 0.0
N323 N 0.26256 0.9856 0.16459 0.0
C324 C 0.26984 1.00745 0.14089 0.0
C325 C 0.28289 0.07416 0.14086 0.0
C326 C 0.44736 0.99611 0.40295 0.0
C327 C 0.47004 0.04986 0.39225 0.0
C328 C 0.45814 0.93394 0.39256 0.0
C329 C 0.49201 0.92383 0.37124 0.0
H330 H 0.427 1.00185 0.42108 0.0
H331 H 0.44789 0.89416 0.40358 0.0
S332 S 0.54623 0.04736 0.3318 0.0
N333 N 0.51647 0.08814 0.35577 0.0
N334 N 0.53552 0.97144 0.33626 0.0
C335 C 0.50528 0.97682 0.35779 0.0
C336 C 0.49489 0.04002 0.36839 0.0
C337 C 0.97941 0.97307 0.8739 0.0
C338 C 0.01247 0.93601 0.89316 0.0
C339 C 0.99759 0.03593 0.87177 0.0
C340 C 0.04953 0.06423 0.88888 0.0
H341 H 0.94026 0.95273 0.85979 0.0
H342 H 0.97115 0.06224 0.85621 0.0
S343 S 0.14927 0.98772 0.94387 0.0
N344 N 0.09768 0.93177 0.93051 0.0
N345 N 0.13177 0.05109 0.92676 0.0
C346 C 0.08139 0.02846 0.90909 0.0
C347 C 0.06299 0.96382 0.91111 0.0
C348 C 0.13327 0.25827 0.00571 0.0
C349 C 0.19417 0.25263 0.02048 0.0
C350 C 0.12293 0.24688 0.97797 0.0
C351 C 0.17339 0.23057 0.9642 0.0
H352 H 0.09441 0.27587 0.01546 0.0
H353 H 0.07672 0.25742 0.9671 0.0
S354 S 0.33993 0.20283 0.99389 0.0
N355 N 0.30392 0.22289 0.01958 0.0
N356 N 0.2847 0.20351 0.96737 0.0
C357 C 0.23317 0.21968 0.97891 0.0
C358 C 0.24354 0.23024 0.00714 0.0
C359 C 0.08127 0.83013 0.23251 0.0
C360 C 0.06713 0.78509 0.24981 0.0
C361 C 0.08761 0.81144 0.20616 0.0
C362 C 0.08115 0.74699 0.19663 0.0
H363 H 0.09485 0.87824 0.24024 0.0
H364 H 0.10576 0.84595 0.19447 0.0
S365 S 0.02895 0.61441 0.23201 0.0
N366 N 0.03432 0.67648 0.25398 0.0
N367 N 0.04756 0.64113 0.20461 0.0
C368 C 0.05815 0.70374 0.21253 0.0
C369 C 0.05071 0.72294 0.23917 0.0
C370 C 0.60284 0.73784 0.50186 0.0
C371 C 0.66523 0.72021 0.5118 0.0
C372 C 0.57923 0.72918 0.47471 0.0
C373 C 0.61714 0.70247 0.45667 0.0
H374 H 0.57435 0.76405 0.51471 0.0
H375 H 0.53402 0.75047 0.46744 0.0
S376 S 0.77796 0.63549 0.47332 0.0
N377 N 0.76026 0.66473 0.5021 0.0
N378 N 0.71512 0.64808 0.45102 0.0
C379 C 0.67575 0.67624 0.4668 0.0
C380 C 0.70019 0.68543 0.49448 0.0
C381 C 0.60658 0.29855 0.73673 0.0
C382 C 0.59701 0.24736 0.75191 0.0
C383 C 0.61235 0.28787 0.70984 0.0
C384 C 0.61057 0.22552 0.69778 0.0
H385 H 0.61552 0.346 0.74629 0.0
H386 H 0.62572 0.32751 0.69944 0.0
S387 S 0.57441 0.0776 0.72766 0.0
N388 N 0.5754 0.13413 0.7519 0.0
N389 N 0.58851 0.1138 0.70155 0.0
C390 C 0.5938 0.17525 0.71191 0.0
C391 C 0.5865 0.18628 0.73904 0.0
C392 C 0.99532 0.76647 0.98835 0.0
C393 C 0.03117 0.72386 0.97445 0.0
C394 C 0.01178 0.78013 0.01563 0.0
C395 C 0.06518 0.75219 0.03027 0.0
H396 H 0.95433 0.7899 0.97798 0.0
H397 H 0.9828 0.81425 0.02522 0.0
S398 S 0.17332 0.63482 0.00321 0.0
N399 N 0.12109 0.65143 0.97719 0.0
N400 N 0.15249 0.67763 0.02882 0.0
C401 C 0.10031 0.70753 0.01679 0.0
C402 C 0.08324 0.69336 0.9888 0.0
C403 C 0.68903 0.73463 0.24598 0.0
C404 C 0.67829 0.80042 0.24413 0.0
C405 C 0.68531 0.70588 0.26954 0.0
C406 C 0.67162 0.74209 0.29214 0.0
H407 H 0.69377 0.70414 0.22839 0.0
H408 H 0.68768 0.65432 0.26936 0.0
S409 S 0.65435 0.91815 0.29903 0.0
N410 N 0.66391 0.90234 0.2678 0.0
N411 N 0.65847 0.84879 0.31248 0.0
C412 C 0.66919 0.80899 0.29151 0.0
C413 C 0.67189 0.83809 0.26733 0.0
C414 C 0.61806 0.18873 0.48887 0.0
C415 C 0.55764 0.16318 0.47917 0.0
C416 C 0.63981 0.19676 0.51626 0.0
C417 C 0.60131 0.18059 0.53469 0.0
H418 H 0.64711 0.20578 0.47527 0.0
H419 H 0.68417 0.22178 0.52303 0.0
S420 S 0.44201 0.10679 0.5193 0.0
N421 N 0.4624 0.11592 0.48995 0.0
N422 N 0.50232 0.13391 0.54144 0.0
C423 C 0.54291 0.15085 0.52518 0.0
C424 C 0.52124 0.14149 0.49736 0.0
C425 C 0.18701 0.21187 0.74659 0.0
C426 C 0.17794 0.27767 0.74445 0.0
C427 C 0.17939 0.18364 0.76998 0.0
C428 C 0.16254 0.22038 0.79197 0.0
H429 H 0.19459 0.18137 0.72937 0.0
H430 H 0.18183 0.13215 0.7701 0.0
S431 S 0.14163 0.39641 0.79696 0.0
N432 N 0.15826 0.37978 0.76677 0.0
N433 N 0.14357 0.32754 0.81067 0.0
C434 C 0.15941 0.28721 0.79076 0.0
C435 C 0.16699 0.31564 0.76694 0.0
loop_
_geom_bond_atom_site_label_1
_geom_bond_atom_site_label_2
_geom_bond_distance
_geom_bond_site_symmetry_2
_ccdc_geom_bond_type
H0 C3 0.929 . S
H1 C6 0.929 . S
H2 C8 0.930 . S
C3 H0 0.929 . S
C3 C4 1.398 . S
C3 C5 1.396 . S
C4 C3 1.398 . S
C4 C8 1.407 . S
C5 C3 1.396 . S
C5 C6 1.394 . S
C6 H1 0.929 . S
C6 C5 1.394 . S
C6 C7 1.382 . S
C7 C6 1.382 . S
C7 C8 1.392 . S
C7 N9 1.420 . S
C8 H2 0.930 . S
C8 C4 1.407 . S
C8 C7 1.392 . S
N9 C7 1.420 . S
N9 C10 1.244 . S
C10 N9 1.244 . S
H11 C14 0.929 . S
H12 C17 0.929 . S
H13 C19 0.930 . S
C14 H11 0.929 . S
C14 C15 1.398 . S
C14 C16 1.396 . S
C15 C14 1.398 . S
C15 C19 1.407 . S
C16 C14 1.396 . S
C16 C17 1.394 . S
C17 H12 0.929 . S
C17 C16 1.394 . S
C17 C18 1.382 . S
C18 C17 1.382 . S
C18 C19 1.392 . S
C18 N20 1.420 . S
C19 H13 0.930 . S
C19 C15 1.407 . S
C19 C18 1.392 . S
N20 C18 1.420 . S
N20 C21 1.244 1_455 S
C21 N20 1.244 1_655 S
H22 C25 0.929 . S
H23 C28 0.929 . S
H24 C30 0.930 . S
C25 H22 0.929 . S
C25 C26 1.398 . S
C25 C27 1.396 . S
C26 C25 1.398 . S
C26 C30 1.407 . S
C27 C25 1.396 . S
C27 C28 1.394 . S
C28 H23 0.929 . S
C28 C27 1.394 . S
C28 C29 1.382 . S
C29 C28 1.382 . S
C29 C30 1.392 . S
C29 N31 1.420 . S
C30 H24 0.930 . S
C30 C26 1.407 . S
C30 C29 1.392 . S
N31 C29 1.420 . S
N31 C32 1.244 . S
C32 N31 1.244 . S
H33 C36 0.929 . S
H34 C39 0.929 . S
H35 C41 0.930 . S
C36 H33 0.929 . S
C36 C37 1.398 . S
C36 C38 1.396 . S
C37 C36 1.398 . S
C37 C41 1.407 . S
C38 C36 1.396 . S
C38 C39 1.394 . S
C39 H34 0.929 . S
C39 C38 1.394 . S
C39 C40 1.382 . S
C40 C39 1.382 . S
C40 C41 1.392 . S
C40 N42 1.420 . S
C41 H35 0.930 . S
C41 C37 1.407 . S
C41 C40 1.392 . S
N42 C40 1.420 . S
N42 C43 1.244 . S
C43 N42 1.244 . S
H44 C47 0.929 . S
H45 C50 0.929 . S
H46 C52 0.930 . S
C47 H44 0.929 . S
C47 C48 1.398 . S
C47 C49 1.396 . S
C48 C47 1.398 . S
C48 C52 1.407 . S
C49 C47 1.396 . S
C49 C50 1.394 . S
C50 H45 0.929 . S
C50 C49 1.394 . S
C50 C51 1.382 . S
C51 C50 1.382 . S
C51 C52 1.392 . S
C51 N53 1.420 . S
C52 H46 0.930 . S
C52 C48 1.407 . S
C52 C51 1.392 . S
N53 C51 1.420 . S
N53 C54 1.244 . S
C54 N53 1.244 . S
H55 C58 0.929 . S
H56 C61 0.929 . S
H57 C63 0.930 . S
C58 H55 0.929 . S
C58 C59 1.398 . S
C58 C60 1.396 . S
C59 C58 1.398 . S
C59 C63 1.407 . S
C60 C58 1.396 . S
C60 C61 1.394 . S
C61 H56 0.929 . S
C61 C60 1.394 . S
C61 C62 1.382 . S
C62 C61 1.382 . S
C62 C63 1.392 . S
C62 N64 1.420 . S
C63 H57 0.930 . S
C63 C59 1.407 . S
C63 C62 1.392 . S
N64 C62 1.420 . S
N64 C65 1.244 . S
C65 N64 1.244 . S
H66 C69 0.929 . S
H67 C72 0.929 . S
H68 C74 0.930 . S
C69 H66 0.929 . S
C69 C70 1.398 . S
C69 C71 1.396 . S
C70 C69 1.398 . S
C70 C74 1.407 . S
C71 C69 1.396 . S
C71 C72 1.394 . S
C72 H67 0.929 . S
C72 C71 1.394 . S
C72 C73 1.382 . S
C73 C72 1.382 . S
C73 C74 1.392 . S
C73 N75 1.420 . S
C74 H68 0.930 . S
C74 C70 1.407 . S
C74 C73 1.392 . S
N75 C73 1.420 . S
N75 C76 1.244 . S
C76 N75 1.244 . S
H77 C80 0.929 . S
H78 C83 0.929 . S
H79 C85 0.930 . S
C80 H77 0.929 . S
C80 C81 1.398 . S
C80 C82 1.396 . S
C81 C80 1.398 . S
C81 C85 1.407 . S
C82 C80 1.396 . S
C82 C83 1.394 . S
C83 H78 0.929 . S
C83 C82 1.394 . S
C83 C84 1.382 . S
C84 C83 1.382 . S
C84 C85 1.392 . S
C84 N86 1.420 . S
C85 H79 0.930 . S
C85 C81 1.407 . S
C85 C84 1.392 . S
N86 C84 1.420 . S
N86 C87 1.244 . S
C87 N86 1.244 . S
Zn88 O94 1.920 . S
Zn88 O100 1.898 . S
Zn88 O103 1.905 . S
Zn89 O97 1.905 . S
Zn89 O98 1.898 . S
Zn89 O106 1.920 1_455 S
Zn90 O93 2.080 . S
Zn90 O96 2.114 . S
Zn90 O99 2.120 . S
Zn90 O101 2.120 . S
Zn90 O102 2.114 . S
Zn90 O105 2.080 . S
C91 O96 1.166 . S
C91 O97 1.182 . S
C92 O98 1.167 . S
C92 O99 1.299 . S
O93 Zn90 2.080 . S
O93 C107 1.305 . S
O94 Zn88 1.920 . S
O94 C107 1.234 . S
C95 O100 1.167 . S
C95 O101 1.299 . S
O96 Zn90 2.114 . S
O96 C91 1.166 . S
O97 Zn89 1.905 . S
O97 C91 1.182 . S
O98 Zn89 1.898 . S
O98 C92 1.167 . S
O99 Zn90 2.120 . S
O99 C92 1.299 . S
O100 Zn88 1.898 . S
O100 C95 1.167 . S
O101 Zn90 2.120 . S
O101 C95 1.299 . S
O102 Zn90 2.114 . S
O102 C104 1.166 . S
O103 Zn88 1.905 . S
O103 C104 1.182 . S
C104 O102 1.166 . S
C104 O103 1.182 . S
O105 Zn90 2.080 . S
O105 C108 1.305 . S
O106 Zn89 1.920 1_655 S
O106 C108 1.234 1_655 S
C107 O93 1.305 . S
C107 O94 1.234 . S
C108 O105 1.305 . S
C108 O106 1.234 1_455 S
Zn109 O115 1.920 . S
Zn109 O121 1.898 . S
Zn109 O124 1.905 . S
Zn110 O118 1.905 . S
Zn110 O119 1.898 . S
Zn110 O127 1.920 . S
Zn111 O114 2.080 . S
Zn111 O117 2.114 . S
Zn111 O120 2.120 . S
Zn111 O122 2.120 . S
Zn111 O123 2.114 . S
Zn111 O126 2.080 . S
C112 O117 1.166 . S
C112 O118 1.182 . S
C113 O119 1.167 . S
C113 O120 1.299 . S
O114 Zn111 2.080 . S
O114 C128 1.305 . S
O115 Zn109 1.920 . S
O115 C128 1.234 . S
C116 O121 1.167 . S
C116 O122 1.299 . S
O117 Zn111 2.114 . S
O117 C112 1.166 . S
O118 Zn110 1.905 . S
O118 C112 1.182 . S
O119 Zn110 1.898 . S
O119 C113 1.167 . S
O120 Zn111 2.120 . S
O120 C113 1.299 . S
O121 Zn109 1.898 . S
O121 C116 1.167 . S
O122 Zn111 2.120 . S
O122 C116 1.299 . S
O123 Zn111 2.114 . S
O123 C125 1.166 . S
O124 Zn109 1.905 . S
O124 C125 1.182 . S
C125 O123 1.166 . S
C125 O124 1.182 . S
O126 Zn111 2.080 . S
O126 C129 1.305 . S
O127 Zn110 1.920 . S
O127 C129 1.234 . S
C128 O114 1.305 . S
C128 O115 1.234 . S
C129 O126 1.305 . S
C129 O127 1.234 . S
Zn130 O136 1.920 . S
Zn130 O142 1.898 . S
Zn130 O145 1.905 . S
Zn131 O139 1.905 . S
Zn131 O140 1.898 . S
Zn131 O148 1.920 . S
Zn132 O135 2.080 . S
Zn132 O138 2.114 . S
Zn132 O141 2.120 . S
Zn132 O143 2.120 . S
Zn132 O144 2.114 . S
Zn132 O147 2.080 . S
C133 O138 1.166 . S
C133 O139 1.182 . S
C134 O140 1.167 . S
C134 O141 1.299 . S
O135 Zn132 2.080 . S
O135 C149 1.305 . S
O136 Zn130 1.920 . S
O136 C149 1.234 . S
C137 O142 1.167 . S
C137 O143 1.299 . S
O138 Zn132 2.114 . S
O138 C133 1.166 . S
O139 Zn131 1.905 . S
O139 C133 1.182 . S
O140 Zn131 1.898 . S
O140 C134 1.167 . S
O141 Zn132 2.120 . S
O141 C134 1.299 . S
O142 Zn130 1.898 . S
O142 C137 1.167 . S
O143 Zn132 2.120 . S
O143 C137 1.299 . S
O144 Zn132 2.114 . S
O144 C146 1.166 . S
O145 Zn130 1.905 . S
O145 C146 1.182 . S
C146 O144 1.166 . S
C146 O145 1.182 . S
O147 Zn132 2.080 . S
O147 C150 1.305 . S
O148 Zn131 1.920 . S
O148 C150 1.234 . S
C149 O135 1.305 . S
C149 O136 1.234 . S
C150 O147 1.305 . S
C150 O148 1.234 . S
Zn151 O157 1.920 1_655 S
Zn151 O163 1.898 1_655 S
Zn151 O166 1.905 . S
Zn152 O160 1.905 . S
Zn152 O161 1.898 . S
Zn152 O169 1.920 . S
Zn153 O156 2.080 . S
Zn153 O159 2.114 . S
Zn153 O162 2.120 . S
Zn153 O164 2.120 . S
Zn153 O165 2.114 . S
Zn153 O168 2.080 . S
C154 O159 1.166 . S
C154 O160 1.182 . S
C155 O161 1.167 . S
C155 O162 1.299 . S
O156 Zn153 2.080 . S
O156 C170 1.305 . S
O157 Zn151 1.920 1_455 S
O157 C170 1.234 . S
C158 O163 1.167 . S
C158 O164 1.299 . S
O159 Zn153 2.114 . S
O159 C154 1.166 . S
O160 Zn152 1.905 . S
O160 C154 1.182 . S
O161 Zn152 1.898 . S
O161 C155 1.167 . S
O162 Zn153 2.120 . S
O162 C155 1.299 . S
O163 Zn151 1.898 1_455 S
O163 C158 1.167 . S
O164 Zn153 2.120 . S
O164 C158 1.299 . S
O165 Zn153 2.114 . S
O165 C167 1.166 1_455 S
O166 Zn151 1.905 . S
O166 C167 1.182 . S
C167 O165 1.166 1_655 S
C167 O166 1.182 . S
O168 Zn153 2.080 . S
O168 C171 1.305 . S
O169 Zn152 1.920 . S
O169 C171 1.234 . S
C170 O156 1.305 . S
C170 O157 1.234 . S
C171 O168 1.305 . S
C171 O169 1.234 . S
C172 C173 1.369 . S
C172 C174 1.419 . S
C172 H176 0.930 . S
C173 C172 1.369 . S
C173 C182 1.429 . S
C174 C172 1.419 . S
C174 C175 1.363 . S
C174 H177 0.929 . S
C175 C174 1.363 . S
C175 C181 1.428 . S
H176 C172 0.930 . S
H177 C174 0.929 . S
S178 N179 1.613 . S
S178 N180 1.610 . S
N179 S178 1.613 . S
N179 C182 1.350 . S
N180 S178 1.610 . S
N180 C181 1.351 . S
C181 C175 1.428 . S
C181 N180 1.351 . S
C181 C182 1.434 . S
C182 C173 1.429 . S
C182 N179 1.350 . S
C182 C181 1.434 . S
C183 C184 1.369 . S
C183 C185 1.419 . S
C183 H187 0.930 . S
C184 C183 1.369 . S
C184 C193 1.429 . S
C185 C183 1.419 . S
C185 C186 1.363 . S
C185 H188 0.929 . S
C186 C185 1.363 . S
C186 C192 1.428 . S
H187 C183 0.930 . S
H188 C185 0.929 . S
S189 N190 1.613 . S
S189 N191 1.610 . S
N190 S189 1.613 . S
N190 C193 1.350 . S
N191 S189 1.610 . S
N191 C192 1.351 . S
C192 C186 1.428 . S
C192 N191 1.351 . S
C192 C193 1.434 . S
C193 C184 1.429 . S
C193 N190 1.350 . S
C193 C192 1.434 . S
C194 C195 1.369 . S
C194 C196 1.419 . S
C194 H198 0.930 . S
C195 C194 1.369 . S
C195 C204 1.429 . S
C196 C194 1.419 . S
C196 C197 1.363 . S
C196 H199 0.929 . S
C197 C196 1.363 . S
C197 C203 1.428 . S
H198 C194 0.930 . S
H199 C196 0.929 . S
S200 N201 1.613 . S
S200 N202 1.610 . S
N201 S200 1.613 . S
N201 C204 1.350 . S
N202 S200 1.610 . S
N202 C203 1.351 . S
C203 C197 1.428 . S
C203 N202 1.351 . S
C203 C204 1.434 . S
C204 C195 1.429 . S
C204 N201 1.350 . S
C204 C203 1.434 . S
C205 C206 1.369 . S
C205 C207 1.419 . S
C205 H209 0.930 . S
C206 C205 1.369 . S
C206 C215 1.429 . S
C207 C205 1.419 . S
C207 C208 1.363 . S
C207 H210 0.929 . S
C208 C207 1.363 . S
C208 C214 1.428 . S
H209 C205 0.930 . S
H210 C207 0.929 . S
S211 N212 1.613 . S
S211 N213 1.610 . S
N212 S211 1.613 . S
N212 C215 1.350 . S
N213 S211 1.610 . S
N213 C214 1.351 . S
C214 C208 1.428 . S
C214 N213 1.351 . S
C214 C215 1.434 . S
C215 C206 1.429 . S
C215 N212 1.350 . S
C215 C214 1.434 . S
C216 C217 1.369 . S
C216 C218 1.419 . S
C216 H220 0.930 . S
C217 C216 1.369 . S
C217 C226 1.429 1_455 S
C218 C216 1.419 . S
C218 C219 1.363 . S
C218 H221 0.929 . S
C219 C218 1.363 . S
C219 C225 1.428 . S
H220 C216 0.930 . S
H221 C218 0.929 . S
S222 N223 1.613 . S
S222 N224 1.610 . S
N223 S222 1.613 . S
N223 C226 1.350 . S
N224 S222 1.610 . S
N224 C225 1.351 1_655 S
C225 C219 1.428 . S
C225 N224 1.351 1_455 S
C225 C226 1.434 1_455 S
C226 C217 1.429 1_655 S
C226 N223 1.350 . S
C226 C225 1.434 1_655 S
C227 C228 1.369 . S
C227 C229 1.419 . S
C227 H231 0.930 . S
C228 C227 1.369 . S
C228 C237 1.429 . S
C229 C227 1.419 . S
C229 C230 1.363 . S
C229 H232 0.929 . S
C230 C229 1.363 . S
C230 C236 1.428 . S
H231 C227 0.930 . S
H232 C229 0.929 . S
S233 N234 1.613 . S
S233 N235 1.610 . S
N234 S233 1.613 . S
N234 C237 1.350 . S
N235 S233 1.610 . S
N235 C236 1.351 . S
C236 C230 1.428 . S
C236 N235 1.351 . S
C236 C237 1.434 . S
C237 C228 1.429 . S
C237 N234 1.350 . S
C237 C236 1.434 . S
C238 C239 1.369 . S
C238 C240 1.419 . S
C238 H242 0.930 . S
C239 C238 1.369 . S
C239 C248 1.429 . S
C240 C238 1.419 . S
C240 C241 1.363 . S
C240 H243 0.929 . S
C241 C240 1.363 . S
C241 C247 1.428 . S
H242 C238 0.930 . S
H243 C240 0.929 . S
S244 N245 1.613 . S
S244 N246 1.610 . S
N245 S244 1.613 . S
N245 C248 1.350 . S
N246 S244 1.610 . S
N246 C247 1.351 . S
C247 C241 1.428 . S
C247 N246 1.351 . S
C247 C248 1.434 . S
C248 C239 1.429 . S
C248 N245 1.350 . S
C248 C247 1.434 . S
C249 C250 1.369 . S
C249 C251 1.419 . S
C249 H253 0.930 . S
C250 C249 1.369 . S
C250 C259 1.429 . S
C251 C249 1.419 . S
C251 C252 1.363 . S
C251 H254 0.929 . S
C252 C251 1.363 . S
C252 C258 1.428 . S
H253 C249 0.930 . S
H254 C251 0.929 . S
S255 N256 1.613 . S
S255 N257 1.610 . S
N256 S255 1.613 . S
N256 C259 1.350 . S
N257 S255 1.610 . S
N257 C258 1.351 . S
C258 C252 1.428 . S
C258 N257 1.351 . S
C258 C259 1.434 . S
C259 C250 1.429 . S
C259 N256 1.350 . S
C259 C258 1.434 . S
C260 C261 1.369 . S
C260 C262 1.419 . S
C260 H264 0.930 . S
C261 C260 1.369 . S
C261 C270 1.429 . S
C262 C260 1.419 . S
C262 C263 1.363 . S
C262 H265 0.929 . S
C263 C262 1.363 . S
C263 C269 1.428 . S
H264 C260 0.930 . S
H265 C262 0.929 . S
S266 N267 1.613 . S
S266 N268 1.610 . S
N267 S266 1.613 . S
N267 C270 1.350 . S
N268 S266 1.610 . S
N268 C269 1.351 . S
C269 C263 1.428 . S
C269 N268 1.351 . S
C269 C270 1.434 . S
C270 C261 1.429 . S
C270 N267 1.350 . S
C270 C269 1.434 . S
C271 C272 1.369 . S
C271 C273 1.419 . S
C271 H275 0.930 . S
C272 C271 1.369 . S
C272 C281 1.429 . S
C273 C271 1.419 . S
C273 C274 1.363 . S
C273 H276 0.929 . S
C274 C273 1.363 . S
C274 C280 1.428 . S
H275 C271 0.930 . S
H276 C273 0.929 . S
S277 N278 1.613 . S
S277 N279 1.610 . S
N278 S277 1.613 . S
N278 C281 1.350 . S
N279 S277 1.610 . S
N279 C280 1.351 . S
C280 C274 1.428 . S
C280 N279 1.351 . S
C280 C281 1.434 . S
C281 C272 1.429 . S
C281 N278 1.350 . S
C281 C280 1.434 . S
C282 C283 1.369 . S
C282 C284 1.419 . S
C282 H286 0.930 . S
C283 C282 1.369 . S
C283 C292 1.429 . S
C284 C282 1.419 . S
C284 C285 1.363 . S
C284 H287 0.929 . S
C285 C284 1.363 . S
C285 C291 1.428 . S
H286 C282 0.930 . S
H287 C284 0.929 . S
S288 N289 1.613 . S
S288 N290 1.610 . S
N289 S288 1.613 . S
N289 C292 1.350 . S
N290 S288 1.610 . S
N290 C291 1.351 . S
C291 C285 1.428 . S
C291 N290 1.351 . S
C291 C292 1.434 . S
C292 C283 1.429 . S
C292 N289 1.350 . S
C292 C291 1.434 . S
C293 C294 1.369 . S
C293 C295 1.419 . S
C293 H297 0.930 . S
C294 C293 1.369 . S
C294 C303 1.429 . S
C295 C293 1.419 . S
C295 C296 1.363 . S
C295 H298 0.929 . S
C296 C295 1.363 . S
C296 C302 1.428 . S
H297 C293 0.930 . S
H298 C295 0.929 . S
S299 N300 1.613 . S
S299 N301 1.610 . S
N300 S299 1.613 . S
N300 C303 1.350 . S
N301 S299 1.610 . S
N301 C302 1.351 . S
C302 C296 1.428 . S
C302 N301 1.351 . S
C302 C303 1.434 . S
C303 C294 1.429 . S
C303 N300 1.350 . S
C303 C302 1.434 . S
C304 C305 1.369 . S
C304 C306 1.419 . S
C304 H308 0.930 . S
C305 C304 1.369 . S
C305 C314 1.429 . S
C306 C304 1.419 . S
C306 C307 1.363 1_565 S
C306 H309 0.929 1_565 S
C307 C306 1.363 1_545 S
C307 C313 1.428 1_545 S
H308 C304 0.930 . S
H309 C306 0.929 1_545 S
S310 N311 1.613 . S
S310 N312 1.610 . S
N311 S310 1.613 . S
N311 C314 1.350 . S
N312 S310 1.610 . S
N312 C313 1.351 . S
C313 C307 1.428 1_565 S
C313 N312 1.351 . S
C313 C314 1.434 . S
C314 C305 1.429 . S
C314 N311 1.350 . S
C314 C313 1.434 . S
C315 C316 1.369 . S
C315 C317 1.419 1_545 S
C315 H319 0.930 . S
C316 C315 1.369 . S
C316 C325 1.429 . S
C317 C315 1.419 1_565 S
C317 C318 1.363 . S
C317 H320 0.929 . S
C318 C317 1.363 . S
C318 C324 1.428 . S
H319 C315 0.930 . S
H320 C317 0.929 . S
S321 N322 1.613 1_565 S
S321 N323 1.610 . S
N322 S321 1.613 1_545 S
N322 C325 1.350 . S
N323 S321 1.610 . S
N323 C324 1.351 . S
C324 C318 1.428 . S
C324 N323 1.351 . S
C324 C325 1.434 1_565 S
C325 C316 1.429 . S
C325 N322 1.350 . S
C325 C324 1.434 1_545 S
C326 C327 1.369 . S
C326 C328 1.419 1_545 S
C326 H330 0.930 . S
C327 C326 1.369 . S
C327 C336 1.429 . S
C328 C326 1.419 1_565 S
C328 C329 1.363 . S
C328 H331 0.929 . S
C329 C328 1.363 . S
C329 C335 1.428 1_565 S
H330 C326 0.930 . S
H331 C328 0.929 . S
S332 N333 1.613 . S
S332 N334 1.610 1_545 S
N333 S332 1.613 . S
N333 C336 1.350 . S
N334 S332 1.610 1_565 S
N334 C335 1.351 1_565 S
C335 C329 1.428 1_545 S
C335 N334 1.351 1_545 S
C335 C336 1.434 . S
C336 C327 1.429 . S
C336 N333 1.350 . S
C336 C335 1.434 . S
C337 C338 1.369 . S
C337 C339 1.419 1_565 S
C337 H341 0.930 1_455 S
C338 C337 1.369 . S
C338 C347 1.429 . S
C339 C337 1.419 1_545 S
C339 C340 1.363 . S
C339 H342 0.929 . S
C340 C339 1.363 . S
C340 C346 1.428 . S
H341 C337 0.930 1_655 S
H342 C339 0.929 . S
S343 N344 1.613 1_545 S
S343 N345 1.610 . S
N344 S343 1.613 1_565 S
N344 C347 1.350 . S
N345 S343 1.610 . S
N345 C346 1.351 . S
C346 C340 1.428 . S
C346 N345 1.351 . S
C346 C347 1.434 1_545 S
C347 C338 1.429 . S
C347 N344 1.350 . S
C347 C346 1.434 1_565 S
C348 C349 1.370 1_556 S
C348 C350 1.416 . S
C348 H352 0.932 1_556 S
C349 C348 1.370 1_554 S
C349 C358 1.438 . S
C350 C348 1.416 . S
C350 C351 1.363 . S
C350 H353 0.929 . S
C351 C350 1.363 . S
C351 C357 1.428 . S
H352 C348 0.932 1_554 S
H353 C350 0.929 . S
S354 N355 1.613 1_556 S
S354 N356 1.610 . S
N355 S354 1.613 1_554 S
N355 C358 1.354 . S
N356 S354 1.610 . S
N356 C357 1.351 . S
C357 C351 1.428 . S
C357 N356 1.351 . S
C357 C358 1.420 1_556 S
C358 C349 1.438 . S
C358 N355 1.354 . S
C358 C357 1.420 1_554 S
C359 C360 1.369 . S
C359 C361 1.419 . S
C359 H363 0.930 . S
C360 C359 1.369 . S
C360 C369 1.429 . S
C361 C359 1.419 . S
C361 C362 1.363 . S
C361 H364 0.929 . S
C362 C361 1.363 . S
C362 C368 1.428 . S
H363 C359 0.930 . S
H364 C361 0.929 . S
S365 N366 1.613 . S
S365 N367 1.610 . S
N366 S365 1.613 . S
N366 C369 1.350 . S
N367 S365 1.610 . S
N367 C368 1.351 . S
C368 C362 1.428 . S
C368 N367 1.351 . S
C368 C369 1.434 . S
C369 C360 1.429 . S
C369 N366 1.350 . S
C369 C368 1.434 . S
C370 C371 1.369 . S
C370 C372 1.419 . S
C370 H374 0.930 . S
C371 C370 1.369 . S
C371 C380 1.429 . S
C372 C370 1.419 . S
C372 C373 1.363 . S
C372 H375 0.929 . S
C373 C372 1.363 . S
C373 C379 1.428 . S
H374 C370 0.930 . S
H375 C372 0.929 . S
S376 N377 1.613 . S
S376 N378 1.610 . S
N377 S376 1.613 . S
N377 C380 1.350 . S
N378 S376 1.610 . S
N378 C379 1.351 . S
C379 C373 1.428 . S
C379 N378 1.351 . S
C379 C380 1.434 . S
C380 C371 1.429 . S
C380 N377 1.350 . S
C380 C379 1.434 . S
C381 C382 1.369 . S
C381 C383 1.419 . S
C381 H385 0.930 . S
C382 C381 1.369 . S
C382 C391 1.429 . S
C383 C381 1.419 . S
C383 C384 1.363 . S
C383 H386 0.929 . S
C384 C383 1.363 . S
C384 C390 1.428 . S
H385 C381 0.930 . S
H386 C383 0.929 . S
S387 N388 1.613 . S
S387 N389 1.610 . S
N388 S387 1.613 . S
N388 C391 1.350 . S
N389 S387 1.610 . S
N389 C390 1.351 . S
C390 C384 1.428 . S
C390 N389 1.351 . S
C390 C391 1.434 . S
C391 C382 1.429 . S
C391 N388 1.350 . S
C391 C390 1.434 . S
C392 C393 1.369 1_554 S
C392 C394 1.419 . S
C392 H396 0.930 . S
C393 C392 1.369 1_556 S
C393 C402 1.429 . S
C394 C392 1.419 . S
C394 C395 1.363 . S
C394 H397 0.929 . S
C395 C394 1.363 . S
C395 C401 1.428 . S
H396 C392 0.930 . S
H397 C394 0.929 . S
S398 N399 1.613 . S
S398 N400 1.610 1_556 S
N399 S398 1.613 . S
N399 C402 1.350 . S
N400 S398 1.610 1_554 S
N400 C401 1.351 . S
C401 C395 1.428 . S
C401 N400 1.351 . S
C401 C402 1.434 1_554 S
C402 C393 1.429 . S
C402 N399 1.350 . S
C402 C401 1.434 1_556 S
C403 C404 1.369 . S
C403 C405 1.419 . S
C403 H407 0.930 . S
C404 C403 1.369 . S
C404 C413 1.429 . S
C405 C403 1.419 . S
C405 C406 1.363 . S
C405 H408 0.929 . S
C406 C405 1.363 . S
C406 C412 1.428 . S
H407 C403 0.930 . S
H408 C405 0.929 . S
S409 N410 1.613 . S
S409 N411 1.610 . S
N410 S409 1.613 . S
N410 C413 1.350 . S
N411 S409 1.610 . S
N411 C412 1.351 . S
C412 C406 1.428 . S
C412 N411 1.351 . S
C412 C413 1.434 . S
C413 C404 1.429 . S
C413 N410 1.350 . S
C413 C412 1.434 . S
C414 C415 1.369 . S
C414 C416 1.419 . S
C414 H418 0.930 . S
C415 C414 1.369 . S
C415 C424 1.429 . S
C416 C414 1.419 . S
C416 C417 1.363 . S
C416 H419 0.929 . S
C417 C416 1.363 . S
C417 C423 1.428 . S
H418 C414 0.930 . S
H419 C416 0.929 . S
S420 N421 1.613 . S
S420 N422 1.610 . S
N421 S420 1.613 . S
N421 C424 1.350 . S
N422 S420 1.610 . S
N422 C423 1.351 . S
C423 C417 1.428 . S
C423 N422 1.351 . S
C423 C424 1.434 . S
C424 C415 1.429 . S
C424 N421 1.350 . S
C424 C423 1.434 . S
C425 C426 1.369 . S
C425 C427 1.419 . S
C425 H429 0.930 . S
C426 C425 1.369 . S
C426 C435 1.429 . S
C427 C425 1.419 . S
C427 C428 1.363 . S
C427 H430 0.929 . S
C428 C427 1.363 . S
C428 C434 1.428 . S
H429 C425 0.930 . S
H430 C427 0.929 . S
S431 N432 1.613 . S
S431 N433 1.610 . S
N432 S431 1.613 . S
N432 C435 1.350 . S
N433 S431 1.610 . S
N433 C434 1.351 . S
C434 C428 1.428 . S
C434 N433 1.351 . S
C434 C435 1.434 . S
C435 C426 1.429 . S
C435 N432 1.350 . S
C435 C434 1.434 . S
C175 C95 1.399 . S
C173 C4 1.546 . S
C186 C113 1.379 . S
C184 C21 1.465 . S
C195 C32 1.431 . S
C197 C137 1.334 . S
C208 C167 1.281 . S
C206 C37 1.437 . S
C219 C155 1.295 . S
C217 C48 1.382 . S
C228 C65 1.480 . S
C230 C108 1.404 1_655 S
C239 C76 1.586 . S
C241 C128 1.471 . S
C250 C81 1.436 1_655 S
C252 C133 1.311 . S
C261 C87 1.469 . S
C263 C149 1.402 . S
C272 C59 1.445 . S
C274 C104 1.313 . S
C285 C171 1.400 . S
C283 C43 1.476 . S
C296 C116 1.270 . S
C294 C15 1.430 . S
C305 C26 1.535 . S
C307 C134 1.406 . S
C316 C10 1.440 . S
C318 C92 1.346 . S
C329 C112 1.299 . S
C327 C70 1.384 . S
C340 C158 1.470 . S
C338 C54 1.577 . S
C351 C154 1.364 . S
C349 C5 1.525 . S
C362 C107 1.496 . S
C360 C16 1.532 . S
C371 C27 1.509 . S
C373 C129 1.342 . S
C382 C38 1.548 . S
C384 C150 1.507 . S
C395 C91 1.336 . S
C393 C49 1.573 . S
C404 C60 1.522 . S
C406 C125 1.469 . S
C417 C146 1.341 . S
C415 C71 1.592 . S
C428 C170 1.445 . S
C426 C82 1.501 . S
