# Generated by pormake.
# Topology zzz, (3,6)-cn, num edge types: 1
# Building blocks:
#     Node 0, Type 0, BuildingBlock: INOVEN_clean_linker_0, # of connection points: 3
#     Node 1, Type 0, BuildingBlock: INOVEN_clean_linker_0, # of connection points: 3
#     Node 2, Type 0, BuildingBlock: INOVEN_clean_linker_0, # of connection points: 3
#     Node 3, Type 0, BuildingBlock: INOVEN_clean_linker_0, # of connection points: 3
#     Node 4, Type 0, BuildingBlock: INOVEN_clean_linker_0, # of connection points: 3
#     Node 5, Type 0, BuildingBlock: INOVEN_clean_linker_0, # of connection points: 3
#     Node 6, Type 0, BuildingBlock: INOVEN_clean_linker_0, # of connection points: 3
#     Node 7, Type 0, BuildingBlock: INOVEN_clean_linker_0, # of connection points: 3
#     Node 8, Type 1, BuildingBlock: LEVNOQ01_clean_sbu_1, # of connection points: 6
#     Node 9, Type 1, BuildingBlock: LEVNOQ01_clean_sbu_1, # of connection points: 6
#     Node 10, Type 1, BuildingBlock: LEVNOQ01_clean_sbu_1, # of connection points: 6
#     Node 11, Type 1, BuildingBlock: LEVNOQ01_clean_sbu_1, # of connection points: 6
#     Edge 12, Type (0, 1), BuildingBlock: OJICUG_clean_linker_0, # of connection points: 2
#     Edge 13, Type (0, 1), BuildingBlock: OJICUG_clean_linker_0, # of connection points: 2
#     Edge 14, Type (0, 1), BuildingBlock: OJICUG_clean_linker_0, # of connection points: 2
#     Edge 15, Type (0, 1), BuildingBlock: OJICUG_clean_linker_0, # of connection points: 2
#     Edge 16, Type (0, 1), BuildingBlock: OJICUG_clean_linker_0, # of connection points: 2
#     Edge 17, Type (0, 1), BuildingBlock: OJICUG_clean_linker_0, # of connection points: 2
#     Edge 18, Type (0, 1), BuildingBlock: OJICUG_clean_linker_0, # of connection points: 2
#     Edge 19, Type (0, 1), BuildingBlock: OJICUG_clean_linker_0, # of connection points: 2
#     Edge 20, Type (0, 1), BuildingBlock: OJICUG_clean_linker_0, # of connection points: 2
#     Edge 21, Type (0, 1), BuildingBlock: OJICUG_clean_linker_0, # of connection points: 2
#     Edge 22, Type (0, 1), BuildingBlock: OJICUG_clean_linker_0, # of connection points: 2
#     Edge 23, Type (0, 1), BuildingBlock: OJICUG_clean_linker_0, # of connection points: 2
#     Edge 24, Type (0, 1), BuildingBlock: OJICUG_clean_linker_0, # of connection points: 2
#     Edge 25, Type (0, 1), BuildingBlock: OJICUG_clean_linker_0, # of connection points: 2
#     Edge 26, Type (0, 1), BuildingBlock: OJICUG_clean_linker_0, # of connection points: 2
#     Edge 27, Type (0, 1), BuildingBlock: OJICUG_clean_linker_0, # of connection points: 2
#     Edge 28, Type (0, 1), BuildingBlock: OJICUG_clean_linker_0, # of connection points: 2
#     Edge 29, Type (0, 1), BuildingBlock: OJICUG_clean_linker_0, # of connection points: 2
#     Edge 30, Type (0, 1), BuildingBlock: OJICUG_clean_linker_0, # of connection points: 2
#     Edge 31, Type (0, 1), BuildingBlock: OJICUG_clean_linker_0, # of connection points: 2
#     Edge 32, Type (0, 1), BuildingBlock: OJICUG_clean_linker_0, # of connection points: 2
#     Edge 33, Type (0, 1), BuildingBlock: OJICUG_clean_linker_0, # of connection points: 2
#     Edge 34, Type (0, 1), BuildingBlock: OJICUG_clean_linker_0, # of connection points: 2
#     Edge 35, Type (0, 1), BuildingBlock: OJICUG_clean_linker_0, # of connection points: 2
# Relax obj value: 0.131
# Max RMSD: 0.178
# Mean RMSD: 0.108
data_MOF--net-zzz--node1-LEVNOQ01_clean_sbu_1--node2-INOVEN_clean_linker_0--edge1-OJICUG_clean_linker_0
_symmetry_space_group_name_H-M    P1
_symmetry_Int_Tables_number       1
_symmetry_cell_setting            triclinic
loop_
_symmetry_equiv_pos_as_xyz
'x, y, z'
_cell_length_a     36.695157
_cell_length_b     36.534518
_cell_length_c     11.656175
_cell_angle_alpha  89.578711
_cell_angle_beta   90.042809
_cell_angle_gamma 89.945329
loop_
_atom_site_label
_atom_site_type_symbol
_atom_site_fract_x
_atom_site_fract_y
_atom_site_fract_z
_atom_type_partial_charge
H0 H 0.75628 0.5597 0.30539 0.0
H1 H 0.86299 0.57461 0.15903 0.0
H2 H 0.77213 0.55669 0.94052 0.0
N3 N 0.72011 0.56202 0.09825 0.0
N4 N 0.70834 0.57001 0.0003 0.0
C5 C 0.77359 0.5645 0.23167 0.0
C6 C 0.81196 0.56839 0.24598 0.0
C7 C 0.75836 0.56524 0.11934 0.0
C8 C 0.78226 0.56331 0.02529 0.0
C9 C 0.8196 0.56515 0.04195 0.0
C10 C 0.83352 0.5737 0.14907 0.0
H11 H 0.95264 0.76379 0.29849 0.0
H12 H 0.94885 0.87212 0.15718 0.0
H13 H 0.94178 0.78075 0.93283 0.0
N14 N 0.95081 0.72958 0.09136 0.0
N15 N 0.93979 0.71581 -0.00049 0.0
C16 C 0.94821 0.78197 0.226 0.0
C17 C 0.94706 0.82042 0.24241 0.0
C18 C 0.94465 0.76735 0.11376 0.0
C19 C 0.94171 0.79136 0.01943 0.0
C20 C 0.94395 0.82897 0.03434 0.0
C21 C 0.94498 0.84298 0.1456 0.0
H22 H 0.73924 0.96056 0.30037 0.0
H23 H 0.63616 0.92517 0.16675 0.0
H24 H 0.72605 0.93942 0.94178 0.0
N25 N 0.77494 0.9559 0.09712 0.0
N26 N 0.79025 0.94408 0.00928 0.0
C27 C 0.72328 0.94887 0.23161 0.0
C28 C 0.68594 0.9406 0.24873 0.0
C29 C 0.73897 0.94416 0.12192 0.0
C30 C 0.71613 0.93605 0.02888 0.0
C31 C 0.6789 0.93284 0.04539 0.0
C32 C 0.66545 0.92807 0.15607 0.0
H33 H 0.56052 0.74786 0.31445 0.0
H34 H 0.57765 0.64282 0.15637 0.0
H35 H 0.5557 0.73606 0.94914 0.0
N36 N 0.55978 0.78627 0.10995 0.0
N37 N 0.57001 0.79997 0.01649 0.0
C38 C 0.5654 0.73136 0.23922 0.0
C39 C 0.5703 0.69272 0.25028 0.0
C40 C 0.56512 0.74793 0.12829 0.0
C41 C 0.56346 0.725 0.03226 0.0
C42 C 0.5659 0.68736 0.04549 0.0
C43 C 0.57593 0.67247 0.15063 0.0
H44 H 0.24564 0.44394 0.08091 0.0
H45 H 0.13983 0.42964 0.23433 0.0
H46 H 0.23232 0.4483 0.44586 0.0
N47 N 0.2826 0.44656 0.28448 0.0
N48 N 0.29747 0.43552 0.37517 0.0
C49 C 0.22881 0.4391 0.15575 0.0
C50 C 0.1905 0.43423 0.14322 0.0
C51 C 0.24468 0.43979 0.26692 0.0
C52 C 0.22144 0.441 0.36258 0.0
C53 C 0.18384 0.43962 0.3482 0.0
C54 C 0.16934 0.43023 0.24217 0.0
H55 H 0.06114 0.25493 0.07723 0.0
H56 H 0.0606 0.14269 0.18613 0.0
H57 H 0.07227 0.22586 0.43673 0.0
N58 N 0.06279 0.28302 0.29439 0.0
N59 N 0.06244 0.29002 0.39927 0.0
C60 C 0.06481 0.23469 0.14459 0.0
C61 C 0.06486 0.19688 0.11806 0.0
C62 C 0.06798 0.24572 0.26077 0.0
C63 C 0.07068 0.21842 0.3471 0.0
C64 C 0.06649 0.18151 0.32114 0.0
C65 C 0.06534 0.17119 0.20702 0.0
H66 H 0.2594 0.05477 0.08096 0.0
H67 H 0.36071 0.09025 0.2277 0.0
H68 H 0.26807 0.07378 0.44126 0.0
N69 N 0.22022 0.06143 0.27804 0.0
N70 N 0.20295 0.07657 0.35713 0.0
C71 C 0.2745 0.06624 0.15197 0.0
C72 C 0.31215 0.07426 0.13994 0.0
C73 C 0.25734 0.071 0.25955 0.0
C74 C 0.27927 0.0777 0.35597 0.0
C75 C 0.31686 0.08114 0.34383 0.0
C76 C 0.33135 0.08703 0.23501 0.0
H77 H 0.43032 0.26319 0.08442 0.0
H78 H 0.42976 0.36765 0.2563 0.0
H79 H 0.45243 0.27114 0.44556 0.0
N80 N 0.43901 0.2229 0.2855 0.0
N81 N 0.43123 0.20986 0.38215 0.0
C82 C 0.43062 0.27928 0.16203 0.0
C83 C 0.42796 0.31836 0.15576 0.0
C84 C 0.43527 0.26162 0.27059 0.0
C85 C 0.44237 0.28341 0.3666 0.0
C86 C 0.44159 0.32105 0.35789 0.0
C87 C 0.42936 0.33794 0.25827 0.0
O88 O 0.06458 0.92492 0.82495 0.0
Mg89 Mg 0.07647 0.94935 0.6681 0.0
O90 O 0.02585 0.96851 0.86226 0.0
Mg91 Mg 0.00701 0.00371 0.71156 0.0
O92 O 0.06344 0.00315 0.62187 0.0
O93 O 0.11798 0.98711 0.68181 0.0
O94 O 0.99169 0.04168 0.56273 0.0
O95 O 0.02945 0.0576 0.80997 0.0
Mg96 Mg 0.96343 0.05102 0.80768 0.0
O97 O 0.94477 -0.00032 0.79139 0.0
O98 O 0.97481 0.08671 0.67418 0.0
O99 O 0.99216 0.06438 0.95468 0.0
O100 O 0.91038 0.05005 0.82998 0.0
C101 C 0.00719 0.92407 0.55179 0.0
C102 C 0.03447 0.93482 0.86558 0.0
C103 C 0.0974 0.01147 0.63539 0.0
C104 C 0.98728 0.0758 0.57994 0.0
C105 C 0.0206 0.07432 0.90208 0.0
C106 C 0.91362 0.01504 0.82021 0.0
O107 O 0.04192 0.92202 0.5504 0.0
O108 O 0.99049 0.94994 0.60533 0.0
O109 O 0.42192 0.96956 0.87517 0.0
Mg110 Mg 0.4419 0.94106 0.73503 0.0
O111 O 0.45099 0.02089 0.82814 0.0
Mg112 Mg 0.49909 0.00471 0.69693 0.0
O113 O 0.49663 0.9429 0.74951 0.0
O114 O 0.46445 0.89106 0.76622 0.0
O115 O 0.54769 0.98955 0.56824 0.0
O116 O 0.54159 0.00618 0.82884 0.0
Mg117 Mg 0.55714 0.06933 0.69827 0.0
O118 O 0.50399 0.06589 0.64505 0.0
O119 O 0.58676 0.03611 0.58482 0.0
O120 O 0.56939 0.05702 0.87202 0.0
O121 O 0.53596 0.11784 0.63825 0.0
C122 C 0.426 0.98899 0.53563 0.0
C123 C 0.42615 0.0038 0.88534 0.0
C124 C 0.49487 0.90838 0.77834 0.0
C125 C 0.57828 0.00514 0.54378 0.0
C126 C 0.56475 0.02304 0.88822 0.0
C127 C 0.50642 0.10018 0.61548 0.0
O128 O 0.41642 0.95926 0.58325 0.0
O129 O 0.45582 0.00446 0.56098 0.0
O130 O 0.52481 0.41642 0.8323 0.0
Mg131 Mg 0.56295 0.44559 0.73237 0.0
O132 O 0.47874 0.45606 0.82281 0.0
Mg133 Mg 0.50015 0.50439 0.69643 0.0
O134 O 0.55931 0.50026 0.76659 0.0
O135 O 0.60915 0.46693 0.80323 0.0
O136 O 0.51852 0.55357 0.57126 0.0
O137 O 0.49656 0.54821 0.82413 0.0
Mg138 Mg 0.43472 0.56188 0.68398 0.0
O139 O 0.44181 0.50953 0.62116 0.0
O140 O 0.47004 0.59096 0.57041 0.0
O141 O 0.44546 0.57658 0.85608 0.0
O142 O 0.3875 0.53205 0.65945 0.0
C143 C 0.52659 0.43608 0.52416 0.0
C144 C 0.49211 0.42501 0.85553 0.0
C145 C 0.59242 0.49799 0.8059 0.0
C146 C 0.50274 0.58378 0.54063 0.0
C147 C 0.47885 0.57214 0.87762 0.0
C148 C 0.40682 0.50496 0.62432 0.0
O149 O 0.55919 0.43256 0.55775 0.0
O150 O 0.50618 0.4604 0.56677 0.0
O151 O 0.93807 0.4513 0.86091 0.0
Mg152 Mg 0.95347 0.44901 0.68733 0.0
O153 O 0.9618 0.5041 0.81822 0.0
Mg154 Mg 0.00465 0.50907 0.68263 0.0
O155 O 0.00648 0.44609 0.6288 0.0
O156 O 0.96639 0.39913 0.63416 0.0
O157 O 0.04679 0.51724 0.54773 0.0
O158 O 0.05514 0.49131 0.81244 0.0
Mg159 Mg 0.05506 0.57352 0.79305 0.0
O160 O 0.00231 0.57203 0.72799 0.0
O161 O 0.08562 0.54641 0.66065 0.0
O162 O 0.08004 0.5379 0.90493 0.0
O163 O 0.01138 0.56362 0.90909 0.0
C164 C 0.92443 0.50816 0.53388 0.0
C165 C 0.93983 0.4853 0.87757 0.0
C166 C -0.00176 0.41184 0.6091 0.0
C167 C 0.0788 0.52759 0.57233 0.0
C168 C 0.07881 0.50403 0.88395 0.0
C169 C 0.99265 0.57926 0.83121 0.0
O170 O 0.91787 0.47704 0.5774 0.0
O171 O 0.95493 0.52432 0.55418 0.0
C172 C 0.15871 0.02694 0.38471 0.0
C173 C 0.16916 0.06349 0.40025 0.0
H174 H 0.1266 0.98236 0.44783 0.0
C175 C 0.15043 0.08485 0.48104 0.0
H176 H 0.17321 0.00953 0.32538 0.0
C177 C 0.12396 0.06913 0.55285 0.0
C178 C 0.11582 0.03188 0.54318 0.0
H179 H 0.15841 0.11302 0.49459 0.0
H180 H 0.11185 0.08531 0.62041 0.0
C181 C 0.13215 0.0114 0.45528 0.0
C182 C 0.46502 0.15119 0.36686 0.0
C183 C 0.44132 0.17481 0.42537 0.0
H184 H 0.50372 0.10717 0.3834 0.0
C185 C 0.434 0.16804 0.54182 0.0
H186 H 0.47154 0.15604 0.27747 0.0
C187 C 0.45261 0.1407 0.60245 0.0
C188 C 0.47837 0.11899 0.54673 0.0
H189 H 0.41651 0.18654 0.58882 0.0
H190 H 0.44915 0.13865 0.69461 0.0
C191 C 0.48336 0.1233 0.42752 0.0
C192 C 0.34827 0.4797 0.37432 0.0
C193 C 0.33246 0.44697 0.41384 0.0
H194 H 0.38555 0.52324 0.41108 0.0
C195 C 0.34736 0.4297 0.51146 0.0
H196 H 0.33702 0.49406 0.30083 0.0
C197 C 0.37513 0.44649 0.57516 0.0
C198 C 0.38851 0.4808 0.54129 0.0
H199 H 0.33529 0.40465 0.54389 0.0
H200 H 0.38386 0.43418 0.65546 0.0
C201 C 0.37607 0.49639 0.43761 0.0
C202 C 0.04515 0.32285 0.56733 0.0
C203 C 0.05348 0.32396 0.4503 0.0
H204 H 0.02129 0.35038 0.70977 0.0
C205 C 0.04955 0.35707 0.38914 0.0
H206 H 0.04774 0.29741 0.61506 0.0
C207 C 0.03529 0.38808 0.4448 0.0
C208 C 0.0244 0.38574 0.56048 0.0
H209 H 0.05601 0.35853 0.29864 0.0
H210 H 0.03016 0.41281 0.39556 0.0
C211 C 0.03036 0.35316 0.62162 0.0
C212 C 0.85618 0.94791 0.98704 0.0
C213 C 0.82132 0.96102 0.96281 0.0
H214 H 0.91273 0.95825 0.96805 0.0
C215 C 0.81657 0.98964 0.88374 0.0
H216 H 0.86009 0.92578 0.04814 0.0
C217 C 0.84667 0.00564 0.83047 0.0
C218 C 0.88197 0.99324 0.85645 0.0
H219 H 0.78946 -0.0004 0.86389 0.0
H220 H 0.84247 0.02847 0.77206 0.0
C221 C 0.88628 0.96489 0.9366 0.0
C222 C 0.53317 0.85651 0.02814 0.0
C223 C 0.55969 0.83506 0.97382 0.0
H224 H 0.49247 0.89817 0.00651 0.0
C225 C 0.57029 0.84423 0.8613 0.0
H226 H 0.52429 0.85001 0.11446 0.0
C227 C 0.55181 0.87144 0.79884 0.0
C228 C 0.52291 0.89036 0.84948 0.0
H229 H 0.59049 0.82774 0.81784 0.0
H230 H 0.55799 0.8754 0.70872 0.0
C231 C 0.51502 0.88404 0.9662 0.0
C232 C 0.64536 0.54706 0.02852 0.0
C233 C 0.67267 0.56253 0.95925 0.0
H234 H 0.59593 0.51559 0.03117 0.0
C235 C 0.66711 0.56484 0.84029 0.0
H236 H 0.64886 0.54519 0.12059 0.0
C237 C 0.63714 0.54787 0.78931 0.0
C238 C 0.61183 0.52898 0.85718 0.0
H239 H 0.68807 0.57645 0.78568 0.0
H240 H 0.63592 0.5462 0.69657 0.0
C241 C 0.61495 0.53051 0.97738 0.0
C242 C 0.93158 0.66226 0.87713 0.0
C243 C 0.95202 0.68131 0.95957 0.0
H244 H 0.92861 0.61529 0.76677 0.0
C245 C 0.98697 0.66879 0.98762 0.0
H246 H 0.90511 0.67247 0.85094 0.0
C247 C 0.00047 0.63687 0.93913 0.0
C248 C 0.97929 0.6162 0.86234 0.0
H249 H 0.00421 0.68411 0.04543 0.0
H250 H 0.02758 0.62794 0.96352 0.0
C251 C 0.94511 0.62985 0.82839 0.0
C252 C 0.02604 0.16607 0.48491 0.0
C253 C 0.05312 0.15497 0.40757 0.0
H254 H 0.98284 0.14973 0.59561 0.0
C255 C 0.05977 0.11734 0.39323 0.0
H256 H 0.02011 0.19473 0.49897 0.0
C257 C 0.03689 0.0915 0.44355 0.0
C258 C 0.00797 0.10279 0.51324 0.0
H259 H 0.08126 0.10791 0.33701 0.0
H260 H 0.04217 0.06274 0.42881 0.0
C261 C 0.00375 0.14024 0.53728 0.0
C262 C 0.3362 0.02071 0.41484 0.0
C263 C 0.34035 0.05903 0.41879 0.0
H264 H 0.36088 0.96828 0.44335 0.0
C265 C 0.37252 0.07396 0.46184 0.0
H266 H 0.31197 0.00859 0.37792 0.0
C267 C 0.40079 0.05091 0.49576 0.0
C268 C 0.39749 0.01255 0.48628 0.0
H269 H 0.37648 0.10334 0.46324 0.0
H270 H 0.4252 0.06327 0.53005 0.0
C271 C 0.36454 -0.00235 0.44846 0.0
C272 C 0.4534 0.3648 0.51174 0.0
C273 C 0.46682 0.34233 0.42596 0.0
H274 H 0.46232 0.41246 0.61011 0.0
C275 C 0.50194 0.34797 0.38057 0.0
H276 H 0.42634 0.36068 0.54676 0.0
C277 C 0.52217 0.37837 0.41283 0.0
C278 C 0.5072 0.40304 0.49046 0.0
H279 H 0.51217 0.33071 0.3125 0.0
H280 H 0.54839 0.38355 0.37328 0.0
C281 C 0.47365 0.39488 0.54467 0.0
C282 C 0.15175 0.49814 0.37055 0.0
C283 C 0.16116 0.46379 0.41771 0.0
H284 H 0.11737 0.54543 0.38281 0.0
C285 C 0.14589 0.45222 0.52141 0.0
H286 H 0.16363 0.5074 0.29029 0.0
C287 C 0.11977 0.47417 0.5742 0.0
C288 C 0.10884 0.5074 0.52264 0.0
H289 H 0.15297 0.42589 0.55851 0.0
H290 H 0.1071 0.46463 0.65284 0.0
C291 C 0.12546 0.51976 0.42244 0.0
C292 C 0.94632 0.89041 0.94728 0.0
C293 C 0.95568 0.85337 0.93982 0.0
H294 H 0.96793 0.94491 0.94795 0.0
C295 C 0.98666 0.84357 0.87607 0.0
H296 H 0.92203 0.8981 -0.0064 0.0
C297 C 0.01168 0.87049 0.84403 0.0
C298 C 0.00584 0.90704 0.87675 0.0
H299 H 0.99418 0.81515 0.86491 0.0
H300 H 0.03675 0.86223 0.80255 0.0
C301 C 0.97229 0.91696 0.92242 0.0
C302 C 0.62236 0.93926 0.93536 0.0
C303 C 0.65505 0.95459 0.9715 0.0
H304 H 0.56739 0.94891 0.88991 0.0
C305 C 0.65872 0.99297 0.9766 0.0
H306 H 0.61903 0.90981 0.93256 0.0
C307 C 0.62889 0.01559 0.95557 0.0
C308 C 0.59517 0.0001 0.92799 0.0
H309 H 0.68376 0.00532 0.00695 0.0
H310 H 0.63217 0.04497 0.96185 0.0
C311 C 0.5926 0.96175 0.91521 0.0
C312 C 0.50571 0.66018 0.01901 0.0
C313 C 0.54169 0.66425 0.9788 0.0
H314 H 0.45789 0.62655 0.02271 0.0
C315 C 0.55619 0.6392 0.90206 0.0
H316 H 0.49464 0.67909 0.08125 0.0
C317 C 0.53558 0.60905 0.87067 0.0
C318 C 0.50035 0.60339 0.91706 0.0
H319 H 0.58399 0.64184 0.87182 0.0
H320 H 0.54757 0.59 0.8107 0.0
C321 C 0.48513 0.62984 0.98838 0.0
C322 C 0.87128 0.56105 0.91045 0.0
C323 C 0.84376 0.54344 0.97099 0.0
H324 H 0.92305 0.55606 0.83387 0.0
C325 C 0.84671 0.50586 -0.00277 0.0
H326 H 0.86953 0.59006 0.8911 0.0
C327 C 0.87845 0.48674 0.97087 0.0
C328 C 0.9073 0.50502 0.91697 0.0
H329 H 0.82569 0.49217 0.04675 0.0
H330 H 0.88064 0.45807 -0.00579 0.0
C331 C 0.90256 0.54187 0.88274 0.0
C332 C 0.02046 0.17459 0.97928 0.0
C333 C 0.05739 0.18057 0.00446 0.0
H334 H 0.97995 0.13521 0.93276 0.0
C335 C 0.083 0.15446 0.96592 0.0
H336 H 2e-05 0.19404 0.00704 0.0
C337 C 0.07146 0.12002 0.92717 0.0
C338 C 0.03421 0.11186 0.92288 0.0
H339 H 0.11166 0.15817 0.98491 0.0
H340 H 0.09151 0.09893 0.91061 0.0
C341 C 0.00893 0.14027 0.94102 0.0
C342 C 0.3408 0.01912 0.06075 0.0
C343 C 0.33546 0.05701 0.05178 0.0
H344 H 0.37451 0.97339 0.0231 0.0
C345 C 0.36111 0.07801 -0.01004 0.0
H346 H 0.32276 0.00249 0.11311 0.0
C347 C 0.39143 0.06132 0.9381 0.0
C348 C 0.39705 0.02339 0.94939 0.0
H349 H 0.35853 0.10753 0.98645 0.0
H350 H 0.41043 0.07807 0.88984 0.0
C351 C 0.37123 0.00266 0.01158 0.0
C352 C 0.41985 0.3766 0.03861 0.0
C353 C 0.43498 0.34094 0.04974 0.0
H354 H 0.42646 0.43162 0.97348 0.0
C355 C 0.4652 0.33245 0.98162 0.0
H356 H 0.39639 0.38425 0.08952 0.0
C357 C 0.48225 0.35958 0.91533 0.0
C358 C 0.46978 0.39623 0.91486 0.0
H359 H 0.4779 0.30573 0.98775 0.0
H360 H 0.50654 0.35201 0.8684 0.0
C361 C 0.43728 0.40402 0.97314 0.0
C362 C 0.13855 0.42642 0.00335 0.0
C363 C 0.16955 0.4463 0.03985 0.0
H364 H 0.08501 0.42868 0.92609 0.0
C365 C 0.17201 0.48328 0.00887 0.0
H366 H 0.13557 0.39794 0.02796 0.0
C367 C 0.14288 0.50088 0.9548 0.0
C368 C 0.11033 0.4821 0.92814 0.0
H369 H 0.19479 0.49971 0.03765 0.0
H370 H 0.1454 0.53001 0.9387 0.0
C371 C 0.10924 0.44413 0.94724 0.0
C372 C 0.93623 0.87274 0.37712 0.0
C373 C 0.95487 0.83971 0.35284 0.0
H374 H 0.93854 0.92597 0.4546 0.0
C375 C 0.98731 0.83242 0.41233 0.0
H376 H 0.91107 0.87926 0.3327 0.0
C377 C 0.00299 0.8593 0.4822 0.0
C378 C 0.98667 0.89409 0.49429 0.0
H379 H 0.0024 0.80748 0.39634 0.0
H380 H 0.02906 0.85348 0.52207 0.0
C381 C 0.95212 0.89979 0.44596 0.0
C382 C 0.6606 0.99388 0.35134 0.0
C383 C 0.6642 0.95576 0.34445 0.0
H384 H 0.62989 0.039 0.41516 0.0
C385 C 0.63877 0.93352 0.40282 0.0
H386 H 0.67844 0.01171 0.30231 0.0
C387 C 0.61013 0.94914 0.46581 0.0
C388 C 0.6063 0.98735 0.4709 0.0
H389 H 0.64013 0.90402 0.39498 0.0
H390 H 0.5911 0.93141 0.5103 0.0
C391 C 0.63212 0.00943 0.41371 0.0
C392 C 0.5229 0.67528 0.39374 0.0
C393 C 0.55838 0.67046 0.35194 0.0
H394 H 0.4776 0.65194 0.48219 0.0
C395 C 0.57674 0.63751 0.38045 0.0
H396 H 0.50747 0.69958 0.37117 0.0
C397 C 0.55911 0.60923 0.44133 0.0
C398 C 0.52278 0.61331 0.47686 0.0
H399 H 0.6039 0.63252 0.34773 0.0
H400 H 0.57359 0.58386 0.45746 0.0
C401 C 0.50542 0.64723 0.45501 0.0
C402 C 0.83806 0.51684 0.35602 0.0
C403 C 0.83298 0.55484 0.34688 0.0
H404 H 0.87159 0.47283 0.41573 0.0
C405 C 0.85869 0.5779 0.40019 0.0
H406 H 0.82027 0.49835 0.31007 0.0
C407 C 0.889 0.56326 0.45921 0.0
C408 C 0.89445 0.52519 0.4651 0.0
H409 H 0.85651 0.6073 0.38983 0.0
H410 H 0.90821 0.58166 0.49933 0.0
C411 C 0.86826 0.5023 0.41379 0.0
loop_
_geom_bond_atom_site_label_1
_geom_bond_atom_site_label_2
_geom_bond_distance
_geom_bond_site_symmetry_2
_ccdc_geom_bond_type
H0 C5 0.929 . S
H1 C10 0.931 . S
H2 C8 0.923 1_556 S
N3 N4 1.234 1_554 S
N3 C7 1.453 . S
N4 N3 1.234 1_556 S
C5 H0 0.929 . S
C5 C6 1.373 . S
C5 C7 1.368 . S
C6 C5 1.373 . S
C6 C10 1.397 . S
C7 N3 1.453 . S
C7 C5 1.368 . S
C7 C8 1.378 . S
C8 H2 0.923 1_554 S
C8 C7 1.378 . S
C8 C9 1.372 . S
C9 C8 1.372 . S
C9 C10 1.383 . S
C10 H1 0.931 . S
C10 C6 1.397 . S
C10 C9 1.383 . S
H11 C16 0.929 . S
H12 C21 0.931 . S
H13 C19 0.923 1_556 S
N14 N15 1.234 1_554 S
N14 C18 1.453 . S
N15 N14 1.234 1_556 S
C16 H11 0.929 . S
C16 C17 1.373 . S
C16 C18 1.368 . S
C17 C16 1.373 . S
C17 C21 1.397 . S
C18 N14 1.453 . S
C18 C16 1.368 . S
C18 C19 1.379 . S
C19 H13 0.923 1_554 S
C19 C18 1.379 . S
C19 C20 1.372 . S
C20 C19 1.372 . S
C20 C21 1.383 . S
C21 H12 0.931 . S
C21 C17 1.397 . S
C21 C20 1.383 . S
H22 C27 0.929 . S
H23 C32 0.931 . S
H24 C30 0.924 1_556 S
N25 N26 1.234 1_554 S
N25 C29 1.453 . S
N26 N25 1.234 1_556 S
C27 H22 0.929 . S
C27 C28 1.373 . S
C27 C29 1.368 . S
C28 C27 1.373 . S
C28 C32 1.397 . S
C29 N25 1.453 . S
C29 C27 1.368 . S
C29 C30 1.378 . S
C30 H24 0.924 1_554 S
C30 C29 1.378 . S
C30 C31 1.372 . S
C31 C30 1.372 . S
C31 C32 1.383 . S
C32 H23 0.931 . S
C32 C28 1.397 . S
C32 C31 1.383 . S
H33 C38 0.929 . S
H34 C43 0.931 . S
H35 C41 0.922 1_556 S
N36 N37 1.234 . S
N36 C40 1.453 . S
N37 N36 1.234 . S
C38 H33 0.929 . S
C38 C39 1.373 . S
C38 C40 1.368 . S
C39 C38 1.373 . S
C39 C43 1.397 . S
C40 N36 1.453 . S
C40 C38 1.368 . S
C40 C41 1.380 . S
C41 H35 0.922 1_554 S
C41 C40 1.380 . S
C41 C42 1.372 . S
C42 C41 1.372 . S
C42 C43 1.383 . S
C43 H34 0.931 . S
C43 C39 1.397 . S
C43 C42 1.383 . S
H44 C49 0.929 . S
H45 C54 0.931 . S
H46 C52 0.930 . S
N47 N48 1.234 . S
N47 C51 1.453 . S
N48 N47 1.234 . S
C49 H44 0.929 . S
C49 C50 1.373 . S
C49 C51 1.368 . S
C50 C49 1.373 . S
C50 C54 1.397 . S
C51 N47 1.453 . S
C51 C49 1.368 . S
C51 C52 1.373 . S
C52 H46 0.930 . S
C52 C51 1.373 . S
C52 C53 1.371 . S
C53 C52 1.371 . S
C53 C54 1.383 . S
C54 H45 0.931 . S
C54 C50 1.397 . S
C54 C53 1.383 . S
H55 C60 0.929 . S
H56 C65 0.931 . S
H57 C63 0.930 . S
N58 N59 1.234 . S
N58 C62 1.453 . S
N59 N58 1.234 . S
C60 H55 0.929 . S
C60 C61 1.373 . S
C60 C62 1.368 . S
C61 C60 1.373 . S
C61 C65 1.397 . S
C62 N58 1.453 . S
C62 C60 1.368 . S
C62 C63 1.373 . S
C63 H57 0.930 . S
C63 C62 1.373 . S
C63 C64 1.371 . S
C64 C63 1.371 . S
C64 C65 1.383 . S
C65 H56 0.931 . S
C65 C61 1.397 . S
C65 C64 1.383 . S
H66 C71 0.929 . S
H67 C76 0.931 . S
H68 C74 0.930 . S
N69 N70 1.234 . S
N69 C73 1.453 . S
N70 N69 1.234 . S
C71 H66 0.929 . S
C71 C72 1.373 . S
C71 C73 1.368 . S
C72 C71 1.373 . S
C72 C76 1.397 . S
C73 N69 1.453 . S
C73 C71 1.368 . S
C73 C74 1.373 . S
C74 H68 0.930 . S
C74 C73 1.373 . S
C74 C75 1.371 . S
C75 C74 1.371 . S
C75 C76 1.383 . S
C76 H67 0.931 . S
C76 C72 1.397 . S
C76 C75 1.383 . S
H77 C82 0.929 . S
H78 C87 0.931 . S
H79 C85 0.930 . S
N80 N81 1.234 . S
N80 C84 1.453 . S
N81 N80 1.234 . S
C82 H77 0.929 . S
C82 C83 1.373 . S
C82 C84 1.368 . S
C83 C82 1.373 . S
C83 C87 1.397 . S
C84 N80 1.453 . S
C84 C82 1.368 . S
C84 C85 1.373 . S
C85 H79 0.930 . S
C85 C84 1.373 . S
C85 C86 1.371 . S
C86 C85 1.371 . S
C86 C87 1.383 . S
C87 H78 0.931 . S
C87 C83 1.397 . S
C87 C86 1.383 . S
O88 Mg89 1.990 . S
O88 C102 1.253 . S
Mg89 O88 1.990 . S
Mg89 O92 2.180 . S
Mg89 O93 2.117 . S
Mg89 O107 2.030 . S
O90 Mg91 2.074 1_565 S
O90 C102 1.267 . S
Mg91 O90 2.074 1_545 S
Mg91 O92 2.099 1_545 S
Mg91 O94 2.079 . S
Mg91 O95 2.072 . S
Mg91 O97 2.099 1_455 S
Mg91 O108 2.079 1_445 S
O92 Mg89 2.180 . S
O92 Mg91 2.099 1_565 S
O92 C103 1.279 . S
O93 Mg89 2.117 . S
O93 C103 1.250 . S
O94 Mg91 2.079 . S
O94 C104 1.264 1_455 S
O95 Mg91 2.072 . S
O95 C105 1.260 . S
Mg96 O97 2.180 . S
Mg96 O98 2.030 . S
Mg96 O99 1.990 . S
Mg96 O100 2.117 . S
O97 Mg91 2.099 1_655 S
O97 Mg96 2.180 . S
O97 C106 1.279 . S
O98 Mg96 2.030 . S
O98 C104 1.248 . S
O99 Mg96 1.990 . S
O99 C105 1.253 1_655 S
O100 Mg96 2.117 . S
O100 C106 1.250 . S
C101 O107 1.248 1_655 S
C101 O108 1.264 . S
C102 O88 1.253 . S
C102 O90 1.267 . S
C103 O92 1.279 . S
C103 O93 1.250 . S
C104 O94 1.264 1_655 S
C104 O98 1.248 . S
C105 O95 1.260 . S
C105 O99 1.253 1_455 S
C106 O97 1.279 . S
C106 O100 1.250 . S
O107 Mg89 2.030 . S
O107 C101 1.248 1_455 S
O108 Mg91 2.079 1_665 S
O108 C101 1.264 . S
O109 Mg110 1.990 . S
O109 C123 1.253 1_565 S
Mg110 O109 1.990 . S
Mg110 O113 2.180 . S
Mg110 O114 2.117 . S
Mg110 O128 2.030 . S
O111 Mg112 2.072 . S
O111 C123 1.260 . S
Mg112 O111 2.072 . S
Mg112 O113 2.099 1_545 S
Mg112 O115 2.079 1_545 S
Mg112 O116 2.072 . S
Mg112 O118 2.099 . S
Mg112 O129 2.079 . S
O113 Mg110 2.180 . S
O113 Mg112 2.099 1_565 S
O113 C124 1.279 . S
O114 Mg110 2.117 . S
O114 C124 1.250 . S
O115 Mg112 2.079 1_565 S
O115 C125 1.264 . S
O116 Mg112 2.072 . S
O116 C126 1.260 . S
Mg117 O118 2.180 . S
Mg117 O119 2.030 . S
Mg117 O120 1.990 . S
Mg117 O121 2.117 . S
O118 Mg112 2.099 . S
O118 Mg117 2.180 . S
O118 C127 1.279 . S
O119 Mg117 2.030 . S
O119 C125 1.248 1_545 S
O120 Mg117 1.990 . S
O120 C126 1.253 . S
O121 Mg117 2.117 . S
O121 C127 1.250 . S
C122 O128 1.248 . S
C122 O129 1.264 1_565 S
C123 O109 1.253 1_545 S
C123 O111 1.260 . S
C124 O113 1.279 . S
C124 O114 1.250 . S
C125 O115 1.264 . S
C125 O119 1.248 1_565 S
C126 O116 1.260 . S
C126 O120 1.253 . S
C127 O118 1.279 . S
C127 O121 1.250 . S
O128 Mg110 2.030 . S
O128 C122 1.248 . S
O129 Mg112 2.079 . S
O129 C122 1.264 1_545 S
O130 Mg131 1.990 . S
O130 C144 1.253 . S
Mg131 O130 1.990 . S
Mg131 O134 2.180 . S
Mg131 O135 2.117 . S
Mg131 O149 2.030 . S
O132 Mg133 2.072 . S
O132 C144 1.260 . S
Mg133 O132 2.072 . S
Mg133 O134 2.099 . S
Mg133 O136 2.079 . S
Mg133 O137 2.072 . S
Mg133 O139 2.099 . S
Mg133 O150 2.079 . S
O134 Mg131 2.180 . S
O134 Mg133 2.099 . S
O134 C145 1.279 . S
O135 Mg131 2.117 . S
O135 C145 1.250 . S
O136 Mg133 2.079 . S
O136 C146 1.264 . S
O137 Mg133 2.072 . S
O137 C147 1.260 . S
Mg138 O139 2.180 . S
Mg138 O140 2.030 . S
Mg138 O141 1.990 . S
Mg138 O142 2.117 . S
O139 Mg133 2.099 . S
O139 Mg138 2.180 . S
O139 C148 1.279 . S
O140 Mg138 2.030 . S
O140 C146 1.248 . S
O141 Mg138 1.990 . S
O141 C147 1.253 . S
O142 Mg138 2.117 . S
O142 C148 1.250 . S
C143 O149 1.248 . S
C143 O150 1.264 . S
C144 O130 1.253 . S
C144 O132 1.260 . S
C145 O134 1.279 . S
C145 O135 1.250 . S
C146 O136 1.264 . S
C146 O140 1.248 . S
C147 O137 1.260 . S
C147 O141 1.253 . S
C148 O139 1.279 . S
C148 O142 1.250 . S
O149 Mg131 2.030 . S
O149 C143 1.248 . S
O150 Mg133 2.079 . S
O150 C143 1.264 . S
O151 Mg152 1.990 . S
O151 C165 1.253 . S
Mg152 O151 1.990 . S
Mg152 O155 2.180 . S
Mg152 O156 2.117 . S
Mg152 O170 2.030 . S
O153 Mg154 2.072 1_655 S
O153 C165 1.260 . S
Mg154 O153 2.072 1_455 S
Mg154 O155 2.099 1_455 S
Mg154 O157 2.079 . S
Mg154 O158 2.072 . S
Mg154 O160 2.099 . S
Mg154 O171 2.079 1_455 S
O155 Mg152 2.180 . S
O155 Mg154 2.099 1_655 S
O155 C166 1.279 . S
O156 Mg152 2.117 . S
O156 C166 1.250 . S
O157 Mg154 2.079 . S
O157 C167 1.264 . S
O158 Mg154 2.072 . S
O158 C168 1.260 . S
Mg159 O160 2.180 . S
Mg159 O161 2.030 . S
Mg159 O162 1.990 . S
Mg159 O163 2.117 . S
O160 Mg154 2.099 . S
O160 Mg159 2.180 . S
O160 C169 1.279 . S
O161 Mg159 2.030 . S
O161 C167 1.248 . S
O162 Mg159 1.990 . S
O162 C168 1.253 . S
O163 Mg159 2.117 . S
O163 C169 1.250 . S
C164 O170 1.248 . S
C164 O171 1.264 . S
C165 O151 1.253 . S
C165 O153 1.260 . S
C166 O155 1.279 . S
C166 O156 1.250 . S
C167 O157 1.264 . S
C167 O161 1.248 . S
C168 O158 1.260 . S
C168 O162 1.253 . S
C169 O160 1.279 . S
C169 O163 1.250 . S
O170 Mg152 2.030 . S
O170 C164 1.248 . S
O171 Mg154 2.079 1_655 S
O171 C164 1.264 . S
C172 C173 1.387 . S
C172 H176 0.950 1_545 S
C172 C181 1.390 1_545 S
C173 C172 1.387 . S
C173 C175 1.387 . S
H174 C181 0.950 . S
C175 C173 1.387 . S
C175 C177 1.390 . S
C175 H179 0.950 . S
H176 C172 0.950 1_565 S
C177 C175 1.390 . S
C177 C178 1.387 . S
C177 H180 0.950 . S
C178 C177 1.387 . S
C178 C181 1.387 1_545 S
H179 C175 0.950 . S
H180 C177 0.950 . S
C181 C172 1.390 1_565 S
C181 H174 0.950 . S
C181 C178 1.387 1_565 S
C182 C183 1.387 . S
C182 H186 0.950 . S
C182 C191 1.390 . S
C183 C182 1.387 . S
C183 C185 1.387 . S
H184 C191 0.950 . S
C185 C183 1.387 . S
C185 C187 1.390 . S
C185 H189 0.950 . S
H186 C182 0.950 . S
C187 C185 1.390 . S
C187 C188 1.387 . S
C187 H190 0.950 . S
C188 C187 1.387 . S
C188 C191 1.387 . S
H189 C185 0.950 . S
H190 C187 0.950 . S
C191 C182 1.390 . S
C191 H184 0.950 . S
C191 C188 1.387 . S
C192 C193 1.387 . S
C192 H196 0.950 . S
C192 C201 1.390 . S
C193 C192 1.387 . S
C193 C195 1.387 . S
H194 C201 0.950 . S
C195 C193 1.387 . S
C195 C197 1.390 . S
C195 H199 0.950 . S
H196 C192 0.950 . S
C197 C195 1.390 . S
C197 C198 1.387 . S
C197 H200 0.950 . S
C198 C197 1.387 . S
C198 C201 1.387 . S
H199 C195 0.950 . S
H200 C197 0.950 . S
C201 C192 1.390 . S
C201 H194 0.950 . S
C201 C198 1.387 . S
C202 C203 1.387 . S
C202 H206 0.950 . S
C202 C211 1.390 . S
C203 C202 1.387 . S
C203 C205 1.387 . S
H204 C211 0.950 . S
C205 C203 1.387 . S
C205 C207 1.390 . S
C205 H209 0.950 . S
H206 C202 0.950 . S
C207 C205 1.390 . S
C207 C208 1.387 . S
C207 H210 0.950 . S
C208 C207 1.387 . S
C208 C211 1.387 . S
H209 C205 0.950 . S
H210 C207 0.950 . S
C211 C202 1.390 . S
C211 H204 0.950 . S
C211 C208 1.387 . S
C212 C213 1.387 . S
C212 H216 0.950 1_556 S
C212 C221 1.390 . S
C213 C212 1.387 . S
C213 C215 1.387 1_565 S
H214 C221 0.950 . S
C215 C213 1.387 1_545 S
C215 C217 1.390 . S
C215 H219 0.950 . S
H216 C212 0.950 1_554 S
C217 C215 1.390 . S
C217 C218 1.387 1_545 S
C217 H220 0.950 . S
C218 C217 1.387 1_565 S
C218 C221 1.387 . S
H219 C215 0.950 . S
H220 C217 0.950 . S
C221 C212 1.390 . S
C221 H214 0.950 . S
C221 C218 1.387 . S
C222 C223 1.387 1_554 S
C222 H226 0.950 . S
C222 C231 1.390 1_554 S
C223 C222 1.387 1_556 S
C223 C225 1.387 . S
H224 C231 0.950 . S
C225 C223 1.387 . S
C225 C227 1.390 . S
C225 H229 0.950 . S
H226 C222 0.950 . S
C227 C225 1.390 . S
C227 C228 1.387 . S
C227 H230 0.950 . S
C228 C227 1.387 . S
C228 C231 1.387 . S
H229 C225 0.950 . S
H230 C227 0.950 . S
C231 C222 1.390 1_556 S
C231 H224 0.950 . S
C231 C228 1.387 . S
C232 C233 1.387 1_554 S
C232 H236 0.950 . S
C232 C241 1.390 1_554 S
C233 C232 1.387 1_556 S
C233 C235 1.387 . S
H234 C241 0.950 . S
C235 C233 1.387 . S
C235 C237 1.390 . S
C235 H239 0.950 . S
H236 C232 0.950 . S
C237 C235 1.390 . S
C237 C238 1.387 . S
C237 H240 0.950 . S
C238 C237 1.387 . S
C238 C241 1.387 . S
H239 C235 0.950 . S
H240 C237 0.950 . S
C241 C232 1.390 1_556 S
C241 H234 0.950 . S
C241 C238 1.387 . S
C242 C243 1.387 . S
C242 H246 0.950 . S
C242 C251 1.390 . S
C243 C242 1.387 . S
C243 C245 1.387 1_655 S
H244 C251 0.950 . S
C245 C243 1.387 1_455 S
C245 C247 1.390 . S
C245 H249 0.950 1_556 S
H246 C242 0.950 . S
C247 C245 1.390 . S
C247 C248 1.387 1_455 S
C247 H250 0.950 . S
C248 C247 1.387 1_655 S
C248 C251 1.387 . S
H249 C245 0.950 1_554 S
H250 C247 0.950 . S
C251 C242 1.390 . S
C251 H244 0.950 . S
C251 C248 1.387 . S
C252 C253 1.387 . S
C252 H256 0.950 . S
C252 C261 1.390 . S
C253 C252 1.387 . S
C253 C255 1.387 . S
H254 C261 0.950 . S
C255 C253 1.387 . S
C255 C257 1.390 . S
C255 H259 0.950 . S
H256 C252 0.950 . S
C257 C255 1.390 . S
C257 C258 1.387 . S
C257 H260 0.950 . S
C258 C257 1.387 . S
C258 C261 1.387 . S
H259 C255 0.950 . S
H260 C257 0.950 . S
C261 C252 1.390 . S
C261 H254 0.950 . S
C261 C258 1.387 . S
C262 C263 1.387 . S
C262 H266 0.950 1_545 S
C262 C271 1.390 1_545 S
C263 C262 1.387 . S
C263 C265 1.387 . S
H264 C271 0.950 . S
C265 C263 1.387 . S
C265 C267 1.390 . S
C265 H269 0.950 . S
H266 C262 0.950 1_565 S
C267 C265 1.390 . S
C267 C268 1.387 . S
C267 H270 0.950 . S
C268 C267 1.387 . S
C268 C271 1.387 1_545 S
H269 C265 0.950 . S
H270 C267 0.950 . S
C271 C262 1.390 1_565 S
C271 H264 0.950 . S
C271 C268 1.387 1_565 S
C272 C273 1.387 . S
C272 H276 0.950 . S
C272 C281 1.390 . S
C273 C272 1.387 . S
C273 C275 1.387 . S
H274 C281 0.950 . S
C275 C273 1.387 . S
C275 C277 1.390 . S
C275 H279 0.950 . S
H276 C272 0.950 . S
C277 C275 1.390 . S
C277 C278 1.387 . S
C277 H280 0.950 . S
C278 C277 1.387 . S
C278 C281 1.387 . S
H279 C275 0.950 . S
H280 C277 0.950 . S
C281 C272 1.390 . S
C281 H274 0.950 . S
C281 C278 1.387 . S
C282 C283 1.387 . S
C282 H286 0.950 . S
C282 C291 1.390 . S
C283 C282 1.387 . S
C283 C285 1.387 . S
H284 C291 0.950 . S
C285 C283 1.387 . S
C285 C287 1.390 . S
C285 H289 0.950 . S
H286 C282 0.950 . S
C287 C285 1.390 . S
C287 C288 1.387 . S
C287 H290 0.950 . S
C288 C287 1.387 . S
C288 C291 1.387 . S
H289 C285 0.950 . S
H290 C287 0.950 . S
C291 C282 1.390 . S
C291 H284 0.950 . S
C291 C288 1.387 . S
C292 C293 1.387 1_554 S
C292 H296 0.950 . S
C292 C301 1.390 1_554 S
C293 C292 1.387 1_556 S
C293 C295 1.387 . S
H294 C301 0.950 1_554 S
C295 C293 1.387 . S
C295 C297 1.390 1_655 S
C295 H299 0.950 . S
H296 C292 0.950 . S
C297 C295 1.390 1_455 S
C297 C298 1.387 . S
C297 H300 0.950 . S
C298 C297 1.387 . S
C298 C301 1.387 1_455 S
H299 C295 0.950 . S
H300 C297 0.950 . S
C301 C292 1.390 1_556 S
C301 H294 0.950 1_556 S
C301 C298 1.387 1_655 S
C302 C303 1.387 . S
C302 H306 0.950 . S
C302 C311 1.390 . S
C303 C302 1.387 . S
C303 C305 1.387 1_565 S
H304 C311 0.950 . S
C305 C303 1.387 1_545 S
C305 C307 1.390 . S
C305 H309 0.950 1_556 S
H306 C302 0.950 . S
C307 C305 1.390 . S
C307 C308 1.387 . S
C307 H310 0.950 . S
C308 C307 1.387 . S
C308 C311 1.387 1_545 S
H309 C305 0.950 1_554 S
H310 C307 0.950 . S
C311 C302 1.390 . S
C311 H304 0.950 . S
C311 C308 1.387 1_565 S
C312 C313 1.387 1_554 S
C312 H316 0.950 . S
C312 C321 1.390 1_554 S
C313 C312 1.387 1_556 S
C313 C315 1.387 . S
H314 C321 0.950 1_554 S
C315 C313 1.387 . S
C315 C317 1.390 . S
C315 H319 0.950 . S
H316 C312 0.950 . S
C317 C315 1.390 . S
C317 C318 1.387 . S
C317 H320 0.950 . S
C318 C317 1.387 . S
C318 C321 1.387 . S
H319 C315 0.950 . S
H320 C317 0.950 . S
C321 C312 1.390 1_556 S
C321 H314 0.950 1_556 S
C321 C318 1.387 . S
C322 C323 1.387 . S
C322 H326 0.950 . S
C322 C331 1.390 . S
C323 C322 1.387 . S
C323 C325 1.387 . S
H324 C331 0.950 . S
C325 C323 1.387 . S
C325 C327 1.390 . S
C325 H329 0.950 1_556 S
H326 C322 0.950 . S
C327 C325 1.390 . S
C327 C328 1.387 . S
C327 H330 0.950 . S
C328 C327 1.387 . S
C328 C331 1.387 . S
H329 C325 0.950 1_554 S
H330 C327 0.950 . S
C331 C322 1.390 . S
C331 H324 0.950 . S
C331 C328 1.387 . S
C332 C333 1.387 . S
C332 H336 0.950 1_455 S
C332 C341 1.390 1_554 S
C333 C332 1.387 . S
C333 C335 1.387 . S
H334 C341 0.950 1_655 S
C335 C333 1.387 . S
C335 C337 1.390 . S
C335 H339 0.950 . S
H336 C332 0.950 1_655 S
C337 C335 1.390 . S
C337 C338 1.387 1_554 S
C337 H340 0.950 . S
C338 C337 1.387 1_556 S
C338 C341 1.387 . S
H339 C335 0.950 . S
H340 C337 0.950 . S
C341 C332 1.390 1_556 S
C341 H334 0.950 1_455 S
C341 C338 1.387 . S
C342 C343 1.387 . S
C342 H346 0.950 1_545 S
C342 C351 1.390 . S
C343 C342 1.387 . S
C343 C345 1.387 . S
H344 C351 0.950 1_565 S
C345 C343 1.387 . S
C345 C347 1.390 1_554 S
C345 H349 0.950 . S
H346 C342 0.950 1_565 S
C347 C345 1.390 1_556 S
C347 C348 1.387 . S
C347 H350 0.950 . S
C348 C347 1.387 . S
C348 C351 1.387 1_556 S
H349 C345 0.950 . S
H350 C347 0.950 . S
C351 C342 1.390 . S
C351 H344 0.950 1_545 S
C351 C348 1.387 1_554 S
C352 C353 1.387 . S
C352 H356 0.950 . S
C352 C361 1.390 . S
C353 C352 1.387 . S
C353 C355 1.387 1_554 S
H354 C361 0.950 . S
C355 C353 1.387 1_556 S
C355 C357 1.390 . S
C355 H359 0.950 . S
H356 C352 0.950 . S
C357 C355 1.390 . S
C357 C358 1.387 . S
C357 H360 0.950 . S
C358 C357 1.387 . S
C358 C361 1.387 1_556 S
H359 C355 0.950 . S
H360 C357 0.950 . S
C361 C352 1.390 . S
C361 H354 0.950 . S
C361 C358 1.387 1_554 S
C362 C363 1.387 . S
C362 H366 0.950 . S
C362 C371 1.390 . S
C363 C362 1.387 . S
C363 C365 1.387 . S
H364 C371 0.950 1_556 S
C365 C363 1.387 . S
C365 C367 1.390 1_554 S
C365 H369 0.950 . S
H366 C362 0.950 . S
C367 C365 1.390 1_556 S
C367 C368 1.387 . S
C367 H370 0.950 . S
C368 C367 1.387 . S
C368 C371 1.387 1_556 S
H369 C365 0.950 . S
H370 C367 0.950 . S
C371 C362 1.390 . S
C371 H364 0.950 1_554 S
C371 C368 1.387 1_554 S
C372 C373 1.387 . S
C372 H376 0.950 . S
C372 C381 1.390 . S
C373 C372 1.387 . S
C373 C375 1.387 . S
H374 C381 0.950 . S
C375 C373 1.387 . S
C375 C377 1.390 . S
C375 H379 0.950 . S
H376 C372 0.950 . S
C377 C375 1.390 . S
C377 C378 1.387 . S
C377 H380 0.950 1_655 S
C378 C377 1.387 . S
C378 C381 1.387 . S
H379 C375 0.950 . S
H380 C377 0.950 1_455 S
C381 C372 1.390 . S
C381 H374 0.950 . S
C381 C378 1.387 . S
C382 C383 1.387 1_545 S
C382 H386 0.950 . S
C382 C391 1.390 . S
C383 C382 1.387 1_565 S
C383 C385 1.387 . S
H384 C391 0.950 . S
C385 C383 1.387 . S
C385 C387 1.390 . S
C385 H389 0.950 . S
H386 C382 0.950 . S
C387 C385 1.390 . S
C387 C388 1.387 . S
C387 H390 0.950 . S
C388 C387 1.387 . S
C388 C391 1.387 1_565 S
H389 C385 0.950 . S
H390 C387 0.950 . S
C391 C382 1.390 . S
C391 H384 0.950 . S
C391 C388 1.387 1_545 S
C392 C393 1.387 . S
C392 H396 0.950 . S
C392 C401 1.390 . S
C393 C392 1.387 . S
C393 C395 1.387 . S
H394 C401 0.950 . S
C395 C393 1.387 . S
C395 C397 1.390 . S
C395 H399 0.950 . S
H396 C392 0.950 . S
C397 C395 1.390 . S
C397 C398 1.387 . S
C397 H400 0.950 . S
C398 C397 1.387 . S
C398 C401 1.387 . S
H399 C395 0.950 . S
H400 C397 0.950 . S
C401 C392 1.390 . S
C401 H394 0.950 . S
C401 C398 1.387 . S
C402 C403 1.387 . S
C402 H406 0.950 . S
C402 C411 1.390 . S
C403 C402 1.387 . S
C403 C405 1.387 . S
H404 C411 0.950 . S
C405 C403 1.387 . S
C405 C407 1.390 . S
C405 H409 0.950 . S
H406 C402 0.950 . S
C407 C405 1.390 . S
C407 C408 1.387 . S
C407 H410 0.950 . S
C408 C407 1.387 . S
C408 C411 1.387 . S
H409 C405 0.950 . S
H410 C407 0.950 . S
C411 C402 1.390 . S
C411 H404 0.950 . S
C411 C408 1.387 . S
C173 N70 1.578 . S
C178 C103 1.482 1_545 S
C188 C127 1.481 . S
C183 N81 1.578 . S
C198 C148 1.482 . S
C193 N48 1.578 . S
C208 C166 1.485 1_455 S
C203 N59 1.577 . S
C218 C106 1.384 1_565 S
C213 N26 1.495 . S
C223 N37 1.494 1_556 S
C228 C124 1.384 . S
C233 N4 1.494 . S
C238 C145 1.384 . S
C243 N15 1.496 . S
C248 C169 1.383 1_655 S
C258 C104 0.939 1_455 S
C253 C64 0.923 . S
C268 C122 0.941 1_545 S
C263 C75 0.923 . S
C278 C143 0.938 . S
C273 C86 0.922 . S
C283 C53 0.921 . S
C288 C167 0.939 . S
C293 C20 0.985 1_556 S
C298 C102 1.026 . S
C308 C126 1.026 . S
C303 C31 0.984 1_556 S
C318 C147 1.024 . S
C313 C42 0.983 1_556 S
C323 C9 0.984 1_556 S
C328 C165 1.026 . S
C333 C61 1.592 . S
C338 C105 1.551 . S
C343 C72 1.592 . S
C348 C123 1.549 . S
C358 C144 1.549 . S
C353 C83 1.594 . S
C368 C168 1.551 . S
C363 C50 1.595 . S
C373 C17 1.465 . S
C378 C101 1.432 . S
C388 C125 1.432 . S
C383 C28 1.468 . S
C398 C146 1.431 . S
C393 C39 1.468 . S
C403 C6 1.468 . S
C408 C164 1.432 . S
