# Generated by pormake.
# Topology anh, (6,3)-cn, num edge types: 1
# Building blocks:
#     Node 0, Type 0, BuildingBlock: BETFAJ_clean_sbu_0, # of connection points: 6
#     Node 1, Type 0, BuildingBlock: BETFAJ_clean_sbu_0, # of connection points: 6
#     Node 2, Type 0, BuildingBlock: BETFAJ_clean_sbu_0, # of connection points: 6
#     Node 3, Type 1, BuildingBlock: BELTOD_clean_linker_0, # of connection points: 3
#     Node 4, Type 1, BuildingBlock: BELTOD_clean_linker_0, # of connection points: 3
#     Node 5, Type 1, BuildingBlock: BELTOD_clean_linker_0, # of connection points: 3
#     Node 6, Type 1, BuildingBlock: BELTOD_clean_linker_0, # of connection points: 3
#     Node 7, Type 1, BuildingBlock: BELTOD_clean_linker_0, # of connection points: 3
#     Node 8, Type 1, BuildingBlock: BELTOD_clean_linker_0, # of connection points: 3
#     Edge 9, Type (0, 1), None
#     Edge 10, Type (0, 1), None
#     Edge 11, Type (0, 1), None
#     Edge 12, Type (0, 1), None
#     Edge 13, Type (0, 1), None
#     Edge 14, Type (0, 1), None
#     Edge 15, Type (0, 1), None
#     Edge 16, Type (0, 1), None
#     Edge 17, Type (0, 1), None
#     Edge 18, Type (0, 1), None
#     Edge 19, Type (0, 1), None
#     Edge 20, Type (0, 1), None
#     Edge 21, Type (0, 1), None
#     Edge 22, Type (0, 1), None
#     Edge 23, Type (0, 1), None
#     Edge 24, Type (0, 1), None
#     Edge 25, Type (0, 1), None
#     Edge 26, Type (0, 1), None
# Relax obj value: 0.322
# Max RMSD: 0.275
# Mean RMSD: 0.183
data_MOF--net-anh--node1-BETFAJ_clean_sbu_0--node2-BELTOD_clean_linker_0--edge1-none
_symmetry_space_group_name_H-M    P1
_symmetry_Int_Tables_number       1
_symmetry_cell_setting            triclinic
loop_
_symmetry_equiv_pos_as_xyz
'x, y, z'
_cell_length_a     17.765111
_cell_length_b     24.379892
_cell_length_c     32.08858
_cell_angle_alpha  90.954998
_cell_angle_beta   88.948565
_cell_angle_gamma 135.09203
loop_
_atom_site_label
_atom_site_type_symbol
_atom_site_fract_x
_atom_site_fract_y
_atom_site_fract_z
_atom_type_partial_charge
Sm0 Sm 0.32122 0.62566 0.13655 0.0
Sm1 Sm 0.16201 0.62493 0.15143 0.0
C2 C 0.47435 0.63484 0.11794 0.0
C3 C 0.48043 0.58008 0.12806 0.0
C4 C 0.54089 0.57591 0.10281 0.0
C5 C 0.52863 0.51322 0.1066 0.0
C6 C 0.45534 0.45383 0.13568 0.0
C7 C 0.39914 0.46042 0.16246 0.0
C8 C 0.41205 0.52349 0.15876 0.0
C9 C 0.26045 0.60178 0.21934 0.0
C10 C 0.40363 0.79559 0.14382 0.0
C11 C 1.00044 0.60201 0.17325 0.0
C12 C 0.89283 0.52629 0.16183 0.0
C13 C 0.84377 0.45934 0.18535 0.0
C14 C 0.76712 0.38513 0.16743 0.0
C15 C 0.73825 0.37629 0.12562 0.0
C16 C 0.77998 0.44279 0.10365 0.0
C17 C 0.85512 0.51645 0.12161 0.0
C18 C 0.16606 0.58832 0.06928 0.0
C19 C 1.08406 0.4583 0.14726 0.0
O20 O 0.39831 0.6074 0.09191 0.0
O21 O 0.47941 0.6715 0.14974 0.0
O22 O 0.28127 0.65271 0.19648 0.0
O23 O 0.26757 0.55996 0.19843 0.0
O24 O 0.42654 0.75675 0.13193 0.0
O25 O 0.30552 0.75862 0.15515 0.0
O26 O 1.04999 0.59762 0.20053 0.0
O27 O 1.06263 0.64792 0.1419 0.0
O28 O 0.24657 0.64318 0.09036 0.0
O29 O 1.0803 0.55116 0.0912 0.0
O30 O 1.07158 0.49873 0.16769 0.0
O31 O 0.17162 0.49522 0.12503 0.0
H32 H 0.59259 0.61846 0.07859 0.0
H33 H 0.57134 0.50871 0.08478 0.0
H34 H 0.3422 0.41535 0.1849 0.0
H35 H 0.36424 0.52564 0.17837 0.0
H36 H 0.87017 0.46444 0.21663 0.0
H37 H 0.73393 0.33516 0.18578 0.0
H38 H 0.75527 0.43842 0.07215 0.0
H39 H 0.8896 0.5662 0.10268 0.0
Sm40 Sm 0.85013 0.11316 0.4647 0.0
Sm41 Sm 0.68854 0.11592 0.4609 0.0
C42 C 0.96388 0.08319 0.48068 0.0
C43 C 0.94356 1.01667 0.49471 0.0
C44 C 0.85016 0.95558 0.51689 0.0
C45 C 0.8337 0.89386 0.53118 0.0
C46 C 0.91056 0.89245 0.52355 0.0
C47 C 1.00267 0.95297 0.50035 0.0
C48 C 1.01895 1.01453 0.48608 0.0
C49 C 0.81959 0.13442 0.38525 0.0
C50 C 0.59709 0.9483 0.45745 0.0
C51 C 0.58631 0.15663 0.45117 0.0
C52 C 0.61317 0.22265 0.47219 0.0
C53 C 0.5791 0.25578 0.45716 0.0
C54 C 0.61183 0.32163 0.47692 0.0
C55 C 0.67868 0.35466 0.51193 0.0
C56 C 0.71315 0.32137 0.52632 0.0
C57 C 0.68091 0.25632 0.50669 0.0
C58 C 0.72688 0.10033 0.5406 0.0
C59 C 0.94584 0.28344 0.46317 0.0
O60 O 0.94598 0.11331 0.50803 0.0
O61 O 0.93006 0.07735 0.4435 0.0
O62 O 0.7452 0.08549 0.41077 0.0
O63 O 0.91242 0.17349 0.4013 0.0
O64 O 0.68938 0.98496 0.47507 0.0
O65 O 0.5802 0.98836 0.44159 0.0
O66 O 0.65858 0.17592 0.42473 0.0
O67 O 0.55157 0.10024 0.47577 0.0
O68 O 0.79702 0.14669 0.51351 0.0
O69 O 0.63262 0.06194 0.52667 0.0
O70 O 0.8475 0.24659 0.45335 0.0
O71 O 0.96797 0.24438 0.47415 0.0
H72 H 0.79093 0.95629 0.52377 0.0
H73 H 0.76246 0.84857 0.54928 0.0
H74 H 1.06258 0.95297 0.49343 0.0
H75 H 1.09103 0.06096 0.46868 0.0
H76 H 0.52807 0.23117 0.43017 0.0
H77 H 0.5841 0.34613 0.46516 0.0
H78 H 0.76656 0.34633 0.55255 0.0
H79 H 0.71003 0.23264 0.51824 0.0
Sm80 Sm 0.67948 0.56789 0.85587 0.0
Sm81 Sm 0.51778 0.38619 0.82626 0.0
C82 C 0.81586 0.72077 0.85554 0.0
C83 C 0.81282 0.77343 0.83592 0.0
C84 C 0.746 0.74815 0.80181 0.0
C85 C 0.74133 0.79752 0.78372 0.0
C86 C 0.80268 0.87293 0.79962 0.0
C87 C 0.86951 0.8979 0.83382 0.0
C88 C 0.87451 0.84858 0.85176 0.0
C89 C 0.57928 0.45667 0.91673 0.0
C90 C 0.42413 0.46435 0.8443 0.0
C91 C 0.40684 0.23703 0.81981 0.0
C92 C 0.44285 0.19796 0.8197 0.0
C93 C 0.53529 0.23107 0.84124 0.0
C94 C 0.58629 0.20752 0.83263 0.0
C95 C 0.54696 0.15122 0.80181 0.0
C96 C 0.44998 0.11385 0.78248 0.0
C97 C 0.3985 0.13724 0.79132 0.0
C98 C 0.59149 0.48543 0.75972 0.0
C99 C 0.78051 0.4935 0.84192 0.0
O100 O 0.82323 0.68233 0.82987 0.0
O101 O 0.74708 0.67775 0.88594 0.0
O102 O 0.61423 0.45694 0.88242 0.0
O103 O 0.60534 0.52147 0.92232 0.0
O104 O 0.52364 0.53332 0.83932 0.0
O105 O 0.4016 0.39905 0.84639 0.0
O106 O 0.41341 0.26871 0.85486 0.0
O107 O 0.4408 0.28195 0.78765 0.0
O108 O 0.609 0.50084 0.79773 0.0
O109 O 0.52663 0.41099 0.7553 0.0
O110 O 0.68283 0.4246 0.8327 0.0
O111 O 0.79836 0.55567 0.85047 0.0
H112 H 0.6969 0.68998 0.78931 0.0
H113 H 0.68831 0.77619 0.75774 0.0
H114 H 0.91888 0.95595 0.84648 0.0
H115 H 0.92638 0.86907 0.87807 0.0
H116 H 0.57251 0.27878 0.86268 0.0
H117 H 0.6598 0.2363 0.84855 0.0
H118 H 0.41792 0.07052 0.75843 0.0
H119 H 0.32818 0.11164 0.77385 0.0
P120 P 0.80531 0.12147 0.19601 0.0
H121 H 0.76184 1.02065 0.1291 0.0
H122 H 0.60152 0.88885 0.10889 0.0
H123 H 0.41287 0.89794 0.18933 0.0
H124 H 0.5757 0.03221 0.20898 0.0
H125 H 0.97158 0.21899 0.13173 0.0
H126 H 1.08817 0.35582 0.1139 0.0
H127 H 0.90102 0.36616 0.19443 0.0
H128 H 0.78303 0.22881 0.21116 0.0
H129 H 0.65079 1.00505 0.26096 0.0
H130 H 0.94873 0.24718 0.25541 0.0
O131 O 0.89081 0.11357 0.18962 0.0
H132 H 0.65584 1.01156 0.33705 0.0
H133 H 0.9559 0.25258 0.3313 0.0
C134 C 0.68174 0.03543 0.1719 0.0
C135 C 0.68602 0.99537 0.1418 0.0
C136 C 0.59369 0.91946 0.13028 0.0
C137 C 0.49428 0.88162 0.14841 0.0
C138 C 0.48817 0.9249 0.17508 0.0
C139 C 0.58137 1.00169 0.18645 0.0
C140 C 0.86887 0.21358 0.17314 0.0
C141 C 0.95354 0.24999 0.14459 0.0
C142 C 1.02084 0.32864 0.13458 0.0
C143 C 1.00482 0.37251 0.15301 0.0
C144 C 0.91556 0.33429 0.17944 0.0
C145 C 0.84761 0.25544 0.18902 0.0
C146 C 0.79673 0.12672 0.25202 0.0
C147 C 0.71507 0.0604 0.27577 0.0
C148 C 0.71837 0.06387 0.31944 0.0
C149 C 0.80578 0.1328 0.33993 0.0
C150 C 0.88707 0.19895 0.31622 0.0
C151 C 0.88253 0.19592 0.27277 0.0
P152 P 0.85954 0.64497 0.60702 0.0
H153 H 0.82622 0.60672 0.51663 0.0
H154 H 0.75262 0.48918 0.47852 0.0
H155 H 0.685 0.37594 0.59562 0.0
H156 H 0.7607 0.49294 0.63302 0.0
H157 H 1.04242 0.81054 0.59356 0.0
H158 H 1.06273 0.90986 0.56107 0.0
H159 H 0.72951 0.73562 0.52782 0.0
H160 H 0.70946 0.63593 0.56119 0.0
H161 H 0.91328 0.68636 0.69552 0.0
H162 H 0.63039 0.53779 0.62005 0.0
O163 O 0.97954 0.68437 0.62091 0.0
H164 H 0.80287 0.61973 0.7583 0.0
H165 H 0.52034 0.47043 0.68269 0.0
C166 C 0.79734 0.55812 0.57769 0.0
C167 C 0.7942 0.55615 0.53399 0.0
C168 C 0.75175 0.48892 0.51227 0.0
C169 C 0.71331 0.42339 0.53408 0.0
C170 C 0.71503 0.42563 0.57786 0.0
C171 C 0.75763 0.49246 0.59932 0.0
C172 C 0.87466 0.71578 0.57938 0.0
C173 C 0.97388 0.7933 0.57885 0.0
C174 C 0.98553 0.85014 0.56008 0.0
C175 C 0.89789 0.83062 0.54164 0.0
C176 C 0.79836 0.75255 0.54201 0.0
C177 C 0.78689 0.69552 0.56081 0.0
C178 C 0.7799 0.61571 0.65317 0.0
C179 C 0.82736 0.64138 0.69258 0.0
C180 C 0.76424 0.60388 0.7285 0.0
C181 C 0.65351 0.54019 0.7251 0.0
C182 C 0.60571 0.51959 0.68594 0.0
C183 C 0.66851 0.55795 0.6502 0.0
P184 P 0.16783 0.54232 0.88112 0.0
H185 H 0.28122 0.55925 0.80635 0.0
H186 H 0.39095 0.5343 0.79344 0.0
H187 H 0.26728 0.39833 0.90547 0.0
H188 H 0.16037 0.42652 0.9195 0.0
H189 H 1.14166 0.64483 0.86328 0.0
H190 H 0.99266 0.62747 0.84913 0.0
H191 H 0.7822 0.37915 0.84583 0.0
H192 H 0.93508 0.39714 0.86035 0.0
H193 H 0.33883 0.64045 0.9426 0.0
H194 H 0.99523 0.45712 0.94466 0.0
O195 O 0.27253 0.63415 0.86668 0.0
H196 H 0.33911 0.66179 0.01757 0.0
H197 H 0.99514 0.47807 0.01955 0.0
C198 C 0.21034 0.49459 0.86384 0.0
C199 C 0.27392 0.5216 0.82758 0.0
C200 C 0.33778 0.50758 0.82025 0.0
C201 C 0.33825 0.46371 0.84814 0.0
C202 C 0.26818 0.43122 0.8828 0.0
C203 C 0.20615 0.44716 0.89078 0.0
C204 C 1.05253 0.52268 0.86193 0.0
C205 C 1.06458 0.58616 0.85848 0.0
C206 C 0.97775 0.5761 0.85065 0.0
C207 C 0.87348 0.50173 0.84617 0.0
C208 C 0.86076 0.43749 0.8487 0.0
C209 C 0.94878 0.44773 0.85683 0.0
C210 C 0.16692 0.54803 0.93765 0.0
C211 C 0.26338 0.60427 0.95917 0.0
C212 C 0.26357 0.61671 0.00206 0.0
C213 C 0.16717 0.57266 0.02437 0.0
C214 C 1.07082 0.51373 0.00316 0.0
C215 C 1.07073 0.50147 0.96025 0.0
P216 P 0.32189 0.61339 0.40547 0.0
H217 H 0.50523 0.71698 0.46024 0.0
H218 H 0.61907 0.85251 0.47914 0.0
H219 H 0.39334 0.84802 0.42551 0.0
H220 H 0.27732 0.71017 0.40748 0.0
H221 H 0.30558 0.51401 0.46338 0.0
H222 H 1.15523 0.37978 0.48473 0.0
H223 H 0.93847 0.38192 0.42813 0.0
H224 H 1.09041 0.51684 0.40657 0.0
H225 H 0.39115 0.73322 0.34501 0.0
H226 H 0.18869 0.4855 0.34607 0.0
O227 O 0.41511 0.61273 0.40163 0.0
H228 H 0.36289 0.72748 0.27043 0.0
H229 H 0.16535 0.48071 0.2709 0.0
C230 C 0.3843 0.70393 0.43116 0.0
C231 C 0.47852 0.74426 0.45335 0.0
C232 C 0.54418 0.82239 0.46403 0.0
C233 C 0.51726 0.86222 0.45267 0.0
C234 C 0.4176 0.81962 0.43401 0.0
C235 C 0.35082 0.74063 0.4239 0.0
C236 C 0.2096 0.5252 0.43265 0.0
C237 C 0.22567 0.48642 0.45637 0.0
C238 C 1.13928 0.40919 0.46844 0.0
C239 C 1.03462 0.36915 0.45732 0.0
C240 C 1.01799 0.41055 0.43687 0.0
C241 C 1.10485 0.488 0.42469 0.0
C242 C 0.28761 0.60906 0.35199 0.0
C243 C 0.33694 0.67704 0.32988 0.0
C244 C 0.32169 0.674 0.28695 0.0
C245 C 0.26108 0.60354 0.26518 0.0
C246 C 0.21142 0.53559 0.2872 0.0
C247 C 0.22435 0.53832 0.33022 0.0
P248 P 0.81963 0.10939 0.72384 0.0
H249 H 0.8679 0.24541 0.75276 0.0
H250 H 0.75916 0.26229 0.78373 0.0
H251 H 0.48538 1.01344 0.78336 0.0
H252 H 0.59607 0.99683 0.7527 0.0
H253 H 0.80267 0.99001 0.68599 0.0
H254 H 0.79999 0.89721 0.71659 0.0
H255 H 0.79404 0.96823 0.83985 0.0
H256 H 0.79773 0.0611 0.80905 0.0
H257 H 0.95851 0.19379 0.65056 0.0
H258 H 0.62147 1.00435 0.67565 0.0
O259 O 0.94798 0.19043 0.7315 0.0
H260 H 0.92148 0.1917 0.57723 0.0
H261 H 0.58395 1.00277 0.60235 0.0
C262 C 0.7404 0.11986 0.75081 0.0
C263 C 0.78509 0.19428 0.76004 0.0
C264 C 0.72272 0.20383 0.7779 0.0
C265 C 0.6137 0.13909 0.7863 0.0
C266 C 0.56907 0.06434 0.77723 0.0
C267 C 0.6322 0.05483 0.7598 0.0
C268 C 0.79806 0.03125 0.74525 0.0
C269 C 0.79845 0.98437 0.71956 0.0
C270 C 0.79716 0.93143 0.73712 0.0
C271 C 0.79728 0.9255 0.78072 0.0
C272 C 0.79519 0.9719 0.80622 0.0
C273 C 0.79594 0.02436 0.78863 0.0
C274 C 0.79265 0.09986 0.6688 0.0
C275 C 0.87653 0.1513 0.64032 0.0
C276 C 0.85533 0.15024 0.59837 0.0
C277 C 0.74977 0.09789 0.58424 0.0
C278 C 0.66607 0.04438 0.61248 0.0
C279 C 0.68743 0.04515 0.6544 0.0
P280 P 0.37484 0.20743 0.04851 0.0
H281 H 0.39104 0.14776 0.12229 0.0
H282 H 0.5565 0.23681 0.16053 0.0
H283 H 0.7318 0.33495 0.04445 0.0
H284 H 0.56657 0.25043 0.00696 0.0
H285 H 0.22137 0.19752 0.09707 0.0
H286 H 0.2571 0.30423 0.13201 0.0
H287 H 0.59396 0.44148 0.13087 0.0
H288 H 0.55938 0.34244 0.09074 0.0
H289 H 0.45254 0.22344 0.96213 0.0
H290 H 0.37595 0.32894 0.0355 0.0
O291 O 0.25015 0.12033 0.04355 0.0
H292 H 0.55225 0.33229 0.91362 0.0
H293 H 0.46676 0.43247 0.98546 0.0
C294 C 0.46561 0.19957 0.0623 0.0
C295 C 0.46512 0.18522 0.10465 0.0
C296 C 0.56085 0.23705 0.12684 0.0
C297 C 0.65636 0.29835 0.1055 0.0
C298 C 0.65794 0.29259 0.06189 0.0
C299 C 0.56212 0.24366 0.04019 0.0
C300 C 0.38776 0.26072 0.09228 0.0
C301 C 0.30206 0.24896 0.1063 0.0
C302 C 0.32268 0.30989 0.12646 0.0
C303 C 0.42882 0.38145 0.13318 0.0
C304 C 0.51175 0.38721 0.12566 0.0
C305 C 0.4917 0.32893 0.10367 0.0
C306 C 0.4153 0.27099 0.00501 0.0
C307 C 0.4576 0.26972 0.96825 0.0
C308 C 0.51229 0.33096 0.93991 0.0
C309 C 0.51855 0.3913 0.94617 0.0
C310 C 0.46601 0.38802 0.98047 0.0
C311 C 0.41393 0.32808 0.00931 0.0
loop_
_geom_bond_atom_site_label_1
_geom_bond_atom_site_label_2
_geom_bond_distance
_geom_bond_site_symmetry_2
_ccdc_geom_bond_type
Sm0 C2 2.846 . S
Sm0 O20 2.543 . S
Sm0 O21 2.450 . S
Sm0 O22 2.681 . S
Sm0 O23 2.464 . S
Sm0 O24 2.396 . S
Sm0 O28 2.386 . S
Sm0 O31 2.408 1_455 S
Sm1 C11 2.846 . S
Sm1 O22 2.386 1_655 S
Sm1 O25 2.408 1_655 S
Sm1 O26 2.543 . S
Sm1 O27 2.450 . S
Sm1 O28 2.681 1_655 S
Sm1 O29 2.464 . S
Sm1 O30 2.396 . S
C2 Sm0 2.846 . S
C2 C3 1.506 . S
C2 O20 1.261 . S
C2 O21 1.242 . S
C3 C2 1.506 . S
C3 C4 1.358 . S
C3 C8 1.382 . S
C4 C3 1.358 . S
C4 C5 1.385 . S
C4 H32 0.930 . S
C5 C4 1.385 . S
C5 C6 1.395 . S
C5 H33 0.929 . S
C6 C5 1.395 . S
C6 C7 1.335 . S
C7 C6 1.335 . S
C7 C8 1.398 . S
C7 H34 0.930 . S
C8 C3 1.382 . S
C8 C7 1.398 . S
C8 H35 0.929 . S
C9 O22 1.271 . S
C9 O23 1.251 . S
C10 O24 1.252 . S
C10 O25 1.272 . S
C11 Sm1 2.846 . S
C11 C12 1.506 . S
C11 O26 1.261 . S
C11 O27 1.242 . S
C12 C11 1.506 . S
C12 C13 1.358 . S
C12 C17 1.382 . S
C13 C12 1.358 . S
C13 C14 1.385 . S
C13 H36 0.930 . S
C14 C13 1.385 . S
C14 C15 1.395 . S
C14 H37 0.929 . S
C15 C14 1.395 . S
C15 C16 1.335 . S
C16 C15 1.335 . S
C16 C17 1.398 . S
C16 H38 0.930 . S
C17 C12 1.382 . S
C17 C16 1.398 . S
C17 H39 0.929 . S
C18 O28 1.271 . S
C18 O29 1.251 1_455 S
C19 O30 1.252 . S
C19 O31 1.272 . S
O20 Sm0 2.543 . S
O20 C2 1.261 . S
O21 Sm0 2.450 . S
O21 C2 1.242 . S
O22 Sm0 2.681 . S
O22 Sm1 2.386 1_455 S
O22 C9 1.271 . S
O23 Sm0 2.464 . S
O23 C9 1.251 . S
O24 Sm0 2.396 . S
O24 C10 1.252 . S
O25 Sm1 2.408 1_455 S
O25 C10 1.272 . S
O26 Sm1 2.543 . S
O26 C11 1.261 . S
O27 Sm1 2.450 . S
O27 C11 1.242 . S
O28 Sm0 2.386 . S
O28 Sm1 2.681 1_455 S
O28 C18 1.271 . S
O29 Sm1 2.464 . S
O29 C18 1.251 1_655 S
O30 Sm1 2.396 . S
O30 C19 1.252 . S
O31 Sm0 2.408 1_655 S
O31 C19 1.272 . S
H32 C4 0.930 . S
H33 C5 0.929 . S
H34 C7 0.930 . S
H35 C8 0.929 . S
H36 C13 0.930 . S
H37 C14 0.929 . S
H38 C16 0.930 . S
H39 C17 0.929 . S
Sm40 C42 2.846 . S
Sm40 O60 2.543 . S
Sm40 O61 2.450 . S
Sm40 O62 2.681 1_565 S
Sm40 O63 2.464 . S
Sm40 O64 2.396 . S
Sm40 O68 2.386 . S
Sm40 O71 2.408 1_565 S
Sm41 C51 2.846 . S
Sm41 O62 2.386 . S
Sm41 O65 2.408 1_545 S
Sm41 O66 2.543 . S
Sm41 O67 2.450 . S
Sm41 O68 2.681 1_545 S
Sm41 O69 2.464 . S
Sm41 O70 2.396 . S
C42 Sm40 2.846 . S
C42 C43 1.506 . S
C42 O60 1.261 . S
C42 O61 1.242 . S
C43 C42 1.506 . S
C43 C44 1.358 . S
C43 C48 1.382 . S
C44 C43 1.358 . S
C44 C45 1.385 . S
C44 H72 0.930 . S
C45 C44 1.385 . S
C45 C46 1.395 . S
C45 H73 0.929 . S
C46 C45 1.395 . S
C46 C47 1.335 . S
C47 C46 1.335 . S
C47 C48 1.398 . S
C47 H74 0.930 . S
C48 C43 1.382 . S
C48 C47 1.398 . S
C48 H75 0.929 . S
C49 O62 1.271 . S
C49 O63 1.251 1_545 S
C50 O64 1.252 . S
C50 O65 1.272 . S
C51 Sm41 2.846 . S
C51 C52 1.506 . S
C51 O66 1.261 . S
C51 O67 1.242 . S
C52 C51 1.506 . S
C52 C53 1.358 . S
C52 C57 1.382 . S
C53 C52 1.358 . S
C53 C54 1.385 . S
C53 H76 0.930 . S
C54 C53 1.385 . S
C54 C55 1.395 . S
C54 H77 0.929 . S
C55 C54 1.395 . S
C55 C56 1.335 . S
C56 C55 1.335 . S
C56 C57 1.398 . S
C56 H78 0.930 . S
C57 C52 1.382 . S
C57 C56 1.398 . S
C57 H79 0.929 . S
C58 O68 1.271 1_545 S
C58 O69 1.251 . S
C59 O70 1.252 . S
C59 O71 1.272 . S
O60 Sm40 2.543 . S
O60 C42 1.261 . S
O61 Sm40 2.450 . S
O61 C42 1.242 . S
O62 Sm40 2.681 1_545 S
O62 Sm41 2.386 . S
O62 C49 1.271 . S
O63 Sm40 2.464 . S
O63 C49 1.251 1_565 S
O64 Sm40 2.396 . S
O64 C50 1.252 . S
O65 Sm41 2.408 1_565 S
O65 C50 1.272 . S
O66 Sm41 2.543 . S
O66 C51 1.261 . S
O67 Sm41 2.450 . S
O67 C51 1.242 . S
O68 Sm40 2.386 . S
O68 Sm41 2.681 1_565 S
O68 C58 1.271 1_565 S
O69 Sm41 2.464 . S
O69 C58 1.251 . S
O70 Sm41 2.396 . S
O70 C59 1.252 . S
O71 Sm40 2.408 1_545 S
O71 C59 1.272 . S
H72 C44 0.930 . S
H73 C45 0.929 . S
H74 C47 0.930 . S
H75 C48 0.929 . S
H76 C53 0.930 . S
H77 C54 0.929 . S
H78 C56 0.930 . S
H79 C57 0.929 . S
Sm80 C82 2.846 . S
Sm80 O100 2.543 . S
Sm80 O101 2.450 . S
Sm80 O102 2.681 . S
Sm80 O103 2.464 . S
Sm80 O104 2.396 . S
Sm80 O108 2.386 . S
Sm80 O111 2.408 . S
Sm81 C91 2.846 . S
Sm81 O102 2.386 . S
Sm81 O105 2.408 . S
Sm81 O106 2.543 . S
Sm81 O107 2.450 . S
Sm81 O108 2.681 . S
Sm81 O109 2.464 . S
Sm81 O110 2.396 . S
C82 Sm80 2.846 . S
C82 C83 1.506 . S
C82 O100 1.261 . S
C82 O101 1.242 . S
C83 C82 1.506 . S
C83 C84 1.358 . S
C83 C88 1.382 . S
C84 C83 1.358 . S
C84 C85 1.385 . S
C84 H112 0.930 . S
C85 C84 1.385 . S
C85 C86 1.395 . S
C85 H113 0.929 . S
C86 C85 1.395 . S
C86 C87 1.335 . S
C87 C86 1.335 . S
C87 C88 1.398 . S
C87 H114 0.930 . S
C88 C83 1.382 . S
C88 C87 1.398 . S
C88 H115 0.929 . S
C89 O102 1.271 . S
C89 O103 1.251 . S
C90 O104 1.252 . S
C90 O105 1.272 . S
C91 Sm81 2.846 . S
C91 C92 1.506 . S
C91 O106 1.261 . S
C91 O107 1.242 . S
C92 C91 1.506 . S
C92 C93 1.358 . S
C92 C97 1.382 . S
C93 C92 1.358 . S
C93 C94 1.385 . S
C93 H116 0.930 . S
C94 C93 1.385 . S
C94 C95 1.395 . S
C94 H117 0.929 . S
C95 C94 1.395 . S
C95 C96 1.335 . S
C96 C95 1.335 . S
C96 C97 1.398 . S
C96 H118 0.930 . S
C97 C92 1.382 . S
C97 C96 1.398 . S
C97 H119 0.929 . S
C98 O108 1.271 . S
C98 O109 1.251 . S
C99 O110 1.252 . S
C99 O111 1.272 . S
O100 Sm80 2.543 . S
O100 C82 1.261 . S
O101 Sm80 2.450 . S
O101 C82 1.242 . S
O102 Sm80 2.681 . S
O102 Sm81 2.386 . S
O102 C89 1.271 . S
O103 Sm80 2.464 . S
O103 C89 1.251 . S
O104 Sm80 2.396 . S
O104 C90 1.252 . S
O105 Sm81 2.408 . S
O105 C90 1.272 . S
O106 Sm81 2.543 . S
O106 C91 1.261 . S
O107 Sm81 2.450 . S
O107 C91 1.242 . S
O108 Sm80 2.386 . S
O108 Sm81 2.681 . S
O108 C98 1.271 . S
O109 Sm81 2.464 . S
O109 C98 1.251 . S
O110 Sm81 2.396 . S
O110 C99 1.252 . S
O111 Sm80 2.408 . S
O111 C99 1.272 . S
H112 C84 0.930 . S
H113 C85 0.929 . S
H114 C87 0.930 . S
H115 C88 0.929 . S
H116 C93 0.930 . S
H117 C94 0.929 . S
H118 C96 0.930 . S
H119 C97 0.929 . S
P120 O131 1.490 1_545 S
P120 C134 1.812 1_545 S
P120 C140 1.803 . S
P120 C146 1.819 . S
H121 C135 0.941 . S
H122 C136 0.939 . S
H123 C138 0.940 . S
H124 C139 0.940 . S
H125 C141 0.939 . S
H126 C142 0.942 . S
H127 C144 0.940 . S
H128 C145 0.939 . S
H129 C147 0.941 . S
H130 C151 0.939 . S
O131 P120 1.490 1_565 S
H132 C148 0.939 . S
H133 C150 0.940 . S
C134 P120 1.812 1_565 S
C134 C135 1.389 . S
C134 C139 1.391 . S
C135 H121 0.941 . S
C135 C134 1.389 . S
C135 C136 1.397 . S
C136 H122 0.939 . S
C136 C135 1.397 . S
C136 C137 1.378 . S
C137 C136 1.378 . S
C137 C138 1.378 . S
C138 H123 0.940 . S
C138 C137 1.378 . S
C138 C139 1.396 . S
C139 H124 0.940 . S
C139 C134 1.391 . S
C139 C138 1.396 . S
C140 P120 1.803 . S
C140 C141 1.378 . S
C140 C145 1.400 . S
C141 H125 0.939 . S
C141 C140 1.378 . S
C141 C142 1.361 . S
C142 H126 0.942 . S
C142 C141 1.361 . S
C142 C143 1.369 . S
C143 C142 1.369 . S
C143 C144 1.404 . S
C144 H127 0.940 . S
C144 C143 1.404 . S
C144 C145 1.389 . S
C145 H128 0.939 . S
C145 C140 1.400 . S
C145 C144 1.389 . S
C146 P120 1.819 . S
C146 C147 1.391 1_545 S
C146 C151 1.391 . S
C147 H129 0.941 . S
C147 C146 1.391 1_565 S
C147 C148 1.396 . S
C148 H132 0.939 . S
C148 C147 1.396 . S
C148 C149 1.397 1_565 S
C149 C148 1.397 1_545 S
C149 C150 1.385 . S
C150 H133 0.940 . S
C150 C149 1.385 . S
C150 C151 1.388 . S
C151 H130 0.939 . S
C151 C146 1.391 . S
C151 C150 1.388 . S
P152 O163 1.490 . S
P152 C166 1.812 . S
P152 C172 1.803 . S
P152 C178 1.819 . S
H153 C167 0.941 . S
H154 C168 0.939 . S
H155 C170 0.940 . S
H156 C171 0.940 . S
H157 C173 0.939 . S
H158 C174 0.942 . S
H159 C176 0.940 . S
H160 C177 0.939 . S
H161 C179 0.941 . S
H162 C183 0.939 . S
O163 P152 1.490 . S
H164 C180 0.939 . S
H165 C182 0.940 . S
C166 P152 1.812 . S
C166 C167 1.389 . S
C166 C171 1.391 . S
C167 H153 0.941 . S
C167 C166 1.389 . S
C167 C168 1.397 . S
C168 H154 0.939 . S
C168 C167 1.397 . S
C168 C169 1.378 . S
C169 C168 1.378 . S
C169 C170 1.378 . S
C170 H155 0.940 . S
C170 C169 1.378 . S
C170 C171 1.396 . S
C171 H156 0.940 . S
C171 C166 1.391 . S
C171 C170 1.396 . S
C172 P152 1.803 . S
C172 C173 1.378 . S
C172 C177 1.400 . S
C173 H157 0.939 . S
C173 C172 1.378 . S
C173 C174 1.361 . S
C174 H158 0.942 . S
C174 C173 1.361 . S
C174 C175 1.369 . S
C175 C174 1.369 . S
C175 C176 1.404 . S
C176 H159 0.940 . S
C176 C175 1.404 . S
C176 C177 1.389 . S
C177 H160 0.939 . S
C177 C172 1.400 . S
C177 C176 1.389 . S
C178 P152 1.819 . S
C178 C179 1.391 . S
C178 C183 1.391 . S
C179 H161 0.941 . S
C179 C178 1.391 . S
C179 C180 1.396 . S
C180 H164 0.939 . S
C180 C179 1.396 . S
C180 C181 1.397 . S
C181 C180 1.397 . S
C181 C182 1.385 . S
C182 H165 0.940 . S
C182 C181 1.385 . S
C182 C183 1.388 . S
C183 H162 0.939 . S
C183 C178 1.391 . S
C183 C182 1.388 . S
P184 O195 1.490 . S
P184 C198 1.812 . S
P184 C204 1.803 . S
P184 C210 1.819 . S
H185 C199 0.941 . S
H186 C200 0.939 . S
H187 C202 0.940 . S
H188 C203 0.940 . S
H189 C205 0.939 . S
H190 C206 0.942 . S
H191 C208 0.940 . S
H192 C209 0.939 1_455 S
H193 C211 0.941 . S
H194 C215 0.939 1_655 S
O195 P184 1.490 . S
H196 C212 0.939 . S
H197 C214 0.940 1_655 S
C198 P184 1.812 . S
C198 C199 1.389 . S
C198 C203 1.391 . S
C199 H185 0.941 . S
C199 C198 1.389 . S
C199 C200 1.397 . S
C200 H186 0.939 . S
C200 C199 1.397 . S
C200 C201 1.378 . S
C201 C200 1.378 . S
C201 C202 1.378 . S
C202 H187 0.940 . S
C202 C201 1.378 . S
C202 C203 1.396 . S
C203 H188 0.940 . S
C203 C198 1.391 . S
C203 C202 1.396 . S
C204 P184 1.803 . S
C204 C205 1.378 . S
C204 C209 1.400 1_455 S
C205 H189 0.939 . S
C205 C204 1.378 . S
C205 C206 1.361 1_455 S
C206 H190 0.942 . S
C206 C205 1.361 1_655 S
C206 C207 1.369 . S
C207 C206 1.369 . S
C207 C208 1.404 . S
C208 H191 0.940 . S
C208 C207 1.404 . S
C208 C209 1.389 . S
C209 H192 0.939 1_655 S
C209 C204 1.400 1_655 S
C209 C208 1.389 . S
C210 P184 1.819 . S
C210 C211 1.391 . S
C210 C215 1.391 . S
C211 H193 0.941 . S
C211 C210 1.391 . S
C211 C212 1.396 1_556 S
C212 H196 0.939 . S
C212 C211 1.396 1_554 S
C212 C213 1.397 . S
C213 C212 1.397 . S
C213 C214 1.385 . S
C214 H197 0.940 1_455 S
C214 C213 1.385 . S
C214 C215 1.388 1_554 S
C215 H194 0.939 1_455 S
C215 C210 1.391 . S
C215 C214 1.388 1_556 S
P216 O227 1.490 . S
P216 C230 1.812 . S
P216 C236 1.803 1_455 S
P216 C242 1.819 . S
H217 C231 0.941 . S
H218 C232 0.939 . S
H219 C234 0.940 . S
H220 C235 0.940 . S
H221 C237 0.939 . S
H222 C238 0.942 . S
H223 C240 0.940 . S
H224 C241 0.939 . S
H225 C243 0.941 . S
H226 C247 0.939 . S
O227 P216 1.490 . S
H228 C244 0.939 . S
H229 C246 0.940 . S
C230 P216 1.812 . S
C230 C231 1.389 . S
C230 C235 1.391 . S
C231 H217 0.941 . S
C231 C230 1.389 . S
C231 C232 1.397 . S
C232 H218 0.939 . S
C232 C231 1.397 . S
C232 C233 1.378 . S
C233 C232 1.378 . S
C233 C234 1.378 . S
C234 H219 0.940 . S
C234 C233 1.378 . S
C234 C235 1.396 . S
C235 H220 0.940 . S
C235 C230 1.391 . S
C235 C234 1.396 . S
C236 P216 1.803 1_655 S
C236 C237 1.378 . S
C236 C241 1.400 . S
C237 H221 0.939 . S
C237 C236 1.378 . S
C237 C238 1.361 . S
C238 H222 0.942 . S
C238 C237 1.361 . S
C238 C239 1.369 . S
C239 C238 1.369 . S
C239 C240 1.404 . S
C240 H223 0.940 . S
C240 C239 1.404 . S
C240 C241 1.389 . S
C241 H224 0.939 . S
C241 C236 1.400 . S
C241 C240 1.389 . S
C242 P216 1.819 . S
C242 C243 1.391 . S
C242 C247 1.391 1_455 S
C243 H225 0.941 . S
C243 C242 1.391 . S
C243 C244 1.396 . S
C244 H228 0.939 . S
C244 C243 1.396 . S
C244 C245 1.397 . S
C245 C244 1.397 . S
C245 C246 1.385 1_455 S
C246 H229 0.940 . S
C246 C245 1.385 1_655 S
C246 C247 1.388 . S
C247 H226 0.939 . S
C247 C242 1.391 1_655 S
C247 C246 1.388 . S
P248 O259 1.490 . S
P248 C262 1.812 . S
P248 C268 1.803 1_545 S
P248 C274 1.819 . S
H249 C263 0.941 . S
H250 C264 0.939 . S
H251 C266 0.940 . S
H252 C267 0.940 . S
H253 C269 0.939 1_545 S
H254 C270 0.942 . S
H255 C272 0.940 . S
H256 C273 0.939 . S
H257 C275 0.941 . S
H258 C279 0.939 . S
O259 P248 1.490 . S
H260 C276 0.939 . S
H261 C278 0.940 . S
C262 P248 1.812 . S
C262 C263 1.389 . S
C262 C267 1.391 . S
C263 H249 0.941 . S
C263 C262 1.389 . S
C263 C264 1.397 . S
C264 H250 0.939 . S
C264 C263 1.397 . S
C264 C265 1.378 . S
C265 C264 1.378 . S
C265 C266 1.378 . S
C266 H251 0.940 . S
C266 C265 1.378 . S
C266 C267 1.396 . S
C267 H252 0.940 . S
C267 C262 1.391 . S
C267 C266 1.396 . S
C268 P248 1.803 1_565 S
C268 C269 1.378 . S
C268 C273 1.400 . S
C269 H253 0.939 1_565 S
C269 C268 1.378 . S
C269 C270 1.361 . S
C270 H254 0.942 . S
C270 C269 1.361 . S
C270 C271 1.369 . S
C271 C270 1.369 . S
C271 C272 1.404 . S
C272 H255 0.940 . S
C272 C271 1.404 . S
C272 C273 1.389 . S
C273 H256 0.939 . S
C273 C268 1.400 . S
C273 C272 1.389 . S
C274 P248 1.819 . S
C274 C275 1.391 . S
C274 C279 1.391 1_545 S
C275 H257 0.941 . S
C275 C274 1.391 . S
C275 C276 1.396 . S
C276 H260 0.939 . S
C276 C275 1.396 . S
C276 C277 1.397 1_545 S
C277 C276 1.397 1_565 S
C277 C278 1.385 . S
C278 H261 0.940 . S
C278 C277 1.385 . S
C278 C279 1.388 . S
C279 H258 0.939 . S
C279 C274 1.391 1_565 S
C279 C278 1.388 . S
P280 O291 1.490 . S
P280 C294 1.812 . S
P280 C300 1.803 . S
P280 C306 1.819 . S
H281 C295 0.941 . S
H282 C296 0.939 . S
H283 C298 0.940 . S
H284 C299 0.940 . S
H285 C301 0.939 . S
H286 C302 0.942 . S
H287 C304 0.940 . S
H288 C305 0.939 . S
H289 C307 0.941 . S
H290 C311 0.939 1_554 S
O291 P280 1.490 . S
H292 C308 0.939 . S
H293 C310 0.940 . S
C294 P280 1.812 . S
C294 C295 1.389 . S
C294 C299 1.391 . S
C295 H281 0.941 . S
C295 C294 1.389 . S
C295 C296 1.397 . S
C296 H282 0.939 . S
C296 C295 1.397 . S
C296 C297 1.378 . S
C297 C296 1.378 . S
C297 C298 1.378 . S
C298 H283 0.940 . S
C298 C297 1.378 . S
C298 C299 1.396 . S
C299 H284 0.940 . S
C299 C294 1.391 . S
C299 C298 1.396 . S
C300 P280 1.803 . S
C300 C301 1.378 . S
C300 C305 1.400 . S
C301 H285 0.939 . S
C301 C300 1.378 . S
C301 C302 1.361 . S
C302 H286 0.942 . S
C302 C301 1.361 . S
C302 C303 1.369 . S
C303 C302 1.369 . S
C303 C304 1.404 . S
C304 H287 0.940 . S
C304 C303 1.404 . S
C304 C305 1.389 . S
C305 H288 0.939 . S
C305 C300 1.400 . S
C305 C304 1.389 . S
C306 P280 1.819 . S
C306 C307 1.391 1_554 S
C306 C311 1.391 1_554 S
C307 H289 0.941 . S
C307 C306 1.391 1_556 S
C307 C308 1.396 . S
C308 H292 0.939 . S
C308 C307 1.396 . S
C308 C309 1.397 . S
C309 C308 1.397 . S
C309 C310 1.385 . S
C310 H293 0.940 . S
C310 C309 1.385 . S
C310 C311 1.388 . S
C311 H290 0.939 1_556 S
C311 C306 1.391 1_556 S
C311 C310 1.388 . S
C6 C303 3.846 . S
C59 C239 2.584 . S
C86 C271 2.636 . S
C15 C297 2.298 . S
C233 C50 2.883 . S
C265 C95 1.864 . S
C46 C175 2.080 . S
C99 C207 4.811 . S
C10 C137 3.007 . S
C169 C55 2.119 . S
C201 C90 4.844 . S
C19 C143 2.723 . S
C213 C18 2.019 . S
C49 C149 1.005 . S
C98 C181 1.478 . S
C277 C58 1.337 1_565 S
C309 C89 1.821 . S
C9 C245 0.943 . S
