# Generated by pormake.
# Topology eea, (3,6)-cn, num edge types: 1
# Building blocks:
#     Node 0, Type 0, BuildingBlock: BELTOD_clean_linker_0, # of connection points: 3
#     Node 1, Type 0, BuildingBlock: BELTOD_clean_linker_0, # of connection points: 3
#     Node 2, Type 0, BuildingBlock: BELTOD_clean_linker_0, # of connection points: 3
#     Node 3, Type 0, BuildingBlock: BELTOD_clean_linker_0, # of connection points: 3
#     Node 4, Type 0, BuildingBlock: BELTOD_clean_linker_0, # of connection points: 3
#     Node 5, Type 0, BuildingBlock: BELTOD_clean_linker_0, # of connection points: 3
#     Node 6, Type 0, BuildingBlock: BELTOD_clean_linker_0, # of connection points: 3
#     Node 7, Type 0, BuildingBlock: BELTOD_clean_linker_0, # of connection points: 3
#     Node 8, Type 0, BuildingBlock: BELTOD_clean_linker_0, # of connection points: 3
#     Node 9, Type 0, BuildingBlock: BELTOD_clean_linker_0, # of connection points: 3
#     Node 10, Type 0, BuildingBlock: BELTOD_clean_linker_0, # of connection points: 3
#     Node 11, Type 0, BuildingBlock: BELTOD_clean_linker_0, # of connection points: 3
#     Node 12, Type 0, BuildingBlock: BELTOD_clean_linker_0, # of connection points: 3
#     Node 13, Type 0, BuildingBlock: BELTOD_clean_linker_0, # of connection points: 3
#     Node 14, Type 0, BuildingBlock: BELTOD_clean_linker_0, # of connection points: 3
#     Node 15, Type 0, BuildingBlock: BELTOD_clean_linker_0, # of connection points: 3
#     Node 16, Type 0, BuildingBlock: BELTOD_clean_linker_0, # of connection points: 3
#     Node 17, Type 0, BuildingBlock: BELTOD_clean_linker_0, # of connection points: 3
#     Node 18, Type 1, BuildingBlock: KUMBUR_clean_sbu_0, # of connection points: 6
#     Node 19, Type 1, BuildingBlock: KUMBUR_clean_sbu_0, # of connection points: 6
#     Node 20, Type 1, BuildingBlock: KUMBUR_clean_sbu_0, # of connection points: 6
#     Node 21, Type 1, BuildingBlock: KUMBUR_clean_sbu_0, # of connection points: 6
#     Node 22, Type 1, BuildingBlock: KUMBUR_clean_sbu_0, # of connection points: 6
#     Node 23, Type 1, BuildingBlock: KUMBUR_clean_sbu_0, # of connection points: 6
#     Node 24, Type 1, BuildingBlock: KUMBUR_clean_sbu_0, # of connection points: 6
#     Node 25, Type 1, BuildingBlock: KUMBUR_clean_sbu_0, # of connection points: 6
#     Node 26, Type 1, BuildingBlock: KUMBUR_clean_sbu_0, # of connection points: 6
#     Edge 27, Type (0, 1), BuildingBlock: ZUJKAS_clean_linker_0, # of connection points: 2
#     Edge 28, Type (0, 1), BuildingBlock: ZUJKAS_clean_linker_0, # of connection points: 2
#     Edge 29, Type (0, 1), BuildingBlock: ZUJKAS_clean_linker_0, # of connection points: 2
#     Edge 30, Type (0, 1), BuildingBlock: ZUJKAS_clean_linker_0, # of connection points: 2
#     Edge 31, Type (0, 1), BuildingBlock: ZUJKAS_clean_linker_0, # of connection points: 2
#     Edge 32, Type (0, 1), BuildingBlock: ZUJKAS_clean_linker_0, # of connection points: 2
#     Edge 33, Type (0, 1), BuildingBlock: ZUJKAS_clean_linker_0, # of connection points: 2
#     Edge 34, Type (0, 1), BuildingBlock: ZUJKAS_clean_linker_0, # of connection points: 2
#     Edge 35, Type (0, 1), BuildingBlock: ZUJKAS_clean_linker_0, # of connection points: 2
#     Edge 36, Type (0, 1), BuildingBlock: ZUJKAS_clean_linker_0, # of connection points: 2
#     Edge 37, Type (0, 1), BuildingBlock: ZUJKAS_clean_linker_0, # of connection points: 2
#     Edge 38, Type (0, 1), BuildingBlock: ZUJKAS_clean_linker_0, # of connection points: 2
#     Edge 39, Type (0, 1), BuildingBlock: ZUJKAS_clean_linker_0, # of connection points: 2
#     Edge 40, Type (0, 1), BuildingBlock: ZUJKAS_clean_linker_0, # of connection points: 2
#     Edge 41, Type (0, 1), BuildingBlock: ZUJKAS_clean_linker_0, # of connection points: 2
#     Edge 42, Type (0, 1), BuildingBlock: ZUJKAS_clean_linker_0, # of connection points: 2
#     Edge 43, Type (0, 1), BuildingBlock: ZUJKAS_clean_linker_0, # of connection points: 2
#     Edge 44, Type (0, 1), BuildingBlock: ZUJKAS_clean_linker_0, # of connection points: 2
#     Edge 45, Type (0, 1), BuildingBlock: ZUJKAS_clean_linker_0, # of connection points: 2
#     Edge 46, Type (0, 1), BuildingBlock: ZUJKAS_clean_linker_0, # of connection points: 2
#     Edge 47, Type (0, 1), BuildingBlock: ZUJKAS_clean_linker_0, # of connection points: 2
#     Edge 48, Type (0, 1), BuildingBlock: ZUJKAS_clean_linker_0, # of connection points: 2
#     Edge 49, Type (0, 1), BuildingBlock: ZUJKAS_clean_linker_0, # of connection points: 2
#     Edge 50, Type (0, 1), BuildingBlock: ZUJKAS_clean_linker_0, # of connection points: 2
#     Edge 51, Type (0, 1), BuildingBlock: ZUJKAS_clean_linker_0, # of connection points: 2
#     Edge 52, Type (0, 1), BuildingBlock: ZUJKAS_clean_linker_0, # of connection points: 2
#     Edge 53, Type (0, 1), BuildingBlock: ZUJKAS_clean_linker_0, # of connection points: 2
#     Edge 54, Type (0, 1), BuildingBlock: ZUJKAS_clean_linker_0, # of connection points: 2
#     Edge 55, Type (0, 1), BuildingBlock: ZUJKAS_clean_linker_0, # of connection points: 2
#     Edge 56, Type (0, 1), BuildingBlock: ZUJKAS_clean_linker_0, # of connection points: 2
#     Edge 57, Type (0, 1), BuildingBlock: ZUJKAS_clean_linker_0, # of connection points: 2
#     Edge 58, Type (0, 1), BuildingBlock: ZUJKAS_clean_linker_0, # of connection points: 2
#     Edge 59, Type (0, 1), BuildingBlock: ZUJKAS_clean_linker_0, # of connection points: 2
#     Edge 60, Type (0, 1), BuildingBlock: ZUJKAS_clean_linker_0, # of connection points: 2
#     Edge 61, Type (0, 1), BuildingBlock: ZUJKAS_clean_linker_0, # of connection points: 2
#     Edge 62, Type (0, 1), BuildingBlock: ZUJKAS_clean_linker_0, # of connection points: 2
#     Edge 63, Type (0, 1), BuildingBlock: ZUJKAS_clean_linker_0, # of connection points: 2
#     Edge 64, Type (0, 1), BuildingBlock: ZUJKAS_clean_linker_0, # of connection points: 2
#     Edge 65, Type (0, 1), BuildingBlock: ZUJKAS_clean_linker_0, # of connection points: 2
#     Edge 66, Type (0, 1), BuildingBlock: ZUJKAS_clean_linker_0, # of connection points: 2
#     Edge 67, Type (0, 1), BuildingBlock: ZUJKAS_clean_linker_0, # of connection points: 2
#     Edge 68, Type (0, 1), BuildingBlock: ZUJKAS_clean_linker_0, # of connection points: 2
#     Edge 69, Type (0, 1), BuildingBlock: ZUJKAS_clean_linker_0, # of connection points: 2
#     Edge 70, Type (0, 1), BuildingBlock: ZUJKAS_clean_linker_0, # of connection points: 2
#     Edge 71, Type (0, 1), BuildingBlock: ZUJKAS_clean_linker_0, # of connection points: 2
#     Edge 72, Type (0, 1), BuildingBlock: ZUJKAS_clean_linker_0, # of connection points: 2
#     Edge 73, Type (0, 1), BuildingBlock: ZUJKAS_clean_linker_0, # of connection points: 2
#     Edge 74, Type (0, 1), BuildingBlock: ZUJKAS_clean_linker_0, # of connection points: 2
#     Edge 75, Type (0, 1), BuildingBlock: ZUJKAS_clean_linker_0, # of connection points: 2
#     Edge 76, Type (0, 1), BuildingBlock: ZUJKAS_clean_linker_0, # of connection points: 2
#     Edge 77, Type (0, 1), BuildingBlock: ZUJKAS_clean_linker_0, # of connection points: 2
#     Edge 78, Type (0, 1), BuildingBlock: ZUJKAS_clean_linker_0, # of connection points: 2
#     Edge 79, Type (0, 1), BuildingBlock: ZUJKAS_clean_linker_0, # of connection points: 2
#     Edge 80, Type (0, 1), BuildingBlock: ZUJKAS_clean_linker_0, # of connection points: 2
# Relax obj value: 0.009
# Max RMSD: 0.092
# Mean RMSD: 0.060
data_MOF--net-eea--node1-KUMBUR_clean_sbu_0--node2-BELTOD_clean_linker_0--edge1-ZUJKAS_clean_linker_0
_symmetry_space_group_name_H-M    P1
_symmetry_Int_Tables_number       1
_symmetry_cell_setting            triclinic
loop_
_symmetry_equiv_pos_as_xyz
'x, y, z'
_cell_length_a     74.432949
_cell_length_b     75.504258
_cell_length_c     100.09547
_cell_angle_alpha  90.663514
_cell_angle_beta   90.283318
_cell_angle_gamma 120.06394
loop_
_atom_site_label
_atom_site_type_symbol
_atom_site_fract_x
_atom_site_fract_y
_atom_site_fract_z
_atom_type_partial_charge
P0 P 0.27976 0.14367 0.41559 0.0
H1 H 0.28752 0.12542 0.3921 0.0
H2 H 0.27017 0.09064 0.38278 0.0
H3 H 0.22548 0.07089 0.41461 0.0
H4 H 0.24311 0.10581 0.42394 0.0
H5 H 0.2874 0.17084 0.39323 0.0
H6 H 0.2688 0.18728 0.38444 0.0
H7 H 0.22266 0.15897 0.41508 0.0
H8 H 0.24142 0.14248 0.42383 0.0
H9 H 0.28559 0.11772 0.43439 0.0
H10 H 0.27882 0.17116 0.43626 0.0
O11 O 0.30411 0.15612 0.41011 0.0
H12 H 0.29091 0.11966 0.45854 0.0
H13 H 0.28339 0.17282 0.4605 0.0
C14 C 0.2669 0.11801 0.40888 0.0
C15 C 0.27406 0.11358 0.39711 0.0
C16 C 0.264 0.09374 0.39173 0.0
C17 C 0.2465 0.07799 0.39799 0.0
C18 C 0.23911 0.08262 0.40967 0.0
C19 C 0.24914 0.10254 0.415 0.0
C20 C 0.26608 0.15594 0.4094 0.0
C21 C 0.27335 0.16826 0.39811 0.0
C22 C 0.2626 0.17748 0.39302 0.0
C23 C 0.24432 0.17447 0.39911 0.0
C24 C 0.23686 0.16178 0.4103 0.0
C25 C 0.24755 0.15239 0.41531 0.0
C26 C 0.28114 0.14389 0.43356 0.0
C27 C 0.28469 0.12956 0.44005 0.0
C28 C 0.28769 0.13067 0.45389 0.0
C29 C 0.28741 0.1463 0.46152 0.0
C30 C 0.28381 0.16064 0.45495 0.0
C31 C 0.28092 0.15956 0.44108 0.0
P32 P 0.91048 0.10413 0.43776 0.0
H33 H 0.90363 0.06491 0.4274 0.0
H34 H 0.87549 0.03743 0.41441 0.0
H35 H 0.8449 0.07315 0.41181 0.0
H36 H 0.87305 0.10049 0.42515 0.0
H37 H 0.95362 0.11755 0.43125 0.0
H38 H 0.97891 0.14455 0.41721 0.0
H39 H 0.93322 0.16154 0.40666 0.0
H40 H 0.90803 0.13463 0.42113 0.0
H41 H 0.87242 0.08378 0.45311 0.0
H42 H 0.92591 0.14431 0.45087 0.0
O43 O 0.92248 0.09376 0.44592 0.0
H44 H 0.85977 0.09467 0.47212 0.0
H45 H 0.91316 0.15548 0.46982 0.0
C46 C 0.89022 0.08456 0.42743 0.0
C47 C 0.89088 0.06685 0.42404 0.0
C48 C 0.87483 0.05119 0.41649 0.0
C49 C 0.85786 0.05302 0.41209 0.0
C50 C 0.85756 0.0711 0.41521 0.0
C51 C 0.87368 0.08679 0.42277 0.0
C52 C 0.92899 0.12419 0.42731 0.0
C53 C 0.94901 0.12709 0.42596 0.0
C54 C 0.96344 0.14245 0.4178 0.0
C55 C 0.95811 0.1552 0.41073 0.0
C56 C 0.93792 0.15215 0.41206 0.0
C57 C 0.92347 0.13673 0.42027 0.0
C58 C 0.89981 0.11337 0.45032 0.0
C59 C 0.88116 0.09959 0.45648 0.0
C60 C 0.87394 0.10586 0.46737 0.0
C61 C 0.88538 0.126 0.47247 0.0
C62 C 0.90402 0.13984 0.46619 0.0
C63 C 0.91121 0.13353 0.45526 0.0
P64 P 0.87588 0.75261 0.42088 0.0
H65 H 0.85508 0.74544 0.39507 0.0
H66 H 0.83312 0.75745 0.38517 0.0
H67 H 0.84431 0.79673 0.41965 0.0
H68 H 0.86648 0.78467 0.42948 0.0
H69 H 0.905 0.73778 0.42169 0.0
H70 H 0.93965 0.75039 0.4127 0.0
H71 H 0.93949 0.80398 0.39816 0.0
H72 H 0.9048 0.79135 0.40749 0.0
H73 H 0.84061 0.73815 0.43854 0.0
H74 H 0.90701 0.76587 0.44286 0.0
O75 O 0.86366 0.72803 0.41608 0.0
H76 H 0.83675 0.73229 0.46256 0.0
H77 H 0.90332 0.76026 0.46692 0.0
C78 C 0.86204 0.76383 0.41313 0.0
C79 C 0.85293 0.75674 0.40047 0.0
C80 C 0.8403 0.76356 0.39485 0.0
C81 C 0.83667 0.77781 0.40171 0.0
C82 C 0.84678 0.78575 0.4141 0.0
C83 C 0.85938 0.77881 0.41977 0.0
C84 C 0.90222 0.76349 0.41513 0.0
C85 C 0.91246 0.75231 0.41664 0.0
C86 C 0.93225 0.75949 0.41141 0.0
C87 C 0.94228 0.77807 0.40452 0.0
C88 C 0.93225 0.78965 0.40344 0.0
C89 C 0.91237 0.7824 0.40871 0.0
C90 C 0.87406 0.75248 0.43888 0.0
C91 C 0.85441 0.74342 0.44471 0.0
C92 C 0.85224 0.74011 0.45848 0.0
C93 C 0.86972 0.74568 0.46671 0.0
C94 C 0.8895 0.7555 0.46087 0.0
C95 C 0.89165 0.75885 0.44708 0.0
P96 P 0.12512 0.25132 0.59487 0.0
H97 H 0.11063 0.24328 0.6222 0.0
H98 H 0.07635 0.22934 0.63214 0.0
H99 H 0.04856 0.21707 0.59263 0.0
H100 H 0.0828 0.23029 0.58282 0.0
H101 H 0.16982 0.26908 0.59653 0.0
H102 H 0.19232 0.25684 0.60512 0.0
H103 H 0.13835 0.19871 0.61412 0.0
H104 H 0.11586 0.21124 0.60557 0.0
H105 H 0.11029 0.27141 0.57693 0.0
H106 H 0.14087 0.23594 0.57317 0.0
O107 O 0.13599 0.27525 0.60086 0.0
H108 H 0.11389 0.27783 0.55293 0.0
H109 H 0.14462 0.24238 0.54916 0.0
C110 C 0.09934 0.23791 0.60178 0.0
C111 C 0.0971 0.23724 0.61568 0.0
C112 C 0.07748 0.22945 0.62136 0.0
C113 C 0.05962 0.22229 0.61322 0.0
C114 C 0.06188 0.22228 0.59924 0.0
C115 C 0.08155 0.23 0.59359 0.0
C116 C 0.14119 0.24121 0.60061 0.0
C117 C 0.16282 0.25368 0.60033 0.0
C118 C 0.17568 0.24659 0.60517 0.0
C119 C 0.16717 0.22679 0.61037 0.0
C120 C 0.14541 0.21414 0.61037 0.0
C121 C 0.13253 0.22126 0.60545 0.0
C122 C 0.12531 0.25322 0.57687 0.0
C123 C 0.1175 0.26474 0.5709 0.0
C124 C 0.11953 0.26836 0.55716 0.0
C125 C 0.12964 0.2607 0.54912 0.0
C126 C 0.13697 0.24869 0.55509 0.0
C127 C 0.13474 0.24491 0.56884 0.0
P128 P 0.80713 0.90452 0.57274 0.0
H129 H 0.83949 0.94264 0.58489 0.0
H130 H 0.83851 0.96926 0.59832 0.0
H131 H 0.77142 0.93541 0.59649 0.0
H132 H 0.77261 0.90896 0.58272 0.0
H133 H 0.8009 0.86434 0.56569 0.0
H134 H 0.79853 0.83634 0.57904 0.0
H135 H 0.80161 0.86972 0.61516 0.0
H136 H 0.80428 0.89772 0.60177 0.0
H137 H 0.80992 0.92317 0.5471 0.0
H138 H 0.76442 0.8704 0.56828 0.0
O139 O 0.83091 0.91416 0.56648 0.0
H140 H 0.78619 0.91366 0.52801 0.0
H141 H 0.74073 0.86035 0.54902 0.0
C142 C 0.80613 0.92406 0.58261 0.0
C143 C 0.82457 0.94099 0.5873 0.0
C144 C 0.82397 0.95612 0.59511 0.0
C145 C 0.80488 0.95448 0.5985 0.0
C146 C 0.78638 0.93728 0.59391 0.0
C147 C 0.78702 0.92214 0.58607 0.0
C148 C 0.80249 0.88298 0.58271 0.0
C149 C 0.8007 0.86545 0.57648 0.0
C150 C 0.79928 0.84944 0.58413 0.0
C151 C 0.79988 0.8508 0.59817 0.0
C152 C 0.80129 0.86828 0.60437 0.0
C153 C 0.80266 0.88426 0.5967 0.0
C154 C 0.78913 0.89721 0.55893 0.0
C155 C 0.79487 0.9094 0.54757 0.0
C156 C 0.7813 0.90388 0.53663 0.0
C157 C 0.76166 0.88605 0.53688 0.0
C158 C 0.75572 0.87418 0.54849 0.0
C159 C 0.76932 0.8798 0.55947 0.0
P160 P 0.12483 0.86356 0.59546 0.0
H161 H 0.14808 0.88045 0.62034 0.0
H162 H 0.16803 0.91527 0.62943 0.0
H163 H 0.15053 0.9378 0.59513 0.0
H164 H 0.13081 0.90285 0.58602 0.0
H165 H 0.09509 0.82005 0.59679 0.0
H166 H 0.06031 0.80056 0.60608 0.0
H167 H 0.06176 0.85703 0.61629 0.0
H168 H 0.09665 0.87645 0.60701 0.0
H169 H 0.15968 0.88513 0.57776 0.0
H170 H 0.09401 0.84256 0.57364 0.0
O171 O 0.13696 0.8514 0.60084 0.0
H172 H 0.16358 0.88379 0.55364 0.0
H173 H 0.09777 0.84121 0.54945 0.0
C174 C 0.13841 0.88917 0.60237 0.0
C175 C 0.14854 0.89289 0.61478 0.0
C176 C 0.15981 0.9128 0.62001 0.0
C177 C 0.16101 0.92936 0.61296 0.0
C178 C 0.15023 0.92544 0.6007 0.0
C179 C 0.13892 0.90548 0.59549 0.0
C180 C 0.09853 0.84967 0.60134 0.0
C181 C 0.08786 0.82823 0.60095 0.0
C182 C 0.06793 0.81711 0.6062 0.0
C183 C 0.0583 0.82725 0.61198 0.0
C184 C 0.06888 0.84879 0.61207 0.0
C185 C 0.0888 0.85991 0.60672 0.0
C186 C 0.12656 0.86412 0.5775 0.0
C187 C 0.14602 0.87577 0.57163 0.0
C188 C 0.14821 0.87503 0.55781 0.0
C189 C 0.13097 0.86242 0.54959 0.0
C190 C 0.11138 0.85096 0.55551 0.0
C191 C 0.1092 0.8518 0.56936 0.0
P192 P 0.94508 0.47586 0.74926 0.0
H193 H 0.91788 0.45672 0.726 0.0
H194 H 0.89975 0.4217 0.71719 0.0
H195 H 0.92328 0.40273 0.75036 0.0
H196 H 0.94055 0.43758 0.75938 0.0
H197 H 0.96116 0.51778 0.74059 0.0
H198 H 0.94441 0.53696 0.73373 0.0
H199 H 0.88447 0.48498 0.74266 0.0
H200 H 0.90143 0.46572 0.74933 0.0
H201 H 0.98141 0.48276 0.76472 0.0
H202 H 0.91964 0.47127 0.77273 0.0
O203 O 0.96764 0.48617 0.74125 0.0
H204 H 0.98842 0.48405 0.78863 0.0
H205 H 0.92645 0.47226 0.79679 0.0
C206 C 0.93004 0.44966 0.74356 0.0
C207 C 0.9187 0.44491 0.73155 0.0
C208 C 0.90855 0.4249 0.72643 0.0
C209 C 0.90999 0.40931 0.73306 0.0
C210 C 0.92143 0.41419 0.74512 0.0
C211 C 0.9314 0.43419 0.75029 0.0
C212 C 0.9325 0.49021 0.74519 0.0
C213 C 0.94441 0.51051 0.7411 0.0
C214 C 0.93481 0.52152 0.73727 0.0
C215 C 0.91307 0.51246 0.73757 0.0
C216 C 0.90121 0.49227 0.74211 0.0
C217 C 0.91088 0.48129 0.74597 0.0
C218 C 0.95014 0.4773 0.76696 0.0
C219 C 0.96937 0.48061 0.77163 0.0
C220 C 0.97329 0.48114 0.78532 0.0
C221 C 0.95798 0.47824 0.79463 0.0
C222 C 0.93865 0.47481 0.78989 0.0
C223 C 0.93472 0.47422 0.77615 0.0
P224 P 0.58068 0.43482 0.77093 0.0
H225 H 0.57633 0.39961 0.75592 0.0
H226 H 0.54779 0.37251 0.74287 0.0
H227 H 0.51129 0.40173 0.74957 0.0
H228 H 0.54024 0.42913 0.76232 0.0
H229 H 0.62489 0.45096 0.76633 0.0
H230 H 0.65038 0.47893 0.75299 0.0
H231 H 0.60324 0.49282 0.74035 0.0
H232 H 0.57753 0.46425 0.75359 0.0
H233 H 0.54592 0.41257 0.78867 0.0
H234 H 0.59349 0.47537 0.78304 0.0
O235 O 0.59243 0.42349 0.77821 0.0
H236 H 0.53337 0.42282 0.8081 0.0
H237 H 0.5812 0.48573 0.80261 0.0
C238 C 0.56016 0.41605 0.76037 0.0
C239 C 0.56221 0.40022 0.75453 0.0
C240 C 0.54583 0.38468 0.74713 0.0
C241 C 0.52708 0.38472 0.74537 0.0
C242 C 0.5255 0.40122 0.75071 0.0
C243 C 0.54197 0.41682 0.75809 0.0
C244 C 0.59932 0.45557 0.76097 0.0
C245 C 0.61997 0.45996 0.76069 0.0
C246 C 0.63461 0.4761 0.7531 0.0
C247 C 0.62893 0.48826 0.74565 0.0
C248 C 0.60811 0.48366 0.74586 0.0
C249 C 0.59342 0.46743 0.75347 0.0
C250 C 0.57034 0.44323 0.78423 0.0
C251 C 0.55348 0.42862 0.79151 0.0
C252 C 0.54646 0.43448 0.8027 0.0
C253 C 0.55632 0.45509 0.80694 0.0
C254 C 0.57309 0.46977 0.79951 0.0
C255 C 0.58014 0.46386 0.7883 0.0
P256 P 0.54353 0.08683 0.75475 0.0
H257 H 0.52279 0.08096 0.729 0.0
H258 H 0.50028 0.0929 0.71991 0.0
H259 H 0.51013 0.12929 0.75573 0.0
H260 H 0.53289 0.11735 0.76472 0.0
H261 H 0.57592 0.07666 0.75867 0.0
H262 H 0.61079 0.09042 0.74977 0.0
H263 H 0.60491 0.13801 0.73019 0.0
H264 H 0.56982 0.12393 0.73906 0.0
H265 H 0.507 0.0659 0.77113 0.0
H266 H 0.57306 0.1029 0.77779 0.0
O267 O 0.53261 0.06286 0.74882 0.0
H268 H 0.50192 0.05912 0.79499 0.0
H269 H 0.56811 0.09627 0.80176 0.0
C270 C 0.52915 0.09793 0.74764 0.0
C271 C 0.52022 0.0916 0.73487 0.0
C272 C 0.50726 0.09837 0.72971 0.0
C273 C 0.50311 0.11178 0.73718 0.0
C274 C 0.51299 0.11896 0.74972 0.0
C275 C 0.52593 0.11208 0.75489 0.0
C276 C 0.5703 0.0993 0.74961 0.0
C277 C 0.58227 0.09026 0.75264 0.0
C278 C 0.60227 0.0982 0.74756 0.0
C279 C 0.61072 0.11535 0.73923 0.0
C280 C 0.59881 0.12467 0.73645 0.0
C281 C 0.57877 0.11672 0.7416 0.0
C282 C 0.54038 0.08474 0.77264 0.0
C283 C 0.5204 0.07281 0.77777 0.0
C284 C 0.51752 0.06903 0.79145 0.0
C285 C 0.53462 0.07707 0.80033 0.0
C286 C 0.55463 0.0896 0.79519 0.0
C287 C 0.55748 0.09346 0.78147 0.0
P288 P 0.7923 0.5842 0.92862 0.0
H289 H 0.77704 0.58638 0.9549 0.0
H290 H 0.7424 0.57327 0.96396 0.0
H291 H 0.71551 0.54338 0.92608 0.0
H292 H 0.75044 0.55688 0.91701 0.0
H293 H 0.8273 0.58279 0.91662 0.0
H294 H 0.84879 0.56878 0.92423 0.0
H295 H 0.80829 0.54171 0.95782 0.0
H296 H 0.78682 0.55574 0.95013 0.0
H297 H 0.80092 0.62048 0.91363 0.0
H298 H 0.78446 0.55814 0.90461 0.0
O299 O 0.80633 0.60693 0.93626 0.0
H300 H 0.80452 0.62812 0.88987 0.0
H301 H 0.78805 0.56572 0.88063 0.0
C302 C 0.76637 0.57287 0.93523 0.0
C303 C 0.76371 0.57695 0.94854 0.0
C304 C 0.74383 0.56928 0.95375 0.0
C305 C 0.72609 0.55728 0.94576 0.0
C306 C 0.72882 0.5528 0.93247 0.0
C307 C 0.7488 0.56044 0.92727 0.0
C308 C 0.8051 0.56994 0.9326 0.0
C309 C 0.82263 0.5733 0.92538 0.0
C310 C 0.83497 0.56531 0.92978 0.0
C311 C 0.83029 0.55415 0.94165 0.0
C312 C 0.81241 0.55037 0.94868 0.0
C313 C 0.79999 0.55824 0.94422 0.0
C314 C 0.79281 0.58884 0.91091 0.0
C315 C 0.79803 0.60839 0.90653 0.0
C316 C 0.80017 0.61277 0.89292 0.0
C317 C 0.79688 0.59761 0.88336 0.0
C318 C 0.7907 0.57773 0.88774 0.0
C319 C 0.78871 0.57339 0.90143 0.0
P320 P 0.47857 0.2403 0.90699 0.0
H321 H 0.48517 0.2501 0.9356 0.0
H322 H 0.48216 0.27529 0.94951 0.0
H323 H 0.45959 0.29311 0.91531 0.0
H324 H 0.46257 0.26787 0.90148 0.0
H325 H 0.50951 0.22855 0.91345 0.0
H326 H 0.50808 0.20083 0.92652 0.0
H327 H 0.44326 0.17854 0.93444 0.0
H328 H 0.44478 0.20637 0.92121 0.0
H329 H 0.48432 0.23442 0.87883 0.0
H330 H 0.4336 0.22392 0.90444 0.0
O331 O 0.50257 0.25458 0.90119 0.0
H332 H 0.46081 0.22252 0.85953 0.0
H333 H 0.40992 0.21218 0.88508 0.0
C334 C 0.47354 0.2567 0.91758 0.0
C335 C 0.47913 0.2591 0.93116 0.0
C336 C 0.47758 0.27363 0.93908 0.0
C337 C 0.47055 0.28613 0.93352 0.0
C338 C 0.46468 0.28346 0.91994 0.0
C339 C 0.46637 0.26901 0.91202 0.0
C340 C 0.47721 0.21943 0.9163 0.0
C341 C 0.49496 0.21769 0.91795 0.0
C342 C 0.49416 0.2019 0.92551 0.0
C343 C 0.47558 0.18754 0.93156 0.0
C344 C 0.45775 0.18926 0.9298 0.0
C345 C 0.4586 0.20515 0.92226 0.0
C346 C 0.46077 0.23043 0.893 0.0
C347 C 0.46811 0.2296 0.88029 0.0
C348 C 0.45466 0.22285 0.86925 0.0
C349 C 0.43354 0.21666 0.87074 0.0
C350 C 0.42608 0.21679 0.88361 0.0
C351 C 0.4396 0.22358 0.89466 0.0
P352 P 0.79292 0.19502 0.93022 0.0
H353 H 0.81233 0.21297 0.95591 0.0
H354 H 0.83165 0.24818 0.96436 0.0
H355 H 0.82058 0.26941 0.92697 0.0
H356 H 0.80156 0.23404 0.9185 0.0
H357 H 0.76269 0.15164 0.93041 0.0
H358 H 0.72759 0.13205 0.93914 0.0
H359 H 0.72898 0.18844 0.94959 0.0
H360 H 0.7643 0.20792 0.94103 0.0
H361 H 0.82926 0.20684 0.91413 0.0
H362 H 0.76376 0.18242 0.90716 0.0
O363 O 0.80462 0.18332 0.93706 0.0
H364 H 0.83443 0.20507 0.8902 0.0
H365 H 0.76872 0.1802 0.88313 0.0
C366 C 0.80595 0.22099 0.9365 0.0
C367 C 0.81407 0.22522 0.94954 0.0
C368 C 0.82496 0.24536 0.95439 0.0
C369 C 0.82779 0.26167 0.94632 0.0
C370 C 0.81901 0.25725 0.93336 0.0
C371 C 0.80808 0.23705 0.92852 0.0
C372 C 0.76617 0.18118 0.93521 0.0
C373 C 0.75535 0.15977 0.93448 0.0
C374 C 0.73522 0.1486 0.93942 0.0
C375 C 0.72546 0.15866 0.94515 0.0
C376 C 0.73615 0.18021 0.94545 0.0
C377 C 0.75633 0.19138 0.94048 0.0
C378 C 0.79612 0.19451 0.91242 0.0
C379 C 0.81597 0.20105 0.90742 0.0
C380 C 0.81888 0.19993 0.89374 0.0
C381 C 0.80195 0.19223 0.88475 0.0
C382 C 0.7821 0.18625 0.88977 0.0
C383 C 0.77921 0.18739 0.90352 0.0
P384 P 0.61249 0.80841 0.08316 0.0
H385 H 0.58825 0.79069 0.05868 0.0
H386 H 0.56981 0.75593 0.04946 0.0
H387 H 0.58689 0.73437 0.08446 0.0
H388 H 0.60433 0.76891 0.09386 0.0
H389 H 0.62922 0.85045 0.07438 0.0
H390 H 0.6129 0.86973 0.06685 0.0
H391 H 0.55247 0.8179 0.07502 0.0
H392 H 0.56901 0.79856 0.08235 0.0
H393 H 0.64269 0.8039 0.09902 0.0
H394 H 0.59206 0.81495 0.1064 0.0
O395 O 0.63541 0.81858 0.0756 0.0
H396 H 0.6492 0.80493 0.12306 0.0
H397 H 0.59864 0.81619 0.1305 0.0
C398 C 0.59728 0.78239 0.0771 0.0
C399 C 0.58762 0.7784 0.0645 0.0
C400 C 0.57728 0.75851 0.05916 0.0
C401 C 0.57682 0.74226 0.06619 0.0
C402 C 0.58652 0.74637 0.07886 0.0
C403 C 0.59666 0.76624 0.08424 0.0
C404 C 0.60029 0.82296 0.07865 0.0
C405 C 0.61247 0.84324 0.07458 0.0
C406 C 0.6031 0.8543 0.07037 0.0
C407 C 0.58135 0.84531 0.07025 0.0
C408 C 0.56923 0.82515 0.07477 0.0
C409 C 0.57865 0.81411 0.079 0.0
C410 C 0.61709 0.80961 0.10091 0.0
C411 C 0.63304 0.80665 0.10582 0.0
C412 C 0.63664 0.80709 0.11955 0.0
C413 C 0.62442 0.81064 0.12864 0.0
C414 C 0.60841 0.8136 0.1237 0.0
C415 C 0.60464 0.81288 0.10993 0.0
P416 P 0.24598 0.76732 0.10461 0.0
H417 H 0.24083 0.73267 0.08857 0.0
H418 H 0.21178 0.70612 0.07567 0.0
H419 H 0.17595 0.73558 0.08418 0.0
H420 H 0.20508 0.76184 0.09747 0.0
H421 H 0.29062 0.79383 0.1076 0.0
H422 H 0.31657 0.82204 0.09448 0.0
H423 H 0.26826 0.8166 0.06773 0.0
H424 H 0.24226 0.78839 0.08104 0.0
H425 H 0.22321 0.7454 0.12791 0.0
H426 H 0.24669 0.80574 0.11193 0.0
O427 O 0.25815 0.75568 0.11084 0.0
H428 H 0.21069 0.75521 0.14756 0.0
H429 H 0.23445 0.81583 0.13172 0.0
C430 C 0.22493 0.74894 0.09419 0.0
C431 C 0.22674 0.73343 0.08765 0.0
C432 C 0.21012 0.71834 0.08015 0.0
C433 C 0.19141 0.7186 0.0789 0.0
C434 C 0.18997 0.73467 0.08512 0.0
C435 C 0.20663 0.74975 0.09267 0.0
C436 C 0.2646 0.78875 0.09512 0.0
C437 C 0.2856 0.79867 0.0989 0.0
C438 C 0.30043 0.81475 0.09135 0.0
C439 C 0.29452 0.82137 0.07994 0.0
C440 C 0.27331 0.81185 0.07646 0.0
C441 C 0.25845 0.79566 0.08401 0.0
C442 C 0.23614 0.77492 0.11859 0.0
C443 C 0.22571 0.7608 0.12867 0.0
C444 C 0.21866 0.76647 0.13993 0.0
C445 C 0.22181 0.78639 0.1413 0.0
C446 C 0.23174 0.80035 0.13095 0.0
C447 C 0.23885 0.79465 0.11967 0.0
P448 P 0.20754 0.41675 0.08725 0.0
H449 H 0.18233 0.40597 0.06302 0.0
H450 H 0.16072 0.41836 0.05318 0.0
H451 H 0.18053 0.46468 0.08433 0.0
H452 H 0.20248 0.45226 0.09408 0.0
H453 H 0.23211 0.39797 0.07999 0.0
H454 H 0.26638 0.41114 0.07036 0.0
H455 H 0.27452 0.47196 0.07029 0.0
H456 H 0.23997 0.45855 0.08013 0.0
H457 H 0.1769 0.41408 0.10653 0.0
H458 H 0.23768 0.42021 0.10765 0.0
O459 O 0.19453 0.39182 0.08335 0.0
H460 H 0.17411 0.40916 0.13068 0.0
H461 H 0.23498 0.41529 0.1318 0.0
C462 C 0.19357 0.42783 0.07949 0.0
C463 C 0.18211 0.41884 0.06773 0.0
C464 C 0.16968 0.4259 0.06213 0.0
C465 C 0.16856 0.44227 0.06811 0.0
C466 C 0.181 0.45202 0.0795 0.0
C467 C 0.19345 0.44487 0.08512 0.0
C468 C 0.23329 0.4272 0.08051 0.0
C469 C 0.24117 0.41413 0.07785 0.0
C470 C 0.2608 0.42168 0.07229 0.0
C471 C 0.27311 0.44256 0.06935 0.0
C472 C 0.26544 0.4558 0.07243 0.0
C473 C 0.24567 0.44815 0.07798 0.0
C474 C 0.20773 0.41809 0.10528 0.0
C475 C 0.18995 0.41507 0.11202 0.0
C476 C 0.18834 0.41217 0.12585 0.0
C477 C 0.20431 0.4118 0.13319 0.0
C478 C 0.22234 0.41535 0.12644 0.0
C479 C 0.22399 0.41839 0.11262 0.0
P480 P 0.45906 0.91825 0.26225 0.0
H481 H 0.44375 0.9072 0.28929 0.0
H482 H 0.4093 0.89332 0.29901 0.0
H483 H 0.38287 0.88686 0.25948 0.0
H484 H 0.41724 0.90015 0.24985 0.0
H485 H 0.50361 0.935 0.26224 0.0
H486 H 0.52621 0.92249 0.27019 0.0
H487 H 0.47233 0.86533 0.28095 0.0
H488 H 0.44977 0.87814 0.27305 0.0
H489 H 0.4508 0.9447 0.24559 0.0
H490 H 0.46809 0.89862 0.23953 0.0
O491 O 0.47009 0.94172 0.26903 0.0
H492 H 0.45428 0.95177 0.22173 0.0
H493 H 0.47136 0.90539 0.21552 0.0
C494 C 0.43311 0.90462 0.26885 0.0
C495 C 0.43046 0.90239 0.28271 0.0
C496 C 0.41075 0.89465 0.28826 0.0
C497 C 0.39325 0.88913 0.28006 0.0
C498 C 0.3959 0.89074 0.26611 0.0
C499 C 0.41564 0.89844 0.26057 0.0
C500 C 0.47504 0.90765 0.26724 0.0
C501 C 0.49665 0.91973 0.26626 0.0
C502 C 0.50956 0.91249 0.27074 0.0
C503 C 0.50113 0.8929 0.27628 0.0
C504 C 0.47936 0.88059 0.27694 0.0
C505 C 0.46643 0.88787 0.27238 0.0
C506 C 0.45947 0.92136 0.24437 0.0
C507 C 0.45514 0.93594 0.23908 0.0
C508 C 0.45701 0.93987 0.22539 0.0
C509 C 0.46322 0.92924 0.21666 0.0
C510 C 0.46687 0.91409 0.22197 0.0
C511 C 0.46491 0.91013 0.2357 0.0
P512 P 0.14169 0.57237 0.2404 0.0
H513 H 0.17328 0.60851 0.25473 0.0
H514 H 0.17174 0.63438 0.2687 0.0
H515 H 0.10482 0.60152 0.26473 0.0
H516 H 0.10661 0.57591 0.25045 0.0
H517 H 0.1612 0.54753 0.23698 0.0
H518 H 0.16012 0.51976 0.24982 0.0
H519 H 0.11687 0.52284 0.27708 0.0
H520 H 0.1183 0.55092 0.26424 0.0
H521 H 0.12926 0.59443 0.22259 0.0
H522 H 0.11139 0.53147 0.22957 0.0
O523 O 0.16463 0.58421 0.23285 0.0
H524 H 0.10472 0.58369 0.20383 0.0
H525 H 0.0871 0.52063 0.21065 0.0
C526 C 0.14011 0.59059 0.25133 0.0
C527 C 0.15828 0.60688 0.25686 0.0
C528 C 0.15734 0.62157 0.26496 0.0
C529 C 0.13814 0.62009 0.2678 0.0
C530 C 0.11987 0.60331 0.26256 0.0
C531 C 0.12086 0.58863 0.25443 0.0
C532 C 0.14019 0.55156 0.24983 0.0
C533 C 0.15154 0.54228 0.24574 0.0
C534 C 0.15076 0.52627 0.25304 0.0
C535 C 0.13846 0.51913 0.26451 0.0
C536 C 0.12674 0.52821 0.26841 0.0
C537 C 0.1275 0.54422 0.26107 0.0
C538 C 0.12201 0.56376 0.22754 0.0
C539 C 0.1199 0.57827 0.22015 0.0
C540 C 0.10599 0.57212 0.20937 0.0
C541 C 0.09403 0.55131 0.2057 0.0
C542 C 0.09591 0.53675 0.21331 0.0
C543 C 0.10987 0.54294 0.22411 0.0
P544 P 0.45903 0.52893 0.26281 0.0
H545 H 0.48219 0.54629 0.28761 0.0
H546 H 0.50172 0.58121 0.29656 0.0
H547 H 0.4828 0.60281 0.26245 0.0
H548 H 0.46342 0.56773 0.2535 0.0
H549 H 0.43552 0.48717 0.2725 0.0
H550 H 0.40132 0.46752 0.28242 0.0
H551 H 0.39133 0.51876 0.27758 0.0
H552 H 0.4257 0.53834 0.26747 0.0
H553 H 0.49201 0.55211 0.24414 0.0
H554 H 0.42729 0.50573 0.24193 0.0
O555 O 0.4727 0.51799 0.26755 0.0
H556 H 0.4944 0.55061 0.21992 0.0
H557 H 0.42944 0.50435 0.21756 0.0
C558 C 0.47181 0.55453 0.26975 0.0
C559 C 0.4822 0.55853 0.28208 0.0
C560 C 0.49323 0.5785 0.28724 0.0
C561 C 0.49397 0.59485 0.28017 0.0
C562 C 0.48284 0.59062 0.26802 0.0
C563 C 0.47173 0.57058 0.2629 0.0
C564 C 0.43329 0.51434 0.26948 0.0
C565 C 0.42603 0.49423 0.27359 0.0
C566 C 0.40648 0.48303 0.27933 0.0
C567 C 0.3937 0.49167 0.28099 0.0
C568 C 0.40079 0.51166 0.27645 0.0
C569 C 0.42044 0.5229 0.27073 0.0
C570 C 0.45942 0.5293 0.24482 0.0
C571 C 0.47818 0.54191 0.23839 0.0
C572 C 0.4795 0.54107 0.22451 0.0
C573 C 0.46208 0.52742 0.21675 0.0
C574 C 0.44318 0.51493 0.22324 0.0
C575 C 0.44189 0.51583 0.23717 0.0
Tb576 Tb 0.48898 0.98616 0.99238 0.0
C577 C 0.53492 0.06316 0.02803 0.0
C578 C 0.57112 0.07292 0.02676 0.0
C579 C 0.56152 0.09898 0.03035 0.0
C580 C 0.54992 0.05784 0.02622 0.0
C581 C 0.54047 0.08372 0.0304 0.0
C582 C 0.57684 0.09358 0.02852 0.0
C583 C 0.50416 0.0723 0.03371 0.0
N584 N 0.51483 0.04793 0.02809 0.0
C585 C 0.49948 0.05211 0.03138 0.0
C586 C 0.52473 0.08822 0.03307 0.0
Tb587 Tb 0.50849 0.01544 0.0235 0.0
N588 N 0.54368 0.0377 0.02466 0.0
C589 C 0.55809 0.0315 0.02461 0.0
C590 C 0.5859 0.06671 0.02587 0.0
C591 C 0.57934 0.04587 0.025 0.0
H592 H 0.48352 0.03996 0.0318 0.0
H593 H 0.59063 0.04086 0.02457 0.0
H594 H 0.59305 0.10542 0.02883 0.0
H595 H 0.49191 0.07556 0.03599 0.0
H596 H 0.55343 0.01553 0.02382 0.0
H597 H 0.4073 0.96253 0.99099 0.0
H598 H 0.60236 0.0778 0.02618 0.0
H599 H 0.513 0.96101 0.98349 0.0
H600 H 0.44461 0.98712 0.99246 0.0
H601 H 0.50387 0.92531 0.97875 0.0
H602 H 0.56612 0.11491 0.03203 0.0
H603 H 0.39479 0.92553 0.98851 0.0
H604 H 0.40325 0.89732 0.98585 0.0
H605 H 0.52832 0.10383 0.03492 0.0
H606 H 0.42962 0.88711 0.98263 0.0
N607 N 0.45368 0.96444 0.99131 0.0
C608 C 0.43963 0.9711 0.99144 0.0
C609 C 0.4113 0.93627 0.98929 0.0
C610 C 0.42572 0.92958 0.98856 0.0
C611 C 0.41831 0.95714 0.99062 0.0
C612 C 0.44703 0.94426 0.98949 0.0
H613 H 0.46723 0.89751 0.97972 0.0
N614 N 0.48191 0.9535 0.98755 0.0
C615 C 0.49185 0.92881 0.98127 0.0
C616 C 0.46172 0.93855 0.98757 0.0
C617 C 0.49695 0.94904 0.98393 0.0
C618 C 0.47117 0.91315 0.98188 0.0
C619 C 0.45574 0.91797 0.98481 0.0
O620 O 0.50356 0.99052 0.97375 0.0
O621 O 0.51409 0.01167 1.00288 0.0
O622 O 0.50553 0.03519 0.00899 0.0
O623 O 0.48082 0.01048 0.99448 0.0
O624 O 0.52196 0.99658 0.98929 0.0
O625 O 0.4777 0.99545 0.97619 0.0
O626 O 0.49403 0.01116 0.04217 0.0
O627 O 0.48355 0.98979 0.01302 0.0
O628 O 0.49295 0.96659 0.00664 0.0
O629 O 0.51707 0.99148 0.02141 0.0
O630 O 0.47533 0.00458 0.0265 0.0
O631 O 0.52013 0.00658 0.03973 0.0
C632 C 0.52944 0.01182 0.99754 0.0
C633 C 0.48232 0.98494 0.95481 0.0
C634 C 0.48224 0.98659 0.9304 0.0
C635 C 0.49004 0.99604 0.94298 0.0
C636 C 0.4665 0.96588 0.9299 0.0
C637 C 0.46665 0.96434 0.95404 0.0
C638 C 0.4588 0.95489 0.94164 0.0
C639 C 0.49136 0.02949 0.99936 0.0
C640 C 0.49083 0.99506 0.96782 0.0
C641 C 0.43456 0.90305 0.98461 0.0
C642 C 0.41955 0.90886 0.98644 0.0
C643 C 0.46802 0.98931 0.01828 0.0
C644 C 0.51557 0.01734 0.06106 0.0
C645 C 0.50809 0.00646 0.07299 0.0
C646 C 0.51598 0.01621 0.0855 0.0
C647 C 0.53157 0.03699 0.08579 0.0
C648 C 0.53108 0.038 0.06164 0.0
C649 C 0.53902 0.04774 0.07395 0.0
C650 C 0.50718 0.97258 0.0163 0.0
C651 C 0.50699 0.00693 0.04812 0.0
H652 H 0.50229 0.01192 0.9436 0.0
H653 H 0.4599 0.95821 0.92043 0.0
H654 H 0.46046 0.95559 0.96299 0.0
H655 H 0.44665 0.93899 0.94113 0.0
H656 H 0.49596 0.99052 0.07253 0.0
H657 H 0.53824 0.04489 0.09519 0.0
H658 H 0.53708 0.04659 0.05261 0.0
H659 H 0.55105 0.06369 0.07432 0.0
Tb660 Tb 0.01567 0.5037 0.99234 0.0
C661 C 0.93496 0.47526 0.02356 0.0
C662 C 0.9268 0.50238 0.02196 0.0
C663 C 0.8991 0.46733 0.02506 0.0
C664 C 0.94133 0.4956 0.02168 0.0
C665 C 0.91382 0.46089 0.02548 0.0
C666 C 0.9056 0.48808 0.02339 0.0
C667 C 0.92368 0.43543 0.02959 0.0
N668 N 0.94973 0.46984 0.02437 0.0
C669 C 0.94449 0.45035 0.02786 0.0
C670 C 0.90824 0.44066 0.02826 0.0
Tb671 Tb 0.9834 0.49528 0.02138 0.0
N672 N 0.96196 0.50894 0.02062 0.0
C673 C 0.96916 0.52954 0.02044 0.0
C674 C 0.93408 0.52339 0.02128 0.0
C675 C 0.95536 0.53702 0.02058 0.0
H676 H 0.95628 0.44613 0.02892 0.0
H677 H 0.96118 0.55333 0.02021 0.0
H678 H 0.89417 0.49296 0.02352 0.0
H679 H 0.91958 0.41992 0.032 0.0
H680 H 0.98554 0.54041 0.01999 0.0
H681 H 0.03885 0.44639 0.99561 0.0
H682 H 0.92344 0.52925 0.02152 0.0
H683 H 0.04266 0.55227 0.98349 0.0
H684 H 0.0141 0.45876 0.99373 0.0
H685 H 0.07944 0.57873 0.98094 0.0
H686 H 0.88276 0.45651 0.02644 0.0
H687 H 0.07661 0.47099 0.99633 0.0
H688 H 0.1057 0.50747 0.9947 0.0
H689 H 0.89216 0.42913 0.02975 0.0
H690 H 0.11682 0.54362 0.99055 0.0
N691 N 0.0374 0.49035 0.99369 0.0
C692 C 0.03046 0.4698 0.99395 0.0
C693 C 0.06579 0.47657 0.99549 0.0
C694 C 0.07284 0.49748 0.99437 0.0
C695 C 0.0445 0.46265 0.99504 0.0
C696 C 0.05807 0.5039 0.99336 0.0
H697 H 0.10709 0.57029 0.98509 0.0
N698 N 0.04937 0.52913 0.98932 0.0
C699 C 0.0754 0.56342 0.98384 0.0
C700 C 0.0643 0.52406 0.99103 0.0
C701 C 0.05456 0.54835 0.98525 0.0
C702 C 0.09097 0.55862 0.98623 0.0
C703 C 0.0855 0.53863 0.98967 0.0
O704 O 0.01402 0.51337 0.97294 0.0
O705 O 0.98921 0.5038 1.00081 0.0
O706 O 0.96434 0.47241 0.0062 0.0
O707 O 0.99029 0.47151 0.99373 0.0
O708 O 0.00573 0.52592 0.98746 0.0
O709 O 0.00787 0.48272 0.97635 0.0
O710 O 0.98526 0.48514 0.04055 0.0
O711 O 0.00994 0.49527 0.01297 0.0
O712 O 0.03466 0.527 0.00729 0.0
O713 O 0.00889 0.52748 0.02024 0.0
O714 O 0.99303 0.47285 0.02611 0.0
O715 O 0.99115 0.51584 0.03761 0.0
C716 C 0.98967 0.51863 0.99491 0.0
C717 C 0.02246 0.49743 0.95568 0.0
C718 C 0.02533 0.49608 0.93143 0.0
C719 C 0.01381 0.49504 0.94282 0.0
C720 C 0.04571 0.49975 0.93314 0.0
C721 C 0.04274 0.50096 0.95713 0.0
C722 C 0.0543 0.50216 0.94591 0.0
C723 C 0.97066 0.46336 0.99753 0.0
C724 C 0.01007 0.49606 0.96743 0.0
C725 C 0.10042 0.53262 0.99139 0.0
C726 C 0.09409 0.51205 0.99376 0.0
C727 C 0.00932 0.48035 0.01886 0.0
C728 C 0.97778 0.50081 0.05846 0.0
C729 C 0.98779 0.50413 0.07089 0.0
C730 C 0.97719 0.50264 0.08281 0.0
C731 C 0.95629 0.49763 0.08207 0.0
C732 C 0.95698 0.49595 0.05791 0.0
C733 C 0.94629 0.49434 0.06967 0.0
C734 C 0.02846 0.53574 0.01629 0.0
C735 C 0.98938 0.50235 0.04629 0.0
H736 H 0.99803 0.49205 0.94172 0.0
H737 H 0.0551 0.50097 0.92459 0.0
H738 H 0.04962 0.50271 0.96689 0.0
H739 H 0.06998 0.50497 0.94712 0.0
H740 H 0.00382 0.50765 0.07127 0.0
H741 H 0.94776 0.49657 0.09105 0.0
H742 H 0.94901 0.49342 0.04845 0.0
H743 H 0.93024 0.4906 0.06918 0.0
Tb744 Tb 0.50962 0.49866 0.02165 0.0
C745 C 0.46273 0.52791 0.98531 0.0
C746 C 0.42662 0.50159 0.98613 0.0
C747 C 0.43585 0.53667 0.98153 0.0
C748 C 0.44786 0.50786 0.98742 0.0
C749 C 0.45698 0.54253 0.98209 0.0
C750 C 0.42068 0.51619 0.9835 0.0
C751 C 0.49323 0.56697 0.97878 0.0
N752 N 0.48289 0.53276 0.98557 0.0
C753 C 0.49812 0.55183 0.98187 0.0
C754 C 0.47258 0.56237 0.97904 0.0
Tb755 Tb 0.48949 0.50702 0.99072 0.0
N756 N 0.45427 0.49422 0.98973 0.0
C757 C 0.44006 0.47375 0.99017 0.0
C758 C 0.41205 0.48076 0.98696 0.0
C759 C 0.41881 0.46677 0.98897 0.0
H760 H 0.51414 0.55562 0.98164 0.0
H761 H 0.40767 0.45058 0.98948 0.0
H762 H 0.40442 0.51171 0.98263 0.0
H763 H 0.50539 0.58215 0.97618 0.0
H764 H 0.44489 0.46263 0.99162 0.0
H765 H 0.5916 0.55477 0.02244 0.0
H766 H 0.39563 0.47527 0.98567 0.0
H767 H 0.48491 0.44973 0.03007 0.0
H768 H 0.55433 0.54305 0.02134 0.0
H769 H 0.49357 0.42282 0.03451 0.0
H770 H 0.43109 0.54769 0.97917 0.0
H771 H 0.60355 0.52969 0.02471 0.0
H772 H 0.59453 0.49311 0.02743 0.0
H773 H 0.46882 0.57407 0.97653 0.0
H774 H 0.5678 0.4571 0.03073 0.0
N775 N 0.54482 0.51135 0.02252 0.0
C776 C 0.55912 0.53181 0.0223 0.0
C777 C 0.58708 0.5244 0.02412 0.0
C778 C 0.57242 0.5036 0.02499 0.0
C779 C 0.58039 0.53859 0.02291 0.0
C780 C 0.55118 0.49754 0.02427 0.0
H781 H 0.53008 0.43077 0.03358 0.0
N782 N 0.51615 0.47271 0.02628 0.0
C783 C 0.50575 0.43812 0.03215 0.0
C784 C 0.53628 0.47746 0.02625 0.0
C785 C 0.50091 0.45346 0.02967 0.0
C786 C 0.52636 0.44265 0.03158 0.0
C787 C 0.54199 0.46261 0.02882 0.0
O788 O 0.49582 0.48929 0.04052 0.0
O789 O 0.48421 0.4991 0.01148 0.0
O790 O 0.49321 0.53095 0.00484 0.0
O791 O 0.51782 0.53094 0.01943 0.0
O792 O 0.47665 0.47669 0.02498 0.0
O793 O 0.52157 0.51973 0.03772 0.0
O794 O 0.50392 0.51584 0.97201 0.0
O795 O 0.51492 0.50683 1.00096 0.0
O796 O 0.50656 0.47544 0.00723 0.0
O797 O 0.48126 0.4747 0.99304 0.0
O798 O 0.52243 0.52903 0.98731 0.0
O799 O 0.47732 0.4859 0.97466 0.0
C800 C 0.46895 0.4843 0.01692 0.0
C801 C 0.51827 0.50521 0.05898 0.0
C802 C 0.51819 0.50513 0.08343 0.0
C803 C 0.50942 0.5062 0.07115 0.0
C804 C 0.53594 0.50302 0.08327 0.0
C805 C 0.53593 0.50309 0.05911 0.0
C806 C 0.54467 0.50196 0.07119 0.0
C807 C 0.50764 0.53964 0.01435 0.0
C808 C 0.50897 0.50658 0.04631 0.0
C809 C 0.56308 0.4683 0.02888 0.0
C810 C 0.57829 0.48879 0.02699 0.0
C811 C 0.53018 0.52159 0.99547 0.0
C812 C 0.48224 0.50031 0.95322 0.0
C813 C 0.49083 0.49765 0.94143 0.0
C814 C 0.48338 0.49936 0.92883 0.0
C815 C 0.46718 0.50384 0.92824 0.0
C816 C 0.46605 0.50467 0.9524 0.0
C817 C 0.4586 0.50645 0.93997 0.0
C818 C 0.49203 0.46646 0.99785 0.0
C819 C 0.49059 0.49867 0.9662 0.0
H820 H 0.49565 0.50764 0.07101 0.0
H821 H 0.54334 0.50254 0.09249 0.0
H822 H 0.54307 0.50245 0.04991 0.0
H823 H 0.55837 0.50043 0.0712 0.0
H824 H 0.5035 0.49448 0.9421 0.0
H825 H 0.46091 0.50502 0.91872 0.0
H826 H 0.45915 0.50665 0.96133 0.0
H827 H 0.44607 0.50978 0.93941 0.0
Tb828 Tb 0.15395 0.32028 0.32512 0.0
C829 C 0.20549 0.39569 0.36102 0.0
C830 C 0.24072 0.4025 0.35897 0.0
C831 C 0.23426 0.43058 0.36323 0.0
C832 C 0.21913 0.38874 0.35875 0.0
C833 C 0.21283 0.41661 0.36361 0.0
C834 C 0.2482 0.42353 0.36089 0.0
C835 C 0.17746 0.40799 0.36788 0.0
N836 N 0.18498 0.38168 0.36138 0.0
C837 C 0.17098 0.38739 0.36528 0.0
C838 C 0.19846 0.42272 0.36686 0.0
Tb839 Tb 0.17568 0.34843 0.35643 0.0
N840 N 0.21123 0.36831 0.35703 0.0
C841 C 0.22429 0.36047 0.35653 0.0
C842 C 0.2541 0.39463 0.35762 0.0
C843 C 0.24584 0.37349 0.35662 0.0
H844 H 0.1547 0.37612 0.36598 0.0
H845 H 0.25606 0.3672 0.35584 0.0
H846 H 0.26472 0.43438 0.36093 0.0
H847 H 0.16626 0.4125 0.37063 0.0
H848 H 0.21829 0.34422 0.35565 0.0
H849 H 0.07293 0.29895 0.32833 0.0
H850 H 0.27079 0.40468 0.35767 0.0
H851 H 0.17477 0.29482 0.31145 0.0
H852 H 0.11046 0.32281 0.32755 0.0
H853 H 0.1639 0.25919 0.30501 0.0
H854 H 0.24024 0.44676 0.36505 0.0
H855 H 0.05913 0.26167 0.32597 0.0
H856 H 0.06608 0.23285 0.3211 0.0
H857 H 0.20345 0.43866 0.36892 0.0
H858 H 0.091 0.22192 0.31463 0.0
N859 N 0.11841 0.29944 0.32522 0.0
C860 C 0.10489 0.30666 0.32645 0.0
C861 C 0.07573 0.27211 0.32563 0.0
C862 C 0.08949 0.2649 0.32335 0.0
C863 C 0.08346 0.29313 0.32692 0.0
C864 C 0.11094 0.27917 0.3231 0.0
H865 H 0.12754 0.23175 0.30823 0.0
N866 N 0.14501 0.28765 0.31861 0.0
C867 C 0.15275 0.26283 0.30922 0.0
C868 C 0.12481 0.27302 0.31963 0.0
C869 C 0.15885 0.28304 0.31287 0.0
C870 C 0.13224 0.24737 0.3111 0.0
C871 C 0.11785 0.25244 0.3161 0.0
O872 O 0.16867 0.32714 0.30642 0.0
O873 O 0.1801 0.3448 0.3356 0.0
O874 O 0.17324 0.36916 0.34247 0.0
O875 O 0.14713 0.34531 0.32833 0.0
O876 O 0.18641 0.32916 0.32148 0.0
O877 O 0.14142 0.32944 0.30954 0.0
O878 O 0.16224 0.34549 0.37536 0.0
O879 O 0.14972 0.3235 0.34613 0.0
O880 O 0.15877 0.29949 0.33777 0.0
O881 O 0.18141 0.32258 0.35416 0.0
O882 O 0.14314 0.33933 0.35997 0.0
O883 O 0.18651 0.33829 0.37235 0.0
C884 C 0.19482 0.34415 0.32992 0.0
C885 C 0.147 0.32109 0.2877 0.0
C886 C 0.14818 0.32349 0.26333 0.0
C887 C 0.15515 0.33263 0.27608 0.0
C888 C 0.13286 0.30266 0.26243 0.0
C889 C 0.13163 0.30041 0.28655 0.0
C890 C 0.12464 0.29127 0.27397 0.0
C891 C 0.15866 0.36419 0.33321 0.0
C892 C 0.15502 0.33074 0.3009 0.0
C893 C 0.09665 0.23787 0.31711 0.0
C894 C 0.08247 0.2441 0.32078 0.0
C895 C 0.1349 0.32385 0.35189 0.0
C896 C 0.18379 0.34956 0.39393 0.0
C897 C 0.17637 0.33837 0.40575 0.0
C898 C 0.18571 0.34717 0.41821 0.0
C899 C 0.20244 0.36742 0.41862 0.0
C900 C 0.20047 0.3697 0.3946 0.0
C901 C 0.20969 0.37857 0.4069 0.0
C902 C 0.17184 0.30434 0.34806 0.0
C903 C 0.17429 0.33979 0.381 0.0
H904 H 0.16712 0.34859 0.27697 0.0
H905 H 0.12701 0.29524 0.25279 0.0
H906 H 0.12505 0.29134 0.29535 0.0
H907 H 0.11277 0.27529 0.27316 0.0
H908 H 0.16362 0.32271 0.40521 0.0
H909 H 0.20979 0.37473 0.42804 0.0
H910 H 0.20643 0.37852 0.38565 0.0
H911 H 0.22255 0.39415 0.40735 0.0
Tb912 Tb 0.68334 0.83694 0.32585 0.0
C913 C 0.60175 0.80977 0.35555 0.0
C914 C 0.59366 0.83662 0.35195 0.0
C915 C 0.56577 0.80169 0.35516 0.0
C916 C 0.60823 0.82997 0.35309 0.0
C917 C 0.58049 0.79542 0.35694 0.0
C918 C 0.57236 0.82228 0.35266 0.0
C919 C 0.59011 0.77036 0.36293 0.0
N920 N 0.61648 0.80446 0.35734 0.0
C921 C 0.61103 0.78522 0.36152 0.0
C922 C 0.57475 0.77541 0.36046 0.0
Tb923 Tb 0.65031 0.8296 0.35439 0.0
N924 N 0.62894 0.8433 0.35261 0.0
C925 C 0.63613 0.86388 0.35204 0.0
C926 C 0.60096 0.85754 0.35056 0.0
C927 C 0.6223 0.87125 0.35082 0.0
H928 H 0.62277 0.78111 0.36336 0.0
H929 H 0.62813 0.88751 0.35001 0.0
H930 H 0.5609 0.82704 0.35166 0.0
H931 H 0.58587 0.75503 0.36591 0.0
H932 H 0.65254 0.87476 0.35213 0.0
H933 H 0.70582 0.77925 0.33032 0.0
H934 H 0.59029 0.86328 0.34961 0.0
H935 H 0.71085 0.88545 0.31689 0.0
H936 H 0.68132 0.79186 0.328 0.0
H937 H 0.74776 0.91167 0.31461 0.0
H938 H 0.54933 0.79086 0.35604 0.0
H939 H 0.74362 0.80363 0.33113 0.0
H940 H 0.77294 0.83997 0.32943 0.0
H941 H 0.55857 0.7639 0.36162 0.0
H942 H 0.78442 0.87614 0.32504 0.0
N943 N 0.70481 0.82337 0.32775 0.0
C944 C 0.69771 0.8028 0.32824 0.0
C945 C 0.73291 0.80931 0.33008 0.0
C946 C 0.74014 0.83023 0.32877 0.0
C947 C 0.71159 0.79551 0.32958 0.0
C948 C 0.72551 0.83679 0.32749 0.0
H949 H 0.77511 0.90298 0.31922 0.0
N950 N 0.71718 0.86218 0.32307 0.0
C951 C 0.74353 0.89635 0.3176 0.0
C952 C 0.73195 0.85697 0.32502 0.0
C953 C 0.72261 0.88142 0.31887 0.0
C954 C 0.75893 0.8914 0.32026 0.0
C955 C 0.75322 0.8714 0.32381 0.0
O956 O 0.68156 0.8462 0.30637 0.0
O957 O 0.6567 0.8374 0.33371 0.0
O958 O 0.63161 0.80592 0.33953 0.0
O959 O 0.65778 0.80487 0.32737 0.0
O960 O 0.67392 0.85926 0.32029 0.0
O961 O 0.67647 0.81595 0.30996 0.0
O962 O 0.65187 0.82027 0.37389 0.0
O963 O 0.67681 0.82899 0.34649 0.0
O964 O 0.70202 0.86037 0.34079 0.0
O965 O 0.67599 0.86168 0.35294 0.0
O966 O 0.65978 0.80732 0.36004 0.0
O967 O 0.65769 0.85078 0.37021 0.0
C968 C 0.65755 0.85214 0.32745 0.0
C969 C 0.69091 0.83091 0.28926 0.0
C970 C 0.6945 0.83142 0.26502 0.0
C971 C 0.6825 0.82905 0.2764 0.0
C972 C 0.71504 0.83562 0.26672 0.0
C973 C 0.71137 0.83495 0.29074 0.0
C974 C 0.72336 0.83731 0.27952 0.0
C975 C 0.63809 0.79677 0.33104 0.0
C976 C 0.67827 0.82906 0.30096 0.0
C977 C 0.76798 0.86524 0.32578 0.0
C978 C 0.76144 0.84466 0.32828 0.0
C979 C 0.67606 0.81434 0.35281 0.0
C980 C 0.64364 0.83642 0.3911 0.0
C981 C 0.65282 0.83915 0.40378 0.0
C982 C 0.64175 0.83812 0.41539 0.0
C983 C 0.62126 0.83425 0.41407 0.0
C984 C 0.62321 0.83258 0.38998 0.0
C985 C 0.61208 0.83148 0.40143 0.0
C986 C 0.69569 0.86955 0.34936 0.0
C987 C 0.65573 0.83764 0.37924 0.0
H988 H 0.66672 0.82609 0.27526 0.0
H989 H 0.72458 0.83731 0.25815 0.0
H990 H 0.71809 0.83628 0.30053 0.0
H991 H 0.73915 0.84043 0.28073 0.0
H992 H 0.66872 0.8424 0.40458 0.0
H993 H 0.61226 0.83317 0.42281 0.0
H994 H 0.61589 0.8305 0.38031 0.0
H995 H 0.5963 0.82846 0.40051 0.0
Tb996 Tb 0.178 0.83387 0.35464 0.0
C997 C 0.12898 0.86183 0.31942 0.0
C998 C 0.09311 0.8349 0.32025 0.0
C999 C 0.10148 0.86986 0.31614 0.0
C1000 C 0.11447 0.84161 0.3214 0.0
C1001 C 0.12273 0.87618 0.31651 0.0
C1002 C 0.08668 0.84922 0.31794 0.0
C1003 C 0.15875 0.90128 0.31305 0.0
N1004 N 0.14926 0.86712 0.31944 0.0
C1005 C 0.16412 0.88638 0.31579 0.0
C1006 C 0.13797 0.89623 0.31357 0.0
Tb1007 Tb 0.15668 0.84177 0.32404 0.0
N1008 N 0.12134 0.82826 0.32342 0.0
C1009 C 0.10748 0.80769 0.32376 0.0
C1010 C 0.07892 0.81394 0.32089 0.0
C1011 C 0.08614 0.80028 0.32266 0.0
H1012 H 0.18023 0.89047 0.31536 0.0
H1013 H 0.07529 0.784 0.32305 0.0
H1014 H 0.07032 0.84439 0.31719 0.0
H1015 H 0.17062 0.91662 0.31051 0.0
H1016 H 0.11264 0.79678 0.32501 0.0
H1017 H 0.25986 0.89031 0.3531 0.0
H1018 H 0.06243 0.8081 0.31964 0.0
H1019 H 0.15439 0.78559 0.36431 0.0
H1020 H 0.22256 0.87845 0.35354 0.0
H1021 H 0.16359 0.75898 0.36859 0.0
H1022 H 0.09634 0.88067 0.31402 0.0
H1023 H 0.27214 0.86539 0.35432 0.0
H1024 H 0.26352 0.82891 0.35732 0.0
H1025 H 0.13382 0.90773 0.31131 0.0
H1026 H 0.23726 0.79306 0.36168 0.0
N1027 N 0.2133 0.8468 0.35468 0.0
C1028 C 0.22748 0.86727 0.35417 0.0
C1029 C 0.25565 0.86003 0.35454 0.0
C1030 C 0.24117 0.83925 0.35591 0.0
C1031 C 0.24878 0.87414 0.35389 0.0
C1032 C 0.21989 0.83312 0.35605 0.0
H1033 H 0.19994 0.76689 0.36618 0.0
N1034 N 0.18515 0.80832 0.35924 0.0
C1035 C 0.17547 0.77414 0.36569 0.0
C1036 C 0.20526 0.81311 0.35848 0.0
C1037 C 0.17032 0.78929 0.3633 0.0
C1038 C 0.19599 0.77864 0.36429 0.0
C1039 C 0.21126 0.79843 0.36084 0.0
O1040 O 0.16476 0.82504 0.37369 0.0
O1041 O 0.1522 0.83397 0.34481 0.0
O1042 O 0.16051 0.86553 0.33835 0.0
O1043 O 0.18598 0.86605 0.35232 0.0
O1044 O 0.14514 0.81188 0.35848 0.0
O1045 O 0.19078 0.85517 0.37055 0.0
O1046 O 0.17042 0.85119 0.30519 0.0
O1047 O 0.18241 0.84167 0.33386 0.0
O1048 O 0.17405 0.81004 0.34046 0.0
O1049 O 0.14895 0.80955 0.32614 0.0
O1050 O 0.18949 0.86387 0.32026 0.0
O1051 O 0.14461 0.82076 0.30792 0.0
C1052 C 0.13714 0.81924 0.35044 0.0
C1053 C 0.18792 0.84084 0.39181 0.0
C1054 C 0.18952 0.84228 0.41623 0.0
C1055 C 0.18053 0.84355 0.40412 0.0
C1056 C 0.20593 0.83807 0.41579 0.0
C1057 C 0.20436 0.83681 0.39163 0.0
C1058 C 0.21327 0.83539 0.40356 0.0
C1059 C 0.17537 0.87449 0.34756 0.0
C1060 C 0.17832 0.8423 0.3793 0.0
C1061 C 0.23233 0.80415 0.36005 0.0
C1062 C 0.24727 0.82455 0.35757 0.0
C1063 C 0.19747 0.85636 0.32819 0.0
C1064 C 0.14845 0.83518 0.28657 0.0
C1065 C 0.15599 0.83146 0.27465 0.0
C1066 C 0.14787 0.8327 0.26217 0.0
C1067 C 0.13209 0.83779 0.26185 0.0
C1068 C 0.13268 0.84014 0.28602 0.0
C1069 C 0.12457 0.84146 0.27371 0.0
C1070 C 0.15957 0.8012 0.33103 0.0
C1071 C 0.15739 0.83387 0.29939 0.0
H1072 H 0.16799 0.84693 0.40422 0.0
H1073 H 0.21297 0.83663 0.4249 0.0
H1074 H 0.21036 0.83482 0.38231 0.0
H1075 H 0.22589 0.83217 0.40334 0.0
H1076 H 0.16798 0.82733 0.27515 0.0
H1077 H 0.12569 0.83916 0.25244 0.0
H1078 H 0.12662 0.84297 0.29504 0.0
H1079 H 0.11244 0.84538 0.27335 0.0
Tb1080 Tb 0.82339 0.65425 0.65866 0.0
C1081 C 0.86619 0.73083 0.6953 0.0
C1082 C 0.90265 0.74134 0.69535 0.0
C1083 C 0.89205 0.7667 0.69874 0.0
C1084 C 0.88162 0.726 0.69398 0.0
C1085 C 0.87113 0.75116 0.69797 0.0
C1086 C 0.9078 0.76179 0.69743 0.0
C1087 C 0.83446 0.73889 0.70009 0.0
N1088 N 0.84624 0.71532 0.69468 0.0
C1089 C 0.83038 0.71896 0.69751 0.0
C1090 C 0.85492 0.75512 0.70017 0.0
Tb1091 Tb 0.84099 0.68321 0.69002 0.0
N1092 N 0.87594 0.70604 0.69211 0.0
C1093 C 0.89066 0.70025 0.69243 0.0
C1094 C 0.91779 0.73557 0.69501 0.0
C1095 C 0.91175 0.7149 0.69368 0.0
H1096 H 0.81449 0.7066 0.69741 0.0
H1097 H 0.92332 0.71022 0.69361 0.0
H1098 H 0.92388 0.77383 0.69838 0.0
H1099 H 0.82182 0.74173 0.70201 0.0
H1100 H 0.88638 0.6844 0.69137 0.0
H1101 H 0.74162 0.62986 0.65546 0.0
H1102 H 0.93411 0.74688 0.69608 0.0
H1103 H 0.84814 0.62944 0.6507 0.0
H1104 H 0.77884 0.65479 0.65727 0.0
H1105 H 0.83953 0.59376 0.64646 0.0
H1106 H 0.89619 0.78246 0.70067 0.0
H1107 H 0.7295 0.59287 0.65366 0.0
H1108 H 0.73842 0.56487 0.65183 0.0
H1109 H 0.85804 0.77053 0.70224 0.0
H1110 H 0.76516 0.55497 0.64943 0.0
N1111 N 0.7882 0.63229 0.65694 0.0
C1112 C 0.77401 0.63876 0.65652 0.0
C1113 C 0.74597 0.60376 0.65455 0.0
C1114 C 0.76056 0.59726 0.65432 0.0
C1115 C 0.75275 0.62463 0.6555 0.0
C1116 C 0.78179 0.61212 0.65541 0.0
H1117 H 0.80297 0.56571 0.64716 0.0
N1118 N 0.81683 0.62166 0.65418 0.0
C1119 C 0.82732 0.59714 0.64863 0.0
C1120 C 0.79669 0.60657 0.65401 0.0
C1121 C 0.83213 0.61735 0.651 0.0
C1122 C 0.80668 0.58134 0.64908 0.0
C1123 C 0.791 0.58599 0.65155 0.0
O1124 O 0.83872 0.65857 0.64032 0.0
O1125 O 0.84781 0.67977 0.66959 0.0
O1126 O 0.83866 0.70308 0.67531 0.0
O1127 O 0.81502 0.67849 0.66025 0.0
O1128 O 0.8566 0.66506 0.6563 0.0
O1129 O 0.81273 0.66344 0.64209 0.0
O1130 O 0.82527 0.67787 0.70827 0.0
O1131 O 0.81673 0.65759 0.67907 0.0
O1132 O 0.82677 0.63475 0.67328 0.0
O1133 O 0.85022 0.65969 0.68826 0.0
O1134 O 0.80764 0.67208 0.6922 0.0
O1135 O 0.85218 0.67446 0.70655 0.0
C1136 C 0.86352 0.68017 0.66463 0.0
C1137 C 0.81816 0.65282 0.62097 0.0
C1138 C 0.817 0.65484 0.5966 0.0
C1139 C 0.82455 0.66434 0.60922 0.0
C1140 C 0.80306 0.63358 0.59602 0.0
C1141 C 0.80418 0.63173 0.62011 0.0
C1142 C 0.79671 0.62218 0.60769 0.0
C1143 C 0.82508 0.69742 0.66531 0.0
C1144 C 0.8262 0.66304 0.63402 0.0
C1145 C 0.76988 0.57092 0.65118 0.0
C1146 C 0.75466 0.57655 0.65254 0.0
C1147 C 0.80087 0.65697 0.68389 0.0
C1148 C 0.84568 0.68403 0.72773 0.0
C1149 C 0.83975 0.67216 0.73934 0.0
C1150 C 0.84657 0.68148 0.75208 0.0
C1151 C 0.85933 0.70292 0.75292 0.0
C1152 C 0.85851 0.70529 0.72886 0.0
C1153 C 0.86527 0.71467 0.74139 0.0
C1154 C 0.84062 0.64079 0.68316 0.0
C1155 C 0.83823 0.67399 0.71457 0.0
H1156 H 0.83516 0.6807 0.60994 0.0
H1157 H 0.79723 0.62567 0.58652 0.0
H1158 H 0.79905 0.62264 0.629 0.0
H1159 H 0.786 0.60586 0.6071 0.0
H1160 H 0.83003 0.65568 0.73841 0.0
H1161 H 0.86455 0.7107 0.76251 0.0
H1162 H 0.86326 0.71466 0.72009 0.0
H1163 H 0.87507 0.73112 0.74218 0.0
Tb1164 Tb 0.34962 0.17149 0.65854 0.0
C1165 C 0.26955 0.14253 0.6903 0.0
C1166 C 0.26049 0.16885 0.68746 0.0
C1167 C 0.23335 0.13366 0.69089 0.0
C1168 C 0.27546 0.16264 0.68803 0.0
C1169 C 0.24848 0.12782 0.69207 0.0
C1170 C 0.23935 0.15416 0.68857 0.0
C1171 C 0.25917 0.10324 0.69719 0.0
N1172 N 0.28467 0.13763 0.69149 0.0
C1173 C 0.27986 0.11844 0.69541 0.0
C1174 C 0.24337 0.10788 0.69534 0.0
Tb1175 Tb 0.31808 0.16331 0.68792 0.0
N1176 N 0.29603 0.17632 0.68714 0.0
C1177 C 0.30275 0.19681 0.68671 0.0
C1178 C 0.26726 0.18968 0.68619 0.0
C1179 C 0.28851 0.20375 0.68604 0.0
H1180 H 0.29192 0.11464 0.69677 0.0
H1181 H 0.29394 0.21995 0.68532 0.0
H1182 H 0.22759 0.15858 0.68801 0.0
H1183 H 0.25542 0.08796 0.69996 0.0
H1184 H 0.31907 0.20796 0.68648 0.0
H1185 H 0.37259 0.114 0.65992 0.0
H1186 H 0.25627 0.19509 0.68566 0.0
H1187 H 0.37628 0.22048 0.65056 0.0
H1188 H 0.34797 0.1266 0.66001 0.0
H1189 H 0.41289 0.24691 0.64738 0.0
H1190 H 0.21705 0.12255 0.69207 0.0
H1191 H 0.41027 0.13833 0.65868 0.0
H1192 H 0.43933 0.17473 0.65665 0.0
H1193 H 0.22736 0.09611 0.69677 0.0
H1194 H 0.45037 0.21105 0.65343 0.0
N1195 N 0.37133 0.15814 0.65935 0.0
C1196 C 0.36431 0.13757 0.65956 0.0
C1197 C 0.39952 0.14406 0.65887 0.0
C1198 C 0.40662 0.16502 0.65812 0.0
C1199 C 0.37827 0.13027 0.65951 0.0
C1200 C 0.39194 0.17161 0.65829 0.0
H1201 H 0.44058 0.2381 0.64979 0.0
N1202 N 0.38316 0.19704 0.65527 0.0
C1203 C 0.40895 0.23148 0.64989 0.0
C1204 C 0.39809 0.19184 0.65618 0.0
C1205 C 0.3882 0.21643 0.65167 0.0
C1206 C 0.42454 0.22647 0.65131 0.0
C1207 C 0.41918 0.20634 0.65423 0.0
O1208 O 0.34792 0.18129 0.63919 0.0
O1209 O 0.32323 0.17148 0.66722 0.0
O1210 O 0.29872 0.13978 0.67318 0.0
O1211 O 0.32437 0.13927 0.6601 0.0
O1212 O 0.33955 0.19358 0.65374 0.0
O1213 O 0.34109 0.15038 0.64258 0.0
O1214 O 0.32127 0.1541 0.70712 0.0
O1215 O 0.34447 0.16333 0.67919 0.0
O1216 O 0.36886 0.19462 0.67352 0.0
O1217 O 0.34316 0.19559 0.68622 0.0
O1218 O 0.32827 0.14123 0.69262 0.0
O1219 O 0.32571 0.18422 0.70394 0.0
C1220 C 0.32356 0.18621 0.66125 0.0
C1221 C 0.35528 0.16474 0.62173 0.0
C1222 C 0.35786 0.1649 0.5974 0.0
C1223 C 0.347 0.16435 0.60903 0.0
C1224 C 0.37722 0.16598 0.59874 0.0
C1225 C 0.37457 0.16578 0.62281 0.0
C1226 C 0.38549 0.16646 0.61137 0.0
C1227 C 0.3049 0.13089 0.66428 0.0
C1228 C 0.34343 0.16382 0.63368 0.0
C1229 C 0.43406 0.20013 0.65482 0.0
C1230 C 0.42778 0.17946 0.65667 0.0
C1231 C 0.34424 0.1486 0.68507 0.0
C1232 C 0.31344 0.16946 0.72502 0.0
C1233 C 0.3237 0.17269 0.73735 0.0
C1234 C 0.31327 0.1709 0.7494 0.0
C1235 C 0.29228 0.16567 0.74887 0.0
C1236 C 0.29257 0.16437 0.72467 0.0
C1237 C 0.28205 0.16247 0.73657 0.0
C1238 C 0.36272 0.20372 0.68228 0.0
C1239 C 0.32486 0.17122 0.71272 0.0
H1240 H 0.33217 0.16374 0.60823 0.0
H1241 H 0.38583 0.16607 0.59003 0.0
H1242 H 0.38114 0.1659 0.63244 0.0
H1243 H 0.40033 0.16717 0.61229 0.0
H1244 H 0.33977 0.17636 0.73756 0.0
H1245 H 0.28388 0.16436 0.75795 0.0
H1246 H 0.28442 0.16189 0.71527 0.0
H1247 H 0.26593 0.15855 0.73625 0.0
Tb1248 Tb 0.84512 0.16648 0.68847 0.0
C1249 C 0.79569 0.19453 0.6537 0.0
C1250 C 0.75968 0.16854 0.65606 0.0
C1251 C 0.76875 0.20354 0.65133 0.0
C1252 C 0.78094 0.1746 0.65628 0.0
C1253 C 0.78981 0.20919 0.65091 0.0
C1254 C 0.75369 0.18322 0.65389 0.0
C1255 C 0.82573 0.23328 0.64626 0.0
N1256 N 0.81578 0.19922 0.65319 0.0
C1257 C 0.83074 0.21812 0.64903 0.0
C1258 C 0.80521 0.22887 0.64736 0.0
Tb1259 Tb 0.8226 0.17354 0.65808 0.0
N1260 N 0.7874 0.1609 0.65815 0.0
C1261 C 0.77315 0.14049 0.65896 0.0
C1262 C 0.7451 0.14783 0.65756 0.0
C1263 C 0.75187 0.13371 0.65886 0.0
H1264 H 0.84667 0.22177 0.64819 0.0
H1265 H 0.74071 0.11758 0.65979 0.0
H1266 H 0.73744 0.1789 0.65383 0.0
H1267 H 0.83771 0.24833 0.64328 0.0
H1268 H 0.778 0.12931 0.65998 0.0
H1269 H 0.92675 0.22339 0.686 0.0
H1270 H 0.72862 0.14253 0.65738 0.0
H1271 H 0.82209 0.11833 0.69832 0.0
H1272 H 0.88942 0.21125 0.68674 0.0
H1273 H 0.8317 0.092 0.70256 0.0
H1274 H 0.76391 0.21461 0.64933 0.0
H1275 H 0.93939 0.19876 0.68732 0.0
H1276 H 0.93118 0.16245 0.69051 0.0
H1277 H 0.80135 0.24059 0.64514 0.0
H1278 H 0.90525 0.12659 0.69513 0.0
N1279 N 0.88045 0.17969 0.68813 0.0
C1280 C 0.89448 0.20018 0.6874 0.0
C1281 C 0.92287 0.19327 0.68766 0.0
C1282 C 0.90857 0.17249 0.68922 0.0
C1283 C 0.9158 0.20721 0.68695 0.0
C1284 C 0.88725 0.16617 0.68953 0.0
H1285 H 0.86811 0.10022 0.69991 0.0
N1286 N 0.85267 0.14119 0.69302 0.0
C1287 C 0.84342 0.10717 0.69957 0.0
C1288 C 0.87281 0.14616 0.69212 0.0
C1289 C 0.83805 0.12216 0.69719 0.0
C1290 C 0.86398 0.11184 0.69803 0.0
C1291 C 0.87905 0.13165 0.69445 0.0
O1292 O 0.83254 0.15785 0.70769 0.0
O1293 O 0.81894 0.1663 0.67899 0.0
O1294 O 0.82716 0.19787 0.6721 0.0
O1295 O 0.8529 0.19858 0.68593 0.0
O1296 O 0.81251 0.14456 0.69287 0.0
O1297 O 0.85809 0.18813 0.70417 0.0
O1298 O 0.83566 0.18165 0.63895 0.0
O1299 O 0.84868 0.1737 0.66761 0.0
O1300 O 0.84061 0.14234 0.67433 0.0
O1301 O 0.81461 0.14134 0.66064 0.0
O1302 O 0.85527 0.19527 0.65362 0.0
O1303 O 0.80918 0.15189 0.64239 0.0
C1304 C 0.80417 0.15174 0.68496 0.0
C1305 C 0.85606 0.17439 0.72555 0.0
C1306 C 0.85778 0.17579 0.74997 0.0
C1307 C 0.84832 0.17645 0.73789 0.0
C1308 C 0.875 0.17284 0.74945 0.0
C1309 C 0.87327 0.17154 0.72528 0.0
C1310 C 0.88265 0.17073 0.73718 0.0
C1311 C 0.84221 0.20697 0.68118 0.0
C1312 C 0.84602 0.17533 0.7131 0.0
C1313 C 0.90014 0.13755 0.69351 0.0
C1314 C 0.9149 0.15796 0.69088 0.0
C1315 C 0.86354 0.18811 0.6616 0.0
C1316 C 0.81257 0.16563 0.62084 0.0
C1317 C 0.82027 0.16263 0.60876 0.0
C1318 C 0.81177 0.16384 0.59642 0.0
C1319 C 0.79547 0.16822 0.59642 0.0
C1320 C 0.79628 0.16988 0.6206 0.0
C1321 C 0.78782 0.1712 0.60844 0.0
C1322 C 0.82563 0.13321 0.66521 0.0
C1323 C 0.82184 0.16433 0.63353 0.0
H1324 H 0.83516 0.17889 0.73807 0.0
H1325 H 0.88244 0.17192 0.75853 0.0
H1326 H 0.87952 0.17002 0.71592 0.0
H1327 H 0.89589 0.16846 0.7369 0.0
H1328 H 0.83268 0.15907 0.609 0.0
H1329 H 0.78878 0.16956 0.58712 0.0
H1330 H 0.79008 0.17215 0.62977 0.0
H1331 H 0.7753 0.17457 0.60832 0.0
H1332 H 0.33183 0.82622 0.07217 0.0
H1333 H 0.35899 0.85429 0.05949 0.0
H1334 H 0.32062 0.88189 0.05607 0.0
H1335 H 0.29343 0.85398 0.06897 0.0
H1336 H 0.35665 0.86853 0.03302 0.0
H1337 H 0.3763 0.92728 0.07312 0.0
H1338 H 0.36168 0.90017 0.07627 0.0
H1339 H 0.34938 0.91254 0.06825 0.0
C1340 C 0.3292 0.83832 0.06879 0.0
C1341 C 0.31055 0.83798 0.0717 0.0
C1342 C 0.34467 0.85425 0.06146 0.0
C1343 C 0.34189 0.87025 0.05698 0.0
C1344 C 0.32314 0.86978 0.05958 0.0
H1345 H 0.43138 0.98728 0.02314 0.0
H1346 H 0.39912 0.95761 0.0306 0.0
C1347 C 0.30758 0.85377 0.06687 0.0
C1348 C 0.35887 0.88759 0.04982 0.0
H1349 H 0.39459 0.9384 0.05303 0.0
C1350 C 0.36493 0.88385 0.03734 0.0
C1351 C 0.36957 0.90752 0.05549 0.0
C1352 C 0.36409 0.91222 0.06906 0.0
C1353 C 0.3814 0.89959 0.03032 0.0
C1354 C 0.39241 0.9195 0.0361 0.0
C1355 C 0.38613 0.92321 0.04854 0.0
C1356 C 0.41096 0.93663 0.02978 0.0
C1357 C 0.38655 0.89475 0.0167 0.0
C1358 C 0.42831 0.93472 0.02664 0.0
C1359 C 0.44661 0.95159 0.0222 0.0
C1360 C 0.44797 0.97073 0.02089 0.0
C1361 C 0.43059 0.9726 0.02388 0.0
C1362 C 0.4122 0.95568 0.02816 0.0
H1363 H 0.373 0.88121 0.012 0.0
H1364 H 0.39168 0.90794 0.00999 0.0
H1365 H 0.39928 0.89123 0.01767 0.0
H1366 H 0.42807 0.92045 0.02821 0.0
H1367 H 0.45994 0.94983 0.02041 0.0
H1368 H 0.1285 0.41711 0.05986 0.0
H1369 H 0.10383 0.42659 0.05113 0.0
H1370 H 0.14976 0.49046 0.05584 0.0
H1371 H 0.1748 0.48107 0.06447 0.0
H1372 H 0.09045 0.4519 0.06506 0.0
H1373 H 0.12757 0.48409 0.01634 0.0
H1374 H 0.13325 0.46714 0.02572 0.0
H1375 H 0.14378 0.49325 0.0311 0.0
C1376 C 0.13351 0.4332 0.05888 0.0
C1377 C 0.15371 0.44834 0.06277 0.0
C1378 C 0.11933 0.43858 0.05395 0.0
C1379 C 0.12502 0.45921 0.05268 0.0
C1380 C 0.14514 0.47443 0.05656 0.0
H1381 H 0.05 0.51062 0.02262 0.0
H1382 H 0.07881 0.5066 0.03086 0.0
C1383 C 0.15935 0.46905 0.0616 0.0
C1384 C 0.10948 0.46454 0.04775 0.0
H1385 H 0.09664 0.48417 0.02114 0.0
C1386 C 0.09183 0.45903 0.05548 0.0
C1387 C 0.11141 0.47398 0.0353 0.0
C1388 C 0.12993 0.4799 0.02654 0.0
C1389 C 0.07596 0.46253 0.05107 0.0
C1390 C 0.07749 0.47129 0.03839 0.0
C1391 C 0.09541 0.47732 0.0308 0.0
C1392 C 0.06034 0.47372 0.03275 0.0
C1393 C 0.05776 0.45695 0.0601 0.0
C1394 C 0.04049 0.45655 0.03081 0.0
C1395 C 0.02407 0.45883 0.02607 0.0
C1396 C 0.02729 0.47823 0.02283 0.0
C1397 C 0.04719 0.49541 0.02465 0.0
C1398 C 0.06363 0.49314 0.02945 0.0
H1399 H 0.06181 0.45636 0.07072 0.0
H1400 H 0.0522 0.46807 0.05928 0.0
H1401 H 0.04482 0.44156 0.05717 0.0
H1402 H 0.03765 0.44137 0.03305 0.0
H1403 H 0.00882 0.44539 0.02489 0.0
H1404 H 0.57734 0.73165 0.03996 0.0
H1405 H 0.56262 0.69739 0.03016 0.0
H1406 H 0.54107 0.67115 0.06892 0.0
H1407 H 0.5546 0.70532 0.07867 0.0
H1408 H 0.57334 0.66975 0.0351 0.0
H1409 H 0.49007 0.63654 0.04661 0.0
H1410 H 0.50839 0.66357 0.04835 0.0
H1411 H 0.50612 0.64626 0.06133 0.0
C1412 C 0.56898 0.71862 0.04637 0.0
C1413 C 0.56709 0.72132 0.06012 0.0
C1414 C 0.56073 0.69901 0.04075 0.0
C1415 C 0.55047 0.68166 0.04875 0.0
C1416 C 0.54847 0.68426 0.06247 0.0
H1417 H 0.53873 0.56408 0.03198 0.0
H1418 H 0.54839 0.59838 0.03986 0.0
C1419 C 0.55653 0.70387 0.06808 0.0
C1420 C 0.54312 0.66096 0.04291 0.0
H1421 H 0.5011 0.61275 0.04031 0.0
C1422 C 0.55748 0.65735 0.03614 0.0
C1423 C 0.52236 0.64483 0.04406 0.0
C1424 C 0.5058 0.64803 0.05036 0.0
C1425 C 0.55183 0.63796 0.03081 0.0
C1426 C 0.5314 0.62155 0.03266 0.0
C1427 C 0.51685 0.62527 0.03907 0.0
C1428 C 0.52494 0.60037 0.02817 0.0
C1429 C 0.56778 0.63536 0.02312 0.0
C1430 C 0.50791 0.58967 0.01944 0.0
C1431 C 0.50205 0.56982 0.01509 0.0
C1432 C 0.51323 0.56036 0.01931 0.0
C1433 C 0.52993 0.57095 0.02834 0.0
C1434 C 0.53562 0.59068 0.0328 0.0
H1435 H 0.57994 0.65013 0.01901 0.0
H1436 H 0.57556 0.62974 0.02995 0.0
H1437 H 0.56049 0.62415 0.01475 0.0
H1438 H 0.49926 0.59676 0.01589 0.0
H1439 H 0.48877 0.56193 0.00844 0.0
H1440 H 0.82818 0.27692 0.97139 0.0
H1441 H 0.85089 0.31174 0.97995 0.0
H1442 H 0.87874 0.32991 0.94118 0.0
H1443 H 0.8563 0.29509 0.93257 0.0
H1444 H 0.89439 0.33247 0.98056 0.0
H1445 H 0.86489 0.37474 0.9512 0.0
H1446 H 0.8504 0.34727 0.95293 0.0
H1447 H 0.87143 0.35878 0.94134 0.0
C1448 C 0.83911 0.28832 0.96467 0.0
C1449 C 0.84043 0.28318 0.95129 0.0
C1450 C 0.852 0.30823 0.96956 0.0
C1451 C 0.86634 0.32345 0.96117 0.0
C1452 C 0.86749 0.3185 0.94776 0.0
H1453 H 0.97785 0.43619 0.98353 0.0
H1454 H 0.9522 0.40234 0.97486 0.0
C1455 C 0.85463 0.29858 0.94286 0.0
C1456 C 0.8809 0.34418 0.96664 0.0
H1457 H 0.89651 0.39484 0.96334 0.0
C1458 C 0.8948 0.34611 0.97684 0.0
C1459 C 0.88125 0.36191 0.96185 0.0
C1460 C 0.86609 0.36065 0.95131 0.0
C1461 C 0.90934 0.36533 0.98221 0.0
C1462 C 0.91015 0.38311 0.97712 0.0
C1463 C 0.89597 0.38118 0.96712 0.0
C1464 C 0.92564 0.40384 0.98209 0.0
C1465 C 0.92361 0.36648 0.99337 0.0
C1466 C 0.91917 0.41609 0.98874 0.0
C1467 C 0.93378 0.43549 0.99368 0.0
C1468 C 0.95516 0.44301 0.99202 0.0
C1469 C 0.96154 0.43084 0.98508 0.0
C1470 C 0.94691 0.41144 0.98017 0.0
H1471 H 0.9178 0.35145 0.99824 0.0
H1472 H 0.93916 0.37119 0.98925 0.0
H1473 H 0.92545 0.37799 1.00107 0.0
H1474 H 0.9028 0.41055 0.99024 0.0
H1475 H 0.92829 0.44458 0.99877 0.0
H1476 H 0.71168 0.5425 0.97073 0.0
H1477 H 0.67802 0.53359 0.98025 0.0
H1478 H 0.65905 0.54727 0.94283 0.0
H1479 H 0.6927 0.55633 0.93326 0.0
H1480 H 0.66178 0.55889 0.98345 0.0
H1481 H 0.60916 0.4919 0.95168 0.0
H1482 H 0.63686 0.50201 0.95241 0.0
H1483 H 0.62619 0.5141 0.94227 0.0
C1484 C 0.70033 0.54355 0.9645 0.0
C1485 C 0.70496 0.55017 0.95121 0.0
C1486 C 0.68105 0.53836 0.96994 0.0
C1487 C 0.66588 0.53952 0.96223 0.0
C1488 C 0.6703 0.5458 0.9489 0.0
H1489 H 0.56517 0.55617 0.98907 0.0
H1490 H 0.59831 0.55994 0.98202 0.0
C1491 C 0.68958 0.55098 0.94344 0.0
C1492 C 0.646 0.53542 0.96836 0.0
H1493 H 0.59326 0.50669 0.96489 0.0
C1494 C 0.64679 0.54734 0.97947 0.0
C1495 C 0.62643 0.5202 0.96329 0.0
C1496 C 0.62453 0.50617 0.95184 0.0
C1497 C 0.62861 0.5449 0.98537 0.0
C1498 C 0.60901 0.53032 0.97992 0.0
C1499 C 0.60823 0.51795 0.96906 0.0
C1500 C 0.58918 0.52816 0.98494 0.0
C1501 C 0.63073 0.55804 0.99742 0.0
C1502 C 0.57272 0.50895 0.98863 0.0
C1503 C 0.55362 0.50674 0.99248 0.0
C1504 C 0.55074 0.52376 0.9929 0.0
C1505 C 0.56717 0.54291 0.98916 0.0
C1506 C 0.58616 0.54509 0.98521 0.0
H1507 H 0.64524 0.56242 0.00313 0.0
H1508 H 0.63148 0.57234 0.99404 0.0
H1509 H 0.61739 0.55013 0.00421 0.0
H1510 H 0.57454 0.49559 0.98835 0.0
H1511 H 0.54105 0.49165 0.99481 0.0
H1512 H 0.44564 0.14699 0.93134 0.0
H1513 H 0.44551 0.11936 0.94405 0.0
H1514 H 0.50408 0.16271 0.96245 0.0
H1515 H 0.50416 0.19042 0.94999 0.0
H1516 H 0.47719 0.10838 0.94289 0.0
H1517 H 0.46749 0.13046 0.9943 0.0
H1518 H 0.46123 0.14 0.97957 0.0
H1519 H 0.48779 0.15071 0.98495 0.0
C1520 C 0.45832 0.15067 0.93825 0.0
C1521 C 0.47492 0.17087 0.93966 0.0
C1522 C 0.45827 0.13488 0.94545 0.0
C1523 C 0.47467 0.13906 0.95429 0.0
C1524 C 0.49112 0.15922 0.95583 0.0
H1525 H 0.51474 0.07109 1.00242 0.0
H1526 H 0.50941 0.09695 0.9916 0.0
C1527 C 0.49124 0.17499 0.9486 0.0
C1528 C 0.47525 0.12222 0.96133 0.0
H1529 H 0.47697 0.10477 0.99235 0.0
C1530 C 0.47693 0.10743 0.95369 0.0
C1531 C 0.47504 0.12116 0.97542 0.0
C1532 C 0.47261 0.13631 0.98407 0.0
C1533 C 0.47905 0.09193 0.95979 0.0
C1534 C 0.47897 0.09092 0.97391 0.0
C1535 C 0.47701 0.10557 0.98154 0.0
C1536 C 0.48147 0.0751 0.98094 0.0
C1537 C 0.48212 0.07723 0.95106 0.0
C1538 C 0.46727 0.05423 0.97878 0.0
C1539 C 0.47031 0.03938 0.98491 0.0
C1540 C 0.48746 0.04515 0.99347 0.0
C1541 C 0.5013 0.06609 0.99595 0.0
C1542 C 0.4983 0.08092 0.98975 0.0
H1543 H 0.48724 0.0833 0.94088 0.0
H1544 H 0.49378 0.07391 0.95553 0.0
H1545 H 0.46719 0.06261 0.95005 0.0
H1546 H 0.4539 0.04941 0.97226 0.0
H1547 H 0.45925 0.02341 0.98287 0.0
H1548 H 0.71158 0.1668 0.96851 0.0
H1549 H 0.67803 0.14575 0.97917 0.0
H1550 H 0.65889 0.10189 0.94662 0.0
H1551 H 0.69203 0.12318 0.93565 0.0
H1552 H 0.62802 0.10989 0.95442 0.0
H1553 H 0.66238 0.09251 0.99828 0.0
H1554 H 0.67229 0.11923 0.99534 0.0
H1555 H 0.67697 0.10408 0.98341 0.0
C1556 C 0.70012 0.15284 0.9635 0.0
C1557 C 0.70459 0.14662 0.95125 0.0
C1558 C 0.68104 0.1407 0.9697 0.0
C1559 C 0.66612 0.12205 0.96382 0.0
C1560 C 0.67025 0.11614 0.9514 0.0
H1561 H 0.56492 0.01182 0.99261 0.0
H1562 H 0.59822 0.04064 0.98576 0.0
C1563 C 0.68927 0.12827 0.94518 0.0
C1564 C 0.64629 0.1084 0.97062 0.0
H1565 H 0.62605 0.0783 0.99798 0.0
C1566 C 0.62756 0.10311 0.964 0.0
C1567 C 0.64577 0.09946 0.98308 0.0
C1568 C 0.66539 0.10392 0.99043 0.0
C1569 C 0.60833 0.08879 0.96933 0.0
C1570 C 0.60782 0.07976 0.98174 0.0
C1571 C 0.62652 0.08539 0.98852 0.0
C1572 C 0.58821 0.063 0.98717 0.0
C1573 C 0.58879 0.08275 0.96134 0.0
C1574 C 0.57167 0.0661 0.99052 0.0
C1575 C 0.55261 0.04961 0.99439 0.0
C1576 C 0.54998 0.02988 0.99524 0.0
C1577 C 0.5667 0.02695 0.99221 0.0
C1578 C 0.58569 0.04338 0.98832 0.0
H1579 H 0.59219 0.08807 0.95087 0.0
H1580 H 0.57844 0.06588 0.96119 0.0
H1581 H 0.58026 0.0897 0.96604 0.0
H1582 H 0.57336 0.08116 0.98985 0.0
H1583 H 0.53985 0.05223 0.99632 0.0
H1584 H 0.84366 0.55734 0.96752 0.0
H1585 H 0.86929 0.54925 0.9764 0.0
H1586 H 0.87552 0.52853 0.93727 0.0
H1587 H 0.85003 0.5369 0.92827 0.0
H1588 H 0.87032 0.51417 0.97775 0.0
H1589 H 0.93519 0.56944 0.94651 0.0
H1590 H 0.91091 0.56923 0.94761 0.0
H1591 H 0.91299 0.5509 0.93706 0.0
C1592 C 0.8503 0.55086 0.96081 0.0
C1593 C 0.84483 0.54783 0.94716 0.0
C1594 C 0.86505 0.54632 0.9659 0.0
C1595 C 0.87466 0.53863 0.95747 0.0
C1596 C 0.86875 0.53496 0.94391 0.0
H1597 H 0.94964 0.4881 0.98982 0.0
H1598 H 0.92116 0.49179 0.98083 0.0
C1599 C 0.85411 0.53967 0.93879 0.0
C1600 C 0.8909 0.53461 0.96296 0.0
H1601 H 0.94175 0.5477 0.95992 0.0
C1602 C 0.88597 0.52152 0.97387 0.0
C1603 C 0.91137 0.54434 0.95799 0.0
C1604 C 0.91805 0.55941 0.94673 0.0
C1605 C 0.90091 0.51803 0.98003 0.0
C1606 C 0.92138 0.52754 0.97497 0.0
C1607 C 0.92617 0.54042 0.96391 0.0
C1608 C 0.93831 0.52497 0.9811 0.0
C1609 C 0.89462 0.50475 0.99219 0.0
C1610 C 0.95781 0.54226 0.98395 0.0
C1611 C 0.9743 0.54011 0.98873 0.0
C1612 C 0.97152 0.52065 0.9912 0.0
C1613 C 0.95203 0.50332 0.98852 0.0
C1614 C 0.93567 0.50545 0.98339 0.0
H1615 H 0.88123 0.50443 0.99729 0.0
H1616 H 0.88988 0.48881 0.98913 0.0
H1617 H 0.90765 0.51027 0.99942 0.0
H1618 H 0.96041 0.55752 0.98227 0.0
H1619 H 0.98928 0.55368 0.99051 0.0
H1620 H 0.50093 0.3131 0.95058 0.0
H1621 H 0.5023 0.34207 0.96269 0.0
H1622 H 0.4423 0.32643 0.94641 0.0
H1623 H 0.44064 0.29714 0.93441 0.0
H1624 H 0.50024 0.37473 0.94999 0.0
H1625 H 0.43758 0.33511 0.98709 0.0
H1626 H 0.44965 0.32261 0.97858 0.0
H1627 H 0.4307 0.32652 0.97002 0.0
C1628 C 0.48783 0.31556 0.9498 0.0
C1629 C 0.47064 0.3028 0.94158 0.0
C1630 C 0.48869 0.33218 0.95665 0.0
C1631 C 0.47232 0.33625 0.95554 0.0
C1632 C 0.45496 0.32336 0.94755 0.0
H1633 H 0.45941 0.43951 0.98193 0.0
H1634 H 0.45396 0.40743 0.97185 0.0
C1635 C 0.45412 0.30677 0.94062 0.0
C1636 C 0.47411 0.35478 0.96204 0.0
H1637 H 0.45285 0.37117 0.9859 0.0
C1638 C 0.48993 0.37396 0.95787 0.0
C1639 C 0.46055 0.35367 0.97226 0.0
C1640 C 0.44374 0.3334 0.97737 0.0
C1641 C 0.49249 0.39212 0.96362 0.0
C1642 C 0.47905 0.39102 0.97389 0.0
C1643 C 0.4631 0.37187 0.97801 0.0
C1644 C 0.48167 0.40971 0.9806 0.0
C1645 C 0.50941 0.4124 0.95857 0.0
C1646 C 0.4989 0.42135 0.98899 0.0
C1647 C 0.50206 0.43962 0.99477 0.0
C1648 C 0.48802 0.44657 0.99226 0.0
C1649 C 0.47055 0.43463 0.98404 0.0
C1650 C 0.46735 0.41628 0.9783 0.0
H1651 H 0.51592 0.41069 0.949 0.0
H1652 H 0.5034 0.42308 0.95711 0.0
H1653 H 0.52219 0.41943 0.9661 0.0
H1654 H 0.51005 0.41642 0.99091 0.0
H1655 H 0.51576 0.44849 1.00096 0.0
H1656 H 0.19163 0.69881 0.05578 0.0
H1657 H 0.16242 0.66881 0.04514 0.0
H1658 H 0.12101 0.6702 0.07451 0.0
H1659 H 0.1502 0.69985 0.08553 0.0
H1660 H 0.13479 0.63023 0.06116 0.0
H1661 H 0.0936 0.66515 0.03563 0.0
H1662 H 0.1211 0.67959 0.03942 0.0
H1663 H 0.10268 0.67307 0.05257 0.0
C1664 C 0.17633 0.69277 0.06002 0.0
C1665 C 0.17334 0.70171 0.07159 0.0
C1666 C 0.15965 0.67571 0.05386 0.0
C1667 C 0.13961 0.6674 0.05902 0.0
C1668 C 0.13636 0.67658 0.0703 0.0
H1669 H 0.02233 0.56101 0.0333 0.0
H1670 H 0.04884 0.5928 0.04409 0.0
C1671 C 0.15307 0.69358 0.07654 0.0
C1672 C 0.12243 0.6483 0.05314 0.0
H1673 H 0.07852 0.6293 0.03381 0.0
C1674 C 0.12246 0.62998 0.05518 0.0
C1675 C 0.1063 0.64808 0.04551 0.0
C1676 C 0.10579 0.66748 0.04304 0.0
C1677 C 0.10676 0.61135 0.04975 0.0
C1678 C 0.09093 0.61116 0.04173 0.0
C1679 C 0.09071 0.62948 0.03989 0.0
C1680 C 0.07479 0.59217 0.03494 0.0
C1681 C 0.10712 0.59202 0.05287 0.0
C1682 C 0.08055 0.58144 0.02603 0.0
C1683 C 0.0655 0.56319 0.01999 0.0
C1684 C 0.04428 0.55545 0.02247 0.0
C1685 C 0.03851 0.56648 0.03116 0.0
C1686 C 0.05363 0.5847 0.03731 0.0
H1687 H 0.116 0.59375 0.06222 0.0
H1688 H 0.09117 0.5788 0.05392 0.0
H1689 H 0.11482 0.58853 0.04462 0.0
H1690 H 0.09674 0.58712 0.02381 0.0
H1691 H 0.0706 0.55504 0.01352 0.0
H1692 H 0.28296 0.42463 0.04899 0.0
H1693 H 0.31705 0.43572 0.03945 0.0
H1694 H 0.34406 0.48908 0.06534 0.0
H1695 H 0.30994 0.47782 0.0752 0.0
H1696 H 0.34491 0.47231 0.02643 0.0
H1697 H 0.37898 0.46158 0.07313 0.0
H1698 H 0.35139 0.45102 0.0708 0.0
H1699 H 0.3678 0.47781 0.07448 0.0
C1700 C 0.29615 0.43868 0.05273 0.0
C1701 C 0.29374 0.4502 0.06299 0.0
C1702 C 0.31562 0.44508 0.04718 0.0
C1703 C 0.33316 0.46308 0.05179 0.0
C1704 C 0.33078 0.47498 0.06176 0.0
H1705 H 0.45806 0.51429 0.01719 0.0
H1706 H 0.42511 0.5108 0.02471 0.0
C1707 C 0.31124 0.46861 0.0673 0.0
C1708 C 0.3539 0.46894 0.04628 0.0
H1709 H 0.40048 0.47287 0.0543 0.0
C1710 C 0.35719 0.47274 0.03255 0.0
C1711 C 0.36978 0.46917 0.05426 0.0
C1712 C 0.36689 0.46454 0.06897 0.0
C1713 C 0.37581 0.4765 0.02656 0.0
C1714 C 0.39153 0.47643 0.03449 0.0
C1715 C 0.38842 0.473 0.04826 0.0
C1716 C 0.41073 0.47841 0.02859 0.0
C1717 C 0.37811 0.47927 0.01169 0.0
C1718 C 0.41349 0.46136 0.02814 0.0
C1719 C 0.43216 0.46327 0.02372 0.0
C1720 C 0.44846 0.48227 0.01963 0.0
C1721 C 0.44561 0.49934 0.0199 0.0
C1722 C 0.42683 0.49739 0.02428 0.0
H1723 H 0.36456 0.47918 0.00691 0.0
H1724 H 0.39232 0.49393 0.00942 0.0
H1725 H 0.37978 0.46664 0.00725 0.0
H1726 H 0.40132 0.44661 0.03149 0.0
H1727 H 0.43406 0.44995 0.02379 0.0
H1728 H 0.54687 0.83096 0.05407 0.0
H1729 H 0.53207 0.85054 0.04434 0.0
H1730 H 0.57872 0.90508 0.06472 0.0
H1731 H 0.59347 0.88564 0.07461 0.0
H1732 H 0.51692 0.87497 0.05692 0.0
H1733 H 0.58496 0.92069 0.0248 0.0
H1734 H 0.58037 0.8974 0.03267 0.0
H1735 H 0.59136 0.92096 0.04216 0.0
C1736 C 0.55381 0.84707 0.05663 0.0
C1737 C 0.57147 0.85679 0.06504 0.0
C1738 C 0.54539 0.85823 0.05101 0.0
C1739 C 0.55454 0.8793 0.05363 0.0
C1740 C 0.57172 0.88891 0.06235 0.0
H1741 H 0.53939 0.98038 0.03312 0.0
H1742 H 0.54916 0.95627 0.04161 0.0
C1743 C 0.58013 0.87778 0.06798 0.0
C1744 C 0.54639 0.89141 0.04714 0.0
H1745 H 0.56033 0.93186 0.02655 0.0
C1746 C 0.52628 0.88729 0.05017 0.0
C1747 C 0.55864 0.90736 0.03828 0.0
C1748 C 0.57996 0.9118 0.03416 0.0
C1749 C 0.51843 0.89935 0.04503 0.0
C1750 C 0.53094 0.91567 0.03647 0.0
C1751 C 0.55081 0.91938 0.03316 0.0
C1752 C 0.52428 0.92988 0.03142 0.0
C1753 C 0.49717 0.89504 0.04918 0.0
C1754 C 0.50702 0.92303 0.02283 0.0
C1755 C 0.50129 0.93683 0.01795 0.0
C1756 C 0.51287 0.95773 0.02149 0.0
C1757 C 0.53011 0.96444 0.03014 0.0
C1758 C 0.53577 0.95067 0.035 0.0
H1759 H 0.49137 0.88475 0.05789 0.0
H1760 H 0.49738 0.90949 0.05174 0.0
H1761 H 0.48607 0.88752 0.04074 0.0
H1762 H 0.4981 0.90707 0.0198 0.0
H1763 H 0.48778 0.93108 0.01146 0.0
H1764 H 0.96521 0.19432 0.40816 0.0
H1765 H 0.99261 0.22224 0.39552 0.0
H1766 H 0.01461 0.18204 0.38214 0.0
H1767 H 0.98679 0.15386 0.39428 0.0
H1768 H 0.03394 0.23844 0.39995 0.0
H1769 H 0.01498 0.20966 0.34765 0.0
H1770 H 0.99667 0.19837 0.36104 0.0
H1771 H 0.01674 0.19201 0.35868 0.0
C1772 C 0.97555 0.19127 0.40226 0.0
C1773 C 0.97379 0.17183 0.40227 0.0
C1774 C 0.99129 0.20729 0.3951 0.0
C1775 C 0.00553 0.20419 0.38774 0.0
C1776 C 0.00357 0.18472 0.38751 0.0
H1777 H 0.12486 0.28358 0.35219 0.0
H1778 H 0.09244 0.2544 0.35992 0.0
C1779 C 0.98782 0.16868 0.39463 0.0
C1780 C 0.02345 0.22172 0.38129 0.0
H1781 H 0.04886 0.23846 0.35168 0.0
C1782 C 0.03706 0.23852 0.38937 0.0
C1783 C 0.0276 0.22176 0.36749 0.0
C1784 C 0.01312 0.20457 0.35818 0.0
C1785 C 0.0549 0.25514 0.38412 0.0
C1786 C 0.05913 0.25511 0.37036 0.0
C1787 C 0.04553 0.2384 0.36223 0.0
C1788 C 0.07779 0.2723 0.36438 0.0
C1789 C 0.06942 0.27238 0.39341 0.0
C1790 C 0.08007 0.2919 0.36404 0.0
C1791 C 0.0985 0.30851 0.35957 0.0
C1792 C 0.11482 0.30576 0.35515 0.0
C1793 C 0.11237 0.28606 0.35524 0.0
C1794 C 0.0939 0.26941 0.3597 0.0
H1795 H 0.06638 0.26801 0.40407 0.0
H1796 H 0.08585 0.27721 0.39126 0.0
H1797 H 0.06727 0.28575 0.3919 0.0
H1798 H 0.06774 0.2944 0.36751 0.0
H1799 H 0.10013 0.3236 0.35971 0.0
H1800 H 0.79851 0.75228 0.39062 0.0
H1801 H 0.7732 0.76105 0.38198 0.0
H1802 H 0.81483 0.82457 0.39195 0.0
H1803 H 0.84043 0.81594 0.40061 0.0
H1804 H 0.75703 0.78441 0.39846 0.0
H1805 H 0.7954 0.82089 0.35081 0.0
H1806 H 0.80022 0.80242 0.35898 0.0
H1807 H 0.81092 0.82775 0.3659 0.0
C1808 C 0.80244 0.76817 0.39083 0.0
C1809 C 0.82157 0.78344 0.39624 0.0
C1810 C 0.7879 0.77313 0.38595 0.0
C1811 C 0.79222 0.79346 0.38622 0.0
C1812 C 0.8113 0.8088 0.39154 0.0
H1813 H 0.71675 0.84436 0.35672 0.0
H1814 H 0.74537 0.84011 0.36498 0.0
C1815 C 0.82583 0.80383 0.39656 0.0
C1816 C 0.77629 0.7983 0.38142 0.0
H1817 H 0.76337 0.81874 0.35534 0.0
C1818 C 0.75841 0.79198 0.38906 0.0
C1819 C 0.77827 0.80833 0.36922 0.0
C1820 C 0.79716 0.81523 0.36065 0.0
C1821 C 0.74235 0.79531 0.38479 0.0
C1822 C 0.74393 0.80468 0.37233 0.0
C1823 C 0.76207 0.81142 0.36483 0.0
C1824 C 0.72675 0.80723 0.36685 0.0
C1825 C 0.724 0.78903 0.39381 0.0
C1826 C 0.70682 0.79016 0.3649 0.0
C1827 C 0.69048 0.79258 0.36019 0.0
C1828 C 0.69387 0.81203 0.35691 0.0
C1829 C 0.71381 0.82912 0.35876 0.0
C1830 C 0.73016 0.82671 0.36358 0.0
H1831 H 0.72807 0.78824 0.40439 0.0
H1832 H 0.71804 0.79985 0.39319 0.0
H1833 H 0.71135 0.77358 0.39072 0.0
H1834 H 0.70388 0.77492 0.36707 0.0
H1835 H 0.67518 0.77921 0.35898 0.0
H1836 H 0.23285 0.0425 0.41173 0.0
H1837 H 0.21842 0.00778 0.40251 0.0
H1838 H 0.22276 0.03075 0.36271 0.0
H1839 H 0.23725 0.06552 0.37184 0.0
H1840 H 0.18337 0.98328 0.38651 0.0
H1841 H 0.25633 0.00136 0.36061 0.0
H1842 H 0.25514 0.01824 0.37303 0.0
H1843 H 0.24595 0.01751 0.35627 0.0
C1844 C 0.23049 0.04012 0.40103 0.0
C1845 C 0.23637 0.05677 0.3925 0.0
C1846 C 0.22231 0.0203 0.39578 0.0
C1847 C 0.21987 0.01677 0.38192 0.0
C1848 C 0.22496 0.03322 0.37341 0.0
H1849 H 0.15471 0.89555 0.34324 0.0
H1850 H 0.16468 0.93009 0.35115 0.0
C1851 C 0.23323 0.05306 0.37865 0.0
C1852 C 0.21259 0.99595 0.37638 0.0
H1853 H 0.22747 0.96833 0.35682 0.0
C1854 C 0.19295 0.97998 0.37999 0.0
C1855 C 0.22527 0.9917 0.36801 0.0
C1856 C 0.24692 0.00804 0.36433 0.0
C1857 C 0.18564 0.95981 0.37544 0.0
C1858 C 0.19821 0.95564 0.36691 0.0
C1859 C 0.21781 0.97163 0.36329 0.0
C1860 C 0.19184 0.93464 0.36213 0.0
C1861 C 0.16482 0.94307 0.38012 0.0
C1862 C 0.20402 0.92591 0.36545 0.0
C1863 C 0.19857 0.90636 0.36078 0.0
C1864 C 0.18086 0.89513 0.35261 0.0
C1865 C 0.16859 0.90386 0.34935 0.0
C1866 C 0.17412 0.92351 0.354 0.0
H1867 H 0.1594 0.94795 0.389 0.0
H1868 H 0.15316 0.93897 0.37198 0.0
H1869 H 0.16549 0.92912 0.38265 0.0
H1870 H 0.21777 0.93426 0.37169 0.0
H1871 H 0.20837 0.90014 0.36353 0.0
H1872 H 0.51955 0.62888 0.26585 0.0
H1873 H 0.54301 0.66355 0.2744 0.0
H1874 H 0.52159 0.64394 0.31439 0.0
H1875 H 0.49805 0.60923 0.30592 0.0
H1876 H 0.53593 0.69131 0.28881 0.0
H1877 H 0.58451 0.66842 0.3179 0.0
H1878 H 0.56577 0.65186 0.30547 0.0
H1879 H 0.5574 0.6544 0.32184 0.0
C1880 C 0.51961 0.63199 0.27644 0.0
C1881 C 0.50703 0.61624 0.28522 0.0
C1882 C 0.5331 0.6518 0.28132 0.0
C1883 C 0.53432 0.65622 0.29506 0.0
C1884 C 0.52125 0.64073 0.30379 0.0
H1885 H 0.5957 0.77732 0.33275 0.0
H1886 H 0.57042 0.74343 0.32402 0.0
C1887 C 0.5078 0.62092 0.29893 0.0
C1888 C 0.54953 0.67694 0.30026 0.0
H1889 H 0.59172 0.70254 0.32099 0.0
C1890 C 0.54814 0.6938 0.29584 0.0
C1891 C 0.56564 0.68016 0.30927 0.0
C1892 C 0.56861 0.6628 0.31382 0.0
C1893 C 0.56228 0.71378 0.30033 0.0
C1894 C 0.57801 0.71692 0.30965 0.0
C1895 C 0.57954 0.70008 0.31394 0.0
C1896 C 0.59329 0.73756 0.31493 0.0
C1897 C 0.56051 0.73138 0.29484 0.0
C1898 C 0.6146 0.74536 0.31301 0.0
C1899 C 0.62915 0.76461 0.31818 0.0
C1900 C 0.62267 0.77642 0.32547 0.0
C1901 C 0.60128 0.76857 0.32735 0.0
C1902 C 0.58676 0.74928 0.32221 0.0
H1903 H 0.55141 0.72709 0.28534 0.0
H1904 H 0.55244 0.73599 0.30219 0.0
H1905 H 0.57608 0.74483 0.29305 0.0
H1906 H 0.61999 0.73654 0.30745 0.0
H1907 H 0.64546 0.77015 0.31651 0.0
H1908 H 0.38504 0.90504 0.30243 0.0
H1909 H 0.35129 0.89624 0.31159 0.0
H1910 H 0.32077 0.85081 0.28035 0.0
H1911 H 0.35456 0.85937 0.27116 0.0
H1912 H 0.30482 0.87659 0.28316 0.0
H1913 H 0.30952 0.84664 0.33255 0.0
H1914 H 0.33134 0.87141 0.32922 0.0
H1915 H 0.32689 0.84972 0.31909 0.0
C1916 C 0.3712 0.89285 0.29765 0.0
C1917 C 0.3726 0.88286 0.28606 0.0
C1918 C 0.35187 0.88783 0.30292 0.0
C1919 C 0.33347 0.87264 0.29679 0.0
C1920 C 0.33476 0.86252 0.28529 0.0
H1921 H 0.20726 0.82573 0.32667 0.0
H1922 H 0.24016 0.82889 0.31948 0.0
C1923 C 0.35411 0.86751 0.28001 0.0
C1924 C 0.31292 0.86838 0.30184 0.0
H1925 H 0.28248 0.85465 0.32962 0.0
C1926 C 0.29989 0.87164 0.29328 0.0
C1927 C 0.30635 0.86172 0.31502 0.0
C1928 C 0.31915 0.85696 0.32447 0.0
C1929 C 0.28082 0.86903 0.29764 0.0
C1930 C 0.27468 0.86326 0.31099 0.0
C1931 C 0.28735 0.85934 0.31944 0.0
C1932 C 0.25528 0.86152 0.3163 0.0
C1933 C 0.26733 0.87245 0.28792 0.0
C1934 C 0.25301 0.87886 0.31718 0.0
C1935 C 0.23433 0.87711 0.32141 0.0
C1936 C 0.21767 0.85806 0.32507 0.0
C1937 C 0.22 0.84071 0.32431 0.0
C1938 C 0.23875 0.84247 0.32011 0.0
H1939 H 0.27168 0.87182 0.27739 0.0
H1940 H 0.2507 0.86085 0.28917 0.0
H1941 H 0.2692 0.88779 0.28983 0.0
H1942 H 0.26564 0.89374 0.31441 0.0
H1943 H 0.23282 0.89066 0.32174 0.0
H1944 H 0.13694 0.48417 0.25525 0.0
H1945 H 0.139 0.45804 0.26827 0.0
H1946 H 0.14168 0.49034 0.30472 0.0
H1947 H 0.1398 0.51668 0.29175 0.0
H1948 H 0.17159 0.46477 0.28562 0.0
H1949 H 0.09625 0.43092 0.312 0.0
H1950 H 0.10165 0.44669 0.29746 0.0
H1951 H 0.11213 0.45828 0.31351 0.0
C1952 C 0.13795 0.48572 0.26604 0.0
C1953 C 0.13826 0.50254 0.27247 0.0
C1954 C 0.13903 0.47073 0.27346 0.0
C1955 C 0.14031 0.47217 0.28745 0.0
C1956 C 0.14032 0.48875 0.29394 0.0
H1957 H 0.18294 0.40566 0.33697 0.0
H1958 H 0.17833 0.43246 0.32685 0.0
C1959 C 0.13923 0.50377 0.28651 0.0
C1960 C 0.1427 0.45683 0.29515 0.0
H1961 H 0.1194 0.41947 0.31838 0.0
C1962 C 0.16021 0.45488 0.2928 0.0
C1963 C 0.12773 0.44389 0.30443 0.0
C1964 C 0.10828 0.44485 0.30696 0.0
C1965 C 0.16316 0.4403 0.29948 0.0
C1966 C 0.14835 0.42754 0.3089 0.0
C1967 C 0.13082 0.42945 0.31125 0.0
C1968 C 0.15034 0.41144 0.31591 0.0
C1969 C 0.18184 0.4383 0.29616 0.0
C1970 C 0.13577 0.39078 0.31342 0.0
C1971 C 0.13825 0.37542 0.31927 0.0
C1972 C 0.15531 0.38046 0.32777 0.0
C1973 C 0.16956 0.40122 0.33055 0.0
C1974 C 0.16705 0.41657 0.32469 0.0
H1975 H 0.18925 0.44615 0.28675 0.0
H1976 H 0.19352 0.44531 0.30436 0.0
H1977 H 0.17744 0.42194 0.29518 0.0
H1978 H 0.12275 0.38653 0.30669 0.0
H1979 H 0.12694 0.35961 0.31695 0.0
H1980 H 0.35665 0.48838 0.27343 0.0
H1981 H 0.3225 0.46705 0.28339 0.0
H1982 H 0.35002 0.44622 0.31278 0.0
H1983 H 0.38418 0.46782 0.30311 0.0
H1984 H 0.30256 0.42496 0.2852 0.0
H1985 H 0.31326 0.46014 0.33564 0.0
H1986 H 0.33061 0.47313 0.32203 0.0
H1987 H 0.33314 0.45429 0.33139 0.0
C1988 C 0.35548 0.47956 0.28217 0.0
C1989 C 0.37313 0.47975 0.28744 0.0
C1990 C 0.33596 0.46733 0.28782 0.0
C1991 C 0.33375 0.45524 0.29894 0.0
C1992 C 0.35139 0.45571 0.30438 0.0
H1993 H 0.22915 0.34252 0.32383 0.0
H1994 H 0.26286 0.37066 0.31684 0.0
C1995 C 0.37087 0.46786 0.29872 0.0
C1996 C 0.31284 0.44082 0.30416 0.0
H1997 H 0.28387 0.42643 0.33257 0.0
C1998 C 0.29841 0.42544 0.29552 0.0
C1999 C 0.30736 0.44153 0.31761 0.0
C2000 C 0.32183 0.45828 0.32718 0.0
C2001 C 0.27897 0.41032 0.30006 0.0
C2002 C 0.2739 0.41046 0.31364 0.0
C2003 C 0.28795 0.42625 0.3222 0.0
C2004 C 0.25422 0.39395 0.31909 0.0
C2005 C 0.26401 0.39418 0.29032 0.0
C2006 C 0.23843 0.39786 0.32297 0.0
C2007 C 0.21917 0.38179 0.32694 0.0
C2008 C 0.21564 0.36169 0.32739 0.0
C2009 C 0.23163 0.35793 0.32375 0.0
C2010 C 0.25081 0.37395 0.31973 0.0
H2011 H 0.26823 0.39881 0.27979 0.0
H2012 H 0.26424 0.37977 0.29186 0.0
H2013 H 0.24792 0.39099 0.29197 0.0
H2014 H 0.24077 0.41319 0.32248 0.0
H2015 H 0.20695 0.38504 0.32928 0.0
H2016 H 0.49694 0.87179 0.29932 0.0
H2017 H 0.52114 0.86204 0.30873 0.0
H2018 H 0.56144 0.88861 0.27509 0.0
H2019 H 0.53708 0.89785 0.26542 0.0
H2020 H 0.55633 0.85074 0.28214 0.0
H2021 H 0.57689 0.90264 0.32645 0.0
H2022 H 0.54966 0.88473 0.32422 0.0
H2023 H 0.56302 0.90442 0.31216 0.0
C2024 C 0.51081 0.87532 0.29383 0.0
C2025 C 0.51512 0.88576 0.28165 0.0
C2026 C 0.52475 0.86994 0.2993 0.0
C2027 C 0.5433 0.87493 0.29274 0.0
C2028 C 0.54731 0.88475 0.28039 0.0
H2029 H 0.6587 0.88722 0.32068 0.0
H2030 H 0.62996 0.89156 0.31266 0.0
C2031 C 0.53342 0.89014 0.27492 0.0
C2032 C 0.55874 0.87022 0.29873 0.0
H2033 H 0.59215 0.88179 0.32525 0.0
C2034 C 0.56408 0.85743 0.2916 0.0
C2035 C 0.569 0.87914 0.31102 0.0
C2036 C 0.56454 0.89364 0.31889 0.0
C2037 C 0.57948 0.85342 0.29636 0.0
C2038 C 0.58966 0.86226 0.30867 0.0
C2039 C 0.58422 0.87492 0.31586 0.0
C2040 C 0.60679 0.85947 0.31389 0.0
C2041 C 0.5852 0.84029 0.28796 0.0
C2042 C 0.60329 0.84001 0.31732 0.0
C2043 C 0.61969 0.83754 0.3219 0.0
C2044 C 0.63978 0.85454 0.32338 0.0
C2045 C 0.64327 0.87394 0.31985 0.0
C2046 C 0.62689 0.87642 0.31529 0.0
H2047 H 0.57917 0.83833 0.27755 0.0
H2048 H 0.60231 0.84705 0.28767 0.0
H2049 H 0.57847 0.82491 0.29244 0.0
H2050 H 0.58788 0.82674 0.31643 0.0
H2051 H 0.61665 0.82232 0.32415 0.0
H2052 H 0.16116 0.64041 0.29007 0.0
H2053 H 0.16234 0.66962 0.30174 0.0
H2054 H 0.11466 0.66602 0.27533 0.0
H2055 H 0.11365 0.63707 0.2634 0.0
H2056 H 0.17161 0.70698 0.28828 0.0
H2057 H 0.09525 0.67088 0.31362 0.0
H2058 H 0.10714 0.65638 0.30795 0.0
H2059 H 0.09479 0.66473 0.29616 0.0
C2060 C 0.15088 0.64578 0.28675 0.0
C2061 C 0.13739 0.63645 0.27575 0.0
C2062 C 0.15148 0.66238 0.29349 0.0
C2063 C 0.13847 0.66983 0.28945 0.0
C2064 C 0.12457 0.66024 0.27873 0.0
H2065 H 0.12873 0.77578 0.31342 0.0
H2066 H 0.12334 0.74376 0.30336 0.0
C2067 C 0.124 0.64368 0.27195 0.0
C2068 C 0.14066 0.68862 0.29577 0.0
H2069 H 0.11541 0.70706 0.31469 0.0
C2070 C 0.15937 0.70701 0.29411 0.0
C2071 C 0.12456 0.68857 0.30322 0.0
C2072 C 0.10432 0.66909 0.30547 0.0
C2073 C 0.16239 0.72548 0.29961 0.0
C2074 C 0.14644 0.72542 0.30728 0.0
C2075 C 0.12763 0.70703 0.30885 0.0
C2076 C 0.14914 0.74432 0.31381 0.0
C2077 C 0.18248 0.74494 0.29692 0.0
C2078 C 0.16518 0.75502 0.3232 0.0
C2079 C 0.16844 0.77339 0.32885 0.0
C2080 C 0.15548 0.78127 0.32542 0.0
C2081 C 0.13904 0.7702 0.31628 0.0
C2082 C 0.13588 0.75186 0.31054 0.0
H2083 H 0.1903 0.74333 0.28794 0.0
H2084 H 0.17982 0.758 0.29545 0.0
H2085 H 0.19319 0.74861 0.30558 0.0
H2086 H 0.17535 0.74928 0.32605 0.0
H2087 H 0.18138 0.78156 0.33572 0.0
H2088 H 0.85986 0.02838 0.39253 0.0
H2089 H 0.83102 0.99835 0.38166 0.0
H2090 H 0.78737 0.00858 0.40374 0.0
H2091 H 0.81613 0.03848 0.41486 0.0
H2092 H 0.79995 0.96362 0.39575 0.0
H2093 H 0.76584 3e-05 0.36443 0.0
H2094 H 0.79201 0.01407 0.37108 0.0
H2095 H 0.77038 0.00774 0.38176 0.0
C2096 C 0.84413 0.02428 0.39508 0.0
C2097 C 0.84033 0.03582 0.40462 0.0
C2098 C 0.82768 0.00718 0.3888 0.0
C2099 C 0.80708 0.00135 0.39182 0.0
C2100 C 0.80316 0.01303 0.4011 0.0
H2101 H 0.6895 0.8961 0.36503 0.0
H2102 H 0.71602 0.92805 0.3757 0.0
C2103 C 0.81963 0.03014 0.40743 0.0
C2104 C 0.78982 0.98231 0.38585 0.0
H2105 H 0.74786 0.96385 0.36474 0.0
C2106 C 0.78856 0.96365 0.38896 0.0
C2107 C 0.77489 0.98242 0.37712 0.0
C2108 C 0.77582 0.00212 0.37328 0.0
C2109 C 0.77277 0.94506 0.38356 0.0
C2110 C 0.75812 0.94518 0.37454 0.0
C2111 C 0.75915 0.96381 0.37161 0.0
C2112 C 0.74201 0.92615 0.36779 0.0
C2113 C 0.77176 0.92543 0.38771 0.0
C2114 C 0.74783 0.91469 0.35963 0.0
C2115 C 0.73278 0.8964 0.35363 0.0
C2116 C 0.71153 0.88932 0.35545 0.0
C2117 C 0.70571 0.90107 0.36341 0.0
C2118 C 0.72084 0.91936 0.3695 0.0
H2119 H 0.77992 0.92733 0.39741 0.0
H2120 H 0.75544 0.91285 0.38861 0.0
H2121 H 0.77945 0.92084 0.38006 0.0
H2122 H 0.76408 0.91982 0.35797 0.0
H2123 H 0.73789 0.8877 0.34771 0.0
H2124 H 0.95449 0.7545 0.39074 0.0
H2125 H 0.98814 0.76501 0.38075 0.0
H2126 H 0.00999 0.82742 0.39326 0.0
H2127 H 0.97637 0.81691 0.40365 0.0
H2128 H 0.00842 0.79368 0.36056 0.0
H2129 H 0.05528 0.81617 0.40763 0.0
H2130 H 0.02729 0.80099 0.40752 0.0
H2131 H 0.03988 0.82805 0.40481 0.0
C2132 C 0.9665 0.77044 0.39153 0.0
C2133 C 0.96276 0.78482 0.39815 0.0
C2134 C 0.9857 0.77645 0.38572 0.0
C2135 C 1.00169 0.79694 0.3864 0.0
C2136 C 0.99799 0.81145 0.3928 0.0
H2137 H 0.12644 0.84929 0.35162 0.0
H2138 H 0.09336 0.84551 0.35915 0.0
C2139 C 0.9787 0.80545 0.39862 0.0
C2140 C 0.02206 0.8029 0.38023 0.0
H2141 H 0.0732 0.8201 0.3875 0.0
C2142 C 0.02259 0.79951 0.36645 0.0
C2143 C 0.04059 0.81065 0.38791 0.0
C2144 C 0.04085 0.81407 0.40281 0.0
C2145 C 0.04103 0.80331 0.36021 0.0
C2146 C 0.0594 0.81066 0.36791 0.0
C2147 C 0.05906 0.81455 0.38162 0.0
C2148 C 0.07874 0.81288 0.36211 0.0
C2149 C 0.04092 0.79976 0.34538 0.0
C2150 C 0.08135 0.79577 0.36113 0.0
C2151 C 0.10014 0.79787 0.3568 0.0
C2152 C 0.11661 0.81709 0.3532 0.0
C2153 C 0.11387 0.8342 0.35396 0.0
C2154 C 0.09504 0.8321 0.35837 0.0
H2155 H 0.02512 0.79293 0.34088 0.0
H2156 H 0.05108 0.81468 0.34061 0.0
H2157 H 0.04728 0.78954 0.34319 0.0
H2158 H 0.06899 0.78084 0.36406 0.0
H2159 H 0.10197 0.78451 0.35649 0.0
H2160 H 0.22925 0.19509 0.41345 0.0
H2161 H 0.21373 0.21468 0.40476 0.0
H2162 H 0.21977 0.19756 0.36451 0.0
H2163 H 0.23518 0.17783 0.37311 0.0
H2164 H 0.23586 0.24798 0.38506 0.0
H2165 H 0.15811 0.1862 0.36756 0.0
H2166 H 0.17299 0.18215 0.38025 0.0
H2167 H 0.18017 0.18378 0.36304 0.0
C2168 C 0.22692 0.1952 0.40276 0.0
C2169 C 0.23345 0.18497 0.39395 0.0
C2170 C 0.21814 0.20644 0.39783 0.0
C2171 C 0.21548 0.20739 0.38403 0.0
C2172 C 0.22149 0.19679 0.37521 0.0
H2173 H 0.17304 0.27316 0.33446 0.0
H2174 H 0.18305 0.24922 0.34325 0.0
C2175 C 0.23043 0.18569 0.38012 0.0
C2176 C 0.2079 0.22072 0.3788 0.0
H2177 H 0.16732 0.22019 0.3624 0.0
C2178 C 0.22084 0.24195 0.38016 0.0
C2179 C 0.18844 0.21272 0.37228 0.0
C2180 C 0.17398 0.18996 0.37072 0.0
C2181 C 0.21494 0.25551 0.37502 0.0
C2182 C 0.19525 0.24755 0.36871 0.0
C2183 C 0.18234 0.22626 0.3673 0.0
C2184 C 0.18788 0.26115 0.36352 0.0
C2185 C 0.23013 0.27821 0.37608 0.0
C2186 C 0.18666 0.27538 0.37205 0.0
C2187 C 0.18115 0.28917 0.36699 0.0
C2188 C 0.17632 0.28874 0.35335 0.0
C2189 C 0.17656 0.27384 0.34497 0.0
C2190 C 0.18235 0.26018 0.34999 0.0
H2191 H 0.24634 0.28143 0.37741 0.0
H2192 H 0.22939 0.28626 0.36706 0.0
H2193 H 0.22631 0.28465 0.38492 0.0
H2194 H 0.19021 0.27598 0.38261 0.0
H2195 H 0.18068 0.30017 0.3738 0.0
H2196 H 0.66899 0.51559 0.75309 0.0
H2197 H 0.69552 0.54356 0.74015 0.0
H2198 H 0.65156 0.52917 0.70785 0.0
H2199 H 0.62499 0.50053 0.72058 0.0
H2200 H 0.68988 0.53613 0.69914 0.0
H2201 H 0.69965 0.59844 0.73346 0.0
H2202 H 0.7027 0.5792 0.74182 0.0
H2203 H 0.67797 0.57269 0.73448 0.0
C2204 C 0.66494 0.51824 0.74319 0.0
C2205 C 0.64483 0.50576 0.73788 0.0
C2206 C 0.68009 0.53441 0.73587 0.0
C2207 C 0.67544 0.53867 0.72312 0.0
C2208 C 0.65543 0.52624 0.71772 0.0
H2209 H 0.76389 0.65471 0.68749 0.0
H2210 H 0.73142 0.6251 0.69471 0.0
C2211 C 0.64023 0.50998 0.72505 0.0
C2212 C 0.69169 0.55589 0.71542 0.0
H2213 H 0.72644 0.60708 0.71749 0.0
C2214 C 0.69775 0.5517 0.70306 0.0
C2215 C 0.7017 0.57624 0.72042 0.0
C2216 C 0.69504 0.58198 0.7332 0.0
C2217 C 0.71409 0.56722 0.69582 0.0
C2218 C 0.7249 0.58739 0.70121 0.0
C2219 C 0.7183 0.59164 0.71335 0.0
C2220 C 0.74349 0.60429 0.69479 0.0
C2221 C 0.71944 0.56186 0.68243 0.0
C2222 C 0.76102 0.60243 0.69217 0.0
C2223 C 0.77946 0.61927 0.68786 0.0
C2224 C 0.78074 0.63831 0.68616 0.0
C2225 C 0.76316 0.64009 0.68855 0.0
C2226 C 0.74465 0.62321 0.69269 0.0
H2227 H 0.70598 0.54809 0.67787 0.0
H2228 H 0.72463 0.57474 0.67543 0.0
H2229 H 0.7322 0.55844 0.68374 0.0
H2230 H 0.76082 0.58826 0.69411 0.0
H2231 H 0.79294 0.6176 0.68652 0.0
H2232 H 0.50601 0.14959 0.73764 0.0
H2233 H 0.48039 0.15837 0.72927 0.0
H2234 H 0.44019 0.09559 0.71688 0.0
H2235 H 0.46544 0.08666 0.72532 0.0
H2236 H 0.46337 0.15215 0.70222 0.0
H2237 H 0.40279 0.11008 0.73989 0.0
H2238 H 0.4296 0.11703 0.74238 0.0
H2239 H 0.41273 0.09529 0.73202 0.0
C2240 C 0.49163 0.13764 0.73322 0.0
C2241 C 0.4878 0.11743 0.73213 0.0
C2242 C 0.47707 0.1427 0.7284 0.0
C2243 C 0.45829 0.12758 0.72259 0.0
C2244 C 0.45445 0.10744 0.72148 0.0
H2245 H 0.34482 0.11377 0.68981 0.0
H2246 H 0.37378 0.1102 0.69819 0.0
C2247 C 0.46902 0.10241 0.72619 0.0
C2248 C 0.44279 0.13276 0.71737 0.0
H2249 H 0.39253 0.12135 0.72081 0.0
C2250 C 0.44791 0.14559 0.70631 0.0
C2251 C 0.42268 0.12422 0.72277 0.0
C2252 C 0.41661 0.11103 0.735 0.0
C2253 C 0.43315 0.14934 0.70011 0.0
C2254 C 0.41275 0.14032 0.70527 0.0
C2255 C 0.40797 0.12806 0.71666 0.0
C2256 C 0.39586 0.14276 0.69895 0.0
C2257 C 0.43945 0.16219 0.68775 0.0
C2258 C 0.3985 0.1622 0.69638 0.0
C2259 C 0.38204 0.16418 0.69122 0.0
C2260 C 0.36252 0.14677 0.68875 0.0
C2261 C 0.35982 0.1274 0.69143 0.0
C2262 C 0.37635 0.12539 0.69628 0.0
H2263 H 0.45287 0.1624 0.68278 0.0
H2264 H 0.42642 0.15639 0.6805 0.0
H2265 H 0.4441 0.1782 0.69054 0.0
H2266 H 0.41304 0.17593 0.69877 0.0
H2267 H 0.3844 0.17935 0.68973 0.0
H2268 H 0.9078 0.39835 0.70663 0.0
H2269 H 0.89335 0.36401 0.69699 0.0
H2270 H 0.87753 0.33838 0.73636 0.0
H2271 H 0.89087 0.37259 0.74604 0.0
H2272 H 0.90636 0.33757 0.70082 0.0
H2273 H 0.82435 0.3019 0.71629 0.0
H2274 H 0.84199 0.32915 0.71744 0.0
H2275 H 0.84204 0.31257 0.73021 0.0
C2276 C 0.90077 0.3854 0.71324 0.0
C2277 C 0.90043 0.38829 0.72714 0.0
C2278 C 0.89267 0.36577 0.70771 0.0
C2279 C 0.88408 0.34857 0.71592 0.0
C2280 C 0.88363 0.35135 0.72978 0.0
H2281 H 0.87461 0.23234 0.69771 0.0
H2282 H 0.88408 0.26659 0.70564 0.0
C2283 C 0.89157 0.37099 0.73533 0.0
C2284 C 0.87685 0.3279 0.71007 0.0
H2285 H 0.83581 0.27901 0.7087 0.0
C2286 C 0.89087 0.32481 0.70245 0.0
C2287 C 0.85654 0.31132 0.71201 0.0
C2288 C 0.8403 0.31392 0.71931 0.0
C2289 C 0.88533 0.3055 0.69703 0.0
C2290 C 0.86542 0.28868 0.69961 0.0
C2291 C 0.85118 0.29186 0.70689 0.0
C2292 C 0.85923 0.26762 0.69502 0.0
C2293 C 0.90083 0.3034 0.68849 0.0
C2294 C 0.84159 0.25645 0.68684 0.0
C2295 C 0.8359 0.23666 0.68244 0.0
C2296 C 0.84782 0.22772 0.68608 0.0
C2297 C 0.8652 0.2388 0.69454 0.0
C2298 C 0.87076 0.25849 0.69901 0.0
H2299 H 0.91229 0.31827 0.68412 0.0
H2300 H 0.90953 0.29812 0.69476 0.0
H2301 H 0.89299 0.29209 0.68023 0.0
H2302 H 0.83231 0.26311 0.68377 0.0
H2303 H 0.82213 0.2284 0.67622 0.0
H2304 H 0.1646 0.94317 0.63883 0.0
H2305 H 0.18758 0.97781 0.64762 0.0
H2306 H 0.20989 0.99828 0.60789 0.0
H2307 H 0.18706 0.96369 0.59903 0.0
H2308 H 0.23042 -8e-05 0.6463 0.0
H2309 H 0.19584 0.04123 0.62131 0.0
H2310 H 0.18249 0.01367 0.62234 0.0
H2311 H 0.20224 0.02657 0.61005 0.0
C2312 C 0.17437 0.95505 0.63196 0.0
C2313 C 0.17397 0.95066 0.61822 0.0
C2314 C 0.18742 0.97485 0.63699 0.0
C2315 C 0.20025 0.99067 0.62839 0.0
C2316 C 0.19978 0.98641 0.61467 0.0
H2317 H 0.31195 0.1043 0.64945 0.0
H2318 H 0.28631 0.07036 0.64092 0.0
C2319 C 0.18671 0.96662 0.60962 0.0
C2320 C 0.21491 0.01137 0.63388 0.0
H2321 H 0.22874 0.06177 0.63199 0.0
C2322 C 0.23 0.01344 0.64322 0.0
C2323 C 0.21418 0.02895 0.62996 0.0
C2324 C 0.1977 0.02755 0.62046 0.0
C2325 C 0.24464 0.03265 0.64856 0.0
C2326 C 0.24438 0.05031 0.64427 0.0
C2327 C 0.22903 0.04822 0.63515 0.0
C2328 C 0.25988 0.07108 0.64921 0.0
C2329 C 0.26011 0.03386 0.65886 0.0
C2330 C 0.25347 0.08299 0.65637 0.0
C2331 C 0.26808 0.10247 0.66119 0.0
C2332 C 0.28939 0.11042 0.65893 0.0
C2333 C 0.2957 0.09861 0.65149 0.0
C2334 C 0.28108 0.07914 0.64667 0.0
H2335 H 0.25493 0.01881 0.66354 0.0
H2336 H 0.27518 0.0387 0.65396 0.0
H2337 H 0.26269 0.04527 0.66684 0.0
H2338 H 0.23717 0.07713 0.65833 0.0
H2339 H 0.26261 0.11129 0.66664 0.0
H2340 H 0.05109 0.23971 0.63466 0.0
H2341 H 0.01729 0.2305 0.6439 0.0
H2342 H 0.9873 0.18186 0.61454 0.0
H2343 H 0.02116 0.19074 0.60532 0.0
H2344 H 0.97013 0.2072 0.61614 0.0
H2345 H 0.97741 0.18172 0.6666 0.0
H2346 H 0.99868 0.20638 0.66234 0.0
H2347 H 0.99438 0.18403 0.65305 0.0
C2348 C 0.03739 0.22674 0.63032 0.0
C2349 C 0.03896 0.21592 0.61925 0.0
C2350 C 0.01803 0.2215 0.63564 0.0
C2351 C 0.99976 0.2053 0.63006 0.0
C2352 C 1.00121 0.19437 0.61906 0.0
H2353 H 0.87359 0.15764 0.6604 0.0
H2354 H 0.90651 0.16086 0.65317 0.0
C2355 C 0.02059 0.19956 0.61375 0.0
C2356 C 0.97913 0.20072 0.63512 0.0
H2357 H 0.94945 0.18825 0.66321 0.0
C2358 C 0.96555 0.20289 0.6264 0.0
C2359 C 0.97305 0.19492 0.64849 0.0
C2360 C 0.98654 0.19142 0.65815 0.0
C2361 C 0.9464 0.20008 0.63078 0.0
C2362 C 0.94074 0.19515 0.64428 0.0
C2363 C 0.95395 0.19228 0.65291 0.0
C2364 C 0.92133 0.19337 0.64959 0.0
C2365 C 0.93236 0.20243 0.62094 0.0
C2366 C 0.91889 0.21062 0.65023 0.0
C2367 C 0.90022 0.20885 0.6545 0.0
C2368 C 0.88373 0.18985 0.65843 0.0
C2369 C 0.88621 0.17258 0.65786 0.0
C2370 C 0.90497 0.17438 0.65363 0.0
H2371 H 0.93662 0.2015 0.61044 0.0
H2372 H 0.9159 0.19049 0.62241 0.0
H2373 H 0.93365 0.2176 0.62253 0.0
H2374 H 0.93138 0.22544 0.64724 0.0
H2375 H 0.89858 0.22232 0.65466 0.0
H2376 H 0.77655 0.80919 0.59454 0.0
H2377 H 0.77925 0.78281 0.60693 0.0
H2378 H 0.82664 0.82938 0.63242 0.0
H2379 H 0.8244 0.85585 0.61992 0.0
H2380 H 0.83712 0.80126 0.62101 0.0
H2381 H 0.75987 0.76154 0.64505 0.0
H2382 H 0.75938 0.76492 0.62734 0.0
H2383 H 0.77079 0.78693 0.63832 0.0
C2384 C 0.78748 0.81379 0.60282 0.0
C2385 C 0.80024 0.83461 0.60626 0.0
C2386 C 0.78886 0.7987 0.60996 0.0
C2387 C 0.80297 0.80415 0.62068 0.0
C2388 C 0.81553 0.82487 0.62424 0.0
H2389 H 0.84583 0.73873 0.67036 0.0
H2390 H 0.83993 0.76451 0.66004 0.0
C2391 C 0.81413 0.83995 0.61714 0.0
C2392 C 0.80562 0.7884 0.62764 0.0
H2393 H 0.78057 0.74589 0.64685 0.0
C2394 C 0.82481 0.78921 0.62672 0.0
C2395 C 0.78946 0.77266 0.63501 0.0
C2396 C 0.76875 0.77146 0.63662 0.0
C2397 C 0.82822 0.77449 0.6328 0.0
C2398 C 0.81212 0.7588 0.64025 0.0
C2399 C 0.79289 0.75797 0.64116 0.0
C2400 C 0.81493 0.74302 0.64706 0.0
C2401 C 0.84886 0.77558 0.63091 0.0
C2402 C 0.80234 0.72229 0.64354 0.0
C2403 C 0.80544 0.70742 0.64958 0.0
C2404 C 0.82116 0.71303 0.65932 0.0
C2405 C 0.83348 0.7338 0.66299 0.0
C2406 C 0.83028 0.74863 0.657 0.0
H2407 H 0.85725 0.78496 0.62216 0.0
H2408 H 0.85875 0.78276 0.63992 0.0
H2409 H 0.84682 0.76006 0.62952 0.0
H2410 H 0.79034 0.71764 0.63593 0.0
H2411 H 0.79563 0.69158 0.64652 0.0
H2412 H 0.02435 0.7924 0.60237 0.0
H2413 H 0.99122 0.77138 0.61346 0.0
H2414 H 0.01213 0.81394 0.64683 0.0
H2415 H 0.04554 0.83488 0.6359 0.0
H2416 H 0.9953 0.77289 0.6542 0.0
H2417 H 0.94275 0.782 0.61915 0.0
H2418 H 0.95945 0.77454 0.61103 0.0
H2419 H 0.97052 0.79904 0.61941 0.0
C2420 C 0.02188 0.79734 0.61204 0.0
C2421 C 0.03759 0.81531 0.61825 0.0
C2422 C 0.00286 0.78541 0.61831 0.0
C2423 C 0.99911 0.79124 0.63089 0.0
C2424 C 0.01465 0.80927 0.63707 0.0
H2425 H 0.87398 0.7206 0.66374 0.0
H2426 H 0.90772 0.7497 0.65785 0.0
C2427 C 0.03367 0.82127 0.63078 0.0
C2428 C 0.97943 0.77781 0.63787 0.0
H2429 H 0.92675 0.75402 0.63424 0.0
C2430 C 0.9803 0.76896 0.64994 0.0
C2431 C 0.95989 0.77292 0.63241 0.0
C2432 C 0.95803 0.78277 0.61985 0.0
C2433 C 0.96213 0.7546 0.65635 0.0
C2434 C 0.94257 0.74877 0.65046 0.0
C2435 C 0.94172 0.75837 0.63873 0.0
C2436 C 0.9229 0.73175 0.65569 0.0
C2437 C 0.96412 0.74567 0.6693 0.0
C2438 C 0.92022 0.71203 0.65655 0.0
C2439 C 0.90106 0.69548 0.66008 0.0
C2440 C 0.8842 0.69832 0.66286 0.0
C2441 C 0.88686 0.71806 0.6621 0.0
C2442 C 0.9061 0.73467 0.6586 0.0
H2443 H 0.97866 0.75649 0.67476 0.0
H2444 H 0.95076 0.7417 0.6759 0.0
H2445 H 0.96471 0.73153 0.66709 0.0
H2446 H 0.93273 0.70926 0.65398 0.0
H2447 H 0.89923 0.68032 0.66031 0.0
H2448 H 0.16195 0.20479 0.63314 0.0
H2449 H 0.18584 0.19486 0.64286 0.0
H2450 H 0.2279 0.22321 0.61025 0.0
H2451 H 0.2039 0.23268 0.60028 0.0
H2452 H 0.22226 0.18479 0.61676 0.0
H2453 H 0.24082 0.23489 0.66187 0.0
H2454 H 0.21372 0.21711 0.65895 0.0
H2455 H 0.22776 0.23738 0.64738 0.0
C2456 C 0.17616 0.20869 0.62794 0.0
C2457 C 0.18106 0.21968 0.61597 0.0
C2458 C 0.18991 0.2032 0.6336 0.0
C2459 C 0.20883 0.2086 0.62741 0.0
C2460 C 0.21346 0.21902 0.61527 0.0
H2461 H 0.32402 0.22116 0.65517 0.0
H2462 H 0.29486 0.22519 0.64766 0.0
C2463 C 0.19978 0.22454 0.60962 0.0
C2464 C 0.224 0.20366 0.63356 0.0
H2465 H 0.25655 0.21448 0.66048 0.0
C2466 C 0.22966 0.19116 0.62636 0.0
C2467 C 0.23378 0.21214 0.64604 0.0
C2468 C 0.2289 0.22627 0.654 0.0
C2469 C 0.24497 0.1871 0.63122 0.0
C2470 C 0.25474 0.19559 0.64369 0.0
C2471 C 0.24892 0.20789 0.65097 0.0
C2472 C 0.272 0.19301 0.64889 0.0
C2473 C 0.25109 0.17434 0.62276 0.0
C2474 C 0.26878 0.17361 0.65221 0.0
C2475 C 0.28542 0.17131 0.6565 0.0
C2476 C 0.30548 0.18842 0.65778 0.0
C2477 C 0.30864 0.20779 0.65447 0.0
C2478 C 0.29202 0.2101 0.65021 0.0
H2479 H 0.24507 0.17235 0.61234 0.0
H2480 H 0.26824 0.18144 0.62249 0.0
H2481 H 0.24466 0.15895 0.62717 0.0
H2482 H 0.25344 0.16023 0.65137 0.0
H2483 H 0.28262 0.15613 0.6586 0.0
H2484 H 0.8292 0.97526 0.6202 0.0
H2485 H 0.83039 0.00408 0.6324 0.0
H2486 H 0.78082 0.99965 0.60751 0.0
H2487 H 0.77972 0.971 0.59508 0.0
H2488 H 0.83827 0.04137 0.62008 0.0
H2489 H 0.76265 0.00306 0.64625 0.0
H2490 H 0.77462 0.98915 0.63964 0.0
H2491 H 0.76164 0.99783 0.62861 0.0
C2492 C 0.81853 0.98039 0.61731 0.0
C2493 C 0.80444 0.97088 0.60661 0.0
C2494 C 0.81915 0.99677 0.62435 0.0
C2495 C 0.80558 0.00385 0.62093 0.0
C2496 C 0.79117 0.99416 0.61046 0.0
H2497 H 0.79439 0.10774 0.64787 0.0
H2498 H 0.78926 0.07616 0.63727 0.0
C2499 C 0.79057 0.97778 0.60337 0.0
C2500 C 0.80755 0.02227 0.62771 0.0
H2501 H 0.7822 0.03925 0.64783 0.0
C2502 C 0.82606 0.04092 0.62619 0.0
C2503 C 0.7915 0.0216 0.63557 0.0
C2504 C 0.77151 0.00183 0.63774 0.0
C2505 C 0.82892 0.05902 0.63222 0.0
C2506 C 0.813 0.05833 0.64026 0.0
C2507 C 0.7944 0.0397 0.64171 0.0
C2508 C 0.81547 0.07685 0.64724 0.0
C2509 C 0.84878 0.07878 0.62967 0.0
C2510 C 0.83163 0.08746 0.65658 0.0
C2511 C 0.83473 0.1056 0.66255 0.0
C2512 C 0.82152 0.11333 0.65948 0.0
C2513 C 0.80491 0.10228 0.65044 0.0
C2514 C 0.8019 0.08419 0.6444 0.0
H2515 H 0.85658 0.0777 0.62052 0.0
H2516 H 0.84581 0.09172 0.6286 0.0
H2517 H 0.85963 0.08229 0.63824 0.0
H2518 H 0.84204 0.08186 0.65911 0.0
H2519 H 0.84778 0.11373 0.66936 0.0
H2520 H 0.49936 0.38572 0.72755 0.0
H2521 H 0.46937 0.35654 0.71667 0.0
H2522 H 0.4845 0.31513 0.7364 0.0
H2523 H 0.51395 0.344 0.74761 0.0
H2524 H 0.46828 0.32668 0.69956 0.0
H2525 H 0.42334 0.29163 0.74525 0.0
H2526 H 0.44504 0.31747 0.74507 0.0
H2527 H 0.44938 0.29614 0.74623 0.0
C2528 C 0.49615 0.37038 0.72968 0.0
C2529 C 0.50907 0.36721 0.73847 0.0
C2530 C 0.47909 0.35375 0.7234 0.0
C2531 C 0.47452 0.33366 0.72589 0.0
C2532 C 0.48749 0.33047 0.73453 0.0
H2533 H 0.40494 0.2219 0.68071 0.0
H2534 H 0.43102 0.25446 0.69063 0.0
C2535 C 0.50451 0.34704 0.7408 0.0
C2536 C 0.45655 0.31595 0.71922 0.0
H2537 H 0.41282 0.27045 0.72552 0.0
C2538 C 0.45603 0.31448 0.70522 0.0
C2539 C 0.44039 0.3002 0.7266 0.0
C2540 C 0.4394 0.30149 0.74161 0.0
C2541 C 0.44023 0.29727 0.69843 0.0
C2542 C 0.42477 0.28097 0.70586 0.0
C2543 C 0.42482 0.28284 0.71983 0.0
C2544 C 0.4088 0.26157 0.69941 0.0
C2545 C 0.44026 0.29671 0.68335 0.0
C2546 C 0.38759 0.25445 0.70129 0.0
C2547 C 0.37257 0.23572 0.69566 0.0
C2548 C 0.37851 0.22375 0.68806 0.0
C2549 C 0.39978 0.23089 0.68627 0.0
C2550 C 0.41475 0.24957 0.69191 0.0
H2551 H 0.4489 0.31237 0.67922 0.0
H2552 H 0.44802 0.28821 0.67993 0.0
H2553 H 0.4242 0.28886 0.67919 0.0
H2554 H 0.38266 0.26338 0.70714 0.0
H2555 H 0.35634 0.23066 0.69728 0.0
H2556 H 0.64594 0.11889 0.75077 0.0
H2557 H 0.67879 0.12796 0.74002 0.0
H2558 H 0.65555 0.1378 0.70297 0.0
H2559 H 0.62236 0.12812 0.71354 0.0
H2560 H 0.67301 0.11358 0.69968 0.0
H2561 H 0.72644 0.18325 0.72896 0.0
H2562 H 0.71088 0.16168 0.73928 0.0
H2563 H 0.6986 0.17227 0.72918 0.0
C2564 C 0.64781 0.12305 0.74034 0.0
C2565 C 0.63144 0.12274 0.73304 0.0
C2566 C 0.66672 0.12847 0.73424 0.0
C2567 C 0.66978 0.13385 0.72072 0.0
C2568 C 0.65361 0.13386 0.71344 0.0
H2569 H 0.79296 0.18141 0.68538 0.0
H2570 H 0.75967 0.17751 0.69232 0.0
C2571 C 0.63468 0.12846 0.71954 0.0
C2572 C 0.68934 0.13815 0.714 0.0
H2573 H 0.74215 0.16787 0.71604 0.0
C2574 C 0.68812 0.12561 0.70316 0.0
C2575 C 0.70906 0.15398 0.71842 0.0
C2576 C 0.71138 0.1687 0.72951 0.0
C2577 C 0.70607 0.12797 0.69693 0.0
C2578 C 0.72587 0.14312 0.7018 0.0
C2579 C 0.72704 0.15615 0.71234 0.0
C2580 C 0.74554 0.1452 0.69653 0.0
C2581 C 0.70348 0.11412 0.68521 0.0
C2582 C 0.74881 0.12842 0.69657 0.0
C2583 C 0.76767 0.13056 0.69235 0.0
C2584 C 0.78373 0.14954 0.68803 0.0
C2585 C 0.78064 0.16644 0.68819 0.0
C2586 C 0.76167 0.16425 0.69229 0.0
H2587 H 0.68862 0.1092 0.67978 0.0
H2588 H 0.7164 0.1217 0.67809 0.0
H2589 H 0.70313 0.10016 0.68891 0.0
H2590 H 0.73696 0.11373 0.7002 0.0
H2591 H 0.76985 0.11742 0.69265 0.0
H2592 H 0.92528 0.55277 0.74215 0.0
H2593 H 0.91031 0.57225 0.73263 0.0
H2594 H 0.86309 0.51773 0.71253 0.0
H2595 H 0.8781 0.49813 0.72189 0.0
H2596 H 0.90591 0.57636 0.70477 0.0
H2597 H 0.83007 0.54191 0.7307 0.0
H2598 H 0.85156 0.53936 0.73675 0.0
H2599 H 0.83629 0.52425 0.72269 0.0
C2600 C 0.91168 0.54489 0.73573 0.0
C2601 C 0.90292 0.5239 0.73275 0.0
C2602 C 0.90309 0.55603 0.73035 0.0
C2603 C 0.88551 0.54639 0.72197 0.0
C2604 C 0.87644 0.52537 0.71917 0.0
H2605 H 0.82119 0.59924 0.67868 0.0
H2606 H 0.83158 0.57537 0.68725 0.0
C2607 C 0.88503 0.5142 0.72455 0.0
C2608 C 0.87754 0.55872 0.71555 0.0
H2609 H 0.83611 0.56644 0.71424 0.0
C2610 C 0.89065 0.57418 0.70683 0.0
C2611 C 0.85754 0.55566 0.71815 0.0
C2612 C 0.84304 0.53951 0.72765 0.0
C2613 C 0.88437 0.58684 0.70072 0.0
C2614 C 0.86461 0.58422 0.70362 0.0
C2615 C 0.85127 0.56841 0.71207 0.0
C2616 C 0.85805 0.59846 0.6985 0.0
C2617 C 0.89892 0.60289 0.69116 0.0
C2618 C 0.86927 0.61924 0.70218 0.0
C2619 C 0.86352 0.6329 0.69724 0.0
C2620 C 0.84633 0.62606 0.68854 0.0
C2621 C 0.83477 0.6051 0.68513 0.0
C2622 C 0.84058 0.59141 0.69009 0.0
H2623 H 0.91051 0.59913 0.68711 0.0
H2624 H 0.89024 0.60457 0.68268 0.0
H2625 H 0.9075 0.61784 0.69652 0.0
H2626 H 0.88254 0.62491 0.7089 0.0
H2627 H 0.87268 0.64886 0.70021 0.0
H2628 H 0.49478 0.93263 0.20084 0.0
H2629 H 0.50222 0.94437 0.17779 0.0
H2630 H 0.44784 0.95076 0.17688 0.0
H2631 H 0.43989 0.93842 0.1998 0.0
H2632 H 0.45335 0.93357 0.15314 0.0
H2633 H 0.52539 0.00476 0.1685 0.0
H2634 H 0.52429 0.98149 0.17356 0.0
H2635 H 0.50625 0.98834 0.18036 0.0
C2636 C 0.48417 0.93617 0.19568 0.0
C2637 C 0.46681 0.93472 0.20225 0.0
C2638 C 0.48859 0.9431 0.18253 0.0
C2639 C 0.4758 0.94881 0.17569 0.0
C2640 C 0.45801 0.94659 0.182 0.0
H2641 H 0.50721 0.02977 0.10868 0.0
H2642 H 0.49666 0.01231 0.13004 0.0
C2643 C 0.45358 0.93967 0.19515 0.0
C2644 C 0.48135 0.95783 0.16215 0.0
H2645 H 0.5183 0.99905 0.14534 0.0
C2646 C 0.46757 0.94786 0.1514 0.0
C2647 C 0.49978 0.97662 0.15995 0.0
C2648 C 0.51473 0.98857 0.1712 0.0
C2649 C 0.47178 0.95613 0.1385 0.0
C2650 C 0.49038 0.97475 0.13626 0.0
C2651 C 0.50411 0.98472 0.14703 0.0
C2652 C 0.49568 0.98465 0.12298 0.0
C2653 C 0.45603 0.94514 0.12746 0.0
C2654 C 0.49859 0.9749 0.11184 0.0
C2655 C 0.5047 0.9849 0.09957 0.0
C2656 C 0.5082 0.00493 0.09824 0.0
C2657 C 0.50496 0.01448 0.10939 0.0
C2658 C 0.49884 0.00449 0.1216 0.0
H2659 H 0.44058 0.93395 0.13144 0.0
H2660 H 0.45429 0.95617 0.12111 0.0
H2661 H 0.46138 0.93665 0.12103 0.0
H2662 H 0.49666 0.95976 0.11271 0.0
H2663 H 0.5073 0.9772 0.09125 0.0
H2664 H 0.1028 0.56979 0.18146 0.0
H2665 H 0.08078 0.55937 0.16142 0.0
H2666 H 0.03289 0.50773 0.18225 0.0
H2667 H 0.05468 0.51835 0.20252 0.0
H2668 H 0.06426 0.52108 0.14754 0.0
H2669 H 0.00239 0.53582 0.16587 0.0
H2670 H 0.02749 0.5466 0.17401 0.0
H2671 H 0.00846 0.52015 0.17621 0.0
C2672 C 0.08746 0.55639 0.18186 0.0
C2673 C 0.08042 0.54499 0.19362 0.0
C2674 C 0.07496 0.55038 0.17038 0.0
C2675 C 0.05515 0.53292 0.17041 0.0
C2676 C 0.04804 0.52143 0.18209 0.0
H2677 H 0.96234 0.48105 0.10588 0.0
H2678 H 0.98063 0.48711 0.12736 0.0
C2679 C 0.06057 0.52741 0.19361 0.0
C2680 C 0.04231 0.52658 0.15805 0.0
H2681 H 0.9982 0.52198 0.14407 0.0
C2682 C 0.04978 0.5212 0.14678 0.0
C2683 C 0.02338 0.52664 0.15715 0.0
C2684 C 0.01494 0.53274 0.1689 0.0
C2685 C 0.0389 0.51605 0.13456 0.0
C2686 C 0.02028 0.51671 0.13353 0.0
C2687 C 0.01252 0.52156 0.14489 0.0
C2688 C 0.00909 0.51315 0.12062 0.0
C2689 C 0.04739 0.50984 0.12287 0.0
C2690 C 0.01891 0.52603 0.10982 0.0
C2691 C 0.00852 0.52266 0.09759 0.0
C2692 C 0.98802 0.50641 0.09593 0.0
C2693 C 0.97807 0.49377 0.10686 0.0
C2694 C 0.98851 0.49715 0.11911 0.0
H2695 H 0.05804 0.50441 0.12622 0.0
H2696 H 0.03467 0.49754 0.11676 0.0
H2697 H 0.05631 0.52327 0.11642 0.0
H2698 H 0.03461 0.53879 0.11088 0.0
H2699 H 0.01647 0.53292 0.08945 0.0
H2700 H 0.48374 0.5582 0.19901 0.0
H2701 H 0.49017 0.55482 0.17543 0.0
H2702 H 0.45164 0.48926 0.17763 0.0
H2703 H 0.44535 0.49244 0.20126 0.0
H2704 H 0.50924 0.53311 0.16623 0.0
H2705 H 0.43123 0.50303 0.14299 0.0
H2706 H 0.43797 0.51544 0.15925 0.0
H2707 H 0.43178 0.48928 0.15738 0.0
C2708 C 0.47653 0.54305 0.19447 0.0
C2709 C 0.46409 0.52558 0.20207 0.0
C2710 C 0.48013 0.54117 0.18097 0.0
C2711 C 0.47124 0.52181 0.17475 0.0
C2712 C 0.45832 0.50438 0.18216 0.0
H2713 H 0.51364 0.48353 0.1062 0.0
H2714 H 0.50164 0.48793 0.12801 0.0
C2715 C 0.45474 0.50624 0.19568 0.0
C2716 C 0.47692 0.51976 0.16086 0.0
H2717 H 0.45701 0.50183 0.12956 0.0
C2718 C 0.49783 0.5264 0.1582 0.0
C2719 C 0.46204 0.51111 0.15037 0.0
C2720 C 0.43951 0.50446 0.15256 0.0
C2721 C 0.5042 0.52417 0.14543 0.0
C2722 C 0.48924 0.51493 0.13506 0.0
C2723 C 0.4684 0.50875 0.13758 0.0
C2724 C 0.4951 0.51138 0.12159 0.0
C2725 C 0.5269 0.53172 0.14309 0.0
C2726 C 0.49493 0.5228 0.11069 0.0
C2727 C 0.50199 0.52049 0.0982 0.0
C2728 C 0.50923 0.50661 0.0964 0.0
C2729 C 0.50862 0.49467 0.10728 0.0
C2730 C 0.50166 0.49707 0.11974 0.0
H2731 H 0.5369 0.54209 0.15128 0.0
H2732 H 0.5294 0.51842 0.1425 0.0
H2733 H 0.53189 0.53994 0.13349 0.0
H2734 H 0.48991 0.53393 0.11194 0.0
H2735 H 0.5024 0.53006 0.0901 0.0
H2736 H 0.97793 0.46115 0.80751 0.0
H2737 H 0.987 0.46385 0.83124 0.0
H2738 H 0.9571 0.49933 0.83845 0.0
H2739 H 0.94803 0.49679 0.81467 0.0
H2740 H 0.0116 0.50035 0.84553 0.0
H2741 H 0.9332 0.45591 0.86769 0.0
H2742 H 0.93784 0.45431 0.85014 0.0
H2743 H 0.93665 0.47596 0.85665 0.0
C2744 C 0.97326 0.46953 0.81414 0.0
C2745 C 0.96233 0.47883 0.80919 0.0
C2746 C 0.97836 0.47096 0.8277 0.0
C2747 C 0.97255 0.48162 0.83662 0.0
C2748 C 0.96138 0.49069 0.83178 0.0
H2749 H 1.00172 0.51166 0.92152 0.0
H2750 H 0.98833 0.50838 0.89864 0.0
C2751 C 0.95623 0.48924 0.81819 0.0
C2752 C 0.9793 0.48415 0.85082 0.0
H2753 H 0.96166 0.47277 0.88278 0.0
C2754 C 1.00068 0.4943 0.85367 0.0
C2755 C 0.96502 0.47638 0.86142 0.0
C2756 C 0.94188 0.46488 0.85888 0.0
C2757 C 0.00818 0.49686 0.86684 0.0
C2758 C 0.99392 0.48874 0.87743 0.0
C2759 C 0.97253 0.47892 0.87462 0.0
C2760 C 1.00102 0.48985 0.89143 0.0
C2761 C 0.03134 0.50843 0.86933 0.0
C2762 C 0.01213 0.48009 0.895 0.0
C2763 C 0.01972 0.48187 0.90802 0.0
C2764 C 0.01627 0.49337 0.91777 0.0
C2765 C 0.00455 0.5026 0.91427 0.0
C2766 C 0.99696 0.50081 0.9012 0.0
H2767 H 0.03984 0.51823 0.86075 0.0
H2768 H 0.03538 0.51823 0.87847 0.0
H2769 H 0.03682 0.49735 0.87077 0.0
H2770 H 0.01502 0.47117 0.88768 0.0
H2771 H 0.02829 0.47421 0.91046 0.0
H2772 H 0.54601 0.43526 0.83076 0.0
H2773 H 0.53455 0.44469 0.85111 0.0
H2774 H 0.54059 0.49813 0.8318 0.0
H2775 H 0.55166 0.48855 0.81125 0.0
H2776 H 0.55624 0.48176 0.86649 0.0
H2777 H 0.48076 0.46909 0.84651 0.0
H2778 H 0.49531 0.45892 0.83833 0.0
H2779 H 0.50325 0.48553 0.8369 0.0
C2780 C 0.54466 0.44889 0.83077 0.0
C2781 C 0.54956 0.46105 0.81933 0.0
C2782 C 0.53826 0.45433 0.84245 0.0
C2783 C 0.53648 0.47196 0.84291 0.0
C2784 C 0.54157 0.48429 0.83159 0.0
H2785 H 0.49299 0.52168 0.90591 0.0
H2786 H 0.50691 0.51609 0.88519 0.0
C2787 C 0.54806 0.47889 0.81989 0.0
C2788 C 0.5295 0.47744 0.85534 0.0
H2789 H 0.48987 0.48218 0.86855 0.0
C2790 C 0.54175 0.48189 0.86696 0.0
C2791 C 0.51063 0.47765 0.85589 0.0
C2792 C 0.49658 0.4724 0.84379 0.0
C2793 C 0.53566 0.48661 0.87912 0.0
C2794 C 0.51658 0.48644 0.87974 0.0
C2795 C 0.50448 0.48228 0.86807 0.0
C2796 C 0.50864 0.4901 0.89245 0.0
C2797 C 0.54986 0.49203 0.89115 0.0
C2798 C 0.5048 0.47722 0.90337 0.0
C2799 C 0.49682 0.48036 0.91522 0.0
C2800 C 0.49232 0.49632 0.91633 0.0
C2801 C 0.4961 0.50913 0.90534 0.0
C2802 C 0.50414 0.50602 0.89351 0.0
H2803 H 0.56612 0.49728 0.88819 0.0
H2804 H 0.54966 0.50421 0.89736 0.0
H2805 H 0.54456 0.47826 0.89738 0.0
H2806 H 0.50765 0.46452 0.90267 0.0
H2807 H 0.49374 0.46999 0.9234 0.0
H2808 H 0.5581 0.06699 0.81631 0.0
H2809 H 0.55094 0.05435 0.83919 0.0
H2810 H 0.49691 0.06134 0.83976 0.0
H2811 H 0.50401 0.07411 0.81692 0.0
H2812 H 0.54593 0.07085 0.86363 0.0
H2813 H 0.47364 0.00036 0.84768 0.0
H2814 H 0.49271 0.0172 0.83594 0.0
H2815 H 0.47475 0.02383 0.84314 0.0
C2816 C 0.5449 0.06619 0.82137 0.0
C2817 C 0.53152 0.07139 0.8147 0.0
C2818 C 0.54078 0.05887 0.83444 0.0
C2819 C 0.52318 0.05655 0.8411 0.0
C2820 C 0.51033 0.06259 0.83471 0.0
H2821 H 0.49144 0.02588 0.92508 0.0
H2822 H 0.50254 0.04385 0.90383 0.0
C2823 C 0.51441 0.06988 0.82165 0.0
C2824 C 0.5178 0.04699 0.85447 0.0
H2825 H 0.48073 0.00534 0.87088 0.0
C2826 C 0.53167 0.05654 0.86524 0.0
C2827 C 0.49933 0.02817 0.85651 0.0
C2828 C 0.4843 0.01665 0.8452 0.0
C2829 C 0.52744 0.04787 0.87803 0.0
C2830 C 0.50875 0.02926 0.88011 0.0
C2831 C 0.49499 0.01967 0.86931 0.0
C2832 C 0.50331 0.01905 0.89329 0.0
C2833 C 0.54323 0.05844 0.88911 0.0
C2834 C 0.49989 0.99909 0.89444 0.0
C2835 C 0.49351 0.98878 0.90653 0.0
C2836 C 0.49027 0.99816 0.91778 0.0
C2837 C 0.49404 0.01831 0.91668 0.0
C2838 C 0.50041 0.02862 0.90453 0.0
H2839 H 0.55872 0.06961 0.88518 0.0
H2840 H 0.53803 0.06689 0.8957 0.0
H2841 H 0.5448 0.04715 0.89528 0.0
H2842 H 0.50204 0.9914 0.88591 0.0
H2843 H 0.49105 0.97341 0.90706 0.0
H2844 H 0.10264 0.26128 0.53058 0.0
H2845 H 0.10977 0.27241 0.50736 0.0
H2846 H 0.17254 0.28444 0.51211 0.0
H2847 H 0.16542 0.27304 0.53521 0.0
H2848 H 0.13682 0.30917 0.49809 0.0
H2849 H 0.15678 0.25305 0.47737 0.0
H2850 H 0.14472 0.24989 0.49343 0.0
H2851 H 0.17234 0.2663 0.49179 0.0
C2852 C 0.11791 0.26614 0.52663 0.0
C2853 C 0.13343 0.26616 0.53474 0.0
C2854 C 0.12196 0.27246 0.51334 0.0
C2855 C 0.1416 0.27896 0.50786 0.0
C2856 C 0.15708 0.27893 0.51593 0.0
H2857 H 0.20897 0.34488 0.43864 0.0
H2858 H 0.19683 0.32717 0.45987 0.0
C2859 C 0.153 0.27245 0.52918 0.0
C2860 C 0.1463 0.28699 0.49401 0.0
H2861 H 0.16672 0.28299 0.46433 0.0
C2862 C 0.14309 0.30324 0.49067 0.0
C2863 C 0.15447 0.27927 0.48426 0.0
C2864 C 0.15707 0.26103 0.48684 0.0
C2865 C 0.14848 0.31241 0.47807 0.0
C2866 C 0.15722 0.30508 0.46851 0.0
C2867 C 0.1601 0.28862 0.47172 0.0
C2868 C 0.16426 0.31493 0.45533 0.0
C2869 C 0.14544 0.33031 0.4752 0.0
C2870 C 0.14993 0.31364 0.44563 0.0
C2871 C 0.15683 0.32372 0.43345 0.0
C2872 C 0.17819 0.3354 0.43079 0.0
C2873 C 0.19244 0.33627 0.44045 0.0
C2874 C 0.18553 0.32606 0.45255 0.0
H2875 H 0.1416 0.33617 0.48434 0.0
H2876 H 0.15964 0.34298 0.47074 0.0
H2877 H 0.13252 0.32547 0.46786 0.0
H2878 H 0.13343 0.30497 0.44753 0.0
H2879 H 0.14546 0.32282 0.42625 0.0
H2880 H 0.77215 0.88796 0.51058 0.0
H2881 H 0.74944 0.87903 0.49096 0.0
H2882 H 0.69666 0.86065 0.51642 0.0
H2883 H 0.71935 0.86995 0.5362 0.0
H2884 H 0.69096 0.83239 0.49459 0.0
H2885 H 0.72202 0.91237 0.47803 0.0
H2886 H 0.74142 0.9054 0.48134 0.0
H2887 H 0.7259 0.90617 0.49478 0.0
C2888 C 0.75575 0.88225 0.51204 0.0
C2889 C 0.74762 0.87989 0.52498 0.0
C2890 C 0.7428 0.87709 0.50081 0.0
C2891 C 0.72146 0.86947 0.50226 0.0
C2892 C 0.71313 0.86659 0.51512 0.0
H2893 H 0.63996 0.86061 0.43646 0.0
H2894 H 0.65739 0.86695 0.45825 0.0
C2895 C 0.72611 0.87183 0.52639 0.0
C2896 C 0.70793 0.86455 0.49029 0.0
H2897 H 0.70016 0.88599 0.46263 0.0
C2898 C 0.69282 0.84409 0.48764 0.0
C2899 C 0.71027 0.87991 0.48135 0.0
C2900 C 0.72564 0.90223 0.48403 0.0
C2901 C 0.68041 0.83849 0.47601 0.0
C2902 C 0.68337 0.85376 0.46678 0.0
C2903 C 0.69803 0.87429 0.46967 0.0
C2904 C 0.67178 0.84878 0.45392 0.0
C2905 C 0.66421 0.81632 0.4737 0.0
C2906 C 0.67415 0.83651 0.44427 0.0
C2907 C 0.66417 0.8328 0.43184 0.0
C2908 C 0.6517 0.84139 0.4288 0.0
C2909 C 0.64923 0.85355 0.43855 0.0
C2910 C 0.65926 0.85728 0.45097 0.0
H2911 H 0.66009 0.80763 0.48316 0.0
H2912 H 0.64989 0.81486 0.46914 0.0
H2913 H 0.67041 0.80918 0.46675 0.0
H2914 H 0.68404 0.8301 0.44626 0.0
H2915 H 0.66625 0.82323 0.42459 0.0
H2916 H 0.11369 0.82748 0.53412 0.0
H2917 H 0.12084 0.82394 0.51069 0.0
H2918 H 0.16217 0.88913 0.50883 0.0
H2919 H 0.15476 0.8929 0.53217 0.0
H2920 H 0.13513 0.87094 0.48573 0.0
H2921 H 0.17782 0.83086 0.49983 0.0
H2922 H 0.15192 0.81997 0.50617 0.0
H2923 H 0.17159 0.84498 0.51181 0.0
C2924 C 0.124 0.84112 0.52866 0.0
C2925 C 0.13378 0.86047 0.53505 0.0
C2926 C 0.12821 0.83904 0.51531 0.0
C2927 C 0.14226 0.85624 0.50811 0.0
C2928 C 0.15136 0.87566 0.51425 0.0
H2929 H 0.21263 0.86325 0.43828 0.0
H2930 H 0.20021 0.86673 0.46015 0.0
C2931 C 0.14722 0.87776 0.52761 0.0
C2932 C 0.14827 0.85392 0.49438 0.0
H2933 H 0.17371 0.8343 0.4768 0.0
C2934 C 0.1435 0.86287 0.48374 0.0
C2935 C 0.15941 0.84361 0.49187 0.0
C2936 C 0.16568 0.83443 0.50301 0.0
C2937 C 0.1495 0.86168 0.47061 0.0
C2938 C 0.16042 0.85115 0.4681 0.0
C2939 C 0.16522 0.84226 0.47875 0.0
C2940 C 0.16768 0.84971 0.45457 0.0
C2941 C 0.14458 0.8721 0.45959 0.0
C2942 C 0.15349 0.83897 0.44416 0.0
C2943 C 0.16055 0.83682 0.43163 0.0
C2944 C 0.18192 0.84529 0.42932 0.0
C2945 C 0.19606 0.85625 0.43976 0.0
C2946 C 0.189 0.85836 0.45225 0.0
H2947 H 0.14013 0.88314 0.46358 0.0
H2948 H 0.15809 0.88034 0.45292 0.0
H2949 H 0.1314 0.86039 0.45347 0.0
H2950 H 0.13695 0.83185 0.44581 0.0
H2951 H 0.14923 0.82804 0.42388 0.0
H2952 H 0.63077 0.78384 0.14312 0.0
H2953 H 0.63985 0.78622 0.16685 0.0
H2954 H 0.63741 0.84196 0.17063 0.0
H2955 H 0.62785 0.83937 0.14695 0.0
H2956 H 0.67362 0.81532 0.17909 0.0
H2957 H 0.60463 0.81146 0.2027 0.0
H2958 H 0.60494 0.80514 0.18529 0.0
H2959 H 0.61634 0.83145 0.19069 0.0
C2960 C 0.632 0.7965 0.14906 0.0
C2961 C 0.62861 0.81142 0.1432 0.0
C2962 C 0.63714 0.79783 0.16261 0.0
C2963 C 0.63907 0.81413 0.17059 0.0
C2964 C 0.63549 0.82895 0.16479 0.0
H2965 H 0.71255 0.85635 0.24377 0.0
H2966 H 0.69863 0.85223 0.22105 0.0
C2967 C 0.63012 0.82751 0.15124 0.0
C2968 C 0.64621 0.81628 0.18471 0.0
H2969 H 0.63441 0.82213 0.21681 0.0
C2970 C 0.66496 0.81668 0.18734 0.0
C2971 C 0.63481 0.81781 0.1955 0.0
C2972 C 0.61396 0.81624 0.19344 0.0
C2973 C 0.67278 0.81887 0.2004 0.0
C2974 C 0.66186 0.82131 0.21113 0.0
C2975 C 0.64291 0.82054 0.20855 0.0
C2976 C 0.66979 0.82446 0.22509 0.0
C2977 C 0.69249 0.81815 0.20258 0.0
C2978 C 0.65786 0.8107 0.23506 0.0
C2979 C 0.66571 0.81315 0.2481 0.0
C2980 C 0.68565 0.82939 0.25138 0.0
C2981 C 0.69731 0.84347 0.24147 0.0
C2982 C 0.68939 0.8411 0.22848 0.0
H2983 H 0.69547 0.81034 0.19412 0.0
H2984 H 0.70583 0.83401 0.20337 0.0
H2985 H 0.69184 0.8101 0.21193 0.0
H2986 H 0.64266 0.7978 0.23268 0.0
H2987 H 0.65641 0.80202 0.25551 0.0
H2988 H 0.20234 0.80903 0.14334 0.0
H2989 H 0.1904 0.81809 0.1637 0.0
H2990 H 0.21402 0.78668 0.18737 0.0
H2991 H 0.22596 0.77757 0.16713 0.0
H2992 H 0.17422 0.7762 0.19392 0.0
H2993 H 0.22446 0.86067 0.19258 0.0
H2994 H 0.20942 0.84944 0.17759 0.0
H2995 H 0.22916 0.84358 0.18236 0.0
C2996 C 0.20522 0.80428 0.1529 0.0
C2997 C 0.21506 0.79253 0.15361 0.0
C2998 C 0.19841 0.8095 0.16453 0.0
C2999 C 0.20153 0.80326 0.17708 0.0
C3000 C 0.21145 0.79165 0.1778 0.0
H3001 H 0.18814 0.84466 0.25578 0.0
H3002 H 0.20086 0.83723 0.23517 0.0
C3003 C 0.21818 0.78638 0.16621 0.0
C3004 C 0.19378 0.80809 0.18944 0.0
H3005 H 0.19802 0.84751 0.20891 0.0
C3006 C 0.17944 0.79179 0.19721 0.0
C3007 C 0.2008 0.82844 0.1938 0.0
C3008 C 0.21696 0.84657 0.18623 0.0
C3009 C 0.17177 0.79527 0.20914 0.0
C3010 C 0.17834 0.81561 0.2133 0.0
C3011 C 0.19286 0.83193 0.20562 0.0
C3012 C 0.17055 0.82025 0.22571 0.0
C3013 C 0.15703 0.77714 0.21732 0.0
C3014 C 0.14933 0.81337 0.22718 0.0
C3015 C 0.14198 0.81742 0.23898 0.0
C3016 C 0.15575 0.82858 0.24955 0.0
C3017 C 0.17707 0.83574 0.24794 0.0
C3018 C 0.18439 0.83165 0.23613 0.0
H3019 H 0.15784 0.76323 0.21465 0.0
H3020 H 0.16044 0.78042 0.22817 0.0
H3021 H 0.14091 0.77373 0.2154 0.0
H3022 H 0.13842 0.80484 0.21918 0.0
H3023 H 0.12546 0.81155 0.2399 0.0
H3024 H 0.18817 0.42504 0.15299 0.0
H3025 H 0.18161 0.41396 0.17626 0.0
H3026 H 0.20658 0.37412 0.16895 0.0
H3027 H 0.21345 0.38534 0.14584 0.0
H3028 H 0.15651 0.37679 0.18567 0.0
H3029 H 0.2363 0.40129 0.20314 0.0
H3030 H 0.23108 0.40983 0.18759 0.0
H3031 H 0.22947 0.38525 0.18848 0.0
C3032 C 0.19244 0.41406 0.15639 0.0
C3033 C 0.2015 0.40621 0.14757 0.0
C3034 C 0.18872 0.40777 0.1697 0.0
C3035 C 0.19395 0.39347 0.17448 0.0
C3036 C 0.20301 0.38564 0.16568 0.0
H3037 H 0.16056 0.31218 0.24069 0.0
H3038 H 0.17245 0.33089 0.21976 0.0
C3039 C 0.20688 0.39204 0.15242 0.0
C3040 C 0.18871 0.38571 0.18837 0.0
H3041 H 0.20862 0.37647 0.21661 0.0
C3042 C 0.16799 0.37702 0.19249 0.0
C3043 C 0.20366 0.38601 0.19734 0.0
C3044 C 0.2264 0.3963 0.19396 0.0
C3045 C 0.16173 0.36799 0.20507 0.0
C3046 C 0.17652 0.36763 0.21379 0.0
C3047 C 0.1973 0.37669 0.20985 0.0
C3048 C 0.17041 0.35702 0.22676 0.0
C3049 C 0.13919 0.35828 0.20887 0.0
C3050 C 0.16565 0.36568 0.23769 0.0
C3051 C 0.15892 0.35505 0.2497 0.0
C3052 C 0.15667 0.33549 0.25093 0.0
C3053 C 0.16188 0.32709 0.24001 0.0
C3054 C 0.16877 0.33779 0.22808 0.0
H3055 H 0.12929 0.35823 0.20051 0.0
H3056 H 0.13333 0.34228 0.21204 0.0
H3057 H 0.13767 0.36683 0.21747 0.0
H3058 H 0.16688 0.38054 0.23687 0.0
H3059 H 0.15492 0.36188 0.25789 0.0
H3060 H 0.82969 0.63112 0.87254 0.0
H3061 H 0.83558 0.64068 0.84903 0.0
H3062 H 0.77877 0.58576 0.83802 0.0
H3063 H 0.77266 0.57605 0.86164 0.0
H3064 H 0.83621 0.6141 0.82583 0.0
H3065 H 0.77594 0.63711 0.82234 0.0
H3066 H 0.78748 0.6366 0.83815 0.0
H3067 H 0.7693 0.61308 0.82993 0.0
C3068 C 0.81837 0.6211 0.86514 0.0
C3069 C 0.80061 0.6029 0.86897 0.0
C3070 C 0.82184 0.62653 0.85171 0.0
C3071 C 0.80755 0.61401 0.84182 0.0
C3072 C 0.78991 0.59568 0.84553 0.0
H3073 H 0.8087 0.64812 0.75804 0.0
H3074 H 0.79845 0.62899 0.77888 0.0
C3075 C 0.78651 0.59012 0.859 0.0
C3076 C 0.8112 0.62045 0.82768 0.0
H3077 H 0.7967 0.64254 0.80354 0.0
C3078 C 0.82747 0.62014 0.82088 0.0
C3079 C 0.79964 0.62815 0.82125 0.0
C3080 C 0.78213 0.62891 0.82823 0.0
C3081 C 0.83276 0.6277 0.80786 0.0
C3082 C 0.82188 0.63637 0.80163 0.0
C3083 C 0.80511 0.63599 0.8083 0.0
C3084 C 0.82841 0.64702 0.78862 0.0
C3085 C 0.84993 0.62625 0.80091 0.0
C3086 C 0.84864 0.66356 0.78712 0.0
C3087 C 0.85461 0.67435 0.77519 0.0
C3088 C 0.8404 0.66911 0.76449 0.0
C3089 C 0.82015 0.65244 0.76597 0.0
C3090 C 0.81421 0.64157 0.77793 0.0
H3091 H 0.85152 0.61336 0.80479 0.0
H3092 H 0.84717 0.62413 0.78995 0.0
H3093 H 0.86488 0.64057 0.80283 0.0
H3094 H 0.85977 0.66841 0.7953 0.0
H3095 H 0.87039 0.68691 0.77439 0.0
H3096 H 0.44197 0.23527 0.84654 0.0
H3097 H 0.41947 0.2253 0.82676 0.0
H3098 H 0.3711 0.1747 0.84808 0.0
H3099 H 0.39362 0.18456 0.86798 0.0
H3100 H 0.40179 0.1879 0.81267 0.0
H3101 H 0.34124 0.20338 0.83255 0.0
H3102 H 0.36628 0.21315 0.8406 0.0
H3103 H 0.34665 0.18679 0.84239 0.0
C3104 C 0.42659 0.22195 0.84702 0.0
C3105 C 0.41961 0.21066 0.85883 0.0
C3106 C 0.41371 0.21634 0.83573 0.0
C3107 C 0.39356 0.1994 0.836 0.0
C3108 C 0.38647 0.18806 0.84775 0.0
H3109 H 0.29899 0.1489 0.77238 0.0
H3110 H 0.31779 0.15463 0.79362 0.0
C3111 C 0.39935 0.1937 0.85909 0.0
C3112 C 0.38033 0.19342 0.82379 0.0
H3113 H 0.33595 0.1894 0.81069 0.0
C3114 C 0.38737 0.18818 0.81224 0.0
C3115 C 0.36146 0.19367 0.8233 0.0
C3116 C 0.35346 0.19969 0.83532 0.0
C3117 C 0.37614 0.18336 0.80017 0.0
C3118 C 0.35758 0.18416 0.79957 0.0
C3119 C 0.35024 0.18888 0.81119 0.0
C3120 C 0.34601 0.1809 0.78683 0.0
C3121 C 0.38422 0.17734 0.78817 0.0
C3122 C 0.35552 0.19403 0.7761 0.0
C3123 C 0.34484 0.19085 0.764 0.0
C3124 C 0.32435 0.17454 0.76242 0.0
C3125 C 0.31469 0.16167 0.7733 0.0
C3126 C 0.32543 0.16486 0.78542 0.0
H3127 H 0.39498 0.17186 0.79115 0.0
H3128 H 0.37129 0.16515 0.78213 0.0
H3129 H 0.3929 0.19088 0.78176 0.0
H3130 H 0.37122 0.20681 0.77709 0.0
H3131 H 0.35257 0.20129 0.75591 0.0
H3132 H 0.82603 0.17832 0.87353 0.0
H3133 H 0.83234 0.1758 0.84986 0.0
H3134 H 0.79079 0.19783 0.83941 0.0
H3135 H 0.78479 0.20095 0.86319 0.0
H3136 H 0.80393 0.15295 0.82931 0.0
H3137 H 0.84467 0.23651 0.81956 0.0
H3138 H 0.84023 0.22643 0.83625 0.0
H3139 H 0.81937 0.2259 0.82682 0.0
C3140 C 0.81838 0.18285 0.86622 0.0
C3141 C 0.80509 0.19007 0.87027 0.0
C3142 C 0.82188 0.18124 0.85269 0.0
C3143 C 0.81225 0.18687 0.84288 0.0
C3144 C 0.79863 0.1937 0.84683 0.0
H3145 H 0.81723 0.15902 0.75779 0.0
H3146 H 0.80442 0.16194 0.77975 0.0
C3147 C 0.79508 0.19529 0.86041 0.0
C3148 C 0.81666 0.18555 0.82858 0.0
H3149 H 0.8403 0.21463 0.80132 0.0
C3150 C 0.81172 0.16639 0.82314 0.0
C3151 C 0.827 0.20316 0.82061 0.0
C3152 C 0.83331 0.22422 0.82608 0.0
C3153 C 0.81713 0.1644 0.81001 0.0
C3154 C 0.82753 0.18202 0.80205 0.0
C3155 C 0.83219 0.20114 0.80742 0.0
C3156 C 0.83498 0.18111 0.78847 0.0
C3157 C 0.81238 0.14358 0.80493 0.0
C3158 C 0.85636 0.1914 0.78598 0.0
C3159 C 0.8637 0.1899 0.77344 0.0
C3160 C 0.8498 0.17812 0.7631 0.0
C3161 C 0.82834 0.16827 0.76551 0.0
C3162 C 0.821 0.16977 0.77809 0.0
H3163 H 0.80818 0.13246 0.81315 0.0
H3164 H 0.7991 0.13752 0.79779 0.0
H3165 H 0.82591 0.1446 0.79959 0.0
H3166 H 0.86741 0.20034 0.79383 0.0
H3167 H 0.8803 0.19797 0.77185 0.0
H3168 H 0.31062 0.18135 0.47644 0.0
H3169 H 0.31991 0.18423 0.50014 0.0
H3170 H 0.28444 0.1186 0.50338 0.0
H3171 H 0.27454 0.11551 0.47974 0.0
H3172 H 0.29228 0.16693 0.52413 0.0
H3173 H 0.34657 0.13759 0.51502 0.0
H3174 H 0.33788 0.14777 0.50184 0.0
H3175 H 0.32073 0.12273 0.50813 0.0
C3176 C 0.30441 0.16752 0.48222 0.0
C3177 C 0.2919 0.14817 0.47614 0.0
C3178 C 0.30984 0.16921 0.49575 0.0
C3179 C 0.303 0.15162 0.50343 0.0
C3180 C 0.29004 0.13233 0.49755 0.0
H3181 H 0.31735 0.14135 0.58898 0.0
H3182 H 0.30318 0.13872 0.56645 0.0
C3183 C 0.2845 0.13061 0.48403 0.0
C3184 C 0.31024 0.15344 0.51742 0.0
H3185 H 0.34245 0.14501 0.53736 0.0
C3186 C 0.30319 0.16209 0.52707 0.0
C3187 C 0.32461 0.14728 0.52112 0.0
C3188 C 0.33307 0.13843 0.51102 0.0
C3189 C 0.31009 0.16462 0.54042 0.0
C3190 C 0.32435 0.1583 0.54413 0.0
C3191 C 0.33145 0.14975 0.53446 0.0
C3192 C 0.33252 0.16082 0.55795 0.0
C3193 C 0.30245 0.17437 0.55041 0.0
C3194 C 0.35369 0.1741 0.5606 0.0
C3195 C 0.36181 0.17575 0.57345 0.0
C3196 C 0.34894 0.16398 0.5839 0.0
C3197 C 0.32764 0.15086 0.58123 0.0
C3198 C 0.31951 0.14929 0.56836 0.0
H3199 H 0.29455 0.18178 0.54549 0.0
H3200 H 0.29123 0.16245 0.55717 0.0
H3201 H 0.31554 0.186 0.55664 0.0
H3202 H 0.36396 0.18312 0.55267 0.0
H3203 H 0.3782 0.18624 0.57519 0.0
H3204 H 0.84574 0.11609 0.47905 0.0
H3205 H 0.834 0.12394 0.49992 0.0
H3206 H 0.89722 0.15729 0.51451 0.0
H3207 H 0.90909 0.14937 0.49374 0.0
H3208 H 0.83954 0.11281 0.5256 0.0
H3209 H 0.87599 0.1972 0.52186 0.0
H3210 H 0.87298 0.18094 0.50765 0.0
H3211 H 0.89349 0.18754 0.51965 0.0
C3212 C 0.85717 0.12515 0.48668 0.0
C3213 C 0.87837 0.13211 0.4847 0.0
C3214 C 0.85043 0.12969 0.49858 0.0
C3215 C 0.86475 0.14139 0.50871 0.0
C3216 C 0.88594 0.14861 0.50671 0.0
H3217 H 0.85224 0.1775 0.58955 0.0
H3218 H 0.86514 0.17161 0.56847 0.0
C3219 C 0.8927 0.14408 0.49482 0.0
C3220 C 0.85735 0.14505 0.52163 0.0
H3221 H 0.86051 0.18261 0.54254 0.0
C3222 C 0.84403 0.12806 0.52928 0.0
C3223 C 0.86337 0.16497 0.52644 0.0
C3224 C 0.8771 0.18373 0.51845 0.0
C3225 C 0.83674 0.13045 0.5417 0.0
C3226 C 0.84261 0.15036 0.54647 0.0
C3227 C 0.85603 0.16737 0.53886 0.0
C3228 C 0.83474 0.15382 0.55926 0.0
C3229 C 0.82316 0.11166 0.54972 0.0
C3230 C 0.81339 0.14595 0.56103 0.0
C3231 C 0.80596 0.14915 0.57308 0.0
C3232 C 0.81974 0.16043 0.5836 0.0
C3233 C 0.84117 0.16848 0.58174 0.0
C3234 C 0.84859 0.16527 0.56967 0.0
H3235 H 0.82476 0.09839 0.54648 0.0
H3236 H 0.82699 0.11458 0.56054 0.0
H3237 H 0.80668 0.1074 0.54827 0.0
H3238 H 0.80245 0.13737 0.55305 0.0
H3239 H 0.78937 0.14259 0.5742 0.0
H3240 H 0.84294 0.74741 0.48481 0.0
H3241 H 0.83643 0.73477 0.5077 0.0
H3242 H 0.88402 0.71842 0.50411 0.0
H3243 H 0.89022 0.73046 0.48112 0.0
H3244 H 0.847 0.68695 0.51343 0.0
H3245 H 0.87014 0.75845 0.54234 0.0
H3246 H 0.85193 0.75363 0.52901 0.0
H3247 H 0.87755 0.75845 0.52519 0.0
C3248 C 0.85211 0.74123 0.48891 0.0
C3249 C 0.86712 0.73998 0.48109 0.0
C3250 C 0.84852 0.73421 0.50206 0.0
C3251 C 0.85991 0.72587 0.5077 0.0
C3252 C 0.87515 0.72494 0.50001 0.0
H3253 H 0.85586 0.68615 0.59009 0.0
H3254 H 0.86684 0.70417 0.56884 0.0
C3255 C 0.87878 0.73198 0.48688 0.0
C3256 C 0.8549 0.71672 0.52121 0.0
H3257 H 0.85152 0.72716 0.55415 0.0
C3258 C 0.84811 0.69578 0.52233 0.0
C3259 C 0.85654 0.72828 0.53286 0.0
C3260 C 0.86462 0.75099 0.53236 0.0
C3261 C 0.84245 0.68599 0.53471 0.0
C3262 C 0.84335 0.69737 0.54628 0.0
C3263 C 0.85065 0.71842 0.54524 0.0
C3264 C 0.83647 0.68748 0.55946 0.0
C3265 C 0.83563 0.66353 0.53532 0.0
C3266 C 0.81566 0.6725 0.56136 0.0
C3267 C 0.8093 0.66229 0.57349 0.0
C3268 C 0.82363 0.66681 0.58403 0.0
C3269 C 0.84437 0.68234 0.58224 0.0
C3270 C 0.85071 0.69261 0.57008 0.0
H3271 H 0.84056 0.65828 0.52637 0.0
H3272 H 0.84205 0.66024 0.54439 0.0
H3273 H 0.81845 0.6545 0.53579 0.0
H3274 H 0.80433 0.66859 0.55338 0.0
H3275 H 0.79312 0.65078 0.57458 0.0
loop_
_geom_bond_atom_site_label_1
_geom_bond_atom_site_label_2
_geom_bond_distance
_geom_bond_site_symmetry_2
_ccdc_geom_bond_type
P0 O11 1.490 . S
P0 C14 1.812 . S
P0 C20 1.803 . S
P0 C26 1.819 . S
H1 C15 0.941 . S
H2 C16 0.939 . S
H3 C18 0.940 . S
H4 C19 0.940 . S
H5 C21 0.939 . S
H6 C22 0.942 . S
H7 C24 0.940 . S
H8 C25 0.939 . S
H9 C27 0.941 . S
H10 C31 0.939 . S
O11 P0 1.490 . S
H12 C28 0.939 . S
H13 C30 0.940 . S
C14 P0 1.812 . S
C14 C15 1.389 . S
C14 C19 1.391 . S
C15 H1 0.941 . S
C15 C14 1.389 . S
C15 C16 1.397 . S
C16 H2 0.939 . S
C16 C15 1.397 . S
C16 C17 1.378 . S
C17 C16 1.378 . S
C17 C18 1.378 . S
C18 H3 0.940 . S
C18 C17 1.378 . S
C18 C19 1.396 . S
C19 H4 0.940 . S
C19 C14 1.391 . S
C19 C18 1.396 . S
C20 P0 1.803 . S
C20 C21 1.378 . S
C20 C25 1.400 . S
C21 H5 0.939 . S
C21 C20 1.378 . S
C21 C22 1.361 . S
C22 H6 0.942 . S
C22 C21 1.361 . S
C22 C23 1.369 . S
C23 C22 1.369 . S
C23 C24 1.404 . S
C24 H7 0.940 . S
C24 C23 1.404 . S
C24 C25 1.389 . S
C25 H8 0.939 . S
C25 C20 1.400 . S
C25 C24 1.389 . S
C26 P0 1.819 . S
C26 C27 1.391 . S
C26 C31 1.391 . S
C27 H9 0.941 . S
C27 C26 1.391 . S
C27 C28 1.396 . S
C28 H12 0.939 . S
C28 C27 1.396 . S
C28 C29 1.397 . S
C29 C28 1.397 . S
C29 C30 1.385 . S
C30 H13 0.940 . S
C30 C29 1.385 . S
C30 C31 1.388 . S
C31 H10 0.939 . S
C31 C26 1.391 . S
C31 C30 1.388 . S
P32 O43 1.490 . S
P32 C46 1.812 . S
P32 C52 1.803 . S
P32 C58 1.819 . S
H33 C47 0.941 . S
H34 C48 0.939 . S
H35 C50 0.940 . S
H36 C51 0.940 . S
H37 C53 0.939 . S
H38 C54 0.942 . S
H39 C56 0.940 . S
H40 C57 0.939 . S
H41 C59 0.941 . S
H42 C63 0.939 . S
O43 P32 1.490 . S
H44 C60 0.939 . S
H45 C62 0.940 . S
C46 P32 1.812 . S
C46 C47 1.389 . S
C46 C51 1.391 . S
C47 H33 0.941 . S
C47 C46 1.389 . S
C47 C48 1.397 . S
C48 H34 0.939 . S
C48 C47 1.397 . S
C48 C49 1.378 . S
C49 C48 1.378 . S
C49 C50 1.378 . S
C50 H35 0.940 . S
C50 C49 1.378 . S
C50 C51 1.396 . S
C51 H36 0.940 . S
C51 C46 1.391 . S
C51 C50 1.396 . S
C52 P32 1.803 . S
C52 C53 1.378 . S
C52 C57 1.400 . S
C53 H37 0.939 . S
C53 C52 1.378 . S
C53 C54 1.361 . S
C54 H38 0.942 . S
C54 C53 1.361 . S
C54 C55 1.369 . S
C55 C54 1.369 . S
C55 C56 1.404 . S
C56 H39 0.940 . S
C56 C55 1.404 . S
C56 C57 1.389 . S
C57 H40 0.939 . S
C57 C52 1.400 . S
C57 C56 1.389 . S
C58 P32 1.819 . S
C58 C59 1.391 . S
C58 C63 1.391 . S
C59 H41 0.941 . S
C59 C58 1.391 . S
C59 C60 1.396 . S
C60 H44 0.939 . S
C60 C59 1.396 . S
C60 C61 1.397 . S
C61 C60 1.397 . S
C61 C62 1.385 . S
C62 H45 0.940 . S
C62 C61 1.385 . S
C62 C63 1.388 . S
C63 H42 0.939 . S
C63 C58 1.391 . S
C63 C62 1.388 . S
P64 O75 1.490 . S
P64 C78 1.812 . S
P64 C84 1.803 . S
P64 C90 1.819 . S
H65 C79 0.941 . S
H66 C80 0.939 . S
H67 C82 0.940 . S
H68 C83 0.940 . S
H69 C85 0.939 . S
H70 C86 0.942 . S
H71 C88 0.940 . S
H72 C89 0.939 . S
H73 C91 0.941 . S
H74 C95 0.939 . S
O75 P64 1.490 . S
H76 C92 0.939 . S
H77 C94 0.940 . S
C78 P64 1.812 . S
C78 C79 1.389 . S
C78 C83 1.391 . S
C79 H65 0.941 . S
C79 C78 1.389 . S
C79 C80 1.397 . S
C80 H66 0.939 . S
C80 C79 1.397 . S
C80 C81 1.378 . S
C81 C80 1.378 . S
C81 C82 1.378 . S
C82 H67 0.940 . S
C82 C81 1.378 . S
C82 C83 1.396 . S
C83 H68 0.940 . S
C83 C78 1.391 . S
C83 C82 1.396 . S
C84 P64 1.803 . S
C84 C85 1.378 . S
C84 C89 1.400 . S
C85 H69 0.939 . S
C85 C84 1.378 . S
C85 C86 1.361 . S
C86 H70 0.942 . S
C86 C85 1.361 . S
C86 C87 1.369 . S
C87 C86 1.369 . S
C87 C88 1.404 . S
C88 H71 0.940 . S
C88 C87 1.404 . S
C88 C89 1.389 . S
C89 H72 0.939 . S
C89 C84 1.400 . S
C89 C88 1.389 . S
C90 P64 1.819 . S
C90 C91 1.391 . S
C90 C95 1.391 . S
C91 H73 0.941 . S
C91 C90 1.391 . S
C91 C92 1.396 . S
C92 H76 0.939 . S
C92 C91 1.396 . S
C92 C93 1.397 . S
C93 C92 1.397 . S
C93 C94 1.385 . S
C94 H77 0.940 . S
C94 C93 1.385 . S
C94 C95 1.388 . S
C95 H74 0.939 . S
C95 C90 1.391 . S
C95 C94 1.388 . S
P96 O107 1.490 . S
P96 C110 1.812 . S
P96 C116 1.803 . S
P96 C122 1.819 . S
H97 C111 0.941 . S
H98 C112 0.939 . S
H99 C114 0.940 . S
H100 C115 0.940 . S
H101 C117 0.939 . S
H102 C118 0.942 . S
H103 C120 0.940 . S
H104 C121 0.939 . S
H105 C123 0.941 . S
H106 C127 0.939 . S
O107 P96 1.490 . S
H108 C124 0.939 . S
H109 C126 0.940 . S
C110 P96 1.812 . S
C110 C111 1.389 . S
C110 C115 1.391 . S
C111 H97 0.941 . S
C111 C110 1.389 . S
C111 C112 1.397 . S
C112 H98 0.939 . S
C112 C111 1.397 . S
C112 C113 1.378 . S
C113 C112 1.378 . S
C113 C114 1.378 . S
C114 H99 0.940 . S
C114 C113 1.378 . S
C114 C115 1.396 . S
C115 H100 0.940 . S
C115 C110 1.391 . S
C115 C114 1.396 . S
C116 P96 1.803 . S
C116 C117 1.378 . S
C116 C121 1.400 . S
C117 H101 0.939 . S
C117 C116 1.378 . S
C117 C118 1.361 . S
C118 H102 0.942 . S
C118 C117 1.361 . S
C118 C119 1.369 . S
C119 C118 1.369 . S
C119 C120 1.404 . S
C120 H103 0.940 . S
C120 C119 1.404 . S
C120 C121 1.389 . S
C121 H104 0.939 . S
C121 C116 1.400 . S
C121 C120 1.389 . S
C122 P96 1.819 . S
C122 C123 1.391 . S
C122 C127 1.391 . S
C123 H105 0.941 . S
C123 C122 1.391 . S
C123 C124 1.396 . S
C124 H108 0.939 . S
C124 C123 1.396 . S
C124 C125 1.397 . S
C125 C124 1.397 . S
C125 C126 1.385 . S
C126 H109 0.940 . S
C126 C125 1.385 . S
C126 C127 1.388 . S
C127 H106 0.939 . S
C127 C122 1.391 . S
C127 C126 1.388 . S
P128 O139 1.490 . S
P128 C142 1.812 . S
P128 C148 1.803 . S
P128 C154 1.819 . S
H129 C143 0.941 . S
H130 C144 0.939 . S
H131 C146 0.940 . S
H132 C147 0.940 . S
H133 C149 0.939 . S
H134 C150 0.942 . S
H135 C152 0.940 . S
H136 C153 0.939 . S
H137 C155 0.941 . S
H138 C159 0.939 . S
O139 P128 1.490 . S
H140 C156 0.939 . S
H141 C158 0.940 . S
C142 P128 1.812 . S
C142 C143 1.389 . S
C142 C147 1.391 . S
C143 H129 0.941 . S
C143 C142 1.389 . S
C143 C144 1.397 . S
C144 H130 0.939 . S
C144 C143 1.397 . S
C144 C145 1.378 . S
C145 C144 1.378 . S
C145 C146 1.378 . S
C146 H131 0.940 . S
C146 C145 1.378 . S
C146 C147 1.396 . S
C147 H132 0.940 . S
C147 C142 1.391 . S
C147 C146 1.396 . S
C148 P128 1.803 . S
C148 C149 1.378 . S
C148 C153 1.400 . S
C149 H133 0.939 . S
C149 C148 1.378 . S
C149 C150 1.361 . S
C150 H134 0.942 . S
C150 C149 1.361 . S
C150 C151 1.369 . S
C151 C150 1.369 . S
C151 C152 1.404 . S
C152 H135 0.940 . S
C152 C151 1.404 . S
C152 C153 1.389 . S
C153 H136 0.939 . S
C153 C148 1.400 . S
C153 C152 1.389 . S
C154 P128 1.819 . S
C154 C155 1.391 . S
C154 C159 1.391 . S
C155 H137 0.941 . S
C155 C154 1.391 . S
C155 C156 1.396 . S
C156 H140 0.939 . S
C156 C155 1.396 . S
C156 C157 1.397 . S
C157 C156 1.397 . S
C157 C158 1.385 . S
C158 H141 0.940 . S
C158 C157 1.385 . S
C158 C159 1.388 . S
C159 H138 0.939 . S
C159 C154 1.391 . S
C159 C158 1.388 . S
P160 O171 1.490 . S
P160 C174 1.812 . S
P160 C180 1.803 . S
P160 C186 1.819 . S
H161 C175 0.941 . S
H162 C176 0.939 . S
H163 C178 0.940 . S
H164 C179 0.940 . S
H165 C181 0.939 . S
H166 C182 0.942 . S
H167 C184 0.940 . S
H168 C185 0.939 . S
H169 C187 0.941 . S
H170 C191 0.939 . S
O171 P160 1.490 . S
H172 C188 0.939 . S
H173 C190 0.940 . S
C174 P160 1.812 . S
C174 C175 1.389 . S
C174 C179 1.391 . S
C175 H161 0.941 . S
C175 C174 1.389 . S
C175 C176 1.397 . S
C176 H162 0.939 . S
C176 C175 1.397 . S
C176 C177 1.378 . S
C177 C176 1.378 . S
C177 C178 1.378 . S
C178 H163 0.940 . S
C178 C177 1.378 . S
C178 C179 1.396 . S
C179 H164 0.940 . S
C179 C174 1.391 . S
C179 C178 1.396 . S
C180 P160 1.803 . S
C180 C181 1.378 . S
C180 C185 1.400 . S
C181 H165 0.939 . S
C181 C180 1.378 . S
C181 C182 1.361 . S
C182 H166 0.942 . S
C182 C181 1.361 . S
C182 C183 1.369 . S
C183 C182 1.369 . S
C183 C184 1.404 . S
C184 H167 0.940 . S
C184 C183 1.404 . S
C184 C185 1.389 . S
C185 H168 0.939 . S
C185 C180 1.400 . S
C185 C184 1.389 . S
C186 P160 1.819 . S
C186 C187 1.391 . S
C186 C191 1.391 . S
C187 H169 0.941 . S
C187 C186 1.391 . S
C187 C188 1.396 . S
C188 H172 0.939 . S
C188 C187 1.396 . S
C188 C189 1.397 . S
C189 C188 1.397 . S
C189 C190 1.385 . S
C190 H173 0.940 . S
C190 C189 1.385 . S
C190 C191 1.388 . S
C191 H170 0.939 . S
C191 C186 1.391 . S
C191 C190 1.388 . S
P192 O203 1.490 . S
P192 C206 1.812 . S
P192 C212 1.803 . S
P192 C218 1.819 . S
H193 C207 0.941 . S
H194 C208 0.939 . S
H195 C210 0.940 . S
H196 C211 0.940 . S
H197 C213 0.939 . S
H198 C214 0.942 . S
H199 C216 0.940 . S
H200 C217 0.939 . S
H201 C219 0.941 . S
H202 C223 0.939 . S
O203 P192 1.490 . S
H204 C220 0.939 . S
H205 C222 0.940 . S
C206 P192 1.812 . S
C206 C207 1.389 . S
C206 C211 1.391 . S
C207 H193 0.941 . S
C207 C206 1.389 . S
C207 C208 1.397 . S
C208 H194 0.939 . S
C208 C207 1.397 . S
C208 C209 1.378 . S
C209 C208 1.378 . S
C209 C210 1.378 . S
C210 H195 0.940 . S
C210 C209 1.378 . S
C210 C211 1.396 . S
C211 H196 0.940 . S
C211 C206 1.391 . S
C211 C210 1.396 . S
C212 P192 1.803 . S
C212 C213 1.378 . S
C212 C217 1.400 . S
C213 H197 0.939 . S
C213 C212 1.378 . S
C213 C214 1.361 . S
C214 H198 0.942 . S
C214 C213 1.361 . S
C214 C215 1.369 . S
C215 C214 1.369 . S
C215 C216 1.404 . S
C216 H199 0.940 . S
C216 C215 1.404 . S
C216 C217 1.389 . S
C217 H200 0.939 . S
C217 C212 1.400 . S
C217 C216 1.389 . S
C218 P192 1.819 . S
C218 C219 1.391 . S
C218 C223 1.391 . S
C219 H201 0.941 . S
C219 C218 1.391 . S
C219 C220 1.396 . S
C220 H204 0.939 . S
C220 C219 1.396 . S
C220 C221 1.397 . S
C221 C220 1.397 . S
C221 C222 1.385 . S
C222 H205 0.940 . S
C222 C221 1.385 . S
C222 C223 1.388 . S
C223 H202 0.939 . S
C223 C218 1.391 . S
C223 C222 1.388 . S
P224 O235 1.490 . S
P224 C238 1.812 . S
P224 C244 1.803 . S
P224 C250 1.819 . S
H225 C239 0.941 . S
H226 C240 0.939 . S
H227 C242 0.940 . S
H228 C243 0.940 . S
H229 C245 0.939 . S
H230 C246 0.942 . S
H231 C248 0.940 . S
H232 C249 0.939 . S
H233 C251 0.941 . S
H234 C255 0.939 . S
O235 P224 1.490 . S
H236 C252 0.939 . S
H237 C254 0.940 . S
C238 P224 1.812 . S
C238 C239 1.389 . S
C238 C243 1.391 . S
C239 H225 0.941 . S
C239 C238 1.389 . S
C239 C240 1.397 . S
C240 H226 0.939 . S
C240 C239 1.397 . S
C240 C241 1.378 . S
C241 C240 1.378 . S
C241 C242 1.378 . S
C242 H227 0.940 . S
C242 C241 1.378 . S
C242 C243 1.396 . S
C243 H228 0.940 . S
C243 C238 1.391 . S
C243 C242 1.396 . S
C244 P224 1.803 . S
C244 C245 1.378 . S
C244 C249 1.400 . S
C245 H229 0.939 . S
C245 C244 1.378 . S
C245 C246 1.361 . S
C246 H230 0.942 . S
C246 C245 1.361 . S
C246 C247 1.369 . S
C247 C246 1.369 . S
C247 C248 1.404 . S
C248 H231 0.940 . S
C248 C247 1.404 . S
C248 C249 1.389 . S
C249 H232 0.939 . S
C249 C244 1.400 . S
C249 C248 1.389 . S
C250 P224 1.819 . S
C250 C251 1.391 . S
C250 C255 1.391 . S
C251 H233 0.941 . S
C251 C250 1.391 . S
C251 C252 1.396 . S
C252 H236 0.939 . S
C252 C251 1.396 . S
C252 C253 1.397 . S
C253 C252 1.397 . S
C253 C254 1.385 . S
C254 H237 0.940 . S
C254 C253 1.385 . S
C254 C255 1.388 . S
C255 H234 0.939 . S
C255 C250 1.391 . S
C255 C254 1.388 . S
P256 O267 1.490 . S
P256 C270 1.812 . S
P256 C276 1.803 . S
P256 C282 1.819 . S
H257 C271 0.941 . S
H258 C272 0.939 . S
H259 C274 0.940 . S
H260 C275 0.940 . S
H261 C277 0.939 . S
H262 C278 0.942 . S
H263 C280 0.940 . S
H264 C281 0.939 . S
H265 C283 0.941 . S
H266 C287 0.939 . S
O267 P256 1.490 . S
H268 C284 0.939 . S
H269 C286 0.940 . S
C270 P256 1.812 . S
C270 C271 1.389 . S
C270 C275 1.391 . S
C271 H257 0.941 . S
C271 C270 1.389 . S
C271 C272 1.397 . S
C272 H258 0.939 . S
C272 C271 1.397 . S
C272 C273 1.378 . S
C273 C272 1.378 . S
C273 C274 1.378 . S
C274 H259 0.940 . S
C274 C273 1.378 . S
C274 C275 1.396 . S
C275 H260 0.940 . S
C275 C270 1.391 . S
C275 C274 1.396 . S
C276 P256 1.803 . S
C276 C277 1.378 . S
C276 C281 1.400 . S
C277 H261 0.939 . S
C277 C276 1.378 . S
C277 C278 1.361 . S
C278 H262 0.942 . S
C278 C277 1.361 . S
C278 C279 1.369 . S
C279 C278 1.369 . S
C279 C280 1.404 . S
C280 H263 0.940 . S
C280 C279 1.404 . S
C280 C281 1.389 . S
C281 H264 0.939 . S
C281 C276 1.400 . S
C281 C280 1.389 . S
C282 P256 1.819 . S
C282 C283 1.391 . S
C282 C287 1.391 . S
C283 H265 0.941 . S
C283 C282 1.391 . S
C283 C284 1.396 . S
C284 H268 0.939 . S
C284 C283 1.396 . S
C284 C285 1.397 . S
C285 C284 1.397 . S
C285 C286 1.385 . S
C286 H269 0.940 . S
C286 C285 1.385 . S
C286 C287 1.388 . S
C287 H266 0.939 . S
C287 C282 1.391 . S
C287 C286 1.388 . S
P288 O299 1.490 . S
P288 C302 1.812 . S
P288 C308 1.803 . S
P288 C314 1.819 . S
H289 C303 0.941 . S
H290 C304 0.939 . S
H291 C306 0.940 . S
H292 C307 0.940 . S
H293 C309 0.939 . S
H294 C310 0.942 . S
H295 C312 0.940 . S
H296 C313 0.939 . S
H297 C315 0.941 . S
H298 C319 0.939 . S
O299 P288 1.490 . S
H300 C316 0.939 . S
H301 C318 0.940 . S
C302 P288 1.812 . S
C302 C303 1.389 . S
C302 C307 1.391 . S
C303 H289 0.941 . S
C303 C302 1.389 . S
C303 C304 1.397 . S
C304 H290 0.939 . S
C304 C303 1.397 . S
C304 C305 1.378 . S
C305 C304 1.378 . S
C305 C306 1.378 . S
C306 H291 0.940 . S
C306 C305 1.378 . S
C306 C307 1.396 . S
C307 H292 0.940 . S
C307 C302 1.391 . S
C307 C306 1.396 . S
C308 P288 1.803 . S
C308 C309 1.378 . S
C308 C313 1.400 . S
C309 H293 0.939 . S
C309 C308 1.378 . S
C309 C310 1.361 . S
C310 H294 0.942 . S
C310 C309 1.361 . S
C310 C311 1.369 . S
C311 C310 1.369 . S
C311 C312 1.404 . S
C312 H295 0.940 . S
C312 C311 1.404 . S
C312 C313 1.389 . S
C313 H296 0.939 . S
C313 C308 1.400 . S
C313 C312 1.389 . S
C314 P288 1.819 . S
C314 C315 1.391 . S
C314 C319 1.391 . S
C315 H297 0.941 . S
C315 C314 1.391 . S
C315 C316 1.396 . S
C316 H300 0.939 . S
C316 C315 1.396 . S
C316 C317 1.397 . S
C317 C316 1.397 . S
C317 C318 1.385 . S
C318 H301 0.940 . S
C318 C317 1.385 . S
C318 C319 1.388 . S
C319 H298 0.939 . S
C319 C314 1.391 . S
C319 C318 1.388 . S
P320 O331 1.490 . S
P320 C334 1.812 . S
P320 C340 1.803 . S
P320 C346 1.819 . S
H321 C335 0.941 . S
H322 C336 0.939 . S
H323 C338 0.940 . S
H324 C339 0.940 . S
H325 C341 0.939 . S
H326 C342 0.942 . S
H327 C344 0.940 . S
H328 C345 0.939 . S
H329 C347 0.941 . S
H330 C351 0.939 . S
O331 P320 1.490 . S
H332 C348 0.939 . S
H333 C350 0.940 . S
C334 P320 1.812 . S
C334 C335 1.389 . S
C334 C339 1.391 . S
C335 H321 0.941 . S
C335 C334 1.389 . S
C335 C336 1.397 . S
C336 H322 0.939 . S
C336 C335 1.397 . S
C336 C337 1.378 . S
C337 C336 1.378 . S
C337 C338 1.378 . S
C338 H323 0.940 . S
C338 C337 1.378 . S
C338 C339 1.396 . S
C339 H324 0.940 . S
C339 C334 1.391 . S
C339 C338 1.396 . S
C340 P320 1.803 . S
C340 C341 1.378 . S
C340 C345 1.400 . S
C341 H325 0.939 . S
C341 C340 1.378 . S
C341 C342 1.361 . S
C342 H326 0.942 . S
C342 C341 1.361 . S
C342 C343 1.369 . S
C343 C342 1.369 . S
C343 C344 1.404 . S
C344 H327 0.940 . S
C344 C343 1.404 . S
C344 C345 1.389 . S
C345 H328 0.939 . S
C345 C340 1.400 . S
C345 C344 1.389 . S
C346 P320 1.819 . S
C346 C347 1.391 . S
C346 C351 1.391 . S
C347 H329 0.941 . S
C347 C346 1.391 . S
C347 C348 1.396 . S
C348 H332 0.939 . S
C348 C347 1.396 . S
C348 C349 1.397 . S
C349 C348 1.397 . S
C349 C350 1.385 . S
C350 H333 0.940 . S
C350 C349 1.385 . S
C350 C351 1.388 . S
C351 H330 0.939 . S
C351 C346 1.391 . S
C351 C350 1.388 . S
P352 O363 1.490 . S
P352 C366 1.812 . S
P352 C372 1.803 . S
P352 C378 1.819 . S
H353 C367 0.941 . S
H354 C368 0.939 . S
H355 C370 0.940 . S
H356 C371 0.940 . S
H357 C373 0.939 . S
H358 C374 0.942 . S
H359 C376 0.940 . S
H360 C377 0.939 . S
H361 C379 0.941 . S
H362 C383 0.939 . S
O363 P352 1.490 . S
H364 C380 0.939 . S
H365 C382 0.940 . S
C366 P352 1.812 . S
C366 C367 1.389 . S
C366 C371 1.391 . S
C367 H353 0.941 . S
C367 C366 1.389 . S
C367 C368 1.397 . S
C368 H354 0.939 . S
C368 C367 1.397 . S
C368 C369 1.378 . S
C369 C368 1.378 . S
C369 C370 1.378 . S
C370 H355 0.940 . S
C370 C369 1.378 . S
C370 C371 1.396 . S
C371 H356 0.940 . S
C371 C366 1.391 . S
C371 C370 1.396 . S
C372 P352 1.803 . S
C372 C373 1.378 . S
C372 C377 1.400 . S
C373 H357 0.939 . S
C373 C372 1.378 . S
C373 C374 1.361 . S
C374 H358 0.942 . S
C374 C373 1.361 . S
C374 C375 1.369 . S
C375 C374 1.369 . S
C375 C376 1.404 . S
C376 H359 0.940 . S
C376 C375 1.404 . S
C376 C377 1.389 . S
C377 H360 0.939 . S
C377 C372 1.400 . S
C377 C376 1.389 . S
C378 P352 1.819 . S
C378 C379 1.391 . S
C378 C383 1.391 . S
C379 H361 0.941 . S
C379 C378 1.391 . S
C379 C380 1.396 . S
C380 H364 0.939 . S
C380 C379 1.396 . S
C380 C381 1.397 . S
C381 C380 1.397 . S
C381 C382 1.385 . S
C382 H365 0.940 . S
C382 C381 1.385 . S
C382 C383 1.388 . S
C383 H362 0.939 . S
C383 C378 1.391 . S
C383 C382 1.388 . S
P384 O395 1.490 . S
P384 C398 1.812 . S
P384 C404 1.803 . S
P384 C410 1.819 . S
H385 C399 0.941 . S
H386 C400 0.939 . S
H387 C402 0.940 . S
H388 C403 0.940 . S
H389 C405 0.939 . S
H390 C406 0.942 . S
H391 C408 0.940 . S
H392 C409 0.939 . S
H393 C411 0.941 . S
H394 C415 0.939 . S
O395 P384 1.490 . S
H396 C412 0.939 . S
H397 C414 0.940 . S
C398 P384 1.812 . S
C398 C399 1.389 . S
C398 C403 1.391 . S
C399 H385 0.941 . S
C399 C398 1.389 . S
C399 C400 1.397 . S
C400 H386 0.939 . S
C400 C399 1.397 . S
C400 C401 1.378 . S
C401 C400 1.378 . S
C401 C402 1.378 . S
C402 H387 0.940 . S
C402 C401 1.378 . S
C402 C403 1.396 . S
C403 H388 0.940 . S
C403 C398 1.391 . S
C403 C402 1.396 . S
C404 P384 1.803 . S
C404 C405 1.378 . S
C404 C409 1.400 . S
C405 H389 0.939 . S
C405 C404 1.378 . S
C405 C406 1.361 . S
C406 H390 0.942 . S
C406 C405 1.361 . S
C406 C407 1.369 . S
C407 C406 1.369 . S
C407 C408 1.404 . S
C408 H391 0.940 . S
C408 C407 1.404 . S
C408 C409 1.389 . S
C409 H392 0.939 . S
C409 C404 1.400 . S
C409 C408 1.389 . S
C410 P384 1.819 . S
C410 C411 1.391 . S
C410 C415 1.391 . S
C411 H393 0.941 . S
C411 C410 1.391 . S
C411 C412 1.396 . S
C412 H396 0.939 . S
C412 C411 1.396 . S
C412 C413 1.397 . S
C413 C412 1.397 . S
C413 C414 1.385 . S
C414 H397 0.940 . S
C414 C413 1.385 . S
C414 C415 1.388 . S
C415 H394 0.939 . S
C415 C410 1.391 . S
C415 C414 1.388 . S
P416 O427 1.490 . S
P416 C430 1.812 . S
P416 C436 1.803 . S
P416 C442 1.819 . S
H417 C431 0.941 . S
H418 C432 0.939 . S
H419 C434 0.940 . S
H420 C435 0.940 . S
H421 C437 0.939 . S
H422 C438 0.942 . S
H423 C440 0.940 . S
H424 C441 0.939 . S
H425 C443 0.941 . S
H426 C447 0.939 . S
O427 P416 1.490 . S
H428 C444 0.939 . S
H429 C446 0.940 . S
C430 P416 1.812 . S
C430 C431 1.389 . S
C430 C435 1.391 . S
C431 H417 0.941 . S
C431 C430 1.389 . S
C431 C432 1.397 . S
C432 H418 0.939 . S
C432 C431 1.397 . S
C432 C433 1.378 . S
C433 C432 1.378 . S
C433 C434 1.378 . S
C434 H419 0.940 . S
C434 C433 1.378 . S
C434 C435 1.396 . S
C435 H420 0.940 . S
C435 C430 1.391 . S
C435 C434 1.396 . S
C436 P416 1.803 . S
C436 C437 1.378 . S
C436 C441 1.400 . S
C437 H421 0.939 . S
C437 C436 1.378 . S
C437 C438 1.361 . S
C438 H422 0.942 . S
C438 C437 1.361 . S
C438 C439 1.369 . S
C439 C438 1.369 . S
C439 C440 1.404 . S
C440 H423 0.940 . S
C440 C439 1.404 . S
C440 C441 1.389 . S
C441 H424 0.939 . S
C441 C436 1.400 . S
C441 C440 1.389 . S
C442 P416 1.819 . S
C442 C443 1.391 . S
C442 C447 1.391 . S
C443 H425 0.941 . S
C443 C442 1.391 . S
C443 C444 1.396 . S
C444 H428 0.939 . S
C444 C443 1.396 . S
C444 C445 1.397 . S
C445 C444 1.397 . S
C445 C446 1.385 . S
C446 H429 0.940 . S
C446 C445 1.385 . S
C446 C447 1.388 . S
C447 H426 0.939 . S
C447 C442 1.391 . S
C447 C446 1.388 . S
P448 O459 1.490 . S
P448 C462 1.812 . S
P448 C468 1.803 . S
P448 C474 1.819 . S
H449 C463 0.941 . S
H450 C464 0.939 . S
H451 C466 0.940 . S
H452 C467 0.940 . S
H453 C469 0.939 . S
H454 C470 0.942 . S
H455 C472 0.940 . S
H456 C473 0.939 . S
H457 C475 0.941 . S
H458 C479 0.939 . S
O459 P448 1.490 . S
H460 C476 0.939 . S
H461 C478 0.940 . S
C462 P448 1.812 . S
C462 C463 1.389 . S
C462 C467 1.391 . S
C463 H449 0.941 . S
C463 C462 1.389 . S
C463 C464 1.397 . S
C464 H450 0.939 . S
C464 C463 1.397 . S
C464 C465 1.378 . S
C465 C464 1.378 . S
C465 C466 1.378 . S
C466 H451 0.940 . S
C466 C465 1.378 . S
C466 C467 1.396 . S
C467 H452 0.940 . S
C467 C462 1.391 . S
C467 C466 1.396 . S
C468 P448 1.803 . S
C468 C469 1.378 . S
C468 C473 1.400 . S
C469 H453 0.939 . S
C469 C468 1.378 . S
C469 C470 1.361 . S
C470 H454 0.942 . S
C470 C469 1.361 . S
C470 C471 1.369 . S
C471 C470 1.369 . S
C471 C472 1.404 . S
C472 H455 0.940 . S
C472 C471 1.404 . S
C472 C473 1.389 . S
C473 H456 0.939 . S
C473 C468 1.400 . S
C473 C472 1.389 . S
C474 P448 1.819 . S
C474 C475 1.391 . S
C474 C479 1.391 . S
C475 H457 0.941 . S
C475 C474 1.391 . S
C475 C476 1.396 . S
C476 H460 0.939 . S
C476 C475 1.396 . S
C476 C477 1.397 . S
C477 C476 1.397 . S
C477 C478 1.385 . S
C478 H461 0.940 . S
C478 C477 1.385 . S
C478 C479 1.388 . S
C479 H458 0.939 . S
C479 C474 1.391 . S
C479 C478 1.388 . S
P480 O491 1.490 . S
P480 C494 1.812 . S
P480 C500 1.803 . S
P480 C506 1.819 . S
H481 C495 0.941 . S
H482 C496 0.939 . S
H483 C498 0.940 . S
H484 C499 0.940 . S
H485 C501 0.939 . S
H486 C502 0.942 . S
H487 C504 0.940 . S
H488 C505 0.939 . S
H489 C507 0.941 . S
H490 C511 0.939 . S
O491 P480 1.490 . S
H492 C508 0.939 . S
H493 C510 0.940 . S
C494 P480 1.812 . S
C494 C495 1.389 . S
C494 C499 1.391 . S
C495 H481 0.941 . S
C495 C494 1.389 . S
C495 C496 1.397 . S
C496 H482 0.939 . S
C496 C495 1.397 . S
C496 C497 1.378 . S
C497 C496 1.378 . S
C497 C498 1.378 . S
C498 H483 0.940 . S
C498 C497 1.378 . S
C498 C499 1.396 . S
C499 H484 0.940 . S
C499 C494 1.391 . S
C499 C498 1.396 . S
C500 P480 1.803 . S
C500 C501 1.378 . S
C500 C505 1.400 . S
C501 H485 0.939 . S
C501 C500 1.378 . S
C501 C502 1.361 . S
C502 H486 0.942 . S
C502 C501 1.361 . S
C502 C503 1.369 . S
C503 C502 1.369 . S
C503 C504 1.404 . S
C504 H487 0.940 . S
C504 C503 1.404 . S
C504 C505 1.389 . S
C505 H488 0.939 . S
C505 C500 1.400 . S
C505 C504 1.389 . S
C506 P480 1.819 . S
C506 C507 1.391 . S
C506 C511 1.391 . S
C507 H489 0.941 . S
C507 C506 1.391 . S
C507 C508 1.396 . S
C508 H492 0.939 . S
C508 C507 1.396 . S
C508 C509 1.397 . S
C509 C508 1.397 . S
C509 C510 1.385 . S
C510 H493 0.940 . S
C510 C509 1.385 . S
C510 C511 1.388 . S
C511 H490 0.939 . S
C511 C506 1.391 . S
C511 C510 1.388 . S
P512 O523 1.490 . S
P512 C526 1.812 . S
P512 C532 1.803 . S
P512 C538 1.819 . S
H513 C527 0.941 . S
H514 C528 0.939 . S
H515 C530 0.940 . S
H516 C531 0.940 . S
H517 C533 0.939 . S
H518 C534 0.942 . S
H519 C536 0.940 . S
H520 C537 0.939 . S
H521 C539 0.941 . S
H522 C543 0.939 . S
O523 P512 1.490 . S
H524 C540 0.939 . S
H525 C542 0.940 . S
C526 P512 1.812 . S
C526 C527 1.389 . S
C526 C531 1.391 . S
C527 H513 0.941 . S
C527 C526 1.389 . S
C527 C528 1.397 . S
C528 H514 0.939 . S
C528 C527 1.397 . S
C528 C529 1.378 . S
C529 C528 1.378 . S
C529 C530 1.378 . S
C530 H515 0.940 . S
C530 C529 1.378 . S
C530 C531 1.396 . S
C531 H516 0.940 . S
C531 C526 1.391 . S
C531 C530 1.396 . S
C532 P512 1.803 . S
C532 C533 1.378 . S
C532 C537 1.400 . S
C533 H517 0.939 . S
C533 C532 1.378 . S
C533 C534 1.361 . S
C534 H518 0.942 . S
C534 C533 1.361 . S
C534 C535 1.369 . S
C535 C534 1.369 . S
C535 C536 1.404 . S
C536 H519 0.940 . S
C536 C535 1.404 . S
C536 C537 1.389 . S
C537 H520 0.939 . S
C537 C532 1.400 . S
C537 C536 1.389 . S
C538 P512 1.819 . S
C538 C539 1.391 . S
C538 C543 1.391 . S
C539 H521 0.941 . S
C539 C538 1.391 . S
C539 C540 1.396 . S
C540 H524 0.939 . S
C540 C539 1.396 . S
C540 C541 1.397 . S
C541 C540 1.397 . S
C541 C542 1.385 . S
C542 H525 0.940 . S
C542 C541 1.385 . S
C542 C543 1.388 . S
C543 H522 0.939 . S
C543 C538 1.391 . S
C543 C542 1.388 . S
P544 O555 1.490 . S
P544 C558 1.812 . S
P544 C564 1.803 . S
P544 C570 1.819 . S
H545 C559 0.941 . S
H546 C560 0.939 . S
H547 C562 0.940 . S
H548 C563 0.940 . S
H549 C565 0.939 . S
H550 C566 0.942 . S
H551 C568 0.940 . S
H552 C569 0.939 . S
H553 C571 0.941 . S
H554 C575 0.939 . S
O555 P544 1.490 . S
H556 C572 0.939 . S
H557 C574 0.940 . S
C558 P544 1.812 . S
C558 C559 1.389 . S
C558 C563 1.391 . S
C559 H545 0.941 . S
C559 C558 1.389 . S
C559 C560 1.397 . S
C560 H546 0.939 . S
C560 C559 1.397 . S
C560 C561 1.378 . S
C561 C560 1.378 . S
C561 C562 1.378 . S
C562 H547 0.940 . S
C562 C561 1.378 . S
C562 C563 1.396 . S
C563 H548 0.940 . S
C563 C558 1.391 . S
C563 C562 1.396 . S
C564 P544 1.803 . S
C564 C565 1.378 . S
C564 C569 1.400 . S
C565 H549 0.939 . S
C565 C564 1.378 . S
C565 C566 1.361 . S
C566 H550 0.942 . S
C566 C565 1.361 . S
C566 C567 1.369 . S
C567 C566 1.369 . S
C567 C568 1.404 . S
C568 H551 0.940 . S
C568 C567 1.404 . S
C568 C569 1.389 . S
C569 H552 0.939 . S
C569 C564 1.400 . S
C569 C568 1.389 . S
C570 P544 1.819 . S
C570 C571 1.391 . S
C570 C575 1.391 . S
C571 H553 0.941 . S
C571 C570 1.391 . S
C571 C572 1.396 . S
C572 H556 0.939 . S
C572 C571 1.396 . S
C572 C573 1.397 . S
C573 C572 1.397 . S
C573 C574 1.385 . S
C574 H557 0.940 . S
C574 C573 1.385 . S
C574 C575 1.388 . S
C575 H554 0.939 . S
C575 C570 1.391 . S
C575 C574 1.388 . S
Tb576 N607 2.660 . S
Tb576 N614 2.600 . S
Tb576 O620 2.546 . S
Tb576 O621 2.578 1_566 S
Tb576 O623 2.320 1_565 S
Tb576 O624 2.552 1_565 S
Tb576 O625 2.413 . S
Tb576 O627 2.362 1_556 S
Tb576 O628 2.421 . S
Tb576 C640 2.833 . S
C577 C580 1.432 . S
C577 C581 1.414 . S
C577 N584 1.359 . S
C578 C580 1.417 . S
C578 C582 1.432 . S
C578 C590 1.410 . S
C579 C581 1.444 . S
C579 C582 1.317 . S
C579 H602 0.929 . S
C580 C577 1.432 . S
C580 C578 1.417 . S
C580 N588 1.360 . S
C581 C577 1.414 . S
C581 C579 1.444 . S
C581 C586 1.385 . S
C582 C578 1.432 . S
C582 C579 1.317 . S
C582 H594 0.930 . S
C583 C585 1.392 . S
C583 C586 1.370 . S
C583 H595 0.931 . S
N584 C577 1.359 . S
N584 C585 1.327 . S
N584 Tb587 2.600 . S
C585 C583 1.392 . S
C585 N584 1.327 . S
C585 H592 0.930 . S
C586 C581 1.385 . S
C586 C583 1.370 . S
C586 H605 0.930 . S
Tb587 N584 2.600 . S
Tb587 N588 2.660 . S
Tb587 O621 2.415 . S
Tb587 O622 2.421 . S
Tb587 O626 2.546 . S
Tb587 O627 2.610 1_545 S
Tb587 O629 2.320 1_545 S
Tb587 O630 2.552 1_545 S
Tb587 O631 2.413 . S
Tb587 C651 2.833 . S
N588 C580 1.360 . S
N588 Tb587 2.660 . S
N588 C589 1.305 . S
C589 N588 1.305 . S
C589 C591 1.407 . S
C589 H596 0.930 . S
C590 C578 1.410 . S
C590 C591 1.345 . S
C590 H598 0.930 . S
C591 C589 1.407 . S
C591 C590 1.345 . S
C591 H593 0.930 . S
H592 C585 0.930 . S
H593 C591 0.930 . S
H594 C582 0.930 . S
H595 C583 0.931 . S
H596 C589 0.930 . S
H597 C611 0.930 . S
H598 C590 0.930 . S
H599 C617 0.930 . S
H600 C608 0.930 . S
H601 C615 0.931 . S
H602 C579 0.929 . S
H603 C609 0.930 . S
H604 C642 0.930 . S
H605 C586 0.930 . S
H606 C641 0.929 . S
N607 Tb576 2.660 . S
N607 C608 1.305 . S
N607 C612 1.360 . S
C608 H600 0.930 . S
C608 N607 1.305 . S
C608 C611 1.407 . S
C609 H603 0.930 . S
C609 C610 1.410 . S
C609 C611 1.345 . S
C610 C609 1.410 . S
C610 C612 1.417 . S
C610 C642 1.432 . S
C611 H597 0.930 . S
C611 C608 1.407 . S
C611 C609 1.345 . S
C612 N607 1.360 . S
C612 C610 1.417 . S
C612 C616 1.432 . S
H613 C618 0.930 . S
N614 Tb576 2.600 . S
N614 C616 1.359 . S
N614 C617 1.327 . S
C615 H601 0.931 . S
C615 C617 1.392 . S
C615 C618 1.370 . S
C616 C612 1.432 . S
C616 N614 1.359 . S
C616 C619 1.414 . S
C617 H599 0.930 . S
C617 N614 1.327 . S
C617 C615 1.392 . S
C618 H613 0.930 . S
C618 C615 1.370 . S
C618 C619 1.385 . S
C619 C616 1.414 . S
C619 C618 1.385 . S
C619 C641 1.444 . S
O620 Tb576 2.546 . S
O620 C640 1.251 . S
O621 Tb576 2.578 1_544 S
O621 Tb587 2.415 . S
O621 C632 1.240 1_554 S
O622 Tb587 2.421 . S
O622 C639 1.262 1_554 S
O623 Tb576 2.320 1_545 S
O623 C639 1.260 . S
O624 Tb576 2.552 1_545 S
O624 C632 1.243 . S
O625 Tb576 2.413 . S
O625 C640 1.256 . S
O626 Tb587 2.546 . S
O626 C651 1.251 . S
O627 Tb576 2.362 1_554 S
O627 Tb587 2.610 1_565 S
O627 C643 1.283 . S
O628 Tb576 2.421 . S
O628 C650 1.262 1_556 S
O629 Tb587 2.320 1_565 S
O629 C650 1.260 . S
O630 Tb587 2.552 1_565 S
O630 C643 1.243 . S
O631 Tb587 2.413 . S
O631 C651 1.256 . S
C632 O621 1.240 1_556 S
C632 O624 1.243 . S
C633 C635 1.382 1_565 S
C633 C637 1.393 . S
C633 C640 1.500 . S
C634 C635 1.400 . S
C634 C636 1.384 1_545 S
C635 C633 1.382 1_545 S
C635 C634 1.400 . S
C635 H652 0.930 . S
C636 C634 1.384 1_565 S
C636 C638 1.392 . S
C636 H653 0.933 . S
C637 C633 1.393 . S
C637 C638 1.401 . S
C637 H654 0.930 . S
C638 C636 1.392 . S
C638 C637 1.401 . S
C638 H655 0.930 . S
C639 O622 1.262 1_556 S
C639 O623 1.260 . S
C640 Tb576 2.833 . S
C640 O620 1.251 . S
C640 O625 1.256 . S
C640 C633 1.500 . S
C641 H606 0.929 . S
C641 C619 1.444 . S
C641 C642 1.317 . S
C642 H604 0.930 . S
C642 C610 1.432 . S
C642 C641 1.317 . S
C643 O627 1.283 . S
C643 O630 1.243 . S
C644 C645 1.382 1_545 S
C644 C648 1.393 . S
C644 C651 1.500 . S
C645 C644 1.382 1_565 S
C645 C646 1.400 . S
C645 H656 0.930 . S
C646 C645 1.400 . S
C646 C647 1.384 1_565 S
C647 C646 1.384 1_545 S
C647 C649 1.392 . S
C647 H657 0.931 . S
C648 C644 1.393 . S
C648 C649 1.401 . S
C648 H658 0.930 . S
C649 C647 1.392 . S
C649 C648 1.401 . S
C649 H659 0.930 . S
C650 O628 1.262 1_554 S
C650 O629 1.260 . S
C651 Tb587 2.833 . S
C651 O626 1.251 . S
C651 O631 1.256 . S
C651 C644 1.500 . S
H652 C635 0.930 . S
H653 C636 0.933 . S
H654 C637 0.930 . S
H655 C638 0.930 . S
H656 C645 0.930 . S
H657 C647 0.931 . S
H658 C648 0.930 . S
H659 C649 0.930 . S
Tb660 N691 2.660 . S
Tb660 N698 2.600 . S
Tb660 O704 2.546 . S
Tb660 O705 2.577 1_456 S
Tb660 O707 2.320 1_455 S
Tb660 O708 2.552 1_455 S
Tb660 O709 2.413 . S
Tb660 O711 2.362 1_556 S
Tb660 O712 2.415 1_556 S
Tb660 C724 2.833 . S
C661 C664 1.432 . S
C661 C665 1.414 . S
C661 N668 1.359 . S
C662 C664 1.417 . S
C662 C666 1.432 . S
C662 C674 1.410 . S
C663 C665 1.444 . S
C663 C666 1.317 . S
C663 H686 0.929 . S
C664 C661 1.432 . S
C664 C662 1.417 . S
C664 N672 1.360 . S
C665 C661 1.414 . S
C665 C663 1.444 . S
C665 C670 1.385 . S
C666 C662 1.432 . S
C666 C663 1.317 . S
C666 H678 0.930 . S
C667 C669 1.392 . S
C667 C670 1.370 . S
C667 H679 0.931 . S
N668 C661 1.359 . S
N668 C669 1.327 . S
N668 Tb671 2.600 . S
C669 C667 1.392 . S
C669 N668 1.327 . S
C669 H676 0.930 . S
C670 C665 1.385 . S
C670 C667 1.370 . S
C670 H689 0.930 . S
Tb671 N668 2.600 . S
Tb671 N672 2.660 . S
Tb671 O705 2.417 . S
Tb671 O706 2.421 . S
Tb671 O710 2.546 . S
Tb671 O711 2.610 1_655 S
Tb671 O713 2.320 1_655 S
Tb671 O714 2.552 1_655 S
Tb671 O715 2.413 . S
Tb671 C735 2.833 . S
N672 C664 1.360 . S
N672 Tb671 2.660 . S
N672 C673 1.305 . S
C673 N672 1.305 . S
C673 C675 1.407 . S
C673 H680 0.930 . S
C674 C662 1.410 . S
C674 C675 1.345 . S
C674 H682 0.930 . S
C675 C673 1.407 . S
C675 C674 1.345 . S
C675 H677 0.930 . S
H676 C669 0.930 . S
H677 C675 0.930 . S
H678 C666 0.930 . S
H679 C667 0.931 . S
H680 C673 0.930 . S
H681 C695 0.930 . S
H682 C674 0.930 . S
H683 C701 0.930 . S
H684 C692 0.930 . S
H685 C699 0.931 . S
H686 C663 0.929 . S
H687 C693 0.930 . S
H688 C726 0.930 . S
H689 C670 0.930 . S
H690 C725 0.929 . S
N691 Tb660 2.660 . S
N691 C692 1.305 . S
N691 C696 1.360 . S
C692 H684 0.930 . S
C692 N691 1.305 . S
C692 C695 1.407 . S
C693 H687 0.930 . S
C693 C694 1.410 . S
C693 C695 1.345 . S
C694 C693 1.410 . S
C694 C696 1.417 . S
C694 C726 1.432 . S
C695 H681 0.930 . S
C695 C692 1.407 . S
C695 C693 1.345 . S
C696 N691 1.360 . S
C696 C694 1.417 . S
C696 C700 1.432 . S
H697 C702 0.930 . S
N698 Tb660 2.600 . S
N698 C700 1.359 . S
N698 C701 1.327 . S
C699 H685 0.931 . S
C699 C701 1.392 . S
C699 C702 1.370 . S
C700 C696 1.432 . S
C700 N698 1.359 . S
C700 C703 1.414 . S
C701 H683 0.930 . S
C701 N698 1.327 . S
C701 C699 1.392 . S
C702 H697 0.930 . S
C702 C699 1.370 . S
C702 C703 1.385 . S
C703 C700 1.414 . S
C703 C702 1.385 . S
C703 C725 1.444 . S
O704 Tb660 2.546 . S
O704 C724 1.251 . S
O705 Tb660 2.577 1_654 S
O705 Tb671 2.417 . S
O705 C716 1.238 1_554 S
O706 Tb671 2.421 . S
O706 C723 1.262 1_554 S
O707 Tb660 2.320 1_655 S
O707 C723 1.260 . S
O708 Tb660 2.552 1_655 S
O708 C716 1.243 . S
O709 Tb660 2.413 . S
O709 C724 1.256 . S
O710 Tb671 2.546 . S
O710 C735 1.251 . S
O711 Tb660 2.362 1_554 S
O711 Tb671 2.610 1_455 S
O711 C727 1.283 . S
O712 Tb660 2.415 1_554 S
O712 C734 1.272 . S
O713 Tb671 2.320 1_455 S
O713 C734 1.260 . S
O714 Tb671 2.552 1_455 S
O714 C727 1.243 . S
O715 Tb671 2.413 . S
O715 C735 1.256 . S
C716 O705 1.238 1_556 S
C716 O708 1.243 . S
C717 C719 1.382 1_455 S
C717 C721 1.393 . S
C717 C724 1.500 . S
C718 C719 1.400 . S
C718 C720 1.384 1_655 S
C719 C717 1.382 1_655 S
C719 C718 1.400 . S
C719 H736 0.930 . S
C720 C718 1.384 1_455 S
C720 C722 1.392 . S
C720 H737 0.931 . S
C721 C717 1.393 . S
C721 C722 1.401 . S
C721 H738 0.930 . S
C722 C720 1.392 . S
C722 C721 1.401 . S
C722 H739 0.930 . S
C723 O706 1.262 1_556 S
C723 O707 1.260 . S
C724 Tb660 2.833 . S
C724 O704 1.251 . S
C724 O709 1.256 . S
C724 C717 1.500 . S
C725 H690 0.929 . S
C725 C703 1.444 . S
C725 C726 1.317 . S
C726 H688 0.930 . S
C726 C694 1.432 . S
C726 C725 1.317 . S
C727 O711 1.283 . S
C727 O714 1.243 . S
C728 C729 1.382 1_655 S
C728 C732 1.393 . S
C728 C735 1.500 . S
C729 C728 1.382 1_455 S
C729 C730 1.400 . S
C729 H740 0.930 . S
C730 C729 1.400 . S
C730 C731 1.384 1_455 S
C731 C730 1.384 1_655 S
C731 C733 1.392 . S
C731 H741 0.931 . S
C732 C728 1.393 . S
C732 C733 1.401 . S
C732 H742 0.930 . S
C733 C731 1.392 . S
C733 C732 1.401 . S
C733 H743 0.930 . S
C734 O712 1.272 . S
C734 O713 1.260 . S
C735 Tb671 2.833 . S
C735 O710 1.251 . S
C735 O715 1.256 . S
C735 C728 1.500 . S
H736 C719 0.930 . S
H737 C720 0.931 . S
H738 C721 0.930 . S
H739 C722 0.930 . S
H740 C729 0.930 . S
H741 C731 0.931 . S
H742 C732 0.930 . S
H743 C733 0.930 . S
Tb744 N775 2.660 . S
Tb744 N782 2.600 . S
Tb744 O788 2.546 . S
Tb744 O789 2.610 . S
Tb744 O791 2.320 . S
Tb744 O792 2.552 . S
Tb744 O793 2.413 . S
Tb744 O795 2.369 1_554 S
Tb744 O796 2.421 . S
Tb744 C808 2.833 . S
C745 C748 1.432 . S
C745 C749 1.414 . S
C745 N752 1.359 . S
C746 C748 1.417 . S
C746 C750 1.432 . S
C746 C758 1.410 . S
C747 C749 1.444 . S
C747 C750 1.317 . S
C747 H770 0.929 . S
C748 C745 1.432 . S
C748 C746 1.417 . S
C748 N756 1.360 . S
C749 C745 1.414 . S
C749 C747 1.444 . S
C749 C754 1.385 . S
C750 C746 1.432 . S
C750 C747 1.317 . S
C750 H762 0.930 . S
C751 C753 1.392 . S
C751 C754 1.370 . S
C751 H763 0.931 . S
N752 C745 1.359 . S
N752 C753 1.327 . S
N752 Tb755 2.600 . S
C753 C751 1.392 . S
C753 N752 1.327 . S
C753 H760 0.930 . S
C754 C749 1.385 . S
C754 C751 1.370 . S
C754 H773 0.930 . S
Tb755 N752 2.600 . S
Tb755 N756 2.660 . S
Tb755 O789 2.362 1_556 S
Tb755 O790 2.421 . S
Tb755 O794 2.546 . S
Tb755 O795 2.605 . S
Tb755 O797 2.320 . S
Tb755 O798 2.552 . S
Tb755 O799 2.413 . S
Tb755 C819 2.833 . S
N756 C748 1.360 . S
N756 Tb755 2.660 . S
N756 C757 1.305 . S
C757 N756 1.305 . S
C757 C759 1.407 . S
C757 H764 0.930 . S
C758 C746 1.410 . S
C758 C759 1.345 . S
C758 H766 0.930 . S
C759 C757 1.407 . S
C759 C758 1.345 . S
C759 H761 0.930 . S
H760 C753 0.930 . S
H761 C759 0.930 . S
H762 C750 0.930 . S
H763 C751 0.931 . S
H764 C757 0.930 . S
H765 C779 0.930 . S
H766 C758 0.930 . S
H767 C785 0.930 . S
H768 C776 0.930 . S
H769 C783 0.931 . S
H770 C747 0.929 . S
H771 C777 0.930 . S
H772 C810 0.930 . S
H773 C754 0.930 . S
H774 C809 0.929 . S
N775 Tb744 2.660 . S
N775 C776 1.305 . S
N775 C780 1.360 . S
C776 H768 0.930 . S
C776 N775 1.305 . S
C776 C779 1.407 . S
C777 H771 0.930 . S
C777 C778 1.410 . S
C777 C779 1.345 . S
C778 C777 1.410 . S
C778 C780 1.417 . S
C778 C810 1.432 . S
C779 H765 0.930 . S
C779 C776 1.407 . S
C779 C777 1.345 . S
C780 N775 1.360 . S
C780 C778 1.417 . S
C780 C784 1.432 . S
H781 C786 0.930 . S
N782 Tb744 2.600 . S
N782 C784 1.359 . S
N782 C785 1.327 . S
C783 H769 0.931 . S
C783 C785 1.392 . S
C783 C786 1.370 . S
C784 C780 1.432 . S
C784 N782 1.359 . S
C784 C787 1.414 . S
C785 H767 0.930 . S
C785 N782 1.327 . S
C785 C783 1.392 . S
C786 H781 0.930 . S
C786 C783 1.370 . S
C786 C787 1.385 . S
C787 C784 1.414 . S
C787 C786 1.385 . S
C787 C809 1.444 . S
O788 Tb744 2.546 . S
O788 C808 1.251 . S
O789 Tb744 2.610 . S
O789 Tb755 2.362 1_554 S
O789 C800 1.283 . S
O790 Tb755 2.421 . S
O790 C807 1.262 1_556 S
O791 Tb744 2.320 . S
O791 C807 1.260 . S
O792 Tb744 2.552 . S
O792 C800 1.243 . S
O793 Tb744 2.413 . S
O793 C808 1.256 . S
O794 Tb755 2.546 . S
O794 C819 1.251 . S
O795 Tb744 2.369 1_556 S
O795 Tb755 2.605 . S
O795 C811 1.277 . S
O796 Tb744 2.421 . S
O796 C818 1.262 1_554 S
O797 Tb755 2.320 . S
O797 C818 1.260 . S
O798 Tb755 2.552 . S
O798 C811 1.243 . S
O799 Tb755 2.413 . S
O799 C819 1.256 . S
C800 O789 1.283 . S
C800 O792 1.243 . S
C801 C803 1.382 . S
C801 C805 1.393 . S
C801 C808 1.500 . S
C802 C803 1.400 . S
C802 C804 1.384 . S
C803 C801 1.382 . S
C803 C802 1.400 . S
C803 H820 0.930 . S
C804 C802 1.384 . S
C804 C806 1.392 . S
C804 H821 0.931 . S
C805 C801 1.393 . S
C805 C806 1.401 . S
C805 H822 0.930 . S
C806 C804 1.392 . S
C806 C805 1.401 . S
C806 H823 0.930 . S
C807 O790 1.262 1_554 S
C807 O791 1.260 . S
C808 Tb744 2.833 . S
C808 O788 1.251 . S
C808 O793 1.256 . S
C808 C801 1.500 . S
C809 H774 0.929 . S
C809 C787 1.444 . S
C809 C810 1.317 . S
C810 H772 0.930 . S
C810 C778 1.432 . S
C810 C809 1.317 . S
C811 O795 1.277 . S
C811 O798 1.243 . S
C812 C813 1.382 . S
C812 C816 1.393 . S
C812 C819 1.500 . S
C813 C812 1.382 . S
C813 C814 1.400 . S
C813 H824 0.930 . S
C814 C813 1.400 . S
C814 C815 1.384 . S
C815 C814 1.384 . S
C815 C817 1.392 . S
C815 H825 0.931 . S
C816 C812 1.393 . S
C816 C817 1.401 . S
C816 H826 0.930 . S
C817 C815 1.392 . S
C817 C816 1.401 . S
C817 H827 0.930 . S
C818 O796 1.262 1_556 S
C818 O797 1.260 . S
C819 Tb755 2.833 . S
C819 O794 1.251 . S
C819 O799 1.256 . S
C819 C812 1.500 . S
H820 C803 0.930 . S
H821 C804 0.931 . S
H822 C805 0.930 . S
H823 C806 0.930 . S
H824 C813 0.930 . S
H825 C815 0.931 . S
H826 C816 0.930 . S
H827 C817 0.930 . S
Tb828 N859 2.660 . S
Tb828 N866 2.600 . S
Tb828 O872 2.546 . S
Tb828 O873 2.610 . S
Tb828 O875 2.320 . S
Tb828 O876 2.552 . S
Tb828 O877 2.413 . S
Tb828 O879 2.362 . S
Tb828 O880 2.421 . S
Tb828 C892 2.833 . S
C829 C832 1.432 . S
C829 C833 1.414 . S
C829 N836 1.359 . S
C830 C832 1.417 . S
C830 C834 1.432 . S
C830 C842 1.410 . S
C831 C833 1.444 . S
C831 C834 1.317 . S
C831 H854 0.929 . S
C832 C829 1.432 . S
C832 C830 1.417 . S
C832 N840 1.360 . S
C833 C829 1.414 . S
C833 C831 1.444 . S
C833 C838 1.385 . S
C834 C830 1.432 . S
C834 C831 1.317 . S
C834 H846 0.930 . S
C835 C837 1.392 . S
C835 C838 1.370 . S
C835 H847 0.931 . S
N836 C829 1.359 . S
N836 C837 1.327 . S
N836 Tb839 2.600 . S
C837 C835 1.392 . S
C837 N836 1.327 . S
C837 H844 0.930 . S
C838 C833 1.385 . S
C838 C835 1.370 . S
C838 H857 0.930 . S
Tb839 N836 2.600 . S
Tb839 N840 2.660 . S
Tb839 O873 2.362 . S
Tb839 O874 2.421 . S
Tb839 O878 2.546 . S
Tb839 O879 2.610 . S
Tb839 O881 2.320 . S
Tb839 O882 2.552 . S
Tb839 O883 2.413 . S
Tb839 C903 2.833 . S
N840 C832 1.360 . S
N840 Tb839 2.660 . S
N840 C841 1.305 . S
C841 N840 1.305 . S
C841 C843 1.407 . S
C841 H848 0.930 . S
C842 C830 1.410 . S
C842 C843 1.345 . S
C842 H850 0.930 . S
C843 C841 1.407 . S
C843 C842 1.345 . S
C843 H845 0.930 . S
H844 C837 0.930 . S
H845 C843 0.930 . S
H846 C834 0.930 . S
H847 C835 0.931 . S
H848 C841 0.930 . S
H849 C863 0.930 . S
H850 C842 0.930 . S
H851 C869 0.930 . S
H852 C860 0.930 . S
H853 C867 0.931 . S
H854 C831 0.929 . S
H855 C861 0.930 . S
H856 C894 0.930 . S
H857 C838 0.930 . S
H858 C893 0.929 . S
N859 Tb828 2.660 . S
N859 C860 1.305 . S
N859 C864 1.360 . S
C860 H852 0.930 . S
C860 N859 1.305 . S
C860 C863 1.407 . S
C861 H855 0.930 . S
C861 C862 1.410 . S
C861 C863 1.345 . S
C862 C861 1.410 . S
C862 C864 1.417 . S
C862 C894 1.432 . S
C863 H849 0.930 . S
C863 C860 1.407 . S
C863 C861 1.345 . S
C864 N859 1.360 . S
C864 C862 1.417 . S
C864 C868 1.432 . S
H865 C870 0.930 . S
N866 Tb828 2.600 . S
N866 C868 1.359 . S
N866 C869 1.327 . S
C867 H853 0.931 . S
C867 C869 1.392 . S
C867 C870 1.370 . S
C868 C864 1.432 . S
C868 N866 1.359 . S
C868 C871 1.414 . S
C869 H851 0.930 . S
C869 N866 1.327 . S
C869 C867 1.392 . S
C870 H865 0.930 . S
C870 C867 1.370 . S
C870 C871 1.385 . S
C871 C868 1.414 . S
C871 C870 1.385 . S
C871 C893 1.444 . S
O872 Tb828 2.546 . S
O872 C892 1.251 . S
O873 Tb828 2.610 . S
O873 Tb839 2.362 . S
O873 C884 1.283 . S
O874 Tb839 2.421 . S
O874 C891 1.262 . S
O875 Tb828 2.320 . S
O875 C891 1.260 . S
O876 Tb828 2.552 . S
O876 C884 1.243 . S
O877 Tb828 2.413 . S
O877 C892 1.256 . S
O878 Tb839 2.546 . S
O878 C903 1.251 . S
O879 Tb828 2.362 . S
O879 Tb839 2.610 . S
O879 C895 1.283 . S
O880 Tb828 2.421 . S
O880 C902 1.262 . S
O881 Tb839 2.320 . S
O881 C902 1.260 . S
O882 Tb839 2.552 . S
O882 C895 1.243 . S
O883 Tb839 2.413 . S
O883 C903 1.256 . S
C884 O873 1.283 . S
C884 O876 1.243 . S
C885 C887 1.382 . S
C885 C889 1.393 . S
C885 C892 1.500 . S
C886 C887 1.400 . S
C886 C888 1.384 . S
C887 C885 1.382 . S
C887 C886 1.400 . S
C887 H904 0.930 . S
C888 C886 1.384 . S
C888 C890 1.392 . S
C888 H905 0.931 . S
C889 C885 1.393 . S
C889 C890 1.401 . S
C889 H906 0.930 . S
C890 C888 1.392 . S
C890 C889 1.401 . S
C890 H907 0.930 . S
C891 O874 1.262 . S
C891 O875 1.260 . S
C892 Tb828 2.833 . S
C892 O872 1.251 . S
C892 O877 1.256 . S
C892 C885 1.500 . S
C893 H858 0.929 . S
C893 C871 1.444 . S
C893 C894 1.317 . S
C894 H856 0.930 . S
C894 C862 1.432 . S
C894 C893 1.317 . S
C895 O879 1.283 . S
C895 O882 1.243 . S
C896 C897 1.382 . S
C896 C900 1.393 . S
C896 C903 1.500 . S
C897 C896 1.382 . S
C897 C898 1.400 . S
C897 H908 0.930 . S
C898 C897 1.400 . S
C898 C899 1.384 . S
C899 C898 1.384 . S
C899 C901 1.392 . S
C899 H909 0.931 . S
C900 C896 1.393 . S
C900 C901 1.401 . S
C900 H910 0.930 . S
C901 C899 1.392 . S
C901 C900 1.401 . S
C901 H911 0.930 . S
C902 O880 1.262 . S
C902 O881 1.260 . S
C903 Tb839 2.833 . S
C903 O878 1.251 . S
C903 O883 1.256 . S
C903 C896 1.500 . S
H904 C887 0.930 . S
H905 C888 0.931 . S
H906 C889 0.930 . S
H907 C890 0.930 . S
H908 C897 0.930 . S
H909 C899 0.931 . S
H910 C900 0.930 . S
H911 C901 0.930 . S
Tb912 N943 2.660 . S
Tb912 N950 2.600 . S
Tb912 O956 2.546 . S
Tb912 O957 2.610 . S
Tb912 O959 2.320 . S
Tb912 O960 2.552 . S
Tb912 O961 2.413 . S
Tb912 O963 2.362 . S
Tb912 O964 2.421 . S
Tb912 C976 2.833 . S
C913 C916 1.432 . S
C913 C917 1.414 . S
C913 N920 1.359 . S
C914 C916 1.417 . S
C914 C918 1.432 . S
C914 C926 1.410 . S
C915 C917 1.444 . S
C915 C918 1.317 . S
C915 H938 0.929 . S
C916 C913 1.432 . S
C916 C914 1.417 . S
C916 N924 1.360 . S
C917 C913 1.414 . S
C917 C915 1.444 . S
C917 C922 1.385 . S
C918 C914 1.432 . S
C918 C915 1.317 . S
C918 H930 0.930 . S
C919 C921 1.392 . S
C919 C922 1.370 . S
C919 H931 0.931 . S
N920 C913 1.359 . S
N920 C921 1.327 . S
N920 Tb923 2.600 . S
C921 C919 1.392 . S
C921 N920 1.327 . S
C921 H928 0.930 . S
C922 C917 1.385 . S
C922 C919 1.370 . S
C922 H941 0.930 . S
Tb923 N920 2.600 . S
Tb923 N924 2.660 . S
Tb923 O957 2.362 . S
Tb923 O958 2.421 . S
Tb923 O962 2.546 . S
Tb923 O963 2.610 . S
Tb923 O965 2.320 . S
Tb923 O966 2.552 . S
Tb923 O967 2.413 . S
Tb923 C987 2.833 . S
N924 C916 1.360 . S
N924 Tb923 2.660 . S
N924 C925 1.305 . S
C925 N924 1.305 . S
C925 C927 1.407 . S
C925 H932 0.930 . S
C926 C914 1.410 . S
C926 C927 1.345 . S
C926 H934 0.930 . S
C927 C925 1.407 . S
C927 C926 1.345 . S
C927 H929 0.930 . S
H928 C921 0.930 . S
H929 C927 0.930 . S
H930 C918 0.930 . S
H931 C919 0.931 . S
H932 C925 0.930 . S
H933 C947 0.930 . S
H934 C926 0.930 . S
H935 C953 0.930 . S
H936 C944 0.930 . S
H937 C951 0.931 . S
H938 C915 0.929 . S
H939 C945 0.930 . S
H940 C978 0.930 . S
H941 C922 0.930 . S
H942 C977 0.929 . S
N943 Tb912 2.660 . S
N943 C944 1.305 . S
N943 C948 1.360 . S
C944 H936 0.930 . S
C944 N943 1.305 . S
C944 C947 1.407 . S
C945 H939 0.930 . S
C945 C946 1.410 . S
C945 C947 1.345 . S
C946 C945 1.410 . S
C946 C948 1.417 . S
C946 C978 1.432 . S
C947 H933 0.930 . S
C947 C944 1.407 . S
C947 C945 1.345 . S
C948 N943 1.360 . S
C948 C946 1.417 . S
C948 C952 1.432 . S
H949 C954 0.930 . S
N950 Tb912 2.600 . S
N950 C952 1.359 . S
N950 C953 1.327 . S
C951 H937 0.931 . S
C951 C953 1.392 . S
C951 C954 1.370 . S
C952 C948 1.432 . S
C952 N950 1.359 . S
C952 C955 1.414 . S
C953 H935 0.930 . S
C953 N950 1.327 . S
C953 C951 1.392 . S
C954 H949 0.930 . S
C954 C951 1.370 . S
C954 C955 1.385 . S
C955 C952 1.414 . S
C955 C954 1.385 . S
C955 C977 1.444 . S
O956 Tb912 2.546 . S
O956 C976 1.251 . S
O957 Tb912 2.610 . S
O957 Tb923 2.362 . S
O957 C968 1.283 . S
O958 Tb923 2.421 . S
O958 C975 1.262 . S
O959 Tb912 2.320 . S
O959 C975 1.260 . S
O960 Tb912 2.552 . S
O960 C968 1.243 . S
O961 Tb912 2.413 . S
O961 C976 1.256 . S
O962 Tb923 2.546 . S
O962 C987 1.251 . S
O963 Tb912 2.362 . S
O963 Tb923 2.610 . S
O963 C979 1.283 . S
O964 Tb912 2.421 . S
O964 C986 1.262 . S
O965 Tb923 2.320 . S
O965 C986 1.260 . S
O966 Tb923 2.552 . S
O966 C979 1.243 . S
O967 Tb923 2.413 . S
O967 C987 1.256 . S
C968 O957 1.283 . S
C968 O960 1.243 . S
C969 C971 1.382 . S
C969 C973 1.393 . S
C969 C976 1.500 . S
C970 C971 1.400 . S
C970 C972 1.384 . S
C971 C969 1.382 . S
C971 C970 1.400 . S
C971 H988 0.930 . S
C972 C970 1.384 . S
C972 C974 1.392 . S
C972 H989 0.931 . S
C973 C969 1.393 . S
C973 C974 1.401 . S
C973 H990 0.930 . S
C974 C972 1.392 . S
C974 C973 1.401 . S
C974 H991 0.930 . S
C975 O958 1.262 . S
C975 O959 1.260 . S
C976 Tb912 2.833 . S
C976 O956 1.251 . S
C976 O961 1.256 . S
C976 C969 1.500 . S
C977 H942 0.929 . S
C977 C955 1.444 . S
C977 C978 1.317 . S
C978 H940 0.930 . S
C978 C946 1.432 . S
C978 C977 1.317 . S
C979 O963 1.283 . S
C979 O966 1.243 . S
C980 C981 1.382 . S
C980 C984 1.393 . S
C980 C987 1.500 . S
C981 C980 1.382 . S
C981 C982 1.400 . S
C981 H992 0.930 . S
C982 C981 1.400 . S
C982 C983 1.384 . S
C983 C982 1.384 . S
C983 C985 1.392 . S
C983 H993 0.931 . S
C984 C980 1.393 . S
C984 C985 1.401 . S
C984 H994 0.930 . S
C985 C983 1.392 . S
C985 C984 1.401 . S
C985 H995 0.930 . S
C986 O964 1.262 . S
C986 O965 1.260 . S
C987 Tb923 2.833 . S
C987 O962 1.251 . S
C987 O967 1.256 . S
C987 C980 1.500 . S
H988 C971 0.930 . S
H989 C972 0.931 . S
H990 C973 0.930 . S
H991 C974 0.930 . S
H992 C981 0.930 . S
H993 C983 0.931 . S
H994 C984 0.930 . S
H995 C985 0.930 . S
Tb996 N1027 2.660 . S
Tb996 N1034 2.600 . S
Tb996 O1040 2.546 . S
Tb996 O1041 2.610 . S
Tb996 O1043 2.320 . S
Tb996 O1044 2.552 . S
Tb996 O1045 2.413 . S
Tb996 O1047 2.362 . S
Tb996 O1048 2.421 . S
Tb996 C1060 2.833 . S
C997 C1000 1.432 . S
C997 C1001 1.414 . S
C997 N1004 1.359 . S
C998 C1000 1.417 . S
C998 C1002 1.432 . S
C998 C1010 1.410 . S
C999 C1001 1.444 . S
C999 C1002 1.317 . S
C999 H1022 0.929 . S
C1000 C997 1.432 . S
C1000 C998 1.417 . S
C1000 N1008 1.360 . S
C1001 C997 1.414 . S
C1001 C999 1.444 . S
C1001 C1006 1.385 . S
C1002 C998 1.432 . S
C1002 C999 1.317 . S
C1002 H1014 0.930 . S
C1003 C1005 1.392 . S
C1003 C1006 1.370 . S
C1003 H1015 0.931 . S
N1004 C997 1.359 . S
N1004 C1005 1.327 . S
N1004 Tb1007 2.600 . S
C1005 C1003 1.392 . S
C1005 N1004 1.327 . S
C1005 H1012 0.930 . S
C1006 C1001 1.385 . S
C1006 C1003 1.370 . S
C1006 H1025 0.930 . S
Tb1007 N1004 2.600 . S
Tb1007 N1008 2.660 . S
Tb1007 O1041 2.362 . S
Tb1007 O1042 2.421 . S
Tb1007 O1046 2.546 . S
Tb1007 O1047 2.610 . S
Tb1007 O1049 2.320 . S
Tb1007 O1050 2.552 . S
Tb1007 O1051 2.413 . S
Tb1007 C1071 2.833 . S
N1008 C1000 1.360 . S
N1008 Tb1007 2.660 . S
N1008 C1009 1.305 . S
C1009 N1008 1.305 . S
C1009 C1011 1.407 . S
C1009 H1016 0.930 . S
C1010 C998 1.410 . S
C1010 C1011 1.345 . S
C1010 H1018 0.930 . S
C1011 C1009 1.407 . S
C1011 C1010 1.345 . S
C1011 H1013 0.930 . S
H1012 C1005 0.930 . S
H1013 C1011 0.930 . S
H1014 C1002 0.930 . S
H1015 C1003 0.931 . S
H1016 C1009 0.930 . S
H1017 C1031 0.930 . S
H1018 C1010 0.930 . S
H1019 C1037 0.930 . S
H1020 C1028 0.930 . S
H1021 C1035 0.931 . S
H1022 C999 0.929 . S
H1023 C1029 0.930 . S
H1024 C1062 0.930 . S
H1025 C1006 0.930 . S
H1026 C1061 0.929 . S
N1027 Tb996 2.660 . S
N1027 C1028 1.305 . S
N1027 C1032 1.360 . S
C1028 H1020 0.930 . S
C1028 N1027 1.305 . S
C1028 C1031 1.407 . S
C1029 H1023 0.930 . S
C1029 C1030 1.410 . S
C1029 C1031 1.345 . S
C1030 C1029 1.410 . S
C1030 C1032 1.417 . S
C1030 C1062 1.432 . S
C1031 H1017 0.930 . S
C1031 C1028 1.407 . S
C1031 C1029 1.345 . S
C1032 N1027 1.360 . S
C1032 C1030 1.417 . S
C1032 C1036 1.432 . S
H1033 C1038 0.930 . S
N1034 Tb996 2.600 . S
N1034 C1036 1.359 . S
N1034 C1037 1.327 . S
C1035 H1021 0.931 . S
C1035 C1037 1.392 . S
C1035 C1038 1.370 . S
C1036 C1032 1.432 . S
C1036 N1034 1.359 . S
C1036 C1039 1.414 . S
C1037 H1019 0.930 . S
C1037 N1034 1.327 . S
C1037 C1035 1.392 . S
C1038 H1033 0.930 . S
C1038 C1035 1.370 . S
C1038 C1039 1.385 . S
C1039 C1036 1.414 . S
C1039 C1038 1.385 . S
C1039 C1061 1.444 . S
O1040 Tb996 2.546 . S
O1040 C1060 1.251 . S
O1041 Tb996 2.610 . S
O1041 Tb1007 2.362 . S
O1041 C1052 1.283 . S
O1042 Tb1007 2.421 . S
O1042 C1059 1.262 . S
O1043 Tb996 2.320 . S
O1043 C1059 1.260 . S
O1044 Tb996 2.552 . S
O1044 C1052 1.243 . S
O1045 Tb996 2.413 . S
O1045 C1060 1.256 . S
O1046 Tb1007 2.546 . S
O1046 C1071 1.251 . S
O1047 Tb996 2.362 . S
O1047 Tb1007 2.610 . S
O1047 C1063 1.283 . S
O1048 Tb996 2.421 . S
O1048 C1070 1.262 . S
O1049 Tb1007 2.320 . S
O1049 C1070 1.260 . S
O1050 Tb1007 2.552 . S
O1050 C1063 1.243 . S
O1051 Tb1007 2.413 . S
O1051 C1071 1.256 . S
C1052 O1041 1.283 . S
C1052 O1044 1.243 . S
C1053 C1055 1.382 . S
C1053 C1057 1.393 . S
C1053 C1060 1.500 . S
C1054 C1055 1.400 . S
C1054 C1056 1.384 . S
C1055 C1053 1.382 . S
C1055 C1054 1.400 . S
C1055 H1072 0.930 . S
C1056 C1054 1.384 . S
C1056 C1058 1.392 . S
C1056 H1073 0.931 . S
C1057 C1053 1.393 . S
C1057 C1058 1.401 . S
C1057 H1074 0.930 . S
C1058 C1056 1.392 . S
C1058 C1057 1.401 . S
C1058 H1075 0.930 . S
C1059 O1042 1.262 . S
C1059 O1043 1.260 . S
C1060 Tb996 2.833 . S
C1060 O1040 1.251 . S
C1060 O1045 1.256 . S
C1060 C1053 1.500 . S
C1061 H1026 0.929 . S
C1061 C1039 1.444 . S
C1061 C1062 1.317 . S
C1062 H1024 0.930 . S
C1062 C1030 1.432 . S
C1062 C1061 1.317 . S
C1063 O1047 1.283 . S
C1063 O1050 1.243 . S
C1064 C1065 1.382 . S
C1064 C1068 1.393 . S
C1064 C1071 1.500 . S
C1065 C1064 1.382 . S
C1065 C1066 1.400 . S
C1065 H1076 0.930 . S
C1066 C1065 1.400 . S
C1066 C1067 1.384 . S
C1067 C1066 1.384 . S
C1067 C1069 1.392 . S
C1067 H1077 0.931 . S
C1068 C1064 1.393 . S
C1068 C1069 1.401 . S
C1068 H1078 0.930 . S
C1069 C1067 1.392 . S
C1069 C1068 1.401 . S
C1069 H1079 0.930 . S
C1070 O1048 1.262 . S
C1070 O1049 1.260 . S
C1071 Tb1007 2.833 . S
C1071 O1046 1.251 . S
C1071 O1051 1.256 . S
C1071 C1064 1.500 . S
H1072 C1055 0.930 . S
H1073 C1056 0.931 . S
H1074 C1057 0.930 . S
H1075 C1058 0.930 . S
H1076 C1065 0.930 . S
H1077 C1067 0.931 . S
H1078 C1068 0.930 . S
H1079 C1069 0.930 . S
Tb1080 N1111 2.660 . S
Tb1080 N1118 2.600 . S
Tb1080 O1124 2.546 . S
Tb1080 O1125 2.610 . S
Tb1080 O1127 2.320 . S
Tb1080 O1128 2.552 . S
Tb1080 O1129 2.413 . S
Tb1080 O1131 2.362 . S
Tb1080 O1132 2.421 . S
Tb1080 C1144 2.833 . S
C1081 C1084 1.432 . S
C1081 C1085 1.414 . S
C1081 N1088 1.359 . S
C1082 C1084 1.417 . S
C1082 C1086 1.432 . S
C1082 C1094 1.410 . S
C1083 C1085 1.444 . S
C1083 C1086 1.317 . S
C1083 H1106 0.929 . S
C1084 C1081 1.432 . S
C1084 C1082 1.417 . S
C1084 N1092 1.360 . S
C1085 C1081 1.414 . S
C1085 C1083 1.444 . S
C1085 C1090 1.385 . S
C1086 C1082 1.432 . S
C1086 C1083 1.317 . S
C1086 H1098 0.930 . S
C1087 C1089 1.392 . S
C1087 C1090 1.370 . S
C1087 H1099 0.931 . S
N1088 C1081 1.359 . S
N1088 C1089 1.327 . S
N1088 Tb1091 2.600 . S
C1089 C1087 1.392 . S
C1089 N1088 1.327 . S
C1089 H1096 0.930 . S
C1090 C1085 1.385 . S
C1090 C1087 1.370 . S
C1090 H1109 0.930 . S
Tb1091 N1088 2.600 . S
Tb1091 N1092 2.660 . S
Tb1091 O1125 2.362 . S
Tb1091 O1126 2.421 . S
Tb1091 O1130 2.546 . S
Tb1091 O1131 2.610 . S
Tb1091 O1133 2.320 . S
Tb1091 O1134 2.552 . S
Tb1091 O1135 2.413 . S
Tb1091 C1155 2.833 . S
N1092 C1084 1.360 . S
N1092 Tb1091 2.660 . S
N1092 C1093 1.305 . S
C1093 N1092 1.305 . S
C1093 C1095 1.407 . S
C1093 H1100 0.930 . S
C1094 C1082 1.410 . S
C1094 C1095 1.345 . S
C1094 H1102 0.930 . S
C1095 C1093 1.407 . S
C1095 C1094 1.345 . S
C1095 H1097 0.930 . S
H1096 C1089 0.930 . S
H1097 C1095 0.930 . S
H1098 C1086 0.930 . S
H1099 C1087 0.931 . S
H1100 C1093 0.930 . S
H1101 C1115 0.930 . S
H1102 C1094 0.930 . S
H1103 C1121 0.930 . S
H1104 C1112 0.930 . S
H1105 C1119 0.931 . S
H1106 C1083 0.929 . S
H1107 C1113 0.930 . S
H1108 C1146 0.930 . S
H1109 C1090 0.930 . S
H1110 C1145 0.929 . S
N1111 Tb1080 2.660 . S
N1111 C1112 1.305 . S
N1111 C1116 1.360 . S
C1112 H1104 0.930 . S
C1112 N1111 1.305 . S
C1112 C1115 1.407 . S
C1113 H1107 0.930 . S
C1113 C1114 1.410 . S
C1113 C1115 1.345 . S
C1114 C1113 1.410 . S
C1114 C1116 1.417 . S
C1114 C1146 1.432 . S
C1115 H1101 0.930 . S
C1115 C1112 1.407 . S
C1115 C1113 1.345 . S
C1116 N1111 1.360 . S
C1116 C1114 1.417 . S
C1116 C1120 1.432 . S
H1117 C1122 0.930 . S
N1118 Tb1080 2.600 . S
N1118 C1120 1.359 . S
N1118 C1121 1.327 . S
C1119 H1105 0.931 . S
C1119 C1121 1.392 . S
C1119 C1122 1.370 . S
C1120 C1116 1.432 . S
C1120 N1118 1.359 . S
C1120 C1123 1.414 . S
C1121 H1103 0.930 . S
C1121 N1118 1.327 . S
C1121 C1119 1.392 . S
C1122 H1117 0.930 . S
C1122 C1119 1.370 . S
C1122 C1123 1.385 . S
C1123 C1120 1.414 . S
C1123 C1122 1.385 . S
C1123 C1145 1.444 . S
O1124 Tb1080 2.546 . S
O1124 C1144 1.251 . S
O1125 Tb1080 2.610 . S
O1125 Tb1091 2.362 . S
O1125 C1136 1.283 . S
O1126 Tb1091 2.421 . S
O1126 C1143 1.262 . S
O1127 Tb1080 2.320 . S
O1127 C1143 1.260 . S
O1128 Tb1080 2.552 . S
O1128 C1136 1.243 . S
O1129 Tb1080 2.413 . S
O1129 C1144 1.256 . S
O1130 Tb1091 2.546 . S
O1130 C1155 1.251 . S
O1131 Tb1080 2.362 . S
O1131 Tb1091 2.610 . S
O1131 C1147 1.283 . S
O1132 Tb1080 2.421 . S
O1132 C1154 1.262 . S
O1133 Tb1091 2.320 . S
O1133 C1154 1.260 . S
O1134 Tb1091 2.552 . S
O1134 C1147 1.243 . S
O1135 Tb1091 2.413 . S
O1135 C1155 1.256 . S
C1136 O1125 1.283 . S
C1136 O1128 1.243 . S
C1137 C1139 1.382 . S
C1137 C1141 1.393 . S
C1137 C1144 1.500 . S
C1138 C1139 1.400 . S
C1138 C1140 1.384 . S
C1139 C1137 1.382 . S
C1139 C1138 1.400 . S
C1139 H1156 0.930 . S
C1140 C1138 1.384 . S
C1140 C1142 1.392 . S
C1140 H1157 0.931 . S
C1141 C1137 1.393 . S
C1141 C1142 1.401 . S
C1141 H1158 0.930 . S
C1142 C1140 1.392 . S
C1142 C1141 1.401 . S
C1142 H1159 0.930 . S
C1143 O1126 1.262 . S
C1143 O1127 1.260 . S
C1144 Tb1080 2.833 . S
C1144 O1124 1.251 . S
C1144 O1129 1.256 . S
C1144 C1137 1.500 . S
C1145 H1110 0.929 . S
C1145 C1123 1.444 . S
C1145 C1146 1.317 . S
C1146 H1108 0.930 . S
C1146 C1114 1.432 . S
C1146 C1145 1.317 . S
C1147 O1131 1.283 . S
C1147 O1134 1.243 . S
C1148 C1149 1.382 . S
C1148 C1152 1.393 . S
C1148 C1155 1.500 . S
C1149 C1148 1.382 . S
C1149 C1150 1.400 . S
C1149 H1160 0.930 . S
C1150 C1149 1.400 . S
C1150 C1151 1.384 . S
C1151 C1150 1.384 . S
C1151 C1153 1.392 . S
C1151 H1161 0.931 . S
C1152 C1148 1.393 . S
C1152 C1153 1.401 . S
C1152 H1162 0.930 . S
C1153 C1151 1.392 . S
C1153 C1152 1.401 . S
C1153 H1163 0.930 . S
C1154 O1132 1.262 . S
C1154 O1133 1.260 . S
C1155 Tb1091 2.833 . S
C1155 O1130 1.251 . S
C1155 O1135 1.256 . S
C1155 C1148 1.500 . S
H1156 C1139 0.930 . S
H1157 C1140 0.931 . S
H1158 C1141 0.930 . S
H1159 C1142 0.930 . S
H1160 C1149 0.930 . S
H1161 C1151 0.931 . S
H1162 C1152 0.930 . S
H1163 C1153 0.930 . S
Tb1164 N1195 2.660 . S
Tb1164 N1202 2.600 . S
Tb1164 O1208 2.546 . S
Tb1164 O1209 2.610 . S
Tb1164 O1211 2.320 . S
Tb1164 O1212 2.552 . S
Tb1164 O1213 2.413 . S
Tb1164 O1215 2.362 . S
Tb1164 O1216 2.421 . S
Tb1164 C1228 2.833 . S
C1165 C1168 1.432 . S
C1165 C1169 1.414 . S
C1165 N1172 1.359 . S
C1166 C1168 1.417 . S
C1166 C1170 1.432 . S
C1166 C1178 1.410 . S
C1167 C1169 1.444 . S
C1167 C1170 1.317 . S
C1167 H1190 0.929 . S
C1168 C1165 1.432 . S
C1168 C1166 1.417 . S
C1168 N1176 1.360 . S
C1169 C1165 1.414 . S
C1169 C1167 1.444 . S
C1169 C1174 1.385 . S
C1170 C1166 1.432 . S
C1170 C1167 1.317 . S
C1170 H1182 0.930 . S
C1171 C1173 1.392 . S
C1171 C1174 1.370 . S
C1171 H1183 0.931 . S
N1172 C1165 1.359 . S
N1172 C1173 1.327 . S
N1172 Tb1175 2.600 . S
C1173 C1171 1.392 . S
C1173 N1172 1.327 . S
C1173 H1180 0.930 . S
C1174 C1169 1.385 . S
C1174 C1171 1.370 . S
C1174 H1193 0.930 . S
Tb1175 N1172 2.600 . S
Tb1175 N1176 2.660 . S
Tb1175 O1209 2.362 . S
Tb1175 O1210 2.421 . S
Tb1175 O1214 2.546 . S
Tb1175 O1215 2.610 . S
Tb1175 O1217 2.320 . S
Tb1175 O1218 2.552 . S
Tb1175 O1219 2.413 . S
Tb1175 C1239 2.833 . S
N1176 C1168 1.360 . S
N1176 Tb1175 2.660 . S
N1176 C1177 1.305 . S
C1177 N1176 1.305 . S
C1177 C1179 1.407 . S
C1177 H1184 0.930 . S
C1178 C1166 1.410 . S
C1178 C1179 1.345 . S
C1178 H1186 0.930 . S
C1179 C1177 1.407 . S
C1179 C1178 1.345 . S
C1179 H1181 0.930 . S
H1180 C1173 0.930 . S
H1181 C1179 0.930 . S
H1182 C1170 0.930 . S
H1183 C1171 0.931 . S
H1184 C1177 0.930 . S
H1185 C1199 0.930 . S
H1186 C1178 0.930 . S
H1187 C1205 0.930 . S
H1188 C1196 0.930 . S
H1189 C1203 0.931 . S
H1190 C1167 0.929 . S
H1191 C1197 0.930 . S
H1192 C1230 0.930 . S
H1193 C1174 0.930 . S
H1194 C1229 0.929 . S
N1195 Tb1164 2.660 . S
N1195 C1196 1.305 . S
N1195 C1200 1.360 . S
C1196 H1188 0.930 . S
C1196 N1195 1.305 . S
C1196 C1199 1.407 . S
C1197 H1191 0.930 . S
C1197 C1198 1.410 . S
C1197 C1199 1.345 . S
C1198 C1197 1.410 . S
C1198 C1200 1.417 . S
C1198 C1230 1.432 . S
C1199 H1185 0.930 . S
C1199 C1196 1.407 . S
C1199 C1197 1.345 . S
C1200 N1195 1.360 . S
C1200 C1198 1.417 . S
C1200 C1204 1.432 . S
H1201 C1206 0.930 . S
N1202 Tb1164 2.600 . S
N1202 C1204 1.359 . S
N1202 C1205 1.327 . S
C1203 H1189 0.931 . S
C1203 C1205 1.392 . S
C1203 C1206 1.370 . S
C1204 C1200 1.432 . S
C1204 N1202 1.359 . S
C1204 C1207 1.414 . S
C1205 H1187 0.930 . S
C1205 N1202 1.327 . S
C1205 C1203 1.392 . S
C1206 H1201 0.930 . S
C1206 C1203 1.370 . S
C1206 C1207 1.385 . S
C1207 C1204 1.414 . S
C1207 C1206 1.385 . S
C1207 C1229 1.444 . S
O1208 Tb1164 2.546 . S
O1208 C1228 1.251 . S
O1209 Tb1164 2.610 . S
O1209 Tb1175 2.362 . S
O1209 C1220 1.283 . S
O1210 Tb1175 2.421 . S
O1210 C1227 1.262 . S
O1211 Tb1164 2.320 . S
O1211 C1227 1.260 . S
O1212 Tb1164 2.552 . S
O1212 C1220 1.243 . S
O1213 Tb1164 2.413 . S
O1213 C1228 1.256 . S
O1214 Tb1175 2.546 . S
O1214 C1239 1.251 . S
O1215 Tb1164 2.362 . S
O1215 Tb1175 2.610 . S
O1215 C1231 1.283 . S
O1216 Tb1164 2.421 . S
O1216 C1238 1.262 . S
O1217 Tb1175 2.320 . S
O1217 C1238 1.260 . S
O1218 Tb1175 2.552 . S
O1218 C1231 1.243 . S
O1219 Tb1175 2.413 . S
O1219 C1239 1.256 . S
C1220 O1209 1.283 . S
C1220 O1212 1.243 . S
C1221 C1223 1.382 . S
C1221 C1225 1.393 . S
C1221 C1228 1.500 . S
C1222 C1223 1.400 . S
C1222 C1224 1.384 . S
C1223 C1221 1.382 . S
C1223 C1222 1.400 . S
C1223 H1240 0.930 . S
C1224 C1222 1.384 . S
C1224 C1226 1.392 . S
C1224 H1241 0.931 . S
C1225 C1221 1.393 . S
C1225 C1226 1.401 . S
C1225 H1242 0.930 . S
C1226 C1224 1.392 . S
C1226 C1225 1.401 . S
C1226 H1243 0.930 . S
C1227 O1210 1.262 . S
C1227 O1211 1.260 . S
C1228 Tb1164 2.833 . S
C1228 O1208 1.251 . S
C1228 O1213 1.256 . S
C1228 C1221 1.500 . S
C1229 H1194 0.929 . S
C1229 C1207 1.444 . S
C1229 C1230 1.317 . S
C1230 H1192 0.930 . S
C1230 C1198 1.432 . S
C1230 C1229 1.317 . S
C1231 O1215 1.283 . S
C1231 O1218 1.243 . S
C1232 C1233 1.382 . S
C1232 C1236 1.393 . S
C1232 C1239 1.500 . S
C1233 C1232 1.382 . S
C1233 C1234 1.400 . S
C1233 H1244 0.930 . S
C1234 C1233 1.400 . S
C1234 C1235 1.384 . S
C1235 C1234 1.384 . S
C1235 C1237 1.392 . S
C1235 H1245 0.931 . S
C1236 C1232 1.393 . S
C1236 C1237 1.401 . S
C1236 H1246 0.930 . S
C1237 C1235 1.392 . S
C1237 C1236 1.401 . S
C1237 H1247 0.930 . S
C1238 O1216 1.262 . S
C1238 O1217 1.260 . S
C1239 Tb1175 2.833 . S
C1239 O1214 1.251 . S
C1239 O1219 1.256 . S
C1239 C1232 1.500 . S
H1240 C1223 0.930 . S
H1241 C1224 0.931 . S
H1242 C1225 0.930 . S
H1243 C1226 0.930 . S
H1244 C1233 0.930 . S
H1245 C1235 0.931 . S
H1246 C1236 0.930 . S
H1247 C1237 0.930 . S
Tb1248 N1279 2.660 . S
Tb1248 N1286 2.600 . S
Tb1248 O1292 2.546 . S
Tb1248 O1293 2.610 . S
Tb1248 O1295 2.320 . S
Tb1248 O1296 2.552 . S
Tb1248 O1297 2.413 . S
Tb1248 O1299 2.362 . S
Tb1248 O1300 2.421 . S
Tb1248 C1312 2.833 . S
C1249 C1252 1.432 . S
C1249 C1253 1.414 . S
C1249 N1256 1.359 . S
C1250 C1252 1.417 . S
C1250 C1254 1.432 . S
C1250 C1262 1.410 . S
C1251 C1253 1.444 . S
C1251 C1254 1.317 . S
C1251 H1274 0.929 . S
C1252 C1249 1.432 . S
C1252 C1250 1.417 . S
C1252 N1260 1.360 . S
C1253 C1249 1.414 . S
C1253 C1251 1.444 . S
C1253 C1258 1.385 . S
C1254 C1250 1.432 . S
C1254 C1251 1.317 . S
C1254 H1266 0.930 . S
C1255 C1257 1.392 . S
C1255 C1258 1.370 . S
C1255 H1267 0.931 . S
N1256 C1249 1.359 . S
N1256 C1257 1.327 . S
N1256 Tb1259 2.600 . S
C1257 C1255 1.392 . S
C1257 N1256 1.327 . S
C1257 H1264 0.930 . S
C1258 C1253 1.385 . S
C1258 C1255 1.370 . S
C1258 H1277 0.930 . S
Tb1259 N1256 2.600 . S
Tb1259 N1260 2.660 . S
Tb1259 O1293 2.362 . S
Tb1259 O1294 2.421 . S
Tb1259 O1298 2.546 . S
Tb1259 O1299 2.610 . S
Tb1259 O1301 2.320 . S
Tb1259 O1302 2.552 . S
Tb1259 O1303 2.413 . S
Tb1259 C1323 2.833 . S
N1260 C1252 1.360 . S
N1260 Tb1259 2.660 . S
N1260 C1261 1.305 . S
C1261 N1260 1.305 . S
C1261 C1263 1.407 . S
C1261 H1268 0.930 . S
C1262 C1250 1.410 . S
C1262 C1263 1.345 . S
C1262 H1270 0.930 . S
C1263 C1261 1.407 . S
C1263 C1262 1.345 . S
C1263 H1265 0.930 . S
H1264 C1257 0.930 . S
H1265 C1263 0.930 . S
H1266 C1254 0.930 . S
H1267 C1255 0.931 . S
H1268 C1261 0.930 . S
H1269 C1283 0.930 . S
H1270 C1262 0.930 . S
H1271 C1289 0.930 . S
H1272 C1280 0.930 . S
H1273 C1287 0.931 . S
H1274 C1251 0.929 . S
H1275 C1281 0.930 . S
H1276 C1314 0.930 . S
H1277 C1258 0.930 . S
H1278 C1313 0.929 . S
N1279 Tb1248 2.660 . S
N1279 C1280 1.305 . S
N1279 C1284 1.360 . S
C1280 H1272 0.930 . S
C1280 N1279 1.305 . S
C1280 C1283 1.407 . S
C1281 H1275 0.930 . S
C1281 C1282 1.410 . S
C1281 C1283 1.345 . S
C1282 C1281 1.410 . S
C1282 C1284 1.417 . S
C1282 C1314 1.432 . S
C1283 H1269 0.930 . S
C1283 C1280 1.407 . S
C1283 C1281 1.345 . S
C1284 N1279 1.360 . S
C1284 C1282 1.417 . S
C1284 C1288 1.432 . S
H1285 C1290 0.930 . S
N1286 Tb1248 2.600 . S
N1286 C1288 1.359 . S
N1286 C1289 1.327 . S
C1287 H1273 0.931 . S
C1287 C1289 1.392 . S
C1287 C1290 1.370 . S
C1288 C1284 1.432 . S
C1288 N1286 1.359 . S
C1288 C1291 1.414 . S
C1289 H1271 0.930 . S
C1289 N1286 1.327 . S
C1289 C1287 1.392 . S
C1290 H1285 0.930 . S
C1290 C1287 1.370 . S
C1290 C1291 1.385 . S
C1291 C1288 1.414 . S
C1291 C1290 1.385 . S
C1291 C1313 1.444 . S
O1292 Tb1248 2.546 . S
O1292 C1312 1.251 . S
O1293 Tb1248 2.610 . S
O1293 Tb1259 2.362 . S
O1293 C1304 1.283 . S
O1294 Tb1259 2.421 . S
O1294 C1311 1.262 . S
O1295 Tb1248 2.320 . S
O1295 C1311 1.260 . S
O1296 Tb1248 2.552 . S
O1296 C1304 1.243 . S
O1297 Tb1248 2.413 . S
O1297 C1312 1.256 . S
O1298 Tb1259 2.546 . S
O1298 C1323 1.251 . S
O1299 Tb1248 2.362 . S
O1299 Tb1259 2.610 . S
O1299 C1315 1.283 . S
O1300 Tb1248 2.421 . S
O1300 C1322 1.262 . S
O1301 Tb1259 2.320 . S
O1301 C1322 1.260 . S
O1302 Tb1259 2.552 . S
O1302 C1315 1.243 . S
O1303 Tb1259 2.413 . S
O1303 C1323 1.256 . S
C1304 O1293 1.283 . S
C1304 O1296 1.243 . S
C1305 C1307 1.382 . S
C1305 C1309 1.393 . S
C1305 C1312 1.500 . S
C1306 C1307 1.400 . S
C1306 C1308 1.384 . S
C1307 C1305 1.382 . S
C1307 C1306 1.400 . S
C1307 H1324 0.930 . S
C1308 C1306 1.384 . S
C1308 C1310 1.392 . S
C1308 H1325 0.931 . S
C1309 C1305 1.393 . S
C1309 C1310 1.401 . S
C1309 H1326 0.930 . S
C1310 C1308 1.392 . S
C1310 C1309 1.401 . S
C1310 H1327 0.930 . S
C1311 O1294 1.262 . S
C1311 O1295 1.260 . S
C1312 Tb1248 2.833 . S
C1312 O1292 1.251 . S
C1312 O1297 1.256 . S
C1312 C1305 1.500 . S
C1313 H1278 0.929 . S
C1313 C1291 1.444 . S
C1313 C1314 1.317 . S
C1314 H1276 0.930 . S
C1314 C1282 1.432 . S
C1314 C1313 1.317 . S
C1315 O1299 1.283 . S
C1315 O1302 1.243 . S
C1316 C1317 1.382 . S
C1316 C1320 1.393 . S
C1316 C1323 1.500 . S
C1317 C1316 1.382 . S
C1317 C1318 1.400 . S
C1317 H1328 0.930 . S
C1318 C1317 1.400 . S
C1318 C1319 1.384 . S
C1319 C1318 1.384 . S
C1319 C1321 1.392 . S
C1319 H1329 0.931 . S
C1320 C1316 1.393 . S
C1320 C1321 1.401 . S
C1320 H1330 0.930 . S
C1321 C1319 1.392 . S
C1321 C1320 1.401 . S
C1321 H1331 0.930 . S
C1322 O1300 1.262 . S
C1322 O1301 1.260 . S
C1323 Tb1259 2.833 . S
C1323 O1298 1.251 . S
C1323 O1303 1.256 . S
C1323 C1316 1.500 . S
H1324 C1307 0.930 . S
H1325 C1308 0.931 . S
H1326 C1309 0.930 . S
H1327 C1310 0.930 . S
H1328 C1317 0.930 . S
H1329 C1319 0.931 . S
H1330 C1320 0.930 . S
H1331 C1321 0.930 . S
H1332 C1340 0.929 . S
H1333 C1342 0.930 . S
H1334 C1344 0.930 . S
H1335 C1347 0.929 . S
H1336 C1350 0.930 . S
H1337 C1352 0.960 . S
H1338 C1352 0.960 . S
H1339 C1352 0.960 . S
C1340 H1332 0.929 . S
C1340 C1341 1.377 . S
C1340 C1342 1.384 . S
C1341 C1340 1.377 . S
C1341 C1347 1.390 . S
C1342 H1333 0.930 . S
C1342 C1340 1.384 . S
C1342 C1343 1.372 . S
C1343 C1342 1.372 . S
C1343 C1344 1.400 . S
C1343 C1348 1.490 . S
C1344 H1334 0.930 . S
C1344 C1343 1.400 . S
C1344 C1347 1.386 . S
H1345 C1361 0.930 . S
H1346 C1362 0.931 . S
C1347 H1335 0.929 . S
C1347 C1341 1.390 . S
C1347 C1344 1.386 . S
C1348 C1343 1.490 . S
C1348 C1350 1.395 . S
C1348 C1351 1.403 . S
H1349 C1355 0.930 . S
C1350 H1336 0.930 . S
C1350 C1348 1.395 . S
C1350 C1353 1.403 . S
C1351 C1348 1.403 . S
C1351 C1352 1.524 . S
C1351 C1355 1.400 . S
C1352 H1337 0.960 . S
C1352 H1338 0.960 . S
C1352 H1339 0.960 . S
C1352 C1351 1.524 . S
C1353 C1350 1.403 . S
C1353 C1354 1.392 . S
C1353 C1357 1.495 . S
C1354 C1353 1.392 . S
C1354 C1355 1.385 . S
C1354 C1356 1.478 . S
C1355 H1349 0.930 . S
C1355 C1351 1.400 . S
C1355 C1354 1.385 . S
C1356 C1354 1.478 . S
C1356 C1358 1.381 . S
C1356 C1362 1.383 . S
C1357 C1353 1.495 . S
C1357 H1363 0.959 . S
C1357 H1364 0.961 . S
C1357 H1365 0.960 . S
C1358 C1356 1.381 . S
C1358 C1359 1.394 . S
C1358 H1366 0.930 . S
C1359 C1358 1.394 . S
C1359 C1360 1.383 . S
C1359 H1367 0.929 . S
C1360 C1359 1.383 . S
C1360 C1361 1.377 . S
C1361 H1345 0.930 . S
C1361 C1360 1.377 . S
C1361 C1362 1.379 . S
C1362 H1346 0.931 . S
C1362 C1356 1.383 . S
C1362 C1361 1.379 . S
H1363 C1357 0.959 . S
H1364 C1357 0.961 . S
H1365 C1357 0.960 . S
H1366 C1358 0.930 . S
H1367 C1359 0.929 . S
H1368 C1376 0.929 . S
H1369 C1378 0.930 . S
H1370 C1380 0.930 . S
H1371 C1383 0.929 . S
H1372 C1386 0.930 . S
H1373 C1388 0.960 . S
H1374 C1388 0.960 . S
H1375 C1388 0.960 . S
C1376 H1368 0.929 . S
C1376 C1377 1.377 . S
C1376 C1378 1.384 . S
C1377 C1376 1.377 . S
C1377 C1383 1.390 . S
C1378 H1369 0.930 . S
C1378 C1376 1.384 . S
C1378 C1379 1.372 . S
C1379 C1378 1.372 . S
C1379 C1380 1.400 . S
C1379 C1384 1.490 . S
C1380 H1370 0.930 . S
C1380 C1379 1.400 . S
C1380 C1383 1.386 . S
H1381 C1397 0.930 . S
H1382 C1398 0.931 . S
C1383 H1371 0.929 . S
C1383 C1377 1.390 . S
C1383 C1380 1.386 . S
C1384 C1379 1.490 . S
C1384 C1386 1.395 . S
C1384 C1387 1.403 . S
H1385 C1391 0.930 . S
C1386 H1372 0.930 . S
C1386 C1384 1.395 . S
C1386 C1389 1.403 . S
C1387 C1384 1.403 . S
C1387 C1388 1.524 . S
C1387 C1391 1.400 . S
C1388 H1373 0.960 . S
C1388 H1374 0.960 . S
C1388 H1375 0.960 . S
C1388 C1387 1.524 . S
C1389 C1386 1.403 . S
C1389 C1390 1.392 . S
C1389 C1393 1.495 . S
C1390 C1389 1.392 . S
C1390 C1391 1.385 . S
C1390 C1392 1.478 . S
C1391 H1385 0.930 . S
C1391 C1387 1.400 . S
C1391 C1390 1.385 . S
C1392 C1390 1.478 . S
C1392 C1394 1.381 . S
C1392 C1398 1.383 . S
C1393 C1389 1.495 . S
C1393 H1399 0.959 . S
C1393 H1400 0.961 . S
C1393 H1401 0.960 . S
C1394 C1392 1.381 . S
C1394 C1395 1.394 . S
C1394 H1402 0.930 . S
C1395 C1394 1.394 . S
C1395 C1396 1.383 . S
C1395 H1403 0.929 . S
C1396 C1395 1.383 . S
C1396 C1397 1.377 . S
C1397 H1381 0.930 . S
C1397 C1396 1.377 . S
C1397 C1398 1.379 . S
C1398 H1382 0.931 . S
C1398 C1392 1.383 . S
C1398 C1397 1.379 . S
H1399 C1393 0.959 . S
H1400 C1393 0.961 . S
H1401 C1393 0.960 . S
H1402 C1394 0.930 . S
H1403 C1395 0.929 . S
H1404 C1412 0.929 . S
H1405 C1414 0.930 . S
H1406 C1416 0.930 . S
H1407 C1419 0.929 . S
H1408 C1422 0.930 . S
H1409 C1424 0.960 . S
H1410 C1424 0.960 . S
H1411 C1424 0.960 . S
C1412 H1404 0.929 . S
C1412 C1413 1.377 . S
C1412 C1414 1.384 . S
C1413 C1412 1.377 . S
C1413 C1419 1.390 . S
C1414 H1405 0.930 . S
C1414 C1412 1.384 . S
C1414 C1415 1.372 . S
C1415 C1414 1.372 . S
C1415 C1416 1.400 . S
C1415 C1420 1.490 . S
C1416 H1406 0.930 . S
C1416 C1415 1.400 . S
C1416 C1419 1.386 . S
H1417 C1433 0.930 . S
H1418 C1434 0.931 . S
C1419 H1407 0.929 . S
C1419 C1413 1.390 . S
C1419 C1416 1.386 . S
C1420 C1415 1.490 . S
C1420 C1422 1.395 . S
C1420 C1423 1.403 . S
H1421 C1427 0.930 . S
C1422 H1408 0.930 . S
C1422 C1420 1.395 . S
C1422 C1425 1.403 . S
C1423 C1420 1.403 . S
C1423 C1424 1.524 . S
C1423 C1427 1.400 . S
C1424 H1409 0.960 . S
C1424 H1410 0.960 . S
C1424 H1411 0.960 . S
C1424 C1423 1.524 . S
C1425 C1422 1.403 . S
C1425 C1426 1.392 . S
C1425 C1429 1.495 . S
C1426 C1425 1.392 . S
C1426 C1427 1.385 . S
C1426 C1428 1.478 . S
C1427 H1421 0.930 . S
C1427 C1423 1.400 . S
C1427 C1426 1.385 . S
C1428 C1426 1.478 . S
C1428 C1430 1.381 . S
C1428 C1434 1.383 . S
C1429 C1425 1.495 . S
C1429 H1435 0.959 . S
C1429 H1436 0.961 . S
C1429 H1437 0.960 . S
C1430 C1428 1.381 . S
C1430 C1431 1.394 . S
C1430 H1438 0.930 . S
C1431 C1430 1.394 . S
C1431 C1432 1.383 . S
C1431 H1439 0.929 . S
C1432 C1431 1.383 . S
C1432 C1433 1.377 . S
C1433 H1417 0.930 . S
C1433 C1432 1.377 . S
C1433 C1434 1.379 . S
C1434 H1418 0.931 . S
C1434 C1428 1.383 . S
C1434 C1433 1.379 . S
H1435 C1429 0.959 . S
H1436 C1429 0.961 . S
H1437 C1429 0.960 . S
H1438 C1430 0.930 . S
H1439 C1431 0.929 . S
H1440 C1448 0.929 . S
H1441 C1450 0.930 . S
H1442 C1452 0.930 . S
H1443 C1455 0.929 . S
H1444 C1458 0.930 . S
H1445 C1460 0.960 . S
H1446 C1460 0.960 . S
H1447 C1460 0.960 . S
C1448 H1440 0.929 . S
C1448 C1449 1.377 . S
C1448 C1450 1.384 . S
C1449 C1448 1.377 . S
C1449 C1455 1.390 . S
C1450 H1441 0.930 . S
C1450 C1448 1.384 . S
C1450 C1451 1.372 . S
C1451 C1450 1.372 . S
C1451 C1452 1.400 . S
C1451 C1456 1.490 . S
C1452 H1442 0.930 . S
C1452 C1451 1.400 . S
C1452 C1455 1.386 . S
H1453 C1469 0.930 . S
H1454 C1470 0.931 . S
C1455 H1443 0.929 . S
C1455 C1449 1.390 . S
C1455 C1452 1.386 . S
C1456 C1451 1.490 . S
C1456 C1458 1.395 . S
C1456 C1459 1.403 . S
H1457 C1463 0.930 . S
C1458 H1444 0.930 . S
C1458 C1456 1.395 . S
C1458 C1461 1.403 . S
C1459 C1456 1.403 . S
C1459 C1460 1.524 . S
C1459 C1463 1.400 . S
C1460 H1445 0.960 . S
C1460 H1446 0.960 . S
C1460 H1447 0.960 . S
C1460 C1459 1.524 . S
C1461 C1458 1.403 . S
C1461 C1462 1.392 . S
C1461 C1465 1.495 . S
C1462 C1461 1.392 . S
C1462 C1463 1.385 . S
C1462 C1464 1.478 . S
C1463 H1457 0.930 . S
C1463 C1459 1.400 . S
C1463 C1462 1.385 . S
C1464 C1462 1.478 . S
C1464 C1466 1.381 . S
C1464 C1470 1.383 . S
C1465 C1461 1.495 . S
C1465 H1471 0.959 . S
C1465 H1472 0.961 . S
C1465 H1473 0.960 . S
C1466 C1464 1.381 . S
C1466 C1467 1.394 . S
C1466 H1474 0.946 . S
C1467 C1466 1.394 . S
C1467 C1468 1.383 . S
C1467 H1475 0.929 1_556 S
C1468 C1467 1.383 . S
C1468 C1469 1.377 . S
C1469 H1453 0.930 . S
C1469 C1468 1.377 . S
C1469 C1470 1.379 . S
C1470 H1454 0.931 . S
C1470 C1464 1.383 . S
C1470 C1469 1.379 . S
H1471 C1465 0.959 . S
H1472 C1465 0.961 . S
H1473 C1465 0.960 . S
H1474 C1466 0.946 . S
H1475 C1467 0.929 1_554 S
H1476 C1484 0.929 . S
H1477 C1486 0.930 . S
H1478 C1488 0.930 . S
H1479 C1491 0.929 . S
H1480 C1494 0.930 . S
H1481 C1496 0.960 . S
H1482 C1496 0.960 . S
H1483 C1496 0.960 . S
C1484 H1476 0.929 . S
C1484 C1485 1.377 . S
C1484 C1486 1.384 . S
C1485 C1484 1.377 . S
C1485 C1491 1.390 . S
C1486 H1477 0.930 . S
C1486 C1484 1.384 . S
C1486 C1487 1.372 . S
C1487 C1486 1.372 . S
C1487 C1488 1.400 . S
C1487 C1492 1.490 . S
C1488 H1478 0.930 . S
C1488 C1487 1.400 . S
C1488 C1491 1.386 . S
H1489 C1505 0.930 . S
H1490 C1506 0.931 . S
C1491 H1479 0.929 . S
C1491 C1485 1.390 . S
C1491 C1488 1.386 . S
C1492 C1487 1.490 . S
C1492 C1494 1.395 . S
C1492 C1495 1.403 . S
H1493 C1499 0.930 . S
C1494 H1480 0.930 . S
C1494 C1492 1.395 . S
C1494 C1497 1.403 . S
C1495 C1492 1.403 . S
C1495 C1496 1.524 . S
C1495 C1499 1.400 . S
C1496 H1481 0.960 . S
C1496 H1482 0.960 . S
C1496 H1483 0.960 . S
C1496 C1495 1.524 . S
C1497 C1494 1.403 . S
C1497 C1498 1.392 . S
C1497 C1501 1.495 . S
C1498 C1497 1.392 . S
C1498 C1499 1.385 . S
C1498 C1500 1.478 . S
C1499 H1493 0.930 . S
C1499 C1495 1.400 . S
C1499 C1498 1.385 . S
C1500 C1498 1.478 . S
C1500 C1502 1.381 . S
C1500 C1506 1.383 . S
C1501 C1497 1.495 . S
C1501 H1507 0.959 . S
C1501 H1508 0.961 . S
C1501 H1509 0.960 . S
C1502 C1500 1.381 . S
C1502 C1503 1.394 . S
C1502 H1510 0.930 . S
C1503 C1502 1.394 . S
C1503 C1504 1.383 . S
C1503 H1511 0.929 1_556 S
C1504 C1503 1.383 . S
C1504 C1505 1.377 . S
C1505 H1489 0.930 . S
C1505 C1504 1.377 . S
C1505 C1506 1.379 . S
C1506 H1490 0.931 . S
C1506 C1500 1.383 . S
C1506 C1505 1.379 . S
H1507 C1501 0.959 . S
H1508 C1501 0.961 . S
H1509 C1501 0.960 . S
H1510 C1502 0.930 . S
H1511 C1503 0.929 1_554 S
H1512 C1520 0.929 . S
H1513 C1522 0.930 . S
H1514 C1524 0.930 . S
H1515 C1527 0.929 . S
H1516 C1530 0.930 . S
H1517 C1532 0.960 . S
H1518 C1532 0.960 . S
H1519 C1532 0.960 . S
C1520 H1512 0.929 . S
C1520 C1521 1.377 . S
C1520 C1522 1.384 . S
C1521 C1520 1.377 . S
C1521 C1527 1.390 . S
C1522 H1513 0.930 . S
C1522 C1520 1.384 . S
C1522 C1523 1.372 . S
C1523 C1522 1.372 . S
C1523 C1524 1.400 . S
C1523 C1528 1.490 . S
C1524 H1514 0.930 . S
C1524 C1523 1.400 . S
C1524 C1527 1.386 . S
H1525 C1541 0.930 . S
H1526 C1542 0.931 . S
C1527 H1515 0.929 . S
C1527 C1521 1.390 . S
C1527 C1524 1.386 . S
C1528 C1523 1.490 . S
C1528 C1530 1.395 . S
C1528 C1531 1.403 . S
H1529 C1535 0.930 . S
C1530 H1516 0.930 . S
C1530 C1528 1.395 . S
C1530 C1533 1.403 . S
C1531 C1528 1.403 . S
C1531 C1532 1.524 . S
C1531 C1535 1.400 . S
C1532 H1517 0.960 . S
C1532 H1518 0.960 . S
C1532 H1519 0.960 . S
C1532 C1531 1.524 . S
C1533 C1530 1.403 . S
C1533 C1534 1.392 . S
C1533 C1537 1.495 . S
C1534 C1533 1.392 . S
C1534 C1535 1.385 . S
C1534 C1536 1.478 . S
C1535 H1529 0.930 . S
C1535 C1531 1.400 . S
C1535 C1534 1.385 . S
C1536 C1534 1.478 . S
C1536 C1538 1.381 . S
C1536 C1542 1.383 . S
C1537 C1533 1.495 . S
C1537 H1543 0.959 . S
C1537 H1544 0.961 . S
C1537 H1545 0.960 . S
C1538 C1536 1.381 . S
C1538 C1539 1.394 . S
C1538 H1546 0.930 . S
C1539 C1538 1.394 . S
C1539 C1540 1.383 . S
C1539 H1547 0.929 . S
C1540 C1539 1.383 . S
C1540 C1541 1.377 . S
C1541 H1525 0.930 . S
C1541 C1540 1.377 . S
C1541 C1542 1.379 . S
C1542 H1526 0.931 . S
C1542 C1536 1.383 . S
C1542 C1541 1.379 . S
H1543 C1537 0.959 . S
H1544 C1537 0.961 . S
H1545 C1537 0.960 . S
H1546 C1538 0.930 . S
H1547 C1539 0.929 . S
H1548 C1556 0.929 . S
H1549 C1558 0.930 . S
H1550 C1560 0.930 . S
H1551 C1563 0.929 . S
H1552 C1566 0.930 . S
H1553 C1568 0.960 . S
H1554 C1568 0.960 . S
H1555 C1568 0.960 . S
C1556 H1548 0.929 . S
C1556 C1557 1.377 . S
C1556 C1558 1.384 . S
C1557 C1556 1.377 . S
C1557 C1563 1.390 . S
C1558 H1549 0.930 . S
C1558 C1556 1.384 . S
C1558 C1559 1.372 . S
C1559 C1558 1.372 . S
C1559 C1560 1.400 . S
C1559 C1564 1.490 . S
C1560 H1550 0.930 . S
C1560 C1559 1.400 . S
C1560 C1563 1.386 . S
H1561 C1577 0.930 . S
H1562 C1578 0.931 . S
C1563 H1551 0.929 . S
C1563 C1557 1.390 . S
C1563 C1560 1.386 . S
C1564 C1559 1.490 . S
C1564 C1566 1.395 . S
C1564 C1567 1.403 . S
H1565 C1571 0.930 . S
C1566 H1552 0.930 . S
C1566 C1564 1.395 . S
C1566 C1569 1.403 . S
C1567 C1564 1.403 . S
C1567 C1568 1.524 . S
C1567 C1571 1.400 . S
C1568 H1553 0.960 . S
C1568 H1554 0.960 . S
C1568 H1555 0.960 . S
C1568 C1567 1.524 . S
C1569 C1566 1.403 . S
C1569 C1570 1.392 . S
C1569 C1573 1.495 . S
C1570 C1569 1.392 . S
C1570 C1571 1.385 . S
C1570 C1572 1.478 . S
C1571 H1565 0.930 . S
C1571 C1567 1.400 . S
C1571 C1570 1.385 . S
C1572 C1570 1.478 . S
C1572 C1574 1.381 . S
C1572 C1578 1.383 . S
C1573 C1569 1.495 . S
C1573 H1579 0.959 . S
C1573 H1580 0.961 . S
C1573 H1581 0.960 . S
C1574 C1572 1.381 . S
C1574 C1575 1.394 . S
C1574 H1582 0.930 . S
C1575 C1574 1.394 . S
C1575 C1576 1.383 . S
C1575 H1583 0.929 . S
C1576 C1575 1.383 . S
C1576 C1577 1.377 . S
C1577 H1561 0.930 . S
C1577 C1576 1.377 . S
C1577 C1578 1.379 . S
C1578 H1562 0.931 . S
C1578 C1572 1.383 . S
C1578 C1577 1.379 . S
H1579 C1573 0.959 . S
H1580 C1573 0.961 . S
H1581 C1573 0.960 . S
H1582 C1574 0.930 . S
H1583 C1575 0.929 . S
H1584 C1592 0.929 . S
H1585 C1594 0.930 . S
H1586 C1596 0.930 . S
H1587 C1599 0.929 . S
H1588 C1602 0.930 . S
H1589 C1604 0.960 . S
H1590 C1604 0.960 . S
H1591 C1604 0.960 . S
C1592 H1584 0.929 . S
C1592 C1593 1.377 . S
C1592 C1594 1.384 . S
C1593 C1592 1.377 . S
C1593 C1599 1.390 . S
C1594 H1585 0.930 . S
C1594 C1592 1.384 . S
C1594 C1595 1.372 . S
C1595 C1594 1.372 . S
C1595 C1596 1.400 . S
C1595 C1600 1.490 . S
C1596 H1586 0.930 . S
C1596 C1595 1.400 . S
C1596 C1599 1.386 . S
H1597 C1613 0.930 . S
H1598 C1614 0.931 . S
C1599 H1587 0.929 . S
C1599 C1593 1.390 . S
C1599 C1596 1.386 . S
C1600 C1595 1.490 . S
C1600 C1602 1.395 . S
C1600 C1603 1.403 . S
H1601 C1607 0.930 . S
C1602 H1588 0.930 . S
C1602 C1600 1.395 . S
C1602 C1605 1.403 . S
C1603 C1600 1.403 . S
C1603 C1604 1.524 . S
C1603 C1607 1.400 . S
C1604 H1589 0.960 . S
C1604 H1590 0.960 . S
C1604 H1591 0.960 . S
C1604 C1603 1.524 . S
C1605 C1602 1.403 . S
C1605 C1606 1.392 . S
C1605 C1609 1.495 . S
C1606 C1605 1.392 . S
C1606 C1607 1.385 . S
C1606 C1608 1.478 . S
C1607 H1601 0.930 . S
C1607 C1603 1.400 . S
C1607 C1606 1.385 . S
C1608 C1606 1.478 . S
C1608 C1610 1.381 . S
C1608 C1614 1.383 . S
C1609 C1605 1.495 . S
C1609 H1615 0.959 . S
C1609 H1616 0.961 . S
C1609 H1617 0.960 . S
C1610 C1608 1.381 . S
C1610 C1611 1.394 . S
C1610 H1618 0.984 . S
C1611 C1610 1.394 . S
C1611 C1612 1.383 . S
C1611 H1619 0.929 1_556 S
C1612 C1611 1.383 . S
C1612 C1613 1.377 . S
C1613 H1597 0.930 . S
C1613 C1612 1.377 . S
C1613 C1614 1.379 . S
C1614 H1598 0.931 . S
C1614 C1608 1.383 . S
C1614 C1613 1.379 . S
H1615 C1609 0.959 . S
H1616 C1609 0.961 . S
H1617 C1609 0.960 . S
H1618 C1610 0.984 . S
H1619 C1611 0.929 1_554 S
H1620 C1628 0.929 . S
H1621 C1630 0.930 . S
H1622 C1632 0.930 . S
H1623 C1635 0.929 . S
H1624 C1638 0.930 . S
H1625 C1640 0.960 . S
H1626 C1640 0.960 . S
H1627 C1640 0.960 . S
C1628 H1620 0.929 . S
C1628 C1629 1.377 . S
C1628 C1630 1.384 . S
C1629 C1628 1.377 . S
C1629 C1635 1.390 . S
C1630 H1621 0.930 . S
C1630 C1628 1.384 . S
C1630 C1631 1.372 . S
C1631 C1630 1.372 . S
C1631 C1632 1.400 . S
C1631 C1636 1.490 . S
C1632 H1622 0.930 . S
C1632 C1631 1.400 . S
C1632 C1635 1.386 . S
H1633 C1649 0.930 . S
H1634 C1650 0.931 . S
C1635 H1623 0.929 . S
C1635 C1629 1.390 . S
C1635 C1632 1.386 . S
C1636 C1631 1.490 . S
C1636 C1638 1.395 . S
C1636 C1639 1.403 . S
H1637 C1643 0.930 . S
C1638 H1624 0.930 . S
C1638 C1636 1.395 . S
C1638 C1641 1.403 . S
C1639 C1636 1.403 . S
C1639 C1640 1.524 . S
C1639 C1643 1.400 . S
C1640 H1625 0.960 . S
C1640 H1626 0.960 . S
C1640 H1627 0.960 . S
C1640 C1639 1.524 . S
C1641 C1638 1.403 . S
C1641 C1642 1.392 . S
C1641 C1645 1.495 . S
C1642 C1641 1.392 . S
C1642 C1643 1.385 . S
C1642 C1644 1.478 . S
C1643 H1637 0.930 . S
C1643 C1639 1.400 . S
C1643 C1642 1.385 . S
C1644 C1642 1.478 . S
C1644 C1646 1.381 . S
C1644 C1650 1.383 . S
C1645 C1641 1.495 . S
C1645 H1651 0.959 . S
C1645 H1652 0.961 . S
C1645 H1653 0.960 . S
C1646 C1644 1.381 . S
C1646 C1647 1.394 . S
C1646 H1654 0.930 . S
C1647 C1646 1.394 . S
C1647 C1648 1.383 . S
C1647 H1655 0.929 . S
C1648 C1647 1.383 . S
C1648 C1649 1.377 . S
C1649 H1633 0.930 . S
C1649 C1648 1.377 . S
C1649 C1650 1.379 . S
C1650 H1634 0.931 . S
C1650 C1644 1.383 . S
C1650 C1649 1.379 . S
H1651 C1645 0.959 . S
H1652 C1645 0.961 . S
H1653 C1645 0.960 . S
H1654 C1646 0.930 . S
H1655 C1647 0.929 . S
H1656 C1664 0.929 . S
H1657 C1666 0.930 . S
H1658 C1668 0.930 . S
H1659 C1671 0.929 . S
H1660 C1674 0.930 . S
H1661 C1676 0.960 . S
H1662 C1676 0.960 . S
H1663 C1676 0.960 . S
C1664 H1656 0.929 . S
C1664 C1665 1.377 . S
C1664 C1666 1.384 . S
C1665 C1664 1.377 . S
C1665 C1671 1.390 . S
C1666 H1657 0.930 . S
C1666 C1664 1.384 . S
C1666 C1667 1.372 . S
C1667 C1666 1.372 . S
C1667 C1668 1.400 . S
C1667 C1672 1.490 . S
C1668 H1658 0.930 . S
C1668 C1667 1.400 . S
C1668 C1671 1.386 . S
H1669 C1685 0.930 . S
H1670 C1686 0.931 . S
C1671 H1659 0.929 . S
C1671 C1665 1.390 . S
C1671 C1668 1.386 . S
C1672 C1667 1.490 . S
C1672 C1674 1.395 . S
C1672 C1675 1.403 . S
H1673 C1679 0.930 . S
C1674 H1660 0.930 . S
C1674 C1672 1.395 . S
C1674 C1677 1.403 . S
C1675 C1672 1.403 . S
C1675 C1676 1.524 . S
C1675 C1679 1.400 . S
C1676 H1661 0.960 . S
C1676 H1662 0.960 . S
C1676 H1663 0.960 . S
C1676 C1675 1.524 . S
C1677 C1674 1.403 . S
C1677 C1678 1.392 . S
C1677 C1681 1.495 . S
C1678 C1677 1.392 . S
C1678 C1679 1.385 . S
C1678 C1680 1.478 . S
C1679 H1673 0.930 . S
C1679 C1675 1.400 . S
C1679 C1678 1.385 . S
C1680 C1678 1.478 . S
C1680 C1682 1.381 . S
C1680 C1686 1.383 . S
C1681 C1677 1.495 . S
C1681 H1687 0.959 . S
C1681 H1688 0.961 . S
C1681 H1689 0.960 . S
C1682 C1680 1.381 . S
C1682 C1683 1.394 . S
C1682 H1690 0.930 . S
C1683 C1682 1.394 . S
C1683 C1684 1.383 . S
C1683 H1691 0.929 . S
C1684 C1683 1.383 . S
C1684 C1685 1.377 . S
C1685 H1669 0.930 . S
C1685 C1684 1.377 . S
C1685 C1686 1.379 . S
C1686 H1670 0.931 . S
C1686 C1680 1.383 . S
C1686 C1685 1.379 . S
H1687 C1681 0.959 . S
H1688 C1681 0.961 . S
H1689 C1681 0.960 . S
H1690 C1682 0.930 . S
H1691 C1683 0.929 . S
H1692 C1700 0.929 . S
H1693 C1702 0.930 . S
H1694 C1704 0.930 . S
H1695 C1707 0.929 . S
H1696 C1710 0.930 . S
H1697 C1712 0.960 . S
H1698 C1712 0.960 . S
H1699 C1712 0.960 . S
C1700 H1692 0.929 . S
C1700 C1701 1.377 . S
C1700 C1702 1.384 . S
C1701 C1700 1.377 . S
C1701 C1707 1.390 . S
C1702 H1693 0.930 . S
C1702 C1700 1.384 . S
C1702 C1703 1.372 . S
C1703 C1702 1.372 . S
C1703 C1704 1.400 . S
C1703 C1708 1.490 . S
C1704 H1694 0.930 . S
C1704 C1703 1.400 . S
C1704 C1707 1.386 . S
H1705 C1721 0.930 . S
H1706 C1722 0.931 . S
C1707 H1695 0.929 . S
C1707 C1701 1.390 . S
C1707 C1704 1.386 . S
C1708 C1703 1.490 . S
C1708 C1710 1.395 . S
C1708 C1711 1.403 . S
H1709 C1715 0.930 . S
C1710 H1696 0.930 . S
C1710 C1708 1.395 . S
C1710 C1713 1.403 . S
C1711 C1708 1.403 . S
C1711 C1712 1.524 . S
C1711 C1715 1.400 . S
C1712 H1697 0.960 . S
C1712 H1698 0.960 . S
C1712 H1699 0.960 . S
C1712 C1711 1.524 . S
C1713 C1710 1.403 . S
C1713 C1714 1.392 . S
C1713 C1717 1.495 . S
C1714 C1713 1.392 . S
C1714 C1715 1.385 . S
C1714 C1716 1.478 . S
C1715 H1709 0.930 . S
C1715 C1711 1.400 . S
C1715 C1714 1.385 . S
C1716 C1714 1.478 . S
C1716 C1718 1.381 . S
C1716 C1722 1.383 . S
C1717 C1713 1.495 . S
C1717 H1723 0.959 . S
C1717 H1724 0.961 . S
C1717 H1725 0.960 . S
C1718 C1716 1.381 . S
C1718 C1719 1.394 . S
C1718 H1726 0.930 . S
C1719 C1718 1.394 . S
C1719 C1720 1.383 . S
C1719 H1727 0.929 . S
C1720 C1719 1.383 . S
C1720 C1721 1.377 . S
C1721 H1705 0.930 . S
C1721 C1720 1.377 . S
C1721 C1722 1.379 . S
C1722 H1706 0.931 . S
C1722 C1716 1.383 . S
C1722 C1721 1.379 . S
H1723 C1717 0.959 . S
H1724 C1717 0.961 . S
H1725 C1717 0.960 . S
H1726 C1718 0.930 . S
H1727 C1719 0.929 . S
H1728 C1736 0.929 . S
H1729 C1738 0.930 . S
H1730 C1740 0.930 . S
H1731 C1743 0.929 . S
H1732 C1746 0.930 . S
H1733 C1748 0.960 . S
H1734 C1748 0.960 . S
H1735 C1748 0.960 . S
C1736 H1728 0.929 . S
C1736 C1737 1.377 . S
C1736 C1738 1.384 . S
C1737 C1736 1.377 . S
C1737 C1743 1.390 . S
C1738 H1729 0.930 . S
C1738 C1736 1.384 . S
C1738 C1739 1.372 . S
C1739 C1738 1.372 . S
C1739 C1740 1.400 . S
C1739 C1744 1.490 . S
C1740 H1730 0.930 . S
C1740 C1739 1.400 . S
C1740 C1743 1.386 . S
H1741 C1757 0.930 . S
H1742 C1758 0.931 . S
C1743 H1731 0.929 . S
C1743 C1737 1.390 . S
C1743 C1740 1.386 . S
C1744 C1739 1.490 . S
C1744 C1746 1.395 . S
C1744 C1747 1.403 . S
H1745 C1751 0.930 . S
C1746 H1732 0.930 . S
C1746 C1744 1.395 . S
C1746 C1749 1.403 . S
C1747 C1744 1.403 . S
C1747 C1748 1.524 . S
C1747 C1751 1.400 . S
C1748 H1733 0.960 . S
C1748 H1734 0.960 . S
C1748 H1735 0.960 . S
C1748 C1747 1.524 . S
C1749 C1746 1.403 . S
C1749 C1750 1.392 . S
C1749 C1753 1.495 . S
C1750 C1749 1.392 . S
C1750 C1751 1.385 . S
C1750 C1752 1.478 . S
C1751 H1745 0.930 . S
C1751 C1747 1.400 . S
C1751 C1750 1.385 . S
C1752 C1750 1.478 . S
C1752 C1754 1.381 . S
C1752 C1758 1.383 . S
C1753 C1749 1.495 . S
C1753 H1759 0.959 . S
C1753 H1760 0.961 . S
C1753 H1761 0.960 . S
C1754 C1752 1.381 . S
C1754 C1755 1.394 . S
C1754 H1762 0.930 . S
C1755 C1754 1.394 . S
C1755 C1756 1.383 . S
C1755 H1763 0.962 . S
C1756 C1755 1.383 . S
C1756 C1757 1.377 . S
C1757 H1741 0.930 . S
C1757 C1756 1.377 . S
C1757 C1758 1.379 . S
C1758 H1742 0.931 . S
C1758 C1752 1.383 . S
C1758 C1757 1.379 . S
H1759 C1753 0.959 . S
H1760 C1753 0.961 . S
H1761 C1753 0.960 . S
H1762 C1754 0.930 . S
H1763 C1755 0.962 . S
H1764 C1772 0.929 . S
H1765 C1774 0.930 . S
H1766 C1776 0.930 1_455 S
H1767 C1779 0.929 . S
H1768 C1782 0.930 . S
H1769 C1784 0.960 . S
H1770 C1784 0.960 . S
H1771 C1784 0.960 . S
C1772 H1764 0.929 . S
C1772 C1773 1.377 . S
C1772 C1774 1.384 . S
C1773 C1772 1.377 . S
C1773 C1779 1.390 . S
C1774 H1765 0.930 . S
C1774 C1772 1.384 . S
C1774 C1775 1.372 . S
C1775 C1774 1.372 . S
C1775 C1776 1.400 . S
C1775 C1780 1.490 1_655 S
C1776 H1766 0.930 1_655 S
C1776 C1775 1.400 . S
C1776 C1779 1.386 . S
H1777 C1793 0.930 . S
H1778 C1794 0.931 . S
C1779 H1767 0.929 . S
C1779 C1773 1.390 . S
C1779 C1776 1.386 . S
C1780 C1775 1.490 1_455 S
C1780 C1782 1.395 . S
C1780 C1783 1.403 . S
H1781 C1787 0.930 . S
C1782 H1768 0.930 . S
C1782 C1780 1.395 . S
C1782 C1785 1.403 . S
C1783 C1780 1.403 . S
C1783 C1784 1.524 . S
C1783 C1787 1.400 . S
C1784 H1769 0.960 . S
C1784 H1770 0.960 . S
C1784 H1771 0.960 . S
C1784 C1783 1.524 . S
C1785 C1782 1.403 . S
C1785 C1786 1.392 . S
C1785 C1789 1.495 . S
C1786 C1785 1.392 . S
C1786 C1787 1.385 . S
C1786 C1788 1.478 . S
C1787 H1781 0.930 . S
C1787 C1783 1.400 . S
C1787 C1786 1.385 . S
C1788 C1786 1.478 . S
C1788 C1790 1.381 . S
C1788 C1794 1.383 . S
C1789 C1785 1.495 . S
C1789 H1795 0.959 . S
C1789 H1796 0.961 . S
C1789 H1797 0.960 . S
C1790 C1788 1.381 . S
C1790 C1791 1.394 . S
C1790 H1798 0.930 . S
C1791 C1790 1.394 . S
C1791 C1792 1.383 . S
C1791 H1799 0.929 . S
C1792 C1791 1.383 . S
C1792 C1793 1.377 . S
C1793 H1777 0.930 . S
C1793 C1792 1.377 . S
C1793 C1794 1.379 . S
C1794 H1778 0.931 . S
C1794 C1788 1.383 . S
C1794 C1793 1.379 . S
H1795 C1789 0.959 . S
H1796 C1789 0.961 . S
H1797 C1789 0.960 . S
H1798 C1790 0.930 . S
H1799 C1791 0.929 . S
H1800 C1808 0.929 . S
H1801 C1810 0.930 . S
H1802 C1812 0.930 . S
H1803 C1815 0.929 . S
H1804 C1818 0.930 . S
H1805 C1820 0.960 . S
H1806 C1820 0.960 . S
H1807 C1820 0.960 . S
C1808 H1800 0.929 . S
C1808 C1809 1.377 . S
C1808 C1810 1.384 . S
C1809 C1808 1.377 . S
C1809 C1815 1.390 . S
C1810 H1801 0.930 . S
C1810 C1808 1.384 . S
C1810 C1811 1.372 . S
C1811 C1810 1.372 . S
C1811 C1812 1.400 . S
C1811 C1816 1.490 . S
C1812 H1802 0.930 . S
C1812 C1811 1.400 . S
C1812 C1815 1.386 . S
H1813 C1829 0.930 . S
H1814 C1830 0.931 . S
C1815 H1803 0.929 . S
C1815 C1809 1.390 . S
C1815 C1812 1.386 . S
C1816 C1811 1.490 . S
C1816 C1818 1.395 . S
C1816 C1819 1.403 . S
H1817 C1823 0.930 . S
C1818 H1804 0.930 . S
C1818 C1816 1.395 . S
C1818 C1821 1.403 . S
C1819 C1816 1.403 . S
C1819 C1820 1.524 . S
C1819 C1823 1.400 . S
C1820 H1805 0.960 . S
C1820 H1806 0.960 . S
C1820 H1807 0.960 . S
C1820 C1819 1.524 . S
C1821 C1818 1.403 . S
C1821 C1822 1.392 . S
C1821 C1825 1.495 . S
C1822 C1821 1.392 . S
C1822 C1823 1.385 . S
C1822 C1824 1.478 . S
C1823 H1817 0.930 . S
C1823 C1819 1.400 . S
C1823 C1822 1.385 . S
C1824 C1822 1.478 . S
C1824 C1826 1.381 . S
C1824 C1830 1.383 . S
C1825 C1821 1.495 . S
C1825 H1831 0.959 . S
C1825 H1832 0.961 . S
C1825 H1833 0.960 . S
C1826 C1824 1.381 . S
C1826 C1827 1.394 . S
C1826 H1834 0.930 . S
C1827 C1826 1.394 . S
C1827 C1828 1.383 . S
C1827 H1835 0.929 . S
C1828 C1827 1.383 . S
C1828 C1829 1.377 . S
C1829 H1813 0.930 . S
C1829 C1828 1.377 . S
C1829 C1830 1.379 . S
C1830 H1814 0.931 . S
C1830 C1824 1.383 . S
C1830 C1829 1.379 . S
H1831 C1825 0.959 . S
H1832 C1825 0.961 . S
H1833 C1825 0.960 . S
H1834 C1826 0.930 . S
H1835 C1827 0.929 . S
H1836 C1844 0.929 . S
H1837 C1846 0.930 . S
H1838 C1848 0.930 . S
H1839 C1851 0.929 . S
H1840 C1854 0.930 . S
H1841 C1856 0.986 . S
H1842 C1856 0.957 1_545 S
H1843 C1856 0.934 1_545 S
C1844 H1836 0.929 . S
C1844 C1845 1.377 . S
C1844 C1846 1.384 . S
C1845 C1844 1.377 . S
C1845 C1851 1.390 . S
C1846 H1837 0.930 . S
C1846 C1844 1.384 . S
C1846 C1847 1.372 . S
C1847 C1846 1.372 . S
C1847 C1848 1.400 . S
C1847 C1852 1.490 1_545 S
C1848 H1838 0.930 . S
C1848 C1847 1.400 . S
C1848 C1851 1.386 . S
H1849 C1865 0.930 . S
H1850 C1866 0.931 . S
C1851 H1839 0.929 . S
C1851 C1845 1.390 . S
C1851 C1848 1.386 . S
C1852 C1847 1.490 1_565 S
C1852 C1854 1.395 . S
C1852 C1855 1.403 . S
H1853 C1859 0.930 . S
C1854 H1840 0.930 . S
C1854 C1852 1.395 . S
C1854 C1857 1.403 . S
C1855 C1852 1.403 . S
C1855 C1856 1.528 . S
C1855 C1859 1.400 . S
C1856 H1841 0.986 . S
C1856 H1842 0.957 1_565 S
C1856 H1843 0.934 1_565 S
C1856 C1855 1.528 . S
C1857 C1854 1.403 . S
C1857 C1858 1.392 . S
C1857 C1861 1.495 . S
C1858 C1857 1.392 . S
C1858 C1859 1.385 . S
C1858 C1860 1.478 . S
C1859 H1853 0.930 . S
C1859 C1855 1.400 . S
C1859 C1858 1.385 . S
C1860 C1858 1.478 . S
C1860 C1862 1.381 . S
C1860 C1866 1.383 . S
C1861 C1857 1.495 . S
C1861 H1867 0.959 . S
C1861 H1868 0.961 . S
C1861 H1869 0.960 . S
C1862 C1860 1.381 . S
C1862 C1863 1.394 . S
C1862 H1870 0.930 . S
C1863 C1862 1.394 . S
C1863 C1864 1.383 . S
C1863 H1871 0.929 . S
C1864 C1863 1.383 . S
C1864 C1865 1.377 . S
C1865 H1849 0.930 . S
C1865 C1864 1.377 . S
C1865 C1866 1.379 . S
C1866 H1850 0.931 . S
C1866 C1860 1.383 . S
C1866 C1865 1.379 . S
H1867 C1861 0.959 . S
H1868 C1861 0.961 . S
H1869 C1861 0.960 . S
H1870 C1862 0.930 . S
H1871 C1863 0.929 . S
H1872 C1880 0.929 . S
H1873 C1882 0.930 . S
H1874 C1884 0.930 . S
H1875 C1887 0.929 . S
H1876 C1890 0.930 . S
H1877 C1892 0.960 . S
H1878 C1892 0.960 . S
H1879 C1892 0.960 . S
C1880 H1872 0.929 . S
C1880 C1881 1.377 . S
C1880 C1882 1.384 . S
C1881 C1880 1.377 . S
C1881 C1887 1.390 . S
C1882 H1873 0.930 . S
C1882 C1880 1.384 . S
C1882 C1883 1.372 . S
C1883 C1882 1.372 . S
C1883 C1884 1.400 . S
C1883 C1888 1.490 . S
C1884 H1874 0.930 . S
C1884 C1883 1.400 . S
C1884 C1887 1.386 . S
H1885 C1901 0.930 . S
H1886 C1902 0.931 . S
C1887 H1875 0.929 . S
C1887 C1881 1.390 . S
C1887 C1884 1.386 . S
C1888 C1883 1.490 . S
C1888 C1890 1.395 . S
C1888 C1891 1.403 . S
H1889 C1895 0.930 . S
C1890 H1876 0.930 . S
C1890 C1888 1.395 . S
C1890 C1893 1.403 . S
C1891 C1888 1.403 . S
C1891 C1892 1.524 . S
C1891 C1895 1.400 . S
C1892 H1877 0.960 . S
C1892 H1878 0.960 . S
C1892 H1879 0.960 . S
C1892 C1891 1.524 . S
C1893 C1890 1.403 . S
C1893 C1894 1.392 . S
C1893 C1897 1.495 . S
C1894 C1893 1.392 . S
C1894 C1895 1.385 . S
C1894 C1896 1.478 . S
C1895 H1889 0.930 . S
C1895 C1891 1.400 . S
C1895 C1894 1.385 . S
C1896 C1894 1.478 . S
C1896 C1898 1.381 . S
C1896 C1902 1.383 . S
C1897 C1893 1.495 . S
C1897 H1903 0.959 . S
C1897 H1904 0.961 . S
C1897 H1905 0.960 . S
C1898 C1896 1.381 . S
C1898 C1899 1.394 . S
C1898 H1906 0.930 . S
C1899 C1898 1.394 . S
C1899 C1900 1.383 . S
C1899 H1907 0.929 . S
C1900 C1899 1.383 . S
C1900 C1901 1.377 . S
C1901 H1885 0.930 . S
C1901 C1900 1.377 . S
C1901 C1902 1.379 . S
C1902 H1886 0.931 . S
C1902 C1896 1.383 . S
C1902 C1901 1.379 . S
H1903 C1897 0.959 . S
H1904 C1897 0.961 . S
H1905 C1897 0.960 . S
H1906 C1898 0.930 . S
H1907 C1899 0.929 . S
H1908 C1916 0.929 . S
H1909 C1918 0.930 . S
H1910 C1920 0.930 . S
H1911 C1923 0.929 . S
H1912 C1926 0.930 . S
H1913 C1928 0.960 . S
H1914 C1928 0.960 . S
H1915 C1928 0.960 . S
C1916 H1908 0.929 . S
C1916 C1917 1.377 . S
C1916 C1918 1.384 . S
C1917 C1916 1.377 . S
C1917 C1923 1.390 . S
C1918 H1909 0.930 . S
C1918 C1916 1.384 . S
C1918 C1919 1.372 . S
C1919 C1918 1.372 . S
C1919 C1920 1.400 . S
C1919 C1924 1.490 . S
C1920 H1910 0.930 . S
C1920 C1919 1.400 . S
C1920 C1923 1.386 . S
H1921 C1937 0.930 . S
H1922 C1938 0.931 . S
C1923 H1911 0.929 . S
C1923 C1917 1.390 . S
C1923 C1920 1.386 . S
C1924 C1919 1.490 . S
C1924 C1926 1.395 . S
C1924 C1927 1.403 . S
H1925 C1931 0.930 . S
C1926 H1912 0.930 . S
C1926 C1924 1.395 . S
C1926 C1929 1.403 . S
C1927 C1924 1.403 . S
C1927 C1928 1.524 . S
C1927 C1931 1.400 . S
C1928 H1913 0.960 . S
C1928 H1914 0.960 . S
C1928 H1915 0.960 . S
C1928 C1927 1.524 . S
C1929 C1926 1.403 . S
C1929 C1930 1.392 . S
C1929 C1933 1.495 . S
C1930 C1929 1.392 . S
C1930 C1931 1.385 . S
C1930 C1932 1.478 . S
C1931 H1925 0.930 . S
C1931 C1927 1.400 . S
C1931 C1930 1.385 . S
C1932 C1930 1.478 . S
C1932 C1934 1.381 . S
C1932 C1938 1.383 . S
C1933 C1929 1.495 . S
C1933 H1939 0.959 . S
C1933 H1940 0.961 . S
C1933 H1941 0.960 . S
C1934 C1932 1.381 . S
C1934 C1935 1.394 . S
C1934 H1942 0.930 . S
C1935 C1934 1.394 . S
C1935 C1936 1.383 . S
C1935 H1943 0.929 . S
C1936 C1935 1.383 . S
C1936 C1937 1.377 . S
C1937 H1921 0.930 . S
C1937 C1936 1.377 . S
C1937 C1938 1.379 . S
C1938 H1922 0.931 . S
C1938 C1932 1.383 . S
C1938 C1937 1.379 . S
H1939 C1933 0.959 . S
H1940 C1933 0.961 . S
H1941 C1933 0.960 . S
H1942 C1934 0.930 . S
H1943 C1935 0.929 . S
H1944 C1952 0.929 . S
H1945 C1954 0.930 . S
H1946 C1956 0.930 . S
H1947 C1959 0.929 . S
H1948 C1962 0.930 . S
H1949 C1964 0.960 . S
H1950 C1964 0.960 . S
H1951 C1964 0.960 . S
C1952 H1944 0.929 . S
C1952 C1953 1.377 . S
C1952 C1954 1.384 . S
C1953 C1952 1.377 . S
C1953 C1959 1.390 . S
C1954 H1945 0.930 . S
C1954 C1952 1.384 . S
C1954 C1955 1.372 . S
C1955 C1954 1.372 . S
C1955 C1956 1.400 . S
C1955 C1960 1.490 . S
C1956 H1946 0.930 . S
C1956 C1955 1.400 . S
C1956 C1959 1.386 . S
H1957 C1973 0.930 . S
H1958 C1974 0.931 . S
C1959 H1947 0.929 . S
C1959 C1953 1.390 . S
C1959 C1956 1.386 . S
C1960 C1955 1.490 . S
C1960 C1962 1.395 . S
C1960 C1963 1.403 . S
H1961 C1967 0.930 . S
C1962 H1948 0.930 . S
C1962 C1960 1.395 . S
C1962 C1965 1.403 . S
C1963 C1960 1.403 . S
C1963 C1964 1.524 . S
C1963 C1967 1.400 . S
C1964 H1949 0.960 . S
C1964 H1950 0.960 . S
C1964 H1951 0.960 . S
C1964 C1963 1.524 . S
C1965 C1962 1.403 . S
C1965 C1966 1.392 . S
C1965 C1969 1.495 . S
C1966 C1965 1.392 . S
C1966 C1967 1.385 . S
C1966 C1968 1.478 . S
C1967 H1961 0.930 . S
C1967 C1963 1.400 . S
C1967 C1966 1.385 . S
C1968 C1966 1.478 . S
C1968 C1970 1.381 . S
C1968 C1974 1.383 . S
C1969 C1965 1.495 . S
C1969 H1975 0.959 . S
C1969 H1976 0.961 . S
C1969 H1977 0.960 . S
C1970 C1968 1.381 . S
C1970 C1971 1.394 . S
C1970 H1978 0.930 . S
C1971 C1970 1.394 . S
C1971 C1972 1.383 . S
C1971 H1979 0.929 . S
C1972 C1971 1.383 . S
C1972 C1973 1.377 . S
C1973 H1957 0.930 . S
C1973 C1972 1.377 . S
C1973 C1974 1.379 . S
C1974 H1958 0.931 . S
C1974 C1968 1.383 . S
C1974 C1973 1.379 . S
H1975 C1969 0.959 . S
H1976 C1969 0.961 . S
H1977 C1969 0.960 . S
H1978 C1970 0.930 . S
H1979 C1971 0.929 . S
H1980 C1988 0.929 . S
H1981 C1990 0.930 . S
H1982 C1992 0.930 . S
H1983 C1995 0.929 . S
H1984 C1998 0.930 . S
H1985 C2000 0.960 . S
H1986 C2000 0.960 . S
H1987 C2000 0.960 . S
C1988 H1980 0.929 . S
C1988 C1989 1.377 . S
C1988 C1990 1.384 . S
C1989 C1988 1.377 . S
C1989 C1995 1.390 . S
C1990 H1981 0.930 . S
C1990 C1988 1.384 . S
C1990 C1991 1.372 . S
C1991 C1990 1.372 . S
C1991 C1992 1.400 . S
C1991 C1996 1.490 . S
C1992 H1982 0.930 . S
C1992 C1991 1.400 . S
C1992 C1995 1.386 . S
H1993 C2009 0.930 . S
H1994 C2010 0.931 . S
C1995 H1983 0.929 . S
C1995 C1989 1.390 . S
C1995 C1992 1.386 . S
C1996 C1991 1.490 . S
C1996 C1998 1.395 . S
C1996 C1999 1.403 . S
H1997 C2003 0.930 . S
C1998 H1984 0.930 . S
C1998 C1996 1.395 . S
C1998 C2001 1.403 . S
C1999 C1996 1.403 . S
C1999 C2000 1.524 . S
C1999 C2003 1.400 . S
C2000 H1985 0.960 . S
C2000 H1986 0.960 . S
C2000 H1987 0.960 . S
C2000 C1999 1.524 . S
C2001 C1998 1.403 . S
C2001 C2002 1.392 . S
C2001 C2005 1.495 . S
C2002 C2001 1.392 . S
C2002 C2003 1.385 . S
C2002 C2004 1.478 . S
C2003 H1997 0.930 . S
C2003 C1999 1.400 . S
C2003 C2002 1.385 . S
C2004 C2002 1.478 . S
C2004 C2006 1.381 . S
C2004 C2010 1.383 . S
C2005 C2001 1.495 . S
C2005 H2011 0.959 . S
C2005 H2012 0.961 . S
C2005 H2013 0.960 . S
C2006 C2004 1.381 . S
C2006 C2007 1.394 . S
C2006 H2014 0.930 . S
C2007 C2006 1.394 . S
C2007 C2008 1.383 . S
C2007 H2015 0.929 . S
C2008 C2007 1.383 . S
C2008 C2009 1.377 . S
C2009 H1993 0.930 . S
C2009 C2008 1.377 . S
C2009 C2010 1.379 . S
C2010 H1994 0.931 . S
C2010 C2004 1.383 . S
C2010 C2009 1.379 . S
H2011 C2005 0.959 . S
H2012 C2005 0.961 . S
H2013 C2005 0.960 . S
H2014 C2006 0.930 . S
H2015 C2007 0.929 . S
H2016 C2024 0.929 . S
H2017 C2026 0.930 . S
H2018 C2028 0.930 . S
H2019 C2031 0.929 . S
H2020 C2034 0.930 . S
H2021 C2036 0.960 . S
H2022 C2036 0.960 . S
H2023 C2036 0.960 . S
C2024 H2016 0.929 . S
C2024 C2025 1.377 . S
C2024 C2026 1.384 . S
C2025 C2024 1.377 . S
C2025 C2031 1.390 . S
C2026 H2017 0.930 . S
C2026 C2024 1.384 . S
C2026 C2027 1.372 . S
C2027 C2026 1.372 . S
C2027 C2028 1.400 . S
C2027 C2032 1.490 . S
C2028 H2018 0.930 . S
C2028 C2027 1.400 . S
C2028 C2031 1.386 . S
H2029 C2045 0.930 . S
H2030 C2046 0.931 . S
C2031 H2019 0.929 . S
C2031 C2025 1.390 . S
C2031 C2028 1.386 . S
C2032 C2027 1.490 . S
C2032 C2034 1.395 . S
C2032 C2035 1.403 . S
H2033 C2039 0.930 . S
C2034 H2020 0.930 . S
C2034 C2032 1.395 . S
C2034 C2037 1.403 . S
C2035 C2032 1.403 . S
C2035 C2036 1.524 . S
C2035 C2039 1.400 . S
C2036 H2021 0.960 . S
C2036 H2022 0.960 . S
C2036 H2023 0.960 . S
C2036 C2035 1.524 . S
C2037 C2034 1.403 . S
C2037 C2038 1.392 . S
C2037 C2041 1.495 . S
C2038 C2037 1.392 . S
C2038 C2039 1.385 . S
C2038 C2040 1.478 . S
C2039 H2033 0.930 . S
C2039 C2035 1.400 . S
C2039 C2038 1.385 . S
C2040 C2038 1.478 . S
C2040 C2042 1.381 . S
C2040 C2046 1.383 . S
C2041 C2037 1.495 . S
C2041 H2047 0.959 . S
C2041 H2048 0.961 . S
C2041 H2049 0.960 . S
C2042 C2040 1.381 . S
C2042 C2043 1.394 . S
C2042 H2050 0.930 . S
C2043 C2042 1.394 . S
C2043 C2044 1.383 . S
C2043 H2051 0.929 . S
C2044 C2043 1.383 . S
C2044 C2045 1.377 . S
C2045 H2029 0.930 . S
C2045 C2044 1.377 . S
C2045 C2046 1.379 . S
C2046 H2030 0.931 . S
C2046 C2040 1.383 . S
C2046 C2045 1.379 . S
H2047 C2041 0.959 . S
H2048 C2041 0.961 . S
H2049 C2041 0.960 . S
H2050 C2042 0.930 . S
H2051 C2043 0.929 . S
H2052 C2060 0.929 . S
H2053 C2062 0.930 . S
H2054 C2064 0.930 . S
H2055 C2067 0.929 . S
H2056 C2070 0.930 . S
H2057 C2072 0.960 . S
H2058 C2072 0.960 . S
H2059 C2072 0.960 . S
C2060 H2052 0.929 . S
C2060 C2061 1.377 . S
C2060 C2062 1.384 . S
C2061 C2060 1.377 . S
C2061 C2067 1.390 . S
C2062 H2053 0.930 . S
C2062 C2060 1.384 . S
C2062 C2063 1.372 . S
C2063 C2062 1.372 . S
C2063 C2064 1.400 . S
C2063 C2068 1.490 . S
C2064 H2054 0.930 . S
C2064 C2063 1.400 . S
C2064 C2067 1.386 . S
H2065 C2081 0.930 . S
H2066 C2082 0.931 . S
C2067 H2055 0.929 . S
C2067 C2061 1.390 . S
C2067 C2064 1.386 . S
C2068 C2063 1.490 . S
C2068 C2070 1.395 . S
C2068 C2071 1.403 . S
H2069 C2075 0.930 . S
C2070 H2056 0.930 . S
C2070 C2068 1.395 . S
C2070 C2073 1.403 . S
C2071 C2068 1.403 . S
C2071 C2072 1.524 . S
C2071 C2075 1.400 . S
C2072 H2057 0.960 . S
C2072 H2058 0.960 . S
C2072 H2059 0.960 . S
C2072 C2071 1.524 . S
C2073 C2070 1.403 . S
C2073 C2074 1.392 . S
C2073 C2077 1.495 . S
C2074 C2073 1.392 . S
C2074 C2075 1.385 . S
C2074 C2076 1.478 . S
C2075 H2069 0.930 . S
C2075 C2071 1.400 . S
C2075 C2074 1.385 . S
C2076 C2074 1.478 . S
C2076 C2078 1.381 . S
C2076 C2082 1.383 . S
C2077 C2073 1.495 . S
C2077 H2083 0.959 . S
C2077 H2084 0.961 . S
C2077 H2085 0.960 . S
C2078 C2076 1.381 . S
C2078 C2079 1.394 . S
C2078 H2086 0.930 . S
C2079 C2078 1.394 . S
C2079 C2080 1.383 . S
C2079 H2087 0.929 . S
C2080 C2079 1.383 . S
C2080 C2081 1.377 . S
C2081 H2065 0.930 . S
C2081 C2080 1.377 . S
C2081 C2082 1.379 . S
C2082 H2066 0.931 . S
C2082 C2076 1.383 . S
C2082 C2081 1.379 . S
H2083 C2077 0.959 . S
H2084 C2077 0.961 . S
H2085 C2077 0.960 . S
H2086 C2078 0.930 . S
H2087 C2079 0.929 . S
H2088 C2096 0.929 . S
H2089 C2098 0.930 . S
H2090 C2100 0.930 . S
H2091 C2103 0.929 . S
H2092 C2106 0.930 . S
H2093 C2108 0.960 . S
H2094 C2108 0.939 1_545 S
H2095 C2108 0.939 1_545 S
C2096 H2088 0.929 . S
C2096 C2097 1.377 . S
C2096 C2098 1.384 . S
C2097 C2096 1.377 . S
C2097 C2103 1.390 . S
C2098 H2089 0.930 . S
C2098 C2096 1.384 . S
C2098 C2099 1.372 . S
C2099 C2098 1.372 . S
C2099 C2100 1.400 . S
C2099 C2104 1.490 1_545 S
C2100 H2090 0.930 . S
C2100 C2099 1.400 . S
C2100 C2103 1.386 . S
H2101 C2117 0.930 . S
H2102 C2118 0.931 . S
C2103 H2091 0.929 . S
C2103 C2097 1.390 . S
C2103 C2100 1.386 . S
C2104 C2099 1.490 1_565 S
C2104 C2106 1.395 . S
C2104 C2107 1.403 . S
H2105 C2111 0.930 . S
C2106 H2092 0.930 . S
C2106 C2104 1.395 . S
C2106 C2109 1.403 . S
C2107 C2104 1.403 . S
C2107 C2108 1.568 . S
C2107 C2111 1.400 . S
C2108 H2093 0.960 . S
C2108 H2094 0.939 1_565 S
C2108 H2095 0.939 1_565 S
C2108 C2107 1.568 . S
C2109 C2106 1.403 . S
C2109 C2110 1.392 . S
C2109 C2113 1.495 . S
C2110 C2109 1.392 . S
C2110 C2111 1.385 . S
C2110 C2112 1.478 . S
C2111 H2105 0.930 . S
C2111 C2107 1.400 . S
C2111 C2110 1.385 . S
C2112 C2110 1.478 . S
C2112 C2114 1.381 . S
C2112 C2118 1.383 . S
C2113 C2109 1.495 . S
C2113 H2119 0.959 . S
C2113 H2120 0.961 . S
C2113 H2121 0.960 . S
C2114 C2112 1.381 . S
C2114 C2115 1.394 . S
C2114 H2122 0.930 . S
C2115 C2114 1.394 . S
C2115 C2116 1.383 . S
C2115 H2123 0.929 . S
C2116 C2115 1.383 . S
C2116 C2117 1.377 . S
C2117 H2101 0.930 . S
C2117 C2116 1.377 . S
C2117 C2118 1.379 . S
C2118 H2102 0.931 . S
C2118 C2112 1.383 . S
C2118 C2117 1.379 . S
H2119 C2113 0.959 . S
H2120 C2113 0.961 . S
H2121 C2113 0.960 . S
H2122 C2114 0.930 . S
H2123 C2115 0.929 . S
H2124 C2132 0.929 . S
H2125 C2134 0.930 . S
H2126 C2136 0.930 1_455 S
H2127 C2139 0.929 . S
H2128 C2142 0.930 . S
H2129 C2144 0.960 . S
H2130 C2144 0.960 . S
H2131 C2144 0.960 . S
C2132 H2124 0.929 . S
C2132 C2133 1.377 . S
C2132 C2134 1.384 . S
C2133 C2132 1.377 . S
C2133 C2139 1.390 . S
C2134 H2125 0.930 . S
C2134 C2132 1.384 . S
C2134 C2135 1.372 1_655 S
C2135 C2134 1.372 1_455 S
C2135 C2136 1.400 1_455 S
C2135 C2140 1.490 . S
C2136 H2126 0.930 1_655 S
C2136 C2135 1.400 1_655 S
C2136 C2139 1.386 . S
H2137 C2153 0.930 . S
H2138 C2154 0.931 . S
C2139 H2127 0.929 . S
C2139 C2133 1.390 . S
C2139 C2136 1.386 . S
C2140 C2135 1.490 . S
C2140 C2142 1.395 . S
C2140 C2143 1.403 . S
H2141 C2147 0.930 . S
C2142 H2128 0.930 . S
C2142 C2140 1.395 . S
C2142 C2145 1.403 . S
C2143 C2140 1.403 . S
C2143 C2144 1.524 . S
C2143 C2147 1.400 . S
C2144 H2129 0.960 . S
C2144 H2130 0.960 . S
C2144 H2131 0.960 . S
C2144 C2143 1.524 . S
C2145 C2142 1.403 . S
C2145 C2146 1.392 . S
C2145 C2149 1.495 . S
C2146 C2145 1.392 . S
C2146 C2147 1.385 . S
C2146 C2148 1.478 . S
C2147 H2141 0.930 . S
C2147 C2143 1.400 . S
C2147 C2146 1.385 . S
C2148 C2146 1.478 . S
C2148 C2150 1.381 . S
C2148 C2154 1.383 . S
C2149 C2145 1.495 . S
C2149 H2155 0.959 . S
C2149 H2156 0.961 . S
C2149 H2157 0.960 . S
C2150 C2148 1.381 . S
C2150 C2151 1.394 . S
C2150 H2158 0.930 . S
C2151 C2150 1.394 . S
C2151 C2152 1.383 . S
C2151 H2159 0.929 . S
C2152 C2151 1.383 . S
C2152 C2153 1.377 . S
C2153 H2137 0.930 . S
C2153 C2152 1.377 . S
C2153 C2154 1.379 . S
C2154 H2138 0.931 . S
C2154 C2148 1.383 . S
C2154 C2153 1.379 . S
H2155 C2149 0.959 . S
H2156 C2149 0.961 . S
H2157 C2149 0.960 . S
H2158 C2150 0.930 . S
H2159 C2151 0.929 . S
H2160 C2168 0.929 . S
H2161 C2170 0.930 . S
H2162 C2172 0.930 . S
H2163 C2175 0.929 . S
H2164 C2178 0.930 . S
H2165 C2180 0.960 . S
H2166 C2180 0.960 . S
H2167 C2180 0.960 . S
C2168 H2160 0.929 . S
C2168 C2169 1.377 . S
C2168 C2170 1.384 . S
C2169 C2168 1.377 . S
C2169 C2175 1.390 . S
C2170 H2161 0.930 . S
C2170 C2168 1.384 . S
C2170 C2171 1.372 . S
C2171 C2170 1.372 . S
C2171 C2172 1.400 . S
C2171 C2176 1.490 . S
C2172 H2162 0.930 . S
C2172 C2171 1.400 . S
C2172 C2175 1.386 . S
H2173 C2189 0.930 . S
H2174 C2190 0.931 . S
C2175 H2163 0.929 . S
C2175 C2169 1.390 . S
C2175 C2172 1.386 . S
C2176 C2171 1.490 . S
C2176 C2178 1.395 . S
C2176 C2179 1.403 . S
H2177 C2183 0.930 . S
C2178 H2164 0.930 . S
C2178 C2176 1.395 . S
C2178 C2181 1.403 . S
C2179 C2176 1.403 . S
C2179 C2180 1.524 . S
C2179 C2183 1.400 . S
C2180 H2165 0.960 . S
C2180 H2166 0.960 . S
C2180 H2167 0.960 . S
C2180 C2179 1.524 . S
C2181 C2178 1.403 . S
C2181 C2182 1.392 . S
C2181 C2185 1.495 . S
C2182 C2181 1.392 . S
C2182 C2183 1.385 . S
C2182 C2184 1.478 . S
C2183 H2177 0.930 . S
C2183 C2179 1.400 . S
C2183 C2182 1.385 . S
C2184 C2182 1.478 . S
C2184 C2186 1.381 . S
C2184 C2190 1.383 . S
C2185 C2181 1.495 . S
C2185 H2191 0.959 . S
C2185 H2192 0.961 . S
C2185 H2193 0.960 . S
C2186 C2184 1.381 . S
C2186 C2187 1.394 . S
C2186 H2194 0.930 . S
C2187 C2186 1.394 . S
C2187 C2188 1.383 . S
C2187 H2195 0.929 . S
C2188 C2187 1.383 . S
C2188 C2189 1.377 . S
C2189 H2173 0.930 . S
C2189 C2188 1.377 . S
C2189 C2190 1.379 . S
C2190 H2174 0.931 . S
C2190 C2184 1.383 . S
C2190 C2189 1.379 . S
H2191 C2185 0.959 . S
H2192 C2185 0.961 . S
H2193 C2185 0.960 . S
H2194 C2186 0.930 . S
H2195 C2187 0.929 . S
H2196 C2204 0.929 . S
H2197 C2206 0.930 . S
H2198 C2208 0.930 . S
H2199 C2211 0.929 . S
H2200 C2214 0.930 . S
H2201 C2216 0.960 . S
H2202 C2216 0.960 . S
H2203 C2216 0.960 . S
C2204 H2196 0.929 . S
C2204 C2205 1.377 . S
C2204 C2206 1.384 . S
C2205 C2204 1.377 . S
C2205 C2211 1.390 . S
C2206 H2197 0.930 . S
C2206 C2204 1.384 . S
C2206 C2207 1.372 . S
C2207 C2206 1.372 . S
C2207 C2208 1.400 . S
C2207 C2212 1.490 . S
C2208 H2198 0.930 . S
C2208 C2207 1.400 . S
C2208 C2211 1.386 . S
H2209 C2225 0.930 . S
H2210 C2226 0.931 . S
C2211 H2199 0.929 . S
C2211 C2205 1.390 . S
C2211 C2208 1.386 . S
C2212 C2207 1.490 . S
C2212 C2214 1.395 . S
C2212 C2215 1.403 . S
H2213 C2219 0.930 . S
C2214 H2200 0.930 . S
C2214 C2212 1.395 . S
C2214 C2217 1.403 . S
C2215 C2212 1.403 . S
C2215 C2216 1.524 . S
C2215 C2219 1.400 . S
C2216 H2201 0.960 . S
C2216 H2202 0.960 . S
C2216 H2203 0.960 . S
C2216 C2215 1.524 . S
C2217 C2214 1.403 . S
C2217 C2218 1.392 . S
C2217 C2221 1.495 . S
C2218 C2217 1.392 . S
C2218 C2219 1.385 . S
C2218 C2220 1.478 . S
C2219 H2213 0.930 . S
C2219 C2215 1.400 . S
C2219 C2218 1.385 . S
C2220 C2218 1.478 . S
C2220 C2222 1.381 . S
C2220 C2226 1.383 . S
C2221 C2217 1.495 . S
C2221 H2227 0.959 . S
C2221 H2228 0.961 . S
C2221 H2229 0.960 . S
C2222 C2220 1.381 . S
C2222 C2223 1.394 . S
C2222 H2230 0.930 . S
C2223 C2222 1.394 . S
C2223 C2224 1.383 . S
C2223 H2231 0.929 . S
C2224 C2223 1.383 . S
C2224 C2225 1.377 . S
C2225 H2209 0.930 . S
C2225 C2224 1.377 . S
C2225 C2226 1.379 . S
C2226 H2210 0.931 . S
C2226 C2220 1.383 . S
C2226 C2225 1.379 . S
H2227 C2221 0.959 . S
H2228 C2221 0.961 . S
H2229 C2221 0.960 . S
H2230 C2222 0.930 . S
H2231 C2223 0.929 . S
H2232 C2240 0.929 . S
H2233 C2242 0.930 . S
H2234 C2244 0.930 . S
H2235 C2247 0.929 . S
H2236 C2250 0.930 . S
H2237 C2252 0.960 . S
H2238 C2252 0.960 . S
H2239 C2252 0.960 . S
C2240 H2232 0.929 . S
C2240 C2241 1.377 . S
C2240 C2242 1.384 . S
C2241 C2240 1.377 . S
C2241 C2247 1.390 . S
C2242 H2233 0.930 . S
C2242 C2240 1.384 . S
C2242 C2243 1.372 . S
C2243 C2242 1.372 . S
C2243 C2244 1.400 . S
C2243 C2248 1.490 . S
C2244 H2234 0.930 . S
C2244 C2243 1.400 . S
C2244 C2247 1.386 . S
H2245 C2261 0.930 . S
H2246 C2262 0.931 . S
C2247 H2235 0.929 . S
C2247 C2241 1.390 . S
C2247 C2244 1.386 . S
C2248 C2243 1.490 . S
C2248 C2250 1.395 . S
C2248 C2251 1.403 . S
H2249 C2255 0.930 . S
C2250 H2236 0.930 . S
C2250 C2248 1.395 . S
C2250 C2253 1.403 . S
C2251 C2248 1.403 . S
C2251 C2252 1.524 . S
C2251 C2255 1.400 . S
C2252 H2237 0.960 . S
C2252 H2238 0.960 . S
C2252 H2239 0.960 . S
C2252 C2251 1.524 . S
C2253 C2250 1.403 . S
C2253 C2254 1.392 . S
C2253 C2257 1.495 . S
C2254 C2253 1.392 . S
C2254 C2255 1.385 . S
C2254 C2256 1.478 . S
C2255 H2249 0.930 . S
C2255 C2251 1.400 . S
C2255 C2254 1.385 . S
C2256 C2254 1.478 . S
C2256 C2258 1.381 . S
C2256 C2262 1.383 . S
C2257 C2253 1.495 . S
C2257 H2263 0.959 . S
C2257 H2264 0.961 . S
C2257 H2265 0.960 . S
C2258 C2256 1.381 . S
C2258 C2259 1.394 . S
C2258 H2266 0.930 . S
C2259 C2258 1.394 . S
C2259 C2260 1.383 . S
C2259 H2267 0.929 . S
C2260 C2259 1.383 . S
C2260 C2261 1.377 . S
C2261 H2245 0.930 . S
C2261 C2260 1.377 . S
C2261 C2262 1.379 . S
C2262 H2246 0.931 . S
C2262 C2256 1.383 . S
C2262 C2261 1.379 . S
H2263 C2257 0.959 . S
H2264 C2257 0.961 . S
H2265 C2257 0.960 . S
H2266 C2258 0.930 . S
H2267 C2259 0.929 . S
H2268 C2276 0.929 . S
H2269 C2278 0.930 . S
H2270 C2280 0.930 . S
H2271 C2283 0.929 . S
H2272 C2286 0.930 . S
H2273 C2288 0.960 . S
H2274 C2288 0.960 . S
H2275 C2288 0.960 . S
C2276 H2268 0.929 . S
C2276 C2277 1.377 . S
C2276 C2278 1.384 . S
C2277 C2276 1.377 . S
C2277 C2283 1.390 . S
C2278 H2269 0.930 . S
C2278 C2276 1.384 . S
C2278 C2279 1.372 . S
C2279 C2278 1.372 . S
C2279 C2280 1.400 . S
C2279 C2284 1.490 . S
C2280 H2270 0.930 . S
C2280 C2279 1.400 . S
C2280 C2283 1.386 . S
H2281 C2297 0.930 . S
H2282 C2298 0.931 . S
C2283 H2271 0.929 . S
C2283 C2277 1.390 . S
C2283 C2280 1.386 . S
C2284 C2279 1.490 . S
C2284 C2286 1.395 . S
C2284 C2287 1.403 . S
H2285 C2291 0.930 . S
C2286 H2272 0.930 . S
C2286 C2284 1.395 . S
C2286 C2289 1.403 . S
C2287 C2284 1.403 . S
C2287 C2288 1.524 . S
C2287 C2291 1.400 . S
C2288 H2273 0.960 . S
C2288 H2274 0.960 . S
C2288 H2275 0.960 . S
C2288 C2287 1.524 . S
C2289 C2286 1.403 . S
C2289 C2290 1.392 . S
C2289 C2293 1.495 . S
C2290 C2289 1.392 . S
C2290 C2291 1.385 . S
C2290 C2292 1.478 . S
C2291 H2285 0.930 . S
C2291 C2287 1.400 . S
C2291 C2290 1.385 . S
C2292 C2290 1.478 . S
C2292 C2294 1.381 . S
C2292 C2298 1.383 . S
C2293 C2289 1.495 . S
C2293 H2299 0.959 . S
C2293 H2300 0.961 . S
C2293 H2301 0.960 . S
C2294 C2292 1.381 . S
C2294 C2295 1.394 . S
C2294 H2302 0.930 . S
C2295 C2294 1.394 . S
C2295 C2296 1.383 . S
C2295 H2303 0.929 . S
C2296 C2295 1.383 . S
C2296 C2297 1.377 . S
C2297 H2281 0.930 . S
C2297 C2296 1.377 . S
C2297 C2298 1.379 . S
C2298 H2282 0.931 . S
C2298 C2292 1.383 . S
C2298 C2297 1.379 . S
H2299 C2293 0.959 . S
H2300 C2293 0.961 . S
H2301 C2293 0.960 . S
H2302 C2294 0.930 . S
H2303 C2295 0.929 . S
H2304 C2312 0.929 . S
H2305 C2314 0.930 . S
H2306 C2316 0.930 1_545 S
H2307 C2319 0.929 . S
H2308 C2322 0.930 . S
H2309 C2324 0.960 . S
H2310 C2324 0.960 . S
H2311 C2324 0.960 . S
C2312 H2304 0.929 . S
C2312 C2313 1.377 . S
C2312 C2314 1.384 . S
C2313 C2312 1.377 . S
C2313 C2319 1.390 . S
C2314 H2305 0.930 . S
C2314 C2312 1.384 . S
C2314 C2315 1.372 . S
C2315 C2314 1.372 . S
C2315 C2316 1.400 . S
C2315 C2320 1.490 1_565 S
C2316 H2306 0.930 1_565 S
C2316 C2315 1.400 . S
C2316 C2319 1.386 . S
H2317 C2333 0.930 . S
H2318 C2334 0.931 . S
C2319 H2307 0.929 . S
C2319 C2313 1.390 . S
C2319 C2316 1.386 . S
C2320 C2315 1.490 1_545 S
C2320 C2322 1.395 . S
C2320 C2323 1.403 . S
H2321 C2327 0.930 . S
C2322 H2308 0.930 . S
C2322 C2320 1.395 . S
C2322 C2325 1.403 . S
C2323 C2320 1.403 . S
C2323 C2324 1.524 . S
C2323 C2327 1.400 . S
C2324 H2309 0.960 . S
C2324 H2310 0.960 . S
C2324 H2311 0.960 . S
C2324 C2323 1.524 . S
C2325 C2322 1.403 . S
C2325 C2326 1.392 . S
C2325 C2329 1.495 . S
C2326 C2325 1.392 . S
C2326 C2327 1.385 . S
C2326 C2328 1.478 . S
C2327 H2321 0.930 . S
C2327 C2323 1.400 . S
C2327 C2326 1.385 . S
C2328 C2326 1.478 . S
C2328 C2330 1.381 . S
C2328 C2334 1.383 . S
C2329 C2325 1.495 . S
C2329 H2335 0.959 . S
C2329 H2336 0.961 . S
C2329 H2337 0.960 . S
C2330 C2328 1.381 . S
C2330 C2331 1.394 . S
C2330 H2338 0.930 . S
C2331 C2330 1.394 . S
C2331 C2332 1.383 . S
C2331 H2339 0.929 . S
C2332 C2331 1.383 . S
C2332 C2333 1.377 . S
C2333 H2317 0.930 . S
C2333 C2332 1.377 . S
C2333 C2334 1.379 . S
C2334 H2318 0.931 . S
C2334 C2328 1.383 . S
C2334 C2333 1.379 . S
H2335 C2329 0.959 . S
H2336 C2329 0.961 . S
H2337 C2329 0.960 . S
H2338 C2330 0.930 . S
H2339 C2331 0.929 . S
H2340 C2348 0.929 . S
H2341 C2350 0.930 . S
H2342 C2352 0.930 1_655 S
H2343 C2355 0.929 . S
H2344 C2358 0.930 . S
H2345 C2360 0.960 . S
H2346 C2360 0.960 . S
H2347 C2360 0.960 . S
C2348 H2340 0.929 . S
C2348 C2349 1.377 . S
C2348 C2350 1.384 . S
C2349 C2348 1.377 . S
C2349 C2355 1.390 . S
C2350 H2341 0.930 . S
C2350 C2348 1.384 . S
C2350 C2351 1.372 . S
C2351 C2350 1.372 . S
C2351 C2352 1.400 . S
C2351 C2356 1.490 1_455 S
C2352 H2342 0.930 1_455 S
C2352 C2351 1.400 . S
C2352 C2355 1.386 . S
H2353 C2369 0.930 . S
H2354 C2370 0.931 . S
C2355 H2343 0.929 . S
C2355 C2349 1.390 . S
C2355 C2352 1.386 . S
C2356 C2351 1.490 1_655 S
C2356 C2358 1.395 . S
C2356 C2359 1.403 . S
H2357 C2363 0.930 . S
C2358 H2344 0.930 . S
C2358 C2356 1.395 . S
C2358 C2361 1.403 . S
C2359 C2356 1.403 . S
C2359 C2360 1.524 . S
C2359 C2363 1.400 . S
C2360 H2345 0.960 . S
C2360 H2346 0.960 . S
C2360 H2347 0.960 . S
C2360 C2359 1.524 . S
C2361 C2358 1.403 . S
C2361 C2362 1.392 . S
C2361 C2365 1.495 . S
C2362 C2361 1.392 . S
C2362 C2363 1.385 . S
C2362 C2364 1.478 . S
C2363 H2357 0.930 . S
C2363 C2359 1.400 . S
C2363 C2362 1.385 . S
C2364 C2362 1.478 . S
C2364 C2366 1.381 . S
C2364 C2370 1.383 . S
C2365 C2361 1.495 . S
C2365 H2371 0.959 . S
C2365 H2372 0.961 . S
C2365 H2373 0.960 . S
C2366 C2364 1.381 . S
C2366 C2367 1.394 . S
C2366 H2374 0.930 . S
C2367 C2366 1.394 . S
C2367 C2368 1.383 . S
C2367 H2375 0.929 . S
C2368 C2367 1.383 . S
C2368 C2369 1.377 . S
C2369 H2353 0.930 . S
C2369 C2368 1.377 . S
C2369 C2370 1.379 . S
C2370 H2354 0.931 . S
C2370 C2364 1.383 . S
C2370 C2369 1.379 . S
H2371 C2365 0.959 . S
H2372 C2365 0.961 . S
H2373 C2365 0.960 . S
H2374 C2366 0.930 . S
H2375 C2367 0.929 . S
H2376 C2384 0.929 . S
H2377 C2386 0.930 . S
H2378 C2388 0.930 . S
H2379 C2391 0.929 . S
H2380 C2394 0.930 . S
H2381 C2396 0.960 . S
H2382 C2396 0.960 . S
H2383 C2396 0.960 . S
C2384 H2376 0.929 . S
C2384 C2385 1.377 . S
C2384 C2386 1.384 . S
C2385 C2384 1.377 . S
C2385 C2391 1.390 . S
C2386 H2377 0.930 . S
C2386 C2384 1.384 . S
C2386 C2387 1.372 . S
C2387 C2386 1.372 . S
C2387 C2388 1.400 . S
C2387 C2392 1.490 . S
C2388 H2378 0.930 . S
C2388 C2387 1.400 . S
C2388 C2391 1.386 . S
H2389 C2405 0.930 . S
H2390 C2406 0.931 . S
C2391 H2379 0.929 . S
C2391 C2385 1.390 . S
C2391 C2388 1.386 . S
C2392 C2387 1.490 . S
C2392 C2394 1.395 . S
C2392 C2395 1.403 . S
H2393 C2399 0.930 . S
C2394 H2380 0.930 . S
C2394 C2392 1.395 . S
C2394 C2397 1.403 . S
C2395 C2392 1.403 . S
C2395 C2396 1.524 . S
C2395 C2399 1.400 . S
C2396 H2381 0.960 . S
C2396 H2382 0.960 . S
C2396 H2383 0.960 . S
C2396 C2395 1.524 . S
C2397 C2394 1.403 . S
C2397 C2398 1.392 . S
C2397 C2401 1.495 . S
C2398 C2397 1.392 . S
C2398 C2399 1.385 . S
C2398 C2400 1.478 . S
C2399 H2393 0.930 . S
C2399 C2395 1.400 . S
C2399 C2398 1.385 . S
C2400 C2398 1.478 . S
C2400 C2402 1.381 . S
C2400 C2406 1.383 . S
C2401 C2397 1.495 . S
C2401 H2407 0.959 . S
C2401 H2408 0.961 . S
C2401 H2409 0.960 . S
C2402 C2400 1.381 . S
C2402 C2403 1.394 . S
C2402 H2410 0.930 . S
C2403 C2402 1.394 . S
C2403 C2404 1.383 . S
C2403 H2411 0.929 . S
C2404 C2403 1.383 . S
C2404 C2405 1.377 . S
C2405 H2389 0.930 . S
C2405 C2404 1.377 . S
C2405 C2406 1.379 . S
C2406 H2390 0.931 . S
C2406 C2400 1.383 . S
C2406 C2405 1.379 . S
H2407 C2401 0.959 . S
H2408 C2401 0.961 . S
H2409 C2401 0.960 . S
H2410 C2402 0.930 . S
H2411 C2403 0.929 . S
H2412 C2420 0.929 . S
H2413 C2422 0.930 . S
H2414 C2424 0.930 . S
H2415 C2427 0.929 . S
H2416 C2430 0.930 . S
H2417 C2432 0.960 . S
H2418 C2432 0.960 . S
H2419 C2432 0.960 . S
C2420 H2412 0.929 . S
C2420 C2421 1.377 . S
C2420 C2422 1.384 . S
C2421 C2420 1.377 . S
C2421 C2427 1.390 . S
C2422 H2413 0.930 . S
C2422 C2420 1.384 . S
C2422 C2423 1.372 . S
C2423 C2422 1.372 . S
C2423 C2424 1.400 . S
C2423 C2428 1.490 1_455 S
C2424 H2414 0.930 . S
C2424 C2423 1.400 . S
C2424 C2427 1.386 . S
H2425 C2441 0.930 . S
H2426 C2442 0.931 . S
C2427 H2415 0.929 . S
C2427 C2421 1.390 . S
C2427 C2424 1.386 . S
C2428 C2423 1.490 1_655 S
C2428 C2430 1.395 . S
C2428 C2431 1.403 . S
H2429 C2435 0.930 . S
C2430 H2416 0.930 . S
C2430 C2428 1.395 . S
C2430 C2433 1.403 . S
C2431 C2428 1.403 . S
C2431 C2432 1.524 . S
C2431 C2435 1.400 . S
C2432 H2417 0.960 . S
C2432 H2418 0.960 . S
C2432 H2419 0.960 . S
C2432 C2431 1.524 . S
C2433 C2430 1.403 . S
C2433 C2434 1.392 . S
C2433 C2437 1.495 . S
C2434 C2433 1.392 . S
C2434 C2435 1.385 . S
C2434 C2436 1.478 . S
C2435 H2429 0.930 . S
C2435 C2431 1.400 . S
C2435 C2434 1.385 . S
C2436 C2434 1.478 . S
C2436 C2438 1.381 . S
C2436 C2442 1.383 . S
C2437 C2433 1.495 . S
C2437 H2443 0.959 . S
C2437 H2444 0.961 . S
C2437 H2445 0.960 . S
C2438 C2436 1.381 . S
C2438 C2439 1.394 . S
C2438 H2446 0.930 . S
C2439 C2438 1.394 . S
C2439 C2440 1.383 . S
C2439 H2447 0.929 . S
C2440 C2439 1.383 . S
C2440 C2441 1.377 . S
C2441 H2425 0.930 . S
C2441 C2440 1.377 . S
C2441 C2442 1.379 . S
C2442 H2426 0.931 . S
C2442 C2436 1.383 . S
C2442 C2441 1.379 . S
H2443 C2437 0.959 . S
H2444 C2437 0.961 . S
H2445 C2437 0.960 . S
H2446 C2438 0.930 . S
H2447 C2439 0.929 . S
H2448 C2456 0.929 . S
H2449 C2458 0.930 . S
H2450 C2460 0.930 . S
H2451 C2463 0.929 . S
H2452 C2466 0.930 . S
H2453 C2468 0.960 . S
H2454 C2468 0.960 . S
H2455 C2468 0.960 . S
C2456 H2448 0.929 . S
C2456 C2457 1.377 . S
C2456 C2458 1.384 . S
C2457 C2456 1.377 . S
C2457 C2463 1.390 . S
C2458 H2449 0.930 . S
C2458 C2456 1.384 . S
C2458 C2459 1.372 . S
C2459 C2458 1.372 . S
C2459 C2460 1.400 . S
C2459 C2464 1.490 . S
C2460 H2450 0.930 . S
C2460 C2459 1.400 . S
C2460 C2463 1.386 . S
H2461 C2477 0.930 . S
H2462 C2478 0.931 . S
C2463 H2451 0.929 . S
C2463 C2457 1.390 . S
C2463 C2460 1.386 . S
C2464 C2459 1.490 . S
C2464 C2466 1.395 . S
C2464 C2467 1.403 . S
H2465 C2471 0.930 . S
C2466 H2452 0.930 . S
C2466 C2464 1.395 . S
C2466 C2469 1.403 . S
C2467 C2464 1.403 . S
C2467 C2468 1.524 . S
C2467 C2471 1.400 . S
C2468 H2453 0.960 . S
C2468 H2454 0.960 . S
C2468 H2455 0.960 . S
C2468 C2467 1.524 . S
C2469 C2466 1.403 . S
C2469 C2470 1.392 . S
C2469 C2473 1.495 . S
C2470 C2469 1.392 . S
C2470 C2471 1.385 . S
C2470 C2472 1.478 . S
C2471 H2465 0.930 . S
C2471 C2467 1.400 . S
C2471 C2470 1.385 . S
C2472 C2470 1.478 . S
C2472 C2474 1.381 . S
C2472 C2478 1.383 . S
C2473 C2469 1.495 . S
C2473 H2479 0.959 . S
C2473 H2480 0.961 . S
C2473 H2481 0.960 . S
C2474 C2472 1.381 . S
C2474 C2475 1.394 . S
C2474 H2482 0.930 . S
C2475 C2474 1.394 . S
C2475 C2476 1.383 . S
C2475 H2483 0.929 . S
C2476 C2475 1.383 . S
C2476 C2477 1.377 . S
C2477 H2461 0.930 . S
C2477 C2476 1.377 . S
C2477 C2478 1.379 . S
C2478 H2462 0.931 . S
C2478 C2472 1.383 . S
C2478 C2477 1.379 . S
H2479 C2473 0.959 . S
H2480 C2473 0.961 . S
H2481 C2473 0.960 . S
H2482 C2474 0.930 . S
H2483 C2475 0.929 . S
H2484 C2492 0.929 . S
H2485 C2494 0.930 . S
H2486 C2496 0.930 . S
H2487 C2499 0.929 . S
H2488 C2502 0.930 . S
H2489 C2504 0.960 . S
H2490 C2504 0.960 1_565 S
H2491 C2504 0.960 . S
C2492 H2484 0.929 . S
C2492 C2493 1.377 . S
C2492 C2494 1.384 . S
C2493 C2492 1.377 . S
C2493 C2499 1.390 . S
C2494 H2485 0.930 . S
C2494 C2492 1.384 . S
C2494 C2495 1.372 . S
C2495 C2494 1.372 . S
C2495 C2496 1.400 . S
C2495 C2500 1.490 1_565 S
C2496 H2486 0.930 . S
C2496 C2495 1.400 . S
C2496 C2499 1.386 . S
H2497 C2513 0.930 . S
H2498 C2514 0.931 . S
C2499 H2487 0.929 . S
C2499 C2493 1.390 . S
C2499 C2496 1.386 . S
C2500 C2495 1.490 1_545 S
C2500 C2502 1.395 . S
C2500 C2503 1.403 . S
H2501 C2507 0.930 . S
C2502 H2488 0.930 . S
C2502 C2500 1.395 . S
C2502 C2505 1.403 . S
C2503 C2500 1.403 . S
C2503 C2504 1.524 . S
C2503 C2507 1.400 . S
C2504 H2489 0.960 . S
C2504 H2490 0.960 1_545 S
C2504 H2491 0.960 . S
C2504 C2503 1.524 . S
C2505 C2502 1.403 . S
C2505 C2506 1.392 . S
C2505 C2509 1.495 . S
C2506 C2505 1.392 . S
C2506 C2507 1.385 . S
C2506 C2508 1.478 . S
C2507 H2501 0.930 . S
C2507 C2503 1.400 . S
C2507 C2506 1.385 . S
C2508 C2506 1.478 . S
C2508 C2510 1.381 . S
C2508 C2514 1.383 . S
C2509 C2505 1.495 . S
C2509 H2515 0.959 . S
C2509 H2516 0.961 . S
C2509 H2517 0.960 . S
C2510 C2508 1.381 . S
C2510 C2511 1.394 . S
C2510 H2518 0.930 . S
C2511 C2510 1.394 . S
C2511 C2512 1.383 . S
C2511 H2519 0.929 . S
C2512 C2511 1.383 . S
C2512 C2513 1.377 . S
C2513 H2497 0.930 . S
C2513 C2512 1.377 . S
C2513 C2514 1.379 . S
C2514 H2498 0.931 . S
C2514 C2508 1.383 . S
C2514 C2513 1.379 . S
H2515 C2509 0.959 . S
H2516 C2509 0.961 . S
H2517 C2509 0.960 . S
H2518 C2510 0.930 . S
H2519 C2511 0.929 . S
H2520 C2528 0.929 . S
H2521 C2530 0.930 . S
H2522 C2532 0.930 . S
H2523 C2535 0.929 . S
H2524 C2538 0.930 . S
H2525 C2540 0.960 . S
H2526 C2540 0.960 . S
H2527 C2540 0.960 . S
C2528 H2520 0.929 . S
C2528 C2529 1.377 . S
C2528 C2530 1.384 . S
C2529 C2528 1.377 . S
C2529 C2535 1.390 . S
C2530 H2521 0.930 . S
C2530 C2528 1.384 . S
C2530 C2531 1.372 . S
C2531 C2530 1.372 . S
C2531 C2532 1.400 . S
C2531 C2536 1.490 . S
C2532 H2522 0.930 . S
C2532 C2531 1.400 . S
C2532 C2535 1.386 . S
H2533 C2549 0.930 . S
H2534 C2550 0.931 . S
C2535 H2523 0.929 . S
C2535 C2529 1.390 . S
C2535 C2532 1.386 . S
C2536 C2531 1.490 . S
C2536 C2538 1.395 . S
C2536 C2539 1.403 . S
H2537 C2543 0.930 . S
C2538 H2524 0.930 . S
C2538 C2536 1.395 . S
C2538 C2541 1.403 . S
C2539 C2536 1.403 . S
C2539 C2540 1.524 . S
C2539 C2543 1.400 . S
C2540 H2525 0.960 . S
C2540 H2526 0.960 . S
C2540 H2527 0.960 . S
C2540 C2539 1.524 . S
C2541 C2538 1.403 . S
C2541 C2542 1.392 . S
C2541 C2545 1.495 . S
C2542 C2541 1.392 . S
C2542 C2543 1.385 . S
C2542 C2544 1.478 . S
C2543 H2537 0.930 . S
C2543 C2539 1.400 . S
C2543 C2542 1.385 . S
C2544 C2542 1.478 . S
C2544 C2546 1.381 . S
C2544 C2550 1.383 . S
C2545 C2541 1.495 . S
C2545 H2551 0.959 . S
C2545 H2552 0.961 . S
C2545 H2553 0.960 . S
C2546 C2544 1.381 . S
C2546 C2547 1.394 . S
C2546 H2554 0.930 . S
C2547 C2546 1.394 . S
C2547 C2548 1.383 . S
C2547 H2555 0.929 . S
C2548 C2547 1.383 . S
C2548 C2549 1.377 . S
C2549 H2533 0.930 . S
C2549 C2548 1.377 . S
C2549 C2550 1.379 . S
C2550 H2534 0.931 . S
C2550 C2544 1.383 . S
C2550 C2549 1.379 . S
H2551 C2545 0.959 . S
H2552 C2545 0.961 . S
H2553 C2545 0.960 . S
H2554 C2546 0.930 . S
H2555 C2547 0.929 . S
H2556 C2564 0.929 . S
H2557 C2566 0.930 . S
H2558 C2568 0.930 . S
H2559 C2571 0.929 . S
H2560 C2574 0.930 . S
H2561 C2576 0.960 . S
H2562 C2576 0.960 . S
H2563 C2576 0.960 . S
C2564 H2556 0.929 . S
C2564 C2565 1.377 . S
C2564 C2566 1.384 . S
C2565 C2564 1.377 . S
C2565 C2571 1.390 . S
C2566 H2557 0.930 . S
C2566 C2564 1.384 . S
C2566 C2567 1.372 . S
C2567 C2566 1.372 . S
C2567 C2568 1.400 . S
C2567 C2572 1.490 . S
C2568 H2558 0.930 . S
C2568 C2567 1.400 . S
C2568 C2571 1.386 . S
H2569 C2585 0.930 . S
H2570 C2586 0.931 . S
C2571 H2559 0.929 . S
C2571 C2565 1.390 . S
C2571 C2568 1.386 . S
C2572 C2567 1.490 . S
C2572 C2574 1.395 . S
C2572 C2575 1.403 . S
H2573 C2579 0.930 . S
C2574 H2560 0.930 . S
C2574 C2572 1.395 . S
C2574 C2577 1.403 . S
C2575 C2572 1.403 . S
C2575 C2576 1.524 . S
C2575 C2579 1.400 . S
C2576 H2561 0.960 . S
C2576 H2562 0.960 . S
C2576 H2563 0.960 . S
C2576 C2575 1.524 . S
C2577 C2574 1.403 . S
C2577 C2578 1.392 . S
C2577 C2581 1.495 . S
C2578 C2577 1.392 . S
C2578 C2579 1.385 . S
C2578 C2580 1.478 . S
C2579 H2573 0.930 . S
C2579 C2575 1.400 . S
C2579 C2578 1.385 . S
C2580 C2578 1.478 . S
C2580 C2582 1.381 . S
C2580 C2586 1.383 . S
C2581 C2577 1.495 . S
C2581 H2587 0.959 . S
C2581 H2588 0.961 . S
C2581 H2589 0.960 . S
C2582 C2580 1.381 . S
C2582 C2583 1.394 . S
C2582 H2590 0.930 . S
C2583 C2582 1.394 . S
C2583 C2584 1.383 . S
C2583 H2591 0.929 . S
C2584 C2583 1.383 . S
C2584 C2585 1.377 . S
C2585 H2569 0.930 . S
C2585 C2584 1.377 . S
C2585 C2586 1.379 . S
C2586 H2570 0.931 . S
C2586 C2580 1.383 . S
C2586 C2585 1.379 . S
H2587 C2581 0.959 . S
H2588 C2581 0.961 . S
H2589 C2581 0.960 . S
H2590 C2582 0.930 . S
H2591 C2583 0.929 . S
H2592 C2600 0.929 . S
H2593 C2602 0.930 . S
H2594 C2604 0.930 . S
H2595 C2607 0.929 . S
H2596 C2610 0.930 . S
H2597 C2612 0.960 . S
H2598 C2612 0.960 . S
H2599 C2612 0.960 . S
C2600 H2592 0.929 . S
C2600 C2601 1.377 . S
C2600 C2602 1.384 . S
C2601 C2600 1.377 . S
C2601 C2607 1.390 . S
C2602 H2593 0.930 . S
C2602 C2600 1.384 . S
C2602 C2603 1.372 . S
C2603 C2602 1.372 . S
C2603 C2604 1.400 . S
C2603 C2608 1.490 . S
C2604 H2594 0.930 . S
C2604 C2603 1.400 . S
C2604 C2607 1.386 . S
H2605 C2621 0.930 . S
H2606 C2622 0.931 . S
C2607 H2595 0.929 . S
C2607 C2601 1.390 . S
C2607 C2604 1.386 . S
C2608 C2603 1.490 . S
C2608 C2610 1.395 . S
C2608 C2611 1.403 . S
H2609 C2615 0.930 . S
C2610 H2596 0.930 . S
C2610 C2608 1.395 . S
C2610 C2613 1.403 . S
C2611 C2608 1.403 . S
C2611 C2612 1.524 . S
C2611 C2615 1.400 . S
C2612 H2597 0.960 . S
C2612 H2598 0.960 . S
C2612 H2599 0.960 . S
C2612 C2611 1.524 . S
C2613 C2610 1.403 . S
C2613 C2614 1.392 . S
C2613 C2617 1.495 . S
C2614 C2613 1.392 . S
C2614 C2615 1.385 . S
C2614 C2616 1.478 . S
C2615 H2609 0.930 . S
C2615 C2611 1.400 . S
C2615 C2614 1.385 . S
C2616 C2614 1.478 . S
C2616 C2618 1.381 . S
C2616 C2622 1.383 . S
C2617 C2613 1.495 . S
C2617 H2623 0.959 . S
C2617 H2624 0.961 . S
C2617 H2625 0.960 . S
C2618 C2616 1.381 . S
C2618 C2619 1.394 . S
C2618 H2626 0.930 . S
C2619 C2618 1.394 . S
C2619 C2620 1.383 . S
C2619 H2627 0.929 . S
C2620 C2619 1.383 . S
C2620 C2621 1.377 . S
C2621 H2605 0.930 . S
C2621 C2620 1.377 . S
C2621 C2622 1.379 . S
C2622 H2606 0.931 . S
C2622 C2616 1.383 . S
C2622 C2621 1.379 . S
H2623 C2617 0.959 . S
H2624 C2617 0.961 . S
H2625 C2617 0.960 . S
H2626 C2618 0.930 . S
H2627 C2619 0.929 . S
H2628 C2636 0.929 . S
H2629 C2638 0.930 . S
H2630 C2640 0.930 . S
H2631 C2643 0.929 . S
H2632 C2646 0.930 . S
H2633 C2648 0.960 . S
H2634 C2648 0.960 . S
H2635 C2648 0.960 . S
C2636 H2628 0.929 . S
C2636 C2637 1.377 . S
C2636 C2638 1.384 . S
C2637 C2636 1.377 . S
C2637 C2643 1.390 . S
C2638 H2629 0.930 . S
C2638 C2636 1.384 . S
C2638 C2639 1.372 . S
C2639 C2638 1.372 . S
C2639 C2640 1.400 . S
C2639 C2644 1.490 . S
C2640 H2630 0.930 . S
C2640 C2639 1.400 . S
C2640 C2643 1.386 . S
H2641 C2657 0.930 . S
H2642 C2658 0.931 . S
C2643 H2631 0.929 . S
C2643 C2637 1.390 . S
C2643 C2640 1.386 . S
C2644 C2639 1.490 . S
C2644 C2646 1.395 . S
C2644 C2647 1.403 . S
H2645 C2651 0.930 . S
C2646 H2632 0.930 . S
C2646 C2644 1.395 . S
C2646 C2649 1.403 . S
C2647 C2644 1.403 . S
C2647 C2648 1.524 . S
C2647 C2651 1.400 . S
C2648 H2633 0.960 . S
C2648 H2634 0.960 . S
C2648 H2635 0.960 . S
C2648 C2647 1.524 . S
C2649 C2646 1.403 . S
C2649 C2650 1.392 . S
C2649 C2653 1.495 . S
C2650 C2649 1.392 . S
C2650 C2651 1.385 . S
C2650 C2652 1.478 . S
C2651 H2645 0.930 . S
C2651 C2647 1.400 . S
C2651 C2650 1.385 . S
C2652 C2650 1.478 . S
C2652 C2654 1.381 . S
C2652 C2658 1.383 . S
C2653 C2649 1.495 . S
C2653 H2659 0.959 . S
C2653 H2660 0.961 . S
C2653 H2661 0.960 . S
C2654 C2652 1.381 . S
C2654 C2655 1.394 . S
C2654 H2662 0.930 . S
C2655 C2654 1.394 . S
C2655 C2656 1.383 . S
C2655 H2663 0.929 . S
C2656 C2655 1.383 . S
C2656 C2657 1.377 . S
C2657 H2641 0.930 . S
C2657 C2656 1.377 . S
C2657 C2658 1.379 . S
C2658 H2642 0.931 . S
C2658 C2652 1.383 . S
C2658 C2657 1.379 . S
H2659 C2653 0.959 . S
H2660 C2653 0.961 . S
H2661 C2653 0.960 . S
H2662 C2654 0.930 . S
H2663 C2655 0.929 . S
H2664 C2672 0.929 . S
H2665 C2674 0.930 . S
H2666 C2676 0.930 . S
H2667 C2679 0.929 . S
H2668 C2682 0.930 . S
H2669 C2684 0.960 . S
H2670 C2684 0.960 . S
H2671 C2684 0.960 . S
C2672 H2664 0.929 . S
C2672 C2673 1.377 . S
C2672 C2674 1.384 . S
C2673 C2672 1.377 . S
C2673 C2679 1.390 . S
C2674 H2665 0.930 . S
C2674 C2672 1.384 . S
C2674 C2675 1.372 . S
C2675 C2674 1.372 . S
C2675 C2676 1.400 . S
C2675 C2680 1.490 . S
C2676 H2666 0.930 . S
C2676 C2675 1.400 . S
C2676 C2679 1.386 . S
H2677 C2693 0.930 . S
H2678 C2694 0.931 . S
C2679 H2667 0.929 . S
C2679 C2673 1.390 . S
C2679 C2676 1.386 . S
C2680 C2675 1.490 . S
C2680 C2682 1.395 . S
C2680 C2683 1.403 . S
H2681 C2687 0.930 . S
C2682 H2668 0.930 . S
C2682 C2680 1.395 . S
C2682 C2685 1.403 . S
C2683 C2680 1.403 . S
C2683 C2684 1.524 . S
C2683 C2687 1.400 . S
C2684 H2669 0.960 . S
C2684 H2670 0.960 . S
C2684 H2671 0.960 . S
C2684 C2683 1.524 . S
C2685 C2682 1.403 . S
C2685 C2686 1.392 . S
C2685 C2689 1.495 . S
C2686 C2685 1.392 . S
C2686 C2687 1.385 . S
C2686 C2688 1.478 . S
C2687 H2681 0.930 . S
C2687 C2683 1.400 . S
C2687 C2686 1.385 . S
C2688 C2686 1.478 . S
C2688 C2690 1.381 . S
C2688 C2694 1.383 . S
C2689 C2685 1.495 . S
C2689 H2695 0.959 . S
C2689 H2696 0.961 . S
C2689 H2697 0.960 . S
C2690 C2688 1.381 . S
C2690 C2691 1.394 . S
C2690 H2698 0.930 . S
C2691 C2690 1.394 . S
C2691 C2692 1.383 . S
C2691 H2699 0.929 . S
C2692 C2691 1.383 . S
C2692 C2693 1.377 . S
C2693 H2677 0.930 . S
C2693 C2692 1.377 . S
C2693 C2694 1.379 . S
C2694 H2678 0.931 . S
C2694 C2688 1.383 . S
C2694 C2693 1.379 . S
H2695 C2689 0.959 . S
H2696 C2689 0.961 . S
H2697 C2689 0.960 . S
H2698 C2690 0.930 . S
H2699 C2691 0.929 . S
H2700 C2708 0.929 . S
H2701 C2710 0.930 . S
H2702 C2712 0.930 . S
H2703 C2715 0.929 . S
H2704 C2718 0.930 . S
H2705 C2720 0.960 . S
H2706 C2720 0.960 . S
H2707 C2720 0.960 . S
C2708 H2700 0.929 . S
C2708 C2709 1.377 . S
C2708 C2710 1.384 . S
C2709 C2708 1.377 . S
C2709 C2715 1.390 . S
C2710 H2701 0.930 . S
C2710 C2708 1.384 . S
C2710 C2711 1.372 . S
C2711 C2710 1.372 . S
C2711 C2712 1.400 . S
C2711 C2716 1.490 . S
C2712 H2702 0.930 . S
C2712 C2711 1.400 . S
C2712 C2715 1.386 . S
H2713 C2729 0.930 . S
H2714 C2730 0.931 . S
C2715 H2703 0.929 . S
C2715 C2709 1.390 . S
C2715 C2712 1.386 . S
C2716 C2711 1.490 . S
C2716 C2718 1.395 . S
C2716 C2719 1.403 . S
H2717 C2723 0.930 . S
C2718 H2704 0.930 . S
C2718 C2716 1.395 . S
C2718 C2721 1.403 . S
C2719 C2716 1.403 . S
C2719 C2720 1.524 . S
C2719 C2723 1.400 . S
C2720 H2705 0.960 . S
C2720 H2706 0.960 . S
C2720 H2707 0.960 . S
C2720 C2719 1.524 . S
C2721 C2718 1.403 . S
C2721 C2722 1.392 . S
C2721 C2725 1.495 . S
C2722 C2721 1.392 . S
C2722 C2723 1.385 . S
C2722 C2724 1.478 . S
C2723 H2717 0.930 . S
C2723 C2719 1.400 . S
C2723 C2722 1.385 . S
C2724 C2722 1.478 . S
C2724 C2726 1.381 . S
C2724 C2730 1.383 . S
C2725 C2721 1.495 . S
C2725 H2731 0.959 . S
C2725 H2732 0.961 . S
C2725 H2733 0.960 . S
C2726 C2724 1.381 . S
C2726 C2727 1.394 . S
C2726 H2734 0.930 . S
C2727 C2726 1.394 . S
C2727 C2728 1.383 . S
C2727 H2735 0.929 . S
C2728 C2727 1.383 . S
C2728 C2729 1.377 . S
C2729 H2713 0.930 . S
C2729 C2728 1.377 . S
C2729 C2730 1.379 . S
C2730 H2714 0.931 . S
C2730 C2724 1.383 . S
C2730 C2729 1.379 . S
H2731 C2725 0.959 . S
H2732 C2725 0.961 . S
H2733 C2725 0.960 . S
H2734 C2726 0.930 . S
H2735 C2727 0.929 . S
H2736 C2744 0.929 . S
H2737 C2746 0.930 . S
H2738 C2748 0.930 . S
H2739 C2751 0.929 . S
H2740 C2754 0.930 . S
H2741 C2756 0.960 . S
H2742 C2756 0.960 . S
H2743 C2756 0.960 . S
C2744 H2736 0.929 . S
C2744 C2745 1.377 . S
C2744 C2746 1.384 . S
C2745 C2744 1.377 . S
C2745 C2751 1.390 . S
C2746 H2737 0.930 . S
C2746 C2744 1.384 . S
C2746 C2747 1.372 . S
C2747 C2746 1.372 . S
C2747 C2748 1.400 . S
C2747 C2752 1.490 . S
C2748 H2738 0.930 . S
C2748 C2747 1.400 . S
C2748 C2751 1.386 . S
H2749 C2765 0.930 . S
H2750 C2766 0.931 . S
C2751 H2739 0.929 . S
C2751 C2745 1.390 . S
C2751 C2748 1.386 . S
C2752 C2747 1.490 . S
C2752 C2754 1.395 . S
C2752 C2755 1.403 . S
H2753 C2759 0.930 . S
C2754 H2740 0.930 . S
C2754 C2752 1.395 . S
C2754 C2757 1.403 . S
C2755 C2752 1.403 . S
C2755 C2756 1.524 . S
C2755 C2759 1.400 . S
C2756 H2741 0.960 . S
C2756 H2742 0.960 . S
C2756 H2743 0.960 . S
C2756 C2755 1.524 . S
C2757 C2754 1.403 . S
C2757 C2758 1.392 . S
C2757 C2761 1.495 1_655 S
C2758 C2757 1.392 . S
C2758 C2759 1.385 . S
C2758 C2760 1.478 . S
C2759 H2753 0.930 . S
C2759 C2755 1.400 . S
C2759 C2758 1.385 . S
C2760 C2758 1.478 . S
C2760 C2762 1.381 . S
C2760 C2766 1.383 . S
C2761 C2757 1.495 1_455 S
C2761 H2767 0.959 . S
C2761 H2768 0.961 . S
C2761 H2769 0.960 . S
C2762 C2760 1.381 . S
C2762 C2763 1.394 . S
C2762 H2770 0.930 . S
C2763 C2762 1.394 . S
C2763 C2764 1.383 . S
C2763 H2771 0.929 . S
C2764 C2763 1.383 . S
C2764 C2765 1.377 . S
C2765 H2749 0.930 . S
C2765 C2764 1.377 . S
C2765 C2766 1.379 . S
C2766 H2750 0.931 . S
C2766 C2760 1.383 . S
C2766 C2765 1.379 . S
H2767 C2761 0.959 . S
H2768 C2761 0.961 . S
H2769 C2761 0.960 . S
H2770 C2762 0.930 . S
H2771 C2763 0.929 . S
H2772 C2780 0.929 . S
H2773 C2782 0.930 . S
H2774 C2784 0.930 . S
H2775 C2787 0.929 . S
H2776 C2790 0.930 . S
H2777 C2792 0.960 . S
H2778 C2792 0.960 . S
H2779 C2792 0.960 . S
C2780 H2772 0.929 . S
C2780 C2781 1.377 . S
C2780 C2782 1.384 . S
C2781 C2780 1.377 . S
C2781 C2787 1.390 . S
C2782 H2773 0.930 . S
C2782 C2780 1.384 . S
C2782 C2783 1.372 . S
C2783 C2782 1.372 . S
C2783 C2784 1.400 . S
C2783 C2788 1.490 . S
C2784 H2774 0.930 . S
C2784 C2783 1.400 . S
C2784 C2787 1.386 . S
H2785 C2801 0.930 . S
H2786 C2802 0.931 . S
C2787 H2775 0.929 . S
C2787 C2781 1.390 . S
C2787 C2784 1.386 . S
C2788 C2783 1.490 . S
C2788 C2790 1.395 . S
C2788 C2791 1.403 . S
H2789 C2795 0.930 . S
C2790 H2776 0.930 . S
C2790 C2788 1.395 . S
C2790 C2793 1.403 . S
C2791 C2788 1.403 . S
C2791 C2792 1.524 . S
C2791 C2795 1.400 . S
C2792 H2777 0.960 . S
C2792 H2778 0.960 . S
C2792 H2779 0.960 . S
C2792 C2791 1.524 . S
C2793 C2790 1.403 . S
C2793 C2794 1.392 . S
C2793 C2797 1.495 . S
C2794 C2793 1.392 . S
C2794 C2795 1.385 . S
C2794 C2796 1.478 . S
C2795 H2789 0.930 . S
C2795 C2791 1.400 . S
C2795 C2794 1.385 . S
C2796 C2794 1.478 . S
C2796 C2798 1.381 . S
C2796 C2802 1.383 . S
C2797 C2793 1.495 . S
C2797 H2803 0.959 . S
C2797 H2804 0.961 . S
C2797 H2805 0.960 . S
C2798 C2796 1.381 . S
C2798 C2799 1.394 . S
C2798 H2806 0.930 . S
C2799 C2798 1.394 . S
C2799 C2800 1.383 . S
C2799 H2807 0.929 . S
C2800 C2799 1.383 . S
C2800 C2801 1.377 . S
C2801 H2785 0.930 . S
C2801 C2800 1.377 . S
C2801 C2802 1.379 . S
C2802 H2786 0.931 . S
C2802 C2796 1.383 . S
C2802 C2801 1.379 . S
H2803 C2797 0.959 . S
H2804 C2797 0.961 . S
H2805 C2797 0.960 . S
H2806 C2798 0.930 . S
H2807 C2799 0.929 . S
H2808 C2816 0.929 . S
H2809 C2818 0.930 . S
H2810 C2820 0.930 . S
H2811 C2823 0.929 . S
H2812 C2826 0.930 . S
H2813 C2828 0.960 . S
H2814 C2828 0.960 . S
H2815 C2828 0.960 . S
C2816 H2808 0.929 . S
C2816 C2817 1.377 . S
C2816 C2818 1.384 . S
C2817 C2816 1.377 . S
C2817 C2823 1.390 . S
C2818 H2809 0.930 . S
C2818 C2816 1.384 . S
C2818 C2819 1.372 . S
C2819 C2818 1.372 . S
C2819 C2820 1.400 . S
C2819 C2824 1.490 . S
C2820 H2810 0.930 . S
C2820 C2819 1.400 . S
C2820 C2823 1.386 . S
H2821 C2837 0.930 . S
H2822 C2838 0.931 . S
C2823 H2811 0.929 . S
C2823 C2817 1.390 . S
C2823 C2820 1.386 . S
C2824 C2819 1.490 . S
C2824 C2826 1.395 . S
C2824 C2827 1.403 . S
H2825 C2831 0.930 . S
C2826 H2812 0.930 . S
C2826 C2824 1.395 . S
C2826 C2829 1.403 . S
C2827 C2824 1.403 . S
C2827 C2828 1.524 . S
C2827 C2831 1.400 . S
C2828 H2813 0.960 . S
C2828 H2814 0.960 . S
C2828 H2815 0.960 . S
C2828 C2827 1.524 . S
C2829 C2826 1.403 . S
C2829 C2830 1.392 . S
C2829 C2833 1.495 . S
C2830 C2829 1.392 . S
C2830 C2831 1.385 . S
C2830 C2832 1.478 . S
C2831 H2825 0.930 . S
C2831 C2827 1.400 . S
C2831 C2830 1.385 . S
C2832 C2830 1.478 . S
C2832 C2834 1.381 . S
C2832 C2838 1.383 . S
C2833 C2829 1.495 . S
C2833 H2839 0.959 . S
C2833 H2840 0.961 . S
C2833 H2841 0.960 . S
C2834 C2832 1.381 . S
C2834 C2835 1.394 . S
C2834 H2842 0.930 . S
C2835 C2834 1.394 . S
C2835 C2836 1.383 . S
C2835 H2843 0.929 . S
C2836 C2835 1.383 . S
C2836 C2837 1.377 . S
C2837 H2821 0.930 . S
C2837 C2836 1.377 . S
C2837 C2838 1.379 . S
C2838 H2822 0.931 . S
C2838 C2832 1.383 . S
C2838 C2837 1.379 . S
H2839 C2833 0.959 . S
H2840 C2833 0.961 . S
H2841 C2833 0.960 . S
H2842 C2834 0.930 . S
H2843 C2835 0.929 . S
H2844 C2852 0.929 . S
H2845 C2854 0.930 . S
H2846 C2856 0.930 . S
H2847 C2859 0.929 . S
H2848 C2862 0.930 . S
H2849 C2864 0.960 . S
H2850 C2864 0.960 . S
H2851 C2864 0.960 . S
C2852 H2844 0.929 . S
C2852 C2853 1.377 . S
C2852 C2854 1.384 . S
C2853 C2852 1.377 . S
C2853 C2859 1.390 . S
C2854 H2845 0.930 . S
C2854 C2852 1.384 . S
C2854 C2855 1.372 . S
C2855 C2854 1.372 . S
C2855 C2856 1.400 . S
C2855 C2860 1.490 . S
C2856 H2846 0.930 . S
C2856 C2855 1.400 . S
C2856 C2859 1.386 . S
H2857 C2873 0.930 . S
H2858 C2874 0.931 . S
C2859 H2847 0.929 . S
C2859 C2853 1.390 . S
C2859 C2856 1.386 . S
C2860 C2855 1.490 . S
C2860 C2862 1.395 . S
C2860 C2863 1.403 . S
H2861 C2867 0.930 . S
C2862 H2848 0.930 . S
C2862 C2860 1.395 . S
C2862 C2865 1.403 . S
C2863 C2860 1.403 . S
C2863 C2864 1.524 . S
C2863 C2867 1.400 . S
C2864 H2849 0.960 . S
C2864 H2850 0.960 . S
C2864 H2851 0.960 . S
C2864 C2863 1.524 . S
C2865 C2862 1.403 . S
C2865 C2866 1.392 . S
C2865 C2869 1.495 . S
C2866 C2865 1.392 . S
C2866 C2867 1.385 . S
C2866 C2868 1.478 . S
C2867 H2861 0.930 . S
C2867 C2863 1.400 . S
C2867 C2866 1.385 . S
C2868 C2866 1.478 . S
C2868 C2870 1.381 . S
C2868 C2874 1.383 . S
C2869 C2865 1.495 . S
C2869 H2875 0.959 . S
C2869 H2876 0.961 . S
C2869 H2877 0.960 . S
C2870 C2868 1.381 . S
C2870 C2871 1.394 . S
C2870 H2878 0.930 . S
C2871 C2870 1.394 . S
C2871 C2872 1.383 . S
C2871 H2879 0.929 . S
C2872 C2871 1.383 . S
C2872 C2873 1.377 . S
C2873 H2857 0.930 . S
C2873 C2872 1.377 . S
C2873 C2874 1.379 . S
C2874 H2858 0.931 . S
C2874 C2868 1.383 . S
C2874 C2873 1.379 . S
H2875 C2869 0.959 . S
H2876 C2869 0.961 . S
H2877 C2869 0.960 . S
H2878 C2870 0.930 . S
H2879 C2871 0.929 . S
H2880 C2888 0.929 . S
H2881 C2890 0.930 . S
H2882 C2892 0.930 . S
H2883 C2895 0.929 . S
H2884 C2898 0.930 . S
H2885 C2900 0.960 . S
H2886 C2900 0.960 . S
H2887 C2900 0.960 . S
C2888 H2880 0.929 . S
C2888 C2889 1.377 . S
C2888 C2890 1.384 . S
C2889 C2888 1.377 . S
C2889 C2895 1.390 . S
C2890 H2881 0.930 . S
C2890 C2888 1.384 . S
C2890 C2891 1.372 . S
C2891 C2890 1.372 . S
C2891 C2892 1.400 . S
C2891 C2896 1.490 . S
C2892 H2882 0.930 . S
C2892 C2891 1.400 . S
C2892 C2895 1.386 . S
H2893 C2909 0.930 . S
H2894 C2910 0.931 . S
C2895 H2883 0.929 . S
C2895 C2889 1.390 . S
C2895 C2892 1.386 . S
C2896 C2891 1.490 . S
C2896 C2898 1.395 . S
C2896 C2899 1.403 . S
H2897 C2903 0.930 . S
C2898 H2884 0.930 . S
C2898 C2896 1.395 . S
C2898 C2901 1.403 . S
C2899 C2896 1.403 . S
C2899 C2900 1.524 . S
C2899 C2903 1.400 . S
C2900 H2885 0.960 . S
C2900 H2886 0.960 . S
C2900 H2887 0.960 . S
C2900 C2899 1.524 . S
C2901 C2898 1.403 . S
C2901 C2902 1.392 . S
C2901 C2905 1.495 . S
C2902 C2901 1.392 . S
C2902 C2903 1.385 . S
C2902 C2904 1.478 . S
C2903 H2897 0.930 . S
C2903 C2899 1.400 . S
C2903 C2902 1.385 . S
C2904 C2902 1.478 . S
C2904 C2906 1.381 . S
C2904 C2910 1.383 . S
C2905 C2901 1.495 . S
C2905 H2911 0.959 . S
C2905 H2912 0.961 . S
C2905 H2913 0.960 . S
C2906 C2904 1.381 . S
C2906 C2907 1.394 . S
C2906 H2914 0.930 . S
C2907 C2906 1.394 . S
C2907 C2908 1.383 . S
C2907 H2915 0.929 . S
C2908 C2907 1.383 . S
C2908 C2909 1.377 . S
C2909 H2893 0.930 . S
C2909 C2908 1.377 . S
C2909 C2910 1.379 . S
C2910 H2894 0.931 . S
C2910 C2904 1.383 . S
C2910 C2909 1.379 . S
H2911 C2905 0.959 . S
H2912 C2905 0.961 . S
H2913 C2905 0.960 . S
H2914 C2906 0.930 . S
H2915 C2907 0.929 . S
H2916 C2924 0.929 . S
H2917 C2926 0.930 . S
H2918 C2928 0.930 . S
H2919 C2931 0.929 . S
H2920 C2934 0.930 . S
H2921 C2936 0.960 . S
H2922 C2936 0.960 . S
H2923 C2936 0.960 . S
C2924 H2916 0.929 . S
C2924 C2925 1.377 . S
C2924 C2926 1.384 . S
C2925 C2924 1.377 . S
C2925 C2931 1.390 . S
C2926 H2917 0.930 . S
C2926 C2924 1.384 . S
C2926 C2927 1.372 . S
C2927 C2926 1.372 . S
C2927 C2928 1.400 . S
C2927 C2932 1.490 . S
C2928 H2918 0.930 . S
C2928 C2927 1.400 . S
C2928 C2931 1.386 . S
H2929 C2945 0.930 . S
H2930 C2946 0.931 . S
C2931 H2919 0.929 . S
C2931 C2925 1.390 . S
C2931 C2928 1.386 . S
C2932 C2927 1.490 . S
C2932 C2934 1.395 . S
C2932 C2935 1.403 . S
H2933 C2939 0.930 . S
C2934 H2920 0.930 . S
C2934 C2932 1.395 . S
C2934 C2937 1.403 . S
C2935 C2932 1.403 . S
C2935 C2936 1.524 . S
C2935 C2939 1.400 . S
C2936 H2921 0.960 . S
C2936 H2922 0.960 . S
C2936 H2923 0.960 . S
C2936 C2935 1.524 . S
C2937 C2934 1.403 . S
C2937 C2938 1.392 . S
C2937 C2941 1.495 . S
C2938 C2937 1.392 . S
C2938 C2939 1.385 . S
C2938 C2940 1.478 . S
C2939 H2933 0.930 . S
C2939 C2935 1.400 . S
C2939 C2938 1.385 . S
C2940 C2938 1.478 . S
C2940 C2942 1.381 . S
C2940 C2946 1.383 . S
C2941 C2937 1.495 . S
C2941 H2947 0.959 . S
C2941 H2948 0.961 . S
C2941 H2949 0.960 . S
C2942 C2940 1.381 . S
C2942 C2943 1.394 . S
C2942 H2950 0.930 . S
C2943 C2942 1.394 . S
C2943 C2944 1.383 . S
C2943 H2951 0.929 . S
C2944 C2943 1.383 . S
C2944 C2945 1.377 . S
C2945 H2929 0.930 . S
C2945 C2944 1.377 . S
C2945 C2946 1.379 . S
C2946 H2930 0.931 . S
C2946 C2940 1.383 . S
C2946 C2945 1.379 . S
H2947 C2941 0.959 . S
H2948 C2941 0.961 . S
H2949 C2941 0.960 . S
H2950 C2942 0.930 . S
H2951 C2943 0.929 . S
H2952 C2960 0.929 . S
H2953 C2962 0.930 . S
H2954 C2964 0.930 . S
H2955 C2967 0.929 . S
H2956 C2970 0.930 . S
H2957 C2972 0.960 . S
H2958 C2972 0.960 . S
H2959 C2972 0.960 . S
C2960 H2952 0.929 . S
C2960 C2961 1.377 . S
C2960 C2962 1.384 . S
C2961 C2960 1.377 . S
C2961 C2967 1.390 . S
C2962 H2953 0.930 . S
C2962 C2960 1.384 . S
C2962 C2963 1.372 . S
C2963 C2962 1.372 . S
C2963 C2964 1.400 . S
C2963 C2968 1.490 . S
C2964 H2954 0.930 . S
C2964 C2963 1.400 . S
C2964 C2967 1.386 . S
H2965 C2981 0.930 . S
H2966 C2982 0.931 . S
C2967 H2955 0.929 . S
C2967 C2961 1.390 . S
C2967 C2964 1.386 . S
C2968 C2963 1.490 . S
C2968 C2970 1.395 . S
C2968 C2971 1.403 . S
H2969 C2975 0.930 . S
C2970 H2956 0.930 . S
C2970 C2968 1.395 . S
C2970 C2973 1.403 . S
C2971 C2968 1.403 . S
C2971 C2972 1.524 . S
C2971 C2975 1.400 . S
C2972 H2957 0.960 . S
C2972 H2958 0.960 . S
C2972 H2959 0.960 . S
C2972 C2971 1.524 . S
C2973 C2970 1.403 . S
C2973 C2974 1.392 . S
C2973 C2977 1.495 . S
C2974 C2973 1.392 . S
C2974 C2975 1.385 . S
C2974 C2976 1.478 . S
C2975 H2969 0.930 . S
C2975 C2971 1.400 . S
C2975 C2974 1.385 . S
C2976 C2974 1.478 . S
C2976 C2978 1.381 . S
C2976 C2982 1.383 . S
C2977 C2973 1.495 . S
C2977 H2983 0.959 . S
C2977 H2984 0.961 . S
C2977 H2985 0.960 . S
C2978 C2976 1.381 . S
C2978 C2979 1.394 . S
C2978 H2986 0.930 . S
C2979 C2978 1.394 . S
C2979 C2980 1.383 . S
C2979 H2987 0.929 . S
C2980 C2979 1.383 . S
C2980 C2981 1.377 . S
C2981 H2965 0.930 . S
C2981 C2980 1.377 . S
C2981 C2982 1.379 . S
C2982 H2966 0.931 . S
C2982 C2976 1.383 . S
C2982 C2981 1.379 . S
H2983 C2977 0.959 . S
H2984 C2977 0.961 . S
H2985 C2977 0.960 . S
H2986 C2978 0.930 . S
H2987 C2979 0.929 . S
H2988 C2996 0.929 . S
H2989 C2998 0.930 . S
H2990 C3000 0.930 . S
H2991 C3003 0.929 . S
H2992 C3006 0.930 . S
H2993 C3008 0.960 . S
H2994 C3008 0.960 . S
H2995 C3008 0.960 . S
C2996 H2988 0.929 . S
C2996 C2997 1.377 . S
C2996 C2998 1.384 . S
C2997 C2996 1.377 . S
C2997 C3003 1.390 . S
C2998 H2989 0.930 . S
C2998 C2996 1.384 . S
C2998 C2999 1.372 . S
C2999 C2998 1.372 . S
C2999 C3000 1.400 . S
C2999 C3004 1.490 . S
C3000 H2990 0.930 . S
C3000 C2999 1.400 . S
C3000 C3003 1.386 . S
H3001 C3017 0.930 . S
H3002 C3018 0.931 . S
C3003 H2991 0.929 . S
C3003 C2997 1.390 . S
C3003 C3000 1.386 . S
C3004 C2999 1.490 . S
C3004 C3006 1.395 . S
C3004 C3007 1.403 . S
H3005 C3011 0.930 . S
C3006 H2992 0.930 . S
C3006 C3004 1.395 . S
C3006 C3009 1.403 . S
C3007 C3004 1.403 . S
C3007 C3008 1.524 . S
C3007 C3011 1.400 . S
C3008 H2993 0.960 . S
C3008 H2994 0.960 . S
C3008 H2995 0.960 . S
C3008 C3007 1.524 . S
C3009 C3006 1.403 . S
C3009 C3010 1.392 . S
C3009 C3013 1.495 . S
C3010 C3009 1.392 . S
C3010 C3011 1.385 . S
C3010 C3012 1.478 . S
C3011 H3005 0.930 . S
C3011 C3007 1.400 . S
C3011 C3010 1.385 . S
C3012 C3010 1.478 . S
C3012 C3014 1.381 . S
C3012 C3018 1.383 . S
C3013 C3009 1.495 . S
C3013 H3019 0.959 . S
C3013 H3020 0.961 . S
C3013 H3021 0.960 . S
C3014 C3012 1.381 . S
C3014 C3015 1.394 . S
C3014 H3022 0.930 . S
C3015 C3014 1.394 . S
C3015 C3016 1.383 . S
C3015 H3023 0.929 . S
C3016 C3015 1.383 . S
C3016 C3017 1.377 . S
C3017 H3001 0.930 . S
C3017 C3016 1.377 . S
C3017 C3018 1.379 . S
C3018 H3002 0.931 . S
C3018 C3012 1.383 . S
C3018 C3017 1.379 . S
H3019 C3013 0.959 . S
H3020 C3013 0.961 . S
H3021 C3013 0.960 . S
H3022 C3014 0.930 . S
H3023 C3015 0.929 . S
H3024 C3032 0.929 . S
H3025 C3034 0.930 . S
H3026 C3036 0.930 . S
H3027 C3039 0.929 . S
H3028 C3042 0.930 . S
H3029 C3044 0.960 . S
H3030 C3044 0.960 . S
H3031 C3044 0.960 . S
C3032 H3024 0.929 . S
C3032 C3033 1.377 . S
C3032 C3034 1.384 . S
C3033 C3032 1.377 . S
C3033 C3039 1.390 . S
C3034 H3025 0.930 . S
C3034 C3032 1.384 . S
C3034 C3035 1.372 . S
C3035 C3034 1.372 . S
C3035 C3036 1.400 . S
C3035 C3040 1.490 . S
C3036 H3026 0.930 . S
C3036 C3035 1.400 . S
C3036 C3039 1.386 . S
H3037 C3053 0.930 . S
H3038 C3054 0.931 . S
C3039 H3027 0.929 . S
C3039 C3033 1.390 . S
C3039 C3036 1.386 . S
C3040 C3035 1.490 . S
C3040 C3042 1.395 . S
C3040 C3043 1.403 . S
H3041 C3047 0.930 . S
C3042 H3028 0.930 . S
C3042 C3040 1.395 . S
C3042 C3045 1.403 . S
C3043 C3040 1.403 . S
C3043 C3044 1.524 . S
C3043 C3047 1.400 . S
C3044 H3029 0.960 . S
C3044 H3030 0.960 . S
C3044 H3031 0.960 . S
C3044 C3043 1.524 . S
C3045 C3042 1.403 . S
C3045 C3046 1.392 . S
C3045 C3049 1.495 . S
C3046 C3045 1.392 . S
C3046 C3047 1.385 . S
C3046 C3048 1.478 . S
C3047 H3041 0.930 . S
C3047 C3043 1.400 . S
C3047 C3046 1.385 . S
C3048 C3046 1.478 . S
C3048 C3050 1.381 . S
C3048 C3054 1.383 . S
C3049 C3045 1.495 . S
C3049 H3055 0.959 . S
C3049 H3056 0.961 . S
C3049 H3057 0.960 . S
C3050 C3048 1.381 . S
C3050 C3051 1.394 . S
C3050 H3058 0.930 . S
C3051 C3050 1.394 . S
C3051 C3052 1.383 . S
C3051 H3059 0.929 . S
C3052 C3051 1.383 . S
C3052 C3053 1.377 . S
C3053 H3037 0.930 . S
C3053 C3052 1.377 . S
C3053 C3054 1.379 . S
C3054 H3038 0.931 . S
C3054 C3048 1.383 . S
C3054 C3053 1.379 . S
H3055 C3049 0.959 . S
H3056 C3049 0.961 . S
H3057 C3049 0.960 . S
H3058 C3050 0.930 . S
H3059 C3051 0.929 . S
H3060 C3068 0.929 . S
H3061 C3070 0.930 . S
H3062 C3072 0.930 . S
H3063 C3075 0.929 . S
H3064 C3078 0.930 . S
H3065 C3080 0.960 . S
H3066 C3080 0.960 . S
H3067 C3080 0.960 . S
C3068 H3060 0.929 . S
C3068 C3069 1.377 . S
C3068 C3070 1.384 . S
C3069 C3068 1.377 . S
C3069 C3075 1.390 . S
C3070 H3061 0.930 . S
C3070 C3068 1.384 . S
C3070 C3071 1.372 . S
C3071 C3070 1.372 . S
C3071 C3072 1.400 . S
C3071 C3076 1.490 . S
C3072 H3062 0.930 . S
C3072 C3071 1.400 . S
C3072 C3075 1.386 . S
H3073 C3089 0.930 . S
H3074 C3090 0.931 . S
C3075 H3063 0.929 . S
C3075 C3069 1.390 . S
C3075 C3072 1.386 . S
C3076 C3071 1.490 . S
C3076 C3078 1.395 . S
C3076 C3079 1.403 . S
H3077 C3083 0.930 . S
C3078 H3064 0.930 . S
C3078 C3076 1.395 . S
C3078 C3081 1.403 . S
C3079 C3076 1.403 . S
C3079 C3080 1.524 . S
C3079 C3083 1.400 . S
C3080 H3065 0.960 . S
C3080 H3066 0.960 . S
C3080 H3067 0.960 . S
C3080 C3079 1.524 . S
C3081 C3078 1.403 . S
C3081 C3082 1.392 . S
C3081 C3085 1.495 . S
C3082 C3081 1.392 . S
C3082 C3083 1.385 . S
C3082 C3084 1.478 . S
C3083 H3077 0.930 . S
C3083 C3079 1.400 . S
C3083 C3082 1.385 . S
C3084 C3082 1.478 . S
C3084 C3086 1.381 . S
C3084 C3090 1.383 . S
C3085 C3081 1.495 . S
C3085 H3091 0.959 . S
C3085 H3092 0.961 . S
C3085 H3093 0.960 . S
C3086 C3084 1.381 . S
C3086 C3087 1.394 . S
C3086 H3094 0.930 . S
C3087 C3086 1.394 . S
C3087 C3088 1.383 . S
C3087 H3095 0.929 . S
C3088 C3087 1.383 . S
C3088 C3089 1.377 . S
C3089 H3073 0.930 . S
C3089 C3088 1.377 . S
C3089 C3090 1.379 . S
C3090 H3074 0.931 . S
C3090 C3084 1.383 . S
C3090 C3089 1.379 . S
H3091 C3085 0.959 . S
H3092 C3085 0.961 . S
H3093 C3085 0.960 . S
H3094 C3086 0.930 . S
H3095 C3087 0.929 . S
H3096 C3104 0.929 . S
H3097 C3106 0.930 . S
H3098 C3108 0.930 . S
H3099 C3111 0.929 . S
H3100 C3114 0.930 . S
H3101 C3116 0.960 . S
H3102 C3116 0.960 . S
H3103 C3116 0.960 . S
C3104 H3096 0.929 . S
C3104 C3105 1.377 . S
C3104 C3106 1.384 . S
C3105 C3104 1.377 . S
C3105 C3111 1.390 . S
C3106 H3097 0.930 . S
C3106 C3104 1.384 . S
C3106 C3107 1.372 . S
C3107 C3106 1.372 . S
C3107 C3108 1.400 . S
C3107 C3112 1.490 . S
C3108 H3098 0.930 . S
C3108 C3107 1.400 . S
C3108 C3111 1.386 . S
H3109 C3125 0.930 . S
H3110 C3126 0.931 . S
C3111 H3099 0.929 . S
C3111 C3105 1.390 . S
C3111 C3108 1.386 . S
C3112 C3107 1.490 . S
C3112 C3114 1.395 . S
C3112 C3115 1.403 . S
H3113 C3119 0.930 . S
C3114 H3100 0.930 . S
C3114 C3112 1.395 . S
C3114 C3117 1.403 . S
C3115 C3112 1.403 . S
C3115 C3116 1.524 . S
C3115 C3119 1.400 . S
C3116 H3101 0.960 . S
C3116 H3102 0.960 . S
C3116 H3103 0.960 . S
C3116 C3115 1.524 . S
C3117 C3114 1.403 . S
C3117 C3118 1.392 . S
C3117 C3121 1.495 . S
C3118 C3117 1.392 . S
C3118 C3119 1.385 . S
C3118 C3120 1.478 . S
C3119 H3113 0.930 . S
C3119 C3115 1.400 . S
C3119 C3118 1.385 . S
C3120 C3118 1.478 . S
C3120 C3122 1.381 . S
C3120 C3126 1.383 . S
C3121 C3117 1.495 . S
C3121 H3127 0.959 . S
C3121 H3128 0.961 . S
C3121 H3129 0.960 . S
C3122 C3120 1.381 . S
C3122 C3123 1.394 . S
C3122 H3130 0.930 . S
C3123 C3122 1.394 . S
C3123 C3124 1.383 . S
C3123 H3131 0.929 . S
C3124 C3123 1.383 . S
C3124 C3125 1.377 . S
C3125 H3109 0.930 . S
C3125 C3124 1.377 . S
C3125 C3126 1.379 . S
C3126 H3110 0.931 . S
C3126 C3120 1.383 . S
C3126 C3125 1.379 . S
H3127 C3121 0.959 . S
H3128 C3121 0.961 . S
H3129 C3121 0.960 . S
H3130 C3122 0.930 . S
H3131 C3123 0.929 . S
H3132 C3140 0.929 . S
H3133 C3142 0.930 . S
H3134 C3144 0.930 . S
H3135 C3147 0.929 . S
H3136 C3150 0.930 . S
H3137 C3152 0.960 . S
H3138 C3152 0.960 . S
H3139 C3152 0.960 . S
C3140 H3132 0.929 . S
C3140 C3141 1.377 . S
C3140 C3142 1.384 . S
C3141 C3140 1.377 . S
C3141 C3147 1.390 . S
C3142 H3133 0.930 . S
C3142 C3140 1.384 . S
C3142 C3143 1.372 . S
C3143 C3142 1.372 . S
C3143 C3144 1.400 . S
C3143 C3148 1.490 . S
C3144 H3134 0.930 . S
C3144 C3143 1.400 . S
C3144 C3147 1.386 . S
H3145 C3161 0.930 . S
H3146 C3162 0.931 . S
C3147 H3135 0.929 . S
C3147 C3141 1.390 . S
C3147 C3144 1.386 . S
C3148 C3143 1.490 . S
C3148 C3150 1.395 . S
C3148 C3151 1.403 . S
H3149 C3155 0.930 . S
C3150 H3136 0.930 . S
C3150 C3148 1.395 . S
C3150 C3153 1.403 . S
C3151 C3148 1.403 . S
C3151 C3152 1.524 . S
C3151 C3155 1.400 . S
C3152 H3137 0.960 . S
C3152 H3138 0.960 . S
C3152 H3139 0.960 . S
C3152 C3151 1.524 . S
C3153 C3150 1.403 . S
C3153 C3154 1.392 . S
C3153 C3157 1.495 . S
C3154 C3153 1.392 . S
C3154 C3155 1.385 . S
C3154 C3156 1.478 . S
C3155 H3149 0.930 . S
C3155 C3151 1.400 . S
C3155 C3154 1.385 . S
C3156 C3154 1.478 . S
C3156 C3158 1.381 . S
C3156 C3162 1.383 . S
C3157 C3153 1.495 . S
C3157 H3163 0.959 . S
C3157 H3164 0.961 . S
C3157 H3165 0.960 . S
C3158 C3156 1.381 . S
C3158 C3159 1.394 . S
C3158 H3166 0.930 . S
C3159 C3158 1.394 . S
C3159 C3160 1.383 . S
C3159 H3167 0.929 . S
C3160 C3159 1.383 . S
C3160 C3161 1.377 . S
C3161 H3145 0.930 . S
C3161 C3160 1.377 . S
C3161 C3162 1.379 . S
C3162 H3146 0.931 . S
C3162 C3156 1.383 . S
C3162 C3161 1.379 . S
H3163 C3157 0.959 . S
H3164 C3157 0.961 . S
H3165 C3157 0.960 . S
H3166 C3158 0.930 . S
H3167 C3159 0.929 . S
H3168 C3176 0.929 . S
H3169 C3178 0.930 . S
H3170 C3180 0.930 . S
H3171 C3183 0.929 . S
H3172 C3186 0.930 . S
H3173 C3188 0.960 . S
H3174 C3188 0.960 . S
H3175 C3188 0.960 . S
C3176 H3168 0.929 . S
C3176 C3177 1.377 . S
C3176 C3178 1.384 . S
C3177 C3176 1.377 . S
C3177 C3183 1.390 . S
C3178 H3169 0.930 . S
C3178 C3176 1.384 . S
C3178 C3179 1.372 . S
C3179 C3178 1.372 . S
C3179 C3180 1.400 . S
C3179 C3184 1.490 . S
C3180 H3170 0.930 . S
C3180 C3179 1.400 . S
C3180 C3183 1.386 . S
H3181 C3197 0.930 . S
H3182 C3198 0.931 . S
C3183 H3171 0.929 . S
C3183 C3177 1.390 . S
C3183 C3180 1.386 . S
C3184 C3179 1.490 . S
C3184 C3186 1.395 . S
C3184 C3187 1.403 . S
H3185 C3191 0.930 . S
C3186 H3172 0.930 . S
C3186 C3184 1.395 . S
C3186 C3189 1.403 . S
C3187 C3184 1.403 . S
C3187 C3188 1.524 . S
C3187 C3191 1.400 . S
C3188 H3173 0.960 . S
C3188 H3174 0.960 . S
C3188 H3175 0.960 . S
C3188 C3187 1.524 . S
C3189 C3186 1.403 . S
C3189 C3190 1.392 . S
C3189 C3193 1.495 . S
C3190 C3189 1.392 . S
C3190 C3191 1.385 . S
C3190 C3192 1.478 . S
C3191 H3185 0.930 . S
C3191 C3187 1.400 . S
C3191 C3190 1.385 . S
C3192 C3190 1.478 . S
C3192 C3194 1.381 . S
C3192 C3198 1.383 . S
C3193 C3189 1.495 . S
C3193 H3199 0.959 . S
C3193 H3200 0.961 . S
C3193 H3201 0.960 . S
C3194 C3192 1.381 . S
C3194 C3195 1.394 . S
C3194 H3202 0.930 . S
C3195 C3194 1.394 . S
C3195 C3196 1.383 . S
C3195 H3203 0.929 . S
C3196 C3195 1.383 . S
C3196 C3197 1.377 . S
C3197 H3181 0.930 . S
C3197 C3196 1.377 . S
C3197 C3198 1.379 . S
C3198 H3182 0.931 . S
C3198 C3192 1.383 . S
C3198 C3197 1.379 . S
H3199 C3193 0.959 . S
H3200 C3193 0.961 . S
H3201 C3193 0.960 . S
H3202 C3194 0.930 . S
H3203 C3195 0.929 . S
H3204 C3212 0.929 . S
H3205 C3214 0.930 . S
H3206 C3216 0.930 . S
H3207 C3219 0.929 . S
H3208 C3222 0.930 . S
H3209 C3224 0.960 . S
H3210 C3224 0.960 . S
H3211 C3224 0.960 . S
C3212 H3204 0.929 . S
C3212 C3213 1.377 . S
C3212 C3214 1.384 . S
C3213 C3212 1.377 . S
C3213 C3219 1.390 . S
C3214 H3205 0.930 . S
C3214 C3212 1.384 . S
C3214 C3215 1.372 . S
C3215 C3214 1.372 . S
C3215 C3216 1.400 . S
C3215 C3220 1.490 . S
C3216 H3206 0.930 . S
C3216 C3215 1.400 . S
C3216 C3219 1.386 . S
H3217 C3233 0.930 . S
H3218 C3234 0.931 . S
C3219 H3207 0.929 . S
C3219 C3213 1.390 . S
C3219 C3216 1.386 . S
C3220 C3215 1.490 . S
C3220 C3222 1.395 . S
C3220 C3223 1.403 . S
H3221 C3227 0.930 . S
C3222 H3208 0.930 . S
C3222 C3220 1.395 . S
C3222 C3225 1.403 . S
C3223 C3220 1.403 . S
C3223 C3224 1.524 . S
C3223 C3227 1.400 . S
C3224 H3209 0.960 . S
C3224 H3210 0.960 . S
C3224 H3211 0.960 . S
C3224 C3223 1.524 . S
C3225 C3222 1.403 . S
C3225 C3226 1.392 . S
C3225 C3229 1.495 . S
C3226 C3225 1.392 . S
C3226 C3227 1.385 . S
C3226 C3228 1.478 . S
C3227 H3221 0.930 . S
C3227 C3223 1.400 . S
C3227 C3226 1.385 . S
C3228 C3226 1.478 . S
C3228 C3230 1.381 . S
C3228 C3234 1.383 . S
C3229 C3225 1.495 . S
C3229 H3235 0.959 . S
C3229 H3236 0.961 . S
C3229 H3237 0.960 . S
C3230 C3228 1.381 . S
C3230 C3231 1.394 . S
C3230 H3238 0.930 . S
C3231 C3230 1.394 . S
C3231 C3232 1.383 . S
C3231 H3239 0.929 . S
C3232 C3231 1.383 . S
C3232 C3233 1.377 . S
C3233 H3217 0.930 . S
C3233 C3232 1.377 . S
C3233 C3234 1.379 . S
C3234 H3218 0.931 . S
C3234 C3228 1.383 . S
C3234 C3233 1.379 . S
H3235 C3229 0.959 . S
H3236 C3229 0.961 . S
H3237 C3229 0.960 . S
H3238 C3230 0.930 . S
H3239 C3231 0.929 . S
H3240 C3248 0.929 . S
H3241 C3250 0.930 . S
H3242 C3252 0.930 . S
H3243 C3255 0.929 . S
H3244 C3258 0.930 . S
H3245 C3260 0.960 . S
H3246 C3260 0.960 . S
H3247 C3260 0.960 . S
C3248 H3240 0.929 . S
C3248 C3249 1.377 . S
C3248 C3250 1.384 . S
C3249 C3248 1.377 . S
C3249 C3255 1.390 . S
C3250 H3241 0.930 . S
C3250 C3248 1.384 . S
C3250 C3251 1.372 . S
C3251 C3250 1.372 . S
C3251 C3252 1.400 . S
C3251 C3256 1.490 . S
C3252 H3242 0.930 . S
C3252 C3251 1.400 . S
C3252 C3255 1.386 . S
H3253 C3269 0.930 . S
H3254 C3270 0.931 . S
C3255 H3243 0.929 . S
C3255 C3249 1.390 . S
C3255 C3252 1.386 . S
C3256 C3251 1.490 . S
C3256 C3258 1.395 . S
C3256 C3259 1.403 . S
H3257 C3263 0.930 . S
C3258 H3244 0.930 . S
C3258 C3256 1.395 . S
C3258 C3261 1.403 . S
C3259 C3256 1.403 . S
C3259 C3260 1.524 . S
C3259 C3263 1.400 . S
C3260 H3245 0.960 . S
C3260 H3246 0.960 . S
C3260 H3247 0.960 . S
C3260 C3259 1.524 . S
C3261 C3258 1.403 . S
C3261 C3262 1.392 . S
C3261 C3265 1.495 . S
C3262 C3261 1.392 . S
C3262 C3263 1.385 . S
C3262 C3264 1.478 . S
C3263 H3257 0.930 . S
C3263 C3259 1.400 . S
C3263 C3262 1.385 . S
C3264 C3262 1.478 . S
C3264 C3266 1.381 . S
C3264 C3270 1.383 . S
C3265 C3261 1.495 . S
C3265 H3271 0.959 . S
C3265 H3272 0.961 . S
C3265 H3273 0.960 . S
C3266 C3264 1.381 . S
C3266 C3267 1.394 . S
C3266 H3274 0.930 . S
C3267 C3266 1.394 . S
C3267 C3268 1.383 . S
C3267 H3275 0.929 . S
C3268 C3267 1.383 . S
C3268 C3269 1.377 . S
C3269 H3253 0.930 . S
C3269 C3268 1.377 . S
C3269 C3270 1.379 . S
C3270 H3254 0.931 . S
C3270 C3264 1.383 . S
C3270 C3269 1.379 . S
H3271 C3265 0.959 . S
H3272 C3265 0.961 . S
H3273 C3265 0.960 . S
H3274 C3266 0.930 . S
H3275 C3267 0.929 . S
C1341 C439 1.328 . S
C1360 C643 1.326 . S
C1377 C465 1.490 . S
C1396 C727 1.395 . S
C1413 C401 1.441 . S
C1432 C807 1.389 . S
C1449 C369 1.396 . S
C1468 C723 1.341 . S
C1504 C811 1.353 . S
C1485 C305 1.425 . S
C1521 C343 1.292 . S
C1540 C639 1.286 . S
C1576 C632 1.322 . S
C1557 C375 1.405 . S
C1612 C716 1.418 . S
C1593 C311 1.451 . S
C1629 C337 1.400 . S
C1648 C818 1.419 . S
C1665 C433 1.370 . S
C1684 C734 1.388 . S
C1701 C471 1.383 . S
C1720 C800 1.354 . S
C1756 C650 1.360 . S
C1737 C407 1.369 . S
C1792 C895 1.262 . S
C1773 C55 1.332 . S
C1809 C81 1.489 . S
C1828 C979 1.395 . S
C1845 C17 1.442 . S
C1864 C1059 1.428 . S
C1881 C561 1.395 . S
C1900 C975 1.389 . S
C1917 C497 1.421 . S
C1936 C1063 1.321 . S
C1953 C535 1.290 . S
C1972 C891 1.321 . S
C1989 C567 1.407 . S
C2008 C884 1.303 . S
C2025 C503 1.453 . S
C2044 C968 1.382 . S
C2080 C1070 1.428 . S
C2061 C529 1.405 . S
C2097 C49 1.368 . S
C2116 C986 1.389 . S
C2152 C1052 1.344 . S
C2133 C87 1.385 . S
C2169 C23 1.373 . S
C2188 C902 1.325 . S
C2224 C1147 1.323 . S
C2205 C247 1.329 . S
C2241 C273 1.494 . S
C2260 C1231 1.453 . S
C2296 C1311 1.387 . S
C2277 C209 1.442 . S
C2332 C1227 1.342 . S
C2313 C177 1.397 . S
C2368 C1315 1.322 . S
C2349 C113 1.422 . S
C2385 C151 1.288 . S
C2404 C1143 1.318 . S
C2421 C183 1.405 . S
C2440 C1136 1.340 . S
C2457 C119 1.452 . S
C2476 C1220 1.398 . S
C2512 C1322 1.426 . S
C2493 C145 1.406 . S
C2529 C241 1.368 . S
C2548 C1238 1.346 . S
C2565 C279 1.389 . S
C2584 C1304 1.295 . S
C2601 C215 1.372 . S
C2620 C1154 1.310 . S
C2637 C509 1.424 . S
C2656 C646 1.368 . S
C2692 C730 1.351 . S
C2673 C541 1.432 . S
C2709 C573 1.445 . S
C2728 C802 1.316 . S
C2745 C221 1.486 . S
C2764 C718 1.312 . S
C2781 C253 1.399 . S
C2800 C814 1.316 . S
C2836 C634 1.358 . S
C2817 C285 1.421 . S
C2853 C125 1.430 . S
C2872 C898 1.291 . S
C2889 C157 1.431 . S
C2908 C982 1.344 . S
C2925 C189 1.437 . S
C2944 C1054 1.363 . S
C2961 C413 1.488 . S
C2980 C970 1.327 . S
C3016 C1066 1.313 . S
C2997 C445 1.403 . S
C3033 C477 1.429 . S
C3052 C886 1.334 . S
C3069 C317 1.425 . S
C3088 C1150 1.325 . S
C3105 C349 1.436 . S
C3124 C1234 1.372 . S
C3160 C1306 1.289 . S
C3141 C381 1.440 . S
C3177 C29 1.481 . S
C3196 C1222 1.387 . S
C3213 C61 1.404 . S
C3232 C1318 1.338 . S
C3249 C93 1.427 . S
C3268 C1138 1.288 . S
