# Generated by pormake.
# Topology ctn, (3,4)-cn, num edge types: 1
# Building blocks:
#     Node 0, Type 0, BuildingBlock: PAMTOO_clean_linker_0, # of connection points: 3
#     Node 1, Type 0, BuildingBlock: PAMTOO_clean_linker_0, # of connection points: 3
#     Node 2, Type 0, BuildingBlock: PAMTOO_clean_linker_0, # of connection points: 3
#     Node 3, Type 0, BuildingBlock: PAMTOO_clean_linker_0, # of connection points: 3
#     Node 4, Type 0, BuildingBlock: PAMTOO_clean_linker_0, # of connection points: 3
#     Node 5, Type 0, BuildingBlock: PAMTOO_clean_linker_0, # of connection points: 3
#     Node 6, Type 0, BuildingBlock: PAMTOO_clean_linker_0, # of connection points: 3
#     Node 7, Type 0, BuildingBlock: PAMTOO_clean_linker_0, # of connection points: 3
#     Node 8, Type 0, BuildingBlock: PAMTOO_clean_linker_0, # of connection points: 3
#     Node 9, Type 0, BuildingBlock: PAMTOO_clean_linker_0, # of connection points: 3
#     Node 10, Type 0, BuildingBlock: PAMTOO_clean_linker_0, # of connection points: 3
#     Node 11, Type 0, BuildingBlock: PAMTOO_clean_linker_0, # of connection points: 3
#     Node 12, Type 0, BuildingBlock: PAMTOO_clean_linker_0, # of connection points: 3
#     Node 13, Type 0, BuildingBlock: PAMTOO_clean_linker_0, # of connection points: 3
#     Node 14, Type 0, BuildingBlock: PAMTOO_clean_linker_0, # of connection points: 3
#     Node 15, Type 0, BuildingBlock: PAMTOO_clean_linker_0, # of connection points: 3
#     Node 16, Type 1, BuildingBlock: NAHDIM_clean_sbu_0, # of connection points: 4
#     Node 17, Type 1, BuildingBlock: NAHDIM_clean_sbu_0, # of connection points: 4
#     Node 18, Type 1, BuildingBlock: NAHDIM_clean_sbu_0, # of connection points: 4
#     Node 19, Type 1, BuildingBlock: NAHDIM_clean_sbu_0, # of connection points: 4
#     Node 20, Type 1, BuildingBlock: NAHDIM_clean_sbu_0, # of connection points: 4
#     Node 21, Type 1, BuildingBlock: NAHDIM_clean_sbu_0, # of connection points: 4
#     Node 22, Type 1, BuildingBlock: NAHDIM_clean_sbu_0, # of connection points: 4
#     Node 23, Type 1, BuildingBlock: NAHDIM_clean_sbu_0, # of connection points: 4
#     Node 24, Type 1, BuildingBlock: NAHDIM_clean_sbu_0, # of connection points: 4
#     Node 25, Type 1, BuildingBlock: NAHDIM_clean_sbu_0, # of connection points: 4
#     Node 26, Type 1, BuildingBlock: NAHDIM_clean_sbu_0, # of connection points: 4
#     Node 27, Type 1, BuildingBlock: NAHDIM_clean_sbu_0, # of connection points: 4
#     Edge 28, Type (0, 1), BuildingBlock: CIFDUS_clean_linker_0, # of connection points: 2
#     Edge 29, Type (0, 1), BuildingBlock: CIFDUS_clean_linker_0, # of connection points: 2
#     Edge 30, Type (0, 1), BuildingBlock: CIFDUS_clean_linker_0, # of connection points: 2
#     Edge 31, Type (0, 1), BuildingBlock: CIFDUS_clean_linker_0, # of connection points: 2
#     Edge 32, Type (0, 1), BuildingBlock: CIFDUS_clean_linker_0, # of connection points: 2
#     Edge 33, Type (0, 1), BuildingBlock: CIFDUS_clean_linker_0, # of connection points: 2
#     Edge 34, Type (0, 1), BuildingBlock: CIFDUS_clean_linker_0, # of connection points: 2
#     Edge 35, Type (0, 1), BuildingBlock: CIFDUS_clean_linker_0, # of connection points: 2
#     Edge 36, Type (0, 1), BuildingBlock: CIFDUS_clean_linker_0, # of connection points: 2
#     Edge 37, Type (0, 1), BuildingBlock: CIFDUS_clean_linker_0, # of connection points: 2
#     Edge 38, Type (0, 1), BuildingBlock: CIFDUS_clean_linker_0, # of connection points: 2
#     Edge 39, Type (0, 1), BuildingBlock: CIFDUS_clean_linker_0, # of connection points: 2
#     Edge 40, Type (0, 1), BuildingBlock: CIFDUS_clean_linker_0, # of connection points: 2
#     Edge 41, Type (0, 1), BuildingBlock: CIFDUS_clean_linker_0, # of connection points: 2
#     Edge 42, Type (0, 1), BuildingBlock: CIFDUS_clean_linker_0, # of connection points: 2
#     Edge 43, Type (0, 1), BuildingBlock: CIFDUS_clean_linker_0, # of connection points: 2
#     Edge 44, Type (0, 1), BuildingBlock: CIFDUS_clean_linker_0, # of connection points: 2
#     Edge 45, Type (0, 1), BuildingBlock: CIFDUS_clean_linker_0, # of connection points: 2
#     Edge 46, Type (0, 1), BuildingBlock: CIFDUS_clean_linker_0, # of connection points: 2
#     Edge 47, Type (0, 1), BuildingBlock: CIFDUS_clean_linker_0, # of connection points: 2
#     Edge 48, Type (0, 1), BuildingBlock: CIFDUS_clean_linker_0, # of connection points: 2
#     Edge 49, Type (0, 1), BuildingBlock: CIFDUS_clean_linker_0, # of connection points: 2
#     Edge 50, Type (0, 1), BuildingBlock: CIFDUS_clean_linker_0, # of connection points: 2
#     Edge 51, Type (0, 1), BuildingBlock: CIFDUS_clean_linker_0, # of connection points: 2
#     Edge 52, Type (0, 1), BuildingBlock: CIFDUS_clean_linker_0, # of connection points: 2
#     Edge 53, Type (0, 1), BuildingBlock: CIFDUS_clean_linker_0, # of connection points: 2
#     Edge 54, Type (0, 1), BuildingBlock: CIFDUS_clean_linker_0, # of connection points: 2
#     Edge 55, Type (0, 1), BuildingBlock: CIFDUS_clean_linker_0, # of connection points: 2
#     Edge 56, Type (0, 1), BuildingBlock: CIFDUS_clean_linker_0, # of connection points: 2
#     Edge 57, Type (0, 1), BuildingBlock: CIFDUS_clean_linker_0, # of connection points: 2
#     Edge 58, Type (0, 1), BuildingBlock: CIFDUS_clean_linker_0, # of connection points: 2
#     Edge 59, Type (0, 1), BuildingBlock: CIFDUS_clean_linker_0, # of connection points: 2
#     Edge 60, Type (0, 1), BuildingBlock: CIFDUS_clean_linker_0, # of connection points: 2
#     Edge 61, Type (0, 1), BuildingBlock: CIFDUS_clean_linker_0, # of connection points: 2
#     Edge 62, Type (0, 1), BuildingBlock: CIFDUS_clean_linker_0, # of connection points: 2
#     Edge 63, Type (0, 1), BuildingBlock: CIFDUS_clean_linker_0, # of connection points: 2
#     Edge 64, Type (0, 1), BuildingBlock: CIFDUS_clean_linker_0, # of connection points: 2
#     Edge 65, Type (0, 1), BuildingBlock: CIFDUS_clean_linker_0, # of connection points: 2
#     Edge 66, Type (0, 1), BuildingBlock: CIFDUS_clean_linker_0, # of connection points: 2
#     Edge 67, Type (0, 1), BuildingBlock: CIFDUS_clean_linker_0, # of connection points: 2
#     Edge 68, Type (0, 1), BuildingBlock: CIFDUS_clean_linker_0, # of connection points: 2
#     Edge 69, Type (0, 1), BuildingBlock: CIFDUS_clean_linker_0, # of connection points: 2
#     Edge 70, Type (0, 1), BuildingBlock: CIFDUS_clean_linker_0, # of connection points: 2
#     Edge 71, Type (0, 1), BuildingBlock: CIFDUS_clean_linker_0, # of connection points: 2
#     Edge 72, Type (0, 1), BuildingBlock: CIFDUS_clean_linker_0, # of connection points: 2
#     Edge 73, Type (0, 1), BuildingBlock: CIFDUS_clean_linker_0, # of connection points: 2
#     Edge 74, Type (0, 1), BuildingBlock: CIFDUS_clean_linker_0, # of connection points: 2
#     Edge 75, Type (0, 1), BuildingBlock: CIFDUS_clean_linker_0, # of connection points: 2
# Relax obj value: 0.064
# Max RMSD: 0.180
# Mean RMSD: 0.112
data_MOF--net-ctn--node1-NAHDIM_clean_sbu_0--node2-PAMTOO_clean_linker_0--edge1-CIFDUS_clean_linker_0
_symmetry_space_group_name_H-M    P1
_symmetry_Int_Tables_number       1
_symmetry_cell_setting            triclinic
loop_
_symmetry_equiv_pos_as_xyz
'x, y, z'
_cell_length_a     46.481649
_cell_length_b     47.253274
_cell_length_c     47.479269
_cell_angle_alpha  85.900751
_cell_angle_beta   92.459826
_cell_angle_gamma 99.733046
loop_
_atom_site_label
_atom_site_type_symbol
_atom_site_fract_x
_atom_site_fract_y
_atom_site_fract_z
_atom_type_partial_charge
H0 H 0.01845 0.0942 0.05983 0.0
H1 H 0.06477 0.02347 0.08088 0.0
H2 H 0.08127 0.0743 0.00327 0.0
H3 H 0.07561 0.01284 0.999 0.0
C4 C 0.08676 0.00687 0.01924 0.0
O5 O 0.09448 0.03071 0.03478 0.0
H6 H 0.07128 0.9903 0.03128 0.0
C7 C 0.03421 0.08107 0.05464 0.0
C8 C 0.04879 0.08705 0.02897 0.0
C9 C 0.03991 0.05836 0.07377 0.0
C10 C 0.06027 0.04134 0.06675 0.0
C11 C 0.0748 0.04703 0.04125 0.0
C12 C 0.06929 0.06991 0.02261 0.0
H13 H 0.31775 0.66814 0.28631 0.0
H14 H 0.26353 0.69064 0.21483 0.0
H15 H 0.34274 0.74675 0.23504 0.0
H16 H 0.29439 0.77778 0.21824 0.0
C17 C 0.28075 0.76111 0.20577 0.0
O18 O 0.29639 0.73951 0.20163 0.0
H19 H 0.26087 0.75238 0.21795 0.0
C20 C 0.31348 0.68261 0.26845 0.0
C21 C 0.33352 0.70798 0.26252 0.0
C22 C 0.28803 0.67597 0.25134 0.0
C23 C 0.28278 0.69527 0.22851 0.0
C24 C 0.30232 0.72073 0.22295 0.0
C25 C 0.32778 0.72689 0.23962 0.0
H26 H 0.98993 0.52465 0.08735 0.0
H27 H 0.96371 0.48551 0.00885 0.0
H28 H 0.0258 0.45128 0.06447 0.0
H29 H 0.03912 0.46076 0.00295 0.0
C30 C 0.01689 0.45225 0.99442 0.0
O31 O 0.99747 0.44674 0.0161 0.0
H32 H 0.01013 0.46888 0.97894 0.0
C33 C 0.99101 0.50817 0.07288 0.0
C34 C 0.00989 0.48797 0.07932 0.0
C35 C 0.97442 0.50783 0.04727 0.0
C36 C 0.97657 0.48664 0.02844 0.0
C37 C 0.99529 0.46666 0.03461 0.0
C38 C 0.01175 0.46725 0.05993 0.0
H39 H 0.71805 0.84998 0.26968 0.0
H40 H 0.69201 0.76806 0.23362 0.0
H41 H 0.76876 0.82435 0.20501 0.0
H42 H 0.7213 0.7966 0.16383 0.0
C43 C 0.72297 0.77436 0.17248 0.0
O44 O 0.73554 0.7747 0.19934 0.0
H45 H 0.70041 0.76198 0.17337 0.0
C46 C 0.72141 0.83457 0.25481 0.0
C47 C 0.74577 0.84058 0.23749 0.0
C48 C 0.70179 0.8085 0.25371 0.0
C49 C 0.70697 0.78818 0.23511 0.0
C50 C 0.73107 0.79402 0.21766 0.0
C51 C 0.75043 0.82005 0.21892 0.0
H52 H 0.10733 0.98391 0.52538 0.0
H53 H 0.02357 0.95961 0.48362 0.0
H54 H 0.08454 0.03015 0.44837 0.0
H55 H 0.02439 0.04046 0.44488 0.0
C56 C 0.01268 0.01791 0.44444 0.0
O57 O 0.03256 0.99957 0.44253 0.0
H58 H 1.00059 0.01262 0.4644 0.0
C59 C 0.09194 0.98704 0.5081 0.0
C60 C 0.09945 0.00925 0.48708 0.0
C61 C 0.06468 0.96889 0.50711 0.0
C62 C 0.04482 0.97314 0.48467 0.0
C63 C 0.05197 0.99537 0.46377 0.0
C64 C 0.07922 0.01325 0.46489 0.0
H65 H 0.17537 0.77986 0.80942 0.0
H66 H 0.19458 0.70908 0.76536 0.0
H67 H 0.25418 0.74521 0.83008 0.0
H68 H 0.28022 0.73291 0.77862 0.0
C69 C 0.26668 0.71167 0.77479 0.0
O70 O 0.24402 0.70577 0.79329 0.0
H71 H 0.25758 0.71267 0.75274 0.0
C72 C 0.18967 0.76459 0.806 0.0
C73 C 0.21584 0.76528 0.822 0.0
C74 C 0.18173 0.74437 0.78565 0.0
C75 C 0.20041 0.7248 0.78106 0.0
C76 C 0.2264 0.72506 0.79723 0.0
C77 C 0.23395 0.74509 0.81782 0.0
H78 H 0.94362 0.56362 0.53673 0.0
H79 H 0.96843 0.51223 0.47347 0.0
H80 H 0.02213 0.59261 0.4906 0.0
H81 H 0.01327 0.5819 0.43046 0.0
C82 C 0.0118 0.55808 0.43185 0.0
O83 O 0.01548 0.54826 0.4596 0.0
H84 H 0.98977 0.5486 0.42356 0.0
C85 C 0.95893 0.56013 0.52125 0.0
C86 C 0.98372 0.58105 0.51594 0.0
C87 C 0.95313 0.5352 0.50615 0.0
C88 C 0.97238 0.53138 0.48528 0.0
C89 C 0.99706 0.55216 0.47967 0.0
C90 C 1.00277 0.57687 0.49499 0.0
H91 H 0.77691 0.80818 0.86716 0.0
H92 H 0.84088 0.76714 0.82992 0.0
H93 H 0.80435 0.8336 0.78225 0.0
H94 H 0.8143 0.78537 0.74877 0.0
C95 C 0.83291 0.77863 0.76155 0.0
O96 O 0.84152 0.79783 0.78208 0.0
H97 H 0.82544 0.75672 0.77153 0.0
C98 C 0.79013 0.8058 0.84949 0.0
C99 C 0.78803 0.82324 0.82443 0.0
C100 C 0.80903 0.7853 0.85187 0.0
C101 C 0.82631 0.78285 0.82884 0.0
C102 C 0.82444 0.80014 0.80385 0.0
C103 C 0.8053 0.82015 0.80162 0.0
H104 H 0.25911 0.31081 0.34722 0.0
H105 H 0.33056 0.276 0.3156 0.0
H106 H 0.29241 0.3391 0.26471 0.0
H107 H 0.30877 0.29633 0.23034 0.0
C108 C 0.32422 0.28725 0.24555 0.0
O109 O 0.33164 0.30545 0.26713 0.0
H110 H 0.31305 0.26583 0.25414 0.0
C111 C 0.27453 0.31015 0.3309 0.0
C112 C 0.27312 0.32744 0.30557 0.0
C113 C 0.29504 0.29126 0.33482 0.0
C114 C 0.3143 0.29001 0.31305 0.0
C115 C 0.31306 0.30703 0.28787 0.0
C116 C 0.29272 0.32577 0.28422 0.0
H117 H 0.45882 0.01547 0.59266 0.0
H118 H 0.44145 0.97678 0.51287 0.0
H119 H 0.50757 0.951 0.56939 0.0
H120 H 0.52247 0.96123 0.50876 0.0
C121 C 0.50089 0.95174 0.49946 0.0
O122 O 0.48105 0.94377 0.52054 0.0
H123 H 0.49332 0.9684 0.48454 0.0
C124 C 0.46357 1.0007 0.57776 0.0
C125 C 0.48567 0.9839 0.5844 0.0
C126 C 0.44711 0.99808 0.55216 0.0
C127 C 0.45351 0.97895 0.53285 0.0
C128 C 0.47555 0.9625 0.53903 0.0
C129 C 0.49132 0.96475 0.56472 0.0
H130 H 0.21368 0.36632 0.75447 0.0
H131 H 0.18569 0.2827 0.72257 0.0
H132 H 0.26676 0.33363 0.69648 0.0
H133 H 0.21432 0.3067 0.65479 0.0
C134 C 0.21771 0.28482 0.6632 0.0
O135 O 0.23044 0.28565 0.69002 0.0
H136 H 0.1958 0.27111 0.6642 0.0
C137 C 0.21717 0.34952 0.74121 0.0
C138 C 0.24276 0.35298 0.7258 0.0
C139 C 0.19654 0.32418 0.74045 0.0
C140 C 0.20159 0.30223 0.72376 0.0
C141 C 0.22666 0.30592 0.70758 0.0
C142 C 0.24738 0.33105 0.70894 0.0
H143 H 0.79458 0.17035 0.79027 0.0
H144 H 0.75157 0.20571 0.71702 0.0
H145 H 0.82984 0.25364 0.7514 0.0
H146 H 0.79057 0.29319 0.72523 0.0
C147 C 0.77515 0.27591 0.7152 0.0
O148 O 0.78925 0.253 0.71179 0.0
H149 H 0.75629 0.26938 0.72933 0.0
C150 C 0.79349 0.18754 0.77409 0.0
C151 C 0.81533 0.21218 0.7734 0.0
C152 C 0.7702 0.18501 0.75397 0.0
C153 C 0.76903 0.20734 0.73301 0.0
C154 C 0.79056 0.23184 0.73219 0.0
C155 C 0.81359 0.23427 0.75223 0.0
H156 H 0.5038 0.58321 0.55759 0.0
H157 H 0.55826 0.51903 0.57954 0.0
H158 H 0.57096 0.57132 0.50211 0.0
H159 H 0.57101 0.51105 0.4967 0.0
C160 C 0.58119 0.50503 0.51743 0.0
O161 O 0.5877 0.52881 0.53324 0.0
H162 H 0.56521 0.48824 0.52865 0.0
C163 C 0.52162 0.57231 0.55299 0.0
C164 C 0.53661 0.58016 0.52783 0.0
C165 C 0.52929 0.55044 0.57206 0.0
C166 C 0.55195 0.53603 0.56531 0.0
C167 C 0.56674 0.5435 0.54007 0.0
C168 C 0.55943 0.56583 0.52163 0.0
H169 H 0.59037 0.46953 0.03382 0.0
H170 H 0.51874 0.46108 0.97257 0.0
H171 H 0.58833 0.53292 0.96429 0.0
H172 H 0.53266 0.54963 0.94843 0.0
C173 C 0.51966 0.52815 0.94465 0.0
O174 O 0.53826 0.5085 0.94293 0.0
H175 H 0.50493 0.52173 0.96274 0.0
C176 C 0.57974 0.47733 0.01477 0.0
C177 C 0.59282 0.50291 1.00023 0.0
C178 C 0.55305 0.46185 0.00504 0.0
C179 C 0.53927 0.47257 0.98059 0.0
C180 C 0.55201 0.49813 0.96607 0.0
C181 C 0.57886 0.51304 0.97564 0.0
H182 H 0.6662 0.26265 0.32509 0.0
H183 H 0.6841 0.19616 0.27411 0.0
H184 H 0.74332 0.22416 0.34204 0.0
H185 H 0.7698 0.2172 0.28984 0.0
C186 C 0.75596 0.19689 0.28356 0.0
O187 O 0.73278 0.18929 0.30132 0.0
H188 H 0.74739 0.20048 0.26159 0.0
C189 C 0.67993 0.24739 0.32019 0.0
C190 C 0.70564 0.24567 0.33646 0.0
C191 C 0.67182 0.22971 0.29761 0.0
C192 C 0.68994 0.21016 0.29129 0.0
C193 C 0.71556 0.20824 0.30739 0.0
C194 C 0.72326 0.22576 0.32999 0.0
H195 H 0.45977 0.06775 0.02638 0.0
H196 H 0.47621 0.01158 0.96362 0.0
H197 H 0.53589 0.08975 0.97539 0.0
H198 H 0.52302 0.07561 0.9163 0.0
C199 C 0.52085 0.05176 0.91907 0.0
O200 O 0.52478 0.04344 0.9472 0.0
H201 H 0.49851 0.04234 0.91154 0.0
C202 C 0.47314 0.06297 0.00978 0.0
C203 C 0.49879 0.08212 1.00273 0.0
C204 C 0.4646 0.03756 0.99575 0.0
C205 C 0.48214 0.03125 0.97446 0.0
C206 C 0.50778 0.05004 0.96731 0.0
C207 C 0.51609 0.07535 0.98138 0.0
C208 C 0.22286 0.92631 1.00167 0.0
O209 O 0.24215 0.94105 0.98447 0.0
O210 O 0.2561 0.8559 0.97898 0.0
Zn211 Zn 0.2639 0.88563 0.00775 0.0
O212 O 0.29736 0.91617 0.9953 0.0
C213 C 0.25849 0.84585 0.05661 0.0
O214 O 0.23313 0.83648 0.04432 0.0
O215 O 0.22766 0.90245 0.01342 0.0
C216 C 0.31323 0.93014 0.0138 0.0
O217 O 0.30659 0.9251 0.04051 0.0
C218 C 0.25249 0.86347 0.95305 0.0
O219 O 0.25339 0.8909 0.94547 0.0
O220 O 0.27549 0.86667 0.04464 0.0
C221 C 0.17002 0.44747 0.30275 0.0
O222 O 0.16899 0.46609 0.32178 0.0
O223 O 0.10828 0.48632 0.30517 0.0
Zn224 Zn 0.13418 0.4839 0.27239 0.0
O225 O 0.16386 0.52033 0.26869 0.0
C226 C 0.08372 0.48793 0.23505 0.0
O227 O 0.07341 0.49556 0.25817 0.0
O228 O 0.15603 0.45013 0.27933 0.0
C229 C 0.15529 0.54437 0.26339 0.0
O230 O 0.12716 0.54486 0.26019 0.0
C231 C 0.11556 0.50361 0.32457 0.0
O232 O 0.14173 0.51933 0.32473 0.0
O233 O 0.1092 0.48122 0.23596 0.0
C234 C 0.85368 0.61064 0.02543 0.0
O235 O 0.84922 0.61737 0.99845 0.0
O236 O 0.80962 0.66724 0.99877 0.0
Zn237 Zn 0.8022 0.63722 0.03152 0.0
O238 O 0.76867 0.60745 0.01864 0.0
C239 C 0.79637 0.68187 0.06965 0.0
O240 O 0.81559 0.69823 0.05348 0.0
O241 O 0.83692 0.61768 0.04324 0.0
C242 C 0.74904 0.59543 0.03547 0.0
O243 O 0.75169 0.60113 0.06223 0.0
C244 C 0.78673 0.67706 0.99001 0.0
O245 O 0.76227 0.66773 0.00312 0.0
O246 O 0.78855 0.65557 0.06462 0.0
C247 C 0.85652 0.07704 0.26808 0.0
O248 O 0.86365 0.06517 0.29269 0.0
O249 O 0.91885 0.03997 0.2797 0.0
Zn250 Zn 0.89064 0.03774 0.24591 0.0
O251 O 0.86419 0.99931 0.24631 0.0
C252 C 0.93895 0.03905 0.20842 0.0
O253 O 0.95281 0.03119 0.2316 0.0
O254 O 0.86573 0.06883 0.24571 0.0
C255 C 0.87413 0.97623 0.24358 0.0
O256 O 0.90237 0.97746 0.24117 0.0
C257 C 0.91425 0.02351 0.30201 0.0
O258 O 0.89014 0.0045 0.30353 0.0
O259 O 0.91272 0.04316 0.20975 0.0
C260 C 0.33053 0.10474 0.52267 0.0
O261 O 0.30639 0.09123 0.51107 0.0
O262 O 0.30385 0.1806 0.48558 0.0
Zn263 Zn 0.29718 0.15164 0.5192 0.0
O264 O 0.2611 0.12332 0.50982 0.0
C265 C 0.29168 0.19758 0.55617 0.0
O266 O 0.30509 0.21491 0.53619 0.0
O267 O 0.33201 0.13102 0.52786 0.0
C268 C 0.23819 0.13327 0.50154 0.0
O269 O 0.23919 0.1613 0.49915 0.0
C270 C 0.30467 0.17115 0.46127 0.0
O271 O 0.30314 0.14334 0.45928 0.0
O272 O 0.28728 0.1706 0.55352 0.0
C273 C 0.36597 0.58851 0.77277 0.0
O274 O 0.38032 0.58519 0.79689 0.0
O275 O 0.41755 0.53977 0.79085 0.0
Zn276 Zn 0.39473 0.54217 0.7538 0.0
O277 O 0.3683 0.50435 0.74781 0.0
C278 C 0.43386 0.5329 0.71022 0.0
O279 O 0.42732 0.50586 0.71958 0.0
O280 O 0.3692 0.57302 0.75268 0.0
C281 C 0.37464 0.47981 0.75576 0.0
O282 O 0.39982 0.4782 0.76892 0.0
C283 C 0.40553 0.52771 0.81317 0.0
O284 O 0.3775 0.51717 0.81218 0.0
O285 O 0.42277 0.55187 0.72172 0.0
C286 C 0.71592 0.42209 0.50211 0.0
O287 O 0.73534 0.43624 0.4847 0.0
O288 O 0.74547 0.35216 0.47559 0.0
Zn289 Zn 0.75489 0.37957 0.50657 0.0
O290 O 0.7891 0.40975 0.49541 0.0
C291 C 0.74765 0.34517 0.55967 0.0
O292 O 0.71972 0.34302 0.5528 0.0
O293 O 0.71983 0.39779 0.51347 0.0
C294 C 0.80406 0.42314 0.51484 0.0
O295 O 0.79593 0.41755 0.5411 0.0
C296 C 0.75228 0.32712 0.47742 0.0
O297 O 0.7657 0.31833 0.50049 0.0
O298 O 0.76631 0.35903 0.54283 0.0
C299 C 0.67775 0.93482 0.78827 0.0
O300 O 0.68129 0.95479 0.80658 0.0
O301 O 0.61363 0.97496 0.79291 0.0
Zn302 Zn 0.64059 0.97218 0.76107 0.0
O303 O 0.67208 0.00716 0.75969 0.0
C304 C 0.59233 0.97887 0.72126 0.0
O305 O 0.58041 0.98593 0.74376 0.0
O306 O 0.6604 0.93705 0.76706 0.0
C307 C 0.66556 0.03221 0.75559 0.0
O308 O 0.63798 0.03496 0.75181 0.0
C309 C 0.62164 0.99059 0.8135 0.0
O310 O 0.64886 0.00368 0.81543 0.0
O311 O 0.61763 0.97181 0.72363 0.0
C312 C 0.01864 0.23099 0.94193 0.0
O313 O 0.01203 0.25454 0.95121 0.0
O314 O 0.98714 0.2562 0.86093 0.0
Zn315 Zn 0.02213 0.26386 0.88739 0.0
O316 O 0.02149 0.30033 0.90701 0.0
C317 C 0.06345 0.28874 0.84535 0.0
O318 O 0.04584 0.30782 0.84191 0.0
O319 O 0.02311 0.23012 0.91579 0.0
C320 C 0.04411 0.31211 0.92042 0.0
O321 O 0.06784 0.30036 0.92104 0.0
C322 C 0.96182 0.24449 0.8687 0.0
O323 O 0.95761 0.23693 0.89557 0.0
O324 O 0.05795 0.26815 0.86407 0.0
C325 C 0.51412 0.71481 0.42273 0.0
O326 O 0.48765 0.71155 0.41129 0.0
O327 O 0.48599 0.75736 0.36605 0.0
Zn328 Zn 0.52297 0.76983 0.38895 0.0
O329 O 0.51893 0.80446 0.41013 0.0
C330 C 0.56265 0.8035 0.34861 0.0
O331 O 0.5466 0.82345 0.35136 0.0
O332 O 0.53206 0.7376 0.41647 0.0
C333 C 0.53813 0.81364 0.42867 0.0
O334 O 0.56066 0.80037 0.43367 0.0
C335 C 0.46081 0.75645 0.37589 0.0
O336 O 0.45867 0.76389 0.40176 0.0
O337 O 0.55652 0.77942 0.36256 0.0
C338 C 0.02337 0.8265 0.60837 0.0
O339 O 0.02869 0.83132 0.63516 0.0
O340 O 0.97553 0.76974 0.65522 0.0
Zn341 Zn 0.00907 0.7672 0.63024 0.0
O342 O 1.00085 0.73125 0.60917 0.0
C343 C 0.04636 0.75811 0.67941 0.0
O344 O 0.02137 0.75174 0.69221 0.0
O345 O 0.01475 0.80088 0.60151 0.0
C346 C 0.99628 0.70655 0.62217 0.0
O347 O 0.99559 0.70466 0.64988 0.0
C348 C 0.9527 0.77853 0.64483 0.0
O349 O 0.95119 0.78575 0.61763 0.0
O350 O 0.04638 0.76592 0.65324 0.0
C351 C 0.50775 0.31378 0.09721 0.0
O352 O 0.47934 0.30658 0.0995 0.0
O353 O 0.47463 0.26678 0.15512 0.0
Zn354 Zn 0.50942 0.26159 0.13305 0.0
O355 O 0.49778 0.22971 0.10681 0.0
C356 C 0.54313 0.2529 0.18568 0.0
O357 O 0.52112 0.26062 0.19791 0.0
O358 O 0.52443 0.29792 0.10985 0.0
C359 C 0.5175 0.21885 0.09578 0.0
O360 O 0.54505 0.2288 0.10178 0.0
C361 C 0.45941 0.24512 0.16785 0.0
O362 O 0.46678 0.21962 0.16645 0.0
O363 O 0.54244 0.25182 0.15899 0.0
H364 H 0.23271 0.7569 0.87705 0.0
H365 H 0.2167 0.82289 0.81364 0.0
H366 H 0.22719 0.85923 0.84844 0.0
H367 H 0.23954 0.87201 0.89709 0.0
H368 H 0.25428 0.80591 0.96106 0.0
H369 H 0.24571 0.7699 0.92588 0.0
C370 C 0.23185 0.77931 0.87088 0.0
C371 C 0.22395 0.78728 0.84292 0.0
C372 C 0.2375 0.80001 0.89111 0.0
C373 C 0.22254 0.81628 0.83515 0.0
C374 C 0.22856 0.83704 0.85501 0.0
C375 C 0.24095 0.84975 0.90336 0.0
C376 C 0.24749 0.8417 0.93167 0.0
C377 C 0.23578 0.82911 0.8831 0.0
C378 C 0.24918 0.81271 0.93941 0.0
C379 C 0.24433 0.79209 0.9193 0.0
H380 H 0.00729 0.514 0.39688 0.0
H381 H 0.06868 0.58405 0.42888 0.0
H382 H 0.10686 0.57234 0.39985 0.0
H383 H 0.12193 0.54357 0.36383 0.0
H384 H 0.0601 0.47404 0.33097 0.0
H385 H 0.02295 0.48404 0.36195 0.0
C386 C 0.02906 0.52664 0.39741 0.0
C387 C 0.03519 0.55015 0.41449 0.0
C388 C 0.05074 0.51988 0.38055 0.0
C389 C 0.06351 0.56613 0.41549 0.0
C390 C 0.08527 0.55941 0.39897 0.0
C391 C 0.10042 0.53042 0.36358 0.0
C392 C 0.09383 0.50814 0.34501 0.0
C393 C 0.07903 0.53653 0.38117 0.0
C394 C 0.06578 0.49137 0.34499 0.0
C395 C 0.04448 0.4971 0.36267 0.0
H396 H 0.76367 0.75947 0.88404 0.0
H397 H 0.85717 0.76761 0.87859 0.0
H398 H 0.85874 0.73484 0.92064 0.0
H399 H 0.83337 0.70351 0.95901 0.0
H400 H 0.73998 0.69712 0.96462 0.0
H401 H 0.73877 0.72993 0.92289 0.0
C402 C 0.78449 0.75449 0.89224 0.0
C403 C 0.81023 0.76607 0.87806 0.0
C404 C 0.7853 0.73589 0.91657 0.0
C405 C 0.83692 0.75875 0.88878 0.0
C406 C 0.83788 0.74012 0.91296 0.0
C407 C 0.81279 0.70936 0.95113 0.0
C408 C 0.78683 0.69775 0.96498 0.0
C409 C 0.81217 0.72845 0.927 0.0
C410 C 0.76034 0.70566 0.95448 0.0
C411 C 0.75957 0.72445 0.93054 0.0
H412 H 0.01576 0.04996 0.39425 0.0
H413 H 0.96281 0.97863 0.439 0.0
H414 H 0.92775 0.97379 0.39887 0.0
H415 H 0.91188 0.99047 0.35148 0.0
H416 H 0.96508 0.06186 0.30656 0.0
H417 H 1.00026 0.06615 0.34633 0.0
C418 C 0.99645 0.03347 0.39514 0.0
C419 C 0.99143 0.01502 0.41961 0.0
C420 C 0.97647 0.03088 0.37203 0.0
C421 C 0.96674 0.99332 0.42046 0.0
C422 C 0.94678 0.99056 0.39756 0.0
C423 C 0.93116 0.00699 0.35036 0.0
C424 C 0.93573 0.02587 0.32607 0.0
C425 C 0.95133 0.00934 0.37331 0.0
C426 C 0.96093 0.04705 0.32498 0.0
C427 C 0.9811 0.04954 0.34773 0.0
H428 H 0.21991 0.22855 0.65637 0.0
H429 H 0.25791 0.31446 0.62676 0.0
H430 H 0.28566 0.29513 0.5921 0.0
H431 H 0.29643 0.2538 0.56817 0.0
H432 H 0.25822 0.16772 0.59794 0.0
H433 H 0.23343 0.18703 0.6346 0.0
C434 C 0.23442 0.24292 0.64237 0.0
C435 C 0.23648 0.27281 0.64356 0.0
C436 C 0.25015 0.23163 0.62247 0.0
C437 C 0.25569 0.29136 0.62579 0.0
C438 C 0.27152 0.28031 0.60602 0.0
C439 C 0.28289 0.23924 0.58281 0.0
C440 C 0.27904 0.20936 0.58007 0.0
C441 C 0.26849 0.25049 0.60381 0.0
C442 C 0.26152 0.19082 0.59941 0.0
C443 C 0.24725 0.20184 0.6204 0.0
H444 H 0.51118 0.58639 0.60736 0.0
H445 H 0.51101 0.49644 0.59643 0.0
H446 H 0.4827 0.48323 0.63892 0.0
H447 H 0.45622 0.4971 0.67795 0.0
H448 H 0.45469 0.587 0.6877 0.0
H449 H 0.48508 0.60028 0.64659 0.0
C450 C 0.50478 0.56387 0.61413 0.0
C451 C 0.51315 0.54245 0.59861 0.0
C452 C 0.48806 0.5564 0.63828 0.0
C453 C 0.50518 0.51341 0.6081 0.0
C454 C 0.48879 0.50581 0.63229 0.0
C455 C 0.46262 0.51962 0.67118 0.0
C456 C 0.4531 0.541 0.68587 0.0
C457 C 0.47989 0.52712 0.64738 0.0
C458 C 0.46161 0.57007 0.67675 0.0
C459 C 0.479 0.5777 0.65324 0.0
H460 H 0.8083 0.30617 0.67415 0.0
H461 H 0.71931 0.26939 0.69254 0.0
H462 H 0.70293 0.28705 0.64583 0.0
H463 H 0.714 0.31352 0.60006 0.0
H464 H 0.80338 0.34968 0.58152 0.0
H465 H 0.81955 0.33161 0.62787 0.0
C466 C 0.78534 0.30222 0.66784 0.0
C467 C 0.76494 0.28706 0.68674 0.0
C468 C 0.77619 0.31222 0.64096 0.0
C469 C 0.73529 0.28146 0.67838 0.0
C470 C 0.72597 0.29146 0.6517 0.0
C471 C 0.73703 0.31739 0.60611 0.0
C472 C 0.7574 0.33301 0.58734 0.0
C473 C 0.74622 0.30696 0.63285 0.0
C474 C 0.78719 0.33772 0.59552 0.0
C475 C 0.79649 0.32745 0.62207 0.0
H476 H 0.54332 0.98038 0.59503 0.0
H477 H 0.46507 0.99037 0.63651 0.0
H478 H 0.49136 0.99067 0.68206 0.0
H479 H 0.53602 0.98631 0.71046 0.0
H480 H 0.61341 0.97345 0.66933 0.0
H481 H 0.58771 0.9753 0.62344 0.0
C482 C 0.53185 0.98235 0.61402 0.0
C483 C 0.50214 0.98536 0.61212 0.0
C484 C 0.54689 0.98171 0.64032 0.0
C485 C 0.48799 0.98852 0.63706 0.0
C486 C 0.50295 0.98839 0.66324 0.0
C487 C 0.54731 0.98393 0.69148 0.0
C488 C 0.57663 0.97971 0.69341 0.0
C489 C 0.53233 0.98478 0.66515 0.0
C490 C 0.59084 0.9766 0.66854 0.0
C491 C 0.57617 0.97773 0.64225 0.0
H492 H 0.87267 0.23275 0.76449 0.0
H493 H 0.81302 0.19816 0.83036 0.0
H494 H 0.85311 0.20442 0.86558 0.0
H495 H 0.90493 0.22104 0.87782 0.0
H496 H 0.96404 0.25673 0.81173 0.0
H497 H 0.92422 0.24911 0.77658 0.0
C498 C 0.86836 0.22678 0.78658 0.0
C499 C 0.83984 0.21509 0.79474 0.0
C500 C 0.89141 0.23077 0.80673 0.0
C501 C 0.83481 0.20692 0.82341 0.0
C502 C 0.85769 0.21069 0.84361 0.0
C503 C 0.90912 0.22713 0.85573 0.0
C504 C 0.93746 0.23951 0.8475 0.0
C505 C 0.88606 0.22276 0.83553 0.0
C506 C 0.94246 0.24722 0.81874 0.0
C507 C 0.91969 0.24286 0.79857 0.0
H508 H 0.54394 0.91876 0.50527 0.0
H509 H 0.46349 0.92653 0.45918 0.0
H510 H 0.46758 0.88439 0.43327 0.0
H511 H 0.49445 0.8458 0.42344 0.0
H512 H 0.5752 0.83829 0.46958 0.0
H513 H 0.57068 0.87991 0.49564 0.0
C514 C 0.52742 0.91122 0.48945 0.0
C515 C 0.50369 0.92585 0.48371 0.0
C516 C 0.53001 0.8871 0.47465 0.0
C517 C 0.48212 0.9157 0.46357 0.0
C518 C 0.48445 0.89166 0.44883 0.0
C519 C 0.51108 0.85325 0.43918 0.0
C520 C 0.53516 0.83891 0.44447 0.0
C521 C 0.50839 0.87727 0.45411 0.0
C522 C 0.55645 0.84888 0.46501 0.0
C523 C 0.55389 0.87271 0.47997 0.0
H524 H 0.17463 0.27926 0.77657 0.0
H525 H 0.15894 0.36229 0.74183 0.0
H526 H 0.1162 0.35858 0.77099 0.0
H527 H 0.08392 0.33221 0.807 0.0
H528 H 0.10034 0.24969 0.8429 0.0
H529 H 0.14211 0.25273 0.81271 0.0
C530 C 0.16163 0.29635 0.77525 0.0
C531 C 0.16982 0.32098 0.75712 0.0
C532 C 0.13735 0.29426 0.79239 0.0
C533 C 0.15309 0.34321 0.7558 0.0
C534 C 0.12867 0.34109 0.77242 0.0
C535 C 0.09659 0.31485 0.80822 0.0
C536 C 0.08897 0.29078 0.82721 0.0
C537 C 0.12072 0.31681 0.79095 0.0
C538 C 0.10574 0.26853 0.82855 0.0
C539 C 0.12962 0.27021 0.81124 0.0
H540 H 0.57171 0.62655 0.50374 0.0
H541 H 0.48189 0.58472 0.50744 0.0
H542 H 0.467 0.62263 0.47514 0.0
H543 H 0.47947 0.66769 0.44609 0.0
H544 H 0.56914 0.71046 0.44333 0.0
H545 H 0.58414 0.67218 0.475 0.0
C546 C 0.54893 0.62573 0.49728 0.0
C547 C 0.52791 0.60296 0.50786 0.0
C548 C 0.5405 0.64777 0.47897 0.0
C549 C 0.4984 0.60221 0.49968 0.0
C550 C 0.4899 0.62381 0.48118 0.0
C551 C 0.50231 0.66865 0.45237 0.0
C552 C 0.52314 0.69187 0.44229 0.0
C553 C 0.51075 0.64672 0.47076 0.0
C554 C 0.55263 0.69286 0.45081 0.0
C555 C 0.56125 0.67094 0.46889 0.0
H556 H 0.83837 0.79445 0.70522 0.0
H557 H 0.88404 0.76006 0.77715 0.0
H558 H 0.92538 0.75717 0.74769 0.0
H559 H 0.94813 0.76396 0.70131 0.0
H560 H 0.90189 0.79792 0.62926 0.0
H561 H 0.86119 0.80137 0.65888 0.0
C562 C 0.85742 0.78636 0.71438 0.0
C563 C 0.85829 0.77744 0.74324 0.0
C564 C 0.88092 0.78463 0.69729 0.0
C565 C 0.88303 0.76702 0.75494 0.0
C566 C 0.90658 0.76536 0.73812 0.0
C567 C 0.92917 0.77214 0.69207 0.0
C568 C 0.92812 0.78064 0.66306 0.0
C569 C 0.90573 0.77402 0.70923 0.0
C570 C 0.90333 0.79118 0.65149 0.0
C571 C 0.88 0.79319 0.66842 0.0
H572 H 0.03963 0.91335 0.50055 0.0
H573 H 0.07295 0.97229 0.56412 0.0
H574 H 0.06263 0.93363 0.6011 0.0
H575 H 0.04515 0.88287 0.61529 0.0
H576 H 0.01208 0.82384 0.5516 0.0
H577 H 0.021 0.86279 0.51486 0.0
C578 C 0.04431 0.91777 0.52252 0.0
C579 C 0.05713 0.9456 0.52956 0.0
C580 C 0.03842 0.89542 0.54367 0.0
C581 C 0.06343 0.95094 0.55812 0.0
C582 C 0.05743 0.92889 0.57928 0.0
C583 C 0.03978 0.87852 0.59339 0.0
C584 C 0.02803 0.85043 0.58626 0.0
C585 C 0.04513 0.90099 0.57229 0.0
C586 C 0.02123 0.84522 0.55773 0.0
C587 C 0.02631 0.8675 0.53666 0.0
H588 H 0.1734 0.7492 0.7287 0.0
H589 H 0.12774 0.73934 0.80682 0.0
H590 H 0.08161 0.74213 0.78083 0.0
H591 H 0.05461 0.7489 0.73607 0.0
H592 H 0.10047 0.76099 0.65784 0.0
H593 H 0.14613 0.75593 0.68362 0.0
C594 C 0.15322 0.74735 0.73988 0.0
C595 C 0.15377 0.74396 0.76951 0.0
C596 C 0.12692 0.74963 0.72482 0.0
C597 C 0.1277 0.74199 0.78396 0.0
C598 C 0.10139 0.74362 0.76913 0.0
C599 C 0.07457 0.75039 0.72463 0.0
C600 C 0.07409 0.75535 0.69508 0.0
C601 C 0.10079 0.74774 0.73959 0.0
C602 C 0.10021 0.75731 0.68061 0.0
C603 C 0.12634 0.75434 0.69532 0.0
H604 H 0.97836 0.58435 0.57229 0.0
H605 H 1.00101 0.63673 0.4957 0.0
H606 H 0.007 0.68019 0.52185 0.0
H607 H 1.00432 0.70328 0.56616 0.0
H608 H 0.98126 0.65076 0.64266 0.0
H609 H 0.9764 0.60736 0.61669 0.0
C610 C 0.98447 0.6053 0.56129 0.0
C611 C 0.98909 0.60731 0.53207 0.0
C612 C 0.98756 0.63014 0.57638 0.0
C613 C 0.99758 0.63456 0.51822 0.0
C614 C 1.00079 0.65942 0.53312 0.0
C615 C 0.99815 0.68236 0.57716 0.0
C616 C 0.993 0.6803 0.6063 0.0
C617 C 0.99558 0.65747 0.56215 0.0
C618 C 0.98528 0.65299 0.62025 0.0
C619 C 0.98253 0.62814 0.60542 0.0
H620 H 0.80523 0.84945 0.2373 0.0
H621 H 0.73191 0.89417 0.24046 0.0
H622 H 0.7651 0.93984 0.24329 0.0
H623 H 0.81482 0.96715 0.24447 0.0
H624 H 0.88828 0.92273 0.24036 0.0
H625 H 0.85512 0.87694 0.23802 0.0
C626 C 0.79652 0.86923 0.23834 0.0
C627 C 0.76613 0.86836 0.23874 0.0
C628 C 0.81573 0.89548 0.23979 0.0
C629 C 0.75521 0.89415 0.24051 0.0
C630 C 0.77417 0.92032 0.24198 0.0
C631 C 0.82363 0.94747 0.24312 0.0
C632 C 0.85402 0.94842 0.24261 0.0
C633 C 0.80446 0.92122 0.24167 0.0
C634 C 0.86499 0.92267 0.24078 0.0
C635 C 0.84604 0.89644 0.23943 0.0
H636 H 0.77577 0.17111 0.24027 0.0
H637 H 0.7787 0.17164 0.33107 0.0
H638 H 0.80989 0.13453 0.33448 0.0
H639 H 0.83635 0.10208 0.31152 0.0
H640 H 0.8342 0.10249 0.22048 0.0
H641 H 0.80273 0.13907 0.21728 0.0
C642 C 0.78313 0.16292 0.26077 0.0
C643 C 0.77458 0.1736 0.28542 0.0
C644 C 0.80124 0.14185 0.26251 0.0
C645 C 0.78468 0.1633 0.31187 0.0
C646 C 0.80255 0.1422 0.31379 0.0
C647 C 0.82899 0.11014 0.29097 0.0
C648 C 0.83762 0.09947 0.26629 0.0
C649 C 0.81095 0.13129 0.28925 0.0
C650 C 0.82794 0.11029 0.23984 0.0
C651 C 0.8099 0.13121 0.23796 0.0
H652 H 0.42255 0.01077 0.9605 0.0
H653 H 0.4458 0.01981 0.04876 0.0
H654 H 0.40058 0.98829 0.06201 0.0
H655 H 0.35475 0.95786 0.04865 0.0
H656 H 0.33165 0.94781 0.96046 0.0
H657 H 0.37656 0.97993 0.94709 0.0
C658 C 0.41781 0.0056 0.98262 0.0
C659 C 0.43746 0.01767 0.0036 0.0
C660 C 0.39179 0.98736 0.99012 0.0
C661 C 0.43086 0.0111 0.03219 0.0
C662 C 0.40506 0.99299 0.0398 0.0
C663 C 0.35943 0.96277 0.02649 0.0
C664 C 0.33984 0.95046 0.00561 0.0
C665 C 0.38536 0.98105 0.01895 0.0
C666 C 0.34636 0.95699 0.97698 0.0
C667 C 0.37206 0.97532 0.9693 0.0
H668 H 0.25745 0.36271 0.34316 0.0
H669 H 0.23971 0.33663 0.25804 0.0
H670 H 0.2057 0.37071 0.24982 0.0
H671 H 0.18196 0.40899 0.26634 0.0
H672 H 0.19993 0.43508 0.35149 0.0
H673 H 0.23242 0.39973 0.3602 0.0
C674 C 0.24587 0.36422 0.32293 0.0
C675 C 0.25129 0.34722 0.30122 0.0
C676 C 0.22634 0.38393 0.3183 0.0
C677 C 0.23632 0.34975 0.275 0.0
C678 C 0.21674 0.36915 0.27031 0.0
C679 C 0.19283 0.40683 0.28685 0.0
C680 C 0.1885 0.42479 0.30816 0.0
C681 C 0.21176 0.38655 0.29172 0.0
C682 C 0.20286 0.42166 0.33462 0.0
C683 C 0.22151 0.40143 0.33966 0.0
H684 H 0.11043 0.06752 0.47822 0.0
H685 H 0.15292 0.99416 0.50001 0.0
H686 H 0.19972 0.02596 0.50574 0.0
H687 H 0.2283 0.07466 0.50599 0.0
H688 H 0.18568 0.14801 0.48416 0.0
H689 H 0.13936 0.11612 0.47663 0.0
C690 C 0.13 0.05848 0.48383 0.0
C691 C 0.12815 0.02853 0.4888 0.0
C692 C 0.15683 0.07688 0.48715 0.0
C693 C 0.15368 0.01717 0.49644 0.0
C694 C 0.18047 0.03532 0.49962 0.0
C695 C 0.20891 0.08368 0.49947 0.0
C696 C 0.21048 0.11371 0.49579 0.0
C697 C 0.18225 0.06522 0.49531 0.0
C698 C 0.18513 0.125 0.48725 0.0
C699 C 0.15858 0.10677 0.48294 0.0
H700 H 0.77723 0.1289 0.76135 0.0
H701 H 0.71133 0.18314 0.74771 0.0
H702 H 0.67324 0.14072 0.74674 0.0
H703 H 0.65865 0.08831 0.74942 0.0
H704 H 0.72444 0.03389 0.7633 0.0
H705 H 0.76251 0.07629 0.76471 0.0
C706 C 0.7545 0.1314 0.75848 0.0
C707 C 0.74713 0.15911 0.75457 0.0
C708 C 0.73269 0.10691 0.7579 0.0
C709 C 0.71761 0.16202 0.75046 0.0
C710 C 0.6958 0.13779 0.75 0.0
C711 C 0.68131 0.08568 0.75274 0.0
C712 C 0.68865 0.05794 0.75618 0.0
C713 C 0.7031 0.11014 0.75355 0.0
C714 C 0.71815 0.05498 0.76052 0.0
C715 C 0.73996 0.07923 0.76137 0.0
H716 H 0.44575 0.0548 0.5598 0.0
H717 H 0.39304 0.97777 0.53032 0.0
H718 H 0.35284 0.00397 0.5184 0.0
H719 H 0.33252 0.04852 0.5161 0.0
H720 H 0.38437 0.12585 0.54587 0.0
H721 H 0.42486 0.09974 0.55807 0.0
C722 C 0.42538 0.04373 0.55098 0.0
C723 C 0.42256 0.01437 0.5458 0.0
C724 C 0.40217 0.05897 0.54418 0.0
C725 C 0.39605 1.00043 0.53411 0.0
C726 C 0.37295 0.01536 0.5274 0.0
C727 C 0.35266 0.05976 0.52524 0.0
C728 C 0.35534 0.08916 0.52999 0.0
C729 C 0.3758 0.04463 0.53222 0.0
C730 C 0.38165 0.10324 0.54193 0.0
C731 C 0.40484 0.08831 0.54894 0.0
H732 H 0.59824 0.45564 0.54043 0.0
H733 H 0.62557 0.52932 0.48324 0.0
H734 H 0.67 0.51057 0.47363 0.0
H735 H 0.70036 0.47264 0.48084 0.0
H736 H 0.67246 0.39864 0.53786 0.0
H737 H 0.62893 0.41803 0.54812 0.0
C738 C 0.61398 0.46752 0.52588 0.0
C739 C 0.60869 0.49363 0.51231 0.0
C740 C 0.63926 0.45652 0.52038 0.0
C741 C 0.62927 0.50905 0.49371 0.0
C742 C 0.65457 0.49834 0.48824 0.0
C743 C 0.68479 0.46075 0.49553 0.0
C744 C 0.68969 0.43417 0.50847 0.0
C745 C 0.6597 0.47198 0.50132 0.0
C746 C 0.66926 0.41911 0.52751 0.0
C747 C 0.64432 0.43018 0.53343 0.0
H748 H 0.72752 0.23165 0.38884 0.0
H749 H 0.70258 0.30286 0.3369 0.0
H750 H 0.71438 0.33409 0.37595 0.0
H751 H 0.73145 0.34119 0.42485 0.0
H752 H 0.75776 0.2705 0.47659 0.0
H753 H 0.74609 0.23919 0.43748 0.0
C754 C 0.72499 0.25408 0.38597 0.0
C755 C 0.71399 0.26481 0.36002 0.0
C756 C 0.73203 0.27203 0.40847 0.0
C757 C 0.71051 0.29388 0.35678 0.0
C758 C 0.7174 0.31182 0.37906 0.0
C759 C 0.73462 0.31893 0.42762 0.0
C760 C 0.74536 0.3082 0.45366 0.0
C761 C 0.72802 0.30109 0.40503 0.0
C762 C 0.74951 0.27934 0.45678 0.0
C763 C 0.74283 0.2614 0.43442 0.0
H764 H 0.51356 0.00885 0.88236 0.0
H765 H 0.57907 0.07293 0.91852 0.0
H766 H 0.61651 0.05851 0.89039 0.0
H767 H 0.63002 0.0291 0.85416 0.0
H768 H 0.56418 0.96575 0.81695 0.0
H769 H 0.52746 0.97833 0.84695 0.0
C770 C 0.53606 0.01959 0.88402 0.0
C771 C 0.54364 0.04213 0.90213 0.0
C772 C 0.55733 0.01131 0.86765 0.0
C773 C 0.57285 0.05571 0.90444 0.0
C774 C 0.59418 0.04745 0.88842 0.0
C775 C 0.60771 0.01784 0.85275 0.0
C776 C 0.5999 0.99653 0.83328 0.0
C777 C 0.58661 0.02547 0.86976 0.0
C778 C 0.57082 0.98226 0.83172 0.0
C779 C 0.54977 0.98948 0.84883 0.0
H780 H 0.30252 0.23519 0.34009 0.0
H781 H 0.2903 0.30531 0.38932 0.0
H782 H 0.29286 0.2747 0.43281 0.0
H783 H 0.29856 0.22786 0.45688 0.0
H784 H 0.31109 0.15813 0.40717 0.0
H785 H 0.30906 0.18897 0.36398 0.0
C786 C 0.30074 0.24393 0.36033 0.0
C787 C 0.29628 0.27257 0.36136 0.0
C788 C 0.30245 0.2263 0.38524 0.0
C789 C 0.29341 0.28327 0.38782 0.0
C790 C 0.29508 0.26582 0.41274 0.0
C791 C 0.30106 0.21947 0.43662 0.0
C792 C 0.30502 0.19068 0.43535 0.0
C793 C 0.29961 0.23729 0.41171 0.0
C794 C 0.30801 0.18016 0.40885 0.0
C795 C 0.30681 0.19777 0.38408 0.0
H796 H 0.46204 0.50675 0.93476 0.0
H797 H 0.53832 0.55346 0.89379 0.0
H798 H 0.50998 0.55738 0.84934 0.0
H799 H 0.46334 0.54803 0.8225 0.0
H800 H 0.38686 0.5016 0.86384 0.0
H801 H 0.41538 0.49719 0.90781 0.0
C802 C 0.47236 0.51782 0.91606 0.0
C803 C 0.50206 0.5301 0.91745 0.0
C804 C 0.45589 0.5201 0.89074 0.0
C805 C 0.51538 0.5441 0.89311 0.0
C806 C 0.4992 0.54632 0.86778 0.0
C807 C 0.45288 0.53695 0.84112 0.0
C808 C 0.42296 0.52523 0.83983 0.0
C809 C 0.4694 0.53452 0.86639 0.0
C810 C 0.40982 0.51091 0.86419 0.0
C811 C 0.42612 0.50833 0.88938 0.0
H812 H 0.71772 0.71779 0.16187 0.0
H813 H 0.76912 0.80084 0.14126 0.0
H814 H 0.79747 0.77946 0.10862 0.0
H815 H 0.80593 0.73748 0.08435 0.0
H816 H 0.75417 0.65431 0.10499 0.0
H817 H 0.72777 0.67532 0.13922 0.0
C818 C 0.73515 0.7311 0.15018 0.0
C819 C 0.74099 0.76086 0.15334 0.0
C820 C 0.75123 0.71865 0.13146 0.0
C821 C 0.76399 0.77793 0.13866 0.0
C822 C 0.78017 0.76572 0.12007 0.0
C823 C 0.78901 0.72389 0.09646 0.0
C824 C 0.78198 0.69438 0.09193 0.0
C825 C 0.77372 0.73615 0.11602 0.0
C826 C 0.76003 0.67711 0.10793 0.0
C827 C 0.74485 0.68911 0.12751 0.0
H828 H 0.98277 0.05967 0.08343 0.0
H829 H 0.06335 0.04457 0.12578 0.0
H830 H 0.03912 0.03656 0.17095 0.0
H831 H 0.99539 0.03507 0.19865 0.0
H832 H 0.91526 0.05175 0.15636 0.0
H833 H 0.93918 0.05841 0.11107 0.0
C834 C 0.99513 0.05488 0.10256 0.0
C835 C 0.02488 0.05278 0.10115 0.0
C836 C 0.98119 0.05073 0.12854 0.0
C837 C 0.04036 0.04597 0.12614 0.0
C838 C 0.02657 0.04159 0.15204 0.0
C839 C 0.98313 0.04013 0.17954 0.0
C840 C 0.95358 0.04295 0.18097 0.0
C841 C 0.99703 0.04405 0.15351 0.0
C842 C 0.93805 0.04953 0.15594 0.0
C843 C 0.9517 0.05331 0.12999 0.0
H844 H 0.31145 0.80553 0.17448 0.0
H845 H 0.23126 0.74464 0.17385 0.0
H846 H 0.21729 0.7652 0.12744 0.0
H847 H 0.22782 0.80084 0.08741 0.0
H848 H 0.30841 0.86164 0.08807 0.0
H849 H 0.32229 0.84085 0.13412 0.0
C850 C 0.29086 0.797 0.16416 0.0
C851 C 0.27205 0.77414 0.17762 0.0
C852 C 0.28309 0.80886 0.13756 0.0
C853 C 0.24573 0.76265 0.16395 0.0
C854 C 0.23782 0.77432 0.13746 0.0
C855 C 0.24843 0.80954 0.0976 0.0
C856 C 0.26699 0.8328 0.08431 0.0
C857 C 0.25629 0.79751 0.12412 0.0
C858 C 0.29367 0.84375 0.09781 0.0
C859 C 0.30165 0.8319 0.12417 0.0
H860 H 0.99327 0.49524 0.13242 0.0
H861 H 0.06712 0.48141 0.08629 0.0
H862 H 0.0962 0.4794 0.1302 0.0
H863 H 0.10073 0.48131 0.18186 0.0
H864 H 0.02708 0.49599 0.22787 0.0
H865 H 0.99808 0.49805 0.18398 0.0
C866 C 0.01582 0.49211 0.13194 0.0
C867 C 0.02789 0.48835 0.10607 0.0
C868 C 0.0325 0.491 0.15732 0.0
C869 C 0.0571 0.48396 0.10593 0.0
C870 C 0.07381 0.48291 0.13104 0.0
C871 C 0.07831 0.48486 0.18231 0.0
C872 C 0.06616 0.4884 0.20821 0.0
C873 C 0.06171 0.48622 0.1569 0.0
C874 C 0.03708 0.49317 0.2083 0.0
C875 C 0.02042 0.49439 0.18317 0.0
H876 H 0.33731 0.71185 0.31933 0.0
H877 H 0.38939 0.72113 0.24525 0.0
H878 H 0.43359 0.73629 0.27391 0.0
H879 H 0.45713 0.74826 0.31972 0.0
H880 H 0.40483 0.74126 0.39363 0.0
H881 H 0.36103 0.72393 0.36541 0.0
C882 C 0.35843 0.7169 0.30963 0.0
C883 C 0.36026 0.71529 0.28034 0.0
C884 C 0.38362 0.72621 0.32614 0.0
C885 C 0.38759 0.72229 0.2678 0.0
C886 C 0.4128 0.73096 0.28415 0.0
C887 C 0.43617 0.74287 0.32969 0.0
C888 C 0.43427 0.74606 0.35874 0.0
C889 C 0.41104 0.73326 0.31328 0.0
C890 C 0.4069 0.73914 0.37128 0.0
C891 C 0.38184 0.72914 0.35517 0.0
H892 H 0.0619 0.42214 0.99164 0.0
H893 H 0.97237 0.42206 0.96404 0.0
H894 H 0.97259 0.37863 0.93876 0.0
H895 H 0.99858 0.34115 0.92411 0.0
H896 H 0.08847 0.34176 0.9515 0.0
H897 H 0.08782 0.38456 0.97715 0.0
C898 C 0.04246 0.41254 0.98011 0.0
C899 C 0.01714 0.42517 0.97958 0.0
C900 C 0.04287 0.38777 0.96553 0.0
C901 C 0.99206 0.41259 0.96464 0.0
C902 C 0.99223 0.38785 0.9502 0.0
C903 C 0.01805 0.35064 0.93567 0.0
C904 C 0.04355 0.33823 0.9358 0.0
C905 C 0.01756 0.37532 0.9504 0.0
C906 C 0.06854 0.35083 0.95096 0.0
C907 C 0.06821 0.37533 0.96569 0.0
H908 H 0.6652 0.84543 0.26446 0.0
H909 H 0.68036 0.75845 0.2839 0.0
H910 H 0.63847 0.74915 0.31461 0.0
H911 H 0.59818 0.76599 0.3366 0.0
H912 H 0.58329 0.85317 0.31751 0.0
H913 H 0.6247 0.86219 0.28626 0.0
C914 C 0.65947 0.82449 0.27559 0.0
C915 C 0.67596 0.80269 0.27195 0.0
C916 C 0.63549 0.81936 0.29334 0.0
C917 C 0.66789 0.77552 0.28611 0.0
C918 C 0.64405 0.77024 0.3038 0.0
C919 C 0.60396 0.78698 0.32563 0.0
C920 C 0.58765 0.80888 0.32948 0.0
C921 C 0.62777 0.79203 0.30765 0.0
C922 C 0.59544 0.83591 0.31498 0.0
C923 C 0.61913 0.84111 0.29709 0.0
H924 H 0.03939 0.14019 0.0415 0.0
H925 H 0.04441 0.08824 0.97121 0.0
H926 H 0.0355 0.12804 0.93821 0.0
H927 H 0.02652 0.17763 0.92924 0.0
H928 H 0.01951 0.22888 0.99958 0.0
H929 H 0.02821 0.18898 0.03261 0.0
C930 C 0.03812 0.13736 0.01899 0.0
C931 C 0.04272 0.11121 0.00894 0.0
C932 C 0.0325 0.16018 1.00011 0.0
C933 C 0.0415 0.10825 0.97961 0.0
C934 C 0.03618 0.13094 0.96069 0.0
C935 C 0.02681 0.18007 0.95179 0.0
C936 C 0.02248 0.20627 0.96188 0.0
C937 C 0.03175 0.15702 0.9707 0.0
C938 C 0.02275 0.20897 0.9912 0.0
C939 C 0.02781 0.18618 0.01012 0.0
H940 H 0.34831 0.23878 0.24179 0.0
H941 H 0.36014 0.32899 0.2152 0.0
H942 H 0.40333 0.32428 0.18914 0.0
H943 H 0.43704 0.29417 0.17328 0.0
H944 H 0.42445 0.20363 0.19945 0.0
H945 H 0.38223 0.20878 0.22624 0.0
C946 C 0.36043 0.25738 0.23031 0.0
C947 C 0.35118 0.2842 0.2303 0.0
C948 C 0.385 0.25441 0.21526 0.0
C949 C 0.367 0.30817 0.21542 0.0
C950 C 0.39159 0.30545 0.20054 0.0
C951 C 0.4251 0.27557 0.18487 0.0
C952 C 0.43394 0.24854 0.18427 0.0
C953 C 0.40071 0.27863 0.20018 0.0
C954 C 0.41816 0.22468 0.19944 0.0
C955 C 0.39398 0.22759 0.21481 0.0
H956 H 0.58061 0.41916 0.02868 0.0
H957 H 0.49531 0.44349 0.01643 0.0
H958 H 0.47363 0.39949 0.0431 0.0
H959 H 0.47914 0.35474 0.07112 0.0
H960 H 0.56493 0.33168 0.08466 0.0
H961 H 0.58617 0.37483 0.05671 0.0
C962 C 0.5573 0.41502 0.03206 0.0
C963 C 0.53967 0.43471 0.02062 0.0
C964 C 0.54506 0.38995 0.04779 0.0
C965 C 0.50939 0.4286 0.0247 0.0
C966 C 0.49699 0.40352 0.04014 0.0
C967 C 0.50247 0.35912 0.06793 0.0
C968 C 0.52038 0.33998 0.08004 0.0
C969 C 0.51464 0.38412 0.05193 0.0
C970 C 0.5506 0.34605 0.07569 0.0
C971 C 0.5628 0.37072 0.05967 0.0
H972 H 0.66396 0.22982 0.24038 0.0
H973 H 0.6185 0.23504 0.31673 0.0
H974 H 0.5747 0.24237 0.28891 0.0
H975 H 0.5497 0.24867 0.24293 0.0
H976 H 0.59474 0.24251 0.16652 0.0
H977 H 0.6381 0.23375 0.19437 0.0
C978 C 0.64434 0.23214 0.25095 0.0
C979 C 0.64463 0.23212 0.28059 0.0
C980 C 0.61915 0.23625 0.23482 0.0
C981 C 0.61907 0.23549 0.29392 0.0
C982 C 0.59395 0.23955 0.27804 0.0
C983 C 0.56896 0.24534 0.23235 0.0
C984 C 0.56898 0.24643 0.20267 0.0
C985 C 0.59384 0.24028 0.24847 0.0
C986 C 0.5941 0.24186 0.18933 0.0
C987 C 0.61895 0.23686 0.20524 0.0
H988 H 0.4636 0.11806 0.01934 0.0
H989 H 0.5537 0.10603 0.02094 0.0
H990 H 0.56758 0.14809 0.04863 0.0
H991 H 0.55379 0.18678 0.07442 0.0
H992 H 0.46326 0.1971 0.07479 0.0
H993 H 0.44987 0.15682 0.04475 0.0
C994 C 0.48627 0.12446 0.02591 0.0
C995 C 0.50752 0.10872 0.01816 0.0
C996 C 0.494 0.14824 0.04238 0.0
C997 C 0.53689 0.11785 0.02631 0.0
C998 C 0.54483 0.14178 0.04237 0.0
C999 C 0.53113 0.18031 0.06785 0.0
C1000 C 0.50956 0.19491 0.07693 0.0
C1001 C 0.52351 0.15693 0.05079 0.0
C1002 C 0.48031 0.18619 0.06823 0.0
C1003 C 0.47262 0.16317 0.05101 0.0
H1004 H 0.3005 0.35678 0.73912 0.0
H1005 H 0.23357 0.40829 0.71758 0.0
H1006 H 0.26878 0.45225 0.72408 0.0
H1007 H 0.31802 0.47581 0.73752 0.0
H1008 H 0.38462 0.4243 0.76124 0.0
H1009 H 0.35015 0.38055 0.75227 0.0
C1010 C 0.29382 0.37769 0.73555 0.0
C1011 C 0.26463 0.37944 0.72782 0.0
C1012 C 0.31402 0.40279 0.73992 0.0
C1013 C 0.25598 0.40654 0.72363 0.0
C1014 C 0.27606 0.43162 0.72734 0.0
C1015 C 0.32506 0.45503 0.74063 0.0
C1016 C 0.35385 0.45334 0.75006 0.0
C1017 C 0.30505 0.42997 0.73578 0.0
C1018 C 0.36254 0.42622 0.75412 0.0
C1019 C 0.34287 0.40118 0.74893 0.0
H1020 H 0.27842 0.67454 0.73685 0.0
H1021 H 0.29787 0.69828 0.82239 0.0
H1022 H 0.33013 0.66218 0.82964 0.0
H1023 H 0.3532 0.62436 0.8113 0.0
H1024 H 0.33388 0.6011 0.72538 0.0
H1025 H 0.30126 0.63653 0.71862 0.0
C1026 C 0.28969 0.6717 0.75707 0.0
C1027 C 0.28582 0.68889 0.77912 0.0
C1028 C 0.30827 0.65108 0.76097 0.0
C1029 C 0.30056 0.68514 0.8052 0.0
C1030 C 0.31898 0.66458 0.80931 0.0
C1031 C 0.34187 0.62701 0.79109 0.0
C1032 C 0.34608 0.61006 0.7689 0.0
C1033 C 0.32309 0.64749 0.78729 0.0
C1034 C 0.33112 0.61382 0.74286 0.0
C1035 C 0.31242 0.6341 0.73894 0.0
H1036 H 0.91424 0.50793 0.46832 0.0
H1037 H 0.93282 0.51404 0.55772 0.0
H1038 H 0.88811 0.48039 0.56819 0.0
H1039 H 0.84365 0.44966 0.55208 0.0
H1040 H 0.82499 0.44273 0.46275 0.0
H1041 H 0.86992 0.47619 0.45213 0.0
C1042 C 0.90864 0.50161 0.49007 0.0
C1043 C 0.92675 0.51353 0.51221 0.0
C1044 C 0.88286 0.48224 0.49596 0.0
C1045 C 0.91904 0.50543 0.54031 0.0
C1046 C 0.89354 0.48614 0.54632 0.0
C1047 C 0.84933 0.45549 0.53027 0.0
C1048 C 0.83093 0.44377 0.50826 0.0
C1049 C 0.8752 0.47457 0.52433 0.0
C1050 C 0.83875 0.45146 0.48012 0.0
C1051 C 0.86445 0.47057 0.47402 0.0
H1052 H 0.75 0.83354 0.7811 0.0
H1053 H 0.78142 0.86156 0.86301 0.0
H1054 H 0.74942 0.8978 0.85946 0.0
H1055 H 0.71351 0.92236 0.83263 0.0
H1056 H 0.68164 0.89427 0.75079 0.0
H1057 H 0.71278 0.85727 0.75479 0.0
C1058 C 0.7499 0.84768 0.7981 0.0
C1059 C 0.76813 0.84491 0.82225 0.0
C1060 C 0.73136 0.86844 0.79595 0.0
C1061 C 0.76744 0.86309 0.8443 0.0
C1062 C 0.74924 0.8839 0.84224 0.0
C1063 C 0.71325 0.9081 0.81569 0.0
C1064 C 0.69531 0.91123 0.79139 0.0
C1065 C 0.7312 0.88686 0.81812 0.0
C1066 C 0.6952 0.89239 0.76974 0.0
C1067 C 0.71308 0.87125 0.77197 0.0
H1068 H 0.6408 0.52664 0.97051 0.0
H1069 H 0.60732 0.51571 0.05465 0.0
H1070 H 0.65309 0.54221 0.0731 0.0
H1071 H 0.70214 0.56932 0.06527 0.0
H1072 H 0.73571 0.5809 0.9811 0.0
H1073 H 0.69042 0.55334 0.96277 0.0
C1074 C 0.6435 0.53023 0.99284 0.0
C1075 C 0.62071 0.51921 0.01117 0.0
C1076 C 0.6699 0.54554 0.00333 0.0
C1077 C 0.62465 0.52369 0.04014 0.0
C1078 C 0.65076 0.53894 0.0507 0.0
C1079 C 0.69966 0.56571 0.04293 0.0
C1080 C 0.72232 0.57722 0.02462 0.0
C1081 C 0.67351 0.55 0.03249 0.0
C1082 C 0.71866 0.57229 0.99571 0.0
C1083 C 0.69271 0.55659 0.98517 0.0
H1084 H 0.22876 0.66929 0.24915 0.0
H1085 H 0.29994 0.62188 0.26585 0.0
H1086 H 0.26517 0.57704 0.27185 0.0
H1087 H 0.21458 0.55109 0.27029 0.0
H1088 H 0.14373 0.59878 0.25221 0.0
H1089 H 0.17843 0.64363 0.24833 0.0
C1090 C 0.23671 0.64913 0.25395 0.0
C1091 C 0.26694 0.64895 0.25686 0.0
C1092 C 0.21666 0.62343 0.25689 0.0
C1093 C 0.2768 0.6227 0.26373 0.0
C1094 C 0.25693 0.59701 0.26694 0.0
C1095 C 0.20672 0.57129 0.26552 0.0
C1096 C 0.17657 0.5715 0.26141 0.0
C1097 C 0.22682 0.59708 0.26326 0.0
C1098 C 0.16678 0.59792 0.25538 0.0
C1099 C 0.18662 0.62362 0.25318 0.0
H1100 H 0.93781 0.52867 0.08134 0.0
H1101 H 0.9678 0.53624 0.99591 0.0
H1102 H 0.93387 0.56914 0.98191 0.0
H1103 H 0.89434 0.59434 0.99326 0.0
H1104 H 0.86449 0.58763 0.07868 0.0
H1105 H 0.89995 0.55631 0.09334 0.0
C1106 C 0.9372 0.53782 0.05976 0.0
C1107 C 0.95513 0.52963 0.03966 0.0
C1108 C 0.9176 0.5569 0.05178 0.0
C1109 C 0.95386 0.54162 0.01172 0.0
C1110 C 0.93455 0.5606 0.00369 0.0
C1111 C 0.89565 0.58618 0.01513 0.0
C1112 C 0.87659 0.59325 0.03475 0.0
C1113 C 0.91604 0.56809 0.02343 0.0
C1114 C 0.87881 0.58255 0.06306 0.0
C1115 C 0.89908 0.56455 0.07148 0.0
H1116 H 0.10444 0.95734 0.04114 0.0
H1117 H 0.12954 0.03095 0.98323 0.0
H1118 H 0.17395 0.01274 0.97253 0.0
H1119 H 0.20541 0.97575 0.97968 0.0
H1120 H 0.17985 0.90187 0.03752 0.0
H1121 H 0.1358 0.92021 0.04811 0.0
C1122 C 0.11964 0.96927 0.02612 0.0
C1123 C 0.11378 0.99527 0.01276 0.0
C1124 C 0.14496 0.95861 0.02006 0.0
C1125 C 0.13367 0.01076 0.99354 0.0
C1126 C 0.15898 1.00037 0.98747 0.0
C1127 C 0.19021 0.96364 0.99458 0.0
C1128 C 0.19599 0.93746 0.00776 0.0
C1129 C 0.16483 0.97429 1.00058 0.0
C1130 C 0.17599 0.92207 0.02702 0.0
C1131 C 0.15076 0.93254 0.03313 0.0
loop_
_geom_bond_atom_site_label_1
_geom_bond_atom_site_label_2
_geom_bond_distance
_geom_bond_site_symmetry_2
_ccdc_geom_bond_type
H0 C7 0.929 1_655 S
H1 C10 0.930 . S
H2 C12 0.929 1_556 S
H3 C4 0.969 . S
C4 H3 0.969 . S
C4 O5 1.550 1_565 S
C4 H6 0.973 . S
O5 C4 1.550 1_545 S
O5 C11 1.412 . S
H6 C4 0.973 . S
C7 H0 0.929 1_455 S
C7 C8 1.400 . S
C7 C9 1.364 . S
C8 C7 1.400 . S
C8 C12 1.377 . S
C9 C7 1.364 . S
C9 C10 1.374 . S
C10 H1 0.930 . S
C10 C9 1.374 . S
C10 C11 1.383 . S
C11 O5 1.412 . S
C11 C10 1.383 . S
C11 C12 1.394 . S
C12 H2 0.929 1_554 S
C12 C8 1.377 . S
C12 C11 1.394 . S
H13 C20 0.929 . S
H14 C23 0.930 . S
H15 C25 0.929 . S
H16 C17 0.969 . S
C17 H16 0.969 . S
C17 O18 1.550 . S
C17 H19 0.973 . S
O18 C17 1.550 . S
O18 C24 1.412 . S
H19 C17 0.973 . S
C20 H13 0.929 . S
C20 C21 1.400 . S
C20 C22 1.364 . S
C21 C20 1.400 . S
C21 C25 1.377 . S
C22 C20 1.364 . S
C22 C23 1.374 . S
C23 H14 0.930 . S
C23 C22 1.374 . S
C23 C24 1.383 . S
C24 O18 1.412 . S
C24 C23 1.383 . S
C24 C25 1.394 . S
C25 H15 0.929 . S
C25 C21 1.377 . S
C25 C24 1.394 . S
H26 C33 0.929 . S
H27 C36 0.930 . S
H28 C38 0.896 1_455 S
H29 C30 0.976 . S
C30 H29 0.976 . S
C30 O31 1.550 . S
C30 H32 0.973 . S
O31 C30 1.550 . S
O31 C37 1.412 . S
H32 C30 0.973 . S
C33 H26 0.929 . S
C33 C34 1.400 . S
C33 C35 1.364 . S
C34 C33 1.400 . S
C34 C38 1.390 . S
C35 C33 1.364 . S
C35 C36 1.374 . S
C36 H27 0.930 . S
C36 C35 1.374 . S
C36 C37 1.383 . S
C37 O31 1.412 . S
C37 C36 1.383 . S
C37 C38 1.416 . S
C38 H28 0.896 1_655 S
C38 C34 1.390 . S
C38 C37 1.416 . S
H39 C46 0.929 . S
H40 C49 0.930 . S
H41 C51 0.929 . S
H42 C43 0.969 . S
C43 H42 0.969 . S
C43 O44 1.550 . S
C43 H45 0.973 . S
O44 C43 1.550 . S
O44 C50 1.412 . S
H45 C43 0.973 . S
C46 H39 0.929 . S
C46 C47 1.400 . S
C46 C48 1.364 . S
C47 C46 1.400 . S
C47 C51 1.377 . S
C48 C46 1.364 . S
C48 C49 1.374 . S
C49 H40 0.930 . S
C49 C48 1.374 . S
C49 C50 1.383 . S
C50 O44 1.412 . S
C50 C49 1.383 . S
C50 C51 1.394 . S
C51 H41 0.929 . S
C51 C47 1.377 . S
C51 C50 1.394 . S
H52 C59 0.929 . S
H53 C62 0.930 . S
H54 C64 0.929 . S
H55 C56 0.969 1_655 S
C56 H55 0.969 1_455 S
C56 O57 1.550 . S
C56 H58 0.973 1_455 S
O57 C56 1.550 . S
O57 C63 1.412 . S
H58 C56 0.973 1_655 S
C59 H52 0.929 . S
C59 C60 1.418 . S
C59 C61 1.364 . S
C60 C59 1.418 . S
C60 C64 1.370 1_565 S
C61 C59 1.364 . S
C61 C62 1.374 . S
C62 H53 0.930 . S
C62 C61 1.374 . S
C62 C63 1.383 . S
C63 O57 1.412 . S
C63 C62 1.383 . S
C63 C64 1.394 1_565 S
C64 H54 0.929 . S
C64 C60 1.370 1_545 S
C64 C63 1.394 1_545 S
H65 C72 0.929 . S
H66 C75 0.930 . S
H67 C77 0.929 . S
H68 C69 0.969 . S
C69 H68 0.969 . S
C69 O70 1.550 . S
C69 H71 0.973 . S
O70 C69 1.550 . S
O70 C76 1.412 . S
H71 C69 0.973 . S
C72 H65 0.929 . S
C72 C73 1.400 . S
C72 C74 1.364 . S
C73 C72 1.400 . S
C73 C77 1.377 . S
C74 C72 1.364 . S
C74 C75 1.374 . S
C75 H66 0.930 . S
C75 C74 1.374 . S
C75 C76 1.383 . S
C76 O70 1.412 . S
C76 C75 1.383 . S
C76 C77 1.394 . S
C77 H67 0.929 . S
C77 C73 1.377 . S
C77 C76 1.394 . S
H78 C85 0.929 . S
H79 C88 0.930 . S
H80 C90 0.955 . S
H81 C82 0.969 . S
C82 H81 0.969 . S
C82 O83 1.550 . S
C82 H84 0.973 . S
O83 C82 1.550 . S
O83 C89 1.412 1_455 S
H84 C82 0.973 . S
C85 H78 0.929 . S
C85 C86 1.400 . S
C85 C87 1.364 . S
C86 C85 1.400 . S
C86 C90 1.350 1_655 S
C87 C85 1.364 . S
C87 C88 1.374 . S
C88 H79 0.930 . S
C88 C87 1.374 . S
C88 C89 1.383 . S
C89 O83 1.412 1_655 S
C89 C88 1.383 . S
C89 C90 1.395 1_655 S
C90 H80 0.955 . S
C90 C86 1.350 1_455 S
C90 C89 1.395 1_455 S
H91 C98 0.929 . S
H92 C101 0.930 . S
H93 C103 0.929 . S
H94 C95 0.969 . S
C95 H94 0.969 . S
C95 O96 1.550 . S
C95 H97 0.973 . S
O96 C95 1.550 . S
O96 C102 1.412 . S
H97 C95 0.973 . S
C98 H91 0.929 . S
C98 C99 1.400 . S
C98 C100 1.364 . S
C99 C98 1.400 . S
C99 C103 1.377 . S
C100 C98 1.364 . S
C100 C101 1.374 . S
C101 H92 0.930 . S
C101 C100 1.374 . S
C101 C102 1.383 . S
C102 O96 1.412 . S
C102 C101 1.383 . S
C102 C103 1.394 . S
C103 H93 0.929 . S
C103 C99 1.377 . S
C103 C102 1.394 . S
H104 C111 0.929 . S
H105 C114 0.930 . S
H106 C116 0.929 . S
H107 C108 0.969 . S
C108 H107 0.969 . S
C108 O109 1.550 . S
C108 H110 0.973 . S
O109 C108 1.550 . S
O109 C115 1.412 . S
H110 C108 0.973 . S
C111 H104 0.929 . S
C111 C112 1.400 . S
C111 C113 1.364 . S
C112 C111 1.400 . S
C112 C116 1.377 . S
C113 C111 1.364 . S
C113 C114 1.374 . S
C114 H105 0.930 . S
C114 C113 1.374 . S
C114 C115 1.383 . S
C115 O109 1.412 . S
C115 C114 1.383 . S
C115 C116 1.394 . S
C116 H106 0.929 . S
C116 C112 1.377 . S
C116 C115 1.394 . S
H117 C124 0.929 1_545 S
H118 C127 0.930 . S
H119 C129 0.929 . S
H120 C121 0.969 . S
C121 H120 0.969 . S
C121 O122 1.550 . S
C121 H123 0.973 . S
O122 C121 1.550 . S
O122 C128 1.412 . S
H123 C121 0.973 . S
C124 H117 0.929 1_565 S
C124 C125 1.400 . S
C124 C126 1.364 . S
C125 C124 1.400 . S
C125 C129 1.377 . S
C126 C124 1.364 . S
C126 C127 1.374 . S
C127 H118 0.930 . S
C127 C126 1.374 . S
C127 C128 1.383 . S
C128 O122 1.412 . S
C128 C127 1.383 . S
C128 C129 1.394 . S
C129 H119 0.929 . S
C129 C125 1.377 . S
C129 C128 1.394 . S
H130 C137 0.929 . S
H131 C140 0.930 . S
H132 C142 0.929 . S
H133 C134 0.969 . S
C134 H133 0.969 . S
C134 O135 1.550 . S
C134 H136 0.973 . S
O135 C134 1.550 . S
O135 C141 1.412 . S
H136 C134 0.973 . S
C137 H130 0.929 . S
C137 C138 1.400 . S
C137 C139 1.364 . S
C138 C137 1.400 . S
C138 C142 1.377 . S
C139 C137 1.364 . S
C139 C140 1.374 . S
C140 H131 0.930 . S
C140 C139 1.374 . S
C140 C141 1.383 . S
C141 O135 1.412 . S
C141 C140 1.383 . S
C141 C142 1.394 . S
C142 H132 0.929 . S
C142 C138 1.377 . S
C142 C141 1.394 . S
H143 C150 0.929 . S
H144 C153 0.930 . S
H145 C155 0.929 . S
H146 C147 0.969 . S
C147 H146 0.969 . S
C147 O148 1.550 . S
C147 H149 0.973 . S
O148 C147 1.550 . S
O148 C154 1.412 . S
H149 C147 0.973 . S
C150 H143 0.929 . S
C150 C151 1.400 . S
C150 C152 1.364 . S
C151 C150 1.400 . S
C151 C155 1.377 . S
C152 C150 1.364 . S
C152 C153 1.374 . S
C153 H144 0.930 . S
C153 C152 1.374 . S
C153 C154 1.383 . S
C154 O148 1.412 . S
C154 C153 1.383 . S
C154 C155 1.394 . S
C155 H145 0.929 . S
C155 C151 1.377 . S
C155 C154 1.394 . S
H156 C163 0.929 . S
H157 C166 0.930 . S
H158 C168 0.929 . S
H159 C160 0.969 . S
C160 H159 0.969 . S
C160 O161 1.550 . S
C160 H162 0.973 . S
O161 C160 1.550 . S
O161 C167 1.412 . S
H162 C160 0.973 . S
C163 H156 0.929 . S
C163 C164 1.400 . S
C163 C165 1.364 . S
C164 C163 1.400 . S
C164 C168 1.377 . S
C165 C163 1.364 . S
C165 C166 1.374 . S
C166 H157 0.930 . S
C166 C165 1.374 . S
C166 C167 1.383 . S
C167 O161 1.412 . S
C167 C166 1.383 . S
C167 C168 1.394 . S
C168 H158 0.929 . S
C168 C164 1.377 . S
C168 C167 1.394 . S
H169 C176 0.929 1_554 S
H170 C179 0.930 . S
H171 C181 0.929 . S
H172 C173 0.969 . S
C173 H172 0.969 . S
C173 O174 1.550 . S
C173 H175 0.973 . S
O174 C173 1.550 . S
O174 C180 1.412 . S
H175 C173 0.973 . S
C176 H169 0.929 1_556 S
C176 C177 1.400 . S
C176 C178 1.364 . S
C177 C176 1.400 . S
C177 C181 1.377 . S
C178 C176 1.364 . S
C178 C179 1.374 . S
C179 H170 0.930 . S
C179 C178 1.374 . S
C179 C180 1.383 . S
C180 O174 1.412 . S
C180 C179 1.383 . S
C180 C181 1.394 . S
C181 H171 0.929 . S
C181 C177 1.377 . S
C181 C180 1.394 . S
H182 C189 0.929 . S
H183 C192 0.930 . S
H184 C194 0.929 . S
H185 C186 0.969 . S
C186 H185 0.969 . S
C186 O187 1.550 . S
C186 H188 0.973 . S
O187 C186 1.550 . S
O187 C193 1.412 . S
H188 C186 0.973 . S
C189 H182 0.929 . S
C189 C190 1.400 . S
C189 C191 1.364 . S
C190 C189 1.400 . S
C190 C194 1.377 . S
C191 C189 1.364 . S
C191 C192 1.374 . S
C192 H183 0.930 . S
C192 C191 1.374 . S
C192 C193 1.383 . S
C193 O187 1.412 . S
C193 C192 1.383 . S
C193 C194 1.394 . S
C194 H184 0.929 . S
C194 C190 1.377 . S
C194 C193 1.394 . S
H195 C202 0.929 . S
H196 C205 0.930 . S
H197 C207 0.929 . S
H198 C199 0.969 . S
C199 H198 0.969 . S
C199 O200 1.550 . S
C199 H201 0.973 . S
O200 C199 1.550 . S
O200 C206 1.412 . S
H201 C199 0.973 . S
C202 H195 0.929 . S
C202 C203 1.400 . S
C202 C204 1.364 1_554 S
C203 C202 1.400 . S
C203 C207 1.377 1_554 S
C204 C202 1.364 1_556 S
C204 C205 1.374 . S
C205 H196 0.930 . S
C205 C204 1.374 . S
C205 C206 1.383 . S
C206 O200 1.412 . S
C206 C205 1.383 . S
C206 C207 1.394 . S
C207 H197 0.929 . S
C207 C203 1.377 1_556 S
C207 C206 1.394 . S
C208 O209 1.179 . S
C208 O215 1.172 1_556 S
O209 C208 1.179 . S
O210 Zn211 1.899 1_556 S
O210 C218 1.284 . S
Zn211 O210 1.899 1_554 S
Zn211 O212 2.032 1_554 S
Zn211 O215 2.086 . S
Zn211 O220 1.977 . S
O212 Zn211 2.032 1_556 S
O212 C216 1.280 . S
C213 O214 1.203 . S
C213 O220 1.267 . S
O214 C213 1.203 . S
O215 C208 1.172 1_554 S
O215 Zn211 2.086 . S
C216 O212 1.280 . S
C216 O217 1.206 1_556 S
O217 C216 1.206 1_554 S
C218 O210 1.284 . S
C218 O219 1.273 . S
O219 C218 1.273 . S
O220 Zn211 1.977 . S
O220 C213 1.267 . S
C221 O222 1.160 . S
C221 O228 1.185 . S
O222 C221 1.160 . S
O223 Zn224 1.899 . S
O223 C231 1.284 . S
Zn224 O223 1.899 . S
Zn224 O225 2.032 . S
Zn224 O228 2.086 . S
Zn224 O233 1.977 . S
O225 Zn224 2.032 . S
O225 C229 1.278 . S
C226 O227 1.203 . S
C226 O233 1.267 . S
O227 C226 1.203 . S
O228 C221 1.185 . S
O228 Zn224 2.086 . S
C229 O225 1.278 . S
C229 O230 1.211 . S
O230 C229 1.211 . S
C231 O223 1.284 . S
C231 O232 1.273 . S
O232 C231 1.273 . S
O233 Zn224 1.977 . S
O233 C226 1.267 . S
C234 O235 1.160 . S
C234 O241 1.185 . S
O235 C234 1.160 . S
O236 Zn237 1.899 . S
O236 C244 1.284 1_554 S
Zn237 O236 1.899 . S
Zn237 O238 2.032 . S
Zn237 O241 2.086 . S
Zn237 O246 1.977 . S
O238 Zn237 2.032 . S
O238 C242 1.278 . S
C239 O240 1.203 . S
C239 O246 1.267 . S
O240 C239 1.203 . S
O241 C234 1.185 . S
O241 Zn237 2.086 . S
C242 O238 1.278 . S
C242 O243 1.211 . S
O243 C242 1.211 . S
C244 O236 1.284 1_556 S
C244 O245 1.273 . S
O245 C244 1.273 . S
O246 Zn237 1.977 . S
O246 C239 1.267 . S
C247 O248 1.160 . S
C247 O254 1.185 . S
O248 C247 1.160 . S
O249 Zn250 1.899 . S
O249 C257 1.284 . S
Zn250 O249 1.899 . S
Zn250 O251 2.032 . S
Zn250 O254 2.086 . S
Zn250 O259 1.977 . S
O251 Zn250 2.032 . S
O251 C255 1.278 1_545 S
C252 O253 1.203 . S
C252 O259 1.267 . S
O253 C252 1.203 . S
O254 C247 1.185 . S
O254 Zn250 2.086 . S
C255 O251 1.278 1_565 S
C255 O256 1.211 . S
O256 C255 1.211 . S
C257 O249 1.284 . S
C257 O258 1.273 1_545 S
O258 C257 1.273 1_565 S
O259 Zn250 1.977 . S
O259 C252 1.267 . S
C260 O261 1.160 . S
C260 O267 1.185 . S
O261 C260 1.160 . S
O262 Zn263 1.899 . S
O262 C270 1.284 . S
Zn263 O262 1.899 . S
Zn263 O264 2.032 . S
Zn263 O267 2.086 . S
Zn263 O272 1.977 . S
O264 Zn263 2.032 . S
O264 C268 1.278 . S
C265 O266 1.203 . S
C265 O272 1.267 . S
O266 C265 1.203 . S
O267 C260 1.185 . S
O267 Zn263 2.086 . S
C268 O264 1.278 . S
C268 O269 1.211 . S
O269 C268 1.211 . S
C270 O262 1.284 . S
C270 O271 1.273 . S
O271 C270 1.273 . S
O272 Zn263 1.977 . S
O272 C265 1.267 . S
C273 O274 1.160 . S
C273 O280 1.185 . S
O274 C273 1.160 . S
O275 Zn276 1.899 . S
O275 C283 1.284 . S
Zn276 O275 1.899 . S
Zn276 O277 2.032 . S
Zn276 O280 2.086 . S
Zn276 O285 1.977 . S
O277 Zn276 2.032 . S
O277 C281 1.278 . S
C278 O279 1.203 . S
C278 O285 1.267 . S
O279 C278 1.203 . S
O280 C273 1.185 . S
O280 Zn276 2.086 . S
C281 O277 1.278 . S
C281 O282 1.211 . S
O282 C281 1.211 . S
C283 O275 1.284 . S
C283 O284 1.273 . S
O284 C283 1.273 . S
O285 Zn276 1.977 . S
O285 C278 1.267 . S
C286 O287 1.160 . S
C286 O293 1.185 . S
O287 C286 1.160 . S
O288 Zn289 1.899 . S
O288 C296 1.284 . S
Zn289 O288 1.899 . S
Zn289 O290 2.032 . S
Zn289 O293 2.086 . S
Zn289 O298 1.977 . S
O290 Zn289 2.032 . S
O290 C294 1.278 . S
C291 O292 1.203 . S
C291 O298 1.267 . S
O292 C291 1.203 . S
O293 C286 1.185 . S
O293 Zn289 2.086 . S
C294 O290 1.278 . S
C294 O295 1.211 . S
O295 C294 1.211 . S
C296 O288 1.284 . S
C296 O297 1.273 . S
O297 C296 1.273 . S
O298 Zn289 1.977 . S
O298 C291 1.267 . S
C299 O300 1.160 . S
C299 O306 1.185 . S
O300 C299 1.160 . S
O301 Zn302 1.899 . S
O301 C309 1.284 1_565 S
Zn302 O301 1.899 . S
Zn302 O303 2.032 1_565 S
Zn302 O306 2.086 . S
Zn302 O311 1.977 . S
O303 Zn302 2.032 1_545 S
O303 C307 1.278 . S
C304 O305 1.203 1_565 S
C304 O311 1.267 . S
O305 C304 1.203 1_545 S
O306 C299 1.185 . S
O306 Zn302 2.086 . S
C307 O303 1.278 . S
C307 O308 1.211 . S
O308 C307 1.211 . S
C309 O301 1.284 1_545 S
C309 O310 1.273 . S
O310 C309 1.273 . S
O311 Zn302 1.977 . S
O311 C304 1.267 . S
C312 O313 1.160 . S
C312 O319 1.185 1_655 S
O313 C312 1.160 . S
O314 Zn315 1.899 1_655 S
O314 C322 1.284 . S
Zn315 O314 1.899 1_455 S
Zn315 O316 2.032 1_455 S
Zn315 O319 2.086 . S
Zn315 O324 1.977 . S
O316 Zn315 2.032 1_655 S
O316 C320 1.278 1_655 S
C317 O318 1.203 . S
C317 O324 1.267 . S
O318 C317 1.203 . S
O319 C312 1.185 1_455 S
O319 Zn315 2.086 . S
C320 O316 1.278 1_455 S
C320 O321 1.211 . S
O321 C320 1.211 . S
C322 O314 1.284 . S
C322 O323 1.273 . S
O323 C322 1.273 . S
O324 Zn315 1.977 . S
O324 C317 1.267 . S
C325 O326 1.160 . S
C325 O332 1.185 . S
O326 C325 1.160 . S
O327 Zn328 1.899 . S
O327 C335 1.284 . S
Zn328 O327 1.899 . S
Zn328 O329 2.032 . S
Zn328 O332 2.086 . S
Zn328 O337 1.977 . S
O329 Zn328 2.032 . S
O329 C333 1.278 . S
C330 O331 1.203 . S
C330 O337 1.267 . S
O331 C330 1.203 . S
O332 C325 1.185 . S
O332 Zn328 2.086 . S
C333 O329 1.278 . S
C333 O334 1.211 . S
O334 C333 1.211 . S
C335 O327 1.284 . S
C335 O336 1.273 . S
O336 C335 1.273 . S
O337 Zn328 1.977 . S
O337 C330 1.267 . S
C338 O339 1.126 1_455 S
C338 O345 1.185 . S
O339 C338 1.126 1_655 S
O340 Zn341 1.900 1_655 S
O340 C348 1.284 . S
Zn341 O340 1.900 1_455 S
Zn341 O342 2.032 . S
Zn341 O345 2.086 . S
Zn341 O350 1.977 . S
O342 Zn341 2.032 . S
O342 C346 1.278 . S
C343 O344 1.203 . S
C343 O350 1.267 . S
O344 C343 1.203 . S
O345 C338 1.185 . S
O345 Zn341 2.086 . S
C346 O342 1.278 . S
C346 O347 1.211 . S
O347 C346 1.211 . S
C348 O340 1.284 . S
C348 O349 1.273 . S
O349 C348 1.273 . S
O350 Zn341 1.977 . S
O350 C343 1.267 . S
C351 O352 1.160 . S
C351 O358 1.185 . S
O352 C351 1.160 . S
O353 Zn354 1.899 . S
O353 C361 1.284 . S
Zn354 O353 1.899 . S
Zn354 O355 2.032 . S
Zn354 O358 2.086 . S
Zn354 O363 1.977 . S
O355 Zn354 2.032 . S
O355 C359 1.278 . S
C356 O357 1.203 . S
C356 O363 1.267 . S
O357 C356 1.203 . S
O358 C351 1.185 . S
O358 Zn354 2.086 . S
C359 O355 1.278 . S
C359 O360 1.211 . S
O360 C359 1.211 . S
C361 O353 1.284 . S
C361 O362 1.273 . S
O362 C361 1.273 . S
O363 Zn354 1.977 . S
O363 C356 1.267 . S
H364 C370 0.930 . S
H365 C373 0.930 . S
H366 C374 0.930 . S
H367 C375 0.930 . S
H368 C378 0.930 . S
H369 C379 0.930 . S
C370 H364 0.930 . S
C370 C371 1.355 . S
C370 C372 1.415 . S
C371 C370 1.355 . S
C371 C373 1.419 . S
C372 C370 1.415 . S
C372 C377 1.425 . S
C372 C379 1.409 . S
C373 H365 0.930 . S
C373 C371 1.419 . S
C373 C374 1.362 . S
C374 H366 0.930 . S
C374 C373 1.362 . S
C374 C377 1.409 . S
C375 H367 0.930 . S
C375 C376 1.355 . S
C375 C377 1.415 . S
C376 C375 1.355 . S
C376 C378 1.419 . S
C377 C372 1.425 . S
C377 C374 1.409 . S
C377 C375 1.415 . S
C378 H368 0.930 . S
C378 C376 1.419 . S
C378 C379 1.362 . S
C379 H369 0.930 . S
C379 C372 1.409 . S
C379 C378 1.362 . S
H380 C386 0.930 . S
H381 C389 0.930 . S
H382 C390 0.930 . S
H383 C391 0.930 . S
H384 C394 0.930 . S
H385 C395 0.930 . S
C386 H380 0.930 . S
C386 C387 1.355 . S
C386 C388 1.415 . S
C387 C386 1.355 . S
C387 C389 1.419 . S
C388 C386 1.415 . S
C388 C393 1.425 . S
C388 C395 1.409 . S
C389 H381 0.930 . S
C389 C387 1.419 . S
C389 C390 1.362 . S
C390 H382 0.930 . S
C390 C389 1.362 . S
C390 C393 1.409 . S
C391 H383 0.930 . S
C391 C392 1.355 . S
C391 C393 1.415 . S
C392 C391 1.355 . S
C392 C394 1.419 . S
C393 C388 1.425 . S
C393 C390 1.409 . S
C393 C391 1.415 . S
C394 H384 0.930 . S
C394 C392 1.419 . S
C394 C395 1.362 . S
C395 H385 0.930 . S
C395 C388 1.409 . S
C395 C394 1.362 . S
H396 C402 0.930 . S
H397 C405 0.930 . S
H398 C406 0.930 . S
H399 C407 0.930 . S
H400 C410 0.930 . S
H401 C411 0.930 . S
C402 H396 0.930 . S
C402 C403 1.355 . S
C402 C404 1.415 . S
C403 C402 1.355 . S
C403 C405 1.419 . S
C404 C402 1.415 . S
C404 C409 1.425 . S
C404 C411 1.409 . S
C405 H397 0.930 . S
C405 C403 1.419 . S
C405 C406 1.362 . S
C406 H398 0.930 . S
C406 C405 1.362 . S
C406 C409 1.409 . S
C407 H399 0.930 . S
C407 C408 1.355 . S
C407 C409 1.415 . S
C408 C407 1.355 . S
C408 C410 1.419 . S
C409 C404 1.425 . S
C409 C406 1.409 . S
C409 C407 1.415 . S
C410 H400 0.930 . S
C410 C408 1.419 . S
C410 C411 1.362 . S
C411 H401 0.930 . S
C411 C404 1.409 . S
C411 C410 1.362 . S
H412 C418 0.930 1_455 S
H413 C421 0.930 . S
H414 C422 0.930 . S
H415 C423 0.930 . S
H416 C426 0.930 . S
H417 C427 0.930 . S
C418 H412 0.930 1_655 S
C418 C419 1.355 1_545 S
C418 C420 1.415 . S
C419 C418 1.355 1_565 S
C419 C421 1.419 . S
C420 C418 1.415 . S
C420 C425 1.425 1_545 S
C420 C427 1.409 . S
C421 H413 0.930 . S
C421 C419 1.419 . S
C421 C422 1.362 . S
C422 H414 0.930 . S
C422 C421 1.362 . S
C422 C425 1.409 . S
C423 H415 0.930 . S
C423 C424 1.355 1_565 S
C423 C425 1.415 . S
C424 C423 1.355 1_545 S
C424 C426 1.419 . S
C425 C420 1.425 1_565 S
C425 C422 1.409 . S
C425 C423 1.415 . S
C426 H416 0.930 . S
C426 C424 1.419 . S
C426 C427 1.362 . S
C427 H417 0.930 . S
C427 C420 1.409 . S
C427 C426 1.362 . S
H428 C434 0.930 . S
H429 C437 0.930 . S
H430 C438 0.930 . S
H431 C439 0.930 . S
H432 C442 0.930 . S
H433 C443 0.930 . S
C434 H428 0.930 . S
C434 C435 1.355 . S
C434 C436 1.415 . S
C435 C434 1.355 . S
C435 C437 1.419 . S
C436 C434 1.415 . S
C436 C441 1.425 . S
C436 C443 1.409 . S
C437 H429 0.930 . S
C437 C435 1.419 . S
C437 C438 1.362 . S
C438 H430 0.930 . S
C438 C437 1.362 . S
C438 C441 1.409 . S
C439 H431 0.930 . S
C439 C440 1.355 . S
C439 C441 1.415 . S
C440 C439 1.355 . S
C440 C442 1.419 . S
C441 C436 1.425 . S
C441 C438 1.409 . S
C441 C439 1.415 . S
C442 H432 0.930 . S
C442 C440 1.419 . S
C442 C443 1.362 . S
C443 H433 0.930 . S
C443 C436 1.409 . S
C443 C442 1.362 . S
H444 C450 0.930 . S
H445 C453 0.930 . S
H446 C454 0.930 . S
H447 C455 0.930 . S
H448 C458 0.930 . S
H449 C459 0.930 . S
C450 H444 0.930 . S
C450 C451 1.355 . S
C450 C452 1.415 . S
C451 C450 1.355 . S
C451 C453 1.419 . S
C452 C450 1.415 . S
C452 C457 1.425 . S
C452 C459 1.409 . S
C453 H445 0.930 . S
C453 C451 1.419 . S
C453 C454 1.362 . S
C454 H446 0.930 . S
C454 C453 1.362 . S
C454 C457 1.409 . S
C455 H447 0.930 . S
C455 C456 1.355 . S
C455 C457 1.415 . S
C456 C455 1.355 . S
C456 C458 1.419 . S
C457 C452 1.425 . S
C457 C454 1.409 . S
C457 C455 1.415 . S
C458 H448 0.930 . S
C458 C456 1.419 . S
C458 C459 1.362 . S
C459 H449 0.930 . S
C459 C452 1.409 . S
C459 C458 1.362 . S
H460 C466 0.930 . S
H461 C469 0.930 . S
H462 C470 0.930 . S
H463 C471 0.930 . S
H464 C474 0.930 . S
H465 C475 0.930 . S
C466 H460 0.930 . S
C466 C467 1.355 . S
C466 C468 1.415 . S
C467 C466 1.355 . S
C467 C469 1.419 . S
C468 C466 1.415 . S
C468 C473 1.425 . S
C468 C475 1.409 . S
C469 H461 0.930 . S
C469 C467 1.419 . S
C469 C470 1.362 . S
C470 H462 0.930 . S
C470 C469 1.362 . S
C470 C473 1.409 . S
C471 H463 0.930 . S
C471 C472 1.355 . S
C471 C473 1.415 . S
C472 C471 1.355 . S
C472 C474 1.419 . S
C473 C468 1.425 . S
C473 C470 1.409 . S
C473 C471 1.415 . S
C474 H464 0.930 . S
C474 C472 1.419 . S
C474 C475 1.362 . S
C475 H465 0.930 . S
C475 C468 1.409 . S
C475 C474 1.362 . S
H476 C482 0.931 . S
H477 C485 0.930 . S
H478 C486 0.930 . S
H479 C487 0.930 . S
H480 C490 0.930 . S
H481 C491 0.930 . S
C482 H476 0.931 . S
C482 C483 1.355 . S
C482 C484 1.415 . S
C483 C482 1.355 . S
C483 C485 1.419 . S
C484 C482 1.415 . S
C484 C489 1.425 . S
C484 C491 1.409 1_565 S
C485 H477 0.930 . S
C485 C483 1.419 . S
C485 C486 1.362 . S
C486 H478 0.930 . S
C486 C485 1.362 . S
C486 C489 1.409 . S
C487 H479 0.930 . S
C487 C488 1.355 . S
C487 C489 1.415 . S
C488 C487 1.355 . S
C488 C490 1.419 1_565 S
C489 C484 1.425 . S
C489 C486 1.409 . S
C489 C487 1.415 . S
C490 H480 0.930 . S
C490 C488 1.419 1_545 S
C490 C491 1.362 . S
C491 H481 0.930 . S
C491 C484 1.409 1_545 S
C491 C490 1.362 . S
H492 C498 0.930 . S
H493 C501 0.930 . S
H494 C502 0.930 . S
H495 C503 0.930 . S
H496 C506 0.930 . S
H497 C507 0.930 . S
C498 H492 0.930 . S
C498 C499 1.355 . S
C498 C500 1.415 . S
C499 C498 1.355 . S
C499 C501 1.419 . S
C500 C498 1.415 . S
C500 C505 1.425 . S
C500 C507 1.409 . S
C501 H493 0.930 . S
C501 C499 1.419 . S
C501 C502 1.362 . S
C502 H494 0.930 . S
C502 C501 1.362 . S
C502 C505 1.409 . S
C503 H495 0.930 . S
C503 C504 1.355 . S
C503 C505 1.415 . S
C504 C503 1.355 . S
C504 C506 1.419 . S
C505 C500 1.425 . S
C505 C502 1.409 . S
C505 C503 1.415 . S
C506 H496 0.930 . S
C506 C504 1.419 . S
C506 C507 1.362 . S
C507 H497 0.930 . S
C507 C500 1.409 . S
C507 C506 1.362 . S
H508 C514 0.930 . S
H509 C517 0.930 . S
H510 C518 0.930 . S
H511 C519 0.930 . S
H512 C522 0.930 . S
H513 C523 0.930 . S
C514 H508 0.930 . S
C514 C515 1.355 . S
C514 C516 1.415 . S
C515 C514 1.355 . S
C515 C517 1.419 . S
C516 C514 1.415 . S
C516 C521 1.425 . S
C516 C523 1.409 . S
C517 H509 0.930 . S
C517 C515 1.419 . S
C517 C518 1.362 . S
C518 H510 0.930 . S
C518 C517 1.362 . S
C518 C521 1.409 . S
C519 H511 0.930 . S
C519 C520 1.355 . S
C519 C521 1.415 . S
C520 C519 1.355 . S
C520 C522 1.419 . S
C521 C516 1.425 . S
C521 C518 1.409 . S
C521 C519 1.415 . S
C522 H512 0.930 . S
C522 C520 1.419 . S
C522 C523 1.362 . S
C523 H513 0.930 . S
C523 C516 1.409 . S
C523 C522 1.362 . S
H524 C530 0.930 . S
H525 C533 0.930 . S
H526 C534 0.930 . S
H527 C535 0.930 . S
H528 C538 0.930 . S
H529 C539 0.930 . S
C530 H524 0.930 . S
C530 C531 1.355 . S
C530 C532 1.415 . S
C531 C530 1.355 . S
C531 C533 1.419 . S
C532 C530 1.415 . S
C532 C537 1.425 . S
C532 C539 1.409 . S
C533 H525 0.930 . S
C533 C531 1.419 . S
C533 C534 1.362 . S
C534 H526 0.930 . S
C534 C533 1.362 . S
C534 C537 1.409 . S
C535 H527 0.930 . S
C535 C536 1.355 . S
C535 C537 1.415 . S
C536 C535 1.355 . S
C536 C538 1.419 . S
C537 C532 1.425 . S
C537 C534 1.409 . S
C537 C535 1.415 . S
C538 H528 0.930 . S
C538 C536 1.419 . S
C538 C539 1.362 . S
C539 H529 0.930 . S
C539 C532 1.409 . S
C539 C538 1.362 . S
H540 C546 0.930 . S
H541 C549 0.930 . S
H542 C550 0.930 . S
H543 C551 0.930 . S
H544 C554 0.930 . S
H545 C555 0.930 . S
C546 H540 0.930 . S
C546 C547 1.355 . S
C546 C548 1.415 . S
C547 C546 1.355 . S
C547 C549 1.419 . S
C548 C546 1.415 . S
C548 C553 1.425 . S
C548 C555 1.409 . S
C549 H541 0.930 . S
C549 C547 1.419 . S
C549 C550 1.362 . S
C550 H542 0.930 . S
C550 C549 1.362 . S
C550 C553 1.409 . S
C551 H543 0.930 . S
C551 C552 1.355 . S
C551 C553 1.415 . S
C552 C551 1.355 . S
C552 C554 1.419 . S
C553 C548 1.425 . S
C553 C550 1.409 . S
C553 C551 1.415 . S
C554 H544 0.930 . S
C554 C552 1.419 . S
C554 C555 1.362 . S
C555 H545 0.930 . S
C555 C548 1.409 . S
C555 C554 1.362 . S
H556 C562 0.930 . S
H557 C565 0.930 . S
H558 C566 0.930 . S
H559 C567 0.930 . S
H560 C570 0.930 . S
H561 C571 0.930 . S
C562 H556 0.930 . S
C562 C563 1.355 . S
C562 C564 1.415 . S
C563 C562 1.355 . S
C563 C565 1.419 . S
C564 C562 1.415 . S
C564 C569 1.425 . S
C564 C571 1.409 . S
C565 H557 0.930 . S
C565 C563 1.419 . S
C565 C566 1.362 . S
C566 H558 0.930 . S
C566 C565 1.362 . S
C566 C569 1.409 . S
C567 H559 0.930 . S
C567 C568 1.355 . S
C567 C569 1.415 . S
C568 C567 1.355 . S
C568 C570 1.419 . S
C569 C564 1.425 . S
C569 C566 1.409 . S
C569 C567 1.415 . S
C570 H560 0.930 . S
C570 C568 1.419 . S
C570 C571 1.362 . S
C571 H561 0.930 . S
C571 C564 1.409 . S
C571 C570 1.362 . S
H572 C578 0.930 . S
H573 C581 0.930 . S
H574 C582 0.930 . S
H575 C583 0.930 . S
H576 C586 0.930 . S
H577 C587 0.930 . S
C578 H572 0.930 . S
C578 C579 1.355 . S
C578 C580 1.415 . S
C579 C578 1.355 . S
C579 C581 1.419 . S
C580 C578 1.415 . S
C580 C585 1.425 . S
C580 C587 1.409 . S
C581 H573 0.930 . S
C581 C579 1.419 . S
C581 C582 1.362 . S
C582 H574 0.930 . S
C582 C581 1.362 . S
C582 C585 1.409 . S
C583 H575 0.930 . S
C583 C584 1.355 . S
C583 C585 1.415 . S
C584 C583 1.355 . S
C584 C586 1.419 . S
C585 C580 1.425 . S
C585 C582 1.409 . S
C585 C583 1.415 . S
C586 H576 0.930 . S
C586 C584 1.419 . S
C586 C587 1.362 . S
C587 H577 0.930 . S
C587 C580 1.409 . S
C587 C586 1.362 . S
H588 C594 0.930 . S
H589 C597 0.930 . S
H590 C598 0.930 . S
H591 C599 0.930 . S
H592 C602 0.930 . S
H593 C603 0.930 . S
C594 H588 0.930 . S
C594 C595 1.355 . S
C594 C596 1.415 . S
C595 C594 1.355 . S
C595 C597 1.419 . S
C596 C594 1.415 . S
C596 C601 1.425 . S
C596 C603 1.409 . S
C597 H589 0.930 . S
C597 C595 1.419 . S
C597 C598 1.362 . S
C598 H590 0.930 . S
C598 C597 1.362 . S
C598 C601 1.409 . S
C599 H591 0.930 . S
C599 C600 1.355 . S
C599 C601 1.415 . S
C600 C599 1.355 . S
C600 C602 1.419 . S
C601 C596 1.425 . S
C601 C598 1.409 . S
C601 C599 1.415 . S
C602 H592 0.930 . S
C602 C600 1.419 . S
C602 C603 1.362 . S
C603 H593 0.930 . S
C603 C596 1.409 . S
C603 C602 1.362 . S
H604 C610 0.930 . S
H605 C613 0.930 . S
H606 C614 0.930 . S
H607 C615 0.930 . S
H608 C618 0.930 . S
H609 C619 0.930 . S
C610 H604 0.930 . S
C610 C611 1.355 . S
C610 C612 1.415 . S
C611 C610 1.355 . S
C611 C613 1.419 1_655 S
C612 C610 1.415 . S
C612 C617 1.425 1_655 S
C612 C619 1.409 . S
C613 H605 0.930 . S
C613 C611 1.419 1_455 S
C613 C614 1.362 . S
C614 H606 0.930 . S
C614 C613 1.362 . S
C614 C617 1.409 . S
C615 H607 0.930 . S
C615 C616 1.356 . S
C615 C617 1.415 . S
C616 C615 1.356 . S
C616 C618 1.417 1_455 S
C617 C612 1.425 1_455 S
C617 C614 1.409 . S
C617 C615 1.415 . S
C618 H608 0.930 . S
C618 C616 1.417 1_655 S
C618 C619 1.362 . S
C619 H609 0.930 . S
C619 C612 1.409 . S
C619 C618 1.362 . S
H620 C626 0.930 . S
H621 C629 0.930 . S
H622 C630 0.930 . S
H623 C631 0.930 . S
H624 C634 0.930 . S
H625 C635 0.930 . S
C626 H620 0.930 . S
C626 C627 1.355 . S
C626 C628 1.415 . S
C627 C626 1.355 . S
C627 C629 1.419 . S
C628 C626 1.415 . S
C628 C633 1.425 . S
C628 C635 1.409 . S
C629 H621 0.930 . S
C629 C627 1.419 . S
C629 C630 1.362 . S
C630 H622 0.930 . S
C630 C629 1.362 . S
C630 C633 1.409 . S
C631 H623 0.930 . S
C631 C632 1.355 . S
C631 C633 1.415 . S
C632 C631 1.355 . S
C632 C634 1.419 . S
C633 C628 1.425 . S
C633 C630 1.409 . S
C633 C631 1.415 . S
C634 H624 0.930 . S
C634 C632 1.419 . S
C634 C635 1.362 . S
C635 H625 0.930 . S
C635 C628 1.409 . S
C635 C634 1.362 . S
H636 C642 0.930 . S
H637 C645 0.930 . S
H638 C646 0.930 . S
H639 C647 0.930 . S
H640 C650 0.930 . S
H641 C651 0.930 . S
C642 H636 0.930 . S
C642 C643 1.355 . S
C642 C644 1.415 . S
C643 C642 1.355 . S
C643 C645 1.419 . S
C644 C642 1.415 . S
C644 C649 1.425 . S
C644 C651 1.409 . S
C645 H637 0.930 . S
C645 C643 1.419 . S
C645 C646 1.362 . S
C646 H638 0.930 . S
C646 C645 1.362 . S
C646 C649 1.409 . S
C647 H639 0.930 . S
C647 C648 1.355 . S
C647 C649 1.415 . S
C648 C647 1.355 . S
C648 C650 1.419 . S
C649 C644 1.425 . S
C649 C646 1.409 . S
C649 C647 1.415 . S
C650 H640 0.930 . S
C650 C648 1.419 . S
C650 C651 1.362 . S
C651 H641 0.930 . S
C651 C644 1.409 . S
C651 C650 1.362 . S
H652 C658 0.930 . S
H653 C661 0.930 . S
H654 C662 0.930 . S
H655 C663 0.930 . S
H656 C666 0.930 . S
H657 C667 0.918 1_545 S
C658 H652 0.930 . S
C658 C659 1.355 . S
C658 C660 1.430 . S
C659 C658 1.355 . S
C659 C661 1.419 1_556 S
C660 C658 1.430 . S
C660 C665 1.408 1_546 S
C660 C667 1.413 1_545 S
C661 H653 0.930 . S
C661 C659 1.419 1_554 S
C661 C662 1.362 1_545 S
C662 H654 0.930 . S
C662 C661 1.362 1_565 S
C662 C665 1.409 . S
C663 H655 0.930 . S
C663 C664 1.355 1_554 S
C663 C665 1.415 . S
C664 C663 1.355 1_556 S
C664 C666 1.419 . S
C665 C660 1.408 1_564 S
C665 C662 1.409 . S
C665 C663 1.415 . S
C666 H656 0.930 . S
C666 C664 1.419 . S
C666 C667 1.374 . S
C667 H657 0.918 1_565 S
C667 C660 1.413 1_565 S
C667 C666 1.374 . S
H668 C674 0.930 . S
H669 C677 0.930 . S
H670 C678 0.930 . S
H671 C679 0.930 . S
H672 C682 0.930 . S
H673 C683 0.930 . S
C674 H668 0.930 . S
C674 C675 1.355 . S
C674 C676 1.415 . S
C675 C674 1.355 . S
C675 C677 1.419 . S
C676 C674 1.415 . S
C676 C681 1.425 . S
C676 C683 1.409 . S
C677 H669 0.930 . S
C677 C675 1.419 . S
C677 C678 1.362 . S
C678 H670 0.930 . S
C678 C677 1.362 . S
C678 C681 1.409 . S
C679 H671 0.930 . S
C679 C680 1.355 . S
C679 C681 1.415 . S
C680 C679 1.355 . S
C680 C682 1.419 . S
C681 C676 1.425 . S
C681 C678 1.409 . S
C681 C679 1.415 . S
C682 H672 0.930 . S
C682 C680 1.419 . S
C682 C683 1.362 . S
C683 H673 0.930 . S
C683 C676 1.409 . S
C683 C682 1.362 . S
H684 C690 0.930 . S
H685 C693 0.930 . S
H686 C694 0.941 . S
H687 C695 0.930 . S
H688 C698 0.930 . S
H689 C699 0.930 . S
C690 H684 0.930 . S
C690 C691 1.355 . S
C690 C692 1.415 . S
C691 C690 1.355 . S
C691 C693 1.419 1_545 S
C692 C690 1.415 . S
C692 C697 1.425 . S
C692 C699 1.409 . S
C693 H685 0.930 . S
C693 C691 1.419 1_565 S
C693 C694 1.362 1_565 S
C694 H686 0.941 . S
C694 C693 1.362 1_545 S
C694 C697 1.409 . S
C695 H687 0.930 . S
C695 C696 1.355 . S
C695 C697 1.415 . S
C696 C695 1.355 . S
C696 C698 1.419 . S
C697 C692 1.425 . S
C697 C694 1.409 . S
C697 C695 1.415 . S
C698 H688 0.930 . S
C698 C696 1.419 . S
C698 C699 1.362 . S
C699 H689 0.930 . S
C699 C692 1.409 . S
C699 C698 1.362 . S
H700 C706 0.930 . S
H701 C709 0.930 . S
H702 C710 0.930 . S
H703 C711 0.930 . S
H704 C714 0.930 . S
H705 C715 0.930 . S
C706 H700 0.930 . S
C706 C707 1.355 . S
C706 C708 1.415 . S
C707 C706 1.355 . S
C707 C709 1.419 . S
C708 C706 1.415 . S
C708 C713 1.425 . S
C708 C715 1.409 . S
C709 H701 0.930 . S
C709 C707 1.419 . S
C709 C710 1.362 . S
C710 H702 0.930 . S
C710 C709 1.362 . S
C710 C713 1.409 . S
C711 H703 0.930 . S
C711 C712 1.355 . S
C711 C713 1.415 . S
C712 C711 1.355 . S
C712 C714 1.419 . S
C713 C708 1.425 . S
C713 C710 1.409 . S
C713 C711 1.415 . S
C714 H704 0.930 . S
C714 C712 1.419 . S
C714 C715 1.362 . S
C715 H705 0.930 . S
C715 C708 1.409 . S
C715 C714 1.362 . S
H716 C722 0.930 . S
H717 C725 0.930 . S
H718 C726 0.923 1_565 S
H719 C727 0.930 . S
H720 C730 0.930 . S
H721 C731 0.930 . S
C722 H716 0.930 . S
C722 C723 1.355 . S
C722 C724 1.415 . S
C723 C722 1.355 . S
C723 C725 1.419 1_545 S
C724 C722 1.415 . S
C724 C729 1.425 . S
C724 C731 1.409 . S
C725 H717 0.930 . S
C725 C723 1.419 1_565 S
C725 C726 1.352 1_565 S
C726 H718 0.923 1_545 S
C726 C725 1.352 1_545 S
C726 C729 1.426 . S
C727 H719 0.930 . S
C727 C728 1.355 . S
C727 C729 1.415 . S
C728 C727 1.355 . S
C728 C730 1.419 . S
C729 C724 1.425 . S
C729 C726 1.426 . S
C729 C727 1.415 . S
C730 H720 0.930 . S
C730 C728 1.419 . S
C730 C731 1.362 . S
C731 H721 0.930 . S
C731 C724 1.409 . S
C731 C730 1.362 . S
H732 C738 0.930 . S
H733 C741 0.930 . S
H734 C742 0.930 . S
H735 C743 0.930 . S
H736 C746 0.930 . S
H737 C747 0.930 . S
C738 H732 0.930 . S
C738 C739 1.355 . S
C738 C740 1.415 . S
C739 C738 1.355 . S
C739 C741 1.419 . S
C740 C738 1.415 . S
C740 C745 1.425 . S
C740 C747 1.409 . S
C741 H733 0.930 . S
C741 C739 1.419 . S
C741 C742 1.362 . S
C742 H734 0.930 . S
C742 C741 1.362 . S
C742 C745 1.409 . S
C743 H735 0.930 . S
C743 C744 1.355 . S
C743 C745 1.415 . S
C744 C743 1.355 . S
C744 C746 1.419 . S
C745 C740 1.425 . S
C745 C742 1.409 . S
C745 C743 1.415 . S
C746 H736 0.930 . S
C746 C744 1.419 . S
C746 C747 1.362 . S
C747 H737 0.930 . S
C747 C740 1.409 . S
C747 C746 1.362 . S
H748 C754 0.930 . S
H749 C757 0.930 . S
H750 C758 0.930 . S
H751 C759 0.930 . S
H752 C762 0.930 . S
H753 C763 0.930 . S
C754 H748 0.930 . S
C754 C755 1.355 . S
C754 C756 1.415 . S
C755 C754 1.355 . S
C755 C757 1.419 . S
C756 C754 1.415 . S
C756 C761 1.425 . S
C756 C763 1.409 . S
C757 H749 0.930 . S
C757 C755 1.419 . S
C757 C758 1.362 . S
C758 H750 0.930 . S
C758 C757 1.362 . S
C758 C761 1.409 . S
C759 H751 0.930 . S
C759 C760 1.355 . S
C759 C761 1.415 . S
C760 C759 1.355 . S
C760 C762 1.419 . S
C761 C756 1.425 . S
C761 C758 1.409 . S
C761 C759 1.415 . S
C762 H752 0.930 . S
C762 C760 1.419 . S
C762 C763 1.362 . S
C763 H753 0.930 . S
C763 C756 1.409 . S
C763 C762 1.362 . S
H764 C770 0.916 1_565 S
H765 C773 0.930 . S
H766 C774 0.930 . S
H767 C775 0.930 . S
H768 C778 0.930 . S
H769 C779 0.930 . S
C770 H764 0.916 1_545 S
C770 C771 1.355 . S
C770 C772 1.415 . S
C771 C770 1.355 . S
C771 C773 1.419 . S
C772 C770 1.415 . S
C772 C777 1.425 . S
C772 C779 1.409 1_545 S
C773 H765 0.930 . S
C773 C771 1.419 . S
C773 C774 1.362 . S
C774 H766 0.930 . S
C774 C773 1.362 . S
C774 C777 1.409 . S
C775 H767 0.930 . S
C775 C776 1.355 . S
C775 C777 1.415 . S
C776 C775 1.355 . S
C776 C778 1.419 1_545 S
C777 C772 1.425 . S
C777 C774 1.409 . S
C777 C775 1.415 . S
C778 H768 0.930 . S
C778 C776 1.419 1_565 S
C778 C779 1.362 . S
C779 H769 0.930 . S
C779 C772 1.409 1_565 S
C779 C778 1.362 . S
H780 C786 0.930 . S
H781 C789 0.930 . S
H782 C790 0.930 . S
H783 C791 0.930 . S
H784 C794 0.930 . S
H785 C795 0.930 . S
C786 H780 0.930 . S
C786 C787 1.355 . S
C786 C788 1.415 . S
C787 C786 1.355 . S
C787 C789 1.419 . S
C788 C786 1.415 . S
C788 C793 1.425 . S
C788 C795 1.409 . S
C789 H781 0.930 . S
C789 C787 1.419 . S
C789 C790 1.362 . S
C790 H782 0.930 . S
C790 C789 1.362 . S
C790 C793 1.409 . S
C791 H783 0.930 . S
C791 C792 1.355 . S
C791 C793 1.415 . S
C792 C791 1.355 . S
C792 C794 1.419 . S
C793 C788 1.425 . S
C793 C790 1.409 . S
C793 C791 1.415 . S
C794 H784 0.930 . S
C794 C792 1.419 . S
C794 C795 1.362 . S
C795 H785 0.930 . S
C795 C788 1.409 . S
C795 C794 1.362 . S
H796 C802 0.930 . S
H797 C805 0.930 . S
H798 C806 0.930 . S
H799 C807 0.930 . S
H800 C810 0.930 . S
H801 C811 0.930 . S
C802 H796 0.930 . S
C802 C803 1.355 . S
C802 C804 1.415 . S
C803 C802 1.355 . S
C803 C805 1.419 . S
C804 C802 1.415 . S
C804 C809 1.425 . S
C804 C811 1.409 . S
C805 H797 0.930 . S
C805 C803 1.419 . S
C805 C806 1.362 . S
C806 H798 0.930 . S
C806 C805 1.362 . S
C806 C809 1.409 . S
C807 H799 0.930 . S
C807 C808 1.355 . S
C807 C809 1.415 . S
C808 C807 1.355 . S
C808 C810 1.419 . S
C809 C804 1.425 . S
C809 C806 1.409 . S
C809 C807 1.415 . S
C810 H800 0.930 . S
C810 C808 1.419 . S
C810 C811 1.362 . S
C811 H801 0.930 . S
C811 C804 1.409 . S
C811 C810 1.362 . S
H812 C818 0.930 . S
H813 C821 0.930 . S
H814 C822 0.930 . S
H815 C823 0.930 . S
H816 C826 0.930 . S
H817 C827 0.930 . S
C818 H812 0.930 . S
C818 C819 1.355 . S
C818 C820 1.415 . S
C819 C818 1.355 . S
C819 C821 1.419 . S
C820 C818 1.415 . S
C820 C825 1.425 . S
C820 C827 1.409 . S
C821 H813 0.930 . S
C821 C819 1.419 . S
C821 C822 1.362 . S
C822 H814 0.930 . S
C822 C821 1.362 . S
C822 C825 1.409 . S
C823 H815 0.930 . S
C823 C824 1.355 . S
C823 C825 1.415 . S
C824 C823 1.355 . S
C824 C826 1.419 . S
C825 C820 1.425 . S
C825 C822 1.409 . S
C825 C823 1.415 . S
C826 H816 0.930 . S
C826 C824 1.419 . S
C826 C827 1.362 . S
C827 H817 0.930 . S
C827 C820 1.409 . S
C827 C826 1.362 . S
H828 C834 0.930 . S
H829 C837 0.930 . S
H830 C838 0.930 1_455 S
H831 C839 0.930 . S
H832 C842 0.930 . S
H833 C843 0.930 . S
C834 H828 0.930 . S
C834 C835 1.355 . S
C834 C836 1.415 . S
C835 C834 1.355 . S
C835 C837 1.419 1_655 S
C836 C834 1.415 . S
C836 C841 1.425 . S
C836 C843 1.409 . S
C837 H829 0.930 . S
C837 C835 1.419 1_455 S
C837 C838 1.362 1_455 S
C838 H830 0.930 1_655 S
C838 C837 1.362 1_655 S
C838 C841 1.409 . S
C839 H831 0.930 . S
C839 C840 1.355 . S
C839 C841 1.415 . S
C840 C839 1.355 . S
C840 C842 1.419 . S
C841 C836 1.425 . S
C841 C838 1.409 . S
C841 C839 1.415 . S
C842 H832 0.930 . S
C842 C840 1.419 . S
C842 C843 1.362 . S
C843 H833 0.930 . S
C843 C836 1.409 . S
C843 C842 1.362 . S
H844 C850 0.930 . S
H845 C853 0.930 . S
H846 C854 0.930 . S
H847 C855 0.930 . S
H848 C858 0.930 . S
H849 C859 0.930 . S
C850 H844 0.930 . S
C850 C851 1.355 . S
C850 C852 1.415 . S
C851 C850 1.355 . S
C851 C853 1.419 . S
C852 C850 1.415 . S
C852 C857 1.425 . S
C852 C859 1.409 . S
C853 H845 0.930 . S
C853 C851 1.419 . S
C853 C854 1.362 . S
C854 H846 0.930 . S
C854 C853 1.362 . S
C854 C857 1.409 . S
C855 H847 0.930 . S
C855 C856 1.355 . S
C855 C857 1.415 . S
C856 C855 1.355 . S
C856 C858 1.419 . S
C857 C852 1.425 . S
C857 C854 1.409 . S
C857 C855 1.415 . S
C858 H848 0.930 . S
C858 C856 1.419 . S
C858 C859 1.362 . S
C859 H849 0.930 . S
C859 C852 1.409 . S
C859 C858 1.362 . S
H860 C866 0.930 1_655 S
H861 C869 0.930 . S
H862 C870 0.930 . S
H863 C871 0.930 . S
H864 C874 0.930 . S
H865 C875 0.930 . S
C866 H860 0.930 1_455 S
C866 C867 1.355 . S
C866 C868 1.415 . S
C867 C866 1.355 . S
C867 C869 1.419 . S
C868 C866 1.415 . S
C868 C873 1.425 . S
C868 C875 1.409 . S
C869 H861 0.930 . S
C869 C867 1.419 . S
C869 C870 1.362 . S
C870 H862 0.930 . S
C870 C869 1.362 . S
C870 C873 1.409 . S
C871 H863 0.930 . S
C871 C872 1.355 . S
C871 C873 1.415 . S
C872 C871 1.355 . S
C872 C874 1.419 . S
C873 C868 1.425 . S
C873 C870 1.409 . S
C873 C871 1.415 . S
C874 H864 0.930 . S
C874 C872 1.419 . S
C874 C875 1.362 . S
C875 H865 0.930 . S
C875 C868 1.409 . S
C875 C874 1.362 . S
H876 C882 0.930 . S
H877 C885 0.930 . S
H878 C886 0.930 . S
H879 C887 0.930 . S
H880 C890 0.930 . S
H881 C891 0.930 . S
C882 H876 0.930 . S
C882 C883 1.355 . S
C882 C884 1.415 . S
C883 C882 1.355 . S
C883 C885 1.419 . S
C884 C882 1.415 . S
C884 C889 1.425 . S
C884 C891 1.409 . S
C885 H877 0.930 . S
C885 C883 1.419 . S
C885 C886 1.362 . S
C886 H878 0.930 . S
C886 C885 1.362 . S
C886 C889 1.409 . S
C887 H879 0.930 . S
C887 C888 1.355 . S
C887 C889 1.415 . S
C888 C887 1.355 . S
C888 C890 1.419 . S
C889 C884 1.425 . S
C889 C886 1.409 . S
C889 C887 1.415 . S
C890 H880 0.930 . S
C890 C888 1.419 . S
C890 C891 1.362 . S
C891 H881 0.930 . S
C891 C884 1.409 . S
C891 C890 1.362 . S
H892 C898 0.930 1_455 S
H893 C901 0.922 1_554 S
H894 C902 0.930 . S
H895 C903 0.930 . S
H896 C906 0.930 . S
H897 C907 0.930 . S
C898 H892 0.930 1_655 S
C898 C899 1.355 . S
C898 C900 1.421 . S
C899 C898 1.355 . S
C899 C901 1.419 . S
C900 C898 1.421 . S
C900 C905 1.448 . S
C900 C907 1.382 1_655 S
C901 H893 0.922 1_556 S
C901 C899 1.419 . S
C901 C902 1.370 . S
C902 H894 0.930 . S
C902 C901 1.370 . S
C902 C905 1.409 . S
C903 H895 0.930 . S
C903 C904 1.355 . S
C903 C905 1.415 . S
C904 C903 1.355 . S
C904 C906 1.419 1_655 S
C905 C900 1.448 . S
C905 C902 1.409 . S
C905 C903 1.415 . S
C906 H896 0.930 . S
C906 C904 1.419 1_455 S
C906 C907 1.362 . S
C907 H897 0.930 . S
C907 C900 1.382 1_455 S
C907 C906 1.362 . S
H908 C914 0.930 . S
H909 C917 0.930 . S
H910 C918 0.930 . S
H911 C919 0.930 . S
H912 C922 0.930 . S
H913 C923 0.930 . S
C914 H908 0.930 . S
C914 C915 1.355 . S
C914 C916 1.415 . S
C915 C914 1.355 . S
C915 C917 1.419 . S
C916 C914 1.415 . S
C916 C921 1.425 . S
C916 C923 1.409 . S
C917 H909 0.930 . S
C917 C915 1.419 . S
C917 C918 1.362 . S
C918 H910 0.930 . S
C918 C917 1.362 . S
C918 C921 1.409 . S
C919 H911 0.930 . S
C919 C920 1.355 . S
C919 C921 1.415 . S
C920 C919 1.355 . S
C920 C922 1.419 . S
C921 C916 1.425 . S
C921 C918 1.409 . S
C921 C919 1.415 . S
C922 H912 0.930 . S
C922 C920 1.419 . S
C922 C923 1.362 . S
C923 H913 0.930 . S
C923 C916 1.409 . S
C923 C922 1.362 . S
H924 C930 0.930 . S
H925 C933 0.930 . S
H926 C934 0.930 . S
H927 C935 0.930 . S
H928 C938 0.930 . S
H929 C939 0.930 1_554 S
C930 H924 0.930 . S
C930 C931 1.355 1_554 S
C930 C932 1.415 1_554 S
C931 C930 1.355 1_556 S
C931 C933 1.419 . S
C932 C930 1.415 1_556 S
C932 C937 1.425 . S
C932 C939 1.409 . S
C933 H925 0.930 . S
C933 C931 1.419 . S
C933 C934 1.362 . S
C934 H926 0.930 . S
C934 C933 1.362 . S
C934 C937 1.409 . S
C935 H927 0.930 . S
C935 C936 1.355 . S
C935 C937 1.415 . S
C936 C935 1.355 . S
C936 C938 1.419 . S
C937 C932 1.425 . S
C937 C934 1.409 . S
C937 C935 1.415 . S
C938 H928 0.930 . S
C938 C936 1.419 . S
C938 C939 1.362 . S
C939 H929 0.930 1_556 S
C939 C932 1.409 . S
C939 C938 1.362 . S
H940 C946 0.930 . S
H941 C949 0.930 . S
H942 C950 0.930 . S
H943 C951 0.930 . S
H944 C954 0.930 . S
H945 C955 0.930 . S
C946 H940 0.930 . S
C946 C947 1.355 . S
C946 C948 1.415 . S
C947 C946 1.355 . S
C947 C949 1.419 . S
C948 C946 1.415 . S
C948 C953 1.425 . S
C948 C955 1.409 . S
C949 H941 0.930 . S
C949 C947 1.419 . S
C949 C950 1.362 . S
C950 H942 0.930 . S
C950 C949 1.362 . S
C950 C953 1.409 . S
C951 H943 0.930 . S
C951 C952 1.355 . S
C951 C953 1.415 . S
C952 C951 1.355 . S
C952 C954 1.419 . S
C953 C948 1.425 . S
C953 C950 1.409 . S
C953 C951 1.415 . S
C954 H944 0.930 . S
C954 C952 1.419 . S
C954 C955 1.362 . S
C955 H945 0.930 . S
C955 C948 1.409 . S
C955 C954 1.362 . S
H956 C962 0.930 1_556 S
H957 C965 0.930 . S
H958 C966 0.930 . S
H959 C967 0.930 . S
H960 C970 0.930 . S
H961 C971 0.930 . S
C962 H956 0.930 1_554 S
C962 C963 1.355 . S
C962 C964 1.415 . S
C963 C962 1.355 . S
C963 C965 1.419 . S
C964 C962 1.415 . S
C964 C969 1.425 . S
C964 C971 1.409 . S
C965 H957 0.930 . S
C965 C963 1.419 . S
C965 C966 1.362 . S
C966 H958 0.930 . S
C966 C965 1.362 . S
C966 C969 1.409 . S
C967 H959 0.930 . S
C967 C968 1.355 . S
C967 C969 1.415 . S
C968 C967 1.355 . S
C968 C970 1.419 . S
C969 C964 1.425 . S
C969 C966 1.409 . S
C969 C967 1.415 . S
C970 H960 0.930 . S
C970 C968 1.419 . S
C970 C971 1.362 . S
C971 H961 0.930 . S
C971 C964 1.409 . S
C971 C970 1.362 . S
H972 C978 0.930 . S
H973 C981 0.930 . S
H974 C982 0.930 . S
H975 C983 0.930 . S
H976 C986 0.930 . S
H977 C987 0.930 . S
C978 H972 0.930 . S
C978 C979 1.355 . S
C978 C980 1.415 . S
C979 C978 1.355 . S
C979 C981 1.419 . S
C980 C978 1.415 . S
C980 C985 1.425 . S
C980 C987 1.409 . S
C981 H973 0.930 . S
C981 C979 1.419 . S
C981 C982 1.362 . S
C982 H974 0.930 . S
C982 C981 1.362 . S
C982 C985 1.409 . S
C983 H975 0.930 . S
C983 C984 1.355 . S
C983 C985 1.415 . S
C984 C983 1.355 . S
C984 C986 1.419 . S
C985 C980 1.425 . S
C985 C982 1.409 . S
C985 C983 1.415 . S
C986 H976 0.930 . S
C986 C984 1.419 . S
C986 C987 1.362 . S
C987 H977 0.930 . S
C987 C980 1.409 . S
C987 C986 1.362 . S
H988 C994 0.930 . S
H989 C997 0.930 . S
H990 C998 0.930 . S
H991 C999 0.930 . S
H992 C1002 0.930 . S
H993 C1003 0.930 . S
C994 H988 0.930 . S
C994 C995 1.355 . S
C994 C996 1.415 . S
C995 C994 1.355 . S
C995 C997 1.419 . S
C996 C994 1.415 . S
C996 C1001 1.425 . S
C996 C1003 1.409 . S
C997 H989 0.930 . S
C997 C995 1.419 . S
C997 C998 1.362 . S
C998 H990 0.930 . S
C998 C997 1.362 . S
C998 C1001 1.409 . S
C999 H991 0.930 . S
C999 C1000 1.355 . S
C999 C1001 1.415 . S
C1000 C999 1.355 . S
C1000 C1002 1.419 . S
C1001 C996 1.425 . S
C1001 C998 1.409 . S
C1001 C999 1.415 . S
C1002 H992 0.930 . S
C1002 C1000 1.419 . S
C1002 C1003 1.362 . S
C1003 H993 0.930 . S
C1003 C996 1.409 . S
C1003 C1002 1.362 . S
H1004 C1010 0.930 . S
H1005 C1013 0.930 . S
H1006 C1014 0.930 . S
H1007 C1015 0.930 . S
H1008 C1018 0.930 . S
H1009 C1019 0.930 . S
C1010 H1004 0.930 . S
C1010 C1011 1.355 . S
C1010 C1012 1.415 . S
C1011 C1010 1.355 . S
C1011 C1013 1.419 . S
C1012 C1010 1.415 . S
C1012 C1017 1.425 . S
C1012 C1019 1.409 . S
C1013 H1005 0.930 . S
C1013 C1011 1.419 . S
C1013 C1014 1.362 . S
C1014 H1006 0.930 . S
C1014 C1013 1.362 . S
C1014 C1017 1.409 . S
C1015 H1007 0.930 . S
C1015 C1016 1.355 . S
C1015 C1017 1.415 . S
C1016 C1015 1.355 . S
C1016 C1018 1.419 . S
C1017 C1012 1.425 . S
C1017 C1014 1.409 . S
C1017 C1015 1.415 . S
C1018 H1008 0.930 . S
C1018 C1016 1.419 . S
C1018 C1019 1.362 . S
C1019 H1009 0.930 . S
C1019 C1012 1.409 . S
C1019 C1018 1.362 . S
H1020 C1026 0.930 . S
H1021 C1029 0.930 . S
H1022 C1030 0.930 . S
H1023 C1031 0.930 . S
H1024 C1034 0.930 . S
H1025 C1035 0.930 . S
C1026 H1020 0.930 . S
C1026 C1027 1.355 . S
C1026 C1028 1.415 . S
C1027 C1026 1.355 . S
C1027 C1029 1.419 . S
C1028 C1026 1.415 . S
C1028 C1033 1.425 . S
C1028 C1035 1.409 . S
C1029 H1021 0.930 . S
C1029 C1027 1.419 . S
C1029 C1030 1.362 . S
C1030 H1022 0.930 . S
C1030 C1029 1.362 . S
C1030 C1033 1.409 . S
C1031 H1023 0.930 . S
C1031 C1032 1.355 . S
C1031 C1033 1.415 . S
C1032 C1031 1.355 . S
C1032 C1034 1.419 . S
C1033 C1028 1.425 . S
C1033 C1030 1.409 . S
C1033 C1031 1.415 . S
C1034 H1024 0.930 . S
C1034 C1032 1.419 . S
C1034 C1035 1.362 . S
C1035 H1025 0.930 . S
C1035 C1028 1.409 . S
C1035 C1034 1.362 . S
H1036 C1042 0.930 . S
H1037 C1045 0.930 . S
H1038 C1046 0.930 . S
H1039 C1047 0.930 . S
H1040 C1050 0.930 . S
H1041 C1051 0.930 . S
C1042 H1036 0.930 . S
C1042 C1043 1.355 . S
C1042 C1044 1.415 . S
C1043 C1042 1.355 . S
C1043 C1045 1.419 . S
C1044 C1042 1.415 . S
C1044 C1049 1.425 . S
C1044 C1051 1.409 . S
C1045 H1037 0.930 . S
C1045 C1043 1.419 . S
C1045 C1046 1.362 . S
C1046 H1038 0.930 . S
C1046 C1045 1.362 . S
C1046 C1049 1.409 . S
C1047 H1039 0.930 . S
C1047 C1048 1.355 . S
C1047 C1049 1.415 . S
C1048 C1047 1.355 . S
C1048 C1050 1.419 . S
C1049 C1044 1.425 . S
C1049 C1046 1.409 . S
C1049 C1047 1.415 . S
C1050 H1040 0.930 . S
C1050 C1048 1.419 . S
C1050 C1051 1.362 . S
C1051 H1041 0.930 . S
C1051 C1044 1.409 . S
C1051 C1050 1.362 . S
H1052 C1058 0.930 . S
H1053 C1061 0.930 . S
H1054 C1062 0.930 . S
H1055 C1063 0.930 . S
H1056 C1066 0.930 . S
H1057 C1067 0.930 . S
C1058 H1052 0.930 . S
C1058 C1059 1.355 . S
C1058 C1060 1.415 . S
C1059 C1058 1.355 . S
C1059 C1061 1.419 . S
C1060 C1058 1.415 . S
C1060 C1065 1.425 . S
C1060 C1067 1.409 . S
C1061 H1053 0.930 . S
C1061 C1059 1.419 . S
C1061 C1062 1.362 . S
C1062 H1054 0.930 . S
C1062 C1061 1.362 . S
C1062 C1065 1.409 . S
C1063 H1055 0.930 . S
C1063 C1064 1.355 . S
C1063 C1065 1.415 . S
C1064 C1063 1.355 . S
C1064 C1066 1.419 . S
C1065 C1060 1.425 . S
C1065 C1062 1.409 . S
C1065 C1063 1.415 . S
C1066 H1056 0.930 . S
C1066 C1064 1.419 . S
C1066 C1067 1.362 . S
C1067 H1057 0.930 . S
C1067 C1060 1.409 . S
C1067 C1066 1.362 . S
H1068 C1074 0.930 . S
H1069 C1077 0.930 . S
H1070 C1078 0.930 . S
H1071 C1079 0.930 . S
H1072 C1082 0.930 . S
H1073 C1083 0.930 . S
C1074 H1068 0.930 . S
C1074 C1075 1.355 . S
C1074 C1076 1.415 . S
C1075 C1074 1.355 . S
C1075 C1077 1.419 1_556 S
C1076 C1074 1.415 . S
C1076 C1081 1.425 1_556 S
C1076 C1083 1.409 . S
C1077 H1069 0.930 . S
C1077 C1075 1.419 1_554 S
C1077 C1078 1.362 . S
C1078 H1070 0.930 . S
C1078 C1077 1.362 . S
C1078 C1081 1.409 . S
C1079 H1071 0.930 . S
C1079 C1080 1.355 . S
C1079 C1081 1.415 . S
C1080 C1079 1.355 . S
C1080 C1082 1.419 1_554 S
C1081 C1076 1.425 1_554 S
C1081 C1078 1.409 . S
C1081 C1079 1.415 . S
C1082 H1072 0.930 . S
C1082 C1080 1.419 1_556 S
C1082 C1083 1.362 . S
C1083 H1073 0.930 . S
C1083 C1076 1.409 . S
C1083 C1082 1.362 . S
H1084 C1090 0.930 . S
H1085 C1093 0.930 . S
H1086 C1094 0.930 . S
H1087 C1095 0.930 . S
H1088 C1098 0.930 . S
H1089 C1099 0.930 . S
C1090 H1084 0.930 . S
C1090 C1091 1.355 . S
C1090 C1092 1.415 . S
C1091 C1090 1.355 . S
C1091 C1093 1.419 . S
C1092 C1090 1.415 . S
C1092 C1097 1.425 . S
C1092 C1099 1.409 . S
C1093 H1085 0.930 . S
C1093 C1091 1.419 . S
C1093 C1094 1.362 . S
C1094 H1086 0.930 . S
C1094 C1093 1.362 . S
C1094 C1097 1.409 . S
C1095 H1087 0.930 . S
C1095 C1096 1.355 . S
C1095 C1097 1.415 . S
C1096 C1095 1.355 . S
C1096 C1098 1.419 . S
C1097 C1092 1.425 . S
C1097 C1094 1.409 . S
C1097 C1095 1.415 . S
C1098 H1088 0.930 . S
C1098 C1096 1.419 . S
C1098 C1099 1.362 . S
C1099 H1089 0.930 . S
C1099 C1092 1.409 . S
C1099 C1098 1.362 . S
H1100 C1106 0.930 . S
H1101 C1109 0.930 . S
H1102 C1110 0.909 1_556 S
H1103 C1111 0.930 . S
H1104 C1114 0.930 . S
H1105 C1115 0.930 . S
C1106 H1100 0.930 . S
C1106 C1107 1.355 . S
C1106 C1108 1.415 . S
C1107 C1106 1.355 . S
C1107 C1109 1.419 . S
C1108 C1106 1.415 . S
C1108 C1113 1.425 . S
C1108 C1115 1.409 . S
C1109 H1101 0.930 . S
C1109 C1107 1.419 . S
C1109 C1110 1.362 . S
C1110 H1102 0.909 1_554 S
C1110 C1109 1.362 . S
C1110 C1113 1.409 . S
C1111 H1103 0.930 . S
C1111 C1112 1.355 . S
C1111 C1113 1.415 . S
C1112 C1111 1.355 . S
C1112 C1114 1.419 . S
C1113 C1108 1.425 . S
C1113 C1110 1.409 . S
C1113 C1111 1.415 . S
C1114 H1104 0.930 . S
C1114 C1112 1.419 . S
C1114 C1115 1.362 . S
C1115 H1105 0.930 . S
C1115 C1108 1.409 . S
C1115 C1114 1.362 . S
H1116 C1122 0.930 . S
H1117 C1125 0.914 1_556 S
H1118 C1126 0.930 1_545 S
H1119 C1127 0.930 . S
H1120 C1130 0.930 . S
H1121 C1131 0.930 . S
C1122 H1116 0.930 . S
C1122 C1123 1.355 . S
C1122 C1124 1.415 . S
C1123 C1122 1.355 . S
C1123 C1125 1.451 1_565 S
C1124 C1122 1.415 . S
C1124 C1129 1.425 . S
C1124 C1131 1.409 . S
C1125 H1117 0.914 1_554 S
C1125 C1123 1.451 1_545 S
C1125 C1126 1.347 1_544 S
C1126 H1118 0.930 1_565 S
C1126 C1125 1.347 1_566 S
C1126 C1129 1.409 1_556 S
C1127 H1119 0.930 . S
C1127 C1128 1.355 1_556 S
C1127 C1129 1.415 1_556 S
C1128 C1127 1.355 1_554 S
C1128 C1130 1.419 . S
C1129 C1124 1.425 . S
C1129 C1126 1.409 1_554 S
C1129 C1127 1.415 1_554 S
C1130 H1120 0.930 . S
C1130 C1128 1.419 . S
C1130 C1131 1.362 . S
C1131 H1121 0.930 . S
C1131 C1124 1.409 . S
C1131 C1130 1.362 . S
C376 C218 1.637 . S
C371 C73 1.653 . S
C392 C231 1.364 . S
C387 C82 1.367 . S
C403 C100 1.788 . S
C408 C244 1.731 . S
C424 C257 1.376 . S
C419 C56 1.301 1_655 S
C440 C265 1.323 . S
C435 C134 1.410 . S
C456 C278 1.607 . S
C451 C165 1.618 . S
C467 C147 1.218 . S
C472 C291 1.263 . S
C488 C304 1.755 . S
C483 C125 1.789 . S
C499 C151 1.340 . S
C504 C322 1.351 . S
C520 C333 1.460 . S
C515 C121 1.450 . S
C531 C139 1.700 . S
C536 C317 1.698 . S
C552 C325 1.321 . S
C547 C164 1.326 . S
C563 C95 1.359 . S
C568 C348 1.398 . S
C579 C61 1.476 . S
C584 C338 1.490 . S
C595 C74 1.447 . S
C600 C343 1.442 . S
C611 C86 1.763 . S
C616 C346 1.727 . S
C627 C47 1.374 . S
C632 C255 1.322 . S
C643 C186 1.270 . S
C648 C247 1.274 . S
C664 C216 1.547 . S
C659 C204 1.574 . S
C680 C221 1.822 . S
C675 C112 1.840 . S
C691 C60 1.412 1_545 S
C696 C268 1.379 . S
C712 C307 1.434 . S
C707 C152 1.451 . S
C728 C260 1.781 . S
C723 C126 1.841 1_545 S
C744 C286 1.304 . S
C739 C160 1.268 . S
C760 C296 1.625 . S
C755 C190 1.653 . S
C771 C199 1.371 . S
C776 C309 1.395 . S
C787 C113 1.788 . S
C792 C270 1.732 . S
C808 C283 1.355 . S
C803 C173 1.308 . S
C819 C43 1.399 . S
C824 C239 1.386 . S
C840 C252 1.578 . S
C835 C9 1.595 1_655 S
C856 C213 1.237 . S
C851 C17 1.185 . S
C872 C226 1.753 . S
C867 C34 1.790 1_455 S
C883 C21 1.347 . S
C888 C335 1.343 . S
C899 C30 1.448 1_556 S
C904 C320 1.462 1_655 S
C915 C48 1.694 . S
C920 C330 1.662 . S
C931 C8 1.324 1_556 S
C936 C312 1.322 1_455 S
C952 C361 1.395 . S
C947 C108 1.374 . S
C968 C351 1.494 . S
C963 C178 1.491 1_554 S
C984 C356 1.450 . S
C979 C191 1.447 . S
C995 C203 1.773 . S
C1000 C359 1.754 . S
C1011 C138 1.373 . S
C1016 C281 1.324 . S
C1032 C273 1.288 . S
C1027 C69 1.283 . S
C1048 C294 1.511 . S
C1043 C87 1.565 . S
C1064 C299 1.823 . S
C1059 C99 1.846 . S
C1075 C177 1.416 . S
C1080 C242 1.415 . S
C1096 C229 1.421 . S
C1091 C22 1.452 . S
C1107 C35 1.846 . S
C1112 C234 1.811 . S
C1128 C208 1.257 1_554 S
C1123 C4 1.305 . S
