# Generated by pormake.
# Topology apo, (3,6)-cn, num edge types: 1
# Building blocks:
#     Node 0, Type 0, BuildingBlock: ESEHIV_clean_linker_0, # of connection points: 3
#     Node 1, Type 0, BuildingBlock: ESEHIV_clean_linker_0, # of connection points: 3
#     Node 2, Type 0, BuildingBlock: ESEHIV_clean_linker_0, # of connection points: 3
#     Node 3, Type 0, BuildingBlock: ESEHIV_clean_linker_0, # of connection points: 3
#     Node 4, Type 0, BuildingBlock: ESEHIV_clean_linker_0, # of connection points: 3
#     Node 5, Type 0, BuildingBlock: ESEHIV_clean_linker_0, # of connection points: 3
#     Node 6, Type 0, BuildingBlock: ESEHIV_clean_linker_0, # of connection points: 3
#     Node 7, Type 0, BuildingBlock: ESEHIV_clean_linker_0, # of connection points: 3
#     Node 8, Type 1, BuildingBlock: KUMBUR_clean_sbu_1, # of connection points: 6
#     Node 9, Type 1, BuildingBlock: KUMBUR_clean_sbu_1, # of connection points: 6
#     Node 10, Type 1, BuildingBlock: KUMBUR_clean_sbu_1, # of connection points: 6
#     Node 11, Type 1, BuildingBlock: KUMBUR_clean_sbu_1, # of connection points: 6
#     Edge 12, Type (0, 1), BuildingBlock: AJUNOK_clean_linker_0, # of connection points: 2
#     Edge 13, Type (0, 1), BuildingBlock: AJUNOK_clean_linker_0, # of connection points: 2
#     Edge 14, Type (0, 1), BuildingBlock: AJUNOK_clean_linker_0, # of connection points: 2
#     Edge 15, Type (0, 1), BuildingBlock: AJUNOK_clean_linker_0, # of connection points: 2
#     Edge 16, Type (0, 1), BuildingBlock: AJUNOK_clean_linker_0, # of connection points: 2
#     Edge 17, Type (0, 1), BuildingBlock: AJUNOK_clean_linker_0, # of connection points: 2
#     Edge 18, Type (0, 1), BuildingBlock: AJUNOK_clean_linker_0, # of connection points: 2
#     Edge 19, Type (0, 1), BuildingBlock: AJUNOK_clean_linker_0, # of connection points: 2
#     Edge 20, Type (0, 1), BuildingBlock: AJUNOK_clean_linker_0, # of connection points: 2
#     Edge 21, Type (0, 1), BuildingBlock: AJUNOK_clean_linker_0, # of connection points: 2
#     Edge 22, Type (0, 1), BuildingBlock: AJUNOK_clean_linker_0, # of connection points: 2
#     Edge 23, Type (0, 1), BuildingBlock: AJUNOK_clean_linker_0, # of connection points: 2
#     Edge 24, Type (0, 1), BuildingBlock: AJUNOK_clean_linker_0, # of connection points: 2
#     Edge 25, Type (0, 1), BuildingBlock: AJUNOK_clean_linker_0, # of connection points: 2
#     Edge 26, Type (0, 1), BuildingBlock: AJUNOK_clean_linker_0, # of connection points: 2
#     Edge 27, Type (0, 1), BuildingBlock: AJUNOK_clean_linker_0, # of connection points: 2
#     Edge 28, Type (0, 1), BuildingBlock: AJUNOK_clean_linker_0, # of connection points: 2
#     Edge 29, Type (0, 1), BuildingBlock: AJUNOK_clean_linker_0, # of connection points: 2
#     Edge 30, Type (0, 1), BuildingBlock: AJUNOK_clean_linker_0, # of connection points: 2
#     Edge 31, Type (0, 1), BuildingBlock: AJUNOK_clean_linker_0, # of connection points: 2
#     Edge 32, Type (0, 1), BuildingBlock: AJUNOK_clean_linker_0, # of connection points: 2
#     Edge 33, Type (0, 1), BuildingBlock: AJUNOK_clean_linker_0, # of connection points: 2
#     Edge 34, Type (0, 1), BuildingBlock: AJUNOK_clean_linker_0, # of connection points: 2
#     Edge 35, Type (0, 1), BuildingBlock: AJUNOK_clean_linker_0, # of connection points: 2
# Relax obj value: 0.007
# Max RMSD: 0.141
# Mean RMSD: 0.105
data_MOF--net-apo--node1-KUMBUR_clean_sbu_1--node2-ESEHIV_clean_linker_0--edge1-AJUNOK_clean_linker_0
_symmetry_space_group_name_H-M    P1
_symmetry_Int_Tables_number       1
_symmetry_cell_setting            triclinic
loop_
_symmetry_equiv_pos_as_xyz
'x, y, z'
_cell_length_a     16.575221
_cell_length_b     28.348131
_cell_length_c     38.419131
_cell_angle_alpha  89.932698
_cell_angle_beta   90.236937
_cell_angle_gamma 90.443079
loop_
_atom_site_label
_atom_site_type_symbol
_atom_site_fract_x
_atom_site_fract_y
_atom_site_fract_z
_atom_type_partial_charge
H0 H 0.35358 0.44889 0.4298 0.0
H1 H 0.25191 0.38581 0.3379 0.0
H2 H 0.21862 0.31878 0.43763 0.0
C3 C 0.31913 0.4206 0.41769 0.0
C4 C 0.2876 0.38389 0.43823 0.0
C5 C 0.30633 0.42161 0.3817 0.0
C6 C 0.26106 0.38551 0.36587 0.0
C7 C 0.2291 0.34841 0.38599 0.0
C8 C 0.24196 0.34785 0.42222 0.0
H9 H 0.15142 0.06471 0.936 0.0
H10 H 0.24841 0.12285 0.84115 0.0
H11 H 0.29846 0.19076 0.93847 0.0
C12 C 0.18772 0.09102 0.92271 0.0
C13 C 0.2251 0.1274 0.94194 0.0
C14 C 0.19551 0.08895 0.88626 0.0
C15 C 0.24031 0.12423 0.86912 0.0
C16 C 0.27606 0.16116 0.88792 0.0
C17 C 0.26917 0.16242 0.92416 0.0
H18 H 0.84848 0.07217 0.6076 0.0
H19 H 0.7944 0.14396 0.70351 0.0
H20 H 0.72961 0.20604 0.60587 0.0
C21 C 0.82374 0.1018 0.62159 0.0
C22 C 0.79559 0.14107 0.60265 0.0
C23 C 0.82009 0.10116 0.65841 0.0
C24 C 0.79077 0.14134 0.67546 0.0
C25 C 0.75465 0.17825 0.65697 0.0
C26 C 0.75803 0.17803 0.62056 0.0
H27 H 0.66451 0.43953 0.09835 0.0
H28 H 0.74822 0.39005 0.19832 0.0
H29 H 0.76205 0.30088 0.10866 0.0
C30 C 0.6896 0.4124 0.11486 0.0
C31 C 0.71142 0.36928 0.09966 0.0
C32 C 0.69897 0.41986 0.15102 0.0
C33 C 0.7385 0.38477 0.17079 0.0
C34 C 0.76554 0.34263 0.15561 0.0
C35 C 0.74754 0.33446 0.12037 0.0
H36 H 0.66495 0.5641 0.60665 0.0
H37 H 0.78393 0.70014 0.60544 0.0
H38 H 0.74482 0.62736 0.70232 0.0
C39 C 0.69362 0.5934 0.62009 0.0
C40 C 0.70074 0.59179 0.65647 0.0
C41 C 0.72456 0.63199 0.60106 0.0
C42 C 0.76104 0.6697 0.61944 0.0
C43 C 0.76954 0.6679 0.65592 0.0
C44 C 0.73951 0.6287 0.67418 0.0
H45 H 0.82425 0.95633 0.10474 0.0
H46 H 0.75773 0.88415 0.19886 0.0
H47 H 0.71454 0.81786 0.09982 0.0
C48 C 0.79908 0.92548 0.11753 0.0
C49 C 0.77002 0.88729 0.0975 0.0
C50 C 0.79519 0.92432 0.15404 0.0
C51 C 0.76158 0.88489 0.17067 0.0
C52 C 0.7321 0.84661 0.15127 0.0
C53 C 0.73727 0.84758 0.11473 0.0
H54 H 0.14278 0.93324 0.43638 0.0
H55 H 0.27351 0.803 0.43422 0.0
H56 H 0.24623 0.88436 0.34057 0.0
C57 C 0.17743 0.90749 0.42212 0.0
C58 C 0.19275 0.91441 0.38646 0.0
C59 C 0.2057 0.86702 0.43939 0.0
C60 C 0.25017 0.83358 0.42073 0.0
C61 C 0.26385 0.83894 0.38492 0.0
C62 C 0.23546 0.8797 0.36815 0.0
H63 H 0.36665 0.57244 0.93464 0.0
H64 H 0.2763 0.62603 0.83742 0.0
H65 H 0.23392 0.70233 0.93205 0.0
C66 C 0.33329 0.5989 0.9203 0.0
C67 C 0.30262 0.63848 0.93764 0.0
C68 C 0.32369 0.59445 0.88412 0.0
C69 C 0.28291 0.62951 0.86539 0.0
C70 C 0.25139 0.66905 0.88222 0.0
C71 C 0.26055 0.67285 0.91848 0.0
Tb72 Tb 0.09544 0.13212 0.24054 0.0
C73 C 0.75169 0.07793 0.2805 0.0
N74 N 0.78094 0.12281 0.27982 0.0
C75 C 0.6623 0.14839 0.24937 0.0
C76 C 0.67743 0.06618 0.2646 0.0
C77 C 0.73696 0.15811 0.265 0.0
C78 C 0.63257 0.10215 0.24896 0.0
C79 C 0.76957 0.99666 0.29805 0.0
C80 C 0.79778 0.0437 0.29662 0.0
C81 C 0.69666 0.98436 0.28145 0.0
C82 C 0.65061 0.01908 0.26481 0.0
Tb83 Tb 0.90401 0.13511 0.30559 0.0
N84 N 0.86842 0.05695 0.31216 0.0
C85 C 0.814 0.96383 0.31718 0.0
C86 C 0.90572 0.02633 0.33436 0.0
C87 C 0.8812 0.97905 0.33619 0.0
H88 H 0.75901 0.19381 0.26564 0.0
H89 H 0.91289 0.9547 0.35301 0.0
H90 H 0.21178 0.044 0.26731 0.0
H91 H 0.15446 0.31835 0.22163 0.0
H92 H 0.95233 0.03829 0.35187 0.0
H93 H 0.79456 0.92733 0.31895 0.0
H94 H 0.07111 0.24657 0.22204 0.0
H95 H 0.62776 0.17655 0.23766 0.0
H96 H 0.67449 0.9483 0.282 0.0
H97 H 0.59399 0.00924 0.25252 0.0
H98 H 0.3526 0.03392 0.28675 0.0
H99 H 0.57494 0.09466 0.23666 0.0
H100 H 0.29794 0.31488 0.23927 0.0
N101 N 0.22359 0.11812 0.25968 0.0
C102 C 0.274 0.15614 0.26018 0.0
C103 C 0.33113 0.06854 0.27951 0.0
C104 C 0.35546 0.15179 0.27028 0.0
C105 C 0.25097 0.07452 0.26895 0.0
C106 C 0.38367 0.10731 0.28015 0.0
N107 N 0.16438 0.20236 0.24123 0.0
C108 C 0.13264 0.24425 0.23049 0.0
C109 C 0.29417 0.23988 0.24993 0.0
C110 C 0.24375 0.19961 0.25015 0.0
C111 C 0.26127 0.28308 0.23979 0.0
C112 C 0.18023 0.2852 0.22994 0.0
H113 H 0.4459 0.10248 0.28806 0.0
H114 H 0.4689 0.18913 0.27758 0.0
H115 H 0.41518 0.26626 0.25982 0.0
O116 O 0.07917 0.14207 0.1866 0.0
O117 O 0.11339 0.17132 0.28949 0.0
O118 O 0.98751 0.19525 0.30835 0.0
O119 O 0.16843 0.09419 0.20591 0.0
O120 O 0.98959 0.17345 0.22434 0.0
O121 O 0.91676 0.19802 0.27274 0.0
O122 O 0.89086 0.12952 0.36055 0.0
O123 O 0.88987 0.10804 0.25198 0.0
O124 O 0.01127 0.07285 0.24352 0.0
O125 O 0.81669 0.17696 0.32991 0.0
O126 O 0.01886 0.10449 0.32425 0.0
O127 O 0.07169 0.07219 0.27457 0.0
C128 C 0.06682 0.19763 0.30918 0.0
C129 C 0.19648 0.13266 0.15267 0.0
C130 C 0.23544 0.14449 0.09216 0.0
C131 C 0.30548 0.16824 0.10326 0.0
C132 C 0.26792 0.15551 0.16323 0.0
C133 C 0.32175 0.17346 0.13867 0.0
C134 C 0.18078 0.1268 0.11693 0.0
C135 C 0.93714 0.20155 0.23959 0.0
C136 C 0.13842 0.11438 0.17845 0.0
C137 C 0.40603 0.1918 0.27002 0.0
C138 C 0.37547 0.23572 0.25987 0.0
C139 C 0.93402 0.07588 0.2369 0.0
C140 C 0.79126 0.17669 0.39216 0.0
C141 C 0.77332 0.17779 0.4553 0.0
C142 C 0.71379 0.21235 0.45131 0.0
C143 C 0.73104 0.21111 0.38895 0.0
C144 C 0.81188 0.15968 0.4256 0.0
C145 C 0.69259 0.22867 0.41834 0.0
C146 C 0.06725 0.07458 0.30862 0.0
C147 C 0.83385 0.16071 0.36057 0.0
H148 H 0.34822 0.18202 0.08448 0.0
H149 H 0.28281 0.15913 0.19034 0.0
H150 H 0.37651 0.19115 0.14713 0.0
H151 H 0.12638 0.10865 0.1084 0.0
H152 H 0.68363 0.22675 0.47386 0.0
H153 H 0.71404 0.22493 0.36368 0.0
H154 H 0.85861 0.13345 0.42862 0.0
H155 H 0.64661 0.25534 0.41558 0.0
Tb156 Tb 0.39933 0.36989 0.73881 0.0
C157 C 0.76349 0.40384 0.77689 0.0
N158 N 0.71879 0.36337 0.7772 0.0
C159 C 0.82761 0.32156 0.75052 0.0
C160 C 0.84177 0.40487 0.76273 0.0
C161 C 0.75073 0.32211 0.76538 0.0
C162 C 0.87315 0.36317 0.74896 0.0
C163 C 0.7764 0.48639 0.79296 0.0
C164 C 0.73088 0.44428 0.7915 0.0
C165 C 0.85401 0.48777 0.77841 0.0
C166 C 0.88653 0.44716 0.76326 0.0
Tb167 Tb 0.59493 0.36955 0.8026 0.0
N168 N 0.65491 0.44192 0.80482 0.0
C169 C 0.74337 0.52541 0.80989 0.0
C170 C 0.62552 0.47843 0.82384 0.0
C171 C 0.66825 0.52108 0.82599 0.0
H172 H 0.71819 0.28926 0.76837 0.0
H173 H 0.64396 0.55025 0.84066 0.0
H174 H 0.27047 0.45066 0.76759 0.0
H175 H 0.37757 0.18021 0.72613 0.0
H176 H 0.57073 0.47433 0.83845 0.0
H177 H 0.77655 0.5584 0.81179 0.0
H178 H 0.44537 0.25739 0.72275 0.0
H179 H 0.85223 0.28887 0.74083 0.0
H180 H 0.88987 0.51987 0.77921 0.0
H181 H 0.94687 0.44864 0.75255 0.0
H182 H 0.12893 0.452 0.78721 0.0
H183 H 0.93306 0.36249 0.7378 0.0
H184 H 0.23536 0.17496 0.74512 0.0
N185 N 0.27137 0.37632 0.75961 0.0
C186 C 0.22826 0.33533 0.76046 0.0
C187 C 0.15631 0.41894 0.7799 0.0
C188 C 0.14698 0.3346 0.77115 0.0
C189 C 0.23686 0.41794 0.76915 0.0
C190 C 0.11109 0.37715 0.78081 0.0
N191 N 0.3462 0.29552 0.74275 0.0
C192 C 0.38513 0.25565 0.73263 0.0
C193 C 0.22457 0.25027 0.75305 0.0
C194 C 0.26673 0.29363 0.75161 0.0
C195 C 0.26552 0.209 0.74431 0.0
C196 C 0.34598 0.21178 0.73383 0.0
H197 H 0.04872 0.3781 0.78912 0.0
H198 H 0.04193 0.2903 0.78021 0.0
H199 H 0.10988 0.21649 0.76444 0.0
O200 O 0.39593 0.34935 0.68614 0.0
O201 O 0.38819 0.33726 0.79077 0.0
O202 O 0.51425 0.30822 0.80331 0.0
O203 O 0.31656 0.40283 0.70516 0.0
O204 O 0.51363 0.34044 0.72016 0.0
O205 O 0.57211 0.30894 0.76932 0.0
O206 O 0.59052 0.37559 0.85769 0.0
O207 O 0.60367 0.41081 0.75375 0.0
O208 O 0.47587 0.4329 0.73485 0.0
O209 O 0.68694 0.33914 0.83215 0.0
O210 O 0.48505 0.40551 0.81995 0.0
O211 O 0.41552 0.43296 0.77106 0.0
C212 C 0.43593 0.30904 0.80854 0.0
C213 C 0.35848 0.40884 0.64667 0.0
C214 C 0.35779 0.41868 0.58355 0.0
C215 C 0.39588 0.46285 0.58765 0.0
C216 C 0.39603 0.45299 0.65003 0.0
C217 C 0.41464 0.47989 0.62074 0.0
C218 C 0.33888 0.39173 0.61329 0.0
C219 C 0.56579 0.31245 0.73538 0.0
C220 C 0.34139 0.38022 0.67784 0.0
C221 C 0.10455 0.29152 0.77223 0.0
C222 C 0.14325 0.24948 0.76325 0.0
C223 C 0.55498 0.43821 0.73568 0.0
C224 C 0.66797 0.32064 0.89176 0.0
C225 C 0.68608 0.31177 0.95473 0.0
C226 C 0.71378 0.2656 0.94924 0.0
C227 C 0.69564 0.27432 0.88708 0.0
C228 C 0.66275 0.33904 0.92574 0.0
C229 C 0.71811 0.24705 0.9157 0.0
C230 C 0.43731 0.43575 0.80411 0.0
C231 C 0.65775 0.35266 0.86173 0.0
H232 H 0.41064 0.48434 0.56519 0.0
H233 H 0.41074 0.46636 0.67541 0.0
H234 H 0.44379 0.51397 0.62369 0.0
H235 H 0.31041 0.35739 0.61046 0.0
H236 H 0.73362 0.24408 0.97092 0.0
H237 H 0.70211 0.25956 0.86126 0.0
H238 H 0.64231 0.3749 0.92948 0.0
H239 H 0.74056 0.21169 0.91182 0.0
Tb240 Tb 0.09719 0.87366 0.73658 0.0
C241 C 0.76999 0.80056 0.78468 0.0
N242 N 0.79094 0.84678 0.78279 0.0
C243 C 0.66475 0.86428 0.75509 0.0
C244 C 0.697 0.78378 0.77023 0.0
C245 C 0.7386 0.87896 0.76935 0.0
C246 C 0.64432 0.81634 0.75506 0.0
C247 C 0.80069 0.72251 0.80599 0.0
C248 C 0.82119 0.77061 0.8022 0.0
C249 C 0.73033 0.70477 0.78994 0.0
C250 C 0.67839 0.73542 0.77217 0.0
Tb251 Tb 0.91243 0.86811 0.80623 0.0
N252 N 0.88772 0.7895 0.81781 0.0
C253 C 0.84942 0.69429 0.82711 0.0
C254 C 0.92974 0.76318 0.8415 0.0
C255 C 0.91304 0.71501 0.84563 0.0
H256 H 0.75416 0.91581 0.7695 0.0
H257 H 0.94841 0.69411 0.86358 0.0
H258 H 0.21083 0.77894 0.75226 0.0
H259 H 0.19525 0.05472 0.72237 0.0
H260 H 0.97565 0.77909 0.85776 0.0
H261 H 0.83593 0.65714 0.8307 0.0
H262 H 0.10896 0.98464 0.71062 0.0
H263 H 0.62384 0.8899 0.74405 0.0
H264 H 0.71409 0.66779 0.79218 0.0
H265 H 0.62311 0.72162 0.76082 0.0
H266 H 0.33749 0.7614 0.78354 0.0
H267 H 0.58729 0.80499 0.74387 0.0
H268 H 0.31402 0.04761 0.76131 0.0
N269 N 0.21768 0.85291 0.76187 0.0
C270 C 0.26569 0.88911 0.77256 0.0
C271 C 0.3175 0.79751 0.78105 0.0
C272 C 0.33973 0.88097 0.78964 0.0
C273 C 0.24518 0.80759 0.76373 0.0
C274 C 0.36415 0.83433 0.79479 0.0
N275 N 0.17618 0.93958 0.74388 0.0
C276 C 0.16089 0.98149 0.72747 0.0
C277 C 0.29592 0.97277 0.77014 0.0
C278 C 0.24455 0.93419 0.76289 0.0
C279 C 0.27627 0.01697 0.75629 0.0
C280 C 0.20944 0.02109 0.73418 0.0
H281 H 0.42061 0.82649 0.8078 0.0
H282 H 0.44546 0.91409 0.81274 0.0
H283 H 0.4068 0.99469 0.79574 0.0
O284 O 0.07076 0.88474 0.68367 0.0
O285 O 0.07649 0.93217 0.77281 0.0
O286 O 0.03036 0.89586 0.82206 0.0
O287 O 0.18234 0.85348 0.69897 0.0
O288 O 0.98802 0.91234 0.72223 0.0
O289 O 0.91224 0.93096 0.7717 0.0
O290 O 0.86004 0.86025 0.85615 0.0
O291 O 0.89535 0.84677 0.75143 0.0
O292 O 0.01554 0.81252 0.73678 0.0
O293 O 0.86085 0.92812 0.82963 0.0
O294 O 0.03066 0.83885 0.82049 0.0
O295 O 0.07906 0.81015 0.76862 0.0
C296 C 0.06615 0.93135 0.80657 0.0
C297 C 0.12841 0.83177 0.64445 0.0
C298 C 0.13564 0.8155 0.58243 0.0
C299 C 0.10836 0.76927 0.58857 0.0
C300 C 0.10111 0.78549 0.65043 0.0
C301 C 0.09134 0.75435 0.62249 0.0
C302 C 0.14578 0.8466 0.61045 0.0
C303 C 0.93604 0.93895 0.73915 0.0
C304 C 0.13698 0.86569 0.67298 0.0
C305 C 0.38882 0.91954 0.7992 0.0
C306 C 0.36688 0.96544 0.78947 0.0
C307 C 0.93642 0.81448 0.73471 0.0
C308 C 0.79963 0.9261 0.88742 0.0
C309 C 0.76443 0.92781 0.94929 0.0
C310 C 0.71955 0.96884 0.9433 0.0
C311 C 0.75498 0.96744 0.8823 0.0
C312 C 0.80472 0.90642 0.92121 0.0
C313 C 0.71512 0.98853 0.91007 0.0
C314 C 0.07571 0.80944 0.80277 0.0
C315 C 0.8414 0.90457 0.85747 0.0
H316 H 0.10026 0.74485 0.56714 0.0
H317 H 0.08715 0.7736 0.67654 0.0
H318 H 0.07023 0.71867 0.62713 0.0
H319 H 0.16637 0.88245 0.60572 0.0
H320 H 0.68854 0.98598 0.96455 0.0
H321 H 0.75046 0.98336 0.85672 0.0
H322 H 0.83976 0.87485 0.92568 0.0
H323 H 0.68074 0.02034 0.90583 0.0
Tb324 Tb 0.4085 0.6465 0.2376 0.0
C325 C 0.75899 0.69902 0.28037 0.0
N326 N 0.73246 0.65362 0.28103 0.0
C327 C 0.85662 0.62835 0.25532 0.0
C328 C 0.83455 0.71116 0.26607 0.0
C329 C 0.78062 0.61826 0.26931 0.0
C330 C 0.88349 0.67508 0.25339 0.0
C331 C 0.73547 0.7807 0.29485 0.0
C332 C 0.70957 0.73318 0.29411 0.0
C333 C 0.80916 0.79349 0.27936 0.0
C334 C 0.8587 0.75873 0.26503 0.0
Tb335 Tb 0.60491 0.64056 0.30188 0.0
N336 N 0.63848 0.7193 0.30866 0.0
C337 C 0.68835 0.81347 0.31255 0.0
C338 C 0.59913 0.74996 0.33001 0.0
C339 C 0.62129 0.79769 0.33118 0.0
H340 H 0.7611 0.58219 0.27142 0.0
H341 H 0.58779 0.82203 0.34717 0.0
H342 H 0.2979 0.73499 0.26842 0.0
H343 H 0.34591 0.45951 0.22455 0.0
H344 H 0.55246 0.7379 0.3473 0.0
H345 H 0.70592 0.85032 0.31378 0.0
H346 H 0.43191 0.53022 0.22507 0.0
H347 H 0.89437 0.60007 0.24604 0.0
H348 H 0.82947 0.82992 0.27927 0.0
H349 H 0.91613 0.76889 0.2538 0.0
H350 H 0.15985 0.74581 0.29044 0.0
H351 H 0.94217 0.68285 0.24235 0.0
H352 H 0.2018 0.46528 0.24023 0.0
N353 N 0.28318 0.66128 0.25964 0.0
C354 C 0.23096 0.62409 0.25935 0.0
C355 C 0.17923 0.71129 0.28202 0.0
C356 C 0.1507 0.62899 0.27077 0.0
C357 C 0.25808 0.70479 0.27024 0.0
C358 C 0.12527 0.67324 0.28232 0.0
N359 N 0.33816 0.57671 0.23979 0.0
C360 C 0.36934 0.53386 0.2312 0.0
C361 C 0.20751 0.54066 0.24908 0.0
C362 C 0.25892 0.58053 0.24848 0.0
C363 C 0.2392 0.4968 0.23997 0.0
C364 C 0.32055 0.49339 0.23118 0.0
H365 H 0.06413 0.67843 0.29135 0.0
H366 H 0.03683 0.59273 0.27919 0.0
H367 H 0.08663 0.51535 0.26031 0.0
O368 O 0.40467 0.63593 0.18217 0.0
O369 O 0.39424 0.60631 0.28646 0.0
O370 O 0.52259 0.58028 0.29811 0.0
O371 O 0.33371 0.68943 0.20821 0.0
O372 O 0.51017 0.60477 0.21796 0.0
O373 O 0.5968 0.58231 0.26367 0.0
O374 O 0.61254 0.64401 0.35739 0.0
O375 O 0.62242 0.66855 0.24895 0.0
O376 O 0.49998 0.70262 0.23908 0.0
O377 O 0.68463 0.59504 0.3277 0.0
O378 O 0.49027 0.67016 0.32076 0.0
O379 O 0.44128 0.70501 0.27139 0.0
C380 C 0.4445 0.57857 0.30333 0.0
C381 C 0.3124 0.68525 0.14646 0.0
C382 C 0.29534 0.68424 0.08331 0.0
C383 C 0.23542 0.71875 0.08621 0.0
C384 C 0.25174 0.71966 0.1485 0.0
C385 C 0.21365 0.73616 0.1186 0.0
C386 C 0.33368 0.6671 0.11359 0.0
C387 C 0.56885 0.57869 0.23116 0.0
C388 C 0.35116 0.66918 0.1791 0.0
C389 C 0.09874 0.58961 0.2706 0.0
C390 C 0.12706 0.54557 0.25976 0.0
C391 C 0.57663 0.69793 0.23154 0.0
C392 C 0.70319 0.59151 0.39041 0.0
C393 C 0.72983 0.59318 0.45323 0.0
C394 C 0.77619 0.55224 0.44981 0.0
C395 C 0.7499 0.55046 0.38798 0.0
C396 C 0.6924 0.61268 0.42344 0.0
C397 C 0.78582 0.531 0.41746 0.0
C398 C 0.44204 0.70029 0.30523 0.0
C399 C 0.66593 0.61073 0.35823 0.0
H400 H 0.20495 0.73207 0.06323 0.0
H401 H 0.23334 0.73402 0.17333 0.0
H402 H 0.16712 0.7626 0.12056 0.0
H403 H 0.38001 0.64049 0.11149 0.0
H404 H 0.80488 0.53655 0.47238 0.0
H405 H 0.75854 0.53307 0.36319 0.0
H406 H 0.65637 0.64422 0.42591 0.0
H407 H 0.82145 0.49932 0.41521 0.0
C408 C 0.12623 0.95074 0.33436 0.0
C409 C 0.16141 0.95652 0.36754 0.0
C410 C 0.09788 0.98932 0.31533 0.0
C411 C 0.1017 0.03526 0.32896 0.0
H412 H 0.11964 0.91595 0.32303 0.0
H413 H 0.0707 0.98289 0.29007 0.0
S414 S 0.19069 0.07059 0.41361 0.0
N415 N 0.20189 0.01275 0.41237 0.0
N416 N 0.14444 0.08504 0.377 0.0
C417 C 0.13612 0.04189 0.36201 0.0
C418 C 0.16677 1.00261 0.38122 0.0
C419 C 0.33569 0.50738 0.87427 0.0
C420 C 0.35722 0.55385 0.86508 0.0
C421 C 0.36168 0.46895 0.8543 0.0
C422 C 0.40883 0.47612 0.82443 0.0
H423 H 0.29723 0.50084 0.89652 0.0
H424 H 0.34384 0.43356 0.86189 0.0
S425 S 0.49106 0.59004 0.79263 0.0
N426 N 0.43557 0.60425 0.82655 0.0
N427 N 0.48243 0.53222 0.78874 0.0
C428 C 0.43243 0.52216 0.81566 0.0
C429 C 0.40728 0.56103 0.83615 0.0
C430 C 0.70823 0.51302 0.68595 0.0
C431 C 0.66335 0.55279 0.67632 0.0
C432 C 0.67272 0.47616 0.70517 0.0
C433 C 0.59131 0.47802 0.71565 0.0
H434 H 0.77096 0.51033 0.67845 0.0
H435 H 0.70915 0.44575 0.71142 0.0
S436 S 0.45032 0.57679 0.69779 0.0
N437 N 0.53526 0.59295 0.67879 0.0
N438 N 0.46853 0.52497 0.71568 0.0
C439 C 0.54659 0.51836 0.70638 0.0
C440 C 0.58268 0.55545 0.68658 0.0
C441 C 0.89222 0.95531 0.19828 0.0
C442 C 0.82796 0.96369 0.17521 0.0
C443 C 0.9257 0.99189 0.21824 0.0
C444 C 0.89505 0.03798 0.21636 0.0
H445 H 0.91757 0.92031 0.20051 0.0
H446 H 0.97577 0.98391 0.23542 0.0
S447 S 0.72435 0.07758 0.16132 0.0
N448 N 0.73304 0.02085 0.15232 0.0
N449 N 0.7953 0.08972 0.19036 0.0
C450 C 0.82939 0.04658 0.19408 0.0
C451 C 0.79609 0.0094 0.1733 0.0
C452 C 0.91187 0.03177 0.66805 0.0
C453 C 0.84666 0.05918 0.67931 0.0
C454 C 0.93886 0.99297 0.68734 0.0
C455 C 0.90414 0.98044 0.71959 0.0
H456 H 0.9435 0.04049 0.64429 0.0
H457 H 0.98848 0.97307 0.67676 0.0
S458 S 0.73002 0.03954 0.76092 0.0
N459 N 0.74324 0.06808 0.72393 0.0
N460 N 0.80166 0.99956 0.76224 0.0
C461 C 0.83976 0.00792 0.73159 0.0
C462 C 0.80927 0.04605 0.71103 0.0
C463 C 0.70629 0.48087 0.19884 0.0
C464 C 0.66718 0.46328 0.16881 0.0
C465 C 0.67342 0.51723 0.21874 0.0
C466 C 0.60288 0.54074 0.20852 0.0
H467 H 0.76264 0.46606 0.2078 0.0
H468 H 0.70371 0.52624 0.24264 0.0
S469 S 0.47767 0.51136 0.13078 0.0
N470 N 0.55081 0.47226 0.13034 0.0
N471 N 0.49669 0.54544 0.16461 0.0
C472 C 0.56521 0.52568 0.17735 0.0
C473 C 0.59568 0.48622 0.15822 0.0
C474 C 0.29283 0.49384 0.34482 0.0
C475 C 0.34233 0.46031 0.36095 0.0
C476 C 0.32633 0.5327 0.32726 0.0
C477 C 0.41059 0.53858 0.32402 0.0
H478 H 0.22779 0.49067 0.34658 0.0
H479 H 0.28552 0.55842 0.31647 0.0
S480 S 0.56577 0.46086 0.36376 0.0
N481 N 0.47888 0.43614 0.37454 0.0
N482 N 0.54251 0.50785 0.34049 0.0
C483 C 0.46058 0.50521 0.3406 0.0
C484 C 0.42627 0.46632 0.35914 0.0
C485 C 0.16614 1.00263 0.87823 0.0
C486 C 0.15848 0.04939 0.86622 0.0
C487 C 0.1344 0.96455 0.8592 0.0
C488 C 0.09488 0.97184 0.82728 0.0
H489 H 0.19839 0.99529 0.90219 0.0
H490 H 0.14271 0.92912 0.86908 0.0
S491 S 0.05066 0.0871 0.78605 0.0
N492 N 0.10185 0.10073 0.82166 0.0
N493 N 0.04412 0.02897 0.78563 0.0
C494 C 0.085 0.01824 0.81531 0.0
C495 C 0.1164 0.05706 0.83482 0.0
C496 C 0.20415 0.17294 0.99701 0.0
C497 C 0.21868 0.12944 0.98055 0.0
C498 C 0.20623 0.17713 0.03333 0.0
C499 C 0.22153 0.13784 0.05452 0.0
H500 H 0.19278 0.2043 0.98168 0.0
H501 H 0.19771 0.21154 0.04494 0.0
S502 S 0.26177 0.016 0.02509 0.0
N503 N 0.24839 0.04614 0.98872 0.0
N504 N 0.24957 0.05408 0.05711 0.0
C505 C 0.23307 0.09385 0.03873 0.0
C506 C 0.2321 0.08959 1.00169 0.0
C507 C 0.38426 0.39279 0.48779 0.0
C508 C 0.30488 0.38401 0.47621 0.0
C509 C 0.4012 0.40149 0.5229 0.0
C510 C 0.33958 0.40144 0.54791 0.0
H511 H 0.43338 0.39472 0.4693 0.0
H512 H 0.46274 0.40993 0.53039 0.0
S513 S 0.12266 0.37686 0.5317 0.0
N514 N 0.16466 0.37304 0.49288 0.0
N515 N 0.19686 0.38898 0.5592 0.0
C516 C 0.26069 0.3899 0.53715 0.0
C517 C 0.24326 0.38122 0.5012 0.0
C518 C 0.65734 0.31693 0.0526 0.0
C519 C 0.69625 0.35927 0.06215 0.0
C520 C 0.65134 0.30306 1.01771 0.0
C521 C 0.68403 0.33091 0.99083 0.0
H522 H 0.63301 0.29366 0.07241 0.0
H523 H 0.62246 0.26959 1.01179 0.0
S524 S 0.78936 0.44602 1.00186 0.0
N525 N 0.76538 0.42996 0.04187 0.0
N526 N 0.75451 0.40383 0.97612 0.0
C527 C 0.72019 0.37438 0.99984 0.0
C528 C 0.72618 0.38857 0.03553 0.0
C529 C 0.83385 0.18712 0.54974 0.0
C530 C 0.80375 0.14481 0.56415 0.0
C531 C 0.82926 0.19598 0.51392 0.0
C532 C 0.79513 0.16273 0.49103 0.0
H533 H 0.85786 0.21455 0.56654 0.0
H534 H 0.84892 0.23009 0.50424 0.0
S535 S 0.71367 0.04505 0.51475 0.0
N536 N 0.74318 0.06809 0.55224 0.0
N537 N 0.7356 0.08475 0.48463 0.0
C538 C 0.76961 0.1191 0.5046 0.0
C539 C 0.77384 0.11008 0.54125 0.0
C540 C 0.84094 0.90562 0.0411 0.0
C541 C 0.77079 0.89048 0.05868 0.0
C542 C 0.84021 0.91448 1.00503 0.0
C543 C 0.76912 0.90892 0.98533 0.0
H544 H 0.8963 0.9119 0.05551 0.0
H545 H 0.89447 0.92802 0.99283 0.0
S546 S 0.57063 0.86796 1.01808 0.0
N547 N 0.62928 0.86844 0.05293 0.0
N548 N 0.6282 0.88532 0.98542 0.0
C549 C 0.69965 0.89208 1.00223 0.0
C550 C 0.70042 0.88271 0.0388 0.0
C551 C 0.65226 0.61496 0.54437 0.0
C552 C 0.72206 0.63106 0.56209 0.0
C553 C 0.65261 0.60662 0.50825 0.0
C554 C 0.72269 0.61419 0.48849 0.0
H555 H 0.59775 0.607 0.55876 0.0
H556 H 0.59928 0.59152 0.4961 0.0
S557 S 0.91921 0.65938 0.52111 0.0
N558 N 0.86185 0.65663 0.5561 0.0
N559 N 0.86159 0.64153 0.48845 0.0
C560 C 0.79117 0.63281 0.50536 0.0
C561 C 0.79106 0.64122 0.54205 0.0
C562 C 0.34221 0.68973 0.98771 0.0
C563 C 0.31524 0.64549 0.97561 0.0
C564 C 0.34226 0.70056 0.02322 0.0
C565 C 0.31586 0.66748 0.04802 0.0
H566 H 0.36012 0.71696 0.96943 0.0
H567 H 0.35885 0.73599 0.03122 0.0
S568 S 0.24669 0.54525 0.03045 0.0
N569 N 0.26716 0.56713 0.99156 0.0
N570 N 0.26792 0.58765 0.05859 0.0
C571 C 0.29421 0.62205 0.03666 0.0
C572 C 0.29381 0.61097 1.00034 0.0
C573 C 0.24895 0.84314 0.49948 0.0
C574 C 0.18733 0.85815 0.47671 0.0
C575 C 0.23201 0.83009 0.53391 0.0
C576 C 0.15292 0.8315 0.54669 0.0
H577 H 0.31065 0.84093 0.49046 0.0
H578 H 0.28078 0.81811 0.5505 0.0
S579 S 0.97043 0.86925 0.49869 0.0
N580 N 0.04405 0.87433 0.47004 0.0
N581 N 0.01298 0.85025 0.535 0.0
C582 C 0.09113 0.84741 0.52473 0.0
C583 C 0.10817 0.86076 0.48968 0.0
C584 C 0.23028 0.27547 0.34995 0.0
C585 C 0.18625 0.30895 0.36862 0.0
C586 C 0.1912 0.23872 0.33209 0.0
C587 C 0.1063 0.23497 0.33095 0.0
H588 H 0.29556 0.27764 0.34925 0.0
H589 H 0.22838 0.21312 0.31916 0.0
S590 S 0.96439 0.31244 0.37873 0.0
N591 N 0.05456 0.3346 0.38769 0.0
N592 N 0.98 0.26683 0.35298 0.0
C593 C 0.06178 0.26777 0.35064 0.0
C594 C 0.10202 0.30455 0.36957 0.0
C595 C 0.27448 0.23567 0.85387 0.0
C596 C 0.31877 0.19937 0.86942 0.0
C597 C 0.31335 0.27195 0.83557 0.0
C598 C 0.39777 0.27237 0.831 0.0
H599 H 0.2093 0.23607 0.85596 0.0
H600 H 0.27643 0.29965 0.82481 0.0
S601 S 0.54063 0.18628 0.86969 0.0
N602 N 0.45071 0.16718 0.88188 0.0
N603 N 0.52452 0.23418 0.84623 0.0
C604 C 0.44277 0.23664 0.84752 0.0
C605 C 0.403 0.20028 0.86686 0.0
C606 C 0.65708 0.19925 0.70366 0.0
C607 C 0.70703 0.21412 0.67606 0.0
C608 C 0.6112 0.23135 0.72251 0.0
C609 C 0.61129 0.27936 0.71381 0.0
H610 H 0.65299 0.16232 0.71077 0.0
H611 H 0.57484 0.21844 0.74394 0.0
S612 S 0.73375 0.33764 0.64562 0.0
N613 N 0.7569 0.28121 0.64251 0.0
N614 N 0.6662 0.34118 0.67698 0.0
C615 C 0.65974 0.29503 0.68623 0.0
C616 C 0.70858 0.26249 0.66753 0.0
C617 C 0.79393 0.29975 0.21208 0.0
C618 C 0.81184 0.30715 0.17664 0.0
C619 C 0.83694 0.26728 0.23236 0.0
C620 C 0.89701 0.23853 0.21786 0.0
H621 H 0.74566 0.31884 0.2245 0.0
H622 H 0.82186 0.26453 0.25966 0.0
S623 S 0.97411 0.24714 0.12722 0.0
N624 N 0.90216 0.28689 0.12914 0.0
N625 N 0.97604 0.22216 0.16597 0.0
C626 C 0.91662 0.24597 0.18254 0.0
C627 C 0.87548 0.28078 0.16228 0.0
C628 C 0.88033 0.69599 0.69534 0.0
C629 C 0.81152 0.70625 0.67524 0.0
C630 C 0.92084 0.73139 0.71417 0.0
C631 C 0.89301 0.77814 0.71415 0.0
H632 H 0.9033 0.66033 0.69631 0.0
H633 H 0.97362 0.72193 0.7293 0.0
S634 S 0.7155 0.82318 0.66579 0.0
N635 N 0.71732 0.76634 0.65641 0.0
N636 N 0.79311 0.83293 0.692 0.0
C637 C 0.82411 0.78882 0.69429 0.0
C638 C 0.7835 0.75286 0.67475 0.0
C639 C 0.62018 0.81552 0.18799 0.0
C640 C 0.69185 0.8071 0.1697 0.0
C641 C 0.58258 0.77971 0.20732 0.0
C642 C 0.61608 0.73432 0.20958 0.0
H643 H 0.59325 0.85023 0.18748 0.0
H644 H 0.52783 0.78807 0.22125 0.0
S645 S 0.80327 0.69449 0.16633 0.0
N646 N 0.79494 0.7504 0.15474 0.0
N647 N 0.72474 0.68285 0.19135 0.0
C648 C 0.68777 0.72545 0.1913 0.0
C649 C 0.72551 0.76189 0.17125 0.0
C650 C 0.36483 0.81629 0.33946 0.0
C651 C 0.30849 0.80238 0.36494 0.0
C652 C 0.40707 0.78294 0.32003 0.0
C653 C 0.39724 0.73446 0.32631 0.0
H654 H 0.37692 0.85329 0.33454 0.0
H655 H 0.44891 0.79519 0.30032 0.0
S656 S 0.25195 0.67861 0.38668 0.0
N657 N 0.23931 0.73583 0.39235 0.0
N658 N 0.32438 0.67352 0.35759 0.0
C659 C 0.34136 0.71972 0.35133 0.0
C660 C 0.29577 0.75358 0.37027 0.0
C661 C 0.1547 0.69251 0.83483 0.0
C662 C 0.20846 0.70586 0.86172 0.0
C663 C 0.1137 0.72633 0.81504 0.0
C664 C 0.1231 0.77453 0.82215 0.0
H665 H 0.14321 0.65561 0.82931 0.0
H666 H 0.07239 0.71467 0.79481 0.0
S667 S 0.2622 0.82886 0.88641 0.0
N668 N 0.27465 0.7715 0.89151 0.0
N669 N 0.19286 0.83464 0.85577 0.0
C670 C 0.17696 0.78863 0.8484 0.0
C671 C 0.22072 0.75439 0.86787 0.0
loop_
_geom_bond_atom_site_label_1
_geom_bond_atom_site_label_2
_geom_bond_distance
_geom_bond_site_symmetry_2
_ccdc_geom_bond_type
H0 C3 0.931 . S
H1 C6 0.928 . S
H2 C8 0.930 . S
C3 H0 0.931 . S
C3 C4 1.413 . S
C3 C5 1.360 . S
C4 C3 1.413 . S
C4 C8 1.429 . S
C5 C3 1.360 . S
C5 C6 1.372 . S
C6 H1 0.928 . S
C6 C5 1.372 . S
C6 C7 1.404 . S
C7 C6 1.404 . S
C7 C8 1.391 . S
C8 H2 0.930 . S
C8 C4 1.429 . S
C8 C7 1.391 . S
H9 C12 0.931 . S
H10 C15 0.928 . S
H11 C17 0.930 . S
C12 H9 0.931 . S
C12 C13 1.413 . S
C12 C14 1.360 . S
C13 C12 1.413 . S
C13 C17 1.429 . S
C14 C12 1.360 . S
C14 C15 1.372 . S
C15 H10 0.928 . S
C15 C14 1.372 . S
C15 C16 1.404 . S
C16 C15 1.404 . S
C16 C17 1.391 . S
C17 H11 0.930 . S
C17 C13 1.429 . S
C17 C16 1.391 . S
H18 C21 0.931 . S
H19 C24 0.928 . S
H20 C26 0.930 . S
C21 H18 0.931 . S
C21 C22 1.413 . S
C21 C23 1.360 . S
C22 C21 1.413 . S
C22 C26 1.429 . S
C23 C21 1.360 . S
C23 C24 1.372 . S
C24 H19 0.928 . S
C24 C23 1.372 . S
C24 C25 1.404 . S
C25 C24 1.404 . S
C25 C26 1.391 . S
C26 H20 0.930 . S
C26 C22 1.429 . S
C26 C25 1.391 . S
H27 C30 0.931 . S
H28 C33 0.928 . S
H29 C35 0.930 . S
C30 H27 0.931 . S
C30 C31 1.413 . S
C30 C32 1.360 . S
C31 C30 1.413 . S
C31 C35 1.429 . S
C32 C30 1.360 . S
C32 C33 1.372 . S
C33 H28 0.928 . S
C33 C32 1.372 . S
C33 C34 1.404 . S
C34 C33 1.404 . S
C34 C35 1.391 . S
C35 H29 0.930 . S
C35 C31 1.429 . S
C35 C34 1.391 . S
H36 C39 0.931 . S
H37 C42 0.928 . S
H38 C44 0.930 . S
C39 H36 0.931 . S
C39 C40 1.413 . S
C39 C41 1.360 . S
C40 C39 1.413 . S
C40 C44 1.429 . S
C41 C39 1.360 . S
C41 C42 1.372 . S
C42 H37 0.928 . S
C42 C41 1.372 . S
C42 C43 1.404 . S
C43 C42 1.404 . S
C43 C44 1.391 . S
C44 H38 0.930 . S
C44 C40 1.429 . S
C44 C43 1.391 . S
H45 C48 0.931 . S
H46 C51 0.928 . S
H47 C53 0.930 . S
C48 H45 0.931 . S
C48 C49 1.413 . S
C48 C50 1.360 . S
C49 C48 1.413 . S
C49 C53 1.429 . S
C50 C48 1.360 . S
C50 C51 1.372 . S
C51 H46 0.928 . S
C51 C50 1.372 . S
C51 C52 1.404 . S
C52 C51 1.404 . S
C52 C53 1.391 . S
C53 H47 0.930 . S
C53 C49 1.429 . S
C53 C52 1.391 . S
H54 C57 0.931 . S
H55 C60 0.928 . S
H56 C62 0.930 . S
C57 H54 0.931 . S
C57 C58 1.413 . S
C57 C59 1.360 . S
C58 C57 1.413 . S
C58 C62 1.429 . S
C59 C57 1.360 . S
C59 C60 1.372 . S
C60 H55 0.928 . S
C60 C59 1.372 . S
C60 C61 1.404 . S
C61 C60 1.404 . S
C61 C62 1.391 . S
C62 H56 0.930 . S
C62 C58 1.429 . S
C62 C61 1.391 . S
H63 C66 0.931 . S
H64 C69 0.928 . S
H65 C71 0.930 . S
C66 H63 0.931 . S
C66 C67 1.413 . S
C66 C68 1.360 . S
C67 C66 1.413 . S
C67 C71 1.429 . S
C68 C66 1.360 . S
C68 C69 1.372 . S
C69 H64 0.928 . S
C69 C68 1.372 . S
C69 C70 1.404 . S
C70 C69 1.404 . S
C70 C71 1.391 . S
C71 H65 0.930 . S
C71 C67 1.429 . S
C71 C70 1.391 . S
Tb72 N101 2.617 . S
Tb72 N107 2.572 . S
Tb72 O116 2.465 . S
Tb72 O117 2.387 . S
Tb72 O119 2.428 . S
Tb72 O120 2.308 1_455 S
Tb72 O124 2.349 1_455 S
Tb72 O127 2.393 . S
Tb72 C136 2.802 . S
C73 N74 1.379 . S
C73 C76 1.416 . S
C73 C80 1.424 . S
N74 C73 1.379 . S
N74 C77 1.334 . S
N74 Tb83 2.617 . S
C75 C77 1.390 . S
C75 C78 1.339 . S
C75 H95 0.930 . S
C76 C73 1.416 . S
C76 C78 1.416 . S
C76 C82 1.448 . S
C77 N74 1.334 . S
C77 C75 1.390 . S
C77 H88 0.930 . S
C78 C75 1.339 . S
C78 C76 1.416 . S
C78 H99 0.930 . S
C79 C80 1.413 . S
C79 C81 1.427 . S
C79 C85 1.416 1_545 S
C80 C73 1.424 . S
C80 C79 1.413 . S
C80 N84 1.361 . S
C81 C79 1.427 . S
C81 C82 1.328 . S
C81 H96 0.929 1_545 S
C82 C76 1.448 . S
C82 C81 1.328 . S
C82 H97 0.930 . S
Tb83 N74 2.617 . S
Tb83 N84 2.572 . S
Tb83 O118 2.349 1_655 S
Tb83 O121 2.393 . S
Tb83 O122 2.465 . S
Tb83 O123 2.387 . S
Tb83 O125 2.428 . S
Tb83 O126 2.308 1_655 S
Tb83 C147 2.802 . S
N84 C80 1.361 . S
N84 Tb83 2.572 . S
N84 C86 1.340 . S
C85 C79 1.416 1_565 S
C85 C87 1.332 . S
C85 H93 0.931 . S
C86 N84 1.340 . S
C86 C87 1.407 1_545 S
C86 H92 0.930 . S
C87 C85 1.332 . S
C87 C86 1.407 1_565 S
C87 H89 0.929 . S
H88 C77 0.930 . S
H89 C87 0.929 . S
H90 C105 0.930 . S
H91 C112 0.929 . S
H92 C86 0.930 . S
H93 C85 0.931 . S
H94 C108 0.930 . S
H95 C75 0.930 . S
H96 C81 0.929 1_565 S
H97 C82 0.930 . S
H98 C103 0.930 . S
H99 C78 0.930 . S
H100 C111 0.931 . S
N101 Tb72 2.617 . S
N101 C102 1.379 . S
N101 C105 1.334 . S
C102 N101 1.379 . S
C102 C104 1.416 . S
C102 C110 1.424 . S
C103 H98 0.930 . S
C103 C105 1.390 . S
C103 C106 1.339 . S
C104 C102 1.416 . S
C104 C106 1.416 . S
C104 C137 1.448 . S
C105 H90 0.930 . S
C105 N101 1.334 . S
C105 C103 1.390 . S
C106 C103 1.339 . S
C106 C104 1.416 . S
C106 H113 0.930 . S
N107 Tb72 2.572 . S
N107 C108 1.340 . S
N107 C110 1.361 . S
C108 H94 0.930 . S
C108 N107 1.340 . S
C108 C112 1.407 . S
C109 C110 1.413 . S
C109 C111 1.416 . S
C109 C138 1.427 . S
C110 C102 1.424 . S
C110 N107 1.361 . S
C110 C109 1.413 . S
C111 H100 0.931 . S
C111 C109 1.416 . S
C111 C112 1.332 . S
C112 H91 0.929 . S
C112 C108 1.407 . S
C112 C111 1.332 . S
H113 C106 0.930 . S
H114 C137 0.930 . S
H115 C138 0.929 . S
O116 Tb72 2.465 . S
O116 C136 1.264 . S
O117 Tb72 2.387 . S
O117 C128 1.264 . S
O118 Tb83 2.349 1_455 S
O118 C128 1.243 . S
O119 Tb72 2.428 . S
O119 C136 1.256 . S
O120 Tb72 2.308 1_655 S
O120 C135 1.266 . S
O121 Tb83 2.393 . S
O121 C135 1.248 . S
O122 Tb83 2.465 . S
O122 C147 1.264 . S
O123 Tb83 2.387 . S
O123 C139 1.264 . S
O124 Tb72 2.349 1_655 S
O124 C139 1.243 . S
O125 Tb83 2.428 . S
O125 C147 1.256 . S
O126 Tb83 2.308 1_455 S
O126 C146 1.266 . S
O127 Tb72 2.393 . S
O127 C146 1.248 . S
C128 O117 1.264 . S
C128 O118 1.243 . S
C129 C132 1.399 . S
C129 C134 1.383 . S
C129 C136 1.496 . S
C130 C131 1.399 . S
C130 C134 1.389 . S
C131 C130 1.399 . S
C131 C133 1.380 . S
C131 H148 0.929 . S
C132 C129 1.399 . S
C132 C133 1.392 . S
C132 H149 0.929 . S
C133 C131 1.380 . S
C133 C132 1.392 . S
C133 H150 0.929 . S
C134 C129 1.383 . S
C134 C130 1.389 . S
C134 H151 0.931 . S
C135 O120 1.266 . S
C135 O121 1.248 . S
C136 Tb72 2.802 . S
C136 O116 1.264 . S
C136 O119 1.256 . S
C136 C129 1.496 . S
C137 C104 1.448 . S
C137 H114 0.930 . S
C137 C138 1.328 . S
C138 C109 1.427 . S
C138 H115 0.929 . S
C138 C137 1.328 . S
C139 O123 1.264 . S
C139 O124 1.243 . S
C140 C143 1.399 . S
C140 C144 1.383 . S
C140 C147 1.496 . S
C141 C142 1.399 . S
C141 C144 1.389 . S
C142 C141 1.399 . S
C142 C145 1.380 . S
C142 H152 0.929 . S
C143 C140 1.399 . S
C143 C145 1.392 . S
C143 H153 0.929 . S
C144 C140 1.383 . S
C144 C141 1.389 . S
C144 H154 0.931 . S
C145 C142 1.380 . S
C145 C143 1.392 . S
C145 H155 0.929 . S
C146 O126 1.266 . S
C146 O127 1.248 . S
C147 Tb83 2.802 . S
C147 O122 1.264 . S
C147 O125 1.256 . S
C147 C140 1.496 . S
H148 C131 0.929 . S
H149 C132 0.929 . S
H150 C133 0.929 . S
H151 C134 0.931 . S
H152 C142 0.929 . S
H153 C143 0.929 . S
H154 C144 0.931 . S
H155 C145 0.929 . S
Tb156 N185 2.617 . S
Tb156 N191 2.572 . S
Tb156 O200 2.465 . S
Tb156 O201 2.387 . S
Tb156 O203 2.428 . S
Tb156 O204 2.308 . S
Tb156 O208 2.349 . S
Tb156 O211 2.393 . S
Tb156 C220 2.802 . S
C157 N158 1.379 . S
C157 C160 1.416 . S
C157 C164 1.424 . S
N158 C157 1.379 . S
N158 C161 1.334 . S
N158 Tb167 2.617 . S
C159 C161 1.390 . S
C159 C162 1.339 . S
C159 H179 0.930 . S
C160 C157 1.416 . S
C160 C162 1.416 . S
C160 C166 1.448 . S
C161 N158 1.334 . S
C161 C159 1.390 . S
C161 H172 0.930 . S
C162 C159 1.339 . S
C162 C160 1.416 . S
C162 H183 0.930 . S
C163 C164 1.413 . S
C163 C165 1.427 . S
C163 C169 1.416 . S
C164 C157 1.424 . S
C164 C163 1.413 . S
C164 N168 1.361 . S
C165 C163 1.427 . S
C165 C166 1.328 . S
C165 H180 0.929 . S
C166 C160 1.448 . S
C166 C165 1.328 . S
C166 H181 0.930 . S
Tb167 N158 2.617 . S
Tb167 N168 2.572 . S
Tb167 O202 2.349 . S
Tb167 O205 2.393 . S
Tb167 O206 2.465 . S
Tb167 O207 2.387 . S
Tb167 O209 2.428 . S
Tb167 O210 2.308 . S
Tb167 C231 2.802 . S
N168 C164 1.361 . S
N168 Tb167 2.572 . S
N168 C170 1.340 . S
C169 C163 1.416 . S
C169 C171 1.332 . S
C169 H177 0.931 . S
C170 N168 1.340 . S
C170 C171 1.407 . S
C170 H176 0.930 . S
C171 C169 1.332 . S
C171 C170 1.407 . S
C171 H173 0.929 . S
H172 C161 0.930 . S
H173 C171 0.929 . S
H174 C189 0.930 . S
H175 C196 0.929 . S
H176 C170 0.930 . S
H177 C169 0.931 . S
H178 C192 0.930 . S
H179 C159 0.930 . S
H180 C165 0.929 . S
H181 C166 0.930 . S
H182 C187 0.930 . S
H183 C162 0.930 . S
H184 C195 0.931 . S
N185 Tb156 2.617 . S
N185 C186 1.379 . S
N185 C189 1.334 . S
C186 N185 1.379 . S
C186 C188 1.416 . S
C186 C194 1.424 . S
C187 H182 0.930 . S
C187 C189 1.390 . S
C187 C190 1.339 . S
C188 C186 1.416 . S
C188 C190 1.416 . S
C188 C221 1.448 . S
C189 H174 0.930 . S
C189 N185 1.334 . S
C189 C187 1.390 . S
C190 C187 1.339 . S
C190 C188 1.416 . S
C190 H197 0.930 . S
N191 Tb156 2.572 . S
N191 C192 1.340 . S
N191 C194 1.361 . S
C192 H178 0.930 . S
C192 N191 1.340 . S
C192 C196 1.407 . S
C193 C194 1.413 . S
C193 C195 1.416 . S
C193 C222 1.427 . S
C194 C186 1.424 . S
C194 N191 1.361 . S
C194 C193 1.413 . S
C195 H184 0.931 . S
C195 C193 1.416 . S
C195 C196 1.332 . S
C196 H175 0.929 . S
C196 C192 1.407 . S
C196 C195 1.332 . S
H197 C190 0.930 . S
H198 C221 0.930 . S
H199 C222 0.929 . S
O200 Tb156 2.465 . S
O200 C220 1.264 . S
O201 Tb156 2.387 . S
O201 C212 1.264 . S
O202 Tb167 2.349 . S
O202 C212 1.243 . S
O203 Tb156 2.428 . S
O203 C220 1.256 . S
O204 Tb156 2.308 . S
O204 C219 1.266 . S
O205 Tb167 2.393 . S
O205 C219 1.248 . S
O206 Tb167 2.465 . S
O206 C231 1.264 . S
O207 Tb167 2.387 . S
O207 C223 1.264 . S
O208 Tb156 2.349 . S
O208 C223 1.243 . S
O209 Tb167 2.428 . S
O209 C231 1.256 . S
O210 Tb167 2.308 . S
O210 C230 1.266 . S
O211 Tb156 2.393 . S
O211 C230 1.248 . S
C212 O201 1.264 . S
C212 O202 1.243 . S
C213 C216 1.399 . S
C213 C218 1.383 . S
C213 C220 1.496 . S
C214 C215 1.399 . S
C214 C218 1.389 . S
C215 C214 1.399 . S
C215 C217 1.380 . S
C215 H232 0.929 . S
C216 C213 1.399 . S
C216 C217 1.392 . S
C216 H233 0.929 . S
C217 C215 1.380 . S
C217 C216 1.392 . S
C217 H234 0.929 . S
C218 C213 1.383 . S
C218 C214 1.389 . S
C218 H235 0.931 . S
C219 O204 1.266 . S
C219 O205 1.248 . S
C220 Tb156 2.802 . S
C220 O200 1.264 . S
C220 O203 1.256 . S
C220 C213 1.496 . S
C221 C188 1.448 . S
C221 H198 0.930 . S
C221 C222 1.328 . S
C222 C193 1.427 . S
C222 H199 0.929 . S
C222 C221 1.328 . S
C223 O207 1.264 . S
C223 O208 1.243 . S
C224 C227 1.399 . S
C224 C228 1.383 . S
C224 C231 1.496 . S
C225 C226 1.399 . S
C225 C228 1.389 . S
C226 C225 1.399 . S
C226 C229 1.380 . S
C226 H236 0.929 . S
C227 C224 1.399 . S
C227 C229 1.392 . S
C227 H237 0.929 . S
C228 C224 1.383 . S
C228 C225 1.389 . S
C228 H238 0.931 . S
C229 C226 1.380 . S
C229 C227 1.392 . S
C229 H239 0.929 . S
C230 O210 1.266 . S
C230 O211 1.248 . S
C231 Tb167 2.802 . S
C231 O206 1.264 . S
C231 O209 1.256 . S
C231 C224 1.496 . S
H232 C215 0.929 . S
H233 C216 0.929 . S
H234 C217 0.929 . S
H235 C218 0.931 . S
H236 C226 0.929 . S
H237 C227 0.929 . S
H238 C228 0.931 . S
H239 C229 0.929 . S
Tb240 N269 2.617 . S
Tb240 N275 2.572 . S
Tb240 O284 2.465 . S
Tb240 O285 2.387 . S
Tb240 O287 2.428 . S
Tb240 O288 2.308 . S
Tb240 O292 2.349 . S
Tb240 O295 2.393 . S
Tb240 C304 2.802 . S
C241 N242 1.379 . S
C241 C244 1.416 . S
C241 C248 1.424 . S
N242 C241 1.379 . S
N242 C245 1.334 . S
N242 Tb251 2.617 . S
C243 C245 1.390 . S
C243 C246 1.339 . S
C243 H263 0.930 . S
C244 C241 1.416 . S
C244 C246 1.416 . S
C244 C250 1.448 . S
C245 N242 1.334 . S
C245 C243 1.390 . S
C245 H256 0.930 . S
C246 C243 1.339 . S
C246 C244 1.416 . S
C246 H267 0.930 . S
C247 C248 1.413 . S
C247 C249 1.427 . S
C247 C253 1.416 . S
C248 C241 1.424 . S
C248 C247 1.413 . S
C248 N252 1.361 . S
C249 C247 1.427 . S
C249 C250 1.328 . S
C249 H264 0.929 . S
C250 C244 1.448 . S
C250 C249 1.328 . S
C250 H265 0.930 . S
Tb251 N242 2.617 . S
Tb251 N252 2.572 . S
Tb251 O286 2.349 1_655 S
Tb251 O289 2.393 . S
Tb251 O290 2.465 . S
Tb251 O291 2.387 . S
Tb251 O293 2.428 . S
Tb251 O294 2.308 1_655 S
Tb251 C315 2.802 . S
N252 C248 1.361 . S
N252 Tb251 2.572 . S
N252 C254 1.340 . S
C253 C247 1.416 . S
C253 C255 1.332 . S
C253 H261 0.931 . S
C254 N252 1.340 . S
C254 C255 1.407 . S
C254 H260 0.930 . S
C255 C253 1.332 . S
C255 C254 1.407 . S
C255 H257 0.929 . S
H256 C245 0.930 . S
H257 C255 0.929 . S
H258 C273 0.930 . S
H259 C280 0.929 . S
H260 C254 0.930 . S
H261 C253 0.931 . S
H262 C276 0.930 . S
H263 C243 0.930 . S
H264 C249 0.929 . S
H265 C250 0.930 . S
H266 C271 0.930 . S
H267 C246 0.930 . S
H268 C279 0.931 . S
N269 Tb240 2.617 . S
N269 C270 1.379 . S
N269 C273 1.334 . S
C270 N269 1.379 . S
C270 C272 1.416 . S
C270 C278 1.424 . S
C271 H266 0.930 . S
C271 C273 1.390 . S
C271 C274 1.339 . S
C272 C270 1.416 . S
C272 C274 1.416 . S
C272 C305 1.448 . S
C273 H258 0.930 . S
C273 N269 1.334 . S
C273 C271 1.390 . S
C274 C271 1.339 . S
C274 C272 1.416 . S
C274 H281 0.930 . S
N275 Tb240 2.572 . S
N275 C276 1.340 . S
N275 C278 1.361 . S
C276 H262 0.930 . S
C276 N275 1.340 . S
C276 C280 1.407 1_565 S
C277 C278 1.413 . S
C277 C279 1.416 1_565 S
C277 C306 1.427 . S
C278 C270 1.424 . S
C278 N275 1.361 . S
C278 C277 1.413 . S
C279 H268 0.931 . S
C279 C277 1.416 1_545 S
C279 C280 1.332 . S
C280 H259 0.929 . S
C280 C276 1.407 1_545 S
C280 C279 1.332 . S
H281 C274 0.930 . S
H282 C305 0.930 . S
H283 C306 0.929 1_545 S
O284 Tb240 2.465 . S
O284 C304 1.264 . S
O285 Tb240 2.387 . S
O285 C296 1.264 . S
O286 Tb251 2.349 1_455 S
O286 C296 1.243 . S
O287 Tb240 2.428 . S
O287 C304 1.256 . S
O288 Tb240 2.308 . S
O288 C303 1.266 1_455 S
O289 Tb251 2.393 . S
O289 C303 1.248 . S
O290 Tb251 2.465 . S
O290 C315 1.264 . S
O291 Tb251 2.387 . S
O291 C307 1.264 . S
O292 Tb240 2.349 . S
O292 C307 1.243 1_455 S
O293 Tb251 2.428 . S
O293 C315 1.256 . S
O294 Tb251 2.308 1_455 S
O294 C314 1.266 . S
O295 Tb240 2.393 . S
O295 C314 1.248 . S
C296 O285 1.264 . S
C296 O286 1.243 . S
C297 C300 1.399 . S
C297 C302 1.383 . S
C297 C304 1.496 . S
C298 C299 1.399 . S
C298 C302 1.389 . S
C299 C298 1.399 . S
C299 C301 1.380 . S
C299 H316 0.929 . S
C300 C297 1.399 . S
C300 C301 1.392 . S
C300 H317 0.929 . S
C301 C299 1.380 . S
C301 C300 1.392 . S
C301 H318 0.929 . S
C302 C297 1.383 . S
C302 C298 1.389 . S
C302 H319 0.931 . S
C303 O288 1.266 1_655 S
C303 O289 1.248 . S
C304 Tb240 2.802 . S
C304 O284 1.264 . S
C304 O287 1.256 . S
C304 C297 1.496 . S
C305 C272 1.448 . S
C305 H282 0.930 . S
C305 C306 1.328 . S
C306 C277 1.427 . S
C306 H283 0.929 1_565 S
C306 C305 1.328 . S
C307 O291 1.264 . S
C307 O292 1.243 1_655 S
C308 C311 1.399 . S
C308 C312 1.383 . S
C308 C315 1.496 . S
C309 C310 1.399 . S
C309 C312 1.389 . S
C310 C309 1.399 . S
C310 C313 1.380 . S
C310 H320 0.929 . S
C311 C308 1.399 . S
C311 C313 1.392 . S
C311 H321 0.929 . S
C312 C308 1.383 . S
C312 C309 1.389 . S
C312 H322 0.931 . S
C313 C310 1.380 . S
C313 C311 1.392 . S
C313 H323 0.929 . S
C314 O294 1.266 . S
C314 O295 1.248 . S
C315 Tb251 2.802 . S
C315 O290 1.264 . S
C315 O293 1.256 . S
C315 C308 1.496 . S
H316 C299 0.929 . S
H317 C300 0.929 . S
H318 C301 0.929 . S
H319 C302 0.931 . S
H320 C310 0.929 . S
H321 C311 0.929 . S
H322 C312 0.931 . S
H323 C313 0.929 . S
Tb324 N353 2.617 . S
Tb324 N359 2.572 . S
Tb324 O368 2.465 . S
Tb324 O369 2.387 . S
Tb324 O371 2.428 . S
Tb324 O372 2.308 . S
Tb324 O376 2.349 . S
Tb324 O379 2.393 . S
Tb324 C388 2.802 . S
C325 N326 1.379 . S
C325 C328 1.416 . S
C325 C332 1.424 . S
N326 C325 1.379 . S
N326 C329 1.334 . S
N326 Tb335 2.617 . S
C327 C329 1.390 . S
C327 C330 1.339 . S
C327 H347 0.930 . S
C328 C325 1.416 . S
C328 C330 1.416 . S
C328 C334 1.448 . S
C329 N326 1.334 . S
C329 C327 1.390 . S
C329 H340 0.930 . S
C330 C327 1.339 . S
C330 C328 1.416 . S
C330 H351 0.930 . S
C331 C332 1.413 . S
C331 C333 1.427 . S
C331 C337 1.416 . S
C332 C325 1.424 . S
C332 C331 1.413 . S
C332 N336 1.361 . S
C333 C331 1.427 . S
C333 C334 1.328 . S
C333 H348 0.929 . S
C334 C328 1.448 . S
C334 C333 1.328 . S
C334 H349 0.930 . S
Tb335 N326 2.617 . S
Tb335 N336 2.572 . S
Tb335 O370 2.349 . S
Tb335 O373 2.393 . S
Tb335 O374 2.465 . S
Tb335 O375 2.387 . S
Tb335 O377 2.428 . S
Tb335 O378 2.308 . S
Tb335 C399 2.802 . S
N336 C332 1.361 . S
N336 Tb335 2.572 . S
N336 C338 1.340 . S
C337 C331 1.416 . S
C337 C339 1.332 . S
C337 H345 0.931 . S
C338 N336 1.340 . S
C338 C339 1.407 . S
C338 H344 0.930 . S
C339 C337 1.332 . S
C339 C338 1.407 . S
C339 H341 0.929 . S
H340 C329 0.930 . S
H341 C339 0.929 . S
H342 C357 0.930 . S
H343 C364 0.929 . S
H344 C338 0.930 . S
H345 C337 0.931 . S
H346 C360 0.930 . S
H347 C327 0.930 . S
H348 C333 0.929 . S
H349 C334 0.930 . S
H350 C355 0.930 . S
H351 C330 0.930 . S
H352 C363 0.931 . S
N353 Tb324 2.617 . S
N353 C354 1.379 . S
N353 C357 1.334 . S
C354 N353 1.379 . S
C354 C356 1.416 . S
C354 C362 1.424 . S
C355 H350 0.930 . S
C355 C357 1.390 . S
C355 C358 1.339 . S
C356 C354 1.416 . S
C356 C358 1.416 . S
C356 C389 1.448 . S
C357 H342 0.930 . S
C357 N353 1.334 . S
C357 C355 1.390 . S
C358 C355 1.339 . S
C358 C356 1.416 . S
C358 H365 0.930 . S
N359 Tb324 2.572 . S
N359 C360 1.340 . S
N359 C362 1.361 . S
C360 H346 0.930 . S
C360 N359 1.340 . S
C360 C364 1.407 . S
C361 C362 1.413 . S
C361 C363 1.416 . S
C361 C390 1.427 . S
C362 C354 1.424 . S
C362 N359 1.361 . S
C362 C361 1.413 . S
C363 H352 0.931 . S
C363 C361 1.416 . S
C363 C364 1.332 . S
C364 H343 0.929 . S
C364 C360 1.407 . S
C364 C363 1.332 . S
H365 C358 0.930 . S
H366 C389 0.930 . S
H367 C390 0.929 . S
O368 Tb324 2.465 . S
O368 C388 1.264 . S
O369 Tb324 2.387 . S
O369 C380 1.264 . S
O370 Tb335 2.349 . S
O370 C380 1.243 . S
O371 Tb324 2.428 . S
O371 C388 1.256 . S
O372 Tb324 2.308 . S
O372 C387 1.266 . S
O373 Tb335 2.393 . S
O373 C387 1.248 . S
O374 Tb335 2.465 . S
O374 C399 1.264 . S
O375 Tb335 2.387 . S
O375 C391 1.264 . S
O376 Tb324 2.349 . S
O376 C391 1.243 . S
O377 Tb335 2.428 . S
O377 C399 1.256 . S
O378 Tb335 2.308 . S
O378 C398 1.266 . S
O379 Tb324 2.393 . S
O379 C398 1.248 . S
C380 O369 1.264 . S
C380 O370 1.243 . S
C381 C384 1.399 . S
C381 C386 1.383 . S
C381 C388 1.496 . S
C382 C383 1.399 . S
C382 C386 1.389 . S
C383 C382 1.399 . S
C383 C385 1.380 . S
C383 H400 0.929 . S
C384 C381 1.399 . S
C384 C385 1.392 . S
C384 H401 0.929 . S
C385 C383 1.380 . S
C385 C384 1.392 . S
C385 H402 0.929 . S
C386 C381 1.383 . S
C386 C382 1.389 . S
C386 H403 0.931 . S
C387 O372 1.266 . S
C387 O373 1.248 . S
C388 Tb324 2.802 . S
C388 O368 1.264 . S
C388 O371 1.256 . S
C388 C381 1.496 . S
C389 C356 1.448 . S
C389 H366 0.930 . S
C389 C390 1.328 . S
C390 C361 1.427 . S
C390 H367 0.929 . S
C390 C389 1.328 . S
C391 O375 1.264 . S
C391 O376 1.243 . S
C392 C395 1.399 . S
C392 C396 1.383 . S
C392 C399 1.496 . S
C393 C394 1.399 . S
C393 C396 1.389 . S
C394 C393 1.399 . S
C394 C397 1.380 . S
C394 H404 0.929 . S
C395 C392 1.399 . S
C395 C397 1.392 . S
C395 H405 0.929 . S
C396 C392 1.383 . S
C396 C393 1.389 . S
C396 H406 0.931 . S
C397 C394 1.380 . S
C397 C395 1.392 . S
C397 H407 0.929 . S
C398 O378 1.266 . S
C398 O379 1.248 . S
C399 Tb335 2.802 . S
C399 O374 1.264 . S
C399 O377 1.256 . S
C399 C392 1.496 . S
H400 C383 0.929 . S
H401 C384 0.929 . S
H402 C385 0.929 . S
H403 C386 0.931 . S
H404 C394 0.929 . S
H405 C395 0.929 . S
H406 C396 0.931 . S
H407 C397 0.929 . S
C408 C409 1.369 . S
C408 C410 1.419 . S
C408 H412 0.930 . S
C409 C408 1.369 . S
C409 C418 1.429 1_565 S
C410 C408 1.419 . S
C410 C411 1.363 1_565 S
C410 H413 0.929 . S
C411 C410 1.363 1_545 S
C411 C417 1.428 . S
H412 C408 0.930 . S
H413 C410 0.929 . S
S414 N415 1.613 . S
S414 N416 1.610 . S
N415 S414 1.613 . S
N415 C418 1.350 . S
N416 S414 1.610 . S
N416 C417 1.351 . S
C417 C411 1.428 . S
C417 N416 1.351 . S
C417 C418 1.434 . S
C418 C409 1.429 1_545 S
C418 N415 1.350 . S
C418 C417 1.434 . S
C419 C420 1.369 . S
C419 C421 1.419 . S
C419 H423 0.930 . S
C420 C419 1.369 . S
C420 C429 1.429 . S
C421 C419 1.419 . S
C421 C422 1.363 . S
C421 H424 0.929 . S
C422 C421 1.363 . S
C422 C428 1.428 . S
H423 C419 0.930 . S
H424 C421 0.929 . S
S425 N426 1.613 . S
S425 N427 1.610 . S
N426 S425 1.613 . S
N426 C429 1.350 . S
N427 S425 1.610 . S
N427 C428 1.351 . S
C428 C422 1.428 . S
C428 N427 1.351 . S
C428 C429 1.434 . S
C429 C420 1.429 . S
C429 N426 1.350 . S
C429 C428 1.434 . S
C430 C431 1.369 . S
C430 C432 1.419 . S
C430 H434 0.930 . S
C431 C430 1.369 . S
C431 C440 1.429 . S
C432 C430 1.419 . S
C432 C433 1.363 . S
C432 H435 0.929 . S
C433 C432 1.363 . S
C433 C439 1.428 . S
H434 C430 0.930 . S
H435 C432 0.929 . S
S436 N437 1.613 . S
S436 N438 1.610 . S
N437 S436 1.613 . S
N437 C440 1.350 . S
N438 S436 1.610 . S
N438 C439 1.351 . S
C439 C433 1.428 . S
C439 N438 1.351 . S
C439 C440 1.434 . S
C440 C431 1.429 . S
C440 N437 1.350 . S
C440 C439 1.434 . S
C441 C442 1.369 . S
C441 C443 1.419 . S
C441 H445 0.930 . S
C442 C441 1.369 . S
C442 C451 1.429 1_565 S
C443 C441 1.419 . S
C443 C444 1.363 1_565 S
C443 H446 0.929 . S
C444 C443 1.363 1_545 S
C444 C450 1.428 . S
H445 C441 0.930 . S
H446 C443 0.929 . S
S447 N448 1.613 . S
S447 N449 1.610 . S
N448 S447 1.613 . S
N448 C451 1.350 . S
N449 S447 1.610 . S
N449 C450 1.351 . S
C450 C444 1.428 . S
C450 N449 1.351 . S
C450 C451 1.434 . S
C451 C442 1.429 1_545 S
C451 N448 1.350 . S
C451 C450 1.434 . S
C452 C453 1.369 . S
C452 C454 1.419 1_545 S
C452 H456 0.930 . S
C453 C452 1.369 . S
C453 C462 1.429 . S
C454 C452 1.419 1_565 S
C454 C455 1.363 . S
C454 H457 0.929 . S
C455 C454 1.363 . S
C455 C461 1.428 . S
H456 C452 0.930 . S
H457 C454 0.929 . S
S458 N459 1.613 1_565 S
S458 N460 1.610 . S
N459 S458 1.613 1_545 S
N459 C462 1.350 . S
N460 S458 1.610 . S
N460 C461 1.351 . S
C461 C455 1.428 . S
C461 N460 1.351 . S
C461 C462 1.434 1_565 S
C462 C453 1.429 . S
C462 N459 1.350 . S
C462 C461 1.434 1_545 S
C463 C464 1.369 . S
C463 C465 1.419 . S
C463 H467 0.930 . S
C464 C463 1.369 . S
C464 C473 1.429 . S
C465 C463 1.419 . S
C465 C466 1.363 . S
C465 H468 0.929 . S
C466 C465 1.363 . S
C466 C472 1.428 . S
H467 C463 0.930 . S
H468 C465 0.929 . S
S469 N470 1.613 . S
S469 N471 1.610 . S
N470 S469 1.613 . S
N470 C473 1.350 . S
N471 S469 1.610 . S
N471 C472 1.351 . S
C472 C466 1.428 . S
C472 N471 1.351 . S
C472 C473 1.434 . S
C473 C464 1.429 . S
C473 N470 1.350 . S
C473 C472 1.434 . S
C474 C475 1.369 . S
C474 C476 1.419 . S
C474 H478 0.930 . S
C475 C474 1.369 . S
C475 C484 1.429 . S
C476 C474 1.419 . S
C476 C477 1.363 . S
C476 H479 0.929 . S
C477 C476 1.363 . S
C477 C483 1.428 . S
H478 C474 0.930 . S
H479 C476 0.929 . S
S480 N481 1.613 . S
S480 N482 1.610 . S
N481 S480 1.613 . S
N481 C484 1.350 . S
N482 S480 1.610 . S
N482 C483 1.351 . S
C483 C477 1.428 . S
C483 N482 1.351 . S
C483 C484 1.434 . S
C484 C475 1.429 . S
C484 N481 1.350 . S
C484 C483 1.434 . S
C485 C486 1.369 1_565 S
C485 C487 1.419 . S
C485 H489 0.930 . S
C486 C485 1.369 1_545 S
C486 C495 1.429 . S
C487 C485 1.419 . S
C487 C488 1.363 . S
C487 H490 0.929 . S
C488 C487 1.363 . S
C488 C494 1.428 1_565 S
H489 C485 0.930 . S
H490 C487 0.929 . S
S491 N492 1.613 . S
S491 N493 1.610 . S
N492 S491 1.613 . S
N492 C495 1.350 . S
N493 S491 1.610 . S
N493 C494 1.351 . S
C494 C488 1.428 1_545 S
C494 N493 1.351 . S
C494 C495 1.434 . S
C495 C486 1.429 . S
C495 N492 1.350 . S
C495 C494 1.434 . S
C496 C497 1.369 . S
C496 C498 1.419 1_556 S
C496 H500 0.930 . S
C497 C496 1.369 . S
C497 C506 1.429 . S
C498 C496 1.419 1_554 S
C498 C499 1.363 . S
C498 H501 0.929 . S
C499 C498 1.363 . S
C499 C505 1.428 . S
H500 C496 0.930 . S
H501 C498 0.929 . S
S502 N503 1.613 1_554 S
S502 N504 1.610 . S
N503 S502 1.613 1_556 S
N503 C506 1.350 . S
N504 S502 1.610 . S
N504 C505 1.351 . S
C505 C499 1.428 . S
C505 N504 1.351 . S
C505 C506 1.434 1_554 S
C506 C497 1.429 . S
C506 N503 1.350 . S
C506 C505 1.434 1_556 S
C507 C508 1.369 . S
C507 C509 1.419 . S
C507 H511 0.930 . S
C508 C507 1.369 . S
C508 C517 1.429 . S
C509 C507 1.419 . S
C509 C510 1.363 . S
C509 H512 0.929 . S
C510 C509 1.363 . S
C510 C516 1.428 . S
H511 C507 0.930 . S
H512 C509 0.929 . S
S513 N514 1.613 . S
S513 N515 1.610 . S
N514 S513 1.613 . S
N514 C517 1.350 . S
N515 S513 1.610 . S
N515 C516 1.351 . S
C516 C510 1.428 . S
C516 N515 1.351 . S
C516 C517 1.434 . S
C517 C508 1.429 . S
C517 N514 1.350 . S
C517 C516 1.434 . S
C518 C519 1.369 . S
C518 C520 1.419 . S
C518 H522 0.930 . S
C519 C518 1.369 . S
C519 C528 1.429 . S
C520 C518 1.419 . S
C520 C521 1.363 1_554 S
C520 H523 0.929 1_554 S
C521 C520 1.363 1_556 S
C521 C527 1.428 . S
H522 C518 0.930 . S
H523 C520 0.929 1_556 S
S524 N525 1.613 1_556 S
S524 N526 1.610 . S
N525 S524 1.613 1_554 S
N525 C528 1.350 . S
N526 S524 1.610 . S
N526 C527 1.351 . S
C527 C521 1.428 . S
C527 N526 1.351 . S
C527 C528 1.434 1_556 S
C528 C519 1.429 . S
C528 N525 1.350 . S
C528 C527 1.434 1_554 S
C529 C530 1.369 . S
C529 C531 1.419 . S
C529 H533 0.930 . S
C530 C529 1.369 . S
C530 C539 1.429 . S
C531 C529 1.419 . S
C531 C532 1.363 . S
C531 H534 0.929 . S
C532 C531 1.363 . S
C532 C538 1.428 . S
H533 C529 0.930 . S
H534 C531 0.929 . S
S535 N536 1.613 . S
S535 N537 1.610 . S
N536 S535 1.613 . S
N536 C539 1.350 . S
N537 S535 1.610 . S
N537 C538 1.351 . S
C538 C532 1.428 . S
C538 N537 1.351 . S
C538 C539 1.434 . S
C539 C530 1.429 . S
C539 N536 1.350 . S
C539 C538 1.434 . S
C540 C541 1.369 . S
C540 C542 1.445 . S
C540 H544 0.930 . S
C541 C540 1.369 . S
C541 C550 1.429 . S
C542 C540 1.445 . S
C542 C543 1.341 1_554 S
C542 H545 0.925 1_554 S
C543 C542 1.341 1_556 S
C543 C549 1.428 . S
H544 C540 0.930 . S
H545 C542 0.925 1_556 S
S546 N547 1.613 1_556 S
S546 N548 1.610 . S
N547 S546 1.613 1_554 S
N547 C550 1.350 . S
N548 S546 1.610 . S
N548 C549 1.351 . S
C549 C543 1.428 . S
C549 N548 1.351 . S
C549 C550 1.434 1_556 S
C550 C541 1.429 . S
C550 N547 1.350 . S
C550 C549 1.434 1_554 S
C551 C552 1.369 . S
C551 C553 1.419 . S
C551 H555 0.930 . S
C552 C551 1.369 . S
C552 C561 1.429 . S
C553 C551 1.419 . S
C553 C554 1.363 . S
C553 H556 0.929 . S
C554 C553 1.363 . S
C554 C560 1.428 . S
H555 C551 0.930 . S
H556 C553 0.929 . S
S557 N558 1.613 . S
S557 N559 1.610 . S
N558 S557 1.613 . S
N558 C561 1.350 . S
N559 S557 1.610 . S
N559 C560 1.351 . S
C560 C554 1.428 . S
C560 N559 1.351 . S
C560 C561 1.434 . S
C561 C552 1.429 . S
C561 N558 1.350 . S
C561 C560 1.434 . S
C562 C563 1.369 . S
C562 C564 1.419 1_556 S
C562 H566 0.930 . S
C563 C562 1.369 . S
C563 C572 1.429 . S
C564 C562 1.419 1_554 S
C564 C565 1.363 . S
C564 H567 0.929 . S
C565 C564 1.363 . S
C565 C571 1.428 . S
H566 C562 0.930 . S
H567 C564 0.929 . S
S568 N569 1.613 . S
S568 N570 1.610 1_556 S
N569 S568 1.613 . S
N569 C572 1.350 . S
N570 S568 1.610 1_554 S
N570 C571 1.351 . S
C571 C565 1.428 . S
C571 N570 1.351 . S
C571 C572 1.434 1_554 S
C572 C563 1.429 . S
C572 N569 1.350 . S
C572 C571 1.434 1_556 S
C573 C574 1.369 . S
C573 C575 1.419 . S
C573 H577 0.930 . S
C574 C573 1.369 . S
C574 C583 1.429 . S
C575 C573 1.419 . S
C575 C576 1.363 . S
C575 H578 0.929 . S
C576 C575 1.363 . S
C576 C582 1.428 . S
H577 C573 0.930 . S
H578 C575 0.929 . S
S579 N580 1.613 . S
S579 N581 1.610 . S
N580 S579 1.613 . S
N580 C583 1.350 . S
N581 S579 1.610 . S
N581 C582 1.351 . S
C582 C576 1.428 . S
C582 N581 1.351 . S
C582 C583 1.434 . S
C583 C574 1.429 . S
C583 N580 1.350 . S
C583 C582 1.434 . S
C584 C585 1.369 . S
C584 C586 1.419 . S
C584 H588 0.930 . S
C585 C584 1.369 . S
C585 C594 1.429 . S
C586 C584 1.419 . S
C586 C587 1.363 . S
C586 H589 0.929 . S
C587 C586 1.363 . S
C587 C593 1.428 . S
H588 C584 0.930 . S
H589 C586 0.929 . S
S590 N591 1.613 1_655 S
S590 N592 1.610 . S
N591 S590 1.613 1_455 S
N591 C594 1.350 . S
N592 S590 1.610 . S
N592 C593 1.351 1_655 S
C593 C587 1.428 . S
C593 N592 1.351 1_455 S
C593 C594 1.434 . S
C594 C585 1.429 . S
C594 N591 1.350 . S
C594 C593 1.434 . S
C595 C596 1.369 . S
C595 C597 1.419 . S
C595 H599 0.930 . S
C596 C595 1.369 . S
C596 C605 1.429 . S
C597 C595 1.419 . S
C597 C598 1.363 . S
C597 H600 0.929 . S
C598 C597 1.363 . S
C598 C604 1.428 . S
H599 C595 0.930 . S
H600 C597 0.929 . S
S601 N602 1.613 . S
S601 N603 1.610 . S
N602 S601 1.613 . S
N602 C605 1.350 . S
N603 S601 1.610 . S
N603 C604 1.351 . S
C604 C598 1.428 . S
C604 N603 1.351 . S
C604 C605 1.434 . S
C605 C596 1.429 . S
C605 N602 1.350 . S
C605 C604 1.434 . S
C606 C607 1.369 . S
C606 C608 1.419 . S
C606 H610 0.930 . S
C607 C606 1.369 . S
C607 C616 1.429 . S
C608 C606 1.419 . S
C608 C609 1.363 . S
C608 H611 0.929 . S
C609 C608 1.363 . S
C609 C615 1.428 . S
H610 C606 0.930 . S
H611 C608 0.929 . S
S612 N613 1.613 . S
S612 N614 1.610 . S
N613 S612 1.613 . S
N613 C616 1.350 . S
N614 S612 1.610 . S
N614 C615 1.351 . S
C615 C609 1.428 . S
C615 N614 1.351 . S
C615 C616 1.434 . S
C616 C607 1.429 . S
C616 N613 1.350 . S
C616 C615 1.434 . S
C617 C618 1.369 . S
C617 C619 1.419 . S
C617 H621 0.930 . S
C618 C617 1.369 . S
C618 C627 1.429 . S
C619 C617 1.419 . S
C619 C620 1.363 . S
C619 H622 0.929 . S
C620 C619 1.363 . S
C620 C626 1.428 . S
H621 C617 0.930 . S
H622 C619 0.929 . S
S623 N624 1.613 . S
S623 N625 1.610 . S
N624 S623 1.613 . S
N624 C627 1.350 . S
N625 S623 1.610 . S
N625 C626 1.351 . S
C626 C620 1.428 . S
C626 N625 1.351 . S
C626 C627 1.434 . S
C627 C618 1.429 . S
C627 N624 1.350 . S
C627 C626 1.434 . S
C628 C629 1.369 . S
C628 C630 1.419 . S
C628 H632 0.930 . S
C629 C628 1.369 . S
C629 C638 1.429 . S
C630 C628 1.419 . S
C630 C631 1.363 . S
C630 H633 0.929 . S
C631 C630 1.363 . S
C631 C637 1.428 . S
H632 C628 0.930 . S
H633 C630 0.929 . S
S634 N635 1.613 . S
S634 N636 1.610 . S
N635 S634 1.613 . S
N635 C638 1.350 . S
N636 S634 1.610 . S
N636 C637 1.351 . S
C637 C631 1.428 . S
C637 N636 1.351 . S
C637 C638 1.434 . S
C638 C629 1.429 . S
C638 N635 1.350 . S
C638 C637 1.434 . S
C639 C640 1.369 . S
C639 C641 1.419 . S
C639 H643 0.930 . S
C640 C639 1.369 . S
C640 C649 1.429 . S
C641 C639 1.419 . S
C641 C642 1.363 . S
C641 H644 0.929 . S
C642 C641 1.363 . S
C642 C648 1.428 . S
H643 C639 0.930 . S
H644 C641 0.929 . S
S645 N646 1.613 . S
S645 N647 1.610 . S
N646 S645 1.613 . S
N646 C649 1.350 . S
N647 S645 1.610 . S
N647 C648 1.351 . S
C648 C642 1.428 . S
C648 N647 1.351 . S
C648 C649 1.434 . S
C649 C640 1.429 . S
C649 N646 1.350 . S
C649 C648 1.434 . S
C650 C651 1.369 . S
C650 C652 1.419 . S
C650 H654 0.930 . S
C651 C650 1.369 . S
C651 C660 1.429 . S
C652 C650 1.419 . S
C652 C653 1.363 . S
C652 H655 0.929 . S
C653 C652 1.363 . S
C653 C659 1.428 . S
H654 C650 0.930 . S
H655 C652 0.929 . S
S656 N657 1.613 . S
S656 N658 1.610 . S
N657 S656 1.613 . S
N657 C660 1.350 . S
N658 S656 1.610 . S
N658 C659 1.351 . S
C659 C653 1.428 . S
C659 N658 1.351 . S
C659 C660 1.434 . S
C660 C651 1.429 . S
C660 N657 1.350 . S
C660 C659 1.434 . S
C661 C662 1.369 . S
C661 C663 1.419 . S
C661 H665 0.930 . S
C662 C661 1.369 . S
C662 C671 1.429 . S
C663 C661 1.419 . S
C663 C664 1.363 . S
C663 H666 0.929 . S
C664 C663 1.363 . S
C664 C670 1.428 . S
H665 C661 0.930 . S
H666 C663 0.929 . S
S667 N668 1.613 . S
S667 N669 1.610 . S
N668 S667 1.613 . S
N668 C671 1.350 . S
N669 S667 1.610 . S
N669 C670 1.351 . S
C670 C664 1.428 . S
C670 N669 1.351 . S
C670 C671 1.434 . S
C671 C662 1.429 . S
C671 N668 1.350 . S
C671 C670 1.434 . S
C409 C58 1.478 . S
C411 C146 1.457 . S
C422 C230 1.455 . S
C420 C68 1.477 . S
C433 C223 1.468 . S
C431 C40 1.468 . S
C442 C50 1.468 . S
C444 C139 1.468 . S
C455 C303 1.456 . S
C453 C23 1.480 . S
C466 C387 1.458 . S
C464 C32 1.479 . S
C475 C5 1.471 . S
C477 C380 1.469 . S
C486 C14 1.469 . S
C488 C296 1.469 . S
C499 C130 1.320 . S
C497 C13 1.502 . S
C510 C214 1.318 . S
C508 C4 1.503 . S
C521 C225 1.406 . S
C519 C31 1.522 . S
C532 C141 1.408 . S
C530 C22 1.522 . S
C543 C309 1.322 . S
C541 C49 1.502 . S
C552 C41 1.503 . S
C554 C393 1.329 . S
C565 C382 1.409 . S
C563 C67 1.522 . S
C574 C59 1.523 . S
C576 C298 1.411 . S
C587 C128 1.519 . S
C585 C7 1.517 . S
C598 C212 1.517 . S
C596 C16 1.516 . S
C607 C25 1.514 . S
C609 C219 1.501 . S
C620 C135 1.500 . S
C618 C34 1.513 . S
C631 C307 1.519 . S
C629 C43 1.517 . S
C640 C52 1.516 . S
C642 C391 1.519 . S
C651 C61 1.515 . S
C653 C398 1.501 . S
C662 C70 1.512 . S
C664 C314 1.501 . S
