# Generated by pormake.
# Topology sit, (3,6)-cn, num edge types: 1
# Building blocks:
#     Node 0, Type 0, BuildingBlock: ESEHIV_clean_linker_0, # of connection points: 3
#     Node 1, Type 0, BuildingBlock: ESEHIV_clean_linker_0, # of connection points: 3
#     Node 2, Type 0, BuildingBlock: ESEHIV_clean_linker_0, # of connection points: 3
#     Node 3, Type 0, BuildingBlock: ESEHIV_clean_linker_0, # of connection points: 3
#     Node 4, Type 1, BuildingBlock: MIDCAF_clean_sbu_0, # of connection points: 6
#     Node 5, Type 1, BuildingBlock: MIDCAF_clean_sbu_0, # of connection points: 6
#     Edge 6, Type (0, 1), BuildingBlock: FUNLAD_clean_linker_0, # of connection points: 2
#     Edge 7, Type (0, 1), BuildingBlock: FUNLAD_clean_linker_0, # of connection points: 2
#     Edge 8, Type (0, 1), BuildingBlock: FUNLAD_clean_linker_0, # of connection points: 2
#     Edge 9, Type (0, 1), BuildingBlock: FUNLAD_clean_linker_0, # of connection points: 2
#     Edge 10, Type (0, 1), BuildingBlock: FUNLAD_clean_linker_0, # of connection points: 2
#     Edge 11, Type (0, 1), BuildingBlock: FUNLAD_clean_linker_0, # of connection points: 2
#     Edge 12, Type (0, 1), BuildingBlock: FUNLAD_clean_linker_0, # of connection points: 2
#     Edge 13, Type (0, 1), BuildingBlock: FUNLAD_clean_linker_0, # of connection points: 2
#     Edge 14, Type (0, 1), BuildingBlock: FUNLAD_clean_linker_0, # of connection points: 2
#     Edge 15, Type (0, 1), BuildingBlock: FUNLAD_clean_linker_0, # of connection points: 2
#     Edge 16, Type (0, 1), BuildingBlock: FUNLAD_clean_linker_0, # of connection points: 2
#     Edge 17, Type (0, 1), BuildingBlock: FUNLAD_clean_linker_0, # of connection points: 2
# Relax obj value: 0.110
# Max RMSD: 0.193
# Mean RMSD: 0.106
data_MOF--net-sit--node1-MIDCAF_clean_sbu_0--node2-ESEHIV_clean_linker_0--edge1-FUNLAD_clean_linker_0
_symmetry_space_group_name_H-M    P1
_symmetry_Int_Tables_number       1
_symmetry_cell_setting            triclinic
loop_
_symmetry_equiv_pos_as_xyz
'x, y, z'
_cell_length_a     25.899763
_cell_length_b     34.417719
_cell_length_c     39.153827
_cell_angle_alpha  89.779451
_cell_angle_beta   89.87799
_cell_angle_gamma 84.23284
loop_
_atom_site_label
_atom_site_type_symbol
_atom_site_fract_x
_atom_site_fract_y
_atom_site_fract_z
_atom_type_partial_charge
H0 H 0.06722 0.3711 0.01481 0.0
H1 H 0.18013 0.2851 0.05871 0.0
H2 H 0.01891 0.26415 0.05423 0.0
C3 C 0.07668 0.34307 0.0272 0.0
C4 C 0.03719 0.31893 0.03327 0.0
C5 C 0.1284 0.33111 0.03594 0.0
C6 C 0.14026 0.29479 0.05214 0.0
C7 C 0.10098 0.27022 0.05859 0.0
C8 C 0.04962 0.28251 0.04889 0.0
H9 H 0.0205 0.685 0.9813 0.0
H10 H 0.93034 0.77383 0.03862 0.0
H11 H 0.09427 0.78 0.02378 0.0
C12 C 0.01821 0.71187 -0.00415 0.0
C13 C 0.06318 0.73046 0.00126 0.0
C14 C 0.97019 0.72762 0.00889 0.0
C15 C 0.9671 0.76263 0.0274 0.0
C16 C 0.01187 0.78169 0.03322 0.0
C17 C 0.05951 0.76569 0.01941 0.0
H18 H 0.59209 0.8487 0.48719 0.0
H19 H 0.66372 0.75574 0.54961 0.0
H20 H 0.50059 0.76069 0.52563 0.0
C21 C 0.58931 0.82227 0.50198 0.0
C22 C 0.54143 0.80688 0.50463 0.0
C23 C 0.6335 0.80405 0.51816 0.0
C24 C 0.62971 0.76948 0.53661 0.0
C25 C 0.58195 0.75346 0.53952 0.0
C26 C 0.53763 0.77268 0.52374 0.0
H27 H 0.53146 0.19034 0.48111 0.0
H28 H 0.44349 0.28868 0.52684 0.0
H29 H 0.60763 0.2665 0.54691 0.0
C30 C 0.53024 0.21622 0.49692 0.0
C31 C 0.57559 0.22603 0.51287 0.0
C32 C 0.48277 0.23862 0.50188 0.0
C33 C 0.4803 0.27117 0.52335 0.0
C34 C 0.52523 0.28163 0.53968 0.0
C35 C 0.57286 0.25885 0.5343 0.0
Zn36 Zn 0.0136 0.09442 0.34661 0.0
Zn37 Zn 0.07574 0.94431 0.35459 0.0
Zn38 Zn 0.05042 0.01963 0.35392 0.0
C39 C 0.0521 0.96283 0.28808 0.0
C40 C -0.00802 0.95708 0.39765 0.0
O41 O 0.10924 0.05124 0.3785 0.0
O42 O 0.0765 0.1122 0.36862 0.0
C43 C 0.02906 0.06831 0.2816 0.0
O44 O 0.05296 0.99703 0.30115 0.0
O45 O 0.0566 0.93282 0.30684 0.0
O46 O 0.0284 0.93075 0.3918 0.0
O47 O -0.00776 0.99113 0.38384 0.0
O48 O 0.00795 0.09829 0.2964 0.0
O49 O 0.04645 0.03791 0.29908 0.0
O50 O 0.97621 0.03123 0.38225 0.0
O51 O 0.94977 0.09383 0.37396 0.0
C52 C 0.94331 0.0613 0.38733 0.0
O53 O 0.12652 1.01036 0.37957 0.0
O54 O 0.14946 0.94854 0.36622 0.0
C55 C 0.11195 0.08827 0.38091 0.0
C56 C 0.16018 0.98018 0.37937 0.0
Zn57 Zn 0.56719 0.60676 0.86276 0.0
Zn58 Zn 0.53354 0.43294 0.84894 0.0
Zn59 Zn 0.56008 0.50585 0.85931 0.0
C60 C 0.54836 0.46782 0.78524 0.0
C61 C 0.45581 0.47311 0.88823 0.0
O62 O 0.632 0.50303 0.8889 0.0
O63 O 0.61182 0.56489 0.88285 0.0
C64 C 0.56901 0.57042 0.79534 0.0
O65 O 0.55878 0.49647 0.8041 0.0
O66 O 0.53559 0.43661 0.79833 0.0
O67 O 0.46584 0.44113 0.87279 0.0
O68 O 0.48658 0.50013 0.88607 0.0
O69 O 0.56899 0.60175 0.81228 0.0
O70 O 0.56616 0.53672 0.80962 0.0
O71 O 0.4959 0.54103 0.88642 0.0
O72 O 0.49919 0.60617 0.886 0.0
C73 C 0.47718 0.57619 0.89428 0.0
O74 O 0.62164 0.46459 0.88233 0.0
O75 O 0.59404 0.4063 0.87433 0.0
C76 C 0.64088 0.5378 0.89595 0.0
C77 C 0.62751 0.42709 0.88591 0.0
C78 C 0.08886 0.19926 0.06578 0.0
C79 C 0.11255 0.2322 0.07638 0.0
C80 C 0.09264 0.16534 0.08568 0.0
C81 C 0.12001 0.1638 0.11672 0.0
C82 C 0.14742 0.19544 0.12571 0.0
C83 C 0.1436 0.22941 0.10582 0.0
C84 C 0.11655 0.13184 0.14197 0.0
C85 C 0.07353 0.11307 0.14547 0.0
C86 C 0.06155 0.09297 0.17768 0.0
C87 C 0.01013 0.09714 0.1896 0.0
C88 C -0.00128 0.08647 0.223 0.0
C89 C 0.03835 0.07042 0.24465 0.0
H90 H 0.1404 0.06953 0.18977 0.0
C91 C 0.089 0.06298 0.23186 0.0
C92 C 0.10058 0.07405 0.19854 0.0
H93 H 0.12025 0.05109 0.24837 0.0
H94 H 0.06595 0.20019 0.04262 0.0
H95 H 0.07274 0.14092 0.07722 0.0
H96 H 0.16924 0.19487 0.14932 0.0
H97 H 0.16243 0.25424 0.11461 0.0
H98 H 0.1459 0.12888 0.16185 0.0
H99 H 0.04192 0.11882 0.12739 0.0
H100 H 0.97929 0.11138 0.17395 0.0
H101 H 0.95942 0.09262 0.23248 0.0
C102 C 0.05079 0.81971 0.07928 0.0
C103 C 0.01005 0.81616 0.05618 0.0
C104 C 0.04824 0.8503 0.10257 0.0
C105 C 0.00465 0.87813 0.10363 0.0
C106 C 0.96406 0.87496 0.08042 0.0
C107 C 0.9669 0.84449 0.05668 0.0
C108 C -0.0018 0.90714 0.13163 0.0
C109 C 0.03902 0.92053 0.1474 0.0
C110 C 0.03625 0.93813 0.18201 0.0
C111 C 0.07804 0.95768 0.19348 0.0
C112 C 0.08206 0.96758 0.22791 0.0
C113 C 0.04432 0.95812 0.25132 0.0
H114 H 0.96527 0.91424 0.19811 0.0
C115 C 0.00155 0.94001 0.23985 0.0
C116 C -0.00268 0.93022 0.20549 0.0
H117 H 0.97237 0.93209 0.25775 0.0
H118 H 0.0839 0.79789 0.08049 0.0
H119 H 0.07937 0.85073 0.12093 0.0
H120 H 0.92973 0.89572 0.08105 0.0
H121 H 0.935 0.84283 0.03909 0.0
H122 H 0.95907 0.91533 0.14086 0.0
H123 H 0.07728 0.91537 0.13585 0.0
H124 H 0.10896 0.96357 0.17612 0.0
H125 H 0.11612 0.98049 0.23657 0.0
C126 C 0.53775 0.71509 0.58349 0.0
C127 C 0.57866 0.71757 0.56024 0.0
C128 C 0.53863 0.68384 0.60645 0.0
C129 C 0.58044 0.65428 0.60647 0.0
C130 C 0.61979 0.65575 0.58197 0.0
C131 C 0.61881 0.68691 0.55898 0.0
C132 C 0.58827 0.62523 0.63459 0.0
C133 C 0.54996 0.61575 0.65533 0.0
C134 C 0.56005 0.59687 0.68915 0.0
C135 C 0.52049 0.57835 0.70513 0.0
C136 C 0.52502 0.56697 0.7394 0.0
C137 C 0.56915 0.57398 0.7581 0.0
H138 H 0.63593 0.61758 0.6969 0.0
C139 C 0.60957 0.59107 0.74198 0.0
C140 C 0.60527 0.60227 0.70777 0.0
H141 H 0.64337 0.59752 0.75635 0.0
H142 H 0.50656 0.73844 0.58535 0.0
H143 H 0.50817 0.68446 0.62543 0.0
H144 H 0.6525 0.6335 0.58146 0.0
H145 H 0.65044 0.68764 0.54092 0.0
H146 H 0.62793 0.61324 0.63969 0.0
H147 H 0.50978 0.62433 0.64858 0.0
H148 H 0.48498 0.57437 0.69157 0.0
H149 H 0.49274 0.55496 0.75185 0.0
C150 C 0.55997 0.34207 0.56263 0.0
C151 C 0.52185 0.31572 0.56296 0.0
C152 C 0.55704 0.37355 0.58535 0.0
C153 C 0.51596 0.37906 0.60904 0.0
C154 C 0.4773 0.35321 0.60858 0.0
C155 C 0.48024 0.32192 0.58597 0.0
C156 C 0.51262 0.40945 0.6361 0.0
C157 C 0.55135 0.43085 0.64502 0.0
C158 C 0.5506 0.45165 0.67829 0.0
C159 C 0.59757 0.45327 0.6959 0.0
C160 C 0.59731 0.46262 0.73066 0.0
C161 C 0.55006 0.47053 0.74797 0.0
H162 H 0.46695 0.46591 0.68169 0.0
C163 C 0.50348 0.47312 0.72967 0.0
C164 C 0.50376 0.46467 0.69487 0.0
H165 H 0.46668 0.47957 0.7427 0.0
H166 H 0.592 0.33843 0.54471 0.0
H167 H 0.58717 0.39306 0.58419 0.0
H168 H 0.44518 0.35656 0.62647 0.0
H169 H 0.45048 0.30197 0.58713 0.0
H170 H 0.47816 0.41073 0.65204 0.0
H171 H 0.58751 0.42823 0.63084 0.0
H172 H 0.63426 0.44405 0.68361 0.0
H173 H 0.63363 0.46043 0.74454 0.0
C174 C 0.1681 0.37395 -0.00612 0.0
C175 C 0.16962 0.35613 0.02623 0.0
C176 C 0.20505 0.39867 0.98445 0.0
C177 C 0.24474 0.40636 0.00717 0.0
C178 C 0.24734 0.38771 0.03921 0.0
C179 C 0.20993 0.36293 0.04877 0.0
C180 C 0.28656 0.43028 -0.00377 0.0
C181 C 0.27903 0.45819 0.97201 0.0
C182 C 0.32251 0.4703 0.95141 0.0
C183 C 0.31773 0.46966 0.91576 0.0
C184 C 0.36096 0.47253 0.89502 0.0
C185 C 0.40907 0.4779 0.90958 0.0
H186 H 0.37434 0.47897 -0.00651 0.0
C187 C 0.41301 0.48217 0.94508 0.0
C188 C 0.37001 0.47787 0.96602 0.0
H189 H 0.45002 0.48621 0.9567 0.0
H190 H 0.1386 0.36832 0.97547 0.0
H191 H 0.20316 0.41062 0.95883 0.0
H192 H 0.27825 0.3924 0.05686 0.0
H193 H 0.21218 0.34951 0.07386 0.0
H194 H 0.32548 0.4218 0.00575 0.0
H195 H 0.24011 0.46676 0.9626 0.0
H196 H 0.28141 0.46398 0.90399 0.0
H197 H 0.3573 0.46922 0.86764 0.0
C198 C 0.92682 0.66609 0.01054 0.0
C199 C 0.92393 0.70637 0.00392 0.0
C200 C 0.88503 0.64499 0.00312 0.0
C201 C 0.83962 0.66373 0.98837 0.0
C202 C 0.83591 0.70439 0.98334 0.0
C203 C 0.87765 0.72557 0.99109 0.0
C204 C 0.79584 0.64203 0.97724 0.0
C205 C 0.80019 0.6032 0.97132 0.0
C206 C 0.75768 0.58299 0.95624 0.0
C207 C 0.77004 0.54848 0.93749 0.0
C208 C 0.7316 0.53151 0.91932 0.0
C209 C 0.68025 0.54857 0.92013 0.0
H210 H 0.69378 0.62373 0.97423 0.0
C211 C 0.66737 0.58138 0.94084 0.0
C212 C 0.70547 0.59828 0.95889 0.0
H213 H 0.62778 0.59498 0.94209 0.0
H214 H 0.96174 0.65081 0.02123 0.0
H215 H 0.88889 0.61411 0.00889 0.0
H216 H 0.80116 0.7197 0.97244 0.0
H217 H 0.87445 0.75666 0.98587 0.0
H218 H 0.75988 0.65956 0.97101 0.0
H219 H 0.8373 0.58601 0.97453 0.0
H220 H 0.80994 0.53585 0.93535 0.0
H221 H 0.74282 0.50704 0.90289 0.0
C222 C 0.95552 0.30603 0.00289 0.0
C223 C 0.98355 0.33145 0.02177 0.0
C224 C 0.90777 0.31944 0.98825 0.0
C225 C 0.88695 0.35854 -0.00749 0.0
C226 C 0.91414 0.38337 0.01256 0.0
C227 C 0.96179 0.36999 0.02711 0.0
C228 C 0.83972 0.37555 0.97423 0.0
C229 C 0.80372 0.35448 0.96077 0.0
C230 C 0.75907 0.37292 0.94081 0.0
C231 C 0.71173 0.35635 0.94145 0.0
C232 C 0.66892 0.37378 0.92336 0.0
C233 C 0.67293 0.40793 0.90415 0.0
H234 H 0.80012 0.4186 0.91789 0.0
C235 C 0.72084 0.42333 0.90215 0.0
C236 C 0.76352 0.40617 0.92037 0.0
H237 H 0.72548 0.44806 0.88577 0.0
H238 H 0.97168 0.27631 -0.00198 0.0
H239 H 0.88877 0.29953 0.97239 0.0
H240 H 0.89908 0.41358 0.0163 0.0
H241 H 0.98227 0.3901 0.0419 0.0
H242 H 0.83427 0.40719 0.97202 0.0
H243 H 0.80556 0.32327 0.96546 0.0
H244 H 0.70758 0.33033 0.95647 0.0
H245 H 0.63247 0.36093 0.92489 0.0
C246 C 0.12711 0.67143 -0.00598 0.0
C247 C 0.1144 0.71184 0.98976 0.0
C248 C 0.17584 0.65386 0.98439 0.0
C249 C 0.21293 0.6764 0.97024 0.0
C250 C 0.2004 0.71677 0.96617 0.0
C251 C 0.15155 0.73433 0.97564 0.0
C252 C 0.26556 0.65907 0.9606 0.0
C253 C 0.2763 0.62162 0.95095 0.0
C254 C 0.32875 0.60635 0.93929 0.0
C255 C 0.33391 0.58032 0.91173 0.0
C256 C 0.38277 0.5692 0.8977 0.0
C257 C 0.42713 0.58287 0.91184 0.0
H258 H 0.37084 0.63818 0.97604 0.0
C259 C 0.42234 0.60737 0.94041 0.0
C260 C 0.37354 0.61888 0.95419 0.0
H261 H 0.45625 0.61843 0.9515 0.0
H262 H 0.09981 0.65344 0.00561 0.0
H263 H 0.18467 0.62287 0.98892 0.0
H264 H 0.22843 0.73479 0.95546 0.0
H265 H 0.14283 0.76548 0.97182 0.0
H266 H 0.29598 0.67864 0.95941 0.0
H267 H 0.24529 0.6028 0.94846 0.0
H268 H 0.29992 0.57023 0.89991 0.0
H269 H 0.38565 0.55142 0.87489 0.0
C270 C 0.68496 0.86174 0.51923 0.0
C271 C 0.68346 0.82132 0.51527 0.0
C272 C 0.73052 0.87893 0.51265 0.0
C273 C 0.77543 0.856 0.50164 0.0
C274 C 0.77483 0.81529 0.49988 0.0
C275 C 0.72922 0.79806 0.50655 0.0
C276 C 0.82256 0.87359 0.49019 0.0
C277 C 0.82059 0.90945 0.47596 0.0
C278 C 0.86564 0.92423 0.45849 0.0
C279 C 0.85641 0.95065 0.43123 0.0
C280 C 0.89763 0.96207 0.41182 0.0
C281 C 0.94883 0.94796 0.41981 0.0
H282 H 0.92592 0.89192 0.48878 0.0
C283 C 0.95834 0.92284 0.4479 0.0
C284 C 0.91718 0.91127 0.46726 0.0
H285 H -0.00234 0.9118 0.45467 0.0
H286 H 0.65054 0.88019 0.52686 0.0
H287 H 0.73009 0.91019 0.51572 0.0
H288 H 0.80911 0.79691 0.49185 0.0
H289 H 0.72918 0.76681 0.5034 0.0
H290 H 0.85869 0.85462 0.48974 0.0
H291 H 0.78344 0.92687 0.47338 0.0
H292 H 0.81711 0.96116 0.42397 0.0
H293 H 0.88935 0.9804 0.38961 0.0
C294 C 0.39201 0.21976 0.50377 0.0
C295 C 0.43598 0.22709 0.48472 0.0
C296 C 0.35015 0.20462 0.48783 0.0
C297 C 0.35158 0.19698 0.45253 0.0
C298 C 0.39456 0.20611 0.43336 0.0
C299 C 0.43665 0.22063 0.44935 0.0
C300 C 0.30869 0.18011 0.43478 0.0
C301 C 0.27976 0.15434 0.44962 0.0
C302 C 0.23756 0.13711 0.43122 0.0
C303 C 0.22409 0.10004 0.44077 0.0
C304 C 0.18386 0.08358 0.42405 0.0
C305 C 0.15629 0.10402 0.39769 0.0
H306 H 0.21736 0.18684 0.39773 0.0
C307 C 0.16942 0.14125 0.38845 0.0
C308 C 0.20944 0.15767 0.40504 0.0
H309 H 0.14844 0.15793 0.36844 0.0
H310 H 0.39076 0.22457 0.5311 0.0
H311 H 0.31683 0.19895 0.50312 0.0
H312 H 0.39621 0.20099 0.40607 0.0
H313 H 0.47009 0.22637 0.43416 0.0
H314 H 0.30334 0.1872 0.40788 0.0
H315 H 0.2888 0.14408 0.47541 0.0
H316 H 0.24462 0.08385 0.46124 0.0
H317 H 0.17317 0.05557 0.43246 0.0
C318 C 0.452 0.84201 0.50575 0.0
C319 C 0.49599 0.82724 0.48715 0.0
C320 C 0.41205 0.86566 0.48964 0.0
C321 C 0.41546 0.87449 0.4546 0.0
C322 C 0.45844 0.85815 0.43587 0.0
C323 C 0.49859 0.83511 0.45204 0.0
C324 C 0.37422 0.89929 0.43633 0.0
C325 C 0.344 0.92875 0.45109 0.0
C326 C 0.30035 0.95083 0.43259 0.0
C327 C 0.25525 0.96412 0.45076 0.0
C328 C 0.21001 0.97796 0.4333 0.0
C329 C 0.20968 0.97947 0.3975 0.0
H330 H 0.33586 0.94762 0.38215 0.0
C331 C 0.25594 0.96971 0.3795 0.0
C332 C 0.30115 0.95595 0.3969 0.0
H333 H 0.25626 0.97031 0.35183 0.0
H334 H 0.44935 0.83629 0.53289 0.0
H335 H 0.37861 0.87673 0.50458 0.0
H336 H 0.46157 0.86401 0.40877 0.0
H337 H 0.53215 0.82386 0.43722 0.0
H338 H 0.36904 0.89281 0.40951 0.0
H339 H 0.34878 0.93501 0.478 0.0
H340 H 0.25381 0.96095 0.47828 0.0
H341 H 0.17434 0.98446 0.4476 0.0
C342 C 0.63673 0.18689 0.47393 0.0
C343 C 0.62508 0.20129 0.50686 0.0
C344 C 0.68006 0.16043 0.46823 0.0
C345 C 0.71321 0.14782 0.4953 0.0
C346 C 0.70341 0.16369 0.52792 0.0
C347 C 0.65935 0.19 0.53377 0.0
C348 C 0.76004 0.12047 0.48872 0.0
C349 C 0.75947 0.09167 0.46554 0.0
C350 C 0.80699 0.07458 0.44794 0.0
C351 C 0.80368 0.06735 0.41279 0.0
C352 C 0.8486 0.06029 0.3932 0.0
C353 C 0.89738 0.05885 0.4087 0.0
H354 H 0.85953 0.07472 0.49107 0.0
C355 C 0.90092 0.06222 0.44427 0.0
C356 C 0.85588 0.0702 0.46388 0.0
H357 H 0.93848 0.06133 0.45654 0.0
H358 H 0.61207 0.19595 0.45243 0.0
H359 H 0.68794 0.15031 0.44241 0.0
H360 H 0.72919 0.1551 0.54898 0.0
H361 H 0.65141 0.20062 0.55944 0.0
H362 H 0.79617 0.12698 0.50039 0.0
H363 H 0.72253 0.08572 0.45458 0.0
H364 H 0.76644 0.07033 0.39997 0.0
H365 H 0.84532 0.05793 0.36571 0.0
loop_
_geom_bond_atom_site_label_1
_geom_bond_atom_site_label_2
_geom_bond_distance
_geom_bond_site_symmetry_2
_ccdc_geom_bond_type
H0 C3 0.931 . S
H1 C6 0.928 . S
H2 C8 0.930 . S
C3 H0 0.931 . S
C3 C4 1.413 1_556 S
C3 C5 1.360 1_556 S
C4 C3 1.413 1_554 S
C4 C8 1.429 . S
C5 C3 1.360 1_554 S
C5 C6 1.372 . S
C6 H1 0.928 . S
C6 C5 1.372 . S
C6 C7 1.404 . S
C7 C6 1.404 . S
C7 C8 1.391 . S
C8 H2 0.930 . S
C8 C4 1.429 . S
C8 C7 1.391 . S
H9 C12 0.931 . S
H10 C15 0.928 . S
H11 C17 0.930 . S
C12 H9 0.931 . S
C12 C13 1.413 1_556 S
C12 C14 1.360 1_456 S
C13 C12 1.413 1_554 S
C13 C17 1.429 . S
C14 C12 1.360 1_654 S
C14 C15 1.372 . S
C15 H10 0.928 . S
C15 C14 1.372 . S
C15 C16 1.404 1_655 S
C16 C15 1.404 1_455 S
C16 C17 1.391 . S
C17 H11 0.930 . S
C17 C13 1.429 . S
C17 C16 1.391 . S
H18 C21 0.931 . S
H19 C24 0.928 . S
H20 C26 0.930 . S
C21 H18 0.931 . S
C21 C22 1.413 . S
C21 C23 1.360 . S
C22 C21 1.413 . S
C22 C26 1.429 . S
C23 C21 1.360 . S
C23 C24 1.372 . S
C24 H19 0.928 . S
C24 C23 1.372 . S
C24 C25 1.404 . S
C25 C24 1.404 . S
C25 C26 1.391 . S
C26 H20 0.930 . S
C26 C22 1.429 . S
C26 C25 1.391 . S
H27 C30 0.931 . S
H28 C33 0.928 . S
H29 C35 0.930 . S
C30 H27 0.931 . S
C30 C31 1.413 . S
C30 C32 1.360 . S
C31 C30 1.413 . S
C31 C35 1.429 . S
C32 C30 1.360 . S
C32 C33 1.372 . S
C33 H28 0.928 . S
C33 C32 1.372 . S
C33 C34 1.404 . S
C34 C33 1.404 . S
C34 C35 1.391 . S
C35 H29 0.930 . S
C35 C31 1.429 . S
C35 C34 1.391 . S
Zn36 O42 1.920 . S
Zn36 O48 1.898 . S
Zn36 O51 1.905 1_455 S
Zn37 O45 1.905 . S
Zn37 O46 1.898 . S
Zn37 O54 1.920 . S
Zn38 O41 2.080 . S
Zn38 O44 2.114 1_545 S
Zn38 O47 2.120 1_545 S
Zn38 O49 2.120 . S
Zn38 O50 2.114 1_455 S
Zn38 O53 2.080 1_545 S
C39 O44 1.166 . S
C39 O45 1.182 . S
C40 O46 1.167 . S
C40 O47 1.299 . S
O41 Zn38 2.080 . S
O41 C55 1.305 . S
O42 Zn36 1.920 . S
O42 C55 1.234 . S
C43 O48 1.167 . S
C43 O49 1.299 . S
O44 Zn38 2.114 1_565 S
O44 C39 1.166 . S
O45 Zn37 1.905 . S
O45 C39 1.182 . S
O46 Zn37 1.898 . S
O46 C40 1.167 . S
O47 Zn38 2.120 1_565 S
O47 C40 1.299 . S
O48 Zn36 1.898 . S
O48 C43 1.167 . S
O49 Zn38 2.120 . S
O49 C43 1.299 . S
O50 Zn38 2.114 1_655 S
O50 C52 1.166 . S
O51 Zn36 1.905 1_655 S
O51 C52 1.182 . S
C52 O50 1.166 . S
C52 O51 1.182 . S
O53 Zn38 2.080 1_565 S
O53 C56 1.305 . S
O54 Zn37 1.920 . S
O54 C56 1.234 . S
C55 O41 1.305 . S
C55 O42 1.234 . S
C56 O53 1.305 . S
C56 O54 1.234 . S
Zn57 O63 1.920 . S
Zn57 O69 1.898 . S
Zn57 O72 1.905 . S
Zn58 O66 1.905 . S
Zn58 O67 1.898 . S
Zn58 O75 1.920 . S
Zn59 O62 2.080 . S
Zn59 O65 2.114 . S
Zn59 O68 2.120 . S
Zn59 O70 2.120 . S
Zn59 O71 2.114 . S
Zn59 O74 2.080 . S
C60 O65 1.166 . S
C60 O66 1.182 . S
C61 O67 1.167 . S
C61 O68 1.299 . S
O62 Zn59 2.080 . S
O62 C76 1.305 . S
O63 Zn57 1.920 . S
O63 C76 1.234 . S
C64 O69 1.167 . S
C64 O70 1.299 . S
O65 Zn59 2.114 . S
O65 C60 1.166 . S
O66 Zn58 1.905 . S
O66 C60 1.182 . S
O67 Zn58 1.898 . S
O67 C61 1.167 . S
O68 Zn59 2.120 . S
O68 C61 1.299 . S
O69 Zn57 1.898 . S
O69 C64 1.167 . S
O70 Zn59 2.120 . S
O70 C64 1.299 . S
O71 Zn59 2.114 . S
O71 C73 1.166 . S
O72 Zn57 1.905 . S
O72 C73 1.182 . S
C73 O71 1.166 . S
C73 O72 1.182 . S
O74 Zn59 2.080 . S
O74 C77 1.305 . S
O75 Zn58 1.920 . S
O75 C77 1.234 . S
C76 O62 1.305 . S
C76 O63 1.234 . S
C77 O74 1.305 . S
C77 O75 1.234 . S
C78 C79 1.386 . S
C78 C80 1.383 . S
C78 H94 0.951 . S
C79 C78 1.386 . S
C79 C83 1.383 . S
C80 C78 1.383 . S
C80 C81 1.402 . S
C80 H95 0.951 . S
C81 C80 1.402 . S
C81 C82 1.375 . S
C81 C84 1.481 . S
C82 C81 1.375 . S
C82 C83 1.367 . S
C82 H96 0.951 . S
C83 C79 1.383 . S
C83 C82 1.367 . S
C83 H97 0.950 . S
C84 C81 1.481 . S
C84 C85 1.297 . S
C84 H98 0.950 . S
C85 C84 1.297 . S
C85 C86 1.479 . S
C85 H99 0.950 . S
C86 C85 1.479 . S
C86 C87 1.375 . S
C86 C92 1.404 . S
C87 C86 1.375 . S
C87 C88 1.369 . S
C87 H100 0.950 . S
C88 C87 1.369 . S
C88 C89 1.392 . S
C88 H101 0.951 . S
C89 C88 1.392 . S
C89 C91 1.384 . S
H90 C92 0.949 . S
C91 C89 1.384 . S
C91 C92 1.385 . S
C91 H93 0.950 . S
C92 C86 1.404 . S
C92 H90 0.949 . S
C92 C91 1.385 . S
H93 C91 0.950 . S
H94 C78 0.951 . S
H95 C80 0.951 . S
H96 C82 0.951 . S
H97 C83 0.950 . S
H98 C84 0.950 . S
H99 C85 0.950 . S
H100 C87 0.950 . S
H101 C88 0.951 . S
C102 C103 1.386 . S
C102 C104 1.383 . S
C102 H118 0.951 . S
C103 C102 1.386 . S
C103 C107 1.383 1_455 S
C104 C102 1.383 . S
C104 C105 1.412 . S
C104 H119 0.951 . S
C105 C104 1.412 . S
C105 C106 1.364 1_455 S
C105 C108 1.481 1_455 S
C106 C105 1.364 1_655 S
C106 C107 1.367 . S
C106 H120 0.951 . S
C107 C103 1.383 1_655 S
C107 C106 1.367 . S
C107 H121 0.950 . S
C108 C105 1.481 1_655 S
C108 C109 1.297 1_655 S
C108 H122 0.950 . S
C109 C108 1.297 1_455 S
C109 C110 1.479 . S
C109 H123 0.950 . S
C110 C109 1.479 . S
C110 C111 1.375 . S
C110 C116 1.404 1_455 S
C111 C110 1.375 . S
C111 C112 1.369 . S
C111 H124 0.950 . S
C112 C111 1.369 . S
C112 C113 1.392 . S
C112 H125 0.951 . S
C113 C112 1.392 . S
C113 C115 1.384 1_455 S
H114 C116 0.949 . S
C115 C113 1.384 1_655 S
C115 C116 1.385 . S
C115 H117 0.950 . S
C116 C110 1.404 1_655 S
C116 H114 0.949 . S
C116 C115 1.385 . S
H117 C115 0.950 . S
H118 C102 0.951 . S
H119 C104 0.951 . S
H120 C106 0.951 . S
H121 C107 0.950 . S
H122 C108 0.950 . S
H123 C109 0.950 . S
H124 C111 0.950 . S
H125 C112 0.951 . S
C126 C127 1.386 . S
C126 C128 1.383 . S
C126 H142 0.951 . S
C127 C126 1.386 . S
C127 C131 1.383 . S
C128 C126 1.383 . S
C128 C129 1.402 . S
C128 H143 0.951 . S
C129 C128 1.402 . S
C129 C130 1.375 . S
C129 C132 1.481 . S
C130 C129 1.375 . S
C130 C131 1.367 . S
C130 H144 0.951 . S
C131 C127 1.383 . S
C131 C130 1.367 . S
C131 H145 0.950 . S
C132 C129 1.481 . S
C132 C133 1.297 . S
C132 H146 0.950 . S
C133 C132 1.297 . S
C133 C134 1.479 . S
C133 H147 0.950 . S
C134 C133 1.479 . S
C134 C135 1.375 . S
C134 C140 1.404 . S
C135 C134 1.375 . S
C135 C136 1.369 . S
C135 H148 0.950 . S
C136 C135 1.369 . S
C136 C137 1.392 . S
C136 H149 0.951 . S
C137 C136 1.392 . S
C137 C139 1.384 . S
H138 C140 0.949 . S
C139 C137 1.384 . S
C139 C140 1.385 . S
C139 H141 0.950 . S
C140 C134 1.404 . S
C140 H138 0.949 . S
C140 C139 1.385 . S
H141 C139 0.950 . S
H142 C126 0.951 . S
H143 C128 0.951 . S
H144 C130 0.951 . S
H145 C131 0.950 . S
H146 C132 0.950 . S
H147 C133 0.950 . S
H148 C135 0.950 . S
H149 C136 0.951 . S
C150 C151 1.386 . S
C150 C152 1.383 . S
C150 H166 0.951 . S
C151 C150 1.386 . S
C151 C155 1.383 . S
C152 C150 1.383 . S
C152 C153 1.402 . S
C152 H167 0.951 . S
C153 C152 1.402 . S
C153 C154 1.375 . S
C153 C156 1.481 . S
C154 C153 1.375 . S
C154 C155 1.367 . S
C154 H168 0.951 . S
C155 C151 1.383 . S
C155 C154 1.367 . S
C155 H169 0.950 . S
C156 C153 1.481 . S
C156 C157 1.297 . S
C156 H170 0.950 . S
C157 C156 1.297 . S
C157 C158 1.479 . S
C157 H171 0.950 . S
C158 C157 1.479 . S
C158 C159 1.375 . S
C158 C164 1.404 . S
C159 C158 1.375 . S
C159 C160 1.369 . S
C159 H172 0.950 . S
C160 C159 1.369 . S
C160 C161 1.392 . S
C160 H173 0.951 . S
C161 C160 1.392 . S
C161 C163 1.384 . S
H162 C164 0.949 . S
C163 C161 1.384 . S
C163 C164 1.385 . S
C163 H165 0.950 . S
C164 C158 1.404 . S
C164 H162 0.949 . S
C164 C163 1.385 . S
H165 C163 0.950 . S
H166 C150 0.951 . S
H167 C152 0.951 . S
H168 C154 0.951 . S
H169 C155 0.950 . S
H170 C156 0.950 . S
H171 C157 0.950 . S
H172 C159 0.950 . S
H173 C160 0.951 . S
C174 C175 1.386 1_556 S
C174 C176 1.383 . S
C174 H190 0.951 . S
C175 C174 1.386 1_554 S
C175 C179 1.383 . S
C176 C174 1.383 . S
C176 C177 1.402 . S
C176 H191 0.951 . S
C177 C176 1.402 . S
C177 C178 1.375 1_556 S
C177 C180 1.481 . S
C178 C177 1.375 1_554 S
C178 C179 1.367 . S
C178 H192 0.951 . S
C179 C175 1.383 . S
C179 C178 1.367 . S
C179 H193 0.950 . S
C180 C177 1.481 . S
C180 C181 1.297 . S
C180 H194 0.950 . S
C181 C180 1.297 . S
C181 C182 1.479 . S
C181 H195 0.950 . S
C182 C181 1.479 . S
C182 C183 1.375 . S
C182 C188 1.404 . S
C183 C182 1.375 . S
C183 C184 1.369 . S
C183 H196 0.950 . S
C184 C183 1.369 . S
C184 C185 1.392 . S
C184 H197 0.951 . S
C185 C184 1.392 . S
C185 C187 1.384 . S
H186 C188 0.949 . S
C187 C185 1.384 . S
C187 C188 1.385 . S
C187 H189 0.950 . S
C188 C182 1.404 . S
C188 H186 0.949 . S
C188 C187 1.385 . S
H189 C187 0.950 . S
H190 C174 0.951 . S
H191 C176 0.951 . S
H192 C178 0.951 . S
H193 C179 0.950 . S
H194 C180 0.950 . S
H195 C181 0.950 . S
H196 C183 0.950 . S
H197 C184 0.951 . S
C198 C199 1.386 . S
C198 C200 1.383 . S
C198 H214 0.951 . S
C199 C198 1.386 . S
C199 C203 1.383 1_554 S
C200 C198 1.383 . S
C200 C201 1.402 1_554 S
C200 H215 0.951 . S
C201 C200 1.402 1_556 S
C201 C202 1.375 . S
C201 C204 1.481 . S
C202 C201 1.375 . S
C202 C203 1.367 . S
C202 H216 0.951 . S
C203 C199 1.383 1_556 S
C203 C202 1.367 . S
C203 H217 0.950 . S
C204 C201 1.481 . S
C204 C205 1.297 . S
C204 H218 0.950 . S
C205 C204 1.297 . S
C205 C206 1.479 . S
C205 H219 0.950 1_556 S
C206 C205 1.479 . S
C206 C207 1.375 . S
C206 C212 1.404 . S
C207 C206 1.375 . S
C207 C208 1.369 . S
C207 H220 0.950 1_556 S
C208 C207 1.369 . S
C208 C209 1.392 . S
C208 H221 0.951 . S
C209 C208 1.392 . S
C209 C211 1.384 . S
H210 C212 0.949 . S
C211 C209 1.384 . S
C211 C212 1.385 . S
C211 H213 0.950 . S
C212 C206 1.404 . S
C212 H210 0.949 . S
C212 C211 1.385 . S
H213 C211 0.950 . S
H214 C198 0.951 . S
H215 C200 0.951 . S
H216 C202 0.951 . S
H217 C203 0.950 . S
H218 C204 0.950 . S
H219 C205 0.950 1_554 S
H220 C207 0.950 1_554 S
H221 C208 0.951 . S
C222 C223 1.386 1_655 S
C222 C224 1.383 . S
C222 H238 0.951 . S
C223 C222 1.386 1_455 S
C223 C227 1.383 . S
C224 C222 1.383 . S
C224 C225 1.402 . S
C224 H239 0.951 . S
C225 C224 1.402 . S
C225 C226 1.375 . S
C225 C228 1.481 . S
C226 C225 1.375 . S
C226 C227 1.367 1_655 S
C226 H240 0.951 . S
C227 C223 1.383 . S
C227 C226 1.367 1_455 S
C227 H241 0.950 1_556 S
C228 C225 1.481 . S
C228 C229 1.297 . S
C228 H242 0.950 . S
C229 C228 1.297 . S
C229 C230 1.479 . S
C229 H243 0.950 . S
C230 C229 1.479 . S
C230 C231 1.375 . S
C230 C236 1.404 . S
C231 C230 1.375 . S
C231 C232 1.369 . S
C231 H244 0.950 . S
C232 C231 1.369 . S
C232 C233 1.392 . S
C232 H245 0.951 . S
C233 C232 1.392 . S
C233 C235 1.384 . S
H234 C236 0.949 . S
C235 C233 1.384 . S
C235 C236 1.385 . S
C235 H237 0.950 . S
C236 C230 1.404 . S
C236 H234 0.949 . S
C236 C235 1.385 . S
H237 C235 0.950 . S
H238 C222 0.951 . S
H239 C224 0.951 . S
H240 C226 0.951 . S
H241 C227 0.950 1_554 S
H242 C228 0.950 . S
H243 C229 0.950 . S
H244 C231 0.950 . S
H245 C232 0.951 . S
C246 C247 1.386 . S
C246 C248 1.383 . S
C246 H262 0.951 . S
C247 C246 1.386 . S
C247 C251 1.383 1_556 S
C248 C246 1.383 . S
C248 C249 1.402 . S
C248 H263 0.951 . S
C249 C248 1.402 . S
C249 C250 1.375 . S
C249 C252 1.481 . S
C250 C249 1.375 . S
C250 C251 1.367 1_556 S
C250 H264 0.951 . S
C251 C247 1.383 1_554 S
C251 C250 1.367 1_554 S
C251 H265 0.950 . S
C252 C249 1.481 . S
C252 C253 1.297 . S
C252 H266 0.950 . S
C253 C252 1.297 . S
C253 C254 1.479 . S
C253 H267 0.950 . S
C254 C253 1.479 . S
C254 C255 1.375 . S
C254 C260 1.404 . S
C255 C254 1.375 . S
C255 C256 1.369 . S
C255 H268 0.950 . S
C256 C255 1.369 . S
C256 C257 1.392 . S
C256 H269 0.951 . S
C257 C256 1.392 . S
C257 C259 1.384 . S
H258 C260 0.949 . S
C259 C257 1.384 . S
C259 C260 1.385 . S
C259 H261 0.950 . S
C260 C254 1.404 . S
C260 H258 0.949 . S
C260 C259 1.385 . S
H261 C259 0.950 . S
H262 C246 0.951 . S
H263 C248 0.951 . S
H264 C250 0.951 . S
H265 C251 0.950 . S
H266 C252 0.950 . S
H267 C253 0.950 . S
H268 C255 0.950 . S
H269 C256 0.951 . S
C270 C271 1.386 . S
C270 C272 1.383 . S
C270 H286 0.951 . S
C271 C270 1.386 . S
C271 C275 1.383 . S
C272 C270 1.383 . S
C272 C273 1.402 . S
C272 H287 0.951 . S
C273 C272 1.402 . S
C273 C274 1.375 . S
C273 C276 1.481 . S
C274 C273 1.375 . S
C274 C275 1.367 . S
C274 H288 0.951 . S
C275 C271 1.383 . S
C275 C274 1.367 . S
C275 H289 0.950 . S
C276 C273 1.481 . S
C276 C277 1.297 . S
C276 H290 0.950 . S
C277 C276 1.297 . S
C277 C278 1.479 . S
C277 H291 0.950 . S
C278 C277 1.479 . S
C278 C279 1.375 . S
C278 C284 1.404 . S
C279 C278 1.375 . S
C279 C280 1.369 . S
C279 H292 0.950 . S
C280 C279 1.369 . S
C280 C281 1.392 . S
C280 H293 0.951 . S
C281 C280 1.392 . S
C281 C283 1.384 . S
H282 C284 0.949 . S
C283 C281 1.384 . S
C283 C284 1.385 . S
C283 H285 0.950 . S
C284 C278 1.404 . S
C284 H282 0.949 . S
C284 C283 1.385 . S
H285 C283 0.950 . S
H286 C270 0.951 . S
H287 C272 0.951 . S
H288 C274 0.951 . S
H289 C275 0.950 . S
H290 C276 0.950 . S
H291 C277 0.950 . S
H292 C279 0.950 . S
H293 C280 0.951 . S
C294 C295 1.386 . S
C294 C296 1.383 . S
C294 H310 0.951 . S
C295 C294 1.386 . S
C295 C299 1.383 . S
C296 C294 1.383 . S
C296 C297 1.402 . S
C296 H311 0.951 . S
C297 C296 1.402 . S
C297 C298 1.375 . S
C297 C300 1.481 . S
C298 C297 1.375 . S
C298 C299 1.367 . S
C298 H312 0.951 . S
C299 C295 1.383 . S
C299 C298 1.367 . S
C299 H313 0.950 . S
C300 C297 1.481 . S
C300 C301 1.297 . S
C300 H314 0.950 . S
C301 C300 1.297 . S
C301 C302 1.479 . S
C301 H315 0.950 . S
C302 C301 1.479 . S
C302 C303 1.375 . S
C302 C308 1.404 . S
C303 C302 1.375 . S
C303 C304 1.369 . S
C303 H316 0.950 . S
C304 C303 1.369 . S
C304 C305 1.392 . S
C304 H317 0.951 . S
C305 C304 1.392 . S
C305 C307 1.384 . S
H306 C308 0.949 . S
C307 C305 1.384 . S
C307 C308 1.385 . S
C307 H309 0.950 . S
C308 C302 1.404 . S
C308 H306 0.949 . S
C308 C307 1.385 . S
H309 C307 0.950 . S
H310 C294 0.951 . S
H311 C296 0.951 . S
H312 C298 0.951 . S
H313 C299 0.950 . S
H314 C300 0.950 . S
H315 C301 0.950 . S
H316 C303 0.950 . S
H317 C304 0.951 . S
C318 C319 1.386 . S
C318 C320 1.383 . S
C318 H334 0.951 . S
C319 C318 1.386 . S
C319 C323 1.383 . S
C320 C318 1.383 . S
C320 C321 1.402 . S
C320 H335 0.951 . S
C321 C320 1.402 . S
C321 C322 1.375 . S
C321 C324 1.481 . S
C322 C321 1.375 . S
C322 C323 1.367 . S
C322 H336 0.951 . S
C323 C319 1.383 . S
C323 C322 1.367 . S
C323 H337 0.950 . S
C324 C321 1.481 . S
C324 C325 1.297 . S
C324 H338 0.950 . S
C325 C324 1.297 . S
C325 C326 1.479 . S
C325 H339 0.950 . S
C326 C325 1.479 . S
C326 C327 1.375 . S
C326 C332 1.404 . S
C327 C326 1.375 . S
C327 C328 1.369 . S
C327 H340 0.950 . S
C328 C327 1.369 . S
C328 C329 1.392 . S
C328 H341 0.951 . S
C329 C328 1.392 . S
C329 C331 1.384 . S
H330 C332 0.949 . S
C331 C329 1.384 . S
C331 C332 1.385 . S
C331 H333 0.950 . S
C332 C326 1.404 . S
C332 H330 0.949 . S
C332 C331 1.385 . S
H333 C331 0.950 . S
H334 C318 0.951 . S
H335 C320 0.951 . S
H336 C322 0.951 . S
H337 C323 0.950 . S
H338 C324 0.950 . S
H339 C325 0.950 . S
H340 C327 0.950 . S
H341 C328 0.951 . S
C342 C343 1.386 . S
C342 C344 1.383 . S
C342 H358 0.951 . S
C343 C342 1.386 . S
C343 C347 1.383 . S
C344 C342 1.383 . S
C344 C345 1.402 . S
C344 H359 0.951 . S
C345 C344 1.402 . S
C345 C346 1.375 . S
C345 C348 1.481 . S
C346 C345 1.375 . S
C346 C347 1.367 . S
C346 H360 0.951 . S
C347 C343 1.383 . S
C347 C346 1.367 . S
C347 H361 0.950 . S
C348 C345 1.481 . S
C348 C349 1.297 . S
C348 H362 0.950 . S
C349 C348 1.297 . S
C349 C350 1.479 . S
C349 H363 0.950 . S
C350 C349 1.479 . S
C350 C351 1.375 . S
C350 C356 1.404 . S
C351 C350 1.375 . S
C351 C352 1.369 . S
C351 H364 0.950 . S
C352 C351 1.369 . S
C352 C353 1.392 . S
C352 H365 0.951 . S
C353 C352 1.392 . S
C353 C355 1.384 . S
H354 C356 0.949 . S
C355 C353 1.384 . S
C355 C356 1.385 . S
C355 H357 0.950 . S
C356 C350 1.404 . S
C356 H354 0.949 . S
C356 C355 1.385 . S
H357 C355 0.950 . S
H358 C342 0.951 . S
H359 C344 0.951 . S
H360 C346 0.951 . S
H361 C347 0.950 . S
H362 C348 0.950 . S
H363 C349 0.950 . S
H364 C351 0.950 . S
H365 C352 0.951 . S
C89 C43 1.427 . S
C79 C7 1.489 . S
C113 C39 1.426 . S
C103 C16 1.488 . S
C137 C64 1.423 . S
C127 C25 1.489 . S
C151 C34 1.483 . S
C161 C60 1.425 . S
C175 C5 1.168 . S
C185 C61 1.159 . S
C209 C76 1.066 . S
C199 C14 1.208 . S
C223 C4 1.648 1_556 S
C233 C77 1.508 . S
C257 C73 1.512 . S
C247 C13 1.673 1_556 S
C281 C40 1.022 1_655 S
C271 C23 1.187 . S
C295 C32 1.207 . S
C305 C55 1.032 . S
C329 C56 1.588 . S
C319 C22 1.651 . S
C353 C52 1.490 . S
C343 C31 1.672 . S
