# Generated by pormake.
# Topology tsx, (6,3)-cn, num edge types: 1
# Building blocks:
#     Node 0, Type 0, BuildingBlock: MIDCAF_clean_sbu_0, # of connection points: 6
#     Node 1, Type 0, BuildingBlock: MIDCAF_clean_sbu_0, # of connection points: 6
#     Node 2, Type 1, BuildingBlock: MIDCAF_clean_linker_0, # of connection points: 3
#     Node 3, Type 1, BuildingBlock: MIDCAF_clean_linker_0, # of connection points: 3
#     Node 4, Type 1, BuildingBlock: MIDCAF_clean_linker_0, # of connection points: 3
#     Node 5, Type 1, BuildingBlock: MIDCAF_clean_linker_0, # of connection points: 3
#     Edge 6, Type (0, 1), BuildingBlock: FUNLAD_clean_linker_1, # of connection points: 2
#     Edge 7, Type (0, 1), BuildingBlock: FUNLAD_clean_linker_1, # of connection points: 2
#     Edge 8, Type (0, 1), BuildingBlock: FUNLAD_clean_linker_1, # of connection points: 2
#     Edge 9, Type (0, 1), BuildingBlock: FUNLAD_clean_linker_1, # of connection points: 2
#     Edge 10, Type (0, 1), BuildingBlock: FUNLAD_clean_linker_1, # of connection points: 2
#     Edge 11, Type (0, 1), BuildingBlock: FUNLAD_clean_linker_1, # of connection points: 2
#     Edge 12, Type (0, 1), BuildingBlock: FUNLAD_clean_linker_1, # of connection points: 2
#     Edge 13, Type (0, 1), BuildingBlock: FUNLAD_clean_linker_1, # of connection points: 2
#     Edge 14, Type (0, 1), BuildingBlock: FUNLAD_clean_linker_1, # of connection points: 2
#     Edge 15, Type (0, 1), BuildingBlock: FUNLAD_clean_linker_1, # of connection points: 2
#     Edge 16, Type (0, 1), BuildingBlock: FUNLAD_clean_linker_1, # of connection points: 2
#     Edge 17, Type (0, 1), BuildingBlock: FUNLAD_clean_linker_1, # of connection points: 2
# Relax obj value: 0.119
# Max RMSD: 0.182
# Mean RMSD: 0.113
data_MOF--net-tsx--node1-MIDCAF_clean_sbu_0--node2-MIDCAF_clean_linker_0--edge1-FUNLAD_clean_linker_1
_symmetry_space_group_name_H-M    P1
_symmetry_Int_Tables_number       1
_symmetry_cell_setting            triclinic
loop_
_symmetry_equiv_pos_as_xyz
'x, y, z'
_cell_length_a     24.521778
_cell_length_b     25.357945
_cell_length_c     48.2935
_cell_angle_alpha  90.474551
_cell_angle_beta   94.070394
_cell_angle_gamma 90.067404
loop_
_atom_site_label
_atom_site_type_symbol
_atom_site_fract_x
_atom_site_fract_y
_atom_site_fract_z
_atom_type_partial_charge
Zn0 Zn 0.95567 1.00058 0.97487 0.0
Zn1 Zn 0.13295 0.01495 0.04162 0.0
Zn2 Zn 0.04604 0.01653 0.00771 0.0
C3 C 0.11498 0.1193 0.02171 0.0
C4 C 0.15708 0.94968 -0.00083 0.0
O5 O 0.98588 0.96624 0.02831 0.0
O6 O 0.91809 0.94811 0.99699 0.0
C7 C 0.96732 0.11036 0.98792 0.0
O8 O 0.06775 0.10089 0.01308 0.0
O9 O 0.15157 0.08907 0.03225 0.0
O10 O 0.17301 0.95706 0.02433 0.0
O11 O 0.11335 0.97253 0.98884 0.0
O12 O 0.93418 0.07578 0.97801 0.0
O13 O 0.01481 0.09705 -0.00122 0.0
O14 O 0.06957 0.97881 0.96913 0.0
O15 O 0.99322 0.97638 0.94183 0.0
C16 C 0.0441 0.96855 0.94547 0.0
O17 O 0.02521 0.9844 0.04795 0.0
O18 O 0.09784 1.0005 0.07652 0.0
C19 C 0.94074 0.94196 0.02104 0.0
C20 C 0.04901 0.98475 0.07259 0.0
Zn21 Zn 0.63311 0.52102 0.55486 0.0
Zn22 Zn 0.44603 0.52769 0.48521 0.0
Zn23 Zn 0.54022 0.52981 0.51911 0.0
C24 C 0.53241 0.48737 0.45571 0.0
C25 C 0.47421 0.63396 0.50045 0.0
O26 O 0.51924 0.49314 0.55818 0.0
O27 O 0.5952 0.48864 0.58573 0.0
C28 C 0.64994 0.46496 0.50575 0.0
O29 O 0.55887 0.49416 0.47942 0.0
O30 O 0.48235 0.49941 0.45239 0.0
O31 O 0.4366 0.60545 0.48895 0.0
O32 O 0.51776 0.61277 0.51188 0.0
O33 O 0.67358 0.47531 0.5293 0.0
O34 O 0.60198 0.48332 0.49899 0.0
O35 O 0.56859 0.6109 0.52758 0.0
O36 O 0.64346 0.59922 0.55547 0.0
C37 C 0.61049 0.62947 0.54206 0.0
O38 O 0.47587 0.48461 0.53822 0.0
O39 O 0.40396 0.47932 0.5079 0.0
C40 C 0.54428 0.48119 0.58162 0.0
C41 C 0.42747 0.46725 0.53109 0.0
C42 C 0.90138 0.1603 0.40813 0.0
C43 C 0.91256 0.1816 0.43491 0.0
C44 C 0.95828 0.16317 0.45116 0.0
C45 C 0.99202 0.12418 0.441 0.0
H46 H 0.11284 0.99849 0.46298 0.0
H47 H 0.19145 0.95789 0.48882 0.0
H48 H 0.27334 0.94316 0.41289 0.0
H49 H 0.19496 0.98242 0.38716 0.0
H50 H 0.10354 0.94324 0.33531 0.0
H51 H 0.08878 0.91854 0.28655 0.0
H52 H 0.93982 0.01004 0.28044 0.0
H53 H 0.95412 0.03416 0.32897 0.0
H54 H 0.92539 0.10629 0.37715 0.0
H55 H 0.86753 0.17422 0.39459 0.0
H56 H 0.96801 0.17903 0.47183 0.0
H57 H 0.02701 0.11115 0.4541 0.0
N58 N 0.06328 0.04631 0.41795 0.0
N59 N 0.08721 0.99405 0.38034 0.0
N60 N 0.0074 0.04473 0.37645 0.0
C61 C 0.09821 0.01185 0.40676 0.0
C62 C 0.04163 0.00997 0.36511 0.0
C63 C 0.01785 0.06323 0.40277 0.0
C64 C 0.1477 0.99326 0.42304 0.0
C65 C 0.14815 0.98749 0.45197 0.0
C66 C 0.19305 0.96441 0.46675 0.0
C67 C 0.23888 0.94834 0.45302 0.0
C68 C 0.23935 0.95639 0.42427 0.0
C69 C 0.19407 0.97825 0.40943 0.0
C70 C 0.03031 0.99116 0.3361 0.0
C71 C 0.06718 0.95747 0.32369 0.0
C72 C 0.05863 0.94308 0.29574 0.0
C73 C 0.01297 0.96166 0.27953 0.0
C74 C 0.97497 0.99385 0.29217 0.0
C75 C 0.98353 0.00829 0.32014 0.0
C76 C 0.98097 0.10295 0.41421 0.0
C77 C 0.93508 0.12136 0.39797 0.0
C78 C 0.8354 0.94581 0.5972 0.0
C79 C 0.83013 0.95002 0.5681 0.0
C80 C 0.87069 0.97723 0.5548 0.0
C81 C 0.91712 0.99702 0.57007 0.0
H82 H 0.04403 0.11233 0.57129 0.0
H83 H 0.10288 0.18237 0.55591 0.0
H84 H 0.20494 0.16945 0.63228 0.0
H85 H 0.14741 0.09948 0.64731 0.0
H86 H 0.12309 0.0194 0.6916 0.0
H87 H 0.13996 0.98972 0.73885 0.0
H88 H 0.99058 0.89837 0.73117 0.0
H89 H 0.97317 0.9288 0.68367 0.0
H90 H 0.88493 0.95997 0.63468 0.0
H91 H 0.80396 0.92742 0.60846 0.0
H92 H 0.86737 0.98164 0.53245 0.0
H93 H 0.94849 0.01638 0.55913 0.0
N94 N 0.00847 0.04317 0.60524 0.0
N95 N 0.06684 0.03618 0.64569 0.0
N96 N 0.98737 0.98497 0.64051 0.0
C97 C 0.05473 0.05835 0.6205 0.0
C98 C 0.03359 0.99936 0.65583 0.0
C99 C 0.97452 0.0065 0.61521 0.0
C100 C 0.091 0.09991 0.61049 0.0
C101 C 0.07931 0.12412 0.58467 0.0
C102 C 0.11297 0.16432 0.57587 0.0
C103 C 0.15918 0.18103 0.59253 0.0
C104 C 0.17078 0.15693 0.61839 0.0
C105 C 0.13723 0.11678 0.62718 0.0
C106 C 0.04648 0.97695 0.6838 0.0
C107 C 0.09413 0.99237 0.69977 0.0
C108 C 0.10417 0.9747 0.72698 0.0
C109 C 0.06685 0.94087 0.73883 0.0
C110 C 0.02023 0.92411 0.72255 0.0
C111 C 0.0102 0.94173 0.69533 0.0
C112 C 0.92379 0.98983 0.59896 0.0
C113 C 0.88185 0.96497 0.61237 0.0
C114 C 0.38733 0.59854 0.92546 0.0
C115 C 0.40757 0.64522 0.93808 0.0
C116 C 0.46449 0.65245 0.94226 0.0
C117 C 0.50043 0.61396 0.93333 0.0
H118 H 0.64285 0.50483 0.96103 0.0
H119 H 0.72979 0.47347 0.98324 0.0
H120 H 0.77011 0.40371 0.90545 0.0
H121 H 0.68402 0.43362 0.88358 0.0
H122 H 0.59499 0.41036 0.83741 0.0
H123 H 0.57382 0.3847 0.78925 0.0
H124 H 0.4162 0.4605 0.79065 0.0
H125 H 0.43776 0.48713 0.83852 0.0
H126 H 0.40624 0.52585 0.90545 0.0
H127 H 0.34366 0.59188 0.9223 0.0
H128 H 0.48119 0.68764 0.95254 0.0
H129 H 0.54408 0.62074 0.93634 0.0
N130 N 0.56736 0.51924 0.91958 0.0
N131 N 0.58454 0.46287 0.88238 0.0
N132 N 0.5011 0.50729 0.88239 0.0
C133 C 0.60126 0.48506 0.90728 0.0
C134 C 0.53466 0.47369 0.86978 0.0
C135 C 0.51704 0.53026 0.90716 0.0
C136 C 0.65573 0.47084 0.92063 0.0
C137 C 0.67039 0.48293 0.94868 0.0
C138 C 0.72015 0.46503 0.96141 0.0
C139 C 0.75595 0.43452 0.94643 0.0
C140 C 0.74258 0.42507 0.91802 0.0
C141 C 0.69311 0.44272 0.90538 0.0
C142 C 0.51867 0.452 0.84173 0.0
C143 C 0.55561 0.42128 0.82756 0.0
C144 C 0.54338 0.40633 0.79993 0.0
C145 C 0.49415 0.42181 0.7857 0.0
C146 C 0.45544 0.44931 0.80044 0.0
C147 C 0.46771 0.46438 0.82811 0.0
C148 C 0.47998 0.56829 0.91956 0.0
C149 C 0.42311 0.56083 0.91588 0.0
C150 C 0.32879 0.461 0.11209 0.0
C151 C 0.32446 0.44419 0.0843 0.0
C152 C 0.36938 0.45156 0.06806 0.0
C153 C 0.41845 0.47326 0.07993 0.0
H154 H 0.55085 0.59698 0.07295 0.0
H155 H 0.61255 0.66177 0.0547 0.0
H156 H 0.7169 0.65256 0.13052 0.0
H157 H 0.65667 0.58798 0.14828 0.0
H158 H 0.62461 0.52596 0.19863 0.0
H159 H 0.63921 0.50394 0.2473 0.0
H160 H 0.4926 0.40843 0.24109 0.0
H161 H 0.47762 0.43093 0.19233 0.0
H162 H 0.38049 0.49203 0.14587 0.0
H163 H 0.29481 0.45606 0.12502 0.0
H164 H 0.36693 0.43994 0.04639 0.0
H165 H 0.45301 0.47714 0.06731 0.0
N166 N 0.51245 0.53443 0.11008 0.0
N167 N 0.57223 0.53106 0.15031 0.0
N168 N 0.48949 0.48502 0.14854 0.0
C169 C 0.56039 0.54923 0.12416 0.0
C170 C 0.53726 0.49873 0.16259 0.0
C171 C 0.47677 0.50238 0.12237 0.0
C172 C 0.59864 0.58689 0.11208 0.0
C173 C 0.58728 0.60841 0.08557 0.0
C174 C 0.62262 0.64565 0.07513 0.0
C175 C 0.67023 0.66217 0.09082 0.0
C176 C 0.68163 0.64044 0.11731 0.0
C177 C 0.64648 0.60325 0.12769 0.0
C178 C 0.54956 0.48081 0.19153 0.0
C179 C 0.59589 0.49959 0.20749 0.0
C180 C 0.60455 0.48646 0.23554 0.0
C181 C 0.56712 0.45391 0.2482 0.0
C182 C 0.52222 0.43342 0.23192 0.0
C183 C 0.51353 0.44657 0.20395 0.0
C184 C 0.42356 0.48684 0.10826 0.0
C185 C 0.37791 0.4814 0.12403 0.0
H186 H 0.16915 0.182 0.00981 0.0
C187 C 0.13018 0.17492 0.01859 0.0
H188 H 0.07259 0.20585 0.04457 0.0
H189 H 0.27067 0.33369 0.10539 0.0
H190 H 0.24198 0.27704 0.14159 0.0
H191 H 0.16669 0.21339 0.13229 0.0
H192 H 0.12011 0.20581 0.08657 0.0
C193 C 0.10852 0.21374 0.03332 0.0
C194 C 0.14219 0.26186 0.04036 0.0
C195 C 0.16711 0.26786 0.06763 0.0
C196 C 0.20961 0.30566 0.07317 0.0
C197 C 0.23671 0.3075 0.1001 0.0
C198 C 0.22098 0.27473 0.12112 0.0
C199 C 0.1787 0.23883 0.11588 0.0
C200 C 0.15225 0.23495 0.08947 0.0
H201 H 0.23632 0.42484 0.08389 0.0
C202 C 0.27365 0.41633 0.07381 0.0
H203 H 0.31087 0.36392 0.04658 0.0
H204 H 0.09669 0.26645 0.98739 0.0
H205 H 0.12192 0.32607 0.95121 0.0
H206 H 0.1947 0.39242 0.96078 0.0
H207 H 0.24252 0.39962 0.0065 0.0
C208 C 0.27392 0.37469 0.05638 0.0
C209 C 0.22556 0.33903 0.05162 0.0
C210 C 0.19789 0.33547 0.02489 0.0
C211 C 0.15613 0.297 0.01929 0.0
C212 C 0.12916 0.29442 0.99246 0.0
C213 C 0.1431 0.32856 0.97163 0.0
C214 C 0.18406 0.36594 0.97702 0.0
C215 C 0.21127 0.36956 0.00331 0.0
H216 H 0.18691 0.92053 0.95952 0.0
C217 C 0.18921 0.91492 0.98183 0.0
H218 H 0.22351 0.87225 0.01594 0.0
H219 H 0.29045 0.72137 0.90963 0.0
H220 H 0.19416 0.71865 0.89405 0.0
H221 H 0.12679 0.77105 0.918 0.0
H222 H 0.15532 0.82784 0.95683 0.0
C223 C 0.22166 0.87725 0.99355 0.0
C224 C 0.26095 0.8455 0.97812 0.0
C225 C 0.24277 0.81024 0.95637 0.0
C226 C 0.28112 0.77719 0.94379 0.0
C227 C 0.26266 0.74517 0.92084 0.0
C228 C 0.20758 0.74353 0.91156 0.0
C229 C 0.16969 0.77328 0.92492 0.0
C230 C 0.18678 0.80613 0.94713 0.0
H231 H 0.33087 0.67126 0.95539 0.0
C232 C 0.36837 0.68516 0.94713 0.0
H233 H 0.41262 0.75159 0.93515 0.0
H234 H 0.31081 0.91312 0.01669 0.0
H235 H 0.40662 0.9142 0.03275 0.0
H236 H 0.47152 0.85189 0.01355 0.0
H237 H 0.44114 0.78865 0.97791 0.0
C238 C 0.37591 0.73725 0.94398 0.0
C239 C 0.33675 0.77667 0.95426 0.0
C240 C 0.35513 0.81303 0.97535 0.0
C241 C 0.31738 0.8479 0.987 0.0
C242 C 0.33725 0.88464 0.00762 0.0
C243 C 0.39229 0.88593 0.01695 0.0
C244 C 0.42883 0.85094 0.0061 0.0
C245 C 0.41075 0.81484 0.98557 0.0
H246 H 0.94232 0.89077 0.0581 0.0
C247 C 0.91709 0.90434 0.04016 0.0
H248 H 0.84182 0.89773 0.01651 0.0
H249 H 0.77648 0.66835 0.04282 0.0
H250 H 0.8011 0.65946 0.99532 0.0
H251 H 0.84619 0.73246 0.97234 0.0
H252 H 0.86726 0.81454 0.99682 0.0
C253 C 0.86639 0.88466 0.03479 0.0
C254 C 0.84456 0.83939 0.05015 0.0
C255 C 0.83197 0.79168 0.03545 0.0
C256 C 0.80523 0.74985 0.04853 0.0
C257 C 0.79496 0.70208 0.03361 0.0
C258 C 0.80937 0.69623 0.00638 0.0
C259 C 0.83479 0.7373 0.99347 0.0
C260 C 0.84631 0.7844 0.00774 0.0
H261 H 0.68922 0.72405 0.06087 0.0
C262 C 0.70577 0.70299 0.07911 0.0
H263 H 0.77611 0.69458 0.10709 0.0
H264 H 0.86412 0.92473 0.08484 0.0
H265 H 0.84414 0.93131 0.13312 0.0
H266 H 0.79926 0.85807 0.15597 0.0
H267 H 0.77395 0.77774 0.13059 0.0
C268 C 0.75727 0.71448 0.0891 0.0
C269 C 0.79012 0.75605 0.07617 0.0
C270 C 0.80586 0.80232 0.09148 0.0
C271 C 0.8326 0.84433 0.07839 0.0
C272 C 0.84524 0.89103 0.09383 0.0
C273 C 0.83353 0.89555 0.12155 0.0
C274 C 0.80824 0.85431 0.13442 0.0
C275 C 0.79411 0.80833 0.11962 0.0
H276 H 0.90374 0.17022 0.983 0.0
C277 C 0.94759 0.16518 0.98736 0.0
H278 H 0.02321 0.205 0.99194 0.0
H279 H 0.89791 0.38376 0.91851 0.0
H280 H 0.97319 0.36106 0.89042 0.0
H281 H 0.03934 0.29191 0.90545 0.0
H282 H 0.03096 0.24535 0.94872 0.0
C283 C 0.97914 0.20841 0.9898 0.0
C284 C 0.95242 0.26084 0.98532 0.0
C285 C 0.95844 0.28805 0.96027 0.0
C286 C 0.91964 0.32712 0.95135 0.0
C287 C 0.92587 0.35315 0.92596 0.0
C288 C 0.96891 0.34063 0.90973 0.0
C289 C 0.00619 0.30173 0.91821 0.0
C290 C 1.001 0.27536 0.94309 0.0
H291 H 0.8252 0.43194 0.97887 0.0
C292 C 0.80609 0.41155 0.96081 0.0
H293 H 0.80591 0.34293 0.93577 0.0
H294 H 0.94048 0.22785 0.03796 0.0
H295 H 0.86724 0.25218 0.06713 0.0
H296 H 0.79565 0.31495 0.05046 0.0
H297 H 0.79725 0.35454 0.00507 0.0
C298 C 0.82557 0.36426 0.95333 0.0
C299 C 0.87451 0.33823 0.96726 0.0
C300 C 0.87234 0.31549 0.99392 0.0
C301 C 0.91232 0.27771 0.00317 0.0
C302 C 0.91 0.25566 0.02986 0.0
C303 C 0.86846 0.26942 0.04675 0.0
C304 C 0.82823 0.30487 0.03738 0.0
C305 C 0.82975 0.32753 0.01124 0.0
H306 H 0.64455 0.70071 0.56235 0.0
C307 C 0.62222 0.68625 0.54352 0.0
H308 H 0.59881 0.70321 0.5016 0.0
H309 H 0.671 0.91956 0.5785 0.0
H310 H 0.57896 0.91446 0.59432 0.0
H311 H 0.5155 0.84385 0.57724 0.0
H312 H 0.54369 0.77776 0.5442 0.0
C313 C 0.61589 0.71818 0.52151 0.0
C314 C 0.64358 0.77045 0.52324 0.0
C315 C 0.626 0.80948 0.54168 0.0
C316 C 0.66252 0.85013 0.55142 0.0
C317 C 0.64473 0.88767 0.57063 0.0
C318 C 0.59208 0.88526 0.57974 0.0
C319 C 0.55631 0.84549 0.57011 0.0
C320 C 0.57294 0.80779 0.55133 0.0
H321 H 0.77336 0.93925 0.53039 0.0
C322 C 0.78406 0.92464 0.55117 0.0
H323 H 0.77031 0.8644 0.57993 0.0
H324 H 0.68363 0.70988 0.48235 0.0
H325 H 0.77328 0.71779 0.46424 0.0
H326 H 0.83789 0.78697 0.48187 0.0
H327 H 0.81331 0.84873 0.51747 0.0
C328 C 0.75908 0.88102 0.55971 0.0
C329 C 0.7163 0.85167 0.54253 0.0
C330 C 0.73117 0.81686 0.5212 0.0
C331 C 0.69426 0.7765 0.51128 0.0
C332 C 0.71042 0.74098 0.49067 0.0
C333 C 0.76163 0.74516 0.48009 0.0
C334 C 0.79799 0.78414 0.49001 0.0
C335 C 0.7833 0.81947 0.51044 0.0
H336 H 0.64948 0.41106 0.46959 0.0
C337 C 0.67498 0.42769 0.48682 0.0
H338 H 0.75171 0.42617 0.50938 0.0
H339 H 0.80963 0.19195 0.484 0.0
H340 H 0.79038 0.18746 0.53245 0.0
H341 H 0.75133 0.26383 0.55601 0.0
H342 H 0.73093 0.34485 0.5312 0.0
C343 C 0.72659 0.41078 0.49168 0.0
C344 C 0.74784 0.36459 0.47666 0.0
C345 C 0.76037 0.31776 0.49167 0.0
C346 C 0.78378 0.27408 0.47827 0.0
C347 C 0.79375 0.22703 0.49343 0.0
C348 C 0.78238 0.22371 0.5212 0.0
C349 C 0.76034 0.26667 0.53444 0.0
C350 C 0.74912 0.3131 0.51995 0.0
H351 H 0.89663 0.2463 0.46415 0.0
C352 C 0.87878 0.22401 0.4464 0.0
H353 H 0.8069 0.21361 0.41964 0.0
H354 H 0.72686 0.44776 0.44143 0.0
H355 H 0.74174 0.45012 0.3924 0.0
H356 H 0.78208 0.37404 0.3692 0.0
H357 H 0.8073 0.29486 0.39488 0.0
C358 C 0.82703 0.23499 0.43702 0.0
C359 C 0.79597 0.27781 0.45009 0.0
C360 C 0.78044 0.32336 0.43463 0.0
C361 C 0.75668 0.36707 0.44797 0.0
C362 C 0.7437 0.41289 0.43228 0.0
C363 C 0.7525 0.41498 0.40413 0.0
C364 C 0.77527 0.37216 0.39107 0.0
C365 C 0.78943 0.3269 0.40606 0.0
H366 H 0.42712 0.41007 0.56535 0.0
C367 C 0.40178 0.4289 0.54893 0.0
H368 H 0.32464 0.43114 0.52678 0.0
H369 H 0.26089 0.19583 0.54335 0.0
H370 H 0.27998 0.19586 0.49481 0.0
H371 H 0.32103 0.27374 0.47411 0.0
H372 H 0.34362 0.35174 0.50187 0.0
C373 C 0.34964 0.41352 0.54374 0.0
C374 C 0.32735 0.36626 0.55706 0.0
C375 C 0.31351 0.32126 0.54035 0.0
C376 C 0.28894 0.27676 0.55212 0.0
C377 C 0.2777 0.2315 0.53524 0.0
C378 C 0.28896 0.23076 0.50739 0.0
C379 C 0.31212 0.27456 0.49574 0.0
C380 C 0.3246 0.31925 0.51193 0.0
H381 H 0.17537 0.24861 0.56567 0.0
C382 C 0.19323 0.22445 0.58248 0.0
H383 H 0.26543 0.21081 0.60841 0.0
H384 H 0.35084 0.44528 0.59529 0.0
H385 H 0.33575 0.44319 0.6443 0.0
H386 H 0.29299 0.36588 0.66464 0.0
H387 H 0.26571 0.28982 0.63611 0.0
C388 C 0.2453 0.2341 0.59198 0.0
C389 C 0.2769 0.27788 0.5804 0.0
C390 C 0.29357 0.32158 0.5975 0.0
C391 C 0.31857 0.36606 0.58578 0.0
C392 C 0.33288 0.40997 0.60313 0.0
C393 C 0.324 0.4095 0.6313 0.0
C394 C 0.29988 0.36597 0.64275 0.0
C395 C 0.28455 0.32252 0.62614 0.0
H396 H 0.50207 0.71689 0.50713 0.0
C397 C 0.4681 0.69195 0.49975 0.0
H398 H 0.38781 0.68896 0.48096 0.0
H399 H 0.35481 0.93202 0.51508 0.0
H400 H 0.36935 0.90547 0.5634 0.0
H401 H 0.40445 0.81676 0.57543 0.0
H402 H 0.42612 0.75439 0.53935 0.0
C403 C 0.42155 0.71386 0.48896 0.0
C404 C 0.41539 0.77104 0.48335 0.0
C405 C 0.40306 0.8067 0.50471 0.0
C406 C 0.38138 0.85727 0.49775 0.0
C407 C 0.36985 0.8926 0.51936 0.0
C408 C 0.37831 0.87795 0.54709 0.0
C409 C 0.39815 0.828 0.55387 0.0
C410 C 0.41035 0.79255 0.53299 0.0
H411 H 0.26879 0.88822 0.48305 0.0
C412 C 0.28192 0.91636 0.46799 0.0
H413 H 0.34792 0.94514 0.44689 0.0
H414 H 0.44759 0.71644 0.43843 0.0
H415 H 0.43817 0.74454 0.39035 0.0
H416 H 0.39795 0.83104 0.37792 0.0
H417 H 0.36733 0.88991 0.41328 0.0
C418 C 0.33439 0.91642 0.46147 0.0
C419 C 0.37088 0.87124 0.46949 0.0
C420 C 0.38968 0.83802 0.44838 0.0
C421 C 0.41209 0.78787 0.45541 0.0
C422 C 0.42948 0.75465 0.43404 0.0
C423 C 0.42453 0.77036 0.40642 0.0
C424 C 0.40195 0.81908 0.39944 0.0
C425 C 0.38448 0.85257 0.42004 0.0
H426 H 0.97359 0.96771 0.09359 0.0
C427 C 0.01784 0.97083 0.09651 0.0
H428 H 0.08696 0.97171 0.12501 0.0
H429 H 0.98599 0.0607 0.22861 0.0
H430 H 0.026 0.14044 0.21118 0.0
H431 H 0.05949 0.14244 0.1642 0.0
H432 H 0.05312 0.06481 0.1344 0.0
C433 C 0.04284 0.96709 0.12203 0.0
C434 C 0.01233 0.96815 0.14744 0.0
C435 C 0.01558 0.01416 0.16433 0.0
C436 C 0.99635 0.01306 0.19132 0.0
C437 C 1.00056 0.05934 0.20798 0.0
C438 C 0.02321 0.1054 0.1982 0.0
C439 C 0.04206 0.10652 0.17175 0.0
C440 C 0.03838 0.06159 0.15492 0.0
H441 H 0.04825 0.94007 0.24028 0.0
C442 C 0.01044 0.95196 0.24908 0.0
H443 H 0.92743 0.9728 0.23872 0.0
H444 H 0.99268 0.87569 0.11866 0.0
H445 H 0.94689 0.79816 0.13513 0.0
H446 H 0.91305 0.79674 0.18205 0.0
H447 H 0.92484 0.87314 0.21287 0.0
C448 C 0.96667 0.96169 0.23148 0.0
C449 C 0.97448 0.96583 0.2014 0.0
C450 C 0.96628 0.92153 0.18357 0.0
C451 C 0.98542 0.92256 0.15645 0.0
C452 C 0.97853 0.87714 0.13935 0.0
C453 C 0.95246 0.83237 0.14859 0.0
C454 C 0.93339 0.83157 0.17503 0.0
C455 C 0.94038 0.87548 0.19249 0.0
H456 H 0.1196 0.95301 0.9242 0.0
C457 C 0.07523 0.95233 0.9218 0.0
H458 H 0.00548 0.94169 0.89403 0.0
H459 H 0.14537 0.02925 0.79728 0.0
H460 H 0.1444 0.11279 0.82205 0.0
H461 H 0.11342 0.11786 0.86949 0.0
H462 H 0.08362 0.03955 0.89246 0.0
C463 C 0.04984 0.94299 0.8967 0.0
C464 C 0.0798 0.93862 0.87117 0.0
C465 C 0.09788 0.98495 0.85829 0.0
C466 C 0.11511 0.98219 0.83084 0.0
C467 C 0.13176 0.02911 0.8181 0.0
C468 C 0.13141 0.07736 0.83208 0.0
C469 C 0.11402 0.0802 0.85879 0.0
C470 C 0.09713 0.03477 0.87178 0.0
H471 H 0.03412 0.91512 0.77788 0.0
C472 C 0.07145 0.92731 0.76877 0.0
H473 H 0.15548 0.94519 0.77777 0.0
H474 H 0.05676 0.84195 0.8919 0.0
H475 H 0.06204 0.7576 0.86781 0.0
H476 H 0.09133 0.75303 0.81998 0.0
H477 H 0.11562 0.83284 0.79593 0.0
C478 C 0.11706 0.93344 0.78569 0.0
C479 C 0.11293 0.93346 0.81623 0.0
C480 C 0.09979 0.88657 0.83004 0.0
C481 C 0.0831 0.8892 0.85759 0.0
C482 C 0.06931 0.84197 0.87085 0.0
C483 C 0.07236 0.79343 0.85731 0.0
C484 C 0.08886 0.79086 0.83037 0.0
C485 C 0.10241 0.83682 0.81676 0.0
H486 H 0.46811 0.46807 0.60258 0.0
C487 C 0.51233 0.46418 0.60475 0.0
H488 H 0.58139 0.44885 0.63197 0.0
H489 H 0.48753 0.53637 0.73908 0.0
H490 H 0.53566 0.61383 0.7247 0.0
H491 H 0.57083 0.61812 0.67817 0.0
H492 H 0.55813 0.54483 0.64579 0.0
C493 C 0.53706 0.45086 0.62935 0.0
C494 C 0.50728 0.45096 0.65502 0.0
C495 C 0.51412 0.49457 0.67348 0.0
C496 C 0.49341 0.49228 0.70014 0.0
C497 C 0.50203 0.53598 0.71845 0.0
C498 C 0.52964 0.58078 0.71047 0.0
C499 C 0.54948 0.58318 0.6843 0.0
C500 C 0.54202 0.54072 0.66595 0.0
H501 H 0.51826 0.38821 0.74604 0.0
C502 C 0.48777 0.41283 0.75514 0.0
H503 H 0.4249 0.46852 0.74572 0.0
H504 H 0.48097 0.36389 0.62303 0.0
H505 H 0.42832 0.28809 0.63646 0.0
H506 H 0.39244 0.28403 0.68287 0.0
H507 H 0.40864 0.35604 0.71614 0.0
C508 C 0.45381 0.44088 0.73783 0.0
C509 C 0.46624 0.44617 0.70831 0.0
C510 C 0.45586 0.40419 0.6891 0.0
C511 C 0.47636 0.40663 0.66231 0.0
C512 C 0.46625 0.36392 0.64362 0.0
C513 C 0.43619 0.32024 0.65109 0.0
C514 C 0.41598 0.31795 0.67724 0.0
C515 C 0.42561 0.35936 0.69614 0.0
H516 H 0.60667 0.47206 0.43346 0.0
C517 C 0.56225 0.47132 0.43154 0.0
H518 H 0.49138 0.46389 0.4045 0.0
H519 H 0.58203 0.55501 0.29867 0.0
H520 H 0.53447 0.63156 0.31541 0.0
H521 H 0.50061 0.63278 0.36233 0.0
H522 H 0.51414 0.55757 0.39274 0.0
C523 C 0.5358 0.46275 0.40664 0.0
C524 C 0.56439 0.46445 0.38062 0.0
C525 C 0.55655 0.50901 0.36327 0.0
C526 C 0.57592 0.50834 0.33629 0.0
C527 C 0.56746 0.55327 0.31928 0.0
C528 C 0.54047 0.59754 0.32867 0.0
C529 C 0.52141 0.59822 0.35507 0.0
C530 C 0.52926 0.55465 0.37227 0.0
H531 H 0.53172 0.43202 0.2872 0.0
C532 C 0.56918 0.44558 0.27869 0.0
H533 H 0.65058 0.47127 0.28979 0.0
H534 H 0.59275 0.37568 0.41017 0.0
H535 H 0.64537 0.30159 0.39426 0.0
H536 H 0.67883 0.30063 0.34725 0.0
H537 H 0.66012 0.37415 0.31583 0.0
C538 C 0.61165 0.45838 0.29666 0.0
C539 C 0.60244 0.46289 0.32663 0.0
C540 C 0.61455 0.42029 0.34479 0.0
C541 C 0.59542 0.42099 0.37193 0.0
C542 C 0.60664 0.37729 0.38943 0.0
C543 C 0.63661 0.33448 0.38051 0.0
C544 C 0.65547 0.33394 0.35402 0.0
C545 C 0.6445 0.37621 0.33622 0.0
loop_
_geom_bond_atom_site_label_1
_geom_bond_atom_site_label_2
_geom_bond_distance
_geom_bond_site_symmetry_2
_ccdc_geom_bond_type
Zn0 O6 1.914 1_546 S
Zn0 O12 1.898 . S
Zn0 O15 1.905 1_545 S
Zn1 O9 1.905 . S
Zn1 O10 1.898 1_545 S
Zn1 O18 1.920 1_545 S
Zn2 O5 2.080 1_445 S
Zn2 O8 2.114 . S
Zn2 O11 2.120 1_545 S
Zn2 O13 2.120 1_455 S
Zn2 O14 2.114 1_554 S
Zn2 O17 2.080 . S
C3 O8 1.166 . S
C3 O9 1.182 . S
C4 O10 1.167 . S
C4 O11 1.299 . S
O5 Zn2 2.080 1_665 S
O5 C19 1.305 . S
O6 Zn0 1.914 1_564 S
O6 C19 1.239 . S
C7 O12 1.182 . S
C7 O13 1.286 1_556 S
O8 Zn2 2.114 . S
O8 C3 1.166 . S
O9 Zn1 1.905 . S
O9 C3 1.182 . S
O10 Zn1 1.898 1_565 S
O10 C4 1.167 . S
O11 Zn2 2.120 1_565 S
O11 C4 1.299 . S
O12 Zn0 1.898 . S
O12 C7 1.182 . S
O13 Zn2 2.120 1_655 S
O13 C7 1.286 1_554 S
O14 Zn2 2.114 1_556 S
O14 C16 1.166 1_545 S
O15 Zn0 1.905 1_565 S
O15 C16 1.182 1_655 S
C16 O14 1.166 1_565 S
C16 O15 1.182 1_455 S
O17 Zn2 2.080 . S
O17 C20 1.305 1_545 S
O18 Zn1 1.920 1_565 S
O18 C20 1.234 . S
C19 O5 1.305 . S
C19 O6 1.239 . S
C20 O17 1.305 1_565 S
C20 O18 1.234 . S
Zn21 O27 1.920 . S
Zn21 O33 1.898 . S
Zn21 O36 1.905 . S
Zn22 O30 1.905 . S
Zn22 O31 1.898 . S
Zn22 O39 1.920 . S
Zn23 O26 2.080 . S
Zn23 O29 2.114 . S
Zn23 O32 2.120 . S
Zn23 O34 2.120 . S
Zn23 O35 2.114 . S
Zn23 O38 2.080 . S
C24 O29 1.166 . S
C24 O30 1.182 . S
C25 O31 1.167 . S
C25 O32 1.299 . S
O26 Zn23 2.080 . S
O26 C40 1.305 . S
O27 Zn21 1.920 . S
O27 C40 1.234 . S
C28 O33 1.167 . S
C28 O34 1.299 . S
O29 Zn23 2.114 . S
O29 C24 1.166 . S
O30 Zn22 1.905 . S
O30 C24 1.182 . S
O31 Zn22 1.898 . S
O31 C25 1.167 . S
O32 Zn23 2.120 . S
O32 C25 1.299 . S
O33 Zn21 1.898 . S
O33 C28 1.167 . S
O34 Zn23 2.120 . S
O34 C28 1.299 . S
O35 Zn23 2.114 . S
O35 C37 1.166 . S
O36 Zn21 1.905 . S
O36 C37 1.182 . S
C37 O35 1.166 . S
C37 O36 1.182 . S
O38 Zn23 2.080 . S
O38 C41 1.305 . S
O39 Zn22 1.920 . S
O39 C41 1.234 . S
C40 O26 1.305 . S
C40 O27 1.234 . S
C41 O38 1.305 . S
C41 O39 1.234 . S
C42 C43 1.384 . S
C42 H55 0.947 . S
C42 C77 1.382 . S
C43 C42 1.384 . S
C43 C44 1.378 . S
C44 C43 1.378 . S
C44 C45 1.378 1_655 S
C44 H56 0.952 . S
C45 C44 1.378 1_455 S
C45 H57 0.950 . S
C45 C76 1.383 . S
H46 C65 0.947 . S
H47 C66 0.946 . S
H48 C68 0.953 . S
H49 C69 0.945 . S
H50 C71 0.952 1_565 S
H51 C72 0.949 1_565 S
H52 C74 0.950 . S
H53 C75 0.948 . S
H54 C77 0.951 . S
H55 C42 0.947 . S
H56 C44 0.952 . S
H57 C45 0.950 . S
N58 C61 1.382 . S
N58 C63 1.363 . S
N59 C61 1.371 . S
N59 C62 1.372 . S
N60 C62 1.361 . S
N60 C63 1.377 . S
C61 N58 1.382 . S
C61 N59 1.371 . S
C61 C64 1.480 1_545 S
C62 N59 1.372 . S
C62 N60 1.361 . S
C62 C70 1.457 . S
C63 N58 1.363 . S
C63 N60 1.377 . S
C63 C76 1.479 . S
C64 C61 1.480 1_565 S
C64 C65 1.383 . S
C64 C69 1.385 . S
C65 H46 0.947 . S
C65 C64 1.383 . S
C65 C66 1.388 . S
C66 H47 0.946 . S
C66 C65 1.388 . S
C66 C67 1.384 . S
C67 C66 1.384 . S
C67 C68 1.377 . S
C68 H48 0.953 . S
C68 C67 1.377 . S
C68 C69 1.369 . S
C69 H49 0.945 . S
C69 C64 1.385 . S
C69 C68 1.369 . S
C70 C62 1.457 . S
C70 C71 1.372 . S
C70 C75 1.364 . S
C71 H50 0.952 1_545 S
C71 C70 1.372 . S
C71 C72 1.389 . S
C72 H51 0.949 1_545 S
C72 C71 1.389 . S
C72 C73 1.387 . S
C73 C72 1.387 . S
C73 C74 1.372 . S
C74 H52 0.950 . S
C74 C73 1.372 . S
C74 C75 1.379 . S
C75 H53 0.948 . S
C75 C70 1.364 . S
C75 C74 1.379 . S
C76 C45 1.383 . S
C76 C63 1.479 . S
C76 C77 1.398 1_455 S
C77 C42 1.382 . S
C77 H54 0.951 . S
C77 C76 1.398 1_655 S
C78 C79 1.384 . S
C78 H91 0.947 . S
C78 C113 1.382 . S
C79 C78 1.384 . S
C79 C80 1.378 . S
C80 C79 1.378 . S
C80 C81 1.378 . S
C80 H92 0.952 . S
C81 C80 1.378 . S
C81 H93 0.950 . S
C81 C112 1.383 . S
H82 C101 0.947 . S
H83 C102 0.946 . S
H84 C104 0.953 . S
H85 C105 0.945 . S
H86 C107 0.952 . S
H87 C108 0.949 . S
H88 C110 0.950 . S
H89 C111 0.948 . S
H90 C113 0.951 . S
H91 C78 0.947 . S
H92 C80 0.952 . S
H93 C81 0.950 . S
N94 C97 1.382 . S
N94 C99 1.363 1_445 S
N95 C97 1.371 . S
N95 C98 1.372 . S
N96 C98 1.361 1_665 S
N96 C99 1.377 . S
C97 N94 1.382 . S
C97 N95 1.371 . S
C97 C100 1.480 . S
C98 N95 1.372 . S
C98 N96 1.361 1_445 S
C98 C106 1.457 . S
C99 N94 1.363 1_665 S
C99 N96 1.377 . S
C99 C112 1.479 . S
C100 C97 1.480 . S
C100 C101 1.383 . S
C100 C105 1.385 . S
C101 H82 0.947 . S
C101 C100 1.383 . S
C101 C102 1.388 . S
C102 H83 0.946 . S
C102 C101 1.388 . S
C102 C103 1.384 . S
C103 C102 1.384 . S
C103 C104 1.377 . S
C104 H84 0.953 . S
C104 C103 1.377 . S
C104 C105 1.369 . S
C105 H85 0.945 . S
C105 C100 1.385 . S
C105 C104 1.369 . S
C106 C98 1.457 . S
C106 C107 1.372 . S
C106 C111 1.364 1_445 S
C107 H86 0.952 . S
C107 C106 1.372 . S
C107 C108 1.389 . S
C108 H87 0.949 . S
C108 C107 1.389 . S
C108 C109 1.387 . S
C109 C108 1.387 . S
C109 C110 1.372 1_445 S
C110 H88 0.950 . S
C110 C109 1.372 1_665 S
C110 C111 1.379 . S
C111 H89 0.948 . S
C111 C106 1.364 1_665 S
C111 C110 1.379 . S
C112 C81 1.383 . S
C112 C99 1.479 . S
C112 C113 1.398 . S
C113 C78 1.382 . S
C113 H90 0.951 . S
C113 C112 1.398 . S
C114 C115 1.384 . S
C114 H127 0.947 . S
C114 C149 1.382 . S
C115 C114 1.384 . S
C115 C116 1.378 . S
C116 C115 1.378 . S
C116 C117 1.378 . S
C116 H128 0.952 . S
C117 C116 1.378 . S
C117 H129 0.950 . S
C117 C148 1.383 . S
H118 C137 0.947 . S
H119 C138 0.946 . S
H120 C140 0.953 . S
H121 C141 0.945 . S
H122 C143 0.952 . S
H123 C144 0.949 . S
H124 C146 0.950 . S
H125 C147 0.948 . S
H126 C149 0.951 . S
H127 C114 0.947 . S
H128 C116 0.952 . S
H129 C117 0.950 . S
N130 C133 1.382 . S
N130 C135 1.363 . S
N131 C133 1.371 . S
N131 C134 1.372 . S
N132 C134 1.361 . S
N132 C135 1.377 . S
C133 N130 1.382 . S
C133 N131 1.371 . S
C133 C136 1.480 . S
C134 N131 1.372 . S
C134 N132 1.361 . S
C134 C142 1.457 . S
C135 N130 1.363 . S
C135 N132 1.377 . S
C135 C148 1.479 . S
C136 C133 1.480 . S
C136 C137 1.383 . S
C136 C141 1.385 . S
C137 H118 0.947 . S
C137 C136 1.383 . S
C137 C138 1.388 . S
C138 H119 0.946 . S
C138 C137 1.388 . S
C138 C139 1.384 . S
C139 C138 1.384 . S
C139 C140 1.377 . S
C140 H120 0.953 . S
C140 C139 1.377 . S
C140 C141 1.369 . S
C141 H121 0.945 . S
C141 C136 1.385 . S
C141 C140 1.369 . S
C142 C134 1.457 . S
C142 C143 1.372 . S
C142 C147 1.364 . S
C143 H122 0.952 . S
C143 C142 1.372 . S
C143 C144 1.389 . S
C144 H123 0.949 . S
C144 C143 1.389 . S
C144 C145 1.387 . S
C145 C144 1.387 . S
C145 C146 1.372 . S
C146 H124 0.950 . S
C146 C145 1.372 . S
C146 C147 1.379 . S
C147 H125 0.948 . S
C147 C142 1.364 . S
C147 C146 1.379 . S
C148 C117 1.383 . S
C148 C135 1.479 . S
C148 C149 1.398 . S
C149 C114 1.382 . S
C149 H126 0.951 . S
C149 C148 1.398 . S
C150 C151 1.384 . S
C150 H163 0.947 . S
C150 C185 1.382 . S
C151 C150 1.384 . S
C151 C152 1.378 . S
C152 C151 1.378 . S
C152 C153 1.378 . S
C152 H164 0.952 . S
C153 C152 1.378 . S
C153 H165 0.950 . S
C153 C184 1.383 . S
H154 C173 0.947 . S
H155 C174 0.946 . S
H156 C176 0.953 . S
H157 C177 0.945 . S
H158 C179 0.952 . S
H159 C180 0.949 . S
H160 C182 0.950 . S
H161 C183 0.948 . S
H162 C185 0.951 . S
H163 C150 0.947 . S
H164 C152 0.952 . S
H165 C153 0.950 . S
N166 C169 1.382 . S
N166 C171 1.363 . S
N167 C169 1.371 . S
N167 C170 1.372 . S
N168 C170 1.361 . S
N168 C171 1.377 . S
C169 N166 1.382 . S
C169 N167 1.371 . S
C169 C172 1.480 . S
C170 N167 1.372 . S
C170 N168 1.361 . S
C170 C178 1.457 . S
C171 N166 1.363 . S
C171 N168 1.377 . S
C171 C184 1.479 . S
C172 C169 1.480 . S
C172 C173 1.383 . S
C172 C177 1.385 . S
C173 H154 0.947 . S
C173 C172 1.383 . S
C173 C174 1.388 . S
C174 H155 0.946 . S
C174 C173 1.388 . S
C174 C175 1.384 . S
C175 C174 1.384 . S
C175 C176 1.377 . S
C176 H156 0.953 . S
C176 C175 1.377 . S
C176 C177 1.369 . S
C177 H157 0.945 . S
C177 C172 1.385 . S
C177 C176 1.369 . S
C178 C170 1.457 . S
C178 C179 1.372 . S
C178 C183 1.364 . S
C179 H158 0.952 . S
C179 C178 1.372 . S
C179 C180 1.389 . S
C180 H159 0.949 . S
C180 C179 1.389 . S
C180 C181 1.387 . S
C181 C180 1.387 . S
C181 C182 1.372 . S
C182 H160 0.950 . S
C182 C181 1.372 . S
C182 C183 1.379 . S
C183 H161 0.948 . S
C183 C178 1.364 . S
C183 C182 1.379 . S
C184 C153 1.383 . S
C184 C171 1.479 . S
C184 C185 1.398 . S
C185 C150 1.382 . S
C185 H162 0.951 . S
C185 C184 1.398 . S
H186 C187 0.951 . S
C187 H186 0.951 . S
C187 C193 1.265 . S
H188 C193 0.950 . S
H189 C197 0.949 . S
H190 C198 0.950 . S
H191 C199 0.951 . S
H192 C200 0.951 . S
C193 C187 1.265 . S
C193 H188 0.950 . S
C193 C194 1.478 . S
C194 C193 1.478 . S
C194 C195 1.397 . S
C194 C211 1.394 . S
C195 C194 1.397 . S
C195 C196 1.438 . S
C195 C200 1.429 . S
C196 C195 1.438 . S
C196 C197 1.428 . S
C196 C209 1.394 . S
C197 H189 0.949 . S
C197 C196 1.428 . S
C197 C198 1.345 . S
C198 H190 0.950 . S
C198 C197 1.345 . S
C198 C199 1.424 . S
C199 H191 0.951 . S
C199 C198 1.424 . S
C199 C200 1.347 . S
C200 H192 0.951 . S
C200 C195 1.429 . S
C200 C199 1.347 . S
H201 C202 0.951 . S
C202 H201 0.951 . S
C202 C208 1.265 . S
H203 C208 0.950 . S
H204 C212 0.949 . S
H205 C213 0.950 . S
H206 C214 0.951 . S
H207 C215 0.951 . S
C208 C202 1.265 . S
C208 H203 0.950 . S
C208 C209 1.478 . S
C209 C196 1.394 . S
C209 C208 1.478 . S
C209 C210 1.397 . S
C210 C209 1.397 . S
C210 C211 1.438 . S
C210 C215 1.429 1_554 S
C211 C194 1.394 . S
C211 C210 1.438 . S
C211 C212 1.428 1_554 S
C212 H204 0.949 . S
C212 C211 1.428 1_556 S
C212 C213 1.345 . S
C213 H205 0.950 . S
C213 C212 1.345 . S
C213 C214 1.424 . S
C214 H206 0.951 . S
C214 C213 1.424 . S
C214 C215 1.347 . S
C215 H207 0.951 . S
C215 C210 1.429 1_556 S
C215 C214 1.347 . S
H216 C217 0.953 . S
C217 H216 0.953 . S
C217 C223 1.262 1_554 S
H218 C223 0.950 . S
H219 C227 0.949 . S
H220 C228 0.950 . S
H221 C229 0.951 . S
H222 C230 0.951 . S
C223 C217 1.262 1_556 S
C223 H218 0.950 . S
C223 C224 1.478 . S
C224 C223 1.478 . S
C224 C225 1.397 . S
C224 C241 1.394 1_556 S
C225 C224 1.397 . S
C225 C226 1.438 . S
C225 C230 1.429 . S
C226 C225 1.438 . S
C226 C227 1.428 . S
C226 C239 1.394 . S
C227 H219 0.949 . S
C227 C226 1.428 . S
C227 C228 1.345 . S
C228 H220 0.950 . S
C228 C227 1.345 . S
C228 C229 1.424 . S
C229 H221 0.951 . S
C229 C228 1.424 . S
C229 C230 1.347 . S
C230 H222 0.951 . S
C230 C225 1.429 . S
C230 C229 1.347 . S
H231 C232 0.951 . S
C232 H231 0.951 . S
C232 C238 1.265 . S
H233 C238 0.950 . S
H234 C242 0.949 . S
H235 C243 0.950 . S
H236 C244 0.951 . S
H237 C245 0.951 . S
C238 C232 1.265 . S
C238 H233 0.950 . S
C238 C239 1.478 . S
C239 C226 1.394 . S
C239 C238 1.478 . S
C239 C240 1.397 1_556 S
C240 C239 1.397 1_554 S
C240 C241 1.438 . S
C240 C245 1.429 . S
C241 C224 1.394 1_554 S
C241 C240 1.438 . S
C241 C242 1.428 . S
C242 H234 0.949 . S
C242 C241 1.428 . S
C242 C243 1.345 . S
C243 H235 0.950 . S
C243 C242 1.345 . S
C243 C244 1.424 . S
C244 H236 0.951 . S
C244 C243 1.424 . S
C244 C245 1.347 . S
C245 H237 0.951 . S
C245 C240 1.429 . S
C245 C244 1.347 . S
H246 C247 0.951 . S
C247 H246 0.951 . S
C247 C253 1.265 . S
H248 C253 0.950 . S
H249 C257 0.949 . S
H250 C258 0.950 . S
H251 C259 0.951 . S
H252 C260 0.951 . S
C253 C247 1.265 . S
C253 H248 0.950 . S
C253 C254 1.478 . S
C254 C253 1.478 . S
C254 C255 1.397 . S
C254 C271 1.394 . S
C255 C254 1.397 . S
C255 C256 1.438 . S
C255 C260 1.429 1_554 S
C256 C255 1.438 . S
C256 C257 1.428 . S
C256 C269 1.394 . S
C257 H249 0.949 . S
C257 C256 1.428 . S
C257 C258 1.345 1_554 S
C258 H250 0.950 . S
C258 C257 1.345 1_556 S
C258 C259 1.424 . S
C259 H251 0.951 . S
C259 C258 1.424 . S
C259 C260 1.347 . S
C260 H252 0.951 . S
C260 C255 1.429 1_556 S
C260 C259 1.347 . S
H261 C262 0.951 . S
C262 H261 0.951 . S
C262 C268 1.265 . S
H263 C268 0.950 . S
H264 C272 0.949 . S
H265 C273 0.950 . S
H266 C274 0.951 . S
H267 C275 0.951 . S
C268 C262 1.265 . S
C268 H263 0.950 . S
C268 C269 1.478 . S
C269 C256 1.394 . S
C269 C268 1.478 . S
C269 C270 1.397 . S
C270 C269 1.397 . S
C270 C271 1.438 . S
C270 C275 1.429 . S
C271 C254 1.394 . S
C271 C270 1.438 . S
C271 C272 1.428 . S
C272 H264 0.949 . S
C272 C271 1.428 . S
C272 C273 1.345 . S
C273 H265 0.950 . S
C273 C272 1.345 . S
C273 C274 1.424 . S
C274 H266 0.951 . S
C274 C273 1.424 . S
C274 C275 1.347 . S
C275 H267 0.951 . S
C275 C270 1.429 . S
C275 C274 1.347 . S
H276 C277 0.951 . S
C277 H276 0.951 . S
C277 C283 1.265 1_554 S
H278 C283 0.950 . S
H279 C287 0.949 . S
H280 C288 0.950 . S
H281 C289 0.951 . S
H282 C290 0.951 . S
C283 C277 1.265 1_556 S
C283 H278 0.950 . S
C283 C284 1.478 . S
C284 C283 1.478 . S
C284 C285 1.397 . S
C284 C301 1.394 1_556 S
C285 C284 1.397 . S
C285 C286 1.438 . S
C285 C290 1.429 . S
C286 C285 1.438 . S
C286 C287 1.428 . S
C286 C299 1.394 . S
C287 H279 0.949 . S
C287 C286 1.428 . S
C287 C288 1.345 . S
C288 H280 0.950 . S
C288 C287 1.345 . S
C288 C289 1.424 . S
C289 H281 0.951 . S
C289 C288 1.424 . S
C289 C290 1.347 . S
C290 H282 0.951 . S
C290 C285 1.429 . S
C290 C289 1.347 . S
H291 C292 0.951 . S
C292 H291 0.951 . S
C292 C298 1.265 . S
H293 C298 0.950 . S
H294 C302 0.949 . S
H295 C303 0.950 . S
H296 C304 0.951 . S
H297 C305 0.951 . S
C298 C292 1.265 . S
C298 H293 0.950 . S
C298 C299 1.478 . S
C299 C286 1.394 . S
C299 C298 1.478 . S
C299 C300 1.397 1_556 S
C300 C299 1.397 1_554 S
C300 C301 1.438 . S
C300 C305 1.429 . S
C301 C284 1.394 1_554 S
C301 C300 1.438 . S
C301 C302 1.428 . S
C302 H294 0.949 . S
C302 C301 1.428 . S
C302 C303 1.345 . S
C303 H295 0.950 . S
C303 C302 1.345 . S
C303 C304 1.424 . S
C304 H296 0.951 . S
C304 C303 1.424 . S
C304 C305 1.347 . S
C305 H297 0.951 . S
C305 C300 1.429 . S
C305 C304 1.347 . S
H306 C307 0.951 . S
C307 H306 0.951 . S
C307 C313 1.265 . S
H308 C313 0.950 . S
H309 C317 0.949 . S
H310 C318 0.950 . S
H311 C319 0.951 . S
H312 C320 0.951 . S
C313 C307 1.265 . S
C313 H308 0.950 . S
C313 C314 1.478 . S
C314 C313 1.478 . S
C314 C315 1.397 . S
C314 C331 1.394 . S
C315 C314 1.397 . S
C315 C316 1.438 . S
C315 C320 1.429 . S
C316 C315 1.438 . S
C316 C317 1.428 . S
C316 C329 1.394 . S
C317 H309 0.949 . S
C317 C316 1.428 . S
C317 C318 1.345 . S
C318 H310 0.950 . S
C318 C317 1.345 . S
C318 C319 1.424 . S
C319 H311 0.951 . S
C319 C318 1.424 . S
C319 C320 1.347 . S
C320 H312 0.951 . S
C320 C315 1.429 . S
C320 C319 1.347 . S
H321 C322 0.951 . S
C322 H321 0.951 . S
C322 C328 1.265 . S
H323 C328 0.950 . S
H324 C332 0.949 . S
H325 C333 0.950 . S
H326 C334 0.951 . S
H327 C335 0.951 . S
C328 C322 1.265 . S
C328 H323 0.950 . S
C328 C329 1.478 . S
C329 C316 1.394 . S
C329 C328 1.478 . S
C329 C330 1.397 . S
C330 C329 1.397 . S
C330 C331 1.438 . S
C330 C335 1.429 . S
C331 C314 1.394 . S
C331 C330 1.438 . S
C331 C332 1.428 . S
C332 H324 0.949 . S
C332 C331 1.428 . S
C332 C333 1.345 . S
C333 H325 0.950 . S
C333 C332 1.345 . S
C333 C334 1.424 . S
C334 H326 0.951 . S
C334 C333 1.424 . S
C334 C335 1.347 . S
C335 H327 0.951 . S
C335 C330 1.429 . S
C335 C334 1.347 . S
H336 C337 0.951 . S
C337 H336 0.951 . S
C337 C343 1.265 . S
H338 C343 0.950 . S
H339 C347 0.949 . S
H340 C348 0.950 . S
H341 C349 0.951 . S
H342 C350 0.951 . S
C343 C337 1.265 . S
C343 H338 0.950 . S
C343 C344 1.478 . S
C344 C343 1.478 . S
C344 C345 1.397 . S
C344 C361 1.394 . S
C345 C344 1.397 . S
C345 C346 1.438 . S
C345 C350 1.429 . S
C346 C345 1.438 . S
C346 C347 1.428 . S
C346 C359 1.394 . S
C347 H339 0.949 . S
C347 C346 1.428 . S
C347 C348 1.345 . S
C348 H340 0.950 . S
C348 C347 1.345 . S
C348 C349 1.424 . S
C349 H341 0.951 . S
C349 C348 1.424 . S
C349 C350 1.347 . S
C350 H342 0.951 . S
C350 C345 1.429 . S
C350 C349 1.347 . S
H351 C352 0.951 . S
C352 H351 0.951 . S
C352 C358 1.265 . S
H353 C358 0.950 . S
H354 C362 0.949 . S
H355 C363 0.950 . S
H356 C364 0.951 . S
H357 C365 0.951 . S
C358 C352 1.265 . S
C358 H353 0.950 . S
C358 C359 1.478 . S
C359 C346 1.394 . S
C359 C358 1.478 . S
C359 C360 1.397 . S
C360 C359 1.397 . S
C360 C361 1.438 . S
C360 C365 1.429 . S
C361 C344 1.394 . S
C361 C360 1.438 . S
C361 C362 1.428 . S
C362 H354 0.949 . S
C362 C361 1.428 . S
C362 C363 1.345 . S
C363 H355 0.950 . S
C363 C362 1.345 . S
C363 C364 1.424 . S
C364 H356 0.951 . S
C364 C363 1.424 . S
C364 C365 1.347 . S
C365 H357 0.951 . S
C365 C360 1.429 . S
C365 C364 1.347 . S
H366 C367 0.951 . S
C367 H366 0.951 . S
C367 C373 1.265 . S
H368 C373 0.950 . S
H369 C377 0.949 . S
H370 C378 0.950 . S
H371 C379 0.951 . S
H372 C380 0.951 . S
C373 C367 1.265 . S
C373 H368 0.950 . S
C373 C374 1.478 . S
C374 C373 1.478 . S
C374 C375 1.397 . S
C374 C391 1.394 . S
C375 C374 1.397 . S
C375 C376 1.438 . S
C375 C380 1.429 . S
C376 C375 1.438 . S
C376 C377 1.428 . S
C376 C389 1.394 . S
C377 H369 0.949 . S
C377 C376 1.428 . S
C377 C378 1.345 . S
C378 H370 0.950 . S
C378 C377 1.345 . S
C378 C379 1.424 . S
C379 H371 0.951 . S
C379 C378 1.424 . S
C379 C380 1.347 . S
C380 H372 0.951 . S
C380 C375 1.429 . S
C380 C379 1.347 . S
H381 C382 0.951 . S
C382 H381 0.951 . S
C382 C388 1.265 . S
H383 C388 0.950 . S
H384 C392 0.949 . S
H385 C393 0.950 . S
H386 C394 0.951 . S
H387 C395 0.951 . S
C388 C382 1.265 . S
C388 H383 0.950 . S
C388 C389 1.478 . S
C389 C376 1.394 . S
C389 C388 1.478 . S
C389 C390 1.397 . S
C390 C389 1.397 . S
C390 C391 1.438 . S
C390 C395 1.429 . S
C391 C374 1.394 . S
C391 C390 1.438 . S
C391 C392 1.428 . S
C392 H384 0.949 . S
C392 C391 1.428 . S
C392 C393 1.345 . S
C393 H385 0.950 . S
C393 C392 1.345 . S
C393 C394 1.424 . S
C394 H386 0.951 . S
C394 C393 1.424 . S
C394 C395 1.347 . S
C395 H387 0.951 . S
C395 C390 1.429 . S
C395 C394 1.347 . S
H396 C397 0.951 . S
C397 H396 0.951 . S
C397 C403 1.265 . S
H398 C403 0.950 . S
H399 C407 0.949 . S
H400 C408 0.950 . S
H401 C409 0.951 . S
H402 C410 0.951 . S
C403 C397 1.265 . S
C403 H398 0.950 . S
C403 C404 1.478 . S
C404 C403 1.478 . S
C404 C405 1.397 . S
C404 C421 1.394 . S
C405 C404 1.397 . S
C405 C406 1.438 . S
C405 C410 1.429 . S
C406 C405 1.438 . S
C406 C407 1.428 . S
C406 C419 1.394 . S
C407 H399 0.949 . S
C407 C406 1.428 . S
C407 C408 1.345 . S
C408 H400 0.950 . S
C408 C407 1.345 . S
C408 C409 1.424 . S
C409 H401 0.951 . S
C409 C408 1.424 . S
C409 C410 1.347 . S
C410 H402 0.951 . S
C410 C405 1.429 . S
C410 C409 1.347 . S
H411 C412 0.951 . S
C412 H411 0.951 . S
C412 C418 1.265 . S
H413 C418 0.950 . S
H414 C422 0.949 . S
H415 C423 0.950 . S
H416 C424 0.951 . S
H417 C425 0.951 . S
C418 C412 1.265 . S
C418 H413 0.950 . S
C418 C419 1.478 . S
C419 C406 1.394 . S
C419 C418 1.478 . S
C419 C420 1.397 . S
C420 C419 1.397 . S
C420 C421 1.438 . S
C420 C425 1.429 . S
C421 C404 1.394 . S
C421 C420 1.438 . S
C421 C422 1.428 . S
C422 H414 0.949 . S
C422 C421 1.428 . S
C422 C423 1.345 . S
C423 H415 0.950 . S
C423 C422 1.345 . S
C423 C424 1.424 . S
C424 H416 0.951 . S
C424 C423 1.424 . S
C424 C425 1.347 . S
C425 H417 0.951 . S
C425 C420 1.429 . S
C425 C424 1.347 . S
H426 C427 0.951 . S
C427 H426 0.951 . S
C427 C433 1.266 . S
H428 C433 0.949 1_545 S
H429 C437 0.949 . S
H430 C438 0.950 . S
H431 C439 0.951 . S
H432 C440 0.951 . S
C433 C427 1.266 . S
C433 H428 0.949 1_565 S
C433 C434 1.478 1_565 S
C434 C433 1.478 1_545 S
C434 C435 1.397 . S
C434 C451 1.394 1_545 S
C435 C434 1.397 . S
C435 C436 1.438 . S
C435 C440 1.429 . S
C436 C435 1.438 . S
C436 C437 1.428 . S
C436 C449 1.394 . S
C437 H429 0.949 . S
C437 C436 1.428 . S
C437 C438 1.345 . S
C438 H430 0.950 . S
C438 C437 1.345 . S
C438 C439 1.424 . S
C439 H431 0.951 . S
C439 C438 1.424 . S
C439 C440 1.347 . S
C440 H432 0.951 . S
C440 C435 1.429 . S
C440 C439 1.347 . S
H441 C442 0.951 . S
C442 H441 0.951 . S
C442 C448 1.265 . S
H443 C448 0.950 . S
H444 C452 0.949 . S
H445 C453 0.950 . S
H446 C454 0.951 . S
H447 C455 0.951 . S
C448 C442 1.265 . S
C448 H443 0.950 . S
C448 C449 1.478 . S
C449 C436 1.394 . S
C449 C448 1.478 . S
C449 C450 1.397 1_545 S
C450 C449 1.397 1_565 S
C450 C451 1.438 . S
C450 C455 1.429 . S
C451 C434 1.394 1_565 S
C451 C450 1.438 . S
C451 C452 1.428 . S
C452 H444 0.949 . S
C452 C451 1.428 . S
C452 C453 1.345 . S
C453 H445 0.950 . S
C453 C452 1.345 . S
C453 C454 1.424 . S
C454 H446 0.951 . S
C454 C453 1.424 . S
C454 C455 1.347 . S
C455 H447 0.951 . S
C455 C450 1.429 . S
C455 C454 1.347 . S
H456 C457 0.951 . S
C457 H456 0.951 . S
C457 C463 1.265 1_455 S
H458 C463 0.950 1_545 S
H459 C467 0.949 1_455 S
H460 C468 0.950 . S
H461 C469 0.951 . S
H462 C470 0.951 . S
C463 C457 1.265 1_655 S
C463 H458 0.950 1_565 S
C463 C464 1.478 1_665 S
C464 C463 1.478 1_445 S
C464 C465 1.396 1_455 S
C464 C481 1.394 1_545 S
C465 C464 1.396 1_655 S
C465 C466 1.437 1_655 S
C465 C470 1.430 . S
C466 C465 1.437 1_455 S
C466 C467 1.428 1_455 S
C466 C479 1.394 . S
C467 H459 0.949 1_655 S
C467 C466 1.428 1_655 S
C467 C468 1.344 . S
C468 H460 0.950 . S
C468 C467 1.344 . S
C468 C469 1.424 . S
C469 H461 0.951 . S
C469 C468 1.424 . S
C469 C470 1.347 . S
C470 H462 0.951 . S
C470 C465 1.430 . S
C470 C469 1.347 . S
H471 C472 0.950 . S
C472 H471 0.950 . S
C472 C478 1.265 1_655 S
H473 C478 0.950 . S
H474 C482 0.949 . S
H475 C483 0.950 . S
H476 C484 0.951 . S
H477 C485 0.951 . S
C478 C472 1.265 1_455 S
C478 H473 0.950 . S
C478 C479 1.478 . S
C479 C466 1.394 . S
C479 C478 1.478 . S
C479 C480 1.397 1_545 S
C480 C479 1.397 1_565 S
C480 C481 1.438 . S
C480 C485 1.429 . S
C481 C464 1.394 1_565 S
C481 C480 1.438 . S
C481 C482 1.428 . S
C482 H474 0.949 . S
C482 C481 1.428 . S
C482 C483 1.345 . S
C483 H475 0.950 . S
C483 C482 1.345 . S
C483 C484 1.424 . S
C484 H476 0.951 . S
C484 C483 1.424 . S
C484 C485 1.347 . S
C485 H477 0.951 . S
C485 C480 1.429 . S
C485 C484 1.347 . S
H486 C487 0.951 . S
C487 H486 0.951 . S
C487 C493 1.265 . S
H488 C493 0.950 . S
H489 C497 0.949 . S
H490 C498 0.950 . S
H491 C499 0.951 . S
H492 C500 0.951 . S
C493 C487 1.265 . S
C493 H488 0.950 . S
C493 C494 1.478 . S
C494 C493 1.478 . S
C494 C495 1.397 . S
C494 C511 1.394 . S
C495 C494 1.397 . S
C495 C496 1.438 . S
C495 C500 1.429 . S
C496 C495 1.438 . S
C496 C497 1.428 . S
C496 C509 1.394 . S
C497 H489 0.949 . S
C497 C496 1.428 . S
C497 C498 1.345 . S
C498 H490 0.950 . S
C498 C497 1.345 . S
C498 C499 1.424 . S
C499 H491 0.951 . S
C499 C498 1.424 . S
C499 C500 1.347 . S
C500 H492 0.951 . S
C500 C495 1.429 . S
C500 C499 1.347 . S
H501 C502 0.951 . S
C502 H501 0.951 . S
C502 C508 1.265 . S
H503 C508 0.950 . S
H504 C512 0.949 . S
H505 C513 0.950 . S
H506 C514 0.951 . S
H507 C515 0.951 . S
C508 C502 1.265 . S
C508 H503 0.950 . S
C508 C509 1.478 . S
C509 C496 1.394 . S
C509 C508 1.478 . S
C509 C510 1.397 . S
C510 C509 1.397 . S
C510 C511 1.438 . S
C510 C515 1.429 . S
C511 C494 1.394 . S
C511 C510 1.438 . S
C511 C512 1.428 . S
C512 H504 0.949 . S
C512 C511 1.428 . S
C512 C513 1.345 . S
C513 H505 0.950 . S
C513 C512 1.345 . S
C513 C514 1.424 . S
C514 H506 0.951 . S
C514 C513 1.424 . S
C514 C515 1.347 . S
C515 H507 0.951 . S
C515 C510 1.429 . S
C515 C514 1.347 . S
H516 C517 0.951 . S
C517 H516 0.951 . S
C517 C523 1.265 . S
H518 C523 0.950 . S
H519 C527 0.949 . S
H520 C528 0.950 . S
H521 C529 0.951 . S
H522 C530 0.951 . S
C523 C517 1.265 . S
C523 H518 0.950 . S
C523 C524 1.478 . S
C524 C523 1.478 . S
C524 C525 1.397 . S
C524 C541 1.394 . S
C525 C524 1.397 . S
C525 C526 1.438 . S
C525 C530 1.429 . S
C526 C525 1.438 . S
C526 C527 1.428 . S
C526 C539 1.394 . S
C527 H519 0.949 . S
C527 C526 1.428 . S
C527 C528 1.345 . S
C528 H520 0.950 . S
C528 C527 1.345 . S
C528 C529 1.424 . S
C529 H521 0.951 . S
C529 C528 1.424 . S
C529 C530 1.347 . S
C530 H522 0.951 . S
C530 C525 1.429 . S
C530 C529 1.347 . S
H531 C532 0.951 . S
C532 H531 0.951 . S
C532 C538 1.265 . S
H533 C538 0.950 . S
H534 C542 0.949 . S
H535 C543 0.950 . S
H536 C544 0.951 . S
H537 C545 0.951 . S
C538 C532 1.265 . S
C538 H533 0.950 . S
C538 C539 1.478 . S
C539 C526 1.394 . S
C539 C538 1.478 . S
C539 C540 1.397 . S
C540 C539 1.397 . S
C540 C541 1.438 . S
C540 C545 1.429 . S
C541 C524 1.394 . S
C541 C540 1.438 . S
C541 C542 1.428 . S
C542 H534 0.949 . S
C542 C541 1.428 . S
C542 C543 1.345 . S
C543 H535 0.950 . S
C543 C542 1.345 . S
C543 C544 1.424 . S
C544 H536 0.951 . S
C544 C543 1.424 . S
C544 C545 1.347 . S
C545 H537 0.951 . S
C545 C540 1.429 . S
C545 C544 1.347 . S
C202 C151 1.218 . S
C187 C3 1.055 . S
C217 C4 1.439 . S
C232 C115 1.599 . S
C247 C19 1.575 . S
C262 C175 1.629 . S
C277 C7 1.032 1_554 S
C292 C139 1.193 . S
C307 C37 1.025 . S
C322 C79 1.232 . S
C337 C28 1.527 . S
C352 C43 1.601 . S
C382 C103 1.631 . S
C367 C41 1.577 . S
C412 C67 1.233 . S
C397 C25 1.170 . S
C427 C20 1.366 . S
C442 C73 1.450 . S
C457 C16 1.410 . S
C472 C109 1.493 1_655 S
C502 C145 1.449 . S
C487 C40 1.365 . S
C517 C24 1.402 . S
C532 C181 1.487 . S
