# Generated by pormake.
# Topology pyr, (3,6)-cn, num edge types: 1
# Building blocks:
#     Node 0, Type 0, BuildingBlock: QEWDON_clean_linker_0, # of connection points: 3
#     Node 1, Type 0, BuildingBlock: QEWDON_clean_linker_0, # of connection points: 3
#     Node 2, Type 0, BuildingBlock: QEWDON_clean_linker_0, # of connection points: 3
#     Node 3, Type 0, BuildingBlock: QEWDON_clean_linker_0, # of connection points: 3
#     Node 4, Type 0, BuildingBlock: QEWDON_clean_linker_0, # of connection points: 3
#     Node 5, Type 0, BuildingBlock: QEWDON_clean_linker_0, # of connection points: 3
#     Node 6, Type 0, BuildingBlock: QEWDON_clean_linker_0, # of connection points: 3
#     Node 7, Type 0, BuildingBlock: QEWDON_clean_linker_0, # of connection points: 3
#     Node 8, Type 1, BuildingBlock: MIDCAF_clean_sbu_0, # of connection points: 6
#     Node 9, Type 1, BuildingBlock: MIDCAF_clean_sbu_0, # of connection points: 6
#     Node 10, Type 1, BuildingBlock: MIDCAF_clean_sbu_0, # of connection points: 6
#     Node 11, Type 1, BuildingBlock: MIDCAF_clean_sbu_0, # of connection points: 6
#     Edge 12, Type (0, 1), BuildingBlock: XUDNAN_clean_linker_2, # of connection points: 2
#     Edge 13, Type (0, 1), BuildingBlock: XUDNAN_clean_linker_2, # of connection points: 2
#     Edge 14, Type (0, 1), BuildingBlock: XUDNAN_clean_linker_2, # of connection points: 2
#     Edge 15, Type (0, 1), BuildingBlock: XUDNAN_clean_linker_2, # of connection points: 2
#     Edge 16, Type (0, 1), BuildingBlock: XUDNAN_clean_linker_2, # of connection points: 2
#     Edge 17, Type (0, 1), BuildingBlock: XUDNAN_clean_linker_2, # of connection points: 2
#     Edge 18, Type (0, 1), BuildingBlock: XUDNAN_clean_linker_2, # of connection points: 2
#     Edge 19, Type (0, 1), BuildingBlock: XUDNAN_clean_linker_2, # of connection points: 2
#     Edge 20, Type (0, 1), BuildingBlock: XUDNAN_clean_linker_2, # of connection points: 2
#     Edge 21, Type (0, 1), BuildingBlock: XUDNAN_clean_linker_2, # of connection points: 2
#     Edge 22, Type (0, 1), BuildingBlock: XUDNAN_clean_linker_2, # of connection points: 2
#     Edge 23, Type (0, 1), BuildingBlock: XUDNAN_clean_linker_2, # of connection points: 2
#     Edge 24, Type (0, 1), BuildingBlock: XUDNAN_clean_linker_2, # of connection points: 2
#     Edge 25, Type (0, 1), BuildingBlock: XUDNAN_clean_linker_2, # of connection points: 2
#     Edge 26, Type (0, 1), BuildingBlock: XUDNAN_clean_linker_2, # of connection points: 2
#     Edge 27, Type (0, 1), BuildingBlock: XUDNAN_clean_linker_2, # of connection points: 2
#     Edge 28, Type (0, 1), BuildingBlock: XUDNAN_clean_linker_2, # of connection points: 2
#     Edge 29, Type (0, 1), BuildingBlock: XUDNAN_clean_linker_2, # of connection points: 2
#     Edge 30, Type (0, 1), BuildingBlock: XUDNAN_clean_linker_2, # of connection points: 2
#     Edge 31, Type (0, 1), BuildingBlock: XUDNAN_clean_linker_2, # of connection points: 2
#     Edge 32, Type (0, 1), BuildingBlock: XUDNAN_clean_linker_2, # of connection points: 2
#     Edge 33, Type (0, 1), BuildingBlock: XUDNAN_clean_linker_2, # of connection points: 2
#     Edge 34, Type (0, 1), BuildingBlock: XUDNAN_clean_linker_2, # of connection points: 2
#     Edge 35, Type (0, 1), BuildingBlock: XUDNAN_clean_linker_2, # of connection points: 2
# Relax obj value: 0.146
# Max RMSD: 0.265
# Mean RMSD: 0.191
data_MOF--net-pyr--node1-MIDCAF_clean_sbu_0--node2-QEWDON_clean_linker_0--edge1-XUDNAN_clean_linker_2
_symmetry_space_group_name_H-M    P1
_symmetry_Int_Tables_number       1
_symmetry_cell_setting            triclinic
loop_
_symmetry_equiv_pos_as_xyz
'x, y, z'
_cell_length_a     35.347841
_cell_length_b     35.698356
_cell_length_c     38.214397
_cell_angle_alpha  90.144029
_cell_angle_beta   90.708751
_cell_angle_gamma 100.8636
loop_
_atom_site_label
_atom_site_type_symbol
_atom_site_fract_x
_atom_site_fract_y
_atom_site_fract_z
_atom_type_partial_charge
H0 H 0.28638 0.27101 0.21553 0.0
C1 C 0.26634 0.25893 0.2356 0.0
C2 C 0.26916 0.22348 0.25039 0.0
C3 C 0.23966 0.28029 0.24812 0.0
H4 H 0.24784 0.18301 0.29041 0.0
C5 C 0.24473 0.20962 0.27824 0.0
C6 C 0.21748 0.23031 0.29122 0.0
C7 C 0.2148 0.26543 0.27524 0.0
C8 C 0.24355 0.32106 0.2381 0.0
H9 H 0.19464 0.2823 0.28487 0.0
C10 C 0.21452 0.33545 0.21952 0.0
C11 C 0.2195 0.37489 0.21168 0.0
C12 C 0.27724 0.34626 0.24854 0.0
H13 H 0.29978 0.33591 0.26292 0.0
C14 C 0.28206 0.38502 0.24112 0.0
H15 H 0.18845 0.31619 0.21126 0.0
C16 C 0.25352 0.39927 0.22291 0.0
H17 H 0.2585 0.42943 0.21691 0.0
H18 H 0.30817 0.40413 0.24941 0.0
H19 H 0.31446 0.8814 0.83627 0.0
C20 C 0.32728 0.86346 0.81882 0.0
C21 C 0.36364 0.85482 0.8269 0.0
C22 C 0.30595 0.84733 0.7896 0.0
H23 H 0.40714 0.82399 0.81011 0.0
C24 C 0.37877 0.82979 0.80441 0.0
C25 C 0.35758 0.81284 0.77469 0.0
C26 C 0.32079 0.82179 0.76823 0.0
C27 C 0.26538 0.85191 0.78505 0.0
H28 H 0.30229 0.80765 0.74752 0.0
C29 C 0.25431 0.87806 0.76104 0.0
C30 C 0.21531 0.88189 0.75843 0.0
C31 C 0.23731 0.82957 0.80569 0.0
H32 H 0.2453 0.80933 0.82417 0.0
C33 C 0.1988 0.83309 0.80276 0.0
H34 H 0.27581 0.89563 0.74512 0.0
C35 C 0.18786 0.85915 0.77941 0.0
H36 H 0.15783 0.86174 0.7778 0.0
H37 H 0.17737 0.81573 0.81882 0.0
H38 H 0.72704 0.3939 0.86299 0.0
C39 C 0.72457 0.36957 0.88017 0.0
C40 C 0.75436 0.36721 0.90456 0.0
C41 C 0.69064 0.34165 0.87896 0.0
H42 H 0.77105 0.3336 0.94753 0.0
C43 C 0.74991 0.33548 0.92719 0.0
C44 C 0.71683 0.30694 0.92515 0.0
C45 C 0.68773 0.3099 0.90086 0.0
C46 C 0.65667 0.34747 0.85771 0.0
H47 H 0.66205 0.28782 0.89999 0.0
C48 C 0.66126 0.36503 0.82475 0.0
C49 C 0.62947 0.37442 0.80651 0.0
C50 C 0.61938 0.33767 0.87155 0.0
H51 H 0.61471 0.32494 0.8972 0.0
C52 C 0.58763 0.34558 0.8531 0.0
H53 H 0.68968 0.37174 0.81349 0.0
C54 C 0.59256 0.36422 0.82106 0.0
H55 H 0.56748 0.37179 0.80846 0.0
H56 H 0.55919 0.33834 0.86423 0.0
H57 H 0.81123 0.82231 0.31154 0.0
C58 C 0.78762 0.80887 0.32778 0.0
C59 C 0.78521 0.82179 0.36224 0.0
C60 C 0.75958 0.77876 0.31431 0.0
H61 H 0.75212 0.81547 0.40945 0.0
C62 C 0.75427 0.80509 0.38297 0.0
C63 C 0.72571 0.77567 0.3698 0.0
C64 C 0.72882 0.76208 0.33574 0.0
C65 C 0.76207 0.7647 0.27795 0.0
H66 H 0.707 0.73887 0.32584 0.0
C67 C 0.79749 0.75921 0.26443 0.0
C68 C 0.79952 0.7433 0.23082 0.0
C69 C 0.7287 0.75557 0.25691 0.0
H70 H 0.70114 0.76012 0.26632 0.0
C71 C 0.73049 0.74044 0.22347 0.0
H72 H 0.82329 0.76663 0.28048 0.0
C73 C 0.76543 0.73394 0.2106 0.0
H74 H 0.76532 0.72064 0.18512 0.0
H75 H 0.70454 0.73314 0.20763 0.0
H76 H 0.88054 0.90836 0.94177 0.0
C77 C 0.90092 0.91763 0.92123 0.0
C78 C 0.93168 0.89797 0.91605 0.0
C79 C 0.89573 0.94798 0.89914 0.0
H80 H 0.97931 0.89261 0.88216 0.0
C81 C 0.95621 0.9079 0.88718 0.0
C82 C 0.95185 0.93836 0.86522 0.0
C83 C 0.92303 0.95911 0.87278 0.0
C84 C 0.86145 0.96745 0.90136 0.0
H85 H 0.92106 0.9835 0.8567 0.0
C86 C 0.84028 0.96904 0.93251 0.0
C87 C 0.80914 0.98874 0.93289 0.0
C88 C 0.84905 0.98455 0.87094 0.0
H89 H 0.86142 0.98162 0.8456 0.0
C90 C 0.81965 0.00539 0.87206 0.0
H91 H 0.84733 0.95492 0.95607 0.0
C92 C 0.80005 0.00782 0.90288 0.0
H93 H 0.77611 0.02287 0.90277 0.0
H94 H 0.81121 0.01876 0.84857 0.0
H95 H 0.6979 0.18317 0.48786 0.0
C96 C 0.68345 0.17463 0.46313 0.0
C97 C 0.70016 0.15271 0.43912 0.0
C98 C 0.64703 0.18386 0.45645 0.0
H99 H 0.69125 0.12199 0.39003 0.0
C100 C 0.67976 0.14039 0.40803 0.0
C101 C 0.64326 0.14917 0.40094 0.0
C102 C 0.6273 0.17145 0.42504 0.0
C103 C 0.6257 0.19679 0.48592 0.0
H104 H 0.5982 0.17625 0.42085 0.0
C105 C 0.62295 0.2354 0.49142 0.0
C106 C 0.60195 0.24563 0.52019 0.0
C107 C 0.60779 0.16891 0.50923 0.0
H108 H 0.60965 0.13921 0.50544 0.0
C109 C 0.58745 0.17889 0.53761 0.0
H110 H 0.63659 0.25702 0.47339 0.0
C111 C 0.58458 0.2168 0.54313 0.0
H112 H 0.569 0.22361 0.56579 0.0
H113 H 0.57391 0.15712 0.55551 0.0
H114 H 0.48401 0.67649 0.16615 0.0
C115 C 0.45353 0.66421 0.16452 0.0
C116 C 0.4279 0.68452 0.14846 0.0
C117 C 0.43982 0.62843 0.17927 0.0
H118 H 0.369 0.68416 0.13388 0.0
C119 C 0.38859 0.6687 0.14712 0.0
C120 C 0.37451 0.63274 0.16164 0.0
C121 C 0.40039 0.61252 0.17763 0.0
C122 C 0.46683 0.60845 0.19748 0.0
H123 H 0.38991 0.58486 0.1892 0.0
C124 C 0.47473 0.61536 0.23317 0.0
C125 C 0.50118 0.59705 0.25082 0.0
C126 C 0.48549 0.58336 0.17914 0.0
H127 H 0.47972 0.57804 0.15148 0.0
C128 C 0.51189 0.56514 0.19646 0.0
H129 H 0.45974 0.63449 0.24721 0.0
C130 C 0.51972 0.57186 0.2321 0.0
H131 H 0.5404 0.55749 0.24497 0.0
H132 H 0.52634 0.54578 0.18225 0.0
H133 H 0.14117 0.47869 0.70008 0.0
C134 C 0.13731 0.45887 0.67824 0.0
C135 C 0.16472 0.46352 0.65152 0.0
C136 C 0.1062 0.42772 0.67783 0.0
H137 H 0.18267 0.43863 0.60428 0.0
C138 C 0.16078 0.43655 0.62417 0.0
C139 C 0.12986 0.40558 0.6233 0.0
C140 C 0.10231 0.40185 0.6498 0.0
C141 C 0.08054 0.41991 0.70853 0.0
H142 H 0.07881 0.37748 0.64961 0.0
C143 C 0.06985 0.45012 0.72713 0.0
C144 C 0.05239 0.44419 0.76012 0.0
C145 C 0.06971 0.38258 0.72137 0.0
H146 H 0.07779 0.35856 0.708 0.0
C147 C 0.04995 0.37597 0.75274 0.0
H148 H 0.07643 0.47846 0.71614 0.0
C149 C 0.04209 0.40647 0.77242 0.0
H150 H 0.02944 0.40023 0.79785 0.0
H151 H 0.04231 0.34721 0.76269 0.0
Zn152 Zn 0.98322 0.09986 0.59326 0.0
Zn153 Zn 0.05247 0.01579 0.51697 0.0
Zn154 Zn 0.01967 0.06278 0.55079 0.0
C155 C 0.07958 0.09011 0.48964 0.0
C156 C 0.97469 0.99775 0.50054 0.0
O157 O 0.02099 0.04058 0.60651 0.0
O158 O 0.98718 0.07397 0.63828 0.0
C159 C 0.04461 0.15121 0.5614 0.0
O160 O 0.06293 0.09986 0.51725 0.0
O161 O 0.07756 0.0551 0.48282 0.0
O162 O 0.00367 0.98182 0.50165 0.0
O163 O 0.97591 0.03044 0.51527 0.0
O164 O 0.01857 0.14884 0.58407 0.0
O165 O 0.04993 0.12148 0.54453 0.0
O166 O 0.95872 0.06011 0.53058 0.0
O167 O 0.93247 0.09304 0.56948 0.0
C168 C 0.93002 0.07495 0.5409 0.0
O169 O 0.04985 0.02815 0.58754 0.0
O170 O 0.08473 0.99782 0.5539 0.0
C171 C 0.00619 0.04752 0.63615 0.0
C172 C 0.07573 0.00714 0.5841 0.0
Zn173 Zn 0.48275 0.08077 0.06205 0.0
Zn174 Zn 0.58051 0.99776 0.15116 0.0
Zn175 Zn 0.51678 0.04292 0.10182 0.0
C176 C 0.61324 0.03965 0.09241 0.0
C177 C 0.51363 0.95182 0.10974 0.0
O178 O 0.48036 0.0779 0.13362 0.0
O179 O 0.44456 0.09782 0.09255 0.0
C180 C 0.56091 0.10954 0.0554 0.0
O181 O 0.57922 0.04737 0.08648 0.0
O182 O 0.62094 0.02227 0.11962 0.0
O183 O 0.54377 0.95494 0.12881 0.0
O184 O 0.50002 0.98069 0.0982 0.0
O185 O 0.52901 0.11964 0.04996 0.0
O186 O 0.56211 0.07861 0.07209 0.0
O187 O 0.48037 0.9982 0.06761 0.0
O188 O 0.46459 0.03813 0.0286 0.0
C189 C 0.46508 0.00422 0.03773 0.0
O190 O 0.50713 0.06583 0.15477 0.0
O191 O 0.54963 0.03202 0.16693 0.0
C192 C 0.45248 0.09507 0.1246 0.0
C193 C 0.52934 0.05455 0.17735 0.0
Zn194 Zn 0.56133 0.62703 0.62469 0.0
Zn195 Zn 0.46275 0.52198 0.55498 0.0
Zn196 Zn 0.51127 0.57447 0.58707 0.0
C197 C 0.51476 0.48231 0.58112 0.0
C198 C 0.4987 0.57103 0.50378 0.0
O199 O 0.47911 0.60636 0.6243 0.0
O200 O 0.52323 0.64532 0.65539 0.0
C201 C 0.57969 0.55438 0.63546 0.0
O202 O 0.52954 0.51689 0.59055 0.0
O203 O 0.48147 0.47521 0.56752 0.0
O204 O 0.47491 0.54016 0.50705 0.0
O205 O 0.51491 0.58887 0.53095 0.0
O206 O 0.59115 0.58918 0.64301 0.0
O207 O 0.55035 0.54392 0.61502 0.0
O208 O 0.54135 0.61573 0.54977 0.0
O209 O 0.57989 0.65825 0.58277 0.0
C210 C 0.56685 0.64644 0.55299 0.0
O211 O 0.45349 0.57627 0.60769 0.0
O212 O 0.41546 0.53278 0.57547 0.0
C213 C 0.48822 0.63237 0.64824 0.0
C214 C 0.41965 0.55819 0.59892 0.0
Zn215 Zn 0.08338 0.64979 0.02203 0.0
Zn216 Zn 0.98414 0.54949 0.08213 0.0
Zn217 Zn 0.031 0.59999 0.04554 0.0
C218 C 0.05366 0.53085 0.0957 0.0
C219 C 0.96473 0.53951 0.01005 0.0
O220 O 0.01306 0.65791 0.04953 0.0
O221 O 0.05762 0.69337 0.0176 0.0
C222 C 0.12027 0.61837 0.07132 0.0
O223 O 0.06295 0.5621 0.07806 0.0
O224 O 0.01872 0.51671 0.10062 0.0
O225 O 0.95221 0.53017 0.04024 0.0
O226 O 0.9958 0.56434 0.0061 0.0
O227 O 0.12527 0.65055 0.05677 0.0
O228 O 0.088 0.59483 0.06754 0.0
O229 O 0.0279 0.58759 0.98969 0.0
O230 O 0.08456 0.62234 0.97696 0.0
C231 C 0.05472 0.59888 0.96758 0.0
O232 O 0.99795 0.63369 0.07678 0.0
O233 O 0.97032 0.58919 0.11353 0.0
C234 C 0.02587 0.68929 0.03306 0.0
C235 C 0.97808 0.6237 0.10432 0.0
H236 H 0.1892 0.15576 0.31187 0.0
H237 H 0.19343 0.2734 0.34396 0.0
H238 H 0.15747 0.25101 0.39701 0.0
H239 H 0.09556 0.11614 0.34568 0.0
H240 H 0.10972 0.07279 0.36035 0.0
H241 H 0.13317 0.09811 0.32347 0.0
H242 H 0.19951 0.10169 0.35431 0.0
H243 H 0.17624 0.07645 0.39131 0.0
H244 H 0.20723 0.12228 0.39754 0.0
H245 H 0.1197 0.21497 0.44737 0.0
H246 H 0.08712 0.16878 0.49047 0.0
H247 H 0.11505 0.07591 0.42887 0.0
C248 C 0.18292 0.17706 0.32997 0.0
C249 C 0.19416 0.21659 0.32298 0.0
C250 C 0.18449 0.243 0.34768 0.0
C251 C 0.1643 0.23055 0.3783 0.0
C252 C 0.15419 0.19149 0.3844 0.0
C253 C 0.16343 0.16518 0.36098 0.0
C254 C 0.15074 0.12484 0.37428 0.0
C255 C 0.1205 0.10161 0.34946 0.0
C256 C 0.1855 0.10516 0.37968 0.0
C257 C 0.13311 0.13254 0.40891 0.0
C258 C 0.13488 0.1711 0.41417 0.0
C259 C 0.11889 0.18475 0.44373 0.0
C260 C 0.10081 0.15832 0.46848 0.0
C261 C 0.09959 0.1187 0.46417 0.0
C262 C 0.11601 0.10598 0.43369 0.0
H263 H 0.36992 0.92721 0.85445 0.0
H264 H 0.40329 0.8184 0.87485 0.0
H265 H 0.43158 0.84315 0.93194 0.0
H266 H 0.45362 0.98649 0.89436 0.0
H267 H 0.42638 0.0202 0.91141 0.0
H268 H 0.41043 0.99387 0.872 0.0
H269 H 0.34398 0.9692 0.90008 0.0
H270 H 0.3599 0.99514 0.93971 0.0
H271 H 0.34183 0.94448 0.9413 0.0
H272 H 0.45518 0.881 0.98897 0.0
H273 H 0.47448 0.92864 0.03625 0.0
H274 H 0.42293 0.01048 0.97827 0.0
C275 C 0.38317 0.90845 0.87082 0.0
C276 C 0.38421 0.8707 0.85991 0.0
C277 C 0.40244 0.84754 0.8822 0.0
C278 C 0.41831 0.86128 0.91492 0.0
C279 C 0.41594 0.89838 0.92512 0.0
C280 C 0.39906 0.92166 0.90343 0.0
C281 C 0.4 0.96037 0.9201 0.0
C282 C 0.42404 0.9921 0.89817 0.0
C283 C 0.35899 0.96771 0.92562 0.0
C284 C 0.41981 0.95537 0.9547 0.0
C285 C 0.42888 0.91952 0.95733 0.0
C286 C 0.44794 0.90907 0.98701 0.0
C287 C 0.45855 0.93618 0.01411 0.0
C288 C 0.45006 0.97328 0.01168 0.0
C289 C 0.4299 0.98242 0.98149 0.0
H290 H 0.57999 0.37202 0.74986 0.0
H291 H 0.69057 0.4314 0.79049 0.0
H292 H 0.6951 0.4764 0.74173 0.0
H293 H 0.5971 0.39404 0.65334 0.0
H294 H 0.54822 0.40113 0.64815 0.0
H295 H 0.55942 0.36713 0.67951 0.0
H296 H 0.5275 0.40194 0.72769 0.0
H297 H 0.51746 0.43614 0.69624 0.0
H298 H 0.54494 0.45213 0.73533 0.0
H299 H 0.68293 0.52168 0.69656 0.0
H300 H 0.65366 0.56524 0.65956 0.0
H301 H 0.54843 0.48051 0.65161 0.0
C302 C 0.60558 0.39397 0.7482 0.0
C303 C 0.63501 0.39773 0.77409 0.0
C304 C 0.668 0.42697 0.77068 0.0
C305 C 0.67084 0.45291 0.74302 0.0
C306 C 0.64049 0.44937 0.71894 0.0
C307 C 0.60846 0.42059 0.72119 0.0
C308 C 0.57709 0.4268 0.69571 0.0
C309 C 0.57009 0.39541 0.6675 0.0
C310 C 0.53957 0.42944 0.7149 0.0
C311 C 0.59565 0.46476 0.68035 0.0
C312 C 0.63269 0.47662 0.69327 0.0
C313 C 0.65432 0.51236 0.68559 0.0
C314 C 0.63738 0.53698 0.66475 0.0
C315 C 0.59905 0.52591 0.65223 0.0
C316 C 0.57827 0.48909 0.65962 0.0
H317 H 0.82445 0.74358 0.16245 0.0
H318 H 0.85776 0.72053 0.26903 0.0
H319 H 0.91522 0.69965 0.24698 0.0
H320 H 0.844 0.65972 0.12923 0.0
H321 H 0.86067 0.67856 0.08728 0.0
H322 H 0.82709 0.70035 0.11131 0.0
H323 H 0.87412 0.76609 0.10956 0.0
H324 H 0.90641 0.74366 0.08432 0.0
H325 H 0.92336 0.76909 0.12405 0.0
H326 H 0.96233 0.67144 0.21432 0.0
H327 H 0.99434 0.63499 0.17275 0.0
H328 H 0.93003 0.67262 0.08678 0.0
C329 C 0.84397 0.73465 0.18133 0.0
C330 C 0.8364 0.73431 0.21767 0.0
C331 C 0.86308 0.72236 0.24121 0.0
C332 C 0.89592 0.7102 0.2289 0.0
C333 C 0.90177 0.70991 0.19296 0.0
C334 C 0.87651 0.72168 0.16945 0.0
C335 C 0.88632 0.71326 0.13207 0.0
C336 C 0.85252 0.68637 0.11393 0.0
C337 C 0.8983 0.75027 0.1113 0.0
C338 C 0.92025 0.69369 0.13834 0.0
C339 C 0.92908 0.69279 0.17369 0.0
C340 C 0.95641 0.67276 0.18655 0.0
C341 C 0.9744 0.65219 0.16283 0.0
C342 C 0.96508 0.65193 0.12677 0.0
C343 C 0.93847 0.67366 0.11416 0.0
H344 H 0.29027 0.21093 0.18271 0.0
H345 H 0.3168 0.18804 0.29079 0.0
H346 H 0.36675 0.153 0.27114 0.0
H347 H 0.30223 0.12027 0.14806 0.0
H348 H 0.32339 0.13995 0.10786 0.0
H349 H 0.29002 0.16341 0.13062 0.0
H350 H 0.34087 0.22606 0.13269 0.0
H351 H 0.37441 0.2028 0.10994 0.0
H352 H 0.38782 0.22572 0.15153 0.0
H353 H 0.41517 0.12049 0.23897 0.0
H354 H 0.45535 0.0924 0.19728 0.0
H355 H 0.39647 0.13674 0.11082 0.0
C356 C 0.30671 0.19874 0.20228 0.0
C357 C 0.29933 0.20218 0.23835 0.0
C358 C 0.32137 0.18538 0.263 0.0
C359 C 0.35006 0.16559 0.25209 0.0
C360 C 0.35651 0.16266 0.21635 0.0
C361 C 0.33532 0.17872 0.19184 0.0
C362 C 0.34745 0.17111 0.155 0.0
C363 C 0.31377 0.14726 0.13417 0.0
C364 C 0.3636 0.20866 0.13619 0.0
C365 C 0.37881 0.1484 0.16257 0.0
C366 C 0.38381 0.14385 0.19807 0.0
C367 C 0.41138 0.12388 0.21109 0.0
C368 C 0.4342 0.10804 0.18719 0.0
C369 C 0.42931 0.11215 0.15063 0.0
C370 C 0.40115 0.1328 0.13852 0.0
H371 H 0.19811 0.87504 0.68832 0.0
H372 H 0.19918 0.95025 0.77751 0.0
H373 H 0.16443 0.99169 0.74251 0.0
H374 H 0.20886 0.95039 0.62009 0.0
H375 H 0.17696 0.92046 0.58994 0.0
H376 H 0.20545 0.89937 0.62097 0.0
H377 H 0.14319 0.85654 0.64379 0.0
H378 H 0.11451 0.87796 0.61327 0.0
H379 H 0.10456 0.87843 0.6594 0.0
H380 H 0.1254 0.02243 0.69873 0.0
H381 H 0.08885 0.04203 0.64857 0.0
H382 H 0.11119 0.94538 0.58864 0.0
C383 C 0.19216 0.90098 0.69995 0.0
C384 C 0.20211 0.91018 0.73525 0.0
C385 C 0.19257 0.94343 0.75021 0.0
C386 C 0.17262 0.96691 0.73061 0.0
C387 C 0.16229 0.95664 0.69607 0.0
C388 C 0.17213 0.9247 0.68072 0.0
C389 C 0.15604 0.91907 0.64371 0.0
C390 C 0.18878 0.92253 0.6171 0.0
C391 C 0.12791 0.88072 0.63984 0.0
C392 C 0.13513 0.95234 0.64085 0.0
C393 C 0.13914 0.97377 0.67127 0.0
C394 C 0.12208 0.00579 0.6748 0.0
C395 C 0.10088 0.01643 0.64633 0.0
C396 C 0.09627 0.99477 0.61494 0.0
C397 C 0.11385 0.96239 0.61235 0.0
H398 H 0.82853 0.36362 0.92635 0.0
H399 H 0.75717 0.44433 0.89362 0.0
H400 H 0.81116 0.49707 0.90482 0.0
H401 H 0.8639 0.41451 0.99919 0.0
H402 H 0.91129 0.40276 0.998 0.0
H403 H 0.87106 0.3709 0.97864 0.0
H404 H 0.90708 0.37427 0.91966 0.0
H405 H 0.94739 0.40669 0.93879 0.0
H406 H 0.92406 0.41996 0.89976 0.0
H407 H 0.86941 0.54207 0.92691 0.0
H408 H 0.92268 0.57449 0.96531 0.0
H409 H 0.95267 0.46548 0.99014 0.0
C410 C 0.82415 0.39226 0.92106 0.0
C411 C 0.7883 0.3992 0.90843 0.0
C412 C 0.7844 0.4375 0.90199 0.0
C413 C 0.81504 0.46797 0.90845 0.0
C414 C 0.8495 0.46004 0.92171 0.0
C415 C 0.85407 0.42309 0.92827 0.0
C416 C 0.89143 0.42246 0.94787 0.0
C417 C 0.88395 0.40144 0.983 0.0
C418 C 0.91914 0.40479 0.92516 0.0
C419 C 0.90601 0.46478 0.95311 0.0
C420 C 0.88224 0.48606 0.93657 0.0
C421 C 0.88853 0.52575 0.93953 0.0
C422 C 0.91889 0.54397 0.96115 0.0
C423 C 0.94172 0.52231 0.98 0.0
C424 C 0.93593 0.48249 0.9752 0.0
H425 H 0.69739 0.70091 0.3869 0.0
H426 H 0.67972 0.81663 0.40299 0.0
H427 H 0.62971 0.79369 0.44631 0.0
H428 H 0.59478 0.65386 0.39964 0.0
H429 H 0.6062 0.61389 0.42364 0.0
H430 H 0.63793 0.63626 0.38997 0.0
H431 H 0.69596 0.64996 0.43216 0.0
H432 H 0.66637 0.62585 0.46625 0.0
H433 H 0.69193 0.67405 0.47308 0.0
H434 H 0.59139 0.76149 0.49417 0.0
H435 H 0.56333 0.72029 0.54272 0.0
H436 H 0.6022 0.62405 0.49541 0.0
C437 C 0.68199 0.72107 0.39879 0.0
C438 C 0.69221 0.76049 0.39174 0.0
C439 C 0.67227 0.78635 0.40826 0.0
C440 C 0.64371 0.77356 0.43268 0.0
C441 C 0.63512 0.73476 0.44005 0.0
C442 C 0.65327 0.7087 0.4234 0.0
C443 C 0.64103 0.66914 0.43871 0.0
C444 C 0.61864 0.64162 0.4114 0.0
C445 C 0.6759 0.65388 0.45343 0.0
C446 C 0.6149 0.6776 0.46772 0.0
C447 C 0.61158 0.71559 0.4676 0.0
C448 C 0.59275 0.73147 0.49403 0.0
C449 C 0.57716 0.70803 0.52154 0.0
C450 C 0.58023 0.6692 0.52218 0.0
C451 C 0.59876 0.65356 0.49476 0.0
H452 H 0.19158 0.44038 0.22481 0.0
H453 H 0.18391 0.34751 0.15009 0.0
H454 H 0.14406 0.37982 0.11083 0.0
H455 H 0.09385 0.45688 0.21122 0.0
H456 H 0.10794 0.50783 0.21653 0.0
H457 H 0.13469 0.47648 0.23865 0.0
H458 H 0.19655 0.51292 0.21063 0.0
H459 H 0.17068 0.5432 0.18598 0.0
H460 H 0.20036 0.51496 0.16376 0.0
H461 H 0.10741 0.42358 0.07872 0.0
H462 H 0.06937 0.47137 0.05923 0.0
H463 H 0.09994 0.53577 0.15494 0.0
C464 C 0.18122 0.42666 0.2003 0.0
C465 C 0.1909 0.39133 0.1905 0.0
C466 C 0.17654 0.37425 0.15834 0.0
C467 C 0.15425 0.39264 0.13572 0.0
C468 C 0.1463 0.42797 0.14575 0.0
C469 C 0.15873 0.44447 0.17757 0.0
C470 C 0.1456 0.48228 0.18242 0.0
C471 C 0.11893 0.48076 0.21408 0.0
C472 C 0.18034 0.51532 0.1859 0.0
C473 C 0.12372 0.48455 0.14831 0.0
C474 C 0.12491 0.45308 0.12739 0.0
C475 C 0.10636 0.44831 0.09486 0.0
C476 C 0.08506 0.47567 0.0839 0.0
C477 C 0.08239 0.50741 0.10531 0.0
C478 C 0.10226 0.51213 0.1378 0.0
H479 H 0.67084 0.30361 0.98096 0.0
H480 H 0.74326 0.23987 0.92448 0.0
H481 H 0.71813 0.18251 0.95986 0.0
H482 H 0.67318 0.25327 0.06825 0.0
H483 H 0.62335 0.25542 0.07559 0.0
H484 H 0.65347 0.29284 0.05161 0.0
H485 H 0.60455 0.28213 0.99976 0.0
H486 H 0.57458 0.24457 0.02327 0.0
H487 H 0.59154 0.23528 0.98041 0.0
H488 H 0.67531 0.12988 0.99252 0.0
H489 H 0.62042 0.08781 0.02037 0.0
H490 H 0.57787 0.18649 0.05724 0.0
C491 C 0.68261 0.27797 0.97733 0.0
C492 C 0.7095 0.27597 0.95089 0.0
C493 C 0.72333 0.24184 0.94541 0.0
C494 C 0.70914 0.20926 0.9653 0.0
C495 C 0.68145 0.21168 0.99055 0.0
C496 C 0.66876 0.24543 0.99691 0.0
C497 C 0.63554 0.23972 0.02208 0.0
C498 C 0.64709 0.26161 0.05642 0.0
C499 C 0.59945 0.25108 0.00536 0.0
C500 C 0.63007 0.19716 0.02754 0.0
C501 C 0.65718 0.18145 0.0097 0.0
C502 C 0.65494 0.14204 0.00773 0.0
C503 C 0.62404 0.11825 0.02407 0.0
C504 C 0.59611 0.13395 0.04225 0.0
C505 C 0.59953 0.17386 0.04426 0.0
H506 H 0.82751 0.82108 0.42213 0.0
H507 H 0.80706 0.8936 0.33588 0.0
H508 H 0.85017 0.94843 0.36429 0.0
H509 H 0.83064 0.8893 0.49085 0.0
H510 H 0.86912 0.87377 0.51478 0.0
H511 H 0.83684 0.84043 0.48767 0.0
H512 H 0.89464 0.82444 0.45332 0.0
H513 H 0.92713 0.85716 0.48075 0.0
H514 H 0.92852 0.86255 0.43387 0.0
H515 H 0.89466 0.99528 0.40295 0.0
H516 H 0.94345 0.02857 0.44503 0.0
H517 H 0.93475 0.92516 0.50562 0.0
C518 C 0.83237 0.84851 0.4092 0.0
C519 C 0.81409 0.85341 0.37696 0.0
C520 C 0.82116 0.88945 0.36051 0.0
C521 C 0.84524 0.92069 0.37659 0.0
C522 C 0.86219 0.91512 0.40886 0.0
C523 C 0.85659 0.87975 0.42464 0.0
C524 C 0.87927 0.88087 0.45858 0.0
C525 C 0.85235 0.87048 0.48981 0.0
C526 C 0.90917 0.85472 0.45649 0.0
C527 C 0.8984 0.92249 0.45961 0.0
C528 C 0.88786 0.9419 0.43091 0.0
C529 C 0.90269 0.9805 0.42575 0.0
C530 C 0.92973 0.99943 0.45011 0.0
C531 C 0.94138 0.9798 0.47917 0.0
C532 C 0.9254 0.94095 0.48402 0.0
H533 H 0.41251 0.76679 0.78858 0.0
H534 H 0.33864 0.79588 0.70485 0.0
H535 H 0.35735 0.74691 0.66772 0.0
H536 H 0.48963 0.75845 0.72962 0.0
H537 H 0.50494 0.7208 0.7542 0.0
H538 H 0.48225 0.75522 0.7762 0.0
H539 H 0.43112 0.70025 0.80083 0.0
H540 H 0.45332 0.66568 0.77842 0.0
H541 H 0.40301 0.66646 0.77106 0.0
H542 H 0.38282 0.69314 0.63898 0.0
H543 H 0.42365 0.64929 0.61694 0.0
H544 H 0.48803 0.66145 0.71493 0.0
C545 C 0.40022 0.76342 0.76247 0.0
C546 C 0.37243 0.78493 0.7509 0.0
C547 C 0.35806 0.77892 0.71592 0.0
C548 C 0.36887 0.75115 0.69411 0.0
C549 C 0.39528 0.73001 0.70676 0.0
C550 C 0.41173 0.73664 0.7397 0.0
C551 C 0.44253 0.71268 0.74544 0.0
C552 C 0.48219 0.73831 0.75173 0.0
C553 C 0.43184 0.68461 0.77575 0.0
C554 C 0.44078 0.69175 0.71058 0.0
C555 C 0.41255 0.70141 0.689 0.0
C556 C 0.40515 0.68551 0.65561 0.0
C557 C 0.42821 0.66025 0.64341 0.0
C558 C 0.4588 0.65165 0.66425 0.0
C559 C 0.46464 0.66723 0.69849 0.0
H560 H 0.98282 0.00892 0.83883 0.0
H561 H 0.9694 0.8881 0.81596 0.0
H562 H 0.99195 0.90331 0.75567 0.0
H563 H 0.94114 0.03113 0.76295 0.0
H564 H 0.97118 0.07742 0.75741 0.0
H565 H 0.9634 0.05759 0.80045 0.0
H566 H 0.03715 0.06487 0.8104 0.0
H567 H 0.0452 0.08514 0.76736 0.0
H568 H 0.06536 0.04415 0.77937 0.0
H569 H 0.00648 0.9322 0.69466 0.0
H570 H 0.00987 0.97114 0.64064 0.0
H571 H 0.00908 0.07202 0.70367 0.0
C572 C 0.98555 0.98558 0.82148 0.0
C573 C 0.97433 0.94725 0.83233 0.0
C574 C 0.97842 0.91769 0.80863 0.0
C575 C 0.99099 0.9261 0.77417 0.0
C576 C 0.99959 0.96423 0.76377 0.0
C577 C 0.99729 0.99347 0.787 0.0
C578 C 0.00313 0.03167 0.76873 0.0
C579 C 0.9676 0.05053 0.77261 0.0
C580 C 0.0399 0.05801 0.78227 0.0
C581 C 0.00768 0.0194 0.73134 0.0
C582 C 0.00648 0.98055 0.72891 0.0
C583 C 0.00799 0.9627 0.69646 0.0
C584 C 0.01 0.98501 0.66589 0.0
C585 C 0.00997 0.02462 0.66798 0.0
C586 C 0.00943 0.04185 0.70124 0.0
H587 H 0.61042 0.18051 0.34425 0.0
H588 H 0.62354 0.07307 0.39107 0.0
H589 H 0.58687 0.03812 0.34201 0.0
H590 H 0.5124 0.14594 0.30527 0.0
H591 H 0.52284 0.17331 0.26583 0.0
H592 H 0.54611 0.19065 0.30658 0.0
H593 H 0.61302 0.19524 0.27809 0.0
H594 H 0.58992 0.17827 0.23731 0.0
H595 H 0.62479 0.15368 0.25712 0.0
H596 H 0.55282 0.01461 0.28797 0.0
H597 H 0.5288 0.00308 0.22771 0.0
H598 H 0.53899 0.12479 0.21163 0.0
C599 C 0.60489 0.14963 0.34428 0.0
C600 C 0.61959 0.12937 0.37153 0.0
C601 C 0.61252 0.08903 0.37047 0.0
C602 C 0.5915 0.06895 0.34285 0.0
C603 C 0.57763 0.08955 0.31629 0.0
C604 C 0.58417 0.12895 0.31641 0.0
C605 C 0.56866 0.14366 0.28277 0.0
C606 C 0.53554 0.16466 0.29059 0.0
C607 C 0.60103 0.16921 0.26263 0.0
C608 C 0.55372 0.10643 0.26335 0.0
C609 C 0.5584 0.07571 0.28387 0.0
C610 C 0.54845 0.03836 0.27186 0.0
C611 C 0.5345 0.03212 0.23762 0.0
C612 C 0.53109 0.06297 0.21524 0.0
C613 C 0.53994 0.10068 0.22853 0.0
H614 H 0.50531 0.54264 0.29979 0.0
H615 H 0.5112 0.6644 0.28797 0.0
H616 H 0.5176 0.67263 0.35228 0.0
H617 H 0.448 0.53137 0.37314 0.0
H618 H 0.47133 0.49617 0.39357 0.0
H619 H 0.47152 0.50086 0.34675 0.0
H620 H 0.54626 0.51124 0.34731 0.0
H621 H 0.54623 0.50642 0.39424 0.0
H622 H 0.5736 0.5485 0.37431 0.0
H623 H 0.51807 0.66622 0.41866 0.0
H624 H 0.51052 0.64505 0.48045 0.0
H625 H 0.50537 0.52812 0.44701 0.0
C626 C 0.50895 0.57119 0.3106 0.0
C627 C 0.50801 0.60289 0.28894 0.0
C628 C 0.51168 0.63967 0.3042 0.0
C629 C 0.5156 0.64466 0.34062 0.0
C630 C 0.51588 0.6126 0.36127 0.0
C631 C 0.51279 0.57662 0.3467 0.0
C632 C 0.51117 0.54637 0.37442 0.0
C633 C 0.47326 0.51699 0.37181 0.0
C634 C 0.54642 0.527 0.37245 0.0
C635 C 0.51272 0.57072 0.40691 0.0
C636 C 0.51591 0.60892 0.39903 0.0
C637 C 0.51598 0.63641 0.42513 0.0
C638 C 0.51204 0.62428 0.46008 0.0
C639 C 0.50789 0.58514 0.46825 0.0
C640 C 0.5088 0.5583 0.44137 0.0
H641 H 1.00135 0.44771 0.81444 0.0
H642 H 0.09807 0.51603 0.76014 0.0
H643 H 0.09858 0.56755 0.80182 0.0
H644 H 0.95761 0.52766 0.84955 0.0
H645 H 0.94844 0.50493 0.89138 0.0
H646 H 0.94688 0.47633 0.85228 0.0
H647 H 0.99724 0.44045 0.87914 0.0
H648 H 0.99849 0.46834 0.9185 0.0
H649 H 0.04244 0.46725 0.89541 0.0
H650 H 0.09746 0.60733 0.85313 0.0
H651 H 0.09668 0.63173 0.91308 0.0
H652 H 0.00689 0.53563 0.93941 0.0
C653 C 0.02242 0.47354 0.8108 0.0
C654 C 0.04914 0.47734 0.78307 0.0
C655 C 0.07597 0.51218 0.7798 0.0
C656 C 0.07683 0.5419 0.80372 0.0
C657 C 0.05123 0.53645 0.83132 0.0
C658 C 0.02466 0.50311 0.83525 0.0
C659 C 0.00498 0.50216 0.87037 0.0
C660 C 0.96191 0.50281 0.86557 0.0
C661 C 0.0112 0.4675 0.89212 0.0
C662 C 0.02634 0.53923 0.88618 0.0
C663 C 0.05194 0.55901 0.86264 0.0
C664 C 0.07712 0.59249 0.87168 0.0
C665 C 0.07666 0.60591 0.90593 0.0
C666 C 0.05159 0.58558 0.93095 0.0
C667 C 0.02563 0.55219 0.92072 0.0
H668 H 0.80869 0.0362 0.98989 0.0
H669 H 0.74465 0.93615 0.93695 0.0
H670 H 0.68647 0.94244 0.9697 0.0
H671 H 0.75936 0.01416 0.07665 0.0
H672 H 0.76084 0.06394 0.08602 0.0
H673 H 0.79815 0.04971 0.06029 0.0
H674 H 0.7841 0.09538 0.01127 0.0
H675 H 0.74564 0.10854 0.0362 0.0
H676 H 0.73623 0.0895 0.99258 0.0
H677 H 0.63356 0.96607 0.99885 0.0
H678 H 0.59121 0.99249 0.03898 0.0
H679 H 0.68963 0.072 0.08061 0.0
C680 C 0.78288 0.01464 0.98662 0.0
C681 C 0.78109 0.98521 0.96145 0.0
C682 C 0.7466 0.95823 0.95676 0.0
C683 C 0.71333 0.96198 0.97478 0.0
C684 C 0.71533 0.99242 0.99797 0.0
C685 C 0.74947 0.0173 0.0053 0.0
C686 C 0.74331 0.04694 0.03224 0.0
C687 C 0.7668 0.04346 0.0658 0.0
C688 C 0.75291 0.08748 0.01715 0.0
C689 C 0.70035 0.03505 0.0383 0.0
C690 C 0.68479 0.00432 0.01725 0.0
C691 C 0.64545 0.98963 0.01601 0.0
C692 C 0.62156 0.00526 0.03842 0.0
C693 C 0.6372 0.03451 0.06241 0.0
C694 C 0.67704 0.05002 0.06209 0.0
H695 H 0.72509 0.12888 0.5028 0.0
H696 H 0.7592 0.14673 0.39447 0.0
H697 H 0.81874 0.12234 0.40736 0.0
H698 H 0.81964 0.15935 0.53999 0.0
H699 H 0.81235 0.12477 0.57473 0.0
H700 H 0.77189 0.14217 0.5563 0.0
H701 H 0.73807 0.07264 0.54272 0.0
H702 H 0.77875 0.05506 0.56062 0.0
H703 H 0.76233 0.04259 0.51652 0.0
H704 H 0.87652 0.09866 0.43288 0.0
H705 H 0.92884 0.082 0.46978 0.0
H706 H 0.85662 0.07808 0.56084 0.0
C707 C 0.74518 0.12807 0.48179 0.0
C708 C 0.73717 0.13976 0.44751 0.0
C709 C 0.76424 0.13754 0.42082 0.0
C710 C 0.79824 0.12374 0.4279 0.0
C711 C 0.80497 0.1121 0.46183 0.0
C712 C 0.7793 0.11439 0.48839 0.0
C713 C 0.79392 0.10131 0.52288 0.0
C714 C 0.79981 0.13383 0.55007 0.0
C715 C 0.76663 0.06579 0.53648 0.0
C716 C 0.83206 0.09175 0.51171 0.0
C717 C 0.83779 0.09783 0.47632 0.0
C718 C 0.87192 0.09296 0.46045 0.0
C719 C 0.90126 0.08261 0.48144 0.0
C720 C 0.89628 0.07686 0.51783 0.0
C721 C 0.8609 0.08108 0.5329 0.0
H722 H 0.31558 0.66943 0.1746 0.0
H723 H 0.34 0.56078 0.1403 0.0
H724 H 0.27161 0.54005 0.12264 0.0
H725 H 0.2117 0.63469 0.20099 0.0
H726 H 0.19853 0.67757 0.18394 0.0
H727 H 0.24588 0.67909 0.20266 0.0
H728 H 0.27626 0.7087 0.14523 0.0
H729 H 0.2293 0.70669 0.12611 0.0
H730 H 0.26383 0.68372 0.10441 0.0
H731 H 0.20493 0.53692 0.09751 0.0
H732 H 0.14613 0.5512 0.06879 0.0
H733 H 0.16704 0.66297 0.11742 0.0
C734 C 0.30621 0.64079 0.16442 0.0
C735 C 0.33286 0.61668 0.15873 0.0
C736 C 0.3198 0.57948 0.14525 0.0
C737 C 0.28107 0.56754 0.13508 0.0
C738 C 0.25597 0.59308 0.13898 0.0
C739 C 0.26801 0.62879 0.15383 0.0
C740 C 0.23756 0.65313 0.15052 0.0
C741 C 0.22252 0.66161 0.18669 0.0
C742 C 0.25265 0.69021 0.13036 0.0
C743 C 0.2073 0.62647 0.1297 0.0
C744 C 0.21786 0.59157 0.12401 0.0
C745 C 0.19589 0.56371 0.10266 0.0
C746 C 0.16252 0.57192 0.0866 0.0
C747 C 0.15195 0.60777 0.09172 0.0
C748 C 0.17434 0.63509 0.11377 0.0
H749 H 0.19968 0.50706 0.5983 0.0
H750 H 0.20999 0.4867 0.70942 0.0
H751 H 0.27477 0.52703 0.71026 0.0
H752 H 0.28499 0.49098 0.57804 0.0
H753 H 0.29608 0.52606 0.54399 0.0
H754 H 0.24689 0.50733 0.55421 0.0
H755 H 0.23507 0.57592 0.5653 0.0
H756 H 0.28466 0.59491 0.5551 0.0
H757 H 0.26521 0.60652 0.59625 0.0
H758 H 0.3431 0.55538 0.69663 0.0
H759 H 0.4073 0.56458 0.66914 0.0
H760 H 0.35337 0.56457 0.56694 0.0
C761 C 0.2151 0.51223 0.62302 0.0
C762 C 0.19974 0.4939 0.65375 0.0
C763 C 0.22082 0.50102 0.68562 0.0
C764 C 0.25772 0.52397 0.68635 0.0
C765 C 0.27299 0.53994 0.65511 0.0
C766 C 0.25204 0.53464 0.62404 0.0
C767 C 0.27689 0.54841 0.59304 0.0
C768 C 0.27618 0.51628 0.56578 0.0
C769 C 0.26472 0.58354 0.57645 0.0
C770 C 0.31572 0.55912 0.61107 0.0
C771 C 0.31286 0.55566 0.64704 0.0
C772 C 0.34561 0.55927 0.66862 0.0
C773 C 0.38197 0.56459 0.6529 0.0
C774 C 0.38482 0.56542 0.61609 0.0
C775 C 0.3516 0.56459 0.59522 0.0
H776 H 0.95342 0.8298 0.89983 0.0
H777 H 0.92526 0.89588 0.98793 0.0
H778 H 0.93999 0.84646 0.02848 0.0
H779 H 0.91658 0.73557 0.93556 0.0
H780 H 0.95514 0.71539 0.91742 0.0
H781 H 0.93911 0.7544 0.89561 0.0
H782 H 0.00878 0.79368 0.89785 0.0
H783 H 0.02501 0.75474 0.91941 0.0
H784 H 0.03387 0.80144 0.93936 0.0
H785 H 0.96378 0.79086 0.06 0.0
H786 H 0.99367 0.7358 0.0779 0.0
H787 H 0.00596 0.70826 0.96875 0.0
C788 C 0.95022 0.834 0.92762 0.0
C789 C 0.93814 0.86695 0.94051 0.0
C790 C 0.93396 0.87076 0.9772 0.0
C791 C 0.94244 0.84285 1.00052 0.0
C792 C 0.95485 0.81101 0.98687 0.0
C793 C 0.95853 0.80653 0.95117 0.0
C794 C 0.97404 0.77088 0.94288 0.0
C795 C 0.94445 0.74238 0.92161 0.0
C796 C 0.01271 0.78079 0.92377 0.0
C797 C 0.97924 0.75626 0.97944 0.0
C798 C 0.96781 0.77941 0.00466 0.0
C799 C 0.97206 0.77214 0.04039 0.0
C800 C 0.98879 0.74074 0.05041 0.0
C801 C 1.00138 0.71751 0.0247 0.0
C802 C 0.9959 0.72523 0.98895 0.0
H803 H 0.4011 0.74985 0.16128 0.0
H804 H 0.48636 0.70449 0.10219 0.0
H805 H 0.50968 0.76834 0.07699 0.0
H806 H 0.38134 0.82071 0.09621 0.0
H807 H 0.3776 0.85569 0.12946 0.0
H808 H 0.36415 0.80555 0.13908 0.0
H809 H 0.41197 0.81364 0.1918 0.0
H810 H 0.42505 0.86373 0.18264 0.0
H811 H 0.46175 0.83491 0.18495 0.0
H812 H 0.52778 0.83682 0.06323 0.0
H813 H 0.54442 0.90704 0.06654 0.0
H814 H 0.44761 0.90883 0.13436 0.0
C815 C 0.42416 0.75334 0.14247 0.0
C816 C 0.44178 0.72245 0.13324 0.0
C817 C 0.47259 0.72799 0.10943 0.0
C818 C 0.48566 0.76395 0.09476 0.0
C819 C 0.46759 0.79388 0.1043 0.0
C820 C 0.43778 0.78908 0.12789 0.0
C821 C 0.42637 0.82671 0.13692 0.0
C822 C 0.3849 0.82718 0.12468 0.0
C823 C 0.43163 0.83524 0.1764 0.0
C824 C 0.45526 0.85368 0.11553 0.0
C825 C 0.47818 0.83395 0.09632 0.0
C826 C 0.50948 0.85258 0.07737 0.0
C827 C 0.51861 0.89234 0.07924 0.0
C828 C 0.49633 0.91291 0.09962 0.0
C829 C 0.46373 0.89357 0.11725 0.0
H830 H 0.06758 0.36858 0.58635 0.0
H831 H 0.18883 0.36989 0.6055 0.0
H832 H 0.1826 0.30724 0.57648 0.0
H833 H 0.03698 0.28145 0.61234 0.0
H834 H 0.99813 0.2677 0.58115 0.0
H835 H 0.01419 0.31704 0.59182 0.0
H836 H 0.02687 0.33276 0.52628 0.0
H837 H 0.01038 0.28315 0.51529 0.0
H838 H 0.05732 0.30732 0.50176 0.0
H839 H 0.16005 0.23881 0.56066 0.0
H840 H 0.12322 0.17236 0.55889 0.0
H841 H 0.01677 0.21511 0.55114 0.0
C842 C 0.0931 0.35633 0.58297 0.0
C843 C 0.12865 0.37403 0.59788 0.0
C844 C 0.16144 0.35711 0.59361 0.0
C845 C 0.15814 0.32144 0.5772 0.0
C846 C 0.12198 0.30342 0.56481 0.0
C847 C 0.09011 0.32069 0.56696 0.0
C848 C 0.0534 0.29319 0.55759 0.0
C849 C 0.02402 0.28964 0.58751 0.0
C850 C 0.03598 0.3048 0.52317 0.0
C851 C 0.06909 0.25701 0.55289 0.0
C852 C 0.10883 0.26354 0.55591 0.0
C853 C 0.12908 0.23349 0.55708 0.0
C854 C 0.10808 0.19592 0.55617 0.0
C855 C 0.06743 0.18912 0.55451 0.0
C856 C 0.04797 0.21993 0.55174 0.0
H857 H 0.5364 0.2703 0.53907 0.0
H858 H 0.65727 0.31174 0.51811 0.0
H859 H 0.65014 0.37672 0.53689 0.0
H860 H 0.50131 0.35182 0.50945 0.0
H861 H 0.4654 0.34841 0.54299 0.0
H862 H 0.48118 0.30614 0.52803 0.0
H863 H 0.49876 0.2915 0.59193 0.0
H864 H 0.48401 0.33431 0.6071 0.0
H865 H 0.53198 0.32654 0.61665 0.0
H866 H 0.62868 0.43779 0.55993 0.0
H867 H 0.59349 0.48917 0.57586 0.0
H868 H 0.48751 0.40568 0.58179 0.0
C869 C 0.56151 0.29296 0.53846 0.0
C870 C 0.59751 0.28577 0.52734 0.0
C871 C 0.62935 0.31653 0.52632 0.0
C872 C 0.62564 0.35343 0.53735 0.0
C873 C 0.5899 0.35911 0.54929 0.0
C874 C 0.55834 0.32963 0.54941 0.0
C875 C 0.52272 0.34283 0.56233 0.0
C876 C 0.49079 0.33697 0.53401 0.0
C877 C 0.50854 0.32259 0.59653 0.0
C878 C 0.53872 0.38467 0.56875 0.0
C879 C 0.57767 0.3936 0.56181 0.0
C880 C 0.59821 0.43093 0.56546 0.0
C881 C 0.57808 0.45993 0.57491 0.0
C882 C 0.53777 0.45147 0.58033 0.0
C883 C 0.51834 0.41311 0.57807 0.0
loop_
_geom_bond_atom_site_label_1
_geom_bond_atom_site_label_2
_geom_bond_distance
_geom_bond_site_symmetry_2
_ccdc_geom_bond_type
H0 C1 0.949 . S
C1 H0 0.949 . S
C1 C2 1.395 . S
C1 C3 1.391 . S
C2 C1 1.395 . S
C2 C5 1.390 . S
C3 C1 1.391 . S
C3 C7 1.387 . S
C3 C8 1.491 . S
H4 C5 0.950 . S
C5 C2 1.390 . S
C5 H4 0.950 . S
C5 C6 1.378 . S
C6 C5 1.378 . S
C6 C7 1.409 . S
C7 C3 1.387 . S
C7 C6 1.409 . S
C7 H9 0.951 . S
C8 C3 1.491 . S
C8 C10 1.382 . S
C8 C12 1.404 . S
H9 C7 0.951 . S
C10 C8 1.382 . S
C10 C11 1.390 . S
C10 H15 0.949 . S
C11 C10 1.390 . S
C11 C16 1.399 . S
C12 C8 1.404 . S
C12 H13 0.950 . S
C12 C14 1.375 . S
H13 C12 0.950 . S
C14 C12 1.375 . S
C14 C16 1.382 . S
C14 H18 0.950 . S
H15 C10 0.949 . S
C16 C11 1.399 . S
C16 C14 1.382 . S
C16 H17 0.952 . S
H17 C16 0.952 . S
H18 C14 0.950 . S
H19 C20 0.949 . S
C20 H19 0.949 . S
C20 C21 1.395 . S
C20 C22 1.391 . S
C21 C20 1.395 . S
C21 C24 1.390 . S
C22 C20 1.391 . S
C22 C26 1.387 . S
C22 C27 1.491 . S
H23 C24 0.950 . S
C24 C21 1.390 . S
C24 H23 0.950 . S
C24 C25 1.378 . S
C25 C24 1.378 . S
C25 C26 1.409 . S
C26 C22 1.387 . S
C26 C25 1.409 . S
C26 H28 0.951 . S
C27 C22 1.491 . S
C27 C29 1.382 . S
C27 C31 1.404 . S
H28 C26 0.951 . S
C29 C27 1.382 . S
C29 C30 1.390 . S
C29 H34 0.949 . S
C30 C29 1.390 . S
C30 C35 1.399 . S
C31 C27 1.404 . S
C31 H32 0.950 . S
C31 C33 1.375 . S
H32 C31 0.950 . S
C33 C31 1.375 . S
C33 C35 1.382 . S
C33 H37 0.950 . S
H34 C29 0.949 . S
C35 C30 1.399 . S
C35 C33 1.382 . S
C35 H36 0.952 . S
H36 C35 0.952 . S
H37 C33 0.950 . S
H38 C39 0.949 . S
C39 H38 0.949 . S
C39 C40 1.395 . S
C39 C41 1.391 . S
C40 C39 1.395 . S
C40 C43 1.390 . S
C41 C39 1.391 . S
C41 C45 1.387 . S
C41 C46 1.491 . S
H42 C43 0.950 . S
C43 C40 1.390 . S
C43 H42 0.950 . S
C43 C44 1.378 . S
C44 C43 1.378 . S
C44 C45 1.409 . S
C45 C41 1.387 . S
C45 C44 1.409 . S
C45 H47 0.951 . S
C46 C41 1.491 . S
C46 C48 1.382 . S
C46 C50 1.404 . S
H47 C45 0.951 . S
C48 C46 1.382 . S
C48 C49 1.390 . S
C48 H53 0.949 . S
C49 C48 1.390 . S
C49 C54 1.399 . S
C50 C46 1.404 . S
C50 H51 0.950 . S
C50 C52 1.375 . S
H51 C50 0.950 . S
C52 C50 1.375 . S
C52 C54 1.382 . S
C52 H56 0.950 . S
H53 C48 0.949 . S
C54 C49 1.399 . S
C54 C52 1.382 . S
C54 H55 0.952 . S
H55 C54 0.952 . S
H56 C52 0.950 . S
H57 C58 0.949 . S
C58 H57 0.949 . S
C58 C59 1.395 . S
C58 C60 1.391 . S
C59 C58 1.395 . S
C59 C62 1.390 . S
C60 C58 1.391 . S
C60 C64 1.387 . S
C60 C65 1.491 . S
H61 C62 0.950 . S
C62 C59 1.390 . S
C62 H61 0.950 . S
C62 C63 1.378 . S
C63 C62 1.378 . S
C63 C64 1.409 . S
C64 C60 1.387 . S
C64 C63 1.409 . S
C64 H66 0.951 . S
C65 C60 1.491 . S
C65 C67 1.382 . S
C65 C69 1.404 . S
H66 C64 0.951 . S
C67 C65 1.382 . S
C67 C68 1.390 . S
C67 H72 0.949 . S
C68 C67 1.390 . S
C68 C73 1.399 . S
C69 C65 1.404 . S
C69 H70 0.950 . S
C69 C71 1.375 . S
H70 C69 0.950 . S
C71 C69 1.375 . S
C71 C73 1.382 . S
C71 H75 0.950 . S
H72 C67 0.949 . S
C73 C68 1.399 . S
C73 C71 1.382 . S
C73 H74 0.952 . S
H74 C73 0.952 . S
H75 C71 0.950 . S
H76 C77 0.949 . S
C77 H76 0.949 . S
C77 C78 1.395 . S
C77 C79 1.391 . S
C78 C77 1.395 . S
C78 C81 1.390 . S
C79 C77 1.391 . S
C79 C83 1.387 1_565 S
C79 C84 1.491 1_565 S
H80 C81 0.950 1_455 S
C81 C78 1.390 . S
C81 H80 0.950 1_655 S
C81 C82 1.378 . S
C82 C81 1.378 . S
C82 C83 1.409 1_565 S
C83 C79 1.387 1_545 S
C83 C82 1.409 1_545 S
C83 H85 0.951 . S
C84 C79 1.491 1_545 S
C84 C86 1.382 . S
C84 C88 1.404 . S
H85 C83 0.951 . S
C86 C84 1.382 . S
C86 C87 1.390 1_556 S
C86 H91 0.949 1_556 S
C87 C86 1.390 1_554 S
C87 C92 1.399 1_554 S
C88 C84 1.404 . S
C88 H89 0.950 . S
C88 C90 1.375 . S
H89 C88 0.950 . S
C90 C88 1.375 . S
C90 C92 1.382 . S
C90 H94 0.950 . S
H91 C86 0.949 1_554 S
C92 C87 1.399 1_556 S
C92 C90 1.382 . S
C92 H93 0.952 . S
H93 C92 0.952 . S
H94 C90 0.950 . S
H95 C96 0.949 . S
C96 H95 0.949 . S
C96 C97 1.395 . S
C96 C98 1.391 . S
C97 C96 1.395 . S
C97 C100 1.390 . S
C98 C96 1.391 . S
C98 C102 1.387 . S
C98 C103 1.491 . S
H99 C100 0.950 . S
C100 C97 1.390 . S
C100 H99 0.950 . S
C100 C101 1.378 . S
C101 C100 1.378 . S
C101 C102 1.409 . S
C102 C98 1.387 . S
C102 C101 1.409 . S
C102 H104 0.951 . S
C103 C98 1.491 . S
C103 C105 1.382 . S
C103 C107 1.404 . S
H104 C102 0.951 . S
C105 C103 1.382 . S
C105 C106 1.390 . S
C105 H110 0.949 . S
C106 C105 1.390 . S
C106 C111 1.399 . S
C107 C103 1.404 . S
C107 H108 0.950 . S
C107 C109 1.375 . S
H108 C107 0.950 . S
C109 C107 1.375 . S
C109 C111 1.382 . S
C109 H113 0.950 . S
H110 C105 0.949 . S
C111 C106 1.399 . S
C111 C109 1.382 . S
C111 H112 0.952 . S
H112 C111 0.952 . S
H113 C109 0.950 . S
H114 C115 0.949 . S
C115 H114 0.949 . S
C115 C116 1.395 . S
C115 C117 1.391 . S
C116 C115 1.395 . S
C116 C119 1.390 . S
C117 C115 1.391 . S
C117 C121 1.387 . S
C117 C122 1.491 . S
H118 C119 0.950 . S
C119 C116 1.390 . S
C119 H118 0.950 . S
C119 C120 1.378 . S
C120 C119 1.378 . S
C120 C121 1.409 . S
C121 C117 1.387 . S
C121 C120 1.409 . S
C121 H123 0.951 . S
C122 C117 1.491 . S
C122 C124 1.382 . S
C122 C126 1.404 . S
H123 C121 0.951 . S
C124 C122 1.382 . S
C124 C125 1.390 . S
C124 H129 0.949 . S
C125 C124 1.390 . S
C125 C130 1.399 . S
C126 C122 1.404 . S
C126 H127 0.950 . S
C126 C128 1.375 . S
H127 C126 0.950 . S
C128 C126 1.375 . S
C128 C130 1.382 . S
C128 H132 0.950 . S
H129 C124 0.949 . S
C130 C125 1.399 . S
C130 C128 1.382 . S
C130 H131 0.952 . S
H131 C130 0.952 . S
H132 C128 0.950 . S
H133 C134 0.949 . S
C134 H133 0.949 . S
C134 C135 1.395 . S
C134 C136 1.391 . S
C135 C134 1.395 . S
C135 C138 1.390 . S
C136 C134 1.391 . S
C136 C140 1.387 . S
C136 C141 1.491 . S
H137 C138 0.950 . S
C138 C135 1.390 . S
C138 H137 0.950 . S
C138 C139 1.378 . S
C139 C138 1.378 . S
C139 C140 1.409 . S
C140 C136 1.387 . S
C140 C139 1.409 . S
C140 H142 0.951 . S
C141 C136 1.491 . S
C141 C143 1.382 . S
C141 C145 1.404 . S
H142 C140 0.951 . S
C143 C141 1.382 . S
C143 C144 1.390 . S
C143 H148 0.949 . S
C144 C143 1.390 . S
C144 C149 1.399 . S
C145 C141 1.404 . S
C145 H146 0.950 . S
C145 C147 1.375 . S
H146 C145 0.950 . S
C147 C145 1.375 . S
C147 C149 1.382 . S
C147 H151 0.950 . S
H148 C143 0.949 . S
C149 C144 1.399 . S
C149 C147 1.382 . S
C149 H150 0.952 . S
H150 C149 0.952 . S
H151 C147 0.950 . S
Zn152 O158 1.920 . S
Zn152 O164 1.898 . S
Zn152 O167 1.905 . S
Zn153 O161 1.929 . S
Zn153 O162 1.890 1_545 S
Zn153 O170 1.912 1_545 S
Zn154 O157 2.080 1_455 S
Zn154 O160 2.114 . S
Zn154 O163 2.120 1_445 S
Zn154 O165 2.120 . S
Zn154 O166 2.114 1_455 S
Zn154 O169 2.080 . S
C155 O160 1.166 . S
C155 O161 1.182 . S
C156 O162 1.167 1_655 S
C156 O163 1.299 . S
O157 Zn154 2.080 1_655 S
O157 C171 1.305 . S
O158 Zn152 1.920 . S
O158 C171 1.234 . S
C159 O164 1.167 1_455 S
C159 O165 1.299 . S
O160 Zn154 2.114 . S
O160 C155 1.166 . S
O161 Zn153 1.929 . S
O161 C155 1.182 . S
O162 Zn153 1.890 1_565 S
O162 C156 1.167 1_455 S
O163 Zn154 2.120 1_665 S
O163 C156 1.299 . S
O164 Zn152 1.898 . S
O164 C159 1.167 1_655 S
O165 Zn154 2.120 . S
O165 C159 1.299 . S
O166 Zn154 2.114 1_655 S
O166 C168 1.166 . S
O167 Zn152 1.905 . S
O167 C168 1.182 . S
C168 O166 1.166 . S
C168 O167 1.182 . S
O169 Zn154 2.080 . S
O169 C172 1.305 . S
O170 Zn153 1.912 1_565 S
O170 C172 1.234 1_565 S
C171 O157 1.305 . S
C171 O158 1.234 . S
C172 O169 1.305 . S
C172 O170 1.234 1_545 S
Zn173 O179 1.920 . S
Zn173 O185 1.898 . S
Zn173 O188 1.905 . S
Zn174 O182 1.905 1_565 S
Zn174 O183 1.898 . S
Zn174 O191 1.920 1_565 S
Zn175 O178 2.080 . S
Zn175 O181 2.114 . S
Zn175 O184 2.120 1_545 S
Zn175 O186 2.120 . S
Zn175 O187 2.114 . S
Zn175 O190 2.080 . S
C176 O181 1.166 . S
C176 O182 1.182 . S
C177 O183 1.167 . S
C177 O184 1.299 . S
O178 Zn175 2.080 . S
O178 C192 1.305 . S
O179 Zn173 1.920 . S
O179 C192 1.234 . S
C180 O185 1.167 . S
C180 O186 1.299 . S
O181 Zn175 2.114 . S
O181 C176 1.166 . S
O182 Zn174 1.905 1_545 S
O182 C176 1.182 . S
O183 Zn174 1.898 . S
O183 C177 1.167 . S
O184 Zn175 2.120 1_565 S
O184 C177 1.299 . S
O185 Zn173 1.898 . S
O185 C180 1.167 . S
O186 Zn175 2.120 . S
O186 C180 1.299 . S
O187 Zn175 2.114 . S
O187 C189 1.166 . S
O188 Zn173 1.905 . S
O188 C189 1.182 . S
C189 O187 1.166 . S
C189 O188 1.182 . S
O190 Zn175 2.080 . S
O190 C193 1.305 . S
O191 Zn174 1.920 1_545 S
O191 C193 1.234 . S
C192 O178 1.305 . S
C192 O179 1.234 . S
C193 O190 1.305 . S
C193 O191 1.234 . S
Zn194 O200 1.920 . S
Zn194 O206 1.898 . S
Zn194 O209 1.905 . S
Zn195 O203 1.905 . S
Zn195 O204 1.898 . S
Zn195 O212 1.920 . S
Zn196 O199 2.080 . S
Zn196 O202 2.114 . S
Zn196 O205 2.120 . S
Zn196 O207 2.120 . S
Zn196 O208 2.114 . S
Zn196 O211 2.080 . S
C197 O202 1.166 . S
C197 O203 1.182 . S
C198 O204 1.167 . S
C198 O205 1.299 . S
O199 Zn196 2.080 . S
O199 C213 1.305 . S
O200 Zn194 1.920 . S
O200 C213 1.234 . S
C201 O206 1.167 . S
C201 O207 1.299 . S
O202 Zn196 2.114 . S
O202 C197 1.166 . S
O203 Zn195 1.905 . S
O203 C197 1.182 . S
O204 Zn195 1.898 . S
O204 C198 1.167 . S
O205 Zn196 2.120 . S
O205 C198 1.299 . S
O206 Zn194 1.898 . S
O206 C201 1.167 . S
O207 Zn196 2.120 . S
O207 C201 1.299 . S
O208 Zn196 2.114 . S
O208 C210 1.166 . S
O209 Zn194 1.905 . S
O209 C210 1.182 . S
C210 O208 1.166 . S
C210 O209 1.182 . S
O211 Zn196 2.080 . S
O211 C214 1.305 . S
O212 Zn195 1.920 . S
O212 C214 1.234 . S
C213 O199 1.305 . S
C213 O200 1.234 . S
C214 O211 1.305 . S
C214 O212 1.234 . S
Zn215 O221 1.920 . S
Zn215 O227 1.898 1_556 S
Zn215 O230 1.905 . S
Zn216 O224 1.905 1_655 S
Zn216 O225 1.898 . S
Zn216 O233 1.920 . S
Zn217 O220 2.080 . S
Zn217 O223 2.114 . S
Zn217 O226 2.120 1_455 S
Zn217 O228 2.120 . S
Zn217 O229 2.114 1_554 S
Zn217 O232 2.080 . S
C218 O223 1.166 . S
C218 O224 1.182 . S
C219 O225 1.167 . S
C219 O226 1.299 . S
O220 Zn217 2.080 . S
O220 C234 1.306 . S
O221 Zn215 1.920 . S
O221 C234 1.222 1_556 S
C222 O227 1.167 . S
C222 O228 1.299 . S
O223 Zn217 2.114 . S
O223 C218 1.166 . S
O224 Zn216 1.905 1_455 S
O224 C218 1.182 . S
O225 Zn216 1.898 . S
O225 C219 1.167 . S
O226 Zn217 2.120 1_655 S
O226 C219 1.299 . S
O227 Zn215 1.898 1_554 S
O227 C222 1.167 . S
O228 Zn217 2.120 . S
O228 C222 1.299 . S
O229 Zn217 2.114 1_556 S
O229 C231 1.166 . S
O230 Zn215 1.905 . S
O230 C231 1.182 . S
C231 O229 1.166 . S
C231 O230 1.182 . S
O232 Zn217 2.080 . S
O232 C235 1.305 1_455 S
O233 Zn216 1.920 . S
O233 C235 1.234 . S
C234 O220 1.306 . S
C234 O221 1.222 1_554 S
C235 O232 1.305 1_655 S
C235 O233 1.234 . S
H236 C248 0.930 . S
H237 C250 0.930 . S
H238 C251 0.930 . S
H239 C255 0.959 . S
H240 C255 0.959 . S
H241 C255 0.961 . S
H242 C256 0.960 . S
H243 C256 0.961 . S
H244 C256 0.959 . S
H245 C259 0.929 . S
H246 C260 0.931 . S
H247 C262 0.930 . S
C248 H236 0.930 . S
C248 C249 1.399 . S
C248 C253 1.399 . S
C249 C248 1.399 . S
C249 C250 1.376 . S
C250 H237 0.930 . S
C250 C249 1.376 . S
C250 C251 1.388 . S
C251 H238 0.930 . S
C251 C250 1.388 . S
C251 C252 1.390 . S
C252 C251 1.390 . S
C252 C253 1.394 . S
C252 C258 1.465 . S
C253 C248 1.399 . S
C253 C252 1.394 . S
C253 C254 1.516 . S
C254 C253 1.516 . S
C254 C255 1.502 . S
C254 C256 1.561 . S
C254 C257 1.526 . S
C255 H239 0.959 . S
C255 H240 0.959 . S
C255 H241 0.961 . S
C255 C254 1.502 . S
C256 H242 0.960 . S
C256 H243 0.961 . S
C256 H244 0.959 . S
C256 C254 1.561 . S
C257 C254 1.526 . S
C257 C258 1.396 . S
C257 C262 1.390 . S
C258 C252 1.465 . S
C258 C257 1.396 . S
C258 C259 1.399 . S
C259 H245 0.929 . S
C259 C258 1.399 . S
C259 C260 1.385 . S
C260 H246 0.931 . S
C260 C259 1.385 . S
C260 C261 1.389 . S
C261 C260 1.389 . S
C261 C262 1.387 . S
C262 H247 0.930 . S
C262 C257 1.390 . S
C262 C261 1.387 . S
H263 C275 0.930 . S
H264 C277 0.930 . S
H265 C278 0.930 . S
H266 C282 0.959 . S
H267 C282 0.959 . S
H268 C282 0.961 . S
H269 C283 0.960 . S
H270 C283 0.961 1_545 S
H271 C283 0.959 . S
H272 C286 0.929 . S
H273 C287 0.931 1_554 S
H274 C289 0.930 1_545 S
C275 H263 0.930 . S
C275 C276 1.399 . S
C275 C280 1.399 . S
C276 C275 1.399 . S
C276 C277 1.376 . S
C277 H264 0.930 . S
C277 C276 1.376 . S
C277 C278 1.388 . S
C278 H265 0.930 . S
C278 C277 1.388 . S
C278 C279 1.390 . S
C279 C278 1.390 . S
C279 C280 1.394 . S
C279 C285 1.465 . S
C280 C275 1.399 . S
C280 C279 1.394 . S
C280 C281 1.516 . S
C281 C280 1.516 . S
C281 C282 1.502 1_565 S
C281 C283 1.561 . S
C281 C284 1.526 . S
C282 H266 0.959 . S
C282 H267 0.959 . S
C282 H268 0.961 . S
C282 C281 1.502 1_545 S
C283 H269 0.960 . S
C283 H270 0.961 1_565 S
C283 H271 0.959 . S
C283 C281 1.561 . S
C284 C281 1.526 . S
C284 C285 1.396 . S
C284 C289 1.390 . S
C285 C279 1.465 . S
C285 C284 1.396 . S
C285 C286 1.399 . S
C286 H272 0.929 . S
C286 C285 1.399 . S
C286 C287 1.385 . S
C287 H273 0.931 1_556 S
C287 C286 1.385 . S
C287 C288 1.389 . S
C288 C287 1.389 . S
C288 C289 1.387 . S
C289 H274 0.930 1_565 S
C289 C284 1.390 . S
C289 C288 1.387 . S
H290 C302 0.930 . S
H291 C304 0.930 . S
H292 C305 0.930 . S
H293 C309 0.959 . S
H294 C309 0.959 . S
H295 C309 0.961 . S
H296 C310 0.960 . S
H297 C310 0.961 . S
H298 C310 0.959 . S
H299 C313 0.929 . S
H300 C314 0.931 . S
H301 C316 0.930 . S
C302 H290 0.930 . S
C302 C303 1.399 . S
C302 C307 1.399 . S
C303 C302 1.399 . S
C303 C304 1.376 . S
C304 H291 0.930 . S
C304 C303 1.376 . S
C304 C305 1.388 . S
C305 H292 0.930 . S
C305 C304 1.388 . S
C305 C306 1.390 . S
C306 C305 1.390 . S
C306 C307 1.394 . S
C306 C312 1.465 . S
C307 C302 1.399 . S
C307 C306 1.394 . S
C307 C308 1.516 . S
C308 C307 1.516 . S
C308 C309 1.502 . S
C308 C310 1.561 . S
C308 C311 1.526 . S
C309 H293 0.959 . S
C309 H294 0.959 . S
C309 H295 0.961 . S
C309 C308 1.502 . S
C310 H296 0.960 . S
C310 H297 0.961 . S
C310 H298 0.959 . S
C310 C308 1.561 . S
C311 C308 1.526 . S
C311 C312 1.396 . S
C311 C316 1.390 . S
C312 C306 1.465 . S
C312 C311 1.396 . S
C312 C313 1.399 . S
C313 H299 0.929 . S
C313 C312 1.399 . S
C313 C314 1.385 . S
C314 H300 0.931 . S
C314 C313 1.385 . S
C314 C315 1.389 . S
C315 C314 1.389 . S
C315 C316 1.387 . S
C316 H301 0.930 . S
C316 C311 1.390 . S
C316 C315 1.387 . S
H317 C329 0.930 . S
H318 C331 0.930 . S
H319 C332 0.930 . S
H320 C336 0.959 . S
H321 C336 0.959 . S
H322 C336 0.961 . S
H323 C337 0.960 . S
H324 C337 0.961 . S
H325 C337 0.959 1_455 S
H326 C340 0.929 . S
H327 C341 0.931 . S
H328 C343 0.930 . S
C329 H317 0.930 . S
C329 C330 1.399 . S
C329 C334 1.399 . S
C330 C329 1.399 . S
C330 C331 1.376 . S
C331 H318 0.930 . S
C331 C330 1.376 . S
C331 C332 1.388 . S
C332 H319 0.930 . S
C332 C331 1.388 . S
C332 C333 1.390 . S
C333 C332 1.390 . S
C333 C334 1.394 . S
C333 C339 1.465 . S
C334 C329 1.399 . S
C334 C333 1.394 . S
C334 C335 1.516 . S
C335 C334 1.516 . S
C335 C336 1.502 . S
C335 C337 1.561 . S
C335 C338 1.526 . S
C336 H320 0.959 . S
C336 H321 0.959 . S
C336 H322 0.961 . S
C336 C335 1.502 . S
C337 H323 0.960 . S
C337 H324 0.961 . S
C337 H325 0.959 1_655 S
C337 C335 1.561 . S
C338 C335 1.526 . S
C338 C339 1.396 . S
C338 C343 1.390 . S
C339 C333 1.465 . S
C339 C338 1.396 . S
C339 C340 1.399 . S
C340 H326 0.929 . S
C340 C339 1.399 . S
C340 C341 1.385 . S
C341 H327 0.931 . S
C341 C340 1.385 . S
C341 C342 1.389 . S
C342 C341 1.389 . S
C342 C343 1.387 . S
C343 H328 0.930 . S
C343 C338 1.390 . S
C343 C342 1.387 . S
H344 C356 0.930 . S
H345 C358 0.930 . S
H346 C359 0.930 . S
H347 C363 0.959 . S
H348 C363 0.959 . S
H349 C363 0.961 . S
H350 C364 0.960 . S
H351 C364 0.961 . S
H352 C364 0.959 . S
H353 C367 0.929 . S
H354 C368 0.931 . S
H355 C370 0.930 . S
C356 H344 0.930 . S
C356 C357 1.399 . S
C356 C361 1.399 . S
C357 C356 1.399 . S
C357 C358 1.376 . S
C358 H345 0.930 . S
C358 C357 1.376 . S
C358 C359 1.388 . S
C359 H346 0.930 . S
C359 C358 1.388 . S
C359 C360 1.390 . S
C360 C359 1.390 . S
C360 C361 1.394 . S
C360 C366 1.465 . S
C361 C356 1.399 . S
C361 C360 1.394 . S
C361 C362 1.516 . S
C362 C361 1.516 . S
C362 C363 1.502 . S
C362 C364 1.561 . S
C362 C365 1.526 . S
C363 H347 0.959 . S
C363 H348 0.959 . S
C363 H349 0.961 . S
C363 C362 1.502 . S
C364 H350 0.960 . S
C364 H351 0.961 . S
C364 H352 0.959 . S
C364 C362 1.561 . S
C365 C362 1.526 . S
C365 C366 1.396 . S
C365 C370 1.390 . S
C366 C360 1.465 . S
C366 C365 1.396 . S
C366 C367 1.399 . S
C367 H353 0.929 . S
C367 C366 1.399 . S
C367 C368 1.385 . S
C368 H354 0.931 . S
C368 C367 1.385 . S
C368 C369 1.389 . S
C369 C368 1.389 . S
C369 C370 1.387 . S
C370 H355 0.930 . S
C370 C365 1.390 . S
C370 C369 1.387 . S
H371 C383 0.930 . S
H372 C385 0.930 . S
H373 C386 0.930 . S
H374 C390 0.959 . S
H375 C390 0.959 . S
H376 C390 0.961 . S
H377 C391 0.960 . S
H378 C391 0.961 . S
H379 C391 0.959 . S
H380 C394 0.929 . S
H381 C395 0.931 . S
H382 C397 0.930 . S
C383 H371 0.930 . S
C383 C384 1.399 . S
C383 C388 1.399 . S
C384 C383 1.399 . S
C384 C385 1.376 . S
C385 H372 0.930 . S
C385 C384 1.376 . S
C385 C386 1.388 . S
C386 H373 0.930 . S
C386 C385 1.388 . S
C386 C387 1.390 . S
C387 C386 1.390 . S
C387 C388 1.394 . S
C387 C393 1.465 . S
C388 C383 1.399 . S
C388 C387 1.394 . S
C388 C389 1.516 1_565 S
C389 C388 1.516 1_545 S
C389 C390 1.502 . S
C389 C391 1.561 . S
C389 C392 1.526 . S
C390 H374 0.959 . S
C390 H375 0.959 . S
C390 H376 0.961 . S
C390 C389 1.502 . S
C391 H377 0.960 . S
C391 H378 0.961 . S
C391 H379 0.959 . S
C391 C389 1.561 . S
C392 C389 1.526 . S
C392 C393 1.396 1_545 S
C392 C397 1.390 . S
C393 C387 1.465 . S
C393 C392 1.396 1_565 S
C393 C394 1.399 . S
C394 H380 0.929 . S
C394 C393 1.399 . S
C394 C395 1.385 . S
C395 H381 0.931 . S
C395 C394 1.385 . S
C395 C396 1.389 1_565 S
C396 C395 1.389 1_545 S
C396 C397 1.387 . S
C397 H382 0.930 . S
C397 C392 1.390 . S
C397 C396 1.387 . S
H398 C410 0.930 . S
H399 C412 0.930 . S
H400 C413 0.930 . S
H401 C417 0.959 . S
H402 C417 0.959 . S
H403 C417 0.961 . S
H404 C418 0.960 . S
H405 C418 0.961 . S
H406 C418 0.959 . S
H407 C421 0.929 . S
H408 C422 0.931 . S
H409 C424 0.930 . S
C410 H398 0.930 . S
C410 C411 1.399 . S
C410 C415 1.399 . S
C411 C410 1.399 . S
C411 C412 1.376 . S
C412 H399 0.930 . S
C412 C411 1.376 . S
C412 C413 1.388 . S
C413 H400 0.930 . S
C413 C412 1.388 . S
C413 C414 1.390 . S
C414 C413 1.390 . S
C414 C415 1.394 . S
C414 C420 1.465 . S
C415 C410 1.399 . S
C415 C414 1.394 . S
C415 C416 1.516 . S
C416 C415 1.516 . S
C416 C417 1.502 . S
C416 C418 1.561 . S
C416 C419 1.526 . S
C417 H401 0.959 . S
C417 H402 0.959 . S
C417 H403 0.961 . S
C417 C416 1.502 . S
C418 H404 0.960 . S
C418 H405 0.961 . S
C418 H406 0.959 . S
C418 C416 1.561 . S
C419 C416 1.526 . S
C419 C420 1.396 . S
C419 C424 1.390 . S
C420 C414 1.465 . S
C420 C419 1.396 . S
C420 C421 1.399 . S
C421 H407 0.929 . S
C421 C420 1.399 . S
C421 C422 1.385 . S
C422 H408 0.931 . S
C422 C421 1.385 . S
C422 C423 1.389 . S
C423 C422 1.389 . S
C423 C424 1.387 . S
C424 H409 0.930 . S
C424 C419 1.390 . S
C424 C423 1.387 . S
H425 C437 0.930 . S
H426 C439 0.930 . S
H427 C440 0.930 . S
H428 C444 0.959 . S
H429 C444 0.959 . S
H430 C444 0.961 . S
H431 C445 0.960 . S
H432 C445 0.961 . S
H433 C445 0.959 . S
H434 C448 0.929 . S
H435 C449 0.931 . S
H436 C451 0.930 . S
C437 H425 0.930 . S
C437 C438 1.399 . S
C437 C442 1.399 . S
C438 C437 1.399 . S
C438 C439 1.376 . S
C439 H426 0.930 . S
C439 C438 1.376 . S
C439 C440 1.388 . S
C440 H427 0.930 . S
C440 C439 1.388 . S
C440 C441 1.390 . S
C441 C440 1.390 . S
C441 C442 1.394 . S
C441 C447 1.465 . S
C442 C437 1.399 . S
C442 C441 1.394 . S
C442 C443 1.516 . S
C443 C442 1.516 . S
C443 C444 1.502 . S
C443 C445 1.561 . S
C443 C446 1.526 . S
C444 H428 0.959 . S
C444 H429 0.959 . S
C444 H430 0.961 . S
C444 C443 1.502 . S
C445 H431 0.960 . S
C445 H432 0.961 . S
C445 H433 0.959 . S
C445 C443 1.561 . S
C446 C443 1.526 . S
C446 C447 1.396 . S
C446 C451 1.390 . S
C447 C441 1.465 . S
C447 C446 1.396 . S
C447 C448 1.399 . S
C448 H434 0.929 . S
C448 C447 1.399 . S
C448 C449 1.385 . S
C449 H435 0.931 . S
C449 C448 1.385 . S
C449 C450 1.389 . S
C450 C449 1.389 . S
C450 C451 1.387 . S
C451 H436 0.930 . S
C451 C446 1.390 . S
C451 C450 1.387 . S
H452 C464 0.930 . S
H453 C466 0.930 . S
H454 C467 0.930 . S
H455 C471 0.959 . S
H456 C471 0.959 . S
H457 C471 0.961 . S
H458 C472 0.960 . S
H459 C472 0.961 . S
H460 C472 0.959 . S
H461 C475 0.929 . S
H462 C476 0.931 . S
H463 C478 0.930 . S
C464 H452 0.930 . S
C464 C465 1.399 . S
C464 C469 1.399 . S
C465 C464 1.399 . S
C465 C466 1.376 . S
C466 H453 0.930 . S
C466 C465 1.376 . S
C466 C467 1.388 . S
C467 H454 0.930 . S
C467 C466 1.388 . S
C467 C468 1.390 . S
C468 C467 1.390 . S
C468 C469 1.394 . S
C468 C474 1.465 . S
C469 C464 1.399 . S
C469 C468 1.394 . S
C469 C470 1.516 . S
C470 C469 1.516 . S
C470 C471 1.502 . S
C470 C472 1.561 . S
C470 C473 1.526 . S
C471 H455 0.959 . S
C471 H456 0.959 . S
C471 H457 0.961 . S
C471 C470 1.502 . S
C472 H458 0.960 . S
C472 H459 0.961 . S
C472 H460 0.959 . S
C472 C470 1.561 . S
C473 C470 1.526 . S
C473 C474 1.396 . S
C473 C478 1.390 . S
C474 C468 1.465 . S
C474 C473 1.396 . S
C474 C475 1.399 . S
C475 H461 0.929 . S
C475 C474 1.399 . S
C475 C476 1.385 . S
C476 H462 0.931 . S
C476 C475 1.385 . S
C476 C477 1.389 . S
C477 C476 1.389 . S
C477 C478 1.387 . S
C478 H463 0.930 . S
C478 C473 1.390 . S
C478 C477 1.387 . S
H479 C491 0.930 . S
H480 C493 0.930 . S
H481 C494 0.930 . S
H482 C498 0.959 . S
H483 C498 0.959 . S
H484 C498 0.961 . S
H485 C499 0.960 . S
H486 C499 0.961 . S
H487 C499 0.959 . S
H488 C502 0.929 . S
H489 C503 0.930 1_556 S
H490 C505 0.930 . S
C491 H479 0.930 . S
C491 C492 1.399 . S
C491 C496 1.399 . S
C492 C491 1.399 . S
C492 C493 1.376 . S
C493 H480 0.930 . S
C493 C492 1.376 . S
C493 C494 1.388 . S
C494 H481 0.930 . S
C494 C493 1.388 . S
C494 C495 1.390 . S
C495 C494 1.390 . S
C495 C496 1.394 . S
C495 C501 1.465 . S
C496 C491 1.399 . S
C496 C495 1.394 . S
C496 C497 1.516 1_556 S
C497 C496 1.516 1_554 S
C497 C498 1.502 . S
C497 C499 1.561 . S
C497 C500 1.526 . S
C498 H482 0.959 . S
C498 H483 0.959 . S
C498 H484 0.961 . S
C498 C497 1.502 . S
C499 H485 0.960 . S
C499 H486 0.961 . S
C499 H487 0.959 . S
C499 C497 1.561 . S
C500 C497 1.526 . S
C500 C501 1.396 1_554 S
C500 C505 1.390 . S
C501 C495 1.465 . S
C501 C500 1.396 1_556 S
C501 C502 1.399 . S
C502 H488 0.929 . S
C502 C501 1.399 . S
C502 C503 1.385 1_556 S
C503 H489 0.930 1_554 S
C503 C502 1.385 1_554 S
C503 C504 1.390 . S
C504 C503 1.390 . S
C504 C505 1.387 . S
C505 H490 0.930 . S
C505 C500 1.390 . S
C505 C504 1.387 . S
H506 C518 0.930 . S
H507 C520 0.930 . S
H508 C521 0.930 . S
H509 C525 0.959 . S
H510 C525 0.959 . S
H511 C525 0.961 . S
H512 C526 0.960 . S
H513 C526 0.961 . S
H514 C526 0.959 . S
H515 C529 0.929 . S
H516 C530 0.931 . S
H517 C532 0.930 . S
C518 H506 0.930 . S
C518 C519 1.399 . S
C518 C523 1.399 . S
C519 C518 1.399 . S
C519 C520 1.376 . S
C520 H507 0.930 . S
C520 C519 1.376 . S
C520 C521 1.388 . S
C521 H508 0.930 . S
C521 C520 1.388 . S
C521 C522 1.390 . S
C522 C521 1.390 . S
C522 C523 1.394 . S
C522 C528 1.465 . S
C523 C518 1.399 . S
C523 C522 1.394 . S
C523 C524 1.516 . S
C524 C523 1.516 . S
C524 C525 1.502 . S
C524 C526 1.561 . S
C524 C527 1.526 . S
C525 H509 0.959 . S
C525 H510 0.959 . S
C525 H511 0.961 . S
C525 C524 1.502 . S
C526 H512 0.960 . S
C526 H513 0.961 . S
C526 H514 0.959 . S
C526 C524 1.561 . S
C527 C524 1.526 . S
C527 C528 1.396 . S
C527 C532 1.390 . S
C528 C522 1.465 . S
C528 C527 1.396 . S
C528 C529 1.399 . S
C529 H515 0.929 . S
C529 C528 1.399 . S
C529 C530 1.385 . S
C530 H516 0.931 . S
C530 C529 1.385 . S
C530 C531 1.389 . S
C531 C530 1.389 . S
C531 C532 1.387 . S
C532 H517 0.930 . S
C532 C527 1.390 . S
C532 C531 1.387 . S
H533 C545 0.930 . S
H534 C547 0.930 . S
H535 C548 0.930 . S
H536 C552 0.959 . S
H537 C552 0.959 . S
H538 C552 0.961 . S
H539 C553 0.960 . S
H540 C553 0.961 . S
H541 C553 0.959 . S
H542 C556 0.929 . S
H543 C557 0.931 . S
H544 C559 0.930 . S
C545 H533 0.930 . S
C545 C546 1.399 . S
C545 C550 1.399 . S
C546 C545 1.399 . S
C546 C547 1.376 . S
C547 H534 0.930 . S
C547 C546 1.376 . S
C547 C548 1.388 . S
C548 H535 0.930 . S
C548 C547 1.388 . S
C548 C549 1.390 . S
C549 C548 1.390 . S
C549 C550 1.394 . S
C549 C555 1.465 . S
C550 C545 1.399 . S
C550 C549 1.394 . S
C550 C551 1.516 . S
C551 C550 1.516 . S
C551 C552 1.502 . S
C551 C553 1.561 . S
C551 C554 1.526 . S
C552 H536 0.959 . S
C552 H537 0.959 . S
C552 H538 0.961 . S
C552 C551 1.502 . S
C553 H539 0.960 . S
C553 H540 0.961 . S
C553 H541 0.959 . S
C553 C551 1.561 . S
C554 C551 1.526 . S
C554 C555 1.396 . S
C554 C559 1.390 . S
C555 C549 1.465 . S
C555 C554 1.396 . S
C555 C556 1.399 . S
C556 H542 0.929 . S
C556 C555 1.399 . S
C556 C557 1.385 . S
C557 H543 0.931 . S
C557 C556 1.385 . S
C557 C558 1.389 . S
C558 C557 1.389 . S
C558 C559 1.387 . S
C559 H544 0.930 . S
C559 C554 1.390 . S
C559 C558 1.387 . S
H560 C572 0.930 . S
H561 C574 0.930 . S
H562 C575 0.930 . S
H563 C579 0.959 . S
H564 C579 0.959 . S
H565 C579 0.961 . S
H566 C580 0.960 . S
H567 C580 0.961 . S
H568 C580 0.959 . S
H569 C583 0.929 . S
H570 C584 0.931 1_455 S
H571 C586 0.930 . S
C572 H560 0.930 . S
C572 C573 1.399 . S
C572 C577 1.399 . S
C573 C572 1.399 . S
C573 C574 1.376 1_645 S
C574 H561 0.930 . S
C574 C573 1.376 1_465 S
C574 C575 1.388 . S
C575 H562 0.930 . S
C575 C574 1.388 . S
C575 C576 1.410 1_455 S
C576 C575 1.410 1_655 S
C576 C577 1.372 1_565 S
C576 C582 1.463 1_565 S
C577 C572 1.399 . S
C577 C576 1.372 1_545 S
C577 C578 1.516 . S
C578 C577 1.516 . S
C578 C579 1.502 . S
C578 C580 1.561 1_655 S
C578 C581 1.526 . S
C579 H563 0.959 . S
C579 H564 0.959 . S
C579 H565 0.961 . S
C579 C578 1.502 . S
C580 H566 0.960 . S
C580 H567 0.961 . S
C580 H568 0.959 . S
C580 C578 1.561 1_455 S
C581 C578 1.526 . S
C581 C582 1.396 . S
C581 C586 1.390 . S
C582 C576 1.463 1_545 S
C582 C581 1.396 . S
C582 C583 1.399 1_645 S
C583 H569 0.929 . S
C583 C582 1.399 1_465 S
C583 C584 1.385 1_455 S
C584 H570 0.931 1_655 S
C584 C583 1.385 1_655 S
C584 C585 1.389 1_565 S
C585 C584 1.389 1_545 S
C585 C586 1.387 . S
C586 H571 0.930 . S
C586 C581 1.390 . S
C586 C585 1.387 . S
H587 C599 0.930 . S
H588 C601 0.930 . S
H589 C602 0.930 . S
H590 C606 0.959 . S
H591 C606 0.959 . S
H592 C606 0.961 . S
H593 C607 0.960 . S
H594 C607 0.961 . S
H595 C607 0.959 . S
H596 C610 0.929 1_565 S
H597 C611 0.931 . S
H598 C613 0.930 . S
C599 H587 0.930 . S
C599 C600 1.399 . S
C599 C604 1.399 . S
C600 C599 1.399 . S
C600 C601 1.376 . S
C601 H588 0.930 . S
C601 C600 1.376 . S
C601 C602 1.388 . S
C602 H589 0.930 . S
C602 C601 1.388 . S
C602 C603 1.390 . S
C603 C602 1.390 . S
C603 C604 1.394 . S
C603 C609 1.465 . S
C604 C599 1.399 . S
C604 C603 1.394 . S
C604 C605 1.516 . S
C605 C604 1.516 . S
C605 C606 1.502 . S
C605 C607 1.561 . S
C605 C608 1.526 . S
C606 H590 0.959 . S
C606 H591 0.959 . S
C606 H592 0.961 . S
C606 C605 1.502 . S
C607 H593 0.960 . S
C607 H594 0.961 . S
C607 H595 0.959 . S
C607 C605 1.561 . S
C608 C605 1.526 . S
C608 C609 1.396 . S
C608 C613 1.390 . S
C609 C603 1.465 . S
C609 C608 1.396 . S
C609 C610 1.399 . S
C610 H596 0.929 1_545 S
C610 C609 1.399 . S
C610 C611 1.385 . S
C611 H597 0.931 . S
C611 C610 1.385 . S
C611 C612 1.389 . S
C612 C611 1.389 . S
C612 C613 1.387 . S
C613 H598 0.930 . S
C613 C608 1.390 . S
C613 C612 1.387 . S
H614 C626 0.930 . S
H615 C628 0.930 . S
H616 C629 0.930 . S
H617 C633 0.959 . S
H618 C633 0.959 . S
H619 C633 0.961 . S
H620 C634 0.960 . S
H621 C634 0.961 . S
H622 C634 0.959 . S
H623 C637 0.929 . S
H624 C638 0.931 . S
H625 C640 0.930 . S
C626 H614 0.930 . S
C626 C627 1.399 . S
C626 C631 1.399 . S
C627 C626 1.399 . S
C627 C628 1.376 . S
C628 H615 0.930 . S
C628 C627 1.376 . S
C628 C629 1.388 . S
C629 H616 0.930 . S
C629 C628 1.388 . S
C629 C630 1.390 . S
C630 C629 1.390 . S
C630 C631 1.394 . S
C630 C636 1.465 . S
C631 C626 1.399 . S
C631 C630 1.394 . S
C631 C632 1.516 . S
C632 C631 1.516 . S
C632 C633 1.502 . S
C632 C634 1.561 . S
C632 C635 1.526 . S
C633 H617 0.959 . S
C633 H618 0.959 . S
C633 H619 0.961 . S
C633 C632 1.502 . S
C634 H620 0.960 . S
C634 H621 0.961 . S
C634 H622 0.959 . S
C634 C632 1.561 . S
C635 C632 1.526 . S
C635 C636 1.396 . S
C635 C640 1.390 . S
C636 C630 1.465 . S
C636 C635 1.396 . S
C636 C637 1.399 . S
C637 H623 0.929 . S
C637 C636 1.399 . S
C637 C638 1.385 . S
C638 H624 0.931 . S
C638 C637 1.385 . S
C638 C639 1.389 . S
C639 C638 1.389 . S
C639 C640 1.387 . S
C640 H625 0.930 . S
C640 C635 1.390 . S
C640 C639 1.387 . S
H641 C653 0.930 . S
H642 C655 0.930 . S
H643 C656 0.930 . S
H644 C660 0.959 1_655 S
H645 C660 0.959 . S
H646 C660 0.961 . S
H647 C661 0.960 . S
H648 C661 0.961 . S
H649 C661 0.959 . S
H650 C664 0.929 . S
H651 C665 0.931 . S
H652 C667 0.930 . S
C653 H641 0.930 . S
C653 C654 1.399 . S
C653 C658 1.399 . S
C654 C653 1.399 . S
C654 C655 1.376 . S
C655 H642 0.930 . S
C655 C654 1.376 . S
C655 C656 1.388 . S
C656 H643 0.930 . S
C656 C655 1.388 . S
C656 C657 1.390 . S
C657 C656 1.390 . S
C657 C658 1.394 . S
C657 C663 1.465 . S
C658 C653 1.399 . S
C658 C657 1.394 . S
C658 C659 1.516 . S
C659 C658 1.516 . S
C659 C660 1.502 . S
C659 C661 1.561 . S
C659 C662 1.526 . S
C660 H644 0.959 1_455 S
C660 H645 0.959 . S
C660 H646 0.961 . S
C660 C659 1.502 . S
C661 H647 0.960 . S
C661 H648 0.961 . S
C661 H649 0.959 . S
C661 C659 1.561 . S
C662 C659 1.526 . S
C662 C663 1.396 . S
C662 C667 1.390 . S
C663 C657 1.465 . S
C663 C662 1.396 . S
C663 C664 1.399 . S
C664 H650 0.929 . S
C664 C663 1.399 . S
C664 C665 1.385 . S
C665 H651 0.931 . S
C665 C664 1.385 . S
C665 C666 1.389 . S
C666 C665 1.389 . S
C666 C667 1.387 . S
C667 H652 0.930 . S
C667 C662 1.390 . S
C667 C666 1.387 . S
H668 C680 0.930 . S
H669 C682 0.930 . S
H670 C683 0.930 . S
H671 C687 0.959 . S
H672 C687 0.959 . S
H673 C687 0.961 . S
H674 C688 0.960 . S
H675 C688 0.961 . S
H676 C688 0.959 1_556 S
H677 C691 0.929 . S
H678 C692 0.931 . S
H679 C694 0.930 . S
C680 H668 0.930 . S
C680 C681 1.399 . S
C680 C685 1.399 . S
C681 C680 1.399 . S
C681 C682 1.376 1_545 S
C682 H669 0.930 . S
C682 C681 1.376 1_565 S
C682 C683 1.388 . S
C683 H670 0.930 . S
C683 C682 1.388 . S
C683 C684 1.390 1_565 S
C684 C683 1.390 1_545 S
C684 C685 1.394 . S
C684 C690 1.465 . S
C685 C680 1.399 . S
C685 C684 1.394 . S
C685 C686 1.516 . S
C686 C685 1.516 . S
C686 C687 1.502 . S
C686 C688 1.561 . S
C686 C689 1.526 . S
C687 H671 0.959 . S
C687 H672 0.959 . S
C687 H673 0.961 . S
C687 C686 1.502 . S
C688 H674 0.960 . S
C688 H675 0.961 . S
C688 H676 0.959 1_554 S
C688 C686 1.561 . S
C689 C686 1.526 . S
C689 C690 1.396 . S
C689 C694 1.390 . S
C690 C684 1.465 . S
C690 C689 1.396 . S
C690 C691 1.399 1_545 S
C691 H677 0.929 . S
C691 C690 1.399 1_565 S
C691 C692 1.385 . S
C692 H678 0.931 . S
C692 C691 1.385 . S
C692 C693 1.389 1_565 S
C693 C692 1.389 1_545 S
C693 C694 1.387 . S
C694 H679 0.930 . S
C694 C689 1.390 . S
C694 C693 1.387 . S
H695 C707 0.930 . S
H696 C709 0.930 . S
H697 C710 0.930 . S
H698 C714 0.959 . S
H699 C714 0.959 1_565 S
H700 C714 0.961 1_565 S
H701 C715 0.960 . S
H702 C715 0.961 1_565 S
H703 C715 0.959 . S
H704 C718 0.929 . S
H705 C719 0.931 . S
H706 C721 0.930 . S
C707 H695 0.930 . S
C707 C708 1.399 . S
C707 C712 1.399 . S
C708 C707 1.399 . S
C708 C709 1.376 . S
C709 H696 0.930 . S
C709 C708 1.376 . S
C709 C710 1.388 . S
C710 H697 0.930 . S
C710 C709 1.388 . S
C710 C711 1.390 . S
C711 C710 1.390 . S
C711 C712 1.394 . S
C711 C717 1.465 . S
C712 C707 1.399 . S
C712 C711 1.394 . S
C712 C713 1.516 . S
C713 C712 1.516 . S
C713 C714 1.502 . S
C713 C715 1.561 . S
C713 C716 1.526 . S
C714 H698 0.959 . S
C714 H699 0.959 1_545 S
C714 H700 0.961 1_545 S
C714 C713 1.502 . S
C715 H701 0.960 . S
C715 H702 0.961 1_545 S
C715 H703 0.959 . S
C715 C713 1.561 . S
C716 C713 1.526 . S
C716 C717 1.396 . S
C716 C721 1.390 . S
C717 C711 1.465 . S
C717 C716 1.396 . S
C717 C718 1.399 . S
C718 H704 0.929 . S
C718 C717 1.399 . S
C718 C719 1.385 . S
C719 H705 0.931 . S
C719 C718 1.385 . S
C719 C720 1.389 . S
C720 C719 1.389 . S
C720 C721 1.387 . S
C721 H706 0.930 . S
C721 C716 1.390 . S
C721 C720 1.387 . S
H722 C734 0.930 . S
H723 C736 0.930 . S
H724 C737 0.930 . S
H725 C741 0.959 . S
H726 C741 0.959 . S
H727 C741 0.961 . S
H728 C742 0.960 . S
H729 C742 0.961 . S
H730 C742 0.959 . S
H731 C745 0.929 . S
H732 C746 0.931 . S
H733 C748 0.930 . S
C734 H722 0.930 . S
C734 C735 1.399 . S
C734 C739 1.399 . S
C735 C734 1.399 . S
C735 C736 1.376 . S
C736 H723 0.930 . S
C736 C735 1.376 . S
C736 C737 1.388 . S
C737 H724 0.930 . S
C737 C736 1.388 . S
C737 C738 1.390 . S
C738 C737 1.390 . S
C738 C739 1.394 . S
C738 C744 1.465 . S
C739 C734 1.399 . S
C739 C738 1.394 . S
C739 C740 1.516 . S
C740 C739 1.516 . S
C740 C741 1.502 . S
C740 C742 1.561 . S
C740 C743 1.526 . S
C741 H725 0.959 . S
C741 H726 0.959 . S
C741 H727 0.961 . S
C741 C740 1.502 . S
C742 H728 0.960 . S
C742 H729 0.961 . S
C742 H730 0.959 . S
C742 C740 1.561 . S
C743 C740 1.526 . S
C743 C744 1.396 . S
C743 C748 1.390 . S
C744 C738 1.465 . S
C744 C743 1.396 . S
C744 C745 1.399 . S
C745 H731 0.929 . S
C745 C744 1.399 . S
C745 C746 1.385 . S
C746 H732 0.931 . S
C746 C745 1.385 . S
C746 C747 1.389 . S
C747 C746 1.389 . S
C747 C748 1.387 . S
C748 H733 0.930 . S
C748 C743 1.390 . S
C748 C747 1.387 . S
H749 C761 0.930 . S
H750 C763 0.930 . S
H751 C764 0.930 . S
H752 C768 0.959 . S
H753 C768 0.959 . S
H754 C768 0.961 . S
H755 C769 0.960 . S
H756 C769 0.961 . S
H757 C769 0.959 . S
H758 C772 0.929 . S
H759 C773 0.931 . S
H760 C775 0.930 . S
C761 H749 0.930 . S
C761 C762 1.399 . S
C761 C766 1.399 . S
C762 C761 1.399 . S
C762 C763 1.376 . S
C763 H750 0.930 . S
C763 C762 1.376 . S
C763 C764 1.388 . S
C764 H751 0.930 . S
C764 C763 1.388 . S
C764 C765 1.390 . S
C765 C764 1.390 . S
C765 C766 1.394 . S
C765 C771 1.465 . S
C766 C761 1.399 . S
C766 C765 1.394 . S
C766 C767 1.516 . S
C767 C766 1.516 . S
C767 C768 1.502 . S
C767 C769 1.561 . S
C767 C770 1.526 . S
C768 H752 0.959 . S
C768 H753 0.959 . S
C768 H754 0.961 . S
C768 C767 1.502 . S
C769 H755 0.960 . S
C769 H756 0.961 . S
C769 H757 0.959 . S
C769 C767 1.561 . S
C770 C767 1.526 . S
C770 C771 1.396 . S
C770 C775 1.390 . S
C771 C765 1.465 . S
C771 C770 1.396 . S
C771 C772 1.399 . S
C772 H758 0.929 . S
C772 C771 1.399 . S
C772 C773 1.385 . S
C773 H759 0.931 . S
C773 C772 1.385 . S
C773 C774 1.389 . S
C774 C773 1.389 . S
C774 C775 1.387 . S
C775 H760 0.930 . S
C775 C770 1.390 . S
C775 C774 1.387 . S
H776 C788 0.930 . S
H777 C790 0.930 . S
H778 C791 0.930 . S
H779 C795 0.959 . S
H780 C795 0.959 . S
H781 C795 0.961 . S
H782 C796 0.960 . S
H783 C796 0.961 . S
H784 C796 0.959 . S
H785 C799 0.929 . S
H786 C800 0.931 . S
H787 C802 0.930 . S
C788 H776 0.930 . S
C788 C789 1.399 . S
C788 C793 1.399 . S
C789 C788 1.399 . S
C789 C790 1.376 1_656 S
C790 H777 0.930 . S
C790 C789 1.376 1_454 S
C790 C791 1.388 . S
C791 H778 0.930 . S
C791 C790 1.388 . S
C791 C792 1.396 . S
C792 C791 1.396 . S
C792 C793 1.384 1_454 S
C792 C798 1.467 . S
C793 C788 1.399 . S
C793 C792 1.384 1_656 S
C793 C794 1.516 . S
C794 C793 1.516 . S
C794 C795 1.502 . S
C794 C796 1.561 1_655 S
C794 C797 1.526 1_655 S
C795 H779 0.959 . S
C795 H780 0.959 . S
C795 H781 0.961 . S
C795 C794 1.502 . S
C796 H782 0.960 . S
C796 H783 0.961 . S
C796 H784 0.959 . S
C796 C794 1.561 1_455 S
C797 C794 1.526 1_455 S
C797 C798 1.396 1_556 S
C797 C802 1.390 . S
C798 C792 1.467 . S
C798 C797 1.396 1_554 S
C798 C799 1.399 . S
C799 H785 0.929 . S
C799 C798 1.399 . S
C799 C800 1.385 . S
C800 H786 0.931 . S
C800 C799 1.385 . S
C800 C801 1.389 . S
C801 C800 1.389 . S
C801 C802 1.387 1_554 S
C802 H787 0.930 . S
C802 C797 1.390 . S
C802 C801 1.387 1_556 S
H803 C815 0.930 . S
H804 C817 0.930 . S
H805 C818 0.930 . S
H806 C822 0.959 . S
H807 C822 0.959 . S
H808 C822 0.961 . S
H809 C823 0.960 . S
H810 C823 0.961 . S
H811 C823 0.959 . S
H812 C826 0.929 . S
H813 C827 0.931 . S
H814 C829 0.930 . S
C815 H803 0.930 . S
C815 C816 1.399 . S
C815 C820 1.399 . S
C816 C815 1.399 . S
C816 C817 1.376 . S
C817 H804 0.930 . S
C817 C816 1.376 . S
C817 C818 1.388 . S
C818 H805 0.930 . S
C818 C817 1.388 . S
C818 C819 1.390 . S
C819 C818 1.390 . S
C819 C820 1.394 . S
C819 C825 1.465 . S
C820 C815 1.399 . S
C820 C819 1.394 . S
C820 C821 1.516 . S
C821 C820 1.516 . S
C821 C822 1.502 . S
C821 C823 1.561 . S
C821 C824 1.526 . S
C822 H806 0.959 . S
C822 H807 0.959 . S
C822 H808 0.961 . S
C822 C821 1.502 . S
C823 H809 0.960 . S
C823 H810 0.961 . S
C823 H811 0.959 . S
C823 C821 1.561 . S
C824 C821 1.526 . S
C824 C825 1.396 . S
C824 C829 1.390 . S
C825 C819 1.465 . S
C825 C824 1.396 . S
C825 C826 1.399 . S
C826 H812 0.929 . S
C826 C825 1.399 . S
C826 C827 1.385 . S
C827 H813 0.931 . S
C827 C826 1.385 . S
C827 C828 1.389 . S
C828 C827 1.389 . S
C828 C829 1.387 . S
C829 H814 0.930 . S
C829 C824 1.390 . S
C829 C828 1.387 . S
H830 C842 0.930 . S
H831 C844 0.930 . S
H832 C845 0.930 . S
H833 C849 0.959 . S
H834 C849 0.959 . S
H835 C849 0.961 . S
H836 C850 0.960 . S
H837 C850 0.961 . S
H838 C850 0.959 . S
H839 C853 0.929 . S
H840 C854 0.931 . S
H841 C856 0.930 . S
C842 H830 0.930 . S
C842 C843 1.399 . S
C842 C847 1.399 . S
C843 C842 1.399 . S
C843 C844 1.376 . S
C844 H831 0.930 . S
C844 C843 1.376 . S
C844 C845 1.388 . S
C845 H832 0.930 . S
C845 C844 1.388 . S
C845 C846 1.390 . S
C846 C845 1.390 . S
C846 C847 1.394 . S
C846 C852 1.465 . S
C847 C842 1.399 . S
C847 C846 1.394 . S
C847 C848 1.516 . S
C848 C847 1.516 . S
C848 C849 1.502 . S
C848 C850 1.561 . S
C848 C851 1.526 . S
C849 H833 0.959 . S
C849 H834 0.959 . S
C849 H835 0.961 . S
C849 C848 1.502 . S
C850 H836 0.960 . S
C850 H837 0.961 . S
C850 H838 0.959 . S
C850 C848 1.561 . S
C851 C848 1.526 . S
C851 C852 1.396 . S
C851 C856 1.390 . S
C852 C846 1.465 . S
C852 C851 1.396 . S
C852 C853 1.399 . S
C853 H839 0.929 . S
C853 C852 1.399 . S
C853 C854 1.385 . S
C854 H840 0.931 . S
C854 C853 1.385 . S
C854 C855 1.389 . S
C855 C854 1.389 . S
C855 C856 1.387 . S
C856 H841 0.930 . S
C856 C851 1.390 . S
C856 C855 1.387 . S
H857 C869 0.930 . S
H858 C871 0.930 . S
H859 C872 0.930 . S
H860 C876 0.959 . S
H861 C876 0.959 . S
H862 C876 0.961 . S
H863 C877 0.960 . S
H864 C877 0.961 . S
H865 C877 0.959 . S
H866 C880 0.929 . S
H867 C881 0.931 . S
H868 C883 0.930 . S
C869 H857 0.930 . S
C869 C870 1.399 . S
C869 C874 1.399 . S
C870 C869 1.399 . S
C870 C871 1.376 . S
C871 H858 0.930 . S
C871 C870 1.376 . S
C871 C872 1.388 . S
C872 H859 0.930 . S
C872 C871 1.388 . S
C872 C873 1.390 . S
C873 C872 1.390 . S
C873 C874 1.394 . S
C873 C879 1.465 . S
C874 C869 1.399 . S
C874 C873 1.394 . S
C874 C875 1.516 . S
C875 C874 1.516 . S
C875 C876 1.502 . S
C875 C877 1.561 . S
C875 C878 1.526 . S
C876 H860 0.959 . S
C876 H861 0.959 . S
C876 H862 0.961 . S
C876 C875 1.502 . S
C877 H863 0.960 . S
C877 H864 0.961 . S
C877 H865 0.959 . S
C877 C875 1.561 . S
C878 C875 1.526 . S
C878 C879 1.396 . S
C878 C883 1.390 . S
C879 C873 1.465 . S
C879 C878 1.396 . S
C879 C880 1.399 . S
C880 H866 0.929 . S
C880 C879 1.399 . S
C880 C881 1.385 . S
C881 H867 0.931 . S
C881 C880 1.385 . S
C881 C882 1.389 . S
C882 C881 1.389 . S
C882 C883 1.387 . S
C883 H868 0.930 . S
C883 C878 1.390 . S
C883 C882 1.387 . S
C249 C6 1.817 . S
C261 C155 1.681 . S
C276 C21 2.037 . S
C288 C189 1.924 1_566 S
C315 C201 0.859 . S
C303 C49 0.829 . S
C330 C68 1.239 . S
C342 C235 1.134 . S
C369 C192 2.111 . S
C357 C2 2.230 . S
C396 C172 1.210 . S
C384 C30 1.097 . S
C423 C219 1.224 1_556 S
C411 C40 1.362 . S
C450 C210 1.296 . S
C438 C63 1.368 . S
C465 C11 1.498 . S
C477 C218 1.540 . S
C504 C180 1.553 . S
C492 C44 1.667 . S
C519 C59 1.177 . S
C531 C156 1.063 . S
C546 C25 1.787 . S
C558 C213 1.733 . S
C585 C171 2.009 . S
C573 C82 2.076 1_545 S
C600 C101 1.839 . S
C612 C193 1.642 . S
C627 C125 1.474 . S
C639 C198 1.420 . S
C654 C144 1.120 . S
C666 C231 1.105 . S
C681 C87 1.205 . S
C693 C176 1.361 . S
C720 C168 2.041 . S
C708 C97 2.197 . S
C747 C222 1.399 . S
C735 C120 1.456 . S
C774 C214 1.347 . S
C762 C135 1.415 . S
C789 C78 1.924 . S
C801 C234 1.831 . S
C828 C177 1.208 . S
C816 C116 1.319 . S
C855 C159 1.608 . S
C843 C139 1.702 . S
C870 C106 1.537 . S
C882 C197 1.513 . S
