# Generated by pormake.
# Topology zzz, (3,6)-cn, num edge types: 1
# Building blocks:
#     Node 0, Type 0, BuildingBlock: BELTOD_clean_linker_0, # of connection points: 3
#     Node 1, Type 0, BuildingBlock: BELTOD_clean_linker_0, # of connection points: 3
#     Node 2, Type 0, BuildingBlock: BELTOD_clean_linker_0, # of connection points: 3
#     Node 3, Type 0, BuildingBlock: BELTOD_clean_linker_0, # of connection points: 3
#     Node 4, Type 0, BuildingBlock: BELTOD_clean_linker_0, # of connection points: 3
#     Node 5, Type 0, BuildingBlock: BELTOD_clean_linker_0, # of connection points: 3
#     Node 6, Type 0, BuildingBlock: BELTOD_clean_linker_0, # of connection points: 3
#     Node 7, Type 0, BuildingBlock: BELTOD_clean_linker_0, # of connection points: 3
#     Node 8, Type 1, BuildingBlock: JUFBIX_clean_sbu_0, # of connection points: 6
#     Node 9, Type 1, BuildingBlock: JUFBIX_clean_sbu_0, # of connection points: 6
#     Node 10, Type 1, BuildingBlock: JUFBIX_clean_sbu_0, # of connection points: 6
#     Node 11, Type 1, BuildingBlock: JUFBIX_clean_sbu_0, # of connection points: 6
#     Edge 12, Type (0, 1), BuildingBlock: XIVTED_clean_linker_0, # of connection points: 2
#     Edge 13, Type (0, 1), BuildingBlock: XIVTED_clean_linker_0, # of connection points: 2
#     Edge 14, Type (0, 1), BuildingBlock: XIVTED_clean_linker_0, # of connection points: 2
#     Edge 15, Type (0, 1), BuildingBlock: XIVTED_clean_linker_0, # of connection points: 2
#     Edge 16, Type (0, 1), BuildingBlock: XIVTED_clean_linker_0, # of connection points: 2
#     Edge 17, Type (0, 1), BuildingBlock: XIVTED_clean_linker_0, # of connection points: 2
#     Edge 18, Type (0, 1), BuildingBlock: XIVTED_clean_linker_0, # of connection points: 2
#     Edge 19, Type (0, 1), BuildingBlock: XIVTED_clean_linker_0, # of connection points: 2
#     Edge 20, Type (0, 1), BuildingBlock: XIVTED_clean_linker_0, # of connection points: 2
#     Edge 21, Type (0, 1), BuildingBlock: XIVTED_clean_linker_0, # of connection points: 2
#     Edge 22, Type (0, 1), BuildingBlock: XIVTED_clean_linker_0, # of connection points: 2
#     Edge 23, Type (0, 1), BuildingBlock: XIVTED_clean_linker_0, # of connection points: 2
#     Edge 24, Type (0, 1), BuildingBlock: XIVTED_clean_linker_0, # of connection points: 2
#     Edge 25, Type (0, 1), BuildingBlock: XIVTED_clean_linker_0, # of connection points: 2
#     Edge 26, Type (0, 1), BuildingBlock: XIVTED_clean_linker_0, # of connection points: 2
#     Edge 27, Type (0, 1), BuildingBlock: XIVTED_clean_linker_0, # of connection points: 2
#     Edge 28, Type (0, 1), BuildingBlock: XIVTED_clean_linker_0, # of connection points: 2
#     Edge 29, Type (0, 1), BuildingBlock: XIVTED_clean_linker_0, # of connection points: 2
#     Edge 30, Type (0, 1), BuildingBlock: XIVTED_clean_linker_0, # of connection points: 2
#     Edge 31, Type (0, 1), BuildingBlock: XIVTED_clean_linker_0, # of connection points: 2
#     Edge 32, Type (0, 1), BuildingBlock: XIVTED_clean_linker_0, # of connection points: 2
#     Edge 33, Type (0, 1), BuildingBlock: XIVTED_clean_linker_0, # of connection points: 2
#     Edge 34, Type (0, 1), BuildingBlock: XIVTED_clean_linker_0, # of connection points: 2
#     Edge 35, Type (0, 1), BuildingBlock: XIVTED_clean_linker_0, # of connection points: 2
# Relax obj value: 0.263
# Max RMSD: 0.211
# Mean RMSD: 0.177
data_MOF--net-zzz--node1-JUFBIX_clean_sbu_0--node2-BELTOD_clean_linker_0--edge1-XIVTED_clean_linker_0
_symmetry_space_group_name_H-M    P1
_symmetry_Int_Tables_number       1
_symmetry_cell_setting            triclinic
loop_
_symmetry_equiv_pos_as_xyz
'x, y, z'
_cell_length_a     54.100642
_cell_length_b     55.83968
_cell_length_c     21.246315
_cell_angle_alpha  82.300604
_cell_angle_beta   90.171497
_cell_angle_gamma 86.48627
loop_
_atom_site_label
_atom_site_type_symbol
_atom_site_fract_x
_atom_site_fract_y
_atom_site_fract_z
_atom_type_partial_charge
P0 P 0.76132 0.52667 0.30919 0.0
H1 H 0.74905 0.52836 0.44247 0.0
H2 H 0.7732 0.54117 0.52764 0.0
H3 H 0.82246 0.57564 0.38838 0.0
H4 H 0.79705 0.56432 0.30372 0.0
H5 H 0.70807 0.52152 0.30435 0.0
H6 H 0.67696 0.5361 0.22303 0.0
H7 H 0.72986 0.58157 0.12248 0.0
H8 H 0.76108 0.56686 0.20496 0.0
H9 H 0.81361 0.51353 0.34029 0.0
H10 H 0.76576 0.51782 0.17575 0.0
O11 O 0.75071 0.50127 0.34708 0.0
H12 H 0.84941 0.50488 0.2754 0.0
H13 H 0.8015 0.50911 0.11079 0.0
C14 C 0.77205 0.54443 0.36721 0.0
C15 C 0.76447 0.53951 0.43026 0.0
C16 C 0.77846 0.54669 0.47897 0.0
C17 C 0.80056 0.55835 0.46515 0.0
C18 C 0.80582 0.5664 0.4012 0.0
C19 C 0.79136 0.55977 0.35248 0.0
C20 C 0.73701 0.54265 0.25964 0.0
C21 C 0.71284 0.5351 0.26579 0.0
C22 C 0.69497 0.54361 0.21934 0.0
C23 C 0.70107 0.55974 0.16584 0.0
C24 C 0.72476 0.5689 0.16279 0.0
C25 C 0.74255 0.56059 0.20989 0.0
C26 C 0.78717 0.51774 0.26217 0.0
C27 C 0.8108 0.51288 0.29009 0.0
C28 C 0.83126 0.50785 0.25307 0.0
C29 C 0.82831 0.50682 0.18782 0.0
C30 C 0.80436 0.50997 0.1609 0.0
C31 C 0.78394 0.51524 0.1979 0.0
P32 P 0.07702 0.75779 0.29287 0.0
H33 H 0.08684 0.76807 0.4213 0.0
H34 H 0.06249 0.79011 0.49273 0.0
H35 H 0.99819 0.79009 0.37105 0.0
H36 H 0.02344 0.76963 0.2972 0.0
H37 H 0.10426 0.73156 0.20543 0.0
H38 H 0.09336 0.7011 0.13998 0.0
H39 H 0.02186 0.6973 0.2296 0.0
H40 H 0.03331 0.72737 0.29682 0.0
H41 H 0.10489 0.80145 0.27459 0.0
H42 H 0.04625 0.7712 0.17881 0.0
O43 O 0.10589 0.75261 0.32157 0.0
H44 H 0.10223 0.83736 0.19405 0.0
H45 H 0.04336 0.80688 0.09886 0.0
C46 C 0.05692 0.76673 0.35429 0.0
C47 C 0.06734 0.77219 0.41074 0.0
C48 C 0.05323 0.78482 0.452 0.0
C49 C 0.02824 0.79222 0.43788 0.0
C50 C 0.01746 0.78522 0.38318 0.0
C51 C 0.03177 0.77299 0.34132 0.0
C52 C 0.06961 0.73186 0.25581 0.0
C53 C 0.08643 0.72381 0.21207 0.0
C54 C 0.08005 0.70657 0.17413 0.0
C55 C 0.05656 0.69708 0.17871 0.0
C56 C 0.04011 0.70426 0.22493 0.0
C57 C 0.04658 0.7216 0.26316 0.0
C58 C 0.07624 0.78341 0.23167 0.0
C59 C 0.09168 0.80241 0.2358 0.0
C60 C 0.09001 0.82297 0.19005 0.0
C61 C 0.07276 0.82484 0.13967 0.0
C62 C 0.05724 0.80576 0.13615 0.0
C63 C 0.05885 0.78533 0.18198 0.0
P64 P 0.74909 0.01042 0.23727 0.0
H65 H 0.74038 0.01571 0.37037 0.0
H66 H 0.71157 0.99711 0.4461 0.0
H67 H 0.69822 0.94395 0.32141 0.0
H68 H 0.72634 0.96356 0.24416 0.0
H69 H 0.79434 0.03406 0.2042 0.0
H70 H 0.83235 0.02153 0.15407 0.0
H71 H 0.80645 0.94993 0.15403 0.0
H72 H 0.76832 0.96239 0.20682 0.0
H73 H 0.7105 0.04871 0.20373 0.0
H74 H 0.73739 0.98337 0.13198 0.0
O75 O 0.75335 0.03698 0.26239 0.0
H76 H 0.67673 0.05384 0.1261 0.0
H77 H 0.70314 0.98782 0.05596 0.0
C78 C 0.73531 0.9913 0.30102 0.0
C79 C 0.7318 0.99968 0.35982 0.0
C80 C 0.71531 0.98882 0.40361 0.0
C81 C 0.70207 0.96922 0.38959 0.0
C82 C 0.70759 0.95938 0.3332 0.0
C83 C 0.72395 0.97042 0.28914 0.0
C84 C 0.77846 0.99916 0.20972 0.0
C85 C 0.79693 0.01546 0.19508 0.0
C86 C 0.81873 0.00829 0.16631 0.0
C87 C 0.82235 0.98475 0.15034 0.0
C88 C 0.80404 0.9682 0.16585 0.0
C89 C 0.78232 0.9753 0.19607 0.0
C90 C 0.72672 0.01584 0.17327 0.0
C91 C 0.7094 0.03565 0.17066 0.0
C92 C 0.6899 0.03841 0.12662 0.0
C93 C 0.68707 0.02112 0.08506 0.0
C94 C 0.70491 0.00165 0.08659 0.0
C95 C 0.72454 0.99903 0.1304 0.0
P96 P 0.43667 0.74515 0.20286 0.0
H97 H 0.4245 0.73248 0.33697 0.0
H98 H 0.44742 0.70728 0.42328 0.0
H99 H 0.51245 0.70651 0.30612 0.0
H100 H 0.48956 0.73224 0.22021 0.0
H101 H 0.42709 0.76749 0.07316 0.0
H102 H 0.43893 0.80526 0.01258 0.0
H103 H 0.47953 0.82133 0.17578 0.0
H104 H 0.46737 0.78346 0.23639 0.0
H105 H 0.40748 0.70312 0.19618 0.0
H106 H 0.47232 0.73318 0.10736 0.0
O107 O 0.40721 0.75011 0.22313 0.0
H108 H 0.41413 0.66747 0.14092 0.0
H109 H 0.47893 0.69791 0.05175 0.0
C110 C 0.45531 0.73414 0.27212 0.0
C111 C 0.44395 0.72774 0.33063 0.0
C112 C 0.4571 0.71335 0.38005 0.0
C113 C 0.48164 0.70481 0.3711 0.0
C114 C 0.49351 0.71278 0.31407 0.0
C115 C 0.48046 0.7275 0.26507 0.0
C116 C 0.44678 0.77249 0.15874 0.0
C117 C 0.43879 0.77901 0.09565 0.0
C118 C 0.44566 0.80055 0.061 0.0
C119 C 0.46036 0.81619 0.08919 0.0
C120 C 0.46815 0.80968 0.1528 0.0
C121 C 0.46135 0.78799 0.18737 0.0
C122 C 0.43907 0.72101 0.15468 0.0
C123 C 0.4228 0.7023 0.16368 0.0
C124 C 0.42665 0.68194 0.13223 0.0
C125 C 0.44711 0.67987 0.09221 0.0
C126 C 0.46316 0.69885 0.08283 0.0
C127 C 0.45923 0.71917 0.114 0.0
P128 P 0.21753 0.41249 0.33181 0.0
H129 H 0.1994 0.38718 0.23046 0.0
H130 H 0.17418 0.4017 0.13662 0.0
H131 H 0.18674 0.47552 0.1626 0.0
H132 H 0.20988 0.46091 0.25928 0.0
H133 H 0.25376 0.38678 0.42125 0.0
H134 H 0.29219 0.39825 0.46492 0.0
H135 H 0.2867 0.46526 0.33569 0.0
H136 H 0.2497 0.45255 0.28883 0.0
H137 H 0.16903 0.40025 0.38039 0.0
H138 H 0.21771 0.45827 0.38617 0.0
O139 O 0.21497 0.38263 0.34712 0.0
H140 H 0.137 0.42274 0.43314 0.0
H141 H 0.18563 0.48114 0.43715 0.0
C142 C 0.20701 0.42288 0.2517 0.0
C143 C 0.19731 0.40648 0.21507 0.0
C144 C 0.18287 0.41486 0.16098 0.0
C145 C 0.178 0.43986 0.14227 0.0
C146 C 0.18954 0.45615 0.17625 0.0
C147 C 0.20346 0.44776 0.23101 0.0
C148 C 0.24866 0.4188 0.35181 0.0
C149 C 0.26128 0.40359 0.4009 0.0
C150 C 0.28313 0.41041 0.42665 0.0
C151 C 0.29244 0.43303 0.4052 0.0
C152 C 0.2804 0.44763 0.35349 0.0
C153 C 0.25889 0.44045 0.32672 0.0
C154 C 0.19598 0.42727 0.38067 0.0
C155 C 0.173 0.41762 0.39406 0.0
C156 C 0.15458 0.4307 0.42336 0.0
C157 C 0.15868 0.45386 0.43894 0.0
C158 C 0.18195 0.46325 0.42653 0.0
C159 C 0.20038 0.45011 0.3974 0.0
P160 P 0.07875 0.23822 0.34858 0.0
H161 H 0.09743 0.23281 0.22121 0.0
H162 H 0.08505 0.20616 0.1458 0.0
H163 H 0.01855 0.19222 0.25263 0.0
H164 H 0.03075 0.21913 0.32733 0.0
H165 H 0.10212 0.27631 0.40266 0.0
H166 H 0.08535 0.31099 0.4505 0.0
H167 H 0.01184 0.29795 0.38847 0.0
H168 H 0.02889 0.26308 0.34031 0.0
H169 H 0.09349 0.18704 0.37042 0.0
H170 H 0.04969 0.23789 0.46687 0.0
O171 O 0.10934 0.23869 0.33911 0.0
H172 H 0.07693 0.15349 0.44009 0.0
H173 H 0.03301 0.20451 0.53585 0.0
C174 C 0.06512 0.22786 0.28025 0.0
C175 C 0.07968 0.22488 0.22698 0.0
C176 C 0.07263 0.20955 0.18395 0.0
C177 C 0.05108 0.19679 0.19414 0.0
C178 C 0.0354 0.20162 0.24413 0.0
C179 C 0.04226 0.21722 0.28646 0.0
C180 C 0.06684 0.26729 0.36705 0.0
C181 C 0.0825 0.28135 0.39737 0.0
C182 C 0.07286 0.30121 0.4249 0.0
C183 C 0.04723 0.3072 0.42355 0.0
C184 C 0.03164 0.29368 0.39071 0.0
C185 C 0.0414 0.2739 0.36254 0.0
C186 C 0.07277 0.21498 0.413 0.0
C187 C 0.08092 0.19103 0.40778 0.0
C188 C 0.07124 0.17188 0.44709 0.0
C189 C 0.05337 0.17644 0.49258 0.0
C190 C 0.04677 0.20049 0.5012 0.0
C191 C 0.05631 0.21963 0.46147 0.0
P192 P 0.23682 0.11209 0.31679 0.0
H193 H 0.24152 0.13765 0.18784 0.0
H194 H 0.26547 0.12706 0.09729 0.0
H195 H 0.28075 0.05473 0.19631 0.0
H196 H 0.25577 0.06506 0.28403 0.0
H197 H 0.19876 0.13466 0.38853 0.0
H198 H 0.16226 0.11955 0.4431 0.0
H199 H 0.17368 0.05251 0.36341 0.0
H200 H 0.20979 0.06831 0.30649 0.0
H201 H 0.28048 0.13215 0.36636 0.0
H202 H 0.24394 0.06507 0.39714 0.0
O203 O 0.23608 0.14229 0.3089 0.0
H204 H 0.31373 0.11436 0.43989 0.0
H205 H 0.27744 0.04712 0.4688 0.0
C206 C 0.24729 0.10231 0.24342 0.0
C207 C 0.2494 0.1193 0.18911 0.0
C208 C 0.26337 0.11327 0.13752 0.0
C209 C 0.2757 0.09021 0.1398 0.0
C210 C 0.27157 0.07265 0.19215 0.0
C211 C 0.25734 0.07862 0.24312 0.0
C212 C 0.20692 0.10269 0.34312 0.0
C213 C 0.19303 0.117 0.38117 0.0
C214 C 0.1723 0.10819 0.41306 0.0
C215 C 0.16531 0.08463 0.40864 0.0
C216 C 0.17848 0.07078 0.36763 0.0
C217 C 0.19917 0.07977 0.33509 0.0
C218 C 0.25952 0.10009 0.37686 0.0
C219 C 0.27939 0.11376 0.38952 0.0
C220 C 0.2984 0.10358 0.43127 0.0
C221 C 0.29809 0.07938 0.45962 0.0
C222 C 0.27812 0.06578 0.4472 0.0
C223 C 0.25889 0.07612 0.40656 0.0
P224 P 0.44931 0.29756 0.33669 0.0
H225 H 0.42443 0.29939 0.21339 0.0
H226 H 0.43366 0.32154 0.11011 0.0
H227 H 0.50563 0.33551 0.18127 0.0
H228 H 0.49674 0.31225 0.28275 0.0
H229 H 0.42866 0.26959 0.44518 0.0
H230 H 0.44106 0.23097 0.50758 0.0
H231 H 0.50288 0.22207 0.38263 0.0
H232 H 0.48991 0.261 0.31914 0.0
H233 H 0.43132 0.3466 0.35059 0.0
H234 H 0.49426 0.29822 0.41434 0.0
O235 O 0.41843 0.30095 0.33671 0.0
H236 H 0.44925 0.37889 0.39874 0.0
H237 H 0.51277 0.33067 0.46117 0.0
C238 C 0.45964 0.30472 0.25627 0.0
C239 C 0.44254 0.30646 0.20598 0.0
C240 C 0.44775 0.31944 0.14707 0.0
C241 C 0.47005 0.33113 0.1378 0.0
C242 C 0.48821 0.32693 0.18633 0.0
C243 C 0.4831 0.31365 0.24487 0.0
C244 C 0.45808 0.26787 0.37694 0.0
C245 C 0.4447 0.25921 0.43059 0.0
C246 C 0.45201 0.23724 0.46675 0.0
C247 C 0.4731 0.22352 0.45046 0.0
C248 C 0.48645 0.23215 0.39611 0.0
C249 C 0.47907 0.25432 0.35977 0.0
C250 C 0.46116 0.31991 0.38021 0.0
C251 C 0.44886 0.34285 0.37577 0.0
C252 C 0.45935 0.3614 0.40248 0.0
C253 C 0.48259 0.35744 0.4333 0.0
C254 C 0.49475 0.33426 0.43835 0.0
C255 C 0.48414 0.31566 0.41177 0.0
Co256 Co 0.00686 0.02354 0.82366 0.0
C257 C 0.96425 0.99508 0.85766 0.0
Co258 Co 0.99118 0.99078 0.73764 0.0
C259 C 0.02071 0.05081 0.91605 0.0
C260 C 0.04693 0.02037 0.91971 0.0
N261 N 0.02573 0.0302 0.8908 0.0
N262 N 0.03762 0.05424 0.96012 0.0
C263 C 0.0541 0.03501 0.96314 0.0
H264 H 0.00515 0.06342 0.90097 0.0
H265 H 0.05718 0.00436 0.90803 0.0
C266 C 0.03539 0.01806 0.70866 0.0
N267 N 0.98225 0.96941 0.68196 0.0
C268 C 0.98134 0.94498 0.68977 0.0
C269 C 0.97818 0.97618 0.61921 0.0
N270 N 0.97661 0.93651 0.6344 0.0
C271 C 0.97449 0.95621 0.59025 0.0
C272 C 0.97683 0.0322 0.71464 0.0
O273 O 0.0327 0.02804 0.76087 0.0
O274 O 0.02048 0.00246 0.69111 0.0
O275 O 0.96922 0.01649 0.68462 0.0
O276 O 0.98802 0.02281 0.7635 0.0
O277 O 0.96538 0.98526 0.80447 0.0
H278 H 0.97921 0.99438 0.59492 0.0
H279 H 0.98504 0.93355 0.73451 0.0
O280 O 0.97934 0.01113 0.87262 0.0
O281 O 0.02059 0.99071 0.84466 0.0
O282 O 0.01073 0.96567 0.78072 0.0
C283 C 0.02215 0.96962 0.82911 0.0
H284 H 0.07077 0.03238 0.99219 0.0
H285 H 0.97217 0.95606 0.53967 0.0
Co286 Co 0.48098 0.02708 0.81133 0.0
C287 C 0.48635 0.97643 0.83062 0.0
Co288 Co 0.49914 0.01056 0.73304 0.0
C289 C 0.44303 0.05111 0.88065 0.0
C290 C 0.47192 0.0327 0.94109 0.0
N291 N 0.46544 0.03907 0.87943 0.0
N292 N 0.4351 0.05187 0.94047 0.0
C293 C 0.45322 0.04038 0.97865 0.0
H294 H 0.43176 0.05728 0.83878 0.0
H295 H 0.48825 0.02145 0.95769 0.0
C296 C 0.49365 0.06125 0.71382 0.0
N297 N 0.51456 0.99812 0.66527 0.0
C298 C 0.53682 0.9858 0.66409 0.0
C299 C 0.50653 0.00149 0.60439 0.0
N300 N 0.54305 0.98151 0.60487 0.0
C301 C 0.5239 0.99128 0.56734 0.0
C302 C 0.44801 0.01787 0.71906 0.0
O303 O 0.48361 0.05879 0.76821 0.0
O304 O 0.50183 0.04252 0.69048 0.0
O305 O 0.46733 0.00962 0.69332 0.0
O306 O 0.45006 0.02573 0.77194 0.0
O307 O 0.49626 0.97869 0.77612 0.0
H308 H 0.48961 0.01165 0.58737 0.0
H309 H 0.54853 0.98063 0.70566 0.0
O310 O 0.47849 0.99527 0.85369 0.0
O311 O 0.51196 0.02856 0.85001 0.0
O312 O 0.53066 0.01199 0.77381 0.0
C313 C 0.53179 0.0208 0.82586 0.0
H314 H 0.45227 0.03648 0.02987 0.0
H315 H 0.52307 0.99226 0.51615 0.0
Co316 Co 0.51699 0.51748 0.76772 0.0
C317 C 0.4902 0.47991 0.82696 0.0
Co318 Co 0.4778 0.51925 0.73686 0.0
C319 C 0.5607 0.53256 0.82526 0.0
C320 C 0.56688 0.49768 0.79488 0.0
N321 N 0.54952 0.516 0.79618 0.0
N322 N 0.58428 0.52528 0.8424 0.0
C323 C 0.58829 0.50337 0.82306 0.0
H324 H 0.55165 0.54955 0.83438 0.0
H325 H 0.56397 0.48096 0.77624 0.0
C326 C 0.50468 0.55639 0.67676 0.0
N327 N 0.44544 0.52095 0.70765 0.0
C328 C 0.43348 0.50342 0.68458 0.0
C329 C 0.4301 0.54104 0.69561 0.0
N330 N 0.41157 0.51191 0.65743 0.0
C331 C 0.40931 0.53556 0.66428 0.0
C332 C 0.48467 0.54428 0.83776 0.0
O333 O 0.52248 0.54633 0.71176 0.0
O334 O 0.4837 0.54734 0.68022 0.0
O335 O 0.46834 0.53853 0.80041 0.0
O336 O 0.50706 0.53662 0.83223 0.0
O337 O 0.47229 0.49076 0.79354 0.0
H338 H 0.43437 0.55879 0.70595 0.0
H339 H 0.44141 0.48518 0.68388 0.0
O340 O 0.51134 0.48876 0.8233 0.0
O341 O 0.52636 0.49814 0.70275 0.0
O342 O 0.48731 0.50028 0.67342 0.0
C343 C 0.50955 0.49273 0.66622 0.0
H344 H 0.60512 0.49182 0.83122 0.0
H345 H 0.39411 0.54812 0.6461 0.0
Co346 Co 0.99792 0.52884 0.79173 0.0
C347 C 0.03336 0.49515 0.85174 0.0
Co348 Co 0.99222 0.49101 0.77824 0.0
C349 C 0.00823 0.56839 0.86113 0.0
C350 C 0.0016 0.58008 0.76206 0.0
N351 N 0.00269 0.56025 0.80599 0.0
N352 N 0.01078 0.59254 0.85327 0.0
C353 C 0.00657 0.59991 0.79088 0.0
H354 H 0.0108 0.5567 0.90589 0.0
H355 H 0.99753 0.58008 0.71218 0.0
C356 C 0.95652 0.52465 0.71917 0.0
N357 N 0.98715 0.45971 0.76218 0.0
C358 C 0.00171 0.44582 0.72806 0.0
C359 C 0.96632 0.44775 0.77226 0.0
N360 N 0.99062 0.42596 0.71503 0.0
C361 C 0.9684 0.42704 0.74353 0.0
C362 C 0.96799 0.50429 0.88262 0.0
O363 O 0.96982 0.5401 0.73912 0.0
O364 O 0.96311 0.50228 0.73147 0.0
O365 O 0.9734 0.48644 0.85285 0.0
O366 O 0.97665 0.52468 0.86364 0.0
O367 O 0.02161 0.47993 0.82576 0.0
H368 H 0.95005 0.45441 0.79556 0.0
H369 H 0.01974 0.45075 0.71088 0.0
O370 O 0.02562 0.51732 0.84399 0.0
O371 O 0.01938 0.53255 0.71976 0.0
O372 O 0.01079 0.496 0.70378 0.0
C373 C 0.02185 0.51512 0.687 0.0
H374 H 0.00685 0.61835 0.76761 0.0
H375 H 0.95398 0.41463 0.74054 0.0
H376 H 0.12874 0.05502 0.38134 0.0
H377 H 0.07209 0.04752 0.73079 0.0
H378 H 0.15786 0.08959 0.53329 0.0
H379 H 0.04433 0.00788 0.58711 0.0
H380 H 0.10343 0.06309 0.65739 0.0
H381 H 0.09749 0.03752 0.45429 0.0
C382 C 0.12858 0.05893 0.42992 0.0
C383 C 0.14581 0.07403 0.45095 0.0
C384 C 0.09059 0.0509 0.64183 0.0
C385 C 0.11017 0.05414 0.53443 0.0
C386 C 0.07263 0.04194 0.68388 0.0
C387 C 0.05549 0.02629 0.6653 0.0
C388 C 0.09151 0.04429 0.58035 0.0
C389 C 0.05721 0.0198 0.60368 0.0
C390 C 0.11072 0.04899 0.47145 0.0
C391 C 0.14465 0.07854 0.51437 0.0
N392 N 0.07486 0.0289 0.5633 0.0
N393 N 0.12718 0.06868 0.55363 0.0
H394 H 0.47416 0.21422 0.58017 0.0
H395 H 0.50879 0.07234 0.59101 0.0
H396 H 0.48956 0.18012 0.41265 0.0
H397 H 0.48074 0.10542 0.75103 0.0
H398 H 0.50754 0.11231 0.52759 0.0
H399 H 0.48235 0.1752 0.64567 0.0
C400 C 0.47931 0.1985 0.55712 0.0
C401 C 0.48077 0.20038 0.49067 0.0
C402 C 0.50181 0.11083 0.57668 0.0
C403 C 0.4904 0.15558 0.56567 0.0
C404 C 0.50256 0.08802 0.61302 0.0
C405 C 0.49471 0.0855 0.67641 0.0
C406 C 0.49324 0.1313 0.60394 0.0
C407 C 0.48684 0.10647 0.70231 0.0
C408 C 0.48406 0.17624 0.59462 0.0
C409 C 0.4882 0.17952 0.46365 0.0
N410 N 0.48623 0.12845 0.66592 0.0
N411 N 0.49254 0.15793 0.50123 0.0
H412 H 0.32838 0.46352 0.35765 0.0
H413 H 0.39823 0.46594 0.68642 0.0
H414 H 0.30374 0.42405 0.53306 0.0
H415 H 0.38944 0.52882 0.54482 0.0
H416 H 0.37108 0.4445 0.62269 0.0
H417 H 0.35871 0.48199 0.41841 0.0
C418 C 0.32928 0.45861 0.40868 0.0
C419 C 0.31311 0.44227 0.43997 0.0
C420 C 0.37518 0.46298 0.60571 0.0
C421 C 0.3484 0.46288 0.50925 0.0
C422 C 0.3906 0.47513 0.64182 0.0
C423 C 0.39572 0.49917 0.62093 0.0
C424 C 0.36542 0.47484 0.54769 0.0
C425 C 0.38553 0.5104 0.56284 0.0
C426 C 0.34672 0.4691 0.44317 0.0
C427 C 0.31589 0.43619 0.50624 0.0
N428 N 0.37095 0.49809 0.52795 0.0
N429 N 0.33316 0.44649 0.53859 0.0
H430 H 0.00666 0.30518 0.50047 0.0
H431 H 0.02519 0.43263 0.62189 0.0
H432 H 0.06454 0.35178 0.43379 0.0
H433 H 0.9753 0.38075 0.7091 0.0
H434 H 0.03801 0.40454 0.54817 0.0
H435 H 0.99234 0.33446 0.57031 0.0
C436 C 0.01614 0.32175 0.49977 0.0
C437 C 0.03686 0.32601 0.46116 0.0
C438 C 0.02429 0.39929 0.58353 0.0
C439 C 0.0208 0.35946 0.54196 0.0
C440 C 0.01705 0.41528 0.62623 0.0
C441 C 0.99912 0.40913 0.67242 0.0
C442 C 0.01348 0.37694 0.58654 0.0
C443 C 0.98896 0.38647 0.67414 0.0
C444 C 0.0081 0.33834 0.54019 0.0
C445 C 0.04865 0.34763 0.46318 0.0
N446 N 0.99625 0.37126 0.63186 0.0
N447 N 0.04049 0.3635 0.50296 0.0
H448 H 0.82473 0.96429 0.04005 0.0
H449 H 0.9644 0.99954 0.98348 0.0
H450 H 0.87037 0.99178 0.17739 0.0
H451 H 0.9203 0.97417 0.83913 0.0
H452 H 0.93165 0.99099 0.05939 0.0
H453 H 0.86088 0.96157 0.97107 0.0
C454 C 0.8425 0.9692 0.05626 0.0
C455 C 0.8446 0.9785 0.11409 0.0
C456 C 0.92907 0.98713 0.01128 0.0
C457 C 0.88575 0.97577 0.03551 0.0
C458 C 0.94778 0.99212 0.96766 0.0
C459 C 0.94493 0.98797 0.90443 0.0
C460 C 0.90707 0.97811 0.99175 0.0
C461 C 0.92318 0.97783 0.88728 0.0
C462 C 0.86305 0.96783 0.01674 0.0
C463 C 0.86793 0.98481 0.13275 0.0
N464 N 0.90489 0.97352 0.93057 0.0
N465 N 0.8875 0.98354 0.09336 0.0
H466 H 0.45955 0.86065 0.13019 0.0
H467 H 0.497 0.93151 0.79404 0.0
H468 H 0.47516 0.82506 0.96523 0.0
H469 H 0.47065 0.96648 0.95263 0.0
H470 H 0.49255 0.89206 0.85784 0.0
H471 H 0.46755 0.89936 0.06797 0.0
C472 C 0.46493 0.86094 0.08105 0.0
C473 C 0.46662 0.83959 0.05284 0.0
C474 C 0.48778 0.9084 0.87856 0.0
C475 C 0.47551 0.88393 0.98095 0.0
C476 C 0.49032 0.9309 0.8422 0.0
C477 C 0.48408 0.95233 0.8679 0.0
C478 C 0.47909 0.90736 0.94111 0.0
C479 C 0.47556 0.95046 0.93065 0.0
C480 C 0.46931 0.88308 0.04536 0.0
C481 C 0.47333 0.84113 0.98865 0.0
N482 N 0.47334 0.92841 0.965 0.0
N483 N 0.4775 0.86292 0.95482 0.0
H484 H 0.7128 0.55816 0.04161 0.0
H485 H 0.57184 0.55344 0.93349 0.0
H486 H 0.65063 0.56954 0.16318 0.0
H487 H 0.63435 0.52352 0.83801 0.0
H488 H 0.6004 0.56919 0.00523 0.0
H489 H 0.68409 0.55596 0.95401 0.0
C490 C 0.69312 0.56087 0.04946 0.0
C491 C 0.68407 0.5638 0.10999 0.0
C492 C 0.60785 0.55943 0.96806 0.0
C493 C 0.65112 0.5608 0.0102 0.0
C494 C 0.59158 0.55056 0.92689 0.0
C495 C 0.60078 0.53693 0.88018 0.0
C496 C 0.63348 0.5548 0.96208 0.0
C497 C 0.62652 0.53357 0.87411 0.0
C498 C 0.67673 0.55934 0.99956 0.0
C499 C 0.65835 0.56689 0.11749 0.0
N500 N 0.64197 0.54231 0.91484 0.0
N501 N 0.64274 0.56504 0.06835 0.0
H502 H 0.03065 0.65572 0.20037 0.0
H503 H 0.03377 0.63467 0.83444 0.0
H504 H 0.06486 0.70217 0.05117 0.0
H505 H 0.00282 0.58443 0.98084 0.0
H506 H 0.04414 0.65995 0.91419 0.0
H507 H 0.019 0.62977 0.12179 0.0
C508 C 0.03566 0.66049 0.15117 0.0
C509 C 0.04897 0.68103 0.1325 0.0
C510 C 0.03507 0.64341 0.9291 0.0
C511 C 0.03577 0.65148 0.04254 0.0
C512 C 0.02899 0.629 0.88334 0.0
C513 C 0.01728 0.60739 0.90073 0.0
C514 C 0.0294 0.63631 0.9931 0.0
C515 C 0.01203 0.6008 0.96529 0.0
C516 C 0.02911 0.64562 0.10643 0.0
C517 C 0.05505 0.68628 0.06811 0.0
N518 N 0.01807 0.61524 0.00914 0.0
N519 N 0.04842 0.67165 0.02568 0.0
H520 H 0.03379 0.13944 0.44191 0.0
H521 H 0.99374 0.06899 0.77168 0.0
H522 H 0.04165 0.16818 0.61907 0.0
H523 H 0.97052 0.05122 0.58999 0.0
H524 H 0.01005 0.10617 0.71808 0.0
H525 H 0.01057 0.1069 0.49642 0.0
C526 C 0.03079 0.13876 0.4925 0.0
C527 C 0.03991 0.15634 0.52626 0.0
C528 C 0.00097 0.09438 0.69005 0.0
C529 C 0.01296 0.11935 0.58882 0.0
C530 C 0.99154 0.07325 0.72062 0.0
C531 C 0.98093 0.057 0.68507 0.0
C532 C -2e-05 0.0991 0.62348 0.0
C533 C 0.97858 0.06327 0.61913 0.0
C534 C 0.01727 0.12035 0.52344 0.0
C535 C 0.03496 0.15494 0.5914 0.0
N536 N 0.9884 0.08367 0.59033 0.0
N537 N 0.02196 0.13662 0.62075 0.0
H538 H 0.31729 0.09595 0.56308 0.0
H539 H 0.43602 0.00543 0.60199 0.0
H540 H 0.32591 0.03759 0.44951 0.0
H541 H 0.40525 0.03956 0.75754 0.0
H542 H 0.39782 0.01817 0.54052 0.0
H543 H 0.35226 0.07763 0.62992 0.0
C544 C 0.32659 0.07926 0.5524 0.0
C545 C 0.31882 0.0682 0.50102 0.0
C546 C 0.39942 0.02252 0.58847 0.0
C547 C 0.35881 0.04729 0.57651 0.0
C548 C 0.42115 0.01523 0.62357 0.0
C549 C 0.42395 0.02161 0.6848 0.0
C550 C 0.38069 0.03661 0.61451 0.0
C551 C 0.40406 0.03438 0.71038 0.0
C552 C 0.3464 0.06873 0.59062 0.0
C553 C 0.33136 0.04653 0.48909 0.0
N554 N 0.38347 0.04177 0.67479 0.0
N555 N 0.35097 0.03686 0.52621 0.0
H556 H 0.50852 0.35578 0.54559 0.0
H557 H 0.48979 0.4956 0.5483 0.0
H558 H 0.48273 0.40499 0.38107 0.0
H559 H 0.53956 0.45117 0.68061 0.0
H560 H 0.48991 0.4631 0.4822 0.0
H561 H 0.52291 0.39012 0.59284 0.0
C562 C 0.50623 0.37373 0.51893 0.0
C563 C 0.4939 0.37756 0.45982 0.0
C564 C 0.5013 0.46057 0.52486 0.0
C565 C 0.51008 0.41689 0.51393 0.0
C566 C 0.50126 0.47914 0.56244 0.0
C567 C 0.51464 0.47591 0.61975 0.0
C568 C 0.51422 0.43833 0.54581 0.0
C569 C 0.52912 0.45429 0.6364 0.0
C570 C 0.51445 0.39332 0.54597 0.0
C571 C 0.49141 0.40125 0.42761 0.0
N572 N 0.52809 0.43601 0.60025 0.0
N573 N 0.49908 0.42002 0.45547 0.0
H574 H 0.16196 0.48303 0.53293 0.0
H575 H 0.01725 0.49417 0.58032 0.0
H576 H 0.1094 0.45807 0.40688 0.0
H577 H 0.06726 0.53432 0.67771 0.0
H578 H 0.05049 0.48431 0.50931 0.0
H579 H 0.12791 0.50484 0.58093 0.0
C580 C 0.14332 0.48234 0.51484 0.0
C581 C 0.13851 0.46833 0.46647 0.0
C582 C 0.05418 0.49573 0.5452 0.0
C583 C 0.09946 0.49312 0.52149 0.0
C584 C 0.03514 0.50146 0.58551 0.0
C585 C 0.03962 0.51501 0.63483 0.0
C586 C 0.07806 0.5031 0.55524 0.0
C587 C 0.0631 0.52393 0.6399 0.0
C588 C 0.12389 0.4948 0.54229 0.0
C589 C 0.11395 0.46804 0.44522 0.0
N590 N 0.08167 0.51738 0.60137 0.0
N591 N 0.09537 0.48002 0.47327 0.0
H592 H 0.07303 0.8723 0.16021 0.0
H593 H 0.03512 0.92416 0.80129 0.0
H594 H 0.06634 0.82769 0.01085 0.0
H595 H 0.03717 0.96832 0.95291 0.0
H596 H 0.05156 0.88936 0.87464 0.0
H597 H 0.06517 0.90835 0.0822 0.0
C598 C 0.07025 0.87009 0.11086 0.0
C599 C 0.07014 0.84693 0.09212 0.0
C600 C 0.04872 0.90673 0.89169 0.0
C601 C 0.06084 0.88811 0.00268 0.0
C602 C 0.03937 0.92663 0.84979 0.0
C603 C 0.03487 0.94925 0.8709 0.0
C604 C 0.05346 0.90939 0.95535 0.0
C605 C 0.04069 0.95136 0.93427 0.0
C606 C 0.06561 0.89068 0.0664 0.0
C607 C 0.06615 0.84518 0.0276 0.0
N608 N 0.0495 0.93165 0.97437 0.0
N609 N 0.06153 0.86547 0.98532 0.0
H610 H 0.6395 0.03437 0.11445 0.0
H611 H 0.57871 0.00559 0.79132 0.0
H612 H 0.68326 0.01037 0.96243 0.0
H613 H 0.539 0.03805 0.93779 0.0
H614 H 0.61734 0.00654 0.85185 0.0
H615 H 0.60258 0.03539 0.04883 0.0
C616 C 0.64144 0.02962 0.06686 0.0
C617 C 0.66464 0.02248 0.04385 0.0
C618 C 0.60013 0.01352 0.8704 0.0
C619 C 0.62204 0.02306 0.96846 0.0
C620 C 0.57811 0.01298 0.83595 0.0
C621 C 0.55558 0.0217 0.85958 0.0
C622 C 0.59949 0.02277 0.9288 0.0
C623 C 0.55588 0.03108 0.91764 0.0
C624 C 0.62024 0.03002 0.02946 0.0
C625 C 0.66575 0.01583 0.98232 0.0
N626 N 0.57741 0.03128 0.95017 0.0
N627 N 0.64472 0.01624 0.94673 0.0
H628 H 0.49163 0.65487 0.08222 0.0
H629 H 0.43872 0.5644 0.86103 0.0
H630 H 0.41423 0.65446 0.03294 0.0
H631 H 0.51548 0.56301 0.91851 0.0
H632 H 0.42882 0.59549 0.92926 0.0
H633 H 0.50023 0.61967 0.02721 0.0
C634 C 0.47644 0.64738 0.05964 0.0
C635 C 0.45221 0.65777 0.06151 0.0
C636 C 0.44779 0.58824 0.92735 0.0
C637 C 0.46189 0.6173 0.99882 0.0
C638 C 0.45346 0.57045 0.88847 0.0
C639 C 0.478 0.5612 0.88371 0.0
C640 C 0.46681 0.59693 0.9615 0.0
C641 C 0.49632 0.56969 0.92047 0.0
C642 C 0.48134 0.62718 0.02859 0.0
C643 C 0.43317 0.64699 0.03273 0.0
N644 N 0.49038 0.58721 0.95741 0.0
N645 N 0.43844 0.62744 0.00212 0.0
H646 H 0.83434 0.47698 0.09595 0.0
H647 H 0.94258 0.46465 0.92589 0.0
H648 H 0.87178 0.52932 0.18708 0.0
H649 H 0.95231 0.53819 0.95856 0.0
H650 H 0.90985 0.46208 0.00465 0.0
H651 H 0.86959 0.47367 0.02546 0.0
C652 C 0.85012 0.48758 0.10148 0.0
C653 C 0.8502 0.50337 0.14752 0.0
C654 C 0.91896 0.47885 0.99422 0.0
C655 C 0.89088 0.49934 0.06798 0.0
C656 C 0.93789 0.48026 0.94976 0.0
C657 C 0.95001 0.5018 0.93498 0.0
C658 C 0.91203 0.49916 0.02407 0.0
C659 C 0.94329 0.52132 0.96799 0.0
C660 C 0.87041 0.48545 0.06179 0.0
C661 C 0.87113 0.51668 0.15274 0.0
N662 N 0.92468 0.51956 0.01092 0.0
N663 N 0.89053 0.51457 0.11296 0.0
H664 H 0.04184 0.15073 0.24321 0.0
H665 H 0.02588 0.10101 0.91248 0.0
H666 H 0.05145 0.19591 0.0649 0.0
H667 H 0.05229 0.05516 0.08166 0.0
H668 H 0.02805 0.13646 0.96879 0.0
H669 H 0.03807 0.1159 0.18581 0.0
C670 C 0.04278 0.15337 0.19183 0.0
C671 C 0.0468 0.17625 0.15862 0.0
C672 C 0.03336 0.11864 0.99351 0.0
C673 C 0.04261 0.13647 0.09284 0.0
C674 C 0.03198 0.09843 0.96163 0.0
C675 C 0.03888 0.07516 0.99267 0.0
C676 C 0.0412 0.11548 0.05725 0.0
C677 C 0.04696 0.07282 0.05608 0.0
C678 C 0.04088 0.13346 0.15925 0.0
C679 C 0.04835 0.17856 0.09218 0.0
N680 N 0.0477 0.09271 0.08651 0.0
N681 N 0.04611 0.15892 0.06133 0.0
H682 H 0.28871 0.04726 0.09382 0.0
H683 H 0.40759 0.09353 0.90413 0.0
H684 H 0.30777 0.12186 0.07887 0.0
H685 H 0.40624 0.02372 0.01769 0.0
H686 H 0.36528 0.10374 0.93988 0.0
H687 H 0.32619 0.03802 0.03551 0.0
C688 C 0.30052 0.06178 0.07784 0.0
C689 C 0.29519 0.08531 0.09283 0.0
C690 C 0.37428 0.08615 0.95646 0.0
C691 C 0.33774 0.07484 0.02452 0.0
C692 C 0.39824 0.0804 0.93623 0.0
C693 C 0.4103 0.05799 0.95905 0.0
C694 C 0.36225 0.06903 0.99811 0.0
C695 C 0.39759 0.04135 0.00016 0.0
C696 C 0.32184 0.05646 0.04433 0.0
C697 C 0.31089 0.10347 0.06858 0.0
N698 N 0.3742 0.04717 0.01828 0.0
N699 N 0.33157 0.09782 0.03609 0.0
H700 H 0.51251 0.34287 0.07146 0.0
H701 H 0.4468 0.45847 0.85761 0.0
H702 H 0.43435 0.36341 0.0783 0.0
H703 H 0.52582 0.44859 0.88975 0.0
H704 H 0.44171 0.42027 0.9261 0.0
H705 H 0.51743 0.37809 0.99166 0.0
C706 C 0.49634 0.35459 0.05597 0.0
C707 C 0.47299 0.35009 0.08226 0.0
C708 C 0.46016 0.42646 0.91807 0.0
C709 C 0.47852 0.39036 0.99041 0.0
C710 C 0.46308 0.44828 0.87903 0.0
C711 C 0.48675 0.45686 0.86836 0.0
C712 C 0.48107 0.413 0.94623 0.0
C713 C 0.5072 0.4428 0.89711 0.0
C714 C 0.49918 0.37469 0.01032 0.0
C715 C 0.45267 0.36578 0.05912 0.0
N716 N 0.50388 0.42157 0.9347 0.0
N717 N 0.45594 0.38523 0.01491 0.0
H718 H 0.1665 0.42092 0.03253 0.0
H719 H 0.05736 0.52147 0.92913 0.0
H720 H 0.14483 0.4791 0.14006 0.0
H721 H 0.06058 0.45148 0.86325 0.0
H722 H 0.09407 0.50878 0.99468 0.0
H723 H 0.13202 0.43438 0.95853 0.0
C724 C 0.15468 0.43654 0.04058 0.0
C725 C 0.15879 0.44888 0.09285 0.0
C726 C 0.08677 0.49618 0.96588 0.0
C727 C 0.11959 0.4645 0.00776 0.0
C728 C 0.06582 0.50342 0.92831 0.0
C729 C 0.05578 0.48744 0.89094 0.0
C730 C 0.09799 0.47285 0.96583 0.0
C731 C 0.06761 0.46429 0.89178 0.0
C732 C 0.13505 0.44422 0.9982 0.0
C733 C 0.14295 0.46924 0.09999 0.0
N734 N 0.08816 0.45767 0.92866 0.0
N735 N 0.12414 0.47636 0.05806 0.0
H736 H 0.99348 0.82889 0.39538 0.0
H737 H 0.00548 0.89819 0.69296 0.0
H738 H 0.03212 0.7958 0.56652 0.0
H739 H 0.95122 0.9187 0.5434 0.0
H740 H 0.01344 0.85912 0.65342 0.0
H741 H 0.9757 0.8602 0.45311 0.0
C742 C 0.9979 0.82776 0.44544 0.0
C743 C 0.01462 0.80951 0.47558 0.0
C744 C 0.99946 0.87201 0.63001 0.0
C745 C 0.99475 0.84632 0.54198 0.0
C746 C 0.99481 0.89425 0.65282 0.0
C747 C 0.97796 0.91187 0.6207 0.0
C748 C 0.98726 0.86753 0.57458 0.0
C749 C 0.96477 0.90584 0.56865 0.0
C750 C 0.98781 0.84592 0.47842 0.0
C751 C 0.01986 0.80973 0.54052 0.0
N752 N 0.96996 0.88439 0.54669 0.0
N753 N 0.01029 0.82804 0.57124 0.0
H754 H 0.65761 0.95554 0.34841 0.0
H755 H 0.58826 0.98124 0.66215 0.0
H756 H 0.69616 0.96657 0.51957 0.0
H757 H 0.55183 0.96025 0.49888 0.0
H758 H 0.62826 0.97065 0.61703 0.0
H759 H 0.61965 0.95132 0.40828 0.0
C760 C 0.65835 0.95648 0.39893 0.0
C761 C 0.68025 0.96178 0.42855 0.0
C762 C 0.61151 0.96803 0.59148 0.0
C763 C 0.63623 0.95778 0.49733 0.0
C764 C 0.58859 0.97398 0.61741 0.0
C765 C 0.56656 0.97205 0.58374 0.0
C766 C 0.61243 0.96022 0.53131 0.0
C767 C 0.5683 0.96264 0.52574 0.0
C768 C 0.63646 0.9543 0.4331 0.0
C769 C 0.67965 0.96314 0.49418 0.0
N770 N 0.59079 0.95739 0.50104 0.0
N771 N 0.65792 0.96158 0.5261 0.0
H772 H 0.50238 0.66208 0.34315 0.0
H773 H 0.52478 0.59834 0.69867 0.0
H774 H 0.48569 0.7012 0.50125 0.0
H775 H 0.49128 0.56385 0.55289 0.0
H776 H 0.52492 0.63621 0.62371 0.0
H777 H 0.51385 0.62583 0.41791 0.0
C778 C 0.50183 0.66322 0.39364 0.0
C779 C 0.49303 0.68461 0.41621 0.0
C780 C 0.51794 0.62017 0.60821 0.0
C781 C 0.50608 0.64328 0.50153 0.0
C782 C 0.51797 0.59867 0.65054 0.0
C783 C 0.50795 0.57819 0.63147 0.0
C784 C 0.50854 0.62069 0.54635 0.0
C785 C 0.49906 0.57939 0.56912 0.0
C786 C 0.50818 0.64251 0.4361 0.0
C787 C 0.49227 0.68497 0.48214 0.0
N788 N 0.49966 0.60029 0.5286 0.0
N789 N 0.49861 0.66451 0.52273 0.0
H790 H 0.81124 0.52214 0.56276 0.0
H791 H 0.93908 0.57043 0.66651 0.0
H792 H 0.83558 0.5916 0.47993 0.0
H793 H 0.91975 0.4959 0.69619 0.0
H794 H 0.89886 0.58165 0.61258 0.0
H795 H 0.84758 0.51641 0.63072 0.0
C796 C 0.82383 0.53658 0.55977 0.0
C797 C 0.82019 0.55742 0.51491 0.0
C798 C 0.90353 0.56289 0.63112 0.0
C799 C 0.8628 0.5503 0.59177 0.0
C800 C 0.92642 0.55647 0.66172 0.0
C801 C 0.93283 0.53216 0.68542 0.0
C802 C 0.88694 0.5449 0.62533 0.0
C803 C 0.91574 0.51481 0.6782 0.0
C804 C 0.84491 0.53305 0.59817 0.0
C805 C 0.83777 0.57507 0.51295 0.0
N806 N 0.89363 0.52154 0.64901 0.0
N807 N 0.8585 0.57101 0.55038 0.0
loop_
_geom_bond_atom_site_label_1
_geom_bond_atom_site_label_2
_geom_bond_distance
_geom_bond_site_symmetry_2
_ccdc_geom_bond_type
P0 O11 1.490 . S
P0 C14 1.812 . S
P0 C20 1.803 . S
P0 C26 1.819 . S
H1 C15 0.941 . S
H2 C16 0.939 . S
H3 C18 0.940 . S
H4 C19 0.940 . S
H5 C21 0.939 . S
H6 C22 0.942 . S
H7 C24 0.940 . S
H8 C25 0.939 . S
H9 C27 0.941 . S
H10 C31 0.939 . S
O11 P0 1.490 . S
H12 C28 0.939 . S
H13 C30 0.941 . S
C14 P0 1.812 . S
C14 C15 1.389 . S
C14 C19 1.391 . S
C15 H1 0.941 . S
C15 C14 1.389 . S
C15 C16 1.397 . S
C16 H2 0.939 . S
C16 C15 1.397 . S
C16 C17 1.378 . S
C17 C16 1.378 . S
C17 C18 1.378 . S
C18 H3 0.940 . S
C18 C17 1.378 . S
C18 C19 1.396 . S
C19 H4 0.940 . S
C19 C14 1.391 . S
C19 C18 1.396 . S
C20 P0 1.803 . S
C20 C21 1.378 . S
C20 C25 1.400 . S
C21 H5 0.939 . S
C21 C20 1.378 . S
C21 C22 1.361 . S
C22 H6 0.942 . S
C22 C21 1.361 . S
C22 C23 1.369 . S
C23 C22 1.369 . S
C23 C24 1.404 . S
C24 H7 0.940 . S
C24 C23 1.404 . S
C24 C25 1.389 . S
C25 H8 0.939 . S
C25 C20 1.400 . S
C25 C24 1.389 . S
C26 P0 1.819 . S
C26 C27 1.391 . S
C26 C31 1.391 . S
C27 H9 0.941 . S
C27 C26 1.391 . S
C27 C28 1.396 . S
C28 H12 0.939 . S
C28 C27 1.396 . S
C28 C29 1.397 . S
C29 C28 1.397 . S
C29 C30 1.385 1_554 S
C30 H13 0.941 . S
C30 C29 1.385 1_556 S
C30 C31 1.388 1_556 S
C31 H10 0.939 . S
C31 C26 1.391 . S
C31 C30 1.388 1_554 S
P32 O43 1.490 . S
P32 C46 1.812 . S
P32 C52 1.803 . S
P32 C58 1.819 . S
H33 C47 0.941 . S
H34 C48 0.939 . S
H35 C50 0.940 . S
H36 C51 0.950 . S
H37 C53 0.939 . S
H38 C54 0.942 . S
H39 C56 0.940 . S
H40 C57 0.958 . S
H41 C59 0.941 . S
H42 C63 0.927 1_655 S
O43 P32 1.490 . S
H44 C60 0.939 . S
H45 C62 0.940 . S
C46 P32 1.812 . S
C46 C47 1.389 . S
C46 C51 1.376 1_455 S
C47 H33 0.941 . S
C47 C46 1.389 . S
C47 C48 1.397 . S
C48 H34 0.939 . S
C48 C47 1.397 . S
C48 C49 1.378 . S
C49 C48 1.378 . S
C49 C50 1.378 1_455 S
C50 H35 0.940 . S
C50 C49 1.378 1_655 S
C50 C51 1.402 . S
C51 H36 0.950 . S
C51 C46 1.376 1_655 S
C51 C50 1.402 . S
C52 P32 1.803 . S
C52 C53 1.378 . S
C52 C57 1.368 1_455 S
C53 H37 0.939 . S
C53 C52 1.378 . S
C53 C54 1.361 . S
C54 H38 0.942 . S
C54 C53 1.361 . S
C54 C55 1.369 . S
C55 C54 1.369 . S
C55 C56 1.404 1_455 S
C56 H39 0.940 . S
C56 C55 1.404 1_655 S
C56 C57 1.404 . S
C57 H40 0.958 . S
C57 C52 1.368 1_655 S
C57 C56 1.404 . S
C58 P32 1.819 . S
C58 C59 1.391 . S
C58 C63 1.391 . S
C59 H41 0.941 . S
C59 C58 1.391 . S
C59 C60 1.396 . S
C60 H44 0.939 . S
C60 C59 1.396 . S
C60 C61 1.397 1_554 S
C61 C60 1.397 1_556 S
C61 C62 1.385 1_455 S
C62 H45 0.940 . S
C62 C61 1.385 1_655 S
C62 C63 1.388 1_656 S
C63 H42 0.927 1_455 S
C63 C58 1.391 . S
C63 C62 1.388 1_454 S
P64 O75 1.490 1_565 S
P64 C78 1.812 . S
P64 C84 1.803 . S
P64 C90 1.819 . S
H65 C79 0.941 . S
H66 C80 0.939 . S
H67 C82 0.940 . S
H68 C83 0.940 . S
H69 C85 0.939 . S
H70 C86 0.949 . S
H71 C88 0.940 . S
H72 C89 0.939 . S
H73 C91 0.941 . S
H74 C95 0.939 . S
O75 P64 1.490 1_545 S
H76 C92 0.939 . S
H77 C94 0.940 . S
C78 P64 1.812 . S
C78 C79 1.389 . S
C78 C83 1.391 . S
C79 H65 0.941 . S
C79 C78 1.389 . S
C79 C80 1.397 . S
C80 H66 0.939 . S
C80 C79 1.397 . S
C80 C81 1.378 . S
C81 C80 1.378 . S
C81 C82 1.378 . S
C82 H67 0.940 . S
C82 C81 1.378 . S
C82 C83 1.396 . S
C83 H68 0.940 . S
C83 C78 1.391 . S
C83 C82 1.396 . S
C84 P64 1.803 . S
C84 C85 1.378 . S
C84 C89 1.400 . S
C85 H69 0.939 . S
C85 C84 1.378 . S
C85 C86 1.361 . S
C86 H70 0.949 . S
C86 C85 1.361 . S
C86 C87 1.369 . S
C87 C86 1.369 . S
C87 C88 1.404 . S
C88 H71 0.940 . S
C88 C87 1.404 . S
C88 C89 1.389 . S
C89 H72 0.939 . S
C89 C84 1.400 . S
C89 C88 1.389 . S
C90 P64 1.819 . S
C90 C91 1.391 . S
C90 C95 1.391 . S
C91 H73 0.941 . S
C91 C90 1.391 . S
C91 C92 1.396 1_554 S
C92 H76 0.939 . S
C92 C91 1.396 1_556 S
C92 C93 1.397 . S
C93 C92 1.397 . S
C93 C94 1.385 . S
C94 H77 0.940 . S
C94 C93 1.385 . S
C94 C95 1.388 1_556 S
C95 H74 0.939 . S
C95 C90 1.391 . S
C95 C94 1.388 1_554 S
P96 O107 1.490 . S
P96 C110 1.812 . S
P96 C116 1.803 . S
P96 C122 1.819 . S
H97 C111 0.941 . S
H98 C112 0.939 . S
H99 C114 0.940 . S
H100 C115 0.940 . S
H101 C117 0.939 . S
H102 C118 0.942 . S
H103 C120 0.940 . S
H104 C121 0.939 . S
H105 C123 0.941 . S
H106 C127 0.939 . S
O107 P96 1.490 . S
H108 C124 0.939 . S
H109 C126 0.940 . S
C110 P96 1.812 . S
C110 C111 1.389 . S
C110 C115 1.391 . S
C111 H97 0.941 . S
C111 C110 1.389 . S
C111 C112 1.397 . S
C112 H98 0.939 . S
C112 C111 1.397 . S
C112 C113 1.378 . S
C113 C112 1.378 . S
C113 C114 1.378 . S
C114 H99 0.940 . S
C114 C113 1.378 . S
C114 C115 1.396 . S
C115 H100 0.940 . S
C115 C110 1.391 . S
C115 C114 1.396 . S
C116 P96 1.803 . S
C116 C117 1.378 . S
C116 C121 1.400 . S
C117 H101 0.939 . S
C117 C116 1.378 . S
C117 C118 1.361 . S
C118 H102 0.942 . S
C118 C117 1.361 . S
C118 C119 1.369 . S
C119 C118 1.369 . S
C119 C120 1.404 . S
C120 H103 0.940 . S
C120 C119 1.404 . S
C120 C121 1.389 . S
C121 H104 0.939 . S
C121 C116 1.400 . S
C121 C120 1.389 . S
C122 P96 1.819 . S
C122 C123 1.391 . S
C122 C127 1.391 . S
C123 H105 0.941 . S
C123 C122 1.391 . S
C123 C124 1.396 . S
C124 H108 0.939 . S
C124 C123 1.396 . S
C124 C125 1.397 1_554 S
C125 C124 1.397 1_556 S
C125 C126 1.385 . S
C126 H109 0.940 . S
C126 C125 1.385 . S
C126 C127 1.388 1_556 S
C127 H106 0.939 . S
C127 C122 1.391 . S
C127 C126 1.388 1_554 S
P128 O139 1.490 . S
P128 C142 1.812 . S
P128 C148 1.803 . S
P128 C154 1.819 . S
H129 C143 0.941 . S
H130 C144 0.939 . S
H131 C146 0.940 . S
H132 C147 0.940 . S
H133 C149 0.939 . S
H134 C150 0.942 . S
H135 C152 0.940 . S
H136 C153 0.939 . S
H137 C155 0.941 . S
H138 C159 0.939 . S
O139 P128 1.490 . S
H140 C156 0.939 . S
H141 C158 0.940 . S
C142 P128 1.812 . S
C142 C143 1.389 . S
C142 C147 1.391 . S
C143 H129 0.941 . S
C143 C142 1.389 . S
C143 C144 1.397 . S
C144 H130 0.939 . S
C144 C143 1.397 . S
C144 C145 1.378 . S
C145 C144 1.378 . S
C145 C146 1.378 . S
C146 H131 0.940 . S
C146 C145 1.378 . S
C146 C147 1.396 . S
C147 H132 0.940 . S
C147 C142 1.391 . S
C147 C146 1.396 . S
C148 P128 1.803 . S
C148 C149 1.378 . S
C148 C153 1.400 . S
C149 H133 0.939 . S
C149 C148 1.378 . S
C149 C150 1.361 . S
C150 H134 0.942 . S
C150 C149 1.361 . S
C150 C151 1.369 . S
C151 C150 1.369 . S
C151 C152 1.404 . S
C152 H135 0.940 . S
C152 C151 1.404 . S
C152 C153 1.389 . S
C153 H136 0.939 . S
C153 C148 1.400 . S
C153 C152 1.389 . S
C154 P128 1.819 . S
C154 C155 1.391 . S
C154 C159 1.391 . S
C155 H137 0.941 . S
C155 C154 1.391 . S
C155 C156 1.396 . S
C156 H140 0.939 . S
C156 C155 1.396 . S
C156 C157 1.397 . S
C157 C156 1.397 . S
C157 C158 1.385 . S
C158 H141 0.940 . S
C158 C157 1.385 . S
C158 C159 1.388 . S
C159 H138 0.939 . S
C159 C154 1.391 . S
C159 C158 1.388 . S
P160 O171 1.490 . S
P160 C174 1.812 . S
P160 C180 1.803 . S
P160 C186 1.819 . S
H161 C175 0.941 . S
H162 C176 0.939 . S
H163 C178 0.940 . S
H164 C179 0.944 . S
H165 C181 0.939 . S
H166 C182 0.942 . S
H167 C184 0.940 . S
H168 C185 0.954 . S
H169 C187 0.941 . S
H170 C191 0.934 1_655 S
O171 P160 1.490 . S
H172 C188 0.939 . S
H173 C190 0.940 . S
C174 P160 1.812 . S
C174 C175 1.389 . S
C174 C179 1.385 1_455 S
C175 H161 0.941 . S
C175 C174 1.389 . S
C175 C176 1.397 . S
C176 H162 0.939 . S
C176 C175 1.397 . S
C176 C177 1.378 . S
C177 C176 1.378 . S
C177 C178 1.378 1_455 S
C178 H163 0.940 . S
C178 C177 1.378 1_655 S
C178 C179 1.399 . S
C179 H164 0.944 . S
C179 C174 1.385 1_655 S
C179 C178 1.399 . S
C180 P160 1.803 . S
C180 C181 1.378 . S
C180 C185 1.379 1_455 S
C181 H165 0.939 . S
C181 C180 1.378 . S
C181 C182 1.361 . S
C182 H166 0.942 . S
C182 C181 1.361 . S
C182 C183 1.369 . S
C183 C182 1.369 . S
C183 C184 1.404 1_455 S
C184 H167 0.940 . S
C184 C183 1.404 1_655 S
C184 C185 1.397 . S
C185 H168 0.954 . S
C185 C180 1.379 1_655 S
C185 C184 1.397 . S
C186 P160 1.819 . S
C186 C187 1.391 . S
C186 C191 1.391 . S
C187 H169 0.941 . S
C187 C186 1.391 . S
C187 C188 1.396 . S
C188 H172 0.939 . S
C188 C187 1.396 . S
C188 C189 1.397 . S
C189 C188 1.397 . S
C189 C190 1.385 1_455 S
C190 H173 0.940 . S
C190 C189 1.385 1_655 S
C190 C191 1.388 1_655 S
C191 H170 0.934 1_455 S
C191 C186 1.391 . S
C191 C190 1.388 1_455 S
P192 O203 1.490 . S
P192 C206 1.812 . S
P192 C212 1.803 . S
P192 C218 1.819 . S
H193 C207 0.941 . S
H194 C208 0.939 . S
H195 C210 0.940 . S
H196 C211 0.940 . S
H197 C213 0.939 . S
H198 C214 0.942 . S
H199 C216 0.940 . S
H200 C217 0.939 . S
H201 C219 0.941 . S
H202 C223 0.939 . S
O203 P192 1.490 . S
H204 C220 0.939 . S
H205 C222 0.940 . S
C206 P192 1.812 . S
C206 C207 1.389 . S
C206 C211 1.391 . S
C207 H193 0.941 . S
C207 C206 1.389 . S
C207 C208 1.397 . S
C208 H194 0.939 . S
C208 C207 1.397 . S
C208 C209 1.378 . S
C209 C208 1.378 . S
C209 C210 1.378 . S
C210 H195 0.940 . S
C210 C209 1.378 . S
C210 C211 1.396 . S
C211 H196 0.940 . S
C211 C206 1.391 . S
C211 C210 1.396 . S
C212 P192 1.803 . S
C212 C213 1.378 . S
C212 C217 1.400 . S
C213 H197 0.939 . S
C213 C212 1.378 . S
C213 C214 1.361 . S
C214 H198 0.942 . S
C214 C213 1.361 . S
C214 C215 1.369 . S
C215 C214 1.369 . S
C215 C216 1.404 . S
C216 H199 0.940 . S
C216 C215 1.404 . S
C216 C217 1.389 . S
C217 H200 0.939 . S
C217 C212 1.400 . S
C217 C216 1.389 . S
C218 P192 1.819 . S
C218 C219 1.391 . S
C218 C223 1.391 . S
C219 H201 0.941 . S
C219 C218 1.391 . S
C219 C220 1.396 . S
C220 H204 0.939 . S
C220 C219 1.396 . S
C220 C221 1.397 . S
C221 C220 1.397 . S
C221 C222 1.385 . S
C222 H205 0.940 . S
C222 C221 1.385 . S
C222 C223 1.388 . S
C223 H202 0.939 . S
C223 C218 1.391 . S
C223 C222 1.388 . S
P224 O235 1.490 . S
P224 C238 1.812 . S
P224 C244 1.803 . S
P224 C250 1.819 . S
H225 C239 0.941 . S
H226 C240 0.939 . S
H227 C242 0.940 . S
H228 C243 0.940 . S
H229 C245 0.939 . S
H230 C246 0.942 . S
H231 C248 0.940 . S
H232 C249 0.939 . S
H233 C251 0.941 . S
H234 C255 0.939 . S
O235 P224 1.490 . S
H236 C252 0.939 . S
H237 C254 0.940 . S
C238 P224 1.812 . S
C238 C239 1.389 . S
C238 C243 1.391 . S
C239 H225 0.941 . S
C239 C238 1.389 . S
C239 C240 1.397 . S
C240 H226 0.939 . S
C240 C239 1.397 . S
C240 C241 1.378 . S
C241 C240 1.378 . S
C241 C242 1.378 . S
C242 H227 0.940 . S
C242 C241 1.378 . S
C242 C243 1.396 . S
C243 H228 0.940 . S
C243 C238 1.391 . S
C243 C242 1.396 . S
C244 P224 1.803 . S
C244 C245 1.378 . S
C244 C249 1.400 . S
C245 H229 0.939 . S
C245 C244 1.378 . S
C245 C246 1.361 . S
C246 H230 0.942 . S
C246 C245 1.361 . S
C246 C247 1.369 . S
C247 C246 1.369 . S
C247 C248 1.404 . S
C248 H231 0.940 . S
C248 C247 1.404 . S
C248 C249 1.389 . S
C249 H232 0.939 . S
C249 C244 1.400 . S
C249 C248 1.389 . S
C250 P224 1.819 . S
C250 C251 1.391 . S
C250 C255 1.391 . S
C251 H233 0.941 . S
C251 C250 1.391 . S
C251 C252 1.396 . S
C252 H236 0.939 . S
C252 C251 1.396 . S
C252 C253 1.397 . S
C253 C252 1.397 . S
C253 C254 1.385 . S
C254 H237 0.940 . S
C254 C253 1.385 . S
C254 C255 1.388 . S
C255 H234 0.939 . S
C255 C250 1.391 . S
C255 C254 1.388 . S
Co256 N261 2.057 . S
Co256 O273 2.021 . S
Co256 O276 2.062 1_455 S
Co256 O280 2.117 1_455 S
Co256 O281 2.020 1_545 S
C257 O277 1.259 1_545 S
C257 O280 1.258 . S
Co258 N267 2.061 . S
Co258 O274 2.115 1_665 S
Co258 O275 2.014 1_565 S
Co258 O277 2.021 . S
Co258 O282 2.066 1_655 S
C259 N261 1.316 . S
C259 N262 1.347 . S
C259 H264 0.931 . S
C260 N261 1.375 1_655 S
C260 C263 1.350 . S
C260 H265 0.930 . S
N261 Co256 2.057 . S
N261 C259 1.316 . S
N261 C260 1.375 1_455 S
N262 C259 1.347 . S
N262 C263 1.373 1_455 S
C263 C260 1.350 . S
C263 N262 1.373 1_655 S
C263 H284 0.931 1_556 S
H264 C259 0.931 . S
H265 C260 0.930 . S
C266 O273 1.259 . S
C266 O274 1.258 . S
N267 Co258 2.061 . S
N267 C268 1.316 . S
N267 C269 1.375 1_655 S
C268 N267 1.316 . S
C268 N270 1.347 . S
C268 H279 0.931 . S
C269 N267 1.375 1_455 S
C269 C271 1.350 . S
C269 H278 0.930 . S
N270 C268 1.347 . S
N270 C271 1.373 1_655 S
C271 C269 1.350 . S
C271 N270 1.373 1_455 S
C271 H285 0.931 . S
C272 O275 1.256 . S
C272 O276 1.255 . S
O273 Co256 2.021 . S
O273 C266 1.259 . S
O274 Co258 2.115 1_445 S
O274 C266 1.258 . S
O275 Co258 2.014 1_545 S
O275 C272 1.256 . S
O276 Co256 2.062 1_655 S
O276 C272 1.255 . S
O277 C257 1.259 1_565 S
O277 Co258 2.021 . S
H278 C269 0.930 . S
H279 C268 0.931 . S
O280 Co256 2.117 1_655 S
O280 C257 1.258 . S
O281 Co256 2.020 1_565 S
O281 C283 1.256 . S
O282 Co258 2.066 1_455 S
O282 C283 1.255 . S
C283 O281 1.256 . S
C283 O282 1.255 . S
H284 C263 0.931 1_554 S
H285 C271 0.931 . S
Co286 N291 2.057 . S
Co286 O303 2.021 . S
Co286 O306 2.062 . S
Co286 O310 2.117 1_545 S
Co286 O311 2.020 . S
C287 O307 1.259 . S
C287 O310 1.258 . S
Co288 N297 2.063 . S
Co288 O304 2.117 . S
Co288 O305 2.020 . S
Co288 O307 2.021 1_545 S
Co288 O312 2.062 1_545 S
C289 N291 1.316 . S
C289 N292 1.347 . S
C289 H294 0.931 . S
C290 N291 1.375 . S
C290 C293 1.350 . S
C290 H295 0.930 1_545 S
N291 Co286 2.057 . S
N291 C289 1.316 . S
N291 C290 1.375 . S
N292 C289 1.347 . S
N292 C293 1.373 . S
C293 C290 1.350 . S
C293 N292 1.373 . S
C293 H314 0.931 1_556 S
H294 C289 0.931 . S
H295 C290 0.930 1_565 S
C296 O303 1.259 . S
C296 O304 1.258 . S
N297 Co288 2.063 . S
N297 C298 1.277 1_545 S
N297 C299 1.407 . S
C298 N297 1.277 1_565 S
C298 N300 1.347 . S
C298 H309 0.931 . S
C299 N297 1.407 . S
C299 C301 1.350 . S
C299 H308 0.930 . S
N300 C298 1.347 . S
N300 C301 1.373 1_565 S
C301 C299 1.350 . S
C301 N300 1.373 1_545 S
C301 H315 0.931 . S
C302 O305 1.256 . S
C302 O306 1.255 . S
O303 Co286 2.021 . S
O303 C296 1.259 . S
O304 Co288 2.117 . S
O304 C296 1.258 . S
O305 Co288 2.020 . S
O305 C302 1.256 . S
O306 Co286 2.062 . S
O306 C302 1.255 . S
O307 C287 1.259 . S
O307 Co288 2.021 1_565 S
H308 C299 0.930 . S
H309 C298 0.931 . S
O310 Co286 2.117 1_565 S
O310 C287 1.258 . S
O311 Co286 2.020 . S
O311 C313 1.256 . S
O312 Co288 2.062 1_565 S
O312 C313 1.255 1_565 S
C313 O311 1.256 . S
C313 O312 1.255 1_545 S
H314 C293 0.931 1_554 S
H315 C301 0.931 . S
Co316 N321 2.057 . S
Co316 O333 2.021 . S
Co316 O336 2.062 . S
Co316 O340 2.117 . S
Co316 O341 2.020 . S
C317 O337 1.259 . S
C317 O340 1.258 . S
Co318 N327 2.057 . S
Co318 O334 2.117 . S
Co318 O335 2.020 . S
Co318 O337 2.021 . S
Co318 O342 2.062 . S
C319 N321 1.316 . S
C319 N322 1.347 . S
C319 H324 0.931 . S
C320 N321 1.375 . S
C320 C323 1.350 . S
C320 H325 0.930 . S
N321 Co316 2.057 . S
N321 C319 1.316 . S
N321 C320 1.375 . S
N322 C319 1.347 . S
N322 C323 1.373 . S
C323 C320 1.350 . S
C323 N322 1.373 . S
C323 H344 0.931 . S
H324 C319 0.931 . S
H325 C320 0.930 . S
C326 O333 1.259 . S
C326 O334 1.258 . S
N327 Co318 2.057 . S
N327 C328 1.316 . S
N327 C329 1.375 . S
C328 N327 1.316 . S
C328 N330 1.347 . S
C328 H339 0.931 . S
C329 N327 1.375 . S
C329 C331 1.350 . S
C329 H338 0.930 . S
N330 C328 1.347 . S
N330 C331 1.373 . S
C331 C329 1.350 . S
C331 N330 1.373 . S
C331 H345 0.931 . S
C332 O335 1.256 . S
C332 O336 1.255 . S
O333 Co316 2.021 . S
O333 C326 1.259 . S
O334 Co318 2.117 . S
O334 C326 1.258 . S
O335 Co318 2.020 . S
O335 C332 1.256 . S
O336 Co316 2.062 . S
O336 C332 1.255 . S
O337 C317 1.259 . S
O337 Co318 2.021 . S
H338 C329 0.930 . S
H339 C328 0.931 . S
O340 Co316 2.117 . S
O340 C317 1.258 . S
O341 Co316 2.020 . S
O341 C343 1.256 . S
O342 Co318 2.062 . S
O342 C343 1.255 . S
C343 O341 1.256 . S
C343 O342 1.255 . S
H344 C323 0.931 . S
H345 C331 0.931 . S
Co346 N351 2.057 . S
Co346 O363 2.021 1_455 S
Co346 O366 2.062 1_455 S
Co346 O370 2.117 . S
Co346 O371 2.020 . S
C347 O367 1.259 . S
C347 O370 1.258 . S
Co348 N357 2.057 . S
Co348 O364 2.117 . S
Co348 O365 2.020 . S
Co348 O367 2.021 1_655 S
Co348 O372 2.062 1_655 S
C349 N351 1.316 . S
C349 N352 1.347 . S
C349 H354 0.931 1_455 S
C350 N351 1.375 . S
C350 C353 1.350 . S
C350 H355 0.930 . S
N351 Co346 2.057 . S
N351 C349 1.316 . S
N351 C350 1.375 . S
N352 C349 1.347 . S
N352 C353 1.373 . S
C353 C350 1.350 . S
C353 N352 1.373 . S
C353 H374 0.931 . S
H354 C349 0.931 1_655 S
H355 C350 0.930 . S
C356 O363 1.259 . S
C356 O364 1.258 . S
N357 Co348 2.057 . S
N357 C358 1.316 . S
N357 C359 1.375 . S
C358 N357 1.316 . S
C358 N360 1.347 . S
C358 H369 0.931 1_655 S
C359 N357 1.375 . S
C359 C361 1.350 . S
C359 H368 0.930 . S
N360 C358 1.347 . S
N360 C361 1.373 . S
C361 C359 1.350 . S
C361 N360 1.373 . S
C361 H375 0.931 . S
C362 O365 1.256 . S
C362 O366 1.255 . S
O363 Co346 2.021 1_655 S
O363 C356 1.259 . S
O364 Co348 2.117 . S
O364 C356 1.258 . S
O365 Co348 2.020 . S
O365 C362 1.256 . S
O366 Co346 2.062 1_655 S
O366 C362 1.255 . S
O367 C347 1.259 . S
O367 Co348 2.021 1_455 S
H368 C359 0.930 . S
H369 C358 0.931 1_455 S
O370 Co346 2.117 . S
O370 C347 1.258 . S
O371 Co346 2.020 . S
O371 C373 1.256 . S
O372 Co348 2.062 1_455 S
O372 C373 1.255 . S
C373 O371 1.256 . S
C373 O372 1.255 . S
H374 C353 0.931 . S
H375 C361 0.931 . S
H376 C382 0.930 . S
H377 C386 0.930 . S
H378 C391 0.929 . S
H379 C389 0.929 . S
H380 C384 0.929 . S
H381 C390 0.929 . S
C382 H376 0.930 . S
C382 C383 1.367 . S
C382 C390 1.378 . S
C383 C382 1.367 . S
C383 C391 1.433 . S
C384 H380 0.929 . S
C384 C386 1.378 . S
C384 C388 1.350 . S
C385 C388 1.463 . S
C385 C390 1.350 . S
C385 N393 1.427 . S
C386 H377 0.930 . S
C386 C384 1.378 . S
C386 C387 1.367 . S
C387 C386 1.367 . S
C387 C389 1.433 . S
C388 C384 1.350 . S
C388 C385 1.463 . S
C388 N392 1.427 . S
C389 H379 0.929 . S
C389 C387 1.433 . S
C389 N392 1.384 . S
C390 H381 0.929 . S
C390 C382 1.378 . S
C390 C385 1.350 . S
C391 H378 0.929 . S
C391 C383 1.433 . S
C391 N393 1.384 . S
N392 C388 1.427 . S
N392 C389 1.384 . S
N393 C385 1.427 . S
N393 C391 1.384 . S
H394 C400 0.930 . S
H395 C404 0.930 . S
H396 C409 0.929 . S
H397 C407 0.929 . S
H398 C402 0.929 . S
H399 C408 0.929 . S
C400 H394 0.930 . S
C400 C401 1.367 . S
C400 C408 1.378 . S
C401 C400 1.367 . S
C401 C409 1.433 . S
C402 H398 0.929 . S
C402 C404 1.378 . S
C402 C406 1.350 . S
C403 C406 1.463 . S
C403 C408 1.350 . S
C403 N411 1.427 . S
C404 H395 0.930 . S
C404 C402 1.378 . S
C404 C405 1.367 . S
C405 C404 1.367 . S
C405 C407 1.433 . S
C406 C402 1.350 . S
C406 C403 1.463 . S
C406 N410 1.427 . S
C407 H397 0.929 . S
C407 C405 1.433 . S
C407 N410 1.384 . S
C408 H399 0.929 . S
C408 C400 1.378 . S
C408 C403 1.350 . S
C409 H396 0.929 . S
C409 C401 1.433 . S
C409 N411 1.384 . S
N410 C406 1.427 . S
N410 C407 1.384 . S
N411 C403 1.427 . S
N411 C409 1.384 . S
H412 C418 0.930 . S
H413 C422 0.930 . S
H414 C427 0.929 . S
H415 C425 0.929 . S
H416 C420 0.929 . S
H417 C426 0.929 . S
C418 H412 0.930 . S
C418 C419 1.367 . S
C418 C426 1.378 . S
C419 C418 1.367 . S
C419 C427 1.433 . S
C420 H416 0.929 . S
C420 C422 1.378 . S
C420 C424 1.350 . S
C421 C424 1.463 . S
C421 C426 1.350 . S
C421 N429 1.427 . S
C422 H413 0.930 . S
C422 C420 1.378 . S
C422 C423 1.367 . S
C423 C422 1.367 . S
C423 C425 1.433 . S
C424 C420 1.350 . S
C424 C421 1.463 . S
C424 N428 1.427 . S
C425 H415 0.929 . S
C425 C423 1.433 . S
C425 N428 1.384 . S
C426 H417 0.929 . S
C426 C418 1.378 . S
C426 C421 1.350 . S
C427 H414 0.929 . S
C427 C419 1.433 . S
C427 N429 1.384 . S
N428 C424 1.427 . S
N428 C425 1.384 . S
N429 C421 1.427 . S
N429 C427 1.384 . S
H430 C436 0.930 . S
H431 C440 0.930 . S
H432 C445 0.929 . S
H433 C443 0.929 . S
H434 C438 0.929 . S
H435 C444 0.929 . S
C436 H430 0.930 . S
C436 C437 1.367 . S
C436 C444 1.378 . S
C437 C436 1.367 . S
C437 C445 1.433 1_655 S
C438 H434 0.929 . S
C438 C440 1.378 . S
C438 C442 1.350 1_455 S
C439 C442 1.463 . S
C439 C444 1.350 . S
C439 N447 1.427 1_655 S
C440 H431 0.930 . S
C440 C438 1.378 . S
C440 C441 1.367 1_455 S
C441 C440 1.367 1_655 S
C441 C443 1.433 . S
C442 C438 1.350 1_655 S
C442 C439 1.463 . S
C442 N446 1.427 . S
C443 H433 0.929 . S
C443 C441 1.433 . S
C443 N446 1.384 . S
C444 H435 0.929 . S
C444 C436 1.378 . S
C444 C439 1.350 . S
C445 H432 0.929 . S
C445 C437 1.433 1_455 S
C445 N447 1.384 . S
N446 C442 1.427 . S
N446 C443 1.384 . S
N447 C439 1.427 1_455 S
N447 C445 1.384 . S
H448 C454 0.930 . S
H449 C458 0.952 . S
H450 C463 0.929 . S
H451 C461 0.929 . S
H452 C456 0.929 . S
H453 C462 0.929 . S
C454 H448 0.930 . S
C454 C455 1.367 1_556 S
C454 C462 1.378 . S
C455 C454 1.367 1_554 S
C455 C463 1.433 . S
C456 H452 0.929 . S
C456 C458 1.366 1_565 S
C456 C460 1.350 . S
C457 C460 1.463 . S
C457 C462 1.350 . S
C457 N465 1.427 1_556 S
C458 H449 0.952 . S
C458 C456 1.366 1_545 S
C458 C459 1.358 1_545 S
C459 C458 1.358 1_565 S
C459 C461 1.433 . S
C460 C456 1.350 . S
C460 C457 1.463 . S
C460 N464 1.427 . S
C461 H451 0.929 . S
C461 C459 1.433 . S
C461 N464 1.384 . S
C462 H453 0.929 . S
C462 C454 1.378 . S
C462 C457 1.350 . S
C463 H450 0.929 . S
C463 C455 1.433 . S
C463 N465 1.384 . S
N464 C460 1.427 . S
N464 C461 1.384 . S
N465 C457 1.427 1_554 S
N465 C463 1.384 . S
H466 C472 0.930 . S
H467 C476 0.930 . S
H468 C481 0.929 . S
H469 C479 0.929 . S
H470 C474 0.929 . S
H471 C480 0.929 . S
C472 H466 0.930 . S
C472 C473 1.367 . S
C472 C480 1.378 . S
C473 C472 1.367 . S
C473 C481 1.433 1_554 S
C474 H470 0.929 . S
C474 C476 1.378 . S
C474 C478 1.350 . S
C475 C478 1.463 . S
C475 C480 1.350 1_556 S
C475 N483 1.427 . S
C476 H467 0.930 . S
C476 C474 1.378 . S
C476 C477 1.367 . S
C477 C476 1.367 . S
C477 C479 1.433 . S
C478 C474 1.350 . S
C478 C475 1.463 . S
C478 N482 1.427 . S
C479 H469 0.929 . S
C479 C477 1.433 . S
C479 N482 1.384 . S
C480 H471 0.929 . S
C480 C472 1.378 . S
C480 C475 1.350 1_554 S
C481 H468 0.929 . S
C481 C473 1.433 1_556 S
C481 N483 1.384 . S
N482 C478 1.427 . S
N482 C479 1.384 . S
N483 C475 1.427 . S
N483 C481 1.384 . S
H484 C490 0.930 . S
H485 C494 0.930 . S
H486 C499 0.929 . S
H487 C497 0.929 . S
H488 C492 0.929 1_554 S
H489 C498 0.929 . S
C490 H484 0.930 . S
C490 C491 1.367 1_556 S
C490 C498 1.378 . S
C491 C490 1.367 1_554 S
C491 C499 1.433 . S
C492 H488 0.929 1_556 S
C492 C494 1.378 . S
C492 C496 1.350 . S
C493 C496 1.463 . S
C493 C498 1.350 . S
C493 N501 1.427 1_556 S
C494 H485 0.930 . S
C494 C492 1.378 . S
C494 C495 1.367 . S
C495 C494 1.367 . S
C495 C497 1.433 . S
C496 C492 1.350 . S
C496 C493 1.463 . S
C496 N500 1.427 . S
C497 H487 0.929 . S
C497 C495 1.433 . S
C497 N500 1.384 . S
C498 H489 0.929 . S
C498 C490 1.378 . S
C498 C493 1.350 . S
C499 H486 0.929 . S
C499 C491 1.433 . S
C499 N501 1.384 . S
N500 C496 1.427 . S
N500 C497 1.384 . S
N501 C493 1.427 1_554 S
N501 C499 1.384 . S
H502 C508 0.930 . S
H503 C512 0.926 1_655 S
H504 C517 0.929 1_556 S
H505 C515 0.929 . S
H506 C510 0.929 . S
H507 C516 0.929 . S
C508 H502 0.930 . S
C508 C509 1.367 . S
C508 C516 1.378 . S
C509 C508 1.367 . S
C509 C517 1.433 1_455 S
C510 H506 0.929 . S
C510 C512 1.377 1_655 S
C510 C514 1.350 1_655 S
C511 C514 1.463 . S
C511 C516 1.350 1_556 S
C511 N519 1.427 1_455 S
C512 H503 0.926 1_455 S
C512 C510 1.377 1_455 S
C512 C513 1.372 . S
C513 C512 1.372 . S
C513 C515 1.433 . S
C514 C510 1.350 1_455 S
C514 C511 1.463 . S
C514 N518 1.427 . S
C515 H505 0.929 . S
C515 C513 1.433 . S
C515 N518 1.384 . S
C516 H507 0.929 . S
C516 C508 1.378 . S
C516 C511 1.350 1_554 S
C517 H504 0.929 1_554 S
C517 C509 1.433 1_655 S
C517 N519 1.384 1_554 S
N518 C514 1.427 . S
N518 C515 1.384 . S
N519 C511 1.427 1_655 S
N519 C517 1.384 1_556 S
H520 C526 0.930 . S
H521 C530 0.922 1_455 S
H522 C535 0.929 . S
H523 C533 0.929 . S
H524 C528 0.916 1_455 S
H525 C534 0.929 . S
C526 H520 0.930 . S
C526 C527 1.367 1_655 S
C526 C534 1.378 . S
C527 C526 1.367 1_455 S
C527 C535 1.433 . S
C528 H524 0.916 1_655 S
C528 C530 1.384 . S
C528 C532 1.358 . S
C529 C532 1.463 . S
C529 C534 1.350 . S
C529 N537 1.427 1_655 S
C530 H521 0.922 1_655 S
C530 C528 1.384 . S
C530 C531 1.367 . S
C531 C530 1.367 . S
C531 C533 1.433 . S
C532 C528 1.358 . S
C532 C529 1.463 . S
C532 N536 1.427 . S
C533 H523 0.929 . S
C533 C531 1.433 . S
C533 N536 1.384 . S
C534 H525 0.929 . S
C534 C526 1.378 . S
C534 C529 1.350 . S
C535 H522 0.929 . S
C535 C527 1.433 . S
C535 N537 1.384 . S
N536 C532 1.427 . S
N536 C533 1.384 . S
N537 C529 1.427 1_455 S
N537 C535 1.384 . S
H538 C544 0.930 . S
H539 C548 0.930 1_565 S
H540 C553 0.929 . S
H541 C551 0.929 . S
H542 C546 0.929 . S
H543 C552 0.929 . S
C544 H538 0.930 . S
C544 C545 1.367 . S
C544 C552 1.378 . S
C545 C544 1.367 . S
C545 C553 1.433 . S
C546 H542 0.929 . S
C546 C548 1.378 . S
C546 C550 1.350 . S
C547 C550 1.463 . S
C547 C552 1.350 . S
C547 N555 1.427 . S
C548 H539 0.930 1_545 S
C548 C546 1.378 . S
C548 C549 1.367 . S
C549 C548 1.367 . S
C549 C551 1.433 . S
C550 C546 1.350 . S
C550 C547 1.463 . S
C550 N554 1.427 . S
C551 H541 0.929 . S
C551 C549 1.433 . S
C551 N554 1.384 . S
C552 H543 0.929 . S
C552 C544 1.378 . S
C552 C547 1.350 . S
C553 H540 0.929 . S
C553 C545 1.433 . S
C553 N555 1.384 . S
N554 C550 1.427 . S
N554 C551 1.384 . S
N555 C547 1.427 . S
N555 C553 1.384 . S
H556 C562 0.930 . S
H557 C566 0.930 . S
H558 C571 0.929 . S
H559 C569 0.929 . S
H560 C564 0.929 . S
H561 C570 0.929 . S
C562 H556 0.930 . S
C562 C563 1.367 . S
C562 C570 1.378 . S
C563 C562 1.367 . S
C563 C571 1.433 . S
C564 H560 0.929 . S
C564 C566 1.378 . S
C564 C568 1.350 . S
C565 C568 1.463 . S
C565 C570 1.350 . S
C565 N573 1.427 . S
C566 H557 0.930 . S
C566 C564 1.378 . S
C566 C567 1.367 . S
C567 C566 1.367 . S
C567 C569 1.433 . S
C568 C564 1.350 . S
C568 C565 1.463 . S
C568 N572 1.427 . S
C569 H559 0.929 . S
C569 C567 1.433 . S
C569 N572 1.384 . S
C570 H561 0.929 . S
C570 C562 1.378 . S
C570 C565 1.350 . S
C571 H558 0.929 . S
C571 C563 1.433 . S
C571 N573 1.384 . S
N572 C568 1.427 . S
N572 C569 1.384 . S
N573 C565 1.427 . S
N573 C571 1.384 . S
H574 C580 0.930 . S
H575 C584 0.930 . S
H576 C589 0.929 . S
H577 C587 0.929 . S
H578 C582 0.929 . S
H579 C588 0.929 . S
C580 H574 0.930 . S
C580 C581 1.367 . S
C580 C588 1.378 . S
C581 C580 1.367 . S
C581 C589 1.433 . S
C582 H578 0.929 . S
C582 C584 1.378 . S
C582 C586 1.350 . S
C583 C586 1.463 . S
C583 C588 1.350 . S
C583 N591 1.427 . S
C584 H575 0.930 . S
C584 C582 1.378 . S
C584 C585 1.367 . S
C585 C584 1.367 . S
C585 C587 1.433 . S
C586 C582 1.350 . S
C586 C583 1.463 . S
C586 N590 1.427 . S
C587 H577 0.929 . S
C587 C585 1.433 . S
C587 N590 1.384 . S
C588 H579 0.929 . S
C588 C580 1.378 . S
C588 C583 1.350 . S
C589 H576 0.929 . S
C589 C581 1.433 . S
C589 N591 1.384 . S
N590 C586 1.427 . S
N590 C587 1.384 . S
N591 C583 1.427 . S
N591 C589 1.384 . S
H592 C598 0.930 1_554 S
H593 C602 0.930 . S
H594 C607 0.929 . S
H595 C605 0.929 . S
H596 C600 0.929 . S
H597 C606 0.929 . S
C598 H592 0.930 1_556 S
C598 C599 1.367 . S
C598 C606 1.378 . S
C599 C598 1.367 . S
C599 C607 1.433 1_655 S
C600 H596 0.929 . S
C600 C602 1.378 . S
C600 C604 1.350 . S
C601 C604 1.463 . S
C601 C606 1.350 1_455 S
C601 N609 1.427 . S
C602 H593 0.930 . S
C602 C600 1.378 . S
C602 C603 1.367 . S
C603 C602 1.367 . S
C603 C605 1.433 1_455 S
C604 C600 1.350 . S
C604 C601 1.463 . S
C604 N608 1.427 1_455 S
C605 H595 0.929 . S
C605 C603 1.433 1_655 S
C605 N608 1.384 . S
C606 H597 0.929 . S
C606 C598 1.378 . S
C606 C601 1.350 1_655 S
C607 H594 0.929 . S
C607 C599 1.433 1_455 S
C607 N609 1.384 . S
N608 C604 1.427 1_655 S
N608 C605 1.384 . S
N609 C601 1.427 . S
N609 C607 1.384 . S
H610 C616 0.930 . S
H611 C620 0.930 . S
H612 C625 0.929 . S
H613 C623 0.929 . S
H614 C618 0.929 . S
H615 C624 0.929 . S
C616 H610 0.930 . S
C616 C617 1.367 . S
C616 C624 1.378 . S
C617 C616 1.367 . S
C617 C625 1.433 . S
C618 H614 0.929 . S
C618 C620 1.378 . S
C618 C622 1.350 1_545 S
C619 C622 1.463 . S
C619 C624 1.350 . S
C619 N627 1.427 . S
C620 H611 0.930 . S
C620 C618 1.378 . S
C620 C621 1.367 . S
C621 C620 1.367 . S
C621 C623 1.433 1_545 S
C622 C618 1.350 1_565 S
C622 C619 1.463 . S
C622 N626 1.427 . S
C623 H613 0.929 . S
C623 C621 1.433 1_565 S
C623 N626 1.384 . S
C624 H615 0.929 . S
C624 C616 1.378 . S
C624 C619 1.350 . S
C625 H612 0.929 . S
C625 C617 1.433 . S
C625 N627 1.384 . S
N626 C622 1.427 . S
N626 C623 1.384 . S
N627 C619 1.427 . S
N627 C625 1.384 . S
H628 C634 0.930 1_554 S
H629 C638 0.930 . S
H630 C643 0.929 . S
H631 C641 0.929 . S
H632 C636 0.929 . S
H633 C642 0.929 . S
C634 H628 0.930 1_556 S
C634 C635 1.367 . S
C634 C642 1.378 . S
C635 C634 1.367 . S
C635 C643 1.433 . S
C636 H632 0.929 . S
C636 C638 1.378 . S
C636 C640 1.350 . S
C637 C640 1.463 . S
C637 C642 1.350 . S
C637 N645 1.427 . S
C638 H629 0.930 . S
C638 C636 1.378 . S
C638 C639 1.367 . S
C639 C638 1.367 . S
C639 C641 1.433 . S
C640 C636 1.350 . S
C640 C637 1.463 . S
C640 N644 1.427 . S
C641 H631 0.929 . S
C641 C639 1.433 . S
C641 N644 1.384 . S
C642 H633 0.929 . S
C642 C634 1.378 . S
C642 C637 1.350 . S
C643 H630 0.929 . S
C643 C635 1.433 . S
C643 N645 1.384 . S
N644 C640 1.427 . S
N644 C641 1.384 . S
N645 C637 1.427 . S
N645 C643 1.384 . S
H646 C652 0.930 . S
H647 C656 0.930 . S
H648 C661 0.929 . S
H649 C659 0.929 . S
H650 C654 0.929 . S
H651 C660 0.929 1_554 S
C652 H646 0.930 . S
C652 C653 1.367 1_554 S
C652 C660 1.378 1_554 S
C653 C652 1.367 1_556 S
C653 C661 1.433 . S
C654 H650 0.929 . S
C654 C656 1.378 . S
C654 C658 1.350 . S
C655 C658 1.463 . S
C655 C660 1.350 . S
C655 N663 1.427 . S
C656 H647 0.930 . S
C656 C654 1.378 . S
C656 C657 1.367 . S
C657 C656 1.367 . S
C657 C659 1.433 . S
C658 C654 1.350 . S
C658 C655 1.463 . S
C658 N662 1.427 . S
C659 H649 0.929 . S
C659 C657 1.433 . S
C659 N662 1.384 . S
C660 H651 0.929 1_556 S
C660 C652 1.378 1_556 S
C660 C655 1.350 . S
C661 H648 0.929 . S
C661 C653 1.433 . S
C661 N663 1.384 . S
N662 C658 1.427 . S
N662 C659 1.384 . S
N663 C655 1.427 . S
N663 C661 1.384 . S
H664 C670 0.930 . S
H665 C674 0.930 . S
H666 C679 0.929 . S
H667 C677 0.931 . S
H668 C672 0.929 . S
H669 C678 0.929 . S
C670 H664 0.930 . S
C670 C671 1.367 1_655 S
C670 C678 1.378 . S
C671 C670 1.367 1_455 S
C671 C679 1.433 . S
C672 H668 0.929 . S
C672 C674 1.378 1_554 S
C672 C676 1.350 . S
C673 C676 1.463 . S
C673 C678 1.350 1_455 S
C673 N681 1.427 . S
C674 H665 0.930 . S
C674 C672 1.378 1_556 S
C674 C675 1.367 1_556 S
C675 C674 1.367 1_554 S
C675 C677 1.432 1_455 S
C676 C672 1.350 . S
C676 C673 1.463 . S
C676 N680 1.427 1_455 S
C677 H667 0.931 . S
C677 C675 1.432 1_655 S
C677 N680 1.384 . S
C678 H669 0.929 . S
C678 C670 1.378 . S
C678 C673 1.350 1_655 S
C679 H666 0.929 . S
C679 C671 1.433 . S
C679 N681 1.384 . S
N680 C676 1.427 1_655 S
N680 C677 1.384 . S
N681 C673 1.427 . S
N681 C679 1.384 . S
H682 C688 0.930 . S
H683 C692 0.930 . S
H684 C697 0.929 . S
H685 C695 0.929 . S
H686 C690 0.929 . S
H687 C696 0.929 . S
C688 H682 0.930 . S
C688 C689 1.367 . S
C688 C696 1.378 . S
C689 C688 1.367 . S
C689 C697 1.433 . S
C690 H686 0.929 . S
C690 C692 1.378 . S
C690 C694 1.350 . S
C691 C694 1.463 . S
C691 C696 1.350 . S
C691 N699 1.427 . S
C692 H683 0.930 . S
C692 C690 1.378 . S
C692 C693 1.367 . S
C693 C692 1.367 . S
C693 C695 1.433 . S
C694 C690 1.350 . S
C694 C691 1.463 . S
C694 N698 1.427 . S
C695 H685 0.929 . S
C695 C693 1.433 . S
C695 N698 1.384 . S
C696 H687 0.929 . S
C696 C688 1.378 . S
C696 C691 1.350 . S
C697 H684 0.929 . S
C697 C689 1.433 . S
C697 N699 1.384 . S
N698 C694 1.427 . S
N698 C695 1.384 . S
N699 C691 1.427 . S
N699 C697 1.384 . S
H700 C706 0.930 . S
H701 C710 0.930 . S
H702 C715 0.929 . S
H703 C713 0.929 . S
H704 C708 0.929 . S
H705 C714 0.929 . S
C706 H700 0.930 . S
C706 C707 1.367 . S
C706 C714 1.378 . S
C707 C706 1.367 . S
C707 C715 1.433 . S
C708 H704 0.929 . S
C708 C710 1.378 1_554 S
C708 C712 1.350 . S
C709 C712 1.463 . S
C709 C714 1.350 . S
C709 N717 1.427 . S
C710 H701 0.930 . S
C710 C708 1.378 1_556 S
C710 C711 1.367 . S
C711 C710 1.367 . S
C711 C713 1.433 . S
C712 C708 1.350 . S
C712 C709 1.463 . S
C712 N716 1.427 . S
C713 H703 0.929 . S
C713 C711 1.433 . S
C713 N716 1.384 1_556 S
C714 H705 0.929 . S
C714 C706 1.378 . S
C714 C709 1.350 . S
C715 H702 0.929 . S
C715 C707 1.433 . S
C715 N717 1.384 . S
N716 C712 1.427 . S
N716 C713 1.384 1_554 S
N717 C709 1.427 . S
N717 C715 1.384 . S
H718 C724 0.930 . S
H719 C728 0.930 . S
H720 C733 0.929 . S
H721 C731 0.929 . S
H722 C726 0.929 . S
H723 C732 0.929 . S
C724 H718 0.930 . S
C724 C725 1.367 . S
C724 C732 1.378 . S
C725 C724 1.367 . S
C725 C733 1.433 . S
C726 H722 0.929 . S
C726 C728 1.378 . S
C726 C730 1.350 . S
C727 C730 1.463 . S
C727 C732 1.350 . S
C727 N735 1.427 . S
C728 H719 0.930 . S
C728 C726 1.378 . S
C728 C729 1.367 1_554 S
C729 C728 1.367 1_556 S
C729 C731 1.433 . S
C730 C726 1.350 . S
C730 C727 1.463 . S
C730 N734 1.427 1_554 S
C731 H721 0.929 . S
C731 C729 1.433 . S
C731 N734 1.384 . S
C732 H723 0.929 . S
C732 C724 1.378 . S
C732 C727 1.350 . S
C733 H720 0.929 . S
C733 C725 1.433 . S
C733 N735 1.384 . S
N734 C730 1.427 1_556 S
N734 C731 1.384 . S
N735 C727 1.427 . S
N735 C733 1.384 . S
H736 C742 0.930 . S
H737 C746 0.930 . S
H738 C751 0.929 . S
H739 C749 0.929 . S
H740 C744 0.929 . S
H741 C750 0.929 . S
C742 H736 0.930 . S
C742 C743 1.367 . S
C742 C750 1.378 . S
C743 C742 1.367 . S
C743 C751 1.433 1_655 S
C744 H740 0.929 . S
C744 C746 1.378 . S
C744 C748 1.350 1_455 S
C745 C748 1.463 . S
C745 C750 1.350 . S
C745 N753 1.427 1_655 S
C746 H737 0.930 . S
C746 C744 1.378 . S
C746 C747 1.367 1_455 S
C747 C746 1.367 1_655 S
C747 C749 1.433 . S
C748 C744 1.350 1_655 S
C748 C745 1.463 . S
C748 N752 1.427 . S
C749 H739 0.929 . S
C749 C747 1.433 . S
C749 N752 1.384 . S
C750 H741 0.929 . S
C750 C742 1.378 . S
C750 C745 1.350 . S
C751 H738 0.929 . S
C751 C743 1.433 1_455 S
C751 N753 1.384 . S
N752 C748 1.427 . S
N752 C749 1.384 . S
N753 C745 1.427 1_455 S
N753 C751 1.384 . S
H754 C760 0.930 . S
H755 C764 0.930 . S
H756 C769 0.929 . S
H757 C767 0.929 . S
H758 C762 0.929 . S
H759 C768 0.929 . S
C760 H754 0.930 . S
C760 C761 1.367 . S
C760 C768 1.378 . S
C761 C760 1.367 . S
C761 C769 1.433 . S
C762 H758 0.929 . S
C762 C764 1.378 . S
C762 C766 1.350 . S
C763 C766 1.463 . S
C763 C768 1.350 . S
C763 N771 1.427 . S
C764 H755 0.930 . S
C764 C762 1.378 . S
C764 C765 1.367 . S
C765 C764 1.367 . S
C765 C767 1.433 . S
C766 C762 1.350 . S
C766 C763 1.463 . S
C766 N770 1.427 . S
C767 H757 0.929 . S
C767 C765 1.433 . S
C767 N770 1.384 . S
C768 H759 0.929 . S
C768 C760 1.378 . S
C768 C763 1.350 . S
C769 H756 0.929 . S
C769 C761 1.433 . S
C769 N771 1.384 . S
N770 C766 1.427 . S
N770 C767 1.384 . S
N771 C763 1.427 . S
N771 C769 1.384 . S
H772 C778 0.930 . S
H773 C782 0.930 . S
H774 C787 0.929 . S
H775 C785 0.929 . S
H776 C780 0.929 . S
H777 C786 0.929 . S
C778 H772 0.930 . S
C778 C779 1.367 . S
C778 C786 1.378 . S
C779 C778 1.367 . S
C779 C787 1.433 . S
C780 H776 0.929 . S
C780 C782 1.378 . S
C780 C784 1.350 . S
C781 C784 1.463 . S
C781 C786 1.350 . S
C781 N789 1.427 . S
C782 H773 0.930 . S
C782 C780 1.378 . S
C782 C783 1.367 . S
C783 C782 1.367 . S
C783 C785 1.433 . S
C784 C780 1.350 . S
C784 C781 1.463 . S
C784 N788 1.427 . S
C785 H775 0.929 . S
C785 C783 1.433 . S
C785 N788 1.384 . S
C786 H777 0.929 . S
C786 C778 1.378 . S
C786 C781 1.350 . S
C787 H774 0.929 . S
C787 C779 1.433 . S
C787 N789 1.384 . S
N788 C784 1.427 . S
N788 C785 1.384 . S
N789 C781 1.427 . S
N789 C787 1.384 . S
H790 C796 0.930 . S
H791 C800 0.930 . S
H792 C805 0.929 . S
H793 C803 0.929 . S
H794 C798 0.929 . S
H795 C804 0.929 . S
C796 H790 0.930 . S
C796 C797 1.367 . S
C796 C804 1.378 . S
C797 C796 1.367 . S
C797 C805 1.433 . S
C798 H794 0.929 . S
C798 C800 1.378 . S
C798 C802 1.350 . S
C799 C802 1.463 . S
C799 C804 1.350 . S
C799 N807 1.427 . S
C800 H791 0.930 . S
C800 C798 1.378 . S
C800 C801 1.367 . S
C801 C800 1.367 . S
C801 C803 1.433 . S
C802 C798 1.350 . S
C802 C799 1.463 . S
C802 N806 1.427 . S
C803 H793 0.929 . S
C803 C801 1.433 . S
C803 N806 1.384 . S
C804 H795 0.929 . S
C804 C796 1.378 . S
C804 C799 1.350 . S
C805 H792 0.929 . S
C805 C797 1.433 . S
C805 N807 1.384 . S
N806 C802 1.427 . S
N806 C803 1.384 . S
N807 C799 1.427 . S
N807 C805 1.384 . S
C383 C215 1.804 . S
C387 C266 1.779 . S
C405 C296 1.722 . S
C401 C247 1.676 . S
C423 N330 1.645 . S
C419 C151 1.682 . S
C441 N360 1.301 . S
C437 C183 1.348 1_655 S
C459 C257 1.784 1_565 S
C455 C87 1.678 . S
C473 C119 1.703 . S
C477 C287 1.725 . S
C491 C23 1.559 . S
C495 N322 1.632 . S
C509 C55 1.323 . S
C513 N352 1.312 . S
C531 C272 0.354 . S
C527 C189 0.390 . S
C549 C302 0.647 . S
C545 C221 0.636 . S
C567 C343 0.657 . S
C563 C253 0.668 . S
C581 C157 0.576 . S
C585 C373 0.606 . S
C599 C61 0.563 1_655 S
C603 C283 0.377 . S
C621 C313 0.645 . S
C617 C93 0.717 . S
C639 C332 0.652 . S
C635 C125 0.664 . S
C653 C29 0.662 1_556 S
C657 C362 0.582 . S
C671 C177 1.486 . S
C675 N262 1.536 1_554 S
C689 C209 1.665 . S
C693 N292 1.676 1_554 S
C711 C317 1.773 . S
C707 C241 1.688 . S
C729 C347 1.969 . S
C725 C145 1.934 . S
C743 C49 1.509 1_655 S
C747 N270 1.531 . S
C765 N300 1.670 . S
C761 C81 1.585 . S
C783 C326 1.771 . S
C779 C113 1.726 . S
C797 C17 1.804 . S
C801 C356 1.969 . S
