# Generated by pormake.
# Topology pts, (4,4)-cn, num edge types: 1
# Building blocks:
#     Node 0, Type 0, BuildingBlock: NAHDIM_clean_linker_0, # of connection points: 4
#     Node 1, Type 0, BuildingBlock: NAHDIM_clean_linker_0, # of connection points: 4
#     Node 2, Type 1, BuildingBlock: UXUYUI_clean_sbu_0, # of connection points: 4
#     Node 3, Type 1, BuildingBlock: UXUYUI_clean_sbu_0, # of connection points: 4
#     Edge 4, Type (0, 1), BuildingBlock: FUNLAD_clean_linker_1, # of connection points: 2
#     Edge 5, Type (0, 1), BuildingBlock: FUNLAD_clean_linker_1, # of connection points: 2
#     Edge 6, Type (0, 1), BuildingBlock: FUNLAD_clean_linker_1, # of connection points: 2
#     Edge 7, Type (0, 1), BuildingBlock: FUNLAD_clean_linker_1, # of connection points: 2
#     Edge 8, Type (0, 1), BuildingBlock: FUNLAD_clean_linker_1, # of connection points: 2
#     Edge 9, Type (0, 1), BuildingBlock: FUNLAD_clean_linker_1, # of connection points: 2
#     Edge 10, Type (0, 1), BuildingBlock: FUNLAD_clean_linker_1, # of connection points: 2
#     Edge 11, Type (0, 1), BuildingBlock: FUNLAD_clean_linker_1, # of connection points: 2
# Relax obj value: 0.021
# Max RMSD: 0.066
# Mean RMSD: 0.065
data_MOF--net-pts--node1-UXUYUI_clean_sbu_0--node2-NAHDIM_clean_linker_0--edge1-FUNLAD_clean_linker_1
_symmetry_space_group_name_H-M    P1
_symmetry_Int_Tables_number       1
_symmetry_cell_setting            triclinic
loop_
_symmetry_equiv_pos_as_xyz
'x, y, z'
_cell_length_a     39.088972
_cell_length_b     39.081586
_cell_length_c     63.582534
_cell_angle_alpha  90.410302
_cell_angle_beta   89.594055
_cell_angle_gamma 90.008784
loop_
_atom_site_label
_atom_site_type_symbol
_atom_site_fract_x
_atom_site_fract_y
_atom_site_fract_z
_atom_type_partial_charge
C0 C 0.69037 0.93004 0.13785 0.0
C1 C 0.71372 0.94661 0.1213 0.0
C2 C 0.67232 0.9778 0.09955 0.0
C3 C 0.65803 0.94881 0.0897 0.0
C4 C 0.62986 0.95192 0.07627 0.0
C5 C 0.61577 0.98462 0.0725 0.0
C6 C 0.63053 0.01389 0.08197 0.0
C7 C 0.65868 0.01006 0.09535 0.0
C8 C 0.6148 0.9202 0.06632 0.0
C9 C 0.61624 0.04915 0.07818 0.0
C10 C 0.35824 0.93113 0.086 0.0
C11 C 0.37774 0.94308 0.10557 0.0
C12 C 0.42681 0.9751 0.09118 0.0
C13 C 0.44085 0.00769 0.08856 0.0
C14 C 0.47213 0.01234 0.07797 0.0
C15 C 0.48969 0.98356 0.06971 0.0
C16 C 0.47583 0.95044 0.07239 0.0
C17 C 0.4446 0.9465 0.08313 0.0
C18 C 0.48632 0.04798 0.07545 0.0
C19 C 0.49398 0.91919 0.06379 0.0
C20 C 0.4336 0.01434 0.9358 0.0
C21 C 0.45137 0.04385 0.94233 0.0
C22 C 0.48266 0.04127 0.95291 0.0
C23 C 0.49668 0.00861 0.95688 0.0
C24 C 0.47967 0.97895 0.94952 0.0
C25 C 0.44833 0.98225 0.93907 0.0
C26 C 0.50039 0.07342 0.96035 0.0
C27 C 0.49419 0.94375 0.9532 0.0
C28 C 0.75538 0.96028 0.94178 0.0
C29 C 0.73928 0.97807 0.92284 0.0
C30 C 0.68756 0.00404 0.93855 0.0
C31 C 0.67297 0.03471 0.94563 0.0
C32 C 0.64098 0.03522 0.95581 0.0
C33 C 0.62319 0.00416 0.959 0.0
C34 C 0.63735 0.97308 0.95146 0.0
C35 C 0.66932 0.9733 0.94126 0.0
C36 C 0.62644 0.06883 0.96351 0.0
C37 C 0.6189 0.93952 0.9545 0.0
C38 C 0.5847 0.98798 0.05936 0.0
C39 C 0.55287 0.98585 0.06944 0.0
C40 C 0.52247 0.98796 0.0581 0.0
C41 C 0.52363 0.99279 0.03609 0.0
C42 C 0.49351 0.99539 0.02424 0.0
C43 C 0.4949 0.9998 0.00256 0.0
C44 C 0.52646 0.00144 0.99183 0.0
C45 C 0.52809 0.00544 0.96975 0.0
C46 C 0.55988 0.00656 0.95955 0.0
C47 C 0.59033 0.00391 0.97086 0.0
C48 C 0.58921 0.00029 0.99299 0.0
C49 C 0.61934 0.99782 0.00487 0.0
C50 C 0.61796 0.99403 0.02662 0.0
C51 C 0.58641 0.99233 0.03731 0.0
C52 C 0.55573 0.9948 0.02565 0.0
C53 C 0.55714 0.99893 0.00348 0.0
C54 C 0.36606 0.05347 0.94676 0.0
C55 C 0.38077 0.04361 0.92509 0.0
O56 O 0.69877 0.97593 0.11334 0.0
O57 O 0.71924 0.00538 0.92951 0.0
O58 O 0.40216 0.01547 0.92671 0.0
O59 O 0.39615 0.97261 0.10136 0.0
H60 H 0.71901 0.92799 0.10838 0.0
H61 H 0.66598 0.92156 0.13068 0.0
H62 H 0.68429 0.9485 0.15072 0.0
H63 H 0.70302 0.90724 0.14465 0.0
H64 H 0.66836 0.92363 0.09252 0.0
H65 H 0.66992 0.03231 0.10288 0.0
H66 H 0.5879 0.91705 0.07168 0.0
H67 H 0.6293 0.8967 0.0703 0.0
H68 H 0.61449 0.92293 0.04895 0.0
H69 H 0.63128 0.06947 0.08619 0.0
H70 H 0.58938 0.05037 0.08395 0.0
H71 H 0.61594 0.05438 0.06104 0.0
H72 H 0.39518 0.92241 0.11081 0.0
H73 H 0.34303 0.90784 0.08962 0.0
H74 H 0.37629 0.92472 0.07302 0.0
H75 H 0.34072 0.95149 0.08045 0.0
H76 H 0.42706 0.02961 0.09482 0.0
H77 H 0.43433 0.92101 0.08499 0.0
H78 H 0.48876 0.05404 0.05847 0.0
H79 H 0.51233 0.04937 0.08232 0.0
H80 H 0.46989 0.06768 0.08314 0.0
H81 H 0.47965 0.89519 0.06693 0.0
H82 H 0.5197 0.91716 0.07097 0.0
H83 H 0.4977 0.92172 0.04654 0.0
H84 H 0.39499 0.06581 0.91853 0.0
H85 H 0.44085 0.06898 0.93954 0.0
H86 H 0.43472 0.95964 0.9338 0.0
H87 H 0.50252 0.07313 0.97775 0.0
H88 H 0.48657 0.09698 0.95568 0.0
H89 H 0.52676 0.07435 0.95376 0.0
H90 H 0.47898 0.92338 0.94535 0.0
H91 H 0.49472 0.93861 0.97034 0.0
H92 H 0.52096 0.94249 0.94728 0.0
H93 H 0.72351 0.95955 0.91373 0.0
H94 H 0.77165 0.93855 0.93643 0.0
H95 H 0.73533 0.94996 0.95242 0.0
H96 H 0.77135 0.97859 0.95088 0.0
H97 H 0.68703 0.05832 0.94339 0.0
H98 H 0.67989 0.9493 0.93573 0.0
H99 H 0.62374 0.06835 0.9809 0.0
H100 H 0.60051 0.07264 0.95689 0.0
H101 H 0.6428 0.09092 0.95909 0.0
H102 H 0.6331 0.91755 0.94751 0.0
H103 H 0.5932 0.9408 0.94722 0.0
H104 H 0.61509 0.9348 0.97156 0.0
H105 H 0.55175 0.98202 0.08632 0.0
H106 H 0.46849 0.9941 0.0316 0.0
H107 H 0.47085 0.0017 0.99431 0.0
H108 H 0.56095 0.00937 0.9426 0.0
H109 H 0.64437 0.99881 0.9975 0.0
H110 H 0.64196 0.99229 0.03494 0.0
H111 H 0.34781 0.07511 0.94524 0.0
H112 H 0.38664 0.06171 0.95758 0.0
H113 H 0.35252 0.03137 0.95392 0.0
C114 C 0.98748 0.35541 0.60885 0.0
C115 C 0.00794 0.3326 0.59354 0.0
C116 C 0.0431 0.37577 0.57537 0.0
C117 C 0.01644 0.39048 0.56374 0.0
C118 C 0.02187 0.42042 0.55209 0.0
C119 C 0.05467 0.4357 0.55181 0.0
C120 C 0.08187 0.42017 0.56277 0.0
C121 C 0.07567 0.39041 0.57442 0.0
C122 C 0.99235 0.43622 0.54046 0.0
C123 C 0.11728 0.43551 0.56265 0.0
C124 C 0.10136 0.62367 0.63375 0.0
C125 C 0.09789 0.64966 0.61593 0.0
C126 C 0.06969 0.61529 0.58853 0.0
C127 C 0.09891 0.59648 0.58251 0.0
C128 C 0.09672 0.56952 0.56793 0.0
C129 C 0.06463 0.56082 0.55924 0.0
C130 C 0.03522 0.57985 0.565 0.0
C131 C 0.03821 0.60703 0.57948 0.0
C132 C 0.12874 0.55002 0.56196 0.0
C133 C 0.00069 0.57125 0.55596 0.0
C134 C 0.09999 0.64161 0.42908 0.0
C135 C 0.12856 0.6267 0.43879 0.0
C136 C 0.12641 0.59403 0.44776 0.0
C137 C 0.09511 0.5759 0.44711 0.0
C138 C 0.06656 0.59047 0.43698 0.0
C139 C 0.06945 0.62311 0.42804 0.0
C140 C 0.15749 0.57902 0.45822 0.0
C141 C 0.03285 0.57176 0.43592 0.0
C142 C 0.16138 0.32011 0.38721 0.0
C143 C 0.13652 0.34958 0.39193 0.0
C144 C 0.13664 0.39539 0.41892 0.0
C145 C 0.15749 0.41319 0.43296 0.0
C146 C 0.14481 0.44066 0.44496 0.0
C147 C 0.11017 0.45051 0.44289 0.0
C148 C 0.08866 0.43236 0.4289 0.0
C149 C 0.10208 0.40487 0.41704 0.0
C150 C 0.16859 0.45937 0.4597 0.0
C151 C 0.05159 0.44214 0.42647 0.0
C152 C 0.05994 0.46902 0.54117 0.0
C153 C 0.05737 0.49874 0.55345 0.0
C154 C 0.06215 0.53107 0.54467 0.0
C155 C 0.06816 0.53414 0.52282 0.0
C156 C 0.07127 0.56633 0.51329 0.0
C157 C 0.07814 0.56907 0.49186 0.0
C158 C 0.08322 0.53972 0.47928 0.0
C159 C 0.09186 0.54226 0.4577 0.0
C160 C 0.09892 0.51261 0.44601 0.0
C161 C 0.09702 0.48024 0.4552 0.0
C162 C 0.08641 0.4771 0.47642 0.0
C163 C 0.0826 0.44488 0.48588 0.0
C164 C 0.07325 0.44211 0.50698 0.0
C165 C 0.06812 0.47147 0.51952 0.0
C166 C 0.07181 0.50419 0.51028 0.0
C167 C 0.08016 0.507 0.48859 0.0
C168 C 0.12733 0.71378 0.44422 0.0
C169 C 0.12653 0.69767 0.42216 0.0
O170 O 0.03859 0.34805 0.58794 0.0
O171 O 0.15131 0.36986 0.40735 0.0
O172 O 0.10051 0.67364 0.42074 0.0
O173 O 0.07063 0.64114 0.60304 0.0
H174 H 0.99247 0.32731 0.57927 0.0
H175 H 0.97994 0.37967 0.60123 0.0
H176 H 0.00296 0.36177 0.62294 0.0
H177 H 0.96372 0.34214 0.61397 0.0
H178 H 0.9912 0.37917 0.56389 0.0
H179 H 0.09618 0.37877 0.58325 0.0
H180 H 0.98775 0.4626 0.54644 0.0
H181 H 0.96837 0.42121 0.54218 0.0
H182 H 0.99883 0.43812 0.52348 0.0
H183 H 0.13653 0.41806 0.56958 0.0
H184 H 0.11699 0.45969 0.57191 0.0
H185 H 0.1253 0.44181 0.54634 0.0
H186 H 0.12206 0.65048 0.60666 0.0
H187 H 0.12285 0.63092 0.64423 0.0
H188 H 0.10672 0.59777 0.62728 0.0
H189 H 0.07737 0.62247 0.64321 0.0
H190 H 0.1236 0.60235 0.58915 0.0
H191 H 0.01579 0.62165 0.58409 0.0
H192 H 0.13255 0.55062 0.54465 0.0
H193 H 0.12593 0.52283 0.56657 0.0
H194 H 0.15195 0.5606 0.56961 0.0
H195 H 0.98032 0.58882 0.56177 0.0
H196 H 0.99367 0.54461 0.56017 0.0
H197 H 0.00188 0.57257 0.53853 0.0
H198 H 0.15163 0.68554 0.41858 0.0
H199 H 0.15256 0.64036 0.43963 0.0
H200 H 0.0476 0.63463 0.42044 0.0
H201 H 0.15198 0.57484 0.47516 0.0
H202 H 0.18031 0.59581 0.4568 0.0
H203 H 0.16358 0.55373 0.45106 0.0
H204 H 0.01316 0.58637 0.42723 0.0
H205 H 0.02323 0.56688 0.4521 0.0
H206 H 0.03654 0.54654 0.42808 0.0
H207 H 0.11232 0.33842 0.39809 0.0
H208 H 0.14839 0.29865 0.37908 0.0
H209 H 0.17142 0.30968 0.40216 0.0
H210 H 0.18342 0.32902 0.37755 0.0
H211 H 0.18406 0.40564 0.43431 0.0
H212 H 0.08556 0.39119 0.40629 0.0
H213 H 0.15897 0.45715 0.4761 0.0
H214 H 0.1692 0.487 0.45577 0.0
H215 H 0.19511 0.44919 0.45897 0.0
H216 H 0.03782 0.42474 0.41553 0.0
H217 H 0.04987 0.46868 0.42044 0.0
H218 H 0.03857 0.4417 0.44204 0.0
H219 H 0.05251 0.49662 0.57022 0.0
H220 H 0.06824 0.58978 0.52229 0.0
H221 H 0.08008 0.59454 0.48538 0.0
H222 H 0.10701 0.51484 0.42972 0.0
H223 H 0.08672 0.42144 0.47704 0.0
H224 H 0.0707 0.41668 0.51345 0.0
H225 H 0.10233 0.72588 0.44813 0.0
H226 H 0.14775 0.73352 0.44511 0.0
H227 H 0.13277 0.69409 0.45622 0.0
Li228 Li 0.05806 0.06305 0.27808 0.0
Li229 Li 0.05441 0.00089 0.28378 0.0
Li230 Li 0.08368 0.0254 0.25204 0.0
Li231 Li 0.02109 0.0258 0.25463 0.0
C232 C 0.11724 0.04499 0.29655 0.0
N233 N 0.15899 0.07616 0.32589 0.0
C234 C 0.11751 0.03348 0.31731 0.0
C235 C 0.1385 0.07209 0.29066 0.0
C236 C 0.13874 0.04962 0.33192 0.0
C237 C 0.15931 0.08761 0.30574 0.0
C238 C 0.99292 0.02954 0.30076 0.0
C239 C 0.94199 0.00093 0.31313 0.0
N240 N 0.94439 0.01805 0.33175 0.0
C241 C 0.9946 0.04718 0.31992 0.0
C242 C 0.96616 0.00652 0.29723 0.0
C243 C 0.96995 0.04089 0.33543 0.0
C244 C 0.05693 0.13491 0.27852 0.0
N245 N 0.06145 0.10734 0.29109 0.0
C246 C 0.07337 0.14393 0.3205 0.0
C247 C 0.06893 0.11126 0.31183 0.0
C248 C 0.06971 0.17296 0.3077 0.0
C249 C 0.06102 0.16799 0.28652 0.0
H250 H 0.05052 0.13125 0.26216 0.0
H251 H 0.07202 0.08903 0.32162 0.0
C252 C 0.07153 0.93478 0.29655 0.0
N253 N 0.05632 0.96407 0.30349 0.0
C254 C 0.07413 0.90645 0.3097 0.0
C255 C 0.04598 0.9391 0.33717 0.0
C256 C 0.04382 0.96676 0.32344 0.0
C257 C 0.06141 0.90843 0.33045 0.0
H258 H 0.08161 0.93337 0.28068 0.0
H259 H 0.03262 0.99046 0.32886 0.0
C260 C 0.06579 0.07872 0.22937 0.0
N261 N 0.09476 0.1064 0.19356 0.0
C262 C 0.05027 0.07385 0.20984 0.0
C263 C 0.09578 0.09806 0.23073 0.0
C264 C 0.06537 0.08797 0.19191 0.0
C265 C 0.11012 0.11171 0.21243 0.0
C266 C 0.03622 0.95658 0.24701 0.0
C267 C 0.04554 0.94144 0.22783 0.0
C268 C 0.01071 0.94153 0.25936 0.0
C269 C 0.02869 0.91181 0.22114 0.0
C270 C 0.9945 0.91188 0.25214 0.0
N271 N 0.00371 0.89779 0.23332 0.0
C272 C 0.15335 0.02242 0.23889 0.0
C273 C 0.11265 0.01182 0.21219 0.0
C274 C 0.18024 0.01806 0.22451 0.0
N275 N 0.12039 0.01929 0.23251 0.0
C276 C 0.13866 0.00737 0.19729 0.0
C277 C 0.17299 0.01014 0.20337 0.0
H278 H 0.1588 0.02829 0.25516 0.0
H279 H 0.0862 0.00942 0.20755 0.0
C280 C 0.95096 0.03815 0.24644 0.0
N281 N 0.97986 0.02294 0.23891 0.0
C282 C 0.9205 0.03603 0.23513 0.0
C283 C 0.95037 0.00356 0.20824 0.0
C284 C 0.98021 0.00631 0.22007 0.0
C285 C 0.91979 0.01816 0.21591 0.0
H286 H 0.95157 0.05192 0.26124 0.0
H287 H 0.00381 0.99557 0.21405 0.0
O288 O 0.0965 0.02957 0.28205 0.0
O289 O 0.01678 0.03559 0.28536 0.0
O290 O 0.05175 0.06455 0.24705 0.0
O291 O 0.05231 0.98576 0.25372 0.0
H292 H 0.1014 0.01244 0.32213 0.0
H293 H 0.13878 0.08122 0.27466 0.0
H294 H 0.13908 0.04108 0.34807 0.0
H295 H 0.17571 0.10877 0.30143 0.0
H296 H 0.92122 0.9831 0.31061 0.0
H297 H 0.01485 0.06535 0.32287 0.0
H298 H 0.96377 0.99336 0.28231 0.0
H299 H 0.97112 0.05419 0.35039 0.0
H300 H 0.08016 0.1459 0.3369 0.0
H301 H 0.05787 0.18955 0.27609 0.0
H302 H 0.08577 0.88348 0.3034 0.0
H303 H 0.03595 0.94181 0.35303 0.0
H304 H 0.02694 0.05916 0.20852 0.0
H305 H 0.10796 0.1023 0.24573 0.0
H306 H 0.05375 0.08422 0.17668 0.0
H307 H 0.13346 0.12652 0.21324 0.0
H308 H 0.06547 0.95251 0.21816 0.0
H309 H 0.00379 0.95236 0.27445 0.0
H310 H 0.03551 0.89995 0.20627 0.0
H311 H 0.97467 0.90002 0.26155 0.0
H312 H 0.20616 0.02134 0.22998 0.0
H313 H 0.13199 0.00146 0.18116 0.0
H314 H 0.89762 0.04804 0.24144 0.0
H315 H 0.95171 0.99069 0.19315 0.0
Li316 Li 0.03361 0.00894 0.76923 0.0
Li317 Li 0.09636 0.005 0.76782 0.0
Li318 Li 0.06439 0.03597 0.73945 0.0
Li319 Li 0.0643 0.97328 0.74175 0.0
C320 C 0.05559 0.07527 0.78055 0.0
N321 N 0.03143 0.1326 0.80157 0.0
C322 C 0.06916 0.08456 0.80005 0.0
C323 C 0.03012 0.09545 0.7716 0.0
C324 C 0.05649 0.11354 0.81048 0.0
C325 C 0.01814 0.12426 0.7825 0.0
C326 C 0.07614 0.95003 0.78922 0.0
C327 C 0.11744 0.91039 0.80302 0.0
N328 N 0.10418 0.91531 0.82265 0.0
C329 C 0.06272 0.95446 0.80949 0.0
C330 C 0.10352 0.9276 0.78591 0.0
C331 C 0.07732 0.93675 0.8262 0.0
C332 C 0.96622 0.99263 0.78002 0.0
N333 N 0.99398 0.0103 0.78687 0.0
C334 C 0.96471 0.02564 0.81873 0.0
C335 C 0.99377 0.02666 0.80581 0.0
C336 C 0.93572 0.00714 0.81216 0.0
C337 C 0.93665 0.99095 0.79239 0.0
H338 H 0.96722 0.97945 0.76502 0.0
H339 H 0.01635 0.03992 0.81114 0.0
C340 C 0.16781 0.00345 0.77552 0.0
N341 N 0.13646 0.00567 0.78481 0.0
C342 C 0.1974 0.00454 0.78771 0.0
C343 C 0.16192 0.00994 0.81883 0.0
C344 C 0.13305 0.00885 0.80603 0.0
C345 C 0.19477 0.00827 0.80964 0.0
H346 H 0.16988 0.0012 0.75862 0.0
H347 H 0.10784 0.01061 0.81303 0.0
C348 C 0.99791 0.01523 0.72657 0.0
N349 N 0.9438 0.03699 0.70231 0.0
C350 C 0.99282 0.00129 0.70653 0.0
C351 C 0.97502 0.03973 0.73443 0.0
C352 C 0.96546 0.01278 0.69445 0.0
C353 C 0.94795 0.05053 0.72189 0.0
C354 C 0.12209 0.98833 0.72108 0.0
C355 C 0.12194 0.00163 0.70073 0.0
C356 C 0.14058 0.95854 0.72519 0.0
C357 C 0.13988 0.98455 0.68474 0.0
C358 C 0.15814 0.94217 0.70876 0.0
N359 N 0.15741 0.95539 0.68904 0.0
C360 C 0.07911 0.10407 0.72799 0.0
C361 C 0.05194 0.07168 0.70129 0.0
C362 C 0.07911 0.13309 0.71531 0.0
N363 N 0.065 0.07434 0.72099 0.0
C364 C 0.05142 0.10005 0.68806 0.0
C365 C 0.06459 0.13154 0.6952 0.0
H366 H 0.09017 0.10532 0.74351 0.0
H367 H 0.04226 0.04743 0.69572 0.0
C368 C 0.05572 0.90228 0.73683 0.0
N369 N 0.06122 0.93165 0.726 0.0
C370 C 0.05275 0.87109 0.72617 0.0
C371 C 0.06076 0.9009 0.69333 0.0
C372 C 0.06335 0.93157 0.70464 0.0
C373 C 0.05569 0.87004 0.70418 0.0
H374 H 0.05344 0.90309 0.75377 0.0
H375 H 0.06681 0.95536 0.69634 0.0
O376 O 0.06765 0.04687 0.77017 0.0
O377 O 0.06244 0.96745 0.77271 0.0
O378 O 0.02458 0.00419 0.73861 0.0
O379 O 0.10442 0.00453 0.7369 0.0
H380 H 0.08916 0.06952 0.80712 0.0
H381 H 0.02002 0.08925 0.75628 0.0
H382 H 0.06662 0.1209 0.82564 0.0
H383 H 0.99839 0.14006 0.77575 0.0
H384 H 0.13877 0.8931 0.8007 0.0
H385 H 0.04144 0.97159 0.81233 0.0
H386 H 0.11396 0.92359 0.7703 0.0
H387 H 0.06733 0.9401 0.84199 0.0
H388 H 0.96528 0.0392 0.8336 0.0
H389 H 0.91489 0.97649 0.78672 0.0
H390 H 0.22218 0.00299 0.78002 0.0
H391 H 0.15821 0.01182 0.83566 0.0
H392 H 0.00998 0.98202 0.70028 0.0
H393 H 0.97781 0.05 0.75014 0.0
H394 H 0.96144 0.00241 0.67884 0.0
H395 H 0.93013 0.06956 0.72776 0.0
H396 H 0.10802 0.0248 0.69731 0.0
H397 H 0.1412 0.94807 0.74086 0.0
H398 H 0.13984 0.99446 0.66889 0.0
H399 H 0.17235 0.91896 0.71169 0.0
H400 H 0.08999 0.15671 0.72128 0.0
H401 H 0.04121 0.09694 0.67241 0.0
H402 H 0.0485 0.84792 0.73506 0.0
H403 H 0.0621 0.90166 0.67635 0.0
H404 H 0.35199 0.93122 0.13618 0.0
C405 C 0.35309 0.9497 0.12349 0.0
H406 H 0.33238 0.9951 0.1111 0.0
H407 H 0.21205 0.93842 0.17729 0.0
H408 H 0.20603 0.89081 0.15296 0.0
H409 H 0.24457 0.88486 0.12225 0.0
H410 H 0.28974 0.92605 0.11598 0.0
C411 C 0.3312 0.97621 0.12355 0.0
C412 C 0.30592 0.98128 0.1409 0.0
C413 C 0.27864 0.95775 0.14377 0.0
C414 C 0.25533 0.96214 0.16085 0.0
C415 C 0.22959 0.93716 0.16408 0.0
C416 C 0.22598 0.90955 0.1503 0.0
C417 C 0.24775 0.90612 0.13307 0.0
C418 C 0.27378 0.92986 0.12974 0.0
H419 H 0.1926 0.00607 0.17073 0.0
C420 C 0.20012 0.00489 0.18716 0.0
H421 H 0.24162 0.99502 0.20761 0.0
H422 H 0.35516 0.03107 0.13979 0.0
H423 H 0.35983 0.07988 0.16339 0.0
H424 H 0.318 0.08875 0.19215 0.0
H425 H 0.27133 0.04876 0.19758 0.0
C426 C 0.23277 0.99691 0.19154 0.0
C427 C 0.25824 0.99104 0.17436 0.0
C428 C 0.28527 0.01472 0.17137 0.0
C429 C 0.30916 0.00982 0.15463 0.0
C430 C 0.33609 0.03372 0.15212 0.0
C431 C 0.33911 0.06184 0.16557 0.0
C432 C 0.31558 0.06682 0.18177 0.0
C433 C 0.28892 0.04364 0.18472 0.0
H434 H 0.99903 0.2769 0.59928 0.0
C435 C 0.015 0.29856 0.60367 0.0
H436 H 0.05243 0.31714 0.62458 0.0
H437 H 0.0145 0.20758 0.69393 0.0
H438 H 0.99278 0.2597 0.70994 0.0
H439 H 0.99263 0.31389 0.69029 0.0
H440 H 0.01402 0.31619 0.65446 0.0
C441 C 0.03782 0.29511 0.61924 0.0
C442 C 0.04027 0.26277 0.63134 0.0
C443 C 0.02845 0.26206 0.65247 0.0
C444 C 0.02902 0.23092 0.66392 0.0
C445 C 0.01561 0.23066 0.68468 0.0
C446 C 0.00282 0.26039 0.69404 0.0
C447 C 0.00269 0.29088 0.68297 0.0
C448 C 0.01515 0.29184 0.66241 0.0
H449 H 0.08065 0.18411 0.68689 0.0
C450 C 0.064 0.16309 0.68226 0.0
H451 H 0.02505 0.14803 0.66102 0.0
H452 H 0.06781 0.25604 0.59181 0.0
H453 H 0.08988 0.20392 0.57581 0.0
H454 H 0.09027 0.14976 0.59551 0.0
H455 H 0.06875 0.14742 0.63137 0.0
C456 C 0.04255 0.16792 0.66609 0.0
C457 C 0.04211 0.2007 0.65433 0.0
C458 C 0.05425 0.2015 0.63327 0.0
C459 C 0.05359 0.23263 0.62182 0.0
C460 C 0.06691 0.23292 0.60105 0.0
C461 C 0.07986 0.20323 0.59172 0.0
C462 C 0.08011 0.17274 0.60282 0.0
C463 C 0.06761 0.17175 0.62337 0.0
H464 H 0.76928 0.93844 0.12765 0.0
C465 C 0.74778 0.95536 0.13095 0.0
H466 H 0.72977 0.99707 0.14913 0.0
H467 H 0.8407 0.97162 0.21977 0.0
H468 H 0.78852 0.95496 0.23772 0.0
H469 H 0.73369 0.9524 0.21881 0.0
H470 H 0.7308 0.96632 0.18178 0.0
C471 C 0.75158 0.98121 0.1448 0.0
C472 C 0.78418 0.98589 0.15643 0.0
C473 C 0.78525 0.97858 0.17823 0.0
C474 C 0.81678 0.98056 0.18922 0.0
C475 C 0.81736 0.97152 0.21075 0.0
C476 C 0.78759 0.96165 0.22124 0.0
C477 C 0.75674 0.96017 0.21059 0.0
C478 C 0.75544 0.96833 0.18932 0.0
H479 H 0.86686 0.034 0.2084 0.0
C480 C 0.88701 0.01594 0.20423 0.0
H481 H 0.89942 0.97292 0.18511 0.0
H482 H 0.79025 0.00529 0.11527 0.0
H483 H 0.84237 0.02253 0.09732 0.0
H484 H 0.89719 0.02533 0.11625 0.0
H485 H 0.9002 0.01107 0.15327 0.0
C486 C 0.88038 0.99183 0.1896 0.0
C487 C 0.84705 0.99058 0.17845 0.0
C488 C 0.84583 0.99853 0.15675 0.0
C489 C 0.81431 0.99646 0.14576 0.0
C490 C 0.81365 0.00556 0.12424 0.0
C491 C 0.84335 0.01573 0.11378 0.0
C492 C 0.87421 0.01734 0.12444 0.0
C493 C 0.87558 0.00899 0.14568 0.0
H494 H 0.11576 0.70148 0.62574 0.0
C495 C 0.09328 0.68511 0.62499 0.0
H496 H 0.04124 0.67984 0.63374 0.0
H497 H 0.10556 0.79547 0.69993 0.0
H498 H 0.13154 0.74631 0.71636 0.0
H499 H 0.12519 0.68856 0.70096 0.0
H500 H 0.09334 0.67986 0.66877 0.0
C501 C 0.06403 0.69575 0.63411 0.0
C502 C 0.06266 0.72936 0.64521 0.0
C503 C 0.07988 0.73377 0.6646 0.0
C504 C 0.08203 0.76679 0.67403 0.0
C505 C 0.10159 0.77079 0.69257 0.0
C506 C 0.11694 0.74278 0.7021 0.0
C507 C 0.11349 0.7103 0.69339 0.0
C508 C 0.09529 0.7057 0.67484 0.0
H509 H 0.0403 0.8157 0.70158 0.0
C510 C 0.05286 0.83647 0.69323 0.0
H511 H 0.08047 0.84952 0.66563 0.0
H512 H 0.02616 0.72905 0.60872 0.0
H513 H 0.99765 0.7777 0.59298 0.0
H514 H 0.99942 0.83462 0.60997 0.0
H515 H 0.02983 0.84337 0.64272 0.0
C516 C 0.06723 0.82973 0.67437 0.0
C517 C 0.06531 0.79502 0.66462 0.0
C518 C 0.04712 0.79031 0.64559 0.0
C519 C 0.04582 0.75742 0.63587 0.0
C520 C 0.02783 0.75349 0.61676 0.0
C521 C 0.01134 0.78117 0.60758 0.0
C522 C 0.01235 0.81323 0.61715 0.0
C523 C 0.02996 0.8179 0.63593 0.0
H524 H 0.32941 0.02169 0.91692 0.0
C525 C 0.35175 0.03469 0.91051 0.0
H526 H 0.37476 0.05541 0.88336 0.0
H527 H 0.24305 0.95975 0.84941 0.0
H528 H 0.27565 0.911 0.86147 0.0
H529 H 0.33053 0.91908 0.87979 0.0
H530 H 0.35285 0.97604 0.88644 0.0
C531 C 0.35276 0.04211 0.88992 0.0
C532 C 0.32221 0.03671 0.87642 0.0
C533 C 0.31021 0.0032 0.87191 0.0
C534 C 0.27923 0.99851 0.86061 0.0
C535 C 0.26695 0.96481 0.85731 0.0
C536 C 0.28534 0.93657 0.86424 0.0
C537 C 0.31618 0.94113 0.87461 0.0
C538 C 0.3286 0.97397 0.87844 0.0
H539 H 0.25052 0.0024 0.81471 0.0
C540 C 0.22669 0.01029 0.82224 0.0
H541 H 0.20532 0.03357 0.8495 0.0
H542 H 0.33879 0.10439 0.8816 0.0
H543 H 0.30761 0.15304 0.86813 0.0
H544 H 0.25509 0.14483 0.84742 0.0
H545 H 0.2333 0.0879 0.84017 0.0
C546 C 0.22795 0.023 0.84195 0.0
C547 C 0.261 0.02734 0.85317 0.0
C548 C 0.2737 0.06077 0.85701 0.0
C549 C 0.30428 0.06547 0.86867 0.0
C550 C 0.31594 0.09923 0.87262 0.0
C551 C 0.29826 0.12744 0.865 0.0
C552 C 0.26867 0.12282 0.85337 0.0
C553 C 0.2564 0.08997 0.84937 0.0
H554 H 0.13591 0.39808 0.37334 0.0
C555 C 0.12957 0.37103 0.37256 0.0
H556 H 0.11153 0.37788 0.34201 0.0
H557 H 0.14317 0.223 0.31718 0.0
H558 H 0.19371 0.25044 0.30291 0.0
H559 H 0.20502 0.3116 0.30974 0.0
H560 H 0.16598 0.34554 0.3311 0.0
C561 C 0.11503 0.35972 0.35467 0.0
C562 C 0.10703 0.32323 0.35005 0.0
C563 C 0.12944 0.30406 0.33688 0.0
C564 C 0.12248 0.26903 0.33252 0.0
C565 C 0.14644 0.25001 0.32036 0.0
C566 C 0.17577 0.26538 0.31221 0.0
C567 C 0.18216 0.29979 0.31608 0.0
C568 C 0.15946 0.31899 0.32833 0.0
H569 H 0.07539 0.2288 0.30356 0.0
C570 C 0.07608 0.20858 0.31523 0.0
H571 H 0.08369 0.19893 0.34773 0.0
H572 H 0.0581 0.35327 0.37492 0.0
H573 H 0.0074 0.3259 0.38932 0.0
H574 H 0.99505 0.26518 0.38163 0.0
H575 H 0.03322 0.23148 0.35945 0.0
C576 C 0.08391 0.21744 0.33513 0.0
C577 C 0.09234 0.25358 0.34066 0.0
C578 C 0.07002 0.27274 0.3539 0.0
C579 C 0.07725 0.30769 0.35848 0.0
C580 C 0.05404 0.32652 0.37123 0.0
C581 C 0.02481 0.31115 0.37953 0.0
C582 C 0.01785 0.27696 0.37519 0.0
C583 C 0.04001 0.25789 0.36247 0.0
H584 H 0.77881 0.01603 0.91239 0.0
C585 C 0.76737 0.99134 0.90872 0.0
H586 H 0.77088 0.94625 0.89052 0.0
H587 H 0.86276 0.05827 0.83483 0.0
H588 H 0.80958 0.08914 0.83001 0.0
H589 H 0.75667 0.07086 0.84809 0.0
H590 H 0.75674 0.02197 0.87135 0.0
C591 C 0.78083 0.97186 0.89327 0.0
C592 C 0.8121 0.98244 0.88151 0.0
C593 C 0.81128 0.01045 0.86745 0.0
C594 C 0.84146 0.02016 0.85634 0.0
C595 C 0.84032 0.04909 0.84309 0.0
C596 C 0.81 0.06716 0.84027 0.0
C597 C 0.78024 0.05693 0.8505 0.0
C598 C 0.7807 0.02891 0.86392 0.0
H599 H 0.88145 0.99367 0.81779 0.0
C600 C 0.90434 0.00357 0.82534 0.0
H601 H 0.92589 0.01711 0.85475 0.0
H602 H 0.82277 0.9282 0.90776 0.0
H603 H 0.87554 0.89647 0.9118 0.0
H604 H 0.92722 0.9119 0.89151 0.0
H605 H 0.9265 0.95931 0.86716 0.0
C606 C 0.90319 0.00952 0.84621 0.0
C607 C 0.87203 0.00105 0.85873 0.0
C608 C 0.87285 0.97313 0.87283 0.0
C609 C 0.8429 0.96388 0.88427 0.0
C610 C 0.84459 0.93608 0.89842 0.0
C611 C 0.87476 0.91767 0.90095 0.0
C612 C 0.90387 0.92638 0.88954 0.0
C613 C 0.90309 0.95373 0.87563 0.0
H614 H 0.14391 0.73401 0.3973 0.0
C615 C 0.12152 0.72517 0.40594 0.0
H616 H 0.06866 0.73241 0.41157 0.0
H617 H 0.11831 0.88127 0.37155 0.0
H618 H 0.14586 0.88987 0.40521 0.0
H619 H 0.14633 0.84406 0.4317 0.0
H620 H 0.11968 0.78921 0.42454 0.0
C621 C 0.09133 0.74089 0.40311 0.0
C622 C 0.08807 0.76968 0.38806 0.0
C623 C 0.10272 0.80203 0.39279 0.0
C624 C 0.10132 0.82887 0.37783 0.0
C625 C 0.11761 0.86035 0.38258 0.0
C626 C 0.13369 0.86558 0.40181 0.0
C627 C 0.13405 0.83976 0.4167 0.0
C628 C 0.1188 0.80832 0.41234 0.0
H629 H 0.04924 0.88177 0.36022 0.0
C630 C 0.06357 0.8795 0.34554 0.0
H631 H 0.09789 0.8476 0.32829 0.0
H632 H 0.05627 0.71131 0.3745 0.0
H633 H 0.02692 0.70326 0.3413 0.0
H634 H 0.02326 0.75021 0.31568 0.0
H635 H 0.04901 0.8055 0.32305 0.0
C636 C 0.08301 0.85141 0.34255 0.0
C637 C 0.08421 0.82368 0.35846 0.0
C638 C 0.06888 0.7916 0.35395 0.0
C639 C 0.07076 0.76459 0.36879 0.0
C640 C 0.05544 0.73274 0.36382 0.0
C641 C 0.03853 0.72777 0.34483 0.0
C642 C 0.03649 0.7542 0.3304 0.0
C643 C 0.05143 0.78579 0.33481 0.0
loop_
_geom_bond_atom_site_label_1
_geom_bond_atom_site_label_2
_geom_bond_distance
_geom_bond_site_symmetry_2
_ccdc_geom_bond_type
C0 C1 1.560 . S
C0 H61 0.959 . S
C0 H62 0.959 . S
C0 H63 0.960 . S
C1 C0 1.560 . S
C1 O56 1.426 . S
C1 H60 0.980 . S
C2 C3 1.407 1_545 S
C2 C7 1.418 . S
C2 O56 1.334 . S
C3 C2 1.407 1_565 S
C3 C4 1.360 . S
C3 H64 0.929 . S
C4 C3 1.360 . S
C4 C5 1.401 1_565 S
C4 C8 1.527 . S
C5 C4 1.401 1_545 S
C5 C6 1.405 . S
C5 C38 1.587 1_545 S
C6 C5 1.405 . S
C6 C7 1.332 . S
C6 C9 1.496 . S
C7 C2 1.418 . S
C7 C6 1.332 . S
C7 H65 0.929 . S
C8 C4 1.527 . S
C8 H66 0.959 . S
C8 H67 0.961 . S
C8 H68 0.961 . S
C9 C6 1.496 . S
C9 H69 0.960 . S
C9 H70 0.960 . S
C9 H71 0.961 . S
C10 C11 1.517 . S
C10 H73 0.961 . S
C10 H74 0.960 . S
C10 H75 0.959 . S
C11 C10 1.517 . S
C11 O59 1.468 . S
C11 H72 0.980 1_565 S
C12 C13 1.349 . S
C12 C17 1.367 . S
C12 O59 1.408 . S
C13 C12 1.349 . S
C13 C14 1.407 1_565 S
C13 H76 0.930 1_565 S
C14 C13 1.407 1_545 S
C14 C15 1.449 1_545 S
C14 C18 1.535 . S
C15 C14 1.449 1_565 S
C15 C16 1.384 . S
C15 C40 1.553 . S
C16 C15 1.384 . S
C16 C17 1.364 . S
C16 C19 1.450 . S
C17 C12 1.367 . S
C17 C16 1.364 . S
C17 H77 0.931 . S
C18 C14 1.535 . S
C18 H78 0.959 . S
C18 H79 0.961 . S
C18 H80 0.959 . S
C19 C16 1.450 . S
C19 H81 0.960 . S
C19 H82 0.960 . S
C19 H83 0.960 . S
C20 C21 1.309 1_565 S
C20 C25 1.304 . S
C20 O58 1.435 . S
C21 C20 1.309 1_545 S
C21 C22 1.476 . S
C21 H85 0.930 . S
C22 C21 1.476 . S
C22 C23 1.400 1_545 S
C22 C26 1.567 . S
C23 C22 1.400 1_565 S
C23 C24 1.373 . S
C23 C45 1.432 . S
C24 C23 1.373 . S
C24 C25 1.339 . S
C24 C27 1.530 . S
C25 C20 1.304 . S
C25 C24 1.339 . S
C25 H86 0.930 . S
C26 C22 1.567 . S
C26 H87 0.961 . S
C26 H88 0.960 . S
C26 H89 0.958 . S
C27 C24 1.530 . S
C27 H90 0.961 . S
C27 H91 0.960 . S
C27 H92 0.960 . S
C28 C29 1.530 . S
C28 H94 0.961 . S
C28 H95 0.961 . S
C28 H96 0.959 . S
C29 C28 1.530 . S
C29 O57 1.412 . S
C29 H93 0.991 . S
C30 C31 1.288 . S
C30 C35 1.377 1_545 S
C30 O57 1.393 . S
C31 C30 1.288 . S
C31 C32 1.369 . S
C31 H97 0.932 . S
C32 C31 1.369 . S
C32 C33 1.398 . S
C32 C36 1.527 . S
C33 C32 1.398 . S
C33 C34 1.380 1_545 S
C33 C47 1.491 1_545 S
C34 C33 1.380 1_565 S
C34 C35 1.383 . S
C34 C37 1.603 . S
C35 C30 1.377 1_565 S
C35 C34 1.383 . S
C35 H98 0.929 . S
C36 C32 1.527 . S
C36 H99 0.961 . S
C36 H100 0.959 . S
C36 H101 0.959 . S
C37 C34 1.603 . S
C37 H102 0.960 . S
C37 H103 0.962 . S
C37 H104 0.961 . S
C38 C5 1.587 1_565 S
C38 C39 1.360 . S
C38 C51 1.412 . S
C39 C38 1.360 . S
C39 C40 1.365 . S
C39 H105 0.929 . S
C40 C15 1.553 . S
C40 C39 1.365 . S
C40 C41 1.404 . S
C41 C40 1.404 . S
C41 C42 1.395 . S
C41 C52 1.451 . S
C42 C41 1.395 . S
C42 C43 1.322 . S
C42 H106 0.930 . S
C43 C42 1.322 . S
C43 C44 1.459 1_554 S
C43 H107 0.929 1_554 S
C44 C43 1.459 1_556 S
C44 C45 1.445 . S
C44 C53 1.395 1_556 S
C45 C23 1.432 . S
C45 C44 1.445 . S
C45 C46 1.370 . S
C46 C45 1.370 . S
C46 C47 1.441 . S
C46 H108 0.930 . S
C47 C33 1.491 1_565 S
C47 C46 1.441 . S
C47 C48 1.363 . S
C48 C47 1.363 . S
C48 C49 1.401 1_566 S
C48 C53 1.446 1_556 S
C49 C48 1.401 1_544 S
C49 C50 1.347 1_545 S
C49 H109 0.929 1_554 S
C50 C49 1.347 1_565 S
C50 C51 1.455 . S
C50 H110 0.930 1_565 S
C51 C38 1.412 . S
C51 C50 1.455 . S
C51 C52 1.331 . S
C52 C41 1.451 . S
C52 C51 1.331 . S
C52 C53 1.497 . S
C53 C44 1.395 1_554 S
C53 C48 1.446 1_554 S
C53 C52 1.497 . S
C54 C55 1.582 . S
C54 H111 0.962 . S
C54 H112 0.959 . S
C54 H113 0.958 . S
C55 C54 1.582 . S
C55 O58 1.458 . S
C55 H84 0.980 1_565 S
O56 C1 1.426 . S
O56 C2 1.334 . S
O57 C29 1.412 . S
O57 C30 1.393 . S
O58 C20 1.435 . S
O58 C55 1.458 . S
O59 C11 1.468 . S
O59 C12 1.408 . S
H60 C1 0.980 . S
H61 C0 0.959 . S
H62 C0 0.959 . S
H63 C0 0.960 . S
H64 C3 0.929 . S
H65 C7 0.929 . S
H66 C8 0.959 . S
H67 C8 0.961 . S
H68 C8 0.961 . S
H69 C9 0.960 . S
H70 C9 0.960 . S
H71 C9 0.961 . S
H72 C11 0.980 1_545 S
H73 C10 0.961 . S
H74 C10 0.960 . S
H75 C10 0.959 . S
H76 C13 0.930 1_545 S
H77 C17 0.931 . S
H78 C18 0.959 . S
H79 C18 0.961 . S
H80 C18 0.959 . S
H81 C19 0.960 . S
H82 C19 0.960 . S
H83 C19 0.960 . S
H84 C55 0.980 1_545 S
H85 C21 0.930 . S
H86 C25 0.930 . S
H87 C26 0.961 . S
H88 C26 0.960 . S
H89 C26 0.958 . S
H90 C27 0.961 . S
H91 C27 0.960 . S
H92 C27 0.960 . S
H93 C29 0.991 . S
H94 C28 0.961 . S
H95 C28 0.961 . S
H96 C28 0.959 . S
H97 C31 0.932 . S
H98 C35 0.929 . S
H99 C36 0.961 . S
H100 C36 0.959 . S
H101 C36 0.959 . S
H102 C37 0.960 . S
H103 C37 0.962 . S
H104 C37 0.961 . S
H105 C39 0.929 . S
H106 C42 0.930 . S
H107 C43 0.929 1_556 S
H108 C46 0.930 . S
H109 C49 0.929 1_556 S
H110 C50 0.930 1_545 S
H111 C54 0.962 . S
H112 C54 0.959 . S
H113 C54 0.958 . S
C114 C115 1.560 . S
C114 H175 0.959 . S
C114 H176 0.959 . S
C114 H177 0.960 . S
C115 C114 1.560 . S
C115 O170 1.426 . S
C115 H174 0.980 . S
C116 C117 1.407 . S
C116 C121 1.418 . S
C116 O170 1.334 . S
C117 C116 1.407 . S
C117 C118 1.360 . S
C117 H178 0.929 . S
C118 C117 1.360 . S
C118 C119 1.401 . S
C118 C122 1.527 . S
C119 C118 1.401 . S
C119 C120 1.405 . S
C119 C152 1.587 . S
C120 C119 1.405 . S
C120 C121 1.332 . S
C120 C123 1.496 . S
C121 C116 1.418 . S
C121 C120 1.332 . S
C121 H179 0.929 . S
C122 C118 1.527 . S
C122 H180 0.959 1_455 S
C122 H181 0.961 1_455 S
C122 H182 0.961 1_455 S
C123 C120 1.496 . S
C123 H183 0.960 . S
C123 H184 0.960 . S
C123 H185 0.961 . S
C124 C125 1.517 . S
C124 H187 0.961 . S
C124 H188 0.960 . S
C124 H189 0.959 . S
C125 C124 1.517 . S
C125 O173 1.468 . S
C125 H186 0.980 . S
C126 C127 1.349 . S
C126 C131 1.367 1_455 S
C126 O173 1.408 . S
C127 C126 1.349 . S
C127 C128 1.407 . S
C127 H190 0.930 . S
C128 C127 1.407 . S
C128 C129 1.449 . S
C128 C132 1.535 . S
C129 C128 1.449 . S
C129 C130 1.410 . S
C129 C154 1.553 . S
C130 C129 1.410 . S
C130 C131 1.363 1_455 S
C130 C133 1.428 1_455 S
C131 C126 1.367 1_655 S
C131 C130 1.363 1_655 S
C131 H191 0.931 . S
C132 C128 1.535 . S
C132 H192 0.959 . S
C132 H193 0.961 . S
C132 H194 0.959 . S
C133 C130 1.428 1_655 S
C133 H195 0.960 . S
C133 H196 0.960 . S
C133 H197 0.960 . S
C134 C135 1.309 . S
C134 C139 1.304 . S
C134 O172 1.435 . S
C135 C134 1.309 . S
C135 C136 1.476 . S
C135 H199 0.930 . S
C136 C135 1.476 . S
C136 C137 1.400 . S
C136 C140 1.567 . S
C137 C136 1.400 . S
C137 C138 1.373 . S
C137 C159 1.432 . S
C138 C137 1.373 . S
C138 C139 1.339 . S
C138 C141 1.530 1_455 S
C139 C134 1.304 . S
C139 C138 1.339 . S
C139 H200 0.930 1_455 S
C140 C136 1.567 . S
C140 H201 0.961 . S
C140 H202 0.960 . S
C140 H203 0.958 . S
C141 C138 1.530 1_655 S
C141 H204 0.961 . S
C141 H205 0.960 . S
C141 H206 0.960 . S
C142 C143 1.530 . S
C142 H208 0.961 . S
C142 H209 0.961 . S
C142 H210 0.959 . S
C143 C142 1.530 . S
C143 O171 1.412 . S
C143 H207 0.980 . S
C144 C145 1.288 . S
C144 C149 1.377 . S
C144 O171 1.393 . S
C145 C144 1.288 . S
C145 C146 1.369 . S
C145 H211 0.932 . S
C146 C145 1.369 . S
C146 C147 1.398 . S
C146 C150 1.527 . S
C147 C146 1.398 . S
C147 C148 1.380 . S
C147 C161 1.497 . S
C148 C147 1.380 . S
C148 C149 1.383 . S
C148 C151 1.603 . S
C149 C144 1.377 . S
C149 C148 1.383 . S
C149 H212 0.929 . S
C150 C146 1.527 . S
C150 H213 0.961 . S
C150 H214 0.959 . S
C150 H215 0.959 . S
C151 C148 1.603 . S
C151 H216 0.960 1_455 S
C151 H217 0.962 . S
C151 H218 0.959 1_455 S
C152 C119 1.587 . S
C152 C153 1.360 . S
C152 C165 1.412 . S
C153 C152 1.360 . S
C153 C154 1.365 . S
C153 H219 0.929 . S
C154 C129 1.553 . S
C154 C153 1.365 . S
C154 C155 1.404 . S
C155 C154 1.404 . S
C155 C156 1.395 . S
C155 C166 1.451 . S
C156 C155 1.395 . S
C156 C157 1.322 . S
C156 H220 0.930 . S
C157 C156 1.322 . S
C157 C158 1.459 . S
C157 H221 0.929 . S
C158 C157 1.459 . S
C158 C159 1.445 . S
C158 C167 1.395 . S
C159 C137 1.432 . S
C159 C158 1.445 . S
C159 C160 1.370 . S
C160 C159 1.370 . S
C160 C161 1.438 . S
C160 H222 0.930 . S
C161 C147 1.497 . S
C161 C160 1.438 . S
C161 C162 1.360 . S
C162 C161 1.360 . S
C162 C163 1.401 . S
C162 C167 1.446 . S
C163 C162 1.401 . S
C163 C164 1.347 . S
C163 H223 0.929 . S
C164 C163 1.347 . S
C164 C165 1.455 . S
C164 H224 0.930 . S
C165 C152 1.412 . S
C165 C164 1.455 . S
C165 C166 1.331 . S
C166 C155 1.451 . S
C166 C165 1.331 . S
C166 C167 1.497 . S
C167 C158 1.395 . S
C167 C162 1.446 . S
C167 C166 1.497 . S
C168 C169 1.582 . S
C168 H225 0.962 . S
C168 H226 0.959 . S
C168 H227 0.958 . S
C169 C168 1.582 . S
C169 O172 1.458 . S
C169 H198 0.980 . S
O170 C115 1.426 . S
O170 C116 1.334 . S
O171 C143 1.412 . S
O171 C144 1.393 . S
O172 C134 1.435 . S
O172 C169 1.458 . S
O173 C125 1.468 . S
O173 C126 1.408 . S
H174 C115 0.980 . S
H175 C114 0.959 . S
H176 C114 0.959 . S
H177 C114 0.960 . S
H178 C117 0.929 . S
H179 C121 0.929 . S
H180 C122 0.959 1_655 S
H181 C122 0.961 1_655 S
H182 C122 0.961 1_655 S
H183 C123 0.960 . S
H184 C123 0.960 . S
H185 C123 0.961 . S
H186 C125 0.980 . S
H187 C124 0.961 . S
H188 C124 0.960 . S
H189 C124 0.959 . S
H190 C127 0.930 . S
H191 C131 0.931 . S
H192 C132 0.959 . S
H193 C132 0.961 . S
H194 C132 0.959 . S
H195 C133 0.960 . S
H196 C133 0.960 . S
H197 C133 0.960 . S
H198 C169 0.980 . S
H199 C135 0.930 . S
H200 C139 0.930 1_655 S
H201 C140 0.961 . S
H202 C140 0.960 . S
H203 C140 0.958 . S
H204 C141 0.961 . S
H205 C141 0.960 . S
H206 C141 0.960 . S
H207 C143 0.980 . S
H208 C142 0.961 . S
H209 C142 0.961 . S
H210 C142 0.959 . S
H211 C145 0.932 . S
H212 C149 0.929 . S
H213 C150 0.961 . S
H214 C150 0.959 . S
H215 C150 0.959 . S
H216 C151 0.960 1_655 S
H217 C151 0.962 . S
H218 C151 0.959 1_655 S
H219 C153 0.929 . S
H220 C156 0.930 . S
H221 C157 0.929 . S
H222 C160 0.930 . S
H223 C163 0.929 . S
H224 C164 0.930 . S
H225 C168 0.962 . S
H226 C168 0.959 . S
H227 C168 0.958 . S
Li228 N245 1.990 . S
Li228 O288 1.956 . S
Li228 O289 1.970 . S
Li228 O290 1.961 . S
Li229 N253 1.990 . S
Li229 O288 1.970 1_565 S
Li229 O289 1.956 1_565 S
Li229 O291 1.961 . S
Li230 N275 1.990 . S
Li230 O288 1.961 . S
Li230 O290 1.956 . S
Li230 O291 1.970 1_545 S
Li231 N281 1.990 1_455 S
Li231 O289 1.961 . S
Li231 O290 1.970 . S
Li231 O291 1.956 1_545 S
C232 C234 1.348 1_545 S
C232 C235 1.356 . S
C232 O288 1.325 . S
N233 C236 1.314 1_545 S
N233 C237 1.279 . S
C234 C232 1.348 1_565 S
C234 C236 1.353 . S
C234 H292 0.929 . S
C235 C232 1.356 . S
C235 C237 1.358 . S
C235 H293 0.930 . S
C236 N233 1.314 1_565 S
C236 C234 1.353 . S
C236 H294 0.930 . S
C237 N233 1.279 . S
C237 C235 1.358 . S
C237 H295 0.930 . S
C238 C241 1.349 . S
C238 C242 1.356 1_445 S
C238 O289 1.325 . S
C239 N240 1.279 1_565 S
C239 C242 1.358 . S
C239 H296 0.930 . S
N240 C239 1.279 1_545 S
N240 C243 1.314 . S
C241 C238 1.349 . S
C241 C243 1.336 1_455 S
C241 H297 0.945 . S
C242 C238 1.356 1_665 S
C242 C239 1.358 . S
C242 H298 0.930 . S
C243 N240 1.314 . S
C243 C241 1.336 1_655 S
C243 H299 0.930 . S
C244 N245 1.314 . S
C244 C249 1.353 . S
C244 H250 0.930 . S
N245 Li228 1.990 . S
N245 C244 1.314 . S
N245 C247 1.279 . S
C246 C247 1.358 . S
C246 C248 1.356 . S
C246 H300 0.930 . S
C247 N245 1.279 . S
C247 C246 1.358 . S
C247 H251 0.930 . S
C248 C246 1.356 . S
C248 C249 1.348 . S
C249 C244 1.353 . S
C249 C248 1.348 . S
C249 H301 0.929 . S
H250 C244 0.930 . S
H251 C247 0.930 . S
C252 N253 1.314 . S
C252 C254 1.353 . S
C252 H258 0.930 . S
N253 Li229 1.990 . S
N253 C252 1.314 . S
N253 C256 1.279 . S
C254 C252 1.353 . S
C254 C257 1.348 . S
C254 H302 0.929 . S
C255 C256 1.358 . S
C255 C257 1.356 . S
C255 H303 0.930 . S
C256 N253 1.279 . S
C256 C255 1.358 . S
C256 H259 0.930 . S
C257 C254 1.348 . S
C257 C255 1.356 . S
H258 C252 0.930 . S
H259 C256 0.930 . S
C260 C262 1.348 . S
C260 C263 1.356 . S
C260 O290 1.325 . S
N261 C264 1.314 . S
N261 C265 1.279 . S
C262 C260 1.348 . S
C262 C264 1.353 . S
C262 H304 0.929 . S
C263 C260 1.356 . S
C263 C265 1.358 . S
C263 H305 0.930 . S
C264 N261 1.314 . S
C264 C262 1.353 . S
C264 H306 0.930 . S
C265 N261 1.279 . S
C265 C263 1.358 . S
C265 H307 0.930 . S
C266 C267 1.348 . S
C266 C268 1.356 . S
C266 O291 1.325 . S
C267 C266 1.348 . S
C267 C269 1.353 . S
C267 H308 0.929 . S
C268 C266 1.356 . S
C268 C270 1.358 . S
C268 H309 0.930 . S
C269 C267 1.353 . S
C269 N271 1.314 . S
C269 H310 0.930 . S
C270 C268 1.358 . S
C270 N271 1.279 . S
C270 H311 0.930 . S
N271 C269 1.314 . S
N271 C270 1.279 . S
C272 C274 1.353 . S
C272 N275 1.314 1_565 S
C272 H278 0.930 . S
C273 N275 1.279 . S
C273 C276 1.358 . S
C273 H279 0.930 . S
C274 C272 1.353 . S
C274 C277 1.348 1_565 S
C274 H312 0.929 . S
N275 Li230 1.990 . S
N275 C272 1.314 1_545 S
N275 C273 1.279 . S
C276 C273 1.358 . S
C276 C277 1.356 . S
C276 H313 0.930 . S
C277 C274 1.348 1_545 S
C277 C276 1.356 . S
H278 C272 0.930 . S
H279 C273 0.930 . S
C280 N281 1.314 . S
C280 C282 1.353 . S
C280 H286 0.930 . S
N281 Li231 1.990 1_655 S
N281 C280 1.314 . S
N281 C284 1.279 1_545 S
C282 C280 1.353 . S
C282 C285 1.348 . S
C282 H314 0.929 . S
C283 C284 1.358 . S
C283 C285 1.356 1_565 S
C283 H315 0.930 . S
C284 N281 1.279 1_565 S
C284 C283 1.358 . S
C284 H287 0.930 1_655 S
C285 C282 1.348 . S
C285 C283 1.356 1_545 S
H286 C280 0.930 . S
H287 C284 0.930 1_455 S
O288 Li228 1.956 . S
O288 Li229 1.970 1_545 S
O288 Li230 1.961 . S
O288 C232 1.325 . S
O289 Li228 1.970 . S
O289 Li229 1.956 1_545 S
O289 Li231 1.961 . S
O289 C238 1.325 . S
O290 Li228 1.961 . S
O290 Li230 1.956 . S
O290 Li231 1.970 . S
O290 C260 1.325 . S
O291 Li229 1.961 . S
O291 Li230 1.970 1_565 S
O291 Li231 1.956 1_565 S
O291 C266 1.325 . S
H292 C234 0.929 . S
H293 C235 0.930 . S
H294 C236 0.930 . S
H295 C237 0.930 . S
H296 C239 0.930 . S
H297 C241 0.945 . S
H298 C242 0.930 . S
H299 C243 0.930 . S
H300 C246 0.930 . S
H301 C249 0.929 . S
H302 C254 0.929 . S
H303 C255 0.930 . S
H304 C262 0.929 . S
H305 C263 0.930 . S
H306 C264 0.930 . S
H307 C265 0.930 . S
H308 C267 0.929 . S
H309 C268 0.930 . S
H310 C269 0.930 . S
H311 C270 0.930 . S
H312 C274 0.929 . S
H313 C276 0.930 . S
H314 C282 0.929 . S
H315 C283 0.930 . S
Li316 N333 1.990 1_455 S
Li316 O376 1.956 . S
Li316 O377 1.970 1_545 S
Li316 O378 1.961 . S
Li317 N341 1.990 . S
Li317 O376 1.970 . S
Li317 O377 1.956 1_545 S
Li317 O379 1.961 . S
Li318 N363 1.990 . S
Li318 O376 1.961 . S
Li318 O378 1.956 . S
Li318 O379 1.970 . S
Li319 N369 1.990 . S
Li319 O377 1.961 . S
Li319 O378 1.970 1_565 S
Li319 O379 1.956 1_565 S
C320 C322 1.348 . S
C320 C323 1.356 . S
C320 O376 1.325 . S
N321 C324 1.314 . S
N321 C325 1.279 . S
C322 C320 1.348 . S
C322 C324 1.353 . S
C322 H380 0.929 . S
C323 C320 1.356 . S
C323 C325 1.358 . S
C323 H381 0.930 . S
C324 N321 1.314 . S
C324 C322 1.353 . S
C324 H382 0.930 . S
C325 N321 1.279 . S
C325 C323 1.358 . S
C325 H383 0.930 . S
C326 C329 1.348 . S
C326 C330 1.356 . S
C326 O377 1.325 . S
C327 N328 1.279 . S
C327 C330 1.358 . S
C327 H384 0.930 . S
N328 C327 1.279 . S
N328 C331 1.314 . S
C329 C326 1.348 . S
C329 C331 1.353 . S
C329 H385 0.929 . S
C330 C326 1.356 . S
C330 C327 1.358 . S
C330 H386 0.930 . S
C331 N328 1.314 . S
C331 C329 1.353 . S
C331 H387 0.930 . S
C332 N333 1.314 1_565 S
C332 C337 1.353 . S
C332 H338 0.930 . S
N333 Li316 1.990 1_655 S
N333 C332 1.314 1_545 S
N333 C335 1.279 . S
C334 C335 1.358 . S
C334 C336 1.356 . S
C334 H388 0.930 . S
C335 N333 1.279 . S
C335 C334 1.358 . S
C335 H339 0.930 1_655 S
C336 C334 1.356 . S
C336 C337 1.348 1_545 S
C337 C332 1.353 . S
C337 C336 1.348 1_565 S
C337 H389 0.929 . S
H338 C332 0.930 . S
H339 C335 0.930 1_455 S
C340 N341 1.314 . S
C340 C342 1.353 . S
C340 H346 0.930 . S
N341 Li317 1.990 . S
N341 C340 1.314 . S
N341 C344 1.279 1_545 S
C342 C340 1.353 . S
C342 C345 1.348 . S
C342 H390 0.929 . S
C343 C344 1.358 . S
C343 C345 1.356 1_565 S
C343 H391 0.930 . S
C344 N341 1.279 1_565 S
C344 C343 1.358 . S
C344 H347 0.930 . S
C345 C342 1.348 . S
C345 C343 1.356 1_545 S
H346 C340 0.930 . S
H347 C344 0.930 . S
C348 C350 1.347 1_445 S
C348 C351 1.350 1_455 S
C348 O378 1.331 . S
N349 C352 1.314 1_545 S
N349 C353 1.279 . S
C350 C348 1.347 1_665 S
C350 C352 1.353 . S
C350 H392 0.929 1_655 S
C351 C348 1.350 1_655 S
C351 C353 1.358 . S
C351 H393 0.930 . S
C352 N349 1.314 1_565 S
C352 C350 1.353 . S
C352 H394 0.930 . S
C353 N349 1.279 . S
C353 C351 1.358 . S
C353 H395 0.930 . S
C354 C355 1.348 . S
C354 C356 1.356 1_545 S
C354 O379 1.325 . S
C355 C354 1.348 . S
C355 C357 1.353 . S
C355 H396 0.929 . S
C356 C354 1.356 1_565 S
C356 C358 1.358 . S
C356 H397 0.930 . S
C357 C355 1.353 . S
C357 N359 1.314 . S
C357 H398 0.930 . S
C358 C356 1.358 . S
C358 N359 1.279 1_565 S
C358 H399 0.930 . S
N359 C357 1.314 . S
N359 C358 1.279 1_545 S
C360 C362 1.353 . S
C360 N363 1.314 . S
C360 H366 0.930 . S
C361 N363 1.279 . S
C361 C364 1.358 . S
C361 H367 0.930 . S
C362 C360 1.353 . S
C362 C365 1.348 . S
C362 H400 0.929 . S
N363 Li318 1.990 . S
N363 C360 1.314 . S
N363 C361 1.279 . S
C364 C361 1.358 . S
C364 C365 1.356 . S
C364 H401 0.930 . S
C365 C362 1.348 . S
C365 C364 1.356 . S
H366 C360 0.930 . S
H367 C361 0.930 . S
C368 N369 1.314 . S
C368 C370 1.353 . S
C368 H374 0.930 . S
N369 Li319 1.990 . S
N369 C368 1.314 . S
N369 C372 1.279 . S
C370 C368 1.353 . S
C370 C373 1.348 . S
C370 H402 0.929 . S
C371 C372 1.358 . S
C371 C373 1.356 . S
C371 H403 0.930 . S
C372 N369 1.279 . S
C372 C371 1.358 . S
C372 H375 0.930 . S
C373 C370 1.348 . S
C373 C371 1.356 . S
H374 C368 0.930 . S
H375 C372 0.930 . S
O376 Li316 1.956 . S
O376 Li317 1.970 . S
O376 Li318 1.961 . S
O376 C320 1.325 . S
O377 Li316 1.970 1_565 S
O377 Li317 1.956 1_565 S
O377 Li319 1.961 . S
O377 C326 1.325 . S
O378 Li316 1.961 . S
O378 Li318 1.956 . S
O378 Li319 1.970 1_545 S
O378 C348 1.331 . S
O379 Li317 1.961 . S
O379 Li318 1.970 . S
O379 Li319 1.956 1_545 S
O379 C354 1.325 . S
H380 C322 0.929 . S
H381 C323 0.930 . S
H382 C324 0.930 . S
H383 C325 0.930 . S
H384 C327 0.930 . S
H385 C329 0.929 . S
H386 C330 0.930 . S
H387 C331 0.930 . S
H388 C334 0.930 . S
H389 C337 0.929 . S
H390 C342 0.929 . S
H391 C343 0.930 . S
H392 C350 0.929 1_455 S
H393 C351 0.930 . S
H394 C352 0.930 . S
H395 C353 0.930 . S
H396 C355 0.929 . S
H397 C356 0.930 . S
H398 C357 0.930 . S
H399 C358 0.930 . S
H400 C362 0.929 . S
H401 C364 0.930 . S
H402 C370 0.929 . S
H403 C371 0.930 . S
H404 C405 0.951 . S
C405 H404 0.951 . S
C405 C411 1.264 1_545 S
H406 C411 0.951 . S
H407 C415 0.949 . S
H408 C416 0.950 . S
H409 C417 0.951 . S
H410 C418 0.951 . S
C411 C405 1.264 1_565 S
C411 H406 0.951 . S
C411 C412 1.478 1_565 S
C412 C411 1.478 1_545 S
C412 C413 1.397 1_545 S
C412 C429 1.394 . S
C413 C412 1.397 1_565 S
C413 C414 1.438 . S
C413 C418 1.429 . S
C414 C413 1.438 . S
C414 C415 1.428 . S
C414 C427 1.394 1_565 S
C415 H407 0.949 . S
C415 C414 1.428 . S
C415 C416 1.345 . S
C416 H408 0.950 . S
C416 C415 1.345 . S
C416 C417 1.424 . S
C417 H409 0.951 . S
C417 C416 1.424 . S
C417 C418 1.347 . S
C418 H410 0.951 . S
C418 C413 1.429 . S
C418 C417 1.347 . S
H419 C420 0.951 . S
C420 H419 0.951 . S
C420 C426 1.265 . S
H421 C426 0.950 . S
H422 C430 0.949 . S
H423 C431 0.950 . S
H424 C432 0.951 . S
H425 C433 0.951 . S
C426 C420 1.265 . S
C426 H421 0.950 . S
C426 C427 1.478 . S
C427 C414 1.394 1_545 S
C427 C426 1.478 . S
C427 C428 1.397 . S
C428 C427 1.397 . S
C428 C429 1.438 . S
C428 C433 1.429 . S
C429 C412 1.394 . S
C429 C428 1.438 . S
C429 C430 1.428 . S
C430 H422 0.949 . S
C430 C429 1.428 . S
C430 C431 1.345 . S
C431 H423 0.950 . S
C431 C430 1.345 . S
C431 C432 1.424 . S
C432 H424 0.951 . S
C432 C431 1.424 . S
C432 C433 1.347 . S
C433 H425 0.951 . S
C433 C428 1.429 . S
C433 C432 1.347 . S
H434 C435 0.951 . S
C435 H434 0.951 . S
C435 C441 1.265 . S
H436 C441 0.950 . S
H437 C445 0.949 . S
H438 C446 0.950 . S
H439 C447 0.951 . S
H440 C448 0.951 . S
C441 C435 1.265 . S
C441 H436 0.950 . S
C441 C442 1.478 . S
C442 C441 1.478 . S
C442 C443 1.397 . S
C442 C459 1.394 . S
C443 C442 1.397 . S
C443 C444 1.438 . S
C443 C448 1.429 . S
C444 C443 1.438 . S
C444 C445 1.428 . S
C444 C457 1.394 . S
C445 H437 0.949 . S
C445 C444 1.428 . S
C445 C446 1.345 . S
C446 H438 0.950 . S
C446 C445 1.345 . S
C446 C447 1.424 . S
C447 H439 0.951 . S
C447 C446 1.424 . S
C447 C448 1.347 . S
C448 H440 0.951 . S
C448 C443 1.429 . S
C448 C447 1.347 . S
H449 C450 0.951 . S
C450 H449 0.951 . S
C450 C456 1.265 . S
H451 C456 0.950 . S
H452 C460 0.949 . S
H453 C461 0.950 . S
H454 C462 0.951 . S
H455 C463 0.951 . S
C456 C450 1.265 . S
C456 H451 0.950 . S
C456 C457 1.478 . S
C457 C444 1.394 . S
C457 C456 1.478 . S
C457 C458 1.397 . S
C458 C457 1.397 . S
C458 C459 1.438 . S
C458 C463 1.429 . S
C459 C442 1.394 . S
C459 C458 1.438 . S
C459 C460 1.428 . S
C460 H452 0.949 . S
C460 C459 1.428 . S
C460 C461 1.345 . S
C461 H453 0.950 . S
C461 C460 1.345 . S
C461 C462 1.424 . S
C462 H454 0.951 . S
C462 C461 1.424 . S
C462 C463 1.347 . S
C463 H455 0.951 . S
C463 C458 1.429 . S
C463 C462 1.347 . S
H464 C465 0.951 1_565 S
C465 H464 0.951 1_545 S
C465 C471 1.265 . S
H466 C471 0.950 . S
H467 C475 0.949 . S
H468 C476 0.950 . S
H469 C477 0.951 . S
H470 C478 0.951 . S
C471 C465 1.265 . S
C471 H466 0.950 . S
C471 C472 1.478 . S
C472 C471 1.478 . S
C472 C473 1.397 . S
C472 C489 1.394 . S
C473 C472 1.397 . S
C473 C474 1.438 . S
C473 C478 1.429 . S
C474 C473 1.438 . S
C474 C475 1.428 . S
C474 C487 1.394 . S
C475 H467 0.949 . S
C475 C474 1.428 . S
C475 C476 1.345 . S
C476 H468 0.950 . S
C476 C475 1.345 . S
C476 C477 1.424 . S
C477 H469 0.951 . S
C477 C476 1.424 . S
C477 C478 1.347 . S
C478 H470 0.951 . S
C478 C473 1.429 . S
C478 C477 1.347 . S
H479 C480 0.951 . S
C480 H479 0.951 . S
C480 C486 1.265 1_545 S
H481 C486 0.950 . S
H482 C490 0.949 . S
H483 C491 0.950 . S
H484 C492 0.951 1_565 S
H485 C493 0.951 1_565 S
C486 C480 1.265 1_565 S
C486 H481 0.950 . S
C486 C487 1.478 1_565 S
C487 C474 1.394 . S
C487 C486 1.478 1_545 S
C487 C488 1.397 . S
C488 C487 1.397 . S
C488 C489 1.438 . S
C488 C493 1.429 . S
C489 C472 1.394 . S
C489 C488 1.438 . S
C489 C490 1.428 . S
C490 H482 0.949 . S
C490 C489 1.428 . S
C490 C491 1.345 . S
C491 H483 0.950 . S
C491 C490 1.345 . S
C491 C492 1.424 . S
C492 H484 0.951 1_545 S
C492 C491 1.424 . S
C492 C493 1.347 . S
C493 H485 0.951 1_545 S
C493 C488 1.429 . S
C493 C492 1.347 . S
H494 C495 0.951 . S
C495 H494 0.951 . S
C495 C501 1.265 . S
H496 C501 0.950 . S
H497 C505 0.949 . S
H498 C506 0.950 . S
H499 C507 0.951 . S
H500 C508 0.951 . S
C501 C495 1.265 . S
C501 H496 0.950 . S
C501 C502 1.478 . S
C502 C501 1.478 . S
C502 C503 1.397 . S
C502 C519 1.394 . S
C503 C502 1.397 . S
C503 C504 1.438 . S
C503 C508 1.429 . S
C504 C503 1.438 . S
C504 C505 1.428 . S
C504 C517 1.394 . S
C505 H497 0.949 . S
C505 C504 1.428 . S
C505 C506 1.345 . S
C506 H498 0.950 . S
C506 C505 1.345 . S
C506 C507 1.424 . S
C507 H499 0.951 . S
C507 C506 1.424 . S
C507 C508 1.347 . S
C508 H500 0.951 . S
C508 C503 1.429 . S
C508 C507 1.347 . S
H509 C510 0.951 . S
C510 H509 0.951 . S
C510 C516 1.265 . S
H511 C516 0.950 . S
H512 C520 0.949 . S
H513 C521 0.950 . S
H514 C522 0.951 . S
H515 C523 0.951 . S
C516 C510 1.265 . S
C516 H511 0.950 . S
C516 C517 1.478 . S
C517 C504 1.394 . S
C517 C516 1.478 . S
C517 C518 1.397 . S
C518 C517 1.397 . S
C518 C519 1.438 . S
C518 C523 1.429 . S
C519 C502 1.394 . S
C519 C518 1.438 . S
C519 C520 1.428 . S
C520 H512 0.949 . S
C520 C519 1.428 . S
C520 C521 1.345 . S
C521 H513 0.950 . S
C521 C520 1.345 . S
C521 C522 1.424 . S
C522 H514 0.951 . S
C522 C521 1.424 . S
C522 C523 1.347 . S
C523 H515 0.951 . S
C523 C518 1.429 . S
C523 C522 1.347 . S
H524 C525 0.951 . S
C525 H524 0.951 . S
C525 C531 1.265 . S
H526 C531 0.950 . S
H527 C535 0.949 . S
H528 C536 0.950 . S
H529 C537 0.951 . S
H530 C538 0.951 . S
C531 C525 1.265 . S
C531 H526 0.950 . S
C531 C532 1.478 . S
C532 C531 1.478 . S
C532 C533 1.397 1_545 S
C532 C549 1.394 . S
C533 C532 1.397 1_565 S
C533 C534 1.438 . S
C533 C538 1.429 . S
C534 C533 1.438 . S
C534 C535 1.428 . S
C534 C547 1.394 1_565 S
C535 H527 0.949 . S
C535 C534 1.428 . S
C535 C536 1.345 . S
C536 H528 0.950 . S
C536 C535 1.345 . S
C536 C537 1.424 . S
C537 H529 0.951 . S
C537 C536 1.424 . S
C537 C538 1.347 . S
C538 H530 0.951 . S
C538 C533 1.429 . S
C538 C537 1.347 . S
H539 C540 0.951 . S
C540 H539 0.951 . S
C540 C546 1.265 . S
H541 C546 0.950 . S
H542 C550 0.949 . S
H543 C551 0.950 . S
H544 C552 0.951 . S
H545 C553 0.951 . S
C546 C540 1.265 . S
C546 H541 0.950 . S
C546 C547 1.478 . S
C547 C534 1.394 1_545 S
C547 C546 1.478 . S
C547 C548 1.397 . S
C548 C547 1.397 . S
C548 C549 1.438 . S
C548 C553 1.429 . S
C549 C532 1.394 . S
C549 C548 1.438 . S
C549 C550 1.428 . S
C550 H542 0.949 . S
C550 C549 1.428 . S
C550 C551 1.345 . S
C551 H543 0.950 . S
C551 C550 1.345 . S
C551 C552 1.424 . S
C552 H544 0.951 . S
C552 C551 1.424 . S
C552 C553 1.347 . S
C553 H545 0.951 . S
C553 C548 1.429 . S
C553 C552 1.347 . S
H554 C555 0.951 . S
C555 H554 0.951 . S
C555 C561 1.265 . S
H556 C561 0.950 . S
H557 C565 0.949 . S
H558 C566 0.950 . S
H559 C567 0.951 . S
H560 C568 0.951 . S
C561 C555 1.265 . S
C561 H556 0.950 . S
C561 C562 1.478 . S
C562 C561 1.478 . S
C562 C563 1.397 . S
C562 C579 1.394 . S
C563 C562 1.397 . S
C563 C564 1.438 . S
C563 C568 1.429 . S
C564 C563 1.438 . S
C564 C565 1.428 . S
C564 C577 1.394 . S
C565 H557 0.949 . S
C565 C564 1.428 . S
C565 C566 1.345 . S
C566 H558 0.950 . S
C566 C565 1.345 . S
C566 C567 1.424 . S
C567 H559 0.951 . S
C567 C566 1.424 . S
C567 C568 1.347 . S
C568 H560 0.951 . S
C568 C563 1.429 . S
C568 C567 1.347 . S
H569 C570 0.951 . S
C570 H569 0.951 . S
C570 C576 1.265 . S
H571 C576 0.950 . S
H572 C580 0.949 . S
H573 C581 0.950 . S
H574 C582 0.951 . S
H575 C583 0.951 . S
C576 C570 1.265 . S
C576 H571 0.950 . S
C576 C577 1.478 . S
C577 C564 1.394 . S
C577 C576 1.478 . S
C577 C578 1.397 . S
C578 C577 1.397 . S
C578 C579 1.438 . S
C578 C583 1.429 . S
C579 C562 1.394 . S
C579 C578 1.438 . S
C579 C580 1.428 . S
C580 H572 0.949 . S
C580 C579 1.428 . S
C580 C581 1.345 . S
C581 H573 0.950 . S
C581 C580 1.345 . S
C581 C582 1.424 . S
C582 H574 0.951 . S
C582 C581 1.424 . S
C582 C583 1.347 . S
C583 H575 0.951 . S
C583 C578 1.429 . S
C583 C582 1.347 . S
H584 C585 0.952 . S
C585 H584 0.952 . S
C585 C591 1.266 . S
H586 C591 0.950 . S
H587 C595 0.949 . S
H588 C596 0.950 . S
H589 C597 0.951 . S
H590 C598 0.951 . S
C591 C585 1.266 . S
C591 H586 0.950 . S
C591 C592 1.478 . S
C592 C591 1.478 . S
C592 C593 1.397 . S
C592 C609 1.394 1_545 S
C593 C592 1.397 . S
C593 C594 1.438 . S
C593 C598 1.429 . S
C594 C593 1.438 . S
C594 C595 1.428 . S
C594 C607 1.394 . S
C595 H587 0.949 . S
C595 C594 1.428 . S
C595 C596 1.345 . S
C596 H588 0.950 . S
C596 C595 1.345 . S
C596 C597 1.424 . S
C597 H589 0.951 . S
C597 C596 1.424 . S
C597 C598 1.347 . S
C598 H590 0.951 . S
C598 C593 1.429 . S
C598 C597 1.347 . S
H599 C600 0.951 . S
C600 H599 0.951 . S
C600 C606 1.265 . S
H601 C606 0.950 . S
H602 C610 0.949 . S
H603 C611 0.950 . S
H604 C612 0.951 . S
H605 C613 0.951 . S
C606 C600 1.265 . S
C606 H601 0.950 . S
C606 C607 1.478 . S
C607 C594 1.394 . S
C607 C606 1.478 . S
C607 C608 1.397 1_545 S
C608 C607 1.397 1_565 S
C608 C609 1.438 . S
C608 C613 1.429 . S
C609 C592 1.394 1_565 S
C609 C608 1.438 . S
C609 C610 1.428 . S
C610 H602 0.949 . S
C610 C609 1.428 . S
C610 C611 1.345 . S
C611 H603 0.950 . S
C611 C610 1.345 . S
C611 C612 1.424 . S
C612 H604 0.951 . S
C612 C611 1.424 . S
C612 C613 1.347 . S
C613 H605 0.951 . S
C613 C608 1.429 . S
C613 C612 1.347 . S
H614 C615 0.951 . S
C615 H614 0.951 . S
C615 C621 1.265 . S
H616 C621 0.950 . S
H617 C625 0.949 . S
H618 C626 0.950 . S
H619 C627 0.951 . S
H620 C628 0.951 . S
C621 C615 1.265 . S
C621 H616 0.950 . S
C621 C622 1.478 . S
C622 C621 1.478 . S
C622 C623 1.397 . S
C622 C639 1.394 . S
C623 C622 1.397 . S
C623 C624 1.438 . S
C623 C628 1.429 . S
C624 C623 1.438 . S
C624 C625 1.428 . S
C624 C637 1.394 . S
C625 H617 0.949 . S
C625 C624 1.428 . S
C625 C626 1.345 . S
C626 H618 0.950 . S
C626 C625 1.345 . S
C626 C627 1.424 . S
C627 H619 0.951 . S
C627 C626 1.424 . S
C627 C628 1.347 . S
C628 H620 0.951 . S
C628 C623 1.429 . S
C628 C627 1.347 . S
H629 C630 0.951 . S
C630 H629 0.951 . S
C630 C636 1.265 . S
H631 C636 0.950 . S
H632 C640 0.949 . S
H633 C641 0.950 . S
H634 C642 0.951 . S
H635 C643 0.951 . S
C636 C630 1.265 . S
C636 H631 0.950 . S
C636 C637 1.478 . S
C637 C624 1.394 . S
C637 C636 1.478 . S
C637 C638 1.397 . S
C638 C637 1.397 . S
C638 C639 1.438 . S
C638 C643 1.429 . S
C639 C622 1.394 . S
C639 C638 1.438 . S
C639 C640 1.428 . S
C640 H632 0.949 . S
C640 C639 1.428 . S
C640 C641 1.345 . S
C641 H633 0.950 . S
C641 C640 1.345 . S
C641 C642 1.424 . S
C642 H634 0.951 . S
C642 C641 1.424 . S
C642 C643 1.347 . S
C643 H635 0.951 . S
C643 C638 1.429 . S
C643 C642 1.347 . S
C420 C277 1.459 . S
C405 C11 0.811 1_545 S
C450 C365 1.303 . S
C435 C115 1.131 . S
C480 C285 1.303 . S
C465 C1 1.139 . S
C510 C373 1.470 . S
C495 C125 1.005 . S
C540 C345 1.568 . S
C525 C55 1.089 1_545 S
C570 C248 1.397 . S
C555 C143 0.995 . S
C600 C336 1.398 . S
C585 C29 1.031 . S
C615 C169 1.253 . S
C630 C257 1.559 . S
