# Generated by pormake.
# Topology eea, (3,6)-cn, num edge types: 1
# Building blocks:
#     Node 0, Type 0, BuildingBlock: BETDIP_clean_linker_0, # of connection points: 3
#     Node 1, Type 0, BuildingBlock: BETDIP_clean_linker_0, # of connection points: 3
#     Node 2, Type 0, BuildingBlock: BETDIP_clean_linker_0, # of connection points: 3
#     Node 3, Type 0, BuildingBlock: BETDIP_clean_linker_0, # of connection points: 3
#     Node 4, Type 0, BuildingBlock: BETDIP_clean_linker_0, # of connection points: 3
#     Node 5, Type 0, BuildingBlock: BETDIP_clean_linker_0, # of connection points: 3
#     Node 6, Type 0, BuildingBlock: BETDIP_clean_linker_0, # of connection points: 3
#     Node 7, Type 0, BuildingBlock: BETDIP_clean_linker_0, # of connection points: 3
#     Node 8, Type 0, BuildingBlock: BETDIP_clean_linker_0, # of connection points: 3
#     Node 9, Type 0, BuildingBlock: BETDIP_clean_linker_0, # of connection points: 3
#     Node 10, Type 0, BuildingBlock: BETDIP_clean_linker_0, # of connection points: 3
#     Node 11, Type 0, BuildingBlock: BETDIP_clean_linker_0, # of connection points: 3
#     Node 12, Type 0, BuildingBlock: BETDIP_clean_linker_0, # of connection points: 3
#     Node 13, Type 0, BuildingBlock: BETDIP_clean_linker_0, # of connection points: 3
#     Node 14, Type 0, BuildingBlock: BETDIP_clean_linker_0, # of connection points: 3
#     Node 15, Type 0, BuildingBlock: BETDIP_clean_linker_0, # of connection points: 3
#     Node 16, Type 0, BuildingBlock: BETDIP_clean_linker_0, # of connection points: 3
#     Node 17, Type 0, BuildingBlock: BETDIP_clean_linker_0, # of connection points: 3
#     Node 18, Type 1, BuildingBlock: CUKXOW_clean_sbu_0, # of connection points: 6
#     Node 19, Type 1, BuildingBlock: CUKXOW_clean_sbu_0, # of connection points: 6
#     Node 20, Type 1, BuildingBlock: CUKXOW_clean_sbu_0, # of connection points: 6
#     Node 21, Type 1, BuildingBlock: CUKXOW_clean_sbu_0, # of connection points: 6
#     Node 22, Type 1, BuildingBlock: CUKXOW_clean_sbu_0, # of connection points: 6
#     Node 23, Type 1, BuildingBlock: CUKXOW_clean_sbu_0, # of connection points: 6
#     Node 24, Type 1, BuildingBlock: CUKXOW_clean_sbu_0, # of connection points: 6
#     Node 25, Type 1, BuildingBlock: CUKXOW_clean_sbu_0, # of connection points: 6
#     Node 26, Type 1, BuildingBlock: CUKXOW_clean_sbu_0, # of connection points: 6
#     Edge 27, Type (0, 1), BuildingBlock: ZUJKAS_clean_linker_0, # of connection points: 2
#     Edge 28, Type (0, 1), BuildingBlock: ZUJKAS_clean_linker_0, # of connection points: 2
#     Edge 29, Type (0, 1), BuildingBlock: ZUJKAS_clean_linker_0, # of connection points: 2
#     Edge 30, Type (0, 1), BuildingBlock: ZUJKAS_clean_linker_0, # of connection points: 2
#     Edge 31, Type (0, 1), BuildingBlock: ZUJKAS_clean_linker_0, # of connection points: 2
#     Edge 32, Type (0, 1), BuildingBlock: ZUJKAS_clean_linker_0, # of connection points: 2
#     Edge 33, Type (0, 1), BuildingBlock: ZUJKAS_clean_linker_0, # of connection points: 2
#     Edge 34, Type (0, 1), BuildingBlock: ZUJKAS_clean_linker_0, # of connection points: 2
#     Edge 35, Type (0, 1), BuildingBlock: ZUJKAS_clean_linker_0, # of connection points: 2
#     Edge 36, Type (0, 1), BuildingBlock: ZUJKAS_clean_linker_0, # of connection points: 2
#     Edge 37, Type (0, 1), BuildingBlock: ZUJKAS_clean_linker_0, # of connection points: 2
#     Edge 38, Type (0, 1), BuildingBlock: ZUJKAS_clean_linker_0, # of connection points: 2
#     Edge 39, Type (0, 1), BuildingBlock: ZUJKAS_clean_linker_0, # of connection points: 2
#     Edge 40, Type (0, 1), BuildingBlock: ZUJKAS_clean_linker_0, # of connection points: 2
#     Edge 41, Type (0, 1), BuildingBlock: ZUJKAS_clean_linker_0, # of connection points: 2
#     Edge 42, Type (0, 1), BuildingBlock: ZUJKAS_clean_linker_0, # of connection points: 2
#     Edge 43, Type (0, 1), BuildingBlock: ZUJKAS_clean_linker_0, # of connection points: 2
#     Edge 44, Type (0, 1), BuildingBlock: ZUJKAS_clean_linker_0, # of connection points: 2
#     Edge 45, Type (0, 1), BuildingBlock: ZUJKAS_clean_linker_0, # of connection points: 2
#     Edge 46, Type (0, 1), BuildingBlock: ZUJKAS_clean_linker_0, # of connection points: 2
#     Edge 47, Type (0, 1), BuildingBlock: ZUJKAS_clean_linker_0, # of connection points: 2
#     Edge 48, Type (0, 1), BuildingBlock: ZUJKAS_clean_linker_0, # of connection points: 2
#     Edge 49, Type (0, 1), BuildingBlock: ZUJKAS_clean_linker_0, # of connection points: 2
#     Edge 50, Type (0, 1), BuildingBlock: ZUJKAS_clean_linker_0, # of connection points: 2
#     Edge 51, Type (0, 1), BuildingBlock: ZUJKAS_clean_linker_0, # of connection points: 2
#     Edge 52, Type (0, 1), BuildingBlock: ZUJKAS_clean_linker_0, # of connection points: 2
#     Edge 53, Type (0, 1), BuildingBlock: ZUJKAS_clean_linker_0, # of connection points: 2
#     Edge 54, Type (0, 1), BuildingBlock: ZUJKAS_clean_linker_0, # of connection points: 2
#     Edge 55, Type (0, 1), BuildingBlock: ZUJKAS_clean_linker_0, # of connection points: 2
#     Edge 56, Type (0, 1), BuildingBlock: ZUJKAS_clean_linker_0, # of connection points: 2
#     Edge 57, Type (0, 1), BuildingBlock: ZUJKAS_clean_linker_0, # of connection points: 2
#     Edge 58, Type (0, 1), BuildingBlock: ZUJKAS_clean_linker_0, # of connection points: 2
#     Edge 59, Type (0, 1), BuildingBlock: ZUJKAS_clean_linker_0, # of connection points: 2
#     Edge 60, Type (0, 1), BuildingBlock: ZUJKAS_clean_linker_0, # of connection points: 2
#     Edge 61, Type (0, 1), BuildingBlock: ZUJKAS_clean_linker_0, # of connection points: 2
#     Edge 62, Type (0, 1), BuildingBlock: ZUJKAS_clean_linker_0, # of connection points: 2
#     Edge 63, Type (0, 1), BuildingBlock: ZUJKAS_clean_linker_0, # of connection points: 2
#     Edge 64, Type (0, 1), BuildingBlock: ZUJKAS_clean_linker_0, # of connection points: 2
#     Edge 65, Type (0, 1), BuildingBlock: ZUJKAS_clean_linker_0, # of connection points: 2
#     Edge 66, Type (0, 1), BuildingBlock: ZUJKAS_clean_linker_0, # of connection points: 2
#     Edge 67, Type (0, 1), BuildingBlock: ZUJKAS_clean_linker_0, # of connection points: 2
#     Edge 68, Type (0, 1), BuildingBlock: ZUJKAS_clean_linker_0, # of connection points: 2
#     Edge 69, Type (0, 1), BuildingBlock: ZUJKAS_clean_linker_0, # of connection points: 2
#     Edge 70, Type (0, 1), BuildingBlock: ZUJKAS_clean_linker_0, # of connection points: 2
#     Edge 71, Type (0, 1), BuildingBlock: ZUJKAS_clean_linker_0, # of connection points: 2
#     Edge 72, Type (0, 1), BuildingBlock: ZUJKAS_clean_linker_0, # of connection points: 2
#     Edge 73, Type (0, 1), BuildingBlock: ZUJKAS_clean_linker_0, # of connection points: 2
#     Edge 74, Type (0, 1), BuildingBlock: ZUJKAS_clean_linker_0, # of connection points: 2
#     Edge 75, Type (0, 1), BuildingBlock: ZUJKAS_clean_linker_0, # of connection points: 2
#     Edge 76, Type (0, 1), BuildingBlock: ZUJKAS_clean_linker_0, # of connection points: 2
#     Edge 77, Type (0, 1), BuildingBlock: ZUJKAS_clean_linker_0, # of connection points: 2
#     Edge 78, Type (0, 1), BuildingBlock: ZUJKAS_clean_linker_0, # of connection points: 2
#     Edge 79, Type (0, 1), BuildingBlock: ZUJKAS_clean_linker_0, # of connection points: 2
#     Edge 80, Type (0, 1), BuildingBlock: ZUJKAS_clean_linker_0, # of connection points: 2
# Relax obj value: 0.035
# Max RMSD: 0.159
# Mean RMSD: 0.097
data_MOF--net-eea--node1-CUKXOW_clean_sbu_0--node2-BETDIP_clean_linker_0--edge1-ZUJKAS_clean_linker_0
_symmetry_space_group_name_H-M    P1
_symmetry_Int_Tables_number       1
_symmetry_cell_setting            triclinic
loop_
_symmetry_equiv_pos_as_xyz
'x, y, z'
_cell_length_a     77.01212
_cell_length_b     73.6634
_cell_length_c     66.655115
_cell_angle_alpha  93.09507
_cell_angle_beta   93.149023
_cell_angle_gamma 119.92607
loop_
_atom_site_label
_atom_site_type_symbol
_atom_site_fract_x
_atom_site_fract_y
_atom_site_fract_z
_atom_type_partial_charge
H0 H 0.2214 0.10798 0.38105 0.0
H1 H 0.2449 0.15099 0.43485 0.0
H2 H 0.24725 0.09396 0.43264 0.0
H3 H 0.25197 0.17469 0.41108 0.0
C4 C 0.23761 0.16687 0.4019 0.0
C5 C 0.22864 0.11217 0.39632 0.0
C6 C 0.2341 0.09877 0.4055 0.0
C7 C 0.23301 0.13133 0.40656 0.0
C8 C 0.24207 0.13661 0.42652 0.0
C9 C 0.24739 0.12328 0.43596 0.0
C10 C 0.24356 0.10452 0.42527 0.0
N11 N 0.22771 0.14477 0.39672 0.0
H12 H 0.90108 0.11658 0.40047 0.0
H13 H 0.8619 0.10588 0.44755 0.0
H14 H 0.91847 0.16333 0.45087 0.0
H15 H 0.85196 0.07269 0.43909 0.0
C16 C 0.85188 0.07125 0.42278 0.0
C17 C 0.8979 0.1219 0.41454 0.0
C18 C 0.91192 0.14171 0.42454 0.0
C19 C 0.88009 0.1085 0.42301 0.0
C20 C 0.87599 0.11546 0.44126 0.0
C21 C 0.88984 0.13509 0.45147 0.0
C22 C 0.90772 0.14816 0.443 0.0
N23 N 0.86664 0.08816 0.41298 0.0
H24 H 0.88826 0.78276 0.40588 0.0
H25 H 0.90773 0.76342 0.45806 0.0
H26 H 0.84678 0.75027 0.44952 0.0
H27 H 0.93751 0.79306 0.45392 0.0
C28 C 0.93782 0.7914 0.43767 0.0
C29 C 0.88495 0.77521 0.41979 0.0
C30 C 0.86547 0.76625 0.42609 0.0
C31 C 0.90038 0.77476 0.43148 0.0
C32 C 0.89613 0.76464 0.44935 0.0
C33 C 0.87675 0.75554 0.45583 0.0
C34 C 0.86155 0.75649 0.44414 0.0
N35 N 0.91992 0.78423 0.42471 0.0
H36 H 0.09834 0.22059 0.60828 0.0
H37 H 0.13502 0.24729 0.55976 0.0
H38 H 0.07765 0.24354 0.5597 0.0
H39 H 0.16008 0.25466 0.58293 0.0
C40 C 0.15411 0.24133 0.59192 0.0
C41 C 0.10063 0.22795 0.59427 0.0
C42 C 0.08565 0.2312 0.58506 0.0
C43 C 0.11865 0.23413 0.58556 0.0
C44 C 0.12144 0.24299 0.56701 0.0
C45 C 0.1067 0.24642 0.55764 0.0
C46 C 0.08894 0.24066 0.56682 0.0
N47 N 0.13347 0.23081 0.59559 0.0
H48 H 0.77709 0.87667 0.63787 0.0
H49 H 0.75755 0.89591 0.5857 0.0
H50 H 0.75606 0.83681 0.58185 0.0
H51 H 0.74835 0.91153 0.61091 0.0
C52 C 0.76235 0.91883 0.62068 0.0
C53 C 0.77122 0.87358 0.62214 0.0
C54 C 0.76694 0.8548 0.611 0.0
C55 C 0.76737 0.8882 0.61331 0.0
C56 C 0.75973 0.88429 0.59292 0.0
C57 C 0.7556 0.86578 0.58148 0.0
C58 C 0.75923 0.85112 0.59063 0.0
N59 N 0.77193 0.90705 0.62497 0.0
H60 H 0.1246 0.89546 0.62696 0.0
H61 H 0.10727 0.85103 0.5747 0.0
H62 H 0.16535 0.90699 0.58127 0.0
H63 H 0.07647 0.84276 0.58098 0.0
C64 C 0.07672 0.84438 0.59729 0.0
C65 C 0.12805 0.89068 0.61276 0.0
C66 C 0.14696 0.90322 0.60569 0.0
C67 C 0.11344 0.87205 0.60154 0.0
C68 C 0.11801 0.86576 0.58319 0.0
C69 C 0.1367 0.87828 0.57576 0.0
C70 C 0.15111 0.8969 0.58718 0.0
N71 N 0.09443 0.85993 0.60918 0.0
H72 H 0.88452 0.43818 0.71425 0.0
H73 H 0.90729 0.47976 0.76902 0.0
H74 H 0.9146 0.42568 0.7633 0.0
H75 H 0.87971 0.48286 0.7599 0.0
C76 C 0.88135 0.48484 0.74395 0.0
C77 C 0.89228 0.44241 0.7293 0.0
C78 C 0.8994 0.42984 0.73736 0.0
C79 C 0.89481 0.46025 0.74069 0.0
C80 C 0.90499 0.46584 0.76019 0.0
C81 C 0.91207 0.45336 0.76849 0.0
C82 C 0.90929 0.43546 0.75693 0.0
N83 N 0.88709 0.47237 0.73218 0.0
H84 H 0.56797 0.44927 0.73186 0.0
H85 H 0.5307 0.43503 0.78097 0.0
H86 H 0.58473 0.49511 0.78291 0.0
H87 H 0.52681 0.40197 0.77172 0.0
C88 C 0.52334 0.40139 0.75558 0.0
C89 C 0.56498 0.45402 0.74633 0.0
C90 C 0.57851 0.47398 0.7563 0.0
C91 C 0.54804 0.43969 0.75538 0.0
C92 C 0.54418 0.44569 0.77424 0.0
C93 C 0.55732 0.46569 0.78423 0.0
C94 C 0.57445 0.47972 0.77517 0.0
N95 N 0.53497 0.4194 0.74522 0.0
H96 H 0.55239 0.11156 0.73711 0.0
H97 H 0.57018 0.08803 0.78708 0.0
H98 H 0.50988 0.07707 0.77918 0.0
H99 H 0.60021 0.11864 0.78473 0.0
C100 C 0.60096 0.11765 0.76851 0.0
C101 C 0.54868 0.10301 0.75043 0.0
C102 C 0.52915 0.09411 0.75657 0.0
C103 C 0.56366 0.10135 0.76162 0.0
C104 C 0.55889 0.09008 0.77878 0.0
C105 C 0.53945 0.0811 0.78514 0.0
C106 C 0.52468 0.08318 0.77392 0.0
N107 N 0.58336 0.11099 0.75523 0.0
H108 H 0.77193 0.56832 0.94589 0.0
H109 H 0.81253 0.60099 0.90185 0.0
H110 H 0.75911 0.60506 0.90588 0.0
H111 H 0.81709 0.57254 0.90281 0.0
C112 C 0.81839 0.57167 0.919 0.0
C113 C 0.77586 0.57839 0.93367 0.0
C114 C 0.7633 0.58608 0.92704 0.0
C115 C 0.79341 0.58338 0.92445 0.0
C116 C 0.79883 0.59679 0.90886 0.0
C117 C 0.78654 0.6047 0.9021 0.0
C118 C 0.76879 0.59923 0.91124 0.0
N119 N 0.80547 0.5749 0.93127 0.0
H120 H 0.45479 0.21755 0.96313 0.0
H121 H 0.42869 0.22997 0.91073 0.0
H122 H 0.42001 0.16814 0.91564 0.0
H123 H 0.4562 0.26264 0.91843 0.0
C124 C 0.45589 0.26461 0.93466 0.0
C125 C 0.44594 0.21212 0.94861 0.0
C126 C 0.43773 0.19109 0.94067 0.0
C127 C 0.44294 0.2263 0.93783 0.0
C128 C 0.43129 0.21921 0.91907 0.0
C129 C 0.42302 0.19826 0.91089 0.0
C130 C 0.42626 0.18431 0.92186 0.0
N131 N 0.45145 0.24746 0.94634 0.0
H132 H 0.79452 0.2405 0.95981 0.0
H133 H 0.77287 0.19574 0.90741 0.0
H134 H 0.83391 0.24706 0.9139 0.0
H135 H 0.74356 0.19509 0.91323 0.0
C136 C 0.74379 0.19445 0.92949 0.0
C137 C 0.79718 0.23496 0.94555 0.0
C138 C 0.81628 0.24569 0.93838 0.0
C139 C 0.78133 0.21724 0.93427 0.0
C140 C 0.78479 0.2099 0.91585 0.0
C141 C 0.80375 0.22049 0.9084 0.0
C142 C 0.81941 0.23834 0.91983 0.0
N143 N 0.76215 0.20692 0.94191 0.0
H144 H 0.55733 0.77556 0.05013 0.0
H145 H 0.57892 0.8187 0.10376 0.0
H146 H 0.58193 0.76205 0.10303 0.0
H147 H 0.58726 0.84233 0.07959 0.0
C148 C 0.57311 0.83453 0.07005 0.0
C149 C 0.56403 0.77979 0.06561 0.0
C150 C 0.56919 0.76644 0.07538 0.0
C151 C 0.56814 0.799 0.0755 0.0
C152 C 0.57666 0.80443 0.09567 0.0
C153 C 0.58163 0.79117 0.10575 0.0
C154 C 0.57798 0.7723 0.09541 0.0
N155 N 0.56317 0.81239 0.0651 0.0
H156 H 0.23634 0.78858 0.06555 0.0
H157 H 0.19829 0.7759 0.11392 0.0
H158 H 0.25325 0.83496 0.11616 0.0
H159 H 0.18914 0.74281 0.10467 0.0
C160 C 0.1886 0.74188 0.08831 0.0
C161 C 0.23337 0.7935 0.07995 0.0
C162 C 0.24681 0.81365 0.08962 0.0
C163 C 0.21606 0.77954 0.08878 0.0
C164 C 0.21201 0.78605 0.10729 0.0
C165 C 0.22537 0.80598 0.11726 0.0
C166 C 0.24266 0.81973 0.10828 0.0
N167 N 0.20288 0.75923 0.07861 0.0
H168 H 0.2259 0.45806 0.08011 0.0
H169 H 0.24201 0.43143 0.12862 0.0
H170 H 0.1831 0.4241 0.12223 0.0
H171 H 0.27306 0.45782 0.12515 0.0
C172 C 0.27329 0.45841 0.10892 0.0
C173 C 0.22199 0.44935 0.09332 0.0
C174 C 0.20264 0.4413 0.09978 0.0
C175 C 0.23643 0.44624 0.1038 0.0
C176 C 0.23125 0.43446 0.12064 0.0
C177 C 0.21209 0.4266 0.12741 0.0
C178 C 0.19789 0.43009 0.11694 0.0
N179 N 0.25586 0.45473 0.09682 0.0
H180 H 0.42376 0.8716 0.26644 0.0
H181 H 0.46085 0.89752 0.21801 0.0
H182 H 0.41051 0.90653 0.22447 0.0
H183 H 0.46665 0.87082 0.2215 0.0
C184 C 0.46797 0.87059 0.23778 0.0
C185 C 0.42702 0.88025 0.25318 0.0
C186 C 0.41523 0.88894 0.24688 0.0
C187 C 0.44316 0.88276 0.24258 0.0
C188 C 0.44781 0.89451 0.22574 0.0
C189 C 0.43613 0.90318 0.21917 0.0
C190 C 0.41986 0.90029 0.22979 0.0
N191 N 0.45498 0.87412 0.24968 0.0
H192 H 0.11718 0.54866 0.29588 0.0
H193 H 0.09163 0.56211 0.24378 0.0
H194 H 0.08291 0.50013 0.24752 0.0
H195 H 0.11931 0.59453 0.25185 0.0
C196 C 0.11899 0.59636 0.26808 0.0
C197 C 0.10843 0.54349 0.28131 0.0
C198 C 0.10031 0.52259 0.273 0.0
C199 C 0.10559 0.55791 0.27078 0.0
C200 C 0.09411 0.55117 0.25193 0.0
C201 C 0.08592 0.53036 0.24337 0.0
C202 C 0.08904 0.51617 0.25407 0.0
N203 N 0.11421 0.579 0.27955 0.0
H204 H 0.45704 0.56479 0.2933 0.0
H205 H 0.43907 0.52513 0.23739 0.0
H206 H 0.49782 0.57995 0.24713 0.0
H207 H 0.4178 0.5007 0.25544 0.0
C208 C 0.41338 0.5087 0.26641 0.0
C209 C 0.4604 0.56121 0.27852 0.0
C210 C 0.47924 0.5745 0.2717 0.0
C211 C 0.44598 0.54298 0.26659 0.0
C212 C 0.4503 0.5385 0.24727 0.0
C213 C 0.46895 0.55182 0.24016 0.0
C214 C 0.48336 0.56966 0.25253 0.0
N215 N 0.42718 0.52983 0.27422 0.0
Tb216 Tb 0.51749 0.02259 0.00912 0.0
C217 C 0.50523 0.97617 0.01597 0.0
Tb218 Tb 0.47241 0.99037 0.01183 0.0
O219 O 0.52465 0.02087 0.04099 0.0
O220 O 0.49633 0.01539 0.03055 0.0
O221 O 0.51868 0.99371 0.00873 0.0
C222 C 0.43693 0.96216 0.0234 0.0
O223 O 0.48728 0.97281 0.02032 0.0
C224 C 0.48265 0.99823 0.97522 0.0
C225 C 0.48441 0.03637 0.00368 0.0
O226 O 0.4444 0.96 0.00707 0.0
O227 O 0.44939 0.98024 0.03318 0.0
O228 O 0.46441 0.99118 0.98004 0.0
O229 O 0.49343 0.998 0.99005 0.0
O230 O 0.47094 0.01904 0.01128 0.0
O231 O 0.50236 0.03958 0.99937 0.0
C232 C 0.55383 0.0507 0.9991 0.0
O233 O 0.54346 0.05463 0.01153 0.0
O234 O 0.54377 0.03098 0.99236 0.0
C235 C 0.50653 0.01482 0.0456 0.0
Tb236 Tb 0.98742 0.50226 0.00457 0.0
C237 C 0.0339 0.53774 0.00716 0.0
Tb238 Tb 0.02135 0.48942 0.00619 0.0
O239 O 0.98086 0.49284 0.0351 0.0
O240 O 0.00955 0.50336 0.02575 0.0
O241 O 0.01477 0.5329 0.0038 0.0
C242 C 0.04893 0.48035 0.01991 0.0
O243 O 0.03951 0.52361 0.01017 0.0
C244 C 0.0067 0.48809 0.96904 0.0
C245 C 0.97487 0.45425 0.00235 0.0
O246 O 0.05042 0.49133 0.00482 0.0
O247 O 0.0318 0.47436 0.02731 0.0
O248 O 0.021 0.48393 0.973 0.0
O249 O 0.00221 0.49242 0.98562 0.0
O250 O 0.99377 0.45932 0.00794 0.0
O251 O 0.96943 0.46829 0.9981 0.0
C252 C 0.96232 0.51549 0.99266 0.0
O253 O 0.97044 0.50791 0.9808 0.0
O254 O 0.96843 0.51576 0.0113 0.0
C255 C 0.99864 0.49543 0.03984 0.0
Tb256 Tb 0.4904 0.50703 0.01169 0.0
C257 C 0.50322 0.47333 0.00388 0.0
Tb258 Tb 0.53549 0.52253 0.0077 0.0
O259 O 0.48226 0.49371 0.98022 0.0
O260 O 0.51072 0.51965 0.98947 0.0
O261 O 0.48957 0.4771 0.01138 0.0
C262 C 0.57079 0.5305 0.99534 0.0
O263 O 0.52101 0.48857 -0.00056 0.0
C264 C 0.52564 0.52336 0.04448 0.0
C265 C 0.52265 0.55636 0.01442 0.0
O266 O 0.5637 0.52214 0.01179 0.0
O267 O 0.55805 0.53448 0.9859 0.0
O268 O 0.54374 0.53532 0.0395 0.0
O269 O 0.51511 0.51015 0.02983 0.0
O270 O 0.53651 0.55255 0.00752 0.0
O271 O 0.50474 0.54118 0.01867 0.0
C272 C 0.45559 0.49846 0.02559 0.0
O273 O 0.46171 0.50653 0.00875 0.0
O274 O 0.46895 0.49503 0.03447 0.0
C275 C 0.5001 0.5063 0.9749 0.0
Tb276 Tb 0.17977 0.35328 0.34019 0.0
C277 C 0.16821 0.30764 0.3491 0.0
Tb278 Tb 0.1349 0.32131 0.34405 0.0
O279 O 0.18749 0.35231 0.37203 0.0
O280 O 0.15902 0.34697 0.36196 0.0
O281 O 0.1815 0.32482 0.34121 0.0
C282 C 0.09964 0.29264 0.35577 0.0
O283 O 0.15027 0.30439 0.35343 0.0
C284 C 0.14523 0.32764 0.30728 0.0
C285 C 0.14654 0.36709 0.33529 0.0
O286 O 0.11171 0.31102 0.36527 0.0
O287 O 0.10737 0.2905 0.33962 0.0
O288 O 0.12727 0.32218 0.31213 0.0
O289 O 0.15567 0.32749 0.32238 0.0
O290 O 0.13297 0.34969 0.34271 0.0
O291 O 0.16461 0.37047 0.33129 0.0
C292 C 0.21523 0.38078 0.32789 0.0
O293 O 0.20814 0.38346 0.34431 0.0
O294 O 0.20235 0.36267 0.31843 0.0
C295 C 0.16954 0.34678 0.37698 0.0
Tb296 Tb 0.65111 0.83061 0.34159 0.0
C297 C 0.69786 0.8644 0.34565 0.0
Tb298 Tb 0.68373 0.81614 0.34217 0.0
O299 O 0.65309 0.83794 0.37463 0.0
O300 O 0.67041 0.82731 0.36191 0.0
O301 O 0.67931 0.86008 0.33944 0.0
C302 C 0.70816 0.80138 0.35165 0.0
O303 O 0.70231 0.84978 0.35041 0.0
C304 C 0.6714 0.82236 0.30708 0.0
C305 C 0.63699 0.78165 0.34069 0.0
O306 O 0.70735 0.80931 0.33495 0.0
O307 O 0.69511 0.80164 0.36301 0.0
O308 O 0.68895 0.8242 0.31097 0.0
O309 O 0.66129 0.81529 0.32179 0.0
O310 O 0.656 0.78584 0.34246 0.0
O311 O 0.63185 0.79637 0.33903 0.0
C312 C 0.62482 0.84087 0.32666 0.0
O313 O 0.62302 0.83097 0.34268 0.0
O314 O 0.64157 0.84523 0.31917 0.0
C315 C 0.66696 0.83308 0.3785 0.0
Tb316 Tb 0.15714 0.83956 0.34607 0.0
C317 C 0.16942 0.80571 0.33841 0.0
Tb318 Tb 0.20164 0.85491 0.34149 0.0
O319 O 0.14898 0.82692 0.31435 0.0
O320 O 0.17718 0.85309 0.3238 0.0
O321 O 0.15639 0.80977 0.34696 0.0
C322 C 0.23645 0.8618 0.32875 0.0
O323 O 0.18679 0.82088 0.33304 0.0
C324 C 0.19203 0.85458 0.37844 0.0
C325 C 0.18902 0.88905 0.34765 0.0
O326 O 0.23016 0.85525 0.34603 0.0
O327 O 0.22324 0.86466 0.31872 0.0
O328 O 0.20958 0.86792 0.37304 0.0
O329 O 0.18158 0.8413 0.36377 0.0
O330 O 0.20324 0.88525 0.34182 0.0
O331 O 0.17079 0.87384 0.3511 0.0
C332 C 0.12286 0.83222 0.36057 0.0
O333 O 0.13962 0.83798 0.37133 0.0
O334 O 0.12535 0.83053 0.34162 0.0
C335 C 0.16663 0.84008 0.30903 0.0
Tb336 Tb 0.84699 0.68632 0.67663 0.0
C337 C 0.83358 0.63831 0.67938 0.0
Tb338 Tb 0.80172 0.6539 0.67751 0.0
O339 O 0.84786 0.70087 0.7067 0.0
O340 O 0.82754 0.66939 0.69829 0.0
O341 O 0.84816 0.65727 0.67571 0.0
C342 C 0.7657 0.62526 0.68729 0.0
O343 O 0.81486 0.63392 0.68175 0.0
C344 C 0.81337 0.66573 0.64196 0.0
C345 C 0.81538 0.70138 0.67463 0.0
O346 O 0.77427 0.6232 0.67175 0.0
O347 O 0.77743 0.64347 0.69732 0.0
O348 O 0.79523 0.65941 0.6467 0.0
O349 O 0.82321 0.66336 0.6562 0.0
O350 O 0.80228 0.68378 0.68208 0.0
O351 O 0.83271 0.70435 0.66872 0.0
C352 C 0.88423 0.71016 0.66639 0.0
O353 O 0.87961 0.70005 0.68244 0.0
O354 O 0.8679 0.70678 0.65615 0.0
C355 C 0.83245 0.68402 0.71183 0.0
Tb356 Tb 0.31629 0.16247 0.67485 0.0
C357 C 0.36305 0.19705 0.67885 0.0
Tb358 Tb 0.34882 0.14795 0.67466 0.0
O359 O 0.31086 0.15447 0.70604 0.0
O360 O 0.3382 0.16223 0.69527 0.0
O361 O 0.3441 0.19299 0.67628 0.0
C362 C 0.37563 0.13713 0.68642 0.0
O363 O 0.36797 0.18213 0.68004 0.0
C364 C 0.33388 0.14776 0.63787 0.0
C365 C 0.30238 0.11428 0.66931 0.0
O366 O 0.3774 0.14908 0.67213 0.0
O367 O 0.35867 0.13119 0.69419 0.0
O368 O 0.34761 0.14267 0.64135 0.0
O369 O 0.32997 0.15229 0.65471 0.0
O370 O 0.32066 0.11844 0.67631 0.0
O371 O 0.2983 0.12915 0.6645 0.0
C372 C 0.29219 0.17744 0.66479 0.0
O373 O 0.28935 0.16468 0.67855 0.0
O374 O 0.30867 0.18189 0.65676 0.0
C375 C 0.32791 0.15513 0.70986 0.0
Tb376 Tb 0.82317 0.17149 0.6805 0.0
C377 C 0.83533 0.13711 0.67572 0.0
Tb378 Tb 0.86767 0.18626 0.67684 0.0
O379 O 0.81539 0.15806 0.64905 0.0
O380 O 0.84359 0.18438 0.65836 0.0
O381 O 0.82197 0.14161 0.68273 0.0
C382 C 0.90249 0.19284 0.66439 0.0
O383 O 0.85319 0.1519 0.6709 0.0
C384 C 0.85752 0.1869 0.71347 0.0
C385 C 0.85531 0.2207 0.68097 0.0
O386 O 0.89817 0.19156 0.68298 0.0
O387 O 0.88728 0.19051 0.65286 0.0
O388 O 0.87518 0.20003 0.70818 0.0
O389 O 0.84724 0.17335 0.69893 0.0
O390 O 0.8693 0.21649 0.6753 0.0
O391 O 0.8371 0.20581 0.68486 0.0
C392 C 0.78881 0.16505 0.69414 0.0
O393 O 0.80536 0.17071 0.70523 0.0
O394 O 0.79155 0.16294 0.67532 0.0
C395 C 0.83314 0.17098 0.64378 0.0
H396 H 0.27352 0.80451 0.07282 0.0
H397 H 0.30563 0.82916 0.06036 0.0
H398 H 0.29474 0.88026 0.07433 0.0
H399 H 0.2625 0.85569 0.0865 0.0
H400 H 0.30923 0.87945 0.03539 0.0
H401 H 0.35565 0.87323 0.09863 0.0
H402 H 0.3367 0.84875 0.08526 0.0
H403 H 0.32931 0.86465 0.09967 0.0
C404 C 0.27785 0.82095 0.07298 0.0
C405 C 0.26556 0.8282 0.08074 0.0
C406 C 0.29626 0.83502 0.06604 0.0
C407 C 0.30263 0.85654 0.06672 0.0
C408 C 0.29012 0.86372 0.07383 0.0
H409 H 0.42102 0.96398 0.05842 0.0
H410 H 0.38821 0.93805 0.06874 0.0
C411 C 0.27178 0.8497 0.08085 0.0
C412 C 0.3225 0.87169 0.06032 0.0
H413 H 0.37305 0.89394 0.07277 0.0
C414 C 0.3232 0.88261 0.0435 0.0
C415 C 0.34064 0.87592 0.07115 0.0
C416 C 0.34067 0.86519 0.08979 0.0
C417 C 0.34164 0.89755 0.03707 0.0
C418 C 0.35978 0.9015 0.04768 0.0
C419 C 0.35908 0.89074 0.06462 0.0
C420 C 0.37966 0.91695 0.04153 0.0
C421 C 0.3416 0.90927 0.0192 0.0
C422 C 0.38578 0.91345 0.02298 0.0
C423 C 0.40449 0.92814 0.01712 0.0
C424 C 0.41735 0.94655 0.02974 0.0
C425 C 0.41132 0.94993 0.0484 0.0
C426 C 0.39264 0.93516 0.05431 0.0
H427 H 0.32667 0.90778 0.01552 0.0
H428 H 0.35312 0.92622 0.0221 0.0
H429 H 0.34533 0.90272 0.00581 0.0
H430 H 0.37609 0.89932 0.01306 0.0
H431 H 0.40886 0.92514 0.00269 0.0
H432 H 0.163 0.41275 0.08901 0.0
H433 H 0.13722 0.41935 0.0739 0.0
H434 H 0.18198 0.48451 0.0713 0.0
H435 H 0.20784 0.4781 0.08673 0.0
H436 H 0.14639 0.47721 0.08963 0.0
H437 H 0.12879 0.43125 0.01505 0.0
H438 H 0.1286 0.41737 0.03648 0.0
H439 H 0.15176 0.43961 0.03091 0.0
C440 C 0.16736 0.42846 0.08513 0.0
C441 C 0.18742 0.44493 0.08907 0.0
C442 C 0.15266 0.43216 0.07636 0.0
C443 C 0.15777 0.45236 0.07135 0.0
C444 C 0.17781 0.46878 0.07498 0.0
H445 H 0.08398 0.49051 0.00396 0.0
H446 H 0.11038 0.48367 0.01675 0.0
C447 C 0.19256 0.46507 0.08367 0.0
C448 C 0.14196 0.45655 0.06333 0.0
H449 H 0.10687 0.44386 0.02351 0.0
C450 C 0.13778 0.47 0.07515 0.0
C451 C 0.13088 0.44717 0.0444 0.0
C452 C 0.13528 0.43317 0.03084 0.0
C453 C 0.12255 0.47411 0.06863 0.0
C454 C 0.11115 0.46434 0.04991 0.0
C455 C 0.11554 0.45114 0.03795 0.0
C456 C 0.09496 0.46811 0.04222 0.0
C457 C 0.11893 0.48907 0.08168 0.0
C458 C 0.07749 0.46139 0.05222 0.0
C459 C 0.06236 0.46524 0.04492 0.0
C460 C 0.06455 0.47583 0.02752 0.0
C461 C 0.08196 0.48235 0.01744 0.0
C462 C 0.09701 0.47843 0.02469 0.0
H463 H 0.13166 0.49862 0.0934 0.0
H464 H 0.1166 0.49985 0.07236 0.0
H465 H 0.10514 0.47992 0.08941 0.0
H466 H 0.07554 0.45315 0.06564 0.0
H467 H 0.04904 0.46004 0.05293 0.0
H468 H 0.59469 0.75081 0.07502 0.0
H469 H 0.58732 0.71602 0.06122 0.0
H470 H 0.5278 0.70153 0.03864 0.0
H471 H 0.53509 0.73641 0.0525 0.0
H472 H 0.5567 0.67864 0.07311 0.0
H473 H 0.54746 0.68185 0.99036 0.0
H474 H 0.55978 0.70519 0.00795 0.0
H475 H 0.5328 0.68954 0.00487 0.0
C476 C 0.58008 0.74028 0.06698 0.0
C477 C 0.5654 0.74627 0.06497 0.0
C478 C 0.57592 0.72045 0.05904 0.0
C479 C 0.55707 0.70624 0.04881 0.0
C480 C 0.54258 0.7124 0.04617 0.0
H481 H 0.50048 0.57079 0.03297 0.0
H482 H 0.50892 0.60726 0.04033 0.0
C483 C 0.54675 0.7323 0.05411 0.0
C484 C 0.55212 0.68445 0.04249 0.0
H485 H 0.53817 0.64834 0.00167 0.0
C486 C 0.55272 0.67205 0.05748 0.0
C487 C 0.54705 0.67595 0.02208 0.0
C488 C 0.54688 0.68884 0.00532 0.0
C489 C 0.54811 0.65127 0.05265 0.0
C490 C 0.5426 0.64261 0.03233 0.0
C491 C 0.54229 0.65505 0.01725 0.0
C492 C 0.53701 0.62055 0.02663 0.0
C493 C 0.54928 0.63871 0.0693 0.0
C494 C 0.54989 0.61599 0.01617 0.0
C495 C 0.54518 0.59512 0.01197 0.0
C496 C 0.52739 0.57847 0.01803 0.0
C497 C 0.5143 0.58317 0.02807 0.0
C498 C 0.51909 0.60401 0.03234 0.0
H499 H 0.55737 0.64884 0.08348 0.0
H500 H 0.53382 0.62694 0.07246 0.0
H501 H 0.55701 0.63006 0.06463 0.0
H502 H 0.5638 0.6286 0.01165 0.0
H503 H 0.55555 0.59207 0.00414 0.0
H504 H 0.81438 0.2795 0.95439 0.0
H505 H 0.84244 0.31345 0.96913 0.0
H506 H 0.88333 0.28998 0.96242 0.0
H507 H 0.85538 0.25614 0.94729 0.0
H508 H 0.87036 0.32615 0.00193 0.0
H509 H 0.90782 0.3411 0.93088 0.0
H510 H 0.8825 0.31983 0.93219 0.0
H511 H 0.90362 0.31732 0.94104 0.0
C512 C 0.82931 0.2815 0.95633 0.0
C513 C 0.83276 0.26529 0.94952 0.0
C514 C 0.84533 0.30091 0.9647 0.0
C515 C 0.86504 0.30439 0.96645 0.0
C516 C 0.86833 0.28782 0.9607 0.0
H517 H 0.97982 0.41985 0.00137 0.0
H518 H 0.95361 0.38276 0.99491 0.0
C519 C 0.85237 0.2685 0.95214 0.0
C520 C 0.88217 0.32562 0.97349 0.0
H521 H 0.92516 0.36628 0.95879 0.0
C522 C 0.88237 0.33491 0.99253 0.0
C523 C 0.89781 0.33705 0.96115 0.0
C524 C 0.89791 0.32844 0.94011 0.0
C525 C 0.89778 0.35534 -0.00046 0.0
C526 C 0.91327 0.36676 0.98714 0.0
C527 C 0.9133 0.35737 0.96829 0.0
C528 C 0.92896 0.38896 0.99281 0.0
C529 C 0.89741 0.36462 0.02014 0.0
C530 C 0.92372 0.40466 0.99374 0.0
C531 C 0.93862 0.42584 0.99725 0.0
C532 C 0.95907 0.43173 -6e-05 0.0
C533 C 0.96423 0.41588 -0.00055 0.0
C534 C 0.94929 0.39469 0.99575 0.0
H535 H 0.88739 0.3523 0.02961 0.0
H536 H 0.91279 0.37353 0.02812 0.0
H537 H 0.89176 0.37572 0.01841 0.0
H538 H 0.90811 0.40056 0.99119 0.0
H539 H 0.93408 0.4376 0.99757 0.0
H540 H 0.73544 0.54707 0.93692 0.0
H541 H 0.70289 0.5366 0.94978 0.0
H542 H 0.7149 0.60038 0.94963 0.0
H543 H 0.74773 0.61112 0.93742 0.0
H544 H 0.69875 0.58183 0.98438 0.0
H545 H 0.65408 0.53021 0.9152 0.0
H546 H 0.67197 0.5241 0.92667 0.0
H547 H 0.6807 0.54878 0.91605 0.0
C548 C 0.73128 0.55893 0.9399 0.0
C549 C 0.74411 0.57991 0.93602 0.0
C550 C 0.71257 0.55286 0.94701 0.0
C551 C 0.70635 0.56764 0.95027 0.0
C552 C 0.71937 0.5887 0.94703 0.0
H553 H 0.58667 0.54743 0.96092 0.0
H554 H 0.61974 0.55611 0.95035 0.0
C555 C 0.73805 0.59478 0.93994 0.0
C556 C 0.6862 0.56122 0.95691 0.0
H557 H 0.63588 0.53032 0.94266 0.0
C558 C 0.68499 0.57054 0.9753 0.0
C559 C 0.66831 0.54671 0.94486 0.0
C560 C 0.66872 0.53698 0.92451 0.0
C561 C 0.66633 0.56566 0.98204 0.0
C562 C 0.64843 0.5508 0.9702 0.0
C563 C 0.64964 0.54157 0.95176 0.0
C564 C 0.62829 0.54506 0.97645 0.0
C565 C 0.66595 0.57684 0.00152 0.0
C566 C 0.62204 0.53563 0.99443 0.0
C567 C 0.60323 0.53075 0.00051 0.0
C568 C 0.59035 0.5351 0.98864 0.0
C569 C 0.59641 0.54407 0.97041 0.0
C570 C 0.61523 0.54897 0.96435 0.0
H571 H 0.68063 0.59136 0.00606 0.0
H572 H 0.65403 0.58113 0.00019 0.0
H573 H 0.66268 0.56624 0.01374 0.0
H574 H 0.63171 0.53206 0.00376 0.0
H575 H 0.59882 0.52367 0.01455 0.0
H576 H 0.41068 0.15093 0.94798 0.0
H577 H 0.4178 0.1252 0.96239 0.0
H578 H 0.48101 0.17176 0.97112 0.0
H579 H 0.47389 0.19764 0.95708 0.0
H580 H 0.44015 0.11057 0.94687 0.0
H581 H 0.47297 0.14704 0.02452 0.0
H582 H 0.4596 0.15603 0.00862 0.0
H583 H 0.48554 0.16433 0.00566 0.0
C584 C 0.42605 0.15573 0.95325 0.0
C585 C 0.44174 0.17627 0.95144 0.0
C586 C 0.4301 0.14105 0.9615 0.0
C587 C 0.44991 0.14659 0.96806 0.0
C588 C 0.46555 0.16725 0.96667 0.0
H589 H 0.50917 0.07598 0.99288 0.0
H590 H 0.50021 0.10253 0.98515 0.0
C591 C 0.46148 0.18201 0.95858 0.0
C592 C 0.45435 0.13029 0.97469 0.0
H593 H 0.47782 0.11872 0.01271 0.0
C594 C 0.44819 0.11227 0.96137 0.0
C595 C 0.46488 0.13252 0.9936 0.0
C596 C 0.47095 0.15093 0.009 0.0
C597 C 0.45264 0.09666 0.96625 0.0
C598 C 0.4635 0.09913 0.98493 0.0
C599 C 0.46955 0.117 0.99836 0.0
C600 C 0.46896 0.08336 0.99052 0.0
C601 C 0.4461 0.0778 0.95128 0.0
C602 C 0.45434 0.06391 0.99626 0.0
C603 C 0.45938 0.0487 0.00078 0.0
C604 C 0.47914 0.05268 -0.00049 0.0
C605 C 0.49379 0.07234 0.99394 0.0
C606 C 0.48875 0.08757 0.98958 0.0
H607 H 0.43987 0.07943 0.93649 0.0
H608 H 0.45901 0.07542 0.94884 0.0
H609 H 0.43436 0.0635 0.95741 0.0
H610 H 0.43899 0.06045 0.9971 0.0
H611 H 0.44773 0.03375 0.00499 0.0
H612 H 0.73737 0.18825 0.96942 0.0
H613 H 0.70541 0.16495 0.98293 0.0
H614 H 0.67536 0.14672 0.92264 0.0
H615 H 0.70719 0.17016 0.90907 0.0
H616 H 0.65459 0.15619 0.95075 0.0
H617 H 0.67715 0.10029 0.97812 0.0
H618 H 0.6937 0.1274 0.9873 0.0
H619 H 0.69117 0.11936 0.96087 0.0
C620 C 0.72394 0.1793 0.95906 0.0
C621 C 0.72471 0.18092 0.93817 0.0
C622 C 0.70574 0.16593 0.96679 0.0
C623 C 0.6881 0.15392 0.95375 0.0
C624 C 0.68882 0.15581 0.93294 0.0
H625 H 0.57578 0.04403 0.9722 0.0
H626 H 0.60853 0.06986 0.96187 0.0
C627 C 0.70698 0.16915 0.92522 0.0
C628 C 0.66881 0.13934 0.96166 0.0
H629 H 0.64519 0.09446 0.98553 0.0
C630 C 0.65252 0.14272 0.95842 0.0
C631 C 0.66614 0.12167 0.97144 0.0
C632 C 0.68288 0.11677 0.97453 0.0
C633 C 0.63359 0.12888 0.96469 0.0
C634 C 0.631 0.11137 0.97472 0.0
C635 C 0.64729 0.108 0.97797 0.0
C636 C 0.61129 0.09588 0.98124 0.0
C637 C 0.61638 0.13276 0.96003 0.0
C638 C 0.60211 0.10193 0.9957 0.0
C639 C 0.58338 0.08721 0.00158 0.0
C640 C 0.57366 0.06622 0.99317 0.0
C641 C 0.58298 0.06013 0.9789 0.0
C642 C 0.60166 0.07484 0.97301 0.0
H643 H 0.61963 0.14388 0.94827 0.0
H644 H 0.60232 0.11781 0.95483 0.0
H645 H 0.61373 0.13967 0.97392 0.0
H646 H 0.60945 0.11801 0.00249 0.0
H647 H 0.57653 0.09226 0.01269 0.0
H648 H 0.82739 0.56881 0.95883 0.0
H649 H 0.85242 0.56025 0.97237 0.0
H650 H 0.86699 0.55288 0.912 0.0
H651 H 0.84228 0.56181 0.89844 0.0
H652 H 0.85482 0.52428 0.96487 0.0
H653 H 0.92198 0.59368 0.94125 0.0
H654 H 0.89776 0.59195 0.94119 0.0
H655 H 0.90294 0.57882 0.92083 0.0
C656 C 0.83596 0.56541 0.94846 0.0
C657 C 0.83301 0.56606 0.92758 0.0
C658 C 0.85024 0.56052 0.95621 0.0
C659 C 0.86181 0.55631 0.94322 0.0
C660 C 0.85858 0.55658 0.92234 0.0
H661 H 0.94959 0.51634 0.95404 0.0
H662 H 0.925 0.52642 0.94278 0.0
C663 C 0.84438 0.56153 0.9146 0.0
C664 C 0.877 0.55121 0.95141 0.0
H665 H 0.9268 0.56623 0.9526 0.0
C666 C 0.87059 0.53355 0.96235 0.0
C667 C 0.89757 0.56336 0.94811 0.0
C668 C 0.90554 0.58313 0.93738 0.0
C669 C 0.88413 0.52736 0.96961 0.0
C670 C 0.9046 0.5393 0.96599 0.0
C671 C 0.91106 0.55708 0.95525 0.0
C672 C 0.91953 0.53339 0.97295 0.0
C673 C 0.87637 0.50778 0.9806 0.0
C674 C 0.92475 0.53427 0.99363 0.0
C675 C 0.93884 0.52862 9e-05 0.0
C676 C 0.94789 0.52202 0.98594 0.0
C677 C 0.9428 0.52136 0.96525 0.0
C678 C 0.92879 0.5271 0.95881 0.0
H679 H 0.85968 0.49806 0.97856 0.0
H680 H 0.88279 0.49802 0.97529 0.0
H681 H 0.88105 0.51236 0.99698 0.0
H682 H 0.91797 0.53939 0.00475 0.0
H683 H 0.94256 0.5293 0.01612 0.0
H684 H 0.45698 0.27677 0.97479 0.0
H685 H 0.46385 0.31129 0.98933 0.0
H686 H 0.47233 0.33378 0.93022 0.0
H687 H 0.46529 0.29932 0.9156 0.0
H688 H 0.49816 0.35117 0.98847 0.0
H689 H 0.4306 0.34768 0.95043 0.0
H690 H 0.43321 0.32474 0.95186 0.0
H691 H 0.44531 0.34279 0.93329 0.0
C692 C 0.4603 0.28907 0.96491 0.0
C693 C 0.46053 0.28539 0.94404 0.0
C694 C 0.46422 0.30877 0.97324 0.0
C695 C 0.46825 0.32496 0.9608 0.0
C696 C 0.46883 0.32137 0.94002 0.0
H697 H 0.52605 0.45899 0.98649 0.0
H698 H 0.51719 0.42257 0.97807 0.0
C699 C 0.46493 0.30174 0.93172 0.0
C700 C 0.47221 0.34579 0.96945 0.0
H701 H 0.45639 0.38138 0.96547 0.0
C702 C 0.48894 0.35772 0.98361 0.0
C703 C 0.45996 0.35416 0.96332 0.0
C704 C 0.44114 0.34161 0.94904 0.0
C705 C 0.4942 0.37816 0.99121 0.0
C706 C 0.48258 0.38696 0.98422 0.0
C707 C 0.46541 0.3747 0.97066 0.0
C708 C 0.48828 0.40905 0.99025 0.0
C709 C 0.51213 0.39013 0.00666 0.0
C710 C 0.47479 0.41359 -0.00046 0.0
C711 C 0.47973 0.43446 0.00426 0.0
C712 C 0.49823 0.45119 -0.00034 0.0
C713 C 0.51173 0.44654 0.9904 0.0
C714 C 0.50676 0.42569 0.98568 0.0
H715 H 0.5156 0.37934 0.01472 0.0
H716 H 0.5255 0.40061 0.99892 0.0
H717 H 0.50956 0.4 0.01793 0.0
H718 H 0.46037 0.40097 0.00305 0.0
H719 H 0.46895 0.43743 0.01133 0.0
H720 H 0.15867 0.70848 0.10343 0.0
H721 H 0.13318 0.67501 0.08538 0.0
H722 H 0.15846 0.69665 0.02938 0.0
H723 H 0.18382 0.73051 0.04737 0.0
H724 H 0.11668 0.67592 0.02561 0.0
H725 H 0.14386 0.62904 0.06456 0.0
H726 H 0.13846 0.64461 0.08195 0.0
H727 H 0.15836 0.65737 0.06581 0.0
C728 C 0.15879 0.70609 0.08726 0.0
C729 C 0.17329 0.72197 0.07683 0.0
C730 C 0.14429 0.68695 0.07699 0.0
C731 C 0.14418 0.68319 0.05611 0.0
C732 C 0.15839 0.6992 0.04552 0.0
H733 H 0.0737 0.55392 0.00256 0.0
H734 H 0.10086 0.59018 0.01083 0.0
C735 C 0.17287 0.71849 0.05582 0.0
C736 C 0.12922 0.66245 0.04553 0.0
H737 H 0.11095 0.60985 0.04703 0.0
C738 C 0.11553 0.66145 0.03009 0.0
C739 C 0.12798 0.64363 0.05115 0.0
C740 C 0.14309 0.64368 0.06663 0.0
C741 C 0.10011 0.64203 0.02066 0.0
C742 C 0.09814 0.62317 0.02719 0.0
C743 C 0.11231 0.62427 0.04212 0.0
C744 C 0.08133 0.60202 0.01925 0.0
C745 C 0.08621 0.64195 0.00377 0.0
C746 C 0.06122 0.59665 0.02078 0.0
C747 C 0.04559 0.57592 0.01578 0.0
C748 C 0.04987 0.56013 0.00959 0.0
C749 C 0.06993 0.5657 0.00743 0.0
C750 C 0.08548 0.58643 0.01213 0.0
H751 H 0.09352 0.65676 0.99627 0.0
H752 H 0.08135 0.62846 0.99224 0.0
H753 H 0.07263 0.64066 0.01006 0.0
H754 H 0.05765 0.60824 0.02672 0.0
H755 H 0.0303 0.57207 0.01778 0.0
H756 H 0.28148 0.46449 0.06939 0.0
H757 H 0.31266 0.47164 0.05496 0.0
H758 H 0.33841 0.47029 0.11357 0.0
H759 H 0.30732 0.4632 0.12814 0.0
H760 H 0.35429 0.50678 0.06886 0.0
H761 H 0.34325 0.42661 0.07403 0.0
H762 H 0.32274 0.4319 0.0744 0.0
H763 H 0.34006 0.43895 0.09645 0.0
C764 C 0.29379 0.46574 0.0792 0.0
C765 C 0.29202 0.46322 0.09988 0.0
C766 C 0.31155 0.46984 0.07094 0.0
C767 C 0.32766 0.47125 0.0832 0.0
C768 C 0.32601 0.469 0.10387 0.0
H769 H 0.44433 0.48728 0.06297 0.0
H770 H 0.41338 0.48147 0.07694 0.0
C771 C 0.30832 0.46503 0.11215 0.0
C772 C 0.34628 0.47516 0.07442 0.0
H773 H 0.37436 0.45241 0.0639 0.0
C774 C 0.35869 0.49491 0.06766 0.0
C775 C 0.35191 0.45962 0.07304 0.0
C776 C 0.33877 0.438 0.07971 0.0
C777 C 0.37691 0.49972 0.05986 0.0
C778 C 0.38252 0.48412 0.05835 0.0
C779 C 0.37002 0.46433 0.06508 0.0
C780 C 0.40133 0.48798 0.04991 0.0
C781 C 0.39022 0.5216 0.05383 0.0
C782 C 0.4047 0.49335 0.03003 0.0
C783 C 0.42241 0.4968 0.02209 0.0
C784 C 0.43684 0.49462 0.03382 0.0
C785 C 0.43336 0.48898 0.05361 0.0
C786 C 0.41573 0.48569 0.06159 0.0
H787 H 0.38663 0.53311 0.06112 0.0
H788 H 0.40636 0.52705 0.05788 0.0
H789 H 0.38784 0.52151 0.03724 0.0
H790 H 0.39357 0.4947 0.0206 0.0
H791 H 0.42474 0.50104 0.00675 0.0
H792 H 0.58885 0.87628 0.07858 0.0
H793 H 0.57498 0.89815 0.06798 0.0
H794 H 0.52452 0.84384 0.03475 0.0
H795 H 0.5384 0.82183 0.04525 0.0
H796 H 0.54274 0.88103 0.01342 0.0
H797 H 0.52495 0.89657 0.08977 0.0
H798 H 0.55037 0.90209 0.08874 0.0
H799 H 0.52987 0.87551 0.08343 0.0
C800 C 0.57481 0.86902 0.06898 0.0
C801 C 0.56466 0.84739 0.06281 0.0
C802 C 0.56687 0.88149 0.06304 0.0
C803 C 0.54859 0.87253 0.05085 0.0
C804 C 0.53859 0.85099 0.04427 0.0
H805 H 0.48254 0.93886 0.03212 0.0
H806 H 0.4917 0.91235 0.03917 0.0
C807 C 0.54653 0.83846 0.05028 0.0
C808 C 0.54008 0.88581 0.045 0.0
H809 H 0.52381 0.91784 0.06465 0.0
C810 C 0.53843 0.88896 0.02457 0.0
C811 C 0.53423 0.89588 0.05956 0.0
C812 C 0.53474 0.89223 0.08159 0.0
C813 C 0.53173 0.90254 0.01839 0.0
C814 C 0.5268 0.9134 0.03309 0.0
C815 C 0.52779 0.90966 0.05343 0.0
C816 C 0.52093 0.92902 0.02781 0.0
C817 C 0.52992 0.90511 0.99621 0.0
C818 C 0.5344 0.94727 0.0192 0.0
C819 C 0.52923 0.96248 0.01514 0.0
C820 C 0.51052 0.95979 0.01971 0.0
C821 C 0.49705 0.94144 0.02832 0.0
C822 C 0.50225 0.92625 0.03238 0.0
H823 H 0.52879 0.89163 0.98669 0.0
H824 H 0.51655 0.90659 0.99206 0.0
H825 H 0.54352 0.91962 0.99269 0.0
H826 H 0.54908 0.94993 0.01597 0.0
H827 H 0.54002 0.97644 0.00861 0.0
H828 H 0.91785 0.1521 0.38568 0.0
H829 H 0.94972 0.17643 0.37244 0.0
H830 H 0.98117 0.18708 0.43128 0.0
H831 H 0.94953 0.16272 0.44453 0.0
H832 H 0.97621 0.2203 0.38796 0.0
H833 H 0.01366 0.17258 0.39179 0.0
H834 H 0.98675 0.16121 0.39188 0.0
H835 H 0.00306 0.17506 0.41443 0.0
C836 C 0.93162 0.15944 0.3957 0.0
C837 C 0.93121 0.15556 0.41614 0.0
C838 C 0.94975 0.17337 0.38816 0.0
C839 C 0.96778 0.18338 0.40086 0.0
C840 C 0.96745 0.17932 0.42119 0.0
H841 H 0.08205 0.29541 0.38931 0.0
H842 H 0.04968 0.26872 0.39985 0.0
C843 C 0.94935 0.16554 0.42876 0.0
C844 C 0.98687 0.19878 0.39318 0.0
H845 H 0.03406 0.20834 0.38546 0.0
C846 C 0.98883 0.21766 0.38729 0.0
C847 C 0.00322 0.19519 0.39224 0.0
C848 C 0.00162 0.17485 0.39775 0.0
C849 C 0.00695 0.23332 0.38088 0.0
C850 C 0.0235 0.23 0.38052 0.0
C851 C 0.02138 0.2109 0.38596 0.0
C852 C 0.0431 0.2461 0.37432 0.0
C853 C 0.00824 0.25324 0.37444 0.0
C854 C 0.05025 0.24202 0.35672 0.0
C855 C 0.06867 0.2572 0.3507 0.0
C856 C 0.08029 0.27665 0.36226 0.0
C857 C 0.07328 0.2806 0.38005 0.0
C858 C 0.0548 0.26542 0.38604 0.0
H859 H 0.99311 0.25149 0.37148 0.0
H860 H 0.01684 0.26616 0.38661 0.0
H861 H 0.01625 0.25791 0.36061 0.0
H862 H 0.04147 0.22715 0.34755 0.0
H863 H 0.07379 0.25374 0.33697 0.0
H864 H 0.86863 0.80056 0.40893 0.0
H865 H 0.8413 0.80454 0.39346 0.0
H866 H 0.79859 0.74027 0.40262 0.0
H867 H 0.8259 0.73593 0.4175 0.0
H868 H 0.79148 0.75245 0.36504 0.0
H869 H 0.80154 0.80938 0.42906 0.0
H870 H 0.82381 0.8165 0.4165 0.0
H871 H 0.81314 0.79333 0.42989 0.0
C872 C 0.85349 0.78714 0.40726 0.0
C873 C 0.84938 0.76799 0.41463 0.0
C874 C 0.83788 0.78951 0.39861 0.0
C875 C 0.81792 0.77283 0.3973 0.0
C876 C 0.81389 0.75338 0.40367 0.0
H877 H 0.71186 0.78558 0.38658 0.0
H878 H 0.73752 0.77667 0.39694 0.0
C879 C 0.82948 0.75098 0.41228 0.0
C880 C 0.80112 0.77592 0.39026 0.0
H881 H 0.77812 0.80403 0.40165 0.0
C882 C 0.78851 0.76371 0.37301 0.0
C883 C 0.79711 0.79033 0.40096 0.0
C884 C 0.80947 0.80301 0.42024 0.0
C885 C 0.77215 0.76581 0.36594 0.0
C886 C 0.76855 0.78073 0.37628 0.0
C887 C 0.78099 0.79269 0.3937 0.0
C888 C 0.7521 0.78442 0.36927 0.0
C889 C 0.75868 0.75182 0.34769 0.0
C890 C 0.75179 0.79167 0.35029 0.0
C891 C 0.73712 0.79667 0.34434 0.0
C892 C 0.72267 0.79468 0.35737 0.0
C893 C 0.72282 0.78718 0.37625 0.0
C894 C 0.73745 0.78212 0.38217 0.0
H895 H 0.75998 0.73754 0.34507 0.0
H896 H 0.74269 0.74686 0.34935 0.0
H897 H 0.76315 0.76063 0.33414 0.0
H898 H 0.76322 0.79401 0.3403 0.0
H899 H 0.73739 0.80255 0.32975 0.0
H900 H 0.19861 0.06861 0.38496 0.0
H901 H 0.19019 0.03332 0.37102 0.0
H902 H 0.25077 0.04773 0.38855 0.0
H903 H 0.25931 0.08298 0.40246 0.0
H904 H 0.22982 0.02437 0.34588 0.0
H905 H 0.18908 0.98984 0.41291 0.0
H906 H 0.18399 0.00804 0.40048 0.0
H907 H 0.20824 0.01724 0.41367 0.0
C908 C 0.21022 0.06437 0.38548 0.0
C909 C 0.22957 0.07845 0.39491 0.0
C910 C 0.20537 0.04423 0.3776 0.0
C911 C 0.21985 0.03799 0.37891 0.0
C912 C 0.23942 0.05232 0.38745 0.0
H913 H 0.22575 0.92522 0.3499 0.0
H914 H 0.23287 0.96143 0.35595 0.0
C915 C 0.24423 0.07236 0.39546 0.0
C916 C 0.21431 0.01605 0.37273 0.0
H917 H 0.19055 0.96672 0.38836 0.0
C918 C 0.22115 0.01168 0.35505 0.0
C919 C 0.20301 0.99967 0.38478 0.0
C920 C 0.19567 0.00377 0.4041 0.0
C921 C 0.21685 0.99117 0.34902 0.0
C922 C 0.20591 0.9748 0.36134 0.0
C923 C 0.19893 0.97925 0.37892 0.0
C924 C 0.20164 0.95296 0.35654 0.0
C925 C 0.22378 0.98719 0.32938 0.0
C926 C 0.18178 0.93609 0.3553 0.0
C927 C 0.1777 0.91538 0.3522 0.0
C928 C 0.19341 0.91108 0.3502 0.0
C929 C 0.21329 0.92799 0.35119 0.0
C930 C 0.21738 0.94873 0.3545 0.0
H931 H 0.22621 0.99941 0.31903 0.0
H932 H 0.23832 0.98769 0.33249 0.0
H933 H 0.21271 0.97152 0.32161 0.0
H934 H 0.1694 0.93896 0.35692 0.0
H935 H 0.1622 0.90275 0.35146 0.0
H936 H 0.51882 0.58709 0.28027 0.0
H937 H 0.54533 0.6208 0.2971 0.0
H938 H 0.50129 0.63936 0.30736 0.0
H939 H 0.47464 0.60542 0.29082 0.0
H940 H 0.55553 0.65809 0.28328 0.0
H941 H 0.53451 0.65846 0.36146 0.0
H942 H 0.52362 0.63477 0.34442 0.0
H943 H 0.51457 0.65295 0.34257 0.0
C944 C 0.51477 0.59825 0.28642 0.0
C945 C 0.49471 0.59372 0.2842 0.0
C946 C 0.5299 0.61746 0.29606 0.0
C947 C 0.5253 0.63256 0.30365 0.0
C948 C 0.50516 0.62779 0.30205 0.0
H949 H 0.59627 0.7662 0.33775 0.0
H950 H 0.56947 0.72955 0.33049 0.0
C951 C 0.48995 0.60844 0.29254 0.0
C952 C 0.54183 0.65396 0.31126 0.0
H953 H 0.55976 0.6914 0.35145 0.0
C954 C 0.55656 0.66526 0.29827 0.0
C955 C 0.54309 0.66337 0.33077 0.0
C956 C 0.52821 0.6517 0.34569 0.0
C957 C 0.57229 0.6858 0.3041 0.0
C958 C 0.57346 0.69526 0.32352 0.0
C959 C 0.5588 0.68403 0.33658 0.0
C960 C 0.58958 0.71706 0.33016 0.0
C961 C 0.58727 0.69747 0.28923 0.0
C962 C 0.60973 0.72205 0.3329 0.0
C963 C 0.62513 0.74299 0.33705 0.0
C964 C 0.62064 0.75932 0.33849 0.0
C965 C 0.60033 0.75409 0.3366 0.0
C966 C 0.58495 0.73314 0.33252 0.0
H967 H 0.58203 0.68953 0.27367 0.0
H968 H 0.59017 0.71381 0.28907 0.0
H969 H 0.60175 0.69832 0.29385 0.0
H970 H 0.61356 0.70979 0.33133 0.0
H971 H 0.64056 0.74637 0.33852 0.0
H972 H 0.40452 0.91822 0.25691 0.0
H973 H 0.37456 0.91277 0.27263 0.0
H974 H 0.35689 0.84778 0.27762 0.0
H975 H 0.38658 0.85295 0.26131 0.0
H976 H 0.32614 0.85322 0.26078 0.0
H977 H 0.36259 0.90544 0.33157 0.0
H978 H 0.37212 0.91818 0.30922 0.0
H979 H 0.3758 0.89684 0.31557 0.0
C980 C 0.39427 0.90277 0.26138 0.0
C981 C 0.39787 0.88599 0.25783 0.0
C982 C 0.37728 0.89974 0.27055 0.0
C983 C 0.36367 0.87995 0.27651 0.0
C984 C 0.36732 0.86322 0.27324 0.0
H985 H 0.26446 0.8552 0.34826 0.0
H986 H 0.29513 0.85876 0.3355 0.0
C987 C 0.38434 0.86623 0.26406 0.0
C988 C 0.34506 0.87648 0.28511 0.0
H989 H 0.3278 0.8937 0.32353 0.0
C990 C 0.32646 0.86193 0.27459 0.0
C991 C 0.34557 0.88774 0.30321 0.0
C992 C 0.36508 0.90278 0.31567 0.0
C993 C 0.30832 0.85871 0.28142 0.0
C994 C 0.30887 0.87062 0.29907 0.0
C995 C 0.32745 0.88477 0.30987 0.0
C996 C 0.29033 0.86853 0.30667 0.0
C997 C 0.28873 0.84244 0.2698 0.0
C998 C 0.27765 0.87314 0.29477 0.0
C999 C 0.26013 0.87107 0.30201 0.0
C1000 C 0.25516 0.86455 0.32131 0.0
C1001 C 0.26799 0.86026 0.33332 0.0
C1002 C 0.28548 0.86228 0.32606 0.0
H1003 H 0.29064 0.83089 0.26017 0.0
H1004 H 0.27707 0.8338 0.28015 0.0
H1005 H 0.28319 0.85041 0.2598 0.0
H1006 H 0.28135 0.8784 0.27992 0.0
H1007 H 0.25048 0.87454 0.29251 0.0
H1008 H 0.07341 0.482 0.27938 0.0
H1009 H 0.08083 0.45609 0.29304 0.0
H1010 H 0.14372 0.50324 0.30324 0.0
H1011 H 0.13644 0.52924 0.28959 0.0
H1012 H 0.13116 0.46215 0.27787 0.0
H1013 H 0.10126 0.45276 0.35315 0.0
H1014 H 0.08611 0.45352 0.33198 0.0
H1015 H 0.10958 0.47662 0.34077 0.0
C1016 C 0.08878 0.48688 0.28477 0.0
C1017 C 0.10437 0.50761 0.28341 0.0
C1018 C 0.09296 0.47213 0.29266 0.0
C1019 C 0.11279 0.47784 0.29923 0.0
C1020 C 0.12831 0.49863 0.29837 0.0
H1021 H 0.17218 0.40758 0.32768 0.0
H1022 H 0.16382 0.43438 0.31961 0.0
C1023 C 0.12412 0.51345 0.29066 0.0
C1024 C 0.11754 0.46169 0.3053 0.0
H1025 H 0.11291 0.42993 0.34252 0.0
C1026 C 0.12728 0.45515 0.29204 0.0
C1027 C 0.11215 0.45245 0.32364 0.0
C1028 C 0.10178 0.45918 0.33834 0.0
C1029 C 0.13165 0.43939 0.29654 0.0
C1030 C 0.12668 0.43041 0.31512 0.0
C1031 C 0.11679 0.43689 0.32834 0.0
C1032 C 0.13178 0.41439 0.32111 0.0
C1033 C 0.14108 0.43217 0.28109 0.0
C1034 C 0.11665 0.39449 0.32549 0.0
C1035 C 0.12142 0.37916 0.33042 0.0
C1036 C 0.14142 0.38348 0.33101 0.0
C1037 C 0.15658 0.40361 0.32709 0.0
C1038 C 0.15182 0.41895 0.32237 0.0
H1039 H 0.13828 0.43581 0.2657 0.0
H1040 H 0.15761 0.44049 0.28497 0.0
H1041 H 0.13521 0.41498 0.2808 0.0
H1042 H 0.10109 0.39069 0.32474 0.0
H1043 H 0.10939 0.36383 0.33339 0.0
H1044 H 0.39684 0.52113 0.29601 0.0
H1045 H 0.36325 0.50035 0.30752 0.0
H1046 H 0.35061 0.4488 0.26396 0.0
H1047 H 0.38425 0.46929 0.25272 0.0
H1048 H 0.3257 0.48302 0.2866 0.0
H1049 H 0.33699 0.42026 0.31577 0.0
H1050 H 0.3576 0.44481 0.30947 0.0
H1051 H 0.34233 0.424 0.28997 0.0
C1052 C 0.38692 0.50533 0.28897 0.0
C1053 C 0.39317 0.49671 0.27357 0.0
C1054 C 0.36774 0.4935 0.29553 0.0
C1055 C 0.35457 0.47289 0.28686 0.0
C1056 C 0.3607 0.46446 0.27122 0.0
H1057 H 0.23204 0.37522 0.295 0.0
H1058 H 0.26584 0.39872 0.28521 0.0
C1059 C 0.37986 0.47622 0.26474 0.0
C1060 C 0.33427 0.46024 0.29382 0.0
H1061 H 0.30315 0.41327 0.31193 0.0
C1062 C 0.32082 0.46786 0.29233 0.0
C1063 C 0.32795 0.44049 0.30135 0.0
C1064 C 0.34203 0.43198 0.30444 0.0
C1065 C 0.30101 0.45594 0.29757 0.0
C1066 C 0.29461 0.436 0.30459 0.0
C1067 C 0.30812 0.42852 0.30638 0.0
C1068 C 0.27386 0.42249 0.31002 0.0
C1069 C 0.28689 0.46445 0.2951 0.0
C1070 C 0.26725 0.42814 0.3272 0.0
C1071 C 0.24801 0.41471 0.33288 0.0
C1072 C 0.23514 0.39545 0.32145 0.0
C1073 C 0.24169 0.38998 0.30408 0.0
C1074 C 0.26095 0.40335 0.29848 0.0
H1075 H 0.29306 0.47837 0.28626 0.0
H1076 H 0.27211 0.45213 0.28748 0.0
H1077 H 0.28428 0.46921 0.3102 0.0
H1078 H 0.27711 0.44274 0.33643 0.0
H1079 H 0.24331 0.41925 0.34636 0.0
H1080 H 0.49684 0.86767 0.21907 0.0
H1081 H 0.5238 0.86276 0.2342 0.0
H1082 H 0.50157 0.86062 0.29251 0.0
H1083 H 0.47465 0.86563 0.27754 0.0
H1084 H 0.55347 0.89025 0.26918 0.0
H1085 H 0.50628 0.8059 0.2823 0.0
H1086 H 0.49844 0.81818 0.26392 0.0
H1087 H 0.49735 0.82328 0.29031 0.0
C1088 C 0.49768 0.86605 0.2351 0.0
C1089 C 0.48369 0.86699 0.24712 0.0
C1090 C 0.51306 0.86331 0.24369 0.0
C1091 C 0.51452 0.8612 0.26439 0.0
C1092 C 0.50052 0.86203 0.27645 0.0
H1093 H 0.59208 0.83727 0.34353 0.0
H1094 H 0.56599 0.84334 0.3283 0.0
C1095 C 0.4852 0.86493 0.26789 0.0
C1096 C 0.53095 0.85854 0.27345 0.0
H1097 H 0.54049 0.82305 0.29491 0.0
C1098 C 0.55071 0.87558 0.27478 0.0
C1099 C 0.52717 0.83938 0.28074 0.0
C1100 C 0.5062 0.82053 0.27919 0.0
C1101 C 0.56686 0.87408 0.28362 0.0
C1102 C 0.56313 0.85484 0.29082 0.0
C1103 C 0.54332 0.83778 0.28938 0.0
C1104 C 0.57946 0.85206 0.30015 0.0
C1105 C 0.58765 0.89328 0.28566 0.0
C1106 C 0.59566 0.85489 0.28935 0.0
C1107 C 0.6107 0.85168 0.29813 0.0
C1108 C 0.60957 0.84526 0.31771 0.0
C1109 C 0.59331 0.8423 0.32844 0.0
C1110 C 0.5784 0.84571 0.31975 0.0
H1111 H 0.58705 0.90797 0.28475 0.0
H1112 H 0.59611 0.89449 0.30019 0.0
H1113 H 0.59611 0.89212 0.27318 0.0
H1114 H 0.5965 0.85923 0.27402 0.0
H1115 H 0.62297 0.85377 0.28946 0.0
H1116 H 0.12065 0.6084 0.30838 0.0
H1117 H 0.1282 0.64307 0.32328 0.0
H1118 H 0.1364 0.66588 0.26431 0.0
H1119 H 0.12871 0.63131 0.24934 0.0
H1120 H 0.16309 0.68293 0.32202 0.0
H1121 H 0.09523 0.68027 0.28574 0.0
H1122 H 0.09754 0.65712 0.28696 0.0
H1123 H 0.10942 0.675 0.26821 0.0
C1124 C 0.12405 0.62081 0.29861 0.0
C1125 C 0.12401 0.61719 0.27767 0.0
C1126 C 0.12837 0.64059 0.30714 0.0
C1127 C 0.13253 0.65692 0.29484 0.0
C1128 C 0.13283 0.65338 0.27401 0.0
H1129 H 0.19156 0.79102 0.32014 0.0
H1130 H 0.18233 0.75447 0.31172 0.0
C1131 C 0.12855 0.63368 0.2655 0.0
C1132 C 0.13686 0.67781 0.30369 0.0
H1133 H 0.12142 0.71379 0.30064 0.0
C1134 C 0.15389 0.68963 0.31752 0.0
C1135 C 0.12466 0.68638 0.29802 0.0
C1136 C 0.10557 0.67397 0.28407 0.0
C1137 C 0.1595 0.71014 0.32522 0.0
C1138 C 0.14789 0.71911 0.3187 0.0
C1139 C 0.13042 0.70697 0.30548 0.0
C1140 C 0.1539 0.74127 0.32484 0.0
C1141 C 0.17779 0.72201 0.34027 0.0
C1142 C 0.14082 0.74601 0.33471 0.0
C1143 C 0.14598 0.76694 0.33945 0.0
C1144 C 0.16429 0.78353 0.33428 0.0
C1145 C 0.1774 0.77868 0.32448 0.0
C1146 C 0.17222 0.75777 0.31976 0.0
H1147 H 0.18139 0.71116 0.34804 0.0
H1148 H 0.19095 0.73244 0.33223 0.0
H1149 H 0.17557 0.73194 0.3518 0.0
H1150 H 0.12654 0.7335 0.33863 0.0
H1151 H 0.1355 0.77007 0.34695 0.0
H1152 H 0.82048 0.03947 0.43795 0.0
H1153 H 0.79541 0.0053 0.42085 0.0
H1154 H 0.82402 0.02281 0.36568 0.0
H1155 H 0.84896 0.05746 0.38268 0.0
H1156 H 0.78263 0.00218 0.35912 0.0
H1157 H 0.80607 0.95784 0.40722 0.0
H1158 H 0.79987 0.97455 0.42194 0.0
H1159 H 0.82093 0.98602 0.40694 0.0
C1160 C 0.82141 0.03604 0.42216 0.0
C1161 C 0.83672 0.051 0.41169 0.0
C1162 C 0.80715 0.01649 0.41244 0.0
C1163 C 0.80812 0.01131 0.39213 0.0
C1164 C 0.82311 0.02643 0.38142 0.0
H1165 H 0.73813 0.87924 0.34625 0.0
H1166 H 0.7655 0.91546 0.35417 0.0
C1167 C 0.83735 0.04618 0.39114 0.0
C1168 C 0.79346 0.99004 0.38232 0.0
H1169 H 0.77383 0.93792 0.38834 0.0
C1170 C 0.78083 0.98809 0.36533 0.0
C1171 C 0.79138 0.97167 0.39018 0.0
C1172 C 0.80544 0.97259 0.40743 0.0
C1173 C 0.76562 0.96824 0.3565 0.0
C1174 C 0.76271 0.94992 0.36522 0.0
C1175 C 0.77586 0.95192 0.38175 0.0
C1176 C 0.746 0.92848 0.35787 0.0
C1177 C 0.75299 0.96714 0.33786 0.0
C1178 C 0.72586 0.9237 0.35698 0.0
C1179 C 0.71013 0.90297 0.35215 0.0
C1180 C 0.71428 0.8866 0.34857 0.0
C1181 C 0.73444 0.89149 0.34906 0.0
C1182 C 0.75011 0.9122 0.35357 0.0
H1183 H 0.76118 0.98117 0.32941 0.0
H1184 H 0.74848 0.9528 0.3276 0.0
H1185 H 0.73917 0.96676 0.34238 0.0
H1186 H 0.72224 0.93583 0.36078 0.0
H1187 H 0.69476 0.89967 0.35208 0.0
H1188 H 0.97383 0.80564 0.45892 0.0
H1189 H 0.00591 0.81404 0.44587 0.0
H1190 H 0.97719 0.79773 0.38505 0.0
H1191 H 0.94518 0.78954 0.39795 0.0
H1192 H 0.01359 0.78643 0.42249 0.0
H1193 H 0.02722 0.8557 0.38209 0.0
H1194 H 0.00927 0.84559 0.40068 0.0
H1195 H 0.00293 0.83273 0.3755 0.0
C1196 C 0.97445 0.80404 0.44276 0.0
C1197 C 0.95711 0.79704 0.42945 0.0
C1198 C 0.99272 0.80881 0.43534 0.0
C1199 C 0.99394 0.80676 0.4145 0.0
C1200 C 0.97663 0.7998 0.40116 0.0
H1201 H 0.08694 0.81994 0.33938 0.0
H1202 H 0.05562 0.81358 0.35292 0.0
C1203 C 0.95834 0.79503 0.40857 0.0
C1204 C 0.01312 0.81099 0.40679 0.0
H1205 H 0.04871 0.84181 0.37648 0.0
C1206 C 0.02136 0.79861 0.41252 0.0
C1207 C 0.02312 0.82686 0.39376 0.0
C1208 C 0.01532 0.84113 0.38775 0.0
C1209 C 0.0392 0.80141 0.40524 0.0
C1210 C 0.04918 0.81724 0.39217 0.0
C1211 C 0.04097 0.82967 0.38649 0.0
C1212 C 0.06812 0.82109 0.38413 0.0
C1213 C 0.04694 0.78706 0.41121 0.0
C1214 C 0.08551 0.82761 0.39721 0.0
C1215 C 0.10335 0.83118 0.38953 0.0
C1216 C 0.10406 0.82841 0.36865 0.0
C1217 C 0.08672 0.82211 0.35555 0.0
C1218 C 0.06888 0.81852 0.36325 0.0
H1219 H 0.03507 0.77259 0.41705 0.0
H1220 H 0.05277 0.78241 0.39821 0.0
H1221 H 0.05947 0.79548 0.42332 0.0
H1222 H 0.08531 0.83007 0.41335 0.0
H1223 H 0.11658 0.83616 0.39992 0.0
H1224 H 0.25342 0.20864 0.41046 0.0
H1225 H 0.23918 0.23039 0.40061 0.0
H1226 H 0.18795 0.17586 0.36856 0.0
H1227 H 0.20222 0.15399 0.37826 0.0
H1228 H 0.20496 0.21221 0.34683 0.0
H1229 H 0.19043 0.22978 0.42404 0.0
H1230 H 0.21577 0.23539 0.42206 0.0
H1231 H 0.19529 0.20869 0.41764 0.0
C1232 C 0.23913 0.20131 0.4013 0.0
C1233 C 0.22889 0.17966 0.39519 0.0
C1234 C 0.23096 0.21371 0.39579 0.0
C1235 C 0.21237 0.20465 0.38415 0.0
C1236 C 0.20226 0.18309 0.37767 0.0
H1237 H 0.1462 0.27126 0.36697 0.0
H1238 H 0.15548 0.24489 0.37437 0.0
C1239 C 0.21042 0.17063 0.38322 0.0
C1240 C 0.2037 0.21788 0.3786 0.0
H1241 H 0.18847 0.25062 0.39881 0.0
C1242 C 0.20118 0.22048 0.35815 0.0
C1243 C 0.19853 0.22839 0.3934 0.0
C1244 C 0.19994 0.2253 0.41551 0.0
C1245 C 0.19428 0.23396 0.35216 0.0
C1246 C 0.19008 0.24528 0.36706 0.0
C1247 C 0.19191 0.24208 0.38744 0.0
C1248 C 0.1842 0.26091 0.36189 0.0
C1249 C 0.19153 0.23592 0.32996 0.0
C1250 C 0.19737 0.27877 0.35261 0.0
C1251 C 0.19214 0.29388 0.34834 0.0
C1252 C 0.17365 0.29148 0.35339 0.0
C1253 C 0.16052 0.27358 0.36278 0.0
C1254 C 0.16579 0.25848 0.36705 0.0
H1255 H 0.18989 0.22214 0.32054 0.0
H1256 H 0.17811 0.23747 0.32634 0.0
H1257 H 0.20496 0.2502 0.32577 0.0
H1258 H 0.21185 0.28118 0.34891 0.0
H1259 H 0.20267 0.3075 0.3412 0.0
H1260 H 0.61635 0.49695 0.7755 0.0
H1261 H 0.64718 0.52188 0.7614 0.0
H1262 H 0.61416 0.50871 0.70302 0.0
H1263 H 0.58305 0.48394 0.71714 0.0
H1264 H 0.66557 0.51401 0.7284 0.0
H1265 H 0.64344 0.57393 0.71476 0.0
H1266 H 0.63073 0.55345 0.73123 0.0
H1267 H 0.62594 0.54742 0.70435 0.0
C1268 C 0.6156 0.49949 0.75969 0.0
C1269 C 0.59724 0.48865 0.74746 0.0
C1270 C 0.63324 0.51362 0.75165 0.0
C1271 C 0.63287 0.51728 0.73125 0.0
C1272 C 0.61467 0.50628 0.71887 0.0
H1273 H 0.74052 0.58635 0.66797 0.0
H1274 H 0.70775 0.55958 0.67757 0.0
C1275 C 0.59697 0.49203 0.72691 0.0
C1276 C 0.65166 0.53264 0.72311 0.0
H1277 H 0.67501 0.58088 0.70494 0.0
C1278 C 0.66763 0.52858 0.72314 0.0
C1279 C 0.65428 0.55169 0.71649 0.0
C1280 C 0.63779 0.55708 0.71679 0.0
C1281 C 0.68626 0.54317 0.71681 0.0
C1282 C 0.68887 0.56218 0.71011 0.0
C1283 C 0.67287 0.56621 0.70998 0.0
C1284 C 0.70837 0.57846 0.70392 0.0
C1285 C 0.7032 0.53841 0.71786 0.0
C1286 C 0.71932 0.59803 0.71535 0.0
C1287 C 0.73798 0.61332 0.7099 0.0
C1288 C 0.74589 0.60928 0.69285 0.0
C1289 C 0.73477 0.5898 0.68124 0.0
C1290 C 0.71612 0.5745 0.68673 0.0
H1291 H 0.7 0.52517 0.72712 0.0
H1292 H 0.70535 0.53402 0.70239 0.0
H1293 H 0.71751 0.55247 0.72431 0.0
H1294 H 0.71353 0.60137 0.72865 0.0
H1295 H 0.74626 0.62823 0.71908 0.0
H1296 H 0.48966 0.06492 0.74573 0.0
H1297 H 0.46324 0.0712 0.73174 0.0
H1298 H 0.50713 0.13672 0.72955 0.0
H1299 H 0.53359 0.13064 0.7438 0.0
H1300 H 0.47226 0.1282 0.75018 0.0
H1301 H 0.45235 0.08461 0.67398 0.0
H1302 H 0.45348 0.07044 0.69468 0.0
H1303 H 0.47602 0.09308 0.68859 0.0
C1304 C 0.49369 0.08061 0.74206 0.0
C1305 C 0.51366 0.0973 0.74585 0.0
C1306 C 0.47863 0.08413 0.73396 0.0
C1307 C 0.48331 0.10438 0.72951 0.0
C1308 C 0.5033 0.12097 0.7328 0.0
H1309 H 0.4102 0.14724 0.66955 0.0
H1310 H 0.43589 0.13858 0.68031 0.0
C1311 C 0.51839 0.11744 0.7408 0.0
C1312 C 0.46715 0.10858 0.72283 0.0
H1313 H 0.43126 0.09756 0.68434 0.0
C1314 C 0.46329 0.12155 0.73578 0.0
C1315 C 0.4556 0.09988 0.70403 0.0
C1316 C 0.4596 0.08635 0.68939 0.0
C1317 C 0.44803 0.12599 0.73044 0.0
C1318 C 0.43627 0.11705 0.71176 0.0
C1319 C 0.44022 0.1042 0.69873 0.0
C1320 C 0.42034 0.12161 0.70512 0.0
C1321 C 0.44483 0.1405 0.74462 0.0
C1322 C 0.40302 0.1147 0.71542 0.0
C1323 C 0.38831 0.11961 0.7093 0.0
C1324 C 0.39077 0.13146 0.69279 0.0
C1325 C 0.40799 0.13812 0.68237 0.0
C1326 C 0.42263 0.13315 0.68844 0.0
H1327 H 0.45765 0.1493 0.75643 0.0
H1328 H 0.44273 0.15197 0.73619 0.0
H1329 H 0.43103 0.1311 0.75225 0.0
H1330 H 0.40093 0.10556 0.7282 0.0
H1331 H 0.37512 0.11427 0.71752 0.0
H1332 H 0.92621 0.4165 0.73155 0.0
H1333 H 0.91875 0.38172 0.71728 0.0
H1334 H 0.8565 0.36372 0.70403 0.0
H1335 H 0.86384 0.39848 0.7183 0.0
H1336 H 0.86615 0.33746 0.72996 0.0
H1337 H 0.90167 0.3516 0.65762 0.0
H1338 H 0.91618 0.36973 0.67929 0.0
H1339 H 0.8937 0.36877 0.66897 0.0
C1340 C 0.91101 0.40523 0.72527 0.0
C1341 C 0.89558 0.41012 0.72606 0.0
C1342 C 0.90681 0.38546 0.71702 0.0
C1343 C 0.88712 0.37028 0.7095 0.0
C1344 C 0.87182 0.37535 0.70961 0.0
H1345 H 0.82872 0.23486 0.68286 0.0
H1346 H 0.8363 0.27119 0.68838 0.0
C1347 C 0.87605 0.3952 0.71768 0.0
C1348 C 0.88213 0.34845 0.70371 0.0
H1349 H 0.88932 0.31771 0.66889 0.0
C1350 C 0.87105 0.33305 0.71653 0.0
C1351 C 0.88886 0.34296 0.68637 0.0
C1352 C 0.90068 0.35904 0.67213 0.0
C1353 C 0.86675 0.31226 0.71265 0.0
C1354 C 0.8732 0.3066 0.6951 0.0
C1355 C 0.88431 0.32206 0.68226 0.0
C1356 C 0.86862 0.28473 0.69 0.0
C1357 C 0.85591 0.29674 0.72775 0.0
C1358 C 0.88424 0.28032 0.68809 0.0
C1359 C 0.87995 0.25953 0.68461 0.0
C1360 C 0.85994 0.2428 0.68307 0.0
C1361 C 0.84431 0.24735 0.68428 0.0
C1362 C 0.84861 0.26811 0.68752 0.0
H1363 H 0.85732 0.30483 0.74282 0.0
H1364 H 0.83965 0.28729 0.72246 0.0
H1365 H 0.86182 0.28585 0.72946 0.0
H1366 H 0.89979 0.29294 0.68982 0.0
H1367 H 0.89232 0.25654 0.68371 0.0
H1368 H 0.18701 0.91786 0.61465 0.0
H1369 H 0.21276 0.95313 0.62928 0.0
H1370 H 0.16703 0.9699 0.636 0.0
H1371 H 0.14117 0.93463 0.62134 0.0
H1372 H 0.20173 0.99691 0.61289 0.0
H1373 H 0.22437 0.98295 0.68862 0.0
H1374 H 0.22185 0.96512 0.66761 0.0
H1375 H 0.19999 0.96542 0.67515 0.0
C1376 C 0.18244 0.92899 0.61952 0.0
C1377 C 0.16211 0.92355 0.61685 0.0
C1378 C 0.19712 0.94904 0.62797 0.0
C1379 C 0.19174 0.964 0.63383 0.0
C1380 C 0.17141 0.95847 0.63171 0.0
H1381 H 0.26208 0.09956 0.6625 0.0
H1382 H 0.23507 0.06312 0.65497 0.0
C1383 C 0.15668 0.93833 0.62343 0.0
C1384 C 0.20752 0.98596 0.64033 0.0
H1385 H 0.24422 0.01696 0.67794 0.0
C1386 C 0.21094 0.00138 0.62717 0.0
C1387 C 0.21963 0.99155 0.65883 0.0
C1388 C 0.21629 0.97548 0.6735 0.0
C1389 C 0.22643 0.02229 0.63185 0.0
C1390 C 0.23843 0.02803 0.65051 0.0
C1391 C 0.23497 0.01255 0.6637 0.0
C1392 C 0.25471 0.05001 0.65647 0.0
C1393 C 0.23018 0.03785 0.61645 0.0
C1394 C 0.27465 0.05468 0.66073 0.0
C1395 C 0.29015 0.07553 0.66535 0.0
C1396 C 0.28596 0.09207 0.66572 0.0
C1397 C 0.26588 0.08724 0.66205 0.0
C1398 C 0.25041 0.06641 0.65765 0.0
H1399 H 0.22384 0.02981 0.60104 0.0
H1400 H 0.22277 0.04701 0.62041 0.0
H1401 H 0.24652 0.04901 0.61613 0.0
H1402 H 0.27828 0.04224 0.66004 0.0
H1403 H 0.30544 0.0787 0.66815 0.0
H1404 H 0.08099 0.23604 0.62509 0.0
H1405 H 0.04982 0.22705 0.64034 0.0
H1406 H 0.01657 0.20458 0.58158 0.0
H1407 H 0.04743 0.21259 0.56636 0.0
H1408 H 0.0255 0.24325 0.63305 0.0
H1409 H 0.98229 0.15687 0.61439 0.0
H1410 H 0.009 0.17235 0.61232 0.0
H1411 H 0.9913 0.17089 0.59259 0.0
C1412 C 0.06697 0.22875 0.61547 0.0
C1413 C 0.06669 0.22501 0.59451 0.0
C1414 C 0.04921 0.22376 0.62419 0.0
C1415 C 0.03085 0.21487 0.61213 0.0
C1416 C 0.0305 0.211 0.59123 0.0
H1417 H 0.91155 0.19258 0.62566 0.0
H1418 H 0.94315 0.1977 0.61381 0.0
C1419 C 0.04821 0.21588 0.58252 0.0
C1420 C 0.01226 0.21085 0.62117 0.0
H1421 H 0.96347 0.17304 0.62476 0.0
C1422 C 0.01201 0.22785 0.63146 0.0
C1423 C 0.99469 0.19073 0.61906 0.0
C1424 C 0.99435 0.17163 0.60917 0.0
C1425 C 0.99446 0.2254 0.63916 0.0
C1426 C 0.9768 0.20544 0.63656 0.0
C1427 C 0.97708 0.18835 0.62658 0.0
C1428 C 0.95775 0.2021 0.64379 0.0
C1429 C 0.9947 0.24426 0.64952 0.0
C1430 C 0.95555 0.20271 0.66453 0.0
C1431 C 0.93752 0.19967 0.67128 0.0
C1432 C 0.92151 0.19606 0.65737 0.0
C1433 C 0.92372 0.19538 0.63663 0.0
C1434 C 0.9417 0.19826 0.62988 0.0
H1435 H 0.00864 0.25921 0.64754 0.0
H1436 H 0.98149 0.24529 0.64359 0.0
H1437 H 0.99373 0.24252 0.66592 0.0
H1438 H 0.96777 0.20548 0.67544 0.0
H1439 H 0.93612 0.2002 0.68736 0.0
H1440 H 0.74247 0.81205 0.60705 0.0
H1441 H 0.74912 0.78582 0.6209 0.0
H1442 H 0.80581 0.83532 0.65028 0.0
H1443 H 0.79936 0.8617 0.63632 0.0
H1444 H 0.78171 0.78076 0.61331 0.0
H1445 H 0.78047 0.79677 0.69542 0.0
H1446 H 0.76997 0.80611 0.67644 0.0
H1447 H 0.79669 0.81956 0.68304 0.0
C1448 C 0.75635 0.81737 0.61647 0.0
C1449 C 0.77044 0.83897 0.6205 0.0
C1450 C 0.76006 0.80237 0.62448 0.0
C1451 C 0.77784 0.80863 0.63679 0.0
C1452 C 0.7918 0.83016 0.64115 0.0
H1453 H 0.83762 0.73843 0.65815 0.0
H1454 H 0.82784 0.76417 0.65009 0.0
C1455 C 0.7881 0.84521 0.63314 0.0
C1456 C 0.78241 0.79259 0.64379 0.0
H1457 H 0.79292 0.774 0.6859 0.0
C1458 C 0.78403 0.7792 0.62918 0.0
C1459 C 0.78525 0.79047 0.6645 0.0
C1460 C 0.78284 0.80385 0.68079 0.0
C1461 C 0.78891 0.76408 0.63472 0.0
C1462 C 0.79246 0.76246 0.6554 0.0
C1463 C 0.79034 0.77544 0.67005 0.0
C1464 C 0.79885 0.74763 0.66191 0.0
C1465 C 0.79022 0.74991 0.61839 0.0
C1466 C 0.78599 0.73013 0.67181 0.0
C1467 C 0.79151 0.71528 0.67648 0.0
C1468 C 0.81006 0.71783 0.67142 0.0
C1469 C 0.82318 0.73586 0.66219 0.0
C1470 C 0.81762 0.7506 0.6575 0.0
H1471 H 0.78263 0.74982 0.60369 0.0
H1472 H 0.80628 0.75558 0.61635 0.0
H1473 H 0.78336 0.73352 0.62263 0.0
H1474 H 0.77145 0.72765 0.67538 0.0
H1475 H 0.78108 0.70163 0.68364 0.0
H1476 H 0.06899 0.84555 0.63708 0.0
H1477 H 0.03744 0.8225 0.65149 0.0
H1478 H 0.01084 0.78945 0.5927 0.0
H1479 H 0.04225 0.81243 0.5782 0.0
H1480 H 0.99778 0.81626 0.63875 0.0
H1481 H 0.00101 0.74258 0.63077 0.0
H1482 H 0.02295 0.76833 0.63037 0.0
H1483 H 0.00524 0.75624 0.60839 0.0
C1484 C 0.05645 0.83332 0.62726 0.0
C1485 C 0.05803 0.83069 0.60652 0.0
C1486 C 0.03846 0.8202 0.63551 0.0
C1487 C 0.02196 0.80414 0.62318 0.0
C1488 C 0.02353 0.80155 0.60249 0.0
H1489 H 0.89513 0.73362 0.63441 0.0
H1490 H 0.92928 0.75696 0.62544 0.0
C1491 C 0.04141 0.81472 0.59424 0.0
C1492 C 0.00278 0.79046 0.63169 0.0
H1493 H 0.96971 0.73919 0.63838 0.0
C1494 C 0.99171 0.79944 0.63886 0.0
C1495 C 0.99503 0.76858 0.63196 0.0
C1496 C 0.00671 0.75831 0.62513 0.0
C1497 C 0.97268 0.78694 0.64564 0.0
C1498 C 0.96455 0.76494 0.64508 0.0
C1499 C 0.97595 0.75606 0.63861 0.0
C1500 C 0.94398 0.75082 0.65059 0.0
C1501 C 0.96134 0.79732 0.65323 0.0
C1502 C 0.941 0.73934 0.66746 0.0
C1503 C 0.92151 0.72602 0.67263 0.0
C1504 C 0.90478 0.72386 0.66085 0.0
C1505 C 0.9078 0.7351 0.64379 0.0
C1506 C 0.92726 0.74848 0.63871 0.0
H1507 H 0.97143 0.81451 0.65713 0.0
H1508 H 0.94962 0.79501 0.64129 0.0
H1509 H 0.95373 0.79017 0.66674 0.0
H1510 H 0.95374 0.74086 0.67672 0.0
H1511 H 0.91955 0.71747 0.68582 0.0
H1512 H 0.19308 0.25686 0.5852 0.0
H1513 H 0.21635 0.2459 0.59857 0.0
H1514 H 0.16988 0.20069 0.6319 0.0
H1515 H 0.14644 0.21123 0.61821 0.0
H1516 H 0.22999 0.24682 0.6376 0.0
H1517 H 0.18805 0.16472 0.60172 0.0
H1518 H 0.1824 0.18462 0.59456 0.0
H1519 H 0.17338 0.17166 0.61699 0.0
C1520 C 0.18785 0.24454 0.59534 0.0
C1521 C 0.16797 0.23479 0.60056 0.0
C1522 C 0.20113 0.23832 0.60297 0.0
C1523 C 0.19474 0.22225 0.61595 0.0
C1524 C 0.17498 0.21278 0.62152 0.0
H1525 H 0.25588 0.16638 0.67844 0.0
H1526 H 0.23236 0.17794 0.66731 0.0
C1527 C 0.16164 0.2189 0.61379 0.0
C1528 C 0.20889 0.21565 0.62382 0.0
H1529 H 0.21594 0.17349 0.62525 0.0
C1530 C 0.22695 0.2308 0.63486 0.0
C1531 C 0.20488 0.19474 0.62017 0.0
C1532 C 0.18622 0.17803 0.60756 0.0
C1533 C 0.24104 0.22555 0.64253 0.0
C1534 C 0.23698 0.20467 0.63892 0.0
C1535 C 0.2189 0.18948 0.62802 0.0
C1536 C 0.25148 0.19831 0.64606 0.0
C1537 C 0.26007 0.24227 0.65462 0.0
C1538 C 0.2699 0.20589 0.63767 0.0
C1539 C 0.28328 0.19924 0.64391 0.0
C1540 C 0.2784 0.18495 0.65864 0.0
C1541 C 0.26 0.17747 0.66711 0.0
C1542 C 0.24658 0.18402 0.66077 0.0
H1543 H 0.25906 0.25635 0.65952 0.0
H1544 H 0.2634 0.236 0.66817 0.0
H1545 H 0.27287 0.2473 0.64521 0.0
H1546 H 0.27379 0.2167 0.62609 0.0
H1547 H 0.29734 0.20515 0.6371 0.0
H1548 H 0.74759 0.94445 0.61332 0.0
H1549 H 0.76253 0.98182 0.62468 0.0
H1550 H 0.81211 0.9809 0.65703 0.0
H1551 H 0.79716 0.9434 0.64577 0.0
H1552 H 0.79517 0.00225 0.67906 0.0
H1553 H 0.81345 0.02925 0.6029 0.0
H1554 H 0.78775 0.00904 0.60397 0.0
H1555 H 0.8076 0.0033 0.60891 0.0
C1556 C 0.76165 0.95222 0.62291 0.0
C1557 C 0.77126 0.9411 0.62858 0.0
C1558 C 0.7702 0.97355 0.6293 0.0
C1559 C 0.78856 0.98415 0.64142 0.0
C1560 C 0.79798 0.97298 0.64757 0.0
H1561 H 0.85784 0.12124 0.66038 0.0
H1562 H 0.8482 0.08428 0.65382 0.0
C1563 C 0.78943 0.9516 0.64112 0.0
C1564 C 0.79786 0.00694 0.64753 0.0
H1565 H 0.81569 0.05445 0.62838 0.0
C1566 C 0.79983 0.01372 0.66804 0.0
C1567 C 0.80419 0.02187 0.63312 0.0
C1568 C 0.80335 0.01558 0.61101 0.0
C1569 C 0.80729 0.03501 0.67444 0.0
C1570 C 0.81268 0.04978 0.6599 0.0
C1571 C 0.81139 0.04308 0.63948 0.0
C1572 C 0.81909 0.07215 0.66536 0.0
C1573 C 0.80936 0.04152 0.69669 0.0
C1574 C 0.80591 0.07758 0.67402 0.0
C1575 C 0.81135 0.09869 0.67779 0.0
C1576 C 0.83006 0.1148 0.67287 0.0
C1577 C 0.84334 0.10928 0.66442 0.0
C1578 C 0.83786 0.08816 0.66065 0.0
H1579 H 0.81018 0.02987 0.70602 0.0
H1580 H 0.823 0.05715 0.70088 0.0
H1581 H 0.79601 0.0426 0.7004 0.0
H1582 H 0.79117 0.06548 0.67737 0.0
H1583 H 0.80071 0.10234 0.68423 0.0
H1584 H 0.50232 0.36438 0.77141 0.0
H1585 H 0.47491 0.33115 0.75469 0.0
H1586 H 0.47977 0.36036 0.69928 0.0
H1587 H 0.50758 0.39358 0.71586 0.0
H1588 H 0.43852 0.32274 0.73752 0.0
H1589 H 0.48088 0.30752 0.68053 0.0
H1590 H 0.49324 0.3272 0.70172 0.0
H1591 H 0.48202 0.33245 0.6801 0.0
C1592 C 0.49763 0.36364 0.75561 0.0
C1593 C 0.50713 0.38145 0.7449 0.0
C1594 C 0.48196 0.34469 0.7461 0.0
C1595 C 0.47544 0.3432 0.72568 0.0
C1596 C 0.48483 0.36104 0.71493 0.0
H1597 H 0.36058 0.23279 0.67611 0.0
H1598 H 0.38738 0.26926 0.68509 0.0
C1599 C 0.50065 0.38002 0.72444 0.0
C1600 C 0.45848 0.323 0.71602 0.0
H1601 H 0.44599 0.28338 0.67909 0.0
C1602 C 0.4401 0.31418 0.72467 0.0
C1603 C 0.46065 0.31181 0.69934 0.0
C1604 C 0.48029 0.32008 0.68994 0.0
C1605 C 0.42396 0.29427 0.71741 0.0
C1606 C 0.4261 0.28309 0.7007 0.0
C1607 C 0.44434 0.29209 0.69178 0.0
C1608 C 0.41019 0.26133 0.69337 0.0
C1609 C 0.4051 0.28501 0.72829 0.0
C1610 C 0.41434 0.24487 0.69422 0.0
C1611 C 0.39916 0.22408 0.6889 0.0
C1612 C 0.37946 0.21928 0.68264 0.0
C1613 C 0.37552 0.23589 0.68107 0.0
C1614 C 0.39079 0.25674 0.68628 0.0
H1615 H 0.40763 0.29347 0.74343 0.0
H1616 H 0.3932 0.28619 0.71931 0.0
H1617 H 0.39948 0.26814 0.73015 0.0
H1618 H 0.42922 0.24806 0.69958 0.0
H1619 H 0.40281 0.21175 0.69026 0.0
H1620 H 0.60934 0.11699 0.72901 0.0
H1621 H 0.6419 0.12621 0.71679 0.0
H1622 H 0.66928 0.1418 0.77812 0.0
H1623 H 0.63668 0.13232 0.79046 0.0
H1624 H 0.67886 0.16452 0.72292 0.0
H1625 H 0.68438 0.09931 0.75498 0.0
H1626 H 0.66118 0.09986 0.75272 0.0
H1627 H 0.68027 0.11554 0.77293 0.0
C1628 C 0.62229 0.12239 0.73988 0.0
C1629 C 0.62054 0.12385 0.7607 0.0
C1630 C 0.64086 0.12766 0.73288 0.0
C1631 C 0.65788 0.13436 0.74658 0.0
C1632 C 0.65622 0.13626 0.76734 0.0
H1633 H 0.78186 0.16901 0.73324 0.0
H1634 H 0.75024 0.16267 0.74602 0.0
C1635 C 0.63767 0.13096 0.77435 0.0
C1636 C 0.67737 0.13935 0.73913 0.0
H1637 H 0.71303 0.12472 0.74053 0.0
C1638 C 0.68633 0.15581 0.72669 0.0
C1639 C 0.68703 0.12793 0.74414 0.0
C1640 C 0.67768 0.10955 0.75678 0.0
C1641 C 0.7049 0.16135 0.71934 0.0
C1642 C 0.71452 0.14989 0.72432 0.0
C1643 C 0.7056 0.13349 0.73681 0.0
C1644 C 0.73374 0.15441 0.71649 0.0
C1645 C 0.71424 0.17963 0.70659 0.0
C1646 C 0.73481 0.15168 0.69569 0.0
C1647 C 0.75281 0.15527 0.68837 0.0
C1648 C 0.76993 0.16152 0.70178 0.0
C1649 C 0.76884 0.16422 0.7226 0.0
C1650 C 0.75084 0.16061 0.7299 0.0
H1651 H 0.70767 0.18998 0.70845 0.0
H1652 H 0.73077 0.1892 0.71048 0.0
H1653 H 0.71145 0.17353 0.69045 0.0
H1654 H 0.72166 0.14649 0.68514 0.0
H1655 H 0.75328 0.15301 0.67226 0.0
H1656 H 0.86734 0.50771 0.76255 0.0
H1657 H 0.85964 0.5331 0.74831 0.0
H1658 H 0.8773 0.52161 0.69083 0.0
H1659 H 0.88468 0.49587 0.70492 0.0
H1660 H 0.88541 0.5695 0.73202 0.0
H1661 H 0.82218 0.51499 0.67547 0.0
H1662 H 0.83164 0.5058 0.69552 0.0
H1663 H 0.84509 0.51443 0.67357 0.0
C1664 C 0.86943 0.51051 0.74683 0.0
C1665 C 0.87648 0.49978 0.73482 0.0
C1666 C 0.86507 0.52502 0.73873 0.0
C1667 C 0.86767 0.52905 0.71846 0.0
C1668 C 0.87481 0.51842 0.7064 0.0
H1669 H 0.86941 0.63986 0.67438 0.0
H1670 H 0.87838 0.61324 0.68178 0.0
C1671 C 0.87911 0.5038 0.7145 0.0
C1672 C 0.86344 0.5449 0.71029 0.0
H1673 H 0.83303 0.55122 0.67558 0.0
C1674 C 0.87403 0.56555 0.71962 0.0
C1675 C 0.84845 0.53961 0.69422 0.0
C1676 C 0.83603 0.51748 0.68418 0.0
C1677 C 0.86987 0.58102 0.71351 0.0
C1678 C 0.85501 0.5758 0.69733 0.0
C1679 C 0.84455 0.5552 0.68784 0.0
C1680 C 0.84921 0.59115 0.69097 0.0
C1681 C 0.88091 0.6026 0.72494 0.0
C1682 C 0.8296 0.58717 0.6929 0.0
C1683 C 0.82435 0.60223 0.68852 0.0
C1684 C 0.83865 0.62161 0.68213 0.0
C1685 C 0.85808 0.6252 0.67945 0.0
C1686 C 0.86327 0.61005 0.68375 0.0
H1687 H 0.88835 0.60259 0.7397 0.0
H1688 H 0.89273 0.61368 0.71588 0.0
H1689 H 0.87049 0.60859 0.72768 0.0
H1690 H 0.8185 0.57263 0.69838 0.0
H1691 H 0.80923 0.59887 0.6907 0.0
H1692 H 0.44586 0.89316 0.18311 0.0
H1693 H 0.45563 0.91401 0.15413 0.0
H1694 H 0.44683 0.96113 0.1855 0.0
H1695 H 0.43744 0.94055 0.21478 0.0
H1696 H 0.43362 0.9293 0.13057 0.0
H1697 H 0.50595 0.9931 0.17021 0.0
H1698 H 0.4919 0.96758 0.17951 0.0
H1699 H 0.48358 0.98631 0.18254 0.0
C1700 C 0.44609 0.908 0.18387 0.0
C1701 C 0.44106 0.91533 0.20126 0.0
C1702 C 0.45151 0.91979 0.16727 0.0
C1703 C 0.45211 0.93914 0.16782 0.0
C1704 C 0.44664 0.9463 0.18493 0.0
H1705 H 0.47286 0.01024 0.06141 0.0
H1706 H 0.45832 0.99251 0.09142 0.0
C1707 C 0.44115 0.93448 0.20155 0.0
C1708 C 0.45909 0.95203 0.15062 0.0
H1709 H 0.49849 0.99679 0.13649 0.0
C1710 C 0.44771 0.94414 0.13183 0.0
C1711 C 0.47754 0.97128 0.15243 0.0
C1712 C 0.49059 0.98009 0.17219 0.0
C1713 C 0.4545 0.95489 0.11461 0.0
C1714 C 0.47305 0.97406 0.11639 0.0
C1715 C 0.48424 0.98211 0.13526 0.0
C1716 C 0.48184 0.98529 0.09861 0.0
C1717 C 0.44211 0.94531 0.09457 0.0
C1718 C 0.5001 0.98756 0.09311 0.0
C1719 C 0.50835 0.99759 0.07604 0.0
C1720 C 0.49841 0.00546 0.06423 0.0
C1721 C 0.48046 0.00376 0.07005 0.0
C1722 C 0.4722 0.99371 0.08715 0.0
H1723 H 0.43053 0.9285 0.09502 0.0
H1724 H 0.43426 0.95399 0.0906 0.0
H1725 H 0.45183 0.94652 0.08241 0.0
H1726 H 0.50779 0.98123 0.10184 0.0
H1727 H 0.52224 0.99876 0.07184 0.0
H1728 H 0.05779 0.53952 0.22788 0.0
H1729 H 0.04111 0.53036 0.19353 0.0
H1730 H 0.07226 0.4972 0.17833 0.0
H1731 H 0.08916 0.50647 0.21254 0.0
H1732 H 0.06063 0.54162 0.15827 0.0
H1733 H 0.01336 0.45485 0.15745 0.0
H1734 H 0.02435 0.47203 0.18053 0.0
H1735 H 0.03948 0.46532 0.16571 0.0
C1736 C 0.06106 0.53025 0.21723 0.0
C1737 C 0.0748 0.52372 0.22294 0.0
C1738 C 0.05144 0.52493 0.19767 0.0
C1739 C 0.05527 0.51288 0.18349 0.0
C1740 C 0.06876 0.50611 0.18918 0.0
H1741 H 0.0374 0.50822 0.05338 0.0
H1742 H 0.05088 0.5109 0.08823 0.0
C1743 C 0.07841 0.51144 0.20874 0.0
C1744 C 0.04616 0.5086 0.16238 0.0
H1745 H 0.01575 0.46916 0.12586 0.0
C1746 C 0.05076 0.52579 0.1512 0.0
C1747 C 0.03318 0.48792 0.15328 0.0
C1748 C 0.02712 0.46894 0.16488 0.0
C1749 C 0.04297 0.52286 0.13103 0.0
C1750 C 0.03045 0.50219 0.12174 0.0
C1751 C 0.02555 0.48498 0.13299 0.0
C1752 C 0.02203 0.4983 0.10043 0.0
C1753 C 0.04798 0.54194 0.11988 0.0
C1754 C 0.00126 0.48954 0.0957 0.0
C1755 C 0.9935 0.48787 0.07579 0.0
C1756 C 0.00642 0.49485 0.06035 0.0
C1757 C 0.0271 0.50271 0.065 0.0
C1758 C 0.03483 0.50437 0.08489 0.0
H1759 H 0.05394 0.55644 0.13036 0.0
H1760 H 0.05965 0.54434 0.10959 0.0
H1761 H 0.03451 0.5397 0.11062 0.0
H1762 H 0.99115 0.4847 0.10751 0.0
H1763 H 0.97749 0.48169 0.07258 0.0
H1764 H 0.46274 0.5143 0.22275 0.0
H1765 H 0.47194 0.50751 0.18968 0.0
H1766 H 0.49407 0.57222 0.17842 0.0
H1767 H 0.48522 0.57915 0.2115 0.0
H1768 H 0.4603 0.51096 0.15146 0.0
H1769 H 0.54213 0.56566 0.16894 0.0
H1770 H 0.52475 0.55792 0.18811 0.0
H1771 H 0.52768 0.57836 0.1726 0.0
C1772 C 0.46948 0.52703 0.21315 0.0
C1773 C 0.47349 0.54731 0.21976 0.0
C1774 C 0.47478 0.52315 0.19431 0.0
C1775 C 0.48411 0.53948 0.18179 0.0
C1776 C 0.48744 0.55955 0.18808 0.0
H1777 H 0.495 0.5296 0.05389 0.0
H1778 H 0.48437 0.53187 0.08729 0.0
C1779 C 0.48232 0.56347 0.20695 0.0
C1780 C 0.49033 0.5356 0.1621 0.0
H1781 H 0.53067 0.55324 0.13429 0.0
C1782 C 0.47571 0.52007 0.14774 0.0
C1783 C 0.51052 0.54721 0.15741 0.0
C1784 C 0.52721 0.56306 0.17266 0.0
C1785 C 0.48062 0.51628 0.12857 0.0
C1786 C 0.50061 0.52873 0.1235 0.0
C1787 C 0.51532 0.54383 0.13809 0.0
C1788 C 0.50662 0.52666 0.10309 0.0
C1789 C 0.46437 0.49881 0.1141 0.0
C1790 C 0.52316 0.52378 0.10083 0.0
C1791 C 0.52939 0.52277 0.08169 0.0
C1792 C 0.519 0.5243 0.06454 0.0
C1793 C 0.50268 0.52746 0.06679 0.0
C1794 C 0.49662 0.52878 0.08591 0.0
H1795 H 0.45236 0.48667 0.12228 0.0
H1796 H 0.45727 0.50542 0.1042 0.0
H1797 H 0.47056 0.49106 0.10445 0.0
H1798 H 0.53127 0.52235 0.11388 0.0
H1799 H 0.54219 0.52058 0.08025 0.0
H1800 H 0.94123 0.49185 0.78647 0.0
H1801 H 0.95803 0.49999 0.82079 0.0
H1802 H 0.92151 0.43494 0.83202 0.0
H1803 H 0.90478 0.42671 0.79782 0.0
H1804 H 0.94278 0.49485 0.85842 0.0
H1805 H 0.97873 0.44666 0.84547 0.0
H1806 H 0.96733 0.45353 0.82511 0.0
H1807 H 0.95193 0.43219 0.83958 0.0
C1808 C 0.93674 0.47934 0.79632 0.0
C1809 C 0.92188 0.4586 0.78941 0.0
C1810 C 0.94635 0.48399 0.81587 0.0
C1811 C 0.94126 0.46798 0.82878 0.0
C1812 C 0.92601 0.44741 0.82212 0.0
H1813 H 0.96792 0.47745 0.95817 0.0
H1814 H 0.95257 0.47459 0.92413 0.0
C1815 C 0.91648 0.44274 0.80258 0.0
C1816 C 0.95196 0.47267 0.84919 0.0
H1817 H 0.97982 0.45892 0.87952 0.0
C1818 C 0.95101 0.48713 0.86304 0.0
C1819 C 0.96292 0.4628 0.85504 0.0
C1820 C 0.96549 0.44809 0.84047 0.0
C1821 C 0.96034 0.49159 0.88281 0.0
C1822 C 0.97055 0.481 0.88891 0.0
C1823 C 0.97185 0.46691 0.87488 0.0
C1824 C 0.98002 0.48417 0.90973 0.0
C1825 C 0.95937 0.50777 0.89685 0.0
C1826 C 0.0004 0.49005 0.91292 0.0
C1827 C 0.0091 0.49156 0.93232 0.0
C1828 C 0.99761 0.48743 0.94887 0.0
C1829 C 0.97726 0.48158 0.94575 0.0
C1830 C 0.96849 0.47987 0.9263 0.0
H1831 H 0.95646 0.5187 0.88836 0.0
H1832 H 0.94687 0.49966 0.90648 0.0
H1833 H 0.97358 0.51713 0.90683 0.0
H1834 H 0.00953 0.49325 0.90034 0.0
H1835 H 0.0248 0.4959 0.9344 0.0
H1836 H 0.54585 0.44251 0.8166 0.0
H1837 H 0.53803 0.45226 0.84918 0.0
H1838 H 0.55181 0.51248 0.82961 0.0
H1839 H 0.55947 0.50278 0.79686 0.0
H1840 H 0.56444 0.49051 0.87785 0.0
H1841 H 0.49245 0.48375 0.84724 0.0
H1842 H 0.50421 0.4713 0.83407 0.0
H1843 H 0.51441 0.49916 0.83432 0.0
C1844 C 0.54714 0.4578 0.81921 0.0
C1845 C 0.55315 0.47184 0.80416 0.0
C1846 C 0.54281 0.46338 0.83785 0.0
C1847 C 0.54425 0.48301 0.84167 0.0
C1848 C 0.55052 0.49721 0.82683 0.0
H1849 H 0.5333 0.53543 0.95838 0.0
H1850 H 0.54537 0.53103 0.92615 0.0
C1851 C 0.55498 0.49169 0.80822 0.0
C1852 C 0.53868 0.48833 0.86106 0.0
H1853 H 0.502 0.49399 0.88198 0.0
C1854 C 0.55088 0.49143 0.87881 0.0
C1855 C 0.5209 0.48933 0.86214 0.0
C1856 C 0.50709 0.4856 0.84349 0.0
C1857 C 0.54566 0.4954 0.89773 0.0
C1858 C 0.52781 0.49631 0.8988 0.0
C1859 C 0.51571 0.49336 0.88103 0.0
C1860 C 0.52084 0.49918 0.91831 0.0
C1861 C 0.5589 0.49799 0.91648 0.0
C1862 C 0.50292 0.48287 0.92433 0.0
C1863 C 0.49613 0.48531 0.94272 0.0
C1864 C 0.50715 0.50411 0.95534 0.0
C1865 C 0.52488 0.52059 0.94914 0.0
C1866 C 0.53172 0.51813 0.93075 0.0
H1867 H 0.57006 0.49308 0.91336 0.0
H1868 H 0.56724 0.51478 0.92258 0.0
H1869 H 0.54966 0.48866 0.92832 0.0
H1870 H 0.49428 0.46817 0.91487 0.0
H1871 H 0.48239 0.47238 0.94716 0.0
H1872 H 0.50527 0.04501 0.79215 0.0
H1873 H 0.49638 0.0297 0.82432 0.0
H1874 H 0.55433 0.07752 0.85284 0.0
H1875 H 0.56303 0.09343 0.821 0.0
H1876 H 0.51462 0.01409 0.85025 0.0
H1877 H 0.51478 0.08364 0.88707 0.0
H1878 H 0.51518 0.07981 0.86017 0.0
H1879 H 0.53788 0.08965 0.87669 0.0
C1880 C 0.51608 0.05231 0.8053 0.0
C1881 C 0.53477 0.07056 0.80408 0.0
C1882 C 0.51104 0.04346 0.8236 0.0
C1883 C 0.52457 0.05272 0.84098 0.0
C1884 C 0.54355 0.07039 0.83965 0.0
H1885 H 0.51953 0.02835 0.96645 0.0
H1886 H 0.53016 0.04022 0.93341 0.0
C1887 C 0.54858 0.0793 0.82139 0.0
C1888 C 0.51861 0.04425 0.86063 0.0
H1889 H 0.51105 0.05715 0.90801 0.0
C1890 C 0.51377 0.02345 0.86288 0.0
C1891 C 0.51742 0.05651 0.877 0.0
C1892 C 0.5214 0.07857 0.87513 0.0
C1893 C 0.50813 0.0147 0.88126 0.0
C1894 C 0.50716 0.02706 0.89764 0.0
C1895 C 0.51194 0.04781 0.89538 0.0
C1896 C 0.50111 0.01878 0.9173 0.0
C1897 C 0.50357 0.99247 0.88319 0.0
C1898 C 0.48128 0.00293 0.91915 0.0
C1899 C 0.47533 0.99609 0.93806 0.0
C1900 C 0.48919 0.00488 0.95527 0.0
C1901 C 0.50895 0.02073 0.95334 0.0
C1902 C 0.51489 0.02769 0.93451 0.0
H1903 H 0.50888 0.98658 0.8706 0.0
H1904 H 0.51068 0.99146 0.89771 0.0
H1905 H 0.48706 0.98197 0.88301 0.0
H1906 H 0.47032 0.99619 0.90606 0.0
H1907 H 0.4599 0.98399 0.93923 0.0
H1908 H 0.12009 0.23655 0.52402 0.0
H1909 H 0.12778 0.25452 0.49308 0.0
H1910 H 0.10857 0.29656 0.51687 0.0
H1911 H 0.10099 0.27876 0.54798 0.0
H1912 H 0.10057 0.26346 0.46545 0.0
H1913 H 0.16959 0.3336 0.50352 0.0
H1914 H 0.15829 0.30833 0.51365 0.0
H1915 H 0.14659 0.32408 0.5155 0.0
C1916 C 0.11748 0.2496 0.52263 0.0
C1917 C 0.11008 0.25638 0.53842 0.0
C1918 C 0.12173 0.25972 0.50494 0.0
C1919 C 0.11881 0.27687 0.50284 0.0
C1920 C 0.11096 0.28336 0.51832 0.0
H1921 H 0.13556 0.34159 0.39258 0.0
H1922 H 0.12169 0.32482 0.42321 0.0
C1923 C 0.10656 0.27315 0.53599 0.0
C1924 C 0.12501 0.28856 0.48482 0.0
H1925 H 0.16229 0.33371 0.46884 0.0
C1926 C 0.11394 0.2789 0.46614 0.0
C1927 C 0.14252 0.3086 0.48592 0.0
C1928 C 0.15509 0.31933 0.50566 0.0
C1929 C 0.12014 0.28875 0.44834 0.0
C1930 C 0.13782 0.30869 0.44942 0.0
C1931 C 0.1487 0.31845 0.46816 0.0
C1932 C 0.14606 0.31909 0.43112 0.0
C1933 C 0.10817 0.27749 0.42845 0.0
C1934 C 0.16451 0.32179 0.42576 0.0
C1935 C 0.17233 0.33119 0.4083 0.0
C1936 C 0.16181 0.33804 0.39596 0.0
C1937 C 0.14363 0.33589 0.40162 0.0
C1938 C 0.13576 0.32641 0.41908 0.0
H1939 H 0.09693 0.26075 0.42982 0.0
H1940 H 0.10002 0.28539 0.42291 0.0
H1941 H 0.11832 0.27816 0.41693 0.0
H1942 H 0.1727 0.31631 0.43495 0.0
H1943 H 0.1864 0.3327 0.40424 0.0
H1944 H 0.76751 0.85144 0.54927 0.0
H1945 H 0.75462 0.8459 0.51368 0.0
H1946 H 0.71249 0.86543 0.52968 0.0
H1947 H 0.72539 0.87115 0.56515 0.0
H1948 H 0.71673 0.81984 0.49484 0.0
H1949 H 0.73993 0.90296 0.48573 0.0
H1950 H 0.74908 0.89521 0.50724 0.0
H1951 H 0.72476 0.89318 0.50635 0.0
C1952 C 0.75545 0.85447 0.54518 0.0
C1953 C 0.74756 0.86189 0.55996 0.0
C1954 C 0.74816 0.85138 0.52486 0.0
C1955 C 0.73289 0.85568 0.51899 0.0
C1956 C 0.72467 0.86259 0.53379 0.0
H1957 H 0.65576 0.83999 0.41455 0.0
H1958 H 0.67301 0.84497 0.44809 0.0
C1959 C 0.73202 0.8658 0.55406 0.0
C1960 C 0.72521 0.85257 0.49746 0.0
H1961 H 0.71604 0.87734 0.45996 0.0
C1962 C 0.7168 0.83246 0.48711 0.0
C1963 C 0.72548 0.86912 0.48736 0.0
C1964 C 0.73549 0.89138 0.49717 0.0
C1965 C 0.70784 0.82826 0.4672 0.0
C1966 C 0.70739 0.8446 0.45748 0.0
C1967 C 0.71631 0.86483 0.46758 0.0
C1968 C 0.69686 0.84085 0.43715 0.0
C1969 C 0.69829 0.80625 0.45691 0.0
C1970 C 0.70469 0.83702 0.41995 0.0
C1971 C 0.69491 0.83429 0.40076 0.0
C1972 C 0.67713 0.8352 0.39858 0.0
C1973 C 0.66938 0.83905 0.41584 0.0
C1974 C 0.67918 0.8419 0.43496 0.0
H1975 H 0.6977 0.79477 0.4674 0.0
H1976 H 0.68276 0.80102 0.45036 0.0
H1977 H 0.7071 0.80612 0.44433 0.0
H1978 H 0.71854 0.83655 0.42135 0.0
H1979 H 0.70154 0.83204 0.38767 0.0
H1980 H 0.17144 0.88044 0.56491 0.0
H1981 H 0.17909 0.87391 0.53101 0.0
H1982 H 0.11898 0.85626 0.50726 0.0
H1983 H 0.11136 0.8633 0.54097 0.0
H1984 H 0.1599 0.83709 0.50297 0.0
H1985 H 0.15603 0.90455 0.47412 0.0
H1986 H 0.15761 0.90138 0.5007 0.0
H1987 H 0.13412 0.88596 0.48538 0.0
C1988 C 0.15986 0.8752 0.55246 0.0
C1989 C 0.14085 0.87255 0.55559 0.0
C1990 C 0.16421 0.87134 0.53315 0.0
C1991 C 0.14968 0.86489 0.51664 0.0
C1992 C 0.13047 0.86151 0.5198 0.0
H1993 H 0.15964 0.82347 0.3944 0.0
H1994 H 0.14846 0.82497 0.42792 0.0
C1995 C 0.1261 0.86535 0.53909 0.0
C1996 C 0.15489 0.86241 0.49603 0.0
H1997 H 0.16139 0.88312 0.45061 0.0
C1998 C 0.16018 0.84708 0.49147 0.0
C1999 C 0.15542 0.87565 0.48119 0.0
C2000 C 0.15067 0.89295 0.48555 0.0
C2001 C 0.16598 0.84462 0.47237 0.0
C2002 C 0.1663 0.85772 0.45748 0.0
C2003 C 0.16099 0.87302 0.46205 0.0
C2004 C 0.17296 0.85649 0.43731 0.0
C2005 C 0.17224 0.82843 0.46842 0.0
C2006 C 0.19022 0.87383 0.43143 0.0
C2007 C 0.19649 0.87307 0.41231 0.0
C2008 C 0.18549 0.85503 0.3987 0.0
C2009 C 0.16826 0.83763 0.4046 0.0
C2010 C 0.16197 0.8384 0.42375 0.0
H2011 H 0.17518 0.82276 0.48262 0.0
H2012 H 0.16001 0.8147 0.45884 0.0
H2013 H 0.18598 0.83498 0.46024 0.0
H2014 H 0.19886 0.88794 0.44168 0.0
H2015 H 0.20983 0.88669 0.4081 0.0
H2016 H 0.61071 0.82996 0.1234 0.0
H2017 H 0.62659 0.83891 0.15813 0.0
H2018 H 0.58921 0.77452 0.17081 0.0
H2019 H 0.57294 0.76548 0.13634 0.0
H2020 H 0.60762 0.83166 0.19719 0.0
H2021 H 0.64949 0.78952 0.18317 0.0
H2022 H 0.63886 0.79747 0.16301 0.0
H2023 H 0.62292 0.77471 0.17553 0.0
C2024 C 0.60566 0.81776 0.13366 0.0
C2025 C 0.59068 0.79695 0.12704 0.0
C2026 C 0.61479 0.8229 0.15345 0.0
C2027 C 0.60919 0.80731 0.16687 0.0
C2028 C 0.5939 0.78669 0.16053 0.0
H2029 H 0.6323 0.80931 0.29485 0.0
H2030 H 0.61812 0.80864 0.26091 0.0
C2031 C 0.58471 0.78154 0.14081 0.0
C2032 C 0.61978 0.81232 0.18733 0.0
H2033 H 0.65027 0.80146 0.21709 0.0
C2034 C 0.61707 0.82521 0.20157 0.0
C2035 C 0.63226 0.80408 0.19283 0.0
C2036 C 0.63626 0.7908 0.17783 0.0
C2037 C 0.6261 0.82956 0.22147 0.0
C2038 C 0.63797 0.82063 0.22716 0.0
C2039 C 0.64112 0.80825 0.2127 0.0
C2040 C 0.64679 0.82321 0.24816 0.0
C2041 C 0.6229 0.84369 0.23618 0.0
C2042 C 0.66759 0.83149 0.25224 0.0
C2043 C 0.67571 0.83179 0.27161 0.0
C2044 C 0.66313 0.82374 0.28716 0.0
C2045 C 0.64237 0.81588 0.28318 0.0
C2046 C 0.63426 0.81557 0.26382 0.0
H2047 H 0.61863 0.85398 0.22825 0.0
H2048 H 0.6105 0.83387 0.24535 0.0
H2049 H 0.63665 0.85374 0.2466 0.0
H2050 H 0.67749 0.83733 0.24031 0.0
H2051 H 0.69175 0.83791 0.27431 0.0
H2052 H 0.21388 0.7826 0.14939 0.0
H2053 H 0.20615 0.79211 0.18209 0.0
H2054 H 0.2204 0.85273 0.16325 0.0
H2055 H 0.22804 0.84326 0.13033 0.0
H2056 H 0.23279 0.83037 0.21108 0.0
H2057 H 0.1606 0.82334 0.18059 0.0
H2058 H 0.17235 0.81091 0.16735 0.0
H2059 H 0.1827 0.8388 0.16785 0.0
C2060 C 0.2153 0.79793 0.15219 0.0
C2061 C 0.22139 0.81214 0.13727 0.0
C2062 C 0.21103 0.80338 0.17089 0.0
C2063 C 0.21262 0.82304 0.17495 0.0
C2064 C 0.21902 0.83744 0.16028 0.0
H2065 H 0.19949 0.87058 0.29332 0.0
H2066 H 0.212 0.86803 0.26082 0.0
C2067 C 0.22344 0.83205 0.14157 0.0
C2068 C 0.20693 0.82807 0.19439 0.0
H2069 H 0.16945 0.83198 0.21555 0.0
C2070 C 0.21906 0.83093 0.21212 0.0
C2071 C 0.18893 0.8286 0.19555 0.0
C2072 C 0.17525 0.82515 0.17689 0.0
C2073 C 0.21347 0.83408 0.23113 0.0
C2074 C 0.19533 0.83438 0.23229 0.0
C2075 C 0.18337 0.83179 0.21453 0.0
C2076 C 0.18791 0.8362 0.25185 0.0
C2077 C 0.22667 0.83642 0.24983 0.0
C2078 C 0.17004 0.81932 0.25731 0.0
C2079 C 0.16298 0.8207 0.27586 0.0
C2080 C 0.17368 0.83901 0.28917 0.0
C2081 C 0.19128 0.8561 0.28349 0.0
C2082 C 0.19839 0.85469 0.26496 0.0
H2083 H 0.23801 0.8318 0.24655 0.0
H2084 H 0.23483 0.85311 0.25623 0.0
H2085 H 0.21745 0.82674 0.2615 0.0
H2086 H 0.16171 0.80496 0.24732 0.0
H2087 H 0.14933 0.80733 0.27989 0.0
H2088 H 0.19493 0.43336 0.15943 0.0
H2089 H 0.18613 0.41428 0.18965 0.0
H2090 H 0.20891 0.37505 0.167 0.0
H2091 H 0.2178 0.39412 0.13662 0.0
H2092 H 0.16675 0.3543 0.18154 0.0
H2093 H 0.2281 0.41591 0.23577 0.0
H2094 H 0.21524 0.42471 0.21905 0.0
H2095 H 0.23008 0.4145 0.20889 0.0
C2096 C 0.19803 0.42064 0.16088 0.0
C2097 C 0.207 0.41516 0.14573 0.0
C2098 C 0.19313 0.40989 0.17817 0.0
C2099 C 0.19705 0.39345 0.18052 0.0
C2100 C 0.20593 0.38783 0.16542 0.0
H2101 H 0.17896 0.33144 0.29229 0.0
H2102 H 0.19256 0.34595 0.26074 0.0
C2103 C 0.21102 0.39873 0.14818 0.0
C2104 C 0.19117 0.38175 0.19854 0.0
H2105 H 0.20103 0.38752 0.24971 0.0
C2106 C 0.17436 0.3614 0.19644 0.0
C2107 C 0.20129 0.39109 0.21783 0.0
C2108 C 0.21979 0.41271 0.22064 0.0
C2109 C 0.16682 0.35044 0.21338 0.0
C2110 C 0.17635 0.36021 0.23278 0.0
C2111 C 0.19372 0.38018 0.23478 0.0
C2112 C 0.16781 0.35054 0.25127 0.0
C2113 C 0.14855 0.32867 0.21049 0.0
C2114 C 0.14949 0.34844 0.25629 0.0
C2115 C 0.14194 0.34057 0.2744 0.0
C2116 C 0.15267 0.33478 0.28774 0.0
C2117 C 0.17075 0.33638 0.28246 0.0
C2118 C 0.1784 0.34443 0.26442 0.0
H2119 H 0.14598 0.32148 0.19474 0.0
H2120 H 0.15011 0.31821 0.22093 0.0
H2121 H 0.13506 0.32963 0.21387 0.0
H2122 H 0.14127 0.35335 0.24641 0.0
H2123 H 0.12796 0.33948 0.27816 0.0
H2124 H 0.8235 0.63736 0.8955 0.0
H2125 H 0.83256 0.65733 0.86585 0.0
H2126 H 0.77077 0.62184 0.84027 0.0
H2127 H 0.76162 0.60179 0.86974 0.0
H2128 H 0.8284 0.64001 0.82739 0.0
H2129 H 0.78545 0.68183 0.83077 0.0
H2130 H 0.79005 0.6703 0.85221 0.0
H2131 H 0.77005 0.65414 0.83287 0.0
C2132 C 0.81183 0.63393 0.88361 0.0
C2133 C 0.79185 0.61799 0.88494 0.0
C2134 C 0.817 0.64544 0.86677 0.0
C2135 C 0.80228 0.64131 0.85102 0.0
C2136 C 0.78226 0.62569 0.85249 0.0
H2137 H 0.80598 0.64694 0.72534 0.0
H2138 H 0.79926 0.63956 0.76022 0.0
C2139 C 0.77707 0.61419 0.86932 0.0
C2140 C 0.80812 0.65167 0.83214 0.0
H2141 H 0.7967 0.6784 0.79844 0.0
C2142 C 0.82175 0.64873 0.82125 0.0
C2143 C 0.7995 0.66314 0.82419 0.0
C2144 C 0.7856 0.66774 0.83572 0.0
C2145 C 0.82621 0.65604 0.80218 0.0
C2146 C 0.8167 0.6664 0.79376 0.0
C2147 C 0.80382 0.67028 0.80496 0.0
C2148 C 0.81892 0.67176 0.77269 0.0
C2149 C 0.84059 0.65207 0.79082 0.0
C2150 C 0.83175 0.69246 0.76822 0.0
C2151 C 0.83559 0.69677 0.74821 0.0
C2152 C 0.82659 0.6804 0.73255 0.0
C2153 C 0.81304 0.65989 0.73708 0.0
C2154 C 0.80923 0.65562 0.75698 0.0
H2155 H 0.8495 0.64747 0.80081 0.0
H2156 H 0.83193 0.63914 0.77866 0.0
H2157 H 0.8511 0.6663 0.78364 0.0
H2158 H 0.83935 0.70507 0.78025 0.0
H2159 H 0.8461 0.7127 0.74509 0.0
H2160 H 0.39487 0.2074 0.89532 0.0
H2161 H 0.37719 0.19697 0.86138 0.0
H2162 H 0.40731 0.16258 0.84678 0.0
H2163 H 0.4253 0.1732 0.88053 0.0
H2164 H 0.39583 0.20601 0.82482 0.0
H2165 H 0.34718 0.12002 0.82912 0.0
H2166 H 0.359 0.13851 0.85129 0.0
H2167 H 0.37343 0.13051 0.83679 0.0
C2168 C 0.39776 0.19764 0.88488 0.0
C2169 C 0.4115 0.19113 0.89064 0.0
C2170 C 0.38756 0.19159 0.86556 0.0
C2171 C 0.39077 0.17879 0.85169 0.0
C2172 C 0.40431 0.1721 0.85741 0.0
H2173 H 0.36652 0.16575 0.72153 0.0
H2174 H 0.38157 0.16988 0.756 0.0
C2175 C 0.41457 0.17818 0.87671 0.0
C2176 C 0.38084 0.17348 0.83087 0.0
H2177 H 0.34809 0.13246 0.79681 0.0
C2178 C 0.38536 0.18995 0.81869 0.0
C2179 C 0.3671 0.15251 0.82302 0.0
C2180 C 0.3612 0.13434 0.83574 0.0
C2181 C 0.37669 0.18599 0.79875 0.0
C2182 C 0.36332 0.16499 0.79073 0.0
C2183 C 0.35854 0.14852 0.80298 0.0
C2184 C 0.35381 0.16004 0.76978 0.0
C2185 C 0.38169 0.20432 0.78645 0.0
C2186 C 0.33308 0.15235 0.76611 0.0
C2187 C 0.32444 0.14991 0.74644 0.0
C2188 C 0.3364 0.15503 0.73018 0.0
C2189 C 0.35696 0.1617 0.73379 0.0
C2190 C 0.36559 0.16417 0.75346 0.0
H2191 H 0.38884 0.21952 0.79606 0.0
H2192 H 0.39235 0.20525 0.77545 0.0
H2193 H 0.36794 0.2022 0.77785 0.0
H2194 H 0.32376 0.14902 0.77854 0.0
H2195 H 0.30854 0.14467 0.74402 0.0
H2196 H 0.77834 0.20688 0.87365 0.0
H2197 H 0.78443 0.19708 0.84026 0.0
H2198 H 0.84297 0.20956 0.86404 0.0
H2199 H 0.83669 0.2186 0.89764 0.0
H2200 H 0.81403 0.22244 0.81768 0.0
H2201 H 0.8207 0.15271 0.83205 0.0
H2202 H 0.8102 0.1635 0.84936 0.0
H2203 H 0.83704 0.17525 0.84936 0.0
C2204 C 0.79233 0.20709 0.87189 0.0
C2205 C 0.80701 0.21347 0.88834 0.0
C2206 C 0.79583 0.20161 0.85276 0.0
C2207 C 0.81403 0.20232 0.84972 0.0
C2208 C 0.82864 0.20848 0.86612 0.0
H2209 H 0.87442 0.22018 0.74196 0.0
H2210 H 0.8624 0.22282 0.77464 0.0
C2211 C 0.82514 0.21391 0.88527 0.0
C2212 C 0.81832 0.19802 0.82915 0.0
H2213 H 0.83308 0.16851 0.80158 0.0
C2214 C 0.818 0.21051 0.81411 0.0
C2215 C 0.82321 0.18224 0.82443 0.0
C2216 C 0.82262 0.16751 0.8396 0.0
C2217 C 0.82317 0.20816 0.79468 0.0
C2218 C 0.82916 0.1932 0.79032 0.0
C2219 C 0.82873 0.18016 0.80509 0.0
C2220 C 0.83649 0.19136 0.77069 0.0
C2221 C 0.82218 0.22171 0.77897 0.0
C2222 C 0.8262 0.17258 0.75794 0.0
C2223 C 0.83313 0.171 0.73934 0.0
C2224 C 0.85044 0.18818 0.73327 0.0
C2225 C 0.86096 0.20677 0.74625 0.0
C2226 C 0.85404 0.20834 0.76483 0.0
H2227 H 0.81232 0.22812 0.78291 0.0
H2228 H 0.83751 0.23519 0.77793 0.0
H2229 H 0.81651 0.21267 0.76389 0.0
H2230 H 0.81272 0.15924 0.76231 0.0
H2231 H 0.82495 0.15638 0.72969 0.0
H2232 H 0.23549 0.13722 0.46836 0.0
H2233 H 0.25002 0.14481 0.50357 0.0
H2234 H 0.29412 0.12855 0.48655 0.0
H2235 H 0.27985 0.12117 0.45134 0.0
H2236 H 0.2542 0.11506 0.52739 0.0
H2237 H 0.32728 0.18698 0.51999 0.0
H2238 H 0.30576 0.17749 0.50161 0.0
H2239 H 0.3209 0.16523 0.50172 0.0
C2240 C 0.24846 0.13556 0.4721 0.0
C2241 C 0.25659 0.12866 0.45713 0.0
C2242 C 0.25666 0.1398 0.49219 0.0
C2243 C 0.27325 0.13745 0.49755 0.0
C2244 C 0.28148 0.13073 0.48263 0.0
H2245 H 0.34535 0.14204 0.60157 0.0
H2246 H 0.32967 0.14054 0.56814 0.0
C2247 C 0.27323 0.12636 0.46259 0.0
C2248 C 0.28145 0.14106 0.51889 0.0
H2249 H 0.32427 0.17066 0.55048 0.0
C2250 C 0.26943 0.12736 0.53258 0.0
C2251 C 0.3013 0.15712 0.52547 0.0
C2252 C 0.31455 0.17269 0.5115 0.0
C2253 C 0.27707 0.12871 0.55255 0.0
C2254 C 0.29712 0.14449 0.55903 0.0
C2255 C 0.30892 0.15857 0.54546 0.0
C2256 C 0.30659 0.14585 0.57942 0.0
C2257 C 0.26394 0.11266 0.56624 0.0
C2258 C 0.2989 0.14951 0.59685 0.0
C2259 C 0.30778 0.15021 0.61598 0.0
C2260 C 0.3246 0.14756 0.6179 0.0
C2261 C 0.3324 0.14417 0.60047 0.0
C2262 C 0.3235 0.14337 0.5814 0.0
H2263 H 0.25077 0.09886 0.55766 0.0
H2264 H 0.27264 0.10702 0.57514 0.0
H2265 H 0.25822 0.12002 0.57697 0.0
H2266 H 0.28604 0.15176 0.59566 0.0
H2267 H 0.30131 0.15249 0.62919 0.0
H2268 H 0.87671 0.11163 0.48333 0.0
H2269 H 0.86904 0.12169 0.51581 0.0
H2270 H 0.8862 0.18308 0.49707 0.0
H2271 H 0.89385 0.17309 0.46437 0.0
H2272 H 0.89747 0.16044 0.54458 0.0
H2273 H 0.82595 0.15537 0.51477 0.0
H2274 H 0.83654 0.14155 0.50175 0.0
H2275 H 0.84802 0.16951 0.50155 0.0
C2276 C 0.87877 0.12725 0.48609 0.0
C2277 C 0.88574 0.14154 0.47129 0.0
C2278 C 0.87451 0.13299 0.50466 0.0
C2279 C 0.87697 0.15304 0.5087 0.0
C2280 C 0.88414 0.16749 0.49411 0.0
H2281 H 0.86624 0.20124 0.62802 0.0
H2282 H 0.87813 0.19876 0.59512 0.0
C2283 C 0.88858 0.1618 0.47554 0.0
C2284 C 0.87168 0.15854 0.52817 0.0
H2285 H 0.83486 0.16336 0.54977 0.0
C2286 C 0.8839 0.1613 0.54577 0.0
C2287 C 0.85392 0.15949 0.52953 0.0
C2288 C 0.8402 0.15625 0.51097 0.0
C2289 C 0.87861 0.16466 0.56486 0.0
C2290 C 0.86067 0.16533 0.56626 0.0
C2291 C 0.84863 0.16289 0.5486 0.0
C2292 C 0.8535 0.16725 0.58597 0.0
C2293 C 0.89198 0.16693 0.58337 0.0
C2294 C 0.83555 0.15054 0.59149 0.0
C2295 C 0.82885 0.15187 0.61025 0.0
C2296 C 0.83997 0.16997 0.62376 0.0
C2297 C 0.85766 0.18693 0.61803 0.0
C2298 C 0.86442 0.18555 0.59927 0.0
H2299 H 0.90263 0.16139 0.58002 0.0
H2300 H 0.90092 0.18379 0.58914 0.0
H2301 H 0.8829 0.15804 0.5955 0.0
H2302 H 0.82689 0.13631 0.58137 0.0
H2303 H 0.81511 0.13863 0.6143 0.0
H2304 H 0.84369 0.71874 0.46319 0.0
H2305 H 0.83533 0.70381 0.49557 0.0
H2306 H 0.89175 0.75453 0.52419 0.0
H2307 H 0.89998 0.76994 0.49198 0.0
H2308 H 0.85603 0.69084 0.5222 0.0
H2309 H 0.84905 0.75692 0.55716 0.0
H2310 H 0.84983 0.75296 0.53034 0.0
H2311 H 0.87259 0.76437 0.54699 0.0
C2312 C 0.85428 0.72676 0.4764 0.0
C2313 C 0.8724 0.74562 0.47509 0.0
C2314 C 0.84955 0.71814 0.49482 0.0
C2315 C 0.8628 0.72825 0.51227 0.0
C2316 C 0.8812 0.74669 0.51092 0.0
H2317 H 0.84873 0.67354 0.62775 0.0
H2318 H 0.86204 0.68927 0.59659 0.0
C2319 C 0.88596 0.75534 0.49249 0.0
C2320 C 0.85702 0.71972 0.53192 0.0
H2321 H 0.84492 0.73031 0.57788 0.0
C2322 C 0.85368 0.69947 0.53444 0.0
C2323 C 0.85376 0.73098 0.54769 0.0
C2324 C 0.85631 0.75244 0.54545 0.0
C2325 C 0.84706 0.69011 0.55237 0.0
C2326 C 0.84399 0.70146 0.5682 0.0
C2327 C 0.84744 0.72175 0.56571 0.0
C2328 C 0.83627 0.69221 0.58715 0.0
C2329 C 0.84284 0.66794 0.55399 0.0
C2330 C 0.81763 0.68912 0.59231 0.0
C2331 C 0.81015 0.6804 0.61014 0.0
C2332 C 0.82127 0.67477 0.62313 0.0
C2333 C 0.83996 0.67792 0.61801 0.0
C2334 C 0.84748 0.6867 0.60018 0.0
H2335 H 0.84168 0.65982 0.53901 0.0
H2336 H 0.85528 0.66839 0.56363 0.0
H2337 H 0.82865 0.65854 0.56106 0.0
H2338 H 0.80881 0.69336 0.58245 0.0
H2339 H 0.79572 0.67817 0.61382 0.0
loop_
_geom_bond_atom_site_label_1
_geom_bond_atom_site_label_2
_geom_bond_distance
_geom_bond_site_symmetry_2
_ccdc_geom_bond_type
H0 C5 0.930 . S
H1 C8 0.930 . S
H2 C10 0.930 . S
H3 C4 1.016 . S
C4 H3 1.016 . S
C4 N11 1.286 . S
C5 H0 0.930 . S
C5 C6 1.397 . S
C5 C7 1.361 . S
C6 C5 1.397 . S
C6 C10 1.390 . S
C7 C5 1.361 . S
C7 C8 1.393 . S
C7 N11 1.413 . S
C8 H1 0.930 . S
C8 C7 1.393 . S
C8 C9 1.399 . S
C9 C8 1.399 . S
C9 C10 1.381 . S
C10 H2 0.930 . S
C10 C6 1.390 . S
C10 C9 1.381 . S
N11 C4 1.286 . S
N11 C7 1.413 . S
H12 C17 0.930 . S
H13 C20 0.930 . S
H14 C22 0.930 . S
H15 C16 1.016 . S
C16 H15 1.016 . S
C16 N23 1.286 . S
C17 H12 0.930 . S
C17 C18 1.397 . S
C17 C19 1.361 . S
C18 C17 1.397 . S
C18 C22 1.390 . S
C19 C17 1.361 . S
C19 C20 1.393 . S
C19 N23 1.413 . S
C20 H13 0.930 . S
C20 C19 1.393 . S
C20 C21 1.399 . S
C21 C20 1.399 . S
C21 C22 1.381 . S
C22 H14 0.930 . S
C22 C18 1.390 . S
C22 C21 1.381 . S
N23 C16 1.286 . S
N23 C19 1.413 . S
H24 C29 0.930 . S
H25 C32 0.930 . S
H26 C34 0.930 . S
H27 C28 1.016 . S
C28 H27 1.016 . S
C28 N35 1.286 . S
C29 H24 0.930 . S
C29 C30 1.397 . S
C29 C31 1.361 . S
C30 C29 1.397 . S
C30 C34 1.390 . S
C31 C29 1.361 . S
C31 C32 1.393 . S
C31 N35 1.413 . S
C32 H25 0.930 . S
C32 C31 1.393 . S
C32 C33 1.399 . S
C33 C32 1.399 . S
C33 C34 1.381 . S
C34 H26 0.930 . S
C34 C30 1.390 . S
C34 C33 1.381 . S
N35 C28 1.286 . S
N35 C31 1.413 . S
H36 C41 0.930 . S
H37 C44 0.930 . S
H38 C46 0.930 . S
H39 C40 1.016 . S
C40 H39 1.016 . S
C40 N47 1.286 . S
C41 H36 0.930 . S
C41 C42 1.397 . S
C41 C43 1.361 . S
C42 C41 1.397 . S
C42 C46 1.390 . S
C43 C41 1.361 . S
C43 C44 1.393 . S
C43 N47 1.413 . S
C44 H37 0.930 . S
C44 C43 1.393 . S
C44 C45 1.399 . S
C45 C44 1.399 . S
C45 C46 1.381 . S
C46 H38 0.930 . S
C46 C42 1.390 . S
C46 C45 1.381 . S
N47 C40 1.286 . S
N47 C43 1.413 . S
H48 C53 0.930 . S
H49 C56 0.930 . S
H50 C58 0.930 . S
H51 C52 1.016 . S
C52 H51 1.016 . S
C52 N59 1.286 . S
C53 H48 0.930 . S
C53 C54 1.397 . S
C53 C55 1.361 . S
C54 C53 1.397 . S
C54 C58 1.390 . S
C55 C53 1.361 . S
C55 C56 1.393 . S
C55 N59 1.413 . S
C56 H49 0.930 . S
C56 C55 1.393 . S
C56 C57 1.399 . S
C57 C56 1.399 . S
C57 C58 1.381 . S
C58 H50 0.930 . S
C58 C54 1.390 . S
C58 C57 1.381 . S
N59 C52 1.286 . S
N59 C55 1.413 . S
H60 C65 0.930 . S
H61 C68 0.930 . S
H62 C70 0.930 . S
H63 C64 1.016 . S
C64 H63 1.016 . S
C64 N71 1.286 . S
C65 H60 0.930 . S
C65 C66 1.397 . S
C65 C67 1.361 . S
C66 C65 1.397 . S
C66 C70 1.390 . S
C67 C65 1.361 . S
C67 C68 1.393 . S
C67 N71 1.413 . S
C68 H61 0.930 . S
C68 C67 1.393 . S
C68 C69 1.399 . S
C69 C68 1.399 . S
C69 C70 1.381 . S
C70 H62 0.930 . S
C70 C66 1.390 . S
C70 C69 1.381 . S
N71 C64 1.286 . S
N71 C67 1.413 . S
H72 C77 0.930 . S
H73 C80 0.930 . S
H74 C82 0.930 . S
H75 C76 1.016 . S
C76 H75 1.016 . S
C76 N83 1.286 . S
C77 H72 0.930 . S
C77 C78 1.397 . S
C77 C79 1.361 . S
C78 C77 1.397 . S
C78 C82 1.390 . S
C79 C77 1.361 . S
C79 C80 1.393 . S
C79 N83 1.413 . S
C80 H73 0.930 . S
C80 C79 1.393 . S
C80 C81 1.399 . S
C81 C80 1.399 . S
C81 C82 1.381 . S
C82 H74 0.930 . S
C82 C78 1.390 . S
C82 C81 1.381 . S
N83 C76 1.286 . S
N83 C79 1.413 . S
H84 C89 0.930 . S
H85 C92 0.930 . S
H86 C94 0.930 . S
H87 C88 1.016 . S
C88 H87 1.016 . S
C88 N95 1.286 . S
C89 H84 0.930 . S
C89 C90 1.397 . S
C89 C91 1.361 . S
C90 C89 1.397 . S
C90 C94 1.390 . S
C91 C89 1.361 . S
C91 C92 1.393 . S
C91 N95 1.413 . S
C92 H85 0.930 . S
C92 C91 1.393 . S
C92 C93 1.399 . S
C93 C92 1.399 . S
C93 C94 1.381 . S
C94 H86 0.930 . S
C94 C90 1.390 . S
C94 C93 1.381 . S
N95 C88 1.286 . S
N95 C91 1.413 . S
H96 C101 0.930 . S
H97 C104 0.930 . S
H98 C106 0.930 . S
H99 C100 1.016 . S
C100 H99 1.016 . S
C100 N107 1.286 . S
C101 H96 0.930 . S
C101 C102 1.397 . S
C101 C103 1.361 . S
C102 C101 1.397 . S
C102 C106 1.390 . S
C103 C101 1.361 . S
C103 C104 1.393 . S
C103 N107 1.413 . S
C104 H97 0.930 . S
C104 C103 1.393 . S
C104 C105 1.399 . S
C105 C104 1.399 . S
C105 C106 1.381 . S
C106 H98 0.930 . S
C106 C102 1.390 . S
C106 C105 1.381 . S
N107 C100 1.286 . S
N107 C103 1.413 . S
H108 C113 0.930 . S
H109 C116 0.930 . S
H110 C118 0.930 . S
H111 C112 1.016 . S
C112 H111 1.016 . S
C112 N119 1.286 . S
C113 H108 0.930 . S
C113 C114 1.397 . S
C113 C115 1.361 . S
C114 C113 1.397 . S
C114 C118 1.390 . S
C115 C113 1.361 . S
C115 C116 1.393 . S
C115 N119 1.413 . S
C116 H109 0.930 . S
C116 C115 1.393 . S
C116 C117 1.399 . S
C117 C116 1.399 . S
C117 C118 1.381 . S
C118 H110 0.930 . S
C118 C114 1.390 . S
C118 C117 1.381 . S
N119 C112 1.286 . S
N119 C115 1.413 . S
H120 C125 0.930 . S
H121 C128 0.930 . S
H122 C130 0.930 . S
H123 C124 1.016 . S
C124 H123 1.016 . S
C124 N131 1.286 . S
C125 H120 0.930 . S
C125 C126 1.397 . S
C125 C127 1.361 . S
C126 C125 1.397 . S
C126 C130 1.390 . S
C127 C125 1.361 . S
C127 C128 1.393 . S
C127 N131 1.413 . S
C128 H121 0.930 . S
C128 C127 1.393 . S
C128 C129 1.399 . S
C129 C128 1.399 . S
C129 C130 1.381 . S
C130 H122 0.930 . S
C130 C126 1.390 . S
C130 C129 1.381 . S
N131 C124 1.286 . S
N131 C127 1.413 . S
H132 C137 0.930 . S
H133 C140 0.930 . S
H134 C142 0.930 . S
H135 C136 1.016 . S
C136 H135 1.016 . S
C136 N143 1.286 . S
C137 H132 0.930 . S
C137 C138 1.397 . S
C137 C139 1.361 . S
C138 C137 1.397 . S
C138 C142 1.390 . S
C139 C137 1.361 . S
C139 C140 1.393 . S
C139 N143 1.413 . S
C140 H133 0.930 . S
C140 C139 1.393 . S
C140 C141 1.399 . S
C141 C140 1.399 . S
C141 C142 1.381 . S
C142 H134 0.930 . S
C142 C138 1.390 . S
C142 C141 1.381 . S
N143 C136 1.286 . S
N143 C139 1.413 . S
H144 C149 0.930 . S
H145 C152 0.930 . S
H146 C154 0.930 . S
H147 C148 1.016 . S
C148 H147 1.016 . S
C148 N155 1.286 . S
C149 H144 0.930 . S
C149 C150 1.397 . S
C149 C151 1.361 . S
C150 C149 1.397 . S
C150 C154 1.390 . S
C151 C149 1.361 . S
C151 C152 1.393 . S
C151 N155 1.413 . S
C152 H145 0.930 . S
C152 C151 1.393 . S
C152 C153 1.399 . S
C153 C152 1.399 . S
C153 C154 1.381 . S
C154 H146 0.930 . S
C154 C150 1.390 . S
C154 C153 1.381 . S
N155 C148 1.286 . S
N155 C151 1.413 . S
H156 C161 0.930 . S
H157 C164 0.930 . S
H158 C166 0.930 . S
H159 C160 1.016 . S
C160 H159 1.016 . S
C160 N167 1.286 . S
C161 H156 0.930 . S
C161 C162 1.397 . S
C161 C163 1.361 . S
C162 C161 1.397 . S
C162 C166 1.390 . S
C163 C161 1.361 . S
C163 C164 1.393 . S
C163 N167 1.413 . S
C164 H157 0.930 . S
C164 C163 1.393 . S
C164 C165 1.399 . S
C165 C164 1.399 . S
C165 C166 1.381 . S
C166 H158 0.930 . S
C166 C162 1.390 . S
C166 C165 1.381 . S
N167 C160 1.286 . S
N167 C163 1.413 . S
H168 C173 0.930 . S
H169 C176 0.930 . S
H170 C178 0.930 . S
H171 C172 1.016 . S
C172 H171 1.016 . S
C172 N179 1.286 . S
C173 H168 0.930 . S
C173 C174 1.397 . S
C173 C175 1.361 . S
C174 C173 1.397 . S
C174 C178 1.390 . S
C175 C173 1.361 . S
C175 C176 1.393 . S
C175 N179 1.413 . S
C176 H169 0.930 . S
C176 C175 1.393 . S
C176 C177 1.399 . S
C177 C176 1.399 . S
C177 C178 1.381 . S
C178 H170 0.930 . S
C178 C174 1.390 . S
C178 C177 1.381 . S
N179 C172 1.286 . S
N179 C175 1.413 . S
H180 C185 0.930 . S
H181 C188 0.930 . S
H182 C190 0.930 . S
H183 C184 1.016 . S
C184 H183 1.016 . S
C184 N191 1.286 . S
C185 H180 0.930 . S
C185 C186 1.397 . S
C185 C187 1.361 . S
C186 C185 1.397 . S
C186 C190 1.390 . S
C187 C185 1.361 . S
C187 C188 1.393 . S
C187 N191 1.413 . S
C188 H181 0.930 . S
C188 C187 1.393 . S
C188 C189 1.399 . S
C189 C188 1.399 . S
C189 C190 1.381 . S
C190 H182 0.930 . S
C190 C186 1.390 . S
C190 C189 1.381 . S
N191 C184 1.286 . S
N191 C187 1.413 . S
H192 C197 0.930 . S
H193 C200 0.930 . S
H194 C202 0.930 . S
H195 C196 1.016 . S
C196 H195 1.016 . S
C196 N203 1.286 . S
C197 H192 0.930 . S
C197 C198 1.397 . S
C197 C199 1.361 . S
C198 C197 1.397 . S
C198 C202 1.390 . S
C199 C197 1.361 . S
C199 C200 1.393 . S
C199 N203 1.413 . S
C200 H193 0.930 . S
C200 C199 1.393 . S
C200 C201 1.399 . S
C201 C200 1.399 . S
C201 C202 1.381 . S
C202 H194 0.930 . S
C202 C198 1.390 . S
C202 C201 1.381 . S
N203 C196 1.286 . S
N203 C199 1.413 . S
H204 C209 0.930 . S
H205 C212 0.930 . S
H206 C214 0.930 . S
H207 C208 1.016 . S
C208 H207 1.016 . S
C208 N215 1.286 . S
C209 H204 0.930 . S
C209 C210 1.397 . S
C209 C211 1.361 . S
C210 C209 1.397 . S
C210 C214 1.390 . S
C211 C209 1.361 . S
C211 C212 1.393 . S
C211 N215 1.413 . S
C212 H205 0.930 . S
C212 C211 1.393 . S
C212 C213 1.399 . S
C213 C212 1.399 . S
C213 C214 1.381 . S
C214 H206 0.930 . S
C214 C210 1.390 . S
C214 C213 1.381 . S
N215 C208 1.286 . S
N215 C211 1.413 . S
Tb216 O219 2.453 . S
Tb216 O220 2.596 1_545 S
Tb216 O221 2.374 1_545 S
Tb216 O229 2.343 1_554 S
Tb216 O231 2.353 . S
Tb216 O233 2.427 . S
Tb216 O234 2.513 . S
C217 O221 1.251 . S
C217 O223 1.259 1_554 S
Tb218 O220 2.343 1_556 S
Tb218 O223 2.354 . S
Tb218 O226 2.427 1_556 S
Tb218 O227 2.513 1_556 S
Tb218 O228 2.453 . S
Tb218 O229 2.596 1_565 S
Tb218 O230 2.369 1_566 S
O219 Tb216 2.453 . S
O219 C235 1.245 1_545 S
O220 Tb216 2.596 1_565 S
O220 Tb218 2.343 1_554 S
O220 C235 1.259 . S
O221 Tb216 2.374 1_565 S
O221 C217 1.251 . S
C222 O226 1.275 . S
C222 O227 1.246 . S
O223 C217 1.259 1_556 S
O223 Tb218 2.354 . S
C224 O228 1.245 1_545 S
C224 O229 1.259 . S
C225 O230 1.260 . S
C225 O231 1.263 . S
O226 Tb218 2.427 1_554 S
O226 C222 1.275 . S
O227 Tb218 2.513 1_554 S
O227 C222 1.246 . S
O228 Tb218 2.453 . S
O228 C224 1.245 1_565 S
O229 Tb216 2.343 1_556 S
O229 Tb218 2.596 1_545 S
O229 C224 1.259 . S
O230 Tb218 2.369 1_544 S
O230 C225 1.260 . S
O231 Tb216 2.353 . S
O231 C225 1.263 . S
C232 O233 1.275 1_556 S
C232 O234 1.246 1_556 S
O233 Tb216 2.427 . S
O233 C232 1.275 1_554 S
O234 Tb216 2.513 . S
O234 C232 1.246 1_554 S
C235 O219 1.245 1_565 S
C235 O220 1.259 . S
Tb236 O239 2.453 . S
Tb236 O240 2.596 1_655 S
Tb236 O241 2.374 1_655 S
Tb236 O249 2.343 1_554 S
Tb236 O251 2.353 . S
Tb236 O253 2.427 1_554 S
Tb236 O254 2.513 1_554 S
C237 O241 1.251 . S
C237 O243 1.263 . S
Tb238 O240 2.343 1_556 S
Tb238 O243 2.353 1_556 S
Tb238 O246 2.427 1_556 S
Tb238 O247 2.513 1_556 S
Tb238 O248 2.453 . S
Tb238 O249 2.596 1_455 S
Tb238 O250 2.377 1_455 S
O239 Tb236 2.453 . S
O239 C255 1.245 1_655 S
O240 Tb236 2.596 1_455 S
O240 Tb238 2.343 1_554 S
O240 C255 1.259 . S
O241 Tb236 2.374 1_455 S
O241 C237 1.251 . S
C242 O246 1.275 . S
C242 O247 1.246 . S
O243 C237 1.263 . S
O243 Tb238 2.353 1_554 S
C244 O248 1.245 1_655 S
C244 O249 1.259 . S
C245 O250 1.246 1_554 S
C245 O251 1.263 . S
O246 Tb238 2.427 1_554 S
O246 C242 1.275 . S
O247 Tb238 2.513 1_554 S
O247 C242 1.246 . S
O248 Tb238 2.453 . S
O248 C244 1.245 1_455 S
O249 Tb236 2.343 1_556 S
O249 Tb238 2.596 1_655 S
O249 C244 1.259 . S
O250 Tb238 2.377 1_655 S
O250 C245 1.246 1_556 S
O251 Tb236 2.353 . S
O251 C245 1.263 . S
C252 O253 1.275 . S
C252 O254 1.246 . S
O253 Tb236 2.427 1_556 S
O253 C252 1.275 . S
O254 Tb236 2.513 1_556 S
O254 C252 1.246 . S
C255 O239 1.245 1_455 S
C255 O240 1.259 . S
Tb256 O259 2.453 1_554 S
Tb256 O260 2.596 1_554 S
Tb256 O261 2.374 . S
Tb256 O269 2.343 . S
Tb256 O271 2.353 . S
Tb256 O273 2.427 . S
Tb256 O274 2.513 . S
C257 O261 1.251 . S
C257 O263 1.263 . S
Tb258 O260 2.343 1_554 S
Tb258 O263 2.353 . S
Tb258 O266 2.427 . S
Tb258 O267 2.513 . S
Tb258 O268 2.453 . S
Tb258 O269 2.596 . S
Tb258 O270 2.374 . S
O259 Tb256 2.453 1_556 S
O259 C275 1.245 . S
O260 Tb256 2.596 1_556 S
O260 Tb258 2.343 1_556 S
O260 C275 1.259 . S
O261 Tb256 2.374 . S
O261 C257 1.251 . S
C262 O266 1.275 1_556 S
C262 O267 1.246 1_556 S
O263 C257 1.263 . S
O263 Tb258 2.353 . S
C264 O268 1.245 . S
C264 O269 1.259 . S
C265 O270 1.250 . S
C265 O271 1.263 . S
O266 Tb258 2.427 . S
O266 C262 1.275 1_554 S
O267 Tb258 2.513 . S
O267 C262 1.246 1_554 S
O268 Tb258 2.453 . S
O268 C264 1.245 . S
O269 Tb256 2.343 . S
O269 Tb258 2.596 . S
O269 C264 1.259 . S
O270 Tb258 2.374 . S
O270 C265 1.250 . S
O271 Tb256 2.353 . S
O271 C265 1.263 . S
C272 O273 1.275 . S
C272 O274 1.246 . S
O273 Tb256 2.427 . S
O273 C272 1.275 . S
O274 Tb256 2.513 . S
O274 C272 1.246 . S
C275 O259 1.245 . S
C275 O260 1.259 . S
Tb276 O279 2.453 . S
Tb276 O280 2.596 . S
Tb276 O281 2.374 . S
Tb276 O289 2.343 . S
Tb276 O291 2.353 . S
Tb276 O293 2.427 . S
Tb276 O294 2.513 . S
C277 O281 1.251 . S
C277 O283 1.263 . S
Tb278 O280 2.343 . S
Tb278 O283 2.353 . S
Tb278 O286 2.427 . S
Tb278 O287 2.513 . S
Tb278 O288 2.453 . S
Tb278 O289 2.596 . S
Tb278 O290 2.374 . S
O279 Tb276 2.453 . S
O279 C295 1.245 . S
O280 Tb276 2.596 . S
O280 Tb278 2.343 . S
O280 C295 1.259 . S
O281 Tb276 2.374 . S
O281 C277 1.251 . S
C282 O286 1.275 . S
C282 O287 1.246 . S
O283 C277 1.263 . S
O283 Tb278 2.353 . S
C284 O288 1.245 . S
C284 O289 1.259 . S
C285 O290 1.250 . S
C285 O291 1.263 . S
O286 Tb278 2.427 . S
O286 C282 1.275 . S
O287 Tb278 2.513 . S
O287 C282 1.246 . S
O288 Tb278 2.453 . S
O288 C284 1.245 . S
O289 Tb276 2.343 . S
O289 Tb278 2.596 . S
O289 C284 1.259 . S
O290 Tb278 2.374 . S
O290 C285 1.250 . S
O291 Tb276 2.353 . S
O291 C285 1.263 . S
C292 O293 1.275 . S
C292 O294 1.246 . S
O293 Tb276 2.427 . S
O293 C292 1.275 . S
O294 Tb276 2.513 . S
O294 C292 1.246 . S
C295 O279 1.245 . S
C295 O280 1.259 . S
Tb296 O299 2.453 . S
Tb296 O300 2.596 . S
Tb296 O301 2.374 . S
Tb296 O309 2.343 . S
Tb296 O311 2.353 . S
Tb296 O313 2.427 . S
Tb296 O314 2.513 . S
C297 O301 1.251 . S
C297 O303 1.263 . S
Tb298 O300 2.343 . S
Tb298 O303 2.353 . S
Tb298 O306 2.427 . S
Tb298 O307 2.513 . S
Tb298 O308 2.453 . S
Tb298 O309 2.596 . S
Tb298 O310 2.374 . S
O299 Tb296 2.453 . S
O299 C315 1.245 . S
O300 Tb296 2.596 . S
O300 Tb298 2.343 . S
O300 C315 1.259 . S
O301 Tb296 2.374 . S
O301 C297 1.251 . S
C302 O306 1.275 . S
C302 O307 1.246 . S
O303 C297 1.263 . S
O303 Tb298 2.353 . S
C304 O308 1.245 . S
C304 O309 1.259 . S
C305 O310 1.250 . S
C305 O311 1.263 . S
O306 Tb298 2.427 . S
O306 C302 1.275 . S
O307 Tb298 2.513 . S
O307 C302 1.246 . S
O308 Tb298 2.453 . S
O308 C304 1.245 . S
O309 Tb296 2.343 . S
O309 Tb298 2.596 . S
O309 C304 1.259 . S
O310 Tb298 2.374 . S
O310 C305 1.250 . S
O311 Tb296 2.353 . S
O311 C305 1.263 . S
C312 O313 1.275 . S
C312 O314 1.246 . S
O313 Tb296 2.427 . S
O313 C312 1.275 . S
O314 Tb296 2.513 . S
O314 C312 1.246 . S
C315 O299 1.245 . S
C315 O300 1.259 . S
Tb316 O319 2.453 . S
Tb316 O320 2.596 . S
Tb316 O321 2.374 . S
Tb316 O329 2.343 . S
Tb316 O331 2.353 . S
Tb316 O333 2.427 . S
Tb316 O334 2.513 . S
C317 O321 1.251 . S
C317 O323 1.263 . S
Tb318 O320 2.343 . S
Tb318 O323 2.353 . S
Tb318 O326 2.427 . S
Tb318 O327 2.513 . S
Tb318 O328 2.453 . S
Tb318 O329 2.596 . S
Tb318 O330 2.374 . S
O319 Tb316 2.453 . S
O319 C335 1.245 . S
O320 Tb316 2.596 . S
O320 Tb318 2.343 . S
O320 C335 1.259 . S
O321 Tb316 2.374 . S
O321 C317 1.251 . S
C322 O326 1.275 . S
C322 O327 1.246 . S
O323 C317 1.263 . S
O323 Tb318 2.353 . S
C324 O328 1.245 . S
C324 O329 1.259 . S
C325 O330 1.250 . S
C325 O331 1.263 . S
O326 Tb318 2.427 . S
O326 C322 1.275 . S
O327 Tb318 2.513 . S
O327 C322 1.246 . S
O328 Tb318 2.453 . S
O328 C324 1.245 . S
O329 Tb316 2.343 . S
O329 Tb318 2.596 . S
O329 C324 1.259 . S
O330 Tb318 2.374 . S
O330 C325 1.250 . S
O331 Tb316 2.353 . S
O331 C325 1.263 . S
C332 O333 1.275 . S
C332 O334 1.246 . S
O333 Tb316 2.427 . S
O333 C332 1.275 . S
O334 Tb316 2.513 . S
O334 C332 1.246 . S
C335 O319 1.245 . S
C335 O320 1.259 . S
Tb336 O339 2.453 . S
Tb336 O340 2.596 . S
Tb336 O341 2.374 . S
Tb336 O349 2.343 . S
Tb336 O351 2.353 . S
Tb336 O353 2.427 . S
Tb336 O354 2.513 . S
C337 O341 1.251 . S
C337 O343 1.263 . S
Tb338 O340 2.343 . S
Tb338 O343 2.353 . S
Tb338 O346 2.427 . S
Tb338 O347 2.513 . S
Tb338 O348 2.453 . S
Tb338 O349 2.596 . S
Tb338 O350 2.374 . S
O339 Tb336 2.453 . S
O339 C355 1.245 . S
O340 Tb336 2.596 . S
O340 Tb338 2.343 . S
O340 C355 1.259 . S
O341 Tb336 2.374 . S
O341 C337 1.251 . S
C342 O346 1.275 . S
C342 O347 1.246 . S
O343 C337 1.263 . S
O343 Tb338 2.353 . S
C344 O348 1.245 . S
C344 O349 1.259 . S
C345 O350 1.250 . S
C345 O351 1.263 . S
O346 Tb338 2.427 . S
O346 C342 1.275 . S
O347 Tb338 2.513 . S
O347 C342 1.246 . S
O348 Tb338 2.453 . S
O348 C344 1.245 . S
O349 Tb336 2.343 . S
O349 Tb338 2.596 . S
O349 C344 1.259 . S
O350 Tb338 2.374 . S
O350 C345 1.250 . S
O351 Tb336 2.353 . S
O351 C345 1.263 . S
C352 O353 1.275 . S
C352 O354 1.246 . S
O353 Tb336 2.427 . S
O353 C352 1.275 . S
O354 Tb336 2.513 . S
O354 C352 1.246 . S
C355 O339 1.245 . S
C355 O340 1.259 . S
Tb356 O359 2.453 . S
Tb356 O360 2.596 . S
Tb356 O361 2.374 . S
Tb356 O369 2.343 . S
Tb356 O371 2.353 . S
Tb356 O373 2.427 . S
Tb356 O374 2.513 . S
C357 O361 1.251 . S
C357 O363 1.263 . S
Tb358 O360 2.343 . S
Tb358 O363 2.353 . S
Tb358 O366 2.427 . S
Tb358 O367 2.513 . S
Tb358 O368 2.453 . S
Tb358 O369 2.596 . S
Tb358 O370 2.374 . S
O359 Tb356 2.453 . S
O359 C375 1.245 . S
O360 Tb356 2.596 . S
O360 Tb358 2.343 . S
O360 C375 1.259 . S
O361 Tb356 2.374 . S
O361 C357 1.251 . S
C362 O366 1.275 . S
C362 O367 1.246 . S
O363 C357 1.263 . S
O363 Tb358 2.353 . S
C364 O368 1.245 . S
C364 O369 1.259 . S
C365 O370 1.250 . S
C365 O371 1.263 . S
O366 Tb358 2.427 . S
O366 C362 1.275 . S
O367 Tb358 2.513 . S
O367 C362 1.246 . S
O368 Tb358 2.453 . S
O368 C364 1.245 . S
O369 Tb356 2.343 . S
O369 Tb358 2.596 . S
O369 C364 1.259 . S
O370 Tb358 2.374 . S
O370 C365 1.250 . S
O371 Tb356 2.353 . S
O371 C365 1.263 . S
C372 O373 1.275 . S
C372 O374 1.246 . S
O373 Tb356 2.427 . S
O373 C372 1.275 . S
O374 Tb356 2.513 . S
O374 C372 1.246 . S
C375 O359 1.245 . S
C375 O360 1.259 . S
Tb376 O379 2.453 . S
Tb376 O380 2.596 . S
Tb376 O381 2.374 . S
Tb376 O389 2.343 . S
Tb376 O391 2.353 . S
Tb376 O393 2.427 . S
Tb376 O394 2.513 . S
C377 O381 1.251 . S
C377 O383 1.263 . S
Tb378 O380 2.343 . S
Tb378 O383 2.353 . S
Tb378 O386 2.427 . S
Tb378 O387 2.513 . S
Tb378 O388 2.453 . S
Tb378 O389 2.596 . S
Tb378 O390 2.374 . S
O379 Tb376 2.453 . S
O379 C395 1.245 . S
O380 Tb376 2.596 . S
O380 Tb378 2.343 . S
O380 C395 1.259 . S
O381 Tb376 2.374 . S
O381 C377 1.251 . S
C382 O386 1.275 . S
C382 O387 1.246 . S
O383 C377 1.263 . S
O383 Tb378 2.353 . S
C384 O388 1.245 . S
C384 O389 1.259 . S
C385 O390 1.250 . S
C385 O391 1.263 . S
O386 Tb378 2.427 . S
O386 C382 1.275 . S
O387 Tb378 2.513 . S
O387 C382 1.246 . S
O388 Tb378 2.453 . S
O388 C384 1.245 . S
O389 Tb376 2.343 . S
O389 Tb378 2.596 . S
O389 C384 1.259 . S
O390 Tb378 2.374 . S
O390 C385 1.250 . S
O391 Tb376 2.353 . S
O391 C385 1.263 . S
C392 O393 1.275 . S
C392 O394 1.246 . S
O393 Tb376 2.427 . S
O393 C392 1.275 . S
O394 Tb376 2.513 . S
O394 C392 1.246 . S
C395 O379 1.245 . S
C395 O380 1.259 . S
H396 C404 0.929 . S
H397 C406 0.930 . S
H398 C408 0.930 . S
H399 C411 0.929 . S
H400 C414 0.930 . S
H401 C416 0.960 . S
H402 C416 0.960 . S
H403 C416 0.960 . S
C404 H396 0.929 . S
C404 C405 1.377 . S
C404 C406 1.384 . S
C405 C404 1.377 . S
C405 C411 1.390 . S
C406 H397 0.930 . S
C406 C404 1.384 . S
C406 C407 1.372 . S
C407 C406 1.372 . S
C407 C408 1.400 . S
C407 C412 1.490 . S
C408 H398 0.930 . S
C408 C407 1.400 . S
C408 C411 1.386 . S
H409 C425 0.930 . S
H410 C426 0.931 . S
C411 H399 0.929 . S
C411 C405 1.390 . S
C411 C408 1.386 . S
C412 C407 1.490 . S
C412 C414 1.395 . S
C412 C415 1.403 . S
H413 C419 0.930 . S
C414 H400 0.930 . S
C414 C412 1.395 . S
C414 C417 1.403 . S
C415 C412 1.403 . S
C415 C416 1.524 . S
C415 C419 1.400 . S
C416 H401 0.960 . S
C416 H402 0.960 . S
C416 H403 0.960 . S
C416 C415 1.524 . S
C417 C414 1.403 . S
C417 C418 1.392 . S
C417 C421 1.495 . S
C418 C417 1.392 . S
C418 C419 1.385 . S
C418 C420 1.478 . S
C419 H413 0.930 . S
C419 C415 1.400 . S
C419 C418 1.385 . S
C420 C418 1.478 . S
C420 C422 1.381 . S
C420 C426 1.383 . S
C421 C417 1.495 . S
C421 H427 0.959 1_554 S
C421 H428 0.961 . S
C421 H429 0.960 1_554 S
C422 C420 1.381 . S
C422 C423 1.394 . S
C422 H430 0.930 . S
C423 C422 1.394 . S
C423 C424 1.383 . S
C423 H431 0.929 . S
C424 C423 1.383 . S
C424 C425 1.377 . S
C425 H409 0.930 . S
C425 C424 1.377 . S
C425 C426 1.379 . S
C426 H410 0.931 . S
C426 C420 1.383 . S
C426 C425 1.379 . S
H427 C421 0.959 1_556 S
H428 C421 0.961 . S
H429 C421 0.960 1_556 S
H430 C422 0.930 . S
H431 C423 0.929 . S
H432 C440 0.929 . S
H433 C442 0.930 . S
H434 C444 0.930 . S
H435 C447 0.929 . S
H436 C450 0.930 . S
H437 C452 0.960 . S
H438 C452 0.960 . S
H439 C452 0.960 . S
C440 H432 0.929 . S
C440 C441 1.377 . S
C440 C442 1.384 . S
C441 C440 1.377 . S
C441 C447 1.390 . S
C442 H433 0.930 . S
C442 C440 1.384 . S
C442 C443 1.372 . S
C443 C442 1.372 . S
C443 C444 1.400 . S
C443 C448 1.490 . S
C444 H434 0.930 . S
C444 C443 1.400 . S
C444 C447 1.386 . S
H445 C461 0.930 . S
H446 C462 0.931 . S
C447 H435 0.929 . S
C447 C441 1.390 . S
C447 C444 1.386 . S
C448 C443 1.490 . S
C448 C450 1.395 . S
C448 C451 1.403 . S
H449 C455 0.930 . S
C450 H436 0.930 . S
C450 C448 1.395 . S
C450 C453 1.403 . S
C451 C448 1.403 . S
C451 C452 1.524 . S
C451 C455 1.400 . S
C452 H437 0.960 . S
C452 H438 0.960 . S
C452 H439 0.960 . S
C452 C451 1.524 . S
C453 C450 1.403 . S
C453 C454 1.392 . S
C453 C457 1.495 . S
C454 C453 1.392 . S
C454 C455 1.385 . S
C454 C456 1.478 . S
C455 H449 0.930 . S
C455 C451 1.400 . S
C455 C454 1.385 . S
C456 C454 1.478 . S
C456 C458 1.381 . S
C456 C462 1.383 . S
C457 C453 1.495 . S
C457 H463 0.959 . S
C457 H464 0.961 . S
C457 H465 0.960 . S
C458 C456 1.381 . S
C458 C459 1.394 . S
C458 H466 0.930 . S
C459 C458 1.394 . S
C459 C460 1.383 . S
C459 H467 0.929 . S
C460 C459 1.383 . S
C460 C461 1.377 . S
C461 H445 0.930 . S
C461 C460 1.377 . S
C461 C462 1.379 . S
C462 H446 0.931 . S
C462 C456 1.383 . S
C462 C461 1.379 . S
H463 C457 0.959 . S
H464 C457 0.961 . S
H465 C457 0.960 . S
H466 C458 0.930 . S
H467 C459 0.929 . S
H468 C476 0.929 . S
H469 C478 0.930 . S
H470 C480 0.930 . S
H471 C483 0.929 . S
H472 C486 0.930 . S
H473 C488 0.960 1_556 S
H474 C488 0.960 . S
H475 C488 0.960 . S
C476 H468 0.929 . S
C476 C477 1.377 . S
C476 C478 1.384 . S
C477 C476 1.377 . S
C477 C483 1.390 . S
C478 H469 0.930 . S
C478 C476 1.384 . S
C478 C479 1.372 . S
C479 C478 1.372 . S
C479 C480 1.400 . S
C479 C484 1.490 . S
C480 H470 0.930 . S
C480 C479 1.400 . S
C480 C483 1.386 . S
H481 C497 0.930 . S
H482 C498 0.931 . S
C483 H471 0.929 . S
C483 C477 1.390 . S
C483 C480 1.386 . S
C484 C479 1.490 . S
C484 C486 1.395 . S
C484 C487 1.403 . S
H485 C491 0.930 . S
C486 H472 0.930 . S
C486 C484 1.395 . S
C486 C489 1.403 . S
C487 C484 1.403 . S
C487 C488 1.524 . S
C487 C491 1.400 . S
C488 H473 0.960 1_554 S
C488 H474 0.960 . S
C488 H475 0.960 . S
C488 C487 1.524 . S
C489 C486 1.403 . S
C489 C490 1.392 . S
C489 C493 1.495 . S
C490 C489 1.392 . S
C490 C491 1.385 . S
C490 C492 1.478 . S
C491 H485 0.930 . S
C491 C487 1.400 . S
C491 C490 1.385 . S
C492 C490 1.478 . S
C492 C494 1.381 . S
C492 C498 1.383 . S
C493 C489 1.495 . S
C493 H499 0.959 . S
C493 H500 0.961 . S
C493 H501 0.960 . S
C494 C492 1.381 . S
C494 C495 1.394 . S
C494 H502 0.930 . S
C495 C494 1.394 . S
C495 C496 1.383 . S
C495 H503 0.929 . S
C496 C495 1.383 . S
C496 C497 1.377 . S
C497 H481 0.930 . S
C497 C496 1.377 . S
C497 C498 1.379 . S
C498 H482 0.931 . S
C498 C492 1.383 . S
C498 C497 1.379 . S
H499 C493 0.959 . S
H500 C493 0.961 . S
H501 C493 0.960 . S
H502 C494 0.930 . S
H503 C495 0.929 . S
H504 C512 0.929 . S
H505 C514 0.930 . S
H506 C516 0.930 . S
H507 C519 0.929 . S
H508 C522 0.930 . S
H509 C524 0.960 . S
H510 C524 0.960 . S
H511 C524 0.960 . S
C512 H504 0.929 . S
C512 C513 1.377 . S
C512 C514 1.384 . S
C513 C512 1.377 . S
C513 C519 1.390 . S
C514 H505 0.930 . S
C514 C512 1.384 . S
C514 C515 1.372 . S
C515 C514 1.372 . S
C515 C516 1.400 . S
C515 C520 1.490 . S
C516 H506 0.930 . S
C516 C515 1.400 . S
C516 C519 1.386 . S
H517 C533 0.930 . S
H518 C534 0.931 . S
C519 H507 0.929 . S
C519 C513 1.390 . S
C519 C516 1.386 . S
C520 C515 1.490 . S
C520 C522 1.395 . S
C520 C523 1.403 . S
H521 C527 0.930 . S
C522 H508 0.930 . S
C522 C520 1.395 . S
C522 C525 1.403 . S
C523 C520 1.403 . S
C523 C524 1.524 . S
C523 C527 1.400 . S
C524 H509 0.960 . S
C524 H510 0.960 . S
C524 H511 0.960 . S
C524 C523 1.524 . S
C525 C522 1.403 . S
C525 C526 1.392 . S
C525 C529 1.495 1_556 S
C526 C525 1.392 . S
C526 C527 1.385 . S
C526 C528 1.478 . S
C527 H521 0.930 . S
C527 C523 1.400 . S
C527 C526 1.385 . S
C528 C526 1.478 . S
C528 C530 1.381 . S
C528 C534 1.383 . S
C529 C525 1.495 1_554 S
C529 H535 0.959 . S
C529 H536 0.961 . S
C529 H537 0.960 . S
C530 C528 1.381 . S
C530 C531 1.394 . S
C530 H538 0.930 . S
C531 C530 1.394 . S
C531 C532 1.383 . S
C531 H539 0.929 . S
C532 C531 1.383 . S
C532 C533 1.377 . S
C533 H517 0.930 . S
C533 C532 1.377 . S
C533 C534 1.379 . S
C534 H518 0.931 . S
C534 C528 1.383 . S
C534 C533 1.379 . S
H535 C529 0.959 . S
H536 C529 0.961 . S
H537 C529 0.960 . S
H538 C530 0.930 . S
H539 C531 0.929 . S
H540 C548 0.929 . S
H541 C550 0.930 . S
H542 C552 0.930 . S
H543 C555 0.929 . S
H544 C558 0.930 . S
H545 C560 0.960 . S
H546 C560 0.960 . S
H547 C560 0.960 . S
C548 H540 0.929 . S
C548 C549 1.377 . S
C548 C550 1.384 . S
C549 C548 1.377 . S
C549 C555 1.390 . S
C550 H541 0.930 . S
C550 C548 1.384 . S
C550 C551 1.372 . S
C551 C550 1.372 . S
C551 C552 1.400 . S
C551 C556 1.490 . S
C552 H542 0.930 . S
C552 C551 1.400 . S
C552 C555 1.386 . S
H553 C569 0.930 . S
H554 C570 0.931 . S
C555 H543 0.929 . S
C555 C549 1.390 . S
C555 C552 1.386 . S
C556 C551 1.490 . S
C556 C558 1.395 . S
C556 C559 1.403 . S
H557 C563 0.930 . S
C558 H544 0.930 . S
C558 C556 1.395 . S
C558 C561 1.403 . S
C559 C556 1.403 . S
C559 C560 1.524 . S
C559 C563 1.400 . S
C560 H545 0.960 . S
C560 H546 0.960 . S
C560 H547 0.960 . S
C560 C559 1.524 . S
C561 C558 1.403 . S
C561 C562 1.392 . S
C561 C565 1.538 . S
C562 C561 1.392 . S
C562 C563 1.385 . S
C562 C564 1.478 . S
C563 H557 0.930 . S
C563 C559 1.400 . S
C563 C562 1.385 . S
C564 C562 1.478 . S
C564 C566 1.381 . S
C564 C570 1.383 . S
C565 C561 1.538 . S
C565 H571 0.947 1_556 S
C565 H572 0.932 1_556 S
C565 H573 0.961 . S
C566 C564 1.381 . S
C566 C567 1.394 . S
C566 H574 0.930 . S
C567 C566 1.394 . S
C567 C568 1.383 . S
C567 H575 0.929 . S
C568 C567 1.383 . S
C568 C569 1.377 . S
C569 H553 0.930 . S
C569 C568 1.377 . S
C569 C570 1.379 . S
C570 H554 0.931 . S
C570 C564 1.383 . S
C570 C569 1.379 . S
H571 C565 0.947 1_554 S
H572 C565 0.932 1_554 S
H573 C565 0.961 . S
H574 C566 0.930 . S
H575 C567 0.929 . S
H576 C584 0.929 . S
H577 C586 0.930 . S
H578 C588 0.930 . S
H579 C591 0.929 . S
H580 C594 0.930 . S
H581 C596 0.960 . S
H582 C596 0.960 . S
H583 C596 0.960 . S
C584 H576 0.929 . S
C584 C585 1.377 . S
C584 C586 1.384 . S
C585 C584 1.377 . S
C585 C591 1.390 . S
C586 H577 0.930 . S
C586 C584 1.384 . S
C586 C587 1.372 . S
C587 C586 1.372 . S
C587 C588 1.400 . S
C587 C592 1.490 . S
C588 H578 0.930 . S
C588 C587 1.400 . S
C588 C591 1.386 . S
H589 C605 0.930 . S
H590 C606 0.929 1_554 S
C591 H579 0.929 . S
C591 C585 1.390 . S
C591 C588 1.386 . S
C592 C587 1.490 . S
C592 C594 1.395 . S
C592 C595 1.403 . S
H593 C599 0.930 1_554 S
C594 H580 0.930 . S
C594 C592 1.395 . S
C594 C597 1.403 . S
C595 C592 1.403 . S
C595 C596 1.524 1_556 S
C595 C599 1.400 . S
C596 H581 0.960 . S
C596 H582 0.960 . S
C596 H583 0.960 . S
C596 C595 1.524 1_554 S
C597 C594 1.403 . S
C597 C598 1.392 . S
C597 C601 1.495 . S
C598 C597 1.392 . S
C598 C599 1.385 . S
C598 C600 1.478 . S
C599 H593 0.930 1_556 S
C599 C595 1.400 . S
C599 C598 1.385 . S
C600 C598 1.478 . S
C600 C602 1.381 . S
C600 C606 1.383 . S
C601 C597 1.495 . S
C601 H607 0.959 . S
C601 H608 0.961 . S
C601 H609 0.960 . S
C602 C600 1.381 . S
C602 C603 1.394 . S
C602 H610 0.930 . S
C603 C602 1.394 . S
C603 C604 1.383 . S
C603 H611 0.929 . S
C604 C603 1.383 . S
C604 C605 1.377 1_556 S
C605 H589 0.930 . S
C605 C604 1.377 1_554 S
C605 C606 1.379 1_554 S
C606 H590 0.929 1_556 S
C606 C600 1.383 . S
C606 C605 1.379 1_556 S
H607 C601 0.959 . S
H608 C601 0.961 . S
H609 C601 0.960 . S
H610 C602 0.930 . S
H611 C603 0.929 . S
H612 C620 0.929 . S
H613 C622 0.930 . S
H614 C624 0.930 . S
H615 C627 0.929 . S
H616 C630 0.930 . S
H617 C632 0.960 . S
H618 C632 0.960 . S
H619 C632 0.960 . S
C620 H612 0.929 . S
C620 C621 1.377 . S
C620 C622 1.384 . S
C621 C620 1.377 . S
C621 C627 1.390 . S
C622 H613 0.930 . S
C622 C620 1.384 . S
C622 C623 1.372 . S
C623 C622 1.372 . S
C623 C624 1.400 . S
C623 C628 1.490 . S
C624 H614 0.930 . S
C624 C623 1.400 . S
C624 C627 1.386 . S
H625 C641 0.930 . S
H626 C642 0.931 . S
C627 H615 0.929 . S
C627 C621 1.390 . S
C627 C624 1.386 . S
C628 C623 1.490 . S
C628 C630 1.395 . S
C628 C631 1.403 . S
H629 C635 0.930 . S
C630 H616 0.930 . S
C630 C628 1.395 . S
C630 C633 1.403 . S
C631 C628 1.403 . S
C631 C632 1.524 . S
C631 C635 1.400 . S
C632 H617 0.960 . S
C632 H618 0.960 . S
C632 H619 0.960 . S
C632 C631 1.524 . S
C633 C630 1.403 . S
C633 C634 1.392 . S
C633 C637 1.495 . S
C634 C633 1.392 . S
C634 C635 1.385 . S
C634 C636 1.478 . S
C635 H629 0.930 . S
C635 C631 1.400 . S
C635 C634 1.385 . S
C636 C634 1.478 . S
C636 C638 1.381 1_556 S
C636 C642 1.383 . S
C637 C633 1.495 . S
C637 H643 0.959 . S
C637 H644 0.961 . S
C637 H645 0.960 1_556 S
C638 C636 1.381 1_554 S
C638 C639 1.394 . S
C638 H646 0.930 . S
C639 C638 1.394 . S
C639 C640 1.383 1_554 S
C639 H647 0.929 . S
C640 C639 1.383 1_556 S
C640 C641 1.377 . S
C641 H625 0.930 . S
C641 C640 1.377 . S
C641 C642 1.379 . S
C642 H626 0.931 . S
C642 C636 1.383 . S
C642 C641 1.379 . S
H643 C637 0.959 . S
H644 C637 0.961 . S
H645 C637 0.960 1_554 S
H646 C638 0.930 . S
H647 C639 0.929 . S
H648 C656 0.929 . S
H649 C658 0.930 . S
H650 C660 0.930 . S
H651 C663 0.929 . S
H652 C666 0.930 . S
H653 C668 0.960 . S
H654 C668 0.960 . S
H655 C668 0.960 . S
C656 H648 0.929 . S
C656 C657 1.377 . S
C656 C658 1.384 . S
C657 C656 1.377 . S
C657 C663 1.390 . S
C658 H649 0.930 . S
C658 C656 1.384 . S
C658 C659 1.372 . S
C659 C658 1.372 . S
C659 C660 1.400 . S
C659 C664 1.490 . S
C660 H650 0.930 . S
C660 C659 1.400 . S
C660 C663 1.386 . S
H661 C677 0.930 . S
H662 C678 0.931 . S
C663 H651 0.929 . S
C663 C657 1.390 . S
C663 C660 1.386 . S
C664 C659 1.490 . S
C664 C666 1.395 . S
C664 C667 1.403 . S
H665 C671 0.930 . S
C666 H652 0.930 . S
C666 C664 1.395 . S
C666 C669 1.403 . S
C667 C664 1.403 . S
C667 C668 1.524 . S
C667 C671 1.400 . S
C668 H653 0.960 . S
C668 H654 0.960 . S
C668 H655 0.960 . S
C668 C667 1.524 . S
C669 C666 1.403 . S
C669 C670 1.392 . S
C669 C673 1.494 1_556 S
C670 C669 1.392 . S
C670 C671 1.385 . S
C670 C672 1.478 . S
C671 H665 0.930 . S
C671 C667 1.400 . S
C671 C670 1.385 . S
C672 C670 1.478 . S
C672 C674 1.381 . S
C672 C678 1.383 . S
C673 C669 1.494 1_554 S
C673 H679 0.960 . S
C673 H680 0.961 1_554 S
C673 H681 0.960 . S
C674 C672 1.381 . S
C674 C675 1.394 . S
C674 H682 0.933 1_556 S
C675 C674 1.394 . S
C675 C676 1.383 . S
C675 H683 0.929 1_556 S
C676 C675 1.383 . S
C676 C677 1.377 . S
C677 H661 0.930 . S
C677 C676 1.377 . S
C677 C678 1.379 . S
C678 H662 0.931 . S
C678 C672 1.383 . S
C678 C677 1.379 . S
H679 C673 0.960 . S
H680 C673 0.961 1_556 S
H681 C673 0.960 . S
H682 C674 0.933 1_554 S
H683 C675 0.929 1_554 S
H684 C692 0.929 1_554 S
H685 C694 0.930 1_554 S
H686 C696 0.930 . S
H687 C699 0.929 . S
H688 C702 0.930 . S
H689 C704 0.960 . S
H690 C704 0.960 . S
H691 C704 0.960 . S
C692 H684 0.929 1_556 S
C692 C693 1.377 . S
C692 C694 1.384 . S
C693 C692 1.377 . S
C693 C699 1.390 . S
C694 H685 0.930 1_556 S
C694 C692 1.384 . S
C694 C695 1.372 . S
C695 C694 1.372 . S
C695 C696 1.400 . S
C695 C700 1.490 . S
C696 H686 0.930 . S
C696 C695 1.400 . S
C696 C699 1.386 . S
H697 C713 0.930 . S
H698 C714 0.931 . S
C699 H687 0.929 . S
C699 C693 1.390 . S
C699 C696 1.386 . S
C700 C695 1.490 . S
C700 C702 1.395 . S
C700 C703 1.403 . S
H701 C707 0.930 . S
C702 H688 0.930 . S
C702 C700 1.395 . S
C702 C705 1.408 . S
C703 C700 1.403 . S
C703 C704 1.524 . S
C703 C707 1.400 . S
C704 H689 0.960 . S
C704 H690 0.960 . S
C704 H691 0.960 . S
C704 C703 1.524 . S
C705 C702 1.408 . S
C705 C706 1.404 . S
C705 C709 1.482 1_556 S
C706 C705 1.404 . S
C706 C707 1.385 . S
C706 C708 1.478 . S
C707 H701 0.930 . S
C707 C703 1.400 . S
C707 C706 1.385 . S
C708 C706 1.478 . S
C708 C710 1.381 1_556 S
C708 C714 1.383 . S
C709 C705 1.482 1_554 S
C709 H715 0.959 . S
C709 H716 0.961 1_554 S
C709 H717 0.960 . S
C710 C708 1.381 1_554 S
C710 C711 1.394 . S
C710 H718 0.930 . S
C711 C710 1.394 . S
C711 C712 1.383 . S
C711 H719 0.929 . S
C712 C711 1.383 . S
C712 C713 1.377 1_554 S
C713 H697 0.930 . S
C713 C712 1.377 1_556 S
C713 C714 1.379 . S
C714 H698 0.931 . S
C714 C708 1.383 . S
C714 C713 1.379 . S
H715 C709 0.959 . S
H716 C709 0.961 1_556 S
H717 C709 0.960 . S
H718 C710 0.930 . S
H719 C711 0.929 . S
H720 C728 0.929 . S
H721 C730 0.930 . S
H722 C732 0.930 . S
H723 C735 0.929 . S
H724 C738 0.930 . S
H725 C740 0.960 . S
H726 C740 0.960 . S
H727 C740 0.960 . S
C728 H720 0.929 . S
C728 C729 1.377 . S
C728 C730 1.384 . S
C729 C728 1.377 . S
C729 C735 1.390 . S
C730 H721 0.930 . S
C730 C728 1.384 . S
C730 C731 1.372 . S
C731 C730 1.372 . S
C731 C732 1.400 . S
C731 C736 1.490 . S
C732 H722 0.930 . S
C732 C731 1.400 . S
C732 C735 1.386 . S
H733 C749 0.930 1_556 S
H734 C750 0.931 . S
C735 H723 0.929 . S
C735 C729 1.390 . S
C735 C732 1.386 . S
C736 C731 1.490 . S
C736 C738 1.395 . S
C736 C739 1.403 . S
H737 C743 0.930 . S
C738 H724 0.930 . S
C738 C736 1.395 . S
C738 C741 1.403 . S
C739 C736 1.403 . S
C739 C740 1.524 . S
C739 C743 1.400 . S
C740 H725 0.960 . S
C740 H726 0.960 . S
C740 H727 0.960 . S
C740 C739 1.524 . S
C741 C738 1.403 . S
C741 C742 1.392 . S
C741 C745 1.495 . S
C742 C741 1.392 . S
C742 C743 1.385 . S
C742 C744 1.478 . S
C743 H737 0.930 . S
C743 C739 1.400 . S
C743 C742 1.385 . S
C744 C742 1.478 . S
C744 C746 1.381 . S
C744 C750 1.383 . S
C745 C741 1.495 . S
C745 H751 0.959 . S
C745 H752 0.961 . S
C745 H753 0.960 . S
C746 C744 1.381 . S
C746 C747 1.394 . S
C746 H754 0.930 . S
C747 C746 1.394 . S
C747 C748 1.383 . S
C747 H755 0.929 . S
C748 C747 1.383 . S
C748 C749 1.377 . S
C749 H733 0.930 1_554 S
C749 C748 1.377 . S
C749 C750 1.379 . S
C750 H734 0.931 . S
C750 C744 1.383 . S
C750 C749 1.379 . S
H751 C745 0.959 . S
H752 C745 0.961 . S
H753 C745 0.960 . S
H754 C746 0.930 . S
H755 C747 0.929 . S
H756 C764 0.929 . S
H757 C766 0.930 . S
H758 C768 0.930 . S
H759 C771 0.929 . S
H760 C774 0.930 . S
H761 C776 0.960 . S
H762 C776 0.960 . S
H763 C776 0.960 . S
C764 H756 0.929 . S
C764 C765 1.377 . S
C764 C766 1.384 . S
C765 C764 1.377 . S
C765 C771 1.390 . S
C766 H757 0.930 . S
C766 C764 1.384 . S
C766 C767 1.372 . S
C767 C766 1.372 . S
C767 C768 1.400 . S
C767 C772 1.490 . S
C768 H758 0.930 . S
C768 C767 1.400 . S
C768 C771 1.386 . S
H769 C785 0.930 . S
H770 C786 0.931 . S
C771 H759 0.929 . S
C771 C765 1.390 . S
C771 C768 1.386 . S
C772 C767 1.490 . S
C772 C774 1.395 . S
C772 C775 1.403 . S
H773 C779 0.930 . S
C774 H760 0.930 . S
C774 C772 1.395 . S
C774 C777 1.403 . S
C775 C772 1.403 . S
C775 C776 1.524 . S
C775 C779 1.400 . S
C776 H761 0.960 . S
C776 H762 0.960 . S
C776 H763 0.960 . S
C776 C775 1.524 . S
C777 C774 1.403 . S
C777 C778 1.392 . S
C777 C781 1.495 . S
C778 C777 1.392 . S
C778 C779 1.385 . S
C778 C780 1.478 . S
C779 H773 0.930 . S
C779 C775 1.400 . S
C779 C778 1.385 . S
C780 C778 1.478 . S
C780 C782 1.381 . S
C780 C786 1.383 . S
C781 C777 1.495 . S
C781 H787 0.959 . S
C781 H788 0.961 . S
C781 H789 0.960 . S
C782 C780 1.381 . S
C782 C783 1.394 . S
C782 H790 0.930 . S
C783 C782 1.394 . S
C783 C784 1.383 . S
C783 H791 0.929 . S
C784 C783 1.383 . S
C784 C785 1.377 . S
C785 H769 0.930 . S
C785 C784 1.377 . S
C785 C786 1.379 . S
C786 H770 0.931 . S
C786 C780 1.383 . S
C786 C785 1.379 . S
H787 C781 0.959 . S
H788 C781 0.961 . S
H789 C781 0.960 . S
H790 C782 0.930 . S
H791 C783 0.929 . S
H792 C800 0.929 . S
H793 C802 0.930 . S
H794 C804 0.930 . S
H795 C807 0.929 . S
H796 C810 0.930 . S
H797 C812 0.960 . S
H798 C812 0.960 . S
H799 C812 0.960 . S
C800 H792 0.929 . S
C800 C801 1.377 . S
C800 C802 1.384 . S
C801 C800 1.377 . S
C801 C807 1.390 . S
C802 H793 0.930 . S
C802 C800 1.384 . S
C802 C803 1.372 . S
C803 C802 1.372 . S
C803 C804 1.400 . S
C803 C808 1.490 . S
C804 H794 0.930 . S
C804 C803 1.400 . S
C804 C807 1.386 . S
H805 C821 0.930 1_556 S
H806 C822 0.930 1_556 S
C807 H795 0.929 . S
C807 C801 1.390 . S
C807 C804 1.386 . S
C808 C803 1.490 . S
C808 C810 1.395 . S
C808 C811 1.403 . S
H809 C815 0.930 . S
C810 H796 0.930 . S
C810 C808 1.395 . S
C810 C813 1.403 . S
C811 C808 1.403 . S
C811 C812 1.524 . S
C811 C815 1.400 . S
C812 H797 0.960 . S
C812 H798 0.960 . S
C812 H799 0.960 . S
C812 C811 1.524 . S
C813 C810 1.403 . S
C813 C814 1.392 . S
C813 C817 1.495 . S
C814 C813 1.392 . S
C814 C815 1.385 . S
C814 C816 1.478 . S
C815 H809 0.930 . S
C815 C811 1.400 . S
C815 C814 1.385 . S
C816 C814 1.478 . S
C816 C818 1.381 . S
C816 C822 1.383 . S
C817 C813 1.495 . S
C817 H823 0.959 . S
C817 H824 0.961 . S
C817 H825 0.960 . S
C818 C816 1.381 . S
C818 C819 1.394 . S
C818 H826 0.930 . S
C819 C818 1.394 . S
C819 C820 1.383 . S
C819 H827 0.929 . S
C820 C819 1.383 . S
C820 C821 1.377 . S
C821 H805 0.930 1_554 S
C821 C820 1.377 . S
C821 C822 1.379 . S
C822 H806 0.930 1_554 S
C822 C816 1.383 . S
C822 C821 1.379 . S
H823 C817 0.959 . S
H824 C817 0.961 . S
H825 C817 0.960 . S
H826 C818 0.930 . S
H827 C819 0.929 . S
H828 C836 0.929 . S
H829 C838 0.930 . S
H830 C840 0.930 . S
H831 C843 0.929 . S
H832 C846 0.930 . S
H833 C848 0.960 . S
H834 C848 0.960 . S
H835 C848 0.960 . S
C836 H828 0.929 . S
C836 C837 1.377 . S
C836 C838 1.384 . S
C837 C836 1.377 . S
C837 C843 1.390 . S
C838 H829 0.930 . S
C838 C836 1.384 . S
C838 C839 1.372 . S
C839 C838 1.372 . S
C839 C840 1.400 . S
C839 C844 1.490 . S
C840 H830 0.930 . S
C840 C839 1.400 . S
C840 C843 1.386 . S
H841 C857 0.930 . S
H842 C858 0.931 . S
C843 H831 0.929 . S
C843 C837 1.390 . S
C843 C840 1.386 . S
C844 C839 1.490 . S
C844 C846 1.395 . S
C844 C847 1.403 . S
H845 C851 0.930 . S
C846 H832 0.930 . S
C846 C844 1.395 . S
C846 C849 1.403 1_655 S
C847 C844 1.403 . S
C847 C848 1.524 . S
C847 C851 1.400 1_655 S
C848 H833 0.960 . S
C848 H834 0.960 . S
C848 H835 0.960 . S
C848 C847 1.524 . S
C849 C846 1.403 1_455 S
C849 C850 1.392 . S
C849 C853 1.495 . S
C850 C849 1.392 . S
C850 C851 1.385 . S
C850 C852 1.478 . S
C851 H845 0.930 . S
C851 C847 1.400 1_455 S
C851 C850 1.385 . S
C852 C850 1.478 . S
C852 C854 1.381 . S
C852 C858 1.383 . S
C853 C849 1.495 . S
C853 H859 0.959 1_455 S
C853 H860 0.961 . S
C853 H861 0.960 . S
C854 C852 1.381 . S
C854 C855 1.394 . S
C854 H862 0.930 . S
C855 C854 1.394 . S
C855 C856 1.383 . S
C855 H863 0.929 . S
C856 C855 1.383 . S
C856 C857 1.377 . S
C857 H841 0.930 . S
C857 C856 1.377 . S
C857 C858 1.379 . S
C858 H842 0.931 . S
C858 C852 1.383 . S
C858 C857 1.379 . S
H859 C853 0.959 1_655 S
H860 C853 0.961 . S
H861 C853 0.960 . S
H862 C854 0.930 . S
H863 C855 0.929 . S
H864 C872 0.929 . S
H865 C874 0.930 . S
H866 C876 0.930 . S
H867 C879 0.929 . S
H868 C882 0.930 . S
H869 C884 0.960 . S
H870 C884 0.960 . S
H871 C884 0.960 . S
C872 H864 0.929 . S
C872 C873 1.377 . S
C872 C874 1.384 . S
C873 C872 1.377 . S
C873 C879 1.390 . S
C874 H865 0.930 . S
C874 C872 1.384 . S
C874 C875 1.372 . S
C875 C874 1.372 . S
C875 C876 1.400 . S
C875 C880 1.490 . S
C876 H866 0.930 . S
C876 C875 1.400 . S
C876 C879 1.386 . S
H877 C893 0.930 . S
H878 C894 0.931 . S
C879 H867 0.929 . S
C879 C873 1.390 . S
C879 C876 1.386 . S
C880 C875 1.490 . S
C880 C882 1.395 . S
C880 C883 1.403 . S
H881 C887 0.930 . S
C882 H868 0.930 . S
C882 C880 1.395 . S
C882 C885 1.403 . S
C883 C880 1.403 . S
C883 C884 1.524 . S
C883 C887 1.400 . S
C884 H869 0.960 . S
C884 H870 0.960 . S
C884 H871 0.960 . S
C884 C883 1.524 . S
C885 C882 1.403 . S
C885 C886 1.392 . S
C885 C889 1.495 . S
C886 C885 1.392 . S
C886 C887 1.385 . S
C886 C888 1.478 . S
C887 H881 0.930 . S
C887 C883 1.400 . S
C887 C886 1.385 . S
C888 C886 1.478 . S
C888 C890 1.381 . S
C888 C894 1.383 . S
C889 C885 1.495 . S
C889 H895 0.959 . S
C889 H896 0.961 . S
C889 H897 0.960 . S
C890 C888 1.381 . S
C890 C891 1.394 . S
C890 H898 0.930 . S
C891 C890 1.394 . S
C891 C892 1.383 . S
C891 H899 0.929 . S
C892 C891 1.383 . S
C892 C893 1.377 . S
C893 H877 0.930 . S
C893 C892 1.377 . S
C893 C894 1.379 . S
C894 H878 0.931 . S
C894 C888 1.383 . S
C894 C893 1.379 . S
H895 C889 0.959 . S
H896 C889 0.961 . S
H897 C889 0.960 . S
H898 C890 0.930 . S
H899 C891 0.929 . S
H900 C908 0.929 . S
H901 C910 0.930 . S
H902 C912 0.930 . S
H903 C915 0.929 . S
H904 C918 0.930 . S
H905 C920 0.960 . S
H906 C920 0.960 . S
H907 C920 0.960 . S
C908 H900 0.929 . S
C908 C909 1.377 . S
C908 C910 1.384 . S
C909 C908 1.377 . S
C909 C915 1.390 . S
C910 H901 0.930 . S
C910 C908 1.384 . S
C910 C911 1.372 . S
C911 C910 1.372 . S
C911 C912 1.400 . S
C911 C916 1.490 . S
C912 H902 0.930 . S
C912 C911 1.400 . S
C912 C915 1.386 . S
H913 C929 0.930 . S
H914 C930 0.931 . S
C915 H903 0.929 . S
C915 C909 1.390 . S
C915 C912 1.386 . S
C916 C911 1.490 . S
C916 C918 1.395 . S
C916 C919 1.403 . S
H917 C923 0.930 . S
C918 H904 0.930 . S
C918 C916 1.395 . S
C918 C921 1.445 . S
C919 C916 1.403 . S
C919 C920 1.524 . S
C919 C923 1.400 1_545 S
C920 H905 0.960 . S
C920 H906 0.960 . S
C920 H907 0.960 . S
C920 C919 1.524 . S
C921 C918 1.445 . S
C921 C922 1.367 1_545 S
C921 C925 1.482 1_545 S
C922 C921 1.367 1_565 S
C922 C923 1.385 . S
C922 C924 1.478 . S
C923 H917 0.930 . S
C923 C919 1.400 1_565 S
C923 C922 1.385 . S
C924 C922 1.478 . S
C924 C926 1.381 . S
C924 C930 1.383 . S
C925 C921 1.482 1_565 S
C925 H931 0.959 1_565 S
C925 H932 0.961 . S
C925 H933 0.960 . S
C926 C924 1.381 . S
C926 C927 1.394 . S
C926 H934 0.930 . S
C927 C926 1.394 . S
C927 C928 1.383 . S
C927 H935 0.929 . S
C928 C927 1.383 . S
C928 C929 1.377 . S
C929 H913 0.930 . S
C929 C928 1.377 . S
C929 C930 1.379 . S
C930 H914 0.931 . S
C930 C924 1.383 . S
C930 C929 1.379 . S
H931 C925 0.959 1_545 S
H932 C925 0.961 . S
H933 C925 0.960 . S
H934 C926 0.930 . S
H935 C927 0.929 . S
H936 C944 0.929 . S
H937 C946 0.930 . S
H938 C948 0.930 . S
H939 C951 0.929 . S
H940 C954 0.930 . S
H941 C956 0.960 . S
H942 C956 0.960 . S
H943 C956 0.960 . S
C944 H936 0.929 . S
C944 C945 1.377 . S
C944 C946 1.384 . S
C945 C944 1.377 . S
C945 C951 1.390 . S
C946 H937 0.930 . S
C946 C944 1.384 . S
C946 C947 1.372 . S
C947 C946 1.372 . S
C947 C948 1.400 . S
C947 C952 1.490 . S
C948 H938 0.930 . S
C948 C947 1.400 . S
C948 C951 1.386 . S
H949 C965 0.930 . S
H950 C966 0.931 . S
C951 H939 0.929 . S
C951 C945 1.390 . S
C951 C948 1.386 . S
C952 C947 1.490 . S
C952 C954 1.395 . S
C952 C955 1.403 . S
H953 C959 0.930 . S
C954 H940 0.930 . S
C954 C952 1.395 . S
C954 C957 1.403 . S
C955 C952 1.403 . S
C955 C956 1.524 . S
C955 C959 1.400 . S
C956 H941 0.960 . S
C956 H942 0.960 . S
C956 H943 0.960 . S
C956 C955 1.524 . S
C957 C954 1.403 . S
C957 C958 1.392 . S
C957 C961 1.495 . S
C958 C957 1.392 . S
C958 C959 1.385 . S
C958 C960 1.478 . S
C959 H953 0.930 . S
C959 C955 1.400 . S
C959 C958 1.385 . S
C960 C958 1.478 . S
C960 C962 1.381 . S
C960 C966 1.383 . S
C961 C957 1.495 . S
C961 H967 0.959 . S
C961 H968 0.961 . S
C961 H969 0.960 . S
C962 C960 1.381 . S
C962 C963 1.394 . S
C962 H970 0.930 . S
C963 C962 1.394 . S
C963 C964 1.383 . S
C963 H971 0.929 . S
C964 C963 1.383 . S
C964 C965 1.377 . S
C965 H949 0.930 . S
C965 C964 1.377 . S
C965 C966 1.379 . S
C966 H950 0.931 . S
C966 C960 1.383 . S
C966 C965 1.379 . S
H967 C961 0.959 . S
H968 C961 0.961 . S
H969 C961 0.960 . S
H970 C962 0.930 . S
H971 C963 0.929 . S
H972 C980 0.929 . S
H973 C982 0.930 . S
H974 C984 0.930 . S
H975 C987 0.929 . S
H976 C990 0.930 . S
H977 C992 0.960 . S
H978 C992 0.960 . S
H979 C992 0.960 . S
C980 H972 0.929 . S
C980 C981 1.377 . S
C980 C982 1.384 . S
C981 C980 1.377 . S
C981 C987 1.390 . S
C982 H973 0.930 . S
C982 C980 1.384 . S
C982 C983 1.372 . S
C983 C982 1.372 . S
C983 C984 1.400 . S
C983 C988 1.490 . S
C984 H974 0.930 . S
C984 C983 1.400 . S
C984 C987 1.386 . S
H985 C1001 0.930 . S
H986 C1002 0.931 . S
C987 H975 0.929 . S
C987 C981 1.390 . S
C987 C984 1.386 . S
C988 C983 1.490 . S
C988 C990 1.395 . S
C988 C991 1.403 . S
H989 C995 0.930 . S
C990 H976 0.930 . S
C990 C988 1.395 . S
C990 C993 1.403 . S
C991 C988 1.403 . S
C991 C992 1.524 . S
C991 C995 1.400 . S
C992 H977 0.960 . S
C992 H978 0.960 . S
C992 H979 0.960 . S
C992 C991 1.524 . S
C993 C990 1.403 . S
C993 C994 1.392 . S
C993 C997 1.495 . S
C994 C993 1.392 . S
C994 C995 1.385 . S
C994 C996 1.478 . S
C995 H989 0.930 . S
C995 C991 1.400 . S
C995 C994 1.385 . S
C996 C994 1.478 . S
C996 C998 1.381 . S
C996 C1002 1.383 . S
C997 C993 1.495 . S
C997 H1003 0.959 . S
C997 H1004 0.961 . S
C997 H1005 0.960 . S
C998 C996 1.381 . S
C998 C999 1.394 . S
C998 H1006 0.930 . S
C999 C998 1.394 . S
C999 C1000 1.383 . S
C999 H1007 0.929 . S
C1000 C999 1.383 . S
C1000 C1001 1.377 . S
C1001 H985 0.930 . S
C1001 C1000 1.377 . S
C1001 C1002 1.379 . S
C1002 H986 0.931 . S
C1002 C996 1.383 . S
C1002 C1001 1.379 . S
H1003 C997 0.959 . S
H1004 C997 0.961 . S
H1005 C997 0.960 . S
H1006 C998 0.930 . S
H1007 C999 0.929 . S
H1008 C1016 0.929 . S
H1009 C1018 0.930 . S
H1010 C1020 0.930 . S
H1011 C1023 0.929 . S
H1012 C1026 0.930 . S
H1013 C1028 0.960 . S
H1014 C1028 0.960 . S
H1015 C1028 0.960 . S
C1016 H1008 0.929 . S
C1016 C1017 1.377 . S
C1016 C1018 1.384 . S
C1017 C1016 1.377 . S
C1017 C1023 1.390 . S
C1018 H1009 0.930 . S
C1018 C1016 1.384 . S
C1018 C1019 1.372 . S
C1019 C1018 1.372 . S
C1019 C1020 1.400 . S
C1019 C1024 1.490 . S
C1020 H1010 0.930 . S
C1020 C1019 1.400 . S
C1020 C1023 1.386 . S
H1021 C1037 0.930 . S
H1022 C1038 0.931 . S
C1023 H1011 0.929 . S
C1023 C1017 1.390 . S
C1023 C1020 1.386 . S
C1024 C1019 1.490 . S
C1024 C1026 1.395 . S
C1024 C1027 1.403 . S
H1025 C1031 0.930 . S
C1026 H1012 0.930 . S
C1026 C1024 1.395 . S
C1026 C1029 1.403 . S
C1027 C1024 1.403 . S
C1027 C1028 1.524 . S
C1027 C1031 1.400 . S
C1028 H1013 0.960 . S
C1028 H1014 0.960 . S
C1028 H1015 0.960 . S
C1028 C1027 1.524 . S
C1029 C1026 1.403 . S
C1029 C1030 1.392 . S
C1029 C1033 1.495 . S
C1030 C1029 1.392 . S
C1030 C1031 1.385 . S
C1030 C1032 1.478 . S
C1031 H1025 0.930 . S
C1031 C1027 1.400 . S
C1031 C1030 1.385 . S
C1032 C1030 1.478 . S
C1032 C1034 1.381 . S
C1032 C1038 1.383 . S
C1033 C1029 1.495 . S
C1033 H1039 0.959 . S
C1033 H1040 0.961 . S
C1033 H1041 0.960 . S
C1034 C1032 1.381 . S
C1034 C1035 1.394 . S
C1034 H1042 0.930 . S
C1035 C1034 1.394 . S
C1035 C1036 1.383 . S
C1035 H1043 0.929 . S
C1036 C1035 1.383 . S
C1036 C1037 1.377 . S
C1037 H1021 0.930 . S
C1037 C1036 1.377 . S
C1037 C1038 1.379 . S
C1038 H1022 0.931 . S
C1038 C1032 1.383 . S
C1038 C1037 1.379 . S
H1039 C1033 0.959 . S
H1040 C1033 0.961 . S
H1041 C1033 0.960 . S
H1042 C1034 0.930 . S
H1043 C1035 0.929 . S
H1044 C1052 0.929 . S
H1045 C1054 0.930 . S
H1046 C1056 0.930 . S
H1047 C1059 0.929 . S
H1048 C1062 0.930 . S
H1049 C1064 0.960 . S
H1050 C1064 0.960 . S
H1051 C1064 0.960 . S
C1052 H1044 0.929 . S
C1052 C1053 1.377 . S
C1052 C1054 1.384 . S
C1053 C1052 1.377 . S
C1053 C1059 1.390 . S
C1054 H1045 0.930 . S
C1054 C1052 1.384 . S
C1054 C1055 1.372 . S
C1055 C1054 1.372 . S
C1055 C1056 1.400 . S
C1055 C1060 1.490 . S
C1056 H1046 0.930 . S
C1056 C1055 1.400 . S
C1056 C1059 1.386 . S
H1057 C1073 0.930 . S
H1058 C1074 0.931 . S
C1059 H1047 0.929 . S
C1059 C1053 1.390 . S
C1059 C1056 1.386 . S
C1060 C1055 1.490 . S
C1060 C1062 1.395 . S
C1060 C1063 1.403 . S
H1061 C1067 0.930 . S
C1062 H1048 0.930 . S
C1062 C1060 1.395 . S
C1062 C1065 1.403 . S
C1063 C1060 1.403 . S
C1063 C1064 1.524 . S
C1063 C1067 1.400 . S
C1064 H1049 0.960 . S
C1064 H1050 0.960 . S
C1064 H1051 0.960 . S
C1064 C1063 1.524 . S
C1065 C1062 1.403 . S
C1065 C1066 1.392 . S
C1065 C1069 1.495 . S
C1066 C1065 1.392 . S
C1066 C1067 1.385 . S
C1066 C1068 1.478 . S
C1067 H1061 0.930 . S
C1067 C1063 1.400 . S
C1067 C1066 1.385 . S
C1068 C1066 1.478 . S
C1068 C1070 1.381 . S
C1068 C1074 1.383 . S
C1069 C1065 1.495 . S
C1069 H1075 0.959 . S
C1069 H1076 0.961 . S
C1069 H1077 0.960 . S
C1070 C1068 1.381 . S
C1070 C1071 1.394 . S
C1070 H1078 0.930 . S
C1071 C1070 1.394 . S
C1071 C1072 1.383 . S
C1071 H1079 0.929 . S
C1072 C1071 1.383 . S
C1072 C1073 1.377 . S
C1073 H1057 0.930 . S
C1073 C1072 1.377 . S
C1073 C1074 1.379 . S
C1074 H1058 0.931 . S
C1074 C1068 1.383 . S
C1074 C1073 1.379 . S
H1075 C1069 0.959 . S
H1076 C1069 0.961 . S
H1077 C1069 0.960 . S
H1078 C1070 0.930 . S
H1079 C1071 0.929 . S
H1080 C1088 0.929 . S
H1081 C1090 0.930 . S
H1082 C1092 0.930 . S
H1083 C1095 0.929 . S
H1084 C1098 0.930 . S
H1085 C1100 0.960 . S
H1086 C1100 0.960 . S
H1087 C1100 0.960 . S
C1088 H1080 0.929 . S
C1088 C1089 1.377 . S
C1088 C1090 1.384 . S
C1089 C1088 1.377 . S
C1089 C1095 1.390 . S
C1090 H1081 0.930 . S
C1090 C1088 1.384 . S
C1090 C1091 1.372 . S
C1091 C1090 1.372 . S
C1091 C1092 1.400 . S
C1091 C1096 1.490 . S
C1092 H1082 0.930 . S
C1092 C1091 1.400 . S
C1092 C1095 1.386 . S
H1093 C1109 0.930 . S
H1094 C1110 0.931 . S
C1095 H1083 0.929 . S
C1095 C1089 1.390 . S
C1095 C1092 1.386 . S
C1096 C1091 1.490 . S
C1096 C1098 1.395 . S
C1096 C1099 1.403 . S
H1097 C1103 0.930 . S
C1098 H1084 0.930 . S
C1098 C1096 1.395 . S
C1098 C1101 1.403 . S
C1099 C1096 1.403 . S
C1099 C1100 1.524 . S
C1099 C1103 1.400 . S
C1100 H1085 0.960 . S
C1100 H1086 0.960 . S
C1100 H1087 0.960 . S
C1100 C1099 1.524 . S
C1101 C1098 1.403 . S
C1101 C1102 1.392 . S
C1101 C1105 1.495 . S
C1102 C1101 1.392 . S
C1102 C1103 1.385 . S
C1102 C1104 1.478 . S
C1103 H1097 0.930 . S
C1103 C1099 1.400 . S
C1103 C1102 1.385 . S
C1104 C1102 1.478 . S
C1104 C1106 1.381 . S
C1104 C1110 1.383 . S
C1105 C1101 1.495 . S
C1105 H1111 0.959 . S
C1105 H1112 0.961 . S
C1105 H1113 0.960 . S
C1106 C1104 1.381 . S
C1106 C1107 1.394 . S
C1106 H1114 0.930 . S
C1107 C1106 1.394 . S
C1107 C1108 1.383 . S
C1107 H1115 0.929 . S
C1108 C1107 1.383 . S
C1108 C1109 1.377 . S
C1109 H1093 0.930 . S
C1109 C1108 1.377 . S
C1109 C1110 1.379 . S
C1110 H1094 0.931 . S
C1110 C1104 1.383 . S
C1110 C1109 1.379 . S
H1111 C1105 0.959 . S
H1112 C1105 0.961 . S
H1113 C1105 0.960 . S
H1114 C1106 0.930 . S
H1115 C1107 0.929 . S
H1116 C1124 0.929 . S
H1117 C1126 0.930 . S
H1118 C1128 0.930 . S
H1119 C1131 0.929 . S
H1120 C1134 0.930 . S
H1121 C1136 0.960 . S
H1122 C1136 0.960 . S
H1123 C1136 0.960 . S
C1124 H1116 0.929 . S
C1124 C1125 1.377 . S
C1124 C1126 1.384 . S
C1125 C1124 1.377 . S
C1125 C1131 1.390 . S
C1126 H1117 0.930 . S
C1126 C1124 1.384 . S
C1126 C1127 1.372 . S
C1127 C1126 1.372 . S
C1127 C1128 1.400 . S
C1127 C1132 1.490 . S
C1128 H1118 0.930 . S
C1128 C1127 1.400 . S
C1128 C1131 1.386 . S
H1129 C1145 0.930 . S
H1130 C1146 0.931 . S
C1131 H1119 0.929 . S
C1131 C1125 1.390 . S
C1131 C1128 1.386 . S
C1132 C1127 1.490 . S
C1132 C1134 1.395 . S
C1132 C1135 1.403 . S
H1133 C1139 0.930 . S
C1134 H1120 0.930 . S
C1134 C1132 1.395 . S
C1134 C1137 1.403 . S
C1135 C1132 1.403 . S
C1135 C1136 1.524 . S
C1135 C1139 1.400 . S
C1136 H1121 0.960 . S
C1136 H1122 0.960 . S
C1136 H1123 0.960 . S
C1136 C1135 1.524 . S
C1137 C1134 1.403 . S
C1137 C1138 1.392 . S
C1137 C1141 1.495 . S
C1138 C1137 1.392 . S
C1138 C1139 1.385 . S
C1138 C1140 1.478 . S
C1139 H1133 0.930 . S
C1139 C1135 1.400 . S
C1139 C1138 1.385 . S
C1140 C1138 1.478 . S
C1140 C1142 1.381 . S
C1140 C1146 1.383 . S
C1141 C1137 1.495 . S
C1141 H1147 0.959 . S
C1141 H1148 0.961 . S
C1141 H1149 0.960 . S
C1142 C1140 1.381 . S
C1142 C1143 1.394 . S
C1142 H1150 0.930 . S
C1143 C1142 1.394 . S
C1143 C1144 1.383 . S
C1143 H1151 0.929 . S
C1144 C1143 1.383 . S
C1144 C1145 1.377 . S
C1145 H1129 0.930 . S
C1145 C1144 1.377 . S
C1145 C1146 1.379 . S
C1146 H1130 0.931 . S
C1146 C1140 1.383 . S
C1146 C1145 1.379 . S
H1147 C1141 0.959 . S
H1148 C1141 0.961 . S
H1149 C1141 0.960 . S
H1150 C1142 0.930 . S
H1151 C1143 0.929 . S
H1152 C1160 0.929 . S
H1153 C1162 0.930 . S
H1154 C1164 0.930 . S
H1155 C1167 0.929 . S
H1156 C1170 0.930 . S
H1157 C1172 0.960 . S
H1158 C1172 0.960 . S
H1159 C1172 0.960 . S
C1160 H1152 0.929 . S
C1160 C1161 1.377 . S
C1160 C1162 1.384 . S
C1161 C1160 1.377 . S
C1161 C1167 1.390 . S
C1162 H1153 0.930 . S
C1162 C1160 1.384 . S
C1162 C1163 1.372 . S
C1163 C1162 1.372 . S
C1163 C1164 1.400 . S
C1163 C1168 1.490 1_545 S
C1164 H1154 0.930 . S
C1164 C1163 1.400 . S
C1164 C1167 1.386 . S
H1165 C1181 0.930 . S
H1166 C1182 0.931 . S
C1167 H1155 0.929 . S
C1167 C1161 1.390 . S
C1167 C1164 1.386 . S
C1168 C1163 1.490 1_565 S
C1168 C1170 1.395 . S
C1168 C1171 1.403 . S
H1169 C1175 0.930 . S
C1170 H1156 0.930 . S
C1170 C1168 1.395 . S
C1170 C1173 1.403 . S
C1171 C1168 1.403 . S
C1171 C1172 1.524 . S
C1171 C1175 1.400 . S
C1172 H1157 0.960 . S
C1172 H1158 0.960 . S
C1172 H1159 0.960 . S
C1172 C1171 1.524 . S
C1173 C1170 1.403 . S
C1173 C1174 1.392 . S
C1173 C1177 1.495 . S
C1174 C1173 1.392 . S
C1174 C1175 1.385 . S
C1174 C1176 1.478 . S
C1175 H1169 0.930 . S
C1175 C1171 1.400 . S
C1175 C1174 1.385 . S
C1176 C1174 1.478 . S
C1176 C1178 1.381 . S
C1176 C1182 1.383 . S
C1177 C1173 1.495 . S
C1177 H1183 0.959 . S
C1177 H1184 0.961 . S
C1177 H1185 0.960 . S
C1178 C1176 1.381 . S
C1178 C1179 1.394 . S
C1178 H1186 0.930 . S
C1179 C1178 1.394 . S
C1179 C1180 1.383 . S
C1179 H1187 0.929 . S
C1180 C1179 1.383 . S
C1180 C1181 1.377 . S
C1181 H1165 0.930 . S
C1181 C1180 1.377 . S
C1181 C1182 1.379 . S
C1182 H1166 0.931 . S
C1182 C1176 1.383 . S
C1182 C1181 1.379 . S
H1183 C1177 0.959 . S
H1184 C1177 0.961 . S
H1185 C1177 0.960 . S
H1186 C1178 0.930 . S
H1187 C1179 0.929 . S
H1188 C1196 0.929 . S
H1189 C1198 0.930 1_455 S
H1190 C1200 0.930 . S
H1191 C1203 0.929 . S
H1192 C1206 0.930 . S
H1193 C1208 0.960 . S
H1194 C1208 0.960 . S
H1195 C1208 0.960 . S
C1196 H1188 0.929 . S
C1196 C1197 1.377 . S
C1196 C1198 1.384 . S
C1197 C1196 1.377 . S
C1197 C1203 1.390 . S
C1198 H1189 0.930 1_655 S
C1198 C1196 1.384 . S
C1198 C1199 1.372 . S
C1199 C1198 1.372 . S
C1199 C1200 1.400 . S
C1199 C1204 1.490 1_655 S
C1200 H1190 0.930 . S
C1200 C1199 1.400 . S
C1200 C1203 1.386 . S
H1201 C1217 0.930 . S
H1202 C1218 0.931 . S
C1203 H1191 0.929 . S
C1203 C1197 1.390 . S
C1203 C1200 1.386 . S
C1204 C1199 1.490 1_455 S
C1204 C1206 1.395 . S
C1204 C1207 1.403 . S
H1205 C1211 0.930 . S
C1206 H1192 0.930 . S
C1206 C1204 1.395 . S
C1206 C1209 1.403 . S
C1207 C1204 1.403 . S
C1207 C1208 1.524 . S
C1207 C1211 1.400 . S
C1208 H1193 0.960 . S
C1208 H1194 0.960 . S
C1208 H1195 0.960 . S
C1208 C1207 1.524 . S
C1209 C1206 1.403 . S
C1209 C1210 1.392 . S
C1209 C1213 1.495 . S
C1210 C1209 1.392 . S
C1210 C1211 1.385 . S
C1210 C1212 1.478 . S
C1211 H1205 0.930 . S
C1211 C1207 1.400 . S
C1211 C1210 1.385 . S
C1212 C1210 1.478 . S
C1212 C1214 1.381 . S
C1212 C1218 1.383 . S
C1213 C1209 1.495 . S
C1213 H1219 0.959 . S
C1213 H1220 0.961 . S
C1213 H1221 0.960 . S
C1214 C1212 1.381 . S
C1214 C1215 1.394 . S
C1214 H1222 0.930 . S
C1215 C1214 1.394 . S
C1215 C1216 1.383 . S
C1215 H1223 0.929 . S
C1216 C1215 1.383 . S
C1216 C1217 1.377 . S
C1217 H1201 0.930 . S
C1217 C1216 1.377 . S
C1217 C1218 1.379 . S
C1218 H1202 0.931 . S
C1218 C1212 1.383 . S
C1218 C1217 1.379 . S
H1219 C1213 0.959 . S
H1220 C1213 0.961 . S
H1221 C1213 0.960 . S
H1222 C1214 0.930 . S
H1223 C1215 0.929 . S
H1224 C1232 0.929 . S
H1225 C1234 0.930 . S
H1226 C1236 0.930 . S
H1227 C1239 0.929 . S
H1228 C1242 0.930 . S
H1229 C1244 0.960 . S
H1230 C1244 0.960 . S
H1231 C1244 0.960 . S
C1232 H1224 0.929 . S
C1232 C1233 1.377 . S
C1232 C1234 1.384 . S
C1233 C1232 1.377 . S
C1233 C1239 1.390 . S
C1234 H1225 0.930 . S
C1234 C1232 1.384 . S
C1234 C1235 1.372 . S
C1235 C1234 1.372 . S
C1235 C1236 1.400 . S
C1235 C1240 1.490 . S
C1236 H1226 0.930 . S
C1236 C1235 1.400 . S
C1236 C1239 1.386 . S
H1237 C1253 0.930 . S
H1238 C1254 0.931 . S
C1239 H1227 0.929 . S
C1239 C1233 1.390 . S
C1239 C1236 1.386 . S
C1240 C1235 1.490 . S
C1240 C1242 1.395 . S
C1240 C1243 1.403 . S
H1241 C1247 0.930 . S
C1242 H1228 0.930 . S
C1242 C1240 1.395 . S
C1242 C1245 1.403 . S
C1243 C1240 1.403 . S
C1243 C1244 1.524 . S
C1243 C1247 1.400 . S
C1244 H1229 0.960 . S
C1244 H1230 0.960 . S
C1244 H1231 0.960 . S
C1244 C1243 1.524 . S
C1245 C1242 1.403 . S
C1245 C1246 1.392 . S
C1245 C1249 1.495 . S
C1246 C1245 1.392 . S
C1246 C1247 1.385 . S
C1246 C1248 1.478 . S
C1247 H1241 0.930 . S
C1247 C1243 1.400 . S
C1247 C1246 1.385 . S
C1248 C1246 1.478 . S
C1248 C1250 1.381 . S
C1248 C1254 1.383 . S
C1249 C1245 1.495 . S
C1249 H1255 0.959 . S
C1249 H1256 0.961 . S
C1249 H1257 0.960 . S
C1250 C1248 1.381 . S
C1250 C1251 1.394 . S
C1250 H1258 0.930 . S
C1251 C1250 1.394 . S
C1251 C1252 1.383 . S
C1251 H1259 0.929 . S
C1252 C1251 1.383 . S
C1252 C1253 1.377 . S
C1253 H1237 0.930 . S
C1253 C1252 1.377 . S
C1253 C1254 1.379 . S
C1254 H1238 0.931 . S
C1254 C1248 1.383 . S
C1254 C1253 1.379 . S
H1255 C1249 0.959 . S
H1256 C1249 0.961 . S
H1257 C1249 0.960 . S
H1258 C1250 0.930 . S
H1259 C1251 0.929 . S
H1260 C1268 0.929 . S
H1261 C1270 0.930 . S
H1262 C1272 0.930 . S
H1263 C1275 0.929 . S
H1264 C1278 0.930 . S
H1265 C1280 0.960 . S
H1266 C1280 0.960 . S
H1267 C1280 0.960 . S
C1268 H1260 0.929 . S
C1268 C1269 1.377 . S
C1268 C1270 1.384 . S
C1269 C1268 1.377 . S
C1269 C1275 1.390 . S
C1270 H1261 0.930 . S
C1270 C1268 1.384 . S
C1270 C1271 1.372 . S
C1271 C1270 1.372 . S
C1271 C1272 1.400 . S
C1271 C1276 1.490 . S
C1272 H1262 0.930 . S
C1272 C1271 1.400 . S
C1272 C1275 1.386 . S
H1273 C1289 0.930 . S
H1274 C1290 0.931 . S
C1275 H1263 0.929 . S
C1275 C1269 1.390 . S
C1275 C1272 1.386 . S
C1276 C1271 1.490 . S
C1276 C1278 1.395 . S
C1276 C1279 1.403 . S
H1277 C1283 0.930 . S
C1278 H1264 0.930 . S
C1278 C1276 1.395 . S
C1278 C1281 1.403 . S
C1279 C1276 1.403 . S
C1279 C1280 1.524 . S
C1279 C1283 1.400 . S
C1280 H1265 0.960 . S
C1280 H1266 0.960 . S
C1280 H1267 0.960 . S
C1280 C1279 1.524 . S
C1281 C1278 1.403 . S
C1281 C1282 1.392 . S
C1281 C1285 1.495 . S
C1282 C1281 1.392 . S
C1282 C1283 1.385 . S
C1282 C1284 1.478 . S
C1283 H1277 0.930 . S
C1283 C1279 1.400 . S
C1283 C1282 1.385 . S
C1284 C1282 1.478 . S
C1284 C1286 1.381 . S
C1284 C1290 1.383 . S
C1285 C1281 1.495 . S
C1285 H1291 0.959 . S
C1285 H1292 0.961 . S
C1285 H1293 0.960 . S
C1286 C1284 1.381 . S
C1286 C1287 1.394 . S
C1286 H1294 0.930 . S
C1287 C1286 1.394 . S
C1287 C1288 1.383 . S
C1287 H1295 0.929 . S
C1288 C1287 1.383 . S
C1288 C1289 1.377 . S
C1289 H1273 0.930 . S
C1289 C1288 1.377 . S
C1289 C1290 1.379 . S
C1290 H1274 0.931 . S
C1290 C1284 1.383 . S
C1290 C1289 1.379 . S
H1291 C1285 0.959 . S
H1292 C1285 0.961 . S
H1293 C1285 0.960 . S
H1294 C1286 0.930 . S
H1295 C1287 0.929 . S
H1296 C1304 0.929 . S
H1297 C1306 0.930 . S
H1298 C1308 0.930 . S
H1299 C1311 0.929 . S
H1300 C1314 0.930 . S
H1301 C1316 0.960 . S
H1302 C1316 0.960 . S
H1303 C1316 0.960 . S
C1304 H1296 0.929 . S
C1304 C1305 1.377 . S
C1304 C1306 1.384 . S
C1305 C1304 1.377 . S
C1305 C1311 1.390 . S
C1306 H1297 0.930 . S
C1306 C1304 1.384 . S
C1306 C1307 1.372 . S
C1307 C1306 1.372 . S
C1307 C1308 1.400 . S
C1307 C1312 1.490 . S
C1308 H1298 0.930 . S
C1308 C1307 1.400 . S
C1308 C1311 1.386 . S
H1309 C1325 0.930 . S
H1310 C1326 0.931 . S
C1311 H1299 0.929 . S
C1311 C1305 1.390 . S
C1311 C1308 1.386 . S
C1312 C1307 1.490 . S
C1312 C1314 1.395 . S
C1312 C1315 1.403 . S
H1313 C1319 0.930 . S
C1314 H1300 0.930 . S
C1314 C1312 1.395 . S
C1314 C1317 1.403 . S
C1315 C1312 1.403 . S
C1315 C1316 1.524 . S
C1315 C1319 1.400 . S
C1316 H1301 0.960 . S
C1316 H1302 0.960 . S
C1316 H1303 0.960 . S
C1316 C1315 1.524 . S
C1317 C1314 1.403 . S
C1317 C1318 1.392 . S
C1317 C1321 1.495 . S
C1318 C1317 1.392 . S
C1318 C1319 1.385 . S
C1318 C1320 1.478 . S
C1319 H1313 0.930 . S
C1319 C1315 1.400 . S
C1319 C1318 1.385 . S
C1320 C1318 1.478 . S
C1320 C1322 1.381 . S
C1320 C1326 1.383 . S
C1321 C1317 1.495 . S
C1321 H1327 0.959 . S
C1321 H1328 0.961 . S
C1321 H1329 0.960 . S
C1322 C1320 1.381 . S
C1322 C1323 1.394 . S
C1322 H1330 0.930 . S
C1323 C1322 1.394 . S
C1323 C1324 1.383 . S
C1323 H1331 0.929 . S
C1324 C1323 1.383 . S
C1324 C1325 1.377 . S
C1325 H1309 0.930 . S
C1325 C1324 1.377 . S
C1325 C1326 1.379 . S
C1326 H1310 0.931 . S
C1326 C1320 1.383 . S
C1326 C1325 1.379 . S
H1327 C1321 0.959 . S
H1328 C1321 0.961 . S
H1329 C1321 0.960 . S
H1330 C1322 0.930 . S
H1331 C1323 0.929 . S
H1332 C1340 0.929 . S
H1333 C1342 0.930 . S
H1334 C1344 0.930 . S
H1335 C1347 0.929 . S
H1336 C1350 0.930 . S
H1337 C1352 0.960 . S
H1338 C1352 0.960 . S
H1339 C1352 0.960 . S
C1340 H1332 0.929 . S
C1340 C1341 1.377 . S
C1340 C1342 1.384 . S
C1341 C1340 1.377 . S
C1341 C1347 1.390 . S
C1342 H1333 0.930 . S
C1342 C1340 1.384 . S
C1342 C1343 1.372 . S
C1343 C1342 1.372 . S
C1343 C1344 1.400 . S
C1343 C1348 1.490 . S
C1344 H1334 0.930 . S
C1344 C1343 1.400 . S
C1344 C1347 1.386 . S
H1345 C1361 0.930 . S
H1346 C1362 0.931 . S
C1347 H1335 0.929 . S
C1347 C1341 1.390 . S
C1347 C1344 1.386 . S
C1348 C1343 1.490 . S
C1348 C1350 1.395 . S
C1348 C1351 1.403 . S
H1349 C1355 0.930 . S
C1350 H1336 0.930 . S
C1350 C1348 1.395 . S
C1350 C1353 1.403 . S
C1351 C1348 1.403 . S
C1351 C1352 1.524 . S
C1351 C1355 1.400 . S
C1352 H1337 0.960 . S
C1352 H1338 0.960 . S
C1352 H1339 0.960 . S
C1352 C1351 1.524 . S
C1353 C1350 1.403 . S
C1353 C1354 1.392 . S
C1353 C1357 1.495 . S
C1354 C1353 1.392 . S
C1354 C1355 1.385 . S
C1354 C1356 1.478 . S
C1355 H1349 0.930 . S
C1355 C1351 1.400 . S
C1355 C1354 1.385 . S
C1356 C1354 1.478 . S
C1356 C1358 1.381 . S
C1356 C1362 1.383 . S
C1357 C1353 1.495 . S
C1357 H1363 0.959 . S
C1357 H1364 0.961 . S
C1357 H1365 0.960 . S
C1358 C1356 1.381 . S
C1358 C1359 1.394 . S
C1358 H1366 0.930 . S
C1359 C1358 1.394 . S
C1359 C1360 1.383 . S
C1359 H1367 0.929 . S
C1360 C1359 1.383 . S
C1360 C1361 1.377 . S
C1361 H1345 0.930 . S
C1361 C1360 1.377 . S
C1361 C1362 1.379 . S
C1362 H1346 0.931 . S
C1362 C1356 1.383 . S
C1362 C1361 1.379 . S
H1363 C1357 0.959 . S
H1364 C1357 0.961 . S
H1365 C1357 0.960 . S
H1366 C1358 0.930 . S
H1367 C1359 0.929 . S
H1368 C1376 0.929 . S
H1369 C1378 0.930 . S
H1370 C1380 0.930 . S
H1371 C1383 0.929 . S
H1372 C1386 0.930 . S
H1373 C1388 0.960 . S
H1374 C1388 0.960 . S
H1375 C1388 0.960 . S
C1376 H1368 0.929 . S
C1376 C1377 1.377 . S
C1376 C1378 1.384 . S
C1377 C1376 1.377 . S
C1377 C1383 1.390 . S
C1378 H1369 0.930 . S
C1378 C1376 1.384 . S
C1378 C1379 1.372 . S
C1379 C1378 1.372 . S
C1379 C1380 1.400 . S
C1379 C1384 1.490 . S
C1380 H1370 0.930 . S
C1380 C1379 1.400 . S
C1380 C1383 1.386 . S
H1381 C1397 0.930 . S
H1382 C1398 0.931 . S
C1383 H1371 0.929 . S
C1383 C1377 1.390 . S
C1383 C1380 1.386 . S
C1384 C1379 1.490 . S
C1384 C1386 1.395 . S
C1384 C1387 1.403 . S
H1385 C1391 0.930 . S
C1386 H1372 0.930 . S
C1386 C1384 1.395 . S
C1386 C1389 1.403 1_565 S
C1387 C1384 1.403 . S
C1387 C1388 1.524 . S
C1387 C1391 1.400 1_565 S
C1388 H1373 0.960 . S
C1388 H1374 0.960 . S
C1388 H1375 0.960 . S
C1388 C1387 1.524 . S
C1389 C1386 1.403 1_545 S
C1389 C1390 1.392 . S
C1389 C1393 1.495 . S
C1390 C1389 1.392 . S
C1390 C1391 1.385 . S
C1390 C1392 1.478 . S
C1391 H1385 0.930 . S
C1391 C1387 1.400 1_545 S
C1391 C1390 1.385 . S
C1392 C1390 1.478 . S
C1392 C1394 1.381 . S
C1392 C1398 1.383 . S
C1393 C1389 1.495 . S
C1393 H1399 0.959 . S
C1393 H1400 0.961 . S
C1393 H1401 0.960 . S
C1394 C1392 1.381 . S
C1394 C1395 1.394 . S
C1394 H1402 0.930 . S
C1395 C1394 1.394 . S
C1395 C1396 1.383 . S
C1395 H1403 0.929 . S
C1396 C1395 1.383 . S
C1396 C1397 1.377 . S
C1397 H1381 0.930 . S
C1397 C1396 1.377 . S
C1397 C1398 1.379 . S
C1398 H1382 0.931 . S
C1398 C1392 1.383 . S
C1398 C1397 1.379 . S
H1399 C1393 0.959 . S
H1400 C1393 0.961 . S
H1401 C1393 0.960 . S
H1402 C1394 0.930 . S
H1403 C1395 0.929 . S
H1404 C1412 0.929 . S
H1405 C1414 0.930 . S
H1406 C1416 0.930 . S
H1407 C1419 0.929 . S
H1408 C1422 0.930 . S
H1409 C1424 0.910 1_655 S
H1410 C1424 1.012 . S
H1411 C1424 0.981 . S
C1412 H1404 0.929 . S
C1412 C1413 1.377 . S
C1412 C1414 1.384 . S
C1413 C1412 1.377 . S
C1413 C1419 1.390 . S
C1414 H1405 0.930 . S
C1414 C1412 1.384 . S
C1414 C1415 1.372 . S
C1415 C1414 1.372 . S
C1415 C1416 1.400 . S
C1415 C1420 1.490 . S
C1416 H1406 0.930 . S
C1416 C1415 1.400 . S
C1416 C1419 1.386 . S
H1417 C1433 0.930 . S
H1418 C1434 0.931 . S
C1419 H1407 0.929 . S
C1419 C1413 1.390 . S
C1419 C1416 1.386 . S
C1420 C1415 1.490 . S
C1420 C1422 1.395 . S
C1420 C1423 1.403 . S
H1421 C1427 0.930 . S
C1422 H1408 0.930 . S
C1422 C1420 1.395 . S
C1422 C1425 1.403 . S
C1423 C1420 1.403 . S
C1423 C1424 1.506 . S
C1423 C1427 1.400 1_455 S
C1424 H1409 0.910 1_455 S
C1424 H1410 1.012 . S
C1424 H1411 0.981 . S
C1424 C1423 1.506 . S
C1425 C1422 1.403 . S
C1425 C1426 1.392 1_455 S
C1425 C1429 1.495 . S
C1426 C1425 1.392 1_655 S
C1426 C1427 1.385 . S
C1426 C1428 1.478 . S
C1427 H1421 0.930 . S
C1427 C1423 1.400 1_655 S
C1427 C1426 1.385 . S
C1428 C1426 1.478 . S
C1428 C1430 1.381 . S
C1428 C1434 1.383 . S
C1429 C1425 1.495 . S
C1429 H1435 0.959 . S
C1429 H1436 0.961 . S
C1429 H1437 0.960 . S
C1430 C1428 1.381 . S
C1430 C1431 1.394 . S
C1430 H1438 0.930 . S
C1431 C1430 1.394 . S
C1431 C1432 1.383 . S
C1431 H1439 0.929 . S
C1432 C1431 1.383 . S
C1432 C1433 1.377 . S
C1433 H1417 0.930 . S
C1433 C1432 1.377 . S
C1433 C1434 1.379 . S
C1434 H1418 0.931 . S
C1434 C1428 1.383 . S
C1434 C1433 1.379 . S
H1435 C1429 0.959 . S
H1436 C1429 0.961 . S
H1437 C1429 0.960 . S
H1438 C1430 0.930 . S
H1439 C1431 0.929 . S
H1440 C1448 0.929 . S
H1441 C1450 0.930 . S
H1442 C1452 0.930 . S
H1443 C1455 0.929 . S
H1444 C1458 0.930 . S
H1445 C1460 0.960 . S
H1446 C1460 0.960 . S
H1447 C1460 0.960 . S
C1448 H1440 0.929 . S
C1448 C1449 1.377 . S
C1448 C1450 1.384 . S
C1449 C1448 1.377 . S
C1449 C1455 1.390 . S
C1450 H1441 0.930 . S
C1450 C1448 1.384 . S
C1450 C1451 1.372 . S
C1451 C1450 1.372 . S
C1451 C1452 1.400 . S
C1451 C1456 1.490 . S
C1452 H1442 0.930 . S
C1452 C1451 1.400 . S
C1452 C1455 1.386 . S
H1453 C1469 0.930 . S
H1454 C1470 0.931 . S
C1455 H1443 0.929 . S
C1455 C1449 1.390 . S
C1455 C1452 1.386 . S
C1456 C1451 1.490 . S
C1456 C1458 1.395 . S
C1456 C1459 1.403 . S
H1457 C1463 0.930 . S
C1458 H1444 0.930 . S
C1458 C1456 1.395 . S
C1458 C1461 1.403 . S
C1459 C1456 1.403 . S
C1459 C1460 1.524 . S
C1459 C1463 1.400 . S
C1460 H1445 0.960 . S
C1460 H1446 0.960 . S
C1460 H1447 0.960 . S
C1460 C1459 1.524 . S
C1461 C1458 1.403 . S
C1461 C1462 1.392 . S
C1461 C1465 1.495 . S
C1462 C1461 1.392 . S
C1462 C1463 1.385 . S
C1462 C1464 1.478 . S
C1463 H1457 0.930 . S
C1463 C1459 1.400 . S
C1463 C1462 1.385 . S
C1464 C1462 1.478 . S
C1464 C1466 1.381 . S
C1464 C1470 1.383 . S
C1465 C1461 1.495 . S
C1465 H1471 0.959 . S
C1465 H1472 0.961 . S
C1465 H1473 0.960 . S
C1466 C1464 1.381 . S
C1466 C1467 1.394 . S
C1466 H1474 0.930 . S
C1467 C1466 1.394 . S
C1467 C1468 1.383 . S
C1467 H1475 0.929 . S
C1468 C1467 1.383 . S
C1468 C1469 1.377 . S
C1469 H1453 0.930 . S
C1469 C1468 1.377 . S
C1469 C1470 1.379 . S
C1470 H1454 0.931 . S
C1470 C1464 1.383 . S
C1470 C1469 1.379 . S
H1471 C1465 0.959 . S
H1472 C1465 0.961 . S
H1473 C1465 0.960 . S
H1474 C1466 0.930 . S
H1475 C1467 0.929 . S
H1476 C1484 0.929 . S
H1477 C1486 0.930 . S
H1478 C1488 0.930 . S
H1479 C1491 0.929 . S
H1480 C1494 0.930 . S
H1481 C1496 0.960 . S
H1482 C1496 0.960 1_455 S
H1483 C1496 0.960 1_455 S
C1484 H1476 0.929 . S
C1484 C1485 1.377 . S
C1484 C1486 1.384 . S
C1485 C1484 1.377 . S
C1485 C1491 1.390 . S
C1486 H1477 0.930 . S
C1486 C1484 1.384 . S
C1486 C1487 1.372 . S
C1487 C1486 1.372 . S
C1487 C1488 1.400 . S
C1487 C1492 1.490 1_455 S
C1488 H1478 0.930 . S
C1488 C1487 1.400 . S
C1488 C1491 1.386 . S
H1489 C1505 0.930 . S
H1490 C1506 0.931 . S
C1491 H1479 0.929 . S
C1491 C1485 1.390 . S
C1491 C1488 1.386 . S
C1492 C1487 1.490 1_655 S
C1492 C1494 1.395 . S
C1492 C1495 1.403 . S
H1493 C1499 0.930 . S
C1494 H1480 0.930 . S
C1494 C1492 1.395 . S
C1494 C1497 1.403 . S
C1495 C1492 1.403 . S
C1495 C1496 1.524 . S
C1495 C1499 1.400 . S
C1496 H1481 0.960 . S
C1496 H1482 0.960 1_655 S
C1496 H1483 0.960 1_655 S
C1496 C1495 1.524 . S
C1497 C1494 1.403 . S
C1497 C1498 1.392 . S
C1497 C1501 1.495 . S
C1498 C1497 1.392 . S
C1498 C1499 1.385 . S
C1498 C1500 1.478 . S
C1499 H1493 0.930 . S
C1499 C1495 1.400 . S
C1499 C1498 1.385 . S
C1500 C1498 1.478 . S
C1500 C1502 1.381 . S
C1500 C1506 1.383 . S
C1501 C1497 1.495 . S
C1501 H1507 0.959 . S
C1501 H1508 0.961 . S
C1501 H1509 0.960 . S
C1502 C1500 1.381 . S
C1502 C1503 1.394 . S
C1502 H1510 0.930 . S
C1503 C1502 1.394 . S
C1503 C1504 1.383 . S
C1503 H1511 0.929 . S
C1504 C1503 1.383 . S
C1504 C1505 1.377 . S
C1505 H1489 0.930 . S
C1505 C1504 1.377 . S
C1505 C1506 1.379 . S
C1506 H1490 0.931 . S
C1506 C1500 1.383 . S
C1506 C1505 1.379 . S
H1507 C1501 0.959 . S
H1508 C1501 0.961 . S
H1509 C1501 0.960 . S
H1510 C1502 0.930 . S
H1511 C1503 0.929 . S
H1512 C1520 0.929 . S
H1513 C1522 0.930 . S
H1514 C1524 0.930 . S
H1515 C1527 0.929 . S
H1516 C1530 0.930 . S
H1517 C1532 0.960 . S
H1518 C1532 0.960 . S
H1519 C1532 0.960 . S
C1520 H1512 0.929 . S
C1520 C1521 1.377 . S
C1520 C1522 1.384 . S
C1521 C1520 1.377 . S
C1521 C1527 1.390 . S
C1522 H1513 0.930 . S
C1522 C1520 1.384 . S
C1522 C1523 1.372 . S
C1523 C1522 1.372 . S
C1523 C1524 1.400 . S
C1523 C1528 1.490 . S
C1524 H1514 0.930 . S
C1524 C1523 1.400 . S
C1524 C1527 1.386 . S
H1525 C1541 0.930 . S
H1526 C1542 0.931 . S
C1527 H1515 0.929 . S
C1527 C1521 1.390 . S
C1527 C1524 1.386 . S
C1528 C1523 1.490 . S
C1528 C1530 1.395 . S
C1528 C1531 1.403 . S
H1529 C1535 0.930 . S
C1530 H1516 0.930 . S
C1530 C1528 1.395 . S
C1530 C1533 1.403 . S
C1531 C1528 1.403 . S
C1531 C1532 1.524 . S
C1531 C1535 1.400 . S
C1532 H1517 0.960 . S
C1532 H1518 0.960 . S
C1532 H1519 0.960 . S
C1532 C1531 1.524 . S
C1533 C1530 1.403 . S
C1533 C1534 1.392 . S
C1533 C1537 1.495 . S
C1534 C1533 1.392 . S
C1534 C1535 1.385 . S
C1534 C1536 1.478 . S
C1535 H1529 0.930 . S
C1535 C1531 1.400 . S
C1535 C1534 1.385 . S
C1536 C1534 1.478 . S
C1536 C1538 1.381 . S
C1536 C1542 1.383 . S
C1537 C1533 1.495 . S
C1537 H1543 0.959 . S
C1537 H1544 0.961 . S
C1537 H1545 0.960 . S
C1538 C1536 1.381 . S
C1538 C1539 1.394 . S
C1538 H1546 0.930 . S
C1539 C1538 1.394 . S
C1539 C1540 1.383 . S
C1539 H1547 0.929 . S
C1540 C1539 1.383 . S
C1540 C1541 1.377 . S
C1541 H1525 0.930 . S
C1541 C1540 1.377 . S
C1541 C1542 1.379 . S
C1542 H1526 0.931 . S
C1542 C1536 1.383 . S
C1542 C1541 1.379 . S
H1543 C1537 0.959 . S
H1544 C1537 0.961 . S
H1545 C1537 0.960 . S
H1546 C1538 0.930 . S
H1547 C1539 0.929 . S
H1548 C1556 0.929 . S
H1549 C1558 0.930 . S
H1550 C1560 0.930 . S
H1551 C1563 0.929 . S
H1552 C1566 0.930 . S
H1553 C1568 0.960 . S
H1554 C1568 0.960 . S
H1555 C1568 0.960 . S
C1556 H1548 0.929 . S
C1556 C1557 1.377 . S
C1556 C1558 1.384 . S
C1557 C1556 1.377 . S
C1557 C1563 1.390 . S
C1558 H1549 0.930 . S
C1558 C1556 1.384 . S
C1558 C1559 1.372 . S
C1559 C1558 1.372 . S
C1559 C1560 1.400 . S
C1559 C1564 1.490 1_565 S
C1560 H1550 0.930 . S
C1560 C1559 1.400 . S
C1560 C1563 1.386 . S
H1561 C1577 0.930 . S
H1562 C1578 0.931 . S
C1563 H1551 0.929 . S
C1563 C1557 1.390 . S
C1563 C1560 1.386 . S
C1564 C1559 1.490 1_545 S
C1564 C1566 1.395 . S
C1564 C1567 1.403 . S
H1565 C1571 0.930 . S
C1566 H1552 0.930 . S
C1566 C1564 1.395 . S
C1566 C1569 1.403 . S
C1567 C1564 1.403 . S
C1567 C1568 1.524 . S
C1567 C1571 1.400 . S
C1568 H1553 0.960 . S
C1568 H1554 0.960 . S
C1568 H1555 0.960 . S
C1568 C1567 1.524 . S
C1569 C1566 1.403 . S
C1569 C1570 1.392 . S
C1569 C1573 1.495 . S
C1570 C1569 1.392 . S
C1570 C1571 1.385 . S
C1570 C1572 1.478 . S
C1571 H1565 0.930 . S
C1571 C1567 1.400 . S
C1571 C1570 1.385 . S
C1572 C1570 1.478 . S
C1572 C1574 1.381 . S
C1572 C1578 1.383 . S
C1573 C1569 1.495 . S
C1573 H1579 0.959 . S
C1573 H1580 0.961 . S
C1573 H1581 0.960 . S
C1574 C1572 1.381 . S
C1574 C1575 1.394 . S
C1574 H1582 0.930 . S
C1575 C1574 1.394 . S
C1575 C1576 1.383 . S
C1575 H1583 0.929 . S
C1576 C1575 1.383 . S
C1576 C1577 1.377 . S
C1577 H1561 0.930 . S
C1577 C1576 1.377 . S
C1577 C1578 1.379 . S
C1578 H1562 0.931 . S
C1578 C1572 1.383 . S
C1578 C1577 1.379 . S
H1579 C1573 0.959 . S
H1580 C1573 0.961 . S
H1581 C1573 0.960 . S
H1582 C1574 0.930 . S
H1583 C1575 0.929 . S
H1584 C1592 0.929 . S
H1585 C1594 0.930 . S
H1586 C1596 0.930 . S
H1587 C1599 0.929 . S
H1588 C1602 0.930 . S
H1589 C1604 0.960 . S
H1590 C1604 0.960 . S
H1591 C1604 0.960 . S
C1592 H1584 0.929 . S
C1592 C1593 1.377 . S
C1592 C1594 1.384 . S
C1593 C1592 1.377 . S
C1593 C1599 1.390 . S
C1594 H1585 0.930 . S
C1594 C1592 1.384 . S
C1594 C1595 1.372 . S
C1595 C1594 1.372 . S
C1595 C1596 1.400 . S
C1595 C1600 1.490 . S
C1596 H1586 0.930 . S
C1596 C1595 1.400 . S
C1596 C1599 1.386 . S
H1597 C1613 0.930 . S
H1598 C1614 0.931 . S
C1599 H1587 0.929 . S
C1599 C1593 1.390 . S
C1599 C1596 1.386 . S
C1600 C1595 1.490 . S
C1600 C1602 1.395 . S
C1600 C1603 1.403 . S
H1601 C1607 0.930 . S
C1602 H1588 0.930 . S
C1602 C1600 1.395 . S
C1602 C1605 1.403 . S
C1603 C1600 1.403 . S
C1603 C1604 1.524 . S
C1603 C1607 1.400 . S
C1604 H1589 0.960 . S
C1604 H1590 0.960 . S
C1604 H1591 0.960 . S
C1604 C1603 1.524 . S
C1605 C1602 1.403 . S
C1605 C1606 1.392 . S
C1605 C1609 1.495 . S
C1606 C1605 1.392 . S
C1606 C1607 1.385 . S
C1606 C1608 1.478 . S
C1607 H1601 0.930 . S
C1607 C1603 1.400 . S
C1607 C1606 1.385 . S
C1608 C1606 1.478 . S
C1608 C1610 1.381 . S
C1608 C1614 1.383 . S
C1609 C1605 1.495 . S
C1609 H1615 0.959 . S
C1609 H1616 0.961 . S
C1609 H1617 0.960 . S
C1610 C1608 1.381 . S
C1610 C1611 1.394 . S
C1610 H1618 0.930 . S
C1611 C1610 1.394 . S
C1611 C1612 1.383 . S
C1611 H1619 0.929 . S
C1612 C1611 1.383 . S
C1612 C1613 1.377 . S
C1613 H1597 0.930 . S
C1613 C1612 1.377 . S
C1613 C1614 1.379 . S
C1614 H1598 0.931 . S
C1614 C1608 1.383 . S
C1614 C1613 1.379 . S
H1615 C1609 0.959 . S
H1616 C1609 0.961 . S
H1617 C1609 0.960 . S
H1618 C1610 0.930 . S
H1619 C1611 0.929 . S
H1620 C1628 0.929 . S
H1621 C1630 0.930 . S
H1622 C1632 0.930 . S
H1623 C1635 0.929 . S
H1624 C1638 0.930 . S
H1625 C1640 0.960 . S
H1626 C1640 0.960 . S
H1627 C1640 0.960 . S
C1628 H1620 0.929 . S
C1628 C1629 1.377 . S
C1628 C1630 1.384 . S
C1629 C1628 1.377 . S
C1629 C1635 1.390 . S
C1630 H1621 0.930 . S
C1630 C1628 1.384 . S
C1630 C1631 1.372 . S
C1631 C1630 1.372 . S
C1631 C1632 1.400 . S
C1631 C1636 1.490 . S
C1632 H1622 0.930 . S
C1632 C1631 1.400 . S
C1632 C1635 1.386 . S
H1633 C1649 0.930 . S
H1634 C1650 0.931 . S
C1635 H1623 0.929 . S
C1635 C1629 1.390 . S
C1635 C1632 1.386 . S
C1636 C1631 1.490 . S
C1636 C1638 1.395 . S
C1636 C1639 1.403 . S
H1637 C1643 0.930 . S
C1638 H1624 0.930 . S
C1638 C1636 1.395 . S
C1638 C1641 1.403 . S
C1639 C1636 1.403 . S
C1639 C1640 1.524 . S
C1639 C1643 1.400 . S
C1640 H1625 0.960 . S
C1640 H1626 0.960 . S
C1640 H1627 0.960 . S
C1640 C1639 1.524 . S
C1641 C1638 1.403 . S
C1641 C1642 1.392 . S
C1641 C1645 1.495 . S
C1642 C1641 1.392 . S
C1642 C1643 1.385 . S
C1642 C1644 1.478 . S
C1643 H1637 0.930 . S
C1643 C1639 1.400 . S
C1643 C1642 1.385 . S
C1644 C1642 1.478 . S
C1644 C1646 1.381 . S
C1644 C1650 1.383 . S
C1645 C1641 1.495 . S
C1645 H1651 0.959 . S
C1645 H1652 0.961 . S
C1645 H1653 0.960 . S
C1646 C1644 1.381 . S
C1646 C1647 1.394 . S
C1646 H1654 0.930 . S
C1647 C1646 1.394 . S
C1647 C1648 1.383 . S
C1647 H1655 0.929 . S
C1648 C1647 1.383 . S
C1648 C1649 1.377 . S
C1649 H1633 0.930 . S
C1649 C1648 1.377 . S
C1649 C1650 1.379 . S
C1650 H1634 0.931 . S
C1650 C1644 1.383 . S
C1650 C1649 1.379 . S
H1651 C1645 0.959 . S
H1652 C1645 0.961 . S
H1653 C1645 0.960 . S
H1654 C1646 0.930 . S
H1655 C1647 0.929 . S
H1656 C1664 0.929 . S
H1657 C1666 0.930 . S
H1658 C1668 0.930 . S
H1659 C1671 0.929 . S
H1660 C1674 0.930 . S
H1661 C1676 0.960 . S
H1662 C1676 0.960 . S
H1663 C1676 0.960 . S
C1664 H1656 0.929 . S
C1664 C1665 1.377 . S
C1664 C1666 1.384 . S
C1665 C1664 1.377 . S
C1665 C1671 1.390 . S
C1666 H1657 0.930 . S
C1666 C1664 1.384 . S
C1666 C1667 1.372 . S
C1667 C1666 1.372 . S
C1667 C1668 1.400 . S
C1667 C1672 1.490 . S
C1668 H1658 0.930 . S
C1668 C1667 1.400 . S
C1668 C1671 1.386 . S
H1669 C1685 0.930 . S
H1670 C1686 0.931 . S
C1671 H1659 0.929 . S
C1671 C1665 1.390 . S
C1671 C1668 1.386 . S
C1672 C1667 1.490 . S
C1672 C1674 1.395 . S
C1672 C1675 1.403 . S
H1673 C1679 0.930 . S
C1674 H1660 0.930 . S
C1674 C1672 1.395 . S
C1674 C1677 1.403 . S
C1675 C1672 1.403 . S
C1675 C1676 1.524 . S
C1675 C1679 1.400 . S
C1676 H1661 0.960 . S
C1676 H1662 0.960 . S
C1676 H1663 0.960 . S
C1676 C1675 1.524 . S
C1677 C1674 1.403 . S
C1677 C1678 1.392 . S
C1677 C1681 1.495 . S
C1678 C1677 1.392 . S
C1678 C1679 1.385 . S
C1678 C1680 1.478 . S
C1679 H1673 0.930 . S
C1679 C1675 1.400 . S
C1679 C1678 1.385 . S
C1680 C1678 1.478 . S
C1680 C1682 1.381 . S
C1680 C1686 1.383 . S
C1681 C1677 1.495 . S
C1681 H1687 0.959 . S
C1681 H1688 0.961 . S
C1681 H1689 0.960 . S
C1682 C1680 1.381 . S
C1682 C1683 1.394 . S
C1682 H1690 0.930 . S
C1683 C1682 1.394 . S
C1683 C1684 1.383 . S
C1683 H1691 0.929 . S
C1684 C1683 1.383 . S
C1684 C1685 1.377 . S
C1685 H1669 0.930 . S
C1685 C1684 1.377 . S
C1685 C1686 1.379 . S
C1686 H1670 0.931 . S
C1686 C1680 1.383 . S
C1686 C1685 1.379 . S
H1687 C1681 0.959 . S
H1688 C1681 0.961 . S
H1689 C1681 0.960 . S
H1690 C1682 0.930 . S
H1691 C1683 0.929 . S
H1692 C1700 0.929 . S
H1693 C1702 0.930 . S
H1694 C1704 0.930 . S
H1695 C1707 0.929 . S
H1696 C1710 0.930 . S
H1697 C1712 0.960 . S
H1698 C1712 0.960 . S
H1699 C1712 0.960 . S
C1700 H1692 0.929 . S
C1700 C1701 1.377 . S
C1700 C1702 1.384 . S
C1701 C1700 1.377 . S
C1701 C1707 1.390 . S
C1702 H1693 0.930 . S
C1702 C1700 1.384 . S
C1702 C1703 1.372 . S
C1703 C1702 1.372 . S
C1703 C1704 1.400 . S
C1703 C1708 1.490 . S
C1704 H1694 0.930 . S
C1704 C1703 1.400 . S
C1704 C1707 1.386 . S
H1705 C1721 0.930 . S
H1706 C1722 0.931 . S
C1707 H1695 0.929 . S
C1707 C1701 1.390 . S
C1707 C1704 1.386 . S
C1708 C1703 1.490 . S
C1708 C1710 1.395 . S
C1708 C1711 1.403 . S
H1709 C1715 0.930 . S
C1710 H1696 0.930 . S
C1710 C1708 1.395 . S
C1710 C1713 1.403 . S
C1711 C1708 1.403 . S
C1711 C1712 1.524 . S
C1711 C1715 1.400 . S
C1712 H1697 0.960 . S
C1712 H1698 0.960 . S
C1712 H1699 0.960 . S
C1712 C1711 1.524 . S
C1713 C1710 1.403 . S
C1713 C1714 1.392 . S
C1713 C1717 1.495 . S
C1714 C1713 1.392 . S
C1714 C1715 1.385 . S
C1714 C1716 1.478 . S
C1715 H1709 0.930 . S
C1715 C1711 1.400 . S
C1715 C1714 1.385 . S
C1716 C1714 1.478 . S
C1716 C1718 1.381 . S
C1716 C1722 1.383 . S
C1717 C1713 1.495 . S
C1717 H1723 0.959 . S
C1717 H1724 0.961 . S
C1717 H1725 0.960 . S
C1718 C1716 1.381 . S
C1718 C1719 1.394 . S
C1718 H1726 0.930 . S
C1719 C1718 1.394 . S
C1719 C1720 1.383 . S
C1719 H1727 0.929 . S
C1720 C1719 1.383 . S
C1720 C1721 1.377 . S
C1721 H1705 0.930 . S
C1721 C1720 1.377 . S
C1721 C1722 1.379 . S
C1722 H1706 0.931 . S
C1722 C1716 1.383 . S
C1722 C1721 1.379 . S
H1723 C1717 0.959 . S
H1724 C1717 0.961 . S
H1725 C1717 0.960 . S
H1726 C1718 0.930 . S
H1727 C1719 0.929 . S
H1728 C1736 0.929 . S
H1729 C1738 0.930 . S
H1730 C1740 0.930 . S
H1731 C1743 0.929 . S
H1732 C1746 0.930 . S
H1733 C1748 0.960 . S
H1734 C1748 0.960 . S
H1735 C1748 0.960 . S
C1736 H1728 0.929 . S
C1736 C1737 1.377 . S
C1736 C1738 1.384 . S
C1737 C1736 1.377 . S
C1737 C1743 1.390 . S
C1738 H1729 0.930 . S
C1738 C1736 1.384 . S
C1738 C1739 1.372 . S
C1739 C1738 1.372 . S
C1739 C1740 1.400 . S
C1739 C1744 1.490 . S
C1740 H1730 0.930 . S
C1740 C1739 1.400 . S
C1740 C1743 1.386 . S
H1741 C1757 0.930 . S
H1742 C1758 0.931 . S
C1743 H1731 0.929 . S
C1743 C1737 1.390 . S
C1743 C1740 1.386 . S
C1744 C1739 1.490 . S
C1744 C1746 1.395 . S
C1744 C1747 1.403 . S
H1745 C1751 0.930 . S
C1746 H1732 0.930 . S
C1746 C1744 1.395 . S
C1746 C1749 1.403 . S
C1747 C1744 1.403 . S
C1747 C1748 1.524 . S
C1747 C1751 1.400 . S
C1748 H1733 0.960 . S
C1748 H1734 0.960 . S
C1748 H1735 0.960 . S
C1748 C1747 1.524 . S
C1749 C1746 1.403 . S
C1749 C1750 1.392 . S
C1749 C1753 1.495 . S
C1750 C1749 1.392 . S
C1750 C1751 1.385 . S
C1750 C1752 1.478 . S
C1751 H1745 0.930 . S
C1751 C1747 1.400 . S
C1751 C1750 1.385 . S
C1752 C1750 1.478 . S
C1752 C1754 1.381 . S
C1752 C1758 1.383 . S
C1753 C1749 1.495 . S
C1753 H1759 0.959 . S
C1753 H1760 0.961 . S
C1753 H1761 0.960 . S
C1754 C1752 1.381 . S
C1754 C1755 1.394 . S
C1754 H1762 0.930 . S
C1755 C1754 1.394 . S
C1755 C1756 1.383 . S
C1755 H1763 0.929 . S
C1756 C1755 1.383 . S
C1756 C1757 1.377 . S
C1757 H1741 0.930 . S
C1757 C1756 1.377 . S
C1757 C1758 1.379 . S
C1758 H1742 0.931 . S
C1758 C1752 1.383 . S
C1758 C1757 1.379 . S
H1759 C1753 0.959 . S
H1760 C1753 0.961 . S
H1761 C1753 0.960 . S
H1762 C1754 0.930 . S
H1763 C1755 0.929 . S
H1764 C1772 0.929 . S
H1765 C1774 0.930 . S
H1766 C1776 0.930 . S
H1767 C1779 0.929 . S
H1768 C1782 0.930 . S
H1769 C1784 0.960 . S
H1770 C1784 0.960 . S
H1771 C1784 0.960 . S
C1772 H1764 0.929 . S
C1772 C1773 1.377 . S
C1772 C1774 1.384 . S
C1773 C1772 1.377 . S
C1773 C1779 1.390 . S
C1774 H1765 0.930 . S
C1774 C1772 1.384 . S
C1774 C1775 1.372 . S
C1775 C1774 1.372 . S
C1775 C1776 1.400 . S
C1775 C1780 1.490 . S
C1776 H1766 0.930 . S
C1776 C1775 1.400 . S
C1776 C1779 1.386 . S
H1777 C1793 0.930 . S
H1778 C1794 0.931 . S
C1779 H1767 0.929 . S
C1779 C1773 1.390 . S
C1779 C1776 1.386 . S
C1780 C1775 1.490 . S
C1780 C1782 1.395 . S
C1780 C1783 1.403 . S
H1781 C1787 0.930 . S
C1782 H1768 0.930 . S
C1782 C1780 1.395 . S
C1782 C1785 1.403 . S
C1783 C1780 1.403 . S
C1783 C1784 1.524 . S
C1783 C1787 1.400 . S
C1784 H1769 0.960 . S
C1784 H1770 0.960 . S
C1784 H1771 0.960 . S
C1784 C1783 1.524 . S
C1785 C1782 1.403 . S
C1785 C1786 1.392 . S
C1785 C1789 1.495 . S
C1786 C1785 1.392 . S
C1786 C1787 1.385 . S
C1786 C1788 1.478 . S
C1787 H1781 0.930 . S
C1787 C1783 1.400 . S
C1787 C1786 1.385 . S
C1788 C1786 1.478 . S
C1788 C1790 1.381 . S
C1788 C1794 1.383 . S
C1789 C1785 1.495 . S
C1789 H1795 0.959 . S
C1789 H1796 0.961 . S
C1789 H1797 0.960 . S
C1790 C1788 1.381 . S
C1790 C1791 1.394 . S
C1790 H1798 0.930 . S
C1791 C1790 1.394 . S
C1791 C1792 1.383 . S
C1791 H1799 0.929 . S
C1792 C1791 1.383 . S
C1792 C1793 1.377 . S
C1793 H1777 0.930 . S
C1793 C1792 1.377 . S
C1793 C1794 1.379 . S
C1794 H1778 0.931 . S
C1794 C1788 1.383 . S
C1794 C1793 1.379 . S
H1795 C1789 0.959 . S
H1796 C1789 0.961 . S
H1797 C1789 0.960 . S
H1798 C1790 0.930 . S
H1799 C1791 0.929 . S
H1800 C1808 0.929 . S
H1801 C1810 0.930 . S
H1802 C1812 0.930 . S
H1803 C1815 0.929 . S
H1804 C1818 0.930 . S
H1805 C1820 0.960 . S
H1806 C1820 0.960 . S
H1807 C1820 0.960 . S
C1808 H1800 0.929 . S
C1808 C1809 1.377 . S
C1808 C1810 1.384 . S
C1809 C1808 1.377 . S
C1809 C1815 1.390 . S
C1810 H1801 0.930 . S
C1810 C1808 1.384 . S
C1810 C1811 1.372 . S
C1811 C1810 1.372 . S
C1811 C1812 1.400 . S
C1811 C1816 1.490 . S
C1812 H1802 0.930 . S
C1812 C1811 1.400 . S
C1812 C1815 1.386 . S
H1813 C1829 0.930 . S
H1814 C1830 0.931 . S
C1815 H1803 0.929 . S
C1815 C1809 1.390 . S
C1815 C1812 1.386 . S
C1816 C1811 1.490 . S
C1816 C1818 1.395 . S
C1816 C1819 1.403 . S
H1817 C1823 0.930 . S
C1818 H1804 0.930 . S
C1818 C1816 1.395 . S
C1818 C1821 1.403 . S
C1819 C1816 1.403 . S
C1819 C1820 1.524 . S
C1819 C1823 1.400 . S
C1820 H1805 0.960 . S
C1820 H1806 0.960 . S
C1820 H1807 0.960 . S
C1820 C1819 1.524 . S
C1821 C1818 1.403 . S
C1821 C1822 1.392 . S
C1821 C1825 1.495 . S
C1822 C1821 1.392 . S
C1822 C1823 1.385 . S
C1822 C1824 1.478 . S
C1823 H1817 0.930 . S
C1823 C1819 1.400 . S
C1823 C1822 1.385 . S
C1824 C1822 1.478 . S
C1824 C1826 1.381 . S
C1824 C1830 1.383 . S
C1825 C1821 1.495 . S
C1825 H1831 0.959 . S
C1825 H1832 0.961 . S
C1825 H1833 0.960 . S
C1826 C1824 1.381 . S
C1826 C1827 1.394 . S
C1826 H1834 0.928 . S
C1827 C1826 1.394 . S
C1827 C1828 1.383 . S
C1827 H1835 0.929 1_655 S
C1828 C1827 1.383 . S
C1828 C1829 1.377 . S
C1829 H1813 0.930 . S
C1829 C1828 1.377 . S
C1829 C1830 1.379 . S
C1830 H1814 0.931 . S
C1830 C1824 1.383 . S
C1830 C1829 1.379 . S
H1831 C1825 0.959 . S
H1832 C1825 0.961 . S
H1833 C1825 0.960 . S
H1834 C1826 0.928 . S
H1835 C1827 0.929 1_455 S
H1836 C1844 0.929 . S
H1837 C1846 0.930 . S
H1838 C1848 0.930 . S
H1839 C1851 0.929 . S
H1840 C1854 0.930 . S
H1841 C1856 0.960 . S
H1842 C1856 0.960 . S
H1843 C1856 0.960 . S
C1844 H1836 0.929 . S
C1844 C1845 1.377 . S
C1844 C1846 1.384 . S
C1845 C1844 1.377 . S
C1845 C1851 1.390 . S
C1846 H1837 0.930 . S
C1846 C1844 1.384 . S
C1846 C1847 1.372 . S
C1847 C1846 1.372 . S
C1847 C1848 1.400 . S
C1847 C1852 1.490 . S
C1848 H1838 0.930 . S
C1848 C1847 1.400 . S
C1848 C1851 1.386 . S
H1849 C1865 0.930 . S
H1850 C1866 0.931 . S
C1851 H1839 0.929 . S
C1851 C1845 1.390 . S
C1851 C1848 1.386 . S
C1852 C1847 1.490 . S
C1852 C1854 1.395 . S
C1852 C1855 1.403 . S
H1853 C1859 0.930 . S
C1854 H1840 0.930 . S
C1854 C1852 1.395 . S
C1854 C1857 1.403 . S
C1855 C1852 1.403 . S
C1855 C1856 1.524 . S
C1855 C1859 1.400 . S
C1856 H1841 0.960 . S
C1856 H1842 0.960 . S
C1856 H1843 0.960 . S
C1856 C1855 1.524 . S
C1857 C1854 1.403 . S
C1857 C1858 1.392 . S
C1857 C1861 1.495 . S
C1858 C1857 1.392 . S
C1858 C1859 1.385 . S
C1858 C1860 1.478 . S
C1859 H1853 0.930 . S
C1859 C1855 1.400 . S
C1859 C1858 1.385 . S
C1860 C1858 1.478 . S
C1860 C1862 1.381 . S
C1860 C1866 1.383 . S
C1861 C1857 1.495 . S
C1861 H1867 0.959 . S
C1861 H1868 0.961 . S
C1861 H1869 0.960 . S
C1862 C1860 1.381 . S
C1862 C1863 1.394 . S
C1862 H1870 0.930 . S
C1863 C1862 1.394 . S
C1863 C1864 1.383 . S
C1863 H1871 0.929 . S
C1864 C1863 1.383 . S
C1864 C1865 1.377 . S
C1865 H1849 0.930 . S
C1865 C1864 1.377 . S
C1865 C1866 1.379 . S
C1866 H1850 0.931 . S
C1866 C1860 1.383 . S
C1866 C1865 1.379 . S
H1867 C1861 0.959 . S
H1868 C1861 0.961 . S
H1869 C1861 0.960 . S
H1870 C1862 0.930 . S
H1871 C1863 0.929 . S
H1872 C1880 0.929 . S
H1873 C1882 0.930 . S
H1874 C1884 0.930 . S
H1875 C1887 0.929 . S
H1876 C1890 0.930 . S
H1877 C1892 0.960 . S
H1878 C1892 0.960 . S
H1879 C1892 0.960 . S
C1880 H1872 0.929 . S
C1880 C1881 1.377 . S
C1880 C1882 1.384 . S
C1881 C1880 1.377 . S
C1881 C1887 1.390 . S
C1882 H1873 0.930 . S
C1882 C1880 1.384 . S
C1882 C1883 1.372 . S
C1883 C1882 1.372 . S
C1883 C1884 1.400 . S
C1883 C1888 1.490 . S
C1884 H1874 0.930 . S
C1884 C1883 1.400 . S
C1884 C1887 1.386 . S
H1885 C1901 0.930 . S
H1886 C1902 0.931 . S
C1887 H1875 0.929 . S
C1887 C1881 1.390 . S
C1887 C1884 1.386 . S
C1888 C1883 1.490 . S
C1888 C1890 1.395 . S
C1888 C1891 1.403 . S
H1889 C1895 0.930 . S
C1890 H1876 0.930 . S
C1890 C1888 1.395 . S
C1890 C1893 1.403 . S
C1891 C1888 1.403 . S
C1891 C1892 1.524 . S
C1891 C1895 1.400 . S
C1892 H1877 0.960 . S
C1892 H1878 0.960 . S
C1892 H1879 0.960 . S
C1892 C1891 1.524 . S
C1893 C1890 1.403 . S
C1893 C1894 1.392 . S
C1893 C1897 1.495 . S
C1894 C1893 1.392 . S
C1894 C1895 1.385 . S
C1894 C1896 1.478 . S
C1895 H1889 0.930 . S
C1895 C1891 1.400 . S
C1895 C1894 1.385 . S
C1896 C1894 1.478 . S
C1896 C1898 1.381 . S
C1896 C1902 1.383 . S
C1897 C1893 1.495 . S
C1897 H1903 0.959 . S
C1897 H1904 0.961 . S
C1897 H1905 0.960 . S
C1898 C1896 1.381 . S
C1898 C1899 1.394 . S
C1898 H1906 0.930 . S
C1899 C1898 1.394 . S
C1899 C1900 1.383 . S
C1899 H1907 0.929 1_545 S
C1900 C1899 1.383 . S
C1900 C1901 1.377 . S
C1901 H1885 0.930 . S
C1901 C1900 1.377 . S
C1901 C1902 1.379 . S
C1902 H1886 0.931 . S
C1902 C1896 1.383 . S
C1902 C1901 1.379 . S
H1903 C1897 0.959 . S
H1904 C1897 0.961 . S
H1905 C1897 0.960 . S
H1906 C1898 0.930 . S
H1907 C1899 0.929 1_565 S
H1908 C1916 0.929 . S
H1909 C1918 0.930 . S
H1910 C1920 0.930 . S
H1911 C1923 0.929 . S
H1912 C1926 0.930 . S
H1913 C1928 0.960 . S
H1914 C1928 0.960 . S
H1915 C1928 0.960 . S
C1916 H1908 0.929 . S
C1916 C1917 1.377 . S
C1916 C1918 1.384 . S
C1917 C1916 1.377 . S
C1917 C1923 1.390 . S
C1918 H1909 0.930 . S
C1918 C1916 1.384 . S
C1918 C1919 1.372 . S
C1919 C1918 1.372 . S
C1919 C1920 1.400 . S
C1919 C1924 1.490 . S
C1920 H1910 0.930 . S
C1920 C1919 1.400 . S
C1920 C1923 1.386 . S
H1921 C1937 0.930 . S
H1922 C1938 0.931 . S
C1923 H1911 0.929 . S
C1923 C1917 1.390 . S
C1923 C1920 1.386 . S
C1924 C1919 1.490 . S
C1924 C1926 1.395 . S
C1924 C1927 1.403 . S
H1925 C1931 0.930 . S
C1926 H1912 0.930 . S
C1926 C1924 1.395 . S
C1926 C1929 1.403 . S
C1927 C1924 1.403 . S
C1927 C1928 1.524 . S
C1927 C1931 1.400 . S
C1928 H1913 0.960 . S
C1928 H1914 0.960 . S
C1928 H1915 0.960 . S
C1928 C1927 1.524 . S
C1929 C1926 1.403 . S
C1929 C1930 1.392 . S
C1929 C1933 1.495 . S
C1930 C1929 1.392 . S
C1930 C1931 1.385 . S
C1930 C1932 1.478 . S
C1931 H1925 0.930 . S
C1931 C1927 1.400 . S
C1931 C1930 1.385 . S
C1932 C1930 1.478 . S
C1932 C1934 1.381 . S
C1932 C1938 1.383 . S
C1933 C1929 1.495 . S
C1933 H1939 0.959 . S
C1933 H1940 0.961 . S
C1933 H1941 0.960 . S
C1934 C1932 1.381 . S
C1934 C1935 1.394 . S
C1934 H1942 0.930 . S
C1935 C1934 1.394 . S
C1935 C1936 1.383 . S
C1935 H1943 0.929 . S
C1936 C1935 1.383 . S
C1936 C1937 1.377 . S
C1937 H1921 0.930 . S
C1937 C1936 1.377 . S
C1937 C1938 1.379 . S
C1938 H1922 0.931 . S
C1938 C1932 1.383 . S
C1938 C1937 1.379 . S
H1939 C1933 0.959 . S
H1940 C1933 0.961 . S
H1941 C1933 0.960 . S
H1942 C1934 0.930 . S
H1943 C1935 0.929 . S
H1944 C1952 0.929 . S
H1945 C1954 0.930 . S
H1946 C1956 0.930 . S
H1947 C1959 0.929 . S
H1948 C1962 0.930 . S
H1949 C1964 0.960 . S
H1950 C1964 0.960 . S
H1951 C1964 0.960 . S
C1952 H1944 0.929 . S
C1952 C1953 1.377 . S
C1952 C1954 1.384 . S
C1953 C1952 1.377 . S
C1953 C1959 1.390 . S
C1954 H1945 0.930 . S
C1954 C1952 1.384 . S
C1954 C1955 1.372 . S
C1955 C1954 1.372 . S
C1955 C1956 1.400 . S
C1955 C1960 1.490 . S
C1956 H1946 0.930 . S
C1956 C1955 1.400 . S
C1956 C1959 1.386 . S
H1957 C1973 0.930 . S
H1958 C1974 0.931 . S
C1959 H1947 0.929 . S
C1959 C1953 1.390 . S
C1959 C1956 1.386 . S
C1960 C1955 1.490 . S
C1960 C1962 1.395 . S
C1960 C1963 1.403 . S
H1961 C1967 0.930 . S
C1962 H1948 0.930 . S
C1962 C1960 1.395 . S
C1962 C1965 1.403 . S
C1963 C1960 1.403 . S
C1963 C1964 1.524 . S
C1963 C1967 1.400 . S
C1964 H1949 0.960 . S
C1964 H1950 0.960 . S
C1964 H1951 0.960 . S
C1964 C1963 1.524 . S
C1965 C1962 1.403 . S
C1965 C1966 1.392 . S
C1965 C1969 1.495 . S
C1966 C1965 1.392 . S
C1966 C1967 1.385 . S
C1966 C1968 1.478 . S
C1967 H1961 0.930 . S
C1967 C1963 1.400 . S
C1967 C1966 1.385 . S
C1968 C1966 1.478 . S
C1968 C1970 1.381 . S
C1968 C1974 1.383 . S
C1969 C1965 1.495 . S
C1969 H1975 0.959 . S
C1969 H1976 0.961 . S
C1969 H1977 0.960 . S
C1970 C1968 1.381 . S
C1970 C1971 1.394 . S
C1970 H1978 0.930 . S
C1971 C1970 1.394 . S
C1971 C1972 1.383 . S
C1971 H1979 0.929 . S
C1972 C1971 1.383 . S
C1972 C1973 1.377 . S
C1973 H1957 0.930 . S
C1973 C1972 1.377 . S
C1973 C1974 1.379 . S
C1974 H1958 0.931 . S
C1974 C1968 1.383 . S
C1974 C1973 1.379 . S
H1975 C1969 0.959 . S
H1976 C1969 0.961 . S
H1977 C1969 0.960 . S
H1978 C1970 0.930 . S
H1979 C1971 0.929 . S
H1980 C1988 0.929 . S
H1981 C1990 0.930 . S
H1982 C1992 0.930 . S
H1983 C1995 0.929 . S
H1984 C1998 0.930 . S
H1985 C2000 0.960 . S
H1986 C2000 0.960 . S
H1987 C2000 0.960 . S
C1988 H1980 0.929 . S
C1988 C1989 1.377 . S
C1988 C1990 1.384 . S
C1989 C1988 1.377 . S
C1989 C1995 1.390 . S
C1990 H1981 0.930 . S
C1990 C1988 1.384 . S
C1990 C1991 1.372 . S
C1991 C1990 1.372 . S
C1991 C1992 1.400 . S
C1991 C1996 1.490 . S
C1992 H1982 0.930 . S
C1992 C1991 1.400 . S
C1992 C1995 1.386 . S
H1993 C2009 0.930 . S
H1994 C2010 0.931 . S
C1995 H1983 0.929 . S
C1995 C1989 1.390 . S
C1995 C1992 1.386 . S
C1996 C1991 1.490 . S
C1996 C1998 1.395 . S
C1996 C1999 1.403 . S
H1997 C2003 0.930 . S
C1998 H1984 0.930 . S
C1998 C1996 1.395 . S
C1998 C2001 1.403 . S
C1999 C1996 1.403 . S
C1999 C2000 1.524 . S
C1999 C2003 1.400 . S
C2000 H1985 0.960 . S
C2000 H1986 0.960 . S
C2000 H1987 0.960 . S
C2000 C1999 1.524 . S
C2001 C1998 1.403 . S
C2001 C2002 1.392 . S
C2001 C2005 1.495 . S
C2002 C2001 1.392 . S
C2002 C2003 1.385 . S
C2002 C2004 1.478 . S
C2003 H1997 0.930 . S
C2003 C1999 1.400 . S
C2003 C2002 1.385 . S
C2004 C2002 1.478 . S
C2004 C2006 1.381 . S
C2004 C2010 1.383 . S
C2005 C2001 1.495 . S
C2005 H2011 0.959 . S
C2005 H2012 0.961 . S
C2005 H2013 0.960 . S
C2006 C2004 1.381 . S
C2006 C2007 1.394 . S
C2006 H2014 0.930 . S
C2007 C2006 1.394 . S
C2007 C2008 1.383 . S
C2007 H2015 0.929 . S
C2008 C2007 1.383 . S
C2008 C2009 1.377 . S
C2009 H1993 0.930 . S
C2009 C2008 1.377 . S
C2009 C2010 1.379 . S
C2010 H1994 0.931 . S
C2010 C2004 1.383 . S
C2010 C2009 1.379 . S
H2011 C2005 0.959 . S
H2012 C2005 0.961 . S
H2013 C2005 0.960 . S
H2014 C2006 0.930 . S
H2015 C2007 0.929 . S
H2016 C2024 0.929 . S
H2017 C2026 0.930 . S
H2018 C2028 0.930 . S
H2019 C2031 0.929 . S
H2020 C2034 0.930 . S
H2021 C2036 0.960 . S
H2022 C2036 0.960 . S
H2023 C2036 0.960 . S
C2024 H2016 0.929 . S
C2024 C2025 1.377 . S
C2024 C2026 1.384 . S
C2025 C2024 1.377 . S
C2025 C2031 1.390 . S
C2026 H2017 0.930 . S
C2026 C2024 1.384 . S
C2026 C2027 1.372 . S
C2027 C2026 1.372 . S
C2027 C2028 1.400 . S
C2027 C2032 1.490 . S
C2028 H2018 0.930 . S
C2028 C2027 1.400 . S
C2028 C2031 1.386 . S
H2029 C2045 0.930 . S
H2030 C2046 0.931 . S
C2031 H2019 0.929 . S
C2031 C2025 1.390 . S
C2031 C2028 1.386 . S
C2032 C2027 1.490 . S
C2032 C2034 1.395 . S
C2032 C2035 1.403 . S
H2033 C2039 0.930 . S
C2034 H2020 0.930 . S
C2034 C2032 1.395 . S
C2034 C2037 1.403 . S
C2035 C2032 1.403 . S
C2035 C2036 1.524 . S
C2035 C2039 1.400 . S
C2036 H2021 0.960 . S
C2036 H2022 0.960 . S
C2036 H2023 0.960 . S
C2036 C2035 1.524 . S
C2037 C2034 1.403 . S
C2037 C2038 1.392 . S
C2037 C2041 1.495 . S
C2038 C2037 1.392 . S
C2038 C2039 1.385 . S
C2038 C2040 1.478 . S
C2039 H2033 0.930 . S
C2039 C2035 1.400 . S
C2039 C2038 1.385 . S
C2040 C2038 1.478 . S
C2040 C2042 1.381 . S
C2040 C2046 1.383 . S
C2041 C2037 1.495 . S
C2041 H2047 0.959 . S
C2041 H2048 0.961 . S
C2041 H2049 0.960 . S
C2042 C2040 1.381 . S
C2042 C2043 1.394 . S
C2042 H2050 0.930 . S
C2043 C2042 1.394 . S
C2043 C2044 1.383 . S
C2043 H2051 0.929 . S
C2044 C2043 1.383 . S
C2044 C2045 1.377 . S
C2045 H2029 0.930 . S
C2045 C2044 1.377 . S
C2045 C2046 1.379 . S
C2046 H2030 0.931 . S
C2046 C2040 1.383 . S
C2046 C2045 1.379 . S
H2047 C2041 0.959 . S
H2048 C2041 0.961 . S
H2049 C2041 0.960 . S
H2050 C2042 0.930 . S
H2051 C2043 0.929 . S
H2052 C2060 0.929 . S
H2053 C2062 0.930 . S
H2054 C2064 0.930 . S
H2055 C2067 0.929 . S
H2056 C2070 0.930 . S
H2057 C2072 0.960 . S
H2058 C2072 0.960 . S
H2059 C2072 0.960 . S
C2060 H2052 0.929 . S
C2060 C2061 1.377 . S
C2060 C2062 1.384 . S
C2061 C2060 1.377 . S
C2061 C2067 1.390 . S
C2062 H2053 0.930 . S
C2062 C2060 1.384 . S
C2062 C2063 1.372 . S
C2063 C2062 1.372 . S
C2063 C2064 1.400 . S
C2063 C2068 1.490 . S
C2064 H2054 0.930 . S
C2064 C2063 1.400 . S
C2064 C2067 1.386 . S
H2065 C2081 0.930 . S
H2066 C2082 0.931 . S
C2067 H2055 0.929 . S
C2067 C2061 1.390 . S
C2067 C2064 1.386 . S
C2068 C2063 1.490 . S
C2068 C2070 1.395 . S
C2068 C2071 1.403 . S
H2069 C2075 0.930 . S
C2070 H2056 0.930 . S
C2070 C2068 1.395 . S
C2070 C2073 1.403 . S
C2071 C2068 1.403 . S
C2071 C2072 1.524 . S
C2071 C2075 1.400 . S
C2072 H2057 0.960 . S
C2072 H2058 0.960 . S
C2072 H2059 0.960 . S
C2072 C2071 1.524 . S
C2073 C2070 1.403 . S
C2073 C2074 1.392 . S
C2073 C2077 1.495 . S
C2074 C2073 1.392 . S
C2074 C2075 1.385 . S
C2074 C2076 1.478 . S
C2075 H2069 0.930 . S
C2075 C2071 1.400 . S
C2075 C2074 1.385 . S
C2076 C2074 1.478 . S
C2076 C2078 1.381 . S
C2076 C2082 1.383 . S
C2077 C2073 1.495 . S
C2077 H2083 0.959 . S
C2077 H2084 0.961 . S
C2077 H2085 0.960 . S
C2078 C2076 1.381 . S
C2078 C2079 1.394 . S
C2078 H2086 0.930 . S
C2079 C2078 1.394 . S
C2079 C2080 1.383 . S
C2079 H2087 0.929 . S
C2080 C2079 1.383 . S
C2080 C2081 1.377 . S
C2081 H2065 0.930 . S
C2081 C2080 1.377 . S
C2081 C2082 1.379 . S
C2082 H2066 0.931 . S
C2082 C2076 1.383 . S
C2082 C2081 1.379 . S
H2083 C2077 0.959 . S
H2084 C2077 0.961 . S
H2085 C2077 0.960 . S
H2086 C2078 0.930 . S
H2087 C2079 0.929 . S
H2088 C2096 0.929 . S
H2089 C2098 0.930 . S
H2090 C2100 0.930 . S
H2091 C2103 0.929 . S
H2092 C2106 0.930 . S
H2093 C2108 0.960 . S
H2094 C2108 0.960 . S
H2095 C2108 0.960 . S
C2096 H2088 0.929 . S
C2096 C2097 1.377 . S
C2096 C2098 1.384 . S
C2097 C2096 1.377 . S
C2097 C2103 1.390 . S
C2098 H2089 0.930 . S
C2098 C2096 1.384 . S
C2098 C2099 1.372 . S
C2099 C2098 1.372 . S
C2099 C2100 1.400 . S
C2099 C2104 1.490 . S
C2100 H2090 0.930 . S
C2100 C2099 1.400 . S
C2100 C2103 1.386 . S
H2101 C2117 0.930 . S
H2102 C2118 0.931 . S
C2103 H2091 0.929 . S
C2103 C2097 1.390 . S
C2103 C2100 1.386 . S
C2104 C2099 1.490 . S
C2104 C2106 1.395 . S
C2104 C2107 1.403 . S
H2105 C2111 0.930 . S
C2106 H2092 0.930 . S
C2106 C2104 1.395 . S
C2106 C2109 1.403 . S
C2107 C2104 1.403 . S
C2107 C2108 1.524 . S
C2107 C2111 1.400 . S
C2108 H2093 0.960 . S
C2108 H2094 0.960 . S
C2108 H2095 0.960 . S
C2108 C2107 1.524 . S
C2109 C2106 1.403 . S
C2109 C2110 1.392 . S
C2109 C2113 1.495 . S
C2110 C2109 1.392 . S
C2110 C2111 1.385 . S
C2110 C2112 1.478 . S
C2111 H2105 0.930 . S
C2111 C2107 1.400 . S
C2111 C2110 1.385 . S
C2112 C2110 1.478 . S
C2112 C2114 1.381 . S
C2112 C2118 1.383 . S
C2113 C2109 1.495 . S
C2113 H2119 0.959 . S
C2113 H2120 0.961 . S
C2113 H2121 0.960 . S
C2114 C2112 1.381 . S
C2114 C2115 1.394 . S
C2114 H2122 0.930 . S
C2115 C2114 1.394 . S
C2115 C2116 1.383 . S
C2115 H2123 0.929 . S
C2116 C2115 1.383 . S
C2116 C2117 1.377 . S
C2117 H2101 0.930 . S
C2117 C2116 1.377 . S
C2117 C2118 1.379 . S
C2118 H2102 0.931 . S
C2118 C2112 1.383 . S
C2118 C2117 1.379 . S
H2119 C2113 0.959 . S
H2120 C2113 0.961 . S
H2121 C2113 0.960 . S
H2122 C2114 0.930 . S
H2123 C2115 0.929 . S
H2124 C2132 0.929 . S
H2125 C2134 0.930 . S
H2126 C2136 0.930 . S
H2127 C2139 0.929 . S
H2128 C2142 0.930 . S
H2129 C2144 0.960 . S
H2130 C2144 0.960 . S
H2131 C2144 0.960 . S
C2132 H2124 0.929 . S
C2132 C2133 1.377 . S
C2132 C2134 1.384 . S
C2133 C2132 1.377 . S
C2133 C2139 1.390 . S
C2134 H2125 0.930 . S
C2134 C2132 1.384 . S
C2134 C2135 1.372 . S
C2135 C2134 1.372 . S
C2135 C2136 1.400 . S
C2135 C2140 1.490 . S
C2136 H2126 0.930 . S
C2136 C2135 1.400 . S
C2136 C2139 1.386 . S
H2137 C2153 0.930 . S
H2138 C2154 0.931 . S
C2139 H2127 0.929 . S
C2139 C2133 1.390 . S
C2139 C2136 1.386 . S
C2140 C2135 1.490 . S
C2140 C2142 1.395 . S
C2140 C2143 1.403 . S
H2141 C2147 0.930 . S
C2142 H2128 0.930 . S
C2142 C2140 1.395 . S
C2142 C2145 1.403 . S
C2143 C2140 1.403 . S
C2143 C2144 1.524 . S
C2143 C2147 1.400 . S
C2144 H2129 0.960 . S
C2144 H2130 0.960 . S
C2144 H2131 0.960 . S
C2144 C2143 1.524 . S
C2145 C2142 1.403 . S
C2145 C2146 1.392 . S
C2145 C2149 1.495 . S
C2146 C2145 1.392 . S
C2146 C2147 1.385 . S
C2146 C2148 1.478 . S
C2147 H2141 0.930 . S
C2147 C2143 1.400 . S
C2147 C2146 1.385 . S
C2148 C2146 1.478 . S
C2148 C2150 1.381 . S
C2148 C2154 1.383 . S
C2149 C2145 1.495 . S
C2149 H2155 0.959 . S
C2149 H2156 0.961 . S
C2149 H2157 0.960 . S
C2150 C2148 1.381 . S
C2150 C2151 1.394 . S
C2150 H2158 0.930 . S
C2151 C2150 1.394 . S
C2151 C2152 1.383 . S
C2151 H2159 0.929 . S
C2152 C2151 1.383 . S
C2152 C2153 1.377 . S
C2153 H2137 0.930 . S
C2153 C2152 1.377 . S
C2153 C2154 1.379 . S
C2154 H2138 0.931 . S
C2154 C2148 1.383 . S
C2154 C2153 1.379 . S
H2155 C2149 0.959 . S
H2156 C2149 0.961 . S
H2157 C2149 0.960 . S
H2158 C2150 0.930 . S
H2159 C2151 0.929 . S
H2160 C2168 0.929 . S
H2161 C2170 0.930 . S
H2162 C2172 0.930 . S
H2163 C2175 0.929 . S
H2164 C2178 0.930 . S
H2165 C2180 0.960 . S
H2166 C2180 0.960 . S
H2167 C2180 0.960 . S
C2168 H2160 0.929 . S
C2168 C2169 1.377 . S
C2168 C2170 1.384 . S
C2169 C2168 1.377 . S
C2169 C2175 1.390 . S
C2170 H2161 0.930 . S
C2170 C2168 1.384 . S
C2170 C2171 1.372 . S
C2171 C2170 1.372 . S
C2171 C2172 1.400 . S
C2171 C2176 1.490 . S
C2172 H2162 0.930 . S
C2172 C2171 1.400 . S
C2172 C2175 1.386 . S
H2173 C2189 0.930 . S
H2174 C2190 0.931 . S
C2175 H2163 0.929 . S
C2175 C2169 1.390 . S
C2175 C2172 1.386 . S
C2176 C2171 1.490 . S
C2176 C2178 1.395 . S
C2176 C2179 1.403 . S
H2177 C2183 0.930 . S
C2178 H2164 0.930 . S
C2178 C2176 1.395 . S
C2178 C2181 1.403 . S
C2179 C2176 1.403 . S
C2179 C2180 1.524 . S
C2179 C2183 1.400 . S
C2180 H2165 0.960 . S
C2180 H2166 0.960 . S
C2180 H2167 0.960 . S
C2180 C2179 1.524 . S
C2181 C2178 1.403 . S
C2181 C2182 1.392 . S
C2181 C2185 1.495 . S
C2182 C2181 1.392 . S
C2182 C2183 1.385 . S
C2182 C2184 1.478 . S
C2183 H2177 0.930 . S
C2183 C2179 1.400 . S
C2183 C2182 1.385 . S
C2184 C2182 1.478 . S
C2184 C2186 1.381 . S
C2184 C2190 1.383 . S
C2185 C2181 1.495 . S
C2185 H2191 0.959 . S
C2185 H2192 0.961 . S
C2185 H2193 0.960 . S
C2186 C2184 1.381 . S
C2186 C2187 1.394 . S
C2186 H2194 0.930 . S
C2187 C2186 1.394 . S
C2187 C2188 1.383 . S
C2187 H2195 0.929 . S
C2188 C2187 1.383 . S
C2188 C2189 1.377 . S
C2189 H2173 0.930 . S
C2189 C2188 1.377 . S
C2189 C2190 1.379 . S
C2190 H2174 0.931 . S
C2190 C2184 1.383 . S
C2190 C2189 1.379 . S
H2191 C2185 0.959 . S
H2192 C2185 0.961 . S
H2193 C2185 0.960 . S
H2194 C2186 0.930 . S
H2195 C2187 0.929 . S
H2196 C2204 0.929 . S
H2197 C2206 0.930 . S
H2198 C2208 0.930 . S
H2199 C2211 0.929 . S
H2200 C2214 0.930 . S
H2201 C2216 0.960 . S
H2202 C2216 0.960 . S
H2203 C2216 0.960 . S
C2204 H2196 0.929 . S
C2204 C2205 1.377 . S
C2204 C2206 1.384 . S
C2205 C2204 1.377 . S
C2205 C2211 1.390 . S
C2206 H2197 0.930 . S
C2206 C2204 1.384 . S
C2206 C2207 1.372 . S
C2207 C2206 1.372 . S
C2207 C2208 1.400 . S
C2207 C2212 1.490 . S
C2208 H2198 0.930 . S
C2208 C2207 1.400 . S
C2208 C2211 1.386 . S
H2209 C2225 0.930 . S
H2210 C2226 0.931 . S
C2211 H2199 0.929 . S
C2211 C2205 1.390 . S
C2211 C2208 1.386 . S
C2212 C2207 1.490 . S
C2212 C2214 1.395 . S
C2212 C2215 1.403 . S
H2213 C2219 0.930 . S
C2214 H2200 0.930 . S
C2214 C2212 1.395 . S
C2214 C2217 1.403 . S
C2215 C2212 1.403 . S
C2215 C2216 1.524 . S
C2215 C2219 1.400 . S
C2216 H2201 0.960 . S
C2216 H2202 0.960 . S
C2216 H2203 0.960 . S
C2216 C2215 1.524 . S
C2217 C2214 1.403 . S
C2217 C2218 1.392 . S
C2217 C2221 1.495 . S
C2218 C2217 1.392 . S
C2218 C2219 1.385 . S
C2218 C2220 1.478 . S
C2219 H2213 0.930 . S
C2219 C2215 1.400 . S
C2219 C2218 1.385 . S
C2220 C2218 1.478 . S
C2220 C2222 1.381 . S
C2220 C2226 1.383 . S
C2221 C2217 1.495 . S
C2221 H2227 0.959 . S
C2221 H2228 0.961 . S
C2221 H2229 0.960 . S
C2222 C2220 1.381 . S
C2222 C2223 1.394 . S
C2222 H2230 0.930 . S
C2223 C2222 1.394 . S
C2223 C2224 1.383 . S
C2223 H2231 0.929 . S
C2224 C2223 1.383 . S
C2224 C2225 1.377 . S
C2225 H2209 0.930 . S
C2225 C2224 1.377 . S
C2225 C2226 1.379 . S
C2226 H2210 0.931 . S
C2226 C2220 1.383 . S
C2226 C2225 1.379 . S
H2227 C2221 0.959 . S
H2228 C2221 0.961 . S
H2229 C2221 0.960 . S
H2230 C2222 0.930 . S
H2231 C2223 0.929 . S
H2232 C2240 0.929 . S
H2233 C2242 0.930 . S
H2234 C2244 0.930 . S
H2235 C2247 0.929 . S
H2236 C2250 0.930 . S
H2237 C2252 0.960 . S
H2238 C2252 0.960 . S
H2239 C2252 0.960 . S
C2240 H2232 0.929 . S
C2240 C2241 1.377 . S
C2240 C2242 1.384 . S
C2241 C2240 1.377 . S
C2241 C2247 1.390 . S
C2242 H2233 0.930 . S
C2242 C2240 1.384 . S
C2242 C2243 1.372 . S
C2243 C2242 1.372 . S
C2243 C2244 1.400 . S
C2243 C2248 1.490 . S
C2244 H2234 0.930 . S
C2244 C2243 1.400 . S
C2244 C2247 1.386 . S
H2245 C2261 0.930 . S
H2246 C2262 0.931 . S
C2247 H2235 0.929 . S
C2247 C2241 1.390 . S
C2247 C2244 1.386 . S
C2248 C2243 1.490 . S
C2248 C2250 1.395 . S
C2248 C2251 1.403 . S
H2249 C2255 0.930 . S
C2250 H2236 0.930 . S
C2250 C2248 1.395 . S
C2250 C2253 1.403 . S
C2251 C2248 1.403 . S
C2251 C2252 1.524 . S
C2251 C2255 1.400 . S
C2252 H2237 0.960 . S
C2252 H2238 0.960 . S
C2252 H2239 0.960 . S
C2252 C2251 1.524 . S
C2253 C2250 1.403 . S
C2253 C2254 1.392 . S
C2253 C2257 1.495 . S
C2254 C2253 1.392 . S
C2254 C2255 1.385 . S
C2254 C2256 1.478 . S
C2255 H2249 0.930 . S
C2255 C2251 1.400 . S
C2255 C2254 1.385 . S
C2256 C2254 1.478 . S
C2256 C2258 1.381 . S
C2256 C2262 1.383 . S
C2257 C2253 1.495 . S
C2257 H2263 0.959 . S
C2257 H2264 0.961 . S
C2257 H2265 0.960 . S
C2258 C2256 1.381 . S
C2258 C2259 1.394 . S
C2258 H2266 0.930 . S
C2259 C2258 1.394 . S
C2259 C2260 1.383 . S
C2259 H2267 0.929 . S
C2260 C2259 1.383 . S
C2260 C2261 1.377 . S
C2261 H2245 0.930 . S
C2261 C2260 1.377 . S
C2261 C2262 1.379 . S
C2262 H2246 0.931 . S
C2262 C2256 1.383 . S
C2262 C2261 1.379 . S
H2263 C2257 0.959 . S
H2264 C2257 0.961 . S
H2265 C2257 0.960 . S
H2266 C2258 0.930 . S
H2267 C2259 0.929 . S
H2268 C2276 0.929 . S
H2269 C2278 0.930 . S
H2270 C2280 0.930 . S
H2271 C2283 0.929 . S
H2272 C2286 0.930 . S
H2273 C2288 0.960 . S
H2274 C2288 0.960 . S
H2275 C2288 0.960 . S
C2276 H2268 0.929 . S
C2276 C2277 1.377 . S
C2276 C2278 1.384 . S
C2277 C2276 1.377 . S
C2277 C2283 1.390 . S
C2278 H2269 0.930 . S
C2278 C2276 1.384 . S
C2278 C2279 1.372 . S
C2279 C2278 1.372 . S
C2279 C2280 1.400 . S
C2279 C2284 1.490 . S
C2280 H2270 0.930 . S
C2280 C2279 1.400 . S
C2280 C2283 1.386 . S
H2281 C2297 0.930 . S
H2282 C2298 0.931 . S
C2283 H2271 0.929 . S
C2283 C2277 1.390 . S
C2283 C2280 1.386 . S
C2284 C2279 1.490 . S
C2284 C2286 1.395 . S
C2284 C2287 1.403 . S
H2285 C2291 0.930 . S
C2286 H2272 0.930 . S
C2286 C2284 1.395 . S
C2286 C2289 1.403 . S
C2287 C2284 1.403 . S
C2287 C2288 1.524 . S
C2287 C2291 1.400 . S
C2288 H2273 0.960 . S
C2288 H2274 0.960 . S
C2288 H2275 0.960 . S
C2288 C2287 1.524 . S
C2289 C2286 1.403 . S
C2289 C2290 1.392 . S
C2289 C2293 1.495 . S
C2290 C2289 1.392 . S
C2290 C2291 1.385 . S
C2290 C2292 1.478 . S
C2291 H2285 0.930 . S
C2291 C2287 1.400 . S
C2291 C2290 1.385 . S
C2292 C2290 1.478 . S
C2292 C2294 1.381 . S
C2292 C2298 1.383 . S
C2293 C2289 1.495 . S
C2293 H2299 0.959 . S
C2293 H2300 0.961 . S
C2293 H2301 0.960 . S
C2294 C2292 1.381 . S
C2294 C2295 1.394 . S
C2294 H2302 0.930 . S
C2295 C2294 1.394 . S
C2295 C2296 1.383 . S
C2295 H2303 0.929 . S
C2296 C2295 1.383 . S
C2296 C2297 1.377 . S
C2297 H2281 0.930 . S
C2297 C2296 1.377 . S
C2297 C2298 1.379 . S
C2298 H2282 0.931 . S
C2298 C2292 1.383 . S
C2298 C2297 1.379 . S
H2299 C2293 0.959 . S
H2300 C2293 0.961 . S
H2301 C2293 0.960 . S
H2302 C2294 0.930 . S
H2303 C2295 0.929 . S
H2304 C2312 0.929 . S
H2305 C2314 0.930 . S
H2306 C2316 0.930 . S
H2307 C2319 0.929 . S
H2308 C2322 0.930 . S
H2309 C2324 0.960 . S
H2310 C2324 0.960 . S
H2311 C2324 0.960 . S
C2312 H2304 0.929 . S
C2312 C2313 1.377 . S
C2312 C2314 1.384 . S
C2313 C2312 1.377 . S
C2313 C2319 1.390 . S
C2314 H2305 0.930 . S
C2314 C2312 1.384 . S
C2314 C2315 1.372 . S
C2315 C2314 1.372 . S
C2315 C2316 1.400 . S
C2315 C2320 1.490 . S
C2316 H2306 0.930 . S
C2316 C2315 1.400 . S
C2316 C2319 1.386 . S
H2317 C2333 0.930 . S
H2318 C2334 0.931 . S
C2319 H2307 0.929 . S
C2319 C2313 1.390 . S
C2319 C2316 1.386 . S
C2320 C2315 1.490 . S
C2320 C2322 1.395 . S
C2320 C2323 1.403 . S
H2321 C2327 0.930 . S
C2322 H2308 0.930 . S
C2322 C2320 1.395 . S
C2322 C2325 1.403 . S
C2323 C2320 1.403 . S
C2323 C2324 1.524 . S
C2323 C2327 1.400 . S
C2324 H2309 0.960 . S
C2324 H2310 0.960 . S
C2324 H2311 0.960 . S
C2324 C2323 1.524 . S
C2325 C2322 1.403 . S
C2325 C2326 1.392 . S
C2325 C2329 1.495 . S
C2326 C2325 1.392 . S
C2326 C2327 1.385 . S
C2326 C2328 1.478 . S
C2327 H2321 0.930 . S
C2327 C2323 1.400 . S
C2327 C2326 1.385 . S
C2328 C2326 1.478 . S
C2328 C2330 1.381 . S
C2328 C2334 1.383 . S
C2329 C2325 1.495 . S
C2329 H2335 0.959 . S
C2329 H2336 0.961 . S
C2329 H2337 0.960 . S
C2330 C2328 1.381 . S
C2330 C2331 1.394 . S
C2330 H2338 0.930 . S
C2331 C2330 1.394 . S
C2331 C2332 1.383 . S
C2331 H2339 0.929 . S
C2332 C2331 1.383 . S
C2332 C2333 1.377 . S
C2333 H2317 0.930 . S
C2333 C2332 1.377 . S
C2333 C2334 1.379 . S
C2334 H2318 0.931 . S
C2334 C2328 1.383 . S
C2334 C2333 1.379 . S
H2335 C2329 0.959 . S
H2336 C2329 0.961 . S
H2337 C2329 0.960 . S
H2338 C2330 0.930 . S
H2339 C2331 0.929 . S
C405 C162 1.570 . S
C424 C222 1.530 . S
C441 C174 1.547 . S
C460 C242 1.537 . S
C477 C150 1.519 . S
C496 C265 1.528 . S
C513 C138 1.406 . S
C532 C245 1.396 1_556 S
C568 C262 1.397 . S
C549 C114 1.433 . S
C585 C126 1.433 . S
C604 C225 1.438 1_556 S
C640 C232 1.557 . S
C621 C136 1.570 . S
C676 C252 1.431 . S
C657 C112 1.466 . S
C693 C124 1.555 . S
C712 C257 1.579 . S
C729 C160 1.426 . S
C748 C237 1.432 . S
C765 C172 1.424 . S
C784 C272 1.404 . S
C820 C217 1.504 . S
C801 C148 1.503 . S
C856 C282 1.553 . S
C837 C18 1.571 . S
C873 C30 1.548 . S
C892 C302 1.500 . S
C909 C6 1.519 . S
C928 C325 1.509 . S
C945 C210 1.408 . S
C964 C305 1.414 . S
C981 C186 1.433 . S
C1000 C322 1.425 . S
C1017 C198 1.433 . S
C1036 C285 1.439 . S
C1053 C208 1.570 . S
C1072 C292 1.567 . S
C1089 C184 1.463 . S
C1108 C312 1.441 . S
C1144 C317 1.562 . S
C1125 C196 1.550 . S
C1161 C16 1.427 . S
C1180 C297 1.435 . S
C1216 C332 1.414 . S
C1197 C28 1.422 . S
C1233 C4 1.503 . S
C1252 C277 1.503 . S
C1288 C342 1.558 . S
C1269 C90 1.569 . S
C1305 C102 1.548 . S
C1324 C362 1.537 . S
C1360 C385 1.529 . S
C1341 C78 1.518 . S
C1396 C365 1.414 . S
C1377 C66 1.407 . S
C1432 C382 1.400 . S
C1413 C42 1.433 . S
C1449 C54 1.435 . S
C1468 C345 1.437 . S
C1485 C64 1.570 . S
C1504 C352 1.562 . S
C1521 C40 1.462 . S
C1540 C372 1.427 . S
C1576 C377 1.557 . S
C1557 C52 1.547 . S
C1593 C88 1.433 . S
C1612 C357 1.457 . S
C1629 C100 1.423 . S
C1648 C392 1.388 . S
C1665 C76 1.503 . S
C1684 C337 1.508 . S
C1701 C189 1.320 . S
C1720 C235 1.287 . S
C1756 C255 1.691 . S
C1737 C201 1.778 . S
C1773 C213 1.527 . S
C1792 C264 1.495 . S
C1809 C81 1.733 . S
C1828 C244 1.684 . S
C1845 C93 1.606 . S
C1864 C275 1.554 . S
C1900 C224 1.259 . S
C1881 C105 1.289 . S
C1917 C45 1.320 . S
C1936 C295 1.296 . S
C1953 C57 1.776 . S
C1972 C315 1.697 . S
C1989 C69 1.525 . S
C2008 C324 1.468 . S
C2025 C153 1.734 . S
C2044 C304 1.691 . S
C2080 C335 1.550 . S
C2061 C165 1.606 . S
C2097 C177 1.292 . S
C2116 C284 1.248 . S
C2133 C117 1.319 . S
C2152 C355 1.272 . S
C2169 C129 1.778 . S
C2188 C375 1.688 . S
C2224 C384 1.515 . S
C2205 C141 1.531 . S
C2241 C9 1.736 . S
C2260 C364 1.702 . S
C2277 C21 1.606 . S
C2296 C395 1.550 . S
C2313 C33 1.290 . S
C2332 C344 1.241 . S
