# Generated by pormake.
# Topology pyr, (3,6)-cn, num edge types: 1
# Building blocks:
#     Node 0, Type 0, BuildingBlock: MIDCAF_clean_linker_0, # of connection points: 3
#     Node 1, Type 0, BuildingBlock: MIDCAF_clean_linker_0, # of connection points: 3
#     Node 2, Type 0, BuildingBlock: MIDCAF_clean_linker_0, # of connection points: 3
#     Node 3, Type 0, BuildingBlock: MIDCAF_clean_linker_0, # of connection points: 3
#     Node 4, Type 0, BuildingBlock: MIDCAF_clean_linker_0, # of connection points: 3
#     Node 5, Type 0, BuildingBlock: MIDCAF_clean_linker_0, # of connection points: 3
#     Node 6, Type 0, BuildingBlock: MIDCAF_clean_linker_0, # of connection points: 3
#     Node 7, Type 0, BuildingBlock: MIDCAF_clean_linker_0, # of connection points: 3
#     Node 8, Type 1, BuildingBlock: LEVNOQ01_clean_sbu_1, # of connection points: 6
#     Node 9, Type 1, BuildingBlock: LEVNOQ01_clean_sbu_1, # of connection points: 6
#     Node 10, Type 1, BuildingBlock: LEVNOQ01_clean_sbu_1, # of connection points: 6
#     Node 11, Type 1, BuildingBlock: LEVNOQ01_clean_sbu_1, # of connection points: 6
#     Edge 12, Type (0, 1), BuildingBlock: MIFKUJ_clean_linker_0, # of connection points: 2
#     Edge 13, Type (0, 1), BuildingBlock: MIFKUJ_clean_linker_0, # of connection points: 2
#     Edge 14, Type (0, 1), BuildingBlock: MIFKUJ_clean_linker_0, # of connection points: 2
#     Edge 15, Type (0, 1), BuildingBlock: MIFKUJ_clean_linker_0, # of connection points: 2
#     Edge 16, Type (0, 1), BuildingBlock: MIFKUJ_clean_linker_0, # of connection points: 2
#     Edge 17, Type (0, 1), BuildingBlock: MIFKUJ_clean_linker_0, # of connection points: 2
#     Edge 18, Type (0, 1), BuildingBlock: MIFKUJ_clean_linker_0, # of connection points: 2
#     Edge 19, Type (0, 1), BuildingBlock: MIFKUJ_clean_linker_0, # of connection points: 2
#     Edge 20, Type (0, 1), BuildingBlock: MIFKUJ_clean_linker_0, # of connection points: 2
#     Edge 21, Type (0, 1), BuildingBlock: MIFKUJ_clean_linker_0, # of connection points: 2
#     Edge 22, Type (0, 1), BuildingBlock: MIFKUJ_clean_linker_0, # of connection points: 2
#     Edge 23, Type (0, 1), BuildingBlock: MIFKUJ_clean_linker_0, # of connection points: 2
#     Edge 24, Type (0, 1), BuildingBlock: MIFKUJ_clean_linker_0, # of connection points: 2
#     Edge 25, Type (0, 1), BuildingBlock: MIFKUJ_clean_linker_0, # of connection points: 2
#     Edge 26, Type (0, 1), BuildingBlock: MIFKUJ_clean_linker_0, # of connection points: 2
#     Edge 27, Type (0, 1), BuildingBlock: MIFKUJ_clean_linker_0, # of connection points: 2
#     Edge 28, Type (0, 1), BuildingBlock: MIFKUJ_clean_linker_0, # of connection points: 2
#     Edge 29, Type (0, 1), BuildingBlock: MIFKUJ_clean_linker_0, # of connection points: 2
#     Edge 30, Type (0, 1), BuildingBlock: MIFKUJ_clean_linker_0, # of connection points: 2
#     Edge 31, Type (0, 1), BuildingBlock: MIFKUJ_clean_linker_0, # of connection points: 2
#     Edge 32, Type (0, 1), BuildingBlock: MIFKUJ_clean_linker_0, # of connection points: 2
#     Edge 33, Type (0, 1), BuildingBlock: MIFKUJ_clean_linker_0, # of connection points: 2
#     Edge 34, Type (0, 1), BuildingBlock: MIFKUJ_clean_linker_0, # of connection points: 2
#     Edge 35, Type (0, 1), BuildingBlock: MIFKUJ_clean_linker_0, # of connection points: 2
# Relax obj value: 0.035
# Max RMSD: 0.111
# Mean RMSD: 0.046
data_MOF--net-pry--node1-LEVNOQ01_clean_sbu_1--node2-MIDCAF_clean_linker_0--edge1-MIFKUJ_clean_linker_0
_symmetry_space_group_name_H-M    P1
_symmetry_Int_Tables_number       1
_symmetry_cell_setting            triclinic
loop_
_symmetry_equiv_pos_as_xyz
'x, y, z'
_cell_length_a     56.526493
_cell_length_b     54.614027
_cell_length_c     54.609274
_cell_angle_alpha  92.142985
_cell_angle_beta   91.520233
_cell_angle_gamma 94.286633
loop_
_atom_site_label
_atom_site_type_symbol
_atom_site_fract_x
_atom_site_fract_y
_atom_site_fract_z
_atom_type_partial_charge
C0 C 0.10438 0.12942 0.21078 0.0
C1 C 0.11871 0.11725 0.22717 0.0
C2 C 0.14207 0.11334 0.22048 0.0
C3 C 0.15075 0.12113 0.19808 0.0
H4 H 0.20029 0.10509 0.14725 0.0
H5 H 0.23575 0.08819 0.13161 0.0
H6 H 0.23298 0.1343 0.06923 0.0
H7 H 0.19717 0.15107 0.08466 0.0
H8 H 0.15696 0.18927 0.08151 0.0
H9 H 0.13948 0.22321 0.06177 0.0
H10 H 0.08994 0.22795 0.12034 0.0
H11 H 0.10692 0.19372 0.13973 0.0
H12 H 0.10164 0.14682 0.17639 0.0
H13 H 0.08618 0.13241 0.21493 0.0
H14 H 0.15391 0.10454 0.2327 0.0
H15 H 0.16884 0.11784 0.19369 0.0
N16 N 0.16534 0.13243 0.14875 0.0
N17 N 0.16384 0.15835 0.11553 0.0
N18 N 0.13559 0.15999 0.14618 0.0
C19 C 0.17438 0.14032 0.12734 0.0
C20 C 0.14444 0.16833 0.12484 0.0
C21 C 0.14593 0.14207 0.15827 0.0
C22 C 0.19579 0.12961 0.11733 0.0
C23 C 0.20711 0.11166 0.13015 0.0
C24 C 0.22759 0.102 0.12124 0.0
C25 C 0.23735 0.10996 0.09922 0.0
C26 C 0.22584 0.12759 0.08614 0.0
C27 C 0.20535 0.13732 0.0951 0.0
C28 C 0.13343 0.18864 0.11231 0.0
C29 C 0.14226 0.19744 0.09016 0.0
C30 C 0.13231 0.21706 0.07888 0.0
C31 C 0.11328 0.22844 0.08942 0.0
C32 C 0.10432 0.21947 0.11143 0.0
C33 C 0.11422 0.19986 0.12268 0.0
C34 C 0.13648 0.13345 0.18186 0.0
C35 C 0.1132 0.13757 0.18852 0.0
C36 C 0.29338 0.91679 0.59859 0.0
C37 C 0.28296 0.90464 0.57737 0.0
C38 C 0.29514 0.88635 0.56544 0.0
C39 C 0.31724 0.8804 0.57449 0.0
H40 H 0.36208 0.8263 0.57089 0.0
H41 H 0.37897 0.79082 0.55246 0.0
H42 H 0.44545 0.81091 0.59165 0.0
H43 H 0.42819 0.84622 0.61089 0.0
H44 H 0.42568 0.88599 0.65757 0.0
H45 H 0.44241 0.90715 0.69491 0.0
H46 H 0.38292 0.95235 0.69699 0.0
H47 H 0.36647 0.93174 0.65952 0.0
H48 H 0.32292 0.92061 0.62404 0.0
H49 H 0.28429 0.93069 0.60846 0.0
H50 H 0.28775 0.87686 0.54889 0.0
H51 H 0.32614 0.86627 0.56475 0.0
N52 N 0.36172 0.86704 0.59504 0.0
N53 N 0.39382 0.87379 0.62319 0.0
N54 N 0.36207 0.89911 0.62468 0.0
C55 C 0.38301 0.86067 0.60378 0.0
C56 C 0.38341 0.89311 0.63374 0.0
C57 C 0.35113 0.88622 0.6053 0.0
C58 C 0.39377 0.83921 0.59241 0.0
C59 C 0.38034 0.82329 0.57561 0.0
C60 C 0.3901 0.80294 0.56485 0.0
C61 C 0.41364 0.79801 0.57039 0.0
C62 C 0.42716 0.81397 0.58715 0.0
C63 C 0.4173 0.83429 0.59812 0.0
C64 C 0.39459 0.90695 0.65555 0.0
C65 C 0.41626 0.90059 0.66583 0.0
C66 C 0.42583 0.91268 0.68731 0.0
C67 C 0.41397 0.9314 0.69903 0.0
C68 C 0.39271 0.93827 0.68831 0.0
C69 C 0.38316 0.92623 0.66686 0.0
C70 C 0.32772 0.89264 0.59567 0.0
C71 C 0.31551 0.91091 0.60761 0.0
C72 C 0.6008 0.30966 0.91528 0.0
C73 C 0.58478 0.29618 0.89882 0.0
C74 C 0.57684 0.30749 0.87776 0.0
C75 C 0.58535 0.33138 0.87281 0.0
H76 H 0.58469 0.37912 0.81895 0.0
H77 H 0.57775 0.39144 0.77721 0.0
H78 H 0.63178 0.45133 0.78826 0.0
H79 H 0.63861 0.43933 0.83022 0.0
H80 H 0.67416 0.43841 0.87421 0.0
H81 H 0.71203 0.45263 0.89397 0.0
H82 H 0.69776 0.40412 0.95329 0.0
H83 H 0.65971 0.38971 0.93362 0.0
H84 H 0.62215 0.3432 0.92309 0.0
H85 H 0.60692 0.30164 0.93192 0.0
H86 H 0.56469 0.29758 0.86456 0.0
H87 H 0.57927 0.33918 0.85604 0.0
N88 N 0.60675 0.3783 0.86034 0.0
N89 N 0.63607 0.41065 0.86663 0.0
N90 N 0.63118 0.38037 0.8958 0.0
C91 C 0.61804 0.39927 0.85259 0.0
C92 C 0.64268 0.40143 0.88832 0.0
C93 C 0.6131 0.36874 0.88192 0.0
C94 C 0.61235 0.40811 0.82796 0.0
C95 C 0.59502 0.39504 0.81263 0.0
C96 C 0.59114 0.40196 0.7886 0.0
C97 C 0.60444 0.42213 0.77937 0.0
C98 C 0.62121 0.43573 0.7949 0.0
C99 C 0.62514 0.42879 0.81894 0.0
C100 C 0.66398 0.4126 0.90212 0.0
C101 C 0.67882 0.43097 0.89164 0.0
C102 C 0.70059 0.4391 0.9029 0.0
C103 C 0.70789 0.42925 0.92498 0.0
C104 C 0.6925 0.41204 0.93628 0.0
C105 C 0.67077 0.40371 0.92492 0.0
C106 C 0.60212 0.34454 0.88875 0.0
C107 C 0.6094 0.33357 0.9103 0.0
C108 C 0.80455 0.58367 0.44743 0.0
C109 C 0.7878 0.5713 0.43101 0.0
C110 C 0.79419 0.56628 0.40678 0.0
C111 C 0.81669 0.57412 0.39888 0.0
H112 H 0.85759 0.57184 0.33993 0.0
H113 H 0.86776 0.56141 0.29822 0.0
H114 H 0.93662 0.60067 0.31023 0.0
H115 H 0.92602 0.61201 0.35191 0.0
H116 H 0.9325 0.64997 0.39989 0.0
H117 H 0.95104 0.68797 0.41877 0.0
H118 H 0.8917 0.69253 0.46661 0.0
H119 H 0.8736 0.65417 0.4484 0.0
H120 H 0.83931 0.60193 0.45235 0.0
H121 H 0.79999 0.58782 0.4662 0.0
H122 H 0.78164 0.55656 0.39384 0.0
H123 H 0.82082 0.57037 0.37991 0.0
N124 N 0.86366 0.59018 0.38364 0.0
N125 N 0.89642 0.61917 0.38724 0.0
N126 N 0.86876 0.6165 0.41853 0.0
C127 C 0.88385 0.60058 0.37426 0.0
C128 C 0.88897 0.62725 0.40942 0.0
C129 C 0.85608 0.59787 0.4058 0.0
C130 C 0.89094 0.59289 0.34933 0.0
C131 C 0.87499 0.57817 0.33381 0.0
C132 C 0.88089 0.57203 0.30982 0.0
C133 C 0.90303 0.58017 0.30073 0.0
C134 C 0.91924 0.59442 0.31643 0.0
C135 C 0.91322 0.60081 0.34042 0.0
C136 C 0.90143 0.64906 0.42243 0.0
C137 C 0.92352 0.65892 0.41462 0.0
C138 C 0.93409 0.68083 0.42537 0.0
C139 C 0.92276 0.69356 0.44404 0.0
C140 C 0.9011 0.68318 0.45247 0.0
C141 C 0.89063 0.66116 0.44188 0.0
C142 C 0.83317 0.58748 0.41496 0.0
C143 C 0.82698 0.59185 0.43944 0.0
C144 C 0.78911 0.91447 0.88843 0.0
C145 C 0.78408 0.91368 0.91344 0.0
C146 C 0.79928 0.90194 0.92919 0.0
C147 C 0.81889 0.89074 0.91996 0.0
H148 H 0.85109 0.819 0.91912 0.0
H149 H 0.86726 0.78415 0.93889 0.0
H150 H 0.93451 0.80075 0.90535 0.0
H151 H 0.91827 0.83534 0.88508 0.0
H152 H 0.90775 0.8563 0.82717 0.0
H153 H 0.92209 0.86834 0.78729 0.0
H154 H 0.87183 0.92407 0.78512 0.0
H155 H 0.85773 0.91241 0.825 0.0
H156 H 0.8122 0.90462 0.85988 0.0
H157 H 0.77775 0.92354 0.87592 0.0
H158 H 0.79571 0.90098 0.94853 0.0
H159 H 0.83017 0.88161 0.93249 0.0
N160 N 0.85446 0.86143 0.89699 0.0
N161 N 0.8821 0.85771 0.86592 0.0
N162 N 0.85356 0.88657 0.86314 0.0
C163 C 0.87323 0.85038 0.88762 0.0
C164 C 0.87232 0.87579 0.85352 0.0
C165 C 0.84459 0.87963 0.88488 0.0
C166 C 0.88338 0.82993 0.90048 0.0
C167 C 0.86936 0.81532 0.91604 0.0
C168 C 0.87855 0.7953 0.92727 0.0
C169 C 0.90211 0.78979 0.92362 0.0
C170 C 0.91633 0.80469 0.90855 0.0
C171 C 0.90698 0.8244 0.89687 0.0
C172 C 0.88153 0.88333 0.82943 0.0
C173 C 0.89978 0.87118 0.81826 0.0
C174 C 0.90793 0.87798 0.7953 0.0
C175 C 0.89811 0.89716 0.78296 0.0
C176 C 0.88001 0.90942 0.79421 0.0
C177 C 0.87182 0.9026 0.81709 0.0
C178 C 0.82392 0.8915 0.89488 0.0
C179 C 0.80891 0.90371 0.87928 0.0
C180 C 0.62208 0.08385 0.31395 0.0
C181 C 0.60158 0.09173 0.30256 0.0
C182 C 0.58974 0.11047 0.31422 0.0
C183 C 0.59873 0.12168 0.33639 0.0
H184 H 0.58887 0.17755 0.38808 0.0
H185 H 0.57147 0.21291 0.4067 0.0
H186 H 0.63033 0.22304 0.45907 0.0
H187 H 0.64804 0.18795 0.44024 0.0
H188 H 0.69088 0.15394 0.43656 0.0
H189 H 0.72951 0.14184 0.45068 0.0
H190 H 0.72256 0.0792 0.39962 0.0
H191 H 0.68441 0.09141 0.38519 0.0
H192 H 0.64705 0.08849 0.34401 0.0
H193 H 0.63139 0.06919 0.30561 0.0
H194 H 0.57396 0.11703 0.3058 0.0
H195 H 0.5895 0.13645 0.34461 0.0
N196 N 0.62031 0.14635 0.38083 0.0
N197 N 0.65145 0.15097 0.41039 0.0
N198 N 0.65098 0.1198 0.37974 0.0
C199 C 0.63074 0.15843 0.40106 0.0
C200 C 0.66165 0.13161 0.39986 0.0
C201 C 0.63035 0.12696 0.37006 0.0
C202 C 0.6199 0.1798 0.4126 0.0
C203 C 0.59815 0.18726 0.40356 0.0
C204 C 0.58807 0.20748 0.41435 0.0
C205 C 0.59947 0.22078 0.43443 0.0
C206 C 0.6212 0.21336 0.44347 0.0
C207 C 0.63128 0.19311 0.43273 0.0
C208 C 0.68455 0.12379 0.40957 0.0
C209 C 0.69755 0.13754 0.4284 0.0
C210 C 0.71966 0.13056 0.43658 0.0
C211 C 0.72923 0.1097 0.42611 0.0
C212 C 0.71595 0.09567 0.40773 0.0
C213 C 0.69395 0.10263 0.39953 0.0
C214 C 0.61969 0.11426 0.34741 0.0
C215 C 0.631 0.09491 0.33607 0.0
C216 C 0.30497 0.58982 0.12189 0.0
C217 C 0.29849 0.59657 0.09822 0.0
C218 C 0.31486 0.61081 0.08482 0.0
C219 C 0.33675 0.61956 0.09557 0.0
H220 H 0.37895 0.68392 0.09502 0.0
H221 H 0.38959 0.72629 0.08482 0.0
H222 H 0.43504 0.73598 0.14984 0.0
H223 H 0.42496 0.69361 0.1598 0.0
H224 H 0.41082 0.66264 0.20412 0.0
H225 H 0.41836 0.65362 0.24656 0.0
H226 H 0.38922 0.57881 0.23211 0.0
H227 H 0.38053 0.58831 0.1897 0.0
H228 H 0.33095 0.59352 0.15118 0.0
H229 H 0.29272 0.57858 0.13247 0.0
H230 H 0.31025 0.61625 0.06653 0.0
H231 H 0.34859 0.63143 0.08518 0.0
N232 N 0.37425 0.6475 0.1237 0.0
N233 N 0.39876 0.65348 0.15894 0.0
N234 N 0.37116 0.61927 0.15503 0.0
C235 C 0.39177 0.66101 0.13669 0.0
C236 C 0.38871 0.63261 0.16819 0.0
C237 C 0.36392 0.62655 0.13266 0.0
C238 C 0.40082 0.6854 0.12843 0.0
C239 C 0.39149 0.69494 0.10696 0.0
C240 C 0.39744 0.71929 0.1012 0.0
C241 C 0.41284 0.73459 0.11675 0.0
C242 C 0.42319 0.72466 0.13744 0.0
C243 C 0.41728 0.70033 0.1432 0.0
C244 C 0.395 0.6262 0.1935 0.0
C245 C 0.40615 0.64419 0.2099 0.0
C246 C 0.4106 0.63896 0.23431 0.0
C247 C 0.40439 0.61548 0.24292 0.0
C248 C 0.3938 0.59726 0.22632 0.0
C249 C 0.38898 0.60263 0.20192 0.0
C250 C 0.34273 0.61398 0.11981 0.0
C251 C 0.32694 0.59828 0.13253 0.0
C252 C 0.07878 0.32824 0.55799 0.0
C253 C 0.06223 0.31403 0.57127 0.0
C254 C 0.05641 0.32253 0.59479 0.0
C255 C 0.06755 0.34432 0.60519 0.0
H256 H 0.07998 0.38101 0.67136 0.0
H257 H 0.07285 0.39219 0.71371 0.0
H258 H 0.11202 0.46243 0.70584 0.0
H259 H 0.12018 0.45059 0.66358 0.0
H260 H 0.15698 0.45327 0.61617 0.0
H261 H 0.19425 0.46843 0.59867 0.0
H262 H 0.1913 0.40434 0.54943 0.0
H263 H 0.15372 0.38986 0.56606 0.0
H264 H 0.10314 0.3601 0.55788 0.0
H265 H 0.08378 0.32207 0.53991 0.0
H266 H 0.04351 0.31211 0.60535 0.0
H267 H 0.063 0.35 0.62358 0.0
N268 N 0.09298 0.38802 0.62705 0.0
N269 N 0.12486 0.41814 0.62707 0.0
N270 N 0.11732 0.39082 0.5931 0.0
C271 C 0.10603 0.40721 0.63855 0.0
C272 C 0.13064 0.40997 0.60431 0.0
C273 C 0.09838 0.37984 0.60423 0.0
C274 C 0.10068 0.41489 0.66403 0.0
C275 C 0.087 0.39891 0.67857 0.0
C276 C 0.08277 0.40542 0.70294 0.0
C277 C 0.09176 0.4283 0.71338 0.0
C278 C 0.10514 0.44448 0.69866 0.0
C279 C 0.1097 0.43778 0.67433 0.0
C280 C 0.15238 0.42029 0.59263 0.0
C281 C 0.16419 0.44257 0.60142 0.0
C282 C 0.18566 0.45118 0.59147 0.0
C283 C 0.19601 0.43754 0.57272 0.0
C284 C 0.18381 0.41559 0.56354 0.0
C285 C 0.16222 0.40717 0.57324 0.0
C286 C 0.08487 0.35804 0.59234 0.0
C287 C 0.09 0.34998 0.56841 0.0
O288 O 0.00866 0.00816 0.57086 0.0
Mg289 Mg 0.03024 0.02805 0.54707 0.0
O290 O 0.98935 0.98768 0.53989 0.0
Mg291 Mg 0.00467 0.00468 0.50344 0.0
O292 O 0.01253 0.04498 0.52012 0.0
O293 O 0.03081 0.06458 0.5532 0.0
O294 O 0.02105 0.025 0.46826 0.0
O295 O 0.96704 0.01759 0.49597 0.0
Mg296 Mg 0.99356 0.98666 0.46052 0.0
O297 O 0.99467 0.96289 0.4885 0.0
O298 O 0.02509 0.99434 0.44247 0.0
O299 O 0.96489 0.00932 0.45635 0.0
O300 O 0.982 0.95239 0.44985 0.0
C301 C 0.06211 0.99786 0.52132 0.0
C302 C 0.99288 0.99197 0.56296 0.0
C303 C 0.01884 0.06523 0.53281 0.0
C304 C 0.03017 0.01646 0.44887 0.0
C305 C 0.95635 0.01888 0.4753 0.0
C306 C 0.98703 0.94621 0.4718 0.0
O307 O 0.06261 0.01537 0.53713 0.0
O308 O 0.04287 0.99076 0.50954 0.0
O309 O 0.48124 0.04696 0.03747 0.0
Mg310 Mg 0.51592 0.0481 0.02273 0.0
O311 O 0.46955 0.01625 0.01172 0.0
Mg312 Mg 0.50724 0.00453 0.00178 0.0
O313 O 0.51918 0.0433 0.98568 0.0
O314 O 0.52334 0.0799 0.00652 0.0
O315 O 0.54591 0.99362 0.99176 0.0
O316 O 0.49223 0.99677 0.96083 0.0
Mg317 Mg 0.5076 0.94911 0.9856 0.0
O318 O 0.49516 0.96651 0.01557 0.0
O319 O 0.54449 0.95349 0.98358 0.0
O320 O 0.48844 0.95642 0.95406 0.0
O321 O 0.49262 0.92563 0.00983 0.0
C322 C 0.53769 0.0221 0.05468 0.0
C323 C 0.46471 0.03263 0.02768 0.0
C324 C 0.52402 0.06701 0.98634 0.0
C325 C 0.55615 0.97419 0.98586 0.0
C326 C 0.48574 0.97786 0.94698 0.0
C327 C 0.48849 0.94488 0.023 0.0
O328 O 0.5454 0.04132 0.0447 0.0
O329 O 0.52084 0.00868 0.04388 0.0
O330 O 0.48701 0.5592 0.54615 0.0
Mg331 Mg 0.48416 0.524 0.55951 0.0
O332 O 0.48834 0.54651 0.50715 0.0
Mg333 Mg 0.49341 0.50356 0.5064 0.0
O334 O 0.50992 0.50413 0.5454 0.0
O335 O 0.50893 0.51576 0.58501 0.0
O336 O 0.49964 0.46133 0.50592 0.0
O337 O 0.5317 0.51214 0.49323 0.0
Mg338 Mg 0.49917 0.47854 0.45188 0.0
O339 O 0.47795 0.50252 0.46756 0.0
O340 O 0.49388 0.44445 0.4684 0.0
O341 O 0.53417 0.49641 0.4552 0.0
O342 O 0.47349 0.49072 0.42837 0.0
C343 C 0.4418 0.4948 0.53755 0.0
C344 C 0.48749 0.56376 0.52361 0.0
C345 C 0.51911 0.50454 0.56744 0.0
C346 C 0.49768 0.44248 0.49118 0.0
C347 C 0.54346 0.50841 0.47394 0.0
C348 C 0.46742 0.50442 0.44652 0.0
O349 O 0.45059 0.50467 0.55745 0.0
O350 O 0.45424 0.49384 0.51837 0.0
O351 O 0.01412 0.45804 0.05186 0.0
Mg352 Mg 0.01634 0.49595 0.05772 0.0
O353 O 0.01435 0.46647 0.0128 0.0
Mg354 Mg 0.00388 0.50801 0.00873 0.0
O355 O 0.98776 0.51479 0.04814 0.0
O356 O 0.99783 0.50516 0.08671 0.0
O357 O 0.99322 0.54947 0.0047 0.0
O358 O 0.96495 0.49156 0.99863 0.0
Mg359 Mg 0.99088 0.51908 0.9601 0.0
O360 O 0.01993 0.50082 0.96923 0.0
O361 O 0.99054 0.55665 0.96543 0.0
O362 O 0.95832 0.49864 0.95967 0.0
O363 O 0.00963 0.51128 0.93095 0.0
C364 C 0.05597 0.52615 0.03827 0.0
C365 C 0.01572 0.45106 0.02978 0.0
C366 C 0.98391 0.5152 0.07163 0.0
C367 C 0.98993 0.56417 0.98744 0.0
C368 C 0.95142 0.48962 0.97944 0.0
C369 C 0.02355 0.5008 0.94568 0.0
O370 O 0.04927 0.51597 0.05756 0.0
O371 O 0.04258 0.52481 0.01901 0.0
H372 H 0.12901 0.07591 0.25152 0.0
H373 H 0.11481 0.06255 0.29083 0.0
H374 H 0.07177 0.12441 0.29599 0.0
H375 H 0.08734 0.13904 0.25745 0.0
H376 H 0.09012 0.11839 0.33884 0.0
H377 H 0.04815 0.06362 0.27973 0.0
H378 H 0.0428 0.03398 0.24447 0.0
H379 H 0.08476 0.98389 0.28197 0.0
H380 H 0.09062 0.01336 0.31733 0.0
H381 H 0.02097 0.06268 0.43522 0.0
H382 H 0.0363 0.08342 0.39911 0.0
H383 H 0.08381 0.02607 0.38727 0.0
H384 H 0.06776 0.00493 0.42247 0.0
H385 H 0.0599 0.03164 0.34726 0.0
H386 H 0.10209 0.08877 0.40666 0.0
H387 H 0.10444 0.11848 0.44196 0.0
H388 H 0.05851 0.16425 0.40365 0.0
H389 H 0.05566 0.13466 0.36824 0.0
C390 C 0.11682 0.08699 0.26108 0.0
C391 C 0.10941 0.10865 0.25106 0.0
C392 C 0.10838 0.07905 0.2835 0.0
C393 C 0.09179 0.09215 0.29629 0.0
C394 C 0.08444 0.11385 0.28648 0.0
C395 C 0.09317 0.12204 0.2642 0.0
C396 C 0.08234 0.08324 0.3199 0.0
C397 C 0.08324 0.09947 0.34059 0.0
C398 C 0.07342 0.05854 0.3224 0.0
C399 C 0.06999 0.04081 0.3011 0.0
C400 C 0.05638 0.04637 0.28038 0.0
C401 C 0.05323 0.02958 0.26039 0.0
C402 C 0.06347 0.00709 0.26095 0.0
C403 C 0.07685 0.00132 0.28154 0.0
C404 C 0.08008 0.01805 0.30157 0.0
C405 C 0.03518 0.05497 0.42528 0.0
C406 C 0.04323 0.03224 0.43158 0.0
C407 C 0.04392 0.06679 0.4046 0.0
C408 C 0.06123 0.05631 0.3903 0.0
C409 C 0.07034 0.03446 0.39777 0.0
C410 C 0.0613 0.02247 0.41802 0.0
C411 C 0.06846 0.06652 0.36641 0.0
C412 C 0.06687 0.05054 0.34556 0.0
C413 C 0.07645 0.09146 0.36377 0.0
C414 C 0.07851 0.1094 0.3849 0.0
C415 C 0.09239 0.1051 0.40583 0.0
C416 C 0.09383 0.12193 0.42585 0.0
C417 C 0.08158 0.1432 0.42508 0.0
C418 C 0.06796 0.14775 0.40424 0.0
C419 C 0.06646 0.13098 0.38418 0.0
H420 H 0.08268 0.15619 0.44061 0.0
H421 H 0.061 0.99412 0.24546 0.0
H422 H 0.43246 0.90802 0.73763 0.0
H423 H 0.44284 0.92501 0.77874 0.0
H424 H 0.42474 0.99654 0.7571 0.0
H425 H 0.41483 0.97977 0.71544 0.0
H426 H 0.46659 0.9971 0.78934 0.0
H427 H 0.38489 0.96611 0.78597 0.0
H428 H 0.35158 0.93552 0.77517 0.0
H429 H 0.38273 0.88323 0.82053 0.0
H430 H 0.41642 0.91338 0.8313 0.0
H431 H 0.47573 0.01975 0.92234 0.0
H432 H 0.46034 0.02129 0.87975 0.0
H433 H 0.4593 0.94226 0.87232 0.0
H434 H 0.47363 0.94049 0.91404 0.0
H435 H 0.41989 0.95655 0.85417 0.0
H436 H 0.5048 0.98348 0.85001 0.0
H437 H 0.53953 0.01254 0.8602 0.0
H438 H 0.50332 0.07114 0.82949 0.0
H439 H 0.46829 0.04244 0.81935 0.0
C440 C 0.43121 0.92749 0.74134 0.0
C441 C 0.42268 0.94249 0.72323 0.0
C442 C 0.43699 0.93714 0.76493 0.0
C443 C 0.43425 0.96195 0.77102 0.0
C444 C 0.42688 0.97733 0.75277 0.0
C445 C 0.42104 0.96765 0.72907 0.0
C446 C 0.4375 0.97097 0.79692 0.0
C447 C 0.45612 0.98863 0.80356 0.0
C448 C 0.42373 0.96003 0.8154 0.0
C449 C 0.40321 0.942 0.80938 0.0
C450 C 0.38469 0.94805 0.79356 0.0
C451 C 0.36574 0.93079 0.78744 0.0
C452 C 0.36504 0.90744 0.79715 0.0
C453 C 0.38328 0.90133 0.81304 0.0
C454 C 0.40228 0.91852 0.81919 0.0
C455 C 0.472 0.00277 0.91159 0.0
C456 C 0.47586 0.98002 0.92174 0.0
C457 C 0.46333 0.00367 0.88726 0.0
C458 C 0.45865 0.98185 0.87279 0.0
C459 C 0.46249 0.95933 0.88307 0.0
C460 C 0.47084 0.9584 0.9071 0.0
C461 C 0.45 0.9815 0.84683 0.0
C462 C 0.43007 0.96555 0.84004 0.0
C463 C 0.46273 0.99384 0.82835 0.0
C464 C 0.48387 0.01092 0.8342 0.0
C465 C 0.50422 0.0026 0.84557 0.0
C466 C 0.52395 0.01899 0.85131 0.0
C467 C 0.5236 0.04369 0.84557 0.0
C468 C 0.50355 0.05202 0.83398 0.0
C469 C 0.48376 0.0357 0.82822 0.0
H470 H 0.53888 0.05635 0.85006 0.0
H471 H 0.35037 0.89409 0.79237 0.0
H472 H 0.6017 0.46797 0.76156 0.0
H473 H 0.59482 0.4786 0.719 0.0
H474 H 0.5921 0.4019 0.6963 0.0
H475 H 0.59961 0.39116 0.73879 0.0
H476 H 0.61651 0.43136 0.66376 0.0
H477 H 0.54185 0.4275 0.70347 0.0
H478 H 0.51341 0.43679 0.73536 0.0
H479 H 0.52204 0.51344 0.72011 0.0
H480 H 0.55082 0.50466 0.68835 0.0
H481 H 0.52444 0.45555 0.5658 0.0
H482 H 0.55006 0.43631 0.59525 0.0
H483 H 0.58578 0.50711 0.61473 0.0
H484 H 0.56031 0.52626 0.5855 0.0
H485 H 0.54569 0.47716 0.64689 0.0
H486 H 0.62182 0.4799 0.60722 0.0
H487 H 0.64872 0.46901 0.57442 0.0
H488 H 0.63497 0.39246 0.58834 0.0
H489 H 0.60767 0.40292 0.62102 0.0
C490 C 0.59997 0.45341 0.74747 0.0
C491 C 0.60099 0.42873 0.75352 0.0
C492 C 0.59593 0.45948 0.7232 0.0
C493 C 0.59275 0.44099 0.70459 0.0
C494 C 0.5945 0.41641 0.71043 0.0
C495 C 0.59851 0.41031 0.73471 0.0
C496 C 0.58623 0.44729 0.67933 0.0
C497 C 0.60092 0.44119 0.65999 0.0
C498 C 0.56588 0.46007 0.67448 0.0
C499 C 0.54869 0.46545 0.6937 0.0
C500 C 0.53786 0.44637 0.70707 0.0
C501 C 0.52164 0.45154 0.7251 0.0
C502 C 0.51597 0.4757 0.72981 0.0
C503 C 0.52648 0.49474 0.71647 0.0
C504 C 0.54274 0.48968 0.69845 0.0
C505 C 0.53889 0.46666 0.57511 0.0
C506 C 0.54049 0.4923 0.57362 0.0
C507 C 0.55346 0.45569 0.59198 0.0
C508 C 0.56971 0.47036 0.60714 0.0
C509 C 0.57355 0.49548 0.60296 0.0
C510 C 0.55902 0.5064 0.58624 0.0
C511 C 0.57628 0.46185 0.63149 0.0
C512 C 0.56132 0.46736 0.65067 0.0
C513 C 0.59621 0.44846 0.63602 0.0
C514 C 0.61241 0.44217 0.61628 0.0
C515 C 0.62425 0.46073 0.60305 0.0
C516 C 0.63966 0.45464 0.58455 0.0
C517 C 0.64347 0.43005 0.57922 0.0
C518 C 0.63195 0.4115 0.59244 0.0
C519 C 0.61652 0.4175 0.61096 0.0
H520 H 0.65543 0.42537 0.56491 0.0
H521 H 0.50339 0.47966 0.74375 0.0
H522 H 0.92794 0.60952 0.26901 0.0
H523 H 0.93628 0.60026 0.22621 0.0
H524 H 0.89828 0.52908 0.23022 0.0
H525 H 0.89124 0.53751 0.27347 0.0
H526 H 0.93658 0.52463 0.20618 0.0
H527 H 0.87398 0.57913 0.20184 0.0
H528 H 0.85454 0.6171 0.21164 0.0
H529 H 0.91163 0.65997 0.17958 0.0
H530 H 0.93158 0.62227 0.16988 0.0
H531 H 0.94101 0.49468 0.0833 0.0
H532 H 0.9191 0.50883 0.11853 0.0
H533 H 0.96352 0.57668 0.12265 0.0
H534 H 0.98508 0.56266 0.08715 0.0
H535 H 0.91861 0.58241 0.14134 0.0
H536 H 0.98268 0.52873 0.14997 0.0
H537 H 0.00297 0.49114 0.14084 0.0
H538 H 0.94293 0.44691 0.16558 0.0
H539 H 0.92216 0.48428 0.17457 0.0
C540 C 0.92166 0.59172 0.26095 0.0
C541 C 0.90877 0.57433 0.27477 0.0
C542 C 0.92612 0.58661 0.2363 0.0
C543 C 0.91741 0.5642 0.22477 0.0
C544 C 0.90497 0.54661 0.23861 0.0
C545 C 0.90077 0.55157 0.26333 0.0
C546 C 0.92172 0.55881 0.19843 0.0
C547 C 0.93218 0.53707 0.192 0.0
C548 C 0.9165 0.57525 0.17988 0.0
C549 C 0.90434 0.5979 0.18528 0.0
C550 C 0.88244 0.59667 0.19698 0.0
C551 C 0.87133 0.61814 0.20251 0.0
C552 C 0.88186 0.64093 0.19627 0.0
C553 C 0.90349 0.6423 0.18441 0.0
C554 C 0.91469 0.62089 0.17886 0.0
C555 C 0.94499 0.51326 0.09073 0.0
C556 C 0.96448 0.52774 0.08245 0.0
C557 C 0.93271 0.5212 0.11107 0.0
C558 C 0.94012 0.54353 0.12357 0.0
C559 C 0.95755 0.55936 0.11332 0.0
C560 C 0.96973 0.55146 0.09288 0.0
C561 C 0.93318 0.54819 0.14924 0.0
C562 C 0.92252 0.56984 0.15555 0.0
C563 C 0.9382 0.53169 0.16777 0.0
C564 C 0.95078 0.50925 0.16266 0.0
C565 C 0.97376 0.51098 0.15331 0.0
C566 C 0.98534 0.48972 0.14818 0.0
C567 C 0.97421 0.46665 0.15255 0.0
C568 C 0.9515 0.46479 0.16215 0.0
C569 C 0.93982 0.486 0.16728 0.0
H570 H 0.9832 0.45021 0.14855 0.0
H571 H 0.87324 0.65754 0.2006 0.0
H572 H 0.24856 0.09667 0.05205 0.0
H573 H 0.28588 0.08172 0.03788 0.0
H574 H 0.31405 0.08634 0.11221 0.0
H575 H 0.27714 0.10176 0.1264 0.0
H576 H 0.3453 0.10678 0.08036 0.0
H577 H 0.29483 0.03102 0.08379 0.0
H578 H 0.25912 0.00367 0.07278 0.0
H579 H 0.27613 0.00601 0.9967 0.0
H580 H 0.31179 0.03364 0.00723 0.0
H581 H 0.44902 0.04664 0.07219 0.0
H582 H 0.40916 0.05695 0.08258 0.0
H583 H 0.38473 0.03862 0.00812 0.0
H584 H 0.42454 0.02677 0.99809 0.0
H585 H 0.35069 0.0263 0.03645 0.0
H586 H 0.40012 0.10027 0.03055 0.0
H587 H 0.43534 0.12915 0.03875 0.0
H588 H 0.41962 0.13308 0.11524 0.0
H589 H 0.38447 0.10397 0.10754 0.0
C590 C 0.26274 0.0946 0.06536 0.0
C591 C 0.25979 0.10037 0.09039 0.0
C592 C 0.284 0.08583 0.05725 0.0
C593 C 0.30273 0.08269 0.074 0.0
C594 C 0.29984 0.08853 0.09895 0.0
C595 C 0.27862 0.09718 0.10706 0.0
C596 C 0.32567 0.074 0.06569 0.0
C597 C 0.3465 0.08906 0.07101 0.0
C598 C 0.32718 0.05133 0.05255 0.0
C599 C 0.30585 0.03457 0.04628 0.0
C600 C 0.29086 0.02584 0.0647 0.0
C601 C 0.27065 0.01026 0.05855 0.0
C602 C 0.26533 0.00316 0.03405 0.0
C603 C 0.28026 0.01155 0.01566 0.0
C604 C 0.30048 0.02715 0.02171 0.0
C605 C 0.43507 0.0445 0.05812 0.0
C606 C 0.43991 0.03611 0.03429 0.0
C607 C 0.41229 0.05061 0.064 0.0
C608 C 0.39398 0.04943 0.04595 0.0
C609 C 0.39853 0.03994 0.02236 0.0
C610 C 0.42127 0.03316 0.01663 0.0
C611 C 0.3705 0.05885 0.05167 0.0
C612 C 0.34955 0.04406 0.04574 0.0
C613 C 0.36877 0.08205 0.06381 0.0
C614 C 0.38976 0.09979 0.06848 0.0
C615 C 0.40425 0.10719 0.04913 0.0
C616 C 0.42419 0.12362 0.05369 0.0
C617 C 0.42974 0.13291 0.07751 0.0
C618 C 0.41531 0.12586 0.0968 0.0
C619 C 0.39536 0.10942 0.09235 0.0
H620 H 0.4452 0.1456 0.081 0.0
H621 H 0.24967 0.9911 0.02933 0.0
H622 H 0.24594 0.87367 0.55833 0.0
H623 H 0.20699 0.88476 0.54358 0.0
H624 H 0.22804 0.96126 0.56013 0.0
H625 H 0.26702 0.95045 0.57443 0.0
H626 H 0.18514 0.94654 0.57912 0.0
H627 H 0.22497 0.93878 0.50187 0.0
H628 H 0.2464 0.91648 0.47038 0.0
H629 H 0.18765 0.86203 0.46146 0.0
H630 H 0.16599 0.88385 0.49317 0.0
H631 H 0.1071 0.01817 0.52569 0.0
H632 H 0.14326 0.99677 0.52904 0.0
H633 H 0.10298 0.92742 0.51375 0.0
H634 H 0.0664 0.949 0.50985 0.0
H635 H 0.15176 0.93153 0.49439 0.0
H636 H 0.11075 0.94025 0.56934 0.0
H637 H 0.0887 0.96285 0.60007 0.0
H638 H 0.14932 0.01421 0.61376 0.0
H639 H 0.17161 0.99214 0.58279 0.0
C640 C 0.24238 0.89288 0.5585 0.0
C641 C 0.25954 0.91118 0.5677 0.0
C642 C 0.22011 0.89916 0.55011 0.0
C643 C 0.21469 0.92382 0.55075 0.0
C644 C 0.23186 0.9421 0.55962 0.0
C645 C 0.25408 0.93587 0.56791 0.0
C646 C 0.19085 0.93081 0.54319 0.0
C647 C 0.17792 0.94331 0.56057 0.0
C648 C 0.18104 0.92578 0.51924 0.0
C649 C 0.19398 0.91278 0.50008 0.0
C650 C 0.2167 0.92194 0.49334 0.0
C651 C 0.22887 0.90941 0.47543 0.0
C652 C 0.21842 0.88781 0.46399 0.0
C653 C 0.19574 0.87874 0.47038 0.0
C654 C 0.1835 0.89118 0.4883 0.0
C655 C 0.10598 0.99842 0.52243 0.0
C656 C 0.08396 0.98516 0.51793 0.0
C657 C 0.12665 0.98624 0.52429 0.0
C658 C 0.12566 0.96053 0.52211 0.0
C659 C 0.10402 0.94729 0.51553 0.0
C660 C 0.0832 0.9596 0.51336 0.0
C661 C 0.14662 0.94792 0.53014 0.0
C662 C 0.15888 0.93433 0.51301 0.0
C663 C 0.15584 0.9517 0.55443 0.0
C664 C 0.14278 0.96463 0.57363 0.0
C665 C 0.11933 0.95644 0.57882 0.0
C666 C 0.10679 0.96915 0.59627 0.0
C667 C 0.11758 0.98998 0.60883 0.0
C668 C 0.14098 0.99807 0.60402 0.0
C669 C 0.15359 0.98545 0.58653 0.0
H670 H 0.10783 0.99983 0.62231 0.0
H671 H 0.22787 0.87813 0.45013 0.0
H672 H 0.72212 0.44232 0.97238 0.0
H673 H 0.76309 0.45033 0.98861 0.0
H674 H 0.78937 0.43697 0.91626 0.0
H675 H 0.74872 0.42909 0.90002 0.0
H676 H 0.81196 0.4117 0.95269 0.0
H677 H 0.78977 0.49305 0.93641 0.0
H678 H 0.76558 0.52869 0.93984 0.0
H679 H 0.77973 0.53429 0.01758 0.0
H680 H 0.80375 0.49841 0.01463 0.0
H681 H 0.92553 0.46764 0.94136 0.0
H682 H 0.88347 0.45429 0.94004 0.0
H683 H 0.87919 0.47404 0.01695 0.0
H684 H 0.92178 0.48751 0.01843 0.0
H685 H 0.84427 0.49302 0.98739 0.0
H686 H 0.87342 0.41449 1.00023 0.0
H687 H 0.89942 0.38075 0.99332 0.0
H688 H 0.87363 0.37132 0.91864 0.0
H689 H 0.84768 0.40519 0.925 0.0
C690 C 0.7367 0.44119 0.96001 0.0
C691 C 0.73232 0.43525 0.93495 0.0
C692 C 0.76 0.44579 0.96926 0.0
C693 C 0.77917 0.44418 0.9536 0.0
C694 C 0.77478 0.43823 0.92862 0.0
C695 C 0.75158 0.43396 0.91935 0.0
C696 C 0.80394 0.44854 0.96301 0.0
C697 C 0.81906 0.42946 0.96033 0.0
C698 C 0.81296 0.47153 0.97349 0.0
C699 C 0.7982 0.4928 0.97537 0.0
C700 C 0.78745 0.50167 0.95428 0.0
C701 C 0.77384 0.52197 0.95612 0.0
C702 C 0.77102 0.53368 0.97893 0.0
C703 C 0.78186 0.52514 0.99994 0.0
C704 C 0.79546 0.50483 0.99819 0.0
C705 C 0.91578 0.46871 0.95814 0.0
C706 C 0.92693 0.4784 0.98005 0.0
C707 C 0.89175 0.46101 0.95737 0.0
C708 C 0.87831 0.46285 0.97847 0.0
C709 C 0.88938 0.47222 1.00055 0.0
C710 C 0.91367 0.47971 0.00141 0.0
C711 C 0.85244 0.45634 0.97655 0.0
C712 C 0.83707 0.47502 0.98053 0.0
C713 C 0.84323 0.43305 0.96694 0.0
C714 C 0.85862 0.41244 0.9631 0.0
C715 C 0.87337 0.4053 0.9823 0.0
C716 C 0.88809 0.38614 0.97848 0.0
C717 C 0.88819 0.37391 0.95556 0.0
C718 C 0.87352 0.38079 0.93641 0.0
C719 C 0.85875 0.39993 0.94013 0.0
H720 H 0.89962 0.35909 0.95263 0.0
H721 H 0.76052 0.54942 0.98032 0.0
H722 H 0.77337 0.54692 0.47158 0.0
H723 H 0.73235 0.53671 0.48381 0.0
H724 H 0.7062 0.57166 0.42003 0.0
H725 H 0.74697 0.58165 0.40766 0.0
H726 H 0.68421 0.58529 0.46365 0.0
H727 H 0.70428 0.51297 0.4181 0.0
H728 H 0.7277 0.4778 0.40818 0.0
H729 H 0.71429 0.44912 0.47905 0.0
H730 H 0.69108 0.48438 0.48955 0.0
H731 H 0.56913 0.52027 0.43405 0.0
H732 H 0.61165 0.53243 0.43291 0.0
H733 H 0.61776 0.52756 0.51139 0.0
H734 H 0.57496 0.51611 0.51285 0.0
H735 H 0.65057 0.49891 0.46659 0.0
H736 H 0.63058 0.57339 0.51191 0.0
H737 H 0.60582 0.60812 0.51915 0.0
H738 H 0.61827 0.63188 0.44621 0.0
H739 H 0.64281 0.597 0.43845 0.0
C740 C 0.75881 0.5524 0.46025 0.0
C741 C 0.76324 0.56492 0.43862 0.0
C742 C 0.73547 0.54654 0.46719 0.0
C743 C 0.71632 0.55344 0.45278 0.0
C744 C 0.72076 0.56623 0.43139 0.0
C745 C 0.74401 0.57175 0.42427 0.0
C746 C 0.69152 0.54719 0.45968 0.0
C747 C 0.67691 0.5664 0.46441 0.0
C748 C 0.68208 0.52255 0.4609 0.0
C749 C 0.69626 0.50151 0.45475 0.0
C750 C 0.70658 0.49933 0.43169 0.0
C751 C 0.71975 0.47934 0.42593 0.0
C752 C 0.72257 0.46129 0.44301 0.0
C753 C 0.71216 0.46316 0.46587 0.0
C754 C 0.699 0.48315 0.47174 0.0
C755 C 0.57947 0.52203 0.4511 0.0
C756 C 0.56876 0.5173 0.47354 0.0
C757 C 0.6037 0.52897 0.45041 0.0
C758 C 0.61767 0.53094 0.47207 0.0
C759 C 0.60712 0.52632 0.49454 0.0
C760 C 0.58273 0.51986 0.49532 0.0
C761 C 0.64346 0.53699 0.47068 0.0
C762 C 0.65815 0.51776 0.46659 0.0
C763 C 0.65299 0.56156 0.46999 0.0
C764 C 0.6382 0.58242 0.4745 0.0
C765 C 0.62776 0.58584 0.49732 0.0
C766 C 0.61385 0.60559 0.50155 0.0
C767 C 0.61039 0.62215 0.48311 0.0
C768 C 0.6209 0.61901 0.46044 0.0
C769 C 0.63482 0.59926 0.45613 0.0
H770 H 0.59963 0.63745 0.48643 0.0
H771 H 0.73274 0.4458 0.43851 0.0
H772 H 0.06649 0.23883 0.08602 0.0
H773 H 0.05009 0.27492 0.0692 0.0
H774 H 0.1201 0.30236 0.0489 0.0
H775 H 0.13681 0.26682 0.06674 0.0
H776 H 0.09867 0.33808 0.06929 0.0
H777 H 0.07717 0.27825 0.00556 0.0
H778 H 0.06028 0.23878 0.98686 0.0
H779 H 0.99123 0.25395 0.01167 0.0
H780 H 0.00776 0.29337 0.03084 0.0
H781 H 0.05317 0.43585 0.00435 0.0
H782 H 0.06989 0.3957 0.00725 0.0
H783 H 0.00978 0.36927 0.04837 0.0
H784 H 0.99352 0.4095 0.04622 0.0
H785 H 0.0282 0.33315 0.01264 0.0
H786 H 0.05214 0.39051 0.08061 0.0
H787 H 0.06942 0.43023 0.0984 0.0
H788 H 0.13518 0.41927 0.06346 0.0
H789 H 0.1181 0.37962 0.04511 0.0
C790 C 0.07847 0.25257 0.0781 0.0
C791 C 0.10303 0.24983 0.07784 0.0
C792 C 0.06899 0.2731 0.06816 0.0
C793 C 0.08376 0.29131 0.05742 0.0
C794 C 0.10827 0.28856 0.05695 0.0
C795 C 0.11779 0.26806 0.06699 0.0
C796 C 0.07377 0.31371 0.04775 0.0
C797 C 0.08358 0.3369 0.05649 0.0
C798 C 0.05382 0.31239 0.0313 0.0
C799 C 0.04376 0.28869 0.01982 0.0
C800 C 0.05841 0.27309 0.0072 0.0
C801 C 0.0489 0.25073 0.99649 0.0
C802 C 0.0247 0.24383 0.99812 0.0
C803 C 0.00997 0.2593 0.01044 0.0
C804 C 0.0194 0.28167 0.02121 0.0
C805 C 0.04313 0.42114 0.01315 0.0
C806 C 0.02197 0.42562 0.02486 0.0
C807 C 0.05277 0.39831 0.01498 0.0
C808 C 0.04111 0.37956 0.02813 0.0
C809 C 0.01899 0.38342 0.03805 0.0
C810 C 0.00969 0.40636 0.03674 0.0
C811 C 0.0531 0.35719 0.03429 0.0
C812 C 0.04357 0.33413 0.02506 0.0
C813 C 0.07343 0.35857 0.05012 0.0
C814 C 0.08374 0.3823 0.06122 0.0
C815 C 0.07019 0.3967 0.07651 0.0
C816 C 0.07997 0.41917 0.08674 0.0
C817 C 0.10336 0.42732 0.08199 0.0
C818 C 0.11704 0.41296 0.06706 0.0
C819 C 0.10733 0.3905 0.05675 0.0
H820 H 0.1109 0.44471 0.08993 0.0
H821 H 0.01737 0.22652 0.98981 0.0
H822 H 0.61185 0.26066 0.91589 0.0
H823 H 0.59968 0.21754 0.92175 0.0
H824 H 0.52877 0.22901 0.89574 0.0
H825 H 0.54055 0.27252 0.89088 0.0
H826 H 0.52767 0.20289 0.93561 0.0
H827 H 0.56747 0.19866 0.8595 0.0
H828 H 0.60035 0.20711 0.83151 0.0
H829 H 0.64668 0.16905 0.87783 0.0
H830 H 0.61418 0.16066 0.9063 0.0
H831 H 0.49526 0.07927 0.94892 0.0
H832 H 0.50421 0.11374 0.9222 0.0
H833 H 0.57674 0.12005 0.9498 0.0
H834 H 0.56776 0.08574 0.97634 0.0
H835 H 0.57296 0.13545 0.90194 0.0
H836 H 0.53739 0.14788 0.98106 0.0
H837 H 0.50639 0.14002 0.01133 0.0
H838 H 0.4539 0.16365 0.96096 0.0
H839 H 0.48459 0.17126 0.93021 0.0
C840 C 0.59359 0.25412 0.9117 0.0
C841 C 0.57717 0.27007 0.90293 0.0
C842 C 0.58674 0.22935 0.91469 0.0
C843 C 0.56344 0.21993 0.90868 0.0
C844 C 0.54691 0.23584 0.90023 0.0
C845 C 0.55371 0.26067 0.89735 0.0
C846 C 0.55613 0.1937 0.91227 0.0
C847 C 0.5372 0.18812 0.9277 0.0
C848 C 0.56888 0.17444 0.90238 0.0
C849 C 0.58839 0.17914 0.88511 0.0
C850 C 0.5847 0.1922 0.86379 0.0
C851 C 0.60327 0.19697 0.84783 0.0
C852 C 0.6256 0.18865 0.8529 0.0
C853 C 0.62938 0.17548 0.87392 0.0
C854 C 0.61087 0.17067 0.88996 0.0
C855 C 0.51335 0.08723 0.94821 0.0
C856 C 0.53091 0.08 0.96443 0.0
C857 C 0.51843 0.10698 0.93312 0.0
C858 C 0.54103 0.11967 0.93439 0.0
C859 C 0.55921 0.1105 0.94852 0.0
C860 C 0.55411 0.0909 0.96364 0.0
C861 C 0.54467 0.14482 0.92532 0.0
C862 C 0.56301 0.15022 0.90913 0.0
C863 C 0.53158 0.16403 0.93468 0.0
C864 C 0.51319 0.15983 0.95324 0.0
C865 C 0.5192 0.15123 0.97639 0.0
C866 C 0.5017 0.14683 0.99363 0.0
C867 C 0.47817 0.15126 0.98804 0.0
C868 C 0.47212 0.16017 0.96523 0.0
C869 C 0.48956 0.16452 0.94788 0.0
H870 H 0.46464 0.14784 0.00142 0.0
H871 H 0.63996 0.19238 0.84053 0.0
H872 H 0.94459 0.73034 0.41825 0.0
H873 H 0.9595 0.77128 0.4332 0.0
H874 H 0.93747 0.75458 0.50608 0.0
H875 H 0.92295 0.71305 0.49138 0.0
H876 H 0.92372 0.79992 0.49095 0.0
H877 H 0.99488 0.75885 0.49638 0.0
H878 H 0.0251 0.73167 0.48227 0.0
H879 H 0.04097 0.77873 0.42268 0.0
H880 H 0.0106 0.80601 0.4362 0.0
H881 H 0.97777 0.92396 0.51559 0.0
H882 H 0.97059 0.87941 0.52142 0.0
H883 H 0.98419 0.86496 0.44506 0.0
H884 H 0.99109 0.90869 0.43918 0.0
H885 H 0.00565 0.83335 0.4749 0.0
H886 H 0.92861 0.86714 0.46322 0.0
H887 H 0.89722 0.89403 0.47484 0.0
H888 H 0.89214 0.86055 0.54461 0.0
H889 H 0.92374 0.83366 0.53347 0.0
C890 C 0.94334 0.73506 0.43758 0.0
C891 C 0.93272 0.71821 0.45362 0.0
C892 C 0.95178 0.75858 0.44609 0.0
C893 C 0.94983 0.76589 0.47082 0.0
C894 C 0.93918 0.74927 0.48694 0.0
C895 C 0.93083 0.72558 0.47846 0.0
C896 C 0.95834 0.79124 0.47925 0.0
C897 C 0.94182 0.80712 0.48811 0.0
C898 C 0.98189 0.80065 0.47538 0.0
C899 C 0.00039 0.78445 0.4673 0.0
C900 C 0.00472 0.76334 0.48019 0.0
C901 C 0.02189 0.74792 0.4723 0.0
C902 C 0.03494 0.75346 0.45158 0.0
C903 C 0.03087 0.77447 0.43874 0.0
C904 C 0.01371 0.78994 0.44654 0.0
C905 C 0.97948 0.91115 0.50023 0.0
C906 C 0.98477 0.91976 0.4769 0.0
C907 C 0.97532 0.8858 0.50353 0.0
C908 C 0.97682 0.86891 0.48362 0.0
C909 C 0.98302 0.87761 0.46069 0.0
C910 C 0.98681 0.90267 0.45733 0.0
C911 C 0.97081 0.84216 0.4856 0.0
C912 C 0.9878 0.82599 0.47862 0.0
C913 C 0.94768 0.83254 0.49101 0.0
C914 C 0.92874 0.84868 0.49768 0.0
C915 C 0.92094 0.86569 0.48112 0.0
C916 C 0.90309 0.88089 0.4876 0.0
C917 C 0.89276 0.87907 0.51049 0.0
C918 C 0.90021 0.86199 0.52692 0.0
C919 C 0.91809 0.84677 0.52054 0.0
H920 H 0.87894 0.89085 0.51547 0.0
H921 H 0.04821 0.74149 0.44549 0.0
H922 H 0.4435 0.76714 0.59175 0.0
H923 H 0.45904 0.7304 0.57344 0.0
H924 H 0.42163 0.74156 0.50542 0.0
H925 H 0.40654 0.77885 0.5233 0.0
H926 H 0.41527 0.69313 0.52181 0.0
H927 H 0.47919 0.75299 0.50695 0.0
H928 H 0.50865 0.78734 0.51855 0.0
H929 H 0.54114 0.74279 0.57109 0.0
H930 H 0.51166 0.70829 0.56007 0.0
H931 H 0.46455 0.58291 0.48429 0.0
H932 H 0.45594 0.62602 0.48025 0.0
H933 H 0.49701 0.64548 0.54689 0.0
H934 H 0.50674 0.60323 0.54992 0.0
H935 H 0.50147 0.68183 0.51971 0.0
H936 H 0.43359 0.62805 0.54414 0.0
H937 H 0.40327 0.59335 0.53743 0.0
H938 H 0.37782 0.6256 0.47219 0.0
H939 H 0.40816 0.66039 0.47843 0.0
C940 C 0.4389 0.76212 0.57276 0.0
C941 C 0.42378 0.77605 0.55902 0.0
C942 C 0.44771 0.74102 0.56235 0.0
C943 C 0.4416 0.73339 0.53803 0.0
C944 C 0.42653 0.74716 0.52423 0.0
C945 C 0.41784 0.7684 0.53455 0.0
C946 C 0.45052 0.7106 0.52742 0.0
C947 C 0.43412 0.69076 0.52079 0.0
C948 C 0.47508 0.70751 0.52641 0.0
C949 C 0.49316 0.72807 0.53271 0.0
C950 C 0.49255 0.75055 0.52105 0.0
C951 C 0.50926 0.77005 0.52752 0.0
C952 C 0.52675 0.76725 0.54555 0.0
C953 C 0.5276 0.74492 0.55711 0.0
C954 C 0.51092 0.72537 0.55072 0.0
C955 C 0.47257 0.59663 0.49734 0.0
C956 C 0.48625 0.58972 0.5174 0.0
C957 C 0.46732 0.62121 0.49531 0.0
C958 C 0.47532 0.63899 0.51363 0.0
C959 C 0.49051 0.63225 0.53253 0.0
C960 C 0.49597 0.60798 0.53434 0.0
C961 C 0.46626 0.66389 0.51517 0.0
C962 C 0.48261 0.68427 0.52005 0.0
C963 C 0.44164 0.66734 0.51517 0.0
C964 C 0.42328 0.64661 0.51157 0.0
C965 C 0.42158 0.62766 0.52831 0.0
C966 C 0.4044 0.60799 0.5246 0.0
C967 C 0.38868 0.60723 0.50435 0.0
C968 C 0.39005 0.62618 0.48783 0.0
C969 C 0.40722 0.64588 0.49144 0.0
H970 H 0.37541 0.59198 0.50149 0.0
H971 H 0.53965 0.78238 0.55056 0.0
H972 H 0.90872 0.867 0.74407 0.0
H973 H 0.9217 0.87893 0.70352 0.0
H974 H 0.9194 0.95535 0.72568 0.0
H975 H 0.90642 0.94356 0.76618 0.0
H976 H 0.89979 0.94731 0.68149 0.0
H977 H 0.97215 0.92785 0.72154 0.0
H978 H 0.99875 0.90214 0.74399 0.0
H979 H 0.99264 0.84806 0.68459 0.0
H980 H 0.96574 0.87333 0.6619 0.0
H981 H 0.97964 0.01112 0.60619 0.0
H982 H 0.95952 0.99013 0.63918 0.0
H983 H 0.95368 0.92251 0.59534 0.0
H984 H 0.97377 0.94381 0.56161 0.0
H985 H 0.97399 0.92049 0.64605 0.0
H986 H 0.90507 0.94588 0.60399 0.0
H987 H 0.88137 0.97524 0.58283 0.0
H988 H 0.88397 0.02202 0.64797 0.0
H989 H 0.90798 0.99311 0.66942 0.0
C990 C 0.91121 0.88636 0.74039 0.0
C991 C 0.90653 0.90432 0.75841 0.0
C992 C 0.91858 0.89315 0.71716 0.0
C993 C 0.92166 0.91806 0.71152 0.0
C994 C 0.91701 0.93601 0.72949 0.0
C995 C 0.90956 0.92924 0.75266 0.0
C996 C 0.92964 0.92558 0.68694 0.0
C997 C 0.91605 0.94147 0.67381 0.0
C998 C 0.9506 0.91759 0.67657 0.0
C999 C 0.9667 0.90233 0.69017 0.0
C1000 C 0.97631 0.91037 0.71337 0.0
C1001 C 0.99147 0.8959 0.72611 0.0
C1002 C 0.99731 0.87344 0.71576 0.0
C1003 C 0.98805 0.86544 0.69261 0.0
C1004 C 0.97285 0.87983 0.67979 0.0
C1005 C 0.97385 0.99183 0.60337 0.0
C1006 C 0.9783 0.97908 0.58133 0.0
C1007 C 0.96231 0.97988 0.62226 0.0
C1008 C 0.95508 0.9548 0.61972 0.0
C1009 C 0.95911 0.94192 0.5976 0.0
C1010 C 0.9704 0.95409 0.57834 0.0
C1011 C 0.94428 0.94239 0.64089 0.0
C1012 C 0.95741 0.92576 0.65348 0.0
C1013 C 0.92314 0.95004 0.65101 0.0
C1014 C 0.90843 0.96735 0.63828 0.0
C1015 C 0.90072 0.9625 0.61376 0.0
C1016 C 0.88721 0.97905 0.60172 0.0
C1017 C 0.88119 0.00049 0.61404 0.0
C1018 C 0.88863 0.00539 0.63845 0.0
C1019 C 0.90216 0.9889 0.65057 0.0
H1020 H 0.87075 0.0133 0.60468 0.0
H1021 H 0.00906 0.86227 0.72565 0.0
H1022 H 0.55611 0.07689 0.28632 0.0
H1023 H 0.54327 0.06023 0.24527 0.0
H1024 H 0.61591 0.06631 0.22259 0.0
H1025 H 0.62876 0.0831 0.26322 0.0
H1026 H 0.58484 0.08659 0.19048 0.0
H1027 H 0.58928 0.01151 0.23479 0.0
H1028 H 0.5785 0.98332 0.26762 0.0
H1029 H 0.50544 0.97972 0.24322 0.0
H1030 H 0.51572 0.00821 0.21047 0.0
H1031 H 0.58153 0.02997 0.07594 0.0
H1032 H 0.59098 0.03606 0.11976 0.0
H1033 H 0.51778 0.01654 0.1358 0.0
H1034 H 0.50857 0.00913 0.09186 0.0
H1035 H 0.54527 0.00347 0.17217 0.0
H1036 H 0.53818 0.07694 0.12926 0.0
H1037 H 0.54585 0.10648 0.09681 0.0
H1038 H 0.61943 0.1157 0.11937 0.0
H1039 H 0.61227 0.08592 0.15174 0.0
C1040 C 0.56929 0.07466 0.27254 0.0
C1041 C 0.59346 0.0812 0.27802 0.0
C1042 C 0.56197 0.06498 0.2492 0.0
C1043 C 0.57868 0.06186 0.23098 0.0
C1044 C 0.60275 0.06845 0.23643 0.0
C1045 C 0.61007 0.07792 0.2597 0.0
C1046 C 0.57127 0.0528 0.20579 0.0
C1047 C 0.57644 0.06831 0.18645 0.0
C1048 C 0.55937 0.02936 0.20067 0.0
C1049 C 0.55323 0.01223 0.22036 0.0
C1050 C 0.57088 0.00491 0.23657 0.0
C1051 C 0.56486 0.98883 0.25514 0.0
C1052 C 0.54129 0.9798 0.25756 0.0
C1053 C 0.52368 0.98677 0.24137 0.0
C1054 C 0.5296 0.00287 0.22279 0.0
C1055 C 0.56766 0.02615 0.0889 0.0
C1056 C 0.54434 0.01922 0.08061 0.0
C1057 C 0.57299 0.02987 0.11391 0.0
C1058 C 0.55491 0.02763 0.13103 0.0
C1059 C 0.53198 0.01862 0.12293 0.0
C1060 C 0.52675 0.0143 0.09784 0.0
C1061 C 0.55957 0.037 0.15677 0.0
C1062 C 0.55368 0.02174 0.17618 0.0
C1063 C 0.57035 0.06095 0.16211 0.0
C1064 C 0.57472 0.07903 0.14279 0.0
C1065 C 0.55603 0.08515 0.1272 0.0
C1066 C 0.56028 0.10195 0.10883 0.0
C1067 C 0.58312 0.11292 0.106 0.0
C1068 C 0.60175 0.10716 0.12157 0.0
C1069 C 0.5976 0.09034 0.13994 0.0
H1070 H 0.58638 0.12592 0.09177 0.0
H1071 H 0.53667 0.96734 0.27194 0.0
H1072 H 0.37658 0.586 0.27206 0.0
H1073 H 0.38399 0.57673 0.31468 0.0
H1074 H 0.44793 0.62526 0.31673 0.0
H1075 H 0.44172 0.63305 0.2735 0.0
H1076 H 0.45714 0.58646 0.33716 0.0
H1077 H 0.39554 0.63956 0.34745 0.0
H1078 H 0.35693 0.65636 0.33948 0.0
H1079 H 0.32075 0.58892 0.36087 0.0
H1080 H 0.35915 0.57155 0.36863 0.0
H1081 H 0.47749 0.55308 0.45456 0.0
H1082 H 0.46085 0.58446 0.42984 0.0
H1083 H 0.40723 0.53045 0.39994 0.0
H1084 H 0.42381 0.49921 0.42469 0.0
H1085 H 0.39431 0.58201 0.39903 0.0
H1086 H 0.45762 0.52788 0.37504 0.0
H1087 H 0.49638 0.51157 0.38383 0.0
H1088 H 0.52952 0.585 0.3896 0.0
H1089 H 0.49083 0.60172 0.38109 0.0
C1090 C 0.3924 0.59451 0.28142 0.0
C1091 C 0.40856 0.61026 0.26919 0.0
C1092 C 0.39635 0.58958 0.30603 0.0
C1093 C 0.41623 0.60075 0.31918 0.0
C1094 C 0.43233 0.6166 0.30709 0.0
C1095 C 0.42862 0.62119 0.28235 0.0
C1096 C 0.42117 0.59432 0.34493 0.0
C1097 C 0.44353 0.58625 0.35082 0.0
C1098 C 0.40347 0.59379 0.36288 0.0
C1099 C 0.38027 0.60421 0.35852 0.0
C1100 C 0.37936 0.62825 0.35034 0.0
C1101 C 0.3575 0.63788 0.34586 0.0
C1102 C 0.3364 0.62371 0.34964 0.0
C1103 C 0.33712 0.59989 0.35796 0.0
C1104 C 0.35893 0.59015 0.36245 0.0
C1105 C 0.46113 0.54841 0.44407 0.0
C1106 C 0.45178 0.52392 0.44152 0.0
C1107 C 0.45175 0.56628 0.42979 0.0
C1108 C 0.43307 0.55961 0.4128 0.0
C1109 C 0.42159 0.53596 0.41299 0.0
C1110 C 0.43108 0.5181 0.42711 0.0
C1111 C 0.42997 0.57408 0.39076 0.0
C1112 C 0.408 0.58328 0.3855 0.0
C1113 C 0.44808 0.57606 0.37339 0.0
C1114 C 0.4714 0.56602 0.37765 0.0
C1115 C 0.47318 0.54052 0.37824 0.0
C1116 C 0.49511 0.53121 0.38319 0.0
C1117 C 0.51539 0.54724 0.38735 0.0
C1118 C 0.51379 0.57261 0.38642 0.0
C1119 C 0.49188 0.58201 0.38152 0.0
H1120 H 0.53234 0.54001 0.39125 0.0
H1121 H 0.31949 0.6312 0.34615 0.0
H1122 H 0.12165 0.45518 0.74673 0.0
H1123 H 0.11463 0.46521 0.78966 0.0
H1124 H 0.04596 0.42497 0.78303 0.0
H1125 H 0.05196 0.41663 0.73967 0.0
H1126 H 0.04146 0.4635 0.80872 0.0
H1127 H 0.09734 0.40203 0.81145 0.0
H1128 H 0.13439 0.38293 0.80207 0.0
H1129 H 0.17517 0.44434 0.83758 0.0
H1130 H 0.13834 0.46397 0.84688 0.0
H1131 H 0.01858 0.4531 0.93168 0.0
H1132 H 0.03666 0.43654 0.89503 0.0
H1133 H 0.08531 0.50114 0.89445 0.0
H1134 H 0.06673 0.51804 0.93077 0.0
H1135 H 0.10125 0.44943 0.87397 0.0
H1136 H 0.04255 0.51138 0.867 0.0
H1137 H 0.00425 0.52752 0.87716 0.0
H1138 H 0.96736 0.46 0.84988 0.0
H1139 H 0.00553 0.44334 0.83992 0.0
C1140 C 0.10486 0.4488 0.75422 0.0
C1141 C 0.08746 0.4349 0.73958 0.0
C1142 C 0.10104 0.4542 0.77898 0.0
C1143 C 0.07999 0.44536 0.78986 0.0
C1144 C 0.06245 0.43186 0.7752 0.0
C1145 C 0.06605 0.42684 0.75038 0.0
C1146 C 0.07593 0.45052 0.81633 0.0
C1147 C 0.0545 0.46008 0.82288 0.0
C1148 C 0.09295 0.4464 0.83503 0.0
C1149 C 0.1151 0.43457 0.82966 0.0
C1150 C 0.11422 0.41153 0.81712 0.0
C1151 C 0.13517 0.40061 0.81183 0.0
C1152 C 0.15712 0.41245 0.81917 0.0
C1153 C 0.15815 0.43521 0.83188 0.0
C1154 C 0.13725 0.44623 0.83718 0.0
C1155 C 0.03416 0.46299 0.9247 0.0
C1156 C 0.04154 0.48665 0.93416 0.0
C1157 C 0.04431 0.45364 0.9036 0.0
C1158 C 0.06213 0.46776 0.89197 0.0
C1159 C 0.07167 0.48993 0.90329 0.0
C1160 C 0.06122 0.49947 0.92418 0.0
C1161 C 0.06692 0.46215 0.86594 0.0
C1162 C 0.08836 0.45267 0.8596 0.0
C1163 C 0.04981 0.4659 0.84737 0.0
C1164 C 0.02687 0.47602 0.85304 0.0
C1165 C 0.02628 0.4999 0.8634 0.0
C1166 C 0.0046 0.50916 0.86907 0.0
C1167 C 0.98339 0.49476 0.86426 0.0
C1168 C 0.98381 0.47111 0.85366 0.0
C1169 C 0.00545 0.46176 0.84799 0.0
H1170 H 0.96662 0.50195 0.86868 0.0
H1171 H 0.17333 0.40396 0.81505 0.0
H1172 H 0.73881 0.90546 0.89546 0.0
H1173 H 0.70331 0.92348 0.91004 0.0
H1174 H 0.74535 0.96507 0.96664 0.0
H1175 H 0.78091 0.94606 0.95261 0.0
H1176 H 0.70582 0.94956 0.98508 0.0
H1177 H 0.72381 0.99239 0.91326 0.0
H1178 H 0.73441 0.99789 0.8702 0.0
H1179 H 0.66943 0.9575 0.84584 0.0
H1180 H 0.65859 0.95144 0.88875 0.0
H1181 H 0.59352 0.00612 0.00394 0.0
H1182 H 0.63583 0.0046 0.99402 0.0
H1183 H 0.61753 0.94327 0.94329 0.0
H1184 H 0.57601 0.94439 0.95322 0.0
H1185 H 0.64932 0.98053 0.92466 0.0
H1186 H 0.637 0.93218 0.99822 0.0
H1187 H 0.62695 0.92832 0.04167 0.0
H1188 H 0.68261 0.9835 0.06278 0.0
H1189 H 0.69278 0.98789 0.01939 0.0
C1190 C 0.74047 0.91851 0.91097 0.0
C1191 C 0.76261 0.92455 0.92277 0.0
C1192 C 0.7202 0.92895 0.91922 0.0
C1193 C 0.72165 0.94625 0.93904 0.0
C1194 C 0.74373 0.95196 0.95119 0.0
C1195 C 0.76403 0.94111 0.94319 0.0
C1196 C 0.69992 0.95779 0.94715 0.0
C1197 C 0.69377 0.95687 0.97191 0.0
C1198 C 0.68412 0.96759 0.93015 0.0
C1199 C 0.69043 0.97139 0.90426 0.0
C1200 C 0.71183 0.98458 0.89873 0.0
C1201 C 0.71788 0.9878 0.87434 0.0
C1202 C 0.70262 0.97803 0.8553 0.0
C1203 C 0.68124 0.96507 0.86061 0.0
C1204 C 0.67511 0.96177 0.88496 0.0
C1205 C 0.59864 0.99249 0.99057 0.0
C1206 C 0.58151 0.97525 0.97952 0.0
C1207 C 0.62273 0.9916 0.98498 0.0
C1208 C 0.62976 0.97378 0.96793 0.0
C1209 C 0.61251 0.95718 0.95644 0.0
C1210 C 0.58877 0.95777 0.96227 0.0
C1211 C 0.65499 0.97126 0.96217 0.0
C1212 C 0.66179 0.97389 0.93784 0.0
C1213 C 0.67147 0.96342 0.97959 0.0
C1214 C 0.66543 0.96059 0.00559 0.0
C1215 C 0.64695 0.94363 0.01212 0.0
C1216 C 0.64127 0.94132 0.03673 0.0
C1217 C 0.65408 0.95572 0.05497 0.0
C1218 C 0.67266 0.9724 0.04864 0.0
C1219 C 0.6784 0.9748 0.02405 0.0
H1220 H 0.64965 0.95391 0.07401 0.0
H1221 H 0.70734 0.98054 0.83643 0.0
H1222 H 0.74891 0.10995 0.47273 0.0
H1223 H 0.78777 0.09652 0.48503 0.0
H1224 H 0.8022 0.08004 0.40926 0.0
H1225 H 0.76373 0.09365 0.39685 0.0
H1226 H 0.81087 0.04232 0.43798 0.0
H1227 H 0.82869 0.13027 0.43976 0.0
H1228 H 0.82404 0.17324 0.45306 0.0
H1229 H 0.83908 0.15612 0.52771 0.0
H1230 H 0.84346 0.11293 0.5149 0.0
H1231 H 0.9316 0.02731 0.43341 0.0
H1232 H 0.8932 0.04439 0.42948 0.0
H1233 H 0.89097 0.05429 0.50809 0.0
H1234 H 0.92987 0.03737 0.51226 0.0
H1235 H 0.87476 0.09384 0.48352 0.0
H1236 H 0.85964 0.00657 0.48139 0.0
H1237 H 0.86533 0.96387 0.46789 0.0
H1238 H 0.84532 0.97974 0.39409 0.0
H1239 H 0.83985 0.02264 0.40708 0.0
C1240 C 0.76051 0.10377 0.45868 0.0
C1241 C 0.75314 0.10267 0.43382 0.0
C1242 C 0.78268 0.09607 0.46575 0.0
C1243 C 0.79786 0.08727 0.44805 0.0
C1244 C 0.79069 0.08658 0.42323 0.0
C1245 C 0.76863 0.09427 0.41618 0.0
C1246 C 0.8209 0.07786 0.45515 0.0
C1247 C 0.82488 0.05367 0.44779 0.0
C1248 C 0.8389 0.09238 0.46869 0.0
C1249 C 0.83607 0.11829 0.47641 0.0
C1250 C 0.83074 0.1356 0.45905 0.0
C1251 C 0.82821 0.16001 0.46649 0.0
C1252 C 0.83117 0.16739 0.49123 0.0
C1253 C 0.83673 0.15037 0.50857 0.0
C1254 C 0.83924 0.12593 0.50122 0.0
C1255 C 0.92307 0.03318 0.44993 0.0
C1256 C 0.93369 0.0307 0.47319 0.0
C1257 C 0.90107 0.04292 0.44762 0.0
C1258 C 0.88906 0.05018 0.46851 0.0
C1259 C 0.89993 0.04864 0.49176 0.0
C1260 C 0.92209 0.03892 0.4941 0.0
C1261 C 0.86484 0.05858 0.46574 0.0
C1262 C 0.86061 0.08245 0.47399 0.0
C1263 C 0.84652 0.04377 0.45304 0.0
C1264 C 0.84948 0.01787 0.4452 0.0
C1265 C 0.85659 0.001 0.46226 0.0
C1266 C 0.85976 0.97675 0.4547 0.0
C1267 C 0.85572 0.96911 0.43014 0.0
C1268 C 0.84845 0.98568 0.41311 0.0
C1269 C 0.84528 0.00996 0.42056 0.0
H1270 H 0.8582 0.95033 0.42432 0.0
H1271 H 0.82923 0.1863 0.49695 0.0
H1272 H 0.25774 0.60449 0.1212 0.0
H1273 H 0.21706 0.59462 0.10599 0.0
H1274 H 0.24302 0.56529 0.03818 0.0
H1275 H 0.28406 0.57592 0.05321 0.0
H1276 H 0.20453 0.59109 0.02993 0.0
H1277 H 0.22397 0.52678 0.0829 0.0
H1278 H 0.23897 0.50972 0.12099 0.0
H1279 H 0.18539 0.54362 0.16173 0.0
H1280 H 0.17026 0.56115 0.12394 0.0
H1281 H 0.08918 0.52575 0.00262 0.0
H1282 H 0.13138 0.54009 0.00781 0.0
H1283 H 0.11806 0.56991 0.08006 0.0
H1284 H 0.07647 0.55482 0.07528 0.0
H1285 H 0.15183 0.54029 0.08242 0.0
H1286 H 0.13344 0.60639 0.03031 0.0
H1287 H 0.11839 0.62401 0.99254 0.0
H1288 H 0.16916 0.58713 0.95048 0.0
H1289 H 0.18432 0.56903 0.98797 0.0
C1290 C 0.25477 0.59583 0.10309 0.0
C1291 C 0.27398 0.59054 0.08853 0.0
C1292 C 0.23154 0.59025 0.09439 0.0
C1293 C 0.22701 0.57873 0.07115 0.0
C1294 C 0.24614 0.57406 0.05622 0.0
C1295 C 0.26951 0.58002 0.06482 0.0
C1296 C 0.20224 0.57093 0.06308 0.0
C1297 C 0.19304 0.57969 0.04119 0.0
C1298 C 0.18722 0.55625 0.07789 0.0
C1299 C 0.19607 0.54538 0.10059 0.0
C1300 C 0.21546 0.53068 0.1 0.0
C1301 C 0.22398 0.52093 0.12154 0.0
C1302 C 0.21316 0.52561 0.14377 0.0
C1303 C 0.19375 0.54 0.1445 0.0
C1304 C 0.18518 0.54982 0.12302 0.0
C1305 C 0.09528 0.53593 0.0193 0.0
C1306 C 0.07978 0.53904 0.03865 0.0
C1307 C 0.11933 0.54411 0.02227 0.0
C1308 C 0.12792 0.55595 0.04442 0.0
C1309 C 0.11192 0.5606 0.06293 0.0
C1310 C 0.08816 0.55205 0.06017 0.0
C1311 C 0.15373 0.56121 0.04973 0.0
C1312 C 0.16324 0.55167 0.07105 0.0
C1313 C 0.16887 0.57517 0.03441 0.0
C1314 C 0.15984 0.58615 0.0119 0.0
C1315 C 0.14126 0.60188 0.01298 0.0
C1316 C 0.13274 0.61199 0.99163 0.0
C1317 C 0.14276 0.60664 0.96911 0.0
C1318 C 0.16138 0.59123 0.96792 0.0
C1319 C 0.16996 0.58106 0.98922 0.0
H1320 H 0.13613 0.61447 0.9526 0.0
H1321 H 0.2198 0.51806 0.16043 0.0
H1322 H 0.23418 0.45948 0.59929 0.0
H1323 H 0.27404 0.47006 0.58532 0.0
H1324 H 0.25305 0.44262 0.51233 0.0
H1325 H 0.2126 0.43285 0.52585 0.0
H1326 H 0.29554 0.42454 0.5304 0.0
H1327 H 0.26329 0.50104 0.5192 0.0
H1328 H 0.24119 0.53711 0.52942 0.0
H1329 H 0.28982 0.5571 0.58984 0.0
H1330 H 0.31202 0.52092 0.58023 0.0
H1331 H 0.41454 0.4746 0.49807 0.0
H1332 H 0.3714 0.46417 0.49673 0.0
H1333 H 0.3685 0.48551 0.57334 0.0
H1334 H 0.41108 0.49563 0.575 0.0
H1335 H 0.33611 0.50796 0.54309 0.0
H1336 H 0.36392 0.42733 0.55743 0.0
H1337 H 0.38578 0.39111 0.54702 0.0
H1338 H 0.34522 0.37937 0.47945 0.0
H1339 H 0.32334 0.41576 0.48932 0.0
C1340 C 0.23773 0.4562 0.58011 0.0
C1341 C 0.22 0.44533 0.56373 0.0
C1342 C 0.26064 0.46212 0.57219 0.0
C1343 C 0.26646 0.45719 0.54778 0.0
C1344 C 0.2489 0.4465 0.53127 0.0
C1345 C 0.22583 0.44083 0.5391 0.0
C1346 C 0.29118 0.46253 0.54007 0.0
C1347 C 0.30433 0.44288 0.53259 0.0
C1348 C 0.30261 0.48641 0.54306 0.0
C1349 C 0.28923 0.50814 0.54908 0.0
C1350 C 0.26916 0.51299 0.53481 0.0
C1351 C 0.25663 0.53349 0.54046 0.0
C1352 C 0.26407 0.54937 0.56029 0.0
C1353 C 0.28407 0.54478 0.57449 0.0
C1354 C 0.29665 0.52429 0.56893 0.0
C1355 C 0.40472 0.47677 0.51468 0.0
C1356 C 0.41629 0.48609 0.5366 0.0
C1357 C 0.38011 0.47084 0.51386 0.0
C1358 C 0.36681 0.47429 0.53491 0.0
C1359 C 0.37843 0.48293 0.55686 0.0
C1360 C 0.40285 0.48863 0.55775 0.0
C1361 C 0.34063 0.46984 0.53443 0.0
C1362 C 0.32721 0.48972 0.54033 0.0
C1363 C 0.329 0.44621 0.52991 0.0
C1364 C 0.34226 0.42447 0.52393 0.0
C1365 C 0.35986 0.41719 0.54022 0.0
C1366 C 0.3722 0.39659 0.53446 0.0
C1367 C 0.36696 0.38301 0.51254 0.0
C1368 C 0.34931 0.38995 0.49638 0.0
C1369 C 0.33693 0.41056 0.50205 0.0
H1370 H 0.37652 0.36705 0.50812 0.0
H1371 H 0.25437 0.56524 0.56462 0.0
H1372 H 0.88305 0.74246 0.92096 0.0
H1373 H 0.89891 0.70657 0.93894 0.0
H1374 H 0.95809 0.75259 0.97081 0.0
H1375 H 0.94276 0.78837 0.95164 0.0
H1376 H 0.9738 0.71285 0.95391 0.0
H1377 H 0.90829 0.72804 0.0052 0.0
H1378 H 0.86671 0.73555 0.01352 0.0
H1379 H 0.84329 0.66549 0.97945 0.0
H1380 H 0.88468 0.65768 0.97064 0.0
H1381 H 0.01109 0.60604 0.01131 0.0
H1382 H 0.99695 0.64766 0.00943 0.0
H1383 H 0.93372 0.61746 0.96969 0.0
H1384 H 0.94748 0.57647 0.97206 0.0
H1385 H 0.92242 0.65311 0.9986 0.0
H1386 H 0.98544 0.64128 0.94104 0.0
H1387 H 0.0263 0.63334 0.92999 0.0
H1388 H 0.05351 0.69643 0.97416 0.0
H1389 H 0.0128 0.70455 0.9857 0.0
C1390 C 0.89937 0.74489 0.93192 0.0
C1391 C 0.91161 0.76818 0.93506 0.0
C1392 C 0.90838 0.72439 0.94236 0.0
C1393 C 0.92944 0.72684 0.95686 0.0
C1394 C 0.94175 0.75016 0.95987 0.0
C1395 C 0.933 0.7706 0.94895 0.0
C1396 C 0.93896 0.70495 0.96814 0.0
C1397 C 0.96266 0.7001 0.96415 0.0
C1398 C 0.92447 0.68798 0.98127 0.0
C1399 C 0.8996 0.69235 0.98716 0.0
C1400 C 0.89427 0.71427 0.99943 0.0
C1401 C 0.87073 0.71858 0.00422 0.0
C1402 C 0.85237 0.70103 0.99698 0.0
C1403 C 0.85752 0.67907 0.98504 0.0
C1404 C 0.88103 0.67467 0.98019 0.0
C1405 C 0.99386 0.60839 0.00295 0.0
C1406 C 0.98028 0.58819 0.9919 0.0
C1407 C 0.98589 0.63212 0.00161 0.0
C1408 C 0.96439 0.63581 0.98904 0.0
C1409 C 0.9503 0.61526 0.97948 0.0
C1410 C 0.95818 0.59179 0.98084 0.0
C1411 C 0.95699 0.66077 0.98378 0.0
C1412 C 0.93368 0.66621 0.98888 0.0
C1413 C 0.97175 0.67816 0.97149 0.0
C1414 C 0.99615 0.67332 0.96448 0.0
C1415 C 0.00017 0.65335 0.94852 0.0
C1416 C 0.02328 0.64883 0.94216 0.0
C1417 C 0.04249 0.66432 0.95144 0.0
C1418 C 0.03862 0.68441 0.96704 0.0
C1419 C 0.01554 0.68897 0.9735 0.0
H1420 H 0.06038 0.66079 0.9465 0.0
H1421 H 0.83416 0.70443 1.00065 0.0
H1422 H 0.38034 0.76608 0.10227 0.0
H1423 H 0.38706 0.80996 0.09533 0.0
H1424 H 0.46125 0.80724 0.11479 0.0
H1425 H 0.45475 0.76323 0.12149 0.0
H1426 H 0.44232 0.84847 0.13518 0.0
H1427 H 0.44478 0.80591 0.05637 0.0
H1428 H 0.42952 0.7776 0.02238 0.0
H1429 H 0.369 0.81975 0.01294 0.0
H1430 H 0.38378 0.84815 0.04713 0.0
H1431 H 0.50871 0.92965 0.06407 0.0
H1432 H 0.48762 0.90303 0.0922 0.0
H1433 H 0.42078 0.92238 0.06125 0.0
H1434 H 0.44219 0.94876 0.0326 0.0
H1435 H 0.42725 0.87641 0.05124 0.0
H1436 H 0.43251 0.92525 0.12499 0.0
H1437 H 0.4512 0.95358 0.15729 0.0
H1438 H 0.50052 0.90042 0.17518 0.0
H1439 H 0.48239 0.87189 0.14274 0.0
C1440 C 0.39814 0.77476 0.10484 0.0
C1441 C 0.41707 0.76114 0.1122 0.0
C1442 C 0.40189 0.79987 0.10111 0.0
C1443 C 0.42464 0.81179 0.10456 0.0
C1444 C 0.44351 0.79838 0.11227 0.0
C1445 C 0.43978 0.77325 0.116 0.0
C1446 C 0.42912 0.83791 0.09868 0.0
C1447 C 0.43909 0.85473 0.11686 0.0
C1448 C 0.4242 0.84606 0.07496 0.0
C1449 C 0.4152 0.82893 0.05452 0.0
C1450 C 0.42809 0.80899 0.04721 0.0
C1451 C 0.41956 0.79296 0.02788 0.0
C1452 C 0.39825 0.79681 0.01557 0.0
C1453 C 0.38547 0.81675 0.02254 0.0
C1454 C 0.39391 0.83281 0.04189 0.0
C1455 C 0.48953 0.92947 0.06443 0.0
C1456 C 0.47698 0.94109 0.04631 0.0
C1457 C 0.4774 0.91419 0.08054 0.0
C1458 C 0.45255 0.91042 0.07868 0.0
C1459 C 0.43995 0.92496 0.06295 0.0
C1460 C 0.45216 0.94021 0.04674 0.0
C1461 C 0.44101 0.88728 0.0876 0.0
C1462 C 0.42979 0.87069 0.06988 0.0
C1463 C 0.44515 0.87938 0.11163 0.0
C1464 C 0.45607 0.89642 0.13133 0.0
C1465 C 0.44743 0.91964 0.13569 0.0
C1466 C 0.45792 0.93573 0.15406 0.0
C1467 C 0.47704 0.92881 0.16827 0.0
C1468 C 0.48568 0.90575 0.16417 0.0
C1469 C 0.47527 0.88958 0.14583 0.0
H1470 H 0.48515 0.94131 0.18246 0.0
H1471 H 0.39168 0.7844 1.00059 0.0
H1472 H 0.05784 0.27133 0.59548 0.0
H1473 H 0.04504 0.23028 0.57869 0.0
H1474 H 0.03242 0.25986 0.50783 0.0
H1475 H 0.0451 0.3013 0.52461 0.0
H1476 H 0.99576 0.22222 0.5241 0.0
H1477 H 0.08026 0.23499 0.51254 0.0
H1478 H 0.1214 0.24771 0.52634 0.0
H1479 H 0.11761 0.19348 0.58132 0.0
H1480 H 0.07633 0.18066 0.56807 0.0
H1481 H 0.02919 0.08747 0.48997 0.0
H1482 H 0.0304 0.13212 0.48434 0.0
H1483 H 0.99691 0.14183 0.55371 0.0
H1484 H 0.99606 0.09773 0.55948 0.0
H1485 H 0.05688 0.16153 0.52631 0.0
H1486 H 0.96634 0.17458 0.54868 0.0
H1487 H 0.92477 0.16092 0.53695 0.0
H1488 H 0.94166 0.16345 0.46081 0.0
H1489 H 0.9834 0.17667 0.47221 0.0
C1490 C 0.05192 0.26923 0.57644 0.0
C1491 C 0.05249 0.28955 0.56136 0.0
C1492 C 0.04474 0.24574 0.56685 0.0
C1493 C 0.03795 0.24209 0.54202 0.0
C1494 C 0.03762 0.26238 0.52705 0.0
C1495 C 0.045 0.28594 0.53661 0.0
C1496 C 0.03261 0.21679 0.5317 0.0
C1497 C 0.00922 0.20906 0.52415 0.0
C1498 C 0.05016 0.19963 0.5317 0.0
C1499 C 0.07517 0.20693 0.53935 0.0
C1500 C 0.08817 0.22585 0.52764 0.0
C1501 C 0.11151 0.23308 0.53536 0.0
C1502 C 0.1221 0.22142 0.5547 0.0
C1503 C 0.10939 0.20248 0.56632 0.0
C1504 C 0.08603 0.19519 0.55869 0.0
C1505 C 0.02107 0.0991 0.50335 0.0
C1506 C 0.0124 0.08936 0.52507 0.0
C1507 C 0.02187 0.12452 0.5002 0.0
C1508 C 0.0135 0.14018 0.51851 0.0
C1509 C 0.00294 0.13004 0.53912 0.0
C1510 C 0.0025 0.10486 0.54243 0.0
C1511 C 0.02002 0.16691 0.51916 0.0
C1512 C 0.04365 0.1749 0.52532 0.0
C1513 C 0.00276 0.18422 0.51807 0.0
C1514 C 0.97781 0.17653 0.51126 0.0
C1515 C 0.96111 0.17219 0.52946 0.0
C1516 C 0.93758 0.16446 0.52288 0.0
C1517 C 0.93057 0.16131 0.49815 0.0
C1518 C 0.94711 0.16582 0.47995 0.0
C1519 C 0.97071 0.17333 0.48646 0.0
H1520 H 0.91234 0.1554 0.49308 0.0
H1521 H 0.14017 0.22706 0.56066 0.0
H1522 H 0.62189 0.26509 0.4501 0.0
H1523 H 0.60386 0.30111 0.46714 0.0
H1524 H 0.53488 0.2615 0.46116 0.0
H1525 H 0.55278 0.22541 0.44427 0.0
H1526 H 0.53509 0.30619 0.44137 0.0
H1527 H 0.56452 0.27383 0.51704 0.0
H1528 H 0.5958 0.2598 0.54433 0.0
H1529 H 0.63435 0.33047 0.54244 0.0
H1530 H 0.60347 0.34481 0.51486 0.0
H1531 H 0.47158 0.39858 0.4889 0.0
H1532 H 0.48778 0.35823 0.48801 0.0
H1533 H 0.55761 0.39292 0.50568 0.0
H1534 H 0.54096 0.43294 0.50859 0.0
H1535 H 0.55703 0.34973 0.52103 0.0
H1536 H 0.5345 0.38189 0.44433 0.0
H1537 H 0.50776 0.39863 0.41381 0.0
H1538 H 0.4622 0.33205 0.41315 0.0
H1539 H 0.48851 0.31505 0.44393 0.0
C1540 C 0.60293 0.26392 0.45278 0.0
C1541 C 0.58876 0.24238 0.44575 0.0
C1542 C 0.59265 0.28452 0.46254 0.0
C1543 C 0.56804 0.28393 0.46564 0.0
C1544 C 0.55391 0.26237 0.45893 0.0
C1545 C 0.56415 0.2418 0.44915 0.0
C1546 C 0.55671 0.30618 0.47439 0.0
C1547 C 0.53956 0.31544 0.45901 0.0
C1548 C 0.56336 0.3189 0.49689 0.0
C1549 C 0.58175 0.31033 0.51374 0.0
C1550 C 0.57973 0.28633 0.52232 0.0
C1551 C 0.59739 0.27833 0.53786 0.0
C1552 C 0.61707 0.29422 0.54508 0.0
C1553 C 0.61911 0.31817 0.53683 0.0
C1554 C 0.60152 0.32625 0.52127 0.0
C1555 C 0.49014 0.39734 0.49381 0.0
C1556 C 0.50504 0.41869 0.49894 0.0
C1557 C 0.4995 0.37436 0.4929 0.0
C1558 C 0.52413 0.37258 0.49573 0.0
C1559 C 0.53862 0.39373 0.50318 0.0
C1560 C 0.52908 0.41662 0.50498 0.0
C1561 C 0.53504 0.34955 0.48815 0.0
C1562 C 0.55228 0.3403 0.50356 0.0
C1563 C 0.52911 0.33721 0.46523 0.0
C1564 C 0.51332 0.34732 0.44663 0.0
C1565 C 0.5187 0.37089 0.43778 0.0
C1566 C 0.50363 0.38041 0.42043 0.0
C1567 C 0.48326 0.36644 0.41159 0.0
C1568 C 0.47795 0.34287 0.42004 0.0
C1569 C 0.49294 0.33328 0.43744 0.0
H1570 H 0.47161 0.37384 0.39816 0.0
H1571 H 0.63072 0.28798 0.55709 0.0
loop_
_geom_bond_atom_site_label_1
_geom_bond_atom_site_label_2
_geom_bond_distance
_geom_bond_site_symmetry_2
_ccdc_geom_bond_type
C0 C1 1.384 . S
C0 H13 0.947 . S
C0 C35 1.382 . S
C1 C0 1.384 . S
C1 C2 1.378 . S
C2 C1 1.378 . S
C2 C3 1.378 . S
C2 H14 0.952 . S
C3 C2 1.378 . S
C3 H15 0.950 . S
C3 C34 1.383 . S
H4 C23 0.947 . S
H5 C24 0.946 . S
H6 C26 0.953 . S
H7 C27 0.945 . S
H8 C29 0.952 . S
H9 C30 0.949 . S
H10 C32 0.950 . S
H11 C33 0.948 . S
H12 C35 0.951 . S
H13 C0 0.947 . S
H14 C2 0.952 . S
H15 C3 0.950 . S
N16 C19 1.382 . S
N16 C21 1.363 . S
N17 C19 1.371 . S
N17 C20 1.372 . S
N18 C20 1.361 . S
N18 C21 1.377 . S
C19 N16 1.382 . S
C19 N17 1.371 . S
C19 C22 1.480 . S
C20 N17 1.372 . S
C20 N18 1.361 . S
C20 C28 1.457 . S
C21 N16 1.363 . S
C21 N18 1.377 . S
C21 C34 1.479 . S
C22 C19 1.480 . S
C22 C23 1.383 . S
C22 C27 1.385 . S
C23 H4 0.947 . S
C23 C22 1.383 . S
C23 C24 1.388 . S
C24 H5 0.946 . S
C24 C23 1.388 . S
C24 C25 1.384 . S
C25 C24 1.384 . S
C25 C26 1.377 . S
C26 H6 0.953 . S
C26 C25 1.377 . S
C26 C27 1.369 . S
C27 H7 0.945 . S
C27 C22 1.385 . S
C27 C26 1.369 . S
C28 C20 1.457 . S
C28 C29 1.372 . S
C28 C33 1.364 . S
C29 H8 0.952 . S
C29 C28 1.372 . S
C29 C30 1.389 . S
C30 H9 0.949 . S
C30 C29 1.389 . S
C30 C31 1.387 . S
C31 C30 1.387 . S
C31 C32 1.372 . S
C32 H10 0.950 . S
C32 C31 1.372 . S
C32 C33 1.379 . S
C33 H11 0.948 . S
C33 C28 1.364 . S
C33 C32 1.379 . S
C34 C3 1.383 . S
C34 C21 1.479 . S
C34 C35 1.398 . S
C35 C0 1.382 . S
C35 H12 0.951 . S
C35 C34 1.398 . S
C36 C37 1.384 . S
C36 H49 0.947 . S
C36 C71 1.382 . S
C37 C36 1.384 . S
C37 C38 1.378 . S
C38 C37 1.378 . S
C38 C39 1.378 . S
C38 H50 0.952 . S
C39 C38 1.378 . S
C39 H51 0.950 . S
C39 C70 1.383 . S
H40 C59 0.947 . S
H41 C60 0.946 . S
H42 C62 0.953 . S
H43 C63 0.945 . S
H44 C65 0.952 . S
H45 C66 0.949 . S
H46 C68 0.950 . S
H47 C69 0.948 . S
H48 C71 0.951 . S
H49 C36 0.947 . S
H50 C38 0.952 . S
H51 C39 0.950 . S
N52 C55 1.382 . S
N52 C57 1.363 . S
N53 C55 1.371 . S
N53 C56 1.372 . S
N54 C56 1.361 . S
N54 C57 1.377 . S
C55 N52 1.382 . S
C55 N53 1.371 . S
C55 C58 1.480 . S
C56 N53 1.372 . S
C56 N54 1.361 . S
C56 C64 1.457 . S
C57 N52 1.363 . S
C57 N54 1.377 . S
C57 C70 1.479 . S
C58 C55 1.480 . S
C58 C59 1.383 . S
C58 C63 1.385 . S
C59 H40 0.947 . S
C59 C58 1.383 . S
C59 C60 1.388 . S
C60 H41 0.946 . S
C60 C59 1.388 . S
C60 C61 1.384 . S
C61 C60 1.384 . S
C61 C62 1.377 . S
C62 H42 0.953 . S
C62 C61 1.377 . S
C62 C63 1.369 . S
C63 H43 0.945 . S
C63 C58 1.385 . S
C63 C62 1.369 . S
C64 C56 1.457 . S
C64 C65 1.372 . S
C64 C69 1.364 . S
C65 H44 0.952 . S
C65 C64 1.372 . S
C65 C66 1.389 . S
C66 H45 0.949 . S
C66 C65 1.389 . S
C66 C67 1.387 . S
C67 C66 1.387 . S
C67 C68 1.372 . S
C68 H46 0.950 . S
C68 C67 1.372 . S
C68 C69 1.379 . S
C69 H47 0.948 . S
C69 C64 1.364 . S
C69 C68 1.379 . S
C70 C39 1.383 . S
C70 C57 1.479 . S
C70 C71 1.398 . S
C71 C36 1.382 . S
C71 H48 0.951 . S
C71 C70 1.398 . S
C72 C73 1.384 . S
C72 H85 0.947 . S
C72 C107 1.382 . S
C73 C72 1.384 . S
C73 C74 1.378 . S
C74 C73 1.378 . S
C74 C75 1.378 . S
C74 H86 0.952 . S
C75 C74 1.378 . S
C75 H87 0.950 . S
C75 C106 1.383 . S
H76 C95 0.947 . S
H77 C96 0.946 . S
H78 C98 0.953 . S
H79 C99 0.945 . S
H80 C101 0.952 . S
H81 C102 0.949 . S
H82 C104 0.950 . S
H83 C105 0.948 . S
H84 C107 0.951 . S
H85 C72 0.947 . S
H86 C74 0.952 . S
H87 C75 0.950 . S
N88 C91 1.382 . S
N88 C93 1.363 . S
N89 C91 1.371 . S
N89 C92 1.372 . S
N90 C92 1.361 . S
N90 C93 1.377 . S
C91 N88 1.382 . S
C91 N89 1.371 . S
C91 C94 1.480 . S
C92 N89 1.372 . S
C92 N90 1.361 . S
C92 C100 1.457 . S
C93 N88 1.363 . S
C93 N90 1.377 . S
C93 C106 1.479 . S
C94 C91 1.480 . S
C94 C95 1.383 . S
C94 C99 1.385 . S
C95 H76 0.947 . S
C95 C94 1.383 . S
C95 C96 1.388 . S
C96 H77 0.946 . S
C96 C95 1.388 . S
C96 C97 1.384 . S
C97 C96 1.384 . S
C97 C98 1.377 . S
C98 H78 0.953 . S
C98 C97 1.377 . S
C98 C99 1.369 . S
C99 H79 0.945 . S
C99 C94 1.385 . S
C99 C98 1.369 . S
C100 C92 1.457 . S
C100 C101 1.372 . S
C100 C105 1.364 . S
C101 H80 0.952 . S
C101 C100 1.372 . S
C101 C102 1.389 . S
C102 H81 0.949 . S
C102 C101 1.389 . S
C102 C103 1.387 . S
C103 C102 1.387 . S
C103 C104 1.372 . S
C104 H82 0.950 . S
C104 C103 1.372 . S
C104 C105 1.379 . S
C105 H83 0.948 . S
C105 C100 1.364 . S
C105 C104 1.379 . S
C106 C75 1.383 . S
C106 C93 1.479 . S
C106 C107 1.398 . S
C107 C72 1.382 . S
C107 H84 0.951 . S
C107 C106 1.398 . S
C108 C109 1.384 . S
C108 H121 0.947 . S
C108 C143 1.382 . S
C109 C108 1.384 . S
C109 C110 1.378 . S
C110 C109 1.378 . S
C110 C111 1.378 . S
C110 H122 0.952 . S
C111 C110 1.378 . S
C111 H123 0.950 . S
C111 C142 1.383 . S
H112 C131 0.947 . S
H113 C132 0.946 . S
H114 C134 0.953 . S
H115 C135 0.945 . S
H116 C137 0.952 . S
H117 C138 0.949 . S
H118 C140 0.950 . S
H119 C141 0.948 . S
H120 C143 0.951 . S
H121 C108 0.947 . S
H122 C110 0.952 . S
H123 C111 0.950 . S
N124 C127 1.382 . S
N124 C129 1.363 . S
N125 C127 1.371 . S
N125 C128 1.372 . S
N126 C128 1.361 . S
N126 C129 1.377 . S
C127 N124 1.382 . S
C127 N125 1.371 . S
C127 C130 1.480 . S
C128 N125 1.372 . S
C128 N126 1.361 . S
C128 C136 1.457 . S
C129 N124 1.363 . S
C129 N126 1.377 . S
C129 C142 1.479 . S
C130 C127 1.480 . S
C130 C131 1.383 . S
C130 C135 1.385 . S
C131 H112 0.947 . S
C131 C130 1.383 . S
C131 C132 1.388 . S
C132 H113 0.946 . S
C132 C131 1.388 . S
C132 C133 1.384 . S
C133 C132 1.384 . S
C133 C134 1.377 . S
C134 H114 0.953 . S
C134 C133 1.377 . S
C134 C135 1.369 . S
C135 H115 0.945 . S
C135 C130 1.385 . S
C135 C134 1.369 . S
C136 C128 1.457 . S
C136 C137 1.372 . S
C136 C141 1.364 . S
C137 H116 0.952 . S
C137 C136 1.372 . S
C137 C138 1.389 . S
C138 H117 0.949 . S
C138 C137 1.389 . S
C138 C139 1.387 . S
C139 C138 1.387 . S
C139 C140 1.372 . S
C140 H118 0.950 . S
C140 C139 1.372 . S
C140 C141 1.379 . S
C141 H119 0.948 . S
C141 C136 1.364 . S
C141 C140 1.379 . S
C142 C111 1.383 . S
C142 C129 1.479 . S
C142 C143 1.398 . S
C143 C108 1.382 . S
C143 H120 0.951 . S
C143 C142 1.398 . S
C144 C145 1.384 . S
C144 H157 0.947 . S
C144 C179 1.382 . S
C145 C144 1.384 . S
C145 C146 1.378 . S
C146 C145 1.378 . S
C146 C147 1.378 . S
C146 H158 0.952 . S
C147 C146 1.378 . S
C147 H159 0.950 . S
C147 C178 1.383 . S
H148 C167 0.947 . S
H149 C168 0.946 . S
H150 C170 0.953 . S
H151 C171 0.945 . S
H152 C173 0.952 . S
H153 C174 0.949 . S
H154 C176 0.950 . S
H155 C177 0.948 . S
H156 C179 0.951 . S
H157 C144 0.947 . S
H158 C146 0.952 . S
H159 C147 0.950 . S
N160 C163 1.382 . S
N160 C165 1.363 . S
N161 C163 1.371 . S
N161 C164 1.372 . S
N162 C164 1.361 . S
N162 C165 1.377 . S
C163 N160 1.382 . S
C163 N161 1.371 . S
C163 C166 1.480 . S
C164 N161 1.372 . S
C164 N162 1.361 . S
C164 C172 1.457 . S
C165 N160 1.363 . S
C165 N162 1.377 . S
C165 C178 1.479 . S
C166 C163 1.480 . S
C166 C167 1.383 . S
C166 C171 1.385 . S
C167 H148 0.947 . S
C167 C166 1.383 . S
C167 C168 1.388 . S
C168 H149 0.946 . S
C168 C167 1.388 . S
C168 C169 1.384 . S
C169 C168 1.384 . S
C169 C170 1.377 . S
C170 H150 0.953 . S
C170 C169 1.377 . S
C170 C171 1.369 . S
C171 H151 0.945 . S
C171 C166 1.385 . S
C171 C170 1.369 . S
C172 C164 1.457 . S
C172 C173 1.372 . S
C172 C177 1.364 . S
C173 H152 0.952 . S
C173 C172 1.372 . S
C173 C174 1.389 . S
C174 H153 0.949 . S
C174 C173 1.389 . S
C174 C175 1.387 . S
C175 C174 1.387 . S
C175 C176 1.372 . S
C176 H154 0.950 . S
C176 C175 1.372 . S
C176 C177 1.379 . S
C177 H155 0.948 . S
C177 C172 1.364 . S
C177 C176 1.379 . S
C178 C147 1.383 . S
C178 C165 1.479 . S
C178 C179 1.398 . S
C179 C144 1.382 . S
C179 H156 0.951 . S
C179 C178 1.398 . S
C180 C181 1.384 . S
C180 H193 0.947 . S
C180 C215 1.382 . S
C181 C180 1.384 . S
C181 C182 1.378 . S
C182 C181 1.378 . S
C182 C183 1.378 . S
C182 H194 0.952 . S
C183 C182 1.378 . S
C183 H195 0.950 . S
C183 C214 1.383 . S
H184 C203 0.947 . S
H185 C204 0.946 . S
H186 C206 0.953 . S
H187 C207 0.945 . S
H188 C209 0.952 . S
H189 C210 0.949 . S
H190 C212 0.950 . S
H191 C213 0.948 . S
H192 C215 0.951 . S
H193 C180 0.947 . S
H194 C182 0.952 . S
H195 C183 0.950 . S
N196 C199 1.382 . S
N196 C201 1.363 . S
N197 C199 1.371 . S
N197 C200 1.372 . S
N198 C200 1.361 . S
N198 C201 1.377 . S
C199 N196 1.382 . S
C199 N197 1.371 . S
C199 C202 1.480 . S
C200 N197 1.372 . S
C200 N198 1.361 . S
C200 C208 1.457 . S
C201 N196 1.363 . S
C201 N198 1.377 . S
C201 C214 1.479 . S
C202 C199 1.480 . S
C202 C203 1.383 . S
C202 C207 1.385 . S
C203 H184 0.947 . S
C203 C202 1.383 . S
C203 C204 1.388 . S
C204 H185 0.946 . S
C204 C203 1.388 . S
C204 C205 1.384 . S
C205 C204 1.384 . S
C205 C206 1.377 . S
C206 H186 0.953 . S
C206 C205 1.377 . S
C206 C207 1.369 . S
C207 H187 0.945 . S
C207 C202 1.385 . S
C207 C206 1.369 . S
C208 C200 1.457 . S
C208 C209 1.372 . S
C208 C213 1.364 . S
C209 H188 0.952 . S
C209 C208 1.372 . S
C209 C210 1.389 . S
C210 H189 0.949 . S
C210 C209 1.389 . S
C210 C211 1.387 . S
C211 C210 1.387 . S
C211 C212 1.372 . S
C212 H190 0.950 . S
C212 C211 1.372 . S
C212 C213 1.379 . S
C213 H191 0.948 . S
C213 C208 1.364 . S
C213 C212 1.379 . S
C214 C183 1.383 . S
C214 C201 1.479 . S
C214 C215 1.398 . S
C215 C180 1.382 . S
C215 H192 0.951 . S
C215 C214 1.398 . S
C216 C217 1.384 . S
C216 H229 0.947 . S
C216 C251 1.382 . S
C217 C216 1.384 . S
C217 C218 1.378 . S
C218 C217 1.378 . S
C218 C219 1.378 . S
C218 H230 0.952 . S
C219 C218 1.378 . S
C219 H231 0.950 . S
C219 C250 1.383 . S
H220 C239 0.947 . S
H221 C240 0.946 . S
H222 C242 0.953 . S
H223 C243 0.945 . S
H224 C245 0.952 . S
H225 C246 0.949 . S
H226 C248 0.950 . S
H227 C249 0.948 . S
H228 C251 0.951 . S
H229 C216 0.947 . S
H230 C218 0.952 . S
H231 C219 0.950 . S
N232 C235 1.382 . S
N232 C237 1.363 . S
N233 C235 1.371 . S
N233 C236 1.372 . S
N234 C236 1.361 . S
N234 C237 1.377 . S
C235 N232 1.382 . S
C235 N233 1.371 . S
C235 C238 1.480 . S
C236 N233 1.372 . S
C236 N234 1.361 . S
C236 C244 1.457 . S
C237 N232 1.363 . S
C237 N234 1.377 . S
C237 C250 1.479 . S
C238 C235 1.480 . S
C238 C239 1.383 . S
C238 C243 1.385 . S
C239 H220 0.947 . S
C239 C238 1.383 . S
C239 C240 1.388 . S
C240 H221 0.946 . S
C240 C239 1.388 . S
C240 C241 1.384 . S
C241 C240 1.384 . S
C241 C242 1.377 . S
C242 H222 0.953 . S
C242 C241 1.377 . S
C242 C243 1.369 . S
C243 H223 0.945 . S
C243 C238 1.385 . S
C243 C242 1.369 . S
C244 C236 1.457 . S
C244 C245 1.372 . S
C244 C249 1.364 . S
C245 H224 0.952 . S
C245 C244 1.372 . S
C245 C246 1.389 . S
C246 H225 0.949 . S
C246 C245 1.389 . S
C246 C247 1.387 . S
C247 C246 1.387 . S
C247 C248 1.372 . S
C248 H226 0.950 . S
C248 C247 1.372 . S
C248 C249 1.379 . S
C249 H227 0.948 . S
C249 C244 1.364 . S
C249 C248 1.379 . S
C250 C219 1.383 . S
C250 C237 1.479 . S
C250 C251 1.398 . S
C251 C216 1.382 . S
C251 H228 0.951 . S
C251 C250 1.398 . S
C252 C253 1.384 . S
C252 H265 0.947 . S
C252 C287 1.382 . S
C253 C252 1.384 . S
C253 C254 1.378 . S
C254 C253 1.378 . S
C254 C255 1.378 . S
C254 H266 0.952 . S
C255 C254 1.378 . S
C255 H267 0.950 . S
C255 C286 1.383 . S
H256 C275 0.947 . S
H257 C276 0.946 . S
H258 C278 0.953 . S
H259 C279 0.945 . S
H260 C281 0.952 . S
H261 C282 0.949 . S
H262 C284 0.950 . S
H263 C285 0.948 . S
H264 C287 0.951 . S
H265 C252 0.947 . S
H266 C254 0.952 . S
H267 C255 0.950 . S
N268 C271 1.382 . S
N268 C273 1.363 . S
N269 C271 1.371 . S
N269 C272 1.372 . S
N270 C272 1.361 . S
N270 C273 1.377 . S
C271 N268 1.382 . S
C271 N269 1.371 . S
C271 C274 1.480 . S
C272 N269 1.372 . S
C272 N270 1.361 . S
C272 C280 1.457 . S
C273 N268 1.363 . S
C273 N270 1.377 . S
C273 C286 1.479 . S
C274 C271 1.480 . S
C274 C275 1.383 . S
C274 C279 1.385 . S
C275 H256 0.947 . S
C275 C274 1.383 . S
C275 C276 1.388 . S
C276 H257 0.946 . S
C276 C275 1.388 . S
C276 C277 1.384 . S
C277 C276 1.384 . S
C277 C278 1.377 . S
C278 H258 0.953 . S
C278 C277 1.377 . S
C278 C279 1.369 . S
C279 H259 0.945 . S
C279 C274 1.385 . S
C279 C278 1.369 . S
C280 C272 1.457 . S
C280 C281 1.372 . S
C280 C285 1.364 . S
C281 H260 0.952 . S
C281 C280 1.372 . S
C281 C282 1.389 . S
C282 H261 0.949 . S
C282 C281 1.389 . S
C282 C283 1.387 . S
C283 C282 1.387 . S
C283 C284 1.372 . S
C284 H262 0.950 . S
C284 C283 1.372 . S
C284 C285 1.379 . S
C285 H263 0.948 . S
C285 C280 1.364 . S
C285 C284 1.379 . S
C286 C255 1.383 . S
C286 C273 1.479 . S
C286 C287 1.398 . S
C287 C252 1.382 . S
C287 H264 0.951 . S
C287 C286 1.398 . S
O288 Mg289 1.990 . S
O288 C302 1.253 1_445 S
Mg289 O288 1.990 . S
Mg289 O292 2.180 . S
Mg289 O293 2.117 . S
Mg289 O307 2.030 1_545 S
O290 Mg291 2.072 1_665 S
O290 C302 1.260 . S
Mg291 O290 2.072 1_445 S
Mg291 O292 2.099 . S
Mg291 O294 2.079 . S
Mg291 O295 2.072 1_455 S
Mg291 O297 2.099 1_445 S
Mg291 O308 2.079 1_545 S
O292 Mg289 2.180 . S
O292 Mg291 2.099 . S
O292 C303 1.279 . S
O293 Mg289 2.117 . S
O293 C303 1.250 . S
O294 Mg291 2.079 . S
O294 C304 1.264 . S
O295 Mg291 2.072 1_655 S
O295 C305 1.260 . S
Mg296 O297 2.180 . S
Mg296 O298 2.030 1_565 S
Mg296 O299 1.990 1_565 S
Mg296 O300 2.117 . S
O297 Mg291 2.099 1_665 S
O297 Mg296 2.180 . S
O297 C306 1.279 . S
O298 Mg296 2.030 1_545 S
O298 C304 1.248 1_655 S
O299 Mg296 1.990 1_545 S
O299 C305 1.253 . S
O300 Mg296 2.117 . S
O300 C306 1.250 . S
C301 O307 1.248 . S
C301 O308 1.264 . S
C302 O288 1.253 1_665 S
C302 O290 1.260 . S
C303 O292 1.279 . S
C303 O293 1.250 . S
C304 O294 1.264 . S
C304 O298 1.248 1_455 S
C305 O295 1.260 . S
C305 O299 1.253 . S
C306 O297 1.279 . S
C306 O300 1.250 . S
O307 Mg289 2.030 1_565 S
O307 C301 1.248 . S
O308 Mg291 2.079 1_565 S
O308 C301 1.264 . S
O309 Mg310 1.990 . S
O309 C323 1.253 . S
Mg310 O309 1.990 . S
Mg310 O313 2.169 1_554 S
Mg310 O314 2.117 1_554 S
Mg310 O328 2.030 . S
O311 Mg312 2.072 . S
O311 C323 1.260 . S
Mg312 O311 2.072 . S
Mg312 O313 2.096 1_554 S
Mg312 O315 2.079 1_554 S
Mg312 O316 2.072 1_554 S
Mg312 O318 2.099 1_545 S
Mg312 O329 2.079 . S
O313 Mg310 2.169 1_556 S
O313 Mg312 2.096 1_556 S
O313 C324 1.290 . S
O314 Mg310 2.117 1_556 S
O314 C324 1.250 . S
O315 Mg312 2.079 1_556 S
O315 C325 1.264 1_545 S
O316 Mg312 2.072 1_556 S
O316 C326 1.260 1_545 S
Mg317 O318 2.180 1_556 S
Mg317 O319 2.030 . S
Mg317 O320 1.990 . S
Mg317 O321 2.117 1_556 S
O318 Mg312 2.099 1_565 S
O318 Mg317 2.180 1_554 S
O318 C327 1.279 . S
O319 Mg317 2.030 . S
O319 C325 1.248 . S
O320 Mg317 1.990 . S
O320 C326 1.253 . S
O321 Mg317 2.117 1_554 S
O321 C327 1.250 . S
C322 O328 1.248 . S
C322 O329 1.264 . S
C323 O309 1.253 . S
C323 O311 1.260 . S
C324 O313 1.290 . S
C324 O314 1.250 . S
C325 O315 1.264 1_565 S
C325 O319 1.248 . S
C326 O316 1.260 1_565 S
C326 O320 1.253 . S
C327 O318 1.279 . S
C327 O321 1.250 . S
O328 Mg310 2.030 . S
O328 C322 1.248 . S
O329 Mg312 2.079 . S
O329 C322 1.264 . S
O330 Mg331 1.990 . S
O330 C344 1.253 . S
Mg331 O330 1.990 . S
Mg331 O334 2.180 . S
Mg331 O335 2.117 . S
Mg331 O349 2.030 . S
O332 Mg333 2.072 . S
O332 C344 1.260 . S
Mg333 O332 2.072 . S
Mg333 O334 2.099 . S
Mg333 O336 2.079 . S
Mg333 O337 2.072 . S
Mg333 O339 2.099 . S
Mg333 O350 2.079 . S
O334 Mg331 2.180 . S
O334 Mg333 2.099 . S
O334 C345 1.279 . S
O335 Mg331 2.117 . S
O335 C345 1.250 . S
O336 Mg333 2.079 . S
O336 C346 1.264 . S
O337 Mg333 2.072 . S
O337 C347 1.260 . S
Mg338 O339 2.180 . S
Mg338 O340 2.030 . S
Mg338 O341 1.990 . S
Mg338 O342 2.117 . S
O339 Mg333 2.099 . S
O339 Mg338 2.180 . S
O339 C348 1.279 . S
O340 Mg338 2.030 . S
O340 C346 1.248 . S
O341 Mg338 1.990 . S
O341 C347 1.253 . S
O342 Mg338 2.117 . S
O342 C348 1.250 . S
C343 O349 1.248 . S
C343 O350 1.264 . S
C344 O330 1.253 . S
C344 O332 1.260 . S
C345 O334 1.279 . S
C345 O335 1.250 . S
C346 O336 1.264 . S
C346 O340 1.248 . S
C347 O337 1.260 . S
C347 O341 1.253 . S
C348 O339 1.279 . S
C348 O342 1.250 . S
O349 Mg331 2.030 . S
O349 C343 1.248 . S
O350 Mg333 2.079 . S
O350 C343 1.264 . S
O351 Mg352 1.990 . S
O351 C365 1.253 . S
Mg352 O351 1.990 . S
Mg352 O355 2.180 1_455 S
Mg352 O356 2.117 1_455 S
Mg352 O370 2.030 . S
O353 Mg354 2.072 . S
O353 C365 1.260 . S
Mg354 O353 2.072 . S
Mg354 O355 2.099 1_455 S
Mg354 O357 2.079 1_454 S
Mg354 O358 2.072 1_455 S
Mg354 O360 2.099 1_554 S
Mg354 O371 2.079 . S
O355 Mg352 2.180 1_655 S
O355 Mg354 2.099 1_655 S
O355 C366 1.279 . S
O356 Mg352 2.117 1_655 S
O356 C366 1.250 . S
O357 Mg354 2.079 1_656 S
O357 C367 1.264 . S
O358 Mg354 2.072 1_655 S
O358 C368 1.260 1_554 S
Mg359 O360 2.180 1_655 S
Mg359 O361 2.030 . S
Mg359 O362 1.990 . S
Mg359 O363 2.126 . S
O360 Mg354 2.099 1_556 S
O360 Mg359 2.180 1_455 S
O360 C369 1.279 . S
O361 Mg359 2.030 . S
O361 C367 1.248 . S
O362 Mg359 1.990 . S
O362 C368 1.253 . S
O363 Mg359 2.126 . S
O363 C369 1.242 1_655 S
C364 O370 1.248 . S
C364 O371 1.264 . S
C365 O351 1.253 . S
C365 O353 1.260 . S
C366 O355 1.279 . S
C366 O356 1.250 . S
C367 O357 1.264 . S
C367 O361 1.248 . S
C368 O358 1.260 1_556 S
C368 O362 1.253 . S
C369 O360 1.279 . S
C369 O363 1.242 1_455 S
O370 Mg352 2.030 . S
O370 C364 1.248 . S
O371 Mg354 2.079 . S
O371 C364 1.264 . S
H372 C390 0.951 . S
H373 C392 0.951 . S
H374 C394 0.950 . S
H375 C395 0.950 . S
H376 C397 0.950 . S
H377 C400 0.950 . S
H378 C401 0.950 . S
H379 C403 0.950 . S
H380 C404 0.950 . S
H381 C405 0.951 . S
H382 C407 0.951 . S
H383 C409 0.950 . S
H384 C410 0.950 . S
H385 C412 0.950 . S
H386 C415 0.950 . S
H387 C416 0.950 . S
H388 C418 0.950 . S
H389 C419 0.950 . S
C390 H372 0.951 . S
C390 C391 1.366 . S
C390 C392 1.388 . S
C391 C390 1.366 . S
C391 C395 1.385 . S
C392 H373 0.951 . S
C392 C390 1.388 . S
C392 C393 1.366 . S
C393 C392 1.366 . S
C393 C394 1.414 . S
C393 C396 1.499 . S
C394 H374 0.950 . S
C394 C393 1.414 . S
C394 C395 1.374 . S
C395 H375 0.950 . S
C395 C391 1.385 . S
C395 C394 1.374 . S
C396 C393 1.499 . S
C396 C397 1.373 . S
C396 C398 1.389 . S
C397 H376 0.950 . S
C397 C396 1.373 . S
C397 C413 1.377 . S
C398 C396 1.389 . S
C398 C399 1.524 . S
C398 C412 1.377 . S
C399 C398 1.524 . S
C399 C400 1.397 . S
C399 C404 1.363 . S
C400 H377 0.950 . S
C400 C399 1.397 . S
C400 C401 1.334 . S
C401 H378 0.950 . S
C401 C400 1.334 . S
C401 C402 1.287 1_545 S
C402 C401 1.287 1_565 S
C402 C403 1.524 . S
C402 H421 0.913 . S
C403 H379 0.950 . S
C403 C402 1.524 . S
C403 C404 1.415 1_565 S
C404 H380 0.950 . S
C404 C399 1.363 . S
C404 C403 1.415 1_545 S
C405 H381 0.951 . S
C405 C406 1.366 . S
C405 C407 1.388 . S
C406 C405 1.366 . S
C406 C410 1.385 . S
C407 H382 0.951 . S
C407 C405 1.388 . S
C407 C408 1.366 . S
C408 C407 1.366 . S
C408 C409 1.414 . S
C408 C411 1.499 . S
C409 H383 0.950 . S
C409 C408 1.414 . S
C409 C410 1.374 . S
C410 H384 0.950 . S
C410 C406 1.385 . S
C410 C409 1.374 . S
C411 C408 1.499 . S
C411 C412 1.373 . S
C411 C413 1.389 . S
C412 H385 0.950 . S
C412 C398 1.377 . S
C412 C411 1.373 . S
C413 C397 1.377 . S
C413 C411 1.389 . S
C413 C414 1.524 . S
C414 C413 1.524 . S
C414 C415 1.397 . S
C414 C419 1.363 . S
C415 H386 0.950 . S
C415 C414 1.397 . S
C415 C416 1.334 . S
C416 H387 0.950 . S
C416 C415 1.334 . S
C416 C417 1.287 . S
C417 C416 1.287 . S
C417 C418 1.524 . S
C417 H420 0.999 . S
C418 H388 0.950 . S
C418 C417 1.524 . S
C418 C419 1.415 . S
C419 H389 0.950 . S
C419 C414 1.363 . S
C419 C418 1.415 . S
H420 C417 0.999 . S
H421 C402 0.913 . S
H422 C440 0.951 . S
H423 C442 0.951 . S
H424 C444 0.950 . S
H425 C445 0.950 . S
H426 C447 0.950 . S
H427 C450 0.950 . S
H428 C451 0.950 . S
H429 C453 0.950 . S
H430 C454 0.950 . S
H431 C455 0.951 . S
H432 C457 0.955 . S
H433 C459 0.950 . S
H434 C460 0.950 . S
H435 C462 0.950 . S
H436 C465 0.950 . S
H437 C466 0.950 . S
H438 C468 0.950 . S
H439 C469 0.950 . S
C440 H422 0.951 . S
C440 C441 1.366 . S
C440 C442 1.388 . S
C441 C440 1.366 . S
C441 C445 1.385 . S
C442 H423 0.951 . S
C442 C440 1.388 . S
C442 C443 1.366 . S
C443 C442 1.366 . S
C443 C444 1.414 . S
C443 C446 1.499 . S
C444 H424 0.950 . S
C444 C443 1.414 . S
C444 C445 1.374 . S
C445 H425 0.950 . S
C445 C441 1.385 . S
C445 C444 1.374 . S
C446 C443 1.499 . S
C446 C447 1.373 . S
C446 C448 1.389 . S
C447 H426 0.950 . S
C447 C446 1.373 . S
C447 C463 1.377 . S
C448 C446 1.389 . S
C448 C449 1.524 . S
C448 C462 1.377 . S
C449 C448 1.524 . S
C449 C450 1.397 . S
C449 C454 1.363 . S
C450 H427 0.950 . S
C450 C449 1.397 . S
C450 C451 1.334 . S
C451 H428 0.950 . S
C451 C450 1.334 . S
C451 C452 1.287 . S
C452 C451 1.287 . S
C452 C453 1.524 . S
C452 H471 0.913 . S
C453 H429 0.950 . S
C453 C452 1.524 . S
C453 C454 1.415 . S
C454 H430 0.950 . S
C454 C449 1.363 . S
C454 C453 1.415 . S
C455 H431 0.951 . S
C455 C456 1.366 1_545 S
C455 C457 1.389 . S
C456 C455 1.366 1_565 S
C456 C460 1.385 . S
C457 H432 0.955 . S
C457 C455 1.389 . S
C457 C458 1.360 1_545 S
C458 C457 1.360 1_565 S
C458 C459 1.414 . S
C458 C461 1.499 . S
C459 H433 0.950 . S
C459 C458 1.414 . S
C459 C460 1.374 . S
C460 H434 0.950 . S
C460 C456 1.385 . S
C460 C459 1.374 . S
C461 C458 1.499 . S
C461 C462 1.373 . S
C461 C463 1.389 . S
C462 H435 0.950 . S
C462 C448 1.377 . S
C462 C461 1.373 . S
C463 C447 1.377 . S
C463 C461 1.389 . S
C463 C464 1.528 1_565 S
C464 C463 1.528 1_545 S
C464 C465 1.398 1_545 S
C464 C469 1.358 . S
C465 H436 0.950 . S
C465 C464 1.398 1_565 S
C465 C466 1.334 1_565 S
C466 H437 0.950 . S
C466 C465 1.334 1_545 S
C466 C467 1.287 . S
C467 C466 1.287 . S
C467 C468 1.524 . S
C467 H470 0.999 . S
C468 H438 0.950 . S
C468 C467 1.524 . S
C468 C469 1.415 . S
C469 H439 0.950 . S
C469 C464 1.358 . S
C469 C468 1.415 . S
H470 C467 0.999 . S
H471 C452 0.913 . S
H472 C490 0.951 . S
H473 C492 0.951 . S
H474 C494 0.950 . S
H475 C495 0.950 . S
H476 C497 0.950 . S
H477 C500 0.950 . S
H478 C501 0.950 . S
H479 C503 0.950 . S
H480 C504 0.950 . S
H481 C505 0.951 . S
H482 C507 0.951 . S
H483 C509 0.950 . S
H484 C510 0.950 . S
H485 C512 0.950 . S
H486 C515 0.950 . S
H487 C516 0.950 . S
H488 C518 0.950 . S
H489 C519 0.950 . S
C490 H472 0.951 . S
C490 C491 1.366 . S
C490 C492 1.388 . S
C491 C490 1.366 . S
C491 C495 1.385 . S
C492 H473 0.951 . S
C492 C490 1.388 . S
C492 C493 1.366 . S
C493 C492 1.366 . S
C493 C494 1.414 . S
C493 C496 1.499 . S
C494 H474 0.950 . S
C494 C493 1.414 . S
C494 C495 1.374 . S
C495 H475 0.950 . S
C495 C491 1.385 . S
C495 C494 1.374 . S
C496 C493 1.499 . S
C496 C497 1.373 . S
C496 C498 1.389 . S
C497 H476 0.950 . S
C497 C496 1.373 . S
C497 C513 1.377 . S
C498 C496 1.389 . S
C498 C499 1.524 . S
C498 C512 1.377 . S
C499 C498 1.524 . S
C499 C500 1.397 . S
C499 C504 1.363 . S
C500 H477 0.950 . S
C500 C499 1.397 . S
C500 C501 1.334 . S
C501 H478 0.950 . S
C501 C500 1.334 . S
C501 C502 1.287 . S
C502 C501 1.287 . S
C502 C503 1.524 . S
C502 H521 0.913 . S
C503 H479 0.950 . S
C503 C502 1.524 . S
C503 C504 1.415 . S
C504 H480 0.950 . S
C504 C499 1.363 . S
C504 C503 1.415 . S
C505 H481 0.951 . S
C505 C506 1.366 . S
C505 C507 1.388 . S
C506 C505 1.366 . S
C506 C510 1.385 . S
C507 H482 0.951 . S
C507 C505 1.388 . S
C507 C508 1.366 . S
C508 C507 1.366 . S
C508 C509 1.414 . S
C508 C511 1.499 . S
C509 H483 0.950 . S
C509 C508 1.414 . S
C509 C510 1.374 . S
C510 H484 0.950 . S
C510 C506 1.385 . S
C510 C509 1.374 . S
C511 C508 1.499 . S
C511 C512 1.373 . S
C511 C513 1.389 . S
C512 H485 0.950 . S
C512 C498 1.377 . S
C512 C511 1.373 . S
C513 C497 1.377 . S
C513 C511 1.389 . S
C513 C514 1.524 . S
C514 C513 1.524 . S
C514 C515 1.397 . S
C514 C519 1.363 . S
C515 H486 0.950 . S
C515 C514 1.397 . S
C515 C516 1.334 . S
C516 H487 0.950 . S
C516 C515 1.334 . S
C516 C517 1.287 . S
C517 C516 1.287 . S
C517 C518 1.524 . S
C517 H520 0.999 . S
C518 H488 0.950 . S
C518 C517 1.524 . S
C518 C519 1.415 . S
C519 H489 0.950 . S
C519 C514 1.363 . S
C519 C518 1.415 . S
H520 C517 0.999 . S
H521 C502 0.913 . S
H522 C540 0.951 . S
H523 C542 0.951 . S
H524 C544 0.950 . S
H525 C545 0.950 . S
H526 C547 0.950 . S
H527 C550 0.950 . S
H528 C551 0.950 . S
H529 C553 0.950 . S
H530 C554 0.950 . S
H531 C555 0.951 . S
H532 C557 0.951 . S
H533 C559 0.950 . S
H534 C560 0.950 . S
H535 C562 0.950 . S
H536 C565 0.950 . S
H537 C566 0.950 1_455 S
H538 C568 0.950 . S
H539 C569 0.950 . S
C540 H522 0.951 . S
C540 C541 1.366 . S
C540 C542 1.388 . S
C541 C540 1.366 . S
C541 C545 1.385 . S
C542 H523 0.951 . S
C542 C540 1.388 . S
C542 C543 1.366 . S
C543 C542 1.366 . S
C543 C544 1.414 . S
C543 C546 1.499 . S
C544 H524 0.950 . S
C544 C543 1.414 . S
C544 C545 1.374 . S
C545 H525 0.950 . S
C545 C541 1.385 . S
C545 C544 1.374 . S
C546 C543 1.499 . S
C546 C547 1.373 . S
C546 C548 1.389 . S
C547 H526 0.950 . S
C547 C546 1.373 . S
C547 C563 1.377 . S
C548 C546 1.389 . S
C548 C549 1.524 . S
C548 C562 1.377 . S
C549 C548 1.524 . S
C549 C550 1.397 . S
C549 C554 1.363 . S
C550 H527 0.950 . S
C550 C549 1.397 . S
C550 C551 1.334 . S
C551 H528 0.950 . S
C551 C550 1.334 . S
C551 C552 1.287 . S
C552 C551 1.287 . S
C552 C553 1.524 . S
C552 H571 0.913 . S
C553 H529 0.950 . S
C553 C552 1.524 . S
C553 C554 1.415 . S
C554 H530 0.950 . S
C554 C549 1.363 . S
C554 C553 1.415 . S
C555 H531 0.951 . S
C555 C556 1.366 . S
C555 C557 1.388 . S
C556 C555 1.366 . S
C556 C560 1.385 . S
C557 H532 0.951 . S
C557 C555 1.388 . S
C557 C558 1.366 . S
C558 C557 1.366 . S
C558 C559 1.414 . S
C558 C561 1.499 . S
C559 H533 0.950 . S
C559 C558 1.414 . S
C559 C560 1.374 . S
C560 H534 0.950 . S
C560 C556 1.385 . S
C560 C559 1.374 . S
C561 C558 1.499 . S
C561 C562 1.373 . S
C561 C563 1.389 . S
C562 H535 0.950 . S
C562 C548 1.377 . S
C562 C561 1.373 . S
C563 C547 1.377 . S
C563 C561 1.389 . S
C563 C564 1.524 . S
C564 C563 1.524 . S
C564 C565 1.397 . S
C564 C569 1.363 . S
C565 H536 0.950 . S
C565 C564 1.397 . S
C565 C566 1.334 . S
C566 H537 0.950 1_655 S
C566 C565 1.334 . S
C566 C567 1.287 . S
C567 C566 1.287 . S
C567 C568 1.524 . S
C567 H570 0.999 . S
C568 H538 0.950 . S
C568 C567 1.524 . S
C568 C569 1.415 . S
C569 H539 0.950 . S
C569 C564 1.363 . S
C569 C568 1.415 . S
H570 C567 0.999 . S
H571 C552 0.913 . S
H572 C590 0.951 . S
H573 C592 0.951 . S
H574 C594 0.950 . S
H575 C595 0.950 . S
H576 C597 0.950 . S
H577 C600 0.950 . S
H578 C601 0.950 . S
H579 C603 0.917 1_556 S
H580 C604 0.964 . S
H581 C605 0.951 . S
H582 C607 0.951 . S
H583 C609 0.950 . S
H584 C610 0.950 1_556 S
H585 C612 0.950 . S
H586 C615 0.950 . S
H587 C616 0.950 . S
H588 C618 0.950 . S
H589 C619 0.950 . S
C590 H572 0.951 . S
C590 C591 1.366 . S
C590 C592 1.388 . S
C591 C590 1.366 . S
C591 C595 1.385 . S
C592 H573 0.951 . S
C592 C590 1.388 . S
C592 C593 1.366 . S
C593 C592 1.366 . S
C593 C594 1.414 . S
C593 C596 1.499 . S
C594 H574 0.950 . S
C594 C593 1.414 . S
C594 C595 1.374 . S
C595 H575 0.950 . S
C595 C591 1.385 . S
C595 C594 1.374 . S
C596 C593 1.499 . S
C596 C597 1.373 . S
C596 C598 1.389 . S
C597 H576 0.950 . S
C597 C596 1.373 . S
C597 C613 1.377 . S
C598 C596 1.389 . S
C598 C599 1.524 . S
C598 C612 1.377 . S
C599 C598 1.524 . S
C599 C600 1.397 . S
C599 C604 1.363 . S
C600 H577 0.950 . S
C600 C599 1.397 . S
C600 C601 1.334 . S
C601 H578 0.950 . S
C601 C600 1.334 . S
C601 C602 1.287 . S
C602 C601 1.287 . S
C602 C603 1.549 . S
C602 H621 0.913 1_545 S
C603 H579 0.917 1_554 S
C603 C602 1.549 . S
C603 C604 1.427 . S
C604 H580 0.964 . S
C604 C599 1.363 . S
C604 C603 1.427 . S
C605 H581 0.951 . S
C605 C606 1.366 . S
C605 C607 1.388 . S
C606 C605 1.366 . S
C606 C610 1.385 . S
C607 H582 0.951 . S
C607 C605 1.388 . S
C607 C608 1.366 . S
C608 C607 1.366 . S
C608 C609 1.414 . S
C608 C611 1.499 . S
C609 H583 0.950 . S
C609 C608 1.414 . S
C609 C610 1.374 . S
C610 H584 0.950 1_554 S
C610 C606 1.385 . S
C610 C609 1.374 . S
C611 C608 1.499 . S
C611 C612 1.373 . S
C611 C613 1.389 . S
C612 H585 0.950 . S
C612 C598 1.377 . S
C612 C611 1.373 . S
C613 C597 1.377 . S
C613 C611 1.389 . S
C613 C614 1.524 . S
C614 C613 1.524 . S
C614 C615 1.397 . S
C614 C619 1.363 . S
C615 H586 0.950 . S
C615 C614 1.397 . S
C615 C616 1.334 . S
C616 H587 0.950 . S
C616 C615 1.334 . S
C616 C617 1.287 . S
C617 C616 1.287 . S
C617 C618 1.524 . S
C617 H620 0.999 . S
C618 H588 0.950 . S
C618 C617 1.524 . S
C618 C619 1.415 . S
C619 H589 0.950 . S
C619 C614 1.363 . S
C619 C618 1.415 . S
H620 C617 0.999 . S
H621 C602 0.913 1_565 S
H622 C640 0.951 . S
H623 C642 0.951 . S
H624 C644 0.950 . S
H625 C645 0.950 . S
H626 C647 0.950 . S
H627 C650 0.950 . S
H628 C651 0.950 . S
H629 C653 0.950 . S
H630 C654 0.950 . S
H631 C655 0.951 1_545 S
H632 C657 0.951 . S
H633 C659 0.950 . S
H634 C660 0.950 . S
H635 C662 0.950 . S
H636 C665 0.950 . S
H637 C666 0.950 . S
H638 C668 0.950 . S
H639 C669 0.950 1_545 S
C640 H622 0.951 . S
C640 C641 1.366 . S
C640 C642 1.388 . S
C641 C640 1.366 . S
C641 C645 1.385 . S
C642 H623 0.951 . S
C642 C640 1.388 . S
C642 C643 1.366 . S
C643 C642 1.366 . S
C643 C644 1.414 . S
C643 C646 1.499 . S
C644 H624 0.950 . S
C644 C643 1.414 . S
C644 C645 1.374 . S
C645 H625 0.950 . S
C645 C641 1.385 . S
C645 C644 1.374 . S
C646 C643 1.499 . S
C646 C647 1.373 . S
C646 C648 1.389 . S
C647 H626 0.950 . S
C647 C646 1.373 . S
C647 C663 1.377 . S
C648 C646 1.389 . S
C648 C649 1.524 . S
C648 C662 1.377 . S
C649 C648 1.524 . S
C649 C650 1.397 . S
C649 C654 1.363 . S
C650 H627 0.950 . S
C650 C649 1.397 . S
C650 C651 1.334 . S
C651 H628 0.950 . S
C651 C650 1.334 . S
C651 C652 1.287 . S
C652 C651 1.287 . S
C652 C653 1.524 . S
C652 H671 0.913 . S
C653 H629 0.950 . S
C653 C652 1.524 . S
C653 C654 1.415 . S
C654 H630 0.950 . S
C654 C649 1.363 . S
C654 C653 1.415 . S
C655 H631 0.951 1_565 S
C655 C656 1.366 . S
C655 C657 1.388 . S
C656 C655 1.366 . S
C656 C660 1.385 . S
C657 H632 0.951 . S
C657 C655 1.388 . S
C657 C658 1.366 . S
C658 C657 1.366 . S
C658 C659 1.414 . S
C658 C661 1.499 . S
C659 H633 0.950 . S
C659 C658 1.414 . S
C659 C660 1.374 . S
C660 H634 0.950 . S
C660 C656 1.385 . S
C660 C659 1.374 . S
C661 C658 1.499 . S
C661 C662 1.373 . S
C661 C663 1.389 . S
C662 H635 0.950 . S
C662 C648 1.377 . S
C662 C661 1.373 . S
C663 C647 1.377 . S
C663 C661 1.389 . S
C663 C664 1.524 . S
C664 C663 1.524 . S
C664 C665 1.397 . S
C664 C669 1.363 . S
C665 H636 0.950 . S
C665 C664 1.397 . S
C665 C666 1.334 . S
C666 H637 0.950 . S
C666 C665 1.334 . S
C666 C667 1.287 . S
C667 C666 1.287 . S
C667 C668 1.524 1_565 S
C667 H670 1.003 . S
C668 H638 0.950 . S
C668 C667 1.524 1_545 S
C668 C669 1.415 1_545 S
C669 H639 0.950 1_565 S
C669 C664 1.363 . S
C669 C668 1.415 1_565 S
H670 C667 1.003 . S
H671 C652 0.913 . S
H672 C690 0.951 . S
H673 C692 0.951 . S
H674 C694 0.950 . S
H675 C695 0.950 . S
H676 C697 0.950 . S
H677 C700 0.950 . S
H678 C701 0.950 . S
H679 C703 0.950 . S
H680 C704 0.950 . S
H681 C705 0.951 . S
H682 C707 0.951 . S
H683 C709 0.950 1_554 S
H684 C710 0.952 . S
H685 C712 0.950 . S
H686 C715 0.950 . S
H687 C716 0.950 . S
H688 C718 0.950 . S
H689 C719 0.950 . S
C690 H672 0.951 . S
C690 C691 1.366 . S
C690 C692 1.388 . S
C691 C690 1.366 . S
C691 C695 1.385 . S
C692 H673 0.951 . S
C692 C690 1.388 . S
C692 C693 1.366 . S
C693 C692 1.366 . S
C693 C694 1.414 . S
C693 C696 1.499 . S
C694 H674 0.950 . S
C694 C693 1.414 . S
C694 C695 1.374 . S
C695 H675 0.950 . S
C695 C691 1.385 . S
C695 C694 1.374 . S
C696 C693 1.499 . S
C696 C697 1.373 . S
C696 C698 1.389 . S
C697 H676 0.950 . S
C697 C696 1.373 . S
C697 C713 1.377 . S
C698 C696 1.389 . S
C698 C699 1.524 . S
C698 C712 1.377 . S
C699 C698 1.524 . S
C699 C700 1.397 . S
C699 C704 1.363 . S
C700 H677 0.950 . S
C700 C699 1.397 . S
C700 C701 1.334 . S
C701 H678 0.950 . S
C701 C700 1.334 . S
C701 C702 1.287 . S
C702 C701 1.287 . S
C702 C703 1.524 . S
C702 H721 0.913 . S
C703 H679 0.950 . S
C703 C702 1.524 . S
C703 C704 1.415 . S
C704 H680 0.950 . S
C704 C699 1.363 . S
C704 C703 1.415 . S
C705 H681 0.951 . S
C705 C706 1.366 . S
C705 C707 1.388 . S
C706 C705 1.366 . S
C706 C710 1.383 1_556 S
C707 H682 0.951 . S
C707 C705 1.388 . S
C707 C708 1.366 . S
C708 C707 1.366 . S
C708 C709 1.414 . S
C708 C711 1.499 . S
C709 H683 0.950 1_556 S
C709 C708 1.414 . S
C709 C710 1.373 1_556 S
C710 H684 0.952 . S
C710 C706 1.383 1_554 S
C710 C709 1.373 1_554 S
C711 C708 1.499 . S
C711 C712 1.373 . S
C711 C713 1.389 . S
C712 H685 0.950 . S
C712 C698 1.377 . S
C712 C711 1.373 . S
C713 C697 1.377 . S
C713 C711 1.389 . S
C713 C714 1.524 . S
C714 C713 1.524 . S
C714 C715 1.397 . S
C714 C719 1.363 . S
C715 H686 0.950 . S
C715 C714 1.397 . S
C715 C716 1.334 . S
C716 H687 0.950 . S
C716 C715 1.334 . S
C716 C717 1.287 . S
C717 C716 1.287 . S
C717 C718 1.524 . S
C717 H720 0.999 . S
C718 H688 0.950 . S
C718 C717 1.524 . S
C718 C719 1.415 . S
C719 H689 0.950 . S
C719 C714 1.363 . S
C719 C718 1.415 . S
H720 C717 0.999 . S
H721 C702 0.913 . S
H722 C740 0.951 . S
H723 C742 0.951 . S
H724 C744 0.950 . S
H725 C745 0.950 . S
H726 C747 0.950 . S
H727 C750 0.950 . S
H728 C751 0.950 . S
H729 C753 0.950 . S
H730 C754 0.950 . S
H731 C755 0.951 . S
H732 C757 0.951 . S
H733 C759 0.950 . S
H734 C760 0.950 . S
H735 C762 0.950 . S
H736 C765 0.950 . S
H737 C766 0.950 . S
H738 C768 0.950 . S
H739 C769 0.950 . S
C740 H722 0.951 . S
C740 C741 1.366 . S
C740 C742 1.388 . S
C741 C740 1.366 . S
C741 C745 1.385 . S
C742 H723 0.951 . S
C742 C740 1.388 . S
C742 C743 1.366 . S
C743 C742 1.366 . S
C743 C744 1.414 . S
C743 C746 1.499 . S
C744 H724 0.950 . S
C744 C743 1.414 . S
C744 C745 1.374 . S
C745 H725 0.950 . S
C745 C741 1.385 . S
C745 C744 1.374 . S
C746 C743 1.499 . S
C746 C747 1.373 . S
C746 C748 1.389 . S
C747 H726 0.950 . S
C747 C746 1.373 . S
C747 C763 1.377 . S
C748 C746 1.389 . S
C748 C749 1.524 . S
C748 C762 1.377 . S
C749 C748 1.524 . S
C749 C750 1.397 . S
C749 C754 1.363 . S
C750 H727 0.950 . S
C750 C749 1.397 . S
C750 C751 1.334 . S
C751 H728 0.950 . S
C751 C750 1.334 . S
C751 C752 1.287 . S
C752 C751 1.287 . S
C752 C753 1.524 . S
C752 H771 0.913 . S
C753 H729 0.950 . S
C753 C752 1.524 . S
C753 C754 1.415 . S
C754 H730 0.950 . S
C754 C749 1.363 . S
C754 C753 1.415 . S
C755 H731 0.951 . S
C755 C756 1.366 . S
C755 C757 1.388 . S
C756 C755 1.366 . S
C756 C760 1.385 . S
C757 H732 0.951 . S
C757 C755 1.388 . S
C757 C758 1.366 . S
C758 C757 1.366 . S
C758 C759 1.414 . S
C758 C761 1.499 . S
C759 H733 0.950 . S
C759 C758 1.414 . S
C759 C760 1.374 . S
C760 H734 0.950 . S
C760 C756 1.385 . S
C760 C759 1.374 . S
C761 C758 1.499 . S
C761 C762 1.373 . S
C761 C763 1.389 . S
C762 H735 0.950 . S
C762 C748 1.377 . S
C762 C761 1.373 . S
C763 C747 1.377 . S
C763 C761 1.389 . S
C763 C764 1.524 . S
C764 C763 1.524 . S
C764 C765 1.397 . S
C764 C769 1.363 . S
C765 H736 0.950 . S
C765 C764 1.397 . S
C765 C766 1.334 . S
C766 H737 0.950 . S
C766 C765 1.334 . S
C766 C767 1.287 . S
C767 C766 1.287 . S
C767 C768 1.524 . S
C767 H770 0.999 . S
C768 H738 0.950 . S
C768 C767 1.524 . S
C768 C769 1.415 . S
C769 H739 0.950 . S
C769 C764 1.363 . S
C769 C768 1.415 . S
H770 C767 0.999 . S
H771 C752 0.913 . S
H772 C790 0.951 . S
H773 C792 0.951 . S
H774 C794 0.950 . S
H775 C795 0.950 . S
H776 C797 0.950 . S
H777 C800 0.950 . S
H778 C801 0.941 1_556 S
H779 C803 0.950 1_655 S
H780 C804 0.950 . S
H781 C805 0.951 . S
H782 C807 0.951 . S
H783 C809 0.950 . S
H784 C810 0.950 1_655 S
H785 C812 0.950 . S
H786 C815 0.950 . S
H787 C816 0.950 . S
H788 C818 0.950 . S
H789 C819 0.950 . S
C790 H772 0.951 . S
C790 C791 1.366 . S
C790 C792 1.388 . S
C791 C790 1.366 . S
C791 C795 1.385 . S
C792 H773 0.951 . S
C792 C790 1.388 . S
C792 C793 1.366 . S
C793 C792 1.366 . S
C793 C794 1.414 . S
C793 C796 1.499 . S
C794 H774 0.950 . S
C794 C793 1.414 . S
C794 C795 1.374 . S
C795 H775 0.950 . S
C795 C791 1.385 . S
C795 C794 1.374 . S
C796 C793 1.499 . S
C796 C797 1.373 . S
C796 C798 1.389 . S
C797 H776 0.950 . S
C797 C796 1.373 . S
C797 C813 1.377 . S
C798 C796 1.389 . S
C798 C799 1.524 . S
C798 C812 1.377 . S
C799 C798 1.524 . S
C799 C800 1.397 . S
C799 C804 1.363 . S
C800 H777 0.950 . S
C800 C799 1.397 . S
C800 C801 1.345 . S
C801 H778 0.941 1_554 S
C801 C800 1.345 . S
C801 C802 1.286 1_554 S
C802 C801 1.286 1_556 S
C802 C803 1.524 1_556 S
C802 H821 0.913 . S
C803 H779 0.950 1_455 S
C803 C802 1.524 1_554 S
C803 C804 1.415 . S
C804 H780 0.950 . S
C804 C799 1.363 . S
C804 C803 1.415 . S
C805 H781 0.951 . S
C805 C806 1.366 . S
C805 C807 1.388 . S
C806 C805 1.366 . S
C806 C810 1.385 . S
C807 H782 0.951 . S
C807 C805 1.388 . S
C807 C808 1.366 . S
C808 C807 1.366 . S
C808 C809 1.414 . S
C808 C811 1.499 . S
C809 H783 0.950 . S
C809 C808 1.414 . S
C809 C810 1.374 . S
C810 H784 0.950 1_455 S
C810 C806 1.385 . S
C810 C809 1.374 . S
C811 C808 1.499 . S
C811 C812 1.373 . S
C811 C813 1.389 . S
C812 H785 0.950 . S
C812 C798 1.377 . S
C812 C811 1.373 . S
C813 C797 1.377 . S
C813 C811 1.389 . S
C813 C814 1.524 . S
C814 C813 1.524 . S
C814 C815 1.397 . S
C814 C819 1.363 . S
C815 H786 0.950 . S
C815 C814 1.397 . S
C815 C816 1.334 . S
C816 H787 0.950 . S
C816 C815 1.334 . S
C816 C817 1.287 . S
C817 C816 1.287 . S
C817 C818 1.524 . S
C817 H820 0.999 . S
C818 H788 0.950 . S
C818 C817 1.524 . S
C818 C819 1.415 . S
C819 H789 0.950 . S
C819 C814 1.363 . S
C819 C818 1.415 . S
H820 C817 0.999 . S
H821 C802 0.913 . S
H822 C840 0.951 . S
H823 C842 0.951 . S
H824 C844 0.950 . S
H825 C845 0.950 . S
H826 C847 0.950 . S
H827 C850 0.950 . S
H828 C851 0.950 . S
H829 C853 0.950 . S
H830 C854 0.950 . S
H831 C855 0.951 . S
H832 C857 0.951 . S
H833 C859 0.950 . S
H834 C860 0.950 . S
H835 C862 0.950 . S
H836 C865 0.950 . S
H837 C866 0.950 . S
H838 C868 0.950 . S
H839 C869 0.950 . S
C840 H822 0.951 . S
C840 C841 1.366 . S
C840 C842 1.388 . S
C841 C840 1.366 . S
C841 C845 1.385 . S
C842 H823 0.951 . S
C842 C840 1.388 . S
C842 C843 1.366 . S
C843 C842 1.366 . S
C843 C844 1.414 . S
C843 C846 1.499 . S
C844 H824 0.950 . S
C844 C843 1.414 . S
C844 C845 1.374 . S
C845 H825 0.950 . S
C845 C841 1.385 . S
C845 C844 1.374 . S
C846 C843 1.499 . S
C846 C847 1.373 . S
C846 C848 1.389 . S
C847 H826 0.950 . S
C847 C846 1.373 . S
C847 C863 1.377 . S
C848 C846 1.389 . S
C848 C849 1.524 . S
C848 C862 1.377 . S
C849 C848 1.524 . S
C849 C850 1.397 . S
C849 C854 1.363 . S
C850 H827 0.950 . S
C850 C849 1.397 . S
C850 C851 1.334 . S
C851 H828 0.950 . S
C851 C850 1.334 . S
C851 C852 1.287 . S
C852 C851 1.287 . S
C852 C853 1.524 . S
C852 H871 0.913 . S
C853 H829 0.950 . S
C853 C852 1.524 . S
C853 C854 1.415 . S
C854 H830 0.950 . S
C854 C849 1.363 . S
C854 C853 1.415 . S
C855 H831 0.951 . S
C855 C856 1.366 . S
C855 C857 1.388 . S
C856 C855 1.366 . S
C856 C860 1.385 . S
C857 H832 0.951 . S
C857 C855 1.388 . S
C857 C858 1.366 . S
C858 C857 1.366 . S
C858 C859 1.414 . S
C858 C861 1.499 . S
C859 H833 0.950 . S
C859 C858 1.414 . S
C859 C860 1.374 . S
C860 H834 0.950 . S
C860 C856 1.385 . S
C860 C859 1.374 . S
C861 C858 1.499 . S
C861 C862 1.373 . S
C861 C863 1.389 . S
C862 H835 0.950 . S
C862 C848 1.377 . S
C862 C861 1.373 . S
C863 C847 1.377 . S
C863 C861 1.389 . S
C863 C864 1.524 . S
C864 C863 1.524 . S
C864 C865 1.397 . S
C864 C869 1.363 . S
C865 H836 0.950 . S
C865 C864 1.397 . S
C865 C866 1.334 1_556 S
C866 H837 0.950 . S
C866 C865 1.334 1_554 S
C866 C867 1.294 . S
C867 C866 1.294 . S
C867 C868 1.502 1_554 S
C867 H870 1.014 . S
C868 H838 0.950 . S
C868 C867 1.502 1_556 S
C868 C869 1.415 . S
C869 H839 0.950 . S
C869 C864 1.363 . S
C869 C868 1.415 . S
H870 C867 1.014 . S
H871 C852 0.913 . S
H872 C890 0.951 . S
H873 C892 0.951 . S
H874 C894 0.950 . S
H875 C895 0.950 . S
H876 C897 0.950 . S
H877 C900 0.950 . S
H878 C901 0.950 . S
H879 C903 0.950 . S
H880 C904 0.950 1_655 S
H881 C905 0.951 . S
H882 C907 0.951 . S
H883 C909 0.950 . S
H884 C910 0.950 . S
H885 C912 0.950 . S
H886 C915 0.950 . S
H887 C916 0.950 . S
H888 C918 0.950 . S
H889 C919 0.950 . S
C890 H872 0.951 . S
C890 C891 1.366 . S
C890 C892 1.388 . S
C891 C890 1.366 . S
C891 C895 1.385 . S
C892 H873 0.951 . S
C892 C890 1.388 . S
C892 C893 1.366 . S
C893 C892 1.366 . S
C893 C894 1.414 . S
C893 C896 1.499 . S
C894 H874 0.950 . S
C894 C893 1.414 . S
C894 C895 1.374 . S
C895 H875 0.950 . S
C895 C891 1.385 . S
C895 C894 1.374 . S
C896 C893 1.499 . S
C896 C897 1.373 . S
C896 C898 1.389 . S
C897 H876 0.950 . S
C897 C896 1.373 . S
C897 C913 1.377 . S
C898 C896 1.389 . S
C898 C899 1.524 . S
C898 C912 1.377 . S
C899 C898 1.524 . S
C899 C900 1.397 . S
C899 C904 1.363 1_655 S
C900 H877 0.950 . S
C900 C899 1.397 . S
C900 C901 1.334 1_655 S
C901 H878 0.950 . S
C901 C900 1.334 1_455 S
C901 C902 1.287 . S
C902 C901 1.287 . S
C902 C903 1.524 . S
C902 H921 0.913 . S
C903 H879 0.950 . S
C903 C902 1.524 . S
C903 C904 1.415 . S
C904 H880 0.950 1_455 S
C904 C899 1.363 1_455 S
C904 C903 1.415 . S
C905 H881 0.951 . S
C905 C906 1.366 . S
C905 C907 1.388 . S
C906 C905 1.366 . S
C906 C910 1.385 . S
C907 H882 0.951 . S
C907 C905 1.388 . S
C907 C908 1.366 . S
C908 C907 1.366 . S
C908 C909 1.414 . S
C908 C911 1.499 . S
C909 H883 0.950 . S
C909 C908 1.414 . S
C909 C910 1.374 . S
C910 H884 0.950 . S
C910 C906 1.385 . S
C910 C909 1.374 . S
C911 C908 1.499 . S
C911 C912 1.373 . S
C911 C913 1.389 . S
C912 H885 0.950 . S
C912 C898 1.377 . S
C912 C911 1.373 . S
C913 C897 1.377 . S
C913 C911 1.389 . S
C913 C914 1.524 . S
C914 C913 1.524 . S
C914 C915 1.397 . S
C914 C919 1.363 . S
C915 H886 0.950 . S
C915 C914 1.397 . S
C915 C916 1.334 . S
C916 H887 0.950 . S
C916 C915 1.334 . S
C916 C917 1.287 . S
C917 C916 1.287 . S
C917 C918 1.524 . S
C917 H920 0.999 . S
C918 H888 0.950 . S
C918 C917 1.524 . S
C918 C919 1.415 . S
C919 H889 0.950 . S
C919 C914 1.363 . S
C919 C918 1.415 . S
H920 C917 0.999 . S
H921 C902 0.913 . S
H922 C940 0.951 . S
H923 C942 0.951 . S
H924 C944 0.950 . S
H925 C945 0.950 . S
H926 C947 0.950 . S
H927 C950 0.950 . S
H928 C951 0.950 . S
H929 C953 0.950 . S
H930 C954 0.950 . S
H931 C955 0.951 . S
H932 C957 0.951 . S
H933 C959 0.950 . S
H934 C960 0.950 . S
H935 C962 0.950 . S
H936 C965 0.950 . S
H937 C966 0.950 . S
H938 C968 0.950 . S
H939 C969 0.950 . S
C940 H922 0.951 . S
C940 C941 1.366 . S
C940 C942 1.388 . S
C941 C940 1.366 . S
C941 C945 1.385 . S
C942 H923 0.951 . S
C942 C940 1.388 . S
C942 C943 1.366 . S
C943 C942 1.366 . S
C943 C944 1.414 . S
C943 C946 1.499 . S
C944 H924 0.950 . S
C944 C943 1.414 . S
C944 C945 1.374 . S
C945 H925 0.950 . S
C945 C941 1.385 . S
C945 C944 1.374 . S
C946 C943 1.499 . S
C946 C947 1.373 . S
C946 C948 1.389 . S
C947 H926 0.950 . S
C947 C946 1.373 . S
C947 C963 1.377 . S
C948 C946 1.389 . S
C948 C949 1.524 . S
C948 C962 1.377 . S
C949 C948 1.524 . S
C949 C950 1.397 . S
C949 C954 1.363 . S
C950 H927 0.950 . S
C950 C949 1.397 . S
C950 C951 1.334 . S
C951 H928 0.950 . S
C951 C950 1.334 . S
C951 C952 1.287 . S
C952 C951 1.287 . S
C952 C953 1.524 . S
C952 H971 0.913 . S
C953 H929 0.950 . S
C953 C952 1.524 . S
C953 C954 1.415 . S
C954 H930 0.950 . S
C954 C949 1.363 . S
C954 C953 1.415 . S
C955 H931 0.951 . S
C955 C956 1.366 . S
C955 C957 1.388 . S
C956 C955 1.366 . S
C956 C960 1.385 . S
C957 H932 0.951 . S
C957 C955 1.388 . S
C957 C958 1.366 . S
C958 C957 1.366 . S
C958 C959 1.414 . S
C958 C961 1.499 . S
C959 H933 0.950 . S
C959 C958 1.414 . S
C959 C960 1.374 . S
C960 H934 0.950 . S
C960 C956 1.385 . S
C960 C959 1.374 . S
C961 C958 1.499 . S
C961 C962 1.373 . S
C961 C963 1.389 . S
C962 H935 0.950 . S
C962 C948 1.377 . S
C962 C961 1.373 . S
C963 C947 1.377 . S
C963 C961 1.389 . S
C963 C964 1.524 . S
C964 C963 1.524 . S
C964 C965 1.397 . S
C964 C969 1.363 . S
C965 H936 0.950 . S
C965 C964 1.397 . S
C965 C966 1.334 . S
C966 H937 0.950 . S
C966 C965 1.334 . S
C966 C967 1.287 . S
C967 C966 1.287 . S
C967 C968 1.524 . S
C967 H970 0.999 . S
C968 H938 0.950 . S
C968 C967 1.524 . S
C968 C969 1.415 . S
C969 H939 0.950 . S
C969 C964 1.363 . S
C969 C968 1.415 . S
H970 C967 0.999 . S
H971 C952 0.913 . S
H972 C990 0.951 . S
H973 C992 0.951 . S
H974 C994 0.950 . S
H975 C995 0.950 . S
H976 C997 0.950 . S
H977 C1000 0.950 . S
H978 C1001 0.950 . S
H979 C1003 0.954 . S
H980 C1004 0.950 . S
H981 C1005 0.951 1_545 S
H982 C1007 0.935 1_545 S
H983 C1009 0.950 . S
H984 C1010 0.950 . S
H985 C1012 0.950 . S
H986 C1015 0.950 . S
H987 C1016 0.950 . S
H988 C1018 0.950 . S
H989 C1019 0.950 . S
C990 H972 0.951 . S
C990 C991 1.366 . S
C990 C992 1.388 . S
C991 C990 1.366 . S
C991 C995 1.385 . S
C992 H973 0.951 . S
C992 C990 1.388 . S
C992 C993 1.366 . S
C993 C992 1.366 . S
C993 C994 1.414 . S
C993 C996 1.499 . S
C994 H974 0.950 . S
C994 C993 1.414 . S
C994 C995 1.374 . S
C995 H975 0.950 . S
C995 C991 1.385 . S
C995 C994 1.374 . S
C996 C993 1.499 . S
C996 C997 1.373 . S
C996 C998 1.389 . S
C997 H976 0.950 . S
C997 C996 1.373 . S
C997 C1013 1.377 . S
C998 C996 1.389 . S
C998 C999 1.524 . S
C998 C1012 1.377 . S
C999 C998 1.524 . S
C999 C1000 1.397 . S
C999 C1004 1.363 . S
C1000 H977 0.950 . S
C1000 C999 1.397 . S
C1000 C1001 1.334 1_655 S
C1001 H978 0.950 . S
C1001 C1000 1.334 1_455 S
C1001 C1002 1.287 . S
C1002 C1001 1.287 . S
C1002 C1003 1.529 . S
C1002 H1021 0.913 . S
C1003 H979 0.954 . S
C1003 C1002 1.529 . S
C1003 C1004 1.405 1_455 S
C1004 H980 0.950 . S
C1004 C999 1.363 . S
C1004 C1003 1.405 1_655 S
C1005 H981 0.951 1_565 S
C1005 C1006 1.366 . S
C1005 C1007 1.388 . S
C1006 C1005 1.366 . S
C1006 C1010 1.385 . S
C1007 H982 0.935 1_565 S
C1007 C1005 1.388 . S
C1007 C1008 1.366 . S
C1008 C1007 1.366 . S
C1008 C1009 1.414 . S
C1008 C1011 1.499 . S
C1009 H983 0.950 . S
C1009 C1008 1.414 . S
C1009 C1010 1.374 . S
C1010 H984 0.950 . S
C1010 C1006 1.385 . S
C1010 C1009 1.374 . S
C1011 C1008 1.499 . S
C1011 C1012 1.373 . S
C1011 C1013 1.389 . S
C1012 H985 0.950 . S
C1012 C998 1.377 . S
C1012 C1011 1.373 . S
C1013 C997 1.377 . S
C1013 C1011 1.389 . S
C1013 C1014 1.524 . S
C1014 C1013 1.524 . S
C1014 C1015 1.397 . S
C1014 C1019 1.363 1_565 S
C1015 H986 0.950 . S
C1015 C1014 1.397 . S
C1015 C1016 1.334 . S
C1016 H987 0.950 . S
C1016 C1015 1.334 . S
C1016 C1017 1.287 1_565 S
C1017 C1016 1.287 1_545 S
C1017 C1018 1.524 . S
C1017 H1020 0.999 . S
C1018 H988 0.950 . S
C1018 C1017 1.524 . S
C1018 C1019 1.415 . S
C1019 H989 0.950 . S
C1019 C1014 1.363 1_545 S
C1019 C1018 1.415 . S
H1020 C1017 0.999 . S
H1021 C1002 0.913 . S
H1022 C1040 0.951 . S
H1023 C1042 0.951 . S
H1024 C1044 0.950 . S
H1025 C1045 0.950 . S
H1026 C1047 0.950 . S
H1027 C1050 0.950 . S
H1028 C1051 0.937 1_565 S
H1029 C1053 0.950 . S
H1030 C1054 0.950 . S
H1031 C1055 0.951 . S
H1032 C1057 0.951 . S
H1033 C1059 0.950 . S
H1034 C1060 0.950 . S
H1035 C1062 0.950 . S
H1036 C1065 0.950 . S
H1037 C1066 0.950 . S
H1038 C1068 0.950 . S
H1039 C1069 0.950 . S
C1040 H1022 0.951 . S
C1040 C1041 1.366 . S
C1040 C1042 1.388 . S
C1041 C1040 1.366 . S
C1041 C1045 1.385 . S
C1042 H1023 0.951 . S
C1042 C1040 1.388 . S
C1042 C1043 1.366 . S
C1043 C1042 1.366 . S
C1043 C1044 1.414 . S
C1043 C1046 1.499 . S
C1044 H1024 0.950 . S
C1044 C1043 1.414 . S
C1044 C1045 1.374 . S
C1045 H1025 0.950 . S
C1045 C1041 1.385 . S
C1045 C1044 1.374 . S
C1046 C1043 1.499 . S
C1046 C1047 1.373 . S
C1046 C1048 1.389 . S
C1047 H1026 0.950 . S
C1047 C1046 1.373 . S
C1047 C1063 1.377 . S
C1048 C1046 1.389 . S
C1048 C1049 1.524 . S
C1048 C1062 1.377 . S
C1049 C1048 1.524 . S
C1049 C1050 1.397 . S
C1049 C1054 1.363 . S
C1050 H1027 0.950 . S
C1050 C1049 1.397 . S
C1050 C1051 1.334 . S
C1051 H1028 0.937 1_545 S
C1051 C1050 1.334 . S
C1051 C1052 1.282 1_545 S
C1052 C1051 1.282 1_565 S
C1052 C1053 1.513 1_565 S
C1052 H1071 0.928 . S
C1053 H1029 0.950 . S
C1053 C1052 1.513 1_545 S
C1053 C1054 1.415 . S
C1054 H1030 0.950 . S
C1054 C1049 1.363 . S
C1054 C1053 1.415 . S
C1055 H1031 0.951 . S
C1055 C1056 1.366 . S
C1055 C1057 1.388 . S
C1056 C1055 1.366 . S
C1056 C1060 1.385 . S
C1057 H1032 0.951 . S
C1057 C1055 1.388 . S
C1057 C1058 1.366 . S
C1058 C1057 1.366 . S
C1058 C1059 1.414 . S
C1058 C1061 1.499 . S
C1059 H1033 0.950 . S
C1059 C1058 1.414 . S
C1059 C1060 1.374 . S
C1060 H1034 0.950 . S
C1060 C1056 1.385 . S
C1060 C1059 1.374 . S
C1061 C1058 1.499 . S
C1061 C1062 1.373 . S
C1061 C1063 1.389 . S
C1062 H1035 0.950 . S
C1062 C1048 1.377 . S
C1062 C1061 1.373 . S
C1063 C1047 1.377 . S
C1063 C1061 1.389 . S
C1063 C1064 1.524 . S
C1064 C1063 1.524 . S
C1064 C1065 1.397 . S
C1064 C1069 1.363 . S
C1065 H1036 0.950 . S
C1065 C1064 1.397 . S
C1065 C1066 1.334 . S
C1066 H1037 0.950 . S
C1066 C1065 1.334 . S
C1066 C1067 1.287 . S
C1067 C1066 1.287 . S
C1067 C1068 1.524 . S
C1067 H1070 0.999 . S
C1068 H1038 0.950 . S
C1068 C1067 1.524 . S
C1068 C1069 1.415 . S
C1069 H1039 0.950 . S
C1069 C1064 1.363 . S
C1069 C1068 1.415 . S
H1070 C1067 0.999 . S
H1071 C1052 0.928 . S
H1072 C1090 0.951 . S
H1073 C1092 0.951 . S
H1074 C1094 0.950 . S
H1075 C1095 0.950 . S
H1076 C1097 0.950 . S
H1077 C1100 0.950 . S
H1078 C1101 0.950 . S
H1079 C1103 0.950 . S
H1080 C1104 0.950 . S
H1081 C1105 0.951 . S
H1082 C1107 0.951 . S
H1083 C1109 0.950 . S
H1084 C1110 0.950 . S
H1085 C1112 0.950 . S
H1086 C1115 0.950 . S
H1087 C1116 0.950 . S
H1088 C1118 0.950 . S
H1089 C1119 0.950 . S
C1090 H1072 0.951 . S
C1090 C1091 1.366 . S
C1090 C1092 1.388 . S
C1091 C1090 1.366 . S
C1091 C1095 1.385 . S
C1092 H1073 0.951 . S
C1092 C1090 1.388 . S
C1092 C1093 1.366 . S
C1093 C1092 1.366 . S
C1093 C1094 1.414 . S
C1093 C1096 1.499 . S
C1094 H1074 0.950 . S
C1094 C1093 1.414 . S
C1094 C1095 1.374 . S
C1095 H1075 0.950 . S
C1095 C1091 1.385 . S
C1095 C1094 1.374 . S
C1096 C1093 1.499 . S
C1096 C1097 1.373 . S
C1096 C1098 1.389 . S
C1097 H1076 0.950 . S
C1097 C1096 1.373 . S
C1097 C1113 1.377 . S
C1098 C1096 1.389 . S
C1098 C1099 1.524 . S
C1098 C1112 1.377 . S
C1099 C1098 1.524 . S
C1099 C1100 1.397 . S
C1099 C1104 1.363 . S
C1100 H1077 0.950 . S
C1100 C1099 1.397 . S
C1100 C1101 1.334 . S
C1101 H1078 0.950 . S
C1101 C1100 1.334 . S
C1101 C1102 1.287 . S
C1102 C1101 1.287 . S
C1102 C1103 1.524 . S
C1102 H1121 0.913 . S
C1103 H1079 0.950 . S
C1103 C1102 1.524 . S
C1103 C1104 1.415 . S
C1104 H1080 0.950 . S
C1104 C1099 1.363 . S
C1104 C1103 1.415 . S
C1105 H1081 0.951 . S
C1105 C1106 1.366 . S
C1105 C1107 1.388 . S
C1106 C1105 1.366 . S
C1106 C1110 1.385 . S
C1107 H1082 0.951 . S
C1107 C1105 1.388 . S
C1107 C1108 1.366 . S
C1108 C1107 1.366 . S
C1108 C1109 1.414 . S
C1108 C1111 1.499 . S
C1109 H1083 0.950 . S
C1109 C1108 1.414 . S
C1109 C1110 1.374 . S
C1110 H1084 0.950 . S
C1110 C1106 1.385 . S
C1110 C1109 1.374 . S
C1111 C1108 1.499 . S
C1111 C1112 1.373 . S
C1111 C1113 1.389 . S
C1112 H1085 0.950 . S
C1112 C1098 1.377 . S
C1112 C1111 1.373 . S
C1113 C1097 1.377 . S
C1113 C1111 1.389 . S
C1113 C1114 1.524 . S
C1114 C1113 1.524 . S
C1114 C1115 1.397 . S
C1114 C1119 1.363 . S
C1115 H1086 0.950 . S
C1115 C1114 1.397 . S
C1115 C1116 1.334 . S
C1116 H1087 0.950 . S
C1116 C1115 1.334 . S
C1116 C1117 1.287 . S
C1117 C1116 1.287 . S
C1117 C1118 1.524 . S
C1117 H1120 0.999 . S
C1118 H1088 0.950 . S
C1118 C1117 1.524 . S
C1118 C1119 1.415 . S
C1119 H1089 0.950 . S
C1119 C1114 1.363 . S
C1119 C1118 1.415 . S
H1120 C1117 0.999 . S
H1121 C1102 0.913 . S
H1122 C1140 0.951 . S
H1123 C1142 0.951 . S
H1124 C1144 0.950 . S
H1125 C1145 0.950 . S
H1126 C1147 0.950 . S
H1127 C1150 0.950 . S
H1128 C1151 0.950 . S
H1129 C1153 0.950 . S
H1130 C1154 0.950 . S
H1131 C1155 0.951 . S
H1132 C1157 0.951 . S
H1133 C1159 0.950 . S
H1134 C1160 0.950 . S
H1135 C1162 0.950 . S
H1136 C1165 0.950 . S
H1137 C1166 0.950 . S
H1138 C1168 0.950 . S
H1139 C1169 0.950 . S
C1140 H1122 0.951 . S
C1140 C1141 1.366 . S
C1140 C1142 1.388 . S
C1141 C1140 1.366 . S
C1141 C1145 1.385 . S
C1142 H1123 0.951 . S
C1142 C1140 1.388 . S
C1142 C1143 1.366 . S
C1143 C1142 1.366 . S
C1143 C1144 1.414 . S
C1143 C1146 1.499 . S
C1144 H1124 0.950 . S
C1144 C1143 1.414 . S
C1144 C1145 1.374 . S
C1145 H1125 0.950 . S
C1145 C1141 1.385 . S
C1145 C1144 1.374 . S
C1146 C1143 1.499 . S
C1146 C1147 1.373 . S
C1146 C1148 1.389 . S
C1147 H1126 0.950 . S
C1147 C1146 1.373 . S
C1147 C1163 1.377 . S
C1148 C1146 1.389 . S
C1148 C1149 1.524 . S
C1148 C1162 1.377 . S
C1149 C1148 1.524 . S
C1149 C1150 1.397 . S
C1149 C1154 1.363 . S
C1150 H1127 0.950 . S
C1150 C1149 1.397 . S
C1150 C1151 1.334 . S
C1151 H1128 0.950 . S
C1151 C1150 1.334 . S
C1151 C1152 1.287 . S
C1152 C1151 1.287 . S
C1152 C1153 1.524 . S
C1152 H1171 0.913 . S
C1153 H1129 0.950 . S
C1153 C1152 1.524 . S
C1153 C1154 1.415 . S
C1154 H1130 0.950 . S
C1154 C1149 1.363 . S
C1154 C1153 1.415 . S
C1155 H1131 0.951 . S
C1155 C1156 1.366 . S
C1155 C1157 1.388 . S
C1156 C1155 1.366 . S
C1156 C1160 1.385 . S
C1157 H1132 0.951 . S
C1157 C1155 1.388 . S
C1157 C1158 1.366 . S
C1158 C1157 1.366 . S
C1158 C1159 1.414 . S
C1158 C1161 1.499 . S
C1159 H1133 0.950 . S
C1159 C1158 1.414 . S
C1159 C1160 1.374 . S
C1160 H1134 0.950 . S
C1160 C1156 1.385 . S
C1160 C1159 1.374 . S
C1161 C1158 1.499 . S
C1161 C1162 1.373 . S
C1161 C1163 1.389 . S
C1162 H1135 0.950 . S
C1162 C1148 1.377 . S
C1162 C1161 1.373 . S
C1163 C1147 1.377 . S
C1163 C1161 1.389 . S
C1163 C1164 1.524 . S
C1164 C1163 1.524 . S
C1164 C1165 1.397 . S
C1164 C1169 1.363 1_455 S
C1165 H1136 0.950 . S
C1165 C1164 1.397 . S
C1165 C1166 1.334 1_455 S
C1166 H1137 0.950 . S
C1166 C1165 1.334 1_655 S
C1166 C1167 1.287 . S
C1167 C1166 1.287 . S
C1167 C1168 1.524 . S
C1167 H1170 0.999 . S
C1168 H1138 0.950 . S
C1168 C1167 1.524 . S
C1168 C1169 1.415 . S
C1169 H1139 0.950 . S
C1169 C1164 1.363 1_655 S
C1169 C1168 1.415 . S
H1170 C1167 0.999 . S
H1171 C1152 0.913 . S
H1172 C1190 0.951 . S
H1173 C1192 0.951 . S
H1174 C1194 0.950 . S
H1175 C1195 0.950 . S
H1176 C1197 0.950 . S
H1177 C1200 0.950 . S
H1178 C1201 0.950 . S
H1179 C1203 0.950 . S
H1180 C1204 0.950 . S
H1181 C1205 0.951 1_545 S
H1182 C1207 0.951 . S
H1183 C1209 0.950 . S
H1184 C1210 0.950 . S
H1185 C1212 0.950 . S
H1186 C1215 0.950 1_556 S
H1187 C1216 0.950 . S
H1188 C1218 0.950 . S
H1189 C1219 0.950 . S
C1190 H1172 0.951 . S
C1190 C1191 1.366 . S
C1190 C1192 1.388 . S
C1191 C1190 1.366 . S
C1191 C1195 1.385 . S
C1192 H1173 0.951 . S
C1192 C1190 1.388 . S
C1192 C1193 1.366 . S
C1193 C1192 1.366 . S
C1193 C1194 1.414 . S
C1193 C1196 1.499 . S
C1194 H1174 0.950 . S
C1194 C1193 1.414 . S
C1194 C1195 1.374 . S
C1195 H1175 0.950 . S
C1195 C1191 1.385 . S
C1195 C1194 1.374 . S
C1196 C1193 1.499 . S
C1196 C1197 1.373 . S
C1196 C1198 1.389 . S
C1197 H1176 0.950 . S
C1197 C1196 1.373 . S
C1197 C1213 1.377 . S
C1198 C1196 1.389 . S
C1198 C1199 1.524 . S
C1198 C1212 1.377 . S
C1199 C1198 1.524 . S
C1199 C1200 1.397 . S
C1199 C1204 1.363 . S
C1200 H1177 0.950 . S
C1200 C1199 1.397 . S
C1200 C1201 1.334 . S
C1201 H1178 0.950 . S
C1201 C1200 1.334 . S
C1201 C1202 1.287 . S
C1202 C1201 1.287 . S
C1202 C1203 1.524 . S
C1202 H1221 0.913 . S
C1203 H1179 0.950 . S
C1203 C1202 1.524 . S
C1203 C1204 1.415 . S
C1204 H1180 0.950 . S
C1204 C1199 1.363 . S
C1204 C1203 1.415 . S
C1205 H1181 0.951 1_565 S
C1205 C1206 1.366 . S
C1205 C1207 1.388 . S
C1206 C1205 1.366 . S
C1206 C1210 1.385 . S
C1207 H1182 0.951 . S
C1207 C1205 1.388 . S
C1207 C1208 1.366 . S
C1208 C1207 1.366 . S
C1208 C1209 1.414 . S
C1208 C1211 1.499 . S
C1209 H1183 0.950 . S
C1209 C1208 1.414 . S
C1209 C1210 1.374 . S
C1210 H1184 0.950 . S
C1210 C1206 1.385 . S
C1210 C1209 1.374 . S
C1211 C1208 1.499 . S
C1211 C1212 1.373 . S
C1211 C1213 1.389 . S
C1212 H1185 0.950 . S
C1212 C1198 1.377 . S
C1212 C1211 1.373 . S
C1213 C1197 1.377 . S
C1213 C1211 1.389 . S
C1213 C1214 1.507 1_556 S
C1214 C1213 1.507 1_554 S
C1214 C1215 1.403 . S
C1214 C1219 1.373 . S
C1215 H1186 0.950 1_554 S
C1215 C1214 1.403 . S
C1215 C1216 1.334 . S
C1216 H1187 0.950 . S
C1216 C1215 1.334 . S
C1216 C1217 1.287 . S
C1217 C1216 1.287 . S
C1217 C1218 1.524 . S
C1217 H1220 0.999 . S
C1218 H1188 0.950 . S
C1218 C1217 1.524 . S
C1218 C1219 1.415 . S
C1219 H1189 0.950 . S
C1219 C1214 1.373 . S
C1219 C1218 1.415 . S
H1220 C1217 0.999 . S
H1221 C1202 0.913 . S
H1222 C1240 0.951 . S
H1223 C1242 0.951 . S
H1224 C1244 0.950 . S
H1225 C1245 0.950 . S
H1226 C1247 0.950 . S
H1227 C1250 0.950 . S
H1228 C1251 0.950 . S
H1229 C1253 0.950 . S
H1230 C1254 0.950 . S
H1231 C1255 0.951 . S
H1232 C1257 0.951 . S
H1233 C1259 0.950 . S
H1234 C1260 0.950 . S
H1235 C1262 0.950 . S
H1236 C1265 0.950 . S
H1237 C1266 0.950 . S
H1238 C1268 0.950 . S
H1239 C1269 0.950 . S
C1240 H1222 0.951 . S
C1240 C1241 1.366 . S
C1240 C1242 1.388 . S
C1241 C1240 1.366 . S
C1241 C1245 1.385 . S
C1242 H1223 0.951 . S
C1242 C1240 1.388 . S
C1242 C1243 1.366 . S
C1243 C1242 1.366 . S
C1243 C1244 1.414 . S
C1243 C1246 1.499 . S
C1244 H1224 0.950 . S
C1244 C1243 1.414 . S
C1244 C1245 1.374 . S
C1245 H1225 0.950 . S
C1245 C1241 1.385 . S
C1245 C1244 1.374 . S
C1246 C1243 1.499 . S
C1246 C1247 1.373 . S
C1246 C1248 1.389 . S
C1247 H1226 0.950 . S
C1247 C1246 1.373 . S
C1247 C1263 1.377 . S
C1248 C1246 1.389 . S
C1248 C1249 1.524 . S
C1248 C1262 1.377 . S
C1249 C1248 1.524 . S
C1249 C1250 1.397 . S
C1249 C1254 1.363 . S
C1250 H1227 0.950 . S
C1250 C1249 1.397 . S
C1250 C1251 1.334 . S
C1251 H1228 0.950 . S
C1251 C1250 1.334 . S
C1251 C1252 1.287 . S
C1252 C1251 1.287 . S
C1252 C1253 1.524 . S
C1252 H1271 0.913 . S
C1253 H1229 0.950 . S
C1253 C1252 1.524 . S
C1253 C1254 1.415 . S
C1254 H1230 0.950 . S
C1254 C1249 1.363 . S
C1254 C1253 1.415 . S
C1255 H1231 0.951 . S
C1255 C1256 1.366 . S
C1255 C1257 1.388 . S
C1256 C1255 1.366 . S
C1256 C1260 1.385 . S
C1257 H1232 0.951 . S
C1257 C1255 1.388 . S
C1257 C1258 1.366 . S
C1258 C1257 1.366 . S
C1258 C1259 1.414 . S
C1258 C1261 1.499 . S
C1259 H1233 0.950 . S
C1259 C1258 1.414 . S
C1259 C1260 1.374 . S
C1260 H1234 0.950 . S
C1260 C1256 1.385 . S
C1260 C1259 1.374 . S
C1261 C1258 1.499 . S
C1261 C1262 1.373 . S
C1261 C1263 1.389 . S
C1262 H1235 0.950 . S
C1262 C1248 1.377 . S
C1262 C1261 1.373 . S
C1263 C1247 1.377 . S
C1263 C1261 1.389 . S
C1263 C1264 1.524 . S
C1264 C1263 1.524 . S
C1264 C1265 1.397 . S
C1264 C1269 1.363 . S
C1265 H1236 0.950 . S
C1265 C1264 1.397 . S
C1265 C1266 1.334 1_545 S
C1266 H1237 0.950 . S
C1266 C1265 1.334 1_565 S
C1266 C1267 1.287 . S
C1267 C1266 1.287 . S
C1267 C1268 1.524 . S
C1267 H1270 0.999 . S
C1268 H1238 0.950 . S
C1268 C1267 1.524 . S
C1268 C1269 1.415 1_565 S
C1269 H1239 0.950 . S
C1269 C1264 1.363 . S
C1269 C1268 1.415 1_545 S
H1270 C1267 0.999 . S
H1271 C1252 0.913 . S
H1272 C1290 0.951 . S
H1273 C1292 0.951 . S
H1274 C1294 0.950 . S
H1275 C1295 0.950 . S
H1276 C1297 0.950 . S
H1277 C1300 0.950 . S
H1278 C1301 0.950 . S
H1279 C1303 0.950 . S
H1280 C1304 0.950 . S
H1281 C1305 0.951 1_556 S
H1282 C1307 0.951 . S
H1283 C1309 0.950 . S
H1284 C1310 0.950 . S
H1285 C1312 0.950 . S
H1286 C1315 0.950 . S
H1287 C1316 0.950 . S
H1288 C1318 0.950 . S
H1289 C1319 0.950 . S
C1290 H1272 0.951 . S
C1290 C1291 1.366 . S
C1290 C1292 1.388 . S
C1291 C1290 1.366 . S
C1291 C1295 1.385 . S
C1292 H1273 0.951 . S
C1292 C1290 1.388 . S
C1292 C1293 1.366 . S
C1293 C1292 1.366 . S
C1293 C1294 1.414 . S
C1293 C1296 1.499 . S
C1294 H1274 0.950 . S
C1294 C1293 1.414 . S
C1294 C1295 1.374 . S
C1295 H1275 0.950 . S
C1295 C1291 1.385 . S
C1295 C1294 1.374 . S
C1296 C1293 1.499 . S
C1296 C1297 1.373 . S
C1296 C1298 1.389 . S
C1297 H1276 0.950 . S
C1297 C1296 1.373 . S
C1297 C1313 1.377 . S
C1298 C1296 1.389 . S
C1298 C1299 1.524 . S
C1298 C1312 1.377 . S
C1299 C1298 1.524 . S
C1299 C1300 1.397 . S
C1299 C1304 1.363 . S
C1300 H1277 0.950 . S
C1300 C1299 1.397 . S
C1300 C1301 1.334 . S
C1301 H1278 0.950 . S
C1301 C1300 1.334 . S
C1301 C1302 1.287 . S
C1302 C1301 1.287 . S
C1302 C1303 1.524 . S
C1302 H1321 0.913 . S
C1303 H1279 0.950 . S
C1303 C1302 1.524 . S
C1303 C1304 1.415 . S
C1304 H1280 0.950 . S
C1304 C1299 1.363 . S
C1304 C1303 1.415 . S
C1305 H1281 0.951 1_554 S
C1305 C1306 1.366 . S
C1305 C1307 1.388 . S
C1306 C1305 1.366 . S
C1306 C1310 1.385 . S
C1307 H1282 0.951 . S
C1307 C1305 1.388 . S
C1307 C1308 1.366 . S
C1308 C1307 1.366 . S
C1308 C1309 1.414 . S
C1308 C1311 1.499 . S
C1309 H1283 0.950 . S
C1309 C1308 1.414 . S
C1309 C1310 1.374 . S
C1310 H1284 0.950 . S
C1310 C1306 1.385 . S
C1310 C1309 1.374 . S
C1311 C1308 1.499 . S
C1311 C1312 1.373 . S
C1311 C1313 1.389 . S
C1312 H1285 0.950 . S
C1312 C1298 1.377 . S
C1312 C1311 1.373 . S
C1313 C1297 1.377 . S
C1313 C1311 1.389 . S
C1313 C1314 1.524 . S
C1314 C1313 1.524 . S
C1314 C1315 1.397 . S
C1314 C1319 1.363 1_554 S
C1315 H1286 0.950 . S
C1315 C1314 1.397 . S
C1315 C1316 1.334 1_554 S
C1316 H1287 0.950 . S
C1316 C1315 1.334 1_556 S
C1316 C1317 1.287 . S
C1317 C1316 1.287 . S
C1317 C1318 1.524 . S
C1317 H1320 0.999 . S
C1318 H1288 0.950 . S
C1318 C1317 1.524 . S
C1318 C1319 1.415 . S
C1319 H1289 0.950 . S
C1319 C1314 1.363 1_556 S
C1319 C1318 1.415 . S
H1320 C1317 0.999 . S
H1321 C1302 0.913 . S
H1322 C1340 0.951 . S
H1323 C1342 0.951 . S
H1324 C1344 0.950 . S
H1325 C1345 0.950 . S
H1326 C1347 0.950 . S
H1327 C1350 0.950 . S
H1328 C1351 0.950 . S
H1329 C1353 0.950 . S
H1330 C1354 0.950 . S
H1331 C1355 0.951 . S
H1332 C1357 0.951 . S
H1333 C1359 0.950 . S
H1334 C1360 0.950 . S
H1335 C1362 0.950 . S
H1336 C1365 0.950 . S
H1337 C1366 0.950 . S
H1338 C1368 0.950 . S
H1339 C1369 0.950 . S
C1340 H1322 0.951 . S
C1340 C1341 1.366 . S
C1340 C1342 1.388 . S
C1341 C1340 1.366 . S
C1341 C1345 1.385 . S
C1342 H1323 0.951 . S
C1342 C1340 1.388 . S
C1342 C1343 1.366 . S
C1343 C1342 1.366 . S
C1343 C1344 1.414 . S
C1343 C1346 1.499 . S
C1344 H1324 0.950 . S
C1344 C1343 1.414 . S
C1344 C1345 1.374 . S
C1345 H1325 0.950 . S
C1345 C1341 1.385 . S
C1345 C1344 1.374 . S
C1346 C1343 1.499 . S
C1346 C1347 1.373 . S
C1346 C1348 1.389 . S
C1347 H1326 0.950 . S
C1347 C1346 1.373 . S
C1347 C1363 1.377 . S
C1348 C1346 1.389 . S
C1348 C1349 1.524 . S
C1348 C1362 1.377 . S
C1349 C1348 1.524 . S
C1349 C1350 1.397 . S
C1349 C1354 1.363 . S
C1350 H1327 0.950 . S
C1350 C1349 1.397 . S
C1350 C1351 1.334 . S
C1351 H1328 0.950 . S
C1351 C1350 1.334 . S
C1351 C1352 1.287 . S
C1352 C1351 1.287 . S
C1352 C1353 1.524 . S
C1352 H1371 0.913 . S
C1353 H1329 0.950 . S
C1353 C1352 1.524 . S
C1353 C1354 1.415 . S
C1354 H1330 0.950 . S
C1354 C1349 1.363 . S
C1354 C1353 1.415 . S
C1355 H1331 0.951 . S
C1355 C1356 1.366 . S
C1355 C1357 1.388 . S
C1356 C1355 1.366 . S
C1356 C1360 1.385 . S
C1357 H1332 0.951 . S
C1357 C1355 1.388 . S
C1357 C1358 1.366 . S
C1358 C1357 1.366 . S
C1358 C1359 1.414 . S
C1358 C1361 1.499 . S
C1359 H1333 0.950 . S
C1359 C1358 1.414 . S
C1359 C1360 1.374 . S
C1360 H1334 0.950 . S
C1360 C1356 1.385 . S
C1360 C1359 1.374 . S
C1361 C1358 1.499 . S
C1361 C1362 1.373 . S
C1361 C1363 1.389 . S
C1362 H1335 0.950 . S
C1362 C1348 1.377 . S
C1362 C1361 1.373 . S
C1363 C1347 1.377 . S
C1363 C1361 1.389 . S
C1363 C1364 1.524 . S
C1364 C1363 1.524 . S
C1364 C1365 1.397 . S
C1364 C1369 1.363 . S
C1365 H1336 0.950 . S
C1365 C1364 1.397 . S
C1365 C1366 1.334 . S
C1366 H1337 0.950 . S
C1366 C1365 1.334 . S
C1366 C1367 1.287 . S
C1367 C1366 1.287 . S
C1367 C1368 1.524 . S
C1367 H1370 0.999 . S
C1368 H1338 0.950 . S
C1368 C1367 1.524 . S
C1368 C1369 1.415 . S
C1369 H1339 0.950 . S
C1369 C1364 1.363 . S
C1369 C1368 1.415 . S
H1370 C1367 0.999 . S
H1371 C1352 0.913 . S
H1372 C1390 0.951 . S
H1373 C1392 0.951 . S
H1374 C1394 0.950 . S
H1375 C1395 0.950 . S
H1376 C1397 0.950 . S
H1377 C1400 0.950 . S
H1378 C1401 0.950 . S
H1379 C1403 0.950 . S
H1380 C1404 0.950 . S
H1381 C1405 0.951 1_554 S
H1382 C1407 0.951 . S
H1383 C1409 0.950 . S
H1384 C1410 0.950 . S
H1385 C1412 0.950 . S
H1386 C1415 0.950 1_655 S
H1387 C1416 0.950 . S
H1388 C1418 0.950 . S
H1389 C1419 0.950 . S
C1390 H1372 0.951 . S
C1390 C1391 1.366 . S
C1390 C1392 1.388 . S
C1391 C1390 1.366 . S
C1391 C1395 1.385 . S
C1392 H1373 0.951 . S
C1392 C1390 1.388 . S
C1392 C1393 1.366 . S
C1393 C1392 1.366 . S
C1393 C1394 1.414 . S
C1393 C1396 1.499 . S
C1394 H1374 0.950 . S
C1394 C1393 1.414 . S
C1394 C1395 1.374 . S
C1395 H1375 0.950 . S
C1395 C1391 1.385 . S
C1395 C1394 1.374 . S
C1396 C1393 1.499 . S
C1396 C1397 1.373 . S
C1396 C1398 1.389 . S
C1397 H1376 0.950 . S
C1397 C1396 1.373 . S
C1397 C1413 1.377 . S
C1398 C1396 1.389 . S
C1398 C1399 1.524 . S
C1398 C1412 1.377 . S
C1399 C1398 1.524 . S
C1399 C1400 1.397 . S
C1399 C1404 1.363 . S
C1400 H1377 0.950 . S
C1400 C1399 1.397 . S
C1400 C1401 1.334 . S
C1401 H1378 0.950 . S
C1401 C1400 1.334 . S
C1401 C1402 1.287 . S
C1402 C1401 1.287 . S
C1402 C1403 1.524 . S
C1402 H1421 0.913 . S
C1403 H1379 0.950 . S
C1403 C1402 1.524 . S
C1403 C1404 1.415 . S
C1404 H1380 0.950 . S
C1404 C1399 1.363 . S
C1404 C1403 1.415 . S
C1405 H1381 0.951 1_556 S
C1405 C1406 1.366 . S
C1405 C1407 1.388 . S
C1406 C1405 1.366 . S
C1406 C1410 1.385 . S
C1407 H1382 0.951 . S
C1407 C1405 1.388 . S
C1407 C1408 1.366 . S
C1408 C1407 1.366 . S
C1408 C1409 1.414 . S
C1408 C1411 1.499 . S
C1409 H1383 0.950 . S
C1409 C1408 1.414 . S
C1409 C1410 1.374 . S
C1410 H1384 0.950 . S
C1410 C1406 1.385 . S
C1410 C1409 1.374 . S
C1411 C1408 1.499 . S
C1411 C1412 1.373 . S
C1411 C1413 1.389 . S
C1412 H1385 0.950 . S
C1412 C1398 1.377 . S
C1412 C1411 1.373 . S
C1413 C1397 1.377 . S
C1413 C1411 1.389 . S
C1413 C1414 1.524 . S
C1414 C1413 1.524 . S
C1414 C1415 1.397 1_655 S
C1414 C1419 1.363 1_655 S
C1415 H1386 0.950 1_455 S
C1415 C1414 1.397 1_455 S
C1415 C1416 1.334 . S
C1416 H1387 0.950 . S
C1416 C1415 1.334 . S
C1416 C1417 1.287 . S
C1417 C1416 1.287 . S
C1417 C1418 1.524 . S
C1417 H1420 0.999 . S
C1418 H1388 0.950 . S
C1418 C1417 1.524 . S
C1418 C1419 1.415 . S
C1419 H1389 0.950 . S
C1419 C1414 1.363 1_455 S
C1419 C1418 1.415 . S
H1420 C1417 0.999 . S
H1421 C1402 0.913 . S
H1422 C1440 0.951 . S
H1423 C1442 0.951 . S
H1424 C1444 0.950 . S
H1425 C1445 0.950 . S
H1426 C1447 0.950 . S
H1427 C1450 0.950 . S
H1428 C1451 0.950 . S
H1429 C1453 0.950 . S
H1430 C1454 0.950 . S
H1431 C1455 0.951 . S
H1432 C1457 0.951 . S
H1433 C1459 0.950 . S
H1434 C1460 0.950 . S
H1435 C1462 0.950 . S
H1436 C1465 0.950 . S
H1437 C1466 0.950 . S
H1438 C1468 0.950 . S
H1439 C1469 0.950 . S
C1440 H1422 0.951 . S
C1440 C1441 1.366 . S
C1440 C1442 1.388 . S
C1441 C1440 1.366 . S
C1441 C1445 1.385 . S
C1442 H1423 0.951 . S
C1442 C1440 1.388 . S
C1442 C1443 1.366 . S
C1443 C1442 1.366 . S
C1443 C1444 1.414 . S
C1443 C1446 1.499 . S
C1444 H1424 0.950 . S
C1444 C1443 1.414 . S
C1444 C1445 1.374 . S
C1445 H1425 0.950 . S
C1445 C1441 1.385 . S
C1445 C1444 1.374 . S
C1446 C1443 1.499 . S
C1446 C1447 1.373 . S
C1446 C1448 1.389 . S
C1447 H1426 0.950 . S
C1447 C1446 1.373 . S
C1447 C1463 1.377 . S
C1448 C1446 1.389 . S
C1448 C1449 1.524 . S
C1448 C1462 1.377 . S
C1449 C1448 1.524 . S
C1449 C1450 1.397 . S
C1449 C1454 1.363 . S
C1450 H1427 0.950 . S
C1450 C1449 1.397 . S
C1450 C1451 1.334 . S
C1451 H1428 0.950 . S
C1451 C1450 1.334 . S
C1451 C1452 1.287 1_554 S
C1452 C1451 1.287 1_556 S
C1452 C1453 1.524 . S
C1452 H1471 0.913 . S
C1453 H1429 0.950 . S
C1453 C1452 1.524 . S
C1453 C1454 1.415 1_556 S
C1454 H1430 0.950 . S
C1454 C1449 1.363 . S
C1454 C1453 1.415 1_554 S
C1455 H1431 0.951 . S
C1455 C1456 1.366 . S
C1455 C1457 1.388 . S
C1456 C1455 1.366 . S
C1456 C1460 1.385 . S
C1457 H1432 0.951 . S
C1457 C1455 1.388 . S
C1457 C1458 1.366 . S
C1458 C1457 1.366 . S
C1458 C1459 1.414 . S
C1458 C1461 1.499 . S
C1459 H1433 0.950 . S
C1459 C1458 1.414 . S
C1459 C1460 1.374 . S
C1460 H1434 0.950 . S
C1460 C1456 1.385 . S
C1460 C1459 1.374 . S
C1461 C1458 1.499 . S
C1461 C1462 1.373 . S
C1461 C1463 1.389 . S
C1462 H1435 0.950 . S
C1462 C1448 1.377 . S
C1462 C1461 1.373 . S
C1463 C1447 1.377 . S
C1463 C1461 1.389 . S
C1463 C1464 1.524 . S
C1464 C1463 1.524 . S
C1464 C1465 1.397 . S
C1464 C1469 1.363 . S
C1465 H1436 0.950 . S
C1465 C1464 1.397 . S
C1465 C1466 1.334 . S
C1466 H1437 0.950 . S
C1466 C1465 1.334 . S
C1466 C1467 1.287 . S
C1467 C1466 1.287 . S
C1467 C1468 1.524 . S
C1467 H1470 0.999 . S
C1468 H1438 0.950 . S
C1468 C1467 1.524 . S
C1468 C1469 1.415 . S
C1469 H1439 0.950 . S
C1469 C1464 1.363 . S
C1469 C1468 1.415 . S
H1470 C1467 0.999 . S
H1471 C1452 0.913 . S
H1472 C1490 0.951 . S
H1473 C1492 0.951 . S
H1474 C1494 0.950 . S
H1475 C1495 0.950 . S
H1476 C1497 0.950 . S
H1477 C1500 0.950 . S
H1478 C1501 0.950 . S
H1479 C1503 0.950 . S
H1480 C1504 0.950 . S
H1481 C1505 0.951 . S
H1482 C1507 0.951 . S
H1483 C1509 0.950 . S
H1484 C1510 0.950 . S
H1485 C1512 0.950 . S
H1486 C1515 0.950 . S
H1487 C1516 0.950 . S
H1488 C1518 0.950 . S
H1489 C1519 0.950 . S
C1490 H1472 0.951 . S
C1490 C1491 1.366 . S
C1490 C1492 1.388 . S
C1491 C1490 1.366 . S
C1491 C1495 1.385 . S
C1492 H1473 0.951 . S
C1492 C1490 1.388 . S
C1492 C1493 1.366 . S
C1493 C1492 1.366 . S
C1493 C1494 1.414 . S
C1493 C1496 1.499 . S
C1494 H1474 0.950 . S
C1494 C1493 1.414 . S
C1494 C1495 1.374 . S
C1495 H1475 0.950 . S
C1495 C1491 1.385 . S
C1495 C1494 1.374 . S
C1496 C1493 1.499 . S
C1496 C1497 1.373 . S
C1496 C1498 1.389 . S
C1497 H1476 0.950 . S
C1497 C1496 1.373 . S
C1497 C1513 1.377 . S
C1498 C1496 1.389 . S
C1498 C1499 1.524 . S
C1498 C1512 1.377 . S
C1499 C1498 1.524 . S
C1499 C1500 1.397 . S
C1499 C1504 1.363 . S
C1500 H1477 0.950 . S
C1500 C1499 1.397 . S
C1500 C1501 1.334 . S
C1501 H1478 0.950 . S
C1501 C1500 1.334 . S
C1501 C1502 1.287 . S
C1502 C1501 1.287 . S
C1502 C1503 1.524 . S
C1502 H1521 0.913 . S
C1503 H1479 0.950 . S
C1503 C1502 1.524 . S
C1503 C1504 1.415 . S
C1504 H1480 0.950 . S
C1504 C1499 1.363 . S
C1504 C1503 1.415 . S
C1505 H1481 0.951 . S
C1505 C1506 1.366 . S
C1505 C1507 1.388 . S
C1506 C1505 1.366 . S
C1506 C1510 1.385 . S
C1507 H1482 0.951 . S
C1507 C1505 1.388 . S
C1507 C1508 1.366 . S
C1508 C1507 1.366 . S
C1508 C1509 1.414 . S
C1508 C1511 1.499 . S
C1509 H1483 0.950 . S
C1509 C1508 1.414 . S
C1509 C1510 1.374 . S
C1510 H1484 0.950 . S
C1510 C1506 1.385 . S
C1510 C1509 1.374 . S
C1511 C1508 1.499 . S
C1511 C1512 1.373 . S
C1511 C1513 1.389 . S
C1512 H1485 0.950 . S
C1512 C1498 1.377 . S
C1512 C1511 1.373 . S
C1513 C1497 1.377 . S
C1513 C1511 1.389 . S
C1513 C1514 1.524 1_455 S
C1514 C1513 1.524 1_655 S
C1514 C1515 1.397 . S
C1514 C1519 1.363 . S
C1515 H1486 0.950 . S
C1515 C1514 1.397 . S
C1515 C1516 1.334 . S
C1516 H1487 0.950 . S
C1516 C1515 1.334 . S
C1516 C1517 1.287 . S
C1517 C1516 1.287 . S
C1517 C1518 1.524 . S
C1517 H1520 0.999 . S
C1518 H1488 0.950 . S
C1518 C1517 1.524 . S
C1518 C1519 1.415 . S
C1519 H1489 0.950 . S
C1519 C1514 1.363 . S
C1519 C1518 1.415 . S
H1520 C1517 0.999 . S
H1521 C1502 0.913 . S
H1522 C1540 0.951 . S
H1523 C1542 0.951 . S
H1524 C1544 0.950 . S
H1525 C1545 0.950 . S
H1526 C1547 0.950 . S
H1527 C1550 0.950 . S
H1528 C1551 0.950 . S
H1529 C1553 0.950 . S
H1530 C1554 0.950 . S
H1531 C1555 0.951 . S
H1532 C1557 0.951 . S
H1533 C1559 0.950 . S
H1534 C1560 0.950 . S
H1535 C1562 0.950 . S
H1536 C1565 0.950 . S
H1537 C1566 0.950 . S
H1538 C1568 0.950 . S
H1539 C1569 0.950 . S
C1540 H1522 0.951 . S
C1540 C1541 1.366 . S
C1540 C1542 1.388 . S
C1541 C1540 1.366 . S
C1541 C1545 1.385 . S
C1542 H1523 0.951 . S
C1542 C1540 1.388 . S
C1542 C1543 1.366 . S
C1543 C1542 1.366 . S
C1543 C1544 1.414 . S
C1543 C1546 1.499 . S
C1544 H1524 0.950 . S
C1544 C1543 1.414 . S
C1544 C1545 1.374 . S
C1545 H1525 0.950 . S
C1545 C1541 1.385 . S
C1545 C1544 1.374 . S
C1546 C1543 1.499 . S
C1546 C1547 1.373 . S
C1546 C1548 1.389 . S
C1547 H1526 0.950 . S
C1547 C1546 1.373 . S
C1547 C1563 1.377 . S
C1548 C1546 1.389 . S
C1548 C1549 1.524 . S
C1548 C1562 1.377 . S
C1549 C1548 1.524 . S
C1549 C1550 1.397 . S
C1549 C1554 1.363 . S
C1550 H1527 0.950 . S
C1550 C1549 1.397 . S
C1550 C1551 1.334 . S
C1551 H1528 0.950 . S
C1551 C1550 1.334 . S
C1551 C1552 1.287 . S
C1552 C1551 1.287 . S
C1552 C1553 1.524 . S
C1552 H1571 0.913 . S
C1553 H1529 0.950 . S
C1553 C1552 1.524 . S
C1553 C1554 1.415 . S
C1554 H1530 0.950 . S
C1554 C1549 1.363 . S
C1554 C1553 1.415 . S
C1555 H1531 0.951 . S
C1555 C1556 1.366 . S
C1555 C1557 1.388 . S
C1556 C1555 1.366 . S
C1556 C1560 1.385 . S
C1557 H1532 0.951 . S
C1557 C1555 1.388 . S
C1557 C1558 1.366 . S
C1558 C1557 1.366 . S
C1558 C1559 1.414 . S
C1558 C1561 1.499 . S
C1559 H1533 0.950 . S
C1559 C1558 1.414 . S
C1559 C1560 1.374 . S
C1560 H1534 0.950 . S
C1560 C1556 1.385 . S
C1560 C1559 1.374 . S
C1561 C1558 1.499 . S
C1561 C1562 1.373 . S
C1561 C1563 1.389 . S
C1562 H1535 0.950 . S
C1562 C1548 1.377 . S
C1562 C1561 1.373 . S
C1563 C1547 1.377 . S
C1563 C1561 1.389 . S
C1563 C1564 1.524 . S
C1564 C1563 1.524 . S
C1564 C1565 1.397 . S
C1564 C1569 1.363 . S
C1565 H1536 0.950 . S
C1565 C1564 1.397 . S
C1565 C1566 1.334 . S
C1566 H1537 0.950 . S
C1566 C1565 1.334 . S
C1566 C1567 1.287 . S
C1567 C1566 1.287 . S
C1567 C1568 1.524 . S
C1567 H1570 0.999 . S
C1568 H1538 0.950 . S
C1568 C1567 1.524 . S
C1568 C1569 1.415 . S
C1569 H1539 0.950 . S
C1569 C1564 1.363 . S
C1569 C1568 1.415 . S
H1570 C1567 0.999 . S
H1571 C1552 0.913 . S
C391 C1 1.630 . S
C406 C304 1.595 . S
C441 C67 1.482 . S
C456 C326 1.440 . S
C506 C345 1.172 . S
C491 C97 1.384 . S
C541 C133 1.874 . S
C556 C366 1.539 . S
C606 C323 1.819 . S
C591 C25 1.858 . S
C656 C301 1.696 . S
C641 C37 1.731 . S
C706 C368 1.253 . S
C691 C103 1.301 . S
C756 C347 1.409 . S
C741 C109 1.465 . S
C791 C31 1.792 . S
C806 C365 1.754 . S
C856 C324 1.318 . S
C841 C73 1.585 . S
C891 C139 1.712 . S
C906 C306 1.520 . S
C941 C61 1.485 . S
C956 C344 1.481 . S
C1006 C302 1.604 . S
C991 C175 1.676 . S
C1041 C181 1.265 . S
C1056 C322 1.239 . S
C1091 C247 1.507 . S
C1106 C348 1.271 . S
C1141 C277 1.766 . S
C1156 C369 1.434 . S
C1191 C145 1.809 . S
C1206 C325 1.764 . S
C1256 C305 1.774 . S
C1241 C211 1.821 . S
C1306 C364 1.128 . S
C1291 C217 1.175 . S
C1356 C343 1.532 . S
C1341 C283 1.591 . S
C1391 C169 1.582 . S
C1406 C367 1.537 . S
C1456 C327 1.249 . S
C1441 C241 1.495 . S
C1506 C303 1.299 . S
C1491 C253 1.471 . S
C1541 C205 1.428 . S
C1556 C346 1.415 . S
