# Generated by pormake.
# Topology nom, (4,4)-cn, num edge types: 1
# Building blocks:
#     Node 0, Type 0, BuildingBlock: KUFVIS_clean_linker_0, # of connection points: 4
#     Node 1, Type 0, BuildingBlock: KUFVIS_clean_linker_0, # of connection points: 4
#     Node 2, Type 0, BuildingBlock: KUFVIS_clean_linker_0, # of connection points: 4
#     Node 3, Type 0, BuildingBlock: KUFVIS_clean_linker_0, # of connection points: 4
#     Node 4, Type 0, BuildingBlock: KUFVIS_clean_linker_0, # of connection points: 4
#     Node 5, Type 0, BuildingBlock: KUFVIS_clean_linker_0, # of connection points: 4
#     Node 6, Type 1, BuildingBlock: TATPOV_clean_sbu_0, # of connection points: 4
#     Node 7, Type 1, BuildingBlock: TATPOV_clean_sbu_0, # of connection points: 4
#     Node 8, Type 1, BuildingBlock: TATPOV_clean_sbu_0, # of connection points: 4
#     Node 9, Type 1, BuildingBlock: TATPOV_clean_sbu_0, # of connection points: 4
#     Node 10, Type 1, BuildingBlock: TATPOV_clean_sbu_0, # of connection points: 4
#     Node 11, Type 1, BuildingBlock: TATPOV_clean_sbu_0, # of connection points: 4
#     Edge 12, Type (0, 1), BuildingBlock: XIVTED_clean_linker_0, # of connection points: 2
#     Edge 13, Type (0, 1), BuildingBlock: XIVTED_clean_linker_0, # of connection points: 2
#     Edge 14, Type (0, 1), BuildingBlock: XIVTED_clean_linker_0, # of connection points: 2
#     Edge 15, Type (0, 1), BuildingBlock: XIVTED_clean_linker_0, # of connection points: 2
#     Edge 16, Type (0, 1), BuildingBlock: XIVTED_clean_linker_0, # of connection points: 2
#     Edge 17, Type (0, 1), BuildingBlock: XIVTED_clean_linker_0, # of connection points: 2
#     Edge 18, Type (0, 1), BuildingBlock: XIVTED_clean_linker_0, # of connection points: 2
#     Edge 19, Type (0, 1), BuildingBlock: XIVTED_clean_linker_0, # of connection points: 2
#     Edge 20, Type (0, 1), BuildingBlock: XIVTED_clean_linker_0, # of connection points: 2
#     Edge 21, Type (0, 1), BuildingBlock: XIVTED_clean_linker_0, # of connection points: 2
#     Edge 22, Type (0, 1), BuildingBlock: XIVTED_clean_linker_0, # of connection points: 2
#     Edge 23, Type (0, 1), BuildingBlock: XIVTED_clean_linker_0, # of connection points: 2
#     Edge 24, Type (0, 1), BuildingBlock: XIVTED_clean_linker_0, # of connection points: 2
#     Edge 25, Type (0, 1), BuildingBlock: XIVTED_clean_linker_0, # of connection points: 2
#     Edge 26, Type (0, 1), BuildingBlock: XIVTED_clean_linker_0, # of connection points: 2
#     Edge 27, Type (0, 1), BuildingBlock: XIVTED_clean_linker_0, # of connection points: 2
#     Edge 28, Type (0, 1), BuildingBlock: XIVTED_clean_linker_0, # of connection points: 2
#     Edge 29, Type (0, 1), BuildingBlock: XIVTED_clean_linker_0, # of connection points: 2
#     Edge 30, Type (0, 1), BuildingBlock: XIVTED_clean_linker_0, # of connection points: 2
#     Edge 31, Type (0, 1), BuildingBlock: XIVTED_clean_linker_0, # of connection points: 2
#     Edge 32, Type (0, 1), BuildingBlock: XIVTED_clean_linker_0, # of connection points: 2
#     Edge 33, Type (0, 1), BuildingBlock: XIVTED_clean_linker_0, # of connection points: 2
#     Edge 34, Type (0, 1), BuildingBlock: XIVTED_clean_linker_0, # of connection points: 2
#     Edge 35, Type (0, 1), BuildingBlock: XIVTED_clean_linker_0, # of connection points: 2
# Relax obj value: 0.020
# Max RMSD: 0.118
# Mean RMSD: 0.080
data_MOF--net-nom--node1-TATPOV_clean_sbu_0--node2-KUFVIS_clean_linker_0--edge1-XIVTED_clean_linker_0
_symmetry_space_group_name_H-M    P1
_symmetry_Int_Tables_number       1
_symmetry_cell_setting            triclinic
loop_
_symmetry_equiv_pos_as_xyz
'x, y, z'
_cell_length_a     44.517976
_cell_length_b     45.068627
_cell_length_c     48.398402
_cell_angle_alpha  90.82639
_cell_angle_beta   91.135364
_cell_angle_gamma 119.97198
loop_
_atom_site_label
_atom_site_type_symbol
_atom_site_fract_x
_atom_site_fract_y
_atom_site_fract_z
_atom_type_partial_charge
H0 H 0.1615 0.57191 0.30977 0.0
H1 H 0.07443 0.51182 0.25492 0.0
H2 H 0.05987 0.52561 0.34159 0.0
H3 H 1.01185 0.47894 0.33719 0.0
H4 H 0.92196 0.43611 0.28406 0.0
H5 H 1.02128 0.50113 0.24998 0.0
C6 C 0.13378 0.55498 0.30655 0.0
C7 C 0.112 0.54834 0.32875 0.0
C8 C 0.12019 0.54282 0.27986 0.0
C9 C 0.08413 0.52176 0.27563 0.0
C10 C 0.06132 0.51406 0.2979 0.0
C11 C 0.07601 0.52872 0.32426 0.0
C12 C 1.02252 0.49186 0.29378 0.0
C13 C 1.00107 0.4763 0.31651 0.0
C14 C 0.96486 0.4576 0.31318 0.0
C15 C 0.94989 0.45143 0.28658 0.0
C16 C 0.96999 0.46708 0.26363 0.0
C17 C 1.00623 0.48749 0.26743 0.0
H18 H 0.57712 0.15974 0.47176 0.0
H19 H 0.53973 0.08125 0.4082 0.0
H20 H 0.55386 0.05859 0.49258 0.0
H21 H 0.50586 1.00841 0.4798 0.0
H22 H 0.50165 0.93298 0.42236 0.0
H23 H 0.55051 0.03786 0.39949 0.0
C24 C 0.56872 0.13346 0.46549 0.0
C25 C 0.56619 0.11013 0.48527 0.0
C26 C 0.55957 0.12319 0.43779 0.0
C27 C 0.54763 0.08898 0.42961 0.0
C28 C 0.54501 0.06491 0.44931 0.0
C29 C 0.55479 0.07613 0.4771 0.0
C30 C 0.53193 0.02815 0.4414 0.0
C31 C 0.51305 1.00204 0.46032 0.0
C32 C 0.50183 0.9675 0.4537 0.0
C33 C 0.50987 0.95938 0.42782 0.0
C34 C 0.52565 0.98426 0.40784 0.0
C35 C 0.5374 1.01872 0.41487 0.0
H36 H 0.56795 0.46535 0.60508 0.0
H37 H 0.51842 0.5005 0.66095 0.0
H38 H 0.53724 0.53639 0.57698 0.0
H39 H 0.48667 0.53862 0.58518 0.0
H40 H 0.46487 0.59549 0.64531 0.0
H41 H 0.5304 0.55493 0.66838 0.0
C42 C 0.55606 0.48087 0.60916 0.0
C43 C 0.55271 0.49975 0.58791 0.0
C44 C 0.54457 0.48177 0.63559 0.0
C45 C 0.52847 0.50117 0.64063 0.0
C46 C 0.52591 0.52161 0.61975 0.0
C47 C 0.53842 0.52079 0.59331 0.0
C48 C 0.51069 0.54395 0.62593 0.0
C49 C 0.49092 0.54988 0.60582 0.0
C50 C 0.47507 0.56913 0.61281 0.0
C51 C 0.47866 0.58219 0.63981 0.0
C52 C 0.49796 0.57653 0.66005 0.0
C53 C 0.51469 0.55832 0.65277 0.0
H54 H 0.12757 0.57051 0.76122 0.0
H55 H 0.04805 0.50694 0.81627 0.0
H56 H 1.02162 0.51979 0.73225 0.0
H57 H 0.97553 0.46689 0.73856 0.0
H58 H 0.89483 0.42642 0.79744 0.0
H59 H 0.99722 0.50301 0.82408 0.0
C60 C 0.10028 0.55414 0.76535 0.0
C61 C 0.0757 0.54586 0.74394 0.0
C62 C 0.09042 0.54097 0.79163 0.0
C63 C 0.05518 0.51832 0.7962 0.0
C64 C 0.0295 0.5105 0.7751 0.0
C65 C 0.04032 0.52487 0.74888 0.0
C66 C 0.9918 0.48755 0.7807 0.0
C67 C 0.96752 0.46667 0.75956 0.0
C68 C 0.93258 0.44462 0.76572 0.0
C69 C 0.92194 0.44302 0.79288 0.0
C70 C 0.9452 0.46371 0.81392 0.0
C71 C 0.9798 0.48636 0.80769 0.0
H72 H 0.52259 0.90713 -0.01902 0.0
H73 H 0.56927 0.98541 0.92121 0.0
H74 H 0.55792 1.01129 0.00557 0.0
H75 H 0.60935 0.05956 -0.00301 0.0
H76 H 0.63223 0.13763 0.93826 0.0
H77 H 0.56392 0.03261 0.91394 0.0
C78 C 0.53544 0.93404 -0.02406 0.0
C79 C 0.54018 0.95831 -0.00366 0.0
C80 C 0.54515 0.94351 0.94883 0.0
C81 C 0.56102 0.9783 0.94216 0.0
C82 C 0.56682 1.0036 0.9627 0.0
C83 C 0.55533 0.99292 -0.01032 0.0
C84 C 0.58465 0.04092 0.95616 0.0
C85 C 0.60569 0.06649 -0.02361 0.0
C86 C 0.62291 0.10134 0.96984 0.0
C87 C 0.61944 0.11067 0.94311 0.0
C88 C 0.59851 0.08608 0.92294 0.0
C89 C 0.58076 0.05133 0.92956 0.0
H90 H 0.50763 0.61901 0.12482 0.0
H91 H 0.54916 0.5767 0.18241 0.0
H92 H 0.5203 0.53499 0.09857 0.0
H93 H 0.56453 0.52595 0.10452 0.0
H94 H 0.58561 0.46646 0.16141 0.0
H95 H 0.54016 0.52467 0.19078 0.0
C96 C 0.51643 0.60097 0.12917 0.0
C97 C 0.51392 0.57793 0.10844 0.0
C98 C 0.52832 0.60001 0.15586 0.0
C99 C 0.53897 0.5762 0.16183 0.0
C100 C 0.53706 0.55269 0.1411 0.0
C101 C 0.52349 0.5534 0.11461 0.0
C102 C 0.54943 0.52779 0.1467 0.0
C103 C 0.56257 0.51635 0.12515 0.0
C104 C 0.57446 0.49326 0.13015 0.0
C105 C 0.57413 0.48227 0.15707 0.0
C106 C 0.56277 0.49432 0.17899 0.0
C107 C 0.54966 0.51633 0.17366 0.0
Zn108 Zn 0.73272 0.49734 0.39108 0.0
Zn109 Zn 0.6909 0.42875 0.38995 0.0
O110 O 0.74108 0.43765 0.39025 0.0
O111 O 0.77599 0.49343 0.39228 0.0
O112 O 0.66443 0.37701 0.38901 0.0
O113 O 0.71034 0.49993 0.42603 0.0
O114 O 0.67505 0.44399 0.42443 0.0
C115 C 0.77167 0.46347 0.39142 0.0
C116 C 0.68391 0.47082 0.34422 0.0
O117 O 0.67428 0.44193 0.355 0.0
O118 O 0.70899 0.4979 0.35505 0.0
C119 C 0.63175 0.35737 0.38689 0.0
O120 O 0.61145 0.37075 0.38568 0.0
C121 C 0.68518 0.47338 0.43573 0.0
Zn122 Zn 0.25192 0.72595 0.54872 0.0
Zn123 Zn 0.28487 0.68875 0.55204 0.0
O124 O 0.32401 0.73906 0.55088 0.0
O125 O 0.29819 0.76991 0.55119 0.0
O126 O 0.31014 0.66202 0.55642 0.0
O127 O 0.22541 0.70382 0.58269 0.0
O128 O 0.25161 0.67335 0.58449 0.0
C129 C 0.32569 0.76815 0.55094 0.0
C130 C 0.23765 0.67833 0.50225 0.0
O131 O 0.25798 0.67097 0.51546 0.0
O132 O 0.23155 0.70113 0.5117 0.0
C133 C 0.33617 0.66791 0.54214 0.0
O134 O 0.34718 0.69211 0.52383 0.0
C135 C 0.22954 0.68082 0.59384 0.0
Zn136 Zn 0.54797 0.22784 0.71787 0.0
Zn137 Zn 0.61878 0.26566 0.71698 0.0
O138 O 0.60401 0.30238 0.71713 0.0
O139 O 0.54698 0.27226 0.71838 0.0
O140 O 0.67133 0.29157 0.71782 0.0
O141 O 0.5508 0.20589 0.75304 0.0
O142 O 0.60774 0.23565 0.75103 0.0
C143 C 0.57468 0.30098 0.71765 0.0
C144 C 0.57784 0.21413 0.67011 0.0
O145 O 0.60638 0.23735 0.68109 0.0
O146 O 0.54941 0.20556 0.68161 0.0
C147 C 0.69041 0.31745 0.7035 0.0
O148 O 0.67588 0.32993 0.68703 0.0
C149 C 0.58047 0.21335 0.76267 0.0
Zn150 Zn 0.35856 0.56325 0.88287 0.0
Zn151 Zn 0.3912 0.6318 0.88612 0.0
O152 O 0.33921 0.61835 0.88114 0.0
O153 O 0.31314 0.56194 0.87924 0.0
O154 O 0.41902 0.68373 0.89077 0.0
O155 O 0.37656 0.55994 0.91988 0.0
O156 O 0.40472 0.61634 0.92222 0.0
C157 C 0.31147 0.58915 0.87897 0.0
C158 C 0.40773 0.59501 0.84025 0.0
O159 O 0.41193 0.6226 0.85158 0.0
O160 O 0.38624 0.56625 0.84974 0.0
C161 C 0.4151 0.70558 0.87713 0.0
O162 O 0.38998 0.69487 0.85826 0.0
C163 C 0.39721 0.58767 0.93267 0.0
Zn164 Zn 0.82354 0.48051 0.04361 0.0
Zn165 Zn 0.78742 0.41109 0.04078 0.0
O166 O 0.74827 0.42285 0.04511 0.0
O167 O 0.77809 0.47932 0.04773 0.0
O168 O 0.76379 0.35926 0.03601 0.0
O169 O 0.84237 0.48335 0.00623 0.0
O170 O 0.81482 0.42694 0.00478 0.0
C171 C 0.74928 0.45159 0.04755 0.0
C172 C 0.84332 0.44947 0.08628 0.0
O173 O 0.81868 0.42166 0.07564 0.0
O174 O 0.85096 0.47805 0.07618 0.0
C175 C 0.73723 0.33682 0.04822 0.0
O176 O 0.72185 0.34675 0.06598 0.0
C177 C 0.83501 0.45554 -0.00614 0.0
Zn178 Zn 0.36019 0.80624 0.2008 0.0
Zn179 Zn 0.4011 0.77747 0.20368 0.0
O180 O 0.35119 0.7363 0.20498 0.0
O181 O 0.31758 0.75907 0.20167 0.0
O182 O 0.43132 0.75579 0.20466 0.0
O183 O 0.38127 0.82731 0.1647 0.0
O184 O 0.41494 0.80456 0.16796 0.0
C185 C 0.32098 0.7329 0.20367 0.0
C186 C 0.41034 0.83171 0.24675 0.0
O187 O 0.41862 0.8104 0.23717 0.0
O188 O 0.38553 0.83389 0.2356 0.0
C189 C 0.4271 0.73264 0.22144 0.0
O190 O 0.40194 0.72194 0.23909 0.0
C191 C 0.40546 0.82335 0.15541 0.0
H192 H 0.18019 0.54167 0.27179 0.0
H193 H 0.25344 0.71499 0.19261 0.0
H194 H 0.1158 0.57878 0.23683 0.0
H195 H 0.31695 0.67269 0.21948 0.0
H196 H 0.20167 0.66042 0.20129 0.0
H197 H 0.2285 0.58271 0.24464 0.0
C198 C 0.17592 0.55764 0.25755 0.0
C199 C 0.14414 0.55713 0.25669 0.0
C200 C 0.22688 0.66283 0.20494 0.0
C201 C 0.19952 0.60497 0.22635 0.0
C202 C 0.25653 0.69411 0.20011 0.0
C203 C 0.28965 0.69866 0.2058 0.0
C204 C 0.23024 0.63593 0.21594 0.0
C205 C 0.29196 0.67047 0.21508 0.0
C206 C 0.20358 0.5813 0.24225 0.0
C207 C 0.1399 0.57838 0.23806 0.0
N208 N 0.26266 0.64049 0.22029 0.0
N209 N 0.16754 0.60203 0.22411 0.0
H210 H 0.61185 0.15863 0.4027 0.0
H211 H 0.56376 0.30715 0.39235 0.0
H212 H 0.51651 0.14909 0.4312 0.0
H213 H 0.66617 0.3217 0.38104 0.0
H214 H 0.54129 0.24544 0.39595 0.0
H215 H 0.62656 0.2139 0.38286 0.0
C216 C 0.59342 0.16762 0.40375 0.0
C217 C 0.56285 0.14938 0.41827 0.0
C218 C 0.56861 0.26215 0.39239 0.0
C219 C 0.57986 0.21285 0.3967 0.0
C220 C 0.58146 0.29737 0.39035 0.0
C221 C 0.617 0.31972 0.38682 0.0
C222 C 0.59143 0.24916 0.3907 0.0
C223 C 0.63867 0.30554 0.38418 0.0
C224 C 0.60197 0.19932 0.3928 0.0
C225 C 0.54015 0.1624 0.41982 0.0
N226 N 0.62559 0.27125 0.38636 0.0
N227 N 0.5493 0.19358 0.40949 0.0
H228 H 0.40493 0.53619 0.61145 0.0
H229 H 0.39823 0.68037 0.52134 0.0
H230 H 0.49402 0.61589 0.57206 0.0
H231 H 0.31649 0.61157 0.57383 0.0
H232 H 0.43012 0.65048 0.53203 0.0
H233 H 0.36844 0.55586 0.5891 0.0
C234 C 0.4165 0.55714 0.59727 0.0
C235 C 0.45232 0.57427 0.59325 0.0
C236 C 0.40507 0.64177 0.54101 0.0
C237 C 0.41118 0.59782 0.56846 0.0
C238 C 0.38683 0.65882 0.53493 0.0
C239 C 0.35476 0.64871 0.54695 0.0
C240 C 0.39107 0.61426 0.55909 0.0
C241 C 0.34126 0.62051 0.56431 0.0
C242 C 0.39582 0.56865 0.5848 0.0
C243 C 0.46637 0.60178 0.57528 0.0
N244 N 0.35953 0.60442 0.56995 0.0
N245 N 0.44582 0.61302 0.56376 0.0
H246 H 0.9066 0.46741 0.72503 0.0
H247 H 0.72822 0.29192 0.72809 0.0
H248 H 0.89493 0.37532 0.76053 0.0
H249 H 0.73996 0.3796 0.68419 0.0
H250 H 0.79103 0.32003 0.73451 0.0
H251 H 0.84867 0.43381 0.70296 0.0
C252 C 0.89241 0.43986 0.72713 0.0
C253 C 0.90543 0.42398 0.74447 0.0
C254 C 0.78001 0.33309 0.72323 0.0
C255 C 0.83883 0.38567 0.7204 0.0
C256 C 0.74403 0.31707 0.71969 0.0
C257 C 0.72871 0.3336 0.7059 0.0
C258 C 0.80102 0.36617 0.71326 0.0
C259 C 0.75063 0.36601 0.69515 0.0
C260 C 0.85915 0.42074 0.71489 0.0
C261 C 0.88576 0.38838 0.74715 0.0
N262 N 0.78564 0.38143 0.69937 0.0
N263 N 0.85323 0.37053 0.73568 0.0
H264 H 0.4981 0.92294 0.90554 0.0
H265 H 0.4755 0.73622 0.90831 0.0
H266 H 0.5693 0.89888 0.94724 0.0
H267 H 0.40929 0.75995 0.85832 0.0
H268 H 0.51334 0.79715 0.91872 0.0
H269 H 0.46962 0.86587 0.88276 0.0
C270 C 0.50859 0.90613 0.90898 0.0
C271 C 0.53613 0.91556 0.92813 0.0
C272 C 0.4907 0.78917 0.9053 0.0
C273 C 0.50305 0.84998 0.90314 0.0
C274 C 0.46892 0.75425 0.89945 0.0
C275 C 0.4389 0.74281 0.88263 0.0
C276 C 0.48237 0.81307 0.89455 0.0
C277 C 0.43203 0.76755 0.87152 0.0
C278 C 0.49205 0.87339 0.89632 0.0
C279 C 0.54824 0.89257 0.93246 0.0
N280 N 0.45337 0.80147 0.87791 0.0
N281 N 0.53132 0.86072 0.92043 0.0
H282 H 0.62176 0.53482 0.09284 0.0
H283 H 0.68481 0.40043 0.06255 0.0
H284 H 0.56686 0.43003 0.11879 0.0
H285 H 0.74108 0.50712 0.04159 0.0
H286 H 0.63537 0.40726 0.07497 0.0
H287 H 0.65872 0.52134 0.06501 0.0
C288 C 0.61686 0.50874 0.09212 0.0
C289 C 0.59153 0.48365 0.1085 0.0
C290 C 0.6584 0.42902 0.06728 0.0
C291 C 0.63442 0.46821 0.07729 0.0
C292 C 0.68658 0.4251 0.06016 0.0
C293 C 0.71734 0.45339 0.05152 0.0
C294 C 0.66107 0.4614 0.06564 0.0
C295 C 0.71814 0.48475 0.04866 0.0
C296 C 0.63823 0.5011 0.07643 0.0
C297 C 0.5866 0.45032 0.10689 0.0
N298 N 0.69063 0.48797 0.05596 0.0
N299 N 0.60823 0.4437 0.09197 0.0
H300 H 0.44901 0.9028 0.43911 0.0
H301 H 0.3442 0.83478 0.56354 0.0
H302 H 0.50161 0.96755 0.51122 0.0
H303 H 0.38226 0.77289 0.52609 0.0
H304 H 0.39355 0.88612 0.54493 0.0
H305 H 0.4143 0.85605 0.46913 0.0
C306 C 0.45395 0.90728 0.46119 0.0
C307 C 0.4794 0.93929 0.47244 0.0
C308 C 0.39149 0.86134 0.54162 0.0
C309 C 0.43772 0.88573 0.50691 0.0
C310 C 0.3634 0.8321 0.55206 0.0
C311 C 0.35899 0.79952 0.54607 0.0
C312 C 0.4145 0.85765 0.52454 0.0
C313 C 0.3846 0.79746 0.53114 0.0
C314 C 0.43374 0.88047 0.47826 0.0
C315 C 0.48248 0.94349 0.50148 0.0
N316 N 0.41073 0.82605 0.52014 0.0
N317 N 0.46155 0.91703 0.51782 0.0
H318 H 0.49599 0.43174 0.66759 0.0
H319 H 0.62737 0.36661 0.70943 0.0
H320 H 0.60544 0.48654 0.6522 0.0
H321 H 0.51654 0.30716 0.71887 0.0
H322 H 0.62138 0.41596 0.69758 0.0
H323 H 0.50461 0.39147 0.69571 0.0
C324 C 0.52193 0.43575 0.67077 0.0
C325 C 0.54999 0.4621 0.6574 0.0
C326 C 0.59841 0.39223 0.7026 0.0
C327 C 0.56005 0.41618 0.68897 0.0
C328 C 0.60184 0.36403 0.70942 0.0
C329 C 0.57236 0.33248 0.7147 0.0
C330 C 0.56526 0.38885 0.70093 0.0
C331 C 0.53997 0.33082 0.71456 0.0
C332 C 0.52685 0.41269 0.68661 0.0
C333 C 0.5831 0.4662 0.66196 0.0
N334 N 0.53723 0.35844 0.70742 0.0
N335 N 0.58715 0.44324 0.67706 0.0
H336 H 0.09884 0.49829 0.82687 0.0
H337 H 0.29594 0.63856 0.86286 0.0
H338 H 0.14489 0.60447 0.80544 0.0
H339 H 0.24827 0.53227 0.88461 0.0
H340 H 0.2385 0.62917 0.84884 0.0
H341 H 0.15042 0.51273 0.85563 0.0
C342 C 0.11946 0.52476 0.82872 0.0
C343 C 0.11787 0.5501 0.81338 0.0
C344 C 0.24061 0.60805 0.85706 0.0
C345 C 0.17728 0.56678 0.84573 0.0
C346 C 0.27339 0.61345 0.86512 0.0
C347 C 0.277 0.58603 0.87443 0.0
C348 C 0.21136 0.57503 0.85835 0.0
C349 C 0.24684 0.55403 0.87704 0.0
C350 C 0.14906 0.533 0.84497 0.0
C351 C 0.14545 0.58401 0.81647 0.0
N352 N 0.21544 0.54934 0.86875 0.0
N353 N 0.17422 0.59128 0.83193 0.0
H354 H 0.60027 0.11981 0.01554 0.0
H355 H 0.76656 0.3076 0.01683 0.0
H356 H 0.69167 0.14795 0.96895 0.0
H357 H 0.67652 0.28154 0.06499 0.0
H358 H 0.74233 0.24721 0.0042 0.0
H359 H 0.63077 0.17596 0.03981 0.0
C360 C 0.6272 0.13735 0.01122 0.0
C361 C 0.64362 0.12932 -0.00962 0.0
C362 C 0.7279 0.25456 0.0177 0.0
C363 C 0.67825 0.19381 0.01721 0.0
C364 C 0.74171 0.28916 0.02486 0.0
C365 C 0.72341 0.29982 0.04177 0.0
C366 C 0.69531 0.2302 0.02728 0.0
C367 C 0.69146 0.27457 0.05175 0.0
C368 C 0.64446 0.16955 0.02476 0.0
C369 C 0.67823 0.15319 -0.01498 0.0
N370 N 0.67827 0.241 0.04414 0.0
N371 N 0.69422 0.18445 -0.00194 0.0
H372 H 0.56455 0.66953 0.15825 0.0
H373 H 0.41759 0.67429 0.24633 0.0
H374 H 0.48596 0.58211 0.19979 0.0
H375 H 0.48657 0.75422 0.19287 0.0
H376 H 0.45098 0.64516 0.23929 0.0
H377 H 0.5464 0.70598 0.18194 0.0
C378 C 0.54435 0.65833 0.17326 0.0
C379 C 0.52666 0.62289 0.17714 0.0
C380 C 0.45904 0.6693 0.22941 0.0
C381 C 0.5047 0.66399 0.2034 0.0
C382 C 0.43999 0.68594 0.23339 0.0
C383 C 0.44896 0.71647 0.21979 0.0
C384 C 0.48736 0.6834 0.21184 0.0
C385 C 0.47836 0.73048 0.20343 0.0
C386 C 0.53365 0.679 0.1865 0.0
C387 C 0.50033 0.60941 0.19645 0.0
N388 N 0.49629 0.71371 0.19974 0.0
N389 N 0.48961 0.62987 0.20847 0.0
H390 H 0.90432 0.39856 0.32443 0.0
H391 H 0.84008 0.51134 0.40094 0.0
H392 H 0.97239 0.50185 0.35515 0.0
H393 H 0.77283 0.40456 0.37846 0.0
H394 H 0.89029 0.50481 0.39234 0.0
H395 H 0.8582 0.3959 0.35276 0.0
C396 C 0.90988 0.42026 0.33786 0.0
C397 C 0.942 0.4507 0.33702 0.0
C398 C 0.86459 0.48263 0.38967 0.0
C399 C 0.8892 0.44822 0.36894 0.0
C400 C 0.83586 0.48639 0.39448 0.0
C401 C 0.80215 0.45862 0.3899 0.0
C402 C 0.85967 0.45099 0.37979 0.0
C403 C 0.79832 0.42679 0.38193 0.0
C404 C 0.88349 0.41884 0.35391 0.0
C405 C 0.94797 0.47793 0.35502 0.0
N406 N 0.82672 0.42399 0.37666 0.0
N407 N 0.92156 0.47636 0.36972 0.0
H408 H 0.0932 0.5846 0.36319 0.0
H409 H 0.24746 0.631 0.47383 0.0
H410 H 0.16622 0.54859 0.3562 0.0
H411 H 0.18595 0.68075 0.47259 0.0
H412 H 0.21495 0.59696 0.43285 0.0
H413 H 0.12307 0.61545 0.40621 0.0
C414 C 0.11521 0.58281 0.37096 0.0
C415 C 0.12737 0.56414 0.35618 0.0
C416 C 0.20863 0.61539 0.44152 0.0
C417 C 0.16189 0.59964 0.40498 0.0
C418 C 0.22722 0.63488 0.4649 0.0
C419 C 0.21949 0.65884 0.47663 0.0
C420 C 0.18197 0.61972 0.4299 0.0
C421 C 0.19292 0.66269 0.46418 0.0
C422 C 0.13244 0.60065 0.39533 0.0
C423 C 0.15626 0.56299 0.36691 0.0
N424 N 0.17505 0.64326 0.44153 0.0
N425 N 0.17261 0.58058 0.39064 0.0
H426 H 0.62225 0.16695 0.50844 0.0
H427 H 0.5241 0.15598 0.64626 0.0
H428 H 0.52475 0.07894 0.52858 0.0
H429 H 0.63168 0.23139 0.63538 0.0
H430 H 0.52438 0.12697 0.60344 0.0
H431 H 0.62754 0.19011 0.55544 0.0
C432 C 0.60225 0.15229 0.52297 0.0
C433 C 0.57291 0.12118 0.5147 0.0
C434 C 0.548 0.14973 0.6105 0.0
C435 C 0.57843 0.14763 0.56816 0.0
C436 C 0.5478 0.16647 0.63485 0.0
C437 C 0.57784 0.19634 0.64428 0.0
C438 C 0.57834 0.16315 0.59527 0.0
C439 C 0.60789 0.20853 0.62879 0.0
C440 C 0.60525 0.16548 0.54974 0.0
C441 C 0.54782 0.10299 0.53424 0.0
N442 N 0.60729 0.19204 0.6049 0.0
N443 N 0.55089 0.11675 0.56 0.0
H444 H 0.50252 0.63554 0.68166 0.0
H445 H 0.41822 0.54407 0.82104 0.0
H446 H 0.48855 0.53748 0.7051 0.0
H447 H 0.4441 0.6481 0.80517 0.0
H448 H 0.44907 0.544 0.78025 0.0
H449 H 0.48729 0.64391 0.72833 0.0
C450 C 0.49683 0.61605 0.69676 0.0
C451 C 0.49636 0.58556 0.68936 0.0
C452 C 0.44831 0.56701 0.7857 0.0
C453 C 0.47877 0.59487 0.74261 0.0
C454 C 0.43047 0.56699 0.80895 0.0
C455 C 0.42816 0.59598 0.81628 0.0
C456 C 0.46363 0.59606 0.7693 0.0
C457 C 0.44506 0.62512 0.8001 0.0
C458 C 0.4882 0.62087 0.72338 0.0
C459 C 0.48936 0.56142 0.70984 0.0
N460 N 0.46175 0.62428 0.77709 0.0
N461 N 0.48035 0.56638 0.73536 0.0
H462 H 0.90404 0.40667 0.84299 0.0
H463 H 0.87963 0.51226 0.96586 0.0
H464 H 0.95683 0.51709 0.8487 0.0
H465 H 0.82856 0.40172 0.96181 0.0
H466 H 0.90891 0.51435 0.92342 0.0
H467 H 0.87775 0.40422 0.88734 0.0
C468 C 0.91023 0.43041 0.85372 0.0
C469 C 0.93243 0.46214 0.84214 0.0
C470 C 0.89132 0.48962 0.93178 0.0
C471 C 0.90243 0.45956 0.89277 0.0
C472 C 0.87444 0.48836 0.956 0.0
C473 C 0.85151 0.45672 0.96742 0.0
C474 C 0.88525 0.45903 0.91877 0.0
C475 C 0.84594 0.42667 0.95371 0.0
C476 C 0.89525 0.429 0.87901 0.0
C477 C 0.94001 0.49212 0.857 0.0
N478 N 0.86271 0.42857 0.93007 0.0
N479 N 0.9248 0.49009 0.88148 0.0
H480 H 0.55667 0.92037 0.02974 0.0
H481 H 0.39488 0.86881 0.12575 0.0
H482 H 0.49236 0.96668 0.02466 0.0
H483 H 0.46188 0.82529 0.13189 0.0
H484 H 0.43138 0.90647 0.09002 0.0
H485 H 0.52499 0.8888 0.06984 0.0
C486 C 0.5363 0.92439 0.03757 0.0
C487 C 0.52696 0.94601 0.02402 0.0
C488 C 0.43808 0.88867 0.09917 0.0
C489 C 0.48998 0.90938 0.06931 0.0
C490 C 0.41709 0.86693 0.11944 0.0
C491 C 0.42524 0.84372 0.13181 0.0
C492 C 0.46744 0.88719 0.09115 0.0
C493 C 0.45448 0.84264 0.12287 0.0
C494 C 0.51805 0.9062 0.06028 0.0
C495 C 0.5004 0.95038 0.03475 0.0
N496 N 0.47451 0.86409 0.10311 0.0
N497 N 0.48246 0.93182 0.05662 0.0
H498 H 0.5487 0.43331 0.20132 0.0
H499 H 0.69132 0.52909 0.32138 0.0
H500 H 0.59578 0.54138 0.22085 0.0
H501 H 0.62998 0.41876 0.31385 0.0
H502 H 0.65561 0.53346 0.28476 0.0
H503 H 0.57528 0.42638 0.2437 0.0
C504 C 0.56394 0.4554 0.21494 0.0
C505 C 0.57027 0.488 0.20755 0.0
C506 C 0.64985 0.50827 0.29113 0.0
C507 C 0.60137 0.48048 0.25556 0.0
C508 C 0.67047 0.50572 0.3119 0.0
C509 C 0.66382 0.47347 0.32062 0.0
C510 C 0.62246 0.47837 0.27871 0.0
C511 C 0.63618 0.44415 0.30769 0.0
C512 C 0.57925 0.45149 0.23901 0.0
C513 C 0.59012 0.51579 0.22585 0.0
N514 N 0.6166 0.4473 0.28727 0.0
N515 N 0.60545 0.51149 0.24878 0.0
H516 H 0.49994 1.00152 0.3634 0.0
H517 H 0.4638 0.83356 0.27754 0.0
H518 H 0.54349 0.9385 0.38665 0.0
H519 H 0.40706 0.8873 0.26594 0.0
H520 H 0.50141 0.87734 0.31217 0.0
H521 H 0.47688 0.96751 0.32055 0.0
C522 C 0.50577 0.98132 0.359 0.0
C523 C 0.52318 0.97244 0.37875 0.0
C524 C 0.48077 0.87953 0.30195 0.0
C525 C 0.49582 0.93267 0.3303 0.0
C526 C 0.45913 0.85444 0.28234 0.0
C527 C 0.43195 0.85652 0.26903 0.0
C528 C 0.47534 0.90701 0.30812 0.0
C529 C 0.42739 0.88437 0.27588 0.0
C530 C 0.49208 0.96152 0.33475 0.0
C531 C 0.52971 0.94579 0.37208 0.0
N532 N 0.44882 0.90845 0.29494 0.0
N533 N 0.51544 0.92637 0.34863 0.0
H534 H 0.53158 0.44281 0.55554 0.0
H535 H 0.70001 0.53234 0.464 0.0
H536 H 0.60487 0.55116 0.55974 0.0
H537 H 0.62472 0.42424 0.45814 0.0
H538 H 0.66432 0.54014 0.49757 0.0
H539 H 0.56264 0.43636 0.51695 0.0
C540 C 0.55378 0.46537 0.54775 0.0
C541 C 0.56577 0.49756 0.56064 0.0
C542 C 0.65559 0.51471 0.48898 0.0
C543 C 0.60206 0.49033 0.51719 0.0
C544 C 0.67609 0.51014 0.46993 0.0
C545 C 0.66544 0.47751 0.45825 0.0
C546 C 0.62414 0.48647 0.49653 0.0
C547 C 0.6341 0.44981 0.46669 0.0
C548 C 0.57169 0.46166 0.52594 0.0
C549 C 0.59474 0.526 0.55011 0.0
N550 N 0.61455 0.45494 0.48531 0.0
N551 N 0.61223 0.52166 0.52916 0.0
H552 H 0.07125 0.59626 0.7168 0.0
H553 H 0.22453 0.624 0.61799 0.0
H554 H 0.11179 0.52746 0.71057 0.0
H555 H 0.17986 0.68984 0.61884 0.0
H556 H 0.18163 0.58718 0.65075 0.0
H557 H 0.10714 0.62847 0.67814 0.0
C558 C 0.08686 0.58736 0.7066 0.0
C559 C 0.08857 0.55921 0.71651 0.0
C560 C 0.18118 0.60969 0.64378 0.0
C561 C 0.1304 0.59626 0.67333 0.0
C562 C 0.20591 0.63091 0.62524 0.0
C563 C 0.20593 0.66016 0.61571 0.0
C564 C 0.15632 0.61779 0.65299 0.0
C565 C 0.18092 0.66761 0.62569 0.0
C566 C 0.10765 0.60591 0.68485 0.0
C567 C 0.10971 0.54897 0.70322 0.0
N568 N 0.15715 0.64658 0.6438 0.0
N569 N 0.13011 0.56771 0.6825 0.0
H570 H 0.53848 0.07087 0.89455 0.0
H571 H 0.63953 0.21955 0.78687 0.0
H572 H 0.64985 0.12932 0.88976 0.0
H573 H 0.52784 0.16218 0.79105 0.0
H574 H 0.64344 0.18441 0.82302 0.0
H575 H 0.53345 0.10017 0.85387 0.0
C576 C 0.56179 0.08929 0.88451 0.0
C577 C 0.5946 0.09795 0.89551 0.0
C578 C 0.61805 0.17948 0.81605 0.0
C579 C 0.58921 0.13199 0.84961 0.0
C580 C 0.61581 0.19972 0.7955 0.0
C581 C 0.58332 0.19394 0.78597 0.0
C582 C 0.58758 0.15325 0.82721 0.0
C583 C 0.55347 0.16767 0.79784 0.0
C584 C 0.55897 0.10627 0.86152 0.0
C585 C 0.62408 0.12223 0.882 0.0
N586 N 0.55632 0.14831 0.81785 0.0
N587 N 0.6207 0.13863 0.85992 0.0
H588 H 0.53123 0.63441 0.07795 0.0
H589 H 0.38435 0.53079 0.96103 0.0
H590 H 0.46454 0.52459 0.07627 0.0
H591 H 0.44863 0.64106 0.96382 0.0
H592 H 0.41452 0.52805 0.00251 0.0
H593 H 0.5032 0.63719 0.03496 0.0
C594 C 0.51078 0.61085 0.06839 0.0
C595 C 0.49998 0.57923 0.08075 0.0
C596 C 0.42203 0.55287 -0.00589 0.0
C597 C 0.46776 0.58222 0.03162 0.0
C598 C 0.40473 0.55451 0.97043 0.0
C599 C 0.41397 0.58626 0.95889 0.0
C600 C 0.44886 0.58317 0.00643 0.0
C601 C 0.44059 0.61605 -0.02796 0.0
C602 C 0.4948 0.61245 0.04388 0.0
C603 C 0.47377 0.54945 0.06734 0.0
N604 N 0.45716 0.61377 -0.0049 0.0
N605 N 0.45836 0.5517 0.04357 0.0
H606 H 0.90734 0.46369 0.25337 0.0
H607 H 0.91267 0.48953 0.09664 0.0
H608 H 0.99248 0.46448 0.21117 0.0
H609 H 0.81948 0.40851 0.1309 0.0
H610 H 0.94526 0.49155 0.13892 0.0
H611 H 0.87687 0.45469 0.20916 0.0
C612 C 0.91958 0.46149 0.23497 0.0
C613 C 0.95235 0.46389 0.23632 0.0
C614 C 0.91778 0.47312 0.13692 0.0
C615 C 0.91792 0.45542 0.18542 0.0
C616 C 0.89919 0.47206 0.11303 0.0
C617 C 0.86341 0.44888 0.11052 0.0
C618 C 0.90012 0.45168 0.15862 0.0
C619 C 0.84706 0.42665 0.13214 0.0
C620 C 0.90212 0.4566 0.20973 0.0
C621 C 0.96737 0.46279 0.21129 0.0
N622 N 0.86546 0.42906 0.15564 0.0
N623 N 0.95012 0.45891 0.18675 0.0
loop_
_geom_bond_atom_site_label_1
_geom_bond_atom_site_label_2
_geom_bond_distance
_geom_bond_site_symmetry_2
_ccdc_geom_bond_type
H0 C6 0.930 . S
H1 C9 0.931 . S
H2 C11 0.931 . S
H3 C13 0.930 . S
H4 C15 0.930 . S
H5 C17 0.931 . S
C6 H0 0.930 . S
C6 C7 1.380 . S
C6 C8 1.394 . S
C7 C6 1.380 . S
C7 C11 1.382 . S
C8 C6 1.394 . S
C8 C9 1.400 . S
C9 H1 0.931 . S
C9 C8 1.400 . S
C9 C10 1.375 . S
C10 C9 1.375 . S
C10 C11 1.415 . S
C10 C12 1.501 1_455 S
C11 H2 0.931 . S
C11 C7 1.382 . S
C11 C10 1.415 . S
C12 C10 1.501 1_655 S
C12 C13 1.384 . S
C12 C17 1.408 . S
C13 H3 0.930 . S
C13 C12 1.384 . S
C13 C14 1.389 . S
C14 C13 1.389 . S
C14 C15 1.405 . S
C15 H4 0.930 . S
C15 C14 1.405 . S
C15 C16 1.364 . S
C16 C15 1.364 . S
C16 C17 1.400 . S
C17 H5 0.931 . S
C17 C12 1.408 . S
C17 C16 1.400 . S
H18 C24 0.930 . S
H19 C27 0.931 . S
H20 C29 0.931 . S
H21 C31 0.930 . S
H22 C33 0.930 . S
H23 C35 0.931 . S
C24 H18 0.930 . S
C24 C25 1.380 . S
C24 C26 1.394 . S
C25 C24 1.380 . S
C25 C29 1.382 . S
C26 C24 1.394 . S
C26 C27 1.400 . S
C27 H19 0.931 . S
C27 C26 1.400 . S
C27 C28 1.375 . S
C28 C27 1.375 . S
C28 C29 1.415 . S
C28 C30 1.501 1_545 S
C29 H20 0.931 . S
C29 C25 1.382 . S
C29 C28 1.415 . S
C30 C28 1.501 1_565 S
C30 C31 1.384 . S
C30 C35 1.408 . S
C31 H21 0.930 . S
C31 C30 1.384 . S
C31 C32 1.389 . S
C32 C31 1.389 . S
C32 C33 1.405 . S
C33 H22 0.930 . S
C33 C32 1.405 . S
C33 C34 1.364 . S
C34 C33 1.364 . S
C34 C35 1.400 . S
C35 H23 0.931 . S
C35 C30 1.408 . S
C35 C34 1.400 . S
H36 C42 0.930 . S
H37 C45 0.931 . S
H38 C47 0.931 . S
H39 C49 0.930 . S
H40 C51 0.930 . S
H41 C53 0.931 . S
C42 H36 0.930 . S
C42 C43 1.380 . S
C42 C44 1.394 . S
C43 C42 1.380 . S
C43 C47 1.382 . S
C44 C42 1.394 . S
C44 C45 1.400 . S
C45 H37 0.931 . S
C45 C44 1.400 . S
C45 C46 1.375 . S
C46 C45 1.375 . S
C46 C47 1.415 . S
C46 C48 1.501 . S
C47 H38 0.931 . S
C47 C43 1.382 . S
C47 C46 1.415 . S
C48 C46 1.501 . S
C48 C49 1.384 . S
C48 C53 1.408 . S
C49 H39 0.930 . S
C49 C48 1.384 . S
C49 C50 1.389 . S
C50 C49 1.389 . S
C50 C51 1.405 . S
C51 H40 0.930 . S
C51 C50 1.405 . S
C51 C52 1.364 . S
C52 C51 1.364 . S
C52 C53 1.400 . S
C53 H41 0.931 . S
C53 C48 1.408 . S
C53 C52 1.400 . S
H54 C60 0.930 . S
H55 C63 0.931 . S
H56 C65 0.931 . S
H57 C67 0.930 . S
H58 C69 0.930 . S
H59 C71 0.951 . S
C60 H54 0.930 . S
C60 C61 1.380 . S
C60 C62 1.394 . S
C61 C60 1.380 . S
C61 C65 1.382 . S
C62 C60 1.394 . S
C62 C63 1.400 . S
C63 H55 0.931 . S
C63 C62 1.400 . S
C63 C64 1.375 . S
C64 C63 1.375 . S
C64 C65 1.415 . S
C64 C66 1.501 1_455 S
C65 H56 0.931 . S
C65 C61 1.382 . S
C65 C64 1.415 . S
C66 C64 1.501 1_655 S
C66 C67 1.384 . S
C66 C71 1.408 . S
C67 H57 0.930 . S
C67 C66 1.384 . S
C67 C68 1.389 . S
C68 C67 1.389 . S
C68 C69 1.405 . S
C69 H58 0.930 . S
C69 C68 1.405 . S
C69 C70 1.364 . S
C70 C69 1.364 . S
C70 C71 1.400 . S
C71 H59 0.951 . S
C71 C66 1.408 . S
C71 C70 1.400 . S
H72 C78 0.930 . S
H73 C81 0.931 . S
H74 C83 0.924 1_545 S
H75 C85 0.930 . S
H76 C87 0.930 . S
H77 C89 0.931 . S
C78 H72 0.930 . S
C78 C79 1.380 . S
C78 C80 1.394 1_554 S
C79 C78 1.380 . S
C79 C83 1.382 . S
C80 C78 1.394 1_556 S
C80 C81 1.400 . S
C81 H73 0.931 . S
C81 C80 1.400 . S
C81 C82 1.375 . S
C82 C81 1.375 . S
C82 C83 1.415 1_556 S
C82 C84 1.501 1_565 S
C83 H74 0.924 1_565 S
C83 C79 1.382 . S
C83 C82 1.415 1_554 S
C84 C82 1.501 1_545 S
C84 C85 1.384 1_556 S
C84 C89 1.408 . S
C85 H75 0.930 . S
C85 C84 1.384 1_554 S
C85 C86 1.389 1_554 S
C86 C85 1.389 1_556 S
C86 C87 1.405 . S
C87 H76 0.930 . S
C87 C86 1.405 . S
C87 C88 1.364 . S
C88 C87 1.364 . S
C88 C89 1.400 . S
C89 H77 0.931 . S
C89 C84 1.408 . S
C89 C88 1.400 . S
H90 C96 0.930 . S
H91 C99 0.931 . S
H92 C101 0.931 . S
H93 C103 0.930 . S
H94 C105 0.930 . S
H95 C107 0.931 . S
C96 H90 0.930 . S
C96 C97 1.380 . S
C96 C98 1.394 . S
C97 C96 1.380 . S
C97 C101 1.382 . S
C98 C96 1.394 . S
C98 C99 1.400 . S
C99 H91 0.931 . S
C99 C98 1.400 . S
C99 C100 1.375 . S
C100 C99 1.375 . S
C100 C101 1.415 . S
C100 C102 1.501 . S
C101 H92 0.931 . S
C101 C97 1.382 . S
C101 C100 1.415 . S
C102 C100 1.501 . S
C102 C103 1.384 . S
C102 C107 1.408 . S
C103 H93 0.930 . S
C103 C102 1.384 . S
C103 C104 1.389 . S
C104 C103 1.389 . S
C104 C105 1.405 . S
C105 H94 0.930 . S
C105 C104 1.405 . S
C105 C106 1.364 . S
C106 C105 1.364 . S
C106 C107 1.400 . S
C107 H95 0.931 . S
C107 C102 1.408 . S
C107 C106 1.400 . S
Zn108 O111 2.031 . S
Zn108 O113 2.049 . S
Zn108 O118 2.067 . S
Zn109 O110 1.962 . S
Zn109 O112 1.986 . S
Zn109 O114 1.996 . S
Zn109 O117 1.943 . S
O110 Zn109 1.962 . S
O110 C115 1.254 . S
O111 Zn108 2.031 . S
O111 C115 1.269 . S
O112 Zn109 1.986 . S
O112 C119 1.262 . S
O113 Zn108 2.049 . S
O113 C121 1.260 . S
O114 Zn109 1.996 . S
O114 C121 1.257 . S
C115 O110 1.254 . S
C115 O111 1.269 . S
C116 O117 1.249 . S
C116 O118 1.270 . S
O117 Zn109 1.943 . S
O117 C116 1.249 . S
O118 Zn108 2.067 . S
O118 C116 1.270 . S
C119 O112 1.262 . S
C119 O120 1.232 . S
O120 C119 1.232 . S
C121 O113 1.260 . S
C121 O114 1.257 . S
Zn122 O125 2.031 . S
Zn122 O127 2.049 . S
Zn122 O132 2.067 . S
Zn123 O124 1.962 . S
Zn123 O126 1.986 . S
Zn123 O128 1.996 . S
Zn123 O131 1.943 . S
O124 Zn123 1.962 . S
O124 C129 1.254 . S
O125 Zn122 2.031 . S
O125 C129 1.269 . S
O126 Zn123 1.986 . S
O126 C133 1.262 . S
O127 Zn122 2.049 . S
O127 C135 1.260 . S
O128 Zn123 1.996 . S
O128 C135 1.257 . S
C129 O124 1.254 . S
C129 O125 1.269 . S
C130 O131 1.249 . S
C130 O132 1.270 . S
O131 Zn123 1.943 . S
O131 C130 1.249 . S
O132 Zn122 2.067 . S
O132 C130 1.270 . S
C133 O126 1.262 . S
C133 O134 1.232 . S
O134 C133 1.232 . S
C135 O127 1.260 . S
C135 O128 1.257 . S
Zn136 O139 2.031 . S
Zn136 O141 2.049 . S
Zn136 O146 2.067 . S
Zn137 O138 1.962 . S
Zn137 O140 1.986 . S
Zn137 O142 1.996 . S
Zn137 O145 1.943 . S
O138 Zn137 1.962 . S
O138 C143 1.254 . S
O139 Zn136 2.031 . S
O139 C143 1.269 . S
O140 Zn137 1.986 . S
O140 C147 1.262 . S
O141 Zn136 2.049 . S
O141 C149 1.260 . S
O142 Zn137 1.996 . S
O142 C149 1.257 . S
C143 O138 1.254 . S
C143 O139 1.269 . S
C144 O145 1.249 . S
C144 O146 1.270 . S
O145 Zn137 1.943 . S
O145 C144 1.249 . S
O146 Zn136 2.067 . S
O146 C144 1.270 . S
C147 O140 1.262 . S
C147 O148 1.232 . S
O148 C147 1.232 . S
C149 O141 1.260 . S
C149 O142 1.257 . S
Zn150 O153 2.031 . S
Zn150 O155 2.049 . S
Zn150 O160 2.067 . S
Zn151 O152 1.962 . S
Zn151 O154 1.986 . S
Zn151 O156 1.996 . S
Zn151 O159 1.943 . S
O152 Zn151 1.962 . S
O152 C157 1.254 . S
O153 Zn150 2.031 . S
O153 C157 1.269 . S
O154 Zn151 1.986 . S
O154 C161 1.262 . S
O155 Zn150 2.049 . S
O155 C163 1.260 . S
O156 Zn151 1.996 . S
O156 C163 1.257 . S
C157 O152 1.254 . S
C157 O153 1.269 . S
C158 O159 1.249 . S
C158 O160 1.270 . S
O159 Zn151 1.943 . S
O159 C158 1.249 . S
O160 Zn150 2.067 . S
O160 C158 1.270 . S
C161 O154 1.262 . S
C161 O162 1.232 . S
O162 C161 1.232 . S
C163 O155 1.260 . S
C163 O156 1.257 . S
Zn164 O167 2.031 . S
Zn164 O169 2.049 . S
Zn164 O174 2.067 . S
Zn165 O166 1.962 . S
Zn165 O168 1.986 . S
Zn165 O170 1.996 . S
Zn165 O173 1.943 . S
O166 Zn165 1.962 . S
O166 C171 1.254 . S
O167 Zn164 2.031 . S
O167 C171 1.269 . S
O168 Zn165 1.986 . S
O168 C175 1.262 . S
O169 Zn164 2.049 . S
O169 C177 1.260 . S
O170 Zn165 1.996 . S
O170 C177 1.257 . S
C171 O166 1.254 . S
C171 O167 1.269 . S
C172 O173 1.249 . S
C172 O174 1.270 . S
O173 Zn165 1.943 . S
O173 C172 1.249 . S
O174 Zn164 2.067 . S
O174 C172 1.270 . S
C175 O168 1.262 . S
C175 O176 1.232 . S
O176 C175 1.232 . S
C177 O169 1.260 . S
C177 O170 1.257 . S
Zn178 O181 2.031 . S
Zn178 O183 2.049 . S
Zn178 O188 2.067 . S
Zn179 O180 1.962 . S
Zn179 O182 1.986 . S
Zn179 O184 1.996 . S
Zn179 O187 1.943 . S
O180 Zn179 1.962 . S
O180 C185 1.254 . S
O181 Zn178 2.031 . S
O181 C185 1.269 . S
O182 Zn179 1.986 . S
O182 C189 1.262 . S
O183 Zn178 2.049 . S
O183 C191 1.260 . S
O184 Zn179 1.996 . S
O184 C191 1.257 . S
C185 O180 1.254 . S
C185 O181 1.269 . S
C186 O187 1.249 . S
C186 O188 1.270 . S
O187 Zn179 1.943 . S
O187 C186 1.249 . S
O188 Zn178 2.067 . S
O188 C186 1.270 . S
C189 O182 1.262 . S
C189 O190 1.232 . S
O190 C189 1.232 . S
C191 O183 1.260 . S
C191 O184 1.257 . S
H192 C198 0.930 . S
H193 C202 0.930 . S
H194 C207 0.929 . S
H195 C205 0.929 . S
H196 C200 0.929 . S
H197 C206 0.929 . S
C198 H192 0.930 . S
C198 C199 1.367 . S
C198 C206 1.378 . S
C199 C198 1.367 . S
C199 C207 1.433 . S
C200 H196 0.929 . S
C200 C202 1.378 . S
C200 C204 1.350 . S
C201 C204 1.463 . S
C201 C206 1.350 . S
C201 N209 1.427 . S
C202 H193 0.930 . S
C202 C200 1.378 . S
C202 C203 1.367 . S
C203 C202 1.367 . S
C203 C205 1.433 . S
C204 C200 1.350 . S
C204 C201 1.463 . S
C204 N208 1.427 . S
C205 H195 0.929 . S
C205 C203 1.433 . S
C205 N208 1.384 . S
C206 H197 0.929 . S
C206 C198 1.378 . S
C206 C201 1.350 . S
C207 H194 0.929 . S
C207 C199 1.433 . S
C207 N209 1.384 . S
N208 C204 1.427 . S
N208 C205 1.384 . S
N209 C201 1.427 . S
N209 C207 1.384 . S
H210 C216 0.930 . S
H211 C220 0.930 . S
H212 C225 0.929 . S
H213 C223 0.929 . S
H214 C218 0.929 . S
H215 C224 0.929 . S
C216 H210 0.930 . S
C216 C217 1.367 . S
C216 C224 1.378 . S
C217 C216 1.367 . S
C217 C225 1.433 . S
C218 H214 0.929 . S
C218 C220 1.378 . S
C218 C222 1.350 . S
C219 C222 1.463 . S
C219 C224 1.350 . S
C219 N227 1.427 . S
C220 H211 0.930 . S
C220 C218 1.378 . S
C220 C221 1.367 . S
C221 C220 1.367 . S
C221 C223 1.433 . S
C222 C218 1.350 . S
C222 C219 1.463 . S
C222 N226 1.427 . S
C223 H213 0.929 . S
C223 C221 1.433 . S
C223 N226 1.384 . S
C224 H215 0.929 . S
C224 C216 1.378 . S
C224 C219 1.350 . S
C225 H212 0.929 . S
C225 C217 1.433 . S
C225 N227 1.384 . S
N226 C222 1.427 . S
N226 C223 1.384 . S
N227 C219 1.427 . S
N227 C225 1.384 . S
H228 C234 0.930 . S
H229 C238 0.930 . S
H230 C243 0.929 . S
H231 C241 0.929 . S
H232 C236 0.929 . S
H233 C242 0.929 . S
C234 H228 0.930 . S
C234 C235 1.367 . S
C234 C242 1.378 . S
C235 C234 1.367 . S
C235 C243 1.433 . S
C236 H232 0.929 . S
C236 C238 1.378 . S
C236 C240 1.350 . S
C237 C240 1.463 . S
C237 C242 1.350 . S
C237 N245 1.427 . S
C238 H229 0.930 . S
C238 C236 1.378 . S
C238 C239 1.367 . S
C239 C238 1.367 . S
C239 C241 1.433 . S
C240 C236 1.350 . S
C240 C237 1.463 . S
C240 N244 1.427 . S
C241 H231 0.929 . S
C241 C239 1.433 . S
C241 N244 1.384 . S
C242 H233 0.929 . S
C242 C234 1.378 . S
C242 C237 1.350 . S
C243 H230 0.929 . S
C243 C235 1.433 . S
C243 N245 1.384 . S
N244 C240 1.427 . S
N244 C241 1.384 . S
N245 C237 1.427 . S
N245 C243 1.384 . S
H246 C252 0.930 . S
H247 C256 0.930 . S
H248 C261 0.929 . S
H249 C259 0.929 . S
H250 C254 0.929 . S
H251 C260 0.929 . S
C252 H246 0.930 . S
C252 C253 1.367 . S
C252 C260 1.378 . S
C253 C252 1.367 . S
C253 C261 1.433 . S
C254 H250 0.929 . S
C254 C256 1.378 . S
C254 C258 1.350 . S
C255 C258 1.463 . S
C255 C260 1.350 . S
C255 N263 1.427 . S
C256 H247 0.930 . S
C256 C254 1.378 . S
C256 C257 1.367 . S
C257 C256 1.367 . S
C257 C259 1.433 . S
C258 C254 1.350 . S
C258 C255 1.463 . S
C258 N262 1.427 . S
C259 H249 0.929 . S
C259 C257 1.433 . S
C259 N262 1.384 . S
C260 H251 0.929 . S
C260 C252 1.378 . S
C260 C255 1.350 . S
C261 H248 0.929 . S
C261 C253 1.433 . S
C261 N263 1.384 . S
N262 C258 1.427 . S
N262 C259 1.384 . S
N263 C255 1.427 . S
N263 C261 1.384 . S
H264 C270 0.930 . S
H265 C274 0.930 . S
H266 C279 0.929 1_554 S
H267 C277 0.929 . S
H268 C272 0.929 . S
H269 C278 0.929 . S
C270 H264 0.930 . S
C270 C271 1.367 . S
C270 C278 1.378 . S
C271 C270 1.367 . S
C271 C279 1.433 . S
C272 H268 0.929 . S
C272 C274 1.378 . S
C272 C276 1.350 . S
C273 C276 1.463 . S
C273 C278 1.350 . S
C273 N281 1.427 . S
C274 H265 0.930 . S
C274 C272 1.378 . S
C274 C275 1.367 . S
C275 C274 1.367 . S
C275 C277 1.433 . S
C276 C272 1.350 . S
C276 C273 1.463 . S
C276 N280 1.427 . S
C277 H267 0.929 . S
C277 C275 1.433 . S
C277 N280 1.384 . S
C278 H269 0.929 . S
C278 C270 1.378 . S
C278 C273 1.350 . S
C279 H266 0.929 1_556 S
C279 C271 1.433 . S
C279 N281 1.384 . S
N280 C276 1.427 . S
N280 C277 1.384 . S
N281 C273 1.427 . S
N281 C279 1.384 . S
H282 C288 0.930 . S
H283 C292 0.930 . S
H284 C297 0.929 . S
H285 C295 0.929 . S
H286 C290 0.929 . S
H287 C296 0.929 . S
C288 H282 0.930 . S
C288 C289 1.367 . S
C288 C296 1.378 . S
C289 C288 1.367 . S
C289 C297 1.433 . S
C290 H286 0.929 . S
C290 C292 1.378 . S
C290 C294 1.350 . S
C291 C294 1.463 . S
C291 C296 1.350 . S
C291 N299 1.427 . S
C292 H283 0.930 . S
C292 C290 1.378 . S
C292 C293 1.367 . S
C293 C292 1.367 . S
C293 C295 1.433 . S
C294 C290 1.350 . S
C294 C291 1.463 . S
C294 N298 1.427 . S
C295 H285 0.929 . S
C295 C293 1.433 . S
C295 N298 1.384 . S
C296 H287 0.929 . S
C296 C288 1.378 . S
C296 C291 1.350 . S
C297 H284 0.929 . S
C297 C289 1.433 . S
C297 N299 1.384 . S
N298 C294 1.427 . S
N298 C295 1.384 . S
N299 C291 1.427 . S
N299 C297 1.384 . S
H300 C306 0.930 . S
H301 C310 0.930 . S
H302 C315 0.929 . S
H303 C313 0.929 . S
H304 C308 0.929 . S
H305 C314 0.929 . S
C306 H300 0.930 . S
C306 C307 1.367 . S
C306 C314 1.378 . S
C307 C306 1.367 . S
C307 C315 1.433 . S
C308 H304 0.929 . S
C308 C310 1.378 . S
C308 C312 1.350 . S
C309 C312 1.463 . S
C309 C314 1.350 . S
C309 N317 1.427 . S
C310 H301 0.930 . S
C310 C308 1.378 . S
C310 C311 1.367 . S
C311 C310 1.367 . S
C311 C313 1.433 . S
C312 C308 1.350 . S
C312 C309 1.463 . S
C312 N316 1.427 . S
C313 H303 0.929 . S
C313 C311 1.433 . S
C313 N316 1.384 . S
C314 H305 0.929 . S
C314 C306 1.378 . S
C314 C309 1.350 . S
C315 H302 0.929 . S
C315 C307 1.433 . S
C315 N317 1.384 . S
N316 C312 1.427 . S
N316 C313 1.384 . S
N317 C309 1.427 . S
N317 C315 1.384 . S
H318 C324 0.930 . S
H319 C328 0.930 . S
H320 C333 0.929 . S
H321 C331 0.929 . S
H322 C326 0.929 . S
H323 C332 0.929 . S
C324 H318 0.930 . S
C324 C325 1.367 . S
C324 C332 1.378 . S
C325 C324 1.367 . S
C325 C333 1.433 . S
C326 H322 0.929 . S
C326 C328 1.378 . S
C326 C330 1.350 . S
C327 C330 1.463 . S
C327 C332 1.350 . S
C327 N335 1.427 . S
C328 H319 0.930 . S
C328 C326 1.378 . S
C328 C329 1.367 . S
C329 C328 1.367 . S
C329 C331 1.433 . S
C330 C326 1.350 . S
C330 C327 1.463 . S
C330 N334 1.427 . S
C331 H321 0.929 . S
C331 C329 1.433 . S
C331 N334 1.384 . S
C332 H323 0.929 . S
C332 C324 1.378 . S
C332 C327 1.350 . S
C333 H320 0.929 . S
C333 C325 1.433 . S
C333 N335 1.384 . S
N334 C330 1.427 . S
N334 C331 1.384 . S
N335 C327 1.427 . S
N335 C333 1.384 . S
H336 C342 0.930 . S
H337 C346 0.930 . S
H338 C351 0.929 . S
H339 C349 0.929 . S
H340 C344 0.929 . S
H341 C350 0.929 . S
C342 H336 0.930 . S
C342 C343 1.367 . S
C342 C350 1.378 . S
C343 C342 1.367 . S
C343 C351 1.433 . S
C344 H340 0.929 . S
C344 C346 1.378 . S
C344 C348 1.350 . S
C345 C348 1.463 . S
C345 C350 1.350 . S
C345 N353 1.427 . S
C346 H337 0.930 . S
C346 C344 1.378 . S
C346 C347 1.367 . S
C347 C346 1.367 . S
C347 C349 1.433 . S
C348 C344 1.350 . S
C348 C345 1.463 . S
C348 N352 1.427 . S
C349 H339 0.929 . S
C349 C347 1.433 . S
C349 N352 1.384 . S
C350 H341 0.929 . S
C350 C342 1.378 . S
C350 C345 1.350 . S
C351 H338 0.929 . S
C351 C343 1.433 . S
C351 N353 1.384 . S
N352 C348 1.427 . S
N352 C349 1.384 . S
N353 C345 1.427 . S
N353 C351 1.384 . S
H354 C360 0.930 . S
H355 C364 0.930 . S
H356 C369 0.903 1_556 S
H357 C367 0.929 . S
H358 C362 0.929 . S
H359 C368 0.929 . S
C360 H354 0.930 . S
C360 C361 1.367 . S
C360 C368 1.378 . S
C361 C360 1.367 . S
C361 C369 1.451 . S
C362 H358 0.929 . S
C362 C364 1.378 . S
C362 C366 1.350 . S
C363 C366 1.463 . S
C363 C368 1.350 . S
C363 N371 1.427 . S
C364 H355 0.930 . S
C364 C362 1.378 . S
C364 C365 1.367 . S
C365 C364 1.367 . S
C365 C367 1.433 . S
C366 C362 1.350 . S
C366 C363 1.463 . S
C366 N370 1.427 . S
C367 H357 0.929 . S
C367 C365 1.433 . S
C367 N370 1.384 . S
C368 H359 0.929 . S
C368 C360 1.378 . S
C368 C363 1.350 . S
C369 H356 0.903 1_554 S
C369 C361 1.451 . S
C369 N371 1.395 . S
N370 C366 1.427 . S
N370 C367 1.384 . S
N371 C363 1.427 . S
N371 C369 1.395 . S
H372 C378 0.930 . S
H373 C382 0.930 . S
H374 C387 0.929 . S
H375 C385 0.929 . S
H376 C380 0.929 . S
H377 C386 0.929 . S
C378 H372 0.930 . S
C378 C379 1.367 . S
C378 C386 1.378 . S
C379 C378 1.367 . S
C379 C387 1.433 . S
C380 H376 0.929 . S
C380 C382 1.378 . S
C380 C384 1.350 . S
C381 C384 1.463 . S
C381 C386 1.350 . S
C381 N389 1.427 . S
C382 H373 0.930 . S
C382 C380 1.378 . S
C382 C383 1.367 . S
C383 C382 1.367 . S
C383 C385 1.433 . S
C384 C380 1.350 . S
C384 C381 1.463 . S
C384 N388 1.427 . S
C385 H375 0.929 . S
C385 C383 1.433 . S
C385 N388 1.384 . S
C386 H377 0.929 . S
C386 C378 1.378 . S
C386 C381 1.350 . S
C387 H374 0.929 . S
C387 C379 1.433 . S
C387 N389 1.384 . S
N388 C384 1.427 . S
N388 C385 1.384 . S
N389 C381 1.427 . S
N389 C387 1.384 . S
H390 C396 0.930 . S
H391 C400 0.930 . S
H392 C405 0.929 . S
H393 C403 0.929 . S
H394 C398 0.929 . S
H395 C404 0.929 . S
C396 H390 0.930 . S
C396 C397 1.367 . S
C396 C404 1.378 . S
C397 C396 1.367 . S
C397 C405 1.433 . S
C398 H394 0.929 . S
C398 C400 1.378 . S
C398 C402 1.350 . S
C399 C402 1.463 . S
C399 C404 1.350 . S
C399 N407 1.427 . S
C400 H391 0.930 . S
C400 C398 1.378 . S
C400 C401 1.367 . S
C401 C400 1.367 . S
C401 C403 1.433 . S
C402 C398 1.350 . S
C402 C399 1.463 . S
C402 N406 1.427 . S
C403 H393 0.929 . S
C403 C401 1.433 . S
C403 N406 1.384 . S
C404 H395 0.929 . S
C404 C396 1.378 . S
C404 C399 1.350 . S
C405 H392 0.929 . S
C405 C397 1.433 . S
C405 N407 1.384 . S
N406 C402 1.427 . S
N406 C403 1.384 . S
N407 C399 1.427 . S
N407 C405 1.384 . S
H408 C414 0.930 . S
H409 C418 0.930 . S
H410 C423 0.929 . S
H411 C421 0.929 . S
H412 C416 0.929 . S
H413 C422 0.929 . S
C414 H408 0.930 . S
C414 C415 1.367 . S
C414 C422 1.378 . S
C415 C414 1.367 . S
C415 C423 1.433 . S
C416 H412 0.929 . S
C416 C418 1.378 . S
C416 C420 1.350 . S
C417 C420 1.463 . S
C417 C422 1.350 . S
C417 N425 1.427 . S
C418 H409 0.930 . S
C418 C416 1.378 . S
C418 C419 1.367 . S
C419 C418 1.367 . S
C419 C421 1.433 . S
C420 C416 1.350 . S
C420 C417 1.463 . S
C420 N424 1.427 . S
C421 H411 0.929 . S
C421 C419 1.433 . S
C421 N424 1.384 . S
C422 H413 0.929 . S
C422 C414 1.378 . S
C422 C417 1.350 . S
C423 H410 0.929 . S
C423 C415 1.433 . S
C423 N425 1.384 . S
N424 C420 1.427 . S
N424 C421 1.384 . S
N425 C417 1.427 . S
N425 C423 1.384 . S
H426 C432 0.930 . S
H427 C436 0.930 . S
H428 C441 0.929 . S
H429 C439 0.929 . S
H430 C434 0.929 . S
H431 C440 0.929 . S
C432 H426 0.930 . S
C432 C433 1.367 . S
C432 C440 1.378 . S
C433 C432 1.367 . S
C433 C441 1.433 . S
C434 H430 0.929 . S
C434 C436 1.378 . S
C434 C438 1.350 . S
C435 C438 1.463 . S
C435 C440 1.350 . S
C435 N443 1.427 . S
C436 H427 0.930 . S
C436 C434 1.378 . S
C436 C437 1.367 . S
C437 C436 1.367 . S
C437 C439 1.433 . S
C438 C434 1.350 . S
C438 C435 1.463 . S
C438 N442 1.427 . S
C439 H429 0.929 . S
C439 C437 1.433 . S
C439 N442 1.384 . S
C440 H431 0.929 . S
C440 C432 1.378 . S
C440 C435 1.350 . S
C441 H428 0.929 . S
C441 C433 1.433 . S
C441 N443 1.384 . S
N442 C438 1.427 . S
N442 C439 1.384 . S
N443 C435 1.427 . S
N443 C441 1.384 . S
H444 C450 0.930 . S
H445 C454 0.930 . S
H446 C459 0.929 . S
H447 C457 0.929 . S
H448 C452 0.929 . S
H449 C458 0.929 . S
C450 H444 0.930 . S
C450 C451 1.367 . S
C450 C458 1.378 . S
C451 C450 1.367 . S
C451 C459 1.433 . S
C452 H448 0.929 . S
C452 C454 1.378 . S
C452 C456 1.350 . S
C453 C456 1.463 . S
C453 C458 1.350 . S
C453 N461 1.427 . S
C454 H445 0.930 . S
C454 C452 1.378 . S
C454 C455 1.367 . S
C455 C454 1.367 . S
C455 C457 1.433 . S
C456 C452 1.350 . S
C456 C453 1.463 . S
C456 N460 1.427 . S
C457 H447 0.929 . S
C457 C455 1.433 . S
C457 N460 1.384 . S
C458 H449 0.929 . S
C458 C450 1.378 . S
C458 C453 1.350 . S
C459 H446 0.929 . S
C459 C451 1.433 . S
C459 N461 1.384 . S
N460 C456 1.427 . S
N460 C457 1.384 . S
N461 C453 1.427 . S
N461 C459 1.384 . S
H462 C468 0.930 . S
H463 C472 0.930 . S
H464 C477 0.929 . S
H465 C475 0.916 1_554 S
H466 C470 0.929 . S
H467 C476 0.929 . S
C468 H462 0.930 . S
C468 C469 1.367 . S
C468 C476 1.378 . S
C469 C468 1.367 . S
C469 C477 1.433 . S
C470 H466 0.929 . S
C470 C472 1.378 . S
C470 C474 1.350 . S
C471 C474 1.463 . S
C471 C476 1.350 . S
C471 N479 1.427 . S
C472 H463 0.930 . S
C472 C470 1.378 . S
C472 C473 1.367 1_556 S
C473 C472 1.367 1_554 S
C473 C475 1.433 1_554 S
C474 C470 1.350 . S
C474 C471 1.463 . S
C474 N478 1.427 . S
C475 H465 0.916 1_556 S
C475 C473 1.433 1_556 S
C475 N478 1.384 . S
C476 H467 0.929 . S
C476 C468 1.378 . S
C476 C471 1.350 . S
C477 H464 0.929 . S
C477 C469 1.433 . S
C477 N479 1.384 . S
N478 C474 1.427 . S
N478 C475 1.384 . S
N479 C471 1.427 . S
N479 C477 1.384 . S
H480 C486 0.930 . S
H481 C490 0.930 . S
H482 C495 0.929 . S
H483 C493 0.929 . S
H484 C488 0.929 . S
H485 C494 0.929 . S
C486 H480 0.930 . S
C486 C487 1.367 . S
C486 C494 1.378 . S
C487 C486 1.367 . S
C487 C495 1.433 . S
C488 H484 0.929 . S
C488 C490 1.378 . S
C488 C492 1.350 . S
C489 C492 1.463 . S
C489 C494 1.350 . S
C489 N497 1.427 . S
C490 H481 0.930 . S
C490 C488 1.378 . S
C490 C491 1.367 . S
C491 C490 1.367 . S
C491 C493 1.433 . S
C492 C488 1.350 . S
C492 C489 1.463 . S
C492 N496 1.427 . S
C493 H483 0.929 . S
C493 C491 1.433 . S
C493 N496 1.384 . S
C494 H485 0.929 . S
C494 C486 1.378 . S
C494 C489 1.350 . S
C495 H482 0.929 . S
C495 C487 1.433 . S
C495 N497 1.384 . S
N496 C492 1.427 . S
N496 C493 1.384 . S
N497 C489 1.427 . S
N497 C495 1.384 . S
H498 C504 0.930 . S
H499 C508 0.930 . S
H500 C513 0.929 . S
H501 C511 0.929 . S
H502 C506 0.929 . S
H503 C512 0.929 . S
C504 H498 0.930 . S
C504 C505 1.367 . S
C504 C512 1.378 . S
C505 C504 1.367 . S
C505 C513 1.433 . S
C506 H502 0.929 . S
C506 C508 1.378 . S
C506 C510 1.350 . S
C507 C510 1.463 . S
C507 C512 1.350 . S
C507 N515 1.427 . S
C508 H499 0.930 . S
C508 C506 1.378 . S
C508 C509 1.367 . S
C509 C508 1.367 . S
C509 C511 1.433 . S
C510 C506 1.350 . S
C510 C507 1.463 . S
C510 N514 1.427 . S
C511 H501 0.929 . S
C511 C509 1.433 . S
C511 N514 1.384 . S
C512 H503 0.929 . S
C512 C504 1.378 . S
C512 C507 1.350 . S
C513 H500 0.929 . S
C513 C505 1.433 . S
C513 N515 1.384 . S
N514 C510 1.427 . S
N514 C511 1.384 . S
N515 C507 1.427 . S
N515 C513 1.384 . S
H516 C522 0.930 . S
H517 C526 0.930 . S
H518 C531 0.929 . S
H519 C529 0.929 . S
H520 C524 0.929 . S
H521 C530 0.929 . S
C522 H516 0.930 . S
C522 C523 1.367 . S
C522 C530 1.378 . S
C523 C522 1.367 . S
C523 C531 1.433 . S
C524 H520 0.929 . S
C524 C526 1.378 . S
C524 C528 1.350 . S
C525 C528 1.463 . S
C525 C530 1.350 . S
C525 N533 1.427 . S
C526 H517 0.930 . S
C526 C524 1.378 . S
C526 C527 1.367 . S
C527 C526 1.367 . S
C527 C529 1.433 . S
C528 C524 1.350 . S
C528 C525 1.463 . S
C528 N532 1.427 . S
C529 H519 0.929 . S
C529 C527 1.433 . S
C529 N532 1.384 . S
C530 H521 0.929 . S
C530 C522 1.378 . S
C530 C525 1.350 . S
C531 H518 0.929 . S
C531 C523 1.433 . S
C531 N533 1.384 . S
N532 C528 1.427 . S
N532 C529 1.384 . S
N533 C525 1.427 . S
N533 C531 1.384 . S
H534 C540 0.930 . S
H535 C544 0.930 . S
H536 C549 0.929 . S
H537 C547 0.929 . S
H538 C542 0.929 . S
H539 C548 0.929 . S
C540 H534 0.930 . S
C540 C541 1.367 . S
C540 C548 1.378 . S
C541 C540 1.367 . S
C541 C549 1.433 . S
C542 H538 0.929 . S
C542 C544 1.378 . S
C542 C546 1.350 . S
C543 C546 1.463 . S
C543 C548 1.350 . S
C543 N551 1.427 . S
C544 H535 0.930 . S
C544 C542 1.378 . S
C544 C545 1.367 . S
C545 C544 1.367 . S
C545 C547 1.433 . S
C546 C542 1.350 . S
C546 C543 1.463 . S
C546 N550 1.427 . S
C547 H537 0.929 . S
C547 C545 1.433 . S
C547 N550 1.384 . S
C548 H539 0.929 . S
C548 C540 1.378 . S
C548 C543 1.350 . S
C549 H536 0.929 . S
C549 C541 1.433 . S
C549 N551 1.384 . S
N550 C546 1.427 . S
N550 C547 1.384 . S
N551 C543 1.427 . S
N551 C549 1.384 . S
H552 C558 0.930 . S
H553 C562 0.930 . S
H554 C567 0.929 . S
H555 C565 0.929 . S
H556 C560 0.929 . S
H557 C566 0.929 . S
C558 H552 0.930 . S
C558 C559 1.367 . S
C558 C566 1.378 . S
C559 C558 1.367 . S
C559 C567 1.433 . S
C560 H556 0.929 . S
C560 C562 1.378 . S
C560 C564 1.350 . S
C561 C564 1.463 . S
C561 C566 1.350 . S
C561 N569 1.427 . S
C562 H553 0.930 . S
C562 C560 1.378 . S
C562 C563 1.367 . S
C563 C562 1.367 . S
C563 C565 1.433 . S
C564 C560 1.350 . S
C564 C561 1.463 . S
C564 N568 1.427 . S
C565 H555 0.929 . S
C565 C563 1.433 . S
C565 N568 1.384 . S
C566 H557 0.929 . S
C566 C558 1.378 . S
C566 C561 1.350 . S
C567 H554 0.929 . S
C567 C559 1.433 . S
C567 N569 1.384 . S
N568 C564 1.427 . S
N568 C565 1.384 . S
N569 C561 1.427 . S
N569 C567 1.384 . S
H570 C576 0.930 . S
H571 C580 0.930 . S
H572 C585 0.929 . S
H573 C583 0.929 . S
H574 C578 0.929 . S
H575 C584 0.929 . S
C576 H570 0.930 . S
C576 C577 1.367 . S
C576 C584 1.378 . S
C577 C576 1.367 . S
C577 C585 1.433 . S
C578 H574 0.929 . S
C578 C580 1.378 . S
C578 C582 1.350 . S
C579 C582 1.463 . S
C579 C584 1.350 . S
C579 N587 1.427 . S
C580 H571 0.930 . S
C580 C578 1.378 . S
C580 C581 1.367 . S
C581 C580 1.367 . S
C581 C583 1.433 . S
C582 C578 1.350 . S
C582 C579 1.463 . S
C582 N586 1.427 . S
C583 H573 0.929 . S
C583 C581 1.433 . S
C583 N586 1.384 . S
C584 H575 0.929 . S
C584 C576 1.378 . S
C584 C579 1.350 . S
C585 H572 0.929 . S
C585 C577 1.433 . S
C585 N587 1.384 . S
N586 C582 1.427 . S
N586 C583 1.384 . S
N587 C579 1.427 . S
N587 C585 1.384 . S
H588 C594 0.930 . S
H589 C598 0.930 . S
H590 C603 0.929 . S
H591 C601 0.929 . S
H592 C596 0.929 . S
H593 C602 0.929 . S
C594 H588 0.930 . S
C594 C595 1.367 . S
C594 C602 1.378 . S
C595 C594 1.367 . S
C595 C603 1.433 . S
C596 H592 0.929 . S
C596 C598 1.378 1_554 S
C596 C600 1.350 . S
C597 C600 1.463 . S
C597 C602 1.350 . S
C597 N605 1.427 . S
C598 H589 0.930 . S
C598 C596 1.378 1_556 S
C598 C599 1.367 . S
C599 C598 1.367 . S
C599 C601 1.433 . S
C600 C596 1.350 . S
C600 C597 1.463 . S
C600 N604 1.427 . S
C601 H591 0.929 . S
C601 C599 1.433 . S
C601 N604 1.384 1_556 S
C602 H593 0.929 . S
C602 C594 1.378 . S
C602 C597 1.350 . S
C603 H590 0.929 . S
C603 C595 1.433 . S
C603 N605 1.384 . S
N604 C600 1.427 . S
N604 C601 1.384 1_554 S
N605 C597 1.427 . S
N605 C603 1.384 . S
H606 C612 0.930 . S
H607 C616 0.930 . S
H608 C621 0.929 . S
H609 C619 0.929 . S
H610 C614 0.929 . S
H611 C620 0.929 . S
C612 H606 0.930 . S
C612 C613 1.367 . S
C612 C620 1.378 . S
C613 C612 1.367 . S
C613 C621 1.433 . S
C614 H610 0.929 . S
C614 C616 1.378 . S
C614 C618 1.350 . S
C615 C618 1.463 . S
C615 C620 1.350 . S
C615 N623 1.427 . S
C616 H607 0.930 . S
C616 C614 1.378 . S
C616 C617 1.367 . S
C617 C616 1.367 . S
C617 C619 1.433 . S
C618 C614 1.350 . S
C618 C615 1.463 . S
C618 N622 1.427 . S
C619 H609 0.929 . S
C619 C617 1.433 . S
C619 N622 1.384 . S
C620 H611 0.929 . S
C620 C612 1.378 . S
C620 C615 1.350 . S
C621 H608 0.929 . S
C621 C613 1.433 . S
C621 N623 1.384 . S
N622 C618 1.427 . S
N622 C619 1.384 . S
N623 C615 1.427 . S
N623 C621 1.384 . S
C203 C185 1.557 . S
C199 C8 1.513 . S
C217 C26 1.433 . S
C221 C119 1.469 . S
C235 C50 1.376 . S
C239 C133 1.405 . S
C253 C68 1.427 . S
C257 C147 1.453 . S
C275 C161 1.467 . S
C271 C80 1.449 . S
C289 C104 1.461 . S
C293 C171 1.511 . S
C307 C32 1.512 . S
C311 C129 1.563 . S
C325 C44 1.569 . S
C329 C143 1.615 . S
C343 C62 1.501 . S
C347 C157 1.548 . S
C365 C175 1.461 . S
C361 C86 1.434 1_554 S
C383 C189 1.499 . S
C379 C98 1.462 . S
C401 C115 1.543 . S
C397 C14 1.500 . S
C415 C7 1.464 . S
C419 C130 1.453 . S
C433 C25 1.536 . S
C437 C144 1.523 . S
C455 C158 1.519 . S
C451 C52 1.536 . S
C469 C70 1.445 . S
C473 C177 1.413 . S
C491 C191 1.390 . S
C487 C79 1.416 . S
C509 C116 1.429 . S
C505 C106 1.447 . S
C527 C186 1.428 . S
C523 C34 1.443 . S
C541 C43 1.358 . S
C545 C121 1.333 . S
C563 C135 1.352 . S
C559 C61 1.359 . S
C577 C88 1.434 . S
C581 C149 1.415 . S
C595 C97 1.438 . S
C599 C163 1.408 . S
C613 C16 1.471 . S
C617 C172 1.456 . S
