# Generated by pormake.
# Topology cml, (3,6)-cn, num edge types: 1
# Building blocks:
#     Node 0, Type 0, BuildingBlock: VETTIZ_charged_linker_0, # of connection points: 3
#     Node 1, Type 0, BuildingBlock: VETTIZ_charged_linker_0, # of connection points: 3
#     Node 2, Type 0, BuildingBlock: VETTIZ_charged_linker_0, # of connection points: 3
#     Node 3, Type 0, BuildingBlock: VETTIZ_charged_linker_0, # of connection points: 3
#     Node 4, Type 0, BuildingBlock: VETTIZ_charged_linker_0, # of connection points: 3
#     Node 5, Type 0, BuildingBlock: VETTIZ_charged_linker_0, # of connection points: 3
#     Node 6, Type 0, BuildingBlock: VETTIZ_charged_linker_0, # of connection points: 3
#     Node 7, Type 0, BuildingBlock: VETTIZ_charged_linker_0, # of connection points: 3
#     Node 8, Type 1, BuildingBlock: IZENUY_clean_sbu_0, # of connection points: 6
#     Node 9, Type 1, BuildingBlock: IZENUY_clean_sbu_0, # of connection points: 6
#     Node 10, Type 1, BuildingBlock: IZENUY_clean_sbu_0, # of connection points: 6
#     Node 11, Type 1, BuildingBlock: IZENUY_clean_sbu_0, # of connection points: 6
#     Edge 12, Type (0, 1), BuildingBlock: ZUJKAS_clean_linker_0, # of connection points: 2
#     Edge 13, Type (0, 1), BuildingBlock: ZUJKAS_clean_linker_0, # of connection points: 2
#     Edge 14, Type (0, 1), BuildingBlock: ZUJKAS_clean_linker_0, # of connection points: 2
#     Edge 15, Type (0, 1), BuildingBlock: ZUJKAS_clean_linker_0, # of connection points: 2
#     Edge 16, Type (0, 1), BuildingBlock: ZUJKAS_clean_linker_0, # of connection points: 2
#     Edge 17, Type (0, 1), BuildingBlock: ZUJKAS_clean_linker_0, # of connection points: 2
#     Edge 18, Type (0, 1), BuildingBlock: ZUJKAS_clean_linker_0, # of connection points: 2
#     Edge 19, Type (0, 1), BuildingBlock: ZUJKAS_clean_linker_0, # of connection points: 2
#     Edge 20, Type (0, 1), BuildingBlock: ZUJKAS_clean_linker_0, # of connection points: 2
#     Edge 21, Type (0, 1), BuildingBlock: ZUJKAS_clean_linker_0, # of connection points: 2
#     Edge 22, Type (0, 1), BuildingBlock: ZUJKAS_clean_linker_0, # of connection points: 2
#     Edge 23, Type (0, 1), BuildingBlock: ZUJKAS_clean_linker_0, # of connection points: 2
#     Edge 24, Type (0, 1), BuildingBlock: ZUJKAS_clean_linker_0, # of connection points: 2
#     Edge 25, Type (0, 1), BuildingBlock: ZUJKAS_clean_linker_0, # of connection points: 2
#     Edge 26, Type (0, 1), BuildingBlock: ZUJKAS_clean_linker_0, # of connection points: 2
#     Edge 27, Type (0, 1), BuildingBlock: ZUJKAS_clean_linker_0, # of connection points: 2
#     Edge 28, Type (0, 1), BuildingBlock: ZUJKAS_clean_linker_0, # of connection points: 2
#     Edge 29, Type (0, 1), BuildingBlock: ZUJKAS_clean_linker_0, # of connection points: 2
#     Edge 30, Type (0, 1), BuildingBlock: ZUJKAS_clean_linker_0, # of connection points: 2
#     Edge 31, Type (0, 1), BuildingBlock: ZUJKAS_clean_linker_0, # of connection points: 2
#     Edge 32, Type (0, 1), BuildingBlock: ZUJKAS_clean_linker_0, # of connection points: 2
#     Edge 33, Type (0, 1), BuildingBlock: ZUJKAS_clean_linker_0, # of connection points: 2
#     Edge 34, Type (0, 1), BuildingBlock: ZUJKAS_clean_linker_0, # of connection points: 2
#     Edge 35, Type (0, 1), BuildingBlock: ZUJKAS_clean_linker_0, # of connection points: 2
# Relax obj value: 0.059
# Max RMSD: 0.074
# Mean RMSD: 0.071
data_MOF--net-cml--node1-IZENUY_clean_sbu_0--node2-VETTIZ_charged_linker_0--edge1-ZUJKAS_clean_linker_0
_symmetry_space_group_name_H-M    P1
_symmetry_Int_Tables_number       1
_symmetry_cell_setting            triclinic
loop_
_symmetry_equiv_pos_as_xyz
'x, y, z'
_cell_length_a     53.399298
_cell_length_b     62.256411
_cell_length_c     57.915096
_cell_angle_alpha  89.995194
_cell_angle_beta   89.980979
_cell_angle_gamma 90.192805
loop_
_atom_site_label
_atom_site_type_symbol
_atom_site_fract_x
_atom_site_fract_y
_atom_site_fract_z
_atom_type_partial_charge
C0 C 0.30629 0.36415 0.08327 0.0
C1 C 0.32564 0.3755 0.09447 0.0
C2 C 0.33652 0.39334 0.08322 0.0
C3 C 0.3094 0.38803 0.05019 0.0
C4 C 0.29855 0.37064 0.06121 0.0
C5 C 0.2787 0.36007 0.04662 0.0
H6 H 0.21942 0.35189 0.94357 0.0
C7 C 0.2977 0.39017 0.0272 0.0
C8 C 0.27969 0.37383 0.02495 0.0
H9 H 0.20739 0.3138 0.00496 0.0
H10 H 0.23771 0.33529 0.02572 0.0
H11 H 0.21899 0.39664 0.97007 0.0
H12 H 0.27996 0.35654 0.94785 0.0
H13 H 0.28722 0.38331 0.94062 0.0
H14 H 0.25998 0.37073 0.92817 0.0
H15 H 0.22897 0.39581 0.94051 0.0
H16 H 0.24313 0.41392 0.96112 0.0
C17 C 0.25324 0.36209 0.05929 0.0
C18 C 0.28696 0.33666 0.04187 0.0
C19 C 0.32742 0.44887 0.97266 0.0
C20 C 0.32087 0.45455 0.94995 0.0
C21 C 0.30207 0.44264 0.93855 0.0
C22 C 0.29021 0.42525 0.94949 0.0
C23 C 0.29718 0.41966 0.97211 0.0
C24 C 0.31542 0.43149 0.98333 0.0
C25 C 0.32049 0.42326 0.00728 0.0
C26 C 0.30214 0.40464 0.00867 0.0
C27 C 0.28862 0.40254 0.98801 0.0
C28 C 0.31392 0.44129 0.02468 0.0
C29 C 0.3481 0.41562 0.00825 0.0
C30 C 0.22351 0.34816 0.96144 0.0
C31 C 0.2113 0.33105 0.97264 0.0
C32 C 0.21661 0.32693 0.99604 0.0
C33 C 0.23428 0.33935 0.00801 0.0
C34 C 0.24669 0.35618 0.99649 0.0
C35 C 0.24087 0.36061 0.97373 0.0
C36 C 0.25493 0.37983 0.96469 0.0
C37 C 0.27064 0.38583 0.98557 0.0
C38 C 0.26595 0.37176 0.00406 0.0
C39 C 0.23566 0.39751 0.95857 0.0
C40 C 0.27134 0.37242 0.94414 0.0
H41 H 0.33766 0.4133 0.05366 0.0
H42 H 0.29731 0.35052 0.09147 0.0
H43 H 0.30736 0.33601 0.03802 0.0
H44 H 0.27773 0.32945 0.0267 0.0
H45 H 0.28338 0.32626 0.05712 0.0
H46 H 0.25251 0.37699 0.06987 0.0
H47 H 0.24999 0.34827 0.07106 0.0
H48 H 0.23725 0.3635 0.04726 0.0
H49 H 0.34154 0.45783 0.98206 0.0
H50 H 0.29683 0.44651 0.92097 0.0
H51 H 0.27623 0.41672 0.93982 0.0
H52 H 0.29707 0.45029 0.01892 0.0
H53 H 0.32956 0.453 0.02633 0.0
H54 H 0.30905 0.43512 0.04198 0.0
H55 H 0.3543 0.40926 0.99123 0.0
H56 H 0.35097 0.40215 0.02036 0.0
H57 H 0.3609 0.42902 0.01295 0.0
H58 H 0.35173 0.40219 0.09118 0.0
C59 C 0.32847 0.39968 0.06127 0.0
C60 C 0.78359 0.64957 0.46216 0.0
C61 C 0.79332 0.66851 0.47202 0.0
C62 C 0.78521 0.67459 0.49426 0.0
C63 C 0.7578 0.6435 0.49612 0.0
C64 C 0.76595 0.63739 0.47445 0.0
C65 C 0.75356 0.617 0.46633 0.0
H66 H 0.66756 0.53857 0.48473 0.0
C67 C 0.73897 0.62764 0.50398 0.0
C68 C 0.73643 0.61203 0.48657 0.0
H69 H 0.71607 0.54622 0.42553 0.0
H70 H 0.73528 0.57745 0.44323 0.0
H71 H 0.70949 0.54802 0.5225 0.0
H72 H 0.65364 0.58716 0.48999 0.0
H73 H 0.65473 0.59538 0.51892 0.0
H74 H 0.64617 0.56804 0.51214 0.0
H75 H 0.67695 0.54645 0.53003 0.0
H76 H 0.69795 0.56508 0.5441 0.0
C77 C 0.77402 0.59966 0.46323 0.0
C78 C 0.73863 0.62212 0.44409 0.0
C79 C 0.69448 0.63753 0.58123 0.0
C80 C 0.67519 0.62588 0.59216 0.0
C81 C 0.66582 0.60716 0.58152 0.0
C82 C 0.67517 0.60025 0.56026 0.0
C83 C 0.69408 0.6122 0.5493 0.0
C84 C 0.70352 0.63045 0.55977 0.0
C85 C 0.72328 0.64122 0.54516 0.0
C86 C 0.72413 0.62633 0.52434 0.0
C87 C 0.70696 0.6094 0.52695 0.0
C88 C 0.74823 0.64105 0.55878 0.0
C89 C 0.7138 0.66393 0.5387 0.0
C90 C 0.68222 0.54704 0.47549 0.0
C91 C 0.69013 0.54007 0.45361 0.0
C92 C 0.70968 0.55126 0.44243 0.0
C93 C 0.72069 0.56945 0.45268 0.0
C94 C 0.71212 0.57648 0.47438 0.0
C95 C 0.69339 0.56511 0.48547 0.0
C96 C 0.68671 0.57457 0.50848 0.0
C97 C 0.70435 0.59367 0.5094 0.0
C98 C 0.71912 0.59483 0.48937 0.0
C99 C 0.69285 0.55773 0.52738 0.0
C100 C 0.65885 0.58157 0.50759 0.0
H101 H 0.76208 0.66778 0.52311 0.0
H102 H 0.78967 0.64425 0.44526 0.0
H103 H 0.72927 0.63801 0.44554 0.0
H104 H 0.72337 0.61057 0.4407 0.0
H105 H 0.75118 0.6227 0.4288 0.0
H106 H 0.78896 0.60146 0.47648 0.0
H107 H 0.78301 0.60092 0.44598 0.0
H108 H 0.76679 0.58316 0.46562 0.0
H109 H 0.70196 0.65204 0.58895 0.0
H110 H 0.65125 0.59773 0.58977 0.0
H111 H 0.66713 0.58591 0.55314 0.0
H112 H 0.75032 0.62578 0.56858 0.0
H113 H 0.74899 0.65447 0.57141 0.0
H114 H 0.76487 0.64187 0.5475 0.0
H115 H 0.69318 0.66383 0.53588 0.0
H116 H 0.72173 0.66997 0.52233 0.0
H117 H 0.71788 0.67567 0.55265 0.0
H118 H 0.79214 0.6892 0.50218 0.0
C119 C 0.76758 0.6622 0.50634 0.0
C120 C 0.70249 0.45534 0.96401 0.0
C121 C 0.68585 0.4701 0.97414 0.0
C122 C 0.67797 0.46672 0.9971 0.0
C123 C 0.70208 0.43388 0.99904 0.0
C124 C 0.71038 0.43745 0.97677 0.0
C125 C 0.72774 0.42001 0.96859 0.0
H126 H 0.78429 0.32448 0.98848 0.0
C127 C 0.71276 0.41336 0.00713 0.0
C128 C 0.72793 0.40517 0.98944 0.0
H129 H 0.79139 0.36558 0.92856 0.0
H130 H 0.76321 0.39114 0.94574 0.0
H131 H 0.7881 0.36308 0.02617 0.0
H132 H 0.72533 0.33035 0.99514 0.0
H133 H 0.7182 0.33429 0.02443 0.0
H134 H 0.74465 0.31787 0.01661 0.0
H135 H 0.78033 0.33566 0.03267 0.0
H136 H 0.76606 0.35765 0.04799 0.0
C137 C 0.75382 0.43018 0.96407 0.0
C138 C 0.71574 0.40913 0.94722 0.0
C139 C 0.68755 0.38432 0.08564 0.0
C140 C 0.69286 0.36519 0.09752 0.0
C141 C 0.70904 0.35009 0.08725 0.0
C142 C 0.71971 0.35402 0.06548 0.0
C143 C 0.71403 0.37319 0.05375 0.0
C144 C 0.6982 0.38793 0.06391 0.0
C145 C 0.69361 0.40713 0.04881 0.0
C146 C 0.7094 0.40158 0.02789 0.0
C147 C 0.72137 0.38172 0.03085 0.0
C148 C 0.70365 0.42732 0.0615 0.0
C149 C 0.66526 0.40778 0.04297 0.0
C150 C 0.77998 0.33907 0.97912 0.0
C151 C 0.79009 0.3429 0.95704 0.0
C152 C 0.7836 0.362 0.9454 0.0
C153 C 0.76736 0.37694 0.95549 0.0
C154 C 0.75739 0.37284 0.97751 0.0
C155 C 0.76382 0.3542 0.98899 0.0
C156 C 0.75159 0.35263 0.01235 0.0
C157 C 0.73695 0.37348 0.01306 0.0
C158 C 0.74031 0.3852 0.99254 0.0
C159 C 0.77246 0.35207 0.0309 0.0
C160 C 0.73411 0.33271 0.01238 0.0
H161 H 0.67901 0.44702 0.02683 0.0
H162 H 0.70913 0.45761 0.94651 0.0
H163 H 0.69519 0.40719 0.94966 0.0
H164 H 0.72281 0.39277 0.94406 0.0
H165 H 0.71873 0.41895 0.93143 0.0
H166 H 0.75742 0.44386 0.97599 0.0
H167 H 0.75527 0.4364 0.94614 0.0
H168 H 0.76936 0.4189 0.96732 0.0
H169 H 0.67482 0.39607 0.09282 0.0
H170 H 0.71353 0.33528 0.09611 0.0
H171 H 0.73187 0.34192 0.05857 0.0
H172 H 0.72054 0.42342 0.07192 0.0
H173 H 0.68936 0.43397 0.07344 0.0
H174 H 0.70991 0.4401 0.04956 0.0
H175 H 0.65746 0.39126 0.04122 0.0
H176 H 0.66125 0.41554 0.02625 0.0
H177 H 0.65452 0.41606 0.05676 0.0
H178 H 0.66494 0.47766 0.00524 0.0
C179 C 0.686 0.44877 0.00957 0.0
C180 C 0.22323 0.65018 0.46213 0.0
C181 C 0.21336 0.66905 0.47191 0.0
C182 C 0.22108 0.67511 0.49428 0.0
C183 C 0.24799 0.64394 0.49665 0.0
C184 C 0.24045 0.63795 0.47475 0.0
C185 C 0.25303 0.61766 0.46678 0.0
H186 H 0.33682 0.53849 0.48717 0.0
C187 C 0.26619 0.6279 0.50499 0.0
C188 C 0.2692 0.61241 0.48759 0.0
H189 H 0.2929 0.54897 0.42548 0.0
H190 H 0.27267 0.57927 0.4435 0.0
H191 H 0.35059 0.58787 0.49545 0.0
H192 H 0.29273 0.54708 0.52311 0.0
H193 H 0.30242 0.5639 0.54575 0.0
H194 H 0.32455 0.54556 0.5329 0.0
H195 H 0.35676 0.56653 0.51548 0.0
H196 H 0.3486 0.59307 0.52521 0.0
C197 C 0.26898 0.6231 0.44518 0.0
C198 C 0.23257 0.60039 0.46269 0.0
C199 C 0.30691 0.63725 0.58377 0.0
C200 C 0.32445 0.62497 0.59612 0.0
C201 C 0.33317 0.60561 0.58644 0.0
C202 C 0.32492 0.59876 0.56469 0.0
C203 C 0.30775 0.61139 0.55237 0.0
C204 C 0.29878 0.63012 0.56207 0.0
C205 C 0.28023 0.64123 0.54662 0.0
C206 C 0.27985 0.6262 0.52595 0.0
C207 C 0.29614 0.60886 0.52937 0.0
C208 C 0.29099 0.66364 0.54034 0.0
C209 C 0.25463 0.64176 0.55922 0.0
C210 C 0.32295 0.54737 0.47747 0.0
C211 C 0.31662 0.54138 0.45479 0.0
C212 C 0.29803 0.55313 0.44302 0.0
C213 C 0.28644 0.57085 0.45345 0.0
C214 C 0.29352 0.57697 0.4759 0.0
C215 C 0.3113 0.56513 0.48759 0.0
C216 C 0.31662 0.57396 0.51125 0.0
C217 C 0.29937 0.59327 0.51173 0.0
C218 C 0.28591 0.59499 0.49098 0.0
C219 C 0.3446 0.58063 0.51215 0.0
C220 C 0.30891 0.55679 0.52932 0.0
H221 H 0.24339 0.66824 0.52355 0.0
H222 H 0.21756 0.64491 0.44509 0.0
H223 H 0.21749 0.60165 0.47588 0.0
H224 H 0.2397 0.58383 0.46434 0.0
H225 H 0.22379 0.60232 0.44543 0.0
H226 H 0.27725 0.63948 0.44658 0.0
H227 H 0.25742 0.62266 0.42924 0.0
H228 H 0.28521 0.61236 0.44298 0.0
H229 H 0.29961 0.65206 0.59086 0.0
H230 H 0.34689 0.59596 0.59546 0.0
H231 H 0.33249 0.584 0.55821 0.0
H232 H 0.31166 0.6629 0.53801 0.0
H233 H 0.28708 0.67551 0.55418 0.0
H234 H 0.28381 0.66989 0.52379 0.0
H235 H 0.25191 0.62712 0.56997 0.0
H236 H 0.23855 0.64178 0.54724 0.0
H237 H 0.2533 0.65591 0.57084 0.0
H238 H 0.21415 0.68972 0.50212 0.0
C239 C 0.23824 0.66267 0.50668 0.0
C240 C 0.81272 0.86183 0.08056 0.0
C241 C 0.83102 0.87392 0.09233 0.0
C242 C 0.83878 0.89377 0.08299 0.0
C243 C 0.81111 0.88884 0.05031 0.0
C244 C 0.80311 0.86956 0.05961 0.0
C245 C 0.78406 0.85855 0.0445 0.0
H246 H 0.71623 0.85741 0.94561 0.0
C247 C 0.79812 0.89198 0.02806 0.0
C248 C 0.78221 0.87431 0.02452 0.0
H249 H 0.71663 0.81023 1.00046 0.0
H250 H 0.7467 0.8314 0.02159 0.0
H251 H 0.71685 0.89932 0.97874 0.0
H252 H 0.77554 0.86426 0.94451 0.0
H253 H 0.78309 0.89165 0.94243 0.0
H254 H 0.75476 0.88175 0.92911 0.0
H255 H 0.72105 0.8997 0.94798 0.0
H256 H 0.7377 0.91808 0.96653 0.0
C257 C 0.75917 0.85691 0.05816 0.0
C258 C 0.79499 0.83666 0.03679 0.0
C259 C 0.81848 0.95753 0.97937 0.0
C260 C 0.81083 0.96431 0.95733 0.0
C261 C 0.79303 0.95194 0.94519 0.0
C262 C 0.78312 0.93304 0.9548 0.0
C263 C 0.79124 0.92631 0.97673 0.0
C264 C 0.8086 0.93855 0.98862 0.0
C265 C 0.81573 0.92868 0.01135 0.0
C266 C 0.79975 0.90849 0.01122 0.0
C267 C 0.78539 0.90719 0.99096 0.0
C268 C 0.80787 0.94435 0.03083 0.0
C269 C 0.84413 0.9235 0.01064 0.0
C270 C 0.72293 0.85155 0.96209 0.0
C271 C 0.71393 0.8321 0.97136 0.0
C272 C 0.72295 0.82527 0.99304 0.0
C273 C 0.74055 0.83754 0.00525 0.0
C274 C 0.74938 0.85689 0.99573 0.0
C275 C 0.74055 0.86361 0.97451 0.0
C276 C 0.75211 0.88457 0.96705 0.0
C277 C 0.76919 0.88937 0.98736 0.0
C278 C 0.76756 0.87306 0.00408 0.0
C279 C 0.73095 0.90139 0.96475 0.0
C280 C 0.76706 0.88057 0.94452 0.0
H281 H 0.83576 0.91646 0.05596 0.0
H282 H 0.80644 0.84646 0.0872 0.0
H283 H 0.81549 0.83799 0.03363 0.0
H284 H 0.78711 0.83086 0.02031 0.0
H285 H 0.79206 0.82419 0.05025 0.0
H286 H 0.75647 0.87127 0.06932 0.0
H287 H 0.759 0.84253 0.06953 0.0
H288 H 0.74251 0.85651 0.04689 0.0
H289 H 0.83247 0.96645 0.98896 0.0
H290 H 0.78675 0.95691 0.92823 0.0
H291 H 0.76967 0.92431 0.94469 0.0
H292 H 0.79007 0.95262 0.02639 0.0
H293 H 0.82237 0.95691 0.03364 0.0
H294 H 0.80398 0.93615 0.04736 0.0
H295 H 0.85015 0.91903 0.99288 0.0
H296 H 0.84921 0.90951 0.02135 0.0
H297 H 0.85552 0.93757 0.01608 0.0
H298 H 0.85248 0.9036 0.09191 0.0
C299 C 0.82894 0.90128 0.06213 0.0
C300 C 0.28013 0.15201 0.46259 0.0
C301 C 0.29017 0.17083 0.47249 0.0
C302 C 0.28314 0.17634 0.49522 0.0
C303 C 0.25615 0.14504 0.49747 0.0
C304 C 0.2633 0.1394 0.47536 0.0
C305 C 0.25097 0.11889 0.46747 0.0
H306 H 0.17087 0.03674 0.48975 0.0
C307 C 0.23816 0.12874 0.5059 0.0
C308 C 0.23514 0.11327 0.48843 0.0
H309 H 0.21416 0.04761 0.42772 0.0
H310 H 0.23193 0.07982 0.44443 0.0
H311 H 0.21509 0.04922 0.52591 0.0
H312 H 0.15382 0.08412 0.49599 0.0
H313 H 0.15651 0.09323 0.52452 0.0
H314 H 0.14932 0.06533 0.51912 0.0
H315 H 0.18301 0.04457 0.53375 0.0
H316 H 0.20173 0.06474 0.54803 0.0
C317 C 0.27171 0.10204 0.46309 0.0
C318 C 0.23465 0.12402 0.44608 0.0
C319 C 0.19747 0.13748 0.58485 0.0
C320 C 0.17951 0.12527 0.59694 0.0
C321 C 0.17033 0.10619 0.58683 0.0
C322 C 0.17874 0.09943 0.56513 0.0
C323 C 0.19648 0.11189 0.55319 0.0
C324 C 0.20562 0.13052 0.56308 0.0
C325 C 0.22424 0.14176 0.5477 0.0
C326 C 0.22454 0.12688 0.52689 0.0
C327 C 0.20826 0.10943 0.53025 0.0
C328 C 0.24986 0.14226 0.56027 0.0
C329 C 0.21361 0.16419 0.54163 0.0
C330 C 0.18446 0.04586 0.47988 0.0
C331 C 0.19122 0.03953 0.45743 0.0
C332 C 0.20853 0.0522 0.445 0.0
C333 C 0.21889 0.07086 0.45477 0.0
C334 C 0.2118 0.07702 0.4772 0.0
C335 C 0.19487 0.06454 0.48933 0.0
C336 C 0.18899 0.07371 0.5127 0.0
C337 C 0.20537 0.09366 0.51274 0.0
C338 C 0.21871 0.09556 0.49193 0.0
C339 C 0.19742 0.05726 0.5312 0.0
C340 C 0.16071 0.0793 0.51337 0.0
H341 H 0.26166 0.16873 0.52487 0.0
H342 H 0.28495 0.14733 0.44514 0.0
H343 H 0.22562 0.14001 0.44789 0.0
H344 H 0.21898 0.11262 0.44375 0.0
H345 H 0.24612 0.12432 0.43008 0.0
H346 H 0.28704 0.10367 0.476 0.0
H347 H 0.2801 0.10409 0.44567 0.0
H348 H 0.265 0.08534 0.46496 0.0
H349 H 0.20511 0.15211 0.59216 0.0
H350 H 0.15618 0.09663 0.59549 0.0
H351 H 0.17087 0.08485 0.55841 0.0
H352 H 0.25237 0.12771 0.57119 0.0
H353 H 0.25145 0.15652 0.57171 0.0
H354 H 0.26592 0.14204 0.54823 0.0
H355 H 0.19302 0.16331 0.53882 0.0
H356 H 0.22125 0.17082 0.52542 0.0
H357 H 0.21708 0.17583 0.55582 0.0
H358 H 0.29093 0.19044 0.50352 0.0
C359 C 0.26623 0.1636 0.5077 0.0
C360 C 0.1915 0.94662 0.95452 0.0
C361 C 0.1727 0.9603 0.96304 0.0
C362 C 0.16418 0.95751 0.98589 0.0
C363 C 0.192 0.92725 0.99095 0.0
C364 C 0.20081 0.93022 0.96874 0.0
C365 C 0.22025 0.9138 0.96229 0.0
H366 H 0.28726 0.82547 0.99113 0.0
C367 C 0.20487 0.90844 0.00092 0.0
C368 C 0.22155 0.9005 0.98429 0.0
H369 H 0.28783 0.86038 0.92651 0.0
H370 H 0.25817 0.88567 0.94185 0.0
H371 H 0.28672 0.86691 0.0245 0.0
H372 H 0.22723 0.82711 0.99773 0.0
H373 H 0.221 0.83209 0.02703 0.0
H374 H 0.24895 0.81775 0.01911 0.0
H375 H 0.28131 0.84006 0.03471 0.0
H376 H 0.26499 0.86274 0.04687 0.0
C377 C 0.24518 0.92577 0.95745 0.0
C378 C 0.21012 0.90057 0.94161 0.0
C379 C 0.18051 0.88257 0.08089 0.0
C380 C 0.18841 0.86538 0.09479 0.0
C381 C 0.20794 0.8521 0.08684 0.0
C382 C 0.21892 0.85558 0.0651 0.0
C383 C 0.21032 0.87254 0.05117 0.0
C384 C 0.19165 0.88585 0.05933 0.0
C385 C 0.18501 0.90325 0.04247 0.0
C386 C 0.20248 0.89803 0.02262 0.0
C387 C 0.21718 0.87998 0.0277 0.0
C388 C 0.19137 0.92523 0.05369 0.0
C389 C 0.15711 0.90032 0.0357 0.0
C390 C 0.28088 0.83846 0.9802 0.0
C391 C 0.29002 0.84085 0.95753 0.0
C392 C 0.28144 0.85826 0.94412 0.0
C393 C 0.26403 0.87288 0.953 0.0
C394 C 0.25487 0.8701 0.97555 0.0
C395 C 0.26336 0.85315 0.98878 0.0
C396 C 0.25131 0.85257 0.01227 0.0
C397 C 0.23417 0.87194 0.01093 0.0
C398 C 0.23633 0.88215 0.98936 0.0
C399 C 0.27204 0.85556 0.0307 0.0
C400 C 0.23642 0.83126 0.0144 0.0
H401 H 0.16629 0.93983 0.017 0.0
H402 H 0.19835 0.94826 0.93701 0.0
H403 H 0.18948 0.89831 0.94296 0.0
H404 H 0.21774 0.88413 0.94091 0.0
H405 H 0.21401 0.90881 0.92498 0.0
H406 H 0.24765 0.93949 0.96957 0.0
H407 H 0.24558 0.9323 0.93961 0.0
H408 H 0.26182 0.9156 0.96014 0.0
H409 H 0.1659 0.89334 0.08669 0.0
H410 H 0.21434 0.83873 0.09722 0.0
H411 H 0.2335 0.84479 0.05989 0.0
H412 H 0.20761 0.92386 0.06563 0.0
H413 H 0.1753 0.93146 0.06382 0.0
H414 H 0.1972 0.93746 0.04092 0.0
H415 H 0.15215 0.88298 0.03445 0.0
H416 H 0.15259 0.90698 0.01855 0.0
H417 H 0.14455 0.90769 0.04876 0.0
H418 H 0.15007 0.96806 0.99303 0.0
C419 C 0.17372 0.94113 0.99985 0.0
C420 C 0.72189 0.14924 0.45823 0.0
C421 C 0.71251 0.16811 0.46838 0.0
C422 C 0.72063 0.17376 0.49076 0.0
C423 C 0.74739 0.1424 0.49215 0.0
C424 C 0.73916 0.13669 0.47037 0.0
C425 C 0.75107 0.11631 0.46189 0.0
H426 H 0.83494 0.03661 0.4783 0.0
C427 C 0.76586 0.12621 0.49973 0.0
C428 C 0.76801 0.11084 0.48206 0.0
H429 H 0.78565 0.04592 0.41991 0.0
H430 H 0.76806 0.07729 0.43816 0.0
H431 H 0.85014 0.08445 0.48457 0.0
H432 H 0.79288 0.04644 0.51717 0.0
H433 H 0.80623 0.06253 0.53883 0.0
H434 H 0.82553 0.04344 0.52365 0.0
H435 H 0.85709 0.06515 0.50663 0.0
H436 H 0.84935 0.0926 0.51353 0.0
C437 C 0.7662 0.12162 0.43977 0.0
C438 C 0.73017 0.09928 0.45848 0.0
C439 C 0.81101 0.13478 0.57675 0.0
C440 C 0.83025 0.12296 0.58735 0.0
C441 C 0.8392 0.10426 0.57646 0.0
C442 C 0.82948 0.09755 0.55523 0.0
C443 C 0.81063 0.10971 0.54458 0.0
C444 C 0.80162 0.12794 0.55532 0.0
C445 C 0.782 0.13906 0.541 0.0
C446 C 0.78074 0.12443 0.51999 0.0
C447 C 0.79754 0.10728 0.52228 0.0
C448 C 0.79191 0.16176 0.53479 0.0
C449 C 0.75713 0.13896 0.55475 0.0
C450 C 0.82007 0.04516 0.46955 0.0
C451 C 0.81172 0.0387 0.44758 0.0
C452 C 0.79267 0.05066 0.4367 0.0
C453 C 0.78239 0.06883 0.44739 0.0
C454 C 0.79123 0.07521 0.46921 0.0
C455 C 0.80959 0.06328 0.47998 0.0
C456 C 0.81675 0.07235 0.50311 0.0
C457 C 0.79969 0.09174 0.50446 0.0
C458 C 0.78488 0.09341 0.48454 0.0
C459 C 0.8448 0.07889 0.50216 0.0
C460 C 0.81025 0.05537 0.52179 0.0
H461 H 0.74338 0.16622 0.51962 0.0
H462 H 0.71628 0.14449 0.441 0.0
H463 H 0.71499 0.10132 0.47146 0.0
H464 H 0.73685 0.08268 0.46106 0.0
H465 H 0.72156 0.10063 0.44108 0.0
H466 H 0.77562 0.13752 0.44138 0.0
H467 H 0.75378 0.12226 0.4244 0.0
H468 H 0.78146 0.11014 0.43639 0.0
H469 H 0.8039 0.1493 0.58464 0.0
H470 H 0.85377 0.09474 0.58445 0.0
H471 H 0.8372 0.08323 0.54787 0.0
H472 H 0.81246 0.16144 0.53162 0.0
H473 H 0.78838 0.17331 0.54904 0.0
H474 H 0.78381 0.16818 0.5187 0.0
H475 H 0.75483 0.12365 0.56445 0.0
H476 H 0.74044 0.13995 0.54355 0.0
H477 H 0.75664 0.15231 0.56747 0.0
H478 H 0.71342 0.188 0.49918 0.0
C479 C 0.73795 0.16103 0.50268 0.0
Fe480 Fe 0.00469 0.81618 0.32342 0.0
Fe481 Fe 0.00273 0.8415 0.36893 0.0
O482 O 0.00439 0.84103 0.33839 0.0
Fe483 Fe 0.00581 0.86541 0.32276 0.0
O484 O 0.9886 0.85512 0.29765 0.0
O485 O 0.97621 0.82283 0.30791 0.0
O486 O 0.98484 0.80195 0.34449 0.0
C487 C 0.96987 0.80889 0.35974 0.0
C488 C 0.03957 0.84171 0.29843 0.0
O489 O 0.97324 0.82706 0.36886 0.0
C490 C 0.03664 0.87378 0.36157 0.0
O491 O 0.03316 0.80795 0.33793 0.0
O492 O 0.02076 0.81668 0.37289 0.0
O493 O 0.03579 0.85833 0.31034 0.0
O494 O 0.02464 0.82586 0.29959 0.0
C495 C 0.97098 0.87575 0.35539 0.0
O496 O 0.03218 0.85601 0.37119 0.0
O497 O 0.02322 0.88025 0.34498 0.0
C498 C 0.03573 0.80694 0.35956 0.0
O499 O 0.98434 0.8664 0.3704 0.0
O500 O 0.97595 0.87407 0.33419 0.0
C501 C 0.97364 0.8394 0.29561 0.0
Fe502 Fe 0.9999 0.16083 0.86827 0.0
Fe503 Fe 0.998 0.13657 0.82231 0.0
O504 O 0.99894 0.16106 0.83773 0.0
Fe505 Fe 0.99893 0.18585 0.82261 0.0
O506 O 0.0181 0.20023 0.84412 0.0
O507 O 0.02956 0.175 0.86842 0.0
O508 O 0.01793 0.1358 0.87048 0.0
C509 C 0.03169 0.12624 0.85595 0.0
C510 C 0.96705 0.19525 0.85802 0.0
O511 O 0.02746 0.12788 0.83462 0.0
C512 C 0.96511 0.16005 0.79675 0.0
O513 O 0.97031 0.14656 0.87008 0.0
O514 O 0.9797 0.12206 0.84421 0.0
O515 O 0.97 0.19398 0.83645 0.0
O516 O 0.98197 0.18582 0.87167 0.0
C517 C 0.03099 0.16251 0.79581 0.0
O518 O 0.96849 0.14356 0.80895 0.0
O519 O 0.97981 0.17601 0.79832 0.0
C520 C 0.96589 0.12878 0.86045 0.0
O521 O 0.01617 0.14666 0.79766 0.0
O522 O 0.02784 0.17924 0.80776 0.0
C523 C 0.03306 0.19314 0.85929 0.0
Fe524 Fe 0.50238 0.31667 0.32293 0.0
Fe525 Fe 0.50217 0.34208 0.36841 0.0
O526 O 0.50238 0.34156 0.33785 0.0
Fe527 Fe 0.50263 0.36601 0.32227 0.0
O528 O 0.48434 0.35568 0.2979 0.0
O529 O 0.47331 0.323 0.30818 0.0
O530 O 0.48334 0.30248 0.34469 0.0
C531 C 0.46894 0.30949 0.36038 0.0
C532 C 0.53574 0.34264 0.29664 0.0
O533 O 0.47268 0.32766 0.36942 0.0
C534 C 0.53557 0.37435 0.35955 0.0
O535 O 0.53145 0.30854 0.33657 0.0
O536 O 0.52024 0.31727 0.37182 0.0
O537 O 0.53199 0.35931 0.30849 0.0
O538 O 0.52141 0.32644 0.29852 0.0
C539 C 0.46957 0.37617 0.35642 0.0
O540 O 0.53175 0.35653 0.36932 0.0
O541 O 0.52101 0.38089 0.34381 0.0
C542 C 0.53477 0.30754 0.35811 0.0
O543 O 0.48398 0.36702 0.37071 0.0
O544 O 0.47322 0.37434 0.33501 0.0
C545 C 0.46979 0.33967 0.29623 0.0
Fe546 Fe 0.50048 0.66047 0.86967 0.0
Fe547 Fe 0.50389 0.63614 0.82378 0.0
O548 O 0.5023 0.66065 0.83914 0.0
Fe549 Fe 0.5026 0.68534 0.82389 0.0
O550 O 0.53102 0.69391 0.8384 0.0
O551 O 0.5184 0.6855 0.87341 0.0
O552 O 0.52998 0.64627 0.87223 0.0
C553 C 0.53459 0.62846 0.86279 0.0
C554 C 0.46763 0.69275 0.85998 0.0
O555 O 0.52126 0.62171 0.84623 0.0
C556 C 0.47185 0.66166 0.79611 0.0
O557 O 0.48226 0.6354 0.87137 0.0
O558 O 0.474 0.6273 0.83523 0.0
O559 O 0.48272 0.69963 0.84476 0.0
O560 O 0.47089 0.67466 0.86928 0.0
C561 C 0.53762 0.6599 0.79927 0.0
O562 O 0.48679 0.64606 0.79848 0.0
O563 O 0.47416 0.67831 0.80838 0.0
C564 C 0.46908 0.62565 0.85646 0.0
O565 O 0.5339 0.64337 0.81139 0.0
O566 O 0.52261 0.67561 0.80021 0.0
C567 C 0.53348 0.69515 0.86003 0.0
H568 H 0.16363 0.32041 0.98512 0.0
H569 H 0.13422 0.29715 0.96434 0.0
H570 H 0.18957 0.28687 0.91117 0.0
H571 H 0.21857 0.31091 0.93145 0.0
H572 H 0.14585 0.29236 0.89223 0.0
H573 H 0.13463 0.23334 0.96287 0.0
H574 H 0.12589 0.25979 0.97194 0.0
H575 H 0.15785 0.2544 0.96383 0.0
C576 C 0.16945 0.31312 0.96901 0.0
C577 C 0.19336 0.3173 0.95991 0.0
C578 C 0.15274 0.29973 0.95722 0.0
C579 C 0.15988 0.28977 0.93647 0.0
C580 C 0.18366 0.29424 0.92721 0.0
H581 H 0.07611 0.18115 0.88098 0.0
H582 H 0.1082 0.2045 0.89779 0.0
C583 C 0.2002 0.30797 0.93877 0.0
C584 C 0.14248 0.27495 0.92425 0.0
H585 H 0.10527 0.23085 0.93192 0.0
C586 C 0.13712 0.2788 0.90086 0.0
C587 C 0.13146 0.25698 0.93533 0.0
C588 C 0.13797 0.25073 0.95979 0.0
C589 C 0.12072 0.26546 0.88841 0.0
C590 C 0.10858 0.24824 0.89988 0.0
C591 C 0.11431 0.24417 0.92314 0.0
C592 C 0.08987 0.23419 0.88824 0.0
C593 C 0.1171 0.26974 0.86298 0.0
C594 C 0.06887 0.24303 0.87719 0.0
C595 C 0.05079 0.22971 0.86714 0.0
C596 C 0.05297 0.20725 0.86854 0.0
C597 C 0.07391 0.1984 0.87969 0.0
C598 C 0.09223 0.21174 0.88931 0.0
H599 H 0.13355 0.27819 0.85546 0.0
H600 H 0.11399 0.25462 0.85321 0.0
H601 H 0.10056 0.28024 0.86058 0.0
H602 H 0.06613 0.26025 0.87676 0.0
H603 H 0.03468 0.23699 0.85894 0.0
H604 H 0.79271 0.67893 0.42606 0.0
H605 H 0.82246 0.70158 0.40494 0.0
H606 H 0.86423 0.71213 0.46765 0.0
H607 H 0.83507 0.68898 0.48874 0.0
H608 H 0.83405 0.74452 0.41249 0.0
H609 H 0.91841 0.69357 0.42199 0.0
H610 H 0.88719 0.68372 0.42775 0.0
H611 H 0.90335 0.69973 0.4489 0.0
C612 C 0.80845 0.68579 0.43529 0.0
C613 C 0.81157 0.68205 0.45909 0.0
C614 C 0.82532 0.69885 0.42323 0.0
C615 C 0.84573 0.70831 0.43466 0.0
C616 C 0.84886 0.70469 0.4584 0.0
H617 H 0.93621 0.81737 0.39426 0.0
H618 H 0.90528 0.7929 0.41097 0.0
C619 C 0.832 0.69164 0.47048 0.0
C620 C 0.86333 0.72249 0.42191 0.0
H621 H 0.92503 0.72915 0.40806 0.0
C622 C 0.85393 0.74111 0.41138 0.0
C623 C 0.88918 0.71785 0.42023 0.0
C624 C 0.90015 0.69753 0.43011 0.0
C625 C 0.8698 0.75552 0.39973 0.0
C626 C 0.89581 0.75133 0.3989 0.0
C627 C 0.90511 0.73243 0.4089 0.0
C628 C 0.91381 0.76648 0.38803 0.0
C629 C 0.85855 0.77499 0.38826 0.0
C630 C 0.92913 0.75967 0.36978 0.0
C631 C 0.94698 0.77358 0.36025 0.0
C632 C 0.94998 0.79455 0.36893 0.0
C633 C 0.93438 0.80137 0.38708 0.0
C634 C 0.91656 0.78744 0.39659 0.0
H635 H 0.83824 0.77274 0.38486 0.0
H636 H 0.86075 0.78908 0.39981 0.0
H637 H 0.86813 0.77862 0.37168 0.0
H638 H 0.92737 0.74352 0.36298 0.0
H639 H 0.95865 0.76777 0.3463 0.0
H640 H 0.82748 0.31985 0.97785 0.0
H641 H 0.85608 0.29415 0.95993 0.0
H642 H 0.82094 0.30477 0.89393 0.0
H643 H 0.79194 0.33021 0.91173 0.0
H644 H 0.84366 0.25581 0.93427 0.0
H645 H 0.89663 0.31545 0.88184 0.0
H646 H 0.87719 0.32311 0.90598 0.0
H647 H 0.86314 0.31615 0.87881 0.0
C648 C 0.82565 0.31659 0.95956 0.0
C649 C 0.80744 0.32718 0.94622 0.0
C650 C 0.84211 0.30199 0.94934 0.0
C651 C 0.84082 0.2978 0.92557 0.0
C652 C 0.82253 0.30811 0.91223 0.0
H653 H 0.93142 0.2181 0.83441 0.0
H654 H 0.89965 0.2421 0.85049 0.0
C655 C 0.80602 0.32267 0.92244 0.0
C656 C 0.85845 0.28244 0.91483 0.0
H657 H 0.90662 0.27888 0.87625 0.0
C658 C 0.85745 0.26082 0.9216 0.0
C659 C 0.8763 0.28905 0.89822 0.0
C660 C 0.87863 0.31222 0.89084 0.0
C661 C 0.87376 0.24555 0.91206 0.0
C662 C 0.89189 0.25221 0.89571 0.0
C663 C 0.8927 0.27381 0.88877 0.0
C664 C 0.91066 0.23717 0.88604 0.0
C665 C 0.87113 0.22237 0.91932 0.0
C666 C 0.92753 0.22658 0.90068 0.0
C667 C 0.94564 0.21283 0.89158 0.0
C668 C 0.94745 0.20954 0.8676 0.0
C669 C 0.93057 0.22025 0.85296 0.0
C670 C 0.9124 0.23398 0.8621 0.0
H671 H 0.85217 0.21894 0.92637 0.0
H672 H 0.87469 0.21135 0.90462 0.0
H673 H 0.88498 0.21886 0.93308 0.0
H674 H 0.92692 0.22919 0.91916 0.0
H675 H 0.95839 0.20495 0.90338 0.0
H676 H 0.21398 0.67907 0.42575 0.0
H677 H 0.18484 0.70225 0.40473 0.0
H678 H 0.14317 0.71299 0.4674 0.0
H679 H 0.17177 0.68952 0.48847 0.0
H680 H 0.13 0.69856 0.40134 0.0
H681 H 0.16224 0.77417 0.44292 0.0
H682 H 0.18067 0.74989 0.44302 0.0
H683 H 0.15466 0.75267 0.46246 0.0
C684 C 0.19845 0.68615 0.43503 0.0
C685 C 0.19532 0.68255 0.45886 0.0
C686 C 0.18192 0.69947 0.423 0.0
C687 C 0.16214 0.70954 0.43462 0.0
C688 C 0.15864 0.70566 0.45825 0.0
H689 H 0.04286 0.79716 0.40506 0.0
H690 H 0.07408 0.77322 0.42171 0.0
C691 C 0.17505 0.69229 0.47026 0.0
C692 C 0.14507 0.72414 0.42214 0.0
H693 H 0.12539 0.77619 0.4202 0.0
C694 C 0.12907 0.71557 0.40526 0.0
C695 C 0.14401 0.74629 0.42737 0.0
C696 C 0.16143 0.75642 0.44479 0.0
C697 C 0.11132 0.72849 0.39402 0.0
C698 C 0.11001 0.75061 0.39951 0.0
C699 C 0.1264 0.75922 0.41606 0.0
C700 C 0.09112 0.76501 0.389 0.0
C701 C 0.09355 0.71818 0.37703 0.0
C702 C 0.09052 0.76854 0.36507 0.0
C703 C 0.07256 0.78217 0.35543 0.0
C704 C 0.05503 0.79267 0.3696 0.0
C705 C 0.056 0.78932 0.39361 0.0
C706 C 0.07386 0.77564 0.40318 0.0
H707 H 0.09297 0.70043 0.37898 0.0
H708 H 0.07429 0.72453 0.37918 0.0
H709 H 0.09985 0.72187 0.35921 0.0
H710 H 0.10404 0.76087 0.35386 0.0
H711 H 0.07248 0.78454 0.3369 0.0
H712 H 0.71235 0.82367 0.92492 0.0
H713 H 0.68148 0.802 0.90398 0.0
H714 H 0.64312 0.78843 0.9679 0.0
H715 H 0.67328 0.81066 0.98883 0.0
H716 H 0.67017 0.75887 0.90956 0.0
H717 H 0.58647 0.80889 0.92644 0.0
H718 H 0.61796 0.81853 0.9313 0.0
H719 H 0.6029 0.80149 0.95225 0.0
C720 C 0.69711 0.81635 0.93448 0.0
C721 C 0.69523 0.81898 0.95855 0.0
C722 C 0.67961 0.80386 0.9225 0.0
C723 C 0.65981 0.79388 0.93434 0.0
C724 C 0.65797 0.79633 0.95836 0.0
H725 H 0.54108 0.70469 0.90555 0.0
H726 H 0.57241 0.72883 0.92208 0.0
C727 C 0.67542 0.80883 0.97034 0.0
C728 C 0.6415 0.78032 0.92173 0.0
H729 H 0.57896 0.77367 0.91163 0.0
C730 C 0.65025 0.76221 0.90978 0.0
C731 C 0.61553 0.78476 0.92202 0.0
C732 C 0.60514 0.80459 0.9335 0.0
C733 C 0.63362 0.74799 0.8988 0.0
C734 C 0.60763 0.75217 0.89961 0.0
C735 C 0.59892 0.77048 0.91116 0.0
C736 C 0.58904 0.73734 0.88927 0.0
C737 C 0.64386 0.72824 0.88707 0.0
C738 C 0.58796 0.73424 0.86529 0.0
C739 C 0.57001 0.72045 0.85572 0.0
C740 C 0.55279 0.70957 0.87 0.0
C741 C 0.55402 0.71276 0.89403 0.0
C742 C 0.5719 0.72658 0.90353 0.0
H743 H 0.66368 0.72518 0.89186 0.0
H744 H 0.63249 0.71386 0.89157 0.0
H745 H 0.64293 0.73043 0.86808 0.0
H746 H 0.60083 0.74264 0.85398 0.0
H747 H 0.56957 0.71838 0.83715 0.0
H748 H 0.29248 0.21481 0.47182 0.0
H749 H 0.32248 0.23761 0.45134 0.0
H750 H 0.35757 0.18147 0.42242 0.0
H751 H 0.32804 0.15841 0.44331 0.0
H752 H 0.37723 0.23485 0.45565 0.0
H753 H 0.3427 0.22204 0.36603 0.0
H754 H 0.32351 0.2168 0.39112 0.0
H755 H 0.34784 0.19839 0.38324 0.0
C756 C 0.30667 0.20724 0.46125 0.0
C757 C 0.30787 0.18473 0.45931 0.0
C758 C 0.32368 0.22033 0.44944 0.0
C759 C 0.34205 0.21121 0.43523 0.0
C760 C 0.34325 0.1888 0.43303 0.0
H761 H 0.46124 0.26671 0.35168 0.0
H762 H 0.43056 0.24281 0.36981 0.0
C763 C 0.32631 0.17566 0.44495 0.0
C764 C 0.36054 0.2252 0.42346 0.0
H765 H 0.3793 0.24305 0.37045 0.0
C766 C 0.3777 0.23671 0.43702 0.0
C767 C 0.36114 0.22739 0.39918 0.0
C768 C 0.34275 0.21565 0.38394 0.0
C769 C 0.39567 0.25027 0.42693 0.0
C770 C 0.39601 0.25283 0.40264 0.0
C771 C 0.37895 0.24115 0.38906 0.0
C772 C 0.41393 0.26756 0.39104 0.0
C773 C 0.41447 0.26133 0.44238 0.0
C774 C 0.41438 0.28952 0.39652 0.0
C775 C 0.43199 0.3032 0.38632 0.0
C776 C 0.44934 0.29524 0.37019 0.0
C777 C 0.44824 0.27337 0.3641 0.0
C778 C 0.4307 0.25968 0.37444 0.0
H779 H 0.41633 0.25299 0.45925 0.0
H780 H 0.43321 0.26212 0.43408 0.0
H781 H 0.40814 0.27797 0.44585 0.0
H782 H 0.40116 0.29608 0.40881 0.0
H783 H 0.4321 0.32 0.3912 0.0
H784 H 0.33039 0.8489 0.92949 0.0
H785 H 0.35915 0.8229 0.91241 0.0
H786 H 0.32032 0.77138 0.94718 0.0
H787 H 0.29074 0.79712 0.96347 0.0
H788 H 0.39126 0.79514 0.93332 0.0
H789 H 0.3218 0.74967 0.8813 0.0
H790 H 0.31472 0.77524 0.8944 0.0
H791 H 0.31415 0.75108 0.91144 0.0
C792 C 0.3277 0.83201 0.93325 0.0
C793 C 0.30809 0.82512 0.94773 0.0
C794 C 0.34429 0.81718 0.9236 0.0
C795 C 0.34163 0.79516 0.92818 0.0
C796 C 0.3224 0.78824 0.94298 0.0
H797 H 0.43081 0.68343 0.89151 0.0
H798 H 0.39999 0.70813 0.908 0.0
C799 C 0.30572 0.80304 0.95255 0.0
C800 C 0.35935 0.77954 0.91788 0.0
H801 H 0.36276 0.73498 0.88354 0.0
C802 C 0.38503 0.78205 0.92236 0.0
C803 C 0.35119 0.76244 0.90357 0.0
C804 C 0.32399 0.75951 0.89718 0.0
C805 C 0.40274 0.76781 0.91315 0.0
C806 C 0.39455 0.75073 0.89892 0.0
C807 C 0.36891 0.74809 0.89452 0.0
C808 C 0.41248 0.73561 0.88822 0.0
C809 C 0.43006 0.77094 0.91892 0.0
C810 C 0.42929 0.74283 0.8713 0.0
C811 C 0.44683 0.72878 0.86176 0.0
C812 C 0.44793 0.70722 0.86903 0.0
C813 C 0.43059 0.69994 0.88561 0.0
C814 C 0.41295 0.714 0.89504 0.0
H815 H 0.43272 0.78194 0.93384 0.0
H816 H 0.43904 0.75532 0.92293 0.0
H817 H 0.43983 0.77799 0.90378 0.0
H818 H 0.42896 0.75939 0.86558 0.0
H819 H 0.4598 0.73494 0.84897 0.0
H820 H 0.67311 0.15545 0.4412 0.0
H821 H 0.64417 0.17823 0.41961 0.0
H822 H 0.68157 0.23472 0.44572 0.0
H823 H 0.71121 0.21208 0.46661 0.0
H824 H 0.61139 0.20793 0.43607 0.0
H825 H 0.67922 0.24683 0.37679 0.0
H826 H 0.68691 0.22335 0.39363 0.0
H827 H 0.68765 0.24959 0.40664 0.0
C828 C 0.67544 0.17272 0.44208 0.0
C829 C 0.69458 0.18193 0.45557 0.0
C830 C 0.65878 0.18571 0.42983 0.0
C831 C 0.66098 0.20816 0.43074 0.0
C832 C 0.67987 0.21742 0.44436 0.0
H833 H 0.54782 0.30266 0.40335 0.0
H834 H 0.57843 0.278 0.41969 0.0
C835 C 0.69657 0.20445 0.45657 0.0
C836 C 0.64285 0.2219 0.41821 0.0
H837 H 0.63852 0.26262 0.37889 0.0
C838 C 0.6173 0.21977 0.42344 0.0
C839 C 0.65055 0.23711 0.40146 0.0
C840 C 0.67755 0.23925 0.3941 0.0
C841 C 0.59932 0.23291 0.41291 0.0
C842 C 0.60716 0.24887 0.39707 0.0
C843 C 0.6326 0.25054 0.39125 0.0
C844 C 0.58925 0.26432 0.38684 0.0
C845 C 0.57205 0.22949 0.41879 0.0
C846 C 0.58583 0.26538 0.36284 0.0
C847 C 0.56839 0.27962 0.35335 0.0
C848 C 0.55415 0.2931 0.36775 0.0
C849 C 0.55821 0.29236 0.39175 0.0
C850 C 0.57563 0.27818 0.40116 0.0
H851 H 0.56859 0.21309 0.42568 0.0
H852 H 0.56643 0.24119 0.43225 0.0
H853 H 0.55996 0.23196 0.40342 0.0
H854 H 0.59634 0.25493 0.35148 0.0
H855 H 0.56584 0.27985 0.3348 0.0
H856 H 0.30042 0.48576 0.9224 0.0
H857 H 0.32219 0.51549 0.90311 0.0
H858 H 0.39222 0.49431 0.93218 0.0
H859 H 0.37082 0.46427 0.95089 0.0
H860 H 0.35017 0.54865 0.92298 0.0
H861 H 0.40847 0.5003 0.86347 0.0
H862 H 0.38174 0.48927 0.87852 0.0
H863 H 0.41133 0.49211 0.89306 0.0
C864 C 0.32051 0.48727 0.92442 0.0
C865 C 0.3339 0.4726 0.93813 0.0
C866 C 0.33288 0.50433 0.91351 0.0
C867 C 0.35886 0.50691 0.91595 0.0
C868 C 0.37223 0.49239 0.92973 0.0
H869 H 0.45581 0.61566 0.9008 0.0
H870 H 0.42652 0.588 0.91367 0.0
C871 C 0.35991 0.47537 0.94063 0.0
C872 C 0.37202 0.52511 0.90472 0.0
H873 H 0.42061 0.53701 0.86856 0.0
C874 C 0.3654 0.54615 0.91088 0.0
C875 C 0.3916 0.52181 0.88866 0.0
C876 C 0.39857 0.49966 0.88033 0.0
C877 C 0.37855 0.56395 0.90215 0.0
C878 C 0.39909 0.56057 0.88716 0.0
C879 C 0.40501 0.53958 0.88024 0.0
C880 C 0.41543 0.57841 0.87923 0.0
C881 C 0.37038 0.5862 0.9091 0.0
C882 C 0.41918 0.58207 0.85556 0.0
C883 C 0.43612 0.59779 0.84811 0.0
C884 C 0.44977 0.61006 0.86421 0.0
C885 C 0.4456 0.60658 0.88792 0.0
C886 C 0.4287 0.59086 0.89533 0.0
H887 H 0.3504 0.5864 0.91447 0.0
H888 H 0.3818 0.59166 0.924 0.0
H889 H 0.37301 0.59783 0.89476 0.0
H890 H 0.40922 0.57255 0.84285 0.0
H891 H 0.43884 0.60004 0.82973 0.0
H892 H 0.64004 0.53212 0.45122 0.0
H893 H 0.61897 0.50076 0.43496 0.0
H894 H 0.69027 0.47452 0.41458 0.0
H895 H 0.71161 0.50611 0.43082 0.0
H896 H 0.65446 0.47069 0.38055 0.0
H897 H 0.6168 0.44126 0.46373 0.0
H898 H 0.60854 0.46873 0.45851 0.0
H899 H 0.64095 0.46156 0.46205 0.0
C900 C 0.65128 0.51961 0.44343 0.0
C901 C 0.67751 0.52144 0.44256 0.0
C902 C 0.63921 0.50167 0.4342 0.0
C903 C 0.65309 0.48505 0.4241 0.0
C904 C 0.67924 0.48708 0.42252 0.0
H905 H 0.5717 0.36589 0.39204 0.0
H906 H 0.60377 0.39058 0.40675 0.0
C907 C 0.69138 0.50515 0.4317 0.0
C908 C 0.64 0.46583 0.41488 0.0
H909 H 0.59699 0.42751 0.4295 0.0
C910 C 0.64216 0.46104 0.39129 0.0
C911 C 0.6244 0.45293 0.429 0.0
C912 C 0.62273 0.45622 0.45477 0.0
C913 C 0.62801 0.44446 0.3812 0.0
C914 C 0.61089 0.4327 0.39501 0.0
C915 C 0.60984 0.4367 0.41883 0.0
C916 C 0.59278 0.41717 0.38495 0.0
C917 C 0.63143 0.43983 0.35583 0.0
C918 C 0.57586 0.42394 0.36793 0.0
C919 C 0.55763 0.4099 0.35945 0.0
C920 C 0.55565 0.38883 0.36805 0.0
C921 C 0.57267 0.38202 0.38507 0.0
C922 C 0.59103 0.39609 0.39346 0.0
H923 H 0.65046 0.44454 0.34989 0.0
H924 H 0.62846 0.42254 0.35195 0.0
H925 H 0.61768 0.44933 0.34578 0.0
H926 H 0.57634 0.44029 0.36156 0.0
H927 H 0.54478 0.41575 0.34644 0.0
H928 H 0.669 0.46961 0.92959 0.0
H929 H 0.64777 0.49851 0.9088 0.0
H930 H 0.65699 0.54026 0.96762 0.0
H931 H 0.67878 0.51161 0.98833 0.0
H932 H 0.6032 0.51716 0.92491 0.0
H933 H 0.67747 0.57883 0.91299 0.0
H934 H 0.68439 0.5511 0.91952 0.0
H935 H 0.67422 0.56894 0.94199 0.0
C936 C 0.6671 0.48511 0.93788 0.0
C937 C 0.67553 0.48831 0.96063 0.0
C938 C 0.65484 0.50156 0.92603 0.0
C939 C 0.651 0.52157 0.9366 0.0
C940 C 0.66011 0.52506 0.95901 0.0
H941 H 0.5611 0.63352 0.90311 0.0
H942 H 0.59029 0.60794 0.92062 0.0
C943 C 0.67231 0.5086 0.9709 0.0
C944 C 0.63543 0.53802 0.92505 0.0
H945 H 0.6357 0.58949 0.90459 0.0
C946 C 0.61035 0.53292 0.9203 0.0
C947 C 0.64476 0.55863 0.91932 0.0
C948 C 0.67174 0.56473 0.92352 0.0
C949 C 0.59421 0.54796 0.91023 0.0
C950 C 0.60356 0.56852 0.9043 0.0
C951 C 0.62863 0.57369 0.90912 0.0
C952 C 0.58748 0.58473 0.89294 0.0
C953 C 0.56712 0.54184 0.90654 0.0
C954 C 0.57683 0.5804 0.8713 0.0
C955 C 0.56009 0.59485 0.86134 0.0
C956 C 0.55381 0.61406 0.87273 0.0
C957 C 0.5654 0.61882 0.89395 0.0
C958 C 0.58211 0.60425 0.90396 0.0
H959 H 0.56151 0.52796 0.91745 0.0
H960 H 0.55454 0.55553 0.91043 0.0
H961 H 0.56433 0.53722 0.88821 0.0
H962 H 0.58117 0.56564 0.86227 0.0
H963 H 0.55181 0.5908 0.84482 0.0
H964 H 0.29707 0.50989 0.42679 0.0
H965 H 0.31971 0.4807 0.4076 0.0
H966 H 0.38885 0.50301 0.43782 0.0
H967 H 0.36662 0.53251 0.4564 0.0
H968 H 0.39247 0.49406 0.39071 0.0
H969 H 0.34815 0.4266 0.43883 0.0
H970 H 0.32692 0.44475 0.4248 0.0
H971 H 0.34597 0.45416 0.44828 0.0
C972 C 0.31712 0.50863 0.42924 0.0
C973 C 0.33001 0.52344 0.44326 0.0
C974 C 0.32997 0.49183 0.41845 0.0
C975 C 0.35589 0.48953 0.42156 0.0
C976 C 0.36881 0.50441 0.43533 0.0
H977 H 0.45873 0.38623 0.40126 0.0
H978 H 0.42927 0.41312 0.41534 0.0
C979 C 0.35603 0.52117 0.44609 0.0
C980 C 0.36985 0.4719 0.41026 0.0
H981 H 0.37722 0.41743 0.40977 0.0
C982 C 0.38905 0.47728 0.39474 0.0
C983 C 0.36544 0.45007 0.41575 0.0
C984 C 0.34565 0.44345 0.43296 0.0
C985 C 0.40424 0.46144 0.38477 0.0
C986 C 0.39981 0.4396 0.3902 0.0
C987 C 0.3804 0.43419 0.40551 0.0
C988 C 0.41625 0.42232 0.3814 0.0
C989 C 0.42549 0.46828 0.36919 0.0
C990 C 0.41828 0.41824 0.35764 0.0
C991 C 0.43521 0.40291 0.34948 0.0
C992 C 0.45034 0.39133 0.36498 0.0
C993 C 0.44752 0.39494 0.38882 0.0
C994 C 0.43064 0.41027 0.39693 0.0
H995 H 0.42963 0.48573 0.37072 0.0
H996 H 0.44279 0.45917 0.37325 0.0
H997 H 0.42037 0.4649 0.35098 0.0
H998 H 0.40699 0.4271 0.3454 0.0
H999 H 0.4367 0.40039 0.33103 0.0
H1000 H 0.82864 0.96898 0.91338 0.0
H1001 H 0.85121 0.99981 0.89723 0.0
H1002 H 0.84142 0.03424 0.96121 0.0
H1003 H 0.81911 0.00336 0.97755 0.0
H1004 H 0.83865 0.04244 0.89049 0.0
H1005 H 0.91699 0.03511 0.95308 0.0
H1006 H 0.89346 0.01451 0.94966 0.0
H1007 H 0.88676 0.03826 0.96619 0.0
C1008 C 0.83102 0.98323 0.92389 0.0
C1009 C 0.82232 0.9837 0.9468 0.0
C1010 C 0.84398 0.0008 0.91468 0.0
C1011 C 0.84843 0.01914 0.92819 0.0
C1012 C 0.83875 0.02003 0.9507 0.0
H1013 H 0.93857 0.13371 0.90024 0.0
H1014 H 0.90779 0.10867 0.91652 0.0
C1015 C 0.82597 0.00242 0.95998 0.0
C1016 C 0.86386 0.037 0.9189 0.0
H1017 H 0.91846 0.0646 0.92748 0.0
C1018 C 0.85607 0.04733 0.89859 0.0
C1019 C 0.88662 0.04331 0.9295 0.0
C1020 C 0.89663 0.03212 0.95069 0.0
C1021 C 0.87045 0.06382 0.8886 0.0
C1022 C 0.89327 0.06995 0.8991 0.0
C1023 C 0.90085 0.05991 0.91959 0.0
C1024 C 0.91035 0.08588 0.88843 0.0
C1025 C 0.86113 0.07458 0.86693 0.0
C1026 C 0.92195 0.08131 0.86729 0.0
C1027 C 0.93962 0.09546 0.85802 0.0
C1028 C 0.94608 0.11448 0.86975 0.0
C1029 C 0.93403 0.11923 0.89075 0.0
C1030 C 0.91645 0.10496 0.90008 0.0
H1031 H 0.84071 0.07201 0.86442 0.0
H1032 H 0.86498 0.09212 0.86737 0.0
H1033 H 0.87103 0.06773 0.85179 0.0
H1034 H 0.91781 0.06649 0.85823 0.0
H1035 H 0.94848 0.09133 0.8418 0.0
H1036 H 0.18296 1.0004 0.47761 0.0
H1037 H 0.16093 0.96943 0.46121 0.0
H1038 H 0.15064 0.00403 0.39741 0.0
H1039 H 0.17273 0.035 0.41365 0.0
H1040 H 0.11261 0.96843 0.44649 0.0
H1041 H 0.17557 0.94651 0.37427 0.0
H1042 H 0.18516 0.96431 0.39727 0.0
H1043 H 0.16652 0.97424 0.37371 0.0
C1044 C 0.17614 0.00135 0.46002 0.0
C1045 C 0.17959 0.02015 0.44691 0.0
C1046 C 0.16365 0.98361 0.45066 0.0
C1047 C 0.15444 0.98428 0.42798 0.0
C1048 C 0.15814 0.00292 0.41474 0.0
H1049 H 0.05253 0.91216 0.34396 0.0
H1050 H 0.08252 0.93734 0.36082 0.0
C1051 C 0.17074 0.02064 0.42406 0.0
C1052 C 0.13937 0.96613 0.41878 0.0
H1053 H 0.13433 0.93127 0.37345 0.0
C1054 C 0.11753 0.9601 0.43069 0.0
C1055 C 0.14581 0.95529 0.39814 0.0
C1056 C 0.16968 0.96026 0.38522 0.0
C1057 C 0.10149 0.94409 0.42209 0.0
C1058 C 0.10763 0.93364 0.40118 0.0
C1059 C 0.1297 0.93934 0.38948 0.0
C1060 C 0.09064 0.91758 0.39057 0.0
C1061 C 0.07763 0.93902 0.43499 0.0
C1062 C 0.08566 0.89791 0.40152 0.0
C1063 C 0.06848 0.88341 0.39193 0.0
C1064 C 0.05598 0.88838 0.37122 0.0
C1065 C 0.06163 0.90787 0.36002 0.0
C1066 C 0.07884 0.92228 0.36957 0.0
H1067 H 0.07335 0.95129 0.44834 0.0
H1068 H 0.06155 0.93794 0.42288 0.0
H1069 H 0.07954 0.92325 0.44371 0.0
H1070 H 0.09488 0.89387 0.41759 0.0
H1071 H 0.0647 0.8685 0.40093 0.0
H1072 H 0.12327 0.9704 0.95895 0.0
H1073 H 0.10458 0.99912 0.93614 0.0
H1074 H 0.17754 0.0169 0.91039 0.0
H1075 H 0.19658 0.98833 0.93371 0.0
H1076 H 0.1492 0.05181 0.92653 0.0
H1077 H 0.09386 0.00169 0.86618 0.0
H1078 H 0.08862 0.99463 0.89584 0.0
H1079 H 0.11917 0.991 0.88333 0.0
C1080 C 0.13539 0.98042 0.94847 0.0
C1081 C 0.16143 0.97715 0.9482 0.0
C1082 C 0.12463 0.99668 0.93523 0.0
C1083 C 0.13963 0.00993 0.92131 0.0
C1084 C 0.16564 0.00671 0.92088 0.0
H1085 H 0.06278 0.10082 0.83001 0.0
H1086 H 0.09257 0.07399 0.84393 0.0
C1087 C 0.17645 0.99034 0.9341 0.0
C1088 C 0.12802 0.02775 0.90821 0.0
H1089 H 0.08124 0.03855 0.86986 0.0
C1090 C 0.13461 0.04895 0.91386 0.0
C1091 C 0.10928 0.02398 0.89143 0.0
C1092 C 0.10248 0.00159 0.88364 0.0
C1093 C 0.12196 0.06648 0.90411 0.0
C1094 C 0.10197 0.06264 0.88859 0.0
C1095 C 0.09636 0.04148 0.88197 0.0
C1096 C 0.08561 0.08016 0.88013 0.0
C1097 C 0.12991 0.08892 0.91072 0.0
C1098 C 0.07182 0.09253 0.89586 0.0
C1099 C 0.05478 0.10785 0.88799 0.0
C1100 C 0.05101 0.11099 0.86419 0.0
C1101 C 0.06518 0.09881 0.84845 0.0
C1102 C 0.08223 0.08348 0.85636 0.0
H1103 H 0.14977 0.08936 0.91641 0.0
H1104 H 0.12753 0.10027 0.8961 0.0
H1105 H 0.11818 0.09454 0.92533 0.0
H1106 H 0.07368 0.08991 0.91426 0.0
H1107 H 0.04418 0.11689 0.90061 0.0
H1108 H 0.82435 0.03476 0.40191 0.0
H1109 H 0.84651 0.0051 0.38336 0.0
H1110 H 0.84933 0.97143 0.44838 0.0
H1111 H 0.82619 1.00049 0.46681 0.0
H1112 H 0.89324 0.99202 0.39365 0.0
H1113 H 0.82758 0.92391 0.4055 0.0
H1114 H 0.81825 0.95149 0.40962 0.0
H1115 H 0.83455 0.93733 0.43214 0.0
C1116 C 0.82909 0.0208 0.41214 0.0
C1117 C 0.82349 0.02003 0.43587 0.0
C1118 C 0.84191 0.00392 0.40154 0.0
C1119 C 0.8493 0.98592 0.4144 0.0
C1120 C 0.84335 0.98492 0.43798 0.0
H1121 H 0.95355 0.88227 0.39925 0.0
H1122 H 0.9226 0.90861 0.41199 0.0
C1123 C 0.83043 0.00172 0.44857 0.0
C1124 C 0.86501 0.96904 0.40368 0.0
H1125 H 0.86999 0.91481 0.39588 0.0
C1126 C 0.88798 0.97517 0.39384 0.0
C1127 C 0.85816 0.94705 0.40399 0.0
C1128 C 0.83317 0.93956 0.41318 0.0
C1129 C 0.90465 0.95987 0.38501 0.0
C1130 C 0.89807 0.93788 0.38588 0.0
C1131 C 0.87496 0.93172 0.39533 0.0
C1132 C 0.91546 0.92106 0.37778 0.0
C1133 C 0.92956 0.96723 0.37549 0.0
C1134 C 0.92125 0.91912 0.35426 0.0
C1135 C 0.9389 0.90407 0.34688 0.0
C1136 C 0.95111 0.89075 0.36294 0.0
C1137 C 0.94467 0.89237 0.38644 0.0
C1138 C 0.92693 0.90735 0.39376 0.0
H1139 H 0.93353 0.98433 0.37964 0.0
H1140 H 0.94497 0.95719 0.38244 0.0
H1141 H 0.9295 0.96543 0.35642 0.0
H1142 H 0.91235 0.92944 0.34166 0.0
H1143 H 0.94329 0.90317 0.32865 0.0
H1144 H 0.33988 0.40087 0.13083 0.0
H1145 H 0.35935 0.38966 0.16696 0.0
H1146 H 0.35121 0.32325 0.14705 0.0
H1147 H 0.33282 0.33436 0.11027 0.0
H1148 H 0.34334 0.36446 0.20283 0.0
H1149 H 0.42572 0.32753 0.15961 0.0
H1150 H 0.40366 0.34414 0.1443 0.0
H1151 H 0.39586 0.31677 0.15118 0.0
C1152 C 0.34239 0.38387 0.13401 0.0
C1153 C 0.33513 0.36854 0.11744 0.0
C1154 C 0.35331 0.37748 0.15479 0.0
C1155 C 0.35718 0.35564 0.15952 0.0
C1156 C 0.34891 0.34022 0.14354 0.0
H1157 H 0.44466 0.3055 0.27687 0.0
H1158 H 0.41414 0.3067 0.24515 0.0
C1159 C 0.3381 0.3466 0.12264 0.0
C1160 C 0.37064 0.34931 0.18086 0.0
H1161 H 0.42505 0.32684 0.20017 0.0
C1162 C 0.36108 0.35604 0.20226 0.0
C1163 C 0.39379 0.33828 0.18011 0.0
C1164 C 0.40554 0.33139 0.15759 0.0
C1165 C 0.37438 0.3526 0.22282 0.0
C1166 C 0.39787 0.34227 0.22193 0.0
C1167 C 0.40694 0.33467 0.20073 0.0
C1168 C 0.41459 0.34133 0.24227 0.0
C1169 C 0.36349 0.36043 0.24531 0.0
C1170 C 0.42489 0.36039 0.25103 0.0
C1171 C 0.44241 0.35977 0.26886 0.0
C1172 C 0.44997 0.34004 0.27837 0.0
C1173 C 0.43916 0.32094 0.26996 0.0
C1174 C 0.42176 0.32158 0.25186 0.0
H1175 H 0.34291 0.36274 0.24409 0.0
H1176 H 0.36752 0.34898 0.25953 0.0
H1177 H 0.37213 0.37612 0.24981 0.0
H1178 H 0.41986 0.37577 0.24363 0.0
H1179 H 0.45028 0.37477 0.27502 0.0
H1180 H 0.7001 0.63878 0.63123 0.0
H1181 H 0.68175 0.64665 0.66924 0.0
H1182 H 0.60778 0.63709 0.64111 0.0
H1183 H 0.62589 0.62908 0.60337 0.0
H1184 H 0.64625 0.67701 0.68489 0.0
H1185 H 0.61094 0.59372 0.6942 0.0
H1186 H 0.63358 0.60128 0.6725 0.0
H1187 H 0.60076 0.6062 0.66792 0.0
C1188 C 0.67992 0.63863 0.63315 0.0
C1189 C 0.66441 0.63299 0.61448 0.0
C1190 C 0.66949 0.64306 0.65484 0.0
C1191 C 0.64345 0.64194 0.65808 0.0
C1192 C 0.62795 0.63749 0.63912 0.0
H1193 H 0.54325 0.68705 0.76247 0.0
H1194 H 0.57248 0.68356 0.73032 0.0
C1195 C 0.63831 0.63294 0.61758 0.0
C1196 C 0.63226 0.6447 0.6813 0.0
H1197 H 0.59384 0.61973 0.72001 0.0
C1198 C 0.63501 0.66444 0.69275 0.0
C1199 C 0.61808 0.62811 0.69175 0.0
C1200 C 0.61585 0.60606 0.68108 0.0
C1201 C 0.62293 0.66835 0.71391 0.0
C1202 C 0.60734 0.65223 0.72355 0.0
C1203 C 0.60557 0.63219 0.71256 0.0
C1204 C 0.59169 0.65591 0.74437 0.0
C1205 C 0.627 0.68969 0.72567 0.0
C1206 C 0.59253 0.64143 0.76295 0.0
C1207 C 0.57552 0.64315 0.7812 0.0
C1208 C 0.55731 0.65942 0.78125 0.0
C1209 C 0.55711 0.6744 0.76305 0.0
C1210 C 0.57398 0.67253 0.74471 0.0
H1211 H 0.6453 0.69689 0.72071 0.0
H1212 H 0.61208 0.70098 0.72025 0.0
H1213 H 0.62634 0.68806 0.74476 0.0
H1214 H 0.60597 0.62843 0.76304 0.0
H1215 H 0.57627 0.63143 0.795 0.0
H1216 H 0.68699 0.39301 0.13357 0.0
H1217 H 0.66354 0.38711 0.16929 0.0
H1218 H 0.64761 0.32202 0.1483 0.0
H1219 H 0.67111 0.3278 0.1125 0.0
H1220 H 0.61336 0.37686 0.17116 0.0
H1221 H 0.66959 0.31428 0.21535 0.0
H1222 H 0.68174 0.33009 0.19169 0.0
H1223 H 0.66107 0.30783 0.18615 0.0
C1224 C 0.67867 0.37738 0.13665 0.0
C1225 C 0.68083 0.36089 0.12019 0.0
C1226 C 0.66537 0.37401 0.1571 0.0
C1227 C 0.65404 0.35407 0.16157 0.0
C1228 C 0.65666 0.33739 0.14545 0.0
H1229 H 0.54671 0.31135 0.26489 0.0
H1230 H 0.57629 0.31366 0.23266 0.0
C1231 C 0.67006 0.34072 0.12498 0.0
C1232 C 0.63783 0.35142 0.18217 0.0
H1233 H 0.6297 0.32214 0.23154 0.0
C1234 C 0.61703 0.36499 0.18443 0.0
C1235 C 0.64255 0.33579 0.19936 0.0
C1236 C 0.66507 0.32127 0.1982 0.0
C1237 C 0.60069 0.36326 0.20329 0.0
C1238 C 0.60549 0.34775 0.22056 0.0
C1239 C 0.62615 0.33404 0.21827 0.0
C1240 C 0.58915 0.34569 0.24111 0.0
C1241 C 0.57814 0.37778 0.20437 0.0
C1242 C 0.58712 0.3627 0.25686 0.0
C1243 C 0.57025 0.36148 0.27525 0.0
C1244 C 0.55511 0.34315 0.27829 0.0
C1245 C 0.55795 0.32575 0.26299 0.0
C1246 C 0.57487 0.32701 0.24458 0.0
H1247 H 0.57388 0.38506 0.1873 0.0
H1248 H 0.56136 0.36885 0.21046 0.0
H1249 H 0.58189 0.39101 0.21675 0.0
H1250 H 0.59832 0.37711 0.25468 0.0
H1251 H 0.56877 0.37509 0.28681 0.0
H1252 H 0.33221 0.60139 0.63529 0.0
H1253 H 0.35245 0.6131 0.67102 0.0
H1254 H 0.35939 0.67729 0.64372 0.0
H1255 H 0.33957 0.66559 0.60769 0.0
H1256 H 0.40413 0.6604 0.66025 0.0
H1257 H 0.32859 0.65053 0.725 0.0
H1258 H 0.33285 0.62721 0.70721 0.0
H1259 H 0.3225 0.65194 0.69435 0.0
C1260 C 0.33786 0.61804 0.63696 0.0
C1261 C 0.33438 0.63255 0.61865 0.0
C1262 C 0.34915 0.62477 0.65749 0.0
C1263 C 0.3571 0.64613 0.66014 0.0
C1264 C 0.35315 0.66079 0.6421 0.0
H1265 H 0.43487 0.69091 0.78603 0.0
H1266 H 0.40561 0.68996 0.75328 0.0
C1267 C 0.34175 0.65409 0.62158 0.0
C1268 C 0.37173 0.6525 0.68077 0.0
H1269 H 0.37072 0.65224 0.73975 0.0
C1270 C 0.39669 0.65899 0.67762 0.0
C1271 C 0.36193 0.65081 0.7034 0.0
C1272 C 0.33492 0.64495 0.70775 0.0
C1273 C 0.41251 0.66268 0.69653 0.0
C1274 C 0.40313 0.65971 0.71912 0.0
C1275 C 0.37784 0.65436 0.72236 0.0
C1276 C 0.41998 0.66023 0.73935 0.0
C1277 C 0.43937 0.66913 0.69227 0.0
C1278 C 0.43732 0.64365 0.74242 0.0
C1279 C 0.45386 0.64406 0.76103 0.0
C1280 C 0.45348 0.66113 0.77695 0.0
C1281 C 0.43575 0.6776 0.77402 0.0
C1282 C 0.41901 0.67708 0.75539 0.0
H1283 H 0.44219 0.67537 0.67448 0.0
H1284 H 0.44544 0.68158 0.70483 0.0
H1285 H 0.45158 0.65489 0.69459 0.0
H1286 H 0.43814 0.63042 0.73029 0.0
H1287 H 0.46717 0.63106 0.76273 0.0
H1288 H 0.80757 0.85478 0.12923 0.0
H1289 H 0.82666 0.84336 0.16578 0.0
H1290 H 0.89904 0.86391 0.14101 0.0
H1291 H 0.88033 0.87479 0.10441 0.0
H1292 H 0.89918 0.82344 0.16365 0.0
H1293 H 0.85127 0.8869 0.21491 0.0
H1294 H 0.83168 0.86932 0.19809 0.0
H1295 H 0.8526 0.88759 0.18377 0.0
C1296 C 0.82759 0.85661 0.13151 0.0
C1297 C 0.84241 0.86592 0.11406 0.0
C1298 C 0.83842 0.85024 0.15243 0.0
C1299 C 0.86419 0.85307 0.15617 0.0
C1300 C 0.87909 0.86169 0.1385 0.0
H1301 H 0.96236 0.87292 0.26726 0.0
H1302 H 0.93299 0.87346 0.23511 0.0
C1303 C 0.86833 0.86807 0.11768 0.0
C1304 C 0.87586 0.84784 0.17867 0.0
H1305 H 0.8806 0.86549 0.23431 0.0
C1306 C 0.89489 0.83236 0.17923 0.0
C1307 C 0.87027 0.85967 0.19886 0.0
C1308 C 0.85048 0.87692 0.19902 0.0
C1309 C 0.90915 0.82892 0.19925 0.0
C1310 C 0.904 0.84116 0.21926 0.0
C1311 C 0.88434 0.85606 0.21895 0.0
C1312 C 0.92066 0.8406 0.23969 0.0
C1313 C 0.93049 0.81311 0.19847 0.0
C1314 C 0.92318 0.822 0.25317 0.0
C1315 C 0.9401 0.82159 0.27165 0.0
C1316 C 0.95474 0.83981 0.27689 0.0
C1317 C 0.95158 0.85854 0.26364 0.0
C1318 C 0.93471 0.85893 0.24528 0.0
H1319 H 0.93438 0.80742 0.18065 0.0
H1320 H 0.94782 0.82047 0.20558 0.0
H1321 H 0.92575 0.79895 0.20927 0.0
H1322 H 0.91223 0.80778 0.2493 0.0
H1323 H 0.94195 0.80696 0.2816 0.0
H1324 H 0.16782 0.16627 0.61051 0.0
H1325 H 0.1489 0.17761 0.647 0.0
H1326 H 0.14875 0.11192 0.67067 0.0
H1327 H 0.16869 0.10063 0.63483 0.0
H1328 H 0.10383 0.16596 0.66292 0.0
H1329 H 0.17503 0.14199 0.727 0.0
H1330 H 0.18179 0.14349 0.69649 0.0
H1331 H 0.16693 0.11997 0.70849 0.0
C1332 C 0.16436 0.15431 0.62372 0.0
C1333 C 0.16974 0.13252 0.6197 0.0
C1334 C 0.1534 0.16081 0.64452 0.0
C1335 C 0.14773 0.14568 0.66174 0.0
C1336 C 0.15349 0.12398 0.65791 0.0
H1337 H 0.04786 0.1275 0.7724 0.0
H1338 H 0.07833 0.12648 0.74099 0.0
C1339 C 0.16454 0.1175 0.63722 0.0
C1340 C 0.1338 0.15209 0.68281 0.0
H1341 H 0.1327 0.14601 0.74144 0.0
C1342 C 0.1104 0.16204 0.68012 0.0
C1343 C 0.1424 0.14705 0.70529 0.0
C1344 C 0.16804 0.13775 0.70951 0.0
C1345 C 0.09479 0.1659 0.69916 0.0
C1346 C 0.10282 0.1597 0.7214 0.0
C1347 C 0.12661 0.15064 0.72428 0.0
C1348 C 0.08574 0.16063 0.74145 0.0
C1349 C 0.06926 0.1756 0.69535 0.0
C1350 C 0.08016 0.18019 0.75228 0.0
C1351 C 0.06277 0.18086 0.77038 0.0
C1352 C 0.05058 0.16197 0.77771 0.0
C1353 C 0.05672 0.14237 0.76706 0.0
C1354 C 0.0742 0.14172 0.74917 0.0
H1355 H 0.06528 0.17846 0.67678 0.0
H1356 H 0.05458 0.16481 0.7025 0.0
H1357 H 0.06802 0.19114 0.70467 0.0
H1358 H 0.089 0.19494 0.74652 0.0
H1359 H 0.05848 0.19619 0.77825 0.0
H1360 H 0.13833 0.86553 0.10371 0.0
H1361 H 0.11742 0.86059 0.14083 0.0
H1362 H 0.18889 0.85085 0.1738 0.0
H1363 H 0.21004 0.85566 0.13648 0.0
H1364 H 0.15256 0.82192 0.1886 0.0
H1365 H 0.11669 0.90518 0.19221 0.0
H1366 H 0.10795 0.89164 0.16608 0.0
H1367 H 0.14049 0.89694 0.17196 0.0
C1368 C 0.14963 0.86246 0.11888 0.0
C1369 C 0.17586 0.86126 0.11724 0.0
C1370 C 0.13766 0.85966 0.14008 0.0
C1371 C 0.15164 0.85585 0.16016 0.0
C1372 C 0.17778 0.85395 0.15852 0.0
H1373 H 0.07785 0.8707 0.29372 0.0
H1374 H 0.10831 0.87309 0.2623 0.0
C1375 C 0.18981 0.85663 0.13722 0.0
C1376 C 0.13878 0.85394 0.18277 0.0
H1377 H 0.09795 0.88004 0.21824 0.0
C1378 C 0.14082 0.83469 0.19525 0.0
C1379 C 0.12388 0.87077 0.19165 0.0
C1380 C 0.1223 0.89238 0.17991 0.0
C1381 C 0.12747 0.83151 0.2159 0.0
C1382 C 0.11131 0.84785 0.22398 0.0
C1383 C 0.11012 0.8674 0.21196 0.0
C1384 C 0.09471 0.84489 0.24432 0.0
C1385 C 0.13091 0.8107 0.22885 0.0
C1386 C 0.07706 0.82813 0.24482 0.0
C1387 C 0.05974 0.82661 0.26286 0.0
C1388 C 0.05945 0.84207 0.28058 0.0
C1389 C 0.07748 0.85858 0.2803 0.0
C1390 C 0.09493 0.85997 0.26235 0.0
H1391 H 0.14938 0.80336 0.22498 0.0
H1392 H 0.12939 0.81314 0.24779 0.0
H1393 H 0.11619 0.79914 0.22343 0.0
H1394 H 0.07606 0.81663 0.23082 0.0
H1395 H 0.04602 0.81376 0.26245 0.0
H1396 H 0.80618 0.13545 0.62691 0.0
H1397 H 0.82529 0.14419 0.66432 0.0
H1398 H 0.89873 0.13538 0.63478 0.0
H1399 H 0.87977 0.12628 0.59767 0.0
H1400 H 0.89321 0.11336 0.67433 0.0
H1401 H 0.86174 0.19745 0.68697 0.0
H1402 H 0.83685 0.17857 0.68189 0.0
H1403 H 0.85939 0.18385 0.65953 0.0
C1404 C 0.8264 0.13571 0.62839 0.0
C1405 C 0.84151 0.13007 0.60947 0.0
C1406 C 0.8373 0.14078 0.64972 0.0
C1407 C 0.86346 0.14062 0.6523 0.0
C1408 C 0.87851 0.13556 0.63321 0.0
H1409 H 0.96114 0.18692 0.75952 0.0
H1410 H 0.93401 0.18249 0.72586 0.0
C1411 C 0.86767 0.13031 0.61204 0.0
C1412 C 0.87537 0.14432 0.67512 0.0
H1413 H 0.88307 0.18114 0.7183 0.0
C1414 C 0.89095 0.12818 0.68396 0.0
C1415 C 0.87253 0.16371 0.68757 0.0
C1416 C 0.85691 0.18199 0.67846 0.0
C1417 C 0.90405 0.13095 0.70472 0.0
C1418 C 0.90093 0.1502 0.7174 0.0
C1419 C 0.88519 0.16631 0.70868 0.0
C1420 C 0.91505 0.15426 0.73903 0.0
C1421 C 0.92182 0.11354 0.71241 0.0
C1422 C 0.91276 0.14032 0.75796 0.0
C1423 C 0.92844 0.14265 0.77712 0.0
C1424 C 0.94645 0.15918 0.77784 0.0
C1425 C 0.94756 0.17395 0.75949 0.0
C1426 C 0.93204 0.17147 0.74023 0.0
H1427 H 0.92677 0.10254 0.69801 0.0
H1428 H 0.93936 0.12052 0.7195 0.0
H1429 H 0.91277 0.10381 0.72615 0.0
H1430 H 0.89932 0.12726 0.75764 0.0
H1431 H 0.92685 0.13119 0.79113 0.0
loop_
_geom_bond_atom_site_label_1
_geom_bond_atom_site_label_2
_geom_bond_distance
_geom_bond_site_symmetry_2
_ccdc_geom_bond_type
C0 C1 1.391 . S
C0 C4 1.391 . S
C0 H42 0.948 . S
C1 C0 1.391 . S
C1 C2 1.391 . S
C2 C1 1.391 . S
C2 H58 0.947 . S
C2 C59 1.392 . S
C3 C4 1.391 . S
C3 C7 1.397 . S
C3 C59 1.419 . S
C4 C0 1.391 . S
C4 C3 1.391 . S
C4 C5 1.399 . S
C5 C4 1.399 . S
C5 C8 1.396 . S
C5 C17 1.453 . S
C5 C18 1.684 . S
H6 C30 0.948 . S
C7 C3 1.397 . S
C7 C8 1.394 . S
C7 C26 1.723 . S
C8 C5 1.396 . S
C8 C7 1.394 . S
C8 C38 1.723 . S
H9 C32 0.947 1_554 S
H10 C33 0.948 . S
H11 C39 0.982 . S
H12 C40 0.979 . S
H13 C40 0.980 . S
H14 C40 0.983 . S
H15 C39 0.979 . S
H16 C39 0.977 . S
C17 C5 1.453 . S
C17 H46 0.982 . S
C17 H47 0.979 . S
C17 H48 0.977 . S
C18 C5 1.684 . S
C18 H43 0.979 . S
C18 H44 0.980 . S
C18 H45 0.983 . S
C19 C20 1.391 . S
C19 C24 1.391 . S
C19 H49 0.948 . S
C20 C19 1.391 . S
C20 C21 1.391 . S
C21 C20 1.391 . S
C21 C22 1.392 . S
C21 H50 0.947 . S
C22 C21 1.392 . S
C22 C23 1.419 . S
C22 H51 0.948 . S
C23 C22 1.419 . S
C23 C24 1.391 . S
C23 C27 1.397 . S
C24 C19 1.391 . S
C24 C23 1.391 . S
C24 C25 1.399 1_556 S
C25 C24 1.399 1_554 S
C25 C26 1.396 . S
C25 C28 1.453 . S
C25 C29 1.684 . S
C26 C7 1.723 . S
C26 C25 1.396 . S
C26 C27 1.394 1_554 S
C27 C23 1.397 . S
C27 C26 1.394 1_556 S
C27 C37 1.723 . S
C28 C25 1.453 . S
C28 H52 0.982 . S
C28 H53 0.979 . S
C28 H54 0.977 . S
C29 C25 1.684 . S
C29 H55 0.979 . S
C29 H56 0.980 . S
C29 H57 0.983 . S
C30 H6 0.948 . S
C30 C31 1.391 . S
C30 C35 1.391 . S
C31 C30 1.391 . S
C31 C32 1.391 . S
C32 H9 0.947 1_556 S
C32 C31 1.391 . S
C32 C33 1.392 1_556 S
C33 H10 0.948 . S
C33 C32 1.392 1_554 S
C33 C34 1.419 1_554 S
C34 C33 1.419 1_556 S
C34 C35 1.391 . S
C34 C38 1.397 1_556 S
C35 C30 1.391 . S
C35 C34 1.391 . S
C35 C36 1.399 . S
C36 C35 1.399 . S
C36 C37 1.396 . S
C36 C39 1.453 . S
C36 C40 1.684 . S
C37 C27 1.723 . S
C37 C36 1.396 . S
C37 C38 1.394 1_556 S
C38 C8 1.723 . S
C38 C34 1.397 1_554 S
C38 C37 1.394 1_554 S
C39 H11 0.982 . S
C39 H15 0.979 . S
C39 H16 0.977 . S
C39 C36 1.453 . S
C40 H12 0.979 . S
C40 H13 0.980 . S
C40 H14 0.983 . S
C40 C36 1.684 . S
H41 C59 0.948 . S
H42 C0 0.948 . S
H43 C18 0.979 . S
H44 C18 0.980 . S
H45 C18 0.983 . S
H46 C17 0.982 . S
H47 C17 0.979 . S
H48 C17 0.977 . S
H49 C19 0.948 . S
H50 C21 0.947 . S
H51 C22 0.948 . S
H52 C28 0.982 . S
H53 C28 0.979 . S
H54 C28 0.977 . S
H55 C29 0.979 . S
H56 C29 0.980 . S
H57 C29 0.983 . S
H58 C2 0.947 . S
C59 C2 1.392 . S
C59 C3 1.419 . S
C59 H41 0.948 . S
C60 C61 1.391 . S
C60 C64 1.391 . S
C60 H102 0.948 . S
C61 C60 1.391 . S
C61 C62 1.391 . S
C62 C61 1.391 . S
C62 H118 0.947 . S
C62 C119 1.392 . S
C63 C64 1.391 . S
C63 C67 1.397 . S
C63 C119 1.419 . S
C64 C60 1.391 . S
C64 C63 1.391 . S
C64 C65 1.399 . S
C65 C64 1.399 . S
C65 C68 1.396 . S
C65 C77 1.453 . S
C65 C78 1.684 . S
H66 C90 0.948 . S
C67 C63 1.397 . S
C67 C68 1.394 . S
C67 C86 1.723 . S
C68 C65 1.396 . S
C68 C67 1.394 . S
C68 C98 1.723 . S
H69 C92 0.947 . S
H70 C93 0.948 . S
H71 C99 0.982 . S
H72 C100 0.979 . S
H73 C100 0.980 . S
H74 C100 0.983 . S
H75 C99 0.979 . S
H76 C99 0.977 . S
C77 C65 1.453 . S
C77 H106 0.982 . S
C77 H107 0.979 . S
C77 H108 0.977 . S
C78 C65 1.684 . S
C78 H103 0.979 . S
C78 H104 0.980 . S
C78 H105 0.983 . S
C79 C80 1.391 . S
C79 C84 1.391 . S
C79 H109 0.948 . S
C80 C79 1.391 . S
C80 C81 1.391 . S
C81 C80 1.391 . S
C81 C82 1.392 . S
C81 H110 0.947 . S
C82 C81 1.392 . S
C82 C83 1.419 . S
C82 H111 0.948 . S
C83 C82 1.419 . S
C83 C84 1.391 . S
C83 C87 1.397 . S
C84 C79 1.391 . S
C84 C83 1.391 . S
C84 C85 1.399 . S
C85 C84 1.399 . S
C85 C86 1.396 . S
C85 C88 1.453 . S
C85 C89 1.684 . S
C86 C67 1.723 . S
C86 C85 1.396 . S
C86 C87 1.394 . S
C87 C83 1.397 . S
C87 C86 1.394 . S
C87 C97 1.723 . S
C88 C85 1.453 . S
C88 H112 0.982 . S
C88 H113 0.979 . S
C88 H114 0.977 . S
C89 C85 1.684 . S
C89 H115 0.979 . S
C89 H116 0.980 . S
C89 H117 0.983 . S
C90 H66 0.948 . S
C90 C91 1.391 . S
C90 C95 1.391 . S
C91 C90 1.391 . S
C91 C92 1.391 . S
C92 H69 0.947 . S
C92 C91 1.391 . S
C92 C93 1.392 . S
C93 H70 0.948 . S
C93 C92 1.392 . S
C93 C94 1.419 . S
C94 C93 1.419 . S
C94 C95 1.391 . S
C94 C98 1.397 . S
C95 C90 1.391 . S
C95 C94 1.391 . S
C95 C96 1.399 . S
C96 C95 1.399 . S
C96 C97 1.396 . S
C96 C99 1.453 . S
C96 C100 1.684 . S
C97 C87 1.723 . S
C97 C96 1.396 . S
C97 C98 1.394 . S
C98 C68 1.723 . S
C98 C94 1.397 . S
C98 C97 1.394 . S
C99 H71 0.982 . S
C99 H75 0.979 . S
C99 H76 0.977 . S
C99 C96 1.453 . S
C100 H72 0.979 . S
C100 H73 0.980 . S
C100 H74 0.983 . S
C100 C96 1.684 . S
H101 C119 0.948 . S
H102 C60 0.948 . S
H103 C78 0.979 . S
H104 C78 0.980 . S
H105 C78 0.983 . S
H106 C77 0.982 . S
H107 C77 0.979 . S
H108 C77 0.977 . S
H109 C79 0.948 . S
H110 C81 0.947 . S
H111 C82 0.948 . S
H112 C88 0.982 . S
H113 C88 0.979 . S
H114 C88 0.977 . S
H115 C89 0.979 . S
H116 C89 0.980 . S
H117 C89 0.983 . S
H118 C62 0.947 . S
C119 C62 1.392 . S
C119 C63 1.419 . S
C119 H101 0.948 . S
C120 C121 1.391 . S
C120 C124 1.391 . S
C120 H162 0.948 . S
C121 C120 1.391 . S
C121 C122 1.391 . S
C122 C121 1.391 . S
C122 H178 0.947 . S
C122 C179 1.392 . S
C123 C124 1.391 . S
C123 C127 1.415 . S
C123 C179 1.419 . S
C124 C120 1.391 . S
C124 C123 1.391 . S
C124 C125 1.399 . S
C125 C124 1.399 . S
C125 C128 1.396 . S
C125 C137 1.453 . S
C125 C138 1.684 . S
H126 C150 0.948 . S
C127 C123 1.415 . S
C127 C128 1.421 . S
C127 C146 1.685 1_556 S
C128 C125 1.396 . S
C128 C127 1.421 . S
C128 C158 1.723 . S
H129 C152 0.947 . S
H130 C153 0.948 . S
H131 C159 0.982 . S
H132 C160 0.979 . S
H133 C160 0.980 . S
H134 C160 0.983 . S
H135 C159 0.979 . S
H136 C159 0.977 . S
C137 C125 1.453 . S
C137 H166 0.982 . S
C137 H167 0.979 . S
C137 H168 0.977 . S
C138 C125 1.684 . S
C138 H163 0.979 . S
C138 H164 0.980 . S
C138 H165 0.983 . S
C139 C140 1.391 . S
C139 C144 1.391 . S
C139 H169 0.948 . S
C140 C139 1.391 . S
C140 C141 1.391 . S
C141 C140 1.391 . S
C141 C142 1.392 . S
C141 H170 0.947 . S
C142 C141 1.392 . S
C142 C143 1.419 . S
C142 H171 0.948 . S
C143 C142 1.419 . S
C143 C144 1.391 . S
C143 C147 1.397 . S
C144 C139 1.391 . S
C144 C143 1.391 . S
C144 C145 1.399 . S
C145 C144 1.399 . S
C145 C146 1.396 . S
C145 C148 1.453 . S
C145 C149 1.684 . S
C146 C127 1.685 1_554 S
C146 C145 1.396 . S
C146 C147 1.394 . S
C147 C143 1.397 . S
C147 C146 1.394 . S
C147 C157 1.723 . S
C148 C145 1.453 . S
C148 H172 0.982 . S
C148 H173 0.979 . S
C148 H174 0.977 . S
C149 C145 1.684 . S
C149 H175 0.979 . S
C149 H176 0.980 . S
C149 H177 0.983 . S
C150 H126 0.948 . S
C150 C151 1.391 . S
C150 C155 1.391 . S
C151 C150 1.391 . S
C151 C152 1.391 . S
C152 H129 0.947 . S
C152 C151 1.391 . S
C152 C153 1.392 . S
C153 H130 0.948 . S
C153 C152 1.392 . S
C153 C154 1.419 . S
C154 C153 1.419 . S
C154 C155 1.391 . S
C154 C158 1.397 . S
C155 C150 1.391 . S
C155 C154 1.391 . S
C155 C156 1.399 1_556 S
C156 C155 1.399 1_554 S
C156 C157 1.396 . S
C156 C159 1.453 . S
C156 C160 1.684 . S
C157 C147 1.723 . S
C157 C156 1.396 . S
C157 C158 1.394 1_554 S
C158 C128 1.723 . S
C158 C154 1.397 . S
C158 C157 1.394 1_556 S
C159 H131 0.982 . S
C159 H135 0.979 . S
C159 H136 0.977 . S
C159 C156 1.453 . S
C160 H132 0.979 . S
C160 H133 0.980 . S
C160 H134 0.983 . S
C160 C156 1.684 . S
H161 C179 0.948 1_554 S
H162 C120 0.948 . S
H163 C138 0.979 . S
H164 C138 0.980 . S
H165 C138 0.983 . S
H166 C137 0.982 . S
H167 C137 0.979 . S
H168 C137 0.977 . S
H169 C139 0.948 . S
H170 C141 0.947 . S
H171 C142 0.948 . S
H172 C148 0.982 . S
H173 C148 0.979 . S
H174 C148 0.977 . S
H175 C149 0.979 . S
H176 C149 0.980 . S
H177 C149 0.983 . S
H178 C122 0.947 . S
C179 C122 1.392 . S
C179 C123 1.419 . S
C179 H161 0.948 1_556 S
C180 C181 1.391 . S
C180 C184 1.391 . S
C180 H222 0.948 . S
C181 C180 1.391 . S
C181 C182 1.391 . S
C182 C181 1.391 . S
C182 H238 0.947 . S
C182 C239 1.392 . S
C183 C184 1.391 . S
C183 C187 1.397 . S
C183 C239 1.419 . S
C184 C180 1.391 . S
C184 C183 1.391 . S
C184 C185 1.399 . S
C185 C184 1.399 . S
C185 C188 1.396 . S
C185 C197 1.453 . S
C185 C198 1.684 . S
H186 C210 0.948 . S
C187 C183 1.397 . S
C187 C188 1.394 . S
C187 C206 1.723 . S
C188 C185 1.396 . S
C188 C187 1.394 . S
C188 C218 1.723 . S
H189 C212 0.947 . S
H190 C213 0.948 . S
H191 C219 0.982 . S
H192 C220 0.979 . S
H193 C220 0.980 . S
H194 C220 0.983 . S
H195 C219 0.979 . S
H196 C219 0.977 . S
C197 C185 1.453 . S
C197 H226 0.982 . S
C197 H227 0.979 . S
C197 H228 0.977 . S
C198 C185 1.684 . S
C198 H223 0.979 . S
C198 H224 0.980 . S
C198 H225 0.983 . S
C199 C200 1.391 . S
C199 C204 1.391 . S
C199 H229 0.948 . S
C200 C199 1.391 . S
C200 C201 1.391 . S
C201 C200 1.391 . S
C201 C202 1.392 . S
C201 H230 0.947 . S
C202 C201 1.392 . S
C202 C203 1.419 . S
C202 H231 0.948 . S
C203 C202 1.419 . S
C203 C204 1.391 . S
C203 C207 1.397 . S
C204 C199 1.391 . S
C204 C203 1.391 . S
C204 C205 1.399 . S
C205 C204 1.399 . S
C205 C206 1.396 . S
C205 C208 1.453 . S
C205 C209 1.684 . S
C206 C187 1.723 . S
C206 C205 1.396 . S
C206 C207 1.394 . S
C207 C203 1.397 . S
C207 C206 1.394 . S
C207 C217 1.723 . S
C208 C205 1.453 . S
C208 H232 0.982 . S
C208 H233 0.979 . S
C208 H234 0.977 . S
C209 C205 1.684 . S
C209 H235 0.979 . S
C209 H236 0.980 . S
C209 H237 0.983 . S
C210 H186 0.948 . S
C210 C211 1.391 . S
C210 C215 1.391 . S
C211 C210 1.391 . S
C211 C212 1.391 . S
C212 H189 0.947 . S
C212 C211 1.391 . S
C212 C213 1.392 . S
C213 H190 0.948 . S
C213 C212 1.392 . S
C213 C214 1.419 . S
C214 C213 1.419 . S
C214 C215 1.391 . S
C214 C218 1.397 . S
C215 C210 1.391 . S
C215 C214 1.391 . S
C215 C216 1.399 . S
C216 C215 1.399 . S
C216 C217 1.396 . S
C216 C219 1.453 . S
C216 C220 1.684 . S
C217 C207 1.723 . S
C217 C216 1.396 . S
C217 C218 1.394 . S
C218 C188 1.723 . S
C218 C214 1.397 . S
C218 C217 1.394 . S
C219 H191 0.982 . S
C219 H195 0.979 . S
C219 H196 0.977 . S
C219 C216 1.453 . S
C220 H192 0.979 . S
C220 H193 0.980 . S
C220 H194 0.983 . S
C220 C216 1.684 . S
H221 C239 0.948 . S
H222 C180 0.948 . S
H223 C198 0.979 . S
H224 C198 0.980 . S
H225 C198 0.983 . S
H226 C197 0.982 . S
H227 C197 0.979 . S
H228 C197 0.977 . S
H229 C199 0.948 . S
H230 C201 0.947 . S
H231 C202 0.948 . S
H232 C208 0.982 . S
H233 C208 0.979 . S
H234 C208 0.977 . S
H235 C209 0.979 . S
H236 C209 0.980 . S
H237 C209 0.983 . S
H238 C182 0.947 . S
C239 C182 1.392 . S
C239 C183 1.419 . S
C239 H221 0.948 . S
C240 C241 1.391 . S
C240 C244 1.391 . S
C240 H282 0.948 . S
C241 C240 1.391 . S
C241 C242 1.391 . S
C242 C241 1.391 . S
C242 H298 0.947 . S
C242 C299 1.392 . S
C243 C244 1.391 . S
C243 C247 1.397 . S
C243 C299 1.419 . S
C244 C240 1.391 . S
C244 C243 1.391 . S
C244 C245 1.399 . S
C245 C244 1.399 . S
C245 C248 1.396 . S
C245 C257 1.453 . S
C245 C258 1.684 . S
H246 C270 0.948 . S
C247 C243 1.397 . S
C247 C248 1.394 . S
C247 C266 1.723 . S
C248 C245 1.396 . S
C248 C247 1.394 . S
C248 C278 1.723 . S
H249 C272 0.947 1_554 S
H250 C273 0.948 . S
H251 C279 0.982 . S
H252 C280 0.979 . S
H253 C280 0.980 . S
H254 C280 0.983 . S
H255 C279 0.979 . S
H256 C279 0.977 . S
C257 C245 1.453 . S
C257 H286 0.982 . S
C257 H287 0.979 . S
C257 H288 0.977 . S
C258 C245 1.684 . S
C258 H283 0.979 . S
C258 H284 0.980 . S
C258 H285 0.983 . S
C259 C260 1.391 . S
C259 C264 1.391 . S
C259 H289 0.948 . S
C260 C259 1.391 . S
C260 C261 1.391 . S
C261 C260 1.391 . S
C261 C262 1.392 . S
C261 H290 0.947 . S
C262 C261 1.392 . S
C262 C263 1.419 . S
C262 H291 0.948 . S
C263 C262 1.419 . S
C263 C264 1.391 . S
C263 C267 1.397 . S
C264 C259 1.391 . S
C264 C263 1.391 . S
C264 C265 1.399 1_556 S
C265 C264 1.399 1_554 S
C265 C266 1.396 . S
C265 C268 1.453 . S
C265 C269 1.684 . S
C266 C247 1.723 . S
C266 C265 1.396 . S
C266 C267 1.394 1_554 S
C267 C263 1.397 . S
C267 C266 1.394 1_556 S
C267 C277 1.723 . S
C268 C265 1.453 . S
C268 H292 0.982 . S
C268 H293 0.979 . S
C268 H294 0.977 . S
C269 C265 1.684 . S
C269 H295 0.979 . S
C269 H296 0.980 . S
C269 H297 0.983 . S
C270 H246 0.948 . S
C270 C271 1.391 . S
C270 C275 1.391 . S
C271 C270 1.391 . S
C271 C272 1.391 . S
C272 H249 0.947 1_556 S
C272 C271 1.391 . S
C272 C273 1.392 1_556 S
C273 H250 0.948 . S
C273 C272 1.392 1_554 S
C273 C274 1.419 1_554 S
C274 C273 1.419 1_556 S
C274 C275 1.391 . S
C274 C278 1.397 1_556 S
C275 C270 1.391 . S
C275 C274 1.391 . S
C275 C276 1.399 . S
C276 C275 1.399 . S
C276 C277 1.396 . S
C276 C279 1.453 . S
C276 C280 1.684 . S
C277 C267 1.723 . S
C277 C276 1.396 . S
C277 C278 1.394 1_556 S
C278 C248 1.723 . S
C278 C274 1.397 1_554 S
C278 C277 1.394 1_554 S
C279 H251 0.982 . S
C279 H255 0.979 . S
C279 H256 0.977 . S
C279 C276 1.453 . S
C280 H252 0.979 . S
C280 H253 0.980 . S
C280 H254 0.983 . S
C280 C276 1.684 . S
H281 C299 0.948 . S
H282 C240 0.948 . S
H283 C258 0.979 . S
H284 C258 0.980 . S
H285 C258 0.983 . S
H286 C257 0.982 . S
H287 C257 0.979 . S
H288 C257 0.977 . S
H289 C259 0.948 . S
H290 C261 0.947 . S
H291 C262 0.948 . S
H292 C268 0.982 . S
H293 C268 0.979 . S
H294 C268 0.977 . S
H295 C269 0.979 . S
H296 C269 0.980 . S
H297 C269 0.983 . S
H298 C242 0.947 . S
C299 C242 1.392 . S
C299 C243 1.419 . S
C299 H281 0.948 . S
C300 C301 1.391 . S
C300 C304 1.391 . S
C300 H342 0.948 . S
C301 C300 1.391 . S
C301 C302 1.391 . S
C302 C301 1.391 . S
C302 H358 0.947 . S
C302 C359 1.392 . S
C303 C304 1.391 . S
C303 C307 1.397 . S
C303 C359 1.419 . S
C304 C300 1.391 . S
C304 C303 1.391 . S
C304 C305 1.399 . S
C305 C304 1.399 . S
C305 C308 1.396 . S
C305 C317 1.453 . S
C305 C318 1.684 . S
H306 C330 0.948 . S
C307 C303 1.397 . S
C307 C308 1.394 . S
C307 C326 1.723 . S
C308 C305 1.396 . S
C308 C307 1.394 . S
C308 C338 1.723 . S
H309 C332 0.947 . S
H310 C333 0.948 . S
H311 C339 0.982 . S
H312 C340 0.979 . S
H313 C340 0.980 . S
H314 C340 0.983 . S
H315 C339 0.979 . S
H316 C339 0.977 . S
C317 C305 1.453 . S
C317 H346 0.982 . S
C317 H347 0.979 . S
C317 H348 0.977 . S
C318 C305 1.684 . S
C318 H343 0.979 . S
C318 H344 0.980 . S
C318 H345 0.983 . S
C319 C320 1.391 . S
C319 C324 1.391 . S
C319 H349 0.948 . S
C320 C319 1.391 . S
C320 C321 1.391 . S
C321 C320 1.391 . S
C321 C322 1.392 . S
C321 H350 0.947 . S
C322 C321 1.392 . S
C322 C323 1.419 . S
C322 H351 0.948 . S
C323 C322 1.419 . S
C323 C324 1.391 . S
C323 C327 1.397 . S
C324 C319 1.391 . S
C324 C323 1.391 . S
C324 C325 1.399 . S
C325 C324 1.399 . S
C325 C326 1.396 . S
C325 C328 1.453 . S
C325 C329 1.684 . S
C326 C307 1.723 . S
C326 C325 1.396 . S
C326 C327 1.394 . S
C327 C323 1.397 . S
C327 C326 1.394 . S
C327 C337 1.723 . S
C328 C325 1.453 . S
C328 H352 0.982 . S
C328 H353 0.979 . S
C328 H354 0.977 . S
C329 C325 1.684 . S
C329 H355 0.979 . S
C329 H356 0.980 . S
C329 H357 0.983 . S
C330 H306 0.948 . S
C330 C331 1.391 . S
C330 C335 1.391 . S
C331 C330 1.391 . S
C331 C332 1.391 . S
C332 H309 0.947 . S
C332 C331 1.391 . S
C332 C333 1.392 . S
C333 H310 0.948 . S
C333 C332 1.392 . S
C333 C334 1.419 . S
C334 C333 1.419 . S
C334 C335 1.391 . S
C334 C338 1.397 . S
C335 C330 1.391 . S
C335 C334 1.391 . S
C335 C336 1.399 . S
C336 C335 1.399 . S
C336 C337 1.396 . S
C336 C339 1.453 . S
C336 C340 1.684 . S
C337 C327 1.723 . S
C337 C336 1.396 . S
C337 C338 1.394 . S
C338 C308 1.723 . S
C338 C334 1.397 . S
C338 C337 1.394 . S
C339 H311 0.982 . S
C339 H315 0.979 . S
C339 H316 0.977 . S
C339 C336 1.453 . S
C340 H312 0.979 . S
C340 H313 0.980 . S
C340 H314 0.983 . S
C340 C336 1.684 . S
H341 C359 0.948 . S
H342 C300 0.948 . S
H343 C318 0.979 . S
H344 C318 0.980 . S
H345 C318 0.983 . S
H346 C317 0.982 . S
H347 C317 0.979 . S
H348 C317 0.977 . S
H349 C319 0.948 . S
H350 C321 0.947 . S
H351 C322 0.948 . S
H352 C328 0.982 . S
H353 C328 0.979 . S
H354 C328 0.977 . S
H355 C329 0.979 . S
H356 C329 0.980 . S
H357 C329 0.983 . S
H358 C302 0.947 . S
C359 C302 1.392 . S
C359 C303 1.419 . S
C359 H341 0.948 . S
C360 C361 1.391 . S
C360 C364 1.391 . S
C360 H402 0.948 . S
C361 C360 1.391 . S
C361 C362 1.391 . S
C362 C361 1.391 . S
C362 H418 0.947 . S
C362 C419 1.392 . S
C363 C364 1.391 . S
C363 C367 1.415 . S
C363 C419 1.419 . S
C364 C360 1.391 . S
C364 C363 1.391 . S
C364 C365 1.399 . S
C365 C364 1.399 . S
C365 C368 1.396 . S
C365 C377 1.453 . S
C365 C378 1.684 . S
H366 C390 0.948 . S
C367 C363 1.415 . S
C367 C368 1.420 . S
C367 C386 1.685 1_556 S
C368 C365 1.396 . S
C368 C367 1.420 . S
C368 C398 1.723 . S
H369 C392 0.947 . S
H370 C393 0.948 . S
H371 C399 0.982 . S
H372 C400 0.979 . S
H373 C400 0.980 . S
H374 C400 0.983 . S
H375 C399 0.979 . S
H376 C399 0.977 . S
C377 C365 1.453 . S
C377 H406 0.982 . S
C377 H407 0.979 . S
C377 H408 0.977 . S
C378 C365 1.684 . S
C378 H403 0.979 . S
C378 H404 0.980 . S
C378 H405 0.983 . S
C379 C380 1.391 . S
C379 C384 1.391 . S
C379 H409 0.948 . S
C380 C379 1.391 . S
C380 C381 1.391 . S
C381 C380 1.391 . S
C381 C382 1.392 . S
C381 H410 0.947 . S
C382 C381 1.392 . S
C382 C383 1.419 . S
C382 H411 0.948 . S
C383 C382 1.419 . S
C383 C384 1.391 . S
C383 C387 1.397 . S
C384 C379 1.391 . S
C384 C383 1.391 . S
C384 C385 1.399 . S
C385 C384 1.399 . S
C385 C386 1.396 . S
C385 C388 1.453 . S
C385 C389 1.684 . S
C386 C367 1.685 1_554 S
C386 C385 1.396 . S
C386 C387 1.394 . S
C387 C383 1.397 . S
C387 C386 1.394 . S
C387 C397 1.723 . S
C388 C385 1.453 . S
C388 H412 0.982 . S
C388 H413 0.979 . S
C388 H414 0.977 . S
C389 C385 1.684 . S
C389 H415 0.979 . S
C389 H416 0.980 . S
C389 H417 0.983 . S
C390 H366 0.948 . S
C390 C391 1.391 . S
C390 C395 1.391 . S
C391 C390 1.391 . S
C391 C392 1.391 . S
C392 H369 0.947 . S
C392 C391 1.391 . S
C392 C393 1.392 . S
C393 H370 0.948 . S
C393 C392 1.392 . S
C393 C394 1.419 . S
C394 C393 1.419 . S
C394 C395 1.391 . S
C394 C398 1.397 . S
C395 C390 1.391 . S
C395 C394 1.391 . S
C395 C396 1.399 1_556 S
C396 C395 1.399 1_554 S
C396 C397 1.396 . S
C396 C399 1.453 . S
C396 C400 1.684 . S
C397 C387 1.723 . S
C397 C396 1.396 . S
C397 C398 1.394 1_554 S
C398 C368 1.723 . S
C398 C394 1.397 . S
C398 C397 1.394 1_556 S
C399 H371 0.982 . S
C399 H375 0.979 . S
C399 H376 0.977 . S
C399 C396 1.453 . S
C400 H372 0.979 . S
C400 H373 0.980 . S
C400 H374 0.983 . S
C400 C396 1.684 . S
H401 C419 0.948 1_554 S
H402 C360 0.948 . S
H403 C378 0.979 . S
H404 C378 0.980 . S
H405 C378 0.983 . S
H406 C377 0.982 . S
H407 C377 0.979 . S
H408 C377 0.977 . S
H409 C379 0.948 . S
H410 C381 0.947 . S
H411 C382 0.948 . S
H412 C388 0.982 . S
H413 C388 0.979 . S
H414 C388 0.977 . S
H415 C389 0.979 . S
H416 C389 0.980 . S
H417 C389 0.983 . S
H418 C362 0.947 . S
C419 C362 1.392 . S
C419 C363 1.419 . S
C419 H401 0.948 1_556 S
C420 C421 1.391 . S
C420 C424 1.391 . S
C420 H462 0.948 . S
C421 C420 1.391 . S
C421 C422 1.391 . S
C422 C421 1.391 . S
C422 H478 0.947 . S
C422 C479 1.392 . S
C423 C424 1.391 . S
C423 C427 1.397 . S
C423 C479 1.419 . S
C424 C420 1.391 . S
C424 C423 1.391 . S
C424 C425 1.399 . S
C425 C424 1.399 . S
C425 C428 1.396 . S
C425 C437 1.453 . S
C425 C438 1.684 . S
H426 C450 0.948 . S
C427 C423 1.397 . S
C427 C428 1.394 . S
C427 C446 1.723 . S
C428 C425 1.396 . S
C428 C427 1.394 . S
C428 C458 1.723 . S
H429 C452 0.947 . S
H430 C453 0.948 . S
H431 C459 0.982 . S
H432 C460 0.979 . S
H433 C460 0.980 . S
H434 C460 0.983 . S
H435 C459 0.979 . S
H436 C459 0.977 . S
C437 C425 1.453 . S
C437 H466 0.982 . S
C437 H467 0.979 . S
C437 H468 0.977 . S
C438 C425 1.684 . S
C438 H463 0.979 . S
C438 H464 0.980 . S
C438 H465 0.983 . S
C439 C440 1.391 . S
C439 C444 1.391 . S
C439 H469 0.948 . S
C440 C439 1.391 . S
C440 C441 1.391 . S
C441 C440 1.391 . S
C441 C442 1.392 . S
C441 H470 0.947 . S
C442 C441 1.392 . S
C442 C443 1.419 . S
C442 H471 0.948 . S
C443 C442 1.419 . S
C443 C444 1.391 . S
C443 C447 1.397 . S
C444 C439 1.391 . S
C444 C443 1.391 . S
C444 C445 1.399 . S
C445 C444 1.399 . S
C445 C446 1.396 . S
C445 C448 1.453 . S
C445 C449 1.684 . S
C446 C427 1.723 . S
C446 C445 1.396 . S
C446 C447 1.394 . S
C447 C443 1.397 . S
C447 C446 1.394 . S
C447 C457 1.723 . S
C448 C445 1.453 . S
C448 H472 0.982 . S
C448 H473 0.979 . S
C448 H474 0.977 . S
C449 C445 1.684 . S
C449 H475 0.979 . S
C449 H476 0.980 . S
C449 H477 0.983 . S
C450 H426 0.948 . S
C450 C451 1.391 . S
C450 C455 1.391 . S
C451 C450 1.391 . S
C451 C452 1.391 . S
C452 H429 0.947 . S
C452 C451 1.391 . S
C452 C453 1.392 . S
C453 H430 0.948 . S
C453 C452 1.392 . S
C453 C454 1.419 . S
C454 C453 1.419 . S
C454 C455 1.391 . S
C454 C458 1.397 . S
C455 C450 1.391 . S
C455 C454 1.391 . S
C455 C456 1.399 . S
C456 C455 1.399 . S
C456 C457 1.396 . S
C456 C459 1.453 . S
C456 C460 1.684 . S
C457 C447 1.723 . S
C457 C456 1.396 . S
C457 C458 1.394 . S
C458 C428 1.723 . S
C458 C454 1.397 . S
C458 C457 1.394 . S
C459 H431 0.982 . S
C459 H435 0.979 . S
C459 H436 0.977 . S
C459 C456 1.453 . S
C460 H432 0.979 . S
C460 H433 0.980 . S
C460 H434 0.983 . S
C460 C456 1.684 . S
H461 C479 0.948 . S
H462 C420 0.948 . S
H463 C438 0.979 . S
H464 C438 0.980 . S
H465 C438 0.983 . S
H466 C437 0.982 . S
H467 C437 0.979 . S
H468 C437 0.977 . S
H469 C439 0.948 . S
H470 C441 0.947 . S
H471 C442 0.948 . S
H472 C448 0.982 . S
H473 C448 0.979 . S
H474 C448 0.977 . S
H475 C449 0.979 . S
H476 C449 0.980 . S
H477 C449 0.983 . S
H478 C422 0.947 . S
C479 C422 1.392 . S
C479 C423 1.419 . S
C479 H461 0.948 . S
Fe480 O482 1.918 . S
Fe480 O485 1.997 1_455 S
Fe480 O486 2.002 1_455 S
Fe480 O491 1.976 . S
Fe480 O494 1.996 . S
Fe481 O482 1.918 . S
Fe481 O489 1.997 1_455 S
Fe481 O492 1.996 . S
Fe481 O496 1.976 . S
Fe481 O499 2.002 1_455 S
O482 Fe480 1.918 . S
O482 Fe481 1.918 . S
O482 Fe483 1.918 . S
Fe483 O482 1.918 . S
Fe483 O484 2.002 1_455 S
Fe483 O493 1.976 . S
Fe483 O497 1.996 . S
Fe483 O500 1.997 1_455 S
O484 Fe483 2.002 1_655 S
O484 C501 1.295 . S
O485 Fe480 1.997 1_655 S
O485 C501 1.235 . S
O486 Fe480 2.002 1_655 S
O486 C487 1.295 . S
C487 O486 1.295 . S
C487 O489 1.235 . S
C488 O493 1.287 . S
C488 O494 1.255 . S
O489 Fe481 1.997 1_655 S
O489 C487 1.235 . S
C490 O496 1.287 . S
C490 O497 1.255 . S
O491 Fe480 1.976 . S
O491 C498 1.287 . S
O492 Fe481 1.996 . S
O492 C498 1.255 . S
O493 Fe483 1.976 . S
O493 C488 1.287 . S
O494 Fe480 1.996 . S
O494 C488 1.255 . S
C495 O499 1.295 . S
C495 O500 1.235 . S
O496 Fe481 1.976 . S
O496 C490 1.287 . S
O497 Fe483 1.996 . S
O497 C490 1.255 . S
C498 O491 1.287 . S
C498 O492 1.255 . S
O499 Fe481 2.002 1_655 S
O499 C495 1.295 . S
O500 Fe483 1.997 1_655 S
O500 C495 1.235 . S
C501 O484 1.295 . S
C501 O485 1.235 . S
Fe502 O504 1.919 . S
Fe502 O507 1.983 1_655 S
Fe502 O508 1.989 1_655 S
Fe502 O513 1.989 . S
Fe502 O516 2.009 . S
Fe503 O504 1.919 . S
Fe503 O511 1.983 1_655 S
Fe503 O514 2.009 . S
Fe503 O518 1.989 . S
Fe503 O521 1.989 1_655 S
O504 Fe502 1.919 . S
O504 Fe503 1.919 . S
O504 Fe505 1.918 . S
Fe505 O504 1.918 . S
Fe505 O506 1.989 1_655 S
Fe505 O515 1.989 . S
Fe505 O519 2.008 . S
Fe505 O522 1.984 1_655 S
O506 Fe505 1.989 1_455 S
O506 C523 1.295 . S
O507 Fe502 1.983 1_455 S
O507 C523 1.235 . S
O508 Fe502 1.989 1_455 S
O508 C509 1.295 . S
C509 O508 1.295 . S
C509 O511 1.235 . S
C510 O515 1.287 . S
C510 O516 1.255 . S
O511 Fe503 1.983 1_455 S
O511 C509 1.235 . S
C512 O518 1.287 . S
C512 O519 1.255 . S
O513 Fe502 1.989 . S
O513 C520 1.287 . S
O514 Fe503 2.009 . S
O514 C520 1.255 . S
O515 Fe505 1.989 . S
O515 C510 1.287 . S
O516 Fe502 2.009 . S
O516 C510 1.255 . S
C517 O521 1.295 . S
C517 O522 1.235 . S
O518 Fe503 1.989 . S
O518 C512 1.287 . S
O519 Fe505 2.008 . S
O519 C512 1.255 . S
C520 O513 1.287 . S
C520 O514 1.255 . S
O521 Fe503 1.989 1_455 S
O521 C517 1.295 . S
O522 Fe505 1.984 1_455 S
O522 C517 1.235 . S
C523 O506 1.295 . S
C523 O507 1.235 . S
Fe524 O526 1.918 . S
Fe524 O529 1.997 . S
Fe524 O530 2.002 . S
Fe524 O535 1.976 . S
Fe524 O538 1.996 . S
Fe525 O526 1.918 . S
Fe525 O533 1.997 . S
Fe525 O536 1.996 . S
Fe525 O540 1.976 . S
Fe525 O543 2.002 . S
O526 Fe524 1.918 . S
O526 Fe525 1.918 . S
O526 Fe527 1.918 . S
Fe527 O526 1.918 . S
Fe527 O528 2.002 . S
Fe527 O537 1.976 . S
Fe527 O541 1.996 . S
Fe527 O544 1.997 . S
O528 Fe527 2.002 . S
O528 C545 1.295 . S
O529 Fe524 1.997 . S
O529 C545 1.235 . S
O530 Fe524 2.002 . S
O530 C531 1.295 . S
C531 O530 1.295 . S
C531 O533 1.235 . S
C532 O537 1.287 . S
C532 O538 1.255 . S
O533 Fe525 1.997 . S
O533 C531 1.235 . S
C534 O540 1.287 . S
C534 O541 1.255 . S
O535 Fe524 1.976 . S
O535 C542 1.287 . S
O536 Fe525 1.996 . S
O536 C542 1.255 . S
O537 Fe527 1.976 . S
O537 C532 1.287 . S
O538 Fe524 1.996 . S
O538 C532 1.255 . S
C539 O543 1.295 . S
C539 O544 1.235 . S
O540 Fe525 1.976 . S
O540 C534 1.287 . S
O541 Fe527 1.996 . S
O541 C534 1.255 . S
C542 O535 1.287 . S
C542 O536 1.255 . S
O543 Fe525 2.002 . S
O543 C539 1.295 . S
O544 Fe527 1.997 . S
O544 C539 1.235 . S
C545 O528 1.295 . S
C545 O529 1.235 . S
Fe546 O548 1.918 . S
Fe546 O551 1.997 . S
Fe546 O552 2.002 . S
Fe546 O557 1.976 . S
Fe546 O560 1.996 . S
Fe547 O548 1.918 . S
Fe547 O555 1.997 . S
Fe547 O558 1.996 . S
Fe547 O562 1.976 . S
Fe547 O565 2.002 . S
O548 Fe546 1.918 . S
O548 Fe547 1.918 . S
O548 Fe549 1.918 . S
Fe549 O548 1.918 . S
Fe549 O550 2.002 . S
Fe549 O559 1.976 . S
Fe549 O563 1.996 . S
Fe549 O566 1.997 . S
O550 Fe549 2.002 . S
O550 C567 1.295 . S
O551 Fe546 1.997 . S
O551 C567 1.235 . S
O552 Fe546 2.002 . S
O552 C553 1.295 . S
C553 O552 1.295 . S
C553 O555 1.235 . S
C554 O559 1.287 . S
C554 O560 1.255 . S
O555 Fe547 1.997 . S
O555 C553 1.235 . S
C556 O562 1.287 . S
C556 O563 1.255 . S
O557 Fe546 1.976 . S
O557 C564 1.287 . S
O558 Fe547 1.996 . S
O558 C564 1.255 . S
O559 Fe549 1.976 . S
O559 C554 1.287 . S
O560 Fe546 1.996 . S
O560 C554 1.255 . S
C561 O565 1.295 . S
C561 O566 1.235 . S
O562 Fe547 1.976 . S
O562 C556 1.287 . S
O563 Fe549 1.996 . S
O563 C556 1.255 . S
C564 O557 1.287 . S
C564 O558 1.255 . S
O565 Fe547 2.002 . S
O565 C561 1.295 . S
O566 Fe549 1.997 . S
O566 C561 1.235 . S
C567 O550 1.295 . S
C567 O551 1.235 . S
H568 C576 0.929 . S
H569 C578 0.930 . S
H570 C580 0.930 . S
H571 C583 0.929 . S
H572 C586 0.930 . S
H573 C588 0.960 . S
H574 C588 0.960 . S
H575 C588 0.960 . S
C576 H568 0.929 . S
C576 C577 1.377 . S
C576 C578 1.384 . S
C577 C576 1.377 . S
C577 C583 1.390 . S
C578 H569 0.930 . S
C578 C576 1.384 . S
C578 C579 1.372 . S
C579 C578 1.372 . S
C579 C580 1.400 . S
C579 C584 1.490 . S
C580 H570 0.930 . S
C580 C579 1.400 . S
C580 C583 1.386 . S
H581 C597 0.930 . S
H582 C598 0.931 . S
C583 H571 0.929 . S
C583 C577 1.390 . S
C583 C580 1.386 . S
C584 C579 1.490 . S
C584 C586 1.395 . S
C584 C587 1.403 . S
H585 C591 0.930 . S
C586 H572 0.930 . S
C586 C584 1.395 . S
C586 C589 1.403 . S
C587 C584 1.403 . S
C587 C588 1.524 . S
C587 C591 1.400 . S
C588 H573 0.960 . S
C588 H574 0.960 . S
C588 H575 0.960 . S
C588 C587 1.524 . S
C589 C586 1.403 . S
C589 C590 1.392 . S
C589 C593 1.495 . S
C590 C589 1.392 . S
C590 C591 1.385 . S
C590 C592 1.478 . S
C591 H585 0.930 . S
C591 C587 1.400 . S
C591 C590 1.385 . S
C592 C590 1.478 . S
C592 C594 1.381 . S
C592 C598 1.383 . S
C593 C589 1.495 . S
C593 H599 0.959 . S
C593 H600 0.961 . S
C593 H601 0.960 . S
C594 C592 1.381 . S
C594 C595 1.394 . S
C594 H602 0.930 . S
C595 C594 1.394 . S
C595 C596 1.383 . S
C595 H603 0.929 . S
C596 C595 1.383 . S
C596 C597 1.377 . S
C597 H581 0.930 . S
C597 C596 1.377 . S
C597 C598 1.379 . S
C598 H582 0.931 . S
C598 C592 1.383 . S
C598 C597 1.379 . S
H599 C593 0.959 . S
H600 C593 0.961 . S
H601 C593 0.960 . S
H602 C594 0.930 . S
H603 C595 0.929 . S
H604 C612 0.929 . S
H605 C614 0.930 . S
H606 C616 0.930 . S
H607 C619 0.929 . S
H608 C622 0.930 . S
H609 C624 0.960 . S
H610 C624 0.960 . S
H611 C624 0.960 . S
C612 H604 0.929 . S
C612 C613 1.377 . S
C612 C614 1.384 . S
C613 C612 1.377 . S
C613 C619 1.390 . S
C614 H605 0.930 . S
C614 C612 1.384 . S
C614 C615 1.372 . S
C615 C614 1.372 . S
C615 C616 1.400 . S
C615 C620 1.490 . S
C616 H606 0.930 . S
C616 C615 1.400 . S
C616 C619 1.386 . S
H617 C633 0.930 . S
H618 C634 0.931 . S
C619 H607 0.929 . S
C619 C613 1.390 . S
C619 C616 1.386 . S
C620 C615 1.490 . S
C620 C622 1.395 . S
C620 C623 1.403 . S
H621 C627 0.930 . S
C622 H608 0.930 . S
C622 C620 1.395 . S
C622 C625 1.403 . S
C623 C620 1.403 . S
C623 C624 1.524 . S
C623 C627 1.400 . S
C624 H609 0.960 . S
C624 H610 0.960 . S
C624 H611 0.960 . S
C624 C623 1.524 . S
C625 C622 1.403 . S
C625 C626 1.392 . S
C625 C629 1.495 . S
C626 C625 1.392 . S
C626 C627 1.385 . S
C626 C628 1.478 . S
C627 H621 0.930 . S
C627 C623 1.400 . S
C627 C626 1.385 . S
C628 C626 1.478 . S
C628 C630 1.381 . S
C628 C634 1.383 . S
C629 C625 1.495 . S
C629 H635 0.959 . S
C629 H636 0.961 . S
C629 H637 0.960 . S
C630 C628 1.381 . S
C630 C631 1.394 . S
C630 H638 0.930 . S
C631 C630 1.394 . S
C631 C632 1.383 . S
C631 H639 0.929 . S
C632 C631 1.383 . S
C632 C633 1.377 . S
C633 H617 0.930 . S
C633 C632 1.377 . S
C633 C634 1.379 . S
C634 H618 0.931 . S
C634 C628 1.383 . S
C634 C633 1.379 . S
H635 C629 0.959 . S
H636 C629 0.961 . S
H637 C629 0.960 . S
H638 C630 0.930 . S
H639 C631 0.929 . S
H640 C648 0.929 . S
H641 C650 0.930 . S
H642 C652 0.930 . S
H643 C655 0.929 . S
H644 C658 0.930 . S
H645 C660 0.960 . S
H646 C660 0.960 . S
H647 C660 0.960 . S
C648 H640 0.929 . S
C648 C649 1.377 . S
C648 C650 1.384 . S
C649 C648 1.377 . S
C649 C655 1.390 . S
C650 H641 0.930 . S
C650 C648 1.384 . S
C650 C651 1.372 . S
C651 C650 1.372 . S
C651 C652 1.400 . S
C651 C656 1.490 . S
C652 H642 0.930 . S
C652 C651 1.400 . S
C652 C655 1.386 . S
H653 C669 0.930 . S
H654 C670 0.931 . S
C655 H643 0.929 . S
C655 C649 1.390 . S
C655 C652 1.386 . S
C656 C651 1.490 . S
C656 C658 1.395 . S
C656 C659 1.403 . S
H657 C663 0.930 . S
C658 H644 0.930 . S
C658 C656 1.395 . S
C658 C661 1.403 . S
C659 C656 1.403 . S
C659 C660 1.524 . S
C659 C663 1.400 . S
C660 H645 0.960 . S
C660 H646 0.960 . S
C660 H647 0.960 . S
C660 C659 1.524 . S
C661 C658 1.403 . S
C661 C662 1.392 . S
C661 C665 1.495 . S
C662 C661 1.392 . S
C662 C663 1.385 . S
C662 C664 1.478 . S
C663 H657 0.930 . S
C663 C659 1.400 . S
C663 C662 1.385 . S
C664 C662 1.478 . S
C664 C666 1.381 . S
C664 C670 1.383 . S
C665 C661 1.495 . S
C665 H671 0.959 . S
C665 H672 0.961 . S
C665 H673 0.960 . S
C666 C664 1.381 . S
C666 C667 1.394 . S
C666 H674 0.930 . S
C667 C666 1.394 . S
C667 C668 1.383 . S
C667 H675 0.929 . S
C668 C667 1.383 . S
C668 C669 1.377 . S
C669 H653 0.930 . S
C669 C668 1.377 . S
C669 C670 1.379 . S
C670 H654 0.931 . S
C670 C664 1.383 . S
C670 C669 1.379 . S
H671 C665 0.959 . S
H672 C665 0.961 . S
H673 C665 0.960 . S
H674 C666 0.930 . S
H675 C667 0.929 . S
H676 C684 0.929 . S
H677 C686 0.930 . S
H678 C688 0.930 . S
H679 C691 0.929 . S
H680 C694 0.930 . S
H681 C696 0.960 . S
H682 C696 0.960 . S
H683 C696 0.960 . S
C684 H676 0.929 . S
C684 C685 1.377 . S
C684 C686 1.384 . S
C685 C684 1.377 . S
C685 C691 1.390 . S
C686 H677 0.930 . S
C686 C684 1.384 . S
C686 C687 1.372 . S
C687 C686 1.372 . S
C687 C688 1.400 . S
C687 C692 1.490 . S
C688 H678 0.930 . S
C688 C687 1.400 . S
C688 C691 1.386 . S
H689 C705 0.930 . S
H690 C706 0.931 . S
C691 H679 0.929 . S
C691 C685 1.390 . S
C691 C688 1.386 . S
C692 C687 1.490 . S
C692 C694 1.395 . S
C692 C695 1.403 . S
H693 C699 0.930 . S
C694 H680 0.930 . S
C694 C692 1.395 . S
C694 C697 1.403 . S
C695 C692 1.403 . S
C695 C696 1.524 . S
C695 C699 1.400 . S
C696 H681 0.960 . S
C696 H682 0.960 . S
C696 H683 0.960 . S
C696 C695 1.524 . S
C697 C694 1.403 . S
C697 C698 1.392 . S
C697 C701 1.495 . S
C698 C697 1.392 . S
C698 C699 1.385 . S
C698 C700 1.478 . S
C699 H693 0.930 . S
C699 C695 1.400 . S
C699 C698 1.385 . S
C700 C698 1.478 . S
C700 C702 1.381 . S
C700 C706 1.383 . S
C701 C697 1.495 . S
C701 H707 0.959 . S
C701 H708 0.961 . S
C701 H709 0.960 . S
C702 C700 1.381 . S
C702 C703 1.394 . S
C702 H710 0.930 . S
C703 C702 1.394 . S
C703 C704 1.383 . S
C703 H711 0.929 . S
C704 C703 1.383 . S
C704 C705 1.377 . S
C705 H689 0.930 . S
C705 C704 1.377 . S
C705 C706 1.379 . S
C706 H690 0.931 . S
C706 C700 1.383 . S
C706 C705 1.379 . S
H707 C701 0.959 . S
H708 C701 0.961 . S
H709 C701 0.960 . S
H710 C702 0.930 . S
H711 C703 0.929 . S
H712 C720 0.929 . S
H713 C722 0.930 . S
H714 C724 0.930 . S
H715 C727 0.929 . S
H716 C730 0.930 . S
H717 C732 0.960 . S
H718 C732 0.960 . S
H719 C732 0.960 . S
C720 H712 0.929 . S
C720 C721 1.377 . S
C720 C722 1.384 . S
C721 C720 1.377 . S
C721 C727 1.390 . S
C722 H713 0.930 . S
C722 C720 1.384 . S
C722 C723 1.372 . S
C723 C722 1.372 . S
C723 C724 1.400 . S
C723 C728 1.490 . S
C724 H714 0.930 . S
C724 C723 1.400 . S
C724 C727 1.386 . S
H725 C741 0.930 . S
H726 C742 0.931 . S
C727 H715 0.929 . S
C727 C721 1.390 . S
C727 C724 1.386 . S
C728 C723 1.490 . S
C728 C730 1.395 . S
C728 C731 1.403 . S
H729 C735 0.930 . S
C730 H716 0.930 . S
C730 C728 1.395 . S
C730 C733 1.403 . S
C731 C728 1.403 . S
C731 C732 1.524 . S
C731 C735 1.400 . S
C732 H717 0.960 . S
C732 H718 0.960 . S
C732 H719 0.960 . S
C732 C731 1.524 . S
C733 C730 1.403 . S
C733 C734 1.392 . S
C733 C737 1.495 . S
C734 C733 1.392 . S
C734 C735 1.385 . S
C734 C736 1.478 . S
C735 H729 0.930 . S
C735 C731 1.400 . S
C735 C734 1.385 . S
C736 C734 1.478 . S
C736 C738 1.381 . S
C736 C742 1.383 . S
C737 C733 1.495 . S
C737 H743 0.959 . S
C737 H744 0.961 . S
C737 H745 0.960 . S
C738 C736 1.381 . S
C738 C739 1.394 . S
C738 H746 0.930 . S
C739 C738 1.394 . S
C739 C740 1.383 . S
C739 H747 0.929 . S
C740 C739 1.383 . S
C740 C741 1.377 . S
C741 H725 0.930 . S
C741 C740 1.377 . S
C741 C742 1.379 . S
C742 H726 0.931 . S
C742 C736 1.383 . S
C742 C741 1.379 . S
H743 C737 0.959 . S
H744 C737 0.961 . S
H745 C737 0.960 . S
H746 C738 0.930 . S
H747 C739 0.929 . S
H748 C756 0.929 . S
H749 C758 0.930 . S
H750 C760 0.930 . S
H751 C763 0.929 . S
H752 C766 0.930 . S
H753 C768 0.960 . S
H754 C768 0.960 . S
H755 C768 0.960 . S
C756 H748 0.929 . S
C756 C757 1.377 . S
C756 C758 1.384 . S
C757 C756 1.377 . S
C757 C763 1.390 . S
C758 H749 0.930 . S
C758 C756 1.384 . S
C758 C759 1.372 . S
C759 C758 1.372 . S
C759 C760 1.400 . S
C759 C764 1.490 . S
C760 H750 0.930 . S
C760 C759 1.400 . S
C760 C763 1.386 . S
H761 C777 0.930 . S
H762 C778 0.931 . S
C763 H751 0.929 . S
C763 C757 1.390 . S
C763 C760 1.386 . S
C764 C759 1.490 . S
C764 C766 1.395 . S
C764 C767 1.403 . S
H765 C771 0.930 . S
C766 H752 0.930 . S
C766 C764 1.395 . S
C766 C769 1.403 . S
C767 C764 1.403 . S
C767 C768 1.524 . S
C767 C771 1.400 . S
C768 H753 0.960 . S
C768 H754 0.960 . S
C768 H755 0.960 . S
C768 C767 1.524 . S
C769 C766 1.403 . S
C769 C770 1.392 . S
C769 C773 1.495 . S
C770 C769 1.392 . S
C770 C771 1.385 . S
C770 C772 1.478 . S
C771 H765 0.930 . S
C771 C767 1.400 . S
C771 C770 1.385 . S
C772 C770 1.478 . S
C772 C774 1.381 . S
C772 C778 1.383 . S
C773 C769 1.495 . S
C773 H779 0.959 . S
C773 H780 0.961 . S
C773 H781 0.960 . S
C774 C772 1.381 . S
C774 C775 1.394 . S
C774 H782 0.930 . S
C775 C774 1.394 . S
C775 C776 1.383 . S
C775 H783 0.929 . S
C776 C775 1.383 . S
C776 C777 1.377 . S
C777 H761 0.930 . S
C777 C776 1.377 . S
C777 C778 1.379 . S
C778 H762 0.931 . S
C778 C772 1.383 . S
C778 C777 1.379 . S
H779 C773 0.959 . S
H780 C773 0.961 . S
H781 C773 0.960 . S
H782 C774 0.930 . S
H783 C775 0.929 . S
H784 C792 0.929 . S
H785 C794 0.930 . S
H786 C796 0.930 . S
H787 C799 0.929 . S
H788 C802 0.930 . S
H789 C804 0.960 . S
H790 C804 0.960 . S
H791 C804 0.960 . S
C792 H784 0.929 . S
C792 C793 1.377 . S
C792 C794 1.384 . S
C793 C792 1.377 . S
C793 C799 1.390 . S
C794 H785 0.930 . S
C794 C792 1.384 . S
C794 C795 1.372 . S
C795 C794 1.372 . S
C795 C796 1.400 . S
C795 C800 1.490 . S
C796 H786 0.930 . S
C796 C795 1.400 . S
C796 C799 1.386 . S
H797 C813 0.930 . S
H798 C814 0.931 . S
C799 H787 0.929 . S
C799 C793 1.390 . S
C799 C796 1.386 . S
C800 C795 1.490 . S
C800 C802 1.395 . S
C800 C803 1.403 . S
H801 C807 0.930 . S
C802 H788 0.930 . S
C802 C800 1.395 . S
C802 C805 1.403 . S
C803 C800 1.403 . S
C803 C804 1.524 . S
C803 C807 1.400 . S
C804 H789 0.960 . S
C804 H790 0.960 . S
C804 H791 0.960 . S
C804 C803 1.524 . S
C805 C802 1.403 . S
C805 C806 1.392 . S
C805 C809 1.495 . S
C806 C805 1.392 . S
C806 C807 1.385 . S
C806 C808 1.478 . S
C807 H801 0.930 . S
C807 C803 1.400 . S
C807 C806 1.385 . S
C808 C806 1.478 . S
C808 C810 1.381 . S
C808 C814 1.383 . S
C809 C805 1.495 . S
C809 H815 0.959 . S
C809 H816 0.961 . S
C809 H817 0.960 . S
C810 C808 1.381 . S
C810 C811 1.394 . S
C810 H818 0.930 . S
C811 C810 1.394 . S
C811 C812 1.383 . S
C811 H819 0.929 . S
C812 C811 1.383 . S
C812 C813 1.377 . S
C813 H797 0.930 . S
C813 C812 1.377 . S
C813 C814 1.379 . S
C814 H798 0.931 . S
C814 C808 1.383 . S
C814 C813 1.379 . S
H815 C809 0.959 . S
H816 C809 0.961 . S
H817 C809 0.960 . S
H818 C810 0.930 . S
H819 C811 0.929 . S
H820 C828 0.929 . S
H821 C830 0.930 . S
H822 C832 0.930 . S
H823 C835 0.929 . S
H824 C838 0.930 . S
H825 C840 0.960 . S
H826 C840 0.960 . S
H827 C840 0.960 . S
C828 H820 0.929 . S
C828 C829 1.377 . S
C828 C830 1.384 . S
C829 C828 1.377 . S
C829 C835 1.390 . S
C830 H821 0.930 . S
C830 C828 1.384 . S
C830 C831 1.372 . S
C831 C830 1.372 . S
C831 C832 1.400 . S
C831 C836 1.490 . S
C832 H822 0.930 . S
C832 C831 1.400 . S
C832 C835 1.386 . S
H833 C849 0.930 . S
H834 C850 0.931 . S
C835 H823 0.929 . S
C835 C829 1.390 . S
C835 C832 1.386 . S
C836 C831 1.490 . S
C836 C838 1.395 . S
C836 C839 1.403 . S
H837 C843 0.930 . S
C838 H824 0.930 . S
C838 C836 1.395 . S
C838 C841 1.403 . S
C839 C836 1.403 . S
C839 C840 1.524 . S
C839 C843 1.400 . S
C840 H825 0.960 . S
C840 H826 0.960 . S
C840 H827 0.960 . S
C840 C839 1.524 . S
C841 C838 1.403 . S
C841 C842 1.392 . S
C841 C845 1.495 . S
C842 C841 1.392 . S
C842 C843 1.385 . S
C842 C844 1.478 . S
C843 H837 0.930 . S
C843 C839 1.400 . S
C843 C842 1.385 . S
C844 C842 1.478 . S
C844 C846 1.381 . S
C844 C850 1.383 . S
C845 C841 1.495 . S
C845 H851 0.959 . S
C845 H852 0.961 . S
C845 H853 0.960 . S
C846 C844 1.381 . S
C846 C847 1.394 . S
C846 H854 0.930 . S
C847 C846 1.394 . S
C847 C848 1.383 . S
C847 H855 0.929 . S
C848 C847 1.383 . S
C848 C849 1.377 . S
C849 H833 0.930 . S
C849 C848 1.377 . S
C849 C850 1.379 . S
C850 H834 0.931 . S
C850 C844 1.383 . S
C850 C849 1.379 . S
H851 C845 0.959 . S
H852 C845 0.961 . S
H853 C845 0.960 . S
H854 C846 0.930 . S
H855 C847 0.929 . S
H856 C864 0.929 . S
H857 C866 0.930 . S
H858 C868 0.930 . S
H859 C871 0.929 . S
H860 C874 0.930 . S
H861 C876 0.960 . S
H862 C876 0.960 . S
H863 C876 0.960 . S
C864 H856 0.929 . S
C864 C865 1.377 . S
C864 C866 1.384 . S
C865 C864 1.377 . S
C865 C871 1.390 . S
C866 H857 0.930 . S
C866 C864 1.384 . S
C866 C867 1.372 . S
C867 C866 1.372 . S
C867 C868 1.400 . S
C867 C872 1.490 . S
C868 H858 0.930 . S
C868 C867 1.400 . S
C868 C871 1.386 . S
H869 C885 0.930 . S
H870 C886 0.931 . S
C871 H859 0.929 . S
C871 C865 1.390 . S
C871 C868 1.386 . S
C872 C867 1.490 . S
C872 C874 1.395 . S
C872 C875 1.403 . S
H873 C879 0.930 . S
C874 H860 0.930 . S
C874 C872 1.395 . S
C874 C877 1.403 . S
C875 C872 1.403 . S
C875 C876 1.524 . S
C875 C879 1.400 . S
C876 H861 0.960 . S
C876 H862 0.960 . S
C876 H863 0.960 . S
C876 C875 1.524 . S
C877 C874 1.403 . S
C877 C878 1.392 . S
C877 C881 1.495 . S
C878 C877 1.392 . S
C878 C879 1.385 . S
C878 C880 1.478 . S
C879 H873 0.930 . S
C879 C875 1.400 . S
C879 C878 1.385 . S
C880 C878 1.478 . S
C880 C882 1.381 . S
C880 C886 1.383 . S
C881 C877 1.495 . S
C881 H887 0.959 . S
C881 H888 0.961 . S
C881 H889 0.960 . S
C882 C880 1.381 . S
C882 C883 1.394 . S
C882 H890 0.930 . S
C883 C882 1.394 . S
C883 C884 1.383 . S
C883 H891 0.929 . S
C884 C883 1.383 . S
C884 C885 1.377 . S
C885 H869 0.930 . S
C885 C884 1.377 . S
C885 C886 1.379 . S
C886 H870 0.931 . S
C886 C880 1.383 . S
C886 C885 1.379 . S
H887 C881 0.959 . S
H888 C881 0.961 . S
H889 C881 0.960 . S
H890 C882 0.930 . S
H891 C883 0.929 . S
H892 C900 0.929 . S
H893 C902 0.930 . S
H894 C904 0.930 . S
H895 C907 0.929 . S
H896 C910 0.930 . S
H897 C912 0.960 . S
H898 C912 0.960 . S
H899 C912 0.960 . S
C900 H892 0.929 . S
C900 C901 1.377 . S
C900 C902 1.384 . S
C901 C900 1.377 . S
C901 C907 1.390 . S
C902 H893 0.930 . S
C902 C900 1.384 . S
C902 C903 1.372 . S
C903 C902 1.372 . S
C903 C904 1.400 . S
C903 C908 1.490 . S
C904 H894 0.930 . S
C904 C903 1.400 . S
C904 C907 1.386 . S
H905 C921 0.930 . S
H906 C922 0.931 . S
C907 H895 0.929 . S
C907 C901 1.390 . S
C907 C904 1.386 . S
C908 C903 1.490 . S
C908 C910 1.395 . S
C908 C911 1.403 . S
H909 C915 0.930 . S
C910 H896 0.930 . S
C910 C908 1.395 . S
C910 C913 1.403 . S
C911 C908 1.403 . S
C911 C912 1.524 . S
C911 C915 1.400 . S
C912 H897 0.960 . S
C912 H898 0.960 . S
C912 H899 0.960 . S
C912 C911 1.524 . S
C913 C910 1.403 . S
C913 C914 1.392 . S
C913 C917 1.495 . S
C914 C913 1.392 . S
C914 C915 1.385 . S
C914 C916 1.478 . S
C915 H909 0.930 . S
C915 C911 1.400 . S
C915 C914 1.385 . S
C916 C914 1.478 . S
C916 C918 1.381 . S
C916 C922 1.383 . S
C917 C913 1.495 . S
C917 H923 0.959 . S
C917 H924 0.961 . S
C917 H925 0.960 . S
C918 C916 1.381 . S
C918 C919 1.394 . S
C918 H926 0.930 . S
C919 C918 1.394 . S
C919 C920 1.383 . S
C919 H927 0.929 . S
C920 C919 1.383 . S
C920 C921 1.377 . S
C921 H905 0.930 . S
C921 C920 1.377 . S
C921 C922 1.379 . S
C922 H906 0.931 . S
C922 C916 1.383 . S
C922 C921 1.379 . S
H923 C917 0.959 . S
H924 C917 0.961 . S
H925 C917 0.960 . S
H926 C918 0.930 . S
H927 C919 0.929 . S
H928 C936 0.929 . S
H929 C938 0.930 . S
H930 C940 0.930 . S
H931 C943 0.929 . S
H932 C946 0.930 . S
H933 C948 0.960 . S
H934 C948 0.960 . S
H935 C948 0.960 . S
C936 H928 0.929 . S
C936 C937 1.377 . S
C936 C938 1.384 . S
C937 C936 1.377 . S
C937 C943 1.390 . S
C938 H929 0.930 . S
C938 C936 1.384 . S
C938 C939 1.372 . S
C939 C938 1.372 . S
C939 C940 1.400 . S
C939 C944 1.490 . S
C940 H930 0.930 . S
C940 C939 1.400 . S
C940 C943 1.386 . S
H941 C957 0.930 . S
H942 C958 0.931 . S
C943 H931 0.929 . S
C943 C937 1.390 . S
C943 C940 1.386 . S
C944 C939 1.490 . S
C944 C946 1.395 . S
C944 C947 1.403 . S
H945 C951 0.930 . S
C946 H932 0.930 . S
C946 C944 1.395 . S
C946 C949 1.403 . S
C947 C944 1.403 . S
C947 C948 1.524 . S
C947 C951 1.400 . S
C948 H933 0.960 . S
C948 H934 0.960 . S
C948 H935 0.960 . S
C948 C947 1.524 . S
C949 C946 1.403 . S
C949 C950 1.392 . S
C949 C953 1.495 . S
C950 C949 1.392 . S
C950 C951 1.385 . S
C950 C952 1.478 . S
C951 H945 0.930 . S
C951 C947 1.400 . S
C951 C950 1.385 . S
C952 C950 1.478 . S
C952 C954 1.381 . S
C952 C958 1.383 . S
C953 C949 1.495 . S
C953 H959 0.959 . S
C953 H960 0.961 . S
C953 H961 0.960 . S
C954 C952 1.381 . S
C954 C955 1.394 . S
C954 H962 0.930 . S
C955 C954 1.394 . S
C955 C956 1.383 . S
C955 H963 0.929 . S
C956 C955 1.383 . S
C956 C957 1.377 . S
C957 H941 0.930 . S
C957 C956 1.377 . S
C957 C958 1.379 . S
C958 H942 0.931 . S
C958 C952 1.383 . S
C958 C957 1.379 . S
H959 C953 0.959 . S
H960 C953 0.961 . S
H961 C953 0.960 . S
H962 C954 0.930 . S
H963 C955 0.929 . S
H964 C972 0.929 . S
H965 C974 0.930 . S
H966 C976 0.930 . S
H967 C979 0.929 . S
H968 C982 0.930 . S
H969 C984 0.960 . S
H970 C984 0.960 . S
H971 C984 0.960 . S
C972 H964 0.929 . S
C972 C973 1.377 . S
C972 C974 1.384 . S
C973 C972 1.377 . S
C973 C979 1.390 . S
C974 H965 0.930 . S
C974 C972 1.384 . S
C974 C975 1.372 . S
C975 C974 1.372 . S
C975 C976 1.400 . S
C975 C980 1.490 . S
C976 H966 0.930 . S
C976 C975 1.400 . S
C976 C979 1.386 . S
H977 C993 0.930 . S
H978 C994 0.931 . S
C979 H967 0.929 . S
C979 C973 1.390 . S
C979 C976 1.386 . S
C980 C975 1.490 . S
C980 C982 1.395 . S
C980 C983 1.403 . S
H981 C987 0.930 . S
C982 H968 0.930 . S
C982 C980 1.395 . S
C982 C985 1.403 . S
C983 C980 1.403 . S
C983 C984 1.524 . S
C983 C987 1.400 . S
C984 H969 0.960 . S
C984 H970 0.960 . S
C984 H971 0.960 . S
C984 C983 1.524 . S
C985 C982 1.403 . S
C985 C986 1.392 . S
C985 C989 1.495 . S
C986 C985 1.392 . S
C986 C987 1.385 . S
C986 C988 1.478 . S
C987 H981 0.930 . S
C987 C983 1.400 . S
C987 C986 1.385 . S
C988 C986 1.478 . S
C988 C990 1.381 . S
C988 C994 1.383 . S
C989 C985 1.495 . S
C989 H995 0.959 . S
C989 H996 0.961 . S
C989 H997 0.960 . S
C990 C988 1.381 . S
C990 C991 1.394 . S
C990 H998 0.930 . S
C991 C990 1.394 . S
C991 C992 1.383 . S
C991 H999 0.929 . S
C992 C991 1.383 . S
C992 C993 1.377 . S
C993 H977 0.930 . S
C993 C992 1.377 . S
C993 C994 1.379 . S
C994 H978 0.931 . S
C994 C988 1.383 . S
C994 C993 1.379 . S
H995 C989 0.959 . S
H996 C989 0.961 . S
H997 C989 0.960 . S
H998 C990 0.930 . S
H999 C991 0.929 . S
H1000 C1008 0.929 . S
H1001 C1010 0.930 . S
H1002 C1012 0.930 . S
H1003 C1015 0.929 . S
H1004 C1018 0.930 . S
H1005 C1020 0.960 . S
H1006 C1020 0.960 . S
H1007 C1020 0.960 . S
C1008 H1000 0.929 . S
C1008 C1009 1.377 . S
C1008 C1010 1.384 . S
C1009 C1008 1.377 . S
C1009 C1015 1.390 1_565 S
C1010 H1001 0.930 . S
C1010 C1008 1.384 . S
C1010 C1011 1.372 1_565 S
C1011 C1010 1.372 1_545 S
C1011 C1012 1.400 . S
C1011 C1016 1.490 . S
C1012 H1002 0.930 . S
C1012 C1011 1.400 . S
C1012 C1015 1.386 . S
H1013 C1029 0.930 . S
H1014 C1030 0.931 . S
C1015 H1003 0.929 . S
C1015 C1009 1.390 1_545 S
C1015 C1012 1.386 . S
C1016 C1011 1.490 . S
C1016 C1018 1.395 . S
C1016 C1019 1.403 . S
H1017 C1023 0.930 . S
C1018 H1004 0.930 . S
C1018 C1016 1.395 . S
C1018 C1021 1.403 . S
C1019 C1016 1.403 . S
C1019 C1020 1.524 . S
C1019 C1023 1.400 . S
C1020 H1005 0.960 . S
C1020 H1006 0.960 . S
C1020 H1007 0.960 . S
C1020 C1019 1.524 . S
C1021 C1018 1.403 . S
C1021 C1022 1.392 . S
C1021 C1025 1.495 . S
C1022 C1021 1.392 . S
C1022 C1023 1.385 . S
C1022 C1024 1.478 . S
C1023 H1017 0.930 . S
C1023 C1019 1.400 . S
C1023 C1022 1.385 . S
C1024 C1022 1.478 . S
C1024 C1026 1.381 . S
C1024 C1030 1.383 . S
C1025 C1021 1.495 . S
C1025 H1031 0.959 . S
C1025 H1032 0.961 . S
C1025 H1033 0.960 . S
C1026 C1024 1.381 . S
C1026 C1027 1.394 . S
C1026 H1034 0.930 . S
C1027 C1026 1.394 . S
C1027 C1028 1.383 . S
C1027 H1035 0.929 . S
C1028 C1027 1.383 . S
C1028 C1029 1.377 . S
C1029 H1013 0.930 . S
C1029 C1028 1.377 . S
C1029 C1030 1.379 . S
C1030 H1014 0.931 . S
C1030 C1024 1.383 . S
C1030 C1029 1.379 . S
H1031 C1025 0.959 . S
H1032 C1025 0.961 . S
H1033 C1025 0.960 . S
H1034 C1026 0.930 . S
H1035 C1027 0.929 . S
H1036 C1044 0.929 . S
H1037 C1046 0.930 . S
H1038 C1048 0.930 . S
H1039 C1051 0.929 . S
H1040 C1054 0.930 . S
H1041 C1056 0.960 . S
H1042 C1056 0.960 . S
H1043 C1056 0.960 . S
C1044 H1036 0.929 . S
C1044 C1045 1.377 1_565 S
C1044 C1046 1.384 . S
C1045 C1044 1.377 1_545 S
C1045 C1051 1.390 . S
C1046 H1037 0.930 . S
C1046 C1044 1.384 . S
C1046 C1047 1.372 . S
C1047 C1046 1.372 . S
C1047 C1048 1.400 1_565 S
C1047 C1052 1.490 . S
C1048 H1038 0.930 . S
C1048 C1047 1.400 1_545 S
C1048 C1051 1.386 . S
H1049 C1065 0.930 . S
H1050 C1066 0.931 . S
C1051 H1039 0.929 . S
C1051 C1045 1.390 . S
C1051 C1048 1.386 . S
C1052 C1047 1.490 . S
C1052 C1054 1.395 . S
C1052 C1055 1.403 . S
H1053 C1059 0.930 . S
C1054 H1040 0.930 . S
C1054 C1052 1.395 . S
C1054 C1057 1.403 . S
C1055 C1052 1.403 . S
C1055 C1056 1.524 . S
C1055 C1059 1.400 . S
C1056 H1041 0.960 . S
C1056 H1042 0.960 . S
C1056 H1043 0.960 . S
C1056 C1055 1.524 . S
C1057 C1054 1.403 . S
C1057 C1058 1.392 . S
C1057 C1061 1.495 . S
C1058 C1057 1.392 . S
C1058 C1059 1.385 . S
C1058 C1060 1.478 . S
C1059 H1053 0.930 . S
C1059 C1055 1.400 . S
C1059 C1058 1.385 . S
C1060 C1058 1.478 . S
C1060 C1062 1.381 . S
C1060 C1066 1.383 . S
C1061 C1057 1.495 . S
C1061 H1067 0.959 . S
C1061 H1068 0.961 . S
C1061 H1069 0.960 . S
C1062 C1060 1.381 . S
C1062 C1063 1.394 . S
C1062 H1070 0.930 . S
C1063 C1062 1.394 . S
C1063 C1064 1.383 . S
C1063 H1071 0.929 . S
C1064 C1063 1.383 . S
C1064 C1065 1.377 . S
C1065 H1049 0.930 . S
C1065 C1064 1.377 . S
C1065 C1066 1.379 . S
C1066 H1050 0.931 . S
C1066 C1060 1.383 . S
C1066 C1065 1.379 . S
H1067 C1061 0.959 . S
H1068 C1061 0.961 . S
H1069 C1061 0.960 . S
H1070 C1062 0.930 . S
H1071 C1063 0.929 . S
H1072 C1080 0.929 . S
H1073 C1082 0.930 . S
H1074 C1084 0.930 . S
H1075 C1087 0.929 . S
H1076 C1090 0.930 . S
H1077 C1092 0.960 . S
H1078 C1092 0.927 1_565 S
H1079 C1092 0.960 . S
C1080 H1072 0.929 . S
C1080 C1081 1.377 . S
C1080 C1082 1.384 1_565 S
C1081 C1080 1.377 . S
C1081 C1087 1.390 . S
C1082 H1073 0.930 . S
C1082 C1080 1.384 1_545 S
C1082 C1083 1.372 . S
C1083 C1082 1.372 . S
C1083 C1084 1.400 . S
C1083 C1088 1.490 . S
C1084 H1074 0.930 . S
C1084 C1083 1.400 . S
C1084 C1087 1.386 1_545 S
H1085 C1101 0.930 . S
H1086 C1102 0.931 . S
C1087 H1075 0.929 . S
C1087 C1081 1.390 . S
C1087 C1084 1.386 1_565 S
C1088 C1083 1.490 . S
C1088 C1090 1.395 . S
C1088 C1091 1.403 . S
H1089 C1095 0.930 . S
C1090 H1076 0.930 . S
C1090 C1088 1.395 . S
C1090 C1093 1.403 . S
C1091 C1088 1.403 . S
C1091 C1092 1.524 . S
C1091 C1095 1.400 . S
C1092 H1077 0.960 . S
C1092 H1078 0.927 1_545 S
C1092 H1079 0.960 . S
C1092 C1091 1.524 . S
C1093 C1090 1.403 . S
C1093 C1094 1.392 . S
C1093 C1097 1.495 . S
C1094 C1093 1.392 . S
C1094 C1095 1.385 . S
C1094 C1096 1.478 . S
C1095 H1089 0.930 . S
C1095 C1091 1.400 . S
C1095 C1094 1.385 . S
C1096 C1094 1.478 . S
C1096 C1098 1.381 . S
C1096 C1102 1.383 . S
C1097 C1093 1.495 . S
C1097 H1103 0.959 . S
C1097 H1104 0.961 . S
C1097 H1105 0.960 . S
C1098 C1096 1.381 . S
C1098 C1099 1.394 . S
C1098 H1106 0.930 . S
C1099 C1098 1.394 . S
C1099 C1100 1.383 . S
C1099 H1107 0.929 . S
C1100 C1099 1.383 . S
C1100 C1101 1.377 . S
C1101 H1085 0.930 . S
C1101 C1100 1.377 . S
C1101 C1102 1.379 . S
C1102 H1086 0.931 . S
C1102 C1096 1.383 . S
C1102 C1101 1.379 . S
H1103 C1097 0.959 . S
H1104 C1097 0.961 . S
H1105 C1097 0.960 . S
H1106 C1098 0.930 . S
H1107 C1099 0.929 . S
H1108 C1116 0.929 . S
H1109 C1118 0.934 . S
H1110 C1120 0.930 . S
H1111 C1123 0.929 . S
H1112 C1126 0.930 . S
H1113 C1128 0.960 . S
H1114 C1128 0.960 . S
H1115 C1128 0.960 . S
C1116 H1108 0.929 . S
C1116 C1117 1.377 . S
C1116 C1118 1.384 1_545 S
C1117 C1116 1.377 . S
C1117 C1123 1.390 1_545 S
C1118 H1109 0.934 . S
C1118 C1116 1.384 1_565 S
C1118 C1119 1.372 . S
C1119 C1118 1.372 . S
C1119 C1120 1.400 . S
C1119 C1124 1.490 . S
C1120 H1110 0.930 . S
C1120 C1119 1.400 . S
C1120 C1123 1.386 . S
H1121 C1137 0.930 . S
H1122 C1138 0.931 . S
C1123 H1111 0.929 . S
C1123 C1117 1.390 1_565 S
C1123 C1120 1.386 . S
C1124 C1119 1.490 . S
C1124 C1126 1.395 . S
C1124 C1127 1.403 . S
H1125 C1131 0.930 . S
C1126 H1112 0.930 . S
C1126 C1124 1.395 . S
C1126 C1129 1.403 . S
C1127 C1124 1.403 . S
C1127 C1128 1.524 . S
C1127 C1131 1.400 . S
C1128 H1113 0.960 . S
C1128 H1114 0.960 . S
C1128 H1115 0.960 . S
C1128 C1127 1.524 . S
C1129 C1126 1.403 . S
C1129 C1130 1.392 . S
C1129 C1133 1.495 . S
C1130 C1129 1.392 . S
C1130 C1131 1.385 . S
C1130 C1132 1.478 . S
C1131 H1125 0.930 . S
C1131 C1127 1.400 . S
C1131 C1130 1.385 . S
C1132 C1130 1.478 . S
C1132 C1134 1.381 . S
C1132 C1138 1.383 . S
C1133 C1129 1.495 . S
C1133 H1139 0.959 . S
C1133 H1140 0.961 . S
C1133 H1141 0.960 . S
C1134 C1132 1.381 . S
C1134 C1135 1.394 . S
C1134 H1142 0.930 . S
C1135 C1134 1.394 . S
C1135 C1136 1.383 . S
C1135 H1143 0.929 . S
C1136 C1135 1.383 . S
C1136 C1137 1.377 . S
C1137 H1121 0.930 . S
C1137 C1136 1.377 . S
C1137 C1138 1.379 . S
C1138 H1122 0.931 . S
C1138 C1132 1.383 . S
C1138 C1137 1.379 . S
H1139 C1133 0.959 . S
H1140 C1133 0.961 . S
H1141 C1133 0.960 . S
H1142 C1134 0.930 . S
H1143 C1135 0.929 . S
H1144 C1152 0.929 . S
H1145 C1154 0.930 . S
H1146 C1156 0.930 . S
H1147 C1159 0.929 . S
H1148 C1162 0.930 . S
H1149 C1164 0.960 . S
H1150 C1164 0.960 . S
H1151 C1164 0.960 . S
C1152 H1144 0.929 . S
C1152 C1153 1.377 . S
C1152 C1154 1.384 . S
C1153 C1152 1.377 . S
C1153 C1159 1.390 . S
C1154 H1145 0.930 . S
C1154 C1152 1.384 . S
C1154 C1155 1.372 . S
C1155 C1154 1.372 . S
C1155 C1156 1.400 . S
C1155 C1160 1.490 . S
C1156 H1146 0.930 . S
C1156 C1155 1.400 . S
C1156 C1159 1.386 . S
H1157 C1173 0.930 . S
H1158 C1174 0.931 . S
C1159 H1147 0.929 . S
C1159 C1153 1.390 . S
C1159 C1156 1.386 . S
C1160 C1155 1.490 . S
C1160 C1162 1.395 . S
C1160 C1163 1.403 . S
H1161 C1167 0.930 . S
C1162 H1148 0.930 . S
C1162 C1160 1.395 . S
C1162 C1165 1.403 . S
C1163 C1160 1.403 . S
C1163 C1164 1.524 . S
C1163 C1167 1.400 . S
C1164 H1149 0.960 . S
C1164 H1150 0.960 . S
C1164 H1151 0.960 . S
C1164 C1163 1.524 . S
C1165 C1162 1.403 . S
C1165 C1166 1.392 . S
C1165 C1169 1.495 . S
C1166 C1165 1.392 . S
C1166 C1167 1.385 . S
C1166 C1168 1.478 . S
C1167 H1161 0.930 . S
C1167 C1163 1.400 . S
C1167 C1166 1.385 . S
C1168 C1166 1.478 . S
C1168 C1170 1.381 . S
C1168 C1174 1.383 . S
C1169 C1165 1.495 . S
C1169 H1175 0.959 . S
C1169 H1176 0.961 . S
C1169 H1177 0.960 . S
C1170 C1168 1.381 . S
C1170 C1171 1.394 . S
C1170 H1178 0.930 . S
C1171 C1170 1.394 . S
C1171 C1172 1.383 . S
C1171 H1179 0.929 . S
C1172 C1171 1.383 . S
C1172 C1173 1.377 . S
C1173 H1157 0.930 . S
C1173 C1172 1.377 . S
C1173 C1174 1.379 . S
C1174 H1158 0.931 . S
C1174 C1168 1.383 . S
C1174 C1173 1.379 . S
H1175 C1169 0.959 . S
H1176 C1169 0.961 . S
H1177 C1169 0.960 . S
H1178 C1170 0.930 . S
H1179 C1171 0.929 . S
H1180 C1188 0.929 . S
H1181 C1190 0.930 . S
H1182 C1192 0.930 . S
H1183 C1195 0.929 . S
H1184 C1198 0.930 . S
H1185 C1200 0.960 . S
H1186 C1200 0.960 . S
H1187 C1200 0.960 . S
C1188 H1180 0.929 . S
C1188 C1189 1.377 . S
C1188 C1190 1.384 . S
C1189 C1188 1.377 . S
C1189 C1195 1.390 . S
C1190 H1181 0.930 . S
C1190 C1188 1.384 . S
C1190 C1191 1.372 . S
C1191 C1190 1.372 . S
C1191 C1192 1.400 . S
C1191 C1196 1.490 . S
C1192 H1182 0.930 . S
C1192 C1191 1.400 . S
C1192 C1195 1.386 . S
H1193 C1209 0.930 . S
H1194 C1210 0.931 . S
C1195 H1183 0.929 . S
C1195 C1189 1.390 . S
C1195 C1192 1.386 . S
C1196 C1191 1.490 . S
C1196 C1198 1.395 . S
C1196 C1199 1.403 . S
H1197 C1203 0.930 . S
C1198 H1184 0.930 . S
C1198 C1196 1.395 . S
C1198 C1201 1.403 . S
C1199 C1196 1.403 . S
C1199 C1200 1.524 . S
C1199 C1203 1.400 . S
C1200 H1185 0.960 . S
C1200 H1186 0.960 . S
C1200 H1187 0.960 . S
C1200 C1199 1.524 . S
C1201 C1198 1.403 . S
C1201 C1202 1.392 . S
C1201 C1205 1.495 . S
C1202 C1201 1.392 . S
C1202 C1203 1.385 . S
C1202 C1204 1.478 . S
C1203 H1197 0.930 . S
C1203 C1199 1.400 . S
C1203 C1202 1.385 . S
C1204 C1202 1.478 . S
C1204 C1206 1.381 . S
C1204 C1210 1.383 . S
C1205 C1201 1.495 . S
C1205 H1211 0.959 . S
C1205 H1212 0.961 . S
C1205 H1213 0.960 . S
C1206 C1204 1.381 . S
C1206 C1207 1.394 . S
C1206 H1214 0.930 . S
C1207 C1206 1.394 . S
C1207 C1208 1.383 . S
C1207 H1215 0.929 . S
C1208 C1207 1.383 . S
C1208 C1209 1.377 . S
C1209 H1193 0.930 . S
C1209 C1208 1.377 . S
C1209 C1210 1.379 . S
C1210 H1194 0.931 . S
C1210 C1204 1.383 . S
C1210 C1209 1.379 . S
H1211 C1205 0.959 . S
H1212 C1205 0.961 . S
H1213 C1205 0.960 . S
H1214 C1206 0.930 . S
H1215 C1207 0.929 . S
H1216 C1224 0.929 . S
H1217 C1226 0.930 . S
H1218 C1228 0.930 . S
H1219 C1231 0.929 . S
H1220 C1234 0.930 . S
H1221 C1236 0.960 . S
H1222 C1236 0.960 . S
H1223 C1236 0.960 . S
C1224 H1216 0.929 . S
C1224 C1225 1.377 . S
C1224 C1226 1.384 . S
C1225 C1224 1.377 . S
C1225 C1231 1.390 . S
C1226 H1217 0.930 . S
C1226 C1224 1.384 . S
C1226 C1227 1.372 . S
C1227 C1226 1.372 . S
C1227 C1228 1.400 . S
C1227 C1232 1.490 . S
C1228 H1218 0.930 . S
C1228 C1227 1.400 . S
C1228 C1231 1.386 . S
H1229 C1245 0.930 . S
H1230 C1246 0.931 . S
C1231 H1219 0.929 . S
C1231 C1225 1.390 . S
C1231 C1228 1.386 . S
C1232 C1227 1.490 . S
C1232 C1234 1.395 . S
C1232 C1235 1.403 . S
H1233 C1239 0.930 . S
C1234 H1220 0.930 . S
C1234 C1232 1.395 . S
C1234 C1237 1.403 . S
C1235 C1232 1.403 . S
C1235 C1236 1.524 . S
C1235 C1239 1.400 . S
C1236 H1221 0.960 . S
C1236 H1222 0.960 . S
C1236 H1223 0.960 . S
C1236 C1235 1.524 . S
C1237 C1234 1.403 . S
C1237 C1238 1.392 . S
C1237 C1241 1.495 . S
C1238 C1237 1.392 . S
C1238 C1239 1.385 . S
C1238 C1240 1.478 . S
C1239 H1233 0.930 . S
C1239 C1235 1.400 . S
C1239 C1238 1.385 . S
C1240 C1238 1.478 . S
C1240 C1242 1.381 . S
C1240 C1246 1.383 . S
C1241 C1237 1.495 . S
C1241 H1247 0.959 . S
C1241 H1248 0.961 . S
C1241 H1249 0.960 . S
C1242 C1240 1.381 . S
C1242 C1243 1.394 . S
C1242 H1250 0.930 . S
C1243 C1242 1.394 . S
C1243 C1244 1.383 . S
C1243 H1251 0.929 . S
C1244 C1243 1.383 . S
C1244 C1245 1.377 . S
C1245 H1229 0.930 . S
C1245 C1244 1.377 . S
C1245 C1246 1.379 . S
C1246 H1230 0.931 . S
C1246 C1240 1.383 . S
C1246 C1245 1.379 . S
H1247 C1241 0.959 . S
H1248 C1241 0.961 . S
H1249 C1241 0.960 . S
H1250 C1242 0.930 . S
H1251 C1243 0.929 . S
H1252 C1260 0.929 . S
H1253 C1262 0.930 . S
H1254 C1264 0.930 . S
H1255 C1267 0.929 . S
H1256 C1270 0.930 . S
H1257 C1272 0.960 . S
H1258 C1272 0.960 . S
H1259 C1272 0.960 . S
C1260 H1252 0.929 . S
C1260 C1261 1.377 . S
C1260 C1262 1.384 . S
C1261 C1260 1.377 . S
C1261 C1267 1.390 . S
C1262 H1253 0.930 . S
C1262 C1260 1.384 . S
C1262 C1263 1.372 . S
C1263 C1262 1.372 . S
C1263 C1264 1.400 . S
C1263 C1268 1.490 . S
C1264 H1254 0.930 . S
C1264 C1263 1.400 . S
C1264 C1267 1.386 . S
H1265 C1281 0.930 . S
H1266 C1282 0.931 . S
C1267 H1255 0.929 . S
C1267 C1261 1.390 . S
C1267 C1264 1.386 . S
C1268 C1263 1.490 . S
C1268 C1270 1.395 . S
C1268 C1271 1.403 . S
H1269 C1275 0.930 . S
C1270 H1256 0.930 . S
C1270 C1268 1.395 . S
C1270 C1273 1.403 . S
C1271 C1268 1.403 . S
C1271 C1272 1.524 . S
C1271 C1275 1.400 . S
C1272 H1257 0.960 . S
C1272 H1258 0.960 . S
C1272 H1259 0.960 . S
C1272 C1271 1.524 . S
C1273 C1270 1.403 . S
C1273 C1274 1.392 . S
C1273 C1277 1.495 . S
C1274 C1273 1.392 . S
C1274 C1275 1.385 . S
C1274 C1276 1.478 . S
C1275 H1269 0.930 . S
C1275 C1271 1.400 . S
C1275 C1274 1.385 . S
C1276 C1274 1.478 . S
C1276 C1278 1.381 . S
C1276 C1282 1.383 . S
C1277 C1273 1.495 . S
C1277 H1283 0.959 . S
C1277 H1284 0.961 . S
C1277 H1285 0.960 . S
C1278 C1276 1.381 . S
C1278 C1279 1.394 . S
C1278 H1286 0.930 . S
C1279 C1278 1.394 . S
C1279 C1280 1.383 . S
C1279 H1287 0.929 . S
C1280 C1279 1.383 . S
C1280 C1281 1.377 . S
C1281 H1265 0.930 . S
C1281 C1280 1.377 . S
C1281 C1282 1.379 . S
C1282 H1266 0.931 . S
C1282 C1276 1.383 . S
C1282 C1281 1.379 . S
H1283 C1277 0.959 . S
H1284 C1277 0.961 . S
H1285 C1277 0.960 . S
H1286 C1278 0.930 . S
H1287 C1279 0.929 . S
H1288 C1296 0.929 . S
H1289 C1298 0.930 . S
H1290 C1300 0.930 . S
H1291 C1303 0.929 . S
H1292 C1306 0.930 . S
H1293 C1308 0.960 . S
H1294 C1308 0.960 . S
H1295 C1308 0.960 . S
C1296 H1288 0.929 . S
C1296 C1297 1.377 . S
C1296 C1298 1.384 . S
C1297 C1296 1.377 . S
C1297 C1303 1.390 . S
C1298 H1289 0.930 . S
C1298 C1296 1.384 . S
C1298 C1299 1.372 . S
C1299 C1298 1.372 . S
C1299 C1300 1.400 . S
C1299 C1304 1.490 . S
C1300 H1290 0.930 . S
C1300 C1299 1.400 . S
C1300 C1303 1.386 . S
H1301 C1317 0.930 . S
H1302 C1318 0.931 . S
C1303 H1291 0.929 . S
C1303 C1297 1.390 . S
C1303 C1300 1.386 . S
C1304 C1299 1.490 . S
C1304 C1306 1.395 . S
C1304 C1307 1.403 . S
H1305 C1311 0.930 . S
C1306 H1292 0.930 . S
C1306 C1304 1.395 . S
C1306 C1309 1.403 . S
C1307 C1304 1.403 . S
C1307 C1308 1.524 . S
C1307 C1311 1.400 . S
C1308 H1293 0.960 . S
C1308 H1294 0.960 . S
C1308 H1295 0.960 . S
C1308 C1307 1.524 . S
C1309 C1306 1.403 . S
C1309 C1310 1.392 . S
C1309 C1313 1.495 . S
C1310 C1309 1.392 . S
C1310 C1311 1.385 . S
C1310 C1312 1.478 . S
C1311 H1305 0.930 . S
C1311 C1307 1.400 . S
C1311 C1310 1.385 . S
C1312 C1310 1.478 . S
C1312 C1314 1.381 . S
C1312 C1318 1.383 . S
C1313 C1309 1.495 . S
C1313 H1319 0.959 . S
C1313 H1320 0.961 . S
C1313 H1321 0.960 . S
C1314 C1312 1.381 . S
C1314 C1315 1.394 . S
C1314 H1322 0.930 . S
C1315 C1314 1.394 . S
C1315 C1316 1.383 . S
C1315 H1323 0.929 . S
C1316 C1315 1.383 . S
C1316 C1317 1.377 . S
C1317 H1301 0.930 . S
C1317 C1316 1.377 . S
C1317 C1318 1.379 . S
C1318 H1302 0.931 . S
C1318 C1312 1.383 . S
C1318 C1317 1.379 . S
H1319 C1313 0.959 . S
H1320 C1313 0.961 . S
H1321 C1313 0.960 . S
H1322 C1314 0.930 . S
H1323 C1315 0.929 . S
H1324 C1332 0.929 . S
H1325 C1334 0.930 . S
H1326 C1336 0.930 . S
H1327 C1339 0.929 . S
H1328 C1342 0.930 . S
H1329 C1344 0.960 . S
H1330 C1344 0.960 . S
H1331 C1344 0.960 . S
C1332 H1324 0.929 . S
C1332 C1333 1.377 . S
C1332 C1334 1.384 . S
C1333 C1332 1.377 . S
C1333 C1339 1.390 . S
C1334 H1325 0.930 . S
C1334 C1332 1.384 . S
C1334 C1335 1.372 . S
C1335 C1334 1.372 . S
C1335 C1336 1.400 . S
C1335 C1340 1.490 . S
C1336 H1326 0.930 . S
C1336 C1335 1.400 . S
C1336 C1339 1.386 . S
H1337 C1353 0.930 . S
H1338 C1354 0.931 . S
C1339 H1327 0.929 . S
C1339 C1333 1.390 . S
C1339 C1336 1.386 . S
C1340 C1335 1.490 . S
C1340 C1342 1.395 . S
C1340 C1343 1.403 . S
H1341 C1347 0.930 . S
C1342 H1328 0.930 . S
C1342 C1340 1.395 . S
C1342 C1345 1.403 . S
C1343 C1340 1.403 . S
C1343 C1344 1.524 . S
C1343 C1347 1.400 . S
C1344 H1329 0.960 . S
C1344 H1330 0.960 . S
C1344 H1331 0.960 . S
C1344 C1343 1.524 . S
C1345 C1342 1.403 . S
C1345 C1346 1.392 . S
C1345 C1349 1.495 . S
C1346 C1345 1.392 . S
C1346 C1347 1.385 . S
C1346 C1348 1.478 . S
C1347 H1341 0.930 . S
C1347 C1343 1.400 . S
C1347 C1346 1.385 . S
C1348 C1346 1.478 . S
C1348 C1350 1.381 . S
C1348 C1354 1.383 . S
C1349 C1345 1.495 . S
C1349 H1355 0.959 . S
C1349 H1356 0.961 . S
C1349 H1357 0.960 . S
C1350 C1348 1.381 . S
C1350 C1351 1.394 . S
C1350 H1358 0.930 . S
C1351 C1350 1.394 . S
C1351 C1352 1.383 . S
C1351 H1359 0.929 . S
C1352 C1351 1.383 . S
C1352 C1353 1.377 . S
C1353 H1337 0.930 . S
C1353 C1352 1.377 . S
C1353 C1354 1.379 . S
C1354 H1338 0.931 . S
C1354 C1348 1.383 . S
C1354 C1353 1.379 . S
H1355 C1349 0.959 . S
H1356 C1349 0.961 . S
H1357 C1349 0.960 . S
H1358 C1350 0.930 . S
H1359 C1351 0.929 . S
H1360 C1368 0.929 . S
H1361 C1370 0.930 . S
H1362 C1372 0.930 . S
H1363 C1375 0.929 . S
H1364 C1378 0.930 . S
H1365 C1380 0.960 . S
H1366 C1380 0.960 . S
H1367 C1380 0.960 . S
C1368 H1360 0.929 . S
C1368 C1369 1.377 . S
C1368 C1370 1.384 . S
C1369 C1368 1.377 . S
C1369 C1375 1.390 . S
C1370 H1361 0.930 . S
C1370 C1368 1.384 . S
C1370 C1371 1.372 . S
C1371 C1370 1.372 . S
C1371 C1372 1.400 . S
C1371 C1376 1.490 . S
C1372 H1362 0.930 . S
C1372 C1371 1.400 . S
C1372 C1375 1.386 . S
H1373 C1389 0.930 . S
H1374 C1390 0.931 . S
C1375 H1363 0.929 . S
C1375 C1369 1.390 . S
C1375 C1372 1.386 . S
C1376 C1371 1.490 . S
C1376 C1378 1.395 . S
C1376 C1379 1.403 . S
H1377 C1383 0.930 . S
C1378 H1364 0.930 . S
C1378 C1376 1.395 . S
C1378 C1381 1.403 . S
C1379 C1376 1.403 . S
C1379 C1380 1.524 . S
C1379 C1383 1.400 . S
C1380 H1365 0.960 . S
C1380 H1366 0.960 . S
C1380 H1367 0.960 . S
C1380 C1379 1.524 . S
C1381 C1378 1.403 . S
C1381 C1382 1.392 . S
C1381 C1385 1.495 . S
C1382 C1381 1.392 . S
C1382 C1383 1.385 . S
C1382 C1384 1.478 . S
C1383 H1377 0.930 . S
C1383 C1379 1.400 . S
C1383 C1382 1.385 . S
C1384 C1382 1.478 . S
C1384 C1386 1.381 . S
C1384 C1390 1.383 . S
C1385 C1381 1.495 . S
C1385 H1391 0.959 . S
C1385 H1392 0.961 . S
C1385 H1393 0.960 . S
C1386 C1384 1.381 . S
C1386 C1387 1.394 . S
C1386 H1394 0.930 . S
C1387 C1386 1.394 . S
C1387 C1388 1.383 . S
C1387 H1395 0.929 . S
C1388 C1387 1.383 . S
C1388 C1389 1.377 . S
C1389 H1373 0.930 . S
C1389 C1388 1.377 . S
C1389 C1390 1.379 . S
C1390 H1374 0.931 . S
C1390 C1384 1.383 . S
C1390 C1389 1.379 . S
H1391 C1385 0.959 . S
H1392 C1385 0.961 . S
H1393 C1385 0.960 . S
H1394 C1386 0.930 . S
H1395 C1387 0.929 . S
H1396 C1404 0.929 . S
H1397 C1406 0.930 . S
H1398 C1408 0.930 . S
H1399 C1411 0.929 . S
H1400 C1414 0.930 . S
H1401 C1416 0.960 . S
H1402 C1416 0.960 . S
H1403 C1416 0.960 . S
C1404 H1396 0.929 . S
C1404 C1405 1.377 . S
C1404 C1406 1.384 . S
C1405 C1404 1.377 . S
C1405 C1411 1.390 . S
C1406 H1397 0.930 . S
C1406 C1404 1.384 . S
C1406 C1407 1.372 . S
C1407 C1406 1.372 . S
C1407 C1408 1.400 . S
C1407 C1412 1.490 . S
C1408 H1398 0.930 . S
C1408 C1407 1.400 . S
C1408 C1411 1.386 . S
H1409 C1425 0.930 . S
H1410 C1426 0.931 . S
C1411 H1399 0.929 . S
C1411 C1405 1.390 . S
C1411 C1408 1.386 . S
C1412 C1407 1.490 . S
C1412 C1414 1.395 . S
C1412 C1415 1.403 . S
H1413 C1419 0.930 . S
C1414 H1400 0.930 . S
C1414 C1412 1.395 . S
C1414 C1417 1.403 . S
C1415 C1412 1.403 . S
C1415 C1416 1.524 . S
C1415 C1419 1.400 . S
C1416 H1401 0.960 . S
C1416 H1402 0.960 . S
C1416 H1403 0.960 . S
C1416 C1415 1.524 . S
C1417 C1414 1.403 . S
C1417 C1418 1.392 . S
C1417 C1421 1.495 . S
C1418 C1417 1.392 . S
C1418 C1419 1.385 . S
C1418 C1420 1.478 . S
C1419 H1413 0.930 . S
C1419 C1415 1.400 . S
C1419 C1418 1.385 . S
C1420 C1418 1.478 . S
C1420 C1422 1.381 . S
C1420 C1426 1.383 . S
C1421 C1417 1.495 . S
C1421 H1427 0.959 . S
C1421 H1428 0.961 . S
C1421 H1429 0.960 . S
C1422 C1420 1.381 . S
C1422 C1423 1.394 . S
C1422 H1430 0.930 . S
C1423 C1422 1.394 . S
C1423 C1424 1.383 . S
C1423 H1431 0.929 . S
C1424 C1423 1.383 . S
C1424 C1425 1.377 . S
C1425 H1409 0.930 . S
C1425 C1424 1.377 . S
C1425 C1426 1.379 . S
C1426 H1410 0.931 . S
C1426 C1420 1.383 . S
C1426 C1425 1.379 . S
H1427 C1421 0.959 . S
H1428 C1421 0.961 . S
H1429 C1421 0.960 . S
H1430 C1422 0.930 . S
H1431 C1423 0.929 . S
C577 C31 1.505 . S
C596 C523 1.519 . S
C632 C487 1.536 . S
C613 C61 1.508 . S
C668 C510 1.517 . S
C649 C151 1.479 . S
C704 C498 1.518 . S
C685 C181 1.510 . S
C740 C567 1.541 . S
C721 C271 1.510 . S
C776 C531 1.515 . S
C757 C301 1.502 . S
C793 C391 1.468 . S
C812 C554 1.505 . S
C848 C542 1.500 . S
C829 C421 1.514 . S
C865 C20 1.470 . S
C884 C564 1.501 . S
C920 C534 1.494 . S
C901 C91 1.472 . S
C937 C121 1.459 . S
C956 C553 1.516 . S
C973 C211 1.539 . S
C992 C539 1.530 . S
C1028 C520 1.497 . S
C1009 C260 1.470 . S
C1045 C331 1.477 . S
C1064 C490 1.493 . S
C1100 C509 1.528 . S
C1081 C361 1.451 . S
C1136 C495 1.517 . S
C1117 C451 1.538 . S
C1172 C545 1.508 . S
C1153 C1 1.429 . S
C1208 C561 1.508 . S
C1189 C80 1.434 . S
C1225 C140 1.439 . S
C1244 C532 1.457 . S
C1280 C556 1.459 . S
C1261 C200 1.421 . S
C1316 C501 1.506 . S
C1297 C241 1.435 . S
C1333 C320 1.439 . S
C1352 C517 1.488 . S
C1369 C380 1.433 . S
C1388 C488 1.468 . S
C1405 C440 1.429 . S
C1424 C512 1.459 . S
