# Generated by pormake.
# Topology apo, (3,6)-cn, num edge types: 1
# Building blocks:
#     Node 0, Type 0, BuildingBlock: ESEHIV_clean_linker_0, # of connection points: 3
#     Node 1, Type 0, BuildingBlock: ESEHIV_clean_linker_0, # of connection points: 3
#     Node 2, Type 0, BuildingBlock: ESEHIV_clean_linker_0, # of connection points: 3
#     Node 3, Type 0, BuildingBlock: ESEHIV_clean_linker_0, # of connection points: 3
#     Node 4, Type 0, BuildingBlock: ESEHIV_clean_linker_0, # of connection points: 3
#     Node 5, Type 0, BuildingBlock: ESEHIV_clean_linker_0, # of connection points: 3
#     Node 6, Type 0, BuildingBlock: ESEHIV_clean_linker_0, # of connection points: 3
#     Node 7, Type 0, BuildingBlock: ESEHIV_clean_linker_0, # of connection points: 3
#     Node 8, Type 1, BuildingBlock: KUMJIN_clean_sbu_1, # of connection points: 6
#     Node 9, Type 1, BuildingBlock: KUMJIN_clean_sbu_1, # of connection points: 6
#     Node 10, Type 1, BuildingBlock: KUMJIN_clean_sbu_1, # of connection points: 6
#     Node 11, Type 1, BuildingBlock: KUMJIN_clean_sbu_1, # of connection points: 6
#     Edge 12, Type (0, 1), BuildingBlock: MIFKUJ_clean_linker_0, # of connection points: 2
#     Edge 13, Type (0, 1), BuildingBlock: MIFKUJ_clean_linker_0, # of connection points: 2
#     Edge 14, Type (0, 1), BuildingBlock: MIFKUJ_clean_linker_0, # of connection points: 2
#     Edge 15, Type (0, 1), BuildingBlock: MIFKUJ_clean_linker_0, # of connection points: 2
#     Edge 16, Type (0, 1), BuildingBlock: MIFKUJ_clean_linker_0, # of connection points: 2
#     Edge 17, Type (0, 1), BuildingBlock: MIFKUJ_clean_linker_0, # of connection points: 2
#     Edge 18, Type (0, 1), BuildingBlock: MIFKUJ_clean_linker_0, # of connection points: 2
#     Edge 19, Type (0, 1), BuildingBlock: MIFKUJ_clean_linker_0, # of connection points: 2
#     Edge 20, Type (0, 1), BuildingBlock: MIFKUJ_clean_linker_0, # of connection points: 2
#     Edge 21, Type (0, 1), BuildingBlock: MIFKUJ_clean_linker_0, # of connection points: 2
#     Edge 22, Type (0, 1), BuildingBlock: MIFKUJ_clean_linker_0, # of connection points: 2
#     Edge 23, Type (0, 1), BuildingBlock: MIFKUJ_clean_linker_0, # of connection points: 2
#     Edge 24, Type (0, 1), BuildingBlock: MIFKUJ_clean_linker_0, # of connection points: 2
#     Edge 25, Type (0, 1), BuildingBlock: MIFKUJ_clean_linker_0, # of connection points: 2
#     Edge 26, Type (0, 1), BuildingBlock: MIFKUJ_clean_linker_0, # of connection points: 2
#     Edge 27, Type (0, 1), BuildingBlock: MIFKUJ_clean_linker_0, # of connection points: 2
#     Edge 28, Type (0, 1), BuildingBlock: MIFKUJ_clean_linker_0, # of connection points: 2
#     Edge 29, Type (0, 1), BuildingBlock: MIFKUJ_clean_linker_0, # of connection points: 2
#     Edge 30, Type (0, 1), BuildingBlock: MIFKUJ_clean_linker_0, # of connection points: 2
#     Edge 31, Type (0, 1), BuildingBlock: MIFKUJ_clean_linker_0, # of connection points: 2
#     Edge 32, Type (0, 1), BuildingBlock: MIFKUJ_clean_linker_0, # of connection points: 2
#     Edge 33, Type (0, 1), BuildingBlock: MIFKUJ_clean_linker_0, # of connection points: 2
#     Edge 34, Type (0, 1), BuildingBlock: MIFKUJ_clean_linker_0, # of connection points: 2
#     Edge 35, Type (0, 1), BuildingBlock: MIFKUJ_clean_linker_0, # of connection points: 2
# Relax obj value: 0.009
# Max RMSD: 0.097
# Mean RMSD: 0.076
data_MOF--net-apo--node1-KUMJIN_clean_sbu_1--node2-ESEHIV_clean_linker_0--edge1-MIFKUJ_clean_linker_0
_symmetry_space_group_name_H-M    P1
_symmetry_Int_Tables_number       1
_symmetry_cell_setting            triclinic
loop_
_symmetry_equiv_pos_as_xyz
'x, y, z'
_cell_length_a     29.44927
_cell_length_b     53.382113
_cell_length_c     64.861276
_cell_angle_alpha  90.028057
_cell_angle_beta   89.956795
_cell_angle_gamma 90.383458
loop_
_atom_site_label
_atom_site_type_symbol
_atom_site_fract_x
_atom_site_fract_y
_atom_site_fract_z
_atom_type_partial_charge
H0 H 0.31782 0.41463 0.42888 0.0
H1 H 0.25595 0.38524 0.37399 0.0
H2 H 0.24917 0.34291 0.4303 0.0
C3 C 0.29862 0.39989 0.42129 0.0
C4 C 0.28467 0.37852 0.43241 0.0
C5 C 0.28794 0.40245 0.40035 0.0
C6 C 0.26328 0.38353 0.39031 0.0
C7 C 0.24897 0.36214 0.40113 0.0
C8 C 0.25925 0.35981 0.42218 0.0
H9 H 0.19096 0.08065 0.92992 0.0
H10 H 0.24477 0.11067 0.87377 0.0
H11 H 0.26593 0.14982 0.93133 0.0
C12 C 0.21078 0.09488 0.92199 0.0
C13 C 0.22706 0.11574 0.93294 0.0
C14 C 0.21751 0.09297 0.90069 0.0
C15 C 0.24122 0.11207 0.89032 0.0
C16 C 0.25966 0.13277 0.90103 0.0
C17 C 0.25214 0.13434 0.92251 0.0
H18 H 0.81494 0.08315 0.58135 0.0
H19 H 0.75609 0.11415 0.63639 0.0
H20 H 0.75038 0.15525 0.57954 0.0
C21 C 0.79659 0.098 0.58904 0.0
C22 C 0.78357 0.11923 0.57778 0.0
C23 C 0.78722 0.09598 0.6102 0.0
C24 C 0.76306 0.11522 0.62 0.0
C25 C 0.74982 0.13657 0.60901 0.0
C26 C 0.76056 0.13868 0.58797 0.0
H27 H 0.69583 0.41673 0.08217 0.0
H28 H 0.75199 0.38368 0.13633 0.0
H29 H 0.74794 0.3413 0.07999 0.0
C30 C 0.71158 0.40078 0.08947 0.0
C31 C 0.72062 0.3789 0.07804 0.0
C32 C 0.72123 0.40214 0.11058 0.0
C33 C 0.74305 0.3821 0.12017 0.0
C34 C 0.75337 0.36017 0.10924 0.0
C35 C 0.74184 0.35862 0.08817 0.0
H36 H 0.69362 0.58146 0.58017 0.0
H37 H 0.76626 0.65158 0.57957 0.0
H38 H 0.75808 0.60812 0.63514 0.0
C39 C 0.71398 0.59547 0.58793 0.0
C40 C 0.72428 0.59209 0.60887 0.0
C41 C 0.72915 0.61674 0.577 0.0
C42 C 0.75473 0.63503 0.58763 0.0
C43 C 0.7649 0.63233 0.60873 0.0
C44 C 0.75012 0.61054 0.61901 0.0
H45 H 0.81925 0.91409 0.08021 0.0
H46 H 0.74387 0.89186 0.13354 0.0
H47 H 0.75378 0.84203 0.08118 0.0
C48 C 0.79856 0.9002 0.08808 0.0
C49 C 0.78632 0.87789 0.078 0.0
C50 C 0.7838 0.90495 0.1082 0.0
C51 C 0.75587 0.88744 0.11821 0.0
C52 C 0.74528 0.86417 0.10902 0.0
C53 C 0.76041 0.8598 0.08865 0.0
H54 H 0.19235 0.91504 0.428 0.0
H55 H 0.2529 0.84164 0.43054 0.0
H56 H 0.25381 0.8834 0.37401 0.0
C57 C 0.21015 0.89972 0.4207 0.0
C58 C 0.22085 0.90148 0.39965 0.0
C59 C 0.22139 0.87823 0.4322 0.0
C60 C 0.24459 0.85858 0.4222 0.0
C61 C 0.25708 0.86061 0.40134 0.0
C62 C 0.24498 0.88204 0.39021 0.0
H63 H 0.32777 0.58526 0.9281 0.0
H64 H 0.26061 0.61151 0.87373 0.0
H65 H 0.24887 0.65262 0.93087 0.0
C66 C 0.30641 0.59896 0.92056 0.0
C67 C 0.28975 0.61936 0.93178 0.0
C68 C 0.29462 0.59577 0.89982 0.0
C69 C 0.26743 0.61363 0.89006 0.0
C70 C 0.25107 0.63459 0.9009 0.0
C71 C 0.26175 0.63698 0.92202 0.0
Eu72 Eu 0.05416 0.13276 0.23572 0.0
C73 C 0.85089 0.1142 0.26315 0.0
N74 N 0.87286 0.13667 0.26282 0.0
C75 C 0.80713 0.15635 0.24852 0.0
C76 C 0.80603 0.11192 0.25574 0.0
C77 C 0.85172 0.15765 0.25582 0.0
C78 C 0.78419 0.13337 0.24842 0.0
C79 C 0.8525 0.06953 0.27005 0.0
C80 C 0.87404 0.09323 0.27019 0.0
C81 C 0.80786 0.06721 0.26265 0.0
C82 C 0.78467 0.08833 0.25556 0.0
Eu83 Eu 0.94781 0.13731 0.27555 0.0
N84 N 0.9177 0.09594 0.27688 0.0
C85 C 0.87639 0.04886 0.27746 0.0
C86 C 0.93975 0.07613 0.28543 0.0
C87 C 0.91998 0.05224 0.28543 0.0
H88 H 0.86897 0.17549 0.25626 0.0
H89 H 0.9381 0.03653 0.29191 0.0
H90 H 0.12546 0.08986 0.25476 0.0
H91 H 0.08306 0.23166 0.21766 0.0
H92 H 0.97184 0.07864 0.29291 0.0
H93 H 0.86108 0.03034 0.27756 0.0
H94 H 0.0389 0.19259 0.2202 0.0
H95 H 0.79046 0.17307 0.24301 0.0
H96 H 0.7909 0.04913 0.26239 0.0
H97 H 0.75026 0.08622 0.24988 0.0
H98 H 0.20469 0.08781 0.26712 0.0
H99 H 0.74971 0.13239 0.24265 0.0
H100 H 0.16365 0.2324 0.22825 0.0
N101 N 0.1294 0.12859 0.24737 0.0
C102 C 0.15596 0.14947 0.24622 0.0
C103 C 0.1914 0.10522 0.26124 0.0
C104 C 0.20165 0.14896 0.25268 0.0
C105 C 0.1464 0.10654 0.25449 0.0
C106 C 0.21918 0.12649 0.26031 0.0
N107 N 0.09254 0.17169 0.23343 0.0
C108 C 0.07331 0.19278 0.22558 0.0
C109 C 0.1639 0.19351 0.23753 0.0
C110 C 0.13717 0.17155 0.23886 0.0
C111 C 0.14402 0.21532 0.22987 0.0
C112 C 0.09855 0.21495 0.22386 0.0
H113 H 0.25406 0.12537 0.2655 0.0
H114 H 0.26342 0.17081 0.25637 0.0
H115 H 0.23041 0.20978 0.24304 0.0
O116 O 0.05156 0.13641 0.20201 0.0
O117 O 0.06725 0.15484 0.26534 0.0
O118 O 0.99666 0.17009 0.27362 0.0
O119 O 0.09155 0.10718 0.21601 0.0
O120 O 0.99125 0.15369 0.22512 0.0
O121 O 0.95581 0.17054 0.25392 0.0
O122 O 0.9437 0.13306 0.30948 0.0
O123 O 0.93504 0.11913 0.24425 0.0
O124 O 0.00394 0.10134 0.24014 0.0
O125 O 0.90299 0.16104 0.29345 0.0
O126 O 0.01347 0.1192 0.28713 0.0
O127 O 0.04221 0.10087 0.25785 0.0
C128 C 0.04091 0.16993 0.27598 0.0
C129 C 0.11682 0.12253 0.18379 0.0
C130 C 0.14218 0.12352 0.14798 0.0
C131 C 0.18728 0.12575 0.15477 0.0
C132 C 0.16216 0.12512 0.19026 0.0
C133 C 0.1971 0.12675 0.17578 0.0
C134 C 0.10687 0.12213 0.16255 0.0
C135 C 0.96438 0.17023 0.23392 0.0
C136 C 0.08023 0.11828 0.19892 0.0
C137 C 0.22826 0.17085 0.25146 0.0
C138 C 0.20946 0.19304 0.24387 0.0
C139 C 0.96137 0.10308 0.23488 0.0
C140 C 0.89305 0.15932 0.33048 0.0
C141 C 0.88479 0.15751 0.36792 0.0
C142 C 0.85426 0.17759 0.36698 0.0
C143 C 0.8622 0.17932 0.33001 0.0
C144 C 0.90395 0.14818 0.34957 0.0
C145 C 0.84294 0.18831 0.34814 0.0
C146 C 0.04084 0.10321 0.27799 0.0
C147 C 0.91362 0.15079 0.31092 0.0
H148 H 0.21491 0.12673 0.14375 0.0
H149 H 0.17074 0.12538 0.20647 0.0
H150 H 0.23198 0.12844 0.18088 0.0
H151 H 0.07206 0.1199 0.15739 0.0
H152 H 0.83881 0.18486 0.3809 0.0
H153 H 0.85298 0.18817 0.3156 0.0
H154 H 0.92756 0.13271 0.35023 0.0
H155 H 0.81923 0.2037 0.3476 0.0
Eu156 Eu 0.45276 0.36197 0.73642 0.0
C157 C 0.66016 0.37494 0.76276 0.0
N158 N 0.63373 0.35412 0.76053 0.0
C159 C 0.69354 0.33343 0.74231 0.0
C160 C 0.70422 0.37598 0.75426 0.0
C161 C 0.65015 0.33323 0.75106 0.0
C162 C 0.72056 0.35496 0.74375 0.0
C163 C 0.66967 0.41716 0.77615 0.0
C164 C 0.64283 0.39541 0.77342 0.0
C165 C 0.71341 0.41831 0.76753 0.0
C166 C 0.73056 0.39783 0.75656 0.0
Eu167 Eu 0.56113 0.35589 0.77583 0.0
N168 N 0.59961 0.39423 0.78084 0.0
C169 C 0.6516 0.43715 0.78738 0.0
C170 C 0.58322 0.41285 0.79304 0.0
C171 C 0.60843 0.43482 0.79612 0.0
H172 H 0.6303 0.3162 0.75067 0.0
H173 H 0.59484 0.44978 0.80551 0.0
H174 H 0.37803 0.40129 0.75755 0.0
H175 H 0.43321 0.26328 0.71493 0.0
H176 H 0.55139 0.41048 0.80098 0.0
H177 H 0.67107 0.4542 0.78979 0.0
H178 H 0.47121 0.30439 0.7162 0.0
H179 H 0.70629 0.31688 0.73465 0.0
H180 H 0.73431 0.43496 0.7693 0.0
H181 H 0.76438 0.39901 0.75003 0.0
H182 H 0.30008 0.39995 0.77173 0.0
H183 H 0.75422 0.35503 0.73698 0.0
H184 H 0.35671 0.25793 0.73016 0.0
N185 N 0.37865 0.36258 0.74999 0.0
C186 C 0.35517 0.34059 0.7494 0.0
C187 C 0.31522 0.38312 0.76556 0.0
C188 C 0.3105 0.33902 0.75714 0.0
C189 C 0.3594 0.38378 0.75768 0.0
C190 C 0.29068 0.36062 0.76535 0.0
N191 N 0.4195 0.3216 0.73396 0.0
C192 C 0.4392 0.30205 0.72391 0.0
C193 C 0.35247 0.2965 0.7403 0.0
C194 C 0.37618 0.31952 0.74122 0.0
C195 C 0.37382 0.27592 0.7312 0.0
C196 C 0.4171 0.27883 0.7227 0.0
H197 H 0.25644 0.36016 0.77148 0.0
H198 H 0.25265 0.31448 0.76222 0.0
H199 H 0.28937 0.27728 0.74755 0.0
O200 O 0.45044 0.3594 0.70225 0.0
O201 O 0.44059 0.34354 0.76769 0.0
O202 O 0.50906 0.32474 0.77361 0.0
O203 O 0.40878 0.38646 0.71891 0.0
O204 O 0.51696 0.34257 0.72511 0.0
O205 O 0.5459 0.32358 0.75421 0.0
O206 O 0.56356 0.35664 0.81003 0.0
O207 O 0.57299 0.37808 0.7461 0.0
O208 O 0.50249 0.39389 0.73893 0.0
O209 O 0.60781 0.3319 0.79231 0.0
O210 O 0.49974 0.37813 0.7872 0.0
O211 O 0.46444 0.39465 0.7581 0.0
C212 C 0.46577 0.32729 0.77752 0.0
C213 C 0.40203 0.3876 0.68176 0.0
C214 C 0.38921 0.38589 0.64457 0.0
C215 C 0.36735 0.40912 0.64561 0.0
C216 C 0.37976 0.41083 0.68233 0.0
C217 C 0.36263 0.42146 0.66437 0.0
C218 C 0.40671 0.37505 0.6627 0.0
C219 C 0.54265 0.3257 0.73408 0.0
C220 C 0.42092 0.37744 0.70115 0.0
C221 C 0.28709 0.31604 0.75644 0.0
C222 C 0.30803 0.29484 0.7481 0.0
C223 C 0.54614 0.39284 0.73547 0.0
C224 C 0.61783 0.33055 0.82936 0.0
C225 C 0.63124 0.33146 0.86664 0.0
C226 C 0.66406 0.31267 0.86415 0.0
C227 C 0.65067 0.31168 0.8275 0.0
C228 C 0.60831 0.34058 0.84907 0.0
C229 C 0.67358 0.3029 0.84476 0.0
C230 C 0.47205 0.39407 0.77812 0.0
C231 C 0.5963 0.3403 0.81038 0.0
H232 H 0.35363 0.41764 0.63181 0.0
H233 H 0.37588 0.42098 0.69668 0.0
H234 H 0.34564 0.43937 0.665 0.0
H235 H 0.42363 0.3571 0.66194 0.0
H236 H 0.68305 0.30576 0.87724 0.0
H237 H 0.6592 0.30382 0.8126 0.0
H238 H 0.58341 0.3553 0.85073 0.0
H239 H 0.69915 0.28857 0.84308 0.0
Eu240 Eu 0.0635 0.85906 0.73456 0.0
C241 C 0.85694 0.83828 0.76141 0.0
N242 N 0.8804 0.86026 0.76255 0.0
C243 C 0.81338 0.8831 0.75372 0.0
C244 C 0.81074 0.83793 0.75566 0.0
C245 C 0.85859 0.88251 0.76021 0.0
C246 C 0.78954 0.86064 0.75104 0.0
C247 C 0.85262 0.79385 0.76939 0.0
C248 C 0.87761 0.81646 0.76823 0.0
C249 C 0.80733 0.79323 0.76268 0.0
C250 C 0.78638 0.81525 0.75601 0.0
Eu251 Eu 0.95616 0.85752 0.77405 0.0
N252 N 0.92119 0.81769 0.77513 0.0
C253 C 0.8732 0.77286 0.77823 0.0
C254 C 0.94015 0.79786 0.78518 0.0
C255 C 0.91689 0.775 0.78647 0.0
H256 H 0.87549 0.89969 0.76447 0.0
H257 H 0.93242 0.75916 0.79405 0.0
H258 H 0.13536 0.81755 0.75575 0.0
H259 H 0.08489 0.96003 0.72152 0.0
H260 H 0.97321 0.79973 0.79217 0.0
H261 H 0.85505 0.7552 0.77947 0.0
H262 H 0.04337 0.92023 0.7221 0.0
H263 H 0.7965 0.90084 0.75151 0.0
H264 H 0.78762 0.77604 0.76341 0.0
H265 H 0.75069 0.8148 0.75207 0.0
H266 H 0.21289 0.81703 0.76974 0.0
H267 H 0.75412 0.86113 0.74655 0.0
H268 H 0.16465 0.96187 0.73324 0.0
N269 N 0.13546 0.85686 0.75023 0.0
C270 C 0.16061 0.87831 0.74972 0.0
C271 C 0.19845 0.83444 0.76439 0.0
C272 C 0.20594 0.87857 0.75678 0.0
C273 C 0.15403 0.83493 0.75686 0.0
C274 C 0.22451 0.85636 0.7644 0.0
N275 N 0.09759 0.89937 0.73496 0.0
C276 C 0.07746 0.92057 0.72772 0.0
C277 C 0.1668 0.92252 0.74123 0.0
C278 C 0.14123 0.90008 0.74189 0.0
C279 C 0.14616 0.94427 0.73387 0.0
C280 C 0.10118 0.94331 0.72726 0.0
H281 H 0.25919 0.85583 0.76995 0.0
H282 H 0.2667 0.90118 0.76066 0.0
H283 H 0.23258 0.93951 0.74667 0.0
O284 O 0.09239 0.86699 0.70402 0.0
O285 O 0.06815 0.8772 0.7662 0.0
O286 O 0.99688 0.89344 0.77105 0.0
O287 O 0.09784 0.82991 0.71713 0.0
O288 O 0.00267 0.88103 0.72322 0.0
O289 O 0.95209 0.88948 0.75033 0.0
O290 O 0.97359 0.85841 0.80702 0.0
O291 O 0.96492 0.82563 0.75117 0.0
O292 O 0.99512 0.84557 0.7231 0.0
O293 O 0.9052 0.86617 0.79725 0.0
O294 O 0.02356 0.8411 0.78353 0.0
O295 O 0.0535 0.82399 0.75392 0.0
C296 C 0.04107 0.89446 0.77363 0.0
C297 C 0.09634 0.83273 0.68044 0.0
C298 C 0.10454 0.83425 0.64292 0.0
C299 C 0.08779 0.80964 0.64166 0.0
C300 C 0.07909 0.80816 0.67872 0.0
C301 C 0.07491 0.79676 0.65944 0.0
C302 C 0.10876 0.84581 0.66235 0.0
C303 C 0.96794 0.8932 0.73135 0.0
C304 C 0.1051 0.84395 0.70099 0.0
C305 C 0.23164 0.90075 0.7556 0.0
C306 C 0.2122 0.92259 0.74773 0.0
C307 C 0.97094 0.82741 0.73118 0.0
C308 C 0.92604 0.88118 0.82998 0.0
C309 C 0.90867 0.88746 0.86631 0.0
C310 C 0.90581 0.91335 0.8628 0.0
C311 C 0.92305 0.90708 0.82663 0.0
C312 C 0.91876 0.87141 0.84983 0.0
C313 C 0.9129 0.92307 0.84304 0.0
C314 C 0.04728 0.82387 0.77402 0.0
C315 C 0.93243 0.86373 0.8128 0.0
H316 H 0.08493 0.80034 0.62685 0.0
H317 H 0.06951 0.79751 0.69227 0.0
H318 H 0.06215 0.77775 0.65831 0.0
H319 H 0.12276 0.8646 0.66339 0.0
H320 H 0.89775 0.92598 0.87534 0.0
H321 H 0.9278 0.9148 0.81133 0.0
H322 H 0.9205 0.85137 0.85243 0.0
H323 H 0.91017 0.94303 0.84042 0.0
Eu324 Eu 0.45295 0.63718 0.23372 0.0
C325 C 0.65081 0.65728 0.2564 0.0
N326 N 0.62677 0.63538 0.25728 0.0
C327 C 0.68764 0.61401 0.24024 0.0
C328 C 0.69366 0.65842 0.24665 0.0
C329 C 0.64594 0.61363 0.2505 0.0
C330 C 0.71131 0.63655 0.23799 0.0
C331 C 0.65971 0.70068 0.26723 0.0
C332 C 0.63411 0.67829 0.26652 0.0
C333 C 0.70154 0.70206 0.25689 0.0
C334 C 0.71838 0.68102 0.24657 0.0
Eu335 Eu 0.55631 0.63758 0.27502 0.0
N336 N 0.59322 0.67665 0.27617 0.0
C337 C 0.64292 0.72085 0.27871 0.0
C338 C 0.57782 0.69565 0.28831 0.0
C339 C 0.60205 0.71821 0.2895 0.0
H340 H 0.63019 0.59572 0.25347 0.0
H341 H 0.58942 0.73345 0.29885 0.0
H342 H 0.37748 0.67801 0.25293 0.0
H343 H 0.4313 0.5385 0.21265 0.0
H344 H 0.54683 0.69326 0.29703 0.0
H345 H 0.66172 0.73833 0.27972 0.0
H346 H 0.47234 0.57853 0.21548 0.0
H347 H 0.702 0.5968 0.23455 0.0
H348 H 0.72157 0.71916 0.25715 0.0
H349 H 0.75124 0.68221 0.23909 0.0
H350 H 0.29878 0.67767 0.26571 0.0
H351 H 0.74406 0.63664 0.23036 0.0
H352 H 0.35189 0.53515 0.22467 0.0
N353 N 0.37868 0.63882 0.2469 0.0
C354 C 0.35419 0.61722 0.24561 0.0
C355 C 0.31408 0.66049 0.26032 0.0
C356 C 0.30847 0.6164 0.25213 0.0
C357 C 0.35901 0.6605 0.2534 0.0
C358 C 0.28876 0.6383 0.25983 0.0
N359 N 0.41859 0.59724 0.23092 0.0
C360 C 0.43872 0.57711 0.22184 0.0
C361 C 0.34937 0.5735 0.23545 0.0
C362 C 0.37462 0.59591 0.23743 0.0
C363 C 0.37031 0.5526 0.22666 0.0
C364 C 0.41516 0.55442 0.21985 0.0
H365 H 0.25375 0.63841 0.26498 0.0
H366 H 0.24829 0.59312 0.25505 0.0
H367 H 0.28362 0.55596 0.23982 0.0
O368 O 0.42779 0.63094 0.20231 0.0
O369 O 0.4415 0.61896 0.26523 0.0
O370 O 0.5115 0.60296 0.27369 0.0
O371 O 0.42757 0.66877 0.21558 0.0
O372 O 0.51646 0.61615 0.22422 0.0
O373 O 0.5513 0.60285 0.25446 0.0
O374 O 0.54769 0.63737 0.30879 0.0
O375 O 0.54657 0.67037 0.25315 0.0
O376 O 0.52393 0.64896 0.22484 0.0
O377 O 0.61193 0.62731 0.29514 0.0
O378 O 0.48981 0.65523 0.28495 0.0
O379 O 0.45904 0.67117 0.25474 0.0
C380 C 0.46686 0.6022 0.27457 0.0
C381 C 0.39899 0.66436 0.18036 0.0
C382 C 0.38262 0.66036 0.14356 0.0
C383 C 0.36128 0.68377 0.14402 0.0
C384 C 0.37775 0.68784 0.18039 0.0
C385 C 0.35875 0.69734 0.16235 0.0
C386 C 0.40126 0.65055 0.1618 0.0
C387 C 0.54366 0.60108 0.23444 0.0
C388 C 0.41851 0.65455 0.1997 0.0
C389 C 0.28355 0.59403 0.25031 0.0
C390 C 0.3038 0.57276 0.2418 0.0
C391 C 0.5438 0.6684 0.23309 0.0
C392 C 0.59862 0.6127 0.32899 0.0
C393 C 0.6091 0.60575 0.36586 0.0
C394 C 0.62729 0.58203 0.36147 0.0
C395 C 0.61644 0.58884 0.32494 0.0
C396 C 0.59498 0.62106 0.34948 0.0
C397 C 0.63082 0.57367 0.34115 0.0
C398 C 0.46389 0.67114 0.27495 0.0
C399 C 0.58929 0.63034 0.31213 0.0
H400 H 0.34653 0.69152 0.13013 0.0
H401 H 0.37549 0.69879 0.19441 0.0
H402 H 0.34226 0.7154 0.16254 0.0
H403 H 0.41756 0.63241 0.16148 0.0
H404 H 0.63973 0.57017 0.37375 0.0
H405 H 0.62039 0.58221 0.30926 0.0
H406 H 0.58197 0.63963 0.35264 0.0
H407 H 0.64546 0.55554 0.33794 0.0
H408 H 0.22641 0.95148 0.40903 0.0
H409 H 0.19806 0.9867 0.38863 0.0
H410 H 0.14979 0.93508 0.3422 0.0
H411 H 0.17875 0.89999 0.36232 0.0
H412 H 0.18911 0.97294 0.32442 0.0
H413 H 0.07824 0.96349 0.37802 0.0
H414 H 0.04974 0.96087 0.41372 0.0
H415 H 0.09907 0.03531 0.42578 0.0
H416 H 0.12851 0.03824 0.39024 0.0
H417 H 0.04646 0.05391 0.26859 0.0
H418 H 0.07812 0.02044 0.28951 0.0
H419 H 0.11665 0.07444 0.33605 0.0
H420 H 0.08158 0.10784 0.31562 0.0
H421 H 0.08487 0.03603 0.35406 0.0
H422 H 0.19631 0.04408 0.29863 0.0
H423 H 0.22186 0.04468 0.26233 0.0
H424 H 0.16567 0.9712 0.25302 0.0
H425 H 0.14018 0.96999 0.28923 0.0
C426 C 0.20965 0.94771 0.39449 0.0
C427 C 0.20481 0.92302 0.38724 0.0
C428 C 0.19335 0.96781 0.38287 0.0
C429 C 0.17124 0.96353 0.36399 0.0
C430 C 0.16679 0.93888 0.35669 0.0
C431 C 0.18344 0.91884 0.36817 0.0
C432 C 0.15309 0.98466 0.35163 0.0
C433 C 0.16603 0.98663 0.33087 0.0
C434 C 0.12352 0.00277 0.3601 0.0
C435 C 0.10606 0.00097 0.38153 0.0
C436 C 0.0834 0.97921 0.38834 0.0
C437 C 0.067 0.97769 0.40854 0.0
C438 C 0.0727 -0.00212 0.42202 0.0
C439 C 0.09476 0.01966 0.41533 0.0
C440 C 0.1113 0.02127 0.39516 0.0
C441 C 0.06203 0.05864 0.28323 0.0
C442 C 0.06204 0.08343 0.29048 0.0
C443 C 0.08047 0.03951 0.29514 0.0
C444 C 0.10117 0.04489 0.31415 0.0
C445 C 0.1012 0.06977 0.32139 0.0
C446 C 0.08132 0.08885 0.30974 0.0
C447 C 0.12114 0.02448 0.32682 0.0
C448 C 0.1084 0.02255 0.34765 0.0
C449 C 0.15055 0.00622 0.31836 0.0
C450 C 0.16613 0.00702 0.29661 0.0
C451 C 0.18928 0.0281 0.28882 0.0
C452 C 0.20374 0.02855 0.26827 0.0
C453 C 0.19511 0.0081 0.25537 0.0
C454 C 0.17229 0.98704 0.26301 0.0
C455 C 0.15802 0.98641 0.28356 0.0
H456 H 0.20625 0.00854 0.23947 0.0
H457 H 0.05991 0.99669 0.43764 0.0
H458 H 0.24437 0.5604 0.87983 0.0
H459 H 0.27243 0.52473 0.85959 0.0
H460 H 0.41035 0.54719 0.87274 0.0
H461 H 0.38241 0.58243 0.89344 0.0
H462 H 0.38294 0.5383 0.82829 0.0
H463 H 0.37891 0.50128 0.89693 0.0
H464 H 0.34094 0.48872 0.92924 0.0
H465 H 0.24605 0.44364 0.89502 0.0
H466 H 0.28303 0.45627 0.86246 0.0
H467 H 0.50636 0.44071 0.78377 0.0
H468 H 0.47652 0.47358 0.80579 0.0
H469 H 0.35799 0.42772 0.81834 0.0
H470 H 0.39286 0.39307 0.79946 0.0
H471 H 0.37087 0.44938 0.84977 0.0
H472 H 0.36849 0.48454 0.78145 0.0
H473 H 0.3997 0.49744 0.74773 0.0
H474 H 0.49485 0.54642 0.77797 0.0
H475 H 0.46454 0.53364 0.81184 0.0
C476 C 0.28064 0.55754 0.87845 0.0
C477 C 0.31138 0.57399 0.88812 0.0
C478 C 0.29654 0.53723 0.86699 0.0
C479 C 0.34336 0.53342 0.86477 0.0
C480 C 0.37409 0.54988 0.87437 0.0
C481 C 0.3582 0.56987 0.88619 0.0
C482 C 0.36045 0.51278 0.85182 0.0
C483 C 0.38071 0.51879 0.83293 0.0
C484 C 0.35567 0.48744 0.85765 0.0
C485 C 0.3334 0.47998 0.87724 0.0
C486 C 0.34963 0.48893 0.89627 0.0
C487 C 0.32836 0.48174 0.91463 0.0
C488 C 0.29101 0.46545 0.91418 0.0
C489 C 0.27492 0.45629 0.89535 0.0
C490 C 0.29603 0.46346 0.87694 0.0
C491 C 0.47477 0.43743 0.79189 0.0
C492 C 0.45252 0.41424 0.79056 0.0
C493 C 0.45676 0.45658 0.80394 0.0
C494 C 0.41395 0.45378 0.81336 0.0
C495 C 0.39108 0.4306 0.81142 0.0
C496 C 0.4107 0.41084 0.80048 0.0
C497 C 0.39382 0.47456 0.82576 0.0
C498 C 0.37284 0.4687 0.84469 0.0
C499 C 0.39658 0.50009 0.81959 0.0
C500 C 0.41442 0.508 0.79918 0.0
C501 C 0.39616 0.498 0.7809 0.0
C502 C 0.4137 0.50529 0.76176 0.0
C503 C 0.44928 0.5227 0.76071 0.0
C504 C 0.4673 0.53294 0.77879 0.0
C505 C 0.4499 0.52571 0.79796 0.0
H506 H 0.46286 0.52829 0.74589 0.0
H507 H 0.27464 0.45988 0.92841 0.0
H508 H 0.64343 0.56654 0.60328 0.0
H509 H 0.61519 0.53042 0.62207 0.0
H510 H 0.73385 0.53231 0.66106 0.0
H511 H 0.76528 0.56639 0.64062 0.0
H512 H 0.7145 0.48731 0.65526 0.0
H513 H 0.62164 0.55791 0.67447 0.0
H514 H 0.57082 0.59364 0.66811 0.0
H515 H 0.47312 0.54434 0.63995 0.0
H516 H 0.52359 0.50837 0.64594 0.0
H517 H 0.62751 0.4175 0.73833 0.0
H518 H 0.65635 0.45066 0.71633 0.0
H519 H 0.53884 0.44259 0.67704 0.0
H520 H 0.50808 0.41067 0.70037 0.0
H521 H 0.55654 0.48944 0.68178 0.0
H522 H 0.65142 0.41811 0.66509 0.0
H523 H 0.70108 0.38327 0.67546 0.0
H524 H 0.79547 0.43556 0.70226 0.0
H525 H 0.74615 0.47068 0.69224 0.0
C526 C 0.66436 0.55897 0.61544 0.0
C527 C 0.7068 0.56974 0.62036 0.0
C528 C 0.64752 0.53852 0.62654 0.0
C529 C 0.6716 0.52902 0.64347 0.0
C530 C 0.71428 0.53938 0.64821 0.0
C531 C 0.73192 0.55926 0.63665 0.0
C532 C 0.65236 0.50846 0.65635 0.0
C533 C 0.68007 0.48795 0.66118 0.0
C534 C 0.60713 0.5089 0.66387 0.0
C535 C 0.57657 0.5305 0.66049 0.0
C536 C 0.58941 0.55472 0.66684 0.0
C537 C 0.56066 0.57501 0.6633 0.0
C538 C 0.51882 0.57127 0.65358 0.0
C539 C 0.50556 0.54722 0.64745 0.0
C540 C 0.53419 0.52687 0.65094 0.0
C541 C 0.6079 0.42268 0.72509 0.0
C542 C 0.5657 0.41144 0.72115 0.0
C543 C 0.62457 0.44159 0.71232 0.0
C544 C 0.60042 0.44876 0.69464 0.0
C545 C 0.55827 0.43735 0.69052 0.0
C546 C 0.54084 0.41904 0.70379 0.0
C547 C 0.61872 0.46847 0.68072 0.0
C548 C 0.59083 0.48877 0.67569 0.0
C549 C 0.66392 0.46799 0.67325 0.0
C550 C 0.69506 0.44701 0.67793 0.0
C551 C 0.68287 0.42217 0.67311 0.0
C552 C 0.71089 0.40237 0.67898 0.0
C553 C 0.75138 0.4072 0.68953 0.0
C554 C 0.76413 0.43185 0.69407 0.0
C555 C 0.73623 0.45171 0.68824 0.0
H556 H 0.77287 0.39184 0.69419 0.0
H557 H 0.49664 0.58701 0.65084 0.0
H558 H 0.73418 0.93999 0.12898 0.0
H559 H 0.76341 0.97497 0.14987 0.0
H560 H 0.90056 0.9541 0.13447 0.0
H561 H 0.87152 0.91944 0.11335 0.0
H562 H 0.88318 0.96129 0.17779 0.0
H563 H 0.86419 0.00225 0.11264 0.0
H564 H 0.82314 0.01573 0.0815 0.0
H565 H 0.72746 0.05553 0.11902 0.0
H566 H 0.76753 0.04191 0.15043 0.0
H567 H 0.00583 0.06518 0.21554 0.0
H568 H 0.97368 0.03242 0.19378 0.0
H569 H 0.84017 0.06385 0.20172 0.0
H570 H 0.87253 0.09752 0.22274 0.0
H571 H 0.85348 0.05085 0.16281 0.0
H572 H 0.87517 0.01112 0.22834 0.0
H573 H 0.91837 -0.0016 0.25911 0.0
H574 H 0.00988 0.95643 0.22109 0.0
H575 H 0.96771 0.96921 0.19003 0.0
C576 C 0.7705 0.9431 0.12993 0.0
C577 C 0.80066 0.92721 0.11951 0.0
C578 C 0.78712 0.963 0.14181 0.0
C579 C 0.83409 0.96702 0.14367 0.0
C580 C 0.86421 0.95125 0.1332 0.0
C581 C 0.84762 0.93164 0.12105 0.0
C582 C 0.85191 0.98735 0.15693 0.0
C583 C 0.87712 0.98091 0.17446 0.0
C584 C 0.84299 0.01282 0.15274 0.0
C585 C 0.81849 0.02076 0.1339 0.0
C586 C 0.83405 0.0136 0.11427 0.0
C587 C 0.81104 0.02133 0.09656 0.0
C588 C 0.77261 0.0364 0.09828 0.0
C589 C 0.75716 0.0438 0.11771 0.0
C590 C 0.78001 0.03608 0.13547 0.0
C591 C 0.9696 0.0652 0.21267 0.0
C592 C 0.94157 0.08373 0.22122 0.0
C593 C 0.95124 0.04632 0.20031 0.0
C594 C 0.90438 0.04533 0.19651 0.0
C595 C 0.87639 0.06412 0.20462 0.0
C596 C 0.89488 0.08325 0.21678 0.0
C597 C 0.88485 0.02488 0.18377 0.0
C598 C 0.85929 0.03126 0.16631 0.0
C599 C 0.89343 -0.00068 0.18807 0.0
C600 C 0.91843 0.99129 0.2068 0.0
C601 C 0.90466 -0.0007 0.2265 0.0
C602 C 0.92897 0.99208 0.24401 0.0
C603 C 0.96689 0.97668 0.24205 0.0
C604 C 0.98052 0.96839 0.22258 0.0
C605 C 0.9564 0.97559 0.20502 0.0
H606 H 0.98568 0.97112 0.25562 0.0
H607 H 0.75489 0.0424 0.08455 0.0
H608 H 0.74408 0.06974 0.64099 0.0
H609 H 0.77415 0.03485 0.6612 0.0
H610 H 0.89903 0.03815 0.62652 0.0
H611 H 0.86992 0.07337 0.60667 0.0
H612 H 0.86496 0.98948 0.63139 0.0
H613 H 0.89698 0.06269 0.67269 0.0
H614 H 0.87623 0.10152 0.69093 0.0
H615 H 0.78495 0.05995 0.72985 0.0
H616 H 0.80461 0.02092 0.71161 0.0
H617 H 0.99538 0.90872 0.69297 0.0
H618 H 0.96694 0.94333 0.67283 0.0
H619 H 0.86251 0.95609 0.71832 0.0
H620 H 0.89596 0.9245 0.74012 0.0
H621 H 0.88556 0.99722 0.707 0.0
H622 H 0.85023 0.92383 0.66547 0.0
H623 H 0.86884 0.88495 0.64677 0.0
H624 H 0.96169 0.92569 0.60802 0.0
H625 H 0.94396 0.96476 0.62661 0.0
C626 C 0.77806 0.06316 0.63777 0.0
C627 C 0.80454 0.07433 0.62218 0.0
C628 C 0.79508 0.04318 0.64926 0.0
C629 C 0.83883 0.03403 0.64536 0.0
C630 C 0.86508 0.04487 0.62966 0.0
C631 C 0.84825 0.06493 0.61827 0.0
C632 C 0.85769 0.0134 0.65785 0.0
C633 C 0.86975 0.9911 0.64792 0.0
C634 C 0.86311 0.01552 0.67942 0.0
C635 C 0.85195 0.03892 0.69065 0.0
C636 C 0.87225 0.06185 0.68505 0.0
C637 C 0.86071 0.0839 0.69539 0.0
C638 C 0.8292 0.08321 0.7115 0.0
C639 C 0.8093 0.06046 0.71735 0.0
C640 C 0.82065 0.03837 0.70702 0.0
C641 C 0.96649 0.91891 0.69888 0.0
C642 C 0.94755 0.91318 0.7183 0.0
C643 C 0.94962 0.93858 0.68703 0.0
C644 C 0.91123 0.95195 0.6935 0.0
C645 C 0.8919 0.94606 0.71273 0.0
C646 C 0.91052 0.92739 0.72514 0.0
C647 C 0.89209 0.97259 0.68072 0.0
C648 C 0.88028 0.99516 0.69054 0.0
C649 C 0.88628 0.97055 0.65904 0.0
C650 C 0.89596 0.94717 0.64752 0.0
C651 C 0.87465 0.92447 0.65298 0.0
C652 C 0.88507 0.90241 0.64241 0.0
C653 C 0.91649 0.90284 0.62624 0.0
C654 C 0.93738 0.92538 0.62054 0.0
C655 C 0.92709 0.94749 0.63106 0.0
H656 H 0.9246 0.88573 0.61812 0.0
H657 H 0.82027 0.10031 0.71948 0.0
H658 H 0.67705 0.40029 0.14733 0.0
H659 H 0.64796 0.43519 0.16762 0.0
H660 H 0.69855 0.48732 0.12213 0.0
H661 H 0.72864 0.45231 0.10183 0.0
H662 H 0.71792 0.50221 0.16164 0.0
H663 H 0.58843 0.47467 0.12382 0.0
H664 H 0.53261 0.44433 0.11017 0.0
H665 H 0.48981 0.42645 0.17176 0.0
H666 H 0.54596 0.45638 0.18581 0.0
H667 H 0.5784 0.60467 0.19589 0.0
H668 H 0.61192 0.57119 0.17509 0.0
H669 H 0.59117 0.51905 0.22502 0.0
H670 H 0.5587 0.55278 0.2462 0.0
H671 H 0.55563 0.50537 0.18216 0.0
H672 H 0.69332 0.52751 0.21936 0.0
H673 H 0.75211 0.55616 0.23302 0.0
H674 H 0.77694 0.58454 0.17207 0.0
H675 H 0.71874 0.5557 0.15803 0.0
C676 C 0.68246 0.4192 0.14175 0.0
C677 C 0.70526 0.42362 0.12304 0.0
C678 C 0.66538 0.43909 0.15324 0.0
C679 C 0.6706 0.46378 0.14622 0.0
C680 C 0.69399 0.46835 0.12772 0.0
C681 C 0.71097 0.44839 0.11613 0.0
C682 C 0.65212 0.48473 0.1585 0.0
C683 C 0.68229 0.5031 0.16583 0.0
C684 C 0.60576 0.4856 0.16428 0.0
C685 C 0.57176 0.46762 0.15589 0.0
C686 C 0.56742 0.46411 0.13447 0.0
C687 C 0.53566 0.44701 0.12666 0.0
C688 C 0.50775 0.43343 0.14009 0.0
C689 C 0.51149 0.43696 0.16137 0.0
C690 C 0.54326 0.45402 0.16927 0.0
C691 C 0.58138 0.5861 0.20247 0.0
C692 C 0.56614 0.58118 0.22259 0.0
C693 C 0.60056 0.56708 0.19062 0.0
C694 C 0.60391 0.54277 0.19858 0.0
C695 C 0.58888 0.53778 0.21871 0.0
C696 C 0.57062 0.55699 0.23077 0.0
C697 C 0.62162 0.52245 0.18546 0.0
C698 C 0.59119 0.50438 0.17787 0.0
C699 C 0.6676 0.52185 0.17934 0.0
C700 C 0.70146 0.53971 0.18771 0.0
C701 C 0.71113 0.54 0.20891 0.0
C702 C 0.74457 0.55611 0.21669 0.0
C703 C 0.7681 0.57225 0.20344 0.0
C704 C 0.75859 0.57209 0.18233 0.0
C705 C 0.72558 0.55577 0.17443 0.0
H706 H 0.79376 0.58484 0.20953 0.0
H707 H 0.48317 0.4202 0.13401 0.0
H708 H 0.3727 0.41002 0.38534 0.0
H709 H 0.40035 0.44567 0.36498 0.0
H710 H 0.2683 0.47998 0.36931 0.0
H711 H 0.24033 0.44369 0.38902 0.0
H712 H 0.29825 0.48307 0.33158 0.0
H713 H 0.36432 0.50126 0.39773 0.0
H714 H 0.40871 0.49165 0.42894 0.0
H715 H 0.52727 0.47916 0.39185 0.0
H716 H 0.48346 0.48837 0.3604 0.0
H717 H 0.37793 0.59842 0.28735 0.0
H718 H 0.34401 0.5658 0.30907 0.0
H719 H 0.47239 0.52735 0.31089 0.0
H720 H 0.50653 0.55996 0.2896 0.0
H721 H 0.4407 0.52904 0.34762 0.0
H722 H 0.37621 0.50279 0.28261 0.0
H723 H 0.33175 0.50342 0.25041 0.0
H724 H 0.21394 0.52734 0.28392 0.0
H725 H 0.25756 0.52639 0.3164 0.0
C726 C 0.34983 0.4253 0.38197 0.0
C727 C 0.30461 0.42436 0.38868 0.0
C728 C 0.36564 0.44573 0.37049 0.0
C729 C 0.3367 0.46583 0.36591 0.0
C730 C 0.29135 0.4648 0.37272 0.0
C731 C 0.27539 0.44417 0.38397 0.0
C732 C 0.35315 0.48728 0.35321 0.0
C733 C 0.32891 0.4935 0.33534 0.0
C734 C 0.3939 0.50041 0.35772 0.0
C735 C 0.42051 0.49538 0.37669 0.0
C736 C 0.39981 0.49637 0.39622 0.0
C737 C 0.42487 0.49099 0.41396 0.0
C738 C 0.47076 0.48477 0.41238 0.0
C739 C 0.49172 0.48399 0.39306 0.0
C740 C 0.46681 0.48933 0.37527 0.0
C741 C 0.3988 0.58288 0.2922 0.0
C742 C 0.44502 0.5819 0.28676 0.0
C743 C 0.3793 0.56415 0.30458 0.0
C744 C 0.40552 0.54394 0.31162 0.0
C745 C 0.45142 0.54276 0.30583 0.0
C746 C 0.47093 0.56148 0.2936 0.0
C747 C 0.38615 0.52457 0.32574 0.0
C748 C 0.40974 0.51885 0.34397 0.0
C749 C 0.34509 0.51166 0.32146 0.0
C750 C 0.32021 0.51477 0.30184 0.0
C751 C 0.34101 0.50855 0.28304 0.0
C752 C 0.31587 0.50875 0.26478 0.0
C753 C 0.27003 0.51534 0.26514 0.0
C754 C 0.24939 0.52211 0.2837 0.0
C755 C 0.27425 0.52167 0.30203 0.0
H756 H 0.2505 0.51524 0.25101 0.0
H757 H 0.49008 0.48057 0.42612 0.0
H758 H 0.16951 0.09401 0.86473 0.0
H759 H 0.13953 0.05841 0.84518 0.0
H760 H 0.19209 0.00761 0.89089 0.0
H761 H 0.22285 0.04325 0.91043 0.0
H762 H 0.21137 0.99292 0.8509 0.0
H763 H 0.08154 0.01783 0.88991 0.0
H764 H 0.02641 0.04815 0.90363 0.0
H765 H 0.98359 0.06583 0.84209 0.0
H766 H 0.03895 0.03584 0.82798 0.0
H767 H 0.10198 0.88808 0.8044 0.0
H768 H 0.13156 0.91982 0.82802 0.0
H769 H 0.0563 0.97669 0.79549 0.0
H770 H 0.02345 0.94434 0.77312 0.0
H771 H 0.04837 0.98639 0.83235 0.0
H772 H 0.19316 0.97185 0.79415 0.0
H773 H 0.25701 0.94694 0.78068 0.0
H774 H 0.27163 0.91082 0.83932 0.0
H775 H 0.20998 0.9368 0.85358 0.0
C776 C 0.17486 0.07525 0.87057 0.0
C777 C 0.19857 0.07137 0.88908 0.0
C778 C 0.1574 0.05496 0.85949 0.0
C779 C 0.16323 0.03041 0.86671 0.0
C780 C 0.1871 0.02643 0.88512 0.0
C781 C 0.20438 0.04677 0.8963 0.0
C782 C 0.14509 0.00897 0.85469 0.0
C783 C 0.17561 0.99123 0.84706 0.0
C784 C 0.09864 0.00707 0.84944 0.0
C785 C 0.06458 0.02469 0.85789 0.0
C786 C 0.06052 0.02827 0.8793 0.0
C787 C 0.02922 0.04539 0.88714 0.0
C788 C 1.00156 0.05893 0.87373 0.0
C789 C 0.00504 0.05532 0.85245 0.0
C790 C 0.03632 0.03823 0.84453 0.0
C791 C 0.09196 0.90742 0.80235 0.0
C792 C 0.06044 0.9139 0.7871 0.0
C793 C 0.10941 0.92567 0.81566 0.0
C794 C 0.09731 0.95097 0.81336 0.0
C795 C 0.06626 0.95739 0.79774 0.0
C796 C 0.04751 0.93896 0.78493 0.0
C797 C 0.11494 0.97058 0.82774 0.0
C798 C 0.08418 0.98794 0.83607 0.0
C799 C 0.16131 0.97228 0.83353 0.0
C800 C 0.19657 0.95584 0.82477 0.0
C801 C 0.20976 0.95842 0.80409 0.0
C802 C 0.24564 0.94421 0.79634 0.0
C803 C 0.26755 0.92685 0.80893 0.0
C804 C 0.25437 0.92409 0.82951 0.0
C805 C 0.21939 0.93878 0.83751 0.0
H806 H 0.29508 0.91575 0.80281 0.0
H807 H 0.97739 0.07221 0.87984 0.0
H808 H 0.23684 0.08136 0.96373 0.0
H809 H 0.21052 0.08462 0.9994 0.0
H810 H 0.1619 0.15929 0.98734 0.0
H811 H 0.18972 0.15636 0.95181 0.0
H812 H 0.19896 0.15829 0.02346 0.0
H813 H 0.08983 0.10656 0.98944 0.0
H814 H 0.06352 0.07127 0.96791 0.0
H815 H 0.11709 0.01905 0.01179 0.0
H816 H 0.14454 0.05401 0.0334 0.0
H817 H 0.10002 0.15777 0.1234 0.0
H818 H 0.09919 0.15826 0.08545 0.0
H819 H 0.16503 0.08626 0.08463 0.0
H820 H 0.16569 0.08583 0.12234 0.0
H821 H 0.10518 0.08982 0.05339 0.0
H822 H 0.22464 0.1416 0.08365 0.0
H823 H 0.2541 0.17674 0.10452 0.0
H824 H 0.18093 0.22888 0.06688 0.0
H825 H 0.15034 0.19396 0.04602 0.0
C826 C 0.22082 0.09852 0.96877 0.0
C827 C 0.21518 0.11858 0.95503 0.0
C828 C 0.20542 0.10031 0.98909 0.0
C829 C 0.18302 0.12195 0.99595 0.0
C830 C 0.17872 0.14233 0.98241 0.0
C831 C 0.19478 0.14069 0.96214 0.0
C832 C 0.16462 0.12332 0.01731 0.0
C833 C 0.17763 0.14356 0.02985 0.0
C834 C 0.13693 0.10406 0.02575 0.0
C835 C 0.1195 0.08296 0.013 0.0
C836 C 0.09621 0.08756 0.99446 0.0
C837 C 0.08111 0.0676 0.98223 0.0
C838 C 0.08868 0.04293 0.98847 0.0
C839 C 0.11126 0.03817 0.00698 0.0
C840 C 0.12657 0.05805 0.01923 0.0
C841 C 0.11314 0.14182 0.11501 0.0
C842 C 0.13319 0.12183 0.12561 0.0
C843 C 0.11289 0.14215 0.09339 0.0
C844 C 0.13278 0.12248 0.08219 0.0
C845 C 0.14967 0.10168 0.0929 0.0
C846 C 0.15018 0.10145 0.11442 0.0
C847 C 0.14073 0.12436 0.05959 0.0
C848 C 0.12566 0.10478 0.04681 0.0
C849 C 0.16644 0.14423 0.05088 0.0
C850 C 0.18469 0.16516 0.06348 0.0
C851 C 0.21449 0.16054 0.07996 0.0
C852 C 0.23142 0.18042 0.09177 0.0
C853 C 0.21927 0.20502 0.08707 0.0
C854 C 0.19019 0.2098 0.07054 0.0
C855 C 0.173 0.18998 0.05874 0.0
H856 H 0.23249 0.22039 0.09621 0.0
H857 H 0.07701 0.02751 0.97897 0.0
H858 H 0.3666 0.39005 0.45013 0.0
H859 H 0.38873 0.38563 0.48618 0.0
H860 H 0.2568 0.35464 0.50049 0.0
H861 H 0.23371 0.35992 0.4645 0.0
H862 H 0.2822 0.3889 0.52859 0.0
H863 H 0.35146 0.31719 0.49691 0.0
H864 H 0.39844 0.29628 0.47063 0.0
H865 H 0.51509 0.33857 0.49037 0.0
H866 H 0.46864 0.35998 0.51661 0.0
H867 H 0.32928 0.3525 0.62865 0.0
H868 H 0.3179 0.34387 0.59188 0.0
H869 H 0.44057 0.38486 0.57756 0.0
H870 H 0.45178 0.39359 0.6144 0.0
H871 H 0.42106 0.34316 0.54949 0.0
H872 H 0.35338 0.41755 0.5776 0.0
H873 H 0.30833 0.4413 0.60291 0.0
H874 H 0.19102 0.39622 0.58893 0.0
H875 H 0.23559 0.37203 0.56364 0.0
C876 C 0.34206 0.38251 0.46095 0.0
C877 C 0.29827 0.3754 0.45439 0.0
C878 C 0.355 0.3797 0.48154 0.0
C879 C 0.3247 0.36944 0.49602 0.0
C880 C 0.28088 0.36244 0.48957 0.0
C881 C 0.26783 0.36531 0.46896 0.0
C882 C 0.33834 0.36666 0.51799 0.0
C883 C 0.31205 0.37847 0.53314 0.0
C884 C 0.37815 0.35373 0.52394 0.0
C885 C 0.40651 0.34028 0.50865 0.0
C886 C 0.3871 0.32208 0.49561 0.0
C887 C 0.41363 0.31014 0.48072 0.0
C888 C 0.45971 0.31612 0.47881 0.0
C889 C 0.4794 0.33396 0.49187 0.0
C890 C 0.453 0.34597 0.50678 0.0
C891 C 0.35489 0.35859 0.61772 0.0
C892 C 0.39159 0.37347 0.62425 0.0
C893 C 0.34826 0.35382 0.59673 0.0
C894 C 0.37812 0.36399 0.58198 0.0
C895 C 0.41725 0.37677 0.58867 0.0
C896 C 0.42372 0.38168 0.60969 0.0
C897 C 0.36442 0.36506 0.55996 0.0
C898 C 0.39085 0.35322 0.54487 0.0
C899 C 0.32496 0.37817 0.55393 0.0
C900 C 0.2979 0.39281 0.56892 0.0
C901 C 0.31806 0.41258 0.58004 0.0
C902 C 0.29262 0.42615 0.59435 0.0
C903 C 0.2469 0.4202 0.5976 0.0
C904 C 0.22647 0.40076 0.58644 0.0
C905 C 0.25178 0.38714 0.57209 0.0
H906 H 0.22726 0.4307 0.60871 0.0
H907 H 0.48016 0.3069 0.46724 0.0
H908 H 0.64759 0.40164 0.05911 0.0
H909 H 0.62668 0.40088 0.02312 0.0
H910 H 0.73478 0.34887 0.01058 0.0
H911 H 0.76003 0.35214 0.04622 0.0
H912 H 0.73138 0.37819 0.98053 0.0
H913 H 0.61185 0.33273 0.01686 0.0
H914 H 0.55193 0.32846 0.04328 0.0
H915 H 0.48106 0.39091 0.01716 0.0
H916 H 0.54075 0.39565 0.99069 0.0
H917 H 0.61734 0.30474 0.90175 0.0
H918 H 0.62188 0.31999 0.93718 0.0
H919 H 0.63092 0.39597 0.91506 0.0
H920 H 0.62779 0.38069 0.87926 0.0
H921 H 0.57115 0.36109 0.96114 0.0
H922 H 0.70624 0.40954 0.92896 0.0
H923 H 0.76711 0.4096 0.90273 0.0
H924 H 0.80711 0.33593 0.92178 0.0
H925 H 0.74592 0.33537 0.94787 0.0
C926 C 0.66807 0.39054 0.04876 0.0
C927 C 0.70614 0.37716 0.05591 0.0
C928 C 0.65514 0.38965 0.02807 0.0
C929 C 0.67828 0.37434 0.01403 0.0
C930 C 0.71608 0.36081 0.02104 0.0
C931 C 0.73012 0.36239 0.04163 0.0
C932 C 0.66333 0.37239 0.99207 0.0
C933 C 0.6962 0.37462 0.97645 0.0
C934 C 0.61736 0.36799 0.98639 0.0
C935 C 0.58086 0.36463 1.00191 0.0
C936 C 0.58349 0.34555 0.01678 0.0
C937 C 0.5496 0.34306 0.03177 0.0
C938 C 0.51276 0.35943 0.03192 0.0
C939 C 0.50961 0.37824 0.01703 0.0
C940 C 0.5434 0.38081 1.00201 0.0
C941 C 0.61956 0.32475 0.90441 0.0
C942 C 0.62307 0.34149 0.88772 0.0
C943 C 0.62193 0.33343 0.92466 0.0
C944 C 0.62762 0.35903 0.92871 0.0
C945 C 0.62728 0.37608 0.9122 0.0
C946 C 0.62506 0.36736 0.89179 0.0
C947 C 0.63917 0.36699 0.94999 0.0
C948 C 0.60591 0.36547 0.96542 0.0
C949 C 0.68466 0.37191 0.95561 0.0
C950 C 0.72141 0.37232 0.94011 0.0
C951 C 0.72789 0.39333 0.92741 0.0
C952 C 0.76239 0.39345 0.91259 0.0
C953 C 0.79088 0.37275 0.91054 0.0
C954 C 0.78494 0.35191 0.92333 0.0
C955 C 0.75033 0.35166 0.9381 0.0
H956 H 0.81762 0.37289 0.89909 0.0
H957 H 0.48662 0.35752 0.04357 0.0
H958 H 0.81856 0.1598 0.55731 0.0
H959 H 0.84318 0.162 0.52134 0.0
H960 H 0.80177 0.08512 0.5122 0.0
H961 H 0.77696 0.08282 0.54817 0.0
H962 H 0.88368 0.09362 0.49494 0.0
H963 H 0.73802 0.13185 0.49313 0.0
H964 H 0.67713 0.16075 0.50347 0.0
H965 H 0.76228 0.22375 0.48842 0.0
H966 H 0.82394 0.19521 0.47826 0.0
H967 H 0.86573 0.11039 0.38219 0.0
H968 H 0.86049 0.09829 0.41873 0.0
H969 H 0.91941 0.16933 0.43623 0.0
H970 H 0.92459 0.18137 0.39995 0.0
H971 H 0.82787 0.16072 0.44881 0.0
H972 H 0.97347 0.12015 0.44923 0.0
H973 H 0.03169 0.08968 0.43879 0.0
H974 H 0.9425 0.02894 0.45518 0.0
H975 H 0.88341 0.05903 0.46543 0.0
C976 C 0.81409 0.14348 0.54757 0.0
C977 C 0.79574 0.12116 0.55558 0.0
C978 C 0.82839 0.14471 0.52704 0.0
C979 C 0.82417 0.12373 0.51405 0.0
C980 C 0.80562 0.10147 0.52197 0.0
C981 C 0.79141 0.10021 0.54251 0.0
C982 C 0.83887 0.12521 0.49217 0.0
C983 C 0.87108 0.10808 0.48473 0.0
C984 C 0.82265 0.14414 0.47891 0.0
C985 C 0.78576 0.16139 0.48513 0.0
C986 C 0.74391 0.15187 0.4922 0.0
C987 C 0.70923 0.16818 0.498 0.0
C988 C 0.71587 0.19407 0.49665 0.0
C989 C 0.7572 0.2037 0.48948 0.0
C990 C 0.79202 0.18746 0.48369 0.0
C991 C 0.87942 0.12287 0.39384 0.0
C992 C 0.89526 0.14686 0.3884 0.0
C993 C 0.87637 0.11598 0.41467 0.0
C994 C 0.88922 0.13303 0.43015 0.0
C995 C 0.90928 0.15593 0.42452 0.0
C996 C 0.91229 0.16279 0.40382 0.0
C997 C 0.87356 0.12958 0.45168 0.0
C998 C 0.84061 0.14625 0.459 0.0
C999 C 0.88868 0.11 0.46459 0.0
C1000 C 0.9237 0.09189 0.45782 0.0
C1001 C 0.96595 0.10031 0.45031 0.0
C1002 C 0.99921 0.08309 0.44451 0.0
C1003 C 0.99072 0.0574 0.44624 0.0
C1004 C 0.94897 0.04885 0.45379 0.0
C1005 C 0.9156 0.06598 0.45961 0.0
H1006 H 0.01654 0.04411 0.44181 0.0
H1007 H 0.68896 0.20668 0.50113 0.0
H1008 H 0.87065 0.88594 0.06158 0.0
H1009 H 0.89387 0.88188 0.02558 0.0
H1010 H 0.75917 0.8563 0.00953 0.0
H1011 H 0.73586 0.86009 0.04569 0.0
H1012 H 0.82136 0.82996 0.98911 0.0
H1013 H 0.79342 0.91743 1.00048 0.0
H1014 H 0.80093 0.95898 0.01684 0.0
H1015 H 0.94392 0.95965 1.00382 0.0
H1016 H 0.93735 0.91797 0.9876 0.0
H1017 H 0.83292 0.86405 0.88121 0.0
H1018 H 0.81599 0.85446 0.9175 0.0
H1019 H 0.95077 0.87907 0.93452 0.0
H1020 H 0.96704 0.8892 0.89841 0.0
H1021 H 0.88863 0.90426 0.95458 0.0
H1022 H 0.91489 0.81727 0.94092 0.0
H1023 H 0.90593 0.77598 0.92429 0.0
H1024 H 0.76465 0.77457 0.94069 0.0
H1025 H 0.77259 0.816 0.95718 0.0
C1026 C 0.84598 0.87943 0.05038 0.0
C1027 C 0.80131 0.87355 0.05642 0.0
C1028 C 0.85927 0.87714 0.0298 0.0
C1029 C 0.82804 0.86923 0.01476 0.0
C1030 C 0.78383 0.8625 0.02085 0.0
C1031 C 0.77057 0.86463 0.0415 0.0
C1032 C 0.84132 0.86859 0.99265 0.0
C1033 C 0.83561 0.84627 0.98144 0.0
C1034 C 0.86074 0.88972 0.98276 0.0
C1035 C 0.86497 0.91446 0.99305 0.0
C1036 C 0.82654 0.92631 1.00132 0.0
C1037 C 0.83061 0.94992 0.01051 0.0
C1038 C 0.87289 0.96191 0.01143 0.0
C1039 C 0.91121 0.95032 1.00315 0.0
C1040 C 0.90733 0.92672 0.99395 0.0
C1041 C 0.85912 0.86679 0.89273 0.0
C1042 C 0.9011 0.8775 0.88725 0.0
C1043 C 0.84959 0.86117 0.9134 0.0
C1044 C 0.88211 0.86604 0.92878 0.0
C1045 C 0.92512 0.87521 0.92296 0.0
C1046 C 0.93443 0.88102 0.90239 0.0
C1047 C 0.86937 0.86551 0.95096 0.0
C1048 C 0.87479 0.8878 0.9622 0.0
C1049 C 0.84947 0.84438 0.96071 0.0
C1050 C 0.84424 0.81992 0.95007 0.0
C1051 C 0.88176 0.80833 0.94073 0.0
C1052 C 0.8769 0.78485 0.9314 0.0
C1053 C 0.83472 0.7727 0.93138 0.0
C1054 C 0.79729 0.78402 0.94068 0.0
C1055 C 0.80196 0.8075 0.95003 0.0
H1056 H 0.83107 0.75448 0.92421 0.0
H1057 H 0.87595 0.98021 0.0185 0.0
H1058 H 0.71654 0.66076 0.55494 0.0
H1059 H 0.69626 0.66529 0.51892 0.0
H1060 H 0.68711 0.58486 0.51295 0.0
H1061 H 0.71486 0.58006 0.54766 0.0
H1062 H 0.71833 0.59918 0.48087 0.0
H1063 H 0.58982 0.63105 0.51983 0.0
H1064 H 0.55394 0.65915 0.54521 0.0
H1065 H 0.59628 0.7232 0.50989 0.0
H1066 H 0.63276 0.69548 0.4844 0.0
H1067 H 0.57572 0.58067 0.39905 0.0
H1068 H 0.58818 0.59077 0.43536 0.0
H1069 H 0.65198 0.66057 0.41807 0.0
H1070 H 0.63948 0.65056 0.38152 0.0
H1071 H 0.59572 0.65731 0.46008 0.0
H1072 H 0.72272 0.6211 0.42073 0.0
H1073 H 0.75011 0.59015 0.3954 0.0
H1074 H 0.70007 0.5302 0.43345 0.0
H1075 H 0.67175 0.56085 0.45883 0.0
C1076 C 0.71164 0.64392 0.54592 0.0
C1077 C 0.717 0.61995 0.55471 0.0
C1078 C 0.69873 0.64662 0.52528 0.0
C1079 C 0.68845 0.62549 0.51319 0.0
C1080 C 0.69437 0.60161 0.52183 0.0
C1081 C 0.70941 0.59888 0.54206 0.0
C1082 C 0.67222 0.62778 0.49147 0.0
C1083 C 0.69124 0.61183 0.47659 0.0
C1084 C 0.63751 0.64463 0.48537 0.0
C1085 C 0.61428 0.66122 0.50031 0.0
C1086 C 0.59148 0.65113 0.5175 0.0
C1087 C 0.57109 0.66699 0.5319 0.0
C1088 C 0.57291 0.69294 0.52918 0.0
C1089 C 0.59491 0.70309 0.51198 0.0
C1090 C 0.61539 0.68733 0.49753 0.0
C1091 C 0.59129 0.59848 0.40301 0.0
C1092 C 0.60745 0.6146 0.38752 0.0
C1093 C 0.59797 0.60433 0.42373 0.0
C1094 C 0.62128 0.6263 0.42932 0.0
C1095 C 0.63364 0.64361 0.41401 0.0
C1096 C 0.62671 0.6378 0.39317 0.0
C1097 C 0.6409 0.62814 0.45026 0.0
C1098 C 0.62287 0.64489 0.4647 0.0
C1099 C 0.67573 0.61163 0.45625 0.0
C1100 C 0.6951 0.59323 0.44161 0.0
C1101 C 0.71758 0.60131 0.42366 0.0
C1102 C 0.73319 0.58384 0.4093 0.0
C1103 C 0.72682 0.55823 0.41281 0.0
C1104 C 0.70503 0.55004 0.43076 0.0
C1105 C 0.68927 0.56745 0.44515 0.0
H1106 H 0.7388 0.54473 0.40164 0.0
H1107 H 0.55723 0.70518 0.54039 0.0
H1108 H 0.37337 0.62851 0.9478 0.0
H1109 H 0.39453 0.63122 0.98428 0.0
H1110 H 0.25502 0.61695 1.00151 0.0
H1111 H 0.23369 0.61573 0.96497 0.0
H1112 H 0.28616 0.65089 0.02499 0.0
H1113 H 0.3448 0.57106 1.00389 0.0
H1114 H 0.38923 0.54282 0.98167 0.0
H1115 H 0.5117 0.58227 0.9978 0.0
H1116 H 0.4679 0.61096 0.01992 0.0
H1117 H 0.31982 0.62762 0.12894 0.0
H1118 H 0.31104 0.61402 0.09302 0.0
H1119 H 0.43794 0.65008 0.07742 0.0
H1120 H 0.44661 0.66376 0.11343 0.0
H1121 H 0.41583 0.60322 0.05363 0.0
H1122 H 0.35507 0.68445 0.07234 0.0
H1123 H 0.31034 0.71229 0.09476 0.0
H1124 H 0.19047 0.66841 0.08275 0.0
H1125 H 0.23477 0.64006 0.0605 0.0
C1126 C 0.34735 0.62615 0.95947 0.0
C1127 C 0.30198 0.62201 0.95375 0.0
C1128 C 0.35946 0.6274 0.9803 0.0
C1129 C 0.32662 0.62371 0.99578 0.0
C1130 C 0.28109 0.6198 0.98994 0.0
C1131 C 0.26884 0.61912 0.96911 0.0
C1132 C 0.33928 0.62458 0.01804 0.0
C1133 C 0.31406 0.64008 0.03119 0.0
C1134 C 0.37641 0.61097 0.02626 0.0
C1135 C 0.40301 0.59326 0.01347 0.0
C1136 C 0.38119 0.57376 1.00266 0.0
C1137 C 0.40626 0.55768 0.99008 0.0
C1138 C 0.45325 0.56077 0.9883 0.0
C1139 C 0.47529 0.57989 0.99919 0.0
C1140 C 0.45037 0.59605 0.01178 0.0
C1141 C 0.34663 0.63174 0.11799 0.0
C1142 C 0.38396 0.64656 0.12383 0.0
C1143 C 0.34162 0.62402 0.0975 0.0
C1144 C 0.37371 0.63119 0.08254 0.0
C1145 C 0.41298 0.6442 0.08874 0.0
C1146 C 0.4179 0.65203 0.10925 0.0
C1147 C 0.36217 0.62916 0.0603 0.0
C1148 C 0.38772 0.61371 0.04726 0.0
C1149 C 0.32519 0.64264 0.05208 0.0
C1150 C 0.29825 0.66005 0.06493 0.0
C1151 C 0.31922 0.68068 0.07458 0.0
C1152 C 0.29396 0.69654 0.08725 0.0
C1153 C 0.24761 0.69209 0.09022 0.0
C1154 C 0.22639 0.67182 0.08045 0.0
C1155 C 0.25154 0.65586 0.0678 0.0
H1156 H 0.22811 0.70438 0.10006 0.0
H1157 H 0.47258 0.54834 0.97852 0.0
H1158 H 0.14446 0.89616 0.45131 0.0
H1159 H 0.12462 0.89411 0.48782 0.0
H1160 H 0.24691 0.85289 0.50014 0.0
H1161 H 0.26859 0.856 0.46386 0.0
H1162 H 0.16321 0.83141 0.51655 0.0
H1163 H 0.24692 0.90976 0.51446 0.0
H1164 H 0.26286 0.95223 0.50128 0.0
H1165 H 0.12931 0.97566 0.51919 0.0
H1166 H 0.11236 0.93318 0.53225 0.0
H1167 H 0.1836 0.82739 0.62257 0.0
H1168 H 0.20192 0.84072 0.58736 0.0
H1169 H 0.07606 0.88138 0.58428 0.0
H1170 H 0.05776 0.86803 0.61972 0.0
H1171 H 0.1545 0.90541 0.56279 0.0
H1172 H 0.06888 0.82945 0.56479 0.0
H1173 H 0.04853 0.7873 0.57742 0.0
H1174 H 0.17861 0.75976 0.55829 0.0
H1175 H 0.20003 0.80191 0.54585 0.0
C1176 C 0.16777 0.88706 0.46176 0.0
C1177 C 0.20843 0.87637 0.45446 0.0
C1178 C 0.1561 0.88579 0.48265 0.0
C1179 C 0.1844 0.87347 0.49668 0.0
C1180 C 0.22458 0.86248 0.48952 0.0
C1181 C 0.23671 0.8641 0.4687 0.0
C1182 C 0.17158 0.8714 0.51875 0.0
C1183 C 0.1618 0.84756 0.52669 0.0
C1184 C 0.16794 0.89261 0.53176 0.0
C1185 C 0.17822 0.91822 0.52414 0.0
C1186 C 0.22082 0.92391 0.51544 0.0
C1187 C 0.23006 0.94799 0.50802 0.0
C1188 C 0.19707 0.96661 0.50934 0.0
C1189 C 0.15481 0.9612 0.51815 0.0
C1190 C 0.14539 0.93713 0.52559 0.0
C1191 C 0.16058 0.83979 0.61457 0.0
C1192 C 0.11947 0.84683 0.62376 0.0
C1193 C 0.17094 0.84734 0.59449 0.0
C1194 C 0.1402 0.86188 0.58316 0.0
C1195 C 0.10036 0.8703 0.59279 0.0
C1196 C 0.08995 0.8627 0.61298 0.0
C1197 C 0.14742 0.86531 0.56065 0.0
C1198 C 0.15579 0.88931 0.55261 0.0
C1199 C 0.149 0.84432 0.54734 0.0
C1200 C 0.13622 0.81887 0.55458 0.0
C1201 C 0.09329 0.81445 0.56344 0.0
C1202 C 0.08154 0.79056 0.57054 0.0
C1203 C 0.1123 0.77087 0.5687 0.0
C1204 C 0.15484 0.77504 0.55972 0.0
C1205 C 0.1668 0.79892 0.55263 0.0
H1206 H 0.10313 0.75238 0.5742 0.0
H1207 H 0.20429 0.98525 0.50358 0.0
H1208 H 0.16024 0.34721 0.40347 0.0
H1209 H 0.1226 0.31428 0.38309 0.0
H1210 H 0.25054 0.29721 0.35383 0.0
H1211 H 0.28722 0.33093 0.37339 0.0
H1212 H 0.1901 0.29835 0.32615 0.0
H1213 H 0.19568 0.25942 0.39322 0.0
H1214 H 0.18113 0.25588 0.43056 0.0
H1215 H 0.03751 0.2595 0.4197 0.0
H1216 H 0.05122 0.26342 0.38231 0.0
H1217 H 0.13169 0.18015 0.28215 0.0
H1218 H 0.16508 0.21287 0.30382 0.0
H1219 H 0.03132 0.23563 0.32295 0.0
H1220 H 0.99753 0.20337 0.301 0.0
H1221 H 0.0912 0.23194 0.35569 0.0
H1222 H 0.08589 0.27008 0.28892 0.0
H1223 H 0.10013 0.27512 0.25168 0.0
H1224 H 0.24391 0.27287 0.26233 0.0
H1225 H 0.23055 0.2674 0.29962 0.0
C1226 C 0.18009 0.33625 0.39273 0.0
C1227 C 0.22645 0.34142 0.38991 0.0
C1228 C 0.15875 0.31734 0.38118 0.0
C1229 C 0.18376 0.30291 0.36704 0.0
C1230 C 0.23036 0.30802 0.36455 0.0
C1231 C 0.25138 0.32719 0.37576 0.0
C1232 C 0.16153 0.28319 0.35413 0.0
C1233 C 0.16914 0.28359 0.33274 0.0
C1234 C 0.13277 0.26434 0.3625 0.0
C1235 C 0.12452 0.26198 0.38498 0.0
C1236 C 0.16101 0.25966 0.39881 0.0
C1237 C 0.15291 0.25755 0.41998 0.0
C1238 C 0.10843 0.25753 0.4275 0.0
C1239 C 0.07195 0.25956 0.41386 0.0
C1240 C 0.07987 0.26171 0.39268 0.0
C1241 C 0.10927 0.19226 0.29073 0.0
C1242 C 0.06183 0.18935 0.28945 0.0
C1243 C 0.12846 0.21093 0.3032 0.0
C1244 C 0.10066 0.22685 0.31487 0.0
C1245 C 0.0534 0.22361 0.31404 0.0
C1246 C 0.03417 0.20518 0.30138 0.0
C1247 C 0.12084 0.24691 0.32793 0.0
C1248 C 0.11251 0.24663 0.34925 0.0
C1249 C 0.14915 0.26582 0.31956 0.0
C1250 C 0.1572 0.26814 0.29705 0.0
C1251 C 0.12054 0.27035 0.2833 0.0
C1252 C 0.12845 0.2734 0.26219 0.0
C1253 C 0.1729 0.27447 0.25468 0.0
C1254 C 0.20951 0.27216 0.2682 0.0
C1255 C 0.20179 0.26907 0.28932 0.0
H1256 H 0.17897 0.27706 0.23836 0.0
H1257 H 0.10223 0.25589 0.4439 0.0
H1258 H 0.30935 0.12845 0.86492 0.0
H1259 H 0.34274 0.16143 0.84443 0.0
H1260 H 0.3096 0.21537 0.8916 0.0
H1261 H 0.26927 0.18317 0.91071 0.0
H1262 H 0.29433 0.23617 0.85897 0.0
H1263 H 0.42592 0.18865 0.87944 0.0
H1264 H 0.47258 0.1507 0.8832 0.0
H1265 H 0.47278 0.14058 0.81752 0.0
H1266 H 0.42578 0.17831 0.81338 0.0
H1267 H 0.43382 0.33256 0.81636 0.0
H1268 H 0.40168 0.29967 0.83852 0.0
H1269 H 0.41467 0.24636 0.78877 0.0
H1270 H 0.44937 0.279 0.76717 0.0
H1271 H 0.4419 0.22606 0.82321 0.0
H1272 H 0.30974 0.27448 0.80367 0.0
H1273 H 0.26637 0.31372 0.80078 0.0
H1274 H 0.2714 0.32323 0.86643 0.0
H1275 H 0.31517 0.28421 0.86976 0.0
C1276 C 0.30782 0.14734 0.87088 0.0
C1277 C 0.2854 0.15279 0.88958 0.0
C1278 C 0.32845 0.16627 0.85927 0.0
C1279 C 0.32998 0.19104 0.86654 0.0
C1280 C 0.30913 0.19646 0.88552 0.0
C1281 C 0.28658 0.17774 0.89671 0.0
C1282 C 0.35106 0.21149 0.85394 0.0
C1283 C 0.32704 0.23399 0.85151 0.0
C1284 C 0.39328 0.20873 0.84362 0.0
C1285 C 0.42207 0.18622 0.84612 0.0
C1286 C 0.43578 0.17827 0.86581 0.0
C1287 C 0.4623 0.1568 0.86801 0.0
C1288 C 0.47556 0.14322 0.85062 0.0
C1289 C 0.46248 0.15112 0.83098 0.0
C1290 C 0.43598 0.17256 0.8287 0.0
C1291 C 0.42935 0.31382 0.81024 0.0
C1292 C 0.44329 0.30816 0.79014 0.0
C1293 C 0.41092 0.29507 0.82282 0.0
C1294 C 0.40499 0.27056 0.81523 0.0
C1295 C 0.41881 0.26508 0.79498 0.0
C1296 C 0.43821 0.2837 0.7826 0.0
C1297 C 0.38521 0.2505 0.82845 0.0
C1298 C 0.40939 0.22813 0.83088 0.0
C1299 C 0.34349 0.25346 0.83897 0.0
C1300 C 0.31594 0.2765 0.83695 0.0
C1301 C 0.30167 0.28496 0.81749 0.0
C1302 C 0.27707 0.30717 0.81576 0.0
C1303 C 0.26625 0.32097 0.83338 0.0
C1304 C 0.27981 0.31253 0.85279 0.0
C1305 C 0.30444 0.29035 0.85462 0.0
H1306 H 0.2473 0.33819 0.83199 0.0
H1307 H 0.49602 0.12658 0.85236 0.0
H1308 H 0.78143 0.18364 0.61646 0.0
H1309 H 0.74542 0.21624 0.63756 0.0
H1310 H 0.62949 0.16784 0.64726 0.0
H1311 H 0.66609 0.13498 0.62664 0.0
H1312 H 0.6077 0.2193 0.63723 0.0
H1313 H 0.69613 0.17067 0.6838 0.0
H1314 H 0.76448 0.14964 0.69697 0.0
H1315 H 0.83369 0.22051 0.70115 0.0
H1316 H 0.76599 0.24193 0.6876 0.0
H1317 H 0.53637 0.27511 0.73758 0.0
H1318 H 0.57118 0.24354 0.715 0.0
H1319 H 0.63587 0.30234 0.67987 0.0
H1320 H 0.59876 0.33396 0.7016 0.0
H1321 H 0.68134 0.24532 0.70275 0.0
H1322 H 0.59071 0.29184 0.64983 0.0
H1323 H 0.51829 0.31065 0.63903 0.0
H1324 H 0.44984 0.24038 0.6489 0.0
H1325 H 0.52176 0.22142 0.66044 0.0
C1326 C 0.74806 0.18017 0.62293 0.0
C1327 C 0.72629 0.15699 0.61996 0.0
C1328 C 0.72765 0.19867 0.63501 0.0
C1329 C 0.68489 0.19437 0.64398 0.0
C1330 C 0.66245 0.1715 0.64042 0.0
C1331 C 0.68328 0.15281 0.62871 0.0
C1332 C 0.66435 0.21345 0.65765 0.0
C1333 C 0.62384 0.22497 0.65154 0.0
C1334 C 0.68522 0.2207 0.67641 0.0
C1335 C 0.72618 0.20787 0.68439 0.0
C1336 C 0.72611 0.18175 0.68726 0.0
C1337 C 0.7647 0.16976 0.69485 0.0
C1338 C 0.80346 0.18372 0.69982 0.0
C1339 C 0.80368 0.20971 0.69724 0.0
C1340 C 0.76521 0.22179 0.6896 0.0
C1341 C 0.55787 0.28118 0.72494 0.0
C1342 C 0.56462 0.3068 0.72102 0.0
C1343 C 0.57762 0.26323 0.71211 0.0
C1344 C 0.60533 0.2707 0.69559 0.0
C1345 C 0.6136 0.29629 0.69222 0.0
C1346 C 0.59258 0.31426 0.7046 0.0
C1347 C 0.62574 0.25167 0.68194 0.0
C1348 C 0.66578 0.23989 0.68825 0.0
C1349 C 0.6044 0.24407 0.66344 0.0
C1350 C 0.56133 0.25541 0.65645 0.0
C1351 C 0.56006 0.28055 0.65009 0.0
C1352 C 0.51914 0.29122 0.64376 0.0
C1353 C 0.47942 0.27677 0.6434 0.0
C1354 C 0.48058 0.2516 0.64932 0.0
C1355 C 0.52138 0.24091 0.65581 0.0
H1356 H 0.4478 0.28503 0.63843 0.0
H1357 H 0.83328 0.17441 0.70573 0.0
H1358 H 0.73387 0.34293 0.14796 0.0
H1359 H 0.77395 0.3112 0.16772 0.0
H1360 H 0.86098 0.29671 0.11565 0.0
H1361 H 0.82175 0.32924 0.09579 0.0
H1362 H 0.82602 0.2529 0.13571 0.0
H1363 H 0.90338 0.32968 0.15329 0.0
H1364 H 0.90955 0.37345 0.1652 0.0
H1365 H 0.84873 0.35308 0.22305 0.0
H1366 H 0.8416 0.30925 0.21138 0.0
H1367 H 0.97438 0.17579 0.19223 0.0
H1368 H 0.94279 0.20806 0.17021 0.0
H1369 H 0.87562 0.2409 0.22275 0.0
H1370 H 0.91077 0.21001 0.24525 0.0
H1371 H 0.90436 0.27616 0.20072 0.0
H1372 H 0.82042 0.20136 0.18386 0.0
H1373 H 0.81084 0.15729 0.17317 0.0
H1374 H 0.87733 0.17326 0.11567 0.0
H1375 H 0.88781 0.21737 0.12613 0.0
C1376 C 0.76178 0.3332 0.14069 0.0
C1377 C 0.77505 0.33895 0.12035 0.0
C1378 C 0.78456 0.315 0.15202 0.0
C1379 C 0.82088 0.30192 0.14327 0.0
C1380 C 0.83315 0.30675 0.12271 0.0
C1381 C 0.81055 0.32521 0.11135 0.0
C1382 C 0.84566 0.28318 0.15575 0.0
C1383 C 0.8438 0.25797 0.14976 0.0
C1384 C 0.86762 0.28979 0.1744 0.0
C1385 C 0.87157 0.31621 0.18137 0.0
C1386 C 0.89091 0.33458 0.16847 0.0
C1387 C 0.89467 0.35939 0.1752 0.0
C1388 C 0.87944 0.36606 0.19485 0.0
C1389 C 0.86047 0.34791 0.20782 0.0
C1390 C 0.85659 0.32307 0.20117 0.0
C1391 C 0.95291 0.18985 0.19919 0.0
C1392 C 0.94425 0.18983 0.22054 0.0
C1393 C 0.93446 0.20824 0.18647 0.0
C1394 C 0.90551 0.22656 0.19461 0.0
C1395 C 0.89741 0.22684 0.21598 0.0
C1396 C 0.91703 0.20889 0.22883 0.0
C1397 C 0.88416 0.2456 0.18095 0.0
C1398 C 0.8867 0.27095 0.18667 0.0
C1399 C 0.86201 0.23904 0.16226 0.0
C1400 C 0.85523 0.2126 0.15585 0.0
C1401 C 0.83319 0.19544 0.16898 0.0
C1402 C 0.82759 0.17046 0.16296 0.0
C1403 C 0.84355 0.16247 0.14377 0.0
C1404 C 0.86502 0.17947 0.13053 0.0
C1405 C 0.87076 0.20447 0.13649 0.0
H1406 H 0.83921 0.14312 0.13914 0.0
H1407 H 0.88243 0.38527 0.20004 0.0
H1408 H 0.83115 0.66529 0.59471 0.0
H1409 H 0.86646 0.69977 0.61343 0.0
H1410 H 0.7933 0.67823 0.66841 0.0
H1411 H 0.7534 0.64617 0.64925 0.0
H1412 H 0.79016 0.72372 0.66685 0.0
H1413 H 0.91567 0.66738 0.6573 0.0
H1414 H 0.96981 0.64162 0.63763 0.0
H1415 H 0.01655 0.70698 0.60516 0.0
H1416 H 0.96227 0.73307 0.62445 0.0
H1417 H 0.92884 0.78362 0.74216 0.0
H1418 H 0.89327 0.75262 0.71976 0.0
H1419 H 0.93645 0.79467 0.66642 0.0
H1420 H 0.97023 0.82663 0.68889 0.0
H1421 H 0.95539 0.74192 0.66516 0.0
H1422 H 0.83057 0.79766 0.67845 0.0
H1423 H 0.77276 0.82118 0.69785 0.0
H1424 H 0.72585 0.75308 0.72615 0.0
H1425 H 0.78388 0.72919 0.70723 0.0
C1426 C 0.82181 0.6681 0.61068 0.0
C1427 C 0.78923 0.65259 0.62033 0.0
C1428 C 0.84295 0.68761 0.62154 0.0
C1429 C 0.83344 0.69145 0.64254 0.0
C1430 C 0.80151 0.67576 0.65225 0.0
C1431 C 0.77918 0.65695 0.64126 0.0
C1432 C 0.85474 0.71238 0.65437 0.0
C1433 C 0.82648 0.72728 0.66671 0.0
C1434 C 0.90195 0.71781 0.65375 0.0
C1435 C 0.93454 0.70212 0.64215 0.0
C1436 C 0.93725 0.67622 0.64585 0.0
C1437 C 0.96801 0.66156 0.63479 0.0
C1438 C 0.9965 0.67264 0.62011 0.0
C1439 C 0.9944 0.69841 0.6165 0.0
C1440 C 0.96366 0.71314 0.6275 0.0
C1441 C 0.92973 0.78673 0.72575 0.0
C1442 C 0.95109 0.80806 0.71744 0.0
C1443 C 0.90976 0.76882 0.71293 0.0
C1444 C 0.91167 0.77159 0.69147 0.0
C1445 C 0.93429 0.79238 0.68299 0.0
C1446 C 0.95355 0.81059 0.69586 0.0
C1447 C 0.89085 0.75237 0.67798 0.0
C1448 C 0.91917 0.73803 0.66529 0.0
C1449 C 0.84387 0.74694 0.67871 0.0
C1450 C 0.8117 0.76164 0.69144 0.0
C1451 C 0.80846 0.78774 0.68906 0.0
C1452 C 0.77545 0.80112 0.69988 0.0
C1453 C 0.74532 0.78857 0.713 0.0
C1454 C 0.74894 0.76273 0.71582 0.0
C1455 C 0.78192 0.74928 0.70509 0.0
H1456 H 0.71908 0.79886 0.72096 0.0
H1457 H 0.02028 0.66127 0.61157 0.0
H1458 H 0.74368 0.85735 0.15135 0.0
H1459 H 0.70492 0.82553 0.17092 0.0
H1460 H 0.65897 0.79047 0.11468 0.0
H1461 H 0.69154 0.82475 0.09481 0.0
H1462 H 0.59745 0.78424 0.14002 0.0
H1463 H 0.75754 0.77018 0.14655 0.0
H1464 H 0.83724 0.78132 0.15412 0.0
H1465 H 0.80145 0.79836 0.21674 0.0
H1466 H 0.72146 0.78759 0.20949 0.0
H1467 H 0.55453 0.66731 0.19124 0.0
H1468 H 0.58657 0.70012 0.16917 0.0
H1469 H 0.60698 0.74731 0.22241 0.0
H1470 H 0.57412 0.71488 0.24446 0.0
H1471 H 0.68227 0.74511 0.19753 0.0
H1472 H 0.52018 0.7575 0.18917 0.0
H1473 H 0.44212 0.74457 0.18005 0.0
H1474 H 0.48573 0.72673 0.11864 0.0
H1475 H 0.56417 0.73917 0.12746 0.0
C1476 C 0.72415 0.84359 0.14287 0.0
C1477 C 0.72119 0.84413 0.12116 0.0
C1478 C 0.70291 0.82473 0.15427 0.0
C1479 C 0.68043 0.80484 0.14438 0.0
C1480 C 0.67662 0.80536 0.12278 0.0
C1481 C 0.69614 0.82492 0.11135 0.0
C1482 C 0.66093 0.78367 0.15661 0.0
C1483 C 0.61645 0.77545 0.15234 0.0
C1484 C 0.6852 0.77218 0.17294 0.0
C1485 C 0.73347 0.77824 0.17742 0.0
C1486 C 0.76666 0.77638 0.16191 0.0
C1487 C 0.81188 0.78264 0.16615 0.0
C1488 C 0.82438 0.79059 0.18589 0.0
C1489 C 0.79172 0.79221 0.20146 0.0
C1490 C 0.74646 0.78599 0.1973 0.0
C1491 C 0.56567 0.68472 0.19825 0.0
C1492 C 0.56241 0.68836 0.21967 0.0
C1493 C 0.58387 0.70345 0.1856 0.0
C1494 C 0.59897 0.72618 0.19415 0.0
C1495 C 0.59566 0.72987 0.21551 0.0
C1496 C 0.57716 0.71124 0.22813 0.0
C1497 C 0.61909 0.74601 0.18095 0.0
C1498 C 0.66365 0.75388 0.18506 0.0
C1499 C 0.5953 0.75671 0.16423 0.0
C1500 C 0.54812 0.74912 0.15902 0.0
C1501 C 0.51321 0.75062 0.17378 0.0
C1502 C 0.46888 0.74341 0.16865 0.0
C1503 C 0.45903 0.73488 0.14877 0.0
C1504 C 0.49345 0.73338 0.13401 0.0
C1505 C 0.53782 0.74052 0.13907 0.0
H1506 H 0.42469 0.7296 0.14472 0.0
H1507 H 0.85939 0.79546 0.18913 0.0
H1508 H 0.33761 0.86382 0.38091 0.0
H1509 H 0.37488 0.83122 0.36058 0.0
H1510 H 0.26733 0.77928 0.3763 0.0
H1511 H 0.23129 0.81164 0.39749 0.0
H1512 H 0.34397 0.75565 0.37627 0.0
H1513 H 0.27401 0.81373 0.32836 0.0
H1514 H 0.26105 0.8552 0.31272 0.0
H1515 H 0.40256 0.86109 0.29732 0.0
H1516 H 0.41646 0.81982 0.31311 0.0
H1517 H 0.38964 0.66561 0.29917 0.0
H1518 H 0.3536 0.69761 0.32065 0.0
H1519 H 0.45459 0.7516 0.30085 0.0
H1520 H 0.48759 0.72011 0.27791 0.0
H1521 H 0.3817 0.77431 0.30333 0.0
H1522 H 0.45393 0.71765 0.35075 0.0
H1523 H 0.46981 0.67648 0.36635 0.0
H1524 H 0.32939 0.6684 0.38313 0.0
H1525 H 0.31258 0.70938 0.36741 0.0
C1526 C 0.32232 0.84533 0.38017 0.0
C1527 C 0.28157 0.84019 0.39067 0.0
C1528 C 0.34338 0.82677 0.36842 0.0
C1529 C 0.32334 0.80291 0.36639 0.0
C1530 C 0.28339 0.79754 0.37749 0.0
C1531 C 0.26281 0.81599 0.38961 0.0
C1532 C 0.3434 0.78372 0.35244 0.0
C1533 C 0.35177 0.75966 0.36025 0.0
C1534 C 0.35485 0.78903 0.33165 0.0
C1535 C 0.34631 0.81379 0.32207 0.0
C1536 C 0.30239 0.82394 0.32175 0.0
C1537 C 0.29488 0.8474 0.31285 0.0
C1538 C 0.33097 0.86079 0.30407 0.0
C1539 C 0.37464 0.85072 0.30414 0.0
C1540 C 0.38234 0.8273 0.31305 0.0
C1541 C 0.40358 0.68445 0.29932 0.0
C1542 C 0.44125 0.69058 0.28709 0.0
C1543 C 0.38345 0.70265 0.31179 0.0
C1544 C 0.40209 0.72697 0.31298 0.0
C1545 C 0.43953 0.73304 0.30038 0.0
C1546 C 0.45855 0.71508 0.28734 0.0
C1547 C 0.38257 0.74617 0.32714 0.0
C1548 C 0.37416 0.77025 0.31936 0.0
C1549 C 0.37169 0.74095 0.34802 0.0
C1550 C 0.38195 0.7165 0.35777 0.0
C1551 C 0.42642 0.70704 0.3577 0.0
C1552 C 0.43558 0.68374 0.36656 0.0
C1553 C 0.40062 0.66982 0.37569 0.0
C1554 C 0.35644 0.6792 0.37604 0.0
C1555 C 0.34709 0.70247 0.36719 0.0
H1556 H 0.40776 0.65177 0.38252 0.0
H1557 H 0.32509 0.87895 0.29719 0.0
H1558 H 0.19001 0.62854 0.8691 0.0
H1559 H 0.15527 0.66111 0.8481 0.0
H1560 H 0.21534 0.71796 0.88675 0.0
H1561 H 0.2529 0.68565 0.90715 0.0
H1562 H 0.11425 0.72234 0.87475 0.0
H1563 H 0.26652 0.7128 0.84782 0.0
H1564 H 0.33153 0.68951 0.8337 0.0
H1565 H 0.24913 0.66368 0.7833 0.0
H1566 H 0.18336 0.68646 0.79735 0.0
H1567 H 0.07763 0.829 0.81324 0.0
H1568 H 0.1106 0.79694 0.8353 0.0
H1569 H 0.09704 0.74282 0.78615 0.0
H1570 H 0.06587 0.77538 0.76363 0.0
H1571 H 0.17368 0.73637 0.80404 0.0
H1572 H 0.02213 0.74635 0.829 0.0
H1573 H 0.95581 0.76945 0.84203 0.0
H1574 H 0.03209 0.7929 0.89511 0.0
H1575 H 0.0992 0.77033 0.88221 0.0
C1576 C 0.19637 0.64793 0.87311 0.0
C1577 C 0.225 0.65433 0.88975 0.0
C1578 C 0.17607 0.66651 0.86116 0.0
C1579 C 0.18307 0.69186 0.86583 0.0
C1580 C 0.20957 0.69843 0.88296 0.0
C1581 C 0.23073 0.67987 0.8947 0.0
C1582 C 0.16407 0.71144 0.85227 0.0
C1583 C 0.12743 0.72569 0.85937 0.0
C1584 C 0.18059 0.71515 0.83203 0.0
C1585 C 0.21983 0.701 0.82382 0.0
C1586 C 0.26206 0.70184 0.83391 0.0
C1587 C 0.2991 0.68881 0.82587 0.0
C1588 C 0.29442 0.67503 0.80766 0.0
C1589 C 0.25268 0.67428 0.79744 0.0
C1590 C 0.21551 0.68724 0.80544 0.0
C1591 C 0.0818 0.81026 0.80713 0.0
C1592 C 0.06906 0.80456 0.78679 0.0
C1593 C 0.10035 0.7919 0.8198 0.0
C1594 C 0.10527 0.76726 0.81261 0.0
C1595 C 0.09335 0.76166 0.7921 0.0
C1596 C 0.07563 0.78022 0.77925 0.0
C1597 C 0.1235 0.74748 0.82639 0.0
C1598 C 0.16009 0.73309 0.81936 0.0
C1599 C 0.10642 0.74345 0.8466 0.0
C1600 C 0.06587 0.75679 0.85454 0.0
C1601 C 0.02489 0.75656 0.84339 0.0
C1602 C 0.98713 0.76956 0.85075 0.0
C1603 C 0.98975 0.78267 0.86937 0.0
C1604 C 0.03012 0.78276 0.88068 0.0
C1605 C 0.06803 0.76985 0.87335 0.0
H1606 H 0.96049 0.79272 0.87506 0.0
H1607 H 0.32317 0.66502 0.80143 0.0
loop_
_geom_bond_atom_site_label_1
_geom_bond_atom_site_label_2
_geom_bond_distance
_geom_bond_site_symmetry_2
_ccdc_geom_bond_type
H0 C3 0.931 . S
H1 C6 0.928 . S
H2 C8 0.930 . S
C3 H0 0.931 . S
C3 C4 1.413 . S
C3 C5 1.360 . S
C4 C3 1.413 . S
C4 C8 1.429 . S
C5 C3 1.360 . S
C5 C6 1.372 . S
C6 H1 0.928 . S
C6 C5 1.372 . S
C6 C7 1.404 . S
C7 C6 1.404 . S
C7 C8 1.391 . S
C8 H2 0.930 . S
C8 C4 1.429 . S
C8 C7 1.391 . S
H9 C12 0.931 . S
H10 C15 0.928 . S
H11 C17 0.930 . S
C12 H9 0.931 . S
C12 C13 1.413 . S
C12 C14 1.360 . S
C13 C12 1.413 . S
C13 C17 1.429 . S
C14 C12 1.360 . S
C14 C15 1.372 . S
C15 H10 0.928 . S
C15 C14 1.372 . S
C15 C16 1.404 . S
C16 C15 1.404 . S
C16 C17 1.391 . S
C17 H11 0.930 . S
C17 C13 1.429 . S
C17 C16 1.391 . S
H18 C21 0.931 . S
H19 C24 0.928 . S
H20 C26 0.930 . S
C21 H18 0.931 . S
C21 C22 1.413 . S
C21 C23 1.360 . S
C22 C21 1.413 . S
C22 C26 1.429 . S
C23 C21 1.360 . S
C23 C24 1.372 . S
C24 H19 0.928 . S
C24 C23 1.372 . S
C24 C25 1.404 . S
C25 C24 1.404 . S
C25 C26 1.391 . S
C26 H20 0.930 . S
C26 C22 1.429 . S
C26 C25 1.391 . S
H27 C30 0.931 . S
H28 C33 0.928 . S
H29 C35 0.930 . S
C30 H27 0.931 . S
C30 C31 1.413 . S
C30 C32 1.360 . S
C31 C30 1.413 . S
C31 C35 1.429 . S
C32 C30 1.360 . S
C32 C33 1.372 . S
C33 H28 0.928 . S
C33 C32 1.372 . S
C33 C34 1.404 . S
C34 C33 1.404 . S
C34 C35 1.391 . S
C35 H29 0.930 . S
C35 C31 1.429 . S
C35 C34 1.391 . S
H36 C39 0.931 . S
H37 C42 0.928 . S
H38 C44 0.930 . S
C39 H36 0.931 . S
C39 C40 1.413 . S
C39 C41 1.360 . S
C40 C39 1.413 . S
C40 C44 1.429 . S
C41 C39 1.360 . S
C41 C42 1.372 . S
C42 H37 0.928 . S
C42 C41 1.372 . S
C42 C43 1.404 . S
C43 C42 1.404 . S
C43 C44 1.391 . S
C44 H38 0.930 . S
C44 C40 1.429 . S
C44 C43 1.391 . S
H45 C48 0.931 . S
H46 C51 0.928 . S
H47 C53 0.930 . S
C48 H45 0.931 . S
C48 C49 1.413 . S
C48 C50 1.360 . S
C49 C48 1.413 . S
C49 C53 1.429 . S
C50 C48 1.360 . S
C50 C51 1.372 . S
C51 H46 0.928 . S
C51 C50 1.372 . S
C51 C52 1.404 . S
C52 C51 1.404 . S
C52 C53 1.391 . S
C53 H47 0.930 . S
C53 C49 1.429 . S
C53 C52 1.391 . S
H54 C57 0.931 . S
H55 C60 0.928 . S
H56 C62 0.930 . S
C57 H54 0.931 . S
C57 C58 1.413 . S
C57 C59 1.360 . S
C58 C57 1.413 . S
C58 C62 1.429 . S
C59 C57 1.360 . S
C59 C60 1.372 . S
C60 H55 0.928 . S
C60 C59 1.372 . S
C60 C61 1.404 . S
C61 C60 1.404 . S
C61 C62 1.391 . S
C62 H56 0.930 . S
C62 C58 1.429 . S
C62 C61 1.391 . S
H63 C66 0.931 . S
H64 C69 0.928 . S
H65 C71 0.930 . S
C66 H63 0.931 . S
C66 C67 1.413 . S
C66 C68 1.360 . S
C67 C66 1.413 . S
C67 C71 1.429 . S
C68 C66 1.360 . S
C68 C69 1.372 . S
C69 H64 0.928 . S
C69 C68 1.372 . S
C69 C70 1.404 . S
C70 C69 1.404 . S
C70 C71 1.391 . S
C71 H65 0.930 . S
C71 C67 1.429 . S
C71 C70 1.391 . S
Eu72 N101 2.600 . S
Eu72 N107 2.562 . S
Eu72 O116 2.462 . S
Eu72 O117 2.373 . S
Eu72 O119 2.432 . S
Eu72 O120 2.311 . S
Eu72 O124 2.335 . S
Eu72 O127 2.372 . S
Eu72 C136 2.787 . S
C73 N74 1.365 . S
C73 C76 1.405 . S
C73 C80 1.448 . S
N74 C73 1.365 . S
N74 C77 1.319 . S
N74 Eu83 2.600 . S
C75 C77 1.397 . S
C75 C78 1.367 . S
C75 H95 0.931 . S
C76 C73 1.405 . S
C76 C78 1.403 . S
C76 C82 1.439 . S
C77 N74 1.319 . S
C77 C75 1.397 . S
C77 H88 0.930 . S
C78 C75 1.367 . S
C78 C76 1.403 . S
C78 H99 0.929 . S
C79 C80 1.430 . S
C79 C81 1.387 . S
C79 C85 1.404 . S
C80 C73 1.448 . S
C80 C79 1.430 . S
C80 N84 1.351 . S
C81 C79 1.387 . S
C81 C82 1.374 . S
C81 H96 0.931 . S
C82 C76 1.439 . S
C82 C81 1.374 . S
C82 H97 0.931 . S
Eu83 N74 2.600 . S
Eu83 N84 2.562 . S
Eu83 O118 2.338 . S
Eu83 O121 2.372 . S
Eu83 O122 2.462 . S
Eu83 O123 2.373 . S
Eu83 O125 2.432 . S
Eu83 O126 2.276 1_655 S
Eu83 C147 2.787 . S
N84 C80 1.351 . S
N84 Eu83 2.562 . S
N84 C86 1.325 . S
C85 C79 1.404 . S
C85 C87 1.366 . S
C85 H93 0.930 . S
C86 N84 1.325 . S
C86 C87 1.416 . S
C86 H92 0.929 . S
C87 C85 1.366 . S
C87 C86 1.416 . S
C87 H89 0.930 . S
H88 C77 0.930 . S
H89 C87 0.930 . S
H90 C105 0.930 . S
H91 C112 0.930 . S
H92 C86 0.929 . S
H93 C85 0.930 . S
H94 C108 0.929 . S
H95 C75 0.931 . S
H96 C81 0.931 . S
H97 C82 0.931 . S
H98 C103 0.931 . S
H99 C78 0.929 . S
H100 C111 0.930 . S
N101 Eu72 2.600 . S
N101 C102 1.365 . S
N101 C105 1.319 . S
C102 N101 1.365 . S
C102 C104 1.405 . S
C102 C110 1.448 . S
C103 H98 0.931 . S
C103 C105 1.397 . S
C103 C106 1.367 . S
C104 C102 1.405 . S
C104 C106 1.403 . S
C104 C137 1.439 . S
C105 H90 0.930 . S
C105 N101 1.319 . S
C105 C103 1.397 . S
C106 C103 1.367 . S
C106 C104 1.403 . S
C106 H113 0.929 . S
N107 Eu72 2.562 . S
N107 C108 1.325 . S
N107 C110 1.351 . S
C108 H94 0.929 . S
C108 N107 1.325 . S
C108 C112 1.416 . S
C109 C110 1.430 . S
C109 C111 1.404 . S
C109 C138 1.387 . S
C110 C102 1.448 . S
C110 N107 1.351 . S
C110 C109 1.430 . S
C111 H100 0.930 . S
C111 C109 1.404 . S
C111 C112 1.366 . S
C112 H91 0.930 . S
C112 C108 1.416 . S
C112 C111 1.366 . S
H113 C106 0.929 . S
H114 C137 0.931 . S
H115 C138 0.931 . S
O116 Eu72 2.462 . S
O116 C136 1.252 . S
O117 Eu72 2.373 . S
O117 C128 1.249 . S
O118 Eu83 2.338 . S
O118 C128 1.260 1_655 S
O119 Eu72 2.432 . S
O119 C136 1.268 . S
O120 Eu72 2.311 . S
O120 C135 1.232 1_455 S
O121 Eu83 2.372 . S
O121 C135 1.257 . S
O122 Eu83 2.462 . S
O122 C147 1.252 . S
O123 Eu83 2.373 . S
O123 C139 1.249 . S
O124 Eu72 2.335 . S
O124 C139 1.264 1_455 S
O125 Eu83 2.432 . S
O125 C147 1.268 . S
O126 Eu83 2.276 1_455 S
O126 C146 1.273 . S
O127 Eu72 2.372 . S
O127 C146 1.257 . S
C128 O117 1.249 . S
C128 O118 1.260 1_455 S
C129 C132 1.382 . S
C129 C134 1.390 . S
C129 C136 1.506 . S
C130 C131 1.398 . S
C130 C134 1.392 . S
C131 C130 1.398 . S
C131 C133 1.372 . S
C131 H148 0.931 . S
C132 C129 1.382 . S
C132 C133 1.390 . S
C132 H149 0.931 . S
C133 C131 1.372 . S
C133 C132 1.390 . S
C133 H150 0.929 . S
C134 C129 1.390 . S
C134 C130 1.392 . S
C134 H151 0.930 . S
C135 O120 1.232 1_655 S
C135 O121 1.257 . S
C136 Eu72 2.787 . S
C136 O116 1.252 . S
C136 O119 1.268 . S
C136 C129 1.506 . S
C137 C104 1.439 . S
C137 H114 0.931 . S
C137 C138 1.374 . S
C138 C109 1.387 . S
C138 H115 0.931 . S
C138 C137 1.374 . S
C139 O123 1.249 . S
C139 O124 1.264 1_655 S
C140 C143 1.382 . S
C140 C144 1.390 . S
C140 C147 1.506 . S
C141 C142 1.398 . S
C141 C144 1.392 . S
C142 C141 1.398 . S
C142 C145 1.372 . S
C142 H152 0.931 . S
C143 C140 1.382 . S
C143 C145 1.390 . S
C143 H153 0.931 . S
C144 C140 1.390 . S
C144 C141 1.392 . S
C144 H154 0.930 . S
C145 C142 1.372 . S
C145 C143 1.390 . S
C145 H155 0.929 . S
C146 O126 1.273 . S
C146 O127 1.257 . S
C147 Eu83 2.787 . S
C147 O122 1.252 . S
C147 O125 1.268 . S
C147 C140 1.506 . S
H148 C131 0.931 . S
H149 C132 0.931 . S
H150 C133 0.929 . S
H151 C134 0.930 . S
H152 C142 0.931 . S
H153 C143 0.931 . S
H154 C144 0.930 . S
H155 C145 0.929 . S
Eu156 N185 2.600 . S
Eu156 N191 2.562 . S
Eu156 O200 2.462 . S
Eu156 O201 2.373 . S
Eu156 O203 2.432 . S
Eu156 O204 2.291 . S
Eu156 O208 2.335 . S
Eu156 O211 2.372 . S
Eu156 C220 2.787 . S
C157 N158 1.365 . S
C157 C160 1.405 . S
C157 C164 1.448 . S
N158 C157 1.365 . S
N158 C161 1.319 . S
N158 Eu167 2.600 . S
C159 C161 1.397 . S
C159 C162 1.367 . S
C159 H179 0.931 . S
C160 C157 1.405 . S
C160 C162 1.403 . S
C160 C166 1.439 . S
C161 N158 1.319 . S
C161 C159 1.397 . S
C161 H172 0.930 . S
C162 C159 1.367 . S
C162 C160 1.403 . S
C162 H183 0.929 . S
C163 C164 1.430 . S
C163 C165 1.387 . S
C163 C169 1.404 . S
C164 C157 1.448 . S
C164 C163 1.430 . S
C164 N168 1.351 . S
C165 C163 1.387 . S
C165 C166 1.374 . S
C165 H180 0.931 . S
C166 C160 1.439 . S
C166 C165 1.374 . S
C166 H181 0.931 . S
Eu167 N158 2.600 . S
Eu167 N168 2.562 . S
Eu167 O202 2.335 . S
Eu167 O205 2.372 . S
Eu167 O206 2.462 . S
Eu167 O207 2.373 . S
Eu167 O209 2.432 . S
Eu167 O210 2.291 . S
Eu167 C231 2.787 . S
N168 C164 1.351 . S
N168 Eu167 2.562 . S
N168 C170 1.325 . S
C169 C163 1.404 . S
C169 C171 1.366 . S
C169 H177 0.930 . S
C170 N168 1.325 . S
C170 C171 1.416 . S
C170 H176 0.929 . S
C171 C169 1.366 . S
C171 C170 1.416 . S
C171 H173 0.930 . S
H172 C161 0.930 . S
H173 C171 0.930 . S
H174 C189 0.930 . S
H175 C196 0.930 . S
H176 C170 0.929 . S
H177 C169 0.930 . S
H178 C192 0.929 . S
H179 C159 0.931 . S
H180 C165 0.931 . S
H181 C166 0.931 . S
H182 C187 0.931 . S
H183 C162 0.929 . S
H184 C195 0.930 . S
N185 Eu156 2.600 . S
N185 C186 1.365 . S
N185 C189 1.319 . S
C186 N185 1.365 . S
C186 C188 1.405 . S
C186 C194 1.448 . S
C187 H182 0.931 . S
C187 C189 1.397 . S
C187 C190 1.367 . S
C188 C186 1.405 . S
C188 C190 1.403 . S
C188 C221 1.439 . S
C189 H174 0.930 . S
C189 N185 1.319 . S
C189 C187 1.397 . S
C190 C187 1.367 . S
C190 C188 1.403 . S
C190 H197 0.929 . S
N191 Eu156 2.562 . S
N191 C192 1.325 . S
N191 C194 1.351 . S
C192 H178 0.929 . S
C192 N191 1.325 . S
C192 C196 1.416 . S
C193 C194 1.430 . S
C193 C195 1.404 . S
C193 C222 1.387 . S
C194 C186 1.448 . S
C194 N191 1.351 . S
C194 C193 1.430 . S
C195 H184 0.930 . S
C195 C193 1.404 . S
C195 C196 1.366 . S
C196 H175 0.930 . S
C196 C192 1.416 . S
C196 C195 1.366 . S
H197 C190 0.929 . S
H198 C221 0.931 . S
H199 C222 0.931 . S
O200 Eu156 2.462 . S
O200 C220 1.252 . S
O201 Eu156 2.373 . S
O201 C212 1.249 . S
O202 Eu167 2.335 . S
O202 C212 1.264 . S
O203 Eu156 2.432 . S
O203 C220 1.268 . S
O204 Eu156 2.291 . S
O204 C219 1.255 . S
O205 Eu167 2.372 . S
O205 C219 1.257 . S
O206 Eu167 2.462 . S
O206 C231 1.252 . S
O207 Eu167 2.373 . S
O207 C223 1.249 . S
O208 Eu156 2.335 . S
O208 C223 1.264 . S
O209 Eu167 2.432 . S
O209 C231 1.268 . S
O210 Eu167 2.291 . S
O210 C230 1.255 . S
O211 Eu156 2.372 . S
O211 C230 1.257 . S
C212 O201 1.249 . S
C212 O202 1.264 . S
C213 C216 1.382 . S
C213 C218 1.390 . S
C213 C220 1.506 . S
C214 C215 1.398 . S
C214 C218 1.392 . S
C215 C214 1.398 . S
C215 C217 1.372 . S
C215 H232 0.931 . S
C216 C213 1.382 . S
C216 C217 1.390 . S
C216 H233 0.931 . S
C217 C215 1.372 . S
C217 C216 1.390 . S
C217 H234 0.929 . S
C218 C213 1.390 . S
C218 C214 1.392 . S
C218 H235 0.930 . S
C219 O204 1.255 . S
C219 O205 1.257 . S
C220 Eu156 2.787 . S
C220 O200 1.252 . S
C220 O203 1.268 . S
C220 C213 1.506 . S
C221 C188 1.439 . S
C221 H198 0.931 . S
C221 C222 1.374 . S
C222 C193 1.387 . S
C222 H199 0.931 . S
C222 C221 1.374 . S
C223 O207 1.249 . S
C223 O208 1.264 . S
C224 C227 1.382 . S
C224 C228 1.390 . S
C224 C231 1.506 . S
C225 C226 1.398 . S
C225 C228 1.392 . S
C226 C225 1.398 . S
C226 C229 1.372 . S
C226 H236 0.931 . S
C227 C224 1.382 . S
C227 C229 1.390 . S
C227 H237 0.931 . S
C228 C224 1.390 . S
C228 C225 1.392 . S
C228 H238 0.930 . S
C229 C226 1.372 . S
C229 C227 1.390 . S
C229 H239 0.929 . S
C230 O210 1.255 . S
C230 O211 1.257 . S
C231 Eu167 2.787 . S
C231 O206 1.252 . S
C231 O209 1.268 . S
C231 C224 1.506 . S
H232 C215 0.931 . S
H233 C216 0.931 . S
H234 C217 0.929 . S
H235 C218 0.930 . S
H236 C226 0.931 . S
H237 C227 0.931 . S
H238 C228 0.930 . S
H239 C229 0.929 . S
Eu240 N269 2.600 . S
Eu240 N275 2.562 . S
Eu240 O284 2.462 . S
Eu240 O285 2.373 . S
Eu240 O287 2.432 . S
Eu240 O288 2.291 . S
Eu240 O292 2.335 . S
Eu240 O295 2.372 . S
Eu240 C304 2.787 . S
C241 N242 1.365 . S
C241 C244 1.405 . S
C241 C248 1.448 . S
N242 C241 1.365 . S
N242 C245 1.319 . S
N242 Eu251 2.600 . S
C243 C245 1.397 . S
C243 C246 1.367 . S
C243 H263 0.931 . S
C244 C241 1.405 . S
C244 C246 1.403 . S
C244 C250 1.439 . S
C245 N242 1.319 . S
C245 C243 1.397 . S
C245 H256 0.930 . S
C246 C243 1.367 . S
C246 C244 1.403 . S
C246 H267 0.929 . S
C247 C248 1.430 . S
C247 C249 1.387 . S
C247 C253 1.404 . S
C248 C241 1.448 . S
C248 C247 1.430 . S
C248 N252 1.351 . S
C249 C247 1.387 . S
C249 C250 1.374 . S
C249 H264 0.931 . S
C250 C244 1.439 . S
C250 C249 1.374 . S
C250 H265 0.931 . S
Eu251 N242 2.600 . S
Eu251 N252 2.562 . S
Eu251 O286 2.335 1_655 S
Eu251 O289 2.372 . S
Eu251 O290 2.462 . S
Eu251 O291 2.373 . S
Eu251 O293 2.432 . S
Eu251 O294 2.291 1_655 S
Eu251 C315 2.787 . S
N252 C248 1.351 . S
N252 Eu251 2.562 . S
N252 C254 1.325 . S
C253 C247 1.404 . S
C253 C255 1.366 . S
C253 H261 0.930 . S
C254 N252 1.325 . S
C254 C255 1.416 . S
C254 H260 0.929 . S
C255 C253 1.366 . S
C255 C254 1.416 . S
C255 H257 0.930 . S
H256 C245 0.930 . S
H257 C255 0.930 . S
H258 C273 0.930 . S
H259 C280 0.930 . S
H260 C254 0.929 . S
H261 C253 0.930 . S
H262 C276 0.929 . S
H263 C243 0.931 . S
H264 C249 0.931 . S
H265 C250 0.931 . S
H266 C271 0.931 . S
H267 C246 0.929 . S
H268 C279 0.930 . S
N269 Eu240 2.600 . S
N269 C270 1.365 . S
N269 C273 1.319 . S
C270 N269 1.365 . S
C270 C272 1.405 . S
C270 C278 1.448 . S
C271 H266 0.931 . S
C271 C273 1.397 . S
C271 C274 1.367 . S
C272 C270 1.405 . S
C272 C274 1.403 . S
C272 C305 1.439 . S
C273 H258 0.930 . S
C273 N269 1.319 . S
C273 C271 1.397 . S
C274 C271 1.367 . S
C274 C272 1.403 . S
C274 H281 0.929 . S
N275 Eu240 2.562 . S
N275 C276 1.325 . S
N275 C278 1.351 . S
C276 H262 0.929 . S
C276 N275 1.325 . S
C276 C280 1.416 . S
C277 C278 1.430 . S
C277 C279 1.404 . S
C277 C306 1.387 . S
C278 C270 1.448 . S
C278 N275 1.351 . S
C278 C277 1.430 . S
C279 H268 0.930 . S
C279 C277 1.404 . S
C279 C280 1.366 . S
C280 H259 0.930 . S
C280 C276 1.416 . S
C280 C279 1.366 . S
H281 C274 0.929 . S
H282 C305 0.931 . S
H283 C306 0.931 . S
O284 Eu240 2.462 . S
O284 C304 1.252 . S
O285 Eu240 2.373 . S
O285 C296 1.249 . S
O286 Eu251 2.335 1_455 S
O286 C296 1.264 . S
O287 Eu240 2.432 . S
O287 C304 1.268 . S
O288 Eu240 2.291 . S
O288 C303 1.255 1_455 S
O289 Eu251 2.372 . S
O289 C303 1.257 . S
O290 Eu251 2.462 . S
O290 C315 1.252 . S
O291 Eu251 2.373 . S
O291 C307 1.249 . S
O292 Eu240 2.335 . S
O292 C307 1.264 1_455 S
O293 Eu251 2.432 . S
O293 C315 1.268 . S
O294 Eu251 2.291 1_455 S
O294 C314 1.255 . S
O295 Eu240 2.372 . S
O295 C314 1.257 . S
C296 O285 1.249 . S
C296 O286 1.264 . S
C297 C300 1.382 . S
C297 C302 1.390 . S
C297 C304 1.506 . S
C298 C299 1.398 . S
C298 C302 1.392 . S
C299 C298 1.398 . S
C299 C301 1.372 . S
C299 H316 0.931 . S
C300 C297 1.382 . S
C300 C301 1.390 . S
C300 H317 0.931 . S
C301 C299 1.372 . S
C301 C300 1.390 . S
C301 H318 0.929 . S
C302 C297 1.390 . S
C302 C298 1.392 . S
C302 H319 0.930 . S
C303 O288 1.255 1_655 S
C303 O289 1.257 . S
C304 Eu240 2.787 . S
C304 O284 1.252 . S
C304 O287 1.268 . S
C304 C297 1.506 . S
C305 C272 1.439 . S
C305 H282 0.931 . S
C305 C306 1.374 . S
C306 C277 1.387 . S
C306 H283 0.931 . S
C306 C305 1.374 . S
C307 O291 1.249 . S
C307 O292 1.264 1_655 S
C308 C311 1.382 . S
C308 C312 1.390 . S
C308 C315 1.506 . S
C309 C310 1.398 . S
C309 C312 1.392 . S
C310 C309 1.398 . S
C310 C313 1.372 . S
C310 H320 0.931 . S
C311 C308 1.382 . S
C311 C313 1.390 . S
C311 H321 0.931 . S
C312 C308 1.390 . S
C312 C309 1.392 . S
C312 H322 0.930 . S
C313 C310 1.372 . S
C313 C311 1.390 . S
C313 H323 0.929 . S
C314 O294 1.255 . S
C314 O295 1.257 . S
C315 Eu251 2.787 . S
C315 O290 1.252 . S
C315 O293 1.268 . S
C315 C308 1.506 . S
H316 C299 0.931 . S
H317 C300 0.931 . S
H318 C301 0.929 . S
H319 C302 0.930 . S
H320 C310 0.931 . S
H321 C311 0.931 . S
H322 C312 0.930 . S
H323 C313 0.929 . S
Eu324 N353 2.600 . S
Eu324 N359 2.562 . S
Eu324 O368 2.462 . S
Eu324 O369 2.373 . S
Eu324 O371 2.432 . S
Eu324 O372 2.291 . S
Eu324 O376 2.335 . S
Eu324 O379 2.372 . S
Eu324 C388 2.787 . S
C325 N326 1.365 . S
C325 C328 1.405 . S
C325 C332 1.448 . S
N326 C325 1.365 . S
N326 C329 1.319 . S
N326 Eu335 2.600 . S
C327 C329 1.397 . S
C327 C330 1.367 . S
C327 H347 0.931 . S
C328 C325 1.405 . S
C328 C330 1.403 . S
C328 C334 1.439 . S
C329 N326 1.319 . S
C329 C327 1.397 . S
C329 H340 0.930 . S
C330 C327 1.367 . S
C330 C328 1.403 . S
C330 H351 0.929 . S
C331 C332 1.430 . S
C331 C333 1.387 . S
C331 C337 1.404 . S
C332 C325 1.448 . S
C332 C331 1.430 . S
C332 N336 1.351 . S
C333 C331 1.387 . S
C333 C334 1.374 . S
C333 H348 0.931 . S
C334 C328 1.439 . S
C334 C333 1.374 . S
C334 H349 0.931 . S
Eu335 N326 2.600 . S
Eu335 N336 2.562 . S
Eu335 O370 2.335 . S
Eu335 O373 2.372 . S
Eu335 O374 2.462 . S
Eu335 O375 2.373 . S
Eu335 O377 2.432 . S
Eu335 O378 2.291 . S
Eu335 C399 2.787 . S
N336 C332 1.351 . S
N336 Eu335 2.562 . S
N336 C338 1.325 . S
C337 C331 1.404 . S
C337 C339 1.366 . S
C337 H345 0.930 . S
C338 N336 1.325 . S
C338 C339 1.416 . S
C338 H344 0.929 . S
C339 C337 1.366 . S
C339 C338 1.416 . S
C339 H341 0.930 . S
H340 C329 0.930 . S
H341 C339 0.930 . S
H342 C357 0.930 . S
H343 C364 0.930 . S
H344 C338 0.929 . S
H345 C337 0.930 . S
H346 C360 0.929 . S
H347 C327 0.931 . S
H348 C333 0.931 . S
H349 C334 0.931 . S
H350 C355 0.931 . S
H351 C330 0.929 . S
H352 C363 0.930 . S
N353 Eu324 2.600 . S
N353 C354 1.365 . S
N353 C357 1.319 . S
C354 N353 1.365 . S
C354 C356 1.405 . S
C354 C362 1.448 . S
C355 H350 0.931 . S
C355 C357 1.397 . S
C355 C358 1.367 . S
C356 C354 1.405 . S
C356 C358 1.403 . S
C356 C389 1.439 . S
C357 H342 0.930 . S
C357 N353 1.319 . S
C357 C355 1.397 . S
C358 C355 1.367 . S
C358 C356 1.403 . S
C358 H365 0.929 . S
N359 Eu324 2.562 . S
N359 C360 1.325 . S
N359 C362 1.351 . S
C360 H346 0.929 . S
C360 N359 1.325 . S
C360 C364 1.416 . S
C361 C362 1.430 . S
C361 C363 1.404 . S
C361 C390 1.387 . S
C362 C354 1.448 . S
C362 N359 1.351 . S
C362 C361 1.430 . S
C363 H352 0.930 . S
C363 C361 1.404 . S
C363 C364 1.366 . S
C364 H343 0.930 . S
C364 C360 1.416 . S
C364 C363 1.366 . S
H365 C358 0.929 . S
H366 C389 0.931 . S
H367 C390 0.931 . S
O368 Eu324 2.462 . S
O368 C388 1.252 . S
O369 Eu324 2.373 . S
O369 C380 1.249 . S
O370 Eu335 2.335 . S
O370 C380 1.264 . S
O371 Eu324 2.432 . S
O371 C388 1.268 . S
O372 Eu324 2.291 . S
O372 C387 1.255 . S
O373 Eu335 2.372 . S
O373 C387 1.257 . S
O374 Eu335 2.462 . S
O374 C399 1.252 . S
O375 Eu335 2.373 . S
O375 C391 1.249 . S
O376 Eu324 2.335 . S
O376 C391 1.264 . S
O377 Eu335 2.432 . S
O377 C399 1.268 . S
O378 Eu335 2.291 . S
O378 C398 1.255 . S
O379 Eu324 2.372 . S
O379 C398 1.257 . S
C380 O369 1.249 . S
C380 O370 1.264 . S
C381 C384 1.382 . S
C381 C386 1.390 . S
C381 C388 1.506 . S
C382 C383 1.398 . S
C382 C386 1.392 . S
C383 C382 1.398 . S
C383 C385 1.372 . S
C383 H400 0.931 . S
C384 C381 1.382 . S
C384 C385 1.390 . S
C384 H401 0.931 . S
C385 C383 1.372 . S
C385 C384 1.390 . S
C385 H402 0.929 . S
C386 C381 1.390 . S
C386 C382 1.392 . S
C386 H403 0.930 . S
C387 O372 1.255 . S
C387 O373 1.257 . S
C388 Eu324 2.787 . S
C388 O368 1.252 . S
C388 O371 1.268 . S
C388 C381 1.506 . S
C389 C356 1.439 . S
C389 H366 0.931 . S
C389 C390 1.374 . S
C390 C361 1.387 . S
C390 H367 0.931 . S
C390 C389 1.374 . S
C391 O375 1.249 . S
C391 O376 1.264 . S
C392 C395 1.382 . S
C392 C396 1.390 . S
C392 C399 1.506 . S
C393 C394 1.398 . S
C393 C396 1.392 . S
C394 C393 1.398 . S
C394 C397 1.372 . S
C394 H404 0.931 . S
C395 C392 1.382 . S
C395 C397 1.390 . S
C395 H405 0.931 . S
C396 C392 1.390 . S
C396 C393 1.392 . S
C396 H406 0.930 . S
C397 C394 1.372 . S
C397 C395 1.390 . S
C397 H407 0.929 . S
C398 O378 1.255 . S
C398 O379 1.257 . S
C399 Eu335 2.787 . S
C399 O374 1.252 . S
C399 O377 1.268 . S
C399 C392 1.506 . S
H400 C383 0.931 . S
H401 C384 0.931 . S
H402 C385 0.929 . S
H403 C386 0.930 . S
H404 C394 0.931 . S
H405 C395 0.931 . S
H406 C396 0.930 . S
H407 C397 0.929 . S
H408 C426 0.951 . S
H409 C428 0.951 . S
H410 C430 0.950 . S
H411 C431 0.950 . S
H412 C433 0.950 . S
H413 C436 0.950 . S
H414 C437 0.950 . S
H415 C439 0.950 . S
H416 C440 0.950 . S
H417 C441 0.951 . S
H418 C443 0.951 . S
H419 C445 0.950 . S
H420 C446 0.950 . S
H421 C448 0.950 . S
H422 C451 0.950 . S
H423 C452 0.950 . S
H424 C454 0.950 . S
H425 C455 0.950 . S
C426 H408 0.951 . S
C426 C427 1.366 . S
C426 C428 1.388 . S
C427 C426 1.366 . S
C427 C431 1.385 . S
C428 H409 0.951 . S
C428 C426 1.388 . S
C428 C429 1.366 . S
C429 C428 1.366 . S
C429 C430 1.414 . S
C429 C432 1.499 . S
C430 H410 0.950 . S
C430 C429 1.414 . S
C430 C431 1.374 . S
C431 H411 0.950 . S
C431 C427 1.385 . S
C431 C430 1.374 . S
C432 C429 1.499 . S
C432 C433 1.373 . S
C432 C434 1.389 1_565 S
C433 H412 0.950 . S
C433 C432 1.373 . S
C433 C449 1.377 1_565 S
C434 C432 1.389 1_545 S
C434 C435 1.524 . S
C434 C448 1.377 . S
C435 C434 1.524 . S
C435 C436 1.397 1_545 S
C435 C440 1.363 . S
C436 H413 0.950 . S
C436 C435 1.397 1_565 S
C436 C437 1.334 . S
C437 H414 0.950 . S
C437 C436 1.334 . S
C437 C438 1.287 1_565 S
C438 C437 1.287 1_545 S
C438 C439 1.524 . S
C438 H457 0.914 1_545 S
C439 H415 0.950 . S
C439 C438 1.524 . S
C439 C440 1.415 . S
C440 H416 0.950 . S
C440 C435 1.363 . S
C440 C439 1.415 . S
C441 H417 0.951 . S
C441 C442 1.366 . S
C441 C443 1.388 . S
C442 C441 1.366 . S
C442 C446 1.385 . S
C443 H418 0.951 . S
C443 C441 1.388 . S
C443 C444 1.366 . S
C444 C443 1.366 . S
C444 C445 1.414 . S
C444 C447 1.499 . S
C445 H419 0.950 . S
C445 C444 1.414 . S
C445 C446 1.374 . S
C446 H420 0.950 . S
C446 C442 1.385 . S
C446 C445 1.374 . S
C447 C444 1.499 . S
C447 C448 1.373 . S
C447 C449 1.389 . S
C448 H421 0.950 . S
C448 C434 1.377 . S
C448 C447 1.373 . S
C449 C433 1.377 1_545 S
C449 C447 1.389 . S
C449 C450 1.524 . S
C450 C449 1.524 . S
C450 C451 1.397 . S
C450 C455 1.363 1_545 S
C451 H422 0.950 . S
C451 C450 1.397 . S
C451 C452 1.334 . S
C452 H423 0.950 . S
C452 C451 1.334 . S
C452 C453 1.287 . S
C453 C452 1.287 . S
C453 C454 1.524 1_545 S
C453 H456 0.999 . S
C454 H424 0.950 . S
C454 C453 1.524 1_565 S
C454 C455 1.415 . S
C455 H425 0.950 . S
C455 C450 1.363 1_565 S
C455 C454 1.415 . S
H456 C453 0.999 . S
H457 C438 0.914 1_565 S
H458 C476 0.951 . S
H459 C478 0.951 . S
H460 C480 0.950 . S
H461 C481 0.950 . S
H462 C483 0.950 . S
H463 C486 0.950 . S
H464 C487 0.950 . S
H465 C489 0.950 . S
H466 C490 0.950 . S
H467 C491 0.951 . S
H468 C493 0.951 . S
H469 C495 0.950 . S
H470 C496 0.950 . S
H471 C498 0.950 . S
H472 C501 0.950 . S
H473 C502 0.950 . S
H474 C504 0.950 . S
H475 C505 0.950 . S
C476 H458 0.951 . S
C476 C477 1.366 . S
C476 C478 1.388 . S
C477 C476 1.366 . S
C477 C481 1.385 . S
C478 H459 0.951 . S
C478 C476 1.388 . S
C478 C479 1.366 . S
C479 C478 1.366 . S
C479 C480 1.414 . S
C479 C482 1.499 . S
C480 H460 0.950 . S
C480 C479 1.414 . S
C480 C481 1.374 . S
C481 H461 0.950 . S
C481 C477 1.385 . S
C481 C480 1.374 . S
C482 C479 1.499 . S
C482 C483 1.373 . S
C482 C484 1.389 . S
C483 H462 0.950 . S
C483 C482 1.373 . S
C483 C499 1.377 . S
C484 C482 1.389 . S
C484 C485 1.524 . S
C484 C498 1.377 . S
C485 C484 1.524 . S
C485 C486 1.397 . S
C485 C490 1.363 . S
C486 H463 0.950 . S
C486 C485 1.397 . S
C486 C487 1.334 . S
C487 H464 0.950 . S
C487 C486 1.334 . S
C487 C488 1.287 . S
C488 C487 1.287 . S
C488 C489 1.524 . S
C488 H507 0.913 . S
C489 H465 0.950 . S
C489 C488 1.524 . S
C489 C490 1.415 . S
C490 H466 0.950 . S
C490 C485 1.363 . S
C490 C489 1.415 . S
C491 H467 0.951 . S
C491 C492 1.366 . S
C491 C493 1.388 . S
C492 C491 1.366 . S
C492 C496 1.385 . S
C493 H468 0.951 . S
C493 C491 1.388 . S
C493 C494 1.366 . S
C494 C493 1.366 . S
C494 C495 1.414 . S
C494 C497 1.499 . S
C495 H469 0.950 . S
C495 C494 1.414 . S
C495 C496 1.374 . S
C496 H470 0.950 . S
C496 C492 1.385 . S
C496 C495 1.374 . S
C497 C494 1.499 . S
C497 C498 1.373 . S
C497 C499 1.389 . S
C498 H471 0.950 . S
C498 C484 1.377 . S
C498 C497 1.373 . S
C499 C483 1.377 . S
C499 C497 1.389 . S
C499 C500 1.524 . S
C500 C499 1.524 . S
C500 C501 1.397 . S
C500 C505 1.363 . S
C501 H472 0.950 . S
C501 C500 1.397 . S
C501 C502 1.334 . S
C502 H473 0.950 . S
C502 C501 1.334 . S
C502 C503 1.287 . S
C503 C502 1.287 . S
C503 C504 1.524 . S
C503 H506 0.999 . S
C504 H474 0.950 . S
C504 C503 1.524 . S
C504 C505 1.415 . S
C505 H475 0.950 . S
C505 C500 1.363 . S
C505 C504 1.415 . S
H506 C503 0.999 . S
H507 C488 0.913 . S
H508 C526 0.951 . S
H509 C528 0.951 . S
H510 C530 0.950 . S
H511 C531 0.950 . S
H512 C533 0.950 . S
H513 C536 0.950 . S
H514 C537 0.950 . S
H515 C539 0.950 . S
H516 C540 0.950 . S
H517 C541 0.951 . S
H518 C543 0.951 . S
H519 C545 0.950 . S
H520 C546 0.950 . S
H521 C548 0.950 . S
H522 C551 0.950 . S
H523 C552 0.950 . S
H524 C554 0.950 . S
H525 C555 0.950 . S
C526 H508 0.951 . S
C526 C527 1.366 . S
C526 C528 1.388 . S
C527 C526 1.366 . S
C527 C531 1.385 . S
C528 H509 0.951 . S
C528 C526 1.388 . S
C528 C529 1.366 . S
C529 C528 1.366 . S
C529 C530 1.414 . S
C529 C532 1.499 . S
C530 H510 0.950 . S
C530 C529 1.414 . S
C530 C531 1.374 . S
C531 H511 0.950 . S
C531 C527 1.385 . S
C531 C530 1.374 . S
C532 C529 1.499 . S
C532 C533 1.373 . S
C532 C534 1.389 . S
C533 H512 0.950 . S
C533 C532 1.373 . S
C533 C549 1.377 . S
C534 C532 1.389 . S
C534 C535 1.524 . S
C534 C548 1.377 . S
C535 C534 1.524 . S
C535 C536 1.397 . S
C535 C540 1.363 . S
C536 H513 0.950 . S
C536 C535 1.397 . S
C536 C537 1.334 . S
C537 H514 0.950 . S
C537 C536 1.334 . S
C537 C538 1.287 . S
C538 C537 1.287 . S
C538 C539 1.524 . S
C538 H557 0.913 . S
C539 H515 0.950 . S
C539 C538 1.524 . S
C539 C540 1.415 . S
C540 H516 0.950 . S
C540 C535 1.363 . S
C540 C539 1.415 . S
C541 H517 0.951 . S
C541 C542 1.366 . S
C541 C543 1.388 . S
C542 C541 1.366 . S
C542 C546 1.385 . S
C543 H518 0.951 . S
C543 C541 1.388 . S
C543 C544 1.366 . S
C544 C543 1.366 . S
C544 C545 1.414 . S
C544 C547 1.499 . S
C545 H519 0.950 . S
C545 C544 1.414 . S
C545 C546 1.374 . S
C546 H520 0.950 . S
C546 C542 1.385 . S
C546 C545 1.374 . S
C547 C544 1.499 . S
C547 C548 1.373 . S
C547 C549 1.389 . S
C548 H521 0.950 . S
C548 C534 1.377 . S
C548 C547 1.373 . S
C549 C533 1.377 . S
C549 C547 1.389 . S
C549 C550 1.524 . S
C550 C549 1.524 . S
C550 C551 1.397 . S
C550 C555 1.363 . S
C551 H522 0.950 . S
C551 C550 1.397 . S
C551 C552 1.334 . S
C552 H523 0.950 . S
C552 C551 1.334 . S
C552 C553 1.287 . S
C553 C552 1.287 . S
C553 C554 1.524 . S
C553 H556 0.999 . S
C554 H524 0.950 . S
C554 C553 1.524 . S
C554 C555 1.415 . S
C555 H525 0.950 . S
C555 C550 1.363 . S
C555 C554 1.415 . S
H556 C553 0.999 . S
H557 C538 0.913 . S
H558 C576 0.951 . S
H559 C578 0.951 . S
H560 C580 0.950 . S
H561 C581 0.950 . S
H562 C583 0.950 . S
H563 C586 0.950 . S
H564 C587 0.950 . S
H565 C589 0.950 . S
H566 C590 0.950 . S
H567 C591 0.951 1_455 S
H568 C593 0.951 . S
H569 C595 0.950 . S
H570 C596 0.950 . S
H571 C598 0.950 . S
H572 C601 0.950 1_545 S
H573 C602 0.950 . S
H574 C604 0.950 1_455 S
H575 C605 0.950 . S
C576 H558 0.951 . S
C576 C577 1.366 . S
C576 C578 1.388 . S
C577 C576 1.366 . S
C577 C581 1.385 . S
C578 H559 0.951 . S
C578 C576 1.388 . S
C578 C579 1.366 . S
C579 C578 1.366 . S
C579 C580 1.414 . S
C579 C582 1.499 . S
C580 H560 0.950 . S
C580 C579 1.414 . S
C580 C581 1.374 . S
C581 H561 0.950 . S
C581 C577 1.385 . S
C581 C580 1.374 . S
C582 C579 1.499 . S
C582 C583 1.373 . S
C582 C584 1.389 1_565 S
C583 H562 0.950 . S
C583 C582 1.373 . S
C583 C599 1.377 . S
C584 C582 1.389 1_545 S
C584 C585 1.524 . S
C584 C598 1.377 . S
C585 C584 1.524 . S
C585 C586 1.397 . S
C585 C590 1.363 . S
C586 H563 0.950 . S
C586 C585 1.397 . S
C586 C587 1.334 . S
C587 H564 0.950 . S
C587 C586 1.334 . S
C587 C588 1.287 . S
C588 C587 1.287 . S
C588 C589 1.524 . S
C588 H607 0.913 . S
C589 H565 0.950 . S
C589 C588 1.524 . S
C589 C590 1.415 . S
C590 H566 0.950 . S
C590 C585 1.363 . S
C590 C589 1.415 . S
C591 H567 0.951 1_655 S
C591 C592 1.366 . S
C591 C593 1.388 . S
C592 C591 1.366 . S
C592 C596 1.385 . S
C593 H568 0.951 . S
C593 C591 1.388 . S
C593 C594 1.366 . S
C594 C593 1.366 . S
C594 C595 1.414 . S
C594 C597 1.499 . S
C595 H569 0.950 . S
C595 C594 1.414 . S
C595 C596 1.374 . S
C596 H570 0.950 . S
C596 C592 1.385 . S
C596 C595 1.374 . S
C597 C594 1.499 . S
C597 C598 1.373 . S
C597 C599 1.389 1_545 S
C598 H571 0.950 . S
C598 C584 1.377 . S
C598 C597 1.373 . S
C599 C583 1.377 . S
C599 C597 1.389 1_565 S
C599 C600 1.524 . S
C600 C599 1.524 . S
C600 C601 1.397 . S
C600 C605 1.363 . S
C601 H572 0.950 1_565 S
C601 C600 1.397 . S
C601 C602 1.334 . S
C602 H573 0.950 . S
C602 C601 1.334 . S
C602 C603 1.287 . S
C603 C602 1.287 . S
C603 C604 1.524 . S
C603 H606 0.999 . S
C604 H574 0.950 1_655 S
C604 C603 1.524 . S
C604 C605 1.415 . S
C605 H575 0.950 . S
C605 C600 1.363 . S
C605 C604 1.415 . S
H606 C603 0.999 . S
H607 C588 0.913 . S
H608 C626 0.951 . S
H609 C628 0.951 . S
H610 C630 0.950 . S
H611 C631 0.950 . S
H612 C633 0.950 . S
H613 C636 0.950 . S
H614 C637 0.950 . S
H615 C639 0.950 . S
H616 C640 0.950 . S
H617 C641 0.949 . S
H618 C643 0.951 . S
H619 C645 0.950 . S
H620 C646 0.950 . S
H621 C648 0.950 . S
H622 C651 0.950 . S
H623 C652 0.950 . S
H624 C654 0.950 . S
H625 C655 0.950 . S
C626 H608 0.951 . S
C626 C627 1.366 . S
C626 C628 1.388 . S
C627 C626 1.366 . S
C627 C631 1.385 . S
C628 H609 0.951 . S
C628 C626 1.388 . S
C628 C629 1.366 . S
C629 C628 1.366 . S
C629 C630 1.414 . S
C629 C632 1.499 . S
C630 H610 0.950 . S
C630 C629 1.414 . S
C630 C631 1.374 . S
C631 H611 0.950 . S
C631 C627 1.385 . S
C631 C630 1.374 . S
C632 C629 1.499 . S
C632 C633 1.373 1_545 S
C632 C634 1.389 . S
C633 H612 0.950 . S
C633 C632 1.373 1_565 S
C633 C649 1.377 . S
C634 C632 1.389 . S
C634 C635 1.524 . S
C634 C648 1.377 1_545 S
C635 C634 1.524 . S
C635 C636 1.397 . S
C635 C640 1.363 . S
C636 H613 0.950 . S
C636 C635 1.397 . S
C636 C637 1.334 . S
C637 H614 0.950 . S
C637 C636 1.334 . S
C637 C638 1.287 . S
C638 C637 1.287 . S
C638 C639 1.524 . S
C638 H657 0.913 . S
C639 H615 0.950 . S
C639 C638 1.524 . S
C639 C640 1.415 . S
C640 H616 0.950 . S
C640 C635 1.363 . S
C640 C639 1.415 . S
C641 H617 0.949 . S
C641 C642 1.366 . S
C641 C643 1.388 . S
C642 C641 1.366 . S
C642 C646 1.385 . S
C643 H618 0.951 . S
C643 C641 1.388 . S
C643 C644 1.366 . S
C644 C643 1.366 . S
C644 C645 1.414 . S
C644 C647 1.499 . S
C645 H619 0.950 . S
C645 C644 1.414 . S
C645 C646 1.374 . S
C646 H620 0.950 . S
C646 C642 1.385 . S
C646 C645 1.374 . S
C647 C644 1.499 . S
C647 C648 1.373 . S
C647 C649 1.389 . S
C648 H621 0.950 . S
C648 C634 1.377 1_565 S
C648 C647 1.373 . S
C649 C633 1.377 . S
C649 C647 1.389 . S
C649 C650 1.524 . S
C650 C649 1.524 . S
C650 C651 1.397 . S
C650 C655 1.363 . S
C651 H622 0.950 . S
C651 C650 1.397 . S
C651 C652 1.334 . S
C652 H623 0.950 . S
C652 C651 1.334 . S
C652 C653 1.287 . S
C653 C652 1.287 . S
C653 C654 1.524 . S
C653 H656 0.999 . S
C654 H624 0.950 . S
C654 C653 1.524 . S
C654 C655 1.415 . S
C655 H625 0.950 . S
C655 C650 1.363 . S
C655 C654 1.415 . S
H656 C653 0.999 . S
H657 C638 0.913 . S
H658 C676 0.951 . S
H659 C678 0.951 . S
H660 C680 0.950 . S
H661 C681 0.950 . S
H662 C683 0.950 . S
H663 C686 0.950 . S
H664 C687 0.950 . S
H665 C689 0.950 . S
H666 C690 0.950 . S
H667 C691 0.951 . S
H668 C693 0.951 . S
H669 C695 0.950 . S
H670 C696 0.950 . S
H671 C698 0.950 . S
H672 C701 0.950 . S
H673 C702 0.950 . S
H674 C704 0.950 . S
H675 C705 0.950 . S
C676 H658 0.951 . S
C676 C677 1.366 . S
C676 C678 1.388 . S
C677 C676 1.366 . S
C677 C681 1.385 . S
C678 H659 0.951 . S
C678 C676 1.388 . S
C678 C679 1.366 . S
C679 C678 1.366 . S
C679 C680 1.414 . S
C679 C682 1.499 . S
C680 H660 0.950 . S
C680 C679 1.414 . S
C680 C681 1.374 . S
C681 H661 0.950 . S
C681 C677 1.385 . S
C681 C680 1.374 . S
C682 C679 1.499 . S
C682 C683 1.373 . S
C682 C684 1.389 . S
C683 H662 0.950 . S
C683 C682 1.373 . S
C683 C699 1.377 . S
C684 C682 1.389 . S
C684 C685 1.524 . S
C684 C698 1.377 . S
C685 C684 1.524 . S
C685 C686 1.397 . S
C685 C690 1.363 . S
C686 H663 0.950 . S
C686 C685 1.397 . S
C686 C687 1.334 . S
C687 H664 0.950 . S
C687 C686 1.334 . S
C687 C688 1.287 . S
C688 C687 1.287 . S
C688 C689 1.524 . S
C688 H707 0.913 . S
C689 H665 0.950 . S
C689 C688 1.524 . S
C689 C690 1.415 . S
C690 H666 0.950 . S
C690 C685 1.363 . S
C690 C689 1.415 . S
C691 H667 0.951 . S
C691 C692 1.366 . S
C691 C693 1.388 . S
C692 C691 1.366 . S
C692 C696 1.385 . S
C693 H668 0.951 . S
C693 C691 1.388 . S
C693 C694 1.366 . S
C694 C693 1.366 . S
C694 C695 1.414 . S
C694 C697 1.499 . S
C695 H669 0.950 . S
C695 C694 1.414 . S
C695 C696 1.374 . S
C696 H670 0.950 . S
C696 C692 1.385 . S
C696 C695 1.374 . S
C697 C694 1.499 . S
C697 C698 1.373 . S
C697 C699 1.389 . S
C698 H671 0.950 . S
C698 C684 1.377 . S
C698 C697 1.373 . S
C699 C683 1.377 . S
C699 C697 1.389 . S
C699 C700 1.524 . S
C700 C699 1.524 . S
C700 C701 1.397 . S
C700 C705 1.363 . S
C701 H672 0.950 . S
C701 C700 1.397 . S
C701 C702 1.334 . S
C702 H673 0.950 . S
C702 C701 1.334 . S
C702 C703 1.287 . S
C703 C702 1.287 . S
C703 C704 1.524 . S
C703 H706 0.999 . S
C704 H674 0.950 . S
C704 C703 1.524 . S
C704 C705 1.415 . S
C705 H675 0.950 . S
C705 C700 1.363 . S
C705 C704 1.415 . S
H706 C703 0.999 . S
H707 C688 0.913 . S
H708 C726 0.951 . S
H709 C728 0.951 . S
H710 C730 0.950 . S
H711 C731 0.950 . S
H712 C733 0.950 . S
H713 C736 0.950 . S
H714 C737 0.950 . S
H715 C739 0.950 . S
H716 C740 0.950 . S
H717 C741 0.951 . S
H718 C743 0.951 . S
H719 C745 0.950 . S
H720 C746 0.950 . S
H721 C748 0.950 . S
H722 C751 0.950 . S
H723 C752 0.950 . S
H724 C754 0.950 . S
H725 C755 0.950 . S
C726 H708 0.951 . S
C726 C727 1.366 . S
C726 C728 1.388 . S
C727 C726 1.366 . S
C727 C731 1.385 . S
C728 H709 0.951 . S
C728 C726 1.388 . S
C728 C729 1.366 . S
C729 C728 1.366 . S
C729 C730 1.414 . S
C729 C732 1.499 . S
C730 H710 0.950 . S
C730 C729 1.414 . S
C730 C731 1.374 . S
C731 H711 0.950 . S
C731 C727 1.385 . S
C731 C730 1.374 . S
C732 C729 1.499 . S
C732 C733 1.373 . S
C732 C734 1.389 . S
C733 H712 0.950 . S
C733 C732 1.373 . S
C733 C749 1.377 . S
C734 C732 1.389 . S
C734 C735 1.524 . S
C734 C748 1.377 . S
C735 C734 1.524 . S
C735 C736 1.397 . S
C735 C740 1.363 . S
C736 H713 0.950 . S
C736 C735 1.397 . S
C736 C737 1.334 . S
C737 H714 0.950 . S
C737 C736 1.334 . S
C737 C738 1.287 . S
C738 C737 1.287 . S
C738 C739 1.524 . S
C738 H757 0.913 . S
C739 H715 0.950 . S
C739 C738 1.524 . S
C739 C740 1.415 . S
C740 H716 0.950 . S
C740 C735 1.363 . S
C740 C739 1.415 . S
C741 H717 0.951 . S
C741 C742 1.366 . S
C741 C743 1.388 . S
C742 C741 1.366 . S
C742 C746 1.385 . S
C743 H718 0.951 . S
C743 C741 1.388 . S
C743 C744 1.366 . S
C744 C743 1.366 . S
C744 C745 1.414 . S
C744 C747 1.499 . S
C745 H719 0.950 . S
C745 C744 1.414 . S
C745 C746 1.374 . S
C746 H720 0.950 . S
C746 C742 1.385 . S
C746 C745 1.374 . S
C747 C744 1.499 . S
C747 C748 1.373 . S
C747 C749 1.389 . S
C748 H721 0.950 . S
C748 C734 1.377 . S
C748 C747 1.373 . S
C749 C733 1.377 . S
C749 C747 1.389 . S
C749 C750 1.524 . S
C750 C749 1.524 . S
C750 C751 1.397 . S
C750 C755 1.363 . S
C751 H722 0.950 . S
C751 C750 1.397 . S
C751 C752 1.334 . S
C752 H723 0.950 . S
C752 C751 1.334 . S
C752 C753 1.287 . S
C753 C752 1.287 . S
C753 C754 1.524 . S
C753 H756 0.999 . S
C754 H724 0.950 . S
C754 C753 1.524 . S
C754 C755 1.415 . S
C755 H725 0.950 . S
C755 C750 1.363 . S
C755 C754 1.415 . S
H756 C753 0.999 . S
H757 C738 0.913 . S
H758 C776 0.951 . S
H759 C778 0.951 . S
H760 C780 0.950 . S
H761 C781 0.950 . S
H762 C783 0.950 . S
H763 C786 0.950 . S
H764 C787 0.950 . S
H765 C789 0.950 1_655 S
H766 C790 0.950 . S
H767 C791 0.951 . S
H768 C793 0.951 . S
H769 C795 0.950 . S
H770 C796 0.950 . S
H771 C798 0.950 . S
H772 C801 0.950 . S
H773 C802 0.950 . S
H774 C804 0.950 . S
H775 C805 0.950 . S
C776 H758 0.951 . S
C776 C777 1.366 . S
C776 C778 1.388 . S
C777 C776 1.366 . S
C777 C781 1.385 . S
C778 H759 0.951 . S
C778 C776 1.388 . S
C778 C779 1.366 . S
C779 C778 1.366 . S
C779 C780 1.414 . S
C779 C782 1.499 . S
C780 H760 0.950 . S
C780 C779 1.414 . S
C780 C781 1.374 . S
C781 H761 0.950 . S
C781 C777 1.385 . S
C781 C780 1.374 . S
C782 C779 1.499 . S
C782 C783 1.373 1_545 S
C782 C784 1.389 . S
C783 H762 0.950 . S
C783 C782 1.373 1_565 S
C783 C799 1.377 . S
C784 C782 1.389 . S
C784 C785 1.524 . S
C784 C798 1.377 1_545 S
C785 C784 1.524 . S
C785 C786 1.397 . S
C785 C790 1.363 . S
C786 H763 0.950 . S
C786 C785 1.397 . S
C786 C787 1.334 . S
C787 H764 0.950 . S
C787 C786 1.334 . S
C787 C788 1.287 . S
C788 C787 1.287 . S
C788 C789 1.524 . S
C788 H807 0.913 1_455 S
C789 H765 0.950 1_455 S
C789 C788 1.524 . S
C789 C790 1.415 . S
C790 H766 0.950 . S
C790 C785 1.363 . S
C790 C789 1.415 . S
C791 H767 0.951 . S
C791 C792 1.366 . S
C791 C793 1.388 . S
C792 C791 1.366 . S
C792 C796 1.385 . S
C793 H768 0.951 . S
C793 C791 1.388 . S
C793 C794 1.366 . S
C794 C793 1.366 . S
C794 C795 1.414 . S
C794 C797 1.499 . S
C795 H769 0.950 . S
C795 C794 1.414 . S
C795 C796 1.374 . S
C796 H770 0.950 . S
C796 C792 1.385 . S
C796 C795 1.374 . S
C797 C794 1.499 . S
C797 C798 1.373 . S
C797 C799 1.389 . S
C798 H771 0.950 . S
C798 C784 1.377 1_565 S
C798 C797 1.373 . S
C799 C783 1.377 . S
C799 C797 1.389 . S
C799 C800 1.524 . S
C800 C799 1.524 . S
C800 C801 1.397 . S
C800 C805 1.363 . S
C801 H772 0.950 . S
C801 C800 1.397 . S
C801 C802 1.334 . S
C802 H773 0.950 . S
C802 C801 1.334 . S
C802 C803 1.287 . S
C803 C802 1.287 . S
C803 C804 1.524 . S
C803 H806 0.999 . S
C804 H774 0.950 . S
C804 C803 1.524 . S
C804 C805 1.415 . S
C805 H775 0.950 . S
C805 C800 1.363 . S
C805 C804 1.415 . S
H806 C803 0.999 . S
H807 C788 0.913 1_655 S
H808 C826 0.951 . S
H809 C828 0.951 . S
H810 C830 0.950 . S
H811 C831 0.950 . S
H812 C833 0.950 . S
H813 C836 0.950 . S
H814 C837 0.950 . S
H815 C839 0.950 . S
H816 C840 0.950 . S
H817 C841 0.951 . S
H818 C843 0.951 . S
H819 C845 0.950 . S
H820 C846 0.950 . S
H821 C848 0.950 . S
H822 C851 0.950 . S
H823 C852 0.950 . S
H824 C854 0.950 . S
H825 C855 0.950 . S
C826 H808 0.951 . S
C826 C827 1.366 . S
C826 C828 1.388 . S
C827 C826 1.366 . S
C827 C831 1.385 . S
C828 H809 0.951 . S
C828 C826 1.388 . S
C828 C829 1.366 . S
C829 C828 1.366 . S
C829 C830 1.414 . S
C829 C832 1.499 1_556 S
C830 H810 0.950 . S
C830 C829 1.414 . S
C830 C831 1.374 . S
C831 H811 0.950 . S
C831 C827 1.385 . S
C831 C830 1.374 . S
C832 C829 1.499 1_554 S
C832 C833 1.373 . S
C832 C834 1.389 . S
C833 H812 0.950 . S
C833 C832 1.373 . S
C833 C849 1.377 . S
C834 C832 1.389 . S
C834 C835 1.524 . S
C834 C848 1.377 . S
C835 C834 1.524 . S
C835 C836 1.397 1_554 S
C835 C840 1.363 . S
C836 H813 0.950 . S
C836 C835 1.397 1_556 S
C836 C837 1.334 . S
C837 H814 0.950 . S
C837 C836 1.334 . S
C837 C838 1.287 . S
C838 C837 1.287 . S
C838 C839 1.524 1_556 S
C838 H857 0.913 . S
C839 H815 0.950 . S
C839 C838 1.524 1_554 S
C839 C840 1.415 . S
C840 H816 0.950 . S
C840 C835 1.363 . S
C840 C839 1.415 . S
C841 H817 0.951 . S
C841 C842 1.366 . S
C841 C843 1.388 . S
C842 C841 1.366 . S
C842 C846 1.385 . S
C843 H818 0.951 . S
C843 C841 1.388 . S
C843 C844 1.366 . S
C844 C843 1.366 . S
C844 C845 1.414 . S
C844 C847 1.499 . S
C845 H819 0.950 . S
C845 C844 1.414 . S
C845 C846 1.374 . S
C846 H820 0.950 . S
C846 C842 1.385 . S
C846 C845 1.374 . S
C847 C844 1.499 . S
C847 C848 1.373 . S
C847 C849 1.389 . S
C848 H821 0.950 . S
C848 C834 1.377 . S
C848 C847 1.373 . S
C849 C833 1.377 . S
C849 C847 1.389 . S
C849 C850 1.524 . S
C850 C849 1.524 . S
C850 C851 1.397 . S
C850 C855 1.363 . S
C851 H822 0.950 . S
C851 C850 1.397 . S
C851 C852 1.334 . S
C852 H823 0.950 . S
C852 C851 1.334 . S
C852 C853 1.287 . S
C853 C852 1.287 . S
C853 C854 1.524 . S
C853 H856 0.999 . S
C854 H824 0.950 . S
C854 C853 1.524 . S
C854 C855 1.415 . S
C855 H825 0.950 . S
C855 C850 1.363 . S
C855 C854 1.415 . S
H856 C853 0.999 . S
H857 C838 0.913 . S
H858 C876 0.951 . S
H859 C878 0.951 . S
H860 C880 0.950 . S
H861 C881 0.950 . S
H862 C883 0.950 . S
H863 C886 0.950 . S
H864 C887 0.950 . S
H865 C889 0.950 . S
H866 C890 0.950 . S
H867 C891 0.951 . S
H868 C893 0.951 . S
H869 C895 0.950 . S
H870 C896 0.950 . S
H871 C898 0.950 . S
H872 C901 0.950 . S
H873 C902 0.950 . S
H874 C904 0.950 . S
H875 C905 0.950 . S
C876 H858 0.951 . S
C876 C877 1.366 . S
C876 C878 1.388 . S
C877 C876 1.366 . S
C877 C881 1.385 . S
C878 H859 0.951 . S
C878 C876 1.388 . S
C878 C879 1.366 . S
C879 C878 1.366 . S
C879 C880 1.414 . S
C879 C882 1.499 . S
C880 H860 0.950 . S
C880 C879 1.414 . S
C880 C881 1.374 . S
C881 H861 0.950 . S
C881 C877 1.385 . S
C881 C880 1.374 . S
C882 C879 1.499 . S
C882 C883 1.373 . S
C882 C884 1.389 . S
C883 H862 0.950 . S
C883 C882 1.373 . S
C883 C899 1.377 . S
C884 C882 1.389 . S
C884 C885 1.524 . S
C884 C898 1.377 . S
C885 C884 1.524 . S
C885 C886 1.397 . S
C885 C890 1.363 . S
C886 H863 0.950 . S
C886 C885 1.397 . S
C886 C887 1.334 . S
C887 H864 0.950 . S
C887 C886 1.334 . S
C887 C888 1.287 . S
C888 C887 1.287 . S
C888 C889 1.524 . S
C888 H907 0.913 . S
C889 H865 0.950 . S
C889 C888 1.524 . S
C889 C890 1.415 . S
C890 H866 0.950 . S
C890 C885 1.363 . S
C890 C889 1.415 . S
C891 H867 0.951 . S
C891 C892 1.366 . S
C891 C893 1.388 . S
C892 C891 1.366 . S
C892 C896 1.385 . S
C893 H868 0.951 . S
C893 C891 1.388 . S
C893 C894 1.366 . S
C894 C893 1.366 . S
C894 C895 1.414 . S
C894 C897 1.499 . S
C895 H869 0.950 . S
C895 C894 1.414 . S
C895 C896 1.374 . S
C896 H870 0.950 . S
C896 C892 1.385 . S
C896 C895 1.374 . S
C897 C894 1.499 . S
C897 C898 1.373 . S
C897 C899 1.389 . S
C898 H871 0.950 . S
C898 C884 1.377 . S
C898 C897 1.373 . S
C899 C883 1.377 . S
C899 C897 1.389 . S
C899 C900 1.524 . S
C900 C899 1.524 . S
C900 C901 1.397 . S
C900 C905 1.363 . S
C901 H872 0.950 . S
C901 C900 1.397 . S
C901 C902 1.334 . S
C902 H873 0.950 . S
C902 C901 1.334 . S
C902 C903 1.287 . S
C903 C902 1.287 . S
C903 C904 1.524 . S
C903 H906 0.999 . S
C904 H874 0.950 . S
C904 C903 1.524 . S
C904 C905 1.415 . S
C905 H875 0.950 . S
C905 C900 1.363 . S
C905 C904 1.415 . S
H906 C903 0.999 . S
H907 C888 0.913 . S
H908 C926 0.951 . S
H909 C928 0.951 . S
H910 C930 0.950 . S
H911 C931 0.950 . S
H912 C933 0.950 . S
H913 C936 0.950 . S
H914 C937 0.950 . S
H915 C939 0.950 . S
H916 C940 0.950 . S
H917 C941 0.951 . S
H918 C943 0.951 . S
H919 C945 0.950 . S
H920 C946 0.950 . S
H921 C948 0.950 . S
H922 C951 0.950 . S
H923 C952 0.950 . S
H924 C954 0.950 . S
H925 C955 0.950 . S
C926 H908 0.951 . S
C926 C927 1.366 . S
C926 C928 1.388 . S
C927 C926 1.366 . S
C927 C931 1.385 . S
C928 H909 0.951 . S
C928 C926 1.388 . S
C928 C929 1.366 . S
C929 C928 1.366 . S
C929 C930 1.414 . S
C929 C932 1.499 1_554 S
C930 H910 0.950 . S
C930 C929 1.414 . S
C930 C931 1.374 . S
C931 H911 0.950 . S
C931 C927 1.385 . S
C931 C930 1.374 . S
C932 C929 1.499 1_556 S
C932 C933 1.373 . S
C932 C934 1.389 . S
C933 H912 0.950 . S
C933 C932 1.373 . S
C933 C949 1.377 . S
C934 C932 1.389 . S
C934 C935 1.522 . S
C934 C948 1.377 . S
C935 C934 1.522 . S
C935 C936 1.399 1_556 S
C935 C940 1.362 . S
C936 H913 0.950 . S
C936 C935 1.399 1_554 S
C936 C937 1.334 . S
C937 H914 0.950 . S
C937 C936 1.334 . S
C937 C938 1.287 . S
C938 C937 1.287 . S
C938 C939 1.524 . S
C938 H957 0.913 . S
C939 H915 0.950 . S
C939 C938 1.524 . S
C939 C940 1.415 1_554 S
C940 H916 0.950 . S
C940 C935 1.362 . S
C940 C939 1.415 1_556 S
C941 H917 0.951 . S
C941 C942 1.366 . S
C941 C943 1.388 . S
C942 C941 1.366 . S
C942 C946 1.385 . S
C943 H918 0.951 . S
C943 C941 1.388 . S
C943 C944 1.366 . S
C944 C943 1.366 . S
C944 C945 1.414 . S
C944 C947 1.499 . S
C945 H919 0.950 . S
C945 C944 1.414 . S
C945 C946 1.374 . S
C946 H920 0.950 . S
C946 C942 1.385 . S
C946 C945 1.374 . S
C947 C944 1.499 . S
C947 C948 1.373 . S
C947 C949 1.389 . S
C948 H921 0.950 . S
C948 C934 1.377 . S
C948 C947 1.373 . S
C949 C933 1.377 . S
C949 C947 1.389 . S
C949 C950 1.524 . S
C950 C949 1.524 . S
C950 C951 1.397 . S
C950 C955 1.363 . S
C951 H922 0.950 . S
C951 C950 1.397 . S
C951 C952 1.334 . S
C952 H923 0.950 . S
C952 C951 1.334 . S
C952 C953 1.287 . S
C953 C952 1.287 . S
C953 C954 1.524 . S
C953 H956 0.999 . S
C954 H924 0.950 . S
C954 C953 1.524 . S
C954 C955 1.415 . S
C955 H925 0.950 . S
C955 C950 1.363 . S
C955 C954 1.415 . S
H956 C953 0.999 . S
H957 C938 0.913 . S
H958 C976 0.951 . S
H959 C978 0.951 . S
H960 C980 0.950 . S
H961 C981 0.950 . S
H962 C983 0.950 . S
H963 C986 0.950 . S
H964 C987 0.950 . S
H965 C989 0.950 . S
H966 C990 0.950 . S
H967 C991 0.951 . S
H968 C993 0.951 . S
H969 C995 0.950 . S
H970 C996 0.950 . S
H971 C998 0.950 . S
H972 C1001 0.950 . S
H973 C1002 0.950 1_455 S
H974 C1004 0.950 . S
H975 C1005 0.950 . S
C976 H958 0.951 . S
C976 C977 1.366 . S
C976 C978 1.388 . S
C977 C976 1.366 . S
C977 C981 1.385 . S
C978 H959 0.951 . S
C978 C976 1.388 . S
C978 C979 1.366 . S
C979 C978 1.366 . S
C979 C980 1.414 . S
C979 C982 1.499 . S
C980 H960 0.950 . S
C980 C979 1.414 . S
C980 C981 1.374 . S
C981 H961 0.950 . S
C981 C977 1.385 . S
C981 C980 1.374 . S
C982 C979 1.499 . S
C982 C983 1.373 . S
C982 C984 1.389 . S
C983 H962 0.950 . S
C983 C982 1.373 . S
C983 C999 1.377 . S
C984 C982 1.389 . S
C984 C985 1.524 . S
C984 C998 1.377 . S
C985 C984 1.524 . S
C985 C986 1.397 . S
C985 C990 1.363 . S
C986 H963 0.950 . S
C986 C985 1.397 . S
C986 C987 1.334 . S
C987 H964 0.950 . S
C987 C986 1.334 . S
C987 C988 1.287 . S
C988 C987 1.287 . S
C988 C989 1.524 . S
C988 H1007 0.913 . S
C989 H965 0.950 . S
C989 C988 1.524 . S
C989 C990 1.415 . S
C990 H966 0.950 . S
C990 C985 1.363 . S
C990 C989 1.415 . S
C991 H967 0.951 . S
C991 C992 1.366 . S
C991 C993 1.388 . S
C992 C991 1.366 . S
C992 C996 1.385 . S
C993 H968 0.951 . S
C993 C991 1.388 . S
C993 C994 1.366 . S
C994 C993 1.366 . S
C994 C995 1.414 . S
C994 C997 1.499 . S
C995 H969 0.950 . S
C995 C994 1.414 . S
C995 C996 1.374 . S
C996 H970 0.950 . S
C996 C992 1.385 . S
C996 C995 1.374 . S
C997 C994 1.499 . S
C997 C998 1.373 . S
C997 C999 1.389 . S
C998 H971 0.950 . S
C998 C984 1.377 . S
C998 C997 1.373 . S
C999 C983 1.377 . S
C999 C997 1.389 . S
C999 C1000 1.524 . S
C1000 C999 1.524 . S
C1000 C1001 1.397 . S
C1000 C1005 1.363 . S
C1001 H972 0.950 . S
C1001 C1000 1.397 . S
C1001 C1002 1.334 . S
C1002 H973 0.950 1_655 S
C1002 C1001 1.334 . S
C1002 C1003 1.287 . S
C1003 C1002 1.287 . S
C1003 C1004 1.524 . S
C1003 H1006 0.999 1_655 S
C1004 H974 0.950 . S
C1004 C1003 1.524 . S
C1004 C1005 1.415 . S
C1005 H975 0.950 . S
C1005 C1000 1.363 . S
C1005 C1004 1.415 . S
H1006 C1003 0.999 1_455 S
H1007 C988 0.913 . S
H1008 C1026 0.951 . S
H1009 C1028 0.951 . S
H1010 C1030 0.950 . S
H1011 C1031 0.950 . S
H1012 C1033 0.950 . S
H1013 C1036 0.950 . S
H1014 C1037 0.950 . S
H1015 C1039 0.950 . S
H1016 C1040 0.950 . S
H1017 C1041 0.951 . S
H1018 C1043 0.951 . S
H1019 C1045 0.950 . S
H1020 C1046 0.950 . S
H1021 C1048 0.950 . S
H1022 C1051 0.950 . S
H1023 C1052 0.950 . S
H1024 C1054 0.950 . S
H1025 C1055 0.950 . S
C1026 H1008 0.951 . S
C1026 C1027 1.366 . S
C1026 C1028 1.388 . S
C1027 C1026 1.366 . S
C1027 C1031 1.385 . S
C1028 H1009 0.951 . S
C1028 C1026 1.388 . S
C1028 C1029 1.366 . S
C1029 C1028 1.366 . S
C1029 C1030 1.414 . S
C1029 C1032 1.499 1_554 S
C1030 H1010 0.950 . S
C1030 C1029 1.414 . S
C1030 C1031 1.374 . S
C1031 H1011 0.950 . S
C1031 C1027 1.385 . S
C1031 C1030 1.374 . S
C1032 C1029 1.499 1_556 S
C1032 C1033 1.373 . S
C1032 C1034 1.389 . S
C1033 H1012 0.950 . S
C1033 C1032 1.373 . S
C1033 C1049 1.377 . S
C1034 C1032 1.389 . S
C1034 C1035 1.524 . S
C1034 C1048 1.377 . S
C1035 C1034 1.524 . S
C1035 C1036 1.397 . S
C1035 C1040 1.363 . S
C1036 H1013 0.950 . S
C1036 C1035 1.397 . S
C1036 C1037 1.334 1_556 S
C1037 H1014 0.950 . S
C1037 C1036 1.334 1_554 S
C1037 C1038 1.287 . S
C1038 C1037 1.287 . S
C1038 C1039 1.524 1_554 S
C1038 H1057 0.913 . S
C1039 H1015 0.950 . S
C1039 C1038 1.524 1_556 S
C1039 C1040 1.415 . S
C1040 H1016 0.950 . S
C1040 C1035 1.363 . S
C1040 C1039 1.415 . S
C1041 H1017 0.951 . S
C1041 C1042 1.366 . S
C1041 C1043 1.388 . S
C1042 C1041 1.366 . S
C1042 C1046 1.385 . S
C1043 H1018 0.951 . S
C1043 C1041 1.388 . S
C1043 C1044 1.366 . S
C1044 C1043 1.366 . S
C1044 C1045 1.414 . S
C1044 C1047 1.499 . S
C1045 H1019 0.950 . S
C1045 C1044 1.414 . S
C1045 C1046 1.374 . S
C1046 H1020 0.950 . S
C1046 C1042 1.385 . S
C1046 C1045 1.374 . S
C1047 C1044 1.499 . S
C1047 C1048 1.373 . S
C1047 C1049 1.389 . S
C1048 H1021 0.950 . S
C1048 C1034 1.377 . S
C1048 C1047 1.373 . S
C1049 C1033 1.377 . S
C1049 C1047 1.389 . S
C1049 C1050 1.524 . S
C1050 C1049 1.524 . S
C1050 C1051 1.397 . S
C1050 C1055 1.363 . S
C1051 H1022 0.950 . S
C1051 C1050 1.397 . S
C1051 C1052 1.334 . S
C1052 H1023 0.950 . S
C1052 C1051 1.334 . S
C1052 C1053 1.287 . S
C1053 C1052 1.287 . S
C1053 C1054 1.524 . S
C1053 H1056 0.999 . S
C1054 H1024 0.950 . S
C1054 C1053 1.524 . S
C1054 C1055 1.415 . S
C1055 H1025 0.950 . S
C1055 C1050 1.363 . S
C1055 C1054 1.415 . S
H1056 C1053 0.999 . S
H1057 C1038 0.913 . S
H1058 C1076 0.951 . S
H1059 C1078 0.951 . S
H1060 C1080 0.950 . S
H1061 C1081 0.950 . S
H1062 C1083 0.950 . S
H1063 C1086 0.950 . S
H1064 C1087 0.950 . S
H1065 C1089 0.950 . S
H1066 C1090 0.950 . S
H1067 C1091 0.951 . S
H1068 C1093 0.951 . S
H1069 C1095 0.950 . S
H1070 C1096 0.950 . S
H1071 C1098 0.950 . S
H1072 C1101 0.950 . S
H1073 C1102 0.950 . S
H1074 C1104 0.950 . S
H1075 C1105 0.950 . S
C1076 H1058 0.951 . S
C1076 C1077 1.366 . S
C1076 C1078 1.388 . S
C1077 C1076 1.366 . S
C1077 C1081 1.385 . S
C1078 H1059 0.951 . S
C1078 C1076 1.388 . S
C1078 C1079 1.366 . S
C1079 C1078 1.366 . S
C1079 C1080 1.414 . S
C1079 C1082 1.499 . S
C1080 H1060 0.950 . S
C1080 C1079 1.414 . S
C1080 C1081 1.374 . S
C1081 H1061 0.950 . S
C1081 C1077 1.385 . S
C1081 C1080 1.374 . S
C1082 C1079 1.499 . S
C1082 C1083 1.373 . S
C1082 C1084 1.389 . S
C1083 H1062 0.950 . S
C1083 C1082 1.373 . S
C1083 C1099 1.377 . S
C1084 C1082 1.389 . S
C1084 C1085 1.524 . S
C1084 C1098 1.377 . S
C1085 C1084 1.524 . S
C1085 C1086 1.397 . S
C1085 C1090 1.363 . S
C1086 H1063 0.950 . S
C1086 C1085 1.397 . S
C1086 C1087 1.334 . S
C1087 H1064 0.950 . S
C1087 C1086 1.334 . S
C1087 C1088 1.287 . S
C1088 C1087 1.287 . S
C1088 C1089 1.524 . S
C1088 H1107 0.913 . S
C1089 H1065 0.950 . S
C1089 C1088 1.524 . S
C1089 C1090 1.415 . S
C1090 H1066 0.950 . S
C1090 C1085 1.363 . S
C1090 C1089 1.415 . S
C1091 H1067 0.951 . S
C1091 C1092 1.366 . S
C1091 C1093 1.388 . S
C1092 C1091 1.366 . S
C1092 C1096 1.385 . S
C1093 H1068 0.951 . S
C1093 C1091 1.388 . S
C1093 C1094 1.366 . S
C1094 C1093 1.366 . S
C1094 C1095 1.414 . S
C1094 C1097 1.499 . S
C1095 H1069 0.950 . S
C1095 C1094 1.414 . S
C1095 C1096 1.374 . S
C1096 H1070 0.950 . S
C1096 C1092 1.385 . S
C1096 C1095 1.374 . S
C1097 C1094 1.499 . S
C1097 C1098 1.373 . S
C1097 C1099 1.389 . S
C1098 H1071 0.950 . S
C1098 C1084 1.377 . S
C1098 C1097 1.373 . S
C1099 C1083 1.377 . S
C1099 C1097 1.389 . S
C1099 C1100 1.524 . S
C1100 C1099 1.524 . S
C1100 C1101 1.397 . S
C1100 C1105 1.363 . S
C1101 H1072 0.950 . S
C1101 C1100 1.397 . S
C1101 C1102 1.334 . S
C1102 H1073 0.950 . S
C1102 C1101 1.334 . S
C1102 C1103 1.287 . S
C1103 C1102 1.287 . S
C1103 C1104 1.524 . S
C1103 H1106 0.999 . S
C1104 H1074 0.950 . S
C1104 C1103 1.524 . S
C1104 C1105 1.415 . S
C1105 H1075 0.950 . S
C1105 C1100 1.363 . S
C1105 C1104 1.415 . S
H1106 C1103 0.999 . S
H1107 C1088 0.913 . S
H1108 C1126 0.951 . S
H1109 C1128 0.951 . S
H1110 C1130 0.950 . S
H1111 C1131 0.950 . S
H1112 C1133 0.950 . S
H1113 C1136 0.950 . S
H1114 C1137 0.950 . S
H1115 C1139 0.950 . S
H1116 C1140 0.950 . S
H1117 C1141 0.951 . S
H1118 C1143 0.951 . S
H1119 C1145 0.950 . S
H1120 C1146 0.950 . S
H1121 C1148 0.950 . S
H1122 C1151 0.950 . S
H1123 C1152 0.950 . S
H1124 C1154 0.950 . S
H1125 C1155 0.950 . S
C1126 H1108 0.951 . S
C1126 C1127 1.366 . S
C1126 C1128 1.388 . S
C1127 C1126 1.366 . S
C1127 C1131 1.385 . S
C1128 H1109 0.951 . S
C1128 C1126 1.388 . S
C1128 C1129 1.366 . S
C1129 C1128 1.366 . S
C1129 C1130 1.414 . S
C1129 C1132 1.499 1_556 S
C1130 H1110 0.950 . S
C1130 C1129 1.414 . S
C1130 C1131 1.374 . S
C1131 H1111 0.950 . S
C1131 C1127 1.385 . S
C1131 C1130 1.374 . S
C1132 C1129 1.499 1_554 S
C1132 C1133 1.373 . S
C1132 C1134 1.389 . S
C1133 H1112 0.950 . S
C1133 C1132 1.373 . S
C1133 C1149 1.377 . S
C1134 C1132 1.389 . S
C1134 C1135 1.524 . S
C1134 C1148 1.377 . S
C1135 C1134 1.524 . S
C1135 C1136 1.397 1_554 S
C1135 C1140 1.363 . S
C1136 H1113 0.950 . S
C1136 C1135 1.397 1_556 S
C1136 C1137 1.334 . S
C1137 H1114 0.950 . S
C1137 C1136 1.334 . S
C1137 C1138 1.287 . S
C1138 C1137 1.287 . S
C1138 C1139 1.524 . S
C1138 H1157 0.913 . S
C1139 H1115 0.950 . S
C1139 C1138 1.524 . S
C1139 C1140 1.415 1_556 S
C1140 H1116 0.950 . S
C1140 C1135 1.363 . S
C1140 C1139 1.415 1_554 S
C1141 H1117 0.951 . S
C1141 C1142 1.366 . S
C1141 C1143 1.388 . S
C1142 C1141 1.366 . S
C1142 C1146 1.385 . S
C1143 H1118 0.951 . S
C1143 C1141 1.388 . S
C1143 C1144 1.366 . S
C1144 C1143 1.366 . S
C1144 C1145 1.414 . S
C1144 C1147 1.499 . S
C1145 H1119 0.950 . S
C1145 C1144 1.414 . S
C1145 C1146 1.374 . S
C1146 H1120 0.950 . S
C1146 C1142 1.385 . S
C1146 C1145 1.374 . S
C1147 C1144 1.499 . S
C1147 C1148 1.373 . S
C1147 C1149 1.389 . S
C1148 H1121 0.950 . S
C1148 C1134 1.377 . S
C1148 C1147 1.373 . S
C1149 C1133 1.377 . S
C1149 C1147 1.389 . S
C1149 C1150 1.524 . S
C1150 C1149 1.524 . S
C1150 C1151 1.397 . S
C1150 C1155 1.363 . S
C1151 H1122 0.950 . S
C1151 C1150 1.397 . S
C1151 C1152 1.334 . S
C1152 H1123 0.950 . S
C1152 C1151 1.334 . S
C1152 C1153 1.287 . S
C1153 C1152 1.287 . S
C1153 C1154 1.524 . S
C1153 H1156 0.999 . S
C1154 H1124 0.950 . S
C1154 C1153 1.524 . S
C1154 C1155 1.415 . S
C1155 H1125 0.950 . S
C1155 C1150 1.363 . S
C1155 C1154 1.415 . S
H1156 C1153 0.999 . S
H1157 C1138 0.913 . S
H1158 C1176 0.951 . S
H1159 C1178 0.951 . S
H1160 C1180 0.950 . S
H1161 C1181 0.950 . S
H1162 C1183 0.950 . S
H1163 C1186 0.950 . S
H1164 C1187 0.950 . S
H1165 C1189 0.950 . S
H1166 C1190 0.950 . S
H1167 C1191 0.951 . S
H1168 C1193 0.951 . S
H1169 C1195 0.950 . S
H1170 C1196 0.950 . S
H1171 C1198 0.950 . S
H1172 C1201 0.950 . S
H1173 C1202 0.950 . S
H1174 C1204 0.950 . S
H1175 C1205 0.950 . S
C1176 H1158 0.951 . S
C1176 C1177 1.366 . S
C1176 C1178 1.388 . S
C1177 C1176 1.366 . S
C1177 C1181 1.385 . S
C1178 H1159 0.951 . S
C1178 C1176 1.388 . S
C1178 C1179 1.366 . S
C1179 C1178 1.366 . S
C1179 C1180 1.414 . S
C1179 C1182 1.499 . S
C1180 H1160 0.950 . S
C1180 C1179 1.414 . S
C1180 C1181 1.374 . S
C1181 H1161 0.950 . S
C1181 C1177 1.385 . S
C1181 C1180 1.374 . S
C1182 C1179 1.499 . S
C1182 C1183 1.373 . S
C1182 C1184 1.389 . S
C1183 H1162 0.950 . S
C1183 C1182 1.373 . S
C1183 C1199 1.377 . S
C1184 C1182 1.389 . S
C1184 C1185 1.524 . S
C1184 C1198 1.377 . S
C1185 C1184 1.524 . S
C1185 C1186 1.397 . S
C1185 C1190 1.363 . S
C1186 H1163 0.950 . S
C1186 C1185 1.397 . S
C1186 C1187 1.334 . S
C1187 H1164 0.950 . S
C1187 C1186 1.334 . S
C1187 C1188 1.287 . S
C1188 C1187 1.287 . S
C1188 C1189 1.524 . S
C1188 H1207 0.913 . S
C1189 H1165 0.950 . S
C1189 C1188 1.524 . S
C1189 C1190 1.415 . S
C1190 H1166 0.950 . S
C1190 C1185 1.363 . S
C1190 C1189 1.415 . S
C1191 H1167 0.951 . S
C1191 C1192 1.366 . S
C1191 C1193 1.388 . S
C1192 C1191 1.366 . S
C1192 C1196 1.385 . S
C1193 H1168 0.951 . S
C1193 C1191 1.388 . S
C1193 C1194 1.366 . S
C1194 C1193 1.366 . S
C1194 C1195 1.414 . S
C1194 C1197 1.499 . S
C1195 H1169 0.950 . S
C1195 C1194 1.414 . S
C1195 C1196 1.374 . S
C1196 H1170 0.950 . S
C1196 C1192 1.385 . S
C1196 C1195 1.374 . S
C1197 C1194 1.499 . S
C1197 C1198 1.373 . S
C1197 C1199 1.389 . S
C1198 H1171 0.950 . S
C1198 C1184 1.377 . S
C1198 C1197 1.373 . S
C1199 C1183 1.377 . S
C1199 C1197 1.389 . S
C1199 C1200 1.524 . S
C1200 C1199 1.524 . S
C1200 C1201 1.397 . S
C1200 C1205 1.363 . S
C1201 H1172 0.950 . S
C1201 C1200 1.397 . S
C1201 C1202 1.334 . S
C1202 H1173 0.950 . S
C1202 C1201 1.334 . S
C1202 C1203 1.287 . S
C1203 C1202 1.287 . S
C1203 C1204 1.524 . S
C1203 H1206 0.999 . S
C1204 H1174 0.950 . S
C1204 C1203 1.524 . S
C1204 C1205 1.415 . S
C1205 H1175 0.950 . S
C1205 C1200 1.363 . S
C1205 C1204 1.415 . S
H1206 C1203 0.999 . S
H1207 C1188 0.913 . S
H1208 C1226 0.951 . S
H1209 C1228 0.951 . S
H1210 C1230 0.950 . S
H1211 C1231 0.950 . S
H1212 C1233 0.950 . S
H1213 C1236 0.950 . S
H1214 C1237 0.950 . S
H1215 C1239 0.950 . S
H1216 C1240 0.950 . S
H1217 C1241 0.951 . S
H1218 C1243 0.951 . S
H1219 C1245 0.950 . S
H1220 C1246 0.964 . S
H1221 C1248 0.950 . S
H1222 C1251 0.950 . S
H1223 C1252 0.950 . S
H1224 C1254 0.950 . S
H1225 C1255 0.950 . S
C1226 H1208 0.951 . S
C1226 C1227 1.366 . S
C1226 C1228 1.388 . S
C1227 C1226 1.366 . S
C1227 C1231 1.385 . S
C1228 H1209 0.951 . S
C1228 C1226 1.388 . S
C1228 C1229 1.366 . S
C1229 C1228 1.366 . S
C1229 C1230 1.414 . S
C1229 C1232 1.499 . S
C1230 H1210 0.950 . S
C1230 C1229 1.414 . S
C1230 C1231 1.374 . S
C1231 H1211 0.950 . S
C1231 C1227 1.385 . S
C1231 C1230 1.374 . S
C1232 C1229 1.499 . S
C1232 C1233 1.373 . S
C1232 C1234 1.389 . S
C1233 H1212 0.950 . S
C1233 C1232 1.373 . S
C1233 C1249 1.377 . S
C1234 C1232 1.389 . S
C1234 C1235 1.524 . S
C1234 C1248 1.377 . S
C1235 C1234 1.524 . S
C1235 C1236 1.397 . S
C1235 C1240 1.363 . S
C1236 H1213 0.950 . S
C1236 C1235 1.397 . S
C1236 C1237 1.334 . S
C1237 H1214 0.950 . S
C1237 C1236 1.334 . S
C1237 C1238 1.287 . S
C1238 C1237 1.287 . S
C1238 C1239 1.524 . S
C1238 H1257 0.913 . S
C1239 H1215 0.950 . S
C1239 C1238 1.524 . S
C1239 C1240 1.415 . S
C1240 H1216 0.950 . S
C1240 C1235 1.363 . S
C1240 C1239 1.415 . S
C1241 H1217 0.951 . S
C1241 C1242 1.366 . S
C1241 C1243 1.388 . S
C1242 C1241 1.366 . S
C1242 C1246 1.385 . S
C1243 H1218 0.951 . S
C1243 C1241 1.388 . S
C1243 C1244 1.366 . S
C1244 C1243 1.366 . S
C1244 C1245 1.414 . S
C1244 C1247 1.499 . S
C1245 H1219 0.950 . S
C1245 C1244 1.414 . S
C1245 C1246 1.374 . S
C1246 H1220 0.964 . S
C1246 C1242 1.385 . S
C1246 C1245 1.374 . S
C1247 C1244 1.499 . S
C1247 C1248 1.373 . S
C1247 C1249 1.389 . S
C1248 H1221 0.950 . S
C1248 C1234 1.377 . S
C1248 C1247 1.373 . S
C1249 C1233 1.377 . S
C1249 C1247 1.389 . S
C1249 C1250 1.524 . S
C1250 C1249 1.524 . S
C1250 C1251 1.397 . S
C1250 C1255 1.363 . S
C1251 H1222 0.950 . S
C1251 C1250 1.397 . S
C1251 C1252 1.334 . S
C1252 H1223 0.950 . S
C1252 C1251 1.334 . S
C1252 C1253 1.287 . S
C1253 C1252 1.287 . S
C1253 C1254 1.524 . S
C1253 H1256 0.999 . S
C1254 H1224 0.950 . S
C1254 C1253 1.524 . S
C1254 C1255 1.415 . S
C1255 H1225 0.950 . S
C1255 C1250 1.363 . S
C1255 C1254 1.415 . S
H1256 C1253 0.999 . S
H1257 C1238 0.913 . S
H1258 C1276 0.951 . S
H1259 C1278 0.951 . S
H1260 C1280 0.950 . S
H1261 C1281 0.950 . S
H1262 C1283 0.950 . S
H1263 C1286 0.950 . S
H1264 C1287 0.950 . S
H1265 C1289 0.950 . S
H1266 C1290 0.950 . S
H1267 C1291 0.951 . S
H1268 C1293 0.951 . S
H1269 C1295 0.950 . S
H1270 C1296 0.950 . S
H1271 C1298 0.950 . S
H1272 C1301 0.950 . S
H1273 C1302 0.950 . S
H1274 C1304 0.950 . S
H1275 C1305 0.950 . S
C1276 H1258 0.951 . S
C1276 C1277 1.366 . S
C1276 C1278 1.388 . S
C1277 C1276 1.366 . S
C1277 C1281 1.385 . S
C1278 H1259 0.951 . S
C1278 C1276 1.388 . S
C1278 C1279 1.366 . S
C1279 C1278 1.366 . S
C1279 C1280 1.414 . S
C1279 C1282 1.499 . S
C1280 H1260 0.950 . S
C1280 C1279 1.414 . S
C1280 C1281 1.374 . S
C1281 H1261 0.950 . S
C1281 C1277 1.385 . S
C1281 C1280 1.374 . S
C1282 C1279 1.499 . S
C1282 C1283 1.373 . S
C1282 C1284 1.389 . S
C1283 H1262 0.950 . S
C1283 C1282 1.373 . S
C1283 C1299 1.377 . S
C1284 C1282 1.389 . S
C1284 C1285 1.524 . S
C1284 C1298 1.377 . S
C1285 C1284 1.524 . S
C1285 C1286 1.397 . S
C1285 C1290 1.363 . S
C1286 H1263 0.950 . S
C1286 C1285 1.397 . S
C1286 C1287 1.334 . S
C1287 H1264 0.950 . S
C1287 C1286 1.334 . S
C1287 C1288 1.287 . S
C1288 C1287 1.287 . S
C1288 C1289 1.524 . S
C1288 H1307 0.913 . S
C1289 H1265 0.950 . S
C1289 C1288 1.524 . S
C1289 C1290 1.415 . S
C1290 H1266 0.950 . S
C1290 C1285 1.363 . S
C1290 C1289 1.415 . S
C1291 H1267 0.951 . S
C1291 C1292 1.366 . S
C1291 C1293 1.388 . S
C1292 C1291 1.366 . S
C1292 C1296 1.385 . S
C1293 H1268 0.951 . S
C1293 C1291 1.388 . S
C1293 C1294 1.366 . S
C1294 C1293 1.366 . S
C1294 C1295 1.414 . S
C1294 C1297 1.499 . S
C1295 H1269 0.950 . S
C1295 C1294 1.414 . S
C1295 C1296 1.374 . S
C1296 H1270 0.950 . S
C1296 C1292 1.385 . S
C1296 C1295 1.374 . S
C1297 C1294 1.499 . S
C1297 C1298 1.373 . S
C1297 C1299 1.389 . S
C1298 H1271 0.950 . S
C1298 C1284 1.377 . S
C1298 C1297 1.373 . S
C1299 C1283 1.377 . S
C1299 C1297 1.389 . S
C1299 C1300 1.524 . S
C1300 C1299 1.524 . S
C1300 C1301 1.397 . S
C1300 C1305 1.363 . S
C1301 H1272 0.950 . S
C1301 C1300 1.397 . S
C1301 C1302 1.334 . S
C1302 H1273 0.950 . S
C1302 C1301 1.334 . S
C1302 C1303 1.287 . S
C1303 C1302 1.287 . S
C1303 C1304 1.524 . S
C1303 H1306 0.999 . S
C1304 H1274 0.950 . S
C1304 C1303 1.524 . S
C1304 C1305 1.415 . S
C1305 H1275 0.950 . S
C1305 C1300 1.363 . S
C1305 C1304 1.415 . S
H1306 C1303 0.999 . S
H1307 C1288 0.913 . S
H1308 C1326 0.951 . S
H1309 C1328 0.951 . S
H1310 C1330 0.950 . S
H1311 C1331 0.950 . S
H1312 C1333 0.950 . S
H1313 C1336 0.950 . S
H1314 C1337 0.950 . S
H1315 C1339 0.950 . S
H1316 C1340 0.950 . S
H1317 C1341 0.951 . S
H1318 C1343 0.951 . S
H1319 C1345 0.950 . S
H1320 C1346 0.950 . S
H1321 C1348 0.950 . S
H1322 C1351 0.950 . S
H1323 C1352 0.950 . S
H1324 C1354 0.950 . S
H1325 C1355 0.950 . S
C1326 H1308 0.951 . S
C1326 C1327 1.366 . S
C1326 C1328 1.388 . S
C1327 C1326 1.366 . S
C1327 C1331 1.385 . S
C1328 H1309 0.951 . S
C1328 C1326 1.388 . S
C1328 C1329 1.366 . S
C1329 C1328 1.366 . S
C1329 C1330 1.414 . S
C1329 C1332 1.499 . S
C1330 H1310 0.950 . S
C1330 C1329 1.414 . S
C1330 C1331 1.374 . S
C1331 H1311 0.950 . S
C1331 C1327 1.385 . S
C1331 C1330 1.374 . S
C1332 C1329 1.499 . S
C1332 C1333 1.373 . S
C1332 C1334 1.389 . S
C1333 H1312 0.950 . S
C1333 C1332 1.373 . S
C1333 C1349 1.377 . S
C1334 C1332 1.389 . S
C1334 C1335 1.524 . S
C1334 C1348 1.377 . S
C1335 C1334 1.524 . S
C1335 C1336 1.397 . S
C1335 C1340 1.363 . S
C1336 H1313 0.950 . S
C1336 C1335 1.397 . S
C1336 C1337 1.334 . S
C1337 H1314 0.950 . S
C1337 C1336 1.334 . S
C1337 C1338 1.287 . S
C1338 C1337 1.287 . S
C1338 C1339 1.524 . S
C1338 H1357 0.913 . S
C1339 H1315 0.950 . S
C1339 C1338 1.524 . S
C1339 C1340 1.415 . S
C1340 H1316 0.950 . S
C1340 C1335 1.363 . S
C1340 C1339 1.415 . S
C1341 H1317 0.951 . S
C1341 C1342 1.366 . S
C1341 C1343 1.388 . S
C1342 C1341 1.366 . S
C1342 C1346 1.385 . S
C1343 H1318 0.951 . S
C1343 C1341 1.388 . S
C1343 C1344 1.366 . S
C1344 C1343 1.366 . S
C1344 C1345 1.414 . S
C1344 C1347 1.499 . S
C1345 H1319 0.950 . S
C1345 C1344 1.414 . S
C1345 C1346 1.374 . S
C1346 H1320 0.950 . S
C1346 C1342 1.385 . S
C1346 C1345 1.374 . S
C1347 C1344 1.499 . S
C1347 C1348 1.373 . S
C1347 C1349 1.389 . S
C1348 H1321 0.950 . S
C1348 C1334 1.377 . S
C1348 C1347 1.373 . S
C1349 C1333 1.377 . S
C1349 C1347 1.389 . S
C1349 C1350 1.524 . S
C1350 C1349 1.524 . S
C1350 C1351 1.397 . S
C1350 C1355 1.363 . S
C1351 H1322 0.950 . S
C1351 C1350 1.397 . S
C1351 C1352 1.334 . S
C1352 H1323 0.950 . S
C1352 C1351 1.334 . S
C1352 C1353 1.287 . S
C1353 C1352 1.287 . S
C1353 C1354 1.524 . S
C1353 H1356 0.999 . S
C1354 H1324 0.950 . S
C1354 C1353 1.524 . S
C1354 C1355 1.415 . S
C1355 H1325 0.950 . S
C1355 C1350 1.363 . S
C1355 C1354 1.415 . S
H1356 C1353 0.999 . S
H1357 C1338 0.913 . S
H1358 C1376 0.951 . S
H1359 C1378 0.951 . S
H1360 C1380 0.950 . S
H1361 C1381 0.950 . S
H1362 C1383 0.950 . S
H1363 C1386 0.950 . S
H1364 C1387 0.950 . S
H1365 C1389 0.950 . S
H1366 C1390 0.950 . S
H1367 C1391 0.951 . S
H1368 C1393 0.951 . S
H1369 C1395 0.950 . S
H1370 C1396 0.950 . S
H1371 C1398 0.950 . S
H1372 C1401 0.950 . S
H1373 C1402 0.950 . S
H1374 C1404 0.950 . S
H1375 C1405 0.950 . S
C1376 H1358 0.951 . S
C1376 C1377 1.366 . S
C1376 C1378 1.388 . S
C1377 C1376 1.366 . S
C1377 C1381 1.385 . S
C1378 H1359 0.951 . S
C1378 C1376 1.388 . S
C1378 C1379 1.366 . S
C1379 C1378 1.366 . S
C1379 C1380 1.414 . S
C1379 C1382 1.499 . S
C1380 H1360 0.950 . S
C1380 C1379 1.414 . S
C1380 C1381 1.374 . S
C1381 H1361 0.950 . S
C1381 C1377 1.385 . S
C1381 C1380 1.374 . S
C1382 C1379 1.499 . S
C1382 C1383 1.373 . S
C1382 C1384 1.389 . S
C1383 H1362 0.950 . S
C1383 C1382 1.373 . S
C1383 C1399 1.377 . S
C1384 C1382 1.389 . S
C1384 C1385 1.524 . S
C1384 C1398 1.377 . S
C1385 C1384 1.524 . S
C1385 C1386 1.397 . S
C1385 C1390 1.363 . S
C1386 H1363 0.950 . S
C1386 C1385 1.397 . S
C1386 C1387 1.334 . S
C1387 H1364 0.950 . S
C1387 C1386 1.334 . S
C1387 C1388 1.287 . S
C1388 C1387 1.287 . S
C1388 C1389 1.524 . S
C1388 H1407 0.913 . S
C1389 H1365 0.950 . S
C1389 C1388 1.524 . S
C1389 C1390 1.415 . S
C1390 H1366 0.950 . S
C1390 C1385 1.363 . S
C1390 C1389 1.415 . S
C1391 H1367 0.951 . S
C1391 C1392 1.366 . S
C1391 C1393 1.388 . S
C1392 C1391 1.366 . S
C1392 C1396 1.385 . S
C1393 H1368 0.951 . S
C1393 C1391 1.388 . S
C1393 C1394 1.366 . S
C1394 C1393 1.366 . S
C1394 C1395 1.414 . S
C1394 C1397 1.499 . S
C1395 H1369 0.950 . S
C1395 C1394 1.414 . S
C1395 C1396 1.374 . S
C1396 H1370 0.950 . S
C1396 C1392 1.385 . S
C1396 C1395 1.374 . S
C1397 C1394 1.499 . S
C1397 C1398 1.373 . S
C1397 C1399 1.389 . S
C1398 H1371 0.950 . S
C1398 C1384 1.377 . S
C1398 C1397 1.373 . S
C1399 C1383 1.377 . S
C1399 C1397 1.389 . S
C1399 C1400 1.524 . S
C1400 C1399 1.524 . S
C1400 C1401 1.397 . S
C1400 C1405 1.363 . S
C1401 H1372 0.950 . S
C1401 C1400 1.397 . S
C1401 C1402 1.334 . S
C1402 H1373 0.950 . S
C1402 C1401 1.334 . S
C1402 C1403 1.287 . S
C1403 C1402 1.287 . S
C1403 C1404 1.524 . S
C1403 H1406 0.999 . S
C1404 H1374 0.950 . S
C1404 C1403 1.524 . S
C1404 C1405 1.415 . S
C1405 H1375 0.950 . S
C1405 C1400 1.363 . S
C1405 C1404 1.415 . S
H1406 C1403 0.999 . S
H1407 C1388 0.913 . S
H1408 C1426 0.951 . S
H1409 C1428 0.951 . S
H1410 C1430 0.950 . S
H1411 C1431 0.950 . S
H1412 C1433 0.950 . S
H1413 C1436 0.950 . S
H1414 C1437 0.950 . S
H1415 C1439 0.950 1_455 S
H1416 C1440 0.950 . S
H1417 C1441 0.951 . S
H1418 C1443 0.951 . S
H1419 C1445 0.950 . S
H1420 C1446 0.950 . S
H1421 C1448 0.950 . S
H1422 C1451 0.950 . S
H1423 C1452 0.950 . S
H1424 C1454 0.950 . S
H1425 C1455 0.950 . S
C1426 H1408 0.951 . S
C1426 C1427 1.366 . S
C1426 C1428 1.388 . S
C1427 C1426 1.366 . S
C1427 C1431 1.385 . S
C1428 H1409 0.951 . S
C1428 C1426 1.388 . S
C1428 C1429 1.366 . S
C1429 C1428 1.366 . S
C1429 C1430 1.414 . S
C1429 C1432 1.499 . S
C1430 H1410 0.950 . S
C1430 C1429 1.414 . S
C1430 C1431 1.374 . S
C1431 H1411 0.950 . S
C1431 C1427 1.385 . S
C1431 C1430 1.374 . S
C1432 C1429 1.499 . S
C1432 C1433 1.373 . S
C1432 C1434 1.389 . S
C1433 H1412 0.950 . S
C1433 C1432 1.373 . S
C1433 C1449 1.377 . S
C1434 C1432 1.389 . S
C1434 C1435 1.524 . S
C1434 C1448 1.377 . S
C1435 C1434 1.524 . S
C1435 C1436 1.397 . S
C1435 C1440 1.363 . S
C1436 H1413 0.950 . S
C1436 C1435 1.397 . S
C1436 C1437 1.334 . S
C1437 H1414 0.950 . S
C1437 C1436 1.334 . S
C1437 C1438 1.287 . S
C1438 C1437 1.287 . S
C1438 C1439 1.524 . S
C1438 H1457 0.913 1_655 S
C1439 H1415 0.950 1_655 S
C1439 C1438 1.524 . S
C1439 C1440 1.415 . S
C1440 H1416 0.950 . S
C1440 C1435 1.363 . S
C1440 C1439 1.415 . S
C1441 H1417 0.951 . S
C1441 C1442 1.366 . S
C1441 C1443 1.388 . S
C1442 C1441 1.366 . S
C1442 C1446 1.385 . S
C1443 H1418 0.951 . S
C1443 C1441 1.388 . S
C1443 C1444 1.366 . S
C1444 C1443 1.366 . S
C1444 C1445 1.414 . S
C1444 C1447 1.499 . S
C1445 H1419 0.950 . S
C1445 C1444 1.414 . S
C1445 C1446 1.374 . S
C1446 H1420 0.950 . S
C1446 C1442 1.385 . S
C1446 C1445 1.374 . S
C1447 C1444 1.499 . S
C1447 C1448 1.373 . S
C1447 C1449 1.389 . S
C1448 H1421 0.950 . S
C1448 C1434 1.377 . S
C1448 C1447 1.373 . S
C1449 C1433 1.377 . S
C1449 C1447 1.389 . S
C1449 C1450 1.524 . S
C1450 C1449 1.524 . S
C1450 C1451 1.397 . S
C1450 C1455 1.363 . S
C1451 H1422 0.950 . S
C1451 C1450 1.397 . S
C1451 C1452 1.334 . S
C1452 H1423 0.950 . S
C1452 C1451 1.334 . S
C1452 C1453 1.287 . S
C1453 C1452 1.287 . S
C1453 C1454 1.524 . S
C1453 H1456 0.999 . S
C1454 H1424 0.950 . S
C1454 C1453 1.524 . S
C1454 C1455 1.415 . S
C1455 H1425 0.950 . S
C1455 C1450 1.363 . S
C1455 C1454 1.415 . S
H1456 C1453 0.999 . S
H1457 C1438 0.913 1_455 S
H1458 C1476 0.951 . S
H1459 C1478 0.951 . S
H1460 C1480 0.950 . S
H1461 C1481 0.950 . S
H1462 C1483 0.950 . S
H1463 C1486 0.950 . S
H1464 C1487 0.950 . S
H1465 C1489 0.950 . S
H1466 C1490 0.950 . S
H1467 C1491 0.951 . S
H1468 C1493 0.951 . S
H1469 C1495 0.950 . S
H1470 C1496 0.950 . S
H1471 C1498 0.950 . S
H1472 C1501 0.950 . S
H1473 C1502 0.950 . S
H1474 C1504 0.950 . S
H1475 C1505 0.950 . S
C1476 H1458 0.951 . S
C1476 C1477 1.366 . S
C1476 C1478 1.388 . S
C1477 C1476 1.366 . S
C1477 C1481 1.385 . S
C1478 H1459 0.951 . S
C1478 C1476 1.388 . S
C1478 C1479 1.366 . S
C1479 C1478 1.366 . S
C1479 C1480 1.414 . S
C1479 C1482 1.499 . S
C1480 H1460 0.950 . S
C1480 C1479 1.414 . S
C1480 C1481 1.374 . S
C1481 H1461 0.950 . S
C1481 C1477 1.385 . S
C1481 C1480 1.374 . S
C1482 C1479 1.499 . S
C1482 C1483 1.373 . S
C1482 C1484 1.389 . S
C1483 H1462 0.950 . S
C1483 C1482 1.373 . S
C1483 C1499 1.377 . S
C1484 C1482 1.389 . S
C1484 C1485 1.524 . S
C1484 C1498 1.377 . S
C1485 C1484 1.524 . S
C1485 C1486 1.397 . S
C1485 C1490 1.363 . S
C1486 H1463 0.950 . S
C1486 C1485 1.397 . S
C1486 C1487 1.334 . S
C1487 H1464 0.950 . S
C1487 C1486 1.334 . S
C1487 C1488 1.287 . S
C1488 C1487 1.287 . S
C1488 C1489 1.524 . S
C1488 H1507 0.913 . S
C1489 H1465 0.950 . S
C1489 C1488 1.524 . S
C1489 C1490 1.415 . S
C1490 H1466 0.950 . S
C1490 C1485 1.363 . S
C1490 C1489 1.415 . S
C1491 H1467 0.951 . S
C1491 C1492 1.366 . S
C1491 C1493 1.388 . S
C1492 C1491 1.366 . S
C1492 C1496 1.385 . S
C1493 H1468 0.951 . S
C1493 C1491 1.388 . S
C1493 C1494 1.366 . S
C1494 C1493 1.366 . S
C1494 C1495 1.414 . S
C1494 C1497 1.499 . S
C1495 H1469 0.950 . S
C1495 C1494 1.414 . S
C1495 C1496 1.374 . S
C1496 H1470 0.950 . S
C1496 C1492 1.385 . S
C1496 C1495 1.374 . S
C1497 C1494 1.499 . S
C1497 C1498 1.373 . S
C1497 C1499 1.389 . S
C1498 H1471 0.950 . S
C1498 C1484 1.377 . S
C1498 C1497 1.373 . S
C1499 C1483 1.377 . S
C1499 C1497 1.389 . S
C1499 C1500 1.524 . S
C1500 C1499 1.524 . S
C1500 C1501 1.397 . S
C1500 C1505 1.363 . S
C1501 H1472 0.950 . S
C1501 C1500 1.397 . S
C1501 C1502 1.334 . S
C1502 H1473 0.950 . S
C1502 C1501 1.334 . S
C1502 C1503 1.287 . S
C1503 C1502 1.287 . S
C1503 C1504 1.524 . S
C1503 H1506 0.999 . S
C1504 H1474 0.950 . S
C1504 C1503 1.524 . S
C1504 C1505 1.415 . S
C1505 H1475 0.950 . S
C1505 C1500 1.363 . S
C1505 C1504 1.415 . S
H1506 C1503 0.999 . S
H1507 C1488 0.913 . S
H1508 C1526 0.951 . S
H1509 C1528 0.951 . S
H1510 C1530 0.950 . S
H1511 C1531 0.950 . S
H1512 C1533 0.950 . S
H1513 C1536 0.950 . S
H1514 C1537 0.950 . S
H1515 C1539 0.950 . S
H1516 C1540 0.950 . S
H1517 C1541 0.951 . S
H1518 C1543 0.951 . S
H1519 C1545 0.950 . S
H1520 C1546 0.950 . S
H1521 C1548 0.950 . S
H1522 C1551 0.950 . S
H1523 C1552 0.950 . S
H1524 C1554 0.950 . S
H1525 C1555 0.950 . S
C1526 H1508 0.951 . S
C1526 C1527 1.366 . S
C1526 C1528 1.388 . S
C1527 C1526 1.366 . S
C1527 C1531 1.385 . S
C1528 H1509 0.951 . S
C1528 C1526 1.388 . S
C1528 C1529 1.366 . S
C1529 C1528 1.366 . S
C1529 C1530 1.414 . S
C1529 C1532 1.499 . S
C1530 H1510 0.950 . S
C1530 C1529 1.414 . S
C1530 C1531 1.374 . S
C1531 H1511 0.950 . S
C1531 C1527 1.385 . S
C1531 C1530 1.374 . S
C1532 C1529 1.499 . S
C1532 C1533 1.373 . S
C1532 C1534 1.389 . S
C1533 H1512 0.950 . S
C1533 C1532 1.373 . S
C1533 C1549 1.377 . S
C1534 C1532 1.389 . S
C1534 C1535 1.524 . S
C1534 C1548 1.377 . S
C1535 C1534 1.524 . S
C1535 C1536 1.397 . S
C1535 C1540 1.363 . S
C1536 H1513 0.950 . S
C1536 C1535 1.397 . S
C1536 C1537 1.334 . S
C1537 H1514 0.950 . S
C1537 C1536 1.334 . S
C1537 C1538 1.287 . S
C1538 C1537 1.287 . S
C1538 C1539 1.524 . S
C1538 H1557 0.913 . S
C1539 H1515 0.950 . S
C1539 C1538 1.524 . S
C1539 C1540 1.415 . S
C1540 H1516 0.950 . S
C1540 C1535 1.363 . S
C1540 C1539 1.415 . S
C1541 H1517 0.951 . S
C1541 C1542 1.366 . S
C1541 C1543 1.388 . S
C1542 C1541 1.366 . S
C1542 C1546 1.385 . S
C1543 H1518 0.951 . S
C1543 C1541 1.388 . S
C1543 C1544 1.366 . S
C1544 C1543 1.366 . S
C1544 C1545 1.414 . S
C1544 C1547 1.499 . S
C1545 H1519 0.950 . S
C1545 C1544 1.414 . S
C1545 C1546 1.374 . S
C1546 H1520 0.950 . S
C1546 C1542 1.385 . S
C1546 C1545 1.374 . S
C1547 C1544 1.499 . S
C1547 C1548 1.373 . S
C1547 C1549 1.389 . S
C1548 H1521 0.950 . S
C1548 C1534 1.377 . S
C1548 C1547 1.373 . S
C1549 C1533 1.377 . S
C1549 C1547 1.389 . S
C1549 C1550 1.524 . S
C1550 C1549 1.524 . S
C1550 C1551 1.397 . S
C1550 C1555 1.363 . S
C1551 H1522 0.950 . S
C1551 C1550 1.397 . S
C1551 C1552 1.334 . S
C1552 H1523 0.950 . S
C1552 C1551 1.334 . S
C1552 C1553 1.287 . S
C1553 C1552 1.287 . S
C1553 C1554 1.524 . S
C1553 H1556 0.999 . S
C1554 H1524 0.950 . S
C1554 C1553 1.524 . S
C1554 C1555 1.415 . S
C1555 H1525 0.950 . S
C1555 C1550 1.363 . S
C1555 C1554 1.415 . S
H1556 C1553 0.999 . S
H1557 C1538 0.913 . S
H1558 C1576 0.951 . S
H1559 C1578 0.951 . S
H1560 C1580 0.950 . S
H1561 C1581 0.950 . S
H1562 C1583 0.950 . S
H1563 C1586 0.950 . S
H1564 C1587 0.950 . S
H1565 C1589 0.950 . S
H1566 C1590 0.950 . S
H1567 C1591 0.951 . S
H1568 C1593 0.951 . S
H1569 C1595 0.950 . S
H1570 C1596 0.950 . S
H1571 C1598 0.950 . S
H1572 C1601 0.950 . S
H1573 C1602 0.950 . S
H1574 C1604 0.950 . S
H1575 C1605 0.950 . S
C1576 H1558 0.951 . S
C1576 C1577 1.366 . S
C1576 C1578 1.388 . S
C1577 C1576 1.366 . S
C1577 C1581 1.385 . S
C1578 H1559 0.951 . S
C1578 C1576 1.388 . S
C1578 C1579 1.366 . S
C1579 C1578 1.366 . S
C1579 C1580 1.414 . S
C1579 C1582 1.499 . S
C1580 H1560 0.950 . S
C1580 C1579 1.414 . S
C1580 C1581 1.374 . S
C1581 H1561 0.950 . S
C1581 C1577 1.385 . S
C1581 C1580 1.374 . S
C1582 C1579 1.499 . S
C1582 C1583 1.373 . S
C1582 C1584 1.389 . S
C1583 H1562 0.950 . S
C1583 C1582 1.373 . S
C1583 C1599 1.377 . S
C1584 C1582 1.389 . S
C1584 C1585 1.524 . S
C1584 C1598 1.377 . S
C1585 C1584 1.524 . S
C1585 C1586 1.397 . S
C1585 C1590 1.363 . S
C1586 H1563 0.950 . S
C1586 C1585 1.397 . S
C1586 C1587 1.334 . S
C1587 H1564 0.950 . S
C1587 C1586 1.334 . S
C1587 C1588 1.287 . S
C1588 C1587 1.287 . S
C1588 C1589 1.524 . S
C1588 H1607 0.913 . S
C1589 H1565 0.950 . S
C1589 C1588 1.524 . S
C1589 C1590 1.415 . S
C1590 H1566 0.950 . S
C1590 C1585 1.363 . S
C1590 C1589 1.415 . S
C1591 H1567 0.951 . S
C1591 C1592 1.366 . S
C1591 C1593 1.388 . S
C1592 C1591 1.366 . S
C1592 C1596 1.385 . S
C1593 H1568 0.951 . S
C1593 C1591 1.388 . S
C1593 C1594 1.366 . S
C1594 C1593 1.366 . S
C1594 C1595 1.414 . S
C1594 C1597 1.499 . S
C1595 H1569 0.950 . S
C1595 C1594 1.414 . S
C1595 C1596 1.374 . S
C1596 H1570 0.950 . S
C1596 C1592 1.385 . S
C1596 C1595 1.374 . S
C1597 C1594 1.499 . S
C1597 C1598 1.373 . S
C1597 C1599 1.389 . S
C1598 H1571 0.950 . S
C1598 C1584 1.377 . S
C1598 C1597 1.373 . S
C1599 C1583 1.377 . S
C1599 C1597 1.389 . S
C1599 C1600 1.524 . S
C1600 C1599 1.524 . S
C1600 C1601 1.397 . S
C1600 C1605 1.363 . S
C1601 H1572 0.950 . S
C1601 C1600 1.397 . S
C1601 C1602 1.334 1_455 S
C1602 H1573 0.950 . S
C1602 C1601 1.334 1_655 S
C1602 C1603 1.287 . S
C1603 C1602 1.287 . S
C1603 C1604 1.524 1_655 S
C1603 H1606 0.999 . S
C1604 H1574 0.950 . S
C1604 C1603 1.524 1_455 S
C1604 C1605 1.415 . S
C1605 H1575 0.950 . S
C1605 C1600 1.363 . S
C1605 C1604 1.415 . S
H1606 C1603 0.999 . S
H1607 C1588 0.913 . S
C427 C58 1.465 . S
C442 C146 1.444 . S
C492 C230 1.446 . S
C477 C68 1.464 . S
C542 C223 1.453 . S
C527 C40 1.454 . S
C577 C50 1.453 . S
C592 C139 1.454 . S
C642 C303 1.446 . S
C627 C23 1.468 . S
C692 C387 1.446 . S
C677 C32 1.466 . S
C727 C5 1.456 . S
C742 C380 1.455 . S
C777 C14 1.455 . S
C792 C296 1.454 . S
C842 C130 1.339 . S
C827 C13 1.501 . S
C892 C214 1.340 . S
C877 C4 1.501 . S
C942 C225 1.397 . S
C927 C31 1.524 . S
C992 C141 1.396 . S
C977 C22 1.524 . S
C1042 C309 1.340 . S
C1027 C49 1.502 . S
C1077 C41 1.504 . S
C1092 C393 1.341 . S
C1142 C382 1.399 . S
C1127 C67 1.525 . S
C1177 C59 1.526 . S
C1192 C298 1.398 . S
C1242 C128 1.545 . S
C1227 C7 1.544 . S
C1292 C212 1.543 . S
C1277 C16 1.541 . S
C1327 C25 1.541 . S
C1342 C219 1.523 . S
C1392 C135 1.521 . S
C1377 C34 1.538 . S
C1442 C307 1.545 . S
C1427 C43 1.545 . S
C1477 C52 1.544 . S
C1492 C391 1.547 . S
C1527 C61 1.542 . S
C1542 C398 1.523 . S
C1577 C70 1.541 . S
C1592 C314 1.525 . S
