# Generated by pormake.
# Topology ana-f, (3,3)-cn, num edge types: 1
# Building blocks:
#     Node 0, Type 0, BuildingBlock: WUSLED_clean_sbu_0, # of connection points: 3
#     Node 1, Type 0, BuildingBlock: WUSLED_clean_sbu_0, # of connection points: 3
#     Node 2, Type 0, BuildingBlock: WUSLED_clean_sbu_0, # of connection points: 3
#     Node 3, Type 0, BuildingBlock: WUSLED_clean_sbu_0, # of connection points: 3
#     Node 4, Type 0, BuildingBlock: WUSLED_clean_sbu_0, # of connection points: 3
#     Node 5, Type 0, BuildingBlock: WUSLED_clean_sbu_0, # of connection points: 3
#     Node 6, Type 0, BuildingBlock: WUSLED_clean_sbu_0, # of connection points: 3
#     Node 7, Type 0, BuildingBlock: WUSLED_clean_sbu_0, # of connection points: 3
#     Node 8, Type 0, BuildingBlock: WUSLED_clean_sbu_0, # of connection points: 3
#     Node 9, Type 0, BuildingBlock: WUSLED_clean_sbu_0, # of connection points: 3
#     Node 10, Type 0, BuildingBlock: WUSLED_clean_sbu_0, # of connection points: 3
#     Node 11, Type 0, BuildingBlock: WUSLED_clean_sbu_0, # of connection points: 3
#     Node 12, Type 0, BuildingBlock: WUSLED_clean_sbu_0, # of connection points: 3
#     Node 13, Type 0, BuildingBlock: WUSLED_clean_sbu_0, # of connection points: 3
#     Node 14, Type 0, BuildingBlock: WUSLED_clean_sbu_0, # of connection points: 3
#     Node 15, Type 0, BuildingBlock: WUSLED_clean_sbu_0, # of connection points: 3
#     Node 16, Type 0, BuildingBlock: WUSLED_clean_sbu_0, # of connection points: 3
#     Node 17, Type 0, BuildingBlock: WUSLED_clean_sbu_0, # of connection points: 3
#     Node 18, Type 0, BuildingBlock: WUSLED_clean_sbu_0, # of connection points: 3
#     Node 19, Type 0, BuildingBlock: WUSLED_clean_sbu_0, # of connection points: 3
#     Node 20, Type 0, BuildingBlock: WUSLED_clean_sbu_0, # of connection points: 3
#     Node 21, Type 0, BuildingBlock: WUSLED_clean_sbu_0, # of connection points: 3
#     Node 22, Type 0, BuildingBlock: WUSLED_clean_sbu_0, # of connection points: 3
#     Node 23, Type 0, BuildingBlock: WUSLED_clean_sbu_0, # of connection points: 3
#     Node 24, Type 0, BuildingBlock: WUSLED_clean_sbu_0, # of connection points: 3
#     Node 25, Type 0, BuildingBlock: WUSLED_clean_sbu_0, # of connection points: 3
#     Node 26, Type 0, BuildingBlock: WUSLED_clean_sbu_0, # of connection points: 3
#     Node 27, Type 0, BuildingBlock: WUSLED_clean_sbu_0, # of connection points: 3
#     Node 28, Type 0, BuildingBlock: WUSLED_clean_sbu_0, # of connection points: 3
#     Node 29, Type 0, BuildingBlock: WUSLED_clean_sbu_0, # of connection points: 3
#     Node 30, Type 0, BuildingBlock: WUSLED_clean_sbu_0, # of connection points: 3
#     Node 31, Type 0, BuildingBlock: WUSLED_clean_sbu_0, # of connection points: 3
#     Node 32, Type 0, BuildingBlock: WUSLED_clean_sbu_0, # of connection points: 3
#     Node 33, Type 0, BuildingBlock: WUSLED_clean_sbu_0, # of connection points: 3
#     Node 34, Type 0, BuildingBlock: WUSLED_clean_sbu_0, # of connection points: 3
#     Node 35, Type 0, BuildingBlock: WUSLED_clean_sbu_0, # of connection points: 3
#     Node 36, Type 0, BuildingBlock: WUSLED_clean_sbu_0, # of connection points: 3
#     Node 37, Type 0, BuildingBlock: WUSLED_clean_sbu_0, # of connection points: 3
#     Node 38, Type 0, BuildingBlock: WUSLED_clean_sbu_0, # of connection points: 3
#     Node 39, Type 0, BuildingBlock: WUSLED_clean_sbu_0, # of connection points: 3
#     Node 40, Type 0, BuildingBlock: WUSLED_clean_sbu_0, # of connection points: 3
#     Node 41, Type 0, BuildingBlock: WUSLED_clean_sbu_0, # of connection points: 3
#     Node 42, Type 0, BuildingBlock: WUSLED_clean_sbu_0, # of connection points: 3
#     Node 43, Type 0, BuildingBlock: WUSLED_clean_sbu_0, # of connection points: 3
#     Node 44, Type 0, BuildingBlock: WUSLED_clean_sbu_0, # of connection points: 3
#     Node 45, Type 0, BuildingBlock: WUSLED_clean_sbu_0, # of connection points: 3
#     Node 46, Type 0, BuildingBlock: WUSLED_clean_sbu_0, # of connection points: 3
#     Node 47, Type 0, BuildingBlock: WUSLED_clean_sbu_0, # of connection points: 3
#     Node 48, Type 0, BuildingBlock: WUSLED_clean_sbu_0, # of connection points: 3
#     Node 49, Type 0, BuildingBlock: WUSLED_clean_sbu_0, # of connection points: 3
#     Node 50, Type 0, BuildingBlock: WUSLED_clean_sbu_0, # of connection points: 3
#     Node 51, Type 0, BuildingBlock: WUSLED_clean_sbu_0, # of connection points: 3
#     Node 52, Type 0, BuildingBlock: WUSLED_clean_sbu_0, # of connection points: 3
#     Node 53, Type 0, BuildingBlock: WUSLED_clean_sbu_0, # of connection points: 3
#     Node 54, Type 0, BuildingBlock: WUSLED_clean_sbu_0, # of connection points: 3
#     Node 55, Type 0, BuildingBlock: WUSLED_clean_sbu_0, # of connection points: 3
#     Node 56, Type 0, BuildingBlock: WUSLED_clean_sbu_0, # of connection points: 3
#     Node 57, Type 0, BuildingBlock: WUSLED_clean_sbu_0, # of connection points: 3
#     Node 58, Type 0, BuildingBlock: WUSLED_clean_sbu_0, # of connection points: 3
#     Node 59, Type 0, BuildingBlock: WUSLED_clean_sbu_0, # of connection points: 3
#     Node 60, Type 0, BuildingBlock: WUSLED_clean_sbu_0, # of connection points: 3
#     Node 61, Type 0, BuildingBlock: WUSLED_clean_sbu_0, # of connection points: 3
#     Node 62, Type 0, BuildingBlock: WUSLED_clean_sbu_0, # of connection points: 3
#     Node 63, Type 0, BuildingBlock: WUSLED_clean_sbu_0, # of connection points: 3
#     Node 64, Type 0, BuildingBlock: WUSLED_clean_sbu_0, # of connection points: 3
#     Node 65, Type 0, BuildingBlock: WUSLED_clean_sbu_0, # of connection points: 3
#     Node 66, Type 0, BuildingBlock: WUSLED_clean_sbu_0, # of connection points: 3
#     Node 67, Type 0, BuildingBlock: WUSLED_clean_sbu_0, # of connection points: 3
#     Node 68, Type 0, BuildingBlock: WUSLED_clean_sbu_0, # of connection points: 3
#     Node 69, Type 0, BuildingBlock: WUSLED_clean_sbu_0, # of connection points: 3
#     Node 70, Type 0, BuildingBlock: WUSLED_clean_sbu_0, # of connection points: 3
#     Node 71, Type 0, BuildingBlock: WUSLED_clean_sbu_0, # of connection points: 3
#     Node 72, Type 0, BuildingBlock: WUSLED_clean_sbu_0, # of connection points: 3
#     Node 73, Type 0, BuildingBlock: WUSLED_clean_sbu_0, # of connection points: 3
#     Node 74, Type 0, BuildingBlock: WUSLED_clean_sbu_0, # of connection points: 3
#     Node 75, Type 0, BuildingBlock: WUSLED_clean_sbu_0, # of connection points: 3
#     Node 76, Type 0, BuildingBlock: WUSLED_clean_sbu_0, # of connection points: 3
#     Node 77, Type 0, BuildingBlock: WUSLED_clean_sbu_0, # of connection points: 3
#     Node 78, Type 0, BuildingBlock: WUSLED_clean_sbu_0, # of connection points: 3
#     Node 79, Type 0, BuildingBlock: WUSLED_clean_sbu_0, # of connection points: 3
#     Node 80, Type 0, BuildingBlock: WUSLED_clean_sbu_0, # of connection points: 3
#     Node 81, Type 0, BuildingBlock: WUSLED_clean_sbu_0, # of connection points: 3
#     Node 82, Type 0, BuildingBlock: WUSLED_clean_sbu_0, # of connection points: 3
#     Node 83, Type 0, BuildingBlock: WUSLED_clean_sbu_0, # of connection points: 3
#     Node 84, Type 0, BuildingBlock: WUSLED_clean_sbu_0, # of connection points: 3
#     Node 85, Type 0, BuildingBlock: WUSLED_clean_sbu_0, # of connection points: 3
#     Node 86, Type 0, BuildingBlock: WUSLED_clean_sbu_0, # of connection points: 3
#     Node 87, Type 0, BuildingBlock: WUSLED_clean_sbu_0, # of connection points: 3
#     Node 88, Type 0, BuildingBlock: WUSLED_clean_sbu_0, # of connection points: 3
#     Node 89, Type 0, BuildingBlock: WUSLED_clean_sbu_0, # of connection points: 3
#     Node 90, Type 0, BuildingBlock: WUSLED_clean_sbu_0, # of connection points: 3
#     Node 91, Type 0, BuildingBlock: WUSLED_clean_sbu_0, # of connection points: 3
#     Node 92, Type 0, BuildingBlock: WUSLED_clean_sbu_0, # of connection points: 3
#     Node 93, Type 0, BuildingBlock: WUSLED_clean_sbu_0, # of connection points: 3
#     Node 94, Type 0, BuildingBlock: WUSLED_clean_sbu_0, # of connection points: 3
#     Node 95, Type 0, BuildingBlock: WUSLED_clean_sbu_0, # of connection points: 3
#     Node 96, Type 1, BuildingBlock: MIDCAF_clean_linker_0, # of connection points: 3
#     Node 97, Type 1, BuildingBlock: MIDCAF_clean_linker_0, # of connection points: 3
#     Node 98, Type 1, BuildingBlock: MIDCAF_clean_linker_0, # of connection points: 3
#     Node 99, Type 1, BuildingBlock: MIDCAF_clean_linker_0, # of connection points: 3
#     Node 100, Type 1, BuildingBlock: MIDCAF_clean_linker_0, # of connection points: 3
#     Node 101, Type 1, BuildingBlock: MIDCAF_clean_linker_0, # of connection points: 3
#     Node 102, Type 1, BuildingBlock: MIDCAF_clean_linker_0, # of connection points: 3
#     Node 103, Type 1, BuildingBlock: MIDCAF_clean_linker_0, # of connection points: 3
#     Node 104, Type 1, BuildingBlock: MIDCAF_clean_linker_0, # of connection points: 3
#     Node 105, Type 1, BuildingBlock: MIDCAF_clean_linker_0, # of connection points: 3
#     Node 106, Type 1, BuildingBlock: MIDCAF_clean_linker_0, # of connection points: 3
#     Node 107, Type 1, BuildingBlock: MIDCAF_clean_linker_0, # of connection points: 3
#     Node 108, Type 1, BuildingBlock: MIDCAF_clean_linker_0, # of connection points: 3
#     Node 109, Type 1, BuildingBlock: MIDCAF_clean_linker_0, # of connection points: 3
#     Node 110, Type 1, BuildingBlock: MIDCAF_clean_linker_0, # of connection points: 3
#     Node 111, Type 1, BuildingBlock: MIDCAF_clean_linker_0, # of connection points: 3
#     Node 112, Type 1, BuildingBlock: MIDCAF_clean_linker_0, # of connection points: 3
#     Node 113, Type 1, BuildingBlock: MIDCAF_clean_linker_0, # of connection points: 3
#     Node 114, Type 1, BuildingBlock: MIDCAF_clean_linker_0, # of connection points: 3
#     Node 115, Type 1, BuildingBlock: MIDCAF_clean_linker_0, # of connection points: 3
#     Node 116, Type 1, BuildingBlock: MIDCAF_clean_linker_0, # of connection points: 3
#     Node 117, Type 1, BuildingBlock: MIDCAF_clean_linker_0, # of connection points: 3
#     Node 118, Type 1, BuildingBlock: MIDCAF_clean_linker_0, # of connection points: 3
#     Node 119, Type 1, BuildingBlock: MIDCAF_clean_linker_0, # of connection points: 3
#     Node 120, Type 1, BuildingBlock: MIDCAF_clean_linker_0, # of connection points: 3
#     Node 121, Type 1, BuildingBlock: MIDCAF_clean_linker_0, # of connection points: 3
#     Node 122, Type 1, BuildingBlock: MIDCAF_clean_linker_0, # of connection points: 3
#     Node 123, Type 1, BuildingBlock: MIDCAF_clean_linker_0, # of connection points: 3
#     Node 124, Type 1, BuildingBlock: MIDCAF_clean_linker_0, # of connection points: 3
#     Node 125, Type 1, BuildingBlock: MIDCAF_clean_linker_0, # of connection points: 3
#     Node 126, Type 1, BuildingBlock: MIDCAF_clean_linker_0, # of connection points: 3
#     Node 127, Type 1, BuildingBlock: MIDCAF_clean_linker_0, # of connection points: 3
#     Node 128, Type 1, BuildingBlock: MIDCAF_clean_linker_0, # of connection points: 3
#     Node 129, Type 1, BuildingBlock: MIDCAF_clean_linker_0, # of connection points: 3
#     Node 130, Type 1, BuildingBlock: MIDCAF_clean_linker_0, # of connection points: 3
#     Node 131, Type 1, BuildingBlock: MIDCAF_clean_linker_0, # of connection points: 3
#     Node 132, Type 1, BuildingBlock: MIDCAF_clean_linker_0, # of connection points: 3
#     Node 133, Type 1, BuildingBlock: MIDCAF_clean_linker_0, # of connection points: 3
#     Node 134, Type 1, BuildingBlock: MIDCAF_clean_linker_0, # of connection points: 3
#     Node 135, Type 1, BuildingBlock: MIDCAF_clean_linker_0, # of connection points: 3
#     Node 136, Type 1, BuildingBlock: MIDCAF_clean_linker_0, # of connection points: 3
#     Node 137, Type 1, BuildingBlock: MIDCAF_clean_linker_0, # of connection points: 3
#     Node 138, Type 1, BuildingBlock: MIDCAF_clean_linker_0, # of connection points: 3
#     Node 139, Type 1, BuildingBlock: MIDCAF_clean_linker_0, # of connection points: 3
#     Node 140, Type 1, BuildingBlock: MIDCAF_clean_linker_0, # of connection points: 3
#     Node 141, Type 1, BuildingBlock: MIDCAF_clean_linker_0, # of connection points: 3
#     Node 142, Type 1, BuildingBlock: MIDCAF_clean_linker_0, # of connection points: 3
#     Node 143, Type 1, BuildingBlock: MIDCAF_clean_linker_0, # of connection points: 3
#     Node 144, Type 1, BuildingBlock: MIDCAF_clean_linker_0, # of connection points: 3
#     Node 145, Type 1, BuildingBlock: MIDCAF_clean_linker_0, # of connection points: 3
#     Node 146, Type 1, BuildingBlock: MIDCAF_clean_linker_0, # of connection points: 3
#     Node 147, Type 1, BuildingBlock: MIDCAF_clean_linker_0, # of connection points: 3
#     Node 148, Type 1, BuildingBlock: MIDCAF_clean_linker_0, # of connection points: 3
#     Node 149, Type 1, BuildingBlock: MIDCAF_clean_linker_0, # of connection points: 3
#     Node 150, Type 1, BuildingBlock: MIDCAF_clean_linker_0, # of connection points: 3
#     Node 151, Type 1, BuildingBlock: MIDCAF_clean_linker_0, # of connection points: 3
#     Node 152, Type 1, BuildingBlock: MIDCAF_clean_linker_0, # of connection points: 3
#     Node 153, Type 1, BuildingBlock: MIDCAF_clean_linker_0, # of connection points: 3
#     Node 154, Type 1, BuildingBlock: MIDCAF_clean_linker_0, # of connection points: 3
#     Node 155, Type 1, BuildingBlock: MIDCAF_clean_linker_0, # of connection points: 3
#     Node 156, Type 1, BuildingBlock: MIDCAF_clean_linker_0, # of connection points: 3
#     Node 157, Type 1, BuildingBlock: MIDCAF_clean_linker_0, # of connection points: 3
#     Node 158, Type 1, BuildingBlock: MIDCAF_clean_linker_0, # of connection points: 3
#     Node 159, Type 1, BuildingBlock: MIDCAF_clean_linker_0, # of connection points: 3
#     Node 160, Type 1, BuildingBlock: MIDCAF_clean_linker_0, # of connection points: 3
#     Node 161, Type 1, BuildingBlock: MIDCAF_clean_linker_0, # of connection points: 3
#     Node 162, Type 1, BuildingBlock: MIDCAF_clean_linker_0, # of connection points: 3
#     Node 163, Type 1, BuildingBlock: MIDCAF_clean_linker_0, # of connection points: 3
#     Node 164, Type 1, BuildingBlock: MIDCAF_clean_linker_0, # of connection points: 3
#     Node 165, Type 1, BuildingBlock: MIDCAF_clean_linker_0, # of connection points: 3
#     Node 166, Type 1, BuildingBlock: MIDCAF_clean_linker_0, # of connection points: 3
#     Node 167, Type 1, BuildingBlock: MIDCAF_clean_linker_0, # of connection points: 3
#     Node 168, Type 1, BuildingBlock: MIDCAF_clean_linker_0, # of connection points: 3
#     Node 169, Type 1, BuildingBlock: MIDCAF_clean_linker_0, # of connection points: 3
#     Node 170, Type 1, BuildingBlock: MIDCAF_clean_linker_0, # of connection points: 3
#     Node 171, Type 1, BuildingBlock: MIDCAF_clean_linker_0, # of connection points: 3
#     Node 172, Type 1, BuildingBlock: MIDCAF_clean_linker_0, # of connection points: 3
#     Node 173, Type 1, BuildingBlock: MIDCAF_clean_linker_0, # of connection points: 3
#     Node 174, Type 1, BuildingBlock: MIDCAF_clean_linker_0, # of connection points: 3
#     Node 175, Type 1, BuildingBlock: MIDCAF_clean_linker_0, # of connection points: 3
#     Node 176, Type 1, BuildingBlock: MIDCAF_clean_linker_0, # of connection points: 3
#     Node 177, Type 1, BuildingBlock: MIDCAF_clean_linker_0, # of connection points: 3
#     Node 178, Type 1, BuildingBlock: MIDCAF_clean_linker_0, # of connection points: 3
#     Node 179, Type 1, BuildingBlock: MIDCAF_clean_linker_0, # of connection points: 3
#     Node 180, Type 1, BuildingBlock: MIDCAF_clean_linker_0, # of connection points: 3
#     Node 181, Type 1, BuildingBlock: MIDCAF_clean_linker_0, # of connection points: 3
#     Node 182, Type 1, BuildingBlock: MIDCAF_clean_linker_0, # of connection points: 3
#     Node 183, Type 1, BuildingBlock: MIDCAF_clean_linker_0, # of connection points: 3
#     Node 184, Type 1, BuildingBlock: MIDCAF_clean_linker_0, # of connection points: 3
#     Node 185, Type 1, BuildingBlock: MIDCAF_clean_linker_0, # of connection points: 3
#     Node 186, Type 1, BuildingBlock: MIDCAF_clean_linker_0, # of connection points: 3
#     Node 187, Type 1, BuildingBlock: MIDCAF_clean_linker_0, # of connection points: 3
#     Node 188, Type 1, BuildingBlock: MIDCAF_clean_linker_0, # of connection points: 3
#     Node 189, Type 1, BuildingBlock: MIDCAF_clean_linker_0, # of connection points: 3
#     Node 190, Type 1, BuildingBlock: MIDCAF_clean_linker_0, # of connection points: 3
#     Node 191, Type 1, BuildingBlock: MIDCAF_clean_linker_0, # of connection points: 3
#     Edge 192, Type (0, 1), BuildingBlock: OJICUG_clean_linker_0, # of connection points: 2
#     Edge 193, Type (0, 1), BuildingBlock: OJICUG_clean_linker_0, # of connection points: 2
#     Edge 194, Type (0, 1), BuildingBlock: OJICUG_clean_linker_0, # of connection points: 2
#     Edge 195, Type (0, 1), BuildingBlock: OJICUG_clean_linker_0, # of connection points: 2
#     Edge 196, Type (0, 1), BuildingBlock: OJICUG_clean_linker_0, # of connection points: 2
#     Edge 197, Type (0, 1), BuildingBlock: OJICUG_clean_linker_0, # of connection points: 2
#     Edge 198, Type (0, 1), BuildingBlock: OJICUG_clean_linker_0, # of connection points: 2
#     Edge 199, Type (0, 1), BuildingBlock: OJICUG_clean_linker_0, # of connection points: 2
#     Edge 200, Type (0, 1), BuildingBlock: OJICUG_clean_linker_0, # of connection points: 2
#     Edge 201, Type (0, 1), BuildingBlock: OJICUG_clean_linker_0, # of connection points: 2
#     Edge 202, Type (0, 1), BuildingBlock: OJICUG_clean_linker_0, # of connection points: 2
#     Edge 203, Type (0, 1), BuildingBlock: OJICUG_clean_linker_0, # of connection points: 2
#     Edge 204, Type (0, 1), BuildingBlock: OJICUG_clean_linker_0, # of connection points: 2
#     Edge 205, Type (0, 1), BuildingBlock: OJICUG_clean_linker_0, # of connection points: 2
#     Edge 206, Type (0, 1), BuildingBlock: OJICUG_clean_linker_0, # of connection points: 2
#     Edge 207, Type (0, 1), BuildingBlock: OJICUG_clean_linker_0, # of connection points: 2
#     Edge 208, Type (0, 1), BuildingBlock: OJICUG_clean_linker_0, # of connection points: 2
#     Edge 209, Type (0, 1), BuildingBlock: OJICUG_clean_linker_0, # of connection points: 2
#     Edge 210, Type (0, 1), BuildingBlock: OJICUG_clean_linker_0, # of connection points: 2
#     Edge 211, Type (0, 1), BuildingBlock: OJICUG_clean_linker_0, # of connection points: 2
#     Edge 212, Type (0, 1), BuildingBlock: OJICUG_clean_linker_0, # of connection points: 2
#     Edge 213, Type (0, 1), BuildingBlock: OJICUG_clean_linker_0, # of connection points: 2
#     Edge 214, Type (0, 1), BuildingBlock: OJICUG_clean_linker_0, # of connection points: 2
#     Edge 215, Type (0, 1), BuildingBlock: OJICUG_clean_linker_0, # of connection points: 2
#     Edge 216, Type (0, 1), BuildingBlock: OJICUG_clean_linker_0, # of connection points: 2
#     Edge 217, Type (0, 1), BuildingBlock: OJICUG_clean_linker_0, # of connection points: 2
#     Edge 218, Type (0, 1), BuildingBlock: OJICUG_clean_linker_0, # of connection points: 2
#     Edge 219, Type (0, 1), BuildingBlock: OJICUG_clean_linker_0, # of connection points: 2
#     Edge 220, Type (0, 1), BuildingBlock: OJICUG_clean_linker_0, # of connection points: 2
#     Edge 221, Type (0, 1), BuildingBlock: OJICUG_clean_linker_0, # of connection points: 2
#     Edge 222, Type (0, 1), BuildingBlock: OJICUG_clean_linker_0, # of connection points: 2
#     Edge 223, Type (0, 1), BuildingBlock: OJICUG_clean_linker_0, # of connection points: 2
#     Edge 224, Type (0, 1), BuildingBlock: OJICUG_clean_linker_0, # of connection points: 2
#     Edge 225, Type (0, 1), BuildingBlock: OJICUG_clean_linker_0, # of connection points: 2
#     Edge 226, Type (0, 1), BuildingBlock: OJICUG_clean_linker_0, # of connection points: 2
#     Edge 227, Type (0, 1), BuildingBlock: OJICUG_clean_linker_0, # of connection points: 2
#     Edge 228, Type (0, 1), BuildingBlock: OJICUG_clean_linker_0, # of connection points: 2
#     Edge 229, Type (0, 1), BuildingBlock: OJICUG_clean_linker_0, # of connection points: 2
#     Edge 230, Type (0, 1), BuildingBlock: OJICUG_clean_linker_0, # of connection points: 2
#     Edge 231, Type (0, 1), BuildingBlock: OJICUG_clean_linker_0, # of connection points: 2
#     Edge 232, Type (0, 1), BuildingBlock: OJICUG_clean_linker_0, # of connection points: 2
#     Edge 233, Type (0, 1), BuildingBlock: OJICUG_clean_linker_0, # of connection points: 2
#     Edge 234, Type (0, 1), BuildingBlock: OJICUG_clean_linker_0, # of connection points: 2
#     Edge 235, Type (0, 1), BuildingBlock: OJICUG_clean_linker_0, # of connection points: 2
#     Edge 236, Type (0, 1), BuildingBlock: OJICUG_clean_linker_0, # of connection points: 2
#     Edge 237, Type (0, 1), BuildingBlock: OJICUG_clean_linker_0, # of connection points: 2
#     Edge 238, Type (0, 1), BuildingBlock: OJICUG_clean_linker_0, # of connection points: 2
#     Edge 239, Type (0, 1), BuildingBlock: OJICUG_clean_linker_0, # of connection points: 2
#     Edge 240, Type (0, 1), BuildingBlock: OJICUG_clean_linker_0, # of connection points: 2
#     Edge 241, Type (0, 1), BuildingBlock: OJICUG_clean_linker_0, # of connection points: 2
#     Edge 242, Type (0, 1), BuildingBlock: OJICUG_clean_linker_0, # of connection points: 2
#     Edge 243, Type (0, 1), BuildingBlock: OJICUG_clean_linker_0, # of connection points: 2
#     Edge 244, Type (0, 1), BuildingBlock: OJICUG_clean_linker_0, # of connection points: 2
#     Edge 245, Type (0, 1), BuildingBlock: OJICUG_clean_linker_0, # of connection points: 2
#     Edge 246, Type (0, 1), BuildingBlock: OJICUG_clean_linker_0, # of connection points: 2
#     Edge 247, Type (0, 1), BuildingBlock: OJICUG_clean_linker_0, # of connection points: 2
#     Edge 248, Type (0, 1), BuildingBlock: OJICUG_clean_linker_0, # of connection points: 2
#     Edge 249, Type (0, 1), BuildingBlock: OJICUG_clean_linker_0, # of connection points: 2
#     Edge 250, Type (0, 1), BuildingBlock: OJICUG_clean_linker_0, # of connection points: 2
#     Edge 251, Type (0, 1), BuildingBlock: OJICUG_clean_linker_0, # of connection points: 2
#     Edge 252, Type (0, 1), BuildingBlock: OJICUG_clean_linker_0, # of connection points: 2
#     Edge 253, Type (0, 1), BuildingBlock: OJICUG_clean_linker_0, # of connection points: 2
#     Edge 254, Type (0, 1), BuildingBlock: OJICUG_clean_linker_0, # of connection points: 2
#     Edge 255, Type (0, 1), BuildingBlock: OJICUG_clean_linker_0, # of connection points: 2
#     Edge 256, Type (0, 1), BuildingBlock: OJICUG_clean_linker_0, # of connection points: 2
#     Edge 257, Type (0, 1), BuildingBlock: OJICUG_clean_linker_0, # of connection points: 2
#     Edge 258, Type (0, 1), BuildingBlock: OJICUG_clean_linker_0, # of connection points: 2
#     Edge 259, Type (0, 1), BuildingBlock: OJICUG_clean_linker_0, # of connection points: 2
#     Edge 260, Type (0, 1), BuildingBlock: OJICUG_clean_linker_0, # of connection points: 2
#     Edge 261, Type (0, 1), BuildingBlock: OJICUG_clean_linker_0, # of connection points: 2
#     Edge 262, Type (0, 1), BuildingBlock: OJICUG_clean_linker_0, # of connection points: 2
#     Edge 263, Type (0, 1), BuildingBlock: OJICUG_clean_linker_0, # of connection points: 2
#     Edge 264, Type (0, 1), BuildingBlock: OJICUG_clean_linker_0, # of connection points: 2
#     Edge 265, Type (0, 1), BuildingBlock: OJICUG_clean_linker_0, # of connection points: 2
#     Edge 266, Type (0, 1), BuildingBlock: OJICUG_clean_linker_0, # of connection points: 2
#     Edge 267, Type (0, 1), BuildingBlock: OJICUG_clean_linker_0, # of connection points: 2
#     Edge 268, Type (0, 1), BuildingBlock: OJICUG_clean_linker_0, # of connection points: 2
#     Edge 269, Type (0, 1), BuildingBlock: OJICUG_clean_linker_0, # of connection points: 2
#     Edge 270, Type (0, 1), BuildingBlock: OJICUG_clean_linker_0, # of connection points: 2
#     Edge 271, Type (0, 1), BuildingBlock: OJICUG_clean_linker_0, # of connection points: 2
#     Edge 272, Type (0, 1), BuildingBlock: OJICUG_clean_linker_0, # of connection points: 2
#     Edge 273, Type (0, 1), BuildingBlock: OJICUG_clean_linker_0, # of connection points: 2
#     Edge 274, Type (0, 1), BuildingBlock: OJICUG_clean_linker_0, # of connection points: 2
#     Edge 275, Type (0, 1), BuildingBlock: OJICUG_clean_linker_0, # of connection points: 2
#     Edge 276, Type (0, 1), BuildingBlock: OJICUG_clean_linker_0, # of connection points: 2
#     Edge 277, Type (0, 1), BuildingBlock: OJICUG_clean_linker_0, # of connection points: 2
#     Edge 278, Type (0, 1), BuildingBlock: OJICUG_clean_linker_0, # of connection points: 2
#     Edge 279, Type (0, 1), BuildingBlock: OJICUG_clean_linker_0, # of connection points: 2
#     Edge 280, Type (0, 1), BuildingBlock: OJICUG_clean_linker_0, # of connection points: 2
#     Edge 281, Type (0, 1), BuildingBlock: OJICUG_clean_linker_0, # of connection points: 2
#     Edge 282, Type (0, 1), BuildingBlock: OJICUG_clean_linker_0, # of connection points: 2
#     Edge 283, Type (0, 1), BuildingBlock: OJICUG_clean_linker_0, # of connection points: 2
#     Edge 284, Type (0, 1), BuildingBlock: OJICUG_clean_linker_0, # of connection points: 2
#     Edge 285, Type (0, 1), BuildingBlock: OJICUG_clean_linker_0, # of connection points: 2
#     Edge 286, Type (0, 1), BuildingBlock: OJICUG_clean_linker_0, # of connection points: 2
#     Edge 287, Type (0, 1), BuildingBlock: OJICUG_clean_linker_0, # of connection points: 2
#     Edge 288, Type (0, 1), BuildingBlock: OJICUG_clean_linker_0, # of connection points: 2
#     Edge 289, Type (0, 1), BuildingBlock: OJICUG_clean_linker_0, # of connection points: 2
#     Edge 290, Type (0, 1), BuildingBlock: OJICUG_clean_linker_0, # of connection points: 2
#     Edge 291, Type (0, 1), BuildingBlock: OJICUG_clean_linker_0, # of connection points: 2
#     Edge 292, Type (0, 1), BuildingBlock: OJICUG_clean_linker_0, # of connection points: 2
#     Edge 293, Type (0, 1), BuildingBlock: OJICUG_clean_linker_0, # of connection points: 2
#     Edge 294, Type (0, 1), BuildingBlock: OJICUG_clean_linker_0, # of connection points: 2
#     Edge 295, Type (0, 1), BuildingBlock: OJICUG_clean_linker_0, # of connection points: 2
#     Edge 296, Type (0, 1), BuildingBlock: OJICUG_clean_linker_0, # of connection points: 2
#     Edge 297, Type (0, 1), BuildingBlock: OJICUG_clean_linker_0, # of connection points: 2
#     Edge 298, Type (0, 1), BuildingBlock: OJICUG_clean_linker_0, # of connection points: 2
#     Edge 299, Type (0, 1), BuildingBlock: OJICUG_clean_linker_0, # of connection points: 2
#     Edge 300, Type (0, 1), BuildingBlock: OJICUG_clean_linker_0, # of connection points: 2
#     Edge 301, Type (0, 1), BuildingBlock: OJICUG_clean_linker_0, # of connection points: 2
#     Edge 302, Type (0, 1), BuildingBlock: OJICUG_clean_linker_0, # of connection points: 2
#     Edge 303, Type (0, 1), BuildingBlock: OJICUG_clean_linker_0, # of connection points: 2
#     Edge 304, Type (0, 1), BuildingBlock: OJICUG_clean_linker_0, # of connection points: 2
#     Edge 305, Type (0, 1), BuildingBlock: OJICUG_clean_linker_0, # of connection points: 2
#     Edge 306, Type (0, 1), BuildingBlock: OJICUG_clean_linker_0, # of connection points: 2
#     Edge 307, Type (0, 1), BuildingBlock: OJICUG_clean_linker_0, # of connection points: 2
#     Edge 308, Type (0, 1), BuildingBlock: OJICUG_clean_linker_0, # of connection points: 2
#     Edge 309, Type (0, 1), BuildingBlock: OJICUG_clean_linker_0, # of connection points: 2
#     Edge 310, Type (0, 1), BuildingBlock: OJICUG_clean_linker_0, # of connection points: 2
#     Edge 311, Type (0, 1), BuildingBlock: OJICUG_clean_linker_0, # of connection points: 2
#     Edge 312, Type (0, 1), BuildingBlock: OJICUG_clean_linker_0, # of connection points: 2
#     Edge 313, Type (0, 1), BuildingBlock: OJICUG_clean_linker_0, # of connection points: 2
#     Edge 314, Type (0, 1), BuildingBlock: OJICUG_clean_linker_0, # of connection points: 2
#     Edge 315, Type (0, 1), BuildingBlock: OJICUG_clean_linker_0, # of connection points: 2
#     Edge 316, Type (0, 1), BuildingBlock: OJICUG_clean_linker_0, # of connection points: 2
#     Edge 317, Type (0, 1), BuildingBlock: OJICUG_clean_linker_0, # of connection points: 2
#     Edge 318, Type (0, 1), BuildingBlock: OJICUG_clean_linker_0, # of connection points: 2
#     Edge 319, Type (0, 1), BuildingBlock: OJICUG_clean_linker_0, # of connection points: 2
#     Edge 320, Type (0, 1), BuildingBlock: OJICUG_clean_linker_0, # of connection points: 2
#     Edge 321, Type (0, 1), BuildingBlock: OJICUG_clean_linker_0, # of connection points: 2
#     Edge 322, Type (0, 1), BuildingBlock: OJICUG_clean_linker_0, # of connection points: 2
#     Edge 323, Type (0, 1), BuildingBlock: OJICUG_clean_linker_0, # of connection points: 2
#     Edge 324, Type (0, 1), BuildingBlock: OJICUG_clean_linker_0, # of connection points: 2
#     Edge 325, Type (0, 1), BuildingBlock: OJICUG_clean_linker_0, # of connection points: 2
#     Edge 326, Type (0, 1), BuildingBlock: OJICUG_clean_linker_0, # of connection points: 2
#     Edge 327, Type (0, 1), BuildingBlock: OJICUG_clean_linker_0, # of connection points: 2
#     Edge 328, Type (0, 1), BuildingBlock: OJICUG_clean_linker_0, # of connection points: 2
#     Edge 329, Type (0, 1), BuildingBlock: OJICUG_clean_linker_0, # of connection points: 2
#     Edge 330, Type (0, 1), BuildingBlock: OJICUG_clean_linker_0, # of connection points: 2
#     Edge 331, Type (0, 1), BuildingBlock: OJICUG_clean_linker_0, # of connection points: 2
#     Edge 332, Type (0, 1), BuildingBlock: OJICUG_clean_linker_0, # of connection points: 2
#     Edge 333, Type (0, 1), BuildingBlock: OJICUG_clean_linker_0, # of connection points: 2
#     Edge 334, Type (0, 1), BuildingBlock: OJICUG_clean_linker_0, # of connection points: 2
#     Edge 335, Type (0, 1), BuildingBlock: OJICUG_clean_linker_0, # of connection points: 2
#     Edge 336, Type (0, 1), BuildingBlock: OJICUG_clean_linker_0, # of connection points: 2
#     Edge 337, Type (0, 1), BuildingBlock: OJICUG_clean_linker_0, # of connection points: 2
#     Edge 338, Type (0, 1), BuildingBlock: OJICUG_clean_linker_0, # of connection points: 2
#     Edge 339, Type (0, 1), BuildingBlock: OJICUG_clean_linker_0, # of connection points: 2
#     Edge 340, Type (0, 1), BuildingBlock: OJICUG_clean_linker_0, # of connection points: 2
#     Edge 341, Type (0, 1), BuildingBlock: OJICUG_clean_linker_0, # of connection points: 2
#     Edge 342, Type (0, 1), BuildingBlock: OJICUG_clean_linker_0, # of connection points: 2
#     Edge 343, Type (0, 1), BuildingBlock: OJICUG_clean_linker_0, # of connection points: 2
#     Edge 344, Type (0, 1), BuildingBlock: OJICUG_clean_linker_0, # of connection points: 2
#     Edge 345, Type (0, 1), BuildingBlock: OJICUG_clean_linker_0, # of connection points: 2
#     Edge 346, Type (0, 1), BuildingBlock: OJICUG_clean_linker_0, # of connection points: 2
#     Edge 347, Type (0, 1), BuildingBlock: OJICUG_clean_linker_0, # of connection points: 2
#     Edge 348, Type (0, 1), BuildingBlock: OJICUG_clean_linker_0, # of connection points: 2
#     Edge 349, Type (0, 1), BuildingBlock: OJICUG_clean_linker_0, # of connection points: 2
#     Edge 350, Type (0, 1), BuildingBlock: OJICUG_clean_linker_0, # of connection points: 2
#     Edge 351, Type (0, 1), BuildingBlock: OJICUG_clean_linker_0, # of connection points: 2
#     Edge 352, Type (0, 1), BuildingBlock: OJICUG_clean_linker_0, # of connection points: 2
#     Edge 353, Type (0, 1), BuildingBlock: OJICUG_clean_linker_0, # of connection points: 2
#     Edge 354, Type (0, 1), BuildingBlock: OJICUG_clean_linker_0, # of connection points: 2
#     Edge 355, Type (0, 1), BuildingBlock: OJICUG_clean_linker_0, # of connection points: 2
#     Edge 356, Type (0, 1), BuildingBlock: OJICUG_clean_linker_0, # of connection points: 2
#     Edge 357, Type (0, 1), BuildingBlock: OJICUG_clean_linker_0, # of connection points: 2
#     Edge 358, Type (0, 1), BuildingBlock: OJICUG_clean_linker_0, # of connection points: 2
#     Edge 359, Type (0, 1), BuildingBlock: OJICUG_clean_linker_0, # of connection points: 2
#     Edge 360, Type (0, 1), BuildingBlock: OJICUG_clean_linker_0, # of connection points: 2
#     Edge 361, Type (0, 1), BuildingBlock: OJICUG_clean_linker_0, # of connection points: 2
#     Edge 362, Type (0, 1), BuildingBlock: OJICUG_clean_linker_0, # of connection points: 2
#     Edge 363, Type (0, 1), BuildingBlock: OJICUG_clean_linker_0, # of connection points: 2
#     Edge 364, Type (0, 1), BuildingBlock: OJICUG_clean_linker_0, # of connection points: 2
#     Edge 365, Type (0, 1), BuildingBlock: OJICUG_clean_linker_0, # of connection points: 2
#     Edge 366, Type (0, 1), BuildingBlock: OJICUG_clean_linker_0, # of connection points: 2
#     Edge 367, Type (0, 1), BuildingBlock: OJICUG_clean_linker_0, # of connection points: 2
#     Edge 368, Type (0, 1), BuildingBlock: OJICUG_clean_linker_0, # of connection points: 2
#     Edge 369, Type (0, 1), BuildingBlock: OJICUG_clean_linker_0, # of connection points: 2
#     Edge 370, Type (0, 1), BuildingBlock: OJICUG_clean_linker_0, # of connection points: 2
#     Edge 371, Type (0, 1), BuildingBlock: OJICUG_clean_linker_0, # of connection points: 2
#     Edge 372, Type (0, 1), BuildingBlock: OJICUG_clean_linker_0, # of connection points: 2
#     Edge 373, Type (0, 1), BuildingBlock: OJICUG_clean_linker_0, # of connection points: 2
#     Edge 374, Type (0, 1), BuildingBlock: OJICUG_clean_linker_0, # of connection points: 2
#     Edge 375, Type (0, 1), BuildingBlock: OJICUG_clean_linker_0, # of connection points: 2
#     Edge 376, Type (0, 1), BuildingBlock: OJICUG_clean_linker_0, # of connection points: 2
#     Edge 377, Type (0, 1), BuildingBlock: OJICUG_clean_linker_0, # of connection points: 2
#     Edge 378, Type (0, 1), BuildingBlock: OJICUG_clean_linker_0, # of connection points: 2
#     Edge 379, Type (0, 1), BuildingBlock: OJICUG_clean_linker_0, # of connection points: 2
#     Edge 380, Type (0, 1), BuildingBlock: OJICUG_clean_linker_0, # of connection points: 2
#     Edge 381, Type (0, 1), BuildingBlock: OJICUG_clean_linker_0, # of connection points: 2
#     Edge 382, Type (0, 1), BuildingBlock: OJICUG_clean_linker_0, # of connection points: 2
#     Edge 383, Type (0, 1), BuildingBlock: OJICUG_clean_linker_0, # of connection points: 2
#     Edge 384, Type (0, 1), BuildingBlock: OJICUG_clean_linker_0, # of connection points: 2
#     Edge 385, Type (0, 1), BuildingBlock: OJICUG_clean_linker_0, # of connection points: 2
#     Edge 386, Type (0, 1), BuildingBlock: OJICUG_clean_linker_0, # of connection points: 2
#     Edge 387, Type (0, 1), BuildingBlock: OJICUG_clean_linker_0, # of connection points: 2
#     Edge 388, Type (0, 1), BuildingBlock: OJICUG_clean_linker_0, # of connection points: 2
#     Edge 389, Type (0, 1), BuildingBlock: OJICUG_clean_linker_0, # of connection points: 2
#     Edge 390, Type (0, 1), BuildingBlock: OJICUG_clean_linker_0, # of connection points: 2
#     Edge 391, Type (0, 1), BuildingBlock: OJICUG_clean_linker_0, # of connection points: 2
#     Edge 392, Type (0, 1), BuildingBlock: OJICUG_clean_linker_0, # of connection points: 2
#     Edge 393, Type (0, 1), BuildingBlock: OJICUG_clean_linker_0, # of connection points: 2
#     Edge 394, Type (0, 1), BuildingBlock: OJICUG_clean_linker_0, # of connection points: 2
#     Edge 395, Type (0, 1), BuildingBlock: OJICUG_clean_linker_0, # of connection points: 2
#     Edge 396, Type (0, 1), BuildingBlock: OJICUG_clean_linker_0, # of connection points: 2
#     Edge 397, Type (0, 1), BuildingBlock: OJICUG_clean_linker_0, # of connection points: 2
#     Edge 398, Type (0, 1), BuildingBlock: OJICUG_clean_linker_0, # of connection points: 2
#     Edge 399, Type (0, 1), BuildingBlock: OJICUG_clean_linker_0, # of connection points: 2
#     Edge 400, Type (0, 1), BuildingBlock: OJICUG_clean_linker_0, # of connection points: 2
#     Edge 401, Type (0, 1), BuildingBlock: OJICUG_clean_linker_0, # of connection points: 2
#     Edge 402, Type (0, 1), BuildingBlock: OJICUG_clean_linker_0, # of connection points: 2
#     Edge 403, Type (0, 1), BuildingBlock: OJICUG_clean_linker_0, # of connection points: 2
#     Edge 404, Type (0, 1), BuildingBlock: OJICUG_clean_linker_0, # of connection points: 2
#     Edge 405, Type (0, 1), BuildingBlock: OJICUG_clean_linker_0, # of connection points: 2
#     Edge 406, Type (0, 1), BuildingBlock: OJICUG_clean_linker_0, # of connection points: 2
#     Edge 407, Type (0, 1), BuildingBlock: OJICUG_clean_linker_0, # of connection points: 2
#     Edge 408, Type (0, 1), BuildingBlock: OJICUG_clean_linker_0, # of connection points: 2
#     Edge 409, Type (0, 1), BuildingBlock: OJICUG_clean_linker_0, # of connection points: 2
#     Edge 410, Type (0, 1), BuildingBlock: OJICUG_clean_linker_0, # of connection points: 2
#     Edge 411, Type (0, 1), BuildingBlock: OJICUG_clean_linker_0, # of connection points: 2
#     Edge 412, Type (0, 1), BuildingBlock: OJICUG_clean_linker_0, # of connection points: 2
#     Edge 413, Type (0, 1), BuildingBlock: OJICUG_clean_linker_0, # of connection points: 2
#     Edge 414, Type (0, 1), BuildingBlock: OJICUG_clean_linker_0, # of connection points: 2
#     Edge 415, Type (0, 1), BuildingBlock: OJICUG_clean_linker_0, # of connection points: 2
#     Edge 416, Type (0, 1), BuildingBlock: OJICUG_clean_linker_0, # of connection points: 2
#     Edge 417, Type (0, 1), BuildingBlock: OJICUG_clean_linker_0, # of connection points: 2
#     Edge 418, Type (0, 1), BuildingBlock: OJICUG_clean_linker_0, # of connection points: 2
#     Edge 419, Type (0, 1), BuildingBlock: OJICUG_clean_linker_0, # of connection points: 2
#     Edge 420, Type (0, 1), BuildingBlock: OJICUG_clean_linker_0, # of connection points: 2
#     Edge 421, Type (0, 1), BuildingBlock: OJICUG_clean_linker_0, # of connection points: 2
#     Edge 422, Type (0, 1), BuildingBlock: OJICUG_clean_linker_0, # of connection points: 2
#     Edge 423, Type (0, 1), BuildingBlock: OJICUG_clean_linker_0, # of connection points: 2
#     Edge 424, Type (0, 1), BuildingBlock: OJICUG_clean_linker_0, # of connection points: 2
#     Edge 425, Type (0, 1), BuildingBlock: OJICUG_clean_linker_0, # of connection points: 2
#     Edge 426, Type (0, 1), BuildingBlock: OJICUG_clean_linker_0, # of connection points: 2
#     Edge 427, Type (0, 1), BuildingBlock: OJICUG_clean_linker_0, # of connection points: 2
#     Edge 428, Type (0, 1), BuildingBlock: OJICUG_clean_linker_0, # of connection points: 2
#     Edge 429, Type (0, 1), BuildingBlock: OJICUG_clean_linker_0, # of connection points: 2
#     Edge 430, Type (0, 1), BuildingBlock: OJICUG_clean_linker_0, # of connection points: 2
#     Edge 431, Type (0, 1), BuildingBlock: OJICUG_clean_linker_0, # of connection points: 2
#     Edge 432, Type (0, 1), BuildingBlock: OJICUG_clean_linker_0, # of connection points: 2
#     Edge 433, Type (0, 1), BuildingBlock: OJICUG_clean_linker_0, # of connection points: 2
#     Edge 434, Type (0, 1), BuildingBlock: OJICUG_clean_linker_0, # of connection points: 2
#     Edge 435, Type (0, 1), BuildingBlock: OJICUG_clean_linker_0, # of connection points: 2
#     Edge 436, Type (0, 1), BuildingBlock: OJICUG_clean_linker_0, # of connection points: 2
#     Edge 437, Type (0, 1), BuildingBlock: OJICUG_clean_linker_0, # of connection points: 2
#     Edge 438, Type (0, 1), BuildingBlock: OJICUG_clean_linker_0, # of connection points: 2
#     Edge 439, Type (0, 1), BuildingBlock: OJICUG_clean_linker_0, # of connection points: 2
#     Edge 440, Type (0, 1), BuildingBlock: OJICUG_clean_linker_0, # of connection points: 2
#     Edge 441, Type (0, 1), BuildingBlock: OJICUG_clean_linker_0, # of connection points: 2
#     Edge 442, Type (0, 1), BuildingBlock: OJICUG_clean_linker_0, # of connection points: 2
#     Edge 443, Type (0, 1), BuildingBlock: OJICUG_clean_linker_0, # of connection points: 2
#     Edge 444, Type (0, 1), BuildingBlock: OJICUG_clean_linker_0, # of connection points: 2
#     Edge 445, Type (0, 1), BuildingBlock: OJICUG_clean_linker_0, # of connection points: 2
#     Edge 446, Type (0, 1), BuildingBlock: OJICUG_clean_linker_0, # of connection points: 2
#     Edge 447, Type (0, 1), BuildingBlock: OJICUG_clean_linker_0, # of connection points: 2
#     Edge 448, Type (0, 1), BuildingBlock: OJICUG_clean_linker_0, # of connection points: 2
#     Edge 449, Type (0, 1), BuildingBlock: OJICUG_clean_linker_0, # of connection points: 2
#     Edge 450, Type (0, 1), BuildingBlock: OJICUG_clean_linker_0, # of connection points: 2
#     Edge 451, Type (0, 1), BuildingBlock: OJICUG_clean_linker_0, # of connection points: 2
#     Edge 452, Type (0, 1), BuildingBlock: OJICUG_clean_linker_0, # of connection points: 2
#     Edge 453, Type (0, 1), BuildingBlock: OJICUG_clean_linker_0, # of connection points: 2
#     Edge 454, Type (0, 1), BuildingBlock: OJICUG_clean_linker_0, # of connection points: 2
#     Edge 455, Type (0, 1), BuildingBlock: OJICUG_clean_linker_0, # of connection points: 2
#     Edge 456, Type (0, 1), BuildingBlock: OJICUG_clean_linker_0, # of connection points: 2
#     Edge 457, Type (0, 1), BuildingBlock: OJICUG_clean_linker_0, # of connection points: 2
#     Edge 458, Type (0, 1), BuildingBlock: OJICUG_clean_linker_0, # of connection points: 2
#     Edge 459, Type (0, 1), BuildingBlock: OJICUG_clean_linker_0, # of connection points: 2
#     Edge 460, Type (0, 1), BuildingBlock: OJICUG_clean_linker_0, # of connection points: 2
#     Edge 461, Type (0, 1), BuildingBlock: OJICUG_clean_linker_0, # of connection points: 2
#     Edge 462, Type (0, 1), BuildingBlock: OJICUG_clean_linker_0, # of connection points: 2
#     Edge 463, Type (0, 1), BuildingBlock: OJICUG_clean_linker_0, # of connection points: 2
#     Edge 464, Type (0, 1), BuildingBlock: OJICUG_clean_linker_0, # of connection points: 2
#     Edge 465, Type (0, 1), BuildingBlock: OJICUG_clean_linker_0, # of connection points: 2
#     Edge 466, Type (0, 1), BuildingBlock: OJICUG_clean_linker_0, # of connection points: 2
#     Edge 467, Type (0, 1), BuildingBlock: OJICUG_clean_linker_0, # of connection points: 2
#     Edge 468, Type (0, 1), BuildingBlock: OJICUG_clean_linker_0, # of connection points: 2
#     Edge 469, Type (0, 1), BuildingBlock: OJICUG_clean_linker_0, # of connection points: 2
#     Edge 470, Type (0, 1), BuildingBlock: OJICUG_clean_linker_0, # of connection points: 2
#     Edge 471, Type (0, 1), BuildingBlock: OJICUG_clean_linker_0, # of connection points: 2
#     Edge 472, Type (0, 1), BuildingBlock: OJICUG_clean_linker_0, # of connection points: 2
#     Edge 473, Type (0, 1), BuildingBlock: OJICUG_clean_linker_0, # of connection points: 2
#     Edge 474, Type (0, 1), BuildingBlock: OJICUG_clean_linker_0, # of connection points: 2
#     Edge 475, Type (0, 1), BuildingBlock: OJICUG_clean_linker_0, # of connection points: 2
#     Edge 476, Type (0, 1), BuildingBlock: OJICUG_clean_linker_0, # of connection points: 2
#     Edge 477, Type (0, 1), BuildingBlock: OJICUG_clean_linker_0, # of connection points: 2
#     Edge 478, Type (0, 1), BuildingBlock: OJICUG_clean_linker_0, # of connection points: 2
#     Edge 479, Type (0, 1), BuildingBlock: OJICUG_clean_linker_0, # of connection points: 2
# Relax obj value: 0.123
# Max RMSD: 0.111
# Mean RMSD: 0.097
data_MOF--net-ana-f--node1-WUSLED_clean_sbu_0--node2-MIDCAF_clean_linker_0--edge1-OJICUG_clean_linker_0
_symmetry_space_group_name_H-M    P1
_symmetry_Int_Tables_number       1
_symmetry_cell_setting            triclinic
loop_
_symmetry_equiv_pos_as_xyz
'x, y, z'
_cell_length_a     170.5696
_cell_length_b     169.92706
_cell_length_c     169.91342
_cell_angle_alpha  89.990146
_cell_angle_beta   89.981257
_cell_angle_gamma 89.986762
loop_
_atom_site_label
_atom_site_type_symbol
_atom_site_fract_x
_atom_site_fract_y
_atom_site_fract_z
_atom_type_partial_charge
C0 C 0.07377 0.11144 0.4002 0.0
C1 C 0.08124 0.11442 0.39844 0.0
C2 C 0.0869 0.10712 0.40949 0.0
C3 C 0.08774 0.11226 0.40301 0.0
C4 C 0.07943 0.10391 0.41099 0.0
C5 C 0.07296 0.10605 0.40639 0.0
U6 U 0.06375 0.12373 0.38415 0.0
O7 O 0.05311 0.12147 0.37708 0.0
O8 O 0.05358 0.13162 0.38508 0.0
C9 C 0.04935 0.12752 0.38009 0.0
C10 C 0.06671 0.11428 0.39605 0.0
C11 C 0.04095 0.12649 0.38198 0.0
C12 C 0.03011 0.12511 0.39126 0.0
C13 C 0.0382 0.12498 0.38964 0.0
C14 C 0.02747 0.12797 0.37756 0.0
C15 C 0.02465 0.12682 0.38526 0.0
C16 C 0.0355 0.12782 0.37596 0.0
C17 C 0.07869 0.13516 0.37057 0.0
C18 C 0.07697 0.14582 0.36112 0.0
C19 C 0.09001 0.14153 0.36477 0.0
C20 C 0.08681 0.13582 0.36968 0.0
C21 C 0.08516 0.14675 0.36061 0.0
C22 C 0.07373 0.14007 0.36613 0.0
C23 C 0.07585 0.12975 0.3767 0.0
O24 O 0.06526 0.12184 0.39685 0.0
O25 O 0.06568 0.11176 0.38881 0.0
O26 O 0.07239 0.1232 0.37448 0.0
O27 O 0.0727 0.13295 0.38298 0.0
H28 H 0.08201 0.11857 0.39365 0.0
H29 H 0.0934 0.11471 0.40152 0.0
H30 H 0.07849 0.1 0.41593 0.0
H31 H 0.06724 0.10368 0.40784 0.0
H32 H 0.02815 0.12421 0.39725 0.0
H33 H 0.04231 0.12395 0.39439 0.0
H34 H 0.02347 0.12912 0.37275 0.0
H35 H 0.03748 0.12899 0.37001 0.0
H36 H 0.0731 0.14977 0.35796 0.0
H37 H 0.09634 0.14203 0.36441 0.0
H38 H 0.09073 0.13208 0.37303 0.0
H39 H 0.06743 0.13963 0.36675 0.0
C40 C 0.13558 0.84083 0.65101 0.0
C41 C 0.13388 0.84844 0.6483 0.0
C42 C 0.13925 0.85406 0.66037 0.0
C43 C 0.13575 0.855 0.65291 0.0
C44 C 0.14114 0.84641 0.66291 0.0
C45 C 0.13933 0.83987 0.65827 0.0
U46 U 0.12305 0.8315 0.63508 0.0
O47 O 0.12515 0.82139 0.62722 0.0
O48 O 0.11535 0.82118 0.63563 0.0
C49 C 0.11936 0.8173 0.6303 0.0
C50 C 0.13291 0.83384 0.64669 0.0
C51 C 0.12094 0.80896 0.63201 0.0
C52 C 0.12361 0.79823 0.64111 0.0
C53 C 0.123 0.80632 0.63957 0.0
C54 C 0.12038 0.79543 0.6275 0.0
C55 C 0.12222 0.79271 0.63509 0.0
C56 C 0.11974 0.80347 0.62599 0.0
C57 C 0.11037 0.8459 0.62283 0.0
C58 C 0.09883 0.84267 0.61508 0.0
C59 C 0.10278 0.85628 0.61671 0.0
C60 C 0.1092 0.85388 0.62118 0.0
C61 C 0.09746 0.85071 0.6138 0.0
C62 C 0.10529 0.84026 0.61959 0.0
C63 C 0.11636 0.84383 0.62867 0.0
O64 O 0.12548 0.83209 0.64775 0.0
O65 O 0.13513 0.83332 0.6393 0.0
O66 O 0.12293 0.84078 0.62601 0.0
O67 O 0.11374 0.84038 0.63507 0.0
H68 H 0.13096 0.8493 0.6427 0.0
H69 H 0.13433 0.8608 0.65068 0.0
H70 H 0.14371 0.84541 0.66865 0.0
H71 H 0.14062 0.83403 0.66048 0.0
H72 H 0.1251 0.79629 0.64699 0.0
H73 H 0.12395 0.81048 0.6443 0.0
H74 H 0.11918 0.79134 0.62277 0.0
H75 H 0.1181 0.8054 0.62015 0.0
H76 H 0.0947 0.83832 0.61296 0.0
H77 H 0.10174 0.86251 0.61587 0.0
H78 H 0.11304 0.8583 0.62368 0.0
H79 H 0.1061 0.83406 0.62086 0.0
C80 C 0.44462 0.87192 0.9307 0.0
C81 C 0.43792 0.87197 0.9259 0.0
C82 C 0.43156 0.88134 0.93469 0.0
C83 C 0.43147 0.87666 0.92786 0.0
C84 C 0.43817 0.88106 0.93962 0.0
C85 C 0.44466 0.87641 0.93762 0.0
U86 U 0.45417 0.85521 0.91928 0.0
O87 O 0.46473 0.85499 0.91189 0.0
O88 O 0.46396 0.84721 0.9222 0.0
C89 C 0.46825 0.84966 0.91626 0.0
C90 C 0.45168 0.86743 0.9284 0.0
C91 C 0.47673 0.85071 0.91759 0.0
C92 C 0.48828 0.85892 0.91952 0.0
C93 C 0.48009 0.85804 0.9194 0.0
C94 C 0.48979 0.84514 0.91625 0.0
C95 C 0.49325 0.8525 0.91777 0.0
C96 C 0.48165 0.84427 0.9162 0.0
C97 C 0.43938 0.84241 0.90729 0.0
C98 C 0.44084 0.83509 0.89507 0.0
C99 C 0.42871 0.83428 0.90246 0.0
C100 C 0.43181 0.83932 0.90814 0.0
C101 C 0.43314 0.83227 0.89581 0.0
C102 C 0.44398 0.84011 0.90082 0.0
C103 C 0.44184 0.84866 0.91275 0.0
O104 O 0.45214 0.8602 0.93111 0.0
O105 O 0.45369 0.86802 0.92095 0.0
O106 O 0.44561 0.85466 0.90966 0.0
O107 O 0.44462 0.84645 0.91962 0.0
H108 H 0.43773 0.86848 0.92056 0.0
H109 H 0.42641 0.87665 0.92401 0.0
H110 H 0.43843 0.88461 0.9449 0.0
H111 H 0.44976 0.87643 0.94141 0.0
H112 H 0.4907 0.86465 0.92085 0.0
H113 H 0.47639 0.86311 0.92049 0.0
H114 H 0.49334 0.84008 0.91474 0.0
H115 H 0.47918 0.83858 0.91473 0.0
H116 H 0.44431 0.83364 0.88993 0.0
H117 H 0.42272 0.83225 0.90306 0.0
H118 H 0.42815 0.84108 0.91305 0.0
H119 H 0.44983 0.84245 0.90004 0.0
C120 C 0.36648 0.17438 0.15953 0.0
C121 C 0.36856 0.16669 0.15732 0.0
C122 C 0.3629 0.16159 0.16948 0.0
C123 C 0.36675 0.16033 0.16225 0.0
C124 C 0.3606 0.16928 0.17148 0.0
C125 C 0.36239 0.1756 0.16656 0.0
U126 U 0.37864 0.18352 0.1431 0.0
O127 O 0.37621 0.19345 0.13509 0.0
O128 O 0.38617 0.19398 0.1433 0.0
C129 C 0.38202 0.19768 0.13794 0.0
C130 C 0.36904 0.18125 0.15494 0.0
C131 C 0.38048 0.20608 0.13937 0.0
C132 C 0.37837 0.21723 0.14812 0.0
C133 C 0.37867 0.20906 0.14687 0.0
C134 C 0.38135 0.2194 0.13435 0.0
C135 C 0.37994 0.22247 0.14189 0.0
C136 C 0.38163 0.2113 0.13311 0.0
C137 C 0.39126 0.16889 0.13091 0.0
C138 C 0.40252 0.17175 0.12258 0.0
C139 C 0.39869 0.15824 0.12509 0.0
C140 C 0.39241 0.16085 0.12962 0.0
C141 C 0.40393 0.16365 0.12173 0.0
C142 C 0.39622 0.17438 0.12721 0.0
C143 C 0.38541 0.17118 0.1368 0.0
O144 O 0.37646 0.18311 0.15582 0.0
O145 O 0.36668 0.18155 0.14757 0.0
O146 O 0.37875 0.17407 0.1342 0.0
O147 O 0.38814 0.17483 0.14303 0.0
H148 H 0.37177 0.16565 0.15192 0.0
H149 H 0.36865 0.15448 0.16057 0.0
H150 H 0.35754 0.17043 0.17695 0.0
H151 H 0.36074 0.1815 0.16835 0.0
H152 H 0.37725 0.21942 0.154 0.0
H153 H 0.37776 0.20511 0.15179 0.0
H154 H 0.38239 0.22327 0.12939 0.0
H155 H 0.38301 0.2091 0.12729 0.0
H156 H 0.40653 0.176 0.12006 0.0
H157 H 0.39965 0.15197 0.12449 0.0
H158 H 0.38865 0.15655 0.13244 0.0
H159 H 0.39541 0.18063 0.12817 0.0
C160 C 0.07399 0.8928 0.10439 0.0
C161 C 0.08155 0.89266 0.10765 0.0
C162 C 0.08707 0.89772 0.09534 0.0
C163 C 0.08802 0.89514 0.10318 0.0
C164 C 0.07944 0.89794 0.0922 0.0
C165 C 0.07299 0.89552 0.09667 0.0
U166 U 0.06426 0.88073 0.12089 0.0
O167 O 0.05372 0.88326 0.12801 0.0
O168 O 0.05403 0.87291 0.12027 0.0
C169 C 0.04987 0.87718 0.12519 0.0
C170 C 0.06708 0.88988 0.10873 0.0
C171 C 0.04148 0.87828 0.1233 0.0
C172 C 0.03065 0.87967 0.11401 0.0
C173 C 0.03875 0.87976 0.11563 0.0
C174 C 0.028 0.87694 0.12773 0.0
C175 C 0.02519 0.87804 0.12003 0.0
C176 C 0.03602 0.87705 0.12933 0.0
C177 C 0.07889 0.86961 0.13491 0.0
C178 C 0.07709 0.85837 0.14361 0.0
C179 C 0.08978 0.86469 0.14267 0.0
C180 C 0.08672 0.87009 0.13731 0.0
C181 C 0.08506 0.85866 0.14582 0.0
C182 C 0.07402 0.8638 0.13818 0.0
C183 C 0.07636 0.87483 0.12846 0.0
O184 O 0.06574 0.88229 0.10812 0.0
O185 O 0.06609 0.89257 0.11592 0.0
O186 O 0.07306 0.88155 0.13039 0.0
O187 O 0.07313 0.87146 0.12231 0.0
H188 H 0.08246 0.89058 0.11361 0.0
H189 H 0.09377 0.89499 0.10588 0.0
H190 H 0.07843 0.89974 0.08617 0.0
H191 H 0.06721 0.89564 0.09404 0.0
H192 H 0.0287 0.88054 0.10801 0.0
H193 H 0.04286 0.88072 0.11087 0.0
H194 H 0.02398 0.87585 0.13255 0.0
H195 H 0.03799 0.8759 0.13529 0.0
H196 H 0.07326 0.85388 0.14598 0.0
H197 H 0.09596 0.86505 0.14406 0.0
H198 H 0.09058 0.87449 0.13481 0.0
H199 H 0.06795 0.86334 0.13639 0.0
C200 C 0.36688 0.83095 0.34543 0.0
C201 C 0.36936 0.83846 0.34775 0.0
C202 C 0.36344 0.84419 0.336 0.0
C203 C 0.36761 0.84503 0.34311 0.0
C204 C 0.36074 0.83665 0.33387 0.0
C205 C 0.36244 0.8301 0.33855 0.0
U206 U 0.37896 0.82161 0.36163 0.0
O207 O 0.37668 0.81147 0.36938 0.0
O208 O 0.38684 0.81139 0.3614 0.0
C209 C 0.38272 0.80751 0.36665 0.0
C210 C 0.36941 0.82391 0.34976 0.0
C211 C 0.38163 0.79908 0.36508 0.0
C212 C 0.37476 0.78796 0.35925 0.0
C213 C 0.37534 0.79609 0.36066 0.0
C214 C 0.38673 0.78586 0.36664 0.0
C215 C 0.38053 0.7828 0.36216 0.0
C216 C 0.38726 0.7939 0.36809 0.0
C217 C 0.39136 0.83593 0.37416 0.0
C218 C 0.40315 0.83296 0.38164 0.0
C219 C 0.3977 0.84613 0.38182 0.0
C220 C 0.39165 0.84369 0.37689 0.0
C221 C 0.40361 0.84084 0.38415 0.0
C222 C 0.39705 0.83051 0.37668 0.0
C223 C 0.38552 0.83395 0.36814 0.0
O224 O 0.37686 0.82214 0.34889 0.0
O225 O 0.36699 0.82337 0.35709 0.0
O226 O 0.37886 0.83096 0.37063 0.0
O227 O 0.38827 0.8305 0.3618 0.0
H228 H 0.3728 0.83922 0.35306 0.0
H229 H 0.36965 0.85075 0.34504 0.0
H230 H 0.3576 0.83573 0.32842 0.0
H231 H 0.36052 0.82433 0.33666 0.0
H232 H 0.36992 0.78574 0.35578 0.0
H233 H 0.37093 0.80002 0.35828 0.0
H234 H 0.39118 0.78201 0.36907 0.0
H235 H 0.39213 0.7961 0.37154 0.0
H236 H 0.40757 0.82873 0.38338 0.0
H237 H 0.39794 0.85227 0.38351 0.0
H238 H 0.38734 0.84796 0.37496 0.0
H239 H 0.39691 0.82448 0.37462 0.0
C240 C 0.44284 0.13299 0.57324 0.0
C241 C 0.43622 0.13324 0.57813 0.0
C242 C 0.42968 0.12363 0.56975 0.0
C243 C 0.42969 0.12857 0.57641 0.0
C244 C 0.43622 0.12364 0.56474 0.0
C245 C 0.44275 0.12827 0.56648 0.0
U246 U 0.45465 0.14916 0.58384 0.0
O247 O 0.46583 0.14763 0.59018 0.0
O248 O 0.46527 0.15525 0.57952 0.0
C249 C 0.46958 0.15206 0.58509 0.0
C250 C 0.45011 0.13714 0.57529 0.0
C251 C 0.478 0.1537 0.58584 0.0
C252 C 0.4912 0.15236 0.58061 0.0
C253 C 0.48307 0.15223 0.57951 0.0
C254 C 0.48927 0.15595 0.59426 0.0
C255 C 0.49441 0.15404 0.58806 0.0
C256 C 0.48115 0.15568 0.59319 0.0
C257 C 0.44117 0.16326 0.59677 0.0
C258 C 0.44255 0.1709 0.6088 0.0
C259 C 0.42998 0.17021 0.60219 0.0
C260 C 0.43328 0.16551 0.59635 0.0
C261 C 0.43454 0.17281 0.60852 0.0
C262 C 0.44587 0.16611 0.60294 0.0
C263 C 0.44377 0.15709 0.5913 0.0
O264 O 0.45093 0.14428 0.57243 0.0
O265 O 0.45235 0.13652 0.58266 0.0
O266 O 0.4473 0.15091 0.5943 0.0
O267 O 0.44635 0.15914 0.5843 0.0
H268 H 0.43617 0.13689 0.58336 0.0
H269 H 0.42467 0.12876 0.58032 0.0
H270 H 0.43641 0.11986 0.55961 0.0
H271 H 0.44783 0.12801 0.56266 0.0
H272 H 0.49494 0.15078 0.57571 0.0
H273 H 0.48073 0.15057 0.57382 0.0
H274 H 0.49151 0.15747 0.60003 0.0
H275 H 0.47733 0.15682 0.59815 0.0
H276 H 0.44613 0.17281 0.61371 0.0
H277 H 0.42377 0.17155 0.60194 0.0
H278 H 0.42954 0.16329 0.5917 0.0
H279 H 0.45196 0.16436 0.6034 0.0
C280 C 0.13574 0.16447 0.85389 0.0
C281 C 0.13328 0.15681 0.85578 0.0
C282 C 0.13956 0.15179 0.84391 0.0
C283 C 0.13521 0.1505 0.85083 0.0
C284 C 0.14227 0.15943 0.84227 0.0
C285 C 0.14037 0.1657 0.84721 0.0
U286 U 0.12322 0.17366 0.87006 0.0
O287 O 0.1254 0.18377 0.87789 0.0
O288 O 0.11554 0.18399 0.86956 0.0
C289 C 0.11961 0.18788 0.87485 0.0
C290 C 0.133 0.17133 0.85838 0.0
C291 C 0.12121 0.19621 0.87309 0.0
C292 C 0.1236 0.20693 0.86391 0.0
C293 C 0.123 0.19885 0.86546 0.0
C294 C 0.12091 0.20973 0.87763 0.0
C295 C 0.12247 0.21246 0.86998 0.0
C296 C 0.12028 0.2017 0.87915 0.0
C297 C 0.11064 0.15918 0.88242 0.0
C298 C 0.09838 0.16163 0.88933 0.0
C299 C 0.104 0.14853 0.88913 0.0
C300 C 0.11035 0.15131 0.8848 0.0
C301 C 0.09783 0.15359 0.89118 0.0
C302 C 0.10476 0.16442 0.88492 0.0
C303 C 0.11654 0.16136 0.87654 0.0
O304 O 0.12556 0.17306 0.85738 0.0
O305 O 0.13526 0.17176 0.86577 0.0
O306 O 0.12315 0.16438 0.87914 0.0
O307 O 0.11386 0.16483 0.87017 0.0
H308 H 0.12966 0.15576 0.86091 0.0
H309 H 0.13299 0.14469 0.85222 0.0
H310 H 0.14573 0.16059 0.83705 0.0
H311 H 0.14231 0.17157 0.84567 0.0
H312 H 0.12488 0.20887 0.85797 0.0
H313 H 0.12375 0.19469 0.86069 0.0
H314 H 0.11992 0.21383 0.88241 0.0
H315 H 0.11884 0.19977 0.88506 0.0
H316 H 0.09366 0.16562 0.89083 0.0
H317 H 0.1037 0.14231 0.89052 0.0
H318 H 0.11483 0.14719 0.88292 0.0
H319 H 0.1049 0.17054 0.88312 0.0
C320 C 0.44355 0.05851 0.14844 0.0
C321 C 0.44244 0.06588 0.15199 0.0
C322 C 0.4483 0.07233 0.14058 0.0
C323 C 0.44484 0.07274 0.1481 0.0
C324 C 0.44952 0.06488 0.13716 0.0
C325 C 0.44718 0.05805 0.14107 0.0
U326 U 0.43099 0.04764 0.16359 0.0
O327 O 0.42313 0.03757 0.16193 0.0
O328 O 0.43331 0.03645 0.16978 0.0
C329 C 0.42746 0.03286 0.16626 0.0
C330 C 0.44059 0.05126 0.15208 0.0
C331 C 0.42915 0.0251 0.16278 0.0
C332 C 0.43114 0.01671 0.15135 0.0
C333 C 0.43077 0.02423 0.15472 0.0
C334 C 0.42887 0.0109 0.16416 0.0
C335 C 0.42993 0.00995 0.156 0.0
C336 C 0.42843 0.0184 0.16749 0.0
C337 C 0.41892 0.06067 0.17811 0.0
C338 C 0.40578 0.05958 0.18359 0.0
C339 C 0.41459 0.06973 0.18826 0.0
C340 C 0.42041 0.06698 0.18318 0.0
C341 C 0.40713 0.06622 0.18836 0.0
C342 C 0.41164 0.05681 0.1785 0.0
C343 C 0.42463 0.05904 0.17181 0.0
O344 O 0.44297 0.04981 0.15929 0.0
O345 O 0.43307 0.04996 0.15104 0.0
O346 O 0.42177 0.05648 0.1651 0.0
O347 O 0.43126 0.05564 0.17383 0.0
H348 H 0.43962 0.06633 0.15768 0.0
H349 H 0.44391 0.07835 0.15097 0.0
H350 H 0.45202 0.06432 0.13134 0.0
H351 H 0.44803 0.0524 0.13824 0.0
H352 H 0.43195 0.01624 0.14505 0.0
H353 H 0.43141 0.02935 0.15097 0.0
H354 H 0.42816 0.00585 0.16798 0.0
H355 H 0.42725 0.01896 0.17374 0.0
H356 H 0.40013 0.05669 0.1836 0.0
H357 H 0.41581 0.07491 0.19176 0.0
H358 H 0.42596 0.07007 0.18293 0.0
H359 H 0.41035 0.0519 0.17465 0.0
C360 C 0.19185 0.18138 0.38374 0.0
C361 C 0.18544 0.17622 0.38329 0.0
C362 C 0.17898 0.18509 0.37406 0.0
C363 C 0.17905 0.17807 0.37846 0.0
C364 C 0.18528 0.19036 0.37481 0.0
C365 C 0.19166 0.1885 0.3796 0.0
U366 U 0.2043 0.17049 0.39945 0.0
O367 O 0.21567 0.16465 0.39729 0.0
O368 O 0.21493 0.17492 0.40541 0.0
C369 C 0.21931 0.16948 0.40209 0.0
C370 C 0.19914 0.17921 0.38781 0.0
C371 C 0.22789 0.16951 0.40283 0.0
C372 C 0.24081 0.17346 0.39834 0.0
C373 C 0.23264 0.17428 0.39808 0.0
C374 C 0.23952 0.16336 0.40832 0.0
C375 C 0.24432 0.16789 0.40336 0.0
C376 C 0.23137 0.16415 0.40802 0.0
C377 C 0.19119 0.15707 0.41378 0.0
C378 C 0.19228 0.14496 0.42137 0.0
C379 C 0.1799 0.15192 0.42083 0.0
C380 C 0.18331 0.15767 0.41609 0.0
C381 C 0.18431 0.14546 0.42339 0.0
C382 C 0.19573 0.15075 0.41657 0.0
C383 C 0.19393 0.1626 0.4077 0.0
O384 O 0.20007 0.18192 0.39499 0.0
O385 O 0.20145 0.17189 0.38696 0.0
O386 O 0.1974 0.15974 0.40141 0.0
O387 O 0.19638 0.16965 0.40974 0.0
H388 H 0.18547 0.1707 0.38647 0.0
H389 H 0.17421 0.17395 0.37809 0.0
H390 H 0.18542 0.19577 0.37146 0.0
H391 H 0.19659 0.19251 0.37986 0.0
H392 H 0.24439 0.17709 0.39452 0.0
H393 H 0.23005 0.17846 0.39404 0.0
H394 H 0.24204 0.15898 0.41221 0.0
H395 H 0.22775 0.16039 0.41169 0.0
H396 H 0.19575 0.13996 0.42325 0.0
H397 H 0.17371 0.15235 0.42223 0.0
H398 H 0.17969 0.16244 0.41392 0.0
H399 H 0.20179 0.15014 0.41479 0.0
C400 C 0.0548 0.95424 0.64612 0.0
C401 C 0.05693 0.94667 0.64868 0.0
C402 C 0.05017 0.9409 0.63745 0.0
C403 C 0.0546 0.94004 0.64439 0.0
C404 C 0.04789 0.94848 0.63506 0.0
C405 C 0.05018 0.95508 0.63937 0.0
U406 U 0.06741 0.96471 0.66155 0.0
O407 O 0.07505 0.975 0.66024 0.0
O408 O 0.06495 0.97559 0.66823 0.0
C409 C 0.07069 0.97945 0.66481 0.0
C410 C 0.05769 0.96135 0.65008 0.0
C411 C 0.06878 0.98726 0.6616 0.0
C412 C 0.06609 0.99577 0.65042 0.0
C413 C 0.06662 0.98823 0.65368 0.0
C414 C 0.06929 1.00147 0.66309 0.0
C415 C 0.06761 1.00245 0.65506 0.0
C416 C 0.06991 0.99393 0.66632 0.0
C417 C 0.08014 0.95151 0.67523 0.0
C418 C 0.09322 0.95323 0.68064 0.0
C419 C 0.08525 0.94215 0.68471 0.0
C420 C 0.07918 0.94478 0.67989 0.0
C421 C 0.09243 0.94621 0.68498 0.0
C422 C 0.08711 0.95587 0.67581 0.0
C423 C 0.07422 0.95314 0.66915 0.0
O424 O 0.05541 0.96239 0.65739 0.0
O425 O 0.06515 0.96288 0.64897 0.0
O426 O 0.07685 0.95602 0.66247 0.0
O427 O 0.06756 0.9563 0.67146 0.0
H428 H 0.06054 0.94593 0.65388 0.0
H429 H 0.05649 0.93426 0.64632 0.0
H430 H 0.04442 0.94931 0.62979 0.0
H431 H 0.04848 0.96087 0.63733 0.0
H432 H 0.06475 0.99639 0.64422 0.0
H433 H 0.06568 0.98315 0.64994 0.0
H434 H 0.07056 0.00652 0.66676 0.0
H435 H 0.0716 0.99329 0.67243 0.0
H436 H 0.09865 0.95654 0.6808 0.0
H437 H 0.08447 0.93668 0.68788 0.0
H438 H 0.07387 0.94131 0.67948 0.0
H439 H 0.08797 0.96111 0.67228 0.0
C440 C 0.32394 0.8552 0.86147 0.0
C441 C 0.3314 0.8568 0.86457 0.0
C442 C 0.33697 0.8458 0.85715 0.0
C443 C 0.33785 0.85217 0.8624 0.0
C444 C 0.32953 0.84447 0.85382 0.0
C445 C 0.3231 0.84913 0.85597 0.0
U446 U 0.31409 0.87134 0.87377 0.0
O447 O 0.30333 0.87823 0.87164 0.0
O448 O 0.30414 0.87047 0.88195 0.0
C449 C 0.29977 0.87536 0.87788 0.0
C450 C 0.31691 0.85937 0.86436 0.0
C451 C 0.29138 0.87335 0.87719 0.0
C452 C 0.28052 0.86527 0.87251 0.0
C453 C 0.28856 0.86718 0.87246 0.0
C454 C 0.27815 0.87569 0.88194 0.0
C455 C 0.27527 0.86943 0.87739 0.0
C456 C 0.28609 0.87763 0.88181 0.0
C457 C 0.32917 0.88486 0.88507 0.0
C458 C 0.32751 0.89434 0.89572 0.0
C459 C 0.34053 0.89034 0.89166 0.0
C460 C 0.3373 0.88553 0.88588 0.0
C461 C 0.33569 0.89462 0.8968 0.0
C462 C 0.32424 0.88943 0.8899 0.0
C463 C 0.32627 0.87879 0.87961 0.0
O464 O 0.31554 0.85863 0.87193 0.0
O465 O 0.31587 0.8666 0.8618 0.0
O466 O 0.32268 0.88106 0.87316 0.0
O467 O 0.32322 0.87246 0.88281 0.0
H468 H 0.33219 0.8615 0.86881 0.0
H469 H 0.34351 0.85353 0.86495 0.0
H470 H 0.32857 0.83961 0.84981 0.0
H471 H 0.31738 0.8478 0.85352 0.0
H472 H 0.27844 0.86041 0.86895 0.0
H473 H 0.29256 0.86379 0.86885 0.0
H474 H 0.27425 0.87907 0.88567 0.0
H475 H 0.28814 0.88242 0.88549 0.0
H476 H 0.32366 0.89759 0.89961 0.0
H477 H 0.34685 0.89051 0.89229 0.0
H478 H 0.34119 0.88207 0.8822 0.0
H479 H 0.31793 0.88898 0.88936 0.0
C480 C 0.44369 0.94637 0.35619 0.0
C481 C 0.44002 0.93913 0.35468 0.0
C482 C 0.44828 0.93282 0.36447 0.0
C483 C 0.44228 0.93239 0.35883 0.0
C484 C 0.45214 0.93999 0.36576 0.0
C485 C 0.44984 0.94673 0.36165 0.0
U486 U 0.43113 0.95738 0.34119 0.0
O487 O 0.42325 0.96743 0.34289 0.0
O488 O 0.43339 0.96857 0.33501 0.0
C489 C 0.42748 0.97214 0.33847 0.0
C490 C 0.4408 0.95369 0.35262 0.0
C491 C 0.42903 0.97995 0.34185 0.0
C492 C 0.43397 0.98831 0.35236 0.0
C493 C 0.43351 0.98091 0.34873 0.0
C494 C 0.42572 0.99383 0.34215 0.0
C495 C 0.42993 0.99477 0.34916 0.0
C496 C 0.4253 0.98648 0.33851 0.0
C497 C 0.41898 0.94428 0.32677 0.0
C498 C 0.40586 0.94542 0.32127 0.0
C499 C 0.41458 0.93513 0.31672 0.0
C500 C 0.42041 0.93788 0.32178 0.0
C501 C 0.40715 0.93872 0.31657 0.0
C502 C 0.41174 0.94819 0.32633 0.0
C503 C 0.42473 0.94595 0.33302 0.0
O504 O 0.44316 0.95514 0.34539 0.0
O505 O 0.4333 0.95509 0.3537 0.0
O506 O 0.42191 0.94852 0.33975 0.0
O507 O 0.43133 0.94937 0.33095 0.0
H508 H 0.43525 0.93875 0.35048 0.0
H509 H 0.43922 0.9269 0.35781 0.0
H510 H 0.45672 0.94042 0.37015 0.0
H511 H 0.45271 0.95227 0.3629 0.0
H512 H 0.43717 0.98892 0.35784 0.0
H513 H 0.43639 0.97591 0.35142 0.0
H514 H 0.42251 0.99873 0.33964 0.0
H515 H 0.42178 0.98584 0.33323 0.0
H516 H 0.40023 0.94837 0.32122 0.0
H517 H 0.41575 0.9299 0.31327 0.0
H518 H 0.42594 0.93474 0.32207 0.0
H519 H 0.4105 0.95316 0.33012 0.0
C520 C 0.32711 0.14763 0.64496 0.0
C521 C 0.33419 0.14719 0.6408 0.0
C522 C 0.33971 0.15761 0.64903 0.0
C523 C 0.34047 0.15209 0.64286 0.0
C524 C 0.33272 0.15769 0.65342 0.0
C525 C 0.32651 0.15274 0.65141 0.0
U526 U 0.31331 0.13404 0.63226 0.0
O527 O 0.30161 0.12961 0.63583 0.0
O528 O 0.30275 0.13888 0.62662 0.0
C529 C 0.29812 0.13436 0.63083 0.0
C530 C 0.31986 0.14405 0.64201 0.0
C531 C 0.28956 0.13496 0.63018 0.0
C532 C 0.27757 0.14257 0.63117 0.0
C533 C 0.28572 0.14203 0.6319 0.0
C534 C 0.27706 0.12897 0.62693 0.0
C535 C 0.27313 0.13606 0.62863 0.0
C536 C 0.2852 0.12842 0.62773 0.0
C537 C 0.32604 0.11909 0.6185 0.0
C538 C 0.3266 0.10749 0.61011 0.0
C539 C 0.33772 0.11633 0.61086 0.0
C540 C 0.33367 0.12105 0.61621 0.0
C541 C 0.33415 0.10963 0.60754 0.0
C542 C 0.32258 0.11219 0.61557 0.0
C543 C 0.32157 0.12457 0.62347 0.0
O544 O 0.31806 0.14572 0.63469 0.0
O545 O 0.31816 0.13678 0.64405 0.0
O546 O 0.31882 0.12243 0.63038 0.0
O547 O 0.32001 0.13184 0.62131 0.0
H548 H 0.33475 0.14331 0.63576 0.0
H549 H 0.34583 0.15171 0.63947 0.0
H550 H 0.33185 0.16188 0.65814 0.0
H551 H 0.32104 0.15323 0.65462 0.0
H552 H 0.27478 0.14815 0.63242 0.0
H553 H 0.28901 0.14714 0.63381 0.0
H554 H 0.27384 0.12381 0.62504 0.0
H555 H 0.28811 0.12292 0.62638 0.0
H556 H 0.32369 0.10238 0.60767 0.0
H557 H 0.34361 0.11803 0.60919 0.0
H558 H 0.33646 0.12631 0.61846 0.0
H559 H 0.31667 0.1106 0.61728 0.0
C560 C 0.05499 0.05083 0.85903 0.0
C561 C 0.05844 0.05818 0.85751 0.0
C562 C 0.05014 0.06427 0.86751 0.0
C563 C 0.05604 0.06483 0.86172 0.0
C564 C 0.04655 0.05692 0.86878 0.0
C565 C 0.04898 0.05027 0.8646 0.0
U566 U 0.06769 0.0403 0.84378 0.0
O567 O 0.07537 0.03004 0.84515 0.0
O568 O 0.06535 0.02945 0.83705 0.0
C569 C 0.07118 0.02564 0.84038 0.0
C570 C 0.05788 0.04364 0.85521 0.0
C571 C 0.06958 0.01762 0.8432 0.0
C572 C 0.06444 0.00849 0.85297 0.0
C573 C 0.0649 0.01613 0.84985 0.0
C574 C 0.0731 0.0038 0.84268 0.0
C575 C 0.06872 1.00233 0.84951 0.0
C576 C 0.0735 0.01137 0.83954 0.0
C577 C 0.08033 0.05369 0.83012 0.0
C578 C 0.09346 0.05227 0.82469 0.0
C579 C 0.08522 0.06312 0.82057 0.0
C580 C 0.07921 0.06037 0.82542 0.0
C581 C 0.0925 0.05924 0.82031 0.0
C582 C 0.08742 0.04951 0.82956 0.0
C583 C 0.07443 0.05194 0.83621 0.0
O584 O 0.05563 0.04252 0.84789 0.0
O585 O 0.06535 0.04211 0.85635 0.0
O586 O 0.07708 0.04905 0.84287 0.0
O587 O 0.0678 0.04875 0.8339 0.0
H588 H 0.06311 0.05871 0.85322 0.0
H589 H 0.05902 0.07035 0.86063 0.0
H590 H 0.04188 0.05627 0.87305 0.0
H591 H 0.04624 0.04465 0.86582 0.0
H592 H 0.06109 0.00748 0.8583 0.0
H593 H 0.06187 0.02091 0.85278 0.0
H594 H 0.07648 0.99913 0.83996 0.0
H595 H 0.07716 0.01241 0.83443 0.0
H596 H 0.09896 0.0491 0.82455 0.0
H597 H 0.08429 0.06856 0.81737 0.0
H598 H 0.07381 0.06371 0.82581 0.0
H599 H 0.08841 0.04432 0.83312 0.0
C600 C 0.19462 0.82436 0.12194 0.0
C601 C 0.18778 0.82894 0.12156 0.0
C602 C 0.18149 0.82053 0.13133 0.0
C603 C 0.18128 0.82706 0.12623 0.0
C604 C 0.18826 0.81581 0.1315 0.0
C605 C 0.19478 0.81774 0.12686 0.0
U606 U 0.20413 0.83568 0.1052 0.0
O607 O 0.21473 0.843 0.10489 0.0
O608 O 0.21384 0.83268 0.09712 0.0
C609 C 0.2182 0.83857 0.09958 0.0
C610 C 0.20168 0.82659 0.11745 0.0
C611 C 0.22669 0.83718 0.10055 0.0
C612 C 0.23855 0.83698 0.10857 0.0
C613 C 0.23033 0.83684 0.10797 0.0
C614 C 0.23954 0.83739 0.09436 0.0
C615 C 0.24323 0.83754 0.10176 0.0
C616 C 0.23138 0.83721 0.09378 0.0
C617 C 0.18926 0.84773 0.09251 0.0
C618 C 0.19074 0.85984 0.08501 0.0
C619 C 0.17843 0.85271 0.0847 0.0
C620 C 0.18158 0.84701 0.08968 0.0
C621 C 0.18293 0.85924 0.08247 0.0
C622 C 0.19391 0.85408 0.09 0.0
C623 C 0.19179 0.84228 0.09874 0.0
O624 O 0.20208 0.82388 0.11021 0.0
O625 O 0.20372 0.83403 0.11801 0.0
O626 O 0.19564 0.84536 0.10468 0.0
O627 O 0.19452 0.8354 0.09652 0.0
H628 H 0.1875 0.83404 0.11774 0.0
H629 H 0.1761 0.83073 0.12587 0.0
H630 H 0.18861 0.81077 0.13538 0.0
H631 H 0.2 0.81413 0.12722 0.0
H632 H 0.2412 0.83709 0.11435 0.0
H633 H 0.22683 0.83682 0.11329 0.0
H634 H 0.24297 0.83768 0.089 0.0
H635 H 0.22871 0.83748 0.088 0.0
H636 H 0.19425 0.86489 0.0834 0.0
H637 H 0.17236 0.85223 0.08287 0.0
H638 H 0.17788 0.84219 0.09161 0.0
H639 H 0.19985 0.85475 0.09215 0.0
C640 C 0.11713 0.40998 0.08098 0.0
C641 C 0.11879 0.4072 0.08857 0.0
C642 C 0.11341 0.41923 0.09427 0.0
C643 C 0.1169 0.41176 0.09517 0.0
C644 C 0.11156 0.42185 0.08663 0.0
C645 C 0.1134 0.41726 0.08006 0.0
U646 U 0.1293 0.39376 0.0717 0.0
O647 O 0.1271 0.3861 0.06148 0.0
O648 O 0.13729 0.39406 0.06155 0.0
C649 C 0.1332 0.38884 0.0576 0.0
C650 C 0.11979 0.40567 0.07397 0.0
C651 C 0.13229 0.39031 0.04912 0.0
C652 C 0.12506 0.39479 0.03761 0.0
C653 C 0.12565 0.39391 0.04582 0.0
C654 C 0.1378 0.38867 0.03609 0.0
C655 C 0.13111 0.39206 0.03265 0.0
C656 C 0.13835 0.38778 0.0442 0.0
C657 C 0.1414 0.38096 0.08609 0.0
C658 C 0.15301 0.3732 0.08316 0.0
C659 C 0.14763 0.37329 0.09636 0.0
C660 C 0.14166 0.37831 0.09388 0.0
C661 C 0.15347 0.37077 0.09107 0.0
C662 C 0.14701 0.37827 0.08068 0.0
C663 C 0.13564 0.38706 0.08407 0.0
O664 O 0.12728 0.40651 0.07235 0.0
O665 O 0.11734 0.39836 0.07332 0.0
O666 O 0.129 0.38467 0.08096 0.0
O667 O 0.1385 0.3934 0.0807 0.0
H668 H 0.1217 0.40159 0.08939 0.0
H669 H 0.11828 0.40947 0.10095 0.0
H670 H 0.10899 0.42759 0.08567 0.0
H671 H 0.11213 0.41951 0.07423 0.0
H672 H 0.11982 0.39742 0.03515 0.0
H673 H 0.1209 0.39594 0.04955 0.0
H674 H 0.14266 0.38668 0.0325 0.0
H675 H 0.14355 0.38503 0.04665 0.0
H676 H 0.15736 0.3713 0.07892 0.0
H677 H 0.14786 0.37169 0.10252 0.0
H678 H 0.13741 0.38038 0.09814 0.0
H679 H 0.14688 0.38026 0.07462 0.0
C680 C 0.61686 0.09523 0.92423 0.0
C681 C 0.61896 0.09742 0.91654 0.0
C682 C 0.61312 0.08538 0.91142 0.0
C683 C 0.61707 0.09254 0.91017 0.0
C684 C 0.6108 0.08338 0.91911 0.0
C685 C 0.61266 0.08826 0.92544 0.0
U686 U 0.62908 0.11164 0.93328 0.0
O687 O 0.62656 0.11977 0.94309 0.0
O688 O 0.63651 0.11155 0.94381 0.0
C689 C 0.63231 0.11695 0.94741 0.0
C690 C 0.61945 0.09981 0.93108 0.0
C691 C 0.63065 0.11558 0.9558 0.0
C692 C 0.62862 0.10691 0.96702 0.0
C693 C 0.62902 0.10807 0.95885 0.0
C694 C 0.63112 0.12079 0.96907 0.0
C695 C 0.6299 0.11324 0.97221 0.0
C696 C 0.6315 0.12194 0.96096 0.0
C697 C 0.64161 0.12391 0.91872 0.0
C698 C 0.65275 0.13236 0.92162 0.0
C699 C 0.64807 0.13104 0.90822 0.0
C700 C 0.6422 0.12596 0.91077 0.0
C701 C 0.6535 0.13423 0.91357 0.0
C702 C 0.64683 0.12723 0.92418 0.0
C703 C 0.63587 0.11787 0.92091 0.0
O704 O 0.62688 0.09891 0.93293 0.0
O705 O 0.61711 0.10717 0.93137 0.0
O706 O 0.62912 0.12036 0.92369 0.0
O707 O 0.63866 0.11172 0.92467 0.0
H708 H 0.62224 0.10278 0.9155 0.0
H709 H 0.619 0.09421 0.90433 0.0
H710 H 0.60765 0.07797 0.92025 0.0
H711 H 0.611 0.08649 0.93134 0.0
H712 H 0.62766 0.10102 0.96927 0.0
H713 H 0.62833 0.10308 0.95494 0.0
H714 H 0.63195 0.12582 0.9729 0.0
H715 H 0.63274 0.12778 0.95872 0.0
H716 H 0.65679 0.13476 0.9259 0.0
H717 H 0.64855 0.1322 0.90197 0.0
H718 H 0.63825 0.12341 0.90648 0.0
H719 H 0.64645 0.1257 0.93036 0.0
C720 C 0.19314 0.39885 0.19636 0.0
C721 C 0.18862 0.39932 0.18948 0.0
C722 C 0.19795 0.3909 0.1826 0.0
C723 C 0.19097 0.39535 0.18268 0.0
C724 C 0.20259 0.3907 0.18944 0.0
C725 C 0.20018 0.39462 0.19626 0.0
U726 U 0.1809 0.41388 0.20763 0.0
O727 O 0.17311 0.41229 0.21776 0.0
O728 O 0.1834 0.41998 0.21883 0.0
C729 C 0.17754 0.4165 0.22247 0.0
C730 C 0.19039 0.40237 0.20377 0.0
C731 C 0.17934 0.4128 0.23009 0.0
C732 C 0.18213 0.40112 0.23786 0.0
C733 C 0.18164 0.40487 0.23055 0.0
C734 C 0.17861 0.41332 0.24436 0.0
C735 C 0.18045 0.40528 0.24481 0.0
C736 C 0.17802 0.41704 0.23704 0.0
C737 C 0.16879 0.42845 0.19464 0.0
C738 C 0.15569 0.43401 0.19576 0.0
C739 C 0.16445 0.43851 0.18548 0.0
C740 C 0.17026 0.43343 0.18825 0.0
C741 C 0.15702 0.43869 0.18905 0.0
C742 C 0.16154 0.42892 0.19854 0.0
C743 C 0.17448 0.42214 0.19629 0.0
O744 O 0.19286 0.40955 0.20524 0.0
O745 O 0.18291 0.40135 0.20532 0.0
O746 O 0.1716 0.41545 0.19888 0.0
O747 O 0.18112 0.42415 0.19966 0.0
H748 H 0.18316 0.40259 0.18943 0.0
H749 H 0.18718 0.39557 0.17758 0.0
H750 H 0.20806 0.38748 0.18956 0.0
H751 H 0.20377 0.39423 0.20151 0.0
H752 H 0.18357 0.39492 0.23809 0.0
H753 H 0.18272 0.40151 0.22524 0.0
H754 H 0.17723 0.41662 0.24963 0.0
H755 H 0.17622 0.42315 0.23679 0.0
H756 H 0.15005 0.43408 0.19869 0.0
H757 H 0.16565 0.44194 0.18024 0.0
H758 H 0.17579 0.43311 0.18512 0.0
H759 H 0.16027 0.42513 0.20351 0.0
C760 C 0.88531 0.90162 0.41426 0.0
C761 C 0.88368 0.89892 0.40663 0.0
C762 C 0.88916 0.91098 0.40108 0.0
C763 C 0.88563 0.90354 0.40009 0.0
C764 C 0.89097 0.91351 0.40876 0.0
C765 C 0.88907 0.90887 0.41527 0.0
U766 U 0.87277 0.88565 0.42356 0.0
O767 O 0.87494 0.87773 0.4336 0.0
O768 O 0.86514 0.88613 0.43396 0.0
C769 C 0.86913 0.8807 0.43773 0.0
C770 C 0.8826 0.89728 0.42123 0.0
C771 C 0.87063 0.8822 0.44612 0.0
C772 C 0.87525 0.89036 0.45693 0.0
C773 C 0.8745 0.88898 0.44881 0.0
C774 C 0.86834 0.87819 0.45961 0.0
C775 C 0.87213 0.88498 0.46243 0.0
C776 C 0.86763 0.87682 0.45156 0.0
C777 C 0.86015 0.87329 0.40918 0.0
C778 C 0.84846 0.86567 0.41212 0.0
C779 C 0.85362 0.86599 0.39884 0.0
C780 C 0.85972 0.87083 0.40134 0.0
C781 C 0.84781 0.86347 0.40415 0.0
C782 C 0.85459 0.87056 0.41462 0.0
C783 C 0.86604 0.87925 0.41125 0.0
O784 O 0.87517 0.89833 0.42298 0.0
O785 O 0.88483 0.88988 0.42174 0.0
O786 O 0.87268 0.87668 0.41419 0.0
O787 O 0.86336 0.88558 0.41477 0.0
H788 H 0.88075 0.89334 0.40574 0.0
H789 H 0.88427 0.90132 0.39428 0.0
H790 H 0.89355 0.91923 0.40979 0.0
H791 H 0.89032 0.91106 0.42112 0.0
H792 H 0.87826 0.89561 0.45889 0.0
H793 H 0.87684 0.89321 0.44467 0.0
H794 H 0.86571 0.87401 0.46362 0.0
H795 H 0.86456 0.8716 0.44958 0.0
H796 H 0.84415 0.86375 0.41639 0.0
H797 H 0.85327 0.86457 0.39264 0.0
H798 H 0.86395 0.87292 0.39706 0.0
H799 H 0.85485 0.8724 0.42072 0.0
C800 C 0.80448 0.10872 0.20432 0.0
C801 C 0.80755 0.10672 0.19691 0.0
C802 C 0.80005 0.11729 0.19089 0.0
C803 C 0.80533 0.11099 0.19021 0.0
C804 C 0.79682 0.11912 0.19825 0.0
C805 C 0.799 0.11483 0.20492 0.0
U806 U 0.81721 0.0936 0.21495 0.0
O807 O 0.82491 0.09507 0.22518 0.0
O808 O 0.81495 0.0869 0.22585 0.0
C809 C 0.82075 0.09032 0.22963 0.0
C810 C 0.80733 0.10493 0.21154 0.0
C811 C 0.81908 0.09325 0.23761 0.0
C812 C 0.81452 0.1035 0.24649 0.0
C813 C 0.81498 0.10031 0.23889 0.0
C814 C 0.82193 0.09245 0.25158 0.0
C815 C 0.81814 0.09965 0.25284 0.0
C816 C 0.82238 0.08926 0.24402 0.0
C817 C 0.82996 0.08002 0.20163 0.0
C818 C 0.84307 0.07466 0.2033 0.0
C819 C 0.83514 0.07068 0.19216 0.0
C820 C 0.82904 0.07545 0.19483 0.0
C821 C 0.84231 0.0704 0.19623 0.0
C822 C 0.83693 0.07942 0.20599 0.0
C823 C 0.824 0.08605 0.20333 0.0
O824 O 0.80513 0.0976 0.21268 0.0
O825 O 0.81478 0.10614 0.21311 0.0
O826 O 0.82659 0.09275 0.20618 0.0
O827 O 0.8174 0.08367 0.20656 0.0
H828 H 0.81183 0.10203 0.19635 0.0
H829 H 0.80794 0.10957 0.18457 0.0
H830 H 0.79279 0.124 0.19887 0.0
H831 H 0.7966 0.11646 0.21059 0.0
H832 H 0.81165 0.10913 0.24736 0.0
H833 H 0.81243 0.10349 0.23399 0.0
H834 H 0.82484 0.08946 0.25639 0.0
H835 H 0.82561 0.08385 0.24313 0.0
H836 H 0.84851 0.0745 0.20659 0.0
H837 H 0.83439 0.06757 0.18665 0.0
H838 H 0.82373 0.07588 0.19136 0.0
H839 H 0.83776 0.08289 0.21127 0.0
C840 C 0.38582 0.60366 0.59061 0.0
C841 C 0.38382 0.60588 0.59832 0.0
C842 C 0.38942 0.59368 0.60334 0.0
C843 C 0.38566 0.60093 0.60466 0.0
C844 C 0.3917 0.5917 0.59563 0.0
C845 C 0.3899 0.59664 0.58934 0.0
U846 U 0.37336 0.61989 0.58149 0.0
O847 O 0.37546 0.62764 0.57131 0.0
O848 O 0.36551 0.6194 0.57126 0.0
C849 C 0.36951 0.62473 0.56735 0.0
C850 C 0.38308 0.60816 0.58375 0.0
C851 C 0.37072 0.62316 0.55895 0.0
C852 C 0.3764 0.61585 0.54803 0.0
C853 C 0.37574 0.61722 0.55616 0.0
C854 C 0.36701 0.62626 0.54555 0.0
C855 C 0.37204 0.62038 0.54262 0.0
C856 C 0.36641 0.62765 0.55359 0.0
C857 C 0.36092 0.63234 0.596 0.0
C858 C 0.34834 0.63875 0.59393 0.0
C859 C 0.35482 0.63961 0.6066 0.0
C860 C 0.36109 0.63525 0.60369 0.0
C861 C 0.34826 0.64113 0.60185 0.0
C862 C 0.35465 0.63433 0.59102 0.0
C863 C 0.36681 0.62642 0.59382 0.0
O864 O 0.37563 0.6072 0.58207 0.0
O865 O 0.38539 0.61553 0.58329 0.0
O866 O 0.3734 0.62899 0.59075 0.0
O867 O 0.3641 0.62003 0.59042 0.0
H868 H 0.38061 0.61128 0.5994 0.0
H869 H 0.3838 0.60258 0.61053 0.0
H870 H 0.39469 0.5862 0.59445 0.0
H871 H 0.39147 0.59485 0.58343 0.0
H872 H 0.38036 0.6113 0.54598 0.0
H873 H 0.37909 0.61366 0.56024 0.0
H874 H 0.36339 0.62973 0.54164 0.0
H875 H 0.36245 0.63219 0.55565 0.0
H876 H 0.34332 0.63985 0.59018 0.0
H877 H 0.3549 0.64144 0.61271 0.0
H878 H 0.36589 0.63378 0.60761 0.0
H879 H 0.35443 0.63212 0.58504 0.0
C880 C 0.19357 0.60572 0.30885 0.0
C881 C 0.18882 0.6056 0.31559 0.0
C882 C 0.19801 0.6142 0.32236 0.0
C883 C 0.191 0.60984 0.32228 0.0
C884 C 0.20297 0.61394 0.31577 0.0
C885 C 0.20074 0.60976 0.30904 0.0
U886 U 0.18118 0.59085 0.29755 0.0
O887 O 0.17338 0.59259 0.28747 0.0
O888 O 0.18359 0.5848 0.2863 0.0
C889 C 0.17778 0.5884 0.2827 0.0
C890 C 0.19086 0.60219 0.30143 0.0
C891 C 0.17963 0.5922 0.27513 0.0
C892 C 0.18197 0.60403 0.26744 0.0
C893 C 0.18144 0.60025 0.27474 0.0
C894 C 0.17945 0.59165 0.26085 0.0
C895 C 0.18078 0.5998 0.26043 0.0
C896 C 0.17884 0.58789 0.26815 0.0
C897 C 0.16884 0.5765 0.31064 0.0
C898 C 0.15564 0.57116 0.30972 0.0
C899 C 0.16447 0.56652 0.31987 0.0
C900 C 0.17032 0.5715 0.31702 0.0
C901 C 0.15699 0.56644 0.3164 0.0
C902 C 0.16152 0.57615 0.30685 0.0
C903 C 0.17462 0.5827 0.3089 0.0
O904 O 0.19321 0.59496 0.30002 0.0
O905 O 0.18341 0.60334 0.29981 0.0
O906 O 0.17185 0.58944 0.3063 0.0
O907 O 0.18122 0.58056 0.3055 0.0
H908 H 0.1833 0.60244 0.3156 0.0
H909 H 0.18713 0.60986 0.32734 0.0
H910 H 0.20838 0.61727 0.31569 0.0
H911 H 0.20448 0.6099 0.30389 0.0
H912 H 0.18309 0.6103 0.26728 0.0
H913 H 0.18213 0.60368 0.28007 0.0
H914 H 0.17845 0.58825 0.25555 0.0
H915 H 0.17744 0.58167 0.26834 0.0
H916 H 0.14996 0.57116 0.30687 0.0
H917 H 0.16569 0.56307 0.32509 0.0
H918 H 0.17589 0.57174 0.32007 0.0
H919 H 0.16025 0.57996 0.3019 0.0
C920 C 0.30527 0.39645 0.8014 0.0
C921 C 0.30981 0.39669 0.80828 0.0
C922 C 0.30044 0.38813 0.81494 0.0
C923 C 0.30744 0.39253 0.81497 0.0
C924 C 0.29579 0.38816 0.8081 0.0
C925 C 0.29821 0.39227 0.80139 0.0
U926 U 0.31785 0.41156 0.79063 0.0
O927 O 0.32541 0.41015 0.78028 0.0
O928 O 0.31545 0.41836 0.77983 0.0
C929 C 0.32122 0.41499 0.77595 0.0
C930 C 0.30803 0.4002 0.7941 0.0
C931 C 0.31953 0.41227 0.76792 0.0
C932 C 0.31508 0.4023 0.75867 0.0
C933 C 0.31558 0.40518 0.7664 0.0
C934 C 0.32217 0.41373 0.75398 0.0
C935 C 0.3186 0.40645 0.75242 0.0
C936 C 0.32263 0.4166 0.76165 0.0
C937 C 0.33057 0.42523 0.80395 0.0
C938 C 0.34362 0.43081 0.8024 0.0
C939 C 0.33543 0.43484 0.81332 0.0
C940 C 0.32947 0.42991 0.81064 0.0
C941 C 0.34267 0.4352 0.80937 0.0
C942 C 0.33762 0.42586 0.7997 0.0
C943 C 0.3247 0.41911 0.80222 0.0
O944 O 0.30578 0.40751 0.79297 0.0
O945 O 0.31545 0.399 0.7924 0.0
O946 O 0.32734 0.41246 0.79928 0.0
O947 O 0.31803 0.42141 0.7991 0.0
H948 H 0.31529 0.39991 0.80841 0.0
H949 H 0.31125 0.39258 0.82006 0.0
H950 H 0.2903 0.38498 0.8079 0.0
H951 H 0.29461 0.39206 0.79614 0.0
H952 H 0.3123 0.39666 0.75763 0.0
H953 H 0.31316 0.40175 0.77119 0.0
H954 H 0.32482 0.41711 0.74928 0.0
H955 H 0.32568 0.42209 0.76271 0.0
H956 H 0.34909 0.43103 0.79916 0.0
H957 H 0.33452 0.43803 0.81876 0.0
H958 H 0.3241 0.42946 0.81402 0.0
H959 H 0.3386 0.42232 0.79449 0.0
C960 C 0.93808 0.8586 0.56687 0.0
C961 C 0.9306 0.85685 0.56983 0.0
C962 C 0.92463 0.86463 0.5594 0.0
C963 C 0.92392 0.85986 0.56613 0.0
C964 C 0.93214 0.86616 0.55634 0.0
C965 C 0.9388 0.86317 0.56006 0.0
U966 U 0.94827 0.84571 0.58207 0.0
O967 O 0.95997 0.84022 0.58182 0.0
O968 O 0.957 0.84878 0.59104 0.0
C969 C 0.96248 0.8444 0.58783 0.0
C970 C 0.94518 0.85601 0.57101 0.0
C971 C 0.97018 0.8482 0.58702 0.0
C972 C 0.97933 0.85699 0.5804 0.0
C973 C 0.97211 0.85303 0.58058 0.0
C974 C 0.98272 0.85123 0.593 0.0
C975 C 0.98462 0.85624 0.58671 0.0
C976 C 0.97558 0.84725 0.59314 0.0
C977 C 0.9346 0.83125 0.59349 0.0
C978 C 0.93544 0.82579 0.60671 0.0
C979 C 0.92531 0.82132 0.59776 0.0
C980 C 0.92816 0.82638 0.59197 0.0
C981 C 0.92883 0.82107 0.60522 0.0
C982 C 0.93835 0.83082 0.60085 0.0
C983 C 0.93664 0.83721 0.58756 0.0
O984 O 0.94544 0.85779 0.57853 0.0
O985 O 0.94752 0.84879 0.5695 0.0
O986 O 0.94105 0.83494 0.58164 0.0
O987 O 0.9384 0.84426 0.59022 0.0
H988 H 0.92994 0.85327 0.57507 0.0
H989 H 0.91821 0.85849 0.56855 0.0
H990 H 0.93287 0.86985 0.5512 0.0
H991 H 0.94454 0.86457 0.55771 0.0
H992 H 0.98067 0.86085 0.5755 0.0
H993 H 0.96798 0.85386 0.57581 0.0
H994 H 0.98672 0.85049 0.5979 0.0
H995 H 0.9742 0.84355 0.59814 0.0
H996 H 0.93824 0.82568 0.61243 0.0
H997 H 0.92014 0.81783 0.59651 0.0
H998 H 0.92514 0.82669 0.58637 0.0
H999 H 0.94333 0.83455 0.60214 0.0
C1000 C 0.88345 0.19189 0.32203 0.0
C1001 C 0.88464 0.18475 0.32601 0.0
C1002 C 0.87382 0.1788 0.3188 0.0
C1003 C 0.87983 0.17827 0.32444 0.0
C1004 C 0.87288 0.18584 0.31458 0.0
C1005 C 0.87763 0.19235 0.31622 0.0
U1006 U 0.90078 0.2017 0.33223 0.0
O1007 O 0.90786 0.21206 0.32886 0.0
O1008 O 0.90116 0.21208 0.33991 0.0
C1009 C 0.90565 0.2161 0.33508 0.0
C1010 C 0.88791 0.19899 0.3242 0.0
C1011 C 0.90358 0.22447 0.33391 0.0
C1012 C 0.89404 0.23515 0.33329 0.0
C1013 C 0.89579 0.22706 0.3331 0.0
C1014 C 0.90785 0.23809 0.33471 0.0
C1015 C 0.90004 0.24074 0.33438 0.0
C1016 C 0.90958 0.23006 0.33448 0.0
C1017 C 0.91511 0.18658 0.34233 0.0
C1018 C 0.92442 0.18778 0.35312 0.0
C1019 C 0.92325 0.17546 0.34605 0.0
C1020 C 0.91754 0.17879 0.34122 0.0
C1021 C 0.9267 0.17986 0.35214 0.0
C1022 C 0.91866 0.19112 0.34824 0.0
C1023 C 0.90839 0.18939 0.33767 0.0
O1024 O 0.88796 0.20065 0.33175 0.0
O1025 O 0.89483 0.19978 0.32087 0.0
O1026 O 0.90986 0.19255 0.33077 0.0
O1027 O 0.90269 0.1929 0.34151 0.0
H1028 H 0.88915 0.18425 0.33048 0.0
H1029 H 0.88073 0.17287 0.32772 0.0
H1030 H 0.86827 0.1864 0.31023 0.0
H1031 H 0.87664 0.19782 0.31309 0.0
H1032 H 0.88796 0.237 0.33301 0.0
H1033 H 0.89105 0.22284 0.33264 0.0
H1034 H 0.91263 0.24222 0.33538 0.0
H1035 H 0.91563 0.2282 0.33509 0.0
H1036 H 0.92701 0.19134 0.35772 0.0
H1037 H 0.92474 0.16932 0.34521 0.0
H1038 H 0.9148 0.17516 0.33674 0.0
H1039 H 0.91686 0.19716 0.34921 0.0
C1040 C 0.56281 0.14961 0.072 0.0
C1041 C 0.57028 0.15132 0.07501 0.0
C1042 C 0.57617 0.14232 0.06557 0.0
C1043 C 0.57691 0.14768 0.07183 0.0
C1044 C 0.56869 0.14082 0.06244 0.0
C1045 C 0.56207 0.14443 0.06565 0.0
U1046 U 0.55268 0.16445 0.0854 0.0
O1047 O 0.54119 0.17023 0.08417 0.0
O1048 O 0.54359 0.16264 0.09436 0.0
C1049 C 0.53836 0.16679 0.0905 0.0
C1050 C 0.55571 0.15289 0.07564 0.0
C1051 C 0.53057 0.16313 0.08982 0.0
C1052 C 0.52136 0.15403 0.08373 0.0
C1053 C 0.52869 0.1578 0.08378 0.0
C1054 C 0.5178 0.16095 0.09568 0.0
C1055 C 0.51592 0.15548 0.08979 0.0
C1056 C 0.52504 0.16475 0.09568 0.0
C1057 C 0.56651 0.17966 0.09559 0.0
C1058 C 0.56508 0.18692 0.10785 0.0
C1059 C 0.57623 0.18938 0.09935 0.0
C1060 C 0.57345 0.18378 0.09404 0.0
C1061 C 0.57215 0.1909 0.10635 0.0
C1062 C 0.56224 0.18135 0.10246 0.0
C1063 C 0.56443 0.17314 0.09029 0.0
O1064 O 0.55521 0.15196 0.0833 0.0
O1065 O 0.55368 0.15997 0.07327 0.0
O1066 O 0.56026 0.17488 0.08402 0.0
O1067 O 0.56235 0.1665 0.09366 0.0
H1068 H 0.57096 0.15537 0.0799 0.0
H1069 H 0.58261 0.14905 0.07428 0.0
H1070 H 0.56793 0.13668 0.05766 0.0
H1071 H 0.55634 0.14305 0.06327 0.0
H1072 H 0.52005 0.1498 0.07915 0.0
H1073 H 0.53292 0.15644 0.07922 0.0
H1074 H 0.51368 0.16223 0.10037 0.0
H1075 H 0.52639 0.16884 0.10038 0.0
H1076 H 0.56186 0.18802 0.11324 0.0
H1077 H 0.58174 0.1923 0.09813 0.0
H1078 H 0.57687 0.18249 0.08882 0.0
H1079 H 0.55687 0.1782 0.10377 0.0
C1080 C 0.61812 0.80864 0.81228 0.0
C1081 C 0.61719 0.81533 0.81704 0.0
C1082 C 0.62673 0.82246 0.8091 0.0
C1083 C 0.62147 0.82216 0.81548 0.0
C1084 C 0.62735 0.81588 0.80412 0.0
C1085 C 0.6231 0.80901 0.80573 0.0
U1086 U 0.60286 0.79726 0.82392 0.0
O1087 O 0.59595 0.78664 0.82105 0.0
O1088 O 0.60405 0.7866 0.83111 0.0
C1089 C 0.5991 0.78253 0.8268 0.0
C1090 C 0.61436 0.80113 0.81442 0.0
C1091 C 0.6013 0.7743 0.82515 0.0
C1092 C 0.61079 0.76422 0.82151 0.0
C1093 C 0.60856 0.77218 0.82188 0.0
C1094 C 0.59837 0.76049 0.82731 0.0
C1095 C 0.6058 0.75829 0.82447 0.0
C1096 C 0.59617 0.76839 0.82768 0.0
C1097 C 0.58945 0.81056 0.83707 0.0
C1098 C 0.58352 0.80839 0.84991 0.0
C1099 C 0.5809 0.82047 0.8428 0.0
C1100 C 0.58562 0.81785 0.83661 0.0
C1101 C 0.58 0.81586 0.84959 0.0
C1102 C 0.58818 0.80572 0.84365 0.0
C1103 C 0.59549 0.80877 0.83114 0.0
O1104 O 0.61543 0.79894 0.82176 0.0
O1105 O 0.6071 0.80016 0.812 0.0
O1106 O 0.59315 0.80586 0.82436 0.0
O1107 O 0.602 0.80556 0.83375 0.0
H1108 H 0.61332 0.81518 0.8221 0.0
H1109 H 0.62078 0.82719 0.81935 0.0
H1110 H 0.63136 0.81592 0.79918 0.0
H1111 H 0.62388 0.80391 0.80199 0.0
H1112 H 0.61655 0.76275 0.81928 0.0
H1113 H 0.61261 0.77668 0.81989 0.0
H1114 H 0.59427 0.75611 0.82943 0.0
H1115 H 0.59053 0.7699 0.8302 0.0
H1116 H 0.5829 0.80475 0.85511 0.0
H1117 H 0.57833 0.82629 0.84247 0.0
H1118 H 0.58659 0.8217 0.83162 0.0
H1119 H 0.59109 0.80007 0.84413 0.0
C1120 C 0.93818 0.14658 0.93823 0.0
C1121 C 0.93069 0.14826 0.93527 0.0
C1122 C 0.92478 0.14049 0.94574 0.0
C1123 C 0.92403 0.14521 0.93898 0.0
C1124 C 0.93229 0.13903 0.94881 0.0
C1125 C 0.93894 0.14205 0.94507 0.0
U1126 U 0.94829 0.15951 0.92302 0.0
O1127 O 0.95995 0.16506 0.92328 0.0
O1128 O 0.95705 0.15647 0.91407 0.0
C1129 C 0.9625 0.16088 0.91729 0.0
C1130 C 0.94526 0.1492 0.93408 0.0
C1131 C 0.9702 0.15709 0.91816 0.0
C1132 C 0.97909 0.14786 0.92452 0.0
C1133 C 0.97187 0.15184 0.92433 0.0
C1134 C 0.98296 0.15444 0.91248 0.0
C1135 C 0.98461 0.14901 0.91848 0.0
C1136 C 0.97583 0.15844 0.91233 0.0
C1137 C 0.93467 0.17397 0.91158 0.0
C1138 C 0.93522 0.17917 0.89825 0.0
C1139 C 0.92569 0.18427 0.90751 0.0
C1140 C 0.92854 0.17919 0.91328 0.0
C1141 C 0.9289 0.18422 0.8999 0.0
C1142 C 0.93813 0.1741 0.90407 0.0
C1143 C 0.93666 0.16799 0.91752 0.0
O1144 O 0.94551 0.14741 0.92656 0.0
O1145 O 0.94756 0.15642 0.93559 0.0
O1146 O 0.94103 0.17025 0.92347 0.0
O1147 O 0.93842 0.16094 0.91487 0.0
H1148 H 0.93 0.1518 0.93001 0.0
H1149 H 0.91831 0.14653 0.93656 0.0
H1150 H 0.93306 0.13538 0.95398 0.0
H1151 H 0.94469 0.14071 0.94743 0.0
H1152 H 0.98022 0.14367 0.9292 0.0
H1153 H 0.96756 0.15069 0.92887 0.0
H1154 H 0.98715 0.1555 0.9078 0.0
H1155 H 0.97463 0.16247 0.90754 0.0
H1156 H 0.93781 0.17904 0.89243 0.0
H1157 H 0.92074 0.188 0.90892 0.0
H1158 H 0.92575 0.17912 0.91901 0.0
H1159 H 0.94287 0.17011 0.90264 0.0
C1160 C 0.6184 0.19664 0.69301 0.0
C1161 C 0.61733 0.19 0.68821 0.0
C1162 C 0.62687 0.1827 0.69597 0.0
C1163 C 0.62157 0.18311 0.68965 0.0
C1164 C 0.62764 0.18922 0.70099 0.0
C1165 C 0.62346 0.19616 0.69949 0.0
U1166 U 0.60289 0.20803 0.68183 0.0
O1167 O 0.59603 0.21862 0.68486 0.0
O1168 O 0.60378 0.21863 0.67452 0.0
C1169 C 0.59891 0.22268 0.67894 0.0
C1170 C 0.61464 0.20419 0.69102 0.0
C1171 C 0.60102 0.23096 0.68035 0.0
C1172 C 0.60955 0.24121 0.68555 0.0
C1173 C 0.60735 0.23324 0.68514 0.0
C1174 C 0.59902 0.24458 0.67661 0.0
C1175 C 0.60552 0.24693 0.68111 0.0
C1176 C 0.59681 0.2367 0.67624 0.0
C1177 C 0.58923 0.19457 0.66909 0.0
C1178 C 0.58385 0.19542 0.65585 0.0
C1179 C 0.58014 0.18465 0.66441 0.0
C1180 C 0.58477 0.18778 0.6704 0.0
C1181 C 0.57989 0.18825 0.65696 0.0
C1182 C 0.58852 0.19856 0.66187 0.0
C1183 C 0.5954 0.19649 0.67484 0.0
O1184 O 0.61552 0.20641 0.68366 0.0
O1185 O 0.60745 0.20518 0.69365 0.0
O1186 O 0.59322 0.19937 0.68168 0.0
O1187 O 0.60184 0.19969 0.67205 0.0
H1188 H 0.61339 0.19023 0.68321 0.0
H1189 H 0.6208 0.17813 0.68574 0.0
H1190 H 0.63171 0.18907 0.70588 0.0
H1191 H 0.62434 0.20122 0.70327 0.0
H1192 H 0.61459 0.24285 0.68906 0.0
H1193 H 0.61069 0.22887 0.68834 0.0
H1194 H 0.59573 0.24885 0.67322 0.0
H1195 H 0.59191 0.23505 0.67254 0.0
H1196 H 0.58378 0.19832 0.65017 0.0
H1197 H 0.57704 0.17919 0.66548 0.0
H1198 H 0.58523 0.18461 0.67592 0.0
H1199 H 0.59191 0.20383 0.66073 0.0
C1200 C 0.56268 0.85559 0.43296 0.0
C1201 C 0.57014 0.85384 0.42994 0.0
C1202 C 0.57608 0.86278 0.43941 0.0
C1203 C 0.57679 0.85743 0.43313 0.0
C1204 C 0.56861 0.86432 0.44255 0.0
C1205 C 0.56197 0.86075 0.43934 0.0
U1206 U 0.55255 0.84084 0.41953 0.0
O1207 O 0.5411 0.83497 0.4208 0.0
O1208 O 0.54337 0.84268 0.41067 0.0
C1209 C 0.53819 0.83847 0.41454 0.0
C1210 C 0.55558 0.85235 0.42933 0.0
C1211 C 0.53043 0.84211 0.41542 0.0
C1212 C 0.52204 0.85304 0.41926 0.0
C1213 C 0.52939 0.84934 0.41931 0.0
C1214 C 0.51671 0.84217 0.41175 0.0
C1215 C 0.51567 0.84958 0.4153 0.0
C1216 C 0.52402 0.8385 0.4118 0.0
C1217 C 0.56624 0.82552 0.40933 0.0
C1218 C 0.56551 0.8188 0.39671 0.0
C1219 C 0.57533 0.81497 0.40628 0.0
C1220 C 0.5725 0.82065 0.41148 0.0
C1221 C 0.57196 0.81408 0.39879 0.0
C1222 C 0.56263 0.82447 0.40196 0.0
C1223 C 0.56424 0.83211 0.41459 0.0
O1224 O 0.55507 0.85331 0.42167 0.0
O1225 O 0.55355 0.84526 0.43167 0.0
O1226 O 0.56015 0.83043 0.42092 0.0
O1227 O 0.56216 0.83875 0.41121 0.0
H1228 H 0.5708 0.84981 0.42505 0.0
H1229 H 0.58249 0.85605 0.43067 0.0
H1230 H 0.56788 0.86845 0.44735 0.0
H1231 H 0.55625 0.86215 0.44173 0.0
H1232 H 0.52143 0.85875 0.42204 0.0
H1233 H 0.53431 0.85221 0.42214 0.0
H1234 H 0.51189 0.83926 0.4088 0.0
H1235 H 0.52471 0.83291 0.40881 0.0
H1236 H 0.56281 0.8182 0.39097 0.0
H1237 H 0.58038 0.81151 0.408 0.0
H1238 H 0.57541 0.82143 0.41709 0.0
H1239 H 0.55778 0.82818 0.40018 0.0
C1240 C 0.8831 0.81314 0.18274 0.0
C1241 C 0.88513 0.82067 0.18003 0.0
C1242 C 0.87358 0.82624 0.18646 0.0
C1243 C 0.8804 0.82715 0.18185 0.0
C1244 C 0.87172 0.81869 0.1893 0.0
C1245 C 0.87642 0.81221 0.18743 0.0
U1246 U 0.90073 0.80371 0.17263 0.0
O1247 O 0.90781 0.79338 0.17601 0.0
O1248 O 0.90132 0.79342 0.16485 0.0
C1249 C 0.9057 0.78936 0.16974 0.0
C1250 C 0.88768 0.80618 0.18045 0.0
C1251 C 0.90343 0.78108 0.17096 0.0
C1252 C 0.89361 0.77079 0.17255 0.0
C1253 C 0.89564 0.7788 0.17235 0.0
C1254 C 0.90718 0.7673 0.17025 0.0
C1255 C 0.89935 0.76493 0.17137 0.0
C1256 C 0.90918 0.77527 0.17006 0.0
C1257 C 0.91532 0.81859 0.16287 0.0
C1258 C 0.92439 0.81716 0.15191 0.0
C1259 C 0.92405 0.82931 0.15935 0.0
C1260 C 0.91822 0.82618 0.16419 0.0
C1261 C 0.92712 0.82491 0.15307 0.0
C1262 C 0.91853 0.81402 0.15679 0.0
C1263 C 0.90844 0.81605 0.16745 0.0
O1264 O 0.88789 0.80474 0.17286 0.0
O1265 O 0.89453 0.80538 0.18389 0.0
O1266 O 0.90975 0.81286 0.17438 0.0
O1267 O 0.90275 0.81264 0.16352 0.0
H1268 H 0.89027 0.8215 0.17638 0.0
H1269 H 0.88199 0.83283 0.17944 0.0
H1270 H 0.86662 0.81775 0.19299 0.0
H1271 H 0.87479 0.80644 0.18959 0.0
H1272 H 0.88755 0.76919 0.17353 0.0
H1273 H 0.8911 0.7832 0.17308 0.0
H1274 H 0.91176 0.76301 0.16918 0.0
H1275 H 0.91522 0.7769 0.16894 0.0
H1276 H 0.92669 0.81359 0.14717 0.0
H1277 H 0.92589 0.83533 0.16034 0.0
H1278 H 0.91576 0.82983 0.16881 0.0
H1279 H 0.91636 0.80814 0.15567 0.0
C1280 C 0.60405 0.92511 0.89049 0.0
C1281 C 0.60631 0.91789 0.88718 0.0
C1282 C 0.59603 0.91111 0.89453 0.0
C1283 C 0.60236 0.91097 0.8892 0.0
C1284 C 0.59403 0.91833 0.89809 0.0
C1285 C 0.598 0.92525 0.89607 0.0
U1286 U 0.61938 0.93576 0.87836 0.0
O1287 O 0.61836 0.94577 0.87026 0.0
O1288 O 0.62625 0.94658 0.88047 0.0
C1289 C 0.62322 0.95019 0.87433 0.0
C1290 C 0.60762 0.93254 0.88779 0.0
C1291 C 0.62115 0.95858 0.87523 0.0
C1292 C 0.61172 0.96934 0.87491 0.0
C1293 C 0.61335 0.96125 0.87522 0.0
C1294 C 0.62564 0.97215 0.87493 0.0
C1295 C 0.61787 0.97488 0.87462 0.0
C1296 C 0.62725 0.9641 0.87522 0.0
C1297 C 0.63354 0.92144 0.86727 0.0
C1298 C 0.64058 0.9226 0.85488 0.0
C1299 C 0.64201 0.91088 0.86288 0.0
C1300 C 0.63702 0.91409 0.86851 0.0
C1301 C 0.64361 0.91496 0.85587 0.0
C1302 C 0.63552 0.92582 0.86054 0.0
C1303 C 0.62717 0.92376 0.87261 0.0
O1304 O 0.61476 0.93397 0.89035 0.0
O1305 O 0.60677 0.93399 0.88025 0.0
O1306 O 0.62082 0.92666 0.86934 0.0
O1307 O 0.62913 0.92727 0.87921 0.0
H1308 H 0.61101 0.91765 0.88289 0.0
H1309 H 0.60419 0.90551 0.88647 0.0
H1310 H 0.58917 0.9187 0.90217 0.0
H1311 H 0.59619 0.93077 0.8987 0.0
H1312 H 0.60567 0.97127 0.87476 0.0
H1313 H 0.60853 0.9571 0.87522 0.0
H1314 H 0.63051 0.97622 0.8746 0.0
H1315 H 0.63331 0.96216 0.87513 0.0
H1316 H 0.64172 0.92586 0.84952 0.0
H1317 H 0.64434 0.90503 0.86384 0.0
H1318 H 0.63556 0.91064 0.87367 0.0
H1319 H 0.63288 0.93152 0.85949 0.0
C1320 C 0.81248 0.8223 0.60583 0.0
C1321 C 0.81995 0.82528 0.60407 0.0
C1322 C 0.82586 0.8158 0.613 0.0
C1323 C 0.82659 0.82207 0.60765 0.0
C1324 C 0.81838 0.81269 0.61455 0.0
C1325 C 0.81175 0.81593 0.611 0.0
U1326 U 0.80251 0.83563 0.59091 0.0
O1327 O 0.79107 0.83441 0.58501 0.0
O1328 O 0.79344 0.84465 0.59254 0.0
C1329 C 0.78822 0.84076 0.5884 0.0
C1330 C 0.80539 0.82594 0.60255 0.0
C1331 C 0.78044 0.84007 0.59207 0.0
C1332 C 0.77121 0.83388 0.6011 0.0
C1333 C 0.77854 0.83396 0.59732 0.0
C1334 C 0.76768 0.84594 0.59435 0.0
C1335 C 0.76579 0.83997 0.59974 0.0
C1336 C 0.77492 0.84597 0.59054 0.0
C1337 C 0.81687 0.84533 0.57574 0.0
C1338 C 0.81575 0.85712 0.56769 0.0
C1339 C 0.82707 0.8486 0.56635 0.0
C1340 C 0.82402 0.84361 0.57209 0.0
C1341 C 0.82302 0.85545 0.56412 0.0
C1342 C 0.81268 0.85207 0.57346 0.0
C1343 C 0.81443 0.84027 0.58231 0.0
O1344 O 0.80493 0.83361 0.60342 0.0
O1345 O 0.80335 0.82354 0.5955 0.0
O1346 O 0.81021 0.83403 0.5806 0.0
O1347 O 0.81223 0.84383 0.58881 0.0
H1348 H 0.82062 0.83017 0.60002 0.0
H1349 H 0.8323 0.8245 0.60625 0.0
H1350 H 0.81764 0.80789 0.61869 0.0
H1351 H 0.80602 0.81356 0.61241 0.0
H1352 H 0.76989 0.82924 0.60526 0.0
H1353 H 0.78276 0.82937 0.59861 0.0
H1354 H 0.76358 0.85066 0.59315 0.0
H1355 H 0.77629 0.85072 0.58651 0.0
H1356 H 0.8125 0.86234 0.56607 0.0
H1357 H 0.83275 0.84722 0.56384 0.0
H1358 H 0.82739 0.83849 0.57384 0.0
H1359 H 0.80714 0.8535 0.57624 0.0
C1360 C 0.90481 0.07142 0.38807 0.0
C1361 C 0.90254 0.07894 0.38552 0.0
C1362 C 0.91411 0.08471 0.39173 0.0
C1363 C 0.90712 0.08552 0.38736 0.0
C1364 C 0.91612 0.0772 0.39457 0.0
C1365 C 0.91151 0.07062 0.39276 0.0
U1366 U 0.88757 0.06215 0.37741 0.0
O1367 O 0.88719 0.05275 0.36855 0.0
O1368 O 0.88073 0.05135 0.37967 0.0
C1369 C 0.88266 0.04822 0.37286 0.0
C1370 C 0.90056 0.06435 0.3854 0.0
C1371 C 0.88428 0.0397 0.3726 0.0
C1372 C 0.89281 0.02826 0.37397 0.0
C1373 C 0.89139 0.03635 0.37512 0.0
C1374 C 0.88003 0.02691 0.36789 0.0
C1375 C 0.88718 0.02353 0.37018 0.0
C1376 C 0.87859 0.03489 0.36913 0.0
C1377 C 0.87266 0.07745 0.36905 0.0
C1378 C 0.86249 0.07566 0.35918 0.0
C1379 C 0.86463 0.0885 0.365 0.0
C1380 C 0.87059 0.08539 0.36966 0.0
C1381 C 0.86057 0.08372 0.35961 0.0
C1382 C 0.86851 0.07254 0.36387 0.0
C1383 C 0.87957 0.07476 0.37345 0.0
O1384 O 0.89375 0.06302 0.38878 0.0
O1385 O 0.90037 0.0634 0.37773 0.0
O1386 O 0.88538 0.07192 0.36925 0.0
O1387 O 0.8783 0.07083 0.38 0.0
H1388 H 0.89734 0.07969 0.38193 0.0
H1389 H 0.90525 0.09122 0.38522 0.0
H1390 H 0.92146 0.0763 0.3979 0.0
H1391 H 0.91334 0.06487 0.39479 0.0
H1392 H 0.89837 0.02578 0.37577 0.0
H1393 H 0.89587 0.03999 0.37779 0.0
H1394 H 0.87558 0.02338 0.36502 0.0
H1395 H 0.87308 0.03736 0.36714 0.0
H1396 H 0.85943 0.0718 0.35515 0.0
H1397 H 0.86345 0.09475 0.36539 0.0
H1398 H 0.87377 0.08927 0.37358 0.0
H1399 H 0.87005 0.06638 0.36333 0.0
C1400 C 0.68869 0.18818 0.1085 0.0
C1401 C 0.68121 0.18525 0.10671 0.0
C1402 C 0.67525 0.19562 0.11458 0.0
C1403 C 0.67453 0.18894 0.10975 0.0
C1404 C 0.68276 0.19864 0.11616 0.0
C1405 C 0.68942 0.19493 0.11315 0.0
U1406 U 0.69881 0.17312 0.09542 0.0
O1407 O 0.71048 0.17342 0.08986 0.0
O1408 O 0.70756 0.16412 0.09836 0.0
C1409 C 0.71302 0.16739 0.094 0.0
C1410 C 0.69579 0.18407 0.10585 0.0
C1411 C 0.72069 0.16827 0.09783 0.0
C1412 C 0.72944 0.17447 0.10731 0.0
C1413 C 0.72225 0.1743 0.10328 0.0
C1414 C 0.73352 0.1627 0.10038 0.0
C1415 C 0.73506 0.16855 0.106 0.0
C1416 C 0.72642 0.16257 0.09633 0.0
C1417 C 0.68459 0.16208 0.08099 0.0
C1418 C 0.68465 0.14892 0.07533 0.0
C1419 C 0.67428 0.15809 0.07204 0.0
C1420 C 0.67779 0.16381 0.07673 0.0
C1421 C 0.67753 0.15052 0.07148 0.0
C1422 C 0.68815 0.15467 0.08012 0.0
C1423 C 0.68707 0.16782 0.08697 0.0
O1424 O 0.69604 0.17653 0.10756 0.0
O1425 O 0.6981 0.18566 0.09865 0.0
O1426 O 0.69154 0.1737 0.08469 0.0
O1427 O 0.68893 0.165 0.09393 0.0
H1428 H 0.68054 0.18006 0.10307 0.0
H1429 H 0.66882 0.18655 0.10833 0.0
H1430 H 0.68349 0.20375 0.11991 0.0
H1431 H 0.69516 0.19726 0.11459 0.0
H1432 H 0.73048 0.17903 0.11165 0.0
H1433 H 0.71786 0.17873 0.10454 0.0
H1434 H 0.73779 0.15812 0.09921 0.0
H1435 H 0.72532 0.15789 0.09215 0.0
H1436 H 0.68725 0.14311 0.07499 0.0
H1437 H 0.66884 0.1595 0.06906 0.0
H1438 H 0.67495 0.16948 0.07734 0.0
H1439 H 0.6934 0.15322 0.08339 0.0
C1440 C 0.60409 0.08015 0.61465 0.0
C1441 C 0.60635 0.08738 0.61792 0.0
C1442 C 0.59616 0.09413 0.61044 0.0
C1443 C 0.60244 0.0943 0.61583 0.0
C1444 C 0.59418 0.08691 0.6069 0.0
C1445 C 0.59811 0.07998 0.609 0.0
U1446 U 0.61923 0.0697 0.62712 0.0
O1447 O 0.61806 0.05991 0.6355 0.0
O1448 O 0.62602 0.0588 0.62537 0.0
C1449 C 0.62308 0.05545 0.63169 0.0
C1450 C 0.6076 0.07274 0.61748 0.0
C1451 C 0.6214 0.04696 0.6314 0.0
C1452 C 0.61429 0.03542 0.62675 0.0
C1453 C 0.61559 0.0436 0.62659 0.0
C1454 C 0.6245 0.03401 0.63654 0.0
C1455 C 0.61878 0.03051 0.63171 0.0
C1456 C 0.6258 0.0421 0.63634 0.0
C1457 C 0.63329 0.08395 0.63826 0.0
C1458 C 0.64105 0.08166 0.65004 0.0
C1459 C 0.64168 0.09426 0.64339 0.0
C1460 C 0.63643 0.09153 0.63773 0.0
C1461 C 0.64396 0.08942 0.64971 0.0
C1462 C 0.63573 0.07895 0.64436 0.0
C1463 C 0.62697 0.08181 0.63277 0.0
O1464 O 0.61476 0.07126 0.61504 0.0
O1465 O 0.60664 0.07141 0.62504 0.0
O1466 O 0.62052 0.07903 0.63596 0.0
O1467 O 0.62901 0.07815 0.62627 0.0
H1468 H 0.611 0.08764 0.62226 0.0
H1469 H 0.60425 0.09977 0.61854 0.0
H1470 H 0.58936 0.08653 0.60277 0.0
H1471 H 0.59631 0.07445 0.6064 0.0
H1472 H 0.60985 0.03294 0.62293 0.0
H1473 H 0.6121 0.04729 0.62274 0.0
H1474 H 0.62793 0.03053 0.64061 0.0
H1475 H 0.63026 0.04458 0.64015 0.0
H1476 H 0.64275 0.07773 0.65475 0.0
H1477 H 0.64365 0.1003 0.64298 0.0
H1478 H 0.63457 0.09548 0.63308 0.0
H1479 H 0.63336 0.07305 0.64485 0.0
C1480 C 0.68834 0.81698 0.39668 0.0
C1481 C 0.68085 0.81947 0.39902 0.0
C1482 C 0.67491 0.80954 0.39059 0.0
C1483 C 0.67418 0.81578 0.39598 0.0
C1484 C 0.68244 0.80696 0.38844 0.0
C1485 C 0.6891 0.81067 0.39145 0.0
U1486 U 0.69835 0.83218 0.40969 0.0
O1487 O 0.71 0.83194 0.41527 0.0
O1488 O 0.7071 0.84116 0.40669 0.0
C1489 C 0.71255 0.83794 0.4111 0.0
C1490 C 0.6954 0.82114 0.39934 0.0
C1491 C 0.72024 0.83706 0.40731 0.0
C1492 C 0.72908 0.83077 0.39797 0.0
C1493 C 0.72189 0.83094 0.40198 0.0
C1494 C 0.73301 0.84273 0.40468 0.0
C1495 C 0.73463 0.83678 0.39916 0.0
C1496 C 0.7259 0.84285 0.40871 0.0
C1497 C 0.68456 0.84357 0.42405 0.0
C1498 C 0.68572 0.85662 0.42982 0.0
C1499 C 0.67502 0.84805 0.43364 0.0
C1500 C 0.67783 0.84225 0.42858 0.0
C1501 C 0.67886 0.85533 0.43422 0.0
C1502 C 0.6886 0.85074 0.4248 0.0
C1503 C 0.68664 0.83765 0.4181 0.0
O1504 O 0.69562 0.82866 0.39757 0.0
O1505 O 0.69766 0.81962 0.40657 0.0
O1506 O 0.69105 0.83172 0.4204 0.0
O1507 O 0.68846 0.84032 0.41108 0.0
H1508 H 0.68017 0.82433 0.40309 0.0
H1509 H 0.66845 0.81782 0.39783 0.0
H1510 H 0.68318 0.80221 0.38425 0.0
H1511 H 0.69484 0.80869 0.38958 0.0
H1512 H 0.73019 0.82615 0.39372 0.0
H1513 H 0.71755 0.82644 0.4008 0.0
H1514 H 0.73722 0.84738 0.40576 0.0
H1515 H 0.72473 0.8476 0.41279 0.0
H1516 H 0.68876 0.8622 0.43019 0.0
H1517 H 0.66965 0.84697 0.43688 0.0
H1518 H 0.67458 0.83679 0.42801 0.0
H1519 H 0.69381 0.85187 0.42133 0.0
C1520 C 0.9044 0.93116 0.11613 0.0
C1521 C 0.90236 0.92376 0.11916 0.0
C1522 C 0.91361 0.91786 0.1125 0.0
C1523 C 0.9069 0.91715 0.11731 0.0
C1524 C 0.91535 0.92525 0.1092 0.0
C1525 C 0.91077 0.93181 0.11098 0.0
U1526 U 0.88814 0.94318 0.12658 0.0
O1527 O 0.89009 0.95331 0.13453 0.0
O1528 O 0.88382 0.95491 0.12313 0.0
C1529 C 0.8867 0.95814 0.12956 0.0
C1530 C 0.90054 0.9384 0.11877 0.0
C1531 C 0.88601 0.96663 0.13102 0.0
C1532 C 0.88943 0.98009 0.12762 0.0
C1533 C 0.88918 0.97208 0.1257 0.0
C1534 C 0.88307 0.97729 0.14006 0.0
C1535 C 0.88642 0.98278 0.13485 0.0
C1536 C 0.88294 0.96928 0.13819 0.0
C1537 C 0.87126 0.9299 0.13604 0.0
C1538 C 0.86344 0.92934 0.14802 0.0
C1539 C 0.862 0.91924 0.13807 0.0
C1540 C 0.8675 0.92308 0.13337 0.0
C1541 C 0.86011 0.92217 0.14556 0.0
C1542 C 0.86904 0.93316 0.14331 0.0
C1543 C 0.87826 0.9325 0.13167 0.0
O1544 O 0.89389 0.94026 0.11533 0.0
O1545 O 0.90048 0.93956 0.12641 0.0
O1546 O 0.88437 0.93488 0.13573 0.0
O1547 O 0.87738 0.93611 0.12487 0.0
H1548 H 0.89742 0.92315 0.12313 0.0
H1549 H 0.90526 0.91153 0.11981 0.0
H1550 H 0.92048 0.92609 0.10555 0.0
H1551 H 0.91241 0.93749 0.10861 0.0
H1552 H 0.89199 0.98418 0.12346 0.0
H1553 H 0.89169 0.97012 0.12018 0.0
H1554 H 0.88077 0.97916 0.1457 0.0
H1555 H 0.88057 0.96514 0.14241 0.0
H1556 H 0.86211 0.93172 0.15378 0.0
H1557 H 0.85946 0.91379 0.13597 0.0
H1558 H 0.86916 0.92043 0.12781 0.0
H1559 H 0.87191 0.93841 0.14551 0.0
C1560 C 0.81281 0.18293 0.89956 0.0
C1561 C 0.82027 0.17992 0.90132 0.0
C1562 C 0.82621 0.18934 0.89233 0.0
C1563 C 0.82693 0.18309 0.89771 0.0
C1564 C 0.81874 0.19247 0.89077 0.0
C1565 C 0.8121 0.18927 0.89435 0.0
U1566 U 0.80269 0.16956 0.91437 0.0
O1567 O 0.79124 0.17085 0.92024 0.0
O1568 O 0.79352 0.16068 0.91258 0.0
C1569 C 0.78834 0.16456 0.9168 0.0
C1570 C 0.80571 0.17932 0.90282 0.0
C1571 C 0.78056 0.16539 0.91317 0.0
C1572 C 0.77201 0.16979 0.90258 0.0
C1573 C 0.77937 0.16981 0.90629 0.0
C1574 C 0.76701 0.16112 0.91274 0.0
C1575 C 0.76582 0.16527 0.90568 0.0
C1576 C 0.77431 0.16119 0.91644 0.0
C1577 C 0.81639 0.15938 0.92968 0.0
C1578 C 0.81567 0.14675 0.93639 0.0
C1579 C 0.82545 0.15634 0.94025 0.0
C1580 C 0.82263 0.16154 0.93457 0.0
C1581 C 0.82211 0.14884 0.94113 0.0
C1582 C 0.8128 0.15201 0.93072 0.0
C1583 C 0.8144 0.16464 0.92309 0.0
O1584 O 0.80519 0.17166 0.90189 0.0
O1585 O 0.80369 0.18168 0.9099 0.0
O1586 O 0.81031 0.17098 0.92477 0.0
O1587 O 0.81231 0.16126 0.91646 0.0
H1588 H 0.82093 0.17505 0.90539 0.0
H1589 H 0.83262 0.18065 0.89912 0.0
H1590 H 0.818 0.19724 0.88661 0.0
H1591 H 0.80638 0.19165 0.89294 0.0
H1592 H 0.77126 0.17302 0.89714 0.0
H1593 H 0.78416 0.17309 0.90368 0.0
H1594 H 0.76233 0.1577 0.91534 0.0
H1595 H 0.77513 0.15776 0.92175 0.0
H1596 H 0.81298 0.14101 0.93698 0.0
H1597 H 0.83049 0.15807 0.94373 0.0
H1598 H 0.82553 0.16716 0.93381 0.0
H1599 H 0.80796 0.15022 0.927 0.0
C1600 C 0.86845 0.5626 0.94649 0.0
C1601 C 0.86713 0.56694 0.93959 0.0
C1602 C 0.87682 0.55902 0.93259 0.0
C1603 C 0.8713 0.56519 0.93272 0.0
C1604 C 0.87791 0.55454 0.93948 0.0
C1605 C 0.87378 0.55634 0.94636 0.0
U1606 U 0.85281 0.57407 0.95753 0.0
O1607 O 0.84582 0.57107 0.96804 0.0
O1608 O 0.8536 0.58137 0.96816 0.0
C1609 C 0.84869 0.57695 0.97215 0.0
C1610 C 0.86458 0.56479 0.95393 0.0
C1611 C 0.85074 0.57549 0.98045 0.0
C1612 C 0.85868 0.56951 0.99078 0.0
C1613 C 0.85652 0.57007 0.9828 0.0
C1614 C 0.84921 0.57962 0.99404 0.0
C1615 C 0.85516 0.57444 0.99643 0.0
C1616 C 0.84702 0.58011 0.98615 0.0
C1617 C 0.83943 0.58684 0.94382 0.0
C1618 C 0.83265 0.59923 0.94608 0.0
C1619 C 0.83132 0.59255 0.93356 0.0
C1620 C 0.83615 0.5865 0.93628 0.0
C1621 C 0.82965 0.59908 0.93835 0.0
C1622 C 0.83751 0.59315 0.9488 0.0
C1623 C 0.84554 0.58106 0.94583 0.0
O1624 O 0.86546 0.57218 0.95601 0.0
O1625 O 0.85737 0.56222 0.95485 0.0
O1626 O 0.84328 0.57426 0.94873 0.0
O1627 O 0.85191 0.58386 0.94917 0.0
H1628 H 0.86303 0.57181 0.93958 0.0
H1629 H 0.87036 0.56885 0.92759 0.0
H1630 H 0.88197 0.54965 0.93958 0.0
H1631 H 0.87483 0.5529 0.95162 0.0
H1632 H 0.86332 0.5655 0.99248 0.0
H1633 H 0.85948 0.56645 0.97847 0.0
H1634 H 0.84636 0.58344 0.99827 0.0
H1635 H 0.84254 0.58431 0.98446 0.0
H1636 H 0.8314 0.60414 0.94995 0.0
H1637 H 0.82923 0.59228 0.92755 0.0
H1638 H 0.83762 0.58172 0.93233 0.0
H1639 H 0.84 0.59352 0.95465 0.0
C1640 C 0.36813 0.94295 0.05864 0.0
C1641 C 0.36709 0.93827 0.06538 0.0
C1642 C 0.37672 0.94614 0.07244 0.0
C1643 C 0.37139 0.93983 0.07221 0.0
C1644 C 0.37745 0.95104 0.06583 0.0
C1645 C 0.37321 0.94942 0.05895 0.0
U1646 U 0.35289 0.93125 0.04731 0.0
O1647 O 0.34597 0.93407 0.03669 0.0
O1648 O 0.35409 0.92403 0.03667 0.0
C1649 C 0.34914 0.92832 0.03259 0.0
C1650 C 0.36437 0.94078 0.05114 0.0
C1651 C 0.35134 0.92998 0.02437 0.0
C1652 C 0.36088 0.93352 0.01429 0.0
C1653 C 0.35865 0.93316 0.02226 0.0
C1654 C 0.34838 0.92792 0.01055 0.0
C1655 C 0.35586 0.93066 0.00835 0.0
C1656 C 0.34618 0.92755 0.01845 0.0
C1657 C 0.3395 0.9181 0.06059 0.0
C1658 C 0.33376 0.90518 0.0585 0.0
C1659 C 0.33083 0.91242 0.07042 0.0
C1660 C 0.33553 0.91862 0.0678 0.0
C1661 C 0.3301 0.90555 0.0659 0.0
C1662 C 0.33839 0.91144 0.05582 0.0
C1663 C 0.34553 0.92405 0.05883 0.0
O1664 O 0.36545 0.93344 0.04897 0.0
O1665 O 0.35711 0.94319 0.05017 0.0
O1666 O 0.34317 0.93082 0.05591 0.0
O1667 O 0.35206 0.92145 0.05565 0.0
H1668 H 0.36315 0.93327 0.06527 0.0
H1669 H 0.37068 0.93601 0.07726 0.0
H1670 H 0.38154 0.95591 0.06586 0.0
H1671 H 0.37408 0.95308 0.05381 0.0
H1672 H 0.36668 0.93568 0.01284 0.0
H1673 H 0.36272 0.93508 0.02676 0.0
H1674 H 0.34426 0.92587 0.00616 0.0
H1675 H 0.34051 0.9251 0.01995 0.0
H1676 H 0.33326 0.89992 0.05492 0.0
H1677 H 0.32815 0.9128 0.07619 0.0
H1678 H 0.33637 0.92368 0.07159 0.0
H1679 H 0.34141 0.91091 0.05024 0.0
C1680 C 0.85405 0.64044 0.8303 0.0
C1681 C 0.8561 0.63694 0.83749 0.0
C1682 C 0.84599 0.64454 0.84426 0.0
C1683 C 0.85213 0.63898 0.8444 0.0
C1684 C 0.84422 0.64828 0.83709 0.0
C1685 C 0.84821 0.64624 0.83017 0.0
U1686 U 0.8693 0.62816 0.81971 0.0
O1687 O 0.86821 0.61992 0.8098 0.0
O1688 O 0.87608 0.63013 0.80881 0.0
C1689 C 0.87317 0.62383 0.80537 0.0
C1690 C 0.85761 0.63771 0.82287 0.0
C1691 C 0.87136 0.62427 0.7969 0.0
C1692 C 0.8633 0.62817 0.78571 0.0
C1693 C 0.86501 0.62855 0.79382 0.0
C1694 C 0.87428 0.61932 0.78382 0.0
C1695 C 0.86785 0.62341 0.78069 0.0
C1696 C 0.87603 0.61978 0.79182 0.0
C1697 C 0.88326 0.61693 0.8341 0.0
C1698 C 0.89185 0.60577 0.83167 0.0
C1699 C 0.89092 0.61138 0.84475 0.0
C1700 C 0.88562 0.61696 0.84197 0.0
C1701 C 0.89404 0.60563 0.83967 0.0
C1702 C 0.88647 0.61138 0.8289 0.0
C1703 C 0.87697 0.62238 0.83179 0.0
O1704 O 0.86477 0.6402 0.82144 0.0
O1705 O 0.85669 0.63016 0.82143 0.0
O1706 O 0.87059 0.61917 0.82889 0.0
O1707 O 0.87904 0.6289 0.8282 0.0
H1708 H 0.86064 0.63249 0.83772 0.0
H1709 H 0.8538 0.63611 0.84984 0.0
H1710 H 0.83952 0.65255 0.83673 0.0
H1711 H 0.84656 0.64902 0.82468 0.0
H1712 H 0.8583 0.63136 0.78342 0.0
H1713 H 0.86132 0.63203 0.79766 0.0
H1714 H 0.87792 0.61568 0.78008 0.0
H1715 H 0.88095 0.61645 0.79408 0.0
H1716 H 0.89419 0.60148 0.82759 0.0
H1717 H 0.89231 0.61139 0.85096 0.0
H1718 H 0.88314 0.62117 0.84608 0.0
H1719 H 0.8847 0.61128 0.82278 0.0
C1720 C 0.13264 0.0718 0.56284 0.0
C1721 C 0.1359 0.07113 0.5704 0.0
C1722 C 0.12295 0.06853 0.5759 0.0
C1723 C 0.13109 0.06945 0.57688 0.0
C1724 C 0.11976 0.06911 0.56829 0.0
C1725 C 0.12457 0.07072 0.56184 0.0
U1726 U 0.1505 0.08162 0.55332 0.0
O1727 O 0.15742 0.07817 0.54288 0.0
O1728 O 0.15108 0.08942 0.54304 0.0
C1729 C 0.15548 0.08455 0.53897 0.0
C1730 C 0.1374 0.07397 0.55593 0.0
C1731 C 0.1535 0.0837 0.53056 0.0
C1732 C 0.14423 0.08153 0.51985 0.0
C1733 C 0.14611 0.08117 0.52791 0.0
C1734 C 0.15719 0.08664 0.51708 0.0
C1735 C 0.14969 0.08453 0.51439 0.0
C1736 C 0.15906 0.08622 0.52506 0.0
C1737 C 0.16523 0.09169 0.56775 0.0
C1738 C 0.17311 0.10358 0.56672 0.0
C1739 C 0.17476 0.09487 0.57788 0.0
C1740 C 0.16909 0.08983 0.57479 0.0
C1741 C 0.1767 0.10192 0.574 0.0
C1742 C 0.16742 0.09851 0.56362 0.0
C1743 C 0.15835 0.08696 0.5655 0.0
O1744 O 0.13766 0.08153 0.55437 0.0
O1745 O 0.14423 0.07045 0.5552 0.0
O1746 O 0.15965 0.08 0.56238 0.0
O1747 O 0.15251 0.09076 0.5622 0.0
H1748 H 0.14213 0.07202 0.57131 0.0
H1749 H 0.1337 0.0691 0.58269 0.0
H1750 H 0.11353 0.06834 0.56734 0.0
H1751 H 0.12194 0.07122 0.55605 0.0
H1752 H 0.1384 0.07986 0.51795 0.0
H1753 H 0.14173 0.07919 0.53208 0.0
H1754 H 0.16158 0.08883 0.51302 0.0
H1755 H 0.1648 0.08818 0.52697 0.0
H1756 H 0.17455 0.10891 0.56354 0.0
H1757 H 0.17731 0.09345 0.58354 0.0
H1758 H 0.16744 0.08464 0.5781 0.0
H1759 H 0.16454 0.10006 0.55816 0.0
C1760 C 0.15395 0.8651 0.82448 0.0
C1761 C 0.15209 0.86828 0.83186 0.0
C1762 C 0.1634 0.86163 0.83765 0.0
C1763 C 0.15674 0.86651 0.83841 0.0
C1764 C 0.16492 0.85813 0.8303 0.0
C1765 C 0.16023 0.85984 0.8238 0.0
U1766 U 0.13846 0.87661 0.8124 0.0
O1767 O 0.1413 0.88432 0.80241 0.0
O1768 O 0.1337 0.87381 0.80057 0.0
C1769 C 0.1372 0.87999 0.79751 0.0
C1770 C 0.15027 0.86797 0.81722 0.0
C1771 C 0.13725 0.88167 0.78903 0.0
C1772 C 0.14413 0.88326 0.77662 0.0
C1773 C 0.14424 0.88164 0.7847 0.0
C1774 C 0.13004 0.88498 0.77715 0.0
C1775 C 0.13703 0.88499 0.77275 0.0
C1776 C 0.13016 0.8833 0.78521 0.0
C1777 C 0.12171 0.88652 0.82547 0.0
C1778 C 0.11314 0.89792 0.82455 0.0
C1779 C 0.11281 0.88968 0.83617 0.0
C1780 C 0.11847 0.8848 0.83284 0.0
C1781 C 0.11015 0.89641 0.83215 0.0
C1782 C 0.11892 0.89304 0.82125 0.0
C1783 C 0.12859 0.8819 0.82302 0.0
O1784 O 0.14346 0.86495 0.81525 0.0
O1785 O 0.15068 0.87561 0.81616 0.0
O1786 O 0.13492 0.88574 0.82085 0.0
O1787 O 0.12748 0.87526 0.8192 0.0
H1788 H 0.14725 0.87237 0.83248 0.0
H1789 H 0.15526 0.86916 0.84401 0.0
H1790 H 0.17001 0.85442 0.82942 0.0
H1791 H 0.16177 0.85737 0.81813 0.0
H1792 H 0.14964 0.88331 0.77345 0.0
H1793 H 0.14978 0.88037 0.78755 0.0
H1794 H 0.12446 0.8862 0.77437 0.0
H1795 H 0.12471 0.88332 0.78848 0.0
H1796 H 0.11115 0.90297 0.82121 0.0
H1797 H 0.11083 0.88836 0.84207 0.0
H1798 H 0.12062 0.87984 0.83623 0.0
H1799 H 0.12137 0.89449 0.81555 0.0
C1800 C 0.63294 0.43279 0.44238 0.0
C1801 C 0.6362 0.43353 0.43481 0.0
C1802 C 0.62324 0.43619 0.42933 0.0
C1803 C 0.63139 0.43528 0.42834 0.0
C1804 C 0.62006 0.43556 0.43694 0.0
C1805 C 0.62486 0.43389 0.44338 0.0
U1806 U 0.65082 0.4229 0.45188 0.0
O1807 O 0.6577 0.4263 0.46234 0.0
O1808 O 0.65137 0.41505 0.46214 0.0
C1809 C 0.65575 0.4199 0.46624 0.0
C1810 C 0.63769 0.43056 0.44927 0.0
C1811 C 0.65373 0.42076 0.47465 0.0
C1812 C 0.64502 0.42462 0.48536 0.0
C1813 C 0.64685 0.42449 0.47728 0.0
C1814 C 0.65693 0.41742 0.48817 0.0
C1815 C 0.65003 0.42103 0.49092 0.0
C1816 C 0.65875 0.41731 0.48016 0.0
C1817 C 0.66534 0.41324 0.43661 0.0
C1818 C 0.67433 0.40211 0.4373 0.0
C1819 C 0.67298 0.40947 0.42517 0.0
C1820 C 0.66762 0.41449 0.4288 0.0
C1821 C 0.67621 0.40309 0.42929 0.0
C1822 C 0.66887 0.40713 0.44094 0.0
C1823 C 0.65859 0.41779 0.43955 0.0
O1824 O 0.63798 0.42298 0.45077 0.0
O1825 O 0.64452 0.43407 0.45007 0.0
O1826 O 0.65995 0.42466 0.44281 0.0
O1827 O 0.65294 0.4138 0.44297 0.0
H1828 H 0.64242 0.43265 0.43389 0.0
H1829 H 0.63399 0.43567 0.42254 0.0
H1830 H 0.61383 0.43631 0.4379 0.0
H1831 H 0.62224 0.43334 0.44916 0.0
H1832 H 0.63968 0.42751 0.48726 0.0
H1833 H 0.64288 0.42719 0.4731 0.0
H1834 H 0.66087 0.41443 0.49218 0.0
H1835 H 0.66405 0.41435 0.47825 0.0
H1836 H 0.67674 0.39722 0.44061 0.0
H1837 H 0.67439 0.41042 0.41903 0.0
H1838 H 0.66496 0.41915 0.42536 0.0
H1839 H 0.66716 0.40606 0.44699 0.0
C1840 C 0.85418 0.36451 0.67505 0.0
C1841 C 0.85635 0.36783 0.66781 0.0
C1842 C 0.84612 0.36035 0.66111 0.0
C1843 C 0.85238 0.36576 0.66091 0.0
C1844 C 0.84422 0.35677 0.66834 0.0
C1845 C 0.84821 0.35885 0.67524 0.0
U1846 U 0.86944 0.37688 0.68551 0.0
O1847 O 0.86837 0.38514 0.6954 0.0
O1848 O 0.87627 0.37497 0.69638 0.0
C1849 C 0.87335 0.38125 0.69982 0.0
C1850 C 0.85776 0.36729 0.68244 0.0
C1851 C 0.87152 0.38078 0.70829 0.0
C1852 C 0.86335 0.37696 0.71942 0.0
C1853 C 0.86508 0.3766 0.71132 0.0
C1854 C 0.87448 0.38558 0.7214 0.0
C1855 C 0.86797 0.3816 0.72449 0.0
C1856 C 0.87625 0.38515 0.71341 0.0
C1857 C 0.88331 0.38809 0.67102 0.0
C1858 C 0.89188 0.39928 0.67335 0.0
C1859 C 0.89091 0.39362 0.6603 0.0
C1860 C 0.88564 0.38803 0.66313 0.0
C1861 C 0.89403 0.3994 0.66533 0.0
C1862 C 0.88654 0.39366 0.67617 0.0
C1863 C 0.87705 0.38264 0.67337 0.0
O1864 O 0.86493 0.36482 0.68385 0.0
O1865 O 0.85683 0.37484 0.68385 0.0
O1866 O 0.87067 0.38584 0.67629 0.0
O1867 O 0.87916 0.37613 0.67698 0.0
H1868 H 0.86099 0.37218 0.66752 0.0
H1869 H 0.85414 0.3685 0.65544 0.0
H1870 H 0.83942 0.35262 0.66874 0.0
H1871 H 0.84647 0.35621 0.68077 0.0
H1872 H 0.85828 0.37385 0.72168 0.0
H1873 H 0.86134 0.37322 0.70744 0.0
H1874 H 0.87817 0.38914 0.72519 0.0
H1875 H 0.88125 0.3884 0.71118 0.0
H1876 H 0.89423 0.40359 0.67741 0.0
H1877 H 0.89226 0.3936 0.65407 0.0
H1878 H 0.88316 0.38381 0.65905 0.0
H1879 H 0.88479 0.39379 0.6823 0.0
C1880 C 0.65491 0.63799 0.18409 0.0
C1881 C 0.65253 0.63556 0.17657 0.0
C1882 C 0.66405 0.64179 0.17074 0.0
C1883 C 0.65704 0.63747 0.16996 0.0
C1884 C 0.66618 0.64451 0.17827 0.0
C1885 C 0.66165 0.64263 0.18487 0.0
U1886 U 0.63767 0.62736 0.1933 0.0
O1887 O 0.63726 0.61826 0.20248 0.0
O1888 O 0.63092 0.62942 0.20418 0.0
C1889 C 0.63276 0.62249 0.20711 0.0
C1890 C 0.65073 0.63524 0.19117 0.0
C1891 C 0.63424 0.62194 0.21563 0.0
C1892 C 0.64173 0.62451 0.22756 0.0
C1893 C 0.64067 0.62547 0.2194 0.0
C1894 C 0.63002 0.61648 0.22811 0.0
C1895 C 0.63637 0.62002 0.23203 0.0
C1896 C 0.62896 0.61747 0.22005 0.0
C1897 C 0.62255 0.61949 0.17797 0.0
C1898 C 0.61376 0.60822 0.17848 0.0
C1899 C 0.61391 0.61669 0.16701 0.0
C1900 C 0.61954 0.62144 0.17057 0.0
C1901 C 0.61118 0.60987 0.17079 0.0
C1902 C 0.61946 0.613 0.18205 0.0
C1903 C 0.62951 0.62379 0.18071 0.0
O1904 O 0.64398 0.63868 0.19266 0.0
O1905 O 0.65047 0.62755 0.19198 0.0
O1906 O 0.63534 0.61949 0.18335 0.0
O1907 O 0.62834 0.63027 0.18477 0.0
H1908 H 0.6473 0.63201 0.17584 0.0
H1909 H 0.65508 0.63543 0.16425 0.0
H1910 H 0.67155 0.6478 0.17914 0.0
H1911 H 0.66356 0.64456 0.19063 0.0
H1912 H 0.64667 0.62735 0.23038 0.0
H1913 H 0.64484 0.62893 0.21605 0.0
H1914 H 0.62588 0.6128 0.23124 0.0
H1915 H 0.62401 0.61464 0.21723 0.0
H1916 H 0.61176 0.60299 0.18152 0.0
H1917 H 0.61194 0.61817 0.16113 0.0
H1918 H 0.62184 0.62644 0.16734 0.0
H1919 H 0.62171 0.61141 0.1878 0.0
C1920 C 0.5738 0.61153 0.89991 0.0
C1921 C 0.58126 0.61454 0.89819 0.0
C1922 C 0.58689 0.6072 0.90923 0.0
C1923 C 0.58775 0.61237 0.90278 0.0
C1924 C 0.57942 0.60397 0.91069 0.0
C1925 C 0.57296 0.60612 0.90608 0.0
U1926 U 0.56382 0.62394 0.88393 0.0
O1927 O 0.55319 0.62175 0.87683 0.0
O1928 O 0.55366 0.63183 0.88493 0.0
C1929 C 0.54942 0.62776 0.87991 0.0
C1930 C 0.56675 0.61439 0.89576 0.0
C1931 C 0.54103 0.62666 0.88185 0.0
C1932 C 0.53022 0.62547 0.8912 0.0
C1933 C 0.53831 0.62537 0.88956 0.0
C1934 C 0.52753 0.62784 0.87742 0.0
C1935 C 0.52474 0.62692 0.88516 0.0
C1936 C 0.53555 0.62773 0.8758 0.0
C1937 C 0.57889 0.6355 0.87056 0.0
C1938 C 0.57724 0.64561 0.86051 0.0
C1939 C 0.5902 0.64246 0.86543 0.0
C1940 C 0.587 0.63673 0.87032 0.0
C1941 C 0.58536 0.64711 0.86063 0.0
C1942 C 0.574 0.63985 0.86551 0.0
C1943 C 0.57596 0.63001 0.87658 0.0
O1944 O 0.56528 0.62194 0.89661 0.0
O1945 O 0.56575 0.61193 0.88849 0.0
O1946 O 0.57247 0.62352 0.87426 0.0
O1947 O 0.5728 0.63315 0.8829 0.0
H1948 H 0.58205 0.61871 0.89343 0.0
H1949 H 0.59342 0.61484 0.90132 0.0
H1950 H 0.57847 0.60004 0.91561 0.0
H1951 H 0.56724 0.60374 0.9075 0.0
H1952 H 0.52829 0.62474 0.89722 0.0
H1953 H 0.54244 0.62454 0.89434 0.0
H1954 H 0.5235 0.6288 0.87259 0.0
H1955 H 0.5375 0.62873 0.86981 0.0
H1956 H 0.5734 0.64913 0.85685 0.0
H1957 H 0.59647 0.64344 0.86558 0.0
H1958 H 0.59087 0.63342 0.87415 0.0
H1959 H 0.56771 0.63896 0.86561 0.0
C1960 C 0.63596 0.34091 0.15109 0.0
C1961 C 0.63382 0.34859 0.14888 0.0
C1962 C 0.63942 0.3537 0.16103 0.0
C1963 C 0.63559 0.35497 0.15381 0.0
C1964 C 0.64181 0.34605 0.16302 0.0
C1965 C 0.64011 0.33972 0.15809 0.0
U1966 U 0.62354 0.33147 0.13499 0.0
O1967 O 0.62586 0.32132 0.12723 0.0
O1968 O 0.61598 0.32106 0.13555 0.0
C1969 C 0.62008 0.31719 0.13027 0.0
C1970 C 0.63331 0.334 0.14662 0.0
C1971 C 0.62162 0.30884 0.13197 0.0
C1972 C 0.62377 0.29801 0.1411 0.0
C1973 C 0.62351 0.30612 0.13955 0.0
C1974 C 0.62062 0.29535 0.12746 0.0
C1975 C 0.62209 0.29255 0.1351 0.0
C1976 C 0.62038 0.3034 0.12592 0.0
C1977 C 0.61076 0.34577 0.12257 0.0
C1978 C 0.59801 0.34386 0.11645 0.0
C1979 C 0.60487 0.35626 0.11496 0.0
C1980 C 0.61112 0.35333 0.11933 0.0
C1981 C 0.59813 0.35167 0.11374 0.0
C1982 C 0.6043 0.34092 0.12088 0.0
C1983 C 0.61669 0.34364 0.12847 0.0
O1984 O 0.6259 0.33216 0.14766 0.0
O1985 O 0.63557 0.33357 0.13924 0.0
O1986 O 0.62334 0.34072 0.12587 0.0
O1987 O 0.61406 0.34017 0.13486 0.0
H1988 H 0.63055 0.34961 0.14351 0.0
H1989 H 0.63364 0.36081 0.15218 0.0
H1990 H 0.64482 0.34493 0.16853 0.0
H1991 H 0.64179 0.33384 0.15988 0.0
H1992 H 0.62494 0.29603 0.14705 0.0
H1993 H 0.6245 0.31025 0.1443 0.0
H1994 H 0.61949 0.2913 0.12266 0.0
H1995 H 0.61894 0.30538 0.12004 0.0
H1996 H 0.59287 0.34022 0.11559 0.0
H1997 H 0.60513 0.36227 0.11285 0.0
H1998 H 0.61606 0.35714 0.12055 0.0
H1999 H 0.60393 0.33504 0.12334 0.0
C2000 C 0.94466 0.37196 0.43059 0.0
C2001 C 0.93799 0.37201 0.42574 0.0
C2002 C 0.93154 0.38133 0.43452 0.0
C2003 C 0.93151 0.37668 0.42767 0.0
C2004 C 0.93812 0.38104 0.4395 0.0
C2005 C 0.94463 0.37642 0.43753 0.0
U2006 U 0.95419 0.35525 0.41924 0.0
O2007 O 0.9647 0.35499 0.41177 0.0
O2008 O 0.96398 0.34724 0.42211 0.0
C2009 C 0.9682 0.34961 0.41608 0.0
C2010 C 0.95174 0.36749 0.42833 0.0
C2011 C 0.97672 0.35049 0.41722 0.0
C2012 C 0.98838 0.35802 0.42066 0.0
C2013 C 0.98017 0.35725 0.42047 0.0
C2014 C 0.98969 0.34524 0.41452 0.0
C2015 C 0.99325 0.35205 0.41758 0.0
C2016 C 0.98155 0.34447 0.41437 0.0
C2017 C 0.93931 0.34245 0.40736 0.0
C2018 C 0.94079 0.33501 0.39521 0.0
C2019 C 0.92855 0.33449 0.40245 0.0
C2020 C 0.93168 0.33949 0.40815 0.0
C2021 C 0.93302 0.33236 0.39587 0.0
C2022 C 0.94394 0.34002 0.40095 0.0
C2023 C 0.94181 0.3487 0.4128 0.0
O2024 O 0.95222 0.36027 0.43106 0.0
O2025 O 0.95375 0.36805 0.42088 0.0
O2026 O 0.94557 0.35468 0.40968 0.0
O2027 O 0.94463 0.3465 0.41965 0.0
H2028 H 0.93785 0.36854 0.4204 0.0
H2029 H 0.92648 0.37667 0.42378 0.0
H2030 H 0.93832 0.38458 0.4448 0.0
H2031 H 0.94971 0.37644 0.44136 0.0
H2032 H 0.9909 0.36332 0.42314 0.0
H2033 H 0.97652 0.36198 0.4227 0.0
H2034 H 0.99318 0.34058 0.41194 0.0
H2035 H 0.97901 0.33923 0.41178 0.0
H2036 H 0.94427 0.33348 0.3901 0.0
H2037 H 0.92252 0.33258 0.40299 0.0
H2038 H 0.92801 0.34134 0.41301 0.0
H2039 H 0.94984 0.34226 0.40022 0.0
C2040 C 0.86687 0.67457 0.65979 0.0
C2041 C 0.86904 0.66688 0.65764 0.0
C2042 C 0.86312 0.66176 0.66965 0.0
C2043 C 0.86714 0.66051 0.66252 0.0
C2044 C 0.86072 0.66943 0.67159 0.0
C2045 C 0.86259 0.67577 0.66671 0.0
U2046 U 0.87918 0.6836 0.64342 0.0
O2047 O 0.87691 0.6937 0.63561 0.0
O2048 O 0.88702 0.69385 0.64363 0.0
C2049 C 0.8829 0.69772 0.63837 0.0
C2050 C 0.86955 0.68144 0.65526 0.0
C2051 C 0.88171 0.70614 0.63997 0.0
C2052 C 0.87469 0.71718 0.64579 0.0
C2053 C 0.87535 0.70906 0.64435 0.0
C2054 C 0.88673 0.71941 0.63855 0.0
C2055 C 0.88045 0.72241 0.64297 0.0
C2056 C 0.88733 0.71138 0.63706 0.0
C2057 C 0.89152 0.6687 0.63123 0.0
C2058 C 0.90183 0.67142 0.62171 0.0
C2059 C 0.8988 0.65797 0.62536 0.0
C2060 C 0.89296 0.66065 0.63041 0.0
C2061 C 0.90335 0.66331 0.62098 0.0
C2062 C 0.89593 0.67411 0.62681 0.0
C2063 C 0.88572 0.67113 0.63713 0.0
O2064 O 0.877 0.68316 0.65615 0.0
O2065 O 0.86718 0.68185 0.64791 0.0
O2066 O 0.87913 0.67418 0.63452 0.0
O2067 O 0.88853 0.67474 0.64335 0.0
H2068 H 0.87239 0.66585 0.65232 0.0
H2069 H 0.86913 0.65468 0.66089 0.0
H2070 H 0.85752 0.67057 0.67698 0.0
H2071 H 0.86088 0.68166 0.66845 0.0
H2072 H 0.86979 0.71936 0.64921 0.0
H2073 H 0.87096 0.70508 0.64667 0.0
H2074 H 0.89117 0.72331 0.63619 0.0
H2075 H 0.89226 0.70924 0.63364 0.0
H2076 H 0.90523 0.67567 0.6184 0.0
H2077 H 0.89992 0.6517 0.62508 0.0
H2078 H 0.88967 0.6564 0.63384 0.0
H2079 H 0.8949 0.68038 0.62742 0.0
C2080 C 0.57386 0.39367 0.60505 0.0
C2081 C 0.58137 0.3909 0.60697 0.0
C2082 C 0.58698 0.39799 0.59575 0.0
C2083 C 0.58787 0.39307 0.6024 0.0
C2084 C 0.57946 0.40097 0.59408 0.0
C2085 C 0.57299 0.39883 0.59868 0.0
U2086 U 0.56387 0.38132 0.6211 0.0
O2087 O 0.55319 0.38351 0.62814 0.0
O2088 O 0.55374 0.37338 0.62011 0.0
C2089 C 0.54948 0.37743 0.62513 0.0
C2090 C 0.56681 0.39081 0.60922 0.0
C2091 C 0.54106 0.37836 0.62327 0.0
C2092 C 0.53021 0.38058 0.61418 0.0
C2093 C 0.5383 0.3807 0.61583 0.0
C2094 C 0.52762 0.37604 0.62742 0.0
C2095 C 0.52478 0.37805 0.61991 0.0
C2096 C 0.53564 0.37617 0.62906 0.0
C2097 C 0.57875 0.36976 0.63461 0.0
C2098 C 0.57678 0.35995 0.6449 0.0
C2099 C 0.58981 0.36243 0.63978 0.0
C2100 C 0.5868 0.36818 0.63479 0.0
C2101 C 0.58483 0.35812 0.64474 0.0
C2102 C 0.57373 0.36573 0.63979 0.0
C2103 C 0.57597 0.37528 0.62853 0.0
O2104 O 0.56537 0.38326 0.60841 0.0
O2105 O 0.5658 0.39331 0.61647 0.0
O2106 O 0.57246 0.38177 0.63081 0.0
O2107 O 0.57288 0.37214 0.62218 0.0
H2108 H 0.58219 0.38693 0.61189 0.0
H2109 H 0.59357 0.3908 0.60402 0.0
H2110 H 0.57848 0.4047 0.58901 0.0
H2111 H 0.56723 0.40102 0.5971 0.0
H2112 H 0.52825 0.38217 0.60833 0.0
H2113 H 0.5424 0.3824 0.61127 0.0
H2114 H 0.52365 0.37425 0.63206 0.0
H2115 H 0.53763 0.37436 0.63484 0.0
H2116 H 0.57283 0.35669 0.64867 0.0
H2117 H 0.59604 0.36119 0.6396 0.0
H2118 H 0.59076 0.37125 0.63086 0.0
H2119 H 0.56748 0.36688 0.63973 0.0
C2120 C 0.86707 0.33055 0.84538 0.0
C2121 C 0.86791 0.33818 0.84844 0.0
C2122 C 0.86342 0.34379 0.836 0.0
C2123 C 0.86606 0.34474 0.84381 0.0
C2124 C 0.86244 0.33611 0.83306 0.0
C2125 C 0.86423 0.32957 0.83771 0.0
U2126 U 0.87902 0.32123 0.86182 0.0
O2127 O 0.87657 0.31122 0.8697 0.0
O2128 O 0.88664 0.31082 0.86163 0.0
C2129 C 0.88244 0.30705 0.86691 0.0
C2130 C 0.86961 0.32358 0.84985 0.0
C2131 C 0.88091 0.2987 0.8653 0.0
C2132 C 0.87747 0.28792 0.85653 0.0
C2133 C 0.87816 0.29602 0.85798 0.0
C2134 C 0.88199 0.28519 0.86978 0.0
C2135 C 0.87944 0.28247 0.86243 0.0
C2136 C 0.88275 0.29323 0.87119 0.0
C2137 C 0.89126 0.33582 0.87442 0.0
C2138 C 0.90306 0.33333 0.88208 0.0
C2139 C 0.89784 0.34656 0.88103 0.0
C2140 C 0.89166 0.34378 0.87647 0.0
C2141 C 0.90374 0.34142 0.88364 0.0
C2142 C 0.89685 0.33053 0.87743 0.0
C2143 C 0.88554 0.33356 0.86838 0.0
O2144 O 0.87706 0.3218 0.84905 0.0
O2145 O 0.86712 0.32308 0.85716 0.0
O2146 O 0.87885 0.3306 0.8708 0.0
O2147 O 0.88842 0.33 0.86215 0.0
H2148 H 0.87014 0.33906 0.85434 0.0
H2149 H 0.86678 0.35055 0.84632 0.0
H2150 H 0.86057 0.33511 0.82706 0.0
H2151 H 0.86361 0.32373 0.83524 0.0
H2152 H 0.87546 0.28591 0.85083 0.0
H2153 H 0.87671 0.30017 0.85336 0.0
H2154 H 0.88357 0.28106 0.87438 0.0
H2155 H 0.88492 0.29519 0.87685 0.0
H2156 H 0.90756 0.32927 0.88401 0.0
H2157 H 0.89822 0.35281 0.88221 0.0
H2158 H 0.8874 0.34793 0.8742 0.0
H2159 H 0.89661 0.32435 0.87588 0.0
C2160 C 0.94192 0.63379 0.07439 0.0
C2161 C 0.93444 0.63599 0.07701 0.0
C2162 C 0.9288 0.62444 0.07055 0.0
C2163 C 0.92791 0.63136 0.07507 0.0
C2164 C 0.93634 0.62238 0.06793 0.0
C2165 C 0.9428 0.62703 0.06979 0.0
U2166 U 0.95527 0.64945 0.08491 0.0
O2167 O 0.9668 0.64621 0.08987 0.0
O2168 O 0.96598 0.65482 0.08 0.0
C2169 C 0.97045 0.65086 0.08489 0.0
C2170 C 0.94906 0.63803 0.0766 0.0
C2171 C 0.97901 0.65169 0.08489 0.0
C2172 C 0.99188 0.64567 0.08435 0.0
C2173 C 0.98374 0.64506 0.08377 0.0
C2174 C 0.99064 0.65961 0.08711 0.0
C2175 C 0.99543 0.65292 0.08616 0.0
C2176 C 0.98248 0.659 0.08644 0.0
C2177 C 0.94224 0.66389 0.09889 0.0
C2178 C 0.94013 0.66957 0.11184 0.0
C2179 C 0.93115 0.67254 0.1012 0.0
C2180 C 0.9356 0.66788 0.09611 0.0
C2181 C 0.93333 0.67339 0.10914 0.0
C2182 C 0.94451 0.66482 0.10677 0.0
C2183 C 0.94677 0.65872 0.09364 0.0
O2184 O 0.95004 0.64519 0.07383 0.0
O2185 O 0.95141 0.63718 0.08391 0.0
O2186 O 0.94975 0.65209 0.09627 0.0
O2187 O 0.94821 0.66037 0.08622 0.0
H2188 H 0.93367 0.64121 0.08059 0.0
H2189 H 0.92219 0.63321 0.07711 0.0
H2190 H 0.93734 0.61703 0.06461 0.0
H2191 H 0.94855 0.62522 0.06778 0.0
H2192 H 0.99537 0.64038 0.08369 0.0
H2193 H 0.98113 0.63937 0.08258 0.0
H2194 H 0.99319 0.66529 0.08844 0.0
H2195 H 0.97889 0.66418 0.08734 0.0
H2196 H 0.94192 0.67004 0.11794 0.0
H2197 H 0.92598 0.67547 0.09894 0.0
H2198 H 0.93377 0.66725 0.09003 0.0
H2199 H 0.94966 0.66184 0.10902 0.0
C2200 C 0.6358 0.66432 0.35374 0.0
C2201 C 0.63379 0.65659 0.35591 0.0
C2202 C 0.63953 0.65162 0.34375 0.0
C2203 C 0.63569 0.65027 0.35095 0.0
C2204 C 0.6418 0.65934 0.34181 0.0
C2205 C 0.63994 0.66562 0.34676 0.0
U2206 U 0.6231 0.67348 0.36979 0.0
O2207 O 0.62535 0.68346 0.37779 0.0
O2208 O 0.61562 0.68396 0.36931 0.0
C2209 C 0.61968 0.68771 0.3747 0.0
C2210 C 0.63308 0.67116 0.35828 0.0
C2211 C 0.62139 0.69606 0.37309 0.0
C2212 C 0.62363 0.70695 0.36406 0.0
C2213 C 0.62324 0.69883 0.36552 0.0
C2214 C 0.62072 0.70952 0.37777 0.0
C2215 C 0.62213 0.71238 0.37014 0.0
C2216 C 0.62034 0.70145 0.37922 0.0
C2217 C 0.61016 0.65874 0.38161 0.0
C2218 C 0.59955 0.66151 0.39076 0.0
C2219 C 0.6027 0.64804 0.3873 0.0
C2220 C 0.60871 0.65069 0.38244 0.0
C2221 C 0.59799 0.6534 0.39147 0.0
C2222 C 0.60562 0.66417 0.38585 0.0
C2223 C 0.61612 0.66113 0.37586 0.0
O2224 O 0.62569 0.67302 0.35715 0.0
O2225 O 0.63519 0.67144 0.36571 0.0
O2226 O 0.62271 0.66402 0.37865 0.0
O2227 O 0.61354 0.66484 0.3696 0.0
H2228 H 0.63055 0.65549 0.36128 0.0
H2229 H 0.63383 0.6444 0.35258 0.0
H2230 H 0.64487 0.66055 0.33636 0.0
H2231 H 0.64153 0.67153 0.345 0.0
H2232 H 0.62474 0.70897 0.35811 0.0
H2233 H 0.62409 0.69474 0.3607 0.0
H2234 H 0.61972 0.71353 0.38262 0.0
H2235 H 0.61894 0.69943 0.3851 0.0
H2236 H 0.59604 0.66578 0.39392 0.0
H2237 H 0.60157 0.64177 0.38755 0.0
H2238 H 0.61212 0.64643 0.37915 0.0
H2239 H 0.60666 0.67043 0.38524 0.0
C2240 C 0.94357 0.55819 0.6486 0.0
C2241 C 0.94241 0.56555 0.65214 0.0
C2242 C 0.9483 0.57204 0.64076 0.0
C2243 C 0.9448 0.57242 0.64827 0.0
C2244 C 0.94957 0.5646 0.63735 0.0
C2245 C 0.94724 0.55775 0.64125 0.0
U2246 U 0.93109 0.54733 0.66381 0.0
O2247 O 0.92317 0.53728 0.66223 0.0
O2248 O 0.93339 0.53616 0.67001 0.0
C2249 C 0.92742 0.5326 0.66667 0.0
C2250 C 0.94064 0.55092 0.65224 0.0
C2251 C 0.92883 0.52471 0.66339 0.0
C2252 C 0.93414 0.51599 0.65335 0.0
C2253 C 0.93378 0.52345 0.6569 0.0
C2254 C 0.92481 0.51103 0.6629 0.0
C2255 C 0.92948 0.50979 0.65622 0.0
C2256 C 0.92452 0.51841 0.66647 0.0
C2257 C 0.91905 0.56052 0.67825 0.0
C2258 C 0.90592 0.55953 0.68376 0.0
C2259 C 0.91474 0.56972 0.6883 0.0
C2260 C 0.92055 0.56691 0.68324 0.0
C2261 C 0.90728 0.56622 0.68845 0.0
C2262 C 0.91176 0.55669 0.6787 0.0
C2263 C 0.92476 0.55881 0.67197 0.0
O2264 O 0.94306 0.54947 0.65945 0.0
O2265 O 0.93312 0.5496 0.65124 0.0
O2266 O 0.9219 0.55621 0.66528 0.0
O2267 O 0.93138 0.55539 0.67401 0.0
H2268 H 0.93956 0.566 0.65782 0.0
H2269 H 0.94383 0.57803 0.65113 0.0
H2270 H 0.95212 0.56405 0.63154 0.0
H2271 H 0.94813 0.55211 0.63842 0.0
H2272 H 0.93773 0.51516 0.64815 0.0
H2273 H 0.93712 0.52827 0.65442 0.0
H2274 H 0.92116 0.50634 0.66519 0.0
H2275 H 0.92066 0.51929 0.67146 0.0
H2276 H 0.90025 0.55665 0.68381 0.0
H2277 H 0.91597 0.57494 0.69174 0.0
H2278 H 0.92611 0.56998 0.68294 0.0
H2279 H 0.91047 0.55174 0.67491 0.0
C2280 C 0.69451 0.68062 0.88313 0.0
C2281 C 0.68789 0.67572 0.88292 0.0
C2282 C 0.68144 0.68463 0.87372 0.0
C2283 C 0.68144 0.67768 0.87823 0.0
C2284 C 0.68797 0.68967 0.87417 0.0
C2285 C 0.69446 0.68766 0.87881 0.0
U2286 U 0.70405 0.66921 0.89981 0.0
O2287 O 0.71458 0.66176 0.90002 0.0
O2288 O 0.71384 0.67206 0.90781 0.0
C2289 C 0.71808 0.66606 0.90539 0.0
C2290 C 0.70159 0.67834 0.8876 0.0
C2291 C 0.72659 0.66728 0.90447 0.0
C2292 C 0.7382 0.67031 0.89668 0.0
C2293 C 0.72999 0.6701 0.89749 0.0
C2294 C 0.7396 0.66504 0.90984 0.0
C2295 C 0.74311 0.66766 0.90282 0.0
C2296 C 0.73146 0.66488 0.91065 0.0
C2297 C 0.68943 0.6572 0.91269 0.0
C2298 C 0.69068 0.64463 0.91942 0.0
C2299 C 0.67917 0.65273 0.92155 0.0
C2300 C 0.68221 0.65841 0.91645 0.0
C2301 C 0.68329 0.64572 0.92291 0.0
C2302 C 0.69377 0.65038 0.91438 0.0
C2303 C 0.69174 0.66269 0.9064 0.0
O2304 O 0.70206 0.68104 0.89483 0.0
O2305 O 0.7036 0.67089 0.88701 0.0
O2306 O 0.69544 0.65965 0.90034 0.0
O2307 O 0.69452 0.66956 0.90859 0.0
H2308 H 0.68776 0.6703 0.88628 0.0
H2309 H 0.67645 0.67374 0.87811 0.0
H2310 H 0.68815 0.69504 0.87075 0.0
H2311 H 0.6995 0.69153 0.87892 0.0
H2312 H 0.74068 0.67245 0.89122 0.0
H2313 H 0.72633 0.67197 0.89263 0.0
H2314 H 0.74311 0.6628 0.91465 0.0
H2315 H 0.72895 0.66262 0.91605 0.0
H2316 H 0.69392 0.63924 0.9204 0.0
H2317 H 0.67342 0.65363 0.9241 0.0
H2318 H 0.67874 0.6636 0.91516 0.0
H2319 H 0.69936 0.64933 0.91155 0.0
C2320 C 0.55523 0.45387 0.14649 0.0
C2321 C 0.55959 0.44689 0.14698 0.0
C2322 C 0.55039 0.44035 0.13815 0.0
C2323 C 0.55722 0.44021 0.14282 0.0
C2324 C 0.54591 0.44731 0.13792 0.0
C2325 C 0.54833 0.454 0.14204 0.0
U2326 U 0.56779 0.46475 0.16159 0.0
O2327 O 0.57535 0.47507 0.16015 0.0
O2328 O 0.56527 0.47567 0.16818 0.0
C2329 C 0.57096 0.47954 0.16467 0.0
C2330 C 0.55801 0.46116 0.15023 0.0
C2331 C 0.56897 0.4873 0.16136 0.0
C2332 C 0.5665 0.49571 0.15005 0.0
C2333 C 0.5671 0.48819 0.15336 0.0
C2334 C 0.56904 0.50153 0.16282 0.0
C2335 C 0.56769 0.50245 0.15471 0.0
C2336 C 0.56971 0.49401 0.1661 0.0
C2337 C 0.58061 0.45151 0.1753 0.0
C2338 C 0.59379 0.45285 0.18059 0.0
C2339 C 0.58553 0.44206 0.18481 0.0
C2340 C 0.5795 0.44484 0.18001 0.0
C2341 C 0.59283 0.4459 0.18499 0.0
C2342 C 0.58772 0.45565 0.17578 0.0
C2343 C 0.57468 0.45325 0.16924 0.0
O2344 O 0.55575 0.46231 0.15754 0.0
O2345 O 0.56543 0.46283 0.14905 0.0
O2346 O 0.57729 0.45613 0.16255 0.0
O2347 O 0.56804 0.45641 0.17157 0.0
H2348 H 0.56494 0.44667 0.15041 0.0
H2349 H 0.5609 0.43502 0.14307 0.0
H2350 H 0.54055 0.44761 0.13452 0.0
H2351 H 0.54487 0.45934 0.14163 0.0
H2352 H 0.56537 0.49626 0.14381 0.0
H2353 H 0.56645 0.48308 0.1496 0.0
H2354 H 0.57003 0.5066 0.16654 0.0
H2355 H 0.57115 0.49343 0.17229 0.0
H2356 H 0.59931 0.456 0.18067 0.0
H2357 H 0.58461 0.43663 0.18802 0.0
H2358 H 0.57408 0.44153 0.17968 0.0
H2359 H 0.58871 0.46082 0.17219 0.0
C2360 C 0.82386 0.35504 0.36164 0.0
C2361 C 0.83127 0.35642 0.36495 0.0
C2362 C 0.83688 0.34568 0.35719 0.0
C2363 C 0.83771 0.3518 0.36273 0.0
C2364 C 0.82951 0.34461 0.35361 0.0
C2365 C 0.82308 0.34924 0.35582 0.0
U2366 U 0.81392 0.37108 0.374 0.0
O2367 O 0.803 0.37774 0.37201 0.0
O2368 O 0.80412 0.37008 0.38238 0.0
C2369 C 0.7996 0.37486 0.37834 0.0
C2370 C 0.81681 0.35912 0.36461 0.0
C2371 C 0.79119 0.3728 0.37789 0.0
C2372 C 0.77974 0.3669 0.37162 0.0
C2373 C 0.78787 0.36838 0.37174 0.0
C2374 C 0.7783 0.37412 0.38381 0.0
C2375 C 0.77483 0.36987 0.37762 0.0
C2376 C 0.78634 0.37558 0.38392 0.0
C2377 C 0.82893 0.38494 0.385 0.0
C2378 C 0.82742 0.39395 0.39607 0.0
C2379 C 0.84035 0.39096 0.39101 0.0
C2380 C 0.83704 0.38613 0.38528 0.0
C2381 C 0.83562 0.39473 0.39663 0.0
C2382 C 0.82408 0.38902 0.39031 0.0
C2383 C 0.82606 0.37878 0.37963 0.0
O2384 O 0.81556 0.35839 0.3722 0.0
O2385 O 0.81561 0.36631 0.36203 0.0
O2386 O 0.82233 0.38094 0.37321 0.0
O2387 O 0.82316 0.37241 0.3829 0.0
H2388 H 0.83202 0.3609 0.36942 0.0
H2389 H 0.84332 0.35296 0.36547 0.0
H2390 H 0.82859 0.33995 0.34937 0.0
H2391 H 0.81741 0.3481 0.35319 0.0
H2392 H 0.77728 0.36361 0.36676 0.0
H2393 H 0.79153 0.36615 0.36703 0.0
H2394 H 0.77479 0.37633 0.38865 0.0
H2395 H 0.78878 0.37896 0.38874 0.0
H2396 H 0.82364 0.3968 0.40033 0.0
H2397 H 0.84667 0.39152 0.39122 0.0
H2398 H 0.84089 0.38305 0.38124 0.0
H2399 H 0.81779 0.38816 0.39019 0.0
C2400 C 0.94335 0.44644 0.85638 0.0
C2401 C 0.93887 0.43953 0.85593 0.0
C2402 C 0.94825 0.4327 0.86435 0.0
C2403 C 0.94126 0.43275 0.85991 0.0
C2404 C 0.95285 0.43957 0.86452 0.0
C2405 C 0.95041 0.44638 0.86059 0.0
U2406 U 0.93099 0.45763 0.84139 0.0
O2407 O 0.92315 0.46773 0.84303 0.0
O2408 O 0.93335 0.4688 0.83522 0.0
C2409 C 0.92741 0.4724 0.8386 0.0
C2410 C 0.94056 0.45383 0.85286 0.0
C2411 C 0.9289 0.48026 0.84191 0.0
C2412 C 0.93419 0.48885 0.85207 0.0
C2413 C 0.93375 0.48141 0.8485 0.0
C2414 C 0.92514 0.49401 0.84237 0.0
C2415 C 0.92972 0.49514 0.84912 0.0
C2416 C 0.92476 0.48664 0.83878 0.0
C2417 C 0.91886 0.44453 0.82691 0.0
C2418 C 0.90572 0.44551 0.82141 0.0
C2419 C 0.91458 0.43536 0.81683 0.0
C2420 C 0.92038 0.43817 0.82188 0.0
C2421 C 0.9071 0.43884 0.81669 0.0
C2422 C 0.91156 0.44834 0.82648 0.0
C2423 C 0.92457 0.44623 0.83319 0.0
O2424 O 0.94298 0.45532 0.84567 0.0
O2425 O 0.93307 0.45535 0.85392 0.0
O2426 O 0.92172 0.44882 0.83989 0.0
O2427 O 0.9312 0.44962 0.83115 0.0
H2428 H 0.9334 0.43945 0.85268 0.0
H2429 H 0.93749 0.42763 0.85971 0.0
H2430 H 0.95833 0.43973 0.86773 0.0
H2431 H 0.95397 0.45164 0.86096 0.0
H2432 H 0.93769 0.48959 0.85734 0.0
H2433 H 0.93695 0.47651 0.85103 0.0
H2434 H 0.92162 0.49878 0.84004 0.0
H2435 H 0.92097 0.48585 0.83372 0.0
H2436 H 0.90005 0.44838 0.82137 0.0
H2437 H 0.91583 0.43015 0.81336 0.0
H2438 H 0.92595 0.43511 0.82217 0.0
H2439 H 0.91025 0.45327 0.8303 0.0
C2440 C 0.82642 0.64915 0.14412 0.0
C2441 C 0.83373 0.64805 0.14052 0.0
C2442 C 0.83926 0.65867 0.1485 0.0
C2443 C 0.84012 0.65274 0.14274 0.0
C2444 C 0.83197 0.65945 0.15229 0.0
C2445 C 0.82565 0.65472 0.15013 0.0
U2446 U 0.81353 0.63411 0.13227 0.0
O2447 O 0.80207 0.62957 0.13636 0.0
O2448 O 0.80275 0.63748 0.12593 0.0
C2449 C 0.79832 0.6336 0.13091 0.0
C2450 C 0.81927 0.64527 0.14128 0.0
C2451 C 0.78972 0.63331 0.13013 0.0
C2452 C 0.77687 0.63594 0.13574 0.0
C2453 C 0.78497 0.635 0.13665 0.0
C2454 C 0.77813 0.63317 0.12182 0.0
C2455 C 0.77336 0.63508 0.12831 0.0
C2456 C 0.78625 0.63239 0.1227 0.0
C2457 C 0.82671 0.61901 0.11936 0.0
C2458 C 0.82623 0.60996 0.10824 0.0
C2459 C 0.83871 0.61345 0.11408 0.0
C2460 C 0.83486 0.61816 0.11957 0.0
C2461 C 0.83449 0.60947 0.10819 0.0
C2462 C 0.82236 0.61476 0.11377 0.0
C2463 C 0.82323 0.62494 0.12463 0.0
O2464 O 0.81756 0.64626 0.13381 0.0
O2465 O 0.81777 0.63813 0.14386 0.0
O2466 O 0.82028 0.62298 0.13152 0.0
O2467 O 0.82055 0.63157 0.1217 0.0
H2468 H 0.83444 0.64375 0.13586 0.0
H2469 H 0.84569 0.65181 0.13982 0.0
H2470 H 0.831 0.66397 0.15667 0.0
H2471 H 0.82002 0.65566 0.15294 0.0
H2472 H 0.77335 0.63736 0.14086 0.0
H2473 H 0.78756 0.63588 0.1424 0.0
H2474 H 0.77561 0.63253 0.116 0.0
H2475 H 0.78983 0.6312 0.11757 0.0
H2476 H 0.82282 0.60696 0.10379 0.0
H2477 H 0.84504 0.61309 0.11433 0.0
H2478 H 0.83832 0.62138 0.12384 0.0
H2479 H 0.81604 0.61535 0.11352 0.0
C2480 C 0.55485 0.55096 0.35844 0.0
C2481 C 0.55781 0.5583 0.35613 0.0
C2482 C 0.5506 0.56469 0.36677 0.0
C2483 C 0.55567 0.56512 0.36023 0.0
C2484 C 0.54746 0.55732 0.36887 0.0
C2485 C 0.54956 0.55053 0.36472 0.0
U2486 U 0.56745 0.5402 0.34338 0.0
O2487 O 0.57509 0.52992 0.34483 0.0
O2488 O 0.56512 0.52933 0.33667 0.0
C2489 C 0.57092 0.52552 0.34004 0.0
C2490 C 0.5576 0.54366 0.35472 0.0
C2491 C 0.56931 0.51749 0.34285 0.0
C2492 C 0.56429 0.50837 0.35269 0.0
C2493 C 0.56472 0.51601 0.34956 0.0
C2494 C 0.57281 0.50367 0.34228 0.0
C2495 C 0.56852 0.50221 0.34917 0.0
C2496 C 0.57317 0.51124 0.33914 0.0
C2497 C 0.58025 0.55361 0.32984 0.0
C2498 C 0.59343 0.55223 0.32453 0.0
C2499 C 0.58523 0.56313 0.32043 0.0
C2500 C 0.57918 0.56034 0.32521 0.0
C2501 C 0.5925 0.55924 0.3202 0.0
C2502 C 0.58734 0.54943 0.32932 0.0
C2503 C 0.5743 0.55182 0.33587 0.0
O2504 O 0.55539 0.54252 0.3474 0.0
O2505 O 0.56503 0.54203 0.35593 0.0
O2506 O 0.57689 0.5489 0.34254 0.0
O2507 O 0.56769 0.54864 0.33349 0.0
H2508 H 0.5619 0.55874 0.35126 0.0
H2509 H 0.55808 0.57069 0.35832 0.0
H2510 H 0.54363 0.5567 0.37391 0.0
H2511 H 0.54724 0.5449 0.36659 0.0
H2512 H 0.56103 0.50736 0.35806 0.0
H2513 H 0.56174 0.52079 0.35254 0.0
H2514 H 0.57614 0.499 0.33951 0.0
H2515 H 0.57676 0.51228 0.33398 0.0
H2516 H 0.59893 0.54905 0.32441 0.0
H2517 H 0.58434 0.56859 0.31727 0.0
H2518 H 0.57378 0.56368 0.32558 0.0
H2519 H 0.58829 0.5442 0.33284 0.0
C2520 C 0.69174 0.32333 0.62108 0.0
C2521 C 0.68533 0.3285 0.62145 0.0
C2522 C 0.67883 0.31977 0.63077 0.0
C2523 C 0.67893 0.32674 0.62628 0.0
C2524 C 0.6851 0.31446 0.63008 0.0
C2525 C 0.69151 0.31625 0.62528 0.0
U2526 U 0.70432 0.33471 0.6059 0.0
O2527 O 0.71555 0.34046 0.60856 0.0
O2528 O 0.71511 0.33074 0.59977 0.0
C2529 C 0.71936 0.33595 0.60357 0.0
C2530 C 0.6991 0.32556 0.61718 0.0
C2531 C 0.72795 0.33631 0.60302 0.0
C2532 C 0.74088 0.33523 0.6089 0.0
C2533 C 0.73272 0.33464 0.60953 0.0
C2534 C 0.73956 0.33914 0.59525 0.0
C2535 C 0.7444 0.33759 0.60178 0.0
C2536 C 0.73141 0.33845 0.59587 0.0
C2537 C 0.69106 0.3481 0.59166 0.0
C2538 C 0.69222 0.35995 0.58369 0.0
C2539 C 0.67964 0.35344 0.585 0.0
C2540 C 0.68308 0.34771 0.58973 0.0
C2541 C 0.68414 0.35967 0.58204 0.0
C2542 C 0.69568 0.35419 0.58851 0.0
C2543 C 0.69392 0.34253 0.59765 0.0
O2544 O 0.70017 0.32307 0.60994 0.0
O2545 O 0.70135 0.33287 0.61828 0.0
O2546 O 0.69721 0.34534 0.60405 0.0
O2547 O 0.69659 0.33561 0.59547 0.0
H2548 H 0.6854 0.33401 0.61824 0.0
H2549 H 0.67411 0.33088 0.62661 0.0
H2550 H 0.68522 0.30909 0.6335 0.0
H2551 H 0.69643 0.31222 0.6251 0.0
H2552 H 0.74441 0.33409 0.61407 0.0
H2553 H 0.73014 0.33294 0.6151 0.0
H2554 H 0.74207 0.34089 0.58966 0.0
H2555 H 0.7278 0.33973 0.59078 0.0
H2556 H 0.69575 0.36477 0.5815 0.0
H2557 H 0.6734 0.35318 0.58386 0.0
H2558 H 0.67941 0.34311 0.59217 0.0
H2559 H 0.70184 0.35462 0.58999 0.0
C2560 C 0.61682 0.90944 0.58081 0.0
C2561 C 0.6197 0.90734 0.58825 0.0
C2562 C 0.61352 0.91893 0.59404 0.0
C2563 C 0.61802 0.91202 0.59482 0.0
C2564 C 0.61042 0.92081 0.5866 0.0
C2565 C 0.61206 0.9161 0.58005 0.0
U2566 U 0.6289 0.8933 0.57135 0.0
O2567 O 0.62656 0.88533 0.56138 0.0
O2568 O 0.63648 0.89359 0.56092 0.0
C2569 C 0.63234 0.88825 0.55718 0.0
C2570 C 0.61927 0.9051 0.57374 0.0
C2571 C 0.63072 0.88979 0.54881 0.0
C2572 C 0.62873 0.89866 0.53775 0.0
C2573 C 0.62938 0.89741 0.54588 0.0
C2574 C 0.63048 0.88469 0.53549 0.0
C2575 C 0.62935 0.89231 0.53248 0.0
C2576 C 0.63117 0.88346 0.54356 0.0
C2577 C 0.64134 0.881 0.58604 0.0
C2578 C 0.65266 0.87272 0.58332 0.0
C2579 C 0.64856 0.87509 0.59677 0.0
C2580 C 0.64233 0.87963 0.59409 0.0
C2581 C 0.65392 0.8718 0.59144 0.0
C2582 C 0.6464 0.87736 0.58061 0.0
C2583 C 0.63553 0.88691 0.58371 0.0
O2584 O 0.62669 0.90602 0.57185 0.0
O2585 O 0.61691 0.89775 0.57327 0.0
O2586 O 0.6289 0.88435 0.58074 0.0
O2587 O 0.63832 0.89315 0.58011 0.0
H2588 H 0.62339 0.9022 0.58895 0.0
H2589 H 0.62037 0.91026 0.60047 0.0
H2590 H 0.60701 0.92611 0.58572 0.0
H2591 H 0.60982 0.91781 0.57434 0.0
H2592 H 0.6278 0.90458 0.53558 0.0
H2593 H 0.62901 0.90238 0.54985 0.0
H2594 H 0.63108 0.8797 0.53157 0.0
H2595 H 0.63227 0.87755 0.54571 0.0
H2596 H 0.65676 0.87025 0.57912 0.0
H2597 H 0.64941 0.87443 0.60306 0.0
H2598 H 0.63848 0.8824 0.59835 0.0
H2599 H 0.64571 0.87838 0.57436 0.0
C2600 C 0.11732 0.59554 0.42409 0.0
C2601 C 0.12173 0.59634 0.41716 0.0
C2602 C 0.11404 0.58602 0.4109 0.0
C2603 C 0.12011 0.59163 0.41063 0.0
C2604 C 0.10938 0.58554 0.41772 0.0
C2605 C 0.11103 0.59025 0.42427 0.0
U2606 U 0.1293 0.6115 0.43378 0.0
O2607 O 0.12689 0.61951 0.4437 0.0
O2608 O 0.13678 0.61123 0.44427 0.0
C2609 C 0.13265 0.61661 0.44796 0.0
C2610 C 0.11961 0.59979 0.43127 0.0
C2611 C 0.13098 0.61507 0.4563 0.0
C2612 C 0.12723 0.60638 0.46704 0.0
C2613 C 0.128 0.60782 0.45895 0.0
C2614 C 0.13211 0.61949 0.46982 0.0
C2615 C 0.12933 0.61221 0.47251 0.0
C2616 C 0.13295 0.62089 0.46178 0.0
C2617 C 0.14185 0.62372 0.41909 0.0
C2618 C 0.15238 0.63292 0.42192 0.0
C2619 C 0.14874 0.63014 0.40842 0.0
C2620 C 0.14294 0.62502 0.41104 0.0
C2621 C 0.15359 0.63411 0.41381 0.0
C2622 C 0.14653 0.62775 0.42456 0.0
C2623 C 0.13609 0.61775 0.42142 0.0
O2624 O 0.12697 0.59881 0.43335 0.0
O2625 O 0.11729 0.60716 0.43172 0.0
O2626 O 0.12941 0.62033 0.42429 0.0
O2627 O 0.13887 0.61158 0.42515 0.0
H2628 H 0.12658 0.60046 0.41689 0.0
H2629 H 0.12371 0.59226 0.40542 0.0
H2630 H 0.10469 0.58126 0.41813 0.0
H2631 H 0.10755 0.58958 0.42956 0.0
H2632 H 0.12505 0.60073 0.46904 0.0
H2633 H 0.12646 0.60325 0.45478 0.0
H2634 H 0.1338 0.62403 0.47396 0.0
H2635 H 0.13531 0.62649 0.45984 0.0
H2636 H 0.15601 0.63592 0.42621 0.0
H2637 H 0.1496 0.63077 0.40213 0.0
H2638 H 0.13942 0.6219 0.40675 0.0
H2639 H 0.14575 0.62679 0.43081 0.0
C2640 C 0.69338 0.89863 0.69644 0.0
C2641 C 0.69061 0.90078 0.68896 0.0
C2642 C 0.69836 0.89029 0.68299 0.0
C2643 C 0.69309 0.89664 0.68228 0.0
C2644 C 0.70129 0.88837 0.69049 0.0
C2645 C 0.6988 0.89249 0.69714 0.0
U2646 U 0.6808 0.91387 0.7073 0.0
O2647 O 0.67298 0.91221 0.71739 0.0
O2648 O 0.68323 0.91995 0.71852 0.0
C2649 C 0.6774 0.9164 0.72214 0.0
C2650 C 0.69036 0.90234 0.70362 0.0
C2651 C 0.67925 0.91264 0.72973 0.0
C2652 C 0.68187 0.90091 0.73749 0.0
C2653 C 0.68124 0.90463 0.73017 0.0
C2654 C 0.67903 0.91327 0.74401 0.0
C2655 C 0.68057 0.90515 0.74448 0.0
C2656 C 0.67836 0.91697 0.73669 0.0
C2657 C 0.66871 0.92846 0.69433 0.0
C2658 C 0.65558 0.93396 0.69543 0.0
C2659 C 0.66437 0.93858 0.68523 0.0
C2660 C 0.67019 0.93352 0.68799 0.0
C2661 C 0.65691 0.9387 0.68877 0.0
C2662 C 0.66144 0.92888 0.6982 0.0
C2663 C 0.67442 0.92216 0.69595 0.0
O2664 O 0.69277 0.90955 0.70503 0.0
O2665 O 0.68284 0.90135 0.7049 0.0
O2666 O 0.67155 0.91544 0.6985 0.0
O2667 O 0.68105 0.92416 0.69935 0.0
H2668 H 0.6864 0.90551 0.68833 0.0
H2669 H 0.69066 0.89824 0.67662 0.0
H2670 H 0.70545 0.88361 0.69123 0.0
H2671 H 0.70101 0.89077 0.70287 0.0
H2672 H 0.68317 0.89468 0.73767 0.0
H2673 H 0.68202 0.9012 0.72485 0.0
H2674 H 0.67794 0.91668 0.74927 0.0
H2675 H 0.67683 0.92315 0.73646 0.0
H2676 H 0.64994 0.93399 0.69835 0.0
H2677 H 0.66558 0.94206 0.68003 0.0
H2678 H 0.67573 0.93324 0.68489 0.0
H2679 H 0.66016 0.92504 0.70313 0.0
C2680 C 0.3855 0.40139 0.91435 0.0
C2681 C 0.38363 0.39876 0.90676 0.0
C2682 C 0.38911 0.41077 0.90112 0.0
C2683 C 0.38546 0.40338 0.90019 0.0
C2684 C 0.39116 0.41323 0.90876 0.0
C2685 C 0.38938 0.40858 0.9153 0.0
U2686 U 0.37318 0.38534 0.9238 0.0
O2687 O 0.37543 0.37749 0.93388 0.0
O2688 O 0.36554 0.3858 0.93417 0.0
C2689 C 0.36961 0.38047 0.938 0.0
C2690 C 0.38289 0.39705 0.92137 0.0
C2691 C 0.37114 0.38211 0.94635 0.0
C2692 C 0.37441 0.39096 0.95711 0.0
C2693 C 0.37379 0.38947 0.94901 0.0
C2694 C 0.36996 0.3777 0.95987 0.0
C2695 C 0.37242 0.3851 0.96262 0.0
C2696 C 0.36933 0.37624 0.95183 0.0
C2697 C 0.36063 0.37291 0.90934 0.0
C2698 C 0.34838 0.36598 0.91176 0.0
C2699 C 0.35409 0.36611 0.8987 0.0
C2700 C 0.3604 0.37048 0.90148 0.0
C2701 C 0.34789 0.36407 0.90373 0.0
C2702 C 0.35473 0.37043 0.91456 0.0
C2703 C 0.36651 0.37883 0.91152 0.0
O2704 O 0.37546 0.39803 0.92315 0.0
O2705 O 0.3852 0.38969 0.9219 0.0
O2706 O 0.37314 0.37626 0.91451 0.0
O2707 O 0.3638 0.38517 0.915 0.0
H2708 H 0.3806 0.39322 0.90592 0.0
H2709 H 0.38391 0.40122 0.8944 0.0
H2710 H 0.39385 0.41891 0.90975 0.0
H2711 H 0.39081 0.41072 0.92113 0.0
H2712 H 0.37639 0.39669 0.95906 0.0
H2713 H 0.37521 0.39408 0.94485 0.0
H2714 H 0.36827 0.3731 0.96394 0.0
H2715 H 0.36722 0.37054 0.94988 0.0
H2716 H 0.34364 0.3645 0.91574 0.0
H2717 H 0.35384 0.36466 0.89249 0.0
H2718 H 0.36491 0.37233 0.89738 0.0
H2719 H 0.35482 0.37228 0.92066 0.0
C2720 C 0.30496 0.60868 0.70406 0.0
C2721 C 0.3074 0.60603 0.69664 0.0
C2722 C 0.30044 0.6169 0.69036 0.0
C2723 C 0.30513 0.61009 0.68984 0.0
C2724 C 0.29784 0.61936 0.69783 0.0
C2725 C 0.30007 0.61527 0.7046 0.0
U2726 U 0.31773 0.59367 0.71479 0.0
O2727 O 0.32533 0.59523 0.72507 0.0
O2728 O 0.31542 0.58699 0.7257 0.0
C2729 C 0.32113 0.59052 0.72952 0.0
C2730 C 0.30783 0.60497 0.71131 0.0
C2731 C 0.31933 0.59347 0.73747 0.0
C2732 C 0.31687 0.60426 0.74655 0.0
C2733 C 0.31725 0.60135 0.73884 0.0
C2734 C 0.32006 0.59131 0.75156 0.0
C2735 C 0.31854 0.59933 0.753 0.0
C2736 C 0.3205 0.58844 0.74388 0.0
C2737 C 0.33045 0.57998 0.70144 0.0
C2738 C 0.34356 0.57452 0.70289 0.0
C2739 C 0.33538 0.57053 0.69194 0.0
C2740 C 0.32938 0.57538 0.6947 0.0
C2741 C 0.34262 0.57021 0.69588 0.0
C2742 C 0.33751 0.57937 0.70567 0.0
C2743 C 0.32454 0.58606 0.70322 0.0
O2744 O 0.30565 0.59764 0.7125 0.0
O2745 O 0.31527 0.6062 0.71284 0.0
O2746 O 0.32717 0.59273 0.70609 0.0
O2747 O 0.31792 0.58372 0.70643 0.0
H2748 H 0.31118 0.60093 0.69611 0.0
H2749 H 0.30713 0.60793 0.68419 0.0
H2750 H 0.29433 0.62462 0.69851 0.0
H2751 H 0.29816 0.6174 0.7103 0.0
H2752 H 0.31569 0.61046 0.74741 0.0
H2753 H 0.31629 0.60533 0.73395 0.0
H2754 H 0.32115 0.58727 0.75636 0.0
H2755 H 0.32205 0.58232 0.74294 0.0
H2756 H 0.34905 0.57434 0.70609 0.0
H2757 H 0.3345 0.56738 0.68647 0.0
H2758 H 0.324 0.57582 0.69132 0.0
H2759 H 0.33846 0.58287 0.71091 0.0
C2760 C 0.88571 0.10392 0.09068 0.0
C2761 C 0.88426 0.10675 0.0983 0.0
C2762 C 0.88945 0.0946 0.10393 0.0
C2763 C 0.88616 0.10215 0.10487 0.0
C2764 C 0.89107 0.09192 0.09626 0.0
C2765 C 0.88923 0.09654 0.08971 0.0
U2766 U 0.87323 0.11992 0.08138 0.0
O2767 O 0.8753 0.12777 0.07127 0.0
O2768 O 0.86547 0.11939 0.07109 0.0
C2769 C 0.86944 0.12478 0.06723 0.0
C2770 C 0.88303 0.10825 0.08369 0.0
C2771 C 0.87082 0.12322 0.05884 0.0
C2772 C 0.87533 0.115 0.04803 0.0
C2773 C 0.87466 0.11643 0.05614 0.0
C2774 C 0.86839 0.12715 0.04536 0.0
C2775 C 0.87216 0.12035 0.04254 0.0
C2776 C 0.86777 0.12857 0.0534 0.0
C2777 C 0.86067 0.13218 0.09593 0.0
C2778 C 0.84902 0.13988 0.09299 0.0
C2779 C 0.85322 0.13811 0.1065 0.0
C2780 C 0.85964 0.13375 0.10394 0.0
C2781 C 0.84774 0.14101 0.10107 0.0
C2782 C 0.85547 0.13544 0.09041 0.0
C2783 C 0.86662 0.12634 0.09374 0.0
O2784 O 0.8756 0.10723 0.08197 0.0
O2785 O 0.88529 0.11563 0.08315 0.0
O2786 O 0.87318 0.12899 0.09066 0.0
O2787 O 0.86395 0.11997 0.09029 0.0
H2788 H 0.8815 0.11243 0.09916 0.0
H2789 H 0.88493 0.10448 0.11068 0.0
H2790 H 0.89347 0.08611 0.09526 0.0
H2791 H 0.89032 0.09424 0.08387 0.0
H2792 H 0.87832 0.10973 0.04606 0.0
H2793 H 0.87704 0.11221 0.06029 0.0
H2794 H 0.86572 0.13132 0.04135 0.0
H2795 H 0.86472 0.13381 0.05539 0.0
H2796 H 0.84479 0.14201 0.08873 0.0
H2797 H 0.8523 0.13888 0.11277 0.0
H2798 H 0.86359 0.13125 0.10827 0.0
H2799 H 0.85617 0.13424 0.08419 0.0
C2800 C 0.69351 0.1065 0.80836 0.0
C2801 C 0.6921 0.10309 0.81575 0.0
C2802 C 0.69818 0.11436 0.82222 0.0
C2803 C 0.69445 0.10696 0.82262 0.0
C2804 C 0.6997 0.11764 0.81477 0.0
C2805 C 0.6974 0.11373 0.80792 0.0
U2806 U 0.68106 0.09129 0.7975 0.0
O2807 O 0.67313 0.09285 0.78746 0.0
O2808 O 0.68336 0.08508 0.78634 0.0
C2809 C 0.67738 0.08841 0.78278 0.0
C2810 C 0.69059 0.10287 0.80109 0.0
C2811 C 0.67878 0.09167 0.77488 0.0
C2812 C 0.68385 0.10183 0.76615 0.0
C2813 C 0.68353 0.09832 0.77363 0.0
C2814 C 0.67491 0.09193 0.76116 0.0
C2815 C 0.67935 0.09878 0.75992 0.0
C2816 C 0.67465 0.0884 0.76856 0.0
C2817 C 0.66905 0.07679 0.81064 0.0
C2818 C 0.65596 0.07122 0.80951 0.0
C2819 C 0.66471 0.06671 0.81979 0.0
C2820 C 0.67052 0.0718 0.81703 0.0
C2821 C 0.65729 0.06652 0.81621 0.0
C2822 C 0.6618 0.07631 0.80674 0.0
C2823 C 0.67475 0.0831 0.80897 0.0
O2824 O 0.69302 0.09567 0.79964 0.0
O2825 O 0.68307 0.10385 0.79977 0.0
O2826 O 0.67187 0.08979 0.80639 0.0
O2827 O 0.68137 0.08108 0.80556 0.0
H2828 H 0.68908 0.09749 0.81619 0.0
H2829 H 0.69329 0.10419 0.82824 0.0
H2830 H 0.70243 0.12336 0.8142 0.0
H2831 H 0.69849 0.11646 0.80226 0.0
H2832 H 0.68727 0.10713 0.76533 0.0
H2833 H 0.68673 0.10094 0.77847 0.0
H2834 H 0.67142 0.08946 0.75644 0.0
H2835 H 0.67097 0.08328 0.76943 0.0
H2836 H 0.65033 0.07113 0.80657 0.0
H2837 H 0.66591 0.06327 0.82501 0.0
H2838 H 0.67605 0.07213 0.82016 0.0
H2839 H 0.66053 0.0801 0.80178 0.0
C2840 C 0.80522 0.89637 0.30093 0.0
C2841 C 0.807 0.89948 0.30837 0.0
C2842 C 0.80081 0.88817 0.31469 0.0
C2843 C 0.80478 0.89543 0.31519 0.0
C2844 C 0.79889 0.88522 0.3072 0.0
C2845 C 0.80107 0.88929 0.3004 0.0
U2846 U 0.81774 0.91159 0.29019 0.0
O2847 O 0.82533 0.9102 0.27986 0.0
O2848 O 0.81527 0.91825 0.27931 0.0
C2849 C 0.82102 0.91483 0.27543 0.0
C2850 C 0.80801 0.90015 0.29368 0.0
C2851 C 0.81915 0.91171 0.26758 0.0
C2852 C 0.81552 0.90081 0.25905 0.0
C2853 C 0.81605 0.90411 0.26659 0.0
C2854 C 0.82063 0.91286 0.2534 0.0
C2855 C 0.81795 0.90512 0.25244 0.0
C2856 C 0.82125 0.91612 0.26093 0.0
C2857 C 0.83044 0.92531 0.30353 0.0
C2858 C 0.84357 0.93073 0.30219 0.0
C2859 C 0.83528 0.93481 0.31302 0.0
C2860 C 0.82929 0.92997 0.31023 0.0
C2861 C 0.84257 0.93509 0.30917 0.0
C2862 C 0.83754 0.92588 0.29939 0.0
C2863 C 0.82456 0.91921 0.30175 0.0
O2864 O 0.80574 0.90745 0.29253 0.0
O2865 O 0.81546 0.89902 0.2921 0.0
O2866 O 0.82722 0.91256 0.29884 0.0
O2867 O 0.8179 0.92151 0.29859 0.0
H2868 H 0.81022 0.90495 0.30888 0.0
H2869 H 0.80624 0.89797 0.32085 0.0
H2870 H 0.79596 0.8796 0.30655 0.0
H2871 H 0.79969 0.88679 0.2947 0.0
H2872 H 0.81348 0.8948 0.25841 0.0
H2873 H 0.8144 0.90061 0.27166 0.0
H2874 H 0.82264 0.91623 0.24838 0.0
H2875 H 0.82369 0.92197 0.26159 0.0
H2876 H 0.84909 0.93089 0.29904 0.0
H2877 H 0.83433 0.93799 0.31847 0.0
H2878 H 0.82387 0.92957 0.31354 0.0
H2879 H 0.83856 0.92233 0.29419 0.0
C2880 C 0.43817 0.35839 0.0669 0.0
C2881 C 0.43068 0.35669 0.06987 0.0
C2882 C 0.42475 0.36448 0.05943 0.0
C2883 C 0.42402 0.35973 0.06617 0.0
C2884 C 0.43226 0.36595 0.05635 0.0
C2885 C 0.43891 0.36294 0.06008 0.0
U2886 U 0.44825 0.34548 0.08213 0.0
O2887 O 0.45994 0.33997 0.08193 0.0
O2888 O 0.45695 0.34855 0.09114 0.0
C2889 C 0.46244 0.34417 0.08794 0.0
C2890 C 0.44525 0.35578 0.07105 0.0
C2891 C 0.47012 0.348 0.0871 0.0
C2892 C 0.47915 0.35692 0.08048 0.0
C2893 C 0.47196 0.35289 0.08068 0.0
C2894 C 0.48266 0.35112 0.09303 0.0
C2895 C 0.48448 0.35618 0.08676 0.0
C2896 C 0.47556 0.34707 0.09318 0.0
C2897 C 0.43454 0.33108 0.09355 0.0
C2898 C 0.43532 0.32573 0.10681 0.0
C2899 C 0.42528 0.32113 0.09783 0.0
C2900 C 0.42814 0.32616 0.09202 0.0
C2901 C 0.42875 0.32097 0.10532 0.0
C2902 C 0.43824 0.33073 0.10093 0.0
C2903 C 0.43659 0.33702 0.0876 0.0
O2904 O 0.44549 0.35757 0.07857 0.0
O2905 O 0.44755 0.34855 0.06956 0.0
O2906 O 0.44101 0.33473 0.08169 0.0
O2907 O 0.43834 0.34407 0.09024 0.0
H2908 H 0.42999 0.35313 0.07512 0.0
H2909 H 0.41829 0.3584 0.0686 0.0
H2910 H 0.43302 0.36963 0.0512 0.0
H2911 H 0.44466 0.3643 0.05772 0.0
H2912 H 0.48041 0.36082 0.0756 0.0
H2913 H 0.46779 0.35372 0.07594 0.0
H2914 H 0.4867 0.35037 0.09789 0.0
H2915 H 0.47424 0.34332 0.09817 0.0
H2916 H 0.43809 0.32569 0.11255 0.0
H2917 H 0.42013 0.31761 0.09658 0.0
H2918 H 0.42515 0.32642 0.0864 0.0
H2919 H 0.4432 0.3345 0.10223 0.0
C2920 C 0.38313 0.69232 0.82205 0.0
C2921 C 0.38596 0.68462 0.82314 0.0
C2922 C 0.37356 0.67928 0.81849 0.0
C2923 C 0.3812 0.67814 0.82134 0.0
C2924 C 0.3708 0.68696 0.81728 0.0
C2925 C 0.37556 0.69342 0.81902 0.0
U2926 U 0.40057 0.70178 0.8326 0.0
O2927 O 0.4077 0.71216 0.82944 0.0
O2928 O 0.40089 0.71208 0.84042 0.0
C2929 C 0.4055 0.71612 0.83572 0.0
C2930 C 0.38774 0.69926 0.82442 0.0
C2931 C 0.40355 0.72453 0.83469 0.0
C2932 C 0.39478 0.73522 0.8309 0.0
C2933 C 0.39658 0.72714 0.83113 0.0
C2934 C 0.40694 0.7381 0.83764 0.0
C2935 C 0.39992 0.74082 0.83423 0.0
C2936 C 0.40872 0.73009 0.83784 0.0
C2937 C 0.41445 0.68609 0.84269 0.0
C2938 C 0.42579 0.68723 0.85132 0.0
C2939 C 0.42057 0.67438 0.84809 0.0
C2940 C 0.41483 0.6779 0.84344 0.0
C2941 C 0.42614 0.67897 0.8521 0.0
C2942 C 0.41998 0.69078 0.84663 0.0
C2943 C 0.40796 0.68932 0.83798 0.0
O2944 O 0.38774 0.70076 0.83201 0.0
O2945 O 0.3947 0.70001 0.82118 0.0
O2946 O 0.40965 0.69263 0.8312 0.0
O2947 O 0.40227 0.69285 0.84181 0.0
H2948 H 0.39177 0.68365 0.82553 0.0
H2949 H 0.3834 0.67224 0.82238 0.0
H2950 H 0.3649 0.68794 0.81514 0.0
H2951 H 0.37327 0.69931 0.81817 0.0
H2952 H 0.38935 0.73709 0.82816 0.0
H2953 H 0.39249 0.72293 0.82866 0.0
H2954 H 0.41098 0.74215 0.84042 0.0
H2955 H 0.4141 0.7282 0.84067 0.0
H2956 H 0.43001 0.69094 0.85431 0.0
H2957 H 0.4205 0.66804 0.84868 0.0
H2958 H 0.41057 0.67419 0.84051 0.0
H2959 H 0.41976 0.69713 0.84613 0.0
C2960 C 0.06282 0.64966 0.57218 0.0
C2961 C 0.07028 0.65144 0.57519 0.0
C2962 C 0.07624 0.64242 0.56579 0.0
C2963 C 0.07694 0.64782 0.57203 0.0
C2964 C 0.06877 0.64085 0.56267 0.0
C2965 C 0.06212 0.64444 0.56585 0.0
U2966 U 0.05265 0.66451 0.5855 0.0
O2967 O 0.04116 0.67029 0.58422 0.0
O2968 O 0.04352 0.66272 0.59443 0.0
C2969 C 0.03831 0.66688 0.59055 0.0
C2970 C 0.05571 0.65294 0.57577 0.0
C2971 C 0.03052 0.66323 0.58985 0.0
C2972 C 0.02141 0.65388 0.58399 0.0
C2973 C 0.02875 0.65764 0.58401 0.0
C2974 C 0.01763 0.66133 0.59554 0.0
C2975 C 0.01586 0.65559 0.58987 0.0
C2976 C 0.02487 0.66511 0.59552 0.0
C2977 C 0.06648 0.67975 0.59566 0.0
C2978 C 0.06501 0.68712 0.60786 0.0
C2979 C 0.07619 0.6895 0.59937 0.0
C2980 C 0.07343 0.68385 0.59411 0.0
C2981 C 0.07208 0.6911 0.60634 0.0
C2982 C 0.06219 0.6815 0.60251 0.0
C2983 C 0.0644 0.67321 0.5904 0.0
O2984 O 0.05518 0.65202 0.58343 0.0
O2985 O 0.05368 0.66 0.57339 0.0
O2986 O 0.06025 0.67493 0.58411 0.0
O2987 O 0.06229 0.66659 0.59379 0.0
H2988 H 0.07093 0.65551 0.58005 0.0
H2989 H 0.08263 0.64923 0.57448 0.0
H2990 H 0.06804 0.63668 0.5579 0.0
H2991 H 0.0564 0.64302 0.56346 0.0
H2992 H 0.02018 0.64944 0.57958 0.0
H2993 H 0.03307 0.65608 0.57961 0.0
H2994 H 0.01343 0.6628 0.60009 0.0
H2995 H 0.02614 0.6694 0.60006 0.0
H2996 H 0.06177 0.68827 0.61322 0.0
H2997 H 0.08171 0.69241 0.59814 0.0
H2998 H 0.07686 0.68251 0.58891 0.0
H2999 H 0.05681 0.67837 0.60382 0.0
C3000 C 0.11803 0.30878 0.31218 0.0
C3001 C 0.11706 0.31546 0.31694 0.0
C3002 C 0.12666 0.32259 0.30911 0.0
C3003 C 0.12137 0.32229 0.31545 0.0
C3004 C 0.12734 0.31603 0.30412 0.0
C3005 C 0.12308 0.30916 0.30567 0.0
U3006 U 0.10272 0.29751 0.32378 0.0
O3007 O 0.0957 0.28698 0.32091 0.0
O3008 O 0.10383 0.28684 0.33096 0.0
C3009 C 0.09883 0.28283 0.32664 0.0
C3010 C 0.11424 0.30129 0.31426 0.0
C3011 C 0.10098 0.27461 0.32494 0.0
C3012 C 0.11046 0.26449 0.32137 0.0
C3013 C 0.1083 0.27247 0.3218 0.0
C3014 C 0.09786 0.26081 0.32682 0.0
C3015 C 0.10534 0.25858 0.32411 0.0
C3016 C 0.09574 0.26872 0.32726 0.0
C3017 C 0.08941 0.31073 0.337 0.0
C3018 C 0.08389 0.30874 0.35005 0.0
C3019 C 0.08044 0.32036 0.34254 0.0
C3020 C 0.08516 0.31776 0.33635 0.0
C3021 C 0.07996 0.316 0.34955 0.0
C3022 C 0.08855 0.3061 0.3438 0.0
C3023 C 0.09545 0.30904 0.33104 0.0
O3024 O 0.1153 0.29906 0.32159 0.0
O3025 O 0.10697 0.30039 0.31185 0.0
O3026 O 0.09308 0.30619 0.32425 0.0
O3027 O 0.10197 0.30583 0.3336 0.0
H3028 H 0.11314 0.31531 0.32196 0.0
H3029 H 0.12068 0.3273 0.31933 0.0
H3030 H 0.1314 0.3161 0.29922 0.0
H3031 H 0.1239 0.30406 0.30193 0.0
H3032 H 0.11626 0.263 0.31925 0.0
H3033 H 0.11243 0.27695 0.31997 0.0
H3034 H 0.09368 0.25644 0.32878 0.0
H3035 H 0.09006 0.27025 0.32967 0.0
H3036 H 0.08357 0.30526 0.35538 0.0
H3037 H 0.07755 0.32602 0.34204 0.0
H3038 H 0.08579 0.32145 0.33118 0.0
H3039 H 0.09178 0.30064 0.34443 0.0
C3040 C 0.43801 0.64655 0.43831 0.0
C3041 C 0.43053 0.64819 0.43529 0.0
C3042 C 0.42458 0.64046 0.44577 0.0
C3043 C 0.42386 0.64515 0.43899 0.0
C3044 C 0.43208 0.63905 0.44889 0.0
C3045 C 0.43874 0.64206 0.44518 0.0
U3046 U 0.44817 0.65947 0.42314 0.0
O3047 O 0.45983 0.66503 0.42342 0.0
O3048 O 0.45695 0.65644 0.4142 0.0
C3049 C 0.46239 0.66086 0.41742 0.0
C3050 C 0.44511 0.64916 0.43419 0.0
C3051 C 0.4701 0.65711 0.41828 0.0
C3052 C 0.47901 0.64781 0.42454 0.0
C3053 C 0.47178 0.65176 0.42438 0.0
C3054 C 0.4829 0.65461 0.41262 0.0
C3055 C 0.48455 0.64909 0.41854 0.0
C3056 C 0.47576 0.65858 0.41251 0.0
C3057 C 0.43456 0.67392 0.41167 0.0
C3058 C 0.43511 0.67909 0.39832 0.0
C3059 C 0.42557 0.6842 0.40757 0.0
C3060 C 0.42842 0.67913 0.41335 0.0
C3061 C 0.42878 0.68413 0.39996 0.0
C3062 C 0.43802 0.67403 0.40416 0.0
C3063 C 0.43654 0.66794 0.41761 0.0
O3064 O 0.44539 0.64738 0.42667 0.0
O3065 O 0.4474 0.65639 0.43571 0.0
O3066 O 0.4409 0.67021 0.42357 0.0
O3067 O 0.43832 0.6609 0.41496 0.0
H3068 H 0.42986 0.65171 0.43002 0.0
H3069 H 0.41814 0.64643 0.43652 0.0
H3070 H 0.43283 0.63541 0.45408 0.0
H3071 H 0.44448 0.64074 0.44757 0.0
H3072 H 0.48015 0.64355 0.42914 0.0
H3073 H 0.46744 0.65053 0.42887 0.0
H3074 H 0.4871 0.65576 0.40798 0.0
H3075 H 0.47456 0.66268 0.40777 0.0
H3076 H 0.43769 0.67895 0.3925 0.0
H3077 H 0.42061 0.68793 0.40897 0.0
H3078 H 0.42562 0.67906 0.41908 0.0
H3079 H 0.44277 0.67005 0.40273 0.0
C3080 C 0.11867 0.69687 0.1932 0.0
C3081 C 0.11748 0.69019 0.18849 0.0
C3082 C 0.12703 0.68286 0.19624 0.0
C3083 C 0.12164 0.68326 0.18998 0.0
C3084 C 0.12791 0.68945 0.20117 0.0
C3085 C 0.12378 0.69641 0.19964 0.0
U3086 U 0.1034 0.70817 0.18167 0.0
O3087 O 0.09634 0.71869 0.18451 0.0
O3088 O 0.10437 0.71879 0.17439 0.0
C3089 C 0.09937 0.7228 0.1787 0.0
C3090 C 0.11495 0.70443 0.19115 0.0
C3091 C 0.10145 0.73107 0.18024 0.0
C3092 C 0.11039 0.74127 0.18485 0.0
C3093 C 0.10817 0.7333 0.18448 0.0
C3094 C 0.09906 0.74478 0.17701 0.0
C3095 C 0.10597 0.74706 0.18089 0.0
C3096 C 0.09684 0.73689 0.17669 0.0
C3097 C 0.0905 0.69382 0.16886 0.0
C3098 C 0.08168 0.69605 0.15784 0.0
C3099 C 0.08443 0.68277 0.16224 0.0
C3100 C 0.08927 0.68572 0.16813 0.0
C3101 C 0.0806 0.68786 0.15695 0.0
C3102 C 0.08663 0.69901 0.16375 0.0
C3103 C 0.09639 0.69637 0.17462 0.0
O3104 O 0.116 0.70667 0.18383 0.0
O3105 O 0.1077 0.70539 0.1936 0.0
O3106 O 0.0939 0.69936 0.18131 0.0
O3107 O 0.10268 0.69984 0.17183 0.0
H3108 H 0.1135 0.6904 0.18353 0.0
H3109 H 0.12074 0.67824 0.18615 0.0
H3110 H 0.13204 0.68933 0.20602 0.0
H3111 H 0.12475 0.7015 0.20335 0.0
H3112 H 0.11575 0.74284 0.18789 0.0
H3113 H 0.11181 0.72888 0.18726 0.0
H3114 H 0.09544 0.74909 0.17404 0.0
H3115 H 0.09163 0.73529 0.17341 0.0
H3116 H 0.07879 0.70015 0.15392 0.0
H3117 H 0.08397 0.67644 0.16167 0.0
H3118 H 0.09228 0.68163 0.17197 0.0
H3119 H 0.08756 0.7053 0.16422 0.0
C3120 C 0.06261 0.35535 0.9331 0.0
C3121 C 0.0701 0.35372 0.9301 0.0
C3122 C 0.07589 0.3627 0.93962 0.0
C3123 C 0.07669 0.3574 0.93332 0.0
C3124 C 0.06839 0.36411 0.94276 0.0
C3125 C 0.06181 0.36047 0.93951 0.0
U3126 U 0.05257 0.34052 0.91963 0.0
O3127 O 0.04104 0.33479 0.92078 0.0
O3128 O 0.04354 0.34236 0.9106 0.0
C3129 C 0.03826 0.33826 0.91444 0.0
C3130 C 0.05555 0.35207 0.92941 0.0
C3131 C 0.03051 0.34201 0.9151 0.0
C3132 C 0.02115 0.35068 0.92158 0.0
C3133 C 0.02844 0.34685 0.92149 0.0
C3134 C 0.01801 0.34486 0.90895 0.0
C3135 C 0.01594 0.34982 0.91522 0.0
C3136 C 0.02521 0.34098 0.90891 0.0
C3137 C 0.06637 0.32523 0.90952 0.0
C3138 C 0.06521 0.31817 0.89712 0.0
C3139 C 0.07585 0.31516 0.90608 0.0
C3140 C 0.07305 0.32081 0.91133 0.0
C3141 C 0.07204 0.31387 0.89888 0.0
C3142 C 0.06235 0.32379 0.90244 0.0
C3143 C 0.0643 0.33177 0.9148 0.0
O3144 O 0.05511 0.35299 0.92175 0.0
O3145 O 0.05349 0.345 0.93176 0.0
O3146 O 0.0601 0.33006 0.92106 0.0
O3147 O 0.06228 0.33843 0.91143 0.0
H3148 H 0.07083 0.34973 0.92518 0.0
H3149 H 0.08241 0.35611 0.93086 0.0
H3150 H 0.06759 0.3682 0.94758 0.0
H3151 H 0.05606 0.36178 0.94189 0.0
H3152 H 0.01968 0.35451 0.92646 0.0
H3153 H 0.03249 0.34775 0.92631 0.0
H3154 H 0.01407 0.34404 0.90401 0.0
H3155 H 0.02671 0.33728 0.90393 0.0
H3156 H 0.06219 0.31727 0.89158 0.0
H3157 H 0.08118 0.31201 0.90752 0.0
H3158 H 0.07627 0.3219 0.91672 0.0
H3159 H 0.05718 0.32717 0.90093 0.0
C3160 C 0.3836 0.31633 0.68304 0.0
C3161 C 0.38699 0.32377 0.6842 0.0
C3162 C 0.37402 0.3293 0.68676 0.0
C3163 C 0.38221 0.33023 0.68605 0.0
C3164 C 0.37074 0.32182 0.68558 0.0
C3165 C 0.37549 0.31542 0.68376 0.0
U3166 U 0.4006 0.30356 0.67421 0.0
O3167 O 0.40517 0.2926 0.67948 0.0
O3168 O 0.39852 0.29223 0.6682 0.0
C3169 C 0.40232 0.28834 0.67368 0.0
C3170 C 0.38818 0.30926 0.68125 0.0
C3171 C 0.40235 0.27971 0.67394 0.0
C3172 C 0.39643 0.26723 0.6776 0.0
C3173 C 0.3971 0.2754 0.6786 0.0
C3174 C 0.40662 0.26762 0.66768 0.0
C3175 C 0.40103 0.26325 0.67195 0.0
C3176 C 0.4072 0.27575 0.66862 0.0
C3177 C 0.41671 0.31661 0.66245 0.0
C3178 C 0.42596 0.31625 0.65153 0.0
C3179 C 0.42395 0.32836 0.65876 0.0
C3180 C 0.41857 0.32455 0.66362 0.0
C3181 C 0.42768 0.3243 0.6526 0.0
C3182 C 0.4205 0.31243 0.65641 0.0
C3183 C 0.41025 0.31329 0.66717 0.0
O3184 O 0.38821 0.30701 0.67386 0.0
O3185 O 0.39495 0.30832 0.68483 0.0
O3186 O 0.41135 0.31094 0.67446 0.0
O3187 O 0.40425 0.31002 0.6636 0.0
H3188 H 0.39327 0.32457 0.68368 0.0
H3189 H 0.38493 0.33591 0.68698 0.0
H3190 H 0.36447 0.3209 0.68589 0.0
H3191 H 0.37279 0.30971 0.68289 0.0
H3192 H 0.39201 0.26414 0.68096 0.0
H3193 H 0.39326 0.27837 0.68272 0.0
H3194 H 0.41046 0.26481 0.66345 0.0
H3195 H 0.41128 0.27901 0.66498 0.0
H3196 H 0.42878 0.31294 0.64688 0.0
H3197 H 0.42497 0.33458 0.65967 0.0
H3198 H 0.41562 0.32791 0.66817 0.0
H3199 H 0.41911 0.30629 0.65538 0.0
C3200 C 0.10403 0.42498 0.39056 0.0
C3201 C 0.1062 0.41776 0.3872 0.0
C3202 C 0.09596 0.41103 0.39466 0.0
C3203 C 0.10222 0.41085 0.38924 0.0
C3204 C 0.09407 0.41824 0.39828 0.0
C3205 C 0.09807 0.42515 0.39623 0.0
U3206 U 0.11934 0.43547 0.37829 0.0
O3207 O 0.11832 0.44535 0.37002 0.0
O3208 O 0.12617 0.44633 0.38024 0.0
C3209 C 0.12327 0.44978 0.37395 0.0
C3210 C 0.10761 0.43238 0.38781 0.0
C3211 C 0.1214 0.45822 0.37444 0.0
C3212 C 0.11312 0.46928 0.37824 0.0
C3213 C 0.11488 0.46119 0.37855 0.0
C3214 C 0.12437 0.4714 0.36979 0.0
C3215 C 0.11779 0.4744 0.37372 0.0
C3216 C 0.12617 0.46341 0.37018 0.0
C3217 C 0.13334 0.42115 0.36712 0.0
C3218 C 0.14152 0.42355 0.35566 0.0
C3219 C 0.14136 0.41067 0.36177 0.0
C3220 C 0.13609 0.41341 0.3674 0.0
C3221 C 0.14406 0.41565 0.35573 0.0
C3222 C 0.13617 0.42628 0.36131 0.0
C3223 C 0.12702 0.42336 0.37257 0.0
O3224 O 0.11477 0.4338 0.39032 0.0
O3225 O 0.10673 0.4338 0.38026 0.0
O3226 O 0.12063 0.42624 0.36936 0.0
O3227 O 0.12906 0.42695 0.37911 0.0
H3228 H 0.11083 0.41749 0.38284 0.0
H3229 H 0.10398 0.40539 0.38647 0.0
H3230 H 0.08928 0.41864 0.40243 0.0
H3231 H 0.09634 0.43067 0.3989 0.0
H3232 H 0.108 0.47149 0.38129 0.0
H3233 H 0.11111 0.45726 0.38184 0.0
H3234 H 0.12807 0.47524 0.36631 0.0
H3235 H 0.13122 0.46123 0.36697 0.0
H3236 H 0.14355 0.42757 0.35115 0.0
H3237 H 0.14303 0.40452 0.36197 0.0
H3238 H 0.13391 0.40936 0.37182 0.0
H3239 H 0.1341 0.4323 0.36101 0.0
C3240 C 0.31258 0.32216 0.10551 0.0
C3241 C 0.32006 0.32516 0.1038 0.0
C3242 C 0.32594 0.31568 0.11277 0.0
C3243 C 0.32669 0.32196 0.10743 0.0
C3244 C 0.31846 0.31255 0.11427 0.0
C3245 C 0.31183 0.31579 0.11067 0.0
U3246 U 0.30249 0.33555 0.09067 0.0
O3247 O 0.291 0.33434 0.0849 0.0
O3248 O 0.29343 0.34454 0.09245 0.0
C3249 C 0.28818 0.34068 0.08832 0.0
C3250 C 0.3055 0.32581 0.10224 0.0
C3251 C 0.28042 0.34 0.09202 0.0
C3252 C 0.27134 0.33408 0.10137 0.0
C3253 C 0.27865 0.33411 0.09756 0.0
C3254 C 0.26758 0.34574 0.09408 0.0
C3255 C 0.26582 0.34001 0.09976 0.0
C3256 C 0.27479 0.34572 0.09024 0.0
C3257 C 0.31624 0.34564 0.07533 0.0
C3258 C 0.31542 0.35822 0.06853 0.0
C3259 C 0.32546 0.34879 0.06492 0.0
C3260 C 0.32263 0.34357 0.07058 0.0
C3261 C 0.32198 0.35621 0.06393 0.0
C3262 C 0.31253 0.35294 0.07418 0.0
C3263 C 0.31422 0.34038 0.0819 0.0
O3264 O 0.30503 0.33348 0.10315 0.0
O3265 O 0.30344 0.32343 0.09518 0.0
O3266 O 0.31006 0.33409 0.08023 0.0
O3267 O 0.31218 0.34377 0.08855 0.0
H3268 H 0.32074 0.33006 0.09977 0.0
H3269 H 0.33239 0.32441 0.10607 0.0
H3270 H 0.31769 0.30775 0.11839 0.0
H3271 H 0.3061 0.3134 0.11205 0.0
H3272 H 0.27012 0.32962 0.10576 0.0
H3273 H 0.28296 0.32966 0.09904 0.0
H3274 H 0.26339 0.35033 0.09268 0.0
H3275 H 0.27606 0.3503 0.08599 0.0
H3276 H 0.31264 0.36391 0.06786 0.0
H3277 H 0.33059 0.34714 0.06155 0.0
H3278 H 0.32561 0.33801 0.07144 0.0
H3279 H 0.30759 0.35465 0.0778 0.0
C3280 C 0.40491 0.57127 0.88782 0.0
C3281 C 0.40269 0.57882 0.88532 0.0
C3282 C 0.41428 0.58449 0.89156 0.0
C3283 C 0.4073 0.58536 0.8872 0.0
C3284 C 0.41626 0.57694 0.89436 0.0
C3285 C 0.41161 0.57041 0.8925 0.0
U3286 U 0.38762 0.56207 0.87714 0.0
O3287 O 0.38722 0.55259 0.86837 0.0
O3288 O 0.38071 0.55133 0.87947 0.0
C3289 C 0.38283 0.54803 0.8728 0.0
C3290 C 0.40063 0.56424 0.88512 0.0
C3291 C 0.38482 0.53956 0.87297 0.0
C3292 C 0.39378 0.52868 0.87042 0.0
C3293 C 0.39242 0.53677 0.87138 0.0
C3294 C 0.38005 0.52608 0.87295 0.0
C3295 C 0.38757 0.52325 0.87106 0.0
C3296 C 0.3787 0.53413 0.87388 0.0
C3297 C 0.37271 0.57742 0.86888 0.0
C3298 C 0.36256 0.57581 0.85897 0.0
C3299 C 0.36461 0.58851 0.86512 0.0
C3300 C 0.37057 0.58531 0.86971 0.0
C3301 C 0.3606 0.58385 0.85959 0.0
C3302 C 0.3686 0.57261 0.86358 0.0
C3303 C 0.37964 0.57467 0.87321 0.0
O3304 O 0.39382 0.56293 0.88851 0.0
O3305 O 0.40043 0.56331 0.87745 0.0
O3306 O 0.38539 0.57179 0.86894 0.0
O3307 O 0.37841 0.57078 0.87977 0.0
H3308 H 0.39749 0.57961 0.88174 0.0
H3309 H 0.40546 0.59109 0.88511 0.0
H3310 H 0.42159 0.57599 0.89768 0.0
H3311 H 0.41341 0.56462 0.89449 0.0
H3312 H 0.39965 0.52668 0.86905 0.0
H3313 H 0.39725 0.54084 0.87065 0.0
H3314 H 0.37512 0.52209 0.87338 0.0
H3315 H 0.37279 0.53615 0.87502 0.0
H3316 H 0.35954 0.57204 0.85483 0.0
H3317 H 0.3634 0.59474 0.86567 0.0
H3318 H 0.37372 0.58911 0.87374 0.0
H3319 H 0.37018 0.56648 0.86287 0.0
C3320 C 0.18802 0.6881 0.60863 0.0
C3321 C 0.18051 0.68524 0.60687 0.0
C3322 C 0.17467 0.69571 0.61468 0.0
C3323 C 0.17388 0.689 0.60989 0.0
C3324 C 0.18221 0.69869 0.61621 0.0
C3325 C 0.18883 0.69489 0.61322 0.0
U3326 U 0.198 0.67271 0.59583 0.0
O3327 O 0.20967 0.67277 0.59029 0.0
O3328 O 0.20668 0.66371 0.59902 0.0
C3329 C 0.21216 0.66682 0.59457 0.0
C3330 C 0.19506 0.68385 0.60607 0.0
C3331 C 0.21985 0.66777 0.59834 0.0
C3332 C 0.22867 0.67418 0.60758 0.0
C3333 C 0.22134 0.67372 0.60387 0.0
C3334 C 0.23302 0.66277 0.60022 0.0
C3335 C 0.2346 0.66868 0.6058 0.0
C3336 C 0.22574 0.66234 0.59653 0.0
C3337 C 0.1845 0.66143 0.58119 0.0
C3338 C 0.18465 0.648 0.57622 0.0
C3339 C 0.17597 0.65766 0.5704 0.0
C3340 C 0.17882 0.66336 0.57555 0.0
C3341 C 0.17872 0.64987 0.57077 0.0
C3342 C 0.18754 0.65374 0.58139 0.0
C3343 C 0.18641 0.66734 0.58723 0.0
O3344 O 0.19519 0.67634 0.60789 0.0
O3345 O 0.19742 0.6853 0.59885 0.0
O3346 O 0.19084 0.67327 0.58503 0.0
O3347 O 0.18806 0.66467 0.5943 0.0
H3348 H 0.17979 0.68001 0.60328 0.0
H3349 H 0.16814 0.68665 0.60852 0.0
H3350 H 0.183 0.70381 0.61992 0.0
H3351 H 0.19459 0.69717 0.61462 0.0
H3352 H 0.22971 0.67883 0.61181 0.0
H3353 H 0.21682 0.67796 0.60536 0.0
H3354 H 0.23736 0.65833 0.59882 0.0
H3355 H 0.22466 0.65767 0.59233 0.0
H3356 H 0.18695 0.64207 0.5766 0.0
H3357 H 0.17131 0.65928 0.56638 0.0
H3358 H 0.17636 0.66924 0.57535 0.0
H3359 H 0.19193 0.65212 0.58569 0.0
C3360 C 0.10436 0.57978 0.11443 0.0
C3361 C 0.10669 0.58698 0.11771 0.0
C3362 C 0.09644 0.59383 0.11039 0.0
C3363 C 0.10279 0.59394 0.1157 0.0
C3364 C 0.09436 0.58663 0.10686 0.0
C3365 C 0.09829 0.57967 0.10887 0.0
U3366 U 0.11952 0.56925 0.12677 0.0
O3367 O 0.11839 0.55933 0.13498 0.0
O3368 O 0.12648 0.55847 0.12492 0.0
C3369 C 0.12346 0.55496 0.13112 0.0
C3370 C 0.10787 0.57234 0.11717 0.0
C3371 C 0.12171 0.5465 0.13049 0.0
C3372 C 0.11303 0.53541 0.12792 0.0
C3373 C 0.11451 0.54356 0.12777 0.0
C3374 C 0.12591 0.5332 0.13349 0.0
C3375 C 0.11872 0.53012 0.13083 0.0
C3376 C 0.12739 0.54126 0.13326 0.0
C3377 C 0.1334 0.58383 0.13787 0.0
C3378 C 0.14116 0.58215 0.14978 0.0
C3379 C 0.14095 0.59473 0.14304 0.0
C3380 C 0.13603 0.5916 0.13731 0.0
C3381 C 0.14334 0.59013 0.14948 0.0
C3382 C 0.13616 0.57901 0.14401 0.0
C3383 C 0.12714 0.58139 0.13247 0.0
O3384 O 0.11504 0.5709 0.11471 0.0
O3385 O 0.10692 0.57092 0.12471 0.0
O3386 O 0.12078 0.57848 0.13571 0.0
O3387 O 0.12923 0.57778 0.12596 0.0
H3388 H 0.11141 0.58719 0.12197 0.0
H3389 H 0.10468 0.59938 0.1184 0.0
H3390 H 0.08949 0.5863 0.1028 0.0
H3391 H 0.09641 0.57416 0.10628 0.0
H3392 H 0.10745 0.53327 0.12577 0.0
H3393 H 0.11003 0.54754 0.12564 0.0
H3394 H 0.13038 0.52942 0.13598 0.0
H3395 H 0.13294 0.54342 0.13547 0.0
H3396 H 0.14292 0.5785 0.15469 0.0
H3397 H 0.14261 0.60087 0.14263 0.0
H3398 H 0.13397 0.59539 0.13261 0.0
H3399 H 0.13417 0.57298 0.14452 0.0
C3400 C 0.18826 0.31685 0.89674 0.0
C3401 C 0.18077 0.31978 0.8985 0.0
C3402 C 0.17483 0.30939 0.89066 0.0
C3403 C 0.17411 0.31609 0.89546 0.0
C3404 C 0.18234 0.30635 0.88912 0.0
C3405 C 0.189 0.31007 0.89213 0.0
U3406 U 0.19832 0.33209 0.90963 0.0
O3407 O 0.20998 0.3319 0.91519 0.0
O3408 O 0.20704 0.34108 0.90657 0.0
C3409 C 0.21251 0.33789 0.91098 0.0
C3410 C 0.19534 0.32099 0.89935 0.0
C3411 C 0.2202 0.33702 0.90718 0.0
C3412 C 0.22916 0.33049 0.89813 0.0
C3413 C 0.22196 0.3307 0.90213 0.0
C3414 C 0.23285 0.34281 0.90427 0.0
C3415 C 0.23459 0.33665 0.89905 0.0
C3416 C 0.22574 0.34298 0.9083 0.0
C3417 C 0.18447 0.34351 0.92392 0.0
C3418 C 0.18563 0.35658 0.92967 0.0
C3419 C 0.17481 0.34809 0.93335 0.0
C3420 C 0.17767 0.34225 0.92835 0.0
C3421 C 0.17869 0.35534 0.93395 0.0
C3422 C 0.18855 0.35066 0.92471 0.0
C3423 C 0.1866 0.33757 0.91802 0.0
O3424 O 0.1956 0.3285 0.89754 0.0
O3425 O 0.19762 0.31951 0.90659 0.0
O3426 O 0.19103 0.33169 0.92036 0.0
O3427 O 0.18841 0.34021 0.91098 0.0
H3428 H 0.1801 0.325 0.90211 0.0
H3429 H 0.16838 0.31849 0.89685 0.0
H3430 H 0.18309 0.30123 0.88539 0.0
H3431 H 0.19475 0.30773 0.89072 0.0
H3432 H 0.23036 0.32569 0.89411 0.0
H3433 H 0.21771 0.32606 0.90117 0.0
H3434 H 0.23697 0.34758 0.90515 0.0
H3435 H 0.22448 0.34789 0.91216 0.0
H3436 H 0.18869 0.36215 0.93006 0.0
H3437 H 0.16939 0.34706 0.93651 0.0
H3438 H 0.1744 0.33681 0.92775 0.0
H3439 H 0.19382 0.35175 0.92132 0.0
C3440 C 0.40463 0.43398 0.61688 0.0
C3441 C 0.4024 0.42647 0.61948 0.0
C3442 C 0.41399 0.4207 0.6133 0.0
C3443 C 0.40701 0.4199 0.61768 0.0
C3444 C 0.41597 0.42821 0.6104 0.0
C3445 C 0.41133 0.43478 0.61217 0.0
U3446 U 0.38735 0.44322 0.62747 0.0
O3447 O 0.38695 0.45245 0.63652 0.0
O3448 O 0.3806 0.45411 0.62537 0.0
C3449 C 0.38249 0.4571 0.63226 0.0
C3450 C 0.40038 0.44106 0.61954 0.0
C3451 C 0.38419 0.46558 0.63268 0.0
C3452 C 0.39242 0.4771 0.63051 0.0
C3453 C 0.39091 0.46903 0.62937 0.0
C3454 C 0.38051 0.47822 0.63822 0.0
C3455 C 0.38728 0.4817 0.63508 0.0
C3456 C 0.37898 0.47026 0.637 0.0
C3457 C 0.37254 0.42775 0.63574 0.0
C3458 C 0.36243 0.4293 0.64573 0.0
C3459 C 0.36542 0.41638 0.64048 0.0
C3460 C 0.371 0.41967 0.6355 0.0
C3461 C 0.36125 0.4211 0.64582 0.0
C3462 C 0.36811 0.43262 0.64073 0.0
C3463 C 0.37934 0.43059 0.63128 0.0
O3464 O 0.3936 0.44243 0.61613 0.0
O3465 O 0.40015 0.44198 0.62722 0.0
O3466 O 0.3852 0.43333 0.63548 0.0
O3467 O 0.37799 0.43465 0.62483 0.0
H3468 H 0.39721 0.42573 0.62308 0.0
H3469 H 0.40516 0.4142 0.61985 0.0
H3470 H 0.4213 0.42911 0.60706 0.0
H3471 H 0.41313 0.44053 0.61011 0.0
H3472 H 0.39768 0.47968 0.62805 0.0
H3473 H 0.39503 0.46549 0.62604 0.0
H3474 H 0.37644 0.48166 0.6417 0.0
H3475 H 0.37376 0.4677 0.63959 0.0
H3476 H 0.35929 0.43306 0.6498 0.0
H3477 H 0.36455 0.41006 0.64035 0.0
H3478 H 0.37437 0.41584 0.63168 0.0
H3479 H 0.36925 0.43888 0.64098 0.0
C3480 C 0.31268 0.68293 0.39941 0.0
C3481 C 0.32016 0.67993 0.40111 0.0
C3482 C 0.32602 0.68942 0.39214 0.0
C3483 C 0.32678 0.68314 0.39748 0.0
C3484 C 0.31854 0.69254 0.39065 0.0
C3485 C 0.31192 0.6893 0.39425 0.0
U3486 U 0.3026 0.66965 0.41436 0.0
O3487 O 0.29109 0.67089 0.42011 0.0
O3488 O 0.29354 0.66063 0.41264 0.0
C3489 C 0.28829 0.66452 0.41674 0.0
C3490 C 0.3056 0.67929 0.40271 0.0
C3491 C 0.28052 0.66515 0.41304 0.0
C3492 C 0.27131 0.67119 0.4039 0.0
C3493 C 0.27863 0.67118 0.4077 0.0
C3494 C 0.26779 0.65923 0.41083 0.0
C3495 C 0.2659 0.6651 0.40534 0.0
C3496 C 0.27502 0.65927 0.41465 0.0
C3497 C 0.31627 0.65966 0.42981 0.0
C3498 C 0.31607 0.64687 0.43625 0.0
C3499 C 0.32507 0.65696 0.4407 0.0
C3500 C 0.32214 0.6621 0.43503 0.0
C3501 C 0.32219 0.64923 0.44129 0.0
C3502 C 0.31312 0.65206 0.43056 0.0
C3503 C 0.3143 0.66488 0.42319 0.0
O3504 O 0.30515 0.67162 0.40186 0.0
O3505 O 0.30353 0.68173 0.40975 0.0
O3506 O 0.31014 0.6712 0.42479 0.0
O3507 O 0.3123 0.66147 0.41654 0.0
H3508 H 0.32085 0.67504 0.40514 0.0
H3509 H 0.33249 0.68069 0.39883 0.0
H3510 H 0.31777 0.69734 0.38653 0.0
H3511 H 0.30619 0.69169 0.39289 0.0
H3512 H 0.26999 0.67576 0.39966 0.0
H3513 H 0.28284 0.67575 0.40635 0.0
H3514 H 0.26369 0.65452 0.41209 0.0
H3515 H 0.27638 0.65458 0.41875 0.0
H3516 H 0.31368 0.64098 0.4366 0.0
H3517 H 0.32986 0.65893 0.44438 0.0
H3518 H 0.3247 0.66792 0.4345 0.0
H3519 H 0.30858 0.65004 0.42659 0.0
C3520 C 0.36839 0.06177 0.44645 0.0
C3521 C 0.36723 0.0665 0.43977 0.0
C3522 C 0.37692 0.05885 0.43253 0.0
C3523 C 0.37148 0.06507 0.43289 0.0
C3524 C 0.37778 0.05391 0.43911 0.0
C3525 C 0.37356 0.05538 0.44603 0.0
U3526 U 0.353 0.07317 0.45773 0.0
O3527 O 0.34604 0.07032 0.46831 0.0
O3528 O 0.35401 0.08049 0.46831 0.0
C3529 C 0.34905 0.07618 0.47237 0.0
C3530 C 0.36462 0.06379 0.45398 0.0
C3531 C 0.35116 0.07469 0.48063 0.0
C3532 C 0.36022 0.07031 0.49081 0.0
C3533 C 0.35802 0.07068 0.48284 0.0
C3534 C 0.34858 0.07767 0.49435 0.0
C3535 C 0.35562 0.07402 0.49663 0.0
C3536 C 0.34641 0.07802 0.48645 0.0
C3537 C 0.33958 0.08624 0.4446 0.0
C3538 C 0.33417 0.0993 0.44669 0.0
C3539 C 0.33055 0.09185 0.43508 0.0
C3540 C 0.33524 0.08561 0.43763 0.0
C3541 C 0.33019 0.09885 0.43945 0.0
C3542 C 0.33881 0.09302 0.44927 0.0
C3543 C 0.34564 0.08029 0.44618 0.0
O3544 O 0.3656 0.07112 0.45621 0.0
O3545 O 0.35739 0.06128 0.45492 0.0
O3546 O 0.34333 0.0735 0.44909 0.0
O3547 O 0.35219 0.08289 0.44931 0.0
H3548 H 0.3632 0.07143 0.43996 0.0
H3549 H 0.3706 0.0689 0.42787 0.0
H3550 H 0.38195 0.0491 0.43903 0.0
H3551 H 0.37452 0.05167 0.45112 0.0
H3552 H 0.36568 0.06745 0.49237 0.0
H3553 H 0.36178 0.06807 0.47841 0.0
H3554 H 0.3448 0.08042 0.49866 0.0
H3555 H 0.34108 0.08112 0.48486 0.0
H3556 H 0.33393 0.10463 0.45018 0.0
H3557 H 0.32762 0.09138 0.42945 0.0
H3558 H 0.3358 0.08045 0.43392 0.0
H3559 H 0.3421 0.09362 0.45469 0.0
C3560 C 0.86909 0.44284 0.55781 0.0
C3561 C 0.86614 0.44048 0.56516 0.0
C3562 C 0.87753 0.4462 0.57173 0.0
C3563 C 0.87032 0.44216 0.57206 0.0
C3564 C 0.88031 0.44871 0.56434 0.0
C3565 C 0.87614 0.44703 0.55746 0.0
U3566 U 0.85333 0.43136 0.54689 0.0
O3567 O 0.84626 0.43435 0.53643 0.0
O3568 O 0.85406 0.42406 0.53625 0.0
C3569 C 0.84917 0.42851 0.53226 0.0
C3570 C 0.86513 0.44062 0.55043 0.0
C3571 C 0.85141 0.43018 0.52404 0.0
C3572 C 0.86016 0.43578 0.51418 0.0
C3573 C 0.85772 0.43511 0.52207 0.0
C3574 C 0.84984 0.42683 0.51023 0.0
C3575 C 0.85629 0.43153 0.50824 0.0
C3576 C 0.84742 0.42617 0.51805 0.0
C3577 C 0.84036 0.41879 0.56141 0.0
C3578 C 0.83129 0.40795 0.55931 0.0
C3579 C 0.83455 0.41209 0.57255 0.0
C3580 C 0.83937 0.41795 0.56953 0.0
C3581 C 0.83047 0.40695 0.56751 0.0
C3582 C 0.83624 0.41383 0.55627 0.0
C3583 C 0.84629 0.42446 0.55876 0.0
O3584 O 0.86599 0.43322 0.54837 0.0
O3585 O 0.85791 0.44319 0.54954 0.0
O3586 O 0.84388 0.43117 0.55577 0.0
O3587 O 0.8525 0.42155 0.55524 0.0
H3588 H 0.86071 0.4372 0.56554 0.0
H3589 H 0.86803 0.44006 0.57762 0.0
H3590 H 0.88575 0.45196 0.56385 0.0
H3591 H 0.8785 0.4489 0.55185 0.0
H3592 H 0.86521 0.43937 0.51276 0.0
H3593 H 0.8609 0.43823 0.52662 0.0
H3594 H 0.84684 0.42343 0.50575 0.0
H3595 H 0.84257 0.42229 0.51946 0.0
H3596 H 0.82819 0.40415 0.55525 0.0
H3597 H 0.8343 0.41142 0.57888 0.0
H3598 H 0.84258 0.42167 0.57358 0.0
H3599 H 0.83697 0.41438 0.54996 0.0
C3600 C 0.35422 0.14059 0.33009 0.0
C3601 C 0.35646 0.13723 0.33729 0.0
C3602 C 0.34623 0.14461 0.34411 0.0
C3603 C 0.35253 0.13924 0.34423 0.0
C3604 C 0.34425 0.14822 0.33691 0.0
C3605 C 0.34821 0.14621 0.32997 0.0
U3606 U 0.36954 0.12847 0.31942 0.0
O3607 O 0.36848 0.12023 0.30952 0.0
O3608 O 0.37626 0.13051 0.3085 0.0
C3609 C 0.37339 0.12419 0.30507 0.0
C3610 C 0.35777 0.13789 0.32265 0.0
C3611 C 0.37154 0.12462 0.29662 0.0
C3612 C 0.3631 0.12798 0.28554 0.0
C3613 C 0.36486 0.12844 0.29362 0.0
C3614 C 0.37469 0.11999 0.28349 0.0
C3615 C 0.36794 0.12359 0.28045 0.0
C3616 C 0.37648 0.12053 0.29147 0.0
C3617 C 0.38375 0.11734 0.33364 0.0
C3618 C 0.39045 0.10473 0.33262 0.0
C3619 C 0.39256 0.11306 0.34399 0.0
C3620 C 0.38757 0.11872 0.3408 0.0
C3621 C 0.39383 0.10589 0.34008 0.0
C3622 C 0.3854 0.11041 0.32942 0.0
C3623 C 0.37739 0.12274 0.3314 0.0
O3624 O 0.3649 0.14046 0.32118 0.0
O3625 O 0.35693 0.13033 0.32122 0.0
O3626 O 0.37098 0.11951 0.3286 0.0
O3627 O 0.37936 0.12932 0.32785 0.0
H3628 H 0.36114 0.13292 0.33751 0.0
H3629 H 0.35435 0.13648 0.34967 0.0
H3630 H 0.33942 0.15234 0.33657 0.0
H3631 H 0.34641 0.14887 0.32447 0.0
H3632 H 0.35786 0.1308 0.28332 0.0
H3633 H 0.36096 0.13161 0.29753 0.0
H3634 H 0.37854 0.11664 0.27968 0.0
H3635 H 0.38165 0.11755 0.29366 0.0
H3636 H 0.39132 0.09925 0.32949 0.0
H3637 H 0.39518 0.11417 0.34969 0.0
H3638 H 0.38638 0.12402 0.34413 0.0
H3639 H 0.3825 0.10924 0.32388 0.0
C3640 C 0.6332 0.57155 0.06289 0.0
C3641 C 0.63438 0.57568 0.06995 0.0
C3642 C 0.62364 0.5685 0.07608 0.0
C3643 C 0.62961 0.5742 0.07647 0.0
C3644 C 0.6227 0.56414 0.06912 0.0
C3645 C 0.62743 0.56568 0.06256 0.0
U3646 U 0.65069 0.58129 0.05295 0.0
O3647 O 0.65753 0.57787 0.04246 0.0
O3648 O 0.65123 0.58915 0.04272 0.0
C3649 C 0.6556 0.5843 0.0386 0.0
C3650 C 0.63763 0.5736 0.05573 0.0
C3651 C 0.65359 0.58353 0.0302 0.0
C3652 C 0.64443 0.58087 0.0195 0.0
C3653 C 0.6464 0.58047 0.02754 0.0
C3654 C 0.65691 0.58709 0.01678 0.0
C3655 C 0.64959 0.58442 0.01409 0.0
C3656 C 0.65887 0.58664 0.02473 0.0
C3657 C 0.66537 0.59108 0.06785 0.0
C3658 C 0.67334 0.60298 0.06764 0.0
C3659 C 0.67405 0.59408 0.07875 0.0
C3660 C 0.66869 0.58907 0.07511 0.0
C3661 C 0.67622 0.60121 0.07519 0.0
C3662 C 0.66789 0.59795 0.064 0.0
C3663 C 0.65855 0.58648 0.06518 0.0
O3664 O 0.63787 0.58115 0.05407 0.0
O3665 O 0.64444 0.57008 0.05485 0.0
O3666 O 0.65987 0.57957 0.06197 0.0
O3667 O 0.6528 0.59039 0.06185 0.0
H3668 H 0.63886 0.58018 0.07034 0.0
H3669 H 0.63051 0.57758 0.0818 0.0
H3670 H 0.61813 0.55974 0.06866 0.0
H3671 H 0.62644 0.56243 0.05717 0.0
H3672 H 0.63875 0.57876 0.01759 0.0
H3673 H 0.64223 0.57805 0.0317 0.0
H3674 H 0.66106 0.58974 0.01275 0.0
H3675 H 0.66445 0.58902 0.02665 0.0
H3676 H 0.6749 0.60845 0.06477 0.0
H3677 H 0.67626 0.59253 0.08453 0.0
H3678 H 0.66682 0.58381 0.07819 0.0
H3679 H 0.66539 0.59963 0.05839 0.0
C3680 C 0.65495 0.36708 0.32153 0.0
C3681 C 0.65276 0.36968 0.32905 0.0
C3682 C 0.6643 0.36336 0.33477 0.0
C3683 C 0.65737 0.36781 0.33561 0.0
C3684 C 0.66625 0.36048 0.32724 0.0
C3685 C 0.66161 0.36233 0.3207 0.0
U3686 U 0.63764 0.37761 0.31213 0.0
O3687 O 0.63727 0.38627 0.30255 0.0
O3688 O 0.6308 0.37513 0.30137 0.0
C3689 C 0.63286 0.38181 0.29805 0.0
C3690 C 0.65067 0.36973 0.31447 0.0
C3691 C 0.63464 0.38171 0.28954 0.0
C3692 C 0.64331 0.38436 0.27844 0.0
C3693 C 0.6422 0.38312 0.28654 0.0
C3694 C 0.62943 0.38242 0.27626 0.0
C3695 C 0.63688 0.38428 0.27324 0.0
C3696 C 0.62833 0.38116 0.28429 0.0
C3697 C 0.62244 0.38593 0.32723 0.0
C3698 C 0.61421 0.39763 0.32735 0.0
C3699 C 0.61298 0.38792 0.33771 0.0
C3700 C 0.61871 0.38332 0.33409 0.0
C3701 C 0.61087 0.39526 0.33455 0.0
C3702 C 0.61999 0.39301 0.32372 0.0
C3703 C 0.62946 0.38164 0.32458 0.0
O3704 O 0.64389 0.36629 0.31314 0.0
O3705 O 0.65043 0.37739 0.31349 0.0
O3706 O 0.63525 0.38588 0.32175 0.0
O3707 O 0.62835 0.37499 0.32079 0.0
H3708 H 0.6476 0.37331 0.32983 0.0
H3709 H 0.65555 0.36996 0.34132 0.0
H3710 H 0.67154 0.3571 0.32631 0.0
H3711 H 0.66337 0.36026 0.31494 0.0
H3712 H 0.64913 0.38577 0.27631 0.0
H3713 H 0.64718 0.38357 0.29048 0.0
H3714 H 0.62437 0.38215 0.27241 0.0
H3715 H 0.62245 0.38009 0.28647 0.0
H3716 H 0.61272 0.40327 0.32478 0.0
H3717 H 0.61042 0.38586 0.34317 0.0
H3718 H 0.62051 0.37787 0.33688 0.0
H3719 H 0.62278 0.39513 0.31841 0.0
C3720 C 0.1328 0.93302 0.94211 0.0
C3721 C 0.13602 0.93335 0.9345 0.0
C3722 C 0.12314 0.93627 0.92905 0.0
C3723 C 0.13122 0.93504 0.92801 0.0
C3724 C 0.11998 0.93602 0.93667 0.0
C3725 C 0.12478 0.93446 0.94314 0.0
U3726 U 0.15063 0.92312 0.95157 0.0
O3727 O 0.15765 0.92662 0.96192 0.0
O3728 O 0.15124 0.9154 0.96191 0.0
C3729 C 0.15566 0.9203 0.96592 0.0
C3730 C 0.13754 0.93083 0.94902 0.0
C3731 C 0.15367 0.92131 0.97432 0.0
C3732 C 0.14421 0.92258 0.98502 0.0
C3733 C 0.146 0.92289 0.97694 0.0
C3734 C 0.15777 0.91948 0.98788 0.0
C3735 C 0.15004 0.9206 0.99055 0.0
C3736 C 0.15954 0.91983 0.97987 0.0
C3737 C 0.16522 0.91318 0.93678 0.0
C3738 C 0.17395 0.90191 0.93801 0.0
C3739 C 0.17415 0.90984 0.92616 0.0
C3740 C 0.16838 0.91472 0.92934 0.0
C3741 C 0.17692 0.90329 0.93039 0.0
C3742 C 0.16814 0.90682 0.94119 0.0
C3743 C 0.15835 0.9178 0.93929 0.0
O3744 O 0.13778 0.92327 0.95057 0.0
O3745 O 0.14439 0.93432 0.94973 0.0
O3746 O 0.15966 0.92476 0.9424 0.0
O3747 O 0.15265 0.91392 0.94274 0.0
H3748 H 0.1422 0.93219 0.93357 0.0
H3749 H 0.13377 0.93514 0.92217 0.0
H3750 H 0.11377 0.93698 0.9376 0.0
H3751 H 0.12219 0.93421 0.94896 0.0
H3752 H 0.13821 0.92348 0.9869 0.0
H3753 H 0.14137 0.92405 0.97274 0.0
H3754 H 0.16242 0.91808 0.99198 0.0
H3755 H 0.16549 0.91861 0.97798 0.0
H3756 H 0.17601 0.89696 0.94145 0.0
H3757 H 0.17619 0.91102 0.92024 0.0
H3758 H 0.16615 0.91955 0.92582 0.0
H3759 H 0.16577 0.90552 0.94696 0.0
C3760 C 0.35394 0.86454 0.17504 0.0
C3761 C 0.35617 0.86783 0.1678 0.0
C3762 C 0.34593 0.86038 0.16108 0.0
C3763 C 0.35222 0.86576 0.16089 0.0
C3764 C 0.34398 0.85683 0.1683 0.0
C3765 C 0.34795 0.85891 0.17522 0.0
U3766 U 0.3691 0.87699 0.18546 0.0
O3767 O 0.36798 0.88527 0.19535 0.0
O3768 O 0.37604 0.87519 0.19628 0.0
C3769 C 0.37307 0.88145 0.19972 0.0
C3770 C 0.35747 0.86735 0.18244 0.0
C3771 C 0.37144 0.88101 0.20822 0.0
C3772 C 0.36354 0.87732 0.2196 0.0
C3773 C 0.36488 0.87716 0.21142 0.0
C3774 C 0.37526 0.88517 0.22132 0.0
C3775 C 0.36874 0.88133 0.22466 0.0
C3776 C 0.37659 0.88496 0.21324 0.0
C3777 C 0.38307 0.88809 0.17107 0.0
C3778 C 0.39126 0.89957 0.17337 0.0
C3779 C 0.39117 0.8933 0.16056 0.0
C3780 C 0.38588 0.88771 0.16334 0.0
C3781 C 0.39385 0.89939 0.16548 0.0
C3782 C 0.38589 0.89396 0.17614 0.0
C3783 C 0.37676 0.88267 0.17331 0.0
O3784 O 0.36464 0.86491 0.18389 0.0
O3785 O 0.35651 0.8749 0.18381 0.0
O3786 O 0.37037 0.88589 0.17619 0.0
O3787 O 0.37881 0.87615 0.17693 0.0
H3788 H 0.36083 0.87216 0.16753 0.0
H3789 H 0.35402 0.86848 0.15542 0.0
H3790 H 0.33916 0.85271 0.1687 0.0
H3791 H 0.34616 0.8563 0.18075 0.0
H3792 H 0.35849 0.87426 0.22194 0.0
H3793 H 0.3608 0.8741 0.20761 0.0
H3794 H 0.37928 0.88853 0.22492 0.0
H3795 H 0.38164 0.88804 0.21088 0.0
H3796 H 0.39327 0.90411 0.17735 0.0
H3797 H 0.39287 0.89302 0.15443 0.0
H3798 H 0.38373 0.88324 0.15934 0.0
H3799 H 0.38378 0.89433 0.18214 0.0
C3800 C 0.15447 0.13822 0.68416 0.0
C3801 C 0.15204 0.13573 0.67668 0.0
C3802 C 0.16357 0.1418 0.67072 0.0
C3803 C 0.15652 0.13753 0.67003 0.0
C3804 C 0.16577 0.14459 0.67821 0.0
C3805 C 0.16125 0.14281 0.68486 0.0
U3806 U 0.13725 0.12769 0.69346 0.0
O3807 O 0.13681 0.1187 0.70272 0.0
O3808 O 0.13048 0.12986 0.70431 0.0
C3809 C 0.13235 0.12299 0.70734 0.0
C3810 C 0.15029 0.13558 0.69128 0.0
C3811 C 0.13404 0.12261 0.71582 0.0
C3812 C 0.14252 0.12421 0.72725 0.0
C3813 C 0.14103 0.12542 0.71919 0.0
C3814 C 0.13007 0.11749 0.72854 0.0
C3815 C 0.1371 0.12007 0.73193 0.0
C3816 C 0.12855 0.11877 0.72059 0.0
C3817 C 0.12239 0.11957 0.67793 0.0
C3818 C 0.11317 0.10867 0.6787 0.0
C3819 C 0.11456 0.11606 0.66658 0.0
C3820 C 0.12007 0.12092 0.67015 0.0
C3821 C 0.11126 0.10971 0.67071 0.0
C3822 C 0.11876 0.11357 0.68229 0.0
C3823 C 0.12925 0.12393 0.68082 0.0
O3824 O 0.14353 0.13902 0.69269 0.0
O3825 O 0.15006 0.12791 0.69222 0.0
O3826 O 0.13505 0.11967 0.6836 0.0
O3827 O 0.12796 0.13041 0.68484 0.0
H3828 H 0.14678 0.13222 0.67602 0.0
H3829 H 0.15451 0.13544 0.66435 0.0
H3830 H 0.17116 0.14784 0.67901 0.0
H3831 H 0.16321 0.14479 0.69059 0.0
H3832 H 0.148 0.12625 0.72975 0.0
H3833 H 0.14536 0.12838 0.71558 0.0
H3834 H 0.12576 0.11436 0.73203 0.0
H3835 H 0.12313 0.11657 0.7181 0.0
H3836 H 0.11071 0.10382 0.68201 0.0
H3837 H 0.11312 0.11706 0.66045 0.0
H3838 H 0.12281 0.12553 0.6667 0.0
H3839 H 0.1205 0.11244 0.68832 0.0
C3840 C 0.1105 0.17008 0.3451 0.0
C3841 C 0.10238 0.17119 0.34456 0.0
C3842 C 0.0995 0.17806 0.34096 0.0
C3843 C 0.10471 0.18399 0.33849 0.0
H3844 H 0.10683 0.2082 0.33208 0.0
H3845 H 0.10296 0.22156 0.32852 0.0
H3846 H 0.12726 0.2282 0.32635 0.0
H3847 H 0.13121 0.21486 0.33002 0.0
H3848 H 0.14348 0.20509 0.34226 0.0
H3849 H 0.1557 0.20301 0.34954 0.0
H3850 H 0.14838 0.17926 0.35494 0.0
H3851 H 0.13659 0.18116 0.34748 0.0
H3852 H 0.12186 0.17484 0.34339 0.0
H3853 H 0.11287 0.1648 0.34776 0.0
H3854 H 0.09324 0.17903 0.34048 0.0
H3855 H 0.10235 0.18941 0.3361 0.0
N3856 N 0.11637 0.19665 0.3351 0.0
N3857 N 0.12913 0.20154 0.33732 0.0
N3858 N 0.12591 0.18869 0.34092 0.0
C3859 C 0.12171 0.20263 0.33452 0.0
C3860 C 0.13125 0.19454 0.34053 0.0
C3861 C 0.1185 0.1896 0.33824 0.0
C3862 C 0.11934 0.21046 0.33145 0.0
C3863 C 0.11137 0.21245 0.33075 0.0
C3864 C 0.10914 0.22011 0.32872 0.0
C3865 C 0.11482 0.2259 0.3272 0.0
C3866 C 0.12277 0.22383 0.32746 0.0
C3867 C 0.12502 0.2162 0.32962 0.0
C3868 C 0.13901 0.19332 0.34428 0.0
C3869 C 0.14457 0.1994 0.3449 0.0
C3870 C 0.15153 0.19822 0.34914 0.0
C3871 C 0.15305 0.19096 0.35285 0.0
C3872 C 0.14754 0.18487 0.35205 0.0
C3873 C 0.14068 0.18601 0.34779 0.0
C3874 C 0.11285 0.18307 0.33954 0.0
C3875 C 0.11565 0.1759 0.3426 0.0
C3876 C 0.05131 0.91063 0.61417 0.0
C3877 C 0.04463 0.91383 0.61774 0.0
C3878 C 0.03731 0.91024 0.61654 0.0
C3879 C 0.03671 0.90349 0.61185 0.0
H3880 H 0.02154 0.88931 0.59864 0.0
H3881 H 0.00903 0.88364 0.59485 0.0
H3882 H 0.02091 0.86325 0.58551 0.0
H3883 H 0.03352 0.86893 0.58924 0.0
H3884 H 0.05215 0.8662 0.59382 0.0
H3885 H 0.06369 0.85778 0.59601 0.0
H3886 H 0.0747 0.87642 0.60918 0.0
H3887 H 0.06348 0.88483 0.60698 0.0
H3888 H 0.05606 0.90145 0.60707 0.0
H3889 H 0.05701 0.91331 0.61504 0.0
H3890 H 0.03209 0.91267 0.61923 0.0
H3891 H 0.03102 0.90076 0.61108 0.0
N3892 N 0.03631 0.88981 0.60107 0.0
N3893 N 0.04279 0.87829 0.59694 0.0
N3894 N 0.04968 0.88819 0.60355 0.0
C3895 C 0.03611 0.88268 0.59739 0.0
C3896 C 0.04962 0.88105 0.60002 0.0
C3897 C 0.04311 0.89261 0.60411 0.0
C3898 C 0.02857 0.87953 0.59437 0.0
C3899 C 0.02154 0.88365 0.59571 0.0
C3900 C 0.01435 0.8804 0.59355 0.0
C3901 C 0.01398 0.87296 0.58996 0.0
C3902 C 0.02101 0.86901 0.58823 0.0
C3903 C 0.02823 0.87225 0.59044 0.0
C3904 C 0.05681 0.87616 0.60031 0.0
C3905 C 0.05709 0.86854 0.59707 0.0
C3906 C 0.06367 0.86373 0.59829 0.0
C3907 C 0.06998 0.86648 0.60282 0.0
C3908 C 0.06986 0.87419 0.60571 0.0
C3909 C 0.06339 0.87898 0.60443 0.0
C3910 C 0.04345 0.90015 0.60844 0.0
C3911 C 0.05074 0.90384 0.60962 0.0
C3912 C 0.37055 0.82727 0.85382 0.0
C3913 C 0.36318 0.82457 0.85142 0.0
C3914 C 0.36255 0.81693 0.84825 0.0
C3915 C 0.36914 0.81192 0.84797 0.0
H3916 H 0.38041 0.78903 0.83994 0.0
H3917 H 0.38228 0.77563 0.83481 0.0
H3918 H 0.40442 0.77415 0.84702 0.0
H3919 H 0.40269 0.78731 0.85195 0.0
H3920 H 0.41009 0.80092 0.86157 0.0
H3921 H 0.42016 0.80654 0.87021 0.0
H3922 H 0.40575 0.82716 0.87363 0.0
H3923 H 0.39588 0.82173 0.86505 0.0
H3924 H 0.38258 0.82474 0.85555 0.0
H3925 H 0.37127 0.83317 0.85613 0.0
H3926 H 0.35691 0.81472 0.84633 0.0
H3927 H 0.36846 0.80596 0.84583 0.0
N3928 N 0.38391 0.80191 0.84844 0.0
N3929 N 0.39641 0.80037 0.85422 0.0
N3930 N 0.38942 0.81196 0.8561 0.0
C3931 C 0.39049 0.79742 0.8497 0.0
C3932 C 0.3959 0.80763 0.85745 0.0
C3933 C 0.38341 0.80928 0.85165 0.0
C3934 C 0.39138 0.78933 0.84637 0.0
C3935 C 0.38568 0.78585 0.84149 0.0
C3936 C 0.38674 0.77816 0.83857 0.0
C3937 C 0.39354 0.77382 0.84043 0.0
C3938 C 0.3992 0.77734 0.84529 0.0
C3939 C 0.39815 0.78494 0.84819 0.0
C3940 C 0.40217 0.81087 0.86256 0.0
C3941 C 0.40911 0.80667 0.86414 0.0
C3942 C 0.41486 0.80986 0.86911 0.0
C3943 C 0.41379 0.81733 0.87253 0.0
C3944 C 0.40685 0.82148 0.87095 0.0
C3945 C 0.40114 0.81831 0.86604 0.0
C3946 C 0.37645 0.81453 0.85079 0.0
C3947 C 0.37707 0.82237 0.85347 0.0
C3948 C 0.44743 0.10352 0.1179 0.0
C3949 C 0.45403 0.09981 0.12116 0.0
C3950 C 0.46153 0.10276 0.11935 0.0
C3951 C 0.46236 0.10948 0.11463 0.0
H3952 H 0.47805 0.12387 0.10253 0.0
H3953 H 0.49073 0.12912 0.09867 0.0
H3954 H 0.47945 0.14965 0.08891 0.0
H3955 H 0.46666 0.14441 0.09276 0.0
H3956 H 0.44885 0.14882 0.10039 0.0
H3957 H 0.43767 0.15738 0.10369 0.0
H3958 H 0.42486 0.13721 0.11216 0.0
H3959 H 0.43573 0.12872 0.10887 0.0
H3960 H 0.443 0.11299 0.11101 0.0
H3961 H 0.44158 0.10127 0.11895 0.0
H3962 H 0.46674 0.10005 0.12178 0.0
H3963 H 0.46819 0.11178 0.11354 0.0
N3964 N 0.46321 0.12362 0.10451 0.0
N3965 N 0.45719 0.13556 0.10089 0.0
N3966 N 0.44996 0.12571 0.1072 0.0
C3967 C 0.46367 0.13086 0.10109 0.0
C3968 C 0.45028 0.13297 0.10393 0.0
C3969 C 0.45633 0.121 0.10754 0.0
C3970 C 0.47131 0.13376 0.09807 0.0
C3971 C 0.47821 0.12947 0.09949 0.0
C3972 C 0.4855 0.13248 0.09729 0.0
C3973 C 0.48607 0.13982 0.09355 0.0
C3974 C 0.47917 0.14395 0.09175 0.0
C3975 C 0.47186 0.14097 0.09402 0.0
C3976 C 0.44327 0.1381 0.10451 0.0
C3977 C 0.44358 0.14621 0.1028 0.0
C3978 C 0.4372 0.1511 0.10466 0.0
C3979 C 0.4305 0.14793 0.10828 0.0
C3980 C 0.43002 0.1398 0.10947 0.0
C3981 C 0.43629 0.13494 0.10758 0.0
C3982 C 0.45571 0.11338 0.1117 0.0
C3983 C 0.44826 0.11022 0.11327 0.0
C3984 C 0.11107 0.83545 0.16059 0.0
C3985 C 0.10295 0.83421 0.16118 0.0
C3986 C 0.10025 0.82684 0.16386 0.0
C3987 C 0.10557 0.82079 0.16565 0.0
H3988 H 0.10843 0.79757 0.17456 0.0
H3989 H 0.10461 0.78429 0.1786 0.0
H3990 H 0.1284 0.77635 0.17554 0.0
H3991 H 0.13232 0.78957 0.17145 0.0
H3992 H 0.14496 0.80067 0.16223 0.0
H3993 H 0.15735 0.80291 0.15532 0.0
H3994 H 0.14877 0.82549 0.14735 0.0
H3995 H 0.13674 0.82344 0.15443 0.0
H3996 H 0.12254 0.83063 0.1616 0.0
H3997 H 0.11339 0.84098 0.15844 0.0
H3998 H 0.09403 0.82572 0.16446 0.0
H3999 H 0.10332 0.81512 0.16749 0.0
N4000 N 0.11749 0.80842 0.16888 0.0
N4001 N 0.13017 0.8036 0.16616 0.0
N4002 N 0.12671 0.81642 0.16258 0.0
C4003 C 0.12287 0.80247 0.16926 0.0
C4004 C 0.13212 0.81059 0.1628 0.0
C4005 C 0.11943 0.81546 0.16559 0.0
C4006 C 0.12068 0.79466 0.17258 0.0
C4007 C 0.1129 0.79305 0.17486 0.0
C4008 C 0.1107 0.78547 0.17721 0.0
C4009 C 0.11624 0.77937 0.17743 0.0
C4010 C 0.12406 0.78101 0.1755 0.0
C4011 C 0.12627 0.78857 0.17311 0.0
C4012 C 0.13982 0.81186 0.15892 0.0
C4013 C 0.14578 0.80614 0.15906 0.0
C4014 C 0.15286 0.8074 0.15504 0.0
C4015 C 0.15412 0.8144 0.15077 0.0
C4016 C 0.14815 0.8201 0.1507 0.0
C4017 C 0.14116 0.81888 0.15474 0.0
C4018 C 0.11368 0.82197 0.16472 0.0
C4019 C 0.11634 0.82944 0.16234 0.0
C4020 C 0.44721 0.90141 0.38657 0.0
C4021 C 0.45382 0.90569 0.38413 0.0
C4022 C 0.46132 0.9029 0.3862 0.0
C4023 C 0.46216 0.89593 0.39053 0.0
H4024 H 0.47762 0.88193 0.40442 0.0
H4025 H 0.4903 0.87654 0.40849 0.0
H4026 H 0.47945 0.85415 0.41324 0.0
H4027 H 0.46676 0.85942 0.40926 0.0
H4028 H 0.44958 0.85575 0.40244 0.0
H4029 H 0.43825 0.84716 0.4002 0.0
H4030 H 0.42413 0.86746 0.39452 0.0
H4031 H 0.43529 0.87599 0.39673 0.0
H4032 H 0.44278 0.89134 0.39252 0.0
H4033 H 0.44135 0.90329 0.38498 0.0
H4034 H 0.46653 0.90611 0.38448 0.0
H4035 H 0.468 0.89386 0.39193 0.0
N4036 N 0.4631 0.88132 0.39991 0.0
N4037 N 0.45718 0.86926 0.40325 0.0
N4038 N 0.44989 0.87905 0.39695 0.0
C4039 C 0.4636 0.87402 0.40323 0.0
C4040 C 0.45029 0.87177 0.40014 0.0
C4041 C 0.45621 0.88386 0.39679 0.0
C4042 C 0.47116 0.87109 0.40641 0.0
C4043 C 0.47789 0.87589 0.40644 0.0
C4044 C 0.48514 0.87285 0.40881 0.0
C4045 C 0.48576 0.86498 0.41121 0.0
C4046 C 0.47904 0.86026 0.41148 0.0
C4047 C 0.4718 0.86329 0.40915 0.0
C4048 C 0.44336 0.86655 0.39971 0.0
C4049 C 0.44403 0.85837 0.40083 0.0
C4050 C 0.43757 0.85346 0.39952 0.0
C4051 C 0.43033 0.85665 0.39721 0.0
C4052 C 0.42961 0.86484 0.3964 0.0
C4053 C 0.43604 0.86972 0.39761 0.0
C4054 C 0.45552 0.89159 0.39282 0.0
C4055 C 0.44805 0.89448 0.39086 0.0
C4056 C 0.37199 0.17719 0.65178 0.0
C4057 C 0.36474 0.17998 0.65438 0.0
C4058 C 0.36422 0.18761 0.65756 0.0
C4059 C 0.37087 0.19254 0.65769 0.0
H4060 H 0.38214 0.21545 0.66494 0.0
H4061 H 0.38405 0.22906 0.66952 0.0
H4062 H 0.40689 0.22947 0.65862 0.0
H4063 H 0.4051 0.21614 0.65412 0.0
H4064 H 0.41208 0.20255 0.64444 0.0
H4065 H 0.422 0.19699 0.63562 0.0
H4066 H 0.40604 0.17821 0.62951 0.0
H4067 H 0.39634 0.18355 0.63834 0.0
H4068 H 0.384 0.17957 0.64977 0.0
H4069 H 0.37255 0.1713 0.64941 0.0
H4070 H 0.35864 0.18986 0.65962 0.0
H4071 H 0.37029 0.19851 0.65984 0.0
N4072 N 0.38573 0.20227 0.65703 0.0
N4073 N 0.39807 0.20376 0.65092 0.0
N4074 N 0.39087 0.19233 0.64896 0.0
C4075 C 0.39233 0.20667 0.65568 0.0
C4076 C 0.39736 0.19661 0.64753 0.0
C4077 C 0.38505 0.19499 0.65367 0.0
C4078 C 0.3934 0.21469 0.65905 0.0
C4079 C 0.38758 0.21844 0.66357 0.0
C4080 C 0.38868 0.22621 0.66622 0.0
C4081 C 0.39558 0.23034 0.66432 0.0
C4082 C 0.40146 0.22648 0.66005 0.0
C4083 C 0.4004 0.21879 0.65748 0.0
C4084 C 0.40343 0.19347 0.64216 0.0
C4085 C 0.41072 0.19722 0.64122 0.0
C4086 C 0.41639 0.19406 0.63615 0.0
C4087 C 0.41486 0.1871 0.63194 0.0
C4088 C 0.40752 0.18346 0.63281 0.0
C4089 C 0.40191 0.18657 0.63787 0.0
C4090 C 0.37807 0.18983 0.65469 0.0
C4091 C 0.37856 0.182 0.65199 0.0
C4092 C 0.05089 0.0962 0.88813 0.0
C4093 C 0.04431 0.09141 0.88711 0.0
C4094 C 0.03728 0.09333 0.89095 0.0
C4095 C 0.03681 0.10013 0.89561 0.0
H4096 H 0.02134 0.11589 0.90615 0.0
H4097 H 0.00882 0.12165 0.90982 0.0
H4098 H 0.02077 0.14146 0.92023 0.0
H4099 H 0.03338 0.13571 0.9166 0.0
H4100 H 0.05129 0.13976 0.90866 0.0
H4101 H 0.06307 0.14769 0.90613 0.0
H4102 H 0.0758 0.12659 0.90006 0.0
H4103 H 0.06425 0.11875 0.90252 0.0
H4104 H 0.0557 0.10645 0.89343 0.0
H4105 H 0.05639 0.09477 0.88526 0.0
H4106 H 0.03214 0.08966 0.89023 0.0
H4107 H 0.03128 0.10158 0.8984 0.0
N4108 N 0.0362 0.11517 0.90423 0.0
N4109 N 0.04265 0.12662 0.90862 0.0
N4110 N 0.04959 0.11682 0.90192 0.0
C4111 C 0.03597 0.12224 0.90801 0.0
C4112 C 0.04951 0.12387 0.90562 0.0
C4113 C 0.04303 0.11242 0.90117 0.0
C4114 C 0.0284 0.12538 0.91097 0.0
C4115 C 0.02135 0.12143 0.90929 0.0
C4116 C 0.01415 0.12474 0.91138 0.0
C4117 C 0.01382 0.13204 0.91524 0.0
C4118 C 0.02085 0.13581 0.91729 0.0
C4119 C 0.02808 0.13253 0.91515 0.0
C4120 C 0.05677 0.12865 0.90562 0.0
C4121 C 0.05665 0.13682 0.90694 0.0
C4122 C 0.06339 0.14136 0.90551 0.0
C4123 C 0.07027 0.13776 0.90272 0.0
C4124 C 0.07051 0.12954 0.90202 0.0
C4125 C 0.06387 0.12505 0.90344 0.0
C4126 C 0.04341 0.10501 0.89658 0.0
C4127 C 0.05047 0.10289 0.89284 0.0
C4128 C 0.36289 0.12836 0.18946 0.0
C4129 C 0.36038 0.13588 0.19181 0.0
C4130 C 0.3584 0.13707 0.19978 0.0
C4131 C 0.35934 0.13104 0.20531 0.0
H4132 H 0.35771 0.12525 0.22961 0.0
H4133 H 0.35704 0.1278 0.24373 0.0
H4134 H 0.37169 0.10747 0.24798 0.0
H4135 H 0.37207 0.10476 0.23404 0.0
H4136 H 0.37673 0.09323 0.22024 0.0
H4137 H 0.3847 0.08235 0.21527 0.0
H4138 H 0.38107 0.09059 0.19149 0.0
H4139 H 0.37304 0.10125 0.19636 0.0
H4140 H 0.36594 0.11671 0.19291 0.0
H4141 H 0.36454 0.1272 0.18342 0.0
H4142 H 0.35626 0.14273 0.20178 0.0
H4143 H 0.35801 0.13226 0.21142 0.0
N4144 N 0.3632 0.11877 0.21673 0.0
N4145 N 0.36907 0.10655 0.21945 0.0
N4146 N 0.36759 0.11074 0.20643 0.0
C4147 C 0.36561 0.11329 0.22206 0.0
C4148 C 0.37005 0.10522 0.21163 0.0
C4149 C 0.36417 0.11751 0.20888 0.0
C4150 C 0.36493 0.11479 0.23065 0.0
C4151 C 0.36073 0.12129 0.23358 0.0
C4152 C 0.36039 0.12279 0.24169 0.0
C4153 C 0.36428 0.11784 0.24707 0.0
C4154 C 0.36845 0.11133 0.2441 0.0
C4155 C 0.36872 0.1098 0.23604 0.0
C4156 C 0.37428 0.09817 0.20872 0.0
C4157 C 0.37755 0.09266 0.21394 0.0
C4158 C 0.38214 0.08644 0.2111 0.0
C4159 C 0.38353 0.0856 0.20298 0.0
C4160 C 0.38003 0.09097 0.19777 0.0
C4161 C 0.37546 0.09715 0.20059 0.0
C4162 C 0.36222 0.12366 0.20299 0.0
C4163 C 0.36376 0.12233 0.19496 0.0
C4164 C 0.1207 0.10368 0.4277 0.0
C4165 C 0.11331 0.10137 0.43046 0.0
C4166 C 0.1127 0.09828 0.43814 0.0
C4167 C 0.11932 0.09799 0.44311 0.0
H4168 H 0.13003 0.09102 0.46648 0.0
H4169 H 0.13164 0.08673 0.48023 0.0
H4170 H 0.15519 0.09599 0.48025 0.0
H4171 H 0.15364 0.10029 0.46684 0.0
H4172 H 0.16037 0.11119 0.45402 0.0
H4173 H 0.17052 0.1198 0.44854 0.0
H4174 H 0.15614 0.1237 0.42799 0.0
H4175 H 0.14619 0.11509 0.43328 0.0
H4176 H 0.13276 0.10534 0.43015 0.0
H4177 H 0.1214 0.10592 0.42177 0.0
H4178 H 0.10706 0.09642 0.4404 0.0
H4179 H 0.11865 0.09591 0.44909 0.0
N4180 N 0.13414 0.09829 0.45299 0.0
N4181 N 0.14667 0.10398 0.4545 0.0
N4182 N 0.13966 0.10599 0.44295 0.0
C4183 C 0.14075 0.09946 0.45744 0.0
C4184 C 0.14616 0.10727 0.44727 0.0
C4185 C 0.13363 0.10155 0.44564 0.0
C4186 C 0.14163 0.09615 0.46554 0.0
C4187 C 0.13556 0.0921 0.46942 0.0
C4188 C 0.13649 0.0896 0.47729 0.0
C4189 C 0.14349 0.09117 0.4814 0.0
C4190 C 0.14964 0.09487 0.47735 0.0
C4191 C 0.14874 0.09733 0.46959 0.0
C4192 C 0.15246 0.11239 0.44409 0.0
C4193 C 0.15941 0.11386 0.44832 0.0
C4194 C 0.16521 0.11882 0.4452 0.0
C4195 C 0.16418 0.12238 0.43779 0.0
C4196 C 0.15722 0.12092 0.43362 0.0
C4197 C 0.15147 0.116 0.43671 0.0
C4198 C 0.12664 0.10073 0.44042 0.0
C4199 C 0.12724 0.10333 0.43257 0.0
C4200 C 0.12122 0.92288 0.69242 0.0
C4201 C 0.1175 0.92767 0.69803 0.0
C4202 C 0.11907 0.92639 0.70606 0.0
C4203 C 0.12405 0.92027 0.70842 0.0
H4204 H 0.13543 0.90935 0.72769 0.0
H4205 H 0.13589 0.90584 0.74153 0.0
H4206 H 0.13994 0.88152 0.73521 0.0
H4207 H 0.13983 0.88511 0.72137 0.0
H4208 H 0.14342 0.88105 0.70304 0.0
H4209 H 0.1449 0.87131 0.69257 0.0
H4210 H 0.13877 0.8889 0.67529 0.0
H4211 H 0.13723 0.89858 0.68565 0.0
H4212 H 0.12874 0.91313 0.69024 0.0
H4213 H 0.12005 0.92361 0.6862 0.0
H4214 H 0.11635 0.93003 0.71052 0.0
H4215 H 0.12498 0.91931 0.71465 0.0
N4216 N 0.13317 0.90644 0.71286 0.0
N4217 N 0.13911 0.89448 0.70926 0.0
N4218 N 0.13451 0.90312 0.69958 0.0
C4219 C 0.13674 0.89959 0.71497 0.0
C4220 C 0.13806 0.89626 0.70153 0.0
C4221 C 0.13204 0.90824 0.70516 0.0
C4222 C 0.13753 0.89751 0.7234 0.0
C4223 C 0.13647 0.90325 0.72925 0.0
C4224 C 0.13667 0.90122 0.73721 0.0
C4225 C 0.13783 0.89336 0.73955 0.0
C4226 C 0.13911 0.88765 0.73369 0.0
C4227 C 0.139 0.8897 0.72572 0.0
C4228 C 0.14006 0.89057 0.69522 0.0
C4229 C 0.1425 0.88287 0.697 0.0
C4230 C 0.14338 0.8773 0.691 0.0
C4231 C 0.14184 0.87932 0.68312 0.0
C4232 C 0.13985 0.88712 0.68132 0.0
C4233 C 0.13898 0.89268 0.68729 0.0
C4234 C 0.12752 0.9153 0.70279 0.0
C4235 C 0.12617 0.9168 0.69476 0.0
C4236 C 0.36145 0.90899 0.92025 0.0
C4237 C 0.35337 0.90999 0.92132 0.0
C4238 C 0.35066 0.91381 0.92814 0.0
C4239 C 0.35597 0.91607 0.93406 0.0
H4240 H 0.35809 0.92245 0.95803 0.0
H4241 H 0.35407 0.92622 0.97128 0.0
H4242 H 0.37828 0.92753 0.97843 0.0
H4243 H 0.38239 0.92361 0.96519 0.0
H4244 H 0.39491 0.91184 0.95508 0.0
H4245 H 0.40727 0.90483 0.9529 0.0
H4246 H 0.39951 0.89852 0.92952 0.0
H4247 H 0.38755 0.90569 0.93152 0.0
H4248 H 0.37288 0.91013 0.92505 0.0
H4249 H 0.36369 0.90614 0.91501 0.0
H4250 H 0.34443 0.91465 0.92907 0.0
H4251 H 0.35372 0.91866 0.93943 0.0
N4252 N 0.36766 0.91896 0.94673 0.0
N4253 N 0.38035 0.91649 0.9517 0.0
N4254 N 0.3771 0.91288 0.93884 0.0
C4255 C 0.37297 0.91944 0.95274 0.0
C4256 C 0.38244 0.91319 0.94471 0.0
C4257 C 0.36975 0.91573 0.93971 0.0
C4258 C 0.37057 0.92262 0.96054 0.0
C4259 C 0.36259 0.92363 0.96236 0.0
C4260 C 0.36027 0.92579 0.96996 0.0
C4261 C 0.36587 0.92714 0.97586 0.0
C4262 C 0.37386 0.92656 0.97396 0.0
C4263 C 0.37619 0.92427 0.96639 0.0
C4264 C 0.39019 0.90937 0.94349 0.0
C4265 C 0.39591 0.90903 0.94945 0.0
C4266 C 0.40297 0.90495 0.94822 0.0
C4267 C 0.40445 0.9011 0.94101 0.0
C4268 C 0.39873 0.90153 0.93508 0.0
C4269 C 0.39177 0.90563 0.93627 0.0
C4270 C 0.36405 0.91457 0.93318 0.0
C4271 C 0.36671 0.91128 0.92607 0.0
C4272 C 0.36264 0.87751 0.31583 0.0
C4273 C 0.36054 0.86984 0.31367 0.0
C4274 C 0.35865 0.86826 0.30577 0.0
C4275 C 0.35935 0.87417 0.30005 0.0
H4276 H 0.35697 0.88015 0.27541 0.0
H4277 H 0.35699 0.87706 0.26129 0.0
H4278 H 0.37229 0.8968 0.257 0.0
H4279 H 0.37223 0.89998 0.27095 0.0
H4280 H 0.37637 0.91207 0.28467 0.0
H4281 H 0.38448 0.92287 0.28964 0.0
H4282 H 0.38114 0.91439 0.31338 0.0
H4283 H 0.37299 0.90384 0.30852 0.0
H4284 H 0.36514 0.88918 0.31208 0.0
H4285 H 0.364 0.87892 0.3219 0.0
H4286 H 0.35701 0.86238 0.30396 0.0
H4287 H 0.35819 0.87271 0.29396 0.0
N4288 N 0.36281 0.88646 0.28831 0.0
N4289 N 0.36874 0.89864 0.28548 0.0
N4290 N 0.36723 0.89458 0.29851 0.0
C4291 C 0.36524 0.8919 0.28293 0.0
C4292 C 0.36973 0.90003 0.29328 0.0
C4293 C 0.36377 0.88781 0.29615 0.0
C4294 C 0.36466 0.89028 0.27435 0.0
C4295 C 0.36028 0.88387 0.27144 0.0
C4296 C 0.36025 0.88212 0.26337 0.0
C4297 C 0.36469 0.88666 0.2581 0.0
C4298 C 0.36887 0.89317 0.26097 0.0
C4299 C 0.36881 0.89499 0.26897 0.0
C4300 C 0.37405 0.90704 0.29617 0.0
C4301 C 0.37729 0.91258 0.29096 0.0
C4302 C 0.38196 0.91875 0.2938 0.0
C4303 C 0.38346 0.9195 0.30191 0.0
C4304 C 0.38001 0.91409 0.30711 0.0
C4305 C 0.37537 0.90797 0.30429 0.0
C4306 C 0.3619 0.88175 0.30216 0.0
C4307 C 0.36328 0.8834 0.31017 0.0
C4308 C 0.36032 0.09465 0.58488 0.0
C4309 C 0.35227 0.09353 0.58378 0.0
C4310 C 0.34961 0.08973 0.57695 0.0
C4311 C 0.35495 0.08751 0.57105 0.0
H4312 H 0.35737 0.08045 0.54713 0.0
H4313 H 0.35357 0.07685 0.53372 0.0
H4314 H 0.37777 0.07755 0.52649 0.0
H4315 H 0.38166 0.08126 0.53983 0.0
H4316 H 0.39409 0.09158 0.55046 0.0
H4317 H 0.40629 0.09886 0.55258 0.0
H4318 H 0.39787 0.10623 0.57543 0.0
H4319 H 0.38606 0.09878 0.57351 0.0
H4320 H 0.37177 0.09361 0.58011 0.0
H4321 H 0.36249 0.09758 0.59011 0.0
H4322 H 0.34339 0.08886 0.57599 0.0
H4323 H 0.35274 0.08491 0.56567 0.0
N4324 N 0.36671 0.08475 0.5584 0.0
N4325 N 0.3794 0.08738 0.55354 0.0
N4326 N 0.37605 0.09084 0.5664 0.0
C4327 C 0.37207 0.08436 0.55243 0.0
C4328 C 0.38141 0.09064 0.56055 0.0
C4329 C 0.36873 0.08794 0.56546 0.0
C4330 C 0.36982 0.08125 0.54457 0.0
C4331 C 0.36191 0.07973 0.54274 0.0
C4332 C 0.35972 0.07765 0.53508 0.0
C4333 C 0.3654 0.0769 0.52915 0.0
C4334 C 0.37332 0.07802 0.53101 0.0
C4335 C 0.37551 0.0802 0.53864 0.0
C4336 C 0.38907 0.09458 0.5618 0.0
C4337 C 0.39491 0.09468 0.55596 0.0
C4338 C 0.40188 0.09891 0.55716 0.0
C4339 C 0.4031 0.10314 0.56419 0.0
C4340 C 0.39727 0.10292 0.57001 0.0
C4341 C 0.3904 0.09867 0.56887 0.0
C4342 C 0.36301 0.08905 0.57196 0.0
C4343 C 0.36562 0.0924 0.57909 0.0
C4344 C 0.12091 0.083 0.81237 0.0
C4345 C 0.11716 0.07815 0.80685 0.0
C4346 C 0.11864 0.07939 0.79879 0.0
C4347 C 0.12358 0.0855 0.79633 0.0
H4348 H 0.12985 0.09877 0.77694 0.0
H4349 H 0.13081 0.10231 0.7632 0.0
H4350 H 0.14744 0.12062 0.769 0.0
H4351 H 0.14617 0.11728 0.78291 0.0
H4352 H 0.14524 0.12373 0.80127 0.0
H4353 H 0.14708 0.13371 0.81138 0.0
H4354 H 0.13723 0.11796 0.82875 0.0
H4355 H 0.13573 0.10792 0.81879 0.0
H4356 H 0.12843 0.09278 0.81441 0.0
H4357 H 0.11981 0.08232 0.81861 0.0
H4358 H 0.1159 0.0757 0.79439 0.0
H4359 H 0.12447 0.0864 0.79009 0.0
N4360 N 0.13302 0.09914 0.7917 0.0
N4361 N 0.13943 0.11087 0.7952 0.0
N4362 N 0.13434 0.10259 0.80495 0.0
C4363 C 0.1369 0.1058 0.78954 0.0
C4364 C 0.13817 0.10928 0.80294 0.0
C4365 C 0.13176 0.09747 0.79942 0.0
C4366 C 0.13792 0.10774 0.78107 0.0
C4367 C 0.13376 0.10353 0.77532 0.0
C4368 C 0.13436 0.10553 0.76737 0.0
C4369 C 0.13926 0.11174 0.7649 0.0
C4370 C 0.14353 0.11588 0.77065 0.0
C4371 C 0.14284 0.11393 0.77864 0.0
C4372 C 0.14022 0.11505 0.80917 0.0
C4373 C 0.14358 0.12235 0.80727 0.0
C4374 C 0.14458 0.1281 0.81307 0.0
C4375 C 0.14217 0.12672 0.82088 0.0
C4376 C 0.13921 0.11926 0.82284 0.0
C4377 C 0.13828 0.11349 0.81707 0.0
C4378 C 0.12711 0.09051 0.80188 0.0
C4379 C 0.12582 0.08908 0.80993 0.0
C4380 C 0.12125 0.90426 0.07773 0.0
C4381 C 0.11359 0.90447 0.07476 0.0
C4382 C 0.11252 0.90558 0.0666 0.0
C4383 C 0.11901 0.90595 0.06149 0.0
H4384 H 0.12984 0.91309 0.03791 0.0
H4385 H 0.13169 0.91731 0.0242 0.0
H4386 H 0.15595 0.91013 0.02538 0.0
H4387 H 0.15412 0.90582 0.03876 0.0
H4388 H 0.16032 0.89403 0.05145 0.0
H4389 H 0.17026 0.88528 0.05711 0.0
H4390 H 0.15524 0.88118 0.07717 0.0
H4391 H 0.14549 0.88991 0.0717 0.0
H4392 H 0.13348 0.90414 0.07522 0.0
H4393 H 0.12232 0.90363 0.08399 0.0
H4394 H 0.10668 0.90577 0.06411 0.0
H4395 H 0.11804 0.90638 0.05521 0.0
N4396 N 0.13416 0.90706 0.0519 0.0
N4397 N 0.14658 0.9011 0.05056 0.0
N4398 N 0.13947 0.89947 0.06214 0.0
C4399 C 0.14076 0.90568 0.04752 0.0
C4400 C 0.14596 0.89794 0.05785 0.0
C4401 C 0.13357 0.90399 0.05932 0.0
C4402 C 0.14177 0.90895 0.03943 0.0
C4403 C 0.13557 0.91245 0.03523 0.0
C4404 C 0.13664 0.9149 0.02738 0.0
C4405 C 0.14393 0.9139 0.0236 0.0
C4406 C 0.15019 0.91078 0.02798 0.0
C4407 C 0.14912 0.90832 0.03572 0.0
C4408 C 0.15211 0.89273 0.06113 0.0
C4409 C 0.15917 0.89128 0.05709 0.0
C4410 C 0.16485 0.88625 0.06031 0.0
C4411 C 0.16357 0.8826 0.06763 0.0
C4412 C 0.1565 0.88403 0.07161 0.0
C4413 C 0.15087 0.88902 0.06842 0.0
C4414 C 0.12665 0.90519 0.06448 0.0
C4415 C 0.12768 0.9046 0.07268 0.0
C4416 C 0.1977 0.37121 0.14979 0.0
C4417 C 0.20402 0.37191 0.15501 0.0
C4418 C 0.211 0.36781 0.15341 0.0
C4419 C 0.21172 0.3633 0.14654 0.0
H4420 H 0.22791 0.35326 0.1312 0.0
H4421 H 0.24064 0.34931 0.12608 0.0
H4422 H 0.22947 0.339 0.10576 0.0
H4423 H 0.21666 0.34294 0.11085 0.0
H4424 H 0.19955 0.35249 0.10564 0.0
H4425 H 0.18813 0.35465 0.09714 0.0
H4426 H 0.17397 0.35949 0.11767 0.0
H4427 H 0.18518 0.35723 0.12606 0.0
H4428 H 0.19336 0.36638 0.13912 0.0
H4429 H 0.1922 0.37419 0.15095 0.0
H4430 H 0.21596 0.36825 0.15737 0.0
H4431 H 0.21721 0.36033 0.14536 0.0
N4432 N 0.21301 0.35521 0.13129 0.0
N4433 N 0.20718 0.35137 0.11933 0.0
N4434 N 0.19981 0.35799 0.12887 0.0
C4435 C 0.21358 0.35164 0.12413 0.0
C4436 C 0.20025 0.35451 0.12172 0.0
C4437 C 0.20611 0.35839 0.13369 0.0
C4438 C 0.22124 0.34852 0.12139 0.0
C4439 C 0.22812 0.35007 0.12568 0.0
C4440 C 0.23543 0.34782 0.12275 0.0
C4441 C 0.23604 0.34391 0.1155 0.0
C4442 C 0.22916 0.34198 0.11139 0.0
C4443 C 0.22183 0.3443 0.11428 0.0
C4444 C 0.1933 0.35475 0.11652 0.0
C4445 C 0.19395 0.35386 0.10832 0.0
C4446 C 0.18744 0.35515 0.10346 0.0
C4447 C 0.18015 0.35724 0.10673 0.0
C4448 C 0.17945 0.35777 0.11495 0.0
C4449 C 0.18593 0.35655 0.11977 0.0
C4450 C 0.20542 0.36275 0.14122 0.0
C4451 C 0.19837 0.36668 0.14301 0.0
C4452 C 0.69749 0.13711 0.85344 0.0
C4453 C 0.70403 0.13365 0.8498 0.0
C4454 C 0.71154 0.13518 0.85289 0.0
C4455 C 0.71242 0.1398 0.85967 0.0
H4456 H 0.72808 0.15321 0.87365 0.0
H4457 H 0.74075 0.15718 0.87907 0.0
H4458 H 0.72946 0.16459 0.90051 0.0
H4459 H 0.71675 0.16058 0.89523 0.0
H4460 H 0.69924 0.15336 0.89909 0.0
H4461 H 0.68772 0.15128 0.90745 0.0
H4462 H 0.67423 0.14471 0.88697 0.0
H4463 H 0.68551 0.1469 0.87869 0.0
H4464 H 0.69314 0.14405 0.86293 0.0
H4465 H 0.69164 0.13628 0.8511 0.0
H4466 H 0.71671 0.1326 0.85024 0.0
H4467 H 0.71824 0.14067 0.86207 0.0
N4468 N 0.71334 0.14997 0.87382 0.0
N4469 N 0.70729 0.15357 0.88574 0.0
N4470 N 0.70005 0.14731 0.87588 0.0
C4471 C 0.71379 0.15337 0.88107 0.0
C4472 C 0.70038 0.15056 0.88314 0.0
C4473 C 0.70645 0.14697 0.87118 0.0
C4474 C 0.72137 0.15648 0.88403 0.0
C4475 C 0.72824 0.15577 0.87948 0.0
C4476 C 0.73549 0.15807 0.88255 0.0
C4477 C 0.736 0.16122 0.89015 0.0
C4478 C 0.72915 0.16225 0.89459 0.0
C4479 C 0.7219 0.1599 0.89156 0.0
C4480 C 0.69333 0.15025 0.88822 0.0
C4481 C 0.69377 0.15161 0.89637 0.0
C4482 C 0.68719 0.15038 0.90117 0.0
C4483 C 0.68006 0.14784 0.89788 0.0
C4484 C 0.67958 0.14679 0.8897 0.0
C4485 C 0.68611 0.14798 0.88494 0.0
C4486 C 0.70581 0.14291 0.8635 0.0
C4487 C 0.69836 0.14163 0.86021 0.0
C4488 C 0.11202 0.43914 0.12788 0.0
C4489 C 0.11032 0.44131 0.1201 0.0
C4490 C 0.10885 0.44928 0.1184 0.0
C4491 C 0.10956 0.45502 0.12429 0.0
H4492 H 0.10656 0.47951 0.13047 0.0
H4493 H 0.10647 0.4936 0.12728 0.0
H4494 H 0.12226 0.49808 0.14656 0.0
H4495 H 0.12229 0.48414 0.14989 0.0
H4496 H 0.12639 0.47047 0.16212 0.0
H4497 H 0.13449 0.46557 0.17294 0.0
H4498 H 0.13098 0.44176 0.16473 0.0
H4499 H 0.12283 0.44656 0.15415 0.0
H4500 H 0.11424 0.4429 0.13961 0.0
H4501 H 0.11302 0.43303 0.12941 0.0
H4502 H 0.10754 0.45113 0.11245 0.0
H4503 H 0.10873 0.46114 0.12272 0.0
N4504 N 0.11266 0.4667 0.13665 0.0
N4505 N 0.11865 0.46958 0.14879 0.0
N4506 N 0.11713 0.45652 0.14478 0.0
C4507 C 0.11511 0.4721 0.14206 0.0
C4508 C 0.11964 0.46178 0.15021 0.0
C4509 C 0.11364 0.45887 0.13802 0.0
C4510 C 0.11448 0.48066 0.1404 0.0
C4511 C 0.10995 0.48351 0.13408 0.0
C4512 C 0.10985 0.49156 0.13227 0.0
C4513 C 0.11438 0.49686 0.13667 0.0
C4514 C 0.11874 0.49407 0.14308 0.0
C4515 C 0.11874 0.48608 0.14497 0.0
C4516 C 0.12398 0.45893 0.15722 0.0
C4517 C 0.12727 0.46419 0.16269 0.0
C4518 C 0.13194 0.46138 0.16887 0.0
C4519 C 0.13338 0.45327 0.16971 0.0
C4520 C 0.12989 0.44803 0.16437 0.0
C4521 C 0.12525 0.45081 0.15823 0.0
C4522 C 0.11172 0.45287 0.13198 0.0
C4523 C 0.11269 0.44483 0.13374 0.0
C4524 C 0.80203 0.86443 0.3452 0.0
C4525 C 0.79546 0.86815 0.34187 0.0
C4526 C 0.78802 0.86669 0.34516 0.0
C4527 C 0.78723 0.86187 0.35181 0.0
H4528 H 0.77148 0.84962 0.36628 0.0
H4529 H 0.7589 0.84585 0.37188 0.0
H4530 H 0.77071 0.83515 0.39164 0.0
H4531 H 0.78335 0.83886 0.38604 0.0
H4532 H 0.80094 0.8469 0.39033 0.0
H4533 H 0.81271 0.84838 0.39845 0.0
H4534 H 0.8262 0.85391 0.37766 0.0
H4535 H 0.81461 0.85235 0.3696 0.0
H4536 H 0.8065 0.85709 0.35432 0.0
H4537 H 0.80782 0.8652 0.3427 0.0
H4538 H 0.78283 0.86947 0.34276 0.0
H4539 H 0.78147 0.86104 0.35435 0.0
N4540 N 0.78643 0.85127 0.36558 0.0
N4541 N 0.79269 0.84689 0.37712 0.0
N4542 N 0.79988 0.85331 0.36731 0.0
C4543 C 0.78607 0.84757 0.37269 0.0
C4544 C 0.79963 0.84974 0.37443 0.0
C4545 C 0.79336 0.85411 0.36284 0.0
C4546 C 0.77845 0.84465 0.37576 0.0
C4547 C 0.77144 0.84639 0.37178 0.0
C4548 C 0.76421 0.84425 0.37499 0.0
C4549 C 0.76382 0.84027 0.38223 0.0
C4550 C 0.77083 0.83818 0.38603 0.0
C4551 C 0.77807 0.84037 0.38284 0.0
C4552 C 0.80681 0.84958 0.37932 0.0
C4553 C 0.80645 0.84829 0.38749 0.0
C4554 C 0.81317 0.84918 0.39214 0.0
C4555 C 0.82037 0.85127 0.3887 0.0
C4556 C 0.82078 0.85219 0.3805 0.0
C4557 C 0.81409 0.85137 0.37587 0.0
C4558 C 0.79388 0.85847 0.35532 0.0
C4559 C 0.80126 0.85971 0.35185 0.0
C4560 C 0.87077 0.06312 0.17247 0.0
C4561 C 0.86732 0.05755 0.1775 0.0
C4562 C 0.86916 0.04954 0.17647 0.0
C4563 C 0.87415 0.04716 0.17039 0.0
H4564 H 0.88139 0.02779 0.15823 0.0
H4565 H 0.88177 0.01398 0.15469 0.0
H4566 H 0.89445 0.0197 0.13343 0.0
H4567 H 0.89421 0.0336 0.13705 0.0
H4568 H 0.89351 0.05206 0.13112 0.0
H4569 H 0.89498 0.06245 0.1213 0.0
H4570 H 0.88953 0.07992 0.13892 0.0
H4571 H 0.88798 0.06963 0.14868 0.0
H4572 H 0.8781 0.06523 0.16256 0.0
H4573 H 0.86939 0.06931 0.173 0.0
H4574 H 0.86664 0.04512 0.18031 0.0
H4575 H 0.87532 0.04093 0.16965 0.0
N4576 N 0.88317 0.04255 0.15655 0.0
N4577 N 0.88947 0.04598 0.14473 0.0
N4578 N 0.88466 0.05579 0.15313 0.0
C4579 C 0.88693 0.04035 0.14984 0.0
C4580 C 0.88838 0.05374 0.14639 0.0
C4581 C 0.88203 0.05027 0.15825 0.0
C4582 C 0.8877 0.03186 0.14788 0.0
C4583 C 0.88432 0.02614 0.15282 0.0
C4584 C 0.88448 0.0182 0.15076 0.0
C4585 C 0.88803 0.01573 0.14371 0.0
C4586 C 0.89168 0.0214 0.13891 0.0
C4587 C 0.8915 0.02938 0.14097 0.0
C4588 C 0.89048 0.05998 0.14066 0.0
C4589 C 0.89275 0.05813 0.13293 0.0
C4590 C 0.89362 0.06409 0.1273 0.0
C4591 C 0.89225 0.072 0.12931 0.0
C4592 C 0.89046 0.07387 0.13715 0.0
C4593 C 0.8896 0.06795 0.14276 0.0
C4594 C 0.87739 0.05273 0.1652 0.0
C4595 C 0.87574 0.06075 0.16642 0.0
C4596 C 0.3012 0.64192 0.66091 0.0
C4597 C 0.29482 0.63748 0.66367 0.0
C4598 C 0.2875 0.63833 0.65991 0.0
C4599 C 0.28672 0.64323 0.65331 0.0
H4600 H 0.27111 0.65639 0.63842 0.0
H4601 H 0.25888 0.66033 0.63222 0.0
H4602 H 0.27186 0.67035 0.6128 0.0
H4603 H 0.28405 0.66619 0.61885 0.0
H4604 H 0.30149 0.65767 0.6153 0.0
H4605 H 0.31341 0.65509 0.60766 0.0
H4606 H 0.32618 0.65102 0.62923 0.0
H4607 H 0.3144 0.65342 0.63679 0.0
H4608 H 0.30556 0.64985 0.65224 0.0
H4609 H 0.30685 0.64164 0.66379 0.0
H4610 H 0.28246 0.635 0.66188 0.0
H4611 H 0.2811 0.64354 0.65035 0.0
N4612 N 0.2861 0.6543 0.63969 0.0
N4613 N 0.2928 0.65842 0.6283 0.0
N4614 N 0.29961 0.65223 0.63849 0.0
C4615 C 0.28602 0.65786 0.6325 0.0
C4616 C 0.29963 0.65563 0.6313 0.0
C4617 C 0.29293 0.65152 0.64273 0.0
C4618 C 0.27858 0.66084 0.62909 0.0
C4619 C 0.27137 0.65947 0.63285 0.0
C4620 C 0.26433 0.6618 0.62931 0.0
C4621 C 0.26435 0.66559 0.62195 0.0
C4622 C 0.27159 0.66728 0.61838 0.0
C4623 C 0.27861 0.66491 0.62188 0.0
C4624 C 0.30696 0.65557 0.62664 0.0
C4625 C 0.30689 0.65636 0.6184 0.0
C4626 C 0.31371 0.6549 0.61402 0.0
C4627 C 0.32067 0.65265 0.61784 0.0
C4628 C 0.32084 0.65251 0.6261 0.0
C4629 C 0.31408 0.65391 0.63044 0.0
C4630 C 0.29325 0.64728 0.65033 0.0
C4631 C 0.30044 0.6467 0.65431 0.0
C4632 C 0.11222 0.5656 0.37815 0.0
C4633 C 0.11062 0.56329 0.38588 0.0
C4634 C 0.10939 0.5553 0.38758 0.0
C4635 C 0.11014 0.54964 0.38164 0.0
H4636 H 0.10907 0.52538 0.37651 0.0
H4637 H 0.10838 0.51128 0.3791 0.0
H4638 H 0.12009 0.50672 0.357 0.0
H4639 H 0.12052 0.52067 0.3543 0.0
H4640 H 0.12655 0.53463 0.34346 0.0
H4641 H 0.13451 0.53962 0.33258 0.0
H4642 H 0.1311 0.56336 0.34101 0.0
H4643 H 0.12308 0.55847 0.35166 0.0
H4644 H 0.11439 0.56198 0.36635 0.0
H4645 H 0.11322 0.57174 0.37676 0.0
H4646 H 0.10822 0.55343 0.39356 0.0
H4647 H 0.10949 0.54349 0.38317 0.0
N4648 N 0.1132 0.53814 0.36914 0.0
N4649 N 0.11902 0.53539 0.35689 0.0
N4650 N 0.11751 0.54841 0.36104 0.0
C4651 C 0.11559 0.53279 0.36366 0.0
C4652 C 0.11998 0.54321 0.35554 0.0
C4653 C 0.11411 0.54598 0.36783 0.0
C4654 C 0.11486 0.5242 0.36519 0.0
C4655 C 0.11144 0.52136 0.37217 0.0
C4656 C 0.11109 0.51326 0.37369 0.0
C4657 C 0.11416 0.5078 0.36827 0.0
C4658 C 0.1175 0.51068 0.36127 0.0
C4659 C 0.11781 0.51874 0.35973 0.0
C4660 C 0.12421 0.54613 0.34849 0.0
C4661 C 0.12742 0.54092 0.34293 0.0
C4662 C 0.13201 0.54377 0.33671 0.0
C4663 C 0.13345 0.55189 0.33592 0.0
C4664 C 0.13001 0.55709 0.34134 0.0
C4665 C 0.12545 0.55425 0.34752 0.0
C4666 C 0.11215 0.5519 0.37393 0.0
C4667 C 0.11293 0.55998 0.37222 0.0
C4668 C 0.37126 0.44341 0.83272 0.0
C4669 C 0.36735 0.44896 0.82803 0.0
C4670 C 0.3687 0.45702 0.82942 0.0
C4671 C 0.37367 0.45945 0.83553 0.0
H4672 H 0.38539 0.4789 0.84668 0.0
H4673 H 0.38655 0.4927 0.85053 0.0
H4674 H 0.39244 0.48564 0.87419 0.0
H4675 H 0.39135 0.47185 0.87039 0.0
H4676 H 0.39364 0.45361 0.87445 0.0
H4677 H 0.39505 0.44303 0.88408 0.0
H4678 H 0.38839 0.42604 0.86641 0.0
H4679 H 0.38691 0.43652 0.85684 0.0
H4680 H 0.37893 0.4413 0.84235 0.0
H4681 H 0.37028 0.43717 0.83194 0.0
H4682 H 0.36582 0.46145 0.82586 0.0
H4683 H 0.37444 0.46568 0.83658 0.0
N4684 N 0.38329 0.46388 0.84925 0.0
N4685 N 0.38936 0.46004 0.86108 0.0
N4686 N 0.38438 0.45054 0.85249 0.0
C4687 C 0.38705 0.46584 0.85606 0.0
C4688 C 0.38808 0.45235 0.85929 0.0
C4689 C 0.38195 0.4562 0.84743 0.0
C4690 C 0.38821 0.47424 0.85823 0.0
C4691 C 0.38698 0.48027 0.85269 0.0
C4692 C 0.3877 0.48818 0.85488 0.0
C4693 C 0.38955 0.49024 0.86267 0.0
C4694 C 0.39094 0.48423 0.86816 0.0
C4695 C 0.39033 0.47632 0.86596 0.0
C4696 C 0.39003 0.44596 0.8649 0.0
C4697 C 0.39258 0.44761 0.87259 0.0
C4698 C 0.39342 0.44154 0.8781 0.0
C4699 C 0.39171 0.43371 0.87602 0.0
C4700 C 0.38959 0.43203 0.86823 0.0
C4701 C 0.38877 0.43806 0.86273 0.0
C4702 C 0.37736 0.45386 0.84039 0.0
C4703 C 0.3762 0.44581 0.83878 0.0
C4704 C 0.86067 0.80719 0.62735 0.0
C4705 C 0.85343 0.80343 0.62859 0.0
C4706 C 0.85326 0.79644 0.63303 0.0
C4707 C 0.8602 0.7931 0.63584 0.0
H4708 H 0.8695 0.77275 0.64581 0.0
H4709 H 0.8689 0.75863 0.64813 0.0
H4710 H 0.89311 0.75648 0.6409 0.0
H4711 H 0.89379 0.77058 0.6389 0.0
H4712 H 0.90325 0.78615 0.63306 0.0
H4713 H 0.9146 0.79276 0.62724 0.0
H4714 H 0.90199 0.8148 0.62755 0.0
H4715 H 0.89079 0.80831 0.63343 0.0
H4716 H 0.87305 0.80686 0.62894 0.0
H4717 H 0.86107 0.81252 0.62389 0.0
H4718 H 0.84777 0.79349 0.63425 0.0
H4719 H 0.85988 0.78759 0.63904 0.0
N4720 N 0.87495 0.78517 0.6389 0.0
N4721 N 0.88872 0.78499 0.63837 0.0
N4722 N 0.88181 0.7964 0.63494 0.0
C4723 C 0.88182 0.78126 0.63996 0.0
C4724 C 0.88873 0.79262 0.63595 0.0
C4725 C 0.8749 0.79275 0.63639 0.0
C4726 C 0.88169 0.7728 0.64211 0.0
C4727 C 0.87473 0.76927 0.6448 0.0
C4728 C 0.87436 0.76115 0.64609 0.0
C4729 C 0.88092 0.75635 0.64465 0.0
C4730 C 0.88795 0.75995 0.6422 0.0
C4731 C 0.88834 0.76808 0.641 0.0
C4732 C 0.89607 0.79667 0.63362 0.0
C4733 C 0.90297 0.79243 0.63204 0.0
C4734 C 0.90946 0.79621 0.62867 0.0
C4735 C 0.90918 0.80429 0.62689 0.0
C4736 C 0.90245 0.80859 0.62892 0.0
C4737 C 0.89598 0.80483 0.63223 0.0
C4738 C 0.86746 0.7967 0.63432 0.0
C4739 C 0.86758 0.80389 0.63023 0.0
C4740 C 0.93369 0.11831 0.39256 0.0
C4741 C 0.93604 0.11072 0.39476 0.0
C4742 C 0.94393 0.10943 0.3968 0.0
C4743 C 0.94945 0.11553 0.39615 0.0
H4744 H 0.97415 0.12016 0.39198 0.0
H4745 H 0.98836 0.11836 0.3915 0.0
H4746 H 0.9914 0.14358 0.39027 0.0
H4747 H 0.97731 0.14533 0.39043 0.0
H4748 H 0.96283 0.15231 0.37673 0.0
H4749 H 0.95686 0.16278 0.36882 0.0
H4750 H 0.93452 0.15833 0.37988 0.0
H4751 H 0.94039 0.14787 0.3877 0.0
H4752 H 0.93705 0.13008 0.39005 0.0
H4753 H 0.92762 0.11951 0.39108 0.0
H4754 H 0.9459 0.10362 0.39853 0.0
H4755 H 0.95554 0.11429 0.39745 0.0
N4756 N 0.9608 0.12825 0.39261 0.0
N4757 N 0.96309 0.14092 0.38748 0.0
N4758 N 0.95027 0.1363 0.3889 0.0
C4759 C 0.96593 0.13406 0.39052 0.0
C4760 C 0.95526 0.14208 0.38668 0.0
C4761 C 0.95292 0.12938 0.39185 0.0
C4762 C 0.97456 0.13288 0.3911 0.0
C4763 C 0.97786 0.12532 0.39166 0.0
C4764 C 0.98603 0.12429 0.39142 0.0
C4765 C 0.99109 0.13081 0.39069 0.0
C4766 C 0.98774 0.13839 0.39058 0.0
C4767 C 0.97962 0.1394 0.39072 0.0
C4768 C 0.95207 0.1492 0.38279 0.0
C4769 C 0.95668 0.15367 0.37758 0.0
C4770 C 0.95327 0.15963 0.37303 0.0
C4771 C 0.94523 0.16134 0.37373 0.0
C4772 C 0.94074 0.15718 0.37926 0.0
C4773 C 0.94411 0.15115 0.3837 0.0
C4774 C 0.94714 0.12303 0.39352 0.0
C4775 C 0.93914 0.12438 0.39198 0.0
C4776 C 0.59852 0.20544 0.12863 0.0
C4777 C 0.59175 0.20955 0.12637 0.0
C4778 C 0.59147 0.21775 0.12752 0.0
C4779 C 0.598 0.22179 0.1305 0.0
H4780 H 0.60695 0.24366 0.13918 0.0
H4781 H 0.60741 0.25794 0.1402 0.0
H4782 H 0.63272 0.2572 0.13913 0.0
H4783 H 0.63228 0.24296 0.13842 0.0
H4784 H 0.64121 0.22675 0.13706 0.0
H4785 H 0.65329 0.22022 0.13308 0.0
H4786 H 0.63977 0.20079 0.1238 0.0
H4787 H 0.62781 0.20711 0.12807 0.0
H4788 H 0.61022 0.20608 0.13297 0.0
H4789 H 0.59899 0.19915 0.12775 0.0
H4790 H 0.5863 0.22107 0.1259 0.0
H4791 H 0.59772 0.22813 0.13103 0.0
N4792 N 0.61239 0.22971 0.13601 0.0
N4793 N 0.62616 0.22947 0.13637 0.0
N4794 N 0.61919 0.21801 0.13348 0.0
C4795 C 0.61933 0.23352 0.13717 0.0
C4796 C 0.62613 0.22171 0.13453 0.0
C4797 C 0.6123 0.2219 0.13423 0.0
C4798 C 0.61956 0.24214 0.1386 0.0
C4799 C 0.61262 0.24653 0.13926 0.0
C4800 C 0.61289 0.25474 0.1398 0.0
C4801 C 0.6201 0.25876 0.13962 0.0
C4802 C 0.62705 0.25433 0.13935 0.0
C4803 C 0.62679 0.24613 0.13887 0.0
C4804 C 0.63353 0.21749 0.13284 0.0
C4805 C 0.64084 0.22104 0.13426 0.0
C4806 C 0.64776 0.21732 0.13192 0.0
C4807 C 0.64752 0.21 0.12804 0.0
C4808 C 0.64022 0.20636 0.12686 0.0
C4809 C 0.63333 0.21003 0.12928 0.0
C4810 C 0.60493 0.2177 0.13232 0.0
C4811 C 0.60501 0.20946 0.13157 0.0
C4812 C 0.57943 0.87609 0.89592 0.0
C4813 C 0.57696 0.88316 0.89937 0.0
C4814 C 0.5697 0.88333 0.90333 0.0
C4815 C 0.56483 0.87666 0.90341 0.0
H4816 H 0.54194 0.86765 0.90913 0.0
H4817 H 0.52864 0.86702 0.91445 0.0
H4818 H 0.52668 0.84293 0.90659 0.0
H4819 H 0.53993 0.8435 0.9014 0.0
H4820 H 0.55119 0.83791 0.88664 0.0
H4821 H 0.55568 0.82839 0.87675 0.0
H4822 H 0.57819 0.83997 0.87596 0.0
H4823 H 0.57384 0.84932 0.88575 0.0
H4824 H 0.57674 0.86422 0.89311 0.0
H4825 H 0.58505 0.8757 0.89298 0.0
H4826 H 0.56766 0.88871 0.90606 0.0
H4827 H 0.55915 0.87704 0.90624 0.0
N4828 N 0.5547 0.86244 0.90227 0.0
N4829 N 0.55235 0.85019 0.89618 0.0
N4830 N 0.56411 0.85685 0.89395 0.0
C4831 C 0.54992 0.85609 0.90106 0.0
C4832 C 0.55946 0.85055 0.89261 0.0
C4833 C 0.56186 0.8628 0.89873 0.0
C4834 C 0.54202 0.85565 0.90476 0.0
C4835 C 0.53871 0.86219 0.9086 0.0
C4836 C 0.53106 0.86185 0.91161 0.0
C4837 C 0.52657 0.85493 0.91093 0.0
C4838 C 0.52998 0.84833 0.90731 0.0
C4839 C 0.53759 0.84868 0.90426 0.0
C4840 C 0.56213 0.8444 0.887 0.0
C4841 C 0.55711 0.83837 0.8844 0.0
C4842 C 0.55967 0.83295 0.87872 0.0
C4843 C 0.5673 0.83342 0.87562 0.0
C4844 C 0.57232 0.83937 0.87832 0.0
C4845 C 0.56978 0.84478 0.88392 0.0
C4846 C 0.56716 0.86971 0.89957 0.0
C4847 C 0.57462 0.86947 0.89602 0.0
C4848 C 0.86101 0.19783 0.87782 0.0
C4849 C 0.85375 0.20153 0.87656 0.0
C4850 C 0.85352 0.20845 0.87202 0.0
C4851 C 0.86043 0.2118 0.86914 0.0
H4852 H 0.86888 0.23244 0.86108 0.0
H4853 H 0.868 0.24655 0.85906 0.0
H4854 H 0.8931 0.24856 0.86165 0.0
H4855 H 0.89405 0.23436 0.86365 0.0
H4856 H 0.90325 0.21925 0.87221 0.0
H4857 H 0.91459 0.21273 0.87816 0.0
H4858 H 0.90248 0.19044 0.87692 0.0
H4859 H 0.89131 0.19685 0.8709 0.0
H4860 H 0.87339 0.19821 0.8762 0.0
H4861 H 0.86144 0.19255 0.88135 0.0
H4862 H 0.84801 0.21136 0.87077 0.0
H4863 H 0.86007 0.21725 0.86586 0.0
N4864 N 0.87506 0.2198 0.866 0.0
N4865 N 0.88882 0.22017 0.86639 0.0
N4866 N 0.88207 0.20869 0.86996 0.0
C4867 C 0.88186 0.2238 0.86485 0.0
C4868 C 0.88894 0.21255 0.86887 0.0
C4869 C 0.87512 0.21225 0.86856 0.0
C4870 C 0.88154 0.23225 0.86266 0.0
C4871 C 0.87425 0.23584 0.86115 0.0
C4872 C 0.87373 0.24395 0.86 0.0
C4873 C 0.88046 0.24868 0.86029 0.0
C4874 C 0.8878 0.24506 0.86136 0.0
C4875 C 0.88834 0.23692 0.86255 0.0
C4876 C 0.89633 0.2086 0.87118 0.0
C4877 C 0.90309 0.21293 0.87304 0.0
C4878 C 0.90956 0.20921 0.87649 0.0
C4879 C 0.90941 0.20108 0.87806 0.0
C4880 C 0.90284 0.19669 0.87572 0.0
C4881 C 0.89639 0.2004 0.87233 0.0
C4882 C 0.86771 0.20825 0.87069 0.0
C4883 C 0.8679 0.20112 0.87488 0.0
C4884 C 0.58011 0.12931 0.60882 0.0
C4885 C 0.57752 0.1223 0.60533 0.0
C4886 C 0.57033 0.1223 0.60126 0.0
C4887 C 0.56563 0.1291 0.60109 0.0
H4888 H 0.54251 0.13827 0.59621 0.0
H4889 H 0.52892 0.13915 0.59154 0.0
H4890 H 0.52836 0.16377 0.59753 0.0
H4891 H 0.54183 0.16299 0.60227 0.0
H4892 H 0.55199 0.16685 0.6191 0.0
H4893 H 0.55626 0.17548 0.62985 0.0
H4894 H 0.5797 0.16606 0.62794 0.0
H4895 H 0.5755 0.15747 0.61738 0.0
H4896 H 0.57769 0.14125 0.61156 0.0
H4897 H 0.5857 0.12955 0.61184 0.0
H4898 H 0.5682 0.11697 0.5985 0.0
H4899 H 0.56 0.12886 0.59817 0.0
N4900 N 0.5558 0.14351 0.60215 0.0
N4901 N 0.55365 0.15581 0.60819 0.0
N4902 N 0.5653 0.14898 0.61045 0.0
C4903 C 0.55115 0.14996 0.60332 0.0
C4904 C 0.56075 0.15536 0.61175 0.0
C4905 C 0.56295 0.14304 0.60569 0.0
C4906 C 0.54325 0.15053 0.5997 0.0
C4907 C 0.53954 0.1439 0.59643 0.0
C4908 C 0.53179 0.14438 0.59375 0.0
C4909 C 0.52769 0.15153 0.59418 0.0
C4910 C 0.53146 0.15822 0.59712 0.0
C4911 C 0.53916 0.15773 0.59987 0.0
C4912 C 0.56337 0.16138 0.61746 0.0
C4913 C 0.55808 0.16672 0.62091 0.0
C4914 C 0.56052 0.17166 0.62705 0.0
C4915 C 0.56827 0.17132 0.62982 0.0
C4916 C 0.57363 0.16631 0.62606 0.0
C4917 C 0.57122 0.1614 0.61998 0.0
C4918 C 0.56808 0.136 0.60495 0.0
C4919 C 0.57548 0.13605 0.60862 0.0
C4920 C 0.59796 0.79932 0.37593 0.0
C4921 C 0.59145 0.79513 0.37877 0.0
C4922 C 0.5914 0.78688 0.3781 0.0
C4923 C 0.59791 0.78288 0.37504 0.0
H4924 H 0.60692 0.7612 0.36601 0.0
H4925 H 0.60748 0.74692 0.36511 0.0
H4926 H 0.63279 0.74783 0.36604 0.0
H4927 H 0.63225 0.76208 0.36666 0.0
H4928 H 0.64098 0.7789 0.36726 0.0
H4929 H 0.653 0.78553 0.37126 0.0
H4930 H 0.63926 0.80383 0.38233 0.0
H4931 H 0.62735 0.79746 0.37803 0.0
H4932 H 0.60949 0.79877 0.37111 0.0
H4933 H 0.59824 0.80566 0.37643 0.0
H4934 H 0.58643 0.7835 0.38017 0.0
H4935 H 0.59783 0.77651 0.3749 0.0
N4936 N 0.61223 0.77517 0.36905 0.0
N4937 N 0.626 0.77556 0.36876 0.0
N4938 N 0.61888 0.78696 0.37159 0.0
C4939 C 0.61922 0.77144 0.36793 0.0
C4940 C 0.62587 0.78333 0.37059 0.0
C4941 C 0.61204 0.78298 0.3708 0.0
C4942 C 0.61953 0.76282 0.36654 0.0
C4943 C 0.61261 0.75837 0.36593 0.0
C4944 C 0.61294 0.75016 0.36546 0.0
C4945 C 0.62018 0.74619 0.36564 0.0
C4946 C 0.6271 0.75066 0.36584 0.0
C4947 C 0.62678 0.75887 0.36626 0.0
C4948 C 0.6332 0.78762 0.37235 0.0
C4949 C 0.64054 0.78439 0.37046 0.0
C4950 C 0.64744 0.78817 0.37282 0.0
C4951 C 0.64713 0.79519 0.3772 0.0
C4952 C 0.63977 0.79851 0.37887 0.0
C4953 C 0.6329 0.79481 0.37643 0.0
C4954 C 0.60461 0.78707 0.37268 0.0
C4955 C 0.60446 0.79534 0.37294 0.0
C4956 C 0.93408 0.88499 0.11162 0.0
C4957 C 0.93628 0.89265 0.10956 0.0
C4958 C 0.94417 0.89421 0.10772 0.0
C4959 C 0.94985 0.88827 0.10844 0.0
H4960 H 0.97462 0.88414 0.11301 0.0
H4961 H 0.9888 0.88616 0.11362 0.0
H4962 H 0.99223 0.86099 0.11481 0.0
H4963 H 0.97817 0.85902 0.11452 0.0
H4964 H 0.96352 0.852 0.12844 0.0
H4965 H 0.95747 0.84165 0.13644 0.0
H4966 H 0.93533 0.84572 0.12481 0.0
H4967 H 0.94131 0.85596 0.11685 0.0
H4968 H 0.9377 0.8733 0.11406 0.0
H4969 H 0.92802 0.88362 0.11297 0.0
H4970 H 0.94599 0.9001 0.10611 0.0
H4971 H 0.95593 0.8897 0.10732 0.0
N4972 N 0.96143 0.87579 0.11209 0.0
N4973 N 0.96388 0.86323 0.11745 0.0
N4974 N 0.95101 0.86758 0.11573 0.0
C4975 C 0.96663 0.8701 0.11436 0.0
C4976 C 0.95605 0.86193 0.11812 0.0
C4977 C 0.95357 0.8745 0.11274 0.0
C4978 C 0.97523 0.87142 0.11386 0.0
C4979 C 0.97842 0.87905 0.11335 0.0
C4980 C 0.98656 0.8802 0.11366 0.0
C4981 C 0.99171 0.87376 0.11442 0.0
C4982 C 0.98849 0.86613 0.11449 0.0
C4983 C 0.98039 0.86499 0.11428 0.0
C4984 C 0.95289 0.85484 0.12206 0.0
C4985 C 0.95741 0.85056 0.12749 0.0
C4986 C 0.95394 0.84468 0.1321 0.0
C4987 C 0.94592 0.84291 0.13128 0.0
C4988 C 0.94153 0.8469 0.12554 0.0
C4989 C 0.94496 0.85281 0.12101 0.0
C4990 C 0.94768 0.88068 0.11092 0.0
C4991 C 0.93968 0.87908 0.11224 0.0
C4992 C 0.64625 0.8557 0.8115 0.0
C4993 C 0.64637 0.85013 0.80539 0.0
C4994 C 0.65097 0.85173 0.79868 0.0
C4995 C 0.65535 0.85871 0.79814 0.0
H4996 H 0.67031 0.87326 0.78361 0.0
H4997 H 0.67522 0.87839 0.77119 0.0
H4998 H 0.67495 0.90194 0.78087 0.0
H4999 H 0.67047 0.89675 0.79335 0.0
H5000 H 0.66344 0.89979 0.81106 0.0
H5001 H 0.65978 0.90782 0.82245 0.0
H5002 H 0.65816 0.88679 0.83667 0.0
H5003 H 0.66151 0.87883 0.82534 0.0
H5004 H 0.65032 0.86666 0.81588 0.0
H5005 H 0.64264 0.85485 0.81667 0.0
H5006 H 0.65126 0.84755 0.79388 0.0
H5007 H 0.65881 0.85978 0.79291 0.0
N5008 N 0.66305 0.87433 0.79717 0.0
N5009 N 0.66644 0.88623 0.80344 0.0
N5010 N 0.65978 0.87643 0.81038 0.0
C5011 C 0.66651 0.88157 0.79691 0.0
C5012 C 0.66316 0.88362 0.81022 0.0
C5013 C 0.65963 0.87175 0.80394 0.0
C5014 C 0.66991 0.88459 0.78947 0.0
C5015 C 0.67137 0.87952 0.7831 0.0
C5016 C 0.67415 0.88249 0.77594 0.0
C5017 C 0.67542 0.89062 0.77493 0.0
C5018 C 0.67417 0.89564 0.7814 0.0
C5019 C 0.67152 0.89266 0.78858 0.0
C5020 C 0.66258 0.88867 0.81727 0.0
C5021 C 0.66243 0.89692 0.81667 0.0
C5022 C 0.66036 0.90152 0.8232 0.0
C5023 C 0.65846 0.89793 0.83041 0.0
C5024 C 0.65932 0.88973 0.83113 0.0
C5025 C 0.66128 0.88516 0.82464 0.0
C5026 C 0.65525 0.8642 0.80433 0.0
C5027 C 0.65066 0.86257 0.81101 0.0
C5028 C 0.8476 0.87954 0.54874 0.0
C5029 C 0.84166 0.8757 0.54451 0.0
C5030 C 0.84196 0.87568 0.53625 0.0
C5031 C 0.84832 0.87907 0.5323 0.0
H5032 H 0.85735 0.88628 0.51036 0.0
H5033 H 0.8585 0.88681 0.49602 0.0
H5034 H 0.88306 0.89236 0.49809 0.0
H5035 H 0.88202 0.89185 0.51243 0.0
H5036 H 0.89093 0.88753 0.52828 0.0
H5037 H 0.90291 0.88336 0.53486 0.0
H5038 H 0.88917 0.87423 0.5542 0.0
H5039 H 0.87729 0.87868 0.54783 0.0
H5040 H 0.85869 0.88537 0.54827 0.0
H5041 H 0.84754 0.87959 0.55512 0.0
H5042 H 0.83743 0.87277 0.53286 0.0
H5043 H 0.84858 0.87865 0.52594 0.0
N5044 N 0.86223 0.88624 0.52482 0.0
N5045 N 0.87597 0.88692 0.52539 0.0
N5046 N 0.86878 0.88392 0.53672 0.0
C5047 C 0.86922 0.88757 0.52118 0.0
C5048 C 0.87579 0.88508 0.53316 0.0
C5049 C 0.86198 0.88452 0.53263 0.0
C5050 C 0.86961 0.88893 0.51257 0.0
C5051 C 0.86297 0.88776 0.5078 0.0
C5052 C 0.86361 0.88808 0.4996 0.0
C5053 C 0.87086 0.88965 0.49605 0.0
C5054 C 0.87741 0.89119 0.50076 0.0
C5055 C 0.8768 0.89085 0.50895 0.0
C5056 C 0.88313 0.8834 0.53749 0.0
C5057 C 0.89048 0.88473 0.53399 0.0
C5058 C 0.89735 0.88227 0.53773 0.0
C5059 C 0.89702 0.87836 0.54503 0.0
C5060 C 0.88968 0.8773 0.54864 0.0
C5061 C 0.88284 0.87982 0.54494 0.0
C5062 C 0.85455 0.88239 0.53657 0.0
C5063 C 0.854 0.8828 0.54482 0.0
C5064 C 0.84343 0.10983 0.33831 0.0
C5065 C 0.84257 0.10168 0.33723 0.0
C5066 C 0.83911 0.09894 0.33022 0.0
C5067 C 0.83688 0.10424 0.3243 0.0
H5068 H 0.82471 0.10738 0.30256 0.0
H5069 H 0.82003 0.10283 0.28977 0.0
H5070 H 0.82766 0.12464 0.27921 0.0
H5071 H 0.83241 0.12916 0.2919 0.0
H5072 H 0.84054 0.14269 0.30255 0.0
H5073 H 0.84808 0.15487 0.30375 0.0
H5074 H 0.85679 0.14706 0.32634 0.0
H5075 H 0.84906 0.13529 0.32534 0.0
H5076 H 0.84223 0.1213 0.33343 0.0
H5077 H 0.84616 0.11217 0.34356 0.0
H5078 H 0.83828 0.0927 0.32925 0.0
H5079 H 0.83449 0.10194 0.31886 0.0
N5080 N 0.83324 0.11588 0.31194 0.0
N5081 N 0.83616 0.12826 0.30645 0.0
N5082 N 0.84026 0.12521 0.3192 0.0
C5083 C 0.83275 0.12103 0.3058 0.0
C5084 C 0.83992 0.13039 0.31316 0.0
C5085 C 0.83697 0.11798 0.31869 0.0
C5086 C 0.82907 0.11859 0.29826 0.0
C5087 C 0.82533 0.11124 0.29753 0.0
C5088 C 0.82259 0.10865 0.29021 0.0
C5089 C 0.82357 0.11333 0.28346 0.0
C5090 C 0.82694 0.12083 0.28428 0.0
C5091 C 0.82965 0.12343 0.29158 0.0
C5092 C 0.84416 0.13799 0.31384 0.0
C5093 C 0.844 0.14365 0.3078 0.0
C5094 C 0.84838 0.1506 0.30847 0.0
C5095 C 0.85305 0.15202 0.31517 0.0
C5096 C 0.85314 0.14634 0.32118 0.0
C5097 C 0.84872 0.13949 0.32056 0.0
C5098 C 0.83814 0.11236 0.32526 0.0
C5099 C 0.84123 0.11508 0.33243 0.0
C5100 C 0.61085 0.12746 0.05707 0.0
C5101 C 0.60359 0.12634 0.05332 0.0
C5102 C 0.60335 0.12186 0.04636 0.0
C5103 C 0.61025 0.1189 0.04303 0.0
H5104 H 0.61901 0.11233 0.02175 0.0
H5105 H 0.61877 0.11073 0.00756 0.0
H5106 H 0.6441 0.11017 0.00718 0.0
H5107 H 0.64436 0.11204 0.02136 0.0
H5108 H 0.65227 0.12423 0.03633 0.0
H5109 H 0.66283 0.13074 0.04359 0.0
H5110 H 0.65228 0.12342 0.06552 0.0
H5111 H 0.64167 0.11718 0.05831 0.0
H5112 H 0.6232 0.12565 0.05677 0.0
H5113 H 0.6113 0.13096 0.06238 0.0
H5114 H 0.59785 0.12071 0.0434 0.0
H5115 H 0.60988 0.11567 0.03755 0.0
N5116 N 0.62498 0.11569 0.03509 0.0
N5117 N 0.63875 0.11586 0.03499 0.0
N5118 N 0.63186 0.11924 0.04644 0.0
C5119 C 0.63184 0.11451 0.0312 0.0
C5120 C 0.63877 0.11813 0.04267 0.0
C5121 C 0.62494 0.11806 0.04271 0.0
C5122 C 0.63172 0.11248 0.02271 0.0
C5123 C 0.62455 0.1118 0.01867 0.0
C5124 C 0.6244 0.11081 0.01051 0.0
C5125 C 0.63141 0.11044 0.00619 0.0
C5126 C 0.63858 0.11063 0.01029 0.0
C5127 C 0.63873 0.11167 0.01845 0.0
C5128 C 0.64608 0.12033 0.04677 0.0
C5129 C 0.65234 0.12384 0.0427 0.0
C5130 C 0.65839 0.12757 0.04686 0.0
C5131 C 0.65829 0.12776 0.05514 0.0
C5132 C 0.65241 0.12357 0.05915 0.0
C5133 C 0.64635 0.11996 0.05501 0.0
C5134 C 0.61752 0.1203 0.04665 0.0
C5135 C 0.61771 0.12444 0.05381 0.0
C5136 C 0.64676 0.14963 0.69293 0.0
C5137 C 0.64637 0.1549 0.69929 0.0
C5138 C 0.65052 0.15304 0.70622 0.0
C5139 C 0.65489 0.14607 0.70675 0.0
H5140 H 0.6645 0.13004 0.7227 0.0
H5141 H 0.66867 0.12461 0.73529 0.0
H5142 H 0.68059 0.10571 0.7233 0.0
H5143 H 0.67634 0.11105 0.71061 0.0
H5144 H 0.66467 0.10519 0.69439 0.0
H5145 H 0.66167 0.09652 0.68328 0.0
H5146 H 0.65725 0.11684 0.66866 0.0
H5147 H 0.66028 0.12544 0.67963 0.0
H5148 H 0.65125 0.13888 0.68837 0.0
H5149 H 0.64353 0.15071 0.68756 0.0
H5150 H 0.65045 0.15699 0.71122 0.0
H5151 H 0.65797 0.14479 0.71218 0.0
N5152 N 0.66304 0.13086 0.70763 0.0
N5153 N 0.66665 0.11892 0.70163 0.0
N5154 N 0.65975 0.12845 0.6945 0.0
C5155 C 0.66664 0.12371 0.70806 0.0
C5156 C 0.66324 0.1213 0.69481 0.0
C5157 C 0.6596 0.13328 0.70084 0.0
C5158 C 0.66998 0.12092 0.71563 0.0
C5159 C 0.6681 0.12479 0.72269 0.0
C5160 C 0.67048 0.12169 0.72992 0.0
C5161 C 0.67491 0.11474 0.73024 0.0
C5162 C 0.6772 0.1111 0.72319 0.0
C5163 C 0.67472 0.11414 0.71594 0.0
C5164 C 0.66264 0.116 0.68792 0.0
C5165 C 0.66321 0.10779 0.68876 0.0
C5166 C 0.66145 0.10283 0.68242 0.0
C5167 C 0.65919 0.10599 0.67511 0.0
C5168 C 0.65904 0.11421 0.67418 0.0
C5169 C 0.66073 0.11914 0.68051 0.0
C5170 C 0.65526 0.14084 0.70035 0.0
C5171 C 0.65117 0.14275 0.69343 0.0
C5172 C 0.61088 0.87727 0.44785 0.0
C5173 C 0.60364 0.87851 0.45159 0.0
C5174 C 0.60343 0.88302 0.45852 0.0
C5175 C 0.61036 0.8859 0.46184 0.0
H5176 H 0.61872 0.89306 0.48256 0.0
H5177 H 0.61789 0.89487 0.4967 0.0
H5178 H 0.64312 0.89445 0.49836 0.0
H5179 H 0.64405 0.89255 0.4841 0.0
H5180 H 0.65335 0.88339 0.46904 0.0
H5181 H 0.66473 0.8775 0.4625 0.0
H5182 H 0.65222 0.8778 0.4404 0.0
H5183 H 0.64104 0.88376 0.44681 0.0
H5184 H 0.62327 0.87891 0.44817 0.0
H5185 H 0.6113 0.87375 0.44255 0.0
H5186 H 0.59794 0.88425 0.46147 0.0
H5187 H 0.61001 0.88917 0.4673 0.0
N5188 N 0.625 0.88914 0.46974 0.0
N5189 N 0.63877 0.88879 0.47008 0.0
N5190 N 0.63199 0.88514 0.45864 0.0
C5191 C 0.63181 0.89033 0.47372 0.0
C5192 C 0.63887 0.88627 0.46246 0.0
C5193 C 0.62504 0.88655 0.46221 0.0
C5194 C 0.63147 0.89251 0.48217 0.0
C5195 C 0.62413 0.89343 0.48587 0.0
C5196 C 0.62363 0.89447 0.49399 0.0
C5197 C 0.63043 0.89471 0.4986 0.0
C5198 C 0.63779 0.8943 0.4949 0.0
C5199 C 0.63831 0.89317 0.48675 0.0
C5200 C 0.64624 0.88395 0.45848 0.0
C5201 C 0.65311 0.88236 0.46276 0.0
C5202 C 0.65961 0.87894 0.45902 0.0
C5203 C 0.65936 0.87714 0.45094 0.0
C5204 C 0.65266 0.87918 0.44661 0.0
C5205 C 0.6462 0.88255 0.45032 0.0
C5206 C 0.61763 0.88438 0.45825 0.0
C5207 C 0.61778 0.88021 0.45111 0.0
C5208 C 0.84173 0.8947 0.16625 0.0
C5209 C 0.84296 0.90274 0.16778 0.0
C5210 C 0.84098 0.9057 0.17526 0.0
C5211 C 0.83837 0.90063 0.18122 0.0
H5212 H 0.82534 0.89795 0.20274 0.0
H5213 H 0.82078 0.90251 0.2155 0.0
H5214 H 0.82663 0.87995 0.22567 0.0
H5215 H 0.83144 0.87548 0.213 0.0
H5216 H 0.83888 0.86159 0.20173 0.0
H5217 H 0.84683 0.84955 0.20094 0.0
H5218 H 0.85829 0.85851 0.18018 0.0
H5219 H 0.85038 0.87036 0.18079 0.0
H5220 H 0.83874 0.88342 0.17091 0.0
H5221 H 0.84293 0.89223 0.1605 0.0
H5222 H 0.84185 0.91185 0.17668 0.0
H5223 H 0.83729 0.903 0.18704 0.0
N5224 N 0.83302 0.88903 0.19315 0.0
N5225 N 0.83591 0.87665 0.19864 0.0
N5226 N 0.83994 0.87965 0.18583 0.0
C5227 C 0.83254 0.8839 0.19929 0.0
C5228 C 0.83964 0.8745 0.1919 0.0
C5229 C 0.83665 0.88688 0.18636 0.0
C5230 C 0.82891 0.88638 0.20684 0.0
C5231 C 0.82562 0.89393 0.20768 0.0
C5232 C 0.82293 0.89654 0.21501 0.0
C5233 C 0.82344 0.89165 0.22168 0.0
C5234 C 0.82633 0.88396 0.22072 0.0
C5235 C 0.82905 0.88137 0.21342 0.0
C5236 C 0.84399 0.86697 0.19134 0.0
C5237 C 0.84305 0.86096 0.19696 0.0
C5238 C 0.84757 0.85408 0.19652 0.0
C5239 C 0.8532 0.85319 0.19054 0.0
C5240 C 0.85405 0.85912 0.18488 0.0
C5241 C 0.84946 0.86589 0.18523 0.0
C5242 C 0.83781 0.8925 0.17983 0.0
C5243 C 0.83927 0.88964 0.17221 0.0
C5244 C 0.84807 0.12596 0.95591 0.0
C5245 C 0.84156 0.1288 0.96009 0.0
C5246 C 0.84147 0.1281 0.96834 0.0
C5247 C 0.84796 0.12501 0.97235 0.0
H5248 H 0.85728 0.11926 0.99459 0.0
H5249 H 0.85839 0.11874 0.00894 0.0
H5250 H 0.88279 0.11252 0.00694 0.0
H5251 H 0.88181 0.11303 0.9926 0.0
H5252 H 0.89099 0.11787 0.97701 0.0
H5253 H 0.90302 0.12197 0.97046 0.0
H5254 H 0.88942 0.13081 0.95089 0.0
H5255 H 0.8775 0.12644 0.95722 0.0
H5256 H 0.85958 0.1211 0.95647 0.0
H5257 H 0.84838 0.12648 0.94956 0.0
H5258 H 0.8365 0.13017 0.97171 0.0
H5259 H 0.84786 0.12484 0.97872 0.0
N5260 N 0.86221 0.11893 0.98009 0.0
N5261 N 0.87597 0.11835 0.9797 0.0
N5262 N 0.86892 0.12132 0.9683 0.0
C5263 C 0.86917 0.11765 0.98382 0.0
C5264 C 0.87589 0.12019 0.97194 0.0
C5265 C 0.86206 0.12066 0.97227 0.0
C5266 C 0.86948 0.11627 0.99243 0.0
C5267 C 0.86285 0.11763 0.99717 0.0
C5268 C 0.86346 0.11732 0.00538 0.0
C5269 C 0.87066 0.11557 0.00895 0.0
C5270 C 0.87718 0.11383 0.00426 0.0
C5271 C 0.8766 0.11417 0.99607 0.0
C5272 C 0.88326 0.12187 0.96768 0.0
C5273 C 0.89058 0.12059 0.97126 0.0
C5274 C 0.89748 0.123 0.96753 0.0
C5275 C 0.8972 0.12681 0.96017 0.0
C5276 C 0.88989 0.12782 0.95649 0.0
C5277 C 0.88302 0.12534 0.96017 0.0
C5278 C 0.85467 0.12264 0.96816 0.0
C5279 C 0.85454 0.12294 0.95989 0.0
C5280 C 0.82926 0.64581 0.8792 0.0
C5281 C 0.82691 0.64949 0.8722 0.0
C5282 C 0.8198 0.6537 0.87211 0.0
C5283 C 0.81493 0.65382 0.87879 0.0
H5284 H 0.79225 0.66045 0.88805 0.0
H5285 H 0.77895 0.66581 0.88872 0.0
H5286 H 0.77616 0.65581 0.91193 0.0
H5287 H 0.78936 0.65064 0.91135 0.0
H5288 H 0.80022 0.63572 0.91617 0.0
H5289 H 0.80435 0.62544 0.92545 0.0
H5290 H 0.82799 0.62696 0.9166 0.0
H5291 H 0.82396 0.63705 0.90727 0.0
H5292 H 0.82648 0.64287 0.89102 0.0
H5293 H 0.83478 0.64267 0.87952 0.0
H5294 H 0.81785 0.65661 0.86679 0.0
H5295 H 0.80936 0.65686 0.87848 0.0
N5296 N 0.80465 0.65256 0.89288 0.0
N5297 N 0.80216 0.64643 0.90506 0.0
N5298 N 0.81399 0.64418 0.89855 0.0
C5299 C 0.79981 0.65134 0.89918 0.0
C5300 C 0.80926 0.64285 0.90479 0.0
C5301 C 0.81181 0.64899 0.89257 0.0
C5302 C 0.7919 0.65504 0.89962 0.0
C5303 C 0.78882 0.65945 0.89332 0.0
C5304 C 0.78118 0.6625 0.89369 0.0
C5305 C 0.77646 0.66124 0.90038 0.0
C5306 C 0.77963 0.65701 0.90673 0.0
C5307 C 0.78723 0.65396 0.90636 0.0
C5308 C 0.81175 0.63719 0.91094 0.0
C5309 C 0.80631 0.63392 0.91626 0.0
C5310 C 0.80865 0.62803 0.92154 0.0
C5311 C 0.81647 0.62547 0.92171 0.0
C5312 C 0.82193 0.62891 0.9166 0.0
C5313 C 0.8196 0.63466 0.91125 0.0
C5314 C 0.81713 0.64977 0.88568 0.0
C5315 C 0.82446 0.64596 0.88583 0.0
C5316 C 0.32941 0.85897 0.12608 0.0
C5317 C 0.32691 0.85549 0.13312 0.0
C5318 C 0.31967 0.8515 0.13323 0.0
C5319 C 0.31483 0.85143 0.12653 0.0
H5320 H 0.29108 0.84735 0.11757 0.0
H5321 H 0.27758 0.84266 0.11658 0.0
H5322 H 0.27809 0.84677 0.09147 0.0
H5323 H 0.29135 0.85174 0.09253 0.0
H5324 H 0.30142 0.86836 0.0878 0.0
H5325 H 0.30589 0.87834 0.07839 0.0
H5326 H 0.32843 0.87899 0.08991 0.0
H5327 H 0.3241 0.86911 0.09918 0.0
H5328 H 0.3268 0.86181 0.1142 0.0
H5329 H 0.33502 0.86193 0.12574 0.0
H5330 H 0.3176 0.84875 0.13859 0.0
H5331 H 0.30917 0.84858 0.12686 0.0
N5332 N 0.30481 0.85259 0.1122 0.0
N5333 N 0.30262 0.85866 0.09991 0.0
N5334 N 0.31427 0.86095 0.10673 0.0
C5335 C 0.30014 0.85377 0.10577 0.0
C5336 C 0.3097 0.86227 0.10037 0.0
C5337 C 0.31196 0.85615 0.11265 0.0
C5338 C 0.29226 0.85007 0.10516 0.0
C5339 C 0.28831 0.8472 0.11184 0.0
C5340 C 0.28056 0.84447 0.11125 0.0
C5341 C 0.27662 0.84447 0.10396 0.0
C5342 C 0.28079 0.84692 0.09724 0.0
C5343 C 0.28845 0.84973 0.09784 0.0
C5344 C 0.31238 0.86792 0.09427 0.0
C5345 C 0.30735 0.87058 0.08827 0.0
C5346 C 0.30989 0.87632 0.08291 0.0
C5347 C 0.31752 0.87941 0.0834 0.0
C5348 C 0.32256 0.87664 0.0893 0.0
C5349 C 0.32003 0.87099 0.09466 0.0
C5350 C 0.3172 0.85531 0.1196 0.0
C5351 C 0.32465 0.85888 0.11943 0.0
C5352 C 0.89549 0.56121 0.89901 0.0
C5353 C 0.89591 0.55515 0.90459 0.0
C5354 C 0.90106 0.54882 0.90326 0.0
C5355 C 0.90555 0.54849 0.89636 0.0
H5356 H 0.9157 0.53265 0.88062 0.0
H5357 H 0.92 0.52008 0.87536 0.0
H5358 H 0.9298 0.53181 0.85509 0.0
H5359 H 0.92551 0.54449 0.86035 0.0
H5360 H 0.91557 0.56124 0.85532 0.0
H5361 H 0.91276 0.57246 0.84673 0.0
H5362 H 0.90636 0.58633 0.86704 0.0
H5363 H 0.90927 0.5753 0.87556 0.0
H5364 H 0.89946 0.56571 0.88801 0.0
H5365 H 0.89167 0.56622 0.89993 0.0
H5366 H 0.90149 0.54406 0.90748 0.0
H5367 H 0.90938 0.54349 0.89543 0.0
N5368 N 0.91308 0.54748 0.88081 0.0
N5369 N 0.91668 0.55361 0.86892 0.0
N5370 N 0.9096 0.56057 0.87846 0.0
C5371 C 0.91672 0.54714 0.87367 0.0
C5372 C 0.91316 0.56037 0.87133 0.0
C5373 C 0.90951 0.5542 0.88324 0.0
C5374 C 0.92014 0.53961 0.87086 0.0
C5375 C 0.91885 0.53261 0.87509 0.0
C5376 C 0.9213 0.52538 0.87207 0.0
C5377 C 0.92516 0.52495 0.86478 0.0
C5378 C 0.92686 0.53197 0.86074 0.0
C5379 C 0.92434 0.53922 0.86374 0.0
C5380 C 0.91256 0.56734 0.86612 0.0
C5381 C 0.91371 0.56673 0.85795 0.0
C5382 C 0.91205 0.57314 0.85302 0.0
C5383 C 0.9093 0.58028 0.85619 0.0
C5384 C 0.90855 0.58096 0.8644 0.0
C5385 C 0.91016 0.57459 0.86929 0.0
C5386 C 0.90505 0.55453 0.89072 0.0
C5387 C 0.90002 0.56093 0.89219 0.0
C5388 C 0.18244 0.14254 0.63673 0.0
C5389 C 0.18493 0.14474 0.64428 0.0
C5390 C 0.19285 0.14675 0.64543 0.0
C5391 C 0.19825 0.14608 0.63924 0.0
H5392 H 0.22243 0.14097 0.63469 0.0
H5393 H 0.23652 0.14002 0.6367 0.0
H5394 H 0.24003 0.13963 0.61149 0.0
H5395 H 0.22596 0.14018 0.60953 0.0
H5396 H 0.21167 0.12793 0.60161 0.0
H5397 H 0.20598 0.12023 0.59088 0.0
H5398 H 0.18298 0.12903 0.5969 0.0
H5399 H 0.18862 0.13675 0.60749 0.0
H5400 H 0.18561 0.14 0.6249 0.0
H5401 H 0.17635 0.14108 0.63564 0.0
H5402 H 0.19492 0.14848 0.65121 0.0
H5403 H 0.20437 0.14737 0.64037 0.0
N5404 N 0.20937 0.14239 0.62651 0.0
N5405 N 0.2116 0.13738 0.6138 0.0
N5406 N 0.19879 0.13893 0.61843 0.0
C5407 C 0.21446 0.14027 0.62069 0.0
C5408 C 0.20376 0.13671 0.61262 0.0
C5409 C 0.20149 0.14178 0.62538 0.0
C5410 C 0.22305 0.14055 0.62196 0.0
C5411 C 0.22622 0.14073 0.62959 0.0
C5412 C 0.23433 0.14022 0.63073 0.0
C5413 C 0.23948 0.13964 0.62427 0.0
C5414 C 0.23628 0.13982 0.61663 0.0
C5415 C 0.22819 0.14021 0.6155 0.0
C5416 C 0.20059 0.1329 0.60546 0.0
C5417 C 0.20542 0.12833 0.60055 0.0
C5418 C 0.20216 0.12388 0.59444 0.0
C5419 C 0.19403 0.12399 0.59307 0.0
C5420 C 0.18928 0.12887 0.59774 0.0
C5421 C 0.19251 0.13326 0.60386 0.0
C5422 C 0.1958 0.14346 0.63178 0.0
C5423 C 0.18778 0.14194 0.63057 0.0
C5424 C 0.09286 0.91697 0.85932 0.0
C5425 C 0.09277 0.9186 0.85121 0.0
C5426 C 0.08989 0.92592 0.84865 0.0
C5427 C 0.08751 0.93162 0.85409 0.0
H5428 H 0.07374 0.95253 0.85801 0.0
H5429 H 0.06913 0.96539 0.85346 0.0
H5430 H 0.07861 0.9762 0.87436 0.0
H5431 H 0.08318 0.96345 0.87896 0.0
H5432 H 0.093 0.9536 0.89115 0.0
H5433 H 0.1008 0.95249 0.90318 0.0
H5434 H 0.10351 0.92756 0.89912 0.0
H5435 H 0.09574 0.92861 0.88719 0.0
H5436 H 0.09098 0.92131 0.87096 0.0
H5437 H 0.0951 0.91142 0.8615 0.0
H5438 H 0.08967 0.9273 0.84243 0.0
H5439 H 0.08559 0.9373 0.85193 0.0
N5440 N 0.08309 0.94331 0.86598 0.0
N5441 N 0.08593 0.94864 0.87841 0.0
N5442 N 0.09001 0.93587 0.87528 0.0
C5443 C 0.08257 0.94938 0.87118 0.0
C5444 C 0.08963 0.94188 0.88052 0.0
C5445 C 0.08678 0.93651 0.86802 0.0
C5446 C 0.07895 0.95695 0.8688 0.0
C5447 C 0.07475 0.95763 0.86169 0.0
C5448 C 0.07206 0.96498 0.8591 0.0
C5449 C 0.07359 0.97178 0.86353 0.0
C5450 C 0.07742 0.97105 0.8708 0.0
C5451 C 0.08004 0.96373 0.87343 0.0
C5452 C 0.09377 0.9412 0.88817 0.0
C5453 C 0.0952 0.94787 0.89286 0.0
C5454 C 0.09971 0.94725 0.89972 0.0
C5455 C 0.10279 0.93995 0.90207 0.0
C5456 C 0.10117 0.93326 0.8975 0.0
C5457 C 0.09673 0.93388 0.89062 0.0
C5458 C 0.08804 0.93014 0.86221 0.0
C5459 C 0.09055 0.92268 0.86475 0.0
C5460 C 0.68389 0.36194 0.3683 0.0
C5461 C 0.68629 0.35995 0.36067 0.0
C5462 C 0.69421 0.35804 0.35935 0.0
C5463 C 0.69971 0.35863 0.36548 0.0
H5464 H 0.7244 0.35915 0.37122 0.0
H5465 H 0.73861 0.35986 0.3691 0.0
H5466 H 0.74144 0.37031 0.39206 0.0
H5467 H 0.72742 0.36965 0.39421 0.0
H5468 H 0.71201 0.3787 0.40217 0.0
H5469 H 0.70531 0.38651 0.41226 0.0
H5470 H 0.68409 0.37323 0.40826 0.0
H5471 H 0.69067 0.36561 0.39815 0.0
H5472 H 0.68718 0.36421 0.38013 0.0
H5473 H 0.6778 0.36332 0.36952 0.0
H5474 H 0.6962 0.35647 0.3535 0.0
H5475 H 0.70583 0.35745 0.36422 0.0
N5476 N 0.71099 0.3623 0.37827 0.0
N5477 N 0.71308 0.36754 0.39094 0.0
N5478 N 0.70034 0.36555 0.38635 0.0
C5479 C 0.71604 0.36462 0.38407 0.0
C5480 C 0.70523 0.36795 0.39213 0.0
C5481 C 0.70309 0.36275 0.37941 0.0
C5482 C 0.7247 0.36445 0.38285 0.0
C5483 C 0.72806 0.36156 0.37584 0.0
C5484 C 0.73621 0.36193 0.37463 0.0
C5485 C 0.74114 0.36526 0.38037 0.0
C5486 C 0.73779 0.36786 0.38746 0.0
C5487 C 0.72972 0.36745 0.38869 0.0
C5488 C 0.70183 0.37164 0.39926 0.0
C5489 C 0.70597 0.37735 0.40357 0.0
C5490 C 0.70213 0.38182 0.40936 0.0
C5491 C 0.69411 0.38061 0.41094 0.0
C5492 C 0.69021 0.37446 0.40704 0.0
C5493 C 0.694 0.37007 0.40126 0.0
C5494 C 0.69735 0.36105 0.37304 0.0
C5495 C 0.68931 0.36244 0.3744 0.0
C5496 C 0.89641 0.44343 0.605 0.0
C5497 C 0.89604 0.44998 0.60002 0.0
C5498 C 0.90017 0.45683 0.602 0.0
C5499 C 0.90453 0.45718 0.60898 0.0
H5500 H 0.91491 0.4726 0.62466 0.0
H5501 H 0.91924 0.48513 0.63005 0.0
H5502 H 0.92985 0.47312 0.64971 0.0
H5503 H 0.9255 0.46048 0.64436 0.0
H5504 H 0.91535 0.44382 0.64951 0.0
H5505 H 0.91262 0.43259 0.6581 0.0
H5506 H 0.90602 0.41876 0.63782 0.0
H5507 H 0.90884 0.42982 0.6293 0.0
H5508 H 0.90091 0.43856 0.61564 0.0
H5509 H 0.8933 0.43807 0.60353 0.0
H5510 H 0.89995 0.46194 0.59818 0.0
H5511 H 0.90758 0.46258 0.61042 0.0
N5512 N 0.91271 0.45769 0.62413 0.0
N5513 N 0.9163 0.4515 0.63598 0.0
N5514 N 0.9093 0.44455 0.62638 0.0
C5515 C 0.91632 0.458 0.63128 0.0
C5516 C 0.91282 0.44474 0.63353 0.0
C5517 C 0.90919 0.45096 0.62163 0.0
C5518 C 0.91974 0.46551 0.63413 0.0
C5519 C 0.91825 0.47258 0.63009 0.0
C5520 C 0.92072 0.47977 0.63317 0.0
C5521 C 0.92482 0.4801 0.64033 0.0
C5522 C 0.92672 0.47303 0.64417 0.0
C5523 C 0.92417 0.46581 0.64112 0.0
C5524 C 0.91223 0.43776 0.63872 0.0
C5525 C 0.91346 0.43834 0.64688 0.0
C5526 C 0.91184 0.43192 0.65181 0.0
C5527 C 0.90907 0.42479 0.64865 0.0
C5528 C 0.90823 0.42413 0.64046 0.0
C5529 C 0.90979 0.43051 0.63556 0.0
C5530 C 0.90487 0.45063 0.61405 0.0
C5531 C 0.9008 0.44374 0.61193 0.0
C5532 C 0.59248 0.58875 0.14437 0.0
C5533 C 0.59335 0.58738 0.15248 0.0
C5534 C 0.59081 0.58015 0.15561 0.0
C5535 C 0.58809 0.57418 0.15062 0.0
H5536 H 0.57746 0.55184 0.1488 0.0
H5537 H 0.57275 0.53916 0.1533 0.0
H5538 H 0.57434 0.53016 0.12955 0.0
H5539 H 0.57944 0.54274 0.12513 0.0
H5540 H 0.59015 0.55254 0.11217 0.0
H5541 H 0.59774 0.5537 0.10001 0.0
H5542 H 0.60684 0.57607 0.10801 0.0
H5543 H 0.59906 0.57512 0.11974 0.0
H5544 H 0.58962 0.58396 0.13314 0.0
H5545 H 0.59416 0.59433 0.1418 0.0
H5546 H 0.59139 0.57894 0.16184 0.0
H5547 H 0.58662 0.5685 0.15311 0.0
N5548 N 0.58316 0.56196 0.13913 0.0
N5549 N 0.58599 0.55637 0.12677 0.0
N5550 N 0.58998 0.5692 0.12965 0.0
C5551 C 0.58266 0.55578 0.13405 0.0
C5552 C 0.58968 0.5631 0.12454 0.0
C5553 C 0.58676 0.56873 0.1369 0.0
C5554 C 0.57898 0.54829 0.13662 0.0
C5555 C 0.57678 0.54717 0.14452 0.0
C5556 C 0.57399 0.53988 0.1471 0.0
C5557 C 0.57324 0.53354 0.14183 0.0
C5558 C 0.57505 0.53481 0.13384 0.0
C5559 C 0.57793 0.54207 0.13128 0.0
C5560 C 0.59395 0.56373 0.11695 0.0
C5561 C 0.59371 0.55773 0.11126 0.0
C5562 C 0.59812 0.55838 0.10431 0.0
C5563 C 0.60291 0.565 0.10295 0.0
C5564 C 0.60309 0.57097 0.10867 0.0
C5565 C 0.59864 0.57038 0.1155 0.0
C5566 C 0.58793 0.57535 0.14243 0.0
C5567 C 0.58984 0.5828 0.13941 0.0
C5568 C 0.61112 0.6704 0.84651 0.0
C5569 C 0.6031 0.67136 0.84506 0.0
C5570 C 0.60053 0.67804 0.84092 0.0
C5571 C 0.60592 0.68392 0.83872 0.0
H5572 H 0.60801 0.70795 0.83261 0.0
H5573 H 0.604 0.72121 0.82885 0.0
H5574 H 0.62821 0.72836 0.82759 0.0
H5575 H 0.63231 0.71511 0.8315 0.0
H5576 H 0.64457 0.70521 0.8437 0.0
H5577 H 0.65692 0.70305 0.85071 0.0
H5578 H 0.64974 0.67922 0.85595 0.0
H5579 H 0.63778 0.68122 0.84875 0.0
H5580 H 0.62257 0.67524 0.84576 0.0
H5581 H 0.61324 0.66528 0.84967 0.0
H5582 H 0.59435 0.6789 0.83976 0.0
H5583 H 0.60376 0.68918 0.83584 0.0
N5584 N 0.61757 0.69666 0.83615 0.0
N5585 N 0.63027 0.70161 0.83857 0.0
N5586 N 0.62702 0.68876 0.84221 0.0
C5587 C 0.62288 0.70266 0.83564 0.0
C5588 C 0.63236 0.69462 0.84187 0.0
C5589 C 0.61965 0.68964 0.8394 0.0
C5590 C 0.62049 0.71046 0.83247 0.0
C5591 C 0.61251 0.71229 0.83144 0.0
C5592 C 0.61019 0.71988 0.82928 0.0
C5593 C 0.6158 0.72578 0.82795 0.0
C5594 C 0.62378 0.72389 0.82854 0.0
C5595 C 0.62611 0.71631 0.83084 0.0
C5596 C 0.64014 0.69341 0.84564 0.0
C5597 C 0.6457 0.69948 0.84626 0.0
C5598 C 0.65276 0.69826 0.85035 0.0
C5599 C 0.65439 0.69094 0.85391 0.0
C5600 C 0.64884 0.68488 0.85317 0.0
C5601 C 0.64188 0.68607 0.84906 0.0
C5602 C 0.61393 0.68314 0.8406 0.0
C5603 C 0.61646 0.67617 0.84428 0.0
C5604 C 0.55094 0.40819 0.11762 0.0
C5605 C 0.54453 0.41329 0.11837 0.0
C5606 C 0.53765 0.41173 0.11409 0.0
C5607 C 0.53713 0.40501 0.10933 0.0
H5608 H 0.52139 0.38933 0.09873 0.0
H5609 H 0.50883 0.38368 0.09502 0.0
H5610 H 0.52063 0.36346 0.08522 0.0
H5611 H 0.53326 0.36912 0.08884 0.0
H5612 H 0.55107 0.36497 0.09814 0.0
H5613 H 0.56302 0.35734 0.10064 0.0
H5614 H 0.57621 0.37896 0.10257 0.0
H5615 H 0.56439 0.38649 0.1003 0.0
H5616 H 0.55555 0.39778 0.11248 0.0
H5617 H 0.55636 0.40933 0.12074 0.0
H5618 H 0.53263 0.41561 0.11458 0.0
H5619 H 0.53171 0.40385 0.10621 0.0
N5620 N 0.53624 0.38979 0.10097 0.0
N5621 N 0.54262 0.37835 0.09644 0.0
N5622 N 0.54966 0.3881 0.1031 0.0
C5623 C 0.53595 0.38274 0.09714 0.0
C5624 C 0.54951 0.38107 0.09936 0.0
C5625 C 0.54311 0.39249 0.10398 0.0
C5626 C 0.52836 0.37964 0.0942 0.0
C5627 C 0.52135 0.38372 0.09571 0.0
C5628 C 0.51413 0.38048 0.0936 0.0
C5629 C 0.51373 0.37309 0.0899 0.0
C5630 C 0.52074 0.36918 0.08802 0.0
C5631 C 0.52798 0.37241 0.09017 0.0
C5632 C 0.55676 0.37633 0.09919 0.0
C5633 C 0.55656 0.36806 0.09894 0.0
C5634 C 0.5634 0.3637 0.10037 0.0
C5635 C 0.57051 0.36756 0.10201 0.0
C5636 C 0.57078 0.37581 0.10157 0.0
C5637 C 0.564 0.38013 0.10023 0.0
C5638 C 0.54353 0.39983 0.10868 0.0
C5639 C 0.55047 0.40158 0.11282 0.0
C5640 C 0.87033 0.32711 0.35413 0.0
C5641 C 0.86305 0.32447 0.35142 0.0
C5642 C 0.86255 0.31694 0.34796 0.0
C5643 C 0.86919 0.31198 0.34769 0.0
H5644 H 0.87945 0.28761 0.3431 0.0
H5645 H 0.88139 0.27393 0.33883 0.0
H5646 H 0.90627 0.27632 0.34288 0.0
H5647 H 0.90435 0.28968 0.34727 0.0
H5648 H 0.91059 0.30157 0.36065 0.0
H5649 H 0.92058 0.30723 0.36937 0.0
H5650 H 0.90507 0.32665 0.37455 0.0
H5651 H 0.8953 0.32121 0.36589 0.0
H5652 H 0.88231 0.3246 0.35612 0.0
H5653 H 0.87093 0.33292 0.35667 0.0
H5654 H 0.85699 0.31478 0.34579 0.0
H5655 H 0.8686 0.3061 0.3453 0.0
N5656 N 0.88402 0.30207 0.34816 0.0
N5657 N 0.89659 0.3006 0.35381 0.0
N5658 N 0.88939 0.31199 0.35608 0.0
C5659 C 0.8907 0.29769 0.34923 0.0
C5660 C 0.89595 0.30774 0.35728 0.0
C5661 C 0.88341 0.30933 0.35157 0.0
C5662 C 0.8917 0.28973 0.34569 0.0
C5663 C 0.88533 0.28521 0.34301 0.0
C5664 C 0.88645 0.27737 0.34054 0.0
C5665 C 0.89397 0.27393 0.34069 0.0
C5666 C 0.90036 0.27864 0.34293 0.0
C5667 C 0.89924 0.28637 0.34542 0.0
C5668 C 0.90214 0.31094 0.3625 0.0
C5669 C 0.90934 0.30706 0.36364 0.0
C5670 C 0.91505 0.31028 0.36865 0.0
C5671 C 0.91366 0.31744 0.37257 0.0
C5672 C 0.90643 0.32123 0.37147 0.0
C5673 C 0.90078 0.31806 0.36651 0.0
C5674 C 0.8764 0.31453 0.35081 0.0
C5675 C 0.87688 0.32226 0.3538 0.0
C5676 C 0.94756 0.6034 0.61827 0.0
C5677 C 0.95414 0.59967 0.62155 0.0
C5678 C 0.96165 0.60268 0.61985 0.0
C5679 C 0.9625 0.60947 0.61524 0.0
H5680 H 0.97816 0.62401 0.60312 0.0
H5681 H 0.99079 0.62927 0.5991 0.0
H5682 H 0.97938 0.64969 0.58927 0.0
H5683 H 0.96664 0.64447 0.59331 0.0
H5684 H 0.94862 0.64868 0.60047 0.0
H5685 H 0.93697 0.65694 0.60245 0.0
H5686 H 0.92469 0.63699 0.61226 0.0
H5687 H 0.93599 0.62882 0.61016 0.0
H5688 H 0.94316 0.61295 0.61147 0.0
H5689 H 0.94171 0.60112 0.61923 0.0
H5690 H 0.96684 0.59995 0.62229 0.0
H5691 H 0.96832 0.61181 0.61424 0.0
N5692 N 0.96333 0.62371 0.60519 0.0
N5693 N 0.95725 0.63564 0.60163 0.0
N5694 N 0.9501 0.62578 0.608 0.0
C5695 C 0.96376 0.63096 0.60178 0.0
C5696 C 0.95038 0.63304 0.60474 0.0
C5697 C 0.95647 0.62108 0.60826 0.0
C5698 C 0.97136 0.63386 0.59865 0.0
C5699 C 0.97828 0.62959 0.60003 0.0
C5700 C 0.98554 0.63259 0.59773 0.0
C5701 C 0.98606 0.63991 0.59393 0.0
C5702 C 0.97914 0.64402 0.59217 0.0
C5703 C 0.97185 0.64104 0.59454 0.0
C5704 C 0.94329 0.63808 0.60517 0.0
C5705 C 0.94338 0.64606 0.60294 0.0
C5706 C 0.93673 0.65079 0.6041 0.0
C5707 C 0.92988 0.64762 0.60746 0.0
C5708 C 0.92978 0.63962 0.6095 0.0
C5709 C 0.93635 0.63493 0.60835 0.0
C5710 C 0.95586 0.61339 0.61231 0.0
C5711 C 0.94841 0.61017 0.61375 0.0
C5712 C 0.60988 0.33489 0.65979 0.0
C5713 C 0.60183 0.33382 0.66096 0.0
C5714 C 0.59919 0.32707 0.66494 0.0
C5715 C 0.60456 0.32122 0.66728 0.0
H5716 H 0.60747 0.29766 0.67634 0.0
H5717 H 0.60379 0.28423 0.68012 0.0
H5718 H 0.62745 0.27642 0.67592 0.0
H5719 H 0.63123 0.28974 0.6722 0.0
H5720 H 0.6434 0.30035 0.66289 0.0
H5721 H 0.65558 0.30236 0.65557 0.0
H5722 H 0.64818 0.32601 0.64981 0.0
H5723 H 0.63636 0.32417 0.65731 0.0
H5724 H 0.62133 0.33018 0.6609 0.0
H5725 H 0.61204 0.34006 0.65674 0.0
H5726 H 0.59298 0.32614 0.66587 0.0
H5727 H 0.60237 0.31591 0.67002 0.0
N5728 N 0.61637 0.30861 0.67021 0.0
N5729 N 0.62913 0.30386 0.66777 0.0
N5730 N 0.62573 0.31664 0.66415 0.0
C5731 C 0.62178 0.30269 0.67071 0.0
C5732 C 0.63114 0.31085 0.66449 0.0
C5733 C 0.61837 0.31566 0.66696 0.0
C5734 C 0.61963 0.29481 0.67387 0.0
C5735 C 0.61193 0.29313 0.67635 0.0
C5736 C 0.60982 0.28547 0.67855 0.0
C5737 C 0.61537 0.27937 0.67835 0.0
C5738 C 0.62311 0.28107 0.67619 0.0
C5739 C 0.62523 0.2887 0.67401 0.0
C5740 C 0.63886 0.31207 0.66068 0.0
C5741 C 0.64445 0.30601 0.66015 0.0
C5742 C 0.6514 0.30714 0.6559 0.0
C5743 C 0.65288 0.31434 0.65207 0.0
C5744 C 0.64736 0.32043 0.65278 0.0
C5745 C 0.64049 0.31933 0.65705 0.0
C5746 C 0.61261 0.32211 0.66568 0.0
C5747 C 0.61519 0.32916 0.66216 0.0
C5748 C 0.94806 0.40007 0.88427 0.0
C5749 C 0.95441 0.40524 0.88351 0.0
C5750 C 0.96138 0.40363 0.88762 0.0
C5751 C 0.96206 0.3968 0.89221 0.0
H5752 H 0.97793 0.3817 0.90322 0.0
H5753 H 0.99062 0.37652 0.90714 0.0
H5754 H 0.97952 0.35536 0.91571 0.0
H5755 H 0.96674 0.36054 0.91184 0.0
H5756 H 0.94917 0.35607 0.90358 0.0
H5757 H 0.93786 0.34769 0.9003 0.0
H5758 H 0.92442 0.36838 0.8944 0.0
H5759 H 0.93546 0.37666 0.89765 0.0
H5760 H 0.94363 0.38949 0.88922 0.0
H5761 H 0.94256 0.40124 0.88129 0.0
H5762 H 0.96636 0.40756 0.88713 0.0
H5763 H 0.96754 0.3956 0.89518 0.0
N5764 N 0.9632 0.38153 0.90043 0.0
N5765 N 0.9572 0.36963 0.90424 0.0
N5766 N 0.94999 0.37929 0.89765 0.0
C5767 C 0.96367 0.37435 0.90399 0.0
C5768 C 0.9503 0.37213 0.90112 0.0
C5769 C 0.95633 0.38403 0.89724 0.0
C5770 C 0.97129 0.3715 0.9071 0.0
C5771 C 0.97814 0.37597 0.90601 0.0
C5772 C 0.98544 0.373 0.90824 0.0
C5773 C 0.98608 0.3655 0.91166 0.0
C5774 C 0.97921 0.36118 0.91312 0.0
C5775 C 0.97189 0.36413 0.91084 0.0
C5776 C 0.94329 0.36702 0.9007 0.0
C5777 C 0.94373 0.35881 0.90175 0.0
C5778 C 0.93728 0.35403 0.89989 0.0
C5779 C 0.93036 0.35741 0.89695 0.0
C5780 C 0.92975 0.36562 0.89651 0.0
C5781 C 0.93611 0.37036 0.89837 0.0
C5782 C 0.95572 0.39154 0.89283 0.0
C5783 C 0.94868 0.39334 0.88888 0.0
C5784 C 0.87197 0.67801 0.15247 0.0
C5785 C 0.86451 0.68068 0.15457 0.0
C5786 C 0.86364 0.68839 0.1575 0.0
C5787 C 0.87014 0.6935 0.15782 0.0
H5788 H 0.87962 0.71757 0.1627 0.0
H5789 H 0.88094 0.73109 0.1676 0.0
H5790 H 0.90565 0.73058 0.1621 0.0
H5791 H 0.90439 0.71723 0.15732 0.0
H5792 H 0.90927 0.70586 0.14159 0.0
H5793 H 0.9185 0.70042 0.13191 0.0
H5794 H 0.90755 0.67764 0.13426 0.0
H5795 H 0.89845 0.68294 0.14375 0.0
H5796 H 0.884 0.68067 0.15102 0.0
H5797 H 0.87281 0.67206 0.15032 0.0
H5798 H 0.85791 0.69055 0.15919 0.0
H5799 H 0.86929 0.69952 0.15974 0.0
N5800 N 0.88472 0.70365 0.15747 0.0
N5801 N 0.8972 0.70541 0.15167 0.0
N5802 N 0.89045 0.69364 0.14996 0.0
C5803 C 0.8912 0.70824 0.15618 0.0
C5804 C 0.89683 0.69808 0.14855 0.0
C5805 C 0.88439 0.69625 0.15436 0.0
C5806 C 0.89187 0.7163 0.15956 0.0
C5807 C 0.88534 0.72033 0.1626 0.0
C5808 C 0.88609 0.72809 0.16537 0.0
C5809 C 0.89341 0.73191 0.16527 0.0
C5810 C 0.89995 0.72779 0.16238 0.0
C5811 C 0.89919 0.72012 0.15956 0.0
C5812 C 0.90304 0.69488 0.14336 0.0
C5813 C 0.9089 0.69968 0.14008 0.0
C5814 C 0.91418 0.69658 0.13455 0.0
C5815 C 0.91362 0.68865 0.13222 0.0
C5816 C 0.90799 0.68382 0.13578 0.0
C5817 C 0.90278 0.68688 0.14126 0.0
C5818 C 0.87755 0.6909 0.15528 0.0
C5819 C 0.87839 0.68301 0.15287 0.0
C5820 C 0.55148 0.59429 0.39185 0.0
C5821 C 0.54515 0.59149 0.38734 0.0
C5822 C 0.53785 0.59531 0.38803 0.0
C5823 C 0.53701 0.60196 0.39284 0.0
H5824 H 0.52137 0.61625 0.40578 0.0
H5825 H 0.50885 0.62193 0.40958 0.0
H5826 H 0.52078 0.6418 0.4199 0.0
H5827 H 0.5334 0.63612 0.41613 0.0
H5828 H 0.55168 0.63957 0.40999 0.0
H5829 H 0.56363 0.64749 0.40865 0.0
H5830 H 0.57566 0.6274 0.39881 0.0
H5831 H 0.564 0.61954 0.40026 0.0
H5832 H 0.55576 0.60306 0.39973 0.0
H5833 H 0.55712 0.59137 0.39173 0.0
H5834 H 0.53284 0.59336 0.38463 0.0
H5835 H 0.5314 0.60495 0.39304 0.0
N5836 N 0.53622 0.61545 0.404 0.0
N5837 N 0.54268 0.62698 0.40813 0.0
N5838 N 0.54966 0.61695 0.40181 0.0
C5839 C 0.53599 0.62262 0.4076 0.0
C5840 C 0.54956 0.62415 0.40523 0.0
C5841 C 0.54308 0.61257 0.40116 0.0
C5842 C 0.52842 0.62578 0.41053 0.0
C5843 C 0.52138 0.6218 0.40892 0.0
C5844 C 0.51418 0.62505 0.41109 0.0
C5845 C 0.51384 0.63233 0.41497 0.0
C5846 C 0.52087 0.63615 0.41694 0.0
C5847 C 0.5281 0.63292 0.41472 0.0
C5848 C 0.55684 0.62892 0.40521 0.0
C5849 C 0.55692 0.63683 0.40765 0.0
C5850 C 0.56374 0.64137 0.40686 0.0
C5851 C 0.57061 0.63806 0.40366 0.0
C5852 C 0.57054 0.63011 0.40144 0.0
C5853 C 0.56379 0.62561 0.40222 0.0
C5854 C 0.54349 0.60497 0.39696 0.0
C5855 C 0.55068 0.60097 0.39652 0.0
C5856 C 0.86327 0.62855 0.68962 0.0
C5857 C 0.8606 0.63601 0.69195 0.0
C5858 C 0.85851 0.63716 0.6999 0.0
C5859 C 0.85949 0.63113 0.70543 0.0
H5860 H 0.85865 0.62587 0.72969 0.0
H5861 H 0.85791 0.62842 0.7438 0.0
H5862 H 0.87093 0.60704 0.74824 0.0
H5863 H 0.87138 0.60436 0.73429 0.0
H5864 H 0.8769 0.59328 0.72037 0.0
H5865 H 0.88485 0.58239 0.71537 0.0
H5866 H 0.88139 0.59078 0.69163 0.0
H5867 H 0.87339 0.60145 0.69651 0.0
H5868 H 0.86647 0.61694 0.69308 0.0
H5869 H 0.86502 0.62743 0.68359 0.0
H5870 H 0.85625 0.64277 0.70189 0.0
H5871 H 0.85806 0.63231 0.71153 0.0
N5872 N 0.86346 0.61891 0.71687 0.0
N5873 N 0.86929 0.60666 0.7196 0.0
N5874 N 0.86789 0.61089 0.70659 0.0
C5875 C 0.86583 0.61341 0.72221 0.0
C5876 C 0.87031 0.60535 0.71178 0.0
C5877 C 0.86446 0.61765 0.70903 0.0
C5878 C 0.86508 0.6149 0.73081 0.0
C5879 C 0.8613 0.62168 0.73369 0.0
C5880 C 0.86092 0.62317 0.7418 0.0
C5881 C 0.86434 0.61794 0.74723 0.0
C5882 C 0.86806 0.61114 0.74431 0.0
C5883 C 0.86838 0.60963 0.73624 0.0
C5884 C 0.87454 0.5983 0.70886 0.0
C5885 C 0.87776 0.59274 0.71407 0.0
C5886 C 0.88234 0.58651 0.71122 0.0
C5887 C 0.88377 0.58571 0.7031 0.0
C5888 C 0.88032 0.59113 0.6979 0.0
C5889 C 0.87576 0.59732 0.70073 0.0
C5890 C 0.86252 0.6238 0.70313 0.0
C5891 C 0.86418 0.62252 0.69512 0.0
C5892 C 0.62064 0.60366 0.92745 0.0
C5893 C 0.61326 0.60134 0.9302 0.0
C5894 C 0.61265 0.59819 0.93785 0.0
C5895 C 0.61927 0.59785 0.94281 0.0
H5896 H 0.63024 0.59014 0.9659 0.0
H5897 H 0.63177 0.58583 0.97966 0.0
H5898 H 0.65453 0.59689 0.98047 0.0
H5899 H 0.65306 0.60119 0.96707 0.0
H5900 H 0.65958 0.61214 0.95441 0.0
H5901 H 0.66963 0.62096 0.94904 0.0
H5902 H 0.65692 0.62216 0.92711 0.0
H5903 H 0.647 0.61344 0.93234 0.0
H5904 H 0.63271 0.60527 0.92989 0.0
H5905 H 0.62134 0.60595 0.92154 0.0
H5906 H 0.607 0.59633 0.94011 0.0
H5907 H 0.61859 0.59572 0.94878 0.0
N5908 N 0.63403 0.59816 0.95274 0.0
N5909 N 0.64658 0.6038 0.95426 0.0
N5910 N 0.63965 0.60572 0.94265 0.0
C5911 C 0.64062 0.59935 0.95721 0.0
C5912 C 0.64613 0.607 0.94699 0.0
C5913 C 0.63358 0.60135 0.94535 0.0
C5914 C 0.64145 0.59614 0.96535 0.0
C5915 C 0.63557 0.59162 0.96903 0.0
C5916 C 0.63646 0.58911 0.97689 0.0
C5917 C 0.64321 0.59115 0.98121 0.0
C5918 C 0.64917 0.59537 0.9774 0.0
C5919 C 0.64831 0.59783 0.96964 0.0
C5920 C 0.65247 0.61206 0.94382 0.0
C5921 C 0.65896 0.61425 0.94843 0.0
C5922 C 0.6647 0.61932 0.94538 0.0
C5923 C 0.66407 0.62219 0.93765 0.0
C5924 C 0.65763 0.61994 0.93304 0.0
C5925 C 0.6519 0.61495 0.93608 0.0
C5926 C 0.62659 0.60058 0.94014 0.0
C5927 C 0.62718 0.60325 0.9323 0.0
C5928 C 0.62148 0.42227 0.19282 0.0
C5929 C 0.61766 0.42708 0.19834 0.0
C5930 C 0.61915 0.42587 0.20639 0.0
C5931 C 0.62416 0.41982 0.20886 0.0
H5932 H 0.63452 0.40896 0.22843 0.0
H5933 H 0.63532 0.40554 0.24228 0.0
H5934 H 0.64329 0.38221 0.23614 0.0
H5935 H 0.64272 0.38569 0.22224 0.0
H5936 H 0.6434 0.38066 0.20421 0.0
H5937 H 0.64484 0.37068 0.19404 0.0
H5938 H 0.63925 0.38795 0.17623 0.0
H5939 H 0.63809 0.39798 0.18634 0.0
H5940 H 0.62912 0.41258 0.1908 0.0
H5941 H 0.62039 0.42294 0.18657 0.0
H5942 H 0.61636 0.42953 0.21079 0.0
H5943 H 0.62504 0.41893 0.21511 0.0
N5944 N 0.63367 0.40625 0.21352 0.0
N5945 N 0.63978 0.39434 0.21005 0.0
N5946 N 0.63485 0.40268 0.20027 0.0
C5947 C 0.63742 0.39951 0.2157 0.0
C5948 C 0.63856 0.39593 0.2023 0.0
C5949 C 0.63238 0.40787 0.20579 0.0
C5950 C 0.63846 0.39758 0.22418 0.0
C5951 C 0.6365 0.40311 0.23 0.0
C5952 C 0.63692 0.40113 0.23798 0.0
C5953 C 0.63925 0.39355 0.24036 0.0
C5954 C 0.64151 0.38811 0.23454 0.0
C5955 C 0.64113 0.3901 0.22655 0.0
C5956 C 0.6405 0.3901 0.19612 0.0
C5957 C 0.64261 0.38237 0.19812 0.0
C5958 C 0.64337 0.37662 0.19228 0.0
C5959 C 0.64199 0.37846 0.18432 0.0
C5960 C 0.64036 0.38631 0.18229 0.0
C5961 C 0.63963 0.39205 0.18811 0.0
C5962 C 0.62775 0.41484 0.20332 0.0
C5963 C 0.62646 0.41626 0.19527 0.0
C5964 C 0.86143 0.40973 0.41999 0.0
C5965 C 0.85332 0.41015 0.42121 0.0
C5966 C 0.8505 0.41348 0.42824 0.0
C5967 C 0.85576 0.41576 0.43421 0.0
H5968 H 0.85883 0.42541 0.4577 0.0
H5969 H 0.85521 0.42945 0.47102 0.0
H5970 H 0.87883 0.42479 0.47888 0.0
H5971 H 0.88241 0.42062 0.46572 0.0
H5972 H 0.89477 0.41158 0.45489 0.0
H5973 H 0.90712 0.40461 0.45268 0.0
H5974 H 0.89941 0.39848 0.42923 0.0
H5975 H 0.88741 0.40563 0.43128 0.0
H5976 H 0.87284 0.41132 0.4247 0.0
H5977 H 0.86377 0.4073 0.41458 0.0
H5978 H 0.84425 0.41389 0.4293 0.0
H5979 H 0.85345 0.41792 0.43974 0.0
N5980 N 0.86763 0.41899 0.44679 0.0
N5981 N 0.88032 0.41627 0.45158 0.0
N5982 N 0.87694 0.41284 0.43873 0.0
C5983 C 0.87301 0.41932 0.45274 0.0
C5984 C 0.88232 0.41302 0.44456 0.0
C5985 C 0.86962 0.41578 0.43971 0.0
C5986 C 0.87088 0.42253 0.46062 0.0
C5987 C 0.86327 0.42529 0.46226 0.0
C5988 C 0.8612 0.42767 0.46989 0.0
C5989 C 0.86669 0.42733 0.47607 0.0
C5990 C 0.87439 0.42494 0.47432 0.0
C5991 C 0.87645 0.42258 0.46673 0.0
C5992 C 0.89006 0.40919 0.44328 0.0
C5993 C 0.89577 0.40881 0.44924 0.0
C5994 C 0.90283 0.40475 0.44799 0.0
C5995 C 0.90432 0.40096 0.44076 0.0
C5996 C 0.89861 0.40144 0.43481 0.0
C5997 C 0.89164 0.40552 0.43603 0.0
C5998 C 0.8639 0.41477 0.43317 0.0
C5999 C 0.86664 0.41203 0.42585 0.0
C6000 C 0.86178 0.37743 0.81593 0.0
C6001 C 0.86063 0.36955 0.81377 0.0
C6002 C 0.85986 0.36768 0.80573 0.0
C6003 C 0.86068 0.37352 0.79997 0.0
H6004 H 0.85852 0.37913 0.77547 0.0
H6005 H 0.8578 0.37661 0.76134 0.0
H6006 H 0.87123 0.39774 0.75698 0.0
H6007 H 0.87167 0.4004 0.77093 0.0
H6008 H 0.87687 0.41165 0.78476 0.0
H6009 H 0.88481 0.42256 0.78973 0.0
H6010 H 0.8811 0.41437 0.81351 0.0
H6011 H 0.87311 0.40369 0.80865 0.0
H6012 H 0.8637 0.38922 0.81212 0.0
H6013 H 0.86223 0.37909 0.82207 0.0
H6014 H 0.859 0.36165 0.80387 0.0
H6015 H 0.86038 0.37184 0.79383 0.0
N6016 N 0.86342 0.38604 0.78833 0.0
N6017 N 0.86926 0.39827 0.78556 0.0
N6018 N 0.86768 0.39419 0.7986 0.0
C6019 C 0.86584 0.3915 0.78298 0.0
C6020 C 0.87018 0.39966 0.79338 0.0
C6021 C 0.86431 0.38739 0.79618 0.0
C6022 C 0.86515 0.38997 0.77438 0.0
C6023 C 0.86127 0.38327 0.77148 0.0
C6024 C 0.86089 0.38179 0.76336 0.0
C6025 C 0.86442 0.38698 0.75795 0.0
C6026 C 0.86826 0.39369 0.76089 0.0
C6027 C 0.86858 0.39519 0.76896 0.0
C6028 C 0.87439 0.40674 0.79628 0.0
C6029 C 0.87767 0.41224 0.79105 0.0
C6030 C 0.88225 0.41847 0.7939 0.0
C6031 C 0.88361 0.41933 0.80202 0.0
C6032 C 0.88009 0.41398 0.80723 0.0
C6033 C 0.87554 0.40778 0.80441 0.0
C6034 C 0.86229 0.38134 0.80214 0.0
C6035 C 0.8626 0.38325 0.8102 0.0
C6036 C 0.8611 0.59398 0.08525 0.0
C6037 C 0.85296 0.5939 0.08408 0.0
C6038 C 0.84998 0.59075 0.07703 0.0
C6039 C 0.85511 0.5883 0.07102 0.0
H6040 H 0.85792 0.57777 0.04747 0.0
H6041 H 0.85412 0.57405 0.03403 0.0
H6042 H 0.87698 0.58079 0.02561 0.0
H6043 H 0.88088 0.58438 0.03887 0.0
H6044 H 0.89086 0.59717 0.04923 0.0
H6045 H 0.90244 0.60523 0.05152 0.0
H6046 H 0.90144 0.59951 0.07632 0.0
H6047 H 0.88965 0.59187 0.07405 0.0
H6048 H 0.87241 0.59194 0.08044 0.0
H6049 H 0.86357 0.59622 0.09068 0.0
H6050 H 0.84372 0.5906 0.076 0.0
H6051 H 0.85267 0.58629 0.06549 0.0
N6052 N 0.86668 0.58477 0.05829 0.0
N6053 N 0.87932 0.58731 0.05332 0.0
N6054 N 0.87632 0.59041 0.06634 0.0
C6055 C 0.87195 0.58445 0.05222 0.0
C6056 C 0.88155 0.59024 0.06038 0.0
C6057 C 0.86889 0.58774 0.06541 0.0
C6058 C 0.86968 0.58149 0.04429 0.0
C6059 C 0.86218 0.57835 0.04278 0.0
C6060 C 0.86001 0.57617 0.03511 0.0
C6061 C 0.86528 0.57714 0.02883 0.0
C6062 C 0.87283 0.57998 0.03037 0.0
C6063 C 0.87503 0.58207 0.03799 0.0
C6064 C 0.88929 0.59398 0.06148 0.0
C6065 C 0.89319 0.59757 0.05515 0.0
C6066 C 0.89986 0.60218 0.05648 0.0
C6067 C 0.90284 0.60318 0.06415 0.0
C6068 C 0.89919 0.59913 0.07038 0.0
C6069 C 0.89246 0.59466 0.06907 0.0
C6070 C 0.86328 0.58891 0.07202 0.0
C6071 C 0.86617 0.5915 0.07933 0.0
C6072 C 0.6211 0.58291 0.31243 0.0
C6073 C 0.61734 0.57806 0.30691 0.0
C6074 C 0.61889 0.57923 0.29886 0.0
C6075 C 0.62392 0.58527 0.2964 0.0
H6076 H 0.63008 0.59857 0.277 0.0
H6077 H 0.63059 0.60255 0.26325 0.0
H6078 H 0.64722 0.62078 0.26899 0.0
H6079 H 0.64669 0.61687 0.28287 0.0
H6080 H 0.64488 0.62376 0.30109 0.0
H6081 H 0.64647 0.63382 0.31115 0.0
H6082 H 0.63835 0.61746 0.32885 0.0
H6083 H 0.63706 0.60734 0.31889 0.0
H6084 H 0.62871 0.59262 0.31446 0.0
H6085 H 0.61995 0.58228 0.31867 0.0
H6086 H 0.61615 0.57554 0.29446 0.0
H6087 H 0.62487 0.58612 0.29015 0.0
N6088 N 0.63345 0.59882 0.29174 0.0
N6089 N 0.63993 0.61052 0.2952 0.0
N6090 N 0.63482 0.60229 0.30498 0.0
C6091 C 0.63738 0.60545 0.28955 0.0
C6092 C 0.63869 0.60895 0.30295 0.0
C6093 C 0.6322 0.59718 0.29947 0.0
C6094 C 0.63828 0.60744 0.28109 0.0
C6095 C 0.63391 0.60338 0.27537 0.0
C6096 C 0.63417 0.60567 0.26749 0.0
C6097 C 0.63889 0.61201 0.26509 0.0
C6098 C 0.64354 0.61587 0.2707 0.0
C6099 C 0.6432 0.61365 0.27864 0.0
C6100 C 0.64071 0.61476 0.30913 0.0
C6101 C 0.64356 0.62226 0.30715 0.0
C6102 C 0.64441 0.62805 0.31292 0.0
C6103 C 0.64239 0.62651 0.32081 0.0
C6104 C 0.64 0.61887 0.32286 0.0
C6105 C 0.63919 0.61307 0.3171 0.0
C6106 C 0.62747 0.59028 0.30194 0.0
C6107 C 0.6261 0.58891 0.30999 0.0
C6108 C 0.62081 0.40167 0.57746 0.0
C6109 C 0.61336 0.40373 0.57469 0.0
C6110 C 0.61263 0.40657 0.56692 0.0
C6111 C 0.61921 0.40683 0.56189 0.0
H6112 H 0.63062 0.41529 0.53918 0.0
H6113 H 0.63248 0.42047 0.52579 0.0
H6114 H 0.65431 0.40773 0.52403 0.0
H6115 H 0.65258 0.40274 0.53717 0.0
H6116 H 0.66039 0.39385 0.55111 0.0
H6117 H 0.67056 0.38535 0.55672 0.0
H6118 H 0.65573 0.38091 0.57686 0.0
H6119 H 0.64579 0.38942 0.57145 0.0
H6120 H 0.63289 0.40016 0.57494 0.0
H6121 H 0.62161 0.39963 0.58345 0.0
H6122 H 0.60694 0.40823 0.56464 0.0
H6123 H 0.61845 0.4087 0.55584 0.0
N6124 N 0.63402 0.40658 0.55194 0.0
N6125 N 0.64648 0.40073 0.55036 0.0
N6126 N 0.63953 0.39889 0.56199 0.0
C6127 C 0.64057 0.40528 0.54743 0.0
C6128 C 0.64599 0.39751 0.55762 0.0
C6129 C 0.63353 0.40338 0.55932 0.0
C6130 C 0.64144 0.40859 0.53933 0.0
C6131 C 0.63582 0.41363 0.53593 0.0
C6132 C 0.63688 0.41658 0.52825 0.0
C6133 C 0.6436 0.4146 0.52384 0.0
C6134 C 0.64916 0.40956 0.52727 0.0
C6135 C 0.64811 0.40663 0.53486 0.0
C6136 C 0.65227 0.39238 0.56083 0.0
C6137 C 0.65933 0.39108 0.55675 0.0
C6138 C 0.66515 0.38618 0.55995 0.0
C6139 C 0.66401 0.38252 0.56729 0.0
C6140 C 0.65692 0.38378 0.57129 0.0
C6141 C 0.65116 0.38865 0.56814 0.0
C6142 C 0.6266 0.40432 0.56459 0.0
C6143 C 0.62731 0.40199 0.57252 0.0
C6144 C 0.69788 0.86956 0.65118 0.0
C6145 C 0.70455 0.87117 0.65567 0.0
C6146 C 0.71184 0.86813 0.65335 0.0
C6147 C 0.71246 0.86364 0.64646 0.0
H6148 H 0.72795 0.85242 0.63152 0.0
H6149 H 0.74061 0.84855 0.62624 0.0
H6150 H 0.72932 0.83911 0.60557 0.0
H6151 H 0.71655 0.84297 0.61083 0.0
H6152 H 0.69878 0.8506 0.60648 0.0
H6153 H 0.68759 0.85384 0.59793 0.0
H6154 H 0.67481 0.86238 0.6181 0.0
H6155 H 0.6857 0.85914 0.62657 0.0
H6156 H 0.69318 0.86401 0.641 0.0
H6157 H 0.6922 0.87183 0.65293 0.0
H6158 H 0.71704 0.86933 0.6568 0.0
H6159 H 0.71817 0.86148 0.6447 0.0
N6160 N 0.71316 0.85471 0.63166 0.0
N6161 N 0.7071 0.85105 0.61976 0.0
N6162 N 0.69996 0.85758 0.62952 0.0
C6163 C 0.71359 0.85121 0.62445 0.0
C6164 C 0.70023 0.8542 0.62231 0.0
C6165 C 0.70632 0.85788 0.63424 0.0
C6166 C 0.7212 0.84812 0.62155 0.0
C6167 C 0.72811 0.84945 0.62588 0.0
C6168 C 0.73539 0.84724 0.62286 0.0
C6169 C 0.73595 0.84359 0.61547 0.0
C6170 C 0.72905 0.84188 0.6113 0.0
C6171 C 0.72174 0.84416 0.6143 0.0
C6172 C 0.69322 0.85476 0.61719 0.0
C6173 C 0.69352 0.85301 0.6091 0.0
C6174 C 0.68713 0.85484 0.60421 0.0
C6175 C 0.68043 0.85847 0.60737 0.0
C6176 C 0.67996 0.85969 0.61551 0.0
C6177 C 0.68624 0.85783 0.62036 0.0
C6178 C 0.70578 0.86213 0.64184 0.0
C6179 C 0.69847 0.86507 0.64435 0.0
C6180 C 0.19753 0.6346 0.35485 0.0
C6181 C 0.20383 0.63375 0.3496 0.0
C6182 C 0.21108 0.63721 0.35154 0.0
C6183 C 0.21196 0.64145 0.35857 0.0
H6184 H 0.22802 0.652 0.37386 0.0
H6185 H 0.24071 0.65604 0.37898 0.0
H6186 H 0.22949 0.66571 0.39959 0.0
H6187 H 0.21672 0.66169 0.39449 0.0
H6188 H 0.19899 0.65406 0.39913 0.0
H6189 H 0.18741 0.65214 0.4075 0.0
H6190 H 0.17448 0.64365 0.38737 0.0
H6191 H 0.18573 0.6457 0.3791 0.0
H6192 H 0.19333 0.63928 0.36562 0.0
H6193 H 0.19191 0.63185 0.35369 0.0
H6194 H 0.21604 0.63672 0.3476 0.0
H6195 H 0.2176 0.64402 0.35994 0.0
N6196 N 0.2132 0.6497 0.37384 0.0
N6197 N 0.20727 0.65346 0.3858 0.0
N6198 N 0.20003 0.64684 0.37619 0.0
C6199 C 0.21371 0.65324 0.38103 0.0
C6200 C 0.20038 0.65027 0.38335 0.0
C6201 C 0.20633 0.64649 0.37139 0.0
C6202 C 0.22133 0.65641 0.38381 0.0
C6203 C 0.22821 0.65506 0.37944 0.0
C6204 C 0.23549 0.65736 0.38238 0.0
C6205 C 0.23609 0.66113 0.38971 0.0
C6206 C 0.2292 0.66285 0.3939 0.0
C6207 C 0.22189 0.66049 0.391 0.0
C6208 C 0.19333 0.64999 0.38845 0.0
C6209 C 0.19362 0.65191 0.39649 0.0
C6210 C 0.18702 0.65078 0.40129 0.0
C6211 C 0.18002 0.64778 0.39809 0.0
C6212 C 0.1797 0.64611 0.39001 0.0
C6213 C 0.18624 0.64722 0.38527 0.0
C6214 C 0.2056 0.64229 0.36378 0.0
C6215 C 0.19838 0.63883 0.36178 0.0
C6216 C 0.61308 0.93924 0.62724 0.0
C6217 C 0.61073 0.94136 0.61963 0.0
C6218 C 0.60858 0.94921 0.61813 0.0
C6219 C 0.60926 0.95493 0.62404 0.0
H6220 H 0.60781 0.97965 0.62932 0.0
H6221 H 0.60795 0.99378 0.62632 0.0
H6222 H 0.62132 0.9981 0.64742 0.0
H6223 H 0.62116 0.98415 0.65049 0.0
H6224 H 0.62645 0.97054 0.66172 0.0
H6225 H 0.63452 0.96564 0.67256 0.0
H6226 H 0.63048 0.94178 0.66476 0.0
H6227 H 0.62234 0.94658 0.65417 0.0
H6228 H 0.61572 0.94301 0.63886 0.0
H6229 H 0.61465 0.93321 0.6286 0.0
H6230 H 0.60675 0.95098 0.61229 0.0
H6231 H 0.60788 0.96099 0.62263 0.0
N6232 N 0.61281 0.96673 0.63625 0.0
N6233 N 0.61853 0.9696 0.64852 0.0
N6234 N 0.61715 0.95656 0.64447 0.0
C6235 C 0.61513 0.97213 0.64172 0.0
C6236 C 0.61953 0.96181 0.64995 0.0
C6237 C 0.61379 0.95889 0.63763 0.0
C6238 C 0.61456 0.98071 0.6401 0.0
C6239 C 0.61072 0.98362 0.63336 0.0
C6240 C 0.61076 0.99171 0.63165 0.0
C6241 C 0.61472 0.997 0.6366 0.0
C6242 C 0.61831 0.99413 0.64345 0.0
C6243 C 0.61819 0.98611 0.64521 0.0
C6244 C 0.62378 0.95897 0.65702 0.0
C6245 C 0.62719 0.96424 0.6624 0.0
C6246 C 0.63186 0.96144 0.66858 0.0
C6247 C 0.63317 0.95332 0.66953 0.0
C6248 C 0.62951 0.94807 0.66431 0.0
C6249 C 0.62487 0.95085 0.65816 0.0
C6250 C 0.61202 0.95287 0.63156 0.0
C6251 C 0.61368 0.9449 0.63313 0.0
C6252 C 0.30109 0.36723 0.84686 0.0
C6253 C 0.2946 0.36822 0.84192 0.0
C6254 C 0.28763 0.36413 0.8436 0.0
C6255 C 0.28712 0.35933 0.8503 0.0
H6256 H 0.27149 0.34865 0.86595 0.0
H6257 H 0.25893 0.34499 0.87163 0.0
H6258 H 0.27075 0.33487 0.89168 0.0
H6259 H 0.2834 0.33847 0.88599 0.0
H6260 H 0.30131 0.34658 0.89011 0.0
H6261 H 0.3131 0.3492 0.89801 0.0
H6262 H 0.32596 0.35449 0.87678 0.0
H6263 H 0.3144 0.35195 0.86897 0.0
H6264 H 0.30578 0.3619 0.85713 0.0
H6265 H 0.30658 0.37021 0.84563 0.0
H6266 H 0.28255 0.3648 0.83985 0.0
H6267 H 0.28164 0.35637 0.85157 0.0
N6268 N 0.28634 0.35073 0.86539 0.0
N6269 N 0.29273 0.34627 0.87685 0.0
N6270 N 0.29973 0.35298 0.86711 0.0
C6271 C 0.28607 0.34691 0.87245 0.0
C6272 C 0.29961 0.34926 0.87414 0.0
C6273 C 0.29319 0.35378 0.86269 0.0
C6274 C 0.27848 0.34397 0.87556 0.0
C6275 C 0.27146 0.34557 0.87153 0.0
C6276 C 0.26424 0.34349 0.87479 0.0
C6277 C 0.26386 0.33972 0.88214 0.0
C6278 C 0.27087 0.33774 0.88599 0.0
C6279 C 0.27811 0.33986 0.88275 0.0
C6280 C 0.30686 0.34924 0.87893 0.0
C6281 C 0.30671 0.34814 0.88714 0.0
C6282 C 0.31344 0.34963 0.89166 0.0
C6283 C 0.32037 0.35223 0.888 0.0
C6284 C 0.32065 0.35268 0.87976 0.0
C6285 C 0.314 0.35121 0.87529 0.0
C6286 C 0.29361 0.35847 0.85534 0.0
C6287 C 0.30062 0.36241 0.85345 0.0
C6288 C 0.37073 0.56222 0.67186 0.0
C6289 C 0.3672 0.55673 0.67692 0.0
C6290 C 0.36886 0.54869 0.67587 0.0
C6291 C 0.37379 0.54619 0.66976 0.0
H6292 H 0.38141 0.52648 0.65737 0.0
H6293 H 0.38244 0.51273 0.6538 0.0
H6294 H 0.39617 0.519 0.63335 0.0
H6295 H 0.39487 0.53285 0.63678 0.0
H6296 H 0.39414 0.55084 0.63091 0.0
H6297 H 0.39581 0.56095 0.62091 0.0
H6298 H 0.38827 0.57867 0.63752 0.0
H6299 H 0.3869 0.56865 0.64758 0.0
H6300 H 0.37807 0.56419 0.66194 0.0
H6301 H 0.36948 0.56844 0.67239 0.0
H6302 H 0.36627 0.54432 0.67971 0.0
H6303 H 0.37485 0.53995 0.66901 0.0
N6304 N 0.38306 0.54146 0.65598 0.0
N6305 N 0.38944 0.54495 0.64422 0.0
N6306 N 0.38438 0.55472 0.65249 0.0
C6307 C 0.38694 0.53929 0.64931 0.0
C6308 C 0.3882 0.55269 0.64581 0.0
C6309 C 0.38179 0.54919 0.65762 0.0
C6310 C 0.38802 0.53083 0.64736 0.0
C6311 C 0.38469 0.52496 0.65213 0.0
C6312 C 0.38534 0.51702 0.65009 0.0
C6313 C 0.38941 0.51468 0.64327 0.0
C6314 C 0.39288 0.52055 0.63857 0.0
C6315 C 0.39218 0.52851 0.64058 0.0
C6316 C 0.39026 0.55889 0.64002 0.0
C6317 C 0.39297 0.5569 0.63247 0.0
C6318 C 0.39386 0.56271 0.62671 0.0
C6319 C 0.39202 0.57062 0.62835 0.0
C6320 C 0.38977 0.57266 0.63604 0.0
C6321 C 0.38892 0.56687 0.6418 0.0
C6322 C 0.37713 0.5517 0.66456 0.0
C6323 C 0.37563 0.55975 0.66579 0.0
C6324 C 0.8018 0.14063 0.16044 0.0
C6325 C 0.79509 0.13756 0.16411 0.0
C6326 C 0.78768 0.13928 0.1609 0.0
C6327 C 0.78702 0.14393 0.15411 0.0
H6328 H 0.77163 0.15588 0.13915 0.0
H6329 H 0.75913 0.15961 0.13338 0.0
H6330 H 0.77116 0.17028 0.11375 0.0
H6331 H 0.78375 0.16658 0.11951 0.0
H6332 H 0.80198 0.16035 0.11588 0.0
H6333 H 0.81355 0.1579 0.10758 0.0
H6334 H 0.82536 0.1473 0.12736 0.0
H6335 H 0.81409 0.14974 0.1356 0.0
H6336 H 0.8065 0.14736 0.151 0.0
H6337 H 0.8076 0.13934 0.1627 0.0
H6338 H 0.7824 0.13704 0.16364 0.0
H6339 H 0.78126 0.14507 0.15169 0.0
N6340 N 0.78652 0.15418 0.14003 0.0
N6341 N 0.79296 0.15834 0.12849 0.0
N6342 N 0.7999 0.1518 0.13838 0.0
C6343 C 0.78629 0.15785 0.13289 0.0
C6344 C 0.79981 0.15533 0.13124 0.0
C6345 C 0.79336 0.15118 0.14282 0.0
C6346 C 0.77873 0.16082 0.12975 0.0
C6347 C 0.77166 0.1591 0.13365 0.0
C6348 C 0.76448 0.16122 0.13034 0.0
C6349 C 0.76417 0.16517 0.12309 0.0
C6350 C 0.77122 0.16727 0.11937 0.0
C6351 C 0.77843 0.16508 0.12265 0.0
C6352 C 0.80702 0.15511 0.12638 0.0
C6353 C 0.8071 0.15763 0.11848 0.0
C6354 C 0.81371 0.15626 0.11374 0.0
C6355 C 0.82025 0.15231 0.11684 0.0
C6356 C 0.82033 0.15026 0.12482 0.0
C6357 C 0.81383 0.15167 0.12953 0.0
C6358 C 0.79378 0.14685 0.15037 0.0
C6359 C 0.80116 0.1452 0.15368 0.0
C6360 C 0.61311 0.06555 0.87814 0.0
C6361 C 0.61044 0.06321 0.88561 0.0
C6362 C 0.6083 0.05529 0.88676 0.0
C6363 C 0.60923 0.04977 0.88073 0.0
H6364 H 0.61123 0.02593 0.87707 0.0
H6365 H 0.61092 0.01189 0.88014 0.0
H6366 H 0.61714 0.00643 0.85616 0.0
H6367 H 0.61764 0.02047 0.85304 0.0
H6368 H 0.62674 0.03453 0.84306 0.0
H6369 H 0.63483 0.03947 0.83224 0.0
H6370 H 0.63111 0.06327 0.84038 0.0
H6371 H 0.62297 0.05844 0.85095 0.0
H6372 H 0.61628 0.06207 0.86652 0.0
H6373 H 0.61489 0.07156 0.87703 0.0
H6374 H 0.60605 0.0533 0.89237 0.0
H6375 H 0.60775 0.04368 0.8819 0.0
N6376 N 0.61308 0.03832 0.86857 0.0
N6377 N 0.61883 0.0354 0.85633 0.0
N6378 N 0.61759 0.04848 0.86047 0.0
C6379 C 0.61535 0.03291 0.86312 0.0
C6380 C 0.61994 0.04321 0.85497 0.0
C6381 C 0.61415 0.04613 0.86726 0.0
C6382 C 0.61452 0.02436 0.86481 0.0
C6383 C 0.61248 0.02176 0.87241 0.0
C6384 C 0.61231 0.01373 0.87419 0.0
C6385 C 0.61401 0.00812 0.86838 0.0
C6386 C 0.61576 0.01067 0.86072 0.0
C6387 C 0.61607 0.01871 0.85896 0.0
C6388 C 0.62423 0.04606 0.84793 0.0
C6389 C 0.62757 0.04082 0.84247 0.0
C6390 C 0.63223 0.04365 0.83629 0.0
C6391 C 0.63362 0.05177 0.83544 0.0
C6392 C 0.63007 0.05699 0.84075 0.0
C6393 C 0.62543 0.05419 0.84689 0.0
C6394 C 0.61226 0.05205 0.87339 0.0
C6395 C 0.61398 0.06005 0.87211 0.0
C6396 C 0.87099 0.94309 0.33294 0.0
C6397 C 0.86717 0.94861 0.32814 0.0
C6398 C 0.86858 0.95667 0.32943 0.0
C6399 C 0.87352 0.95913 0.33554 0.0
H6400 H 0.8795 0.97843 0.34914 0.0
H6401 H 0.88045 0.99216 0.35267 0.0
H6402 H 0.89745 0.98641 0.37065 0.0
H6403 H 0.89618 0.9725 0.36732 0.0
H6404 H 0.89357 0.95383 0.37446 0.0
H6405 H 0.89503 0.94327 0.38412 0.0
H6406 H 0.88921 0.92613 0.3663 0.0
H6407 H 0.8877 0.93657 0.3567 0.0
H6408 H 0.87857 0.94105 0.34267 0.0
H6409 H 0.86996 0.93684 0.33223 0.0
H6410 H 0.86578 0.96107 0.32577 0.0
H6411 H 0.87435 0.96538 0.33648 0.0
N6412 N 0.88292 0.96374 0.34924 0.0
N6413 N 0.8894 0.96015 0.36094 0.0
N6414 N 0.88444 0.95047 0.3525 0.0
C6415 C 0.88679 0.96586 0.35594 0.0
C6416 C 0.88825 0.95242 0.35921 0.0
C6417 C 0.88176 0.95603 0.34747 0.0
C6418 C 0.88775 0.97432 0.35794 0.0
C6419 C 0.88348 0.98006 0.35383 0.0
C6420 C 0.88408 0.988 0.35583 0.0
C6421 C 0.88909 0.9905 0.36193 0.0
C6422 C 0.89346 0.98475 0.36599 0.0
C6423 C 0.89276 0.97676 0.36405 0.0
C6424 C 0.89037 0.94608 0.36483 0.0
C6425 C 0.89273 0.9478 0.37257 0.0
C6426 C 0.89359 0.94175 0.3781 0.0
C6427 C 0.89211 0.93388 0.37599 0.0
C6428 C 0.89023 0.93214 0.36814 0.0
C6429 C 0.88939 0.93816 0.36263 0.0
C6430 C 0.87712 0.95358 0.3405 0.0
C6431 C 0.87591 0.94553 0.33901 0.0
C6432 C 0.36067 0.30716 0.12735 0.0
C6433 C 0.35344 0.30339 0.12853 0.0
C6434 C 0.35326 0.2964 0.13298 0.0
C6435 C 0.36019 0.29309 0.13585 0.0
H6436 H 0.369 0.27188 0.14235 0.0
H6437 H 0.36881 0.25773 0.14409 0.0
H6438 H 0.39412 0.25751 0.1453 0.0
H6439 H 0.39434 0.27168 0.14326 0.0
H6440 H 0.40323 0.28628 0.13351 0.0
H6441 H 0.41455 0.29284 0.12758 0.0
H6442 H 0.40196 0.3149 0.12782 0.0
H6443 H 0.39079 0.30845 0.13381 0.0
H6444 H 0.37305 0.30688 0.12903 0.0
H6445 H 0.36108 0.31249 0.12388 0.0
H6446 H 0.34777 0.29343 0.13417 0.0
H6447 H 0.35986 0.28759 0.13906 0.0
N6448 N 0.37494 0.28526 0.13912 0.0
N6449 N 0.38871 0.28517 0.13886 0.0
N6450 N 0.38179 0.2965 0.13521 0.0
C6451 C 0.38181 0.2814 0.14034 0.0
C6452 C 0.38872 0.29278 0.13636 0.0
C6453 C 0.37488 0.29282 0.13657 0.0
C6454 C 0.3817 0.27294 0.1425 0.0
C6455 C 0.37454 0.26885 0.14306 0.0
C6456 C 0.37442 0.26071 0.14413 0.0
C6457 C 0.38145 0.25643 0.14473 0.0
C6458 C 0.38859 0.26058 0.14467 0.0
C6459 C 0.38872 0.26873 0.14354 0.0
C6460 C 0.39606 0.29681 0.13404 0.0
C6461 C 0.40295 0.29256 0.13246 0.0
C6462 C 0.40942 0.29631 0.12902 0.0
C6463 C 0.40913 0.30437 0.12718 0.0
C6464 C 0.40242 0.3087 0.12923 0.0
C6465 C 0.39597 0.30497 0.1326 0.0
C6466 C 0.36744 0.29672 0.13439 0.0
C6467 C 0.36757 0.3039 0.13027 0.0
C6468 C 0.43387 0.61801 0.89276 0.0
C6469 C 0.43628 0.6104 0.89481 0.0
C6470 C 0.44419 0.6091 0.89675 0.0
C6471 C 0.44969 0.61523 0.89612 0.0
H6472 H 0.4743 0.62019 0.89237 0.0
H6473 H 0.48851 0.61844 0.89184 0.0
H6474 H 0.49143 0.64363 0.88989 0.0
H6475 H 0.47732 0.64532 0.89012 0.0
H6476 H 0.46301 0.65354 0.87856 0.0
H6477 H 0.45708 0.66391 0.87043 0.0
H6478 H 0.43406 0.65647 0.87776 0.0
H6479 H 0.43983 0.64616 0.88582 0.0
H6480 H 0.43715 0.62982 0.89039 0.0
H6481 H 0.42779 0.61921 0.89137 0.0
H6482 H 0.4462 0.60327 0.89836 0.0
H6483 H 0.4558 0.614 0.89733 0.0
N6484 N 0.46093 0.62812 0.89272 0.0
N6485 N 0.46307 0.64082 0.88756 0.0
N6486 N 0.45032 0.63603 0.88896 0.0
C6487 C 0.46599 0.634 0.89061 0.0
C6488 C 0.45522 0.64188 0.88674 0.0
C6489 C 0.45304 0.62916 0.89195 0.0
C6490 C 0.47463 0.63289 0.89115 0.0
C6491 C 0.47799 0.62535 0.89188 0.0
C6492 C 0.48616 0.62436 0.89161 0.0
C6493 C 0.49117 0.63088 0.89067 0.0
C6494 C 0.48779 0.63843 0.89037 0.0
C6495 C 0.47966 0.63941 0.89055 0.0
C6496 C 0.45191 0.64894 0.88279 0.0
C6497 C 0.45669 0.65421 0.87857 0.0
C6498 C 0.45332 0.66014 0.87393 0.0
C6499 C 0.44514 0.66095 0.87353 0.0
C6500 C 0.44039 0.65598 0.87804 0.0
C6501 C 0.44372 0.65004 0.88262 0.0
C6502 C 0.44732 0.62277 0.89363 0.0
C6503 C 0.43929 0.6241 0.89221 0.0
C6504 C 0.09809 0.70592 0.62891 0.0
C6505 C 0.09142 0.71004 0.62637 0.0
C6506 C 0.09122 0.71827 0.62729 0.0
C6507 C 0.09771 0.72232 0.63033 0.0
H6508 H 0.10698 0.74455 0.63856 0.0
H6509 H 0.10805 0.75892 0.6393 0.0
H6510 H 0.13325 0.75707 0.63964 0.0
H6511 H 0.1323 0.74283 0.63906 0.0
H6512 H 0.14086 0.72696 0.63727 0.0
H6513 H 0.1529 0.72039 0.63326 0.0
H6514 H 0.13932 0.70094 0.62414 0.0
H6515 H 0.12738 0.7073 0.62843 0.0
H6516 H 0.10968 0.70654 0.63351 0.0
H6517 H 0.09851 0.6996 0.6282 0.0
H6518 H 0.08612 0.7216 0.62546 0.0
H6519 H 0.09751 0.72868 0.63068 0.0
N6520 N 0.11211 0.73018 0.63607 0.0
N6521 N 0.12588 0.72972 0.63656 0.0
N6522 N 0.11879 0.71835 0.63367 0.0
C6523 C 0.11911 0.73389 0.63728 0.0
C6524 C 0.12577 0.72197 0.63476 0.0
C6525 C 0.11194 0.72235 0.63434 0.0
C6526 C 0.11954 0.7425 0.63864 0.0
C6527 C 0.11275 0.74719 0.63893 0.0
C6528 C 0.11334 0.7554 0.63938 0.0
C6529 C 0.12073 0.75905 0.63947 0.0
C6530 C 0.12749 0.75438 0.63952 0.0
C6531 C 0.12691 0.7462 0.63918 0.0
C6532 C 0.13314 0.71769 0.63312 0.0
C6533 C 0.14045 0.72123 0.6345 0.0
C6534 C 0.14736 0.71749 0.63214 0.0
C6535 C 0.14709 0.71017 0.62829 0.0
C6536 C 0.13978 0.70652 0.62717 0.0
C6537 C 0.1329 0.71021 0.6296 0.0
C6538 C 0.10455 0.7182 0.63241 0.0
C6539 C 0.10455 0.70993 0.63189 0.0
C6540 C 0.07938 0.37605 0.39613 0.0
C6541 C 0.0769 0.3831 0.39962 0.0
C6542 C 0.06968 0.38323 0.40363 0.0
C6543 C 0.06483 0.37654 0.40372 0.0
H6544 H 0.04245 0.36678 0.41076 0.0
H6545 H 0.02918 0.36598 0.41614 0.0
H6546 H 0.02615 0.34328 0.40512 0.0
H6547 H 0.03934 0.34397 0.39993 0.0
H6548 H 0.05096 0.33834 0.38622 0.0
H6549 H 0.05541 0.3289 0.37626 0.0
H6550 H 0.07839 0.33952 0.37656 0.0
H6551 H 0.07407 0.34883 0.38642 0.0
H6552 H 0.07672 0.36418 0.3933 0.0
H6553 H 0.08498 0.3757 0.39314 0.0
H6554 H 0.06763 0.3886 0.40639 0.0
H6555 H 0.05917 0.37689 0.40658 0.0
N6556 N 0.05469 0.36231 0.40249 0.0
N6557 N 0.05236 0.35014 0.39627 0.0
N6558 N 0.06414 0.35677 0.39415 0.0
C6559 C 0.04992 0.35598 0.40119 0.0
C6560 C 0.05949 0.35049 0.39275 0.0
C6561 C 0.06187 0.3627 0.39897 0.0
C6562 C 0.04199 0.35547 0.40485 0.0
C6563 C 0.03897 0.36159 0.40953 0.0
C6564 C 0.03134 0.36115 0.4126 0.0
C6565 C 0.02656 0.35457 0.41107 0.0
C6566 C 0.02967 0.34839 0.40654 0.0
C6567 C 0.03726 0.34883 0.40348 0.0
C6568 C 0.06214 0.34437 0.38713 0.0
C6569 C 0.05698 0.3386 0.38421 0.0
C6570 C 0.05951 0.33323 0.37848 0.0
C6571 C 0.06725 0.33346 0.37566 0.0
C6572 C 0.07242 0.33912 0.37869 0.0
C6573 C 0.06991 0.3445 0.38433 0.0
C6574 C 0.06716 0.36961 0.39983 0.0
C6575 C 0.0746 0.36942 0.39624 0.0
C6576 C 0.36073 0.69799 0.37757 0.0
C6577 C 0.3535 0.70177 0.37639 0.0
C6578 C 0.35333 0.70879 0.372 0.0
C6579 C 0.36026 0.71213 0.36918 0.0
H6580 H 0.36977 0.73245 0.35884 0.0
H6581 H 0.36921 0.74658 0.35657 0.0
H6582 H 0.39312 0.74875 0.36476 0.0
H6583 H 0.39376 0.73464 0.3667 0.0
H6584 H 0.40321 0.7191 0.37217 0.0
H6585 H 0.41453 0.71251 0.37807 0.0
H6586 H 0.40211 0.69037 0.3773 0.0
H6587 H 0.39094 0.69685 0.37135 0.0
H6588 H 0.37311 0.69829 0.37593 0.0
H6589 H 0.36114 0.69264 0.381 0.0
H6590 H 0.34784 0.71177 0.37082 0.0
H6591 H 0.35994 0.71766 0.36601 0.0
N6592 N 0.37502 0.72004 0.3661 0.0
N6593 N 0.38879 0.7202 0.36667 0.0
N6594 N 0.38187 0.70878 0.37002 0.0
C6595 C 0.3819 0.72395 0.36509 0.0
C6596 C 0.38879 0.71256 0.36905 0.0
C6597 C 0.37496 0.71245 0.36858 0.0
C6598 C 0.3818 0.73241 0.363 0.0
C6599 C 0.37494 0.73594 0.36007 0.0
C6600 C 0.3746 0.74406 0.35881 0.0
C6601 C 0.38109 0.74886 0.36053 0.0
C6602 C 0.38803 0.74527 0.36324 0.0
C6603 C 0.38839 0.73714 0.3644 0.0
C6604 C 0.39612 0.70853 0.37139 0.0
C6605 C 0.40297 0.7128 0.37311 0.0
C6606 C 0.40943 0.70904 0.37652 0.0
C6607 C 0.40919 0.70093 0.37821 0.0
C6608 C 0.40253 0.6966 0.37602 0.0
C6609 C 0.39608 0.70035 0.37267 0.0
C6610 C 0.36752 0.70849 0.37063 0.0
C6611 C 0.36764 0.70128 0.37468 0.0
C6612 C 0.08049 0.6291 0.10915 0.0
C6613 C 0.0779 0.62213 0.10559 0.0
C6614 C 0.07072 0.62219 0.1015 0.0
C6615 C 0.06604 0.629 0.10136 0.0
H6616 H 0.04315 0.63864 0.09585 0.0
H6617 H 0.02977 0.63981 0.09087 0.0
H6618 H 0.0297 0.66452 0.09687 0.0
H6619 H 0.0429 0.66332 0.10201 0.0
H6620 H 0.05407 0.66929 0.11596 0.0
H6621 H 0.05773 0.67837 0.12659 0.0
H6622 H 0.07703 0.66324 0.13284 0.0
H6623 H 0.07358 0.65426 0.12228 0.0
H6624 H 0.07809 0.64103 0.11198 0.0
H6625 H 0.08607 0.62931 0.11219 0.0
H6626 H 0.06858 0.61689 0.09868 0.0
H6627 H 0.06042 0.62881 0.09842 0.0
N6628 N 0.05642 0.64357 0.10221 0.0
N6629 N 0.05423 0.6558 0.10838 0.0
N6630 N 0.06562 0.6487 0.11106 0.0
C6631 C 0.05183 0.65008 0.10331 0.0
C6632 C 0.06112 0.65514 0.11229 0.0
C6633 C 0.0634 0.64292 0.10605 0.0
C6634 C 0.04407 0.65085 0.09944 0.0
C6635 C 0.0403 0.64434 0.09603 0.0
C6636 C 0.03264 0.64502 0.09314 0.0
C6637 C 0.0286 0.65224 0.09357 0.0
C6638 C 0.03254 0.65882 0.09663 0.0
C6639 C 0.04015 0.65813 0.09955 0.0
C6640 C 0.0635 0.66101 0.11827 0.0
C6641 C 0.05914 0.66794 0.11954 0.0
C6642 C 0.06123 0.67314 0.1256 0.0
C6643 C 0.06762 0.67143 0.13049 0.0
C6644 C 0.07206 0.66463 0.12913 0.0
C6645 C 0.07006 0.65951 0.12306 0.0
C6646 C 0.0685 0.63586 0.1053 0.0
C6647 C 0.07588 0.63585 0.109 0.0
C6648 C 0.09804 0.29915 0.87614 0.0
C6649 C 0.09145 0.29498 0.87882 0.0
C6650 C 0.09134 0.28673 0.87801 0.0
C6651 C 0.09786 0.28273 0.87497 0.0
H6652 H 0.10719 0.26063 0.86641 0.0
H6653 H 0.10828 0.24626 0.86564 0.0
H6654 H 0.13349 0.24814 0.86573 0.0
H6655 H 0.13251 0.26238 0.86636 0.0
H6656 H 0.14098 0.27833 0.86794 0.0
H6657 H 0.153 0.28489 0.87199 0.0
H6658 H 0.13937 0.30423 0.88128 0.0
H6659 H 0.12744 0.29787 0.87696 0.0
H6660 H 0.1096 0.2986 0.87144 0.0
H6661 H 0.09838 0.30548 0.87676 0.0
H6662 H 0.08631 0.28337 0.87995 0.0
H6663 H 0.09773 0.27636 0.87472 0.0
N6664 N 0.11226 0.27498 0.86912 0.0
N6665 N 0.12602 0.27549 0.86869 0.0
N6666 N 0.11888 0.28683 0.87157 0.0
C6667 C 0.11928 0.2713 0.86794 0.0
C6668 C 0.12588 0.28324 0.8705 0.0
C6669 C 0.11205 0.2828 0.87085 0.0
C6670 C 0.11975 0.26269 0.86656 0.0
C6671 C 0.11296 0.25799 0.86614 0.0
C6672 C 0.11358 0.24978 0.86567 0.0
C6673 C 0.12097 0.24614 0.86569 0.0
C6674 C 0.12773 0.25083 0.86577 0.0
C6675 C 0.12713 0.25899 0.86614 0.0
C6676 C 0.13323 0.28754 0.87217 0.0
C6677 C 0.14056 0.28403 0.87076 0.0
C6678 C 0.14745 0.28777 0.87314 0.0
C6679 C 0.14717 0.29506 0.87706 0.0
C6680 C 0.13985 0.29868 0.87821 0.0
C6681 C 0.13297 0.29499 0.87575 0.0
C6682 C 0.10462 0.2869 0.87276 0.0
C6683 C 0.10453 0.29517 0.87316 0.0
C6684 C 0.4337 0.38718 0.61262 0.0
C6685 C 0.43604 0.39477 0.6104 0.0
C6686 C 0.44393 0.39607 0.60838 0.0
C6687 C 0.44947 0.38998 0.60905 0.0
H6688 H 0.47426 0.38533 0.61385 0.0
H6689 H 0.48847 0.38701 0.61433 0.0
H6690 H 0.49137 0.36174 0.61387 0.0
H6691 H 0.47726 0.3601 0.6138 0.0
H6692 H 0.46303 0.35293 0.62802 0.0
H6693 H 0.45718 0.34234 0.63587 0.0
H6694 H 0.43461 0.34715 0.6255 0.0
H6695 H 0.44034 0.35778 0.61777 0.0
H6696 H 0.43709 0.37542 0.61515 0.0
H6697 H 0.42764 0.38597 0.61409 0.0
H6698 H 0.44589 0.40188 0.60664 0.0
H6699 H 0.45556 0.39123 0.60775 0.0
N6700 N 0.46084 0.37726 0.61253 0.0
N6701 N 0.46314 0.36455 0.61759 0.0
N6702 N 0.45032 0.3692 0.61628 0.0
C6703 C 0.46597 0.37142 0.61457 0.0
C6704 C 0.45531 0.3634 0.61844 0.0
C6705 C 0.45296 0.37613 0.61333 0.0
C6706 C 0.4746 0.37258 0.61394 0.0
C6707 C 0.47795 0.38014 0.61381 0.0
C6708 C 0.48613 0.3811 0.61404 0.0
C6709 C 0.49115 0.37452 0.61431 0.0
C6710 C 0.48775 0.36697 0.61396 0.0
C6711 C 0.47961 0.36602 0.61386 0.0
C6712 C 0.45214 0.35625 0.62231 0.0
C6713 C 0.45685 0.35164 0.62731 0.0
C6714 C 0.45351 0.34561 0.63182 0.0
C6715 C 0.44546 0.34396 0.63128 0.0
C6716 C 0.44085 0.34827 0.62598 0.0
C6717 C 0.44414 0.35439 0.62159 0.0
C6718 C 0.44717 0.38247 0.61168 0.0
C6719 C 0.43917 0.38112 0.61321 0.0
C6720 C 0.14669 0.35548 0.31211 0.0
C6721 C 0.14634 0.35023 0.30573 0.0
C6722 C 0.15048 0.35213 0.29881 0.0
C6723 C 0.15482 0.35913 0.2983 0.0
H6724 H 0.16787 0.37367 0.28319 0.0
H6725 H 0.17261 0.37871 0.2707 0.0
H6726 H 0.17701 0.40132 0.28152 0.0
H6727 H 0.17264 0.39616 0.29407 0.0
H6728 H 0.16489 0.39996 0.31109 0.0
H6729 H 0.16212 0.40857 0.3223 0.0
H6730 H 0.15653 0.38824 0.33648 0.0
H6731 H 0.15937 0.37969 0.32543 0.0
H6732 H 0.15109 0.36623 0.31671 0.0
H6733 H 0.14345 0.35437 0.31747 0.0
H6734 H 0.15043 0.3482 0.2938 0.0
H6735 H 0.15789 0.36045 0.29288 0.0
N6736 N 0.16285 0.37443 0.2975 0.0
N6737 N 0.16624 0.38639 0.3036 0.0
N6738 N 0.15947 0.37673 0.31065 0.0
C6739 C 0.16633 0.38165 0.29714 0.0
C6740 C 0.16286 0.38392 0.31039 0.0
C6741 C 0.1594 0.37194 0.30427 0.0
C6742 C 0.16976 0.38453 0.28964 0.0
C6743 C 0.16993 0.37969 0.28293 0.0
C6744 C 0.1726 0.38262 0.27573 0.0
C6745 C 0.1751 0.39048 0.27501 0.0
C6746 C 0.17522 0.39521 0.28181 0.0
C6747 C 0.17263 0.39226 0.28903 0.0
C6748 C 0.16226 0.38915 0.31734 0.0
C6749 C 0.16321 0.39733 0.31665 0.0
C6750 C 0.16158 0.40227 0.32304 0.0
C6751 C 0.15907 0.39909 0.33026 0.0
C6752 C 0.15853 0.39088 0.33104 0.0
C6753 C 0.16009 0.38598 0.32466 0.0
C6754 C 0.15513 0.36434 0.30472 0.0
C6755 C 0.15106 0.36237 0.31164 0.0
C6756 C 0.34797 0.37906 0.0492 0.0
C6757 C 0.34145 0.37626 0.04502 0.0
C6758 C 0.34138 0.37699 0.03676 0.0
C6759 C 0.34788 0.38007 0.03277 0.0
H6760 H 0.3571 0.3879 0.01065 0.0
H6761 H 0.35821 0.38865 0.99628 0.0
H6762 H 0.38333 0.39046 0.99824 0.0
H6763 H 0.38234 0.38989 0.01251 0.0
H6764 H 0.39093 0.38716 0.02829 0.0
H6765 H 0.40295 0.38308 0.03484 0.0
H6766 H 0.38935 0.37407 0.05433 0.0
H6767 H 0.37742 0.37842 0.04799 0.0
H6768 H 0.35949 0.38388 0.04867 0.0
H6769 H 0.34827 0.37851 0.05555 0.0
H6770 H 0.33639 0.37495 0.03339 0.0
H6771 H 0.34778 0.38026 0.0264 0.0
N6772 N 0.36221 0.38609 0.02506 0.0
N6773 N 0.37596 0.38658 0.02554 0.0
N6774 N 0.36884 0.38364 0.03689 0.0
C6775 C 0.3692 0.38732 0.02137 0.0
C6776 C 0.37583 0.38474 0.0333 0.0
C6777 C 0.36201 0.38434 0.03288 0.0
C6778 C 0.36963 0.38873 0.01276 0.0
C6779 C 0.36285 0.38861 0.00804 0.0
C6780 C 0.36347 0.38906 0.99984 0.0
C6781 C 0.37085 0.38959 0.99624 0.0
C6782 C 0.37758 0.39005 1.00092 0.0
C6783 C 0.37698 0.38969 0.0091 0.0
C6784 C 0.38319 0.38307 0.03758 0.0
C6785 C 0.39051 0.3844 0.03402 0.0
C6786 C 0.39741 0.382 0.03775 0.0
C6787 C 0.39713 0.37815 0.04508 0.0
C6788 C 0.38982 0.37709 0.04874 0.0
C6789 C 0.38294 0.37956 0.04506 0.0
C6790 C 0.35459 0.3824 0.03696 0.0
C6791 C 0.35445 0.38208 0.04523 0.0
C6792 C 0.34385 0.61035 0.83844 0.0
C6793 C 0.34282 0.60222 0.83739 0.0
C6794 C 0.33921 0.59952 0.83046 0.0
C6795 C 0.337 0.60482 0.82456 0.0
H6796 H 0.32749 0.60639 0.80269 0.0
H6797 H 0.32282 0.60132 0.79017 0.0
H6798 H 0.32467 0.62447 0.77995 0.0
H6799 H 0.32946 0.62965 0.79252 0.0
H6800 H 0.34258 0.64175 0.80135 0.0
H6801 H 0.35032 0.65385 0.80235 0.0
H6802 H 0.35428 0.6492 0.82702 0.0
H6803 H 0.3465 0.63736 0.82611 0.0
H6804 H 0.3428 0.62183 0.83351 0.0
H6805 H 0.3467 0.61264 0.84366 0.0
H6806 H 0.33826 0.59329 0.82952 0.0
H6807 H 0.33446 0.60254 0.81919 0.0
N6808 N 0.33338 0.61624 0.81223 0.0
N6809 N 0.33604 0.62853 0.80643 0.0
N6810 N 0.3403 0.62579 0.81924 0.0
C6811 C 0.33274 0.62123 0.80599 0.0
C6812 C 0.33982 0.63085 0.81309 0.0
C6813 C 0.33712 0.6185 0.81889 0.0
C6814 C 0.329 0.61842 0.7986 0.0
C6815 C 0.32684 0.61047 0.79784 0.0
C6816 C 0.32415 0.60754 0.79066 0.0
C6817 C 0.32345 0.6125 0.7841 0.0
C6818 C 0.32513 0.62054 0.78495 0.0
C6819 C 0.32793 0.62348 0.79212 0.0
C6820 C 0.34392 0.63854 0.81363 0.0
C6821 C 0.34503 0.64337 0.807 0.0
C6822 C 0.34952 0.65027 0.80756 0.0
C6823 C 0.35294 0.6525 0.81477 0.0
C6824 C 0.35166 0.64775 0.8214 0.0
C6825 C 0.34722 0.64089 0.82085 0.0
C6826 C 0.33841 0.61293 0.82547 0.0
C6827 C 0.34167 0.61563 0.83256 0.0
C6828 C 0.11101 0.6278 0.55724 0.0
C6829 C 0.10372 0.62654 0.5536 0.0
C6830 C 0.10344 0.62195 0.54671 0.0
C6831 C 0.11032 0.61903 0.54334 0.0
H6832 H 0.11864 0.611 0.52256 0.0
H6833 H 0.11775 0.60894 0.50845 0.0
H6834 H 0.14286 0.61144 0.50641 0.0
H6835 H 0.14381 0.61346 0.5206 0.0
H6836 H 0.15286 0.62268 0.53548 0.0
H6837 H 0.16417 0.62873 0.54195 0.0
H6838 H 0.15264 0.62627 0.56446 0.0
H6839 H 0.1415 0.62016 0.55808 0.0
H6840 H 0.12339 0.62614 0.55679 0.0
H6841 H 0.11149 0.63137 0.5625 0.0
H6842 H 0.09791 0.6207 0.54385 0.0
H6843 H 0.10991 0.61572 0.53792 0.0
N6844 N 0.12489 0.61587 0.53522 0.0
N6845 N 0.13865 0.61624 0.53476 0.0
N6846 N 0.13198 0.61981 0.54629 0.0
C6847 C 0.13167 0.61471 0.53117 0.0
C6848 C 0.13883 0.61871 0.54238 0.0
C6849 C 0.125 0.61842 0.54278 0.0
C6850 C 0.1313 0.61252 0.52273 0.0
C6851 C 0.12401 0.61105 0.51915 0.0
C6852 C 0.12347 0.60988 0.51104 0.0
C6853 C 0.13021 0.61012 0.50631 0.0
C6854 C 0.13756 0.61118 0.50991 0.0
C6855 C 0.1381 0.61238 0.51805 0.0
C6856 C 0.14624 0.62103 0.54625 0.0
C6857 C 0.15283 0.62326 0.54183 0.0
C6858 C 0.15928 0.62678 0.54552 0.0
C6859 C 0.15927 0.62805 0.55371 0.0
C6860 C 0.15289 0.62533 0.55816 0.0
C6861 C 0.14645 0.62188 0.55448 0.0
C6862 C 0.11763 0.62059 0.54682 0.0
C6863 C 0.11787 0.62482 0.55393 0.0
C6864 C 0.14595 0.64919 0.19378 0.0
C6865 C 0.1463 0.65488 0.19976 0.0
C6866 C 0.15114 0.65341 0.20633 0.0
C6867 C 0.15552 0.64643 0.20685 0.0
H6868 H 0.16938 0.63172 0.22179 0.0
H6869 H 0.17418 0.62658 0.23422 0.0
H6870 H 0.17631 0.60345 0.22381 0.0
H6871 H 0.17191 0.60868 0.21131 0.0
H6872 H 0.16474 0.60536 0.1938 0.0
H6873 H 0.16098 0.59714 0.18254 0.0
H6874 H 0.15687 0.61806 0.16872 0.0
H6875 H 0.16047 0.6262 0.17984 0.0
H6876 H 0.14986 0.63812 0.18948 0.0
H6877 H 0.14216 0.64995 0.18873 0.0
H6878 H 0.15162 0.65769 0.21103 0.0
H6879 H 0.15918 0.64547 0.21196 0.0
N6880 N 0.16316 0.63078 0.20786 0.0
N6881 N 0.16669 0.61894 0.20157 0.0
N6882 N 0.15983 0.62865 0.19469 0.0
C6883 C 0.16672 0.62359 0.20811 0.0
C6884 C 0.16331 0.6215 0.19481 0.0
C6885 C 0.15966 0.63333 0.20113 0.0
C6886 C 0.17016 0.62061 0.21555 0.0
C6887 C 0.17095 0.62555 0.22213 0.0
C6888 C 0.17366 0.62258 0.2293 0.0
C6889 C 0.17554 0.61455 0.23012 0.0
C6890 C 0.17502 0.60968 0.22344 0.0
C6891 C 0.17241 0.61268 0.21625 0.0
C6892 C 0.1627 0.61643 0.18777 0.0
C6893 C 0.16319 0.60818 0.18829 0.0
C6894 C 0.16106 0.60347 0.18186 0.0
C6895 C 0.15844 0.60697 0.17483 0.0
C6896 C 0.15866 0.6152 0.17413 0.0
C6897 C 0.16073 0.61986 0.18051 0.0
C6898 C 0.15521 0.64082 0.20078 0.0
C6899 C 0.15037 0.64232 0.19424 0.0
C6900 C 0.11048 0.37763 0.94798 0.0
C6901 C 0.10328 0.37872 0.95184 0.0
C6902 C 0.10314 0.3831 0.95888 0.0
C6903 C 0.11009 0.38599 0.96214 0.0
H6904 H 0.11965 0.39589 0.98256 0.0
H6905 H 0.11922 0.39725 0.99688 0.0
H6906 H 0.14364 0.39076 0.99821 0.0
H6907 H 0.14413 0.38939 0.98396 0.0
H6908 H 0.15332 0.38388 0.96845 0.0
H6909 H 0.16462 0.37798 0.96183 0.0
H6910 H 0.15155 0.37723 0.94007 0.0
H6911 H 0.1404 0.3832 0.94656 0.0
H6912 H 0.12283 0.37941 0.94812 0.0
H6913 H 0.11086 0.37422 0.94261 0.0
H6914 H 0.09767 0.3842 0.96193 0.0
H6915 H 0.1098 0.38913 0.96768 0.0
N6916 N 0.12495 0.38931 0.96983 0.0
N6917 N 0.13872 0.38879 0.96979 0.0
N6918 N 0.13165 0.38531 0.95851 0.0
C6919 C 0.13188 0.39039 0.97362 0.0
C6920 C 0.13863 0.38633 0.96218 0.0
C6921 C 0.1248 0.38677 0.96226 0.0
C6922 C 0.1319 0.3924 0.98211 0.0
C6923 C 0.12496 0.39486 0.98589 0.0
C6924 C 0.12471 0.39569 0.99408 0.0
C6925 C 0.13136 0.394 0.99863 0.0
C6926 C 0.1384 0.39199 0.99483 0.0
C6927 C 0.13868 0.39124 0.98665 0.0
C6928 C 0.14591 0.38392 0.95807 0.0
C6929 C 0.15292 0.38261 0.96222 0.0
C6930 C 0.15938 0.37919 0.95844 0.0
C6931 C 0.15897 0.3771 0.95044 0.0
C6932 C 0.15211 0.37884 0.94621 0.0
C6933 C 0.14567 0.38221 0.94998 0.0
C6934 C 0.11731 0.38462 0.95841 0.0
C6935 C 0.11739 0.38059 0.95119 0.0
C6936 C 0.34239 0.3956 0.66673 0.0
C6937 C 0.34236 0.40375 0.66797 0.0
C6938 C 0.33866 0.4068 0.6747 0.0
C6939 C 0.33564 0.40169 0.68044 0.0
H6940 H 0.32336 0.39921 0.70231 0.0
H6941 H 0.31908 0.40398 0.71521 0.0
H6942 H 0.32558 0.38183 0.72567 0.0
H6943 H 0.32986 0.37696 0.71287 0.0
H6944 H 0.34077 0.365 0.70361 0.0
H6945 H 0.34959 0.35366 0.70291 0.0
H6946 H 0.35302 0.3579 0.67808 0.0
H6947 H 0.34439 0.36917 0.67875 0.0
H6948 H 0.33983 0.38426 0.67134 0.0
H6949 H 0.34512 0.39311 0.66153 0.0
H6950 H 0.33856 0.41308 0.67575 0.0
H6951 H 0.33326 0.40415 0.68581 0.0
N6952 N 0.33116 0.39022 0.69279 0.0
N6953 N 0.33394 0.37788 0.69846 0.0
N6954 N 0.33798 0.38066 0.68563 0.0
C6955 C 0.33061 0.38515 0.699 0.0
C6956 C 0.33761 0.3756 0.69175 0.0
C6957 C 0.3348 0.38795 0.68604 0.0
C6958 C 0.32706 0.38773 0.70654 0.0
C6959 C 0.32376 0.39529 0.70731 0.0
C6960 C 0.32125 0.39801 0.71466 0.0
C6961 C 0.32197 0.39322 0.72134 0.0
C6962 C 0.3249 0.38556 0.72055 0.0
C6963 C 0.32739 0.38282 0.71322 0.0
C6964 C 0.34196 0.36808 0.69127 0.0
C6965 C 0.34334 0.36345 0.69799 0.0
C6966 C 0.34839 0.35696 0.69759 0.0
C6967 C 0.35214 0.35501 0.69048 0.0
C6968 C 0.35041 0.35939 0.6837 0.0
C6969 C 0.3454 0.36584 0.68409 0.0
C6970 C 0.33628 0.39348 0.67948 0.0
C6971 C 0.33936 0.39053 0.67239 0.0
C6972 C 0.3479 0.62572 0.45609 0.0
C6973 C 0.34164 0.62906 0.4603 0.0
C6974 C 0.34173 0.62868 0.46857 0.0
C6975 C 0.34815 0.62542 0.47254 0.0
H6976 H 0.35761 0.62031 0.49463 0.0
H6977 H 0.35877 0.62004 0.50894 0.0
H6978 H 0.3824 0.61124 0.50697 0.0
H6979 H 0.38136 0.61162 0.4926 0.0
H6980 H 0.39095 0.61762 0.477 0.0
H6981 H 0.40294 0.62183 0.47045 0.0
H6982 H 0.38926 0.63039 0.45081 0.0
H6983 H 0.3774 0.6259 0.45714 0.0
H6984 H 0.35918 0.62031 0.45659 0.0
H6985 H 0.34807 0.62597 0.44972 0.0
H6986 H 0.33695 0.63113 0.47198 0.0
H6987 H 0.3482 0.62553 0.47892 0.0
N6988 N 0.36218 0.61873 0.48015 0.0
N6989 N 0.37593 0.61796 0.4797 0.0
N6990 N 0.36885 0.621 0.46832 0.0
C6991 C 0.36914 0.61736 0.48384 0.0
C6992 C 0.37582 0.61979 0.47192 0.0
C6993 C 0.36201 0.62044 0.47233 0.0
C6994 C 0.36942 0.61607 0.49246 0.0
C6995 C 0.36301 0.61818 0.49721 0.0
C6996 C 0.36367 0.61804 0.5054 0.0
C6997 C 0.37068 0.61564 0.50899 0.0
C6998 C 0.37693 0.61308 0.5043 0.0
C6999 C 0.37633 0.61334 0.49609 0.0
C7000 C 0.38319 0.62147 0.46764 0.0
C7001 C 0.39052 0.6203 0.47123 0.0
C7002 C 0.39739 0.62278 0.46751 0.0
C7003 C 0.39708 0.62655 0.46013 0.0
C7004 C 0.38977 0.62743 0.45643 0.0
C7005 C 0.38292 0.62488 0.46011 0.0
C7006 C 0.35462 0.62257 0.4683 0.0
C7007 C 0.35431 0.62253 0.46004 0.0
C7008 C 0.33009 0.14601 0.37929 0.0
C7009 C 0.32749 0.14947 0.37228 0.0
C7010 C 0.32024 0.15344 0.37226 0.0
C7011 C 0.3155 0.15351 0.37903 0.0
H7012 H 0.29364 0.16153 0.38991 0.0
H7013 H 0.28036 0.16679 0.39106 0.0
H7014 H 0.27698 0.15335 0.41241 0.0
H7015 H 0.29019 0.14845 0.41147 0.0
H7016 H 0.30189 0.13588 0.41707 0.0
H7017 H 0.30615 0.12582 0.42646 0.0
H7018 H 0.32925 0.12602 0.41609 0.0
H7019 H 0.32509 0.136 0.40677 0.0
H7020 H 0.32765 0.14319 0.39122 0.0
H7021 H 0.33572 0.14306 0.37956 0.0
H7022 H 0.31809 0.15618 0.36693 0.0
H7023 H 0.30981 0.15634 0.37877 0.0
N7024 N 0.30562 0.1523 0.39345 0.0
N7025 N 0.30346 0.14598 0.40558 0.0
N7026 N 0.31513 0.14387 0.39878 0.0
C7027 C 0.30094 0.15095 0.39984 0.0
C7028 C 0.31054 0.14243 0.4051 0.0
C7029 C 0.31279 0.14876 0.39293 0.0
C7030 C 0.29301 0.15452 0.40055 0.0
C7031 C 0.29007 0.15977 0.39488 0.0
C7032 C 0.28243 0.16274 0.39553 0.0
C7033 C 0.27752 0.16049 0.40182 0.0
C7034 C 0.28056 0.15537 0.40755 0.0
C7035 C 0.28818 0.15247 0.40695 0.0
C7036 C 0.31314 0.13674 0.41115 0.0
C7037 C 0.3079 0.13383 0.41684 0.0
C7038 C 0.31031 0.12805 0.42219 0.0
C7039 C 0.31803 0.12517 0.42201 0.0
C7040 C 0.32329 0.1282 0.41643 0.0
C7041 C 0.32088 0.1339 0.41106 0.0
C7042 C 0.31797 0.14966 0.38593 0.0
C7043 C 0.32543 0.14611 0.38601 0.0
C7044 C 0.83002 0.35872 0.62597 0.0
C7045 C 0.82739 0.35525 0.63297 0.0
C7046 C 0.82017 0.35122 0.63294 0.0
C7047 C 0.81549 0.35109 0.62612 0.0
H7048 H 0.79256 0.34531 0.61611 0.0
H7049 H 0.77904 0.34069 0.61483 0.0
H7050 H 0.7788 0.34818 0.59054 0.0
H7051 H 0.79212 0.3529 0.59183 0.0
H7052 H 0.80363 0.36614 0.58596 0.0
H7053 H 0.80742 0.37683 0.57699 0.0
H7054 H 0.82707 0.38237 0.59194 0.0
H7055 H 0.8235 0.37174 0.60079 0.0
H7056 H 0.82767 0.36148 0.61402 0.0
H7057 H 0.83563 0.36171 0.62574 0.0
H7058 H 0.818 0.34847 0.63826 0.0
H7059 H 0.80983 0.3482 0.62633 0.0
N7060 N 0.80582 0.35207 0.61149 0.0
N7061 N 0.80378 0.35835 0.5993 0.0
N7062 N 0.81521 0.36077 0.6064 0.0
C7063 C 0.80127 0.35329 0.60498 0.0
C7064 C 0.81074 0.36212 0.59997 0.0
C7065 C 0.81289 0.35578 0.61217 0.0
C7066 C 0.79341 0.34961 0.60412 0.0
C7067 C 0.78964 0.3459 0.61048 0.0
C7068 C 0.78189 0.34322 0.60973 0.0
C7069 C 0.77778 0.34418 0.60261 0.0
C7070 C 0.78171 0.34753 0.59617 0.0
C7071 C 0.78939 0.35021 0.59691 0.0
C7072 C 0.81323 0.3681 0.59413 0.0
C7073 C 0.80881 0.36958 0.58729 0.0
C7074 C 0.81096 0.37566 0.58215 0.0
C7075 C 0.81748 0.38039 0.58386 0.0
C7076 C 0.82199 0.3788 0.59056 0.0
C7077 C 0.81992 0.37269 0.59561 0.0
C7078 C 0.81799 0.35495 0.61923 0.0
C7079 C 0.82542 0.35856 0.61922 0.0
C7080 C 0.39609 0.06151 0.39903 0.0
C7081 C 0.39638 0.0555 0.4047 0.0
C7082 C 0.40118 0.04891 0.40324 0.0
C7083 C 0.40557 0.04837 0.39627 0.0
H7084 H 0.41597 0.03242 0.38066 0.0
H7085 H 0.42032 0.01983 0.37548 0.0
H7086 H 0.42936 0.03142 0.35476 0.0
H7087 H 0.4251 0.04409 0.35997 0.0
H7088 H 0.4131 0.06082 0.35514 0.0
H7089 H 0.4094 0.07221 0.34714 0.0
H7090 H 0.40931 0.08674 0.36803 0.0
H7091 H 0.41266 0.07538 0.37597 0.0
H7092 H 0.40006 0.06581 0.38797 0.0
H7093 H 0.39233 0.06658 0.3998 0.0
H7094 H 0.40162 0.04419 0.4075 0.0
H7095 H 0.4092 0.04323 0.39531 0.0
N7096 N 0.41313 0.04723 0.38069 0.0
N7097 N 0.4168 0.05334 0.36881 0.0
N7098 N 0.41 0.06043 0.37845 0.0
C7099 C 0.41673 0.04685 0.37353 0.0
C7100 C 0.4135 0.06018 0.3713 0.0
C7101 C 0.40974 0.05402 0.38317 0.0
C7102 C 0.42006 0.03929 0.37069 0.0
C7103 C 0.41895 0.03234 0.37504 0.0
C7104 C 0.42143 0.0251 0.37205 0.0
C7105 C 0.42509 0.02461 0.36466 0.0
C7106 C 0.42658 0.0316 0.36049 0.0
C7107 C 0.42407 0.03886 0.36346 0.0
C7108 C 0.41301 0.06718 0.36619 0.0
C7109 C 0.41243 0.06649 0.35797 0.0
C7110 C 0.41032 0.07303 0.35339 0.0
C7111 C 0.40884 0.08035 0.35697 0.0
C7112 C 0.41013 0.08113 0.3651 0.0
C7113 C 0.41211 0.07463 0.36966 0.0
C7114 C 0.4053 0.05446 0.39067 0.0
C7115 C 0.40052 0.06103 0.39217 0.0
C7116 C 0.68294 0.64329 0.13683 0.0
C7117 C 0.68551 0.64522 0.14442 0.0
C7118 C 0.69346 0.64706 0.14559 0.0
C7119 C 0.69883 0.64646 0.13935 0.0
H7120 H 0.72318 0.64471 0.13372 0.0
H7121 H 0.73733 0.64376 0.13569 0.0
H7122 H 0.7401 0.63595 0.11165 0.0
H7123 H 0.72606 0.63669 0.10974 0.0
H7124 H 0.71116 0.6278 0.10158 0.0
H7125 H 0.70475 0.61972 0.09151 0.0
H7126 H 0.68242 0.62997 0.09767 0.0
H7127 H 0.68871 0.63793 0.10769 0.0
H7128 H 0.68599 0.64105 0.12492 0.0
H7129 H 0.67682 0.64197 0.13573 0.0
H7130 H 0.69559 0.64857 0.1514 0.0
H7131 H 0.70498 0.64758 0.14049 0.0
N7132 N 0.70982 0.64284 0.12637 0.0
N7133 N 0.71173 0.63764 0.11366 0.0
N7134 N 0.69906 0.63956 0.11847 0.0
C7135 C 0.71478 0.64054 0.12049 0.0
C7136 C 0.70387 0.63719 0.1126 0.0
C7137 C 0.70191 0.64238 0.12535 0.0
C7138 C 0.72342 0.64066 0.1216 0.0
C7139 C 0.72681 0.64282 0.12884 0.0
C7140 C 0.73494 0.64231 0.12996 0.0
C7141 C 0.73987 0.63965 0.12387 0.0
C7142 C 0.73649 0.63782 0.11655 0.0
C7143 C 0.7284 0.6383 0.11544 0.0
C7144 C 0.70043 0.63339 0.10556 0.0
C7145 C 0.70491 0.62844 0.10067 0.0
C7146 C 0.70125 0.62383 0.09489 0.0
C7147 C 0.69307 0.62411 0.09392 0.0
C7148 C 0.68871 0.6295 0.09841 0.0
C7149 C 0.69233 0.63407 0.10415 0.0
C7150 C 0.6963 0.6441 0.13183 0.0
C7151 C 0.68824 0.64278 0.13062 0.0
C7152 C 0.59136 0.41615 0.36106 0.0
C7153 C 0.59295 0.41762 0.35307 0.0
C7154 C 0.59123 0.42511 0.34999 0.0
C7155 C 0.58856 0.43115 0.35492 0.0
H7156 H 0.57387 0.45243 0.35808 0.0
H7157 H 0.56921 0.46522 0.35336 0.0
H7158 H 0.57875 0.47635 0.37406 0.0
H7159 H 0.58337 0.46368 0.37882 0.0
H7160 H 0.59431 0.45411 0.39061 0.0
H7161 H 0.60223 0.45303 0.40259 0.0
H7162 H 0.60224 0.42773 0.40029 0.0
H7163 H 0.5944 0.42877 0.38839 0.0
H7164 H 0.58805 0.42094 0.37219 0.0
H7165 H 0.59235 0.41039 0.36359 0.0
H7166 H 0.59239 0.42647 0.34387 0.0
H7167 H 0.58771 0.43698 0.35248 0.0
N7168 N 0.58305 0.44324 0.3663 0.0
N7169 N 0.58605 0.44888 0.37857 0.0
N7170 N 0.58976 0.43591 0.37585 0.0
C7171 C 0.58268 0.44947 0.37133 0.0
C7172 C 0.58957 0.44209 0.38088 0.0
C7173 C 0.58654 0.43642 0.36857 0.0
C7174 C 0.57912 0.45703 0.36878 0.0
C7175 C 0.5749 0.45759 0.36167 0.0
C7176 C 0.57217 0.4649 0.35899 0.0
C7177 C 0.57369 0.47177 0.36332 0.0
C7178 C 0.57757 0.47115 0.37058 0.0
C7179 C 0.58022 0.46387 0.3733 0.0
C7180 C 0.59373 0.44153 0.38852 0.0
C7181 C 0.59593 0.44832 0.39271 0.0
C7182 C 0.60052 0.44771 0.39952 0.0
C7183 C 0.60287 0.4403 0.40234 0.0
C7184 C 0.60048 0.43352 0.39828 0.0
C7185 C 0.596 0.43413 0.39144 0.0
C7186 C 0.58766 0.42981 0.36303 0.0
C7187 C 0.58883 0.42219 0.36599 0.0
C7188 C 0.18418 0.86116 0.87023 0.0
C7189 C 0.18643 0.85913 0.86258 0.0
C7190 C 0.19435 0.85741 0.86103 0.0
C7191 C 0.20001 0.85824 0.86697 0.0
H7192 H 0.22488 0.8579 0.87284 0.0
H7193 H 0.23908 0.85782 0.8708 0.0
H7194 H 0.24203 0.87175 0.89188 0.0
H7195 H 0.22807 0.87155 0.89406 0.0
H7196 H 0.21333 0.8789 0.90311 0.0
H7197 H 0.20721 0.88678 0.91349 0.0
H7198 H 0.18512 0.87514 0.90919 0.0
H7199 H 0.19119 0.86726 0.89896 0.0
H7200 H 0.18775 0.86368 0.88192 0.0
H7201 H 0.1781 0.86242 0.87159 0.0
H7202 H 0.1962 0.85583 0.85514 0.0
H7203 H 0.20611 0.85723 0.86555 0.0
N7204 N 0.21152 0.86229 0.87941 0.0
N7205 N 0.21382 0.86812 0.89178 0.0
N7206 N 0.20101 0.86584 0.88756 0.0
C7207 C 0.21666 0.86493 0.88499 0.0
C7208 C 0.20599 0.86854 0.89311 0.0
C7209 C 0.20364 0.86274 0.88071 0.0
C7210 C 0.22528 0.86471 0.88363 0.0
C7211 C 0.22858 0.8609 0.87706 0.0
C7212 C 0.23674 0.86089 0.87587 0.0
C7213 C 0.24178 0.86472 0.8812 0.0
C7214 C 0.23843 0.86854 0.88774 0.0
C7215 C 0.23034 0.86849 0.88896 0.0
C7216 C 0.20274 0.8725 0.90016 0.0
C7217 C 0.20721 0.87792 0.9045 0.0
C7218 C 0.20369 0.88247 0.9104 0.0
C7219 C 0.19567 0.88162 0.91213 0.0
C7220 C 0.19132 0.8759 0.90807 0.0
C7221 C 0.1948 0.87142 0.90215 0.0
C7222 C 0.19779 0.8607 0.87456 0.0
C7223 C 0.18976 0.86188 0.87615 0.0
C7224 C 0.39709 0.94306 0.10509 0.0
C7225 C 0.39652 0.94955 0.09999 0.0
C7226 C 0.40047 0.95654 0.10204 0.0
C7227 C 0.40484 0.95701 0.10903 0.0
H7228 H 0.41895 0.97187 0.12382 0.0
H7229 H 0.42341 0.98431 0.12956 0.0
H7230 H 0.42644 0.97287 0.15202 0.0
H7231 H 0.42209 0.96049 0.14638 0.0
H7232 H 0.41502 0.94378 0.14964 0.0
H7233 H 0.41212 0.93261 0.15824 0.0
H7234 H 0.40629 0.91852 0.13792 0.0
H7235 H 0.40923 0.92956 0.12936 0.0
H7236 H 0.40169 0.93833 0.11569 0.0
H7237 H 0.394 0.93764 0.10388 0.0
H7238 H 0.40024 0.96164 0.09823 0.0
H7239 H 0.40776 0.96248 0.11047 0.0
N7240 N 0.41314 0.95757 0.12428 0.0
N7241 N 0.41642 0.95127 0.13617 0.0
N7242 N 0.40963 0.94441 0.12642 0.0
C7243 C 0.4166 0.95779 0.13153 0.0
C7244 C 0.41299 0.94454 0.13363 0.0
C7245 C 0.40964 0.95084 0.1217 0.0
C7246 C 0.42004 0.96518 0.13465 0.0
C7247 C 0.42066 0.97198 0.12995 0.0
C7248 C 0.42326 0.97909 0.13322 0.0
C7249 C 0.42519 0.97954 0.14124 0.0
C7250 C 0.42491 0.97269 0.14583 0.0
C7251 C 0.42241 0.96559 0.14257 0.0
C7252 C 0.41228 0.93759 0.13882 0.0
C7253 C 0.41325 0.93826 0.14701 0.0
C7254 C 0.41155 0.93188 0.15194 0.0
C7255 C 0.40894 0.92471 0.14876 0.0
C7256 C 0.40836 0.92394 0.14055 0.0
C7257 C 0.40999 0.93031 0.13564 0.0
C7258 C 0.40538 0.95048 0.11408 0.0
C7259 C 0.40149 0.9435 0.11197 0.0
C7260 C 0.09326 0.08845 0.64421 0.0
C7261 C 0.09353 0.08723 0.65237 0.0
C7262 C 0.09036 0.08025 0.65549 0.0
C7263 C 0.08761 0.07433 0.65045 0.0
H7264 H 0.07691 0.05199 0.6488 0.0
H7265 H 0.07221 0.03931 0.65341 0.0
H7266 H 0.07492 0.02981 0.62996 0.0
H7267 H 0.07996 0.04236 0.62545 0.0
H7268 H 0.09411 0.05076 0.61474 0.0
H7269 H 0.10197 0.05178 0.60271 0.0
H7270 H 0.10198 0.07709 0.60487 0.0
H7271 H 0.09419 0.07613 0.6168 0.0
H7272 H 0.09079 0.08362 0.63292 0.0
H7273 H 0.09547 0.09385 0.64165 0.0
H7274 H 0.09047 0.07918 0.66177 0.0
H7275 H 0.08563 0.06882 0.65297 0.0
N7276 N 0.08317 0.0619 0.63913 0.0
N7277 N 0.08589 0.05614 0.62683 0.0
N7278 N 0.08985 0.06905 0.62944 0.0
C7279 C 0.08264 0.05565 0.63414 0.0
C7280 C 0.08949 0.06286 0.62444 0.0
C7281 C 0.08673 0.06866 0.63677 0.0
C7282 C 0.07897 0.04818 0.63679 0.0
C7283 C 0.07648 0.0472 0.64462 0.0
C7284 C 0.07371 0.03992 0.64725 0.0
C7285 C 0.07329 0.03344 0.6421 0.0
C7286 C 0.07537 0.03457 0.63417 0.0
C7287 C 0.07822 0.04181 0.63156 0.0
C7288 C 0.09354 0.06336 0.61675 0.0
C7289 C 0.09572 0.05654 0.61259 0.0
C7290 C 0.10026 0.05711 0.60575 0.0
C7291 C 0.10261 0.06451 0.60288 0.0
C7292 C 0.10022 0.07131 0.60691 0.0
C7293 C 0.09578 0.07075 0.61377 0.0
C7294 C 0.08802 0.07531 0.64223 0.0
C7295 C 0.09056 0.08257 0.63921 0.0
C7296 C 0.01205 0.12281 0.39212 0.0
C7297 C 0.01611 0.12785 0.38695 0.0
H7298 H 1.00102 0.11979 0.39742 0.0
C7299 C 0.0119 0.13392 0.38324 0.0
H7300 H 0.01509 0.11806 0.39507 0.0
C7301 C 0.00387 0.13485 0.3845 0.0
C7302 C 0.99974 0.12979 0.38959 0.0
H7303 H 0.01482 0.13801 0.37933 0.0
H7304 H 1.00087 0.13948 0.38133 0.0
C7305 C 0.00396 0.12376 0.39341 0.0
C7306 C 0.12595 0.77898 0.63125 0.0
C7307 C 0.12239 0.78411 0.63666 0.0
H7308 H 0.12821 0.76703 0.62796 0.0
C7309 C 0.11854 0.78092 0.64326 0.0
H7310 H 0.12901 0.78126 0.62615 0.0
C7311 C 0.11801 0.77275 0.64425 0.0
C7312 C 0.12146 0.76767 0.63873 0.0
H7313 H 0.11569 0.78473 0.6475 0.0
H7314 H 0.11488 0.7704 0.64927 0.0
C7315 C 0.12552 0.77086 0.6323 0.0
C7316 C 0.50712 0.84733 0.91885 0.0
C7317 C 0.50194 0.85352 0.91696 0.0
H7318 H 0.51889 0.84295 0.91854 0.0
C7319 C 0.50511 0.86044 0.9137 0.0
H7320 H 0.50497 0.84198 0.92155 0.0
C7321 C 0.51314 0.86102 0.91205 0.0
C7322 C 0.51822 0.85468 0.91356 0.0
H7323 H 0.50136 0.86531 0.91206 0.0
H7324 H 0.5153 0.86631 0.90924 0.0
C7325 C 0.51513 0.84789 0.91714 0.0
C7326 C 0.3866 0.23537 0.1396 0.0
C7327 C 0.38053 0.2311 0.14321 0.0
H7328 H 0.39159 0.2466 0.13715 0.0
C7329 C 0.37501 0.23517 0.14781 0.0
H7330 H 0.39103 0.2324 0.13613 0.0
C7331 C 0.37541 0.24338 0.14853 0.0
C7332 C 0.38135 0.24767 0.14468 0.0
H7333 H 0.37027 0.23204 0.15067 0.0
H7334 H 0.37102 0.24637 0.15203 0.0
C7335 C 0.38699 0.24352 0.1403 0.0
C7336 C 0.01259 0.88197 0.11312 0.0
C7337 C 0.01665 0.87699 0.11833 0.0
H7338 H 1.00156 0.88488 0.10774 0.0
C7339 C 0.01247 0.87091 0.12206 0.0
H7340 H 0.01561 0.88673 0.11016 0.0
C7341 C 0.00446 0.86991 0.12076 0.0
C7342 C 1.00033 0.8749 0.11561 0.0
H7343 H 0.0154 0.86686 0.126 0.0
H7344 H 1.00148 0.86527 0.12393 0.0
C7345 C 0.00451 0.88096 0.11179 0.0
C7346 C 0.37344 0.76985 0.36227 0.0
C7347 C 0.38023 0.77422 0.36065 0.0
H7348 H 0.36841 0.75841 0.36369 0.0
C7349 C 0.38704 0.77025 0.35822 0.0
H7350 H 0.36813 0.77277 0.36419 0.0
C7351 C 0.38719 0.76205 0.35781 0.0
C7352 C 0.38057 0.7576 0.35992 0.0
H7353 H 0.39232 0.77349 0.3568 0.0
H7354 H 0.39257 0.75921 0.35598 0.0
C7355 C 0.37362 0.76161 0.36196 0.0
C7356 C 0.50579 0.15026 0.59665 0.0
C7357 C 0.50301 0.15336 0.58949 0.0
H7358 H 0.51579 0.14722 0.60366 0.0
C7359 C 0.50851 0.15563 0.58373 0.0
H7360 H 0.50176 0.14828 0.60117 0.0
C7361 C 0.51657 0.15492 0.58517 0.0
C7362 C 0.51925 0.15188 0.59235 0.0
H7363 H 0.5066 0.15809 0.57817 0.0
H7364 H 0.52071 0.15681 0.58072 0.0
C7365 C 0.51381 0.14954 0.59806 0.0
C7366 C 0.12644 0.22615 0.87365 0.0
C7367 C 0.12262 0.22105 0.8684 0.0
H7368 H 0.12891 0.23807 0.87686 0.0
C7369 C 0.11851 0.22427 0.86198 0.0
H7370 H 0.1297 0.22385 0.87862 0.0
C7371 C 0.11799 0.23244 0.86102 0.0
C7372 C 0.1217 0.2375 0.86638 0.0
H7373 H 0.11546 0.22048 0.85787 0.0
H7374 H 0.11467 0.23481 0.85614 0.0
C7375 C 0.12602 0.23428 0.87263 0.0
C7376 C 0.4236 0.99664 0.15533 0.0
C7377 C 0.42912 1.00201 0.15232 0.0
H7378 H 0.41809 0.9854 0.15419 0.0
C7379 C 0.43349 0.99984 0.14562 0.0
H7380 H 0.41994 0.99814 0.16032 0.0
C7381 C 0.43227 0.99253 0.14198 0.0
C7382 C 0.42675 0.98722 0.14505 0.0
H7383 H 0.43785 0.00377 0.14318 0.0
H7384 H 0.43567 0.99101 0.13682 0.0
C7385 C 0.42248 0.98934 0.15178 0.0
C7386 C 0.25736 0.16576 0.40995 0.0
C7387 C 0.25291 0.16648 0.40304 0.0
H7388 H 0.26865 0.16373 0.41502 0.0
C7389 C 0.25668 0.16565 0.39574 0.0
H7390 H 0.25462 0.16648 0.41567 0.0
C7391 C 0.26468 0.16392 0.39534 0.0
C7392 C 0.26915 0.16305 0.40225 0.0
H7393 H 0.25338 0.16608 0.39031 0.0
H7394 H 0.26728 0.16299 0.3896 0.0
C7395 C 0.2654 0.16416 0.40956 0.0
C7396 C 0.06452 0.0169 0.65446 0.0
C7397 C 0.06839 0.0103 0.65137 0.0
H7398 H 0.06276 0.02936 0.65378 0.0
C7399 C 0.07354 0.01129 0.64501 0.0
H7400 H 0.06051 0.01627 0.65936 0.0
C7401 C 0.075 0.01876 0.64195 0.0
C7402 C 0.07124 0.02544 0.64508 0.0
H7403 H 0.0767 0.0063 0.64261 0.0
H7404 H 0.07932 0.01929 0.63732 0.0
C7405 C 0.06587 0.02439 0.6513 0.0
C7406 C 0.26358 0.8662 0.88562 0.0
C7407 C 0.26687 0.8672 0.87811 0.0
H7408 H 0.25329 0.86428 0.89246 0.0
C7409 C 0.26195 0.86664 0.8715 0.0
H7410 H 0.26725 0.86646 0.89082 0.0
C7411 C 0.25383 0.86557 0.87244 0.0
C7412 C 0.25049 0.86495 0.88001 0.0
H7413 H 0.26433 0.8674 0.86564 0.0
H7414 H 0.25016 0.86558 0.86724 0.0
C7415 C 0.25554 0.86501 0.88655 0.0
C7416 C 0.43494 0.00805 0.35321 0.0
C7417 C 0.42917 1.00219 0.35359 0.0
H7418 H 0.43822 0.01982 0.35648 0.0
C7419 C 0.42225 0.00361 0.3578 0.0
H7420 H 0.4403 0.00706 0.34992 0.0
C7421 C 0.42106 0.01082 0.36152 0.0
C7422 C 0.42673 0.0168 0.36107 0.0
H7423 H 0.4177 0.99918 0.35808 0.0
H7424 H 0.41556 0.0118 0.36456 0.0
C7425 C 0.43372 0.01534 0.3569 0.0
C7426 C 0.26064 0.13311 0.6213 0.0
C7427 C 0.26448 0.13675 0.62765 0.0
H7428 H 0.24983 0.131 0.61534 0.0
C7429 C 0.26 0.14127 0.63294 0.0
H7430 H 0.26389 0.12965 0.61706 0.0
C7431 C 0.25194 0.14224 0.63183 0.0
C7432 C 0.2481 0.13865 0.62545 0.0
H7433 H 0.26272 0.14407 0.63797 0.0
H7434 H 0.24876 0.14592 0.63593 0.0
C7435 C 0.25256 0.13401 0.62024 0.0
C7436 C 0.07686 0.99267 0.85673 0.0
C7437 C 0.06957 0.99466 0.85349 0.0
H7438 H 0.08378 0.98391 0.86246 0.0
C7439 C 0.06342 0.98916 0.85372 0.0
H7440 H 0.08168 0.99682 0.85656 0.0
C7441 C 0.06465 0.98168 0.85701 0.0
C7442 C 0.07199 0.97971 0.86025 0.0
H7443 H 0.05777 0.99059 0.85119 0.0
H7444 H 0.0599 0.97746 0.85704 0.0
C7445 C 0.07804 0.98531 0.86012 0.0
C7446 C 0.25528 0.84478 0.09748 0.0
C7447 C 0.25184 0.83901 0.10229 0.0
H7448 H 0.26558 0.85115 0.09438 0.0
C7449 C 0.25662 0.83494 0.10767 0.0
H7450 H 0.25175 0.84817 0.0934 0.0
C7451 C 0.26468 0.83659 0.10817 0.0
C7452 C 0.26811 0.84241 0.10336 0.0
H7453 H 0.25415 0.83044 0.11143 0.0
H7454 H 0.26821 0.83327 0.11229 0.0
C7455 C 0.26326 0.84648 0.09803 0.0
C7456 C 0.12745 0.39916 0.02007 0.0
C7457 C 0.13053 0.3925 0.02391 0.0
H7458 H 0.12532 0.4049 0.00898 0.0
C7459 C 0.13345 0.38626 0.01932 0.0
H7460 H 0.12518 0.40407 0.02343 0.0
C7461 C 0.13366 0.38681 0.01116 0.0
C7462 C 0.13085 0.39354 0.00732 0.0
H7463 H 0.13564 0.38094 0.02205 0.0
H7464 H 0.13602 0.38192 0.00782 0.0
C7465 C 0.12758 0.39966 0.01182 0.0
C7466 C 0.62509 0.10722 0.98491 0.0
C7467 C 0.63045 0.11202 0.98086 0.0
H7468 H 0.62122 0.10285 0.9961 0.0
C7469 C 0.63635 0.11587 0.98515 0.0
H7470 H 0.62048 0.10417 0.98177 0.0
C7471 C 0.63674 0.11518 0.99331 0.0
C7472 C 0.63127 0.11057 0.99743 0.0
H7473 H 0.64066 0.1195 0.9822 0.0
H7474 H 0.64121 0.11849 0.9964 0.0
C7475 C 0.62548 0.10652 0.99313 0.0
C7476 C 0.18392 0.40354 0.25905 0.0
C7477 C 0.17973 0.40109 0.25239 0.0
H7478 H 0.18606 0.4019 0.27135 0.0
C7479 C 0.17434 0.3949 0.2531 0.0
H7480 H 0.18813 0.4083 0.25862 0.0
C7481 C 0.17296 0.39139 0.26039 0.0
C7482 C 0.17705 0.39388 0.26715 0.0
H7483 H 0.17095 0.393 0.24806 0.0
H7484 H 0.16846 0.38692 0.26075 0.0
C7485 C 0.18267 0.39991 0.26634 0.0
C7486 C 0.87361 0.88009 0.47629 0.0
C7487 C 0.87255 0.88643 0.47107 0.0
H7488 H 0.87383 0.87621 0.48829 0.0
C7489 C 0.87139 0.89402 0.47421 0.0
H7490 H 0.87469 0.8742 0.47411 0.0
C7491 C 0.871 0.89515 0.48237 0.0
C7492 C 0.87176 0.88872 0.48749 0.0
H7493 H 0.8705 0.89903 0.47038 0.0
H7494 H 0.86992 0.90099 0.48469 0.0
C7495 C 0.87317 0.88122 0.4844 0.0
C7496 C 0.81355 0.10252 0.26658 0.0
C7497 C 0.81902 0.1036 0.26051 0.0
H7498 H 0.81065 0.10483 0.27867 0.0
C7499 C 0.82578 0.10805 0.26192 0.0
H7500 H 0.80832 0.09903 0.26559 0.0
C7501 C 0.82713 0.11132 0.26932 0.0
C7502 C 0.82175 0.11019 0.2755 0.0
H7503 H 0.83011 0.10886 0.25732 0.0
H7504 H 0.83253 0.11454 0.27027 0.0
C7505 C 0.81491 0.10578 0.27404 0.0
C7506 C 0.37188 0.62548 0.52877 0.0
C7507 C 0.37253 0.61905 0.53396 0.0
H7508 H 0.37067 0.62936 0.51684 0.0
C7509 C 0.37314 0.61142 0.53076 0.0
H7510 H 0.37165 0.63146 0.53096 0.0
C7511 C 0.37277 0.61026 0.5226 0.0
C7512 C 0.37169 0.6167 0.51754 0.0
H7513 H 0.37361 0.60633 0.53457 0.0
H7514 H 0.37307 0.60434 0.52025 0.0
C7515 C 0.37137 0.6243 0.52068 0.0
C7516 C 0.18385 0.60106 0.24601 0.0
C7517 C 0.18014 0.60397 0.25279 0.0
H7518 H 0.18561 0.60228 0.23361 0.0
C7519 C 0.17532 0.61063 0.25215 0.0
H7520 H 0.18765 0.59596 0.24635 0.0
C7521 C 0.17398 0.61414 0.24485 0.0
C7522 C 0.17754 0.61116 0.23799 0.0
H7523 H 0.17228 0.61292 0.25726 0.0
H7524 H 0.1699 0.61901 0.24458 0.0
C7525 C 0.18262 0.60466 0.2387 0.0
C7526 C 0.32653 0.40307 0.74057 0.0
C7527 C 0.31924 0.40296 0.74444 0.0
H7528 H 0.33301 0.40002 0.73022 0.0
C7529 C 0.31276 0.39954 0.74064 0.0
H7530 H 0.33166 0.40553 0.7434 0.0
C7531 C 0.31356 0.39639 0.73304 0.0
C7532 C 0.32086 0.39657 0.72924 0.0
H7533 H 0.30708 0.3994 0.74348 0.0
H7534 H 0.30852 0.39381 0.73015 0.0
C7535 C 0.32732 0.39989 0.73306 0.0
C7536 C 0.9974 0.86097 0.58093 0.0
C7537 C 0.99192 0.86096 0.58711 0.0
H7538 H 0.00877 0.86475 0.57698 0.0
C7539 C 0.9936 0.86521 0.59399 0.0
H7540 H 0.99623 0.85772 0.57557 0.0
C7541 C 1.00067 0.86923 0.59478 0.0
C7542 C 0.00628 0.86908 0.58873 0.0
H7543 H 0.98946 0.86535 0.59882 0.0
H7544 H 1.00185 0.87228 0.60025 0.0
C7545 C 0.00456 0.86494 0.58176 0.0
C7546 C 0.90219 0.25318 0.34196 0.0
C7547 C 0.89825 0.24922 0.33588 0.0
H7548 H 0.90379 0.26384 0.34835 0.0
C7549 C 0.89265 0.25339 0.33145 0.0
H7550 H 0.90639 0.25012 0.34563 0.0
C7551 C 0.89117 0.2614 0.33298 0.0
C7552 C 0.89524 0.26537 0.339 0.0
H7553 H 0.88951 0.25051 0.32672 0.0
H7554 H 0.88695 0.2645 0.32937 0.0
C7555 C 0.9007 0.2611 0.34351 0.0
C7556 C 0.50312 0.15075 0.08409 0.0
C7557 C 0.50848 0.15102 0.09037 0.0
H7558 H 0.49171 0.14704 0.08019 0.0
C7559 C 0.50655 0.1473 0.09748 0.0
H7560 H 0.50448 0.1536 0.07855 0.0
C7561 C 0.49935 0.14353 0.09839 0.0
C7562 C 0.49387 0.14344 0.09223 0.0
H7563 H 0.51059 0.14738 0.1024 0.0
H7564 H 0.49799 0.14086 0.10402 0.0
C7565 C 0.49583 0.14706 0.08504 0.0
C7566 C 0.61309 0.7463 0.81933 0.0
C7567 C 0.60843 0.74992 0.82515 0.0
H7568 H 0.61909 0.73577 0.81564 0.0
C7569 C 0.60632 0.74549 0.83183 0.0
H7570 H 0.61478 0.7495 0.81409 0.0
C7571 C 0.60865 0.73766 0.83261 0.0
C7572 C 0.61327 0.73405 0.82682 0.0
H7573 H 0.60295 0.74809 0.83655 0.0
H7574 H 0.60695 0.73444 0.83785 0.0
C7575 C 0.61552 0.73844 0.82018 0.0
C7576 C 0.99376 0.14042 0.91096 0.0
C7577 C 0.99189 0.14426 0.91803 0.0
H7578 H 1.00211 0.13358 0.90458 0.0
C7579 C 0.99713 0.14379 0.92439 0.0
H7580 H 0.98979 0.14065 0.90599 0.0
C7581 C 0.00426 0.13975 0.92356 0.0
C7582 C 0.00616 0.13601 0.91642 0.0
H7583 H 0.99582 0.14672 0.92989 0.0
H7584 H 0.0083 0.13958 0.92848 0.0
C7585 C 1.00078 0.13633 0.91018 0.0
C7586 C 0.60889 0.25885 0.6732 0.0
C7587 C 0.60828 0.25521 0.68061 0.0
H7588 H 0.61162 0.26934 0.66676 0.0
C7589 C 0.61015 0.2596 0.68738 0.0
H7590 H 0.60761 0.25559 0.66787 0.0
C7591 C 0.61241 0.26753 0.68672 0.0
C7592 C 0.61291 0.2711 0.67929 0.0
H7593 H 0.60972 0.25696 0.69317 0.0
H7594 H 0.61376 0.27086 0.69198 0.0
C7595 C 0.61119 0.26669 0.67255 0.0
C7596 C 0.5042 0.85363 0.40707 0.0
C7597 C 0.50808 0.85379 0.41437 0.0
H7598 H 0.4941 0.85707 0.40043 0.0
C7599 C 0.50463 0.85794 0.42065 0.0
H7600 H 0.50676 0.85064 0.40206 0.0
C7601 C 0.49737 0.8617 0.41966 0.0
C7602 C 0.49352 0.86137 0.41238 0.0
H7603 H 0.50745 0.85815 0.42636 0.0
H7604 H 0.49473 0.86478 0.42458 0.0
C7605 C 0.49699 0.85735 0.4061 0.0
C7606 C 0.89038 0.75403 0.1668 0.0
C7607 C 0.89722 0.75642 0.17078 0.0
H7608 H 0.88381 0.74443 0.16194 0.0
C7609 C 0.90234 0.75059 0.17363 0.0
H7610 H 0.88633 0.75834 0.16446 0.0
C7611 C 0.90091 0.74262 0.17214 0.0
C7612 C 0.8943 0.74026 0.16779 0.0
H7613 H 0.90756 0.75217 0.17688 0.0
H7614 H 0.90509 0.73831 0.17425 0.0
C7615 C 0.88893 0.74604 0.16534 0.0
C7616 C 0.61072 0.98605 0.86805 0.0
C7617 C 0.61629 0.98344 0.87357 0.0
H7618 H 0.6057 0.99596 0.862 0.0
C7619 C 0.62074 0.98907 0.87768 0.0
H7620 H 0.60725 0.98188 0.86474 0.0
C7621 C 0.6198 0.9971 0.87615 0.0
C7622 C 0.61446 0.99967 0.87042 0.0
H7623 H 0.62503 0.98726 0.88202 0.0
H7624 H 0.62342 1.00129 0.87928 0.0
C7625 C 0.60987 0.99409 0.86643 0.0
C7626 C 0.75295 0.83426 0.60434 0.0
C7627 C 0.75835 0.8405 0.60421 0.0
H7628 H 0.74151 0.83035 0.60797 0.0
C7629 C 0.75647 0.84755 0.60808 0.0
H7630 H 0.75428 0.82877 0.60138 0.0
C7631 C 0.74928 0.84842 0.61187 0.0
C7632 C 0.74376 0.8423 0.61183 0.0
H7633 H 0.76055 0.85243 0.6081 0.0
H7634 H 0.74795 0.854 0.61465 0.0
C7635 C 0.74566 0.83518 0.60806 0.0
C7636 C 0.89022 0.00952 0.37393 0.0
C7637 C 0.88875 0.0152 0.36812 0.0
H7638 H 0.8913 0.99724 0.37661 0.0
C7639 C 0.88807 0.01279 0.36025 0.0
H7640 H 0.89072 0.01123 0.38005 0.0
C7641 C 0.88856 0.00485 0.35824 0.0
C7642 C 0.88956 0.99904 0.36406 0.0
H7643 H 0.88703 0.01708 0.35565 0.0
H7644 H 0.88803 0.00327 0.35209 0.0
C7645 C 0.89057 1.0015 0.37193 0.0
C7646 C 0.74422 0.16091 0.11446 0.0
C7647 C 0.7423 0.16805 0.11079 0.0
H7648 H 0.75259 0.15444 0.1212 0.0
C7649 C 0.74748 0.17445 0.11146 0.0
H7650 H 0.7403 0.1559 0.11408 0.0
C7651 C 0.75459 0.17359 0.11552 0.0
C7652 C 0.75653 0.16638 0.1191 0.0
H7653 H 0.74613 0.18001 0.10866 0.0
H7654 H 0.75858 0.17854 0.11585 0.0
C7655 C 0.75122 0.16009 0.11859 0.0
C7656 C 0.62413 0.01683 0.63323 0.0
C7657 C 0.61763 0.02179 0.63202 0.0
H7658 H 0.62826 0.00519 0.63563 0.0
C7659 C 0.61011 0.01836 0.63164 0.0
H7660 H 0.63003 0.01916 0.6333 0.0
C7661 C 0.60913 0.01024 0.63283 0.0
C7662 C 0.61563 0.00543 0.63449 0.0
H7663 H 0.60497 0.02199 0.63075 0.0
H7664 H 0.60327 0.00777 0.63276 0.0
C7665 C 0.62313 0.00879 0.63452 0.0
C7666 C 0.74714 0.83095 0.39385 0.0
C7667 C 0.74187 0.83729 0.39438 0.0
H7668 H 0.75832 0.82693 0.38961 0.0
C7669 C 0.7437 0.84438 0.39058 0.0
H7670 H 0.74585 0.82542 0.39675 0.0
C7671 C 0.75073 0.84523 0.38648 0.0
C7672 C 0.75614 0.83901 0.38613 0.0
H7673 H 0.73971 0.84934 0.39085 0.0
H7674 H 0.75203 0.85085 0.38379 0.0
C7675 C 0.75427 0.83183 0.38982 0.0
C7676 C 0.88037 0.995 0.14046 0.0
C7677 C 0.88684 0.99125 0.137 0.0
H7678 H 0.87561 0.00567 0.1451 0.0
C7679 C 0.89372 0.99562 0.13566 0.0
H7680 H 0.87495 0.99183 0.14145 0.0
C7681 C 0.89412 0.00357 0.13781 0.0
C7682 C 0.88766 0.00731 0.14132 0.0
H7683 H 0.89884 0.99286 0.13309 0.0
H7684 H 0.89955 0.00673 0.13684 0.0
C7685 C 0.88076 0.00294 0.14257 0.0
C7686 C 0.75497 0.15687 0.90053 0.0
C7687 C 0.75828 0.16439 0.90141 0.0
H7688 H 0.74534 0.15004 0.89619 0.0
C7689 C 0.75427 0.17094 0.89832 0.0
H7690 H 0.75797 0.1517 0.90274 0.0
C7691 C 0.74699 0.16997 0.8946 0.0
C7692 C 0.74372 0.16243 0.89382 0.0
H7693 H 0.75668 0.17681 0.89893 0.0
H7694 H 0.74391 0.17507 0.89236 0.0
C7695 C 0.74778 0.1559 0.89675 0.0
C7696 C 0.85837 0.56812 0.00952 0.0
C7697 C 0.85803 0.57483 0.00468 0.0
H7698 H 0.86078 0.56361 0.02114 0.0
C7699 C 0.86015 0.58216 0.00784 0.0
H7700 H 0.85674 0.5624 0.00722 0.0
C7701 C 0.86252 0.58282 0.01566 0.0
C7702 C 0.86271 0.57618 0.02056 0.0
H7703 H 0.85998 0.58741 0.00423 0.0
H7704 H 0.86413 0.58855 0.01793 0.0
C7705 C 0.86062 0.56881 0.01745 0.0
C7706 C 0.36324 0.93573 0.9964 0.0
C7707 C 0.35848 0.92997 0.99999 0.0
H7708 H 0.36934 0.93936 0.9859 0.0
C7709 C 0.35627 0.92336 0.99552 0.0
H7710 H 0.36502 0.94092 0.99963 0.0
C7711 C 0.3586 0.92257 0.98769 0.0
C7712 C 0.36333 0.92829 0.98413 0.0
H7713 H 0.35281 0.91868 0.9981 0.0
H7714 H 0.35682 0.91737 0.98445 0.0
C7715 C 0.36569 0.93486 0.98855 0.0
C7716 C 0.86575 0.62863 0.76698 0.0
C7717 C 0.86586 0.62229 0.77227 0.0
H7718 H 0.86536 0.63227 0.7549 0.0
C7719 C 0.86477 0.61464 0.76936 0.0
H7720 H 0.86663 0.63458 0.76909 0.0
C7721 C 0.8639 0.6133 0.7613 0.0
C7722 C 0.86426 0.61957 0.75589 0.0
H7723 H 0.86475 0.60965 0.77333 0.0
H7724 H 0.86308 0.6073 0.75932 0.0
C7725 C 0.86501 0.62729 0.75886 0.0
C7726 C 0.1436 0.08062 0.50131 0.0
C7727 C 0.14751 0.08617 0.50605 0.0
H7728 H 0.13928 0.07778 0.48974 0.0
C7729 C 0.14957 0.09345 0.50272 0.0
H7730 H 0.14193 0.07496 0.50372 0.0
C7731 C 0.14803 0.09506 0.49483 0.0
C7732 C 0.14442 0.08945 0.48997 0.0
H7733 H 0.1524 0.09794 0.50624 0.0
H7734 H 0.14973 0.10076 0.49252 0.0
C7735 C 0.14207 0.08224 0.49332 0.0
C7736 C 0.14203 0.88297 0.75896 0.0
C7737 C 0.137 0.88693 0.7642 0.0
H7738 H 0.14642 0.882 0.74723 0.0
C7739 C 0.13216 0.89293 0.76123 0.0
H7740 H 0.14576 0.87824 0.761 0.0
C7741 C 0.13241 0.89499 0.75327 0.0
C7742 C 0.13755 0.89112 0.74805 0.0
H7743 H 0.12827 0.89617 0.76509 0.0
H7744 H 0.12851 0.89957 0.75121 0.0
C7745 C 0.14233 0.88507 0.75101 0.0
C7746 C 0.65403 0.42108 0.50518 0.0
C7747 C 0.64804 0.42065 0.4995 0.0
H7748 H 0.6573 0.41972 0.51724 0.0
C7749 C 0.64033 0.41917 0.50209 0.0
H7750 H 0.66 0.42245 0.50348 0.0
C7751 C 0.63877 0.41763 0.51006 0.0
C7752 C 0.64489 0.4175 0.51562 0.0
H7753 H 0.63557 0.41879 0.4979 0.0
H7754 H 0.63285 0.4161 0.51179 0.0
C7755 C 0.65248 0.41953 0.5131 0.0
C7756 C 0.86499 0.39037 0.73585 0.0
C7757 C 0.86595 0.38272 0.73291 0.0
H7758 H 0.86339 0.39769 0.74591 0.0
C7759 C 0.8657 0.37635 0.73816 0.0
H7760 H 0.86507 0.39538 0.7319 0.0
C7761 C 0.86494 0.37767 0.74629 0.0
C7762 C 0.86433 0.38539 0.74929 0.0
H7763 H 0.86648 0.37039 0.73603 0.0
H7764 H 0.86519 0.37266 0.75022 0.0
C7765 C 0.8641 0.39168 0.74391 0.0
C7766 C 0.64466 0.61773 0.24421 0.0
C7767 C 0.63726 0.61886 0.2407 0.0
H7768 H 0.65101 0.61469 0.25473 0.0
C7769 C 0.63055 0.61835 0.2455 0.0
H7770 H 0.64996 0.61805 0.24071 0.0
C7771 C 0.63115 0.61627 0.25341 0.0
C7772 C 0.63849 0.6148 0.25682 0.0
H7773 H 0.62476 0.61943 0.24312 0.0
H7774 H 0.62584 0.61575 0.25687 0.0
C7775 C 0.64527 0.61576 0.25222 0.0
C7776 C 0.51192 0.63385 0.88297 0.0
C7777 C 0.51619 0.62793 0.88686 0.0
H7778 H 0.50084 0.63928 0.88095 0.0
C7779 C 0.51219 0.62304 0.89221 0.0
H7780 H 0.51479 0.63782 0.87891 0.0
C7781 C 0.5041 0.62398 0.89352 0.0
C7782 C 0.49983 0.62986 0.88953 0.0
H7783 H 0.51528 0.61841 0.8953 0.0
H7784 H 0.50121 0.62013 0.89768 0.0
C7785 C 0.50389 0.63477 0.88425 0.0
C7786 C 0.62689 0.28006 0.14156 0.0
C7787 C 0.62142 0.28398 0.13677 0.0
H7788 H 0.63072 0.26903 0.14634 0.0
C7789 C 0.6153 0.27962 0.13337 0.0
H7790 H 0.63167 0.28325 0.14427 0.0
C7791 C 0.61479 0.27151 0.13447 0.0
C7792 C 0.62036 0.26751 0.13906 0.0
H7793 H 0.6109 0.28248 0.12977 0.0
H7794 H 0.61015 0.26835 0.13149 0.0
C7795 C 0.62637 0.2719 0.14268 0.0
C7796 C 0.00534 0.36029 0.41508 0.0
C7797 C 1.00196 0.35299 0.41706 0.0
H7798 H 0.0157 0.36651 0.4116 0.0
C7799 C 0.00693 0.34643 0.41788 0.0
H7800 H 1.00171 0.36546 0.41434 0.0
C7801 C 0.01495 0.34703 0.41627 0.0
C7802 C 0.01825 0.35421 0.41383 0.0
H7803 H 0.00461 0.34076 0.41962 0.0
H7804 H 0.01855 0.3418 0.41681 0.0
C7805 C 0.01338 0.36089 0.41349 0.0
C7806 C 0.88678 0.73496 0.6472 0.0
C7807 C 0.88008 0.73098 0.64452 0.0
H7808 H 0.89222 0.746 0.64965 0.0
C7809 C 0.87335 0.73535 0.64264 0.0
H7810 H 0.89201 0.73171 0.6488 0.0
C7811 C 0.87351 0.74359 0.64295 0.0
C7812 C 0.88038 0.74761 0.64525 0.0
H7813 H 0.86812 0.73243 0.64052 0.0
H7814 H 0.86837 0.74679 0.64102 0.0
C7815 C 0.88691 0.74315 0.64762 0.0
C7816 C 0.51212 0.38264 0.61349 0.0
C7817 C 0.51623 0.37714 0.61811 0.0
H7818 H 0.50107 0.38614 0.60857 0.0
C7819 C 0.51206 0.3707 0.62121 0.0
H7820 H 0.51513 0.38768 0.61103 0.0
C7821 C 0.50402 0.36989 0.61993 0.0
C7822 C 0.49984 0.37541 0.6154 0.0
H7823 H 0.51502 0.36625 0.62467 0.0
H7824 H 0.50106 0.36496 0.62267 0.0
C7825 C 0.50403 0.3818 0.61216 0.0
C7826 C 0.87369 0.26931 0.8652 0.0
C7827 C 0.87906 0.27392 0.86101 0.0
H7828 H 0.8699 0.25771 0.86821 0.0
C7829 C 0.88464 0.27025 0.85617 0.0
H7830 H 0.8694 0.27206 0.86903 0.0
C7831 C 0.88501 0.26203 0.85577 0.0
C7832 C 0.87974 0.25738 0.86012 0.0
H7833 H 0.88889 0.27373 0.85296 0.0
H7834 H 0.88948 0.2593 0.85214 0.0
C7835 C 0.87398 0.26112 0.86472 0.0
C7836 C 0.00927 0.64894 0.0829 0.0
C7837 C 0.00403 0.65331 0.08757 0.0
H7838 H 0.02114 0.64526 0.08104 0.0
C7839 C 0.007 0.65763 0.09395 0.0
H7840 H 0.00719 0.64565 0.07787 0.0
C7841 C 0.01497 0.65738 0.09579 0.0
C7842 C 0.0202 0.65284 0.09126 0.0
H7843 H 0.00311 0.66095 0.09775 0.0
H7844 H 0.01698 0.66054 0.10094 0.0
C7845 C 0.01727 0.64871 0.08473 0.0
C7846 C 0.61548 0.72536 0.37206 0.0
C7847 C 0.62153 0.72097 0.36855 0.0
H7848 H 0.61039 0.73665 0.374 0.0
C7849 C 0.62694 0.72488 0.36369 0.0
H7850 H 0.61112 0.72252 0.37572 0.0
C7851 C 0.62644 0.73304 0.36257 0.0
C7852 C 0.62048 0.73745 0.36626 0.0
H7853 H 0.63167 0.72166 0.3609 0.0
H7854 H 0.63074 0.7359 0.35885 0.0
C7855 C 0.61498 0.73347 0.37096 0.0
C7856 C 0.9349 0.49702 0.65101 0.0
C7857 C 0.92865 0.50234 0.6518 0.0
H7858 H 0.93857 0.48565 0.6468 0.0
C7859 C 0.92131 0.50041 0.64864 0.0
H7860 H 0.9406 0.4984 0.65345 0.0
C7861 C 0.92018 0.49326 0.6448 0.0
C7862 C 0.92634 0.48782 0.64412 0.0
H7863 H 0.91641 0.50443 0.6492 0.0
H7864 H 0.9144 0.49189 0.64253 0.0
C7865 C 0.93372 0.48974 0.64726 0.0
C7866 C 0.75516 0.66474 0.89465 0.0
C7867 C 0.75182 0.66711 0.90185 0.0
H7868 H 0.7655 0.66101 0.88853 0.0
C7869 C 0.75684 0.66832 0.90832 0.0
H7870 H 0.7515 0.66369 0.88955 0.0
C7871 C 0.76487 0.66673 0.90774 0.0
C7872 C 0.76813 0.66394 0.90067 0.0
H7873 H 0.75455 0.67035 0.9139 0.0
H7874 H 0.7685 0.66757 0.9129 0.0
C7875 C 0.76321 0.66319 0.89406 0.0
C7876 C 0.56477 0.51697 0.15437 0.0
C7877 C 0.56837 0.51033 0.15101 0.0
H7878 H 0.56319 0.52945 0.15393 0.0
C7879 C 0.57317 0.51132 0.14438 0.0
H7880 H 0.56099 0.51636 0.15946 0.0
C7881 C 0.57459 0.51881 0.14132 0.0
C7882 C 0.57114 0.52551 0.14474 0.0
H7883 H 0.57614 0.50633 0.14176 0.0
H7884 H 0.57865 0.51932 0.13646 0.0
C7885 C 0.56608 0.52447 0.15122 0.0
C7886 C 0.76119 0.37484 0.38017 0.0
C7887 C 0.76612 0.36874 0.37754 0.0
H7888 H 0.74957 0.37852 0.38305 0.0
C7889 C 0.76265 0.36156 0.37525 0.0
H7890 H 0.76358 0.38052 0.38175 0.0
C7891 C 0.7545 0.36044 0.37592 0.0
C7892 C 0.74968 0.36645 0.37894 0.0
H7893 H 0.76625 0.35673 0.37321 0.0
H7894 H 0.75202 0.35479 0.37435 0.0
C7895 C 0.75313 0.3737 0.3809 0.0
C7896 C 0.93505 0.50813 0.85376 0.0
C7897 C 0.92897 0.50258 0.85354 0.0
H7898 H 0.93861 0.51969 0.85748 0.0
C7899 C 0.92181 0.50431 0.8572 0.0
H7900 H 0.9406 0.5069 0.85091 0.0
C7901 C 0.92069 0.51151 0.86097 0.0
C7902 C 0.92668 0.51718 0.8611 0.0
H7903 H 0.91703 0.50012 0.85704 0.0
H7904 H 0.91504 0.51272 0.86361 0.0
C7905 C 0.9339 0.51543 0.85746 0.0
C7906 C 0.76091 0.64267 0.13081 0.0
C7907 C 0.76477 0.63625 0.12729 0.0
H7908 H 0.75009 0.64889 0.13238 0.0
C7909 C 0.76038 0.63095 0.12275 0.0
H7910 H 0.76416 0.64691 0.13428 0.0
C7911 C 0.75233 0.63204 0.12172 0.0
C7912 C 0.74845 0.63851 0.12514 0.0
H7913 H 0.76316 0.62589 0.12006 0.0
H7914 H 0.74913 0.62773 0.1183 0.0
C7915 C 0.75285 0.6438 0.12973 0.0
C7916 C 0.57681 0.49259 0.35627 0.0
C7917 C 0.56946 0.49455 0.35316 0.0
H7918 H 0.58385 0.48388 0.36195 0.0
C7919 C 0.56333 0.48904 0.35353 0.0
H7920 H 0.58162 0.49675 0.356 0.0
C7921 C 0.56464 0.48158 0.35685 0.0
C7922 C 0.57203 0.47964 0.35996 0.0
H7923 H 0.55763 0.49044 0.3511 0.0
H7924 H 0.55989 0.47735 0.357 0.0
C7925 C 0.57807 0.48525 0.35968 0.0
C7926 C 0.75612 0.34547 0.59752 0.0
C7927 C 0.75303 0.33884 0.60137 0.0
H7928 H 0.76624 0.35244 0.59506 0.0
C7929 C 0.75822 0.33373 0.60529 0.0
H7930 H 0.75229 0.3496 0.59454 0.0
C7931 C 0.76626 0.33537 0.60561 0.0
C7932 C 0.7693 0.34214 0.60196 0.0
H7933 H 0.75606 0.32849 0.6082 0.0
H7934 H 0.77008 0.33134 0.60872 0.0
C7935 C 0.76414 0.34711 0.59784 0.0
C7936 C 0.63368 0.89935 0.52021 0.0
C7937 C 0.62908 0.89352 0.52384 0.0
H7938 H 0.6378 0.90426 0.50931 0.0
C7939 C 0.62465 0.88841 0.5191 0.0
H7940 H 0.6372 0.90333 0.52372 0.0
C7941 C 0.62496 0.88898 0.51093 0.0
C7942 C 0.62977 0.89461 0.50729 0.0
H7943 H 0.62102 0.88389 0.52174 0.0
H7944 H 0.62162 0.88483 0.50743 0.0
C7945 C 0.63409 0.89985 0.51199 0.0
C7946 C 0.12345 0.61489 0.48563 0.0
C7947 C 0.1289 0.61077 0.48105 0.0
H7948 H 0.11956 0.61788 0.49721 0.0
C7949 C 0.13452 0.60601 0.48476 0.0
H7950 H 0.11913 0.61866 0.48285 0.0
C7951 C 0.13485 0.60561 0.49298 0.0
C7952 C 0.1295 0.60991 0.4976 0.0
H7953 H 0.13884 0.60286 0.48131 0.0
H7954 H 0.13935 0.60205 0.49573 0.0
C7955 C 0.1237 0.61442 0.49382 0.0
C7956 C 0.67582 0.89397 0.75281 0.0
C7957 C 0.68007 0.90102 0.75218 0.0
H7958 H 0.67086 0.8853 0.76038 0.0
C7959 C 0.68328 0.90434 0.75903 0.0
H7960 H 0.67316 0.89132 0.74766 0.0
C7961 C 0.68207 0.90081 0.76637 0.0
C7962 C 0.67751 0.89393 0.76705 0.0
H7963 H 0.68667 0.90973 0.75872 0.0
H7964 H 0.68464 0.90354 0.77151 0.0
C7965 C 0.67452 0.89049 0.76014 0.0
C7966 C 0.36953 0.39366 0.97437 0.0
C7967 C 0.37262 0.38665 0.97123 0.0
H7968 H 0.36642 0.40005 0.98485 0.0
C7969 C 0.37544 0.38085 0.97641 0.0
H7970 H 0.36726 0.39821 0.97053 0.0
C7971 C 0.37498 0.38193 0.98453 0.0
C7972 C 0.37164 0.38879 0.98764 0.0
H7973 H 0.37794 0.37543 0.97418 0.0
H7974 H 0.37708 0.37732 0.98841 0.0
C7975 C 0.36898 0.39469 0.98253 0.0
C7976 C 0.31467 0.6088 0.76386 0.0
C7977 C 0.31942 0.60259 0.76111 0.0
H7978 H 0.31222 0.61685 0.77333 0.0
C7979 C 0.32534 0.59967 0.76608 0.0
H7980 H 0.31 0.61115 0.76024 0.0
C7981 C 0.32649 0.60283 0.77356 0.0
C7982 C 0.32183 0.60907 0.77626 0.0
H7983 H 0.32928 0.59507 0.76413 0.0
H7984 H 0.33119 0.60051 0.77718 0.0
C7985 C 0.31591 0.61205 0.77135 0.0
C7986 C 0.87353 0.12519 0.02865 0.0
C7987 C 0.87251 0.11886 0.0339 0.0
H7988 H 0.87365 0.12904 0.01664 0.0
C7989 C 0.87133 0.11127 0.0308 0.0
H7990 H 0.87463 0.13109 0.03081 0.0
C7991 C 0.87088 0.11011 0.02264 0.0
C7992 C 0.87158 0.11653 0.0175 0.0
H7993 H 0.87047 0.10627 0.03466 0.0
H7994 H 0.8698 0.10426 0.02035 0.0
C7995 C 0.87302 0.12404 0.02055 0.0
C7996 C 0.68497 0.10489 0.74763 0.0
C7997 C 0.67849 0.1031 0.75241 0.0
H7998 H 0.68892 0.1099 0.73668 0.0
C7999 C 0.67096 0.10529 0.74992 0.0
H8000 H 0.69083 0.10323 0.74944 0.0
C8001 C 0.66989 0.10918 0.74278 0.0
C8002 C 0.67631 0.11086 0.73791 0.0
H8003 H 0.66587 0.104 0.75351 0.0
H8004 H 0.664 0.11074 0.74099 0.0
C8005 C 0.68388 0.10866 0.74036 0.0
C8006 C 0.82476 0.89573 0.2436 0.0
C8007 C 0.81876 0.90124 0.24471 0.0
H8008 H 0.83108 0.88857 0.23548 0.0
C8009 C 0.81403 0.90341 0.23831 0.0
H8010 H 0.82855 0.89409 0.24845 0.0
C8011 C 0.81536 0.90012 0.23086 0.0
C8012 C 0.82152 0.89472 0.22967 0.0
H8013 H 0.80938 0.90768 0.23907 0.0
H8014 H 0.8116 0.90187 0.22603 0.0
C8015 C 0.82616 0.89255 0.23617 0.0
C8016 C 0.49715 0.36107 0.08091 0.0
C8017 C 0.49173 0.36097 0.08714 0.0
H8018 H 0.50845 0.36498 0.07689 0.0
C8019 C 0.49343 0.36518 0.09403 0.0
H8020 H 0.49598 0.35785 0.07554 0.0
C8021 C 0.50047 0.36926 0.09479 0.0
C8022 C 0.50603 0.36919 0.08869 0.0
H8023 H 0.48933 0.36525 0.0989 0.0
H8024 H 0.50167 0.37227 0.10028 0.0
C8025 C 0.50429 0.3651 0.08171 0.0
C8026 C 0.4039 0.7551 0.83394 0.0
C8027 C 0.39794 0.74941 0.83457 0.0
H8028 H 0.40717 0.76719 0.83509 0.0
C8029 C 0.39026 0.752 0.83619 0.0
H8030 H 0.40984 0.7534 0.83246 0.0
C8031 C 0.38871 0.75999 0.83768 0.0
C8032 C 0.3948 0.76557 0.8376 0.0
H8033 H 0.38551 0.74782 0.83674 0.0
H8034 H 0.38282 0.76171 0.83932 0.0
C8035 C 0.40236 0.76304 0.83544 0.0
C8036 C 0.00313 0.65061 0.58423 0.0
C8037 C 0.00843 0.65113 0.59054 0.0
H8038 H 0.99176 0.64671 0.58037 0.0
C8039 C 0.00645 0.64766 0.59777 0.0
H8040 H 0.00452 0.65326 0.5786 0.0
C8041 C 0.99927 0.64388 0.59875 0.0
C8042 C 0.99384 0.64354 0.59255 0.0
H8043 H 0.01045 0.64794 0.60271 0.0
H8044 H 0.99786 0.6414 0.60445 0.0
C8045 C 0.99584 0.64692 0.58525 0.0
C8046 C 0.10556 0.24566 0.33127 0.0
C8047 C 0.10786 0.25018 0.32472 0.0
H8048 H 0.10591 0.23451 0.3371 0.0
C8049 C 0.11259 0.24661 0.31893 0.0
H8050 H 0.10212 0.24823 0.33597 0.0
C8051 C 0.11489 0.23871 0.31968 0.0
C8052 C 0.11242 0.23422 0.32618 0.0
H8053 H 0.11444 0.24988 0.31379 0.0
H8054 H 0.11852 0.23607 0.31516 0.0
C8055 C 0.10775 0.23779 0.33195 0.0
C8056 C 0.49368 0.6406 0.4109 0.0
C8057 C 0.49184 0.64437 0.41801 0.0
H8058 H 0.50204 0.63387 0.40441 0.0
C8059 C 0.49713 0.64388 0.42433 0.0
H8060 H 0.48968 0.64084 0.40596 0.0
C8061 C 0.50429 0.63991 0.42343 0.0
C8062 C 0.50616 0.63624 0.41624 0.0
H8063 H 0.49583 0.64677 0.42987 0.0
H8064 H 0.50836 0.63973 0.42831 0.0
C8065 C 0.50074 0.63656 0.41004 0.0
C8066 C 0.11176 0.75951 0.18671 0.0
C8067 C 0.10875 0.75535 0.18021 0.0
H8068 H 0.11644 0.77051 0.19095 0.0
C8069 C 0.10835 0.75918 0.17288 0.0
H8070 H 0.11211 0.75673 0.19244 0.0
C8071 C 0.11077 0.76698 0.17207 0.0
C8072 C 0.11368 0.77114 0.17854 0.0
H8073 H 0.10623 0.75612 0.16771 0.0
H8074 H 0.11041 0.76977 0.16634 0.0
C8075 C 0.11419 0.76737 0.18588 0.0
C8076 C 0.00686 0.35871 0.90797 0.0
C8077 C 0.00853 0.35434 0.91478 0.0
H8078 H 0.9985 0.36562 0.90168 0.0
C8079 C 0.00292 0.35398 0.92082 0.0
H8080 H 0.01111 0.3591 0.90324 0.0
C8081 C 0.99563 0.3577 0.91991 0.0
C8082 C 0.99392 0.36194 0.913 0.0
H8083 H 0.00407 0.35062 0.92611 0.0
H8084 H 0.99132 0.35722 0.92457 0.0
C8085 C 0.99966 0.36249 0.90711 0.0
C8086 C 0.39701 0.24943 0.67593 0.0
C8087 C 0.39965 0.25474 0.67012 0.0
H8088 H 0.39351 0.23757 0.67864 0.0
C8089 C 0.40069 0.25192 0.6624 0.0
H8090 H 0.39623 0.2513 0.68196 0.0
C8091 C 0.39926 0.24405 0.66057 0.0
C8092 C 0.39665 0.23877 0.66636 0.0
H8093 H 0.40246 0.25579 0.65767 0.0
H8094 H 0.40013 0.2421 0.65456 0.0
C8095 C 0.39545 0.24154 0.67404 0.0
C8096 C 0.11419 0.48566 0.36508 0.0
C8097 C 0.11576 0.4828 0.37266 0.0
H8098 H 0.11212 0.49568 0.3578 0.0
C8099 C 0.11615 0.48813 0.37896 0.0
H8100 H 0.11383 0.48165 0.36014 0.0
C8101 C 0.11539 0.49624 0.37761 0.0
C8102 C 0.11414 0.49916 0.36994 0.0
H8103 H 0.11743 0.48605 0.38485 0.0
H8104 H 0.11613 0.50022 0.38253 0.0
C8105 C 0.11331 0.49372 0.36375 0.0
C8106 C 0.25642 0.34784 0.10779 0.0
C8107 C 0.25841 0.34064 0.10427 0.0
H8108 H 0.24784 0.35447 0.1141 0.0
C8109 C 0.25313 0.33431 0.10477 0.0
H8110 H 0.26041 0.3528 0.10752 0.0
C8111 C 0.24585 0.33529 0.1085 0.0
C8112 C 0.24385 0.34256 0.11191 0.0
H8113 H 0.25453 0.32871 0.10208 0.0
H8114 H 0.24179 0.3304 0.10869 0.0
C8115 C 0.24925 0.34878 0.1116 0.0
C8116 C 0.39311 0.51232 0.86274 0.0
C8117 C 0.38874 0.51473 0.86933 0.0
H8118 H 0.39678 0.50269 0.85543 0.0
C8119 C 0.38502 0.50896 0.87394 0.0
H8120 H 0.39599 0.51662 0.85902 0.0
C8121 C 0.38549 0.501 0.8719 0.0
C8122 C 0.38962 0.49863 0.86515 0.0
H8123 H 0.38166 0.51061 0.87909 0.0
H8124 H 0.3824 0.49672 0.87547 0.0
C8125 C 0.3935 0.50436 0.86064 0.0
C8126 C 0.2429 0.67034 0.61797 0.0
C8127 C 0.24234 0.66884 0.60985 0.0
H8128 H 0.25029 0.67064 0.62816 0.0
C8129 C 0.2492 0.66692 0.60568 0.0
H8130 H 0.23773 0.67181 0.62137 0.0
C8131 C 0.25634 0.6661 0.60958 0.0
C8132 C 0.25686 0.66726 0.61776 0.0
H8133 H 0.24903 0.66587 0.5994 0.0
H8134 H 0.2614 0.66424 0.6062 0.0
C8135 C 0.25008 0.66957 0.62188 0.0
C8136 C 0.12347 0.5161 0.13048 0.0
C8137 C 0.11723 0.52146 0.1314 0.0
H8138 H 0.12742 0.50418 0.13152 0.0
C8139 C 0.10978 0.51847 0.13341 0.0
H8140 H 0.12923 0.51809 0.1287 0.0
C8141 C 0.10872 0.5104 0.1348 0.0
C8142 C 0.1151 0.50521 0.13432 0.0
H8143 H 0.10484 0.52239 0.13423 0.0
H8144 H 0.103 0.50826 0.13658 0.0
C8145 C 0.12244 0.50811 0.13202 0.0
C8146 C 0.24367 0.34401 0.89025 0.0
C8147 C 0.24186 0.33704 0.89429 0.0
H8148 H 0.252 0.35029 0.88328 0.0
C8149 C 0.24718 0.33072 0.89402 0.0
H8150 H 0.23965 0.34894 0.89031 0.0
C8151 C 0.25432 0.33151 0.89 0.0
C8152 C 0.25617 0.33856 0.88607 0.0
H8153 H 0.24592 0.32529 0.89711 0.0
H8154 H 0.25841 0.32663 0.88998 0.0
C8155 C 0.25072 0.34475 0.88617 0.0
C8156 C 0.38909 0.49581 0.63105 0.0
C8157 C 0.38895 0.49004 0.63696 0.0
H8158 H 0.38916 0.50813 0.62838 0.0
C8159 C 0.3896 0.49236 0.64485 0.0
H8160 H 0.38852 0.49415 0.62492 0.0
C8161 C 0.39011 0.50031 0.64685 0.0
C8162 C 0.38981 0.50618 0.64101 0.0
H8163 H 0.38955 0.488 0.6495 0.0
H8164 H 0.3906 0.50185 0.65302 0.0
C8165 C 0.38947 0.50382 0.63306 0.0
C8166 C 0.25664 0.65738 0.39708 0.0
C8167 C 0.25848 0.66449 0.40086 0.0
H8168 H 0.24815 0.6508 0.39061 0.0
C8169 C 0.25306 0.67071 0.40064 0.0
H8170 H 0.26074 0.65251 0.39713 0.0
C8171 C 0.24577 0.6697 0.39694 0.0
C8172 C 0.2439 0.66252 0.39328 0.0
H8173 H 0.25435 0.67624 0.40354 0.0
H8174 H 0.2416 0.67451 0.39698 0.0
C8175 C 0.24945 0.65642 0.39331 0.0
C8176 C 0.36183 0.06819 0.50886 0.0
C8177 C 0.35828 0.07459 0.50497 0.0
H8178 H 0.36688 0.06391 0.51967 0.0
C8179 C 0.35722 0.08167 0.50913 0.0
H8180 H 0.3627 0.06265 0.50585 0.0
C8181 C 0.35949 0.08233 0.51698 0.0
C8182 C 0.36296 0.07595 0.52086 0.0
H8183 H 0.3547 0.08678 0.50628 0.0
H8184 H 0.3586 0.08786 0.52002 0.0
C8185 C 0.36418 0.06889 0.51676 0.0
C8186 C 0.86479 0.42518 0.49825 0.0
C8187 C 0.85945 0.43113 0.50015 0.0
H8188 H 0.87115 0.41924 0.48921 0.0
C8189 C 0.85662 0.43607 0.49417 0.0
H8190 H 0.86693 0.42122 0.50277 0.0
C8191 C 0.85906 0.43498 0.48634 0.0
C8192 C 0.86434 0.42891 0.48439 0.0
H8193 H 0.85242 0.44065 0.49552 0.0
H8194 H 0.85677 0.43885 0.48183 0.0
C8195 C 0.86721 0.42407 0.49048 0.0
C8196 C 0.36537 0.1146 0.26917 0.0
C8197 C 0.36591 0.12232 0.27206 0.0
H8198 H 0.36407 0.10715 0.25917 0.0
C8199 C 0.3652 0.12863 0.26678 0.0
H8200 H 0.36581 0.10963 0.27314 0.0
C8201 C 0.36442 0.12722 0.25868 0.0
C8202 C 0.36423 0.11946 0.25572 0.0
H8203 H 0.36564 0.13464 0.26888 0.0
H8204 H 0.3643 0.13221 0.25472 0.0
C8205 C 0.36446 0.11319 0.26114 0.0
C8206 C 0.64856 0.59359 0.00268 0.0
C8207 C 0.64724 0.58606 0.0058 0.0
H8208 H 0.64814 0.60111 0.99264 0.0
C8209 C 0.64398 0.58024 1.00089 0.0
H8210 H 0.65089 0.59826 0.00635 0.0
C8211 C 0.64241 0.58189 0.99292 0.0
C8212 C 0.64406 0.58937 0.98977 0.0
H8213 H 0.64289 0.57438 0.00314 0.0
H8214 H 0.64016 0.57725 0.98918 0.0
C8215 C 0.64698 0.59523 0.99481 0.0
C8216 C 0.63209 0.39166 0.26143 0.0
C8217 C 0.63771 0.38667 0.26484 0.0
H8218 H 0.62809 0.3976 0.25113 0.0
C8219 C 0.64401 0.38405 0.26018 0.0
H8220 H 0.62723 0.3939 0.26487 0.0
C8221 C 0.64457 0.38628 0.25224 0.0
C8222 C 0.63888 0.39124 0.24882 0.0
H8223 H 0.64843 0.38019 0.26262 0.0
H8224 H 0.64948 0.38417 0.2488 0.0
C8225 C 0.63265 0.39389 0.25355 0.0
C8226 C 0.14328 0.92397 0.00343 0.0
C8227 C 0.14809 0.91895 0.99895 0.0
H8228 H 0.13824 0.92641 0.01479 0.0
C8229 C 0.15117 0.91218 1.00255 0.0
H8230 H 0.14082 0.92923 1.00082 0.0
C8231 C 0.14966 0.91054 0.01044 0.0
C8232 C 0.14507 0.91564 0.01505 0.0
H8233 H 0.15473 0.90808 0.99923 0.0
H8234 H 0.15209 0.9052 0.01293 0.0
C8235 C 0.14179 0.92234 0.01142 0.0
C8236 C 0.3599 0.88249 0.23663 0.0
C8237 C 0.36747 0.88175 0.23337 0.0
H8238 H 0.35306 0.88458 0.24709 0.0
C8239 C 0.37396 0.88194 0.23849 0.0
H8240 H 0.35476 0.88241 0.2329 0.0
C8241 C 0.37298 0.88336 0.24651 0.0
C8242 C 0.36548 0.88444 0.2497 0.0
H8243 H 0.37986 0.88113 0.23629 0.0
H8244 H 0.37812 0.8837 0.25023 0.0
C8245 C 0.35892 0.88377 0.24475 0.0
C8246 C 0.14007 0.12384 0.74595 0.0
C8247 C 0.13876 0.11801 0.74025 0.0
H8248 H 0.14107 0.12649 0.75823 0.0
C8249 C 0.13832 0.11012 0.74261 0.0
H8250 H 0.14039 0.12998 0.74426 0.0
C8251 C 0.13886 0.10808 0.75055 0.0
C8252 C 0.13968 0.11391 0.75638 0.0
H8253 H 0.13741 0.10551 0.73831 0.0
H8254 H 0.1385 0.10192 0.7521 0.0
C8255 C 0.14048 0.12182 0.75395 0.0
C8256 C 0.09914 0.11144 0.41654 0.0
C8257 C 0.09364 0.10549 0.4149 0.0
H8258 H 0.1095 0.11481 0.42275 0.0
C8259 C 0.09455 0.09815 0.41868 0.0
H8260 H 0.09857 0.11724 0.41396 0.0
C8261 C 0.10081 0.09681 0.42389 0.0
C8262 C 0.10633 0.10275 0.42537 0.0
H8263 H 0.0905 0.09338 0.41753 0.0
H8264 H 0.10143 0.09108 0.42662 0.0
C8265 C 0.1054 0.11008 0.42165 0.0
C8266 C 0.13479 0.86699 0.66597 0.0
C8267 C 0.14039 0.86092 0.66572 0.0
H8268 H 0.13084 0.87747 0.67167 0.0
C8269 C 0.14677 0.86122 0.67097 0.0
H8270 H 0.12971 0.8669 0.66215 0.0
C8271 C 0.14736 0.86727 0.67653 0.0
C8272 C 0.14164 0.8732 0.67689 0.0
H8273 H 0.15128 0.85674 0.67085 0.0
H8274 H 0.15228 0.86729 0.68056 0.0
C8275 C 0.13542 0.87305 0.67147 0.0
C8276 C 0.42176 0.88722 0.94414 0.0
C8277 C 0.42487 0.88667 0.93649 0.0
H8278 H 0.41283 0.89207 0.95157 0.0
C8279 C 0.42152 0.89125 0.9305 0.0
H8280 H 0.42421 0.88375 0.94889 0.0
C8281 C 0.41511 0.89613 0.93205 0.0
C8282 C 0.41177 0.89647 0.93962 0.0
H8283 H 0.42388 0.8911 0.92458 0.0
H8284 H 0.41277 0.89961 0.92726 0.0
C8285 C 0.41526 0.89204 0.94569 0.0
C8286 C 0.3593 0.14756 0.1727 0.0
C8287 C 0.36178 0.15505 0.17518 0.0
H8288 H 0.35662 0.13571 0.17601 0.0
C8289 C 0.36345 0.15624 0.18319 0.0
H8290 H 0.3579 0.14649 0.16658 0.0
C8291 C 0.3628 0.15008 0.18857 0.0
C8292 C 0.36042 0.14255 0.18612 0.0
H8293 H 0.36552 0.16189 0.18527 0.0
H8294 H 0.36446 0.15118 0.19462 0.0
C8295 C 0.35858 0.14139 0.17811 0.0
C8296 C 0.10106 0.89563 0.09105 0.0
C8297 C 0.09398 0.8998 0.09032 0.0
H8298 H 0.11266 0.89372 0.08669 0.0
C8299 C 0.09347 0.90571 0.0845 0.0
H8300 H 0.10168 0.89094 0.09531 0.0
C8301 C 0.0998 0.90726 0.07946 0.0
C8302 C 0.10683 0.90301 0.08016 0.0
H8303 H 0.08818 0.90916 0.08384 0.0
H8304 H 0.0992 0.91183 0.07507 0.0
C8305 C 0.10738 0.89722 0.08605 0.0
C8306 C 0.35563 0.85174 0.32584 0.0
C8307 C 0.36238 0.85101 0.33057 0.0
H8308 H 0.34975 0.85827 0.31676 0.0
C8309 C 0.36837 0.85665 0.32978 0.0
H8310 H 0.35085 0.84759 0.32636 0.0
C8311 C 0.36766 0.86279 0.32439 0.0
C8312 C 0.361 0.86343 0.31957 0.0
H8313 H 0.37374 0.85621 0.33314 0.0
H8314 H 0.37246 0.86694 0.32383 0.0
C8315 C 0.35498 0.85786 0.32036 0.0
C8316 C 0.41974 0.11387 0.57441 0.0
C8317 C 0.42301 0.11824 0.56822 0.0
H8318 H 0.41117 0.10544 0.57794 0.0
C8319 C 0.41998 0.11731 0.56059 0.0
H8320 H 0.42207 0.11432 0.58032 0.0
C8321 C 0.41364 0.11227 0.55922 0.0
C8322 C 0.41024 0.10801 0.56545 0.0
H8323 H 0.42239 0.12062 0.55571 0.0
H8324 H 0.41126 0.11192 0.55333 0.0
C8325 C 0.41348 0.10878 0.57303 0.0
C8326 C 0.13953 0.1469 0.83003 0.0
C8327 C 0.14073 0.14539 0.83807 0.0
H8328 H 0.13889 0.14226 0.8184 0.0
C8329 C 0.14277 0.13773 0.84042 0.0
H8330 H 0.1378 0.1527 0.82803 0.0
C8331 C 0.1435 0.1317 0.83484 0.0
C8332 C 0.14213 0.13319 0.8268 0.0
H8333 H 0.1438 0.1364 0.84657 0.0
H8334 H 0.14511 0.12587 0.83685 0.0
C8335 C 0.14019 0.14089 0.82448 0.0
C8336 C 0.44524 0.0862 0.1365 0.0
C8337 C 0.4502 0.07961 0.13608 0.0
H8338 H 0.44267 0.09775 0.13233 0.0
C8339 C 0.45673 0.0799 0.131 0.0
H8340 H 0.44011 0.08619 0.14025 0.0
C8341 C 0.45808 0.08649 0.12627 0.0
C8342 C 0.45297 0.09297 0.12653 0.0
H8343 H 0.46076 0.07499 0.13062 0.0
H8344 H 0.46301 0.08641 0.12225 0.0
C8345 C 0.44664 0.0928 0.13183 0.0
C8346 C 0.1698 0.18079 0.36344 0.0
C8347 C 0.17255 0.18675 0.36843 0.0
H8348 H 0.16181 0.17752 0.35437 0.0
C8349 C 0.1692 0.19429 0.36791 0.0
H8350 H 0.17241 0.17497 0.36356 0.0
C8351 C 0.16302 0.19575 0.36269 0.0
C8352 C 0.16012 0.18971 0.35784 0.0
H8353 H 0.1712 0.19901 0.37169 0.0
H8354 H 0.16036 0.20153 0.36268 0.0
C8355 C 0.16372 0.18226 0.35817 0.0
C8356 C 0.04969 0.9344 0.62426 0.0
C8357 C 0.04834 0.93401 0.63241 0.0
H8358 H 0.04958 0.92826 0.61324 0.0
C8359 C 0.04542 0.92699 0.63567 0.0
H8360 H 0.05202 0.9397 0.6216 0.0
C8361 C 0.04391 0.92049 0.63084 0.0
C8362 C 0.04543 0.92087 0.62273 0.0
H8363 H 0.04431 0.92654 0.64193 0.0
H8364 H 0.04176 0.91509 0.63346 0.0
C8365 C 0.04831 0.92788 0.61948 0.0
C8366 C 0.34463 0.83666 0.84812 0.0
C8367 C 0.34365 0.8403 0.85553 0.0
H8368 H 0.35152 0.82877 0.84101 0.0
C8369 C 0.34901 0.83845 0.86154 0.0
H8370 H 0.34068 0.83798 0.84331 0.0
C8371 C 0.35521 0.83326 0.86018 0.0
C8372 C 0.35623 0.82969 0.85279 0.0
H8373 H 0.34838 0.84091 0.86738 0.0
H8374 H 0.35922 0.83201 0.86496 0.0
C8375 C 0.35083 0.83138 0.84678 0.0
C8376 C 0.45632 0.92103 0.36803 0.0
C8377 C 0.44995 0.92602 0.36956 0.0
H8378 H 0.46251 0.91059 0.37142 0.0
C8379 C 0.44512 0.92455 0.37605 0.0
H8380 H 0.46011 0.92212 0.36303 0.0
C8381 C 0.44653 0.91809 0.38091 0.0
C8382 C 0.45278 0.91291 0.37931 0.0
H8383 H 0.44023 0.92841 0.37735 0.0
H8384 H 0.44271 0.91714 0.3859 0.0
C8385 C 0.45771 0.9145 0.37286 0.0
C8386 C 0.35016 0.16681 0.64419 0.0
C8387 C 0.34593 0.1636 0.65053 0.0
H8388 H 0.35933 0.17457 0.6405 0.0
C8389 C 0.34756 0.16635 0.6582 0.0
H8390 H 0.34894 0.16506 0.63819 0.0
C8391 C 0.35342 0.172 0.65948 0.0
C8392 C 0.35778 0.17495 0.65313 0.0
H8393 H 0.34446 0.164 0.66323 0.0
H8394 H 0.35474 0.17384 0.66544 0.0
C8395 C 0.35604 0.17236 0.64549 0.0
C8396 C 0.04616 0.07031 0.88046 0.0
C8397 C 0.04797 0.07122 0.87241 0.0
H8398 H 0.04345 0.07604 0.89139 0.0
C8399 C 0.04801 0.07885 0.86919 0.0
H8400 H 0.04621 0.06456 0.8832 0.0
C8401 C 0.04657 0.0854 0.87394 0.0
C8402 C 0.04492 0.08445 0.88197 0.0
H8403 H 0.04922 0.07978 0.86301 0.0
H8404 H 0.04685 0.09123 0.87138 0.0
C8405 C 0.0446 0.07686 0.88518 0.0
C8406 C 0.17102 0.82495 0.14069 0.0
C8407 C 0.17473 0.81881 0.13659 0.0
H8408 H 0.16193 0.82836 0.14859 0.0
C8409 C 0.1719 0.8111 0.13755 0.0
H8410 H 0.17317 0.83093 0.14022 0.0
C8411 C 0.16533 0.80961 0.14228 0.0
C8412 C 0.16149 0.81579 0.14623 0.0
H8413 H 0.17462 0.80624 0.13446 0.0
H8414 H 0.16313 0.80364 0.14263 0.0
C8415 C 0.16455 0.82346 0.14548 0.0
C8416 C 0.11773 0.42465 0.10733 0.0
C8417 C 0.1122 0.4245 0.10119 0.0
H8418 H 0.12147 0.43007 0.11803 0.0
C8419 C 0.10581 0.42974 0.10152 0.0
H8420 H 0.12282 0.42084 0.10723 0.0
C8421 C 0.1051 0.43515 0.1077 0.0
C8422 C 0.11072 0.43535 0.11373 0.0
H8423 H 0.10136 0.42972 0.09697 0.0
H8424 H 0.10017 0.43916 0.10775 0.0
C8425 C 0.11697 0.42998 0.11353 0.0
C8426 C 0.60952 0.08227 0.89737 0.0
C8427 C 0.61192 0.07972 0.90486 0.0
H8428 H 0.60689 0.07905 0.88548 0.0
C8429 C 0.61346 0.07168 0.90603 0.0
H8430 H 0.60821 0.08842 0.89631 0.0
C8431 C 0.61278 0.06634 0.89984 0.0
C8432 C 0.6105 0.06887 0.89231 0.0
H8433 H 0.61546 0.06954 0.91169 0.0
H8434 H 0.61435 0.06026 0.90093 0.0
C8435 C 0.60878 0.0769 0.89117 0.0
C8436 C 0.20368 0.3788 0.17621 0.0
C8437 C 0.20018 0.38628 0.17549 0.0
H8438 H 0.20768 0.36839 0.17028 0.0
C8439 C 0.19852 0.38916 0.16792 0.0
H8440 H 0.20496 0.37633 0.18194 0.0
C8441 C 0.19997 0.38456 0.16128 0.0
C8442 C 0.20322 0.377 0.16203 0.0
H8443 H 0.19602 0.39496 0.16709 0.0
H8444 H 0.19849 0.38689 0.15553 0.0
C8445 C 0.20522 0.37422 0.16954 0.0
C8446 C 0.89681 0.92158 0.39405 0.0
C8447 C 0.89042 0.91633 0.39424 0.0
H8448 H 0.90239 0.93122 0.38812 0.0
C8449 C 0.88491 0.91662 0.38809 0.0
H8450 H 0.90126 0.92144 0.39859 0.0
C8451 C 0.88562 0.92216 0.38207 0.0
C8452 C 0.89184 0.92759 0.38205 0.0
H8453 H 0.87983 0.9128 0.38809 0.0
H8454 H 0.88111 0.92238 0.37759 0.0
C8455 C 0.89748 0.92718 0.38804 0.0
C8456 C 0.79302 0.12044 0.17835 0.0
C8457 C 0.79853 0.12247 0.18412 0.0
H8458 H 0.78754 0.1237 0.16746 0.0
C8459 C 0.80265 0.12957 0.18348 0.0
H8460 H 0.78977 0.11498 0.17879 0.0
C8461 C 0.80139 0.13454 0.17706 0.0
C8462 C 0.79595 0.13251 0.17118 0.0
H8463 H 0.8069 0.13124 0.18791 0.0
H8464 H 0.80469 0.13997 0.1767 0.0
C8465 C 0.79171 0.12545 0.17193 0.0
C8466 C 0.38831 0.57997 0.60846 0.0
C8467 C 0.39039 0.58786 0.60977 0.0
H8468 H 0.38704 0.56846 0.61326 0.0
C8469 C 0.39319 0.59007 0.61723 0.0
H8470 H 0.38597 0.57812 0.60284 0.0
C8471 C 0.39392 0.58447 0.62324 0.0
C8472 C 0.39178 0.57657 0.62192 0.0
H8473 H 0.39487 0.59611 0.61839 0.0
H8474 H 0.39617 0.58632 0.6289 0.0
C8475 C 0.38897 0.57442 0.61445 0.0
C8476 C 0.194 0.62461 0.33183 0.0
C8477 C 0.19979 0.61943 0.32908 0.0
H8478 H 0.19086 0.63342 0.34016 0.0
C8479 C 0.20716 0.61935 0.33276 0.0
H8480 H 0.18833 0.62493 0.32898 0.0
C8481 C 0.20859 0.62414 0.33932 0.0
C8482 C 0.2027 0.62916 0.34222 0.0
H8483 H 0.21172 0.61542 0.33071 0.0
H8484 H 0.21421 0.62371 0.34225 0.0
C8485 C 0.19546 0.62946 0.33826 0.0
C8486 C 0.29465 0.37587 0.82098 0.0
C8487 C 0.29819 0.3833 0.82191 0.0
H8488 H 0.29066 0.36528 0.8266 0.0
C8489 C 0.29993 0.38592 0.82957 0.0
H8490 H 0.29331 0.37359 0.81518 0.0
C8491 C 0.29851 0.38111 0.83606 0.0
C8492 C 0.29524 0.37359 0.83509 0.0
H8493 H 0.30246 0.39168 0.83056 0.0
H8494 H 0.30008 0.38322 0.84187 0.0
C8495 C 0.29314 0.37108 0.82751 0.0
C8496 C 0.9117 0.87156 0.56039 0.0
C8497 C 0.91759 0.86819 0.55571 0.0
H8498 H 0.90075 0.87764 0.56073 0.0
C8499 C 0.91678 0.86836 0.54749 0.0
H8500 H 0.91223 0.87164 0.56675 0.0
C8501 C 0.91016 0.87174 0.54402 0.0
C8502 C 0.90423 0.87509 0.5487 0.0
H8503 H 0.9212 0.86574 0.54372 0.0
H8504 H 0.90962 0.87154 0.53768 0.0
C8505 C 0.90511 0.875 0.55694 0.0
C8506 C 0.86669 0.16912 0.3102 0.0
C8507 C 0.86828 0.17218 0.31771 0.0
H8508 H 0.8608 0.16024 0.30349 0.0
C8509 C 0.86452 0.16889 0.32426 0.0
H8510 H 0.86952 0.17157 0.30504 0.0
C8511 C 0.85937 0.16259 0.32338 0.0
C8512 C 0.85798 0.15925 0.31592 0.0
H8513 H 0.86552 0.17126 0.3301 0.0
H8514 H 0.85649 0.16032 0.32858 0.0
C8515 C 0.86164 0.16267 0.30931 0.0
C8516 C 0.58416 0.13721 0.05428 0.0
C8517 C 0.58314 0.13816 0.06243 0.0
H8518 H 0.59145 0.13289 0.04502 0.0
C8519 C 0.58876 0.135 0.06757 0.0
H8520 H 0.57996 0.13964 0.05017 0.0
C8521 C 0.59529 0.13101 0.06463 0.0
C8522 C 0.5964 0.13015 0.05647 0.0
H8523 H 0.58806 0.13552 0.07389 0.0
H8524 H 0.59945 0.12856 0.06878 0.0
C8525 C 0.59073 0.13328 0.05133 0.0
C8526 C 0.63577 0.8327 0.81447 0.0
C8527 C 0.63188 0.82942 0.80798 0.0
H8528 H 0.6436 0.84149 0.81871 0.0
C8529 C 0.63307 0.83275 0.8005 0.0
H8530 H 0.63513 0.83015 0.82028 0.0
C8531 C 0.63786 0.8394 0.79959 0.0
C8532 C 0.64164 0.84278 0.80614 0.0
H8533 H 0.63015 0.83034 0.79538 0.0
H8534 H 0.63844 0.84199 0.7938 0.0
C8535 C 0.64062 0.83923 0.81356 0.0
C8536 C 0.91693 0.13683 0.95768 0.0
C8537 C 0.91777 0.13691 0.94946 0.0
H8538 H 0.90975 0.13374 0.9675 0.0
C8539 C 0.91193 0.13344 0.94479 0.0
H8540 H 0.92131 0.13953 0.96142 0.0
C8541 C 0.90535 0.13 0.94827 0.0
C8542 C 0.90443 0.13003 0.95649 0.0
H8543 H 0.91249 0.13327 0.93844 0.0
H8544 H 0.90102 0.12728 0.94449 0.0
C8545 C 0.91032 0.13347 0.96116 0.0
C8546 C 0.63611 0.17271 0.69051 0.0
C8547 C 0.63194 0.17568 0.69697 0.0
H8548 H 0.64418 0.16414 0.68624 0.0
C8549 C 0.63274 0.17198 0.70432 0.0
H8550 H 0.63573 0.17555 0.68482 0.0
C8551 C 0.63747 0.16528 0.70513 0.0
C8552 C 0.64159 0.16223 0.69862 0.0
H8553 H 0.62957 0.17416 0.7094 0.0
H8554 H 0.63773 0.16241 0.71081 0.0
C8555 C 0.64093 0.16613 0.69134 0.0
C8556 C 0.58869 0.87005 0.43738 0.0
C8557 C 0.58307 0.8669 0.44254 0.0
H8558 H 0.59942 0.87641 0.43615 0.0
C8559 C 0.58413 0.8678 0.45068 0.0
H8560 H 0.58795 0.86958 0.43106 0.0
C8561 C 0.59074 0.87166 0.45361 0.0
C8562 C 0.59641 0.87477 0.44846 0.0
H8563 H 0.57993 0.86537 0.4548 0.0
H8564 H 0.59149 0.87202 0.45993 0.0
C8565 C 0.59526 0.87397 0.4403 0.0
C8566 C 0.86012 0.83213 0.18842 0.0
C8567 C 0.86833 0.83309 0.18808 0.0
H8568 H 0.8489 0.83776 0.18958 0.0
C8569 C 0.87145 0.84069 0.18905 0.0
H8570 H 0.85746 0.82641 0.18758 0.0
C8571 C 0.86652 0.84717 0.19002 0.0
C8572 C 0.85835 0.8462 0.19019 0.0
H8573 H 0.87772 0.84166 0.18901 0.0
H8574 H 0.86908 0.85298 0.19058 0.0
C8575 C 0.85519 0.83862 0.18953 0.0
C8576 C 0.58963 0.89872 0.88972 0.0
C8577 C 0.59124 0.9039 0.89596 0.0
H8578 H 0.58383 0.88827 0.88589 0.0
C8579 C 0.588 0.90224 0.90342 0.0
H8580 H 0.59181 0.89988 0.88385 0.0
C8581 C 0.5833 0.89555 0.90457 0.0
C8582 C 0.58179 0.89037 0.89831 0.0
H8583 H 0.58916 0.90605 0.90839 0.0
H8584 H 0.58095 0.89438 0.91038 0.0
C8585 C 0.585 0.89205 0.89088 0.0
C8586 C 0.83388 0.80447 0.61797 0.0
C8587 C 0.83285 0.81262 0.6171 0.0
H8588 H 0.84122 0.79518 0.62213 0.0
C8589 C 0.8385 0.81774 0.62025 0.0
H8590 H 0.82966 0.80038 0.61554 0.0
C8591 C 0.84507 0.81478 0.62414 0.0
C8592 C 0.84619 0.80661 0.62491 0.0
H8593 H 0.83779 0.82406 0.61979 0.0
H8594 H 0.84924 0.8189 0.62658 0.0
C8595 C 0.84049 0.8015 0.6218 0.0
C8596 C 0.92409 0.09243 0.39966 0.0
C8597 C 0.91953 0.09155 0.39279 0.0
H8598 H 0.93292 0.09917 0.40568 0.0
C8599 C 0.92044 0.09709 0.38671 0.0
H8600 H 0.92349 0.08835 0.40452 0.0
C8601 C 0.92574 0.1033 0.38744 0.0
C8602 C 0.93035 0.10412 0.39424 0.0
H8603 H 0.91723 0.09653 0.38125 0.0
H8604 H 0.92636 0.10737 0.38258 0.0
C8605 C 0.92948 0.09863 0.40035 0.0
C8606 C 0.66228 0.19464 0.12143 0.0
C8607 C 0.66821 0.19932 0.11812 0.0
H8608 H 0.65128 0.19431 0.12741 0.0
C8609 C 0.66741 0.20754 0.1183 0.0
H8610 H 0.66281 0.18828 0.12151 0.0
C8611 C 0.66076 0.21101 0.12162 0.0
C8612 C 0.65479 0.20633 0.12489 0.0
H8613 H 0.67185 0.2113 0.11573 0.0
H8614 H 0.66023 0.21735 0.12142 0.0
C8615 C 0.65567 0.1981 0.12482 0.0
C8616 C 0.5897 0.1065 0.61519 0.0
C8617 C 0.5914 0.10135 0.60895 0.0
H8618 H 0.58393 0.117 0.61895 0.0
C8619 C 0.58833 0.10307 0.60144 0.0
H8620 H 0.59175 0.10529 0.6211 0.0
C8621 C 0.58373 0.10981 0.60022 0.0
C8622 C 0.58216 0.11498 0.60647 0.0
H8623 H 0.58956 0.09926 0.59648 0.0
H8624 H 0.58153 0.11105 0.59437 0.0
C8625 C 0.58517 0.11322 0.61397 0.0
C8626 C 0.66163 0.81056 0.38439 0.0
C8627 C 0.66785 0.80586 0.38707 0.0
H8628 H 0.65037 0.81093 0.37891 0.0
C8629 C 0.66734 0.79765 0.38626 0.0
H8630 H 0.66192 0.81691 0.3848 0.0
C8631 C 0.66068 0.7942 0.38296 0.0
C8632 C 0.6544 0.79888 0.38032 0.0
H8633 H 0.67202 0.79388 0.38833 0.0
H8634 H 0.66038 0.78784 0.38268 0.0
C8635 C 0.655 0.80712 0.38101 0.0
C8636 C 0.92051 0.90591 0.11772 0.0
C8637 C 0.91914 0.91114 0.11146 0.0
H8638 H 0.92699 0.89603 0.12199 0.0
C8639 C 0.92347 0.91017 0.10445 0.0
H8640 H 0.91748 0.90656 0.12328 0.0
C8641 C 0.92911 0.90422 0.1038 0.0
C8642 C 0.93042 0.89904 0.11009 0.0
H8643 H 0.92252 0.91401 0.09945 0.0
H8644 H 0.93238 0.9036 0.09837 0.0
C8645 C 0.92603 0.89991 0.11702 0.0
C8646 C 0.83884 0.18731 0.88509 0.0
C8647 C 0.8332 0.19247 0.8882 0.0
H8648 H 0.84958 0.18608 0.87874 0.0
C8649 C 0.83424 0.20061 0.88726 0.0
H8650 H 0.83812 0.181 0.8856 0.0
C8651 C 0.84084 0.20354 0.88339 0.0
C8652 C 0.84652 0.19839 0.88031 0.0
H8653 H 0.83002 0.20473 0.88966 0.0
H8654 H 0.84157 0.20986 0.88299 0.0
C8655 C 0.84541 0.19023 0.88115 0.0
C8656 C 0.88951 0.55515 0.92598 0.0
C8657 C 0.88159 0.55745 0.92539 0.0
H8658 H 0.90023 0.55259 0.91988 0.0
C8659 C 0.87836 0.55853 0.91784 0.0
H8660 H 0.89226 0.55436 0.93167 0.0
C8661 C 0.88298 0.55762 0.91112 0.0
C8662 C 0.89092 0.55552 0.91174 0.0
H8663 H 0.87226 0.56012 0.91712 0.0
H8664 H 0.88033 0.55859 0.9054 0.0
C8665 C 0.89411 0.55415 0.91923 0.0
C8666 C 0.38255 0.95452 0.08316 0.0
C8667 C 0.3819 0.94721 0.07936 0.0
H8668 H 0.3875 0.96098 0.09278 0.0
C8669 C 0.38632 0.94083 0.08213 0.0
H8670 H 0.37919 0.95952 0.08112 0.0
C8671 C 0.39124 0.94169 0.08863 0.0
C8672 C 0.39172 0.94892 0.09267 0.0
H8673 H 0.38605 0.93518 0.0792 0.0
H8674 H 0.39467 0.93666 0.09046 0.0
C8675 C 0.38736 0.95535 0.0898 0.0
C8676 C 0.83925 0.6397 0.85647 0.0
C8677 C 0.84115 0.64599 0.85145 0.0
H8678 H 0.83323 0.63587 0.8668 0.0
C8679 C 0.83819 0.65353 0.85325 0.0
H8680 H 0.84122 0.63378 0.85519 0.0
C8681 C 0.83349 0.65471 0.85993 0.0
C8682 C 0.83171 0.6484 0.86497 0.0
H8683 H 0.83957 0.65853 0.84955 0.0
H8684 H 0.83136 0.66058 0.86123 0.0
C8685 C 0.83463 0.64089 0.86313 0.0
C8686 C 0.11953 0.06177 0.58863 0.0
C8687 C 0.1177 0.0673 0.58276 0.0
H8688 H 0.1161 0.05646 0.59957 0.0
C8689 C 0.11077 0.07173 0.58347 0.0
H8690 H 0.12481 0.05825 0.58821 0.0
C8691 C 0.10583 0.07073 0.58994 0.0
C8692 C 0.10766 0.06522 0.59582 0.0
H8693 H 0.10924 0.07608 0.57907 0.0
H8694 H 0.10057 0.07428 0.59035 0.0
C8695 C 0.11452 0.06069 0.59507 0.0
C8696 C 0.17341 0.85373 0.8453 0.0
C8697 C 0.1691 0.86074 0.84425 0.0
H8698 H 0.18239 0.84775 0.85189 0.0
C8699 C 0.17061 0.86712 0.84928 0.0
H8700 H 0.17236 0.84865 0.84161 0.0
C8701 C 0.17622 0.86653 0.85521 0.0
C8702 C 0.18057 0.85958 0.85619 0.0
H8703 H 0.16761 0.87269 0.84855 0.0
H8704 H 0.17728 0.87157 0.85897 0.0
C8705 C 0.17915 0.85319 0.85118 0.0
C8706 C 0.61106 0.43302 0.42174 0.0
C8707 C 0.61798 0.43745 0.42247 0.0
H8708 H 0.60087 0.43048 0.41484 0.0
C8709 C 0.6198 0.44301 0.41662 0.0
H8710 H 0.60953 0.42865 0.42612 0.0
C8711 C 0.61479 0.4441 0.41017 0.0
C8712 C 0.60794 0.43956 0.4094 0.0
H8713 H 0.62507 0.44654 0.41705 0.0
H8714 H 0.61636 0.44836 0.4057 0.0
C8715 C 0.60612 0.43403 0.41527 0.0
C8716 C 0.83958 0.3651 0.64877 0.0
C8717 C 0.8413 0.35886 0.65392 0.0
H8718 H 0.83378 0.36886 0.63829 0.0
C8719 C 0.83822 0.35136 0.65221 0.0
H8720 H 0.84164 0.37101 0.64997 0.0
C8721 C 0.83359 0.35014 0.64548 0.0
C8722 C 0.83201 0.35639 0.64031 0.0
H8723 H 0.83946 0.3464 0.65601 0.0
H8724 H 0.83138 0.34429 0.64425 0.0
C8725 C 0.83502 0.36388 0.64207 0.0
C8726 C 0.67393 0.64982 0.163 0.0
C8727 C 0.66937 0.64294 0.16385 0.0
H8728 H 0.68265 0.65593 0.1562 0.0
C8729 C 0.67019 0.63694 0.1582 0.0
H8730 H 0.6734 0.65461 0.16716 0.0
C8731 C 0.67537 0.63777 0.15191 0.0
C8732 C 0.67997 0.64458 0.15112 0.0
H8733 H 0.66697 0.63148 0.15873 0.0
H8734 H 0.67592 0.63298 0.14774 0.0
C8735 C 0.67922 0.6506 0.15672 0.0
C8736 C 0.59454 0.59817 0.91836 0.0
C8737 C 0.59362 0.60555 0.91465 0.0
H8738 H 0.60142 0.59105 0.92625 0.0
C8739 C 0.59909 0.6115 0.91636 0.0
H8740 H 0.59051 0.5934 0.91715 0.0
C8741 C 0.60533 0.61011 0.92148 0.0
C8742 C 0.60628 0.60275 0.92513 0.0
H8743 H 0.5985 0.61732 0.91383 0.0
H8744 H 0.60942 0.61485 0.92263 0.0
C8745 C 0.60078 0.5968 0.92358 0.0
C8746 C 0.64358 0.3674 0.16486 0.0
C8747 C 0.64025 0.36011 0.16687 0.0
H8748 H 0.64701 0.37886 0.16886 0.0
C8749 C 0.63759 0.35891 0.17459 0.0
H8750 H 0.6457 0.36845 0.15894 0.0
C8751 C 0.63823 0.36484 0.1802 0.0
C8752 C 0.64164 0.37212 0.17828 0.0
H8753 H 0.63486 0.3534 0.17625 0.0
H8754 H 0.63588 0.36375 0.18602 0.0
C8755 C 0.64432 0.37334 0.17053 0.0
C8756 C 0.92149 0.39122 0.4303 0.0
C8757 C 0.92481 0.38662 0.4363 0.0
H8758 H 0.91272 0.39956 0.42705 0.0
C8759 C 0.92164 0.38711 0.44392 0.0
H8760 H 0.9239 0.39112 0.42441 0.0
C8761 C 0.91511 0.39188 0.44544 0.0
C8762 C 0.91165 0.39634 0.43938 0.0
H8763 H 0.92407 0.38361 0.44867 0.0
H8764 H 0.91263 0.39186 0.45131 0.0
C8765 C 0.91504 0.39605 0.43183 0.0
C8766 C 0.86343 0.65644 0.68338 0.0
C8767 C 0.86194 0.65522 0.67534 0.0
H8768 H 0.86432 0.6514 0.69484 0.0
C8769 C 0.85963 0.64769 0.67282 0.0
H8770 H 0.86536 0.66212 0.6855 0.0
C8771 C 0.85892 0.64151 0.67823 0.0
C8772 C 0.86059 0.64269 0.68626 0.0
H8773 H 0.85836 0.64659 0.66668 0.0
H8774 H 0.85709 0.6358 0.67609 0.0
C8775 C 0.86279 0.65027 0.68876 0.0
C8776 C 0.59945 0.39379 0.58899 0.0
C8777 C 0.59375 0.39963 0.59036 0.0
H8778 H 0.60994 0.3905 0.58295 0.0
C8779 C 0.59448 0.40686 0.58632 0.0
H8780 H 0.59903 0.38808 0.59177 0.0
C8781 C 0.60073 0.40819 0.58109 0.0
C8782 C 0.60644 0.40236 0.57986 0.0
H8783 H 0.59029 0.41154 0.58727 0.0
H8784 H 0.60119 0.41382 0.57815 0.0
C8785 C 0.6057 0.39516 0.58386 0.0
C8786 C 0.85632 0.35064 0.8249 0.0
C8787 C 0.86216 0.35073 0.83076 0.0
H8788 H 0.8512 0.35652 0.81498 0.0
C8789 C 0.86715 0.3573 0.83124 0.0
H8790 H 0.85226 0.34577 0.82444 0.0
C8791 C 0.86647 0.36349 0.82587 0.0
C8792 C 0.86083 0.36325 0.81984 0.0
H8793 H 0.8718 0.35756 0.83555 0.0
H8794 H 0.8706 0.36831 0.82625 0.0
C8795 C 0.85569 0.35681 0.81948 0.0
C8796 C 0.92165 0.61497 0.06167 0.0
C8797 C 0.92201 0.61921 0.06878 0.0
H8798 H 0.91558 0.60644 0.05473 0.0
C8799 C 0.91597 0.61816 0.07431 0.0
H8800 H 0.92611 0.61569 0.05719 0.0
C8801 C 0.90976 0.61302 0.07277 0.0
C8802 C 0.90948 0.60866 0.06573 0.0
H8803 H 0.91607 0.62121 0.0799 0.0
H8804 H 0.90516 0.61253 0.07713 0.0
C8805 C 0.91552 0.60972 0.06019 0.0
C8806 C 0.63878 0.6465 0.33 0.0
C8807 C 0.64062 0.64518 0.33794 0.0
H8808 H 0.63774 0.64169 0.31847 0.0
C8809 C 0.64328 0.6377 0.34023 0.0
H8810 H 0.63655 0.65215 0.32807 0.0
C8811 C 0.64407 0.63167 0.33467 0.0
C8812 C 0.64214 0.63298 0.32671 0.0
H8813 H 0.64479 0.63653 0.34631 0.0
H8814 H 0.64619 0.62598 0.3366 0.0
C8815 C 0.6395 0.64049 0.32447 0.0
C8816 C 0.94524 0.58592 0.6367 0.0
C8817 C 0.95022 0.57934 0.63628 0.0
H8818 H 0.94269 0.5975 0.63259 0.0
C8819 C 0.95678 0.57967 0.63126 0.0
H8820 H 0.94008 0.58588 0.64041 0.0
C8821 C 0.95816 0.5863 0.62658 0.0
C8822 C 0.95304 0.59278 0.62684 0.0
H8823 H 0.96082 0.57477 0.63087 0.0
H8824 H 0.96313 0.58626 0.6226 0.0
C8825 C 0.94666 0.59255 0.63209 0.0
C8826 C 0.67163 0.68054 0.86356 0.0
C8827 C 0.67477 0.68644 0.8684 0.0
H8828 H 0.66307 0.67738 0.85498 0.0
C8829 C 0.67145 0.69402 0.86811 0.0
H8830 H 0.67417 0.67469 0.86352 0.0
C8831 C 0.66496 0.69556 0.86329 0.0
C8832 C 0.66169 0.68958 0.85858 0.0
H8833 H 0.67373 0.69869 0.87178 0.0
H8834 H 0.66236 0.70137 0.86346 0.0
C8835 C 0.66524 0.68209 0.85867 0.0
C8836 C 0.54957 0.42572 0.1361 0.0
C8837 C 0.54815 0.43338 0.13332 0.0
H8838 H 0.54947 0.41338 0.13356 0.0
C8839 C 0.54491 0.43432 0.12574 0.0
H8840 H 0.55187 0.42473 0.14196 0.0
C8841 C 0.54339 0.42777 0.12099 0.0
C8842 C 0.54517 0.42017 0.12367 0.0
H8843 H 0.54382 0.44012 0.12335 0.0
H8844 H 0.54115 0.42867 0.11509 0.0
C8845 C 0.54815 0.4192 0.13131 0.0
C8846 C 0.84472 0.33686 0.34802 0.0
C8847 C 0.84351 0.34013 0.35555 0.0
H8848 H 0.85182 0.32925 0.34078 0.0
C8849 C 0.84858 0.33789 0.36167 0.0
H8850 H 0.84098 0.33847 0.34313 0.0
C8851 C 0.85477 0.33269 0.3603 0.0
C8852 C 0.85604 0.3295 0.35278 0.0
H8853 H 0.84775 0.34007 0.3676 0.0
H8854 H 0.85858 0.33114 0.36516 0.0
C8855 C 0.85091 0.33156 0.34665 0.0
C8856 C 0.94888 0.41803 0.86617 0.0
C8857 C 0.95052 0.42562 0.869 0.0
H8858 H 0.94889 0.40566 0.86852 0.0
C8859 C 0.95403 0.42639 0.87647 0.0
H8860 H 0.94637 0.41717 0.86038 0.0
C8861 C 0.95561 0.41975 0.88108 0.0
C8862 C 0.95362 0.41222 0.87835 0.0
H8863 H 0.9553 0.43214 0.87891 0.0
H8864 H 0.95807 0.42053 0.88691 0.0
C8865 C 0.95037 0.41142 0.87081 0.0
C8866 C 0.84678 0.6676 0.15777 0.0
C8867 C 0.84572 0.66436 0.15019 0.0
H8868 H 0.85349 0.67544 0.16508 0.0
C8869 C 0.85071 0.66686 0.14409 0.0
H8870 H 0.84313 0.66576 0.16264 0.0
C8871 C 0.85666 0.67229 0.14555 0.0
C8872 C 0.85773 0.67547 0.1531 0.0
H8873 H 0.84998 0.66471 0.13814 0.0
H8874 H 0.86046 0.67403 0.14074 0.0
C8875 C 0.8527 0.67314 0.15919 0.0
C8876 C 0.55485 0.57743 0.37295 0.0
C8877 C 0.54896 0.57179 0.37168 0.0
H8878 H 0.5582 0.5881 0.37858 0.0
C8879 C 0.54166 0.57283 0.37541 0.0
H8880 H 0.56059 0.57681 0.3703 0.0
C8881 C 0.54037 0.57923 0.38044 0.0
C8882 C 0.54633 0.58478 0.38181 0.0
H8883 H 0.53693 0.56869 0.37449 0.0
H8884 H 0.53476 0.5797 0.38338 0.0
C8885 C 0.55353 0.58386 0.37787 0.0
C8886 C 0.66968 0.32429 0.64134 0.0
C8887 C 0.6724 0.31823 0.63643 0.0
H8888 H 0.66167 0.32773 0.65035 0.0
C8889 C 0.669 0.31072 0.63705 0.0
H8890 H 0.67232 0.33008 0.64114 0.0
C8891 C 0.66281 0.30938 0.64228 0.0
C8892 C 0.65994 0.3155 0.64706 0.0
H8893 H 0.67098 0.30594 0.63333 0.0
H8894 H 0.66011 0.30361 0.64238 0.0
C8895 C 0.66357 0.32293 0.64662 0.0
C8896 C 0.61871 0.92555 0.60619 0.0
C8897 C 0.61254 0.92443 0.60082 0.0
H8898 H 0.62295 0.93175 0.61627 0.0
C8899 C 0.60563 0.92889 0.60179 0.0
H8900 H 0.62419 0.9224 0.60556 0.0
C8901 C 0.60499 0.9344 0.60789 0.0
C8902 C 0.6112 0.93548 0.6132 0.0
H8903 H 0.6007 0.92812 0.59785 0.0
H8904 H 0.59964 0.93778 0.60849 0.0
C8905 C 0.61803 0.93096 0.61232 0.0
C8906 C 0.11962 0.57693 0.40076 0.0
C8907 C 0.113 0.58032 0.40435 0.0
H8908 H 0.12397 0.56887 0.3921 0.0
C8909 C 0.10549 0.578 0.4018 0.0
H8910 H 0.12549 0.57845 0.40267 0.0
C8911 C 0.10465 0.57241 0.39579 0.0
C8912 C 0.1113 0.56909 0.39227 0.0
H8913 H 0.10028 0.58055 0.4044 0.0
H8914 H 0.09883 0.57072 0.39388 0.0
C8915 C 0.11877 0.5714 0.39476 0.0
C8916 C 0.70177 0.88895 0.66864 0.0
C8917 C 0.70051 0.88544 0.67603 0.0
H8918 H 0.70412 0.88709 0.65636 0.0
C8919 C 0.70105 0.8772 0.67669 0.0
H8920 H 0.70148 0.89527 0.66793 0.0
C8921 C 0.70268 0.87257 0.6701 0.0
C8922 C 0.70377 0.87609 0.66274 0.0
H8923 H 0.69997 0.87428 0.68226 0.0
H8924 H 0.70285 0.86622 0.6707 0.0
C8925 C 0.70336 0.8843 0.66204 0.0
C8926 C 0.38457 0.41655 0.88829 0.0
C8927 C 0.39025 0.41615 0.89428 0.0
H8928 H 0.38057 0.4224 0.87792 0.0
C8929 C 0.39671 0.4213 0.89392 0.0
H8930 H 0.37944 0.41281 0.88841 0.0
C8931 C 0.3973 0.42691 0.88792 0.0
C8932 C 0.3915 0.42742 0.88208 0.0
H8933 H 0.40128 0.42107 0.89834 0.0
H8934 H 0.40228 0.43087 0.88787 0.0
C8935 C 0.38521 0.42209 0.88226 0.0
C8936 C 0.29151 0.62576 0.68247 0.0
C8937 C 0.29869 0.62173 0.68325 0.0
H8938 H 0.28468 0.63395 0.67578 0.0
C8939 C 0.30438 0.62267 0.67735 0.0
H8940 H 0.28693 0.62509 0.68683 0.0
C8941 C 0.30302 0.62761 0.67094 0.0
C8942 C 0.29596 0.63185 0.67029 0.0
H8943 H 0.31002 0.61977 0.67776 0.0
H8944 H 0.30755 0.62813 0.6665 0.0
C8945 C 0.29017 0.63077 0.67607 0.0
C8946 C 0.89694 0.08391 0.11099 0.0
C8947 C 0.89067 0.0893 0.11082 0.0
H8948 H 0.90241 0.07425 0.11698 0.0
C8949 C 0.88525 0.08923 0.11705 0.0
H8950 H 0.90133 0.08388 0.10638 0.0
C8951 C 0.88593 0.08378 0.12315 0.0
C8952 C 0.89202 0.07821 0.12316 0.0
H8953 H 0.88026 0.09317 0.11708 0.0
H8954 H 0.88147 0.08372 0.12769 0.0
C8955 C 0.89758 0.0784 0.11707 0.0
C8956 C 0.70675 0.12371 0.82992 0.0
C8957 C 0.70006 0.11887 0.82951 0.0
H8958 H 0.71321 0.13224 0.83656 0.0
C8959 C 0.69495 0.11867 0.83599 0.0
H8960 H 0.7109 0.12393 0.82511 0.0
C8961 C 0.69637 0.12329 0.84261 0.0
C8962 C 0.70289 0.12835 0.84292 0.0
H8963 H 0.68969 0.1151 0.83588 0.0
H8964 H 0.69229 0.12294 0.84748 0.0
C8965 C 0.70814 0.12841 0.83654 0.0
C8966 C 0.80444 0.88331 0.32817 0.0
C8967 C 0.79908 0.88347 0.3219 0.0
H8968 H 0.80741 0.87859 0.33941 0.0
C8969 C 0.79228 0.87879 0.32242 0.0
H8970 H 0.80979 0.88673 0.32797 0.0
C8971 C 0.79102 0.87391 0.32893 0.0
C8972 C 0.7965 0.87362 0.3351 0.0
H8973 H 0.78795 0.87884 0.31777 0.0
H8974 H 0.78584 0.87022 0.32903 0.0
C8975 C 0.80314 0.87851 0.3347 0.0
C8976 C 0.41188 0.3715 0.06042 0.0
C8977 C 0.41774 0.36807 0.05573 0.0
H8978 H 0.40095 0.37763 0.06076 0.0
C8979 C 0.41689 0.36817 0.04751 0.0
H8980 H 0.41245 0.37165 0.06677 0.0
C8981 C 0.41027 0.37153 0.04406 0.0
C8982 C 0.40437 0.37493 0.04874 0.0
H8983 H 0.42128 0.3655 0.04376 0.0
H8984 H 0.40969 0.37128 0.03772 0.0
C8985 C 0.4053 0.37493 0.05697 0.0
C8986 C 0.36866 0.66784 0.81057 0.0
C8987 C 0.36823 0.67253 0.81735 0.0
H8988 H 0.36411 0.65783 0.80439 0.0
C8989 C 0.36258 0.67083 0.8231 0.0
H8990 H 0.37296 0.66911 0.80606 0.0
C8991 C 0.35752 0.66444 0.82216 0.0
C8992 C 0.35798 0.65962 0.81544 0.0
H8993 H 0.36213 0.67442 0.82835 0.0
H8994 H 0.35324 0.66327 0.82672 0.0
C8995 C 0.36355 0.66145 0.8096 0.0
C8996 C 0.0889 0.63522 0.56783 0.0
C8997 C 0.08323 0.63829 0.56267 0.0
H8998 H 0.09964 0.62888 0.56905 0.0
C8999 C 0.08424 0.6373 0.55453 0.0
H9000 H 0.0882 0.63578 0.57414 0.0
C9001 C 0.09083 0.6334 0.5516 0.0
C9002 C 0.09653 0.63035 0.55675 0.0
H9003 H 0.08002 0.63967 0.55041 0.0
H9004 H 0.09154 0.63296 0.54528 0.0
C9005 C 0.09545 0.63126 0.5649 0.0
C9006 C 0.13606 0.33244 0.3145 0.0
C9007 C 0.13183 0.32952 0.30806 0.0
H9008 H 0.14421 0.34094 0.31875 0.0
C9009 C 0.13264 0.33321 0.30071 0.0
H9010 H 0.13568 0.3296 0.3202 0.0
C9011 C 0.13742 0.33987 0.29989 0.0
C9012 C 0.14158 0.34289 0.30638 0.0
H9013 H 0.12942 0.33107 0.29565 0.0
H9014 H 0.13768 0.34275 0.29421 0.0
C9015 C 0.14093 0.33897 0.31366 0.0
C9016 C 0.41669 0.63683 0.45768 0.0
C9017 C 0.41757 0.63687 0.44946 0.0
H9018 H 0.40949 0.6337 0.46748 0.0
C9019 C 0.41178 0.63332 0.44478 0.0
H9020 H 0.42102 0.63959 0.46143 0.0
C9021 C 0.40523 0.62983 0.44824 0.0
C9022 C 0.40427 0.62987 0.45647 0.0
H9023 H 0.41238 0.63314 0.43844 0.0
H9024 H 0.40094 0.62704 0.44446 0.0
C9025 C 0.41009 0.6334 0.46114 0.0
C9026 C 0.13341 0.67253 0.20478 0.0
C9027 C 0.13204 0.67578 0.19729 0.0
H9028 H 0.13884 0.66332 0.21145 0.0
C9029 C 0.13562 0.67229 0.19072 0.0
H9030 H 0.13071 0.67509 0.20995 0.0
C9031 C 0.14038 0.66567 0.19158 0.0
C9032 C 0.14161 0.66226 0.19902 0.0
H9033 H 0.13484 0.67476 0.18489 0.0
H9034 H 0.14314 0.66327 0.18636 0.0
C9035 C 0.13811 0.66582 0.20563 0.0
C9036 C 0.08835 0.37022 0.93762 0.0
C9037 C 0.08281 0.36693 0.94277 0.0
H9038 H 0.09896 0.37678 0.9364 0.0
C9039 C 0.08388 0.36779 0.95092 0.0
H9040 H 0.0876 0.36978 0.9313 0.0
C9041 C 0.09044 0.37173 0.95386 0.0
C9042 C 0.09604 0.37497 0.94871 0.0
H9043 H 0.07973 0.36526 0.95503 0.0
H9044 H 0.09121 0.37204 0.96018 0.0
C9045 C 0.09487 0.37423 0.94055 0.0
C9046 C 0.3702 0.3434 0.68472 0.0
C9047 C 0.3688 0.33611 0.68835 0.0
H9048 H 0.36611 0.3551 0.68267 0.0
C9049 C 0.36208 0.33523 0.69309 0.0
H9050 H 0.37527 0.34427 0.68099 0.0
C9051 C 0.35673 0.3414 0.69393 0.0
C9052 C 0.35801 0.34859 0.69007 0.0
H9053 H 0.36089 0.32973 0.69608 0.0
H9054 H 0.3515 0.34046 0.69741 0.0
C9055 C 0.36488 0.34957 0.68559 0.0
C9056 C 0.08802 0.40214 0.40362 0.0
C9057 C 0.09114 0.40385 0.39612 0.0
H9058 H 0.08107 0.39424 0.41063 0.0
C9059 C 0.0894 0.39873 0.38986 0.0
H9060 H 0.08928 0.40592 0.40859 0.0
C9061 C 0.08477 0.39207 0.39105 0.0
C9062 C 0.08169 0.39033 0.39852 0.0
H9063 H 0.09149 0.39993 0.38396 0.0
H9064 H 0.0835 0.38832 0.38606 0.0
C9065 C 0.08332 0.39547 0.4048 0.0
C9066 C 0.33852 0.31766 0.1201 0.0
C9067 C 0.3329 0.31253 0.11692 0.0
H9068 H 0.34922 0.31885 0.12651 0.0
C9069 C 0.33395 0.30438 0.1178 0.0
H9070 H 0.33779 0.32398 0.11964 0.0
C9071 C 0.34054 0.30142 0.12167 0.0
C9072 C 0.3462 0.30655 0.12481 0.0
H9073 H 0.32975 0.30027 0.11535 0.0
H9074 H 0.34128 0.2951 0.12201 0.0
C9075 C 0.34507 0.31471 0.12404 0.0
C9076 C 0.42068 0.59686 0.88663 0.0
C9077 C 0.41973 0.59128 0.89268 0.0
H9078 H 0.42663 0.60716 0.88259 0.0
C9079 C 0.4243 0.59209 0.89955 0.0
H9080 H 0.41746 0.59636 0.88117 0.0
C9081 C 0.42972 0.59826 0.90029 0.0
C9082 C 0.4306 0.6038 0.89422 0.0
H9083 H 0.42368 0.58798 0.90438 0.0
H9084 H 0.43316 0.59875 0.90563 0.0
C9085 C 0.42599 0.60304 0.88742 0.0
C9086 C 0.16689 0.70766 0.6184 0.0
C9087 C 0.16768 0.69944 0.61827 0.0
H9088 H 0.15973 0.71749 0.62152 0.0
C9089 C 0.1618 0.69478 0.62169 0.0
H9090 H 0.17131 0.7114 0.61576 0.0
C9091 C 0.15522 0.69826 0.62511 0.0
C9092 C 0.15434 0.70649 0.62512 0.0
H9093 H 0.16233 0.68842 0.62181 0.0
H9094 H 0.15086 0.69448 0.62778 0.0
C9095 C 0.16027 0.71115 0.62176 0.0
C9096 C 0.08856 0.60284 0.10152 0.0
C9097 C 0.09171 0.60109 0.10899 0.0
H9098 H 0.08172 0.61087 0.09456 0.0
C9099 C 0.09013 0.60624 0.11526 0.0
H9100 H 0.0897 0.59903 0.09654 0.0
C9101 C 0.08562 0.61298 0.11411 0.0
C9102 C 0.08252 0.61478 0.10666 0.0
H9103 H 0.09225 0.605 0.12113 0.0
H9104 H 0.08447 0.61676 0.11911 0.0
C9105 C 0.08399 0.60961 0.10037 0.0
C9106 C 0.16191 0.3104 0.88374 0.0
C9107 C 0.16781 0.3057 0.88709 0.0
H9108 H 0.15093 0.31074 0.87771 0.0
C9109 C 0.16699 0.29748 0.88691 0.0
H9110 H 0.16244 0.31675 0.88365 0.0
C9111 C 0.16036 0.29403 0.88357 0.0
C9112 C 0.15441 0.29872 0.88026 0.0
H9113 H 0.17141 0.29372 0.88951 0.0
H9114 H 0.15981 0.28768 0.88377 0.0
C9115 C 0.15531 0.30695 0.88033 0.0
C9116 C 0.42402 0.41299 0.60541 0.0
C9117 C 0.41944 0.41389 0.61227 0.0
H9118 H 0.43289 0.40626 0.59943 0.0
C9119 C 0.42038 0.40838 0.61838 0.0
H9120 H 0.4234 0.41704 0.60053 0.0
C9121 C 0.4257 0.40219 0.61768 0.0
C9122 C 0.43033 0.40135 0.6109 0.0
H9123 H 0.41715 0.40895 0.62384 0.0
H9124 H 0.42634 0.39814 0.62257 0.0
C9125 C 0.42944 0.40681 0.60475 0.0
C9126 C 0.33859 0.68746 0.38478 0.0
C9127 C 0.33298 0.69259 0.388 0.0
H9128 H 0.34929 0.6863 0.37835 0.0
C9129 C 0.33402 0.70074 0.38714 0.0
H9130 H 0.33787 0.68115 0.38522 0.0
C9131 C 0.3406 0.70372 0.38327 0.0
C9132 C 0.34627 0.6986 0.3801 0.0
H9133 H 0.32982 0.70483 0.38962 0.0
H9134 H 0.34134 0.71004 0.38296 0.0
C9135 C 0.34514 0.69043 0.38084 0.0
C9136 C 0.3856 0.06444 0.42209 0.0
C9137 C 0.38199 0.05785 0.4255 0.0
H9138 H 0.39318 0.06885 0.41315 0.0
C9139 C 0.38337 0.05039 0.42222 0.0
H9140 H 0.3848 0.07025 0.42459 0.0
C9141 C 0.38811 0.04957 0.41553 0.0
C9142 C 0.39164 0.0562 0.41204 0.0
H9143 H 0.38065 0.0452 0.42472 0.0
H9144 H 0.38885 0.04377 0.413 0.0
C9145 C 0.3904 0.06363 0.4155 0.0
C9146 C 0.89052 0.44683 0.57875 0.0
C9147 C 0.88229 0.44753 0.57898 0.0
H9148 H 0.90131 0.44713 0.58526 0.0
C9149 C 0.87868 0.44934 0.58621 0.0
H9150 H 0.89351 0.44529 0.57334 0.0
C9151 C 0.88318 0.4503 0.59304 0.0
C9152 C 0.89136 0.44954 0.59274 0.0
H9153 H 0.87238 0.45002 0.58661 0.0
H9154 H 0.88027 0.45157 0.59856 0.0
C9155 C 0.89501 0.44784 0.58556 0.0
C9156 C 0.33982 0.13977 0.35649 0.0
C9157 C 0.34146 0.14604 0.35134 0.0
H9158 H 0.33408 0.13594 0.36698 0.0
C9159 C 0.33831 0.15351 0.35307 0.0
H9160 H 0.34194 0.13389 0.35527 0.0
C9161 C 0.33368 0.15467 0.35981 0.0
C9162 C 0.33217 0.14839 0.36497 0.0
H9163 H 0.33949 0.15849 0.34928 0.0
H9164 H 0.33141 0.16049 0.36105 0.0
C9165 C 0.33527 0.14094 0.3632 0.0
C9166 C 0.61642 0.55995 0.08577 0.0
C9167 C 0.61814 0.56746 0.08277 0.0
H9168 H 0.61044 0.55327 0.09461 0.0
C9169 C 0.61452 0.57406 0.08614 0.0
H9170 H 0.61914 0.55477 0.08327 0.0
C9171 C 0.60938 0.5732 0.09246 0.0
C9172 C 0.60785 0.56574 0.09573 0.0
H9173 H 0.61561 0.57989 0.08382 0.0
H9174 H 0.60661 0.57844 0.09479 0.0
C9175 C 0.61138 0.5591 0.09224 0.0
C9176 C 0.67073 0.36825 0.34715 0.0
C9177 C 0.66974 0.36221 0.34157 0.0
H9178 H 0.67672 0.37225 0.35745 0.0
C9179 C 0.67425 0.3553 0.34239 0.0
H9180 H 0.66756 0.37374 0.34664 0.0
C9181 C 0.67967 0.35452 0.34856 0.0
C9182 C 0.68061 0.36059 0.35409 0.0
H9183 H 0.67359 0.35047 0.33829 0.0
H9184 H 0.68307 0.34916 0.34905 0.0
C9185 C 0.67605 0.36743 0.35333 0.0
C9186 C 0.11166 0.93213 0.92097 0.0
C9187 C 0.11789 0.93738 0.92221 0.0
H9188 H 0.102 0.92884 0.91363 0.0
C9189 C 0.11903 0.94362 0.91692 0.0
H9190 H 0.11069 0.92727 0.92497 0.0
C9191 C 0.11399 0.9446 0.91048 0.0
C9192 C 0.10784 0.93925 0.90915 0.0
H9193 H 0.12379 0.94775 0.9178 0.0
H9194 H 0.11503 0.94942 0.90644 0.0
C9195 C 0.10672 0.93302 0.91448 0.0
C9196 C 0.33797 0.85146 0.15219 0.0
C9197 C 0.34112 0.85894 0.15388 0.0
H9198 H 0.33099 0.84446 0.14429 0.0
C9199 C 0.33942 0.86519 0.14875 0.0
H9200 H 0.33919 0.84648 0.15598 0.0
C9201 C 0.3348 0.86402 0.14209 0.0
C9202 C 0.33168 0.85656 0.14036 0.0
H9203 H 0.34154 0.87108 0.14994 0.0
H9204 H 0.33356 0.86902 0.13833 0.0
C9205 C 0.33327 0.85029 0.14551 0.0
C9206 C 0.16961 0.13675 0.65823 0.0
C9207 C 0.16885 0.14283 0.66379 0.0
H9208 H 0.17528 0.1326 0.64781 0.0
C9209 C 0.17343 0.14968 0.66282 0.0
H9210 H 0.16638 0.1313 0.65886 0.0
C9211 C 0.17868 0.15035 0.6565 0.0
C9212 C 0.17938 0.14424 0.65098 0.0
H9213 H 0.17295 0.15453 0.66692 0.0
H9214 H 0.18213 0.15566 0.65589 0.0
C9215 C 0.17477 0.13746 0.6519 0.0
C9216 C 0.08708 0.15537 0.34859 0.0
C9217 C 0.0888 0.15353 0.35648 0.0
H9218 H 0.09008 0.16251 0.33852 0.0
C9219 C 0.09447 0.158 0.36047 0.0
H9220 H 0.08274 0.15201 0.34538 0.0
C9221 C 0.0986 0.16391 0.3566 0.0
C9222 C 0.09717 0.16554 0.34864 0.0
H9223 H 0.09582 0.15683 0.36659 0.0
H9224 H 0.10306 0.16711 0.35982 0.0
C9225 C 0.09125 0.16136 0.34468 0.0
C9226 C 0.08424 0.8561 0.61604 0.0
C9227 C 0.08992 0.8535 0.61068 0.0
H9228 H 0.07338 0.86218 0.61764 0.0
C9229 C 0.08868 0.85448 0.60258 0.0
H9230 H 0.08515 0.85544 0.62232 0.0
C9231 C 0.08191 0.85832 0.59988 0.0
C9232 C 0.07641 0.86125 0.6053 0.0
H9233 H 0.09307 0.85258 0.59838 0.0
H9234 H 0.08115 0.85935 0.59363 0.0
C9235 C 0.07755 0.85995 0.61337 0.0
C9236 C 0.42784 0.82 0.88965 0.0
C9237 C 0.42928 0.82812 0.88927 0.0
H9238 H 0.42186 0.81014 0.88452 0.0
C9239 C 0.42619 0.83251 0.88302 0.0
H9240 H 0.43013 0.81654 0.89448 0.0
C9241 C 0.42145 0.82891 0.87739 0.0
C9242 C 0.41971 0.82083 0.87789 0.0
H9243 H 0.42718 0.8388 0.88269 0.0
H9244 H 0.41897 0.8325 0.87274 0.0
C9245 C 0.42314 0.81636 0.88395 0.0
C9246 C 0.41326 0.1619 0.11035 0.0
C9247 C 0.41129 0.16065 0.11829 0.0
H9248 H 0.42104 0.15878 0.10085 0.0
C9249 C 0.41612 0.1559 0.12297 0.0
H9250 H 0.40957 0.16554 0.10665 0.0
C9251 C 0.42258 0.15212 0.11972 0.0
C9252 C 0.42434 0.15298 0.1117 0.0
H9253 H 0.41476 0.15493 0.12912 0.0
H9254 H 0.42607 0.14829 0.12343 0.0
C9255 C 0.41978 0.15807 0.10706 0.0
C9256 C 0.09484 0.85435 0.15606 0.0
C9257 C 0.08869 0.85245 0.15087 0.0
H9258 H 0.10401 0.85013 0.16352 0.0
C9259 C 0.08662 0.84449 0.14998 0.0
H9260 H 0.09647 0.86042 0.15708 0.0
C9261 C 0.09095 0.83856 0.15373 0.0
C9262 C 0.09746 0.84046 0.15843 0.0
H9263 H 0.08196 0.84277 0.14601 0.0
H9264 H 0.08948 0.83247 0.15253 0.0
C9265 C 0.09916 0.84844 0.15977 0.0
C9266 C 0.40954 0.8496 0.39442 0.0
C9267 C 0.4105 0.84381 0.38859 0.0
H9268 H 0.4151 0.85814 0.40181 0.0
C9269 C 0.41814 0.84155 0.38644 0.0
H9270 H 0.40374 0.85136 0.39633 0.0
C9271 C 0.42465 0.84538 0.38965 0.0
C9272 C 0.42363 0.85156 0.39504 0.0
H9273 H 0.41909 0.83716 0.38191 0.0
H9274 H 0.43045 0.84385 0.38754 0.0
C9275 C 0.41603 0.85346 0.39758 0.0
C9276 C 0.43016 0.18482 0.61584 0.0
C9277 C 0.43058 0.1766 0.61521 0.0
H9278 H 0.4248 0.19464 0.62166 0.0
C9279 C 0.42634 0.1719 0.62047 0.0
H9280 H 0.43333 0.18852 0.61174 0.0
C9281 C 0.42153 0.17534 0.62614 0.0
C9282 C 0.42077 0.18357 0.62658 0.0
H9283 H 0.42656 0.16554 0.62003 0.0
H9284 H 0.41826 0.17153 0.63005 0.0
C9285 C 0.4253 0.18829 0.6215 0.0
C9286 C 0.08685 0.14425 0.88963 0.0
C9287 C 0.09045 0.15015 0.89411 0.0
H9288 H 0.07758 0.13589 0.88878 0.0
C9289 C 0.08708 0.15242 0.90131 0.0
H9290 H 0.08926 0.14251 0.88399 0.0
C9291 C 0.08036 0.14856 0.90412 0.0
C9292 C 0.07697 0.14242 0.89973 0.0
H9293 H 0.08977 0.15699 0.90484 0.0
H9294 H 0.07796 0.15018 0.9098 0.0
C9295 C 0.08018 0.14046 0.89239 0.0
C9296 C 0.39326 0.07104 0.1892 0.0
C9297 C 0.40063 0.07003 0.19277 0.0
H9298 H 0.38202 0.0766 0.1897 0.0
C9299 C 0.40196 0.07345 0.20019 0.0
H9300 H 0.39205 0.06854 0.18346 0.0
C9301 C 0.39623 0.07816 0.20372 0.0
C9302 C 0.38906 0.07957 0.19991 0.0
H9303 H 0.40753 0.07271 0.20314 0.0
H9304 H 0.39761 0.08104 0.20924 0.0
C9305 C 0.38754 0.07574 0.19273 0.0
C9306 C 0.17895 0.139 0.43551 0.0
C9307 C 0.18022 0.13891 0.42735 0.0
H9308 H 0.17289 0.13377 0.44526 0.0
C9309 C 0.1767 0.13305 0.42276 0.0
H9310 H 0.18155 0.14356 0.43912 0.0
C9311 C 0.17177 0.12749 0.42622 0.0
C9312 C 0.1702 0.12771 0.43435 0.0
H9313 H 0.17755 0.13296 0.41644 0.0
H9314 H 0.16904 0.12311 0.42249 0.0
C9315 C 0.17401 0.1334 0.439 0.0
C9316 C 0.09827 0.93867 0.69627 0.0
C9317 C 0.09925 0.94263 0.68907 0.0
H9318 H 0.10327 0.93084 0.70476 0.0
C9319 C 0.10661 0.94238 0.68536 0.0
H9320 H 0.0927 0.93882 0.69932 0.0
C9321 C 0.11269 0.93788 0.68852 0.0
C9322 C 0.11155 0.93351 0.69545 0.0
H9323 H 0.10756 0.94531 0.67978 0.0
H9324 H 0.11821 0.9376 0.68537 0.0
C9325 C 0.10436 0.93416 0.69943 0.0
C9326 C 0.34467 0.89436 0.90831 0.0
C9327 C 0.33934 0.89861 0.90366 0.0
H9328 H 0.35313 0.89465 0.91755 0.0
C9329 C 0.33805 0.90662 0.90535 0.0
H9330 H 0.34569 0.88816 0.90723 0.0
C9331 C 0.34235 0.91037 0.91134 0.0
C9332 C 0.34796 0.90613 0.91569 0.0
H9333 H 0.33398 0.91002 0.90183 0.0
H9334 H 0.34154 0.91661 0.91236 0.0
C9335 C 0.34892 0.89807 0.91422 0.0
C9336 C 0.39329 0.93392 0.31576 0.0
C9337 C 0.40063 0.93494 0.31216 0.0
H9338 H 0.38204 0.92838 0.31528 0.0
C9339 C 0.40192 0.93158 0.30471 0.0
H9340 H 0.39211 0.93638 0.32153 0.0
C9341 C 0.39617 0.92692 0.30116 0.0
C9342 C 0.38901 0.9255 0.30499 0.0
H9343 H 0.4075 0.93233 0.30174 0.0
H9344 H 0.39751 0.92409 0.29561 0.0
C9345 C 0.38754 0.92926 0.31222 0.0
C9346 C 0.33811 0.09699 0.60066 0.0
C9347 C 0.3382 0.10527 0.6011 0.0
H9348 H 0.34253 0.08669 0.59471 0.0
C9349 C 0.34239 0.10951 0.59537 0.0
H9350 H 0.33496 0.09355 0.60499 0.0
C9351 C 0.34668 0.10561 0.5896 0.0
C9352 C 0.34682 0.09738 0.58932 0.0
H9353 H 0.34242 0.11588 0.59538 0.0
H9354 H 0.35005 0.10904 0.58541 0.0
C9355 C 0.34241 0.09306 0.5948 0.0
C9356 C 0.1066 0.06336 0.81977 0.0
C9357 C 0.09921 0.06295 0.81613 0.0
H9358 H 0.11812 0.06833 0.8196 0.0
C9359 C 0.09811 0.06684 0.80891 0.0
H9360 H 0.10766 0.06049 0.82536 0.0
C9361 C 0.10409 0.07144 0.80566 0.0
C9362 C 0.11131 0.07224 0.80956 0.0
H9363 H 0.09252 0.06656 0.80591 0.0
H9364 H 0.10289 0.07468 0.80031 0.0
C9365 C 0.11258 0.06794 0.81651 0.0
C9366 C 0.17797 0.86574 0.07022 0.0
C9367 C 0.17905 0.86582 0.07841 0.0
H9368 H 0.17225 0.87109 0.06033 0.0
C9369 C 0.17558 0.87178 0.08291 0.0
H9370 H 0.18056 0.86112 0.06668 0.0
C9371 C 0.17084 0.87743 0.07933 0.0
C9372 C 0.16945 0.87721 0.07118 0.0
H9373 H 0.1763 0.87188 0.08924 0.0
H9374 H 0.16811 0.88187 0.083 0.0
C9375 C 0.17324 0.87144 0.06662 0.0
C9376 C 0.15927 0.36058 0.10006 0.0
C9377 C 0.16029 0.36619 0.09406 0.0
H9378 H 0.16476 0.35323 0.10866 0.0
C9379 C 0.16795 0.36797 0.09154 0.0
H9380 H 0.15346 0.35892 0.10201 0.0
C9381 C 0.17443 0.36465 0.09533 0.0
C9382 C 0.17339 0.35951 0.10172 0.0
H9383 H 0.16896 0.3723 0.08698 0.0
H9384 H 0.18025 0.36651 0.09358 0.0
C9385 C 0.16575 0.3573 0.10386 0.0
C9386 C 0.66783 0.1377 0.91345 0.0
C9387 C 0.6602 0.13895 0.91057 0.0
H9388 H 0.68012 0.13956 0.91169 0.0
C9389 C 0.65915 0.14411 0.90418 0.0
H9390 H 0.66886 0.13374 0.91834 0.0
C9391 C 0.6656 0.14741 0.90037 0.0
C9392 C 0.67326 0.14567 0.90287 0.0
H9393 H 0.65334 0.14536 0.90193 0.0
H9394 H 0.6646 0.15111 0.89527 0.0
C9395 C 0.6743 0.14104 0.90964 0.0
C9396 C 0.14315 0.43953 0.18427 0.0
C9397 C 0.15052 0.4431 0.18524 0.0
H9398 H 0.1319 0.44002 0.17874 0.0
C9399 C 0.15185 0.4505 0.1818 0.0
H9400 H 0.14194 0.4338 0.18679 0.0
C9401 C 0.14611 0.45403 0.1771 0.0
C9402 C 0.13892 0.45022 0.17573 0.0
H9403 H 0.15743 0.45345 0.18251 0.0
H9404 H 0.14748 0.45954 0.1742 0.0
C9405 C 0.13742 0.44305 0.17958 0.0
C9406 C 0.84152 0.85383 0.39487 0.0
C9407 C 0.84081 0.85917 0.40115 0.0
H9408 H 0.83561 0.84703 0.38609 0.0
C9409 C 0.83327 0.86101 0.40396 0.0
H9410 H 0.84723 0.85211 0.39268 0.0
C9411 C 0.8266 0.85802 0.40022 0.0
C9412 C 0.82734 0.85316 0.39357 0.0
H9413 H 0.83248 0.86516 0.40873 0.0
H9414 H 0.82088 0.85993 0.40223 0.0
C9415 C 0.83487 0.85089 0.39111 0.0
C9416 C 0.84825 0.0591 0.18881 0.0
C9417 C 0.84914 0.06639 0.1926 0.0
H9418 H 0.85332 0.05056 0.18108 0.0
C9419 C 0.8564 0.07028 0.19213 0.0
H9420 H 0.84275 0.05594 0.18912 0.0
C9421 C 0.86246 0.06718 0.18757 0.0
C9422 C 0.86141 0.06013 0.18338 0.0
H9423 H 0.85725 0.07594 0.19494 0.0
H9424 H 0.86789 0.07046 0.1871 0.0
C9425 C 0.85433 0.05599 0.18426 0.0
C9426 C 0.33812 0.64024 0.61224 0.0
C9427 C 0.34102 0.64413 0.60557 0.0
H9428 H 0.32937 0.63976 0.62115 0.0
C9429 C 0.33699 0.65073 0.60265 0.0
H9430 H 0.34102 0.63503 0.61449 0.0
C9431 C 0.33029 0.65353 0.60655 0.0
C9432 C 0.32755 0.64974 0.61338 0.0
H9433 H 0.33911 0.65379 0.59748 0.0
H9434 H 0.32737 0.65874 0.60434 0.0
C9435 C 0.33147 0.64298 0.61607 0.0
C9436 C 0.15181 0.55464 0.32365 0.0
C9437 C 0.1505 0.56208 0.32028 0.0
H9438 H 0.14746 0.54558 0.33123 0.0
C9439 C 0.14317 0.5657 0.32137 0.0
H9440 H 0.15736 0.55165 0.32285 0.0
C9441 C 0.13747 0.56219 0.32611 0.0
C9442 C 0.13896 0.55497 0.32988 0.0
H9443 H 0.14198 0.57146 0.3189 0.0
H9444 H 0.13197 0.56526 0.32703 0.0
C9445 C 0.1461 0.55112 0.32839 0.0
C9446 C 0.35684 0.436 0.81326 0.0
C9447 C 0.34937 0.43948 0.813 0.0
H9448 H 0.36843 0.43636 0.81803 0.0
C9449 C 0.34819 0.44666 0.81696 0.0
H9450 H 0.35795 0.43045 0.81033 0.0
C9451 C 0.35418 0.45 0.82148 0.0
C9452 C 0.36148 0.44623 0.82215 0.0
H9453 H 0.34253 0.44956 0.81679 0.0
H9454 H 0.35292 0.4553 0.82479 0.0
C9455 C 0.36282 0.43934 0.81776 0.0
C9456 C 0.92262 0.81995 0.61849 0.0
C9457 C 0.92513 0.81633 0.61151 0.0
H9458 H 0.91564 0.81893 0.62893 0.0
C9459 C 0.92317 0.80843 0.61013 0.0
H9460 H 0.924 0.82607 0.61965 0.0
C9461 C 0.91842 0.80434 0.61544 0.0
C9462 C 0.91544 0.80811 0.62217 0.0
H9463 H 0.92505 0.80552 0.60478 0.0
H9464 H 0.91667 0.79838 0.61399 0.0
C9465 C 0.91779 0.81589 0.62376 0.0
C9466 C 0.93781 0.17052 0.35487 0.0
C9467 C 0.93225 0.17596 0.35767 0.0
H9468 H 0.94631 0.16169 0.35776 0.0
C9469 C 0.93157 0.17709 0.36584 0.0
H9470 H 0.93854 0.16955 0.34861 0.0
C9471 C 0.93602 0.17257 0.37108 0.0
C9472 C 0.94133 0.16691 0.36826 0.0
H9473 H 0.92731 0.18119 0.36821 0.0
H9474 H 0.93517 0.17335 0.37735 0.0
C9475 C 0.94231 0.16606 0.3601 0.0
C9476 C 0.5775 0.204 0.11025 0.0
C9477 C 0.57572 0.19619 0.11224 0.0
H9478 H 0.58387 0.21441 0.11325 0.0
C9479 C 0.57841 0.19312 0.11941 0.0
H9480 H 0.57551 0.20645 0.10471 0.0
C9481 C 0.58324 0.19764 0.12428 0.0
C9482 C 0.58542 0.20533 0.12208 0.0
H9483 H 0.57716 0.18708 0.12101 0.0
H9484 H 0.58553 0.19501 0.12961 0.0
C9485 C 0.58225 0.20855 0.11516 0.0
C9486 C 0.58071 0.82047 0.86346 0.0
C9487 C 0.57625 0.81932 0.85663 0.0
H9488 H 0.58135 0.8258 0.87485 0.0
C9489 C 0.56855 0.82224 0.85633 0.0
H9490 H 0.58669 0.81835 0.86378 0.0
C9491 C 0.56545 0.82646 0.86269 0.0
C9492 C 0.57007 0.82796 0.86938 0.0
H9493 H 0.56503 0.82144 0.85108 0.0
H9494 H 0.55959 0.82888 0.86222 0.0
C9495 C 0.57767 0.82478 0.86975 0.0
C9496 C 0.92291 0.18549 0.88651 0.0
C9497 C 0.92516 0.189 0.89364 0.0
H9498 H 0.91622 0.18661 0.87589 0.0
C9499 C 0.923 0.19684 0.89511 0.0
H9500 H 0.92444 0.17944 0.88524 0.0
C9501 C 0.9183 0.20095 0.88978 0.0
C9502 C 0.9156 0.19727 0.88289 0.0
H9503 H 0.9247 0.1997 0.90055 0.0
H9504 H 0.9164 0.20683 0.8913 0.0
C9505 C 0.91815 0.18958 0.88119 0.0
C9506 C 0.57176 0.18784 0.64454 0.0
C9507 C 0.57639 0.18398 0.6502 0.0
H9508 H 0.56545 0.18683 0.63363 0.0
C9509 C 0.57805 0.17595 0.64921 0.0
H9510 H 0.57037 0.19403 0.64517 0.0
C9511 C 0.57527 0.17188 0.64267 0.0
C9512 C 0.57077 0.17573 0.63693 0.0
H9513 H 0.58169 0.17282 0.65339 0.0
H9514 H 0.57671 0.16569 0.6421 0.0
C9515 C 0.56891 0.18372 0.63798 0.0
C9516 C 0.5778 0.81137 0.38554 0.0
C9517 C 0.57567 0.80866 0.39305 0.0
H9518 H 0.58441 0.80916 0.37505 0.0
C9519 C 0.57795 0.80106 0.39538 0.0
H9520 H 0.57617 0.81723 0.38363 0.0
C9521 C 0.58265 0.79645 0.39048 0.0
C9522 C 0.58524 0.79936 0.38319 0.0
H9523 H 0.57635 0.79882 0.40112 0.0
H9524 H 0.58465 0.79079 0.39263 0.0
C9525 C 0.58256 0.80678 0.38067 0.0
C9526 C 0.93178 0.82767 0.13931 0.0
C9527 C 0.93271 0.82865 0.14747 0.0
H9528 H 0.9353 0.83136 0.12777 0.0
C9529 C 0.93856 0.83379 0.15022 0.0
H9530 H 0.92729 0.82381 0.13699 0.0
C9531 C 0.94313 0.83813 0.14493 0.0
C9532 C 0.94192 0.83744 0.13679 0.0
H9533 H 0.93949 0.83462 0.15647 0.0
H9534 H 0.94735 0.84229 0.14725 0.0
C9535 C 0.93632 0.83204 0.13402 0.0
C9536 C 0.64502 0.90324 0.84727 0.0
C9537 C 0.64759 0.9108 0.84934 0.0
H9538 H 0.64628 0.8934 0.83964 0.0
C9539 C 0.65375 0.91425 0.84507 0.0
H9540 H 0.64015 0.90051 0.85032 0.0
C9541 C 0.65738 0.9101 0.83893 0.0
C9542 C 0.65485 0.90247 0.83695 0.0
H9543 H 0.65582 0.92009 0.84655 0.0
H9544 H 0.66221 0.91282 0.8358 0.0
C9545 C 0.64857 0.89915 0.84115 0.0
C9546 C 0.82714 0.86903 0.56001 0.0
C9547 C 0.82669 0.86093 0.5584 0.0
H9548 H 0.83228 0.88012 0.55683 0.0
C9549 C 0.83048 0.85796 0.55169 0.0
H9550 H 0.82432 0.87148 0.56518 0.0
C9551 C 0.83497 0.8629 0.54691 0.0
C9552 C 0.8358 0.8709 0.54878 0.0
H9553 H 0.83019 0.85176 0.55027 0.0
H9554 H 0.83812 0.86037 0.54199 0.0
C9555 C 0.83172 0.87397 0.55528 0.0
C9556 C 0.85469 0.08522 0.34611 0.0
C9557 C 0.85482 0.08737 0.3541 0.0
H9558 H 0.85073 0.08806 0.3345 0.0
C9559 C 0.85001 0.0936 0.35661 0.0
H9560 H 0.85836 0.08049 0.34394 0.0
C9561 C 0.84564 0.09795 0.35119 0.0
C9562 C 0.84595 0.09617 0.34312 0.0
H9563 H 0.8498 0.0953 0.36275 0.0
H9564 H 0.8422 0.10288 0.35331 0.0
C9565 C 0.8503 0.08957 0.34068 0.0
C9566 C 0.67622 0.13953 0.06157 0.0
C9567 C 0.67297 0.14424 0.06755 0.0
H9568 H 0.6741 0.13058 0.05289 0.0
C9569 C 0.66509 0.14317 0.06964 0.0
H9570 H 0.68229 0.14027 0.05986 0.0
C9571 C 0.66046 0.13769 0.06572 0.0
C9572 C 0.66358 0.1331 0.05959 0.0
H9573 H 0.66246 0.14667 0.07427 0.0
H9574 H 0.65434 0.13724 0.06735 0.0
C9575 C 0.67153 0.13405 0.05757 0.0
C9576 C 0.6472 0.09082 0.6641 0.0
C9577 C 0.64881 0.09276 0.65621 0.0
H9578 H 0.64923 0.09347 0.67625 0.0
C9579 C 0.65458 0.09847 0.65465 0.0
H9580 H 0.64274 0.08653 0.66557 0.0
C9581 C 0.65824 0.1025 0.66079 0.0
C9582 C 0.6563 0.10087 0.66866 0.0
H9583 H 0.65613 0.09999 0.64866 0.0
H9584 H 0.66246 0.10705 0.65938 0.0
C9585 C 0.65092 0.09481 0.67025 0.0
C9586 C 0.67331 0.86033 0.44686 0.0
C9587 C 0.67524 0.86166 0.43894 0.0
H9588 H 0.66686 0.86426 0.45691 0.0
C9589 C 0.67274 0.86862 0.43529 0.0
H9590 H 0.67516 0.85497 0.44978 0.0
C9591 C 0.66794 0.87393 0.43934 0.0
C9592 C 0.66562 0.87239 0.44714 0.0
H9593 H 0.6741 0.86973 0.42916 0.0
H9594 H 0.6658 0.87909 0.43627 0.0
C9595 C 0.66859 0.86567 0.45094 0.0
C9596 C 0.84937 0.92054 0.15568 0.0
C9597 C 0.85537 0.91728 0.15104 0.0
H9598 H 0.84055 0.91849 0.16443 0.0
C9599 C 0.8571 0.90924 0.15182 0.0
H9600 H 0.8479 0.92672 0.15516 0.0
C9601 C 0.853 0.90457 0.15716 0.0
C9602 C 0.84698 0.90778 0.16183 0.0
H9603 H 0.8618 0.90658 0.14846 0.0
H9604 H 0.85474 0.89848 0.15777 0.0
C9605 C 0.84518 0.91583 0.16099 0.0
C9606 C 0.82807 0.14542 0.95415 0.0
C9607 C 0.82581 0.1431 0.94655 0.0
H9608 H 0.83476 0.14266 0.96442 0.0
C9609 C 0.82794 0.13559 0.94383 0.0
H9610 H 0.82647 0.15116 0.95639 0.0
C9611 C 0.83269 0.13071 0.94843 0.0
C9612 C 0.83535 0.13323 0.95585 0.0
H9613 H 0.82632 0.13368 0.93797 0.0
H9614 H 0.83453 0.1251 0.94605 0.0
C9615 C 0.83277 0.14052 0.95877 0.0
C9616 C 0.81916 0.60492 0.9297 0.0
C9617 C 0.82543 0.60598 0.93498 0.0
H9618 H 0.81133 0.61035 0.92143 0.0
C9619 C 0.82816 0.61366 0.93642 0.0
H9620 H 0.81688 0.5991 0.92851 0.0
C9621 C 0.82499 0.62006 0.93235 0.0
C9622 C 0.81896 0.61893 0.92686 0.0
H9623 H 0.83303 0.61469 0.94037 0.0
H9624 H 0.82743 0.62588 0.9333 0.0
C9625 C 0.81594 0.61135 0.9257 0.0
C9626 C 0.31872 0.89881 0.07242 0.0
C9627 C 0.32638 0.89851 0.06939 0.0
H9628 H 0.30982 0.8929 0.07911 0.0
C9629 C 0.33083 0.89165 0.07044 0.0
H9630 H 0.3152 0.90407 0.0717 0.0
C9631 C 0.32783 0.88533 0.07473 0.0
C9632 C 0.32026 0.8857 0.078 0.0
H9633 H 0.33679 0.89131 0.06824 0.0
H9634 H 0.3315 0.88021 0.07566 0.0
C9635 C 0.31565 0.89242 0.07662 0.0
C9636 C 0.8981 0.5914 0.84048 0.0
C9637 C 0.89906 0.59924 0.84296 0.0
H9638 H 0.90059 0.57926 0.84271 0.0
C9639 C 0.90428 0.60081 0.84918 0.0
H9640 H 0.89409 0.58995 0.83576 0.0
C9641 C 0.90797 0.59467 0.85319 0.0
C9642 C 0.90658 0.58681 0.85106 0.0
H9643 H 0.90533 0.60679 0.85112 0.0
H9644 H 0.91173 0.59608 0.85813 0.0
C9645 C 0.90183 0.58525 0.84448 0.0
C9646 C 0.17986 0.11579 0.57797 0.0
C9647 C 0.18189 0.10776 0.57792 0.0
H9648 H 0.18219 0.12723 0.58269 0.0
C9649 C 0.18846 0.1053 0.58227 0.0
H9650 H 0.1748 0.11788 0.57475 0.0
C9651 C 0.19266 0.11066 0.58688 0.0
C9652 C 0.19036 0.11859 0.58726 0.0
H9653 H 0.19023 0.09918 0.58229 0.0
H9654 H 0.19746 0.1085 0.59045 0.0
C9655 C 0.18405 0.12114 0.58259 0.0
C9656 C 0.10577 0.91025 0.83517 0.0
C9657 C 0.10482 0.90209 0.83622 0.0
H9658 H 0.10271 0.92183 0.83906 0.0
C9659 C 0.09924 0.89946 0.84174 0.0
H9660 H 0.11007 0.91255 0.83109 0.0
C9661 C 0.09509 0.90481 0.8464 0.0
C9662 C 0.09633 0.91294 0.84558 0.0
H9663 H 0.09818 0.89324 0.8426 0.0
H9664 H 0.09102 0.90258 0.85075 0.0
C9665 C 0.10155 0.9156 0.83977 0.0
C9666 C 0.67787 0.39412 0.41784 0.0
C9667 C 0.68085 0.39712 0.42493 0.0
H9668 H 0.67971 0.38669 0.4079 0.0
C9669 C 0.68821 0.3945 0.42758 0.0
H9670 H 0.67218 0.39596 0.41568 0.0
C9671 C 0.69258 0.38912 0.42309 0.0
C9672 C 0.68958 0.38616 0.41596 0.0
H9673 H 0.69064 0.39675 0.43302 0.0
H9674 H 0.69827 0.38724 0.42521 0.0
C9675 C 0.68216 0.38873 0.41342 0.0
C9676 C 0.90416 0.40425 0.65572 0.0
C9677 C 0.899 0.4058 0.66199 0.0
H9678 H 0.91151 0.409 0.64669 0.0
C9679 C 0.89803 0.41364 0.66447 0.0
H9680 H 0.90523 0.39827 0.65378 0.0
C9681 C 0.9017 0.4198 0.66043 0.0
C9682 C 0.9064 0.41826 0.65381 0.0
H9683 H 0.89406 0.41509 0.66923 0.0
H9684 H 0.90046 0.42579 0.66221 0.0
C9685 C 0.90779 0.41039 0.65167 0.0
C9686 C 0.59973 0.6005 0.16952 0.0
C9687 C 0.60642 0.60411 0.16629 0.0
H9688 H 0.59021 0.59242 0.16762 0.0
C9689 C 0.60876 0.6021 0.15864 0.0
H9690 H 0.59782 0.60194 0.17542 0.0
C9691 C 0.60449 0.5967 0.15424 0.0
C9692 C 0.59772 0.59316 0.15735 0.0
H9693 H 0.614 0.60462 0.15606 0.0
H9694 H 0.6066 0.59519 0.14842 0.0
C9695 C 0.5954 0.59506 0.16507 0.0
C9696 C 0.58834 0.65488 0.84827 0.0
C9697 C 0.58889 0.65392 0.85648 0.0
H9698 H 0.59247 0.66127 0.8381 0.0
C9699 C 0.59348 0.65922 0.86082 0.0
H9700 H 0.58487 0.65084 0.84479 0.0
C9701 C 0.59776 0.66509 0.85706 0.0
C9702 C 0.59755 0.66584 0.84885 0.0
H9703 H 0.59395 0.65867 0.86716 0.0
H9704 H 0.60145 0.66892 0.86056 0.0
C9705 C 0.59267 0.66082 0.84446 0.0
C9706 C 0.58846 0.36256 0.11401 0.0
C9707 C 0.59096 0.35546 0.11063 0.0
H9708 H 0.58 0.37176 0.11409 0.0
C9709 C 0.58655 0.35213 0.10449 0.0
H9710 H 0.59163 0.36515 0.11889 0.0
C9711 C 0.57986 0.356 0.10164 0.0
C9712 C 0.57748 0.36321 0.10494 0.0
H9713 H 0.58836 0.34663 0.10183 0.0
H9714 H 0.57663 0.35343 0.09679 0.0
C9715 C 0.5818 0.36636 0.11123 0.0
C9716 C 0.92835 0.3201 0.38917 0.0
C9717 C 0.92913 0.32831 0.38928 0.0
H9718 H 0.92285 0.31014 0.38368 0.0
C9719 C 0.92539 0.33284 0.38351 0.0
H9720 H 0.93115 0.31653 0.39364 0.0
C9721 C 0.92067 0.32924 0.37786 0.0
C9722 C 0.91956 0.32103 0.3779 0.0
H9723 H 0.92589 0.33919 0.38355 0.0
H9724 H 0.91772 0.33292 0.37358 0.0
C9725 C 0.92363 0.31646 0.38347 0.0
C9726 C 0.90892 0.65328 0.61177 0.0
C9727 C 0.9099 0.66026 0.61608 0.0
H9728 H 0.91445 0.64393 0.60546 0.0
C9729 C 0.91738 0.66373 0.61641 0.0
H9730 H 0.9032 0.65056 0.61124 0.0
C9731 C 0.92386 0.6599 0.61309 0.0
C9732 C 0.92296 0.65256 0.60939 0.0
H9733 H 0.91832 0.66911 0.61969 0.0
H9734 H 0.92963 0.66242 0.61391 0.0
C9735 C 0.91537 0.64948 0.60846 0.0
C9736 C 0.5924 0.34564 0.64488 0.0
C9737 C 0.58812 0.3513 0.64908 0.0
H9738 H 0.59997 0.33562 0.64541 0.0
C9739 C 0.58768 0.35071 0.65733 0.0
H9740 H 0.59279 0.34593 0.63852 0.0
C9741 C 0.59181 0.34474 0.6613 0.0
C9742 C 0.59637 0.33932 0.65704 0.0
H9743 H 0.58446 0.35505 0.6607 0.0
H9744 H 0.59174 0.34457 0.66768 0.0
C9745 C 0.59648 0.33973 0.64881 0.0
C9746 C 0.91492 0.35062 0.8827 0.0
C9747 C 0.91099 0.34479 0.88699 0.0
H9748 H 0.9242 0.35902 0.88247 0.0
C9749 C 0.91385 0.34258 0.89443 0.0
H9750 H 0.91292 0.35232 0.87689 0.0
C9751 C 0.92036 0.34647 0.89767 0.0
C9752 C 0.92403 0.35258 0.89348 0.0
H9753 H 0.91089 0.33807 0.89782 0.0
H9754 H 0.92233 0.34493 0.90353 0.0
C9755 C 0.92137 0.35445 0.88589 0.0
C9756 C 0.92015 0.67676 0.1146 0.0
C9757 C 0.9283 0.67784 0.1147 0.0
H9758 H 0.90914 0.67941 0.11997 0.0
C9759 C 0.93159 0.6829 0.12037 0.0
H9760 H 0.91744 0.67284 0.11036 0.0
C9761 C 0.92682 0.68665 0.12593 0.0
C9762 C 0.91869 0.68534 0.12596 0.0
H9763 H 0.93786 0.6839 0.12054 0.0
H9764 H 0.92951 0.69037 0.13034 0.0
C9765 C 0.9154 0.68045 0.12016 0.0
C9766 C 0.59185 0.6433 0.40027 0.0
C9767 C 0.59119 0.65039 0.39606 0.0
H9768 H 0.58587 0.63395 0.40616 0.0
C9769 C 0.5838 0.65402 0.39551 0.0
H9770 H 0.59748 0.64045 0.40099 0.0
C9771 C 0.57712 0.65029 0.39849 0.0
C9772 C 0.57772 0.64285 0.40208 0.0
H9773 H 0.58309 0.65948 0.39229 0.0
H9774 H 0.57144 0.65296 0.3975 0.0
C9775 C 0.58519 0.63958 0.40324 0.0
C9776 C 0.89344 0.57114 0.68928 0.0
C9777 C 0.90079 0.57007 0.69286 0.0
H9778 H 0.88224 0.57677 0.68978 0.0
C9779 C 0.90213 0.57347 0.70029 0.0
H9780 H 0.89223 0.56866 0.68353 0.0
C9781 C 0.89643 0.5782 0.70383 0.0
C9782 C 0.88926 0.57966 0.70001 0.0
H9783 H 0.90771 0.57269 0.70324 0.0
H9784 H 0.89781 0.58105 0.70936 0.0
C9785 C 0.88774 0.57587 0.69282 0.0
C9786 C 0.6769 0.64019 0.93498 0.0
C9787 C 0.6794 0.63924 0.92716 0.0
H9788 H 0.67019 0.6354 0.94452 0.0
C9789 C 0.6774 0.63236 0.92307 0.0
H9790 H 0.67835 0.64549 0.9382 0.0
C9791 C 0.67268 0.62668 0.92661 0.0
C9792 C 0.66993 0.62772 0.93434 0.0
H9793 H 0.6792 0.63157 0.91701 0.0
H9794 H 0.67101 0.62154 0.92323 0.0
C9795 C 0.67227 0.63442 0.93858 0.0
C9796 C 0.59851 0.43824 0.19632 0.0
C9797 C 0.59958 0.44216 0.1891 0.0
H9798 H 0.60337 0.43041 0.20489 0.0
C9799 C 0.60695 0.44178 0.18543 0.0
H9800 H 0.59293 0.43849 0.19935 0.0
C9801 C 0.61297 0.43722 0.18866 0.0
C9802 C 0.61175 0.43292 0.19562 0.0
H9803 H 0.60797 0.44467 0.17984 0.0
H9804 H 0.6185 0.43688 0.18555 0.0
C9805 C 0.60453 0.43367 0.19954 0.0
C9806 C 0.83757 0.40643 0.40571 0.0
C9807 C 0.83945 0.39869 0.40342 0.0
H9808 H 0.84054 0.41623 0.41321 0.0
C9809 C 0.84542 0.39468 0.40746 0.0
H9810 H 0.833 0.40965 0.40268 0.0
C9811 C 0.84966 0.39839 0.41339 0.0
C9812 C 0.84806 0.40622 0.41547 0.0
H9813 H 0.8469 0.38867 0.40594 0.0
H9814 H 0.85432 0.39515 0.41627 0.0
C9815 C 0.84186 0.41018 0.41171 0.0
C9816 C 0.90199 0.43155 0.80486 0.0
C9817 C 0.90063 0.43498 0.81227 0.0
H9818 H 0.8977 0.42393 0.79581 0.0
C9819 C 0.89325 0.43395 0.81582 0.0
H9820 H 0.90758 0.43231 0.80192 0.0
C9821 C 0.88756 0.42922 0.81228 0.0
C9822 C 0.88911 0.42539 0.80511 0.0
H9823 H 0.89201 0.43645 0.82155 0.0
H9824 H 0.88204 0.42835 0.8153 0.0
C9825 C 0.89629 0.42681 0.80131 0.0
C9826 C 0.83661 0.59798 0.09888 0.0
C9827 C 0.83885 0.60542 0.10175 0.0
H9828 H 0.83935 0.58841 0.09101 0.0
C9829 C 0.84547 0.60909 0.09847 0.0
H9830 H 0.83154 0.595 0.10129 0.0
C9831 C 0.8499 0.60535 0.09269 0.0
C9832 C 0.84783 0.59784 0.08995 0.0
H9833 H 0.84726 0.6149 0.10037 0.0
H9834 H 0.85498 0.60837 0.09033 0.0
C9835 C 0.84107 0.59421 0.09301 0.0
C9836 C 0.60661 0.56336 0.3198 0.0
C9837 C 0.59926 0.56296 0.3161 0.0
H9838 H 0.61815 0.5683 0.31972 0.0
C9839 C 0.59821 0.56686 0.30887 0.0
H9840 H 0.60761 0.56049 0.3254 0.0
C9841 C 0.60423 0.57143 0.30566 0.0
C9842 C 0.61143 0.57222 0.30961 0.0
H9843 H 0.59264 0.5666 0.30583 0.0
H9844 H 0.60309 0.57468 0.3003 0.0
C9845 C 0.61263 0.56793 0.31659 0.0
C9846 C 0.67917 0.36626 0.56983 0.0
C9847 C 0.68009 0.3662 0.57803 0.0
H9848 H 0.67333 0.3715 0.55994 0.0
C9849 C 0.67624 0.37188 0.58258 0.0
H9850 H 0.68202 0.36184 0.56624 0.0
C9851 C 0.67132 0.3774 0.57903 0.0
C9852 C 0.67006 0.37729 0.57084 0.0
H9853 H 0.67683 0.37188 0.58893 0.0
H9854 H 0.66835 0.38164 0.58274 0.0
C9855 C 0.67421 0.37179 0.56625 0.0
C9856 C 0.66596 0.87307 0.59941 0.0
C9857 C 0.66125 0.86839 0.59454 0.0
H9858 H 0.6758 0.87357 0.60714 0.0
C9859 C 0.66332 0.86049 0.59323 0.0
H9860 H 0.66452 0.8792 0.60042 0.0
C9861 C 0.66982 0.85723 0.59713 0.0
C9862 C 0.67426 0.86187 0.60232 0.0
H9863 H 0.65973 0.85679 0.5895 0.0
H9864 H 0.67117 0.85105 0.59636 0.0
C9865 C 0.67239 0.86985 0.60324 0.0
C9866 C 0.16771 0.63833 0.41404 0.0
C9867 C 0.16016 0.639 0.4108 0.0
H9868 H 0.17998 0.6406 0.41254 0.0
C9869 C 0.1591 0.64367 0.40406 0.0
H9870 H 0.16872 0.63475 0.41922 0.0
C9871 C 0.16553 0.64702 0.40026 0.0
C9872 C 0.17316 0.64577 0.4031 0.0
H9873 H 0.15333 0.64446 0.40152 0.0
H9874 H 0.16454 0.65031 0.39488 0.0
C9875 C 0.17417 0.64169 0.41022 0.0
C9876 C 0.65174 0.95049 0.68144 0.0
C9877 C 0.6504 0.94312 0.68497 0.0
H9878 H 0.64737 0.95949 0.67381 0.0
C9879 C 0.64299 0.9396 0.6841 0.0
H9880 H 0.65735 0.95341 0.68208 0.0
C9881 C 0.63724 0.94314 0.67944 0.0
C9882 C 0.63875 0.95026 0.67551 0.0
H9883 H 0.64176 0.93391 0.68667 0.0
H9884 H 0.63168 0.94015 0.6787 0.0
C9885 C 0.64599 0.95402 0.67677 0.0
C9886 C 0.33708 0.35397 0.90275 0.0
C9887 C 0.34054 0.36106 0.90027 0.0
H9888 H 0.32792 0.34549 0.90071 0.0
C9889 C 0.33703 0.36537 0.89418 0.0
H9890 H 0.33969 0.35057 0.90746 0.0
C9891 C 0.33038 0.36254 0.89042 0.0
C9892 C 0.32708 0.3553 0.8926 0.0
H9893 H 0.33949 0.37093 0.89228 0.0
H9894 H 0.32785 0.36602 0.88571 0.0
C9895 C 0.33038 0.35109 0.89891 0.0
C9896 C 0.34828 0.55874 0.68844 0.0
C9897 C 0.34934 0.56605 0.69218 0.0
H9898 H 0.35309 0.55004 0.68072 0.0
C9899 C 0.35667 0.56979 0.69159 0.0
H9900 H 0.34272 0.55569 0.68885 0.0
C9901 C 0.36262 0.56653 0.68698 0.0
C9902 C 0.3614 0.55946 0.68285 0.0
H9903 H 0.35766 0.57545 0.69434 0.0
H9904 H 0.36811 0.56969 0.68644 0.0
C9905 C 0.35425 0.55547 0.68384 0.0
C9906 C 0.83534 0.13876 0.10817 0.0
C9907 C 0.84019 0.14398 0.10406 0.0
H9908 H 0.82513 0.13735 0.1153 0.0
C9909 C 0.83808 0.15195 0.10348 0.0
H9910 H 0.83685 0.13258 0.10864 0.0
C9911 C 0.83133 0.15471 0.10733 0.0
C9912 C 0.82671 0.1495 0.11178 0.0
H9913 H 0.8418 0.15605 0.10035 0.0
H9914 H 0.82993 0.16092 0.10714 0.0
C9915 C 0.82866 0.14149 0.11198 0.0
C9916 C 0.64339 0.06559 0.82093 0.0
C9917 C 0.65079 0.06207 0.81999 0.0
H9918 H 0.6321 0.06501 0.82639 0.0
C9919 C 0.65214 0.05466 0.82344 0.0
H9920 H 0.64216 0.07131 0.81841 0.0
C9921 C 0.6464 0.05109 0.8281 0.0
C9922 C 0.63918 0.05485 0.82943 0.0
H9923 H 0.65775 0.05175 0.82275 0.0
H9924 H 0.64778 0.04558 0.831 0.0
C9925 C 0.63765 0.06202 0.82558 0.0
C9926 C 0.85667 0.93567 0.31332 0.0
C9927 C 0.84927 0.93927 0.31292 0.0
H9928 H 0.86819 0.93588 0.31828 0.0
C9929 C 0.84812 0.94647 0.31684 0.0
H9930 H 0.85776 0.9301 0.31043 0.0
C9931 C 0.85408 0.94974 0.32145 0.0
C9932 C 0.86133 0.94588 0.32223 0.0
H9933 H 0.84251 0.94945 0.31657 0.0
H9934 H 0.85286 0.95507 0.32471 0.0
C9935 C 0.86264 0.93894 0.31791 0.0
C9936 C 0.42256 0.31995 0.11862 0.0
C9937 C 0.42502 0.31628 0.11164 0.0
H9938 H 0.41565 0.31901 0.1291 0.0
C9939 C 0.42302 0.30838 0.11031 0.0
H9940 H 0.42398 0.32606 0.11974 0.0
C9941 C 0.41828 0.30434 0.11566 0.0
C9942 C 0.41537 0.30815 0.12239 0.0
H9943 H 0.42486 0.30544 0.10496 0.0
H9944 H 0.4165 0.29838 0.11426 0.0
C9945 C 0.41775 0.31593 0.12393 0.0
C9946 C 0.43383 0.67799 0.86477 0.0
C9947 C 0.43203 0.67501 0.85725 0.0
H9948 H 0.43947 0.6758 0.8759 0.0
C9949 C 0.43535 0.66779 0.85494 0.0
H9950 H 0.43133 0.6835 0.86677 0.0
C9951 C 0.43997 0.66344 0.86014 0.0
C9952 C 0.44142 0.66624 0.86775 0.0
H9953 H 0.4342 0.66537 0.84915 0.0
H9954 H 0.44216 0.65773 0.85833 0.0
C9955 C 0.43846 0.6736 0.87 0.0
C9956 C 0.07809 0.69357 0.61948 0.0
C9957 C 0.0756 0.69648 0.61217 0.0
H9958 H 0.08497 0.69564 0.62981 0.0
C9959 C 0.07752 0.70422 0.61004 0.0
H9960 H 0.07674 0.68758 0.62121 0.0
C9961 C 0.0822 0.70885 0.61495 0.0
C9962 C 0.08516 0.70577 0.62203 0.0
H9963 H 0.07568 0.70656 0.6044 0.0
H9964 H 0.08392 0.71464 0.61294 0.0
C9965 C 0.08284 0.69816 0.62436 0.0
C9966 C 0.08041 0.3202 0.3636 0.0
C9967 C 0.07616 0.3195 0.35656 0.0
H9968 H 0.08089 0.32512 0.37518 0.0
C9969 C 0.06865 0.32287 0.35608 0.0
H9970 H 0.08625 0.31774 0.36409 0.0
C9971 C 0.06555 0.32706 0.36245 0.0
C9972 C 0.06997 0.32808 0.36935 0.0
H9973 H 0.06527 0.32242 0.3507 0.0
H9974 H 0.05986 0.32982 0.36184 0.0
C9975 C 0.07737 0.32447 0.36991 0.0
C9976 C 0.42266 0.68532 0.38663 0.0
C9977 C 0.42503 0.68888 0.3937 0.0
H9978 H 0.41584 0.68639 0.37609 0.0
C9979 C 0.42295 0.69675 0.39512 0.0
H9980 H 0.42413 0.67924 0.38541 0.0
C9981 C 0.41822 0.70084 0.38981 0.0
C9982 C 0.41541 0.69712 0.38299 0.0
H9983 H 0.42474 0.69964 0.40051 0.0
H9984 H 0.41638 0.70676 0.39129 0.0
C9985 C 0.41787 0.68939 0.38134 0.0
C9986 C 0.07192 0.67732 0.15135 0.0
C9987 C 0.07598 0.68446 0.15032 0.0
H9988 H 0.06615 0.66759 0.1458 0.0
C9989 C 0.07627 0.6878 0.14273 0.0
H9990 H 0.07135 0.67467 0.15711 0.0
C9991 C 0.07306 0.68381 0.13627 0.0
C9992 C 0.06958 0.67641 0.13731 0.0
H9993 H 0.07938 0.69325 0.14169 0.0
H9994 H 0.07371 0.68628 0.13043 0.0
C9995 C 0.06885 0.67329 0.1449 0.0
C9996 C 0.07793 0.31131 0.88567 0.0
C9997 C 0.07564 0.30848 0.89308 0.0
H9998 H 0.08468 0.30919 0.87525 0.0
C9999 C 0.07774 0.30081 0.8953 0.0
H10000 H 0.07643 0.31724 0.88386 0.0
C10001 C 0.08243 0.2962 0.89039 0.0
C10002 C 0.0852 0.29921 0.8832 0.0
H10003 H 0.07604 0.29852 0.901 0.0
H10004 H 0.0843 0.29047 0.89246 0.0
C10005 C 0.0827 0.30673 0.88078 0.0
C10006 C 0.43805 0.33453 0.65001 0.0
C10007 C 0.43298 0.32866 0.64713 0.0
H10008 H 0.44602 0.34389 0.64724 0.0
C10009 C 0.43257 0.32745 0.63894 0.0
H10010 H 0.43859 0.33557 0.65628 0.0
C10011 C 0.43683 0.33225 0.63377 0.0
C10012 C 0.44168 0.33826 0.63669 0.0
H10013 H 0.42869 0.32304 0.63651 0.0
H10014 H 0.4362 0.33138 0.62749 0.0
C10015 C 0.44237 0.33925 0.64485 0.0
C10016 C 0.15443 0.40634 0.3508 0.0
C10017 C 0.14896 0.41235 0.34926 0.0
H10018 H 0.16201 0.39752 0.34601 0.0
C10019 C 0.14764 0.4146 0.3414 0.0
H10020 H 0.15576 0.40458 0.35678 0.0
C10021 C 0.15131 0.41059 0.33523 0.0
C10022 C 0.15634 0.40423 0.33677 0.0
H10023 H 0.14342 0.41913 0.33997 0.0
H10024 H 0.14983 0.41217 0.32924 0.0
C10025 C 0.15805 0.4023 0.34463 0.0
C10026 C 0.32784 0.36944 0.06128 0.0
C10027 C 0.32567 0.36197 0.05853 0.0
H10028 H 0.33447 0.37992 0.0591 0.0
C10029 C 0.3279 0.35968 0.05091 0.0
H10030 H 0.32624 0.37133 0.06716 0.0
C10031 C 0.3326 0.36458 0.0463 0.0
C10032 C 0.33523 0.37184 0.04925 0.0
H10033 H 0.32627 0.35395 0.04865 0.0
H10034 H 0.33457 0.36246 0.04062 0.0
C10035 C 0.3326 0.37433 0.05669 0.0
C10036 C 0.3548 0.58559 0.84609 0.0
C10037 C 0.3549 0.58761 0.85411 0.0
H10038 H 0.35091 0.58862 0.83451 0.0
C10039 C 0.35012 0.59385 0.85669 0.0
H10040 H 0.35845 0.58087 0.84387 0.0
C10041 C 0.34583 0.59832 0.85131 0.0
C10042 C 0.34617 0.59664 0.84323 0.0
H10043 H 0.34988 0.59545 0.86286 0.0
H10044 H 0.34243 0.60326 0.85346 0.0
C10045 C 0.35047 0.59005 0.84071 0.0
C10046 C 0.17283 0.63642 0.56928 0.0
C10047 C 0.17491 0.64368 0.56592 0.0
H10048 H 0.16637 0.62568 0.568 0.0
C10049 C 0.1726 0.64528 0.55814 0.0
H10050 H 0.17446 0.63501 0.57527 0.0
C10051 C 0.1679 0.63997 0.554 0.0
C10052 C 0.16541 0.63293 0.55754 0.0
H10053 H 0.1742 0.65078 0.55534 0.0
H10054 H 0.16587 0.64161 0.54818 0.0
C10055 C 0.16812 0.6311 0.56514 0.0
C10056 C 0.15418 0.5911 0.15958 0.0
C10057 C 0.14723 0.59403 0.15622 0.0
H10058 H 0.16331 0.59298 0.16812 0.0
C10059 C 0.14391 0.60095 0.15925 0.0
H10060 H 0.15683 0.58575 0.15734 0.0
C10061 C 0.14754 0.605 0.16534 0.0
C10062 C 0.15463 0.60228 0.16855 0.0
H10063 H 0.13847 0.60324 0.1569 0.0
H10064 H 0.14477 0.61029 0.16755 0.0
C10065 C 0.15786 0.59521 0.16572 0.0
C10066 C 0.17223 0.36847 0.93476 0.0
C10067 C 0.17502 0.36171 0.93857 0.0
H10068 H 0.16501 0.37876 0.93557 0.0
C10069 C 0.17329 0.36056 0.94656 0.0
H10070 H 0.17344 0.36943 0.92857 0.0
C10071 C 0.1685 0.36589 0.95058 0.0
C10072 C 0.16526 0.37239 0.94664 0.0
H10073 H 0.17535 0.35534 0.94959 0.0
H10074 H 0.16694 0.36462 0.95663 0.0
C10075 C 0.16737 0.37376 0.93875 0.0
C10076 C 0.35955 0.4109 0.65613 0.0
C10077 C 0.35637 0.41725 0.65191 0.0
H10078 H 0.35761 0.40178 0.66453 0.0
C10079 C 0.34859 0.41955 0.6534 0.0
H10080 H 0.36558 0.4091 0.65523 0.0
C10081 C 0.34398 0.41533 0.65881 0.0
C10082 C 0.34714 0.40878 0.66274 0.0
H10083 H 0.34602 0.42444 0.65023 0.0
H10084 H 0.33793 0.41701 0.65973 0.0
C10085 C 0.355 0.40672 0.66146 0.0
C10086 C 0.32859 0.64599 0.4542 0.0
C10087 C 0.32604 0.64355 0.44672 0.0
H10088 H 0.3355 0.64332 0.46435 0.0
C10089 C 0.32789 0.63591 0.44416 0.0
H10090 H 0.32717 0.6518 0.45638 0.0
C10091 C 0.33261 0.631 0.44877 0.0
C10092 C 0.33555 0.63363 0.45604 0.0
H10093 H 0.32607 0.63386 0.43841 0.0
H10094 H 0.33418 0.62525 0.44652 0.0
C10095 C 0.33329 0.64109 0.45881 0.0
C10096 C 0.33079 0.11295 0.43546 0.0
C10097 C 0.32649 0.10592 0.43597 0.0
H10098 H 0.33144 0.12458 0.43066 0.0
C10099 C 0.31907 0.1055 0.43242 0.0
H10100 H 0.33657 0.1134 0.43806 0.0
C10101 C 0.31611 0.11192 0.4282 0.0
C10102 C 0.3206 0.11881 0.42737 0.0
H10103 H 0.31565 0.10014 0.43273 0.0
H10104 H 0.31049 0.11137 0.42529 0.0
C10105 C 0.32789 0.11932 0.43117 0.0
C10106 C 0.82212 0.40126 0.5783 0.0
C10107 C 0.82586 0.40032 0.57097 0.0
H10108 H 0.81663 0.39562 0.58813 0.0
C10109 C 0.82583 0.39282 0.56744 0.0
H10110 H 0.82179 0.40697 0.58111 0.0
C10111 C 0.82262 0.38634 0.57141 0.0
C10112 C 0.81949 0.38727 0.57898 0.0
H10113 H 0.82867 0.39183 0.56183 0.0
H10114 H 0.823 0.38055 0.56878 0.0
C10115 C 0.81909 0.39479 0.58231 0.0
C10116 C 0.39581 0.0977 0.35205 0.0
C10117 C 0.3979 0.0994 0.34424 0.0
H10118 H 0.39743 0.09033 0.36203 0.0
C10119 C 0.40365 0.09476 0.34054 0.0
H10120 H 0.39126 0.10103 0.355 0.0
C10121 C 0.40731 0.08861 0.34465 0.0
C10122 C 0.40523 0.08696 0.3525 0.0
H10123 H 0.40536 0.09595 0.33452 0.0
H10124 H 0.4118 0.0852 0.34171 0.0
C10125 C 0.39939 0.09156 0.3561 0.0
C10126 C 0.67829 0.60886 0.0875 0.0
C10127 C 0.68071 0.6071 0.0798 0.0
H10128 H 0.68032 0.61553 0.09793 0.0
C10129 C 0.68727 0.61102 0.07666 0.0
H10130 H 0.67321 0.60601 0.09004 0.0
C10131 C 0.69139 0.61653 0.08123 0.0
C10132 C 0.6889 0.6183 0.08893 0.0
H10133 H 0.68925 0.60976 0.07074 0.0
H10134 H 0.69645 0.61947 0.07873 0.0
C10135 C 0.68232 0.61438 0.09199 0.0
C10136 C 0.60001 0.40531 0.33566 0.0
C10137 C 0.60588 0.40071 0.33921 0.0
H10138 H 0.59114 0.41412 0.33727 0.0
C10139 C 0.60727 0.40157 0.3473 0.0
H10140 H 0.59878 0.40475 0.32943 0.0
C10141 C 0.60299 0.40694 0.35175 0.0
C10142 C 0.59712 0.41159 0.34826 0.0
H10143 H 0.61188 0.39827 0.35019 0.0
H10144 H 0.60449 0.40762 0.3579 0.0
C10145 C 0.59565 0.41068 0.34015 0.0
C10146 C 0.18132 0.88952 0.92727 0.0
C10147 C 0.18245 0.89768 0.92657 0.0
H10148 H 0.18469 0.87802 0.92334 0.0
C10149 C 0.18848 0.90045 0.92164 0.0
H10150 H 0.1767 0.88718 0.93096 0.0
C10151 C 0.19302 0.8952 0.91724 0.0
C10152 C 0.19163 0.88706 0.91765 0.0
H10153 H 0.18957 0.90669 0.92103 0.0
H10154 H 0.19738 0.89755 0.91324 0.0
C10155 C 0.18585 0.88427 0.92285 0.0
C10156 C 0.39744 0.91371 0.16431 0.0
C10157 C 0.39875 0.90583 0.16213 0.0
H10158 H 0.39965 0.92585 0.16179 0.0
C10159 C 0.40423 0.90423 0.15614 0.0
H10160 H 0.39322 0.91518 0.16882 0.0
C10161 C 0.40786 0.91037 0.15205 0.0
C10162 C 0.40616 0.91823 0.15392 0.0
H10163 H 0.40556 0.89824 0.15443 0.0
H10164 H 0.41182 0.90895 0.14728 0.0
C10165 C 0.40113 0.91984 0.16026 0.0
C10166 C 0.0994 0.10093 0.66913 0.0
C10167 C 0.10662 0.10378 0.66633 0.0
H10168 H 0.08946 0.09346 0.66683 0.0
C10169 C 0.10954 0.10094 0.65915 0.0
H10170 H 0.09703 0.10302 0.67467 0.0
C10171 C 0.10528 0.09554 0.65475 0.0
C10172 C 0.09795 0.09284 0.65737 0.0
H10173 H 0.11518 0.10286 0.65695 0.0
H10174 H 0.10776 0.09344 0.64927 0.0
C10175 C 0.09508 0.09548 0.66467 0.0
loop_
_geom_bond_atom_site_label_1
_geom_bond_atom_site_label_2
_geom_bond_distance
_geom_bond_site_symmetry_2
_ccdc_geom_bond_type
C0 C1 1.264 . S
C0 C5 1.479 . S
C0 C10 1.465 . S
C1 C0 1.264 . S
C1 C3 1.339 . S
C1 H28 0.931 . S
C2 C3 1.395 . S
C2 C4 1.320 . S
C3 C1 1.339 . S
C3 C2 1.395 . S
C3 H29 0.929 . S
C4 C2 1.320 . S
C4 C5 1.405 . S
C4 H30 0.930 . S
C5 C0 1.479 . S
C5 C4 1.405 . S
C5 H31 0.931 . S
U6 O7 2.454 . S
U6 O8 2.458 . S
U6 C9 2.984 . S
U6 C10 2.847 . S
U6 C23 2.882 . S
U6 O24 2.441 . S
U6 O25 2.420 . S
U6 O26 2.455 . S
U6 O27 2.449 . S
O7 U6 2.454 . S
O7 C9 1.353 . S
O8 U6 2.458 . S
O8 C9 1.286 . S
C9 U6 2.984 . S
C9 O7 1.353 . S
C9 O8 1.286 . S
C9 C11 1.363 . S
C10 C0 1.465 . S
C10 U6 2.847 . S
C10 O24 1.249 . S
C10 O25 1.202 . S
C11 C9 1.363 . S
C11 C13 1.408 . S
C11 C16 1.342 . S
C12 C13 1.310 . S
C12 C15 1.461 . S
C12 H32 0.932 . S
C13 C11 1.408 . S
C13 C12 1.310 . S
C13 H33 0.930 . S
C14 C15 1.474 . S
C14 C16 1.285 . S
C14 H34 0.929 . S
C15 C12 1.461 . S
C15 C14 1.474 . S
C16 C11 1.342 . S
C16 C14 1.285 . S
C16 H35 0.930 . S
C17 C20 1.424 . S
C17 C22 1.245 . S
C17 C23 1.428 . S
C18 C21 1.260 . S
C18 C22 1.477 . S
C18 H36 0.932 . S
C19 C20 1.384 . S
C19 C21 1.479 . S
C19 H37 0.929 . S
C20 C17 1.424 . S
C20 C19 1.384 . S
C20 H38 0.928 . S
C21 C18 1.260 . S
C21 C19 1.479 . S
C22 C17 1.245 . S
C22 C18 1.477 . S
C22 H39 0.932 . S
C23 U6 2.882 . S
C23 C17 1.428 . S
C23 O26 1.301 . S
C23 O27 1.282 . S
O24 U6 2.441 . S
O24 C10 1.249 . S
O25 U6 2.420 . S
O25 C10 1.202 . S
O26 U6 2.455 . S
O26 C23 1.301 . S
O27 U6 2.449 . S
O27 C23 1.282 . S
H28 C1 0.931 . S
H29 C3 0.929 . S
H30 C4 0.930 . S
H31 C5 0.931 . S
H32 C12 0.932 . S
H33 C13 0.930 . S
H34 C14 0.929 . S
H35 C16 0.930 . S
H36 C18 0.932 . S
H37 C19 0.929 . S
H38 C20 0.928 . S
H39 C22 0.932 . S
C40 C41 1.264 . S
C40 C45 1.479 . S
C40 C50 1.465 . S
C41 C40 1.264 . S
C41 C43 1.339 . S
C41 H68 0.931 . S
C42 C43 1.395 . S
C42 C44 1.320 . S
C43 C41 1.339 . S
C43 C42 1.395 . S
C43 H69 0.929 . S
C44 C42 1.320 . S
C44 C45 1.405 . S
C44 H70 0.930 . S
C45 C40 1.479 . S
C45 C44 1.405 . S
C45 H71 0.931 . S
U46 O47 2.454 . S
U46 O48 2.458 . S
U46 C49 2.984 . S
U46 C50 2.847 . S
U46 C63 2.882 . S
U46 O64 2.441 . S
U46 O65 2.420 . S
U46 O66 2.455 . S
U46 O67 2.449 . S
O47 U46 2.454 . S
O47 C49 1.353 . S
O48 U46 2.458 . S
O48 C49 1.286 . S
C49 U46 2.984 . S
C49 O47 1.353 . S
C49 O48 1.286 . S
C49 C51 1.363 . S
C50 C40 1.465 . S
C50 U46 2.847 . S
C50 O64 1.249 . S
C50 O65 1.202 . S
C51 C49 1.363 . S
C51 C53 1.408 . S
C51 C56 1.342 . S
C52 C53 1.310 . S
C52 C55 1.461 . S
C52 H72 0.932 . S
C53 C51 1.408 . S
C53 C52 1.310 . S
C53 H73 0.930 . S
C54 C55 1.474 . S
C54 C56 1.285 . S
C54 H74 0.929 . S
C55 C52 1.461 . S
C55 C54 1.474 . S
C56 C51 1.342 . S
C56 C54 1.285 . S
C56 H75 0.930 . S
C57 C60 1.424 . S
C57 C62 1.245 . S
C57 C63 1.428 . S
C58 C61 1.260 . S
C58 C62 1.477 . S
C58 H76 0.932 . S
C59 C60 1.384 . S
C59 C61 1.479 . S
C59 H77 0.929 . S
C60 C57 1.424 . S
C60 C59 1.384 . S
C60 H78 0.928 . S
C61 C58 1.260 . S
C61 C59 1.479 . S
C62 C57 1.245 . S
C62 C58 1.477 . S
C62 H79 0.932 . S
C63 U46 2.882 . S
C63 C57 1.428 . S
C63 O66 1.301 . S
C63 O67 1.282 . S
O64 U46 2.441 . S
O64 C50 1.249 . S
O65 U46 2.420 . S
O65 C50 1.202 . S
O66 U46 2.455 . S
O66 C63 1.301 . S
O67 U46 2.449 . S
O67 C63 1.282 . S
H68 C41 0.931 . S
H69 C43 0.929 . S
H70 C44 0.930 . S
H71 C45 0.931 . S
H72 C52 0.932 . S
H73 C53 0.930 . S
H74 C54 0.929 . S
H75 C56 0.930 . S
H76 C58 0.932 . S
H77 C59 0.929 . S
H78 C60 0.928 . S
H79 C62 0.932 . S
C80 C81 1.264 . S
C80 C85 1.479 . S
C80 C90 1.465 . S
C81 C80 1.264 . S
C81 C83 1.339 . S
C81 H108 0.931 . S
C82 C83 1.395 . S
C82 C84 1.320 . S
C83 C81 1.339 . S
C83 C82 1.395 . S
C83 H109 0.929 . S
C84 C82 1.320 . S
C84 C85 1.405 . S
C84 H110 0.930 . S
C85 C80 1.479 . S
C85 C84 1.405 . S
C85 H111 0.931 . S
U86 O87 2.454 . S
U86 O88 2.458 . S
U86 C89 2.984 . S
U86 C90 2.847 . S
U86 C103 2.882 . S
U86 O104 2.441 . S
U86 O105 2.420 . S
U86 O106 2.455 . S
U86 O107 2.449 . S
O87 U86 2.454 . S
O87 C89 1.353 . S
O88 U86 2.458 . S
O88 C89 1.286 . S
C89 U86 2.984 . S
C89 O87 1.353 . S
C89 O88 1.286 . S
C89 C91 1.363 . S
C90 C80 1.465 . S
C90 U86 2.847 . S
C90 O104 1.249 . S
C90 O105 1.202 . S
C91 C89 1.363 . S
C91 C93 1.408 . S
C91 C96 1.342 . S
C92 C93 1.310 . S
C92 C95 1.461 . S
C92 H112 0.932 . S
C93 C91 1.408 . S
C93 C92 1.310 . S
C93 H113 0.930 . S
C94 C95 1.474 . S
C94 C96 1.285 . S
C94 H114 0.929 . S
C95 C92 1.461 . S
C95 C94 1.474 . S
C96 C91 1.342 . S
C96 C94 1.285 . S
C96 H115 0.930 . S
C97 C100 1.424 . S
C97 C102 1.245 . S
C97 C103 1.428 . S
C98 C101 1.260 . S
C98 C102 1.477 . S
C98 H116 0.932 . S
C99 C100 1.384 . S
C99 C101 1.479 . S
C99 H117 0.929 . S
C100 C97 1.424 . S
C100 C99 1.384 . S
C100 H118 0.928 . S
C101 C98 1.260 . S
C101 C99 1.479 . S
C102 C97 1.245 . S
C102 C98 1.477 . S
C102 H119 0.932 . S
C103 U86 2.882 . S
C103 C97 1.428 . S
C103 O106 1.301 . S
C103 O107 1.282 . S
O104 U86 2.441 . S
O104 C90 1.249 . S
O105 U86 2.420 . S
O105 C90 1.202 . S
O106 U86 2.455 . S
O106 C103 1.301 . S
O107 U86 2.449 . S
O107 C103 1.282 . S
H108 C81 0.931 . S
H109 C83 0.929 . S
H110 C84 0.930 . S
H111 C85 0.931 . S
H112 C92 0.932 . S
H113 C93 0.930 . S
H114 C94 0.929 . S
H115 C96 0.930 . S
H116 C98 0.932 . S
H117 C99 0.929 . S
H118 C100 0.928 . S
H119 C102 0.932 . S
C120 C121 1.264 . S
C120 C125 1.479 . S
C120 C130 1.465 . S
C121 C120 1.264 . S
C121 C123 1.339 . S
C121 H148 0.931 . S
C122 C123 1.395 . S
C122 C124 1.320 . S
C123 C121 1.339 . S
C123 C122 1.395 . S
C123 H149 0.929 . S
C124 C122 1.320 . S
C124 C125 1.405 . S
C124 H150 0.930 . S
C125 C120 1.479 . S
C125 C124 1.405 . S
C125 H151 0.931 . S
U126 O127 2.454 . S
U126 O128 2.458 . S
U126 C129 2.984 . S
U126 C130 2.847 . S
U126 C143 2.882 . S
U126 O144 2.441 . S
U126 O145 2.420 . S
U126 O146 2.455 . S
U126 O147 2.449 . S
O127 U126 2.454 . S
O127 C129 1.353 . S
O128 U126 2.458 . S
O128 C129 1.286 . S
C129 U126 2.984 . S
C129 O127 1.353 . S
C129 O128 1.286 . S
C129 C131 1.363 . S
C130 C120 1.465 . S
C130 U126 2.847 . S
C130 O144 1.249 . S
C130 O145 1.202 . S
C131 C129 1.363 . S
C131 C133 1.408 . S
C131 C136 1.342 . S
C132 C133 1.310 . S
C132 C135 1.461 . S
C132 H152 0.932 . S
C133 C131 1.408 . S
C133 C132 1.310 . S
C133 H153 0.930 . S
C134 C135 1.474 . S
C134 C136 1.285 . S
C134 H154 0.929 . S
C135 C132 1.461 . S
C135 C134 1.474 . S
C136 C131 1.342 . S
C136 C134 1.285 . S
C136 H155 0.930 . S
C137 C140 1.424 . S
C137 C142 1.245 . S
C137 C143 1.428 . S
C138 C141 1.260 . S
C138 C142 1.477 . S
C138 H156 0.932 . S
C139 C140 1.384 . S
C139 C141 1.479 . S
C139 H157 0.929 . S
C140 C137 1.424 . S
C140 C139 1.384 . S
C140 H158 0.928 . S
C141 C138 1.260 . S
C141 C139 1.479 . S
C142 C137 1.245 . S
C142 C138 1.477 . S
C142 H159 0.932 . S
C143 U126 2.882 . S
C143 C137 1.428 . S
C143 O146 1.301 . S
C143 O147 1.282 . S
O144 U126 2.441 . S
O144 C130 1.249 . S
O145 U126 2.420 . S
O145 C130 1.202 . S
O146 U126 2.455 . S
O146 C143 1.301 . S
O147 U126 2.449 . S
O147 C143 1.282 . S
H148 C121 0.931 . S
H149 C123 0.929 . S
H150 C124 0.930 . S
H151 C125 0.931 . S
H152 C132 0.932 . S
H153 C133 0.930 . S
H154 C134 0.929 . S
H155 C136 0.930 . S
H156 C138 0.932 . S
H157 C139 0.929 . S
H158 C140 0.928 . S
H159 C142 0.932 . S
C160 C161 1.264 . S
C160 C165 1.479 . S
C160 C170 1.465 . S
C161 C160 1.264 . S
C161 C163 1.339 . S
C161 H188 0.931 . S
C162 C163 1.395 . S
C162 C164 1.320 . S
C163 C161 1.339 . S
C163 C162 1.395 . S
C163 H189 0.929 . S
C164 C162 1.320 . S
C164 C165 1.405 . S
C164 H190 0.930 . S
C165 C160 1.479 . S
C165 C164 1.405 . S
C165 H191 0.931 . S
U166 O167 2.454 . S
U166 O168 2.458 . S
U166 C169 2.984 . S
U166 C170 2.847 . S
U166 C183 2.882 . S
U166 O184 2.441 . S
U166 O185 2.420 . S
U166 O186 2.455 . S
U166 O187 2.449 . S
O167 U166 2.454 . S
O167 C169 1.353 . S
O168 U166 2.458 . S
O168 C169 1.286 . S
C169 U166 2.984 . S
C169 O167 1.353 . S
C169 O168 1.286 . S
C169 C171 1.363 . S
C170 C160 1.465 . S
C170 U166 2.847 . S
C170 O184 1.249 . S
C170 O185 1.202 . S
C171 C169 1.363 . S
C171 C173 1.408 . S
C171 C176 1.342 . S
C172 C173 1.310 . S
C172 C175 1.461 . S
C172 H192 0.932 . S
C173 C171 1.408 . S
C173 C172 1.310 . S
C173 H193 0.930 . S
C174 C175 1.474 . S
C174 C176 1.285 . S
C174 H194 0.929 . S
C175 C172 1.461 . S
C175 C174 1.474 . S
C176 C171 1.342 . S
C176 C174 1.285 . S
C176 H195 0.930 . S
C177 C180 1.424 . S
C177 C182 1.245 . S
C177 C183 1.428 . S
C178 C181 1.260 . S
C178 C182 1.477 . S
C178 H196 0.932 . S
C179 C180 1.384 . S
C179 C181 1.479 . S
C179 H197 0.929 . S
C180 C177 1.424 . S
C180 C179 1.384 . S
C180 H198 0.928 . S
C181 C178 1.260 . S
C181 C179 1.479 . S
C182 C177 1.245 . S
C182 C178 1.477 . S
C182 H199 0.932 . S
C183 U166 2.882 . S
C183 C177 1.428 . S
C183 O186 1.301 . S
C183 O187 1.282 . S
O184 U166 2.441 . S
O184 C170 1.249 . S
O185 U166 2.420 . S
O185 C170 1.202 . S
O186 U166 2.455 . S
O186 C183 1.301 . S
O187 U166 2.449 . S
O187 C183 1.282 . S
H188 C161 0.931 . S
H189 C163 0.929 . S
H190 C164 0.930 . S
H191 C165 0.931 . S
H192 C172 0.932 . S
H193 C173 0.930 . S
H194 C174 0.929 . S
H195 C176 0.930 . S
H196 C178 0.932 . S
H197 C179 0.929 . S
H198 C180 0.928 . S
H199 C182 0.932 . S
C200 C201 1.264 . S
C200 C205 1.479 . S
C200 C210 1.465 . S
C201 C200 1.264 . S
C201 C203 1.339 . S
C201 H228 0.931 . S
C202 C203 1.395 . S
C202 C204 1.320 . S
C203 C201 1.339 . S
C203 C202 1.395 . S
C203 H229 0.929 . S
C204 C202 1.320 . S
C204 C205 1.405 . S
C204 H230 0.930 . S
C205 C200 1.479 . S
C205 C204 1.405 . S
C205 H231 0.931 . S
U206 O207 2.454 . S
U206 O208 2.458 . S
U206 C209 2.984 . S
U206 C210 2.847 . S
U206 C223 2.882 . S
U206 O224 2.441 . S
U206 O225 2.420 . S
U206 O226 2.455 . S
U206 O227 2.449 . S
O207 U206 2.454 . S
O207 C209 1.353 . S
O208 U206 2.458 . S
O208 C209 1.286 . S
C209 U206 2.984 . S
C209 O207 1.353 . S
C209 O208 1.286 . S
C209 C211 1.363 . S
C210 C200 1.465 . S
C210 U206 2.847 . S
C210 O224 1.249 . S
C210 O225 1.202 . S
C211 C209 1.363 . S
C211 C213 1.408 . S
C211 C216 1.342 . S
C212 C213 1.310 . S
C212 C215 1.461 . S
C212 H232 0.932 . S
C213 C211 1.408 . S
C213 C212 1.310 . S
C213 H233 0.930 . S
C214 C215 1.474 . S
C214 C216 1.285 . S
C214 H234 0.929 . S
C215 C212 1.461 . S
C215 C214 1.474 . S
C216 C211 1.342 . S
C216 C214 1.285 . S
C216 H235 0.930 . S
C217 C220 1.424 . S
C217 C222 1.245 . S
C217 C223 1.428 . S
C218 C221 1.260 . S
C218 C222 1.477 . S
C218 H236 0.932 . S
C219 C220 1.384 . S
C219 C221 1.479 . S
C219 H237 0.929 . S
C220 C217 1.424 . S
C220 C219 1.384 . S
C220 H238 0.928 . S
C221 C218 1.260 . S
C221 C219 1.479 . S
C222 C217 1.245 . S
C222 C218 1.477 . S
C222 H239 0.932 . S
C223 U206 2.882 . S
C223 C217 1.428 . S
C223 O226 1.301 . S
C223 O227 1.282 . S
O224 U206 2.441 . S
O224 C210 1.249 . S
O225 U206 2.420 . S
O225 C210 1.202 . S
O226 U206 2.455 . S
O226 C223 1.301 . S
O227 U206 2.449 . S
O227 C223 1.282 . S
H228 C201 0.931 . S
H229 C203 0.929 . S
H230 C204 0.930 . S
H231 C205 0.931 . S
H232 C212 0.932 . S
H233 C213 0.930 . S
H234 C214 0.929 . S
H235 C216 0.930 . S
H236 C218 0.932 . S
H237 C219 0.929 . S
H238 C220 0.928 . S
H239 C222 0.932 . S
C240 C241 1.264 . S
C240 C245 1.479 . S
C240 C250 1.465 . S
C241 C240 1.264 . S
C241 C243 1.339 . S
C241 H268 0.931 . S
C242 C243 1.395 . S
C242 C244 1.320 . S
C243 C241 1.339 . S
C243 C242 1.395 . S
C243 H269 0.929 . S
C244 C242 1.320 . S
C244 C245 1.405 . S
C244 H270 0.930 . S
C245 C240 1.479 . S
C245 C244 1.405 . S
C245 H271 0.931 . S
U246 O247 2.454 . S
U246 O248 2.458 . S
U246 C249 2.984 . S
U246 C250 2.847 . S
U246 C263 2.882 . S
U246 O264 2.441 . S
U246 O265 2.420 . S
U246 O266 2.455 . S
U246 O267 2.449 . S
O247 U246 2.454 . S
O247 C249 1.353 . S
O248 U246 2.458 . S
O248 C249 1.286 . S
C249 U246 2.984 . S
C249 O247 1.353 . S
C249 O248 1.286 . S
C249 C251 1.363 . S
C250 C240 1.465 . S
C250 U246 2.847 . S
C250 O264 1.249 . S
C250 O265 1.202 . S
C251 C249 1.363 . S
C251 C253 1.408 . S
C251 C256 1.342 . S
C252 C253 1.310 . S
C252 C255 1.461 . S
C252 H272 0.932 . S
C253 C251 1.408 . S
C253 C252 1.310 . S
C253 H273 0.930 . S
C254 C255 1.474 . S
C254 C256 1.285 . S
C254 H274 0.929 . S
C255 C252 1.461 . S
C255 C254 1.474 . S
C256 C251 1.342 . S
C256 C254 1.285 . S
C256 H275 0.930 . S
C257 C260 1.424 . S
C257 C262 1.245 . S
C257 C263 1.428 . S
C258 C261 1.260 . S
C258 C262 1.477 . S
C258 H276 0.932 . S
C259 C260 1.384 . S
C259 C261 1.479 . S
C259 H277 0.929 . S
C260 C257 1.424 . S
C260 C259 1.384 . S
C260 H278 0.928 . S
C261 C258 1.260 . S
C261 C259 1.479 . S
C262 C257 1.245 . S
C262 C258 1.477 . S
C262 H279 0.932 . S
C263 U246 2.882 . S
C263 C257 1.428 . S
C263 O266 1.301 . S
C263 O267 1.282 . S
O264 U246 2.441 . S
O264 C250 1.249 . S
O265 U246 2.420 . S
O265 C250 1.202 . S
O266 U246 2.455 . S
O266 C263 1.301 . S
O267 U246 2.449 . S
O267 C263 1.282 . S
H268 C241 0.931 . S
H269 C243 0.929 . S
H270 C244 0.930 . S
H271 C245 0.931 . S
H272 C252 0.932 . S
H273 C253 0.930 . S
H274 C254 0.929 . S
H275 C256 0.930 . S
H276 C258 0.932 . S
H277 C259 0.929 . S
H278 C260 0.928 . S
H279 C262 0.932 . S
C280 C281 1.264 . S
C280 C285 1.479 . S
C280 C290 1.465 . S
C281 C280 1.264 . S
C281 C283 1.339 . S
C281 H308 0.931 . S
C282 C283 1.395 . S
C282 C284 1.320 . S
C283 C281 1.339 . S
C283 C282 1.395 . S
C283 H309 0.929 . S
C284 C282 1.320 . S
C284 C285 1.405 . S
C284 H310 0.930 . S
C285 C280 1.479 . S
C285 C284 1.405 . S
C285 H311 0.931 . S
U286 O287 2.454 . S
U286 O288 2.458 . S
U286 C289 2.984 . S
U286 C290 2.847 . S
U286 C303 2.882 . S
U286 O304 2.441 . S
U286 O305 2.420 . S
U286 O306 2.455 . S
U286 O307 2.449 . S
O287 U286 2.454 . S
O287 C289 1.353 . S
O288 U286 2.458 . S
O288 C289 1.286 . S
C289 U286 2.984 . S
C289 O287 1.353 . S
C289 O288 1.286 . S
C289 C291 1.363 . S
C290 C280 1.465 . S
C290 U286 2.847 . S
C290 O304 1.249 . S
C290 O305 1.202 . S
C291 C289 1.363 . S
C291 C293 1.408 . S
C291 C296 1.342 . S
C292 C293 1.310 . S
C292 C295 1.461 . S
C292 H312 0.932 . S
C293 C291 1.408 . S
C293 C292 1.310 . S
C293 H313 0.930 . S
C294 C295 1.474 . S
C294 C296 1.285 . S
C294 H314 0.929 . S
C295 C292 1.461 . S
C295 C294 1.474 . S
C296 C291 1.342 . S
C296 C294 1.285 . S
C296 H315 0.930 . S
C297 C300 1.424 . S
C297 C302 1.245 . S
C297 C303 1.428 . S
C298 C301 1.260 . S
C298 C302 1.477 . S
C298 H316 0.932 . S
C299 C300 1.384 . S
C299 C301 1.479 . S
C299 H317 0.929 . S
C300 C297 1.424 . S
C300 C299 1.384 . S
C300 H318 0.928 . S
C301 C298 1.260 . S
C301 C299 1.479 . S
C302 C297 1.245 . S
C302 C298 1.477 . S
C302 H319 0.932 . S
C303 U286 2.882 . S
C303 C297 1.428 . S
C303 O306 1.301 . S
C303 O307 1.282 . S
O304 U286 2.441 . S
O304 C290 1.249 . S
O305 U286 2.420 . S
O305 C290 1.202 . S
O306 U286 2.455 . S
O306 C303 1.301 . S
O307 U286 2.449 . S
O307 C303 1.282 . S
H308 C281 0.931 . S
H309 C283 0.929 . S
H310 C284 0.930 . S
H311 C285 0.931 . S
H312 C292 0.932 . S
H313 C293 0.930 . S
H314 C294 0.929 . S
H315 C296 0.930 . S
H316 C298 0.932 . S
H317 C299 0.929 . S
H318 C300 0.928 . S
H319 C302 0.932 . S
C320 C321 1.264 . S
C320 C325 1.479 . S
C320 C330 1.465 . S
C321 C320 1.264 . S
C321 C323 1.339 . S
C321 H348 0.931 . S
C322 C323 1.395 . S
C322 C324 1.320 . S
C323 C321 1.339 . S
C323 C322 1.395 . S
C323 H349 0.929 . S
C324 C322 1.320 . S
C324 C325 1.405 . S
C324 H350 0.930 . S
C325 C320 1.479 . S
C325 C324 1.405 . S
C325 H351 0.931 . S
U326 O327 2.454 . S
U326 O328 2.458 . S
U326 C329 2.984 . S
U326 C330 2.847 . S
U326 C343 2.882 . S
U326 O344 2.441 . S
U326 O345 2.420 . S
U326 O346 2.455 . S
U326 O347 2.449 . S
O327 U326 2.454 . S
O327 C329 1.353 . S
O328 U326 2.458 . S
O328 C329 1.286 . S
C329 U326 2.984 . S
C329 O327 1.353 . S
C329 O328 1.286 . S
C329 C331 1.363 . S
C330 C320 1.465 . S
C330 U326 2.847 . S
C330 O344 1.249 . S
C330 O345 1.202 . S
C331 C329 1.363 . S
C331 C333 1.408 . S
C331 C336 1.342 . S
C332 C333 1.310 . S
C332 C335 1.461 . S
C332 H352 0.932 . S
C333 C331 1.408 . S
C333 C332 1.310 . S
C333 H353 0.930 . S
C334 C335 1.474 . S
C334 C336 1.285 . S
C334 H354 0.929 . S
C335 C332 1.461 . S
C335 C334 1.474 . S
C336 C331 1.342 . S
C336 C334 1.285 . S
C336 H355 0.930 . S
C337 C340 1.424 . S
C337 C342 1.245 . S
C337 C343 1.428 . S
C338 C341 1.260 . S
C338 C342 1.477 . S
C338 H356 0.932 . S
C339 C340 1.384 . S
C339 C341 1.479 . S
C339 H357 0.929 . S
C340 C337 1.424 . S
C340 C339 1.384 . S
C340 H358 0.928 . S
C341 C338 1.260 . S
C341 C339 1.479 . S
C342 C337 1.245 . S
C342 C338 1.477 . S
C342 H359 0.932 . S
C343 U326 2.882 . S
C343 C337 1.428 . S
C343 O346 1.301 . S
C343 O347 1.282 . S
O344 U326 2.441 . S
O344 C330 1.249 . S
O345 U326 2.420 . S
O345 C330 1.202 . S
O346 U326 2.455 . S
O346 C343 1.301 . S
O347 U326 2.449 . S
O347 C343 1.282 . S
H348 C321 0.931 . S
H349 C323 0.929 . S
H350 C324 0.930 . S
H351 C325 0.931 . S
H352 C332 0.932 . S
H353 C333 0.930 . S
H354 C334 0.929 . S
H355 C336 0.930 . S
H356 C338 0.932 . S
H357 C339 0.929 . S
H358 C340 0.928 . S
H359 C342 0.932 . S
C360 C361 1.264 . S
C360 C365 1.479 . S
C360 C370 1.465 . S
C361 C360 1.264 . S
C361 C363 1.339 . S
C361 H388 0.931 . S
C362 C363 1.395 . S
C362 C364 1.320 . S
C363 C361 1.339 . S
C363 C362 1.395 . S
C363 H389 0.929 . S
C364 C362 1.320 . S
C364 C365 1.405 . S
C364 H390 0.930 . S
C365 C360 1.479 . S
C365 C364 1.405 . S
C365 H391 0.931 . S
U366 O367 2.454 . S
U366 O368 2.458 . S
U366 C369 2.984 . S
U366 C370 2.847 . S
U366 C383 2.882 . S
U366 O384 2.441 . S
U366 O385 2.420 . S
U366 O386 2.455 . S
U366 O387 2.449 . S
O367 U366 2.454 . S
O367 C369 1.353 . S
O368 U366 2.458 . S
O368 C369 1.286 . S
C369 U366 2.984 . S
C369 O367 1.353 . S
C369 O368 1.286 . S
C369 C371 1.363 . S
C370 C360 1.465 . S
C370 U366 2.847 . S
C370 O384 1.249 . S
C370 O385 1.202 . S
C371 C369 1.363 . S
C371 C373 1.408 . S
C371 C376 1.342 . S
C372 C373 1.310 . S
C372 C375 1.461 . S
C372 H392 0.932 . S
C373 C371 1.408 . S
C373 C372 1.310 . S
C373 H393 0.930 . S
C374 C375 1.474 . S
C374 C376 1.285 . S
C374 H394 0.929 . S
C375 C372 1.461 . S
C375 C374 1.474 . S
C376 C371 1.342 . S
C376 C374 1.285 . S
C376 H395 0.930 . S
C377 C380 1.424 . S
C377 C382 1.245 . S
C377 C383 1.428 . S
C378 C381 1.260 . S
C378 C382 1.477 . S
C378 H396 0.932 . S
C379 C380 1.384 . S
C379 C381 1.479 . S
C379 H397 0.929 . S
C380 C377 1.424 . S
C380 C379 1.384 . S
C380 H398 0.928 . S
C381 C378 1.260 . S
C381 C379 1.479 . S
C382 C377 1.245 . S
C382 C378 1.477 . S
C382 H399 0.932 . S
C383 U366 2.882 . S
C383 C377 1.428 . S
C383 O386 1.301 . S
C383 O387 1.282 . S
O384 U366 2.441 . S
O384 C370 1.249 . S
O385 U366 2.420 . S
O385 C370 1.202 . S
O386 U366 2.455 . S
O386 C383 1.301 . S
O387 U366 2.449 . S
O387 C383 1.282 . S
H388 C361 0.931 . S
H389 C363 0.929 . S
H390 C364 0.930 . S
H391 C365 0.931 . S
H392 C372 0.932 . S
H393 C373 0.930 . S
H394 C374 0.929 . S
H395 C376 0.930 . S
H396 C378 0.932 . S
H397 C379 0.929 . S
H398 C380 0.928 . S
H399 C382 0.932 . S
C400 C401 1.264 . S
C400 C405 1.479 . S
C400 C410 1.465 . S
C401 C400 1.264 . S
C401 C403 1.339 . S
C401 H428 0.931 . S
C402 C403 1.395 . S
C402 C404 1.320 . S
C403 C401 1.339 . S
C403 C402 1.395 . S
C403 H429 0.929 . S
C404 C402 1.320 . S
C404 C405 1.405 . S
C404 H430 0.930 . S
C405 C400 1.479 . S
C405 C404 1.405 . S
C405 H431 0.931 . S
U406 O407 2.454 . S
U406 O408 2.458 . S
U406 C409 2.984 . S
U406 C410 2.847 . S
U406 C423 2.882 . S
U406 O424 2.441 . S
U406 O425 2.420 . S
U406 O426 2.455 . S
U406 O427 2.449 . S
O407 U406 2.454 . S
O407 C409 1.353 . S
O408 U406 2.458 . S
O408 C409 1.286 . S
C409 U406 2.984 . S
C409 O407 1.353 . S
C409 O408 1.286 . S
C409 C411 1.363 . S
C410 C400 1.465 . S
C410 U406 2.847 . S
C410 O424 1.249 . S
C410 O425 1.202 . S
C411 C409 1.363 . S
C411 C413 1.408 . S
C411 C416 1.342 . S
C412 C413 1.310 . S
C412 C415 1.461 1_565 S
C412 H432 0.918 1_565 S
C413 C411 1.408 . S
C413 C412 1.310 . S
C413 H433 0.930 . S
C414 C415 1.474 1_565 S
C414 C416 1.285 . S
C414 H434 0.929 1_565 S
C415 C412 1.461 1_545 S
C415 C414 1.474 1_545 S
C416 C411 1.342 . S
C416 C414 1.285 . S
C416 H435 0.930 . S
C417 C420 1.424 . S
C417 C422 1.245 . S
C417 C423 1.428 . S
C418 C421 1.260 . S
C418 C422 1.477 . S
C418 H436 0.932 . S
C419 C420 1.384 . S
C419 C421 1.479 . S
C419 H437 0.929 . S
C420 C417 1.424 . S
C420 C419 1.384 . S
C420 H438 0.928 . S
C421 C418 1.260 . S
C421 C419 1.479 . S
C422 C417 1.245 . S
C422 C418 1.477 . S
C422 H439 0.932 . S
C423 U406 2.882 . S
C423 C417 1.428 . S
C423 O426 1.301 . S
C423 O427 1.282 . S
O424 U406 2.441 . S
O424 C410 1.249 . S
O425 U406 2.420 . S
O425 C410 1.202 . S
O426 U406 2.455 . S
O426 C423 1.301 . S
O427 U406 2.449 . S
O427 C423 1.282 . S
H428 C401 0.931 . S
H429 C403 0.929 . S
H430 C404 0.930 . S
H431 C405 0.931 . S
H432 C412 0.918 1_545 S
H433 C413 0.930 . S
H434 C414 0.929 1_545 S
H435 C416 0.930 . S
H436 C418 0.932 . S
H437 C419 0.929 . S
H438 C420 0.928 . S
H439 C422 0.932 . S
C440 C441 1.264 . S
C440 C445 1.479 . S
C440 C450 1.465 . S
C441 C440 1.264 . S
C441 C443 1.339 . S
C441 H468 0.931 . S
C442 C443 1.395 . S
C442 C444 1.320 . S
C443 C441 1.339 . S
C443 C442 1.395 . S
C443 H469 0.929 . S
C444 C442 1.320 . S
C444 C445 1.405 . S
C444 H470 0.930 . S
C445 C440 1.479 . S
C445 C444 1.405 . S
C445 H471 0.931 . S
U446 O447 2.454 . S
U446 O448 2.458 . S
U446 C449 2.984 . S
U446 C450 2.847 . S
U446 C463 2.882 . S
U446 O464 2.441 . S
U446 O465 2.420 . S
U446 O466 2.455 . S
U446 O467 2.449 . S
O447 U446 2.454 . S
O447 C449 1.353 . S
O448 U446 2.458 . S
O448 C449 1.286 . S
C449 U446 2.984 . S
C449 O447 1.353 . S
C449 O448 1.286 . S
C449 C451 1.363 . S
C450 C440 1.465 . S
C450 U446 2.847 . S
C450 O464 1.249 . S
C450 O465 1.202 . S
C451 C449 1.363 . S
C451 C453 1.408 . S
C451 C456 1.342 . S
C452 C453 1.310 . S
C452 C455 1.461 . S
C452 H472 0.932 . S
C453 C451 1.408 . S
C453 C452 1.310 . S
C453 H473 0.930 . S
C454 C455 1.474 . S
C454 C456 1.285 . S
C454 H474 0.929 . S
C455 C452 1.461 . S
C455 C454 1.474 . S
C456 C451 1.342 . S
C456 C454 1.285 . S
C456 H475 0.930 . S
C457 C460 1.424 . S
C457 C462 1.245 . S
C457 C463 1.428 . S
C458 C461 1.260 . S
C458 C462 1.477 . S
C458 H476 0.932 . S
C459 C460 1.384 . S
C459 C461 1.479 . S
C459 H477 0.929 . S
C460 C457 1.424 . S
C460 C459 1.384 . S
C460 H478 0.928 . S
C461 C458 1.260 . S
C461 C459 1.479 . S
C462 C457 1.245 . S
C462 C458 1.477 . S
C462 H479 0.932 . S
C463 U446 2.882 . S
C463 C457 1.428 . S
C463 O466 1.301 . S
C463 O467 1.282 . S
O464 U446 2.441 . S
O464 C450 1.249 . S
O465 U446 2.420 . S
O465 C450 1.202 . S
O466 U446 2.455 . S
O466 C463 1.301 . S
O467 U446 2.449 . S
O467 C463 1.282 . S
H468 C441 0.931 . S
H469 C443 0.929 . S
H470 C444 0.930 . S
H471 C445 0.931 . S
H472 C452 0.932 . S
H473 C453 0.930 . S
H474 C454 0.929 . S
H475 C456 0.930 . S
H476 C458 0.932 . S
H477 C459 0.929 . S
H478 C460 0.928 . S
H479 C462 0.932 . S
C480 C481 1.264 . S
C480 C485 1.479 . S
C480 C490 1.465 . S
C481 C480 1.264 . S
C481 C483 1.339 . S
C481 H508 0.931 . S
C482 C483 1.395 . S
C482 C484 1.320 . S
C483 C481 1.339 . S
C483 C482 1.395 . S
C483 H509 0.929 . S
C484 C482 1.320 . S
C484 C485 1.405 . S
C484 H510 0.930 . S
C485 C480 1.479 . S
C485 C484 1.405 . S
C485 H511 0.931 . S
U486 O487 2.454 . S
U486 O488 2.458 . S
U486 C489 2.984 . S
U486 C490 2.847 . S
U486 C503 2.882 . S
U486 O504 2.441 . S
U486 O505 2.420 . S
U486 O506 2.455 . S
U486 O507 2.449 . S
O487 U486 2.454 . S
O487 C489 1.353 . S
O488 U486 2.458 . S
O488 C489 1.286 . S
C489 U486 2.984 . S
C489 O487 1.353 . S
C489 O488 1.286 . S
C489 C491 1.363 . S
C490 C480 1.465 . S
C490 U486 2.847 . S
C490 O504 1.249 . S
C490 O505 1.202 . S
C491 C489 1.363 . S
C491 C493 1.408 . S
C491 C496 1.342 . S
C492 C493 1.310 . S
C492 C495 1.461 . S
C492 H512 0.932 . S
C493 C491 1.408 . S
C493 C492 1.310 . S
C493 H513 0.930 . S
C494 C495 1.474 . S
C494 C496 1.285 . S
C494 H514 0.929 . S
C495 C492 1.461 . S
C495 C494 1.474 . S
C496 C491 1.342 . S
C496 C494 1.285 . S
C496 H515 0.930 . S
C497 C500 1.424 . S
C497 C502 1.245 . S
C497 C503 1.428 . S
C498 C501 1.260 . S
C498 C502 1.477 . S
C498 H516 0.932 . S
C499 C500 1.384 . S
C499 C501 1.479 . S
C499 H517 0.929 . S
C500 C497 1.424 . S
C500 C499 1.384 . S
C500 H518 0.928 . S
C501 C498 1.260 . S
C501 C499 1.479 . S
C502 C497 1.245 . S
C502 C498 1.477 . S
C502 H519 0.932 . S
C503 U486 2.882 . S
C503 C497 1.428 . S
C503 O506 1.301 . S
C503 O507 1.282 . S
O504 U486 2.441 . S
O504 C490 1.249 . S
O505 U486 2.420 . S
O505 C490 1.202 . S
O506 U486 2.455 . S
O506 C503 1.301 . S
O507 U486 2.449 . S
O507 C503 1.282 . S
H508 C481 0.931 . S
H509 C483 0.929 . S
H510 C484 0.930 . S
H511 C485 0.931 . S
H512 C492 0.932 . S
H513 C493 0.930 . S
H514 C494 0.929 . S
H515 C496 0.930 . S
H516 C498 0.932 . S
H517 C499 0.929 . S
H518 C500 0.928 . S
H519 C502 0.932 . S
C520 C521 1.264 . S
C520 C525 1.479 . S
C520 C530 1.465 . S
C521 C520 1.264 . S
C521 C523 1.339 . S
C521 H548 0.931 . S
C522 C523 1.395 . S
C522 C524 1.320 . S
C523 C521 1.339 . S
C523 C522 1.395 . S
C523 H549 0.929 . S
C524 C522 1.320 . S
C524 C525 1.405 . S
C524 H550 0.930 . S
C525 C520 1.479 . S
C525 C524 1.405 . S
C525 H551 0.931 . S
U526 O527 2.454 . S
U526 O528 2.458 . S
U526 C529 2.984 . S
U526 C530 2.847 . S
U526 C543 2.882 . S
U526 O544 2.441 . S
U526 O545 2.420 . S
U526 O546 2.455 . S
U526 O547 2.449 . S
O527 U526 2.454 . S
O527 C529 1.353 . S
O528 U526 2.458 . S
O528 C529 1.286 . S
C529 U526 2.984 . S
C529 O527 1.353 . S
C529 O528 1.286 . S
C529 C531 1.363 . S
C530 C520 1.465 . S
C530 U526 2.847 . S
C530 O544 1.249 . S
C530 O545 1.202 . S
C531 C529 1.363 . S
C531 C533 1.408 . S
C531 C536 1.342 . S
C532 C533 1.310 . S
C532 C535 1.461 . S
C532 H552 0.932 . S
C533 C531 1.408 . S
C533 C532 1.310 . S
C533 H553 0.930 . S
C534 C535 1.474 . S
C534 C536 1.285 . S
C534 H554 0.929 . S
C535 C532 1.461 . S
C535 C534 1.474 . S
C536 C531 1.342 . S
C536 C534 1.285 . S
C536 H555 0.930 . S
C537 C540 1.424 . S
C537 C542 1.245 . S
C537 C543 1.428 . S
C538 C541 1.260 . S
C538 C542 1.477 . S
C538 H556 0.932 . S
C539 C540 1.384 . S
C539 C541 1.479 . S
C539 H557 0.929 . S
C540 C537 1.424 . S
C540 C539 1.384 . S
C540 H558 0.928 . S
C541 C538 1.260 . S
C541 C539 1.479 . S
C542 C537 1.245 . S
C542 C538 1.477 . S
C542 H559 0.932 . S
C543 U526 2.882 . S
C543 C537 1.428 . S
C543 O546 1.301 . S
C543 O547 1.282 . S
O544 U526 2.441 . S
O544 C530 1.249 . S
O545 U526 2.420 . S
O545 C530 1.202 . S
O546 U526 2.455 . S
O546 C543 1.301 . S
O547 U526 2.449 . S
O547 C543 1.282 . S
H548 C521 0.931 . S
H549 C523 0.929 . S
H550 C524 0.930 . S
H551 C525 0.931 . S
H552 C532 0.932 . S
H553 C533 0.930 . S
H554 C534 0.929 . S
H555 C536 0.930 . S
H556 C538 0.932 . S
H557 C539 0.929 . S
H558 C540 0.928 . S
H559 C542 0.932 . S
C560 C561 1.264 . S
C560 C565 1.479 . S
C560 C570 1.465 . S
C561 C560 1.264 . S
C561 C563 1.339 . S
C561 H588 0.931 . S
C562 C563 1.395 . S
C562 C564 1.320 . S
C563 C561 1.339 . S
C563 C562 1.395 . S
C563 H589 0.929 . S
C564 C562 1.320 . S
C564 C565 1.405 . S
C564 H590 0.930 . S
C565 C560 1.479 . S
C565 C564 1.405 . S
C565 H591 0.931 . S
U566 O567 2.454 . S
U566 O568 2.458 . S
U566 C569 2.984 . S
U566 C570 2.847 . S
U566 C583 2.882 . S
U566 O584 2.441 . S
U566 O585 2.420 . S
U566 O586 2.455 . S
U566 O587 2.449 . S
O567 U566 2.454 . S
O567 C569 1.353 . S
O568 U566 2.458 . S
O568 C569 1.286 . S
C569 U566 2.984 . S
C569 O567 1.353 . S
C569 O568 1.286 . S
C569 C571 1.363 . S
C570 C560 1.465 . S
C570 U566 2.847 . S
C570 O584 1.249 . S
C570 O585 1.202 . S
C571 C569 1.363 . S
C571 C573 1.408 . S
C571 C576 1.342 . S
C572 C573 1.310 . S
C572 C575 1.461 1_545 S
C572 H592 0.919 1_545 S
C573 C571 1.408 . S
C573 C572 1.310 . S
C573 H593 0.930 . S
C574 C575 1.474 1_545 S
C574 C576 1.285 . S
C574 H594 0.929 1_545 S
C575 C572 1.461 1_565 S
C575 C574 1.474 1_565 S
C576 C571 1.342 . S
C576 C574 1.285 . S
C576 H595 0.930 . S
C577 C580 1.424 . S
C577 C582 1.245 . S
C577 C583 1.428 . S
C578 C581 1.260 . S
C578 C582 1.477 . S
C578 H596 0.932 . S
C579 C580 1.384 . S
C579 C581 1.479 . S
C579 H597 0.929 . S
C580 C577 1.424 . S
C580 C579 1.384 . S
C580 H598 0.928 . S
C581 C578 1.260 . S
C581 C579 1.479 . S
C582 C577 1.245 . S
C582 C578 1.477 . S
C582 H599 0.932 . S
C583 U566 2.882 . S
C583 C577 1.428 . S
C583 O586 1.301 . S
C583 O587 1.282 . S
O584 U566 2.441 . S
O584 C570 1.249 . S
O585 U566 2.420 . S
O585 C570 1.202 . S
O586 U566 2.455 . S
O586 C583 1.301 . S
O587 U566 2.449 . S
O587 C583 1.282 . S
H588 C561 0.931 . S
H589 C563 0.929 . S
H590 C564 0.930 . S
H591 C565 0.931 . S
H592 C572 0.919 1_565 S
H593 C573 0.930 . S
H594 C574 0.929 1_565 S
H595 C576 0.930 . S
H596 C578 0.932 . S
H597 C579 0.929 . S
H598 C580 0.928 . S
H599 C582 0.932 . S
C600 C601 1.264 . S
C600 C605 1.479 . S
C600 C610 1.465 . S
C601 C600 1.264 . S
C601 C603 1.339 . S
C601 H628 0.931 . S
C602 C603 1.395 . S
C602 C604 1.320 . S
C603 C601 1.339 . S
C603 C602 1.395 . S
C603 H629 0.929 . S
C604 C602 1.320 . S
C604 C605 1.405 . S
C604 H630 0.930 . S
C605 C600 1.479 . S
C605 C604 1.405 . S
C605 H631 0.931 . S
U606 O607 2.454 . S
U606 O608 2.458 . S
U606 C609 2.984 . S
U606 C610 2.847 . S
U606 C623 2.882 . S
U606 O624 2.441 . S
U606 O625 2.420 . S
U606 O626 2.455 . S
U606 O627 2.449 . S
O607 U606 2.454 . S
O607 C609 1.353 . S
O608 U606 2.458 . S
O608 C609 1.286 . S
C609 U606 2.984 . S
C609 O607 1.353 . S
C609 O608 1.286 . S
C609 C611 1.363 . S
C610 C600 1.465 . S
C610 U606 2.847 . S
C610 O624 1.249 . S
C610 O625 1.202 . S
C611 C609 1.363 . S
C611 C613 1.408 . S
C611 C616 1.342 . S
C612 C613 1.310 . S
C612 C615 1.461 . S
C612 H632 0.932 . S
C613 C611 1.408 . S
C613 C612 1.310 . S
C613 H633 0.930 . S
C614 C615 1.474 . S
C614 C616 1.285 . S
C614 H634 0.929 . S
C615 C612 1.461 . S
C615 C614 1.474 . S
C616 C611 1.342 . S
C616 C614 1.285 . S
C616 H635 0.930 . S
C617 C620 1.424 . S
C617 C622 1.245 . S
C617 C623 1.428 . S
C618 C621 1.260 . S
C618 C622 1.477 . S
C618 H636 0.932 . S
C619 C620 1.384 . S
C619 C621 1.479 . S
C619 H637 0.929 . S
C620 C617 1.424 . S
C620 C619 1.384 . S
C620 H638 0.928 . S
C621 C618 1.260 . S
C621 C619 1.479 . S
C622 C617 1.245 . S
C622 C618 1.477 . S
C622 H639 0.932 . S
C623 U606 2.882 . S
C623 C617 1.428 . S
C623 O626 1.301 . S
C623 O627 1.282 . S
O624 U606 2.441 . S
O624 C610 1.249 . S
O625 U606 2.420 . S
O625 C610 1.202 . S
O626 U606 2.455 . S
O626 C623 1.301 . S
O627 U606 2.449 . S
O627 C623 1.282 . S
H628 C601 0.931 . S
H629 C603 0.929 . S
H630 C604 0.930 . S
H631 C605 0.931 . S
H632 C612 0.932 . S
H633 C613 0.930 . S
H634 C614 0.929 . S
H635 C616 0.930 . S
H636 C618 0.932 . S
H637 C619 0.929 . S
H638 C620 0.928 . S
H639 C622 0.932 . S
C640 C641 1.264 . S
C640 C645 1.479 . S
C640 C650 1.465 . S
C641 C640 1.264 . S
C641 C643 1.339 . S
C641 H668 0.931 . S
C642 C643 1.395 . S
C642 C644 1.320 . S
C643 C641 1.339 . S
C643 C642 1.395 . S
C643 H669 0.929 . S
C644 C642 1.320 . S
C644 C645 1.405 . S
C644 H670 0.930 . S
C645 C640 1.479 . S
C645 C644 1.405 . S
C645 H671 0.931 . S
U646 O647 2.454 . S
U646 O648 2.458 . S
U646 C649 2.984 . S
U646 C650 2.847 . S
U646 C663 2.882 . S
U646 O664 2.441 . S
U646 O665 2.420 . S
U646 O666 2.455 . S
U646 O667 2.449 . S
O647 U646 2.454 . S
O647 C649 1.353 . S
O648 U646 2.458 . S
O648 C649 1.286 . S
C649 U646 2.984 . S
C649 O647 1.353 . S
C649 O648 1.286 . S
C649 C651 1.363 . S
C650 C640 1.465 . S
C650 U646 2.847 . S
C650 O664 1.249 . S
C650 O665 1.202 . S
C651 C649 1.363 . S
C651 C653 1.408 . S
C651 C656 1.342 . S
C652 C653 1.310 . S
C652 C655 1.461 . S
C652 H672 0.932 . S
C653 C651 1.408 . S
C653 C652 1.310 . S
C653 H673 0.930 . S
C654 C655 1.474 . S
C654 C656 1.285 . S
C654 H674 0.929 . S
C655 C652 1.461 . S
C655 C654 1.474 . S
C656 C651 1.342 . S
C656 C654 1.285 . S
C656 H675 0.930 . S
C657 C660 1.424 . S
C657 C662 1.245 . S
C657 C663 1.428 . S
C658 C661 1.260 . S
C658 C662 1.477 . S
C658 H676 0.932 . S
C659 C660 1.384 . S
C659 C661 1.479 . S
C659 H677 0.929 . S
C660 C657 1.424 . S
C660 C659 1.384 . S
C660 H678 0.928 . S
C661 C658 1.260 . S
C661 C659 1.479 . S
C662 C657 1.245 . S
C662 C658 1.477 . S
C662 H679 0.932 . S
C663 U646 2.882 . S
C663 C657 1.428 . S
C663 O666 1.301 . S
C663 O667 1.282 . S
O664 U646 2.441 . S
O664 C650 1.249 . S
O665 U646 2.420 . S
O665 C650 1.202 . S
O666 U646 2.455 . S
O666 C663 1.301 . S
O667 U646 2.449 . S
O667 C663 1.282 . S
H668 C641 0.931 . S
H669 C643 0.929 . S
H670 C644 0.930 . S
H671 C645 0.931 . S
H672 C652 0.932 . S
H673 C653 0.930 . S
H674 C654 0.929 . S
H675 C656 0.930 . S
H676 C658 0.932 . S
H677 C659 0.929 . S
H678 C660 0.928 . S
H679 C662 0.932 . S
C680 C681 1.264 . S
C680 C685 1.479 . S
C680 C690 1.465 . S
C681 C680 1.264 . S
C681 C683 1.339 . S
C681 H708 0.931 . S
C682 C683 1.395 . S
C682 C684 1.320 . S
C683 C681 1.339 . S
C683 C682 1.395 . S
C683 H709 0.929 . S
C684 C682 1.320 . S
C684 C685 1.405 . S
C684 H710 0.930 . S
C685 C680 1.479 . S
C685 C684 1.405 . S
C685 H711 0.931 . S
U686 O687 2.454 . S
U686 O688 2.458 . S
U686 C689 2.984 . S
U686 C690 2.847 . S
U686 C703 2.882 . S
U686 O704 2.441 . S
U686 O705 2.420 . S
U686 O706 2.455 . S
U686 O707 2.449 . S
O687 U686 2.454 . S
O687 C689 1.353 . S
O688 U686 2.458 . S
O688 C689 1.286 . S
C689 U686 2.984 . S
C689 O687 1.353 . S
C689 O688 1.286 . S
C689 C691 1.363 . S
C690 C680 1.465 . S
C690 U686 2.847 . S
C690 O704 1.249 . S
C690 O705 1.202 . S
C691 C689 1.363 . S
C691 C693 1.408 . S
C691 C696 1.342 . S
C692 C693 1.310 . S
C692 C695 1.461 . S
C692 H712 0.932 . S
C693 C691 1.408 . S
C693 C692 1.310 . S
C693 H713 0.930 . S
C694 C695 1.474 . S
C694 C696 1.285 . S
C694 H714 0.929 . S
C695 C692 1.461 . S
C695 C694 1.474 . S
C696 C691 1.342 . S
C696 C694 1.285 . S
C696 H715 0.930 . S
C697 C700 1.424 . S
C697 C702 1.245 . S
C697 C703 1.428 . S
C698 C701 1.260 . S
C698 C702 1.477 . S
C698 H716 0.932 . S
C699 C700 1.384 . S
C699 C701 1.479 . S
C699 H717 0.929 . S
C700 C697 1.424 . S
C700 C699 1.384 . S
C700 H718 0.928 . S
C701 C698 1.260 . S
C701 C699 1.479 . S
C702 C697 1.245 . S
C702 C698 1.477 . S
C702 H719 0.932 . S
C703 U686 2.882 . S
C703 C697 1.428 . S
C703 O706 1.301 . S
C703 O707 1.282 . S
O704 U686 2.441 . S
O704 C690 1.249 . S
O705 U686 2.420 . S
O705 C690 1.202 . S
O706 U686 2.455 . S
O706 C703 1.301 . S
O707 U686 2.449 . S
O707 C703 1.282 . S
H708 C681 0.931 . S
H709 C683 0.929 . S
H710 C684 0.930 . S
H711 C685 0.931 . S
H712 C692 0.932 . S
H713 C693 0.930 . S
H714 C694 0.929 . S
H715 C696 0.930 . S
H716 C698 0.932 . S
H717 C699 0.929 . S
H718 C700 0.928 . S
H719 C702 0.932 . S
C720 C721 1.264 . S
C720 C725 1.479 . S
C720 C730 1.465 . S
C721 C720 1.264 . S
C721 C723 1.339 . S
C721 H748 0.931 . S
C722 C723 1.395 . S
C722 C724 1.320 . S
C723 C721 1.339 . S
C723 C722 1.395 . S
C723 H749 0.929 . S
C724 C722 1.320 . S
C724 C725 1.405 . S
C724 H750 0.930 . S
C725 C720 1.479 . S
C725 C724 1.405 . S
C725 H751 0.931 . S
U726 O727 2.454 . S
U726 O728 2.458 . S
U726 C729 2.984 . S
U726 C730 2.847 . S
U726 C743 2.882 . S
U726 O744 2.441 . S
U726 O745 2.420 . S
U726 O746 2.455 . S
U726 O747 2.449 . S
O727 U726 2.454 . S
O727 C729 1.353 . S
O728 U726 2.458 . S
O728 C729 1.286 . S
C729 U726 2.984 . S
C729 O727 1.353 . S
C729 O728 1.286 . S
C729 C731 1.363 . S
C730 C720 1.465 . S
C730 U726 2.847 . S
C730 O744 1.249 . S
C730 O745 1.202 . S
C731 C729 1.363 . S
C731 C733 1.408 . S
C731 C736 1.342 . S
C732 C733 1.310 . S
C732 C735 1.461 . S
C732 H752 0.932 . S
C733 C731 1.408 . S
C733 C732 1.310 . S
C733 H753 0.930 . S
C734 C735 1.474 . S
C734 C736 1.285 . S
C734 H754 0.929 . S
C735 C732 1.461 . S
C735 C734 1.474 . S
C736 C731 1.342 . S
C736 C734 1.285 . S
C736 H755 0.930 . S
C737 C740 1.424 . S
C737 C742 1.245 . S
C737 C743 1.428 . S
C738 C741 1.260 . S
C738 C742 1.477 . S
C738 H756 0.932 . S
C739 C740 1.384 . S
C739 C741 1.479 . S
C739 H757 0.929 . S
C740 C737 1.424 . S
C740 C739 1.384 . S
C740 H758 0.928 . S
C741 C738 1.260 . S
C741 C739 1.479 . S
C742 C737 1.245 . S
C742 C738 1.477 . S
C742 H759 0.932 . S
C743 U726 2.882 . S
C743 C737 1.428 . S
C743 O746 1.301 . S
C743 O747 1.282 . S
O744 U726 2.441 . S
O744 C730 1.249 . S
O745 U726 2.420 . S
O745 C730 1.202 . S
O746 U726 2.455 . S
O746 C743 1.301 . S
O747 U726 2.449 . S
O747 C743 1.282 . S
H748 C721 0.931 . S
H749 C723 0.929 . S
H750 C724 0.930 . S
H751 C725 0.931 . S
H752 C732 0.932 . S
H753 C733 0.930 . S
H754 C734 0.929 . S
H755 C736 0.930 . S
H756 C738 0.932 . S
H757 C739 0.929 . S
H758 C740 0.928 . S
H759 C742 0.932 . S
C760 C761 1.264 . S
C760 C765 1.479 . S
C760 C770 1.465 . S
C761 C760 1.264 . S
C761 C763 1.339 . S
C761 H788 0.931 . S
C762 C763 1.395 . S
C762 C764 1.320 . S
C763 C761 1.339 . S
C763 C762 1.395 . S
C763 H789 0.929 . S
C764 C762 1.320 . S
C764 C765 1.405 . S
C764 H790 0.930 . S
C765 C760 1.479 . S
C765 C764 1.405 . S
C765 H791 0.931 . S
U766 O767 2.454 . S
U766 O768 2.458 . S
U766 C769 2.984 . S
U766 C770 2.847 . S
U766 C783 2.882 . S
U766 O784 2.441 . S
U766 O785 2.420 . S
U766 O786 2.455 . S
U766 O787 2.449 . S
O767 U766 2.454 . S
O767 C769 1.353 . S
O768 U766 2.458 . S
O768 C769 1.286 . S
C769 U766 2.984 . S
C769 O767 1.353 . S
C769 O768 1.286 . S
C769 C771 1.363 . S
C770 C760 1.465 . S
C770 U766 2.847 . S
C770 O784 1.249 . S
C770 O785 1.202 . S
C771 C769 1.363 . S
C771 C773 1.408 . S
C771 C776 1.342 . S
C772 C773 1.310 . S
C772 C775 1.461 . S
C772 H792 0.932 . S
C773 C771 1.408 . S
C773 C772 1.310 . S
C773 H793 0.930 . S
C774 C775 1.474 . S
C774 C776 1.285 . S
C774 H794 0.929 . S
C775 C772 1.461 . S
C775 C774 1.474 . S
C776 C771 1.342 . S
C776 C774 1.285 . S
C776 H795 0.930 . S
C777 C780 1.424 . S
C777 C782 1.245 . S
C777 C783 1.428 . S
C778 C781 1.260 . S
C778 C782 1.477 . S
C778 H796 0.932 . S
C779 C780 1.384 . S
C779 C781 1.479 . S
C779 H797 0.929 . S
C780 C777 1.424 . S
C780 C779 1.384 . S
C780 H798 0.928 . S
C781 C778 1.260 . S
C781 C779 1.479 . S
C782 C777 1.245 . S
C782 C778 1.477 . S
C782 H799 0.932 . S
C783 U766 2.882 . S
C783 C777 1.428 . S
C783 O786 1.301 . S
C783 O787 1.282 . S
O784 U766 2.441 . S
O784 C770 1.249 . S
O785 U766 2.420 . S
O785 C770 1.202 . S
O786 U766 2.455 . S
O786 C783 1.301 . S
O787 U766 2.449 . S
O787 C783 1.282 . S
H788 C761 0.931 . S
H789 C763 0.929 . S
H790 C764 0.930 . S
H791 C765 0.931 . S
H792 C772 0.932 . S
H793 C773 0.930 . S
H794 C774 0.929 . S
H795 C776 0.930 . S
H796 C778 0.932 . S
H797 C779 0.929 . S
H798 C780 0.928 . S
H799 C782 0.932 . S
C800 C801 1.264 . S
C800 C805 1.479 . S
C800 C810 1.465 . S
C801 C800 1.264 . S
C801 C803 1.339 . S
C801 H828 0.931 . S
C802 C803 1.395 . S
C802 C804 1.320 . S
C803 C801 1.339 . S
C803 C802 1.395 . S
C803 H829 0.929 . S
C804 C802 1.320 . S
C804 C805 1.405 . S
C804 H830 0.930 . S
C805 C800 1.479 . S
C805 C804 1.405 . S
C805 H831 0.931 . S
U806 O807 2.454 . S
U806 O808 2.458 . S
U806 C809 2.984 . S
U806 C810 2.847 . S
U806 C823 2.882 . S
U806 O824 2.441 . S
U806 O825 2.420 . S
U806 O826 2.455 . S
U806 O827 2.449 . S
O807 U806 2.454 . S
O807 C809 1.353 . S
O808 U806 2.458 . S
O808 C809 1.286 . S
C809 U806 2.984 . S
C809 O807 1.353 . S
C809 O808 1.286 . S
C809 C811 1.363 . S
C810 C800 1.465 . S
C810 U806 2.847 . S
C810 O824 1.249 . S
C810 O825 1.202 . S
C811 C809 1.363 . S
C811 C813 1.408 . S
C811 C816 1.342 . S
C812 C813 1.310 . S
C812 C815 1.461 . S
C812 H832 0.932 . S
C813 C811 1.408 . S
C813 C812 1.310 . S
C813 H833 0.930 . S
C814 C815 1.474 . S
C814 C816 1.285 . S
C814 H834 0.929 . S
C815 C812 1.461 . S
C815 C814 1.474 . S
C816 C811 1.342 . S
C816 C814 1.285 . S
C816 H835 0.930 . S
C817 C820 1.424 . S
C817 C822 1.245 . S
C817 C823 1.428 . S
C818 C821 1.260 . S
C818 C822 1.477 . S
C818 H836 0.932 . S
C819 C820 1.384 . S
C819 C821 1.479 . S
C819 H837 0.929 . S
C820 C817 1.424 . S
C820 C819 1.384 . S
C820 H838 0.928 . S
C821 C818 1.260 . S
C821 C819 1.479 . S
C822 C817 1.245 . S
C822 C818 1.477 . S
C822 H839 0.932 . S
C823 U806 2.882 . S
C823 C817 1.428 . S
C823 O826 1.301 . S
C823 O827 1.282 . S
O824 U806 2.441 . S
O824 C810 1.249 . S
O825 U806 2.420 . S
O825 C810 1.202 . S
O826 U806 2.455 . S
O826 C823 1.301 . S
O827 U806 2.449 . S
O827 C823 1.282 . S
H828 C801 0.931 . S
H829 C803 0.929 . S
H830 C804 0.930 . S
H831 C805 0.931 . S
H832 C812 0.932 . S
H833 C813 0.930 . S
H834 C814 0.929 . S
H835 C816 0.930 . S
H836 C818 0.932 . S
H837 C819 0.929 . S
H838 C820 0.928 . S
H839 C822 0.932 . S
C840 C841 1.264 . S
C840 C845 1.479 . S
C840 C850 1.465 . S
C841 C840 1.264 . S
C841 C843 1.339 . S
C841 H868 0.931 . S
C842 C843 1.395 . S
C842 C844 1.320 . S
C843 C841 1.339 . S
C843 C842 1.395 . S
C843 H869 0.929 . S
C844 C842 1.320 . S
C844 C845 1.405 . S
C844 H870 0.930 . S
C845 C840 1.479 . S
C845 C844 1.405 . S
C845 H871 0.931 . S
U846 O847 2.454 . S
U846 O848 2.458 . S
U846 C849 2.984 . S
U846 C850 2.847 . S
U846 C863 2.882 . S
U846 O864 2.441 . S
U846 O865 2.420 . S
U846 O866 2.455 . S
U846 O867 2.449 . S
O847 U846 2.454 . S
O847 C849 1.353 . S
O848 U846 2.458 . S
O848 C849 1.286 . S
C849 U846 2.984 . S
C849 O847 1.353 . S
C849 O848 1.286 . S
C849 C851 1.363 . S
C850 C840 1.465 . S
C850 U846 2.847 . S
C850 O864 1.249 . S
C850 O865 1.202 . S
C851 C849 1.363 . S
C851 C853 1.408 . S
C851 C856 1.342 . S
C852 C853 1.310 . S
C852 C855 1.461 . S
C852 H872 0.932 . S
C853 C851 1.408 . S
C853 C852 1.310 . S
C853 H873 0.930 . S
C854 C855 1.474 . S
C854 C856 1.285 . S
C854 H874 0.929 . S
C855 C852 1.461 . S
C855 C854 1.474 . S
C856 C851 1.342 . S
C856 C854 1.285 . S
C856 H875 0.930 . S
C857 C860 1.424 . S
C857 C862 1.245 . S
C857 C863 1.428 . S
C858 C861 1.260 . S
C858 C862 1.477 . S
C858 H876 0.932 . S
C859 C860 1.384 . S
C859 C861 1.479 . S
C859 H877 0.929 . S
C860 C857 1.424 . S
C860 C859 1.384 . S
C860 H878 0.928 . S
C861 C858 1.260 . S
C861 C859 1.479 . S
C862 C857 1.245 . S
C862 C858 1.477 . S
C862 H879 0.932 . S
C863 U846 2.882 . S
C863 C857 1.428 . S
C863 O866 1.301 . S
C863 O867 1.282 . S
O864 U846 2.441 . S
O864 C850 1.249 . S
O865 U846 2.420 . S
O865 C850 1.202 . S
O866 U846 2.455 . S
O866 C863 1.301 . S
O867 U846 2.449 . S
O867 C863 1.282 . S
H868 C841 0.931 . S
H869 C843 0.929 . S
H870 C844 0.930 . S
H871 C845 0.931 . S
H872 C852 0.932 . S
H873 C853 0.930 . S
H874 C854 0.929 . S
H875 C856 0.930 . S
H876 C858 0.932 . S
H877 C859 0.929 . S
H878 C860 0.928 . S
H879 C862 0.932 . S
C880 C881 1.264 . S
C880 C885 1.479 . S
C880 C890 1.465 . S
C881 C880 1.264 . S
C881 C883 1.339 . S
C881 H908 0.931 . S
C882 C883 1.395 . S
C882 C884 1.320 . S
C883 C881 1.339 . S
C883 C882 1.395 . S
C883 H909 0.929 . S
C884 C882 1.320 . S
C884 C885 1.405 . S
C884 H910 0.930 . S
C885 C880 1.479 . S
C885 C884 1.405 . S
C885 H911 0.931 . S
U886 O887 2.454 . S
U886 O888 2.458 . S
U886 C889 2.984 . S
U886 C890 2.847 . S
U886 C903 2.882 . S
U886 O904 2.441 . S
U886 O905 2.420 . S
U886 O906 2.455 . S
U886 O907 2.449 . S
O887 U886 2.454 . S
O887 C889 1.353 . S
O888 U886 2.458 . S
O888 C889 1.286 . S
C889 U886 2.984 . S
C889 O887 1.353 . S
C889 O888 1.286 . S
C889 C891 1.363 . S
C890 C880 1.465 . S
C890 U886 2.847 . S
C890 O904 1.249 . S
C890 O905 1.202 . S
C891 C889 1.363 . S
C891 C893 1.408 . S
C891 C896 1.342 . S
C892 C893 1.310 . S
C892 C895 1.461 . S
C892 H912 0.932 . S
C893 C891 1.408 . S
C893 C892 1.310 . S
C893 H913 0.930 . S
C894 C895 1.474 . S
C894 C896 1.285 . S
C894 H914 0.929 . S
C895 C892 1.461 . S
C895 C894 1.474 . S
C896 C891 1.342 . S
C896 C894 1.285 . S
C896 H915 0.930 . S
C897 C900 1.424 . S
C897 C902 1.245 . S
C897 C903 1.428 . S
C898 C901 1.260 . S
C898 C902 1.477 . S
C898 H916 0.932 . S
C899 C900 1.384 . S
C899 C901 1.479 . S
C899 H917 0.929 . S
C900 C897 1.424 . S
C900 C899 1.384 . S
C900 H918 0.928 . S
C901 C898 1.260 . S
C901 C899 1.479 . S
C902 C897 1.245 . S
C902 C898 1.477 . S
C902 H919 0.932 . S
C903 U886 2.882 . S
C903 C897 1.428 . S
C903 O906 1.301 . S
C903 O907 1.282 . S
O904 U886 2.441 . S
O904 C890 1.249 . S
O905 U886 2.420 . S
O905 C890 1.202 . S
O906 U886 2.455 . S
O906 C903 1.301 . S
O907 U886 2.449 . S
O907 C903 1.282 . S
H908 C881 0.931 . S
H909 C883 0.929 . S
H910 C884 0.930 . S
H911 C885 0.931 . S
H912 C892 0.932 . S
H913 C893 0.930 . S
H914 C894 0.929 . S
H915 C896 0.930 . S
H916 C898 0.932 . S
H917 C899 0.929 . S
H918 C900 0.928 . S
H919 C902 0.932 . S
C920 C921 1.264 . S
C920 C925 1.479 . S
C920 C930 1.465 . S
C921 C920 1.264 . S
C921 C923 1.339 . S
C921 H948 0.931 . S
C922 C923 1.395 . S
C922 C924 1.320 . S
C923 C921 1.339 . S
C923 C922 1.395 . S
C923 H949 0.929 . S
C924 C922 1.320 . S
C924 C925 1.405 . S
C924 H950 0.930 . S
C925 C920 1.479 . S
C925 C924 1.405 . S
C925 H951 0.931 . S
U926 O927 2.454 . S
U926 O928 2.458 . S
U926 C929 2.984 . S
U926 C930 2.847 . S
U926 C943 2.882 . S
U926 O944 2.441 . S
U926 O945 2.420 . S
U926 O946 2.455 . S
U926 O947 2.449 . S
O927 U926 2.454 . S
O927 C929 1.353 . S
O928 U926 2.458 . S
O928 C929 1.286 . S
C929 U926 2.984 . S
C929 O927 1.353 . S
C929 O928 1.286 . S
C929 C931 1.363 . S
C930 C920 1.465 . S
C930 U926 2.847 . S
C930 O944 1.249 . S
C930 O945 1.202 . S
C931 C929 1.363 . S
C931 C933 1.408 . S
C931 C936 1.342 . S
C932 C933 1.310 . S
C932 C935 1.461 . S
C932 H952 0.932 . S
C933 C931 1.408 . S
C933 C932 1.310 . S
C933 H953 0.930 . S
C934 C935 1.474 . S
C934 C936 1.285 . S
C934 H954 0.929 . S
C935 C932 1.461 . S
C935 C934 1.474 . S
C936 C931 1.342 . S
C936 C934 1.285 . S
C936 H955 0.930 . S
C937 C940 1.424 . S
C937 C942 1.245 . S
C937 C943 1.428 . S
C938 C941 1.260 . S
C938 C942 1.477 . S
C938 H956 0.932 . S
C939 C940 1.384 . S
C939 C941 1.479 . S
C939 H957 0.929 . S
C940 C937 1.424 . S
C940 C939 1.384 . S
C940 H958 0.928 . S
C941 C938 1.260 . S
C941 C939 1.479 . S
C942 C937 1.245 . S
C942 C938 1.477 . S
C942 H959 0.932 . S
C943 U926 2.882 . S
C943 C937 1.428 . S
C943 O946 1.301 . S
C943 O947 1.282 . S
O944 U926 2.441 . S
O944 C930 1.249 . S
O945 U926 2.420 . S
O945 C930 1.202 . S
O946 U926 2.455 . S
O946 C943 1.301 . S
O947 U926 2.449 . S
O947 C943 1.282 . S
H948 C921 0.931 . S
H949 C923 0.929 . S
H950 C924 0.930 . S
H951 C925 0.931 . S
H952 C932 0.932 . S
H953 C933 0.930 . S
H954 C934 0.929 . S
H955 C936 0.930 . S
H956 C938 0.932 . S
H957 C939 0.929 . S
H958 C940 0.928 . S
H959 C942 0.932 . S
C960 C961 1.264 . S
C960 C965 1.479 . S
C960 C970 1.465 . S
C961 C960 1.264 . S
C961 C963 1.339 . S
C961 H988 0.931 . S
C962 C963 1.395 . S
C962 C964 1.320 . S
C963 C961 1.339 . S
C963 C962 1.395 . S
C963 H989 0.929 . S
C964 C962 1.320 . S
C964 C965 1.405 . S
C964 H990 0.930 . S
C965 C960 1.479 . S
C965 C964 1.405 . S
C965 H991 0.931 . S
U966 O967 2.454 . S
U966 O968 2.458 . S
U966 C969 2.984 . S
U966 C970 2.847 . S
U966 C983 2.882 . S
U966 O984 2.441 . S
U966 O985 2.420 . S
U966 O986 2.455 . S
U966 O987 2.449 . S
O967 U966 2.454 . S
O967 C969 1.353 . S
O968 U966 2.458 . S
O968 C969 1.286 . S
C969 U966 2.984 . S
C969 O967 1.353 . S
C969 O968 1.286 . S
C969 C971 1.363 . S
C970 C960 1.465 . S
C970 U966 2.847 . S
C970 O984 1.249 . S
C970 O985 1.202 . S
C971 C969 1.363 . S
C971 C973 1.408 . S
C971 C976 1.342 . S
C972 C973 1.310 . S
C972 C975 1.461 . S
C972 H992 0.932 . S
C973 C971 1.408 . S
C973 C972 1.310 . S
C973 H993 0.930 . S
C974 C975 1.474 . S
C974 C976 1.285 . S
C974 H994 0.929 . S
C975 C972 1.461 . S
C975 C974 1.474 . S
C976 C971 1.342 . S
C976 C974 1.285 . S
C976 H995 0.930 . S
C977 C980 1.424 . S
C977 C982 1.245 . S
C977 C983 1.428 . S
C978 C981 1.260 . S
C978 C982 1.477 . S
C978 H996 0.932 . S
C979 C980 1.384 . S
C979 C981 1.479 . S
C979 H997 0.929 . S
C980 C977 1.424 . S
C980 C979 1.384 . S
C980 H998 0.928 . S
C981 C978 1.260 . S
C981 C979 1.479 . S
C982 C977 1.245 . S
C982 C978 1.477 . S
C982 H999 0.932 . S
C983 U966 2.882 . S
C983 C977 1.428 . S
C983 O986 1.301 . S
C983 O987 1.282 . S
O984 U966 2.441 . S
O984 C970 1.249 . S
O985 U966 2.420 . S
O985 C970 1.202 . S
O986 U966 2.455 . S
O986 C983 1.301 . S
O987 U966 2.449 . S
O987 C983 1.282 . S
H988 C961 0.931 . S
H989 C963 0.929 . S
H990 C964 0.930 . S
H991 C965 0.931 . S
H992 C972 0.932 . S
H993 C973 0.930 . S
H994 C974 0.929 . S
H995 C976 0.930 . S
H996 C978 0.932 . S
H997 C979 0.929 . S
H998 C980 0.928 . S
H999 C982 0.932 . S
C1000 C1001 1.264 . S
C1000 C1005 1.479 . S
C1000 C1010 1.465 . S
C1001 C1000 1.264 . S
C1001 C1003 1.339 . S
C1001 H1028 0.931 . S
C1002 C1003 1.395 . S
C1002 C1004 1.320 . S
C1003 C1001 1.339 . S
C1003 C1002 1.395 . S
C1003 H1029 0.929 . S
C1004 C1002 1.320 . S
C1004 C1005 1.405 . S
C1004 H1030 0.930 . S
C1005 C1000 1.479 . S
C1005 C1004 1.405 . S
C1005 H1031 0.931 . S
U1006 O1007 2.454 . S
U1006 O1008 2.458 . S
U1006 C1009 2.984 . S
U1006 C1010 2.847 . S
U1006 C1023 2.882 . S
U1006 O1024 2.441 . S
U1006 O1025 2.420 . S
U1006 O1026 2.455 . S
U1006 O1027 2.449 . S
O1007 U1006 2.454 . S
O1007 C1009 1.353 . S
O1008 U1006 2.458 . S
O1008 C1009 1.286 . S
C1009 U1006 2.984 . S
C1009 O1007 1.353 . S
C1009 O1008 1.286 . S
C1009 C1011 1.363 . S
C1010 C1000 1.465 . S
C1010 U1006 2.847 . S
C1010 O1024 1.249 . S
C1010 O1025 1.202 . S
C1011 C1009 1.363 . S
C1011 C1013 1.408 . S
C1011 C1016 1.342 . S
C1012 C1013 1.310 . S
C1012 C1015 1.461 . S
C1012 H1032 0.932 . S
C1013 C1011 1.408 . S
C1013 C1012 1.310 . S
C1013 H1033 0.930 . S
C1014 C1015 1.474 . S
C1014 C1016 1.285 . S
C1014 H1034 0.929 . S
C1015 C1012 1.461 . S
C1015 C1014 1.474 . S
C1016 C1011 1.342 . S
C1016 C1014 1.285 . S
C1016 H1035 0.930 . S
C1017 C1020 1.424 . S
C1017 C1022 1.245 . S
C1017 C1023 1.428 . S
C1018 C1021 1.260 . S
C1018 C1022 1.477 . S
C1018 H1036 0.932 . S
C1019 C1020 1.384 . S
C1019 C1021 1.479 . S
C1019 H1037 0.929 . S
C1020 C1017 1.424 . S
C1020 C1019 1.384 . S
C1020 H1038 0.928 . S
C1021 C1018 1.260 . S
C1021 C1019 1.479 . S
C1022 C1017 1.245 . S
C1022 C1018 1.477 . S
C1022 H1039 0.932 . S
C1023 U1006 2.882 . S
C1023 C1017 1.428 . S
C1023 O1026 1.301 . S
C1023 O1027 1.282 . S
O1024 U1006 2.441 . S
O1024 C1010 1.249 . S
O1025 U1006 2.420 . S
O1025 C1010 1.202 . S
O1026 U1006 2.455 . S
O1026 C1023 1.301 . S
O1027 U1006 2.449 . S
O1027 C1023 1.282 . S
H1028 C1001 0.931 . S
H1029 C1003 0.929 . S
H1030 C1004 0.930 . S
H1031 C1005 0.931 . S
H1032 C1012 0.932 . S
H1033 C1013 0.930 . S
H1034 C1014 0.929 . S
H1035 C1016 0.930 . S
H1036 C1018 0.932 . S
H1037 C1019 0.929 . S
H1038 C1020 0.928 . S
H1039 C1022 0.932 . S
C1040 C1041 1.264 . S
C1040 C1045 1.479 . S
C1040 C1050 1.465 . S
C1041 C1040 1.264 . S
C1041 C1043 1.339 . S
C1041 H1068 0.931 . S
C1042 C1043 1.395 . S
C1042 C1044 1.320 . S
C1043 C1041 1.339 . S
C1043 C1042 1.395 . S
C1043 H1069 0.929 . S
C1044 C1042 1.320 . S
C1044 C1045 1.405 . S
C1044 H1070 0.930 . S
C1045 C1040 1.479 . S
C1045 C1044 1.405 . S
C1045 H1071 0.931 . S
U1046 O1047 2.454 . S
U1046 O1048 2.458 . S
U1046 C1049 2.984 . S
U1046 C1050 2.847 . S
U1046 C1063 2.882 . S
U1046 O1064 2.441 . S
U1046 O1065 2.420 . S
U1046 O1066 2.455 . S
U1046 O1067 2.449 . S
O1047 U1046 2.454 . S
O1047 C1049 1.353 . S
O1048 U1046 2.458 . S
O1048 C1049 1.286 . S
C1049 U1046 2.984 . S
C1049 O1047 1.353 . S
C1049 O1048 1.286 . S
C1049 C1051 1.363 . S
C1050 C1040 1.465 . S
C1050 U1046 2.847 . S
C1050 O1064 1.249 . S
C1050 O1065 1.202 . S
C1051 C1049 1.363 . S
C1051 C1053 1.408 . S
C1051 C1056 1.342 . S
C1052 C1053 1.310 . S
C1052 C1055 1.461 . S
C1052 H1072 0.932 . S
C1053 C1051 1.408 . S
C1053 C1052 1.310 . S
C1053 H1073 0.930 . S
C1054 C1055 1.474 . S
C1054 C1056 1.285 . S
C1054 H1074 0.929 . S
C1055 C1052 1.461 . S
C1055 C1054 1.474 . S
C1056 C1051 1.342 . S
C1056 C1054 1.285 . S
C1056 H1075 0.930 . S
C1057 C1060 1.424 . S
C1057 C1062 1.245 . S
C1057 C1063 1.428 . S
C1058 C1061 1.260 . S
C1058 C1062 1.477 . S
C1058 H1076 0.932 . S
C1059 C1060 1.384 . S
C1059 C1061 1.479 . S
C1059 H1077 0.929 . S
C1060 C1057 1.424 . S
C1060 C1059 1.384 . S
C1060 H1078 0.928 . S
C1061 C1058 1.260 . S
C1061 C1059 1.479 . S
C1062 C1057 1.245 . S
C1062 C1058 1.477 . S
C1062 H1079 0.932 . S
C1063 U1046 2.882 . S
C1063 C1057 1.428 . S
C1063 O1066 1.301 . S
C1063 O1067 1.282 . S
O1064 U1046 2.441 . S
O1064 C1050 1.249 . S
O1065 U1046 2.420 . S
O1065 C1050 1.202 . S
O1066 U1046 2.455 . S
O1066 C1063 1.301 . S
O1067 U1046 2.449 . S
O1067 C1063 1.282 . S
H1068 C1041 0.931 . S
H1069 C1043 0.929 . S
H1070 C1044 0.930 . S
H1071 C1045 0.931 . S
H1072 C1052 0.932 . S
H1073 C1053 0.930 . S
H1074 C1054 0.929 . S
H1075 C1056 0.930 . S
H1076 C1058 0.932 . S
H1077 C1059 0.929 . S
H1078 C1060 0.928 . S
H1079 C1062 0.932 . S
C1080 C1081 1.264 . S
C1080 C1085 1.479 . S
C1080 C1090 1.465 . S
C1081 C1080 1.264 . S
C1081 C1083 1.339 . S
C1081 H1108 0.931 . S
C1082 C1083 1.395 . S
C1082 C1084 1.320 . S
C1083 C1081 1.339 . S
C1083 C1082 1.395 . S
C1083 H1109 0.929 . S
C1084 C1082 1.320 . S
C1084 C1085 1.405 . S
C1084 H1110 0.930 . S
C1085 C1080 1.479 . S
C1085 C1084 1.405 . S
C1085 H1111 0.931 . S
U1086 O1087 2.454 . S
U1086 O1088 2.458 . S
U1086 C1089 2.984 . S
U1086 C1090 2.847 . S
U1086 C1103 2.882 . S
U1086 O1104 2.441 . S
U1086 O1105 2.420 . S
U1086 O1106 2.455 . S
U1086 O1107 2.449 . S
O1087 U1086 2.454 . S
O1087 C1089 1.353 . S
O1088 U1086 2.458 . S
O1088 C1089 1.286 . S
C1089 U1086 2.984 . S
C1089 O1087 1.353 . S
C1089 O1088 1.286 . S
C1089 C1091 1.363 . S
C1090 C1080 1.465 . S
C1090 U1086 2.847 . S
C1090 O1104 1.249 . S
C1090 O1105 1.202 . S
C1091 C1089 1.363 . S
C1091 C1093 1.408 . S
C1091 C1096 1.342 . S
C1092 C1093 1.310 . S
C1092 C1095 1.461 . S
C1092 H1112 0.932 . S
C1093 C1091 1.408 . S
C1093 C1092 1.310 . S
C1093 H1113 0.930 . S
C1094 C1095 1.474 . S
C1094 C1096 1.285 . S
C1094 H1114 0.929 . S
C1095 C1092 1.461 . S
C1095 C1094 1.474 . S
C1096 C1091 1.342 . S
C1096 C1094 1.285 . S
C1096 H1115 0.930 . S
C1097 C1100 1.424 . S
C1097 C1102 1.245 . S
C1097 C1103 1.428 . S
C1098 C1101 1.260 . S
C1098 C1102 1.477 . S
C1098 H1116 0.932 . S
C1099 C1100 1.384 . S
C1099 C1101 1.479 . S
C1099 H1117 0.929 . S
C1100 C1097 1.424 . S
C1100 C1099 1.384 . S
C1100 H1118 0.928 . S
C1101 C1098 1.260 . S
C1101 C1099 1.479 . S
C1102 C1097 1.245 . S
C1102 C1098 1.477 . S
C1102 H1119 0.932 . S
C1103 U1086 2.882 . S
C1103 C1097 1.428 . S
C1103 O1106 1.301 . S
C1103 O1107 1.282 . S
O1104 U1086 2.441 . S
O1104 C1090 1.249 . S
O1105 U1086 2.420 . S
O1105 C1090 1.202 . S
O1106 U1086 2.455 . S
O1106 C1103 1.301 . S
O1107 U1086 2.449 . S
O1107 C1103 1.282 . S
H1108 C1081 0.931 . S
H1109 C1083 0.929 . S
H1110 C1084 0.930 . S
H1111 C1085 0.931 . S
H1112 C1092 0.932 . S
H1113 C1093 0.930 . S
H1114 C1094 0.929 . S
H1115 C1096 0.930 . S
H1116 C1098 0.932 . S
H1117 C1099 0.929 . S
H1118 C1100 0.928 . S
H1119 C1102 0.932 . S
C1120 C1121 1.264 . S
C1120 C1125 1.479 . S
C1120 C1130 1.465 . S
C1121 C1120 1.264 . S
C1121 C1123 1.339 . S
C1121 H1148 0.931 . S
C1122 C1123 1.395 . S
C1122 C1124 1.320 . S
C1123 C1121 1.339 . S
C1123 C1122 1.395 . S
C1123 H1149 0.929 . S
C1124 C1122 1.320 . S
C1124 C1125 1.405 . S
C1124 H1150 0.930 . S
C1125 C1120 1.479 . S
C1125 C1124 1.405 . S
C1125 H1151 0.931 . S
U1126 O1127 2.454 . S
U1126 O1128 2.458 . S
U1126 C1129 2.984 . S
U1126 C1130 2.847 . S
U1126 C1143 2.882 . S
U1126 O1144 2.441 . S
U1126 O1145 2.420 . S
U1126 O1146 2.455 . S
U1126 O1147 2.449 . S
O1127 U1126 2.454 . S
O1127 C1129 1.353 . S
O1128 U1126 2.458 . S
O1128 C1129 1.286 . S
C1129 U1126 2.984 . S
C1129 O1127 1.353 . S
C1129 O1128 1.286 . S
C1129 C1131 1.363 . S
C1130 C1120 1.465 . S
C1130 U1126 2.847 . S
C1130 O1144 1.249 . S
C1130 O1145 1.202 . S
C1131 C1129 1.363 . S
C1131 C1133 1.408 . S
C1131 C1136 1.342 . S
C1132 C1133 1.310 . S
C1132 C1135 1.461 . S
C1132 H1152 0.932 . S
C1133 C1131 1.408 . S
C1133 C1132 1.310 . S
C1133 H1153 0.930 . S
C1134 C1135 1.474 . S
C1134 C1136 1.285 . S
C1134 H1154 0.929 . S
C1135 C1132 1.461 . S
C1135 C1134 1.474 . S
C1136 C1131 1.342 . S
C1136 C1134 1.285 . S
C1136 H1155 0.930 . S
C1137 C1140 1.424 . S
C1137 C1142 1.245 . S
C1137 C1143 1.428 . S
C1138 C1141 1.260 . S
C1138 C1142 1.477 . S
C1138 H1156 0.932 . S
C1139 C1140 1.384 . S
C1139 C1141 1.479 . S
C1139 H1157 0.929 . S
C1140 C1137 1.424 . S
C1140 C1139 1.384 . S
C1140 H1158 0.928 . S
C1141 C1138 1.260 . S
C1141 C1139 1.479 . S
C1142 C1137 1.245 . S
C1142 C1138 1.477 . S
C1142 H1159 0.932 . S
C1143 U1126 2.882 . S
C1143 C1137 1.428 . S
C1143 O1146 1.301 . S
C1143 O1147 1.282 . S
O1144 U1126 2.441 . S
O1144 C1130 1.249 . S
O1145 U1126 2.420 . S
O1145 C1130 1.202 . S
O1146 U1126 2.455 . S
O1146 C1143 1.301 . S
O1147 U1126 2.449 . S
O1147 C1143 1.282 . S
H1148 C1121 0.931 . S
H1149 C1123 0.929 . S
H1150 C1124 0.930 . S
H1151 C1125 0.931 . S
H1152 C1132 0.932 . S
H1153 C1133 0.930 . S
H1154 C1134 0.929 . S
H1155 C1136 0.930 . S
H1156 C1138 0.932 . S
H1157 C1139 0.929 . S
H1158 C1140 0.928 . S
H1159 C1142 0.932 . S
C1160 C1161 1.264 . S
C1160 C1165 1.479 . S
C1160 C1170 1.465 . S
C1161 C1160 1.264 . S
C1161 C1163 1.339 . S
C1161 H1188 0.931 . S
C1162 C1163 1.395 . S
C1162 C1164 1.320 . S
C1163 C1161 1.339 . S
C1163 C1162 1.395 . S
C1163 H1189 0.929 . S
C1164 C1162 1.320 . S
C1164 C1165 1.405 . S
C1164 H1190 0.930 . S
C1165 C1160 1.479 . S
C1165 C1164 1.405 . S
C1165 H1191 0.931 . S
U1166 O1167 2.454 . S
U1166 O1168 2.458 . S
U1166 C1169 2.984 . S
U1166 C1170 2.847 . S
U1166 C1183 2.882 . S
U1166 O1184 2.441 . S
U1166 O1185 2.420 . S
U1166 O1186 2.455 . S
U1166 O1187 2.449 . S
O1167 U1166 2.454 . S
O1167 C1169 1.353 . S
O1168 U1166 2.458 . S
O1168 C1169 1.286 . S
C1169 U1166 2.984 . S
C1169 O1167 1.353 . S
C1169 O1168 1.286 . S
C1169 C1171 1.363 . S
C1170 C1160 1.465 . S
C1170 U1166 2.847 . S
C1170 O1184 1.249 . S
C1170 O1185 1.202 . S
C1171 C1169 1.363 . S
C1171 C1173 1.408 . S
C1171 C1176 1.342 . S
C1172 C1173 1.310 . S
C1172 C1175 1.461 . S
C1172 H1192 0.932 . S
C1173 C1171 1.408 . S
C1173 C1172 1.310 . S
C1173 H1193 0.930 . S
C1174 C1175 1.474 . S
C1174 C1176 1.285 . S
C1174 H1194 0.929 . S
C1175 C1172 1.461 . S
C1175 C1174 1.474 . S
C1176 C1171 1.342 . S
C1176 C1174 1.285 . S
C1176 H1195 0.930 . S
C1177 C1180 1.424 . S
C1177 C1182 1.245 . S
C1177 C1183 1.428 . S
C1178 C1181 1.260 . S
C1178 C1182 1.477 . S
C1178 H1196 0.932 . S
C1179 C1180 1.384 . S
C1179 C1181 1.479 . S
C1179 H1197 0.929 . S
C1180 C1177 1.424 . S
C1180 C1179 1.384 . S
C1180 H1198 0.928 . S
C1181 C1178 1.260 . S
C1181 C1179 1.479 . S
C1182 C1177 1.245 . S
C1182 C1178 1.477 . S
C1182 H1199 0.932 . S
C1183 U1166 2.882 . S
C1183 C1177 1.428 . S
C1183 O1186 1.301 . S
C1183 O1187 1.282 . S
O1184 U1166 2.441 . S
O1184 C1170 1.249 . S
O1185 U1166 2.420 . S
O1185 C1170 1.202 . S
O1186 U1166 2.455 . S
O1186 C1183 1.301 . S
O1187 U1166 2.449 . S
O1187 C1183 1.282 . S
H1188 C1161 0.931 . S
H1189 C1163 0.929 . S
H1190 C1164 0.930 . S
H1191 C1165 0.931 . S
H1192 C1172 0.932 . S
H1193 C1173 0.930 . S
H1194 C1174 0.929 . S
H1195 C1176 0.930 . S
H1196 C1178 0.932 . S
H1197 C1179 0.929 . S
H1198 C1180 0.928 . S
H1199 C1182 0.932 . S
C1200 C1201 1.264 . S
C1200 C1205 1.479 . S
C1200 C1210 1.465 . S
C1201 C1200 1.264 . S
C1201 C1203 1.339 . S
C1201 H1228 0.931 . S
C1202 C1203 1.395 . S
C1202 C1204 1.320 . S
C1203 C1201 1.339 . S
C1203 C1202 1.395 . S
C1203 H1229 0.929 . S
C1204 C1202 1.320 . S
C1204 C1205 1.405 . S
C1204 H1230 0.930 . S
C1205 C1200 1.479 . S
C1205 C1204 1.405 . S
C1205 H1231 0.931 . S
U1206 O1207 2.454 . S
U1206 O1208 2.458 . S
U1206 C1209 2.984 . S
U1206 C1210 2.847 . S
U1206 C1223 2.882 . S
U1206 O1224 2.441 . S
U1206 O1225 2.420 . S
U1206 O1226 2.455 . S
U1206 O1227 2.449 . S
O1207 U1206 2.454 . S
O1207 C1209 1.353 . S
O1208 U1206 2.458 . S
O1208 C1209 1.286 . S
C1209 U1206 2.984 . S
C1209 O1207 1.353 . S
C1209 O1208 1.286 . S
C1209 C1211 1.363 . S
C1210 C1200 1.465 . S
C1210 U1206 2.847 . S
C1210 O1224 1.249 . S
C1210 O1225 1.202 . S
C1211 C1209 1.363 . S
C1211 C1213 1.408 . S
C1211 C1216 1.342 . S
C1212 C1213 1.310 . S
C1212 C1215 1.461 . S
C1212 H1232 0.932 . S
C1213 C1211 1.408 . S
C1213 C1212 1.310 . S
C1213 H1233 0.930 . S
C1214 C1215 1.474 . S
C1214 C1216 1.285 . S
C1214 H1234 0.929 . S
C1215 C1212 1.461 . S
C1215 C1214 1.474 . S
C1216 C1211 1.342 . S
C1216 C1214 1.285 . S
C1216 H1235 0.930 . S
C1217 C1220 1.424 . S
C1217 C1222 1.245 . S
C1217 C1223 1.428 . S
C1218 C1221 1.260 . S
C1218 C1222 1.477 . S
C1218 H1236 0.932 . S
C1219 C1220 1.384 . S
C1219 C1221 1.479 . S
C1219 H1237 0.929 . S
C1220 C1217 1.424 . S
C1220 C1219 1.384 . S
C1220 H1238 0.928 . S
C1221 C1218 1.260 . S
C1221 C1219 1.479 . S
C1222 C1217 1.245 . S
C1222 C1218 1.477 . S
C1222 H1239 0.932 . S
C1223 U1206 2.882 . S
C1223 C1217 1.428 . S
C1223 O1226 1.301 . S
C1223 O1227 1.282 . S
O1224 U1206 2.441 . S
O1224 C1210 1.249 . S
O1225 U1206 2.420 . S
O1225 C1210 1.202 . S
O1226 U1206 2.455 . S
O1226 C1223 1.301 . S
O1227 U1206 2.449 . S
O1227 C1223 1.282 . S
H1228 C1201 0.931 . S
H1229 C1203 0.929 . S
H1230 C1204 0.930 . S
H1231 C1205 0.931 . S
H1232 C1212 0.932 . S
H1233 C1213 0.930 . S
H1234 C1214 0.929 . S
H1235 C1216 0.930 . S
H1236 C1218 0.932 . S
H1237 C1219 0.929 . S
H1238 C1220 0.928 . S
H1239 C1222 0.932 . S
C1240 C1241 1.264 . S
C1240 C1245 1.479 . S
C1240 C1250 1.465 . S
C1241 C1240 1.264 . S
C1241 C1243 1.339 . S
C1241 H1268 0.931 . S
C1242 C1243 1.395 . S
C1242 C1244 1.320 . S
C1243 C1241 1.339 . S
C1243 C1242 1.395 . S
C1243 H1269 0.929 . S
C1244 C1242 1.320 . S
C1244 C1245 1.405 . S
C1244 H1270 0.930 . S
C1245 C1240 1.479 . S
C1245 C1244 1.405 . S
C1245 H1271 0.931 . S
U1246 O1247 2.454 . S
U1246 O1248 2.458 . S
U1246 C1249 2.984 . S
U1246 C1250 2.847 . S
U1246 C1263 2.882 . S
U1246 O1264 2.441 . S
U1246 O1265 2.420 . S
U1246 O1266 2.455 . S
U1246 O1267 2.449 . S
O1247 U1246 2.454 . S
O1247 C1249 1.353 . S
O1248 U1246 2.458 . S
O1248 C1249 1.286 . S
C1249 U1246 2.984 . S
C1249 O1247 1.353 . S
C1249 O1248 1.286 . S
C1249 C1251 1.363 . S
C1250 C1240 1.465 . S
C1250 U1246 2.847 . S
C1250 O1264 1.249 . S
C1250 O1265 1.202 . S
C1251 C1249 1.363 . S
C1251 C1253 1.408 . S
C1251 C1256 1.342 . S
C1252 C1253 1.310 . S
C1252 C1255 1.461 . S
C1252 H1272 0.932 . S
C1253 C1251 1.408 . S
C1253 C1252 1.310 . S
C1253 H1273 0.930 . S
C1254 C1255 1.474 . S
C1254 C1256 1.285 . S
C1254 H1274 0.929 . S
C1255 C1252 1.461 . S
C1255 C1254 1.474 . S
C1256 C1251 1.342 . S
C1256 C1254 1.285 . S
C1256 H1275 0.930 . S
C1257 C1260 1.424 . S
C1257 C1262 1.245 . S
C1257 C1263 1.428 . S
C1258 C1261 1.260 . S
C1258 C1262 1.477 . S
C1258 H1276 0.932 . S
C1259 C1260 1.384 . S
C1259 C1261 1.479 . S
C1259 H1277 0.929 . S
C1260 C1257 1.424 . S
C1260 C1259 1.384 . S
C1260 H1278 0.928 . S
C1261 C1258 1.260 . S
C1261 C1259 1.479 . S
C1262 C1257 1.245 . S
C1262 C1258 1.477 . S
C1262 H1279 0.932 . S
C1263 U1246 2.882 . S
C1263 C1257 1.428 . S
C1263 O1266 1.301 . S
C1263 O1267 1.282 . S
O1264 U1246 2.441 . S
O1264 C1250 1.249 . S
O1265 U1246 2.420 . S
O1265 C1250 1.202 . S
O1266 U1246 2.455 . S
O1266 C1263 1.301 . S
O1267 U1246 2.449 . S
O1267 C1263 1.282 . S
H1268 C1241 0.931 . S
H1269 C1243 0.929 . S
H1270 C1244 0.930 . S
H1271 C1245 0.931 . S
H1272 C1252 0.932 . S
H1273 C1253 0.930 . S
H1274 C1254 0.929 . S
H1275 C1256 0.930 . S
H1276 C1258 0.932 . S
H1277 C1259 0.929 . S
H1278 C1260 0.928 . S
H1279 C1262 0.932 . S
C1280 C1281 1.264 . S
C1280 C1285 1.479 . S
C1280 C1290 1.465 . S
C1281 C1280 1.264 . S
C1281 C1283 1.339 . S
C1281 H1308 0.931 . S
C1282 C1283 1.395 . S
C1282 C1284 1.320 . S
C1283 C1281 1.339 . S
C1283 C1282 1.395 . S
C1283 H1309 0.929 . S
C1284 C1282 1.320 . S
C1284 C1285 1.405 . S
C1284 H1310 0.930 . S
C1285 C1280 1.479 . S
C1285 C1284 1.405 . S
C1285 H1311 0.931 . S
U1286 O1287 2.454 . S
U1286 O1288 2.458 . S
U1286 C1289 2.984 . S
U1286 C1290 2.847 . S
U1286 C1303 2.882 . S
U1286 O1304 2.441 . S
U1286 O1305 2.420 . S
U1286 O1306 2.455 . S
U1286 O1307 2.449 . S
O1287 U1286 2.454 . S
O1287 C1289 1.353 . S
O1288 U1286 2.458 . S
O1288 C1289 1.286 . S
C1289 U1286 2.984 . S
C1289 O1287 1.353 . S
C1289 O1288 1.286 . S
C1289 C1291 1.363 . S
C1290 C1280 1.465 . S
C1290 U1286 2.847 . S
C1290 O1304 1.249 . S
C1290 O1305 1.202 . S
C1291 C1289 1.363 . S
C1291 C1293 1.408 . S
C1291 C1296 1.342 . S
C1292 C1293 1.310 . S
C1292 C1295 1.461 . S
C1292 H1312 0.932 . S
C1293 C1291 1.408 . S
C1293 C1292 1.310 . S
C1293 H1313 0.930 . S
C1294 C1295 1.474 . S
C1294 C1296 1.285 . S
C1294 H1314 0.929 . S
C1295 C1292 1.461 . S
C1295 C1294 1.474 . S
C1296 C1291 1.342 . S
C1296 C1294 1.285 . S
C1296 H1315 0.930 . S
C1297 C1300 1.424 . S
C1297 C1302 1.245 . S
C1297 C1303 1.428 . S
C1298 C1301 1.260 . S
C1298 C1302 1.477 . S
C1298 H1316 0.932 . S
C1299 C1300 1.384 . S
C1299 C1301 1.479 . S
C1299 H1317 0.929 . S
C1300 C1297 1.424 . S
C1300 C1299 1.384 . S
C1300 H1318 0.928 . S
C1301 C1298 1.260 . S
C1301 C1299 1.479 . S
C1302 C1297 1.245 . S
C1302 C1298 1.477 . S
C1302 H1319 0.932 . S
C1303 U1286 2.882 . S
C1303 C1297 1.428 . S
C1303 O1306 1.301 . S
C1303 O1307 1.282 . S
O1304 U1286 2.441 . S
O1304 C1290 1.249 . S
O1305 U1286 2.420 . S
O1305 C1290 1.202 . S
O1306 U1286 2.455 . S
O1306 C1303 1.301 . S
O1307 U1286 2.449 . S
O1307 C1303 1.282 . S
H1308 C1281 0.931 . S
H1309 C1283 0.929 . S
H1310 C1284 0.930 . S
H1311 C1285 0.931 . S
H1312 C1292 0.932 . S
H1313 C1293 0.930 . S
H1314 C1294 0.929 . S
H1315 C1296 0.930 . S
H1316 C1298 0.932 . S
H1317 C1299 0.929 . S
H1318 C1300 0.928 . S
H1319 C1302 0.932 . S
C1320 C1321 1.264 . S
C1320 C1325 1.479 . S
C1320 C1330 1.465 . S
C1321 C1320 1.264 . S
C1321 C1323 1.339 . S
C1321 H1348 0.931 . S
C1322 C1323 1.395 . S
C1322 C1324 1.320 . S
C1323 C1321 1.339 . S
C1323 C1322 1.395 . S
C1323 H1349 0.929 . S
C1324 C1322 1.320 . S
C1324 C1325 1.405 . S
C1324 H1350 0.930 . S
C1325 C1320 1.479 . S
C1325 C1324 1.405 . S
C1325 H1351 0.931 . S
U1326 O1327 2.454 . S
U1326 O1328 2.458 . S
U1326 C1329 2.984 . S
U1326 C1330 2.847 . S
U1326 C1343 2.882 . S
U1326 O1344 2.441 . S
U1326 O1345 2.420 . S
U1326 O1346 2.455 . S
U1326 O1347 2.449 . S
O1327 U1326 2.454 . S
O1327 C1329 1.353 . S
O1328 U1326 2.458 . S
O1328 C1329 1.286 . S
C1329 U1326 2.984 . S
C1329 O1327 1.353 . S
C1329 O1328 1.286 . S
C1329 C1331 1.363 . S
C1330 C1320 1.465 . S
C1330 U1326 2.847 . S
C1330 O1344 1.249 . S
C1330 O1345 1.202 . S
C1331 C1329 1.363 . S
C1331 C1333 1.408 . S
C1331 C1336 1.342 . S
C1332 C1333 1.310 . S
C1332 C1335 1.461 . S
C1332 H1352 0.932 . S
C1333 C1331 1.408 . S
C1333 C1332 1.310 . S
C1333 H1353 0.930 . S
C1334 C1335 1.474 . S
C1334 C1336 1.285 . S
C1334 H1354 0.929 . S
C1335 C1332 1.461 . S
C1335 C1334 1.474 . S
C1336 C1331 1.342 . S
C1336 C1334 1.285 . S
C1336 H1355 0.930 . S
C1337 C1340 1.424 . S
C1337 C1342 1.245 . S
C1337 C1343 1.428 . S
C1338 C1341 1.260 . S
C1338 C1342 1.477 . S
C1338 H1356 0.932 . S
C1339 C1340 1.384 . S
C1339 C1341 1.479 . S
C1339 H1357 0.929 . S
C1340 C1337 1.424 . S
C1340 C1339 1.384 . S
C1340 H1358 0.928 . S
C1341 C1338 1.260 . S
C1341 C1339 1.479 . S
C1342 C1337 1.245 . S
C1342 C1338 1.477 . S
C1342 H1359 0.932 . S
C1343 U1326 2.882 . S
C1343 C1337 1.428 . S
C1343 O1346 1.301 . S
C1343 O1347 1.282 . S
O1344 U1326 2.441 . S
O1344 C1330 1.249 . S
O1345 U1326 2.420 . S
O1345 C1330 1.202 . S
O1346 U1326 2.455 . S
O1346 C1343 1.301 . S
O1347 U1326 2.449 . S
O1347 C1343 1.282 . S
H1348 C1321 0.931 . S
H1349 C1323 0.929 . S
H1350 C1324 0.930 . S
H1351 C1325 0.931 . S
H1352 C1332 0.932 . S
H1353 C1333 0.930 . S
H1354 C1334 0.929 . S
H1355 C1336 0.930 . S
H1356 C1338 0.932 . S
H1357 C1339 0.929 . S
H1358 C1340 0.928 . S
H1359 C1342 0.932 . S
C1360 C1361 1.264 . S
C1360 C1365 1.479 . S
C1360 C1370 1.465 . S
C1361 C1360 1.264 . S
C1361 C1363 1.339 . S
C1361 H1388 0.931 . S
C1362 C1363 1.395 . S
C1362 C1364 1.320 . S
C1363 C1361 1.339 . S
C1363 C1362 1.395 . S
C1363 H1389 0.929 . S
C1364 C1362 1.320 . S
C1364 C1365 1.405 . S
C1364 H1390 0.930 . S
C1365 C1360 1.479 . S
C1365 C1364 1.405 . S
C1365 H1391 0.931 . S
U1366 O1367 2.454 . S
U1366 O1368 2.458 . S
U1366 C1369 2.984 . S
U1366 C1370 2.847 . S
U1366 C1383 2.882 . S
U1366 O1384 2.441 . S
U1366 O1385 2.420 . S
U1366 O1386 2.455 . S
U1366 O1387 2.449 . S
O1367 U1366 2.454 . S
O1367 C1369 1.353 . S
O1368 U1366 2.458 . S
O1368 C1369 1.286 . S
C1369 U1366 2.984 . S
C1369 O1367 1.353 . S
C1369 O1368 1.286 . S
C1369 C1371 1.363 . S
C1370 C1360 1.465 . S
C1370 U1366 2.847 . S
C1370 O1384 1.249 . S
C1370 O1385 1.202 . S
C1371 C1369 1.363 . S
C1371 C1373 1.408 . S
C1371 C1376 1.342 . S
C1372 C1373 1.310 . S
C1372 C1375 1.461 . S
C1372 H1392 0.932 . S
C1373 C1371 1.408 . S
C1373 C1372 1.310 . S
C1373 H1393 0.930 . S
C1374 C1375 1.474 . S
C1374 C1376 1.285 . S
C1374 H1394 0.929 . S
C1375 C1372 1.461 . S
C1375 C1374 1.474 . S
C1376 C1371 1.342 . S
C1376 C1374 1.285 . S
C1376 H1395 0.930 . S
C1377 C1380 1.424 . S
C1377 C1382 1.245 . S
C1377 C1383 1.428 . S
C1378 C1381 1.260 . S
C1378 C1382 1.477 . S
C1378 H1396 0.932 . S
C1379 C1380 1.384 . S
C1379 C1381 1.479 . S
C1379 H1397 0.929 . S
C1380 C1377 1.424 . S
C1380 C1379 1.384 . S
C1380 H1398 0.928 . S
C1381 C1378 1.260 . S
C1381 C1379 1.479 . S
C1382 C1377 1.245 . S
C1382 C1378 1.477 . S
C1382 H1399 0.932 . S
C1383 U1366 2.882 . S
C1383 C1377 1.428 . S
C1383 O1386 1.301 . S
C1383 O1387 1.282 . S
O1384 U1366 2.441 . S
O1384 C1370 1.249 . S
O1385 U1366 2.420 . S
O1385 C1370 1.202 . S
O1386 U1366 2.455 . S
O1386 C1383 1.301 . S
O1387 U1366 2.449 . S
O1387 C1383 1.282 . S
H1388 C1361 0.931 . S
H1389 C1363 0.929 . S
H1390 C1364 0.930 . S
H1391 C1365 0.931 . S
H1392 C1372 0.932 . S
H1393 C1373 0.930 . S
H1394 C1374 0.929 . S
H1395 C1376 0.930 . S
H1396 C1378 0.932 . S
H1397 C1379 0.929 . S
H1398 C1380 0.928 . S
H1399 C1382 0.932 . S
C1400 C1401 1.264 . S
C1400 C1405 1.479 . S
C1400 C1410 1.465 . S
C1401 C1400 1.264 . S
C1401 C1403 1.339 . S
C1401 H1428 0.931 . S
C1402 C1403 1.395 . S
C1402 C1404 1.320 . S
C1403 C1401 1.339 . S
C1403 C1402 1.395 . S
C1403 H1429 0.929 . S
C1404 C1402 1.320 . S
C1404 C1405 1.405 . S
C1404 H1430 0.930 . S
C1405 C1400 1.479 . S
C1405 C1404 1.405 . S
C1405 H1431 0.931 . S
U1406 O1407 2.454 . S
U1406 O1408 2.458 . S
U1406 C1409 2.984 . S
U1406 C1410 2.847 . S
U1406 C1423 2.882 . S
U1406 O1424 2.441 . S
U1406 O1425 2.420 . S
U1406 O1426 2.455 . S
U1406 O1427 2.449 . S
O1407 U1406 2.454 . S
O1407 C1409 1.353 . S
O1408 U1406 2.458 . S
O1408 C1409 1.286 . S
C1409 U1406 2.984 . S
C1409 O1407 1.353 . S
C1409 O1408 1.286 . S
C1409 C1411 1.363 . S
C1410 C1400 1.465 . S
C1410 U1406 2.847 . S
C1410 O1424 1.249 . S
C1410 O1425 1.202 . S
C1411 C1409 1.363 . S
C1411 C1413 1.408 . S
C1411 C1416 1.342 . S
C1412 C1413 1.310 . S
C1412 C1415 1.461 . S
C1412 H1432 0.932 . S
C1413 C1411 1.408 . S
C1413 C1412 1.310 . S
C1413 H1433 0.930 . S
C1414 C1415 1.474 . S
C1414 C1416 1.285 . S
C1414 H1434 0.929 . S
C1415 C1412 1.461 . S
C1415 C1414 1.474 . S
C1416 C1411 1.342 . S
C1416 C1414 1.285 . S
C1416 H1435 0.930 . S
C1417 C1420 1.424 . S
C1417 C1422 1.245 . S
C1417 C1423 1.428 . S
C1418 C1421 1.260 . S
C1418 C1422 1.477 . S
C1418 H1436 0.932 . S
C1419 C1420 1.384 . S
C1419 C1421 1.479 . S
C1419 H1437 0.929 . S
C1420 C1417 1.424 . S
C1420 C1419 1.384 . S
C1420 H1438 0.928 . S
C1421 C1418 1.260 . S
C1421 C1419 1.479 . S
C1422 C1417 1.245 . S
C1422 C1418 1.477 . S
C1422 H1439 0.932 . S
C1423 U1406 2.882 . S
C1423 C1417 1.428 . S
C1423 O1426 1.301 . S
C1423 O1427 1.282 . S
O1424 U1406 2.441 . S
O1424 C1410 1.249 . S
O1425 U1406 2.420 . S
O1425 C1410 1.202 . S
O1426 U1406 2.455 . S
O1426 C1423 1.301 . S
O1427 U1406 2.449 . S
O1427 C1423 1.282 . S
H1428 C1401 0.931 . S
H1429 C1403 0.929 . S
H1430 C1404 0.930 . S
H1431 C1405 0.931 . S
H1432 C1412 0.932 . S
H1433 C1413 0.930 . S
H1434 C1414 0.929 . S
H1435 C1416 0.930 . S
H1436 C1418 0.932 . S
H1437 C1419 0.929 . S
H1438 C1420 0.928 . S
H1439 C1422 0.932 . S
C1440 C1441 1.264 . S
C1440 C1445 1.479 . S
C1440 C1450 1.465 . S
C1441 C1440 1.264 . S
C1441 C1443 1.339 . S
C1441 H1468 0.931 . S
C1442 C1443 1.395 . S
C1442 C1444 1.320 . S
C1443 C1441 1.339 . S
C1443 C1442 1.395 . S
C1443 H1469 0.929 . S
C1444 C1442 1.320 . S
C1444 C1445 1.405 . S
C1444 H1470 0.930 . S
C1445 C1440 1.479 . S
C1445 C1444 1.405 . S
C1445 H1471 0.931 . S
U1446 O1447 2.454 . S
U1446 O1448 2.458 . S
U1446 C1449 2.984 . S
U1446 C1450 2.847 . S
U1446 C1463 2.882 . S
U1446 O1464 2.441 . S
U1446 O1465 2.420 . S
U1446 O1466 2.455 . S
U1446 O1467 2.449 . S
O1447 U1446 2.454 . S
O1447 C1449 1.353 . S
O1448 U1446 2.458 . S
O1448 C1449 1.286 . S
C1449 U1446 2.984 . S
C1449 O1447 1.353 . S
C1449 O1448 1.286 . S
C1449 C1451 1.363 . S
C1450 C1440 1.465 . S
C1450 U1446 2.847 . S
C1450 O1464 1.249 . S
C1450 O1465 1.202 . S
C1451 C1449 1.363 . S
C1451 C1453 1.408 . S
C1451 C1456 1.342 . S
C1452 C1453 1.310 . S
C1452 C1455 1.461 . S
C1452 H1472 0.932 . S
C1453 C1451 1.408 . S
C1453 C1452 1.310 . S
C1453 H1473 0.930 . S
C1454 C1455 1.474 . S
C1454 C1456 1.285 . S
C1454 H1474 0.929 . S
C1455 C1452 1.461 . S
C1455 C1454 1.474 . S
C1456 C1451 1.342 . S
C1456 C1454 1.285 . S
C1456 H1475 0.930 . S
C1457 C1460 1.424 . S
C1457 C1462 1.245 . S
C1457 C1463 1.428 . S
C1458 C1461 1.260 . S
C1458 C1462 1.477 . S
C1458 H1476 0.932 . S
C1459 C1460 1.384 . S
C1459 C1461 1.479 . S
C1459 H1477 0.929 . S
C1460 C1457 1.424 . S
C1460 C1459 1.384 . S
C1460 H1478 0.928 . S
C1461 C1458 1.260 . S
C1461 C1459 1.479 . S
C1462 C1457 1.245 . S
C1462 C1458 1.477 . S
C1462 H1479 0.932 . S
C1463 U1446 2.882 . S
C1463 C1457 1.428 . S
C1463 O1466 1.301 . S
C1463 O1467 1.282 . S
O1464 U1446 2.441 . S
O1464 C1450 1.249 . S
O1465 U1446 2.420 . S
O1465 C1450 1.202 . S
O1466 U1446 2.455 . S
O1466 C1463 1.301 . S
O1467 U1446 2.449 . S
O1467 C1463 1.282 . S
H1468 C1441 0.931 . S
H1469 C1443 0.929 . S
H1470 C1444 0.930 . S
H1471 C1445 0.931 . S
H1472 C1452 0.932 . S
H1473 C1453 0.930 . S
H1474 C1454 0.929 . S
H1475 C1456 0.930 . S
H1476 C1458 0.932 . S
H1477 C1459 0.929 . S
H1478 C1460 0.928 . S
H1479 C1462 0.932 . S
C1480 C1481 1.264 . S
C1480 C1485 1.479 . S
C1480 C1490 1.465 . S
C1481 C1480 1.264 . S
C1481 C1483 1.339 . S
C1481 H1508 0.931 . S
C1482 C1483 1.395 . S
C1482 C1484 1.320 . S
C1483 C1481 1.339 . S
C1483 C1482 1.395 . S
C1483 H1509 0.929 . S
C1484 C1482 1.320 . S
C1484 C1485 1.405 . S
C1484 H1510 0.930 . S
C1485 C1480 1.479 . S
C1485 C1484 1.405 . S
C1485 H1511 0.931 . S
U1486 O1487 2.454 . S
U1486 O1488 2.458 . S
U1486 C1489 2.984 . S
U1486 C1490 2.847 . S
U1486 C1503 2.882 . S
U1486 O1504 2.441 . S
U1486 O1505 2.420 . S
U1486 O1506 2.455 . S
U1486 O1507 2.449 . S
O1487 U1486 2.454 . S
O1487 C1489 1.353 . S
O1488 U1486 2.458 . S
O1488 C1489 1.286 . S
C1489 U1486 2.984 . S
C1489 O1487 1.353 . S
C1489 O1488 1.286 . S
C1489 C1491 1.363 . S
C1490 C1480 1.465 . S
C1490 U1486 2.847 . S
C1490 O1504 1.249 . S
C1490 O1505 1.202 . S
C1491 C1489 1.363 . S
C1491 C1493 1.408 . S
C1491 C1496 1.342 . S
C1492 C1493 1.310 . S
C1492 C1495 1.461 . S
C1492 H1512 0.932 . S
C1493 C1491 1.408 . S
C1493 C1492 1.310 . S
C1493 H1513 0.930 . S
C1494 C1495 1.474 . S
C1494 C1496 1.285 . S
C1494 H1514 0.929 . S
C1495 C1492 1.461 . S
C1495 C1494 1.474 . S
C1496 C1491 1.342 . S
C1496 C1494 1.285 . S
C1496 H1515 0.930 . S
C1497 C1500 1.424 . S
C1497 C1502 1.245 . S
C1497 C1503 1.428 . S
C1498 C1501 1.260 . S
C1498 C1502 1.477 . S
C1498 H1516 0.932 . S
C1499 C1500 1.384 . S
C1499 C1501 1.479 . S
C1499 H1517 0.929 . S
C1500 C1497 1.424 . S
C1500 C1499 1.384 . S
C1500 H1518 0.928 . S
C1501 C1498 1.260 . S
C1501 C1499 1.479 . S
C1502 C1497 1.245 . S
C1502 C1498 1.477 . S
C1502 H1519 0.932 . S
C1503 U1486 2.882 . S
C1503 C1497 1.428 . S
C1503 O1506 1.301 . S
C1503 O1507 1.282 . S
O1504 U1486 2.441 . S
O1504 C1490 1.249 . S
O1505 U1486 2.420 . S
O1505 C1490 1.202 . S
O1506 U1486 2.455 . S
O1506 C1503 1.301 . S
O1507 U1486 2.449 . S
O1507 C1503 1.282 . S
H1508 C1481 0.931 . S
H1509 C1483 0.929 . S
H1510 C1484 0.930 . S
H1511 C1485 0.931 . S
H1512 C1492 0.932 . S
H1513 C1493 0.930 . S
H1514 C1494 0.929 . S
H1515 C1496 0.930 . S
H1516 C1498 0.932 . S
H1517 C1499 0.929 . S
H1518 C1500 0.928 . S
H1519 C1502 0.932 . S
C1520 C1521 1.264 . S
C1520 C1525 1.479 . S
C1520 C1530 1.465 . S
C1521 C1520 1.264 . S
C1521 C1523 1.339 . S
C1521 H1548 0.931 . S
C1522 C1523 1.395 . S
C1522 C1524 1.320 . S
C1523 C1521 1.339 . S
C1523 C1522 1.395 . S
C1523 H1549 0.929 . S
C1524 C1522 1.320 . S
C1524 C1525 1.405 . S
C1524 H1550 0.930 . S
C1525 C1520 1.479 . S
C1525 C1524 1.405 . S
C1525 H1551 0.931 . S
U1526 O1527 2.454 . S
U1526 O1528 2.458 . S
U1526 C1529 2.984 . S
U1526 C1530 2.847 . S
U1526 C1543 2.882 . S
U1526 O1544 2.441 . S
U1526 O1545 2.420 . S
U1526 O1546 2.455 . S
U1526 O1547 2.449 . S
O1527 U1526 2.454 . S
O1527 C1529 1.353 . S
O1528 U1526 2.458 . S
O1528 C1529 1.286 . S
C1529 U1526 2.984 . S
C1529 O1527 1.353 . S
C1529 O1528 1.286 . S
C1529 C1531 1.363 . S
C1530 C1520 1.465 . S
C1530 U1526 2.847 . S
C1530 O1544 1.249 . S
C1530 O1545 1.202 . S
C1531 C1529 1.363 . S
C1531 C1533 1.408 . S
C1531 C1536 1.342 . S
C1532 C1533 1.310 . S
C1532 C1535 1.461 . S
C1532 H1552 0.932 . S
C1533 C1531 1.408 . S
C1533 C1532 1.310 . S
C1533 H1553 0.930 . S
C1534 C1535 1.474 . S
C1534 C1536 1.285 . S
C1534 H1554 0.929 . S
C1535 C1532 1.461 . S
C1535 C1534 1.474 . S
C1536 C1531 1.342 . S
C1536 C1534 1.285 . S
C1536 H1555 0.930 . S
C1537 C1540 1.424 . S
C1537 C1542 1.245 . S
C1537 C1543 1.428 . S
C1538 C1541 1.260 . S
C1538 C1542 1.477 . S
C1538 H1556 0.932 . S
C1539 C1540 1.384 . S
C1539 C1541 1.479 . S
C1539 H1557 0.929 . S
C1540 C1537 1.424 . S
C1540 C1539 1.384 . S
C1540 H1558 0.928 . S
C1541 C1538 1.260 . S
C1541 C1539 1.479 . S
C1542 C1537 1.245 . S
C1542 C1538 1.477 . S
C1542 H1559 0.932 . S
C1543 U1526 2.882 . S
C1543 C1537 1.428 . S
C1543 O1546 1.301 . S
C1543 O1547 1.282 . S
O1544 U1526 2.441 . S
O1544 C1530 1.249 . S
O1545 U1526 2.420 . S
O1545 C1530 1.202 . S
O1546 U1526 2.455 . S
O1546 C1543 1.301 . S
O1547 U1526 2.449 . S
O1547 C1543 1.282 . S
H1548 C1521 0.931 . S
H1549 C1523 0.929 . S
H1550 C1524 0.930 . S
H1551 C1525 0.931 . S
H1552 C1532 0.932 . S
H1553 C1533 0.930 . S
H1554 C1534 0.929 . S
H1555 C1536 0.930 . S
H1556 C1538 0.932 . S
H1557 C1539 0.929 . S
H1558 C1540 0.928 . S
H1559 C1542 0.932 . S
C1560 C1561 1.264 . S
C1560 C1565 1.479 . S
C1560 C1570 1.465 . S
C1561 C1560 1.264 . S
C1561 C1563 1.339 . S
C1561 H1588 0.931 . S
C1562 C1563 1.395 . S
C1562 C1564 1.320 . S
C1563 C1561 1.339 . S
C1563 C1562 1.395 . S
C1563 H1589 0.929 . S
C1564 C1562 1.320 . S
C1564 C1565 1.405 . S
C1564 H1590 0.930 . S
C1565 C1560 1.479 . S
C1565 C1564 1.405 . S
C1565 H1591 0.931 . S
U1566 O1567 2.454 . S
U1566 O1568 2.458 . S
U1566 C1569 2.984 . S
U1566 C1570 2.847 . S
U1566 C1583 2.882 . S
U1566 O1584 2.441 . S
U1566 O1585 2.420 . S
U1566 O1586 2.455 . S
U1566 O1587 2.449 . S
O1567 U1566 2.454 . S
O1567 C1569 1.353 . S
O1568 U1566 2.458 . S
O1568 C1569 1.286 . S
C1569 U1566 2.984 . S
C1569 O1567 1.353 . S
C1569 O1568 1.286 . S
C1569 C1571 1.363 . S
C1570 C1560 1.465 . S
C1570 U1566 2.847 . S
C1570 O1584 1.249 . S
C1570 O1585 1.202 . S
C1571 C1569 1.363 . S
C1571 C1573 1.408 . S
C1571 C1576 1.342 . S
C1572 C1573 1.310 . S
C1572 C1575 1.461 . S
C1572 H1592 0.932 . S
C1573 C1571 1.408 . S
C1573 C1572 1.310 . S
C1573 H1593 0.930 . S
C1574 C1575 1.474 . S
C1574 C1576 1.285 . S
C1574 H1594 0.929 . S
C1575 C1572 1.461 . S
C1575 C1574 1.474 . S
C1576 C1571 1.342 . S
C1576 C1574 1.285 . S
C1576 H1595 0.930 . S
C1577 C1580 1.424 . S
C1577 C1582 1.245 . S
C1577 C1583 1.428 . S
C1578 C1581 1.260 . S
C1578 C1582 1.477 . S
C1578 H1596 0.932 . S
C1579 C1580 1.384 . S
C1579 C1581 1.479 . S
C1579 H1597 0.929 . S
C1580 C1577 1.424 . S
C1580 C1579 1.384 . S
C1580 H1598 0.928 . S
C1581 C1578 1.260 . S
C1581 C1579 1.479 . S
C1582 C1577 1.245 . S
C1582 C1578 1.477 . S
C1582 H1599 0.932 . S
C1583 U1566 2.882 . S
C1583 C1577 1.428 . S
C1583 O1586 1.301 . S
C1583 O1587 1.282 . S
O1584 U1566 2.441 . S
O1584 C1570 1.249 . S
O1585 U1566 2.420 . S
O1585 C1570 1.202 . S
O1586 U1566 2.455 . S
O1586 C1583 1.301 . S
O1587 U1566 2.449 . S
O1587 C1583 1.282 . S
H1588 C1561 0.931 . S
H1589 C1563 0.929 . S
H1590 C1564 0.930 . S
H1591 C1565 0.931 . S
H1592 C1572 0.932 . S
H1593 C1573 0.930 . S
H1594 C1574 0.929 . S
H1595 C1576 0.930 . S
H1596 C1578 0.932 . S
H1597 C1579 0.929 . S
H1598 C1580 0.928 . S
H1599 C1582 0.932 . S
C1600 C1601 1.264 . S
C1600 C1605 1.479 . S
C1600 C1610 1.465 . S
C1601 C1600 1.264 . S
C1601 C1603 1.339 . S
C1601 H1628 0.931 . S
C1602 C1603 1.395 . S
C1602 C1604 1.320 . S
C1603 C1601 1.339 . S
C1603 C1602 1.395 . S
C1603 H1629 0.929 . S
C1604 C1602 1.320 . S
C1604 C1605 1.405 . S
C1604 H1630 0.930 . S
C1605 C1600 1.479 . S
C1605 C1604 1.405 . S
C1605 H1631 0.931 . S
U1606 O1607 2.454 . S
U1606 O1608 2.458 . S
U1606 C1609 2.984 . S
U1606 C1610 2.847 . S
U1606 C1623 2.882 . S
U1606 O1624 2.441 . S
U1606 O1625 2.420 . S
U1606 O1626 2.455 . S
U1606 O1627 2.449 . S
O1607 U1606 2.454 . S
O1607 C1609 1.353 . S
O1608 U1606 2.458 . S
O1608 C1609 1.286 . S
C1609 U1606 2.984 . S
C1609 O1607 1.353 . S
C1609 O1608 1.286 . S
C1609 C1611 1.363 . S
C1610 C1600 1.465 . S
C1610 U1606 2.847 . S
C1610 O1624 1.249 . S
C1610 O1625 1.202 . S
C1611 C1609 1.363 . S
C1611 C1613 1.408 . S
C1611 C1616 1.342 . S
C1612 C1613 1.310 . S
C1612 C1615 1.461 . S
C1612 H1632 0.932 . S
C1613 C1611 1.408 . S
C1613 C1612 1.310 . S
C1613 H1633 0.930 . S
C1614 C1615 1.474 . S
C1614 C1616 1.285 . S
C1614 H1634 0.929 . S
C1615 C1612 1.461 . S
C1615 C1614 1.474 . S
C1616 C1611 1.342 . S
C1616 C1614 1.285 . S
C1616 H1635 0.930 . S
C1617 C1620 1.424 . S
C1617 C1622 1.245 . S
C1617 C1623 1.428 . S
C1618 C1621 1.260 . S
C1618 C1622 1.477 . S
C1618 H1636 0.932 . S
C1619 C1620 1.384 . S
C1619 C1621 1.479 . S
C1619 H1637 0.929 . S
C1620 C1617 1.424 . S
C1620 C1619 1.384 . S
C1620 H1638 0.928 . S
C1621 C1618 1.260 . S
C1621 C1619 1.479 . S
C1622 C1617 1.245 . S
C1622 C1618 1.477 . S
C1622 H1639 0.932 . S
C1623 U1606 2.882 . S
C1623 C1617 1.428 . S
C1623 O1626 1.301 . S
C1623 O1627 1.282 . S
O1624 U1606 2.441 . S
O1624 C1610 1.249 . S
O1625 U1606 2.420 . S
O1625 C1610 1.202 . S
O1626 U1606 2.455 . S
O1626 C1623 1.301 . S
O1627 U1606 2.449 . S
O1627 C1623 1.282 . S
H1628 C1601 0.931 . S
H1629 C1603 0.929 . S
H1630 C1604 0.930 . S
H1631 C1605 0.931 . S
H1632 C1612 0.932 . S
H1633 C1613 0.930 . S
H1634 C1614 0.929 . S
H1635 C1616 0.930 . S
H1636 C1618 0.932 . S
H1637 C1619 0.929 . S
H1638 C1620 0.928 . S
H1639 C1622 0.932 . S
C1640 C1641 1.264 . S
C1640 C1645 1.479 . S
C1640 C1650 1.465 . S
C1641 C1640 1.264 . S
C1641 C1643 1.339 . S
C1641 H1668 0.931 . S
C1642 C1643 1.395 . S
C1642 C1644 1.320 . S
C1643 C1641 1.339 . S
C1643 C1642 1.395 . S
C1643 H1669 0.929 . S
C1644 C1642 1.320 . S
C1644 C1645 1.405 . S
C1644 H1670 0.930 . S
C1645 C1640 1.479 . S
C1645 C1644 1.405 . S
C1645 H1671 0.931 . S
U1646 O1647 2.454 . S
U1646 O1648 2.458 . S
U1646 C1649 2.984 . S
U1646 C1650 2.847 . S
U1646 C1663 2.882 . S
U1646 O1664 2.441 . S
U1646 O1665 2.420 . S
U1646 O1666 2.455 . S
U1646 O1667 2.449 . S
O1647 U1646 2.454 . S
O1647 C1649 1.353 . S
O1648 U1646 2.458 . S
O1648 C1649 1.286 . S
C1649 U1646 2.984 . S
C1649 O1647 1.353 . S
C1649 O1648 1.286 . S
C1649 C1651 1.363 . S
C1650 C1640 1.465 . S
C1650 U1646 2.847 . S
C1650 O1664 1.249 . S
C1650 O1665 1.202 . S
C1651 C1649 1.363 . S
C1651 C1653 1.408 . S
C1651 C1656 1.342 . S
C1652 C1653 1.310 . S
C1652 C1655 1.461 . S
C1652 H1672 0.932 . S
C1653 C1651 1.408 . S
C1653 C1652 1.310 . S
C1653 H1673 0.930 . S
C1654 C1655 1.474 . S
C1654 C1656 1.285 . S
C1654 H1674 0.929 . S
C1655 C1652 1.461 . S
C1655 C1654 1.474 . S
C1656 C1651 1.342 . S
C1656 C1654 1.285 . S
C1656 H1675 0.930 . S
C1657 C1660 1.424 . S
C1657 C1662 1.245 . S
C1657 C1663 1.428 . S
C1658 C1661 1.260 . S
C1658 C1662 1.477 . S
C1658 H1676 0.932 . S
C1659 C1660 1.384 . S
C1659 C1661 1.479 . S
C1659 H1677 0.929 . S
C1660 C1657 1.424 . S
C1660 C1659 1.384 . S
C1660 H1678 0.928 . S
C1661 C1658 1.260 . S
C1661 C1659 1.479 . S
C1662 C1657 1.245 . S
C1662 C1658 1.477 . S
C1662 H1679 0.932 . S
C1663 U1646 2.882 . S
C1663 C1657 1.428 . S
C1663 O1666 1.301 . S
C1663 O1667 1.282 . S
O1664 U1646 2.441 . S
O1664 C1650 1.249 . S
O1665 U1646 2.420 . S
O1665 C1650 1.202 . S
O1666 U1646 2.455 . S
O1666 C1663 1.301 . S
O1667 U1646 2.449 . S
O1667 C1663 1.282 . S
H1668 C1641 0.931 . S
H1669 C1643 0.929 . S
H1670 C1644 0.930 . S
H1671 C1645 0.931 . S
H1672 C1652 0.932 . S
H1673 C1653 0.930 . S
H1674 C1654 0.929 . S
H1675 C1656 0.930 . S
H1676 C1658 0.932 . S
H1677 C1659 0.929 . S
H1678 C1660 0.928 . S
H1679 C1662 0.932 . S
C1680 C1681 1.264 . S
C1680 C1685 1.479 . S
C1680 C1690 1.465 . S
C1681 C1680 1.264 . S
C1681 C1683 1.339 . S
C1681 H1708 0.931 . S
C1682 C1683 1.395 . S
C1682 C1684 1.320 . S
C1683 C1681 1.339 . S
C1683 C1682 1.395 . S
C1683 H1709 0.929 . S
C1684 C1682 1.320 . S
C1684 C1685 1.405 . S
C1684 H1710 0.930 . S
C1685 C1680 1.479 . S
C1685 C1684 1.405 . S
C1685 H1711 0.931 . S
U1686 O1687 2.454 . S
U1686 O1688 2.458 . S
U1686 C1689 2.984 . S
U1686 C1690 2.847 . S
U1686 C1703 2.882 . S
U1686 O1704 2.441 . S
U1686 O1705 2.420 . S
U1686 O1706 2.455 . S
U1686 O1707 2.449 . S
O1687 U1686 2.454 . S
O1687 C1689 1.353 . S
O1688 U1686 2.458 . S
O1688 C1689 1.286 . S
C1689 U1686 2.984 . S
C1689 O1687 1.353 . S
C1689 O1688 1.286 . S
C1689 C1691 1.363 . S
C1690 C1680 1.465 . S
C1690 U1686 2.847 . S
C1690 O1704 1.249 . S
C1690 O1705 1.202 . S
C1691 C1689 1.363 . S
C1691 C1693 1.408 . S
C1691 C1696 1.342 . S
C1692 C1693 1.310 . S
C1692 C1695 1.461 . S
C1692 H1712 0.932 . S
C1693 C1691 1.408 . S
C1693 C1692 1.310 . S
C1693 H1713 0.930 . S
C1694 C1695 1.474 . S
C1694 C1696 1.285 . S
C1694 H1714 0.929 . S
C1695 C1692 1.461 . S
C1695 C1694 1.474 . S
C1696 C1691 1.342 . S
C1696 C1694 1.285 . S
C1696 H1715 0.930 . S
C1697 C1700 1.424 . S
C1697 C1702 1.245 . S
C1697 C1703 1.428 . S
C1698 C1701 1.260 . S
C1698 C1702 1.477 . S
C1698 H1716 0.932 . S
C1699 C1700 1.384 . S
C1699 C1701 1.479 . S
C1699 H1717 0.929 . S
C1700 C1697 1.424 . S
C1700 C1699 1.384 . S
C1700 H1718 0.928 . S
C1701 C1698 1.260 . S
C1701 C1699 1.479 . S
C1702 C1697 1.245 . S
C1702 C1698 1.477 . S
C1702 H1719 0.932 . S
C1703 U1686 2.882 . S
C1703 C1697 1.428 . S
C1703 O1706 1.301 . S
C1703 O1707 1.282 . S
O1704 U1686 2.441 . S
O1704 C1690 1.249 . S
O1705 U1686 2.420 . S
O1705 C1690 1.202 . S
O1706 U1686 2.455 . S
O1706 C1703 1.301 . S
O1707 U1686 2.449 . S
O1707 C1703 1.282 . S
H1708 C1681 0.931 . S
H1709 C1683 0.929 . S
H1710 C1684 0.930 . S
H1711 C1685 0.931 . S
H1712 C1692 0.932 . S
H1713 C1693 0.930 . S
H1714 C1694 0.929 . S
H1715 C1696 0.930 . S
H1716 C1698 0.932 . S
H1717 C1699 0.929 . S
H1718 C1700 0.928 . S
H1719 C1702 0.932 . S
C1720 C1721 1.264 . S
C1720 C1725 1.479 . S
C1720 C1730 1.465 . S
C1721 C1720 1.264 . S
C1721 C1723 1.339 . S
C1721 H1748 0.931 . S
C1722 C1723 1.395 . S
C1722 C1724 1.320 . S
C1723 C1721 1.339 . S
C1723 C1722 1.395 . S
C1723 H1749 0.929 . S
C1724 C1722 1.320 . S
C1724 C1725 1.405 . S
C1724 H1750 0.930 . S
C1725 C1720 1.479 . S
C1725 C1724 1.405 . S
C1725 H1751 0.931 . S
U1726 O1727 2.454 . S
U1726 O1728 2.458 . S
U1726 C1729 2.984 . S
U1726 C1730 2.847 . S
U1726 C1743 2.882 . S
U1726 O1744 2.441 . S
U1726 O1745 2.420 . S
U1726 O1746 2.455 . S
U1726 O1747 2.449 . S
O1727 U1726 2.454 . S
O1727 C1729 1.353 . S
O1728 U1726 2.458 . S
O1728 C1729 1.286 . S
C1729 U1726 2.984 . S
C1729 O1727 1.353 . S
C1729 O1728 1.286 . S
C1729 C1731 1.363 . S
C1730 C1720 1.465 . S
C1730 U1726 2.847 . S
C1730 O1744 1.249 . S
C1730 O1745 1.202 . S
C1731 C1729 1.363 . S
C1731 C1733 1.408 . S
C1731 C1736 1.342 . S
C1732 C1733 1.310 . S
C1732 C1735 1.461 . S
C1732 H1752 0.932 . S
C1733 C1731 1.408 . S
C1733 C1732 1.310 . S
C1733 H1753 0.930 . S
C1734 C1735 1.474 . S
C1734 C1736 1.285 . S
C1734 H1754 0.929 . S
C1735 C1732 1.461 . S
C1735 C1734 1.474 . S
C1736 C1731 1.342 . S
C1736 C1734 1.285 . S
C1736 H1755 0.930 . S
C1737 C1740 1.424 . S
C1737 C1742 1.245 . S
C1737 C1743 1.428 . S
C1738 C1741 1.260 . S
C1738 C1742 1.477 . S
C1738 H1756 0.932 . S
C1739 C1740 1.384 . S
C1739 C1741 1.479 . S
C1739 H1757 0.929 . S
C1740 C1737 1.424 . S
C1740 C1739 1.384 . S
C1740 H1758 0.928 . S
C1741 C1738 1.260 . S
C1741 C1739 1.479 . S
C1742 C1737 1.245 . S
C1742 C1738 1.477 . S
C1742 H1759 0.932 . S
C1743 U1726 2.882 . S
C1743 C1737 1.428 . S
C1743 O1746 1.301 . S
C1743 O1747 1.282 . S
O1744 U1726 2.441 . S
O1744 C1730 1.249 . S
O1745 U1726 2.420 . S
O1745 C1730 1.202 . S
O1746 U1726 2.455 . S
O1746 C1743 1.301 . S
O1747 U1726 2.449 . S
O1747 C1743 1.282 . S
H1748 C1721 0.931 . S
H1749 C1723 0.929 . S
H1750 C1724 0.930 . S
H1751 C1725 0.931 . S
H1752 C1732 0.932 . S
H1753 C1733 0.930 . S
H1754 C1734 0.929 . S
H1755 C1736 0.930 . S
H1756 C1738 0.932 . S
H1757 C1739 0.929 . S
H1758 C1740 0.928 . S
H1759 C1742 0.932 . S
C1760 C1761 1.264 . S
C1760 C1765 1.479 . S
C1760 C1770 1.465 . S
C1761 C1760 1.264 . S
C1761 C1763 1.339 . S
C1761 H1788 0.931 . S
C1762 C1763 1.395 . S
C1762 C1764 1.320 . S
C1763 C1761 1.339 . S
C1763 C1762 1.395 . S
C1763 H1789 0.929 . S
C1764 C1762 1.320 . S
C1764 C1765 1.405 . S
C1764 H1790 0.930 . S
C1765 C1760 1.479 . S
C1765 C1764 1.405 . S
C1765 H1791 0.931 . S
U1766 O1767 2.454 . S
U1766 O1768 2.458 . S
U1766 C1769 2.984 . S
U1766 C1770 2.847 . S
U1766 C1783 2.882 . S
U1766 O1784 2.441 . S
U1766 O1785 2.420 . S
U1766 O1786 2.455 . S
U1766 O1787 2.449 . S
O1767 U1766 2.454 . S
O1767 C1769 1.353 . S
O1768 U1766 2.458 . S
O1768 C1769 1.286 . S
C1769 U1766 2.984 . S
C1769 O1767 1.353 . S
C1769 O1768 1.286 . S
C1769 C1771 1.363 . S
C1770 C1760 1.465 . S
C1770 U1766 2.847 . S
C1770 O1784 1.249 . S
C1770 O1785 1.202 . S
C1771 C1769 1.363 . S
C1771 C1773 1.408 . S
C1771 C1776 1.342 . S
C1772 C1773 1.310 . S
C1772 C1775 1.461 . S
C1772 H1792 0.932 . S
C1773 C1771 1.408 . S
C1773 C1772 1.310 . S
C1773 H1793 0.930 . S
C1774 C1775 1.474 . S
C1774 C1776 1.285 . S
C1774 H1794 0.929 . S
C1775 C1772 1.461 . S
C1775 C1774 1.474 . S
C1776 C1771 1.342 . S
C1776 C1774 1.285 . S
C1776 H1795 0.930 . S
C1777 C1780 1.424 . S
C1777 C1782 1.245 . S
C1777 C1783 1.428 . S
C1778 C1781 1.260 . S
C1778 C1782 1.477 . S
C1778 H1796 0.932 . S
C1779 C1780 1.384 . S
C1779 C1781 1.479 . S
C1779 H1797 0.929 . S
C1780 C1777 1.424 . S
C1780 C1779 1.384 . S
C1780 H1798 0.928 . S
C1781 C1778 1.260 . S
C1781 C1779 1.479 . S
C1782 C1777 1.245 . S
C1782 C1778 1.477 . S
C1782 H1799 0.932 . S
C1783 U1766 2.882 . S
C1783 C1777 1.428 . S
C1783 O1786 1.301 . S
C1783 O1787 1.282 . S
O1784 U1766 2.441 . S
O1784 C1770 1.249 . S
O1785 U1766 2.420 . S
O1785 C1770 1.202 . S
O1786 U1766 2.455 . S
O1786 C1783 1.301 . S
O1787 U1766 2.449 . S
O1787 C1783 1.282 . S
H1788 C1761 0.931 . S
H1789 C1763 0.929 . S
H1790 C1764 0.930 . S
H1791 C1765 0.931 . S
H1792 C1772 0.932 . S
H1793 C1773 0.930 . S
H1794 C1774 0.929 . S
H1795 C1776 0.930 . S
H1796 C1778 0.932 . S
H1797 C1779 0.929 . S
H1798 C1780 0.928 . S
H1799 C1782 0.932 . S
C1800 C1801 1.264 . S
C1800 C1805 1.479 . S
C1800 C1810 1.465 . S
C1801 C1800 1.264 . S
C1801 C1803 1.339 . S
C1801 H1828 0.931 . S
C1802 C1803 1.395 . S
C1802 C1804 1.320 . S
C1803 C1801 1.339 . S
C1803 C1802 1.395 . S
C1803 H1829 0.929 . S
C1804 C1802 1.320 . S
C1804 C1805 1.405 . S
C1804 H1830 0.930 . S
C1805 C1800 1.479 . S
C1805 C1804 1.405 . S
C1805 H1831 0.931 . S
U1806 O1807 2.454 . S
U1806 O1808 2.458 . S
U1806 C1809 2.984 . S
U1806 C1810 2.847 . S
U1806 C1823 2.882 . S
U1806 O1824 2.441 . S
U1806 O1825 2.420 . S
U1806 O1826 2.455 . S
U1806 O1827 2.449 . S
O1807 U1806 2.454 . S
O1807 C1809 1.353 . S
O1808 U1806 2.458 . S
O1808 C1809 1.286 . S
C1809 U1806 2.984 . S
C1809 O1807 1.353 . S
C1809 O1808 1.286 . S
C1809 C1811 1.363 . S
C1810 C1800 1.465 . S
C1810 U1806 2.847 . S
C1810 O1824 1.249 . S
C1810 O1825 1.202 . S
C1811 C1809 1.363 . S
C1811 C1813 1.408 . S
C1811 C1816 1.342 . S
C1812 C1813 1.310 . S
C1812 C1815 1.461 . S
C1812 H1832 0.932 . S
C1813 C1811 1.408 . S
C1813 C1812 1.310 . S
C1813 H1833 0.930 . S
C1814 C1815 1.474 . S
C1814 C1816 1.285 . S
C1814 H1834 0.929 . S
C1815 C1812 1.461 . S
C1815 C1814 1.474 . S
C1816 C1811 1.342 . S
C1816 C1814 1.285 . S
C1816 H1835 0.930 . S
C1817 C1820 1.424 . S
C1817 C1822 1.245 . S
C1817 C1823 1.428 . S
C1818 C1821 1.260 . S
C1818 C1822 1.477 . S
C1818 H1836 0.932 . S
C1819 C1820 1.384 . S
C1819 C1821 1.479 . S
C1819 H1837 0.929 . S
C1820 C1817 1.424 . S
C1820 C1819 1.384 . S
C1820 H1838 0.928 . S
C1821 C1818 1.260 . S
C1821 C1819 1.479 . S
C1822 C1817 1.245 . S
C1822 C1818 1.477 . S
C1822 H1839 0.932 . S
C1823 U1806 2.882 . S
C1823 C1817 1.428 . S
C1823 O1826 1.301 . S
C1823 O1827 1.282 . S
O1824 U1806 2.441 . S
O1824 C1810 1.249 . S
O1825 U1806 2.420 . S
O1825 C1810 1.202 . S
O1826 U1806 2.455 . S
O1826 C1823 1.301 . S
O1827 U1806 2.449 . S
O1827 C1823 1.282 . S
H1828 C1801 0.931 . S
H1829 C1803 0.929 . S
H1830 C1804 0.930 . S
H1831 C1805 0.931 . S
H1832 C1812 0.932 . S
H1833 C1813 0.930 . S
H1834 C1814 0.929 . S
H1835 C1816 0.930 . S
H1836 C1818 0.932 . S
H1837 C1819 0.929 . S
H1838 C1820 0.928 . S
H1839 C1822 0.932 . S
C1840 C1841 1.264 . S
C1840 C1845 1.479 . S
C1840 C1850 1.465 . S
C1841 C1840 1.264 . S
C1841 C1843 1.339 . S
C1841 H1868 0.931 . S
C1842 C1843 1.395 . S
C1842 C1844 1.320 . S
C1843 C1841 1.339 . S
C1843 C1842 1.395 . S
C1843 H1869 0.929 . S
C1844 C1842 1.320 . S
C1844 C1845 1.405 . S
C1844 H1870 0.930 . S
C1845 C1840 1.479 . S
C1845 C1844 1.405 . S
C1845 H1871 0.931 . S
U1846 O1847 2.454 . S
U1846 O1848 2.458 . S
U1846 C1849 2.984 . S
U1846 C1850 2.847 . S
U1846 C1863 2.882 . S
U1846 O1864 2.441 . S
U1846 O1865 2.420 . S
U1846 O1866 2.455 . S
U1846 O1867 2.449 . S
O1847 U1846 2.454 . S
O1847 C1849 1.353 . S
O1848 U1846 2.458 . S
O1848 C1849 1.286 . S
C1849 U1846 2.984 . S
C1849 O1847 1.353 . S
C1849 O1848 1.286 . S
C1849 C1851 1.363 . S
C1850 C1840 1.465 . S
C1850 U1846 2.847 . S
C1850 O1864 1.249 . S
C1850 O1865 1.202 . S
C1851 C1849 1.363 . S
C1851 C1853 1.408 . S
C1851 C1856 1.342 . S
C1852 C1853 1.310 . S
C1852 C1855 1.461 . S
C1852 H1872 0.932 . S
C1853 C1851 1.408 . S
C1853 C1852 1.310 . S
C1853 H1873 0.930 . S
C1854 C1855 1.474 . S
C1854 C1856 1.285 . S
C1854 H1874 0.929 . S
C1855 C1852 1.461 . S
C1855 C1854 1.474 . S
C1856 C1851 1.342 . S
C1856 C1854 1.285 . S
C1856 H1875 0.930 . S
C1857 C1860 1.424 . S
C1857 C1862 1.245 . S
C1857 C1863 1.428 . S
C1858 C1861 1.260 . S
C1858 C1862 1.477 . S
C1858 H1876 0.932 . S
C1859 C1860 1.384 . S
C1859 C1861 1.479 . S
C1859 H1877 0.929 . S
C1860 C1857 1.424 . S
C1860 C1859 1.384 . S
C1860 H1878 0.928 . S
C1861 C1858 1.260 . S
C1861 C1859 1.479 . S
C1862 C1857 1.245 . S
C1862 C1858 1.477 . S
C1862 H1879 0.932 . S
C1863 U1846 2.882 . S
C1863 C1857 1.428 . S
C1863 O1866 1.301 . S
C1863 O1867 1.282 . S
O1864 U1846 2.441 . S
O1864 C1850 1.249 . S
O1865 U1846 2.420 . S
O1865 C1850 1.202 . S
O1866 U1846 2.455 . S
O1866 C1863 1.301 . S
O1867 U1846 2.449 . S
O1867 C1863 1.282 . S
H1868 C1841 0.931 . S
H1869 C1843 0.929 . S
H1870 C1844 0.930 . S
H1871 C1845 0.931 . S
H1872 C1852 0.932 . S
H1873 C1853 0.930 . S
H1874 C1854 0.929 . S
H1875 C1856 0.930 . S
H1876 C1858 0.932 . S
H1877 C1859 0.929 . S
H1878 C1860 0.928 . S
H1879 C1862 0.932 . S
C1880 C1881 1.264 . S
C1880 C1885 1.479 . S
C1880 C1890 1.465 . S
C1881 C1880 1.264 . S
C1881 C1883 1.339 . S
C1881 H1908 0.931 . S
C1882 C1883 1.395 . S
C1882 C1884 1.320 . S
C1883 C1881 1.339 . S
C1883 C1882 1.395 . S
C1883 H1909 0.929 . S
C1884 C1882 1.320 . S
C1884 C1885 1.405 . S
C1884 H1910 0.930 . S
C1885 C1880 1.479 . S
C1885 C1884 1.405 . S
C1885 H1911 0.931 . S
U1886 O1887 2.454 . S
U1886 O1888 2.458 . S
U1886 C1889 2.984 . S
U1886 C1890 2.847 . S
U1886 C1903 2.882 . S
U1886 O1904 2.441 . S
U1886 O1905 2.420 . S
U1886 O1906 2.455 . S
U1886 O1907 2.449 . S
O1887 U1886 2.454 . S
O1887 C1889 1.353 . S
O1888 U1886 2.458 . S
O1888 C1889 1.286 . S
C1889 U1886 2.984 . S
C1889 O1887 1.353 . S
C1889 O1888 1.286 . S
C1889 C1891 1.363 . S
C1890 C1880 1.465 . S
C1890 U1886 2.847 . S
C1890 O1904 1.249 . S
C1890 O1905 1.202 . S
C1891 C1889 1.363 . S
C1891 C1893 1.408 . S
C1891 C1896 1.342 . S
C1892 C1893 1.310 . S
C1892 C1895 1.461 . S
C1892 H1912 0.932 . S
C1893 C1891 1.408 . S
C1893 C1892 1.310 . S
C1893 H1913 0.930 . S
C1894 C1895 1.474 . S
C1894 C1896 1.285 . S
C1894 H1914 0.929 . S
C1895 C1892 1.461 . S
C1895 C1894 1.474 . S
C1896 C1891 1.342 . S
C1896 C1894 1.285 . S
C1896 H1915 0.930 . S
C1897 C1900 1.424 . S
C1897 C1902 1.245 . S
C1897 C1903 1.428 . S
C1898 C1901 1.260 . S
C1898 C1902 1.477 . S
C1898 H1916 0.932 . S
C1899 C1900 1.384 . S
C1899 C1901 1.479 . S
C1899 H1917 0.929 . S
C1900 C1897 1.424 . S
C1900 C1899 1.384 . S
C1900 H1918 0.928 . S
C1901 C1898 1.260 . S
C1901 C1899 1.479 . S
C1902 C1897 1.245 . S
C1902 C1898 1.477 . S
C1902 H1919 0.932 . S
C1903 U1886 2.882 . S
C1903 C1897 1.428 . S
C1903 O1906 1.301 . S
C1903 O1907 1.282 . S
O1904 U1886 2.441 . S
O1904 C1890 1.249 . S
O1905 U1886 2.420 . S
O1905 C1890 1.202 . S
O1906 U1886 2.455 . S
O1906 C1903 1.301 . S
O1907 U1886 2.449 . S
O1907 C1903 1.282 . S
H1908 C1881 0.931 . S
H1909 C1883 0.929 . S
H1910 C1884 0.930 . S
H1911 C1885 0.931 . S
H1912 C1892 0.932 . S
H1913 C1893 0.930 . S
H1914 C1894 0.929 . S
H1915 C1896 0.930 . S
H1916 C1898 0.932 . S
H1917 C1899 0.929 . S
H1918 C1900 0.928 . S
H1919 C1902 0.932 . S
C1920 C1921 1.264 . S
C1920 C1925 1.479 . S
C1920 C1930 1.465 . S
C1921 C1920 1.264 . S
C1921 C1923 1.339 . S
C1921 H1948 0.931 . S
C1922 C1923 1.395 . S
C1922 C1924 1.320 . S
C1923 C1921 1.339 . S
C1923 C1922 1.395 . S
C1923 H1949 0.929 . S
C1924 C1922 1.320 . S
C1924 C1925 1.405 . S
C1924 H1950 0.930 . S
C1925 C1920 1.479 . S
C1925 C1924 1.405 . S
C1925 H1951 0.931 . S
U1926 O1927 2.454 . S
U1926 O1928 2.458 . S
U1926 C1929 2.984 . S
U1926 C1930 2.847 . S
U1926 C1943 2.882 . S
U1926 O1944 2.441 . S
U1926 O1945 2.420 . S
U1926 O1946 2.455 . S
U1926 O1947 2.449 . S
O1927 U1926 2.454 . S
O1927 C1929 1.353 . S
O1928 U1926 2.458 . S
O1928 C1929 1.286 . S
C1929 U1926 2.984 . S
C1929 O1927 1.353 . S
C1929 O1928 1.286 . S
C1929 C1931 1.363 . S
C1930 C1920 1.465 . S
C1930 U1926 2.847 . S
C1930 O1944 1.249 . S
C1930 O1945 1.202 . S
C1931 C1929 1.363 . S
C1931 C1933 1.408 . S
C1931 C1936 1.342 . S
C1932 C1933 1.310 . S
C1932 C1935 1.461 . S
C1932 H1952 0.932 . S
C1933 C1931 1.408 . S
C1933 C1932 1.310 . S
C1933 H1953 0.930 . S
C1934 C1935 1.474 . S
C1934 C1936 1.285 . S
C1934 H1954 0.929 . S
C1935 C1932 1.461 . S
C1935 C1934 1.474 . S
C1936 C1931 1.342 . S
C1936 C1934 1.285 . S
C1936 H1955 0.930 . S
C1937 C1940 1.424 . S
C1937 C1942 1.245 . S
C1937 C1943 1.428 . S
C1938 C1941 1.260 . S
C1938 C1942 1.477 . S
C1938 H1956 0.932 . S
C1939 C1940 1.384 . S
C1939 C1941 1.479 . S
C1939 H1957 0.929 . S
C1940 C1937 1.424 . S
C1940 C1939 1.384 . S
C1940 H1958 0.928 . S
C1941 C1938 1.260 . S
C1941 C1939 1.479 . S
C1942 C1937 1.245 . S
C1942 C1938 1.477 . S
C1942 H1959 0.932 . S
C1943 U1926 2.882 . S
C1943 C1937 1.428 . S
C1943 O1946 1.301 . S
C1943 O1947 1.282 . S
O1944 U1926 2.441 . S
O1944 C1930 1.249 . S
O1945 U1926 2.420 . S
O1945 C1930 1.202 . S
O1946 U1926 2.455 . S
O1946 C1943 1.301 . S
O1947 U1926 2.449 . S
O1947 C1943 1.282 . S
H1948 C1921 0.931 . S
H1949 C1923 0.929 . S
H1950 C1924 0.930 . S
H1951 C1925 0.931 . S
H1952 C1932 0.932 . S
H1953 C1933 0.930 . S
H1954 C1934 0.929 . S
H1955 C1936 0.930 . S
H1956 C1938 0.932 . S
H1957 C1939 0.929 . S
H1958 C1940 0.928 . S
H1959 C1942 0.932 . S
C1960 C1961 1.264 . S
C1960 C1965 1.479 . S
C1960 C1970 1.465 . S
C1961 C1960 1.264 . S
C1961 C1963 1.339 . S
C1961 H1988 0.931 . S
C1962 C1963 1.395 . S
C1962 C1964 1.320 . S
C1963 C1961 1.339 . S
C1963 C1962 1.395 . S
C1963 H1989 0.929 . S
C1964 C1962 1.320 . S
C1964 C1965 1.405 . S
C1964 H1990 0.930 . S
C1965 C1960 1.479 . S
C1965 C1964 1.405 . S
C1965 H1991 0.931 . S
U1966 O1967 2.454 . S
U1966 O1968 2.458 . S
U1966 C1969 2.984 . S
U1966 C1970 2.847 . S
U1966 C1983 2.882 . S
U1966 O1984 2.441 . S
U1966 O1985 2.420 . S
U1966 O1986 2.455 . S
U1966 O1987 2.449 . S
O1967 U1966 2.454 . S
O1967 C1969 1.353 . S
O1968 U1966 2.458 . S
O1968 C1969 1.286 . S
C1969 U1966 2.984 . S
C1969 O1967 1.353 . S
C1969 O1968 1.286 . S
C1969 C1971 1.363 . S
C1970 C1960 1.465 . S
C1970 U1966 2.847 . S
C1970 O1984 1.249 . S
C1970 O1985 1.202 . S
C1971 C1969 1.363 . S
C1971 C1973 1.408 . S
C1971 C1976 1.342 . S
C1972 C1973 1.310 . S
C1972 C1975 1.461 . S
C1972 H1992 0.932 . S
C1973 C1971 1.408 . S
C1973 C1972 1.310 . S
C1973 H1993 0.930 . S
C1974 C1975 1.474 . S
C1974 C1976 1.285 . S
C1974 H1994 0.929 . S
C1975 C1972 1.461 . S
C1975 C1974 1.474 . S
C1976 C1971 1.342 . S
C1976 C1974 1.285 . S
C1976 H1995 0.930 . S
C1977 C1980 1.424 . S
C1977 C1982 1.245 . S
C1977 C1983 1.428 . S
C1978 C1981 1.260 . S
C1978 C1982 1.477 . S
C1978 H1996 0.932 . S
C1979 C1980 1.384 . S
C1979 C1981 1.479 . S
C1979 H1997 0.929 . S
C1980 C1977 1.424 . S
C1980 C1979 1.384 . S
C1980 H1998 0.928 . S
C1981 C1978 1.260 . S
C1981 C1979 1.479 . S
C1982 C1977 1.245 . S
C1982 C1978 1.477 . S
C1982 H1999 0.932 . S
C1983 U1966 2.882 . S
C1983 C1977 1.428 . S
C1983 O1986 1.301 . S
C1983 O1987 1.282 . S
O1984 U1966 2.441 . S
O1984 C1970 1.249 . S
O1985 U1966 2.420 . S
O1985 C1970 1.202 . S
O1986 U1966 2.455 . S
O1986 C1983 1.301 . S
O1987 U1966 2.449 . S
O1987 C1983 1.282 . S
H1988 C1961 0.931 . S
H1989 C1963 0.929 . S
H1990 C1964 0.930 . S
H1991 C1965 0.931 . S
H1992 C1972 0.932 . S
H1993 C1973 0.930 . S
H1994 C1974 0.929 . S
H1995 C1976 0.930 . S
H1996 C1978 0.932 . S
H1997 C1979 0.929 . S
H1998 C1980 0.928 . S
H1999 C1982 0.932 . S
C2000 C2001 1.264 . S
C2000 C2005 1.479 . S
C2000 C2010 1.465 . S
C2001 C2000 1.264 . S
C2001 C2003 1.339 . S
C2001 H2028 0.931 . S
C2002 C2003 1.395 . S
C2002 C2004 1.320 . S
C2003 C2001 1.339 . S
C2003 C2002 1.395 . S
C2003 H2029 0.929 . S
C2004 C2002 1.320 . S
C2004 C2005 1.405 . S
C2004 H2030 0.930 . S
C2005 C2000 1.479 . S
C2005 C2004 1.405 . S
C2005 H2031 0.931 . S
U2006 O2007 2.454 . S
U2006 O2008 2.458 . S
U2006 C2009 2.984 . S
U2006 C2010 2.847 . S
U2006 C2023 2.882 . S
U2006 O2024 2.441 . S
U2006 O2025 2.420 . S
U2006 O2026 2.455 . S
U2006 O2027 2.449 . S
O2007 U2006 2.454 . S
O2007 C2009 1.353 . S
O2008 U2006 2.458 . S
O2008 C2009 1.286 . S
C2009 U2006 2.984 . S
C2009 O2007 1.353 . S
C2009 O2008 1.286 . S
C2009 C2011 1.363 . S
C2010 C2000 1.465 . S
C2010 U2006 2.847 . S
C2010 O2024 1.249 . S
C2010 O2025 1.202 . S
C2011 C2009 1.363 . S
C2011 C2013 1.408 . S
C2011 C2016 1.342 . S
C2012 C2013 1.310 . S
C2012 C2015 1.461 . S
C2012 H2032 0.932 . S
C2013 C2011 1.408 . S
C2013 C2012 1.310 . S
C2013 H2033 0.930 . S
C2014 C2015 1.474 . S
C2014 C2016 1.285 . S
C2014 H2034 0.929 . S
C2015 C2012 1.461 . S
C2015 C2014 1.474 . S
C2016 C2011 1.342 . S
C2016 C2014 1.285 . S
C2016 H2035 0.930 . S
C2017 C2020 1.424 . S
C2017 C2022 1.245 . S
C2017 C2023 1.428 . S
C2018 C2021 1.260 . S
C2018 C2022 1.477 . S
C2018 H2036 0.932 . S
C2019 C2020 1.384 . S
C2019 C2021 1.479 . S
C2019 H2037 0.929 . S
C2020 C2017 1.424 . S
C2020 C2019 1.384 . S
C2020 H2038 0.928 . S
C2021 C2018 1.260 . S
C2021 C2019 1.479 . S
C2022 C2017 1.245 . S
C2022 C2018 1.477 . S
C2022 H2039 0.932 . S
C2023 U2006 2.882 . S
C2023 C2017 1.428 . S
C2023 O2026 1.301 . S
C2023 O2027 1.282 . S
O2024 U2006 2.441 . S
O2024 C2010 1.249 . S
O2025 U2006 2.420 . S
O2025 C2010 1.202 . S
O2026 U2006 2.455 . S
O2026 C2023 1.301 . S
O2027 U2006 2.449 . S
O2027 C2023 1.282 . S
H2028 C2001 0.931 . S
H2029 C2003 0.929 . S
H2030 C2004 0.930 . S
H2031 C2005 0.931 . S
H2032 C2012 0.932 . S
H2033 C2013 0.930 . S
H2034 C2014 0.929 . S
H2035 C2016 0.930 . S
H2036 C2018 0.932 . S
H2037 C2019 0.929 . S
H2038 C2020 0.928 . S
H2039 C2022 0.932 . S
C2040 C2041 1.264 . S
C2040 C2045 1.479 . S
C2040 C2050 1.465 . S
C2041 C2040 1.264 . S
C2041 C2043 1.339 . S
C2041 H2068 0.931 . S
C2042 C2043 1.395 . S
C2042 C2044 1.320 . S
C2043 C2041 1.339 . S
C2043 C2042 1.395 . S
C2043 H2069 0.929 . S
C2044 C2042 1.320 . S
C2044 C2045 1.405 . S
C2044 H2070 0.930 . S
C2045 C2040 1.479 . S
C2045 C2044 1.405 . S
C2045 H2071 0.931 . S
U2046 O2047 2.454 . S
U2046 O2048 2.458 . S
U2046 C2049 2.984 . S
U2046 C2050 2.847 . S
U2046 C2063 2.882 . S
U2046 O2064 2.441 . S
U2046 O2065 2.420 . S
U2046 O2066 2.455 . S
U2046 O2067 2.449 . S
O2047 U2046 2.454 . S
O2047 C2049 1.353 . S
O2048 U2046 2.458 . S
O2048 C2049 1.286 . S
C2049 U2046 2.984 . S
C2049 O2047 1.353 . S
C2049 O2048 1.286 . S
C2049 C2051 1.363 . S
C2050 C2040 1.465 . S
C2050 U2046 2.847 . S
C2050 O2064 1.249 . S
C2050 O2065 1.202 . S
C2051 C2049 1.363 . S
C2051 C2053 1.408 . S
C2051 C2056 1.342 . S
C2052 C2053 1.310 . S
C2052 C2055 1.461 . S
C2052 H2072 0.932 . S
C2053 C2051 1.408 . S
C2053 C2052 1.310 . S
C2053 H2073 0.930 . S
C2054 C2055 1.474 . S
C2054 C2056 1.285 . S
C2054 H2074 0.929 . S
C2055 C2052 1.461 . S
C2055 C2054 1.474 . S
C2056 C2051 1.342 . S
C2056 C2054 1.285 . S
C2056 H2075 0.930 . S
C2057 C2060 1.424 . S
C2057 C2062 1.245 . S
C2057 C2063 1.428 . S
C2058 C2061 1.260 . S
C2058 C2062 1.477 . S
C2058 H2076 0.932 . S
C2059 C2060 1.384 . S
C2059 C2061 1.479 . S
C2059 H2077 0.929 . S
C2060 C2057 1.424 . S
C2060 C2059 1.384 . S
C2060 H2078 0.928 . S
C2061 C2058 1.260 . S
C2061 C2059 1.479 . S
C2062 C2057 1.245 . S
C2062 C2058 1.477 . S
C2062 H2079 0.932 . S
C2063 U2046 2.882 . S
C2063 C2057 1.428 . S
C2063 O2066 1.301 . S
C2063 O2067 1.282 . S
O2064 U2046 2.441 . S
O2064 C2050 1.249 . S
O2065 U2046 2.420 . S
O2065 C2050 1.202 . S
O2066 U2046 2.455 . S
O2066 C2063 1.301 . S
O2067 U2046 2.449 . S
O2067 C2063 1.282 . S
H2068 C2041 0.931 . S
H2069 C2043 0.929 . S
H2070 C2044 0.930 . S
H2071 C2045 0.931 . S
H2072 C2052 0.932 . S
H2073 C2053 0.930 . S
H2074 C2054 0.929 . S
H2075 C2056 0.930 . S
H2076 C2058 0.932 . S
H2077 C2059 0.929 . S
H2078 C2060 0.928 . S
H2079 C2062 0.932 . S
C2080 C2081 1.264 . S
C2080 C2085 1.479 . S
C2080 C2090 1.465 . S
C2081 C2080 1.264 . S
C2081 C2083 1.339 . S
C2081 H2108 0.931 . S
C2082 C2083 1.395 . S
C2082 C2084 1.320 . S
C2083 C2081 1.339 . S
C2083 C2082 1.395 . S
C2083 H2109 0.929 . S
C2084 C2082 1.320 . S
C2084 C2085 1.405 . S
C2084 H2110 0.930 . S
C2085 C2080 1.479 . S
C2085 C2084 1.405 . S
C2085 H2111 0.931 . S
U2086 O2087 2.454 . S
U2086 O2088 2.458 . S
U2086 C2089 2.984 . S
U2086 C2090 2.847 . S
U2086 C2103 2.882 . S
U2086 O2104 2.441 . S
U2086 O2105 2.420 . S
U2086 O2106 2.455 . S
U2086 O2107 2.449 . S
O2087 U2086 2.454 . S
O2087 C2089 1.353 . S
O2088 U2086 2.458 . S
O2088 C2089 1.286 . S
C2089 U2086 2.984 . S
C2089 O2087 1.353 . S
C2089 O2088 1.286 . S
C2089 C2091 1.363 . S
C2090 C2080 1.465 . S
C2090 U2086 2.847 . S
C2090 O2104 1.249 . S
C2090 O2105 1.202 . S
C2091 C2089 1.363 . S
C2091 C2093 1.408 . S
C2091 C2096 1.342 . S
C2092 C2093 1.310 . S
C2092 C2095 1.461 . S
C2092 H2112 0.932 . S
C2093 C2091 1.408 . S
C2093 C2092 1.310 . S
C2093 H2113 0.930 . S
C2094 C2095 1.474 . S
C2094 C2096 1.285 . S
C2094 H2114 0.929 . S
C2095 C2092 1.461 . S
C2095 C2094 1.474 . S
C2096 C2091 1.342 . S
C2096 C2094 1.285 . S
C2096 H2115 0.930 . S
C2097 C2100 1.424 . S
C2097 C2102 1.245 . S
C2097 C2103 1.428 . S
C2098 C2101 1.260 . S
C2098 C2102 1.477 . S
C2098 H2116 0.932 . S
C2099 C2100 1.384 . S
C2099 C2101 1.479 . S
C2099 H2117 0.929 . S
C2100 C2097 1.424 . S
C2100 C2099 1.384 . S
C2100 H2118 0.928 . S
C2101 C2098 1.260 . S
C2101 C2099 1.479 . S
C2102 C2097 1.245 . S
C2102 C2098 1.477 . S
C2102 H2119 0.932 . S
C2103 U2086 2.882 . S
C2103 C2097 1.428 . S
C2103 O2106 1.301 . S
C2103 O2107 1.282 . S
O2104 U2086 2.441 . S
O2104 C2090 1.249 . S
O2105 U2086 2.420 . S
O2105 C2090 1.202 . S
O2106 U2086 2.455 . S
O2106 C2103 1.301 . S
O2107 U2086 2.449 . S
O2107 C2103 1.282 . S
H2108 C2081 0.931 . S
H2109 C2083 0.929 . S
H2110 C2084 0.930 . S
H2111 C2085 0.931 . S
H2112 C2092 0.932 . S
H2113 C2093 0.930 . S
H2114 C2094 0.929 . S
H2115 C2096 0.930 . S
H2116 C2098 0.932 . S
H2117 C2099 0.929 . S
H2118 C2100 0.928 . S
H2119 C2102 0.932 . S
C2120 C2121 1.264 . S
C2120 C2125 1.479 . S
C2120 C2130 1.465 . S
C2121 C2120 1.264 . S
C2121 C2123 1.339 . S
C2121 H2148 0.931 . S
C2122 C2123 1.395 . S
C2122 C2124 1.320 . S
C2123 C2121 1.339 . S
C2123 C2122 1.395 . S
C2123 H2149 0.929 . S
C2124 C2122 1.320 . S
C2124 C2125 1.405 . S
C2124 H2150 0.930 . S
C2125 C2120 1.479 . S
C2125 C2124 1.405 . S
C2125 H2151 0.931 . S
U2126 O2127 2.454 . S
U2126 O2128 2.458 . S
U2126 C2129 2.984 . S
U2126 C2130 2.847 . S
U2126 C2143 2.882 . S
U2126 O2144 2.441 . S
U2126 O2145 2.420 . S
U2126 O2146 2.455 . S
U2126 O2147 2.449 . S
O2127 U2126 2.454 . S
O2127 C2129 1.353 . S
O2128 U2126 2.458 . S
O2128 C2129 1.286 . S
C2129 U2126 2.984 . S
C2129 O2127 1.353 . S
C2129 O2128 1.286 . S
C2129 C2131 1.363 . S
C2130 C2120 1.465 . S
C2130 U2126 2.847 . S
C2130 O2144 1.249 . S
C2130 O2145 1.202 . S
C2131 C2129 1.363 . S
C2131 C2133 1.408 . S
C2131 C2136 1.342 . S
C2132 C2133 1.310 . S
C2132 C2135 1.461 . S
C2132 H2152 0.932 . S
C2133 C2131 1.408 . S
C2133 C2132 1.310 . S
C2133 H2153 0.930 . S
C2134 C2135 1.474 . S
C2134 C2136 1.285 . S
C2134 H2154 0.929 . S
C2135 C2132 1.461 . S
C2135 C2134 1.474 . S
C2136 C2131 1.342 . S
C2136 C2134 1.285 . S
C2136 H2155 0.930 . S
C2137 C2140 1.424 . S
C2137 C2142 1.245 . S
C2137 C2143 1.428 . S
C2138 C2141 1.260 . S
C2138 C2142 1.477 . S
C2138 H2156 0.932 . S
C2139 C2140 1.384 . S
C2139 C2141 1.479 . S
C2139 H2157 0.929 . S
C2140 C2137 1.424 . S
C2140 C2139 1.384 . S
C2140 H2158 0.928 . S
C2141 C2138 1.260 . S
C2141 C2139 1.479 . S
C2142 C2137 1.245 . S
C2142 C2138 1.477 . S
C2142 H2159 0.932 . S
C2143 U2126 2.882 . S
C2143 C2137 1.428 . S
C2143 O2146 1.301 . S
C2143 O2147 1.282 . S
O2144 U2126 2.441 . S
O2144 C2130 1.249 . S
O2145 U2126 2.420 . S
O2145 C2130 1.202 . S
O2146 U2126 2.455 . S
O2146 C2143 1.301 . S
O2147 U2126 2.449 . S
O2147 C2143 1.282 . S
H2148 C2121 0.931 . S
H2149 C2123 0.929 . S
H2150 C2124 0.930 . S
H2151 C2125 0.931 . S
H2152 C2132 0.932 . S
H2153 C2133 0.930 . S
H2154 C2134 0.929 . S
H2155 C2136 0.930 . S
H2156 C2138 0.932 . S
H2157 C2139 0.929 . S
H2158 C2140 0.928 . S
H2159 C2142 0.932 . S
C2160 C2161 1.264 . S
C2160 C2165 1.479 . S
C2160 C2170 1.465 . S
C2161 C2160 1.264 . S
C2161 C2163 1.339 . S
C2161 H2188 0.931 . S
C2162 C2163 1.395 . S
C2162 C2164 1.320 . S
C2163 C2161 1.339 . S
C2163 C2162 1.395 . S
C2163 H2189 0.929 . S
C2164 C2162 1.320 . S
C2164 C2165 1.405 . S
C2164 H2190 0.930 . S
C2165 C2160 1.479 . S
C2165 C2164 1.405 . S
C2165 H2191 0.931 . S
U2166 O2167 2.454 . S
U2166 O2168 2.458 . S
U2166 C2169 2.984 . S
U2166 C2170 2.847 . S
U2166 C2183 2.882 . S
U2166 O2184 2.441 . S
U2166 O2185 2.420 . S
U2166 O2186 2.455 . S
U2166 O2187 2.449 . S
O2167 U2166 2.454 . S
O2167 C2169 1.353 . S
O2168 U2166 2.458 . S
O2168 C2169 1.286 . S
C2169 U2166 2.984 . S
C2169 O2167 1.353 . S
C2169 O2168 1.286 . S
C2169 C2171 1.363 . S
C2170 C2160 1.465 . S
C2170 U2166 2.847 . S
C2170 O2184 1.249 . S
C2170 O2185 1.202 . S
C2171 C2169 1.363 . S
C2171 C2173 1.408 . S
C2171 C2176 1.342 . S
C2172 C2173 1.310 . S
C2172 C2175 1.461 . S
C2172 H2192 0.932 . S
C2173 C2171 1.408 . S
C2173 C2172 1.310 . S
C2173 H2193 0.930 . S
C2174 C2175 1.474 . S
C2174 C2176 1.285 . S
C2174 H2194 0.929 . S
C2175 C2172 1.461 . S
C2175 C2174 1.474 . S
C2176 C2171 1.342 . S
C2176 C2174 1.285 . S
C2176 H2195 0.930 . S
C2177 C2180 1.424 . S
C2177 C2182 1.245 . S
C2177 C2183 1.428 . S
C2178 C2181 1.260 . S
C2178 C2182 1.477 . S
C2178 H2196 0.932 . S
C2179 C2180 1.384 . S
C2179 C2181 1.479 . S
C2179 H2197 0.929 . S
C2180 C2177 1.424 . S
C2180 C2179 1.384 . S
C2180 H2198 0.928 . S
C2181 C2178 1.260 . S
C2181 C2179 1.479 . S
C2182 C2177 1.245 . S
C2182 C2178 1.477 . S
C2182 H2199 0.932 . S
C2183 U2166 2.882 . S
C2183 C2177 1.428 . S
C2183 O2186 1.301 . S
C2183 O2187 1.282 . S
O2184 U2166 2.441 . S
O2184 C2170 1.249 . S
O2185 U2166 2.420 . S
O2185 C2170 1.202 . S
O2186 U2166 2.455 . S
O2186 C2183 1.301 . S
O2187 U2166 2.449 . S
O2187 C2183 1.282 . S
H2188 C2161 0.931 . S
H2189 C2163 0.929 . S
H2190 C2164 0.930 . S
H2191 C2165 0.931 . S
H2192 C2172 0.932 . S
H2193 C2173 0.930 . S
H2194 C2174 0.929 . S
H2195 C2176 0.930 . S
H2196 C2178 0.932 . S
H2197 C2179 0.929 . S
H2198 C2180 0.928 . S
H2199 C2182 0.932 . S
C2200 C2201 1.264 . S
C2200 C2205 1.479 . S
C2200 C2210 1.465 . S
C2201 C2200 1.264 . S
C2201 C2203 1.339 . S
C2201 H2228 0.931 . S
C2202 C2203 1.395 . S
C2202 C2204 1.320 . S
C2203 C2201 1.339 . S
C2203 C2202 1.395 . S
C2203 H2229 0.929 . S
C2204 C2202 1.320 . S
C2204 C2205 1.405 . S
C2204 H2230 0.930 . S
C2205 C2200 1.479 . S
C2205 C2204 1.405 . S
C2205 H2231 0.931 . S
U2206 O2207 2.454 . S
U2206 O2208 2.458 . S
U2206 C2209 2.984 . S
U2206 C2210 2.847 . S
U2206 C2223 2.882 . S
U2206 O2224 2.441 . S
U2206 O2225 2.420 . S
U2206 O2226 2.455 . S
U2206 O2227 2.449 . S
O2207 U2206 2.454 . S
O2207 C2209 1.353 . S
O2208 U2206 2.458 . S
O2208 C2209 1.286 . S
C2209 U2206 2.984 . S
C2209 O2207 1.353 . S
C2209 O2208 1.286 . S
C2209 C2211 1.363 . S
C2210 C2200 1.465 . S
C2210 U2206 2.847 . S
C2210 O2224 1.249 . S
C2210 O2225 1.202 . S
C2211 C2209 1.363 . S
C2211 C2213 1.408 . S
C2211 C2216 1.342 . S
C2212 C2213 1.310 . S
C2212 C2215 1.461 . S
C2212 H2232 0.932 . S
C2213 C2211 1.408 . S
C2213 C2212 1.310 . S
C2213 H2233 0.930 . S
C2214 C2215 1.474 . S
C2214 C2216 1.285 . S
C2214 H2234 0.929 . S
C2215 C2212 1.461 . S
C2215 C2214 1.474 . S
C2216 C2211 1.342 . S
C2216 C2214 1.285 . S
C2216 H2235 0.930 . S
C2217 C2220 1.424 . S
C2217 C2222 1.245 . S
C2217 C2223 1.428 . S
C2218 C2221 1.260 . S
C2218 C2222 1.477 . S
C2218 H2236 0.932 . S
C2219 C2220 1.384 . S
C2219 C2221 1.479 . S
C2219 H2237 0.929 . S
C2220 C2217 1.424 . S
C2220 C2219 1.384 . S
C2220 H2238 0.928 . S
C2221 C2218 1.260 . S
C2221 C2219 1.479 . S
C2222 C2217 1.245 . S
C2222 C2218 1.477 . S
C2222 H2239 0.932 . S
C2223 U2206 2.882 . S
C2223 C2217 1.428 . S
C2223 O2226 1.301 . S
C2223 O2227 1.282 . S
O2224 U2206 2.441 . S
O2224 C2210 1.249 . S
O2225 U2206 2.420 . S
O2225 C2210 1.202 . S
O2226 U2206 2.455 . S
O2226 C2223 1.301 . S
O2227 U2206 2.449 . S
O2227 C2223 1.282 . S
H2228 C2201 0.931 . S
H2229 C2203 0.929 . S
H2230 C2204 0.930 . S
H2231 C2205 0.931 . S
H2232 C2212 0.932 . S
H2233 C2213 0.930 . S
H2234 C2214 0.929 . S
H2235 C2216 0.930 . S
H2236 C2218 0.932 . S
H2237 C2219 0.929 . S
H2238 C2220 0.928 . S
H2239 C2222 0.932 . S
C2240 C2241 1.264 . S
C2240 C2245 1.479 . S
C2240 C2250 1.465 . S
C2241 C2240 1.264 . S
C2241 C2243 1.339 . S
C2241 H2268 0.931 . S
C2242 C2243 1.395 . S
C2242 C2244 1.320 . S
C2243 C2241 1.339 . S
C2243 C2242 1.395 . S
C2243 H2269 0.929 . S
C2244 C2242 1.320 . S
C2244 C2245 1.405 . S
C2244 H2270 0.930 . S
C2245 C2240 1.479 . S
C2245 C2244 1.405 . S
C2245 H2271 0.931 . S
U2246 O2247 2.454 . S
U2246 O2248 2.458 . S
U2246 C2249 2.984 . S
U2246 C2250 2.847 . S
U2246 C2263 2.882 . S
U2246 O2264 2.441 . S
U2246 O2265 2.420 . S
U2246 O2266 2.455 . S
U2246 O2267 2.449 . S
O2247 U2246 2.454 . S
O2247 C2249 1.353 . S
O2248 U2246 2.458 . S
O2248 C2249 1.286 . S
C2249 U2246 2.984 . S
C2249 O2247 1.353 . S
C2249 O2248 1.286 . S
C2249 C2251 1.363 . S
C2250 C2240 1.465 . S
C2250 U2246 2.847 . S
C2250 O2264 1.249 . S
C2250 O2265 1.202 . S
C2251 C2249 1.363 . S
C2251 C2253 1.408 . S
C2251 C2256 1.342 . S
C2252 C2253 1.310 . S
C2252 C2255 1.461 . S
C2252 H2272 0.932 . S
C2253 C2251 1.408 . S
C2253 C2252 1.310 . S
C2253 H2273 0.930 . S
C2254 C2255 1.474 . S
C2254 C2256 1.285 . S
C2254 H2274 0.929 . S
C2255 C2252 1.461 . S
C2255 C2254 1.474 . S
C2256 C2251 1.342 . S
C2256 C2254 1.285 . S
C2256 H2275 0.930 . S
C2257 C2260 1.424 . S
C2257 C2262 1.245 . S
C2257 C2263 1.428 . S
C2258 C2261 1.260 . S
C2258 C2262 1.477 . S
C2258 H2276 0.932 . S
C2259 C2260 1.384 . S
C2259 C2261 1.479 . S
C2259 H2277 0.929 . S
C2260 C2257 1.424 . S
C2260 C2259 1.384 . S
C2260 H2278 0.928 . S
C2261 C2258 1.260 . S
C2261 C2259 1.479 . S
C2262 C2257 1.245 . S
C2262 C2258 1.477 . S
C2262 H2279 0.932 . S
C2263 U2246 2.882 . S
C2263 C2257 1.428 . S
C2263 O2266 1.301 . S
C2263 O2267 1.282 . S
O2264 U2246 2.441 . S
O2264 C2250 1.249 . S
O2265 U2246 2.420 . S
O2265 C2250 1.202 . S
O2266 U2246 2.455 . S
O2266 C2263 1.301 . S
O2267 U2246 2.449 . S
O2267 C2263 1.282 . S
H2268 C2241 0.931 . S
H2269 C2243 0.929 . S
H2270 C2244 0.930 . S
H2271 C2245 0.931 . S
H2272 C2252 0.932 . S
H2273 C2253 0.930 . S
H2274 C2254 0.929 . S
H2275 C2256 0.930 . S
H2276 C2258 0.932 . S
H2277 C2259 0.929 . S
H2278 C2260 0.928 . S
H2279 C2262 0.932 . S
C2280 C2281 1.264 . S
C2280 C2285 1.479 . S
C2280 C2290 1.465 . S
C2281 C2280 1.264 . S
C2281 C2283 1.339 . S
C2281 H2308 0.931 . S
C2282 C2283 1.395 . S
C2282 C2284 1.320 . S
C2283 C2281 1.339 . S
C2283 C2282 1.395 . S
C2283 H2309 0.929 . S
C2284 C2282 1.320 . S
C2284 C2285 1.405 . S
C2284 H2310 0.930 . S
C2285 C2280 1.479 . S
C2285 C2284 1.405 . S
C2285 H2311 0.931 . S
U2286 O2287 2.454 . S
U2286 O2288 2.458 . S
U2286 C2289 2.984 . S
U2286 C2290 2.847 . S
U2286 C2303 2.882 . S
U2286 O2304 2.441 . S
U2286 O2305 2.420 . S
U2286 O2306 2.455 . S
U2286 O2307 2.449 . S
O2287 U2286 2.454 . S
O2287 C2289 1.353 . S
O2288 U2286 2.458 . S
O2288 C2289 1.286 . S
C2289 U2286 2.984 . S
C2289 O2287 1.353 . S
C2289 O2288 1.286 . S
C2289 C2291 1.363 . S
C2290 C2280 1.465 . S
C2290 U2286 2.847 . S
C2290 O2304 1.249 . S
C2290 O2305 1.202 . S
C2291 C2289 1.363 . S
C2291 C2293 1.408 . S
C2291 C2296 1.342 . S
C2292 C2293 1.310 . S
C2292 C2295 1.461 . S
C2292 H2312 0.932 . S
C2293 C2291 1.408 . S
C2293 C2292 1.310 . S
C2293 H2313 0.930 . S
C2294 C2295 1.474 . S
C2294 C2296 1.285 . S
C2294 H2314 0.929 . S
C2295 C2292 1.461 . S
C2295 C2294 1.474 . S
C2296 C2291 1.342 . S
C2296 C2294 1.285 . S
C2296 H2315 0.930 . S
C2297 C2300 1.424 . S
C2297 C2302 1.245 . S
C2297 C2303 1.428 . S
C2298 C2301 1.260 . S
C2298 C2302 1.477 . S
C2298 H2316 0.932 . S
C2299 C2300 1.384 . S
C2299 C2301 1.479 . S
C2299 H2317 0.929 . S
C2300 C2297 1.424 . S
C2300 C2299 1.384 . S
C2300 H2318 0.928 . S
C2301 C2298 1.260 . S
C2301 C2299 1.479 . S
C2302 C2297 1.245 . S
C2302 C2298 1.477 . S
C2302 H2319 0.932 . S
C2303 U2286 2.882 . S
C2303 C2297 1.428 . S
C2303 O2306 1.301 . S
C2303 O2307 1.282 . S
O2304 U2286 2.441 . S
O2304 C2290 1.249 . S
O2305 U2286 2.420 . S
O2305 C2290 1.202 . S
O2306 U2286 2.455 . S
O2306 C2303 1.301 . S
O2307 U2286 2.449 . S
O2307 C2303 1.282 . S
H2308 C2281 0.931 . S
H2309 C2283 0.929 . S
H2310 C2284 0.930 . S
H2311 C2285 0.931 . S
H2312 C2292 0.932 . S
H2313 C2293 0.930 . S
H2314 C2294 0.929 . S
H2315 C2296 0.930 . S
H2316 C2298 0.932 . S
H2317 C2299 0.929 . S
H2318 C2300 0.928 . S
H2319 C2302 0.932 . S
C2320 C2321 1.264 . S
C2320 C2325 1.479 . S
C2320 C2330 1.465 . S
C2321 C2320 1.264 . S
C2321 C2323 1.339 . S
C2321 H2348 0.931 . S
C2322 C2323 1.395 . S
C2322 C2324 1.320 . S
C2323 C2321 1.339 . S
C2323 C2322 1.395 . S
C2323 H2349 0.929 . S
C2324 C2322 1.320 . S
C2324 C2325 1.405 . S
C2324 H2350 0.930 . S
C2325 C2320 1.479 . S
C2325 C2324 1.405 . S
C2325 H2351 0.931 . S
U2326 O2327 2.454 . S
U2326 O2328 2.458 . S
U2326 C2329 2.984 . S
U2326 C2330 2.847 . S
U2326 C2343 2.882 . S
U2326 O2344 2.441 . S
U2326 O2345 2.420 . S
U2326 O2346 2.455 . S
U2326 O2347 2.449 . S
O2327 U2326 2.454 . S
O2327 C2329 1.353 . S
O2328 U2326 2.458 . S
O2328 C2329 1.286 . S
C2329 U2326 2.984 . S
C2329 O2327 1.353 . S
C2329 O2328 1.286 . S
C2329 C2331 1.363 . S
C2330 C2320 1.465 . S
C2330 U2326 2.847 . S
C2330 O2344 1.249 . S
C2330 O2345 1.202 . S
C2331 C2329 1.363 . S
C2331 C2333 1.408 . S
C2331 C2336 1.342 . S
C2332 C2333 1.310 . S
C2332 C2335 1.461 . S
C2332 H2352 0.932 . S
C2333 C2331 1.408 . S
C2333 C2332 1.310 . S
C2333 H2353 0.930 . S
C2334 C2335 1.474 . S
C2334 C2336 1.285 . S
C2334 H2354 0.929 . S
C2335 C2332 1.461 . S
C2335 C2334 1.474 . S
C2336 C2331 1.342 . S
C2336 C2334 1.285 . S
C2336 H2355 0.930 . S
C2337 C2340 1.424 . S
C2337 C2342 1.245 . S
C2337 C2343 1.428 . S
C2338 C2341 1.260 . S
C2338 C2342 1.477 . S
C2338 H2356 0.932 . S
C2339 C2340 1.384 . S
C2339 C2341 1.479 . S
C2339 H2357 0.929 . S
C2340 C2337 1.424 . S
C2340 C2339 1.384 . S
C2340 H2358 0.928 . S
C2341 C2338 1.260 . S
C2341 C2339 1.479 . S
C2342 C2337 1.245 . S
C2342 C2338 1.477 . S
C2342 H2359 0.932 . S
C2343 U2326 2.882 . S
C2343 C2337 1.428 . S
C2343 O2346 1.301 . S
C2343 O2347 1.282 . S
O2344 U2326 2.441 . S
O2344 C2330 1.249 . S
O2345 U2326 2.420 . S
O2345 C2330 1.202 . S
O2346 U2326 2.455 . S
O2346 C2343 1.301 . S
O2347 U2326 2.449 . S
O2347 C2343 1.282 . S
H2348 C2321 0.931 . S
H2349 C2323 0.929 . S
H2350 C2324 0.930 . S
H2351 C2325 0.931 . S
H2352 C2332 0.932 . S
H2353 C2333 0.930 . S
H2354 C2334 0.929 . S
H2355 C2336 0.930 . S
H2356 C2338 0.932 . S
H2357 C2339 0.929 . S
H2358 C2340 0.928 . S
H2359 C2342 0.932 . S
C2360 C2361 1.264 . S
C2360 C2365 1.479 . S
C2360 C2370 1.465 . S
C2361 C2360 1.264 . S
C2361 C2363 1.339 . S
C2361 H2388 0.931 . S
C2362 C2363 1.395 . S
C2362 C2364 1.320 . S
C2363 C2361 1.339 . S
C2363 C2362 1.395 . S
C2363 H2389 0.929 . S
C2364 C2362 1.320 . S
C2364 C2365 1.405 . S
C2364 H2390 0.930 . S
C2365 C2360 1.479 . S
C2365 C2364 1.405 . S
C2365 H2391 0.931 . S
U2366 O2367 2.454 . S
U2366 O2368 2.458 . S
U2366 C2369 2.984 . S
U2366 C2370 2.847 . S
U2366 C2383 2.882 . S
U2366 O2384 2.441 . S
U2366 O2385 2.420 . S
U2366 O2386 2.455 . S
U2366 O2387 2.449 . S
O2367 U2366 2.454 . S
O2367 C2369 1.353 . S
O2368 U2366 2.458 . S
O2368 C2369 1.286 . S
C2369 U2366 2.984 . S
C2369 O2367 1.353 . S
C2369 O2368 1.286 . S
C2369 C2371 1.363 . S
C2370 C2360 1.465 . S
C2370 U2366 2.847 . S
C2370 O2384 1.249 . S
C2370 O2385 1.202 . S
C2371 C2369 1.363 . S
C2371 C2373 1.408 . S
C2371 C2376 1.342 . S
C2372 C2373 1.310 . S
C2372 C2375 1.461 . S
C2372 H2392 0.932 . S
C2373 C2371 1.408 . S
C2373 C2372 1.310 . S
C2373 H2393 0.930 . S
C2374 C2375 1.474 . S
C2374 C2376 1.285 . S
C2374 H2394 0.929 . S
C2375 C2372 1.461 . S
C2375 C2374 1.474 . S
C2376 C2371 1.342 . S
C2376 C2374 1.285 . S
C2376 H2395 0.930 . S
C2377 C2380 1.424 . S
C2377 C2382 1.245 . S
C2377 C2383 1.428 . S
C2378 C2381 1.260 . S
C2378 C2382 1.477 . S
C2378 H2396 0.932 . S
C2379 C2380 1.384 . S
C2379 C2381 1.479 . S
C2379 H2397 0.929 . S
C2380 C2377 1.424 . S
C2380 C2379 1.384 . S
C2380 H2398 0.928 . S
C2381 C2378 1.260 . S
C2381 C2379 1.479 . S
C2382 C2377 1.245 . S
C2382 C2378 1.477 . S
C2382 H2399 0.932 . S
C2383 U2366 2.882 . S
C2383 C2377 1.428 . S
C2383 O2386 1.301 . S
C2383 O2387 1.282 . S
O2384 U2366 2.441 . S
O2384 C2370 1.249 . S
O2385 U2366 2.420 . S
O2385 C2370 1.202 . S
O2386 U2366 2.455 . S
O2386 C2383 1.301 . S
O2387 U2366 2.449 . S
O2387 C2383 1.282 . S
H2388 C2361 0.931 . S
H2389 C2363 0.929 . S
H2390 C2364 0.930 . S
H2391 C2365 0.931 . S
H2392 C2372 0.932 . S
H2393 C2373 0.930 . S
H2394 C2374 0.929 . S
H2395 C2376 0.930 . S
H2396 C2378 0.932 . S
H2397 C2379 0.929 . S
H2398 C2380 0.928 . S
H2399 C2382 0.932 . S
C2400 C2401 1.264 . S
C2400 C2405 1.479 . S
C2400 C2410 1.465 . S
C2401 C2400 1.264 . S
C2401 C2403 1.339 . S
C2401 H2428 0.931 . S
C2402 C2403 1.395 . S
C2402 C2404 1.320 . S
C2403 C2401 1.339 . S
C2403 C2402 1.395 . S
C2403 H2429 0.929 . S
C2404 C2402 1.320 . S
C2404 C2405 1.405 . S
C2404 H2430 0.930 . S
C2405 C2400 1.479 . S
C2405 C2404 1.405 . S
C2405 H2431 0.931 . S
U2406 O2407 2.454 . S
U2406 O2408 2.458 . S
U2406 C2409 2.984 . S
U2406 C2410 2.847 . S
U2406 C2423 2.882 . S
U2406 O2424 2.441 . S
U2406 O2425 2.420 . S
U2406 O2426 2.455 . S
U2406 O2427 2.449 . S
O2407 U2406 2.454 . S
O2407 C2409 1.353 . S
O2408 U2406 2.458 . S
O2408 C2409 1.286 . S
C2409 U2406 2.984 . S
C2409 O2407 1.353 . S
C2409 O2408 1.286 . S
C2409 C2411 1.363 . S
C2410 C2400 1.465 . S
C2410 U2406 2.847 . S
C2410 O2424 1.249 . S
C2410 O2425 1.202 . S
C2411 C2409 1.363 . S
C2411 C2413 1.408 . S
C2411 C2416 1.342 . S
C2412 C2413 1.310 . S
C2412 C2415 1.461 . S
C2412 H2432 0.932 . S
C2413 C2411 1.408 . S
C2413 C2412 1.310 . S
C2413 H2433 0.930 . S
C2414 C2415 1.474 . S
C2414 C2416 1.285 . S
C2414 H2434 0.929 . S
C2415 C2412 1.461 . S
C2415 C2414 1.474 . S
C2416 C2411 1.342 . S
C2416 C2414 1.285 . S
C2416 H2435 0.930 . S
C2417 C2420 1.424 . S
C2417 C2422 1.245 . S
C2417 C2423 1.428 . S
C2418 C2421 1.260 . S
C2418 C2422 1.477 . S
C2418 H2436 0.932 . S
C2419 C2420 1.384 . S
C2419 C2421 1.479 . S
C2419 H2437 0.929 . S
C2420 C2417 1.424 . S
C2420 C2419 1.384 . S
C2420 H2438 0.928 . S
C2421 C2418 1.260 . S
C2421 C2419 1.479 . S
C2422 C2417 1.245 . S
C2422 C2418 1.477 . S
C2422 H2439 0.932 . S
C2423 U2406 2.882 . S
C2423 C2417 1.428 . S
C2423 O2426 1.301 . S
C2423 O2427 1.282 . S
O2424 U2406 2.441 . S
O2424 C2410 1.249 . S
O2425 U2406 2.420 . S
O2425 C2410 1.202 . S
O2426 U2406 2.455 . S
O2426 C2423 1.301 . S
O2427 U2406 2.449 . S
O2427 C2423 1.282 . S
H2428 C2401 0.931 . S
H2429 C2403 0.929 . S
H2430 C2404 0.930 . S
H2431 C2405 0.931 . S
H2432 C2412 0.932 . S
H2433 C2413 0.930 . S
H2434 C2414 0.929 . S
H2435 C2416 0.930 . S
H2436 C2418 0.932 . S
H2437 C2419 0.929 . S
H2438 C2420 0.928 . S
H2439 C2422 0.932 . S
C2440 C2441 1.264 . S
C2440 C2445 1.479 . S
C2440 C2450 1.465 . S
C2441 C2440 1.264 . S
C2441 C2443 1.339 . S
C2441 H2468 0.931 . S
C2442 C2443 1.395 . S
C2442 C2444 1.320 . S
C2443 C2441 1.339 . S
C2443 C2442 1.395 . S
C2443 H2469 0.929 . S
C2444 C2442 1.320 . S
C2444 C2445 1.405 . S
C2444 H2470 0.930 . S
C2445 C2440 1.479 . S
C2445 C2444 1.405 . S
C2445 H2471 0.931 . S
U2446 O2447 2.454 . S
U2446 O2448 2.458 . S
U2446 C2449 2.984 . S
U2446 C2450 2.847 . S
U2446 C2463 2.882 . S
U2446 O2464 2.441 . S
U2446 O2465 2.420 . S
U2446 O2466 2.455 . S
U2446 O2467 2.449 . S
O2447 U2446 2.454 . S
O2447 C2449 1.353 . S
O2448 U2446 2.458 . S
O2448 C2449 1.286 . S
C2449 U2446 2.984 . S
C2449 O2447 1.353 . S
C2449 O2448 1.286 . S
C2449 C2451 1.363 . S
C2450 C2440 1.465 . S
C2450 U2446 2.847 . S
C2450 O2464 1.249 . S
C2450 O2465 1.202 . S
C2451 C2449 1.363 . S
C2451 C2453 1.408 . S
C2451 C2456 1.342 . S
C2452 C2453 1.310 . S
C2452 C2455 1.461 . S
C2452 H2472 0.932 . S
C2453 C2451 1.408 . S
C2453 C2452 1.310 . S
C2453 H2473 0.930 . S
C2454 C2455 1.474 . S
C2454 C2456 1.285 . S
C2454 H2474 0.929 . S
C2455 C2452 1.461 . S
C2455 C2454 1.474 . S
C2456 C2451 1.342 . S
C2456 C2454 1.285 . S
C2456 H2475 0.930 . S
C2457 C2460 1.424 . S
C2457 C2462 1.245 . S
C2457 C2463 1.428 . S
C2458 C2461 1.260 . S
C2458 C2462 1.477 . S
C2458 H2476 0.932 . S
C2459 C2460 1.384 . S
C2459 C2461 1.479 . S
C2459 H2477 0.929 . S
C2460 C2457 1.424 . S
C2460 C2459 1.384 . S
C2460 H2478 0.928 . S
C2461 C2458 1.260 . S
C2461 C2459 1.479 . S
C2462 C2457 1.245 . S
C2462 C2458 1.477 . S
C2462 H2479 0.932 . S
C2463 U2446 2.882 . S
C2463 C2457 1.428 . S
C2463 O2466 1.301 . S
C2463 O2467 1.282 . S
O2464 U2446 2.441 . S
O2464 C2450 1.249 . S
O2465 U2446 2.420 . S
O2465 C2450 1.202 . S
O2466 U2446 2.455 . S
O2466 C2463 1.301 . S
O2467 U2446 2.449 . S
O2467 C2463 1.282 . S
H2468 C2441 0.931 . S
H2469 C2443 0.929 . S
H2470 C2444 0.930 . S
H2471 C2445 0.931 . S
H2472 C2452 0.932 . S
H2473 C2453 0.930 . S
H2474 C2454 0.929 . S
H2475 C2456 0.930 . S
H2476 C2458 0.932 . S
H2477 C2459 0.929 . S
H2478 C2460 0.928 . S
H2479 C2462 0.932 . S
C2480 C2481 1.264 . S
C2480 C2485 1.479 . S
C2480 C2490 1.465 . S
C2481 C2480 1.264 . S
C2481 C2483 1.339 . S
C2481 H2508 0.931 . S
C2482 C2483 1.395 . S
C2482 C2484 1.320 . S
C2483 C2481 1.339 . S
C2483 C2482 1.395 . S
C2483 H2509 0.929 . S
C2484 C2482 1.320 . S
C2484 C2485 1.405 . S
C2484 H2510 0.930 . S
C2485 C2480 1.479 . S
C2485 C2484 1.405 . S
C2485 H2511 0.931 . S
U2486 O2487 2.454 . S
U2486 O2488 2.458 . S
U2486 C2489 2.984 . S
U2486 C2490 2.847 . S
U2486 C2503 2.882 . S
U2486 O2504 2.441 . S
U2486 O2505 2.420 . S
U2486 O2506 2.455 . S
U2486 O2507 2.449 . S
O2487 U2486 2.454 . S
O2487 C2489 1.353 . S
O2488 U2486 2.458 . S
O2488 C2489 1.286 . S
C2489 U2486 2.984 . S
C2489 O2487 1.353 . S
C2489 O2488 1.286 . S
C2489 C2491 1.363 . S
C2490 C2480 1.465 . S
C2490 U2486 2.847 . S
C2490 O2504 1.249 . S
C2490 O2505 1.202 . S
C2491 C2489 1.363 . S
C2491 C2493 1.408 . S
C2491 C2496 1.342 . S
C2492 C2493 1.310 . S
C2492 C2495 1.461 . S
C2492 H2512 0.932 . S
C2493 C2491 1.408 . S
C2493 C2492 1.310 . S
C2493 H2513 0.930 . S
C2494 C2495 1.474 . S
C2494 C2496 1.285 . S
C2494 H2514 0.929 . S
C2495 C2492 1.461 . S
C2495 C2494 1.474 . S
C2496 C2491 1.342 . S
C2496 C2494 1.285 . S
C2496 H2515 0.930 . S
C2497 C2500 1.424 . S
C2497 C2502 1.245 . S
C2497 C2503 1.428 . S
C2498 C2501 1.260 . S
C2498 C2502 1.477 . S
C2498 H2516 0.932 . S
C2499 C2500 1.384 . S
C2499 C2501 1.479 . S
C2499 H2517 0.929 . S
C2500 C2497 1.424 . S
C2500 C2499 1.384 . S
C2500 H2518 0.928 . S
C2501 C2498 1.260 . S
C2501 C2499 1.479 . S
C2502 C2497 1.245 . S
C2502 C2498 1.477 . S
C2502 H2519 0.932 . S
C2503 U2486 2.882 . S
C2503 C2497 1.428 . S
C2503 O2506 1.301 . S
C2503 O2507 1.282 . S
O2504 U2486 2.441 . S
O2504 C2490 1.249 . S
O2505 U2486 2.420 . S
O2505 C2490 1.202 . S
O2506 U2486 2.455 . S
O2506 C2503 1.301 . S
O2507 U2486 2.449 . S
O2507 C2503 1.282 . S
H2508 C2481 0.931 . S
H2509 C2483 0.929 . S
H2510 C2484 0.930 . S
H2511 C2485 0.931 . S
H2512 C2492 0.932 . S
H2513 C2493 0.930 . S
H2514 C2494 0.929 . S
H2515 C2496 0.930 . S
H2516 C2498 0.932 . S
H2517 C2499 0.929 . S
H2518 C2500 0.928 . S
H2519 C2502 0.932 . S
C2520 C2521 1.264 . S
C2520 C2525 1.479 . S
C2520 C2530 1.465 . S
C2521 C2520 1.264 . S
C2521 C2523 1.339 . S
C2521 H2548 0.931 . S
C2522 C2523 1.395 . S
C2522 C2524 1.320 . S
C2523 C2521 1.339 . S
C2523 C2522 1.395 . S
C2523 H2549 0.929 . S
C2524 C2522 1.320 . S
C2524 C2525 1.405 . S
C2524 H2550 0.930 . S
C2525 C2520 1.479 . S
C2525 C2524 1.405 . S
C2525 H2551 0.931 . S
U2526 O2527 2.454 . S
U2526 O2528 2.458 . S
U2526 C2529 2.984 . S
U2526 C2530 2.847 . S
U2526 C2543 2.882 . S
U2526 O2544 2.441 . S
U2526 O2545 2.420 . S
U2526 O2546 2.455 . S
U2526 O2547 2.449 . S
O2527 U2526 2.454 . S
O2527 C2529 1.353 . S
O2528 U2526 2.458 . S
O2528 C2529 1.286 . S
C2529 U2526 2.984 . S
C2529 O2527 1.353 . S
C2529 O2528 1.286 . S
C2529 C2531 1.363 . S
C2530 C2520 1.465 . S
C2530 U2526 2.847 . S
C2530 O2544 1.249 . S
C2530 O2545 1.202 . S
C2531 C2529 1.363 . S
C2531 C2533 1.408 . S
C2531 C2536 1.342 . S
C2532 C2533 1.310 . S
C2532 C2535 1.461 . S
C2532 H2552 0.932 . S
C2533 C2531 1.408 . S
C2533 C2532 1.310 . S
C2533 H2553 0.930 . S
C2534 C2535 1.474 . S
C2534 C2536 1.285 . S
C2534 H2554 0.929 . S
C2535 C2532 1.461 . S
C2535 C2534 1.474 . S
C2536 C2531 1.342 . S
C2536 C2534 1.285 . S
C2536 H2555 0.930 . S
C2537 C2540 1.424 . S
C2537 C2542 1.245 . S
C2537 C2543 1.428 . S
C2538 C2541 1.260 . S
C2538 C2542 1.477 . S
C2538 H2556 0.932 . S
C2539 C2540 1.384 . S
C2539 C2541 1.479 . S
C2539 H2557 0.929 . S
C2540 C2537 1.424 . S
C2540 C2539 1.384 . S
C2540 H2558 0.928 . S
C2541 C2538 1.260 . S
C2541 C2539 1.479 . S
C2542 C2537 1.245 . S
C2542 C2538 1.477 . S
C2542 H2559 0.932 . S
C2543 U2526 2.882 . S
C2543 C2537 1.428 . S
C2543 O2546 1.301 . S
C2543 O2547 1.282 . S
O2544 U2526 2.441 . S
O2544 C2530 1.249 . S
O2545 U2526 2.420 . S
O2545 C2530 1.202 . S
O2546 U2526 2.455 . S
O2546 C2543 1.301 . S
O2547 U2526 2.449 . S
O2547 C2543 1.282 . S
H2548 C2521 0.931 . S
H2549 C2523 0.929 . S
H2550 C2524 0.930 . S
H2551 C2525 0.931 . S
H2552 C2532 0.932 . S
H2553 C2533 0.930 . S
H2554 C2534 0.929 . S
H2555 C2536 0.930 . S
H2556 C2538 0.932 . S
H2557 C2539 0.929 . S
H2558 C2540 0.928 . S
H2559 C2542 0.932 . S
C2560 C2561 1.264 . S
C2560 C2565 1.479 . S
C2560 C2570 1.465 . S
C2561 C2560 1.264 . S
C2561 C2563 1.339 . S
C2561 H2588 0.931 . S
C2562 C2563 1.395 . S
C2562 C2564 1.320 . S
C2563 C2561 1.339 . S
C2563 C2562 1.395 . S
C2563 H2589 0.929 . S
C2564 C2562 1.320 . S
C2564 C2565 1.405 . S
C2564 H2590 0.930 . S
C2565 C2560 1.479 . S
C2565 C2564 1.405 . S
C2565 H2591 0.931 . S
U2566 O2567 2.454 . S
U2566 O2568 2.458 . S
U2566 C2569 2.984 . S
U2566 C2570 2.847 . S
U2566 C2583 2.882 . S
U2566 O2584 2.441 . S
U2566 O2585 2.420 . S
U2566 O2586 2.455 . S
U2566 O2587 2.449 . S
O2567 U2566 2.454 . S
O2567 C2569 1.353 . S
O2568 U2566 2.458 . S
O2568 C2569 1.286 . S
C2569 U2566 2.984 . S
C2569 O2567 1.353 . S
C2569 O2568 1.286 . S
C2569 C2571 1.363 . S
C2570 C2560 1.465 . S
C2570 U2566 2.847 . S
C2570 O2584 1.249 . S
C2570 O2585 1.202 . S
C2571 C2569 1.363 . S
C2571 C2573 1.408 . S
C2571 C2576 1.342 . S
C2572 C2573 1.310 . S
C2572 C2575 1.461 . S
C2572 H2592 0.932 . S
C2573 C2571 1.408 . S
C2573 C2572 1.310 . S
C2573 H2593 0.930 . S
C2574 C2575 1.474 . S
C2574 C2576 1.285 . S
C2574 H2594 0.929 . S
C2575 C2572 1.461 . S
C2575 C2574 1.474 . S
C2576 C2571 1.342 . S
C2576 C2574 1.285 . S
C2576 H2595 0.930 . S
C2577 C2580 1.424 . S
C2577 C2582 1.245 . S
C2577 C2583 1.428 . S
C2578 C2581 1.260 . S
C2578 C2582 1.477 . S
C2578 H2596 0.932 . S
C2579 C2580 1.384 . S
C2579 C2581 1.479 . S
C2579 H2597 0.929 . S
C2580 C2577 1.424 . S
C2580 C2579 1.384 . S
C2580 H2598 0.928 . S
C2581 C2578 1.260 . S
C2581 C2579 1.479 . S
C2582 C2577 1.245 . S
C2582 C2578 1.477 . S
C2582 H2599 0.932 . S
C2583 U2566 2.882 . S
C2583 C2577 1.428 . S
C2583 O2586 1.301 . S
C2583 O2587 1.282 . S
O2584 U2566 2.441 . S
O2584 C2570 1.249 . S
O2585 U2566 2.420 . S
O2585 C2570 1.202 . S
O2586 U2566 2.455 . S
O2586 C2583 1.301 . S
O2587 U2566 2.449 . S
O2587 C2583 1.282 . S
H2588 C2561 0.931 . S
H2589 C2563 0.929 . S
H2590 C2564 0.930 . S
H2591 C2565 0.931 . S
H2592 C2572 0.932 . S
H2593 C2573 0.930 . S
H2594 C2574 0.929 . S
H2595 C2576 0.930 . S
H2596 C2578 0.932 . S
H2597 C2579 0.929 . S
H2598 C2580 0.928 . S
H2599 C2582 0.932 . S
C2600 C2601 1.264 . S
C2600 C2605 1.479 . S
C2600 C2610 1.465 . S
C2601 C2600 1.264 . S
C2601 C2603 1.339 . S
C2601 H2628 0.931 . S
C2602 C2603 1.395 . S
C2602 C2604 1.320 . S
C2603 C2601 1.339 . S
C2603 C2602 1.395 . S
C2603 H2629 0.929 . S
C2604 C2602 1.320 . S
C2604 C2605 1.405 . S
C2604 H2630 0.930 . S
C2605 C2600 1.479 . S
C2605 C2604 1.405 . S
C2605 H2631 0.931 . S
U2606 O2607 2.454 . S
U2606 O2608 2.458 . S
U2606 C2609 2.984 . S
U2606 C2610 2.847 . S
U2606 C2623 2.882 . S
U2606 O2624 2.441 . S
U2606 O2625 2.420 . S
U2606 O2626 2.455 . S
U2606 O2627 2.449 . S
O2607 U2606 2.454 . S
O2607 C2609 1.353 . S
O2608 U2606 2.458 . S
O2608 C2609 1.286 . S
C2609 U2606 2.984 . S
C2609 O2607 1.353 . S
C2609 O2608 1.286 . S
C2609 C2611 1.363 . S
C2610 C2600 1.465 . S
C2610 U2606 2.847 . S
C2610 O2624 1.249 . S
C2610 O2625 1.202 . S
C2611 C2609 1.363 . S
C2611 C2613 1.408 . S
C2611 C2616 1.342 . S
C2612 C2613 1.310 . S
C2612 C2615 1.461 . S
C2612 H2632 0.932 . S
C2613 C2611 1.408 . S
C2613 C2612 1.310 . S
C2613 H2633 0.930 . S
C2614 C2615 1.474 . S
C2614 C2616 1.285 . S
C2614 H2634 0.929 . S
C2615 C2612 1.461 . S
C2615 C2614 1.474 . S
C2616 C2611 1.342 . S
C2616 C2614 1.285 . S
C2616 H2635 0.930 . S
C2617 C2620 1.424 . S
C2617 C2622 1.245 . S
C2617 C2623 1.428 . S
C2618 C2621 1.260 . S
C2618 C2622 1.477 . S
C2618 H2636 0.932 . S
C2619 C2620 1.384 . S
C2619 C2621 1.479 . S
C2619 H2637 0.929 . S
C2620 C2617 1.424 . S
C2620 C2619 1.384 . S
C2620 H2638 0.928 . S
C2621 C2618 1.260 . S
C2621 C2619 1.479 . S
C2622 C2617 1.245 . S
C2622 C2618 1.477 . S
C2622 H2639 0.932 . S
C2623 U2606 2.882 . S
C2623 C2617 1.428 . S
C2623 O2626 1.301 . S
C2623 O2627 1.282 . S
O2624 U2606 2.441 . S
O2624 C2610 1.249 . S
O2625 U2606 2.420 . S
O2625 C2610 1.202 . S
O2626 U2606 2.455 . S
O2626 C2623 1.301 . S
O2627 U2606 2.449 . S
O2627 C2623 1.282 . S
H2628 C2601 0.931 . S
H2629 C2603 0.929 . S
H2630 C2604 0.930 . S
H2631 C2605 0.931 . S
H2632 C2612 0.932 . S
H2633 C2613 0.930 . S
H2634 C2614 0.929 . S
H2635 C2616 0.930 . S
H2636 C2618 0.932 . S
H2637 C2619 0.929 . S
H2638 C2620 0.928 . S
H2639 C2622 0.932 . S
C2640 C2641 1.264 . S
C2640 C2645 1.479 . S
C2640 C2650 1.465 . S
C2641 C2640 1.264 . S
C2641 C2643 1.339 . S
C2641 H2668 0.931 . S
C2642 C2643 1.395 . S
C2642 C2644 1.320 . S
C2643 C2641 1.339 . S
C2643 C2642 1.395 . S
C2643 H2669 0.929 . S
C2644 C2642 1.320 . S
C2644 C2645 1.405 . S
C2644 H2670 0.930 . S
C2645 C2640 1.479 . S
C2645 C2644 1.405 . S
C2645 H2671 0.931 . S
U2646 O2647 2.454 . S
U2646 O2648 2.458 . S
U2646 C2649 2.984 . S
U2646 C2650 2.847 . S
U2646 C2663 2.882 . S
U2646 O2664 2.441 . S
U2646 O2665 2.420 . S
U2646 O2666 2.455 . S
U2646 O2667 2.449 . S
O2647 U2646 2.454 . S
O2647 C2649 1.353 . S
O2648 U2646 2.458 . S
O2648 C2649 1.286 . S
C2649 U2646 2.984 . S
C2649 O2647 1.353 . S
C2649 O2648 1.286 . S
C2649 C2651 1.363 . S
C2650 C2640 1.465 . S
C2650 U2646 2.847 . S
C2650 O2664 1.249 . S
C2650 O2665 1.202 . S
C2651 C2649 1.363 . S
C2651 C2653 1.408 . S
C2651 C2656 1.342 . S
C2652 C2653 1.310 . S
C2652 C2655 1.461 . S
C2652 H2672 0.932 . S
C2653 C2651 1.408 . S
C2653 C2652 1.310 . S
C2653 H2673 0.930 . S
C2654 C2655 1.474 . S
C2654 C2656 1.285 . S
C2654 H2674 0.929 . S
C2655 C2652 1.461 . S
C2655 C2654 1.474 . S
C2656 C2651 1.342 . S
C2656 C2654 1.285 . S
C2656 H2675 0.930 . S
C2657 C2660 1.424 . S
C2657 C2662 1.245 . S
C2657 C2663 1.428 . S
C2658 C2661 1.260 . S
C2658 C2662 1.477 . S
C2658 H2676 0.932 . S
C2659 C2660 1.384 . S
C2659 C2661 1.479 . S
C2659 H2677 0.929 . S
C2660 C2657 1.424 . S
C2660 C2659 1.384 . S
C2660 H2678 0.928 . S
C2661 C2658 1.260 . S
C2661 C2659 1.479 . S
C2662 C2657 1.245 . S
C2662 C2658 1.477 . S
C2662 H2679 0.932 . S
C2663 U2646 2.882 . S
C2663 C2657 1.428 . S
C2663 O2666 1.301 . S
C2663 O2667 1.282 . S
O2664 U2646 2.441 . S
O2664 C2650 1.249 . S
O2665 U2646 2.420 . S
O2665 C2650 1.202 . S
O2666 U2646 2.455 . S
O2666 C2663 1.301 . S
O2667 U2646 2.449 . S
O2667 C2663 1.282 . S
H2668 C2641 0.931 . S
H2669 C2643 0.929 . S
H2670 C2644 0.930 . S
H2671 C2645 0.931 . S
H2672 C2652 0.932 . S
H2673 C2653 0.930 . S
H2674 C2654 0.929 . S
H2675 C2656 0.930 . S
H2676 C2658 0.932 . S
H2677 C2659 0.929 . S
H2678 C2660 0.928 . S
H2679 C2662 0.932 . S
C2680 C2681 1.264 . S
C2680 C2685 1.479 . S
C2680 C2690 1.465 . S
C2681 C2680 1.264 . S
C2681 C2683 1.339 . S
C2681 H2708 0.931 . S
C2682 C2683 1.395 . S
C2682 C2684 1.320 . S
C2683 C2681 1.339 . S
C2683 C2682 1.395 . S
C2683 H2709 0.929 . S
C2684 C2682 1.320 . S
C2684 C2685 1.405 . S
C2684 H2710 0.930 . S
C2685 C2680 1.479 . S
C2685 C2684 1.405 . S
C2685 H2711 0.931 . S
U2686 O2687 2.454 . S
U2686 O2688 2.458 . S
U2686 C2689 2.984 . S
U2686 C2690 2.847 . S
U2686 C2703 2.882 . S
U2686 O2704 2.441 . S
U2686 O2705 2.420 . S
U2686 O2706 2.455 . S
U2686 O2707 2.449 . S
O2687 U2686 2.454 . S
O2687 C2689 1.353 . S
O2688 U2686 2.458 . S
O2688 C2689 1.286 . S
C2689 U2686 2.984 . S
C2689 O2687 1.353 . S
C2689 O2688 1.286 . S
C2689 C2691 1.363 . S
C2690 C2680 1.465 . S
C2690 U2686 2.847 . S
C2690 O2704 1.249 . S
C2690 O2705 1.202 . S
C2691 C2689 1.363 . S
C2691 C2693 1.408 . S
C2691 C2696 1.342 . S
C2692 C2693 1.310 . S
C2692 C2695 1.461 . S
C2692 H2712 0.932 . S
C2693 C2691 1.408 . S
C2693 C2692 1.310 . S
C2693 H2713 0.930 . S
C2694 C2695 1.474 . S
C2694 C2696 1.285 . S
C2694 H2714 0.929 . S
C2695 C2692 1.461 . S
C2695 C2694 1.474 . S
C2696 C2691 1.342 . S
C2696 C2694 1.285 . S
C2696 H2715 0.930 . S
C2697 C2700 1.424 . S
C2697 C2702 1.245 . S
C2697 C2703 1.428 . S
C2698 C2701 1.260 . S
C2698 C2702 1.477 . S
C2698 H2716 0.932 . S
C2699 C2700 1.384 . S
C2699 C2701 1.479 . S
C2699 H2717 0.929 . S
C2700 C2697 1.424 . S
C2700 C2699 1.384 . S
C2700 H2718 0.928 . S
C2701 C2698 1.260 . S
C2701 C2699 1.479 . S
C2702 C2697 1.245 . S
C2702 C2698 1.477 . S
C2702 H2719 0.932 . S
C2703 U2686 2.882 . S
C2703 C2697 1.428 . S
C2703 O2706 1.301 . S
C2703 O2707 1.282 . S
O2704 U2686 2.441 . S
O2704 C2690 1.249 . S
O2705 U2686 2.420 . S
O2705 C2690 1.202 . S
O2706 U2686 2.455 . S
O2706 C2703 1.301 . S
O2707 U2686 2.449 . S
O2707 C2703 1.282 . S
H2708 C2681 0.931 . S
H2709 C2683 0.929 . S
H2710 C2684 0.930 . S
H2711 C2685 0.931 . S
H2712 C2692 0.932 . S
H2713 C2693 0.930 . S
H2714 C2694 0.929 . S
H2715 C2696 0.930 . S
H2716 C2698 0.932 . S
H2717 C2699 0.929 . S
H2718 C2700 0.928 . S
H2719 C2702 0.932 . S
C2720 C2721 1.264 . S
C2720 C2725 1.479 . S
C2720 C2730 1.465 . S
C2721 C2720 1.264 . S
C2721 C2723 1.339 . S
C2721 H2748 0.931 . S
C2722 C2723 1.395 . S
C2722 C2724 1.320 . S
C2723 C2721 1.339 . S
C2723 C2722 1.395 . S
C2723 H2749 0.929 . S
C2724 C2722 1.320 . S
C2724 C2725 1.405 . S
C2724 H2750 0.930 . S
C2725 C2720 1.479 . S
C2725 C2724 1.405 . S
C2725 H2751 0.931 . S
U2726 O2727 2.454 . S
U2726 O2728 2.458 . S
U2726 C2729 2.984 . S
U2726 C2730 2.847 . S
U2726 C2743 2.882 . S
U2726 O2744 2.441 . S
U2726 O2745 2.420 . S
U2726 O2746 2.455 . S
U2726 O2747 2.449 . S
O2727 U2726 2.454 . S
O2727 C2729 1.353 . S
O2728 U2726 2.458 . S
O2728 C2729 1.286 . S
C2729 U2726 2.984 . S
C2729 O2727 1.353 . S
C2729 O2728 1.286 . S
C2729 C2731 1.363 . S
C2730 C2720 1.465 . S
C2730 U2726 2.847 . S
C2730 O2744 1.249 . S
C2730 O2745 1.202 . S
C2731 C2729 1.363 . S
C2731 C2733 1.408 . S
C2731 C2736 1.342 . S
C2732 C2733 1.310 . S
C2732 C2735 1.461 . S
C2732 H2752 0.932 . S
C2733 C2731 1.408 . S
C2733 C2732 1.310 . S
C2733 H2753 0.930 . S
C2734 C2735 1.474 . S
C2734 C2736 1.285 . S
C2734 H2754 0.929 . S
C2735 C2732 1.461 . S
C2735 C2734 1.474 . S
C2736 C2731 1.342 . S
C2736 C2734 1.285 . S
C2736 H2755 0.930 . S
C2737 C2740 1.424 . S
C2737 C2742 1.245 . S
C2737 C2743 1.428 . S
C2738 C2741 1.260 . S
C2738 C2742 1.477 . S
C2738 H2756 0.932 . S
C2739 C2740 1.384 . S
C2739 C2741 1.479 . S
C2739 H2757 0.929 . S
C2740 C2737 1.424 . S
C2740 C2739 1.384 . S
C2740 H2758 0.928 . S
C2741 C2738 1.260 . S
C2741 C2739 1.479 . S
C2742 C2737 1.245 . S
C2742 C2738 1.477 . S
C2742 H2759 0.932 . S
C2743 U2726 2.882 . S
C2743 C2737 1.428 . S
C2743 O2746 1.301 . S
C2743 O2747 1.282 . S
O2744 U2726 2.441 . S
O2744 C2730 1.249 . S
O2745 U2726 2.420 . S
O2745 C2730 1.202 . S
O2746 U2726 2.455 . S
O2746 C2743 1.301 . S
O2747 U2726 2.449 . S
O2747 C2743 1.282 . S
H2748 C2721 0.931 . S
H2749 C2723 0.929 . S
H2750 C2724 0.930 . S
H2751 C2725 0.931 . S
H2752 C2732 0.932 . S
H2753 C2733 0.930 . S
H2754 C2734 0.929 . S
H2755 C2736 0.930 . S
H2756 C2738 0.932 . S
H2757 C2739 0.929 . S
H2758 C2740 0.928 . S
H2759 C2742 0.932 . S
C2760 C2761 1.264 . S
C2760 C2765 1.479 . S
C2760 C2770 1.465 . S
C2761 C2760 1.264 . S
C2761 C2763 1.339 . S
C2761 H2788 0.931 . S
C2762 C2763 1.395 . S
C2762 C2764 1.320 . S
C2763 C2761 1.339 . S
C2763 C2762 1.395 . S
C2763 H2789 0.929 . S
C2764 C2762 1.320 . S
C2764 C2765 1.405 . S
C2764 H2790 0.930 . S
C2765 C2760 1.479 . S
C2765 C2764 1.405 . S
C2765 H2791 0.931 . S
U2766 O2767 2.454 . S
U2766 O2768 2.458 . S
U2766 C2769 2.984 . S
U2766 C2770 2.847 . S
U2766 C2783 2.882 . S
U2766 O2784 2.441 . S
U2766 O2785 2.420 . S
U2766 O2786 2.455 . S
U2766 O2787 2.449 . S
O2767 U2766 2.454 . S
O2767 C2769 1.353 . S
O2768 U2766 2.458 . S
O2768 C2769 1.286 . S
C2769 U2766 2.984 . S
C2769 O2767 1.353 . S
C2769 O2768 1.286 . S
C2769 C2771 1.363 . S
C2770 C2760 1.465 . S
C2770 U2766 2.847 . S
C2770 O2784 1.249 . S
C2770 O2785 1.202 . S
C2771 C2769 1.363 . S
C2771 C2773 1.408 . S
C2771 C2776 1.342 . S
C2772 C2773 1.310 . S
C2772 C2775 1.461 . S
C2772 H2792 0.932 . S
C2773 C2771 1.408 . S
C2773 C2772 1.310 . S
C2773 H2793 0.930 . S
C2774 C2775 1.474 . S
C2774 C2776 1.285 . S
C2774 H2794 0.929 . S
C2775 C2772 1.461 . S
C2775 C2774 1.474 . S
C2776 C2771 1.342 . S
C2776 C2774 1.285 . S
C2776 H2795 0.930 . S
C2777 C2780 1.424 . S
C2777 C2782 1.245 . S
C2777 C2783 1.428 . S
C2778 C2781 1.260 . S
C2778 C2782 1.477 . S
C2778 H2796 0.932 . S
C2779 C2780 1.384 . S
C2779 C2781 1.479 . S
C2779 H2797 0.929 . S
C2780 C2777 1.424 . S
C2780 C2779 1.384 . S
C2780 H2798 0.928 . S
C2781 C2778 1.260 . S
C2781 C2779 1.479 . S
C2782 C2777 1.245 . S
C2782 C2778 1.477 . S
C2782 H2799 0.932 . S
C2783 U2766 2.882 . S
C2783 C2777 1.428 . S
C2783 O2786 1.301 . S
C2783 O2787 1.282 . S
O2784 U2766 2.441 . S
O2784 C2770 1.249 . S
O2785 U2766 2.420 . S
O2785 C2770 1.202 . S
O2786 U2766 2.455 . S
O2786 C2783 1.301 . S
O2787 U2766 2.449 . S
O2787 C2783 1.282 . S
H2788 C2761 0.931 . S
H2789 C2763 0.929 . S
H2790 C2764 0.930 . S
H2791 C2765 0.931 . S
H2792 C2772 0.932 . S
H2793 C2773 0.930 . S
H2794 C2774 0.929 . S
H2795 C2776 0.930 . S
H2796 C2778 0.932 . S
H2797 C2779 0.929 . S
H2798 C2780 0.928 . S
H2799 C2782 0.932 . S
C2800 C2801 1.264 . S
C2800 C2805 1.479 . S
C2800 C2810 1.465 . S
C2801 C2800 1.264 . S
C2801 C2803 1.339 . S
C2801 H2828 0.931 . S
C2802 C2803 1.395 . S
C2802 C2804 1.320 . S
C2803 C2801 1.339 . S
C2803 C2802 1.395 . S
C2803 H2829 0.929 . S
C2804 C2802 1.320 . S
C2804 C2805 1.405 . S
C2804 H2830 0.930 . S
C2805 C2800 1.479 . S
C2805 C2804 1.405 . S
C2805 H2831 0.931 . S
U2806 O2807 2.454 . S
U2806 O2808 2.458 . S
U2806 C2809 2.984 . S
U2806 C2810 2.847 . S
U2806 C2823 2.882 . S
U2806 O2824 2.441 . S
U2806 O2825 2.420 . S
U2806 O2826 2.455 . S
U2806 O2827 2.449 . S
O2807 U2806 2.454 . S
O2807 C2809 1.353 . S
O2808 U2806 2.458 . S
O2808 C2809 1.286 . S
C2809 U2806 2.984 . S
C2809 O2807 1.353 . S
C2809 O2808 1.286 . S
C2809 C2811 1.363 . S
C2810 C2800 1.465 . S
C2810 U2806 2.847 . S
C2810 O2824 1.249 . S
C2810 O2825 1.202 . S
C2811 C2809 1.363 . S
C2811 C2813 1.408 . S
C2811 C2816 1.342 . S
C2812 C2813 1.310 . S
C2812 C2815 1.461 . S
C2812 H2832 0.932 . S
C2813 C2811 1.408 . S
C2813 C2812 1.310 . S
C2813 H2833 0.930 . S
C2814 C2815 1.474 . S
C2814 C2816 1.285 . S
C2814 H2834 0.929 . S
C2815 C2812 1.461 . S
C2815 C2814 1.474 . S
C2816 C2811 1.342 . S
C2816 C2814 1.285 . S
C2816 H2835 0.930 . S
C2817 C2820 1.424 . S
C2817 C2822 1.245 . S
C2817 C2823 1.428 . S
C2818 C2821 1.260 . S
C2818 C2822 1.477 . S
C2818 H2836 0.932 . S
C2819 C2820 1.384 . S
C2819 C2821 1.479 . S
C2819 H2837 0.929 . S
C2820 C2817 1.424 . S
C2820 C2819 1.384 . S
C2820 H2838 0.928 . S
C2821 C2818 1.260 . S
C2821 C2819 1.479 . S
C2822 C2817 1.245 . S
C2822 C2818 1.477 . S
C2822 H2839 0.932 . S
C2823 U2806 2.882 . S
C2823 C2817 1.428 . S
C2823 O2826 1.301 . S
C2823 O2827 1.282 . S
O2824 U2806 2.441 . S
O2824 C2810 1.249 . S
O2825 U2806 2.420 . S
O2825 C2810 1.202 . S
O2826 U2806 2.455 . S
O2826 C2823 1.301 . S
O2827 U2806 2.449 . S
O2827 C2823 1.282 . S
H2828 C2801 0.931 . S
H2829 C2803 0.929 . S
H2830 C2804 0.930 . S
H2831 C2805 0.931 . S
H2832 C2812 0.932 . S
H2833 C2813 0.930 . S
H2834 C2814 0.929 . S
H2835 C2816 0.930 . S
H2836 C2818 0.932 . S
H2837 C2819 0.929 . S
H2838 C2820 0.928 . S
H2839 C2822 0.932 . S
C2840 C2841 1.264 . S
C2840 C2845 1.479 . S
C2840 C2850 1.465 . S
C2841 C2840 1.264 . S
C2841 C2843 1.339 . S
C2841 H2868 0.931 . S
C2842 C2843 1.395 . S
C2842 C2844 1.320 . S
C2843 C2841 1.339 . S
C2843 C2842 1.395 . S
C2843 H2869 0.929 . S
C2844 C2842 1.320 . S
C2844 C2845 1.405 . S
C2844 H2870 0.930 . S
C2845 C2840 1.479 . S
C2845 C2844 1.405 . S
C2845 H2871 0.931 . S
U2846 O2847 2.454 . S
U2846 O2848 2.458 . S
U2846 C2849 2.984 . S
U2846 C2850 2.847 . S
U2846 C2863 2.882 . S
U2846 O2864 2.441 . S
U2846 O2865 2.420 . S
U2846 O2866 2.455 . S
U2846 O2867 2.449 . S
O2847 U2846 2.454 . S
O2847 C2849 1.353 . S
O2848 U2846 2.458 . S
O2848 C2849 1.286 . S
C2849 U2846 2.984 . S
C2849 O2847 1.353 . S
C2849 O2848 1.286 . S
C2849 C2851 1.363 . S
C2850 C2840 1.465 . S
C2850 U2846 2.847 . S
C2850 O2864 1.249 . S
C2850 O2865 1.202 . S
C2851 C2849 1.363 . S
C2851 C2853 1.408 . S
C2851 C2856 1.342 . S
C2852 C2853 1.310 . S
C2852 C2855 1.461 . S
C2852 H2872 0.932 . S
C2853 C2851 1.408 . S
C2853 C2852 1.310 . S
C2853 H2873 0.930 . S
C2854 C2855 1.474 . S
C2854 C2856 1.285 . S
C2854 H2874 0.929 . S
C2855 C2852 1.461 . S
C2855 C2854 1.474 . S
C2856 C2851 1.342 . S
C2856 C2854 1.285 . S
C2856 H2875 0.930 . S
C2857 C2860 1.424 . S
C2857 C2862 1.245 . S
C2857 C2863 1.428 . S
C2858 C2861 1.260 . S
C2858 C2862 1.477 . S
C2858 H2876 0.932 . S
C2859 C2860 1.384 . S
C2859 C2861 1.479 . S
C2859 H2877 0.929 . S
C2860 C2857 1.424 . S
C2860 C2859 1.384 . S
C2860 H2878 0.928 . S
C2861 C2858 1.260 . S
C2861 C2859 1.479 . S
C2862 C2857 1.245 . S
C2862 C2858 1.477 . S
C2862 H2879 0.932 . S
C2863 U2846 2.882 . S
C2863 C2857 1.428 . S
C2863 O2866 1.301 . S
C2863 O2867 1.282 . S
O2864 U2846 2.441 . S
O2864 C2850 1.249 . S
O2865 U2846 2.420 . S
O2865 C2850 1.202 . S
O2866 U2846 2.455 . S
O2866 C2863 1.301 . S
O2867 U2846 2.449 . S
O2867 C2863 1.282 . S
H2868 C2841 0.931 . S
H2869 C2843 0.929 . S
H2870 C2844 0.930 . S
H2871 C2845 0.931 . S
H2872 C2852 0.932 . S
H2873 C2853 0.930 . S
H2874 C2854 0.929 . S
H2875 C2856 0.930 . S
H2876 C2858 0.932 . S
H2877 C2859 0.929 . S
H2878 C2860 0.928 . S
H2879 C2862 0.932 . S
C2880 C2881 1.264 . S
C2880 C2885 1.479 . S
C2880 C2890 1.465 . S
C2881 C2880 1.264 . S
C2881 C2883 1.339 . S
C2881 H2908 0.931 . S
C2882 C2883 1.395 . S
C2882 C2884 1.320 . S
C2883 C2881 1.339 . S
C2883 C2882 1.395 . S
C2883 H2909 0.929 . S
C2884 C2882 1.320 . S
C2884 C2885 1.405 . S
C2884 H2910 0.930 . S
C2885 C2880 1.479 . S
C2885 C2884 1.405 . S
C2885 H2911 0.931 . S
U2886 O2887 2.454 . S
U2886 O2888 2.458 . S
U2886 C2889 2.984 . S
U2886 C2890 2.847 . S
U2886 C2903 2.882 . S
U2886 O2904 2.441 . S
U2886 O2905 2.420 . S
U2886 O2906 2.455 . S
U2886 O2907 2.449 . S
O2887 U2886 2.454 . S
O2887 C2889 1.353 . S
O2888 U2886 2.458 . S
O2888 C2889 1.286 . S
C2889 U2886 2.984 . S
C2889 O2887 1.353 . S
C2889 O2888 1.286 . S
C2889 C2891 1.363 . S
C2890 C2880 1.465 . S
C2890 U2886 2.847 . S
C2890 O2904 1.249 . S
C2890 O2905 1.202 . S
C2891 C2889 1.363 . S
C2891 C2893 1.408 . S
C2891 C2896 1.342 . S
C2892 C2893 1.310 . S
C2892 C2895 1.461 . S
C2892 H2912 0.932 . S
C2893 C2891 1.408 . S
C2893 C2892 1.310 . S
C2893 H2913 0.930 . S
C2894 C2895 1.474 . S
C2894 C2896 1.285 . S
C2894 H2914 0.929 . S
C2895 C2892 1.461 . S
C2895 C2894 1.474 . S
C2896 C2891 1.342 . S
C2896 C2894 1.285 . S
C2896 H2915 0.930 . S
C2897 C2900 1.424 . S
C2897 C2902 1.245 . S
C2897 C2903 1.428 . S
C2898 C2901 1.260 . S
C2898 C2902 1.477 . S
C2898 H2916 0.932 . S
C2899 C2900 1.384 . S
C2899 C2901 1.479 . S
C2899 H2917 0.929 . S
C2900 C2897 1.424 . S
C2900 C2899 1.384 . S
C2900 H2918 0.928 . S
C2901 C2898 1.260 . S
C2901 C2899 1.479 . S
C2902 C2897 1.245 . S
C2902 C2898 1.477 . S
C2902 H2919 0.932 . S
C2903 U2886 2.882 . S
C2903 C2897 1.428 . S
C2903 O2906 1.301 . S
C2903 O2907 1.282 . S
O2904 U2886 2.441 . S
O2904 C2890 1.249 . S
O2905 U2886 2.420 . S
O2905 C2890 1.202 . S
O2906 U2886 2.455 . S
O2906 C2903 1.301 . S
O2907 U2886 2.449 . S
O2907 C2903 1.282 . S
H2908 C2881 0.931 . S
H2909 C2883 0.929 . S
H2910 C2884 0.930 . S
H2911 C2885 0.931 . S
H2912 C2892 0.932 . S
H2913 C2893 0.930 . S
H2914 C2894 0.929 . S
H2915 C2896 0.930 . S
H2916 C2898 0.932 . S
H2917 C2899 0.929 . S
H2918 C2900 0.928 . S
H2919 C2902 0.932 . S
C2920 C2921 1.264 . S
C2920 C2925 1.479 . S
C2920 C2930 1.465 . S
C2921 C2920 1.264 . S
C2921 C2923 1.339 . S
C2921 H2948 0.931 . S
C2922 C2923 1.395 . S
C2922 C2924 1.320 . S
C2923 C2921 1.339 . S
C2923 C2922 1.395 . S
C2923 H2949 0.929 . S
C2924 C2922 1.320 . S
C2924 C2925 1.405 . S
C2924 H2950 0.930 . S
C2925 C2920 1.479 . S
C2925 C2924 1.405 . S
C2925 H2951 0.931 . S
U2926 O2927 2.454 . S
U2926 O2928 2.458 . S
U2926 C2929 2.984 . S
U2926 C2930 2.847 . S
U2926 C2943 2.882 . S
U2926 O2944 2.441 . S
U2926 O2945 2.420 . S
U2926 O2946 2.455 . S
U2926 O2947 2.449 . S
O2927 U2926 2.454 . S
O2927 C2929 1.353 . S
O2928 U2926 2.458 . S
O2928 C2929 1.286 . S
C2929 U2926 2.984 . S
C2929 O2927 1.353 . S
C2929 O2928 1.286 . S
C2929 C2931 1.363 . S
C2930 C2920 1.465 . S
C2930 U2926 2.847 . S
C2930 O2944 1.249 . S
C2930 O2945 1.202 . S
C2931 C2929 1.363 . S
C2931 C2933 1.408 . S
C2931 C2936 1.342 . S
C2932 C2933 1.310 . S
C2932 C2935 1.461 . S
C2932 H2952 0.932 . S
C2933 C2931 1.408 . S
C2933 C2932 1.310 . S
C2933 H2953 0.930 . S
C2934 C2935 1.474 . S
C2934 C2936 1.285 . S
C2934 H2954 0.929 . S
C2935 C2932 1.461 . S
C2935 C2934 1.474 . S
C2936 C2931 1.342 . S
C2936 C2934 1.285 . S
C2936 H2955 0.930 . S
C2937 C2940 1.424 . S
C2937 C2942 1.245 . S
C2937 C2943 1.428 . S
C2938 C2941 1.260 . S
C2938 C2942 1.477 . S
C2938 H2956 0.932 . S
C2939 C2940 1.384 . S
C2939 C2941 1.479 . S
C2939 H2957 0.929 . S
C2940 C2937 1.424 . S
C2940 C2939 1.384 . S
C2940 H2958 0.928 . S
C2941 C2938 1.260 . S
C2941 C2939 1.479 . S
C2942 C2937 1.245 . S
C2942 C2938 1.477 . S
C2942 H2959 0.932 . S
C2943 U2926 2.882 . S
C2943 C2937 1.428 . S
C2943 O2946 1.301 . S
C2943 O2947 1.282 . S
O2944 U2926 2.441 . S
O2944 C2930 1.249 . S
O2945 U2926 2.420 . S
O2945 C2930 1.202 . S
O2946 U2926 2.455 . S
O2946 C2943 1.301 . S
O2947 U2926 2.449 . S
O2947 C2943 1.282 . S
H2948 C2921 0.931 . S
H2949 C2923 0.929 . S
H2950 C2924 0.930 . S
H2951 C2925 0.931 . S
H2952 C2932 0.932 . S
H2953 C2933 0.930 . S
H2954 C2934 0.929 . S
H2955 C2936 0.930 . S
H2956 C2938 0.932 . S
H2957 C2939 0.929 . S
H2958 C2940 0.928 . S
H2959 C2942 0.932 . S
C2960 C2961 1.264 . S
C2960 C2965 1.479 . S
C2960 C2970 1.465 . S
C2961 C2960 1.264 . S
C2961 C2963 1.339 . S
C2961 H2988 0.931 . S
C2962 C2963 1.395 . S
C2962 C2964 1.320 . S
C2963 C2961 1.339 . S
C2963 C2962 1.395 . S
C2963 H2989 0.929 . S
C2964 C2962 1.320 . S
C2964 C2965 1.405 . S
C2964 H2990 0.930 . S
C2965 C2960 1.479 . S
C2965 C2964 1.405 . S
C2965 H2991 0.931 . S
U2966 O2967 2.454 . S
U2966 O2968 2.458 . S
U2966 C2969 2.984 . S
U2966 C2970 2.847 . S
U2966 C2983 2.882 . S
U2966 O2984 2.441 . S
U2966 O2985 2.420 . S
U2966 O2986 2.455 . S
U2966 O2987 2.449 . S
O2967 U2966 2.454 . S
O2967 C2969 1.353 . S
O2968 U2966 2.458 . S
O2968 C2969 1.286 . S
C2969 U2966 2.984 . S
C2969 O2967 1.353 . S
C2969 O2968 1.286 . S
C2969 C2971 1.363 . S
C2970 C2960 1.465 . S
C2970 U2966 2.847 . S
C2970 O2984 1.249 . S
C2970 O2985 1.202 . S
C2971 C2969 1.363 . S
C2971 C2973 1.408 . S
C2971 C2976 1.342 . S
C2972 C2973 1.310 . S
C2972 C2975 1.461 . S
C2972 H2992 0.932 . S
C2973 C2971 1.408 . S
C2973 C2972 1.310 . S
C2973 H2993 0.930 . S
C2974 C2975 1.474 . S
C2974 C2976 1.285 . S
C2974 H2994 0.929 . S
C2975 C2972 1.461 . S
C2975 C2974 1.474 . S
C2976 C2971 1.342 . S
C2976 C2974 1.285 . S
C2976 H2995 0.930 . S
C2977 C2980 1.424 . S
C2977 C2982 1.245 . S
C2977 C2983 1.428 . S
C2978 C2981 1.260 . S
C2978 C2982 1.477 . S
C2978 H2996 0.932 . S
C2979 C2980 1.384 . S
C2979 C2981 1.479 . S
C2979 H2997 0.929 . S
C2980 C2977 1.424 . S
C2980 C2979 1.384 . S
C2980 H2998 0.928 . S
C2981 C2978 1.260 . S
C2981 C2979 1.479 . S
C2982 C2977 1.245 . S
C2982 C2978 1.477 . S
C2982 H2999 0.932 . S
C2983 U2966 2.882 . S
C2983 C2977 1.428 . S
C2983 O2986 1.301 . S
C2983 O2987 1.282 . S
O2984 U2966 2.441 . S
O2984 C2970 1.249 . S
O2985 U2966 2.420 . S
O2985 C2970 1.202 . S
O2986 U2966 2.455 . S
O2986 C2983 1.301 . S
O2987 U2966 2.449 . S
O2987 C2983 1.282 . S
H2988 C2961 0.931 . S
H2989 C2963 0.929 . S
H2990 C2964 0.930 . S
H2991 C2965 0.931 . S
H2992 C2972 0.932 . S
H2993 C2973 0.930 . S
H2994 C2974 0.929 . S
H2995 C2976 0.930 . S
H2996 C2978 0.932 . S
H2997 C2979 0.929 . S
H2998 C2980 0.928 . S
H2999 C2982 0.932 . S
C3000 C3001 1.264 . S
C3000 C3005 1.479 . S
C3000 C3010 1.465 . S
C3001 C3000 1.264 . S
C3001 C3003 1.339 . S
C3001 H3028 0.931 . S
C3002 C3003 1.395 . S
C3002 C3004 1.320 . S
C3003 C3001 1.339 . S
C3003 C3002 1.395 . S
C3003 H3029 0.929 . S
C3004 C3002 1.320 . S
C3004 C3005 1.405 . S
C3004 H3030 0.930 . S
C3005 C3000 1.479 . S
C3005 C3004 1.405 . S
C3005 H3031 0.931 . S
U3006 O3007 2.454 . S
U3006 O3008 2.458 . S
U3006 C3009 2.984 . S
U3006 C3010 2.847 . S
U3006 C3023 2.882 . S
U3006 O3024 2.441 . S
U3006 O3025 2.420 . S
U3006 O3026 2.455 . S
U3006 O3027 2.449 . S
O3007 U3006 2.454 . S
O3007 C3009 1.353 . S
O3008 U3006 2.458 . S
O3008 C3009 1.286 . S
C3009 U3006 2.984 . S
C3009 O3007 1.353 . S
C3009 O3008 1.286 . S
C3009 C3011 1.363 . S
C3010 C3000 1.465 . S
C3010 U3006 2.847 . S
C3010 O3024 1.249 . S
C3010 O3025 1.202 . S
C3011 C3009 1.363 . S
C3011 C3013 1.408 . S
C3011 C3016 1.342 . S
C3012 C3013 1.310 . S
C3012 C3015 1.461 . S
C3012 H3032 0.932 . S
C3013 C3011 1.408 . S
C3013 C3012 1.310 . S
C3013 H3033 0.930 . S
C3014 C3015 1.474 . S
C3014 C3016 1.285 . S
C3014 H3034 0.929 . S
C3015 C3012 1.461 . S
C3015 C3014 1.474 . S
C3016 C3011 1.342 . S
C3016 C3014 1.285 . S
C3016 H3035 0.930 . S
C3017 C3020 1.424 . S
C3017 C3022 1.245 . S
C3017 C3023 1.428 . S
C3018 C3021 1.260 . S
C3018 C3022 1.477 . S
C3018 H3036 0.932 . S
C3019 C3020 1.384 . S
C3019 C3021 1.479 . S
C3019 H3037 0.929 . S
C3020 C3017 1.424 . S
C3020 C3019 1.384 . S
C3020 H3038 0.928 . S
C3021 C3018 1.260 . S
C3021 C3019 1.479 . S
C3022 C3017 1.245 . S
C3022 C3018 1.477 . S
C3022 H3039 0.932 . S
C3023 U3006 2.882 . S
C3023 C3017 1.428 . S
C3023 O3026 1.301 . S
C3023 O3027 1.282 . S
O3024 U3006 2.441 . S
O3024 C3010 1.249 . S
O3025 U3006 2.420 . S
O3025 C3010 1.202 . S
O3026 U3006 2.455 . S
O3026 C3023 1.301 . S
O3027 U3006 2.449 . S
O3027 C3023 1.282 . S
H3028 C3001 0.931 . S
H3029 C3003 0.929 . S
H3030 C3004 0.930 . S
H3031 C3005 0.931 . S
H3032 C3012 0.932 . S
H3033 C3013 0.930 . S
H3034 C3014 0.929 . S
H3035 C3016 0.930 . S
H3036 C3018 0.932 . S
H3037 C3019 0.929 . S
H3038 C3020 0.928 . S
H3039 C3022 0.932 . S
C3040 C3041 1.264 . S
C3040 C3045 1.479 . S
C3040 C3050 1.465 . S
C3041 C3040 1.264 . S
C3041 C3043 1.339 . S
C3041 H3068 0.931 . S
C3042 C3043 1.395 . S
C3042 C3044 1.320 . S
C3043 C3041 1.339 . S
C3043 C3042 1.395 . S
C3043 H3069 0.929 . S
C3044 C3042 1.320 . S
C3044 C3045 1.405 . S
C3044 H3070 0.930 . S
C3045 C3040 1.479 . S
C3045 C3044 1.405 . S
C3045 H3071 0.931 . S
U3046 O3047 2.454 . S
U3046 O3048 2.458 . S
U3046 C3049 2.984 . S
U3046 C3050 2.847 . S
U3046 C3063 2.882 . S
U3046 O3064 2.441 . S
U3046 O3065 2.420 . S
U3046 O3066 2.455 . S
U3046 O3067 2.449 . S
O3047 U3046 2.454 . S
O3047 C3049 1.353 . S
O3048 U3046 2.458 . S
O3048 C3049 1.286 . S
C3049 U3046 2.984 . S
C3049 O3047 1.353 . S
C3049 O3048 1.286 . S
C3049 C3051 1.363 . S
C3050 C3040 1.465 . S
C3050 U3046 2.847 . S
C3050 O3064 1.249 . S
C3050 O3065 1.202 . S
C3051 C3049 1.363 . S
C3051 C3053 1.408 . S
C3051 C3056 1.342 . S
C3052 C3053 1.310 . S
C3052 C3055 1.461 . S
C3052 H3072 0.932 . S
C3053 C3051 1.408 . S
C3053 C3052 1.310 . S
C3053 H3073 0.930 . S
C3054 C3055 1.474 . S
C3054 C3056 1.285 . S
C3054 H3074 0.929 . S
C3055 C3052 1.461 . S
C3055 C3054 1.474 . S
C3056 C3051 1.342 . S
C3056 C3054 1.285 . S
C3056 H3075 0.930 . S
C3057 C3060 1.424 . S
C3057 C3062 1.245 . S
C3057 C3063 1.428 . S
C3058 C3061 1.260 . S
C3058 C3062 1.477 . S
C3058 H3076 0.932 . S
C3059 C3060 1.384 . S
C3059 C3061 1.479 . S
C3059 H3077 0.929 . S
C3060 C3057 1.424 . S
C3060 C3059 1.384 . S
C3060 H3078 0.928 . S
C3061 C3058 1.260 . S
C3061 C3059 1.479 . S
C3062 C3057 1.245 . S
C3062 C3058 1.477 . S
C3062 H3079 0.932 . S
C3063 U3046 2.882 . S
C3063 C3057 1.428 . S
C3063 O3066 1.301 . S
C3063 O3067 1.282 . S
O3064 U3046 2.441 . S
O3064 C3050 1.249 . S
O3065 U3046 2.420 . S
O3065 C3050 1.202 . S
O3066 U3046 2.455 . S
O3066 C3063 1.301 . S
O3067 U3046 2.449 . S
O3067 C3063 1.282 . S
H3068 C3041 0.931 . S
H3069 C3043 0.929 . S
H3070 C3044 0.930 . S
H3071 C3045 0.931 . S
H3072 C3052 0.932 . S
H3073 C3053 0.930 . S
H3074 C3054 0.929 . S
H3075 C3056 0.930 . S
H3076 C3058 0.932 . S
H3077 C3059 0.929 . S
H3078 C3060 0.928 . S
H3079 C3062 0.932 . S
C3080 C3081 1.264 . S
C3080 C3085 1.479 . S
C3080 C3090 1.465 . S
C3081 C3080 1.264 . S
C3081 C3083 1.339 . S
C3081 H3108 0.931 . S
C3082 C3083 1.395 . S
C3082 C3084 1.320 . S
C3083 C3081 1.339 . S
C3083 C3082 1.395 . S
C3083 H3109 0.929 . S
C3084 C3082 1.320 . S
C3084 C3085 1.405 . S
C3084 H3110 0.930 . S
C3085 C3080 1.479 . S
C3085 C3084 1.405 . S
C3085 H3111 0.931 . S
U3086 O3087 2.454 . S
U3086 O3088 2.458 . S
U3086 C3089 2.984 . S
U3086 C3090 2.847 . S
U3086 C3103 2.882 . S
U3086 O3104 2.441 . S
U3086 O3105 2.420 . S
U3086 O3106 2.455 . S
U3086 O3107 2.449 . S
O3087 U3086 2.454 . S
O3087 C3089 1.353 . S
O3088 U3086 2.458 . S
O3088 C3089 1.286 . S
C3089 U3086 2.984 . S
C3089 O3087 1.353 . S
C3089 O3088 1.286 . S
C3089 C3091 1.363 . S
C3090 C3080 1.465 . S
C3090 U3086 2.847 . S
C3090 O3104 1.249 . S
C3090 O3105 1.202 . S
C3091 C3089 1.363 . S
C3091 C3093 1.408 . S
C3091 C3096 1.342 . S
C3092 C3093 1.310 . S
C3092 C3095 1.461 . S
C3092 H3112 0.932 . S
C3093 C3091 1.408 . S
C3093 C3092 1.310 . S
C3093 H3113 0.930 . S
C3094 C3095 1.474 . S
C3094 C3096 1.285 . S
C3094 H3114 0.929 . S
C3095 C3092 1.461 . S
C3095 C3094 1.474 . S
C3096 C3091 1.342 . S
C3096 C3094 1.285 . S
C3096 H3115 0.930 . S
C3097 C3100 1.424 . S
C3097 C3102 1.245 . S
C3097 C3103 1.428 . S
C3098 C3101 1.260 . S
C3098 C3102 1.477 . S
C3098 H3116 0.932 . S
C3099 C3100 1.384 . S
C3099 C3101 1.479 . S
C3099 H3117 0.929 . S
C3100 C3097 1.424 . S
C3100 C3099 1.384 . S
C3100 H3118 0.928 . S
C3101 C3098 1.260 . S
C3101 C3099 1.479 . S
C3102 C3097 1.245 . S
C3102 C3098 1.477 . S
C3102 H3119 0.932 . S
C3103 U3086 2.882 . S
C3103 C3097 1.428 . S
C3103 O3106 1.301 . S
C3103 O3107 1.282 . S
O3104 U3086 2.441 . S
O3104 C3090 1.249 . S
O3105 U3086 2.420 . S
O3105 C3090 1.202 . S
O3106 U3086 2.455 . S
O3106 C3103 1.301 . S
O3107 U3086 2.449 . S
O3107 C3103 1.282 . S
H3108 C3081 0.931 . S
H3109 C3083 0.929 . S
H3110 C3084 0.930 . S
H3111 C3085 0.931 . S
H3112 C3092 0.932 . S
H3113 C3093 0.930 . S
H3114 C3094 0.929 . S
H3115 C3096 0.930 . S
H3116 C3098 0.932 . S
H3117 C3099 0.929 . S
H3118 C3100 0.928 . S
H3119 C3102 0.932 . S
C3120 C3121 1.264 . S
C3120 C3125 1.479 . S
C3120 C3130 1.465 . S
C3121 C3120 1.264 . S
C3121 C3123 1.339 . S
C3121 H3148 0.931 . S
C3122 C3123 1.395 . S
C3122 C3124 1.320 . S
C3123 C3121 1.339 . S
C3123 C3122 1.395 . S
C3123 H3149 0.929 . S
C3124 C3122 1.320 . S
C3124 C3125 1.405 . S
C3124 H3150 0.930 . S
C3125 C3120 1.479 . S
C3125 C3124 1.405 . S
C3125 H3151 0.931 . S
U3126 O3127 2.454 . S
U3126 O3128 2.458 . S
U3126 C3129 2.984 . S
U3126 C3130 2.847 . S
U3126 C3143 2.882 . S
U3126 O3144 2.441 . S
U3126 O3145 2.420 . S
U3126 O3146 2.455 . S
U3126 O3147 2.449 . S
O3127 U3126 2.454 . S
O3127 C3129 1.353 . S
O3128 U3126 2.458 . S
O3128 C3129 1.286 . S
C3129 U3126 2.984 . S
C3129 O3127 1.353 . S
C3129 O3128 1.286 . S
C3129 C3131 1.363 . S
C3130 C3120 1.465 . S
C3130 U3126 2.847 . S
C3130 O3144 1.249 . S
C3130 O3145 1.202 . S
C3131 C3129 1.363 . S
C3131 C3133 1.408 . S
C3131 C3136 1.342 . S
C3132 C3133 1.310 . S
C3132 C3135 1.461 . S
C3132 H3152 0.932 . S
C3133 C3131 1.408 . S
C3133 C3132 1.310 . S
C3133 H3153 0.930 . S
C3134 C3135 1.474 . S
C3134 C3136 1.285 . S
C3134 H3154 0.929 . S
C3135 C3132 1.461 . S
C3135 C3134 1.474 . S
C3136 C3131 1.342 . S
C3136 C3134 1.285 . S
C3136 H3155 0.930 . S
C3137 C3140 1.424 . S
C3137 C3142 1.245 . S
C3137 C3143 1.428 . S
C3138 C3141 1.260 . S
C3138 C3142 1.477 . S
C3138 H3156 0.932 . S
C3139 C3140 1.384 . S
C3139 C3141 1.479 . S
C3139 H3157 0.929 . S
C3140 C3137 1.424 . S
C3140 C3139 1.384 . S
C3140 H3158 0.928 . S
C3141 C3138 1.260 . S
C3141 C3139 1.479 . S
C3142 C3137 1.245 . S
C3142 C3138 1.477 . S
C3142 H3159 0.932 . S
C3143 U3126 2.882 . S
C3143 C3137 1.428 . S
C3143 O3146 1.301 . S
C3143 O3147 1.282 . S
O3144 U3126 2.441 . S
O3144 C3130 1.249 . S
O3145 U3126 2.420 . S
O3145 C3130 1.202 . S
O3146 U3126 2.455 . S
O3146 C3143 1.301 . S
O3147 U3126 2.449 . S
O3147 C3143 1.282 . S
H3148 C3121 0.931 . S
H3149 C3123 0.929 . S
H3150 C3124 0.930 . S
H3151 C3125 0.931 . S
H3152 C3132 0.932 . S
H3153 C3133 0.930 . S
H3154 C3134 0.929 . S
H3155 C3136 0.930 . S
H3156 C3138 0.932 . S
H3157 C3139 0.929 . S
H3158 C3140 0.928 . S
H3159 C3142 0.932 . S
C3160 C3161 1.264 . S
C3160 C3165 1.479 . S
C3160 C3170 1.465 . S
C3161 C3160 1.264 . S
C3161 C3163 1.339 . S
C3161 H3188 0.931 . S
C3162 C3163 1.395 . S
C3162 C3164 1.320 . S
C3163 C3161 1.339 . S
C3163 C3162 1.395 . S
C3163 H3189 0.929 . S
C3164 C3162 1.320 . S
C3164 C3165 1.405 . S
C3164 H3190 0.930 . S
C3165 C3160 1.479 . S
C3165 C3164 1.405 . S
C3165 H3191 0.931 . S
U3166 O3167 2.454 . S
U3166 O3168 2.458 . S
U3166 C3169 2.984 . S
U3166 C3170 2.847 . S
U3166 C3183 2.882 . S
U3166 O3184 2.441 . S
U3166 O3185 2.420 . S
U3166 O3186 2.455 . S
U3166 O3187 2.449 . S
O3167 U3166 2.454 . S
O3167 C3169 1.353 . S
O3168 U3166 2.458 . S
O3168 C3169 1.286 . S
C3169 U3166 2.984 . S
C3169 O3167 1.353 . S
C3169 O3168 1.286 . S
C3169 C3171 1.363 . S
C3170 C3160 1.465 . S
C3170 U3166 2.847 . S
C3170 O3184 1.249 . S
C3170 O3185 1.202 . S
C3171 C3169 1.363 . S
C3171 C3173 1.408 . S
C3171 C3176 1.342 . S
C3172 C3173 1.310 . S
C3172 C3175 1.461 . S
C3172 H3192 0.932 . S
C3173 C3171 1.408 . S
C3173 C3172 1.310 . S
C3173 H3193 0.930 . S
C3174 C3175 1.474 . S
C3174 C3176 1.285 . S
C3174 H3194 0.929 . S
C3175 C3172 1.461 . S
C3175 C3174 1.474 . S
C3176 C3171 1.342 . S
C3176 C3174 1.285 . S
C3176 H3195 0.930 . S
C3177 C3180 1.424 . S
C3177 C3182 1.245 . S
C3177 C3183 1.428 . S
C3178 C3181 1.260 . S
C3178 C3182 1.477 . S
C3178 H3196 0.932 . S
C3179 C3180 1.384 . S
C3179 C3181 1.479 . S
C3179 H3197 0.929 . S
C3180 C3177 1.424 . S
C3180 C3179 1.384 . S
C3180 H3198 0.928 . S
C3181 C3178 1.260 . S
C3181 C3179 1.479 . S
C3182 C3177 1.245 . S
C3182 C3178 1.477 . S
C3182 H3199 0.932 . S
C3183 U3166 2.882 . S
C3183 C3177 1.428 . S
C3183 O3186 1.301 . S
C3183 O3187 1.282 . S
O3184 U3166 2.441 . S
O3184 C3170 1.249 . S
O3185 U3166 2.420 . S
O3185 C3170 1.202 . S
O3186 U3166 2.455 . S
O3186 C3183 1.301 . S
O3187 U3166 2.449 . S
O3187 C3183 1.282 . S
H3188 C3161 0.931 . S
H3189 C3163 0.929 . S
H3190 C3164 0.930 . S
H3191 C3165 0.931 . S
H3192 C3172 0.932 . S
H3193 C3173 0.930 . S
H3194 C3174 0.929 . S
H3195 C3176 0.930 . S
H3196 C3178 0.932 . S
H3197 C3179 0.929 . S
H3198 C3180 0.928 . S
H3199 C3182 0.932 . S
C3200 C3201 1.264 . S
C3200 C3205 1.479 . S
C3200 C3210 1.465 . S
C3201 C3200 1.264 . S
C3201 C3203 1.339 . S
C3201 H3228 0.931 . S
C3202 C3203 1.395 . S
C3202 C3204 1.320 . S
C3203 C3201 1.339 . S
C3203 C3202 1.395 . S
C3203 H3229 0.929 . S
C3204 C3202 1.320 . S
C3204 C3205 1.405 . S
C3204 H3230 0.930 . S
C3205 C3200 1.479 . S
C3205 C3204 1.405 . S
C3205 H3231 0.931 . S
U3206 O3207 2.454 . S
U3206 O3208 2.458 . S
U3206 C3209 2.984 . S
U3206 C3210 2.847 . S
U3206 C3223 2.882 . S
U3206 O3224 2.441 . S
U3206 O3225 2.420 . S
U3206 O3226 2.455 . S
U3206 O3227 2.449 . S
O3207 U3206 2.454 . S
O3207 C3209 1.353 . S
O3208 U3206 2.458 . S
O3208 C3209 1.286 . S
C3209 U3206 2.984 . S
C3209 O3207 1.353 . S
C3209 O3208 1.286 . S
C3209 C3211 1.363 . S
C3210 C3200 1.465 . S
C3210 U3206 2.847 . S
C3210 O3224 1.249 . S
C3210 O3225 1.202 . S
C3211 C3209 1.363 . S
C3211 C3213 1.408 . S
C3211 C3216 1.342 . S
C3212 C3213 1.310 . S
C3212 C3215 1.461 . S
C3212 H3232 0.932 . S
C3213 C3211 1.408 . S
C3213 C3212 1.310 . S
C3213 H3233 0.930 . S
C3214 C3215 1.474 . S
C3214 C3216 1.285 . S
C3214 H3234 0.929 . S
C3215 C3212 1.461 . S
C3215 C3214 1.474 . S
C3216 C3211 1.342 . S
C3216 C3214 1.285 . S
C3216 H3235 0.930 . S
C3217 C3220 1.424 . S
C3217 C3222 1.245 . S
C3217 C3223 1.428 . S
C3218 C3221 1.260 . S
C3218 C3222 1.477 . S
C3218 H3236 0.932 . S
C3219 C3220 1.384 . S
C3219 C3221 1.479 . S
C3219 H3237 0.929 . S
C3220 C3217 1.424 . S
C3220 C3219 1.384 . S
C3220 H3238 0.928 . S
C3221 C3218 1.260 . S
C3221 C3219 1.479 . S
C3222 C3217 1.245 . S
C3222 C3218 1.477 . S
C3222 H3239 0.932 . S
C3223 U3206 2.882 . S
C3223 C3217 1.428 . S
C3223 O3226 1.301 . S
C3223 O3227 1.282 . S
O3224 U3206 2.441 . S
O3224 C3210 1.249 . S
O3225 U3206 2.420 . S
O3225 C3210 1.202 . S
O3226 U3206 2.455 . S
O3226 C3223 1.301 . S
O3227 U3206 2.449 . S
O3227 C3223 1.282 . S
H3228 C3201 0.931 . S
H3229 C3203 0.929 . S
H3230 C3204 0.930 . S
H3231 C3205 0.931 . S
H3232 C3212 0.932 . S
H3233 C3213 0.930 . S
H3234 C3214 0.929 . S
H3235 C3216 0.930 . S
H3236 C3218 0.932 . S
H3237 C3219 0.929 . S
H3238 C3220 0.928 . S
H3239 C3222 0.932 . S
C3240 C3241 1.264 . S
C3240 C3245 1.479 . S
C3240 C3250 1.465 . S
C3241 C3240 1.264 . S
C3241 C3243 1.339 . S
C3241 H3268 0.931 . S
C3242 C3243 1.395 . S
C3242 C3244 1.320 . S
C3243 C3241 1.339 . S
C3243 C3242 1.395 . S
C3243 H3269 0.929 . S
C3244 C3242 1.320 . S
C3244 C3245 1.405 . S
C3244 H3270 0.930 . S
C3245 C3240 1.479 . S
C3245 C3244 1.405 . S
C3245 H3271 0.931 . S
U3246 O3247 2.454 . S
U3246 O3248 2.458 . S
U3246 C3249 2.984 . S
U3246 C3250 2.847 . S
U3246 C3263 2.882 . S
U3246 O3264 2.441 . S
U3246 O3265 2.420 . S
U3246 O3266 2.455 . S
U3246 O3267 2.449 . S
O3247 U3246 2.454 . S
O3247 C3249 1.353 . S
O3248 U3246 2.458 . S
O3248 C3249 1.286 . S
C3249 U3246 2.984 . S
C3249 O3247 1.353 . S
C3249 O3248 1.286 . S
C3249 C3251 1.363 . S
C3250 C3240 1.465 . S
C3250 U3246 2.847 . S
C3250 O3264 1.249 . S
C3250 O3265 1.202 . S
C3251 C3249 1.363 . S
C3251 C3253 1.408 . S
C3251 C3256 1.342 . S
C3252 C3253 1.310 . S
C3252 C3255 1.461 . S
C3252 H3272 0.932 . S
C3253 C3251 1.408 . S
C3253 C3252 1.310 . S
C3253 H3273 0.930 . S
C3254 C3255 1.474 . S
C3254 C3256 1.285 . S
C3254 H3274 0.929 . S
C3255 C3252 1.461 . S
C3255 C3254 1.474 . S
C3256 C3251 1.342 . S
C3256 C3254 1.285 . S
C3256 H3275 0.930 . S
C3257 C3260 1.424 . S
C3257 C3262 1.245 . S
C3257 C3263 1.428 . S
C3258 C3261 1.260 . S
C3258 C3262 1.477 . S
C3258 H3276 0.932 . S
C3259 C3260 1.384 . S
C3259 C3261 1.479 . S
C3259 H3277 0.929 . S
C3260 C3257 1.424 . S
C3260 C3259 1.384 . S
C3260 H3278 0.928 . S
C3261 C3258 1.260 . S
C3261 C3259 1.479 . S
C3262 C3257 1.245 . S
C3262 C3258 1.477 . S
C3262 H3279 0.932 . S
C3263 U3246 2.882 . S
C3263 C3257 1.428 . S
C3263 O3266 1.301 . S
C3263 O3267 1.282 . S
O3264 U3246 2.441 . S
O3264 C3250 1.249 . S
O3265 U3246 2.420 . S
O3265 C3250 1.202 . S
O3266 U3246 2.455 . S
O3266 C3263 1.301 . S
O3267 U3246 2.449 . S
O3267 C3263 1.282 . S
H3268 C3241 0.931 . S
H3269 C3243 0.929 . S
H3270 C3244 0.930 . S
H3271 C3245 0.931 . S
H3272 C3252 0.932 . S
H3273 C3253 0.930 . S
H3274 C3254 0.929 . S
H3275 C3256 0.930 . S
H3276 C3258 0.932 . S
H3277 C3259 0.929 . S
H3278 C3260 0.928 . S
H3279 C3262 0.932 . S
C3280 C3281 1.264 . S
C3280 C3285 1.479 . S
C3280 C3290 1.465 . S
C3281 C3280 1.264 . S
C3281 C3283 1.339 . S
C3281 H3308 0.931 . S
C3282 C3283 1.395 . S
C3282 C3284 1.320 . S
C3283 C3281 1.339 . S
C3283 C3282 1.395 . S
C3283 H3309 0.929 . S
C3284 C3282 1.320 . S
C3284 C3285 1.405 . S
C3284 H3310 0.930 . S
C3285 C3280 1.479 . S
C3285 C3284 1.405 . S
C3285 H3311 0.931 . S
U3286 O3287 2.454 . S
U3286 O3288 2.458 . S
U3286 C3289 2.984 . S
U3286 C3290 2.847 . S
U3286 C3303 2.882 . S
U3286 O3304 2.441 . S
U3286 O3305 2.420 . S
U3286 O3306 2.455 . S
U3286 O3307 2.449 . S
O3287 U3286 2.454 . S
O3287 C3289 1.353 . S
O3288 U3286 2.458 . S
O3288 C3289 1.286 . S
C3289 U3286 2.984 . S
C3289 O3287 1.353 . S
C3289 O3288 1.286 . S
C3289 C3291 1.363 . S
C3290 C3280 1.465 . S
C3290 U3286 2.847 . S
C3290 O3304 1.249 . S
C3290 O3305 1.202 . S
C3291 C3289 1.363 . S
C3291 C3293 1.408 . S
C3291 C3296 1.342 . S
C3292 C3293 1.310 . S
C3292 C3295 1.461 . S
C3292 H3312 0.932 . S
C3293 C3291 1.408 . S
C3293 C3292 1.310 . S
C3293 H3313 0.930 . S
C3294 C3295 1.474 . S
C3294 C3296 1.285 . S
C3294 H3314 0.929 . S
C3295 C3292 1.461 . S
C3295 C3294 1.474 . S
C3296 C3291 1.342 . S
C3296 C3294 1.285 . S
C3296 H3315 0.930 . S
C3297 C3300 1.424 . S
C3297 C3302 1.245 . S
C3297 C3303 1.428 . S
C3298 C3301 1.260 . S
C3298 C3302 1.477 . S
C3298 H3316 0.932 . S
C3299 C3300 1.384 . S
C3299 C3301 1.479 . S
C3299 H3317 0.929 . S
C3300 C3297 1.424 . S
C3300 C3299 1.384 . S
C3300 H3318 0.928 . S
C3301 C3298 1.260 . S
C3301 C3299 1.479 . S
C3302 C3297 1.245 . S
C3302 C3298 1.477 . S
C3302 H3319 0.932 . S
C3303 U3286 2.882 . S
C3303 C3297 1.428 . S
C3303 O3306 1.301 . S
C3303 O3307 1.282 . S
O3304 U3286 2.441 . S
O3304 C3290 1.249 . S
O3305 U3286 2.420 . S
O3305 C3290 1.202 . S
O3306 U3286 2.455 . S
O3306 C3303 1.301 . S
O3307 U3286 2.449 . S
O3307 C3303 1.282 . S
H3308 C3281 0.931 . S
H3309 C3283 0.929 . S
H3310 C3284 0.930 . S
H3311 C3285 0.931 . S
H3312 C3292 0.932 . S
H3313 C3293 0.930 . S
H3314 C3294 0.929 . S
H3315 C3296 0.930 . S
H3316 C3298 0.932 . S
H3317 C3299 0.929 . S
H3318 C3300 0.928 . S
H3319 C3302 0.932 . S
C3320 C3321 1.264 . S
C3320 C3325 1.479 . S
C3320 C3330 1.465 . S
C3321 C3320 1.264 . S
C3321 C3323 1.339 . S
C3321 H3348 0.931 . S
C3322 C3323 1.395 . S
C3322 C3324 1.320 . S
C3323 C3321 1.339 . S
C3323 C3322 1.395 . S
C3323 H3349 0.929 . S
C3324 C3322 1.320 . S
C3324 C3325 1.405 . S
C3324 H3350 0.930 . S
C3325 C3320 1.479 . S
C3325 C3324 1.405 . S
C3325 H3351 0.931 . S
U3326 O3327 2.454 . S
U3326 O3328 2.458 . S
U3326 C3329 2.984 . S
U3326 C3330 2.847 . S
U3326 C3343 2.882 . S
U3326 O3344 2.441 . S
U3326 O3345 2.420 . S
U3326 O3346 2.455 . S
U3326 O3347 2.449 . S
O3327 U3326 2.454 . S
O3327 C3329 1.353 . S
O3328 U3326 2.458 . S
O3328 C3329 1.286 . S
C3329 U3326 2.984 . S
C3329 O3327 1.353 . S
C3329 O3328 1.286 . S
C3329 C3331 1.363 . S
C3330 C3320 1.465 . S
C3330 U3326 2.847 . S
C3330 O3344 1.249 . S
C3330 O3345 1.202 . S
C3331 C3329 1.363 . S
C3331 C3333 1.408 . S
C3331 C3336 1.342 . S
C3332 C3333 1.310 . S
C3332 C3335 1.461 . S
C3332 H3352 0.932 . S
C3333 C3331 1.408 . S
C3333 C3332 1.310 . S
C3333 H3353 0.930 . S
C3334 C3335 1.474 . S
C3334 C3336 1.285 . S
C3334 H3354 0.929 . S
C3335 C3332 1.461 . S
C3335 C3334 1.474 . S
C3336 C3331 1.342 . S
C3336 C3334 1.285 . S
C3336 H3355 0.930 . S
C3337 C3340 1.424 . S
C3337 C3342 1.245 . S
C3337 C3343 1.428 . S
C3338 C3341 1.260 . S
C3338 C3342 1.477 . S
C3338 H3356 0.932 . S
C3339 C3340 1.384 . S
C3339 C3341 1.479 . S
C3339 H3357 0.929 . S
C3340 C3337 1.424 . S
C3340 C3339 1.384 . S
C3340 H3358 0.928 . S
C3341 C3338 1.260 . S
C3341 C3339 1.479 . S
C3342 C3337 1.245 . S
C3342 C3338 1.477 . S
C3342 H3359 0.932 . S
C3343 U3326 2.882 . S
C3343 C3337 1.428 . S
C3343 O3346 1.301 . S
C3343 O3347 1.282 . S
O3344 U3326 2.441 . S
O3344 C3330 1.249 . S
O3345 U3326 2.420 . S
O3345 C3330 1.202 . S
O3346 U3326 2.455 . S
O3346 C3343 1.301 . S
O3347 U3326 2.449 . S
O3347 C3343 1.282 . S
H3348 C3321 0.931 . S
H3349 C3323 0.929 . S
H3350 C3324 0.930 . S
H3351 C3325 0.931 . S
H3352 C3332 0.932 . S
H3353 C3333 0.930 . S
H3354 C3334 0.929 . S
H3355 C3336 0.930 . S
H3356 C3338 0.932 . S
H3357 C3339 0.929 . S
H3358 C3340 0.928 . S
H3359 C3342 0.932 . S
C3360 C3361 1.264 . S
C3360 C3365 1.479 . S
C3360 C3370 1.465 . S
C3361 C3360 1.264 . S
C3361 C3363 1.339 . S
C3361 H3388 0.931 . S
C3362 C3363 1.395 . S
C3362 C3364 1.320 . S
C3363 C3361 1.339 . S
C3363 C3362 1.395 . S
C3363 H3389 0.929 . S
C3364 C3362 1.320 . S
C3364 C3365 1.405 . S
C3364 H3390 0.930 . S
C3365 C3360 1.479 . S
C3365 C3364 1.405 . S
C3365 H3391 0.931 . S
U3366 O3367 2.454 . S
U3366 O3368 2.458 . S
U3366 C3369 2.984 . S
U3366 C3370 2.847 . S
U3366 C3383 2.882 . S
U3366 O3384 2.441 . S
U3366 O3385 2.420 . S
U3366 O3386 2.455 . S
U3366 O3387 2.449 . S
O3367 U3366 2.454 . S
O3367 C3369 1.353 . S
O3368 U3366 2.458 . S
O3368 C3369 1.286 . S
C3369 U3366 2.984 . S
C3369 O3367 1.353 . S
C3369 O3368 1.286 . S
C3369 C3371 1.363 . S
C3370 C3360 1.465 . S
C3370 U3366 2.847 . S
C3370 O3384 1.249 . S
C3370 O3385 1.202 . S
C3371 C3369 1.363 . S
C3371 C3373 1.408 . S
C3371 C3376 1.342 . S
C3372 C3373 1.310 . S
C3372 C3375 1.461 . S
C3372 H3392 0.932 . S
C3373 C3371 1.408 . S
C3373 C3372 1.310 . S
C3373 H3393 0.930 . S
C3374 C3375 1.474 . S
C3374 C3376 1.285 . S
C3374 H3394 0.929 . S
C3375 C3372 1.461 . S
C3375 C3374 1.474 . S
C3376 C3371 1.342 . S
C3376 C3374 1.285 . S
C3376 H3395 0.930 . S
C3377 C3380 1.424 . S
C3377 C3382 1.245 . S
C3377 C3383 1.428 . S
C3378 C3381 1.260 . S
C3378 C3382 1.477 . S
C3378 H3396 0.932 . S
C3379 C3380 1.384 . S
C3379 C3381 1.479 . S
C3379 H3397 0.929 . S
C3380 C3377 1.424 . S
C3380 C3379 1.384 . S
C3380 H3398 0.928 . S
C3381 C3378 1.260 . S
C3381 C3379 1.479 . S
C3382 C3377 1.245 . S
C3382 C3378 1.477 . S
C3382 H3399 0.932 . S
C3383 U3366 2.882 . S
C3383 C3377 1.428 . S
C3383 O3386 1.301 . S
C3383 O3387 1.282 . S
O3384 U3366 2.441 . S
O3384 C3370 1.249 . S
O3385 U3366 2.420 . S
O3385 C3370 1.202 . S
O3386 U3366 2.455 . S
O3386 C3383 1.301 . S
O3387 U3366 2.449 . S
O3387 C3383 1.282 . S
H3388 C3361 0.931 . S
H3389 C3363 0.929 . S
H3390 C3364 0.930 . S
H3391 C3365 0.931 . S
H3392 C3372 0.932 . S
H3393 C3373 0.930 . S
H3394 C3374 0.929 . S
H3395 C3376 0.930 . S
H3396 C3378 0.932 . S
H3397 C3379 0.929 . S
H3398 C3380 0.928 . S
H3399 C3382 0.932 . S
C3400 C3401 1.264 . S
C3400 C3405 1.479 . S
C3400 C3410 1.465 . S
C3401 C3400 1.264 . S
C3401 C3403 1.339 . S
C3401 H3428 0.931 . S
C3402 C3403 1.395 . S
C3402 C3404 1.320 . S
C3403 C3401 1.339 . S
C3403 C3402 1.395 . S
C3403 H3429 0.929 . S
C3404 C3402 1.320 . S
C3404 C3405 1.405 . S
C3404 H3430 0.930 . S
C3405 C3400 1.479 . S
C3405 C3404 1.405 . S
C3405 H3431 0.931 . S
U3406 O3407 2.454 . S
U3406 O3408 2.458 . S
U3406 C3409 2.984 . S
U3406 C3410 2.847 . S
U3406 C3423 2.882 . S
U3406 O3424 2.441 . S
U3406 O3425 2.420 . S
U3406 O3426 2.455 . S
U3406 O3427 2.449 . S
O3407 U3406 2.454 . S
O3407 C3409 1.353 . S
O3408 U3406 2.458 . S
O3408 C3409 1.286 . S
C3409 U3406 2.984 . S
C3409 O3407 1.353 . S
C3409 O3408 1.286 . S
C3409 C3411 1.363 . S
C3410 C3400 1.465 . S
C3410 U3406 2.847 . S
C3410 O3424 1.249 . S
C3410 O3425 1.202 . S
C3411 C3409 1.363 . S
C3411 C3413 1.408 . S
C3411 C3416 1.342 . S
C3412 C3413 1.310 . S
C3412 C3415 1.461 . S
C3412 H3432 0.932 . S
C3413 C3411 1.408 . S
C3413 C3412 1.310 . S
C3413 H3433 0.930 . S
C3414 C3415 1.474 . S
C3414 C3416 1.285 . S
C3414 H3434 0.929 . S
C3415 C3412 1.461 . S
C3415 C3414 1.474 . S
C3416 C3411 1.342 . S
C3416 C3414 1.285 . S
C3416 H3435 0.930 . S
C3417 C3420 1.424 . S
C3417 C3422 1.245 . S
C3417 C3423 1.428 . S
C3418 C3421 1.260 . S
C3418 C3422 1.477 . S
C3418 H3436 0.932 . S
C3419 C3420 1.384 . S
C3419 C3421 1.479 . S
C3419 H3437 0.929 . S
C3420 C3417 1.424 . S
C3420 C3419 1.384 . S
C3420 H3438 0.928 . S
C3421 C3418 1.260 . S
C3421 C3419 1.479 . S
C3422 C3417 1.245 . S
C3422 C3418 1.477 . S
C3422 H3439 0.932 . S
C3423 U3406 2.882 . S
C3423 C3417 1.428 . S
C3423 O3426 1.301 . S
C3423 O3427 1.282 . S
O3424 U3406 2.441 . S
O3424 C3410 1.249 . S
O3425 U3406 2.420 . S
O3425 C3410 1.202 . S
O3426 U3406 2.455 . S
O3426 C3423 1.301 . S
O3427 U3406 2.449 . S
O3427 C3423 1.282 . S
H3428 C3401 0.931 . S
H3429 C3403 0.929 . S
H3430 C3404 0.930 . S
H3431 C3405 0.931 . S
H3432 C3412 0.932 . S
H3433 C3413 0.930 . S
H3434 C3414 0.929 . S
H3435 C3416 0.930 . S
H3436 C3418 0.932 . S
H3437 C3419 0.929 . S
H3438 C3420 0.928 . S
H3439 C3422 0.932 . S
C3440 C3441 1.264 . S
C3440 C3445 1.479 . S
C3440 C3450 1.465 . S
C3441 C3440 1.264 . S
C3441 C3443 1.339 . S
C3441 H3468 0.931 . S
C3442 C3443 1.395 . S
C3442 C3444 1.320 . S
C3443 C3441 1.339 . S
C3443 C3442 1.395 . S
C3443 H3469 0.929 . S
C3444 C3442 1.320 . S
C3444 C3445 1.405 . S
C3444 H3470 0.930 . S
C3445 C3440 1.479 . S
C3445 C3444 1.405 . S
C3445 H3471 0.931 . S
U3446 O3447 2.454 . S
U3446 O3448 2.458 . S
U3446 C3449 2.984 . S
U3446 C3450 2.847 . S
U3446 C3463 2.882 . S
U3446 O3464 2.441 . S
U3446 O3465 2.420 . S
U3446 O3466 2.455 . S
U3446 O3467 2.449 . S
O3447 U3446 2.454 . S
O3447 C3449 1.353 . S
O3448 U3446 2.458 . S
O3448 C3449 1.286 . S
C3449 U3446 2.984 . S
C3449 O3447 1.353 . S
C3449 O3448 1.286 . S
C3449 C3451 1.363 . S
C3450 C3440 1.465 . S
C3450 U3446 2.847 . S
C3450 O3464 1.249 . S
C3450 O3465 1.202 . S
C3451 C3449 1.363 . S
C3451 C3453 1.408 . S
C3451 C3456 1.342 . S
C3452 C3453 1.310 . S
C3452 C3455 1.461 . S
C3452 H3472 0.932 . S
C3453 C3451 1.408 . S
C3453 C3452 1.310 . S
C3453 H3473 0.930 . S
C3454 C3455 1.474 . S
C3454 C3456 1.285 . S
C3454 H3474 0.929 . S
C3455 C3452 1.461 . S
C3455 C3454 1.474 . S
C3456 C3451 1.342 . S
C3456 C3454 1.285 . S
C3456 H3475 0.930 . S
C3457 C3460 1.424 . S
C3457 C3462 1.245 . S
C3457 C3463 1.428 . S
C3458 C3461 1.260 . S
C3458 C3462 1.477 . S
C3458 H3476 0.932 . S
C3459 C3460 1.384 . S
C3459 C3461 1.479 . S
C3459 H3477 0.929 . S
C3460 C3457 1.424 . S
C3460 C3459 1.384 . S
C3460 H3478 0.928 . S
C3461 C3458 1.260 . S
C3461 C3459 1.479 . S
C3462 C3457 1.245 . S
C3462 C3458 1.477 . S
C3462 H3479 0.932 . S
C3463 U3446 2.882 . S
C3463 C3457 1.428 . S
C3463 O3466 1.301 . S
C3463 O3467 1.282 . S
O3464 U3446 2.441 . S
O3464 C3450 1.249 . S
O3465 U3446 2.420 . S
O3465 C3450 1.202 . S
O3466 U3446 2.455 . S
O3466 C3463 1.301 . S
O3467 U3446 2.449 . S
O3467 C3463 1.282 . S
H3468 C3441 0.931 . S
H3469 C3443 0.929 . S
H3470 C3444 0.930 . S
H3471 C3445 0.931 . S
H3472 C3452 0.932 . S
H3473 C3453 0.930 . S
H3474 C3454 0.929 . S
H3475 C3456 0.930 . S
H3476 C3458 0.932 . S
H3477 C3459 0.929 . S
H3478 C3460 0.928 . S
H3479 C3462 0.932 . S
C3480 C3481 1.264 . S
C3480 C3485 1.479 . S
C3480 C3490 1.465 . S
C3481 C3480 1.264 . S
C3481 C3483 1.339 . S
C3481 H3508 0.931 . S
C3482 C3483 1.395 . S
C3482 C3484 1.320 . S
C3483 C3481 1.339 . S
C3483 C3482 1.395 . S
C3483 H3509 0.929 . S
C3484 C3482 1.320 . S
C3484 C3485 1.405 . S
C3484 H3510 0.930 . S
C3485 C3480 1.479 . S
C3485 C3484 1.405 . S
C3485 H3511 0.931 . S
U3486 O3487 2.454 . S
U3486 O3488 2.458 . S
U3486 C3489 2.984 . S
U3486 C3490 2.847 . S
U3486 C3503 2.882 . S
U3486 O3504 2.441 . S
U3486 O3505 2.420 . S
U3486 O3506 2.455 . S
U3486 O3507 2.449 . S
O3487 U3486 2.454 . S
O3487 C3489 1.353 . S
O3488 U3486 2.458 . S
O3488 C3489 1.286 . S
C3489 U3486 2.984 . S
C3489 O3487 1.353 . S
C3489 O3488 1.286 . S
C3489 C3491 1.363 . S
C3490 C3480 1.465 . S
C3490 U3486 2.847 . S
C3490 O3504 1.249 . S
C3490 O3505 1.202 . S
C3491 C3489 1.363 . S
C3491 C3493 1.408 . S
C3491 C3496 1.342 . S
C3492 C3493 1.310 . S
C3492 C3495 1.461 . S
C3492 H3512 0.932 . S
C3493 C3491 1.408 . S
C3493 C3492 1.310 . S
C3493 H3513 0.930 . S
C3494 C3495 1.474 . S
C3494 C3496 1.285 . S
C3494 H3514 0.929 . S
C3495 C3492 1.461 . S
C3495 C3494 1.474 . S
C3496 C3491 1.342 . S
C3496 C3494 1.285 . S
C3496 H3515 0.930 . S
C3497 C3500 1.424 . S
C3497 C3502 1.245 . S
C3497 C3503 1.428 . S
C3498 C3501 1.260 . S
C3498 C3502 1.477 . S
C3498 H3516 0.932 . S
C3499 C3500 1.384 . S
C3499 C3501 1.479 . S
C3499 H3517 0.929 . S
C3500 C3497 1.424 . S
C3500 C3499 1.384 . S
C3500 H3518 0.928 . S
C3501 C3498 1.260 . S
C3501 C3499 1.479 . S
C3502 C3497 1.245 . S
C3502 C3498 1.477 . S
C3502 H3519 0.932 . S
C3503 U3486 2.882 . S
C3503 C3497 1.428 . S
C3503 O3506 1.301 . S
C3503 O3507 1.282 . S
O3504 U3486 2.441 . S
O3504 C3490 1.249 . S
O3505 U3486 2.420 . S
O3505 C3490 1.202 . S
O3506 U3486 2.455 . S
O3506 C3503 1.301 . S
O3507 U3486 2.449 . S
O3507 C3503 1.282 . S
H3508 C3481 0.931 . S
H3509 C3483 0.929 . S
H3510 C3484 0.930 . S
H3511 C3485 0.931 . S
H3512 C3492 0.932 . S
H3513 C3493 0.930 . S
H3514 C3494 0.929 . S
H3515 C3496 0.930 . S
H3516 C3498 0.932 . S
H3517 C3499 0.929 . S
H3518 C3500 0.928 . S
H3519 C3502 0.932 . S
C3520 C3521 1.264 . S
C3520 C3525 1.479 . S
C3520 C3530 1.465 . S
C3521 C3520 1.264 . S
C3521 C3523 1.339 . S
C3521 H3548 0.931 . S
C3522 C3523 1.395 . S
C3522 C3524 1.320 . S
C3523 C3521 1.339 . S
C3523 C3522 1.395 . S
C3523 H3549 0.929 . S
C3524 C3522 1.320 . S
C3524 C3525 1.405 . S
C3524 H3550 0.930 . S
C3525 C3520 1.479 . S
C3525 C3524 1.405 . S
C3525 H3551 0.931 . S
U3526 O3527 2.454 . S
U3526 O3528 2.458 . S
U3526 C3529 2.984 . S
U3526 C3530 2.847 . S
U3526 C3543 2.882 . S
U3526 O3544 2.441 . S
U3526 O3545 2.420 . S
U3526 O3546 2.455 . S
U3526 O3547 2.449 . S
O3527 U3526 2.454 . S
O3527 C3529 1.353 . S
O3528 U3526 2.458 . S
O3528 C3529 1.286 . S
C3529 U3526 2.984 . S
C3529 O3527 1.353 . S
C3529 O3528 1.286 . S
C3529 C3531 1.363 . S
C3530 C3520 1.465 . S
C3530 U3526 2.847 . S
C3530 O3544 1.249 . S
C3530 O3545 1.202 . S
C3531 C3529 1.363 . S
C3531 C3533 1.408 . S
C3531 C3536 1.342 . S
C3532 C3533 1.310 . S
C3532 C3535 1.461 . S
C3532 H3552 0.932 . S
C3533 C3531 1.408 . S
C3533 C3532 1.310 . S
C3533 H3553 0.930 . S
C3534 C3535 1.474 . S
C3534 C3536 1.285 . S
C3534 H3554 0.929 . S
C3535 C3532 1.461 . S
C3535 C3534 1.474 . S
C3536 C3531 1.342 . S
C3536 C3534 1.285 . S
C3536 H3555 0.930 . S
C3537 C3540 1.424 . S
C3537 C3542 1.245 . S
C3537 C3543 1.428 . S
C3538 C3541 1.260 . S
C3538 C3542 1.477 . S
C3538 H3556 0.932 . S
C3539 C3540 1.384 . S
C3539 C3541 1.479 . S
C3539 H3557 0.929 . S
C3540 C3537 1.424 . S
C3540 C3539 1.384 . S
C3540 H3558 0.928 . S
C3541 C3538 1.260 . S
C3541 C3539 1.479 . S
C3542 C3537 1.245 . S
C3542 C3538 1.477 . S
C3542 H3559 0.932 . S
C3543 U3526 2.882 . S
C3543 C3537 1.428 . S
C3543 O3546 1.301 . S
C3543 O3547 1.282 . S
O3544 U3526 2.441 . S
O3544 C3530 1.249 . S
O3545 U3526 2.420 . S
O3545 C3530 1.202 . S
O3546 U3526 2.455 . S
O3546 C3543 1.301 . S
O3547 U3526 2.449 . S
O3547 C3543 1.282 . S
H3548 C3521 0.931 . S
H3549 C3523 0.929 . S
H3550 C3524 0.930 . S
H3551 C3525 0.931 . S
H3552 C3532 0.932 . S
H3553 C3533 0.930 . S
H3554 C3534 0.929 . S
H3555 C3536 0.930 . S
H3556 C3538 0.932 . S
H3557 C3539 0.929 . S
H3558 C3540 0.928 . S
H3559 C3542 0.932 . S
C3560 C3561 1.264 . S
C3560 C3565 1.479 . S
C3560 C3570 1.465 . S
C3561 C3560 1.264 . S
C3561 C3563 1.339 . S
C3561 H3588 0.931 . S
C3562 C3563 1.395 . S
C3562 C3564 1.320 . S
C3563 C3561 1.339 . S
C3563 C3562 1.395 . S
C3563 H3589 0.929 . S
C3564 C3562 1.320 . S
C3564 C3565 1.405 . S
C3564 H3590 0.930 . S
C3565 C3560 1.479 . S
C3565 C3564 1.405 . S
C3565 H3591 0.931 . S
U3566 O3567 2.454 . S
U3566 O3568 2.458 . S
U3566 C3569 2.984 . S
U3566 C3570 2.847 . S
U3566 C3583 2.882 . S
U3566 O3584 2.441 . S
U3566 O3585 2.420 . S
U3566 O3586 2.455 . S
U3566 O3587 2.449 . S
O3567 U3566 2.454 . S
O3567 C3569 1.353 . S
O3568 U3566 2.458 . S
O3568 C3569 1.286 . S
C3569 U3566 2.984 . S
C3569 O3567 1.353 . S
C3569 O3568 1.286 . S
C3569 C3571 1.363 . S
C3570 C3560 1.465 . S
C3570 U3566 2.847 . S
C3570 O3584 1.249 . S
C3570 O3585 1.202 . S
C3571 C3569 1.363 . S
C3571 C3573 1.408 . S
C3571 C3576 1.342 . S
C3572 C3573 1.310 . S
C3572 C3575 1.461 . S
C3572 H3592 0.932 . S
C3573 C3571 1.408 . S
C3573 C3572 1.310 . S
C3573 H3593 0.930 . S
C3574 C3575 1.474 . S
C3574 C3576 1.285 . S
C3574 H3594 0.929 . S
C3575 C3572 1.461 . S
C3575 C3574 1.474 . S
C3576 C3571 1.342 . S
C3576 C3574 1.285 . S
C3576 H3595 0.930 . S
C3577 C3580 1.424 . S
C3577 C3582 1.245 . S
C3577 C3583 1.428 . S
C3578 C3581 1.260 . S
C3578 C3582 1.477 . S
C3578 H3596 0.932 . S
C3579 C3580 1.384 . S
C3579 C3581 1.479 . S
C3579 H3597 0.929 . S
C3580 C3577 1.424 . S
C3580 C3579 1.384 . S
C3580 H3598 0.928 . S
C3581 C3578 1.260 . S
C3581 C3579 1.479 . S
C3582 C3577 1.245 . S
C3582 C3578 1.477 . S
C3582 H3599 0.932 . S
C3583 U3566 2.882 . S
C3583 C3577 1.428 . S
C3583 O3586 1.301 . S
C3583 O3587 1.282 . S
O3584 U3566 2.441 . S
O3584 C3570 1.249 . S
O3585 U3566 2.420 . S
O3585 C3570 1.202 . S
O3586 U3566 2.455 . S
O3586 C3583 1.301 . S
O3587 U3566 2.449 . S
O3587 C3583 1.282 . S
H3588 C3561 0.931 . S
H3589 C3563 0.929 . S
H3590 C3564 0.930 . S
H3591 C3565 0.931 . S
H3592 C3572 0.932 . S
H3593 C3573 0.930 . S
H3594 C3574 0.929 . S
H3595 C3576 0.930 . S
H3596 C3578 0.932 . S
H3597 C3579 0.929 . S
H3598 C3580 0.928 . S
H3599 C3582 0.932 . S
C3600 C3601 1.264 . S
C3600 C3605 1.479 . S
C3600 C3610 1.465 . S
C3601 C3600 1.264 . S
C3601 C3603 1.339 . S
C3601 H3628 0.931 . S
C3602 C3603 1.395 . S
C3602 C3604 1.320 . S
C3603 C3601 1.339 . S
C3603 C3602 1.395 . S
C3603 H3629 0.929 . S
C3604 C3602 1.320 . S
C3604 C3605 1.405 . S
C3604 H3630 0.930 . S
C3605 C3600 1.479 . S
C3605 C3604 1.405 . S
C3605 H3631 0.931 . S
U3606 O3607 2.454 . S
U3606 O3608 2.458 . S
U3606 C3609 2.984 . S
U3606 C3610 2.847 . S
U3606 C3623 2.882 . S
U3606 O3624 2.441 . S
U3606 O3625 2.420 . S
U3606 O3626 2.455 . S
U3606 O3627 2.449 . S
O3607 U3606 2.454 . S
O3607 C3609 1.353 . S
O3608 U3606 2.458 . S
O3608 C3609 1.286 . S
C3609 U3606 2.984 . S
C3609 O3607 1.353 . S
C3609 O3608 1.286 . S
C3609 C3611 1.363 . S
C3610 C3600 1.465 . S
C3610 U3606 2.847 . S
C3610 O3624 1.249 . S
C3610 O3625 1.202 . S
C3611 C3609 1.363 . S
C3611 C3613 1.408 . S
C3611 C3616 1.342 . S
C3612 C3613 1.310 . S
C3612 C3615 1.461 . S
C3612 H3632 0.932 . S
C3613 C3611 1.408 . S
C3613 C3612 1.310 . S
C3613 H3633 0.930 . S
C3614 C3615 1.474 . S
C3614 C3616 1.285 . S
C3614 H3634 0.929 . S
C3615 C3612 1.461 . S
C3615 C3614 1.474 . S
C3616 C3611 1.342 . S
C3616 C3614 1.285 . S
C3616 H3635 0.930 . S
C3617 C3620 1.424 . S
C3617 C3622 1.245 . S
C3617 C3623 1.428 . S
C3618 C3621 1.260 . S
C3618 C3622 1.477 . S
C3618 H3636 0.932 . S
C3619 C3620 1.384 . S
C3619 C3621 1.479 . S
C3619 H3637 0.929 . S
C3620 C3617 1.424 . S
C3620 C3619 1.384 . S
C3620 H3638 0.928 . S
C3621 C3618 1.260 . S
C3621 C3619 1.479 . S
C3622 C3617 1.245 . S
C3622 C3618 1.477 . S
C3622 H3639 0.932 . S
C3623 U3606 2.882 . S
C3623 C3617 1.428 . S
C3623 O3626 1.301 . S
C3623 O3627 1.282 . S
O3624 U3606 2.441 . S
O3624 C3610 1.249 . S
O3625 U3606 2.420 . S
O3625 C3610 1.202 . S
O3626 U3606 2.455 . S
O3626 C3623 1.301 . S
O3627 U3606 2.449 . S
O3627 C3623 1.282 . S
H3628 C3601 0.931 . S
H3629 C3603 0.929 . S
H3630 C3604 0.930 . S
H3631 C3605 0.931 . S
H3632 C3612 0.932 . S
H3633 C3613 0.930 . S
H3634 C3614 0.929 . S
H3635 C3616 0.930 . S
H3636 C3618 0.932 . S
H3637 C3619 0.929 . S
H3638 C3620 0.928 . S
H3639 C3622 0.932 . S
C3640 C3641 1.264 . S
C3640 C3645 1.479 . S
C3640 C3650 1.465 . S
C3641 C3640 1.264 . S
C3641 C3643 1.339 . S
C3641 H3668 0.931 . S
C3642 C3643 1.395 . S
C3642 C3644 1.320 . S
C3643 C3641 1.339 . S
C3643 C3642 1.395 . S
C3643 H3669 0.929 . S
C3644 C3642 1.320 . S
C3644 C3645 1.405 . S
C3644 H3670 0.930 . S
C3645 C3640 1.479 . S
C3645 C3644 1.405 . S
C3645 H3671 0.931 . S
U3646 O3647 2.454 . S
U3646 O3648 2.458 . S
U3646 C3649 2.984 . S
U3646 C3650 2.847 . S
U3646 C3663 2.882 . S
U3646 O3664 2.441 . S
U3646 O3665 2.420 . S
U3646 O3666 2.455 . S
U3646 O3667 2.449 . S
O3647 U3646 2.454 . S
O3647 C3649 1.353 . S
O3648 U3646 2.458 . S
O3648 C3649 1.286 . S
C3649 U3646 2.984 . S
C3649 O3647 1.353 . S
C3649 O3648 1.286 . S
C3649 C3651 1.363 . S
C3650 C3640 1.465 . S
C3650 U3646 2.847 . S
C3650 O3664 1.249 . S
C3650 O3665 1.202 . S
C3651 C3649 1.363 . S
C3651 C3653 1.408 . S
C3651 C3656 1.342 . S
C3652 C3653 1.310 . S
C3652 C3655 1.461 . S
C3652 H3672 0.932 . S
C3653 C3651 1.408 . S
C3653 C3652 1.310 . S
C3653 H3673 0.930 . S
C3654 C3655 1.474 . S
C3654 C3656 1.285 . S
C3654 H3674 0.929 . S
C3655 C3652 1.461 . S
C3655 C3654 1.474 . S
C3656 C3651 1.342 . S
C3656 C3654 1.285 . S
C3656 H3675 0.930 . S
C3657 C3660 1.424 . S
C3657 C3662 1.245 . S
C3657 C3663 1.428 . S
C3658 C3661 1.260 . S
C3658 C3662 1.477 . S
C3658 H3676 0.932 . S
C3659 C3660 1.384 . S
C3659 C3661 1.479 . S
C3659 H3677 0.929 . S
C3660 C3657 1.424 . S
C3660 C3659 1.384 . S
C3660 H3678 0.928 . S
C3661 C3658 1.260 . S
C3661 C3659 1.479 . S
C3662 C3657 1.245 . S
C3662 C3658 1.477 . S
C3662 H3679 0.932 . S
C3663 U3646 2.882 . S
C3663 C3657 1.428 . S
C3663 O3666 1.301 . S
C3663 O3667 1.282 . S
O3664 U3646 2.441 . S
O3664 C3650 1.249 . S
O3665 U3646 2.420 . S
O3665 C3650 1.202 . S
O3666 U3646 2.455 . S
O3666 C3663 1.301 . S
O3667 U3646 2.449 . S
O3667 C3663 1.282 . S
H3668 C3641 0.931 . S
H3669 C3643 0.929 . S
H3670 C3644 0.930 . S
H3671 C3645 0.931 . S
H3672 C3652 0.932 . S
H3673 C3653 0.930 . S
H3674 C3654 0.929 . S
H3675 C3656 0.930 . S
H3676 C3658 0.932 . S
H3677 C3659 0.929 . S
H3678 C3660 0.928 . S
H3679 C3662 0.932 . S
C3680 C3681 1.264 . S
C3680 C3685 1.479 . S
C3680 C3690 1.465 . S
C3681 C3680 1.264 . S
C3681 C3683 1.339 . S
C3681 H3708 0.931 . S
C3682 C3683 1.395 . S
C3682 C3684 1.320 . S
C3683 C3681 1.339 . S
C3683 C3682 1.395 . S
C3683 H3709 0.929 . S
C3684 C3682 1.320 . S
C3684 C3685 1.405 . S
C3684 H3710 0.930 . S
C3685 C3680 1.479 . S
C3685 C3684 1.405 . S
C3685 H3711 0.931 . S
U3686 O3687 2.454 . S
U3686 O3688 2.458 . S
U3686 C3689 2.984 . S
U3686 C3690 2.847 . S
U3686 C3703 2.882 . S
U3686 O3704 2.441 . S
U3686 O3705 2.420 . S
U3686 O3706 2.455 . S
U3686 O3707 2.449 . S
O3687 U3686 2.454 . S
O3687 C3689 1.353 . S
O3688 U3686 2.458 . S
O3688 C3689 1.286 . S
C3689 U3686 2.984 . S
C3689 O3687 1.353 . S
C3689 O3688 1.286 . S
C3689 C3691 1.363 . S
C3690 C3680 1.465 . S
C3690 U3686 2.847 . S
C3690 O3704 1.249 . S
C3690 O3705 1.202 . S
C3691 C3689 1.363 . S
C3691 C3693 1.408 . S
C3691 C3696 1.342 . S
C3692 C3693 1.310 . S
C3692 C3695 1.461 . S
C3692 H3712 0.932 . S
C3693 C3691 1.408 . S
C3693 C3692 1.310 . S
C3693 H3713 0.930 . S
C3694 C3695 1.474 . S
C3694 C3696 1.285 . S
C3694 H3714 0.929 . S
C3695 C3692 1.461 . S
C3695 C3694 1.474 . S
C3696 C3691 1.342 . S
C3696 C3694 1.285 . S
C3696 H3715 0.930 . S
C3697 C3700 1.424 . S
C3697 C3702 1.245 . S
C3697 C3703 1.428 . S
C3698 C3701 1.260 . S
C3698 C3702 1.477 . S
C3698 H3716 0.932 . S
C3699 C3700 1.384 . S
C3699 C3701 1.479 . S
C3699 H3717 0.929 . S
C3700 C3697 1.424 . S
C3700 C3699 1.384 . S
C3700 H3718 0.928 . S
C3701 C3698 1.260 . S
C3701 C3699 1.479 . S
C3702 C3697 1.245 . S
C3702 C3698 1.477 . S
C3702 H3719 0.932 . S
C3703 U3686 2.882 . S
C3703 C3697 1.428 . S
C3703 O3706 1.301 . S
C3703 O3707 1.282 . S
O3704 U3686 2.441 . S
O3704 C3690 1.249 . S
O3705 U3686 2.420 . S
O3705 C3690 1.202 . S
O3706 U3686 2.455 . S
O3706 C3703 1.301 . S
O3707 U3686 2.449 . S
O3707 C3703 1.282 . S
H3708 C3681 0.931 . S
H3709 C3683 0.929 . S
H3710 C3684 0.930 . S
H3711 C3685 0.931 . S
H3712 C3692 0.932 . S
H3713 C3693 0.930 . S
H3714 C3694 0.929 . S
H3715 C3696 0.930 . S
H3716 C3698 0.932 . S
H3717 C3699 0.929 . S
H3718 C3700 0.928 . S
H3719 C3702 0.932 . S
C3720 C3721 1.264 . S
C3720 C3725 1.479 . S
C3720 C3730 1.465 . S
C3721 C3720 1.264 . S
C3721 C3723 1.339 . S
C3721 H3748 0.931 . S
C3722 C3723 1.395 . S
C3722 C3724 1.320 . S
C3723 C3721 1.339 . S
C3723 C3722 1.395 . S
C3723 H3749 0.929 . S
C3724 C3722 1.320 . S
C3724 C3725 1.405 . S
C3724 H3750 0.930 . S
C3725 C3720 1.479 . S
C3725 C3724 1.405 . S
C3725 H3751 0.931 . S
U3726 O3727 2.454 . S
U3726 O3728 2.458 . S
U3726 C3729 2.984 . S
U3726 C3730 2.847 . S
U3726 C3743 2.882 . S
U3726 O3744 2.441 . S
U3726 O3745 2.420 . S
U3726 O3746 2.455 . S
U3726 O3747 2.449 . S
O3727 U3726 2.454 . S
O3727 C3729 1.353 . S
O3728 U3726 2.458 . S
O3728 C3729 1.286 . S
C3729 U3726 2.984 . S
C3729 O3727 1.353 . S
C3729 O3728 1.286 . S
C3729 C3731 1.363 . S
C3730 C3720 1.465 . S
C3730 U3726 2.847 . S
C3730 O3744 1.249 . S
C3730 O3745 1.202 . S
C3731 C3729 1.363 . S
C3731 C3733 1.408 . S
C3731 C3736 1.342 . S
C3732 C3733 1.310 . S
C3732 C3735 1.461 . S
C3732 H3752 0.932 . S
C3733 C3731 1.408 . S
C3733 C3732 1.310 . S
C3733 H3753 0.930 . S
C3734 C3735 1.474 . S
C3734 C3736 1.285 . S
C3734 H3754 0.929 . S
C3735 C3732 1.461 . S
C3735 C3734 1.474 . S
C3736 C3731 1.342 . S
C3736 C3734 1.285 . S
C3736 H3755 0.930 . S
C3737 C3740 1.424 . S
C3737 C3742 1.245 . S
C3737 C3743 1.428 . S
C3738 C3741 1.260 . S
C3738 C3742 1.477 . S
C3738 H3756 0.932 . S
C3739 C3740 1.384 . S
C3739 C3741 1.479 . S
C3739 H3757 0.929 . S
C3740 C3737 1.424 . S
C3740 C3739 1.384 . S
C3740 H3758 0.928 . S
C3741 C3738 1.260 . S
C3741 C3739 1.479 . S
C3742 C3737 1.245 . S
C3742 C3738 1.477 . S
C3742 H3759 0.932 . S
C3743 U3726 2.882 . S
C3743 C3737 1.428 . S
C3743 O3746 1.301 . S
C3743 O3747 1.282 . S
O3744 U3726 2.441 . S
O3744 C3730 1.249 . S
O3745 U3726 2.420 . S
O3745 C3730 1.202 . S
O3746 U3726 2.455 . S
O3746 C3743 1.301 . S
O3747 U3726 2.449 . S
O3747 C3743 1.282 . S
H3748 C3721 0.931 . S
H3749 C3723 0.929 . S
H3750 C3724 0.930 . S
H3751 C3725 0.931 . S
H3752 C3732 0.932 . S
H3753 C3733 0.930 . S
H3754 C3734 0.929 . S
H3755 C3736 0.930 . S
H3756 C3738 0.932 . S
H3757 C3739 0.929 . S
H3758 C3740 0.928 . S
H3759 C3742 0.932 . S
C3760 C3761 1.264 . S
C3760 C3765 1.479 . S
C3760 C3770 1.465 . S
C3761 C3760 1.264 . S
C3761 C3763 1.339 . S
C3761 H3788 0.931 . S
C3762 C3763 1.395 . S
C3762 C3764 1.320 . S
C3763 C3761 1.339 . S
C3763 C3762 1.395 . S
C3763 H3789 0.929 . S
C3764 C3762 1.320 . S
C3764 C3765 1.405 . S
C3764 H3790 0.930 . S
C3765 C3760 1.479 . S
C3765 C3764 1.405 . S
C3765 H3791 0.931 . S
U3766 O3767 2.454 . S
U3766 O3768 2.458 . S
U3766 C3769 2.984 . S
U3766 C3770 2.847 . S
U3766 C3783 2.882 . S
U3766 O3784 2.441 . S
U3766 O3785 2.420 . S
U3766 O3786 2.455 . S
U3766 O3787 2.449 . S
O3767 U3766 2.454 . S
O3767 C3769 1.353 . S
O3768 U3766 2.458 . S
O3768 C3769 1.286 . S
C3769 U3766 2.984 . S
C3769 O3767 1.353 . S
C3769 O3768 1.286 . S
C3769 C3771 1.363 . S
C3770 C3760 1.465 . S
C3770 U3766 2.847 . S
C3770 O3784 1.249 . S
C3770 O3785 1.202 . S
C3771 C3769 1.363 . S
C3771 C3773 1.408 . S
C3771 C3776 1.342 . S
C3772 C3773 1.310 . S
C3772 C3775 1.461 . S
C3772 H3792 0.932 . S
C3773 C3771 1.408 . S
C3773 C3772 1.310 . S
C3773 H3793 0.930 . S
C3774 C3775 1.474 . S
C3774 C3776 1.285 . S
C3774 H3794 0.929 . S
C3775 C3772 1.461 . S
C3775 C3774 1.474 . S
C3776 C3771 1.342 . S
C3776 C3774 1.285 . S
C3776 H3795 0.930 . S
C3777 C3780 1.424 . S
C3777 C3782 1.245 . S
C3777 C3783 1.428 . S
C3778 C3781 1.260 . S
C3778 C3782 1.477 . S
C3778 H3796 0.932 . S
C3779 C3780 1.384 . S
C3779 C3781 1.479 . S
C3779 H3797 0.929 . S
C3780 C3777 1.424 . S
C3780 C3779 1.384 . S
C3780 H3798 0.928 . S
C3781 C3778 1.260 . S
C3781 C3779 1.479 . S
C3782 C3777 1.245 . S
C3782 C3778 1.477 . S
C3782 H3799 0.932 . S
C3783 U3766 2.882 . S
C3783 C3777 1.428 . S
C3783 O3786 1.301 . S
C3783 O3787 1.282 . S
O3784 U3766 2.441 . S
O3784 C3770 1.249 . S
O3785 U3766 2.420 . S
O3785 C3770 1.202 . S
O3786 U3766 2.455 . S
O3786 C3783 1.301 . S
O3787 U3766 2.449 . S
O3787 C3783 1.282 . S
H3788 C3761 0.931 . S
H3789 C3763 0.929 . S
H3790 C3764 0.930 . S
H3791 C3765 0.931 . S
H3792 C3772 0.932 . S
H3793 C3773 0.930 . S
H3794 C3774 0.929 . S
H3795 C3776 0.930 . S
H3796 C3778 0.932 . S
H3797 C3779 0.929 . S
H3798 C3780 0.928 . S
H3799 C3782 0.932 . S
C3800 C3801 1.264 . S
C3800 C3805 1.479 . S
C3800 C3810 1.465 . S
C3801 C3800 1.264 . S
C3801 C3803 1.339 . S
C3801 H3828 0.931 . S
C3802 C3803 1.395 . S
C3802 C3804 1.320 . S
C3803 C3801 1.339 . S
C3803 C3802 1.395 . S
C3803 H3829 0.929 . S
C3804 C3802 1.320 . S
C3804 C3805 1.405 . S
C3804 H3830 0.930 . S
C3805 C3800 1.479 . S
C3805 C3804 1.405 . S
C3805 H3831 0.931 . S
U3806 O3807 2.454 . S
U3806 O3808 2.458 . S
U3806 C3809 2.984 . S
U3806 C3810 2.847 . S
U3806 C3823 2.882 . S
U3806 O3824 2.441 . S
U3806 O3825 2.420 . S
U3806 O3826 2.455 . S
U3806 O3827 2.449 . S
O3807 U3806 2.454 . S
O3807 C3809 1.353 . S
O3808 U3806 2.458 . S
O3808 C3809 1.286 . S
C3809 U3806 2.984 . S
C3809 O3807 1.353 . S
C3809 O3808 1.286 . S
C3809 C3811 1.363 . S
C3810 C3800 1.465 . S
C3810 U3806 2.847 . S
C3810 O3824 1.249 . S
C3810 O3825 1.202 . S
C3811 C3809 1.363 . S
C3811 C3813 1.408 . S
C3811 C3816 1.342 . S
C3812 C3813 1.310 . S
C3812 C3815 1.461 . S
C3812 H3832 0.932 . S
C3813 C3811 1.408 . S
C3813 C3812 1.310 . S
C3813 H3833 0.930 . S
C3814 C3815 1.474 . S
C3814 C3816 1.285 . S
C3814 H3834 0.929 . S
C3815 C3812 1.461 . S
C3815 C3814 1.474 . S
C3816 C3811 1.342 . S
C3816 C3814 1.285 . S
C3816 H3835 0.930 . S
C3817 C3820 1.424 . S
C3817 C3822 1.245 . S
C3817 C3823 1.428 . S
C3818 C3821 1.260 . S
C3818 C3822 1.477 . S
C3818 H3836 0.932 . S
C3819 C3820 1.384 . S
C3819 C3821 1.479 . S
C3819 H3837 0.929 . S
C3820 C3817 1.424 . S
C3820 C3819 1.384 . S
C3820 H3838 0.928 . S
C3821 C3818 1.260 . S
C3821 C3819 1.479 . S
C3822 C3817 1.245 . S
C3822 C3818 1.477 . S
C3822 H3839 0.932 . S
C3823 U3806 2.882 . S
C3823 C3817 1.428 . S
C3823 O3826 1.301 . S
C3823 O3827 1.282 . S
O3824 U3806 2.441 . S
O3824 C3810 1.249 . S
O3825 U3806 2.420 . S
O3825 C3810 1.202 . S
O3826 U3806 2.455 . S
O3826 C3823 1.301 . S
O3827 U3806 2.449 . S
O3827 C3823 1.282 . S
H3828 C3801 0.931 . S
H3829 C3803 0.929 . S
H3830 C3804 0.930 . S
H3831 C3805 0.931 . S
H3832 C3812 0.932 . S
H3833 C3813 0.930 . S
H3834 C3814 0.929 . S
H3835 C3816 0.930 . S
H3836 C3818 0.932 . S
H3837 C3819 0.929 . S
H3838 C3820 0.928 . S
H3839 C3822 0.932 . S
C3840 C3841 1.384 . S
C3840 H3853 0.947 . S
C3840 C3875 1.382 . S
C3841 C3840 1.384 . S
C3841 C3842 1.378 . S
C3842 C3841 1.378 . S
C3842 C3843 1.378 . S
C3842 H3854 0.952 . S
C3843 C3842 1.378 . S
C3843 H3855 0.950 . S
C3843 C3874 1.383 . S
H3844 C3863 0.947 . S
H3845 C3864 0.946 . S
H3846 C3866 0.953 . S
H3847 C3867 0.945 . S
H3848 C3869 0.952 . S
H3849 C3870 0.949 . S
H3850 C3872 0.950 . S
H3851 C3873 0.948 . S
H3852 C3875 0.951 . S
H3853 C3840 0.947 . S
H3854 C3842 0.952 . S
H3855 C3843 0.950 . S
N3856 C3859 1.382 . S
N3856 C3861 1.363 . S
N3857 C3859 1.371 . S
N3857 C3860 1.372 . S
N3858 C3860 1.361 . S
N3858 C3861 1.377 . S
C3859 N3856 1.382 . S
C3859 N3857 1.371 . S
C3859 C3862 1.480 . S
C3860 N3857 1.372 . S
C3860 N3858 1.361 . S
C3860 C3868 1.457 . S
C3861 N3856 1.363 . S
C3861 N3858 1.377 . S
C3861 C3874 1.479 . S
C3862 C3859 1.480 . S
C3862 C3863 1.383 . S
C3862 C3867 1.385 . S
C3863 H3844 0.947 . S
C3863 C3862 1.383 . S
C3863 C3864 1.388 . S
C3864 H3845 0.946 . S
C3864 C3863 1.388 . S
C3864 C3865 1.384 . S
C3865 C3864 1.384 . S
C3865 C3866 1.377 . S
C3866 H3846 0.953 . S
C3866 C3865 1.377 . S
C3866 C3867 1.369 . S
C3867 H3847 0.945 . S
C3867 C3862 1.385 . S
C3867 C3866 1.369 . S
C3868 C3860 1.457 . S
C3868 C3869 1.372 . S
C3868 C3873 1.364 . S
C3869 H3848 0.952 . S
C3869 C3868 1.372 . S
C3869 C3870 1.389 . S
C3870 H3849 0.949 . S
C3870 C3869 1.389 . S
C3870 C3871 1.387 . S
C3871 C3870 1.387 . S
C3871 C3872 1.372 . S
C3872 H3850 0.950 . S
C3872 C3871 1.372 . S
C3872 C3873 1.379 . S
C3873 H3851 0.948 . S
C3873 C3868 1.364 . S
C3873 C3872 1.379 . S
C3874 C3843 1.383 . S
C3874 C3861 1.479 . S
C3874 C3875 1.398 . S
C3875 C3840 1.382 . S
C3875 H3852 0.951 . S
C3875 C3874 1.398 . S
C3876 C3877 1.384 . S
C3876 H3889 0.947 . S
C3876 C3911 1.382 . S
C3877 C3876 1.384 . S
C3877 C3878 1.378 . S
C3878 C3877 1.378 . S
C3878 C3879 1.378 . S
C3878 H3890 0.952 . S
C3879 C3878 1.378 . S
C3879 H3891 0.950 . S
C3879 C3910 1.383 . S
H3880 C3899 0.947 . S
H3881 C3900 0.946 . S
H3882 C3902 0.953 . S
H3883 C3903 0.945 . S
H3884 C3905 0.952 . S
H3885 C3906 0.949 . S
H3886 C3908 0.950 . S
H3887 C3909 0.948 . S
H3888 C3911 0.951 . S
H3889 C3876 0.947 . S
H3890 C3878 0.952 . S
H3891 C3879 0.950 . S
N3892 C3895 1.382 . S
N3892 C3897 1.363 . S
N3893 C3895 1.371 . S
N3893 C3896 1.372 . S
N3894 C3896 1.361 . S
N3894 C3897 1.377 . S
C3895 N3892 1.382 . S
C3895 N3893 1.371 . S
C3895 C3898 1.480 . S
C3896 N3893 1.372 . S
C3896 N3894 1.361 . S
C3896 C3904 1.457 . S
C3897 N3892 1.363 . S
C3897 N3894 1.377 . S
C3897 C3910 1.479 . S
C3898 C3895 1.480 . S
C3898 C3899 1.383 . S
C3898 C3903 1.385 . S
C3899 H3880 0.947 . S
C3899 C3898 1.383 . S
C3899 C3900 1.388 . S
C3900 H3881 0.946 . S
C3900 C3899 1.388 . S
C3900 C3901 1.384 . S
C3901 C3900 1.384 . S
C3901 C3902 1.377 . S
C3902 H3882 0.953 . S
C3902 C3901 1.377 . S
C3902 C3903 1.369 . S
C3903 H3883 0.945 . S
C3903 C3898 1.385 . S
C3903 C3902 1.369 . S
C3904 C3896 1.457 . S
C3904 C3905 1.372 . S
C3904 C3909 1.364 . S
C3905 H3884 0.952 . S
C3905 C3904 1.372 . S
C3905 C3906 1.389 . S
C3906 H3885 0.949 . S
C3906 C3905 1.389 . S
C3906 C3907 1.387 . S
C3907 C3906 1.387 . S
C3907 C3908 1.372 . S
C3908 H3886 0.950 . S
C3908 C3907 1.372 . S
C3908 C3909 1.379 . S
C3909 H3887 0.948 . S
C3909 C3904 1.364 . S
C3909 C3908 1.379 . S
C3910 C3879 1.383 . S
C3910 C3897 1.479 . S
C3910 C3911 1.398 . S
C3911 C3876 1.382 . S
C3911 H3888 0.951 . S
C3911 C3910 1.398 . S
C3912 C3913 1.384 . S
C3912 H3925 0.947 . S
C3912 C3947 1.382 . S
C3913 C3912 1.384 . S
C3913 C3914 1.378 . S
C3914 C3913 1.378 . S
C3914 C3915 1.378 . S
C3914 H3926 0.952 . S
C3915 C3914 1.378 . S
C3915 H3927 0.950 . S
C3915 C3946 1.383 . S
H3916 C3935 0.947 . S
H3917 C3936 0.946 . S
H3918 C3938 0.953 . S
H3919 C3939 0.945 . S
H3920 C3941 0.952 . S
H3921 C3942 0.949 . S
H3922 C3944 0.950 . S
H3923 C3945 0.948 . S
H3924 C3947 0.951 . S
H3925 C3912 0.947 . S
H3926 C3914 0.952 . S
H3927 C3915 0.950 . S
N3928 C3931 1.382 . S
N3928 C3933 1.363 . S
N3929 C3931 1.371 . S
N3929 C3932 1.372 . S
N3930 C3932 1.361 . S
N3930 C3933 1.377 . S
C3931 N3928 1.382 . S
C3931 N3929 1.371 . S
C3931 C3934 1.480 . S
C3932 N3929 1.372 . S
C3932 N3930 1.361 . S
C3932 C3940 1.457 . S
C3933 N3928 1.363 . S
C3933 N3930 1.377 . S
C3933 C3946 1.479 . S
C3934 C3931 1.480 . S
C3934 C3935 1.383 . S
C3934 C3939 1.385 . S
C3935 H3916 0.947 . S
C3935 C3934 1.383 . S
C3935 C3936 1.388 . S
C3936 H3917 0.946 . S
C3936 C3935 1.388 . S
C3936 C3937 1.384 . S
C3937 C3936 1.384 . S
C3937 C3938 1.377 . S
C3938 H3918 0.953 . S
C3938 C3937 1.377 . S
C3938 C3939 1.369 . S
C3939 H3919 0.945 . S
C3939 C3934 1.385 . S
C3939 C3938 1.369 . S
C3940 C3932 1.457 . S
C3940 C3941 1.372 . S
C3940 C3945 1.364 . S
C3941 H3920 0.952 . S
C3941 C3940 1.372 . S
C3941 C3942 1.389 . S
C3942 H3921 0.949 . S
C3942 C3941 1.389 . S
C3942 C3943 1.387 . S
C3943 C3942 1.387 . S
C3943 C3944 1.372 . S
C3944 H3922 0.950 . S
C3944 C3943 1.372 . S
C3944 C3945 1.379 . S
C3945 H3923 0.948 . S
C3945 C3940 1.364 . S
C3945 C3944 1.379 . S
C3946 C3915 1.383 . S
C3946 C3933 1.479 . S
C3946 C3947 1.398 . S
C3947 C3912 1.382 . S
C3947 H3924 0.951 . S
C3947 C3946 1.398 . S
C3948 C3949 1.384 . S
C3948 H3961 0.947 . S
C3948 C3983 1.382 . S
C3949 C3948 1.384 . S
C3949 C3950 1.378 . S
C3950 C3949 1.378 . S
C3950 C3951 1.378 . S
C3950 H3962 0.952 . S
C3951 C3950 1.378 . S
C3951 H3963 0.950 . S
C3951 C3982 1.383 . S
H3952 C3971 0.947 . S
H3953 C3972 0.946 . S
H3954 C3974 0.953 . S
H3955 C3975 0.945 . S
H3956 C3977 0.952 . S
H3957 C3978 0.949 . S
H3958 C3980 0.950 . S
H3959 C3981 0.948 . S
H3960 C3983 0.951 . S
H3961 C3948 0.947 . S
H3962 C3950 0.952 . S
H3963 C3951 0.950 . S
N3964 C3967 1.382 . S
N3964 C3969 1.363 . S
N3965 C3967 1.371 . S
N3965 C3968 1.372 . S
N3966 C3968 1.361 . S
N3966 C3969 1.377 . S
C3967 N3964 1.382 . S
C3967 N3965 1.371 . S
C3967 C3970 1.480 . S
C3968 N3965 1.372 . S
C3968 N3966 1.361 . S
C3968 C3976 1.457 . S
C3969 N3964 1.363 . S
C3969 N3966 1.377 . S
C3969 C3982 1.479 . S
C3970 C3967 1.480 . S
C3970 C3971 1.383 . S
C3970 C3975 1.385 . S
C3971 H3952 0.947 . S
C3971 C3970 1.383 . S
C3971 C3972 1.388 . S
C3972 H3953 0.946 . S
C3972 C3971 1.388 . S
C3972 C3973 1.384 . S
C3973 C3972 1.384 . S
C3973 C3974 1.377 . S
C3974 H3954 0.953 . S
C3974 C3973 1.377 . S
C3974 C3975 1.369 . S
C3975 H3955 0.945 . S
C3975 C3970 1.385 . S
C3975 C3974 1.369 . S
C3976 C3968 1.457 . S
C3976 C3977 1.372 . S
C3976 C3981 1.364 . S
C3977 H3956 0.952 . S
C3977 C3976 1.372 . S
C3977 C3978 1.389 . S
C3978 H3957 0.949 . S
C3978 C3977 1.389 . S
C3978 C3979 1.387 . S
C3979 C3978 1.387 . S
C3979 C3980 1.372 . S
C3980 H3958 0.950 . S
C3980 C3979 1.372 . S
C3980 C3981 1.379 . S
C3981 H3959 0.948 . S
C3981 C3976 1.364 . S
C3981 C3980 1.379 . S
C3982 C3951 1.383 . S
C3982 C3969 1.479 . S
C3982 C3983 1.398 . S
C3983 C3948 1.382 . S
C3983 H3960 0.951 . S
C3983 C3982 1.398 . S
C3984 C3985 1.384 . S
C3984 H3997 0.947 . S
C3984 C4019 1.382 . S
C3985 C3984 1.384 . S
C3985 C3986 1.378 . S
C3986 C3985 1.378 . S
C3986 C3987 1.378 . S
C3986 H3998 0.952 . S
C3987 C3986 1.378 . S
C3987 H3999 0.950 . S
C3987 C4018 1.383 . S
H3988 C4007 0.947 . S
H3989 C4008 0.946 . S
H3990 C4010 0.953 . S
H3991 C4011 0.945 . S
H3992 C4013 0.952 . S
H3993 C4014 0.949 . S
H3994 C4016 0.950 . S
H3995 C4017 0.948 . S
H3996 C4019 0.951 . S
H3997 C3984 0.947 . S
H3998 C3986 0.952 . S
H3999 C3987 0.950 . S
N4000 C4003 1.382 . S
N4000 C4005 1.363 . S
N4001 C4003 1.371 . S
N4001 C4004 1.372 . S
N4002 C4004 1.361 . S
N4002 C4005 1.377 . S
C4003 N4000 1.382 . S
C4003 N4001 1.371 . S
C4003 C4006 1.480 . S
C4004 N4001 1.372 . S
C4004 N4002 1.361 . S
C4004 C4012 1.457 . S
C4005 N4000 1.363 . S
C4005 N4002 1.377 . S
C4005 C4018 1.479 . S
C4006 C4003 1.480 . S
C4006 C4007 1.383 . S
C4006 C4011 1.385 . S
C4007 H3988 0.947 . S
C4007 C4006 1.383 . S
C4007 C4008 1.388 . S
C4008 H3989 0.946 . S
C4008 C4007 1.388 . S
C4008 C4009 1.384 . S
C4009 C4008 1.384 . S
C4009 C4010 1.377 . S
C4010 H3990 0.953 . S
C4010 C4009 1.377 . S
C4010 C4011 1.369 . S
C4011 H3991 0.945 . S
C4011 C4006 1.385 . S
C4011 C4010 1.369 . S
C4012 C4004 1.457 . S
C4012 C4013 1.372 . S
C4012 C4017 1.364 . S
C4013 H3992 0.952 . S
C4013 C4012 1.372 . S
C4013 C4014 1.389 . S
C4014 H3993 0.949 . S
C4014 C4013 1.389 . S
C4014 C4015 1.387 . S
C4015 C4014 1.387 . S
C4015 C4016 1.372 . S
C4016 H3994 0.950 . S
C4016 C4015 1.372 . S
C4016 C4017 1.379 . S
C4017 H3995 0.948 . S
C4017 C4012 1.364 . S
C4017 C4016 1.379 . S
C4018 C3987 1.383 . S
C4018 C4005 1.479 . S
C4018 C4019 1.398 . S
C4019 C3984 1.382 . S
C4019 H3996 0.951 . S
C4019 C4018 1.398 . S
C4020 C4021 1.384 . S
C4020 H4033 0.947 . S
C4020 C4055 1.382 . S
C4021 C4020 1.384 . S
C4021 C4022 1.378 . S
C4022 C4021 1.378 . S
C4022 C4023 1.378 . S
C4022 H4034 0.952 . S
C4023 C4022 1.378 . S
C4023 H4035 0.950 . S
C4023 C4054 1.383 . S
H4024 C4043 0.947 . S
H4025 C4044 0.946 . S
H4026 C4046 0.953 . S
H4027 C4047 0.945 . S
H4028 C4049 0.952 . S
H4029 C4050 0.949 . S
H4030 C4052 0.950 . S
H4031 C4053 0.948 . S
H4032 C4055 0.951 . S
H4033 C4020 0.947 . S
H4034 C4022 0.952 . S
H4035 C4023 0.950 . S
N4036 C4039 1.382 . S
N4036 C4041 1.363 . S
N4037 C4039 1.371 . S
N4037 C4040 1.372 . S
N4038 C4040 1.361 . S
N4038 C4041 1.377 . S
C4039 N4036 1.382 . S
C4039 N4037 1.371 . S
C4039 C4042 1.480 . S
C4040 N4037 1.372 . S
C4040 N4038 1.361 . S
C4040 C4048 1.457 . S
C4041 N4036 1.363 . S
C4041 N4038 1.377 . S
C4041 C4054 1.479 . S
C4042 C4039 1.480 . S
C4042 C4043 1.383 . S
C4042 C4047 1.385 . S
C4043 H4024 0.947 . S
C4043 C4042 1.383 . S
C4043 C4044 1.388 . S
C4044 H4025 0.946 . S
C4044 C4043 1.388 . S
C4044 C4045 1.384 . S
C4045 C4044 1.384 . S
C4045 C4046 1.377 . S
C4046 H4026 0.953 . S
C4046 C4045 1.377 . S
C4046 C4047 1.369 . S
C4047 H4027 0.945 . S
C4047 C4042 1.385 . S
C4047 C4046 1.369 . S
C4048 C4040 1.457 . S
C4048 C4049 1.372 . S
C4048 C4053 1.364 . S
C4049 H4028 0.952 . S
C4049 C4048 1.372 . S
C4049 C4050 1.389 . S
C4050 H4029 0.949 . S
C4050 C4049 1.389 . S
C4050 C4051 1.387 . S
C4051 C4050 1.387 . S
C4051 C4052 1.372 . S
C4052 H4030 0.950 . S
C4052 C4051 1.372 . S
C4052 C4053 1.379 . S
C4053 H4031 0.948 . S
C4053 C4048 1.364 . S
C4053 C4052 1.379 . S
C4054 C4023 1.383 . S
C4054 C4041 1.479 . S
C4054 C4055 1.398 . S
C4055 C4020 1.382 . S
C4055 H4032 0.951 . S
C4055 C4054 1.398 . S
C4056 C4057 1.384 . S
C4056 H4069 0.947 . S
C4056 C4091 1.382 . S
C4057 C4056 1.384 . S
C4057 C4058 1.378 . S
C4058 C4057 1.378 . S
C4058 C4059 1.378 . S
C4058 H4070 0.952 . S
C4059 C4058 1.378 . S
C4059 H4071 0.950 . S
C4059 C4090 1.383 . S
H4060 C4079 0.947 . S
H4061 C4080 0.946 . S
H4062 C4082 0.953 . S
H4063 C4083 0.945 . S
H4064 C4085 0.952 . S
H4065 C4086 0.949 . S
H4066 C4088 0.950 . S
H4067 C4089 0.948 . S
H4068 C4091 0.951 . S
H4069 C4056 0.947 . S
H4070 C4058 0.952 . S
H4071 C4059 0.950 . S
N4072 C4075 1.382 . S
N4072 C4077 1.363 . S
N4073 C4075 1.371 . S
N4073 C4076 1.372 . S
N4074 C4076 1.361 . S
N4074 C4077 1.377 . S
C4075 N4072 1.382 . S
C4075 N4073 1.371 . S
C4075 C4078 1.480 . S
C4076 N4073 1.372 . S
C4076 N4074 1.361 . S
C4076 C4084 1.457 . S
C4077 N4072 1.363 . S
C4077 N4074 1.377 . S
C4077 C4090 1.479 . S
C4078 C4075 1.480 . S
C4078 C4079 1.383 . S
C4078 C4083 1.385 . S
C4079 H4060 0.947 . S
C4079 C4078 1.383 . S
C4079 C4080 1.388 . S
C4080 H4061 0.946 . S
C4080 C4079 1.388 . S
C4080 C4081 1.384 . S
C4081 C4080 1.384 . S
C4081 C4082 1.377 . S
C4082 H4062 0.953 . S
C4082 C4081 1.377 . S
C4082 C4083 1.369 . S
C4083 H4063 0.945 . S
C4083 C4078 1.385 . S
C4083 C4082 1.369 . S
C4084 C4076 1.457 . S
C4084 C4085 1.372 . S
C4084 C4089 1.364 . S
C4085 H4064 0.952 . S
C4085 C4084 1.372 . S
C4085 C4086 1.389 . S
C4086 H4065 0.949 . S
C4086 C4085 1.389 . S
C4086 C4087 1.387 . S
C4087 C4086 1.387 . S
C4087 C4088 1.372 . S
C4088 H4066 0.950 . S
C4088 C4087 1.372 . S
C4088 C4089 1.379 . S
C4089 H4067 0.948 . S
C4089 C4084 1.364 . S
C4089 C4088 1.379 . S
C4090 C4059 1.383 . S
C4090 C4077 1.479 . S
C4090 C4091 1.398 . S
C4091 C4056 1.382 . S
C4091 H4068 0.951 . S
C4091 C4090 1.398 . S
C4092 C4093 1.384 . S
C4092 H4105 0.947 . S
C4092 C4127 1.382 . S
C4093 C4092 1.384 . S
C4093 C4094 1.378 . S
C4094 C4093 1.378 . S
C4094 C4095 1.378 . S
C4094 H4106 0.952 . S
C4095 C4094 1.378 . S
C4095 H4107 0.950 . S
C4095 C4126 1.383 . S
H4096 C4115 0.947 . S
H4097 C4116 0.946 . S
H4098 C4118 0.953 . S
H4099 C4119 0.945 . S
H4100 C4121 0.952 . S
H4101 C4122 0.949 . S
H4102 C4124 0.950 . S
H4103 C4125 0.948 . S
H4104 C4127 0.951 . S
H4105 C4092 0.947 . S
H4106 C4094 0.952 . S
H4107 C4095 0.950 . S
N4108 C4111 1.382 . S
N4108 C4113 1.363 . S
N4109 C4111 1.371 . S
N4109 C4112 1.372 . S
N4110 C4112 1.361 . S
N4110 C4113 1.377 . S
C4111 N4108 1.382 . S
C4111 N4109 1.371 . S
C4111 C4114 1.480 . S
C4112 N4109 1.372 . S
C4112 N4110 1.361 . S
C4112 C4120 1.457 . S
C4113 N4108 1.363 . S
C4113 N4110 1.377 . S
C4113 C4126 1.479 . S
C4114 C4111 1.480 . S
C4114 C4115 1.383 . S
C4114 C4119 1.385 . S
C4115 H4096 0.947 . S
C4115 C4114 1.383 . S
C4115 C4116 1.388 . S
C4116 H4097 0.946 . S
C4116 C4115 1.388 . S
C4116 C4117 1.384 . S
C4117 C4116 1.384 . S
C4117 C4118 1.377 . S
C4118 H4098 0.953 . S
C4118 C4117 1.377 . S
C4118 C4119 1.369 . S
C4119 H4099 0.945 . S
C4119 C4114 1.385 . S
C4119 C4118 1.369 . S
C4120 C4112 1.457 . S
C4120 C4121 1.372 . S
C4120 C4125 1.364 . S
C4121 H4100 0.952 . S
C4121 C4120 1.372 . S
C4121 C4122 1.389 . S
C4122 H4101 0.949 . S
C4122 C4121 1.389 . S
C4122 C4123 1.387 . S
C4123 C4122 1.387 . S
C4123 C4124 1.372 . S
C4124 H4102 0.950 . S
C4124 C4123 1.372 . S
C4124 C4125 1.379 . S
C4125 H4103 0.948 . S
C4125 C4120 1.364 . S
C4125 C4124 1.379 . S
C4126 C4095 1.383 . S
C4126 C4113 1.479 . S
C4126 C4127 1.398 . S
C4127 C4092 1.382 . S
C4127 H4104 0.951 . S
C4127 C4126 1.398 . S
C4128 C4129 1.384 . S
C4128 H4141 0.947 . S
C4128 C4163 1.382 . S
C4129 C4128 1.384 . S
C4129 C4130 1.378 . S
C4130 C4129 1.378 . S
C4130 C4131 1.378 . S
C4130 H4142 0.952 . S
C4131 C4130 1.378 . S
C4131 H4143 0.950 . S
C4131 C4162 1.383 . S
H4132 C4151 0.947 . S
H4133 C4152 0.946 . S
H4134 C4154 0.953 . S
H4135 C4155 0.945 . S
H4136 C4157 0.952 . S
H4137 C4158 0.949 . S
H4138 C4160 0.950 . S
H4139 C4161 0.948 . S
H4140 C4163 0.951 . S
H4141 C4128 0.947 . S
H4142 C4130 0.952 . S
H4143 C4131 0.950 . S
N4144 C4147 1.382 . S
N4144 C4149 1.363 . S
N4145 C4147 1.371 . S
N4145 C4148 1.372 . S
N4146 C4148 1.361 . S
N4146 C4149 1.377 . S
C4147 N4144 1.382 . S
C4147 N4145 1.371 . S
C4147 C4150 1.480 . S
C4148 N4145 1.372 . S
C4148 N4146 1.361 . S
C4148 C4156 1.457 . S
C4149 N4144 1.363 . S
C4149 N4146 1.377 . S
C4149 C4162 1.479 . S
C4150 C4147 1.480 . S
C4150 C4151 1.383 . S
C4150 C4155 1.385 . S
C4151 H4132 0.947 . S
C4151 C4150 1.383 . S
C4151 C4152 1.388 . S
C4152 H4133 0.946 . S
C4152 C4151 1.388 . S
C4152 C4153 1.384 . S
C4153 C4152 1.384 . S
C4153 C4154 1.377 . S
C4154 H4134 0.953 . S
C4154 C4153 1.377 . S
C4154 C4155 1.369 . S
C4155 H4135 0.945 . S
C4155 C4150 1.385 . S
C4155 C4154 1.369 . S
C4156 C4148 1.457 . S
C4156 C4157 1.372 . S
C4156 C4161 1.364 . S
C4157 H4136 0.952 . S
C4157 C4156 1.372 . S
C4157 C4158 1.389 . S
C4158 H4137 0.949 . S
C4158 C4157 1.389 . S
C4158 C4159 1.387 . S
C4159 C4158 1.387 . S
C4159 C4160 1.372 . S
C4160 H4138 0.950 . S
C4160 C4159 1.372 . S
C4160 C4161 1.379 . S
C4161 H4139 0.948 . S
C4161 C4156 1.364 . S
C4161 C4160 1.379 . S
C4162 C4131 1.383 . S
C4162 C4149 1.479 . S
C4162 C4163 1.398 . S
C4163 C4128 1.382 . S
C4163 H4140 0.951 . S
C4163 C4162 1.398 . S
C4164 C4165 1.384 . S
C4164 H4177 0.947 . S
C4164 C4199 1.382 . S
C4165 C4164 1.384 . S
C4165 C4166 1.378 . S
C4166 C4165 1.378 . S
C4166 C4167 1.378 . S
C4166 H4178 0.952 . S
C4167 C4166 1.378 . S
C4167 H4179 0.950 . S
C4167 C4198 1.383 . S
H4168 C4187 0.947 . S
H4169 C4188 0.946 . S
H4170 C4190 0.953 . S
H4171 C4191 0.945 . S
H4172 C4193 0.952 . S
H4173 C4194 0.949 . S
H4174 C4196 0.950 . S
H4175 C4197 0.948 . S
H4176 C4199 0.951 . S
H4177 C4164 0.947 . S
H4178 C4166 0.952 . S
H4179 C4167 0.950 . S
N4180 C4183 1.382 . S
N4180 C4185 1.363 . S
N4181 C4183 1.371 . S
N4181 C4184 1.372 . S
N4182 C4184 1.361 . S
N4182 C4185 1.377 . S
C4183 N4180 1.382 . S
C4183 N4181 1.371 . S
C4183 C4186 1.480 . S
C4184 N4181 1.372 . S
C4184 N4182 1.361 . S
C4184 C4192 1.457 . S
C4185 N4180 1.363 . S
C4185 N4182 1.377 . S
C4185 C4198 1.479 . S
C4186 C4183 1.480 . S
C4186 C4187 1.383 . S
C4186 C4191 1.385 . S
C4187 H4168 0.947 . S
C4187 C4186 1.383 . S
C4187 C4188 1.388 . S
C4188 H4169 0.946 . S
C4188 C4187 1.388 . S
C4188 C4189 1.384 . S
C4189 C4188 1.384 . S
C4189 C4190 1.377 . S
C4190 H4170 0.953 . S
C4190 C4189 1.377 . S
C4190 C4191 1.369 . S
C4191 H4171 0.945 . S
C4191 C4186 1.385 . S
C4191 C4190 1.369 . S
C4192 C4184 1.457 . S
C4192 C4193 1.372 . S
C4192 C4197 1.364 . S
C4193 H4172 0.952 . S
C4193 C4192 1.372 . S
C4193 C4194 1.389 . S
C4194 H4173 0.949 . S
C4194 C4193 1.389 . S
C4194 C4195 1.387 . S
C4195 C4194 1.387 . S
C4195 C4196 1.372 . S
C4196 H4174 0.950 . S
C4196 C4195 1.372 . S
C4196 C4197 1.379 . S
C4197 H4175 0.948 . S
C4197 C4192 1.364 . S
C4197 C4196 1.379 . S
C4198 C4167 1.383 . S
C4198 C4185 1.479 . S
C4198 C4199 1.398 . S
C4199 C4164 1.382 . S
C4199 H4176 0.951 . S
C4199 C4198 1.398 . S
C4200 C4201 1.384 . S
C4200 H4213 0.947 . S
C4200 C4235 1.382 . S
C4201 C4200 1.384 . S
C4201 C4202 1.378 . S
C4202 C4201 1.378 . S
C4202 C4203 1.378 . S
C4202 H4214 0.952 . S
C4203 C4202 1.378 . S
C4203 H4215 0.950 . S
C4203 C4234 1.383 . S
H4204 C4223 0.947 . S
H4205 C4224 0.946 . S
H4206 C4226 0.953 . S
H4207 C4227 0.945 . S
H4208 C4229 0.952 . S
H4209 C4230 0.949 . S
H4210 C4232 0.950 . S
H4211 C4233 0.948 . S
H4212 C4235 0.951 . S
H4213 C4200 0.947 . S
H4214 C4202 0.952 . S
H4215 C4203 0.950 . S
N4216 C4219 1.382 . S
N4216 C4221 1.363 . S
N4217 C4219 1.371 . S
N4217 C4220 1.372 . S
N4218 C4220 1.361 . S
N4218 C4221 1.377 . S
C4219 N4216 1.382 . S
C4219 N4217 1.371 . S
C4219 C4222 1.480 . S
C4220 N4217 1.372 . S
C4220 N4218 1.361 . S
C4220 C4228 1.457 . S
C4221 N4216 1.363 . S
C4221 N4218 1.377 . S
C4221 C4234 1.479 . S
C4222 C4219 1.480 . S
C4222 C4223 1.383 . S
C4222 C4227 1.385 . S
C4223 H4204 0.947 . S
C4223 C4222 1.383 . S
C4223 C4224 1.388 . S
C4224 H4205 0.946 . S
C4224 C4223 1.388 . S
C4224 C4225 1.384 . S
C4225 C4224 1.384 . S
C4225 C4226 1.377 . S
C4226 H4206 0.953 . S
C4226 C4225 1.377 . S
C4226 C4227 1.369 . S
C4227 H4207 0.945 . S
C4227 C4222 1.385 . S
C4227 C4226 1.369 . S
C4228 C4220 1.457 . S
C4228 C4229 1.372 . S
C4228 C4233 1.364 . S
C4229 H4208 0.952 . S
C4229 C4228 1.372 . S
C4229 C4230 1.389 . S
C4230 H4209 0.949 . S
C4230 C4229 1.389 . S
C4230 C4231 1.387 . S
C4231 C4230 1.387 . S
C4231 C4232 1.372 . S
C4232 H4210 0.950 . S
C4232 C4231 1.372 . S
C4232 C4233 1.379 . S
C4233 H4211 0.948 . S
C4233 C4228 1.364 . S
C4233 C4232 1.379 . S
C4234 C4203 1.383 . S
C4234 C4221 1.479 . S
C4234 C4235 1.398 . S
C4235 C4200 1.382 . S
C4235 H4212 0.951 . S
C4235 C4234 1.398 . S
C4236 C4237 1.384 . S
C4236 H4249 0.947 . S
C4236 C4271 1.382 . S
C4237 C4236 1.384 . S
C4237 C4238 1.378 . S
C4238 C4237 1.378 . S
C4238 C4239 1.378 . S
C4238 H4250 0.952 . S
C4239 C4238 1.378 . S
C4239 H4251 0.950 . S
C4239 C4270 1.383 . S
H4240 C4259 0.947 . S
H4241 C4260 0.946 . S
H4242 C4262 0.953 . S
H4243 C4263 0.945 . S
H4244 C4265 0.952 . S
H4245 C4266 0.949 . S
H4246 C4268 0.950 . S
H4247 C4269 0.948 . S
H4248 C4271 0.951 . S
H4249 C4236 0.947 . S
H4250 C4238 0.952 . S
H4251 C4239 0.950 . S
N4252 C4255 1.382 . S
N4252 C4257 1.363 . S
N4253 C4255 1.371 . S
N4253 C4256 1.372 . S
N4254 C4256 1.361 . S
N4254 C4257 1.377 . S
C4255 N4252 1.382 . S
C4255 N4253 1.371 . S
C4255 C4258 1.480 . S
C4256 N4253 1.372 . S
C4256 N4254 1.361 . S
C4256 C4264 1.457 . S
C4257 N4252 1.363 . S
C4257 N4254 1.377 . S
C4257 C4270 1.479 . S
C4258 C4255 1.480 . S
C4258 C4259 1.383 . S
C4258 C4263 1.385 . S
C4259 H4240 0.947 . S
C4259 C4258 1.383 . S
C4259 C4260 1.388 . S
C4260 H4241 0.946 . S
C4260 C4259 1.388 . S
C4260 C4261 1.384 . S
C4261 C4260 1.384 . S
C4261 C4262 1.377 . S
C4262 H4242 0.953 . S
C4262 C4261 1.377 . S
C4262 C4263 1.369 . S
C4263 H4243 0.945 . S
C4263 C4258 1.385 . S
C4263 C4262 1.369 . S
C4264 C4256 1.457 . S
C4264 C4265 1.372 . S
C4264 C4269 1.364 . S
C4265 H4244 0.952 . S
C4265 C4264 1.372 . S
C4265 C4266 1.389 . S
C4266 H4245 0.949 . S
C4266 C4265 1.389 . S
C4266 C4267 1.387 . S
C4267 C4266 1.387 . S
C4267 C4268 1.372 . S
C4268 H4246 0.950 . S
C4268 C4267 1.372 . S
C4268 C4269 1.379 . S
C4269 H4247 0.948 . S
C4269 C4264 1.364 . S
C4269 C4268 1.379 . S
C4270 C4239 1.383 . S
C4270 C4257 1.479 . S
C4270 C4271 1.398 . S
C4271 C4236 1.382 . S
C4271 H4248 0.951 . S
C4271 C4270 1.398 . S
C4272 C4273 1.384 . S
C4272 H4285 0.947 . S
C4272 C4307 1.382 . S
C4273 C4272 1.384 . S
C4273 C4274 1.378 . S
C4274 C4273 1.378 . S
C4274 C4275 1.378 . S
C4274 H4286 0.952 . S
C4275 C4274 1.378 . S
C4275 H4287 0.950 . S
C4275 C4306 1.383 . S
H4276 C4295 0.947 . S
H4277 C4296 0.946 . S
H4278 C4298 0.953 . S
H4279 C4299 0.945 . S
H4280 C4301 0.952 . S
H4281 C4302 0.949 . S
H4282 C4304 0.950 . S
H4283 C4305 0.948 . S
H4284 C4307 0.951 . S
H4285 C4272 0.947 . S
H4286 C4274 0.952 . S
H4287 C4275 0.950 . S
N4288 C4291 1.382 . S
N4288 C4293 1.363 . S
N4289 C4291 1.371 . S
N4289 C4292 1.372 . S
N4290 C4292 1.361 . S
N4290 C4293 1.377 . S
C4291 N4288 1.382 . S
C4291 N4289 1.371 . S
C4291 C4294 1.480 . S
C4292 N4289 1.372 . S
C4292 N4290 1.361 . S
C4292 C4300 1.457 . S
C4293 N4288 1.363 . S
C4293 N4290 1.377 . S
C4293 C4306 1.479 . S
C4294 C4291 1.480 . S
C4294 C4295 1.383 . S
C4294 C4299 1.385 . S
C4295 H4276 0.947 . S
C4295 C4294 1.383 . S
C4295 C4296 1.388 . S
C4296 H4277 0.946 . S
C4296 C4295 1.388 . S
C4296 C4297 1.384 . S
C4297 C4296 1.384 . S
C4297 C4298 1.377 . S
C4298 H4278 0.953 . S
C4298 C4297 1.377 . S
C4298 C4299 1.369 . S
C4299 H4279 0.945 . S
C4299 C4294 1.385 . S
C4299 C4298 1.369 . S
C4300 C4292 1.457 . S
C4300 C4301 1.372 . S
C4300 C4305 1.364 . S
C4301 H4280 0.952 . S
C4301 C4300 1.372 . S
C4301 C4302 1.389 . S
C4302 H4281 0.949 . S
C4302 C4301 1.389 . S
C4302 C4303 1.387 . S
C4303 C4302 1.387 . S
C4303 C4304 1.372 . S
C4304 H4282 0.950 . S
C4304 C4303 1.372 . S
C4304 C4305 1.379 . S
C4305 H4283 0.948 . S
C4305 C4300 1.364 . S
C4305 C4304 1.379 . S
C4306 C4275 1.383 . S
C4306 C4293 1.479 . S
C4306 C4307 1.398 . S
C4307 C4272 1.382 . S
C4307 H4284 0.951 . S
C4307 C4306 1.398 . S
C4308 C4309 1.384 . S
C4308 H4321 0.947 . S
C4308 C4343 1.382 . S
C4309 C4308 1.384 . S
C4309 C4310 1.378 . S
C4310 C4309 1.378 . S
C4310 C4311 1.378 . S
C4310 H4322 0.952 . S
C4311 C4310 1.378 . S
C4311 H4323 0.950 . S
C4311 C4342 1.383 . S
H4312 C4331 0.947 . S
H4313 C4332 0.946 . S
H4314 C4334 0.953 . S
H4315 C4335 0.945 . S
H4316 C4337 0.952 . S
H4317 C4338 0.949 . S
H4318 C4340 0.950 . S
H4319 C4341 0.948 . S
H4320 C4343 0.951 . S
H4321 C4308 0.947 . S
H4322 C4310 0.952 . S
H4323 C4311 0.950 . S
N4324 C4327 1.382 . S
N4324 C4329 1.363 . S
N4325 C4327 1.371 . S
N4325 C4328 1.372 . S
N4326 C4328 1.361 . S
N4326 C4329 1.377 . S
C4327 N4324 1.382 . S
C4327 N4325 1.371 . S
C4327 C4330 1.480 . S
C4328 N4325 1.372 . S
C4328 N4326 1.361 . S
C4328 C4336 1.457 . S
C4329 N4324 1.363 . S
C4329 N4326 1.377 . S
C4329 C4342 1.479 . S
C4330 C4327 1.480 . S
C4330 C4331 1.383 . S
C4330 C4335 1.385 . S
C4331 H4312 0.947 . S
C4331 C4330 1.383 . S
C4331 C4332 1.388 . S
C4332 H4313 0.946 . S
C4332 C4331 1.388 . S
C4332 C4333 1.384 . S
C4333 C4332 1.384 . S
C4333 C4334 1.377 . S
C4334 H4314 0.953 . S
C4334 C4333 1.377 . S
C4334 C4335 1.369 . S
C4335 H4315 0.945 . S
C4335 C4330 1.385 . S
C4335 C4334 1.369 . S
C4336 C4328 1.457 . S
C4336 C4337 1.372 . S
C4336 C4341 1.364 . S
C4337 H4316 0.952 . S
C4337 C4336 1.372 . S
C4337 C4338 1.389 . S
C4338 H4317 0.949 . S
C4338 C4337 1.389 . S
C4338 C4339 1.387 . S
C4339 C4338 1.387 . S
C4339 C4340 1.372 . S
C4340 H4318 0.950 . S
C4340 C4339 1.372 . S
C4340 C4341 1.379 . S
C4341 H4319 0.948 . S
C4341 C4336 1.364 . S
C4341 C4340 1.379 . S
C4342 C4311 1.383 . S
C4342 C4329 1.479 . S
C4342 C4343 1.398 . S
C4343 C4308 1.382 . S
C4343 H4320 0.951 . S
C4343 C4342 1.398 . S
C4344 C4345 1.384 . S
C4344 H4357 0.947 . S
C4344 C4379 1.382 . S
C4345 C4344 1.384 . S
C4345 C4346 1.378 . S
C4346 C4345 1.378 . S
C4346 C4347 1.378 . S
C4346 H4358 0.952 . S
C4347 C4346 1.378 . S
C4347 H4359 0.950 . S
C4347 C4378 1.383 . S
H4348 C4367 0.947 . S
H4349 C4368 0.946 . S
H4350 C4370 0.953 . S
H4351 C4371 0.945 . S
H4352 C4373 0.952 . S
H4353 C4374 0.949 . S
H4354 C4376 0.950 . S
H4355 C4377 0.948 . S
H4356 C4379 0.951 . S
H4357 C4344 0.947 . S
H4358 C4346 0.952 . S
H4359 C4347 0.950 . S
N4360 C4363 1.382 . S
N4360 C4365 1.363 . S
N4361 C4363 1.371 . S
N4361 C4364 1.372 . S
N4362 C4364 1.361 . S
N4362 C4365 1.377 . S
C4363 N4360 1.382 . S
C4363 N4361 1.371 . S
C4363 C4366 1.480 . S
C4364 N4361 1.372 . S
C4364 N4362 1.361 . S
C4364 C4372 1.457 . S
C4365 N4360 1.363 . S
C4365 N4362 1.377 . S
C4365 C4378 1.479 . S
C4366 C4363 1.480 . S
C4366 C4367 1.383 . S
C4366 C4371 1.385 . S
C4367 H4348 0.947 . S
C4367 C4366 1.383 . S
C4367 C4368 1.388 . S
C4368 H4349 0.946 . S
C4368 C4367 1.388 . S
C4368 C4369 1.384 . S
C4369 C4368 1.384 . S
C4369 C4370 1.377 . S
C4370 H4350 0.953 . S
C4370 C4369 1.377 . S
C4370 C4371 1.369 . S
C4371 H4351 0.945 . S
C4371 C4366 1.385 . S
C4371 C4370 1.369 . S
C4372 C4364 1.457 . S
C4372 C4373 1.372 . S
C4372 C4377 1.364 . S
C4373 H4352 0.952 . S
C4373 C4372 1.372 . S
C4373 C4374 1.389 . S
C4374 H4353 0.949 . S
C4374 C4373 1.389 . S
C4374 C4375 1.387 . S
C4375 C4374 1.387 . S
C4375 C4376 1.372 . S
C4376 H4354 0.950 . S
C4376 C4375 1.372 . S
C4376 C4377 1.379 . S
C4377 H4355 0.948 . S
C4377 C4372 1.364 . S
C4377 C4376 1.379 . S
C4378 C4347 1.383 . S
C4378 C4365 1.479 . S
C4378 C4379 1.398 . S
C4379 C4344 1.382 . S
C4379 H4356 0.951 . S
C4379 C4378 1.398 . S
C4380 C4381 1.384 . S
C4380 H4393 0.947 . S
C4380 C4415 1.382 . S
C4381 C4380 1.384 . S
C4381 C4382 1.378 . S
C4382 C4381 1.378 . S
C4382 C4383 1.378 . S
C4382 H4394 0.952 . S
C4383 C4382 1.378 . S
C4383 H4395 0.950 . S
C4383 C4414 1.383 . S
H4384 C4403 0.947 . S
H4385 C4404 0.946 . S
H4386 C4406 0.953 . S
H4387 C4407 0.945 . S
H4388 C4409 0.952 . S
H4389 C4410 0.949 . S
H4390 C4412 0.950 . S
H4391 C4413 0.948 . S
H4392 C4415 0.951 . S
H4393 C4380 0.947 . S
H4394 C4382 0.952 . S
H4395 C4383 0.950 . S
N4396 C4399 1.382 . S
N4396 C4401 1.363 . S
N4397 C4399 1.371 . S
N4397 C4400 1.372 . S
N4398 C4400 1.361 . S
N4398 C4401 1.377 . S
C4399 N4396 1.382 . S
C4399 N4397 1.371 . S
C4399 C4402 1.480 . S
C4400 N4397 1.372 . S
C4400 N4398 1.361 . S
C4400 C4408 1.457 . S
C4401 N4396 1.363 . S
C4401 N4398 1.377 . S
C4401 C4414 1.479 . S
C4402 C4399 1.480 . S
C4402 C4403 1.383 . S
C4402 C4407 1.385 . S
C4403 H4384 0.947 . S
C4403 C4402 1.383 . S
C4403 C4404 1.388 . S
C4404 H4385 0.946 . S
C4404 C4403 1.388 . S
C4404 C4405 1.384 . S
C4405 C4404 1.384 . S
C4405 C4406 1.377 . S
C4406 H4386 0.953 . S
C4406 C4405 1.377 . S
C4406 C4407 1.369 . S
C4407 H4387 0.945 . S
C4407 C4402 1.385 . S
C4407 C4406 1.369 . S
C4408 C4400 1.457 . S
C4408 C4409 1.372 . S
C4408 C4413 1.364 . S
C4409 H4388 0.952 . S
C4409 C4408 1.372 . S
C4409 C4410 1.389 . S
C4410 H4389 0.949 . S
C4410 C4409 1.389 . S
C4410 C4411 1.387 . S
C4411 C4410 1.387 . S
C4411 C4412 1.372 . S
C4412 H4390 0.950 . S
C4412 C4411 1.372 . S
C4412 C4413 1.379 . S
C4413 H4391 0.948 . S
C4413 C4408 1.364 . S
C4413 C4412 1.379 . S
C4414 C4383 1.383 . S
C4414 C4401 1.479 . S
C4414 C4415 1.398 . S
C4415 C4380 1.382 . S
C4415 H4392 0.951 . S
C4415 C4414 1.398 . S
C4416 C4417 1.384 . S
C4416 H4429 0.947 . S
C4416 C4451 1.382 . S
C4417 C4416 1.384 . S
C4417 C4418 1.378 . S
C4418 C4417 1.378 . S
C4418 C4419 1.378 . S
C4418 H4430 0.952 . S
C4419 C4418 1.378 . S
C4419 H4431 0.950 . S
C4419 C4450 1.383 . S
H4420 C4439 0.947 . S
H4421 C4440 0.946 . S
H4422 C4442 0.953 . S
H4423 C4443 0.945 . S
H4424 C4445 0.952 . S
H4425 C4446 0.949 . S
H4426 C4448 0.950 . S
H4427 C4449 0.948 . S
H4428 C4451 0.951 . S
H4429 C4416 0.947 . S
H4430 C4418 0.952 . S
H4431 C4419 0.950 . S
N4432 C4435 1.382 . S
N4432 C4437 1.363 . S
N4433 C4435 1.371 . S
N4433 C4436 1.372 . S
N4434 C4436 1.361 . S
N4434 C4437 1.377 . S
C4435 N4432 1.382 . S
C4435 N4433 1.371 . S
C4435 C4438 1.480 . S
C4436 N4433 1.372 . S
C4436 N4434 1.361 . S
C4436 C4444 1.457 . S
C4437 N4432 1.363 . S
C4437 N4434 1.377 . S
C4437 C4450 1.479 . S
C4438 C4435 1.480 . S
C4438 C4439 1.383 . S
C4438 C4443 1.385 . S
C4439 H4420 0.947 . S
C4439 C4438 1.383 . S
C4439 C4440 1.388 . S
C4440 H4421 0.946 . S
C4440 C4439 1.388 . S
C4440 C4441 1.384 . S
C4441 C4440 1.384 . S
C4441 C4442 1.377 . S
C4442 H4422 0.953 . S
C4442 C4441 1.377 . S
C4442 C4443 1.369 . S
C4443 H4423 0.945 . S
C4443 C4438 1.385 . S
C4443 C4442 1.369 . S
C4444 C4436 1.457 . S
C4444 C4445 1.372 . S
C4444 C4449 1.364 . S
C4445 H4424 0.952 . S
C4445 C4444 1.372 . S
C4445 C4446 1.389 . S
C4446 H4425 0.949 . S
C4446 C4445 1.389 . S
C4446 C4447 1.387 . S
C4447 C4446 1.387 . S
C4447 C4448 1.372 . S
C4448 H4426 0.950 . S
C4448 C4447 1.372 . S
C4448 C4449 1.379 . S
C4449 H4427 0.948 . S
C4449 C4444 1.364 . S
C4449 C4448 1.379 . S
C4450 C4419 1.383 . S
C4450 C4437 1.479 . S
C4450 C4451 1.398 . S
C4451 C4416 1.382 . S
C4451 H4428 0.951 . S
C4451 C4450 1.398 . S
C4452 C4453 1.384 . S
C4452 H4465 0.947 . S
C4452 C4487 1.382 . S
C4453 C4452 1.384 . S
C4453 C4454 1.378 . S
C4454 C4453 1.378 . S
C4454 C4455 1.378 . S
C4454 H4466 0.952 . S
C4455 C4454 1.378 . S
C4455 H4467 0.950 . S
C4455 C4486 1.383 . S
H4456 C4475 0.947 . S
H4457 C4476 0.946 . S
H4458 C4478 0.953 . S
H4459 C4479 0.945 . S
H4460 C4481 0.952 . S
H4461 C4482 0.949 . S
H4462 C4484 0.950 . S
H4463 C4485 0.948 . S
H4464 C4487 0.951 . S
H4465 C4452 0.947 . S
H4466 C4454 0.952 . S
H4467 C4455 0.950 . S
N4468 C4471 1.382 . S
N4468 C4473 1.363 . S
N4469 C4471 1.371 . S
N4469 C4472 1.372 . S
N4470 C4472 1.361 . S
N4470 C4473 1.377 . S
C4471 N4468 1.382 . S
C4471 N4469 1.371 . S
C4471 C4474 1.480 . S
C4472 N4469 1.372 . S
C4472 N4470 1.361 . S
C4472 C4480 1.457 . S
C4473 N4468 1.363 . S
C4473 N4470 1.377 . S
C4473 C4486 1.479 . S
C4474 C4471 1.480 . S
C4474 C4475 1.383 . S
C4474 C4479 1.385 . S
C4475 H4456 0.947 . S
C4475 C4474 1.383 . S
C4475 C4476 1.388 . S
C4476 H4457 0.946 . S
C4476 C4475 1.388 . S
C4476 C4477 1.384 . S
C4477 C4476 1.384 . S
C4477 C4478 1.377 . S
C4478 H4458 0.953 . S
C4478 C4477 1.377 . S
C4478 C4479 1.369 . S
C4479 H4459 0.945 . S
C4479 C4474 1.385 . S
C4479 C4478 1.369 . S
C4480 C4472 1.457 . S
C4480 C4481 1.372 . S
C4480 C4485 1.364 . S
C4481 H4460 0.952 . S
C4481 C4480 1.372 . S
C4481 C4482 1.389 . S
C4482 H4461 0.949 . S
C4482 C4481 1.389 . S
C4482 C4483 1.387 . S
C4483 C4482 1.387 . S
C4483 C4484 1.372 . S
C4484 H4462 0.950 . S
C4484 C4483 1.372 . S
C4484 C4485 1.379 . S
C4485 H4463 0.948 . S
C4485 C4480 1.364 . S
C4485 C4484 1.379 . S
C4486 C4455 1.383 . S
C4486 C4473 1.479 . S
C4486 C4487 1.398 . S
C4487 C4452 1.382 . S
C4487 H4464 0.951 . S
C4487 C4486 1.398 . S
C4488 C4489 1.384 . S
C4488 H4501 0.947 . S
C4488 C4523 1.382 . S
C4489 C4488 1.384 . S
C4489 C4490 1.378 . S
C4490 C4489 1.378 . S
C4490 C4491 1.378 . S
C4490 H4502 0.952 . S
C4491 C4490 1.378 . S
C4491 H4503 0.950 . S
C4491 C4522 1.383 . S
H4492 C4511 0.947 . S
H4493 C4512 0.946 . S
H4494 C4514 0.953 . S
H4495 C4515 0.945 . S
H4496 C4517 0.952 . S
H4497 C4518 0.949 . S
H4498 C4520 0.950 . S
H4499 C4521 0.948 . S
H4500 C4523 0.951 . S
H4501 C4488 0.947 . S
H4502 C4490 0.952 . S
H4503 C4491 0.950 . S
N4504 C4507 1.382 . S
N4504 C4509 1.363 . S
N4505 C4507 1.371 . S
N4505 C4508 1.372 . S
N4506 C4508 1.361 . S
N4506 C4509 1.377 . S
C4507 N4504 1.382 . S
C4507 N4505 1.371 . S
C4507 C4510 1.480 . S
C4508 N4505 1.372 . S
C4508 N4506 1.361 . S
C4508 C4516 1.457 . S
C4509 N4504 1.363 . S
C4509 N4506 1.377 . S
C4509 C4522 1.479 . S
C4510 C4507 1.480 . S
C4510 C4511 1.383 . S
C4510 C4515 1.385 . S
C4511 H4492 0.947 . S
C4511 C4510 1.383 . S
C4511 C4512 1.388 . S
C4512 H4493 0.946 . S
C4512 C4511 1.388 . S
C4512 C4513 1.384 . S
C4513 C4512 1.384 . S
C4513 C4514 1.377 . S
C4514 H4494 0.953 . S
C4514 C4513 1.377 . S
C4514 C4515 1.369 . S
C4515 H4495 0.945 . S
C4515 C4510 1.385 . S
C4515 C4514 1.369 . S
C4516 C4508 1.457 . S
C4516 C4517 1.372 . S
C4516 C4521 1.364 . S
C4517 H4496 0.952 . S
C4517 C4516 1.372 . S
C4517 C4518 1.389 . S
C4518 H4497 0.949 . S
C4518 C4517 1.389 . S
C4518 C4519 1.387 . S
C4519 C4518 1.387 . S
C4519 C4520 1.372 . S
C4520 H4498 0.950 . S
C4520 C4519 1.372 . S
C4520 C4521 1.379 . S
C4521 H4499 0.948 . S
C4521 C4516 1.364 . S
C4521 C4520 1.379 . S
C4522 C4491 1.383 . S
C4522 C4509 1.479 . S
C4522 C4523 1.398 . S
C4523 C4488 1.382 . S
C4523 H4500 0.951 . S
C4523 C4522 1.398 . S
C4524 C4525 1.384 . S
C4524 H4537 0.947 . S
C4524 C4559 1.382 . S
C4525 C4524 1.384 . S
C4525 C4526 1.378 . S
C4526 C4525 1.378 . S
C4526 C4527 1.378 . S
C4526 H4538 0.952 . S
C4527 C4526 1.378 . S
C4527 H4539 0.950 . S
C4527 C4558 1.383 . S
H4528 C4547 0.947 . S
H4529 C4548 0.946 . S
H4530 C4550 0.953 . S
H4531 C4551 0.945 . S
H4532 C4553 0.952 . S
H4533 C4554 0.949 . S
H4534 C4556 0.950 . S
H4535 C4557 0.948 . S
H4536 C4559 0.951 . S
H4537 C4524 0.947 . S
H4538 C4526 0.952 . S
H4539 C4527 0.950 . S
N4540 C4543 1.382 . S
N4540 C4545 1.363 . S
N4541 C4543 1.371 . S
N4541 C4544 1.372 . S
N4542 C4544 1.361 . S
N4542 C4545 1.377 . S
C4543 N4540 1.382 . S
C4543 N4541 1.371 . S
C4543 C4546 1.480 . S
C4544 N4541 1.372 . S
C4544 N4542 1.361 . S
C4544 C4552 1.457 . S
C4545 N4540 1.363 . S
C4545 N4542 1.377 . S
C4545 C4558 1.479 . S
C4546 C4543 1.480 . S
C4546 C4547 1.383 . S
C4546 C4551 1.385 . S
C4547 H4528 0.947 . S
C4547 C4546 1.383 . S
C4547 C4548 1.388 . S
C4548 H4529 0.946 . S
C4548 C4547 1.388 . S
C4548 C4549 1.384 . S
C4549 C4548 1.384 . S
C4549 C4550 1.377 . S
C4550 H4530 0.953 . S
C4550 C4549 1.377 . S
C4550 C4551 1.369 . S
C4551 H4531 0.945 . S
C4551 C4546 1.385 . S
C4551 C4550 1.369 . S
C4552 C4544 1.457 . S
C4552 C4553 1.372 . S
C4552 C4557 1.364 . S
C4553 H4532 0.952 . S
C4553 C4552 1.372 . S
C4553 C4554 1.389 . S
C4554 H4533 0.949 . S
C4554 C4553 1.389 . S
C4554 C4555 1.387 . S
C4555 C4554 1.387 . S
C4555 C4556 1.372 . S
C4556 H4534 0.950 . S
C4556 C4555 1.372 . S
C4556 C4557 1.379 . S
C4557 H4535 0.948 . S
C4557 C4552 1.364 . S
C4557 C4556 1.379 . S
C4558 C4527 1.383 . S
C4558 C4545 1.479 . S
C4558 C4559 1.398 . S
C4559 C4524 1.382 . S
C4559 H4536 0.951 . S
C4559 C4558 1.398 . S
C4560 C4561 1.384 . S
C4560 H4573 0.947 . S
C4560 C4595 1.382 . S
C4561 C4560 1.384 . S
C4561 C4562 1.378 . S
C4562 C4561 1.378 . S
C4562 C4563 1.378 . S
C4562 H4574 0.952 . S
C4563 C4562 1.378 . S
C4563 H4575 0.950 . S
C4563 C4594 1.383 . S
H4564 C4583 0.947 . S
H4565 C4584 0.946 . S
H4566 C4586 0.953 . S
H4567 C4587 0.945 . S
H4568 C4589 0.952 . S
H4569 C4590 0.949 . S
H4570 C4592 0.950 . S
H4571 C4593 0.948 . S
H4572 C4595 0.951 . S
H4573 C4560 0.947 . S
H4574 C4562 0.952 . S
H4575 C4563 0.950 . S
N4576 C4579 1.382 . S
N4576 C4581 1.363 . S
N4577 C4579 1.371 . S
N4577 C4580 1.372 . S
N4578 C4580 1.361 . S
N4578 C4581 1.377 . S
C4579 N4576 1.382 . S
C4579 N4577 1.371 . S
C4579 C4582 1.480 . S
C4580 N4577 1.372 . S
C4580 N4578 1.361 . S
C4580 C4588 1.457 . S
C4581 N4576 1.363 . S
C4581 N4578 1.377 . S
C4581 C4594 1.479 . S
C4582 C4579 1.480 . S
C4582 C4583 1.383 . S
C4582 C4587 1.385 . S
C4583 H4564 0.947 . S
C4583 C4582 1.383 . S
C4583 C4584 1.388 . S
C4584 H4565 0.946 . S
C4584 C4583 1.388 . S
C4584 C4585 1.384 . S
C4585 C4584 1.384 . S
C4585 C4586 1.377 . S
C4586 H4566 0.953 . S
C4586 C4585 1.377 . S
C4586 C4587 1.369 . S
C4587 H4567 0.945 . S
C4587 C4582 1.385 . S
C4587 C4586 1.369 . S
C4588 C4580 1.457 . S
C4588 C4589 1.372 . S
C4588 C4593 1.364 . S
C4589 H4568 0.952 . S
C4589 C4588 1.372 . S
C4589 C4590 1.389 . S
C4590 H4569 0.949 . S
C4590 C4589 1.389 . S
C4590 C4591 1.387 . S
C4591 C4590 1.387 . S
C4591 C4592 1.372 . S
C4592 H4570 0.950 . S
C4592 C4591 1.372 . S
C4592 C4593 1.379 . S
C4593 H4571 0.948 . S
C4593 C4588 1.364 . S
C4593 C4592 1.379 . S
C4594 C4563 1.383 . S
C4594 C4581 1.479 . S
C4594 C4595 1.398 . S
C4595 C4560 1.382 . S
C4595 H4572 0.951 . S
C4595 C4594 1.398 . S
C4596 C4597 1.384 . S
C4596 H4609 0.947 . S
C4596 C4631 1.382 . S
C4597 C4596 1.384 . S
C4597 C4598 1.378 . S
C4598 C4597 1.378 . S
C4598 C4599 1.378 . S
C4598 H4610 0.952 . S
C4599 C4598 1.378 . S
C4599 H4611 0.950 . S
C4599 C4630 1.383 . S
H4600 C4619 0.947 . S
H4601 C4620 0.946 . S
H4602 C4622 0.953 . S
H4603 C4623 0.945 . S
H4604 C4625 0.952 . S
H4605 C4626 0.949 . S
H4606 C4628 0.950 . S
H4607 C4629 0.948 . S
H4608 C4631 0.951 . S
H4609 C4596 0.947 . S
H4610 C4598 0.952 . S
H4611 C4599 0.950 . S
N4612 C4615 1.382 . S
N4612 C4617 1.363 . S
N4613 C4615 1.371 . S
N4613 C4616 1.372 . S
N4614 C4616 1.361 . S
N4614 C4617 1.377 . S
C4615 N4612 1.382 . S
C4615 N4613 1.371 . S
C4615 C4618 1.480 . S
C4616 N4613 1.372 . S
C4616 N4614 1.361 . S
C4616 C4624 1.457 . S
C4617 N4612 1.363 . S
C4617 N4614 1.377 . S
C4617 C4630 1.479 . S
C4618 C4615 1.480 . S
C4618 C4619 1.383 . S
C4618 C4623 1.385 . S
C4619 H4600 0.947 . S
C4619 C4618 1.383 . S
C4619 C4620 1.388 . S
C4620 H4601 0.946 . S
C4620 C4619 1.388 . S
C4620 C4621 1.384 . S
C4621 C4620 1.384 . S
C4621 C4622 1.377 . S
C4622 H4602 0.953 . S
C4622 C4621 1.377 . S
C4622 C4623 1.369 . S
C4623 H4603 0.945 . S
C4623 C4618 1.385 . S
C4623 C4622 1.369 . S
C4624 C4616 1.457 . S
C4624 C4625 1.372 . S
C4624 C4629 1.364 . S
C4625 H4604 0.952 . S
C4625 C4624 1.372 . S
C4625 C4626 1.389 . S
C4626 H4605 0.949 . S
C4626 C4625 1.389 . S
C4626 C4627 1.387 . S
C4627 C4626 1.387 . S
C4627 C4628 1.372 . S
C4628 H4606 0.950 . S
C4628 C4627 1.372 . S
C4628 C4629 1.379 . S
C4629 H4607 0.948 . S
C4629 C4624 1.364 . S
C4629 C4628 1.379 . S
C4630 C4599 1.383 . S
C4630 C4617 1.479 . S
C4630 C4631 1.398 . S
C4631 C4596 1.382 . S
C4631 H4608 0.951 . S
C4631 C4630 1.398 . S
C4632 C4633 1.384 . S
C4632 H4645 0.947 . S
C4632 C4667 1.382 . S
C4633 C4632 1.384 . S
C4633 C4634 1.378 . S
C4634 C4633 1.378 . S
C4634 C4635 1.378 . S
C4634 H4646 0.952 . S
C4635 C4634 1.378 . S
C4635 H4647 0.950 . S
C4635 C4666 1.383 . S
H4636 C4655 0.947 . S
H4637 C4656 0.946 . S
H4638 C4658 0.953 . S
H4639 C4659 0.945 . S
H4640 C4661 0.952 . S
H4641 C4662 0.949 . S
H4642 C4664 0.950 . S
H4643 C4665 0.948 . S
H4644 C4667 0.951 . S
H4645 C4632 0.947 . S
H4646 C4634 0.952 . S
H4647 C4635 0.950 . S
N4648 C4651 1.382 . S
N4648 C4653 1.363 . S
N4649 C4651 1.371 . S
N4649 C4652 1.372 . S
N4650 C4652 1.361 . S
N4650 C4653 1.377 . S
C4651 N4648 1.382 . S
C4651 N4649 1.371 . S
C4651 C4654 1.480 . S
C4652 N4649 1.372 . S
C4652 N4650 1.361 . S
C4652 C4660 1.457 . S
C4653 N4648 1.363 . S
C4653 N4650 1.377 . S
C4653 C4666 1.479 . S
C4654 C4651 1.480 . S
C4654 C4655 1.383 . S
C4654 C4659 1.385 . S
C4655 H4636 0.947 . S
C4655 C4654 1.383 . S
C4655 C4656 1.388 . S
C4656 H4637 0.946 . S
C4656 C4655 1.388 . S
C4656 C4657 1.384 . S
C4657 C4656 1.384 . S
C4657 C4658 1.377 . S
C4658 H4638 0.953 . S
C4658 C4657 1.377 . S
C4658 C4659 1.369 . S
C4659 H4639 0.945 . S
C4659 C4654 1.385 . S
C4659 C4658 1.369 . S
C4660 C4652 1.457 . S
C4660 C4661 1.372 . S
C4660 C4665 1.364 . S
C4661 H4640 0.952 . S
C4661 C4660 1.372 . S
C4661 C4662 1.389 . S
C4662 H4641 0.949 . S
C4662 C4661 1.389 . S
C4662 C4663 1.387 . S
C4663 C4662 1.387 . S
C4663 C4664 1.372 . S
C4664 H4642 0.950 . S
C4664 C4663 1.372 . S
C4664 C4665 1.379 . S
C4665 H4643 0.948 . S
C4665 C4660 1.364 . S
C4665 C4664 1.379 . S
C4666 C4635 1.383 . S
C4666 C4653 1.479 . S
C4666 C4667 1.398 . S
C4667 C4632 1.382 . S
C4667 H4644 0.951 . S
C4667 C4666 1.398 . S
C4668 C4669 1.384 . S
C4668 H4681 0.947 . S
C4668 C4703 1.382 . S
C4669 C4668 1.384 . S
C4669 C4670 1.378 . S
C4670 C4669 1.378 . S
C4670 C4671 1.378 . S
C4670 H4682 0.952 . S
C4671 C4670 1.378 . S
C4671 H4683 0.950 . S
C4671 C4702 1.383 . S
H4672 C4691 0.947 . S
H4673 C4692 0.946 . S
H4674 C4694 0.953 . S
H4675 C4695 0.945 . S
H4676 C4697 0.952 . S
H4677 C4698 0.949 . S
H4678 C4700 0.950 . S
H4679 C4701 0.948 . S
H4680 C4703 0.951 . S
H4681 C4668 0.947 . S
H4682 C4670 0.952 . S
H4683 C4671 0.950 . S
N4684 C4687 1.382 . S
N4684 C4689 1.363 . S
N4685 C4687 1.371 . S
N4685 C4688 1.372 . S
N4686 C4688 1.361 . S
N4686 C4689 1.377 . S
C4687 N4684 1.382 . S
C4687 N4685 1.371 . S
C4687 C4690 1.480 . S
C4688 N4685 1.372 . S
C4688 N4686 1.361 . S
C4688 C4696 1.457 . S
C4689 N4684 1.363 . S
C4689 N4686 1.377 . S
C4689 C4702 1.479 . S
C4690 C4687 1.480 . S
C4690 C4691 1.383 . S
C4690 C4695 1.385 . S
C4691 H4672 0.947 . S
C4691 C4690 1.383 . S
C4691 C4692 1.388 . S
C4692 H4673 0.946 . S
C4692 C4691 1.388 . S
C4692 C4693 1.384 . S
C4693 C4692 1.384 . S
C4693 C4694 1.377 . S
C4694 H4674 0.953 . S
C4694 C4693 1.377 . S
C4694 C4695 1.369 . S
C4695 H4675 0.945 . S
C4695 C4690 1.385 . S
C4695 C4694 1.369 . S
C4696 C4688 1.457 . S
C4696 C4697 1.372 . S
C4696 C4701 1.364 . S
C4697 H4676 0.952 . S
C4697 C4696 1.372 . S
C4697 C4698 1.389 . S
C4698 H4677 0.949 . S
C4698 C4697 1.389 . S
C4698 C4699 1.387 . S
C4699 C4698 1.387 . S
C4699 C4700 1.372 . S
C4700 H4678 0.950 . S
C4700 C4699 1.372 . S
C4700 C4701 1.379 . S
C4701 H4679 0.948 . S
C4701 C4696 1.364 . S
C4701 C4700 1.379 . S
C4702 C4671 1.383 . S
C4702 C4689 1.479 . S
C4702 C4703 1.398 . S
C4703 C4668 1.382 . S
C4703 H4680 0.951 . S
C4703 C4702 1.398 . S
C4704 C4705 1.384 . S
C4704 H4717 0.947 . S
C4704 C4739 1.382 . S
C4705 C4704 1.384 . S
C4705 C4706 1.378 . S
C4706 C4705 1.378 . S
C4706 C4707 1.378 . S
C4706 H4718 0.952 . S
C4707 C4706 1.378 . S
C4707 H4719 0.950 . S
C4707 C4738 1.383 . S
H4708 C4727 0.947 . S
H4709 C4728 0.946 . S
H4710 C4730 0.953 . S
H4711 C4731 0.945 . S
H4712 C4733 0.952 . S
H4713 C4734 0.949 . S
H4714 C4736 0.950 . S
H4715 C4737 0.948 . S
H4716 C4739 0.951 . S
H4717 C4704 0.947 . S
H4718 C4706 0.952 . S
H4719 C4707 0.950 . S
N4720 C4723 1.382 . S
N4720 C4725 1.363 . S
N4721 C4723 1.371 . S
N4721 C4724 1.372 . S
N4722 C4724 1.361 . S
N4722 C4725 1.377 . S
C4723 N4720 1.382 . S
C4723 N4721 1.371 . S
C4723 C4726 1.480 . S
C4724 N4721 1.372 . S
C4724 N4722 1.361 . S
C4724 C4732 1.457 . S
C4725 N4720 1.363 . S
C4725 N4722 1.377 . S
C4725 C4738 1.479 . S
C4726 C4723 1.480 . S
C4726 C4727 1.383 . S
C4726 C4731 1.385 . S
C4727 H4708 0.947 . S
C4727 C4726 1.383 . S
C4727 C4728 1.388 . S
C4728 H4709 0.946 . S
C4728 C4727 1.388 . S
C4728 C4729 1.384 . S
C4729 C4728 1.384 . S
C4729 C4730 1.377 . S
C4730 H4710 0.953 . S
C4730 C4729 1.377 . S
C4730 C4731 1.369 . S
C4731 H4711 0.945 . S
C4731 C4726 1.385 . S
C4731 C4730 1.369 . S
C4732 C4724 1.457 . S
C4732 C4733 1.372 . S
C4732 C4737 1.364 . S
C4733 H4712 0.952 . S
C4733 C4732 1.372 . S
C4733 C4734 1.389 . S
C4734 H4713 0.949 . S
C4734 C4733 1.389 . S
C4734 C4735 1.387 . S
C4735 C4734 1.387 . S
C4735 C4736 1.372 . S
C4736 H4714 0.950 . S
C4736 C4735 1.372 . S
C4736 C4737 1.379 . S
C4737 H4715 0.948 . S
C4737 C4732 1.364 . S
C4737 C4736 1.379 . S
C4738 C4707 1.383 . S
C4738 C4725 1.479 . S
C4738 C4739 1.398 . S
C4739 C4704 1.382 . S
C4739 H4716 0.951 . S
C4739 C4738 1.398 . S
C4740 C4741 1.384 . S
C4740 H4753 0.947 . S
C4740 C4775 1.382 . S
C4741 C4740 1.384 . S
C4741 C4742 1.378 . S
C4742 C4741 1.378 . S
C4742 C4743 1.378 . S
C4742 H4754 0.952 . S
C4743 C4742 1.378 . S
C4743 H4755 0.950 . S
C4743 C4774 1.383 . S
H4744 C4763 0.947 . S
H4745 C4764 0.946 . S
H4746 C4766 0.953 . S
H4747 C4767 0.945 . S
H4748 C4769 0.952 . S
H4749 C4770 0.949 . S
H4750 C4772 0.950 . S
H4751 C4773 0.948 . S
H4752 C4775 0.951 . S
H4753 C4740 0.947 . S
H4754 C4742 0.952 . S
H4755 C4743 0.950 . S
N4756 C4759 1.382 . S
N4756 C4761 1.363 . S
N4757 C4759 1.371 . S
N4757 C4760 1.372 . S
N4758 C4760 1.361 . S
N4758 C4761 1.377 . S
C4759 N4756 1.382 . S
C4759 N4757 1.371 . S
C4759 C4762 1.480 . S
C4760 N4757 1.372 . S
C4760 N4758 1.361 . S
C4760 C4768 1.457 . S
C4761 N4756 1.363 . S
C4761 N4758 1.377 . S
C4761 C4774 1.479 . S
C4762 C4759 1.480 . S
C4762 C4763 1.383 . S
C4762 C4767 1.385 . S
C4763 H4744 0.947 . S
C4763 C4762 1.383 . S
C4763 C4764 1.388 . S
C4764 H4745 0.946 . S
C4764 C4763 1.388 . S
C4764 C4765 1.384 . S
C4765 C4764 1.384 . S
C4765 C4766 1.377 . S
C4766 H4746 0.953 . S
C4766 C4765 1.377 . S
C4766 C4767 1.369 . S
C4767 H4747 0.945 . S
C4767 C4762 1.385 . S
C4767 C4766 1.369 . S
C4768 C4760 1.457 . S
C4768 C4769 1.372 . S
C4768 C4773 1.364 . S
C4769 H4748 0.952 . S
C4769 C4768 1.372 . S
C4769 C4770 1.389 . S
C4770 H4749 0.949 . S
C4770 C4769 1.389 . S
C4770 C4771 1.387 . S
C4771 C4770 1.387 . S
C4771 C4772 1.372 . S
C4772 H4750 0.950 . S
C4772 C4771 1.372 . S
C4772 C4773 1.379 . S
C4773 H4751 0.948 . S
C4773 C4768 1.364 . S
C4773 C4772 1.379 . S
C4774 C4743 1.383 . S
C4774 C4761 1.479 . S
C4774 C4775 1.398 . S
C4775 C4740 1.382 . S
C4775 H4752 0.951 . S
C4775 C4774 1.398 . S
C4776 C4777 1.384 . S
C4776 H4789 0.947 . S
C4776 C4811 1.382 . S
C4777 C4776 1.384 . S
C4777 C4778 1.378 . S
C4778 C4777 1.378 . S
C4778 C4779 1.378 . S
C4778 H4790 0.952 . S
C4779 C4778 1.378 . S
C4779 H4791 0.950 . S
C4779 C4810 1.383 . S
H4780 C4799 0.947 . S
H4781 C4800 0.946 . S
H4782 C4802 0.953 . S
H4783 C4803 0.945 . S
H4784 C4805 0.952 . S
H4785 C4806 0.949 . S
H4786 C4808 0.950 . S
H4787 C4809 0.948 . S
H4788 C4811 0.951 . S
H4789 C4776 0.947 . S
H4790 C4778 0.952 . S
H4791 C4779 0.950 . S
N4792 C4795 1.382 . S
N4792 C4797 1.363 . S
N4793 C4795 1.371 . S
N4793 C4796 1.372 . S
N4794 C4796 1.361 . S
N4794 C4797 1.377 . S
C4795 N4792 1.382 . S
C4795 N4793 1.371 . S
C4795 C4798 1.480 . S
C4796 N4793 1.372 . S
C4796 N4794 1.361 . S
C4796 C4804 1.457 . S
C4797 N4792 1.363 . S
C4797 N4794 1.377 . S
C4797 C4810 1.479 . S
C4798 C4795 1.480 . S
C4798 C4799 1.383 . S
C4798 C4803 1.385 . S
C4799 H4780 0.947 . S
C4799 C4798 1.383 . S
C4799 C4800 1.388 . S
C4800 H4781 0.946 . S
C4800 C4799 1.388 . S
C4800 C4801 1.384 . S
C4801 C4800 1.384 . S
C4801 C4802 1.377 . S
C4802 H4782 0.953 . S
C4802 C4801 1.377 . S
C4802 C4803 1.369 . S
C4803 H4783 0.945 . S
C4803 C4798 1.385 . S
C4803 C4802 1.369 . S
C4804 C4796 1.457 . S
C4804 C4805 1.372 . S
C4804 C4809 1.364 . S
C4805 H4784 0.952 . S
C4805 C4804 1.372 . S
C4805 C4806 1.389 . S
C4806 H4785 0.949 . S
C4806 C4805 1.389 . S
C4806 C4807 1.387 . S
C4807 C4806 1.387 . S
C4807 C4808 1.372 . S
C4808 H4786 0.950 . S
C4808 C4807 1.372 . S
C4808 C4809 1.379 . S
C4809 H4787 0.948 . S
C4809 C4804 1.364 . S
C4809 C4808 1.379 . S
C4810 C4779 1.383 . S
C4810 C4797 1.479 . S
C4810 C4811 1.398 . S
C4811 C4776 1.382 . S
C4811 H4788 0.951 . S
C4811 C4810 1.398 . S
C4812 C4813 1.384 . S
C4812 H4825 0.947 . S
C4812 C4847 1.382 . S
C4813 C4812 1.384 . S
C4813 C4814 1.378 . S
C4814 C4813 1.378 . S
C4814 C4815 1.378 . S
C4814 H4826 0.952 . S
C4815 C4814 1.378 . S
C4815 H4827 0.950 . S
C4815 C4846 1.383 . S
H4816 C4835 0.947 . S
H4817 C4836 0.946 . S
H4818 C4838 0.953 . S
H4819 C4839 0.945 . S
H4820 C4841 0.952 . S
H4821 C4842 0.949 . S
H4822 C4844 0.950 . S
H4823 C4845 0.948 . S
H4824 C4847 0.951 . S
H4825 C4812 0.947 . S
H4826 C4814 0.952 . S
H4827 C4815 0.950 . S
N4828 C4831 1.382 . S
N4828 C4833 1.363 . S
N4829 C4831 1.371 . S
N4829 C4832 1.372 . S
N4830 C4832 1.361 . S
N4830 C4833 1.377 . S
C4831 N4828 1.382 . S
C4831 N4829 1.371 . S
C4831 C4834 1.480 . S
C4832 N4829 1.372 . S
C4832 N4830 1.361 . S
C4832 C4840 1.457 . S
C4833 N4828 1.363 . S
C4833 N4830 1.377 . S
C4833 C4846 1.479 . S
C4834 C4831 1.480 . S
C4834 C4835 1.383 . S
C4834 C4839 1.385 . S
C4835 H4816 0.947 . S
C4835 C4834 1.383 . S
C4835 C4836 1.388 . S
C4836 H4817 0.946 . S
C4836 C4835 1.388 . S
C4836 C4837 1.384 . S
C4837 C4836 1.384 . S
C4837 C4838 1.377 . S
C4838 H4818 0.953 . S
C4838 C4837 1.377 . S
C4838 C4839 1.369 . S
C4839 H4819 0.945 . S
C4839 C4834 1.385 . S
C4839 C4838 1.369 . S
C4840 C4832 1.457 . S
C4840 C4841 1.372 . S
C4840 C4845 1.364 . S
C4841 H4820 0.952 . S
C4841 C4840 1.372 . S
C4841 C4842 1.389 . S
C4842 H4821 0.949 . S
C4842 C4841 1.389 . S
C4842 C4843 1.387 . S
C4843 C4842 1.387 . S
C4843 C4844 1.372 . S
C4844 H4822 0.950 . S
C4844 C4843 1.372 . S
C4844 C4845 1.379 . S
C4845 H4823 0.948 . S
C4845 C4840 1.364 . S
C4845 C4844 1.379 . S
C4846 C4815 1.383 . S
C4846 C4833 1.479 . S
C4846 C4847 1.398 . S
C4847 C4812 1.382 . S
C4847 H4824 0.951 . S
C4847 C4846 1.398 . S
C4848 C4849 1.384 . S
C4848 H4861 0.947 . S
C4848 C4883 1.382 . S
C4849 C4848 1.384 . S
C4849 C4850 1.378 . S
C4850 C4849 1.378 . S
C4850 C4851 1.378 . S
C4850 H4862 0.952 . S
C4851 C4850 1.378 . S
C4851 H4863 0.950 . S
C4851 C4882 1.383 . S
H4852 C4871 0.947 . S
H4853 C4872 0.946 . S
H4854 C4874 0.953 . S
H4855 C4875 0.945 . S
H4856 C4877 0.952 . S
H4857 C4878 0.949 . S
H4858 C4880 0.950 . S
H4859 C4881 0.948 . S
H4860 C4883 0.951 . S
H4861 C4848 0.947 . S
H4862 C4850 0.952 . S
H4863 C4851 0.950 . S
N4864 C4867 1.382 . S
N4864 C4869 1.363 . S
N4865 C4867 1.371 . S
N4865 C4868 1.372 . S
N4866 C4868 1.361 . S
N4866 C4869 1.377 . S
C4867 N4864 1.382 . S
C4867 N4865 1.371 . S
C4867 C4870 1.480 . S
C4868 N4865 1.372 . S
C4868 N4866 1.361 . S
C4868 C4876 1.457 . S
C4869 N4864 1.363 . S
C4869 N4866 1.377 . S
C4869 C4882 1.479 . S
C4870 C4867 1.480 . S
C4870 C4871 1.383 . S
C4870 C4875 1.385 . S
C4871 H4852 0.947 . S
C4871 C4870 1.383 . S
C4871 C4872 1.388 . S
C4872 H4853 0.946 . S
C4872 C4871 1.388 . S
C4872 C4873 1.384 . S
C4873 C4872 1.384 . S
C4873 C4874 1.377 . S
C4874 H4854 0.953 . S
C4874 C4873 1.377 . S
C4874 C4875 1.369 . S
C4875 H4855 0.945 . S
C4875 C4870 1.385 . S
C4875 C4874 1.369 . S
C4876 C4868 1.457 . S
C4876 C4877 1.372 . S
C4876 C4881 1.364 . S
C4877 H4856 0.952 . S
C4877 C4876 1.372 . S
C4877 C4878 1.389 . S
C4878 H4857 0.949 . S
C4878 C4877 1.389 . S
C4878 C4879 1.387 . S
C4879 C4878 1.387 . S
C4879 C4880 1.372 . S
C4880 H4858 0.950 . S
C4880 C4879 1.372 . S
C4880 C4881 1.379 . S
C4881 H4859 0.948 . S
C4881 C4876 1.364 . S
C4881 C4880 1.379 . S
C4882 C4851 1.383 . S
C4882 C4869 1.479 . S
C4882 C4883 1.398 . S
C4883 C4848 1.382 . S
C4883 H4860 0.951 . S
C4883 C4882 1.398 . S
C4884 C4885 1.384 . S
C4884 H4897 0.947 . S
C4884 C4919 1.382 . S
C4885 C4884 1.384 . S
C4885 C4886 1.378 . S
C4886 C4885 1.378 . S
C4886 C4887 1.378 . S
C4886 H4898 0.952 . S
C4887 C4886 1.378 . S
C4887 H4899 0.950 . S
C4887 C4918 1.383 . S
H4888 C4907 0.947 . S
H4889 C4908 0.946 . S
H4890 C4910 0.953 . S
H4891 C4911 0.945 . S
H4892 C4913 0.952 . S
H4893 C4914 0.949 . S
H4894 C4916 0.950 . S
H4895 C4917 0.948 . S
H4896 C4919 0.951 . S
H4897 C4884 0.947 . S
H4898 C4886 0.952 . S
H4899 C4887 0.950 . S
N4900 C4903 1.382 . S
N4900 C4905 1.363 . S
N4901 C4903 1.371 . S
N4901 C4904 1.372 . S
N4902 C4904 1.361 . S
N4902 C4905 1.377 . S
C4903 N4900 1.382 . S
C4903 N4901 1.371 . S
C4903 C4906 1.480 . S
C4904 N4901 1.372 . S
C4904 N4902 1.361 . S
C4904 C4912 1.457 . S
C4905 N4900 1.363 . S
C4905 N4902 1.377 . S
C4905 C4918 1.479 . S
C4906 C4903 1.480 . S
C4906 C4907 1.383 . S
C4906 C4911 1.385 . S
C4907 H4888 0.947 . S
C4907 C4906 1.383 . S
C4907 C4908 1.388 . S
C4908 H4889 0.946 . S
C4908 C4907 1.388 . S
C4908 C4909 1.384 . S
C4909 C4908 1.384 . S
C4909 C4910 1.377 . S
C4910 H4890 0.953 . S
C4910 C4909 1.377 . S
C4910 C4911 1.369 . S
C4911 H4891 0.945 . S
C4911 C4906 1.385 . S
C4911 C4910 1.369 . S
C4912 C4904 1.457 . S
C4912 C4913 1.372 . S
C4912 C4917 1.364 . S
C4913 H4892 0.952 . S
C4913 C4912 1.372 . S
C4913 C4914 1.389 . S
C4914 H4893 0.949 . S
C4914 C4913 1.389 . S
C4914 C4915 1.387 . S
C4915 C4914 1.387 . S
C4915 C4916 1.372 . S
C4916 H4894 0.950 . S
C4916 C4915 1.372 . S
C4916 C4917 1.379 . S
C4917 H4895 0.948 . S
C4917 C4912 1.364 . S
C4917 C4916 1.379 . S
C4918 C4887 1.383 . S
C4918 C4905 1.479 . S
C4918 C4919 1.398 . S
C4919 C4884 1.382 . S
C4919 H4896 0.951 . S
C4919 C4918 1.398 . S
C4920 C4921 1.384 . S
C4920 H4933 0.947 . S
C4920 C4955 1.382 . S
C4921 C4920 1.384 . S
C4921 C4922 1.378 . S
C4922 C4921 1.378 . S
C4922 C4923 1.378 . S
C4922 H4934 0.952 . S
C4923 C4922 1.378 . S
C4923 H4935 0.950 . S
C4923 C4954 1.383 . S
H4924 C4943 0.947 . S
H4925 C4944 0.946 . S
H4926 C4946 0.953 . S
H4927 C4947 0.945 . S
H4928 C4949 0.952 . S
H4929 C4950 0.949 . S
H4930 C4952 0.950 . S
H4931 C4953 0.948 . S
H4932 C4955 0.951 . S
H4933 C4920 0.947 . S
H4934 C4922 0.952 . S
H4935 C4923 0.950 . S
N4936 C4939 1.382 . S
N4936 C4941 1.363 . S
N4937 C4939 1.371 . S
N4937 C4940 1.372 . S
N4938 C4940 1.361 . S
N4938 C4941 1.377 . S
C4939 N4936 1.382 . S
C4939 N4937 1.371 . S
C4939 C4942 1.480 . S
C4940 N4937 1.372 . S
C4940 N4938 1.361 . S
C4940 C4948 1.457 . S
C4941 N4936 1.363 . S
C4941 N4938 1.377 . S
C4941 C4954 1.479 . S
C4942 C4939 1.480 . S
C4942 C4943 1.383 . S
C4942 C4947 1.385 . S
C4943 H4924 0.947 . S
C4943 C4942 1.383 . S
C4943 C4944 1.388 . S
C4944 H4925 0.946 . S
C4944 C4943 1.388 . S
C4944 C4945 1.384 . S
C4945 C4944 1.384 . S
C4945 C4946 1.377 . S
C4946 H4926 0.953 . S
C4946 C4945 1.377 . S
C4946 C4947 1.369 . S
C4947 H4927 0.945 . S
C4947 C4942 1.385 . S
C4947 C4946 1.369 . S
C4948 C4940 1.457 . S
C4948 C4949 1.372 . S
C4948 C4953 1.364 . S
C4949 H4928 0.952 . S
C4949 C4948 1.372 . S
C4949 C4950 1.389 . S
C4950 H4929 0.949 . S
C4950 C4949 1.389 . S
C4950 C4951 1.387 . S
C4951 C4950 1.387 . S
C4951 C4952 1.372 . S
C4952 H4930 0.950 . S
C4952 C4951 1.372 . S
C4952 C4953 1.379 . S
C4953 H4931 0.948 . S
C4953 C4948 1.364 . S
C4953 C4952 1.379 . S
C4954 C4923 1.383 . S
C4954 C4941 1.479 . S
C4954 C4955 1.398 . S
C4955 C4920 1.382 . S
C4955 H4932 0.951 . S
C4955 C4954 1.398 . S
C4956 C4957 1.384 . S
C4956 H4969 0.947 . S
C4956 C4991 1.382 . S
C4957 C4956 1.384 . S
C4957 C4958 1.378 . S
C4958 C4957 1.378 . S
C4958 C4959 1.378 . S
C4958 H4970 0.952 . S
C4959 C4958 1.378 . S
C4959 H4971 0.950 . S
C4959 C4990 1.383 . S
H4960 C4979 0.947 . S
H4961 C4980 0.946 . S
H4962 C4982 0.953 . S
H4963 C4983 0.945 . S
H4964 C4985 0.952 . S
H4965 C4986 0.949 . S
H4966 C4988 0.950 . S
H4967 C4989 0.948 . S
H4968 C4991 0.951 . S
H4969 C4956 0.947 . S
H4970 C4958 0.952 . S
H4971 C4959 0.950 . S
N4972 C4975 1.382 . S
N4972 C4977 1.363 . S
N4973 C4975 1.371 . S
N4973 C4976 1.372 . S
N4974 C4976 1.361 . S
N4974 C4977 1.377 . S
C4975 N4972 1.382 . S
C4975 N4973 1.371 . S
C4975 C4978 1.480 . S
C4976 N4973 1.372 . S
C4976 N4974 1.361 . S
C4976 C4984 1.457 . S
C4977 N4972 1.363 . S
C4977 N4974 1.377 . S
C4977 C4990 1.479 . S
C4978 C4975 1.480 . S
C4978 C4979 1.383 . S
C4978 C4983 1.385 . S
C4979 H4960 0.947 . S
C4979 C4978 1.383 . S
C4979 C4980 1.388 . S
C4980 H4961 0.946 . S
C4980 C4979 1.388 . S
C4980 C4981 1.384 . S
C4981 C4980 1.384 . S
C4981 C4982 1.377 . S
C4982 H4962 0.953 . S
C4982 C4981 1.377 . S
C4982 C4983 1.369 . S
C4983 H4963 0.945 . S
C4983 C4978 1.385 . S
C4983 C4982 1.369 . S
C4984 C4976 1.457 . S
C4984 C4985 1.372 . S
C4984 C4989 1.364 . S
C4985 H4964 0.952 . S
C4985 C4984 1.372 . S
C4985 C4986 1.389 . S
C4986 H4965 0.949 . S
C4986 C4985 1.389 . S
C4986 C4987 1.387 . S
C4987 C4986 1.387 . S
C4987 C4988 1.372 . S
C4988 H4966 0.950 . S
C4988 C4987 1.372 . S
C4988 C4989 1.379 . S
C4989 H4967 0.948 . S
C4989 C4984 1.364 . S
C4989 C4988 1.379 . S
C4990 C4959 1.383 . S
C4990 C4977 1.479 . S
C4990 C4991 1.398 . S
C4991 C4956 1.382 . S
C4991 H4968 0.951 . S
C4991 C4990 1.398 . S
C4992 C4993 1.384 . S
C4992 H5005 0.947 . S
C4992 C5027 1.382 . S
C4993 C4992 1.384 . S
C4993 C4994 1.378 . S
C4994 C4993 1.378 . S
C4994 C4995 1.378 . S
C4994 H5006 0.952 . S
C4995 C4994 1.378 . S
C4995 H5007 0.950 . S
C4995 C5026 1.383 . S
H4996 C5015 0.947 . S
H4997 C5016 0.946 . S
H4998 C5018 0.953 . S
H4999 C5019 0.945 . S
H5000 C5021 0.952 . S
H5001 C5022 0.949 . S
H5002 C5024 0.950 . S
H5003 C5025 0.948 . S
H5004 C5027 0.951 . S
H5005 C4992 0.947 . S
H5006 C4994 0.952 . S
H5007 C4995 0.950 . S
N5008 C5011 1.382 . S
N5008 C5013 1.363 . S
N5009 C5011 1.371 . S
N5009 C5012 1.372 . S
N5010 C5012 1.361 . S
N5010 C5013 1.377 . S
C5011 N5008 1.382 . S
C5011 N5009 1.371 . S
C5011 C5014 1.480 . S
C5012 N5009 1.372 . S
C5012 N5010 1.361 . S
C5012 C5020 1.457 . S
C5013 N5008 1.363 . S
C5013 N5010 1.377 . S
C5013 C5026 1.479 . S
C5014 C5011 1.480 . S
C5014 C5015 1.383 . S
C5014 C5019 1.385 . S
C5015 H4996 0.947 . S
C5015 C5014 1.383 . S
C5015 C5016 1.388 . S
C5016 H4997 0.946 . S
C5016 C5015 1.388 . S
C5016 C5017 1.384 . S
C5017 C5016 1.384 . S
C5017 C5018 1.377 . S
C5018 H4998 0.953 . S
C5018 C5017 1.377 . S
C5018 C5019 1.369 . S
C5019 H4999 0.945 . S
C5019 C5014 1.385 . S
C5019 C5018 1.369 . S
C5020 C5012 1.457 . S
C5020 C5021 1.372 . S
C5020 C5025 1.364 . S
C5021 H5000 0.952 . S
C5021 C5020 1.372 . S
C5021 C5022 1.389 . S
C5022 H5001 0.949 . S
C5022 C5021 1.389 . S
C5022 C5023 1.387 . S
C5023 C5022 1.387 . S
C5023 C5024 1.372 . S
C5024 H5002 0.950 . S
C5024 C5023 1.372 . S
C5024 C5025 1.379 . S
C5025 H5003 0.948 . S
C5025 C5020 1.364 . S
C5025 C5024 1.379 . S
C5026 C4995 1.383 . S
C5026 C5013 1.479 . S
C5026 C5027 1.398 . S
C5027 C4992 1.382 . S
C5027 H5004 0.951 . S
C5027 C5026 1.398 . S
C5028 C5029 1.384 . S
C5028 H5041 0.947 . S
C5028 C5063 1.382 . S
C5029 C5028 1.384 . S
C5029 C5030 1.378 . S
C5030 C5029 1.378 . S
C5030 C5031 1.378 . S
C5030 H5042 0.952 . S
C5031 C5030 1.378 . S
C5031 H5043 0.950 . S
C5031 C5062 1.383 . S
H5032 C5051 0.947 . S
H5033 C5052 0.946 . S
H5034 C5054 0.953 . S
H5035 C5055 0.945 . S
H5036 C5057 0.952 . S
H5037 C5058 0.949 . S
H5038 C5060 0.950 . S
H5039 C5061 0.948 . S
H5040 C5063 0.951 . S
H5041 C5028 0.947 . S
H5042 C5030 0.952 . S
H5043 C5031 0.950 . S
N5044 C5047 1.382 . S
N5044 C5049 1.363 . S
N5045 C5047 1.371 . S
N5045 C5048 1.372 . S
N5046 C5048 1.361 . S
N5046 C5049 1.377 . S
C5047 N5044 1.382 . S
C5047 N5045 1.371 . S
C5047 C5050 1.480 . S
C5048 N5045 1.372 . S
C5048 N5046 1.361 . S
C5048 C5056 1.457 . S
C5049 N5044 1.363 . S
C5049 N5046 1.377 . S
C5049 C5062 1.479 . S
C5050 C5047 1.480 . S
C5050 C5051 1.383 . S
C5050 C5055 1.385 . S
C5051 H5032 0.947 . S
C5051 C5050 1.383 . S
C5051 C5052 1.388 . S
C5052 H5033 0.946 . S
C5052 C5051 1.388 . S
C5052 C5053 1.384 . S
C5053 C5052 1.384 . S
C5053 C5054 1.377 . S
C5054 H5034 0.953 . S
C5054 C5053 1.377 . S
C5054 C5055 1.369 . S
C5055 H5035 0.945 . S
C5055 C5050 1.385 . S
C5055 C5054 1.369 . S
C5056 C5048 1.457 . S
C5056 C5057 1.372 . S
C5056 C5061 1.364 . S
C5057 H5036 0.952 . S
C5057 C5056 1.372 . S
C5057 C5058 1.389 . S
C5058 H5037 0.949 . S
C5058 C5057 1.389 . S
C5058 C5059 1.387 . S
C5059 C5058 1.387 . S
C5059 C5060 1.372 . S
C5060 H5038 0.950 . S
C5060 C5059 1.372 . S
C5060 C5061 1.379 . S
C5061 H5039 0.948 . S
C5061 C5056 1.364 . S
C5061 C5060 1.379 . S
C5062 C5031 1.383 . S
C5062 C5049 1.479 . S
C5062 C5063 1.398 . S
C5063 C5028 1.382 . S
C5063 H5040 0.951 . S
C5063 C5062 1.398 . S
C5064 C5065 1.384 . S
C5064 H5077 0.947 . S
C5064 C5099 1.382 . S
C5065 C5064 1.384 . S
C5065 C5066 1.378 . S
C5066 C5065 1.378 . S
C5066 C5067 1.378 . S
C5066 H5078 0.952 . S
C5067 C5066 1.378 . S
C5067 H5079 0.950 . S
C5067 C5098 1.383 . S
H5068 C5087 0.947 . S
H5069 C5088 0.946 . S
H5070 C5090 0.953 . S
H5071 C5091 0.945 . S
H5072 C5093 0.952 . S
H5073 C5094 0.949 . S
H5074 C5096 0.950 . S
H5075 C5097 0.948 . S
H5076 C5099 0.951 . S
H5077 C5064 0.947 . S
H5078 C5066 0.952 . S
H5079 C5067 0.950 . S
N5080 C5083 1.382 . S
N5080 C5085 1.363 . S
N5081 C5083 1.371 . S
N5081 C5084 1.372 . S
N5082 C5084 1.361 . S
N5082 C5085 1.377 . S
C5083 N5080 1.382 . S
C5083 N5081 1.371 . S
C5083 C5086 1.480 . S
C5084 N5081 1.372 . S
C5084 N5082 1.361 . S
C5084 C5092 1.457 . S
C5085 N5080 1.363 . S
C5085 N5082 1.377 . S
C5085 C5098 1.479 . S
C5086 C5083 1.480 . S
C5086 C5087 1.383 . S
C5086 C5091 1.385 . S
C5087 H5068 0.947 . S
C5087 C5086 1.383 . S
C5087 C5088 1.388 . S
C5088 H5069 0.946 . S
C5088 C5087 1.388 . S
C5088 C5089 1.384 . S
C5089 C5088 1.384 . S
C5089 C5090 1.377 . S
C5090 H5070 0.953 . S
C5090 C5089 1.377 . S
C5090 C5091 1.369 . S
C5091 H5071 0.945 . S
C5091 C5086 1.385 . S
C5091 C5090 1.369 . S
C5092 C5084 1.457 . S
C5092 C5093 1.372 . S
C5092 C5097 1.364 . S
C5093 H5072 0.952 . S
C5093 C5092 1.372 . S
C5093 C5094 1.389 . S
C5094 H5073 0.949 . S
C5094 C5093 1.389 . S
C5094 C5095 1.387 . S
C5095 C5094 1.387 . S
C5095 C5096 1.372 . S
C5096 H5074 0.950 . S
C5096 C5095 1.372 . S
C5096 C5097 1.379 . S
C5097 H5075 0.948 . S
C5097 C5092 1.364 . S
C5097 C5096 1.379 . S
C5098 C5067 1.383 . S
C5098 C5085 1.479 . S
C5098 C5099 1.398 . S
C5099 C5064 1.382 . S
C5099 H5076 0.951 . S
C5099 C5098 1.398 . S
C5100 C5101 1.384 . S
C5100 H5113 0.947 . S
C5100 C5135 1.382 . S
C5101 C5100 1.384 . S
C5101 C5102 1.378 . S
C5102 C5101 1.378 . S
C5102 C5103 1.378 . S
C5102 H5114 0.952 . S
C5103 C5102 1.378 . S
C5103 H5115 0.950 . S
C5103 C5134 1.383 . S
H5104 C5123 0.947 . S
H5105 C5124 0.946 . S
H5106 C5126 0.953 . S
H5107 C5127 0.945 . S
H5108 C5129 0.952 . S
H5109 C5130 0.949 . S
H5110 C5132 0.950 . S
H5111 C5133 0.948 . S
H5112 C5135 0.951 . S
H5113 C5100 0.947 . S
H5114 C5102 0.952 . S
H5115 C5103 0.950 . S
N5116 C5119 1.382 . S
N5116 C5121 1.363 . S
N5117 C5119 1.371 . S
N5117 C5120 1.372 . S
N5118 C5120 1.361 . S
N5118 C5121 1.377 . S
C5119 N5116 1.382 . S
C5119 N5117 1.371 . S
C5119 C5122 1.480 . S
C5120 N5117 1.372 . S
C5120 N5118 1.361 . S
C5120 C5128 1.457 . S
C5121 N5116 1.363 . S
C5121 N5118 1.377 . S
C5121 C5134 1.479 . S
C5122 C5119 1.480 . S
C5122 C5123 1.383 . S
C5122 C5127 1.385 . S
C5123 H5104 0.947 . S
C5123 C5122 1.383 . S
C5123 C5124 1.388 . S
C5124 H5105 0.946 . S
C5124 C5123 1.388 . S
C5124 C5125 1.384 . S
C5125 C5124 1.384 . S
C5125 C5126 1.377 . S
C5126 H5106 0.953 . S
C5126 C5125 1.377 . S
C5126 C5127 1.369 . S
C5127 H5107 0.945 . S
C5127 C5122 1.385 . S
C5127 C5126 1.369 . S
C5128 C5120 1.457 . S
C5128 C5129 1.372 . S
C5128 C5133 1.364 . S
C5129 H5108 0.952 . S
C5129 C5128 1.372 . S
C5129 C5130 1.389 . S
C5130 H5109 0.949 . S
C5130 C5129 1.389 . S
C5130 C5131 1.387 . S
C5131 C5130 1.387 . S
C5131 C5132 1.372 . S
C5132 H5110 0.950 . S
C5132 C5131 1.372 . S
C5132 C5133 1.379 . S
C5133 H5111 0.948 . S
C5133 C5128 1.364 . S
C5133 C5132 1.379 . S
C5134 C5103 1.383 . S
C5134 C5121 1.479 . S
C5134 C5135 1.398 . S
C5135 C5100 1.382 . S
C5135 H5112 0.951 . S
C5135 C5134 1.398 . S
C5136 C5137 1.384 . S
C5136 H5149 0.947 . S
C5136 C5171 1.382 . S
C5137 C5136 1.384 . S
C5137 C5138 1.378 . S
C5138 C5137 1.378 . S
C5138 C5139 1.378 . S
C5138 H5150 0.952 . S
C5139 C5138 1.378 . S
C5139 H5151 0.950 . S
C5139 C5170 1.383 . S
H5140 C5159 0.947 . S
H5141 C5160 0.946 . S
H5142 C5162 0.953 . S
H5143 C5163 0.945 . S
H5144 C5165 0.952 . S
H5145 C5166 0.949 . S
H5146 C5168 0.950 . S
H5147 C5169 0.948 . S
H5148 C5171 0.951 . S
H5149 C5136 0.947 . S
H5150 C5138 0.952 . S
H5151 C5139 0.950 . S
N5152 C5155 1.382 . S
N5152 C5157 1.363 . S
N5153 C5155 1.371 . S
N5153 C5156 1.372 . S
N5154 C5156 1.361 . S
N5154 C5157 1.377 . S
C5155 N5152 1.382 . S
C5155 N5153 1.371 . S
C5155 C5158 1.480 . S
C5156 N5153 1.372 . S
C5156 N5154 1.361 . S
C5156 C5164 1.457 . S
C5157 N5152 1.363 . S
C5157 N5154 1.377 . S
C5157 C5170 1.479 . S
C5158 C5155 1.480 . S
C5158 C5159 1.383 . S
C5158 C5163 1.385 . S
C5159 H5140 0.947 . S
C5159 C5158 1.383 . S
C5159 C5160 1.388 . S
C5160 H5141 0.946 . S
C5160 C5159 1.388 . S
C5160 C5161 1.384 . S
C5161 C5160 1.384 . S
C5161 C5162 1.377 . S
C5162 H5142 0.953 . S
C5162 C5161 1.377 . S
C5162 C5163 1.369 . S
C5163 H5143 0.945 . S
C5163 C5158 1.385 . S
C5163 C5162 1.369 . S
C5164 C5156 1.457 . S
C5164 C5165 1.372 . S
C5164 C5169 1.364 . S
C5165 H5144 0.952 . S
C5165 C5164 1.372 . S
C5165 C5166 1.389 . S
C5166 H5145 0.949 . S
C5166 C5165 1.389 . S
C5166 C5167 1.387 . S
C5167 C5166 1.387 . S
C5167 C5168 1.372 . S
C5168 H5146 0.950 . S
C5168 C5167 1.372 . S
C5168 C5169 1.379 . S
C5169 H5147 0.948 . S
C5169 C5164 1.364 . S
C5169 C5168 1.379 . S
C5170 C5139 1.383 . S
C5170 C5157 1.479 . S
C5170 C5171 1.398 . S
C5171 C5136 1.382 . S
C5171 H5148 0.951 . S
C5171 C5170 1.398 . S
C5172 C5173 1.384 . S
C5172 H5185 0.947 . S
C5172 C5207 1.382 . S
C5173 C5172 1.384 . S
C5173 C5174 1.378 . S
C5174 C5173 1.378 . S
C5174 C5175 1.378 . S
C5174 H5186 0.952 . S
C5175 C5174 1.378 . S
C5175 H5187 0.950 . S
C5175 C5206 1.383 . S
H5176 C5195 0.947 . S
H5177 C5196 0.946 . S
H5178 C5198 0.953 . S
H5179 C5199 0.945 . S
H5180 C5201 0.952 . S
H5181 C5202 0.949 . S
H5182 C5204 0.950 . S
H5183 C5205 0.948 . S
H5184 C5207 0.951 . S
H5185 C5172 0.947 . S
H5186 C5174 0.952 . S
H5187 C5175 0.950 . S
N5188 C5191 1.382 . S
N5188 C5193 1.363 . S
N5189 C5191 1.371 . S
N5189 C5192 1.372 . S
N5190 C5192 1.361 . S
N5190 C5193 1.377 . S
C5191 N5188 1.382 . S
C5191 N5189 1.371 . S
C5191 C5194 1.480 . S
C5192 N5189 1.372 . S
C5192 N5190 1.361 . S
C5192 C5200 1.457 . S
C5193 N5188 1.363 . S
C5193 N5190 1.377 . S
C5193 C5206 1.479 . S
C5194 C5191 1.480 . S
C5194 C5195 1.383 . S
C5194 C5199 1.385 . S
C5195 H5176 0.947 . S
C5195 C5194 1.383 . S
C5195 C5196 1.388 . S
C5196 H5177 0.946 . S
C5196 C5195 1.388 . S
C5196 C5197 1.384 . S
C5197 C5196 1.384 . S
C5197 C5198 1.377 . S
C5198 H5178 0.953 . S
C5198 C5197 1.377 . S
C5198 C5199 1.369 . S
C5199 H5179 0.945 . S
C5199 C5194 1.385 . S
C5199 C5198 1.369 . S
C5200 C5192 1.457 . S
C5200 C5201 1.372 . S
C5200 C5205 1.364 . S
C5201 H5180 0.952 . S
C5201 C5200 1.372 . S
C5201 C5202 1.389 . S
C5202 H5181 0.949 . S
C5202 C5201 1.389 . S
C5202 C5203 1.387 . S
C5203 C5202 1.387 . S
C5203 C5204 1.372 . S
C5204 H5182 0.950 . S
C5204 C5203 1.372 . S
C5204 C5205 1.379 . S
C5205 H5183 0.948 . S
C5205 C5200 1.364 . S
C5205 C5204 1.379 . S
C5206 C5175 1.383 . S
C5206 C5193 1.479 . S
C5206 C5207 1.398 . S
C5207 C5172 1.382 . S
C5207 H5184 0.951 . S
C5207 C5206 1.398 . S
C5208 C5209 1.384 . S
C5208 H5221 0.947 . S
C5208 C5243 1.382 . S
C5209 C5208 1.384 . S
C5209 C5210 1.378 . S
C5210 C5209 1.378 . S
C5210 C5211 1.378 . S
C5210 H5222 0.952 . S
C5211 C5210 1.378 . S
C5211 H5223 0.950 . S
C5211 C5242 1.383 . S
H5212 C5231 0.947 . S
H5213 C5232 0.946 . S
H5214 C5234 0.953 . S
H5215 C5235 0.945 . S
H5216 C5237 0.952 . S
H5217 C5238 0.949 . S
H5218 C5240 0.950 . S
H5219 C5241 0.948 . S
H5220 C5243 0.951 . S
H5221 C5208 0.947 . S
H5222 C5210 0.952 . S
H5223 C5211 0.950 . S
N5224 C5227 1.382 . S
N5224 C5229 1.363 . S
N5225 C5227 1.371 . S
N5225 C5228 1.372 . S
N5226 C5228 1.361 . S
N5226 C5229 1.377 . S
C5227 N5224 1.382 . S
C5227 N5225 1.371 . S
C5227 C5230 1.480 . S
C5228 N5225 1.372 . S
C5228 N5226 1.361 . S
C5228 C5236 1.457 . S
C5229 N5224 1.363 . S
C5229 N5226 1.377 . S
C5229 C5242 1.479 . S
C5230 C5227 1.480 . S
C5230 C5231 1.383 . S
C5230 C5235 1.385 . S
C5231 H5212 0.947 . S
C5231 C5230 1.383 . S
C5231 C5232 1.388 . S
C5232 H5213 0.946 . S
C5232 C5231 1.388 . S
C5232 C5233 1.384 . S
C5233 C5232 1.384 . S
C5233 C5234 1.377 . S
C5234 H5214 0.953 . S
C5234 C5233 1.377 . S
C5234 C5235 1.369 . S
C5235 H5215 0.945 . S
C5235 C5230 1.385 . S
C5235 C5234 1.369 . S
C5236 C5228 1.457 . S
C5236 C5237 1.372 . S
C5236 C5241 1.364 . S
C5237 H5216 0.952 . S
C5237 C5236 1.372 . S
C5237 C5238 1.389 . S
C5238 H5217 0.949 . S
C5238 C5237 1.389 . S
C5238 C5239 1.387 . S
C5239 C5238 1.387 . S
C5239 C5240 1.372 . S
C5240 H5218 0.950 . S
C5240 C5239 1.372 . S
C5240 C5241 1.379 . S
C5241 H5219 0.948 . S
C5241 C5236 1.364 . S
C5241 C5240 1.379 . S
C5242 C5211 1.383 . S
C5242 C5229 1.479 . S
C5242 C5243 1.398 . S
C5243 C5208 1.382 . S
C5243 H5220 0.951 . S
C5243 C5242 1.398 . S
C5244 C5245 1.384 . S
C5244 H5257 0.947 . S
C5244 C5279 1.382 . S
C5245 C5244 1.384 . S
C5245 C5246 1.378 . S
C5246 C5245 1.378 . S
C5246 C5247 1.378 . S
C5246 H5258 0.952 . S
C5247 C5246 1.378 . S
C5247 H5259 0.950 . S
C5247 C5278 1.383 . S
H5248 C5267 0.947 . S
H5249 C5268 0.901 1_554 S
H5250 C5270 0.945 . S
H5251 C5271 0.945 . S
H5252 C5273 0.952 . S
H5253 C5274 0.949 . S
H5254 C5276 0.950 . S
H5255 C5277 0.948 . S
H5256 C5279 0.951 . S
H5257 C5244 0.947 . S
H5258 C5246 0.952 . S
H5259 C5247 0.950 . S
N5260 C5263 1.382 . S
N5260 C5265 1.363 . S
N5261 C5263 1.371 . S
N5261 C5264 1.372 . S
N5262 C5264 1.361 . S
N5262 C5265 1.377 . S
C5263 N5260 1.382 . S
C5263 N5261 1.371 . S
C5263 C5266 1.480 . S
C5264 N5261 1.372 . S
C5264 N5262 1.361 . S
C5264 C5272 1.457 . S
C5265 N5260 1.363 . S
C5265 N5262 1.377 . S
C5265 C5278 1.479 . S
C5266 C5263 1.480 . S
C5266 C5267 1.383 . S
C5266 C5271 1.385 . S
C5267 H5248 0.947 . S
C5267 C5266 1.383 . S
C5267 C5268 1.510 . S
C5268 H5249 0.901 1_556 S
C5268 C5267 1.510 . S
C5268 C5269 1.318 1_556 S
C5269 C5268 1.318 1_554 S
C5269 C5270 1.370 . S
C5270 H5250 0.945 . S
C5270 C5269 1.370 . S
C5270 C5271 1.384 1_554 S
C5271 H5251 0.945 . S
C5271 C5266 1.385 . S
C5271 C5270 1.384 1_556 S
C5272 C5264 1.457 . S
C5272 C5273 1.372 . S
C5272 C5277 1.364 . S
C5273 H5252 0.952 . S
C5273 C5272 1.372 . S
C5273 C5274 1.389 . S
C5274 H5253 0.949 . S
C5274 C5273 1.389 . S
C5274 C5275 1.387 . S
C5275 C5274 1.387 . S
C5275 C5276 1.372 . S
C5276 H5254 0.950 . S
C5276 C5275 1.372 . S
C5276 C5277 1.379 . S
C5277 H5255 0.948 . S
C5277 C5272 1.364 . S
C5277 C5276 1.379 . S
C5278 C5247 1.383 . S
C5278 C5265 1.479 . S
C5278 C5279 1.398 . S
C5279 C5244 1.382 . S
C5279 H5256 0.951 . S
C5279 C5278 1.398 . S
C5280 C5281 1.384 . S
C5280 H5293 0.947 . S
C5280 C5315 1.382 . S
C5281 C5280 1.384 . S
C5281 C5282 1.378 . S
C5282 C5281 1.378 . S
C5282 C5283 1.378 . S
C5282 H5294 0.952 . S
C5283 C5282 1.378 . S
C5283 H5295 0.950 . S
C5283 C5314 1.383 . S
H5284 C5303 0.947 . S
H5285 C5304 0.946 . S
H5286 C5306 0.953 . S
H5287 C5307 0.945 . S
H5288 C5309 0.952 . S
H5289 C5310 0.949 . S
H5290 C5312 0.950 . S
H5291 C5313 0.948 . S
H5292 C5315 0.951 . S
H5293 C5280 0.947 . S
H5294 C5282 0.952 . S
H5295 C5283 0.950 . S
N5296 C5299 1.382 . S
N5296 C5301 1.363 . S
N5297 C5299 1.371 . S
N5297 C5300 1.372 . S
N5298 C5300 1.361 . S
N5298 C5301 1.377 . S
C5299 N5296 1.382 . S
C5299 N5297 1.371 . S
C5299 C5302 1.480 . S
C5300 N5297 1.372 . S
C5300 N5298 1.361 . S
C5300 C5308 1.457 . S
C5301 N5296 1.363 . S
C5301 N5298 1.377 . S
C5301 C5314 1.479 . S
C5302 C5299 1.480 . S
C5302 C5303 1.383 . S
C5302 C5307 1.385 . S
C5303 H5284 0.947 . S
C5303 C5302 1.383 . S
C5303 C5304 1.388 . S
C5304 H5285 0.946 . S
C5304 C5303 1.388 . S
C5304 C5305 1.384 . S
C5305 C5304 1.384 . S
C5305 C5306 1.377 . S
C5306 H5286 0.953 . S
C5306 C5305 1.377 . S
C5306 C5307 1.369 . S
C5307 H5287 0.945 . S
C5307 C5302 1.385 . S
C5307 C5306 1.369 . S
C5308 C5300 1.457 . S
C5308 C5309 1.372 . S
C5308 C5313 1.364 . S
C5309 H5288 0.952 . S
C5309 C5308 1.372 . S
C5309 C5310 1.389 . S
C5310 H5289 0.949 . S
C5310 C5309 1.389 . S
C5310 C5311 1.387 . S
C5311 C5310 1.387 . S
C5311 C5312 1.372 . S
C5312 H5290 0.950 . S
C5312 C5311 1.372 . S
C5312 C5313 1.379 . S
C5313 H5291 0.948 . S
C5313 C5308 1.364 . S
C5313 C5312 1.379 . S
C5314 C5283 1.383 . S
C5314 C5301 1.479 . S
C5314 C5315 1.398 . S
C5315 C5280 1.382 . S
C5315 H5292 0.951 . S
C5315 C5314 1.398 . S
C5316 C5317 1.384 . S
C5316 H5329 0.947 . S
C5316 C5351 1.382 . S
C5317 C5316 1.384 . S
C5317 C5318 1.378 . S
C5318 C5317 1.378 . S
C5318 C5319 1.378 . S
C5318 H5330 0.952 . S
C5319 C5318 1.378 . S
C5319 H5331 0.950 . S
C5319 C5350 1.383 . S
H5320 C5339 0.947 . S
H5321 C5340 0.946 . S
H5322 C5342 0.953 . S
H5323 C5343 0.945 . S
H5324 C5345 0.952 . S
H5325 C5346 0.949 . S
H5326 C5348 0.950 . S
H5327 C5349 0.948 . S
H5328 C5351 0.951 . S
H5329 C5316 0.947 . S
H5330 C5318 0.952 . S
H5331 C5319 0.950 . S
N5332 C5335 1.382 . S
N5332 C5337 1.363 . S
N5333 C5335 1.371 . S
N5333 C5336 1.372 . S
N5334 C5336 1.361 . S
N5334 C5337 1.377 . S
C5335 N5332 1.382 . S
C5335 N5333 1.371 . S
C5335 C5338 1.480 . S
C5336 N5333 1.372 . S
C5336 N5334 1.361 . S
C5336 C5344 1.457 . S
C5337 N5332 1.363 . S
C5337 N5334 1.377 . S
C5337 C5350 1.479 . S
C5338 C5335 1.480 . S
C5338 C5339 1.383 . S
C5338 C5343 1.385 . S
C5339 H5320 0.947 . S
C5339 C5338 1.383 . S
C5339 C5340 1.388 . S
C5340 H5321 0.946 . S
C5340 C5339 1.388 . S
C5340 C5341 1.384 . S
C5341 C5340 1.384 . S
C5341 C5342 1.377 . S
C5342 H5322 0.953 . S
C5342 C5341 1.377 . S
C5342 C5343 1.369 . S
C5343 H5323 0.945 . S
C5343 C5338 1.385 . S
C5343 C5342 1.369 . S
C5344 C5336 1.457 . S
C5344 C5345 1.372 . S
C5344 C5349 1.364 . S
C5345 H5324 0.952 . S
C5345 C5344 1.372 . S
C5345 C5346 1.389 . S
C5346 H5325 0.949 . S
C5346 C5345 1.389 . S
C5346 C5347 1.387 . S
C5347 C5346 1.387 . S
C5347 C5348 1.372 . S
C5348 H5326 0.950 . S
C5348 C5347 1.372 . S
C5348 C5349 1.379 . S
C5349 H5327 0.948 . S
C5349 C5344 1.364 . S
C5349 C5348 1.379 . S
C5350 C5319 1.383 . S
C5350 C5337 1.479 . S
C5350 C5351 1.398 . S
C5351 C5316 1.382 . S
C5351 H5328 0.951 . S
C5351 C5350 1.398 . S
C5352 C5353 1.384 . S
C5352 H5365 0.947 . S
C5352 C5387 1.382 . S
C5353 C5352 1.384 . S
C5353 C5354 1.378 . S
C5354 C5353 1.378 . S
C5354 C5355 1.378 . S
C5354 H5366 0.952 . S
C5355 C5354 1.378 . S
C5355 H5367 0.950 . S
C5355 C5386 1.383 . S
H5356 C5375 0.947 . S
H5357 C5376 0.946 . S
H5358 C5378 0.953 . S
H5359 C5379 0.945 . S
H5360 C5381 0.952 . S
H5361 C5382 0.949 . S
H5362 C5384 0.950 . S
H5363 C5385 0.948 . S
H5364 C5387 0.951 . S
H5365 C5352 0.947 . S
H5366 C5354 0.952 . S
H5367 C5355 0.950 . S
N5368 C5371 1.382 . S
N5368 C5373 1.363 . S
N5369 C5371 1.371 . S
N5369 C5372 1.372 . S
N5370 C5372 1.361 . S
N5370 C5373 1.377 . S
C5371 N5368 1.382 . S
C5371 N5369 1.371 . S
C5371 C5374 1.480 . S
C5372 N5369 1.372 . S
C5372 N5370 1.361 . S
C5372 C5380 1.457 . S
C5373 N5368 1.363 . S
C5373 N5370 1.377 . S
C5373 C5386 1.479 . S
C5374 C5371 1.480 . S
C5374 C5375 1.383 . S
C5374 C5379 1.385 . S
C5375 H5356 0.947 . S
C5375 C5374 1.383 . S
C5375 C5376 1.388 . S
C5376 H5357 0.946 . S
C5376 C5375 1.388 . S
C5376 C5377 1.384 . S
C5377 C5376 1.384 . S
C5377 C5378 1.377 . S
C5378 H5358 0.953 . S
C5378 C5377 1.377 . S
C5378 C5379 1.369 . S
C5379 H5359 0.945 . S
C5379 C5374 1.385 . S
C5379 C5378 1.369 . S
C5380 C5372 1.457 . S
C5380 C5381 1.372 . S
C5380 C5385 1.364 . S
C5381 H5360 0.952 . S
C5381 C5380 1.372 . S
C5381 C5382 1.389 . S
C5382 H5361 0.949 . S
C5382 C5381 1.389 . S
C5382 C5383 1.387 . S
C5383 C5382 1.387 . S
C5383 C5384 1.372 . S
C5384 H5362 0.950 . S
C5384 C5383 1.372 . S
C5384 C5385 1.379 . S
C5385 H5363 0.948 . S
C5385 C5380 1.364 . S
C5385 C5384 1.379 . S
C5386 C5355 1.383 . S
C5386 C5373 1.479 . S
C5386 C5387 1.398 . S
C5387 C5352 1.382 . S
C5387 H5364 0.951 . S
C5387 C5386 1.398 . S
C5388 C5389 1.384 . S
C5388 H5401 0.947 . S
C5388 C5423 1.382 . S
C5389 C5388 1.384 . S
C5389 C5390 1.378 . S
C5390 C5389 1.378 . S
C5390 C5391 1.378 . S
C5390 H5402 0.952 . S
C5391 C5390 1.378 . S
C5391 H5403 0.950 . S
C5391 C5422 1.383 . S
H5392 C5411 0.947 . S
H5393 C5412 0.946 . S
H5394 C5414 0.953 . S
H5395 C5415 0.945 . S
H5396 C5417 0.952 . S
H5397 C5418 0.949 . S
H5398 C5420 0.950 . S
H5399 C5421 0.948 . S
H5400 C5423 0.951 . S
H5401 C5388 0.947 . S
H5402 C5390 0.952 . S
H5403 C5391 0.950 . S
N5404 C5407 1.382 . S
N5404 C5409 1.363 . S
N5405 C5407 1.371 . S
N5405 C5408 1.372 . S
N5406 C5408 1.361 . S
N5406 C5409 1.377 . S
C5407 N5404 1.382 . S
C5407 N5405 1.371 . S
C5407 C5410 1.480 . S
C5408 N5405 1.372 . S
C5408 N5406 1.361 . S
C5408 C5416 1.457 . S
C5409 N5404 1.363 . S
C5409 N5406 1.377 . S
C5409 C5422 1.479 . S
C5410 C5407 1.480 . S
C5410 C5411 1.383 . S
C5410 C5415 1.385 . S
C5411 H5392 0.947 . S
C5411 C5410 1.383 . S
C5411 C5412 1.388 . S
C5412 H5393 0.946 . S
C5412 C5411 1.388 . S
C5412 C5413 1.384 . S
C5413 C5412 1.384 . S
C5413 C5414 1.377 . S
C5414 H5394 0.953 . S
C5414 C5413 1.377 . S
C5414 C5415 1.369 . S
C5415 H5395 0.945 . S
C5415 C5410 1.385 . S
C5415 C5414 1.369 . S
C5416 C5408 1.457 . S
C5416 C5417 1.372 . S
C5416 C5421 1.364 . S
C5417 H5396 0.952 . S
C5417 C5416 1.372 . S
C5417 C5418 1.389 . S
C5418 H5397 0.949 . S
C5418 C5417 1.389 . S
C5418 C5419 1.387 . S
C5419 C5418 1.387 . S
C5419 C5420 1.372 . S
C5420 H5398 0.950 . S
C5420 C5419 1.372 . S
C5420 C5421 1.379 . S
C5421 H5399 0.948 . S
C5421 C5416 1.364 . S
C5421 C5420 1.379 . S
C5422 C5391 1.383 . S
C5422 C5409 1.479 . S
C5422 C5423 1.398 . S
C5423 C5388 1.382 . S
C5423 H5400 0.951 . S
C5423 C5422 1.398 . S
C5424 C5425 1.384 . S
C5424 H5437 0.947 . S
C5424 C5459 1.382 . S
C5425 C5424 1.384 . S
C5425 C5426 1.378 . S
C5426 C5425 1.378 . S
C5426 C5427 1.378 . S
C5426 H5438 0.952 . S
C5427 C5426 1.378 . S
C5427 H5439 0.950 . S
C5427 C5458 1.383 . S
H5428 C5447 0.947 . S
H5429 C5448 0.946 . S
H5430 C5450 0.953 . S
H5431 C5451 0.945 . S
H5432 C5453 0.952 . S
H5433 C5454 0.949 . S
H5434 C5456 0.950 . S
H5435 C5457 0.948 . S
H5436 C5459 0.951 . S
H5437 C5424 0.947 . S
H5438 C5426 0.952 . S
H5439 C5427 0.950 . S
N5440 C5443 1.382 . S
N5440 C5445 1.363 . S
N5441 C5443 1.371 . S
N5441 C5444 1.372 . S
N5442 C5444 1.361 . S
N5442 C5445 1.377 . S
C5443 N5440 1.382 . S
C5443 N5441 1.371 . S
C5443 C5446 1.480 . S
C5444 N5441 1.372 . S
C5444 N5442 1.361 . S
C5444 C5452 1.457 . S
C5445 N5440 1.363 . S
C5445 N5442 1.377 . S
C5445 C5458 1.479 . S
C5446 C5443 1.480 . S
C5446 C5447 1.383 . S
C5446 C5451 1.385 . S
C5447 H5428 0.947 . S
C5447 C5446 1.383 . S
C5447 C5448 1.388 . S
C5448 H5429 0.946 . S
C5448 C5447 1.388 . S
C5448 C5449 1.384 . S
C5449 C5448 1.384 . S
C5449 C5450 1.377 . S
C5450 H5430 0.953 . S
C5450 C5449 1.377 . S
C5450 C5451 1.369 . S
C5451 H5431 0.945 . S
C5451 C5446 1.385 . S
C5451 C5450 1.369 . S
C5452 C5444 1.457 . S
C5452 C5453 1.372 . S
C5452 C5457 1.364 . S
C5453 H5432 0.952 . S
C5453 C5452 1.372 . S
C5453 C5454 1.389 . S
C5454 H5433 0.949 . S
C5454 C5453 1.389 . S
C5454 C5455 1.387 . S
C5455 C5454 1.387 . S
C5455 C5456 1.372 . S
C5456 H5434 0.950 . S
C5456 C5455 1.372 . S
C5456 C5457 1.379 . S
C5457 H5435 0.948 . S
C5457 C5452 1.364 . S
C5457 C5456 1.379 . S
C5458 C5427 1.383 . S
C5458 C5445 1.479 . S
C5458 C5459 1.398 . S
C5459 C5424 1.382 . S
C5459 H5436 0.951 . S
C5459 C5458 1.398 . S
C5460 C5461 1.384 . S
C5460 H5473 0.947 . S
C5460 C5495 1.382 . S
C5461 C5460 1.384 . S
C5461 C5462 1.378 . S
C5462 C5461 1.378 . S
C5462 C5463 1.378 . S
C5462 H5474 0.952 . S
C5463 C5462 1.378 . S
C5463 H5475 0.950 . S
C5463 C5494 1.383 . S
H5464 C5483 0.947 . S
H5465 C5484 0.946 . S
H5466 C5486 0.953 . S
H5467 C5487 0.945 . S
H5468 C5489 0.952 . S
H5469 C5490 0.949 . S
H5470 C5492 0.950 . S
H5471 C5493 0.948 . S
H5472 C5495 0.951 . S
H5473 C5460 0.947 . S
H5474 C5462 0.952 . S
H5475 C5463 0.950 . S
N5476 C5479 1.382 . S
N5476 C5481 1.363 . S
N5477 C5479 1.371 . S
N5477 C5480 1.372 . S
N5478 C5480 1.361 . S
N5478 C5481 1.377 . S
C5479 N5476 1.382 . S
C5479 N5477 1.371 . S
C5479 C5482 1.480 . S
C5480 N5477 1.372 . S
C5480 N5478 1.361 . S
C5480 C5488 1.457 . S
C5481 N5476 1.363 . S
C5481 N5478 1.377 . S
C5481 C5494 1.479 . S
C5482 C5479 1.480 . S
C5482 C5483 1.383 . S
C5482 C5487 1.385 . S
C5483 H5464 0.947 . S
C5483 C5482 1.383 . S
C5483 C5484 1.388 . S
C5484 H5465 0.946 . S
C5484 C5483 1.388 . S
C5484 C5485 1.384 . S
C5485 C5484 1.384 . S
C5485 C5486 1.377 . S
C5486 H5466 0.953 . S
C5486 C5485 1.377 . S
C5486 C5487 1.369 . S
C5487 H5467 0.945 . S
C5487 C5482 1.385 . S
C5487 C5486 1.369 . S
C5488 C5480 1.457 . S
C5488 C5489 1.372 . S
C5488 C5493 1.364 . S
C5489 H5468 0.952 . S
C5489 C5488 1.372 . S
C5489 C5490 1.389 . S
C5490 H5469 0.949 . S
C5490 C5489 1.389 . S
C5490 C5491 1.387 . S
C5491 C5490 1.387 . S
C5491 C5492 1.372 . S
C5492 H5470 0.950 . S
C5492 C5491 1.372 . S
C5492 C5493 1.379 . S
C5493 H5471 0.948 . S
C5493 C5488 1.364 . S
C5493 C5492 1.379 . S
C5494 C5463 1.383 . S
C5494 C5481 1.479 . S
C5494 C5495 1.398 . S
C5495 C5460 1.382 . S
C5495 H5472 0.951 . S
C5495 C5494 1.398 . S
C5496 C5497 1.384 . S
C5496 H5509 0.947 . S
C5496 C5531 1.382 . S
C5497 C5496 1.384 . S
C5497 C5498 1.378 . S
C5498 C5497 1.378 . S
C5498 C5499 1.378 . S
C5498 H5510 0.952 . S
C5499 C5498 1.378 . S
C5499 H5511 0.950 . S
C5499 C5530 1.383 . S
H5500 C5519 0.947 . S
H5501 C5520 0.946 . S
H5502 C5522 0.953 . S
H5503 C5523 0.945 . S
H5504 C5525 0.952 . S
H5505 C5526 0.949 . S
H5506 C5528 0.950 . S
H5507 C5529 0.948 . S
H5508 C5531 0.951 . S
H5509 C5496 0.947 . S
H5510 C5498 0.952 . S
H5511 C5499 0.950 . S
N5512 C5515 1.382 . S
N5512 C5517 1.363 . S
N5513 C5515 1.371 . S
N5513 C5516 1.372 . S
N5514 C5516 1.361 . S
N5514 C5517 1.377 . S
C5515 N5512 1.382 . S
C5515 N5513 1.371 . S
C5515 C5518 1.480 . S
C5516 N5513 1.372 . S
C5516 N5514 1.361 . S
C5516 C5524 1.457 . S
C5517 N5512 1.363 . S
C5517 N5514 1.377 . S
C5517 C5530 1.479 . S
C5518 C5515 1.480 . S
C5518 C5519 1.383 . S
C5518 C5523 1.385 . S
C5519 H5500 0.947 . S
C5519 C5518 1.383 . S
C5519 C5520 1.388 . S
C5520 H5501 0.946 . S
C5520 C5519 1.388 . S
C5520 C5521 1.384 . S
C5521 C5520 1.384 . S
C5521 C5522 1.377 . S
C5522 H5502 0.953 . S
C5522 C5521 1.377 . S
C5522 C5523 1.369 . S
C5523 H5503 0.945 . S
C5523 C5518 1.385 . S
C5523 C5522 1.369 . S
C5524 C5516 1.457 . S
C5524 C5525 1.372 . S
C5524 C5529 1.364 . S
C5525 H5504 0.952 . S
C5525 C5524 1.372 . S
C5525 C5526 1.389 . S
C5526 H5505 0.949 . S
C5526 C5525 1.389 . S
C5526 C5527 1.387 . S
C5527 C5526 1.387 . S
C5527 C5528 1.372 . S
C5528 H5506 0.950 . S
C5528 C5527 1.372 . S
C5528 C5529 1.379 . S
C5529 H5507 0.948 . S
C5529 C5524 1.364 . S
C5529 C5528 1.379 . S
C5530 C5499 1.383 . S
C5530 C5517 1.479 . S
C5530 C5531 1.398 . S
C5531 C5496 1.382 . S
C5531 H5508 0.951 . S
C5531 C5530 1.398 . S
C5532 C5533 1.384 . S
C5532 H5545 0.947 . S
C5532 C5567 1.382 . S
C5533 C5532 1.384 . S
C5533 C5534 1.378 . S
C5534 C5533 1.378 . S
C5534 C5535 1.378 . S
C5534 H5546 0.952 . S
C5535 C5534 1.378 . S
C5535 H5547 0.950 . S
C5535 C5566 1.383 . S
H5536 C5555 0.947 . S
H5537 C5556 0.946 . S
H5538 C5558 0.953 . S
H5539 C5559 0.945 . S
H5540 C5561 0.952 . S
H5541 C5562 0.949 . S
H5542 C5564 0.950 . S
H5543 C5565 0.948 . S
H5544 C5567 0.951 . S
H5545 C5532 0.947 . S
H5546 C5534 0.952 . S
H5547 C5535 0.950 . S
N5548 C5551 1.382 . S
N5548 C5553 1.363 . S
N5549 C5551 1.371 . S
N5549 C5552 1.372 . S
N5550 C5552 1.361 . S
N5550 C5553 1.377 . S
C5551 N5548 1.382 . S
C5551 N5549 1.371 . S
C5551 C5554 1.480 . S
C5552 N5549 1.372 . S
C5552 N5550 1.361 . S
C5552 C5560 1.457 . S
C5553 N5548 1.363 . S
C5553 N5550 1.377 . S
C5553 C5566 1.479 . S
C5554 C5551 1.480 . S
C5554 C5555 1.383 . S
C5554 C5559 1.385 . S
C5555 H5536 0.947 . S
C5555 C5554 1.383 . S
C5555 C5556 1.388 . S
C5556 H5537 0.946 . S
C5556 C5555 1.388 . S
C5556 C5557 1.384 . S
C5557 C5556 1.384 . S
C5557 C5558 1.377 . S
C5558 H5538 0.953 . S
C5558 C5557 1.377 . S
C5558 C5559 1.369 . S
C5559 H5539 0.945 . S
C5559 C5554 1.385 . S
C5559 C5558 1.369 . S
C5560 C5552 1.457 . S
C5560 C5561 1.372 . S
C5560 C5565 1.364 . S
C5561 H5540 0.952 . S
C5561 C5560 1.372 . S
C5561 C5562 1.389 . S
C5562 H5541 0.949 . S
C5562 C5561 1.389 . S
C5562 C5563 1.387 . S
C5563 C5562 1.387 . S
C5563 C5564 1.372 . S
C5564 H5542 0.950 . S
C5564 C5563 1.372 . S
C5564 C5565 1.379 . S
C5565 H5543 0.948 . S
C5565 C5560 1.364 . S
C5565 C5564 1.379 . S
C5566 C5535 1.383 . S
C5566 C5553 1.479 . S
C5566 C5567 1.398 . S
C5567 C5532 1.382 . S
C5567 H5544 0.951 . S
C5567 C5566 1.398 . S
C5568 C5569 1.384 . S
C5568 H5581 0.947 . S
C5568 C5603 1.382 . S
C5569 C5568 1.384 . S
C5569 C5570 1.378 . S
C5570 C5569 1.378 . S
C5570 C5571 1.378 . S
C5570 H5582 0.952 . S
C5571 C5570 1.378 . S
C5571 H5583 0.950 . S
C5571 C5602 1.383 . S
H5572 C5591 0.947 . S
H5573 C5592 0.946 . S
H5574 C5594 0.953 . S
H5575 C5595 0.945 . S
H5576 C5597 0.952 . S
H5577 C5598 0.949 . S
H5578 C5600 0.950 . S
H5579 C5601 0.948 . S
H5580 C5603 0.951 . S
H5581 C5568 0.947 . S
H5582 C5570 0.952 . S
H5583 C5571 0.950 . S
N5584 C5587 1.382 . S
N5584 C5589 1.363 . S
N5585 C5587 1.371 . S
N5585 C5588 1.372 . S
N5586 C5588 1.361 . S
N5586 C5589 1.377 . S
C5587 N5584 1.382 . S
C5587 N5585 1.371 . S
C5587 C5590 1.480 . S
C5588 N5585 1.372 . S
C5588 N5586 1.361 . S
C5588 C5596 1.457 . S
C5589 N5584 1.363 . S
C5589 N5586 1.377 . S
C5589 C5602 1.479 . S
C5590 C5587 1.480 . S
C5590 C5591 1.383 . S
C5590 C5595 1.385 . S
C5591 H5572 0.947 . S
C5591 C5590 1.383 . S
C5591 C5592 1.388 . S
C5592 H5573 0.946 . S
C5592 C5591 1.388 . S
C5592 C5593 1.384 . S
C5593 C5592 1.384 . S
C5593 C5594 1.377 . S
C5594 H5574 0.953 . S
C5594 C5593 1.377 . S
C5594 C5595 1.369 . S
C5595 H5575 0.945 . S
C5595 C5590 1.385 . S
C5595 C5594 1.369 . S
C5596 C5588 1.457 . S
C5596 C5597 1.372 . S
C5596 C5601 1.364 . S
C5597 H5576 0.952 . S
C5597 C5596 1.372 . S
C5597 C5598 1.389 . S
C5598 H5577 0.949 . S
C5598 C5597 1.389 . S
C5598 C5599 1.387 . S
C5599 C5598 1.387 . S
C5599 C5600 1.372 . S
C5600 H5578 0.950 . S
C5600 C5599 1.372 . S
C5600 C5601 1.379 . S
C5601 H5579 0.948 . S
C5601 C5596 1.364 . S
C5601 C5600 1.379 . S
C5602 C5571 1.383 . S
C5602 C5589 1.479 . S
C5602 C5603 1.398 . S
C5603 C5568 1.382 . S
C5603 H5580 0.951 . S
C5603 C5602 1.398 . S
C5604 C5605 1.384 . S
C5604 H5617 0.947 . S
C5604 C5639 1.382 . S
C5605 C5604 1.384 . S
C5605 C5606 1.378 . S
C5606 C5605 1.378 . S
C5606 C5607 1.378 . S
C5606 H5618 0.952 . S
C5607 C5606 1.378 . S
C5607 H5619 0.950 . S
C5607 C5638 1.383 . S
H5608 C5627 0.947 . S
H5609 C5628 0.946 . S
H5610 C5630 0.953 . S
H5611 C5631 0.945 . S
H5612 C5633 0.952 . S
H5613 C5634 0.949 . S
H5614 C5636 0.950 . S
H5615 C5637 0.948 . S
H5616 C5639 0.951 . S
H5617 C5604 0.947 . S
H5618 C5606 0.952 . S
H5619 C5607 0.950 . S
N5620 C5623 1.382 . S
N5620 C5625 1.363 . S
N5621 C5623 1.371 . S
N5621 C5624 1.372 . S
N5622 C5624 1.361 . S
N5622 C5625 1.377 . S
C5623 N5620 1.382 . S
C5623 N5621 1.371 . S
C5623 C5626 1.480 . S
C5624 N5621 1.372 . S
C5624 N5622 1.361 . S
C5624 C5632 1.457 . S
C5625 N5620 1.363 . S
C5625 N5622 1.377 . S
C5625 C5638 1.479 . S
C5626 C5623 1.480 . S
C5626 C5627 1.383 . S
C5626 C5631 1.385 . S
C5627 H5608 0.947 . S
C5627 C5626 1.383 . S
C5627 C5628 1.388 . S
C5628 H5609 0.946 . S
C5628 C5627 1.388 . S
C5628 C5629 1.384 . S
C5629 C5628 1.384 . S
C5629 C5630 1.377 . S
C5630 H5610 0.953 . S
C5630 C5629 1.377 . S
C5630 C5631 1.369 . S
C5631 H5611 0.945 . S
C5631 C5626 1.385 . S
C5631 C5630 1.369 . S
C5632 C5624 1.457 . S
C5632 C5633 1.372 . S
C5632 C5637 1.364 . S
C5633 H5612 0.952 . S
C5633 C5632 1.372 . S
C5633 C5634 1.389 . S
C5634 H5613 0.949 . S
C5634 C5633 1.389 . S
C5634 C5635 1.387 . S
C5635 C5634 1.387 . S
C5635 C5636 1.372 . S
C5636 H5614 0.950 . S
C5636 C5635 1.372 . S
C5636 C5637 1.379 . S
C5637 H5615 0.948 . S
C5637 C5632 1.364 . S
C5637 C5636 1.379 . S
C5638 C5607 1.383 . S
C5638 C5625 1.479 . S
C5638 C5639 1.398 . S
C5639 C5604 1.382 . S
C5639 H5616 0.951 . S
C5639 C5638 1.398 . S
C5640 C5641 1.384 . S
C5640 H5653 0.947 . S
C5640 C5675 1.382 . S
C5641 C5640 1.384 . S
C5641 C5642 1.378 . S
C5642 C5641 1.378 . S
C5642 C5643 1.378 . S
C5642 H5654 0.952 . S
C5643 C5642 1.378 . S
C5643 H5655 0.950 . S
C5643 C5674 1.383 . S
H5644 C5663 0.947 . S
H5645 C5664 0.946 . S
H5646 C5666 0.953 . S
H5647 C5667 0.945 . S
H5648 C5669 0.952 . S
H5649 C5670 0.949 . S
H5650 C5672 0.950 . S
H5651 C5673 0.948 . S
H5652 C5675 0.951 . S
H5653 C5640 0.947 . S
H5654 C5642 0.952 . S
H5655 C5643 0.950 . S
N5656 C5659 1.382 . S
N5656 C5661 1.363 . S
N5657 C5659 1.371 . S
N5657 C5660 1.372 . S
N5658 C5660 1.361 . S
N5658 C5661 1.377 . S
C5659 N5656 1.382 . S
C5659 N5657 1.371 . S
C5659 C5662 1.480 . S
C5660 N5657 1.372 . S
C5660 N5658 1.361 . S
C5660 C5668 1.457 . S
C5661 N5656 1.363 . S
C5661 N5658 1.377 . S
C5661 C5674 1.479 . S
C5662 C5659 1.480 . S
C5662 C5663 1.383 . S
C5662 C5667 1.385 . S
C5663 H5644 0.947 . S
C5663 C5662 1.383 . S
C5663 C5664 1.388 . S
C5664 H5645 0.946 . S
C5664 C5663 1.388 . S
C5664 C5665 1.384 . S
C5665 C5664 1.384 . S
C5665 C5666 1.377 . S
C5666 H5646 0.953 . S
C5666 C5665 1.377 . S
C5666 C5667 1.369 . S
C5667 H5647 0.945 . S
C5667 C5662 1.385 . S
C5667 C5666 1.369 . S
C5668 C5660 1.457 . S
C5668 C5669 1.372 . S
C5668 C5673 1.364 . S
C5669 H5648 0.952 . S
C5669 C5668 1.372 . S
C5669 C5670 1.389 . S
C5670 H5649 0.949 . S
C5670 C5669 1.389 . S
C5670 C5671 1.387 . S
C5671 C5670 1.387 . S
C5671 C5672 1.372 . S
C5672 H5650 0.950 . S
C5672 C5671 1.372 . S
C5672 C5673 1.379 . S
C5673 H5651 0.948 . S
C5673 C5668 1.364 . S
C5673 C5672 1.379 . S
C5674 C5643 1.383 . S
C5674 C5661 1.479 . S
C5674 C5675 1.398 . S
C5675 C5640 1.382 . S
C5675 H5652 0.951 . S
C5675 C5674 1.398 . S
C5676 C5677 1.384 . S
C5676 H5689 0.947 . S
C5676 C5711 1.382 . S
C5677 C5676 1.384 . S
C5677 C5678 1.378 . S
C5678 C5677 1.378 . S
C5678 C5679 1.378 . S
C5678 H5690 0.952 . S
C5679 C5678 1.378 . S
C5679 H5691 0.950 . S
C5679 C5710 1.383 . S
H5680 C5699 0.947 . S
H5681 C5700 0.946 . S
H5682 C5702 0.953 . S
H5683 C5703 0.945 . S
H5684 C5705 0.952 . S
H5685 C5706 0.949 . S
H5686 C5708 0.950 . S
H5687 C5709 0.948 . S
H5688 C5711 0.951 . S
H5689 C5676 0.947 . S
H5690 C5678 0.952 . S
H5691 C5679 0.950 . S
N5692 C5695 1.382 . S
N5692 C5697 1.363 . S
N5693 C5695 1.371 . S
N5693 C5696 1.372 . S
N5694 C5696 1.361 . S
N5694 C5697 1.377 . S
C5695 N5692 1.382 . S
C5695 N5693 1.371 . S
C5695 C5698 1.480 . S
C5696 N5693 1.372 . S
C5696 N5694 1.361 . S
C5696 C5704 1.457 . S
C5697 N5692 1.363 . S
C5697 N5694 1.377 . S
C5697 C5710 1.479 . S
C5698 C5695 1.480 . S
C5698 C5699 1.383 . S
C5698 C5703 1.385 . S
C5699 H5680 0.947 . S
C5699 C5698 1.383 . S
C5699 C5700 1.388 . S
C5700 H5681 0.946 . S
C5700 C5699 1.388 . S
C5700 C5701 1.384 . S
C5701 C5700 1.384 . S
C5701 C5702 1.377 . S
C5702 H5682 0.953 . S
C5702 C5701 1.377 . S
C5702 C5703 1.369 . S
C5703 H5683 0.945 . S
C5703 C5698 1.385 . S
C5703 C5702 1.369 . S
C5704 C5696 1.457 . S
C5704 C5705 1.372 . S
C5704 C5709 1.364 . S
C5705 H5684 0.952 . S
C5705 C5704 1.372 . S
C5705 C5706 1.389 . S
C5706 H5685 0.949 . S
C5706 C5705 1.389 . S
C5706 C5707 1.387 . S
C5707 C5706 1.387 . S
C5707 C5708 1.372 . S
C5708 H5686 0.950 . S
C5708 C5707 1.372 . S
C5708 C5709 1.379 . S
C5709 H5687 0.948 . S
C5709 C5704 1.364 . S
C5709 C5708 1.379 . S
C5710 C5679 1.383 . S
C5710 C5697 1.479 . S
C5710 C5711 1.398 . S
C5711 C5676 1.382 . S
C5711 H5688 0.951 . S
C5711 C5710 1.398 . S
C5712 C5713 1.384 . S
C5712 H5725 0.947 . S
C5712 C5747 1.382 . S
C5713 C5712 1.384 . S
C5713 C5714 1.378 . S
C5714 C5713 1.378 . S
C5714 C5715 1.378 . S
C5714 H5726 0.952 . S
C5715 C5714 1.378 . S
C5715 H5727 0.950 . S
C5715 C5746 1.383 . S
H5716 C5735 0.947 . S
H5717 C5736 0.946 . S
H5718 C5738 0.953 . S
H5719 C5739 0.945 . S
H5720 C5741 0.952 . S
H5721 C5742 0.949 . S
H5722 C5744 0.950 . S
H5723 C5745 0.948 . S
H5724 C5747 0.951 . S
H5725 C5712 0.947 . S
H5726 C5714 0.952 . S
H5727 C5715 0.950 . S
N5728 C5731 1.382 . S
N5728 C5733 1.363 . S
N5729 C5731 1.371 . S
N5729 C5732 1.372 . S
N5730 C5732 1.361 . S
N5730 C5733 1.377 . S
C5731 N5728 1.382 . S
C5731 N5729 1.371 . S
C5731 C5734 1.480 . S
C5732 N5729 1.372 . S
C5732 N5730 1.361 . S
C5732 C5740 1.457 . S
C5733 N5728 1.363 . S
C5733 N5730 1.377 . S
C5733 C5746 1.479 . S
C5734 C5731 1.480 . S
C5734 C5735 1.383 . S
C5734 C5739 1.385 . S
C5735 H5716 0.947 . S
C5735 C5734 1.383 . S
C5735 C5736 1.388 . S
C5736 H5717 0.946 . S
C5736 C5735 1.388 . S
C5736 C5737 1.384 . S
C5737 C5736 1.384 . S
C5737 C5738 1.377 . S
C5738 H5718 0.953 . S
C5738 C5737 1.377 . S
C5738 C5739 1.369 . S
C5739 H5719 0.945 . S
C5739 C5734 1.385 . S
C5739 C5738 1.369 . S
C5740 C5732 1.457 . S
C5740 C5741 1.372 . S
C5740 C5745 1.364 . S
C5741 H5720 0.952 . S
C5741 C5740 1.372 . S
C5741 C5742 1.389 . S
C5742 H5721 0.949 . S
C5742 C5741 1.389 . S
C5742 C5743 1.387 . S
C5743 C5742 1.387 . S
C5743 C5744 1.372 . S
C5744 H5722 0.950 . S
C5744 C5743 1.372 . S
C5744 C5745 1.379 . S
C5745 H5723 0.948 . S
C5745 C5740 1.364 . S
C5745 C5744 1.379 . S
C5746 C5715 1.383 . S
C5746 C5733 1.479 . S
C5746 C5747 1.398 . S
C5747 C5712 1.382 . S
C5747 H5724 0.951 . S
C5747 C5746 1.398 . S
C5748 C5749 1.384 . S
C5748 H5761 0.947 . S
C5748 C5783 1.382 . S
C5749 C5748 1.384 . S
C5749 C5750 1.378 . S
C5750 C5749 1.378 . S
C5750 C5751 1.378 . S
C5750 H5762 0.952 . S
C5751 C5750 1.378 . S
C5751 H5763 0.950 . S
C5751 C5782 1.383 . S
H5752 C5771 0.947 . S
H5753 C5772 0.946 . S
H5754 C5774 0.953 . S
H5755 C5775 0.945 . S
H5756 C5777 0.952 . S
H5757 C5778 0.949 . S
H5758 C5780 0.950 . S
H5759 C5781 0.948 . S
H5760 C5783 0.951 . S
H5761 C5748 0.947 . S
H5762 C5750 0.952 . S
H5763 C5751 0.950 . S
N5764 C5767 1.382 . S
N5764 C5769 1.363 . S
N5765 C5767 1.371 . S
N5765 C5768 1.372 . S
N5766 C5768 1.361 . S
N5766 C5769 1.377 . S
C5767 N5764 1.382 . S
C5767 N5765 1.371 . S
C5767 C5770 1.480 . S
C5768 N5765 1.372 . S
C5768 N5766 1.361 . S
C5768 C5776 1.457 . S
C5769 N5764 1.363 . S
C5769 N5766 1.377 . S
C5769 C5782 1.479 . S
C5770 C5767 1.480 . S
C5770 C5771 1.383 . S
C5770 C5775 1.385 . S
C5771 H5752 0.947 . S
C5771 C5770 1.383 . S
C5771 C5772 1.388 . S
C5772 H5753 0.946 . S
C5772 C5771 1.388 . S
C5772 C5773 1.384 . S
C5773 C5772 1.384 . S
C5773 C5774 1.377 . S
C5774 H5754 0.953 . S
C5774 C5773 1.377 . S
C5774 C5775 1.369 . S
C5775 H5755 0.945 . S
C5775 C5770 1.385 . S
C5775 C5774 1.369 . S
C5776 C5768 1.457 . S
C5776 C5777 1.372 . S
C5776 C5781 1.364 . S
C5777 H5756 0.952 . S
C5777 C5776 1.372 . S
C5777 C5778 1.389 . S
C5778 H5757 0.949 . S
C5778 C5777 1.389 . S
C5778 C5779 1.387 . S
C5779 C5778 1.387 . S
C5779 C5780 1.372 . S
C5780 H5758 0.950 . S
C5780 C5779 1.372 . S
C5780 C5781 1.379 . S
C5781 H5759 0.948 . S
C5781 C5776 1.364 . S
C5781 C5780 1.379 . S
C5782 C5751 1.383 . S
C5782 C5769 1.479 . S
C5782 C5783 1.398 . S
C5783 C5748 1.382 . S
C5783 H5760 0.951 . S
C5783 C5782 1.398 . S
C5784 C5785 1.384 . S
C5784 H5797 0.947 . S
C5784 C5819 1.382 . S
C5785 C5784 1.384 . S
C5785 C5786 1.378 . S
C5786 C5785 1.378 . S
C5786 C5787 1.378 . S
C5786 H5798 0.952 . S
C5787 C5786 1.378 . S
C5787 H5799 0.950 . S
C5787 C5818 1.383 . S
H5788 C5807 0.947 . S
H5789 C5808 0.946 . S
H5790 C5810 0.953 . S
H5791 C5811 0.945 . S
H5792 C5813 0.952 . S
H5793 C5814 0.949 . S
H5794 C5816 0.950 . S
H5795 C5817 0.948 . S
H5796 C5819 0.951 . S
H5797 C5784 0.947 . S
H5798 C5786 0.952 . S
H5799 C5787 0.950 . S
N5800 C5803 1.382 . S
N5800 C5805 1.363 . S
N5801 C5803 1.371 . S
N5801 C5804 1.372 . S
N5802 C5804 1.361 . S
N5802 C5805 1.377 . S
C5803 N5800 1.382 . S
C5803 N5801 1.371 . S
C5803 C5806 1.480 . S
C5804 N5801 1.372 . S
C5804 N5802 1.361 . S
C5804 C5812 1.457 . S
C5805 N5800 1.363 . S
C5805 N5802 1.377 . S
C5805 C5818 1.479 . S
C5806 C5803 1.480 . S
C5806 C5807 1.383 . S
C5806 C5811 1.385 . S
C5807 H5788 0.947 . S
C5807 C5806 1.383 . S
C5807 C5808 1.388 . S
C5808 H5789 0.946 . S
C5808 C5807 1.388 . S
C5808 C5809 1.384 . S
C5809 C5808 1.384 . S
C5809 C5810 1.377 . S
C5810 H5790 0.953 . S
C5810 C5809 1.377 . S
C5810 C5811 1.369 . S
C5811 H5791 0.945 . S
C5811 C5806 1.385 . S
C5811 C5810 1.369 . S
C5812 C5804 1.457 . S
C5812 C5813 1.372 . S
C5812 C5817 1.364 . S
C5813 H5792 0.952 . S
C5813 C5812 1.372 . S
C5813 C5814 1.389 . S
C5814 H5793 0.949 . S
C5814 C5813 1.389 . S
C5814 C5815 1.387 . S
C5815 C5814 1.387 . S
C5815 C5816 1.372 . S
C5816 H5794 0.950 . S
C5816 C5815 1.372 . S
C5816 C5817 1.379 . S
C5817 H5795 0.948 . S
C5817 C5812 1.364 . S
C5817 C5816 1.379 . S
C5818 C5787 1.383 . S
C5818 C5805 1.479 . S
C5818 C5819 1.398 . S
C5819 C5784 1.382 . S
C5819 H5796 0.951 . S
C5819 C5818 1.398 . S
C5820 C5821 1.384 . S
C5820 H5833 0.947 . S
C5820 C5855 1.382 . S
C5821 C5820 1.384 . S
C5821 C5822 1.378 . S
C5822 C5821 1.378 . S
C5822 C5823 1.378 . S
C5822 H5834 0.952 . S
C5823 C5822 1.378 . S
C5823 H5835 0.950 . S
C5823 C5854 1.383 . S
H5824 C5843 0.947 . S
H5825 C5844 0.946 . S
H5826 C5846 0.953 . S
H5827 C5847 0.945 . S
H5828 C5849 0.952 . S
H5829 C5850 0.949 . S
H5830 C5852 0.950 . S
H5831 C5853 0.948 . S
H5832 C5855 0.951 . S
H5833 C5820 0.947 . S
H5834 C5822 0.952 . S
H5835 C5823 0.950 . S
N5836 C5839 1.382 . S
N5836 C5841 1.363 . S
N5837 C5839 1.371 . S
N5837 C5840 1.372 . S
N5838 C5840 1.361 . S
N5838 C5841 1.377 . S
C5839 N5836 1.382 . S
C5839 N5837 1.371 . S
C5839 C5842 1.480 . S
C5840 N5837 1.372 . S
C5840 N5838 1.361 . S
C5840 C5848 1.457 . S
C5841 N5836 1.363 . S
C5841 N5838 1.377 . S
C5841 C5854 1.479 . S
C5842 C5839 1.480 . S
C5842 C5843 1.383 . S
C5842 C5847 1.385 . S
C5843 H5824 0.947 . S
C5843 C5842 1.383 . S
C5843 C5844 1.388 . S
C5844 H5825 0.946 . S
C5844 C5843 1.388 . S
C5844 C5845 1.384 . S
C5845 C5844 1.384 . S
C5845 C5846 1.377 . S
C5846 H5826 0.953 . S
C5846 C5845 1.377 . S
C5846 C5847 1.369 . S
C5847 H5827 0.945 . S
C5847 C5842 1.385 . S
C5847 C5846 1.369 . S
C5848 C5840 1.457 . S
C5848 C5849 1.372 . S
C5848 C5853 1.364 . S
C5849 H5828 0.952 . S
C5849 C5848 1.372 . S
C5849 C5850 1.389 . S
C5850 H5829 0.949 . S
C5850 C5849 1.389 . S
C5850 C5851 1.387 . S
C5851 C5850 1.387 . S
C5851 C5852 1.372 . S
C5852 H5830 0.950 . S
C5852 C5851 1.372 . S
C5852 C5853 1.379 . S
C5853 H5831 0.948 . S
C5853 C5848 1.364 . S
C5853 C5852 1.379 . S
C5854 C5823 1.383 . S
C5854 C5841 1.479 . S
C5854 C5855 1.398 . S
C5855 C5820 1.382 . S
C5855 H5832 0.951 . S
C5855 C5854 1.398 . S
C5856 C5857 1.384 . S
C5856 H5869 0.947 . S
C5856 C5891 1.382 . S
C5857 C5856 1.384 . S
C5857 C5858 1.378 . S
C5858 C5857 1.378 . S
C5858 C5859 1.378 . S
C5858 H5870 0.952 . S
C5859 C5858 1.378 . S
C5859 H5871 0.950 . S
C5859 C5890 1.383 . S
H5860 C5879 0.947 . S
H5861 C5880 0.946 . S
H5862 C5882 0.953 . S
H5863 C5883 0.945 . S
H5864 C5885 0.952 . S
H5865 C5886 0.949 . S
H5866 C5888 0.950 . S
H5867 C5889 0.948 . S
H5868 C5891 0.951 . S
H5869 C5856 0.947 . S
H5870 C5858 0.952 . S
H5871 C5859 0.950 . S
N5872 C5875 1.382 . S
N5872 C5877 1.363 . S
N5873 C5875 1.371 . S
N5873 C5876 1.372 . S
N5874 C5876 1.361 . S
N5874 C5877 1.377 . S
C5875 N5872 1.382 . S
C5875 N5873 1.371 . S
C5875 C5878 1.480 . S
C5876 N5873 1.372 . S
C5876 N5874 1.361 . S
C5876 C5884 1.457 . S
C5877 N5872 1.363 . S
C5877 N5874 1.377 . S
C5877 C5890 1.479 . S
C5878 C5875 1.480 . S
C5878 C5879 1.383 . S
C5878 C5883 1.385 . S
C5879 H5860 0.947 . S
C5879 C5878 1.383 . S
C5879 C5880 1.388 . S
C5880 H5861 0.946 . S
C5880 C5879 1.388 . S
C5880 C5881 1.384 . S
C5881 C5880 1.384 . S
C5881 C5882 1.377 . S
C5882 H5862 0.953 . S
C5882 C5881 1.377 . S
C5882 C5883 1.369 . S
C5883 H5863 0.945 . S
C5883 C5878 1.385 . S
C5883 C5882 1.369 . S
C5884 C5876 1.457 . S
C5884 C5885 1.372 . S
C5884 C5889 1.364 . S
C5885 H5864 0.952 . S
C5885 C5884 1.372 . S
C5885 C5886 1.389 . S
C5886 H5865 0.949 . S
C5886 C5885 1.389 . S
C5886 C5887 1.387 . S
C5887 C5886 1.387 . S
C5887 C5888 1.372 . S
C5888 H5866 0.950 . S
C5888 C5887 1.372 . S
C5888 C5889 1.379 . S
C5889 H5867 0.948 . S
C5889 C5884 1.364 . S
C5889 C5888 1.379 . S
C5890 C5859 1.383 . S
C5890 C5877 1.479 . S
C5890 C5891 1.398 . S
C5891 C5856 1.382 . S
C5891 H5868 0.951 . S
C5891 C5890 1.398 . S
C5892 C5893 1.384 . S
C5892 H5905 0.947 . S
C5892 C5927 1.382 . S
C5893 C5892 1.384 . S
C5893 C5894 1.378 . S
C5894 C5893 1.378 . S
C5894 C5895 1.378 . S
C5894 H5906 0.952 . S
C5895 C5894 1.378 . S
C5895 H5907 0.950 . S
C5895 C5926 1.383 . S
H5896 C5915 0.947 . S
H5897 C5916 0.946 . S
H5898 C5918 0.953 . S
H5899 C5919 0.945 . S
H5900 C5921 0.952 . S
H5901 C5922 0.949 . S
H5902 C5924 0.950 . S
H5903 C5925 0.948 . S
H5904 C5927 0.951 . S
H5905 C5892 0.947 . S
H5906 C5894 0.952 . S
H5907 C5895 0.950 . S
N5908 C5911 1.382 . S
N5908 C5913 1.363 . S
N5909 C5911 1.371 . S
N5909 C5912 1.372 . S
N5910 C5912 1.361 . S
N5910 C5913 1.377 . S
C5911 N5908 1.382 . S
C5911 N5909 1.371 . S
C5911 C5914 1.480 . S
C5912 N5909 1.372 . S
C5912 N5910 1.361 . S
C5912 C5920 1.457 . S
C5913 N5908 1.363 . S
C5913 N5910 1.377 . S
C5913 C5926 1.479 . S
C5914 C5911 1.480 . S
C5914 C5915 1.383 . S
C5914 C5919 1.385 . S
C5915 H5896 0.947 . S
C5915 C5914 1.383 . S
C5915 C5916 1.388 . S
C5916 H5897 0.946 . S
C5916 C5915 1.388 . S
C5916 C5917 1.384 . S
C5917 C5916 1.384 . S
C5917 C5918 1.377 . S
C5918 H5898 0.953 . S
C5918 C5917 1.377 . S
C5918 C5919 1.369 . S
C5919 H5899 0.945 . S
C5919 C5914 1.385 . S
C5919 C5918 1.369 . S
C5920 C5912 1.457 . S
C5920 C5921 1.372 . S
C5920 C5925 1.364 . S
C5921 H5900 0.952 . S
C5921 C5920 1.372 . S
C5921 C5922 1.389 . S
C5922 H5901 0.949 . S
C5922 C5921 1.389 . S
C5922 C5923 1.387 . S
C5923 C5922 1.387 . S
C5923 C5924 1.372 . S
C5924 H5902 0.950 . S
C5924 C5923 1.372 . S
C5924 C5925 1.379 . S
C5925 H5903 0.948 . S
C5925 C5920 1.364 . S
C5925 C5924 1.379 . S
C5926 C5895 1.383 . S
C5926 C5913 1.479 . S
C5926 C5927 1.398 . S
C5927 C5892 1.382 . S
C5927 H5904 0.951 . S
C5927 C5926 1.398 . S
C5928 C5929 1.384 . S
C5928 H5941 0.947 . S
C5928 C5963 1.382 . S
C5929 C5928 1.384 . S
C5929 C5930 1.378 . S
C5930 C5929 1.378 . S
C5930 C5931 1.378 . S
C5930 H5942 0.952 . S
C5931 C5930 1.378 . S
C5931 H5943 0.950 . S
C5931 C5962 1.383 . S
H5932 C5951 0.947 . S
H5933 C5952 0.946 . S
H5934 C5954 0.953 . S
H5935 C5955 0.945 . S
H5936 C5957 0.952 . S
H5937 C5958 0.949 . S
H5938 C5960 0.950 . S
H5939 C5961 0.948 . S
H5940 C5963 0.951 . S
H5941 C5928 0.947 . S
H5942 C5930 0.952 . S
H5943 C5931 0.950 . S
N5944 C5947 1.382 . S
N5944 C5949 1.363 . S
N5945 C5947 1.371 . S
N5945 C5948 1.372 . S
N5946 C5948 1.361 . S
N5946 C5949 1.377 . S
C5947 N5944 1.382 . S
C5947 N5945 1.371 . S
C5947 C5950 1.480 . S
C5948 N5945 1.372 . S
C5948 N5946 1.361 . S
C5948 C5956 1.457 . S
C5949 N5944 1.363 . S
C5949 N5946 1.377 . S
C5949 C5962 1.479 . S
C5950 C5947 1.480 . S
C5950 C5951 1.383 . S
C5950 C5955 1.385 . S
C5951 H5932 0.947 . S
C5951 C5950 1.383 . S
C5951 C5952 1.388 . S
C5952 H5933 0.946 . S
C5952 C5951 1.388 . S
C5952 C5953 1.384 . S
C5953 C5952 1.384 . S
C5953 C5954 1.377 . S
C5954 H5934 0.953 . S
C5954 C5953 1.377 . S
C5954 C5955 1.369 . S
C5955 H5935 0.945 . S
C5955 C5950 1.385 . S
C5955 C5954 1.369 . S
C5956 C5948 1.457 . S
C5956 C5957 1.372 . S
C5956 C5961 1.364 . S
C5957 H5936 0.952 . S
C5957 C5956 1.372 . S
C5957 C5958 1.389 . S
C5958 H5937 0.949 . S
C5958 C5957 1.389 . S
C5958 C5959 1.387 . S
C5959 C5958 1.387 . S
C5959 C5960 1.372 . S
C5960 H5938 0.950 . S
C5960 C5959 1.372 . S
C5960 C5961 1.379 . S
C5961 H5939 0.948 . S
C5961 C5956 1.364 . S
C5961 C5960 1.379 . S
C5962 C5931 1.383 . S
C5962 C5949 1.479 . S
C5962 C5963 1.398 . S
C5963 C5928 1.382 . S
C5963 H5940 0.951 . S
C5963 C5962 1.398 . S
C5964 C5965 1.384 . S
C5964 H5977 0.947 . S
C5964 C5999 1.382 . S
C5965 C5964 1.384 . S
C5965 C5966 1.378 . S
C5966 C5965 1.378 . S
C5966 C5967 1.378 . S
C5966 H5978 0.952 . S
C5967 C5966 1.378 . S
C5967 H5979 0.950 . S
C5967 C5998 1.383 . S
H5968 C5987 0.947 . S
H5969 C5988 0.946 . S
H5970 C5990 0.953 . S
H5971 C5991 0.945 . S
H5972 C5993 0.952 . S
H5973 C5994 0.949 . S
H5974 C5996 0.950 . S
H5975 C5997 0.948 . S
H5976 C5999 0.951 . S
H5977 C5964 0.947 . S
H5978 C5966 0.952 . S
H5979 C5967 0.950 . S
N5980 C5983 1.382 . S
N5980 C5985 1.363 . S
N5981 C5983 1.371 . S
N5981 C5984 1.372 . S
N5982 C5984 1.361 . S
N5982 C5985 1.377 . S
C5983 N5980 1.382 . S
C5983 N5981 1.371 . S
C5983 C5986 1.480 . S
C5984 N5981 1.372 . S
C5984 N5982 1.361 . S
C5984 C5992 1.457 . S
C5985 N5980 1.363 . S
C5985 N5982 1.377 . S
C5985 C5998 1.479 . S
C5986 C5983 1.480 . S
C5986 C5987 1.383 . S
C5986 C5991 1.385 . S
C5987 H5968 0.947 . S
C5987 C5986 1.383 . S
C5987 C5988 1.388 . S
C5988 H5969 0.946 . S
C5988 C5987 1.388 . S
C5988 C5989 1.384 . S
C5989 C5988 1.384 . S
C5989 C5990 1.377 . S
C5990 H5970 0.953 . S
C5990 C5989 1.377 . S
C5990 C5991 1.369 . S
C5991 H5971 0.945 . S
C5991 C5986 1.385 . S
C5991 C5990 1.369 . S
C5992 C5984 1.457 . S
C5992 C5993 1.372 . S
C5992 C5997 1.364 . S
C5993 H5972 0.952 . S
C5993 C5992 1.372 . S
C5993 C5994 1.389 . S
C5994 H5973 0.949 . S
C5994 C5993 1.389 . S
C5994 C5995 1.387 . S
C5995 C5994 1.387 . S
C5995 C5996 1.372 . S
C5996 H5974 0.950 . S
C5996 C5995 1.372 . S
C5996 C5997 1.379 . S
C5997 H5975 0.948 . S
C5997 C5992 1.364 . S
C5997 C5996 1.379 . S
C5998 C5967 1.383 . S
C5998 C5985 1.479 . S
C5998 C5999 1.398 . S
C5999 C5964 1.382 . S
C5999 H5976 0.951 . S
C5999 C5998 1.398 . S
C6000 C6001 1.384 . S
C6000 H6013 0.947 . S
C6000 C6035 1.382 . S
C6001 C6000 1.384 . S
C6001 C6002 1.378 . S
C6002 C6001 1.378 . S
C6002 C6003 1.378 . S
C6002 H6014 0.952 . S
C6003 C6002 1.378 . S
C6003 H6015 0.950 . S
C6003 C6034 1.383 . S
H6004 C6023 0.947 . S
H6005 C6024 0.946 . S
H6006 C6026 0.953 . S
H6007 C6027 0.945 . S
H6008 C6029 0.952 . S
H6009 C6030 0.949 . S
H6010 C6032 0.950 . S
H6011 C6033 0.948 . S
H6012 C6035 0.951 . S
H6013 C6000 0.947 . S
H6014 C6002 0.952 . S
H6015 C6003 0.950 . S
N6016 C6019 1.382 . S
N6016 C6021 1.363 . S
N6017 C6019 1.371 . S
N6017 C6020 1.372 . S
N6018 C6020 1.361 . S
N6018 C6021 1.377 . S
C6019 N6016 1.382 . S
C6019 N6017 1.371 . S
C6019 C6022 1.480 . S
C6020 N6017 1.372 . S
C6020 N6018 1.361 . S
C6020 C6028 1.457 . S
C6021 N6016 1.363 . S
C6021 N6018 1.377 . S
C6021 C6034 1.479 . S
C6022 C6019 1.480 . S
C6022 C6023 1.383 . S
C6022 C6027 1.385 . S
C6023 H6004 0.947 . S
C6023 C6022 1.383 . S
C6023 C6024 1.388 . S
C6024 H6005 0.946 . S
C6024 C6023 1.388 . S
C6024 C6025 1.384 . S
C6025 C6024 1.384 . S
C6025 C6026 1.377 . S
C6026 H6006 0.953 . S
C6026 C6025 1.377 . S
C6026 C6027 1.369 . S
C6027 H6007 0.945 . S
C6027 C6022 1.385 . S
C6027 C6026 1.369 . S
C6028 C6020 1.457 . S
C6028 C6029 1.372 . S
C6028 C6033 1.364 . S
C6029 H6008 0.952 . S
C6029 C6028 1.372 . S
C6029 C6030 1.389 . S
C6030 H6009 0.949 . S
C6030 C6029 1.389 . S
C6030 C6031 1.387 . S
C6031 C6030 1.387 . S
C6031 C6032 1.372 . S
C6032 H6010 0.950 . S
C6032 C6031 1.372 . S
C6032 C6033 1.379 . S
C6033 H6011 0.948 . S
C6033 C6028 1.364 . S
C6033 C6032 1.379 . S
C6034 C6003 1.383 . S
C6034 C6021 1.479 . S
C6034 C6035 1.398 . S
C6035 C6000 1.382 . S
C6035 H6012 0.951 . S
C6035 C6034 1.398 . S
C6036 C6037 1.384 . S
C6036 H6049 0.947 . S
C6036 C6071 1.382 . S
C6037 C6036 1.384 . S
C6037 C6038 1.378 . S
C6038 C6037 1.378 . S
C6038 C6039 1.378 . S
C6038 H6050 0.952 . S
C6039 C6038 1.378 . S
C6039 H6051 0.950 . S
C6039 C6070 1.383 . S
H6040 C6059 0.947 . S
H6041 C6060 0.946 . S
H6042 C6062 0.953 . S
H6043 C6063 0.945 . S
H6044 C6065 0.952 . S
H6045 C6066 0.949 . S
H6046 C6068 0.950 . S
H6047 C6069 0.948 . S
H6048 C6071 0.951 . S
H6049 C6036 0.947 . S
H6050 C6038 0.952 . S
H6051 C6039 0.950 . S
N6052 C6055 1.382 . S
N6052 C6057 1.363 . S
N6053 C6055 1.371 . S
N6053 C6056 1.372 . S
N6054 C6056 1.361 . S
N6054 C6057 1.377 . S
C6055 N6052 1.382 . S
C6055 N6053 1.371 . S
C6055 C6058 1.480 . S
C6056 N6053 1.372 . S
C6056 N6054 1.361 . S
C6056 C6064 1.457 . S
C6057 N6052 1.363 . S
C6057 N6054 1.377 . S
C6057 C6070 1.479 . S
C6058 C6055 1.480 . S
C6058 C6059 1.383 . S
C6058 C6063 1.385 . S
C6059 H6040 0.947 . S
C6059 C6058 1.383 . S
C6059 C6060 1.388 . S
C6060 H6041 0.946 . S
C6060 C6059 1.388 . S
C6060 C6061 1.384 . S
C6061 C6060 1.384 . S
C6061 C6062 1.377 . S
C6062 H6042 0.953 . S
C6062 C6061 1.377 . S
C6062 C6063 1.369 . S
C6063 H6043 0.945 . S
C6063 C6058 1.385 . S
C6063 C6062 1.369 . S
C6064 C6056 1.457 . S
C6064 C6065 1.372 . S
C6064 C6069 1.364 . S
C6065 H6044 0.952 . S
C6065 C6064 1.372 . S
C6065 C6066 1.389 . S
C6066 H6045 0.949 . S
C6066 C6065 1.389 . S
C6066 C6067 1.387 . S
C6067 C6066 1.387 . S
C6067 C6068 1.372 . S
C6068 H6046 0.950 . S
C6068 C6067 1.372 . S
C6068 C6069 1.379 . S
C6069 H6047 0.948 . S
C6069 C6064 1.364 . S
C6069 C6068 1.379 . S
C6070 C6039 1.383 . S
C6070 C6057 1.479 . S
C6070 C6071 1.398 . S
C6071 C6036 1.382 . S
C6071 H6048 0.951 . S
C6071 C6070 1.398 . S
C6072 C6073 1.384 . S
C6072 H6085 0.947 . S
C6072 C6107 1.382 . S
C6073 C6072 1.384 . S
C6073 C6074 1.378 . S
C6074 C6073 1.378 . S
C6074 C6075 1.378 . S
C6074 H6086 0.952 . S
C6075 C6074 1.378 . S
C6075 H6087 0.950 . S
C6075 C6106 1.383 . S
H6076 C6095 0.947 . S
H6077 C6096 0.946 . S
H6078 C6098 0.953 . S
H6079 C6099 0.945 . S
H6080 C6101 0.952 . S
H6081 C6102 0.949 . S
H6082 C6104 0.950 . S
H6083 C6105 0.948 . S
H6084 C6107 0.951 . S
H6085 C6072 0.947 . S
H6086 C6074 0.952 . S
H6087 C6075 0.950 . S
N6088 C6091 1.382 . S
N6088 C6093 1.363 . S
N6089 C6091 1.371 . S
N6089 C6092 1.372 . S
N6090 C6092 1.361 . S
N6090 C6093 1.377 . S
C6091 N6088 1.382 . S
C6091 N6089 1.371 . S
C6091 C6094 1.480 . S
C6092 N6089 1.372 . S
C6092 N6090 1.361 . S
C6092 C6100 1.457 . S
C6093 N6088 1.363 . S
C6093 N6090 1.377 . S
C6093 C6106 1.479 . S
C6094 C6091 1.480 . S
C6094 C6095 1.383 . S
C6094 C6099 1.385 . S
C6095 H6076 0.947 . S
C6095 C6094 1.383 . S
C6095 C6096 1.388 . S
C6096 H6077 0.946 . S
C6096 C6095 1.388 . S
C6096 C6097 1.384 . S
C6097 C6096 1.384 . S
C6097 C6098 1.377 . S
C6098 H6078 0.953 . S
C6098 C6097 1.377 . S
C6098 C6099 1.369 . S
C6099 H6079 0.945 . S
C6099 C6094 1.385 . S
C6099 C6098 1.369 . S
C6100 C6092 1.457 . S
C6100 C6101 1.372 . S
C6100 C6105 1.364 . S
C6101 H6080 0.952 . S
C6101 C6100 1.372 . S
C6101 C6102 1.389 . S
C6102 H6081 0.949 . S
C6102 C6101 1.389 . S
C6102 C6103 1.387 . S
C6103 C6102 1.387 . S
C6103 C6104 1.372 . S
C6104 H6082 0.950 . S
C6104 C6103 1.372 . S
C6104 C6105 1.379 . S
C6105 H6083 0.948 . S
C6105 C6100 1.364 . S
C6105 C6104 1.379 . S
C6106 C6075 1.383 . S
C6106 C6093 1.479 . S
C6106 C6107 1.398 . S
C6107 C6072 1.382 . S
C6107 H6084 0.951 . S
C6107 C6106 1.398 . S
C6108 C6109 1.384 . S
C6108 H6121 0.947 . S
C6108 C6143 1.382 . S
C6109 C6108 1.384 . S
C6109 C6110 1.378 . S
C6110 C6109 1.378 . S
C6110 C6111 1.378 . S
C6110 H6122 0.952 . S
C6111 C6110 1.378 . S
C6111 H6123 0.950 . S
C6111 C6142 1.383 . S
H6112 C6131 0.947 . S
H6113 C6132 0.946 . S
H6114 C6134 0.953 . S
H6115 C6135 0.945 . S
H6116 C6137 0.952 . S
H6117 C6138 0.949 . S
H6118 C6140 0.950 . S
H6119 C6141 0.948 . S
H6120 C6143 0.951 . S
H6121 C6108 0.947 . S
H6122 C6110 0.952 . S
H6123 C6111 0.950 . S
N6124 C6127 1.382 . S
N6124 C6129 1.363 . S
N6125 C6127 1.371 . S
N6125 C6128 1.372 . S
N6126 C6128 1.361 . S
N6126 C6129 1.377 . S
C6127 N6124 1.382 . S
C6127 N6125 1.371 . S
C6127 C6130 1.480 . S
C6128 N6125 1.372 . S
C6128 N6126 1.361 . S
C6128 C6136 1.457 . S
C6129 N6124 1.363 . S
C6129 N6126 1.377 . S
C6129 C6142 1.479 . S
C6130 C6127 1.480 . S
C6130 C6131 1.383 . S
C6130 C6135 1.385 . S
C6131 H6112 0.947 . S
C6131 C6130 1.383 . S
C6131 C6132 1.388 . S
C6132 H6113 0.946 . S
C6132 C6131 1.388 . S
C6132 C6133 1.384 . S
C6133 C6132 1.384 . S
C6133 C6134 1.377 . S
C6134 H6114 0.953 . S
C6134 C6133 1.377 . S
C6134 C6135 1.369 . S
C6135 H6115 0.945 . S
C6135 C6130 1.385 . S
C6135 C6134 1.369 . S
C6136 C6128 1.457 . S
C6136 C6137 1.372 . S
C6136 C6141 1.364 . S
C6137 H6116 0.952 . S
C6137 C6136 1.372 . S
C6137 C6138 1.389 . S
C6138 H6117 0.949 . S
C6138 C6137 1.389 . S
C6138 C6139 1.387 . S
C6139 C6138 1.387 . S
C6139 C6140 1.372 . S
C6140 H6118 0.950 . S
C6140 C6139 1.372 . S
C6140 C6141 1.379 . S
C6141 H6119 0.948 . S
C6141 C6136 1.364 . S
C6141 C6140 1.379 . S
C6142 C6111 1.383 . S
C6142 C6129 1.479 . S
C6142 C6143 1.398 . S
C6143 C6108 1.382 . S
C6143 H6120 0.951 . S
C6143 C6142 1.398 . S
C6144 C6145 1.384 . S
C6144 H6157 0.947 . S
C6144 C6179 1.382 . S
C6145 C6144 1.384 . S
C6145 C6146 1.378 . S
C6146 C6145 1.378 . S
C6146 C6147 1.378 . S
C6146 H6158 0.952 . S
C6147 C6146 1.378 . S
C6147 H6159 0.950 . S
C6147 C6178 1.383 . S
H6148 C6167 0.947 . S
H6149 C6168 0.946 . S
H6150 C6170 0.953 . S
H6151 C6171 0.945 . S
H6152 C6173 0.952 . S
H6153 C6174 0.949 . S
H6154 C6176 0.950 . S
H6155 C6177 0.948 . S
H6156 C6179 0.951 . S
H6157 C6144 0.947 . S
H6158 C6146 0.952 . S
H6159 C6147 0.950 . S
N6160 C6163 1.382 . S
N6160 C6165 1.363 . S
N6161 C6163 1.371 . S
N6161 C6164 1.372 . S
N6162 C6164 1.361 . S
N6162 C6165 1.377 . S
C6163 N6160 1.382 . S
C6163 N6161 1.371 . S
C6163 C6166 1.480 . S
C6164 N6161 1.372 . S
C6164 N6162 1.361 . S
C6164 C6172 1.457 . S
C6165 N6160 1.363 . S
C6165 N6162 1.377 . S
C6165 C6178 1.479 . S
C6166 C6163 1.480 . S
C6166 C6167 1.383 . S
C6166 C6171 1.385 . S
C6167 H6148 0.947 . S
C6167 C6166 1.383 . S
C6167 C6168 1.388 . S
C6168 H6149 0.946 . S
C6168 C6167 1.388 . S
C6168 C6169 1.384 . S
C6169 C6168 1.384 . S
C6169 C6170 1.377 . S
C6170 H6150 0.953 . S
C6170 C6169 1.377 . S
C6170 C6171 1.369 . S
C6171 H6151 0.945 . S
C6171 C6166 1.385 . S
C6171 C6170 1.369 . S
C6172 C6164 1.457 . S
C6172 C6173 1.372 . S
C6172 C6177 1.364 . S
C6173 H6152 0.952 . S
C6173 C6172 1.372 . S
C6173 C6174 1.389 . S
C6174 H6153 0.949 . S
C6174 C6173 1.389 . S
C6174 C6175 1.387 . S
C6175 C6174 1.387 . S
C6175 C6176 1.372 . S
C6176 H6154 0.950 . S
C6176 C6175 1.372 . S
C6176 C6177 1.379 . S
C6177 H6155 0.948 . S
C6177 C6172 1.364 . S
C6177 C6176 1.379 . S
C6178 C6147 1.383 . S
C6178 C6165 1.479 . S
C6178 C6179 1.398 . S
C6179 C6144 1.382 . S
C6179 H6156 0.951 . S
C6179 C6178 1.398 . S
C6180 C6181 1.384 . S
C6180 H6193 0.947 . S
C6180 C6215 1.382 . S
C6181 C6180 1.384 . S
C6181 C6182 1.378 . S
C6182 C6181 1.378 . S
C6182 C6183 1.378 . S
C6182 H6194 0.952 . S
C6183 C6182 1.378 . S
C6183 H6195 0.950 . S
C6183 C6214 1.383 . S
H6184 C6203 0.947 . S
H6185 C6204 0.946 . S
H6186 C6206 0.953 . S
H6187 C6207 0.945 . S
H6188 C6209 0.952 . S
H6189 C6210 0.949 . S
H6190 C6212 0.950 . S
H6191 C6213 0.948 . S
H6192 C6215 0.951 . S
H6193 C6180 0.947 . S
H6194 C6182 0.952 . S
H6195 C6183 0.950 . S
N6196 C6199 1.382 . S
N6196 C6201 1.363 . S
N6197 C6199 1.371 . S
N6197 C6200 1.372 . S
N6198 C6200 1.361 . S
N6198 C6201 1.377 . S
C6199 N6196 1.382 . S
C6199 N6197 1.371 . S
C6199 C6202 1.480 . S
C6200 N6197 1.372 . S
C6200 N6198 1.361 . S
C6200 C6208 1.457 . S
C6201 N6196 1.363 . S
C6201 N6198 1.377 . S
C6201 C6214 1.479 . S
C6202 C6199 1.480 . S
C6202 C6203 1.383 . S
C6202 C6207 1.385 . S
C6203 H6184 0.947 . S
C6203 C6202 1.383 . S
C6203 C6204 1.388 . S
C6204 H6185 0.946 . S
C6204 C6203 1.388 . S
C6204 C6205 1.384 . S
C6205 C6204 1.384 . S
C6205 C6206 1.377 . S
C6206 H6186 0.953 . S
C6206 C6205 1.377 . S
C6206 C6207 1.369 . S
C6207 H6187 0.945 . S
C6207 C6202 1.385 . S
C6207 C6206 1.369 . S
C6208 C6200 1.457 . S
C6208 C6209 1.372 . S
C6208 C6213 1.364 . S
C6209 H6188 0.952 . S
C6209 C6208 1.372 . S
C6209 C6210 1.389 . S
C6210 H6189 0.949 . S
C6210 C6209 1.389 . S
C6210 C6211 1.387 . S
C6211 C6210 1.387 . S
C6211 C6212 1.372 . S
C6212 H6190 0.950 . S
C6212 C6211 1.372 . S
C6212 C6213 1.379 . S
C6213 H6191 0.948 . S
C6213 C6208 1.364 . S
C6213 C6212 1.379 . S
C6214 C6183 1.383 . S
C6214 C6201 1.479 . S
C6214 C6215 1.398 . S
C6215 C6180 1.382 . S
C6215 H6192 0.951 . S
C6215 C6214 1.398 . S
C6216 C6217 1.384 . S
C6216 H6229 0.947 . S
C6216 C6251 1.382 . S
C6217 C6216 1.384 . S
C6217 C6218 1.378 . S
C6218 C6217 1.378 . S
C6218 C6219 1.378 . S
C6218 H6230 0.952 . S
C6219 C6218 1.378 . S
C6219 H6231 0.950 . S
C6219 C6250 1.383 . S
H6220 C6239 0.947 . S
H6221 C6240 0.946 . S
H6222 C6242 0.953 . S
H6223 C6243 0.945 . S
H6224 C6245 0.952 . S
H6225 C6246 0.949 . S
H6226 C6248 0.950 . S
H6227 C6249 0.948 . S
H6228 C6251 0.951 . S
H6229 C6216 0.947 . S
H6230 C6218 0.952 . S
H6231 C6219 0.950 . S
N6232 C6235 1.382 . S
N6232 C6237 1.363 . S
N6233 C6235 1.371 . S
N6233 C6236 1.372 . S
N6234 C6236 1.361 . S
N6234 C6237 1.377 . S
C6235 N6232 1.382 . S
C6235 N6233 1.371 . S
C6235 C6238 1.480 . S
C6236 N6233 1.372 . S
C6236 N6234 1.361 . S
C6236 C6244 1.457 . S
C6237 N6232 1.363 . S
C6237 N6234 1.377 . S
C6237 C6250 1.479 . S
C6238 C6235 1.480 . S
C6238 C6239 1.383 . S
C6238 C6243 1.385 . S
C6239 H6220 0.947 . S
C6239 C6238 1.383 . S
C6239 C6240 1.388 . S
C6240 H6221 0.946 . S
C6240 C6239 1.388 . S
C6240 C6241 1.384 . S
C6241 C6240 1.384 . S
C6241 C6242 1.377 . S
C6242 H6222 0.953 . S
C6242 C6241 1.377 . S
C6242 C6243 1.369 . S
C6243 H6223 0.945 . S
C6243 C6238 1.385 . S
C6243 C6242 1.369 . S
C6244 C6236 1.457 . S
C6244 C6245 1.372 . S
C6244 C6249 1.364 . S
C6245 H6224 0.952 . S
C6245 C6244 1.372 . S
C6245 C6246 1.389 . S
C6246 H6225 0.949 . S
C6246 C6245 1.389 . S
C6246 C6247 1.387 . S
C6247 C6246 1.387 . S
C6247 C6248 1.372 . S
C6248 H6226 0.950 . S
C6248 C6247 1.372 . S
C6248 C6249 1.379 . S
C6249 H6227 0.948 . S
C6249 C6244 1.364 . S
C6249 C6248 1.379 . S
C6250 C6219 1.383 . S
C6250 C6237 1.479 . S
C6250 C6251 1.398 . S
C6251 C6216 1.382 . S
C6251 H6228 0.951 . S
C6251 C6250 1.398 . S
C6252 C6253 1.384 . S
C6252 H6265 0.947 . S
C6252 C6287 1.382 . S
C6253 C6252 1.384 . S
C6253 C6254 1.378 . S
C6254 C6253 1.378 . S
C6254 C6255 1.378 . S
C6254 H6266 0.952 . S
C6255 C6254 1.378 . S
C6255 H6267 0.950 . S
C6255 C6286 1.383 . S
H6256 C6275 0.947 . S
H6257 C6276 0.946 . S
H6258 C6278 0.953 . S
H6259 C6279 0.945 . S
H6260 C6281 0.952 . S
H6261 C6282 0.949 . S
H6262 C6284 0.950 . S
H6263 C6285 0.948 . S
H6264 C6287 0.951 . S
H6265 C6252 0.947 . S
H6266 C6254 0.952 . S
H6267 C6255 0.950 . S
N6268 C6271 1.382 . S
N6268 C6273 1.363 . S
N6269 C6271 1.371 . S
N6269 C6272 1.372 . S
N6270 C6272 1.361 . S
N6270 C6273 1.377 . S
C6271 N6268 1.382 . S
C6271 N6269 1.371 . S
C6271 C6274 1.480 . S
C6272 N6269 1.372 . S
C6272 N6270 1.361 . S
C6272 C6280 1.457 . S
C6273 N6268 1.363 . S
C6273 N6270 1.377 . S
C6273 C6286 1.479 . S
C6274 C6271 1.480 . S
C6274 C6275 1.383 . S
C6274 C6279 1.385 . S
C6275 H6256 0.947 . S
C6275 C6274 1.383 . S
C6275 C6276 1.388 . S
C6276 H6257 0.946 . S
C6276 C6275 1.388 . S
C6276 C6277 1.384 . S
C6277 C6276 1.384 . S
C6277 C6278 1.377 . S
C6278 H6258 0.953 . S
C6278 C6277 1.377 . S
C6278 C6279 1.369 . S
C6279 H6259 0.945 . S
C6279 C6274 1.385 . S
C6279 C6278 1.369 . S
C6280 C6272 1.457 . S
C6280 C6281 1.372 . S
C6280 C6285 1.364 . S
C6281 H6260 0.952 . S
C6281 C6280 1.372 . S
C6281 C6282 1.389 . S
C6282 H6261 0.949 . S
C6282 C6281 1.389 . S
C6282 C6283 1.387 . S
C6283 C6282 1.387 . S
C6283 C6284 1.372 . S
C6284 H6262 0.950 . S
C6284 C6283 1.372 . S
C6284 C6285 1.379 . S
C6285 H6263 0.948 . S
C6285 C6280 1.364 . S
C6285 C6284 1.379 . S
C6286 C6255 1.383 . S
C6286 C6273 1.479 . S
C6286 C6287 1.398 . S
C6287 C6252 1.382 . S
C6287 H6264 0.951 . S
C6287 C6286 1.398 . S
C6288 C6289 1.384 . S
C6288 H6301 0.947 . S
C6288 C6323 1.382 . S
C6289 C6288 1.384 . S
C6289 C6290 1.378 . S
C6290 C6289 1.378 . S
C6290 C6291 1.378 . S
C6290 H6302 0.952 . S
C6291 C6290 1.378 . S
C6291 H6303 0.950 . S
C6291 C6322 1.383 . S
H6292 C6311 0.947 . S
H6293 C6312 0.946 . S
H6294 C6314 0.953 . S
H6295 C6315 0.945 . S
H6296 C6317 0.952 . S
H6297 C6318 0.949 . S
H6298 C6320 0.950 . S
H6299 C6321 0.948 . S
H6300 C6323 0.951 . S
H6301 C6288 0.947 . S
H6302 C6290 0.952 . S
H6303 C6291 0.950 . S
N6304 C6307 1.382 . S
N6304 C6309 1.363 . S
N6305 C6307 1.371 . S
N6305 C6308 1.372 . S
N6306 C6308 1.361 . S
N6306 C6309 1.377 . S
C6307 N6304 1.382 . S
C6307 N6305 1.371 . S
C6307 C6310 1.480 . S
C6308 N6305 1.372 . S
C6308 N6306 1.361 . S
C6308 C6316 1.457 . S
C6309 N6304 1.363 . S
C6309 N6306 1.377 . S
C6309 C6322 1.479 . S
C6310 C6307 1.480 . S
C6310 C6311 1.383 . S
C6310 C6315 1.385 . S
C6311 H6292 0.947 . S
C6311 C6310 1.383 . S
C6311 C6312 1.388 . S
C6312 H6293 0.946 . S
C6312 C6311 1.388 . S
C6312 C6313 1.384 . S
C6313 C6312 1.384 . S
C6313 C6314 1.377 . S
C6314 H6294 0.953 . S
C6314 C6313 1.377 . S
C6314 C6315 1.369 . S
C6315 H6295 0.945 . S
C6315 C6310 1.385 . S
C6315 C6314 1.369 . S
C6316 C6308 1.457 . S
C6316 C6317 1.372 . S
C6316 C6321 1.364 . S
C6317 H6296 0.952 . S
C6317 C6316 1.372 . S
C6317 C6318 1.389 . S
C6318 H6297 0.949 . S
C6318 C6317 1.389 . S
C6318 C6319 1.387 . S
C6319 C6318 1.387 . S
C6319 C6320 1.372 . S
C6320 H6298 0.950 . S
C6320 C6319 1.372 . S
C6320 C6321 1.379 . S
C6321 H6299 0.948 . S
C6321 C6316 1.364 . S
C6321 C6320 1.379 . S
C6322 C6291 1.383 . S
C6322 C6309 1.479 . S
C6322 C6323 1.398 . S
C6323 C6288 1.382 . S
C6323 H6300 0.951 . S
C6323 C6322 1.398 . S
C6324 C6325 1.384 . S
C6324 H6337 0.947 . S
C6324 C6359 1.382 . S
C6325 C6324 1.384 . S
C6325 C6326 1.378 . S
C6326 C6325 1.378 . S
C6326 C6327 1.378 . S
C6326 H6338 0.952 . S
C6327 C6326 1.378 . S
C6327 H6339 0.950 . S
C6327 C6358 1.383 . S
H6328 C6347 0.947 . S
H6329 C6348 0.946 . S
H6330 C6350 0.953 . S
H6331 C6351 0.945 . S
H6332 C6353 0.952 . S
H6333 C6354 0.949 . S
H6334 C6356 0.950 . S
H6335 C6357 0.948 . S
H6336 C6359 0.951 . S
H6337 C6324 0.947 . S
H6338 C6326 0.952 . S
H6339 C6327 0.950 . S
N6340 C6343 1.382 . S
N6340 C6345 1.363 . S
N6341 C6343 1.371 . S
N6341 C6344 1.372 . S
N6342 C6344 1.361 . S
N6342 C6345 1.377 . S
C6343 N6340 1.382 . S
C6343 N6341 1.371 . S
C6343 C6346 1.480 . S
C6344 N6341 1.372 . S
C6344 N6342 1.361 . S
C6344 C6352 1.457 . S
C6345 N6340 1.363 . S
C6345 N6342 1.377 . S
C6345 C6358 1.479 . S
C6346 C6343 1.480 . S
C6346 C6347 1.383 . S
C6346 C6351 1.385 . S
C6347 H6328 0.947 . S
C6347 C6346 1.383 . S
C6347 C6348 1.388 . S
C6348 H6329 0.946 . S
C6348 C6347 1.388 . S
C6348 C6349 1.384 . S
C6349 C6348 1.384 . S
C6349 C6350 1.377 . S
C6350 H6330 0.953 . S
C6350 C6349 1.377 . S
C6350 C6351 1.369 . S
C6351 H6331 0.945 . S
C6351 C6346 1.385 . S
C6351 C6350 1.369 . S
C6352 C6344 1.457 . S
C6352 C6353 1.372 . S
C6352 C6357 1.364 . S
C6353 H6332 0.952 . S
C6353 C6352 1.372 . S
C6353 C6354 1.389 . S
C6354 H6333 0.949 . S
C6354 C6353 1.389 . S
C6354 C6355 1.387 . S
C6355 C6354 1.387 . S
C6355 C6356 1.372 . S
C6356 H6334 0.950 . S
C6356 C6355 1.372 . S
C6356 C6357 1.379 . S
C6357 H6335 0.948 . S
C6357 C6352 1.364 . S
C6357 C6356 1.379 . S
C6358 C6327 1.383 . S
C6358 C6345 1.479 . S
C6358 C6359 1.398 . S
C6359 C6324 1.382 . S
C6359 H6336 0.951 . S
C6359 C6358 1.398 . S
C6360 C6361 1.384 . S
C6360 H6373 0.947 . S
C6360 C6395 1.382 . S
C6361 C6360 1.384 . S
C6361 C6362 1.378 . S
C6362 C6361 1.378 . S
C6362 C6363 1.378 . S
C6362 H6374 0.952 . S
C6363 C6362 1.378 . S
C6363 H6375 0.950 . S
C6363 C6394 1.383 . S
H6364 C6383 0.947 . S
H6365 C6384 0.946 . S
H6366 C6386 0.953 . S
H6367 C6387 0.945 . S
H6368 C6389 0.952 . S
H6369 C6390 0.949 . S
H6370 C6392 0.950 . S
H6371 C6393 0.948 . S
H6372 C6395 0.951 . S
H6373 C6360 0.947 . S
H6374 C6362 0.952 . S
H6375 C6363 0.950 . S
N6376 C6379 1.382 . S
N6376 C6381 1.363 . S
N6377 C6379 1.371 . S
N6377 C6380 1.372 . S
N6378 C6380 1.361 . S
N6378 C6381 1.377 . S
C6379 N6376 1.382 . S
C6379 N6377 1.371 . S
C6379 C6382 1.480 . S
C6380 N6377 1.372 . S
C6380 N6378 1.361 . S
C6380 C6388 1.457 . S
C6381 N6376 1.363 . S
C6381 N6378 1.377 . S
C6381 C6394 1.479 . S
C6382 C6379 1.480 . S
C6382 C6383 1.383 . S
C6382 C6387 1.385 . S
C6383 H6364 0.947 . S
C6383 C6382 1.383 . S
C6383 C6384 1.388 . S
C6384 H6365 0.946 . S
C6384 C6383 1.388 . S
C6384 C6385 1.384 . S
C6385 C6384 1.384 . S
C6385 C6386 1.377 . S
C6386 H6366 0.953 . S
C6386 C6385 1.377 . S
C6386 C6387 1.369 . S
C6387 H6367 0.945 . S
C6387 C6382 1.385 . S
C6387 C6386 1.369 . S
C6388 C6380 1.457 . S
C6388 C6389 1.372 . S
C6388 C6393 1.364 . S
C6389 H6368 0.952 . S
C6389 C6388 1.372 . S
C6389 C6390 1.389 . S
C6390 H6369 0.949 . S
C6390 C6389 1.389 . S
C6390 C6391 1.387 . S
C6391 C6390 1.387 . S
C6391 C6392 1.372 . S
C6392 H6370 0.950 . S
C6392 C6391 1.372 . S
C6392 C6393 1.379 . S
C6393 H6371 0.948 . S
C6393 C6388 1.364 . S
C6393 C6392 1.379 . S
C6394 C6363 1.383 . S
C6394 C6381 1.479 . S
C6394 C6395 1.398 . S
C6395 C6360 1.382 . S
C6395 H6372 0.951 . S
C6395 C6394 1.398 . S
C6396 C6397 1.384 . S
C6396 H6409 0.947 . S
C6396 C6431 1.382 . S
C6397 C6396 1.384 . S
C6397 C6398 1.378 . S
C6398 C6397 1.378 . S
C6398 C6399 1.378 . S
C6398 H6410 0.952 . S
C6399 C6398 1.378 . S
C6399 H6411 0.950 . S
C6399 C6430 1.383 . S
H6400 C6419 0.947 . S
H6401 C6420 0.946 . S
H6402 C6422 0.953 . S
H6403 C6423 0.945 . S
H6404 C6425 0.952 . S
H6405 C6426 0.949 . S
H6406 C6428 0.950 . S
H6407 C6429 0.948 . S
H6408 C6431 0.951 . S
H6409 C6396 0.947 . S
H6410 C6398 0.952 . S
H6411 C6399 0.950 . S
N6412 C6415 1.382 . S
N6412 C6417 1.363 . S
N6413 C6415 1.371 . S
N6413 C6416 1.372 . S
N6414 C6416 1.361 . S
N6414 C6417 1.377 . S
C6415 N6412 1.382 . S
C6415 N6413 1.371 . S
C6415 C6418 1.480 . S
C6416 N6413 1.372 . S
C6416 N6414 1.361 . S
C6416 C6424 1.457 . S
C6417 N6412 1.363 . S
C6417 N6414 1.377 . S
C6417 C6430 1.479 . S
C6418 C6415 1.480 . S
C6418 C6419 1.383 . S
C6418 C6423 1.385 . S
C6419 H6400 0.947 . S
C6419 C6418 1.383 . S
C6419 C6420 1.388 . S
C6420 H6401 0.946 . S
C6420 C6419 1.388 . S
C6420 C6421 1.384 . S
C6421 C6420 1.384 . S
C6421 C6422 1.377 . S
C6422 H6402 0.953 . S
C6422 C6421 1.377 . S
C6422 C6423 1.369 . S
C6423 H6403 0.945 . S
C6423 C6418 1.385 . S
C6423 C6422 1.369 . S
C6424 C6416 1.457 . S
C6424 C6425 1.372 . S
C6424 C6429 1.364 . S
C6425 H6404 0.952 . S
C6425 C6424 1.372 . S
C6425 C6426 1.389 . S
C6426 H6405 0.949 . S
C6426 C6425 1.389 . S
C6426 C6427 1.387 . S
C6427 C6426 1.387 . S
C6427 C6428 1.372 . S
C6428 H6406 0.950 . S
C6428 C6427 1.372 . S
C6428 C6429 1.379 . S
C6429 H6407 0.948 . S
C6429 C6424 1.364 . S
C6429 C6428 1.379 . S
C6430 C6399 1.383 . S
C6430 C6417 1.479 . S
C6430 C6431 1.398 . S
C6431 C6396 1.382 . S
C6431 H6408 0.951 . S
C6431 C6430 1.398 . S
C6432 C6433 1.384 . S
C6432 H6445 0.947 . S
C6432 C6467 1.382 . S
C6433 C6432 1.384 . S
C6433 C6434 1.378 . S
C6434 C6433 1.378 . S
C6434 C6435 1.378 . S
C6434 H6446 0.952 . S
C6435 C6434 1.378 . S
C6435 H6447 0.950 . S
C6435 C6466 1.383 . S
H6436 C6455 0.947 . S
H6437 C6456 0.946 . S
H6438 C6458 0.953 . S
H6439 C6459 0.945 . S
H6440 C6461 0.952 . S
H6441 C6462 0.949 . S
H6442 C6464 0.950 . S
H6443 C6465 0.948 . S
H6444 C6467 0.951 . S
H6445 C6432 0.947 . S
H6446 C6434 0.952 . S
H6447 C6435 0.950 . S
N6448 C6451 1.382 . S
N6448 C6453 1.363 . S
N6449 C6451 1.371 . S
N6449 C6452 1.372 . S
N6450 C6452 1.361 . S
N6450 C6453 1.377 . S
C6451 N6448 1.382 . S
C6451 N6449 1.371 . S
C6451 C6454 1.480 . S
C6452 N6449 1.372 . S
C6452 N6450 1.361 . S
C6452 C6460 1.457 . S
C6453 N6448 1.363 . S
C6453 N6450 1.377 . S
C6453 C6466 1.479 . S
C6454 C6451 1.480 . S
C6454 C6455 1.383 . S
C6454 C6459 1.385 . S
C6455 H6436 0.947 . S
C6455 C6454 1.383 . S
C6455 C6456 1.388 . S
C6456 H6437 0.946 . S
C6456 C6455 1.388 . S
C6456 C6457 1.384 . S
C6457 C6456 1.384 . S
C6457 C6458 1.377 . S
C6458 H6438 0.953 . S
C6458 C6457 1.377 . S
C6458 C6459 1.369 . S
C6459 H6439 0.945 . S
C6459 C6454 1.385 . S
C6459 C6458 1.369 . S
C6460 C6452 1.457 . S
C6460 C6461 1.372 . S
C6460 C6465 1.364 . S
C6461 H6440 0.952 . S
C6461 C6460 1.372 . S
C6461 C6462 1.389 . S
C6462 H6441 0.949 . S
C6462 C6461 1.389 . S
C6462 C6463 1.387 . S
C6463 C6462 1.387 . S
C6463 C6464 1.372 . S
C6464 H6442 0.950 . S
C6464 C6463 1.372 . S
C6464 C6465 1.379 . S
C6465 H6443 0.948 . S
C6465 C6460 1.364 . S
C6465 C6464 1.379 . S
C6466 C6435 1.383 . S
C6466 C6453 1.479 . S
C6466 C6467 1.398 . S
C6467 C6432 1.382 . S
C6467 H6444 0.951 . S
C6467 C6466 1.398 . S
C6468 C6469 1.384 . S
C6468 H6481 0.947 . S
C6468 C6503 1.382 . S
C6469 C6468 1.384 . S
C6469 C6470 1.378 . S
C6470 C6469 1.378 . S
C6470 C6471 1.378 . S
C6470 H6482 0.952 . S
C6471 C6470 1.378 . S
C6471 H6483 0.950 . S
C6471 C6502 1.383 . S
H6472 C6491 0.947 . S
H6473 C6492 0.946 . S
H6474 C6494 0.953 . S
H6475 C6495 0.945 . S
H6476 C6497 0.952 . S
H6477 C6498 0.949 . S
H6478 C6500 0.950 . S
H6479 C6501 0.948 . S
H6480 C6503 0.951 . S
H6481 C6468 0.947 . S
H6482 C6470 0.952 . S
H6483 C6471 0.950 . S
N6484 C6487 1.382 . S
N6484 C6489 1.363 . S
N6485 C6487 1.371 . S
N6485 C6488 1.372 . S
N6486 C6488 1.361 . S
N6486 C6489 1.377 . S
C6487 N6484 1.382 . S
C6487 N6485 1.371 . S
C6487 C6490 1.480 . S
C6488 N6485 1.372 . S
C6488 N6486 1.361 . S
C6488 C6496 1.457 . S
C6489 N6484 1.363 . S
C6489 N6486 1.377 . S
C6489 C6502 1.479 . S
C6490 C6487 1.480 . S
C6490 C6491 1.383 . S
C6490 C6495 1.385 . S
C6491 H6472 0.947 . S
C6491 C6490 1.383 . S
C6491 C6492 1.388 . S
C6492 H6473 0.946 . S
C6492 C6491 1.388 . S
C6492 C6493 1.384 . S
C6493 C6492 1.384 . S
C6493 C6494 1.377 . S
C6494 H6474 0.953 . S
C6494 C6493 1.377 . S
C6494 C6495 1.369 . S
C6495 H6475 0.945 . S
C6495 C6490 1.385 . S
C6495 C6494 1.369 . S
C6496 C6488 1.457 . S
C6496 C6497 1.372 . S
C6496 C6501 1.364 . S
C6497 H6476 0.952 . S
C6497 C6496 1.372 . S
C6497 C6498 1.389 . S
C6498 H6477 0.949 . S
C6498 C6497 1.389 . S
C6498 C6499 1.387 . S
C6499 C6498 1.387 . S
C6499 C6500 1.372 . S
C6500 H6478 0.950 . S
C6500 C6499 1.372 . S
C6500 C6501 1.379 . S
C6501 H6479 0.948 . S
C6501 C6496 1.364 . S
C6501 C6500 1.379 . S
C6502 C6471 1.383 . S
C6502 C6489 1.479 . S
C6502 C6503 1.398 . S
C6503 C6468 1.382 . S
C6503 H6480 0.951 . S
C6503 C6502 1.398 . S
C6504 C6505 1.384 . S
C6504 H6517 0.947 . S
C6504 C6539 1.382 . S
C6505 C6504 1.384 . S
C6505 C6506 1.378 . S
C6506 C6505 1.378 . S
C6506 C6507 1.378 . S
C6506 H6518 0.952 . S
C6507 C6506 1.378 . S
C6507 H6519 0.950 . S
C6507 C6538 1.383 . S
H6508 C6527 0.947 . S
H6509 C6528 0.946 . S
H6510 C6530 0.953 . S
H6511 C6531 0.945 . S
H6512 C6533 0.952 . S
H6513 C6534 0.949 . S
H6514 C6536 0.950 . S
H6515 C6537 0.948 . S
H6516 C6539 0.951 . S
H6517 C6504 0.947 . S
H6518 C6506 0.952 . S
H6519 C6507 0.950 . S
N6520 C6523 1.382 . S
N6520 C6525 1.363 . S
N6521 C6523 1.371 . S
N6521 C6524 1.372 . S
N6522 C6524 1.361 . S
N6522 C6525 1.377 . S
C6523 N6520 1.382 . S
C6523 N6521 1.371 . S
C6523 C6526 1.480 . S
C6524 N6521 1.372 . S
C6524 N6522 1.361 . S
C6524 C6532 1.457 . S
C6525 N6520 1.363 . S
C6525 N6522 1.377 . S
C6525 C6538 1.479 . S
C6526 C6523 1.480 . S
C6526 C6527 1.383 . S
C6526 C6531 1.385 . S
C6527 H6508 0.947 . S
C6527 C6526 1.383 . S
C6527 C6528 1.388 . S
C6528 H6509 0.946 . S
C6528 C6527 1.388 . S
C6528 C6529 1.384 . S
C6529 C6528 1.384 . S
C6529 C6530 1.377 . S
C6530 H6510 0.953 . S
C6530 C6529 1.377 . S
C6530 C6531 1.369 . S
C6531 H6511 0.945 . S
C6531 C6526 1.385 . S
C6531 C6530 1.369 . S
C6532 C6524 1.457 . S
C6532 C6533 1.372 . S
C6532 C6537 1.364 . S
C6533 H6512 0.952 . S
C6533 C6532 1.372 . S
C6533 C6534 1.389 . S
C6534 H6513 0.949 . S
C6534 C6533 1.389 . S
C6534 C6535 1.387 . S
C6535 C6534 1.387 . S
C6535 C6536 1.372 . S
C6536 H6514 0.950 . S
C6536 C6535 1.372 . S
C6536 C6537 1.379 . S
C6537 H6515 0.948 . S
C6537 C6532 1.364 . S
C6537 C6536 1.379 . S
C6538 C6507 1.383 . S
C6538 C6525 1.479 . S
C6538 C6539 1.398 . S
C6539 C6504 1.382 . S
C6539 H6516 0.951 . S
C6539 C6538 1.398 . S
C6540 C6541 1.384 . S
C6540 H6553 0.947 . S
C6540 C6575 1.382 . S
C6541 C6540 1.384 . S
C6541 C6542 1.378 . S
C6542 C6541 1.378 . S
C6542 C6543 1.378 . S
C6542 H6554 0.952 . S
C6543 C6542 1.378 . S
C6543 H6555 0.950 . S
C6543 C6574 1.383 . S
H6544 C6563 0.947 . S
H6545 C6564 0.946 . S
H6546 C6566 0.953 . S
H6547 C6567 0.945 . S
H6548 C6569 0.952 . S
H6549 C6570 0.949 . S
H6550 C6572 0.950 . S
H6551 C6573 0.948 . S
H6552 C6575 0.951 . S
H6553 C6540 0.947 . S
H6554 C6542 0.952 . S
H6555 C6543 0.950 . S
N6556 C6559 1.382 . S
N6556 C6561 1.363 . S
N6557 C6559 1.371 . S
N6557 C6560 1.372 . S
N6558 C6560 1.361 . S
N6558 C6561 1.377 . S
C6559 N6556 1.382 . S
C6559 N6557 1.371 . S
C6559 C6562 1.480 . S
C6560 N6557 1.372 . S
C6560 N6558 1.361 . S
C6560 C6568 1.457 . S
C6561 N6556 1.363 . S
C6561 N6558 1.377 . S
C6561 C6574 1.479 . S
C6562 C6559 1.480 . S
C6562 C6563 1.383 . S
C6562 C6567 1.385 . S
C6563 H6544 0.947 . S
C6563 C6562 1.383 . S
C6563 C6564 1.388 . S
C6564 H6545 0.946 . S
C6564 C6563 1.388 . S
C6564 C6565 1.384 . S
C6565 C6564 1.384 . S
C6565 C6566 1.377 . S
C6566 H6546 0.953 . S
C6566 C6565 1.377 . S
C6566 C6567 1.369 . S
C6567 H6547 0.945 . S
C6567 C6562 1.385 . S
C6567 C6566 1.369 . S
C6568 C6560 1.457 . S
C6568 C6569 1.372 . S
C6568 C6573 1.364 . S
C6569 H6548 0.952 . S
C6569 C6568 1.372 . S
C6569 C6570 1.389 . S
C6570 H6549 0.949 . S
C6570 C6569 1.389 . S
C6570 C6571 1.387 . S
C6571 C6570 1.387 . S
C6571 C6572 1.372 . S
C6572 H6550 0.950 . S
C6572 C6571 1.372 . S
C6572 C6573 1.379 . S
C6573 H6551 0.948 . S
C6573 C6568 1.364 . S
C6573 C6572 1.379 . S
C6574 C6543 1.383 . S
C6574 C6561 1.479 . S
C6574 C6575 1.398 . S
C6575 C6540 1.382 . S
C6575 H6552 0.951 . S
C6575 C6574 1.398 . S
C6576 C6577 1.384 . S
C6576 H6589 0.947 . S
C6576 C6611 1.382 . S
C6577 C6576 1.384 . S
C6577 C6578 1.378 . S
C6578 C6577 1.378 . S
C6578 C6579 1.378 . S
C6578 H6590 0.952 . S
C6579 C6578 1.378 . S
C6579 H6591 0.950 . S
C6579 C6610 1.383 . S
H6580 C6599 0.947 . S
H6581 C6600 0.946 . S
H6582 C6602 0.953 . S
H6583 C6603 0.945 . S
H6584 C6605 0.952 . S
H6585 C6606 0.949 . S
H6586 C6608 0.950 . S
H6587 C6609 0.948 . S
H6588 C6611 0.951 . S
H6589 C6576 0.947 . S
H6590 C6578 0.952 . S
H6591 C6579 0.950 . S
N6592 C6595 1.382 . S
N6592 C6597 1.363 . S
N6593 C6595 1.371 . S
N6593 C6596 1.372 . S
N6594 C6596 1.361 . S
N6594 C6597 1.377 . S
C6595 N6592 1.382 . S
C6595 N6593 1.371 . S
C6595 C6598 1.480 . S
C6596 N6593 1.372 . S
C6596 N6594 1.361 . S
C6596 C6604 1.457 . S
C6597 N6592 1.363 . S
C6597 N6594 1.377 . S
C6597 C6610 1.479 . S
C6598 C6595 1.480 . S
C6598 C6599 1.383 . S
C6598 C6603 1.385 . S
C6599 H6580 0.947 . S
C6599 C6598 1.383 . S
C6599 C6600 1.388 . S
C6600 H6581 0.946 . S
C6600 C6599 1.388 . S
C6600 C6601 1.384 . S
C6601 C6600 1.384 . S
C6601 C6602 1.377 . S
C6602 H6582 0.953 . S
C6602 C6601 1.377 . S
C6602 C6603 1.369 . S
C6603 H6583 0.945 . S
C6603 C6598 1.385 . S
C6603 C6602 1.369 . S
C6604 C6596 1.457 . S
C6604 C6605 1.372 . S
C6604 C6609 1.364 . S
C6605 H6584 0.952 . S
C6605 C6604 1.372 . S
C6605 C6606 1.389 . S
C6606 H6585 0.949 . S
C6606 C6605 1.389 . S
C6606 C6607 1.387 . S
C6607 C6606 1.387 . S
C6607 C6608 1.372 . S
C6608 H6586 0.950 . S
C6608 C6607 1.372 . S
C6608 C6609 1.379 . S
C6609 H6587 0.948 . S
C6609 C6604 1.364 . S
C6609 C6608 1.379 . S
C6610 C6579 1.383 . S
C6610 C6597 1.479 . S
C6610 C6611 1.398 . S
C6611 C6576 1.382 . S
C6611 H6588 0.951 . S
C6611 C6610 1.398 . S
C6612 C6613 1.384 . S
C6612 H6625 0.947 . S
C6612 C6647 1.382 . S
C6613 C6612 1.384 . S
C6613 C6614 1.378 . S
C6614 C6613 1.378 . S
C6614 C6615 1.378 . S
C6614 H6626 0.952 . S
C6615 C6614 1.378 . S
C6615 H6627 0.950 . S
C6615 C6646 1.383 . S
H6616 C6635 0.947 . S
H6617 C6636 0.946 . S
H6618 C6638 0.953 . S
H6619 C6639 0.945 . S
H6620 C6641 0.952 . S
H6621 C6642 0.949 . S
H6622 C6644 0.950 . S
H6623 C6645 0.948 . S
H6624 C6647 0.951 . S
H6625 C6612 0.947 . S
H6626 C6614 0.952 . S
H6627 C6615 0.950 . S
N6628 C6631 1.382 . S
N6628 C6633 1.363 . S
N6629 C6631 1.371 . S
N6629 C6632 1.372 . S
N6630 C6632 1.361 . S
N6630 C6633 1.377 . S
C6631 N6628 1.382 . S
C6631 N6629 1.371 . S
C6631 C6634 1.480 . S
C6632 N6629 1.372 . S
C6632 N6630 1.361 . S
C6632 C6640 1.457 . S
C6633 N6628 1.363 . S
C6633 N6630 1.377 . S
C6633 C6646 1.479 . S
C6634 C6631 1.480 . S
C6634 C6635 1.383 . S
C6634 C6639 1.385 . S
C6635 H6616 0.947 . S
C6635 C6634 1.383 . S
C6635 C6636 1.388 . S
C6636 H6617 0.946 . S
C6636 C6635 1.388 . S
C6636 C6637 1.384 . S
C6637 C6636 1.384 . S
C6637 C6638 1.377 . S
C6638 H6618 0.953 . S
C6638 C6637 1.377 . S
C6638 C6639 1.369 . S
C6639 H6619 0.945 . S
C6639 C6634 1.385 . S
C6639 C6638 1.369 . S
C6640 C6632 1.457 . S
C6640 C6641 1.372 . S
C6640 C6645 1.364 . S
C6641 H6620 0.952 . S
C6641 C6640 1.372 . S
C6641 C6642 1.389 . S
C6642 H6621 0.949 . S
C6642 C6641 1.389 . S
C6642 C6643 1.387 . S
C6643 C6642 1.387 . S
C6643 C6644 1.372 . S
C6644 H6622 0.950 . S
C6644 C6643 1.372 . S
C6644 C6645 1.379 . S
C6645 H6623 0.948 . S
C6645 C6640 1.364 . S
C6645 C6644 1.379 . S
C6646 C6615 1.383 . S
C6646 C6633 1.479 . S
C6646 C6647 1.398 . S
C6647 C6612 1.382 . S
C6647 H6624 0.951 . S
C6647 C6646 1.398 . S
C6648 C6649 1.384 . S
C6648 H6661 0.947 . S
C6648 C6683 1.382 . S
C6649 C6648 1.384 . S
C6649 C6650 1.378 . S
C6650 C6649 1.378 . S
C6650 C6651 1.378 . S
C6650 H6662 0.952 . S
C6651 C6650 1.378 . S
C6651 H6663 0.950 . S
C6651 C6682 1.383 . S
H6652 C6671 0.947 . S
H6653 C6672 0.946 . S
H6654 C6674 0.953 . S
H6655 C6675 0.945 . S
H6656 C6677 0.952 . S
H6657 C6678 0.949 . S
H6658 C6680 0.950 . S
H6659 C6681 0.948 . S
H6660 C6683 0.951 . S
H6661 C6648 0.947 . S
H6662 C6650 0.952 . S
H6663 C6651 0.950 . S
N6664 C6667 1.382 . S
N6664 C6669 1.363 . S
N6665 C6667 1.371 . S
N6665 C6668 1.372 . S
N6666 C6668 1.361 . S
N6666 C6669 1.377 . S
C6667 N6664 1.382 . S
C6667 N6665 1.371 . S
C6667 C6670 1.480 . S
C6668 N6665 1.372 . S
C6668 N6666 1.361 . S
C6668 C6676 1.457 . S
C6669 N6664 1.363 . S
C6669 N6666 1.377 . S
C6669 C6682 1.479 . S
C6670 C6667 1.480 . S
C6670 C6671 1.383 . S
C6670 C6675 1.385 . S
C6671 H6652 0.947 . S
C6671 C6670 1.383 . S
C6671 C6672 1.388 . S
C6672 H6653 0.946 . S
C6672 C6671 1.388 . S
C6672 C6673 1.384 . S
C6673 C6672 1.384 . S
C6673 C6674 1.377 . S
C6674 H6654 0.953 . S
C6674 C6673 1.377 . S
C6674 C6675 1.369 . S
C6675 H6655 0.945 . S
C6675 C6670 1.385 . S
C6675 C6674 1.369 . S
C6676 C6668 1.457 . S
C6676 C6677 1.372 . S
C6676 C6681 1.364 . S
C6677 H6656 0.952 . S
C6677 C6676 1.372 . S
C6677 C6678 1.389 . S
C6678 H6657 0.949 . S
C6678 C6677 1.389 . S
C6678 C6679 1.387 . S
C6679 C6678 1.387 . S
C6679 C6680 1.372 . S
C6680 H6658 0.950 . S
C6680 C6679 1.372 . S
C6680 C6681 1.379 . S
C6681 H6659 0.948 . S
C6681 C6676 1.364 . S
C6681 C6680 1.379 . S
C6682 C6651 1.383 . S
C6682 C6669 1.479 . S
C6682 C6683 1.398 . S
C6683 C6648 1.382 . S
C6683 H6660 0.951 . S
C6683 C6682 1.398 . S
C6684 C6685 1.384 . S
C6684 H6697 0.947 . S
C6684 C6719 1.382 . S
C6685 C6684 1.384 . S
C6685 C6686 1.378 . S
C6686 C6685 1.378 . S
C6686 C6687 1.378 . S
C6686 H6698 0.952 . S
C6687 C6686 1.378 . S
C6687 H6699 0.950 . S
C6687 C6718 1.383 . S
H6688 C6707 0.947 . S
H6689 C6708 0.946 . S
H6690 C6710 0.953 . S
H6691 C6711 0.945 . S
H6692 C6713 0.952 . S
H6693 C6714 0.949 . S
H6694 C6716 0.950 . S
H6695 C6717 0.948 . S
H6696 C6719 0.951 . S
H6697 C6684 0.947 . S
H6698 C6686 0.952 . S
H6699 C6687 0.950 . S
N6700 C6703 1.382 . S
N6700 C6705 1.363 . S
N6701 C6703 1.371 . S
N6701 C6704 1.372 . S
N6702 C6704 1.361 . S
N6702 C6705 1.377 . S
C6703 N6700 1.382 . S
C6703 N6701 1.371 . S
C6703 C6706 1.480 . S
C6704 N6701 1.372 . S
C6704 N6702 1.361 . S
C6704 C6712 1.457 . S
C6705 N6700 1.363 . S
C6705 N6702 1.377 . S
C6705 C6718 1.479 . S
C6706 C6703 1.480 . S
C6706 C6707 1.383 . S
C6706 C6711 1.385 . S
C6707 H6688 0.947 . S
C6707 C6706 1.383 . S
C6707 C6708 1.388 . S
C6708 H6689 0.946 . S
C6708 C6707 1.388 . S
C6708 C6709 1.384 . S
C6709 C6708 1.384 . S
C6709 C6710 1.377 . S
C6710 H6690 0.953 . S
C6710 C6709 1.377 . S
C6710 C6711 1.369 . S
C6711 H6691 0.945 . S
C6711 C6706 1.385 . S
C6711 C6710 1.369 . S
C6712 C6704 1.457 . S
C6712 C6713 1.372 . S
C6712 C6717 1.364 . S
C6713 H6692 0.952 . S
C6713 C6712 1.372 . S
C6713 C6714 1.389 . S
C6714 H6693 0.949 . S
C6714 C6713 1.389 . S
C6714 C6715 1.387 . S
C6715 C6714 1.387 . S
C6715 C6716 1.372 . S
C6716 H6694 0.950 . S
C6716 C6715 1.372 . S
C6716 C6717 1.379 . S
C6717 H6695 0.948 . S
C6717 C6712 1.364 . S
C6717 C6716 1.379 . S
C6718 C6687 1.383 . S
C6718 C6705 1.479 . S
C6718 C6719 1.398 . S
C6719 C6684 1.382 . S
C6719 H6696 0.951 . S
C6719 C6718 1.398 . S
C6720 C6721 1.384 . S
C6720 H6733 0.947 . S
C6720 C6755 1.382 . S
C6721 C6720 1.384 . S
C6721 C6722 1.378 . S
C6722 C6721 1.378 . S
C6722 C6723 1.378 . S
C6722 H6734 0.952 . S
C6723 C6722 1.378 . S
C6723 H6735 0.950 . S
C6723 C6754 1.383 . S
H6724 C6743 0.947 . S
H6725 C6744 0.946 . S
H6726 C6746 0.953 . S
H6727 C6747 0.945 . S
H6728 C6749 0.952 . S
H6729 C6750 0.949 . S
H6730 C6752 0.950 . S
H6731 C6753 0.948 . S
H6732 C6755 0.951 . S
H6733 C6720 0.947 . S
H6734 C6722 0.952 . S
H6735 C6723 0.950 . S
N6736 C6739 1.382 . S
N6736 C6741 1.363 . S
N6737 C6739 1.371 . S
N6737 C6740 1.372 . S
N6738 C6740 1.361 . S
N6738 C6741 1.377 . S
C6739 N6736 1.382 . S
C6739 N6737 1.371 . S
C6739 C6742 1.480 . S
C6740 N6737 1.372 . S
C6740 N6738 1.361 . S
C6740 C6748 1.457 . S
C6741 N6736 1.363 . S
C6741 N6738 1.377 . S
C6741 C6754 1.479 . S
C6742 C6739 1.480 . S
C6742 C6743 1.383 . S
C6742 C6747 1.385 . S
C6743 H6724 0.947 . S
C6743 C6742 1.383 . S
C6743 C6744 1.388 . S
C6744 H6725 0.946 . S
C6744 C6743 1.388 . S
C6744 C6745 1.384 . S
C6745 C6744 1.384 . S
C6745 C6746 1.377 . S
C6746 H6726 0.953 . S
C6746 C6745 1.377 . S
C6746 C6747 1.369 . S
C6747 H6727 0.945 . S
C6747 C6742 1.385 . S
C6747 C6746 1.369 . S
C6748 C6740 1.457 . S
C6748 C6749 1.372 . S
C6748 C6753 1.364 . S
C6749 H6728 0.952 . S
C6749 C6748 1.372 . S
C6749 C6750 1.389 . S
C6750 H6729 0.949 . S
C6750 C6749 1.389 . S
C6750 C6751 1.387 . S
C6751 C6750 1.387 . S
C6751 C6752 1.372 . S
C6752 H6730 0.950 . S
C6752 C6751 1.372 . S
C6752 C6753 1.379 . S
C6753 H6731 0.948 . S
C6753 C6748 1.364 . S
C6753 C6752 1.379 . S
C6754 C6723 1.383 . S
C6754 C6741 1.479 . S
C6754 C6755 1.398 . S
C6755 C6720 1.382 . S
C6755 H6732 0.951 . S
C6755 C6754 1.398 . S
C6756 C6757 1.384 . S
C6756 H6769 0.947 . S
C6756 C6791 1.382 . S
C6757 C6756 1.384 . S
C6757 C6758 1.378 . S
C6758 C6757 1.378 . S
C6758 C6759 1.378 . S
C6758 H6770 0.952 . S
C6759 C6758 1.378 . S
C6759 H6771 0.950 . S
C6759 C6790 1.383 . S
H6760 C6779 0.947 . S
H6761 C6780 0.901 1_556 S
H6762 C6782 0.945 . S
H6763 C6783 0.945 . S
H6764 C6785 0.952 . S
H6765 C6786 0.949 . S
H6766 C6788 0.950 . S
H6767 C6789 0.948 . S
H6768 C6791 0.951 . S
H6769 C6756 0.947 . S
H6770 C6758 0.952 . S
H6771 C6759 0.950 . S
N6772 C6775 1.382 . S
N6772 C6777 1.363 . S
N6773 C6775 1.371 . S
N6773 C6776 1.372 . S
N6774 C6776 1.361 . S
N6774 C6777 1.377 . S
C6775 N6772 1.382 . S
C6775 N6773 1.371 . S
C6775 C6778 1.480 . S
C6776 N6773 1.372 . S
C6776 N6774 1.361 . S
C6776 C6784 1.457 . S
C6777 N6772 1.363 . S
C6777 N6774 1.377 . S
C6777 C6790 1.479 . S
C6778 C6775 1.480 . S
C6778 C6779 1.383 . S
C6778 C6783 1.385 . S
C6779 H6760 0.947 . S
C6779 C6778 1.383 . S
C6779 C6780 1.510 . S
C6780 H6761 0.901 1_554 S
C6780 C6779 1.510 . S
C6780 C6781 1.319 1_554 S
C6781 C6780 1.319 1_556 S
C6781 C6782 1.370 . S
C6782 H6762 0.945 . S
C6782 C6781 1.370 . S
C6782 C6783 1.384 1_556 S
C6783 H6763 0.945 . S
C6783 C6778 1.385 . S
C6783 C6782 1.384 1_554 S
C6784 C6776 1.457 . S
C6784 C6785 1.372 . S
C6784 C6789 1.364 . S
C6785 H6764 0.952 . S
C6785 C6784 1.372 . S
C6785 C6786 1.389 . S
C6786 H6765 0.949 . S
C6786 C6785 1.389 . S
C6786 C6787 1.387 . S
C6787 C6786 1.387 . S
C6787 C6788 1.372 . S
C6788 H6766 0.950 . S
C6788 C6787 1.372 . S
C6788 C6789 1.379 . S
C6789 H6767 0.948 . S
C6789 C6784 1.364 . S
C6789 C6788 1.379 . S
C6790 C6759 1.383 . S
C6790 C6777 1.479 . S
C6790 C6791 1.398 . S
C6791 C6756 1.382 . S
C6791 H6768 0.951 . S
C6791 C6790 1.398 . S
C6792 C6793 1.384 . S
C6792 H6805 0.947 . S
C6792 C6827 1.382 . S
C6793 C6792 1.384 . S
C6793 C6794 1.378 . S
C6794 C6793 1.378 . S
C6794 C6795 1.378 . S
C6794 H6806 0.952 . S
C6795 C6794 1.378 . S
C6795 H6807 0.950 . S
C6795 C6826 1.383 . S
H6796 C6815 0.947 . S
H6797 C6816 0.946 . S
H6798 C6818 0.953 . S
H6799 C6819 0.945 . S
H6800 C6821 0.952 . S
H6801 C6822 0.949 . S
H6802 C6824 0.950 . S
H6803 C6825 0.948 . S
H6804 C6827 0.951 . S
H6805 C6792 0.947 . S
H6806 C6794 0.952 . S
H6807 C6795 0.950 . S
N6808 C6811 1.382 . S
N6808 C6813 1.363 . S
N6809 C6811 1.371 . S
N6809 C6812 1.372 . S
N6810 C6812 1.361 . S
N6810 C6813 1.377 . S
C6811 N6808 1.382 . S
C6811 N6809 1.371 . S
C6811 C6814 1.480 . S
C6812 N6809 1.372 . S
C6812 N6810 1.361 . S
C6812 C6820 1.457 . S
C6813 N6808 1.363 . S
C6813 N6810 1.377 . S
C6813 C6826 1.479 . S
C6814 C6811 1.480 . S
C6814 C6815 1.383 . S
C6814 C6819 1.385 . S
C6815 H6796 0.947 . S
C6815 C6814 1.383 . S
C6815 C6816 1.388 . S
C6816 H6797 0.946 . S
C6816 C6815 1.388 . S
C6816 C6817 1.384 . S
C6817 C6816 1.384 . S
C6817 C6818 1.377 . S
C6818 H6798 0.953 . S
C6818 C6817 1.377 . S
C6818 C6819 1.369 . S
C6819 H6799 0.945 . S
C6819 C6814 1.385 . S
C6819 C6818 1.369 . S
C6820 C6812 1.457 . S
C6820 C6821 1.372 . S
C6820 C6825 1.364 . S
C6821 H6800 0.952 . S
C6821 C6820 1.372 . S
C6821 C6822 1.389 . S
C6822 H6801 0.949 . S
C6822 C6821 1.389 . S
C6822 C6823 1.387 . S
C6823 C6822 1.387 . S
C6823 C6824 1.372 . S
C6824 H6802 0.950 . S
C6824 C6823 1.372 . S
C6824 C6825 1.379 . S
C6825 H6803 0.948 . S
C6825 C6820 1.364 . S
C6825 C6824 1.379 . S
C6826 C6795 1.383 . S
C6826 C6813 1.479 . S
C6826 C6827 1.398 . S
C6827 C6792 1.382 . S
C6827 H6804 0.951 . S
C6827 C6826 1.398 . S
C6828 C6829 1.384 . S
C6828 H6841 0.947 . S
C6828 C6863 1.382 . S
C6829 C6828 1.384 . S
C6829 C6830 1.378 . S
C6830 C6829 1.378 . S
C6830 C6831 1.378 . S
C6830 H6842 0.952 . S
C6831 C6830 1.378 . S
C6831 H6843 0.950 . S
C6831 C6862 1.383 . S
H6832 C6851 0.947 . S
H6833 C6852 0.946 . S
H6834 C6854 0.953 . S
H6835 C6855 0.945 . S
H6836 C6857 0.952 . S
H6837 C6858 0.949 . S
H6838 C6860 0.950 . S
H6839 C6861 0.948 . S
H6840 C6863 0.951 . S
H6841 C6828 0.947 . S
H6842 C6830 0.952 . S
H6843 C6831 0.950 . S
N6844 C6847 1.382 . S
N6844 C6849 1.363 . S
N6845 C6847 1.371 . S
N6845 C6848 1.372 . S
N6846 C6848 1.361 . S
N6846 C6849 1.377 . S
C6847 N6844 1.382 . S
C6847 N6845 1.371 . S
C6847 C6850 1.480 . S
C6848 N6845 1.372 . S
C6848 N6846 1.361 . S
C6848 C6856 1.457 . S
C6849 N6844 1.363 . S
C6849 N6846 1.377 . S
C6849 C6862 1.479 . S
C6850 C6847 1.480 . S
C6850 C6851 1.383 . S
C6850 C6855 1.385 . S
C6851 H6832 0.947 . S
C6851 C6850 1.383 . S
C6851 C6852 1.388 . S
C6852 H6833 0.946 . S
C6852 C6851 1.388 . S
C6852 C6853 1.384 . S
C6853 C6852 1.384 . S
C6853 C6854 1.377 . S
C6854 H6834 0.953 . S
C6854 C6853 1.377 . S
C6854 C6855 1.369 . S
C6855 H6835 0.945 . S
C6855 C6850 1.385 . S
C6855 C6854 1.369 . S
C6856 C6848 1.457 . S
C6856 C6857 1.372 . S
C6856 C6861 1.364 . S
C6857 H6836 0.952 . S
C6857 C6856 1.372 . S
C6857 C6858 1.389 . S
C6858 H6837 0.949 . S
C6858 C6857 1.389 . S
C6858 C6859 1.387 . S
C6859 C6858 1.387 . S
C6859 C6860 1.372 . S
C6860 H6838 0.950 . S
C6860 C6859 1.372 . S
C6860 C6861 1.379 . S
C6861 H6839 0.948 . S
C6861 C6856 1.364 . S
C6861 C6860 1.379 . S
C6862 C6831 1.383 . S
C6862 C6849 1.479 . S
C6862 C6863 1.398 . S
C6863 C6828 1.382 . S
C6863 H6840 0.951 . S
C6863 C6862 1.398 . S
C6864 C6865 1.384 . S
C6864 H6877 0.947 . S
C6864 C6899 1.382 . S
C6865 C6864 1.384 . S
C6865 C6866 1.378 . S
C6866 C6865 1.378 . S
C6866 C6867 1.378 . S
C6866 H6878 0.952 . S
C6867 C6866 1.378 . S
C6867 H6879 0.950 . S
C6867 C6898 1.383 . S
H6868 C6887 0.947 . S
H6869 C6888 0.946 . S
H6870 C6890 0.953 . S
H6871 C6891 0.945 . S
H6872 C6893 0.952 . S
H6873 C6894 0.949 . S
H6874 C6896 0.950 . S
H6875 C6897 0.948 . S
H6876 C6899 0.951 . S
H6877 C6864 0.947 . S
H6878 C6866 0.952 . S
H6879 C6867 0.950 . S
N6880 C6883 1.382 . S
N6880 C6885 1.363 . S
N6881 C6883 1.371 . S
N6881 C6884 1.372 . S
N6882 C6884 1.361 . S
N6882 C6885 1.377 . S
C6883 N6880 1.382 . S
C6883 N6881 1.371 . S
C6883 C6886 1.480 . S
C6884 N6881 1.372 . S
C6884 N6882 1.361 . S
C6884 C6892 1.457 . S
C6885 N6880 1.363 . S
C6885 N6882 1.377 . S
C6885 C6898 1.479 . S
C6886 C6883 1.480 . S
C6886 C6887 1.383 . S
C6886 C6891 1.385 . S
C6887 H6868 0.947 . S
C6887 C6886 1.383 . S
C6887 C6888 1.388 . S
C6888 H6869 0.946 . S
C6888 C6887 1.388 . S
C6888 C6889 1.384 . S
C6889 C6888 1.384 . S
C6889 C6890 1.377 . S
C6890 H6870 0.953 . S
C6890 C6889 1.377 . S
C6890 C6891 1.369 . S
C6891 H6871 0.945 . S
C6891 C6886 1.385 . S
C6891 C6890 1.369 . S
C6892 C6884 1.457 . S
C6892 C6893 1.372 . S
C6892 C6897 1.364 . S
C6893 H6872 0.952 . S
C6893 C6892 1.372 . S
C6893 C6894 1.389 . S
C6894 H6873 0.949 . S
C6894 C6893 1.389 . S
C6894 C6895 1.387 . S
C6895 C6894 1.387 . S
C6895 C6896 1.372 . S
C6896 H6874 0.950 . S
C6896 C6895 1.372 . S
C6896 C6897 1.379 . S
C6897 H6875 0.948 . S
C6897 C6892 1.364 . S
C6897 C6896 1.379 . S
C6898 C6867 1.383 . S
C6898 C6885 1.479 . S
C6898 C6899 1.398 . S
C6899 C6864 1.382 . S
C6899 H6876 0.951 . S
C6899 C6898 1.398 . S
C6900 C6901 1.384 . S
C6900 H6913 0.947 . S
C6900 C6935 1.382 . S
C6901 C6900 1.384 . S
C6901 C6902 1.378 . S
C6902 C6901 1.378 . S
C6902 C6903 1.378 . S
C6902 H6914 0.952 . S
C6903 C6902 1.378 . S
C6903 H6915 0.950 . S
C6903 C6934 1.383 . S
H6904 C6923 0.947 . S
H6905 C6924 0.946 . S
H6906 C6926 0.953 . S
H6907 C6927 0.945 . S
H6908 C6929 0.952 . S
H6909 C6930 0.949 . S
H6910 C6932 0.950 . S
H6911 C6933 0.948 . S
H6912 C6935 0.951 . S
H6913 C6900 0.947 . S
H6914 C6902 0.952 . S
H6915 C6903 0.950 . S
N6916 C6919 1.382 . S
N6916 C6921 1.363 . S
N6917 C6919 1.371 . S
N6917 C6920 1.372 . S
N6918 C6920 1.361 . S
N6918 C6921 1.377 . S
C6919 N6916 1.382 . S
C6919 N6917 1.371 . S
C6919 C6922 1.480 . S
C6920 N6917 1.372 . S
C6920 N6918 1.361 . S
C6920 C6928 1.457 . S
C6921 N6916 1.363 . S
C6921 N6918 1.377 . S
C6921 C6934 1.479 . S
C6922 C6919 1.480 . S
C6922 C6923 1.383 . S
C6922 C6927 1.385 . S
C6923 H6904 0.947 . S
C6923 C6922 1.383 . S
C6923 C6924 1.388 . S
C6924 H6905 0.946 . S
C6924 C6923 1.388 . S
C6924 C6925 1.384 . S
C6925 C6924 1.384 . S
C6925 C6926 1.377 . S
C6926 H6906 0.953 . S
C6926 C6925 1.377 . S
C6926 C6927 1.369 . S
C6927 H6907 0.945 . S
C6927 C6922 1.385 . S
C6927 C6926 1.369 . S
C6928 C6920 1.457 . S
C6928 C6929 1.372 . S
C6928 C6933 1.364 . S
C6929 H6908 0.952 . S
C6929 C6928 1.372 . S
C6929 C6930 1.389 . S
C6930 H6909 0.949 . S
C6930 C6929 1.389 . S
C6930 C6931 1.387 . S
C6931 C6930 1.387 . S
C6931 C6932 1.372 . S
C6932 H6910 0.950 . S
C6932 C6931 1.372 . S
C6932 C6933 1.379 . S
C6933 H6911 0.948 . S
C6933 C6928 1.364 . S
C6933 C6932 1.379 . S
C6934 C6903 1.383 . S
C6934 C6921 1.479 . S
C6934 C6935 1.398 . S
C6935 C6900 1.382 . S
C6935 H6912 0.951 . S
C6935 C6934 1.398 . S
C6936 C6937 1.384 . S
C6936 H6949 0.947 . S
C6936 C6971 1.382 . S
C6937 C6936 1.384 . S
C6937 C6938 1.378 . S
C6938 C6937 1.378 . S
C6938 C6939 1.378 . S
C6938 H6950 0.952 . S
C6939 C6938 1.378 . S
C6939 H6951 0.950 . S
C6939 C6970 1.383 . S
H6940 C6959 0.947 . S
H6941 C6960 0.946 . S
H6942 C6962 0.953 . S
H6943 C6963 0.945 . S
H6944 C6965 0.952 . S
H6945 C6966 0.949 . S
H6946 C6968 0.950 . S
H6947 C6969 0.948 . S
H6948 C6971 0.951 . S
H6949 C6936 0.947 . S
H6950 C6938 0.952 . S
H6951 C6939 0.950 . S
N6952 C6955 1.382 . S
N6952 C6957 1.363 . S
N6953 C6955 1.371 . S
N6953 C6956 1.372 . S
N6954 C6956 1.361 . S
N6954 C6957 1.377 . S
C6955 N6952 1.382 . S
C6955 N6953 1.371 . S
C6955 C6958 1.480 . S
C6956 N6953 1.372 . S
C6956 N6954 1.361 . S
C6956 C6964 1.457 . S
C6957 N6952 1.363 . S
C6957 N6954 1.377 . S
C6957 C6970 1.479 . S
C6958 C6955 1.480 . S
C6958 C6959 1.383 . S
C6958 C6963 1.385 . S
C6959 H6940 0.947 . S
C6959 C6958 1.383 . S
C6959 C6960 1.388 . S
C6960 H6941 0.946 . S
C6960 C6959 1.388 . S
C6960 C6961 1.384 . S
C6961 C6960 1.384 . S
C6961 C6962 1.377 . S
C6962 H6942 0.953 . S
C6962 C6961 1.377 . S
C6962 C6963 1.369 . S
C6963 H6943 0.945 . S
C6963 C6958 1.385 . S
C6963 C6962 1.369 . S
C6964 C6956 1.457 . S
C6964 C6965 1.372 . S
C6964 C6969 1.364 . S
C6965 H6944 0.952 . S
C6965 C6964 1.372 . S
C6965 C6966 1.389 . S
C6966 H6945 0.949 . S
C6966 C6965 1.389 . S
C6966 C6967 1.387 . S
C6967 C6966 1.387 . S
C6967 C6968 1.372 . S
C6968 H6946 0.950 . S
C6968 C6967 1.372 . S
C6968 C6969 1.379 . S
C6969 H6947 0.948 . S
C6969 C6964 1.364 . S
C6969 C6968 1.379 . S
C6970 C6939 1.383 . S
C6970 C6957 1.479 . S
C6970 C6971 1.398 . S
C6971 C6936 1.382 . S
C6971 H6948 0.951 . S
C6971 C6970 1.398 . S
C6972 C6973 1.384 . S
C6972 H6985 0.947 . S
C6972 C7007 1.382 . S
C6973 C6972 1.384 . S
C6973 C6974 1.378 . S
C6974 C6973 1.378 . S
C6974 C6975 1.378 . S
C6974 H6986 0.952 . S
C6975 C6974 1.378 . S
C6975 H6987 0.950 . S
C6975 C7006 1.383 . S
H6976 C6995 0.947 . S
H6977 C6996 0.946 . S
H6978 C6998 0.953 . S
H6979 C6999 0.945 . S
H6980 C7001 0.952 . S
H6981 C7002 0.949 . S
H6982 C7004 0.950 . S
H6983 C7005 0.948 . S
H6984 C7007 0.951 . S
H6985 C6972 0.947 . S
H6986 C6974 0.952 . S
H6987 C6975 0.950 . S
N6988 C6991 1.382 . S
N6988 C6993 1.363 . S
N6989 C6991 1.371 . S
N6989 C6992 1.372 . S
N6990 C6992 1.361 . S
N6990 C6993 1.377 . S
C6991 N6988 1.382 . S
C6991 N6989 1.371 . S
C6991 C6994 1.480 . S
C6992 N6989 1.372 . S
C6992 N6990 1.361 . S
C6992 C7000 1.457 . S
C6993 N6988 1.363 . S
C6993 N6990 1.377 . S
C6993 C7006 1.479 . S
C6994 C6991 1.480 . S
C6994 C6995 1.383 . S
C6994 C6999 1.385 . S
C6995 H6976 0.947 . S
C6995 C6994 1.383 . S
C6995 C6996 1.388 . S
C6996 H6977 0.946 . S
C6996 C6995 1.388 . S
C6996 C6997 1.384 . S
C6997 C6996 1.384 . S
C6997 C6998 1.377 . S
C6998 H6978 0.953 . S
C6998 C6997 1.377 . S
C6998 C6999 1.369 . S
C6999 H6979 0.945 . S
C6999 C6994 1.385 . S
C6999 C6998 1.369 . S
C7000 C6992 1.457 . S
C7000 C7001 1.372 . S
C7000 C7005 1.364 . S
C7001 H6980 0.952 . S
C7001 C7000 1.372 . S
C7001 C7002 1.389 . S
C7002 H6981 0.949 . S
C7002 C7001 1.389 . S
C7002 C7003 1.387 . S
C7003 C7002 1.387 . S
C7003 C7004 1.372 . S
C7004 H6982 0.950 . S
C7004 C7003 1.372 . S
C7004 C7005 1.379 . S
C7005 H6983 0.948 . S
C7005 C7000 1.364 . S
C7005 C7004 1.379 . S
C7006 C6975 1.383 . S
C7006 C6993 1.479 . S
C7006 C7007 1.398 . S
C7007 C6972 1.382 . S
C7007 H6984 0.951 . S
C7007 C7006 1.398 . S
C7008 C7009 1.384 . S
C7008 H7021 0.947 . S
C7008 C7043 1.382 . S
C7009 C7008 1.384 . S
C7009 C7010 1.378 . S
C7010 C7009 1.378 . S
C7010 C7011 1.378 . S
C7010 H7022 0.952 . S
C7011 C7010 1.378 . S
C7011 H7023 0.950 . S
C7011 C7042 1.383 . S
H7012 C7031 0.947 . S
H7013 C7032 0.946 . S
H7014 C7034 0.953 . S
H7015 C7035 0.945 . S
H7016 C7037 0.952 . S
H7017 C7038 0.949 . S
H7018 C7040 0.950 . S
H7019 C7041 0.948 . S
H7020 C7043 0.951 . S
H7021 C7008 0.947 . S
H7022 C7010 0.952 . S
H7023 C7011 0.950 . S
N7024 C7027 1.382 . S
N7024 C7029 1.363 . S
N7025 C7027 1.371 . S
N7025 C7028 1.372 . S
N7026 C7028 1.361 . S
N7026 C7029 1.377 . S
C7027 N7024 1.382 . S
C7027 N7025 1.371 . S
C7027 C7030 1.480 . S
C7028 N7025 1.372 . S
C7028 N7026 1.361 . S
C7028 C7036 1.457 . S
C7029 N7024 1.363 . S
C7029 N7026 1.377 . S
C7029 C7042 1.479 . S
C7030 C7027 1.480 . S
C7030 C7031 1.383 . S
C7030 C7035 1.385 . S
C7031 H7012 0.947 . S
C7031 C7030 1.383 . S
C7031 C7032 1.388 . S
C7032 H7013 0.946 . S
C7032 C7031 1.388 . S
C7032 C7033 1.384 . S
C7033 C7032 1.384 . S
C7033 C7034 1.377 . S
C7034 H7014 0.953 . S
C7034 C7033 1.377 . S
C7034 C7035 1.369 . S
C7035 H7015 0.945 . S
C7035 C7030 1.385 . S
C7035 C7034 1.369 . S
C7036 C7028 1.457 . S
C7036 C7037 1.372 . S
C7036 C7041 1.364 . S
C7037 H7016 0.952 . S
C7037 C7036 1.372 . S
C7037 C7038 1.389 . S
C7038 H7017 0.949 . S
C7038 C7037 1.389 . S
C7038 C7039 1.387 . S
C7039 C7038 1.387 . S
C7039 C7040 1.372 . S
C7040 H7018 0.950 . S
C7040 C7039 1.372 . S
C7040 C7041 1.379 . S
C7041 H7019 0.948 . S
C7041 C7036 1.364 . S
C7041 C7040 1.379 . S
C7042 C7011 1.383 . S
C7042 C7029 1.479 . S
C7042 C7043 1.398 . S
C7043 C7008 1.382 . S
C7043 H7020 0.951 . S
C7043 C7042 1.398 . S
C7044 C7045 1.384 . S
C7044 H7057 0.947 . S
C7044 C7079 1.382 . S
C7045 C7044 1.384 . S
C7045 C7046 1.378 . S
C7046 C7045 1.378 . S
C7046 C7047 1.378 . S
C7046 H7058 0.952 . S
C7047 C7046 1.378 . S
C7047 H7059 0.950 . S
C7047 C7078 1.383 . S
H7048 C7067 0.947 . S
H7049 C7068 0.946 . S
H7050 C7070 0.953 . S
H7051 C7071 0.945 . S
H7052 C7073 0.952 . S
H7053 C7074 0.949 . S
H7054 C7076 0.950 . S
H7055 C7077 0.948 . S
H7056 C7079 0.951 . S
H7057 C7044 0.947 . S
H7058 C7046 0.952 . S
H7059 C7047 0.950 . S
N7060 C7063 1.382 . S
N7060 C7065 1.363 . S
N7061 C7063 1.371 . S
N7061 C7064 1.372 . S
N7062 C7064 1.361 . S
N7062 C7065 1.377 . S
C7063 N7060 1.382 . S
C7063 N7061 1.371 . S
C7063 C7066 1.480 . S
C7064 N7061 1.372 . S
C7064 N7062 1.361 . S
C7064 C7072 1.457 . S
C7065 N7060 1.363 . S
C7065 N7062 1.377 . S
C7065 C7078 1.479 . S
C7066 C7063 1.480 . S
C7066 C7067 1.383 . S
C7066 C7071 1.385 . S
C7067 H7048 0.947 . S
C7067 C7066 1.383 . S
C7067 C7068 1.388 . S
C7068 H7049 0.946 . S
C7068 C7067 1.388 . S
C7068 C7069 1.384 . S
C7069 C7068 1.384 . S
C7069 C7070 1.377 . S
C7070 H7050 0.953 . S
C7070 C7069 1.377 . S
C7070 C7071 1.369 . S
C7071 H7051 0.945 . S
C7071 C7066 1.385 . S
C7071 C7070 1.369 . S
C7072 C7064 1.457 . S
C7072 C7073 1.372 . S
C7072 C7077 1.364 . S
C7073 H7052 0.952 . S
C7073 C7072 1.372 . S
C7073 C7074 1.389 . S
C7074 H7053 0.949 . S
C7074 C7073 1.389 . S
C7074 C7075 1.387 . S
C7075 C7074 1.387 . S
C7075 C7076 1.372 . S
C7076 H7054 0.950 . S
C7076 C7075 1.372 . S
C7076 C7077 1.379 . S
C7077 H7055 0.948 . S
C7077 C7072 1.364 . S
C7077 C7076 1.379 . S
C7078 C7047 1.383 . S
C7078 C7065 1.479 . S
C7078 C7079 1.398 . S
C7079 C7044 1.382 . S
C7079 H7056 0.951 . S
C7079 C7078 1.398 . S
C7080 C7081 1.384 . S
C7080 H7093 0.947 . S
C7080 C7115 1.382 . S
C7081 C7080 1.384 . S
C7081 C7082 1.378 . S
C7082 C7081 1.378 . S
C7082 C7083 1.378 . S
C7082 H7094 0.952 . S
C7083 C7082 1.378 . S
C7083 H7095 0.950 . S
C7083 C7114 1.383 . S
H7084 C7103 0.947 . S
H7085 C7104 0.946 . S
H7086 C7106 0.953 . S
H7087 C7107 0.945 . S
H7088 C7109 0.952 . S
H7089 C7110 0.949 . S
H7090 C7112 0.950 . S
H7091 C7113 0.948 . S
H7092 C7115 0.951 . S
H7093 C7080 0.947 . S
H7094 C7082 0.952 . S
H7095 C7083 0.950 . S
N7096 C7099 1.382 . S
N7096 C7101 1.363 . S
N7097 C7099 1.371 . S
N7097 C7100 1.372 . S
N7098 C7100 1.361 . S
N7098 C7101 1.377 . S
C7099 N7096 1.382 . S
C7099 N7097 1.371 . S
C7099 C7102 1.480 . S
C7100 N7097 1.372 . S
C7100 N7098 1.361 . S
C7100 C7108 1.457 . S
C7101 N7096 1.363 . S
C7101 N7098 1.377 . S
C7101 C7114 1.479 . S
C7102 C7099 1.480 . S
C7102 C7103 1.383 . S
C7102 C7107 1.385 . S
C7103 H7084 0.947 . S
C7103 C7102 1.383 . S
C7103 C7104 1.388 . S
C7104 H7085 0.946 . S
C7104 C7103 1.388 . S
C7104 C7105 1.384 . S
C7105 C7104 1.384 . S
C7105 C7106 1.377 . S
C7106 H7086 0.953 . S
C7106 C7105 1.377 . S
C7106 C7107 1.369 . S
C7107 H7087 0.945 . S
C7107 C7102 1.385 . S
C7107 C7106 1.369 . S
C7108 C7100 1.457 . S
C7108 C7109 1.372 . S
C7108 C7113 1.364 . S
C7109 H7088 0.952 . S
C7109 C7108 1.372 . S
C7109 C7110 1.389 . S
C7110 H7089 0.949 . S
C7110 C7109 1.389 . S
C7110 C7111 1.387 . S
C7111 C7110 1.387 . S
C7111 C7112 1.372 . S
C7112 H7090 0.950 . S
C7112 C7111 1.372 . S
C7112 C7113 1.379 . S
C7113 H7091 0.948 . S
C7113 C7108 1.364 . S
C7113 C7112 1.379 . S
C7114 C7083 1.383 . S
C7114 C7101 1.479 . S
C7114 C7115 1.398 . S
C7115 C7080 1.382 . S
C7115 H7092 0.951 . S
C7115 C7114 1.398 . S
C7116 C7117 1.384 . S
C7116 H7129 0.947 . S
C7116 C7151 1.382 . S
C7117 C7116 1.384 . S
C7117 C7118 1.378 . S
C7118 C7117 1.378 . S
C7118 C7119 1.378 . S
C7118 H7130 0.952 . S
C7119 C7118 1.378 . S
C7119 H7131 0.950 . S
C7119 C7150 1.383 . S
H7120 C7139 0.947 . S
H7121 C7140 0.946 . S
H7122 C7142 0.953 . S
H7123 C7143 0.945 . S
H7124 C7145 0.952 . S
H7125 C7146 0.949 . S
H7126 C7148 0.950 . S
H7127 C7149 0.948 . S
H7128 C7151 0.951 . S
H7129 C7116 0.947 . S
H7130 C7118 0.952 . S
H7131 C7119 0.950 . S
N7132 C7135 1.382 . S
N7132 C7137 1.363 . S
N7133 C7135 1.371 . S
N7133 C7136 1.372 . S
N7134 C7136 1.361 . S
N7134 C7137 1.377 . S
C7135 N7132 1.382 . S
C7135 N7133 1.371 . S
C7135 C7138 1.480 . S
C7136 N7133 1.372 . S
C7136 N7134 1.361 . S
C7136 C7144 1.457 . S
C7137 N7132 1.363 . S
C7137 N7134 1.377 . S
C7137 C7150 1.479 . S
C7138 C7135 1.480 . S
C7138 C7139 1.383 . S
C7138 C7143 1.385 . S
C7139 H7120 0.947 . S
C7139 C7138 1.383 . S
C7139 C7140 1.388 . S
C7140 H7121 0.946 . S
C7140 C7139 1.388 . S
C7140 C7141 1.384 . S
C7141 C7140 1.384 . S
C7141 C7142 1.377 . S
C7142 H7122 0.953 . S
C7142 C7141 1.377 . S
C7142 C7143 1.369 . S
C7143 H7123 0.945 . S
C7143 C7138 1.385 . S
C7143 C7142 1.369 . S
C7144 C7136 1.457 . S
C7144 C7145 1.372 . S
C7144 C7149 1.364 . S
C7145 H7124 0.952 . S
C7145 C7144 1.372 . S
C7145 C7146 1.389 . S
C7146 H7125 0.949 . S
C7146 C7145 1.389 . S
C7146 C7147 1.387 . S
C7147 C7146 1.387 . S
C7147 C7148 1.372 . S
C7148 H7126 0.950 . S
C7148 C7147 1.372 . S
C7148 C7149 1.379 . S
C7149 H7127 0.948 . S
C7149 C7144 1.364 . S
C7149 C7148 1.379 . S
C7150 C7119 1.383 . S
C7150 C7137 1.479 . S
C7150 C7151 1.398 . S
C7151 C7116 1.382 . S
C7151 H7128 0.951 . S
C7151 C7150 1.398 . S
C7152 C7153 1.384 . S
C7152 H7165 0.947 . S
C7152 C7187 1.382 . S
C7153 C7152 1.384 . S
C7153 C7154 1.378 . S
C7154 C7153 1.378 . S
C7154 C7155 1.378 . S
C7154 H7166 0.952 . S
C7155 C7154 1.378 . S
C7155 H7167 0.950 . S
C7155 C7186 1.383 . S
H7156 C7175 0.947 . S
H7157 C7176 0.946 . S
H7158 C7178 0.953 . S
H7159 C7179 0.945 . S
H7160 C7181 0.952 . S
H7161 C7182 0.949 . S
H7162 C7184 0.950 . S
H7163 C7185 0.948 . S
H7164 C7187 0.951 . S
H7165 C7152 0.947 . S
H7166 C7154 0.952 . S
H7167 C7155 0.950 . S
N7168 C7171 1.382 . S
N7168 C7173 1.363 . S
N7169 C7171 1.371 . S
N7169 C7172 1.372 . S
N7170 C7172 1.361 . S
N7170 C7173 1.377 . S
C7171 N7168 1.382 . S
C7171 N7169 1.371 . S
C7171 C7174 1.480 . S
C7172 N7169 1.372 . S
C7172 N7170 1.361 . S
C7172 C7180 1.457 . S
C7173 N7168 1.363 . S
C7173 N7170 1.377 . S
C7173 C7186 1.479 . S
C7174 C7171 1.480 . S
C7174 C7175 1.383 . S
C7174 C7179 1.385 . S
C7175 H7156 0.947 . S
C7175 C7174 1.383 . S
C7175 C7176 1.388 . S
C7176 H7157 0.946 . S
C7176 C7175 1.388 . S
C7176 C7177 1.384 . S
C7177 C7176 1.384 . S
C7177 C7178 1.377 . S
C7178 H7158 0.953 . S
C7178 C7177 1.377 . S
C7178 C7179 1.369 . S
C7179 H7159 0.945 . S
C7179 C7174 1.385 . S
C7179 C7178 1.369 . S
C7180 C7172 1.457 . S
C7180 C7181 1.372 . S
C7180 C7185 1.364 . S
C7181 H7160 0.952 . S
C7181 C7180 1.372 . S
C7181 C7182 1.389 . S
C7182 H7161 0.949 . S
C7182 C7181 1.389 . S
C7182 C7183 1.387 . S
C7183 C7182 1.387 . S
C7183 C7184 1.372 . S
C7184 H7162 0.950 . S
C7184 C7183 1.372 . S
C7184 C7185 1.379 . S
C7185 H7163 0.948 . S
C7185 C7180 1.364 . S
C7185 C7184 1.379 . S
C7186 C7155 1.383 . S
C7186 C7173 1.479 . S
C7186 C7187 1.398 . S
C7187 C7152 1.382 . S
C7187 H7164 0.951 . S
C7187 C7186 1.398 . S
C7188 C7189 1.384 . S
C7188 H7201 0.947 . S
C7188 C7223 1.382 . S
C7189 C7188 1.384 . S
C7189 C7190 1.378 . S
C7190 C7189 1.378 . S
C7190 C7191 1.378 . S
C7190 H7202 0.952 . S
C7191 C7190 1.378 . S
C7191 H7203 0.950 . S
C7191 C7222 1.383 . S
H7192 C7211 0.947 . S
H7193 C7212 0.946 . S
H7194 C7214 0.953 . S
H7195 C7215 0.945 . S
H7196 C7217 0.952 . S
H7197 C7218 0.949 . S
H7198 C7220 0.950 . S
H7199 C7221 0.948 . S
H7200 C7223 0.951 . S
H7201 C7188 0.947 . S
H7202 C7190 0.952 . S
H7203 C7191 0.950 . S
N7204 C7207 1.382 . S
N7204 C7209 1.363 . S
N7205 C7207 1.371 . S
N7205 C7208 1.372 . S
N7206 C7208 1.361 . S
N7206 C7209 1.377 . S
C7207 N7204 1.382 . S
C7207 N7205 1.371 . S
C7207 C7210 1.480 . S
C7208 N7205 1.372 . S
C7208 N7206 1.361 . S
C7208 C7216 1.457 . S
C7209 N7204 1.363 . S
C7209 N7206 1.377 . S
C7209 C7222 1.479 . S
C7210 C7207 1.480 . S
C7210 C7211 1.383 . S
C7210 C7215 1.385 . S
C7211 H7192 0.947 . S
C7211 C7210 1.383 . S
C7211 C7212 1.388 . S
C7212 H7193 0.946 . S
C7212 C7211 1.388 . S
C7212 C7213 1.384 . S
C7213 C7212 1.384 . S
C7213 C7214 1.377 . S
C7214 H7194 0.953 . S
C7214 C7213 1.377 . S
C7214 C7215 1.369 . S
C7215 H7195 0.945 . S
C7215 C7210 1.385 . S
C7215 C7214 1.369 . S
C7216 C7208 1.457 . S
C7216 C7217 1.372 . S
C7216 C7221 1.364 . S
C7217 H7196 0.952 . S
C7217 C7216 1.372 . S
C7217 C7218 1.389 . S
C7218 H7197 0.949 . S
C7218 C7217 1.389 . S
C7218 C7219 1.387 . S
C7219 C7218 1.387 . S
C7219 C7220 1.372 . S
C7220 H7198 0.950 . S
C7220 C7219 1.372 . S
C7220 C7221 1.379 . S
C7221 H7199 0.948 . S
C7221 C7216 1.364 . S
C7221 C7220 1.379 . S
C7222 C7191 1.383 . S
C7222 C7209 1.479 . S
C7222 C7223 1.398 . S
C7223 C7188 1.382 . S
C7223 H7200 0.951 . S
C7223 C7222 1.398 . S
C7224 C7225 1.384 . S
C7224 H7237 0.947 . S
C7224 C7259 1.382 . S
C7225 C7224 1.384 . S
C7225 C7226 1.378 . S
C7226 C7225 1.378 . S
C7226 C7227 1.378 . S
C7226 H7238 0.952 . S
C7227 C7226 1.378 . S
C7227 H7239 0.950 . S
C7227 C7258 1.383 . S
H7228 C7247 0.947 . S
H7229 C7248 0.946 . S
H7230 C7250 0.953 . S
H7231 C7251 0.945 . S
H7232 C7253 0.952 . S
H7233 C7254 0.949 . S
H7234 C7256 0.950 . S
H7235 C7257 0.948 . S
H7236 C7259 0.951 . S
H7237 C7224 0.947 . S
H7238 C7226 0.952 . S
H7239 C7227 0.950 . S
N7240 C7243 1.382 . S
N7240 C7245 1.363 . S
N7241 C7243 1.371 . S
N7241 C7244 1.372 . S
N7242 C7244 1.361 . S
N7242 C7245 1.377 . S
C7243 N7240 1.382 . S
C7243 N7241 1.371 . S
C7243 C7246 1.480 . S
C7244 N7241 1.372 . S
C7244 N7242 1.361 . S
C7244 C7252 1.457 . S
C7245 N7240 1.363 . S
C7245 N7242 1.377 . S
C7245 C7258 1.479 . S
C7246 C7243 1.480 . S
C7246 C7247 1.383 . S
C7246 C7251 1.385 . S
C7247 H7228 0.947 . S
C7247 C7246 1.383 . S
C7247 C7248 1.388 . S
C7248 H7229 0.946 . S
C7248 C7247 1.388 . S
C7248 C7249 1.384 . S
C7249 C7248 1.384 . S
C7249 C7250 1.377 . S
C7250 H7230 0.953 . S
C7250 C7249 1.377 . S
C7250 C7251 1.369 . S
C7251 H7231 0.945 . S
C7251 C7246 1.385 . S
C7251 C7250 1.369 . S
C7252 C7244 1.457 . S
C7252 C7253 1.372 . S
C7252 C7257 1.364 . S
C7253 H7232 0.952 . S
C7253 C7252 1.372 . S
C7253 C7254 1.389 . S
C7254 H7233 0.949 . S
C7254 C7253 1.389 . S
C7254 C7255 1.387 . S
C7255 C7254 1.387 . S
C7255 C7256 1.372 . S
C7256 H7234 0.950 . S
C7256 C7255 1.372 . S
C7256 C7257 1.379 . S
C7257 H7235 0.948 . S
C7257 C7252 1.364 . S
C7257 C7256 1.379 . S
C7258 C7227 1.383 . S
C7258 C7245 1.479 . S
C7258 C7259 1.398 . S
C7259 C7224 1.382 . S
C7259 H7236 0.951 . S
C7259 C7258 1.398 . S
C7260 C7261 1.384 . S
C7260 H7273 0.947 . S
C7260 C7295 1.382 . S
C7261 C7260 1.384 . S
C7261 C7262 1.378 . S
C7262 C7261 1.378 . S
C7262 C7263 1.378 . S
C7262 H7274 0.952 . S
C7263 C7262 1.378 . S
C7263 H7275 0.950 . S
C7263 C7294 1.383 . S
H7264 C7283 0.947 . S
H7265 C7284 0.946 . S
H7266 C7286 0.953 . S
H7267 C7287 0.945 . S
H7268 C7289 0.952 . S
H7269 C7290 0.949 . S
H7270 C7292 0.950 . S
H7271 C7293 0.948 . S
H7272 C7295 0.951 . S
H7273 C7260 0.947 . S
H7274 C7262 0.952 . S
H7275 C7263 0.950 . S
N7276 C7279 1.382 . S
N7276 C7281 1.363 . S
N7277 C7279 1.371 . S
N7277 C7280 1.372 . S
N7278 C7280 1.361 . S
N7278 C7281 1.377 . S
C7279 N7276 1.382 . S
C7279 N7277 1.371 . S
C7279 C7282 1.480 . S
C7280 N7277 1.372 . S
C7280 N7278 1.361 . S
C7280 C7288 1.457 . S
C7281 N7276 1.363 . S
C7281 N7278 1.377 . S
C7281 C7294 1.479 . S
C7282 C7279 1.480 . S
C7282 C7283 1.383 . S
C7282 C7287 1.385 . S
C7283 H7264 0.947 . S
C7283 C7282 1.383 . S
C7283 C7284 1.388 . S
C7284 H7265 0.946 . S
C7284 C7283 1.388 . S
C7284 C7285 1.384 . S
C7285 C7284 1.384 . S
C7285 C7286 1.377 . S
C7286 H7266 0.953 . S
C7286 C7285 1.377 . S
C7286 C7287 1.369 . S
C7287 H7267 0.945 . S
C7287 C7282 1.385 . S
C7287 C7286 1.369 . S
C7288 C7280 1.457 . S
C7288 C7289 1.372 . S
C7288 C7293 1.364 . S
C7289 H7268 0.952 . S
C7289 C7288 1.372 . S
C7289 C7290 1.389 . S
C7290 H7269 0.949 . S
C7290 C7289 1.389 . S
C7290 C7291 1.387 . S
C7291 C7290 1.387 . S
C7291 C7292 1.372 . S
C7292 H7270 0.950 . S
C7292 C7291 1.372 . S
C7292 C7293 1.379 . S
C7293 H7271 0.948 . S
C7293 C7288 1.364 . S
C7293 C7292 1.379 . S
C7294 C7263 1.383 . S
C7294 C7281 1.479 . S
C7294 C7295 1.398 . S
C7295 C7260 1.382 . S
C7295 H7272 0.951 . S
C7295 C7294 1.398 . S
C7296 C7297 1.387 . S
C7296 H7300 0.950 . S
C7296 C7305 1.367 1_455 S
C7297 C7296 1.387 . S
C7297 C7299 1.387 . S
H7298 C7305 0.966 . S
C7299 C7297 1.387 . S
C7299 C7301 1.390 . S
C7299 H7303 0.950 . S
H7300 C7296 0.950 . S
C7301 C7299 1.390 . S
C7301 C7302 1.387 1_455 S
C7301 H7304 0.974 . S
C7302 C7301 1.387 1_655 S
C7302 C7305 1.395 . S
H7303 C7299 0.950 . S
H7304 C7301 0.974 . S
C7305 C7296 1.367 1_655 S
C7305 H7298 0.966 . S
C7305 C7302 1.395 . S
C7306 C7307 1.387 . S
C7306 H7310 0.950 . S
C7306 C7315 1.390 . S
C7307 C7306 1.387 . S
C7307 C7309 1.387 . S
H7308 C7315 0.950 . S
C7309 C7307 1.387 . S
C7309 C7311 1.390 . S
C7309 H7313 0.950 . S
H7310 C7306 0.950 . S
C7311 C7309 1.390 . S
C7311 C7312 1.387 . S
C7311 H7314 0.950 . S
C7312 C7311 1.387 . S
C7312 C7315 1.387 . S
H7313 C7309 0.950 . S
H7314 C7311 0.950 . S
C7315 C7306 1.390 . S
C7315 H7308 0.950 . S
C7315 C7312 1.387 . S
C7316 C7317 1.387 . S
C7316 H7320 0.950 . S
C7316 C7325 1.390 . S
C7317 C7316 1.387 . S
C7317 C7319 1.387 . S
H7318 C7325 0.950 . S
C7319 C7317 1.387 . S
C7319 C7321 1.390 . S
C7319 H7323 0.950 . S
H7320 C7316 0.950 . S
C7321 C7319 1.390 . S
C7321 C7322 1.387 . S
C7321 H7324 0.950 . S
C7322 C7321 1.387 . S
C7322 C7325 1.387 . S
H7323 C7319 0.950 . S
H7324 C7321 0.950 . S
C7325 C7316 1.390 . S
C7325 H7318 0.950 . S
C7325 C7322 1.387 . S
C7326 C7327 1.387 . S
C7326 H7330 0.950 . S
C7326 C7335 1.390 . S
C7327 C7326 1.387 . S
C7327 C7329 1.387 . S
H7328 C7335 0.950 . S
C7329 C7327 1.387 . S
C7329 C7331 1.390 . S
C7329 H7333 0.950 . S
H7330 C7326 0.950 . S
C7331 C7329 1.390 . S
C7331 C7332 1.387 . S
C7331 H7334 0.950 . S
C7332 C7331 1.387 . S
C7332 C7335 1.387 . S
H7333 C7329 0.950 . S
H7334 C7331 0.950 . S
C7335 C7326 1.390 . S
C7335 H7328 0.950 . S
C7335 C7332 1.387 . S
C7336 C7337 1.387 . S
C7336 H7340 0.950 . S
C7336 C7345 1.359 1_455 S
C7337 C7336 1.387 . S
C7337 C7339 1.387 . S
H7338 C7345 0.973 . S
C7339 C7337 1.387 . S
C7339 C7341 1.390 . S
C7339 H7343 0.950 . S
H7340 C7336 0.950 . S
C7341 C7339 1.390 . S
C7341 C7342 1.387 1_455 S
C7341 H7344 0.980 . S
C7342 C7341 1.387 1_655 S
C7342 C7345 1.398 . S
H7343 C7339 0.950 . S
H7344 C7341 0.980 . S
C7345 C7336 1.359 1_655 S
C7345 H7338 0.973 . S
C7345 C7342 1.398 . S
C7346 C7347 1.387 . S
C7346 H7350 0.950 . S
C7346 C7355 1.390 . S
C7347 C7346 1.387 . S
C7347 C7349 1.387 . S
H7348 C7355 0.950 . S
C7349 C7347 1.387 . S
C7349 C7351 1.390 . S
C7349 H7353 0.950 . S
H7350 C7346 0.950 . S
C7351 C7349 1.390 . S
C7351 C7352 1.387 . S
C7351 H7354 0.950 . S
C7352 C7351 1.387 . S
C7352 C7355 1.387 . S
H7353 C7349 0.950 . S
H7354 C7351 0.950 . S
C7355 C7346 1.390 . S
C7355 H7348 0.950 . S
C7355 C7352 1.387 . S
C7356 C7357 1.387 . S
C7356 H7360 0.950 . S
C7356 C7365 1.390 . S
C7357 C7356 1.387 . S
C7357 C7359 1.387 . S
H7358 C7365 0.950 . S
C7359 C7357 1.387 . S
C7359 C7361 1.390 . S
C7359 H7363 0.950 . S
H7360 C7356 0.950 . S
C7361 C7359 1.390 . S
C7361 C7362 1.387 . S
C7361 H7364 0.950 . S
C7362 C7361 1.387 . S
C7362 C7365 1.387 . S
H7363 C7359 0.950 . S
H7364 C7361 0.950 . S
C7365 C7356 1.390 . S
C7365 H7358 0.950 . S
C7365 C7362 1.387 . S
C7366 C7367 1.387 . S
C7366 H7370 0.950 . S
C7366 C7375 1.390 . S
C7367 C7366 1.387 . S
C7367 C7369 1.387 . S
H7368 C7375 0.950 . S
C7369 C7367 1.387 . S
C7369 C7371 1.390 . S
C7369 H7373 0.950 . S
H7370 C7366 0.950 . S
C7371 C7369 1.390 . S
C7371 C7372 1.387 . S
C7371 H7374 0.950 . S
C7372 C7371 1.387 . S
C7372 C7375 1.387 . S
H7373 C7369 0.950 . S
H7374 C7371 0.950 . S
C7375 C7366 1.390 . S
C7375 H7368 0.950 . S
C7375 C7372 1.387 . S
C7376 C7377 1.387 . S
C7376 H7380 0.950 . S
C7376 C7385 1.390 . S
C7377 C7376 1.387 . S
C7377 C7379 1.387 . S
H7378 C7385 0.950 . S
C7379 C7377 1.387 . S
C7379 C7381 1.390 . S
C7379 H7383 0.950 . S
H7380 C7376 0.950 . S
C7381 C7379 1.390 . S
C7381 C7382 1.387 . S
C7381 H7384 0.950 . S
C7382 C7381 1.387 . S
C7382 C7385 1.387 . S
H7383 C7379 0.950 . S
H7384 C7381 0.950 . S
C7385 C7376 1.390 . S
C7385 H7378 0.950 . S
C7385 C7382 1.387 . S
C7386 C7387 1.387 . S
C7386 H7390 0.950 . S
C7386 C7395 1.390 . S
C7387 C7386 1.387 . S
C7387 C7389 1.387 . S
H7388 C7395 0.950 . S
C7389 C7387 1.387 . S
C7389 C7391 1.390 . S
C7389 H7393 0.950 . S
H7390 C7386 0.950 . S
C7391 C7389 1.390 . S
C7391 C7392 1.387 . S
C7391 H7394 0.950 . S
C7392 C7391 1.387 . S
C7392 C7395 1.387 . S
H7393 C7389 0.950 . S
H7394 C7391 0.950 . S
C7395 C7386 1.390 . S
C7395 H7388 0.950 . S
C7395 C7392 1.387 . S
C7396 C7397 1.387 . S
C7396 H7400 0.950 . S
C7396 C7405 1.390 . S
C7397 C7396 1.387 . S
C7397 C7399 1.387 . S
H7398 C7405 0.950 . S
C7399 C7397 1.387 . S
C7399 C7401 1.390 . S
C7399 H7403 0.950 . S
H7400 C7396 0.950 . S
C7401 C7399 1.390 . S
C7401 C7402 1.387 . S
C7401 H7404 0.950 . S
C7402 C7401 1.387 . S
C7402 C7405 1.387 . S
H7403 C7399 0.950 . S
H7404 C7401 0.950 . S
C7405 C7396 1.390 . S
C7405 H7398 0.950 . S
C7405 C7402 1.387 . S
C7406 C7407 1.387 . S
C7406 H7410 0.950 . S
C7406 C7415 1.390 . S
C7407 C7406 1.387 . S
C7407 C7409 1.387 . S
H7408 C7415 0.950 . S
C7409 C7407 1.387 . S
C7409 C7411 1.390 . S
C7409 H7413 0.950 . S
H7410 C7406 0.950 . S
C7411 C7409 1.390 . S
C7411 C7412 1.387 . S
C7411 H7414 0.950 . S
C7412 C7411 1.387 . S
C7412 C7415 1.387 . S
H7413 C7409 0.950 . S
H7414 C7411 0.950 . S
C7415 C7406 1.390 . S
C7415 H7408 0.950 . S
C7415 C7412 1.387 . S
C7416 C7417 1.387 . S
C7416 H7420 0.950 . S
C7416 C7425 1.390 . S
C7417 C7416 1.387 . S
C7417 C7419 1.387 . S
H7418 C7425 0.950 . S
C7419 C7417 1.387 . S
C7419 C7421 1.390 . S
C7419 H7423 0.950 . S
H7420 C7416 0.950 . S
C7421 C7419 1.390 . S
C7421 C7422 1.387 . S
C7421 H7424 0.950 . S
C7422 C7421 1.387 . S
C7422 C7425 1.387 . S
H7423 C7419 0.950 . S
H7424 C7421 0.950 . S
C7425 C7416 1.390 . S
C7425 H7418 0.950 . S
C7425 C7422 1.387 . S
C7426 C7427 1.387 . S
C7426 H7430 0.950 . S
C7426 C7435 1.390 . S
C7427 C7426 1.387 . S
C7427 C7429 1.387 . S
H7428 C7435 0.950 . S
C7429 C7427 1.387 . S
C7429 C7431 1.390 . S
C7429 H7433 0.950 . S
H7430 C7426 0.950 . S
C7431 C7429 1.390 . S
C7431 C7432 1.387 . S
C7431 H7434 0.950 . S
C7432 C7431 1.387 . S
C7432 C7435 1.387 . S
H7433 C7429 0.950 . S
H7434 C7431 0.950 . S
C7435 C7426 1.390 . S
C7435 H7428 0.950 . S
C7435 C7432 1.387 . S
C7436 C7437 1.387 . S
C7436 H7440 0.950 . S
C7436 C7445 1.390 . S
C7437 C7436 1.387 . S
C7437 C7439 1.387 . S
H7438 C7445 0.950 . S
C7439 C7437 1.387 . S
C7439 C7441 1.390 . S
C7439 H7443 0.950 . S
H7440 C7436 0.950 . S
C7441 C7439 1.390 . S
C7441 C7442 1.387 . S
C7441 H7444 0.950 . S
C7442 C7441 1.387 . S
C7442 C7445 1.387 . S
H7443 C7439 0.950 . S
H7444 C7441 0.950 . S
C7445 C7436 1.390 . S
C7445 H7438 0.950 . S
C7445 C7442 1.387 . S
C7446 C7447 1.387 . S
C7446 H7450 0.950 . S
C7446 C7455 1.390 . S
C7447 C7446 1.387 . S
C7447 C7449 1.387 . S
H7448 C7455 0.950 . S
C7449 C7447 1.387 . S
C7449 C7451 1.390 . S
C7449 H7453 0.950 . S
H7450 C7446 0.950 . S
C7451 C7449 1.390 . S
C7451 C7452 1.387 . S
C7451 H7454 0.950 . S
C7452 C7451 1.387 . S
C7452 C7455 1.387 . S
H7453 C7449 0.950 . S
H7454 C7451 0.950 . S
C7455 C7446 1.390 . S
C7455 H7448 0.950 . S
C7455 C7452 1.387 . S
C7456 C7457 1.387 . S
C7456 H7460 0.950 . S
C7456 C7465 1.390 . S
C7457 C7456 1.387 . S
C7457 C7459 1.387 . S
H7458 C7465 0.950 . S
C7459 C7457 1.387 . S
C7459 C7461 1.390 . S
C7459 H7463 0.950 . S
H7460 C7456 0.950 . S
C7461 C7459 1.390 . S
C7461 C7462 1.387 . S
C7461 H7464 0.950 . S
C7462 C7461 1.387 . S
C7462 C7465 1.387 . S
H7463 C7459 0.950 . S
H7464 C7461 0.950 . S
C7465 C7456 1.390 . S
C7465 H7458 0.950 . S
C7465 C7462 1.387 . S
C7466 C7467 1.387 . S
C7466 H7470 0.950 . S
C7466 C7475 1.390 . S
C7467 C7466 1.387 . S
C7467 C7469 1.387 . S
H7468 C7475 0.950 . S
C7469 C7467 1.387 . S
C7469 C7471 1.390 . S
C7469 H7473 0.950 . S
H7470 C7466 0.950 . S
C7471 C7469 1.390 . S
C7471 C7472 1.387 . S
C7471 H7474 0.950 . S
C7472 C7471 1.387 . S
C7472 C7475 1.387 . S
H7473 C7469 0.950 . S
H7474 C7471 0.950 . S
C7475 C7466 1.390 . S
C7475 H7468 0.950 . S
C7475 C7472 1.387 . S
C7476 C7477 1.387 . S
C7476 H7480 0.950 . S
C7476 C7485 1.390 . S
C7477 C7476 1.387 . S
C7477 C7479 1.387 . S
H7478 C7485 0.950 . S
C7479 C7477 1.387 . S
C7479 C7481 1.390 . S
C7479 H7483 0.950 . S
H7480 C7476 0.950 . S
C7481 C7479 1.390 . S
C7481 C7482 1.387 . S
C7481 H7484 0.950 . S
C7482 C7481 1.387 . S
C7482 C7485 1.387 . S
H7483 C7479 0.950 . S
H7484 C7481 0.950 . S
C7485 C7476 1.390 . S
C7485 H7478 0.950 . S
C7485 C7482 1.387 . S
C7486 C7487 1.387 . S
C7486 H7490 0.950 . S
C7486 C7495 1.390 . S
C7487 C7486 1.387 . S
C7487 C7489 1.387 . S
H7488 C7495 0.950 . S
C7489 C7487 1.387 . S
C7489 C7491 1.390 . S
C7489 H7493 0.950 . S
H7490 C7486 0.950 . S
C7491 C7489 1.390 . S
C7491 C7492 1.387 . S
C7491 H7494 0.950 . S
C7492 C7491 1.387 . S
C7492 C7495 1.387 . S
H7493 C7489 0.950 . S
H7494 C7491 0.950 . S
C7495 C7486 1.390 . S
C7495 H7488 0.950 . S
C7495 C7492 1.387 . S
C7496 C7497 1.387 . S
C7496 H7500 0.950 . S
C7496 C7505 1.390 . S
C7497 C7496 1.387 . S
C7497 C7499 1.387 . S
H7498 C7505 0.950 . S
C7499 C7497 1.387 . S
C7499 C7501 1.390 . S
C7499 H7503 0.950 . S
H7500 C7496 0.950 . S
C7501 C7499 1.390 . S
C7501 C7502 1.387 . S
C7501 H7504 0.950 . S
C7502 C7501 1.387 . S
C7502 C7505 1.387 . S
H7503 C7499 0.950 . S
H7504 C7501 0.950 . S
C7505 C7496 1.390 . S
C7505 H7498 0.950 . S
C7505 C7502 1.387 . S
C7506 C7507 1.387 . S
C7506 H7510 0.950 . S
C7506 C7515 1.390 . S
C7507 C7506 1.387 . S
C7507 C7509 1.387 . S
H7508 C7515 0.950 . S
C7509 C7507 1.387 . S
C7509 C7511 1.390 . S
C7509 H7513 0.950 . S
H7510 C7506 0.950 . S
C7511 C7509 1.390 . S
C7511 C7512 1.387 . S
C7511 H7514 0.950 . S
C7512 C7511 1.387 . S
C7512 C7515 1.387 . S
H7513 C7509 0.950 . S
H7514 C7511 0.950 . S
C7515 C7506 1.390 . S
C7515 H7508 0.950 . S
C7515 C7512 1.387 . S
C7516 C7517 1.387 . S
C7516 H7520 0.950 . S
C7516 C7525 1.390 . S
C7517 C7516 1.387 . S
C7517 C7519 1.387 . S
H7518 C7525 0.950 . S
C7519 C7517 1.387 . S
C7519 C7521 1.390 . S
C7519 H7523 0.950 . S
H7520 C7516 0.950 . S
C7521 C7519 1.390 . S
C7521 C7522 1.387 . S
C7521 H7524 0.950 . S
C7522 C7521 1.387 . S
C7522 C7525 1.387 . S
H7523 C7519 0.950 . S
H7524 C7521 0.950 . S
C7525 C7516 1.390 . S
C7525 H7518 0.950 . S
C7525 C7522 1.387 . S
C7526 C7527 1.387 . S
C7526 H7530 0.950 . S
C7526 C7535 1.390 . S
C7527 C7526 1.387 . S
C7527 C7529 1.387 . S
H7528 C7535 0.950 . S
C7529 C7527 1.387 . S
C7529 C7531 1.390 . S
C7529 H7533 0.950 . S
H7530 C7526 0.950 . S
C7531 C7529 1.390 . S
C7531 C7532 1.387 . S
C7531 H7534 0.950 . S
C7532 C7531 1.387 . S
C7532 C7535 1.387 . S
H7533 C7529 0.950 . S
H7534 C7531 0.950 . S
C7535 C7526 1.390 . S
C7535 H7528 0.950 . S
C7535 C7532 1.387 . S
C7536 C7537 1.387 . S
C7536 H7540 0.950 . S
C7536 C7545 1.390 1_655 S
C7537 C7536 1.387 . S
C7537 C7539 1.387 . S
H7538 C7545 0.950 . S
C7539 C7537 1.387 . S
C7539 C7541 1.390 1_655 S
C7539 H7543 0.950 . S
H7540 C7536 0.950 . S
C7541 C7539 1.390 1_455 S
C7541 C7542 1.387 . S
C7541 H7544 0.950 . S
C7542 C7541 1.387 . S
C7542 C7545 1.387 . S
H7543 C7539 0.950 . S
H7544 C7541 0.950 . S
C7545 C7536 1.390 1_455 S
C7545 H7538 0.950 . S
C7545 C7542 1.387 . S
C7546 C7547 1.387 . S
C7546 H7550 0.950 . S
C7546 C7555 1.390 . S
C7547 C7546 1.387 . S
C7547 C7549 1.387 . S
H7548 C7555 0.950 . S
C7549 C7547 1.387 . S
C7549 C7551 1.390 . S
C7549 H7553 0.950 . S
H7550 C7546 0.950 . S
C7551 C7549 1.390 . S
C7551 C7552 1.387 . S
C7551 H7554 0.950 . S
C7552 C7551 1.387 . S
C7552 C7555 1.387 . S
H7553 C7549 0.950 . S
H7554 C7551 0.950 . S
C7555 C7546 1.390 . S
C7555 H7548 0.950 . S
C7555 C7552 1.387 . S
C7556 C7557 1.387 . S
C7556 H7560 0.950 . S
C7556 C7565 1.390 . S
C7557 C7556 1.387 . S
C7557 C7559 1.387 . S
H7558 C7565 0.950 . S
C7559 C7557 1.387 . S
C7559 C7561 1.390 . S
C7559 H7563 0.950 . S
H7560 C7556 0.950 . S
C7561 C7559 1.390 . S
C7561 C7562 1.387 . S
C7561 H7564 0.950 . S
C7562 C7561 1.387 . S
C7562 C7565 1.387 . S
H7563 C7559 0.950 . S
H7564 C7561 0.950 . S
C7565 C7556 1.390 . S
C7565 H7558 0.950 . S
C7565 C7562 1.387 . S
C7566 C7567 1.387 . S
C7566 H7570 0.950 . S
C7566 C7575 1.390 . S
C7567 C7566 1.387 . S
C7567 C7569 1.387 . S
H7568 C7575 0.950 . S
C7569 C7567 1.387 . S
C7569 C7571 1.390 . S
C7569 H7573 0.950 . S
H7570 C7566 0.950 . S
C7571 C7569 1.390 . S
C7571 C7572 1.387 . S
C7571 H7574 0.950 . S
C7572 C7571 1.387 . S
C7572 C7575 1.387 . S
H7573 C7569 0.950 . S
H7574 C7571 0.950 . S
C7575 C7566 1.390 . S
C7575 H7568 0.950 . S
C7575 C7572 1.387 . S
C7576 C7577 1.387 . S
C7576 H7580 0.950 . S
C7576 C7585 1.390 1_655 S
C7577 C7576 1.387 . S
C7577 C7579 1.387 . S
H7578 C7585 0.950 . S
C7579 C7577 1.387 . S
C7579 C7581 1.390 1_655 S
C7579 H7583 0.950 . S
H7580 C7576 0.950 . S
C7581 C7579 1.390 1_455 S
C7581 C7582 1.387 . S
C7581 H7584 0.950 . S
C7582 C7581 1.387 . S
C7582 C7585 1.387 . S
H7583 C7579 0.950 . S
H7584 C7581 0.950 . S
C7585 C7576 1.390 1_455 S
C7585 H7578 0.950 . S
C7585 C7582 1.387 . S
C7586 C7587 1.387 . S
C7586 H7590 0.950 . S
C7586 C7595 1.390 . S
C7587 C7586 1.387 . S
C7587 C7589 1.387 . S
H7588 C7595 0.950 . S
C7589 C7587 1.387 . S
C7589 C7591 1.390 . S
C7589 H7593 0.950 . S
H7590 C7586 0.950 . S
C7591 C7589 1.390 . S
C7591 C7592 1.387 . S
C7591 H7594 0.950 . S
C7592 C7591 1.387 . S
C7592 C7595 1.387 . S
H7593 C7589 0.950 . S
H7594 C7591 0.950 . S
C7595 C7586 1.390 . S
C7595 H7588 0.950 . S
C7595 C7592 1.387 . S
C7596 C7597 1.387 . S
C7596 H7600 0.950 . S
C7596 C7605 1.390 . S
C7597 C7596 1.387 . S
C7597 C7599 1.387 . S
H7598 C7605 0.950 . S
C7599 C7597 1.387 . S
C7599 C7601 1.390 . S
C7599 H7603 0.950 . S
H7600 C7596 0.950 . S
C7601 C7599 1.390 . S
C7601 C7602 1.387 . S
C7601 H7604 0.950 . S
C7602 C7601 1.387 . S
C7602 C7605 1.387 . S
H7603 C7599 0.950 . S
H7604 C7601 0.950 . S
C7605 C7596 1.390 . S
C7605 H7598 0.950 . S
C7605 C7602 1.387 . S
C7606 C7607 1.387 . S
C7606 H7610 0.950 . S
C7606 C7615 1.390 . S
C7607 C7606 1.387 . S
C7607 C7609 1.387 . S
H7608 C7615 0.950 . S
C7609 C7607 1.387 . S
C7609 C7611 1.390 . S
C7609 H7613 0.950 . S
H7610 C7606 0.950 . S
C7611 C7609 1.390 . S
C7611 C7612 1.387 . S
C7611 H7614 0.950 . S
C7612 C7611 1.387 . S
C7612 C7615 1.387 . S
H7613 C7609 0.950 . S
H7614 C7611 0.950 . S
C7615 C7606 1.390 . S
C7615 H7608 0.950 . S
C7615 C7612 1.387 . S
C7616 C7617 1.387 . S
C7616 H7620 0.950 . S
C7616 C7625 1.390 . S
C7617 C7616 1.387 . S
C7617 C7619 1.387 . S
H7618 C7625 0.950 . S
C7619 C7617 1.387 . S
C7619 C7621 1.390 . S
C7619 H7623 0.950 . S
H7620 C7616 0.950 . S
C7621 C7619 1.390 . S
C7621 C7622 1.387 . S
C7621 H7624 0.950 1_565 S
C7622 C7621 1.387 . S
C7622 C7625 1.387 . S
H7623 C7619 0.950 . S
H7624 C7621 0.950 1_545 S
C7625 C7616 1.390 . S
C7625 H7618 0.950 . S
C7625 C7622 1.387 . S
C7626 C7627 1.387 . S
C7626 H7630 0.950 . S
C7626 C7635 1.390 . S
C7627 C7626 1.387 . S
C7627 C7629 1.387 . S
H7628 C7635 0.950 . S
C7629 C7627 1.387 . S
C7629 C7631 1.390 . S
C7629 H7633 0.950 . S
H7630 C7626 0.950 . S
C7631 C7629 1.390 . S
C7631 C7632 1.387 . S
C7631 H7634 0.950 . S
C7632 C7631 1.387 . S
C7632 C7635 1.387 . S
H7633 C7629 0.950 . S
H7634 C7631 0.950 . S
C7635 C7626 1.390 . S
C7635 H7628 0.950 . S
C7635 C7632 1.387 . S
C7636 C7637 1.480 . S
C7636 H7640 0.938 1_545 S
C7636 C7645 1.323 1_545 S
C7637 C7636 1.480 . S
C7637 C7639 1.387 . S
H7638 C7645 0.950 . S
C7639 C7637 1.387 . S
C7639 C7641 1.390 . S
C7639 H7643 0.950 . S
H7640 C7636 0.938 1_565 S
C7641 C7639 1.390 . S
C7641 C7642 1.387 1_545 S
C7641 H7644 0.950 . S
C7642 C7641 1.387 1_565 S
C7642 C7645 1.387 . S
H7643 C7639 0.950 . S
H7644 C7641 0.950 . S
C7645 C7636 1.323 1_565 S
C7645 H7638 0.950 . S
C7645 C7642 1.387 . S
C7646 C7647 1.387 . S
C7646 H7650 0.950 . S
C7646 C7655 1.390 . S
C7647 C7646 1.387 . S
C7647 C7649 1.387 . S
H7648 C7655 0.950 . S
C7649 C7647 1.387 . S
C7649 C7651 1.390 . S
C7649 H7653 0.950 . S
H7650 C7646 0.950 . S
C7651 C7649 1.390 . S
C7651 C7652 1.387 . S
C7651 H7654 0.950 . S
C7652 C7651 1.387 . S
C7652 C7655 1.387 . S
H7653 C7649 0.950 . S
H7654 C7651 0.950 . S
C7655 C7646 1.390 . S
C7655 H7648 0.950 . S
C7655 C7652 1.387 . S
C7656 C7657 1.387 . S
C7656 H7660 0.950 . S
C7656 C7665 1.390 . S
C7657 C7656 1.387 . S
C7657 C7659 1.387 . S
H7658 C7665 0.950 . S
C7659 C7657 1.387 . S
C7659 C7661 1.390 . S
C7659 H7663 0.950 . S
H7660 C7656 0.950 . S
C7661 C7659 1.390 . S
C7661 C7662 1.387 . S
C7661 H7664 0.950 . S
C7662 C7661 1.387 . S
C7662 C7665 1.387 . S
H7663 C7659 0.950 . S
H7664 C7661 0.950 . S
C7665 C7656 1.390 . S
C7665 H7658 0.950 . S
C7665 C7662 1.387 . S
C7666 C7667 1.387 . S
C7666 H7670 0.950 . S
C7666 C7675 1.390 . S
C7667 C7666 1.387 . S
C7667 C7669 1.387 . S
H7668 C7675 0.950 . S
C7669 C7667 1.387 . S
C7669 C7671 1.390 . S
C7669 H7673 0.950 . S
H7670 C7666 0.950 . S
C7671 C7669 1.390 . S
C7671 C7672 1.387 . S
C7671 H7674 0.950 . S
C7672 C7671 1.387 . S
C7672 C7675 1.387 . S
H7673 C7669 0.950 . S
H7674 C7671 0.950 . S
C7675 C7666 1.390 . S
C7675 H7668 0.950 . S
C7675 C7672 1.387 . S
C7676 C7677 1.387 . S
C7676 H7680 0.950 . S
C7676 C7685 1.390 1_565 S
C7677 C7676 1.387 . S
C7677 C7679 1.387 . S
H7678 C7685 0.950 . S
C7679 C7677 1.387 . S
C7679 C7681 1.462 . S
C7679 H7683 0.950 . S
H7680 C7676 0.950 . S
C7681 C7679 1.462 . S
C7681 C7682 1.342 1_565 S
C7681 H7684 0.938 1_565 S
C7682 C7681 1.342 1_545 S
C7682 C7685 1.387 . S
H7683 C7679 0.950 . S
H7684 C7681 0.938 1_545 S
C7685 C7676 1.390 1_545 S
C7685 H7678 0.950 . S
C7685 C7682 1.387 . S
C7686 C7687 1.387 . S
C7686 H7690 0.950 . S
C7686 C7695 1.390 . S
C7687 C7686 1.387 . S
C7687 C7689 1.387 . S
H7688 C7695 0.950 . S
C7689 C7687 1.387 . S
C7689 C7691 1.390 . S
C7689 H7693 0.950 . S
H7690 C7686 0.950 . S
C7691 C7689 1.390 . S
C7691 C7692 1.387 . S
C7691 H7694 0.950 . S
C7692 C7691 1.387 . S
C7692 C7695 1.387 . S
H7693 C7689 0.950 . S
H7694 C7691 0.950 . S
C7695 C7686 1.390 . S
C7695 H7688 0.950 . S
C7695 C7692 1.387 . S
C7696 C7697 1.387 . S
C7696 H7700 0.950 . S
C7696 C7705 1.390 . S
C7697 C7696 1.387 . S
C7697 C7699 1.387 . S
H7698 C7705 0.950 . S
C7699 C7697 1.387 . S
C7699 C7701 1.390 . S
C7699 H7703 0.950 . S
H7700 C7696 0.950 . S
C7701 C7699 1.390 . S
C7701 C7702 1.387 . S
C7701 H7704 0.950 . S
C7702 C7701 1.387 . S
C7702 C7705 1.387 . S
H7703 C7699 0.950 . S
H7704 C7701 0.950 . S
C7705 C7696 1.390 . S
C7705 H7698 0.950 . S
C7705 C7702 1.387 . S
C7706 C7707 1.387 . S
C7706 H7710 0.950 . S
C7706 C7715 1.390 . S
C7707 C7706 1.387 . S
C7707 C7709 1.387 . S
H7708 C7715 0.950 . S
C7709 C7707 1.387 . S
C7709 C7711 1.390 . S
C7709 H7713 0.950 . S
H7710 C7706 0.950 . S
C7711 C7709 1.390 . S
C7711 C7712 1.387 . S
C7711 H7714 0.950 . S
C7712 C7711 1.387 . S
C7712 C7715 1.387 . S
H7713 C7709 0.950 . S
H7714 C7711 0.950 . S
C7715 C7706 1.390 . S
C7715 H7708 0.950 . S
C7715 C7712 1.387 . S
C7716 C7717 1.387 . S
C7716 H7720 0.950 . S
C7716 C7725 1.390 . S
C7717 C7716 1.387 . S
C7717 C7719 1.387 . S
H7718 C7725 0.950 . S
C7719 C7717 1.387 . S
C7719 C7721 1.390 . S
C7719 H7723 0.950 . S
H7720 C7716 0.950 . S
C7721 C7719 1.390 . S
C7721 C7722 1.387 . S
C7721 H7724 0.950 . S
C7722 C7721 1.387 . S
C7722 C7725 1.387 . S
H7723 C7719 0.950 . S
H7724 C7721 0.950 . S
C7725 C7716 1.390 . S
C7725 H7718 0.950 . S
C7725 C7722 1.387 . S
C7726 C7727 1.387 . S
C7726 H7730 0.950 . S
C7726 C7735 1.390 . S
C7727 C7726 1.387 . S
C7727 C7729 1.387 . S
H7728 C7735 0.950 . S
C7729 C7727 1.387 . S
C7729 C7731 1.390 . S
C7729 H7733 0.950 . S
H7730 C7726 0.950 . S
C7731 C7729 1.390 . S
C7731 C7732 1.387 . S
C7731 H7734 0.950 . S
C7732 C7731 1.387 . S
C7732 C7735 1.387 . S
H7733 C7729 0.950 . S
H7734 C7731 0.950 . S
C7735 C7726 1.390 . S
C7735 H7728 0.950 . S
C7735 C7732 1.387 . S
C7736 C7737 1.387 . S
C7736 H7740 0.950 . S
C7736 C7745 1.390 . S
C7737 C7736 1.387 . S
C7737 C7739 1.387 . S
H7738 C7745 0.950 . S
C7739 C7737 1.387 . S
C7739 C7741 1.390 . S
C7739 H7743 0.950 . S
H7740 C7736 0.950 . S
C7741 C7739 1.390 . S
C7741 C7742 1.387 . S
C7741 H7744 0.950 . S
C7742 C7741 1.387 . S
C7742 C7745 1.387 . S
H7743 C7739 0.950 . S
H7744 C7741 0.950 . S
C7745 C7736 1.390 . S
C7745 H7738 0.950 . S
C7745 C7742 1.387 . S
C7746 C7747 1.387 . S
C7746 H7750 0.950 . S
C7746 C7755 1.390 . S
C7747 C7746 1.387 . S
C7747 C7749 1.387 . S
H7748 C7755 0.950 . S
C7749 C7747 1.387 . S
C7749 C7751 1.390 . S
C7749 H7753 0.950 . S
H7750 C7746 0.950 . S
C7751 C7749 1.390 . S
C7751 C7752 1.387 . S
C7751 H7754 0.950 . S
C7752 C7751 1.387 . S
C7752 C7755 1.387 . S
H7753 C7749 0.950 . S
H7754 C7751 0.950 . S
C7755 C7746 1.390 . S
C7755 H7748 0.950 . S
C7755 C7752 1.387 . S
C7756 C7757 1.387 . S
C7756 H7760 0.950 . S
C7756 C7765 1.390 . S
C7757 C7756 1.387 . S
C7757 C7759 1.387 . S
H7758 C7765 0.950 . S
C7759 C7757 1.387 . S
C7759 C7761 1.390 . S
C7759 H7763 0.950 . S
H7760 C7756 0.950 . S
C7761 C7759 1.390 . S
C7761 C7762 1.387 . S
C7761 H7764 0.950 . S
C7762 C7761 1.387 . S
C7762 C7765 1.387 . S
H7763 C7759 0.950 . S
H7764 C7761 0.950 . S
C7765 C7756 1.390 . S
C7765 H7758 0.950 . S
C7765 C7762 1.387 . S
C7766 C7767 1.387 . S
C7766 H7770 0.950 . S
C7766 C7775 1.390 . S
C7767 C7766 1.387 . S
C7767 C7769 1.387 . S
H7768 C7775 0.950 . S
C7769 C7767 1.387 . S
C7769 C7771 1.390 . S
C7769 H7773 0.950 . S
H7770 C7766 0.950 . S
C7771 C7769 1.390 . S
C7771 C7772 1.387 . S
C7771 H7774 0.950 . S
C7772 C7771 1.387 . S
C7772 C7775 1.387 . S
H7773 C7769 0.950 . S
H7774 C7771 0.950 . S
C7775 C7766 1.390 . S
C7775 H7768 0.950 . S
C7775 C7772 1.387 . S
C7776 C7777 1.387 . S
C7776 H7780 0.950 . S
C7776 C7785 1.390 . S
C7777 C7776 1.387 . S
C7777 C7779 1.387 . S
H7778 C7785 0.950 . S
C7779 C7777 1.387 . S
C7779 C7781 1.390 . S
C7779 H7783 0.950 . S
H7780 C7776 0.950 . S
C7781 C7779 1.390 . S
C7781 C7782 1.387 . S
C7781 H7784 0.950 . S
C7782 C7781 1.387 . S
C7782 C7785 1.387 . S
H7783 C7779 0.950 . S
H7784 C7781 0.950 . S
C7785 C7776 1.390 . S
C7785 H7778 0.950 . S
C7785 C7782 1.387 . S
C7786 C7787 1.387 . S
C7786 H7790 0.950 . S
C7786 C7795 1.390 . S
C7787 C7786 1.387 . S
C7787 C7789 1.387 . S
H7788 C7795 0.950 . S
C7789 C7787 1.387 . S
C7789 C7791 1.390 . S
C7789 H7793 0.950 . S
H7790 C7786 0.950 . S
C7791 C7789 1.390 . S
C7791 C7792 1.387 . S
C7791 H7794 0.950 . S
C7792 C7791 1.387 . S
C7792 C7795 1.387 . S
H7793 C7789 0.950 . S
H7794 C7791 0.950 . S
C7795 C7786 1.390 . S
C7795 H7788 0.950 . S
C7795 C7792 1.387 . S
C7796 C7797 1.387 . S
C7796 H7800 0.950 . S
C7796 C7805 1.390 . S
C7797 C7796 1.387 . S
C7797 C7799 1.387 . S
H7798 C7805 0.950 . S
C7799 C7797 1.387 . S
C7799 C7801 1.390 . S
C7799 H7803 0.950 . S
H7800 C7796 0.950 . S
C7801 C7799 1.390 . S
C7801 C7802 1.387 . S
C7801 H7804 0.950 . S
C7802 C7801 1.387 . S
C7802 C7805 1.387 . S
H7803 C7799 0.950 . S
H7804 C7801 0.950 . S
C7805 C7796 1.390 . S
C7805 H7798 0.950 . S
C7805 C7802 1.387 . S
C7806 C7807 1.387 . S
C7806 H7810 0.950 . S
C7806 C7815 1.390 . S
C7807 C7806 1.387 . S
C7807 C7809 1.387 . S
H7808 C7815 0.950 . S
C7809 C7807 1.387 . S
C7809 C7811 1.390 . S
C7809 H7813 0.950 . S
H7810 C7806 0.950 . S
C7811 C7809 1.390 . S
C7811 C7812 1.387 . S
C7811 H7814 0.950 . S
C7812 C7811 1.387 . S
C7812 C7815 1.387 . S
H7813 C7809 0.950 . S
H7814 C7811 0.950 . S
C7815 C7806 1.390 . S
C7815 H7808 0.950 . S
C7815 C7812 1.387 . S
C7816 C7817 1.387 . S
C7816 H7820 0.950 . S
C7816 C7825 1.390 . S
C7817 C7816 1.387 . S
C7817 C7819 1.387 . S
H7818 C7825 0.950 . S
C7819 C7817 1.387 . S
C7819 C7821 1.390 . S
C7819 H7823 0.950 . S
H7820 C7816 0.950 . S
C7821 C7819 1.390 . S
C7821 C7822 1.387 . S
C7821 H7824 0.950 . S
C7822 C7821 1.387 . S
C7822 C7825 1.387 . S
H7823 C7819 0.950 . S
H7824 C7821 0.950 . S
C7825 C7816 1.390 . S
C7825 H7818 0.950 . S
C7825 C7822 1.387 . S
C7826 C7827 1.387 . S
C7826 H7830 0.950 . S
C7826 C7835 1.390 . S
C7827 C7826 1.387 . S
C7827 C7829 1.387 . S
H7828 C7835 0.950 . S
C7829 C7827 1.387 . S
C7829 C7831 1.390 . S
C7829 H7833 0.950 . S
H7830 C7826 0.950 . S
C7831 C7829 1.390 . S
C7831 C7832 1.387 . S
C7831 H7834 0.950 . S
C7832 C7831 1.387 . S
C7832 C7835 1.387 . S
H7833 C7829 0.950 . S
H7834 C7831 0.950 . S
C7835 C7826 1.390 . S
C7835 H7828 0.950 . S
C7835 C7832 1.387 . S
C7836 C7837 1.387 . S
C7836 H7840 0.950 . S
C7836 C7845 1.390 . S
C7837 C7836 1.387 . S
C7837 C7839 1.387 . S
H7838 C7845 0.950 . S
C7839 C7837 1.387 . S
C7839 C7841 1.390 . S
C7839 H7843 0.950 . S
H7840 C7836 0.950 . S
C7841 C7839 1.390 . S
C7841 C7842 1.387 . S
C7841 H7844 0.950 . S
C7842 C7841 1.387 . S
C7842 C7845 1.387 . S
H7843 C7839 0.950 . S
H7844 C7841 0.950 . S
C7845 C7836 1.390 . S
C7845 H7838 0.950 . S
C7845 C7842 1.387 . S
C7846 C7847 1.387 . S
C7846 H7850 0.950 . S
C7846 C7855 1.390 . S
C7847 C7846 1.387 . S
C7847 C7849 1.387 . S
H7848 C7855 0.950 . S
C7849 C7847 1.387 . S
C7849 C7851 1.390 . S
C7849 H7853 0.950 . S
H7850 C7846 0.950 . S
C7851 C7849 1.390 . S
C7851 C7852 1.387 . S
C7851 H7854 0.950 . S
C7852 C7851 1.387 . S
C7852 C7855 1.387 . S
H7853 C7849 0.950 . S
H7854 C7851 0.950 . S
C7855 C7846 1.390 . S
C7855 H7848 0.950 . S
C7855 C7852 1.387 . S
C7856 C7857 1.387 . S
C7856 H7860 0.950 . S
C7856 C7865 1.390 . S
C7857 C7856 1.387 . S
C7857 C7859 1.387 . S
H7858 C7865 0.950 . S
C7859 C7857 1.387 . S
C7859 C7861 1.390 . S
C7859 H7863 0.950 . S
H7860 C7856 0.950 . S
C7861 C7859 1.390 . S
C7861 C7862 1.387 . S
C7861 H7864 0.950 . S
C7862 C7861 1.387 . S
C7862 C7865 1.387 . S
H7863 C7859 0.950 . S
H7864 C7861 0.950 . S
C7865 C7856 1.390 . S
C7865 H7858 0.950 . S
C7865 C7862 1.387 . S
C7866 C7867 1.387 . S
C7866 H7870 0.950 . S
C7866 C7875 1.390 . S
C7867 C7866 1.387 . S
C7867 C7869 1.387 . S
H7868 C7875 0.950 . S
C7869 C7867 1.387 . S
C7869 C7871 1.390 . S
C7869 H7873 0.950 . S
H7870 C7866 0.950 . S
C7871 C7869 1.390 . S
C7871 C7872 1.387 . S
C7871 H7874 0.950 . S
C7872 C7871 1.387 . S
C7872 C7875 1.387 . S
H7873 C7869 0.950 . S
H7874 C7871 0.950 . S
C7875 C7866 1.390 . S
C7875 H7868 0.950 . S
C7875 C7872 1.387 . S
C7876 C7877 1.387 . S
C7876 H7880 0.950 . S
C7876 C7885 1.390 . S
C7877 C7876 1.387 . S
C7877 C7879 1.387 . S
H7878 C7885 0.950 . S
C7879 C7877 1.387 . S
C7879 C7881 1.390 . S
C7879 H7883 0.950 . S
H7880 C7876 0.950 . S
C7881 C7879 1.390 . S
C7881 C7882 1.387 . S
C7881 H7884 0.950 . S
C7882 C7881 1.387 . S
C7882 C7885 1.387 . S
H7883 C7879 0.950 . S
H7884 C7881 0.950 . S
C7885 C7876 1.390 . S
C7885 H7878 0.950 . S
C7885 C7882 1.387 . S
C7886 C7887 1.387 . S
C7886 H7890 0.950 . S
C7886 C7895 1.390 . S
C7887 C7886 1.387 . S
C7887 C7889 1.387 . S
H7888 C7895 0.950 . S
C7889 C7887 1.387 . S
C7889 C7891 1.390 . S
C7889 H7893 0.950 . S
H7890 C7886 0.950 . S
C7891 C7889 1.390 . S
C7891 C7892 1.387 . S
C7891 H7894 0.950 . S
C7892 C7891 1.387 . S
C7892 C7895 1.387 . S
H7893 C7889 0.950 . S
H7894 C7891 0.950 . S
C7895 C7886 1.390 . S
C7895 H7888 0.950 . S
C7895 C7892 1.387 . S
C7896 C7897 1.387 . S
C7896 H7900 0.950 . S
C7896 C7905 1.390 . S
C7897 C7896 1.387 . S
C7897 C7899 1.387 . S
H7898 C7905 0.950 . S
C7899 C7897 1.387 . S
C7899 C7901 1.390 . S
C7899 H7903 0.950 . S
H7900 C7896 0.950 . S
C7901 C7899 1.390 . S
C7901 C7902 1.387 . S
C7901 H7904 0.950 . S
C7902 C7901 1.387 . S
C7902 C7905 1.387 . S
H7903 C7899 0.950 . S
H7904 C7901 0.950 . S
C7905 C7896 1.390 . S
C7905 H7898 0.950 . S
C7905 C7902 1.387 . S
C7906 C7907 1.387 . S
C7906 H7910 0.950 . S
C7906 C7915 1.390 . S
C7907 C7906 1.387 . S
C7907 C7909 1.387 . S
H7908 C7915 0.950 . S
C7909 C7907 1.387 . S
C7909 C7911 1.390 . S
C7909 H7913 0.950 . S
H7910 C7906 0.950 . S
C7911 C7909 1.390 . S
C7911 C7912 1.387 . S
C7911 H7914 0.950 . S
C7912 C7911 1.387 . S
C7912 C7915 1.387 . S
H7913 C7909 0.950 . S
H7914 C7911 0.950 . S
C7915 C7906 1.390 . S
C7915 H7908 0.950 . S
C7915 C7912 1.387 . S
C7916 C7917 1.387 . S
C7916 H7920 0.950 . S
C7916 C7925 1.390 . S
C7917 C7916 1.387 . S
C7917 C7919 1.387 . S
H7918 C7925 0.950 . S
C7919 C7917 1.387 . S
C7919 C7921 1.390 . S
C7919 H7923 0.950 . S
H7920 C7916 0.950 . S
C7921 C7919 1.390 . S
C7921 C7922 1.387 . S
C7921 H7924 0.950 . S
C7922 C7921 1.387 . S
C7922 C7925 1.387 . S
H7923 C7919 0.950 . S
H7924 C7921 0.950 . S
C7925 C7916 1.390 . S
C7925 H7918 0.950 . S
C7925 C7922 1.387 . S
C7926 C7927 1.387 . S
C7926 H7930 0.950 . S
C7926 C7935 1.390 . S
C7927 C7926 1.387 . S
C7927 C7929 1.387 . S
H7928 C7935 0.950 . S
C7929 C7927 1.387 . S
C7929 C7931 1.390 . S
C7929 H7933 0.950 . S
H7930 C7926 0.950 . S
C7931 C7929 1.390 . S
C7931 C7932 1.387 . S
C7931 H7934 0.950 . S
C7932 C7931 1.387 . S
C7932 C7935 1.387 . S
H7933 C7929 0.950 . S
H7934 C7931 0.950 . S
C7935 C7926 1.390 . S
C7935 H7928 0.950 . S
C7935 C7932 1.387 . S
C7936 C7937 1.387 . S
C7936 H7940 0.950 . S
C7936 C7945 1.390 . S
C7937 C7936 1.387 . S
C7937 C7939 1.387 . S
H7938 C7945 0.950 . S
C7939 C7937 1.387 . S
C7939 C7941 1.390 . S
C7939 H7943 0.950 . S
H7940 C7936 0.950 . S
C7941 C7939 1.390 . S
C7941 C7942 1.387 . S
C7941 H7944 0.950 . S
C7942 C7941 1.387 . S
C7942 C7945 1.387 . S
H7943 C7939 0.950 . S
H7944 C7941 0.950 . S
C7945 C7936 1.390 . S
C7945 H7938 0.950 . S
C7945 C7942 1.387 . S
C7946 C7947 1.387 . S
C7946 H7950 0.950 . S
C7946 C7955 1.390 . S
C7947 C7946 1.387 . S
C7947 C7949 1.387 . S
H7948 C7955 0.950 . S
C7949 C7947 1.387 . S
C7949 C7951 1.390 . S
C7949 H7953 0.950 . S
H7950 C7946 0.950 . S
C7951 C7949 1.390 . S
C7951 C7952 1.387 . S
C7951 H7954 0.950 . S
C7952 C7951 1.387 . S
C7952 C7955 1.387 . S
H7953 C7949 0.950 . S
H7954 C7951 0.950 . S
C7955 C7946 1.390 . S
C7955 H7948 0.950 . S
C7955 C7952 1.387 . S
C7956 C7957 1.387 . S
C7956 H7960 0.950 . S
C7956 C7965 1.390 . S
C7957 C7956 1.387 . S
C7957 C7959 1.387 . S
H7958 C7965 0.950 . S
C7959 C7957 1.387 . S
C7959 C7961 1.390 . S
C7959 H7963 0.950 . S
H7960 C7956 0.950 . S
C7961 C7959 1.390 . S
C7961 C7962 1.387 . S
C7961 H7964 0.950 . S
C7962 C7961 1.387 . S
C7962 C7965 1.387 . S
H7963 C7959 0.950 . S
H7964 C7961 0.950 . S
C7965 C7956 1.390 . S
C7965 H7958 0.950 . S
C7965 C7962 1.387 . S
C7966 C7967 1.387 . S
C7966 H7970 0.950 . S
C7966 C7975 1.390 . S
C7967 C7966 1.387 . S
C7967 C7969 1.387 . S
H7968 C7975 0.950 . S
C7969 C7967 1.387 . S
C7969 C7971 1.390 . S
C7969 H7973 0.950 . S
H7970 C7966 0.950 . S
C7971 C7969 1.390 . S
C7971 C7972 1.387 . S
C7971 H7974 0.950 . S
C7972 C7971 1.387 . S
C7972 C7975 1.387 . S
H7973 C7969 0.950 . S
H7974 C7971 0.950 . S
C7975 C7966 1.390 . S
C7975 H7968 0.950 . S
C7975 C7972 1.387 . S
C7976 C7977 1.387 . S
C7976 H7980 0.950 . S
C7976 C7985 1.390 . S
C7977 C7976 1.387 . S
C7977 C7979 1.387 . S
H7978 C7985 0.950 . S
C7979 C7977 1.387 . S
C7979 C7981 1.390 . S
C7979 H7983 0.950 . S
H7980 C7976 0.950 . S
C7981 C7979 1.390 . S
C7981 C7982 1.387 . S
C7981 H7984 0.950 . S
C7982 C7981 1.387 . S
C7982 C7985 1.387 . S
H7983 C7979 0.950 . S
H7984 C7981 0.950 . S
C7985 C7976 1.390 . S
C7985 H7978 0.950 . S
C7985 C7982 1.387 . S
C7986 C7987 1.387 . S
C7986 H7990 0.950 . S
C7986 C7995 1.390 . S
C7987 C7986 1.387 . S
C7987 C7989 1.387 . S
H7988 C7995 0.950 . S
C7989 C7987 1.387 . S
C7989 C7991 1.390 . S
C7989 H7993 0.950 . S
H7990 C7986 0.950 . S
C7991 C7989 1.390 . S
C7991 C7992 1.387 . S
C7991 H7994 0.950 . S
C7992 C7991 1.387 . S
C7992 C7995 1.387 . S
H7993 C7989 0.950 . S
H7994 C7991 0.950 . S
C7995 C7986 1.390 . S
C7995 H7988 0.950 . S
C7995 C7992 1.387 . S
C7996 C7997 1.387 . S
C7996 H8000 0.950 . S
C7996 C8005 1.390 . S
C7997 C7996 1.387 . S
C7997 C7999 1.387 . S
H7998 C8005 0.950 . S
C7999 C7997 1.387 . S
C7999 C8001 1.390 . S
C7999 H8003 0.950 . S
H8000 C7996 0.950 . S
C8001 C7999 1.390 . S
C8001 C8002 1.387 . S
C8001 H8004 0.950 . S
C8002 C8001 1.387 . S
C8002 C8005 1.387 . S
H8003 C7999 0.950 . S
H8004 C8001 0.950 . S
C8005 C7996 1.390 . S
C8005 H7998 0.950 . S
C8005 C8002 1.387 . S
C8006 C8007 1.387 . S
C8006 H8010 0.950 . S
C8006 C8015 1.390 . S
C8007 C8006 1.387 . S
C8007 C8009 1.387 . S
H8008 C8015 0.950 . S
C8009 C8007 1.387 . S
C8009 C8011 1.390 . S
C8009 H8013 0.950 . S
H8010 C8006 0.950 . S
C8011 C8009 1.390 . S
C8011 C8012 1.387 . S
C8011 H8014 0.950 . S
C8012 C8011 1.387 . S
C8012 C8015 1.387 . S
H8013 C8009 0.950 . S
H8014 C8011 0.950 . S
C8015 C8006 1.390 . S
C8015 H8008 0.950 . S
C8015 C8012 1.387 . S
C8016 C8017 1.387 . S
C8016 H8020 0.950 . S
C8016 C8025 1.390 . S
C8017 C8016 1.387 . S
C8017 C8019 1.387 . S
H8018 C8025 0.950 . S
C8019 C8017 1.387 . S
C8019 C8021 1.390 . S
C8019 H8023 0.950 . S
H8020 C8016 0.950 . S
C8021 C8019 1.390 . S
C8021 C8022 1.387 . S
C8021 H8024 0.950 . S
C8022 C8021 1.387 . S
C8022 C8025 1.387 . S
H8023 C8019 0.950 . S
H8024 C8021 0.950 . S
C8025 C8016 1.390 . S
C8025 H8018 0.950 . S
C8025 C8022 1.387 . S
C8026 C8027 1.387 . S
C8026 H8030 0.950 . S
C8026 C8035 1.390 . S
C8027 C8026 1.387 . S
C8027 C8029 1.387 . S
H8028 C8035 0.950 . S
C8029 C8027 1.387 . S
C8029 C8031 1.390 . S
C8029 H8033 0.950 . S
H8030 C8026 0.950 . S
C8031 C8029 1.390 . S
C8031 C8032 1.387 . S
C8031 H8034 0.950 . S
C8032 C8031 1.387 . S
C8032 C8035 1.387 . S
H8033 C8029 0.950 . S
H8034 C8031 0.950 . S
C8035 C8026 1.390 . S
C8035 H8028 0.950 . S
C8035 C8032 1.387 . S
C8036 C8037 1.387 1_655 S
C8036 H8040 0.905 1_655 S
C8036 C8045 1.390 . S
C8037 C8036 1.387 1_455 S
C8037 C8039 1.387 1_455 S
H8038 C8045 0.950 . S
C8039 C8037 1.387 1_655 S
C8039 C8041 1.390 . S
C8039 H8043 0.957 . S
H8040 C8036 0.905 1_455 S
C8041 C8039 1.390 . S
C8041 C8042 1.387 . S
C8041 H8044 0.950 . S
C8042 C8041 1.387 . S
C8042 C8045 1.387 . S
H8043 C8039 0.957 . S
H8044 C8041 0.950 . S
C8045 C8036 1.390 . S
C8045 H8038 0.950 . S
C8045 C8042 1.387 . S
C8046 C8047 1.387 . S
C8046 H8050 0.950 . S
C8046 C8055 1.390 . S
C8047 C8046 1.387 . S
C8047 C8049 1.387 . S
H8048 C8055 0.950 . S
C8049 C8047 1.387 . S
C8049 C8051 1.390 . S
C8049 H8053 0.950 . S
H8050 C8046 0.950 . S
C8051 C8049 1.390 . S
C8051 C8052 1.387 . S
C8051 H8054 0.950 . S
C8052 C8051 1.387 . S
C8052 C8055 1.387 . S
H8053 C8049 0.950 . S
H8054 C8051 0.950 . S
C8055 C8046 1.390 . S
C8055 H8048 0.950 . S
C8055 C8052 1.387 . S
C8056 C8057 1.387 . S
C8056 H8060 0.950 . S
C8056 C8065 1.390 . S
C8057 C8056 1.387 . S
C8057 C8059 1.387 . S
H8058 C8065 0.950 . S
C8059 C8057 1.387 . S
C8059 C8061 1.390 . S
C8059 H8063 0.950 . S
H8060 C8056 0.950 . S
C8061 C8059 1.390 . S
C8061 C8062 1.387 . S
C8061 H8064 0.950 . S
C8062 C8061 1.387 . S
C8062 C8065 1.387 . S
H8063 C8059 0.950 . S
H8064 C8061 0.950 . S
C8065 C8056 1.390 . S
C8065 H8058 0.950 . S
C8065 C8062 1.387 . S
C8066 C8067 1.387 . S
C8066 H8070 0.950 . S
C8066 C8075 1.390 . S
C8067 C8066 1.387 . S
C8067 C8069 1.387 . S
H8068 C8075 0.950 . S
C8069 C8067 1.387 . S
C8069 C8071 1.390 . S
C8069 H8073 0.950 . S
H8070 C8066 0.950 . S
C8071 C8069 1.390 . S
C8071 C8072 1.387 . S
C8071 H8074 0.950 . S
C8072 C8071 1.387 . S
C8072 C8075 1.387 . S
H8073 C8069 0.950 . S
H8074 C8071 0.950 . S
C8075 C8066 1.390 . S
C8075 H8068 0.950 . S
C8075 C8072 1.387 . S
C8076 C8077 1.379 1_655 S
C8076 H8080 0.928 1_655 S
C8076 C8085 1.421 . S
C8077 C8076 1.379 1_455 S
C8077 C8079 1.387 1_455 S
H8078 C8085 0.950 . S
C8079 C8077 1.387 1_655 S
C8079 C8081 1.390 . S
C8079 H8083 0.950 . S
H8080 C8076 0.928 1_455 S
C8081 C8079 1.390 . S
C8081 C8082 1.387 . S
C8081 H8084 0.950 . S
C8082 C8081 1.387 . S
C8082 C8085 1.387 . S
H8083 C8079 0.950 . S
H8084 C8081 0.950 . S
C8085 C8076 1.421 . S
C8085 H8078 0.950 . S
C8085 C8082 1.387 . S
C8086 C8087 1.387 . S
C8086 H8090 0.950 . S
C8086 C8095 1.390 . S
C8087 C8086 1.387 . S
C8087 C8089 1.387 . S
H8088 C8095 0.950 . S
C8089 C8087 1.387 . S
C8089 C8091 1.390 . S
C8089 H8093 0.950 . S
H8090 C8086 0.950 . S
C8091 C8089 1.390 . S
C8091 C8092 1.387 . S
C8091 H8094 0.950 . S
C8092 C8091 1.387 . S
C8092 C8095 1.387 . S
H8093 C8089 0.950 . S
H8094 C8091 0.950 . S
C8095 C8086 1.390 . S
C8095 H8088 0.950 . S
C8095 C8092 1.387 . S
C8096 C8097 1.387 . S
C8096 H8100 0.950 . S
C8096 C8105 1.390 . S
C8097 C8096 1.387 . S
C8097 C8099 1.387 . S
H8098 C8105 0.950 . S
C8099 C8097 1.387 . S
C8099 C8101 1.390 . S
C8099 H8103 0.950 . S
H8100 C8096 0.950 . S
C8101 C8099 1.390 . S
C8101 C8102 1.387 . S
C8101 H8104 0.950 . S
C8102 C8101 1.387 . S
C8102 C8105 1.387 . S
H8103 C8099 0.950 . S
H8104 C8101 0.950 . S
C8105 C8096 1.390 . S
C8105 H8098 0.950 . S
C8105 C8102 1.387 . S
C8106 C8107 1.387 . S
C8106 H8110 0.950 . S
C8106 C8115 1.390 . S
C8107 C8106 1.387 . S
C8107 C8109 1.387 . S
H8108 C8115 0.950 . S
C8109 C8107 1.387 . S
C8109 C8111 1.390 . S
C8109 H8113 0.950 . S
H8110 C8106 0.950 . S
C8111 C8109 1.390 . S
C8111 C8112 1.387 . S
C8111 H8114 0.950 . S
C8112 C8111 1.387 . S
C8112 C8115 1.387 . S
H8113 C8109 0.950 . S
H8114 C8111 0.950 . S
C8115 C8106 1.390 . S
C8115 H8108 0.950 . S
C8115 C8112 1.387 . S
C8116 C8117 1.387 . S
C8116 H8120 0.950 . S
C8116 C8125 1.390 . S
C8117 C8116 1.387 . S
C8117 C8119 1.387 . S
H8118 C8125 0.950 . S
C8119 C8117 1.387 . S
C8119 C8121 1.390 . S
C8119 H8123 0.950 . S
H8120 C8116 0.950 . S
C8121 C8119 1.390 . S
C8121 C8122 1.387 . S
C8121 H8124 0.950 . S
C8122 C8121 1.387 . S
C8122 C8125 1.387 . S
H8123 C8119 0.950 . S
H8124 C8121 0.950 . S
C8125 C8116 1.390 . S
C8125 H8118 0.950 . S
C8125 C8122 1.387 . S
C8126 C8127 1.387 . S
C8126 H8130 0.950 . S
C8126 C8135 1.390 . S
C8127 C8126 1.387 . S
C8127 C8129 1.387 . S
H8128 C8135 0.950 . S
C8129 C8127 1.387 . S
C8129 C8131 1.390 . S
C8129 H8133 0.950 . S
H8130 C8126 0.950 . S
C8131 C8129 1.390 . S
C8131 C8132 1.387 . S
C8131 H8134 0.950 . S
C8132 C8131 1.387 . S
C8132 C8135 1.387 . S
H8133 C8129 0.950 . S
H8134 C8131 0.950 . S
C8135 C8126 1.390 . S
C8135 H8128 0.950 . S
C8135 C8132 1.387 . S
C8136 C8137 1.387 . S
C8136 H8140 0.950 . S
C8136 C8145 1.390 . S
C8137 C8136 1.387 . S
C8137 C8139 1.387 . S
H8138 C8145 0.950 . S
C8139 C8137 1.387 . S
C8139 C8141 1.390 . S
C8139 H8143 0.950 . S
H8140 C8136 0.950 . S
C8141 C8139 1.390 . S
C8141 C8142 1.387 . S
C8141 H8144 0.950 . S
C8142 C8141 1.387 . S
C8142 C8145 1.387 . S
H8143 C8139 0.950 . S
H8144 C8141 0.950 . S
C8145 C8136 1.390 . S
C8145 H8138 0.950 . S
C8145 C8142 1.387 . S
C8146 C8147 1.387 . S
C8146 H8150 0.950 . S
C8146 C8155 1.390 . S
C8147 C8146 1.387 . S
C8147 C8149 1.387 . S
H8148 C8155 0.950 . S
C8149 C8147 1.387 . S
C8149 C8151 1.390 . S
C8149 H8153 0.950 . S
H8150 C8146 0.950 . S
C8151 C8149 1.390 . S
C8151 C8152 1.387 . S
C8151 H8154 0.950 . S
C8152 C8151 1.387 . S
C8152 C8155 1.387 . S
H8153 C8149 0.950 . S
H8154 C8151 0.950 . S
C8155 C8146 1.390 . S
C8155 H8148 0.950 . S
C8155 C8152 1.387 . S
C8156 C8157 1.387 . S
C8156 H8160 0.950 . S
C8156 C8165 1.390 . S
C8157 C8156 1.387 . S
C8157 C8159 1.387 . S
H8158 C8165 0.950 . S
C8159 C8157 1.387 . S
C8159 C8161 1.390 . S
C8159 H8163 0.950 . S
H8160 C8156 0.950 . S
C8161 C8159 1.390 . S
C8161 C8162 1.387 . S
C8161 H8164 0.950 . S
C8162 C8161 1.387 . S
C8162 C8165 1.387 . S
H8163 C8159 0.950 . S
H8164 C8161 0.950 . S
C8165 C8156 1.390 . S
C8165 H8158 0.950 . S
C8165 C8162 1.387 . S
C8166 C8167 1.387 . S
C8166 H8170 0.950 . S
C8166 C8175 1.390 . S
C8167 C8166 1.387 . S
C8167 C8169 1.387 . S
H8168 C8175 0.950 . S
C8169 C8167 1.387 . S
C8169 C8171 1.390 . S
C8169 H8173 0.950 . S
H8170 C8166 0.950 . S
C8171 C8169 1.390 . S
C8171 C8172 1.387 . S
C8171 H8174 0.950 . S
C8172 C8171 1.387 . S
C8172 C8175 1.387 . S
H8173 C8169 0.950 . S
H8174 C8171 0.950 . S
C8175 C8166 1.390 . S
C8175 H8168 0.950 . S
C8175 C8172 1.387 . S
C8176 C8177 1.387 . S
C8176 H8180 0.950 . S
C8176 C8185 1.390 . S
C8177 C8176 1.387 . S
C8177 C8179 1.387 . S
H8178 C8185 0.950 . S
C8179 C8177 1.387 . S
C8179 C8181 1.390 . S
C8179 H8183 0.950 . S
H8180 C8176 0.950 . S
C8181 C8179 1.390 . S
C8181 C8182 1.387 . S
C8181 H8184 0.950 . S
C8182 C8181 1.387 . S
C8182 C8185 1.387 . S
H8183 C8179 0.950 . S
H8184 C8181 0.950 . S
C8185 C8176 1.390 . S
C8185 H8178 0.950 . S
C8185 C8182 1.387 . S
C8186 C8187 1.387 . S
C8186 H8190 0.950 . S
C8186 C8195 1.390 . S
C8187 C8186 1.387 . S
C8187 C8189 1.387 . S
H8188 C8195 0.950 . S
C8189 C8187 1.387 . S
C8189 C8191 1.390 . S
C8189 H8193 0.950 . S
H8190 C8186 0.950 . S
C8191 C8189 1.390 . S
C8191 C8192 1.387 . S
C8191 H8194 0.950 . S
C8192 C8191 1.387 . S
C8192 C8195 1.387 . S
H8193 C8189 0.950 . S
H8194 C8191 0.950 . S
C8195 C8186 1.390 . S
C8195 H8188 0.950 . S
C8195 C8192 1.387 . S
C8196 C8197 1.387 . S
C8196 H8200 0.950 . S
C8196 C8205 1.390 . S
C8197 C8196 1.387 . S
C8197 C8199 1.387 . S
H8198 C8205 0.950 . S
C8199 C8197 1.387 . S
C8199 C8201 1.390 . S
C8199 H8203 0.950 . S
H8200 C8196 0.950 . S
C8201 C8199 1.390 . S
C8201 C8202 1.387 . S
C8201 H8204 0.950 . S
C8202 C8201 1.387 . S
C8202 C8205 1.387 . S
H8203 C8199 0.950 . S
H8204 C8201 0.950 . S
C8205 C8196 1.390 . S
C8205 H8198 0.950 . S
C8205 C8202 1.387 . S
C8206 C8207 1.382 1_556 S
C8206 H8210 0.950 1_556 S
C8206 C8215 1.390 . S
C8207 C8206 1.382 1_554 S
C8207 C8209 1.362 1_554 S
H8208 C8215 0.950 . S
C8209 C8207 1.362 1_556 S
C8209 C8211 1.390 . S
C8209 H8213 0.950 . S
H8210 C8206 0.950 1_554 S
C8211 C8209 1.390 . S
C8211 C8212 1.387 . S
C8211 H8214 0.950 . S
C8212 C8211 1.387 . S
C8212 C8215 1.387 . S
H8213 C8209 0.950 . S
H8214 C8211 0.950 . S
C8215 C8206 1.390 . S
C8215 H8208 0.950 . S
C8215 C8212 1.387 . S
C8216 C8217 1.387 . S
C8216 H8220 0.950 . S
C8216 C8225 1.390 . S
C8217 C8216 1.387 . S
C8217 C8219 1.387 . S
H8218 C8225 0.950 . S
C8219 C8217 1.387 . S
C8219 C8221 1.390 . S
C8219 H8223 0.950 . S
H8220 C8216 0.950 . S
C8221 C8219 1.390 . S
C8221 C8222 1.387 . S
C8221 H8224 0.950 . S
C8222 C8221 1.387 . S
C8222 C8225 1.387 . S
H8223 C8219 0.950 . S
H8224 C8221 0.950 . S
C8225 C8216 1.390 . S
C8225 H8218 0.950 . S
C8225 C8222 1.387 . S
C8226 C8227 1.372 1_554 S
C8226 H8230 0.950 . S
C8226 C8235 1.390 . S
C8227 C8226 1.372 1_556 S
C8227 C8229 1.376 1_556 S
H8228 C8235 0.950 . S
C8229 C8227 1.376 1_554 S
C8229 C8231 1.390 . S
C8229 H8233 0.945 1_554 S
H8230 C8226 0.950 . S
C8231 C8229 1.390 . S
C8231 C8232 1.387 . S
C8231 H8234 0.950 . S
C8232 C8231 1.387 . S
C8232 C8235 1.387 . S
H8233 C8229 0.945 1_556 S
H8234 C8231 0.950 . S
C8235 C8226 1.390 . S
C8235 H8228 0.950 . S
C8235 C8232 1.387 . S
C8236 C8237 1.387 . S
C8236 H8240 0.950 . S
C8236 C8245 1.390 . S
C8237 C8236 1.387 . S
C8237 C8239 1.387 . S
H8238 C8245 0.950 . S
C8239 C8237 1.387 . S
C8239 C8241 1.390 . S
C8239 H8243 0.950 . S
H8240 C8236 0.950 . S
C8241 C8239 1.390 . S
C8241 C8242 1.387 . S
C8241 H8244 0.950 . S
C8242 C8241 1.387 . S
C8242 C8245 1.387 . S
H8243 C8239 0.950 . S
H8244 C8241 0.950 . S
C8245 C8236 1.390 . S
C8245 H8238 0.950 . S
C8245 C8242 1.387 . S
C8246 C8247 1.387 . S
C8246 H8250 0.950 . S
C8246 C8255 1.390 . S
C8247 C8246 1.387 . S
C8247 C8249 1.387 . S
H8248 C8255 0.950 . S
C8249 C8247 1.387 . S
C8249 C8251 1.390 . S
C8249 H8253 0.950 . S
H8250 C8246 0.950 . S
C8251 C8249 1.390 . S
C8251 C8252 1.387 . S
C8251 H8254 0.950 . S
C8252 C8251 1.387 . S
C8252 C8255 1.387 . S
H8253 C8249 0.950 . S
H8254 C8251 0.950 . S
C8255 C8246 1.390 . S
C8255 H8248 0.950 . S
C8255 C8252 1.387 . S
C8256 C8257 1.387 . S
C8256 H8260 0.950 . S
C8256 C8265 1.390 . S
C8257 C8256 1.387 . S
C8257 C8259 1.387 . S
H8258 C8265 0.950 . S
C8259 C8257 1.387 . S
C8259 C8261 1.390 . S
C8259 H8263 0.950 . S
H8260 C8256 0.950 . S
C8261 C8259 1.390 . S
C8261 C8262 1.387 . S
C8261 H8264 0.950 . S
C8262 C8261 1.387 . S
C8262 C8265 1.387 . S
H8263 C8259 0.950 . S
H8264 C8261 0.950 . S
C8265 C8256 1.390 . S
C8265 H8258 0.950 . S
C8265 C8262 1.387 . S
C8266 C8267 1.387 . S
C8266 H8270 0.950 . S
C8266 C8275 1.390 . S
C8267 C8266 1.387 . S
C8267 C8269 1.387 . S
H8268 C8275 0.950 . S
C8269 C8267 1.387 . S
C8269 C8271 1.390 . S
C8269 H8273 0.950 . S
H8270 C8266 0.950 . S
C8271 C8269 1.390 . S
C8271 C8272 1.387 . S
C8271 H8274 0.950 . S
C8272 C8271 1.387 . S
C8272 C8275 1.387 . S
H8273 C8269 0.950 . S
H8274 C8271 0.950 . S
C8275 C8266 1.390 . S
C8275 H8268 0.950 . S
C8275 C8272 1.387 . S
C8276 C8277 1.387 . S
C8276 H8280 0.950 . S
C8276 C8285 1.390 . S
C8277 C8276 1.387 . S
C8277 C8279 1.387 . S
H8278 C8285 0.950 . S
C8279 C8277 1.387 . S
C8279 C8281 1.390 . S
C8279 H8283 0.950 . S
H8280 C8276 0.950 . S
C8281 C8279 1.390 . S
C8281 C8282 1.387 . S
C8281 H8284 0.950 . S
C8282 C8281 1.387 . S
C8282 C8285 1.387 . S
H8283 C8279 0.950 . S
H8284 C8281 0.950 . S
C8285 C8276 1.390 . S
C8285 H8278 0.950 . S
C8285 C8282 1.387 . S
C8286 C8287 1.387 . S
C8286 H8290 0.950 . S
C8286 C8295 1.390 . S
C8287 C8286 1.387 . S
C8287 C8289 1.387 . S
H8288 C8295 0.950 . S
C8289 C8287 1.387 . S
C8289 C8291 1.390 . S
C8289 H8293 0.950 . S
H8290 C8286 0.950 . S
C8291 C8289 1.390 . S
C8291 C8292 1.387 . S
C8291 H8294 0.950 . S
C8292 C8291 1.387 . S
C8292 C8295 1.387 . S
H8293 C8289 0.950 . S
H8294 C8291 0.950 . S
C8295 C8286 1.390 . S
C8295 H8288 0.950 . S
C8295 C8292 1.387 . S
C8296 C8297 1.387 . S
C8296 H8300 0.950 . S
C8296 C8305 1.390 . S
C8297 C8296 1.387 . S
C8297 C8299 1.387 . S
H8298 C8305 0.950 . S
C8299 C8297 1.387 . S
C8299 C8301 1.390 . S
C8299 H8303 0.950 . S
H8300 C8296 0.950 . S
C8301 C8299 1.390 . S
C8301 C8302 1.387 . S
C8301 H8304 0.950 . S
C8302 C8301 1.387 . S
C8302 C8305 1.387 . S
H8303 C8299 0.950 . S
H8304 C8301 0.950 . S
C8305 C8296 1.390 . S
C8305 H8298 0.950 . S
C8305 C8302 1.387 . S
C8306 C8307 1.387 . S
C8306 H8310 0.950 . S
C8306 C8315 1.390 . S
C8307 C8306 1.387 . S
C8307 C8309 1.387 . S
H8308 C8315 0.950 . S
C8309 C8307 1.387 . S
C8309 C8311 1.390 . S
C8309 H8313 0.950 . S
H8310 C8306 0.950 . S
C8311 C8309 1.390 . S
C8311 C8312 1.387 . S
C8311 H8314 0.950 . S
C8312 C8311 1.387 . S
C8312 C8315 1.387 . S
H8313 C8309 0.950 . S
H8314 C8311 0.950 . S
C8315 C8306 1.390 . S
C8315 H8308 0.950 . S
C8315 C8312 1.387 . S
C8316 C8317 1.387 . S
C8316 H8320 0.950 . S
C8316 C8325 1.390 . S
C8317 C8316 1.387 . S
C8317 C8319 1.387 . S
H8318 C8325 0.950 . S
C8319 C8317 1.387 . S
C8319 C8321 1.390 . S
C8319 H8323 0.950 . S
H8320 C8316 0.950 . S
C8321 C8319 1.390 . S
C8321 C8322 1.387 . S
C8321 H8324 0.950 . S
C8322 C8321 1.387 . S
C8322 C8325 1.387 . S
H8323 C8319 0.950 . S
H8324 C8321 0.950 . S
C8325 C8316 1.390 . S
C8325 H8318 0.950 . S
C8325 C8322 1.387 . S
C8326 C8327 1.387 . S
C8326 H8330 0.950 . S
C8326 C8335 1.390 . S
C8327 C8326 1.387 . S
C8327 C8329 1.387 . S
H8328 C8335 0.950 . S
C8329 C8327 1.387 . S
C8329 C8331 1.390 . S
C8329 H8333 0.950 . S
H8330 C8326 0.950 . S
C8331 C8329 1.390 . S
C8331 C8332 1.387 . S
C8331 H8334 0.950 . S
C8332 C8331 1.387 . S
C8332 C8335 1.387 . S
H8333 C8329 0.950 . S
H8334 C8331 0.950 . S
C8335 C8326 1.390 . S
C8335 H8328 0.950 . S
C8335 C8332 1.387 . S
C8336 C8337 1.387 . S
C8336 H8340 0.950 . S
C8336 C8345 1.390 . S
C8337 C8336 1.387 . S
C8337 C8339 1.387 . S
H8338 C8345 0.950 . S
C8339 C8337 1.387 . S
C8339 C8341 1.390 . S
C8339 H8343 0.950 . S
H8340 C8336 0.950 . S
C8341 C8339 1.390 . S
C8341 C8342 1.387 . S
C8341 H8344 0.950 . S
C8342 C8341 1.387 . S
C8342 C8345 1.387 . S
H8343 C8339 0.950 . S
H8344 C8341 0.950 . S
C8345 C8336 1.390 . S
C8345 H8338 0.950 . S
C8345 C8342 1.387 . S
C8346 C8347 1.387 . S
C8346 H8350 0.950 . S
C8346 C8355 1.390 . S
C8347 C8346 1.387 . S
C8347 C8349 1.387 . S
H8348 C8355 0.950 . S
C8349 C8347 1.387 . S
C8349 C8351 1.390 . S
C8349 H8353 0.950 . S
H8350 C8346 0.950 . S
C8351 C8349 1.390 . S
C8351 C8352 1.387 . S
C8351 H8354 0.950 . S
C8352 C8351 1.387 . S
C8352 C8355 1.387 . S
H8353 C8349 0.950 . S
H8354 C8351 0.950 . S
C8355 C8346 1.390 . S
C8355 H8348 0.950 . S
C8355 C8352 1.387 . S
C8356 C8357 1.387 . S
C8356 H8360 0.950 . S
C8356 C8365 1.390 . S
C8357 C8356 1.387 . S
C8357 C8359 1.387 . S
H8358 C8365 0.950 . S
C8359 C8357 1.387 . S
C8359 C8361 1.390 . S
C8359 H8363 0.950 . S
H8360 C8356 0.950 . S
C8361 C8359 1.390 . S
C8361 C8362 1.387 . S
C8361 H8364 0.950 . S
C8362 C8361 1.387 . S
C8362 C8365 1.387 . S
H8363 C8359 0.950 . S
H8364 C8361 0.950 . S
C8365 C8356 1.390 . S
C8365 H8358 0.950 . S
C8365 C8362 1.387 . S
C8366 C8367 1.387 . S
C8366 H8370 0.950 . S
C8366 C8375 1.390 . S
C8367 C8366 1.387 . S
C8367 C8369 1.387 . S
H8368 C8375 0.950 . S
C8369 C8367 1.387 . S
C8369 C8371 1.390 . S
C8369 H8373 0.950 . S
H8370 C8366 0.950 . S
C8371 C8369 1.390 . S
C8371 C8372 1.387 . S
C8371 H8374 0.950 . S
C8372 C8371 1.387 . S
C8372 C8375 1.387 . S
H8373 C8369 0.950 . S
H8374 C8371 0.950 . S
C8375 C8366 1.390 . S
C8375 H8368 0.950 . S
C8375 C8372 1.387 . S
C8376 C8377 1.387 . S
C8376 H8380 0.950 . S
C8376 C8385 1.390 . S
C8377 C8376 1.387 . S
C8377 C8379 1.387 . S
H8378 C8385 0.950 . S
C8379 C8377 1.387 . S
C8379 C8381 1.390 . S
C8379 H8383 0.950 . S
H8380 C8376 0.950 . S
C8381 C8379 1.390 . S
C8381 C8382 1.387 . S
C8381 H8384 0.950 . S
C8382 C8381 1.387 . S
C8382 C8385 1.387 . S
H8383 C8379 0.950 . S
H8384 C8381 0.950 . S
C8385 C8376 1.390 . S
C8385 H8378 0.950 . S
C8385 C8382 1.387 . S
C8386 C8387 1.387 . S
C8386 H8390 0.950 . S
C8386 C8395 1.390 . S
C8387 C8386 1.387 . S
C8387 C8389 1.387 . S
H8388 C8395 0.950 . S
C8389 C8387 1.387 . S
C8389 C8391 1.390 . S
C8389 H8393 0.950 . S
H8390 C8386 0.950 . S
C8391 C8389 1.390 . S
C8391 C8392 1.387 . S
C8391 H8394 0.950 . S
C8392 C8391 1.387 . S
C8392 C8395 1.387 . S
H8393 C8389 0.950 . S
H8394 C8391 0.950 . S
C8395 C8386 1.390 . S
C8395 H8388 0.950 . S
C8395 C8392 1.387 . S
C8396 C8397 1.387 . S
C8396 H8400 0.950 . S
C8396 C8405 1.390 . S
C8397 C8396 1.387 . S
C8397 C8399 1.387 . S
H8398 C8405 0.950 . S
C8399 C8397 1.387 . S
C8399 C8401 1.390 . S
C8399 H8403 0.950 . S
H8400 C8396 0.950 . S
C8401 C8399 1.390 . S
C8401 C8402 1.387 . S
C8401 H8404 0.950 . S
C8402 C8401 1.387 . S
C8402 C8405 1.387 . S
H8403 C8399 0.950 . S
H8404 C8401 0.950 . S
C8405 C8396 1.390 . S
C8405 H8398 0.950 . S
C8405 C8402 1.387 . S
C8406 C8407 1.387 . S
C8406 H8410 0.950 . S
C8406 C8415 1.390 . S
C8407 C8406 1.387 . S
C8407 C8409 1.387 . S
H8408 C8415 0.950 . S
C8409 C8407 1.387 . S
C8409 C8411 1.390 . S
C8409 H8413 0.950 . S
H8410 C8406 0.950 . S
C8411 C8409 1.390 . S
C8411 C8412 1.387 . S
C8411 H8414 0.950 . S
C8412 C8411 1.387 . S
C8412 C8415 1.387 . S
H8413 C8409 0.950 . S
H8414 C8411 0.950 . S
C8415 C8406 1.390 . S
C8415 H8408 0.950 . S
C8415 C8412 1.387 . S
C8416 C8417 1.387 . S
C8416 H8420 0.950 . S
C8416 C8425 1.390 . S
C8417 C8416 1.387 . S
C8417 C8419 1.387 . S
H8418 C8425 0.950 . S
C8419 C8417 1.387 . S
C8419 C8421 1.390 . S
C8419 H8423 0.950 . S
H8420 C8416 0.950 . S
C8421 C8419 1.390 . S
C8421 C8422 1.387 . S
C8421 H8424 0.950 . S
C8422 C8421 1.387 . S
C8422 C8425 1.387 . S
H8423 C8419 0.950 . S
H8424 C8421 0.950 . S
C8425 C8416 1.390 . S
C8425 H8418 0.950 . S
C8425 C8422 1.387 . S
C8426 C8427 1.387 . S
C8426 H8430 0.950 . S
C8426 C8435 1.390 . S
C8427 C8426 1.387 . S
C8427 C8429 1.387 . S
H8428 C8435 0.950 . S
C8429 C8427 1.387 . S
C8429 C8431 1.390 . S
C8429 H8433 0.950 . S
H8430 C8426 0.950 . S
C8431 C8429 1.390 . S
C8431 C8432 1.387 . S
C8431 H8434 0.950 . S
C8432 C8431 1.387 . S
C8432 C8435 1.387 . S
H8433 C8429 0.950 . S
H8434 C8431 0.950 . S
C8435 C8426 1.390 . S
C8435 H8428 0.950 . S
C8435 C8432 1.387 . S
C8436 C8437 1.387 . S
C8436 H8440 0.950 . S
C8436 C8445 1.390 . S
C8437 C8436 1.387 . S
C8437 C8439 1.387 . S
H8438 C8445 0.950 . S
C8439 C8437 1.387 . S
C8439 C8441 1.390 . S
C8439 H8443 0.950 . S
H8440 C8436 0.950 . S
C8441 C8439 1.390 . S
C8441 C8442 1.387 . S
C8441 H8444 0.950 . S
C8442 C8441 1.387 . S
C8442 C8445 1.387 . S
H8443 C8439 0.950 . S
H8444 C8441 0.950 . S
C8445 C8436 1.390 . S
C8445 H8438 0.950 . S
C8445 C8442 1.387 . S
C8446 C8447 1.387 . S
C8446 H8450 0.950 . S
C8446 C8455 1.390 . S
C8447 C8446 1.387 . S
C8447 C8449 1.387 . S
H8448 C8455 0.950 . S
C8449 C8447 1.387 . S
C8449 C8451 1.390 . S
C8449 H8453 0.950 . S
H8450 C8446 0.950 . S
C8451 C8449 1.390 . S
C8451 C8452 1.387 . S
C8451 H8454 0.950 . S
C8452 C8451 1.387 . S
C8452 C8455 1.387 . S
H8453 C8449 0.950 . S
H8454 C8451 0.950 . S
C8455 C8446 1.390 . S
C8455 H8448 0.950 . S
C8455 C8452 1.387 . S
C8456 C8457 1.387 . S
C8456 H8460 0.950 . S
C8456 C8465 1.390 . S
C8457 C8456 1.387 . S
C8457 C8459 1.387 . S
H8458 C8465 0.950 . S
C8459 C8457 1.387 . S
C8459 C8461 1.390 . S
C8459 H8463 0.950 . S
H8460 C8456 0.950 . S
C8461 C8459 1.390 . S
C8461 C8462 1.387 . S
C8461 H8464 0.950 . S
C8462 C8461 1.387 . S
C8462 C8465 1.387 . S
H8463 C8459 0.950 . S
H8464 C8461 0.950 . S
C8465 C8456 1.390 . S
C8465 H8458 0.950 . S
C8465 C8462 1.387 . S
C8466 C8467 1.387 . S
C8466 H8470 0.950 . S
C8466 C8475 1.390 . S
C8467 C8466 1.387 . S
C8467 C8469 1.387 . S
H8468 C8475 0.950 . S
C8469 C8467 1.387 . S
C8469 C8471 1.390 . S
C8469 H8473 0.950 . S
H8470 C8466 0.950 . S
C8471 C8469 1.390 . S
C8471 C8472 1.387 . S
C8471 H8474 0.950 . S
C8472 C8471 1.387 . S
C8472 C8475 1.387 . S
H8473 C8469 0.950 . S
H8474 C8471 0.950 . S
C8475 C8466 1.390 . S
C8475 H8468 0.950 . S
C8475 C8472 1.387 . S
C8476 C8477 1.387 . S
C8476 H8480 0.950 . S
C8476 C8485 1.390 . S
C8477 C8476 1.387 . S
C8477 C8479 1.387 . S
H8478 C8485 0.950 . S
C8479 C8477 1.387 . S
C8479 C8481 1.390 . S
C8479 H8483 0.950 . S
H8480 C8476 0.950 . S
C8481 C8479 1.390 . S
C8481 C8482 1.387 . S
C8481 H8484 0.950 . S
C8482 C8481 1.387 . S
C8482 C8485 1.387 . S
H8483 C8479 0.950 . S
H8484 C8481 0.950 . S
C8485 C8476 1.390 . S
C8485 H8478 0.950 . S
C8485 C8482 1.387 . S
C8486 C8487 1.387 . S
C8486 H8490 0.950 . S
C8486 C8495 1.390 . S
C8487 C8486 1.387 . S
C8487 C8489 1.387 . S
H8488 C8495 0.950 . S
C8489 C8487 1.387 . S
C8489 C8491 1.390 . S
C8489 H8493 0.950 . S
H8490 C8486 0.950 . S
C8491 C8489 1.390 . S
C8491 C8492 1.387 . S
C8491 H8494 0.950 . S
C8492 C8491 1.387 . S
C8492 C8495 1.387 . S
H8493 C8489 0.950 . S
H8494 C8491 0.950 . S
C8495 C8486 1.390 . S
C8495 H8488 0.950 . S
C8495 C8492 1.387 . S
C8496 C8497 1.387 . S
C8496 H8500 0.950 . S
C8496 C8505 1.390 . S
C8497 C8496 1.387 . S
C8497 C8499 1.387 . S
H8498 C8505 0.950 . S
C8499 C8497 1.387 . S
C8499 C8501 1.390 . S
C8499 H8503 0.950 . S
H8500 C8496 0.950 . S
C8501 C8499 1.390 . S
C8501 C8502 1.387 . S
C8501 H8504 0.950 . S
C8502 C8501 1.387 . S
C8502 C8505 1.387 . S
H8503 C8499 0.950 . S
H8504 C8501 0.950 . S
C8505 C8496 1.390 . S
C8505 H8498 0.950 . S
C8505 C8502 1.387 . S
C8506 C8507 1.387 . S
C8506 H8510 0.950 . S
C8506 C8515 1.390 . S
C8507 C8506 1.387 . S
C8507 C8509 1.387 . S
H8508 C8515 0.950 . S
C8509 C8507 1.387 . S
C8509 C8511 1.390 . S
C8509 H8513 0.950 . S
H8510 C8506 0.950 . S
C8511 C8509 1.390 . S
C8511 C8512 1.387 . S
C8511 H8514 0.950 . S
C8512 C8511 1.387 . S
C8512 C8515 1.387 . S
H8513 C8509 0.950 . S
H8514 C8511 0.950 . S
C8515 C8506 1.390 . S
C8515 H8508 0.950 . S
C8515 C8512 1.387 . S
C8516 C8517 1.387 . S
C8516 H8520 0.950 . S
C8516 C8525 1.390 . S
C8517 C8516 1.387 . S
C8517 C8519 1.387 . S
H8518 C8525 0.950 . S
C8519 C8517 1.387 . S
C8519 C8521 1.390 . S
C8519 H8523 0.950 . S
H8520 C8516 0.950 . S
C8521 C8519 1.390 . S
C8521 C8522 1.387 . S
C8521 H8524 0.950 . S
C8522 C8521 1.387 . S
C8522 C8525 1.387 . S
H8523 C8519 0.950 . S
H8524 C8521 0.950 . S
C8525 C8516 1.390 . S
C8525 H8518 0.950 . S
C8525 C8522 1.387 . S
C8526 C8527 1.387 . S
C8526 H8530 0.950 . S
C8526 C8535 1.390 . S
C8527 C8526 1.387 . S
C8527 C8529 1.387 . S
H8528 C8535 0.950 . S
C8529 C8527 1.387 . S
C8529 C8531 1.390 . S
C8529 H8533 0.950 . S
H8530 C8526 0.950 . S
C8531 C8529 1.390 . S
C8531 C8532 1.387 . S
C8531 H8534 0.950 . S
C8532 C8531 1.387 . S
C8532 C8535 1.387 . S
H8533 C8529 0.950 . S
H8534 C8531 0.950 . S
C8535 C8526 1.390 . S
C8535 H8528 0.950 . S
C8535 C8532 1.387 . S
C8536 C8537 1.387 . S
C8536 H8540 0.950 . S
C8536 C8545 1.390 . S
C8537 C8536 1.387 . S
C8537 C8539 1.387 . S
H8538 C8545 0.950 . S
C8539 C8537 1.387 . S
C8539 C8541 1.390 . S
C8539 H8543 0.950 . S
H8540 C8536 0.950 . S
C8541 C8539 1.390 . S
C8541 C8542 1.387 . S
C8541 H8544 0.950 . S
C8542 C8541 1.387 . S
C8542 C8545 1.387 . S
H8543 C8539 0.950 . S
H8544 C8541 0.950 . S
C8545 C8536 1.390 . S
C8545 H8538 0.950 . S
C8545 C8542 1.387 . S
C8546 C8547 1.387 . S
C8546 H8550 0.950 . S
C8546 C8555 1.390 . S
C8547 C8546 1.387 . S
C8547 C8549 1.387 . S
H8548 C8555 0.950 . S
C8549 C8547 1.387 . S
C8549 C8551 1.390 . S
C8549 H8553 0.950 . S
H8550 C8546 0.950 . S
C8551 C8549 1.390 . S
C8551 C8552 1.387 . S
C8551 H8554 0.950 . S
C8552 C8551 1.387 . S
C8552 C8555 1.387 . S
H8553 C8549 0.950 . S
H8554 C8551 0.950 . S
C8555 C8546 1.390 . S
C8555 H8548 0.950 . S
C8555 C8552 1.387 . S
C8556 C8557 1.387 . S
C8556 H8560 0.950 . S
C8556 C8565 1.390 . S
C8557 C8556 1.387 . S
C8557 C8559 1.387 . S
H8558 C8565 0.950 . S
C8559 C8557 1.387 . S
C8559 C8561 1.390 . S
C8559 H8563 0.950 . S
H8560 C8556 0.950 . S
C8561 C8559 1.390 . S
C8561 C8562 1.387 . S
C8561 H8564 0.950 . S
C8562 C8561 1.387 . S
C8562 C8565 1.387 . S
H8563 C8559 0.950 . S
H8564 C8561 0.950 . S
C8565 C8556 1.390 . S
C8565 H8558 0.950 . S
C8565 C8562 1.387 . S
C8566 C8567 1.387 . S
C8566 H8570 0.950 . S
C8566 C8575 1.390 . S
C8567 C8566 1.387 . S
C8567 C8569 1.387 . S
H8568 C8575 0.950 . S
C8569 C8567 1.387 . S
C8569 C8571 1.390 . S
C8569 H8573 0.950 . S
H8570 C8566 0.950 . S
C8571 C8569 1.390 . S
C8571 C8572 1.387 . S
C8571 H8574 0.950 . S
C8572 C8571 1.387 . S
C8572 C8575 1.387 . S
H8573 C8569 0.950 . S
H8574 C8571 0.950 . S
C8575 C8566 1.390 . S
C8575 H8568 0.950 . S
C8575 C8572 1.387 . S
C8576 C8577 1.387 . S
C8576 H8580 0.950 . S
C8576 C8585 1.390 . S
C8577 C8576 1.387 . S
C8577 C8579 1.387 . S
H8578 C8585 0.950 . S
C8579 C8577 1.387 . S
C8579 C8581 1.390 . S
C8579 H8583 0.950 . S
H8580 C8576 0.950 . S
C8581 C8579 1.390 . S
C8581 C8582 1.387 . S
C8581 H8584 0.950 . S
C8582 C8581 1.387 . S
C8582 C8585 1.387 . S
H8583 C8579 0.950 . S
H8584 C8581 0.950 . S
C8585 C8576 1.390 . S
C8585 H8578 0.950 . S
C8585 C8582 1.387 . S
C8586 C8587 1.387 . S
C8586 H8590 0.950 . S
C8586 C8595 1.390 . S
C8587 C8586 1.387 . S
C8587 C8589 1.387 . S
H8588 C8595 0.950 . S
C8589 C8587 1.387 . S
C8589 C8591 1.390 . S
C8589 H8593 0.950 . S
H8590 C8586 0.950 . S
C8591 C8589 1.390 . S
C8591 C8592 1.387 . S
C8591 H8594 0.950 . S
C8592 C8591 1.387 . S
C8592 C8595 1.387 . S
H8593 C8589 0.950 . S
H8594 C8591 0.950 . S
C8595 C8586 1.390 . S
C8595 H8588 0.950 . S
C8595 C8592 1.387 . S
C8596 C8597 1.387 . S
C8596 H8600 0.950 . S
C8596 C8605 1.390 . S
C8597 C8596 1.387 . S
C8597 C8599 1.387 . S
H8598 C8605 0.950 . S
C8599 C8597 1.387 . S
C8599 C8601 1.390 . S
C8599 H8603 0.950 . S
H8600 C8596 0.950 . S
C8601 C8599 1.390 . S
C8601 C8602 1.387 . S
C8601 H8604 0.950 . S
C8602 C8601 1.387 . S
C8602 C8605 1.387 . S
H8603 C8599 0.950 . S
H8604 C8601 0.950 . S
C8605 C8596 1.390 . S
C8605 H8598 0.950 . S
C8605 C8602 1.387 . S
C8606 C8607 1.387 . S
C8606 H8610 0.950 . S
C8606 C8615 1.390 . S
C8607 C8606 1.387 . S
C8607 C8609 1.387 . S
H8608 C8615 0.950 . S
C8609 C8607 1.387 . S
C8609 C8611 1.390 . S
C8609 H8613 0.950 . S
H8610 C8606 0.950 . S
C8611 C8609 1.390 . S
C8611 C8612 1.387 . S
C8611 H8614 0.950 . S
C8612 C8611 1.387 . S
C8612 C8615 1.387 . S
H8613 C8609 0.950 . S
H8614 C8611 0.950 . S
C8615 C8606 1.390 . S
C8615 H8608 0.950 . S
C8615 C8612 1.387 . S
C8616 C8617 1.387 . S
C8616 H8620 0.950 . S
C8616 C8625 1.390 . S
C8617 C8616 1.387 . S
C8617 C8619 1.387 . S
H8618 C8625 0.950 . S
C8619 C8617 1.387 . S
C8619 C8621 1.390 . S
C8619 H8623 0.950 . S
H8620 C8616 0.950 . S
C8621 C8619 1.390 . S
C8621 C8622 1.387 . S
C8621 H8624 0.950 . S
C8622 C8621 1.387 . S
C8622 C8625 1.387 . S
H8623 C8619 0.950 . S
H8624 C8621 0.950 . S
C8625 C8616 1.390 . S
C8625 H8618 0.950 . S
C8625 C8622 1.387 . S
C8626 C8627 1.387 . S
C8626 H8630 0.950 . S
C8626 C8635 1.390 . S
C8627 C8626 1.387 . S
C8627 C8629 1.387 . S
H8628 C8635 0.950 . S
C8629 C8627 1.387 . S
C8629 C8631 1.390 . S
C8629 H8633 0.950 . S
H8630 C8626 0.950 . S
C8631 C8629 1.390 . S
C8631 C8632 1.387 . S
C8631 H8634 0.950 . S
C8632 C8631 1.387 . S
C8632 C8635 1.387 . S
H8633 C8629 0.950 . S
H8634 C8631 0.950 . S
C8635 C8626 1.390 . S
C8635 H8628 0.950 . S
C8635 C8632 1.387 . S
C8636 C8637 1.387 . S
C8636 H8640 0.950 . S
C8636 C8645 1.390 . S
C8637 C8636 1.387 . S
C8637 C8639 1.387 . S
H8638 C8645 0.950 . S
C8639 C8637 1.387 . S
C8639 C8641 1.390 . S
C8639 H8643 0.950 . S
H8640 C8636 0.950 . S
C8641 C8639 1.390 . S
C8641 C8642 1.387 . S
C8641 H8644 0.950 . S
C8642 C8641 1.387 . S
C8642 C8645 1.387 . S
H8643 C8639 0.950 . S
H8644 C8641 0.950 . S
C8645 C8636 1.390 . S
C8645 H8638 0.950 . S
C8645 C8642 1.387 . S
C8646 C8647 1.387 . S
C8646 H8650 0.950 . S
C8646 C8655 1.390 . S
C8647 C8646 1.387 . S
C8647 C8649 1.387 . S
H8648 C8655 0.950 . S
C8649 C8647 1.387 . S
C8649 C8651 1.390 . S
C8649 H8653 0.950 . S
H8650 C8646 0.950 . S
C8651 C8649 1.390 . S
C8651 C8652 1.387 . S
C8651 H8654 0.950 . S
C8652 C8651 1.387 . S
C8652 C8655 1.387 . S
H8653 C8649 0.950 . S
H8654 C8651 0.950 . S
C8655 C8646 1.390 . S
C8655 H8648 0.950 . S
C8655 C8652 1.387 . S
C8656 C8657 1.387 . S
C8656 H8660 0.950 . S
C8656 C8665 1.390 . S
C8657 C8656 1.387 . S
C8657 C8659 1.387 . S
H8658 C8665 0.950 . S
C8659 C8657 1.387 . S
C8659 C8661 1.390 . S
C8659 H8663 0.950 . S
H8660 C8656 0.950 . S
C8661 C8659 1.390 . S
C8661 C8662 1.387 . S
C8661 H8664 0.950 . S
C8662 C8661 1.387 . S
C8662 C8665 1.387 . S
H8663 C8659 0.950 . S
H8664 C8661 0.950 . S
C8665 C8656 1.390 . S
C8665 H8658 0.950 . S
C8665 C8662 1.387 . S
C8666 C8667 1.387 . S
C8666 H8670 0.950 . S
C8666 C8675 1.390 . S
C8667 C8666 1.387 . S
C8667 C8669 1.387 . S
H8668 C8675 0.950 . S
C8669 C8667 1.387 . S
C8669 C8671 1.390 . S
C8669 H8673 0.950 . S
H8670 C8666 0.950 . S
C8671 C8669 1.390 . S
C8671 C8672 1.387 . S
C8671 H8674 0.950 . S
C8672 C8671 1.387 . S
C8672 C8675 1.387 . S
H8673 C8669 0.950 . S
H8674 C8671 0.950 . S
C8675 C8666 1.390 . S
C8675 H8668 0.950 . S
C8675 C8672 1.387 . S
C8676 C8677 1.387 . S
C8676 H8680 0.950 . S
C8676 C8685 1.390 . S
C8677 C8676 1.387 . S
C8677 C8679 1.387 . S
H8678 C8685 0.950 . S
C8679 C8677 1.387 . S
C8679 C8681 1.390 . S
C8679 H8683 0.950 . S
H8680 C8676 0.950 . S
C8681 C8679 1.390 . S
C8681 C8682 1.387 . S
C8681 H8684 0.950 . S
C8682 C8681 1.387 . S
C8682 C8685 1.387 . S
H8683 C8679 0.950 . S
H8684 C8681 0.950 . S
C8685 C8676 1.390 . S
C8685 H8678 0.950 . S
C8685 C8682 1.387 . S
C8686 C8687 1.387 . S
C8686 H8690 0.950 . S
C8686 C8695 1.390 . S
C8687 C8686 1.387 . S
C8687 C8689 1.387 . S
H8688 C8695 0.950 . S
C8689 C8687 1.387 . S
C8689 C8691 1.390 . S
C8689 H8693 0.950 . S
H8690 C8686 0.950 . S
C8691 C8689 1.390 . S
C8691 C8692 1.387 . S
C8691 H8694 0.950 . S
C8692 C8691 1.387 . S
C8692 C8695 1.387 . S
H8693 C8689 0.950 . S
H8694 C8691 0.950 . S
C8695 C8686 1.390 . S
C8695 H8688 0.950 . S
C8695 C8692 1.387 . S
C8696 C8697 1.387 . S
C8696 H8700 0.950 . S
C8696 C8705 1.390 . S
C8697 C8696 1.387 . S
C8697 C8699 1.387 . S
H8698 C8705 0.950 . S
C8699 C8697 1.387 . S
C8699 C8701 1.390 . S
C8699 H8703 0.950 . S
H8700 C8696 0.950 . S
C8701 C8699 1.390 . S
C8701 C8702 1.387 . S
C8701 H8704 0.950 . S
C8702 C8701 1.387 . S
C8702 C8705 1.387 . S
H8703 C8699 0.950 . S
H8704 C8701 0.950 . S
C8705 C8696 1.390 . S
C8705 H8698 0.950 . S
C8705 C8702 1.387 . S
C8706 C8707 1.387 . S
C8706 H8710 0.950 . S
C8706 C8715 1.390 . S
C8707 C8706 1.387 . S
C8707 C8709 1.387 . S
H8708 C8715 0.950 . S
C8709 C8707 1.387 . S
C8709 C8711 1.390 . S
C8709 H8713 0.950 . S
H8710 C8706 0.950 . S
C8711 C8709 1.390 . S
C8711 C8712 1.387 . S
C8711 H8714 0.950 . S
C8712 C8711 1.387 . S
C8712 C8715 1.387 . S
H8713 C8709 0.950 . S
H8714 C8711 0.950 . S
C8715 C8706 1.390 . S
C8715 H8708 0.950 . S
C8715 C8712 1.387 . S
C8716 C8717 1.387 . S
C8716 H8720 0.950 . S
C8716 C8725 1.390 . S
C8717 C8716 1.387 . S
C8717 C8719 1.387 . S
H8718 C8725 0.950 . S
C8719 C8717 1.387 . S
C8719 C8721 1.390 . S
C8719 H8723 0.950 . S
H8720 C8716 0.950 . S
C8721 C8719 1.390 . S
C8721 C8722 1.387 . S
C8721 H8724 0.950 . S
C8722 C8721 1.387 . S
C8722 C8725 1.387 . S
H8723 C8719 0.950 . S
H8724 C8721 0.950 . S
C8725 C8716 1.390 . S
C8725 H8718 0.950 . S
C8725 C8722 1.387 . S
C8726 C8727 1.387 . S
C8726 H8730 0.950 . S
C8726 C8735 1.390 . S
C8727 C8726 1.387 . S
C8727 C8729 1.387 . S
H8728 C8735 0.950 . S
C8729 C8727 1.387 . S
C8729 C8731 1.390 . S
C8729 H8733 0.950 . S
H8730 C8726 0.950 . S
C8731 C8729 1.390 . S
C8731 C8732 1.387 . S
C8731 H8734 0.950 . S
C8732 C8731 1.387 . S
C8732 C8735 1.387 . S
H8733 C8729 0.950 . S
H8734 C8731 0.950 . S
C8735 C8726 1.390 . S
C8735 H8728 0.950 . S
C8735 C8732 1.387 . S
C8736 C8737 1.387 . S
C8736 H8740 0.950 . S
C8736 C8745 1.390 . S
C8737 C8736 1.387 . S
C8737 C8739 1.387 . S
H8738 C8745 0.950 . S
C8739 C8737 1.387 . S
C8739 C8741 1.390 . S
C8739 H8743 0.950 . S
H8740 C8736 0.950 . S
C8741 C8739 1.390 . S
C8741 C8742 1.387 . S
C8741 H8744 0.950 . S
C8742 C8741 1.387 . S
C8742 C8745 1.387 . S
H8743 C8739 0.950 . S
H8744 C8741 0.950 . S
C8745 C8736 1.390 . S
C8745 H8738 0.950 . S
C8745 C8742 1.387 . S
C8746 C8747 1.387 . S
C8746 H8750 0.950 . S
C8746 C8755 1.390 . S
C8747 C8746 1.387 . S
C8747 C8749 1.387 . S
H8748 C8755 0.950 . S
C8749 C8747 1.387 . S
C8749 C8751 1.390 . S
C8749 H8753 0.950 . S
H8750 C8746 0.950 . S
C8751 C8749 1.390 . S
C8751 C8752 1.387 . S
C8751 H8754 0.950 . S
C8752 C8751 1.387 . S
C8752 C8755 1.387 . S
H8753 C8749 0.950 . S
H8754 C8751 0.950 . S
C8755 C8746 1.390 . S
C8755 H8748 0.950 . S
C8755 C8752 1.387 . S
C8756 C8757 1.387 . S
C8756 H8760 0.950 . S
C8756 C8765 1.390 . S
C8757 C8756 1.387 . S
C8757 C8759 1.387 . S
H8758 C8765 0.950 . S
C8759 C8757 1.387 . S
C8759 C8761 1.390 . S
C8759 H8763 0.950 . S
H8760 C8756 0.950 . S
C8761 C8759 1.390 . S
C8761 C8762 1.387 . S
C8761 H8764 0.950 . S
C8762 C8761 1.387 . S
C8762 C8765 1.387 . S
H8763 C8759 0.950 . S
H8764 C8761 0.950 . S
C8765 C8756 1.390 . S
C8765 H8758 0.950 . S
C8765 C8762 1.387 . S
C8766 C8767 1.387 . S
C8766 H8770 0.950 . S
C8766 C8775 1.390 . S
C8767 C8766 1.387 . S
C8767 C8769 1.387 . S
H8768 C8775 0.950 . S
C8769 C8767 1.387 . S
C8769 C8771 1.390 . S
C8769 H8773 0.950 . S
H8770 C8766 0.950 . S
C8771 C8769 1.390 . S
C8771 C8772 1.387 . S
C8771 H8774 0.950 . S
C8772 C8771 1.387 . S
C8772 C8775 1.387 . S
H8773 C8769 0.950 . S
H8774 C8771 0.950 . S
C8775 C8766 1.390 . S
C8775 H8768 0.950 . S
C8775 C8772 1.387 . S
C8776 C8777 1.387 . S
C8776 H8780 0.950 . S
C8776 C8785 1.390 . S
C8777 C8776 1.387 . S
C8777 C8779 1.387 . S
H8778 C8785 0.950 . S
C8779 C8777 1.387 . S
C8779 C8781 1.390 . S
C8779 H8783 0.950 . S
H8780 C8776 0.950 . S
C8781 C8779 1.390 . S
C8781 C8782 1.387 . S
C8781 H8784 0.950 . S
C8782 C8781 1.387 . S
C8782 C8785 1.387 . S
H8783 C8779 0.950 . S
H8784 C8781 0.950 . S
C8785 C8776 1.390 . S
C8785 H8778 0.950 . S
C8785 C8782 1.387 . S
C8786 C8787 1.387 . S
C8786 H8790 0.950 . S
C8786 C8795 1.390 . S
C8787 C8786 1.387 . S
C8787 C8789 1.387 . S
H8788 C8795 0.950 . S
C8789 C8787 1.387 . S
C8789 C8791 1.390 . S
C8789 H8793 0.950 . S
H8790 C8786 0.950 . S
C8791 C8789 1.390 . S
C8791 C8792 1.387 . S
C8791 H8794 0.950 . S
C8792 C8791 1.387 . S
C8792 C8795 1.387 . S
H8793 C8789 0.950 . S
H8794 C8791 0.950 . S
C8795 C8786 1.390 . S
C8795 H8788 0.950 . S
C8795 C8792 1.387 . S
C8796 C8797 1.387 . S
C8796 H8800 0.950 . S
C8796 C8805 1.390 . S
C8797 C8796 1.387 . S
C8797 C8799 1.387 . S
H8798 C8805 0.950 . S
C8799 C8797 1.387 . S
C8799 C8801 1.390 . S
C8799 H8803 0.950 . S
H8800 C8796 0.950 . S
C8801 C8799 1.390 . S
C8801 C8802 1.387 . S
C8801 H8804 0.950 . S
C8802 C8801 1.387 . S
C8802 C8805 1.387 . S
H8803 C8799 0.950 . S
H8804 C8801 0.950 . S
C8805 C8796 1.390 . S
C8805 H8798 0.950 . S
C8805 C8802 1.387 . S
C8806 C8807 1.387 . S
C8806 H8810 0.950 . S
C8806 C8815 1.390 . S
C8807 C8806 1.387 . S
C8807 C8809 1.387 . S
H8808 C8815 0.950 . S
C8809 C8807 1.387 . S
C8809 C8811 1.390 . S
C8809 H8813 0.950 . S
H8810 C8806 0.950 . S
C8811 C8809 1.390 . S
C8811 C8812 1.387 . S
C8811 H8814 0.950 . S
C8812 C8811 1.387 . S
C8812 C8815 1.387 . S
H8813 C8809 0.950 . S
H8814 C8811 0.950 . S
C8815 C8806 1.390 . S
C8815 H8808 0.950 . S
C8815 C8812 1.387 . S
C8816 C8817 1.387 . S
C8816 H8820 0.950 . S
C8816 C8825 1.390 . S
C8817 C8816 1.387 . S
C8817 C8819 1.387 . S
H8818 C8825 0.950 . S
C8819 C8817 1.387 . S
C8819 C8821 1.390 . S
C8819 H8823 0.950 . S
H8820 C8816 0.950 . S
C8821 C8819 1.390 . S
C8821 C8822 1.387 . S
C8821 H8824 0.950 . S
C8822 C8821 1.387 . S
C8822 C8825 1.387 . S
H8823 C8819 0.950 . S
H8824 C8821 0.950 . S
C8825 C8816 1.390 . S
C8825 H8818 0.950 . S
C8825 C8822 1.387 . S
C8826 C8827 1.387 . S
C8826 H8830 0.950 . S
C8826 C8835 1.390 . S
C8827 C8826 1.387 . S
C8827 C8829 1.387 . S
H8828 C8835 0.950 . S
C8829 C8827 1.387 . S
C8829 C8831 1.390 . S
C8829 H8833 0.950 . S
H8830 C8826 0.950 . S
C8831 C8829 1.390 . S
C8831 C8832 1.387 . S
C8831 H8834 0.950 . S
C8832 C8831 1.387 . S
C8832 C8835 1.387 . S
H8833 C8829 0.950 . S
H8834 C8831 0.950 . S
C8835 C8826 1.390 . S
C8835 H8828 0.950 . S
C8835 C8832 1.387 . S
C8836 C8837 1.387 . S
C8836 H8840 0.950 . S
C8836 C8845 1.390 . S
C8837 C8836 1.387 . S
C8837 C8839 1.387 . S
H8838 C8845 0.950 . S
C8839 C8837 1.387 . S
C8839 C8841 1.390 . S
C8839 H8843 0.950 . S
H8840 C8836 0.950 . S
C8841 C8839 1.390 . S
C8841 C8842 1.387 . S
C8841 H8844 0.950 . S
C8842 C8841 1.387 . S
C8842 C8845 1.387 . S
H8843 C8839 0.950 . S
H8844 C8841 0.950 . S
C8845 C8836 1.390 . S
C8845 H8838 0.950 . S
C8845 C8842 1.387 . S
C8846 C8847 1.387 . S
C8846 H8850 0.950 . S
C8846 C8855 1.390 . S
C8847 C8846 1.387 . S
C8847 C8849 1.387 . S
H8848 C8855 0.950 . S
C8849 C8847 1.387 . S
C8849 C8851 1.390 . S
C8849 H8853 0.950 . S
H8850 C8846 0.950 . S
C8851 C8849 1.390 . S
C8851 C8852 1.387 . S
C8851 H8854 0.950 . S
C8852 C8851 1.387 . S
C8852 C8855 1.387 . S
H8853 C8849 0.950 . S
H8854 C8851 0.950 . S
C8855 C8846 1.390 . S
C8855 H8848 0.950 . S
C8855 C8852 1.387 . S
C8856 C8857 1.387 . S
C8856 H8860 0.950 . S
C8856 C8865 1.390 . S
C8857 C8856 1.387 . S
C8857 C8859 1.387 . S
H8858 C8865 0.950 . S
C8859 C8857 1.387 . S
C8859 C8861 1.390 . S
C8859 H8863 0.950 . S
H8860 C8856 0.950 . S
C8861 C8859 1.390 . S
C8861 C8862 1.387 . S
C8861 H8864 0.950 . S
C8862 C8861 1.387 . S
C8862 C8865 1.387 . S
H8863 C8859 0.950 . S
H8864 C8861 0.950 . S
C8865 C8856 1.390 . S
C8865 H8858 0.950 . S
C8865 C8862 1.387 . S
C8866 C8867 1.387 . S
C8866 H8870 0.950 . S
C8866 C8875 1.390 . S
C8867 C8866 1.387 . S
C8867 C8869 1.387 . S
H8868 C8875 0.950 . S
C8869 C8867 1.387 . S
C8869 C8871 1.390 . S
C8869 H8873 0.950 . S
H8870 C8866 0.950 . S
C8871 C8869 1.390 . S
C8871 C8872 1.387 . S
C8871 H8874 0.950 . S
C8872 C8871 1.387 . S
C8872 C8875 1.387 . S
H8873 C8869 0.950 . S
H8874 C8871 0.950 . S
C8875 C8866 1.390 . S
C8875 H8868 0.950 . S
C8875 C8872 1.387 . S
C8876 C8877 1.387 . S
C8876 H8880 0.950 . S
C8876 C8885 1.390 . S
C8877 C8876 1.387 . S
C8877 C8879 1.387 . S
H8878 C8885 0.950 . S
C8879 C8877 1.387 . S
C8879 C8881 1.390 . S
C8879 H8883 0.950 . S
H8880 C8876 0.950 . S
C8881 C8879 1.390 . S
C8881 C8882 1.387 . S
C8881 H8884 0.950 . S
C8882 C8881 1.387 . S
C8882 C8885 1.387 . S
H8883 C8879 0.950 . S
H8884 C8881 0.950 . S
C8885 C8876 1.390 . S
C8885 H8878 0.950 . S
C8885 C8882 1.387 . S
C8886 C8887 1.387 . S
C8886 H8890 0.950 . S
C8886 C8895 1.390 . S
C8887 C8886 1.387 . S
C8887 C8889 1.387 . S
H8888 C8895 0.950 . S
C8889 C8887 1.387 . S
C8889 C8891 1.390 . S
C8889 H8893 0.950 . S
H8890 C8886 0.950 . S
C8891 C8889 1.390 . S
C8891 C8892 1.387 . S
C8891 H8894 0.950 . S
C8892 C8891 1.387 . S
C8892 C8895 1.387 . S
H8893 C8889 0.950 . S
H8894 C8891 0.950 . S
C8895 C8886 1.390 . S
C8895 H8888 0.950 . S
C8895 C8892 1.387 . S
C8896 C8897 1.387 . S
C8896 H8900 0.950 . S
C8896 C8905 1.390 . S
C8897 C8896 1.387 . S
C8897 C8899 1.387 . S
H8898 C8905 0.950 . S
C8899 C8897 1.387 . S
C8899 C8901 1.390 . S
C8899 H8903 0.950 . S
H8900 C8896 0.950 . S
C8901 C8899 1.390 . S
C8901 C8902 1.387 . S
C8901 H8904 0.950 . S
C8902 C8901 1.387 . S
C8902 C8905 1.387 . S
H8903 C8899 0.950 . S
H8904 C8901 0.950 . S
C8905 C8896 1.390 . S
C8905 H8898 0.950 . S
C8905 C8902 1.387 . S
C8906 C8907 1.387 . S
C8906 H8910 0.950 . S
C8906 C8915 1.390 . S
C8907 C8906 1.387 . S
C8907 C8909 1.387 . S
H8908 C8915 0.950 . S
C8909 C8907 1.387 . S
C8909 C8911 1.390 . S
C8909 H8913 0.950 . S
H8910 C8906 0.950 . S
C8911 C8909 1.390 . S
C8911 C8912 1.387 . S
C8911 H8914 0.950 . S
C8912 C8911 1.387 . S
C8912 C8915 1.387 . S
H8913 C8909 0.950 . S
H8914 C8911 0.950 . S
C8915 C8906 1.390 . S
C8915 H8908 0.950 . S
C8915 C8912 1.387 . S
C8916 C8917 1.387 . S
C8916 H8920 0.950 . S
C8916 C8925 1.390 . S
C8917 C8916 1.387 . S
C8917 C8919 1.387 . S
H8918 C8925 0.950 . S
C8919 C8917 1.387 . S
C8919 C8921 1.390 . S
C8919 H8923 0.950 . S
H8920 C8916 0.950 . S
C8921 C8919 1.390 . S
C8921 C8922 1.387 . S
C8921 H8924 0.950 . S
C8922 C8921 1.387 . S
C8922 C8925 1.387 . S
H8923 C8919 0.950 . S
H8924 C8921 0.950 . S
C8925 C8916 1.390 . S
C8925 H8918 0.950 . S
C8925 C8922 1.387 . S
C8926 C8927 1.387 . S
C8926 H8930 0.950 . S
C8926 C8935 1.390 . S
C8927 C8926 1.387 . S
C8927 C8929 1.387 . S
H8928 C8935 0.950 . S
C8929 C8927 1.387 . S
C8929 C8931 1.390 . S
C8929 H8933 0.950 . S
H8930 C8926 0.950 . S
C8931 C8929 1.390 . S
C8931 C8932 1.387 . S
C8931 H8934 0.950 . S
C8932 C8931 1.387 . S
C8932 C8935 1.387 . S
H8933 C8929 0.950 . S
H8934 C8931 0.950 . S
C8935 C8926 1.390 . S
C8935 H8928 0.950 . S
C8935 C8932 1.387 . S
C8936 C8937 1.387 . S
C8936 H8940 0.950 . S
C8936 C8945 1.390 . S
C8937 C8936 1.387 . S
C8937 C8939 1.387 . S
H8938 C8945 0.950 . S
C8939 C8937 1.387 . S
C8939 C8941 1.390 . S
C8939 H8943 0.950 . S
H8940 C8936 0.950 . S
C8941 C8939 1.390 . S
C8941 C8942 1.387 . S
C8941 H8944 0.950 . S
C8942 C8941 1.387 . S
C8942 C8945 1.387 . S
H8943 C8939 0.950 . S
H8944 C8941 0.950 . S
C8945 C8936 1.390 . S
C8945 H8938 0.950 . S
C8945 C8942 1.387 . S
C8946 C8947 1.387 . S
C8946 H8950 0.950 . S
C8946 C8955 1.390 . S
C8947 C8946 1.387 . S
C8947 C8949 1.387 . S
H8948 C8955 0.950 . S
C8949 C8947 1.387 . S
C8949 C8951 1.390 . S
C8949 H8953 0.950 . S
H8950 C8946 0.950 . S
C8951 C8949 1.390 . S
C8951 C8952 1.387 . S
C8951 H8954 0.950 . S
C8952 C8951 1.387 . S
C8952 C8955 1.387 . S
H8953 C8949 0.950 . S
H8954 C8951 0.950 . S
C8955 C8946 1.390 . S
C8955 H8948 0.950 . S
C8955 C8952 1.387 . S
C8956 C8957 1.387 . S
C8956 H8960 0.950 . S
C8956 C8965 1.390 . S
C8957 C8956 1.387 . S
C8957 C8959 1.387 . S
H8958 C8965 0.950 . S
C8959 C8957 1.387 . S
C8959 C8961 1.390 . S
C8959 H8963 0.950 . S
H8960 C8956 0.950 . S
C8961 C8959 1.390 . S
C8961 C8962 1.387 . S
C8961 H8964 0.950 . S
C8962 C8961 1.387 . S
C8962 C8965 1.387 . S
H8963 C8959 0.950 . S
H8964 C8961 0.950 . S
C8965 C8956 1.390 . S
C8965 H8958 0.950 . S
C8965 C8962 1.387 . S
C8966 C8967 1.387 . S
C8966 H8970 0.950 . S
C8966 C8975 1.390 . S
C8967 C8966 1.387 . S
C8967 C8969 1.387 . S
H8968 C8975 0.950 . S
C8969 C8967 1.387 . S
C8969 C8971 1.390 . S
C8969 H8973 0.950 . S
H8970 C8966 0.950 . S
C8971 C8969 1.390 . S
C8971 C8972 1.387 . S
C8971 H8974 0.950 . S
C8972 C8971 1.387 . S
C8972 C8975 1.387 . S
H8973 C8969 0.950 . S
H8974 C8971 0.950 . S
C8975 C8966 1.390 . S
C8975 H8968 0.950 . S
C8975 C8972 1.387 . S
C8976 C8977 1.387 . S
C8976 H8980 0.950 . S
C8976 C8985 1.390 . S
C8977 C8976 1.387 . S
C8977 C8979 1.387 . S
H8978 C8985 0.950 . S
C8979 C8977 1.387 . S
C8979 C8981 1.390 . S
C8979 H8983 0.950 . S
H8980 C8976 0.950 . S
C8981 C8979 1.390 . S
C8981 C8982 1.387 . S
C8981 H8984 0.950 . S
C8982 C8981 1.387 . S
C8982 C8985 1.387 . S
H8983 C8979 0.950 . S
H8984 C8981 0.950 . S
C8985 C8976 1.390 . S
C8985 H8978 0.950 . S
C8985 C8982 1.387 . S
C8986 C8987 1.387 . S
C8986 H8990 0.950 . S
C8986 C8995 1.390 . S
C8987 C8986 1.387 . S
C8987 C8989 1.387 . S
H8988 C8995 0.950 . S
C8989 C8987 1.387 . S
C8989 C8991 1.390 . S
C8989 H8993 0.950 . S
H8990 C8986 0.950 . S
C8991 C8989 1.390 . S
C8991 C8992 1.387 . S
C8991 H8994 0.950 . S
C8992 C8991 1.387 . S
C8992 C8995 1.387 . S
H8993 C8989 0.950 . S
H8994 C8991 0.950 . S
C8995 C8986 1.390 . S
C8995 H8988 0.950 . S
C8995 C8992 1.387 . S
C8996 C8997 1.387 . S
C8996 H9000 0.950 . S
C8996 C9005 1.390 . S
C8997 C8996 1.387 . S
C8997 C8999 1.387 . S
H8998 C9005 0.950 . S
C8999 C8997 1.387 . S
C8999 C9001 1.390 . S
C8999 H9003 0.950 . S
H9000 C8996 0.950 . S
C9001 C8999 1.390 . S
C9001 C9002 1.387 . S
C9001 H9004 0.950 . S
C9002 C9001 1.387 . S
C9002 C9005 1.387 . S
H9003 C8999 0.950 . S
H9004 C9001 0.950 . S
C9005 C8996 1.390 . S
C9005 H8998 0.950 . S
C9005 C9002 1.387 . S
C9006 C9007 1.387 . S
C9006 H9010 0.950 . S
C9006 C9015 1.390 . S
C9007 C9006 1.387 . S
C9007 C9009 1.387 . S
H9008 C9015 0.950 . S
C9009 C9007 1.387 . S
C9009 C9011 1.390 . S
C9009 H9013 0.950 . S
H9010 C9006 0.950 . S
C9011 C9009 1.390 . S
C9011 C9012 1.387 . S
C9011 H9014 0.950 . S
C9012 C9011 1.387 . S
C9012 C9015 1.387 . S
H9013 C9009 0.950 . S
H9014 C9011 0.950 . S
C9015 C9006 1.390 . S
C9015 H9008 0.950 . S
C9015 C9012 1.387 . S
C9016 C9017 1.387 . S
C9016 H9020 0.950 . S
C9016 C9025 1.390 . S
C9017 C9016 1.387 . S
C9017 C9019 1.387 . S
H9018 C9025 0.950 . S
C9019 C9017 1.387 . S
C9019 C9021 1.390 . S
C9019 H9023 0.950 . S
H9020 C9016 0.950 . S
C9021 C9019 1.390 . S
C9021 C9022 1.387 . S
C9021 H9024 0.950 . S
C9022 C9021 1.387 . S
C9022 C9025 1.387 . S
H9023 C9019 0.950 . S
H9024 C9021 0.950 . S
C9025 C9016 1.390 . S
C9025 H9018 0.950 . S
C9025 C9022 1.387 . S
C9026 C9027 1.387 . S
C9026 H9030 0.950 . S
C9026 C9035 1.390 . S
C9027 C9026 1.387 . S
C9027 C9029 1.387 . S
H9028 C9035 0.950 . S
C9029 C9027 1.387 . S
C9029 C9031 1.390 . S
C9029 H9033 0.950 . S
H9030 C9026 0.950 . S
C9031 C9029 1.390 . S
C9031 C9032 1.387 . S
C9031 H9034 0.950 . S
C9032 C9031 1.387 . S
C9032 C9035 1.387 . S
H9033 C9029 0.950 . S
H9034 C9031 0.950 . S
C9035 C9026 1.390 . S
C9035 H9028 0.950 . S
C9035 C9032 1.387 . S
C9036 C9037 1.387 . S
C9036 H9040 0.950 . S
C9036 C9045 1.390 . S
C9037 C9036 1.387 . S
C9037 C9039 1.387 . S
H9038 C9045 0.950 . S
C9039 C9037 1.387 . S
C9039 C9041 1.390 . S
C9039 H9043 0.950 . S
H9040 C9036 0.950 . S
C9041 C9039 1.390 . S
C9041 C9042 1.387 . S
C9041 H9044 0.950 . S
C9042 C9041 1.387 . S
C9042 C9045 1.387 . S
H9043 C9039 0.950 . S
H9044 C9041 0.950 . S
C9045 C9036 1.390 . S
C9045 H9038 0.950 . S
C9045 C9042 1.387 . S
C9046 C9047 1.387 . S
C9046 H9050 0.950 . S
C9046 C9055 1.390 . S
C9047 C9046 1.387 . S
C9047 C9049 1.387 . S
H9048 C9055 0.950 . S
C9049 C9047 1.387 . S
C9049 C9051 1.390 . S
C9049 H9053 0.950 . S
H9050 C9046 0.950 . S
C9051 C9049 1.390 . S
C9051 C9052 1.387 . S
C9051 H9054 0.950 . S
C9052 C9051 1.387 . S
C9052 C9055 1.387 . S
H9053 C9049 0.950 . S
H9054 C9051 0.950 . S
C9055 C9046 1.390 . S
C9055 H9048 0.950 . S
C9055 C9052 1.387 . S
C9056 C9057 1.387 . S
C9056 H9060 0.950 . S
C9056 C9065 1.390 . S
C9057 C9056 1.387 . S
C9057 C9059 1.387 . S
H9058 C9065 0.950 . S
C9059 C9057 1.387 . S
C9059 C9061 1.390 . S
C9059 H9063 0.950 . S
H9060 C9056 0.950 . S
C9061 C9059 1.390 . S
C9061 C9062 1.387 . S
C9061 H9064 0.950 . S
C9062 C9061 1.387 . S
C9062 C9065 1.387 . S
H9063 C9059 0.950 . S
H9064 C9061 0.950 . S
C9065 C9056 1.390 . S
C9065 H9058 0.950 . S
C9065 C9062 1.387 . S
C9066 C9067 1.387 . S
C9066 H9070 0.950 . S
C9066 C9075 1.390 . S
C9067 C9066 1.387 . S
C9067 C9069 1.387 . S
H9068 C9075 0.950 . S
C9069 C9067 1.387 . S
C9069 C9071 1.390 . S
C9069 H9073 0.950 . S
H9070 C9066 0.950 . S
C9071 C9069 1.390 . S
C9071 C9072 1.387 . S
C9071 H9074 0.950 . S
C9072 C9071 1.387 . S
C9072 C9075 1.387 . S
H9073 C9069 0.950 . S
H9074 C9071 0.950 . S
C9075 C9066 1.390 . S
C9075 H9068 0.950 . S
C9075 C9072 1.387 . S
C9076 C9077 1.387 . S
C9076 H9080 0.950 . S
C9076 C9085 1.390 . S
C9077 C9076 1.387 . S
C9077 C9079 1.387 . S
H9078 C9085 0.950 . S
C9079 C9077 1.387 . S
C9079 C9081 1.390 . S
C9079 H9083 0.950 . S
H9080 C9076 0.950 . S
C9081 C9079 1.390 . S
C9081 C9082 1.387 . S
C9081 H9084 0.950 . S
C9082 C9081 1.387 . S
C9082 C9085 1.387 . S
H9083 C9079 0.950 . S
H9084 C9081 0.950 . S
C9085 C9076 1.390 . S
C9085 H9078 0.950 . S
C9085 C9082 1.387 . S
C9086 C9087 1.387 . S
C9086 H9090 0.950 . S
C9086 C9095 1.390 . S
C9087 C9086 1.387 . S
C9087 C9089 1.387 . S
H9088 C9095 0.950 . S
C9089 C9087 1.387 . S
C9089 C9091 1.390 . S
C9089 H9093 0.950 . S
H9090 C9086 0.950 . S
C9091 C9089 1.390 . S
C9091 C9092 1.387 . S
C9091 H9094 0.950 . S
C9092 C9091 1.387 . S
C9092 C9095 1.387 . S
H9093 C9089 0.950 . S
H9094 C9091 0.950 . S
C9095 C9086 1.390 . S
C9095 H9088 0.950 . S
C9095 C9092 1.387 . S
C9096 C9097 1.387 . S
C9096 H9100 0.950 . S
C9096 C9105 1.390 . S
C9097 C9096 1.387 . S
C9097 C9099 1.387 . S
H9098 C9105 0.950 . S
C9099 C9097 1.387 . S
C9099 C9101 1.390 . S
C9099 H9103 0.950 . S
H9100 C9096 0.950 . S
C9101 C9099 1.390 . S
C9101 C9102 1.387 . S
C9101 H9104 0.950 . S
C9102 C9101 1.387 . S
C9102 C9105 1.387 . S
H9103 C9099 0.950 . S
H9104 C9101 0.950 . S
C9105 C9096 1.390 . S
C9105 H9098 0.950 . S
C9105 C9102 1.387 . S
C9106 C9107 1.387 . S
C9106 H9110 0.950 . S
C9106 C9115 1.390 . S
C9107 C9106 1.387 . S
C9107 C9109 1.387 . S
H9108 C9115 0.950 . S
C9109 C9107 1.387 . S
C9109 C9111 1.390 . S
C9109 H9113 0.950 . S
H9110 C9106 0.950 . S
C9111 C9109 1.390 . S
C9111 C9112 1.387 . S
C9111 H9114 0.950 . S
C9112 C9111 1.387 . S
C9112 C9115 1.387 . S
H9113 C9109 0.950 . S
H9114 C9111 0.950 . S
C9115 C9106 1.390 . S
C9115 H9108 0.950 . S
C9115 C9112 1.387 . S
C9116 C9117 1.387 . S
C9116 H9120 0.950 . S
C9116 C9125 1.390 . S
C9117 C9116 1.387 . S
C9117 C9119 1.387 . S
H9118 C9125 0.950 . S
C9119 C9117 1.387 . S
C9119 C9121 1.390 . S
C9119 H9123 0.950 . S
H9120 C9116 0.950 . S
C9121 C9119 1.390 . S
C9121 C9122 1.387 . S
C9121 H9124 0.950 . S
C9122 C9121 1.387 . S
C9122 C9125 1.387 . S
H9123 C9119 0.950 . S
H9124 C9121 0.950 . S
C9125 C9116 1.390 . S
C9125 H9118 0.950 . S
C9125 C9122 1.387 . S
C9126 C9127 1.387 . S
C9126 H9130 0.950 . S
C9126 C9135 1.390 . S
C9127 C9126 1.387 . S
C9127 C9129 1.387 . S
H9128 C9135 0.950 . S
C9129 C9127 1.387 . S
C9129 C9131 1.390 . S
C9129 H9133 0.950 . S
H9130 C9126 0.950 . S
C9131 C9129 1.390 . S
C9131 C9132 1.387 . S
C9131 H9134 0.950 . S
C9132 C9131 1.387 . S
C9132 C9135 1.387 . S
H9133 C9129 0.950 . S
H9134 C9131 0.950 . S
C9135 C9126 1.390 . S
C9135 H9128 0.950 . S
C9135 C9132 1.387 . S
C9136 C9137 1.387 . S
C9136 H9140 0.950 . S
C9136 C9145 1.390 . S
C9137 C9136 1.387 . S
C9137 C9139 1.387 . S
H9138 C9145 0.950 . S
C9139 C9137 1.387 . S
C9139 C9141 1.390 . S
C9139 H9143 0.950 . S
H9140 C9136 0.950 . S
C9141 C9139 1.390 . S
C9141 C9142 1.387 . S
C9141 H9144 0.950 . S
C9142 C9141 1.387 . S
C9142 C9145 1.387 . S
H9143 C9139 0.950 . S
H9144 C9141 0.950 . S
C9145 C9136 1.390 . S
C9145 H9138 0.950 . S
C9145 C9142 1.387 . S
C9146 C9147 1.387 . S
C9146 H9150 0.950 . S
C9146 C9155 1.390 . S
C9147 C9146 1.387 . S
C9147 C9149 1.387 . S
H9148 C9155 0.950 . S
C9149 C9147 1.387 . S
C9149 C9151 1.390 . S
C9149 H9153 0.950 . S
H9150 C9146 0.950 . S
C9151 C9149 1.390 . S
C9151 C9152 1.387 . S
C9151 H9154 0.950 . S
C9152 C9151 1.387 . S
C9152 C9155 1.387 . S
H9153 C9149 0.950 . S
H9154 C9151 0.950 . S
C9155 C9146 1.390 . S
C9155 H9148 0.950 . S
C9155 C9152 1.387 . S
C9156 C9157 1.387 . S
C9156 H9160 0.950 . S
C9156 C9165 1.390 . S
C9157 C9156 1.387 . S
C9157 C9159 1.387 . S
H9158 C9165 0.950 . S
C9159 C9157 1.387 . S
C9159 C9161 1.390 . S
C9159 H9163 0.950 . S
H9160 C9156 0.950 . S
C9161 C9159 1.390 . S
C9161 C9162 1.387 . S
C9161 H9164 0.950 . S
C9162 C9161 1.387 . S
C9162 C9165 1.387 . S
H9163 C9159 0.950 . S
H9164 C9161 0.950 . S
C9165 C9156 1.390 . S
C9165 H9158 0.950 . S
C9165 C9162 1.387 . S
C9166 C9167 1.387 . S
C9166 H9170 0.950 . S
C9166 C9175 1.390 . S
C9167 C9166 1.387 . S
C9167 C9169 1.387 . S
H9168 C9175 0.950 . S
C9169 C9167 1.387 . S
C9169 C9171 1.390 . S
C9169 H9173 0.950 . S
H9170 C9166 0.950 . S
C9171 C9169 1.390 . S
C9171 C9172 1.387 . S
C9171 H9174 0.950 . S
C9172 C9171 1.387 . S
C9172 C9175 1.387 . S
H9173 C9169 0.950 . S
H9174 C9171 0.950 . S
C9175 C9166 1.390 . S
C9175 H9168 0.950 . S
C9175 C9172 1.387 . S
C9176 C9177 1.387 . S
C9176 H9180 0.950 . S
C9176 C9185 1.390 . S
C9177 C9176 1.387 . S
C9177 C9179 1.387 . S
H9178 C9185 0.950 . S
C9179 C9177 1.387 . S
C9179 C9181 1.390 . S
C9179 H9183 0.950 . S
H9180 C9176 0.950 . S
C9181 C9179 1.390 . S
C9181 C9182 1.387 . S
C9181 H9184 0.950 . S
C9182 C9181 1.387 . S
C9182 C9185 1.387 . S
H9183 C9179 0.950 . S
H9184 C9181 0.950 . S
C9185 C9176 1.390 . S
C9185 H9178 0.950 . S
C9185 C9182 1.387 . S
C9186 C9187 1.387 . S
C9186 H9190 0.950 . S
C9186 C9195 1.390 . S
C9187 C9186 1.387 . S
C9187 C9189 1.387 . S
H9188 C9195 0.950 . S
C9189 C9187 1.387 . S
C9189 C9191 1.390 . S
C9189 H9193 0.950 . S
H9190 C9186 0.950 . S
C9191 C9189 1.390 . S
C9191 C9192 1.387 . S
C9191 H9194 0.950 . S
C9192 C9191 1.387 . S
C9192 C9195 1.387 . S
H9193 C9189 0.950 . S
H9194 C9191 0.950 . S
C9195 C9186 1.390 . S
C9195 H9188 0.950 . S
C9195 C9192 1.387 . S
C9196 C9197 1.387 . S
C9196 H9200 0.950 . S
C9196 C9205 1.390 . S
C9197 C9196 1.387 . S
C9197 C9199 1.387 . S
H9198 C9205 0.950 . S
C9199 C9197 1.387 . S
C9199 C9201 1.390 . S
C9199 H9203 0.950 . S
H9200 C9196 0.950 . S
C9201 C9199 1.390 . S
C9201 C9202 1.387 . S
C9201 H9204 0.950 . S
C9202 C9201 1.387 . S
C9202 C9205 1.387 . S
H9203 C9199 0.950 . S
H9204 C9201 0.950 . S
C9205 C9196 1.390 . S
C9205 H9198 0.950 . S
C9205 C9202 1.387 . S
C9206 C9207 1.387 . S
C9206 H9210 0.950 . S
C9206 C9215 1.390 . S
C9207 C9206 1.387 . S
C9207 C9209 1.387 . S
H9208 C9215 0.950 . S
C9209 C9207 1.387 . S
C9209 C9211 1.390 . S
C9209 H9213 0.950 . S
H9210 C9206 0.950 . S
C9211 C9209 1.390 . S
C9211 C9212 1.387 . S
C9211 H9214 0.950 . S
C9212 C9211 1.387 . S
C9212 C9215 1.387 . S
H9213 C9209 0.950 . S
H9214 C9211 0.950 . S
C9215 C9206 1.390 . S
C9215 H9208 0.950 . S
C9215 C9212 1.387 . S
C9216 C9217 1.387 . S
C9216 H9220 0.950 . S
C9216 C9225 1.390 . S
C9217 C9216 1.387 . S
C9217 C9219 1.387 . S
H9218 C9225 0.950 . S
C9219 C9217 1.387 . S
C9219 C9221 1.390 . S
C9219 H9223 0.950 . S
H9220 C9216 0.950 . S
C9221 C9219 1.390 . S
C9221 C9222 1.387 . S
C9221 H9224 0.950 . S
C9222 C9221 1.387 . S
C9222 C9225 1.387 . S
H9223 C9219 0.950 . S
H9224 C9221 0.950 . S
C9225 C9216 1.390 . S
C9225 H9218 0.950 . S
C9225 C9222 1.387 . S
C9226 C9227 1.387 . S
C9226 H9230 0.950 . S
C9226 C9235 1.390 . S
C9227 C9226 1.387 . S
C9227 C9229 1.387 . S
H9228 C9235 0.950 . S
C9229 C9227 1.387 . S
C9229 C9231 1.390 . S
C9229 H9233 0.950 . S
H9230 C9226 0.950 . S
C9231 C9229 1.390 . S
C9231 C9232 1.387 . S
C9231 H9234 0.950 . S
C9232 C9231 1.387 . S
C9232 C9235 1.387 . S
H9233 C9229 0.950 . S
H9234 C9231 0.950 . S
C9235 C9226 1.390 . S
C9235 H9228 0.950 . S
C9235 C9232 1.387 . S
C9236 C9237 1.387 . S
C9236 H9240 0.950 . S
C9236 C9245 1.390 . S
C9237 C9236 1.387 . S
C9237 C9239 1.387 . S
H9238 C9245 0.950 . S
C9239 C9237 1.387 . S
C9239 C9241 1.390 . S
C9239 H9243 0.950 . S
H9240 C9236 0.950 . S
C9241 C9239 1.390 . S
C9241 C9242 1.387 . S
C9241 H9244 0.950 . S
C9242 C9241 1.387 . S
C9242 C9245 1.387 . S
H9243 C9239 0.950 . S
H9244 C9241 0.950 . S
C9245 C9236 1.390 . S
C9245 H9238 0.950 . S
C9245 C9242 1.387 . S
C9246 C9247 1.387 . S
C9246 H9250 0.950 . S
C9246 C9255 1.390 . S
C9247 C9246 1.387 . S
C9247 C9249 1.387 . S
H9248 C9255 0.950 . S
C9249 C9247 1.387 . S
C9249 C9251 1.390 . S
C9249 H9253 0.950 . S
H9250 C9246 0.950 . S
C9251 C9249 1.390 . S
C9251 C9252 1.387 . S
C9251 H9254 0.950 . S
C9252 C9251 1.387 . S
C9252 C9255 1.387 . S
H9253 C9249 0.950 . S
H9254 C9251 0.950 . S
C9255 C9246 1.390 . S
C9255 H9248 0.950 . S
C9255 C9252 1.387 . S
C9256 C9257 1.387 . S
C9256 H9260 0.950 . S
C9256 C9265 1.390 . S
C9257 C9256 1.387 . S
C9257 C9259 1.387 . S
H9258 C9265 0.950 . S
C9259 C9257 1.387 . S
C9259 C9261 1.390 . S
C9259 H9263 0.950 . S
H9260 C9256 0.950 . S
C9261 C9259 1.390 . S
C9261 C9262 1.387 . S
C9261 H9264 0.950 . S
C9262 C9261 1.387 . S
C9262 C9265 1.387 . S
H9263 C9259 0.950 . S
H9264 C9261 0.950 . S
C9265 C9256 1.390 . S
C9265 H9258 0.950 . S
C9265 C9262 1.387 . S
C9266 C9267 1.387 . S
C9266 H9270 0.950 . S
C9266 C9275 1.390 . S
C9267 C9266 1.387 . S
C9267 C9269 1.387 . S
H9268 C9275 0.950 . S
C9269 C9267 1.387 . S
C9269 C9271 1.390 . S
C9269 H9273 0.950 . S
H9270 C9266 0.950 . S
C9271 C9269 1.390 . S
C9271 C9272 1.387 . S
C9271 H9274 0.950 . S
C9272 C9271 1.387 . S
C9272 C9275 1.387 . S
H9273 C9269 0.950 . S
H9274 C9271 0.950 . S
C9275 C9266 1.390 . S
C9275 H9268 0.950 . S
C9275 C9272 1.387 . S
C9276 C9277 1.387 . S
C9276 H9280 0.950 . S
C9276 C9285 1.390 . S
C9277 C9276 1.387 . S
C9277 C9279 1.387 . S
H9278 C9285 0.950 . S
C9279 C9277 1.387 . S
C9279 C9281 1.390 . S
C9279 H9283 0.950 . S
H9280 C9276 0.950 . S
C9281 C9279 1.390 . S
C9281 C9282 1.387 . S
C9281 H9284 0.950 . S
C9282 C9281 1.387 . S
C9282 C9285 1.387 . S
H9283 C9279 0.950 . S
H9284 C9281 0.950 . S
C9285 C9276 1.390 . S
C9285 H9278 0.950 . S
C9285 C9282 1.387 . S
C9286 C9287 1.387 . S
C9286 H9290 0.950 . S
C9286 C9295 1.390 . S
C9287 C9286 1.387 . S
C9287 C9289 1.387 . S
H9288 C9295 0.950 . S
C9289 C9287 1.387 . S
C9289 C9291 1.390 . S
C9289 H9293 0.950 . S
H9290 C9286 0.950 . S
C9291 C9289 1.390 . S
C9291 C9292 1.387 . S
C9291 H9294 0.950 . S
C9292 C9291 1.387 . S
C9292 C9295 1.387 . S
H9293 C9289 0.950 . S
H9294 C9291 0.950 . S
C9295 C9286 1.390 . S
C9295 H9288 0.950 . S
C9295 C9292 1.387 . S
C9296 C9297 1.387 . S
C9296 H9300 0.950 . S
C9296 C9305 1.390 . S
C9297 C9296 1.387 . S
C9297 C9299 1.387 . S
H9298 C9305 0.950 . S
C9299 C9297 1.387 . S
C9299 C9301 1.390 . S
C9299 H9303 0.950 . S
H9300 C9296 0.950 . S
C9301 C9299 1.390 . S
C9301 C9302 1.387 . S
C9301 H9304 0.950 . S
C9302 C9301 1.387 . S
C9302 C9305 1.387 . S
H9303 C9299 0.950 . S
H9304 C9301 0.950 . S
C9305 C9296 1.390 . S
C9305 H9298 0.950 . S
C9305 C9302 1.387 . S
C9306 C9307 1.387 . S
C9306 H9310 0.950 . S
C9306 C9315 1.390 . S
C9307 C9306 1.387 . S
C9307 C9309 1.387 . S
H9308 C9315 0.950 . S
C9309 C9307 1.387 . S
C9309 C9311 1.390 . S
C9309 H9313 0.950 . S
H9310 C9306 0.950 . S
C9311 C9309 1.390 . S
C9311 C9312 1.387 . S
C9311 H9314 0.950 . S
C9312 C9311 1.387 . S
C9312 C9315 1.387 . S
H9313 C9309 0.950 . S
H9314 C9311 0.950 . S
C9315 C9306 1.390 . S
C9315 H9308 0.950 . S
C9315 C9312 1.387 . S
C9316 C9317 1.387 . S
C9316 H9320 0.950 . S
C9316 C9325 1.390 . S
C9317 C9316 1.387 . S
C9317 C9319 1.387 . S
H9318 C9325 0.950 . S
C9319 C9317 1.387 . S
C9319 C9321 1.390 . S
C9319 H9323 0.950 . S
H9320 C9316 0.950 . S
C9321 C9319 1.390 . S
C9321 C9322 1.387 . S
C9321 H9324 0.950 . S
C9322 C9321 1.387 . S
C9322 C9325 1.387 . S
H9323 C9319 0.950 . S
H9324 C9321 0.950 . S
C9325 C9316 1.390 . S
C9325 H9318 0.950 . S
C9325 C9322 1.387 . S
C9326 C9327 1.387 . S
C9326 H9330 0.950 . S
C9326 C9335 1.390 . S
C9327 C9326 1.387 . S
C9327 C9329 1.387 . S
H9328 C9335 0.950 . S
C9329 C9327 1.387 . S
C9329 C9331 1.390 . S
C9329 H9333 0.950 . S
H9330 C9326 0.950 . S
C9331 C9329 1.390 . S
C9331 C9332 1.387 . S
C9331 H9334 0.950 . S
C9332 C9331 1.387 . S
C9332 C9335 1.387 . S
H9333 C9329 0.950 . S
H9334 C9331 0.950 . S
C9335 C9326 1.390 . S
C9335 H9328 0.950 . S
C9335 C9332 1.387 . S
C9336 C9337 1.387 . S
C9336 H9340 0.950 . S
C9336 C9345 1.390 . S
C9337 C9336 1.387 . S
C9337 C9339 1.387 . S
H9338 C9345 0.950 . S
C9339 C9337 1.387 . S
C9339 C9341 1.390 . S
C9339 H9343 0.950 . S
H9340 C9336 0.950 . S
C9341 C9339 1.390 . S
C9341 C9342 1.387 . S
C9341 H9344 0.950 . S
C9342 C9341 1.387 . S
C9342 C9345 1.387 . S
H9343 C9339 0.950 . S
H9344 C9341 0.950 . S
C9345 C9336 1.390 . S
C9345 H9338 0.950 . S
C9345 C9342 1.387 . S
C9346 C9347 1.387 . S
C9346 H9350 0.950 . S
C9346 C9355 1.390 . S
C9347 C9346 1.387 . S
C9347 C9349 1.387 . S
H9348 C9355 0.950 . S
C9349 C9347 1.387 . S
C9349 C9351 1.390 . S
C9349 H9353 0.950 . S
H9350 C9346 0.950 . S
C9351 C9349 1.390 . S
C9351 C9352 1.387 . S
C9351 H9354 0.950 . S
C9352 C9351 1.387 . S
C9352 C9355 1.387 . S
H9353 C9349 0.950 . S
H9354 C9351 0.950 . S
C9355 C9346 1.390 . S
C9355 H9348 0.950 . S
C9355 C9352 1.387 . S
C9356 C9357 1.387 . S
C9356 H9360 0.950 . S
C9356 C9365 1.390 . S
C9357 C9356 1.387 . S
C9357 C9359 1.387 . S
H9358 C9365 0.950 . S
C9359 C9357 1.387 . S
C9359 C9361 1.390 . S
C9359 H9363 0.950 . S
H9360 C9356 0.950 . S
C9361 C9359 1.390 . S
C9361 C9362 1.387 . S
C9361 H9364 0.950 . S
C9362 C9361 1.387 . S
C9362 C9365 1.387 . S
H9363 C9359 0.950 . S
H9364 C9361 0.950 . S
C9365 C9356 1.390 . S
C9365 H9358 0.950 . S
C9365 C9362 1.387 . S
C9366 C9367 1.387 . S
C9366 H9370 0.950 . S
C9366 C9375 1.390 . S
C9367 C9366 1.387 . S
C9367 C9369 1.387 . S
H9368 C9375 0.950 . S
C9369 C9367 1.387 . S
C9369 C9371 1.390 . S
C9369 H9373 0.950 . S
H9370 C9366 0.950 . S
C9371 C9369 1.390 . S
C9371 C9372 1.387 . S
C9371 H9374 0.950 . S
C9372 C9371 1.387 . S
C9372 C9375 1.387 . S
H9373 C9369 0.950 . S
H9374 C9371 0.950 . S
C9375 C9366 1.390 . S
C9375 H9368 0.950 . S
C9375 C9372 1.387 . S
C9376 C9377 1.387 . S
C9376 H9380 0.950 . S
C9376 C9385 1.390 . S
C9377 C9376 1.387 . S
C9377 C9379 1.387 . S
H9378 C9385 0.950 . S
C9379 C9377 1.387 . S
C9379 C9381 1.390 . S
C9379 H9383 0.950 . S
H9380 C9376 0.950 . S
C9381 C9379 1.390 . S
C9381 C9382 1.387 . S
C9381 H9384 0.950 . S
C9382 C9381 1.387 . S
C9382 C9385 1.387 . S
H9383 C9379 0.950 . S
H9384 C9381 0.950 . S
C9385 C9376 1.390 . S
C9385 H9378 0.950 . S
C9385 C9382 1.387 . S
C9386 C9387 1.387 . S
C9386 H9390 0.950 . S
C9386 C9395 1.390 . S
C9387 C9386 1.387 . S
C9387 C9389 1.387 . S
H9388 C9395 0.950 . S
C9389 C9387 1.387 . S
C9389 C9391 1.390 . S
C9389 H9393 0.950 . S
H9390 C9386 0.950 . S
C9391 C9389 1.390 . S
C9391 C9392 1.387 . S
C9391 H9394 0.950 . S
C9392 C9391 1.387 . S
C9392 C9395 1.387 . S
H9393 C9389 0.950 . S
H9394 C9391 0.950 . S
C9395 C9386 1.390 . S
C9395 H9388 0.950 . S
C9395 C9392 1.387 . S
C9396 C9397 1.387 . S
C9396 H9400 0.950 . S
C9396 C9405 1.390 . S
C9397 C9396 1.387 . S
C9397 C9399 1.387 . S
H9398 C9405 0.950 . S
C9399 C9397 1.387 . S
C9399 C9401 1.390 . S
C9399 H9403 0.950 . S
H9400 C9396 0.950 . S
C9401 C9399 1.390 . S
C9401 C9402 1.387 . S
C9401 H9404 0.950 . S
C9402 C9401 1.387 . S
C9402 C9405 1.387 . S
H9403 C9399 0.950 . S
H9404 C9401 0.950 . S
C9405 C9396 1.390 . S
C9405 H9398 0.950 . S
C9405 C9402 1.387 . S
C9406 C9407 1.387 . S
C9406 H9410 0.950 . S
C9406 C9415 1.390 . S
C9407 C9406 1.387 . S
C9407 C9409 1.387 . S
H9408 C9415 0.950 . S
C9409 C9407 1.387 . S
C9409 C9411 1.390 . S
C9409 H9413 0.950 . S
H9410 C9406 0.950 . S
C9411 C9409 1.390 . S
C9411 C9412 1.387 . S
C9411 H9414 0.950 . S
C9412 C9411 1.387 . S
C9412 C9415 1.387 . S
H9413 C9409 0.950 . S
H9414 C9411 0.950 . S
C9415 C9406 1.390 . S
C9415 H9408 0.950 . S
C9415 C9412 1.387 . S
C9416 C9417 1.387 . S
C9416 H9420 0.950 . S
C9416 C9425 1.390 . S
C9417 C9416 1.387 . S
C9417 C9419 1.387 . S
H9418 C9425 0.950 . S
C9419 C9417 1.387 . S
C9419 C9421 1.390 . S
C9419 H9423 0.950 . S
H9420 C9416 0.950 . S
C9421 C9419 1.390 . S
C9421 C9422 1.387 . S
C9421 H9424 0.950 . S
C9422 C9421 1.387 . S
C9422 C9425 1.387 . S
H9423 C9419 0.950 . S
H9424 C9421 0.950 . S
C9425 C9416 1.390 . S
C9425 H9418 0.950 . S
C9425 C9422 1.387 . S
C9426 C9427 1.387 . S
C9426 H9430 0.950 . S
C9426 C9435 1.390 . S
C9427 C9426 1.387 . S
C9427 C9429 1.387 . S
H9428 C9435 0.950 . S
C9429 C9427 1.387 . S
C9429 C9431 1.390 . S
C9429 H9433 0.950 . S
H9430 C9426 0.950 . S
C9431 C9429 1.390 . S
C9431 C9432 1.387 . S
C9431 H9434 0.950 . S
C9432 C9431 1.387 . S
C9432 C9435 1.387 . S
H9433 C9429 0.950 . S
H9434 C9431 0.950 . S
C9435 C9426 1.390 . S
C9435 H9428 0.950 . S
C9435 C9432 1.387 . S
C9436 C9437 1.387 . S
C9436 H9440 0.950 . S
C9436 C9445 1.390 . S
C9437 C9436 1.387 . S
C9437 C9439 1.387 . S
H9438 C9445 0.950 . S
C9439 C9437 1.387 . S
C9439 C9441 1.390 . S
C9439 H9443 0.950 . S
H9440 C9436 0.950 . S
C9441 C9439 1.390 . S
C9441 C9442 1.387 . S
C9441 H9444 0.950 . S
C9442 C9441 1.387 . S
C9442 C9445 1.387 . S
H9443 C9439 0.950 . S
H9444 C9441 0.950 . S
C9445 C9436 1.390 . S
C9445 H9438 0.950 . S
C9445 C9442 1.387 . S
C9446 C9447 1.387 . S
C9446 H9450 0.950 . S
C9446 C9455 1.390 . S
C9447 C9446 1.387 . S
C9447 C9449 1.387 . S
H9448 C9455 0.950 . S
C9449 C9447 1.387 . S
C9449 C9451 1.390 . S
C9449 H9453 0.950 . S
H9450 C9446 0.950 . S
C9451 C9449 1.390 . S
C9451 C9452 1.387 . S
C9451 H9454 0.950 . S
C9452 C9451 1.387 . S
C9452 C9455 1.387 . S
H9453 C9449 0.950 . S
H9454 C9451 0.950 . S
C9455 C9446 1.390 . S
C9455 H9448 0.950 . S
C9455 C9452 1.387 . S
C9456 C9457 1.387 . S
C9456 H9460 0.950 . S
C9456 C9465 1.390 . S
C9457 C9456 1.387 . S
C9457 C9459 1.387 . S
H9458 C9465 0.950 . S
C9459 C9457 1.387 . S
C9459 C9461 1.390 . S
C9459 H9463 0.950 . S
H9460 C9456 0.950 . S
C9461 C9459 1.390 . S
C9461 C9462 1.387 . S
C9461 H9464 0.950 . S
C9462 C9461 1.387 . S
C9462 C9465 1.387 . S
H9463 C9459 0.950 . S
H9464 C9461 0.950 . S
C9465 C9456 1.390 . S
C9465 H9458 0.950 . S
C9465 C9462 1.387 . S
C9466 C9467 1.387 . S
C9466 H9470 0.950 . S
C9466 C9475 1.390 . S
C9467 C9466 1.387 . S
C9467 C9469 1.387 . S
H9468 C9475 0.950 . S
C9469 C9467 1.387 . S
C9469 C9471 1.390 . S
C9469 H9473 0.950 . S
H9470 C9466 0.950 . S
C9471 C9469 1.390 . S
C9471 C9472 1.387 . S
C9471 H9474 0.950 . S
C9472 C9471 1.387 . S
C9472 C9475 1.387 . S
H9473 C9469 0.950 . S
H9474 C9471 0.950 . S
C9475 C9466 1.390 . S
C9475 H9468 0.950 . S
C9475 C9472 1.387 . S
C9476 C9477 1.387 . S
C9476 H9480 0.950 . S
C9476 C9485 1.390 . S
C9477 C9476 1.387 . S
C9477 C9479 1.387 . S
H9478 C9485 0.950 . S
C9479 C9477 1.387 . S
C9479 C9481 1.390 . S
C9479 H9483 0.950 . S
H9480 C9476 0.950 . S
C9481 C9479 1.390 . S
C9481 C9482 1.387 . S
C9481 H9484 0.950 . S
C9482 C9481 1.387 . S
C9482 C9485 1.387 . S
H9483 C9479 0.950 . S
H9484 C9481 0.950 . S
C9485 C9476 1.390 . S
C9485 H9478 0.950 . S
C9485 C9482 1.387 . S
C9486 C9487 1.387 . S
C9486 H9490 0.950 . S
C9486 C9495 1.390 . S
C9487 C9486 1.387 . S
C9487 C9489 1.387 . S
H9488 C9495 0.950 . S
C9489 C9487 1.387 . S
C9489 C9491 1.390 . S
C9489 H9493 0.950 . S
H9490 C9486 0.950 . S
C9491 C9489 1.390 . S
C9491 C9492 1.387 . S
C9491 H9494 0.950 . S
C9492 C9491 1.387 . S
C9492 C9495 1.387 . S
H9493 C9489 0.950 . S
H9494 C9491 0.950 . S
C9495 C9486 1.390 . S
C9495 H9488 0.950 . S
C9495 C9492 1.387 . S
C9496 C9497 1.387 . S
C9496 H9500 0.950 . S
C9496 C9505 1.390 . S
C9497 C9496 1.387 . S
C9497 C9499 1.387 . S
H9498 C9505 0.950 . S
C9499 C9497 1.387 . S
C9499 C9501 1.390 . S
C9499 H9503 0.950 . S
H9500 C9496 0.950 . S
C9501 C9499 1.390 . S
C9501 C9502 1.387 . S
C9501 H9504 0.950 . S
C9502 C9501 1.387 . S
C9502 C9505 1.387 . S
H9503 C9499 0.950 . S
H9504 C9501 0.950 . S
C9505 C9496 1.390 . S
C9505 H9498 0.950 . S
C9505 C9502 1.387 . S
C9506 C9507 1.387 . S
C9506 H9510 0.950 . S
C9506 C9515 1.390 . S
C9507 C9506 1.387 . S
C9507 C9509 1.387 . S
H9508 C9515 0.950 . S
C9509 C9507 1.387 . S
C9509 C9511 1.390 . S
C9509 H9513 0.950 . S
H9510 C9506 0.950 . S
C9511 C9509 1.390 . S
C9511 C9512 1.387 . S
C9511 H9514 0.950 . S
C9512 C9511 1.387 . S
C9512 C9515 1.387 . S
H9513 C9509 0.950 . S
H9514 C9511 0.950 . S
C9515 C9506 1.390 . S
C9515 H9508 0.950 . S
C9515 C9512 1.387 . S
C9516 C9517 1.387 . S
C9516 H9520 0.950 . S
C9516 C9525 1.390 . S
C9517 C9516 1.387 . S
C9517 C9519 1.387 . S
H9518 C9525 0.950 . S
C9519 C9517 1.387 . S
C9519 C9521 1.390 . S
C9519 H9523 0.950 . S
H9520 C9516 0.950 . S
C9521 C9519 1.390 . S
C9521 C9522 1.387 . S
C9521 H9524 0.950 . S
C9522 C9521 1.387 . S
C9522 C9525 1.387 . S
H9523 C9519 0.950 . S
H9524 C9521 0.950 . S
C9525 C9516 1.390 . S
C9525 H9518 0.950 . S
C9525 C9522 1.387 . S
C9526 C9527 1.387 . S
C9526 H9530 0.950 . S
C9526 C9535 1.390 . S
C9527 C9526 1.387 . S
C9527 C9529 1.387 . S
H9528 C9535 0.950 . S
C9529 C9527 1.387 . S
C9529 C9531 1.390 . S
C9529 H9533 0.950 . S
H9530 C9526 0.950 . S
C9531 C9529 1.390 . S
C9531 C9532 1.387 . S
C9531 H9534 0.950 . S
C9532 C9531 1.387 . S
C9532 C9535 1.387 . S
H9533 C9529 0.950 . S
H9534 C9531 0.950 . S
C9535 C9526 1.390 . S
C9535 H9528 0.950 . S
C9535 C9532 1.387 . S
C9536 C9537 1.387 . S
C9536 H9540 0.950 . S
C9536 C9545 1.390 . S
C9537 C9536 1.387 . S
C9537 C9539 1.387 . S
H9538 C9545 0.950 . S
C9539 C9537 1.387 . S
C9539 C9541 1.390 . S
C9539 H9543 0.950 . S
H9540 C9536 0.950 . S
C9541 C9539 1.390 . S
C9541 C9542 1.387 . S
C9541 H9544 0.950 . S
C9542 C9541 1.387 . S
C9542 C9545 1.387 . S
H9543 C9539 0.950 . S
H9544 C9541 0.950 . S
C9545 C9536 1.390 . S
C9545 H9538 0.950 . S
C9545 C9542 1.387 . S
C9546 C9547 1.387 . S
C9546 H9550 0.950 . S
C9546 C9555 1.390 . S
C9547 C9546 1.387 . S
C9547 C9549 1.387 . S
H9548 C9555 0.950 . S
C9549 C9547 1.387 . S
C9549 C9551 1.390 . S
C9549 H9553 0.950 . S
H9550 C9546 0.950 . S
C9551 C9549 1.390 . S
C9551 C9552 1.387 . S
C9551 H9554 0.950 . S
C9552 C9551 1.387 . S
C9552 C9555 1.387 . S
H9553 C9549 0.950 . S
H9554 C9551 0.950 . S
C9555 C9546 1.390 . S
C9555 H9548 0.950 . S
C9555 C9552 1.387 . S
C9556 C9557 1.387 . S
C9556 H9560 0.950 . S
C9556 C9565 1.390 . S
C9557 C9556 1.387 . S
C9557 C9559 1.387 . S
H9558 C9565 0.950 . S
C9559 C9557 1.387 . S
C9559 C9561 1.390 . S
C9559 H9563 0.950 . S
H9560 C9556 0.950 . S
C9561 C9559 1.390 . S
C9561 C9562 1.387 . S
C9561 H9564 0.950 . S
C9562 C9561 1.387 . S
C9562 C9565 1.387 . S
H9563 C9559 0.950 . S
H9564 C9561 0.950 . S
C9565 C9556 1.390 . S
C9565 H9558 0.950 . S
C9565 C9562 1.387 . S
C9566 C9567 1.387 . S
C9566 H9570 0.950 . S
C9566 C9575 1.390 . S
C9567 C9566 1.387 . S
C9567 C9569 1.387 . S
H9568 C9575 0.950 . S
C9569 C9567 1.387 . S
C9569 C9571 1.390 . S
C9569 H9573 0.950 . S
H9570 C9566 0.950 . S
C9571 C9569 1.390 . S
C9571 C9572 1.387 . S
C9571 H9574 0.950 . S
C9572 C9571 1.387 . S
C9572 C9575 1.387 . S
H9573 C9569 0.950 . S
H9574 C9571 0.950 . S
C9575 C9566 1.390 . S
C9575 H9568 0.950 . S
C9575 C9572 1.387 . S
C9576 C9577 1.387 . S
C9576 H9580 0.950 . S
C9576 C9585 1.390 . S
C9577 C9576 1.387 . S
C9577 C9579 1.387 . S
H9578 C9585 0.950 . S
C9579 C9577 1.387 . S
C9579 C9581 1.390 . S
C9579 H9583 0.950 . S
H9580 C9576 0.950 . S
C9581 C9579 1.390 . S
C9581 C9582 1.387 . S
C9581 H9584 0.950 . S
C9582 C9581 1.387 . S
C9582 C9585 1.387 . S
H9583 C9579 0.950 . S
H9584 C9581 0.950 . S
C9585 C9576 1.390 . S
C9585 H9578 0.950 . S
C9585 C9582 1.387 . S
C9586 C9587 1.387 . S
C9586 H9590 0.950 . S
C9586 C9595 1.390 . S
C9587 C9586 1.387 . S
C9587 C9589 1.387 . S
H9588 C9595 0.950 . S
C9589 C9587 1.387 . S
C9589 C9591 1.390 . S
C9589 H9593 0.950 . S
H9590 C9586 0.950 . S
C9591 C9589 1.390 . S
C9591 C9592 1.387 . S
C9591 H9594 0.950 . S
C9592 C9591 1.387 . S
C9592 C9595 1.387 . S
H9593 C9589 0.950 . S
H9594 C9591 0.950 . S
C9595 C9586 1.390 . S
C9595 H9588 0.950 . S
C9595 C9592 1.387 . S
C9596 C9597 1.387 . S
C9596 H9600 0.950 . S
C9596 C9605 1.390 . S
C9597 C9596 1.387 . S
C9597 C9599 1.387 . S
H9598 C9605 0.950 . S
C9599 C9597 1.387 . S
C9599 C9601 1.390 . S
C9599 H9603 0.950 . S
H9600 C9596 0.950 . S
C9601 C9599 1.390 . S
C9601 C9602 1.387 . S
C9601 H9604 0.950 . S
C9602 C9601 1.387 . S
C9602 C9605 1.387 . S
H9603 C9599 0.950 . S
H9604 C9601 0.950 . S
C9605 C9596 1.390 . S
C9605 H9598 0.950 . S
C9605 C9602 1.387 . S
C9606 C9607 1.387 . S
C9606 H9610 0.950 . S
C9606 C9615 1.390 . S
C9607 C9606 1.387 . S
C9607 C9609 1.387 . S
H9608 C9615 0.950 . S
C9609 C9607 1.387 . S
C9609 C9611 1.390 . S
C9609 H9613 0.950 . S
H9610 C9606 0.950 . S
C9611 C9609 1.390 . S
C9611 C9612 1.387 . S
C9611 H9614 0.950 . S
C9612 C9611 1.387 . S
C9612 C9615 1.387 . S
H9613 C9609 0.950 . S
H9614 C9611 0.950 . S
C9615 C9606 1.390 . S
C9615 H9608 0.950 . S
C9615 C9612 1.387 . S
C9616 C9617 1.387 . S
C9616 H9620 0.950 . S
C9616 C9625 1.390 . S
C9617 C9616 1.387 . S
C9617 C9619 1.387 . S
H9618 C9625 0.950 . S
C9619 C9617 1.387 . S
C9619 C9621 1.390 . S
C9619 H9623 0.950 . S
H9620 C9616 0.950 . S
C9621 C9619 1.390 . S
C9621 C9622 1.387 . S
C9621 H9624 0.950 . S
C9622 C9621 1.387 . S
C9622 C9625 1.387 . S
H9623 C9619 0.950 . S
H9624 C9621 0.950 . S
C9625 C9616 1.390 . S
C9625 H9618 0.950 . S
C9625 C9622 1.387 . S
C9626 C9627 1.387 . S
C9626 H9630 0.950 . S
C9626 C9635 1.390 . S
C9627 C9626 1.387 . S
C9627 C9629 1.387 . S
H9628 C9635 0.950 . S
C9629 C9627 1.387 . S
C9629 C9631 1.390 . S
C9629 H9633 0.950 . S
H9630 C9626 0.950 . S
C9631 C9629 1.390 . S
C9631 C9632 1.387 . S
C9631 H9634 0.950 . S
C9632 C9631 1.387 . S
C9632 C9635 1.387 . S
H9633 C9629 0.950 . S
H9634 C9631 0.950 . S
C9635 C9626 1.390 . S
C9635 H9628 0.950 . S
C9635 C9632 1.387 . S
C9636 C9637 1.387 . S
C9636 H9640 0.950 . S
C9636 C9645 1.390 . S
C9637 C9636 1.387 . S
C9637 C9639 1.387 . S
H9638 C9645 0.950 . S
C9639 C9637 1.387 . S
C9639 C9641 1.390 . S
C9639 H9643 0.950 . S
H9640 C9636 0.950 . S
C9641 C9639 1.390 . S
C9641 C9642 1.387 . S
C9641 H9644 0.950 . S
C9642 C9641 1.387 . S
C9642 C9645 1.387 . S
H9643 C9639 0.950 . S
H9644 C9641 0.950 . S
C9645 C9636 1.390 . S
C9645 H9638 0.950 . S
C9645 C9642 1.387 . S
C9646 C9647 1.387 . S
C9646 H9650 0.950 . S
C9646 C9655 1.390 . S
C9647 C9646 1.387 . S
C9647 C9649 1.387 . S
H9648 C9655 0.950 . S
C9649 C9647 1.387 . S
C9649 C9651 1.390 . S
C9649 H9653 0.950 . S
H9650 C9646 0.950 . S
C9651 C9649 1.390 . S
C9651 C9652 1.387 . S
C9651 H9654 0.950 . S
C9652 C9651 1.387 . S
C9652 C9655 1.387 . S
H9653 C9649 0.950 . S
H9654 C9651 0.950 . S
C9655 C9646 1.390 . S
C9655 H9648 0.950 . S
C9655 C9652 1.387 . S
C9656 C9657 1.387 . S
C9656 H9660 0.950 . S
C9656 C9665 1.390 . S
C9657 C9656 1.387 . S
C9657 C9659 1.387 . S
H9658 C9665 0.950 . S
C9659 C9657 1.387 . S
C9659 C9661 1.390 . S
C9659 H9663 0.950 . S
H9660 C9656 0.950 . S
C9661 C9659 1.390 . S
C9661 C9662 1.387 . S
C9661 H9664 0.950 . S
C9662 C9661 1.387 . S
C9662 C9665 1.387 . S
H9663 C9659 0.950 . S
H9664 C9661 0.950 . S
C9665 C9656 1.390 . S
C9665 H9658 0.950 . S
C9665 C9662 1.387 . S
C9666 C9667 1.387 . S
C9666 H9670 0.950 . S
C9666 C9675 1.390 . S
C9667 C9666 1.387 . S
C9667 C9669 1.387 . S
H9668 C9675 0.950 . S
C9669 C9667 1.387 . S
C9669 C9671 1.390 . S
C9669 H9673 0.950 . S
H9670 C9666 0.950 . S
C9671 C9669 1.390 . S
C9671 C9672 1.387 . S
C9671 H9674 0.950 . S
C9672 C9671 1.387 . S
C9672 C9675 1.387 . S
H9673 C9669 0.950 . S
H9674 C9671 0.950 . S
C9675 C9666 1.390 . S
C9675 H9668 0.950 . S
C9675 C9672 1.387 . S
C9676 C9677 1.387 . S
C9676 H9680 0.950 . S
C9676 C9685 1.390 . S
C9677 C9676 1.387 . S
C9677 C9679 1.387 . S
H9678 C9685 0.950 . S
C9679 C9677 1.387 . S
C9679 C9681 1.390 . S
C9679 H9683 0.950 . S
H9680 C9676 0.950 . S
C9681 C9679 1.390 . S
C9681 C9682 1.387 . S
C9681 H9684 0.950 . S
C9682 C9681 1.387 . S
C9682 C9685 1.387 . S
H9683 C9679 0.950 . S
H9684 C9681 0.950 . S
C9685 C9676 1.390 . S
C9685 H9678 0.950 . S
C9685 C9682 1.387 . S
C9686 C9687 1.387 . S
C9686 H9690 0.950 . S
C9686 C9695 1.390 . S
C9687 C9686 1.387 . S
C9687 C9689 1.387 . S
H9688 C9695 0.950 . S
C9689 C9687 1.387 . S
C9689 C9691 1.390 . S
C9689 H9693 0.950 . S
H9690 C9686 0.950 . S
C9691 C9689 1.390 . S
C9691 C9692 1.387 . S
C9691 H9694 0.950 . S
C9692 C9691 1.387 . S
C9692 C9695 1.387 . S
H9693 C9689 0.950 . S
H9694 C9691 0.950 . S
C9695 C9686 1.390 . S
C9695 H9688 0.950 . S
C9695 C9692 1.387 . S
C9696 C9697 1.387 . S
C9696 H9700 0.950 . S
C9696 C9705 1.390 . S
C9697 C9696 1.387 . S
C9697 C9699 1.387 . S
H9698 C9705 0.950 . S
C9699 C9697 1.387 . S
C9699 C9701 1.390 . S
C9699 H9703 0.950 . S
H9700 C9696 0.950 . S
C9701 C9699 1.390 . S
C9701 C9702 1.387 . S
C9701 H9704 0.950 . S
C9702 C9701 1.387 . S
C9702 C9705 1.387 . S
H9703 C9699 0.950 . S
H9704 C9701 0.950 . S
C9705 C9696 1.390 . S
C9705 H9698 0.950 . S
C9705 C9702 1.387 . S
C9706 C9707 1.387 . S
C9706 H9710 0.950 . S
C9706 C9715 1.390 . S
C9707 C9706 1.387 . S
C9707 C9709 1.387 . S
H9708 C9715 0.950 . S
C9709 C9707 1.387 . S
C9709 C9711 1.390 . S
C9709 H9713 0.950 . S
H9710 C9706 0.950 . S
C9711 C9709 1.390 . S
C9711 C9712 1.387 . S
C9711 H9714 0.950 . S
C9712 C9711 1.387 . S
C9712 C9715 1.387 . S
H9713 C9709 0.950 . S
H9714 C9711 0.950 . S
C9715 C9706 1.390 . S
C9715 H9708 0.950 . S
C9715 C9712 1.387 . S
C9716 C9717 1.387 . S
C9716 H9720 0.950 . S
C9716 C9725 1.390 . S
C9717 C9716 1.387 . S
C9717 C9719 1.387 . S
H9718 C9725 0.950 . S
C9719 C9717 1.387 . S
C9719 C9721 1.390 . S
C9719 H9723 0.950 . S
H9720 C9716 0.950 . S
C9721 C9719 1.390 . S
C9721 C9722 1.387 . S
C9721 H9724 0.950 . S
C9722 C9721 1.387 . S
C9722 C9725 1.387 . S
H9723 C9719 0.950 . S
H9724 C9721 0.950 . S
C9725 C9716 1.390 . S
C9725 H9718 0.950 . S
C9725 C9722 1.387 . S
C9726 C9727 1.387 . S
C9726 H9730 0.950 . S
C9726 C9735 1.390 . S
C9727 C9726 1.387 . S
C9727 C9729 1.387 . S
H9728 C9735 0.950 . S
C9729 C9727 1.387 . S
C9729 C9731 1.390 . S
C9729 H9733 0.950 . S
H9730 C9726 0.950 . S
C9731 C9729 1.390 . S
C9731 C9732 1.387 . S
C9731 H9734 0.950 . S
C9732 C9731 1.387 . S
C9732 C9735 1.387 . S
H9733 C9729 0.950 . S
H9734 C9731 0.950 . S
C9735 C9726 1.390 . S
C9735 H9728 0.950 . S
C9735 C9732 1.387 . S
C9736 C9737 1.387 . S
C9736 H9740 0.950 . S
C9736 C9745 1.390 . S
C9737 C9736 1.387 . S
C9737 C9739 1.387 . S
H9738 C9745 0.950 . S
C9739 C9737 1.387 . S
C9739 C9741 1.390 . S
C9739 H9743 0.950 . S
H9740 C9736 0.950 . S
C9741 C9739 1.390 . S
C9741 C9742 1.387 . S
C9741 H9744 0.950 . S
C9742 C9741 1.387 . S
C9742 C9745 1.387 . S
H9743 C9739 0.950 . S
H9744 C9741 0.950 . S
C9745 C9736 1.390 . S
C9745 H9738 0.950 . S
C9745 C9742 1.387 . S
C9746 C9747 1.387 . S
C9746 H9750 0.950 . S
C9746 C9755 1.390 . S
C9747 C9746 1.387 . S
C9747 C9749 1.387 . S
H9748 C9755 0.950 . S
C9749 C9747 1.387 . S
C9749 C9751 1.390 . S
C9749 H9753 0.950 . S
H9750 C9746 0.950 . S
C9751 C9749 1.390 . S
C9751 C9752 1.387 . S
C9751 H9754 0.950 . S
C9752 C9751 1.387 . S
C9752 C9755 1.387 . S
H9753 C9749 0.950 . S
H9754 C9751 0.950 . S
C9755 C9746 1.390 . S
C9755 H9748 0.950 . S
C9755 C9752 1.387 . S
C9756 C9757 1.387 . S
C9756 H9760 0.950 . S
C9756 C9765 1.390 . S
C9757 C9756 1.387 . S
C9757 C9759 1.387 . S
H9758 C9765 0.950 . S
C9759 C9757 1.387 . S
C9759 C9761 1.390 . S
C9759 H9763 0.950 . S
H9760 C9756 0.950 . S
C9761 C9759 1.390 . S
C9761 C9762 1.387 . S
C9761 H9764 0.950 . S
C9762 C9761 1.387 . S
C9762 C9765 1.387 . S
H9763 C9759 0.950 . S
H9764 C9761 0.950 . S
C9765 C9756 1.390 . S
C9765 H9758 0.950 . S
C9765 C9762 1.387 . S
C9766 C9767 1.387 . S
C9766 H9770 0.950 . S
C9766 C9775 1.390 . S
C9767 C9766 1.387 . S
C9767 C9769 1.387 . S
H9768 C9775 0.950 . S
C9769 C9767 1.387 . S
C9769 C9771 1.390 . S
C9769 H9773 0.950 . S
H9770 C9766 0.950 . S
C9771 C9769 1.390 . S
C9771 C9772 1.387 . S
C9771 H9774 0.950 . S
C9772 C9771 1.387 . S
C9772 C9775 1.387 . S
H9773 C9769 0.950 . S
H9774 C9771 0.950 . S
C9775 C9766 1.390 . S
C9775 H9768 0.950 . S
C9775 C9772 1.387 . S
C9776 C9777 1.387 . S
C9776 H9780 0.950 . S
C9776 C9785 1.390 . S
C9777 C9776 1.387 . S
C9777 C9779 1.387 . S
H9778 C9785 0.950 . S
C9779 C9777 1.387 . S
C9779 C9781 1.390 . S
C9779 H9783 0.950 . S
H9780 C9776 0.950 . S
C9781 C9779 1.390 . S
C9781 C9782 1.387 . S
C9781 H9784 0.950 . S
C9782 C9781 1.387 . S
C9782 C9785 1.387 . S
H9783 C9779 0.950 . S
H9784 C9781 0.950 . S
C9785 C9776 1.390 . S
C9785 H9778 0.950 . S
C9785 C9782 1.387 . S
C9786 C9787 1.387 . S
C9786 H9790 0.950 . S
C9786 C9795 1.390 . S
C9787 C9786 1.387 . S
C9787 C9789 1.387 . S
H9788 C9795 0.950 . S
C9789 C9787 1.387 . S
C9789 C9791 1.390 . S
C9789 H9793 0.950 . S
H9790 C9786 0.950 . S
C9791 C9789 1.390 . S
C9791 C9792 1.387 . S
C9791 H9794 0.950 . S
C9792 C9791 1.387 . S
C9792 C9795 1.387 . S
H9793 C9789 0.950 . S
H9794 C9791 0.950 . S
C9795 C9786 1.390 . S
C9795 H9788 0.950 . S
C9795 C9792 1.387 . S
C9796 C9797 1.387 . S
C9796 H9800 0.950 . S
C9796 C9805 1.390 . S
C9797 C9796 1.387 . S
C9797 C9799 1.387 . S
H9798 C9805 0.950 . S
C9799 C9797 1.387 . S
C9799 C9801 1.390 . S
C9799 H9803 0.950 . S
H9800 C9796 0.950 . S
C9801 C9799 1.390 . S
C9801 C9802 1.387 . S
C9801 H9804 0.950 . S
C9802 C9801 1.387 . S
C9802 C9805 1.387 . S
H9803 C9799 0.950 . S
H9804 C9801 0.950 . S
C9805 C9796 1.390 . S
C9805 H9798 0.950 . S
C9805 C9802 1.387 . S
C9806 C9807 1.387 . S
C9806 H9810 0.950 . S
C9806 C9815 1.390 . S
C9807 C9806 1.387 . S
C9807 C9809 1.387 . S
H9808 C9815 0.950 . S
C9809 C9807 1.387 . S
C9809 C9811 1.390 . S
C9809 H9813 0.950 . S
H9810 C9806 0.950 . S
C9811 C9809 1.390 . S
C9811 C9812 1.387 . S
C9811 H9814 0.950 . S
C9812 C9811 1.387 . S
C9812 C9815 1.387 . S
H9813 C9809 0.950 . S
H9814 C9811 0.950 . S
C9815 C9806 1.390 . S
C9815 H9808 0.950 . S
C9815 C9812 1.387 . S
C9816 C9817 1.387 . S
C9816 H9820 0.950 . S
C9816 C9825 1.390 . S
C9817 C9816 1.387 . S
C9817 C9819 1.387 . S
H9818 C9825 0.950 . S
C9819 C9817 1.387 . S
C9819 C9821 1.390 . S
C9819 H9823 0.950 . S
H9820 C9816 0.950 . S
C9821 C9819 1.390 . S
C9821 C9822 1.387 . S
C9821 H9824 0.950 . S
C9822 C9821 1.387 . S
C9822 C9825 1.387 . S
H9823 C9819 0.950 . S
H9824 C9821 0.950 . S
C9825 C9816 1.390 . S
C9825 H9818 0.950 . S
C9825 C9822 1.387 . S
C9826 C9827 1.387 . S
C9826 H9830 0.950 . S
C9826 C9835 1.390 . S
C9827 C9826 1.387 . S
C9827 C9829 1.387 . S
H9828 C9835 0.950 . S
C9829 C9827 1.387 . S
C9829 C9831 1.390 . S
C9829 H9833 0.950 . S
H9830 C9826 0.950 . S
C9831 C9829 1.390 . S
C9831 C9832 1.387 . S
C9831 H9834 0.950 . S
C9832 C9831 1.387 . S
C9832 C9835 1.387 . S
H9833 C9829 0.950 . S
H9834 C9831 0.950 . S
C9835 C9826 1.390 . S
C9835 H9828 0.950 . S
C9835 C9832 1.387 . S
C9836 C9837 1.387 . S
C9836 H9840 0.950 . S
C9836 C9845 1.390 . S
C9837 C9836 1.387 . S
C9837 C9839 1.387 . S
H9838 C9845 0.950 . S
C9839 C9837 1.387 . S
C9839 C9841 1.390 . S
C9839 H9843 0.950 . S
H9840 C9836 0.950 . S
C9841 C9839 1.390 . S
C9841 C9842 1.387 . S
C9841 H9844 0.950 . S
C9842 C9841 1.387 . S
C9842 C9845 1.387 . S
H9843 C9839 0.950 . S
H9844 C9841 0.950 . S
C9845 C9836 1.390 . S
C9845 H9838 0.950 . S
C9845 C9842 1.387 . S
C9846 C9847 1.387 . S
C9846 H9850 0.950 . S
C9846 C9855 1.390 . S
C9847 C9846 1.387 . S
C9847 C9849 1.387 . S
H9848 C9855 0.950 . S
C9849 C9847 1.387 . S
C9849 C9851 1.390 . S
C9849 H9853 0.950 . S
H9850 C9846 0.950 . S
C9851 C9849 1.390 . S
C9851 C9852 1.387 . S
C9851 H9854 0.950 . S
C9852 C9851 1.387 . S
C9852 C9855 1.387 . S
H9853 C9849 0.950 . S
H9854 C9851 0.950 . S
C9855 C9846 1.390 . S
C9855 H9848 0.950 . S
C9855 C9852 1.387 . S
C9856 C9857 1.387 . S
C9856 H9860 0.950 . S
C9856 C9865 1.390 . S
C9857 C9856 1.387 . S
C9857 C9859 1.387 . S
H9858 C9865 0.950 . S
C9859 C9857 1.387 . S
C9859 C9861 1.390 . S
C9859 H9863 0.950 . S
H9860 C9856 0.950 . S
C9861 C9859 1.390 . S
C9861 C9862 1.387 . S
C9861 H9864 0.950 . S
C9862 C9861 1.387 . S
C9862 C9865 1.387 . S
H9863 C9859 0.950 . S
H9864 C9861 0.950 . S
C9865 C9856 1.390 . S
C9865 H9858 0.950 . S
C9865 C9862 1.387 . S
C9866 C9867 1.387 . S
C9866 H9870 0.950 . S
C9866 C9875 1.390 . S
C9867 C9866 1.387 . S
C9867 C9869 1.387 . S
H9868 C9875 0.950 . S
C9869 C9867 1.387 . S
C9869 C9871 1.390 . S
C9869 H9873 0.950 . S
H9870 C9866 0.950 . S
C9871 C9869 1.390 . S
C9871 C9872 1.387 . S
C9871 H9874 0.950 . S
C9872 C9871 1.387 . S
C9872 C9875 1.387 . S
H9873 C9869 0.950 . S
H9874 C9871 0.950 . S
C9875 C9866 1.390 . S
C9875 H9868 0.950 . S
C9875 C9872 1.387 . S
C9876 C9877 1.387 . S
C9876 H9880 0.950 . S
C9876 C9885 1.390 . S
C9877 C9876 1.387 . S
C9877 C9879 1.387 . S
H9878 C9885 0.950 . S
C9879 C9877 1.387 . S
C9879 C9881 1.390 . S
C9879 H9883 0.950 . S
H9880 C9876 0.950 . S
C9881 C9879 1.390 . S
C9881 C9882 1.387 . S
C9881 H9884 0.950 . S
C9882 C9881 1.387 . S
C9882 C9885 1.387 . S
H9883 C9879 0.950 . S
H9884 C9881 0.950 . S
C9885 C9876 1.390 . S
C9885 H9878 0.950 . S
C9885 C9882 1.387 . S
C9886 C9887 1.387 . S
C9886 H9890 0.950 . S
C9886 C9895 1.390 . S
C9887 C9886 1.387 . S
C9887 C9889 1.387 . S
H9888 C9895 0.950 . S
C9889 C9887 1.387 . S
C9889 C9891 1.390 . S
C9889 H9893 0.950 . S
H9890 C9886 0.950 . S
C9891 C9889 1.390 . S
C9891 C9892 1.387 . S
C9891 H9894 0.950 . S
C9892 C9891 1.387 . S
C9892 C9895 1.387 . S
H9893 C9889 0.950 . S
H9894 C9891 0.950 . S
C9895 C9886 1.390 . S
C9895 H9888 0.950 . S
C9895 C9892 1.387 . S
C9896 C9897 1.387 . S
C9896 H9900 0.950 . S
C9896 C9905 1.390 . S
C9897 C9896 1.387 . S
C9897 C9899 1.387 . S
H9898 C9905 0.950 . S
C9899 C9897 1.387 . S
C9899 C9901 1.390 . S
C9899 H9903 0.950 . S
H9900 C9896 0.950 . S
C9901 C9899 1.390 . S
C9901 C9902 1.387 . S
C9901 H9904 0.950 . S
C9902 C9901 1.387 . S
C9902 C9905 1.387 . S
H9903 C9899 0.950 . S
H9904 C9901 0.950 . S
C9905 C9896 1.390 . S
C9905 H9898 0.950 . S
C9905 C9902 1.387 . S
C9906 C9907 1.387 . S
C9906 H9910 0.950 . S
C9906 C9915 1.390 . S
C9907 C9906 1.387 . S
C9907 C9909 1.387 . S
H9908 C9915 0.950 . S
C9909 C9907 1.387 . S
C9909 C9911 1.390 . S
C9909 H9913 0.950 . S
H9910 C9906 0.950 . S
C9911 C9909 1.390 . S
C9911 C9912 1.387 . S
C9911 H9914 0.950 . S
C9912 C9911 1.387 . S
C9912 C9915 1.387 . S
H9913 C9909 0.950 . S
H9914 C9911 0.950 . S
C9915 C9906 1.390 . S
C9915 H9908 0.950 . S
C9915 C9912 1.387 . S
C9916 C9917 1.387 . S
C9916 H9920 0.950 . S
C9916 C9925 1.390 . S
C9917 C9916 1.387 . S
C9917 C9919 1.387 . S
H9918 C9925 0.950 . S
C9919 C9917 1.387 . S
C9919 C9921 1.390 . S
C9919 H9923 0.950 . S
H9920 C9916 0.950 . S
C9921 C9919 1.390 . S
C9921 C9922 1.387 . S
C9921 H9924 0.950 . S
C9922 C9921 1.387 . S
C9922 C9925 1.387 . S
H9923 C9919 0.950 . S
H9924 C9921 0.950 . S
C9925 C9916 1.390 . S
C9925 H9918 0.950 . S
C9925 C9922 1.387 . S
C9926 C9927 1.387 . S
C9926 H9930 0.950 . S
C9926 C9935 1.390 . S
C9927 C9926 1.387 . S
C9927 C9929 1.387 . S
H9928 C9935 0.950 . S
C9929 C9927 1.387 . S
C9929 C9931 1.390 . S
C9929 H9933 0.950 . S
H9930 C9926 0.950 . S
C9931 C9929 1.390 . S
C9931 C9932 1.387 . S
C9931 H9934 0.950 . S
C9932 C9931 1.387 . S
C9932 C9935 1.387 . S
H9933 C9929 0.950 . S
H9934 C9931 0.950 . S
C9935 C9926 1.390 . S
C9935 H9928 0.950 . S
C9935 C9932 1.387 . S
C9936 C9937 1.387 . S
C9936 H9940 0.950 . S
C9936 C9945 1.390 . S
C9937 C9936 1.387 . S
C9937 C9939 1.387 . S
H9938 C9945 0.950 . S
C9939 C9937 1.387 . S
C9939 C9941 1.390 . S
C9939 H9943 0.950 . S
H9940 C9936 0.950 . S
C9941 C9939 1.390 . S
C9941 C9942 1.387 . S
C9941 H9944 0.950 . S
C9942 C9941 1.387 . S
C9942 C9945 1.387 . S
H9943 C9939 0.950 . S
H9944 C9941 0.950 . S
C9945 C9936 1.390 . S
C9945 H9938 0.950 . S
C9945 C9942 1.387 . S
C9946 C9947 1.387 . S
C9946 H9950 0.950 . S
C9946 C9955 1.390 . S
C9947 C9946 1.387 . S
C9947 C9949 1.387 . S
H9948 C9955 0.950 . S
C9949 C9947 1.387 . S
C9949 C9951 1.390 . S
C9949 H9953 0.950 . S
H9950 C9946 0.950 . S
C9951 C9949 1.390 . S
C9951 C9952 1.387 . S
C9951 H9954 0.950 . S
C9952 C9951 1.387 . S
C9952 C9955 1.387 . S
H9953 C9949 0.950 . S
H9954 C9951 0.950 . S
C9955 C9946 1.390 . S
C9955 H9948 0.950 . S
C9955 C9952 1.387 . S
C9956 C9957 1.387 . S
C9956 H9960 0.950 . S
C9956 C9965 1.390 . S
C9957 C9956 1.387 . S
C9957 C9959 1.387 . S
H9958 C9965 0.950 . S
C9959 C9957 1.387 . S
C9959 C9961 1.390 . S
C9959 H9963 0.950 . S
H9960 C9956 0.950 . S
C9961 C9959 1.390 . S
C9961 C9962 1.387 . S
C9961 H9964 0.950 . S
C9962 C9961 1.387 . S
C9962 C9965 1.387 . S
H9963 C9959 0.950 . S
H9964 C9961 0.950 . S
C9965 C9956 1.390 . S
C9965 H9958 0.950 . S
C9965 C9962 1.387 . S
C9966 C9967 1.387 . S
C9966 H9970 0.950 . S
C9966 C9975 1.390 . S
C9967 C9966 1.387 . S
C9967 C9969 1.387 . S
H9968 C9975 0.950 . S
C9969 C9967 1.387 . S
C9969 C9971 1.390 . S
C9969 H9973 0.950 . S
H9970 C9966 0.950 . S
C9971 C9969 1.390 . S
C9971 C9972 1.387 . S
C9971 H9974 0.950 . S
C9972 C9971 1.387 . S
C9972 C9975 1.387 . S
H9973 C9969 0.950 . S
H9974 C9971 0.950 . S
C9975 C9966 1.390 . S
C9975 H9968 0.950 . S
C9975 C9972 1.387 . S
C9976 C9977 1.387 . S
C9976 H9980 0.950 . S
C9976 C9985 1.390 . S
C9977 C9976 1.387 . S
C9977 C9979 1.387 . S
H9978 C9985 0.950 . S
C9979 C9977 1.387 . S
C9979 C9981 1.390 . S
C9979 H9983 0.950 . S
H9980 C9976 0.950 . S
C9981 C9979 1.390 . S
C9981 C9982 1.387 . S
C9981 H9984 0.950 . S
C9982 C9981 1.387 . S
C9982 C9985 1.387 . S
H9983 C9979 0.950 . S
H9984 C9981 0.950 . S
C9985 C9976 1.390 . S
C9985 H9978 0.950 . S
C9985 C9982 1.387 . S
C9986 C9987 1.387 . S
C9986 H9990 0.950 . S
C9986 C9995 1.390 . S
C9987 C9986 1.387 . S
C9987 C9989 1.387 . S
H9988 C9995 0.950 . S
C9989 C9987 1.387 . S
C9989 C9991 1.390 . S
C9989 H9993 0.950 . S
H9990 C9986 0.950 . S
C9991 C9989 1.390 . S
C9991 C9992 1.387 . S
C9991 H9994 0.950 . S
C9992 C9991 1.387 . S
C9992 C9995 1.387 . S
H9993 C9989 0.950 . S
H9994 C9991 0.950 . S
C9995 C9986 1.390 . S
C9995 H9988 0.950 . S
C9995 C9992 1.387 . S
C9996 C9997 1.387 . S
C9996 H10000 0.950 . S
C9996 C10005 1.390 . S
C9997 C9996 1.387 . S
C9997 C9999 1.387 . S
H9998 C10005 0.950 . S
C9999 C9997 1.387 . S
C9999 C10001 1.390 . S
C9999 H10003 0.950 . S
H10000 C9996 0.950 . S
C10001 C9999 1.390 . S
C10001 C10002 1.387 . S
C10001 H10004 0.950 . S
C10002 C10001 1.387 . S
C10002 C10005 1.387 . S
H10003 C9999 0.950 . S
H10004 C10001 0.950 . S
C10005 C9996 1.390 . S
C10005 H9998 0.950 . S
C10005 C10002 1.387 . S
C10006 C10007 1.387 . S
C10006 H10010 0.950 . S
C10006 C10015 1.390 . S
C10007 C10006 1.387 . S
C10007 C10009 1.387 . S
H10008 C10015 0.950 . S
C10009 C10007 1.387 . S
C10009 C10011 1.390 . S
C10009 H10013 0.950 . S
H10010 C10006 0.950 . S
C10011 C10009 1.390 . S
C10011 C10012 1.387 . S
C10011 H10014 0.950 . S
C10012 C10011 1.387 . S
C10012 C10015 1.387 . S
H10013 C10009 0.950 . S
H10014 C10011 0.950 . S
C10015 C10006 1.390 . S
C10015 H10008 0.950 . S
C10015 C10012 1.387 . S
C10016 C10017 1.387 . S
C10016 H10020 0.950 . S
C10016 C10025 1.390 . S
C10017 C10016 1.387 . S
C10017 C10019 1.387 . S
H10018 C10025 0.950 . S
C10019 C10017 1.387 . S
C10019 C10021 1.390 . S
C10019 H10023 0.950 . S
H10020 C10016 0.950 . S
C10021 C10019 1.390 . S
C10021 C10022 1.387 . S
C10021 H10024 0.950 . S
C10022 C10021 1.387 . S
C10022 C10025 1.387 . S
H10023 C10019 0.950 . S
H10024 C10021 0.950 . S
C10025 C10016 1.390 . S
C10025 H10018 0.950 . S
C10025 C10022 1.387 . S
C10026 C10027 1.387 . S
C10026 H10030 0.950 . S
C10026 C10035 1.390 . S
C10027 C10026 1.387 . S
C10027 C10029 1.387 . S
H10028 C10035 0.950 . S
C10029 C10027 1.387 . S
C10029 C10031 1.390 . S
C10029 H10033 0.950 . S
H10030 C10026 0.950 . S
C10031 C10029 1.390 . S
C10031 C10032 1.387 . S
C10031 H10034 0.950 . S
C10032 C10031 1.387 . S
C10032 C10035 1.387 . S
H10033 C10029 0.950 . S
H10034 C10031 0.950 . S
C10035 C10026 1.390 . S
C10035 H10028 0.950 . S
C10035 C10032 1.387 . S
C10036 C10037 1.387 . S
C10036 H10040 0.950 . S
C10036 C10045 1.390 . S
C10037 C10036 1.387 . S
C10037 C10039 1.387 . S
H10038 C10045 0.950 . S
C10039 C10037 1.387 . S
C10039 C10041 1.390 . S
C10039 H10043 0.950 . S
H10040 C10036 0.950 . S
C10041 C10039 1.390 . S
C10041 C10042 1.387 . S
C10041 H10044 0.950 . S
C10042 C10041 1.387 . S
C10042 C10045 1.387 . S
H10043 C10039 0.950 . S
H10044 C10041 0.950 . S
C10045 C10036 1.390 . S
C10045 H10038 0.950 . S
C10045 C10042 1.387 . S
C10046 C10047 1.387 . S
C10046 H10050 0.950 . S
C10046 C10055 1.390 . S
C10047 C10046 1.387 . S
C10047 C10049 1.387 . S
H10048 C10055 0.950 . S
C10049 C10047 1.387 . S
C10049 C10051 1.390 . S
C10049 H10053 0.950 . S
H10050 C10046 0.950 . S
C10051 C10049 1.390 . S
C10051 C10052 1.387 . S
C10051 H10054 0.950 . S
C10052 C10051 1.387 . S
C10052 C10055 1.387 . S
H10053 C10049 0.950 . S
H10054 C10051 0.950 . S
C10055 C10046 1.390 . S
C10055 H10048 0.950 . S
C10055 C10052 1.387 . S
C10056 C10057 1.387 . S
C10056 H10060 0.950 . S
C10056 C10065 1.390 . S
C10057 C10056 1.387 . S
C10057 C10059 1.387 . S
H10058 C10065 0.950 . S
C10059 C10057 1.387 . S
C10059 C10061 1.390 . S
C10059 H10063 0.950 . S
H10060 C10056 0.950 . S
C10061 C10059 1.390 . S
C10061 C10062 1.387 . S
C10061 H10064 0.950 . S
C10062 C10061 1.387 . S
C10062 C10065 1.387 . S
H10063 C10059 0.950 . S
H10064 C10061 0.950 . S
C10065 C10056 1.390 . S
C10065 H10058 0.950 . S
C10065 C10062 1.387 . S
C10066 C10067 1.387 . S
C10066 H10070 0.950 . S
C10066 C10075 1.390 . S
C10067 C10066 1.387 . S
C10067 C10069 1.387 . S
H10068 C10075 0.950 . S
C10069 C10067 1.387 . S
C10069 C10071 1.390 . S
C10069 H10073 0.950 . S
H10070 C10066 0.950 . S
C10071 C10069 1.390 . S
C10071 C10072 1.387 . S
C10071 H10074 0.950 . S
C10072 C10071 1.387 . S
C10072 C10075 1.387 . S
H10073 C10069 0.950 . S
H10074 C10071 0.950 . S
C10075 C10066 1.390 . S
C10075 H10068 0.950 . S
C10075 C10072 1.387 . S
C10076 C10077 1.387 . S
C10076 H10080 0.950 . S
C10076 C10085 1.390 . S
C10077 C10076 1.387 . S
C10077 C10079 1.387 . S
H10078 C10085 0.950 . S
C10079 C10077 1.387 . S
C10079 C10081 1.390 . S
C10079 H10083 0.950 . S
H10080 C10076 0.950 . S
C10081 C10079 1.390 . S
C10081 C10082 1.387 . S
C10081 H10084 0.950 . S
C10082 C10081 1.387 . S
C10082 C10085 1.387 . S
H10083 C10079 0.950 . S
H10084 C10081 0.950 . S
C10085 C10076 1.390 . S
C10085 H10078 0.950 . S
C10085 C10082 1.387 . S
C10086 C10087 1.387 . S
C10086 H10090 0.950 . S
C10086 C10095 1.390 . S
C10087 C10086 1.387 . S
C10087 C10089 1.387 . S
H10088 C10095 0.950 . S
C10089 C10087 1.387 . S
C10089 C10091 1.390 . S
C10089 H10093 0.950 . S
H10090 C10086 0.950 . S
C10091 C10089 1.390 . S
C10091 C10092 1.387 . S
C10091 H10094 0.950 . S
C10092 C10091 1.387 . S
C10092 C10095 1.387 . S
H10093 C10089 0.950 . S
H10094 C10091 0.950 . S
C10095 C10086 1.390 . S
C10095 H10088 0.950 . S
C10095 C10092 1.387 . S
C10096 C10097 1.387 . S
C10096 H10100 0.950 . S
C10096 C10105 1.390 . S
C10097 C10096 1.387 . S
C10097 C10099 1.387 . S
H10098 C10105 0.950 . S
C10099 C10097 1.387 . S
C10099 C10101 1.390 . S
C10099 H10103 0.950 . S
H10100 C10096 0.950 . S
C10101 C10099 1.390 . S
C10101 C10102 1.387 . S
C10101 H10104 0.950 . S
C10102 C10101 1.387 . S
C10102 C10105 1.387 . S
H10103 C10099 0.950 . S
H10104 C10101 0.950 . S
C10105 C10096 1.390 . S
C10105 H10098 0.950 . S
C10105 C10102 1.387 . S
C10106 C10107 1.387 . S
C10106 H10110 0.950 . S
C10106 C10115 1.390 . S
C10107 C10106 1.387 . S
C10107 C10109 1.387 . S
H10108 C10115 0.950 . S
C10109 C10107 1.387 . S
C10109 C10111 1.390 . S
C10109 H10113 0.950 . S
H10110 C10106 0.950 . S
C10111 C10109 1.390 . S
C10111 C10112 1.387 . S
C10111 H10114 0.950 . S
C10112 C10111 1.387 . S
C10112 C10115 1.387 . S
H10113 C10109 0.950 . S
H10114 C10111 0.950 . S
C10115 C10106 1.390 . S
C10115 H10108 0.950 . S
C10115 C10112 1.387 . S
C10116 C10117 1.387 . S
C10116 H10120 0.950 . S
C10116 C10125 1.390 . S
C10117 C10116 1.387 . S
C10117 C10119 1.387 . S
H10118 C10125 0.950 . S
C10119 C10117 1.387 . S
C10119 C10121 1.390 . S
C10119 H10123 0.950 . S
H10120 C10116 0.950 . S
C10121 C10119 1.390 . S
C10121 C10122 1.387 . S
C10121 H10124 0.950 . S
C10122 C10121 1.387 . S
C10122 C10125 1.387 . S
H10123 C10119 0.950 . S
H10124 C10121 0.950 . S
C10125 C10116 1.390 . S
C10125 H10118 0.950 . S
C10125 C10122 1.387 . S
C10126 C10127 1.387 . S
C10126 H10130 0.950 . S
C10126 C10135 1.390 . S
C10127 C10126 1.387 . S
C10127 C10129 1.387 . S
H10128 C10135 0.950 . S
C10129 C10127 1.387 . S
C10129 C10131 1.390 . S
C10129 H10133 0.950 . S
H10130 C10126 0.950 . S
C10131 C10129 1.390 . S
C10131 C10132 1.387 . S
C10131 H10134 0.950 . S
C10132 C10131 1.387 . S
C10132 C10135 1.387 . S
H10133 C10129 0.950 . S
H10134 C10131 0.950 . S
C10135 C10126 1.390 . S
C10135 H10128 0.950 . S
C10135 C10132 1.387 . S
C10136 C10137 1.387 . S
C10136 H10140 0.950 . S
C10136 C10145 1.390 . S
C10137 C10136 1.387 . S
C10137 C10139 1.387 . S
H10138 C10145 0.950 . S
C10139 C10137 1.387 . S
C10139 C10141 1.390 . S
C10139 H10143 0.950 . S
H10140 C10136 0.950 . S
C10141 C10139 1.390 . S
C10141 C10142 1.387 . S
C10141 H10144 0.950 . S
C10142 C10141 1.387 . S
C10142 C10145 1.387 . S
H10143 C10139 0.950 . S
H10144 C10141 0.950 . S
C10145 C10136 1.390 . S
C10145 H10138 0.950 . S
C10145 C10142 1.387 . S
C10146 C10147 1.387 . S
C10146 H10150 0.950 . S
C10146 C10155 1.390 . S
C10147 C10146 1.387 . S
C10147 C10149 1.387 . S
H10148 C10155 0.950 . S
C10149 C10147 1.387 . S
C10149 C10151 1.390 . S
C10149 H10153 0.950 . S
H10150 C10146 0.950 . S
C10151 C10149 1.390 . S
C10151 C10152 1.387 . S
C10151 H10154 0.950 . S
C10152 C10151 1.387 . S
C10152 C10155 1.387 . S
H10153 C10149 0.950 . S
H10154 C10151 0.950 . S
C10155 C10146 1.390 . S
C10155 H10148 0.950 . S
C10155 C10152 1.387 . S
C10156 C10157 1.387 . S
C10156 H10160 0.950 . S
C10156 C10165 1.390 . S
C10157 C10156 1.387 . S
C10157 C10159 1.387 . S
H10158 C10165 0.950 . S
C10159 C10157 1.387 . S
C10159 C10161 1.390 . S
C10159 H10163 0.950 . S
H10160 C10156 0.950 . S
C10161 C10159 1.390 . S
C10161 C10162 1.387 . S
C10161 H10164 0.950 . S
C10162 C10161 1.387 . S
C10162 C10165 1.387 . S
H10163 C10159 0.950 . S
H10164 C10161 0.950 . S
C10165 C10156 1.390 . S
C10165 H10158 0.950 . S
C10165 C10162 1.387 . S
C10166 C10167 1.387 . S
C10166 H10170 0.950 . S
C10166 C10175 1.390 . S
C10167 C10166 1.387 . S
C10167 C10169 1.387 . S
H10168 C10175 0.950 . S
C10169 C10167 1.387 . S
C10169 C10171 1.390 . S
C10169 H10173 0.950 . S
H10170 C10166 0.950 . S
C10171 C10169 1.390 . S
C10171 C10172 1.387 . S
C10171 H10174 0.950 . S
C10172 C10171 1.387 . S
C10172 C10175 1.387 . S
H10173 C10169 0.950 . S
H10174 C10171 0.950 . S
C10175 C10166 1.390 . S
C10175 H10168 0.950 . S
C10175 C10172 1.387 . S
C7302 C4765 2.124 . S
C7297 C15 2.097 . S
C7312 C6529 2.092 . S
C7307 C55 2.238 . S
C7322 C4837 1.506 . S
C7317 C95 1.487 . S
C7332 C6457 2.090 . S
C7327 C135 2.102 . S
C7342 C4981 2.124 . S
C7337 C175 2.096 . S
C7347 C215 2.105 . S
C7352 C6601 2.093 . S
C7362 C4909 1.507 . S
C7357 C255 1.486 . S
C7372 C6673 2.092 . S
C7367 C295 2.238 . S
C7382 C7249 1.993 . S
C7377 C335 1.947 1_565 S
C7387 C375 1.487 . S
C7392 C7033 1.506 . S
C7402 C7285 2.089 . S
C7397 C415 2.086 . S
C7407 C455 2.093 . S
C7412 C7213 2.121 . S
C7422 C7105 1.991 . S
C7417 C495 1.944 1_545 S
C7432 C5413 2.121 . S
C7427 C535 2.093 . S
C7442 C5449 2.092 . S
C7437 C575 2.088 . S
C7447 C615 1.487 . S
C7452 C5341 1.507 . S
C7457 C655 2.105 . S
C7462 C6925 2.093 1_554 S
C7472 C5125 2.093 1_556 S
C7467 C695 2.105 . S
C7482 C6745 1.991 . S
C7477 C735 1.944 . S
C7492 C5053 2.092 . S
C7487 C775 2.237 . S
C7497 C815 2.086 . S
C7502 C5089 2.089 . S
C7512 C6997 2.091 . S
C7507 C855 2.237 . S
C7522 C6889 1.991 . S
C7517 C895 1.945 . S
C7527 C935 2.089 . S
C7532 C6961 2.091 . S
C7537 C975 1.646 . S
C7542 C3901 1.566 . S
C7547 C1015 1.556 . S
C7552 C5665 1.567 . S
C7562 C3973 1.505 . S
C7557 C1055 1.580 . S
C7567 C1095 1.947 . S
C7572 C5593 1.988 . S
C7582 C4117 1.563 . S
C7577 C1135 1.643 . S
C7587 C1175 1.945 . S
C7592 C5737 1.987 . S
C7602 C4045 1.503 . S
C7597 C1215 1.578 . S
C7612 C5809 1.566 . S
C7607 C1255 1.558 . S
C7617 C1295 2.284 . S
C7622 C6385 2.203 1_565 S
C7632 C6169 1.505 . S
C7627 C1335 1.581 . S
C7637 C1375 2.319 . S
C7642 C6421 2.356 . S
C7652 C6349 1.563 . S
C7647 C1415 1.643 . S
C7662 C6241 2.204 1_545 S
C7657 C1455 2.286 . S
C7667 C1495 1.646 . S
C7672 C4549 1.566 . S
C7677 C1535 2.322 . S
C7682 C4585 2.358 . S
C7692 C4477 1.502 . S
C7687 C1575 1.578 . S
C7697 C1615 1.947 1_554 S
C7702 C6061 1.989 . S
C7712 C4261 1.988 . S
C7707 C1655 1.947 1_556 S
C7717 C1695 2.284 . S
C7722 C5881 2.201 . S
C7732 C4189 1.568 . S
C7727 C1735 1.559 . S
C7737 C1775 2.319 . S
C7742 C4225 2.355 . S
C7752 C6133 1.567 . S
C7747 C1815 1.556 . S
C7762 C6025 2.204 . S
C7757 C1855 2.285 . S
C7772 C6097 2.355 . S
C7767 C1895 2.319 . S
C7777 C1935 2.093 . S
C7782 C6493 2.122 . S
C7792 C4801 2.094 . S
C7787 C1975 2.240 . S
C7802 C6565 1.506 . S
C7797 C2015 1.485 1_455 S
C7812 C4729 2.091 . S
C7807 C2055 2.103 . S
C7817 C2095 2.096 . S
C7822 C6709 2.124 . S
C7832 C4873 2.092 . S
C7827 C2135 2.104 . S
C7842 C6637 1.506 . S
C7837 C2175 1.485 1_455 S
C7852 C4945 2.090 . S
C7847 C2215 2.236 . S
C7857 C2255 1.944 . S
C7862 C5521 1.991 . S
C7872 C5305 1.506 . S
C7867 C2295 1.485 . S
C7882 C5557 2.089 . S
C7877 C2335 2.086 . S
C7887 C2375 2.093 . S
C7892 C5485 2.121 . S
C7897 C2415 1.944 . S
C7902 C5377 1.991 . S
C7907 C2455 2.096 . S
C7912 C7141 2.124 . S
C7917 C2495 2.089 . S
C7922 C7177 2.092 . S
C7932 C7069 1.507 . S
C7927 C2535 1.487 . S
C7937 C2575 2.104 . S
C7942 C5197 2.092 . S
C7952 C6853 2.092 . S
C7947 C2615 2.104 . S
C7962 C5017 1.993 . S
C7957 C2655 1.946 . S
C7972 C6781 2.092 . S
C7967 C2695 2.239 . S
C7977 C2735 2.085 . S
C7982 C6817 2.090 . S
C7987 C2775 2.237 . S
C7992 C5269 2.092 . S
C8002 C5161 1.991 . S
C7997 C2815 1.944 . S
C8007 C2855 2.088 . S
C8012 C5233 2.092 . S
C8017 C2895 1.646 . S
C8022 C5629 1.566 . S
C8032 C3937 1.567 . S
C8027 C2935 1.556 . S
C8042 C5701 1.505 . S
C8037 C2975 1.580 . S
C8047 C3015 1.945 . S
C8052 C3865 1.987 . S
C8062 C5845 1.563 . S
C8057 C3055 1.643 . S
C8072 C4009 1.989 . S
C8067 C3095 1.947 . S
C8077 C3135 1.578 . S
C8082 C5773 1.502 . S
C8087 C3175 1.559 . S
C8092 C4081 1.567 . S
C8102 C4657 2.203 . S
C8097 C3215 2.285 . S
C8107 C3255 1.578 . S
C8112 C4441 1.502 . S
C8122 C4693 2.357 . S
C8117 C3295 2.320 . S
C8132 C4621 1.564 . S
C8127 C3335 1.645 . S
C8137 C3375 2.285 . S
C8142 C4513 2.202 . S
C8147 C3415 1.643 . S
C8152 C6277 1.563 . S
C8162 C6313 2.356 . S
C8157 C3455 2.320 . S
C8167 C3495 1.578 . S
C8172 C6205 1.502 . S
C8182 C4333 1.988 . S
C8177 C3535 1.947 . S
C8192 C5989 1.987 . S
C8187 C3575 1.945 . S
C8197 C3615 2.286 . S
C8202 C4153 2.204 . S
C8207 C3655 1.591 . S
C8212 C5917 1.566 . S
C8217 C3695 2.322 . S
C8222 C5953 2.358 . S
C8227 C3735 1.589 . S
C8232 C4405 1.567 . S
C8237 C3775 2.283 . S
C8242 C4297 2.201 . S
C8252 C4369 2.355 . S
C8247 C3815 2.319 . S
C8262 C4165 1.769 . S
C8257 C2 1.775 . S
C8272 C4231 1.902 . S
C8267 C42 1.920 . S
C8277 C82 1.961 . S
C8282 C4267 2.100 . S
C8287 C122 1.868 . S
C8292 C4129 1.811 . S
C8297 C162 1.776 . S
C8302 C4381 1.768 . S
C8312 C4273 1.813 . S
C8307 C202 1.869 . S
C8322 C4339 2.098 . S
C8317 C242 1.960 . S
C8327 C282 1.920 . S
C8332 C4375 1.903 . S
C8337 C322 1.971 . S
C8342 C3949 2.062 . S
C8347 C362 1.960 . S
C8352 C3871 2.098 . S
C8357 C402 2.008 . S
C8362 C3877 2.109 . S
C8372 C3913 1.769 . S
C8367 C442 1.776 . S
C8377 C482 1.972 . S
C8382 C4021 2.064 . S
C8387 C522 1.775 . S
C8392 C4057 1.769 . S
C8397 C562 2.008 . S
C8402 C4093 2.109 . S
C8407 C602 1.959 . S
C8412 C4015 2.098 . S
C8422 C4489 1.811 . S
C8417 C642 1.868 . S
C8427 C682 1.868 . S
C8432 C6361 1.811 . S
C8442 C4417 2.065 . S
C8437 C722 1.975 . S
C8452 C6427 1.902 . S
C8447 C762 1.920 . S
C8457 C802 2.006 . S
C8462 C6325 2.110 . S
C8467 C842 1.920 . S
C8472 C6319 1.903 . S
C8482 C6181 2.063 . S
C8477 C882 1.973 . S
C8492 C6253 2.111 . S
C8487 C922 2.009 . S
C8502 C5059 1.933 . S
C8497 C962 2.113 . S
C8512 C5095 2.057 . S
C8507 C1002 2.196 . S
C8522 C5101 2.017 . S
C8517 C1042 2.109 . S
C8527 C1082 2.245 . S
C8532 C4993 2.224 . S
C8537 C1122 2.112 . S
C8542 C5275 1.930 . S
C8552 C5137 2.224 . S
C8547 C1162 2.244 . S
C8557 C1202 2.109 . S
C8562 C5173 2.019 . S
C8572 C5239 2.058 . S
C8567 C1242 2.195 . S
C8577 C1282 1.769 . S
C8582 C4813 1.865 . S
C8592 C4705 2.017 . S
C8587 C1322 2.108 . S
C8597 C1362 1.909 . S
C8602 C4741 1.990 . S
C8612 C4807 1.933 . S
C8607 C1402 2.113 . S
C8622 C4885 1.865 . S
C8617 C1442 1.769 . S
C8627 C1482 2.113 . S
C8632 C4951 1.934 . S
C8642 C4957 1.991 . S
C8637 C1522 1.910 . S
C8652 C4849 2.020 . S
C8647 C1562 2.110 . S
C8662 C5353 2.222 . S
C8657 C1602 2.243 . S
C8672 C7225 2.223 . S
C8667 C1642 2.245 . S
C8682 C5281 1.865 . S
C8677 C1682 1.769 . S
C8687 C1722 2.196 . S
C8692 C7291 2.058 . S
C8697 C1762 1.910 . S
C8702 C7189 1.991 . S
C8712 C7183 2.059 . S
C8707 C1802 2.195 . S
C8722 C7045 1.865 . S
C8717 C1842 1.769 . S
C8732 C7117 1.991 . S
C8727 C1882 1.910 . S
C8737 C1922 1.776 . S
C8742 C5893 1.768 . S
C8752 C5959 1.902 . S
C8747 C1962 1.920 . S
C8757 C2002 1.960 . S
C8762 C5995 2.098 . S
C8772 C5857 1.813 . S
C8767 C2042 1.868 . S
C8777 C2082 1.776 . S
C8782 C6109 1.769 . S
C8787 C2122 1.868 . S
C8792 C6001 1.813 . S
C8797 C2162 1.962 . S
C8802 C6067 2.100 . S
C8807 C2202 1.920 . S
C8812 C6103 1.903 . S
C8817 C2242 1.971 . S
C8822 C5677 2.062 . S
C8832 C5599 2.098 . S
C8827 C2282 1.961 . S
C8842 C5605 2.108 . S
C8837 C2322 2.005 . S
C8847 C2362 1.776 . S
C8852 C5641 1.768 . S
C8857 C2402 1.971 . S
C8862 C5749 2.062 . S
C8867 C2442 1.776 . S
C8872 C5785 1.768 . S
C8877 C2482 2.005 . S
C8882 C5821 2.108 . S
C8887 C2522 1.960 . S
C8892 C5743 2.098 . S
C8902 C6217 1.812 . S
C8897 C2562 1.868 . S
C8912 C4633 1.812 . S
C8907 C2602 1.868 . S
C8922 C6145 2.064 . S
C8917 C2642 1.972 . S
C8932 C4699 1.902 . S
C8927 C2682 1.920 . S
C8942 C4597 2.111 . S
C8937 C2722 2.008 . S
C8952 C4591 1.903 . S
C8947 C2762 1.920 . S
C8957 C2802 1.975 . S
C8962 C4453 2.065 . S
C8972 C4525 2.108 . S
C8967 C2842 2.005 . S
C8977 C2882 2.113 . S
C8982 C6787 1.933 . S
C8987 C2922 2.196 . S
C8992 C6823 2.057 . S
C9002 C6829 2.020 . S
C8997 C2962 2.110 . S
C9007 C3002 2.245 . S
C9012 C6721 2.224 . S
C9022 C7003 1.930 . S
C9017 C3042 2.112 . S
C9027 C3082 2.244 . S
C9032 C6865 2.222 . S
C9037 C3122 2.109 . S
C9042 C6901 2.019 . S
C9052 C6967 2.059 . S
C9047 C3162 2.197 . S
C9062 C6541 1.865 . S
C9057 C3202 1.770 . S
C9072 C6433 2.019 . S
C9067 C3242 2.109 . S
C9082 C6469 1.990 . S
C9077 C3282 1.909 . S
C9092 C6535 1.930 . S
C9087 C3322 2.112 . S
C9097 C3362 1.770 . S
C9102 C6613 1.865 . S
C9112 C6679 1.933 . S
C9107 C3402 2.113 . S
C9117 C3442 1.910 . S
C9122 C6685 1.991 . S
C9127 C3482 2.110 . S
C9132 C6577 2.020 . S
C9137 C3522 2.245 . S
C9142 C7081 2.224 . S
C9147 C3562 2.244 . S
C9152 C5497 2.223 . S
C9157 C3602 1.769 . S
C9162 C7009 1.865 . S
C9172 C5563 2.057 . S
C9167 C3642 2.196 . S
C9177 C3682 1.910 . S
C9182 C5461 1.991 . S
C9187 C3722 2.196 . S
C9192 C5455 2.059 . S
C9197 C3762 1.770 . S
C9202 C5317 1.865 . S
C9212 C5389 1.991 . S
C9207 C3802 1.909 . S
C9217 C21 1.959 . S
C9222 C3841 1.957 . S
C9227 C61 1.740 . S
C9232 C3907 1.710 . S
C9237 C101 1.765 . S
C9242 C3943 1.844 . S
C9252 C3979 1.599 . S
C9247 C141 1.645 . S
C9262 C3985 1.957 . S
C9257 C181 1.959 . S
C9267 C221 1.645 . S
C9272 C4051 1.600 . S
C9277 C261 1.765 . S
C9282 C4087 1.844 . S
C9287 C301 1.740 . S
C9292 C4123 1.711 . S
C9302 C4159 2.309 . S
C9297 C341 2.227 . S
C9312 C4195 1.844 . S
C9307 C381 1.765 . S
C9317 C421 2.258 . S
C9322 C4201 2.425 . S
C9332 C4237 1.957 . S
C9327 C461 1.960 . S
C9337 C501 2.227 . S
C9342 C4303 2.309 . S
C9347 C541 1.959 . S
C9352 C4309 1.957 . S
C9357 C581 2.258 . S
C9362 C4345 2.427 . S
C9367 C621 1.765 . S
C9372 C4411 1.844 . S
C9377 C661 1.645 . S
C9382 C4447 1.600 . S
C9387 C701 1.646 . S
C9392 C4483 1.598 . S
C9402 C4519 2.309 . S
C9397 C741 2.227 . S
C9412 C4555 1.712 . S
C9407 C781 1.739 . S
C9422 C4561 2.425 . S
C9417 C821 2.258 . S
C9432 C4627 1.711 . S
C9427 C861 1.739 . S
C9437 C901 2.226 . S
C9442 C4663 2.306 . S
C9452 C4669 2.427 . S
C9447 C941 2.258 . S
C9457 C981 2.145 . S
C9462 C4735 2.072 . S
C9467 C1021 2.214 . S
C9472 C4771 2.180 . S
C9477 C1061 2.088 . S
C9482 C4777 1.934 . S
C9492 C4843 2.198 . S
C9487 C1101 2.169 . S
C9497 C1141 2.145 . S
C9502 C4879 2.072 . S
C9512 C4915 2.200 . S
C9507 C1181 2.170 . S
C9517 C1221 2.089 . S
C9522 C4921 1.931 . S
C9527 C1261 2.215 . S
C9532 C4987 2.181 . S
C9542 C5023 1.832 . S
C9537 C1301 1.771 . S
C9547 C1341 2.089 . S
C9552 C5029 1.933 . S
C9562 C5065 1.883 . S
C9557 C1381 1.854 . S
C9567 C1421 2.146 . S
C9572 C5131 2.075 . S
C9582 C5167 1.832 . S
C9577 C1461 1.770 . S
C9592 C5203 2.075 . S
C9587 C1501 2.145 . S
C9602 C5209 1.883 . S
C9597 C1541 1.854 . S
C9607 C1581 2.088 . S
C9612 C5245 1.933 . S
C9617 C1621 2.168 . S
C9622 C5311 2.198 . S
C9627 C1661 2.169 . S
C9632 C5347 2.199 . S
C9637 C1701 1.769 . S
C9642 C5383 1.832 . S
C9647 C1741 2.215 . S
C9652 C5419 2.180 . S
C9657 C1781 1.855 . S
C9662 C5425 1.883 . S
C9672 C5491 2.180 . S
C9667 C1821 2.214 . S
C9677 C1861 1.772 . S
C9682 C5527 1.831 . S
C9692 C5533 1.883 . S
C9687 C1901 1.854 . S
C9697 C1941 1.959 . S
C9702 C5569 1.957 . S
C9712 C5635 1.711 . S
C9707 C1981 1.739 . S
C9722 C5671 1.844 . S
C9717 C2021 1.765 . S
C9732 C5707 1.600 . S
C9727 C2061 1.646 . S
C9737 C2101 1.960 . S
C9742 C5713 1.956 . S
C9747 C2141 1.646 . S
C9752 C5779 1.600 . S
C9762 C5815 1.847 . S
C9757 C2181 1.768 . S
C9772 C5851 1.711 . S
C9767 C2221 1.739 . S
C9777 C2261 2.227 . S
C9782 C5887 2.309 . S
C9787 C2301 1.765 . S
C9792 C5923 1.844 . S
C9797 C2341 2.258 . S
C9802 C5929 2.425 . S
C9807 C2381 1.959 . S
C9812 C5965 1.957 . S
C9817 C2421 2.226 . S
C9822 C6031 2.306 . S
C9832 C6037 1.956 . S
C9827 C2461 1.959 . S
C9842 C6073 2.427 . S
C9837 C2501 2.258 . S
C9852 C6139 1.844 . S
C9847 C2541 1.765 . S
C9862 C6175 1.599 . S
C9857 C2581 1.646 . S
C9867 C2621 1.646 . S
C9872 C6211 1.598 . S
C9877 C2661 2.227 . S
C9882 C6247 2.306 . S
C9892 C6283 1.710 . S
C9887 C2701 1.740 . S
C9897 C2741 2.258 . S
C9902 C6289 2.425 . S
C9912 C6355 1.710 . S
C9907 C2781 1.740 . S
C9922 C6391 2.309 . S
C9917 C2821 2.227 . S
C9932 C6397 2.427 . S
C9927 C2861 2.258 . S
C9937 C2901 2.145 . S
C9942 C6463 2.072 . S
C9947 C2941 2.216 . S
C9952 C6499 2.181 . S
C9957 C2981 2.088 . S
C9962 C6505 1.931 . S
C9967 C3021 2.169 . S
C9972 C6571 2.198 . S
C9982 C6607 2.072 . S
C9977 C3061 2.145 . S
C9992 C6643 2.198 . S
C9987 C3101 2.168 . S
C10002 C6649 1.931 . S
C9997 C3141 2.089 . S
C10007 C3181 2.214 . S
C10012 C6715 2.180 . S
C10017 C3221 1.771 . S
C10022 C6751 1.831 . S
C10032 C6757 1.931 . S
C10027 C3261 2.089 . S
C10042 C6793 1.883 . S
C10037 C3301 1.854 . S
C10052 C6859 2.072 . S
C10047 C3341 2.146 . S
C10062 C6895 1.831 . S
C10057 C3381 1.770 . S
C10072 C6931 2.072 . S
C10067 C3421 2.145 . S
C10082 C6937 1.882 . S
C10077 C3461 1.855 . S
C10092 C6973 1.933 . S
C10087 C3501 2.088 . S
C10102 C7039 2.198 . S
C10097 C3541 2.169 . S
C10112 C7075 2.198 . S
C10107 C3581 2.168 . S
C10122 C7111 1.831 . S
C10117 C3621 1.771 . S
C10127 C3661 2.214 . S
C10132 C7147 2.179 . S
C10142 C7153 1.883 . S
C10137 C3701 1.853 . S
C10147 C3741 2.216 . S
C10152 C7219 2.181 . S
C10162 C7255 1.832 . S
C10157 C3781 1.769 . S
C10172 C7261 1.883 . S
C10167 C3821 1.854 . S
