# Generated by pormake.
# Topology nom, (4,4)-cn, num edge types: 1
# Building blocks:
#     Node 0, Type 0, BuildingBlock: NAWXER_clean_linker_0, # of connection points: 4
#     Node 1, Type 0, BuildingBlock: NAWXER_clean_linker_0, # of connection points: 4
#     Node 2, Type 0, BuildingBlock: NAWXER_clean_linker_0, # of connection points: 4
#     Node 3, Type 0, BuildingBlock: NAWXER_clean_linker_0, # of connection points: 4
#     Node 4, Type 0, BuildingBlock: NAWXER_clean_linker_0, # of connection points: 4
#     Node 5, Type 0, BuildingBlock: NAWXER_clean_linker_0, # of connection points: 4
#     Node 6, Type 1, BuildingBlock: KUFVIS_clean_sbu_0, # of connection points: 4
#     Node 7, Type 1, BuildingBlock: KUFVIS_clean_sbu_0, # of connection points: 4
#     Node 8, Type 1, BuildingBlock: KUFVIS_clean_sbu_0, # of connection points: 4
#     Node 9, Type 1, BuildingBlock: KUFVIS_clean_sbu_0, # of connection points: 4
#     Node 10, Type 1, BuildingBlock: KUFVIS_clean_sbu_0, # of connection points: 4
#     Node 11, Type 1, BuildingBlock: KUFVIS_clean_sbu_0, # of connection points: 4
#     Edge 12, Type (0, 1), BuildingBlock: TEMPAE_clean_linker_10, # of connection points: 2
#     Edge 13, Type (0, 1), BuildingBlock: TEMPAE_clean_linker_10, # of connection points: 2
#     Edge 14, Type (0, 1), BuildingBlock: TEMPAE_clean_linker_10, # of connection points: 2
#     Edge 15, Type (0, 1), BuildingBlock: TEMPAE_clean_linker_10, # of connection points: 2
#     Edge 16, Type (0, 1), BuildingBlock: TEMPAE_clean_linker_10, # of connection points: 2
#     Edge 17, Type (0, 1), BuildingBlock: TEMPAE_clean_linker_10, # of connection points: 2
#     Edge 18, Type (0, 1), BuildingBlock: TEMPAE_clean_linker_10, # of connection points: 2
#     Edge 19, Type (0, 1), BuildingBlock: TEMPAE_clean_linker_10, # of connection points: 2
#     Edge 20, Type (0, 1), BuildingBlock: TEMPAE_clean_linker_10, # of connection points: 2
#     Edge 21, Type (0, 1), BuildingBlock: TEMPAE_clean_linker_10, # of connection points: 2
#     Edge 22, Type (0, 1), BuildingBlock: TEMPAE_clean_linker_10, # of connection points: 2
#     Edge 23, Type (0, 1), BuildingBlock: TEMPAE_clean_linker_10, # of connection points: 2
#     Edge 24, Type (0, 1), BuildingBlock: TEMPAE_clean_linker_10, # of connection points: 2
#     Edge 25, Type (0, 1), BuildingBlock: TEMPAE_clean_linker_10, # of connection points: 2
#     Edge 26, Type (0, 1), BuildingBlock: TEMPAE_clean_linker_10, # of connection points: 2
#     Edge 27, Type (0, 1), BuildingBlock: TEMPAE_clean_linker_10, # of connection points: 2
#     Edge 28, Type (0, 1), BuildingBlock: TEMPAE_clean_linker_10, # of connection points: 2
#     Edge 29, Type (0, 1), BuildingBlock: TEMPAE_clean_linker_10, # of connection points: 2
#     Edge 30, Type (0, 1), BuildingBlock: TEMPAE_clean_linker_10, # of connection points: 2
#     Edge 31, Type (0, 1), BuildingBlock: TEMPAE_clean_linker_10, # of connection points: 2
#     Edge 32, Type (0, 1), BuildingBlock: TEMPAE_clean_linker_10, # of connection points: 2
#     Edge 33, Type (0, 1), BuildingBlock: TEMPAE_clean_linker_10, # of connection points: 2
#     Edge 34, Type (0, 1), BuildingBlock: TEMPAE_clean_linker_10, # of connection points: 2
#     Edge 35, Type (0, 1), BuildingBlock: TEMPAE_clean_linker_10, # of connection points: 2
# Relax obj value: 0.005
# Max RMSD: 0.110
# Mean RMSD: 0.070
data_MOF--net-nom--node1-KUFVIS_clean_sbu_0--node2-NAWXER_clean_linker_0--edge1-TEMPAE_clean_linker_10
_symmetry_space_group_name_H-M    P1
_symmetry_Int_Tables_number       1
_symmetry_cell_setting            triclinic
loop_
_symmetry_equiv_pos_as_xyz
'x, y, z'
_cell_length_a     52.355349
_cell_length_b     52.953992
_cell_length_c     58.37884
_cell_angle_alpha  90.695934
_cell_angle_beta   90.690907
_cell_angle_gamma 119.98881
loop_
_atom_site_label
_atom_site_type_symbol
_atom_site_fract_x
_atom_site_fract_y
_atom_site_fract_z
_atom_type_partial_charge
C0 C 0.89437 0.49949 0.32598 0.0
C1 C 0.88415 0.47626 0.34129 0.0
C2 C 0.9239 0.51448 0.31968 0.0
C3 C 0.94391 0.50648 0.32839 0.0
C4 C 0.90415 0.46804 0.34979 0.0
C5 C 0.93377 0.48312 0.3435 0.0
C6 C 0.97576 0.52395 0.32331 0.0
C7 C 0.93447 0.48086 0.2557 0.0
C8 C 0.93409 0.49989 0.23934 0.0
C9 C 0.95083 0.49183 0.27607 0.0
C10 C 0.96731 0.52203 0.28033 0.0
C11 C 0.95016 0.5301 0.24376 0.0
C12 C 0.967 0.54111 0.264 0.0
C13 C 0.98631 0.53357 0.30112 0.0
C14 C 0.11772 0.59025 0.31253 0.0
C15 C 0.1267 0.61532 0.29944 0.0
C16 C 0.08817 0.57284 0.31838 0.0
C17 C 0.06704 0.58029 0.31141 0.0
C18 C 0.10548 0.62269 0.29246 0.0
C19 C 0.07593 0.60523 0.29827 0.0
C20 C 0.0354 0.56118 0.31631 0.0
C21 C 0.07735 0.59558 0.38689 0.0
C22 C 0.07944 0.57402 0.39933 0.0
C23 C 0.06019 0.58822 0.36671 0.0
C24 C 0.04449 0.55915 0.35882 0.0
C25 C 0.06415 0.54502 0.39086 0.0
C26 C 0.04651 0.53763 0.37105 0.0
C27 C 0.02499 0.55075 0.33835 0.0
H28 H 0.87981 0.50692 0.31954 0.0
H29 H 0.93127 0.53304 0.30864 0.0
H30 H 0.89699 0.45014 0.3615 0.0
H31 H 0.94883 0.47667 0.35059 0.0
H32 H 0.92219 0.45748 0.25264 0.0
H33 H 0.95118 0.47673 0.28826 0.0
H34 H 0.95032 0.54515 0.23128 0.0
H35 H 0.97979 0.5645 0.26692 0.0
H36 H 0.13355 0.58405 0.31823 0.0
H37 H 0.08178 0.55323 0.32792 0.0
H38 H 0.11161 0.64162 0.28208 0.0
H39 H 0.05994 0.61116 0.29242 0.0
H40 H 0.08837 0.61804 0.39295 0.0
H41 H 0.05861 0.60508 0.35756 0.0
H42 H 0.06578 0.52788 0.39948 0.0
H43 H 0.03463 0.51509 0.36511 0.0
N44 N 0.99559 0.53265 0.34106 0.0
N45 N 0.01565 0.55209 0.29849 0.0
C46 C 0.39738 0.90859 0.49831 0.0
C47 C 0.41249 0.89566 0.50853 0.0
C48 C 0.41244 0.93789 0.49219 0.0
C49 C 0.44281 0.95515 0.49663 0.0
C50 C 0.44321 0.91308 0.51235 0.0
C51 C 0.45808 0.94261 0.50681 0.0
C52 C 0.45821 0.98661 0.49178 0.0
C53 C 0.4615 0.94563 0.42483 0.0
C54 C 0.44237 0.94576 0.40785 0.0
C55 C 0.4665 0.96155 0.44525 0.0
C56 C 0.4527 0.97812 0.44893 0.0
C57 C 0.42796 0.96173 0.41172 0.0
C58 C 0.43344 0.97817 0.43203 0.0
C59 C 0.46058 0.99725 0.4695 0.0
C60 C 0.54356 0.12592 0.47989 0.0
C61 C 0.52815 0.13686 0.4674 0.0
C62 C 0.52972 0.09641 0.48557 0.0
C63 C 0.50016 0.0774 0.47899 0.0
C64 C 0.49877 0.11755 0.46046 0.0
C65 C 0.48501 0.08812 0.46608 0.0
C66 C 0.48511 0.04608 0.48455 0.0
C67 C 0.50698 0.09726 0.55146 0.0
C68 C 0.51893 0.08804 0.56908 0.0
C69 C 0.4945 0.08009 0.53158 0.0
C70 C 0.49514 0.05405 0.52817 0.0
C71 C 0.51753 0.06092 0.5662 0.0
C72 C 0.50631 0.04452 0.54598 0.0
C73 C 0.48304 0.03539 0.50705 0.0
H74 H 0.37372 0.89639 0.49553 0.0
H75 H 0.40021 0.94734 0.48462 0.0
H76 H 0.4559 0.90401 0.51965 0.0
H77 H 0.48158 0.95565 0.51031 0.0
H78 H 0.47282 0.93345 0.42218 0.0
H79 H 0.48191 0.96167 0.45787 0.0
H80 H 0.41326 0.96223 0.39875 0.0
H81 H 0.42285 0.99108 0.43448 0.0
H82 H 0.56618 0.14023 0.48552 0.0
H83 H 0.54203 0.08846 0.49513 0.0
H84 H 0.48647 0.12515 0.45046 0.0
H85 H 0.46236 0.07373 0.46051 0.0
H86 H 0.50742 0.11786 0.55276 0.0
H87 H 0.48436 0.08734 0.51901 0.0
H88 H 0.52501 0.05204 0.57958 0.0
H89 H 0.50645 0.02418 0.54432 0.0
N90 N 0.46956 0.00598 0.50962 0.0
N91 N 0.4737 0.02652 0.46671 0.0
C92 C 0.54314 0.47802 0.5991 0.0
C93 C 0.52382 0.45998 0.58155 0.0
C94 C 0.53211 0.48368 0.61898 0.0
C95 C 0.50159 0.47172 0.62147 0.0
C96 C 0.49328 0.4476 0.58418 0.0
C97 C 0.48226 0.45379 0.60388 0.0
C98 C 0.49007 0.47931 0.64183 0.0
C99 C 0.51611 0.41517 0.66568 0.0
C100 C 0.53735 0.42467 0.68356 0.0
C101 C 0.50344 0.43187 0.65929 0.0
C102 C 0.51221 0.45888 0.6702 0.0
C103 C 0.54604 0.45165 0.69455 0.0
C104 C 0.53353 0.46851 0.68797 0.0
C105 C 0.49746 0.47584 0.66451 0.0
C106 C 0.42653 0.51268 0.72188 0.0
C107 C 0.44798 0.5312 0.73818 0.0
C108 C 0.43459 0.50272 0.70252 0.0
C109 C 0.46428 0.51125 0.69896 0.0
C110 C 0.47768 0.53946 0.73465 0.0
C111 C 0.48569 0.52942 0.7153 0.0
C112 C 0.47304 0.50054 0.67869 0.0
C113 C 0.44181 0.5601 0.65072 0.0
C114 C 0.41378 0.54378 0.64025 0.0
C115 C 0.4584 0.5468 0.65611 0.0
C116 C 0.44736 0.51717 0.65069 0.0
C117 C 0.40279 0.51414 0.63493 0.0
C118 C 0.41963 0.50104 0.63984 0.0
C119 C 0.46468 0.50288 0.65609 0.0
H120 H 0.56678 0.48782 0.59735 0.0
H121 H 0.54743 0.49793 0.6322 0.0
H122 H 0.47805 0.43381 0.57075 0.0
H123 H 0.45866 0.44455 0.60544 0.0
H124 H 0.50905 0.39467 0.65667 0.0
H125 H 0.48623 0.4232 0.64616 0.0
H126 H 0.56197 0.45945 0.70862 0.0
H127 H 0.54035 0.48901 0.69693 0.0
H128 H 0.40341 0.50537 0.72431 0.0
H129 H 0.41753 0.48798 0.69052 0.0
H130 H 0.49479 0.5539 0.74675 0.0
H131 H 0.5087 0.53612 0.71296 0.0
H132 H 0.4507 0.58301 0.65491 0.0
H133 H 0.4799 0.55964 0.66432 0.0
H134 H 0.38133 0.50124 0.62666 0.0
H135 H 0.41083 0.47818 0.63547 0.0
N136 N 0.47361 0.49231 0.63849 0.0
N137 N 0.48901 0.487 0.68206 0.0
C138 C 0.9048 0.43777 0.8173 0.0
C139 C 0.8901 0.44606 0.8014 0.0
C140 C 0.93442 0.4566 0.82311 0.0
C141 C 0.9499 0.48428 0.81339 0.0
C142 C 0.90579 0.47361 0.79138 0.0
C143 C 0.93548 0.49249 0.79725 0.0
C144 C 0.98135 0.50418 0.81948 0.0
C145 C 0.92837 0.49374 0.88186 0.0
C146 C 0.93501 0.48125 0.90045 0.0
C147 C 0.94711 0.50399 0.86317 0.0
C148 C 0.97246 0.50125 0.86246 0.0
C149 C 0.96091 0.47949 0.90008 0.0
C150 C 0.97945 0.48942 0.88129 0.0
C151 C 0.992 0.51085 0.84238 0.0
C152 C 0.12336 0.59236 0.83187 0.0
C153 C 0.13359 0.57876 0.84693 0.0
C154 C 0.09319 0.57921 0.8264 0.0
C155 C 0.07313 0.55212 0.83569 0.0
C156 C 0.11345 0.55237 0.85686 0.0
C157 C 0.08346 0.53923 0.85138 0.0
C158 C 0.04145 0.53648 0.8291 0.0
C159 C 0.09281 0.54318 0.76595 0.0
C160 C 0.08558 0.55386 0.74639 0.0
C161 C 0.07488 0.53492 0.78514 0.0
C162 C 0.05011 0.53862 0.78585 0.0
C163 C 0.05991 0.55618 0.7468 0.0
C164 C 0.04259 0.54888 0.76631 0.0
C165 C 0.03078 0.53024 0.80611 0.0
H166 H 0.8936 0.41644 0.8249 0.0
H167 H 0.94532 0.4494 0.83508 0.0
H168 H 0.89507 0.48065 0.77911 0.0
H169 H 0.94711 0.51364 0.78938 0.0
H170 H 0.90882 0.49584 0.88188 0.0
H171 H 0.94172 0.51398 0.84927 0.0
H172 H 0.96651 0.46985 0.91413 0.0
H173 H 0.99898 0.48728 0.88126 0.0
H174 H 0.1387 0.61282 0.82414 0.0
H175 H 0.08561 0.58983 0.81462 0.0
H176 H 0.12106 0.54165 0.86854 0.0
H177 H 0.06839 0.51848 0.85887 0.0
H178 H 0.11238 0.54118 0.76663 0.0
H179 H 0.08048 0.52557 0.79937 0.0
H180 H 0.05279 0.56326 0.73195 0.0
H181 H 0.02318 0.55121 0.76609 0.0
N182 N 1.00109 0.51444 0.80228 0.0
N183 N 0.02162 0.52643 0.84625 0.0
C184 C 0.49604 0.91235 0.98393 0.0
C185 C 0.47572 0.89872 0.96563 0.0
C186 C 0.50591 0.94143 0.99003 0.0
C187 C 0.49515 0.95735 0.97833 0.0
C188 C 0.46557 0.91498 0.95358 0.0
C189 C 0.47526 0.944 0.95984 0.0
C190 C 0.50561 0.98828 0.98448 0.0
C191 C 0.46 0.93567 0.04627 0.0
C192 C 0.47789 0.94357 0.0662 0.0
C193 C 0.4692 0.95357 0.02714 0.0
C194 C 0.49683 0.97932 0.02738 0.0
C195 C 0.5051 0.96972 0.06662 0.0
C196 C 0.51444 0.98739 0.04743 0.0
C197 C 0.50737 0.99856 0.00725 0.0
C198 C 0.55223 0.12792 0.99479 0.0
C199 C 0.5729 0.13856 0.01306 0.0
C200 C 0.53715 0.09813 0.98896 0.0
C201 C 0.54345 0.07878 1.00075 0.0
C202 C 0.57781 0.11892 0.02565 0.0
C203 C 0.56328 0.08937 0.01954 0.0
C204 C 0.52983 0.04752 0.99401 0.0
C205 C 0.57745 0.09954 0.93242 0.0
C206 C 0.56025 0.09213 0.91206 0.0
C207 C 0.56743 0.08155 0.95145 0.0
C208 C 0.53934 0.05643 0.95104 0.0
C209 C 0.53277 0.0661 0.9114 0.0
C210 C 0.52242 0.04863 0.93066 0.0
C211 C 0.52783 0.03722 0.97116 0.0
H212 H 0.5042 0.90049 0.99369 0.0
H213 H 0.52202 0.95147 0.00388 0.0
H214 H 0.45041 0.90542 0.9391 0.0
H215 H 0.46708 0.956 0.95028 0.0
H216 H 0.4387 0.91587 0.04561 0.0
H217 H 0.45467 0.9473 0.01222 0.0
H218 H 0.51943 0.97628 0.08169 0.0
H219 H 0.5357 0.00724 0.04816 0.0
H220 H 0.54789 0.14266 0.98498 0.0
H221 H 0.52113 0.09037 0.97496 0.0
H222 H 0.59377 0.12659 0.03972 0.0
H223 H 0.56827 0.07491 0.02911 0.0
H224 H 0.59863 0.11937 0.93385 0.0
H225 H 0.58166 0.08747 0.96652 0.0
H226 H 0.51921 0.0589 0.89592 0.0
H227 H 0.50101 0.02897 0.92963 0.0
N228 N 0.51559 0.00798 0.96739 0.0
N229 N 0.51964 0.02774 0.01103 0.0
C230 C 0.48884 0.60814 0.16589 0.0
C231 C 0.46483 0.5969 0.18074 0.0
C232 C 0.50257 0.59213 0.16043 0.0
C233 C 0.49244 0.5643 0.16943 0.0
C234 C 0.45485 0.56914 0.18996 0.0
C235 C 0.46862 0.55305 0.18441 0.0
C236 C 0.50789 0.54791 0.16425 0.0
C237 C 0.4655 0.54799 0.09679 0.0
C238 C 0.48562 0.56674 0.08076 0.0
C239 C 0.47559 0.54164 0.11695 0.0
C240 C 0.50596 0.55365 0.12126 0.0
C241 C 0.516 0.57914 0.08523 0.0
C242 C 0.52609 0.57231 0.10521 0.0
C243 C 0.51656 0.54547 0.14189 0.0
C244 C 0.57094 0.4695 0.15212 0.0
C245 C 0.59629 0.4853 0.13899 0.0
C246 C 0.55357 0.48168 0.1582 0.0
C247 C 0.56131 0.50991 0.15131 0.0
C248 C 0.60384 0.51348 0.13205 0.0
C249 C 0.58643 0.52556 0.13803 0.0
C250 C 0.54267 0.52285 0.15665 0.0
C251 C 0.58 0.51411 0.22389 0.0
C252 C 0.55849 0.4948 0.23895 0.0
C253 C 0.57187 0.52372 0.20439 0.0
C254 C 0.54204 0.51408 0.19944 0.0
C255 C 0.52865 0.48547 0.23404 0.0
C256 C 0.52055 0.49518 0.21457 0.0
C257 C 0.53316 0.52429 0.17895 0.0
H258 H 0.49765 0.62977 0.15901 0.0
H259 H 0.52163 0.60191 0.14957 0.0
H260 H 0.4364 0.55986 0.20144 0.0
H261 H 0.46063 0.53178 0.19178 0.0
H262 H 0.44197 0.53821 0.09366 0.0
H263 H 0.45968 0.52685 0.12895 0.0
H264 H 0.53185 0.59349 0.07299 0.0
H265 H 0.54959 0.58162 0.10818 0.0
H266 H 0.56462 0.44776 0.15775 0.0
H267 H 0.5339 0.46891 0.168 0.0
H268 H 0.62296 0.52601 0.12162 0.0
H269 H 0.59261 0.54723 0.13229 0.0
H270 H 0.60322 0.52226 0.22738 0.0
H271 H 0.58894 0.53896 0.19333 0.0
H272 H 0.51148 0.47042 0.24513 0.0
H273 H 0.49742 0.48761 0.21115 0.0
N274 N 0.51618 0.53686 0.18191 0.0
N275 N 0.5339 0.53341 0.13899 0.0
Mn276 Mn 0.62469 0.39546 0.41665 0.0
Mn277 Mn 0.66534 0.46809 0.42656 0.0
C278 C 0.60826 0.41817 0.4419 0.0
C279 C 0.61309 0.34778 0.42464 0.0
C280 C 0.62665 0.44152 0.38409 0.0
O281 O 0.66472 0.40526 0.40409 0.0
O282 O 0.68968 0.45334 0.41225 0.0
C283 C 0.70557 0.46693 0.46207 0.0
N284 N 0.68585 0.47514 0.45529 0.0
C285 C 0.6926 0.50159 0.49072 0.0
C286 C 0.71307 0.49352 0.49808 0.0
C287 C 0.71944 0.47597 0.48374 0.0
C288 C 0.67915 0.49155 0.46911 0.0
H289 H 0.71072 0.45367 0.451 0.0
C290 C 0.68824 0.4301 0.40411 0.0
O291 O 0.60671 0.35448 0.40488 0.0
O292 O 0.62677 0.36892 0.43955 0.0
N293 N 0.6453 0.48597 0.44047 0.0
C294 C 0.62431 0.49096 0.43109 0.0
C295 C 0.61543 0.50824 0.44321 0.0
C296 C 0.62862 0.52063 0.4646 0.0
C297 C 0.65008 0.51507 0.47395 0.0
C298 C 0.65797 0.49764 0.46112 0.0
H299 H 0.61463 0.48205 0.41441 0.0
O300 O 0.59002 0.39302 0.43253 0.0
O301 O 0.63584 0.42914 0.43661 0.0
O302 O 0.61719 0.41494 0.38917 0.0
O303 O 0.64468 0.463 0.39689 0.0
C304 C 0.66412 0.52631 0.49542 0.0
C305 C 0.68506 0.51924 0.50394 0.0
H306 H 0.72397 0.50064 0.51471 0.0
H307 H 0.73517 0.4696 0.48931 0.0
H308 H 0.5988 0.51237 0.43593 0.0
H309 H 0.62214 0.53443 0.47366 0.0
H310 H 0.65883 0.54023 0.50562 0.0
H311 H 0.69531 0.5276 0.52063 0.0
Mn312 Mn 0.24719 0.64175 0.56795 0.0
Mn313 Mn 0.20954 0.56886 0.55826 0.0
C314 C 0.20765 0.62132 0.542 0.0
C315 C 0.28552 0.68842 0.56002 0.0
C316 C 0.2015 0.59792 0.60046 0.0
O317 O 0.27523 0.6292 0.58116 0.0
O318 O 0.24896 0.58121 0.57226 0.0
C319 C 0.24765 0.56556 0.52263 0.0
N320 N 0.22047 0.55933 0.52973 0.0
C321 C 0.19722 0.53059 0.4956 0.0
C322 C 0.22493 0.53643 0.48799 0.0
C323 C 0.25028 0.5542 0.50149 0.0
C324 C 0.19605 0.54281 0.51666 0.0
H325 H 0.26713 0.57907 0.53303 0.0
C326 C 0.27198 0.60365 0.58059 0.0
O327 O 0.27252 0.68251 0.57961 0.0
O328 O 0.27699 0.66701 0.5453 0.0
N329 N 0.17115 0.55334 0.54452 0.0
C330 C 0.14658 0.55201 0.55338 0.0
C331 C 0.11931 0.53541 0.54188 0.0
C332 C 0.11761 0.52025 0.52149 0.0
C333 C 0.14335 0.52267 0.51232 0.0
C334 C 0.16984 0.53937 0.52463 0.0
H335 H 0.14779 0.56343 0.56913 0.0
O336 O 0.21648 0.64672 0.55143 0.0
O337 O 0.2224 0.60849 0.5478 0.0
O338 O 0.22011 0.62405 0.5953 0.0
O339 O 0.19589 0.57581 0.58784 0.0
C340 C 0.14381 0.50923 0.49147 0.0
C341 C 0.17077 0.51339 0.48301 0.0
H342 H 0.22703 0.52761 0.47174 0.0
H343 H 0.27176 0.55896 0.49568 0.0
H344 H 0.0996 0.53403 0.54885 0.0
H345 H 0.09643 0.50703 0.51292 0.0
H346 H 0.12364 0.49601 0.48161 0.0
H347 H 0.17093 0.50345 0.46673 0.0
Mn348 Mn 0.62669 0.25494 0.73599 0.0
Mn349 Mn 0.66721 0.2227 0.72629 0.0
C350 C 0.60952 0.21549 0.71068 0.0
C351 C 0.61424 0.29057 0.72795 0.0
C352 C 0.63003 0.21111 0.76824 0.0
O353 O 0.66711 0.28548 0.7483 0.0
O354 O 0.69146 0.26125 0.74198 0.0
C355 C 0.70697 0.26508 0.69259 0.0
N356 N 0.68753 0.23708 0.69826 0.0
C357 C 0.69448 0.21874 0.6624 0.0
C358 C 0.71466 0.24736 0.65618 0.0
C359 C 0.72077 0.27065 0.67129 0.0
C360 C 0.68099 0.2146 0.68365 0.0
H361 H 0.71197 0.28303 0.70424 0.0
C362 C 0.6904 0.28356 0.74938 0.0
O363 O 0.60901 0.27819 0.74774 0.0
O364 O 0.62701 0.28249 0.71299 0.0
N365 N 0.6475 0.18547 0.71094 0.0
C366 C 0.62674 0.1593 0.71916 0.0
C367 C 0.61836 0.13371 0.70626 0.0
C368 C 0.63176 0.13525 0.68524 0.0
C369 C 0.65279 0.16246 0.67696 0.0
C370 C 0.66016 0.18721 0.69053 0.0
H371 H 0.61673 0.15799 0.73546 0.0
O372 O 0.5914 0.22225 0.72018 0.0
O373 O 0.6373 0.23223 0.71604 0.0
O374 O 0.62147 0.22927 0.76366 0.0
O375 O 0.64653 0.2062 0.75516 0.0
C376 C 0.66693 0.16599 0.65587 0.0
C377 C 0.6874 0.19414 0.64843 0.0
H378 H 0.72557 0.2517 0.63987 0.0
H379 H 0.73628 0.29281 0.66662 0.0
H380 H 0.60192 0.1128 0.71266 0.0
H381 H 0.62573 0.11539 0.67559 0.0
H382 H 0.66199 0.14722 0.64512 0.0
H383 H 0.69771 0.1966 0.632 0.0
Mn384 Mn 0.39192 0.6395 0.91567 0.0
Mn385 Mn 0.34701 0.56763 0.92413 0.0
C386 C 0.40646 0.61516 0.94064 0.0
C387 C 0.40629 0.68797 0.92426 0.0
C388 C 0.38478 0.5914 0.88213 0.0
O389 O 0.35255 0.63217 0.90254 0.0
O390 O 0.32415 0.58488 0.91099 0.0
C391 C 0.31062 0.57237 0.9605 0.0
N392 N 0.32837 0.56216 0.953 0.0
C393 C 0.32127 0.53511 0.98741 0.0
C394 C 0.30278 0.5452 0.99549 0.0
C395 C 0.2976 0.56407 0.98203 0.0
C396 C 0.33397 0.54448 0.96598 0.0
H397 H 0.30638 0.58667 0.95011 0.0
C398 C 0.32763 0.60877 0.90298 0.0
O399 O 0.41174 0.68023 0.90455 0.0
O400 O 0.39233 0.6675 0.93889 0.0
N401 N 0.36552 0.54762 0.937 0.0
C402 C 0.385 0.54103 0.92718 0.0
C403 C 0.39282 0.52258 0.93854 0.0
C404 C 0.38011 0.51068 0.95961 0.0
C405 C 0.36019 0.51787 0.96942 0.0
C406 C 0.35338 0.53649 0.95738 0.0
H407 H 0.3943 0.54959 0.91073 0.0
O408 O 0.42574 0.63973 0.93196 0.0
O409 O 0.37902 0.60584 0.93493 0.0
O410 O 0.39695 0.61827 0.88807 0.0
O411 O 0.36554 0.57086 0.89418 0.0
C412 C 0.34669 0.50718 0.99061 0.0
C413 C 0.32758 0.51611 0.99974 0.0
H414 H 0.29254 0.53868 0.01202 0.0
H415 H 0.28343 0.57203 0.98817 0.0
H416 H 0.40828 0.5172 0.93091 0.0
H417 H 0.3858 0.49604 0.96811 0.0
H418 H 0.35105 0.49227 1.00013 0.0
H419 H 0.31781 0.5082 0.01625 0.0
Mn420 Mn 0.76556 0.40005 0.07408 0.0
Mn421 Mn 0.79935 0.36032 0.07912 0.0
C422 C 0.80666 0.4164 0.09792 0.0
C423 C 0.72905 0.41036 0.08517 0.0
C424 C 0.8069 0.39824 0.03835 0.0
O425 O 0.73497 0.36042 0.06072 0.0
O426 O 0.75844 0.33526 0.06704 0.0
C427 C 0.76312 0.32139 0.11595 0.0
N428 N 0.79 0.34113 0.10785 0.0
C429 C 0.81475 0.33706 0.14137 0.0
C430 C 0.78735 0.31658 0.15006 0.0
C431 C 0.76141 0.30884 0.13734 0.0
C432 C 0.81503 0.3491 0.1201 0.0
H433 H 0.74317 0.31524 0.10614 0.0
C434 C 0.73598 0.33684 0.06011 0.0
O435 O 0.74077 0.41724 0.0651 0.0
O436 O 0.7382 0.39705 0.09861 0.0
N437 N 0.83902 0.38148 0.0908 0.0
C438 C 0.86352 0.40253 0.08047 0.0
C439 C 0.89131 0.41292 0.09105 0.0
C440 C 0.89365 0.40121 0.11191 0.0
C441 C 0.86812 0.37963 0.12224 0.0
C442 C 0.84103 0.37023 0.11095 0.0
H443 H 0.86189 0.4112 0.06422 0.0
O444 O 0.7986 0.43438 0.09042 0.0
O445 O 0.79004 0.38922 0.09162 0.0
O446 O 0.7908 0.40831 0.0456 0.0
O447 O 0.81091 0.37971 0.04928 0.0
C448 C 0.86847 0.36693 0.14322 0.0
C449 C 0.84178 0.34597 0.15295 0.0
H450 H 0.78596 0.30674 0.16649 0.0
H451 H 0.74018 0.29312 0.14396 0.0
H452 H 0.91091 0.42966 0.08302 0.0
H453 H 0.91518 0.40901 0.11985 0.0
H454 H 0.88914 0.37319 0.15208 0.0
H455 H 0.84232 0.33678 0.1693 0.0
Mn456 Mn 0.38484 0.78094 0.24266 0.0
Mn457 Mn 0.45854 0.81559 0.25154 0.0
C458 C 0.40748 0.82159 0.26679 0.0
C459 C 0.33731 0.74471 0.25177 0.0
C460 C 0.42983 0.82307 0.20876 0.0
O461 O 0.39552 0.75099 0.2311 0.0
O462 O 0.44432 0.77573 0.23871 0.0
C463 C 0.45993 0.7784 0.28845 0.0
N464 N 0.46699 0.80526 0.28074 0.0
C465 C 0.4938 0.82843 0.31568 0.0
C466 C 0.48692 0.80105 0.32397 0.0
C467 C 0.46977 0.77591 0.31034 0.0
C468 C 0.48307 0.82952 0.29385 0.0
H469 H 0.44694 0.75905 0.27795 0.0
C470 C 0.42085 0.753 0.23134 0.0
O471 O 0.34327 0.75616 0.23161 0.0
O472 O 0.35914 0.75382 0.2664 0.0
N473 N 0.47568 0.85428 0.26417 0.0
C474 C 0.47913 0.87883 0.25409 0.0
C475 C 0.4954 0.90586 0.26562 0.0
C476 C 0.50838 0.90741 0.28718 0.0
C477 C 0.50451 0.88184 0.29722 0.0
C478 C 0.48793 0.85552 0.28498 0.0
H479 H 0.46965 0.8778 0.23733 0.0
O480 O 0.38174 0.81332 0.25759 0.0
O481 O 0.41911 0.80549 0.26189 0.0
O482 O 0.40324 0.80594 0.21447 0.0
O483 O 0.45211 0.82806 0.22129 0.0
C484 C 0.51654 0.8814 0.31884 0.0
C485 C 0.51086 0.85469 0.3282 0.0
H486 H 0.49462 0.79906 0.3408 0.0
H487 H 0.4643 0.75468 0.31664 0.0
H488 H 0.49823 0.9255 0.2578 0.0
H489 H 0.52127 0.92835 0.29587 0.0
H490 H 0.53003 0.90147 0.32852 0.0
H491 H 0.51977 0.85461 0.34502 0.0
C492 C 0.17372 0.62024 0.28458 0.0
C493 C 0.15796 0.63344 0.29266 0.0
C494 C 0.20306 0.63711 0.27769 0.0
C495 C 0.21702 0.6679 0.27896 0.0
C496 C 0.20129 0.68135 0.28725 0.0
C497 C 0.17195 0.66396 0.29396 0.0
C498 C 0.21906 0.62198 0.26885 0.0
C499 C 0.21547 0.71413 0.28902 0.0
C500 C 0.30069 0.71343 0.28076 0.0
C501 C 0.30676 0.72345 0.25825 0.0
C502 C 0.27162 0.69493 0.28764 0.0
C503 C 0.24805 0.68616 0.2716 0.0
C504 C 0.25409 0.69561 0.2487 0.0
C505 C 0.28338 0.71419 0.24231 0.0
C506 C 0.26608 0.68532 0.31221 0.0
C507 C 0.22956 0.68661 0.23107 0.0
H508 H 0.1629 0.59667 0.28325 0.0
H509 H 0.16001 0.67427 0.30045 0.0
H510 H 0.22604 0.62856 0.25101 0.0
H511 H 0.23933 0.62869 0.27935 0.0
H512 H 0.20517 0.59784 0.26914 0.0
H513 H 0.20028 0.72117 0.29593 0.0
H514 H 0.23543 0.72321 0.30031 0.0
H515 H 0.22268 0.72371 0.27188 0.0
H516 H 0.31864 0.7205 0.29319 0.0
H517 H 0.28789 0.7218 0.22487 0.0
H518 H 0.25321 0.66117 0.31284 0.0
H519 H 0.25276 0.69372 0.32049 0.0
H520 H 0.28688 0.69317 0.32234 0.0
H521 H 0.21584 0.66249 0.23003 0.0
H522 H 0.23802 0.69477 0.21376 0.0
H523 H 0.21493 0.69514 0.23628 0.0
C524 C 0.52699 0.1834 0.46377 0.0
C525 C 0.54248 0.16825 0.46155 0.0
C526 C 0.53977 0.21278 0.45775 0.0
C527 C 0.56879 0.22745 0.44926 0.0
C528 C 0.58469 0.2124 0.44717 0.0
C529 C 0.57137 0.18299 0.45338 0.0
C530 C 0.52214 0.22808 0.46041 0.0
C531 C 0.61562 0.22727 0.4381 0.0
C532 C 0.5887 0.29462 0.4141 0.0
C533 C 0.6038 0.31721 0.43038 0.0
C534 C 0.57792 0.26536 0.41984 0.0
C535 C 0.58225 0.2585 0.44241 0.0
C536 C 0.59817 0.28126 0.45873 0.0
C537 C 0.60878 0.31034 0.45251 0.0
C538 C 0.56118 0.24172 0.4019 0.0
C539 C 0.60325 0.27487 0.48297 0.0
H540 H 0.50484 0.17228 0.47039 0.0
H541 H 0.58336 0.17135 0.4514 0.0
H542 H 0.53418 0.2475 0.47192 0.0
H543 H 0.5193 0.2359 0.44355 0.0
H544 H 0.49999 0.21367 0.46752 0.0
H545 H 0.62521 0.2127 0.43792 0.0
H546 H 0.61557 0.23465 0.42041 0.0
H547 H 0.63014 0.24695 0.44875 0.0
H548 H 0.58483 0.29974 0.39694 0.0
H549 H 0.62045 0.32765 0.4652 0.0
H550 H 0.53798 0.22785 0.40715 0.0
H551 H 0.57094 0.2274 0.40035 0.0
H552 H 0.56119 0.25073 0.38481 0.0
H553 H 0.58178 0.26234 0.49156 0.0
H554 H 0.61739 0.29506 0.49325 0.0
H555 H 0.61379 0.26118 0.48289 0.0
C556 C 0.3675 0.5461 0.64275 0.0
C557 C 0.39604 0.55753 0.63436 0.0
C558 C 0.34926 0.55702 0.63561 0.0
C559 C 0.3596 0.57937 0.61923 0.0
C560 C 0.38883 0.59167 0.61132 0.0
C561 C 0.40685 0.58076 0.61919 0.0
C562 C 0.31847 0.54373 0.64483 0.0
C563 C 0.40048 0.61509 0.59354 0.0
C564 C 0.29935 0.57641 0.58074 0.0
C565 C 0.29588 0.59916 0.58975 0.0
C566 C 0.32074 0.57054 0.58968 0.0
C567 C 0.3387 0.58735 0.60853 0.0
C568 C 0.33564 0.61064 0.61757 0.0
C569 C 0.31445 0.61651 0.60786 0.0
C570 C 0.32369 0.54592 0.57918 0.0
C571 C 0.354 0.62865 0.63795 0.0
H572 H 0.35931 0.52826 0.65464 0.0
H573 H 0.42892 0.58944 0.61265 0.0
H574 H 0.31383 0.56107 0.65051 0.0
H575 H 0.30216 0.53075 0.63107 0.0
H576 H 0.31513 0.52921 0.65944 0.0
H577 H 0.42448 0.62434 0.59087 0.0
H578 H 0.38862 0.60577 0.57697 0.0
H579 H 0.39643 0.63302 0.59857 0.0
H580 H 0.28524 0.56304 0.56662 0.0
H581 H 0.31172 0.63401 0.61497 0.0
H582 H 0.31744 0.52839 0.5918 0.0
H583 H 0.34695 0.55379 0.5746 0.0
H584 H 0.30954 0.53637 0.56355 0.0
H585 H 0.34872 0.61456 0.6531 0.0
H586 H 0.35005 0.64691 0.64218 0.0
H587 H 0.3778 0.63773 0.63464 0.0
C588 C 0.83844 0.40855 0.81134 0.0
C589 C 0.85884 0.42541 0.79474 0.0
C590 C 0.80962 0.38697 0.80507 0.0
C591 C 0.80097 0.38217 0.78163 0.0
C592 C 0.82103 0.4 0.76489 0.0
C593 C 0.84973 0.42138 0.77164 0.0
C594 C 0.78884 0.3685 0.82344 0.0
C595 C 0.81264 0.39555 0.73972 0.0
C596 C 0.74333 0.30597 0.76178 0.0
C597 C 0.7181 0.30861 0.75882 0.0
C598 C 0.7702 0.32963 0.76951 0.0
C599 C 0.77208 0.35674 0.77441 0.0
C600 C 0.74668 0.35954 0.77188 0.0
C601 C 0.71995 0.33542 0.76414 0.0
C602 C 0.79675 0.32569 0.77209 0.0
C603 C 0.74789 0.38815 0.77694 0.0
H604 H 0.84519 0.41191 0.82927 0.0
H605 H 0.86542 0.43414 0.7587 0.0
H606 H 0.76737 0.36776 0.82155 0.0
H607 H 0.78445 0.34579 0.82159 0.0
H608 H 0.79797 0.37677 0.84096 0.0
H609 H 0.82972 0.41293 0.72912 0.0
H610 H 0.8095 0.37421 0.7337 0.0
H611 H 0.79142 0.39507 0.73684 0.0
H612 H 0.74223 0.28539 0.75785 0.0
H613 H 0.70065 0.33774 0.76189 0.0
H614 H 0.80585 0.33147 0.78985 0.0
H615 H 0.81434 0.34056 0.76048 0.0
H616 H 0.79141 0.30297 0.76811 0.0
H617 H 0.75642 0.39583 0.79465 0.0
H618 H 0.72594 0.38644 0.77502 0.0
H619 H 0.76338 0.405 0.76517 0.0
C620 C 0.4357 0.84893 0.95251 0.0
C621 C 0.46528 0.86775 0.95907 0.0
C622 C 0.42556 0.81967 0.94636 0.0
C623 C 0.44539 0.80883 0.94701 0.0
C624 C 0.47524 0.82764 0.95362 0.0
C625 C 0.48485 0.85688 0.95943 0.0
C626 C 0.39359 0.80031 0.9393 0.0
C627 C 0.49702 0.81685 0.95463 0.0
C628 C 0.41396 0.72718 0.95245 0.0
C629 C 0.41582 0.71878 0.92993 0.0
C630 C 0.42349 0.75641 0.95823 0.0
C631 C 0.43485 0.7777 0.94104 0.0
C632 C 0.43645 0.7693 0.91822 0.0
C633 C 0.42706 0.73995 0.91296 0.0
C634 C 0.42169 0.76456 0.9828 0.0
C635 C 0.44814 0.79134 0.89937 0.0
H636 H 0.4203 0.85697 0.95248 0.0
H637 H 0.50784 0.87132 0.96409 0.0
H638 H 0.39202 0.79069 0.92198 0.0
H639 H 0.38274 0.78197 0.95129 0.0
H640 H 0.38122 0.8123 0.93905 0.0
H641 H 0.51941 0.8342 0.96029 0.0
H642 H 0.48928 0.79847 0.96663 0.0
H643 H 0.49858 0.80845 0.93751 0.0
H644 H 0.40538 0.71094 0.96566 0.0
H645 H 0.42844 0.73358 0.89551 0.0
H646 H 0.40791 0.77502 0.98379 0.0
H647 H 0.44403 0.78068 0.98948 0.0
H648 H 0.41221 0.74537 0.99411 0.0
H649 H 0.4351 0.80258 0.89815 0.0
H650 H 0.44734 0.78117 0.88242 0.0
H651 H 0.47131 0.80825 0.90339 0.0
C652 C 0.64549 0.48919 0.13359 0.0
C653 C 0.61463 0.47242 0.13212 0.0
C654 C 0.66322 0.47786 0.1262 0.0
C655 C 0.64978 0.44907 0.11704 0.0
C656 C 0.61863 0.43186 0.1158 0.0
C657 C 0.60141 0.44372 0.12341 0.0
C658 C 0.69636 0.49683 0.12801 0.0
C659 C 0.60351 0.40111 0.10605 0.0
C660 C 0.69719 0.43239 0.07793 0.0
C661 C 0.7072 0.41846 0.09283 0.0
C662 C 0.67787 0.44179 0.08543 0.0
C663 C 0.66845 0.43727 0.10841 0.0
C664 C 0.67795 0.42263 0.12339 0.0
C665 C 0.69716 0.41335 0.1154 0.0
C666 C 0.66809 0.45718 0.06891 0.0
C667 C 0.66843 0.41746 0.14801 0.0
H668 H 0.6558 0.51125 0.14059 0.0
H669 H 0.57758 0.43078 0.12201 0.0
H670 H 0.7058 0.48586 0.13829 0.0
H671 H 0.70593 0.50016 0.1107 0.0
H672 H 0.70332 0.5185 0.13602 0.0
H673 H 0.5791 0.39033 0.10687 0.0
H674 H 0.60967 0.40135 0.0879 0.0
H675 H 0.61095 0.38782 0.11552 0.0
H676 H 0.70477 0.43633 0.06045 0.0
H677 H 0.70479 0.40259 0.12702 0.0
H678 H 0.67644 0.47996 0.07499 0.0
H679 H 0.64366 0.44626 0.06817 0.0
H680 H 0.67615 0.45763 0.05132 0.0
H681 H 0.6768 0.43868 0.15723 0.0
H682 H 0.67667 0.40457 0.15715 0.0
H683 H 0.64402 0.40578 0.14882 0.0
C684 C 0.40531 0.85547 0.53519 0.0
C685 C 0.39613 0.8645 0.51573 0.0
C686 C 0.38954 0.82654 0.54256 0.0
C687 C 0.3633 0.80623 0.53075 0.0
C688 C 0.35393 0.81501 0.51107 0.0
C689 C 0.37071 0.84378 0.50357 0.0
C690 C 0.40072 0.81783 0.56325 0.0
C691 C 0.32574 0.7942 0.49824 0.0
C692 C 0.32865 0.72423 0.53759 0.0
C693 C 0.30718 0.71865 0.55395 0.0
C694 C 0.34794 0.75282 0.53056 0.0
C695 C 0.34489 0.77616 0.53948 0.0
C696 C 0.32335 0.77058 0.55616 0.0
C697 C 0.3051 0.74196 0.56347 0.0
C698 C 0.3713 0.75799 0.51338 0.0
C699 C 0.31879 0.79468 0.56563 0.0
H700 H 0.42451 0.87111 0.54508 0.0
H701 H 0.36366 0.85001 0.48818 0.0
H702 H 0.3853 0.8128 0.57759 0.0
H703 H 0.40171 0.79778 0.55931 0.0
H704 H 0.42297 0.83529 0.5691 0.0
H705 H 0.3213 0.80453 0.48343 0.0
H706 H 0.32683 0.77495 0.49187 0.0
H707 H 0.30683 0.78612 0.50997 0.0
H708 H 0.33036 0.70622 0.5303 0.0
H709 H 0.28829 0.73764 0.57594 0.0
H710 H 0.39322 0.77538 0.51983 0.0
H711 H 0.36657 0.76559 0.4971 0.0
H712 H 0.37249 0.73798 0.50967 0.0
H713 H 0.33954 0.81217 0.57365 0.0
H714 H 0.3012 0.78674 0.57858 0.0
H715 H 0.31271 0.8046 0.55147 0.0
C716 C 0.53151 0.37566 0.69189 0.0
C717 C 0.54973 0.40606 0.69103 0.0
C718 C 0.54281 0.35768 0.69841 0.0
C719 C 0.57304 0.37036 0.70455 0.0
C720 C 0.5915 0.40103 0.70413 0.0
C721 C 0.57967 0.4185 0.69727 0.0
C722 C 0.5224 0.32505 0.69854 0.0
C723 C 0.62382 0.41536 0.71071 0.0
C724 C 0.59442 0.32319 0.73931 0.0
C725 C 0.60521 0.31223 0.72232 0.0
C726 C 0.58464 0.34279 0.7339 0.0
C727 C 0.58534 0.35134 0.71091 0.0
C728 C 0.59663 0.34067 0.69376 0.0
C729 C 0.60657 0.32138 0.6997 0.0
C730 C 0.57307 0.35396 0.7527 0.0
C731 C 0.5975 0.34904 0.66902 0.0
H732 H 0.50823 0.36584 0.68759 0.0
H733 H 0.59401 0.44191 0.69645 0.0
H734 H 0.53056 0.31421 0.68672 0.0
H735 H 0.5221 0.31671 0.71593 0.0
H736 H 0.49945 0.31864 0.69329 0.0
H737 H 0.63492 0.43954 0.71038 0.0
H738 H 0.62647 0.40878 0.72815 0.0
H739 H 0.6352 0.40797 0.69876 0.0
H740 H 0.59345 0.31632 0.75685 0.0
H741 H 0.61483 0.31296 0.68646 0.0
H742 H 0.54937 0.34631 0.7494 0.0
H743 H 0.5849 0.37815 0.75291 0.0
H744 H 0.57553 0.34653 0.76987 0.0
H745 H 0.57475 0.34136 0.66247 0.0
H746 H 0.60784 0.33962 0.65789 0.0
H747 H 0.60998 0.37311 0.66757 0.0
C748 C 0.18107 0.58104 0.839 0.0
C749 C 0.16528 0.59095 0.85179 0.0
C750 C 0.20961 0.5879 0.8459 0.0
C751 C 0.22243 0.6049 0.86614 0.0
C752 C 0.20712 0.61641 0.8783 0.0
C753 C 0.17855 0.60913 0.87101 0.0
C754 C 0.22514 0.57519 0.83245 0.0
C755 C 0.22004 0.63467 0.8999 0.0
C756 C 0.27291 0.58618 0.89968 0.0
C757 C 0.30102 0.60884 0.89404 0.0
C758 C 0.24731 0.58509 0.89105 0.0
C759 C 0.24972 0.60709 0.87621 0.0
C760 C 0.27796 0.63028 0.87065 0.0
C761 C 0.30333 0.63097 0.87973 0.0
C762 C 0.21762 0.5601 0.89761 0.0
C763 C 0.28133 0.65401 0.85479 0.0
H764 H 0.17047 0.56674 0.82424 0.0
H765 H 0.16602 0.61649 0.88093 0.0
H766 H 0.24831 0.59214 0.82936 0.0
H767 H 0.22569 0.5578 0.84249 0.0
H768 H 0.21393 0.56563 0.8157 0.0
H769 H 0.20735 0.64526 0.90545 0.0
H770 H 0.21992 0.62062 0.91389 0.0
H771 H 0.2433 0.65178 0.89738 0.0
H772 H 0.27083 0.56914 0.91093 0.0
H773 H 0.32494 0.64854 0.87525 0.0
H774 H 0.20546 0.54719 0.88208 0.0
H775 H 0.20415 0.56862 0.90545 0.0
H776 H 0.21957 0.54529 0.90992 0.0
H777 H 0.27212 0.64446 0.83757 0.0
H778 H 0.30476 0.67125 0.853 0.0
H779 H 0.26868 0.66422 0.86119 0.0
C780 C 0.59419 0.1806 0.04094 0.0
C781 C 0.59097 0.1702 0.0183 0.0
C782 C 0.61509 0.20955 0.04685 0.0
C783 C 0.63351 0.22835 0.02975 0.0
C784 C 0.62908 0.21843 0.00661 0.0
C785 C 0.60769 0.18945 0.00114 0.0
C786 C 0.61879 0.21937 0.07166 0.0
C787 C 0.64838 0.2377 0.9879 0.0
C788 C 0.68348 0.30884 0.04514 0.0
C789 C 0.70981 0.30953 0.05146 0.0
C790 C 0.65846 0.28267 0.03773 0.0
C791 C 0.65986 0.25667 0.03657 0.0
C792 C 0.68646 0.25733 0.04258 0.0
C793 C 0.711 0.28365 0.04995 0.0
C794 C 0.63043 0.28273 0.03149 0.0
C795 C 0.68893 0.2301 0.04154 0.0
H796 H 0.58105 0.16574 0.05417 0.0
H797 H 0.60534 0.18134 0.98364 0.0
H798 H 0.63959 0.22164 0.0788 0.0
H799 H 0.6204 0.24102 0.07321 0.0
H800 H 0.60024 0.20364 0.08221 0.0
H801 H 0.63962 0.22821 0.97056 0.0
H802 H 0.65058 0.25962 0.98915 0.0
H803 H 0.67083 0.24066 0.98993 0.0
H804 H 0.68226 0.32865 0.04624 0.0
H805 H 0.73115 0.28381 0.0547 0.0
H806 H 0.61264 0.2684 0.0432 0.0
H807 H 0.62299 0.27377 0.01386 0.0
H808 H 0.63323 0.30494 0.03252 0.0
H809 H 0.67316 0.21376 0.05349 0.0
H810 H 0.71147 0.2345 0.04612 0.0
H811 H 0.68306 0.22017 0.02406 0.0
C812 C 0.44526 0.61724 0.21037 0.0
C813 C 0.45158 0.61501 0.1874 0.0
C814 C 0.43642 0.63717 0.21732 0.0
C815 C 0.43395 0.65536 0.20091 0.0
C816 C 0.43865 0.65202 0.17751 0.0
C817 C 0.44735 0.63187 0.17104 0.0
C818 C 0.43148 0.63996 0.24243 0.0
C819 C 0.43616 0.67091 0.15946 0.0
C820 C 0.39874 0.70086 0.21731 0.0
C821 C 0.42368 0.72784 0.2231 0.0
C822 C 0.40161 0.67695 0.21008 0.0
C823 C 0.43005 0.68016 0.20852 0.0
C824 C 0.45525 0.70734 0.2142 0.0
C825 C 0.45176 0.73074 0.22143 0.0
C826 C 0.37425 0.64824 0.20425 0.0
C827 C 0.48602 0.71176 0.21267 0.0
H828 H 0.44863 0.60446 0.22315 0.0
H829 H 0.45163 0.62985 0.15319 0.0
H830 H 0.4497 0.6609 0.24948 0.0
H831 H 0.41064 0.64026 0.24477 0.0
H832 H 0.4306 0.6219 0.25251 0.0
H833 H 0.43729 0.66344 0.14183 0.0
H834 H 0.41515 0.67105 0.16108 0.0
H835 H 0.4544 0.69372 0.16195 0.0
H836 H 0.37694 0.6983 0.21861 0.0
H837 H 0.47125 0.75142 0.22578 0.0
H838 H 0.37318 0.63099 0.21547 0.0
H839 H 0.37512 0.64155 0.18632 0.0
H840 H 0.35374 0.64932 0.20625 0.0
H841 H 0.48833 0.69636 0.22404 0.0
H842 H 0.50332 0.73432 0.21761 0.0
H843 H 0.49005 0.70707 0.19492 0.0
C844 C 0.82999 0.45708 0.33447 0.0
C845 C 0.8533 0.46226 0.34952 0.0
C846 C 0.80157 0.44778 0.34258 0.0
C847 C 0.79625 0.4434 0.36632 0.0
C848 C 0.81918 0.44673 0.38139 0.0
C849 C 0.84744 0.45622 0.37283 0.0
C850 C 0.77773 0.44443 0.32593 0.0
C851 C 0.81441 0.44215 0.4068 0.0
C852 C 0.74016 0.46068 0.39135 0.0
C853 C 0.71552 0.43285 0.3942 0.0
C854 C 0.76632 0.46423 0.38219 0.0
C855 C 0.76818 0.43937 0.37576 0.0
C856 C 0.7435 0.41117 0.37852 0.0
C857 C 0.71739 0.40822 0.38764 0.0
C858 C 0.79205 0.49473 0.37943 0.0
C859 C 0.74478 0.38417 0.37197 0.0
H860 H 0.83417 0.46112 0.31636 0.0
H861 H 0.86529 0.46035 0.38465 0.0
H862 H 0.75703 0.42358 0.32861 0.0
H863 H 0.77289 0.46234 0.32895 0.0
H864 H 0.78428 0.44509 0.30782 0.0
H865 H 0.83306 0.44167 0.41566 0.0
H866 H 0.81206 0.46013 0.41449 0.0
H867 H 0.79377 0.42145 0.41004 0.0
H868 H 0.73906 0.47993 0.39621 0.0
H869 H 0.69855 0.38664 0.38981 0.0
H870 H 0.79857 0.4983 0.36122 0.0
H871 H 0.81137 0.49756 0.3896 0.0
H872 H 0.78688 0.51178 0.38502 0.0
H873 H 0.75025 0.38475 0.35361 0.0
H874 H 0.72362 0.36384 0.37496 0.0
H875 H 0.76255 0.38351 0.38202 0.0
C876 C 0.0874 0.56136 0.43908 0.0
C877 C 0.09694 0.58139 0.42124 0.0
C878 C 0.10412 0.56707 0.45937 0.0
C879 C 0.13088 0.59378 0.46229 0.0
C880 C 0.14004 0.61476 0.44484 0.0
C881 C 0.12323 0.60816 0.42441 0.0
C882 C 0.0936 0.54373 0.47711 0.0
C883 C 0.16776 0.64409 0.44768 0.0
C884 C 0.16297 0.61718 0.52276 0.0
C885 C 0.18644 0.61159 0.52247 0.0
C886 C 0.14466 0.61147 0.50332 0.0
C887 C 0.14972 0.59949 0.48323 0.0
C888 C 0.17326 0.59353 0.48298 0.0
C889 C 0.19182 0.60043 0.50241 0.0
C890 C 0.12032 0.61887 0.5041 0.0
C891 C 0.17901 0.58014 0.46212 0.0
H892 H 0.06678 0.54095 0.43723 0.0
H893 H 0.13104 0.62383 0.41078 0.0
H894 H 0.1062 0.53216 0.47528 0.0
H895 H 0.09744 0.55313 0.49472 0.0
H896 H 0.06978 0.52746 0.47482 0.0
H897 H 0.17039 0.65893 0.43347 0.0
H898 H 0.16744 0.65467 0.46412 0.0
H899 H 0.18734 0.64124 0.44828 0.0
H900 H 0.1593 0.62657 0.53811 0.0
H901 H 0.21096 0.59769 0.50173 0.0
H902 H 0.09864 0.59892 0.50093 0.0
H903 H 0.1233 0.63434 0.49034 0.0
H904 H 0.11977 0.62878 0.52084 0.0
H905 H 0.15896 0.55911 0.45749 0.0
H906 H 0.19774 0.57621 0.4649 0.0
H907 H 0.18395 0.59463 0.44728 0.0
C908 C 0.55552 0.10456 0.6021 0.0
C909 C 0.53301 0.10643 0.59025 0.0
C910 C 0.56828 0.1206 0.6224 0.0
C911 C 0.55984 0.14051 0.6306 0.0
C912 C 0.53778 0.14327 0.6185 0.0
C913 C 0.52421 0.1258 0.5988 0.0
C914 C 0.5907 0.11601 0.63518 0.0
C915 C 0.52853 0.16474 0.62635 0.0
C916 C 0.57333 0.16767 0.69267 0.0
C917 C 0.59914 0.19471 0.69108 0.0
C918 C 0.56099 0.14921 0.6733 0.0
C919 C 0.5742 0.15861 0.6517 0.0
C920 C 0.60061 0.18581 0.65015 0.0
C921 C 0.61279 0.20351 0.6699 0.0
C922 C 0.53347 0.11997 0.67588 0.0
C923 C 0.61537 0.19681 0.6275 0.0
H924 H 0.56351 0.09063 0.59555 0.0
H925 H 0.50654 0.1273 0.5903 0.0
H926 H 0.61175 0.13686 0.63646 0.0
H927 H 0.58304 0.10894 0.65281 0.0
H928 H 0.59474 0.09943 0.62676 0.0
H929 H 0.5121 0.1653 0.61446 0.0
H930 H 0.51884 0.15897 0.6436 0.0
H931 H 0.5481 0.18697 0.62779 0.0
H932 H 0.56268 0.16107 0.70907 0.0
H933 H 0.63235 0.22481 0.66862 0.0
H934 H 0.53645 0.10246 0.66802 0.0
H935 H 0.51468 0.11981 0.66675 0.0
H936 H 0.52761 0.11477 0.69412 0.0
H937 H 0.62032 0.18073 0.61941 0.0
H938 H 0.63625 0.218 0.62937 0.0
H939 H 0.6002 0.19951 0.61565 0.0
C940 C 0.4522 0.54235 0.78043 0.0
C941 C 0.43931 0.5414 0.75899 0.0
C942 C 0.44377 0.5513 0.80028 0.0
C943 C 0.42178 0.55936 0.7987 0.0
C944 C 0.40884 0.55869 0.7771 0.0
C945 C 0.4178 0.54979 0.75751 0.0
C946 C 0.4581 0.55175 0.823 0.0
C947 C 0.38532 0.56711 0.77473 0.0
C948 C 0.37979 0.55423 0.85267 0.0
C949 C 0.39378 0.58342 0.86041 0.0
C950 C 0.38848 0.54618 0.8325 0.0
C951 C 0.41184 0.56779 0.81975 0.0
C952 C 0.42594 0.5973 0.82731 0.0
C953 C 0.41672 0.60477 0.84751 0.0
C954 C 0.37279 0.51449 0.82493 0.0
C955 C 0.45102 0.62093 0.81421 0.0
H956 H 0.46852 0.53553 0.7818 0.0
H957 H 0.40805 0.54954 0.74096 0.0
H958 H 0.46804 0.57377 0.83116 0.0
H959 H 0.44121 0.53626 0.83478 0.0
H960 H 0.47555 0.5458 0.82121 0.0
H961 H 0.37777 0.56581 0.75666 0.0
H962 H 0.36603 0.55253 0.78512 0.0
H963 H 0.39383 0.58968 0.7814 0.0
H964 H 0.36203 0.53751 0.86242 0.0
H965 H 0.42776 0.62737 0.85329 0.0
H966 H 0.3887 0.50645 0.82439 0.0
H967 H 0.36347 0.51208 0.80735 0.0
H968 H 0.35465 0.50045 0.83652 0.0
H969 H 0.46952 0.6164 0.81339 0.0
H970 H 0.45935 0.64291 0.82215 0.0
H971 H 0.44376 0.62117 0.79632 0.0
C972 C 0.92618 0.4765 0.94262 0.0
C973 C 0.91488 0.46979 0.9201 0.0
C974 C 0.90754 0.46511 0.96138 0.0
C975 C 0.87689 0.4463 0.95751 0.0
C976 C 0.86531 0.43964 0.9348 0.0
C977 C 0.88444 0.4516 0.91636 0.0
C978 C 0.92069 0.47299 0.98535 0.0
C979 C 0.83282 0.4194 0.92999 0.0
C980 C 0.83614 0.39517 0.00588 0.0
C981 C 0.82296 0.40948 0.01669 0.0
C982 C 0.85304 0.4065 0.98624 0.0
C983 C 0.85719 0.43298 0.97729 0.0
C984 C 0.84349 0.44726 0.98781 0.0
C985 C 0.8264 0.43526 0.00731 0.0
C986 C 0.86699 0.39042 0.97534 0.0
C987 C 0.84761 0.47567 0.97887 0.0
H988 H 0.94966 0.49081 0.94556 0.0
H989 H 0.87569 0.44614 0.89895 0.0
H990 H 0.90968 0.48262 0.99539 0.0
H991 H 0.91694 0.45305 0.99424 0.0
H992 H 0.94478 0.48874 0.98543 0.0
H993 H 0.82722 0.41701 0.91138 0.0
H994 H 0.82604 0.39753 0.93684 0.0
H995 H 0.81969 0.42762 0.93883 0.0
H996 H 0.83348 0.37514 0.01288 0.0
H997 H 0.81644 0.44657 0.01557 0.0
H998 H 0.89136 0.40403 0.97662 0.0
H999 H 0.86086 0.38626 0.95686 0.0
H1000 H 0.86023 0.36925 0.98359 0.0
H1001 H 0.87125 0.49269 0.98027 0.0
H1002 H 0.8345 0.48342 0.98841 0.0
H1003 H 0.84111 0.47318 0.96046 0.0
C1004 C 0.45764 0.89456 0.08406 0.0
C1005 C 0.46842 0.92462 0.08652 0.0
C1006 C 0.45011 0.87669 0.1033 0.0
C1007 C 0.45314 0.88916 0.12548 0.0
C1008 C 0.46334 0.91938 0.12799 0.0
C1009 C 0.47101 0.93676 0.1085 0.0
C1010 C 0.43963 0.84464 0.09994 0.0
C1011 C 0.46652 0.93344 0.1513 0.0
C1012 C 0.41256 0.84053 0.17536 0.0
C1013 C 0.43531 0.83871 0.1868 0.0
C1014 C 0.41793 0.85659 0.15523 0.0
C1015 C 0.44665 0.87088 0.14617 0.0
C1016 C 0.46952 0.86855 0.15732 0.0
C1017 C 0.46363 0.85267 0.17754 0.0
C1018 C 0.39304 0.85882 0.14397 0.0
C1019 C 0.50037 0.88319 0.14805 0.0
H1020 H 0.45587 0.88516 0.06712 0.0
H1021 H 0.479 0.95993 0.11043 0.0
H1022 H 0.45533 0.83931 0.10851 0.0
H1023 H 0.4179 0.83135 0.10798 0.0
H1024 H 0.43757 0.83816 0.08154 0.0
H1025 H 0.4735 0.95694 0.15024 0.0
H1026 H 0.44528 0.92214 0.16036 0.0
H1027 H 0.48308 0.93132 0.16187 0.0
H1028 H 0.39063 0.82996 0.18241 0.0
H1029 H 0.48134 0.85127 0.18614 0.0
H1030 H 0.39018 0.85133 0.12581 0.0
H1031 H 0.39846 0.88193 0.14403 0.0
H1032 H 0.37178 0.84572 0.15276 0.0
H1033 H 0.49981 0.87622 0.12996 0.0
H1034 H 0.51532 0.8781 0.15812 0.0
H1035 H 0.50978 0.90718 0.14829 0.0
C1036 C 0.58988 0.47801 0.25913 0.0
C1037 C 0.56725 0.48489 0.25988 0.0
C1038 C 0.59911 0.46971 0.27893 0.0
C1039 C 0.58527 0.46807 0.29998 0.0
C1040 C 0.56202 0.47438 0.30078 0.0
C1041 C 0.55336 0.4828 0.28076 0.0
C1042 C 0.62401 0.46317 0.27738 0.0
C1043 C 0.54668 0.47284 0.32289 0.0
C1044 C 0.59407 0.42558 0.34865 0.0
C1045 C 0.61616 0.44804 0.36237 0.0
C1046 C 0.5838 0.43173 0.32829 0.0
C1047 C 0.59599 0.46101 0.32139 0.0
C1048 C 0.61838 0.48374 0.33505 0.0
C1049 C 0.62811 0.47701 0.35535 0.0
C1050 C 0.55976 0.40693 0.31422 0.0
C1051 C 0.63207 0.51524 0.32824 0.0
H1052 H 0.60041 0.47908 0.24302 0.0
H1053 H 0.53613 0.48843 0.2816 0.0
H1054 H 0.64284 0.47881 0.28845 0.0
H1055 H 0.61681 0.441 0.28374 0.0
H1056 H 0.63184 0.46458 0.25958 0.0
H1057 H 0.52798 0.47691 0.3204 0.0
H1058 H 0.53822 0.45109 0.33056 0.0
H1059 H 0.56263 0.48925 0.33541 0.0
H1060 H 0.58459 0.40314 0.35388 0.0
H1061 H 0.64521 0.49459 0.36572 0.0
H1062 H 0.56751 0.40688 0.29663 0.0
H1063 H 0.54029 0.40991 0.31267 0.0
H1064 H 0.55271 0.38536 0.32185 0.0
H1065 H 0.64187 0.51813 0.31105 0.0
H1066 H 0.64951 0.53032 0.3406 0.0
H1067 H 0.61485 0.52156 0.32706 0.0
C1068 C 0.46332 0.93708 0.37259 0.0
C1069 C 0.43863 0.93019 0.38579 0.0
C1070 C 0.46059 0.92193 0.35201 0.0
C1071 C 0.43263 0.89872 0.34482 0.0
C1072 C 0.40749 0.89202 0.35797 0.0
C1073 C 0.41076 0.90808 0.37823 0.0
C1074 C 0.4878 0.93029 0.33836 0.0
C1075 C 0.37727 0.86746 0.35093 0.0
C1076 C 0.41695 0.86901 0.2835 0.0
C1077 C 0.41837 0.84344 0.28565 0.0
C1078 C 0.42278 0.88792 0.30241 0.0
C1079 C 0.42968 0.88074 0.32403 0.0
C1080 C 0.43197 0.8553 0.32607 0.0
C1081 C 0.4259 0.83676 0.30689 0.0
C1082 C 0.42048 0.91499 0.29943 0.0
C1083 C 0.43965 0.84702 0.3487 0.0
H1084 H 0.48484 0.95441 0.37841 0.0
H1085 H 0.3917 0.90282 0.38853 0.0
H1086 H 0.49388 0.9132 0.34025 0.0
H1087 H 0.48346 0.93167 0.31991 0.0
H1088 H 0.50683 0.95146 0.34427 0.0
H1089 H 0.35988 0.86557 0.36268 0.0
H1090 H 0.37153 0.87086 0.33332 0.0
H1091 H 0.37727 0.84651 0.3507 0.0
H1092 H 0.41064 0.87387 0.26709 0.0
H1093 H 0.42592 0.81642 0.30872 0.0
H1094 H 0.44068 0.93442 0.30632 0.0
H1095 H 0.40161 0.91305 0.30927 0.0
H1096 H 0.41728 0.91867 0.28118 0.0
H1097 H 0.46062 0.86532 0.35577 0.0
H1098 H 0.44202 0.82736 0.34712 0.0
H1099 H 0.4222 0.84266 0.36122 0.0
C1100 C 0.52905 0.42714 0.5532 0.0
C1101 C 0.53572 0.45521 0.56014 0.0
C1102 C 0.54133 0.42273 0.53332 0.0
C1103 C 0.56016 0.44694 0.51986 0.0
C1104 C 0.56602 0.47517 0.52652 0.0
C1105 C 0.55411 0.47903 0.54677 0.0
C1106 C 0.53452 0.39226 0.52689 0.0
C1107 C 0.58519 0.5014 0.51249 0.0
C1108 C 0.61315 0.43675 0.48204 0.0
C1109 C 0.59818 0.42951 0.46083 0.0
C1110 C 0.60165 0.44372 0.50117 0.0
C1111 C 0.57413 0.44267 0.49914 0.0
C1112 C 0.55922 0.43589 0.47758 0.0
C1113 C 0.57133 0.42914 0.45873 0.0
C1114 C 0.61845 0.45113 0.52373 0.0
C1115 C 0.52998 0.43475 0.47461 0.0
H1116 H 0.51478 0.40875 0.56364 0.0
H1117 H 0.55898 0.5007 0.55211 0.0
H1118 H 0.52456 0.3863 0.50939 0.0
H1119 H 0.55524 0.39136 0.52666 0.0
H1120 H 0.51917 0.37576 0.53898 0.0
H1121 H 0.58534 0.52136 0.51877 0.0
H1122 H 0.60803 0.5054 0.51325 0.0
H1123 H 0.57759 0.49725 0.49431 0.0
H1124 H 0.63338 0.43598 0.48385 0.0
H1125 H 0.55954 0.42303 0.44237 0.0
H1126 H 0.60534 0.43432 0.53644 0.0
H1127 H 0.62205 0.47233 0.53057 0.0
H1128 H 0.64021 0.45247 0.52215 0.0
H1129 H 0.51301 0.41662 0.48468 0.0
H1130 H 0.52241 0.43143 0.45639 0.0
H1131 H 0.53159 0.45523 0.48123 0.0
C1132 C 0.11982 0.54754 0.71983 0.0
C1133 C 0.10429 0.56198 0.72554 0.0
C1134 C 0.13721 0.55477 0.70023 0.0
C1135 C 0.13822 0.57611 0.68534 0.0
C1136 C 0.12263 0.59074 0.69084 0.0
C1137 C 0.10642 0.58395 0.71105 0.0
C1138 C 0.15418 0.53922 0.6953 0.0
C1139 C 0.12249 0.61308 0.67507 0.0
C1140 C 0.19896 0.61064 0.64151 0.0
C1141 C 0.18535 0.59277 0.62211 0.0
C1142 C 0.18407 0.60526 0.66234 0.0
C1143 C 0.15451 0.58217 0.6635 0.0
C1144 C 0.14049 0.5645 0.6438 0.0
C1145 C 0.15629 0.56962 0.62351 0.0
C1146 C 0.20014 0.62386 0.6832 0.0
C1147 C 0.1087 0.54028 0.64407 0.0
H1148 H 0.11809 0.53012 0.7304 0.0
H1149 H 0.09532 0.59594 0.71539 0.0
H1150 H 0.1448 0.52508 0.67977 0.0
H1151 H 0.17756 0.55528 0.69183 0.0
H1152 H 0.15355 0.52545 0.70974 0.0
H1153 H 0.1089 0.62222 0.68166 0.0
H1154 H 0.1453 0.63126 0.67276 0.0
H1155 H 0.11369 0.60298 0.65791 0.0
H1156 H 0.22156 0.62833 0.64056 0.0
H1157 H 0.14565 0.55569 0.60863 0.0
H1158 H 0.20032 0.60983 0.69711 0.0
H1159 H 0.18851 0.63507 0.6897 0.0
H1160 H 0.22328 0.64055 0.67956 0.0
H1161 H 0.10627 0.52334 0.65625 0.0
H1162 H 0.10051 0.52978 0.62691 0.0
H1163 H 0.09447 0.54894 0.65006 0.0
C1164 C 0.55081 0.11297 0.87641 0.0
C1165 C 0.57092 0.11117 0.89154 0.0
C1166 C 0.5603 0.12963 0.85653 0.0
C1167 C 0.5908 0.14589 0.852 0.0
C1168 C 0.61134 0.14508 0.86752 0.0
C1169 C 0.60117 0.12738 0.88683 0.0
C1170 C 0.53762 0.12936 0.84014 0.0
C1171 C 0.64411 0.16268 0.86359 0.0
C1172 C 0.61552 0.16619 0.79073 0.0
C1173 C 0.62013 0.19461 0.78972 0.0
C1174 C 0.60552 0.14997 0.81076 0.0
C1175 C 0.6011 0.16286 0.83058 0.0
C1176 C 0.60637 0.19182 0.82985 0.0
C1177 C 0.61532 0.20717 0.8093 0.0
C1178 C 0.5993 0.11887 0.81059 0.0
C1179 C 0.60289 0.20667 0.85084 0.0
H1180 H 0.52748 0.10132 0.88 0.0
H1181 H 0.61704 0.12595 0.89798 0.0
H1182 H 0.54143 0.15178 0.83819 0.0
H1183 H 0.53979 0.12153 0.82295 0.0
H1184 H 0.5147 0.11516 0.84595 0.0
H1185 H 0.65728 0.16173 0.87828 0.0
H1186 H 0.64967 0.1544 0.848 0.0
H1187 H 0.6508 0.18584 0.86069 0.0
H1188 H 0.61917 0.15635 0.77569 0.0
H1189 H 0.61918 0.22926 0.80867 0.0
H1190 H 0.57619 0.104 0.81561 0.0
H1191 H 0.61384 0.11652 0.82331 0.0
H1192 H 0.60275 0.11171 0.7935 0.0
H1193 H 0.57975 0.19464 0.85659 0.0
H1194 H 0.6089 0.22962 0.84766 0.0
H1195 H 0.61699 0.20648 0.8651 0.0
C1196 C 0.48308 0.60094 0.05286 0.0
C1197 C 0.47473 0.57242 0.05905 0.0
C1198 C 0.47166 0.60627 0.03275 0.0
C1199 C 0.45192 0.58252 0.01834 0.0
C1200 C 0.44445 0.5538 0.0242 0.0
C1201 C 0.45558 0.54906 0.04465 0.0
C1202 C 0.48029 0.63725 0.02713 0.0
C1203 C 0.42418 0.52798 0.00918 0.0
C1204 C 0.40109 0.59657 0.98027 0.0
C1205 C 0.41565 0.60283 0.95938 0.0
C1206 C 0.41193 0.58862 0.99932 0.0
C1207 C 0.43848 0.58779 0.99758 0.0
C1208 C 0.453 0.59366 0.97635 0.0
C1209 C 0.44148 0.60131 0.95753 0.0
C1210 C 0.39554 0.58214 0.02152 0.0
C1211 C 0.48125 0.5929 0.97373 0.0
H1212 H 0.49794 0.61898 0.06407 0.0
H1213 H 0.44942 0.52702 0.04938 0.0
H1214 H 0.48997 0.64261 0.00984 0.0
H1215 H 0.46041 0.63964 0.02677 0.0
H1216 H 0.49649 0.65331 0.03975 0.0
H1217 H 0.4236 0.50763 0.01452 0.0
H1218 H 0.40165 0.52465 0.01019 0.0
H1219 H 0.43099 0.5321 0.99108 0.0
H1220 H 0.38176 0.59888 0.98192 0.0
H1221 H 0.453 0.60669 0.94143 0.0
H1222 H 0.40957 0.59855 0.03485 0.0
H1223 H 0.39058 0.56045 0.02768 0.0
H1224 H 0.37451 0.58236 0.01971 0.0
H1225 H 0.49897 0.61046 0.98452 0.0
H1226 H 0.48859 0.59586 0.9557 0.0
H1227 H 0.47838 0.57186 0.97975 0.0
C1228 C 0.89636 0.49494 0.21021 0.0
C1229 C 0.91775 0.4881 0.21739 0.0
C1230 C 0.8798 0.4826 0.1899 0.0
C1231 C 0.88529 0.46352 0.17628 0.0
C1232 C 0.9077 0.4575 0.18317 0.0
C1233 C 0.92331 0.46949 0.20382 0.0
C1234 C 0.85603 0.4895 0.18326 0.0
C1235 C 0.91475 0.4377 0.16931 0.0
C1236 C 0.82151 0.4111 0.13732 0.0
C1237 C 0.82883 0.42595 0.11663 0.0
C1238 C 0.84042 0.42236 0.15661 0.0
C1239 C 0.86697 0.44943 0.15522 0.0
C1240 C 0.87493 0.46393 0.13405 0.0
C1241 C 0.85554 0.45218 0.11505 0.0
C1242 C 0.83142 0.40589 0.1787 0.0
C1243 C 0.90353 0.49225 0.13167 0.0
H1244 H 0.89206 0.5093 0.22081 0.0
H1245 H 0.94006 0.4644 0.20934 0.0
H1246 H 0.86022 0.4991 0.16598 0.0
H1247 H 0.8343 0.4691 0.1824 0.0
H1248 H 0.85473 0.50495 0.19558 0.0
H1249 H 0.89973 0.41496 0.17443 0.0
H1250 H 0.91169 0.43944 0.15072 0.0
H1251 H 0.93775 0.44262 0.17262 0.0
H1252 H 0.80042 0.39122 0.13868 0.0
H1253 H 0.86096 0.46375 0.09905 0.0
H1254 H 0.82821 0.41915 0.192 0.0
H1255 H 0.84915 0.40192 0.18501 0.0
H1256 H 0.8107 0.38457 0.17665 0.0
H1257 H 0.90327 0.50946 0.14252 0.0
H1258 H 0.90746 0.49968 0.11368 0.0
H1259 H 0.92228 0.48972 0.13778 0.0
loop_
_geom_bond_atom_site_label_1
_geom_bond_atom_site_label_2
_geom_bond_distance
_geom_bond_site_symmetry_2
_ccdc_geom_bond_type
C0 C1 1.384 . S
C0 C2 1.384 . S
C0 H28 0.931 . S
C1 C0 1.384 . S
C1 C4 1.382 . S
C2 C0 1.384 . S
C2 C3 1.381 . S
C2 H29 0.930 . S
C3 C2 1.381 . S
C3 C5 1.381 . S
C3 C6 1.487 . S
C4 C1 1.382 . S
C4 C5 1.387 . S
C4 H30 0.930 . S
C5 C3 1.381 . S
C5 C4 1.387 . S
C5 H31 0.931 . S
C6 C3 1.487 . S
C6 C13 1.399 . S
C6 N44 1.343 . S
C7 C8 1.384 . S
C7 C9 1.384 . S
C7 H32 0.931 . S
C8 C7 1.384 . S
C8 C11 1.382 . S
C9 C7 1.384 . S
C9 C10 1.381 . S
C9 H33 0.930 . S
C10 C9 1.381 . S
C10 C12 1.381 . S
C10 C13 1.487 . S
C11 C8 1.382 . S
C11 C12 1.387 . S
C11 H34 0.930 . S
C12 C10 1.381 . S
C12 C11 1.387 . S
C12 H35 0.931 . S
C13 C6 1.399 . S
C13 C10 1.487 . S
C13 N45 1.343 1_655 S
C14 C15 1.384 . S
C14 C16 1.384 . S
C14 H36 0.931 . S
C15 C14 1.384 . S
C15 C18 1.382 . S
C16 C14 1.384 . S
C16 C17 1.381 . S
C16 H37 0.930 . S
C17 C16 1.381 . S
C17 C19 1.381 . S
C17 C20 1.487 . S
C18 C15 1.382 . S
C18 C19 1.387 . S
C18 H38 0.930 . S
C19 C17 1.381 . S
C19 C18 1.387 . S
C19 H39 0.931 . S
C20 C17 1.487 . S
C20 C27 1.399 . S
C20 N45 1.343 . S
C21 C22 1.384 . S
C21 C23 1.384 . S
C21 H40 0.931 . S
C22 C21 1.384 . S
C22 C25 1.382 . S
C23 C21 1.384 . S
C23 C24 1.381 . S
C23 H41 0.930 . S
C24 C23 1.381 . S
C24 C26 1.381 . S
C24 C27 1.487 . S
C25 C22 1.382 . S
C25 C26 1.387 . S
C25 H42 0.930 . S
C26 C24 1.381 . S
C26 C25 1.387 . S
C26 H43 0.931 . S
C27 C20 1.399 . S
C27 C24 1.487 . S
C27 N44 1.343 1_455 S
H28 C0 0.931 . S
H29 C2 0.930 . S
H30 C4 0.930 . S
H31 C5 0.931 . S
H32 C7 0.931 . S
H33 C9 0.930 . S
H34 C11 0.930 . S
H35 C12 0.931 . S
H36 C14 0.931 . S
H37 C16 0.930 . S
H38 C18 0.930 . S
H39 C19 0.931 . S
H40 C21 0.931 . S
H41 C23 0.930 . S
H42 C25 0.930 . S
H43 C26 0.931 . S
N44 C6 1.343 . S
N44 C27 1.343 1_655 S
N45 C13 1.343 1_455 S
N45 C20 1.343 . S
C46 C47 1.384 . S
C46 C48 1.384 . S
C46 H74 0.931 . S
C47 C46 1.384 . S
C47 C50 1.382 . S
C48 C46 1.384 . S
C48 C49 1.381 . S
C48 H75 0.930 . S
C49 C48 1.381 . S
C49 C51 1.381 . S
C49 C52 1.487 . S
C50 C47 1.382 . S
C50 C51 1.387 . S
C50 H76 0.930 . S
C51 C49 1.381 . S
C51 C50 1.387 . S
C51 H77 0.931 . S
C52 C49 1.487 . S
C52 C59 1.399 . S
C52 N90 1.343 1_565 S
C53 C54 1.384 . S
C53 C55 1.384 . S
C53 H78 0.931 . S
C54 C53 1.384 . S
C54 C57 1.382 . S
C55 C53 1.384 . S
C55 C56 1.381 . S
C55 H79 0.930 . S
C56 C55 1.381 . S
C56 C58 1.381 . S
C56 C59 1.487 . S
C57 C54 1.382 . S
C57 C58 1.387 . S
C57 H80 0.930 . S
C58 C56 1.381 . S
C58 C57 1.387 . S
C58 H81 0.931 . S
C59 C52 1.399 . S
C59 C56 1.487 . S
C59 N91 1.343 1_565 S
C60 C61 1.384 . S
C60 C62 1.384 . S
C60 H82 0.931 . S
C61 C60 1.384 . S
C61 C64 1.382 . S
C62 C60 1.384 . S
C62 C63 1.381 . S
C62 H83 0.930 . S
C63 C62 1.381 . S
C63 C65 1.381 . S
C63 C66 1.487 . S
C64 C61 1.382 . S
C64 C65 1.387 . S
C64 H84 0.930 . S
C65 C63 1.381 . S
C65 C64 1.387 . S
C65 H85 0.931 . S
C66 C63 1.487 . S
C66 C73 1.399 . S
C66 N91 1.343 . S
C67 C68 1.384 . S
C67 C69 1.384 . S
C67 H86 0.931 . S
C68 C67 1.384 . S
C68 C71 1.382 . S
C69 C67 1.384 . S
C69 C70 1.381 . S
C69 H87 0.930 . S
C70 C69 1.381 . S
C70 C72 1.381 . S
C70 C73 1.487 . S
C71 C68 1.382 . S
C71 C72 1.387 . S
C71 H88 0.930 . S
C72 C70 1.381 . S
C72 C71 1.387 . S
C72 H89 0.931 . S
C73 C66 1.399 . S
C73 C70 1.487 . S
C73 N90 1.343 . S
H74 C46 0.931 . S
H75 C48 0.930 . S
H76 C50 0.930 . S
H77 C51 0.931 . S
H78 C53 0.931 . S
H79 C55 0.930 . S
H80 C57 0.930 . S
H81 C58 0.931 . S
H82 C60 0.931 . S
H83 C62 0.930 . S
H84 C64 0.930 . S
H85 C65 0.931 . S
H86 C67 0.931 . S
H87 C69 0.930 . S
H88 C71 0.930 . S
H89 C72 0.931 . S
N90 C52 1.343 1_545 S
N90 C73 1.343 . S
N91 C59 1.343 1_545 S
N91 C66 1.343 . S
C92 C93 1.384 . S
C92 C94 1.384 . S
C92 H120 0.931 . S
C93 C92 1.384 . S
C93 C96 1.382 . S
C94 C92 1.384 . S
C94 C95 1.381 . S
C94 H121 0.930 . S
C95 C94 1.381 . S
C95 C97 1.381 . S
C95 C98 1.487 . S
C96 C93 1.382 . S
C96 C97 1.387 . S
C96 H122 0.930 . S
C97 C95 1.381 . S
C97 C96 1.387 . S
C97 H123 0.931 . S
C98 C95 1.487 . S
C98 C105 1.399 . S
C98 N136 1.343 . S
C99 C100 1.384 . S
C99 C101 1.384 . S
C99 H124 0.931 . S
C100 C99 1.384 . S
C100 C103 1.382 . S
C101 C99 1.384 . S
C101 C102 1.381 . S
C101 H125 0.930 . S
C102 C101 1.381 . S
C102 C104 1.381 . S
C102 C105 1.487 . S
C103 C100 1.382 . S
C103 C104 1.387 . S
C103 H126 0.930 . S
C104 C102 1.381 . S
C104 C103 1.387 . S
C104 H127 0.931 . S
C105 C98 1.399 . S
C105 C102 1.487 . S
C105 N137 1.343 . S
C106 C107 1.384 . S
C106 C108 1.384 . S
C106 H128 0.931 . S
C107 C106 1.384 . S
C107 C110 1.382 . S
C108 C106 1.384 . S
C108 C109 1.381 . S
C108 H129 0.930 . S
C109 C108 1.381 . S
C109 C111 1.381 . S
C109 C112 1.487 . S
C110 C107 1.382 . S
C110 C111 1.387 . S
C110 H130 0.930 . S
C111 C109 1.381 . S
C111 C110 1.387 . S
C111 H131 0.931 . S
C112 C109 1.487 . S
C112 C119 1.399 . S
C112 N137 1.343 . S
C113 C114 1.384 . S
C113 C115 1.384 . S
C113 H132 0.931 . S
C114 C113 1.384 . S
C114 C117 1.382 . S
C115 C113 1.384 . S
C115 C116 1.381 . S
C115 H133 0.930 . S
C116 C115 1.381 . S
C116 C118 1.381 . S
C116 C119 1.487 . S
C117 C114 1.382 . S
C117 C118 1.387 . S
C117 H134 0.930 . S
C118 C116 1.381 . S
C118 C117 1.387 . S
C118 H135 0.931 . S
C119 C112 1.399 . S
C119 C116 1.487 . S
C119 N136 1.343 . S
H120 C92 0.931 . S
H121 C94 0.930 . S
H122 C96 0.930 . S
H123 C97 0.931 . S
H124 C99 0.931 . S
H125 C101 0.930 . S
H126 C103 0.930 . S
H127 C104 0.931 . S
H128 C106 0.931 . S
H129 C108 0.930 . S
H130 C110 0.930 . S
H131 C111 0.931 . S
H132 C113 0.931 . S
H133 C115 0.930 . S
H134 C117 0.930 . S
H135 C118 0.931 . S
N136 C98 1.343 . S
N136 C119 1.343 . S
N137 C105 1.343 . S
N137 C112 1.343 . S
C138 C139 1.384 . S
C138 C140 1.384 . S
C138 H166 0.931 . S
C139 C138 1.384 . S
C139 C142 1.382 . S
C140 C138 1.384 . S
C140 C141 1.381 . S
C140 H167 0.930 . S
C141 C140 1.381 . S
C141 C143 1.381 . S
C141 C144 1.487 . S
C142 C139 1.382 . S
C142 C143 1.387 . S
C142 H168 0.930 . S
C143 C141 1.381 . S
C143 C142 1.387 . S
C143 H169 0.931 . S
C144 C141 1.487 . S
C144 C151 1.399 . S
C144 N182 1.343 . S
C145 C146 1.384 . S
C145 C147 1.384 . S
C145 H170 0.931 . S
C146 C145 1.384 . S
C146 C149 1.382 . S
C147 C145 1.384 . S
C147 C148 1.381 . S
C147 H171 0.930 . S
C148 C147 1.381 . S
C148 C150 1.381 . S
C148 C151 1.487 . S
C149 C146 1.382 . S
C149 C150 1.387 . S
C149 H172 0.930 . S
C150 C148 1.381 . S
C150 C149 1.387 . S
C150 H173 0.931 . S
C151 C144 1.399 . S
C151 C148 1.487 . S
C151 N183 1.343 1_655 S
C152 C153 1.384 . S
C152 C154 1.384 . S
C152 H174 0.931 . S
C153 C152 1.384 . S
C153 C156 1.382 . S
C154 C152 1.384 . S
C154 C155 1.381 . S
C154 H175 0.930 . S
C155 C154 1.381 . S
C155 C157 1.381 . S
C155 C158 1.487 . S
C156 C153 1.382 . S
C156 C157 1.387 . S
C156 H176 0.930 . S
C157 C155 1.381 . S
C157 C156 1.387 . S
C157 H177 0.931 . S
C158 C155 1.487 . S
C158 C165 1.399 . S
C158 N183 1.343 . S
C159 C160 1.384 . S
C159 C161 1.384 . S
C159 H178 0.931 . S
C160 C159 1.384 . S
C160 C163 1.382 . S
C161 C159 1.384 . S
C161 C162 1.381 . S
C161 H179 0.930 . S
C162 C161 1.381 . S
C162 C164 1.381 . S
C162 C165 1.487 . S
C163 C160 1.382 . S
C163 C164 1.387 . S
C163 H180 0.930 . S
C164 C162 1.381 . S
C164 C163 1.387 . S
C164 H181 0.931 . S
C165 C158 1.399 . S
C165 C162 1.487 . S
C165 N182 1.343 1_455 S
H166 C138 0.931 . S
H167 C140 0.930 . S
H168 C142 0.930 . S
H169 C143 0.931 . S
H170 C145 0.931 . S
H171 C147 0.930 . S
H172 C149 0.930 . S
H173 C150 0.931 . S
H174 C152 0.931 . S
H175 C154 0.930 . S
H176 C156 0.930 . S
H177 C157 0.931 . S
H178 C159 0.931 . S
H179 C161 0.930 . S
H180 C163 0.930 . S
H181 C164 0.931 . S
N182 C144 1.343 . S
N182 C165 1.343 1_655 S
N183 C151 1.343 1_455 S
N183 C158 1.343 . S
C184 C185 1.384 . S
C184 C186 1.384 . S
C184 H212 0.931 . S
C185 C184 1.384 . S
C185 C188 1.382 . S
C186 C184 1.384 . S
C186 C187 1.381 . S
C186 H213 0.903 1_556 S
C187 C186 1.381 . S
C187 C189 1.381 . S
C187 C190 1.487 . S
C188 C185 1.382 . S
C188 C189 1.387 . S
C188 H214 0.930 . S
C189 C187 1.381 . S
C189 C188 1.387 . S
C189 H215 0.931 . S
C190 C187 1.487 . S
C190 C197 1.399 1_566 S
C190 N228 1.343 1_565 S
C191 C192 1.384 . S
C191 C193 1.384 . S
C191 H216 0.931 . S
C192 C191 1.384 . S
C192 C195 1.382 . S
C193 C191 1.384 . S
C193 C194 1.381 . S
C193 H217 0.930 . S
C194 C193 1.381 . S
C194 C196 1.381 . S
C194 C197 1.487 1_565 S
C195 C192 1.382 . S
C195 C196 1.387 . S
C195 H218 0.930 . S
C196 C194 1.381 . S
C196 C195 1.387 . S
C196 H219 0.931 1_565 S
C197 C190 1.399 1_544 S
C197 C194 1.487 1_545 S
C197 N229 1.343 . S
C198 C199 1.384 . S
C198 C200 1.384 1_554 S
C198 H220 0.919 1_554 S
C199 C198 1.384 . S
C199 C202 1.382 . S
C200 C198 1.384 1_556 S
C200 C201 1.381 1_556 S
C200 H221 0.930 . S
C201 C200 1.381 1_554 S
C201 C203 1.381 . S
C201 C204 1.487 1_554 S
C202 C199 1.382 . S
C202 C203 1.387 . S
C202 H222 0.930 . S
C203 C201 1.381 . S
C203 C202 1.387 . S
C203 H223 0.931 . S
C204 C201 1.487 1_556 S
C204 C211 1.399 . S
C204 N229 1.343 1_556 S
C205 C206 1.384 . S
C205 C207 1.384 . S
C205 H224 0.931 . S
C206 C205 1.384 . S
C206 C209 1.382 . S
C207 C205 1.384 . S
C207 C208 1.381 . S
C207 H225 0.930 . S
C208 C207 1.381 . S
C208 C210 1.381 . S
C208 C211 1.487 . S
C209 C206 1.382 . S
C209 C210 1.387 . S
C209 H226 0.930 . S
C210 C208 1.381 . S
C210 C209 1.387 . S
C210 H227 0.931 . S
C211 C204 1.399 . S
C211 C208 1.487 . S
C211 N228 1.343 . S
H212 C184 0.931 . S
H213 C186 0.903 1_554 S
H214 C188 0.930 . S
H215 C189 0.931 . S
H216 C191 0.931 . S
H217 C193 0.930 . S
H218 C195 0.930 . S
H219 C196 0.931 1_545 S
H220 C198 0.919 1_556 S
H221 C200 0.930 . S
H222 C202 0.930 . S
H223 C203 0.931 . S
H224 C205 0.931 . S
H225 C207 0.930 . S
H226 C209 0.930 . S
H227 C210 0.931 . S
N228 C190 1.343 1_545 S
N228 C211 1.343 . S
N229 C197 1.343 . S
N229 C204 1.343 1_554 S
C230 C231 1.384 . S
C230 C232 1.384 . S
C230 H258 0.931 . S
C231 C230 1.384 . S
C231 C234 1.382 . S
C232 C230 1.384 . S
C232 C233 1.381 . S
C232 H259 0.930 . S
C233 C232 1.381 . S
C233 C235 1.381 . S
C233 C236 1.487 . S
C234 C231 1.382 . S
C234 C235 1.387 . S
C234 H260 0.930 . S
C235 C233 1.381 . S
C235 C234 1.387 . S
C235 H261 0.931 . S
C236 C233 1.487 . S
C236 C243 1.399 . S
C236 N274 1.343 . S
C237 C238 1.384 . S
C237 C239 1.384 . S
C237 H262 0.931 . S
C238 C237 1.384 . S
C238 C241 1.382 . S
C239 C237 1.384 . S
C239 C240 1.381 . S
C239 H263 0.930 . S
C240 C239 1.381 . S
C240 C242 1.381 . S
C240 C243 1.487 . S
C241 C238 1.382 . S
C241 C242 1.387 . S
C241 H264 0.930 . S
C242 C240 1.381 . S
C242 C241 1.387 . S
C242 H265 0.931 . S
C243 C236 1.399 . S
C243 C240 1.487 . S
C243 N275 1.343 . S
C244 C245 1.384 . S
C244 C246 1.384 . S
C244 H266 0.931 . S
C245 C244 1.384 . S
C245 C248 1.382 . S
C246 C244 1.384 . S
C246 C247 1.381 . S
C246 H267 0.930 . S
C247 C246 1.381 . S
C247 C249 1.381 . S
C247 C250 1.487 . S
C248 C245 1.382 . S
C248 C249 1.387 . S
C248 H268 0.930 . S
C249 C247 1.381 . S
C249 C248 1.387 . S
C249 H269 0.931 . S
C250 C247 1.487 . S
C250 C257 1.399 . S
C250 N275 1.343 . S
C251 C252 1.384 . S
C251 C253 1.384 . S
C251 H270 0.931 . S
C252 C251 1.384 . S
C252 C255 1.382 . S
C253 C251 1.384 . S
C253 C254 1.381 . S
C253 H271 0.930 . S
C254 C253 1.381 . S
C254 C256 1.381 . S
C254 C257 1.487 . S
C255 C252 1.382 . S
C255 C256 1.387 . S
C255 H272 0.930 . S
C256 C254 1.381 . S
C256 C255 1.387 . S
C256 H273 0.931 . S
C257 C250 1.399 . S
C257 C254 1.487 . S
C257 N274 1.343 . S
H258 C230 0.931 . S
H259 C232 0.930 . S
H260 C234 0.930 . S
H261 C235 0.931 . S
H262 C237 0.931 . S
H263 C239 0.930 . S
H264 C241 0.930 . S
H265 C242 0.931 . S
H266 C244 0.931 . S
H267 C246 0.930 . S
H268 C248 0.930 . S
H269 C249 0.931 . S
H270 C251 0.931 . S
H271 C253 0.930 . S
H272 C255 0.930 . S
H273 C256 0.931 . S
N274 C236 1.343 . S
N274 C257 1.343 . S
N275 C243 1.343 . S
N275 C250 1.343 . S
Mn276 O281 2.095 . S
Mn276 O291 2.162 . S
Mn276 O292 2.297 . S
Mn276 O300 2.385 . S
Mn276 O301 2.209 . S
Mn276 O302 2.094 . S
Mn277 O282 2.121 . S
Mn277 N284 2.257 . S
Mn277 N293 2.282 . S
Mn277 O301 2.215 . S
Mn277 O303 2.117 . S
C278 O300 1.234 . S
C278 O301 1.283 . S
C279 O291 1.281 . S
C279 O292 1.236 . S
C280 O302 1.240 . S
C280 O303 1.264 . S
O281 Mn276 2.095 . S
O281 C290 1.250 . S
O282 Mn277 2.121 . S
O282 C290 1.258 . S
C283 N284 1.326 . S
C283 C287 1.460 . S
C283 H289 0.929 . S
N284 Mn277 2.257 . S
N284 C283 1.326 . S
N284 C288 1.362 . S
C285 C286 1.258 . S
C285 C288 1.431 . S
C285 C305 1.449 . S
C286 C285 1.258 . S
C286 C287 1.477 . S
C286 H306 0.931 . S
C287 C283 1.460 . S
C287 C286 1.477 . S
C287 H307 0.930 . S
C288 N284 1.362 . S
C288 C285 1.431 . S
C288 C298 1.476 . S
H289 C283 0.929 . S
C290 O281 1.250 . S
C290 O282 1.258 . S
O291 Mn276 2.162 . S
O291 C279 1.281 . S
O292 Mn276 2.297 . S
O292 C279 1.236 . S
N293 Mn277 2.282 . S
N293 C294 1.328 . S
N293 C298 1.318 . S
C294 N293 1.328 . S
C294 C295 1.457 . S
C294 H299 0.929 . S
C295 C294 1.457 . S
C295 C296 1.291 . S
C295 H308 0.931 . S
C296 C295 1.291 . S
C296 C297 1.373 . S
C296 H309 0.929 . S
C297 C296 1.373 . S
C297 C298 1.396 . S
C297 C304 1.403 . S
C298 C288 1.476 . S
C298 N293 1.318 . S
C298 C297 1.396 . S
H299 C294 0.929 . S
O300 Mn276 2.385 . S
O300 C278 1.234 . S
O301 Mn276 2.209 . S
O301 Mn277 2.215 . S
O301 C278 1.283 . S
O302 Mn276 2.094 . S
O302 C280 1.240 . S
O303 Mn277 2.117 . S
O303 C280 1.264 . S
C304 C297 1.403 . S
C304 C305 1.399 . S
C304 H310 0.929 . S
C305 C285 1.449 . S
C305 C304 1.399 . S
C305 H311 0.930 . S
H306 C286 0.931 . S
H307 C287 0.930 . S
H308 C295 0.931 . S
H309 C296 0.929 . S
H310 C304 0.929 . S
H311 C305 0.930 . S
Mn312 O317 2.095 . S
Mn312 O327 2.162 . S
Mn312 O328 2.297 . S
Mn312 O336 2.385 . S
Mn312 O337 2.209 . S
Mn312 O338 2.094 . S
Mn313 O318 2.121 . S
Mn313 N320 2.257 . S
Mn313 N329 2.282 . S
Mn313 O337 2.215 . S
Mn313 O339 2.117 . S
C314 O336 1.234 . S
C314 O337 1.283 . S
C315 O327 1.281 . S
C315 O328 1.236 . S
C316 O338 1.240 . S
C316 O339 1.264 . S
O317 Mn312 2.095 . S
O317 C326 1.250 . S
O318 Mn313 2.121 . S
O318 C326 1.258 . S
C319 N320 1.326 . S
C319 C323 1.460 . S
C319 H325 0.929 . S
N320 Mn313 2.257 . S
N320 C319 1.326 . S
N320 C324 1.362 . S
C321 C322 1.258 . S
C321 C324 1.431 . S
C321 C341 1.449 . S
C322 C321 1.258 . S
C322 C323 1.477 . S
C322 H342 0.931 . S
C323 C319 1.460 . S
C323 C322 1.477 . S
C323 H343 0.930 . S
C324 N320 1.362 . S
C324 C321 1.431 . S
C324 C334 1.476 . S
H325 C319 0.929 . S
C326 O317 1.250 . S
C326 O318 1.258 . S
O327 Mn312 2.162 . S
O327 C315 1.281 . S
O328 Mn312 2.297 . S
O328 C315 1.236 . S
N329 Mn313 2.282 . S
N329 C330 1.328 . S
N329 C334 1.318 . S
C330 N329 1.328 . S
C330 C331 1.457 . S
C330 H335 0.929 . S
C331 C330 1.457 . S
C331 C332 1.291 . S
C331 H344 0.931 . S
C332 C331 1.291 . S
C332 C333 1.373 . S
C332 H345 0.929 . S
C333 C332 1.373 . S
C333 C334 1.396 . S
C333 C340 1.403 . S
C334 C324 1.476 . S
C334 N329 1.318 . S
C334 C333 1.396 . S
H335 C330 0.929 . S
O336 Mn312 2.385 . S
O336 C314 1.234 . S
O337 Mn312 2.209 . S
O337 Mn313 2.215 . S
O337 C314 1.283 . S
O338 Mn312 2.094 . S
O338 C316 1.240 . S
O339 Mn313 2.117 . S
O339 C316 1.264 . S
C340 C333 1.403 . S
C340 C341 1.399 . S
C340 H346 0.929 . S
C341 C321 1.449 . S
C341 C340 1.399 . S
C341 H347 0.930 . S
H342 C322 0.931 . S
H343 C323 0.930 . S
H344 C331 0.931 . S
H345 C332 0.929 . S
H346 C340 0.929 . S
H347 C341 0.930 . S
Mn348 O353 2.095 . S
Mn348 O363 2.162 . S
Mn348 O364 2.297 . S
Mn348 O372 2.385 . S
Mn348 O373 2.209 . S
Mn348 O374 2.094 . S
Mn349 O354 2.121 . S
Mn349 N356 2.257 . S
Mn349 N365 2.282 . S
Mn349 O373 2.215 . S
Mn349 O375 2.117 . S
C350 O372 1.234 . S
C350 O373 1.283 . S
C351 O363 1.281 . S
C351 O364 1.236 . S
C352 O374 1.240 . S
C352 O375 1.264 . S
O353 Mn348 2.095 . S
O353 C362 1.250 . S
O354 Mn349 2.121 . S
O354 C362 1.258 . S
C355 N356 1.326 . S
C355 C359 1.460 . S
C355 H361 0.929 . S
N356 Mn349 2.257 . S
N356 C355 1.326 . S
N356 C360 1.362 . S
C357 C358 1.258 . S
C357 C360 1.431 . S
C357 C377 1.449 . S
C358 C357 1.258 . S
C358 C359 1.477 . S
C358 H378 0.931 . S
C359 C355 1.460 . S
C359 C358 1.477 . S
C359 H379 0.930 . S
C360 N356 1.362 . S
C360 C357 1.431 . S
C360 C370 1.476 . S
H361 C355 0.929 . S
C362 O353 1.250 . S
C362 O354 1.258 . S
O363 Mn348 2.162 . S
O363 C351 1.281 . S
O364 Mn348 2.297 . S
O364 C351 1.236 . S
N365 Mn349 2.282 . S
N365 C366 1.328 . S
N365 C370 1.318 . S
C366 N365 1.328 . S
C366 C367 1.457 . S
C366 H371 0.929 . S
C367 C366 1.457 . S
C367 C368 1.291 . S
C367 H380 0.931 . S
C368 C367 1.291 . S
C368 C369 1.373 . S
C368 H381 0.929 . S
C369 C368 1.373 . S
C369 C370 1.396 . S
C369 C376 1.403 . S
C370 C360 1.476 . S
C370 N365 1.318 . S
C370 C369 1.396 . S
H371 C366 0.929 . S
O372 Mn348 2.385 . S
O372 C350 1.234 . S
O373 Mn348 2.209 . S
O373 Mn349 2.215 . S
O373 C350 1.283 . S
O374 Mn348 2.094 . S
O374 C352 1.240 . S
O375 Mn349 2.117 . S
O375 C352 1.264 . S
C376 C369 1.403 . S
C376 C377 1.399 . S
C376 H382 0.929 . S
C377 C357 1.449 . S
C377 C376 1.399 . S
C377 H383 0.930 . S
H378 C358 0.931 . S
H379 C359 0.930 . S
H380 C367 0.931 . S
H381 C368 0.929 . S
H382 C376 0.929 . S
H383 C377 0.930 . S
Mn384 O389 2.095 . S
Mn384 O399 2.162 . S
Mn384 O400 2.297 . S
Mn384 O408 2.385 . S
Mn384 O409 2.209 . S
Mn384 O410 2.094 . S
Mn385 O390 2.121 . S
Mn385 N392 2.257 . S
Mn385 N401 2.282 . S
Mn385 O409 2.215 . S
Mn385 O411 2.117 . S
C386 O408 1.234 . S
C386 O409 1.283 . S
C387 O399 1.281 . S
C387 O400 1.236 . S
C388 O410 1.240 . S
C388 O411 1.264 . S
O389 Mn384 2.095 . S
O389 C398 1.250 . S
O390 Mn385 2.121 . S
O390 C398 1.258 . S
C391 N392 1.326 . S
C391 C395 1.460 . S
C391 H397 0.929 . S
N392 Mn385 2.257 . S
N392 C391 1.326 . S
N392 C396 1.362 . S
C393 C394 1.258 . S
C393 C396 1.431 . S
C393 C413 1.449 . S
C394 C393 1.258 . S
C394 C395 1.477 . S
C394 H414 0.931 . S
C395 C391 1.460 . S
C395 C394 1.477 . S
C395 H415 0.930 . S
C396 N392 1.362 . S
C396 C393 1.431 . S
C396 C406 1.476 . S
H397 C391 0.929 . S
C398 O389 1.250 . S
C398 O390 1.258 . S
O399 Mn384 2.162 . S
O399 C387 1.281 . S
O400 Mn384 2.297 . S
O400 C387 1.236 . S
N401 Mn385 2.282 . S
N401 C402 1.328 . S
N401 C406 1.318 . S
C402 N401 1.328 . S
C402 C403 1.457 . S
C402 H407 0.929 . S
C403 C402 1.457 . S
C403 C404 1.291 . S
C403 H416 0.931 . S
C404 C403 1.291 . S
C404 C405 1.373 . S
C404 H417 0.929 . S
C405 C404 1.373 . S
C405 C406 1.396 . S
C405 C412 1.403 . S
C406 C396 1.476 . S
C406 N401 1.318 . S
C406 C405 1.396 . S
H407 C402 0.929 . S
O408 Mn384 2.385 . S
O408 C386 1.234 . S
O409 Mn384 2.209 . S
O409 Mn385 2.215 . S
O409 C386 1.283 . S
O410 Mn384 2.094 . S
O410 C388 1.240 . S
O411 Mn385 2.117 . S
O411 C388 1.264 . S
C412 C405 1.403 . S
C412 C413 1.399 . S
C412 H418 0.929 . S
C413 C393 1.449 . S
C413 C412 1.399 . S
C413 H419 0.930 . S
H414 C394 0.931 . S
H415 C395 0.930 . S
H416 C403 0.931 . S
H417 C404 0.929 . S
H418 C412 0.929 . S
H419 C413 0.930 . S
Mn420 O425 2.095 . S
Mn420 O435 2.162 . S
Mn420 O436 2.297 . S
Mn420 O444 2.385 . S
Mn420 O445 2.209 . S
Mn420 O446 2.094 . S
Mn421 O426 2.121 . S
Mn421 N428 2.257 . S
Mn421 N437 2.282 . S
Mn421 O445 2.215 . S
Mn421 O447 2.117 . S
C422 O444 1.234 . S
C422 O445 1.283 . S
C423 O435 1.281 . S
C423 O436 1.236 . S
C424 O446 1.240 . S
C424 O447 1.264 . S
O425 Mn420 2.095 . S
O425 C434 1.250 . S
O426 Mn421 2.121 . S
O426 C434 1.258 . S
C427 N428 1.326 . S
C427 C431 1.460 . S
C427 H433 0.929 . S
N428 Mn421 2.257 . S
N428 C427 1.326 . S
N428 C432 1.362 . S
C429 C430 1.258 . S
C429 C432 1.431 . S
C429 C449 1.449 . S
C430 C429 1.258 . S
C430 C431 1.477 . S
C430 H450 0.931 . S
C431 C427 1.460 . S
C431 C430 1.477 . S
C431 H451 0.930 . S
C432 N428 1.362 . S
C432 C429 1.431 . S
C432 C442 1.476 . S
H433 C427 0.929 . S
C434 O425 1.250 . S
C434 O426 1.258 . S
O435 Mn420 2.162 . S
O435 C423 1.281 . S
O436 Mn420 2.297 . S
O436 C423 1.236 . S
N437 Mn421 2.282 . S
N437 C438 1.328 . S
N437 C442 1.318 . S
C438 N437 1.328 . S
C438 C439 1.457 . S
C438 H443 0.929 . S
C439 C438 1.457 . S
C439 C440 1.291 . S
C439 H452 0.931 . S
C440 C439 1.291 . S
C440 C441 1.373 . S
C440 H453 0.929 . S
C441 C440 1.373 . S
C441 C442 1.396 . S
C441 C448 1.403 . S
C442 C432 1.476 . S
C442 N437 1.318 . S
C442 C441 1.396 . S
H443 C438 0.929 . S
O444 Mn420 2.385 . S
O444 C422 1.234 . S
O445 Mn420 2.209 . S
O445 Mn421 2.215 . S
O445 C422 1.283 . S
O446 Mn420 2.094 . S
O446 C424 1.240 . S
O447 Mn421 2.117 . S
O447 C424 1.264 . S
C448 C441 1.403 . S
C448 C449 1.399 . S
C448 H454 0.929 . S
C449 C429 1.449 . S
C449 C448 1.399 . S
C449 H455 0.930 . S
H450 C430 0.931 . S
H451 C431 0.930 . S
H452 C439 0.931 . S
H453 C440 0.929 . S
H454 C448 0.929 . S
H455 C449 0.930 . S
Mn456 O461 2.095 . S
Mn456 O471 2.162 . S
Mn456 O472 2.297 . S
Mn456 O480 2.385 . S
Mn456 O481 2.209 . S
Mn456 O482 2.094 . S
Mn457 O462 2.121 . S
Mn457 N464 2.257 . S
Mn457 N473 2.282 . S
Mn457 O481 2.215 . S
Mn457 O483 2.117 . S
C458 O480 1.234 . S
C458 O481 1.283 . S
C459 O471 1.281 . S
C459 O472 1.236 . S
C460 O482 1.240 . S
C460 O483 1.264 . S
O461 Mn456 2.095 . S
O461 C470 1.250 . S
O462 Mn457 2.121 . S
O462 C470 1.258 . S
C463 N464 1.326 . S
C463 C467 1.460 . S
C463 H469 0.929 . S
N464 Mn457 2.257 . S
N464 C463 1.326 . S
N464 C468 1.362 . S
C465 C466 1.258 . S
C465 C468 1.431 . S
C465 C485 1.449 . S
C466 C465 1.258 . S
C466 C467 1.477 . S
C466 H486 0.931 . S
C467 C463 1.460 . S
C467 C466 1.477 . S
C467 H487 0.930 . S
C468 N464 1.362 . S
C468 C465 1.431 . S
C468 C478 1.476 . S
H469 C463 0.929 . S
C470 O461 1.250 . S
C470 O462 1.258 . S
O471 Mn456 2.162 . S
O471 C459 1.281 . S
O472 Mn456 2.297 . S
O472 C459 1.236 . S
N473 Mn457 2.282 . S
N473 C474 1.328 . S
N473 C478 1.318 . S
C474 N473 1.328 . S
C474 C475 1.457 . S
C474 H479 0.929 . S
C475 C474 1.457 . S
C475 C476 1.291 . S
C475 H488 0.931 . S
C476 C475 1.291 . S
C476 C477 1.373 . S
C476 H489 0.929 . S
C477 C476 1.373 . S
C477 C478 1.396 . S
C477 C484 1.403 . S
C478 C468 1.476 . S
C478 N473 1.318 . S
C478 C477 1.396 . S
H479 C474 0.929 . S
O480 Mn456 2.385 . S
O480 C458 1.234 . S
O481 Mn456 2.209 . S
O481 Mn457 2.215 . S
O481 C458 1.283 . S
O482 Mn456 2.094 . S
O482 C460 1.240 . S
O483 Mn457 2.117 . S
O483 C460 1.264 . S
C484 C477 1.403 . S
C484 C485 1.399 . S
C484 H490 0.929 . S
C485 C465 1.449 . S
C485 C484 1.399 . S
C485 H491 0.930 . S
H486 C466 0.931 . S
H487 C467 0.930 . S
H488 C475 0.931 . S
H489 C476 0.929 . S
H490 C484 0.929 . S
H491 C485 0.930 . S
C492 C493 1.391 . S
C492 C494 1.394 . S
C492 H508 0.931 . S
C493 C492 1.391 . S
C493 C497 1.376 . S
C494 C492 1.394 . S
C494 C495 1.369 . S
C494 C498 1.531 . S
C495 C494 1.369 . S
C495 C496 1.410 . S
C495 C503 1.503 . S
C496 C495 1.410 . S
C496 C497 1.392 . S
C496 C499 1.511 . S
C497 C493 1.376 . S
C497 C496 1.392 . S
C497 H509 0.929 . S
C498 C494 1.531 . S
C498 H510 0.960 . S
C498 H511 0.962 . S
C498 H512 0.960 . S
C499 C496 1.511 . S
C499 H513 0.961 . S
C499 H514 0.961 . S
C499 H515 0.961 . S
C500 C501 1.370 . S
C500 C502 1.363 . S
C500 H516 0.931 . S
C501 C500 1.370 . S
C501 C505 1.408 . S
C502 C500 1.363 . S
C502 C503 1.370 . S
C502 C506 1.524 . S
C503 C495 1.503 . S
C503 C502 1.370 . S
C503 C504 1.403 . S
C504 C503 1.403 . S
C504 C505 1.404 . S
C504 C507 1.539 . S
C505 C501 1.408 . S
C505 C504 1.404 . S
C505 H517 0.930 . S
C506 C502 1.524 . S
C506 H518 0.956 . S
C506 H519 0.961 . S
C506 H520 0.961 . S
C507 C504 1.539 . S
C507 H521 0.958 . S
C507 H522 0.961 . S
C507 H523 0.960 . S
H508 C492 0.931 . S
H509 C497 0.929 . S
H510 C498 0.960 . S
H511 C498 0.962 . S
H512 C498 0.960 . S
H513 C499 0.961 . S
H514 C499 0.961 . S
H515 C499 0.961 . S
H516 C500 0.931 . S
H517 C505 0.930 . S
H518 C506 0.956 . S
H519 C506 0.961 . S
H520 C506 0.961 . S
H521 C507 0.958 . S
H522 C507 0.961 . S
H523 C507 0.960 . S
C524 C525 1.391 . S
C524 C526 1.394 . S
C524 H540 0.931 . S
C525 C524 1.391 . S
C525 C529 1.376 . S
C526 C524 1.394 . S
C526 C527 1.369 . S
C526 C530 1.531 . S
C527 C526 1.369 . S
C527 C528 1.410 . S
C527 C535 1.503 . S
C528 C527 1.410 . S
C528 C529 1.392 . S
C528 C531 1.511 . S
C529 C525 1.376 . S
C529 C528 1.392 . S
C529 H541 0.929 . S
C530 C526 1.531 . S
C530 H542 0.960 . S
C530 H543 0.962 . S
C530 H544 0.960 . S
C531 C528 1.511 . S
C531 H545 0.961 . S
C531 H546 0.961 . S
C531 H547 0.961 . S
C532 C533 1.370 . S
C532 C534 1.363 . S
C532 H548 0.931 . S
C533 C532 1.370 . S
C533 C537 1.408 . S
C534 C532 1.363 . S
C534 C535 1.370 . S
C534 C538 1.524 . S
C535 C527 1.503 . S
C535 C534 1.370 . S
C535 C536 1.403 . S
C536 C535 1.403 . S
C536 C537 1.404 . S
C536 C539 1.539 . S
C537 C533 1.408 . S
C537 C536 1.404 . S
C537 H549 0.930 . S
C538 C534 1.524 . S
C538 H550 0.956 . S
C538 H551 0.961 . S
C538 H552 0.961 . S
C539 C536 1.539 . S
C539 H553 0.958 . S
C539 H554 0.961 . S
C539 H555 0.960 . S
H540 C524 0.931 . S
H541 C529 0.929 . S
H542 C530 0.960 . S
H543 C530 0.962 . S
H544 C530 0.960 . S
H545 C531 0.961 . S
H546 C531 0.961 . S
H547 C531 0.961 . S
H548 C532 0.931 . S
H549 C537 0.930 . S
H550 C538 0.956 . S
H551 C538 0.961 . S
H552 C538 0.961 . S
H553 C539 0.958 . S
H554 C539 0.961 . S
H555 C539 0.960 . S
C556 C557 1.391 . S
C556 C558 1.394 . S
C556 H572 0.931 . S
C557 C556 1.391 . S
C557 C561 1.376 . S
C558 C556 1.394 . S
C558 C559 1.369 . S
C558 C562 1.531 . S
C559 C558 1.369 . S
C559 C560 1.410 . S
C559 C567 1.503 . S
C560 C559 1.410 . S
C560 C561 1.392 . S
C560 C563 1.511 . S
C561 C557 1.376 . S
C561 C560 1.392 . S
C561 H573 0.929 . S
C562 C558 1.531 . S
C562 H574 0.960 . S
C562 H575 0.962 . S
C562 H576 0.960 . S
C563 C560 1.511 . S
C563 H577 0.961 . S
C563 H578 0.961 . S
C563 H579 0.961 . S
C564 C565 1.370 . S
C564 C566 1.363 . S
C564 H580 0.931 . S
C565 C564 1.370 . S
C565 C569 1.408 . S
C566 C564 1.363 . S
C566 C567 1.370 . S
C566 C570 1.524 . S
C567 C559 1.503 . S
C567 C566 1.370 . S
C567 C568 1.403 . S
C568 C567 1.403 . S
C568 C569 1.404 . S
C568 C571 1.539 . S
C569 C565 1.408 . S
C569 C568 1.404 . S
C569 H581 0.930 . S
C570 C566 1.524 . S
C570 H582 0.956 . S
C570 H583 0.961 . S
C570 H584 0.961 . S
C571 C568 1.539 . S
C571 H585 0.958 . S
C571 H586 0.961 . S
C571 H587 0.960 . S
H572 C556 0.931 . S
H573 C561 0.929 . S
H574 C562 0.960 . S
H575 C562 0.962 . S
H576 C562 0.960 . S
H577 C563 0.961 . S
H578 C563 0.961 . S
H579 C563 0.961 . S
H580 C564 0.931 . S
H581 C569 0.930 . S
H582 C570 0.956 . S
H583 C570 0.961 . S
H584 C570 0.961 . S
H585 C571 0.958 . S
H586 C571 0.961 . S
H587 C571 0.960 . S
C588 C589 1.391 . S
C588 C590 1.394 . S
C588 H604 0.931 . S
C589 C588 1.391 . S
C589 C593 1.376 . S
C590 C588 1.394 . S
C590 C591 1.369 . S
C590 C594 1.531 . S
C591 C590 1.369 . S
C591 C592 1.410 . S
C591 C599 1.503 . S
C592 C591 1.410 . S
C592 C593 1.392 . S
C592 C595 1.511 . S
C593 C589 1.376 . S
C593 C592 1.392 . S
C593 H605 0.929 . S
C594 C590 1.531 . S
C594 H606 0.960 . S
C594 H607 0.962 . S
C594 H608 0.960 . S
C595 C592 1.511 . S
C595 H609 0.961 . S
C595 H610 0.961 . S
C595 H611 0.961 . S
C596 C597 1.370 . S
C596 C598 1.363 . S
C596 H612 0.931 . S
C597 C596 1.370 . S
C597 C601 1.408 . S
C598 C596 1.363 . S
C598 C599 1.370 . S
C598 C602 1.524 . S
C599 C591 1.503 . S
C599 C598 1.370 . S
C599 C600 1.403 . S
C600 C599 1.403 . S
C600 C601 1.404 . S
C600 C603 1.539 . S
C601 C597 1.408 . S
C601 C600 1.404 . S
C601 H613 0.930 . S
C602 C598 1.524 . S
C602 H614 0.956 . S
C602 H615 0.961 . S
C602 H616 0.961 . S
C603 C600 1.539 . S
C603 H617 0.958 . S
C603 H618 0.961 . S
C603 H619 0.960 . S
H604 C588 0.931 . S
H605 C593 0.929 . S
H606 C594 0.960 . S
H607 C594 0.962 . S
H608 C594 0.960 . S
H609 C595 0.961 . S
H610 C595 0.961 . S
H611 C595 0.961 . S
H612 C596 0.931 . S
H613 C601 0.930 . S
H614 C602 0.956 . S
H615 C602 0.961 . S
H616 C602 0.961 . S
H617 C603 0.958 . S
H618 C603 0.961 . S
H619 C603 0.960 . S
C620 C621 1.391 . S
C620 C622 1.394 . S
C620 H636 0.931 . S
C621 C620 1.391 . S
C621 C625 1.376 . S
C622 C620 1.394 . S
C622 C623 1.369 . S
C622 C626 1.531 . S
C623 C622 1.369 . S
C623 C624 1.410 . S
C623 C631 1.503 . S
C624 C623 1.410 . S
C624 C625 1.392 . S
C624 C627 1.511 . S
C625 C621 1.376 . S
C625 C624 1.392 . S
C625 H637 0.929 . S
C626 C622 1.531 . S
C626 H638 0.960 . S
C626 H639 0.962 . S
C626 H640 0.960 . S
C627 C624 1.511 . S
C627 H641 0.961 . S
C627 H642 0.961 . S
C627 H643 0.961 . S
C628 C629 1.370 . S
C628 C630 1.363 . S
C628 H644 0.931 . S
C629 C628 1.370 . S
C629 C633 1.408 . S
C630 C628 1.363 . S
C630 C631 1.370 . S
C630 C634 1.524 . S
C631 C623 1.503 . S
C631 C630 1.370 . S
C631 C632 1.403 . S
C632 C631 1.403 . S
C632 C633 1.404 . S
C632 C635 1.539 . S
C633 C629 1.408 . S
C633 C632 1.404 . S
C633 H645 0.930 . S
C634 C630 1.524 . S
C634 H646 0.956 . S
C634 H647 0.961 . S
C634 H648 0.961 . S
C635 C632 1.539 . S
C635 H649 0.958 . S
C635 H650 0.961 . S
C635 H651 0.960 . S
H636 C620 0.931 . S
H637 C625 0.929 . S
H638 C626 0.960 . S
H639 C626 0.962 . S
H640 C626 0.960 . S
H641 C627 0.961 . S
H642 C627 0.961 . S
H643 C627 0.961 . S
H644 C628 0.931 . S
H645 C633 0.930 . S
H646 C634 0.956 . S
H647 C634 0.961 . S
H648 C634 0.961 . S
H649 C635 0.958 . S
H650 C635 0.961 . S
H651 C635 0.960 . S
C652 C653 1.391 . S
C652 C654 1.394 . S
C652 H668 0.931 . S
C653 C652 1.391 . S
C653 C657 1.376 . S
C654 C652 1.394 . S
C654 C655 1.369 . S
C654 C658 1.531 . S
C655 C654 1.369 . S
C655 C656 1.410 . S
C655 C663 1.503 . S
C656 C655 1.410 . S
C656 C657 1.392 . S
C656 C659 1.511 . S
C657 C653 1.376 . S
C657 C656 1.392 . S
C657 H669 0.929 . S
C658 C654 1.531 . S
C658 H670 0.960 . S
C658 H671 0.962 . S
C658 H672 0.960 . S
C659 C656 1.511 . S
C659 H673 0.961 . S
C659 H674 0.961 . S
C659 H675 0.961 . S
C660 C661 1.370 . S
C660 C662 1.363 . S
C660 H676 0.931 . S
C661 C660 1.370 . S
C661 C665 1.408 . S
C662 C660 1.363 . S
C662 C663 1.370 . S
C662 C666 1.524 . S
C663 C655 1.503 . S
C663 C662 1.370 . S
C663 C664 1.403 . S
C664 C663 1.403 . S
C664 C665 1.404 . S
C664 C667 1.539 . S
C665 C661 1.408 . S
C665 C664 1.404 . S
C665 H677 0.930 . S
C666 C662 1.524 . S
C666 H678 0.956 . S
C666 H679 0.961 . S
C666 H680 0.961 . S
C667 C664 1.539 . S
C667 H681 0.958 . S
C667 H682 0.961 . S
C667 H683 0.960 . S
H668 C652 0.931 . S
H669 C657 0.929 . S
H670 C658 0.960 . S
H671 C658 0.962 . S
H672 C658 0.960 . S
H673 C659 0.961 . S
H674 C659 0.961 . S
H675 C659 0.961 . S
H676 C660 0.931 . S
H677 C665 0.930 . S
H678 C666 0.956 . S
H679 C666 0.961 . S
H680 C666 0.961 . S
H681 C667 0.958 . S
H682 C667 0.961 . S
H683 C667 0.960 . S
C684 C685 1.391 . S
C684 C686 1.394 . S
C684 H700 0.931 . S
C685 C684 1.391 . S
C685 C689 1.376 . S
C686 C684 1.394 . S
C686 C687 1.369 . S
C686 C690 1.531 . S
C687 C686 1.369 . S
C687 C688 1.410 . S
C687 C695 1.503 . S
C688 C687 1.410 . S
C688 C689 1.392 . S
C688 C691 1.511 . S
C689 C685 1.376 . S
C689 C688 1.392 . S
C689 H701 0.929 . S
C690 C686 1.531 . S
C690 H702 0.960 . S
C690 H703 0.962 . S
C690 H704 0.960 . S
C691 C688 1.511 . S
C691 H705 0.961 . S
C691 H706 0.961 . S
C691 H707 0.961 . S
C692 C693 1.370 . S
C692 C694 1.363 . S
C692 H708 0.931 . S
C693 C692 1.370 . S
C693 C697 1.408 . S
C694 C692 1.363 . S
C694 C695 1.370 . S
C694 C698 1.524 . S
C695 C687 1.503 . S
C695 C694 1.370 . S
C695 C696 1.403 . S
C696 C695 1.403 . S
C696 C697 1.404 . S
C696 C699 1.539 . S
C697 C693 1.408 . S
C697 C696 1.404 . S
C697 H709 0.930 . S
C698 C694 1.524 . S
C698 H710 0.956 . S
C698 H711 0.961 . S
C698 H712 0.961 . S
C699 C696 1.539 . S
C699 H713 0.958 . S
C699 H714 0.961 . S
C699 H715 0.960 . S
H700 C684 0.931 . S
H701 C689 0.929 . S
H702 C690 0.960 . S
H703 C690 0.962 . S
H704 C690 0.960 . S
H705 C691 0.961 . S
H706 C691 0.961 . S
H707 C691 0.961 . S
H708 C692 0.931 . S
H709 C697 0.930 . S
H710 C698 0.956 . S
H711 C698 0.961 . S
H712 C698 0.961 . S
H713 C699 0.958 . S
H714 C699 0.961 . S
H715 C699 0.960 . S
C716 C717 1.391 . S
C716 C718 1.394 . S
C716 H732 0.931 . S
C717 C716 1.391 . S
C717 C721 1.376 . S
C718 C716 1.394 . S
C718 C719 1.369 . S
C718 C722 1.531 . S
C719 C718 1.369 . S
C719 C720 1.410 . S
C719 C727 1.503 . S
C720 C719 1.410 . S
C720 C721 1.392 . S
C720 C723 1.511 . S
C721 C717 1.376 . S
C721 C720 1.392 . S
C721 H733 0.929 . S
C722 C718 1.531 . S
C722 H734 0.960 . S
C722 H735 0.962 . S
C722 H736 0.960 . S
C723 C720 1.511 . S
C723 H737 0.961 . S
C723 H738 0.961 . S
C723 H739 0.961 . S
C724 C725 1.370 . S
C724 C726 1.363 . S
C724 H740 0.931 . S
C725 C724 1.370 . S
C725 C729 1.408 . S
C726 C724 1.363 . S
C726 C727 1.370 . S
C726 C730 1.524 . S
C727 C719 1.503 . S
C727 C726 1.370 . S
C727 C728 1.403 . S
C728 C727 1.403 . S
C728 C729 1.404 . S
C728 C731 1.539 . S
C729 C725 1.408 . S
C729 C728 1.404 . S
C729 H741 0.930 . S
C730 C726 1.524 . S
C730 H742 0.956 . S
C730 H743 0.961 . S
C730 H744 0.961 . S
C731 C728 1.539 . S
C731 H745 0.958 . S
C731 H746 0.961 . S
C731 H747 0.960 . S
H732 C716 0.931 . S
H733 C721 0.929 . S
H734 C722 0.960 . S
H735 C722 0.962 . S
H736 C722 0.960 . S
H737 C723 0.961 . S
H738 C723 0.961 . S
H739 C723 0.961 . S
H740 C724 0.931 . S
H741 C729 0.930 . S
H742 C730 0.956 . S
H743 C730 0.961 . S
H744 C730 0.961 . S
H745 C731 0.958 . S
H746 C731 0.961 . S
H747 C731 0.960 . S
C748 C749 1.391 . S
C748 C750 1.394 . S
C748 H764 0.931 . S
C749 C748 1.391 . S
C749 C753 1.376 . S
C750 C748 1.394 . S
C750 C751 1.369 . S
C750 C754 1.531 . S
C751 C750 1.369 . S
C751 C752 1.410 . S
C751 C759 1.503 . S
C752 C751 1.410 . S
C752 C753 1.392 . S
C752 C755 1.511 . S
C753 C749 1.376 . S
C753 C752 1.392 . S
C753 H765 0.929 . S
C754 C750 1.531 . S
C754 H766 0.960 . S
C754 H767 0.962 . S
C754 H768 0.960 . S
C755 C752 1.511 . S
C755 H769 0.961 . S
C755 H770 0.961 . S
C755 H771 0.961 . S
C756 C757 1.370 . S
C756 C758 1.363 . S
C756 H772 0.931 . S
C757 C756 1.370 . S
C757 C761 1.408 . S
C758 C756 1.363 . S
C758 C759 1.370 . S
C758 C762 1.524 . S
C759 C751 1.503 . S
C759 C758 1.370 . S
C759 C760 1.403 . S
C760 C759 1.403 . S
C760 C761 1.404 . S
C760 C763 1.539 . S
C761 C757 1.408 . S
C761 C760 1.404 . S
C761 H773 0.930 . S
C762 C758 1.524 . S
C762 H774 0.956 . S
C762 H775 0.961 . S
C762 H776 0.961 . S
C763 C760 1.539 . S
C763 H777 0.958 . S
C763 H778 0.961 . S
C763 H779 0.960 . S
H764 C748 0.931 . S
H765 C753 0.929 . S
H766 C754 0.960 . S
H767 C754 0.962 . S
H768 C754 0.960 . S
H769 C755 0.961 . S
H770 C755 0.961 . S
H771 C755 0.961 . S
H772 C756 0.931 . S
H773 C761 0.930 . S
H774 C762 0.956 . S
H775 C762 0.961 . S
H776 C762 0.961 . S
H777 C763 0.958 . S
H778 C763 0.961 . S
H779 C763 0.960 . S
C780 C781 1.391 . S
C780 C782 1.394 . S
C780 H796 0.931 . S
C781 C780 1.391 . S
C781 C785 1.376 . S
C782 C780 1.394 . S
C782 C783 1.369 . S
C782 C786 1.531 . S
C783 C782 1.369 . S
C783 C784 1.410 . S
C783 C791 1.503 . S
C784 C783 1.410 . S
C784 C785 1.392 . S
C784 C787 1.511 . S
C785 C781 1.376 . S
C785 C784 1.392 . S
C785 H797 0.929 . S
C786 C782 1.531 . S
C786 H798 0.960 . S
C786 H799 0.962 . S
C786 H800 0.960 . S
C787 C784 1.511 . S
C787 H801 0.961 . S
C787 H802 0.961 . S
C787 H803 0.961 . S
C788 C789 1.370 . S
C788 C790 1.363 . S
C788 H804 0.931 . S
C789 C788 1.370 . S
C789 C793 1.408 . S
C790 C788 1.363 . S
C790 C791 1.370 . S
C790 C794 1.524 . S
C791 C783 1.503 . S
C791 C790 1.370 . S
C791 C792 1.403 . S
C792 C791 1.403 . S
C792 C793 1.404 . S
C792 C795 1.539 . S
C793 C789 1.408 . S
C793 C792 1.404 . S
C793 H805 0.930 . S
C794 C790 1.524 . S
C794 H806 0.956 . S
C794 H807 0.961 . S
C794 H808 0.961 1_554 S
C795 C792 1.539 . S
C795 H809 0.958 . S
C795 H810 0.961 . S
C795 H811 0.960 . S
H796 C780 0.931 . S
H797 C785 0.929 . S
H798 C786 0.960 . S
H799 C786 0.962 . S
H800 C786 0.960 . S
H801 C787 0.961 . S
H802 C787 0.961 . S
H803 C787 0.961 . S
H804 C788 0.931 . S
H805 C793 0.930 . S
H806 C794 0.956 . S
H807 C794 0.961 . S
H808 C794 0.961 1_556 S
H809 C795 0.958 . S
H810 C795 0.961 . S
H811 C795 0.960 . S
C812 C813 1.391 . S
C812 C814 1.394 . S
C812 H828 0.931 . S
C813 C812 1.391 . S
C813 C817 1.376 . S
C814 C812 1.394 . S
C814 C815 1.369 . S
C814 C818 1.531 . S
C815 C814 1.369 . S
C815 C816 1.410 . S
C815 C823 1.503 . S
C816 C815 1.410 . S
C816 C817 1.392 . S
C816 C819 1.511 . S
C817 C813 1.376 . S
C817 C816 1.392 . S
C817 H829 0.929 . S
C818 C814 1.531 . S
C818 H830 0.960 . S
C818 H831 0.962 . S
C818 H832 0.960 . S
C819 C816 1.511 . S
C819 H833 0.961 . S
C819 H834 0.961 . S
C819 H835 0.961 . S
C820 C821 1.370 . S
C820 C822 1.363 . S
C820 H836 0.931 . S
C821 C820 1.370 . S
C821 C825 1.408 . S
C822 C820 1.363 . S
C822 C823 1.370 . S
C822 C826 1.524 . S
C823 C815 1.503 . S
C823 C822 1.370 . S
C823 C824 1.403 . S
C824 C823 1.403 . S
C824 C825 1.404 . S
C824 C827 1.539 . S
C825 C821 1.408 . S
C825 C824 1.404 . S
C825 H837 0.930 . S
C826 C822 1.524 . S
C826 H838 0.956 . S
C826 H839 0.961 . S
C826 H840 0.961 . S
C827 C824 1.539 . S
C827 H841 0.958 . S
C827 H842 0.961 . S
C827 H843 0.960 . S
H828 C812 0.931 . S
H829 C817 0.929 . S
H830 C818 0.960 . S
H831 C818 0.962 . S
H832 C818 0.960 . S
H833 C819 0.961 . S
H834 C819 0.961 . S
H835 C819 0.961 . S
H836 C820 0.931 . S
H837 C825 0.930 . S
H838 C826 0.956 . S
H839 C826 0.961 . S
H840 C826 0.961 . S
H841 C827 0.958 . S
H842 C827 0.961 . S
H843 C827 0.960 . S
C844 C845 1.391 . S
C844 C846 1.394 . S
C844 H860 0.931 . S
C845 C844 1.391 . S
C845 C849 1.376 . S
C846 C844 1.394 . S
C846 C847 1.369 . S
C846 C850 1.531 . S
C847 C846 1.369 . S
C847 C848 1.410 . S
C847 C855 1.503 . S
C848 C847 1.410 . S
C848 C849 1.392 . S
C848 C851 1.511 . S
C849 C845 1.376 . S
C849 C848 1.392 . S
C849 H861 0.929 . S
C850 C846 1.531 . S
C850 H862 0.960 . S
C850 H863 0.962 . S
C850 H864 0.960 . S
C851 C848 1.511 . S
C851 H865 0.961 . S
C851 H866 0.961 . S
C851 H867 0.961 . S
C852 C853 1.370 . S
C852 C854 1.363 . S
C852 H868 0.931 . S
C853 C852 1.370 . S
C853 C857 1.408 . S
C854 C852 1.363 . S
C854 C855 1.370 . S
C854 C858 1.524 . S
C855 C847 1.503 . S
C855 C854 1.370 . S
C855 C856 1.403 . S
C856 C855 1.403 . S
C856 C857 1.404 . S
C856 C859 1.539 . S
C857 C853 1.408 . S
C857 C856 1.404 . S
C857 H869 0.930 . S
C858 C854 1.524 . S
C858 H870 0.956 . S
C858 H871 0.961 . S
C858 H872 0.961 . S
C859 C856 1.539 . S
C859 H873 0.958 . S
C859 H874 0.961 . S
C859 H875 0.960 . S
H860 C844 0.931 . S
H861 C849 0.929 . S
H862 C850 0.960 . S
H863 C850 0.962 . S
H864 C850 0.960 . S
H865 C851 0.961 . S
H866 C851 0.961 . S
H867 C851 0.961 . S
H868 C852 0.931 . S
H869 C857 0.930 . S
H870 C858 0.956 . S
H871 C858 0.961 . S
H872 C858 0.961 . S
H873 C859 0.958 . S
H874 C859 0.961 . S
H875 C859 0.960 . S
C876 C877 1.391 . S
C876 C878 1.394 . S
C876 H892 0.931 . S
C877 C876 1.391 . S
C877 C881 1.376 . S
C878 C876 1.394 . S
C878 C879 1.369 . S
C878 C882 1.531 . S
C879 C878 1.369 . S
C879 C880 1.410 . S
C879 C887 1.503 . S
C880 C879 1.410 . S
C880 C881 1.392 . S
C880 C883 1.511 . S
C881 C877 1.376 . S
C881 C880 1.392 . S
C881 H893 0.929 . S
C882 C878 1.531 . S
C882 H894 0.960 . S
C882 H895 0.962 . S
C882 H896 0.960 . S
C883 C880 1.511 . S
C883 H897 0.961 . S
C883 H898 0.961 . S
C883 H899 0.961 . S
C884 C885 1.370 . S
C884 C886 1.363 . S
C884 H900 0.931 . S
C885 C884 1.370 . S
C885 C889 1.408 . S
C886 C884 1.363 . S
C886 C887 1.370 . S
C886 C890 1.524 . S
C887 C879 1.503 . S
C887 C886 1.370 . S
C887 C888 1.403 . S
C888 C887 1.403 . S
C888 C889 1.404 . S
C888 C891 1.539 . S
C889 C885 1.408 . S
C889 C888 1.404 . S
C889 H901 0.930 . S
C890 C886 1.524 . S
C890 H902 0.956 . S
C890 H903 0.961 . S
C890 H904 0.961 . S
C891 C888 1.539 . S
C891 H905 0.958 . S
C891 H906 0.961 . S
C891 H907 0.960 . S
H892 C876 0.931 . S
H893 C881 0.929 . S
H894 C882 0.960 . S
H895 C882 0.962 . S
H896 C882 0.960 . S
H897 C883 0.961 . S
H898 C883 0.961 . S
H899 C883 0.961 . S
H900 C884 0.931 . S
H901 C889 0.930 . S
H902 C890 0.956 . S
H903 C890 0.961 . S
H904 C890 0.961 . S
H905 C891 0.958 . S
H906 C891 0.961 . S
H907 C891 0.960 . S
C908 C909 1.391 . S
C908 C910 1.394 . S
C908 H924 0.931 . S
C909 C908 1.391 . S
C909 C913 1.376 . S
C910 C908 1.394 . S
C910 C911 1.369 . S
C910 C914 1.531 . S
C911 C910 1.369 . S
C911 C912 1.410 . S
C911 C919 1.503 . S
C912 C911 1.410 . S
C912 C913 1.392 . S
C912 C915 1.511 . S
C913 C909 1.376 . S
C913 C912 1.392 . S
C913 H925 0.929 . S
C914 C910 1.531 . S
C914 H926 0.960 . S
C914 H927 0.962 . S
C914 H928 0.960 . S
C915 C912 1.511 . S
C915 H929 0.961 . S
C915 H930 0.961 . S
C915 H931 0.961 . S
C916 C917 1.370 . S
C916 C918 1.363 . S
C916 H932 0.931 . S
C917 C916 1.370 . S
C917 C921 1.408 . S
C918 C916 1.363 . S
C918 C919 1.370 . S
C918 C922 1.524 . S
C919 C911 1.503 . S
C919 C918 1.370 . S
C919 C920 1.403 . S
C920 C919 1.403 . S
C920 C921 1.404 . S
C920 C923 1.539 . S
C921 C917 1.408 . S
C921 C920 1.404 . S
C921 H933 0.930 . S
C922 C918 1.524 . S
C922 H934 0.956 . S
C922 H935 0.961 . S
C922 H936 0.961 . S
C923 C920 1.539 . S
C923 H937 0.958 . S
C923 H938 0.961 . S
C923 H939 0.960 . S
H924 C908 0.931 . S
H925 C913 0.929 . S
H926 C914 0.960 . S
H927 C914 0.962 . S
H928 C914 0.960 . S
H929 C915 0.961 . S
H930 C915 0.961 . S
H931 C915 0.961 . S
H932 C916 0.931 . S
H933 C921 0.930 . S
H934 C922 0.956 . S
H935 C922 0.961 . S
H936 C922 0.961 . S
H937 C923 0.958 . S
H938 C923 0.961 . S
H939 C923 0.960 . S
C940 C941 1.391 . S
C940 C942 1.394 . S
C940 H956 0.931 . S
C941 C940 1.391 . S
C941 C945 1.376 . S
C942 C940 1.394 . S
C942 C943 1.369 . S
C942 C946 1.531 . S
C943 C942 1.369 . S
C943 C944 1.410 . S
C943 C951 1.503 . S
C944 C943 1.410 . S
C944 C945 1.392 . S
C944 C947 1.511 . S
C945 C941 1.376 . S
C945 C944 1.392 . S
C945 H957 0.929 . S
C946 C942 1.531 . S
C946 H958 0.960 . S
C946 H959 0.962 . S
C946 H960 0.960 . S
C947 C944 1.511 . S
C947 H961 0.961 . S
C947 H962 0.961 . S
C947 H963 0.961 . S
C948 C949 1.370 . S
C948 C950 1.363 . S
C948 H964 0.931 . S
C949 C948 1.370 . S
C949 C953 1.408 . S
C950 C948 1.363 . S
C950 C951 1.370 . S
C950 C954 1.524 . S
C951 C943 1.503 . S
C951 C950 1.370 . S
C951 C952 1.403 . S
C952 C951 1.403 . S
C952 C953 1.404 . S
C952 C955 1.539 . S
C953 C949 1.408 . S
C953 C952 1.404 . S
C953 H965 0.930 . S
C954 C950 1.524 . S
C954 H966 0.956 . S
C954 H967 0.961 . S
C954 H968 0.961 . S
C955 C952 1.539 . S
C955 H969 0.958 . S
C955 H970 0.961 . S
C955 H971 0.960 . S
H956 C940 0.931 . S
H957 C945 0.929 . S
H958 C946 0.960 . S
H959 C946 0.962 . S
H960 C946 0.960 . S
H961 C947 0.961 . S
H962 C947 0.961 . S
H963 C947 0.961 . S
H964 C948 0.931 . S
H965 C953 0.930 . S
H966 C954 0.956 . S
H967 C954 0.961 . S
H968 C954 0.961 . S
H969 C955 0.958 . S
H970 C955 0.961 . S
H971 C955 0.960 . S
C972 C973 1.391 . S
C972 C974 1.394 . S
C972 H988 0.931 . S
C973 C972 1.391 . S
C973 C977 1.376 . S
C974 C972 1.394 . S
C974 C975 1.369 . S
C974 C978 1.531 . S
C975 C974 1.369 . S
C975 C976 1.410 . S
C975 C983 1.503 . S
C976 C975 1.410 . S
C976 C977 1.392 . S
C976 C979 1.511 . S
C977 C973 1.376 . S
C977 C976 1.392 . S
C977 H989 0.929 . S
C978 C974 1.531 . S
C978 H990 0.960 . S
C978 H991 0.962 . S
C978 H992 0.960 . S
C979 C976 1.511 . S
C979 H993 0.961 . S
C979 H994 0.961 . S
C979 H995 0.961 . S
C980 C981 1.370 . S
C980 C982 1.363 1_554 S
C980 H996 0.931 . S
C981 C980 1.370 . S
C981 C985 1.408 . S
C982 C980 1.363 1_556 S
C982 C983 1.370 . S
C982 C986 1.524 . S
C983 C975 1.503 . S
C983 C982 1.370 . S
C983 C984 1.403 . S
C984 C983 1.403 . S
C984 C985 1.404 1_556 S
C984 C987 1.539 . S
C985 C981 1.408 . S
C985 C984 1.404 1_554 S
C985 H997 0.930 . S
C986 C982 1.524 . S
C986 H998 0.956 . S
C986 H999 0.961 . S
C986 H1000 0.961 . S
C987 C984 1.539 . S
C987 H1001 0.958 . S
C987 H1002 0.961 . S
C987 H1003 0.960 . S
H988 C972 0.931 . S
H989 C977 0.929 . S
H990 C978 0.960 . S
H991 C978 0.962 . S
H992 C978 0.960 . S
H993 C979 0.961 . S
H994 C979 0.961 . S
H995 C979 0.961 . S
H996 C980 0.931 . S
H997 C985 0.930 . S
H998 C986 0.956 . S
H999 C986 0.961 . S
H1000 C986 0.961 . S
H1001 C987 0.958 . S
H1002 C987 0.961 . S
H1003 C987 0.960 . S
C1004 C1005 1.391 . S
C1004 C1006 1.394 . S
C1004 H1020 0.931 . S
C1005 C1004 1.391 . S
C1005 C1009 1.376 . S
C1006 C1004 1.394 . S
C1006 C1007 1.369 . S
C1006 C1010 1.531 . S
C1007 C1006 1.369 . S
C1007 C1008 1.410 . S
C1007 C1015 1.503 . S
C1008 C1007 1.410 . S
C1008 C1009 1.392 . S
C1008 C1011 1.511 . S
C1009 C1005 1.376 . S
C1009 C1008 1.392 . S
C1009 H1021 0.929 . S
C1010 C1006 1.531 . S
C1010 H1022 0.960 . S
C1010 H1023 0.962 . S
C1010 H1024 0.960 . S
C1011 C1008 1.511 . S
C1011 H1025 0.961 . S
C1011 H1026 0.961 . S
C1011 H1027 0.961 . S
C1012 C1013 1.370 . S
C1012 C1014 1.363 . S
C1012 H1028 0.931 . S
C1013 C1012 1.370 . S
C1013 C1017 1.408 . S
C1014 C1012 1.363 . S
C1014 C1015 1.370 . S
C1014 C1018 1.524 . S
C1015 C1007 1.503 . S
C1015 C1014 1.370 . S
C1015 C1016 1.403 . S
C1016 C1015 1.403 . S
C1016 C1017 1.404 . S
C1016 C1019 1.539 . S
C1017 C1013 1.408 . S
C1017 C1016 1.404 . S
C1017 H1029 0.930 . S
C1018 C1014 1.524 . S
C1018 H1030 0.956 . S
C1018 H1031 0.961 . S
C1018 H1032 0.961 . S
C1019 C1016 1.539 . S
C1019 H1033 0.958 . S
C1019 H1034 0.961 . S
C1019 H1035 0.960 . S
H1020 C1004 0.931 . S
H1021 C1009 0.929 . S
H1022 C1010 0.960 . S
H1023 C1010 0.962 . S
H1024 C1010 0.960 . S
H1025 C1011 0.961 . S
H1026 C1011 0.961 . S
H1027 C1011 0.961 . S
H1028 C1012 0.931 . S
H1029 C1017 0.930 . S
H1030 C1018 0.956 . S
H1031 C1018 0.961 . S
H1032 C1018 0.961 . S
H1033 C1019 0.958 . S
H1034 C1019 0.961 . S
H1035 C1019 0.960 . S
C1036 C1037 1.391 . S
C1036 C1038 1.394 . S
C1036 H1052 0.931 . S
C1037 C1036 1.391 . S
C1037 C1041 1.376 . S
C1038 C1036 1.394 . S
C1038 C1039 1.369 . S
C1038 C1042 1.531 . S
C1039 C1038 1.369 . S
C1039 C1040 1.410 . S
C1039 C1047 1.503 . S
C1040 C1039 1.410 . S
C1040 C1041 1.392 . S
C1040 C1043 1.511 . S
C1041 C1037 1.376 . S
C1041 C1040 1.392 . S
C1041 H1053 0.929 . S
C1042 C1038 1.531 . S
C1042 H1054 0.960 . S
C1042 H1055 0.962 . S
C1042 H1056 0.960 . S
C1043 C1040 1.511 . S
C1043 H1057 0.961 . S
C1043 H1058 0.961 . S
C1043 H1059 0.961 . S
C1044 C1045 1.370 . S
C1044 C1046 1.363 . S
C1044 H1060 0.931 . S
C1045 C1044 1.370 . S
C1045 C1049 1.408 . S
C1046 C1044 1.363 . S
C1046 C1047 1.370 . S
C1046 C1050 1.524 . S
C1047 C1039 1.503 . S
C1047 C1046 1.370 . S
C1047 C1048 1.403 . S
C1048 C1047 1.403 . S
C1048 C1049 1.404 . S
C1048 C1051 1.539 . S
C1049 C1045 1.408 . S
C1049 C1048 1.404 . S
C1049 H1061 0.930 . S
C1050 C1046 1.524 . S
C1050 H1062 0.956 . S
C1050 H1063 0.961 . S
C1050 H1064 0.961 . S
C1051 C1048 1.539 . S
C1051 H1065 0.958 . S
C1051 H1066 0.961 . S
C1051 H1067 0.960 . S
H1052 C1036 0.931 . S
H1053 C1041 0.929 . S
H1054 C1042 0.960 . S
H1055 C1042 0.962 . S
H1056 C1042 0.960 . S
H1057 C1043 0.961 . S
H1058 C1043 0.961 . S
H1059 C1043 0.961 . S
H1060 C1044 0.931 . S
H1061 C1049 0.930 . S
H1062 C1050 0.956 . S
H1063 C1050 0.961 . S
H1064 C1050 0.961 . S
H1065 C1051 0.958 . S
H1066 C1051 0.961 . S
H1067 C1051 0.960 . S
C1068 C1069 1.391 . S
C1068 C1070 1.394 . S
C1068 H1084 0.931 . S
C1069 C1068 1.391 . S
C1069 C1073 1.376 . S
C1070 C1068 1.394 . S
C1070 C1071 1.369 . S
C1070 C1074 1.531 . S
C1071 C1070 1.369 . S
C1071 C1072 1.410 . S
C1071 C1079 1.503 . S
C1072 C1071 1.410 . S
C1072 C1073 1.392 . S
C1072 C1075 1.511 . S
C1073 C1069 1.376 . S
C1073 C1072 1.392 . S
C1073 H1085 0.929 . S
C1074 C1070 1.531 . S
C1074 H1086 0.960 . S
C1074 H1087 0.962 . S
C1074 H1088 0.960 . S
C1075 C1072 1.511 . S
C1075 H1089 0.961 . S
C1075 H1090 0.961 . S
C1075 H1091 0.961 . S
C1076 C1077 1.370 . S
C1076 C1078 1.363 . S
C1076 H1092 0.931 . S
C1077 C1076 1.370 . S
C1077 C1081 1.408 . S
C1078 C1076 1.363 . S
C1078 C1079 1.370 . S
C1078 C1082 1.524 . S
C1079 C1071 1.503 . S
C1079 C1078 1.370 . S
C1079 C1080 1.403 . S
C1080 C1079 1.403 . S
C1080 C1081 1.404 . S
C1080 C1083 1.539 . S
C1081 C1077 1.408 . S
C1081 C1080 1.404 . S
C1081 H1093 0.930 . S
C1082 C1078 1.524 . S
C1082 H1094 0.956 . S
C1082 H1095 0.961 . S
C1082 H1096 0.961 . S
C1083 C1080 1.539 . S
C1083 H1097 0.958 . S
C1083 H1098 0.961 . S
C1083 H1099 0.960 . S
H1084 C1068 0.931 . S
H1085 C1073 0.929 . S
H1086 C1074 0.960 . S
H1087 C1074 0.962 . S
H1088 C1074 0.960 . S
H1089 C1075 0.961 . S
H1090 C1075 0.961 . S
H1091 C1075 0.961 . S
H1092 C1076 0.931 . S
H1093 C1081 0.930 . S
H1094 C1082 0.956 . S
H1095 C1082 0.961 . S
H1096 C1082 0.961 . S
H1097 C1083 0.958 . S
H1098 C1083 0.961 . S
H1099 C1083 0.960 . S
C1100 C1101 1.391 . S
C1100 C1102 1.394 . S
C1100 H1116 0.931 . S
C1101 C1100 1.391 . S
C1101 C1105 1.376 . S
C1102 C1100 1.394 . S
C1102 C1103 1.369 . S
C1102 C1106 1.531 . S
C1103 C1102 1.369 . S
C1103 C1104 1.410 . S
C1103 C1111 1.503 . S
C1104 C1103 1.410 . S
C1104 C1105 1.392 . S
C1104 C1107 1.511 . S
C1105 C1101 1.376 . S
C1105 C1104 1.392 . S
C1105 H1117 0.929 . S
C1106 C1102 1.531 . S
C1106 H1118 0.960 . S
C1106 H1119 0.962 . S
C1106 H1120 0.960 . S
C1107 C1104 1.511 . S
C1107 H1121 0.961 . S
C1107 H1122 0.961 . S
C1107 H1123 0.961 . S
C1108 C1109 1.370 . S
C1108 C1110 1.363 . S
C1108 H1124 0.931 . S
C1109 C1108 1.370 . S
C1109 C1113 1.408 . S
C1110 C1108 1.363 . S
C1110 C1111 1.370 . S
C1110 C1114 1.524 . S
C1111 C1103 1.503 . S
C1111 C1110 1.370 . S
C1111 C1112 1.403 . S
C1112 C1111 1.403 . S
C1112 C1113 1.404 . S
C1112 C1115 1.539 . S
C1113 C1109 1.408 . S
C1113 C1112 1.404 . S
C1113 H1125 0.930 . S
C1114 C1110 1.524 . S
C1114 H1126 0.956 . S
C1114 H1127 0.961 . S
C1114 H1128 0.961 . S
C1115 C1112 1.539 . S
C1115 H1129 0.958 . S
C1115 H1130 0.961 . S
C1115 H1131 0.960 . S
H1116 C1100 0.931 . S
H1117 C1105 0.929 . S
H1118 C1106 0.960 . S
H1119 C1106 0.962 . S
H1120 C1106 0.960 . S
H1121 C1107 0.961 . S
H1122 C1107 0.961 . S
H1123 C1107 0.961 . S
H1124 C1108 0.931 . S
H1125 C1113 0.930 . S
H1126 C1114 0.956 . S
H1127 C1114 0.961 . S
H1128 C1114 0.961 . S
H1129 C1115 0.958 . S
H1130 C1115 0.961 . S
H1131 C1115 0.960 . S
C1132 C1133 1.391 . S
C1132 C1134 1.394 . S
C1132 H1148 0.931 . S
C1133 C1132 1.391 . S
C1133 C1137 1.376 . S
C1134 C1132 1.394 . S
C1134 C1135 1.369 . S
C1134 C1138 1.531 . S
C1135 C1134 1.369 . S
C1135 C1136 1.410 . S
C1135 C1143 1.503 . S
C1136 C1135 1.410 . S
C1136 C1137 1.392 . S
C1136 C1139 1.511 . S
C1137 C1133 1.376 . S
C1137 C1136 1.392 . S
C1137 H1149 0.929 . S
C1138 C1134 1.531 . S
C1138 H1150 0.960 . S
C1138 H1151 0.962 . S
C1138 H1152 0.960 . S
C1139 C1136 1.511 . S
C1139 H1153 0.961 . S
C1139 H1154 0.961 . S
C1139 H1155 0.961 . S
C1140 C1141 1.370 . S
C1140 C1142 1.363 . S
C1140 H1156 0.931 . S
C1141 C1140 1.370 . S
C1141 C1145 1.408 . S
C1142 C1140 1.363 . S
C1142 C1143 1.370 . S
C1142 C1146 1.524 . S
C1143 C1135 1.503 . S
C1143 C1142 1.370 . S
C1143 C1144 1.403 . S
C1144 C1143 1.403 . S
C1144 C1145 1.404 . S
C1144 C1147 1.539 . S
C1145 C1141 1.408 . S
C1145 C1144 1.404 . S
C1145 H1157 0.930 . S
C1146 C1142 1.524 . S
C1146 H1158 0.956 . S
C1146 H1159 0.961 . S
C1146 H1160 0.961 . S
C1147 C1144 1.539 . S
C1147 H1161 0.958 . S
C1147 H1162 0.961 . S
C1147 H1163 0.960 . S
H1148 C1132 0.931 . S
H1149 C1137 0.929 . S
H1150 C1138 0.960 . S
H1151 C1138 0.962 . S
H1152 C1138 0.960 . S
H1153 C1139 0.961 . S
H1154 C1139 0.961 . S
H1155 C1139 0.961 . S
H1156 C1140 0.931 . S
H1157 C1145 0.930 . S
H1158 C1146 0.956 . S
H1159 C1146 0.961 . S
H1160 C1146 0.961 . S
H1161 C1147 0.958 . S
H1162 C1147 0.961 . S
H1163 C1147 0.960 . S
C1164 C1165 1.391 . S
C1164 C1166 1.394 . S
C1164 H1180 0.931 . S
C1165 C1164 1.391 . S
C1165 C1169 1.376 . S
C1166 C1164 1.394 . S
C1166 C1167 1.369 . S
C1166 C1170 1.531 . S
C1167 C1166 1.369 . S
C1167 C1168 1.410 . S
C1167 C1175 1.503 . S
C1168 C1167 1.410 . S
C1168 C1169 1.392 . S
C1168 C1171 1.511 . S
C1169 C1165 1.376 . S
C1169 C1168 1.392 . S
C1169 H1181 0.929 . S
C1170 C1166 1.531 . S
C1170 H1182 0.960 . S
C1170 H1183 0.962 . S
C1170 H1184 0.960 . S
C1171 C1168 1.511 . S
C1171 H1185 0.961 . S
C1171 H1186 0.961 . S
C1171 H1187 0.961 . S
C1172 C1173 1.370 . S
C1172 C1174 1.363 . S
C1172 H1188 0.931 . S
C1173 C1172 1.370 . S
C1173 C1177 1.408 . S
C1174 C1172 1.363 . S
C1174 C1175 1.370 . S
C1174 C1178 1.524 . S
C1175 C1167 1.503 . S
C1175 C1174 1.370 . S
C1175 C1176 1.403 . S
C1176 C1175 1.403 . S
C1176 C1177 1.404 . S
C1176 C1179 1.539 . S
C1177 C1173 1.408 . S
C1177 C1176 1.404 . S
C1177 H1189 0.930 . S
C1178 C1174 1.524 . S
C1178 H1190 0.956 . S
C1178 H1191 0.961 . S
C1178 H1192 0.961 . S
C1179 C1176 1.539 . S
C1179 H1193 0.958 . S
C1179 H1194 0.961 . S
C1179 H1195 0.960 . S
H1180 C1164 0.931 . S
H1181 C1169 0.929 . S
H1182 C1170 0.960 . S
H1183 C1170 0.962 . S
H1184 C1170 0.960 . S
H1185 C1171 0.961 . S
H1186 C1171 0.961 . S
H1187 C1171 0.961 . S
H1188 C1172 0.931 . S
H1189 C1177 0.930 . S
H1190 C1178 0.956 . S
H1191 C1178 0.961 . S
H1192 C1178 0.961 . S
H1193 C1179 0.958 . S
H1194 C1179 0.961 . S
H1195 C1179 0.960 . S
C1196 C1197 1.391 . S
C1196 C1198 1.394 . S
C1196 H1212 0.931 . S
C1197 C1196 1.391 . S
C1197 C1201 1.376 . S
C1198 C1196 1.394 . S
C1198 C1199 1.369 . S
C1198 C1202 1.531 . S
C1199 C1198 1.369 . S
C1199 C1200 1.410 . S
C1199 C1207 1.503 1_554 S
C1200 C1199 1.410 . S
C1200 C1201 1.392 . S
C1200 C1203 1.511 . S
C1201 C1197 1.376 . S
C1201 C1200 1.392 . S
C1201 H1213 0.929 . S
C1202 C1198 1.531 . S
C1202 H1214 0.960 1_554 S
C1202 H1215 0.962 . S
C1202 H1216 0.960 . S
C1203 C1200 1.511 . S
C1203 H1217 0.961 . S
C1203 H1218 0.961 . S
C1203 H1219 0.961 . S
C1204 C1205 1.370 . S
C1204 C1206 1.363 . S
C1204 H1220 0.931 . S
C1205 C1204 1.370 . S
C1205 C1209 1.408 . S
C1206 C1204 1.363 . S
C1206 C1207 1.370 . S
C1206 C1210 1.524 1_556 S
C1207 C1199 1.503 1_556 S
C1207 C1206 1.370 . S
C1207 C1208 1.403 . S
C1208 C1207 1.403 . S
C1208 C1209 1.404 . S
C1208 C1211 1.539 . S
C1209 C1205 1.408 . S
C1209 C1208 1.404 . S
C1209 H1221 0.930 . S
C1210 C1206 1.524 1_554 S
C1210 H1222 0.956 . S
C1210 H1223 0.961 . S
C1210 H1224 0.961 . S
C1211 C1208 1.539 . S
C1211 H1225 0.958 . S
C1211 H1226 0.961 . S
C1211 H1227 0.960 . S
H1212 C1196 0.931 . S
H1213 C1201 0.929 . S
H1214 C1202 0.960 1_556 S
H1215 C1202 0.962 . S
H1216 C1202 0.960 . S
H1217 C1203 0.961 . S
H1218 C1203 0.961 . S
H1219 C1203 0.961 . S
H1220 C1204 0.931 . S
H1221 C1209 0.930 . S
H1222 C1210 0.956 . S
H1223 C1210 0.961 . S
H1224 C1210 0.961 . S
H1225 C1211 0.958 . S
H1226 C1211 0.961 . S
H1227 C1211 0.960 . S
C1228 C1229 1.391 . S
C1228 C1230 1.394 . S
C1228 H1244 0.931 . S
C1229 C1228 1.391 . S
C1229 C1233 1.376 . S
C1230 C1228 1.394 . S
C1230 C1231 1.369 . S
C1230 C1234 1.531 . S
C1231 C1230 1.369 . S
C1231 C1232 1.410 . S
C1231 C1239 1.503 . S
C1232 C1231 1.410 . S
C1232 C1233 1.392 . S
C1232 C1235 1.511 . S
C1233 C1229 1.376 . S
C1233 C1232 1.392 . S
C1233 H1245 0.929 . S
C1234 C1230 1.531 . S
C1234 H1246 0.960 . S
C1234 H1247 0.962 . S
C1234 H1248 0.960 . S
C1235 C1232 1.511 . S
C1235 H1249 0.961 . S
C1235 H1250 0.961 . S
C1235 H1251 0.961 . S
C1236 C1237 1.370 . S
C1236 C1238 1.363 . S
C1236 H1252 0.931 . S
C1237 C1236 1.370 . S
C1237 C1241 1.408 . S
C1238 C1236 1.363 . S
C1238 C1239 1.370 . S
C1238 C1242 1.524 . S
C1239 C1231 1.503 . S
C1239 C1238 1.370 . S
C1239 C1240 1.403 . S
C1240 C1239 1.403 . S
C1240 C1241 1.404 . S
C1240 C1243 1.539 . S
C1241 C1237 1.408 . S
C1241 C1240 1.404 . S
C1241 H1253 0.930 . S
C1242 C1238 1.524 . S
C1242 H1254 0.956 . S
C1242 H1255 0.961 . S
C1242 H1256 0.961 . S
C1243 C1240 1.539 . S
C1243 H1257 0.958 . S
C1243 H1258 0.961 . S
C1243 H1259 0.960 . S
H1244 C1228 0.931 . S
H1245 C1233 0.929 . S
H1246 C1234 0.960 . S
H1247 C1234 0.962 . S
H1248 C1234 0.960 . S
H1249 C1235 0.961 . S
H1250 C1235 0.961 . S
H1251 C1235 0.961 . S
H1252 C1236 0.931 . S
H1253 C1241 0.930 . S
H1254 C1242 0.956 . S
H1255 C1242 0.961 . S
H1256 C1242 0.961 . S
H1257 C1243 0.958 . S
H1258 C1243 0.961 . S
H1259 C1243 0.960 . S
C501 C459 1.597 . S
C493 C15 1.583 . S
C525 C61 1.616 . S
C533 C279 1.635 . S
C557 C114 1.571 . S
C565 C326 1.594 . S
C589 C139 1.555 . S
C597 C362 1.541 . S
C629 C387 1.573 . S
C621 C185 1.580 . S
C653 C245 1.560 . S
C661 C423 1.582 . S
C685 C47 1.605 . S
C693 C315 1.630 . S
C717 C100 1.553 . S
C725 C351 1.586 . S
C749 C153 1.517 . S
C757 C398 1.526 . S
C789 C434 1.575 . S
C781 C199 1.570 . S
C821 C470 1.579 . S
C813 C231 1.577 . S
C853 C290 1.604 . S
C845 C1 1.606 . S
C877 C22 1.462 . S
C885 C314 1.469 . S
C909 C68 1.483 . S
C917 C350 1.477 . S
C949 C388 1.490 . S
C941 C107 1.480 . S
C973 C146 1.486 . S
C981 C424 1.490 . S
C1013 C460 1.452 . S
C1005 C192 1.455 . S
C1045 C280 1.438 . S
C1037 C252 1.451 . S
C1077 C458 1.464 . S
C1069 C54 1.463 . S
C1101 C93 1.462 . S
C1109 C278 1.451 . S
C1141 C316 1.464 . S
C1133 C160 1.474 . S
C1165 C206 1.479 . S
C1173 C352 1.481 . S
C1197 C238 1.514 . S
C1205 C386 1.504 . S
C1229 C8 1.496 . S
C1237 C422 1.481 . S
