# Generated by pormake.
# Topology eea, (3,6)-cn, num edge types: 1
# Building blocks:
#     Node 0, Type 0, BuildingBlock: CUQRIR_clean_linker_1, # of connection points: 3
#     Node 1, Type 0, BuildingBlock: CUQRIR_clean_linker_1, # of connection points: 3
#     Node 2, Type 0, BuildingBlock: CUQRIR_clean_linker_1, # of connection points: 3
#     Node 3, Type 0, BuildingBlock: CUQRIR_clean_linker_1, # of connection points: 3
#     Node 4, Type 0, BuildingBlock: CUQRIR_clean_linker_1, # of connection points: 3
#     Node 5, Type 0, BuildingBlock: CUQRIR_clean_linker_1, # of connection points: 3
#     Node 6, Type 0, BuildingBlock: CUQRIR_clean_linker_1, # of connection points: 3
#     Node 7, Type 0, BuildingBlock: CUQRIR_clean_linker_1, # of connection points: 3
#     Node 8, Type 0, BuildingBlock: CUQRIR_clean_linker_1, # of connection points: 3
#     Node 9, Type 0, BuildingBlock: CUQRIR_clean_linker_1, # of connection points: 3
#     Node 10, Type 0, BuildingBlock: CUQRIR_clean_linker_1, # of connection points: 3
#     Node 11, Type 0, BuildingBlock: CUQRIR_clean_linker_1, # of connection points: 3
#     Node 12, Type 0, BuildingBlock: CUQRIR_clean_linker_1, # of connection points: 3
#     Node 13, Type 0, BuildingBlock: CUQRIR_clean_linker_1, # of connection points: 3
#     Node 14, Type 0, BuildingBlock: CUQRIR_clean_linker_1, # of connection points: 3
#     Node 15, Type 0, BuildingBlock: CUQRIR_clean_linker_1, # of connection points: 3
#     Node 16, Type 0, BuildingBlock: CUQRIR_clean_linker_1, # of connection points: 3
#     Node 17, Type 0, BuildingBlock: CUQRIR_clean_linker_1, # of connection points: 3
#     Node 18, Type 1, BuildingBlock: KUMBUR_clean_sbu_0, # of connection points: 6
#     Node 19, Type 1, BuildingBlock: KUMBUR_clean_sbu_0, # of connection points: 6
#     Node 20, Type 1, BuildingBlock: KUMBUR_clean_sbu_0, # of connection points: 6
#     Node 21, Type 1, BuildingBlock: KUMBUR_clean_sbu_0, # of connection points: 6
#     Node 22, Type 1, BuildingBlock: KUMBUR_clean_sbu_0, # of connection points: 6
#     Node 23, Type 1, BuildingBlock: KUMBUR_clean_sbu_0, # of connection points: 6
#     Node 24, Type 1, BuildingBlock: KUMBUR_clean_sbu_0, # of connection points: 6
#     Node 25, Type 1, BuildingBlock: KUMBUR_clean_sbu_0, # of connection points: 6
#     Node 26, Type 1, BuildingBlock: KUMBUR_clean_sbu_0, # of connection points: 6
#     Edge 27, Type (0, 1), BuildingBlock: AJUNOK_clean_linker_0, # of connection points: 2
#     Edge 28, Type (0, 1), BuildingBlock: AJUNOK_clean_linker_0, # of connection points: 2
#     Edge 29, Type (0, 1), BuildingBlock: AJUNOK_clean_linker_0, # of connection points: 2
#     Edge 30, Type (0, 1), BuildingBlock: AJUNOK_clean_linker_0, # of connection points: 2
#     Edge 31, Type (0, 1), BuildingBlock: AJUNOK_clean_linker_0, # of connection points: 2
#     Edge 32, Type (0, 1), BuildingBlock: AJUNOK_clean_linker_0, # of connection points: 2
#     Edge 33, Type (0, 1), BuildingBlock: AJUNOK_clean_linker_0, # of connection points: 2
#     Edge 34, Type (0, 1), BuildingBlock: AJUNOK_clean_linker_0, # of connection points: 2
#     Edge 35, Type (0, 1), BuildingBlock: AJUNOK_clean_linker_0, # of connection points: 2
#     Edge 36, Type (0, 1), BuildingBlock: AJUNOK_clean_linker_0, # of connection points: 2
#     Edge 37, Type (0, 1), BuildingBlock: AJUNOK_clean_linker_0, # of connection points: 2
#     Edge 38, Type (0, 1), BuildingBlock: AJUNOK_clean_linker_0, # of connection points: 2
#     Edge 39, Type (0, 1), BuildingBlock: AJUNOK_clean_linker_0, # of connection points: 2
#     Edge 40, Type (0, 1), BuildingBlock: AJUNOK_clean_linker_0, # of connection points: 2
#     Edge 41, Type (0, 1), BuildingBlock: AJUNOK_clean_linker_0, # of connection points: 2
#     Edge 42, Type (0, 1), BuildingBlock: AJUNOK_clean_linker_0, # of connection points: 2
#     Edge 43, Type (0, 1), BuildingBlock: AJUNOK_clean_linker_0, # of connection points: 2
#     Edge 44, Type (0, 1), BuildingBlock: AJUNOK_clean_linker_0, # of connection points: 2
#     Edge 45, Type (0, 1), BuildingBlock: AJUNOK_clean_linker_0, # of connection points: 2
#     Edge 46, Type (0, 1), BuildingBlock: AJUNOK_clean_linker_0, # of connection points: 2
#     Edge 47, Type (0, 1), BuildingBlock: AJUNOK_clean_linker_0, # of connection points: 2
#     Edge 48, Type (0, 1), BuildingBlock: AJUNOK_clean_linker_0, # of connection points: 2
#     Edge 49, Type (0, 1), BuildingBlock: AJUNOK_clean_linker_0, # of connection points: 2
#     Edge 50, Type (0, 1), BuildingBlock: AJUNOK_clean_linker_0, # of connection points: 2
#     Edge 51, Type (0, 1), BuildingBlock: AJUNOK_clean_linker_0, # of connection points: 2
#     Edge 52, Type (0, 1), BuildingBlock: AJUNOK_clean_linker_0, # of connection points: 2
#     Edge 53, Type (0, 1), BuildingBlock: AJUNOK_clean_linker_0, # of connection points: 2
#     Edge 54, Type (0, 1), BuildingBlock: AJUNOK_clean_linker_0, # of connection points: 2
#     Edge 55, Type (0, 1), BuildingBlock: AJUNOK_clean_linker_0, # of connection points: 2
#     Edge 56, Type (0, 1), BuildingBlock: AJUNOK_clean_linker_0, # of connection points: 2
#     Edge 57, Type (0, 1), BuildingBlock: AJUNOK_clean_linker_0, # of connection points: 2
#     Edge 58, Type (0, 1), BuildingBlock: AJUNOK_clean_linker_0, # of connection points: 2
#     Edge 59, Type (0, 1), BuildingBlock: AJUNOK_clean_linker_0, # of connection points: 2
#     Edge 60, Type (0, 1), BuildingBlock: AJUNOK_clean_linker_0, # of connection points: 2
#     Edge 61, Type (0, 1), BuildingBlock: AJUNOK_clean_linker_0, # of connection points: 2
#     Edge 62, Type (0, 1), BuildingBlock: AJUNOK_clean_linker_0, # of connection points: 2
#     Edge 63, Type (0, 1), BuildingBlock: AJUNOK_clean_linker_0, # of connection points: 2
#     Edge 64, Type (0, 1), BuildingBlock: AJUNOK_clean_linker_0, # of connection points: 2
#     Edge 65, Type (0, 1), BuildingBlock: AJUNOK_clean_linker_0, # of connection points: 2
#     Edge 66, Type (0, 1), BuildingBlock: AJUNOK_clean_linker_0, # of connection points: 2
#     Edge 67, Type (0, 1), BuildingBlock: AJUNOK_clean_linker_0, # of connection points: 2
#     Edge 68, Type (0, 1), BuildingBlock: AJUNOK_clean_linker_0, # of connection points: 2
#     Edge 69, Type (0, 1), BuildingBlock: AJUNOK_clean_linker_0, # of connection points: 2
#     Edge 70, Type (0, 1), BuildingBlock: AJUNOK_clean_linker_0, # of connection points: 2
#     Edge 71, Type (0, 1), BuildingBlock: AJUNOK_clean_linker_0, # of connection points: 2
#     Edge 72, Type (0, 1), BuildingBlock: AJUNOK_clean_linker_0, # of connection points: 2
#     Edge 73, Type (0, 1), BuildingBlock: AJUNOK_clean_linker_0, # of connection points: 2
#     Edge 74, Type (0, 1), BuildingBlock: AJUNOK_clean_linker_0, # of connection points: 2
#     Edge 75, Type (0, 1), BuildingBlock: AJUNOK_clean_linker_0, # of connection points: 2
#     Edge 76, Type (0, 1), BuildingBlock: AJUNOK_clean_linker_0, # of connection points: 2
#     Edge 77, Type (0, 1), BuildingBlock: AJUNOK_clean_linker_0, # of connection points: 2
#     Edge 78, Type (0, 1), BuildingBlock: AJUNOK_clean_linker_0, # of connection points: 2
#     Edge 79, Type (0, 1), BuildingBlock: AJUNOK_clean_linker_0, # of connection points: 2
#     Edge 80, Type (0, 1), BuildingBlock: AJUNOK_clean_linker_0, # of connection points: 2
# Relax obj value: 0.041
# Max RMSD: 0.228
# Mean RMSD: 0.163
data_MOF--net-eea--node1-KUMBUR_clean_sbu_0--node2-CUQRIR_clean_linker_1--edge1-AJUNOK_clean_linker_0
_symmetry_space_group_name_H-M    P1
_symmetry_Int_Tables_number       1
_symmetry_cell_setting            triclinic
loop_
_symmetry_equiv_pos_as_xyz
'x, y, z'
_cell_length_a     33.307826
_cell_length_b     35.836059
_cell_length_c     48.426789
_cell_angle_alpha  83.257605
_cell_angle_beta   89.704274
_cell_angle_gamma 118.82844
loop_
_atom_site_label
_atom_site_type_symbol
_atom_site_fract_x
_atom_site_fract_y
_atom_site_fract_z
_atom_type_partial_charge
C0 C 0.21354 0.11288 0.41199 0.0
N1 N 0.23241 0.14601 0.42737 0.0
N2 N 0.22339 0.08135 0.42172 0.0
C3 C 0.18579 0.11145 0.38736 0.0
C4 C 0.24906 0.09649 0.4435 0.0
N5 N 0.25481 0.13582 0.44688 0.0
C6 C 0.26885 0.07296 0.46139 0.0
H7 H 0.14994 0.10094 0.3949 0.0
H8 H 0.185 0.08853 0.37359 0.0
H9 H 0.20006 0.14394 0.37523 0.0
H10 H 0.30468 0.08442 0.45331 0.0
H11 H 0.24919 0.03779 0.46101 0.0
H12 H 0.26948 0.07954 0.48326 0.0
C13 C 0.92142 0.1272 0.41001 0.0
N14 N 0.94097 0.16035 0.42548 0.0
N15 N 0.88194 0.0942 0.42317 0.0
C16 C 0.93857 0.12848 0.38098 0.0
C17 C 0.87817 0.10828 0.44728 0.0
N18 N 0.91354 0.14837 0.4488 0.0
C19 C 0.83759 0.08429 0.46839 0.0
H20 H 0.93521 0.15355 0.3671 0.0
H21 H 0.91886 0.09718 0.37307 0.0
H22 H 0.97528 0.1371 0.38027 0.0
H23 H 0.82324 0.04907 0.46952 0.0
H24 H 0.81032 0.09219 0.46202 0.0
H25 H 0.84725 0.09364 0.48941 0.0
C26 C 0.90778 0.81726 0.40282 0.0
N27 N 0.92772 0.80004 0.42051 0.0
N28 N 0.87054 0.81501 0.41573 0.0
C29 C 0.92138 0.83163 0.37222 0.0
C30 C 0.86875 0.79637 0.44191 0.0
N31 N 0.90335 0.78702 0.44494 0.0
C32 C 0.8309 0.78434 0.46395 0.0
H33 H 0.90243 0.8475 0.36249 0.0
H34 H 0.91392 0.80319 0.36186 0.0
H35 H 0.95872 0.85434 0.36889 0.0
H36 H 0.80259 0.75157 0.46225 0.0
H37 H 0.81695 0.80699 0.46099 0.0
H38 H 0.84356 0.7843 0.4851 0.0
C39 C 0.11245 0.22612 0.68084 0.0
N40 N 0.14561 0.23539 0.66085 0.0
N41 N 0.07721 0.22914 0.66943 0.0
C42 C 0.11613 0.2177 0.71153 0.0
C43 C 0.08958 0.24027 0.64193 0.0
N44 N 0.13164 0.24476 0.63665 0.0
C45 C 0.05983 0.24585 0.62031 0.0
H46 H 0.12315 0.19042 0.71594 0.0
H47 H 0.08436 0.21028 0.72383 0.0
H48 H 0.14548 0.24664 0.71793 0.0
H49 H 0.0672 0.27979 0.61751 0.0
H50 H 0.02288 0.22516 0.62712 0.0
H51 H 0.06677 0.23796 0.59995 0.0
C52 C 0.81343 0.92061 0.66266 0.0
N53 N 0.79944 0.88904 0.64611 0.0
N54 N 0.80825 0.95397 0.65055 0.0
C55 C 0.83423 0.91989 0.6901 0.0
C56 C 0.79095 0.94178 0.62591 0.0
N57 N 0.78589 0.90256 0.62301 0.0
C58 C 0.77634 0.96723 0.6055 0.0
H59 H 0.80637 0.9017 0.70686 0.0
H60 H 0.85589 0.95296 0.69517 0.0
H61 H 0.8553 0.90359 0.68959 0.0
H62 H 0.80706 0.99242 0.59243 0.0
H63 H 0.76142 0.9835 0.61669 0.0
H64 H 0.751 0.94679 0.59157 0.0
C65 C 0.11319 0.91635 0.67118 0.0
N66 N 0.09423 0.88315 0.6558 0.0
N67 N 0.14987 0.95134 0.65689 0.0
C68 C 0.09923 0.91241 0.70131 0.0
C69 C 0.15241 0.93809 0.63213 0.0
N70 N 0.11901 0.89691 0.63139 0.0
C71 C 0.18827 0.96523 0.60864 0.0
H72 H 0.06755 0.91512 0.70304 0.0
H73 H 0.12658 0.93745 0.71202 0.0
H74 H 0.09173 0.88035 0.71172 0.0
H75 H 0.21629 0.95683 0.60962 0.0
H76 H 0.2029 1.00001 0.60998 0.0
H77 H 0.17364 0.95904 0.58813 0.0
C78 C 0.8763 0.44616 0.74792 0.0
N79 N 0.8949 0.48005 0.76268 0.0
N80 N 0.88786 0.41581 0.75779 0.0
C81 C 0.84692 0.44273 0.72382 0.0
C82 C 0.91463 0.43266 0.77887 0.0
N83 N 0.91899 0.47159 0.78186 0.0
C84 C 0.93743 0.41158 0.79631 0.0
H85 H 0.8108 0.42953 0.732 0.0
H86 H 0.84785 0.42093 0.7097 0.0
H87 H 0.85831 0.4749 0.71178 0.0
H88 H 0.97442 0.42767 0.78934 0.0
H89 H 0.92262 0.37702 0.79437 0.0
H90 H 0.93469 0.41542 0.81854 0.0
C91 C 0.58043 0.46353 0.74089 0.0
N92 N 0.60079 0.49448 0.75774 0.0
N93 N 0.54476 0.42731 0.75482 0.0
C94 C 0.59186 0.47124 0.71 0.0
C95 C 0.54449 0.43763 0.78088 0.0
N96 N 0.57803 0.47836 0.78278 0.0
C97 C 0.51101 0.40805 0.80479 0.0
H98 H 0.60055 0.50466 0.70177 0.0
H99 H 0.56281 0.44872 0.69891 0.0
H100 H 0.62233 0.46737 0.70584 0.0
H101 H 0.49911 0.37389 0.80254 0.0
H102 H 0.48083 0.41333 0.80521 0.0
H103 H 0.52703 0.41502 0.82492 0.0
C104 C 0.56025 0.13077 0.73207 0.0
N105 N 0.58287 0.11566 0.74908 0.0
N106 N 0.51815 0.1181 0.74377 0.0
C107 C 0.57789 0.15628 0.7036 0.0
C108 C 0.51567 0.09524 0.76846 0.0
N109 N 0.55487 0.09321 0.77165 0.0
C110 C 0.47561 0.07648 0.78991 0.0
H111 H 0.59121 0.19086 0.70519 0.0
H112 H 0.54957 0.14645 0.6894 0.0
H113 H 0.60579 0.15202 0.69466 0.0
H114 H 0.45188 0.04273 0.78686 0.0
H115 H 0.45638 0.09463 0.78771 0.0
H116 H 0.48737 0.07657 0.81132 0.0
C117 C 0.79358 0.58498 1.0204 0.0
N118 N 0.82823 0.596 1.00108 0.0
N119 N 0.76073 0.59225 1.00902 0.0
C120 C 0.79192 0.56702 0.05024 0.0
C121 C 0.77607 0.6074 0.98201 0.0
N122 N 0.81711 0.60935 0.97697 0.0
C123 C 0.75025 0.61924 0.96037 0.0
H124 H 0.75789 0.55531 0.06129 0.0
H125 H 0.81851 0.5927 0.06092 0.0
H126 H 0.80015 0.54038 0.0512 0.0
H127 H 0.72689 0.62887 0.96982 0.0
H128 H 0.72912 0.5909 0.94971 0.0
H129 H 0.77438 0.64602 0.94455 0.0
C130 C 0.48013 0.25164 0.99574 0.0
N131 N 0.46402 0.21916 0.97982 0.0
N132 N 0.4739 0.28461 0.98401 0.0
C133 C 0.50398 0.25222 0.02212 0.0
C134 C 0.45345 0.27101 0.96029 0.0
N135 N 0.44801 0.23163 0.95749 0.0
C136 C 0.43634 0.2951 0.94053 0.0
H137 H 0.47826 0.239 0.04022 0.0
H138 H 0.52975 0.28563 0.02472 0.0
H139 H 0.52118 0.23231 0.02205 0.0
H140 H 0.46204 0.31248 0.92253 0.0
H141 H 0.43109 0.31868 0.95074 0.0
H142 H 0.40357 0.27277 0.93229 0.0
C143 C 0.77706 0.26314 0.99771 0.0
N144 N 0.75851 0.2293 0.98283 0.0
N145 N 0.81416 0.29765 0.98335 0.0
C146 C 0.7629 0.26037 0.02764 0.0
C147 C 0.81742 0.28325 0.95917 0.0
N148 N 0.78412 0.24197 0.95886 0.0
C149 C 0.853 0.30959 0.93548 0.0
H150 H 0.73457 0.26818 0.02875 0.0
H151 H 0.79189 0.283 0.03872 0.0
H152 H 0.75043 0.2273 0.03816 0.0
H153 H 0.88288 0.30405 0.93799 0.0
H154 H 0.8649 0.34438 0.93519 0.0
H155 H 0.83892 0.29975 0.91524 0.0
C156 C 0.54643 0.77879 0.0804 0.0
N157 N 0.5643 0.8122 0.09555 0.0
N158 N 0.553 0.74605 0.09222 0.0
C159 C 0.52071 0.77728 0.05475 0.0
C160 C 0.57604 0.76098 0.11492 0.0
N161 N 0.58238 0.80079 0.11723 0.0
C162 C 0.59692 0.73871 0.13311 0.0
H163 H 0.49534 0.74364 0.05238 0.0
H164 H 0.54549 0.79116 0.03615 0.0
H165 H 0.50276 0.79643 0.05561 0.0
H166 H 0.60243 0.71604 0.12196 0.0
H167 H 0.57348 0.72037 0.15194 0.0
H168 H 0.63031 0.76253 0.13999 0.0
C169 C 0.25684 0.79464 0.07701 0.0
N170 N 0.27675 0.82742 0.09279 0.0
N171 N 0.2146 0.76414 0.08836 0.0
C172 C 0.27732 0.79229 0.05002 0.0
C173 C 0.20894 0.7796 0.11135 0.0
N174 N 0.24645 0.8176 0.11433 0.0
C175 C 0.16534 0.75888 0.1301 0.0
H176 H 0.25969 0.79963 0.03259 0.0
H177 H 0.27156 0.7592 0.04949 0.0
H178 H 0.31437 0.81523 0.0467 0.0
H179 H 0.16874 0.73909 0.14838 0.0
H180 H 0.13526 0.73782 0.11906 0.0
H181 H 0.15907 0.78366 0.13791 0.0
C182 C 0.2313 0.46819 0.0657 0.0
N183 N 0.25251 0.45213 0.08323 0.0
N184 N 0.19004 0.45854 0.07736 0.0
C185 C 0.24894 0.49037 0.03645 0.0
C186 C 0.18663 0.43622 0.10251 0.0
N187 N 0.22449 0.43199 0.10609 0.0
C188 C 0.14647 0.4191 0.12371 0.0
H189 H 0.26723 0.52568 0.03654 0.0
H190 H 0.22011 0.48243 0.02276 0.0
H191 H 0.27309 0.48101 0.02788 0.0
H192 H 0.12063 0.38628 0.12001 0.0
H193 H 0.12997 0.43971 0.12176 0.0
H194 H 0.15737 0.41719 0.14521 0.0
C195 C 0.45091 0.9048 0.34567 0.0
N196 N 0.48782 0.91793 0.32768 0.0
N197 N 0.41863 0.91169 0.33297 0.0
C198 C 0.44747 0.88737 0.37582 0.0
C199 C 0.43668 0.92856 0.30656 0.0
N200 N 0.47869 0.93219 0.30327 0.0
C201 C 0.41356 0.94208 0.28401 0.0
H202 H 0.46281 0.86584 0.37833 0.0
H203 H 0.41131 0.86966 0.38458 0.0
H204 H 0.46707 0.91467 0.38763 0.0
H205 H 0.42567 0.97699 0.28324 0.0
H206 H 0.37566 0.92436 0.28815 0.0
H207 H 0.4227 0.93656 0.26338 0.0
C208 C 0.1423 0.58117 0.33105 0.0
N209 N 0.13017 0.55137 0.31325 0.0
N210 N 0.13998 0.61629 0.31909 0.0
C211 C 0.15493 0.57515 0.36042 0.0
C212 C 0.12602 0.60647 0.29336 0.0
N213 N 0.12014 0.56724 0.28966 0.0
C214 C 0.11738 0.635 0.27168 0.0
H215 H 0.15282 0.59796 0.37318 0.0
H216 H 0.19047 0.58003 0.35981 0.0
H217 H 0.13189 0.54204 0.37078 0.0
H218 H 0.13907 0.66937 0.27418 0.0
H219 H 0.08073 0.62666 0.27395 0.0
H220 H 0.12452 0.62998 0.25041 0.0
C221 C 0.44579 0.58776 0.33488 0.0
N222 N 0.42761 0.55411 0.31975 0.0
N223 N 0.48418 0.62188 0.32134 0.0
C224 C 0.42797 0.58631 0.36368 0.0
C225 C 0.48786 0.60806 0.29702 0.0
N226 N 0.45433 0.56703 0.29615 0.0
C227 C 0.52249 0.63549 0.27305 0.0
H228 H 0.4039 0.59953 0.36227 0.0
H229 H 0.4564 0.60578 0.37637 0.0
H230 H 0.40925 0.55282 0.37404 0.0
H231 H 0.55101 0.62783 0.27302 0.0
H232 H 0.53673 0.67023 0.2745 0.0
H233 H 0.50629 0.62839 0.25297 0.0
Tb234 Tb 0.51342 0.99878 1.00616 0.0
C235 C 0.58791 0.14275 0.07851 0.0
C236 C 0.66901 0.16553 0.07659 0.0
C237 C 0.64286 0.21632 0.08443 0.0
C238 C 0.62317 0.13401 0.07418 0.0
C239 C 0.59715 0.18386 0.08399 0.0
C240 C 0.67871 0.20695 0.0812 0.0
C241 C 0.51563 0.1558 0.09275 0.0
N242 N 0.54441 0.10981 0.07971 0.0
C243 C 0.50844 0.11529 0.08817 0.0
C244 C 0.5602 0.19044 0.0903 0.0
Tb245 Tb 0.53508 0.04458 0.07062 0.0
N246 N 0.61209 0.09317 0.07078 0.0
C247 C 0.64556 0.08133 0.07122 0.0
C248 C 0.70335 0.15378 0.07591 0.0
C249 C 0.69152 0.11147 0.07332 0.0
H250 H 0.47392 0.08841 0.09061 0.0
H251 H 0.71775 0.10187 0.07322 0.0
H252 H 0.71365 0.23158 0.0832 0.0
H253 H 0.48684 0.16012 0.0985 0.0
H254 H 0.63765 0.04887 0.06948 0.0
H255 H 0.33036 0.93678 1.00084 0.0
H256 H 0.73887 0.17672 0.07824 0.0
H257 H 0.57795 0.95711 0.98823 0.0
H258 H 0.41006 0.99252 1.0037 0.0
H259 H 0.56739 0.88519 0.98263 0.0
H260 H 0.65074 0.24813 0.08857 0.0
H261 H 0.31195 0.86159 0.99946 0.0
H262 H 0.33965 0.80769 0.99843 0.0
H263 H 0.56584 0.22163 0.09441 0.0
H264 H 0.40429 0.79302 0.99522 0.0
N265 N 0.43736 0.94933 1.00516 0.0
C266 C 0.40297 0.95989 1.00344 0.0
C267 C 0.34713 0.88577 1.00129 0.0
C268 C 0.38252 0.87528 1.00207 0.0
C269 C 0.35745 0.92827 1.00181 0.0
C270 C 0.42786 0.90823 1.00389 0.0
H271 H 0.48961 0.82181 0.98917 0.0
N272 N 0.50743 0.93373 1.00035 0.0
C273 C 0.53812 0.88881 0.98833 0.0
C274 C 0.46415 0.89997 1.0018 0.0
C275 C 0.54401 0.92938 0.99156 0.0
C276 C 0.49417 0.85308 0.99216 0.0
C277 C 0.45632 0.85866 0.99792 0.0
O278 O 0.55695 0.02092 0.96938 0.0
O279 O 0.55785 0.05329 0.02719 0.0
O280 O 0.512 0.08247 0.04283 0.0
O281 O 0.48828 0.04592 1.00383 0.0
O282 O 0.58897 0.03126 1.00234 0.0
O283 O 0.48674 1.00629 0.96756 0.0
O284 O 0.50703 0.03749 0.11153 0.0
O285 O 0.48821 0.99241 0.04903 0.0
O286 O 0.52648 0.95581 0.03567 0.0
O287 O 0.56027 0.99735 0.07114 0.0
O288 O 0.46001 1.01348 0.07651 0.0
O289 O 0.55251 1.0129 0.10359 0.0
C290 C 0.59683 0.06138 1.01713 0.0
C291 C 0.52249 0.99648 0.92822 0.0
C292 C 0.54262 1.00133 0.87858 0.0
C293 C 0.54062 0.02111 0.90184 0.0
C294 C 0.52806 0.95696 0.8827 0.0
C295 C 0.50455 0.95186 0.93078 0.0
C296 C 0.50842 0.93242 0.90845 0.0
C297 C 0.49245 0.07623 1.01876 0.0
C298 C 0.52495 0.01779 0.95309 0.0
C299 C 0.41107 0.82508 0.99797 0.0
C300 C 0.37426 0.83346 0.99977 0.0
C301 C 0.44986 0.98542 0.05976 0.0
C302 C 0.5552 0.0357 0.14725 0.0
C303 C 0.54034 1.01051 0.17358 0.0
C304 C 0.56667 0.02426 0.19677 0.0
C305 C 0.60801 0.06351 0.19312 0.0
C306 C 0.59623 0.07497 0.14439 0.0
C307 C 0.62248 0.08871 0.16712 0.0
C308 C 0.54948 0.96335 0.05828 0.0
C309 C 0.52975 0.0192 0.12264 0.0
H310 H 0.55168 0.05518 0.89943 0.0
H311 H 0.5303 0.9408 0.86569 0.0
H312 H 0.48756 0.93182 0.94994 0.0
H313 H 0.49558 0.89803 0.91102 0.0
H314 H 0.50814 0.98058 0.17598 0.0
H315 H 0.62911 0.07481 0.21045 0.0
H316 H 0.60843 0.09485 0.12461 0.0
H317 H 0.65428 0.11896 0.16453 0.0
Tb318 Tb 0.04232 0.5512 0.99929 0.0
C319 C 0.88046 0.46441 0.08823 0.0
C320 C 0.85849 0.5182 0.09451 0.0
C321 C 0.80095 0.44253 0.10169 0.0
C322 C 0.89187 0.50697 0.0871 0.0
C323 C 0.83502 0.43155 0.0959 0.0
C324 C 0.81273 0.48582 0.10114 0.0
C325 C 0.86119 0.37967 0.09387 0.0
N326 N 0.91451 0.45524 0.08289 0.0
C327 C 0.90585 0.41342 0.0867 0.0
C328 C 0.8255 0.38874 0.09819 0.0
Tb329 Tb 0.98601 0.51297 0.06959 0.0
N330 N 0.93641 0.53722 0.08061 0.0
C331 C 0.9505 0.57922 0.08332 0.0
C332 C 0.87248 0.5614 0.09616 0.0
C333 C 0.9188 0.59194 0.09091 0.0
H334 H 0.93301 0.40583 0.08341 0.0
H335 H 0.93016 0.62532 0.09276 0.0
H336 H 0.78645 0.49385 0.10651 0.0
H337 H 0.85435 0.34668 0.0961 0.0
H338 H 0.98619 0.60327 0.07952 0.0
H339 H 0.09994 0.43666 0.98455 0.0
H340 H 0.84811 0.57128 0.10233 0.0
H341 H 0.09419 0.65629 0.97775 0.0
H342 H 0.0429 0.46005 0.99195 0.0
H343 H 0.17321 0.71533 0.9649 0.0
H344 H 0.76574 0.41779 0.10738 0.0
H345 H 0.18271 0.49003 0.97814 0.0
H346 H 0.24428 0.56782 0.97242 0.0
H347 H 0.79099 0.36254 0.1039 0.0
H348 H 0.26437 0.64423 0.9669 0.0
N349 N 0.09251 0.52623 0.99063 0.0
C350 C 0.07872 0.48391 0.98905 0.0
C351 C 0.15775 0.50054 0.98143 0.0
C352 C 0.17141 0.54413 0.98099 0.0
C353 C 0.11107 0.47038 0.98489 0.0
C354 C 0.13741 0.55599 0.98527 0.0
H355 H 0.23786 0.69968 0.96344 0.0
N356 N 0.11402 0.6078 0.98469 0.0
C357 C 0.16686 0.68262 0.96993 0.0
C358 C 0.14864 0.59852 0.98218 0.0
C359 C 0.1221 0.64906 0.97722 0.0
C360 C 0.20327 0.67368 0.9692 0.0
C361 C 0.19427 0.63104 0.97476 0.0
O362 O 0.02064 0.57758 0.96525 0.0
O363 O 0.98873 0.54339 0.02811 0.0
O364 O 0.93694 0.47304 0.04122 0.0
O365 O 0.98795 0.48221 1.00446 0.0
O366 O 0.01839 0.59814 1.00037 0.0
O367 O 0.02345 0.51947 0.96352 0.0
O368 O 1.00799 0.48464 0.10232 0.0
O369 O 0.04101 0.52222 0.0411 0.0
O370 O 0.08838 0.59781 0.02553 0.0
O371 O 0.04073 0.58135 0.06618 0.0
O372 O 1.00817 0.4653 0.06705 0.0
O373 O 1.00323 0.54109 0.10698 0.0
C374 C 0.98719 0.57746 1.02044 0.0
C375 C 0.03415 0.56372 0.92063 0.0
C376 C 0.02312 0.56122 0.87068 0.0
C377 C 1.00635 0.54536 0.89884 0.0
C378 C 0.06805 0.59582 0.86484 0.0
C379 C 0.07912 0.59749 0.91409 0.0
C380 C 0.09579 0.61356 0.88639 0.0
C381 C 0.94706 0.46052 1.01869 0.0
C382 C 0.01531 0.54833 0.94992 0.0
C383 C 0.22895 0.61973 0.97219 0.0
C384 C 0.21751 0.57625 0.97533 0.0
C385 C 0.04146 0.48752 0.04837 0.0
C386 C 0.99586 0.49421 0.14845 0.0
C387 C 0.02433 0.5112 0.17044 0.0
C388 C 0.0097 0.49139 0.19844 0.0
C389 C 0.96682 0.45366 0.20363 0.0
C390 C 0.95256 0.45775 0.15471 0.0
C391 C 0.93839 0.43751 0.18206 0.0
C392 C 0.07907 0.6065 0.04991 0.0
C393 C 0.01298 0.51226 0.11898 0.0
H394 H 0.97209 0.51839 0.90389 0.0
H395 H 0.0819 0.60912 0.84352 0.0
H396 H 0.10134 0.61169 0.9303 0.0
H397 H 0.13043 0.63992 0.88158 0.0
H398 H 0.05763 0.53965 0.16574 0.0
H399 H 0.95516 0.43628 0.22446 0.0
H400 H 0.93013 0.44418 0.13837 0.0
H401 H 0.90534 0.40875 0.18654 0.0
Tb402 Tb 0.50912 0.49066 0.07799 0.0
C403 C 0.43824 0.57301 0.98774 0.0
C404 C 0.35943 0.51744 0.98681 0.0
C405 C 0.37939 0.59257 0.97579 0.0
C406 C 0.40566 0.5302 0.99174 0.0
C407 C 0.42584 0.60477 0.97898 0.0
C408 C 0.3462 0.54891 0.97964 0.0
C409 C 0.50656 0.65728 0.97387 0.0
N410 N 0.48267 0.58325 0.99063 0.0
C411 C 0.51708 0.62449 0.98235 0.0
C412 C 0.46068 0.64751 0.97265 0.0
Tb413 Tb 0.49625 0.52759 1.00637 0.0
N414 N 0.41995 0.50094 0.99854 0.0
C415 C 0.39017 0.45811 0.99846 0.0
C416 C 0.32837 0.47353 0.98813 0.0
C417 C 0.34395 0.44378 0.99368 0.0
H418 H 0.55263 0.63218 0.98304 0.0
H419 H 0.32039 0.40977 0.99425 0.0
H420 H 0.31071 0.53978 0.97619 0.0
H421 H 0.53385 0.69002 0.96819 0.0
H422 H 0.40151 0.43458 1.00266 0.0
H423 H 0.6819 0.60703 0.09825 0.0
H424 H 0.29266 0.46235 0.98415 0.0
H425 H 0.45243 0.38509 0.09778 0.0
H426 H 0.60164 0.58272 0.08787 0.0
H427 H 0.47091 0.32694 0.11194 0.0
H428 H 0.36901 0.61649 0.96942 0.0
H429 H 0.71047 0.55473 0.10606 0.0
H430 H 0.69292 0.47746 0.11191 0.0
H431 H 0.45262 0.67289 0.96587 0.0
H432 H 0.63509 0.40072 0.11589 0.0
N433 N 0.58421 0.51686 0.08906 0.0
C434 C 0.61308 0.55919 0.09143 0.0
C435 C 0.67497 0.54373 0.10158 0.0
C436 C 0.64443 0.50007 0.10126 0.0
C437 C 0.65891 0.57329 0.0973 0.0
C438 C 0.5986 0.48756 0.09531 0.0
H439 H 0.55182 0.34417 0.11658 0.0
N440 N 0.52234 0.43467 0.09341 0.0
C441 C 0.49819 0.35995 0.10776 0.0
C442 C 0.5664 0.44478 0.0976 0.0
C443 C 0.48785 0.393 0.09976 0.0
C444 C 0.54389 0.36978 0.11029 0.0
C445 C 0.57864 0.41275 0.10576 0.0
O446 O 0.45777 0.46234 0.11114 0.0
O447 O 0.46515 0.49983 0.04846 0.0
O448 O 0.50036 0.57667 0.03097 0.0
O449 O 0.52542 0.55895 0.07335 0.0
O450 O 0.43752 0.44357 0.07507 0.0
O451 O 0.519 0.52143 0.1141 0.0
O452 O 0.54767 0.55108 0.97334 0.0
O453 O 0.53996 0.51941 0.03635 0.0
O454 O 0.51216 0.4458 0.05196 0.0
O455 O 0.48115 0.45983 1.0112 0.0
O456 O 0.56837 0.57446 1.00806 0.0
O457 O 0.48143 0.49869 0.96921 0.0
C458 C 0.42781 0.4658 0.05622 0.0
C459 C 0.48098 0.47645 0.15667 0.0
C460 C 0.47134 0.48019 0.20653 0.0
C461 C 0.47254 0.496 0.17813 0.0
C462 C 0.47712 0.44383 0.2129 0.0
C463 C 0.48812 0.44115 0.16392 0.0
C464 C 0.48577 0.42478 0.1918 0.0
C465 C 0.51639 0.58503 0.05582 0.0
C466 C 0.48035 0.49173 0.12692 0.0
C467 C 0.62479 0.42482 0.11 0.0
C468 C 0.65771 0.46849 0.10772 0.0
C469 C 0.57688 0.55372 0.02863 0.0
C470 C 0.52455 0.54292 0.92723 0.0
C471 C 0.53875 0.52832 0.905 0.0
C472 C 0.54366 0.54814 0.87705 0.0
C473 C 0.5365 0.58393 0.87225 0.0
C474 C 0.51482 0.57678 0.92106 0.0
C475 C 0.52155 0.59757 0.89394 0.0
C476 C 0.49484 0.43628 0.02754 0.0
C477 C 0.52191 0.52442 0.95683 0.0
H478 H 0.4676 0.52367 0.17277 0.0
H479 H 0.47522 0.43018 0.23437 0.0
H480 H 0.49496 0.42579 0.14808 0.0
H481 H 0.49068 0.39713 0.19709 0.0
H482 H 0.5452 0.5014 0.90937 0.0
H483 H 0.54187 0.60123 0.85147 0.0
H484 H 0.50245 0.5876 0.93721 0.0
H485 H 0.51502 0.62442 0.88967 0.0
Tb486 Tb 0.17754 0.32825 0.3403 0.0
C487 C 0.24541 0.47433 0.4123 0.0
C488 C 0.32678 0.49945 0.41483 0.0
C489 C 0.2965 0.54809 0.4199 0.0
C490 C 0.28227 0.467 0.4106 0.0
C491 C 0.25192 0.51486 0.41717 0.0
C492 C 0.33383 0.54028 0.41898 0.0
C493 C 0.16954 0.4854 0.41908 0.0
N494 N 0.20285 0.44106 0.41039 0.0
C495 C 0.16481 0.44553 0.41494 0.0
C496 C 0.21333 0.52036 0.41995 0.0
Tb497 Tb 0.19877 0.37723 0.40298 0.0
N498 N 0.27409 0.42727 0.40635 0.0
C499 C 0.30901 0.41736 0.40747 0.0
C500 C 0.36254 0.48948 0.41563 0.0
C501 C 0.35364 0.44831 0.41182 0.0
H502 H 0.13077 0.41872 0.4144 0.0
H503 H 0.38106 0.44024 0.41244 0.0
H504 H 0.36786 0.56578 0.42195 0.0
H505 H 0.1394 0.48906 0.42175 0.0
H506 H 0.30287 0.38559 0.40493 0.0
H507 H 0.99599 0.26637 0.32824 0.0
H508 H 0.39703 0.51316 0.41949 0.0
H509 H 0.2448 0.28403 0.33533 0.0
H510 H 0.07457 0.32186 0.33447 0.0
H511 H 0.23497 0.21202 0.33144 0.0
H512 H 0.30228 0.57952 0.42351 0.0
H513 H 0.9792 0.19196 0.32513 0.0
H514 H 1.00739 0.1382 0.32642 0.0
H515 H 0.21688 0.55108 0.42348 0.0
H516 H 0.07213 0.12314 0.328 0.0
N517 N 0.1025 0.2792 0.33605 0.0
C518 C 0.068 0.28951 0.33356 0.0
C519 C 0.01373 0.21598 0.32855 0.0
C520 C 0.04916 0.20563 0.33081 0.0
C521 C 0.02317 0.25805 0.33003 0.0
C522 C 0.0938 0.23844 0.33436 0.0
H523 H 0.15712 0.15052 0.32971 0.0
N524 N 0.17293 0.26296 0.33727 0.0
C525 C 0.20521 0.21661 0.33259 0.0
C526 C 0.13015 0.22995 0.3351 0.0
C527 C 0.21066 0.25733 0.33478 0.0
C528 C 0.16119 0.18194 0.33168 0.0
C529 C 0.12304 0.18848 0.33247 0.0
O530 O 0.22335 0.34855 0.30491 0.0
O531 O 0.22345 0.38239 0.36084 0.0
O532 O 0.19017 0.42111 0.37106 0.0
O533 O 0.15219 0.3757 0.3378 0.0
O534 O 0.25317 0.35711 0.33823 0.0
O535 O 0.1545 0.33749 0.3006 0.0
O536 O 0.16156 0.36116 0.44176 0.0
O537 O 0.151 0.32511 0.38186 0.0
O538 O 0.17801 0.28262 0.37419 0.0
O539 O 0.22481 0.33022 0.40337 0.0
O540 O 0.12346 0.34853 0.40754 0.0
O541 O 0.2254 0.3599 0.43843 0.0
C542 C 0.26219 0.38816 0.35237 0.0
C543 C 0.19258 0.32731 0.26238 0.0
C544 C 0.2089 0.33432 0.21196 0.0
C545 C 0.20389 0.35173 0.23568 0.0
C546 C 0.20401 0.29276 0.21567 0.0
C547 C 0.18543 0.28514 0.26497 0.0
C548 C 0.19156 0.26819 0.24188 0.0
C549 C 0.16496 0.41149 0.3492 0.0
C550 C 0.19346 0.34761 0.28748 0.0
C551 C 0.07838 0.1553 0.3299 0.0
C552 C 0.04153 0.16389 0.32897 0.0
C553 C 0.11269 0.31983 0.39123 0.0
C554 C 0.16979 0.30978 0.47286 0.0
C555 C 0.18097 0.30835 0.50072 0.0
C556 C 0.1586 0.26971 0.51936 0.0
C557 C 0.12717 0.23196 0.50877 0.0
C558 C 0.13893 0.2718 0.46278 0.0
C559 C 0.11805 0.233 0.48063 0.0
C560 C 0.20564 0.2919 0.39472 0.0
C561 C 0.19007 0.3513 0.45476 0.0
H562 H 0.20871 0.38411 0.23344 0.0
H563 H 0.20969 0.27906 0.19827 0.0
H564 H 0.17628 0.26545 0.28484 0.0
H565 H 0.18711 0.23596 0.24437 0.0
H566 H 0.2067 0.33763 0.50775 0.0
H567 H 0.10852 0.20169 0.52231 0.0
H568 H 0.13087 0.27233 0.44121 0.0
H569 H 0.09382 0.20379 0.4728 0.0
Tb570 Tb 0.70816 0.88071 0.33468 0.0
C571 C 0.54436 0.79365 0.42137 0.0
C572 C 0.51854 0.84587 0.42353 0.0
C573 C 0.46375 0.76952 0.43313 0.0
C574 C 0.55367 0.83588 0.41815 0.0
C575 C 0.49946 0.75992 0.4293 0.0
C576 C 0.47332 0.81245 0.43037 0.0
C577 C 0.52932 0.71021 0.43158 0.0
N578 N 0.57992 0.7858 0.4179 0.0
C579 C 0.57337 0.74481 0.42406 0.0
C580 C 0.4921 0.71773 0.4339 0.0
Tb581 Tb 0.65021 0.84481 0.40419 0.0
N582 N 0.59777 0.86721 0.41162 0.0
C583 C 0.60964 0.90932 0.41219 0.0
C584 C 0.53024 0.88905 0.42296 0.0
C585 C 0.57608 0.92087 0.4176 0.0
H586 H 0.60186 0.73859 0.42238 0.0
H587 H 0.58563 0.95433 0.41761 0.0
H588 H 0.44575 0.81948 0.43423 0.0
H589 H 0.52415 0.67779 0.43568 0.0
H590 H 0.64492 0.93434 0.40815 0.0
H591 H 0.77521 0.77215 0.32324 0.0
H592 H 0.50442 0.89805 0.42744 0.0
H593 H 0.75558 0.98515 0.31169 0.0
H594 H 0.71531 0.7925 0.32891 0.0
H595 H 0.83314 0.04648 0.29908 0.0
H596 H 0.42892 0.74406 0.43901 0.0
H597 H 0.85704 0.82826 0.31717 0.0
H598 H 0.91546 0.90718 0.31049 0.0
H599 H 0.45807 0.69089 0.43992 0.0
H600 H 0.93133 0.98246 0.30364 0.0
N601 N 0.7618 0.85913 0.32721 0.0
C602 C 0.75047 0.81726 0.32628 0.0
C603 C 0.83068 0.83729 0.31975 0.0
C604 C 0.84196 0.88044 0.31857 0.0
C605 C 0.78457 0.8056 0.32303 0.0
C606 C 0.80619 0.89028 0.32209 0.0
H607 H 0.90061 0.03484 0.2988 0.0
N608 N 0.7787 0.93912 0.31976 0.0
C609 C 0.8286 1.01445 0.30458 0.0
C610 C 0.81503 0.93207 0.31817 0.0
C611 C 0.7846 0.97951 0.31176 0.0
C612 C 0.86661 1.00779 0.30453 0.0
C613 C 0.85999 0.96601 0.31078 0.0
O614 O 0.69162 0.9071 0.29815 0.0
O615 O 0.65217 0.87233 0.36181 0.0
O616 O 0.60404 0.79963 0.37715 0.0
O617 O 0.6566 0.81014 0.34087 0.0
O618 O 0.68189 0.92621 0.33359 0.0
O619 O 0.68501 0.84403 0.30159 0.0
O620 O 0.67635 0.82266 0.43778 0.0
O621 O 0.70655 0.85479 0.37698 0.0
O622 O 0.75386 0.92714 0.36131 0.0
O623 O 0.70329 0.91415 0.39967 0.0
O624 O 0.67688 0.79962 0.40451 0.0
O625 O 0.6594 0.87243 0.44173 0.0
C626 C 0.64942 0.90547 0.35285 0.0
C627 C 0.70211 0.88336 0.25666 0.0
C628 C 0.69094 0.87921 0.20693 0.0
C629 C 0.67322 0.87408 0.23449 0.0
C630 C 0.73844 0.89454 0.20213 0.0
C631 C 0.74931 0.8993 0.25125 0.0
C632 C 0.76734 0.90505 0.22407 0.0
C633 C 0.61612 0.78658 0.35563 0.0
C634 C 0.68204 0.87413 0.2854 0.0
C635 C 0.8964 0.95684 0.30895 0.0
C636 C 0.88738 0.91401 0.31286 0.0
C637 C 0.70968 0.82187 0.38547 0.0
C638 C 0.6583 0.82866 0.48345 0.0
C639 C 0.68699 0.84619 0.50509 0.0
C640 C 0.67619 0.82392 0.53263 0.0
C641 C 0.63514 0.7843 0.53788 0.0
C642 C 0.61712 0.78994 0.4897 0.0
C643 C 0.60565 0.76801 0.51675 0.0
C644 C 0.7431 0.93787 0.38446 0.0
C645 C 0.67478 0.84813 0.45418 0.0
H646 H 0.63677 0.862 0.23887 0.0
H647 H 0.75328 0.89701 0.18162 0.0
H648 H 0.77202 0.90648 0.26803 0.0
H649 H 0.80372 0.91664 0.22008 0.0
H650 H 0.71766 0.87706 0.50017 0.0
H651 H 0.62572 0.76545 0.55833 0.0
H652 H 0.59437 0.77606 0.4736 0.0
H653 H 0.57415 0.73768 0.52125 0.0
Tb654 Tb 0.18063 0.8284 0.41026 0.0
C655 C 0.09439 0.89739 0.31939 0.0
C656 C 0.01558 0.8407 0.32249 0.0
C657 C 0.03405 0.91445 0.30652 0.0
C658 C 0.06247 0.85484 0.32621 0.0
C659 C 0.08093 0.92773 0.30881 0.0
C660 C 1.00139 0.87089 0.31323 0.0
C661 C 0.16125 0.98042 0.30019 0.0
N662 N 0.13917 0.9084 0.32114 0.0
C663 C 0.1727 0.94883 0.3104 0.0
C664 C 0.1151 0.96999 0.29978 0.0
Tb665 Tb 0.15564 0.85574 0.33958 0.0
N666 N 0.07798 0.82686 0.33431 0.0
C667 C 0.04825 0.78356 0.33715 0.0
C668 C 0.98477 0.79658 0.32702 0.0
C669 C 1.00131 0.76787 0.33404 0.0
H670 H 0.20842 0.95706 0.31025 0.0
H671 H 0.97794 0.73358 0.33704 0.0
H672 H 0.96548 0.86074 0.31046 0.0
H673 H 0.18801 1.01267 0.29248 0.0
H674 H 0.05997 0.76062 0.34256 0.0
H675 H 0.35293 0.95624 0.42066 0.0
H676 H 0.94852 0.7843 0.32424 0.0
H677 H 0.13334 0.7238 0.43136 0.0
H678 H 0.27062 0.92567 0.41455 0.0
H679 H 0.15923 0.6705 0.44473 0.0
H680 H 0.02287 0.93728 0.29868 0.0
H681 H 0.38776 0.90885 0.42798 0.0
H682 H 0.37655 0.83366 0.43592 0.0
H683 H 0.10626 0.99434 0.29156 0.0
H684 H 0.32367 0.75555 0.44261 0.0
N685 N 0.25778 0.86082 0.41744 0.0
C686 C 0.28462 0.90411 0.41778 0.0
C687 C 0.35128 0.89503 0.42533 0.0
C688 C 0.32316 0.85056 0.42698 0.0
C689 C 0.33171 0.92183 0.42129 0.0
C690 C 0.27597 0.83433 0.4232 0.0
H691 H 0.24227 0.69432 0.44647 0.0
N692 N 0.20112 0.77708 0.42507 0.0
C693 C 0.18418 0.70425 0.43978 0.0
C694 C 0.24647 0.79077 0.42721 0.0
C695 C 0.16963 0.73453 0.43238 0.0
C696 C 0.23108 0.71779 0.44065 0.0
C697 C 0.26288 0.76164 0.43482 0.0
O698 O 0.14306 0.79753 0.44916 0.0
O699 O 0.13164 0.8319 0.38293 0.0
O700 O 0.15888 0.90602 0.36285 0.0
O701 O 0.19371 0.89575 0.40315 0.0
O702 O 0.10784 0.77983 0.41264 0.0
O703 O 0.1847 0.86613 0.4413 0.0
O704 O 0.20183 0.8802 0.30365 0.0
O705 O 0.20456 0.85295 0.36742 0.0
O706 O 0.18462 0.7841 0.38375 0.0
O707 O 0.13916 0.78761 0.34817 0.0
O708 O 0.22812 0.90477 0.33724 0.0
O709 O 0.14242 0.81802 0.30698 0.0
C710 C 0.09536 0.799 0.3933 0.0
C711 C 0.17595 0.83446 0.48788 0.0
C712 C 0.17042 0.84195 0.53753 0.0
C713 C 0.15102 0.83548 0.51132 0.0
C714 C 0.21563 0.84847 0.53917 0.0
C715 C 0.21959 0.83854 0.49096 0.0
C716 C 0.23932 0.84572 0.51638 0.0
C717 C 0.17955 0.91833 0.38609 0.0
C718 C 0.15857 0.83336 0.45976 0.0
C719 C 0.31021 0.77737 0.43709 0.0
C720 C 0.34032 0.82183 0.43323 0.0
C721 C 0.24016 0.88689 0.3576 0.0
C722 C 0.17093 0.85562 0.26137 0.0
C723 C 0.20008 0.85563 0.23994 0.0
C724 C 0.19165 0.86122 0.21142 0.0
C725 C 0.15402 0.86785 0.20522 0.0
C726 C 0.13433 0.86283 0.25423 0.0
C727 C 0.12614 0.86908 0.22634 0.0
C728 C 0.15991 0.76859 0.36236 0.0
C729 C 0.17812 0.84695 0.29108 0.0
H730 H 0.1171 0.83198 0.50893 0.0
H731 H 0.2337 0.857 0.55787 0.0
H732 H 0.23917 0.83769 0.47347 0.0
H733 H 0.27377 0.85039 0.51824 0.0
H734 H 0.22907 0.85126 0.24564 0.0
H735 H 0.14516 0.87111 0.18393 0.0
H736 H 0.11171 0.8631 0.27024 0.0
H737 H 0.09744 0.87414 0.22103 0.0
Tb738 Tb 0.83982 0.66295 0.67596 0.0
C739 C 0.90597 0.80754 0.74773 0.0
C740 C 0.98732 0.83286 0.7496 0.0
C741 C 0.95737 0.88196 0.75372 0.0
C742 C 0.94264 0.80014 0.74601 0.0
C743 C 0.9126 0.84826 0.75218 0.0
C744 C 0.99469 0.87415 0.75269 0.0
C745 C 0.8302 0.81754 0.75763 0.0
N746 N 0.86333 0.77362 0.74746 0.0
C747 C 0.82549 0.77753 0.75393 0.0
C748 C 0.87396 0.85327 0.75632 0.0
Tb749 Tb 0.85864 0.70957 0.73965 0.0
N750 N 0.93395 0.75979 0.74315 0.0
C751 C 0.96851 0.7495 0.74531 0.0
C752 C 0.02276 0.82253 0.75135 0.0
C753 C 0.01332 0.78068 0.74915 0.0
H754 H 0.7915 0.75004 0.7552 0.0
H755 H 0.04044 0.77225 0.75072 0.0
H756 H 0.02887 0.89987 0.75511 0.0
H757 H 0.80007 0.82071 0.76169 0.0
H758 H 0.96203 0.7173 0.74394 0.0
H759 H 0.6592 0.60284 0.66117 0.0
H760 H 0.05714 0.84621 0.7553 0.0
H761 H 0.90677 0.61855 0.67078 0.0
H762 H 0.73729 0.65738 0.66917 0.0
H763 H 0.89691 0.54677 0.66607 0.0
H764 H 0.96329 0.9136 0.75689 0.0
H765 H 0.64239 0.52876 0.65673 0.0
H766 H 0.67017 0.47477 0.6577 0.0
H767 H 0.87756 0.8841 0.75961 0.0
H768 H 0.73451 0.45916 0.65984 0.0
N769 N 0.76504 0.6146 0.67023 0.0
C770 C 0.73078 0.62522 0.6676 0.0
C771 C 0.67673 0.55241 0.66081 0.0
C772 C 0.71187 0.54171 0.66332 0.0
C773 C 0.68619 0.59428 0.66308 0.0
C774 C 0.7563 0.57403 0.66778 0.0
H775 H 0.81922 0.48583 0.66292 0.0
N776 N 0.83503 0.5979 0.67173 0.0
C777 C 0.86723 0.55152 0.66691 0.0
C778 C 0.79241 0.56526 0.66877 0.0
C779 C 0.87269 0.59213 0.66955 0.0
C780 C 0.82329 0.51717 0.6652 0.0
C781 C 0.78529 0.52396 0.66559 0.0
O782 O 0.88687 0.68293 0.64125 0.0
O783 O 0.88479 0.7167 0.69736 0.0
O784 O 0.84507 0.7517 0.70922 0.0
O785 O 0.81488 0.71044 0.6728 0.0
O786 O 0.91508 0.69103 0.67541 0.0
O787 O 0.8195 0.67575 0.63616 0.0
O788 O 0.81997 0.69161 0.7781 0.0
O789 O 0.81198 0.65865 0.71735 0.0
O790 O 0.83871 0.61612 0.70945 0.0
O791 O 0.88504 0.66293 0.73915 0.0
O792 O 0.78352 0.68082 0.7435 0.0
O793 O 0.8816 0.68683 0.77486 0.0
C794 C 0.92369 0.72216 0.68937 0.0
C795 C 0.85743 0.66617 0.59775 0.0
C796 C 0.87467 0.6765 0.54729 0.0
C797 C 0.87097 0.69272 0.57183 0.0
C798 C 0.86577 0.63368 0.54928 0.0
C799 C 0.84718 0.62318 0.59887 0.0
C800 C 0.85161 0.60717 0.57484 0.0
C801 C 0.82342 0.7438 0.68593 0.0
C802 C 0.8585 0.68484 0.62355 0.0
C803 C 0.74079 0.4912 0.66216 0.0
C804 C 0.70417 0.50011 0.66092 0.0
C805 C 0.77345 0.65308 0.72655 0.0
C806 C 0.86358 0.70235 0.81768 0.0
C807 C 0.86424 0.6769 0.84198 0.0
C808 C 0.87522 0.69391 0.86748 0.0
C809 C 0.88571 0.73697 0.86791 0.0
C810 C 0.87546 0.74534 0.81872 0.0
C811 C 0.8866 0.76252 0.84365 0.0
C812 C 0.86596 0.62485 0.73015 0.0
C813 C 0.84909 0.68339 0.79166 0.0
H814 H 0.87844 0.72586 0.57079 0.0
H815 H 0.8697 0.6206 0.53103 0.0
H816 H 0.83672 0.60208 0.61827 0.0
H817 H 0.8444 0.57413 0.57607 0.0
H818 H 0.85533 0.64374 0.84107 0.0
H819 H 0.89158 0.75077 0.88717 0.0
H820 H 0.87512 0.76548 0.80051 0.0
H821 H 0.8947 0.79549 0.84436 0.0
Tb822 Tb 0.37254 0.21089 0.66668 0.0
C823 C 0.21065 0.12932 0.75629 0.0
C824 C 0.18737 0.1833 0.75856 0.0
C825 C 0.13155 0.10767 0.77078 0.0
C826 C 0.2211 0.17187 0.75239 0.0
C827 C 0.16586 0.09667 0.76582 0.0
C828 C 0.14236 0.15094 0.76735 0.0
C829 C 0.19317 0.04517 0.76727 0.0
N830 N 0.24495 0.12009 0.75181 0.0
C831 C 0.23721 0.07871 0.75829 0.0
C832 C 0.15722 0.05412 0.7708 0.0
Tb833 Tb 0.31572 0.17773 0.73665 0.0
N834 N 0.26494 0.2022 0.74393 0.0
C835 C 0.27776 0.2449 0.74244 0.0
C836 C 0.20018 0.22691 0.75648 0.0
C837 C 0.24556 0.25784 0.74834 0.0
H838 H 0.26462 0.07121 0.7559 0.0
H839 H 0.25589 0.29168 0.74684 0.0
H840 H 0.11587 0.15909 0.77192 0.0
H841 H 0.18707 1.01247 0.77163 0.0
H842 H 0.31273 0.26935 0.73651 0.0
H843 H 0.43357 0.09898 0.65202 0.0
H844 H 0.17554 0.23702 0.76163 0.0
H845 H 0.42269 0.31685 0.64801 0.0
H846 H 0.37555 0.12067 0.66099 0.0
H847 H 0.50023 0.37647 0.63286 0.0
H848 H 0.09687 0.08305 0.77795 0.0
H849 H 0.51554 0.1539 0.64324 0.0
H850 H 0.5753 0.23216 0.63562 0.0
H851 H 0.12323 0.02811 0.77799 0.0
H852 H 0.59331 0.30799 0.62961 0.0
N853 N 0.42393 0.18732 0.65841 0.0
C854 C 0.41106 0.14511 0.65729 0.0
C855 C 0.49018 0.16364 0.64735 0.0
C856 C 0.50278 0.20704 0.64658 0.0
C857 C 0.44395 0.1326 0.65215 0.0
C858 C 0.4683 0.21792 0.65191 0.0
H859 H 0.56523 0.36205 0.62771 0.0
N860 N 0.44346 0.2688 0.65236 0.0
C861 C 0.49461 0.34394 0.6373 0.0
C862 C 0.4784 0.26026 0.64848 0.0
C863 C 0.45062 0.30995 0.64591 0.0
C864 C 0.53122 0.33568 0.63444 0.0
C865 C 0.5233 0.29336 0.63971 0.0
O866 O 0.35249 0.23653 0.63151 0.0
O867 O 0.31756 0.20381 0.69402 0.0
O868 O 0.26838 0.13149 0.71056 0.0
O869 O 0.3188 0.14143 0.67293 0.0
O870 O 0.34733 0.25723 0.66535 0.0
O871 O 0.35484 0.17776 0.63146 0.0
O872 O 0.3448 0.15832 0.77006 0.0
O873 O 0.37 0.18394 0.7091 0.0
O874 O 0.42046 0.25488 0.69371 0.0
O875 O 0.36896 0.2471 0.72973 0.0
O876 O 0.33849 0.12983 0.73764 0.0
O877 O 0.32626 0.20693 0.77358 0.0
C878 C 0.31464 0.23661 0.68455 0.0
C879 C 0.36767 0.22131 0.5878 0.0
C880 C 0.35835 0.21994 0.53761 0.0
C881 C 0.34028 0.20418 0.56558 0.0
C882 C 0.40415 0.25313 0.53241 0.0
C883 C 0.41338 0.25386 0.58188 0.0
C884 C 0.43138 0.26972 0.55437 0.0
C885 C 0.27878 0.11875 0.6882 0.0
C886 C 0.34756 0.20657 0.61689 0.0
C887 C 0.55844 0.283 0.63594 0.0
C888 C 0.5482 0.23985 0.63942 0.0
C889 C 0.37042 0.14961 0.71787 0.0
C890 C 0.32572 0.16423 0.81559 0.0
C891 C 0.35471 0.17946 0.83757 0.0
C892 C 0.34097 0.15761 0.86523 0.0
C893 C 0.29753 0.12044 0.8701 0.0
C894 C 0.28217 0.12812 0.8216 0.0
C895 C 0.26833 0.10633 0.84861 0.0
C896 C 0.40989 0.26858 0.7155 0.0
C897 C 0.3427 0.18372 0.78628 0.0
H898 H 0.30528 0.17833 0.57015 0.0
H899 H 0.41903 0.2663 0.51125 0.0
H900 H 0.43513 0.26744 0.59842 0.0
H901 H 0.46661 0.29511 0.55004 0.0
H902 H 0.38758 0.20837 0.83297 0.0
H903 H 0.28588 0.10197 0.89065 0.0
H904 H 0.25906 0.11622 0.80538 0.0
H905 H 0.23489 0.07799 0.85286 0.0
Tb906 Tb 0.84046 0.15967 0.74382 0.0
C907 C 0.7709 0.2426 0.65317 0.0
C908 C 0.69182 0.18749 0.65248 0.0
C909 C 0.71248 0.26281 0.64143 0.0
C910 C 0.73802 0.19989 0.65722 0.0
C911 C 0.7589 0.27462 0.64442 0.0
C912 C 0.67895 0.21924 0.64544 0.0
C913 C 0.83985 0.32652 0.63895 0.0
N914 N 0.81524 0.25244 0.65594 0.0
C915 C 0.84995 0.29345 0.64746 0.0
C916 C 0.79407 0.31719 0.6379 0.0
Tb917 Tb 0.82813 0.19649 0.67189 0.0
N918 N 0.75202 0.17038 0.66383 0.0
C919 C 0.72204 0.12766 0.66355 0.0
C920 C 0.66044 0.14365 0.65384 0.0
C921 C 0.67578 0.11365 0.65902 0.0
H922 H 0.88539 0.30078 0.64815 0.0
H923 H 0.652 0.0797 0.65954 0.0
H924 H 0.64348 0.2104 0.64215 0.0
H925 H 0.86736 0.35911 0.63314 0.0
H926 H 0.73325 0.104 0.66753 0.0
H927 H 0.01405 0.27913 0.76043 0.0
H928 H 0.62468 0.13272 0.65011 0.0
H929 H 0.78546 0.05505 0.76583 0.0
H930 H 0.93319 0.25339 0.75124 0.0
H931 H 0.80506 0.9977 0.78048 0.0
H932 H 0.70239 0.28694 0.6351 0.0
H933 H 0.0435 0.22762 0.76939 0.0
H934 H 0.02673 0.15055 0.77716 0.0
H935 H 0.78633 0.34279 0.63112 0.0
H936 H 0.96953 0.07348 0.78275 0.0
N937 N 0.91607 0.18736 0.75427 0.0
C938 C 0.94491 0.23016 0.75534 0.0
C939 C 1.00768 0.21597 0.76547 0.0
C940 C 0.97733 0.172 0.76636 0.0
C941 C 0.99113 0.24509 0.76053 0.0
C942 C 0.93113 0.15865 0.76096 0.0
H943 H 0.88641 1.01604 0.78451 0.0
N944 N 0.85508 0.1049 0.76005 0.0
C945 C 0.83203 0.03074 0.77561 0.0
C946 C 0.89937 0.11571 0.76396 0.0
C947 C 0.82105 0.06324 0.76715 0.0
C948 C 0.87797 0.04121 0.77784 0.0
C949 C 0.9123 0.0843 0.77257 0.0
O950 O 0.78867 0.13168 0.77669 0.0
O951 O 0.79668 0.16842 0.71394 0.0
O952 O 0.83229 0.24581 0.6963 0.0
O953 O 0.85608 0.22768 0.73906 0.0
O954 O 0.76946 0.11192 0.74054 0.0
O955 O 0.84999 0.19068 0.77977 0.0
O956 O 0.87995 0.22038 0.63905 0.0
O957 O 0.87057 0.18772 0.70223 0.0
O958 O 0.84296 0.11417 0.71809 0.0
O959 O 0.81299 0.12861 0.67683 0.0
O960 O 0.90067 0.24235 0.674 0.0
O961 O 0.81418 0.16745 0.63478 0.0
C962 C 0.75969 0.13393 0.72154 0.0
C963 C 0.811 0.14619 0.8223 0.0
C964 C 0.80089 0.15115 0.87185 0.0
C965 C 0.80305 0.16669 0.8433 0.0
C966 C 0.80517 0.11406 0.87885 0.0
C967 C 0.81677 0.11023 0.83016 0.0
C968 C 0.81344 0.09411 0.85819 0.0
C969 C 0.84769 0.25395 0.72131 0.0
C970 C 0.81108 0.16119 0.79242 0.0
C971 C 0.95871 0.09711 0.77649 0.0
C972 C 0.99125 0.14097 0.77334 0.0
C973 C 0.90822 0.22097 0.69464 0.0
C974 C 0.85759 0.21175 0.59282 0.0
C975 C 0.87473 0.19898 0.57083 0.0
C976 C 0.87965 0.21865 0.54277 0.0
C977 C 0.86841 0.25192 0.53767 0.0
C978 C 0.84481 0.24352 0.58633 0.0
C979 C 0.8508 0.2638 0.55912 0.0
C980 C 0.82594 0.10476 0.69354 0.0
C981 C 0.85474 0.19343 0.62252 0.0
H982 H 0.79914 0.19483 0.83746 0.0
H983 H 0.80226 0.10046 0.90043 0.0
H984 H 0.82322 0.09414 0.81468 0.0
H985 H 0.81721 0.0659 0.86394 0.0
H986 H 0.88317 0.17339 0.57553 0.0
H987 H 0.87264 0.26861 0.51682 0.0
H988 H 0.83038 0.25295 0.60231 0.0
H989 H 0.84152 0.28885 0.55458 0.0
C990 C 0.32241 0.90655 0.0786 0.0
C991 C 0.32069 0.86666 0.08611 0.0
C992 C 0.36418 0.94419 0.06942 0.0
C993 C 0.40593 0.94345 0.06609 0.0
H994 H 0.2911 0.90857 0.07923 0.0
H995 H 0.36373 0.97427 0.06453 0.0
S996 S 0.42015 0.84696 0.08306 0.0
N997 N 0.36483 0.82893 0.09038 0.0
N998 N 0.44249 0.89884 0.07186 0.0
C999 C 0.40461 0.90365 0.07341 0.0
C1000 C 0.3623 0.86557 0.08361 0.0
C1001 C 0.11293 0.43325 0.06122 0.0
C1002 C 0.15595 0.46739 0.06539 0.0
C1003 C 0.07673 0.44076 0.05387 0.0
C1004 C 0.08269 0.48265 0.05029 0.0
H1005 H 0.10694 0.40051 0.06483 0.0
H1006 H 0.04334 0.41348 0.05196 0.0
S1007 S 0.18991 0.58275 0.05851 0.0
N1008 N 0.20364 0.54415 0.06479 0.0
N1009 N 0.13541 0.55865 0.05138 0.0
C1010 C 0.12627 0.51719 0.05348 0.0
C1011 C 0.16312 0.50944 0.06083 0.0
C1012 C 0.55652 0.70425 0.05587 0.0
C1013 C 0.54063 0.70542 0.08254 0.0
C1014 C 0.5482 0.66514 0.0472 0.0
C1015 C 0.52397 0.6259 0.06497 0.0
H1016 H 0.57664 0.73391 0.04198 0.0
H1017 H 0.56226 0.66589 0.02685 0.0
S1018 S 0.47211 0.61136 0.136 0.0
N1019 N 0.49693 0.66374 0.12588 0.0
N1020 N 0.48242 0.59056 0.10995 0.0
C1021 C 0.50729 0.62665 0.09148 0.0
C1022 C 0.51521 0.66629 0.10014 0.0
C1023 C 0.89408 0.35256 0.99053 0.0
C1024 C 0.84648 0.33814 0.99275 0.0
C1025 C 0.92616 0.39222 0.99859 0.0
C1026 C 0.91211 0.41885 1.00996 0.0
H1027 H 0.90668 0.33284 0.9826 0.0
H1028 H 0.96229 0.40166 0.99637 0.0
S1029 S 0.79156 0.3963 1.02029 0.0
N1030 N 0.78711 0.35449 1.00655 0.0
N1031 N 0.84698 0.42764 0.02315 0.0
C1032 C 0.86457 0.40449 1.01282 0.0
C1033 C 0.83193 0.36456 1.00393 0.0
C1034 C 0.70544 0.61277 0.0251 0.0
C1035 C 0.71628 0.58053 1.02101 0.0
C1036 C 0.65971 0.60298 0.02948 0.0
C1037 C 0.62376 0.56051 0.03063 0.0
H1038 H 0.73227 0.64604 0.02282 0.0
H1039 H 0.65223 0.62902 0.03079 0.0
S1040 S 0.63558 0.46453 0.02273 0.0
N1041 N 0.68885 0.50476 1.01969 0.0
N1042 N 0.60252 0.4859 0.02818 0.0
C1043 C 0.6346 0.52766 0.02818 0.0
C1044 C 0.68116 0.5378 0.0235 0.0
C1045 C 0.49087 0.16772 0.97084 0.0
C1046 C 0.46321 0.17833 0.98667 0.0
C1047 C 0.49794 0.13277 0.98055 0.0
C1048 C 0.47832 0.10786 1.00666 0.0
H1049 H 0.50923 0.18801 0.9517 0.0
H1050 H 0.52111 0.12684 0.96833 0.0
S1051 S 0.39821 0.11891 0.05408 0.0
N1052 N 0.41216 0.1582 0.02808 0.0
N1053 N 0.42618 0.09343 0.04655 0.0
C1054 C 0.44865 0.11674 0.02184 0.0
C1055 C 0.44091 0.15173 1.01178 0.0
C1056 C 0.72038 0.14923 0.99369 0.0
C1057 C 0.71799 0.18763 0.99114 0.0
C1058 C 0.68122 0.10895 1.00246 0.0
C1059 C 0.63809 0.10528 1.00943 0.0
H1060 H 0.75283 0.15038 0.98918 0.0
H1061 H 0.68481 0.08031 1.00402 0.0
S1062 S 0.6132 0.1963 1.00409 0.0
N1063 N 0.66865 0.21932 0.99491 0.0
N1064 N 0.59559 0.14432 1.01117 0.0
C1065 C 0.63534 0.14358 1.00643 0.0
C1066 C 0.67512 0.18447 0.99749 0.0
C1067 C 0.86785 0.55322 1.00258 0.0
C1068 C 0.86825 0.59173 1.00594 0.0
C1069 C 0.90558 0.54746 1.00927 0.0
C1070 C 0.94489 0.58043 1.01902 0.0
H1071 H 0.83813 0.52756 0.99485 0.0
H1072 H 0.9048 0.51792 1.00559 0.0
S1073 S 0.96099 0.68596 0.03294 0.0
N1074 N 0.90831 0.66097 0.02259 0.0
N1075 N 0.982 0.65279 0.03139 0.0
C1076 C 0.9455 0.61902 0.02233 0.0
C1077 C 0.90621 0.62383 1.01702 0.0
C1078 C 0.4622 0.31997 0.02196 0.0
C1079 C 0.48228 0.32303 0.99554 0.0
C1080 C 0.46712 0.35679 0.03257 0.0
C1081 C 0.49198 0.39789 1.01703 0.0
H1082 H 0.44144 0.28874 0.03411 0.0
H1083 H 0.44991 0.35282 0.05256 0.0
S1084 S 0.55426 0.42362 0.94783 0.0
N1085 N 0.53067 0.37079 0.95508 0.0
N1086 N 0.53875 0.43969 0.97456 0.0
C1087 C 0.51296 0.40142 0.99088 0.0
C1088 C 0.50849 0.3641 0.98029 0.0
C1089 C 0.16489 0.72482 0.05205 0.0
C1090 C 0.18241 0.72438 0.0784 0.0
C1091 C 0.13155 0.6866 0.04291 0.0
C1092 C 0.11413 0.64659 0.05987 0.0
H1093 H 0.17622 0.75505 0.03873 0.0
H1094 H 0.11835 0.68861 0.02276 0.0
S1095 S 0.15011 0.62777 0.13008 0.0
N1096 N 0.18123 0.68026 0.12078 0.0
N1097 N 0.11776 0.60884 0.10398 0.0
C1098 C 0.13146 0.64574 0.08619 0.0
C1099 C 0.16582 0.68448 0.09532 0.0
C1100 C 0.30085 0.4192 0.07525 0.0
C1101 C 0.2967 0.4558 0.07766 0.0
C1102 C 0.34327 0.42314 0.06685 0.0
C1103 C 0.38266 0.46378 0.06029 0.0
H1104 H 0.27103 0.38755 0.0795 0.0
H1105 H 0.34546 0.39414 0.06575 0.0
S1106 S 0.38872 0.5692 0.06437 0.0
N1107 N 0.33461 0.53344 0.07368 0.0
N1108 N 0.41411 0.54114 0.05775 0.0
C1109 C 0.37849 0.5005 0.06272 0.0
C1110 C 0.33553 0.4964 0.07147 0.0
C1111 C 0.58573 0.87782 0.06247 0.0
C1112 C 0.56571 0.85322 0.08852 0.0
C1113 C 0.58338 0.91543 0.05376 0.0
C1114 C 0.56054 0.92974 0.0706 0.0
H1115 H 0.60259 0.86732 0.04853 0.0
H1116 H 0.59892 0.93303 0.03345 0.0
S1117 S 0.50589 0.87892 0.14171 0.0
N1118 N 0.52505 0.84733 0.13192 0.0
N1119 N 0.52059 0.91813 0.11554 0.0
C1120 C 0.54277 0.9069 0.0974 0.0
C1121 C 0.54521 0.8685 0.10631 0.0
C1122 C 0.02497 0.20024 0.41167 0.0
C1123 C 0.98361 0.20062 0.4176 0.0
C1124 C 0.06585 0.23818 0.40143 0.0
C1125 C 0.06778 0.27855 0.39724 0.0
H1126 H 0.02568 0.17017 0.415 0.0
H1127 H 0.0964 0.23595 0.39747 0.0
S1128 S 0.96888 0.29732 0.40827 0.0
N1129 N 0.94687 0.24485 0.41683 0.0
N1130 N 0.0239 0.31618 0.39936 0.0
C1131 C 0.02662 0.27932 0.40306 0.0
C1132 C 0.9847 0.24054 0.41286 0.0
C1133 C 0.83383 0.8572 0.39801 0.0
C1134 C 0.83325 0.81766 0.40299 0.0
C1135 C 0.79417 0.85892 0.39049 0.0
C1136 C 0.7531 0.82105 0.38781 0.0
H1137 H 0.86436 0.88646 0.40134 0.0
H1138 H 0.79511 0.8897 0.38828 0.0
S1139 S 0.73616 0.71029 0.39635 0.0
N1140 N 0.79037 0.7406 0.40276 0.0
N1141 N 0.71523 0.7435 0.38912 0.0
C1142 C 0.75299 0.78164 0.39161 0.0
C1143 C 0.79337 0.78004 0.39893 0.0
C1144 C 0.17825 1.0019 0.42716 0.0
C1145 C 0.21014 0.04102 0.41143 0.0
C1146 C 0.16785 0.96221 0.41855 0.0
C1147 C 0.18844 0.96037 0.39367 0.0
H1148 H 0.16209 1.00216 0.44655 0.0
H1149 H 0.14383 0.93274 0.43153 0.0
S1150 S 0.27545 0.05366 0.34573 0.0
N1151 N 0.26304 0.07547 0.37037 0.0
N1152 N 0.24313 1.00109 0.35396 0.0
C1153 C 0.22002 0.99927 0.37768 0.0
C1154 C 0.23093 0.03957 0.38661 0.0
C1155 C 0.50264 0.68856 0.34221 0.0
C1156 C 0.51692 0.66163 0.33147 0.0
C1157 C 0.53468 0.72803 0.35083 0.0
C1158 C 0.58252 0.74326 0.34792 0.0
H1159 H 0.46651 0.67926 0.34369 0.0
H1160 H 0.52182 0.74709 0.35942 0.0
S1161 S 0.63667 0.6805 0.32691 0.0
N1162 N 0.58144 0.64959 0.32334 0.0
N1163 N 0.64127 0.72438 0.33761 0.0
C1164 C 0.5968 0.71549 0.33857 0.0
C1165 C 0.56419 0.67474 0.33075 0.0
C1166 C 0.33852 0.86389 0.35036 0.0
C1167 C 0.37605 0.90547 0.34471 0.0
C1168 C 0.29443 0.85776 0.35629 0.0
C1169 C 0.28696 0.89305 0.35694 0.0
H1170 H 0.34301 0.83626 0.34859 0.0
H1171 H 0.26586 0.82549 0.35886 0.0
S1172 S 0.37516 1.00808 0.34556 0.0
N1173 N 0.40408 0.98211 0.34176 0.0
N1174 N 0.3209 0.97071 0.3527 0.0
C1175 C 0.32467 0.93466 0.35237 0.0
C1176 C 0.36943 0.94083 0.34649 0.0
C1177 C 0.10432 0.47831 0.33847 0.0
C1178 C 0.13352 0.51235 0.31795 0.0
C1179 C 0.11348 0.44453 0.34769 0.0
C1180 C 0.15189 0.44344 0.33645 0.0
H1181 H 0.07555 0.47904 0.34839 0.0
H1182 H 0.09136 0.41995 0.3644 0.0
S1183 S 0.23764 0.52374 0.2815 0.0
N1184 N 0.20147 0.54209 0.28625 0.0
N1185 N 0.21808 0.47827 0.30297 0.0
C1186 C 0.18006 0.47619 0.31508 0.0
C1187 C 0.17093 0.51065 0.3059 0.0
C1188 C 0.3438 0.50983 0.33352 0.0
C1189 C 0.38669 0.51245 0.32762 0.0
C1190 C 0.30393 0.47 0.34206 0.0
C1191 C 0.30513 0.43091 0.34518 0.0
H1192 H 0.3411 0.53894 0.33139 0.0
H1193 H 0.27193 0.46994 0.34596 0.0
S1194 S 0.40941 0.42028 0.33462 0.0
N1195 N 0.42822 0.4725 0.32748 0.0
N1196 N 0.3536 0.39794 0.34256 0.0
C1197 C 0.34792 0.43325 0.3396 0.0
C1198 C 0.38853 0.47381 0.33115 0.0
C1199 C 0.56613 0.94878 0.34355 0.0
C1200 C 0.52836 0.91499 0.33346 0.0
C1201 C 0.60496 0.94494 0.35052 0.0
C1202 C 0.60611 0.9065 0.34879 0.0
H1203 H 0.56556 0.97821 0.34587 0.0
H1204 H 0.63421 0.97205 0.35748 0.0
S1205 S 0.51772 0.81186 0.31932 0.0
N1206 N 0.49553 0.84424 0.31945 0.0
N1207 N 0.56816 0.83654 0.33259 0.0
C1208 C 0.56873 0.8731 0.33792 0.0
C1209 C 0.52977 0.87742 0.33041 0.0
C1210 C 0.10941 0.66363 0.33108 0.0
C1211 C 0.14501 0.65308 0.33162 0.0
C1212 C 0.11437 0.70056 0.34143 0.0
C1213 C 0.15473 0.72804 0.3535 0.0
H1214 H 0.0775 0.64327 0.32232 0.0
H1215 H 0.0862 0.70755 0.33996 0.0
S1216 S 0.2579 0.71425 0.36071 0.0
N1217 N 0.22227 0.67335 0.34498 0.0
N1218 N 0.23055 0.74111 0.36611 0.0
C1219 C 0.19003 0.71702 0.3551 0.0
C1220 C 0.18545 0.68001 0.34377 0.0
C1221 C 0.83858 1.01452 0.42574 0.0
C1222 C 0.8481 0.05549 0.41272 0.0
C1223 C 0.80416 0.97659 0.41672 0.0
C1224 C 0.77818 0.97824 0.39423 0.0
H1225 H 0.85783 1.01191 0.44311 0.0
H1226 H 0.79806 0.94575 0.42728 0.0
S1227 S 0.78862 0.07725 0.35368 0.0
N1228 N 0.82789 0.09517 0.37664 0.0
N1229 N 0.76374 0.02422 0.3596 0.0
C1230 C 0.78738 0.01893 0.38107 0.0
C1231 C 0.8222 0.05746 0.39032 0.0
C1232 C 0.01039 0.83725 0.40742 0.0
C1233 C 0.9691 0.7986 0.41422 0.0
C1234 C 0.05078 0.83731 0.39929 0.0
C1235 C 0.05133 0.79858 0.39796 0.0
H1236 H 0.01126 0.86766 0.40843 0.0
H1237 H 0.08191 0.86785 0.39485 0.0
S1238 S 0.95162 0.68884 0.41246 0.0
N1239 N 0.93036 0.72086 0.41761 0.0
N1240 N 1.00702 0.72062 0.40377 0.0
C1241 C 0.01021 0.75969 0.40474 0.0
C1242 C 0.96885 0.75975 0.41249 0.0
C1243 C 0.18339 0.18022 0.42367 0.0
C1244 C 0.2275 0.18431 0.4236 0.0
C1245 C 0.17698 0.21578 0.41576 0.0
C1246 C 0.21444 0.2572 0.40794 0.0
H1247 H 0.15348 0.14885 0.429 0.0
H1248 H 0.14223 0.21043 0.4151 0.0
S1249 S 0.33722 0.28571 0.40562 0.0
N1250 N 0.3095 0.23327 0.41589 0.0
N1251 N 0.29746 0.30059 0.40178 0.0
C1252 C 0.25891 0.26226 0.40922 0.0
C1253 C 0.26545 0.22572 0.41691 0.0
C1254 C 0.6841 0.53344 0.74303 0.0
C1255 C 0.64365 0.53445 0.75051 0.0
C1256 C 0.7256 0.57143 0.73397 0.0
C1257 C 0.72833 0.61213 0.73152 0.0
H1258 H 0.68358 0.50284 0.74437 0.0
H1259 H 0.75578 0.56881 0.7294 0.0
S1260 S 0.63132 0.6322 0.74626 0.0
N1261 N 0.60843 0.57941 0.75313 0.0
N1262 N 0.68594 0.65063 0.73644 0.0
C1263 C 0.68774 0.61334 0.73837 0.0
C1264 C 0.6456 0.57468 0.74768 0.0
C1265 C 0.44417 0.09683 0.72391 0.0
C1266 C 0.48444 0.12857 0.73335 0.0
C1267 C 0.40781 0.10473 0.71769 0.0
C1268 C 0.41161 0.14505 0.71985 0.0
H1269 H 0.4403 0.06535 0.72246 0.0
H1270 H 0.37626 0.07905 0.71154 0.0
S1271 S 0.50686 0.23457 0.74945 0.0
N1272 N 0.52435 0.19886 0.74808 0.0
N1273 N 0.45618 0.21433 0.73616 0.0
C1274 C 0.45163 0.17666 0.72981 0.0
C1275 C 0.48826 0.1683 0.73645 0.0
C1276 C 0.8925 0.37377 0.72196 0.0
C1277 C 0.87517 0.37512 0.74816 0.0
C1278 C 0.88272 0.33438 0.71311 0.0
C1279 C 0.85593 0.29507 0.73036 0.0
H1280 H 0.91442 0.40346 0.70852 0.0
H1281 H 0.89755 0.33485 0.69306 0.0
S1282 S 0.80108 0.28129 0.80035 0.0
N1283 N 0.82828 0.33385 0.79062 0.0
N1284 N 0.81138 0.26003 0.77456 0.0
C1285 C 0.83822 0.29608 0.7565 0.0
C1286 C 0.84737 0.33603 0.76522 0.0
C1287 C 0.22913 1.00848 0.6633 0.0
C1288 C 0.18121 0.99228 0.66612 0.0
C1289 C 0.26025 0.04942 0.67012 0.0
C1290 C 0.24489 0.07558 0.68085 0.0
H1291 H 0.2427 0.98939 0.65553 0.0
H1292 H 0.29668 0.06033 0.66734 0.0
S1293 S 0.12288 0.04794 0.69296 0.0
N1294 N 0.12005 1.00605 0.68016 0.0
N1295 N 0.1781 0.08152 0.6946 0.0
C1296 C 0.19701 0.05922 0.68458 0.0
C1297 C 0.16535 0.018 0.67689 0.0
C1298 C 0.99802 0.18689 0.68886 0.0
C1299 C 0.03789 0.22672 0.68298 0.0
C1300 C 0.95585 0.18482 0.69469 0.0
C1301 C 0.95291 0.22263 0.69507 0.0
H1302 H 0.99908 0.1576 0.68685 0.0
H1303 H 0.92532 0.15371 0.69711 0.0
S1304 S 0.04915 0.33431 0.68352 0.0
N1305 N 0.07331 0.30418 0.67972 0.0
N1306 N 0.99382 0.30061 0.691 0.0
C1307 C 0.99323 0.26245 0.69085 0.0
C1308 C 0.03596 0.26442 0.68489 0.0
C1309 C 0.77676 0.82215 0.67837 0.0
C1310 C 0.79866 0.84819 0.65294 0.0
C1311 C 0.78317 0.78707 0.68835 0.0
C1312 C 0.81099 0.77613 0.67302 0.0
H1313 H 0.75606 0.83018 0.69118 0.0
H1314 H 0.767 0.76894 0.70848 0.0
S1315 S 0.87413 0.8323 0.60466 0.0
N1316 N 0.84867 0.85984 0.61253 0.0
N1317 N 0.85848 0.79243 0.63045 0.0
C1318 C 0.83081 0.80017 0.64682 0.0
C1319 C 0.82517 0.83655 0.63697 0.0
C1320 C 0.05053 0.80327 0.66933 0.0
C1321 C 0.05137 0.84305 0.66331 0.0
C1322 C 0.00926 0.76484 0.67807 0.0
C1323 C 0.9671 0.76451 0.68212 0.0
H1324 H 0.08189 0.80163 0.66798 0.0
H1325 H 0.01048 0.73503 0.68206 0.0
S1326 S 0.951 0.86063 0.67001 0.0
N1327 N 1.00642 0.87981 0.66233 0.0
N1328 N 0.92951 0.80836 0.67919 0.0
C1329 C 0.9677 0.8043 0.67656 0.0
C1330 C 0.0096 0.84326 0.66724 0.0
C1331 C 0.18869 0.1979 0.6748 0.0
C1332 C 0.18841 0.23624 0.6654 0.0
C1333 C 0.22938 0.19826 0.68212 0.0
C1334 C 0.27099 0.23704 0.68063 0.0
H1335 H 0.15709 0.1675 0.67653 0.0
H1336 H 0.22819 0.16793 0.6884 0.0
S1337 S 0.28726 0.34623 0.6581 0.0
N1338 N 0.23195 0.31385 0.65551 0.0
N1339 N 0.30909 0.31488 0.66926 0.0
C1340 C 0.27087 0.27566 0.67138 0.0
C1341 C 0.22937 0.27519 0.66378 0.0
C1342 C 0.84378 0.033 0.6487 0.0
C1343 C 0.81409 0.99137 0.66234 0.0
C1344 C 0.84765 0.06961 0.65908 0.0
C1345 C 0.82206 0.06577 0.68349 0.0
H1346 H 0.86386 0.03713 0.62982 0.0
H1347 H 0.87081 0.10114 0.64795 0.0
S1348 S 0.7361 0.96391 0.72515 0.0
N1349 N 0.75671 0.94843 0.70041 0.0
N1350 N 0.76363 0.01702 0.7197 0.0
C1351 C 0.79184 0.02435 0.69703 0.0
C1352 C 0.78796 0.98718 0.68651 0.0
C1353 C 0.46415 0.37216 0.74914 0.0
C1354 C 0.51178 0.38842 0.74406 0.0
C1355 C 0.43172 0.3336 0.73993 0.0
C1356 C 0.44531 0.31013 0.72442 0.0
H1357 H 0.4518 0.38943 0.76037 0.0
H1358 H 0.39561 0.3224 0.7448 0.0
S1359 S 0.56618 0.33973 0.70479 0.0
N1360 N 0.57089 0.37764 0.72298 0.0
N1361 N 0.51049 0.30753 0.70363 0.0
C1362 C 0.49293 0.32693 0.71841 0.0
C1363 C 0.52593 0.36539 0.72868 0.0
C1364 C 0.63265 0.08485 0.74 0.0
C1365 C 0.62749 0.12075 0.74293 0.0
C1366 C 0.67543 0.08988 0.73146 0.0
C1367 C 0.7142 0.13099 0.72532 0.0
H1368 H 0.60331 0.05286 0.74406 0.0
H1369 H 0.67845 0.06137 0.73002 0.0
S1370 S 0.71767 0.23496 0.73075 0.0
N1371 N 0.66378 0.19828 0.73983 0.0
N1372 N 0.74417 0.20806 0.72361 0.0
C1373 C 0.70909 0.16709 0.72819 0.0
C1374 C 0.66569 0.16186 0.73709 0.0
C1375 C 0.84475 0.51313 0.75801 0.0
C1376 C 0.88916 0.51787 0.75843 0.0
C1377 C 0.83782 0.54839 0.75005 0.0
C1378 C 0.87501 0.59013 0.74288 0.0
H1379 H 0.81508 0.48154 0.76306 0.0
H1380 H 0.80292 0.54269 0.74894 0.0
S1381 S 0.99822 0.62029 0.74145 0.0
N1382 N 0.97103 0.56775 0.75127 0.0
N1383 N 0.95795 0.63448 0.73748 0.0
C1384 C 0.91967 0.5958 0.74449 0.0
C1385 C 0.92675 0.55958 0.75204 0.0
C1386 C 0.53148 0.99918 0.27422 0.0
C1387 C 0.50989 0.95421 0.27908 0.0
C1388 C 0.55124 0.02154 0.24777 0.0
C1389 C 0.54997 0.99961 0.22518 0.0
H1390 H 0.53032 0.01685 0.29061 0.0
H1391 H 0.5654 0.05613 0.24469 0.0
S1392 S 0.5013 0.88157 0.22839 0.0
N1393 N 0.49057 0.88838 0.26023 0.0
N1394 N 0.5291 0.93022 0.21042 0.0
C1395 C 0.53069 0.95457 0.23032 0.0
C1396 C 0.51039 0.9319 0.25733 0.0
C1397 C 0.11282 0.54119 0.24359 0.0
C1398 C 0.09251 0.54259 0.26871 0.0
C1399 C 0.08613 0.52461 0.22093 0.0
C1400 C 0.03823 0.5094 0.22247 0.0
H1401 H 0.14967 0.55419 0.24119 0.0
H1402 H 0.10318 0.52391 0.20205 0.0
S1403 S 0.97009 0.51004 0.28335 0.0
N1404 N 0.02273 0.52896 0.29363 0.0
N1405 N 0.97281 0.49974 0.25126 0.0
C1406 C 0.018 0.51124 0.24762 0.0
C1407 C 0.04502 0.52731 0.27062 0.0
C1408 C 0.42388 0.53032 0.25444 0.0
C1409 C 0.45456 0.54072 0.27572 0.0
C1410 C 0.4295 0.51119 0.23182 0.0
C1411 C 0.46595 0.50182 0.22986 0.0
H1412 H 0.39633 0.53818 0.25491 0.0
H1413 H 0.40518 0.50361 0.21583 0.0
S1414 S 0.55613 0.52452 0.28015 0.0
N1415 N 0.52252 0.54096 0.29331 0.0
N1416 N 0.53366 0.50582 0.25117 0.0
C1417 C 0.49659 0.51219 0.25122 0.0
C1418 C 0.49076 0.53141 0.274 0.0
C1419 C 0.99194 0.5119 0.80322 0.0
C1420 C 0.94482 0.49828 0.80241 0.0
C1421 C 0.01674 0.53247 0.82517 0.0
C1422 C 0.99553 0.54063 0.84719 0.0
H1423 H 0.00947 0.50565 0.78699 0.0
H1424 H 0.05268 0.54101 0.8252 0.0
S1425 S 0.87322 0.51438 0.85332 0.0
N1426 N 0.87799 0.49577 0.82454 0.0
N1427 N 0.92478 0.536 0.86549 0.0
C1428 C 0.94858 0.52855 0.84601 0.0
C1429 C 0.92327 0.50722 0.82363 0.0
C1430 C 0.60049 0.50668 0.82809 0.0
C1431 C 0.57574 0.50261 0.80409 0.0
C1432 C 0.59016 0.52116 0.85177 0.0
C1433 C 0.55431 0.53158 0.85237 0.0
H1434 H 0.62684 0.4972 0.82886 0.0
H1435 H 0.61018 0.52401 0.86973 0.0
S1436 S 0.47681 0.52214 0.7954 0.0
N1437 N 0.51302 0.50816 0.78285 0.0
N1438 N 0.49249 0.53386 0.82691 0.0
C1439 C 0.52923 0.52703 0.8284 0.0
C1440 C 0.54022 0.51299 0.80446 0.0
C1441 C 0.5318 0.02544 0.8014 0.0
C1442 C 0.56271 0.06947 0.79504 0.0
C1443 C 0.52717 1.00363 0.82808 0.0
C1444 C 0.55407 0.02473 0.8495 0.0
H1445 H 0.50824 1.00869 0.7862 0.0
H1446 H 0.50003 0.97054 0.83225 0.0
S1447 S 0.64667 0.13869 0.84136 0.0
N1448 N 0.62437 0.13277 0.81072 0.0
N1449 N 0.61803 0.0913 0.86082 0.0
C1450 C 0.58829 0.06811 0.84253 0.0
C1451 C 0.59229 0.09051 0.81526 0.0
C1452 C 0.15691 0.22613 0.59533 0.0
C1453 C 0.15556 0.25737 0.60957 0.0
C1454 C 0.16182 0.23194 0.56607 0.0
C1455 C 0.16464 0.26886 0.55005 0.0
H1456 H 0.14993 0.19553 0.60674 0.0
H1457 H 0.16029 0.20595 0.556 0.0
S1458 S 0.16848 0.36226 0.57891 0.0
N1459 N 0.16396 0.32854 0.60658 0.0
N1460 N 0.16978 0.33888 0.55178 0.0
C1461 C 0.1674 0.30193 0.56453 0.0
C1462 C 0.16389 0.29634 0.59425 0.0
C1463 C 0.71309 0.85158 0.60571 0.0
C1464 C 0.76091 0.87724 0.60172 0.0
C1465 C 0.68638 0.83446 0.58341 0.0
C1466 C 0.70643 0.84151 0.55614 0.0
H1467 H 0.69608 0.84682 0.62595 0.0
H1468 H 0.64944 0.8169 0.58756 0.0
S1469 S 0.83176 0.90511 0.53569 0.0
N1470 N 0.82771 0.90964 0.569 0.0
N1471 N 0.77878 0.87383 0.52758 0.0
C1472 C 0.75488 0.86589 0.55234 0.0
C1473 C 0.78173 0.88457 0.57496 0.0
C1474 C 0.10631 0.87976 0.58312 0.0
C1475 C 0.11824 0.87145 0.6101 0.0
C1476 C 0.12041 0.86759 0.5598 0.0
C1477 C 0.1462 0.84572 0.56266 0.0
H1478 H 0.08967 0.8993 0.57975 0.0
H1479 H 0.11386 0.87823 0.53931 0.0
S1480 S 0.17922 0.81011 0.62983 0.0
N1481 N 0.15505 0.83827 0.63849 0.0
N1482 N 0.17513 0.8094 0.59593 0.0
C1483 C 0.15356 0.83306 0.59011 0.0
C1484 C 0.14125 0.8474 0.61348 0.0
C1485 C 0.59083 0.80681 0.16713 0.0
C1486 C 0.60511 0.8256 0.13925 0.0
C1487 C 0.61762 0.82543 0.18896 0.0
C1488 C 0.65953 0.86423 0.18386 0.0
H1489 H 0.55982 0.77611 0.17188 0.0
H1490 H 0.60648 0.80786 0.20977 0.0
S1491 S 0.70792 0.93003 0.11463 0.0
N1492 N 0.66144 0.88676 0.10771 0.0
N1493 N 0.7102 0.924 0.14884 0.0
C1494 C 0.67205 0.88526 0.15615 0.0
C1495 C 0.64519 0.86553 0.13384 0.0
C1496 C 0.24072 0.87292 0.13723 0.0
C1497 C 0.25168 0.83956 0.13845 0.0
C1498 C 0.22587 0.88252 0.1614 0.0
C1499 C 0.21925 0.85791 0.18781 0.0
H1500 H 0.23932 0.88901 0.11723 0.0
H1501 H 0.2164 0.90763 0.15893 0.0
S1502 S 0.24749 0.76926 0.20214 0.0
N1503 N 0.26033 0.78529 0.16836 0.0
N1504 N 0.22922 0.80057 0.21342 0.0
C1505 C 0.23366 0.8266 0.18951 0.0
C1506 C 0.25049 0.81813 0.16496 0.0
C1507 C 0.25555 0.42664 0.15152 0.0
C1508 C 0.23009 0.40669 0.1295 0.0
C1509 C 0.24975 0.40293 0.17798 0.0
C1510 C 0.21789 0.35857 0.18328 0.0
H1511 H 0.27788 0.46114 0.14868 0.0
H1512 H 0.26935 0.41968 0.19457 0.0
S1513 S 0.14347 0.29218 0.13165 0.0
N1514 N 0.17376 0.34069 0.11398 0.0
N1515 N 0.16093 0.29614 0.16354 0.0
C1516 C 0.19354 0.33828 0.16086 0.0
C1517 C 0.20021 0.36233 0.13403 0.0
C1518 C 0.81921 0.60262 0.92717 0.0
C1519 C 0.84211 0.62247 0.95001 0.0
C1520 C 0.83249 0.6243 0.89986 0.0
C1521 C 0.87031 0.66612 0.89431 0.0
H1522 H 0.78766 0.57218 0.93084 0.0
H1523 H 0.81036 0.60966 0.88356 0.0
S1524 S 0.95063 0.72569 0.94594 0.0
N1525 N 0.90913 0.68253 0.96468 0.0
N1526 N 0.93771 0.72101 0.91322 0.0
C1527 C 0.8979 0.68291 0.9165 0.0
C1528 C 0.88305 0.66161 0.9444 0.0
C1529 C 0.37458 0.1853 0.9387 0.0
C1530 C 0.42271 0.2061 0.93633 0.0
C1531 C 0.34888 0.16969 0.91578 0.0
C1532 C 0.37012 0.17345 0.88945 0.0
H1533 H 0.35689 0.18357 0.95803 0.0
H1534 H 0.31198 0.15607 0.91859 0.0
S1535 S 0.49614 0.22276 0.87347 0.0
N1536 N 0.49107 0.22917 0.9063 0.0
N1537 N 0.44322 0.19696 0.86361 0.0
C1538 C 0.41855 0.19262 0.88733 0.0
C1539 C 0.44465 0.20947 0.91065 0.0
C1540 C 0.75527 0.20583 0.9169 0.0
C1541 C 0.78416 0.21481 0.93908 0.0
C1542 C 0.76082 0.18551 0.89501 0.0
C1543 C 0.7955 0.17359 0.89466 0.0
H1544 H 0.72919 0.21566 0.91614 0.0
H1545 H 0.73788 0.17908 0.87829 0.0
S1546 S 0.88104 0.19233 0.94772 0.0
N1547 N 0.84867 0.21127 0.95926 0.0
N1548 N 0.85998 0.17404 0.91838 0.0
C1549 C 0.82444 0.18264 0.91692 0.0
C1550 C 0.81855 0.20298 0.93903 0.0
C1551 C 0.32725 0.17241 0.4695 0.0
C1552 C 0.28088 0.16145 0.46783 0.0
C1553 C 0.35179 0.19152 0.49195 0.0
C1554 C 0.33107 0.20082 0.51365 0.0
H1555 H 0.34427 0.16499 0.45362 0.0
H1556 H 0.38704 0.19799 0.49263 0.0
S1557 S 0.21105 0.18152 0.51755 0.0
N1558 N 0.21542 0.16265 0.48882 0.0
N1559 N 0.26182 0.20021 0.5307 0.0
C1560 C 0.28499 0.19143 0.51161 0.0
C1561 C 0.25992 0.17158 0.48872 0.0
C1562 C 0.87946 0.18644 0.47007 0.0
C1563 C 0.91402 0.17469 0.46953 0.0
C1564 C 0.86915 0.20045 0.49364 0.0
C1565 C 0.89305 0.20378 0.51807 0.0
H1566 H 0.85831 0.18223 0.45254 0.0
H1567 H 0.84079 0.20725 0.49297 0.0
S1568 S 0.98934 0.1796 0.5266 0.0
N1569 N 0.97345 0.16853 0.49495 0.0
N1570 N 0.95551 0.1964 0.53916 0.0
C1571 C 0.92903 0.19354 0.51744 0.0
C1572 C 0.93926 0.17887 0.49324 0.0
C1573 C 0.93089 0.77313 0.49008 0.0
C1574 C 0.90403 0.75759 0.46759 0.0
C1575 C 0.92226 0.74645 0.51565 0.0
C1576 C 0.88623 0.70351 0.51951 0.0
H1577 H 0.95692 0.80665 0.48831 0.0
H1578 H 0.94309 0.75984 0.53272 0.0
S1579 S 0.80595 0.64856 0.46649 0.0
N1580 N 0.84086 0.69728 0.45037 0.0
N1581 N 0.82367 0.64726 0.49819 0.0
C1582 C 0.86014 0.68754 0.49668 0.0
C1583 C 0.8693 0.71455 0.4708 0.0
loop_
_geom_bond_atom_site_label_1
_geom_bond_atom_site_label_2
_geom_bond_distance
_geom_bond_site_symmetry_2
_ccdc_geom_bond_type
C0 N1 1.317 . S
C0 N2 1.348 . S
C0 C3 1.485 . S
N1 C0 1.317 . S
N1 N5 1.370 . S
N2 C0 1.348 . S
N2 C4 1.346 . S
C3 C0 1.485 . S
C3 H7 0.960 . S
C3 H8 0.961 . S
C3 H9 0.960 . S
C4 N2 1.346 . S
C4 N5 1.307 . S
C4 C6 1.486 . S
N5 N1 1.370 . S
N5 C4 1.307 . S
C6 C4 1.486 . S
C6 H10 0.960 . S
C6 H11 0.960 . S
C6 H12 0.959 . S
H7 C3 0.960 . S
H8 C3 0.961 . S
H9 C3 0.960 . S
H10 C6 0.960 . S
H11 C6 0.960 . S
H12 C6 0.959 . S
C13 N14 1.317 . S
C13 N15 1.348 . S
C13 C16 1.485 . S
N14 C13 1.317 . S
N14 N18 1.370 . S
N15 C13 1.348 . S
N15 C17 1.346 . S
C16 C13 1.485 . S
C16 H20 0.960 . S
C16 H21 0.961 . S
C16 H22 0.960 . S
C17 N15 1.346 . S
C17 N18 1.307 . S
C17 C19 1.486 . S
N18 N14 1.370 . S
N18 C17 1.307 . S
C19 C17 1.486 . S
C19 H23 0.960 . S
C19 H24 0.960 . S
C19 H25 0.959 . S
H20 C16 0.960 . S
H21 C16 0.961 . S
H22 C16 0.960 . S
H23 C19 0.960 . S
H24 C19 0.960 . S
H25 C19 0.959 . S
C26 N27 1.317 . S
C26 N28 1.348 . S
C26 C29 1.485 . S
N27 C26 1.317 . S
N27 N31 1.370 . S
N28 C26 1.348 . S
N28 C30 1.346 . S
C29 C26 1.485 . S
C29 H33 0.960 . S
C29 H34 0.961 . S
C29 H35 0.960 . S
C30 N28 1.346 . S
C30 N31 1.307 . S
C30 C32 1.486 . S
N31 N27 1.370 . S
N31 C30 1.307 . S
C32 C30 1.486 . S
C32 H36 0.960 . S
C32 H37 0.960 . S
C32 H38 0.959 . S
H33 C29 0.960 . S
H34 C29 0.961 . S
H35 C29 0.960 . S
H36 C32 0.960 . S
H37 C32 0.960 . S
H38 C32 0.959 . S
C39 N40 1.317 . S
C39 N41 1.348 . S
C39 C42 1.485 . S
N40 C39 1.317 . S
N40 N44 1.370 . S
N41 C39 1.348 . S
N41 C43 1.346 . S
C42 C39 1.485 . S
C42 H46 0.960 . S
C42 H47 0.961 . S
C42 H48 0.960 . S
C43 N41 1.346 . S
C43 N44 1.307 . S
C43 C45 1.486 . S
N44 N40 1.370 . S
N44 C43 1.307 . S
C45 C43 1.486 . S
C45 H49 0.960 . S
C45 H50 0.960 1_455 S
C45 H51 0.959 . S
H46 C42 0.960 . S
H47 C42 0.961 . S
H48 C42 0.960 . S
H49 C45 0.960 . S
H50 C45 0.960 1_655 S
H51 C45 0.959 . S
C52 N53 1.317 . S
C52 N54 1.348 . S
C52 C55 1.485 . S
N53 C52 1.317 . S
N53 N57 1.370 . S
N54 C52 1.348 . S
N54 C56 1.346 . S
C55 C52 1.485 . S
C55 H59 0.960 . S
C55 H60 0.961 . S
C55 H61 0.960 . S
C56 N54 1.346 . S
C56 N57 1.307 . S
C56 C58 1.486 . S
N57 N53 1.370 . S
N57 C56 1.307 . S
C58 C56 1.486 . S
C58 H62 0.960 . S
C58 H63 0.960 . S
C58 H64 0.959 . S
H59 C55 0.960 . S
H60 C55 0.961 . S
H61 C55 0.960 . S
H62 C58 0.960 . S
H63 C58 0.960 . S
H64 C58 0.959 . S
C65 N66 1.317 . S
C65 N67 1.348 . S
C65 C68 1.485 . S
N66 C65 1.317 . S
N66 N70 1.370 . S
N67 C65 1.348 . S
N67 C69 1.346 . S
C68 C65 1.485 . S
C68 H72 0.960 . S
C68 H73 0.961 . S
C68 H74 0.960 . S
C69 N67 1.346 . S
C69 N70 1.307 . S
C69 C71 1.486 . S
N70 N66 1.370 . S
N70 C69 1.307 . S
C71 C69 1.486 . S
C71 H75 0.960 . S
C71 H76 0.960 . S
C71 H77 0.959 . S
H72 C68 0.960 . S
H73 C68 0.961 . S
H74 C68 0.960 . S
H75 C71 0.960 . S
H76 C71 0.960 . S
H77 C71 0.959 . S
C78 N79 1.317 . S
C78 N80 1.348 . S
C78 C81 1.485 . S
N79 C78 1.317 . S
N79 N83 1.370 . S
N80 C78 1.348 . S
N80 C82 1.346 . S
C81 C78 1.485 . S
C81 H85 0.960 . S
C81 H86 0.961 . S
C81 H87 0.960 . S
C82 N80 1.346 . S
C82 N83 1.307 . S
C82 C84 1.486 . S
N83 N79 1.370 . S
N83 C82 1.307 . S
C84 C82 1.486 . S
C84 H88 0.960 . S
C84 H89 0.960 . S
C84 H90 0.959 . S
H85 C81 0.960 . S
H86 C81 0.961 . S
H87 C81 0.960 . S
H88 C84 0.960 . S
H89 C84 0.960 . S
H90 C84 0.959 . S
C91 N92 1.317 . S
C91 N93 1.348 . S
C91 C94 1.485 . S
N92 C91 1.317 . S
N92 N96 1.370 . S
N93 C91 1.348 . S
N93 C95 1.346 . S
C94 C91 1.485 . S
C94 H98 0.960 . S
C94 H99 0.961 . S
C94 H100 0.960 . S
C95 N93 1.346 . S
C95 N96 1.307 . S
C95 C97 1.486 . S
N96 N92 1.370 . S
N96 C95 1.307 . S
C97 C95 1.486 . S
C97 H101 0.960 . S
C97 H102 0.960 . S
C97 H103 0.959 . S
H98 C94 0.960 . S
H99 C94 0.961 . S
H100 C94 0.960 . S
H101 C97 0.960 . S
H102 C97 0.960 . S
H103 C97 0.959 . S
C104 N105 1.317 . S
C104 N106 1.348 . S
C104 C107 1.485 . S
N105 C104 1.317 . S
N105 N109 1.370 . S
N106 C104 1.348 . S
N106 C108 1.346 . S
C107 C104 1.485 . S
C107 H111 0.960 . S
C107 H112 0.961 . S
C107 H113 0.960 . S
C108 N106 1.346 . S
C108 N109 1.307 . S
C108 C110 1.486 . S
N109 N105 1.370 . S
N109 C108 1.307 . S
C110 C108 1.486 . S
C110 H114 0.960 . S
C110 H115 0.960 . S
C110 H116 0.959 . S
H111 C107 0.960 . S
H112 C107 0.961 . S
H113 C107 0.960 . S
H114 C110 0.960 . S
H115 C110 0.960 . S
H116 C110 0.959 . S
C117 N118 1.317 . S
C117 N119 1.348 . S
C117 C120 1.485 1_556 S
N118 C117 1.317 . S
N118 N122 1.370 . S
N119 C117 1.348 . S
N119 C121 1.346 . S
C120 C117 1.485 1_554 S
C120 H124 0.960 . S
C120 H125 0.961 . S
C120 H126 0.960 . S
C121 N119 1.346 . S
C121 N122 1.307 . S
C121 C123 1.486 . S
N122 N118 1.370 . S
N122 C121 1.307 . S
C123 C121 1.486 . S
C123 H127 0.960 . S
C123 H128 0.960 . S
C123 H129 0.959 . S
H124 C120 0.960 . S
H125 C120 0.961 . S
H126 C120 0.960 . S
H127 C123 0.960 . S
H128 C123 0.960 . S
H129 C123 0.959 . S
C130 N131 1.317 . S
C130 N132 1.348 . S
C130 C133 1.485 1_556 S
N131 C130 1.317 . S
N131 N135 1.370 . S
N132 C130 1.348 . S
N132 C134 1.346 . S
C133 C130 1.485 1_554 S
C133 H137 0.960 . S
C133 H138 0.961 . S
C133 H139 0.960 . S
C134 N132 1.346 . S
C134 N135 1.307 . S
C134 C136 1.486 . S
N135 N131 1.370 . S
N135 C134 1.307 . S
C136 C134 1.486 . S
C136 H140 0.960 . S
C136 H141 0.960 . S
C136 H142 0.959 . S
H137 C133 0.960 . S
H138 C133 0.961 . S
H139 C133 0.960 . S
H140 C136 0.960 . S
H141 C136 0.960 . S
H142 C136 0.959 . S
C143 N144 1.317 . S
C143 N145 1.348 . S
C143 C146 1.485 1_556 S
N144 C143 1.317 . S
N144 N148 1.370 . S
N145 C143 1.348 . S
N145 C147 1.346 . S
C146 C143 1.485 1_554 S
C146 H150 0.960 . S
C146 H151 0.961 . S
C146 H152 0.960 . S
C147 N145 1.346 . S
C147 N148 1.307 . S
C147 C149 1.486 . S
N148 N144 1.370 . S
N148 C147 1.307 . S
C149 C147 1.486 . S
C149 H153 0.960 . S
C149 H154 0.960 . S
C149 H155 0.959 . S
H150 C146 0.960 . S
H151 C146 0.961 . S
H152 C146 0.960 . S
H153 C149 0.960 . S
H154 C149 0.960 . S
H155 C149 0.959 . S
C156 N157 1.317 . S
C156 N158 1.348 . S
C156 C159 1.485 . S
N157 C156 1.317 . S
N157 N161 1.370 . S
N158 C156 1.348 . S
N158 C160 1.346 . S
C159 C156 1.485 . S
C159 H163 0.960 . S
C159 H164 0.961 . S
C159 H165 0.960 . S
C160 N158 1.346 . S
C160 N161 1.307 . S
C160 C162 1.486 . S
N161 N157 1.370 . S
N161 C160 1.307 . S
C162 C160 1.486 . S
C162 H166 0.960 . S
C162 H167 0.960 . S
C162 H168 0.959 . S
H163 C159 0.960 . S
H164 C159 0.961 . S
H165 C159 0.960 . S
H166 C162 0.960 . S
H167 C162 0.960 . S
H168 C162 0.959 . S
C169 N170 1.317 . S
C169 N171 1.348 . S
C169 C172 1.485 . S
N170 C169 1.317 . S
N170 N174 1.370 . S
N171 C169 1.348 . S
N171 C173 1.346 . S
C172 C169 1.485 . S
C172 H176 0.960 . S
C172 H177 0.961 . S
C172 H178 0.960 . S
C173 N171 1.346 . S
C173 N174 1.307 . S
C173 C175 1.486 . S
N174 N170 1.370 . S
N174 C173 1.307 . S
C175 C173 1.486 . S
C175 H179 0.960 . S
C175 H180 0.960 . S
C175 H181 0.959 . S
H176 C172 0.960 . S
H177 C172 0.961 . S
H178 C172 0.960 . S
H179 C175 0.960 . S
H180 C175 0.960 . S
H181 C175 0.959 . S
C182 N183 1.317 . S
C182 N184 1.348 . S
C182 C185 1.485 . S
N183 C182 1.317 . S
N183 N187 1.370 . S
N184 C182 1.348 . S
N184 C186 1.346 . S
C185 C182 1.485 . S
C185 H189 0.960 . S
C185 H190 0.961 . S
C185 H191 0.960 . S
C186 N184 1.346 . S
C186 N187 1.307 . S
C186 C188 1.486 . S
N187 N183 1.370 . S
N187 C186 1.307 . S
C188 C186 1.486 . S
C188 H192 0.960 . S
C188 H193 0.960 . S
C188 H194 0.959 . S
H189 C185 0.960 . S
H190 C185 0.961 . S
H191 C185 0.960 . S
H192 C188 0.960 . S
H193 C188 0.960 . S
H194 C188 0.959 . S
C195 N196 1.317 . S
C195 N197 1.348 . S
C195 C198 1.485 . S
N196 C195 1.317 . S
N196 N200 1.370 . S
N197 C195 1.348 . S
N197 C199 1.346 . S
C198 C195 1.485 . S
C198 H202 0.960 . S
C198 H203 0.961 . S
C198 H204 0.960 . S
C199 N197 1.346 . S
C199 N200 1.307 . S
C199 C201 1.486 . S
N200 N196 1.370 . S
N200 C199 1.307 . S
C201 C199 1.486 . S
C201 H205 0.960 . S
C201 H206 0.960 . S
C201 H207 0.959 . S
H202 C198 0.960 . S
H203 C198 0.961 . S
H204 C198 0.960 . S
H205 C201 0.960 . S
H206 C201 0.960 . S
H207 C201 0.959 . S
C208 N209 1.317 . S
C208 N210 1.348 . S
C208 C211 1.485 . S
N209 C208 1.317 . S
N209 N213 1.370 . S
N210 C208 1.348 . S
N210 C212 1.346 . S
C211 C208 1.485 . S
C211 H215 0.960 . S
C211 H216 0.961 . S
C211 H217 0.960 . S
C212 N210 1.346 . S
C212 N213 1.307 . S
C212 C214 1.486 . S
N213 N209 1.370 . S
N213 C212 1.307 . S
C214 C212 1.486 . S
C214 H218 0.960 . S
C214 H219 0.960 . S
C214 H220 0.959 . S
H215 C211 0.960 . S
H216 C211 0.961 . S
H217 C211 0.960 . S
H218 C214 0.960 . S
H219 C214 0.960 . S
H220 C214 0.959 . S
C221 N222 1.317 . S
C221 N223 1.348 . S
C221 C224 1.485 . S
N222 C221 1.317 . S
N222 N226 1.370 . S
N223 C221 1.348 . S
N223 C225 1.346 . S
C224 C221 1.485 . S
C224 H228 0.960 . S
C224 H229 0.961 . S
C224 H230 0.960 . S
C225 N223 1.346 . S
C225 N226 1.307 . S
C225 C227 1.486 . S
N226 N222 1.370 . S
N226 C225 1.307 . S
C227 C225 1.486 . S
C227 H231 0.960 . S
C227 H232 0.960 . S
C227 H233 0.959 . S
H228 C224 0.960 . S
H229 C224 0.961 . S
H230 C224 0.960 . S
H231 C227 0.960 . S
H232 C227 0.960 . S
H233 C227 0.959 . S
Tb234 N265 2.660 . S
Tb234 N272 2.600 . S
Tb234 O278 2.546 . S
Tb234 O279 2.610 1_566 S
Tb234 O281 2.320 1_565 S
Tb234 O282 2.552 1_565 S
Tb234 O283 2.413 1_565 S
Tb234 O285 2.362 1_556 S
Tb234 O286 2.421 1_556 S
Tb234 C298 2.833 1_565 S
C235 C238 1.432 . S
C235 C239 1.414 . S
C235 N242 1.359 . S
C236 C238 1.417 . S
C236 C240 1.432 . S
C236 C248 1.410 . S
C237 C239 1.444 . S
C237 C240 1.317 . S
C237 H260 0.929 . S
C238 C235 1.432 . S
C238 C236 1.417 . S
C238 N246 1.360 . S
C239 C235 1.414 . S
C239 C237 1.444 . S
C239 C244 1.385 . S
C240 C236 1.432 . S
C240 C237 1.317 . S
C240 H252 0.930 . S
C241 C243 1.392 . S
C241 C244 1.370 . S
C241 H253 0.931 . S
N242 C235 1.359 . S
N242 C243 1.327 . S
N242 Tb245 2.600 . S
C243 C241 1.392 . S
C243 N242 1.327 . S
C243 H250 0.930 . S
C244 C239 1.385 . S
C244 C241 1.370 . S
C244 H263 0.930 . S
Tb245 N242 2.600 . S
Tb245 N246 2.660 . S
Tb245 O279 2.362 . S
Tb245 O280 2.421 . S
Tb245 O284 2.546 . S
Tb245 O285 2.610 1_545 S
Tb245 O287 2.320 1_545 S
Tb245 O288 2.552 1_545 S
Tb245 O289 2.413 1_545 S
Tb245 C309 2.833 1_545 S
N246 C238 1.360 . S
N246 Tb245 2.660 . S
N246 C247 1.305 . S
C247 N246 1.305 . S
C247 C249 1.407 . S
C247 H254 0.930 . S
C248 C236 1.410 . S
C248 C249 1.345 . S
C248 H256 0.930 . S
C249 C247 1.407 . S
C249 C248 1.345 . S
C249 H251 0.930 . S
H250 C243 0.930 . S
H251 C249 0.930 . S
H252 C240 0.930 . S
H253 C241 0.931 . S
H254 C247 0.930 . S
H255 C269 0.930 . S
H256 C248 0.930 . S
H257 C275 0.930 . S
H258 C266 0.909 1_545 S
H259 C273 0.931 . S
H260 C237 0.929 . S
H261 C267 0.930 . S
H262 C300 0.930 . S
H263 C244 0.930 . S
H264 C299 0.929 . S
N265 Tb234 2.660 . S
N265 C266 1.305 . S
N265 C270 1.360 . S
C266 H258 0.909 1_565 S
C266 N265 1.305 . S
C266 C269 1.407 . S
C267 H261 0.930 . S
C267 C268 1.410 . S
C267 C269 1.345 . S
C268 C267 1.410 . S
C268 C270 1.417 . S
C268 C300 1.432 . S
C269 H255 0.930 . S
C269 C266 1.407 . S
C269 C267 1.345 . S
C270 N265 1.360 . S
C270 C268 1.417 . S
C270 C274 1.432 . S
H271 C276 0.930 . S
N272 Tb234 2.600 . S
N272 C274 1.359 . S
N272 C275 1.327 . S
C273 H259 0.931 . S
C273 C275 1.392 . S
C273 C276 1.370 . S
C274 C270 1.432 . S
C274 N272 1.359 . S
C274 C277 1.414 . S
C275 H257 0.930 . S
C275 N272 1.327 . S
C275 C273 1.392 . S
C276 H271 0.930 . S
C276 C273 1.370 . S
C276 C277 1.385 . S
C277 C274 1.414 . S
C277 C276 1.385 . S
C277 C299 1.444 . S
O278 Tb234 2.546 . S
O278 C298 1.251 1_565 S
O279 Tb234 2.610 1_544 S
O279 Tb245 2.362 . S
O279 C290 1.283 1_554 S
O280 Tb245 2.421 . S
O280 C297 1.262 . S
O281 Tb234 2.320 1_545 S
O281 C297 1.260 1_556 S
O282 Tb234 2.552 1_545 S
O282 C290 1.243 . S
O283 Tb234 2.413 1_545 S
O283 C298 1.256 . S
O284 Tb245 2.546 . S
O284 C309 1.251 1_545 S
O285 Tb234 2.362 1_554 S
O285 Tb245 2.610 1_565 S
O285 C301 1.283 . S
O286 Tb234 2.421 1_554 S
O286 C308 1.262 . S
O287 Tb245 2.320 1_565 S
O287 C308 1.260 . S
O288 Tb245 2.552 1_565 S
O288 C301 1.243 . S
O289 Tb245 2.413 1_565 S
O289 C309 1.256 . S
C290 O279 1.283 1_556 S
C290 O282 1.243 . S
C291 C293 1.382 . S
C291 C295 1.393 . S
C291 C298 1.500 . S
C292 C293 1.400 . S
C292 C294 1.384 . S
C293 C291 1.382 . S
C293 C292 1.400 . S
C293 H310 0.930 . S
C294 C292 1.384 . S
C294 C296 1.392 . S
C294 H311 0.931 . S
C295 C291 1.393 . S
C295 C296 1.401 . S
C295 H312 0.930 1_545 S
C296 C294 1.392 . S
C296 C295 1.401 . S
C296 H313 0.930 . S
C297 O280 1.262 . S
C297 O281 1.260 1_554 S
C298 Tb234 2.833 1_545 S
C298 O278 1.251 1_545 S
C298 O283 1.256 . S
C298 C291 1.500 . S
C299 H264 0.929 . S
C299 C277 1.444 . S
C299 C300 1.317 . S
C300 H262 0.930 . S
C300 C268 1.432 . S
C300 C299 1.317 . S
C301 O285 1.283 . S
C301 O288 1.243 . S
C302 C303 1.382 . S
C302 C306 1.393 . S
C302 C309 1.500 . S
C303 C302 1.382 . S
C303 C304 1.400 . S
C303 H314 0.930 . S
C304 C303 1.400 . S
C304 C305 1.384 . S
C305 C304 1.384 . S
C305 C307 1.392 . S
C305 H315 0.931 . S
C306 C302 1.393 . S
C306 C307 1.401 . S
C306 H316 0.930 1_565 S
C307 C305 1.392 . S
C307 C306 1.401 . S
C307 H317 0.930 . S
C308 O286 1.262 . S
C308 O287 1.260 . S
C309 Tb245 2.833 1_565 S
C309 O284 1.251 1_565 S
C309 O289 1.256 . S
C309 C302 1.500 . S
H310 C293 0.930 . S
H311 C294 0.931 . S
H312 C295 0.930 1_565 S
H313 C296 0.930 . S
H314 C303 0.930 . S
H315 C305 0.931 . S
H316 C306 0.930 1_545 S
H317 C307 0.930 . S
Tb318 N349 2.660 . S
Tb318 N356 2.600 . S
Tb318 O362 2.546 . S
Tb318 O363 2.610 1_456 S
Tb318 O365 2.320 1_455 S
Tb318 O366 2.552 1_455 S
Tb318 O367 2.413 . S
Tb318 O369 2.362 1_556 S
Tb318 O370 2.421 . S
Tb318 C382 2.833 . S
C319 C322 1.432 . S
C319 C323 1.414 . S
C319 N326 1.359 . S
C320 C322 1.417 . S
C320 C324 1.432 . S
C320 C332 1.410 . S
C321 C323 1.444 . S
C321 C324 1.317 . S
C321 H344 0.929 . S
C322 C319 1.432 . S
C322 C320 1.417 . S
C322 N330 1.360 . S
C323 C319 1.414 . S
C323 C321 1.444 . S
C323 C328 1.385 . S
C324 C320 1.432 . S
C324 C321 1.317 . S
C324 H336 0.930 . S
C325 C327 1.392 . S
C325 C328 1.370 . S
C325 H337 0.931 . S
N326 C319 1.359 . S
N326 C327 1.327 . S
N326 Tb329 2.600 . S
C327 C325 1.392 . S
C327 N326 1.327 . S
C327 H334 0.930 . S
C328 C323 1.385 . S
C328 C325 1.370 . S
C328 H347 0.930 . S
Tb329 N326 2.600 . S
Tb329 N330 2.660 . S
Tb329 O363 2.362 . S
Tb329 O364 2.421 . S
Tb329 O368 2.546 . S
Tb329 O369 2.610 1_655 S
Tb329 O371 2.320 1_655 S
Tb329 O372 2.552 1_655 S
Tb329 O373 2.413 . S
Tb329 C393 2.833 . S
N330 C322 1.360 . S
N330 Tb329 2.660 . S
N330 C331 1.305 . S
C331 N330 1.305 . S
C331 C333 1.407 . S
C331 H338 0.930 . S
C332 C320 1.410 . S
C332 C333 1.345 . S
C332 H340 0.930 . S
C333 C331 1.407 . S
C333 C332 1.345 . S
C333 H335 0.930 . S
H334 C327 0.930 . S
H335 C333 0.930 . S
H336 C324 0.930 . S
H337 C325 0.931 . S
H338 C331 0.930 . S
H339 C353 0.930 . S
H340 C332 0.930 . S
H341 C359 0.930 . S
H342 C350 0.930 . S
H343 C357 0.931 . S
H344 C321 0.929 . S
H345 C351 0.930 . S
H346 C384 0.930 . S
H347 C328 0.930 . S
H348 C383 0.929 . S
N349 Tb318 2.660 . S
N349 C350 1.305 . S
N349 C354 1.360 . S
C350 H342 0.930 . S
C350 N349 1.305 . S
C350 C353 1.407 . S
C351 H345 0.930 . S
C351 C352 1.410 . S
C351 C353 1.345 . S
C352 C351 1.410 . S
C352 C354 1.417 . S
C352 C384 1.432 . S
C353 H339 0.930 . S
C353 C350 1.407 . S
C353 C351 1.345 . S
C354 N349 1.360 . S
C354 C352 1.417 . S
C354 C358 1.432 . S
H355 C360 0.930 . S
N356 Tb318 2.600 . S
N356 C358 1.359 . S
N356 C359 1.327 . S
C357 H343 0.931 . S
C357 C359 1.392 . S
C357 C360 1.370 . S
C358 C354 1.432 . S
C358 N356 1.359 . S
C358 C361 1.414 . S
C359 H341 0.930 . S
C359 N356 1.327 . S
C359 C357 1.392 . S
C360 H355 0.930 . S
C360 C357 1.370 . S
C360 C361 1.385 . S
C361 C358 1.414 . S
C361 C360 1.385 . S
C361 C383 1.444 . S
O362 Tb318 2.546 . S
O362 C382 1.251 . S
O363 Tb318 2.610 1_654 S
O363 Tb329 2.362 . S
O363 C374 1.283 1_554 S
O364 Tb329 2.421 . S
O364 C381 1.265 1_554 S
O365 Tb318 2.320 1_655 S
O365 C381 1.258 . S
O366 Tb318 2.552 1_655 S
O366 C374 1.243 . S
O367 Tb318 2.413 . S
O367 C382 1.256 . S
O368 Tb329 2.546 . S
O368 C393 1.251 . S
O369 Tb318 2.362 1_554 S
O369 Tb329 2.610 1_455 S
O369 C385 1.283 . S
O370 Tb318 2.421 . S
O370 C392 1.262 1_556 S
O371 Tb329 2.320 1_455 S
O371 C392 1.260 . S
O372 Tb329 2.552 1_455 S
O372 C385 1.243 . S
O373 Tb329 2.413 . S
O373 C393 1.256 . S
C374 O363 1.283 1_556 S
C374 O366 1.243 . S
C375 C377 1.382 1_455 S
C375 C379 1.393 . S
C375 C382 1.500 . S
C376 C377 1.400 . S
C376 C378 1.384 1_655 S
C377 C375 1.382 1_655 S
C377 C376 1.400 . S
C377 H394 0.930 . S
C378 C376 1.384 1_455 S
C378 C380 1.392 . S
C378 H395 0.931 . S
C379 C375 1.393 . S
C379 C380 1.401 . S
C379 H396 0.930 . S
C380 C378 1.392 . S
C380 C379 1.401 . S
C380 H397 0.930 . S
C381 O364 1.265 1_556 S
C381 O365 1.258 . S
C382 Tb318 2.833 . S
C382 O362 1.251 . S
C382 O367 1.256 . S
C382 C375 1.500 . S
C383 H348 0.929 . S
C383 C361 1.444 . S
C383 C384 1.317 . S
C384 H346 0.930 . S
C384 C352 1.432 . S
C384 C383 1.317 . S
C385 O369 1.283 . S
C385 O372 1.243 . S
C386 C387 1.382 1_655 S
C386 C390 1.393 . S
C386 C393 1.500 . S
C387 C386 1.382 1_455 S
C387 C388 1.400 . S
C387 H398 0.930 . S
C388 C387 1.400 . S
C388 C389 1.384 . S
C389 C388 1.384 . S
C389 C391 1.392 1_455 S
C389 H399 0.931 . S
C390 C386 1.393 . S
C390 C391 1.401 . S
C390 H400 0.930 . S
C391 C389 1.392 1_655 S
C391 C390 1.401 . S
C391 H401 0.930 . S
C392 O370 1.262 1_554 S
C392 O371 1.260 . S
C393 Tb329 2.833 . S
C393 O368 1.251 . S
C393 O373 1.256 . S
C393 C386 1.500 . S
H394 C377 0.930 . S
H395 C378 0.931 . S
H396 C379 0.930 . S
H397 C380 0.930 . S
H398 C387 0.930 . S
H399 C389 0.931 . S
H400 C390 0.930 . S
H401 C391 0.930 . S
Tb402 N433 2.660 . S
Tb402 N440 2.600 . S
Tb402 O446 2.546 . S
Tb402 O447 2.610 . S
Tb402 O449 2.320 . S
Tb402 O450 2.552 . S
Tb402 O451 2.413 . S
Tb402 O453 2.362 . S
Tb402 O454 2.421 . S
Tb402 C466 2.833 . S
C403 C406 1.432 . S
C403 C407 1.414 . S
C403 N410 1.359 . S
C404 C406 1.417 . S
C404 C408 1.432 . S
C404 C416 1.410 . S
C405 C407 1.444 . S
C405 C408 1.317 . S
C405 H428 0.929 . S
C406 C403 1.432 . S
C406 C404 1.417 . S
C406 N414 1.360 . S
C407 C403 1.414 . S
C407 C405 1.444 . S
C407 C412 1.385 . S
C408 C404 1.432 . S
C408 C405 1.317 . S
C408 H420 0.930 . S
C409 C411 1.392 . S
C409 C412 1.370 . S
C409 H421 0.931 . S
N410 C403 1.359 . S
N410 C411 1.327 . S
N410 Tb413 2.600 . S
C411 C409 1.392 . S
C411 N410 1.327 . S
C411 H418 0.930 . S
C412 C407 1.385 . S
C412 C409 1.370 . S
C412 H431 0.930 . S
Tb413 N410 2.600 . S
Tb413 N414 2.660 . S
Tb413 O447 2.362 1_556 S
Tb413 O448 2.421 1_556 S
Tb413 O452 2.546 . S
Tb413 O453 2.610 1_556 S
Tb413 O455 2.320 1_556 S
Tb413 O456 2.552 . S
Tb413 O457 2.413 . S
Tb413 C477 2.833 . S
N414 C406 1.360 . S
N414 Tb413 2.660 . S
N414 C415 1.305 . S
C415 N414 1.305 . S
C415 C417 1.407 . S
C415 H422 0.930 . S
C416 C404 1.410 . S
C416 C417 1.345 . S
C416 H424 0.930 . S
C417 C415 1.407 . S
C417 C416 1.345 . S
C417 H419 0.930 . S
H418 C411 0.930 . S
H419 C417 0.930 . S
H420 C408 0.930 . S
H421 C409 0.931 . S
H422 C415 0.930 . S
H423 C437 0.930 . S
H424 C416 0.930 . S
H425 C443 0.930 . S
H426 C434 0.930 . S
H427 C441 0.931 . S
H428 C405 0.929 . S
H429 C435 0.930 . S
H430 C468 0.930 . S
H431 C412 0.930 . S
H432 C467 0.929 . S
N433 Tb402 2.660 . S
N433 C434 1.305 . S
N433 C438 1.360 . S
C434 H426 0.930 . S
C434 N433 1.305 . S
C434 C437 1.407 . S
C435 H429 0.930 . S
C435 C436 1.410 . S
C435 C437 1.345 . S
C436 C435 1.410 . S
C436 C438 1.417 . S
C436 C468 1.432 . S
C437 H423 0.930 . S
C437 C434 1.407 . S
C437 C435 1.345 . S
C438 N433 1.360 . S
C438 C436 1.417 . S
C438 C442 1.432 . S
H439 C444 0.930 . S
N440 Tb402 2.600 . S
N440 C442 1.359 . S
N440 C443 1.327 . S
C441 H427 0.931 . S
C441 C443 1.392 . S
C441 C444 1.370 . S
C442 C438 1.432 . S
C442 N440 1.359 . S
C442 C445 1.414 . S
C443 H425 0.930 . S
C443 N440 1.327 . S
C443 C441 1.392 . S
C444 H439 0.930 . S
C444 C441 1.370 . S
C444 C445 1.385 . S
C445 C442 1.414 . S
C445 C444 1.385 . S
C445 C467 1.444 . S
O446 Tb402 2.546 . S
O446 C466 1.251 . S
O447 Tb402 2.610 . S
O447 Tb413 2.362 1_554 S
O447 C458 1.283 . S
O448 Tb413 2.421 1_554 S
O448 C465 1.262 . S
O449 Tb402 2.320 . S
O449 C465 1.260 . S
O450 Tb402 2.552 . S
O450 C458 1.243 . S
O451 Tb402 2.413 . S
O451 C466 1.256 . S
O452 Tb413 2.546 . S
O452 C477 1.251 . S
O453 Tb402 2.362 . S
O453 Tb413 2.610 1_554 S
O453 C469 1.283 . S
O454 Tb402 2.421 . S
O454 C476 1.262 . S
O455 Tb413 2.320 1_554 S
O455 C476 1.260 . S
O456 Tb413 2.552 . S
O456 C469 1.243 1_556 S
O457 Tb413 2.413 . S
O457 C477 1.256 . S
C458 O447 1.283 . S
C458 O450 1.243 . S
C459 C461 1.382 . S
C459 C463 1.393 . S
C459 C466 1.500 . S
C460 C461 1.400 . S
C460 C462 1.384 . S
C461 C459 1.382 . S
C461 C460 1.400 . S
C461 H478 0.930 . S
C462 C460 1.384 . S
C462 C464 1.392 . S
C462 H479 0.931 . S
C463 C459 1.393 . S
C463 C464 1.401 . S
C463 H480 0.930 . S
C464 C462 1.392 . S
C464 C463 1.401 . S
C464 H481 0.930 . S
C465 O448 1.262 . S
C465 O449 1.260 . S
C466 Tb402 2.833 . S
C466 O446 1.251 . S
C466 O451 1.256 . S
C466 C459 1.500 . S
C467 H432 0.929 . S
C467 C445 1.444 . S
C467 C468 1.317 . S
C468 H430 0.930 . S
C468 C436 1.432 . S
C468 C467 1.317 . S
C469 O453 1.283 . S
C469 O456 1.243 1_554 S
C470 C471 1.382 . S
C470 C474 1.393 . S
C470 C477 1.500 . S
C471 C470 1.382 . S
C471 C472 1.400 . S
C471 H482 0.930 . S
C472 C471 1.400 . S
C472 C473 1.384 . S
C473 C472 1.384 . S
C473 C475 1.392 . S
C473 H483 0.931 . S
C474 C470 1.393 . S
C474 C475 1.401 . S
C474 H484 0.930 . S
C475 C473 1.392 . S
C475 C474 1.401 . S
C475 H485 0.930 . S
C476 O454 1.262 . S
C476 O455 1.260 . S
C477 Tb413 2.833 . S
C477 O452 1.251 . S
C477 O457 1.256 . S
C477 C470 1.500 . S
H478 C461 0.930 . S
H479 C462 0.931 . S
H480 C463 0.930 . S
H481 C464 0.930 . S
H482 C471 0.930 . S
H483 C473 0.931 . S
H484 C474 0.930 . S
H485 C475 0.930 . S
Tb486 N517 2.660 . S
Tb486 N524 2.600 . S
Tb486 O530 2.546 . S
Tb486 O531 2.610 . S
Tb486 O533 2.320 . S
Tb486 O534 2.552 . S
Tb486 O535 2.413 . S
Tb486 O537 2.362 . S
Tb486 O538 2.421 . S
Tb486 C550 2.833 . S
C487 C490 1.432 . S
C487 C491 1.414 . S
C487 N494 1.359 . S
C488 C490 1.417 . S
C488 C492 1.432 . S
C488 C500 1.410 . S
C489 C491 1.444 . S
C489 C492 1.317 . S
C489 H512 0.929 . S
C490 C487 1.432 . S
C490 C488 1.417 . S
C490 N498 1.360 . S
C491 C487 1.414 . S
C491 C489 1.444 . S
C491 C496 1.385 . S
C492 C488 1.432 . S
C492 C489 1.317 . S
C492 H504 0.930 . S
C493 C495 1.392 . S
C493 C496 1.370 . S
C493 H505 0.931 . S
N494 C487 1.359 . S
N494 C495 1.327 . S
N494 Tb497 2.600 . S
C495 C493 1.392 . S
C495 N494 1.327 . S
C495 H502 0.930 . S
C496 C491 1.385 . S
C496 C493 1.370 . S
C496 H515 0.930 . S
Tb497 N494 2.600 . S
Tb497 N498 2.660 . S
Tb497 O531 2.362 . S
Tb497 O532 2.421 . S
Tb497 O536 2.546 . S
Tb497 O537 2.610 . S
Tb497 O539 2.320 . S
Tb497 O540 2.552 . S
Tb497 O541 2.413 . S
Tb497 C561 2.833 . S
N498 C490 1.360 . S
N498 Tb497 2.660 . S
N498 C499 1.305 . S
C499 N498 1.305 . S
C499 C501 1.407 . S
C499 H506 0.930 . S
C500 C488 1.410 . S
C500 C501 1.345 . S
C500 H508 0.930 . S
C501 C499 1.407 . S
C501 C500 1.345 . S
C501 H503 0.930 . S
H502 C495 0.930 . S
H503 C501 0.930 . S
H504 C492 0.930 . S
H505 C493 0.931 . S
H506 C499 0.930 . S
H507 C521 0.930 . S
H508 C500 0.930 . S
H509 C527 0.930 . S
H510 C518 0.930 . S
H511 C525 0.931 . S
H512 C489 0.929 . S
H513 C519 0.930 1_655 S
H514 C552 0.930 1_655 S
H515 C496 0.930 . S
H516 C551 0.929 . S
N517 Tb486 2.660 . S
N517 C518 1.305 . S
N517 C522 1.360 . S
C518 H510 0.930 . S
C518 N517 1.305 . S
C518 C521 1.407 . S
C519 H513 0.930 1_455 S
C519 C520 1.410 . S
C519 C521 1.345 . S
C520 C519 1.410 . S
C520 C522 1.417 . S
C520 C552 1.432 . S
C521 H507 0.930 . S
C521 C518 1.407 . S
C521 C519 1.345 . S
C522 N517 1.360 . S
C522 C520 1.417 . S
C522 C526 1.432 . S
H523 C528 0.930 . S
N524 Tb486 2.600 . S
N524 C526 1.359 . S
N524 C527 1.327 . S
C525 H511 0.931 . S
C525 C527 1.392 . S
C525 C528 1.370 . S
C526 C522 1.432 . S
C526 N524 1.359 . S
C526 C529 1.414 . S
C527 H509 0.930 . S
C527 N524 1.327 . S
C527 C525 1.392 . S
C528 H523 0.930 . S
C528 C525 1.370 . S
C528 C529 1.385 . S
C529 C526 1.414 . S
C529 C528 1.385 . S
C529 C551 1.444 . S
O530 Tb486 2.546 . S
O530 C550 1.251 . S
O531 Tb486 2.610 . S
O531 Tb497 2.362 . S
O531 C542 1.283 . S
O532 Tb497 2.421 . S
O532 C549 1.262 . S
O533 Tb486 2.320 . S
O533 C549 1.260 . S
O534 Tb486 2.552 . S
O534 C542 1.243 . S
O535 Tb486 2.413 . S
O535 C550 1.256 . S
O536 Tb497 2.546 . S
O536 C561 1.251 . S
O537 Tb486 2.362 . S
O537 Tb497 2.610 . S
O537 C553 1.283 . S
O538 Tb486 2.421 . S
O538 C560 1.262 . S
O539 Tb497 2.320 . S
O539 C560 1.260 . S
O540 Tb497 2.552 . S
O540 C553 1.243 . S
O541 Tb497 2.413 . S
O541 C561 1.256 . S
C542 O531 1.283 . S
C542 O534 1.243 . S
C543 C545 1.382 . S
C543 C547 1.393 . S
C543 C550 1.500 . S
C544 C545 1.400 . S
C544 C546 1.384 . S
C545 C543 1.382 . S
C545 C544 1.400 . S
C545 H562 0.930 . S
C546 C544 1.384 . S
C546 C548 1.392 . S
C546 H563 0.931 . S
C547 C543 1.393 . S
C547 C548 1.401 . S
C547 H564 0.930 . S
C548 C546 1.392 . S
C548 C547 1.401 . S
C548 H565 0.930 . S
C549 O532 1.262 . S
C549 O533 1.260 . S
C550 Tb486 2.833 . S
C550 O530 1.251 . S
C550 O535 1.256 . S
C550 C543 1.500 . S
C551 H516 0.929 . S
C551 C529 1.444 . S
C551 C552 1.317 . S
C552 H514 0.930 1_455 S
C552 C520 1.432 . S
C552 C551 1.317 . S
C553 O537 1.283 . S
C553 O540 1.243 . S
C554 C555 1.382 . S
C554 C558 1.393 . S
C554 C561 1.500 . S
C555 C554 1.382 . S
C555 C556 1.400 . S
C555 H566 0.930 . S
C556 C555 1.400 . S
C556 C557 1.384 . S
C557 C556 1.384 . S
C557 C559 1.392 . S
C557 H567 0.931 . S
C558 C554 1.393 . S
C558 C559 1.401 . S
C558 H568 0.930 . S
C559 C557 1.392 . S
C559 C558 1.401 . S
C559 H569 0.930 . S
C560 O538 1.262 . S
C560 O539 1.260 . S
C561 Tb497 2.833 . S
C561 O536 1.251 . S
C561 O541 1.256 . S
C561 C554 1.500 . S
H562 C545 0.930 . S
H563 C546 0.931 . S
H564 C547 0.930 . S
H565 C548 0.930 . S
H566 C555 0.930 . S
H567 C557 0.931 . S
H568 C558 0.930 . S
H569 C559 0.930 . S
Tb570 N601 2.660 . S
Tb570 N608 2.600 . S
Tb570 O614 2.546 . S
Tb570 O615 2.610 . S
Tb570 O617 2.320 . S
Tb570 O618 2.552 . S
Tb570 O619 2.413 . S
Tb570 O621 2.362 . S
Tb570 O622 2.421 . S
Tb570 C634 2.833 . S
C571 C574 1.432 . S
C571 C575 1.414 . S
C571 N578 1.359 . S
C572 C574 1.417 . S
C572 C576 1.432 . S
C572 C584 1.410 . S
C573 C575 1.444 . S
C573 C576 1.317 . S
C573 H596 0.929 . S
C574 C571 1.432 . S
C574 C572 1.417 . S
C574 N582 1.360 . S
C575 C571 1.414 . S
C575 C573 1.444 . S
C575 C580 1.385 . S
C576 C572 1.432 . S
C576 C573 1.317 . S
C576 H588 0.930 . S
C577 C579 1.392 . S
C577 C580 1.370 . S
C577 H589 0.931 . S
N578 C571 1.359 . S
N578 C579 1.327 . S
N578 Tb581 2.600 . S
C579 C577 1.392 . S
C579 N578 1.327 . S
C579 H586 0.930 . S
C580 C575 1.385 . S
C580 C577 1.370 . S
C580 H599 0.930 . S
Tb581 N578 2.600 . S
Tb581 N582 2.660 . S
Tb581 O615 2.362 . S
Tb581 O616 2.421 . S
Tb581 O620 2.546 . S
Tb581 O621 2.610 . S
Tb581 O623 2.320 . S
Tb581 O624 2.552 . S
Tb581 O625 2.413 . S
Tb581 C645 2.833 . S
N582 C574 1.360 . S
N582 Tb581 2.660 . S
N582 C583 1.305 . S
C583 N582 1.305 . S
C583 C585 1.407 . S
C583 H590 0.930 . S
C584 C572 1.410 . S
C584 C585 1.345 . S
C584 H592 0.930 . S
C585 C583 1.407 . S
C585 C584 1.345 . S
C585 H587 0.930 . S
H586 C579 0.930 . S
H587 C585 0.930 . S
H588 C576 0.930 . S
H589 C577 0.931 . S
H590 C583 0.930 . S
H591 C605 0.930 . S
H592 C584 0.930 . S
H593 C611 0.930 . S
H594 C602 0.930 . S
H595 C609 0.931 1_545 S
H596 C573 0.929 . S
H597 C603 0.930 . S
H598 C636 0.930 . S
H599 C580 0.930 . S
H600 C635 0.929 . S
N601 Tb570 2.660 . S
N601 C602 1.305 . S
N601 C606 1.360 . S
C602 H594 0.930 . S
C602 N601 1.305 . S
C602 C605 1.407 . S
C603 H597 0.930 . S
C603 C604 1.410 . S
C603 C605 1.345 . S
C604 C603 1.410 . S
C604 C606 1.417 . S
C604 C636 1.432 . S
C605 H591 0.930 . S
C605 C602 1.407 . S
C605 C603 1.345 . S
C606 N601 1.360 . S
C606 C604 1.417 . S
C606 C610 1.432 . S
H607 C612 0.930 . S
N608 Tb570 2.600 . S
N608 C610 1.359 . S
N608 C611 1.327 . S
C609 H595 0.931 1_565 S
C609 C611 1.392 . S
C609 C612 1.370 . S
C610 C606 1.432 . S
C610 N608 1.359 . S
C610 C613 1.414 . S
C611 H593 0.930 . S
C611 N608 1.327 . S
C611 C609 1.392 . S
C612 H607 0.930 . S
C612 C609 1.370 . S
C612 C613 1.385 . S
C613 C610 1.414 . S
C613 C612 1.385 . S
C613 C635 1.444 . S
O614 Tb570 2.546 . S
O614 C634 1.251 . S
O615 Tb570 2.610 . S
O615 Tb581 2.362 . S
O615 C626 1.283 . S
O616 Tb581 2.421 . S
O616 C633 1.262 . S
O617 Tb570 2.320 . S
O617 C633 1.260 . S
O618 Tb570 2.552 . S
O618 C626 1.243 . S
O619 Tb570 2.413 . S
O619 C634 1.256 . S
O620 Tb581 2.546 . S
O620 C645 1.251 . S
O621 Tb570 2.362 . S
O621 Tb581 2.610 . S
O621 C637 1.283 . S
O622 Tb570 2.421 . S
O622 C644 1.262 . S
O623 Tb581 2.320 . S
O623 C644 1.260 . S
O624 Tb581 2.552 . S
O624 C637 1.243 . S
O625 Tb581 2.413 . S
O625 C645 1.256 . S
C626 O615 1.283 . S
C626 O618 1.243 . S
C627 C629 1.382 . S
C627 C631 1.393 . S
C627 C634 1.500 . S
C628 C629 1.400 . S
C628 C630 1.384 . S
C629 C627 1.382 . S
C629 C628 1.400 . S
C629 H646 0.930 . S
C630 C628 1.384 . S
C630 C632 1.392 . S
C630 H647 0.931 . S
C631 C627 1.393 . S
C631 C632 1.401 . S
C631 H648 0.930 . S
C632 C630 1.392 . S
C632 C631 1.401 . S
C632 H649 0.930 . S
C633 O616 1.262 . S
C633 O617 1.260 . S
C634 Tb570 2.833 . S
C634 O614 1.251 . S
C634 O619 1.256 . S
C634 C627 1.500 . S
C635 H600 0.929 . S
C635 C613 1.444 . S
C635 C636 1.317 . S
C636 H598 0.930 . S
C636 C604 1.432 . S
C636 C635 1.317 . S
C637 O621 1.283 . S
C637 O624 1.243 . S
C638 C639 1.382 . S
C638 C642 1.393 . S
C638 C645 1.500 . S
C639 C638 1.382 . S
C639 C640 1.400 . S
C639 H650 0.930 . S
C640 C639 1.400 . S
C640 C641 1.384 . S
C641 C640 1.384 . S
C641 C643 1.392 . S
C641 H651 0.931 . S
C642 C638 1.393 . S
C642 C643 1.401 . S
C642 H652 0.930 . S
C643 C641 1.392 . S
C643 C642 1.401 . S
C643 H653 0.930 . S
C644 O622 1.262 . S
C644 O623 1.260 . S
C645 Tb581 2.833 . S
C645 O620 1.251 . S
C645 O625 1.256 . S
C645 C638 1.500 . S
H646 C629 0.930 . S
H647 C630 0.931 . S
H648 C631 0.930 . S
H649 C632 0.930 . S
H650 C639 0.930 . S
H651 C641 0.931 . S
H652 C642 0.930 . S
H653 C643 0.930 . S
Tb654 N685 2.660 . S
Tb654 N692 2.600 . S
Tb654 O698 2.546 . S
Tb654 O699 2.610 . S
Tb654 O701 2.320 . S
Tb654 O702 2.552 . S
Tb654 O703 2.413 . S
Tb654 O705 2.362 . S
Tb654 O706 2.421 . S
Tb654 C718 2.833 . S
C655 C658 1.432 . S
C655 C659 1.414 . S
C655 N662 1.359 . S
C656 C658 1.417 1_655 S
C656 C660 1.432 . S
C656 C668 1.410 . S
C657 C659 1.444 . S
C657 C660 1.317 1_455 S
C657 H680 0.929 1_455 S
C658 C655 1.432 . S
C658 C656 1.417 1_455 S
C658 N666 1.360 . S
C659 C655 1.414 . S
C659 C657 1.444 . S
C659 C664 1.385 . S
C660 C656 1.432 . S
C660 C657 1.317 1_655 S
C660 H672 0.930 . S
C661 C663 1.392 . S
C661 C664 1.370 . S
C661 H673 0.931 . S
N662 C655 1.359 . S
N662 C663 1.327 . S
N662 Tb665 2.600 . S
C663 C661 1.392 . S
C663 N662 1.327 . S
C663 H670 0.930 . S
C664 C659 1.385 . S
C664 C661 1.370 . S
C664 H683 0.930 . S
Tb665 N662 2.600 . S
Tb665 N666 2.660 . S
Tb665 O699 2.362 . S
Tb665 O700 2.421 . S
Tb665 O704 2.546 . S
Tb665 O705 2.610 . S
Tb665 O707 2.320 . S
Tb665 O708 2.552 . S
Tb665 O709 2.413 . S
Tb665 C729 2.833 . S
N666 C658 1.360 . S
N666 Tb665 2.660 . S
N666 C667 1.305 . S
C667 N666 1.305 . S
C667 C669 1.407 1_455 S
C667 H674 0.930 . S
C668 C656 1.410 . S
C668 C669 1.345 . S
C668 H676 0.930 . S
C669 C667 1.407 1_655 S
C669 C668 1.345 . S
C669 H671 0.930 . S
H670 C663 0.930 . S
H671 C669 0.930 . S
H672 C660 0.930 . S
H673 C661 0.931 . S
H674 C667 0.930 . S
H675 C689 0.930 . S
H676 C668 0.930 . S
H677 C695 0.930 . S
H678 C686 0.930 . S
H679 C693 0.931 . S
H680 C657 0.929 1_655 S
H681 C687 0.930 . S
H682 C720 0.930 . S
H683 C664 0.930 . S
H684 C719 0.929 . S
N685 Tb654 2.660 . S
N685 C686 1.305 . S
N685 C690 1.360 . S
C686 H678 0.930 . S
C686 N685 1.305 . S
C686 C689 1.407 . S
C687 H681 0.930 . S
C687 C688 1.410 . S
C687 C689 1.345 . S
C688 C687 1.410 . S
C688 C690 1.417 . S
C688 C720 1.432 . S
C689 H675 0.930 . S
C689 C686 1.407 . S
C689 C687 1.345 . S
C690 N685 1.360 . S
C690 C688 1.417 . S
C690 C694 1.432 . S
H691 C696 0.930 . S
N692 Tb654 2.600 . S
N692 C694 1.359 . S
N692 C695 1.327 . S
C693 H679 0.931 . S
C693 C695 1.392 . S
C693 C696 1.370 . S
C694 C690 1.432 . S
C694 N692 1.359 . S
C694 C697 1.414 . S
C695 H677 0.930 . S
C695 N692 1.327 . S
C695 C693 1.392 . S
C696 H691 0.930 . S
C696 C693 1.370 . S
C696 C697 1.385 . S
C697 C694 1.414 . S
C697 C696 1.385 . S
C697 C719 1.444 . S
O698 Tb654 2.546 . S
O698 C718 1.251 . S
O699 Tb654 2.610 . S
O699 Tb665 2.362 . S
O699 C710 1.283 . S
O700 Tb665 2.421 . S
O700 C717 1.262 . S
O701 Tb654 2.320 . S
O701 C717 1.260 . S
O702 Tb654 2.552 . S
O702 C710 1.243 . S
O703 Tb654 2.413 . S
O703 C718 1.256 . S
O704 Tb665 2.546 . S
O704 C729 1.251 . S
O705 Tb654 2.362 . S
O705 Tb665 2.610 . S
O705 C721 1.283 . S
O706 Tb654 2.421 . S
O706 C728 1.262 . S
O707 Tb665 2.320 . S
O707 C728 1.260 . S
O708 Tb665 2.552 . S
O708 C721 1.243 . S
O709 Tb665 2.413 . S
O709 C729 1.256 . S
C710 O699 1.283 . S
C710 O702 1.243 . S
C711 C713 1.382 . S
C711 C715 1.393 . S
C711 C718 1.500 . S
C712 C713 1.400 . S
C712 C714 1.384 . S
C713 C711 1.382 . S
C713 C712 1.400 . S
C713 H730 0.930 . S
C714 C712 1.384 . S
C714 C716 1.392 . S
C714 H731 0.931 . S
C715 C711 1.393 . S
C715 C716 1.401 . S
C715 H732 0.930 . S
C716 C714 1.392 . S
C716 C715 1.401 . S
C716 H733 0.930 . S
C717 O700 1.262 . S
C717 O701 1.260 . S
C718 Tb654 2.833 . S
C718 O698 1.251 . S
C718 O703 1.256 . S
C718 C711 1.500 . S
C719 H684 0.929 . S
C719 C697 1.444 . S
C719 C720 1.317 . S
C720 H682 0.930 . S
C720 C688 1.432 . S
C720 C719 1.317 . S
C721 O705 1.283 . S
C721 O708 1.243 . S
C722 C723 1.382 . S
C722 C726 1.393 . S
C722 C729 1.500 . S
C723 C722 1.382 . S
C723 C724 1.400 . S
C723 H734 0.930 . S
C724 C723 1.400 . S
C724 C725 1.384 . S
C725 C724 1.384 . S
C725 C727 1.392 . S
C725 H735 0.931 . S
C726 C722 1.393 . S
C726 C727 1.401 . S
C726 H736 0.930 . S
C727 C725 1.392 . S
C727 C726 1.401 . S
C727 H737 0.930 . S
C728 O706 1.262 . S
C728 O707 1.260 . S
C729 Tb665 2.833 . S
C729 O704 1.251 . S
C729 O709 1.256 . S
C729 C722 1.500 . S
H730 C713 0.930 . S
H731 C714 0.931 . S
H732 C715 0.930 . S
H733 C716 0.930 . S
H734 C723 0.930 . S
H735 C725 0.931 . S
H736 C726 0.930 . S
H737 C727 0.930 . S
Tb738 N769 2.660 . S
Tb738 N776 2.600 . S
Tb738 O782 2.546 . S
Tb738 O783 2.610 . S
Tb738 O785 2.320 . S
Tb738 O786 2.552 . S
Tb738 O787 2.413 . S
Tb738 O789 2.362 . S
Tb738 O790 2.421 . S
Tb738 C802 2.833 . S
C739 C742 1.432 . S
C739 C743 1.414 . S
C739 N746 1.359 . S
C740 C742 1.417 1_455 S
C740 C744 1.432 . S
C740 C752 1.410 . S
C741 C743 1.444 1_455 S
C741 C744 1.317 . S
C741 H764 0.929 . S
C742 C739 1.432 . S
C742 C740 1.417 1_655 S
C742 N750 1.360 . S
C743 C739 1.414 . S
C743 C741 1.444 1_655 S
C743 C748 1.385 . S
C744 C740 1.432 . S
C744 C741 1.317 . S
C744 H756 0.930 . S
C745 C747 1.392 . S
C745 C748 1.370 . S
C745 H757 0.931 . S
N746 C739 1.359 . S
N746 C747 1.327 . S
N746 Tb749 2.600 . S
C747 C745 1.392 . S
C747 N746 1.327 . S
C747 H754 0.930 . S
C748 C743 1.385 . S
C748 C745 1.370 . S
C748 H767 0.930 . S
Tb749 N746 2.600 . S
Tb749 N750 2.660 . S
Tb749 O783 2.362 . S
Tb749 O784 2.421 . S
Tb749 O788 2.546 . S
Tb749 O789 2.610 . S
Tb749 O791 2.320 . S
Tb749 O792 2.552 . S
Tb749 O793 2.413 . S
Tb749 C813 2.833 . S
N750 C742 1.360 . S
N750 Tb749 2.660 . S
N750 C751 1.305 . S
C751 N750 1.305 . S
C751 C753 1.407 1_655 S
C751 H758 0.930 . S
C752 C740 1.410 . S
C752 C753 1.345 . S
C752 H760 0.930 . S
C753 C751 1.407 1_455 S
C753 C752 1.345 . S
C753 H755 0.930 . S
H754 C747 0.930 . S
H755 C753 0.930 . S
H756 C744 0.930 . S
H757 C745 0.931 . S
H758 C751 0.930 . S
H759 C773 0.930 . S
H760 C752 0.930 . S
H761 C779 0.930 . S
H762 C770 0.930 . S
H763 C777 0.931 . S
H764 C741 0.929 . S
H765 C771 0.930 . S
H766 C804 0.930 . S
H767 C748 0.930 . S
H768 C803 0.929 . S
N769 Tb738 2.660 . S
N769 C770 1.305 . S
N769 C774 1.360 . S
C770 H762 0.930 . S
C770 N769 1.305 . S
C770 C773 1.407 . S
C771 H765 0.930 . S
C771 C772 1.410 . S
C771 C773 1.345 . S
C772 C771 1.410 . S
C772 C774 1.417 . S
C772 C804 1.432 . S
C773 H759 0.930 . S
C773 C770 1.407 . S
C773 C771 1.345 . S
C774 N769 1.360 . S
C774 C772 1.417 . S
C774 C778 1.432 . S
H775 C780 0.930 . S
N776 Tb738 2.600 . S
N776 C778 1.359 . S
N776 C779 1.327 . S
C777 H763 0.931 . S
C777 C779 1.392 . S
C777 C780 1.370 . S
C778 C774 1.432 . S
C778 N776 1.359 . S
C778 C781 1.414 . S
C779 H761 0.930 . S
C779 N776 1.327 . S
C779 C777 1.392 . S
C780 H775 0.930 . S
C780 C777 1.370 . S
C780 C781 1.385 . S
C781 C778 1.414 . S
C781 C780 1.385 . S
C781 C803 1.444 . S
O782 Tb738 2.546 . S
O782 C802 1.251 . S
O783 Tb738 2.610 . S
O783 Tb749 2.362 . S
O783 C794 1.283 . S
O784 Tb749 2.421 . S
O784 C801 1.262 . S
O785 Tb738 2.320 . S
O785 C801 1.260 . S
O786 Tb738 2.552 . S
O786 C794 1.243 . S
O787 Tb738 2.413 . S
O787 C802 1.256 . S
O788 Tb749 2.546 . S
O788 C813 1.251 . S
O789 Tb738 2.362 . S
O789 Tb749 2.610 . S
O789 C805 1.283 . S
O790 Tb738 2.421 . S
O790 C812 1.262 . S
O791 Tb749 2.320 . S
O791 C812 1.260 . S
O792 Tb749 2.552 . S
O792 C805 1.243 . S
O793 Tb749 2.413 . S
O793 C813 1.256 . S
C794 O783 1.283 . S
C794 O786 1.243 . S
C795 C797 1.382 . S
C795 C799 1.393 . S
C795 C802 1.500 . S
C796 C797 1.400 . S
C796 C798 1.384 . S
C797 C795 1.382 . S
C797 C796 1.400 . S
C797 H814 0.930 . S
C798 C796 1.384 . S
C798 C800 1.392 . S
C798 H815 0.931 . S
C799 C795 1.393 . S
C799 C800 1.401 . S
C799 H816 0.930 . S
C800 C798 1.392 . S
C800 C799 1.401 . S
C800 H817 0.930 . S
C801 O784 1.262 . S
C801 O785 1.260 . S
C802 Tb738 2.833 . S
C802 O782 1.251 . S
C802 O787 1.256 . S
C802 C795 1.500 . S
C803 H768 0.929 . S
C803 C781 1.444 . S
C803 C804 1.317 . S
C804 H766 0.930 . S
C804 C772 1.432 . S
C804 C803 1.317 . S
C805 O789 1.283 . S
C805 O792 1.243 . S
C806 C807 1.382 . S
C806 C810 1.393 . S
C806 C813 1.500 . S
C807 C806 1.382 . S
C807 C808 1.400 . S
C807 H818 0.930 . S
C808 C807 1.400 . S
C808 C809 1.384 . S
C809 C808 1.384 . S
C809 C811 1.392 . S
C809 H819 0.931 . S
C810 C806 1.393 . S
C810 C811 1.401 . S
C810 H820 0.930 . S
C811 C809 1.392 . S
C811 C810 1.401 . S
C811 H821 0.930 . S
C812 O790 1.262 . S
C812 O791 1.260 . S
C813 Tb749 2.833 . S
C813 O788 1.251 . S
C813 O793 1.256 . S
C813 C806 1.500 . S
H814 C797 0.930 . S
H815 C798 0.931 . S
H816 C799 0.930 . S
H817 C800 0.930 . S
H818 C807 0.930 . S
H819 C809 0.931 . S
H820 C810 0.930 . S
H821 C811 0.930 . S
Tb822 N853 2.660 . S
Tb822 N860 2.600 . S
Tb822 O866 2.546 . S
Tb822 O867 2.610 . S
Tb822 O869 2.320 . S
Tb822 O870 2.552 . S
Tb822 O871 2.413 . S
Tb822 O873 2.362 . S
Tb822 O874 2.421 . S
Tb822 C886 2.833 . S
C823 C826 1.432 . S
C823 C827 1.414 . S
C823 N830 1.359 . S
C824 C826 1.417 . S
C824 C828 1.432 . S
C824 C836 1.410 . S
C825 C827 1.444 . S
C825 C828 1.317 . S
C825 H848 0.929 . S
C826 C823 1.432 . S
C826 C824 1.417 . S
C826 N834 1.360 . S
C827 C823 1.414 . S
C827 C825 1.444 . S
C827 C832 1.385 . S
C828 C824 1.432 . S
C828 C825 1.317 . S
C828 H840 0.930 . S
C829 C831 1.392 . S
C829 C832 1.370 . S
C829 H841 0.931 . S
N830 C823 1.359 . S
N830 C831 1.327 . S
N830 Tb833 2.600 . S
C831 C829 1.392 . S
C831 N830 1.327 . S
C831 H838 0.930 . S
C832 C827 1.385 . S
C832 C829 1.370 . S
C832 H851 0.930 . S
Tb833 N830 2.600 . S
Tb833 N834 2.660 . S
Tb833 O867 2.362 . S
Tb833 O868 2.421 . S
Tb833 O872 2.546 . S
Tb833 O873 2.610 . S
Tb833 O875 2.320 . S
Tb833 O876 2.552 . S
Tb833 O877 2.413 . S
Tb833 C897 2.833 . S
N834 C826 1.360 . S
N834 Tb833 2.660 . S
N834 C835 1.305 . S
C835 N834 1.305 . S
C835 C837 1.407 . S
C835 H842 0.930 . S
C836 C824 1.410 . S
C836 C837 1.345 . S
C836 H844 0.930 . S
C837 C835 1.407 . S
C837 C836 1.345 . S
C837 H839 0.930 . S
H838 C831 0.930 . S
H839 C837 0.930 . S
H840 C828 0.930 . S
H841 C829 0.931 . S
H842 C835 0.930 . S
H843 C857 0.930 . S
H844 C836 0.930 . S
H845 C863 0.930 . S
H846 C854 0.930 . S
H847 C861 0.931 . S
H848 C825 0.929 . S
H849 C855 0.930 . S
H850 C888 0.930 . S
H851 C832 0.930 . S
H852 C887 0.929 . S
N853 Tb822 2.660 . S
N853 C854 1.305 . S
N853 C858 1.360 . S
C854 H846 0.930 . S
C854 N853 1.305 . S
C854 C857 1.407 . S
C855 H849 0.930 . S
C855 C856 1.410 . S
C855 C857 1.345 . S
C856 C855 1.410 . S
C856 C858 1.417 . S
C856 C888 1.432 . S
C857 H843 0.930 . S
C857 C854 1.407 . S
C857 C855 1.345 . S
C858 N853 1.360 . S
C858 C856 1.417 . S
C858 C862 1.432 . S
H859 C864 0.930 . S
N860 Tb822 2.600 . S
N860 C862 1.359 . S
N860 C863 1.327 . S
C861 H847 0.931 . S
C861 C863 1.392 . S
C861 C864 1.370 . S
C862 C858 1.432 . S
C862 N860 1.359 . S
C862 C865 1.414 . S
C863 H845 0.930 . S
C863 N860 1.327 . S
C863 C861 1.392 . S
C864 H859 0.930 . S
C864 C861 1.370 . S
C864 C865 1.385 . S
C865 C862 1.414 . S
C865 C864 1.385 . S
C865 C887 1.444 . S
O866 Tb822 2.546 . S
O866 C886 1.251 . S
O867 Tb822 2.610 . S
O867 Tb833 2.362 . S
O867 C878 1.283 . S
O868 Tb833 2.421 . S
O868 C885 1.262 . S
O869 Tb822 2.320 . S
O869 C885 1.260 . S
O870 Tb822 2.552 . S
O870 C878 1.243 . S
O871 Tb822 2.413 . S
O871 C886 1.256 . S
O872 Tb833 2.546 . S
O872 C897 1.251 . S
O873 Tb822 2.362 . S
O873 Tb833 2.610 . S
O873 C889 1.283 . S
O874 Tb822 2.421 . S
O874 C896 1.262 . S
O875 Tb833 2.320 . S
O875 C896 1.260 . S
O876 Tb833 2.552 . S
O876 C889 1.243 . S
O877 Tb833 2.413 . S
O877 C897 1.256 . S
C878 O867 1.283 . S
C878 O870 1.243 . S
C879 C881 1.382 . S
C879 C883 1.393 . S
C879 C886 1.500 . S
C880 C881 1.400 . S
C880 C882 1.384 . S
C881 C879 1.382 . S
C881 C880 1.400 . S
C881 H898 0.930 . S
C882 C880 1.384 . S
C882 C884 1.392 . S
C882 H899 0.931 . S
C883 C879 1.393 . S
C883 C884 1.401 . S
C883 H900 0.930 . S
C884 C882 1.392 . S
C884 C883 1.401 . S
C884 H901 0.930 . S
C885 O868 1.262 . S
C885 O869 1.260 . S
C886 Tb822 2.833 . S
C886 O866 1.251 . S
C886 O871 1.256 . S
C886 C879 1.500 . S
C887 H852 0.929 . S
C887 C865 1.444 . S
C887 C888 1.317 . S
C888 H850 0.930 . S
C888 C856 1.432 . S
C888 C887 1.317 . S
C889 O873 1.283 . S
C889 O876 1.243 . S
C890 C891 1.382 . S
C890 C894 1.393 . S
C890 C897 1.500 . S
C891 C890 1.382 . S
C891 C892 1.400 . S
C891 H902 0.930 . S
C892 C891 1.400 . S
C892 C893 1.384 . S
C893 C892 1.384 . S
C893 C895 1.392 . S
C893 H903 0.931 . S
C894 C890 1.393 . S
C894 C895 1.401 . S
C894 H904 0.930 . S
C895 C893 1.392 . S
C895 C894 1.401 . S
C895 H905 0.930 . S
C896 O874 1.262 . S
C896 O875 1.260 . S
C897 Tb833 2.833 . S
C897 O872 1.251 . S
C897 O877 1.256 . S
C897 C890 1.500 . S
H898 C881 0.930 . S
H899 C882 0.931 . S
H900 C883 0.930 . S
H901 C884 0.930 . S
H902 C891 0.930 . S
H903 C893 0.931 . S
H904 C894 0.930 . S
H905 C895 0.930 . S
Tb906 N937 2.660 . S
Tb906 N944 2.600 . S
Tb906 O950 2.546 . S
Tb906 O951 2.610 . S
Tb906 O953 2.320 . S
Tb906 O954 2.552 . S
Tb906 O955 2.413 . S
Tb906 O957 2.362 . S
Tb906 O958 2.421 . S
Tb906 C970 2.833 . S
C907 C910 1.432 . S
C907 C911 1.414 . S
C907 N914 1.359 . S
C908 C910 1.417 . S
C908 C912 1.432 . S
C908 C920 1.410 . S
C909 C911 1.444 . S
C909 C912 1.317 . S
C909 H932 0.929 . S
C910 C907 1.432 . S
C910 C908 1.417 . S
C910 N918 1.360 . S
C911 C907 1.414 . S
C911 C909 1.444 . S
C911 C916 1.385 . S
C912 C908 1.432 . S
C912 C909 1.317 . S
C912 H924 0.930 . S
C913 C915 1.392 . S
C913 C916 1.370 . S
C913 H925 0.931 . S
N914 C907 1.359 . S
N914 C915 1.327 . S
N914 Tb917 2.600 . S
C915 C913 1.392 . S
C915 N914 1.327 . S
C915 H922 0.930 . S
C916 C911 1.385 . S
C916 C913 1.370 . S
C916 H935 0.930 . S
Tb917 N914 2.600 . S
Tb917 N918 2.660 . S
Tb917 O951 2.362 . S
Tb917 O952 2.421 . S
Tb917 O956 2.546 . S
Tb917 O957 2.610 . S
Tb917 O959 2.320 . S
Tb917 O960 2.552 . S
Tb917 O961 2.413 . S
Tb917 C981 2.833 . S
N918 C910 1.360 . S
N918 Tb917 2.660 . S
N918 C919 1.305 . S
C919 N918 1.305 . S
C919 C921 1.407 . S
C919 H926 0.930 . S
C920 C908 1.410 . S
C920 C921 1.345 . S
C920 H928 0.930 . S
C921 C919 1.407 . S
C921 C920 1.345 . S
C921 H923 0.930 . S
H922 C915 0.930 . S
H923 C921 0.930 . S
H924 C912 0.930 . S
H925 C913 0.931 . S
H926 C919 0.930 . S
H927 C941 0.930 1_455 S
H928 C920 0.930 . S
H929 C947 0.930 . S
H930 C938 0.930 . S
H931 C945 0.931 1_565 S
H932 C909 0.929 . S
H933 C939 0.930 . S
H934 C972 0.930 . S
H935 C916 0.930 . S
H936 C971 0.929 . S
N937 Tb906 2.660 . S
N937 C938 1.305 . S
N937 C942 1.360 . S
C938 H930 0.930 . S
C938 N937 1.305 . S
C938 C941 1.407 . S
C939 H933 0.930 . S
C939 C940 1.410 1_455 S
C939 C941 1.345 1_455 S
C940 C939 1.410 1_655 S
C940 C942 1.417 . S
C940 C972 1.432 1_655 S
C941 H927 0.930 1_655 S
C941 C938 1.407 . S
C941 C939 1.345 1_655 S
C942 N937 1.360 . S
C942 C940 1.417 . S
C942 C946 1.432 . S
H943 C948 0.930 . S
N944 Tb906 2.600 . S
N944 C946 1.359 . S
N944 C947 1.327 . S
C945 H931 0.931 1_545 S
C945 C947 1.392 . S
C945 C948 1.370 . S
C946 C942 1.432 . S
C946 N944 1.359 . S
C946 C949 1.414 . S
C947 H929 0.930 . S
C947 N944 1.327 . S
C947 C945 1.392 . S
C948 H943 0.930 . S
C948 C945 1.370 . S
C948 C949 1.385 . S
C949 C946 1.414 . S
C949 C948 1.385 . S
C949 C971 1.444 . S
O950 Tb906 2.546 . S
O950 C970 1.251 . S
O951 Tb906 2.610 . S
O951 Tb917 2.362 . S
O951 C962 1.283 . S
O952 Tb917 2.421 . S
O952 C969 1.262 . S
O953 Tb906 2.320 . S
O953 C969 1.260 . S
O954 Tb906 2.552 . S
O954 C962 1.243 . S
O955 Tb906 2.413 . S
O955 C970 1.256 . S
O956 Tb917 2.546 . S
O956 C981 1.251 . S
O957 Tb906 2.362 . S
O957 Tb917 2.610 . S
O957 C973 1.283 . S
O958 Tb906 2.421 . S
O958 C980 1.262 . S
O959 Tb917 2.320 . S
O959 C980 1.260 . S
O960 Tb917 2.552 . S
O960 C973 1.243 . S
O961 Tb917 2.413 . S
O961 C981 1.256 . S
C962 O951 1.283 . S
C962 O954 1.243 . S
C963 C965 1.382 . S
C963 C967 1.393 . S
C963 C970 1.500 . S
C964 C965 1.400 . S
C964 C966 1.384 . S
C965 C963 1.382 . S
C965 C964 1.400 . S
C965 H982 0.930 . S
C966 C964 1.384 . S
C966 C968 1.392 . S
C966 H983 0.931 . S
C967 C963 1.393 . S
C967 C968 1.401 . S
C967 H984 0.930 . S
C968 C966 1.392 . S
C968 C967 1.401 . S
C968 H985 0.930 . S
C969 O952 1.262 . S
C969 O953 1.260 . S
C970 Tb906 2.833 . S
C970 O950 1.251 . S
C970 O955 1.256 . S
C970 C963 1.500 . S
C971 H936 0.929 . S
C971 C949 1.444 . S
C971 C972 1.317 1_655 S
C972 H934 0.930 . S
C972 C940 1.432 1_455 S
C972 C971 1.317 1_455 S
C973 O957 1.283 . S
C973 O960 1.243 . S
C974 C975 1.382 . S
C974 C978 1.393 . S
C974 C981 1.500 . S
C975 C974 1.382 . S
C975 C976 1.400 . S
C975 H986 0.930 . S
C976 C975 1.400 . S
C976 C977 1.384 . S
C977 C976 1.384 . S
C977 C979 1.392 . S
C977 H987 0.931 . S
C978 C974 1.393 . S
C978 C979 1.401 . S
C978 H988 0.930 . S
C979 C977 1.392 . S
C979 C978 1.401 . S
C979 H989 0.930 . S
C980 O958 1.262 . S
C980 O959 1.260 . S
C981 Tb917 2.833 . S
C981 O956 1.251 . S
C981 O961 1.256 . S
C981 C974 1.500 . S
H982 C965 0.930 . S
H983 C966 0.931 . S
H984 C967 0.930 . S
H985 C968 0.930 . S
H986 C975 0.930 . S
H987 C977 0.931 . S
H988 C978 0.930 . S
H989 C979 0.930 . S
C990 C991 1.369 . S
C990 C992 1.419 . S
C990 H994 0.930 . S
C991 C990 1.369 . S
C991 C1000 1.429 . S
C992 C990 1.419 . S
C992 C993 1.363 . S
C992 H995 0.929 . S
C993 C992 1.363 . S
C993 C999 1.428 . S
H994 C990 0.930 . S
H995 C992 0.929 . S
S996 N997 1.613 . S
S996 N998 1.610 . S
N997 S996 1.613 . S
N997 C1000 1.350 . S
N998 S996 1.610 . S
N998 C999 1.351 . S
C999 C993 1.428 . S
C999 N998 1.351 . S
C999 C1000 1.434 . S
C1000 C991 1.429 . S
C1000 N997 1.350 . S
C1000 C999 1.434 . S
C1001 C1002 1.369 . S
C1001 C1003 1.419 . S
C1001 H1005 0.930 . S
C1002 C1001 1.369 . S
C1002 C1011 1.429 . S
C1003 C1001 1.419 . S
C1003 C1004 1.363 . S
C1003 H1006 0.929 . S
C1004 C1003 1.363 . S
C1004 C1010 1.428 . S
H1005 C1001 0.930 . S
H1006 C1003 0.929 . S
S1007 N1008 1.613 . S
S1007 N1009 1.610 . S
N1008 S1007 1.613 . S
N1008 C1011 1.350 . S
N1009 S1007 1.610 . S
N1009 C1010 1.351 . S
C1010 C1004 1.428 . S
C1010 N1009 1.351 . S
C1010 C1011 1.434 . S
C1011 C1002 1.429 . S
C1011 N1008 1.350 . S
C1011 C1010 1.434 . S
C1012 C1013 1.369 . S
C1012 C1014 1.419 . S
C1012 H1016 0.930 . S
C1013 C1012 1.369 . S
C1013 C1022 1.429 . S
C1014 C1012 1.419 . S
C1014 C1015 1.363 . S
C1014 H1017 0.929 . S
C1015 C1014 1.363 . S
C1015 C1021 1.428 . S
H1016 C1012 0.930 . S
H1017 C1014 0.929 . S
S1018 N1019 1.613 . S
S1018 N1020 1.610 . S
N1019 S1018 1.613 . S
N1019 C1022 1.350 . S
N1020 S1018 1.610 . S
N1020 C1021 1.351 . S
C1021 C1015 1.428 . S
C1021 N1020 1.351 . S
C1021 C1022 1.434 . S
C1022 C1013 1.429 . S
C1022 N1019 1.350 . S
C1022 C1021 1.434 . S
C1023 C1024 1.369 . S
C1023 C1025 1.413 1_556 S
C1023 H1027 0.930 1_556 S
C1024 C1023 1.369 . S
C1024 C1033 1.429 . S
C1025 C1023 1.413 1_554 S
C1025 C1026 1.359 1_554 S
C1025 H1028 0.940 . S
C1026 C1025 1.359 1_556 S
C1026 C1032 1.428 . S
H1027 C1023 0.930 1_554 S
H1028 C1025 0.940 . S
S1029 N1030 1.613 . S
S1029 N1031 1.610 . S
N1030 S1029 1.613 . S
N1030 C1033 1.350 . S
N1031 S1029 1.610 . S
N1031 C1032 1.351 . S
C1032 C1026 1.428 . S
C1032 N1031 1.351 . S
C1032 C1033 1.434 . S
C1033 C1024 1.429 . S
C1033 N1030 1.350 . S
C1033 C1032 1.434 . S
C1034 C1035 1.369 1_554 S
C1034 C1036 1.419 . S
C1034 H1038 0.930 . S
C1035 C1034 1.369 1_556 S
C1035 C1044 1.429 . S
C1036 C1034 1.419 . S
C1036 C1037 1.363 . S
C1036 H1039 0.929 . S
C1037 C1036 1.363 . S
C1037 C1043 1.428 1_554 S
H1038 C1034 0.930 . S
H1039 C1036 0.929 . S
S1040 N1041 1.613 . S
S1040 N1042 1.610 . S
N1041 S1040 1.613 . S
N1041 C1044 1.350 . S
N1042 S1040 1.610 . S
N1042 C1043 1.351 . S
C1043 C1037 1.428 1_556 S
C1043 N1042 1.351 . S
C1043 C1044 1.434 . S
C1044 C1035 1.429 . S
C1044 N1041 1.350 . S
C1044 C1043 1.434 . S
C1045 C1046 1.369 . S
C1045 C1047 1.419 . S
C1045 H1049 0.930 . S
C1046 C1045 1.369 . S
C1046 C1055 1.429 1_556 S
C1047 C1045 1.419 . S
C1047 C1048 1.363 . S
C1047 H1050 0.929 . S
C1048 C1047 1.363 . S
C1048 C1054 1.428 1_556 S
H1049 C1045 0.930 . S
H1050 C1047 0.929 . S
S1051 N1052 1.613 . S
S1051 N1053 1.610 . S
N1052 S1051 1.613 . S
N1052 C1055 1.350 . S
N1053 S1051 1.610 . S
N1053 C1054 1.351 . S
C1054 C1048 1.428 1_554 S
C1054 N1053 1.351 . S
C1054 C1055 1.434 . S
C1055 C1046 1.429 1_554 S
C1055 N1052 1.350 . S
C1055 C1054 1.434 . S
C1056 C1057 1.369 . S
C1056 C1058 1.419 . S
C1056 H1060 0.930 . S
C1057 C1056 1.369 . S
C1057 C1066 1.429 . S
C1058 C1056 1.419 . S
C1058 C1059 1.363 . S
C1058 H1061 0.929 1_556 S
C1059 C1058 1.363 . S
C1059 C1065 1.428 . S
H1060 C1056 0.930 . S
H1061 C1058 0.929 1_554 S
S1062 N1063 1.613 . S
S1062 N1064 1.610 . S
N1063 S1062 1.613 . S
N1063 C1066 1.350 . S
N1064 S1062 1.610 . S
N1064 C1065 1.351 . S
C1065 C1059 1.428 . S
C1065 N1064 1.351 . S
C1065 C1066 1.434 . S
C1066 C1057 1.429 . S
C1066 N1063 1.350 . S
C1066 C1065 1.434 . S
C1067 C1068 1.369 . S
C1067 C1069 1.419 . S
C1067 H1071 0.930 . S
C1068 C1067 1.369 . S
C1068 C1077 1.429 . S
C1069 C1067 1.419 . S
C1069 C1070 1.363 . S
C1069 H1072 0.929 . S
C1070 C1069 1.363 . S
C1070 C1076 1.428 . S
H1071 C1067 0.930 . S
H1072 C1069 0.929 . S
S1073 N1074 1.610 . S
S1073 N1075 1.610 . S
N1074 S1073 1.610 . S
N1074 C1077 1.352 1_554 S
N1075 S1073 1.610 . S
N1075 C1076 1.351 1_554 S
C1076 C1070 1.428 . S
C1076 N1075 1.351 1_556 S
C1076 C1077 1.434 . S
C1077 C1068 1.429 . S
C1077 N1074 1.352 1_556 S
C1077 C1076 1.434 . S
C1078 C1079 1.369 1_554 S
C1078 C1080 1.419 . S
C1078 H1082 0.930 . S
C1079 C1078 1.369 1_556 S
C1079 C1088 1.429 . S
C1080 C1078 1.419 . S
C1080 C1081 1.363 . S
C1080 H1083 0.929 . S
C1081 C1080 1.363 . S
C1081 C1087 1.428 1_554 S
H1082 C1078 0.930 . S
H1083 C1080 0.929 . S
S1084 N1085 1.613 . S
S1084 N1086 1.610 . S
N1085 S1084 1.613 . S
N1085 C1088 1.350 . S
N1086 S1084 1.610 . S
N1086 C1087 1.351 . S
C1087 C1081 1.428 1_556 S
C1087 N1086 1.351 . S
C1087 C1088 1.434 . S
C1088 C1079 1.429 . S
C1088 N1085 1.350 . S
C1088 C1087 1.434 . S
C1089 C1090 1.369 . S
C1089 C1091 1.419 . S
C1089 H1093 0.930 . S
C1090 C1089 1.369 . S
C1090 C1099 1.429 . S
C1091 C1089 1.419 . S
C1091 C1092 1.363 . S
C1091 H1094 0.929 . S
C1092 C1091 1.363 . S
C1092 C1098 1.428 . S
H1093 C1089 0.930 . S
H1094 C1091 0.929 . S
S1095 N1096 1.613 . S
S1095 N1097 1.610 . S
N1096 S1095 1.613 . S
N1096 C1099 1.350 . S
N1097 S1095 1.610 . S
N1097 C1098 1.351 . S
C1098 C1092 1.428 . S
C1098 N1097 1.351 . S
C1098 C1099 1.434 . S
C1099 C1090 1.429 . S
C1099 N1096 1.350 . S
C1099 C1098 1.434 . S
C1100 C1101 1.369 . S
C1100 C1102 1.419 . S
C1100 H1104 0.930 . S
C1101 C1100 1.369 . S
C1101 C1110 1.429 . S
C1102 C1100 1.419 . S
C1102 C1103 1.363 . S
C1102 H1105 0.929 . S
C1103 C1102 1.363 . S
C1103 C1109 1.428 . S
H1104 C1100 0.930 . S
H1105 C1102 0.929 . S
S1106 N1107 1.613 . S
S1106 N1108 1.610 . S
N1107 S1106 1.613 . S
N1107 C1110 1.350 . S
N1108 S1106 1.610 . S
N1108 C1109 1.351 . S
C1109 C1103 1.428 . S
C1109 N1108 1.351 . S
C1109 C1110 1.434 . S
C1110 C1101 1.429 . S
C1110 N1107 1.350 . S
C1110 C1109 1.434 . S
C1111 C1112 1.369 . S
C1111 C1113 1.419 . S
C1111 H1115 0.930 . S
C1112 C1111 1.369 . S
C1112 C1121 1.429 . S
C1113 C1111 1.419 . S
C1113 C1114 1.363 . S
C1113 H1116 0.929 . S
C1114 C1113 1.363 . S
C1114 C1120 1.428 . S
H1115 C1111 0.930 . S
H1116 C1113 0.929 . S
S1117 N1118 1.613 . S
S1117 N1119 1.610 . S
N1118 S1117 1.613 . S
N1118 C1121 1.350 . S
N1119 S1117 1.610 . S
N1119 C1120 1.351 . S
C1120 C1114 1.428 . S
C1120 N1119 1.351 . S
C1120 C1121 1.434 . S
C1121 C1112 1.429 . S
C1121 N1118 1.350 . S
C1121 C1120 1.434 . S
C1122 C1123 1.369 . S
C1122 C1124 1.419 1_655 S
C1122 H1126 0.930 . S
C1123 C1122 1.369 . S
C1123 C1132 1.429 . S
C1124 C1122 1.419 1_455 S
C1124 C1125 1.363 . S
C1124 H1127 0.929 . S
C1125 C1124 1.363 . S
C1125 C1131 1.428 . S
H1126 C1122 0.930 . S
H1127 C1124 0.929 . S
S1128 N1129 1.613 . S
S1128 N1130 1.610 1_655 S
N1129 S1128 1.613 . S
N1129 C1132 1.350 . S
N1130 S1128 1.610 1_455 S
N1130 C1131 1.351 . S
C1131 C1125 1.428 . S
C1131 N1130 1.351 . S
C1131 C1132 1.434 1_455 S
C1132 C1123 1.429 . S
C1132 N1129 1.350 . S
C1132 C1131 1.434 1_655 S
C1133 C1134 1.369 . S
C1133 C1135 1.419 . S
C1133 H1137 0.930 . S
C1134 C1133 1.369 . S
C1134 C1143 1.429 . S
C1135 C1133 1.419 . S
C1135 C1136 1.363 . S
C1135 H1138 0.929 . S
C1136 C1135 1.363 . S
C1136 C1142 1.428 . S
H1137 C1133 0.930 . S
H1138 C1135 0.929 . S
S1139 N1140 1.613 . S
S1139 N1141 1.610 . S
N1140 S1139 1.613 . S
N1140 C1143 1.350 . S
N1141 S1139 1.610 . S
N1141 C1142 1.351 . S
C1142 C1136 1.428 . S
C1142 N1141 1.351 . S
C1142 C1143 1.434 . S
C1143 C1134 1.429 . S
C1143 N1140 1.350 . S
C1143 C1142 1.434 . S
C1144 C1145 1.369 1_565 S
C1144 C1146 1.419 . S
C1144 H1148 0.930 . S
C1145 C1144 1.369 1_545 S
C1145 C1154 1.429 . S
C1146 C1144 1.419 . S
C1146 C1147 1.363 . S
C1146 H1149 0.929 . S
C1147 C1146 1.363 . S
C1147 C1153 1.428 . S
H1148 C1144 0.930 . S
H1149 C1146 0.929 . S
S1150 N1151 1.613 . S
S1150 N1152 1.610 1_545 S
N1151 S1150 1.613 . S
N1151 C1154 1.350 . S
N1152 S1150 1.610 1_565 S
N1152 C1153 1.351 . S
C1153 C1147 1.428 . S
C1153 N1152 1.351 . S
C1153 C1154 1.434 1_565 S
C1154 C1145 1.429 . S
C1154 N1151 1.350 . S
C1154 C1153 1.434 1_545 S
C1155 C1156 1.369 . S
C1155 C1157 1.419 . S
C1155 H1159 0.930 . S
C1156 C1155 1.369 . S
C1156 C1165 1.429 . S
C1157 C1155 1.419 . S
C1157 C1158 1.363 . S
C1157 H1160 0.929 . S
C1158 C1157 1.363 . S
C1158 C1164 1.428 . S
H1159 C1155 0.930 . S
H1160 C1157 0.929 . S
S1161 N1162 1.613 . S
S1161 N1163 1.610 . S
N1162 S1161 1.613 . S
N1162 C1165 1.350 . S
N1163 S1161 1.610 . S
N1163 C1164 1.351 . S
C1164 C1158 1.428 . S
C1164 N1163 1.351 . S
C1164 C1165 1.434 . S
C1165 C1156 1.429 . S
C1165 N1162 1.350 . S
C1165 C1164 1.434 . S
C1166 C1167 1.369 . S
C1166 C1168 1.419 . S
C1166 H1170 0.930 . S
C1167 C1166 1.369 . S
C1167 C1176 1.429 . S
C1168 C1166 1.419 . S
C1168 C1169 1.363 . S
C1168 H1171 0.929 . S
C1169 C1168 1.363 . S
C1169 C1175 1.428 . S
H1170 C1166 0.930 . S
H1171 C1168 0.929 . S
S1172 N1173 1.613 . S
S1172 N1174 1.610 . S
N1173 S1172 1.613 . S
N1173 C1176 1.350 . S
N1174 S1172 1.610 . S
N1174 C1175 1.351 . S
C1175 C1169 1.428 . S
C1175 N1174 1.351 . S
C1175 C1176 1.434 . S
C1176 C1167 1.429 . S
C1176 N1173 1.350 . S
C1176 C1175 1.434 . S
C1177 C1178 1.369 . S
C1177 C1179 1.419 . S
C1177 H1181 0.930 . S
C1178 C1177 1.369 . S
C1178 C1187 1.429 . S
C1179 C1177 1.419 . S
C1179 C1180 1.363 . S
C1179 H1182 0.929 . S
C1180 C1179 1.363 . S
C1180 C1186 1.428 . S
H1181 C1177 0.930 . S
H1182 C1179 0.929 . S
S1183 N1184 1.613 . S
S1183 N1185 1.610 . S
N1184 S1183 1.613 . S
N1184 C1187 1.350 . S
N1185 S1183 1.610 . S
N1185 C1186 1.351 . S
C1186 C1180 1.428 . S
C1186 N1185 1.351 . S
C1186 C1187 1.434 . S
C1187 C1178 1.429 . S
C1187 N1184 1.350 . S
C1187 C1186 1.434 . S
C1188 C1189 1.369 . S
C1188 C1190 1.419 . S
C1188 H1192 0.930 . S
C1189 C1188 1.369 . S
C1189 C1198 1.429 . S
C1190 C1188 1.419 . S
C1190 C1191 1.363 . S
C1190 H1193 0.929 . S
C1191 C1190 1.363 . S
C1191 C1197 1.428 . S
H1192 C1188 0.930 . S
H1193 C1190 0.929 . S
S1194 N1195 1.613 . S
S1194 N1196 1.610 . S
N1195 S1194 1.613 . S
N1195 C1198 1.350 . S
N1196 S1194 1.610 . S
N1196 C1197 1.351 . S
C1197 C1191 1.428 . S
C1197 N1196 1.351 . S
C1197 C1198 1.434 . S
C1198 C1189 1.429 . S
C1198 N1195 1.350 . S
C1198 C1197 1.434 . S
C1199 C1200 1.369 . S
C1199 C1201 1.419 . S
C1199 H1203 0.930 . S
C1200 C1199 1.369 . S
C1200 C1209 1.429 . S
C1201 C1199 1.419 . S
C1201 C1202 1.363 . S
C1201 H1204 0.929 . S
C1202 C1201 1.363 . S
C1202 C1208 1.428 . S
H1203 C1199 0.930 . S
H1204 C1201 0.929 . S
S1205 N1206 1.613 . S
S1205 N1207 1.610 . S
N1206 S1205 1.613 . S
N1206 C1209 1.350 . S
N1207 S1205 1.610 . S
N1207 C1208 1.351 . S
C1208 C1202 1.428 . S
C1208 N1207 1.351 . S
C1208 C1209 1.434 . S
C1209 C1200 1.429 . S
C1209 N1206 1.350 . S
C1209 C1208 1.434 . S
C1210 C1211 1.369 . S
C1210 C1212 1.419 . S
C1210 H1214 0.930 . S
C1211 C1210 1.369 . S
C1211 C1220 1.429 . S
C1212 C1210 1.419 . S
C1212 C1213 1.363 . S
C1212 H1215 0.929 . S
C1213 C1212 1.363 . S
C1213 C1219 1.428 . S
H1214 C1210 0.930 . S
H1215 C1212 0.929 . S
S1216 N1217 1.613 . S
S1216 N1218 1.610 . S
N1217 S1216 1.613 . S
N1217 C1220 1.350 . S
N1218 S1216 1.610 . S
N1218 C1219 1.351 . S
C1219 C1213 1.428 . S
C1219 N1218 1.351 . S
C1219 C1220 1.434 . S
C1220 C1211 1.429 . S
C1220 N1217 1.350 . S
C1220 C1219 1.434 . S
C1221 C1222 1.369 . S
C1221 C1223 1.419 1_545 S
C1221 H1225 0.930 . S
C1222 C1221 1.369 . S
C1222 C1231 1.429 . S
C1223 C1221 1.419 1_565 S
C1223 C1224 1.363 . S
C1223 H1226 0.929 . S
C1224 C1223 1.363 . S
C1224 C1230 1.428 1_565 S
H1225 C1221 0.930 . S
H1226 C1223 0.929 . S
S1227 N1228 1.613 . S
S1227 N1229 1.610 . S
N1228 S1227 1.613 . S
N1228 C1231 1.350 . S
N1229 S1227 1.610 . S
N1229 C1230 1.351 . S
C1230 C1224 1.428 1_545 S
C1230 N1229 1.351 . S
C1230 C1231 1.434 . S
C1231 C1222 1.429 . S
C1231 N1228 1.350 . S
C1231 C1230 1.434 . S
C1232 C1233 1.369 1_455 S
C1232 C1234 1.419 . S
C1232 H1236 0.930 . S
C1233 C1232 1.369 1_655 S
C1233 C1242 1.429 . S
C1234 C1232 1.419 . S
C1234 C1235 1.363 . S
C1234 H1237 0.929 . S
C1235 C1234 1.363 . S
C1235 C1241 1.428 . S
H1236 C1232 0.930 . S
H1237 C1234 0.929 . S
S1238 N1239 1.613 . S
S1238 N1240 1.610 . S
N1239 S1238 1.613 . S
N1239 C1242 1.350 . S
N1240 S1238 1.610 . S
N1240 C1241 1.351 1_655 S
C1241 C1235 1.428 . S
C1241 N1240 1.351 1_455 S
C1241 C1242 1.434 1_455 S
C1242 C1233 1.429 . S
C1242 N1239 1.350 . S
C1242 C1241 1.434 1_655 S
C1243 C1244 1.369 . S
C1243 C1245 1.419 . S
C1243 H1247 0.930 . S
C1244 C1243 1.369 . S
C1244 C1253 1.429 . S
C1245 C1243 1.419 . S
C1245 C1246 1.363 . S
C1245 H1248 0.929 . S
C1246 C1245 1.363 . S
C1246 C1252 1.428 . S
H1247 C1243 0.930 . S
H1248 C1245 0.929 . S
S1249 N1250 1.613 . S
S1249 N1251 1.610 . S
N1250 S1249 1.613 . S
N1250 C1253 1.350 . S
N1251 S1249 1.610 . S
N1251 C1252 1.351 . S
C1252 C1246 1.428 . S
C1252 N1251 1.351 . S
C1252 C1253 1.434 . S
C1253 C1244 1.429 . S
C1253 N1250 1.350 . S
C1253 C1252 1.434 . S
C1254 C1255 1.369 . S
C1254 C1256 1.419 . S
C1254 H1258 0.930 . S
C1255 C1254 1.369 . S
C1255 C1264 1.429 . S
C1256 C1254 1.419 . S
C1256 C1257 1.363 . S
C1256 H1259 0.929 . S
C1257 C1256 1.363 . S
C1257 C1263 1.428 . S
H1258 C1254 0.930 . S
H1259 C1256 0.929 . S
S1260 N1261 1.613 . S
S1260 N1262 1.610 . S
N1261 S1260 1.613 . S
N1261 C1264 1.350 . S
N1262 S1260 1.610 . S
N1262 C1263 1.351 . S
C1263 C1257 1.428 . S
C1263 N1262 1.351 . S
C1263 C1264 1.434 . S
C1264 C1255 1.429 . S
C1264 N1261 1.350 . S
C1264 C1263 1.434 . S
C1265 C1266 1.369 . S
C1265 C1267 1.419 . S
C1265 H1269 0.930 . S
C1266 C1265 1.369 . S
C1266 C1275 1.429 . S
C1267 C1265 1.419 . S
C1267 C1268 1.363 . S
C1267 H1270 0.929 . S
C1268 C1267 1.363 . S
C1268 C1274 1.428 . S
H1269 C1265 0.930 . S
H1270 C1267 0.929 . S
S1271 N1272 1.613 . S
S1271 N1273 1.610 . S
N1272 S1271 1.613 . S
N1272 C1275 1.350 . S
N1273 S1271 1.610 . S
N1273 C1274 1.351 . S
C1274 C1268 1.428 . S
C1274 N1273 1.351 . S
C1274 C1275 1.434 . S
C1275 C1266 1.429 . S
C1275 N1272 1.350 . S
C1275 C1274 1.434 . S
C1276 C1277 1.369 . S
C1276 C1278 1.419 . S
C1276 H1280 0.930 . S
C1277 C1276 1.369 . S
C1277 C1286 1.429 . S
C1278 C1276 1.419 . S
C1278 C1279 1.363 . S
C1278 H1281 0.929 . S
C1279 C1278 1.363 . S
C1279 C1285 1.428 . S
H1280 C1276 0.930 . S
H1281 C1278 0.929 . S
S1282 N1283 1.613 . S
S1282 N1284 1.610 . S
N1283 S1282 1.613 . S
N1283 C1286 1.350 . S
N1284 S1282 1.610 . S
N1284 C1285 1.351 . S
C1285 C1279 1.428 . S
C1285 N1284 1.351 . S
C1285 C1286 1.434 . S
C1286 C1277 1.429 . S
C1286 N1283 1.350 . S
C1286 C1285 1.434 . S
C1287 C1288 1.369 1_545 S
C1287 C1289 1.421 . S
C1287 H1291 0.927 1_545 S
C1288 C1287 1.369 1_565 S
C1288 C1297 1.429 1_565 S
C1289 C1287 1.421 . S
C1289 C1290 1.363 . S
C1289 H1292 0.929 . S
C1290 C1289 1.363 . S
C1290 C1296 1.428 . S
H1291 C1287 0.927 1_565 S
H1292 C1289 0.929 . S
S1293 N1294 1.613 1_545 S
S1293 N1295 1.610 . S
N1294 S1293 1.613 1_565 S
N1294 C1297 1.350 1_565 S
N1295 S1293 1.610 . S
N1295 C1296 1.351 . S
C1296 C1290 1.428 . S
C1296 N1295 1.351 . S
C1296 C1297 1.434 . S
C1297 C1288 1.429 1_545 S
C1297 N1294 1.350 1_545 S
C1297 C1296 1.434 . S
C1298 C1299 1.369 . S
C1298 C1300 1.419 . S
C1298 H1302 0.930 . S
C1299 C1298 1.369 . S
C1299 C1308 1.429 . S
C1300 C1298 1.419 . S
C1300 C1301 1.363 . S
C1300 H1303 0.929 . S
C1301 C1300 1.363 . S
C1301 C1307 1.428 . S
H1302 C1298 0.930 . S
H1303 C1300 0.929 . S
S1304 N1305 1.613 . S
S1304 N1306 1.610 . S
N1305 S1304 1.613 . S
N1305 C1308 1.350 . S
N1306 S1304 1.610 . S
N1306 C1307 1.351 . S
C1307 C1301 1.428 . S
C1307 N1306 1.351 . S
C1307 C1308 1.434 . S
C1308 C1299 1.429 . S
C1308 N1305 1.350 . S
C1308 C1307 1.434 . S
C1309 C1310 1.369 . S
C1309 C1311 1.419 . S
C1309 H1313 0.930 . S
C1310 C1309 1.369 . S
C1310 C1319 1.429 . S
C1311 C1309 1.419 . S
C1311 C1312 1.363 . S
C1311 H1314 0.929 . S
C1312 C1311 1.363 . S
C1312 C1318 1.428 . S
H1313 C1309 0.930 . S
H1314 C1311 0.929 . S
S1315 N1316 1.613 . S
S1315 N1317 1.610 . S
N1316 S1315 1.613 . S
N1316 C1319 1.350 . S
N1317 S1315 1.610 . S
N1317 C1318 1.351 . S
C1318 C1312 1.428 . S
C1318 N1317 1.351 . S
C1318 C1319 1.434 . S
C1319 C1310 1.429 . S
C1319 N1316 1.350 . S
C1319 C1318 1.434 . S
C1320 C1321 1.369 . S
C1320 C1322 1.419 . S
C1320 H1324 0.930 . S
C1321 C1320 1.369 . S
C1321 C1330 1.429 . S
C1322 C1320 1.419 . S
C1322 C1323 1.363 1_455 S
C1322 H1325 0.929 . S
C1323 C1322 1.363 1_655 S
C1323 C1329 1.428 . S
H1324 C1320 0.930 . S
H1325 C1322 0.929 . S
S1326 N1327 1.613 1_655 S
S1326 N1328 1.610 . S
N1327 S1326 1.613 1_455 S
N1327 C1330 1.350 . S
N1328 S1326 1.610 . S
N1328 C1329 1.351 . S
C1329 C1323 1.428 . S
C1329 N1328 1.351 . S
C1329 C1330 1.434 1_655 S
C1330 C1321 1.429 . S
C1330 N1327 1.350 . S
C1330 C1329 1.434 1_455 S
C1331 C1332 1.369 . S
C1331 C1333 1.419 . S
C1331 H1335 0.930 . S
C1332 C1331 1.369 . S
C1332 C1341 1.429 . S
C1333 C1331 1.419 . S
C1333 C1334 1.363 . S
C1333 H1336 0.929 . S
C1334 C1333 1.363 . S
C1334 C1340 1.428 . S
H1335 C1331 0.930 . S
H1336 C1333 0.929 . S
S1337 N1338 1.613 . S
S1337 N1339 1.610 . S
N1338 S1337 1.613 . S
N1338 C1341 1.350 . S
N1339 S1337 1.610 . S
N1339 C1340 1.351 . S
C1340 C1334 1.428 . S
C1340 N1339 1.351 . S
C1340 C1341 1.434 . S
C1341 C1332 1.429 . S
C1341 N1338 1.350 . S
C1341 C1340 1.434 . S
C1342 C1343 1.369 . S
C1342 C1344 1.419 1_565 S
C1342 H1346 0.930 . S
C1343 C1342 1.369 . S
C1343 C1352 1.429 . S
C1344 C1342 1.419 1_545 S
C1344 C1345 1.363 . S
C1344 H1347 0.929 . S
C1345 C1344 1.363 . S
C1345 C1351 1.416 1_545 S
H1346 C1342 0.930 . S
H1347 C1344 0.929 . S
S1348 N1349 1.613 . S
S1348 N1350 1.610 . S
N1349 S1348 1.613 . S
N1349 C1352 1.350 . S
N1350 S1348 1.610 . S
N1350 C1351 1.340 . S
C1351 C1345 1.416 1_565 S
C1351 N1350 1.340 . S
C1351 C1352 1.460 . S
C1352 C1343 1.429 . S
C1352 N1349 1.350 . S
C1352 C1351 1.460 . S
C1353 C1354 1.369 . S
C1353 C1355 1.419 . S
C1353 H1357 0.930 . S
C1354 C1353 1.369 . S
C1354 C1363 1.429 . S
C1355 C1353 1.419 . S
C1355 C1356 1.363 . S
C1355 H1358 0.929 . S
C1356 C1355 1.363 . S
C1356 C1362 1.428 . S
H1357 C1353 0.930 . S
H1358 C1355 0.929 . S
S1359 N1360 1.613 . S
S1359 N1361 1.610 . S
N1360 S1359 1.613 . S
N1360 C1363 1.350 . S
N1361 S1359 1.610 . S
N1361 C1362 1.351 . S
C1362 C1356 1.428 . S
C1362 N1361 1.351 . S
C1362 C1363 1.434 . S
C1363 C1354 1.429 . S
C1363 N1360 1.350 . S
C1363 C1362 1.434 . S
C1364 C1365 1.369 . S
C1364 C1366 1.419 . S
C1364 H1368 0.930 . S
C1365 C1364 1.369 . S
C1365 C1374 1.429 . S
C1366 C1364 1.419 . S
C1366 C1367 1.363 . S
C1366 H1369 0.929 . S
C1367 C1366 1.363 . S
C1367 C1373 1.428 . S
H1368 C1364 0.930 . S
H1369 C1366 0.929 . S
S1370 N1371 1.613 . S
S1370 N1372 1.610 . S
N1371 S1370 1.613 . S
N1371 C1374 1.350 . S
N1372 S1370 1.610 . S
N1372 C1373 1.351 . S
C1373 C1367 1.428 . S
C1373 N1372 1.351 . S
C1373 C1374 1.434 . S
C1374 C1365 1.429 . S
C1374 N1371 1.350 . S
C1374 C1373 1.434 . S
C1375 C1376 1.369 . S
C1375 C1377 1.419 . S
C1375 H1379 0.930 . S
C1376 C1375 1.369 . S
C1376 C1385 1.429 . S
C1377 C1375 1.419 . S
C1377 C1378 1.363 . S
C1377 H1380 0.929 . S
C1378 C1377 1.363 . S
C1378 C1384 1.428 . S
H1379 C1375 0.930 . S
H1380 C1377 0.929 . S
S1381 N1382 1.613 1_455 S
S1381 N1383 1.610 1_455 S
N1382 S1381 1.613 1_655 S
N1382 C1385 1.350 . S
N1383 S1381 1.610 1_655 S
N1383 C1384 1.351 . S
C1384 C1378 1.428 . S
C1384 N1383 1.351 . S
C1384 C1385 1.434 . S
C1385 C1376 1.429 . S
C1385 N1382 1.350 . S
C1385 C1384 1.434 . S
C1386 C1387 1.369 . S
C1386 C1388 1.419 . S
C1386 H1390 0.930 . S
C1387 C1386 1.369 . S
C1387 C1396 1.429 . S
C1388 C1386 1.419 . S
C1388 C1389 1.363 . S
C1388 H1391 0.929 . S
C1389 C1388 1.363 . S
C1389 C1395 1.428 . S
H1390 C1386 0.930 . S
H1391 C1388 0.929 . S
S1392 N1393 1.613 . S
S1392 N1394 1.610 . S
N1393 S1392 1.613 . S
N1393 C1396 1.350 . S
N1394 S1392 1.610 . S
N1394 C1395 1.351 . S
C1395 C1389 1.428 . S
C1395 N1394 1.351 . S
C1395 C1396 1.434 . S
C1396 C1387 1.429 . S
C1396 N1393 1.350 . S
C1396 C1395 1.434 . S
C1397 C1398 1.369 . S
C1397 C1399 1.419 . S
C1397 H1401 0.930 . S
C1398 C1397 1.369 . S
C1398 C1407 1.429 . S
C1399 C1397 1.419 . S
C1399 C1400 1.363 . S
C1399 H1402 0.929 . S
C1400 C1399 1.363 . S
C1400 C1406 1.428 . S
H1401 C1397 0.930 . S
H1402 C1399 0.929 . S
S1403 N1404 1.613 . S
S1403 N1405 1.610 . S
N1404 S1403 1.613 . S
N1404 C1407 1.350 1_655 S
N1405 S1403 1.610 . S
N1405 C1406 1.351 1_655 S
C1406 C1400 1.428 . S
C1406 N1405 1.351 1_455 S
C1406 C1407 1.434 . S
C1407 C1398 1.429 . S
C1407 N1404 1.350 1_455 S
C1407 C1406 1.434 . S
C1408 C1409 1.369 . S
C1408 C1410 1.419 . S
C1408 H1412 0.930 . S
C1409 C1408 1.369 . S
C1409 C1418 1.429 . S
C1410 C1408 1.419 . S
C1410 C1411 1.363 . S
C1410 H1413 0.929 . S
C1411 C1410 1.363 . S
C1411 C1417 1.428 . S
H1412 C1408 0.930 . S
H1413 C1410 0.929 . S
S1414 N1415 1.613 . S
S1414 N1416 1.610 . S
N1415 S1414 1.613 . S
N1415 C1418 1.350 . S
N1416 S1414 1.610 . S
N1416 C1417 1.351 . S
C1417 C1411 1.428 . S
C1417 N1416 1.351 . S
C1417 C1418 1.434 . S
C1418 C1409 1.429 . S
C1418 N1415 1.350 . S
C1418 C1417 1.434 . S
C1419 C1420 1.369 . S
C1419 C1421 1.419 . S
C1419 H1423 0.930 . S
C1420 C1419 1.369 . S
C1420 C1429 1.429 . S
C1421 C1419 1.419 . S
C1421 C1422 1.363 . S
C1421 H1424 0.929 . S
C1422 C1421 1.363 . S
C1422 C1428 1.428 . S
H1423 C1419 0.930 . S
H1424 C1421 0.929 . S
S1425 N1426 1.613 . S
S1425 N1427 1.610 . S
N1426 S1425 1.613 . S
N1426 C1429 1.350 . S
N1427 S1425 1.610 . S
N1427 C1428 1.351 . S
C1428 C1422 1.428 . S
C1428 N1427 1.351 . S
C1428 C1429 1.434 . S
C1429 C1420 1.429 . S
C1429 N1426 1.350 . S
C1429 C1428 1.434 . S
C1430 C1431 1.369 . S
C1430 C1432 1.419 . S
C1430 H1434 0.930 . S
C1431 C1430 1.369 . S
C1431 C1440 1.429 . S
C1432 C1430 1.419 . S
C1432 C1433 1.363 . S
C1432 H1435 0.929 . S
C1433 C1432 1.363 . S
C1433 C1439 1.428 . S
H1434 C1430 0.930 . S
H1435 C1432 0.929 . S
S1436 N1437 1.613 . S
S1436 N1438 1.610 . S
N1437 S1436 1.613 . S
N1437 C1440 1.350 . S
N1438 S1436 1.610 . S
N1438 C1439 1.351 . S
C1439 C1433 1.428 . S
C1439 N1438 1.351 . S
C1439 C1440 1.434 . S
C1440 C1431 1.429 . S
C1440 N1437 1.350 . S
C1440 C1439 1.434 . S
C1441 C1442 1.369 . S
C1441 C1443 1.419 . S
C1441 H1445 0.930 . S
C1442 C1441 1.369 . S
C1442 C1451 1.429 . S
C1443 C1441 1.419 . S
C1443 C1444 1.363 . S
C1443 H1446 0.929 . S
C1444 C1443 1.363 . S
C1444 C1450 1.428 . S
H1445 C1441 0.930 . S
H1446 C1443 0.929 . S
S1447 N1448 1.613 . S
S1447 N1449 1.610 . S
N1448 S1447 1.613 . S
N1448 C1451 1.350 . S
N1449 S1447 1.610 . S
N1449 C1450 1.351 . S
C1450 C1444 1.428 . S
C1450 N1449 1.351 . S
C1450 C1451 1.434 . S
C1451 C1442 1.429 . S
C1451 N1448 1.350 . S
C1451 C1450 1.434 . S
C1452 C1453 1.369 . S
C1452 C1454 1.419 . S
C1452 H1456 0.930 . S
C1453 C1452 1.369 . S
C1453 C1462 1.429 . S
C1454 C1452 1.419 . S
C1454 C1455 1.363 . S
C1454 H1457 0.929 . S
C1455 C1454 1.363 . S
C1455 C1461 1.428 . S
H1456 C1452 0.930 . S
H1457 C1454 0.929 . S
S1458 N1459 1.613 . S
S1458 N1460 1.610 . S
N1459 S1458 1.613 . S
N1459 C1462 1.350 . S
N1460 S1458 1.610 . S
N1460 C1461 1.351 . S
C1461 C1455 1.428 . S
C1461 N1460 1.351 . S
C1461 C1462 1.434 . S
C1462 C1453 1.429 . S
C1462 N1459 1.350 . S
C1462 C1461 1.434 . S
C1463 C1464 1.369 . S
C1463 C1465 1.419 . S
C1463 H1467 0.930 . S
C1464 C1463 1.369 . S
C1464 C1473 1.429 . S
C1465 C1463 1.419 . S
C1465 C1466 1.363 . S
C1465 H1468 0.929 . S
C1466 C1465 1.363 . S
C1466 C1472 1.428 . S
H1467 C1463 0.930 . S
H1468 C1465 0.929 . S
S1469 N1470 1.613 . S
S1469 N1471 1.610 . S
N1470 S1469 1.613 . S
N1470 C1473 1.350 . S
N1471 S1469 1.610 . S
N1471 C1472 1.351 . S
C1472 C1466 1.428 . S
C1472 N1471 1.351 . S
C1472 C1473 1.434 . S
C1473 C1464 1.429 . S
C1473 N1470 1.350 . S
C1473 C1472 1.434 . S
C1474 C1475 1.369 . S
C1474 C1476 1.419 . S
C1474 H1478 0.930 . S
C1475 C1474 1.369 . S
C1475 C1484 1.429 . S
C1476 C1474 1.419 . S
C1476 C1477 1.363 . S
C1476 H1479 0.929 . S
C1477 C1476 1.363 . S
C1477 C1483 1.428 . S
H1478 C1474 0.930 . S
H1479 C1476 0.929 . S
S1480 N1481 1.613 . S
S1480 N1482 1.610 . S
N1481 S1480 1.613 . S
N1481 C1484 1.350 . S
N1482 S1480 1.610 . S
N1482 C1483 1.351 . S
C1483 C1477 1.428 . S
C1483 N1482 1.351 . S
C1483 C1484 1.434 . S
C1484 C1475 1.429 . S
C1484 N1481 1.350 . S
C1484 C1483 1.434 . S
C1485 C1486 1.369 . S
C1485 C1487 1.419 . S
C1485 H1489 0.930 . S
C1486 C1485 1.369 . S
C1486 C1495 1.429 . S
C1487 C1485 1.419 . S
C1487 C1488 1.363 . S
C1487 H1490 0.929 . S
C1488 C1487 1.363 . S
C1488 C1494 1.428 . S
H1489 C1485 0.930 . S
H1490 C1487 0.929 . S
S1491 N1492 1.613 . S
S1491 N1493 1.610 . S
N1492 S1491 1.613 . S
N1492 C1495 1.350 . S
N1493 S1491 1.610 . S
N1493 C1494 1.351 . S
C1494 C1488 1.428 . S
C1494 N1493 1.351 . S
C1494 C1495 1.434 . S
C1495 C1486 1.429 . S
C1495 N1492 1.350 . S
C1495 C1494 1.434 . S
C1496 C1497 1.369 . S
C1496 C1498 1.419 . S
C1496 H1500 0.930 . S
C1497 C1496 1.369 . S
C1497 C1506 1.429 . S
C1498 C1496 1.419 . S
C1498 C1499 1.363 . S
C1498 H1501 0.929 . S
C1499 C1498 1.363 . S
C1499 C1505 1.428 . S
H1500 C1496 0.930 . S
H1501 C1498 0.929 . S
S1502 N1503 1.613 . S
S1502 N1504 1.610 . S
N1503 S1502 1.613 . S
N1503 C1506 1.350 . S
N1504 S1502 1.610 . S
N1504 C1505 1.351 . S
C1505 C1499 1.428 . S
C1505 N1504 1.351 . S
C1505 C1506 1.434 . S
C1506 C1497 1.429 . S
C1506 N1503 1.350 . S
C1506 C1505 1.434 . S
C1507 C1508 1.369 . S
C1507 C1509 1.419 . S
C1507 H1511 0.930 . S
C1508 C1507 1.369 . S
C1508 C1517 1.429 . S
C1509 C1507 1.419 . S
C1509 C1510 1.363 . S
C1509 H1512 0.929 . S
C1510 C1509 1.363 . S
C1510 C1516 1.428 . S
H1511 C1507 0.930 . S
H1512 C1509 0.929 . S
S1513 N1514 1.613 . S
S1513 N1515 1.610 . S
N1514 S1513 1.613 . S
N1514 C1517 1.350 . S
N1515 S1513 1.610 . S
N1515 C1516 1.351 . S
C1516 C1510 1.428 . S
C1516 N1515 1.351 . S
C1516 C1517 1.434 . S
C1517 C1508 1.429 . S
C1517 N1514 1.350 . S
C1517 C1516 1.434 . S
C1518 C1519 1.369 . S
C1518 C1520 1.419 . S
C1518 H1522 0.930 . S
C1519 C1518 1.369 . S
C1519 C1528 1.429 . S
C1520 C1518 1.419 . S
C1520 C1521 1.363 . S
C1520 H1523 0.929 . S
C1521 C1520 1.363 . S
C1521 C1527 1.428 . S
H1522 C1518 0.930 . S
H1523 C1520 0.929 . S
S1524 N1525 1.613 . S
S1524 N1526 1.610 . S
N1525 S1524 1.613 . S
N1525 C1528 1.350 . S
N1526 S1524 1.610 . S
N1526 C1527 1.351 . S
C1527 C1521 1.428 . S
C1527 N1526 1.351 . S
C1527 C1528 1.434 . S
C1528 C1519 1.429 . S
C1528 N1525 1.350 . S
C1528 C1527 1.434 . S
C1529 C1530 1.369 . S
C1529 C1531 1.419 . S
C1529 H1533 0.930 . S
C1530 C1529 1.369 . S
C1530 C1539 1.429 . S
C1531 C1529 1.419 . S
C1531 C1532 1.363 . S
C1531 H1534 0.929 . S
C1532 C1531 1.363 . S
C1532 C1538 1.428 . S
H1533 C1529 0.930 . S
H1534 C1531 0.929 . S
S1535 N1536 1.613 . S
S1535 N1537 1.610 . S
N1536 S1535 1.613 . S
N1536 C1539 1.350 . S
N1537 S1535 1.610 . S
N1537 C1538 1.351 . S
C1538 C1532 1.428 . S
C1538 N1537 1.351 . S
C1538 C1539 1.434 . S
C1539 C1530 1.429 . S
C1539 N1536 1.350 . S
C1539 C1538 1.434 . S
C1540 C1541 1.369 . S
C1540 C1542 1.419 . S
C1540 H1544 0.930 . S
C1541 C1540 1.369 . S
C1541 C1550 1.429 . S
C1542 C1540 1.419 . S
C1542 C1543 1.363 . S
C1542 H1545 0.929 . S
C1543 C1542 1.363 . S
C1543 C1549 1.428 . S
H1544 C1540 0.930 . S
H1545 C1542 0.929 . S
S1546 N1547 1.613 . S
S1546 N1548 1.610 . S
N1547 S1546 1.613 . S
N1547 C1550 1.350 . S
N1548 S1546 1.610 . S
N1548 C1549 1.351 . S
C1549 C1543 1.428 . S
C1549 N1548 1.351 . S
C1549 C1550 1.434 . S
C1550 C1541 1.429 . S
C1550 N1547 1.350 . S
C1550 C1549 1.434 . S
C1551 C1552 1.369 . S
C1551 C1553 1.419 . S
C1551 H1555 0.930 . S
C1552 C1551 1.369 . S
C1552 C1561 1.429 . S
C1553 C1551 1.419 . S
C1553 C1554 1.363 . S
C1553 H1556 0.929 . S
C1554 C1553 1.363 . S
C1554 C1560 1.428 . S
H1555 C1551 0.930 . S
H1556 C1553 0.929 . S
S1557 N1558 1.613 . S
S1557 N1559 1.610 . S
N1558 S1557 1.613 . S
N1558 C1561 1.350 . S
N1559 S1557 1.610 . S
N1559 C1560 1.351 . S
C1560 C1554 1.428 . S
C1560 N1559 1.351 . S
C1560 C1561 1.434 . S
C1561 C1552 1.429 . S
C1561 N1558 1.350 . S
C1561 C1560 1.434 . S
C1562 C1563 1.369 . S
C1562 C1564 1.419 . S
C1562 H1566 0.930 . S
C1563 C1562 1.369 . S
C1563 C1572 1.429 . S
C1564 C1562 1.419 . S
C1564 C1565 1.363 . S
C1564 H1567 0.929 . S
C1565 C1564 1.363 . S
C1565 C1571 1.428 . S
H1566 C1562 0.930 . S
H1567 C1564 0.929 . S
S1568 N1569 1.613 . S
S1568 N1570 1.610 . S
N1569 S1568 1.613 . S
N1569 C1572 1.350 . S
N1570 S1568 1.610 . S
N1570 C1571 1.351 . S
C1571 C1565 1.428 . S
C1571 N1570 1.351 . S
C1571 C1572 1.434 . S
C1572 C1563 1.429 . S
C1572 N1569 1.350 . S
C1572 C1571 1.434 . S
C1573 C1574 1.369 . S
C1573 C1575 1.419 . S
C1573 H1577 0.930 . S
C1574 C1573 1.369 . S
C1574 C1583 1.429 . S
C1575 C1573 1.419 . S
C1575 C1576 1.363 . S
C1575 H1578 0.929 . S
C1576 C1575 1.363 . S
C1576 C1582 1.428 . S
H1577 C1573 0.930 . S
H1578 C1575 0.929 . S
S1579 N1580 1.613 . S
S1579 N1581 1.610 . S
N1580 S1579 1.613 . S
N1580 C1583 1.350 . S
N1581 S1579 1.610 . S
N1581 C1582 1.351 . S
C1582 C1576 1.428 . S
C1582 N1581 1.351 . S
C1582 C1583 1.434 . S
C1583 C1574 1.429 . S
C1583 N1580 1.350 . S
C1583 C1582 1.434 . S
C991 N170 1.896 . S
C993 C301 1.822 . S
C1002 N184 1.099 . S
C1004 C385 1.076 . S
C1013 N158 1.555 . S
C1015 C465 1.531 . S
C1024 N145 1.536 . S
C1026 C381 1.511 . S
C1037 C469 1.025 . S
C1035 N119 1.052 . S
C1046 N131 1.855 . S
C1048 C297 1.812 1_556 S
C1059 C290 1.571 . S
C1057 N144 1.629 . S
C1070 C374 1.418 . S
C1068 N118 1.418 . S
C1079 N132 1.459 . S
C1081 C476 1.456 . S
C1090 N171 1.448 . S
C1092 C392 1.446 . S
C1101 N183 1.382 . S
C1103 C458 1.377 . S
C1114 C308 1.556 . S
C1112 N157 1.591 . S
C1125 C553 1.827 . S
C1123 N14 1.895 . S
C1134 N28 1.091 . S
C1136 C637 1.070 . S
C1145 N2 1.558 . S
C1147 C717 1.525 . S
C1156 N223 1.538 . S
C1158 C633 1.506 . S
C1167 N197 1.054 . S
C1169 C721 1.035 . S
C1178 N209 1.855 . S
C1180 C549 1.815 . S
C1189 N222 1.632 . S
C1191 C542 1.565 . S
C1200 N196 1.424 . S
C1202 C626 1.413 . S
C1213 C728 1.456 . S
C1211 N210 1.460 . S
C1222 N15 1.451 . S
C1224 C644 1.443 . S
C1235 C710 1.374 . S
C1233 N27 1.378 . S
C1244 N1 1.593 . S
C1246 C560 1.554 . S
C1257 C805 1.821 . S
C1255 N92 1.897 . S
C1266 N106 1.094 . S
C1268 C889 1.070 . S
C1279 C969 1.530 . S
C1277 N80 1.555 . S
C1290 C885 1.512 . S
C1288 N67 1.536 . S
C1301 C973 1.026 . S
C1299 N41 1.050 1_655 S
C1310 N53 1.854 . S
C1312 C801 1.816 . S
C1321 N66 1.629 . S
C1323 C794 1.568 . S
C1332 N40 1.420 . S
C1334 C878 1.414 . S
C1345 C980 1.454 . S
C1343 N54 1.462 . S
C1354 N93 1.450 . S
C1356 C896 1.445 . S
C1365 N105 1.380 . S
C1367 C962 1.377 . S
C1376 N79 1.594 . S
C1378 C812 1.553 . S
C1387 N200 1.331 . S
C1389 C304 1.217 . S
C1400 C388 1.504 . S
C1398 N213 1.703 . S
C1409 N226 1.522 . S
C1411 C460 1.401 . S
C1420 N83 1.553 . S
C1422 C376 1.412 . S
C1431 N96 1.686 . S
C1433 C472 1.497 . S
C1444 C292 1.257 . S
C1442 N109 1.357 . S
C1453 N44 1.324 . S
C1455 C556 1.205 . S
C1464 N57 1.698 . S
C1466 C640 1.516 . S
C1475 N70 1.525 . S
C1477 C712 1.394 . S
C1486 N161 1.553 . S
C1488 C628 1.411 . S
C1499 C724 1.507 . S
C1497 N174 1.680 . S
C1508 N187 1.351 . S
C1510 C544 1.248 . S
C1519 N122 1.325 . S
C1521 C808 1.206 . S
C1530 N135 1.701 . S
C1532 C892 1.512 . S
C1543 C964 1.401 . S
C1541 N148 1.522 . S
C1552 N5 1.551 . S
C1554 C880 1.419 . S
C1563 N18 1.681 . S
C1565 C976 1.508 . S
C1574 N31 1.352 . S
C1576 C796 1.247 . S
