# Generated by pormake.
# Topology zzz, (3,6)-cn, num edge types: 1
# Building blocks:
#     Node 0, Type 0, BuildingBlock: CUQRIR_clean_linker_1, # of connection points: 3
#     Node 1, Type 0, BuildingBlock: CUQRIR_clean_linker_1, # of connection points: 3
#     Node 2, Type 0, BuildingBlock: CUQRIR_clean_linker_1, # of connection points: 3
#     Node 3, Type 0, BuildingBlock: CUQRIR_clean_linker_1, # of connection points: 3
#     Node 4, Type 0, BuildingBlock: CUQRIR_clean_linker_1, # of connection points: 3
#     Node 5, Type 0, BuildingBlock: CUQRIR_clean_linker_1, # of connection points: 3
#     Node 6, Type 0, BuildingBlock: CUQRIR_clean_linker_1, # of connection points: 3
#     Node 7, Type 0, BuildingBlock: CUQRIR_clean_linker_1, # of connection points: 3
#     Node 8, Type 1, BuildingBlock: BETDEL_clean_sbu_0, # of connection points: 6
#     Node 9, Type 1, BuildingBlock: BETDEL_clean_sbu_0, # of connection points: 6
#     Node 10, Type 1, BuildingBlock: BETDEL_clean_sbu_0, # of connection points: 6
#     Node 11, Type 1, BuildingBlock: BETDEL_clean_sbu_0, # of connection points: 6
#     Edge 12, Type (0, 1), BuildingBlock: XUDNAN_clean_linker_2, # of connection points: 2
#     Edge 13, Type (0, 1), BuildingBlock: XUDNAN_clean_linker_2, # of connection points: 2
#     Edge 14, Type (0, 1), BuildingBlock: XUDNAN_clean_linker_2, # of connection points: 2
#     Edge 15, Type (0, 1), BuildingBlock: XUDNAN_clean_linker_2, # of connection points: 2
#     Edge 16, Type (0, 1), BuildingBlock: XUDNAN_clean_linker_2, # of connection points: 2
#     Edge 17, Type (0, 1), BuildingBlock: XUDNAN_clean_linker_2, # of connection points: 2
#     Edge 18, Type (0, 1), BuildingBlock: XUDNAN_clean_linker_2, # of connection points: 2
#     Edge 19, Type (0, 1), BuildingBlock: XUDNAN_clean_linker_2, # of connection points: 2
#     Edge 20, Type (0, 1), BuildingBlock: XUDNAN_clean_linker_2, # of connection points: 2
#     Edge 21, Type (0, 1), BuildingBlock: XUDNAN_clean_linker_2, # of connection points: 2
#     Edge 22, Type (0, 1), BuildingBlock: XUDNAN_clean_linker_2, # of connection points: 2
#     Edge 23, Type (0, 1), BuildingBlock: XUDNAN_clean_linker_2, # of connection points: 2
#     Edge 24, Type (0, 1), BuildingBlock: XUDNAN_clean_linker_2, # of connection points: 2
#     Edge 25, Type (0, 1), BuildingBlock: XUDNAN_clean_linker_2, # of connection points: 2
#     Edge 26, Type (0, 1), BuildingBlock: XUDNAN_clean_linker_2, # of connection points: 2
#     Edge 27, Type (0, 1), BuildingBlock: XUDNAN_clean_linker_2, # of connection points: 2
#     Edge 28, Type (0, 1), BuildingBlock: XUDNAN_clean_linker_2, # of connection points: 2
#     Edge 29, Type (0, 1), BuildingBlock: XUDNAN_clean_linker_2, # of connection points: 2
#     Edge 30, Type (0, 1), BuildingBlock: XUDNAN_clean_linker_2, # of connection points: 2
#     Edge 31, Type (0, 1), BuildingBlock: XUDNAN_clean_linker_2, # of connection points: 2
#     Edge 32, Type (0, 1), BuildingBlock: XUDNAN_clean_linker_2, # of connection points: 2
#     Edge 33, Type (0, 1), BuildingBlock: XUDNAN_clean_linker_2, # of connection points: 2
#     Edge 34, Type (0, 1), BuildingBlock: XUDNAN_clean_linker_2, # of connection points: 2
#     Edge 35, Type (0, 1), BuildingBlock: XUDNAN_clean_linker_2, # of connection points: 2
# Relax obj value: 0.173
# Max RMSD: 0.193
# Mean RMSD: 0.119
data_MOF--net-zzz--node1-BETDEL_clean_sbu_0--node2-CUQRIR_clean_linker_1--edge1-XUDNAN_clean_linker_2
_symmetry_space_group_name_H-M    P1
_symmetry_Int_Tables_number       1
_symmetry_cell_setting            triclinic
loop_
_symmetry_equiv_pos_as_xyz
'x, y, z'
_cell_length_a     46.288199
_cell_length_b     47.229528
_cell_length_c     13.122343
_cell_angle_alpha  91.391873
_cell_angle_beta   88.363494
_cell_angle_gamma 95.150941
loop_
_atom_site_label
_atom_site_type_symbol
_atom_site_fract_x
_atom_site_fract_y
_atom_site_fract_z
_atom_type_partial_charge
C0 C 0.73536 0.52204 0.16986 0.0
N1 N 0.76494 0.52584 0.16466 0.0
N2 N 0.72391 0.52549 0.07658 0.0
C3 C 0.71778 0.51418 0.26423 0.0
C4 C 0.74751 0.53153 0.0152 0.0
N5 N 0.77206 0.53173 0.06823 0.0
C6 C 0.74659 0.53596 0.90224 0.0
H7 H 0.71413 0.49067 0.26709 0.0
H8 H 0.69631 0.52287 0.26302 0.0
H9 H 0.72946 0.52206 0.33345 0.0
H10 H 0.72726 0.54694 0.88354 0.0
H11 H 0.74499 0.51492 0.86232 0.0
H12 H 0.76648 0.54849 0.87383 0.0
C13 C 1.00584 0.74236 0.18301 0.0
N14 N 0.01686 0.76977 0.19476 0.0
N15 N 0.01909 0.72952 0.1029 0.0
C16 C 0.98087 0.72868 0.24488 0.0
C17 C 0.03809 0.7505 0.06527 0.0
N18 N 0.03677 0.77488 0.12099 0.0
C19 C 0.05395 0.74854 0.96409 0.0
H20 H 0.98214 0.70536 0.24753 0.0
H21 H 0.96028 0.73263 0.20867 0.0
H22 H 0.98064 0.73795 0.3234 0.0
H23 H 0.0639 0.72807 0.9565 0.0
H24 H 0.07109 0.76635 0.95499 0.0
H25 H 0.03821 0.74922 0.90214 0.0
C26 C 0.77172 1.00153 0.17778 0.0
N27 N 0.74384 0.00811 0.16984 0.0
N28 N 0.78908 0.01414 0.1032 0.0
C29 C 0.78112 0.98005 0.24929 0.0
C30 C 0.77063 0.02858 0.05077 0.0
N31 N 0.74307 0.02404 0.08799 0.0
C32 C 0.77949 0.04699 0.96101 0.0
H33 H 0.80372 0.9859 0.2729 0.0
H34 H 0.78041 0.95904 0.20922 0.0
H35 H 0.76643 0.9782 0.31761 0.0
H36 H 0.78005 0.03375 0.89018 0.0
H37 H 0.80156 0.05776 0.9716 0.0
H38 H 0.76381 0.06313 0.95157 0.0
C39 C 0.51451 0.77361 0.17947 0.0
N40 N 0.5245 0.74761 0.18718 0.0
N41 N 0.5268 0.78756 0.09719 0.0
C42 C 0.49043 0.78395 0.24526 0.0
C43 C 0.54403 0.76857 0.05403 0.0
N44 N 0.54247 0.74431 0.1078 0.0
C45 C 0.55827 0.77177 0.94995 0.0
H46 H 0.46934 0.7749 0.21517 0.0
H47 H 0.49114 0.8075 0.2449 0.0
H48 H 0.49197 0.77659 0.32446 0.0
H49 H 0.57048 0.793 0.9441 0.0
H50 H 0.54129 0.77022 0.89156 0.0
H51 H 0.57333 0.7551 0.93388 0.0
C52 C 0.27756 0.50477 0.99867 0.0
N53 N 0.25113 0.51442 0.98396 0.0
N54 N 0.2894 0.51605 0.08665 0.0
C55 C 0.2916 0.48404 0.92895 0.0
C56 C 0.2691 0.53294 0.12389 0.0
N57 N 0.24607 0.5318 0.06224 0.0
C58 C 0.27128 0.55013 0.22191 0.0
H59 H 0.30219 0.46853 0.97423 0.0
H60 H 0.30862 0.49583 0.88141 0.0
H61 H 0.27586 0.47259 0.8771 0.0
H62 H 0.29425 0.55643 0.24013 0.0
H63 H 0.26098 0.5372 0.28481 0.0
H64 H 0.25969 0.56957 0.21728 0.0
C65 C 0.02298 0.28043 0.02301 0.0
N66 N 0.0277 0.25255 0.02402 0.0
N67 N 0.02903 0.29339 0.11508 0.0
C68 C 0.01188 0.29456 0.93261 0.0
C69 C 0.03718 0.27192 0.17206 0.0
N70 N 0.0366 0.24741 0.11644 0.0
C71 C 0.04318 0.27422 0.28443 0.0
H72 H 0.01862 0.31771 0.93425 0.0
H73 H 0.98784 0.29128 0.93365 0.0
H74 H 0.02005 0.28479 0.86086 0.0
H75 H 0.0277 0.28759 0.32446 0.0
H76 H 0.06547 0.28436 0.29492 0.0
H77 H 0.04188 0.25317 0.32045 0.0
C78 C 0.24488 0.02617 0.97964 0.0
N79 N 0.27007 0.01354 0.96764 0.0
N80 N 0.23058 0.01786 0.06764 0.0
C81 C 0.23404 0.04594 0.90476 0.0
C82 C 0.24818 1.00015 0.10916 0.0
N83 N 0.27184 0.99714 0.04801 0.0
C84 C 0.24353 0.98821 0.21449 0.0
H85 H 0.24629 0.06711 0.91361 0.0
H86 H 0.21057 0.04824 0.91781 0.0
H87 H 0.23804 0.03805 0.8257 0.0
H88 H 0.23138 0.96692 0.20866 0.0
H89 H 0.23064 1.00197 0.2642 0.0
H90 H 0.26451 0.98606 0.25104 0.0
C91 C 0.49462 0.2371 0.95764 0.0
N92 N 0.49488 0.26572 0.97267 0.0
N93 N 0.49036 0.22323 0.04765 0.0
C94 C 0.50189 0.22305 0.85779 0.0
C95 C 0.48891 0.24463 0.1177 0.0
N96 N 0.49174 0.27018 0.07265 0.0
C97 C 0.48898 0.2407 0.23113 0.0
H98 H 0.49286 0.20047 0.85599 0.0
H99 H 0.52584 0.22381 0.84807 0.0
H100 H 0.49341 0.23455 0.79388 0.0
H101 H 0.51082 0.23538 0.25288 0.0
H102 H 0.47309 0.22277 0.25329 0.0
H103 H 0.48364 0.26025 0.2735 0.0
Dy104 Dy 0.03052 0.99924 0.69718 0.0
C105 C 0.99721 0.056 0.35656 0.0
C106 C 0.03976 0.96444 0.85358 0.0
Dy107 Dy 1.00172 0.02324 0.52252 0.0
O108 O 0.05966 0.98197 0.81166 0.0
O109 O 0.01502 0.96684 0.81214 0.0
O110 O 0.07338 0.02126 0.64611 0.0
O111 O 0.0433 1.00537 0.53704 0.0
C112 C 0.06759 0.01934 0.54965 0.0
C113 C 0.96406 1.00529 0.67318 0.0
O114 O 0.99628 0.97845 0.46364 0.0
O115 O 0.01681 0.95959 0.60337 0.0
O116 O 0.97959 0.05521 0.4356 0.0
O117 O 0.01624 0.03782 0.36675 0.0
O118 O 0.9575 1.00463 0.57702 0.0
O119 O 0.9893 0.01749 0.68292 0.0
O120 O 0.02401 0.04233 0.76535 0.0
O121 O 0.02009 0.06272 0.60894 0.0
C122 C 1.00398 0.95653 0.51405 0.0
C123 C 0.02348 0.06517 0.70883 0.0
Dy124 Dy 0.48678 0.98154 0.46016 0.0
C125 C 0.56024 0.03607 0.74881 0.0
C126 C 0.44859 0.95666 0.32324 0.0
Dy127 Dy 0.51741 0.01589 0.61963 0.0
O128 O 0.44768 0.95208 0.42013 0.0
O129 O 0.47033 0.97494 0.30128 0.0
O130 O 0.52511 0.95706 0.42452 0.0
O131 O 0.53248 0.99958 0.47061 0.0
C132 C 0.5448 0.97728 0.44811 0.0
C133 C 0.45908 0.01837 0.63241 0.0
O134 O 0.52022 0.0481 0.49677 0.0
O135 O 0.48204 0.02626 0.40709 0.0
O136 O 0.53755 0.01936 0.7742 0.0
O137 O 0.55809 0.04295 0.65462 0.0
O138 O 0.47754 0.03919 0.66196 0.0
O139 O 0.47282 0.99722 0.60878 0.0
O140 O 0.48336 0.94941 0.58323 0.0
O141 O 0.52143 0.97108 0.67315 0.0
C142 C 0.5012 0.04837 0.42368 0.0
C143 C 0.50232 0.94896 0.65646 0.0
Dy144 Dy 0.4933 0.52078 0.6844 0.0
C145 C 0.52507 0.46411 0.30198 0.0
C146 C 0.4926 0.55379 0.85709 0.0
Dy147 Dy 0.51886 0.49295 0.48143 0.0
O148 O 0.50816 0.53235 0.84316 0.0
O149 O 0.47607 0.55551 0.7796 0.0
O150 O 0.44535 0.51451 0.64068 0.0
O151 O 0.4776 0.50049 0.54774 0.0
C152 C 0.45086 0.50324 0.55132 0.0
C153 C 0.55654 0.50518 0.63341 0.0
O154 O 0.51327 0.53688 0.42686 0.0
O155 O 0.50623 0.55892 0.58618 0.0
O156 O 0.54619 0.47863 0.34886 0.0
O157 O 0.50072 0.46678 0.35124 0.0
O158 O 0.55885 0.48476 0.56631 0.0
O159 O 0.53598 0.51951 0.60957 0.0
O160 O 0.49901 0.4761 0.73426 0.0
O161 O 0.50338 0.45449 0.57309 0.0
C162 C 0.50982 0.55983 0.48523 0.0
C163 C 0.50053 0.45313 0.6739 0.0
Dy164 Dy 0.99736 0.50354 0.67573 0.0
C165 C 0.05095 0.54259 0.30753 0.0
C166 C 0.96874 0.50571 0.85907 0.0
Dy167 Dy 0.01991 0.53088 0.48355 0.0
O168 O 0.96636 0.4841 0.79511 0.0
O169 O 0.98841 0.52462 0.82506 0.0
O170 O 0.01234 0.46133 0.6257 0.0
O171 O 0.99854 0.48916 0.51703 0.0
C172 C 0.00995 0.46613 0.52874 0.0
C173 C 1.00529 0.5674 0.63029 0.0
O174 O 0.97293 0.52502 0.4388 0.0
O175 O 0.95544 0.51178 0.59974 0.0
O176 O 0.04262 0.56154 0.37256 0.0
O177 O 0.04147 0.51739 0.33767 0.0
O178 O 1.00105 0.57114 0.53427 0.0
O179 O 0.01846 0.54543 0.64167 0.0
O180 O 0.04357 0.50137 0.71306 0.0
O181 O 0.06157 0.51993 0.55914 0.0
C182 C 0.95096 0.51869 0.50418 0.0
C183 C 0.0655 0.50891 0.64991 0.0
H184 H 0.18117 0.98421 0.10458 0.0
H185 H 0.22116 0.06986 0.14421 0.0
H186 H 0.18063 0.08128 0.26184 0.0
H187 H 0.10332 1.00301 0.12117 0.0
H188 H 0.09172 0.97099 0.1886 0.0
H189 H 0.12155 0.97125 0.09723 0.0
H190 H 0.15393 0.95353 0.23533 0.0
H191 H 0.12445 0.95367 0.32762 0.0
H192 H 0.15863 0.97364 0.35316 0.0
H193 H 0.14073 0.08023 0.3987 0.0
H194 H 0.10139 0.06894 0.52732 0.0
H195 H 0.0845 0.98498 0.39024 0.0
C196 C 0.18058 1.00569 0.13479 0.0
C197 C 0.20389 0.02643 0.11387 0.0
C198 C 0.20312 0.05402 0.15737 0.0
C199 C 0.1803 0.06053 0.22485 0.0
C200 C 0.15812 0.03929 0.24684 0.0
C201 C 0.1577 0.01258 0.20109 0.0
C202 C 0.13231 0.99305 0.24212 0.0
C203 C 0.11095 0.98406 0.15724 0.0
C204 C 0.14298 0.96694 0.29255 0.0
C205 C 0.11903 0.01259 0.32062 0.0
C206 C 0.13434 0.03915 0.32244 0.0
C207 C 0.12813 0.0598 0.39584 0.0
C208 C 0.10584 0.0532 0.46888 0.0
C209 C 0.08956 0.02639 0.46726 0.0
C210 C 0.09605 1.00597 0.39124 0.0
H211 H 0.4516 0.18159 0.12178 0.0
H212 H 0.54197 0.20125 0.03703 0.0
H213 H 0.55406 0.15666 0.11514 0.0
H214 H 0.46185 0.15459 0.3596 0.0
H215 H 0.43315 0.12617 0.35576 0.0
H216 H 0.43078 0.15747 0.28197 0.0
H217 H 0.42469 0.12651 0.11719 0.0
H218 H 0.42661 0.09498 0.1906 0.0
H219 H 0.45117 0.10191 0.08327 0.0
H220 H 0.55726 0.11434 0.22555 0.0
H221 H 0.55091 0.07372 0.34154 0.0
H222 H 0.45777 0.07839 0.34721 0.0
C223 C 0.47369 0.17577 0.11637 0.0
C224 C 0.49587 0.19447 0.0714 0.0
C225 C 0.52471 0.18682 0.06865 0.0
C226 C 0.53172 0.16168 0.11369 0.0
C227 C 0.50954 0.1441 0.16023 0.0
C228 C 0.48096 0.15043 0.15985 0.0
C229 C 0.46151 0.12846 0.21909 0.0
C230 C 0.44591 0.14252 0.30945 0.0
C231 C 0.43971 0.11199 0.14832 0.0
C232 C 0.48371 0.10935 0.25569 0.0
C233 C 0.51129 0.11892 0.22103 0.0
C234 C 0.5357 0.10634 0.2512 0.0
C235 C 0.5319 0.08336 0.31773 0.0
C236 C 0.50388 0.07269 0.35271 0.0
C237 C 0.47941 0.08575 0.32027 0.0
H238 H 0.29673 0.50197 0.28449 0.0
H239 H 0.34351 0.51828 0.99845 0.0
H240 H 0.3898 0.51257 0.08283 0.0
H241 H 0.34762 0.54386 0.43612 0.0
H242 H 0.34308 0.52112 0.54483 0.0
H243 H 0.31369 0.52283 0.45886 0.0
H244 H 0.31111 0.46821 0.43067 0.0
H245 H 0.34057 0.46635 0.51641 0.0
H246 H 0.34322 0.45188 0.38845 0.0
H247 H 0.43172 0.50746 0.20317 0.0
H248 H 0.46488 0.50615 0.34713 0.0
H249 H 0.39111 0.49735 0.55806 0.0
C250 C 0.3167 0.5043 0.23945 0.0
C251 C 0.31633 0.51044 0.13416 0.0
C252 C 0.34304 0.51299 0.07823 0.0
C253 C 0.3695 0.51 0.126 0.0
C254 C 0.36909 0.50467 0.23043 0.0
C255 C 0.34331 0.50203 0.28652 0.0
C256 C 0.34882 0.49844 0.399 0.0
C257 C 0.33764 0.52303 0.46349 0.0
C258 C 0.33512 0.4695 0.43577 0.0
C259 C 0.38175 0.4997 0.39799 0.0
C260 C 0.39305 0.50285 0.29977 0.0
C261 C 0.42297 0.50476 0.28004 0.0
C262 C 0.44173 0.50373 0.3624 0.0
C263 C 0.43071 0.50112 0.46391 0.0
C264 C 0.40024 0.49905 0.48132 0.0
H265 H 0.06411 0.32982 0.23137 0.0
H266 H 0.98069 0.32074 0.08682 0.0
H267 H 0.96922 0.36685 0.16287 0.0
H268 H 0.03518 0.3531 0.46747 0.0
H269 H 0.06649 0.37681 0.4995 0.0
H270 H 0.07065 0.34611 0.41819 0.0
H271 H 0.09567 0.37846 0.27882 0.0
H272 H 0.09161 0.40929 0.35989 0.0
H273 H 0.07739 0.40764 0.23325 0.0
H274 H 0.96606 0.41337 0.26095 0.0
H275 H 0.96881 0.45327 0.38708 0.0
H276 H 0.05039 0.42774 0.49144 0.0
C277 C 0.04348 0.33757 0.2153 0.0
C278 C 0.02353 0.32173 0.15131 0.0
C279 C 0.99681 0.33282 0.13217 0.0
C280 C 0.98998 0.35892 0.17607 0.0
C281 C 0.0098 0.3735 0.24109 0.0
C282 C 0.03586 0.36301 0.2618 0.0
C283 C 0.05182 0.38096 0.34369 0.0
C284 C 0.05629 0.36319 0.43778 0.0
C285 C 0.08084 0.39491 0.30135 0.0
C286 C 0.03048 0.40298 0.36694 0.0
C287 C 1.00677 0.39876 0.30475 0.0
C288 C 0.98445 0.41675 0.31029 0.0
C289 C 0.98621 0.43937 0.38197 0.0
C290 C 0.00967 0.44335 0.44924 0.0
C291 C 0.03211 0.42495 0.44134 0.0
H292 H 0.80343 0.99096 0.92033 0.0
H293 H 0.83978 0.02512 0.20225 0.0
H294 H 0.88949 0.02212 0.12795 0.0
H295 H 0.86048 0.94381 0.84586 0.0
H296 H 0.85888 0.95208 0.71287 0.0
H297 H 0.82689 0.9528 0.79417 0.0
H298 H 0.82175 1.00467 0.74272 0.0
H299 H 0.85376 1.0042 0.66183 0.0
H300 H 0.85173 0.03126 0.76041 0.0
H301 H 0.93532 0.01933 0.01468 0.0
H302 H 0.97241 0.01805 0.87558 0.0
H303 H 0.90549 0.98855 0.66364 0.0
C304 C 0.82193 0.99729 0.96693 0.0
C305 C 0.81784 0.00803 0.0675 0.0
C306 C 0.84248 0.01631 0.12601 0.0
C307 C 0.87074 0.01483 0.08393 0.0
C308 C 0.87397 1.00508 0.98298 0.0
C309 C 0.85012 0.99638 0.92546 0.0
C310 C 0.85909 0.98916 0.81632 0.0
C311 C 0.85085 0.95758 0.79083 0.0
C312 C 0.8458 0.00848 0.7409 0.0
C313 C 0.89175 0.99557 0.82033 0.0
C314 C 0.89999 1.00438 0.91744 0.0
C315 C 0.92901 0.01227 0.93878 0.0
C316 C 0.94998 0.01149 0.85906 0.0
C317 C 0.94195 1.0032 0.75842 0.0
C318 C 0.91241 0.99482 0.73966 0.0
H319 H 0.55776 0.83744 0.04831 0.0
H320 H 0.47352 0.79048 0.02319 0.0
H321 H 0.45766 0.82766 0.91279 0.0
H322 H 0.53137 0.90962 0.04911 0.0
H323 H 0.56218 0.92443 0.97476 0.0
H324 H 0.56602 0.89536 0.05836 0.0
H325 H 0.58587 0.8662 0.90645 0.0
H326 H 0.58182 0.89504 0.82223 0.0
H327 H 0.56457 0.86011 0.79382 0.0
H328 H 0.45259 0.86728 0.7924 0.0
H329 H 0.45678 0.9087 0.68085 0.0
H330 H 0.54405 0.93195 0.7853 0.0
C331 C 0.53578 0.83548 0.02122 0.0
C332 C 0.51659 0.81137 0.04557 0.0
C333 C 0.4882 0.8091 0.00732 0.0
C334 C 0.47916 0.83 0.94395 0.0
C335 C 0.49872 0.85326 0.91973 0.0
C336 C 0.52633 0.85638 0.95825 0.0
C337 C 0.54328 0.8831 0.91772 0.0
C338 C 0.55117 0.90439 0.0052 0.0
C339 C 0.57049 0.87566 0.85642 0.0
C340 C 0.52109 0.89417 0.84885 0.0
C341 C 0.49559 0.87651 0.85121 0.0
C342 C 0.47233 0.88141 0.79091 0.0
C343 C 0.47502 0.905 0.72713 0.0
C344 C 0.50072 0.92377 0.72393 0.0
C345 C 0.52402 0.91822 0.78633 0.0
H346 H 0.69818 0.48505 0.95129 0.0
H347 H 0.68356 0.56225 0.12071 0.0
H348 H 0.63684 0.56452 0.03359 0.0
H349 H 0.67347 0.50515 0.72016 0.0
H350 H 0.65638 0.47083 0.68263 0.0
H351 H 0.68624 0.4732 0.76812 0.0
H352 H 0.6548 0.44398 0.90177 0.0
H353 H 0.62488 0.44113 0.81608 0.0
H354 H 0.62021 0.45551 0.94335 0.0
H355 H 0.59451 0.56129 0.90843 0.0
H356 H 0.55958 0.55091 0.76966 0.0
H357 H 0.60113 0.47468 0.6869 0.0
C358 C 0.68449 0.50177 0.97262 0.0
C359 C 0.69405 0.52313 0.0446 0.0
C360 C 0.67618 0.54531 0.06805 0.0
C361 C 0.64977 0.54684 0.01808 0.0
C362 C 0.64135 0.52587 0.94503 0.0
C363 C 0.65802 0.50345 0.92385 0.0
C364 C 0.64514 0.48446 0.83851 0.0
C365 C 0.66658 0.48336 0.74697 0.0
C366 C 0.6357 0.45449 0.87726 0.0
C367 C 0.61905 0.50001 0.81278 0.0
C368 C 0.61709 0.52384 0.87503 0.0
C369 C 0.59562 0.54233 0.86096 0.0
C370 C 0.57571 0.53622 0.78207 0.0
C371 C 0.57711 0.51168 0.71847 0.0
C372 C 0.59915 0.49344 0.73484 0.0
H373 H 0.04866 0.68296 0.0671 0.0
H374 H 0.96783 0.71863 0.0122 0.0
H375 H 0.95305 0.67761 0.89822 0.0
H376 H 0.06182 0.65863 0.82029 0.0
H377 H 0.07647 0.62605 0.85325 0.0
H378 H 0.07905 0.65602 0.94081 0.0
H379 H 0.05306 0.62502 0.08193 0.0
H380 H 0.0506 0.59486 0.99478 0.0
H381 H 0.01829 0.60608 0.05756 0.0
H382 H 0.95049 0.63715 0.77138 0.0
H383 H 0.95869 0.59801 0.6483 0.0
H384 H 0.03983 0.58585 0.79077 0.0
C385 C 0.02753 0.68153 0.03308 0.0
C386 C 1.00907 0.70361 0.04916 0.0
C387 C 0.98187 0.70159 1.00208 0.0
C388 C 0.97342 0.67844 0.9371 0.0
C389 C 0.99231 0.65725 0.92095 0.0
C390 C 0.01863 0.65828 0.96881 0.0
C391 C 0.03557 0.63352 0.93347 0.0
C392 C 0.06496 0.64421 0.884 0.0
C393 C 0.03961 0.6137 0.02222 0.0
C394 C 0.0152 0.61912 0.85525 0.0
C395 C 0.99032 0.63314 0.84971 0.0
C396 C 0.96954 0.62561 0.77668 0.0
C397 C 0.9744 0.60345 0.70686 0.0
C398 C 0.9996 0.58873 0.71121 0.0
C399 C 0.02 0.59632 0.78762 0.0
H400 H 0.99936 0.22 0.24939 0.0
H401 H 0.07528 0.21093 0.05591 0.0
H402 H 0.07003 0.15881 0.08126 0.0
H403 H 0.01346 0.16552 0.43164 0.0
H404 H 0.97543 0.15421 0.44857 0.0
H405 H 0.98669 0.19048 0.41701 0.0
H406 H 0.95332 0.18522 0.26028 0.0
H407 H 0.9428 0.14862 0.28993 0.0
H408 H 0.95837 0.15754 0.16612 0.0
H409 H 0.05488 0.10789 0.12117 0.0
H410 H 0.03673 0.06246 0.19951 0.0
H411 H 0.97041 0.10509 0.36704 0.0
C412 C 0.01545 0.20704 0.21595 0.0
C413 C 0.03812 0.21918 0.15278 0.0
C414 C 0.05822 0.20175 0.10633 0.0
C415 C 0.05508 0.17225 0.11892 0.0
C416 C 0.03171 0.16074 0.17832 0.0
C417 C 0.01266 0.17764 0.22809 0.0
C418 C 0.98969 0.16007 0.28905 0.0
C419 C 0.99144 0.16803 0.40331 0.0
C420 C 0.95925 0.16305 0.24891 0.0
C421 C 0.99897 0.1306 0.26673 0.0
C422 C 0.02296 0.13141 0.20127 0.0
C423 C 0.03611 0.10696 0.17248 0.0
C424 C 0.0255 0.08124 0.21659 0.0
C425 C 1.00214 0.08036 0.28878 0.0
C426 C 0.988 0.1051 0.31079 0.0
H427 H 0.3285 0.01582 0.03217 0.0
H428 H 0.27013 0.94294 0.11609 0.0
H429 H 0.31199 0.9187 0.17313 0.0
H430 H 0.38969 0.96821 0.93316 0.0
H431 H 0.4151 0.99806 0.96551 0.0
H432 H 0.37963 1.00362 0.92066 0.0
H433 H 0.37332 0.03547 0.0927 0.0
H434 H 0.40828 0.02673 0.13027 0.0
H435 H 0.37686 0.01843 0.21206 0.0
H436 H 0.35875 0.9091 0.25709 0.0
H437 H 0.40617 0.91269 0.34157 0.0
H438 H 0.43474 0.98634 0.16308 0.0
C439 C 0.32458 0.99415 0.05658 0.0
C440 C 0.29614 0.9813 0.06952 0.0
C441 C 0.29181 0.95339 0.10748 0.0
C442 C 0.31545 0.93931 0.13836 0.0
C443 C 0.3433 0.95283 0.12495 0.0
C444 C 0.34792 0.9792 0.08105 0.0
C445 C 0.37963 0.98986 0.07816 0.0
C446 C 0.39179 0.98999 0.96797 0.0
C447 C 0.38481 0.01933 0.13133 0.0
C448 C 0.39181 0.96699 0.13745 0.0
C449 C 0.3707 0.94549 0.16301 0.0
C450 C 0.37578 0.92501 0.23366 0.0
C451 C 0.40269 0.92719 0.28134 0.0
C452 C 0.42409 0.94941 0.25658 0.0
C453 C 0.41906 0.96855 0.18026 0.0
H454 H 0.46044 0.31557 0.0924 0.0
H455 H 0.54298 0.28481 0.15783 0.0
H456 H 0.56338 0.33404 0.19767 0.0
H457 H 0.48265 0.3794 0.98264 0.0
H458 H 0.45771 0.40131 0.04769 0.0
H459 H 0.4478 0.36386 0.02935 0.0
H460 H 0.43872 0.35531 0.21929 0.0
H461 H 0.44568 0.39304 0.24112 0.0
H462 H 0.46573 0.36877 0.3087 0.0
H463 H 0.57543 0.3869 0.21647 0.0
H464 H 0.57457 0.43764 0.26611 0.0
H465 H 0.4831 0.43324 0.19881 0.0
C466 C 0.48251 0.31934 0.118 0.0
C467 C 0.50037 0.29688 0.12205 0.0
C468 C 0.52914 0.30208 0.15576 0.0
C469 C 0.54096 0.32989 0.17646 0.0
C470 C 0.52326 0.35192 0.1663 0.0
C471 C 0.49428 0.34682 0.14286 0.0
C472 C 0.47922 0.37391 0.14785 0.0
C473 C 0.46612 0.37999 0.04551 0.0
C474 C 0.45599 0.37269 0.2344 0.0
C475 C 0.50454 0.3952 0.17233 0.0
C476 C 0.52985 0.38217 0.18175 0.0
C477 C 0.55574 0.39737 0.20958 0.0
C478 C 0.55517 0.42626 0.2361 0.0
C479 C 0.52877 0.43919 0.23582 0.0
C480 C 0.50365 0.42389 0.19804 0.0
H481 H 0.19901 0.49682 0.10439 0.0
H482 H 0.22961 0.58555 0.07701 0.0
H483 H 0.17939 0.59896 0.11233 0.0
H484 H 0.1298 0.50282 0.97643 0.0
H485 H 0.11062 0.4764 0.05591 0.0
H486 H 0.14859 0.47442 0.02539 0.0
H487 H 0.15998 0.47433 0.21809 0.0
H488 H 0.12205 0.47557 0.24859 0.0
H489 H 0.14812 0.50229 0.30087 0.0
H490 H 0.12647 0.60175 0.16779 0.0
H491 H 0.07712 0.59394 0.24575 0.0
H492 H 0.08117 0.50285 0.21332 0.0
C493 C 0.19494 0.51903 0.10535 0.0
C494 C 0.21779 0.54027 0.08956 0.0
C495 C 0.21215 0.56917 0.09116 0.0
C496 C 0.18377 0.57683 0.10952 0.0
C497 C 0.16147 0.55517 0.12292 0.0
C498 C 0.16684 0.52684 0.11991 0.0
C499 C 0.13961 0.50747 0.13886 0.0
C500 C 0.1317 0.4892 0.04342 0.0
C501 C 0.14262 0.48885 0.23215 0.0
C502 C 0.11818 0.52932 0.15914 0.0
C503 C 0.13096 0.55676 0.14811 0.0
C504 C 0.11608 0.5804 0.1745 0.0
C505 C 0.08805 0.57579 0.21827 0.0
C506 C 0.07543 0.54781 0.23468 0.0
C507 C 0.0901 0.52446 0.19969 0.0
H508 H 1.00133 0.80766 0.0331 0.0
H509 H 0.08929 0.80537 0.13173 0.0
H510 H 0.10012 0.85628 0.08579 0.0
H511 H 0.01509 0.85337 0.8227 0.0
H512 H 0.98288 0.87151 0.84719 0.0
H513 H 0.98373 0.83526 0.88504 0.0
H514 H 0.96975 0.85011 0.07043 0.0
H515 H 0.96956 0.88659 0.03385 0.0
H516 H 0.99211 0.87762 0.13588 0.0
H517 H 0.10052 0.90762 0.02015 0.0
H518 H 0.09089 0.95288 0.94011 0.0
H519 H 1.00095 0.92082 0.90478 0.0
C520 C 0.02292 0.81797 0.04378 0.0
C521 C 0.04467 0.80299 0.08411 0.0
C522 C 0.07265 0.81676 0.09899 0.0
C523 C 0.07877 0.84557 0.07417 0.0
C524 C 0.05642 0.86007 0.03661 0.0
C525 C 0.02903 0.84659 0.02211 0.0
C526 C 1.00843 0.86647 0.98278 0.0
C527 C 0.99687 0.85603 0.87824 0.0
C528 C 0.98349 0.87042 0.0604 0.0
C529 C 0.02859 0.89324 0.97413 0.0
C530 C 0.05622 0.88939 0.00553 0.0
C531 C 0.07886 0.91091 0.9968 0.0
C532 C 0.07321 0.93656 0.95185 0.0
C533 C 0.04513 0.94036 0.91758 0.0
C534 C 0.02252 0.91872 0.93191 0.0
H535 H 0.69101 0.04499 0.13611 0.0
H536 H 0.73791 1.00047 0.90058 0.0
H537 H 0.69557 0.99851 0.79096 0.0
H538 H 0.61637 0.99807 0.06614 0.0
H539 H 0.60076 0.02765 0.12898 0.0
H540 H 0.6353 0.01669 0.16626 0.0
H541 H 0.64902 0.07472 0.13278 0.0
H542 H 0.6153 0.07754 0.07041 0.0
H543 H 0.64927 0.08541 1.00184 0.0
H544 H 0.64927 1.00032 0.71014 0.0
H545 H 0.60143 0.01009 0.64932 0.0
H546 H 0.58149 0.05015 0.94046 0.0
C547 C 0.69213 0.03452 0.06216 0.0
C548 C 0.71801 0.02372 0.02528 0.0
C549 C 0.71871 0.01006 0.9281 0.0
C550 C 0.69463 0.0083 0.86626 0.0
C551 C 0.66955 0.01918 0.90465 0.0
C552 C 0.6677 0.03136 1.0009 0.0
C553 C 0.63734 0.03999 0.02378 0.0
C554 C 0.62144 0.01959 0.10098 0.0
C555 C 0.63777 0.07127 0.05933 0.0
C556 C 0.62405 0.0348 0.92033 0.0
C557 C 0.64262 0.02124 0.85519 0.0
C558 C 0.63486 0.01189 0.75822 0.0
C559 C 0.60777 0.01758 0.72469 0.0
C560 C 0.58864 0.03208 0.78868 0.0
C561 C 0.59638 0.04011 0.889 0.0
H562 H 0.51253 0.71918 0.95565 0.0
H563 H 0.5783 0.70659 0.17289 0.0
H564 H 0.57207 0.65445 0.13703 0.0
H565 H 0.46447 0.66271 0.02371 0.0
H566 H 0.45287 0.6537 0.89647 0.0
H567 H 0.46636 0.68965 0.92824 0.0
H568 H 0.50504 0.68804 0.78015 0.0
H569 H 0.49107 0.65214 0.74904 0.0
H570 H 0.52895 0.65991 0.77582 0.0
H571 H 0.55455 0.60307 0.08736 0.0
H572 H 0.53198 0.55806 0.0112 0.0
H573 H 0.4745 0.60616 0.84244 0.0
C574 C 0.52659 0.70548 0.99158 0.0
C575 C 0.54637 0.71661 0.06478 0.0
C576 C 0.56358 0.69822 0.11461 0.0
C577 C 0.55978 0.6687 0.09609 0.0
C578 C 0.53849 0.6582 0.02845 0.0
C579 C 0.52258 0.67617 0.97565 0.0
C580 C 0.50004 0.65989 0.91102 0.0
C581 C 0.46913 0.66694 0.9418 0.0
C582 C 0.50666 0.66531 0.79727 0.0
C583 C 0.50503 0.62989 0.93798 0.0
C584 C 0.52752 0.62914 0.0046 0.0
C585 C 0.53684 0.60345 0.03547 0.0
C586 C 0.52369 0.57801 0.99304 0.0
C587 C 0.50121 0.57867 0.92242 0.0
C588 C 0.4912 0.6049 0.89789 0.0
H589 H 0.80403 0.48764 0.03906 0.0
H590 H 0.8048 0.57868 0.01053 0.0
H591 H 0.8578 0.58195 0.97131 0.0
H592 H 0.87141 0.48746 0.15951 0.0
H593 H 0.88218 0.45598 0.09381 0.0
H594 H 0.84424 0.4606 0.11537 0.0
H595 H 0.83506 0.45475 0.92113 0.0
H596 H 0.87271 0.44907 0.89977 0.0
H597 H 0.85709 0.47665 0.8329 0.0
H598 H 0.9107 0.57561 0.95888 0.0
H599 H 0.95863 0.55949 0.91614 0.0
H600 H 0.92279 0.47157 0.93746 0.0
C601 C 0.81548 0.50804 0.02186 0.0
C602 C 0.80097 0.53296 0.02666 0.0
C603 C 0.81602 0.55953 0.0054 0.0
C604 C 0.84593 0.56151 0.98439 0.0
C605 C 0.86 0.53663 0.98493 0.0
C606 C 0.84519 0.51031 1.00005 0.0
C607 C 0.86535 0.48681 0.99409 0.0
C608 C 0.86581 0.47184 0.09679 0.0
C609 C 0.85707 0.46558 0.90674 0.0
C610 C 0.89387 0.50403 0.97195 0.0
C611 C 0.89037 0.5328 0.97103 0.0
C612 C 0.91364 0.55313 0.95673 0.0
C613 C 0.94087 0.5437 0.93394 0.0
C614 C 0.94418 0.51422 0.92202 0.0
C615 C 0.92075 0.49417 0.9461 0.0
H616 H 0.05644 0.23028 0.86172 0.0
H617 H 0.97637 0.22219 0.04027 0.0
H618 H 0.96588 0.17304 0.97392 0.0
H619 H 0.02586 0.18436 0.63523 0.0
H620 H 0.06027 0.17007 0.61124 0.0
H621 H 0.05912 0.20591 0.6607 0.0
H622 H 0.09021 0.19374 0.81231 0.0
H623 H 0.09093 0.1578 0.76412 0.0
H624 H 0.07765 0.16437 0.89209 0.0
H625 H 0.97007 0.12234 0.92116 0.0
H626 H 0.98136 0.07587 0.84688 0.0
H627 H 0.05566 0.11694 0.68325 0.0
C628 C 0.0359 0.21867 0.88142 0.0
C629 C 0.01689 0.23006 0.95477 0.0
C630 C 0.99071 0.21397 0.98229 0.0
C631 C 0.98487 0.18591 0.94622 0.0
C632 C 1.00494 0.17457 0.87932 0.0
C633 C 0.02929 0.19077 0.84319 0.0
C634 C 0.04756 0.17297 0.77294 0.0
C635 C 0.04824 0.18398 0.66353 0.0
C636 C 0.07841 0.17219 0.81281 0.0
C637 C 0.03051 0.144 0.77983 0.0
C638 C 1.00618 0.14543 0.84271 0.0
C639 C 0.98852 0.1211 0.86924 0.0
C640 C 0.9953 0.09477 0.82777 0.0
C641 C 0.01924 0.09292 0.75925 0.0
C642 C 0.03706 0.11788 0.73479 0.0
H643 H 0.30893 0.05721 0.90324 0.0
H644 H 0.2782 0.96941 0.84276 0.0
H645 H 0.32098 0.96367 0.73026 0.0
H646 H 0.34561 0.06708 0.63093 0.0
H647 H 0.3747 0.09079 0.68116 0.0
H648 H 0.3387 0.09042 0.73784 0.0
H649 H 0.35888 0.08062 0.91452 0.0
H650 H 0.39462 0.08206 0.85635 0.0
H651 H 0.38092 0.0515 0.92677 0.0
H652 H 0.36995 0.96424 0.6524 0.0
H653 H 0.4217 0.97155 0.60443 0.0
H654 H 0.42389 0.05919 0.71355 0.0
C655 C 0.31062 0.03735 0.8616 0.0
C656 C 0.28998 0.01375 0.88007 0.0
C657 C 0.2934 0.98772 0.82778 0.0
C658 C 0.31777 0.98427 0.76436 0.0
C659 C 0.33858 1.00726 0.75213 0.0
C660 C 0.33514 0.03356 0.79734 0.0
C661 C 0.3621 0.05398 0.77606 0.0
C662 C 0.35484 0.07692 0.70211 0.0
C663 C 0.37482 0.06778 0.8743 0.0
C664 C 0.38236 0.03394 0.72386 0.0
C665 C 0.36767 1.00751 0.70691 0.0
C666 C 0.38152 0.98498 0.66344 0.0
C667 C 0.41109 0.98934 0.63679 0.0
C668 C 0.42707 0.01591 0.65493 0.0
C669 C 0.4123 0.03866 0.69813 0.0
H670 H 0.46215 0.28977 0.8325 0.0
H671 H 0.54795 0.29374 0.95695 0.0
H672 H 0.55828 0.34277 0.89587 0.0
H673 H 0.49414 0.3323 0.59455 0.0
H674 H 0.46034 0.34751 0.5774 0.0
H675 H 0.46029 0.31202 0.62513 0.0
H676 H 0.4298 0.32639 0.78357 0.0
H677 H 0.42979 0.36156 0.73365 0.0
H678 H 0.44257 0.35698 0.85937 0.0
H679 H 0.55444 0.39432 0.85778 0.0
H680 H 0.54416 0.44105 0.79308 0.0
H681 H 0.46555 0.40223 0.65742 0.0
C682 C 0.48354 0.30056 0.84247 0.0
C683 C 0.50404 0.28831 0.90236 0.0
C684 C 0.53183 0.30299 0.91336 0.0
C685 C 0.53781 0.3309 0.87926 0.0
C686 C 0.5165 0.3432 0.82696 0.0
C687 C 0.49066 0.32792 0.80222 0.0
C688 C 0.47279 0.34579 0.73681 0.0
C689 C 0.47184 0.33369 0.62697 0.0
C690 C 0.44194 0.34776 0.78117 0.0
C691 C 0.49084 0.37445 0.74086 0.0
C692 C 0.51609 0.37227 0.79282 0.0
C693 C 0.53525 0.39609 0.81397 0.0
C694 C 0.52905 0.42263 0.77819 0.0
C695 C 0.50412 0.42528 0.72049 0.0
C696 C 0.48481 0.40078 0.70123 0.0
H697 H 0.22501 0.54948 0.86273 0.0
H698 H 0.22595 0.46139 0.94337 0.0
H699 H 0.18047 0.44951 0.85039 0.0
H700 H 0.15066 0.55282 0.90434 0.0
H701 H 0.14612 0.57666 0.80221 0.0
H702 H 0.18076 0.57683 0.86126 0.0
H703 H 0.20474 0.56776 0.683 0.0
H704 H 0.16985 0.56723 0.62497 0.0
H705 H 0.19129 0.53739 0.60673 0.0
H706 H 0.13058 0.44896 0.77484 0.0
H707 H 0.08309 0.45863 0.7077 0.0
H708 H 0.11423 0.54709 0.67055 0.0
C709 C 0.21628 0.52748 0.85645 0.0
C710 C 0.2297 0.50614 0.90721 0.0
C711 C 0.2169 0.4778 0.90143 0.0
C712 C 0.19077 0.471 0.84998 0.0
C713 C 0.17753 0.49277 0.80428 0.0
C714 C 0.1901 0.52042 0.80578 0.0
C715 C 0.17036 0.54028 0.75813 0.0
C716 C 0.16148 0.56299 0.83614 0.0
C717 C 0.18493 0.55397 0.66251 0.0
C718 C 0.14449 0.51962 0.7307 0.0
C719 C 0.14904 0.49232 0.75861 0.0
C720 C 0.12719 0.47008 0.75022 0.0
C721 C 0.10022 0.47578 0.71225 0.0
C722 C 0.09517 0.50341 0.6815 0.0
C723 C 0.11777 0.52556 0.69023 0.0
H724 H 0.04773 0.80352 0.32777 0.0
H725 H 0.96298 0.78795 0.19722 0.0
H726 H 0.94908 0.83375 0.27163 0.0
H727 H 0.02421 0.84007 0.5675 0.0
H728 H 0.05635 0.86463 0.56635 0.0
H729 H 0.05779 0.82925 0.5129 0.0
H730 H 0.07776 0.8507 0.3417 0.0
H731 H 0.07598 0.88607 0.39434 0.0
H732 H 0.05738 0.87562 0.27873 0.0
H733 H 0.94787 0.88499 0.33717 0.0
H734 H 0.95633 0.93368 0.41207 0.0
H735 H 0.04087 0.91436 0.50973 0.0
C736 C 0.02584 0.80929 0.31904 0.0
C737 C 1.0061 0.79195 0.25943 0.0
C738 C 0.97797 0.8005 0.24574 0.0
C739 C 0.97012 0.82666 0.28654 0.0
C740 C 0.99055 0.84383 0.34181 0.0
C741 C 0.01763 0.83514 0.36014 0.0
C742 C 0.03614 0.85795 0.41781 0.0
C743 C 0.04408 0.84734 0.52236 0.0
C744 C 0.06342 0.86817 0.35437 0.0
C745 C 0.0154 0.88097 0.4288 0.0
C746 C 0.98937 0.87266 0.38296 0.0
C747 C 0.96787 0.89139 0.37554 0.0
C748 C 0.97291 0.91904 0.41767 0.0
C749 C 0.99899 0.92755 0.4682 0.0
C750 C 0.02042 0.90817 0.47374 0.0
H751 H 0.71213 0.03368 0.3171 0.0
H752 H 0.71632 0.95634 0.13632 0.0
H753 H 0.66693 0.93925 0.19882 0.0
H754 H 0.66685 0.99664 0.5339 0.0
H755 H 0.64933 0.02892 0.55908 0.0
H756 H 0.68608 0.03086 0.51043 0.0
H757 H 0.66934 0.06135 0.36213 0.0
H758 H 0.63356 0.05769 0.42025 0.0
H759 H 0.63861 0.04783 0.28961 0.0
H760 H 0.61648 0.93223 0.26779 0.0
H761 H 0.56725 0.93462 0.3396 0.0
H762 H 0.59252 0.01805 0.47184 0.0
C763 C 0.70279 0.01279 0.29369 0.0
C764 C 0.71811 0.9959 0.22358 0.0
C765 C 0.70517 0.96906 0.1919 0.0
C766 C 0.67706 0.95942 0.22631 0.0
C767 C 0.66211 0.97687 0.29284 0.0
C768 C 0.67449 1.00297 0.32696 0.0
C769 C 0.65331 0.01748 0.39793 0.0
C770 C 0.66455 0.01844 0.50691 0.0
C771 C 0.64848 0.04775 0.36504 0.0
C772 C 0.62603 0.99683 0.38898 0.0
C773 C 0.63227 0.97308 0.33138 0.0
C774 C 0.61136 0.95062 0.31331 0.0
C775 C 0.58329 0.95226 0.35452 0.0
C776 C 0.57572 0.97649 0.41167 0.0
C777 C 0.59756 0.99915 0.42912 0.0
H778 H 0.54724 0.72463 0.35111 0.0
H779 H 0.47518 0.71525 0.14717 0.0
H780 H 0.4626 0.66608 0.20622 0.0
H781 H 0.57035 0.65727 0.3209 0.0
H782 H 0.57872 0.65256 0.45209 0.0
H783 H 0.57973 0.68782 0.40224 0.0
H784 H 0.543 0.70137 0.54542 0.0
H785 H 0.54271 0.66598 0.59393 0.0
H786 H 0.50912 0.67974 0.56154 0.0
H787 H 0.46492 0.6152 0.25798 0.0
H788 H 0.47307 0.56939 0.33538 0.0
H789 H 0.54017 0.6122 0.52172 0.0
C790 C 0.52799 0.7126 0.32295 0.0
C791 C 0.51177 0.72385 0.24603 0.0
C792 C 0.48732 0.70723 0.2079 0.0
C793 C 0.48043 0.67914 0.23953 0.0
C794 C 0.49788 0.66807 0.31091 0.0
C795 C 0.52047 0.68461 0.35538 0.0
C796 C 0.53587 0.66735 0.43015 0.0
C797 C 0.56807 0.66621 0.39943 0.0
C798 C 0.53244 0.67933 0.53926 0.0
C799 C 0.51914 0.6383 0.4178 0.0
C800 C 0.49761 0.63914 0.34727 0.0
C801 C 0.4811 0.61449 0.31555 0.0
C802 C 0.48608 0.58851 0.35911 0.0
C803 C 0.50701 0.5873 0.43505 0.0
C804 C 0.52373 0.6126 0.46482 0.0
H805 H 0.8101 0.56349 0.22086 0.0
H806 H 0.76967 0.47896 0.27705 0.0
H807 H 0.81176 0.46889 0.37919 0.0
H808 H 0.88186 0.54416 0.18135 0.0
H809 H 0.89883 0.57577 0.24109 0.0
H810 H 0.8641 0.5768 0.18407 0.0
H811 H 0.84356 0.5952 0.35722 0.0
H812 H 0.8784 0.59335 0.41354 0.0
H813 H 0.84645 0.57467 0.46995 0.0
H814 H 0.8605 0.46717 0.46646 0.0
H815 H 0.91088 0.47346 0.52745 0.0
H816 H 0.92181 0.55768 0.40077 0.0
C817 C 0.80988 0.54306 0.25654 0.0
C818 C 0.78623 0.52211 0.24208 0.0
C819 C 0.78698 0.49557 0.28928 0.0
C820 C 0.81104 0.48961 0.34644 0.0
C821 C 0.83443 0.51038 0.35588 0.0
C822 C 0.83396 0.53667 0.31242 0.0
C823 C 0.86248 0.55478 0.32916 0.0
C824 C 0.87767 0.56339 0.22765 0.0
C825 C 0.85742 0.58106 0.39648 0.0
C826 C 0.8796 0.53422 0.38481 0.0
C827 C 0.86276 0.50896 0.40176 0.0
C828 C 0.87373 0.48687 0.45314 0.0
C829 C 0.90244 0.49062 0.48747 0.0
C830 C 0.92043 0.51592 0.46814 0.0
C831 C 0.90873 0.53798 0.41579 0.0
loop_
_geom_bond_atom_site_label_1
_geom_bond_atom_site_label_2
_geom_bond_distance
_geom_bond_site_symmetry_2
_ccdc_geom_bond_type
C0 N1 1.317 . S
C0 N2 1.348 . S
C0 C3 1.485 . S
N1 C0 1.317 . S
N1 N5 1.370 . S
N2 C0 1.348 . S
N2 C4 1.346 . S
C3 C0 1.485 . S
C3 H7 0.960 . S
C3 H8 0.961 . S
C3 H9 0.960 . S
C4 N2 1.346 . S
C4 N5 1.307 . S
C4 C6 1.486 1_554 S
N5 N1 1.370 . S
N5 C4 1.307 . S
C6 C4 1.486 1_556 S
C6 H10 0.960 . S
C6 H11 0.960 . S
C6 H12 0.959 . S
H7 C3 0.960 . S
H8 C3 0.961 . S
H9 C3 0.960 . S
H10 C6 0.960 . S
H11 C6 0.960 . S
H12 C6 0.959 . S
C13 N14 1.317 . S
C13 N15 1.351 . S
C13 C16 1.485 . S
N14 C13 1.317 . S
N14 N18 1.370 . S
N15 C13 1.351 . S
N15 C17 1.349 1_654 S
C16 C13 1.485 . S
C16 H20 0.960 1_655 S
C16 H21 0.961 . S
C16 H22 0.960 . S
C17 N15 1.349 1_456 S
C17 N18 1.306 1_456 S
C17 C19 1.486 . S
N18 N14 1.370 . S
N18 C17 1.306 1_654 S
C19 C17 1.486 . S
C19 H23 0.960 1_455 S
C19 H24 0.960 . S
C19 H25 0.959 . S
H20 C16 0.960 1_455 S
H21 C16 0.961 . S
H22 C16 0.960 . S
H23 C19 0.960 1_655 S
H24 C19 0.960 . S
H25 C19 0.959 . S
C26 N27 1.317 . S
C26 N28 1.348 . S
C26 C29 1.485 . S
N27 C26 1.317 . S
N27 N31 1.370 . S
N28 C26 1.348 . S
N28 C30 1.346 1_554 S
C29 C26 1.485 . S
C29 H33 0.960 . S
C29 H34 0.961 . S
C29 H35 0.960 . S
C30 N28 1.346 1_556 S
C30 N31 1.307 1_556 S
C30 C32 1.486 . S
N31 N27 1.370 . S
N31 C30 1.307 1_554 S
C32 C30 1.486 . S
C32 H36 0.960 . S
C32 H37 0.960 . S
C32 H38 0.959 . S
H33 C29 0.960 . S
H34 C29 0.961 . S
H35 C29 0.960 . S
H36 C32 0.960 . S
H37 C32 0.960 . S
H38 C32 0.959 . S
C39 N40 1.317 . S
C39 N41 1.348 . S
C39 C42 1.485 . S
N40 C39 1.317 . S
N40 N44 1.370 . S
N41 C39 1.348 . S
N41 C43 1.346 . S
C42 C39 1.485 . S
C42 H46 0.960 . S
C42 H47 0.961 . S
C42 H48 0.960 . S
C43 N41 1.346 . S
C43 N44 1.307 . S
C43 C45 1.486 1_554 S
N44 N40 1.370 . S
N44 C43 1.307 . S
C45 C43 1.486 1_556 S
C45 H49 0.960 . S
C45 H50 0.960 . S
C45 H51 0.959 . S
H46 C42 0.960 . S
H47 C42 0.961 . S
H48 C42 0.960 . S
H49 C45 0.960 . S
H50 C45 0.960 . S
H51 C45 0.959 . S
C52 N53 1.317 . S
C52 N54 1.348 1_556 S
C52 C55 1.485 . S
N53 C52 1.317 . S
N53 N57 1.370 1_556 S
N54 C52 1.348 1_554 S
N54 C56 1.346 . S
C55 C52 1.485 . S
C55 H59 0.960 . S
C55 H60 0.961 . S
C55 H61 0.960 . S
C56 N54 1.346 . S
C56 N57 1.307 . S
C56 C58 1.486 . S
N57 N53 1.370 1_554 S
N57 C56 1.307 . S
C58 C56 1.486 . S
C58 H62 0.960 . S
C58 H63 0.960 . S
C58 H64 0.959 . S
H59 C55 0.960 . S
H60 C55 0.961 . S
H61 C55 0.960 . S
H62 C58 0.960 . S
H63 C58 0.960 . S
H64 C58 0.959 . S
C65 N66 1.317 . S
C65 N67 1.349 . S
C65 C68 1.485 1_554 S
N66 C65 1.317 . S
N66 N70 1.371 . S
N67 C65 1.349 . S
N67 C69 1.342 1_655 S
C68 C65 1.485 1_556 S
C68 H72 0.960 1_655 S
C68 H73 0.961 . S
C68 H74 0.960 . S
C69 N67 1.342 1_455 S
C69 N70 1.308 1_455 S
C69 C71 1.487 . S
N70 N66 1.371 . S
N70 C69 1.308 1_655 S
C71 C69 1.487 . S
C71 H75 0.960 1_455 S
C71 H76 0.960 . S
C71 H77 0.959 . S
H72 C68 0.960 1_455 S
H73 C68 0.961 . S
H74 C68 0.960 . S
H75 C71 0.960 1_655 S
H76 C71 0.960 . S
H77 C71 0.959 . S
C78 N79 1.317 . S
C78 N80 1.348 . S
C78 C81 1.485 1_554 S
N79 C78 1.317 . S
N79 N83 1.370 . S
N80 C78 1.348 . S
N80 C82 1.346 . S
C81 C78 1.485 1_556 S
C81 H85 0.960 . S
C81 H86 0.961 . S
C81 H87 0.960 . S
C82 N80 1.346 . S
C82 N83 1.307 . S
C82 C84 1.486 . S
N83 N79 1.370 . S
N83 C82 1.307 . S
C84 C82 1.486 . S
C84 H88 0.960 . S
C84 H89 0.960 . S
C84 H90 0.959 . S
H85 C81 0.960 . S
H86 C81 0.961 . S
H87 C81 0.960 . S
H88 C84 0.960 . S
H89 C84 0.960 . S
H90 C84 0.959 . S
C91 N92 1.317 . S
C91 N93 1.348 1_556 S
C91 C94 1.485 . S
N92 C91 1.317 . S
N92 N96 1.370 1_556 S
N93 C91 1.348 1_554 S
N93 C95 1.346 . S
C94 C91 1.485 . S
C94 H98 0.960 . S
C94 H99 0.961 . S
C94 H100 0.960 . S
C95 N93 1.346 . S
C95 N96 1.307 . S
C95 C97 1.486 . S
N96 N92 1.370 1_554 S
N96 C95 1.307 . S
C97 C95 1.486 . S
C97 H101 0.960 . S
C97 H102 0.960 . S
C97 H103 0.959 . S
H98 C94 0.960 . S
H99 C94 0.961 . S
H100 C94 0.960 . S
H101 C97 0.960 . S
H102 C97 0.960 . S
H103 C97 0.959 . S
Dy104 O108 2.398 . S
Dy104 O109 2.491 1_455 S
Dy104 O110 2.403 . S
Dy104 O111 2.664 1_565 S
Dy104 O115 2.326 . S
Dy104 O119 2.310 1_455 S
Dy104 O120 2.351 1_565 S
C105 O116 1.185 . S
C105 O117 1.355 1_655 S
C106 O108 1.185 . S
C106 O109 1.355 1_455 S
Dy107 O111 2.310 1_655 S
Dy107 O114 2.351 1_545 S
Dy107 O116 2.398 . S
Dy107 O117 2.491 1_655 S
Dy107 O118 2.403 . S
Dy107 O119 2.664 1_545 S
Dy107 O121 2.326 . S
O108 Dy104 2.398 . S
O108 C106 1.185 . S
O109 Dy104 2.491 1_655 S
O109 C106 1.355 1_655 S
O110 Dy104 2.403 . S
O110 C112 1.254 1_565 S
O111 Dy104 2.664 1_545 S
O111 Dy107 2.310 1_455 S
O111 C112 1.268 . S
C112 O110 1.254 1_545 S
C112 O111 1.268 . S
C113 O118 1.254 1_565 S
C113 O119 1.268 . S
O114 Dy107 2.351 1_565 S
O114 C122 1.249 . S
O115 Dy104 2.326 . S
O115 C122 1.267 1_455 S
O116 C105 1.185 . S
O116 Dy107 2.398 . S
O117 C105 1.355 1_455 S
O117 Dy107 2.491 1_455 S
O118 Dy107 2.403 . S
O118 C113 1.254 1_545 S
O119 Dy104 2.310 1_655 S
O119 Dy107 2.664 1_565 S
O119 C113 1.268 . S
O120 Dy104 2.351 1_545 S
O120 C123 1.249 . S
O121 Dy107 2.326 . S
O121 C123 1.267 1_655 S
C122 O114 1.249 . S
C122 O115 1.267 1_655 S
C123 O120 1.249 . S
C123 O121 1.267 1_455 S
Dy124 O128 2.398 . S
Dy124 O129 2.491 1_565 S
Dy124 O130 2.403 . S
Dy124 O131 2.664 . S
Dy124 O135 2.326 1_565 S
Dy124 O139 2.310 1_565 S
Dy124 O140 2.351 . S
C125 O136 1.185 . S
C125 O137 1.355 1_545 S
C126 O128 1.185 1_545 S
C126 O129 1.355 . S
Dy127 O131 2.310 1_545 S
Dy127 O134 2.351 . S
Dy127 O136 2.398 . S
Dy127 O137 2.491 1_545 S
Dy127 O138 2.403 . S
Dy127 O139 2.664 . S
Dy127 O141 2.326 1_545 S
O128 Dy124 2.398 . S
O128 C126 1.185 1_565 S
O129 Dy124 2.491 1_545 S
O129 C126 1.355 . S
O130 Dy124 2.403 . S
O130 C132 1.254 . S
O131 Dy124 2.664 . S
O131 Dy127 2.310 1_565 S
O131 C132 1.268 . S
C132 O130 1.254 . S
C132 O131 1.268 . S
C133 O138 1.254 . S
C133 O139 1.268 . S
O134 Dy127 2.351 . S
O134 C142 1.249 . S
O135 Dy124 2.326 1_545 S
O135 C142 1.267 . S
O136 C125 1.185 . S
O136 Dy127 2.398 . S
O137 C125 1.355 1_565 S
O137 Dy127 2.491 1_565 S
O138 Dy127 2.403 . S
O138 C133 1.254 . S
O139 Dy124 2.310 1_545 S
O139 Dy127 2.664 . S
O139 C133 1.268 . S
O140 Dy124 2.351 . S
O140 C143 1.249 . S
O141 Dy127 2.326 1_565 S
O141 C143 1.267 . S
C142 O134 1.249 . S
C142 O135 1.267 . S
C143 O140 1.249 . S
C143 O141 1.267 . S
Dy144 O148 2.398 . S
Dy144 O149 2.491 . S
Dy144 O150 2.403 . S
Dy144 O151 2.664 . S
Dy144 O155 2.326 . S
Dy144 O159 2.310 . S
Dy144 O160 2.351 . S
C145 O156 1.185 . S
C145 O157 1.355 . S
C146 O148 1.185 . S
C146 O149 1.355 . S
Dy147 O151 2.310 . S
Dy147 O154 2.351 . S
Dy147 O156 2.398 . S
Dy147 O157 2.491 . S
Dy147 O158 2.403 . S
Dy147 O159 2.664 . S
Dy147 O161 2.326 . S
O148 Dy144 2.398 . S
O148 C146 1.185 . S
O149 Dy144 2.491 . S
O149 C146 1.355 . S
O150 Dy144 2.403 . S
O150 C152 1.254 . S
O151 Dy144 2.664 . S
O151 Dy147 2.310 . S
O151 C152 1.268 . S
C152 O150 1.254 . S
C152 O151 1.268 . S
C153 O158 1.254 . S
C153 O159 1.268 . S
O154 Dy147 2.351 . S
O154 C162 1.249 . S
O155 Dy144 2.326 . S
O155 C162 1.267 . S
O156 C145 1.185 . S
O156 Dy147 2.398 . S
O157 C145 1.355 . S
O157 Dy147 2.491 . S
O158 Dy147 2.403 . S
O158 C153 1.254 . S
O159 Dy144 2.310 . S
O159 Dy147 2.664 . S
O159 C153 1.268 . S
O160 Dy144 2.351 . S
O160 C163 1.249 . S
O161 Dy147 2.326 . S
O161 C163 1.267 . S
C162 O154 1.249 . S
C162 O155 1.267 . S
C163 O160 1.249 . S
C163 O161 1.267 . S
Dy164 O168 2.398 . S
Dy164 O169 2.491 . S
Dy164 O170 2.403 . S
Dy164 O171 2.664 1_655 S
Dy164 O175 2.326 . S
Dy164 O179 2.310 . S
Dy164 O180 2.351 1_655 S
C165 O176 1.185 . S
C165 O177 1.355 . S
C166 O168 1.185 . S
C166 O169 1.355 . S
Dy167 O171 2.310 . S
Dy167 O174 2.351 1_455 S
Dy167 O176 2.398 . S
Dy167 O177 2.491 . S
Dy167 O178 2.403 . S
Dy167 O179 2.664 1_455 S
Dy167 O181 2.326 . S
O168 Dy164 2.398 . S
O168 C166 1.185 . S
O169 Dy164 2.491 . S
O169 C166 1.355 . S
O170 Dy164 2.403 . S
O170 C172 1.254 . S
O171 Dy164 2.664 1_455 S
O171 Dy167 2.310 . S
O171 C172 1.268 1_455 S
C172 O170 1.254 . S
C172 O171 1.268 1_655 S
C173 O178 1.254 . S
C173 O179 1.268 1_455 S
O174 Dy167 2.351 1_655 S
O174 C182 1.249 . S
O175 Dy164 2.326 . S
O175 C182 1.267 . S
O176 C165 1.185 . S
O176 Dy167 2.398 . S
O177 C165 1.355 . S
O177 Dy167 2.491 . S
O178 Dy167 2.403 . S
O178 C173 1.254 . S
O179 Dy164 2.310 . S
O179 Dy167 2.664 1_655 S
O179 C173 1.268 1_655 S
O180 Dy164 2.351 1_455 S
O180 C183 1.249 . S
O181 Dy167 2.326 . S
O181 C183 1.267 . S
C182 O174 1.249 . S
C182 O175 1.267 . S
C183 O180 1.249 . S
C183 O181 1.267 . S
H184 C196 0.930 . S
H185 C198 0.930 . S
H186 C199 0.930 . S
H187 C203 0.959 1_545 S
H188 C203 0.959 . S
H189 C203 0.961 . S
H190 C204 0.960 . S
H191 C204 0.961 . S
H192 C204 0.959 . S
H193 C207 0.929 . S
H194 C208 0.931 . S
H195 C210 0.930 1_565 S
C196 H184 0.930 . S
C196 C197 1.399 . S
C196 C201 1.399 . S
C197 C196 1.399 . S
C197 C198 1.376 . S
C198 H185 0.930 . S
C198 C197 1.376 . S
C198 C199 1.388 . S
C199 H186 0.930 . S
C199 C198 1.388 . S
C199 C200 1.390 . S
C200 C199 1.390 . S
C200 C201 1.394 . S
C200 C206 1.465 . S
C201 C196 1.399 . S
C201 C200 1.394 . S
C201 C202 1.494 1_545 S
C202 C201 1.494 1_565 S
C202 C203 1.505 . S
C202 C204 1.597 . S
C202 C205 1.510 1_565 S
C203 H187 0.959 1_565 S
C203 H188 0.959 . S
C203 H189 0.961 . S
C203 C202 1.505 . S
C204 H190 0.960 . S
C204 H191 0.961 . S
C204 H192 0.959 . S
C204 C202 1.597 . S
C205 C202 1.510 1_545 S
C205 C206 1.396 . S
C205 C210 1.390 . S
C206 C200 1.465 . S
C206 C205 1.396 . S
C206 C207 1.399 . S
C207 H193 0.929 . S
C207 C206 1.399 . S
C207 C208 1.385 . S
C208 H194 0.931 . S
C208 C207 1.385 . S
C208 C209 1.389 . S
C209 C208 1.389 . S
C209 C210 1.387 . S
C210 H195 0.930 1_545 S
C210 C205 1.390 . S
C210 C209 1.387 . S
H211 C223 0.930 . S
H212 C225 0.930 . S
H213 C226 0.930 . S
H214 C230 0.959 . S
H215 C230 0.959 . S
H216 C230 0.961 . S
H217 C231 0.960 . S
H218 C231 0.961 . S
H219 C231 0.959 . S
H220 C234 0.929 . S
H221 C235 0.931 . S
H222 C237 0.930 . S
C223 H211 0.930 . S
C223 C224 1.399 . S
C223 C228 1.399 . S
C224 C223 1.399 . S
C224 C225 1.376 . S
C225 H212 0.930 . S
C225 C224 1.376 . S
C225 C226 1.388 . S
C226 H213 0.930 . S
C226 C225 1.388 . S
C226 C227 1.390 . S
C227 C226 1.390 . S
C227 C228 1.394 . S
C227 C233 1.465 . S
C228 C223 1.399 . S
C228 C227 1.394 . S
C228 C229 1.516 . S
C229 C228 1.516 . S
C229 C230 1.502 . S
C229 C231 1.561 . S
C229 C232 1.526 . S
C230 H214 0.959 . S
C230 H215 0.959 . S
C230 H216 0.961 . S
C230 C229 1.502 . S
C231 H217 0.960 . S
C231 H218 0.961 . S
C231 H219 0.959 . S
C231 C229 1.561 . S
C232 C229 1.526 . S
C232 C233 1.396 . S
C232 C237 1.390 . S
C233 C227 1.465 . S
C233 C232 1.396 . S
C233 C234 1.399 . S
C234 H220 0.929 . S
C234 C233 1.399 . S
C234 C235 1.385 . S
C235 H221 0.931 . S
C235 C234 1.385 . S
C235 C236 1.389 . S
C236 C235 1.389 . S
C236 C237 1.387 . S
C237 H222 0.930 . S
C237 C232 1.390 . S
C237 C236 1.387 . S
H238 C250 0.930 . S
H239 C252 0.930 . S
H240 C253 0.930 . S
H241 C257 0.959 . S
H242 C257 0.959 . S
H243 C257 0.961 . S
H244 C258 0.960 . S
H245 C258 0.961 . S
H246 C258 0.959 . S
H247 C261 0.929 . S
H248 C262 0.931 . S
H249 C264 0.930 . S
C250 H238 0.930 . S
C250 C251 1.399 . S
C250 C255 1.399 . S
C251 C250 1.399 . S
C251 C252 1.376 . S
C252 H239 0.930 . S
C252 C251 1.376 . S
C252 C253 1.388 . S
C253 H240 0.930 . S
C253 C252 1.388 . S
C253 C254 1.390 . S
C254 C253 1.390 . S
C254 C255 1.394 . S
C254 C260 1.465 . S
C255 C250 1.399 . S
C255 C254 1.394 . S
C255 C256 1.516 . S
C256 C255 1.516 . S
C256 C257 1.502 . S
C256 C258 1.561 . S
C256 C259 1.526 . S
C257 H241 0.959 . S
C257 H242 0.959 . S
C257 H243 0.961 . S
C257 C256 1.502 . S
C258 H244 0.960 . S
C258 H245 0.961 . S
C258 H246 0.959 . S
C258 C256 1.561 . S
C259 C256 1.526 . S
C259 C260 1.396 . S
C259 C264 1.390 . S
C260 C254 1.465 . S
C260 C259 1.396 . S
C260 C261 1.399 . S
C261 H247 0.929 . S
C261 C260 1.399 . S
C261 C262 1.385 . S
C262 H248 0.931 . S
C262 C261 1.385 . S
C262 C263 1.389 . S
C263 C262 1.389 . S
C263 C264 1.387 . S
C264 H249 0.930 . S
C264 C259 1.390 . S
C264 C263 1.387 . S
H265 C277 0.930 . S
H266 C279 0.930 . S
H267 C280 0.930 . S
H268 C284 0.959 . S
H269 C284 0.959 . S
H270 C284 0.961 . S
H271 C285 0.960 . S
H272 C285 0.961 . S
H273 C285 0.959 . S
H274 C288 0.929 . S
H275 C289 0.931 . S
H276 C291 0.930 . S
C277 H265 0.930 . S
C277 C278 1.399 1_455 S
C277 C282 1.399 . S
C278 C277 1.399 1_655 S
C278 C279 1.376 . S
C279 H266 0.930 . S
C279 C278 1.376 . S
C279 C280 1.388 . S
C280 H267 0.930 . S
C280 C279 1.388 . S
C280 C281 1.390 . S
C281 C280 1.390 . S
C281 C282 1.394 1_655 S
C281 C287 1.465 . S
C282 C277 1.399 . S
C282 C281 1.394 1_455 S
C282 C283 1.516 . S
C283 C282 1.516 . S
C283 C284 1.502 . S
C283 C285 1.561 . S
C283 C286 1.526 . S
C284 H268 0.959 . S
C284 H269 0.959 . S
C284 H270 0.961 . S
C284 C283 1.502 . S
C285 H271 0.960 . S
C285 H272 0.961 . S
C285 H273 0.959 . S
C285 C283 1.561 . S
C286 C283 1.526 . S
C286 C287 1.396 1_455 S
C286 C291 1.390 . S
C287 C281 1.465 . S
C287 C286 1.396 1_655 S
C287 C288 1.399 . S
C288 H274 0.929 . S
C288 C287 1.399 . S
C288 C289 1.385 . S
C289 H275 0.931 . S
C289 C288 1.385 . S
C289 C290 1.389 . S
C290 C289 1.389 . S
C290 C291 1.387 1_655 S
C291 H276 0.930 . S
C291 C286 1.390 . S
C291 C290 1.387 1_455 S
H292 C304 0.930 . S
H293 C306 0.930 1_544 S
H294 C307 0.930 . S
H295 C311 0.959 . S
H296 C311 0.959 . S
H297 C311 0.961 . S
H298 C312 0.960 . S
H299 C312 0.961 . S
H300 C312 0.959 . S
H301 C315 0.929 . S
H302 C316 0.931 . S
H303 C318 0.930 . S
C304 H292 0.930 . S
C304 C305 1.399 . S
C304 C309 1.399 . S
C305 C304 1.399 . S
C305 C306 1.376 . S
C306 H293 0.930 1_566 S
C306 C305 1.376 . S
C306 C307 1.388 1_565 S
C307 H294 0.930 . S
C307 C306 1.388 1_545 S
C307 C308 1.390 1_545 S
C308 C307 1.390 1_565 S
C308 C309 1.394 . S
C308 C314 1.465 . S
C309 C304 1.399 . S
C309 C308 1.394 . S
C309 C310 1.516 . S
C310 C309 1.516 . S
C310 C311 1.502 . S
C310 C312 1.561 . S
C310 C313 1.526 . S
C311 H295 0.959 . S
C311 H296 0.959 . S
C311 H297 0.961 . S
C311 C310 1.502 . S
C312 H298 0.960 . S
C312 H299 0.961 . S
C312 H300 0.959 . S
C312 C310 1.561 . S
C313 C310 1.526 . S
C313 C314 1.396 . S
C313 C318 1.390 . S
C314 C308 1.465 . S
C314 C313 1.396 . S
C314 C315 1.399 1_565 S
C315 H301 0.929 . S
C315 C314 1.399 1_545 S
C315 C316 1.385 . S
C316 H302 0.931 . S
C316 C315 1.385 . S
C316 C317 1.389 1_545 S
C317 C316 1.389 1_565 S
C317 C318 1.387 . S
C318 H303 0.930 . S
C318 C313 1.390 . S
C318 C317 1.387 . S
H319 C331 0.930 . S
H320 C333 0.930 . S
H321 C334 0.930 . S
H322 C338 0.959 . S
H323 C338 0.959 . S
H324 C338 0.961 . S
H325 C339 0.960 1_554 S
H326 C339 0.961 . S
H327 C339 0.959 . S
H328 C342 0.929 . S
H329 C343 0.931 . S
H330 C345 0.930 . S
C331 H319 0.930 . S
C331 C332 1.399 . S
C331 C336 1.399 1_554 S
C332 C331 1.399 . S
C332 C333 1.376 1_554 S
C333 H320 0.930 . S
C333 C332 1.376 1_556 S
C333 C334 1.388 . S
C334 H321 0.930 . S
C334 C333 1.388 . S
C334 C335 1.390 . S
C335 C334 1.390 . S
C335 C336 1.394 . S
C335 C341 1.465 . S
C336 C331 1.399 1_556 S
C336 C335 1.394 . S
C336 C337 1.516 . S
C337 C336 1.516 . S
C337 C338 1.502 1_556 S
C337 C339 1.561 . S
C337 C340 1.526 . S
C338 H322 0.959 . S
C338 H323 0.959 . S
C338 H324 0.961 . S
C338 C337 1.502 1_554 S
C339 H325 0.960 1_556 S
C339 H326 0.961 . S
C339 H327 0.959 . S
C339 C337 1.561 . S
C340 C337 1.526 . S
C340 C341 1.396 . S
C340 C345 1.390 . S
C341 C335 1.465 . S
C341 C340 1.396 . S
C341 C342 1.399 . S
C342 H328 0.929 . S
C342 C341 1.399 . S
C342 C343 1.385 . S
C343 H329 0.931 . S
C343 C342 1.385 . S
C343 C344 1.389 . S
C344 C343 1.389 . S
C344 C345 1.387 . S
C345 H330 0.930 . S
C345 C340 1.390 . S
C345 C344 1.387 . S
H346 C358 0.930 . S
H347 C360 0.930 . S
H348 C361 0.930 . S
H349 C365 0.959 . S
H350 C365 0.959 . S
H351 C365 0.961 . S
H352 C366 0.960 . S
H353 C366 0.961 . S
H354 C366 0.959 . S
H355 C369 0.929 . S
H356 C370 0.931 . S
H357 C372 0.930 . S
C358 H346 0.930 . S
C358 C359 1.399 1_556 S
C358 C363 1.399 . S
C359 C358 1.399 1_554 S
C359 C360 1.376 . S
C360 H347 0.930 . S
C360 C359 1.376 . S
C360 C361 1.388 1_554 S
C361 H348 0.930 . S
C361 C360 1.388 1_556 S
C361 C362 1.390 . S
C362 C361 1.390 . S
C362 C363 1.394 . S
C362 C368 1.465 . S
C363 C358 1.399 . S
C363 C362 1.394 . S
C363 C364 1.516 . S
C364 C363 1.516 . S
C364 C365 1.502 . S
C364 C366 1.561 . S
C364 C367 1.526 . S
C365 H349 0.959 . S
C365 H350 0.959 . S
C365 H351 0.961 . S
C365 C364 1.502 . S
C366 H352 0.960 . S
C366 H353 0.961 . S
C366 H354 0.959 . S
C366 C364 1.561 . S
C367 C364 1.526 . S
C367 C368 1.396 . S
C367 C372 1.390 . S
C368 C362 1.465 . S
C368 C367 1.396 . S
C368 C369 1.399 . S
C369 H355 0.929 . S
C369 C368 1.399 . S
C369 C370 1.385 . S
C370 H356 0.931 . S
C370 C369 1.385 . S
C370 C371 1.389 . S
C371 C370 1.389 . S
C371 C372 1.387 . S
C372 H357 0.930 . S
C372 C367 1.390 . S
C372 C371 1.387 . S
H373 C385 0.930 . S
H374 C387 0.930 . S
H375 C388 0.930 . S
H376 C392 0.959 . S
H377 C392 0.959 . S
H378 C392 0.961 . S
H379 C393 0.960 . S
H380 C393 0.961 . S
H381 C393 0.959 . S
H382 C396 0.929 . S
H383 C397 0.931 . S
H384 C399 0.930 . S
C385 H373 0.930 . S
C385 C386 1.399 1_456 S
C385 C390 1.399 . S
C386 C385 1.399 1_654 S
C386 C387 1.376 . S
C387 H374 0.930 . S
C387 C386 1.376 . S
C387 C388 1.388 1_554 S
C388 H375 0.930 . S
C388 C387 1.388 1_556 S
C388 C389 1.390 . S
C389 C388 1.390 . S
C389 C390 1.394 1_655 S
C389 C395 1.465 . S
C390 C385 1.399 . S
C390 C389 1.394 1_455 S
C390 C391 1.516 . S
C391 C390 1.516 . S
C391 C392 1.502 . S
C391 C393 1.561 . S
C391 C394 1.526 . S
C392 H376 0.959 . S
C392 H377 0.959 . S
C392 H378 0.961 . S
C392 C391 1.502 . S
C393 H379 0.960 . S
C393 H380 0.961 . S
C393 H381 0.959 . S
C393 C391 1.561 . S
C394 C391 1.526 . S
C394 C395 1.396 1_455 S
C394 C399 1.390 . S
C395 C389 1.465 . S
C395 C394 1.396 1_655 S
C395 C396 1.399 . S
C396 H382 0.929 . S
C396 C395 1.399 . S
C396 C397 1.385 . S
C397 H383 0.931 . S
C397 C396 1.385 . S
C397 C398 1.389 . S
C398 C397 1.389 . S
C398 C399 1.387 1_655 S
C399 H384 0.930 . S
C399 C394 1.390 . S
C399 C398 1.387 1_455 S
H400 C412 0.930 . S
H401 C414 0.930 . S
H402 C415 0.930 . S
H403 C419 0.959 . S
H404 C419 0.959 . S
H405 C419 0.961 . S
H406 C420 0.960 . S
H407 C420 0.961 . S
H408 C420 0.959 . S
H409 C423 0.929 . S
H410 C424 0.931 . S
H411 C426 0.930 . S
C412 H400 0.930 . S
C412 C413 1.399 1_655 S
C412 C417 1.399 . S
C413 C412 1.399 1_455 S
C413 C414 1.376 . S
C414 H401 0.930 . S
C414 C413 1.376 . S
C414 C415 1.388 . S
C415 H402 0.930 . S
C415 C414 1.388 . S
C415 C416 1.390 . S
C416 C415 1.390 . S
C416 C417 1.394 1_455 S
C416 C422 1.465 . S
C417 C412 1.399 . S
C417 C416 1.394 1_655 S
C417 C418 1.516 . S
C418 C417 1.516 . S
C418 C419 1.502 . S
C418 C420 1.561 . S
C418 C421 1.526 . S
C419 H403 0.959 . S
C419 H404 0.959 . S
C419 H405 0.961 . S
C419 C418 1.502 . S
C420 H406 0.960 . S
C420 H407 0.961 . S
C420 H408 0.959 . S
C420 C418 1.561 . S
C421 C418 1.526 . S
C421 C422 1.393 1_655 S
C421 C426 1.390 . S
C422 C416 1.465 . S
C422 C421 1.393 1_455 S
C422 C423 1.401 . S
C423 H409 0.929 . S
C423 C422 1.401 . S
C423 C424 1.385 . S
C424 H410 0.931 . S
C424 C423 1.385 . S
C424 C425 1.389 1_455 S
C425 C424 1.389 1_655 S
C425 C426 1.387 . S
C426 H411 0.930 . S
C426 C421 1.390 . S
C426 C425 1.387 . S
H427 C439 0.930 . S
H428 C441 0.930 . S
H429 C442 0.915 1_565 S
H430 C446 0.959 . S
H431 C446 0.959 . S
H432 C446 0.961 . S
H433 C447 0.960 . S
H434 C447 0.961 . S
H435 C447 0.959 . S
H436 C450 0.929 . S
H437 C451 0.931 . S
H438 C453 0.930 . S
C439 H427 0.930 . S
C439 C440 1.399 . S
C439 C444 1.399 . S
C440 C439 1.399 . S
C440 C441 1.376 . S
C441 H428 0.930 . S
C441 C440 1.376 . S
C441 C442 1.397 . S
C442 H429 0.915 1_545 S
C442 C441 1.397 . S
C442 C443 1.397 . S
C443 C442 1.397 . S
C443 C444 1.394 . S
C443 C449 1.465 . S
C444 C439 1.399 . S
C444 C443 1.394 . S
C444 C445 1.516 . S
C445 C444 1.516 . S
C445 C446 1.502 . S
C445 C447 1.561 . S
C445 C448 1.526 . S
C446 H430 0.959 . S
C446 H431 0.959 . S
C446 H432 0.961 . S
C446 C445 1.502 . S
C447 H433 0.960 . S
C447 H434 0.961 . S
C447 H435 0.959 . S
C447 C445 1.561 . S
C448 C445 1.526 . S
C448 C449 1.396 . S
C448 C453 1.390 . S
C449 C443 1.465 . S
C449 C448 1.396 . S
C449 C450 1.399 1_545 S
C450 H436 0.929 . S
C450 C449 1.399 1_565 S
C450 C451 1.385 . S
C451 H437 0.931 . S
C451 C450 1.385 . S
C451 C452 1.389 1_565 S
C452 C451 1.389 1_545 S
C452 C453 1.387 . S
C453 H438 0.930 . S
C453 C448 1.390 . S
C453 C452 1.387 . S
H454 C466 0.930 . S
H455 C468 0.930 . S
H456 C469 0.930 . S
H457 C473 0.959 . S
H458 C473 0.959 . S
H459 C473 0.961 1_556 S
H460 C474 0.960 . S
H461 C474 0.961 . S
H462 C474 0.959 . S
H463 C477 0.929 . S
H464 C478 0.931 . S
H465 C480 0.930 . S
C466 H454 0.930 . S
C466 C467 1.399 . S
C466 C471 1.399 . S
C467 C466 1.399 . S
C467 C468 1.376 . S
C468 H455 0.930 . S
C468 C467 1.376 . S
C468 C469 1.388 . S
C469 H456 0.930 . S
C469 C468 1.388 . S
C469 C470 1.390 . S
C470 C469 1.390 . S
C470 C471 1.394 . S
C470 C476 1.465 . S
C471 C466 1.399 . S
C471 C470 1.394 . S
C471 C472 1.516 . S
C472 C471 1.516 . S
C472 C473 1.502 . S
C472 C474 1.561 . S
C472 C475 1.526 . S
C473 H457 0.959 . S
C473 H458 0.959 . S
C473 H459 0.961 1_554 S
C473 C472 1.502 . S
C474 H460 0.960 . S
C474 H461 0.961 . S
C474 H462 0.959 . S
C474 C472 1.561 . S
C475 C472 1.526 . S
C475 C476 1.396 . S
C475 C480 1.390 . S
C476 C470 1.465 . S
C476 C475 1.396 . S
C476 C477 1.399 . S
C477 H463 0.929 . S
C477 C476 1.399 . S
C477 C478 1.385 . S
C478 H464 0.931 . S
C478 C477 1.385 . S
C478 C479 1.389 . S
C479 C478 1.389 . S
C479 C480 1.387 . S
C480 H465 0.930 . S
C480 C475 1.390 . S
C480 C479 1.387 . S
H481 C493 0.930 . S
H482 C495 0.930 . S
H483 C496 0.930 . S
H484 C500 0.959 . S
H485 C500 0.959 . S
H486 C500 0.961 . S
H487 C501 0.960 . S
H488 C501 0.961 . S
H489 C501 0.959 . S
H490 C504 0.929 . S
H491 C505 0.931 . S
H492 C507 0.930 . S
C493 H481 0.930 . S
C493 C494 1.399 . S
C493 C498 1.399 . S
C494 C493 1.399 . S
C494 C495 1.376 . S
C495 H482 0.930 . S
C495 C494 1.376 . S
C495 C496 1.388 . S
C496 H483 0.930 . S
C496 C495 1.388 . S
C496 C497 1.390 . S
C497 C496 1.390 . S
C497 C498 1.394 . S
C497 C503 1.465 . S
C498 C493 1.399 . S
C498 C497 1.394 . S
C498 C499 1.516 . S
C499 C498 1.516 . S
C499 C500 1.502 . S
C499 C501 1.561 . S
C499 C502 1.526 . S
C500 H484 0.959 . S
C500 H485 0.959 . S
C500 H486 0.961 . S
C500 C499 1.502 . S
C501 H487 0.960 . S
C501 H488 0.961 . S
C501 H489 0.959 . S
C501 C499 1.561 . S
C502 C499 1.526 . S
C502 C503 1.396 . S
C502 C507 1.390 . S
C503 C497 1.465 . S
C503 C502 1.396 . S
C503 C504 1.399 . S
C504 H490 0.929 . S
C504 C503 1.399 . S
C504 C505 1.385 . S
C505 H491 0.931 . S
C505 C504 1.385 . S
C505 C506 1.389 . S
C506 C505 1.389 . S
C506 C507 1.387 . S
C507 H492 0.930 . S
C507 C502 1.390 . S
C507 C506 1.387 . S
H508 C520 0.930 . S
H509 C522 0.930 . S
H510 C523 0.930 . S
H511 C527 0.959 . S
H512 C527 0.959 . S
H513 C527 0.961 . S
H514 C528 0.960 . S
H515 C528 0.961 . S
H516 C528 0.959 . S
H517 C531 0.942 1_554 S
H518 C532 0.931 . S
H519 C534 0.930 . S
C520 H508 0.930 . S
C520 C521 1.399 1_456 S
C520 C525 1.399 . S
C521 C520 1.399 1_654 S
C521 C522 1.376 . S
C522 H509 0.930 . S
C522 C521 1.376 . S
C522 C523 1.388 . S
C523 H510 0.930 . S
C523 C522 1.388 . S
C523 C524 1.399 1_554 S
C524 C523 1.399 1_556 S
C524 C525 1.383 1_655 S
C524 C530 1.465 1_655 S
C525 C520 1.399 . S
C525 C524 1.383 1_455 S
C525 C526 1.516 . S
C526 C525 1.516 . S
C526 C527 1.502 . S
C526 C528 1.561 1_455 S
C526 C529 1.526 . S
C527 H511 0.959 . S
C527 H512 0.959 . S
C527 H513 0.961 . S
C527 C526 1.502 . S
C528 H514 0.960 . S
C528 H515 0.961 . S
C528 H516 0.959 . S
C528 C526 1.561 1_655 S
C529 C526 1.526 . S
C529 C530 1.396 . S
C529 C534 1.390 . S
C530 C524 1.465 1_455 S
C530 C529 1.396 . S
C530 C531 1.392 1_455 S
C531 H517 0.942 1_556 S
C531 C530 1.392 1_655 S
C531 C532 1.382 1_655 S
C532 H518 0.931 . S
C532 C531 1.382 1_455 S
C532 C533 1.389 . S
C533 C532 1.389 . S
C533 C534 1.387 . S
C534 H519 0.930 . S
C534 C529 1.390 . S
C534 C533 1.387 . S
H535 C547 0.930 . S
H536 C549 0.930 . S
H537 C550 0.930 . S
H538 C554 0.972 . S
H539 C554 0.949 1_545 S
H540 C554 0.961 1_545 S
H541 C555 0.960 1_554 S
H542 C555 0.961 1_554 S
H543 C555 0.959 . S
H544 C558 0.929 . S
H545 C559 0.931 . S
H546 C561 0.930 . S
C547 H535 0.930 . S
C547 C548 1.399 1_554 S
C547 C552 1.399 1_554 S
C548 C547 1.399 1_556 S
C548 C549 1.376 . S
C549 H536 0.930 . S
C549 C548 1.376 . S
C549 C550 1.388 . S
C550 H537 0.930 . S
C550 C549 1.388 . S
C550 C551 1.390 . S
C551 C550 1.390 . S
C551 C552 1.394 . S
C551 C557 1.465 . S
C552 C547 1.399 1_556 S
C552 C551 1.394 . S
C552 C553 1.516 1_566 S
C553 C552 1.516 1_544 S
C553 C554 1.500 1_545 S
C553 C555 1.561 1_554 S
C553 C556 1.526 1_544 S
C554 H538 0.972 . S
C554 H539 0.949 1_565 S
C554 H540 0.961 1_565 S
C554 C553 1.500 1_565 S
C555 H541 0.960 1_556 S
C555 H542 0.961 1_556 S
C555 H543 0.959 . S
C555 C553 1.561 1_556 S
C556 C553 1.526 1_566 S
C556 C557 1.396 . S
C556 C561 1.390 1_565 S
C557 C551 1.465 . S
C557 C556 1.396 . S
C557 C558 1.399 . S
C558 H544 0.929 . S
C558 C557 1.399 . S
C558 C559 1.385 . S
C559 H545 0.931 . S
C559 C558 1.385 . S
C559 C560 1.389 . S
C560 C559 1.389 . S
C560 C561 1.387 1_565 S
C561 H546 0.930 . S
C561 C556 1.390 1_545 S
C561 C560 1.387 1_545 S
H562 C574 0.930 . S
H563 C576 0.930 . S
H564 C577 0.930 . S
H565 C581 0.959 . S
H566 C581 0.959 . S
H567 C581 0.961 . S
H568 C582 0.960 . S
H569 C582 0.961 . S
H570 C582 0.959 . S
H571 C585 0.929 1_554 S
H572 C586 0.931 . S
H573 C588 0.930 . S
C574 H562 0.930 . S
C574 C575 1.399 1_556 S
C574 C579 1.399 . S
C575 C574 1.399 1_554 S
C575 C576 1.376 . S
C576 H563 0.930 . S
C576 C575 1.376 . S
C576 C577 1.388 . S
C577 H564 0.930 . S
C577 C576 1.388 . S
C577 C578 1.390 1_554 S
C578 C577 1.390 1_556 S
C578 C579 1.394 . S
C578 C584 1.465 . S
C579 C574 1.399 . S
C579 C578 1.394 . S
C579 C580 1.516 . S
C580 C579 1.516 . S
C580 C581 1.502 . S
C580 C582 1.561 . S
C580 C583 1.526 . S
C581 H565 0.959 . S
C581 H566 0.959 . S
C581 H567 0.961 . S
C581 C580 1.502 . S
C582 H568 0.960 . S
C582 H569 0.961 . S
C582 H570 0.959 . S
C582 C580 1.561 . S
C583 C580 1.526 . S
C583 C584 1.396 . S
C583 C588 1.390 . S
C584 C578 1.465 . S
C584 C583 1.396 . S
C584 C585 1.399 . S
C585 H571 0.929 1_556 S
C585 C584 1.399 . S
C585 C586 1.385 . S
C586 H572 0.931 . S
C586 C585 1.385 . S
C586 C587 1.389 . S
C587 C586 1.389 . S
C587 C588 1.387 . S
C588 H573 0.930 . S
C588 C583 1.390 . S
C588 C587 1.387 . S
H589 C601 0.930 . S
H590 C603 0.930 . S
H591 C604 0.930 . S
H592 C608 0.959 . S
H593 C608 0.959 . S
H594 C608 0.961 . S
H595 C609 0.960 . S
H596 C609 0.961 . S
H597 C609 0.959 . S
H598 C612 0.929 . S
H599 C613 0.931 . S
H600 C615 0.930 . S
C601 H589 0.930 . S
C601 C602 1.399 . S
C601 C606 1.399 1_554 S
C602 C601 1.399 . S
C602 C603 1.376 1_554 S
C603 H590 0.930 . S
C603 C602 1.376 1_556 S
C603 C604 1.388 . S
C604 H591 0.930 . S
C604 C603 1.388 . S
C604 C605 1.390 . S
C605 C604 1.390 . S
C605 C606 1.394 . S
C605 C611 1.465 . S
C606 C601 1.399 1_556 S
C606 C605 1.394 . S
C606 C607 1.516 . S
C607 C606 1.516 . S
C607 C608 1.502 1_556 S
C607 C609 1.561 . S
C607 C610 1.526 . S
C608 H592 0.959 . S
C608 H593 0.959 . S
C608 H594 0.961 . S
C608 C607 1.502 1_554 S
C609 H595 0.960 . S
C609 H596 0.961 . S
C609 H597 0.959 . S
C609 C607 1.561 . S
C610 C607 1.526 . S
C610 C611 1.396 . S
C610 C615 1.390 . S
C611 C605 1.465 . S
C611 C610 1.396 . S
C611 C612 1.399 . S
C612 H598 0.929 . S
C612 C611 1.399 . S
C612 C613 1.385 . S
C613 H599 0.931 . S
C613 C612 1.385 . S
C613 C614 1.389 . S
C614 C613 1.389 . S
C614 C615 1.387 . S
C615 H600 0.930 . S
C615 C610 1.390 . S
C615 C614 1.387 . S
H616 C628 0.930 . S
H617 C630 0.932 . S
H618 C631 0.930 . S
H619 C635 0.959 . S
H620 C635 0.959 . S
H621 C635 0.961 . S
H622 C636 0.960 . S
H623 C636 0.961 . S
H624 C636 0.959 . S
H625 C639 0.929 . S
H626 C640 0.931 . S
H627 C642 0.930 . S
C628 H616 0.930 . S
C628 C629 1.399 1_455 S
C628 C633 1.399 . S
C629 C628 1.399 1_655 S
C629 C630 1.376 . S
C630 H617 0.932 . S
C630 C629 1.376 . S
C630 C631 1.388 . S
C631 H618 0.930 . S
C631 C630 1.388 . S
C631 C632 1.390 . S
C632 C631 1.390 . S
C632 C633 1.394 1_655 S
C632 C638 1.465 . S
C633 C628 1.399 . S
C633 C632 1.394 1_455 S
C633 C634 1.516 . S
C634 C633 1.516 . S
C634 C635 1.502 . S
C634 C636 1.561 . S
C634 C637 1.526 . S
C635 H619 0.959 . S
C635 H620 0.959 . S
C635 H621 0.961 . S
C635 C634 1.502 . S
C636 H622 0.960 . S
C636 H623 0.961 . S
C636 H624 0.959 . S
C636 C634 1.561 . S
C637 C634 1.526 . S
C637 C638 1.396 1_455 S
C637 C642 1.390 . S
C638 C632 1.465 . S
C638 C637 1.396 1_655 S
C638 C639 1.399 . S
C639 H625 0.929 . S
C639 C638 1.399 . S
C639 C640 1.385 . S
C640 H626 0.931 . S
C640 C639 1.385 . S
C640 C641 1.389 1_655 S
C641 C640 1.389 1_455 S
C641 C642 1.387 . S
C642 H627 0.930 . S
C642 C637 1.390 . S
C642 C641 1.387 . S
H643 C655 0.930 . S
H644 C657 0.930 . S
H645 C658 0.930 . S
H646 C662 0.959 1_565 S
H647 C662 0.959 . S
H648 C662 0.961 . S
H649 C663 0.960 . S
H650 C663 0.961 . S
H651 C663 0.959 . S
H652 C666 0.929 1_554 S
H653 C667 0.931 . S
H654 C669 0.930 . S
C655 H643 0.930 . S
C655 C656 1.399 . S
C655 C660 1.399 . S
C656 C655 1.399 . S
C656 C657 1.376 1_556 S
C657 H644 0.930 . S
C657 C656 1.376 1_554 S
C657 C658 1.388 . S
C658 H645 0.930 . S
C658 C657 1.388 . S
C658 C659 1.390 1_554 S
C659 C658 1.390 1_556 S
C659 C660 1.394 . S
C659 C665 1.465 . S
C660 C655 1.399 . S
C660 C659 1.394 . S
C660 C661 1.516 . S
C661 C660 1.516 . S
C661 C662 1.502 . S
C661 C663 1.561 . S
C661 C664 1.526 . S
C662 H646 0.959 1_545 S
C662 H647 0.959 . S
C662 H648 0.961 . S
C662 C661 1.502 . S
C663 H649 0.960 . S
C663 H650 0.961 . S
C663 H651 0.959 . S
C663 C661 1.561 . S
C664 C661 1.526 . S
C664 C665 1.396 . S
C664 C669 1.390 . S
C665 C659 1.465 . S
C665 C664 1.396 . S
C665 C666 1.399 . S
C666 H652 0.929 1_556 S
C666 C665 1.399 . S
C666 C667 1.385 . S
C667 H653 0.931 . S
C667 C666 1.385 . S
C667 C668 1.389 . S
C668 C667 1.389 . S
C668 C669 1.387 . S
C669 H654 0.930 . S
C669 C664 1.390 . S
C669 C668 1.387 . S
H670 C682 0.930 . S
H671 C684 0.930 . S
H672 C685 0.930 . S
H673 C689 0.959 . S
H674 C689 0.959 . S
H675 C689 0.961 . S
H676 C690 0.960 1_554 S
H677 C690 0.961 1_554 S
H678 C690 0.959 . S
H679 C693 0.929 . S
H680 C694 0.931 . S
H681 C696 0.930 . S
C682 H670 0.930 . S
C682 C683 1.399 . S
C682 C687 1.399 . S
C683 C682 1.399 . S
C683 C684 1.376 . S
C684 H671 0.930 . S
C684 C683 1.376 . S
C684 C685 1.388 . S
C685 H672 0.930 . S
C685 C684 1.388 . S
C685 C686 1.390 . S
C686 C685 1.390 . S
C686 C687 1.394 . S
C686 C692 1.465 . S
C687 C682 1.399 . S
C687 C686 1.394 . S
C687 C688 1.516 . S
C688 C687 1.516 . S
C688 C689 1.502 . S
C688 C690 1.561 . S
C688 C691 1.526 . S
C689 H673 0.959 . S
C689 H674 0.959 . S
C689 H675 0.961 . S
C689 C688 1.502 . S
C690 H676 0.960 1_556 S
C690 H677 0.961 1_556 S
C690 H678 0.959 . S
C690 C688 1.561 . S
C691 C688 1.526 . S
C691 C692 1.396 . S
C691 C696 1.390 . S
C692 C686 1.465 . S
C692 C691 1.396 . S
C692 C693 1.399 . S
C693 H679 0.929 . S
C693 C692 1.399 . S
C693 C694 1.385 . S
C694 H680 0.931 . S
C694 C693 1.385 . S
C694 C695 1.389 . S
C695 C694 1.389 . S
C695 C696 1.387 . S
C696 H681 0.930 . S
C696 C691 1.390 . S
C696 C695 1.387 . S
H697 C709 0.930 . S
H698 C711 0.930 . S
H699 C712 0.930 . S
H700 C716 0.959 1_554 S
H701 C716 0.959 . S
H702 C716 0.961 1_554 S
H703 C717 0.960 . S
H704 C717 0.961 . S
H705 C717 0.959 . S
H706 C720 0.929 . S
H707 C721 0.931 . S
H708 C723 0.930 . S
C709 H697 0.930 . S
C709 C710 1.399 . S
C709 C714 1.399 . S
C710 C709 1.399 . S
C710 C711 1.376 . S
C711 H698 0.930 . S
C711 C710 1.376 . S
C711 C712 1.388 . S
C712 H699 0.930 . S
C712 C711 1.388 . S
C712 C713 1.390 . S
C713 C712 1.390 . S
C713 C714 1.394 . S
C713 C719 1.465 . S
C714 C709 1.399 . S
C714 C713 1.394 . S
C714 C715 1.516 . S
C715 C714 1.516 . S
C715 C716 1.502 . S
C715 C717 1.561 . S
C715 C718 1.526 . S
C716 H700 0.959 1_556 S
C716 H701 0.959 . S
C716 H702 0.961 1_556 S
C716 C715 1.502 . S
C717 H703 0.960 . S
C717 H704 0.961 . S
C717 H705 0.959 . S
C717 C715 1.561 . S
C718 C715 1.526 . S
C718 C719 1.396 . S
C718 C723 1.390 . S
C719 C713 1.465 . S
C719 C718 1.396 . S
C719 C720 1.399 . S
C720 H706 0.929 . S
C720 C719 1.399 . S
C720 C721 1.385 . S
C721 H707 0.931 . S
C721 C720 1.385 . S
C721 C722 1.389 . S
C722 C721 1.389 . S
C722 C723 1.387 . S
C723 H708 0.930 . S
C723 C718 1.390 . S
C723 C722 1.387 . S
H724 C736 0.930 . S
H725 C738 0.930 . S
H726 C739 0.930 . S
H727 C743 0.959 . S
H728 C743 0.959 . S
H729 C743 0.961 . S
H730 C744 0.960 . S
H731 C744 0.961 . S
H732 C744 0.959 . S
H733 C747 0.929 . S
H734 C748 0.931 . S
H735 C750 0.930 . S
C736 H724 0.930 . S
C736 C737 1.399 1_455 S
C736 C741 1.399 . S
C737 C736 1.399 1_655 S
C737 C738 1.376 . S
C738 H725 0.930 . S
C738 C737 1.376 . S
C738 C739 1.388 . S
C739 H726 0.930 . S
C739 C738 1.388 . S
C739 C740 1.390 . S
C740 C739 1.390 . S
C740 C741 1.394 1_655 S
C740 C746 1.465 . S
C741 C736 1.399 . S
C741 C740 1.394 1_455 S
C741 C742 1.516 . S
C742 C741 1.516 . S
C742 C743 1.502 . S
C742 C744 1.561 . S
C742 C745 1.526 . S
C743 H727 0.959 . S
C743 H728 0.959 . S
C743 H729 0.961 . S
C743 C742 1.502 . S
C744 H730 0.960 . S
C744 H731 0.961 . S
C744 H732 0.959 . S
C744 C742 1.561 . S
C745 C742 1.526 . S
C745 C746 1.396 1_455 S
C745 C750 1.390 . S
C746 C740 1.465 . S
C746 C745 1.396 1_655 S
C746 C747 1.399 . S
C747 H733 0.929 . S
C747 C746 1.399 . S
C747 C748 1.385 . S
C748 H734 0.931 . S
C748 C747 1.385 . S
C748 C749 1.389 . S
C749 C748 1.389 . S
C749 C750 1.387 1_655 S
C750 H735 0.930 . S
C750 C745 1.390 . S
C750 C749 1.387 1_455 S
H751 C763 0.930 1_545 S
H752 C765 0.930 . S
H753 C766 0.930 . S
H754 C770 0.959 . S
H755 C770 0.959 . S
H756 C770 0.961 . S
H757 C771 0.960 . S
H758 C771 0.961 . S
H759 C771 0.959 . S
H760 C774 0.929 . S
H761 C775 0.931 . S
H762 C777 0.962 . S
C763 H751 0.930 1_565 S
C763 C764 1.399 . S
C763 C768 1.399 . S
C764 C763 1.399 . S
C764 C765 1.376 . S
C765 H752 0.930 . S
C765 C764 1.376 . S
C765 C766 1.388 . S
C766 H753 0.930 . S
C766 C765 1.388 . S
C766 C767 1.390 . S
C767 C766 1.390 . S
C767 C768 1.394 . S
C767 C773 1.465 . S
C768 C763 1.399 . S
C768 C767 1.394 . S
C768 C769 1.516 1_565 S
C769 C768 1.516 1_545 S
C769 C770 1.502 . S
C769 C771 1.561 . S
C769 C772 1.526 1_545 S
C770 H754 0.959 . S
C770 H755 0.959 . S
C770 H756 0.961 . S
C770 C769 1.502 . S
C771 H757 0.960 . S
C771 H758 0.961 . S
C771 H759 0.959 . S
C771 C769 1.561 . S
C772 C769 1.526 1_565 S
C772 C773 1.396 . S
C772 C777 1.377 1_565 S
C773 C767 1.465 . S
C773 C772 1.396 . S
C773 C774 1.399 . S
C774 H760 0.929 . S
C774 C773 1.399 . S
C774 C775 1.385 . S
C775 H761 0.931 . S
C775 C774 1.385 . S
C775 C776 1.389 . S
C776 C775 1.389 . S
C776 C777 1.368 1_565 S
C777 H762 0.962 . S
C777 C772 1.377 1_545 S
C777 C776 1.368 1_545 S
H778 C790 0.930 . S
H779 C792 0.930 . S
H780 C793 0.930 . S
H781 C797 0.959 . S
H782 C797 0.959 . S
H783 C797 0.961 . S
H784 C798 0.960 . S
H785 C798 0.961 . S
H786 C798 0.959 . S
H787 C801 0.929 . S
H788 C802 0.931 . S
H789 C804 0.930 . S
C790 H778 0.930 . S
C790 C791 1.399 . S
C790 C795 1.399 . S
C791 C790 1.399 . S
C791 C792 1.376 . S
C792 H779 0.930 . S
C792 C791 1.376 . S
C792 C793 1.388 . S
C793 H780 0.930 . S
C793 C792 1.388 . S
C793 C794 1.390 . S
C794 C793 1.390 . S
C794 C795 1.394 . S
C794 C800 1.465 . S
C795 C790 1.399 . S
C795 C794 1.394 . S
C795 C796 1.516 . S
C796 C795 1.516 . S
C796 C797 1.502 . S
C796 C798 1.561 . S
C796 C799 1.526 . S
C797 H781 0.959 . S
C797 H782 0.959 . S
C797 H783 0.961 . S
C797 C796 1.502 . S
C798 H784 0.960 . S
C798 H785 0.961 . S
C798 H786 0.959 . S
C798 C796 1.561 . S
C799 C796 1.526 . S
C799 C800 1.396 . S
C799 C804 1.390 . S
C800 C794 1.465 . S
C800 C799 1.396 . S
C800 C801 1.399 . S
C801 H787 0.929 . S
C801 C800 1.399 . S
C801 C802 1.385 . S
C802 H788 0.931 . S
C802 C801 1.385 . S
C802 C803 1.389 . S
C803 C802 1.389 . S
C803 C804 1.387 . S
C804 H789 0.930 . S
C804 C799 1.390 . S
C804 C803 1.387 . S
H805 C817 0.930 . S
H806 C819 0.930 . S
H807 C820 0.930 . S
H808 C824 0.959 . S
H809 C824 0.959 . S
H810 C824 0.961 . S
H811 C825 0.960 . S
H812 C825 0.961 . S
H813 C825 0.959 . S
H814 C828 0.929 . S
H815 C829 0.931 . S
H816 C831 0.930 . S
C817 H805 0.930 . S
C817 C818 1.399 . S
C817 C822 1.399 . S
C818 C817 1.399 . S
C818 C819 1.376 . S
C819 H806 0.930 . S
C819 C818 1.376 . S
C819 C820 1.388 . S
C820 H807 0.930 . S
C820 C819 1.388 . S
C820 C821 1.390 . S
C821 C820 1.390 . S
C821 C822 1.394 . S
C821 C827 1.465 . S
C822 C817 1.399 . S
C822 C821 1.394 . S
C822 C823 1.516 . S
C823 C822 1.516 . S
C823 C824 1.502 . S
C823 C825 1.561 . S
C823 C826 1.526 . S
C824 H808 0.959 . S
C824 H809 0.959 . S
C824 H810 0.961 . S
C824 C823 1.502 . S
C825 H811 0.960 . S
C825 H812 0.961 . S
C825 H813 0.959 . S
C825 C823 1.561 . S
C826 C823 1.526 . S
C826 C827 1.396 . S
C826 C831 1.390 . S
C827 C821 1.465 . S
C827 C826 1.396 . S
C827 C828 1.399 . S
C828 H814 0.929 . S
C828 C827 1.399 . S
C828 C829 1.385 . S
C829 H815 0.931 . S
C829 C828 1.385 . S
C829 C830 1.389 . S
C830 C829 1.389 . S
C830 C831 1.387 . S
C831 H816 0.930 . S
C831 C826 1.390 . S
C831 C830 1.387 . S
C197 N80 1.657 . S
C209 C112 1.686 . S
C236 C142 1.795 . S
C224 N93 1.737 . S
C263 C152 1.534 . S
C251 N54 1.531 . S
C290 C172 1.420 . S
C278 N67 1.434 . S
C317 C113 1.682 . S
C305 N28 1.667 1_556 S
C332 N41 1.744 . S
C344 C143 1.803 . S
C359 N2 1.531 . S
C371 C153 1.559 . S
C386 N15 1.423 . S
C398 C173 1.447 1_655 S
C425 C105 0.803 . S
C413 N70 0.848 1_455 S
C452 C126 0.548 . S
C440 N83 0.536 . S
C479 C145 0.988 . S
C467 N96 0.953 . S
C494 N57 0.710 . S
C506 C165 0.763 . S
C521 N18 0.852 . S
C533 C106 0.801 . S
C560 C125 0.532 1_565 S
C548 N31 0.602 1_556 S
C587 C146 0.926 . S
C575 N44 0.989 . S
C602 N5 0.729 . S
C614 C166 0.756 . S
C629 N66 1.546 1_556 S
C641 C123 1.546 . S
C656 N79 1.405 1_556 S
C668 C133 1.458 . S
C695 C163 1.725 . S
C683 N92 1.724 . S
C722 C183 1.767 . S
C710 N53 1.761 . S
C737 N14 1.535 . S
C749 C122 1.593 . S
C776 C132 1.449 . S
C764 N27 1.422 . S
C803 C162 1.724 . S
C791 N40 1.712 . S
C818 N1 1.763 . S
C830 C182 1.739 . S
