# Generated by pormake.
# Topology zzz, (3,6)-cn, num edge types: 1
# Building blocks:
#     Node 0, Type 0, BuildingBlock: QEWDON_clean_linker_0, # of connection points: 3
#     Node 1, Type 0, BuildingBlock: QEWDON_clean_linker_0, # of connection points: 3
#     Node 2, Type 0, BuildingBlock: QEWDON_clean_linker_0, # of connection points: 3
#     Node 3, Type 0, BuildingBlock: QEWDON_clean_linker_0, # of connection points: 3
#     Node 4, Type 0, BuildingBlock: QEWDON_clean_linker_0, # of connection points: 3
#     Node 5, Type 0, BuildingBlock: QEWDON_clean_linker_0, # of connection points: 3
#     Node 6, Type 0, BuildingBlock: QEWDON_clean_linker_0, # of connection points: 3
#     Node 7, Type 0, BuildingBlock: QEWDON_clean_linker_0, # of connection points: 3
#     Node 8, Type 1, BuildingBlock: VOLQOD_clean_sbu_1, # of connection points: 6
#     Node 9, Type 1, BuildingBlock: VOLQOD_clean_sbu_1, # of connection points: 6
#     Node 10, Type 1, BuildingBlock: VOLQOD_clean_sbu_1, # of connection points: 6
#     Node 11, Type 1, BuildingBlock: VOLQOD_clean_sbu_1, # of connection points: 6
#     Edge 12, Type (0, 1), BuildingBlock: ZUJKAS_clean_linker_0, # of connection points: 2
#     Edge 13, Type (0, 1), BuildingBlock: ZUJKAS_clean_linker_0, # of connection points: 2
#     Edge 14, Type (0, 1), BuildingBlock: ZUJKAS_clean_linker_0, # of connection points: 2
#     Edge 15, Type (0, 1), BuildingBlock: ZUJKAS_clean_linker_0, # of connection points: 2
#     Edge 16, Type (0, 1), BuildingBlock: ZUJKAS_clean_linker_0, # of connection points: 2
#     Edge 17, Type (0, 1), BuildingBlock: ZUJKAS_clean_linker_0, # of connection points: 2
#     Edge 18, Type (0, 1), BuildingBlock: ZUJKAS_clean_linker_0, # of connection points: 2
#     Edge 19, Type (0, 1), BuildingBlock: ZUJKAS_clean_linker_0, # of connection points: 2
#     Edge 20, Type (0, 1), BuildingBlock: ZUJKAS_clean_linker_0, # of connection points: 2
#     Edge 21, Type (0, 1), BuildingBlock: ZUJKAS_clean_linker_0, # of connection points: 2
#     Edge 22, Type (0, 1), BuildingBlock: ZUJKAS_clean_linker_0, # of connection points: 2
#     Edge 23, Type (0, 1), BuildingBlock: ZUJKAS_clean_linker_0, # of connection points: 2
#     Edge 24, Type (0, 1), BuildingBlock: ZUJKAS_clean_linker_0, # of connection points: 2
#     Edge 25, Type (0, 1), BuildingBlock: ZUJKAS_clean_linker_0, # of connection points: 2
#     Edge 26, Type (0, 1), BuildingBlock: ZUJKAS_clean_linker_0, # of connection points: 2
#     Edge 27, Type (0, 1), BuildingBlock: ZUJKAS_clean_linker_0, # of connection points: 2
#     Edge 28, Type (0, 1), BuildingBlock: ZUJKAS_clean_linker_0, # of connection points: 2
#     Edge 29, Type (0, 1), BuildingBlock: ZUJKAS_clean_linker_0, # of connection points: 2
#     Edge 30, Type (0, 1), BuildingBlock: ZUJKAS_clean_linker_0, # of connection points: 2
#     Edge 31, Type (0, 1), BuildingBlock: ZUJKAS_clean_linker_0, # of connection points: 2
#     Edge 32, Type (0, 1), BuildingBlock: ZUJKAS_clean_linker_0, # of connection points: 2
#     Edge 33, Type (0, 1), BuildingBlock: ZUJKAS_clean_linker_0, # of connection points: 2
#     Edge 34, Type (0, 1), BuildingBlock: ZUJKAS_clean_linker_0, # of connection points: 2
#     Edge 35, Type (0, 1), BuildingBlock: ZUJKAS_clean_linker_0, # of connection points: 2
# Relax obj value: 0.154
# Max RMSD: 0.240
# Mean RMSD: 0.103
data_MOF--net-zzz--node1-VOLQOD_clean_sbu_1--node2-QEWDON_clean_linker_0--edge1-ZUJKAS_clean_linker_0
_symmetry_space_group_name_H-M    P1
_symmetry_Int_Tables_number       1
_symmetry_cell_setting            triclinic
loop_
_symmetry_equiv_pos_as_xyz
'x, y, z'
_cell_length_a     70.272109
_cell_length_b     70.074753
_cell_length_c     21.975222
_cell_angle_alpha  90.215379
_cell_angle_beta   89.966235
_cell_angle_gamma 90.457479
loop_
_atom_site_label
_atom_site_type_symbol
_atom_site_fract_x
_atom_site_fract_y
_atom_site_fract_z
_atom_type_partial_charge
H0 H 0.77537 0.51383 0.04647 0.0
C1 C 0.78305 0.51491 0.08909 0.0
C2 C 0.80042 0.5053 0.09544 0.0
C3 C 0.77613 0.52665 0.13635 0.0
H4 H 0.8246 0.50082 0.15371 0.0
C5 C 0.8107 0.50734 0.14972 0.0
C6 C 0.80434 0.51914 0.19681 0.0
C7 C 0.78701 0.52873 0.19016 0.0
C8 C 0.75832 0.53782 0.12778 0.0
H9 H 0.78215 0.53786 0.22679 0.0
C10 C 0.74236 0.52996 0.09719 0.0
C11 C 0.72571 0.5408 0.08878 0.0
C12 C 0.75739 0.55673 0.14922 0.0
H13 H 0.76948 0.56343 0.17142 0.0
C14 C 0.741 0.56748 0.141 0.0
H15 H 0.74273 0.51534 0.08103 0.0
C16 C 0.7253 0.55963 0.11109 0.0
H17 H 0.71291 0.56848 0.10443 0.0
H18 H 0.74053 0.58205 0.1574 0.0
H19 H 0.00256 0.77071 0.03447 0.0
C20 C 0.00203 0.77714 0.07933 0.0
C21 C 0.01335 0.79335 0.09165 0.0
C22 C 0.98933 0.76995 0.12367 0.0
H23 H 0.01979 0.81548 0.15699 0.0
C24 C 0.01195 0.80232 0.14856 0.0
C25 C 0.99896 0.79592 0.19219 0.0
C26 C 0.98793 0.77959 0.18015 0.0
C27 C 0.97649 0.75337 0.1098 0.0
H28 H 0.97806 0.77469 0.21468 0.0
C29 C 0.9826 0.73781 0.07367 0.0
C30 C 0.97028 0.7222 0.06143 0.0
C31 C 0.95776 0.75314 0.1326 0.0
H32 H 0.95225 0.76503 0.15861 0.0
C33 C 0.9457 0.73767 0.12168 0.0
H34 H 0.99687 0.73788 0.05508 0.0
C35 C 0.9519 0.72228 0.08695 0.0
H36 H 0.94222 0.71034 0.08049 0.0
H37 H 0.93143 0.73761 0.14023 0.0
H38 H 0.72815 0.00401 0.02962 0.0
C39 C 0.7215 0.0037 0.07412 0.0
C40 C 0.70513 0.01466 0.08461 0.0
C41 C 0.72854 0.99152 0.11969 0.0
H42 H 0.68253 0.02088 0.14744 0.0
C43 C 0.69584 0.01341 0.14092 0.0
C44 C 0.70219 0.00101 0.18622 0.0
C45 C 0.71876 0.99041 0.17585 0.0
C46 C 0.74484 0.97853 0.10695 0.0
H47 H 0.72374 0.98095 0.21121 0.0
C48 C 0.76082 0.98455 0.07256 0.0
C49 C 0.77589 0.97184 0.06016 0.0
C50 C 0.74419 0.95963 0.12837 0.0
H51 H 0.73198 0.95429 0.15332 0.0
C52 C 0.75912 0.94717 0.11704 0.0
H53 H 0.7615 -0.00101 0.05526 0.0
C54 C 0.77485 0.95319 0.0835 0.0
H55 H 0.78631 0.94319 0.07621 0.0
H56 H 0.75845 0.93272 0.13419 0.0
H57 H 0.50204 0.72646 0.03583 0.0
C58 C 0.50289 0.71967 0.07997 0.0
C59 C 0.49197 0.70317 0.09128 0.0
C60 C 0.51564 0.72673 0.1243 0.0
H61 H 0.48625 0.68047 0.15435 0.0
C62 C 0.4938 0.69384 0.14724 0.0
C63 C 0.5067 0.70029 0.1914 0.0
C64 C 0.51742 0.7169 0.17999 0.0
C65 C 0.52829 0.74335 0.11079 0.0
H66 H 0.52736 0.72197 0.2142 0.0
C67 C 0.52139 0.75972 0.0809 0.0
C68 C 0.53355 0.77541 0.0692 0.0
C69 C 0.5476 0.74279 0.12756 0.0
H70 H 0.55348 0.7303 0.14924 0.0
C71 C 0.55968 0.75818 0.1156 0.0
H72 H 0.50651 0.76044 0.06826 0.0
C73 C 0.55276 0.77438 0.08679 0.0
H74 H 0.56254 0.78603 0.07748 0.0
H75 H 0.57453 0.75751 0.12847 0.0
H76 H 0.23983 0.5242 0.28671 0.0
C77 C 0.23051 0.51748 0.25356 0.0
C78 C 0.21077 0.51822 0.26218 0.0
C79 C 0.23807 0.50852 0.20133 0.0
H80 H 0.18328 0.51096 0.22612 0.0
C81 C 0.19854 0.50997 0.21929 0.0
C82 C 0.20561 0.501 0.16716 0.0
C83 C 0.22541 0.50034 0.15819 0.0
C84 C 0.25906 0.50823 0.19062 0.0
H85 H 0.23088 0.49323 0.11804 0.0
C86 C 0.27207 0.50551 0.23889 0.0
C87 C 0.29184 0.50504 0.22775 0.0
C88 C 0.26623 0.5108 0.13138 0.0
H89 H 0.25676 0.5134 0.0935 0.0
C90 C 0.28574 0.51039 0.12026 0.0
H91 H 0.26684 0.50329 0.28474 0.0
C92 C 0.29846 0.5075 0.16788 0.0
H93 H 0.31357 0.50752 0.15795 0.0
H94 H 0.29105 0.51246 0.07449 0.0
H95 H 0.0113 0.2283 0.28313 0.0
C96 C 0.01909 0.22062 0.24834 0.0
C97 C 0.02395 0.20151 0.2584 0.0
C98 C 0.02344 0.22949 0.1925 0.0
H99 H 0.03617 0.17625 0.21921 0.0
C100 C 0.03333 0.19129 0.21261 0.0
C101 C 0.03727 0.19957 0.15615 0.0
C102 C 0.03244 0.21873 0.14633 0.0
C103 C 0.01724 0.24944 0.18084 0.0
H104 H 0.03547 0.2251 0.1025 0.0
C105 C 0.01851 0.26362 0.22658 0.0
C106 C 0.0117 0.28219 0.2161 0.0
C107 C 0.0093 0.25425 0.12422 0.0
H108 H 0.00775 0.24367 0.08849 0.0
C109 C 0.00278 0.27266 0.11345 0.0
H110 H 0.02458 0.26017 0.27047 0.0
C111 C 0.0039 0.28653 0.15898 0.0
H112 H 0.99876 0.30074 0.14935 0.0
H113 H 0.99667 0.27617 0.06972 0.0
H114 H 0.27046 0.99754 0.28137 0.0
C115 C 0.27831 0.00538 0.24701 0.0
C116 C 0.29762 0.00955 0.25687 0.0
C117 C 0.26942 0.01063 0.1921 0.0
H118 H 0.32326 0.0213 0.21849 0.0
C119 C 0.30813 0.01894 0.21178 0.0
C120 C 0.2999 0.02365 0.15599 0.0
C121 C 0.28049 0.01964 0.14642 0.0
C122 C 0.249 0.00555 0.18103 0.0
H123 H 0.27415 0.02345 0.10327 0.0
C124 C 0.23535 0.00631 0.22837 0.0
C125 C 0.21626 0.00073 0.2179 0.0
C126 C 0.24316 -0.0007 0.12301 0.0
H127 H 0.25323 -0.00194 0.08595 0.0
C128 C 0.22427 0.9941 0.11222 0.0
H129 H 0.23957 0.01104 0.27339 0.0
C130 C 0.21093 0.99479 0.15909 0.0
H131 H 0.19635 0.99078 0.14909 0.0
H132 H 0.21997 0.98937 0.0673 0.0
H133 H 0.50084 0.26719 0.28481 0.0
C134 C 0.49376 0.27483 0.24864 0.0
C135 C 0.48914 0.2941 0.25727 0.0
C136 C 0.49003 0.26573 0.19252 0.0
H137 H 0.47794 0.31936 0.21566 0.0
C138 C 0.48064 0.30423 0.20987 0.0
C139 C 0.47737 0.29574 0.15316 0.0
C140 C 0.48199 0.27644 0.14464 0.0
C141 C 0.49584 0.24553 0.1825 0.0
H142 H 0.47946 0.26989 0.10061 0.0
C143 C 0.49323 0.23153 0.22802 0.0
C144 C 0.49897 0.2125 0.21806 0.0
C145 C 0.50445 0.24024 0.12724 0.0
H146 H 0.50707 0.25067 0.0919 0.0
C147 C 0.51022 0.22151 0.11732 0.0
H148 H 0.48639 0.23534 0.27051 0.0
C149 C 0.50755 0.20775 0.16219 0.0
H150 H 0.51251 0.19341 0.1534 0.0
H151 H 0.51697 0.21767 0.07475 0.0
O152 O 0.05156 -0.00057 0.66499 0.0
Zn153 Zn 0.03029 -0.00165 0.7279 0.0
O154 O 0.00498 0.99774 0.68817 0.0
Zn155 Zn 0.9899 0.01944 0.7148 0.0
Zn156 Zn 0.00813 -0.00178 0.59921 0.0
Zn157 Zn 0.99073 0.97494 0.71131 0.0
O158 O 0.96487 0.0121 0.75407 0.0
O159 O 0.9648 0.98055 0.74771 0.0
O160 O 0.03313 0.02205 0.78207 0.0
O161 O 0.00481 0.03558 0.77297 0.0
O162 O 0.98439 0.03654 0.64467 0.0
O163 O 0.99665 0.02219 0.56354 0.0
O164 O 0.99735 0.97414 0.55958 0.0
O165 O 0.03406 0.97422 0.77796 0.0
O166 O 0.98726 0.95753 0.63937 0.0
O167 O 0.00569 0.96001 0.77154 0.0
C168 C 0.05159 -0.00039 0.60695 0.0
C169 C 0.95671 0.99606 0.76295 0.0
C170 C 0.98792 0.03617 0.58791 0.0
C171 C 0.02157 0.03547 0.79483 0.0
C172 C 0.99022 0.95896 0.5824 0.0
C173 C 0.02262 0.96069 0.79197 0.0
O174 O 0.03605 -0.00088 0.57707 0.0
O175 O 0.4988 0.04663 0.65934 0.0
Zn176 Zn 0.50031 0.0249 0.72082 0.0
O177 O 0.50105 -0.00021 0.67845 0.0
Zn178 Zn 0.47986 0.98379 0.70482 0.0
Zn179 Zn 0.49994 0.00347 0.58981 0.0
Zn180 Zn 0.52412 0.98594 0.69859 0.0
O181 O 0.48782 0.95913 0.74438 0.0
O182 O 0.51923 0.96023 0.73762 0.0
O183 O 0.47668 0.02669 0.77594 0.0
O184 O 0.46342 -0.00191 0.76291 0.0
O185 O 0.46304 0.97726 0.63471 0.0
O186 O 0.47639 0.99073 0.55382 0.0
O187 O 0.52413 0.99427 0.54821 0.0
O188 O 0.52475 0.02906 0.77004 0.0
O189 O 0.5406 0.98223 0.62493 0.0
O190 O 0.53971 0.00155 0.75578 0.0
C191 C 0.49786 0.0469 0.60135 0.0
C192 C 0.504 0.95164 0.75355 0.0
C193 C 0.46303 0.98095 0.57811 0.0
C194 C 0.46334 0.01466 0.78679 0.0
C195 C 0.53908 0.98634 0.56879 0.0
C196 C 0.53891 0.01813 0.77937 0.0
O197 O 0.49802 0.03148 0.57047 0.0
O198 O 0.45743 0.49688 0.66724 0.0
Zn199 Zn 0.47927 0.49802 0.72818 0.0
O200 O 0.50422 0.49975 0.68609 0.0
Zn201 Zn 0.5205 0.47865 0.71024 0.0
Zn202 Zn 0.5002 0.49924 0.59758 0.0
Zn203 Zn 0.51778 0.52309 0.70844 0.0
O204 O 0.54538 0.48695 0.74937 0.0
O205 O 0.54332 0.51845 0.7477 0.0
O206 O 0.47775 0.4739 0.78068 0.0
O207 O 0.50655 0.46164 0.76812 0.0
O208 O 0.52618 0.46197 0.63876 0.0
O209 O 0.51159 0.47535 0.56033 0.0
O210 O 0.51046 0.52332 0.55751 0.0
O211 O 0.47498 0.5219 0.77972 0.0
O212 O 0.52176 0.54 0.63579 0.0
O213 O 0.50212 0.53799 0.76699 0.0
C214 C 0.45689 0.49744 0.60926 0.0
C215 C 0.55238 0.50337 0.76113 0.0
C216 C 0.52149 0.46193 0.58286 0.0
C217 C 0.48996 0.46091 0.79131 0.0
C218 C 0.51822 0.53839 0.57918 0.0
C219 C 0.48564 0.53636 0.79046 0.0
O220 O 0.47214 0.49846 0.57803 0.0
O221 O 0.98398 0.52411 0.56736 0.0
Zn222 Zn 0.00674 0.52223 0.6256 0.0
O223 O 0.00654 0.49754 0.66955 0.0
Zn224 Zn 0.0039 0.50195 0.75776 0.0
Zn225 Zn 0.9857 0.48158 0.64007 0.0
Zn226 Zn 0.02982 0.48342 0.65405 0.0
O227 O 0.02729 0.49274 0.804 0.0
O228 O 0.04454 0.47945 0.73086 0.0
O229 O 0.00481 0.54428 0.68535 0.0
O230 O 0.00172 0.53023 0.77535 0.0
O231 O 0.97958 0.48965 0.78971 0.0
O232 O 0.96723 0.47613 0.70698 0.0
O233 O 0.99421 0.4567 0.60294 0.0
O234 O 0.03187 0.52595 0.58028 0.0
O235 O 0.02555 0.45784 0.61271 0.0
O236 O 0.04694 0.49906 0.60182 0.0
C237 C 0.9711 0.51189 0.55341 0.0
C238 C 0.04227 0.48412 0.78639 0.0
C239 C 0.96633 0.48019 0.76338 0.0
C240 C 0.00262 0.54524 0.74288 0.0
C241 C 0.01049 0.44924 0.5951 0.0
C242 C 0.04651 0.51534 0.57644 0.0
O243 O 0.97079 0.49538 0.57723 0.0
H244 H 0.18909 0.97369 0.24215 0.0
H245 H 0.16343 0.97507 0.31689 0.0
H246 H 0.1851 0.02905 0.38275 0.0
H247 H 0.21059 0.02806 0.30641 0.0
H248 H 0.16338 0.97737 0.44257 0.0
H249 H 0.12985 0.0413 0.34039 0.0
H250 H 0.14815 0.02796 0.30188 0.0
H251 H 0.15433 0.04422 0.36226 0.0
C252 C 0.18838 0.98593 0.27228 0.0
C253 C 0.20176 0.00092 0.26756 0.0
C254 C 0.17376 0.98662 0.31536 0.0
C255 C 0.17211 0.00231 0.35481 0.0
C256 C 0.18587 0.01696 0.35203 0.0
H257 H 0.08794 0.00178 0.65336 0.0
H258 H 0.11795 0.00322 0.59667 0.0
C259 C 0.20055 0.01629 0.30878 0.0
C260 C 0.15563 0.00335 0.3973 0.0
H261 H 0.11509 0.02836 0.42732 0.0
C262 C 0.1529 0.9886 0.43964 0.0
C263 C 0.14182 0.01789 0.39291 0.0
C264 C 0.14351 0.03368 0.34665 0.0
C265 C 0.13664 0.98784 0.47702 0.0
C266 C 0.12284 0.00238 0.4726 0.0
C267 C 0.12572 0.01728 0.43094 0.0
C268 C 0.10473 0.00177 0.50782 0.0
C269 C 0.13403 0.97107 0.51917 0.0
C270 C 0.08728 0.00091 0.47689 0.0
C271 C 0.07011 0.00021 0.50907 0.0
C272 C 0.06996 0.00041 0.57314 0.0
C273 C 0.08748 0.00147 0.60411 0.0
C274 C 0.10469 0.0022 0.57175 0.0
H275 H 0.14366 0.95911 0.50733 0.0
H276 H 0.13726 0.97564 0.56647 0.0
H277 H 0.11911 0.96574 0.51792 0.0
H278 H 0.08693 0.00061 0.4276 0.0
H279 H 0.05695 -0.00055 0.48353 0.0
H280 H 0.48741 0.17549 0.20139 0.0
H281 H 0.48666 0.1498 0.2761 0.0
H282 H 0.50361 0.18941 0.41682 0.0
H283 H 0.50478 0.2153 0.34179 0.0
H284 H 0.5204 0.13975 0.34878 0.0
H285 H 0.45706 0.15813 0.4892 0.0
H286 H 0.46002 0.16668 0.41225 0.0
H287 H 0.47406 0.17677 0.47254 0.0
C288 C 0.49096 0.17881 0.24822 0.0
C289 C 0.49637 0.19746 0.26536 0.0
C290 C 0.49041 0.16411 0.29094 0.0
C291 C 0.49504 0.16769 0.35199 0.0
C292 C 0.49978 0.18638 0.37001 0.0
H293 H 0.50095 0.08336 0.64819 0.0
H294 H 0.50093 0.11353 0.5917 0.0
C295 C 0.5004 0.20117 0.32709 0.0
C296 C 0.49616 0.15148 0.39517 0.0
H297 H 0.47366 0.13024 0.51544 0.0
C298 C 0.51025 0.13772 0.38544 0.0
C299 C 0.48305 0.14899 0.44336 0.0
C300 C 0.46759 0.16332 0.4552 0.0
C301 C 0.51138 0.12136 0.42186 0.0
C302 C 0.49774 0.11837 0.4684 0.0
C303 C 0.48403 0.13246 0.47955 0.0
C304 C 0.49699 0.10026 0.50351 0.0
C305 C 0.52725 0.10742 0.41014 0.0
C306 C 0.49433 0.08282 0.47297 0.0
C307 C 0.49442 0.06562 0.50491 0.0
C308 C 0.49697 0.06541 0.56844 0.0
C309 C 0.49903 0.08296 0.59931 0.0
C310 C 0.499 0.10023 0.56711 0.0
H311 H 0.53953 0.11441 0.38715 0.0
H312 H 0.5323 0.10091 0.45313 0.0
H313 H 0.52196 0.09584 0.37985 0.0
H314 H 0.49228 0.08249 0.42413 0.0
H315 H 0.49257 0.05246 0.47953 0.0
H316 H 0.2928 0.52243 0.33996 0.0
H317 H 0.31808 0.52046 0.41688 0.0
H318 H 0.34787 0.47985 0.30482 0.0
H319 H 0.32265 0.48154 0.22845 0.0
H320 H 0.34724 0.47092 0.43308 0.0
H321 H 0.37127 0.54525 0.38493 0.0
H322 H 0.34658 0.54201 0.40426 0.0
H323 H 0.35558 0.53221 0.33447 0.0
C324 C 0.30458 0.51284 0.33228 0.0
C325 C 0.30583 0.5023 0.27782 0.0
C326 C 0.31907 0.51184 0.376 0.0
C327 C 0.335 0.50021 0.36613 0.0
C328 C 0.33578 0.48898 0.31324 0.0
H329 H 0.45044 0.5018 0.48736 0.0
H330 H 0.41997 0.50235 0.43422 0.0
C331 C 0.3214 0.49005 0.26949 0.0
C332 C 0.3514 0.50038 0.40883 0.0
H333 H 0.38881 0.52801 0.45698 0.0
C334 C 0.35622 0.48345 0.43895 0.0
C335 C 0.36322 0.51669 0.41578 0.0
C336 C 0.35908 0.53507 0.38294 0.0
C337 C 0.37268 0.48233 0.47521 0.0
C338 C 0.38458 0.49859 0.48161 0.0
C339 C 0.3796 0.51559 0.45225 0.0
C340 C 0.40295 0.49793 0.51502 0.0
C341 C 0.37763 0.46359 0.50454 0.0
C342 C 0.40352 0.49534 0.57833 0.0
C343 C 0.421 0.49506 0.60913 0.0
C344 C 0.43824 0.49736 0.57711 0.0
C345 C 0.43752 0.49992 0.51362 0.0
C346 C 0.42008 0.50028 0.48307 0.0
H347 H 0.36867 0.45163 0.48715 0.0
H348 H 0.39283 0.46016 0.49647 0.0
H349 H 0.37545 0.46473 0.55444 0.0
H350 H 0.39045 0.49372 0.604 0.0
H351 H 0.42099 0.49312 0.65799 0.0
H352 H 0.04178 0.29193 0.28983 0.0
H353 H 0.04342 0.31818 0.36422 0.0
H354 H 0.9852 0.33252 0.32446 0.0
H355 H 0.98343 0.30636 0.25066 0.0
H356 H 0.03624 0.35808 0.33553 0.0
H357 H 0.98749 0.33023 0.51356 0.0
H358 H 0.99865 0.31499 0.45766 0.0
H359 H 0.97824 0.32888 0.43743 0.0
C360 C 0.02926 0.30051 0.29772 0.0
C361 C 0.01249 0.29712 0.26433 0.0
C362 C 0.03024 0.31553 0.33996 0.0
C363 C 0.01437 0.32717 0.35023 0.0
C364 C 0.99752 0.32356 0.31784 0.0
H365 H 0.9819 0.42884 0.53992 0.0
H366 H 0.98436 0.39884 0.48375 0.0
C367 C 0.99659 0.3087 0.27533 0.0
C368 C 0.01559 0.34383 0.39198 0.0
H369 H 0.99538 0.36332 0.51892 0.0
C370 C 0.02752 0.35917 0.37614 0.0
C371 C 0.00411 0.34521 0.44465 0.0
C372 C 0.9915 0.3289 0.46482 0.0
C373 C 0.02769 0.37621 0.41012 0.0
C374 C 0.01592 0.37776 0.46226 0.0
C375 C 0.00437 0.36217 0.47896 0.0
C376 C 0.01463 0.39572 0.49827 0.0
C377 C 0.0398 0.39269 0.38817 0.0
C378 C 0.03077 0.40384 0.52612 0.0
C379 C 0.02945 0.42113 0.55801 0.0
C380 C 0.01189 0.43053 0.56332 0.0
C381 C 0.99566 0.42206 0.53675 0.0
C382 C 0.99703 0.40486 0.50461 0.0
H383 H 0.04414 0.39085 0.3399 0.0
H384 H 0.0321 0.4064 0.39269 0.0
H385 H 0.05291 0.39362 0.41615 0.0
H386 H 0.04442 0.39683 0.52314 0.0
H387 H 0.0422 0.42714 0.57833 0.0
H388 H 0.79425 0.95094 0.9732 0.0
H389 H 0.82406 0.95849 0.92163 0.0
H390 H 0.82544 0.01371 0.00889 0.0
H391 H 0.79591 0.00585 0.06326 0.0
H392 H 0.83471 0.98571 0.84294 0.0
H393 H 0.87691 0.9932 0.05564 0.0
H394 H 0.85297 0.98374 0.0551 0.0
H395 H 0.85704 0.00905 0.05033 0.0
C396 C 0.80093 0.96467 0.98191 0.0
C397 C 0.79283 0.97764 0.0234 0.0
C398 C 0.81794 0.96902 0.95193 0.0
C399 C 0.82729 0.98649 0.96233 0.0
C400 C 0.81878 -8e-05 0.0013 0.0
H401 H 0.9373 0.02544 0.81691 0.0
H402 H 0.90566 0.02437 0.8637 0.0
C403 C 0.80174 0.99552 0.03174 0.0
C404 C 0.84607 0.99022 0.93294 0.0
H405 H 0.89318 -0.0015 0.96322 0.0
C406 C 0.84747 0.98859 0.86931 0.0
C407 C 0.86278 0.99392 0.96726 0.0
C408 C 0.86247 0.99492 0.03587 0.0
C409 C 0.86505 0.99036 0.83927 0.0
C410 C 0.88173 0.99375 0.87368 0.0
C411 C 0.88034 0.9959 0.93702 0.0
C412 C 0.90085 0.99442 0.84488 0.0
C413 C 0.86572 0.98852 0.77089 0.0
C414 C 0.90873 0.97787 0.81939 0.0
C415 C 0.92687 0.97837 0.79302 0.0
C416 C 0.93749 0.99548 0.79134 0.0
C417 C 0.92952 0.01204 0.8171 0.0
C418 C 0.91144 0.01147 0.84397 0.0
H419 H 0.8514 0.99003 0.75014 0.0
H420 H 0.87541 -0.00056 0.75107 0.0
H421 H 0.87128 0.97425 0.75851 0.0
H422 H 0.90088 0.9645 0.82031 0.0
H423 H 0.93252 0.96534 0.77372 0.0
H424 H 0.54107 0.8125 0.09989 0.0
H425 H 0.53246 0.84123 0.0442 0.0
H426 H 0.50155 0.80697 0.91358 0.0
H427 H 0.51054 0.77795 0.96859 0.0
H428 H 0.5264 0.83302 0.85998 0.0
H429 H 0.4819 0.86907 0.03292 0.0
H430 H 0.50463 0.86206 0.06213 0.0
H431 H 0.48786 0.8441 0.03751 0.0
C432 C 0.53235 0.81105 0.05947 0.0
C433 C 0.52656 0.79292 0.03852 0.0
C434 C 0.52727 0.82753 0.02802 0.0
C435 C 0.51616 0.8263 0.97511 0.0
C436 C 0.51003 0.80826 0.95456 0.0
H437 H 0.47456 0.92897 0.79345 0.0
H438 H 0.47649 0.8979 0.84333 0.0
C439 C 0.51507 0.79171 0.98621 0.0
C440 C 0.51208 0.84379 0.93952 0.0
H441 H 0.49371 0.88864 0.95173 0.0
C442 C 0.51905 0.8451 0.87977 0.0
C443 C 0.50232 0.85949 0.96506 0.0
C444 C 0.49357 0.85859 0.02771 0.0
C445 C 0.51717 0.86193 0.84578 0.0
C446 C 0.50835 0.87799 0.8726 0.0
C447 C 0.5007 0.87642 0.93144 0.0
C448 C 0.50722 0.89666 0.8409 0.0
C449 C 0.52465 0.86235 0.78143 0.0
C450 C 0.52387 0.90642 0.82348 0.0
C451 C 0.52284 0.92419 0.79489 0.0
C452 C 0.50511 0.93267 0.78345 0.0
C453 C 0.48845 0.92289 0.80135 0.0
C454 C 0.48952 0.90511 0.82993 0.0
H455 H 0.52584 0.84775 0.76201 0.0
H456 H 0.51533 0.87093 0.75149 0.0
H457 H 0.53907 0.86893 0.78129 0.0
H458 H 0.53772 0.9004 0.8327 0.0
H459 H 0.53597 0.93133 0.78213 0.0
H460 H 0.72485 0.51915 0.98408 0.0
H461 H 0.69674 0.50896 0.92587 0.0
H462 H 0.66033 0.53493 0.06017 0.0
H463 H 0.6882 0.54458 0.11934 0.0
H464 H 0.64674 0.49987 0.02136 0.0
H465 H 0.66533 0.5461 0.82471 0.0
H466 H 0.68316 0.52912 0.84574 0.0
H467 H 0.6772 0.54814 0.89724 0.0
C468 C 0.71085 0.52241 0.00169 0.0
C469 C 0.7088 0.5329 0.05603 0.0
C470 C 0.69479 0.51677 0.96801 0.0
C471 C 0.67642 0.52153 0.98799 0.0
C472 C 0.67435 0.53123 0.04354 0.0
H473 H 0.5709 0.53599 0.79766 0.0
H474 H 0.60131 0.53879 0.85076 0.0
C475 C 0.69032 0.53685 0.07713 0.0
C476 C 0.65928 0.51704 0.95069 0.0
H477 H 0.6373 0.52762 0.81638 0.0
C478 C 0.64472 0.50581 0.97633 0.0
C479 C 0.65656 0.52501 0.89225 0.0
C480 C 0.67128 0.5379 0.86336 0.0
C481 C 0.62746 0.50251 0.94553 0.0
C482 C 0.62477 0.51043 0.887 0.0
C483 C 0.63942 0.52146 0.86104 0.0
C484 C 0.60646 0.50841 0.85348 0.0
C485 C 0.61198 0.49121 0.97697 0.0
C486 C 0.5993 0.4904 0.8365 0.0
C487 C 0.58181 0.48872 0.80623 0.0
C488 C 0.57119 0.50505 0.7919 0.0
C489 C 0.57862 0.52309 0.80799 0.0
C490 C 0.59605 0.52473 0.83832 0.0
H491 H 0.6146 0.48997 0.02664 0.0
H492 H 0.59787 0.4979 0.97002 0.0
H493 H 0.61141 0.47659 0.95747 0.0
H494 H 0.60725 0.47762 0.84657 0.0
H495 H 0.57662 0.47461 0.7942 0.0
H496 H 0.9485 0.70161 0.98076 0.0
H497 H 0.95686 0.67274 0.92587 0.0
H498 H 0.01442 0.67729 0.99277 0.0
H499 H 0.00571 0.70544 0.05244 0.0
H500 H 0.97971 0.66474 0.83871 0.0
H501 H 0.0032 0.62383 0.04035 0.0
H502 H 0.99186 0.64671 0.04702 0.0
H503 H 0.01678 0.64527 0.02851 0.0
C504 C 0.96289 0.69635 0.98498 0.0
C505 C 0.97627 0.70571 0.02259 0.0
C506 C 0.96772 0.67988 0.95273 0.0
C507 C 0.98617 0.67244 0.95617 0.0
C508 C -9e-05 0.68232 0.99083 0.0
H509 H 0.01615 0.57966 0.70214 0.0
H510 H 0.0139 0.61075 0.75254 0.0
C511 C 0.99498 0.69867 0.0242 0.0
C512 C 0.99064 0.65427 0.92371 0.0
H513 H 0.00697 0.60894 0.94463 0.0
C514 C 0.98569 0.65254 0.86194 0.0
C515 C 0.99821 0.6382 0.95402 0.0
C516 C 0.00265 0.63848 0.02123 0.0
C517 C 0.98768 0.63523 0.8301 0.0
C518 C 0.99565 0.6193 0.86002 0.0
C519 C 0.00097 0.62113 0.92144 0.0
C520 C 0.99772 0.60034 0.82969 0.0
C521 C 0.98036 0.63406 0.76559 0.0
C522 C 0.99014 0.58387 0.85726 0.0
C523 C 0.9919 0.566 0.82935 0.0
C524 C 0.00105 0.56419 0.77275 0.0
C525 C 0.00876 0.58062 0.7453 0.0
C526 C 0.00736 0.59846 0.77392 0.0
H527 H 0.96967 0.64528 0.75631 0.0
H528 H 0.99238 0.63625 0.73356 0.0
H529 H 0.97373 0.61993 0.756 0.0
H530 H 0.98268 0.58486 0.90029 0.0
H531 H 0.9858 0.55362 0.85169 0.0
H532 H 0.04467 0.17898 0.33345 0.0
H533 H 0.03209 0.15433 0.40115 0.0
H534 H 0.97515 0.17483 0.3714 0.0
H535 H 0.98769 0.19937 0.30247 0.0
H536 H 0.00857 0.15216 0.50509 0.0
H537 H 0.9747 0.12038 0.29875 0.0
H538 H 0.99192 0.13955 0.29438 0.0
H539 H 0.96796 0.14435 0.31806 0.0
C540 C 0.02953 0.17858 0.34284 0.0
C541 C 0.01712 0.19091 0.31238 0.0
C542 C 0.02236 0.1645 0.38142 0.0
C543 C 0.00267 0.1625 0.39004 0.0
C544 C 0.99037 0.17596 0.36439 0.0
H545 H 0.96632 0.06682 0.62075 0.0
H546 H 0.96598 0.09816 0.57244 0.0
C547 C 0.99756 0.1901 0.32568 0.0
C548 C 0.99522 0.14507 0.41985 0.0
H549 H 0.97343 0.1024 0.38837 0.0
C550 C 0.00058 0.14139 0.48009 0.0
C551 C 0.98509 0.13096 0.38648 0.0
C552 C 0.97966 0.13384 0.3207 0.0
C553 C 0.99662 0.12372 0.50735 0.0
C554 C 0.98675 0.1095 0.47364 0.0
C555 C 0.98085 0.11341 0.41409 0.0
C556 C 0.98413 0.08992 0.49747 0.0
C557 C 0.00397 0.12005 0.57076 0.0
C558 C 0.99344 0.07462 0.46912 0.0
C559 C 0.9935 0.05661 0.49619 0.0
C560 C 0.9843 0.05365 0.55223 0.0
C561 C 0.97376 0.06867 0.57797 0.0
C562 C 0.97363 0.08663 0.55067 0.0
H563 H 0.01444 0.13109 0.5856 0.0
H564 H 0.99189 0.12018 0.60328 0.0
H565 H 0.01082 0.10585 0.57333 0.0
H566 H 0.00152 0.07686 0.42771 0.0
H567 H 0.00172 0.04537 0.47509 0.0
H568 H 0.30111 0.97259 0.29199 0.0
H569 H 0.32565 0.96 0.36011 0.0
H570 H 0.34301 0.0175 0.40561 0.0
H571 H 0.31856 0.03002 0.33798 0.0
H572 H 0.36363 0.968 0.33438 0.0
H573 H 0.34652 0.99043 0.56945 0.0
H574 H 0.3288 0.98923 0.50993 0.0
H575 H 0.34433 0.00969 0.5164 0.0
C576 C 0.30963 0.98247 0.31874 0.0
C577 C 0.30797 0.00224 0.31023 0.0
C578 C 0.32371 0.97529 0.35716 0.0
C579 C 0.33607 0.98782 0.38812 0.0
C580 C 0.33341 0.00757 0.38311 0.0
H581 H 0.45296 0.99346 0.46461 0.0
H582 H 0.4217 0.99039 0.41685 0.0
C583 C 0.31947 0.01473 0.34445 0.0
C584 C 0.3535 0.98065 0.41778 0.0
H585 H 0.37982 0.98527 0.54725 0.0
C586 C 0.36703 0.97136 0.38137 0.0
C587 C 0.35785 0.98491 0.47909 0.0
C588 C 0.34352 0.99394 0.52115 0.0
C589 C 0.38528 0.96736 0.40359 0.0
C590 C 0.39012 0.97301 0.46342 0.0
C591 C 0.37617 0.98113 0.50107 0.0
C592 C 0.40987 0.97207 0.48668 0.0
C593 C 0.39934 0.95755 0.36235 0.0
C594 C 0.41369 0.96255 0.54123 0.0
C595 C 0.43151 0.96436 0.56877 0.0
C596 C 0.44582 0.97586 0.5425 0.0
C597 C 0.44232 0.98443 0.4859 0.0
C598 C 0.42445 0.98263 0.45842 0.0
H599 H 0.39197 0.94885 0.32703 0.0
H600 H 0.4081 0.9685 0.33873 0.0
H601 H 0.409 0.94819 0.38854 0.0
H602 H 0.40264 0.95435 0.56377 0.0
H603 H 0.43374 0.95746 0.61219 0.0
H604 H 0.46745 0.31631 0.33082 0.0
H605 H 0.4791 0.34177 0.39781 0.0
H606 H 0.53669 0.32265 0.37084 0.0
H607 H 0.52505 0.29721 0.30301 0.0
H608 H 0.50294 0.34525 0.50292 0.0
H609 H 0.53491 0.37668 0.29359 0.0
H610 H 0.51814 0.35707 0.29085 0.0
H611 H 0.5423 0.353 0.31354 0.0
C612 C 0.48252 0.31715 0.34097 0.0
C613 C 0.49538 0.30494 0.31162 0.0
C614 C 0.48917 0.3317 0.37903 0.0
C615 C 0.50878 0.33431 0.38808 0.0
C616 C 0.52153 0.321 0.36359 0.0
H617 H 0.5444 0.43202 0.61264 0.0
H618 H 0.54495 0.40056 0.56451 0.0
C619 C 0.51485 0.30636 0.32553 0.0
C620 C 0.51566 0.35221 0.41673 0.0
H621 H 0.53591 0.39534 0.38236 0.0
C622 C 0.51046 0.3561 0.47706 0.0
C623 C 0.52515 0.36642 0.38222 0.0
C624 C 0.53038 0.36325 0.31632 0.0
C625 C 0.51404 0.37404 0.50346 0.0
C626 C 0.52331 0.38833 0.46868 0.0
C627 C 0.52897 0.38427 0.40889 0.0
C628 C 0.52565 0.40805 0.49199 0.0
C629 C 0.507 0.37787 0.56724 0.0
C630 C 0.51556 0.42299 0.46487 0.0
C631 C 0.51533 0.44108 0.49191 0.0
C632 C 0.52517 0.44448 0.54663 0.0
C633 C 0.53647 0.42984 0.57091 0.0
C634 C 0.53673 0.4118 0.54371 0.0
H635 H 0.497 0.3666 0.58328 0.0
H636 H 0.5193 0.37837 0.59885 0.0
H637 H 0.49971 0.39185 0.56973 0.0
H638 H 0.50703 0.42038 0.42459 0.0
H639 H 0.50652 0.452 0.47191 0.0
H640 H 0.20043 0.50162 0.36766 0.0
H641 H 0.17481 0.51277 0.43383 0.0
H642 H 0.17422 0.56649 0.33857 0.0
H643 H 0.19968 0.55507 0.27138 0.0
H644 H 0.16467 0.54418 0.50881 0.0
H645 H 0.12339 0.54129 0.29201 0.0
H646 H 0.14725 0.5322 0.29722 0.0
H647 H 0.14331 0.55748 0.29539 0.0
C648 C 0.19548 0.51615 0.36304 0.0
C649 C 0.202 0.52758 0.31506 0.0
C650 C 0.18077 0.52249 0.40049 0.0
C651 C 0.17234 0.54029 0.39012 0.0
C652 C 0.18035 0.55259 0.34664 0.0
H653 H 0.05313 0.54992 0.51981 0.0
H654 H 0.08351 0.56152 0.47731 0.0
C655 C 0.19503 0.54619 0.3089 0.0
C656 C 0.15351 0.54418 0.41759 0.0
H657 H 0.10614 0.54266 0.38248 0.0
C658 C 0.15188 0.54436 0.4812 0.0
C659 C 0.1368 0.54441 0.38141 0.0
C660 C 0.13762 0.54373 0.31274 0.0
C661 C 0.134 0.54352 0.50956 0.0
C662 C 0.11742 0.54223 0.47331 0.0
C663 C 0.11894 0.54366 0.40995 0.0
C664 C 0.09902 0.53592 0.49932 0.0
C665 C 0.13301 0.54296 0.57808 0.0
C666 C 0.09764 0.51753 0.52366 0.0
C667 C 0.08045 0.51081 0.54694 0.0
C668 C 0.06414 0.52234 0.54654 0.0
C669 C 0.06541 0.54069 0.52085 0.0
C670 C 0.08274 0.54738 0.49695 0.0
H671 H 0.14564 0.55002 0.59896 0.0
H672 H 0.11993 0.54999 0.5951 0.0
H673 H 0.13274 0.52786 0.59321 0.0
H674 H 0.10992 0.50828 0.52441 0.0
H675 H 0.08008 0.49658 0.566 0.0
H676 H 0.00036 0.80409 0.98057 0.0
H677 H 0.0133 0.83012 0.91952 0.0
H678 H 0.06302 0.83255 0.03445 0.0
H679 H 0.04997 0.80652 0.09606 0.0
H680 H 0.04316 0.86513 0.03776 0.0
H681 H 0.05389 0.84483 0.79734 0.0
H682 H 0.03127 0.83649 0.82462 0.0
H683 H 0.05281 0.82739 0.8577 0.0
C684 C 0.0145 0.80947 0.99086 0.0
C685 C 0.02411 0.80341 0.04325 0.0
C686 C 0.02192 0.8244 0.95588 0.0
C687 C 0.03915 0.83333 0.9724 0.0
C688 C 0.04972 0.82586 0.02083 0.0
H689 H 0.05857 0.94582 0.79798 0.0
H690 H 0.06767 0.91538 0.845 0.0
C691 C 0.04229 0.81097 0.05588 0.0
C692 C 0.0438 0.85253 0.94803 0.0
H693 H 0.04529 0.8781 0.81618 0.0
C694 C 0.04422 0.8679 0.98933 0.0
C695 C 0.04525 0.85622 0.88497 0.0
C696 C 0.04598 0.8403 0.83871 0.0
C697 C 0.04446 0.88683 0.96903 0.0
C698 C 0.04422 0.89048 0.90597 0.0
C699 C 0.04536 0.87521 0.86464 0.0
C700 C 0.03975 0.90966 0.88247 0.0
C701 C 0.04389 0.90284 0.01507 0.0
C702 C 0.02118 0.91651 0.88894 0.0
C703 C 0.01594 0.93364 0.86194 0.0
C704 C 0.02923 0.94436 0.82837 0.0
C705 C 0.0481 0.93793 0.8242 0.0
C706 C 0.05328 0.92054 0.85057 0.0
H707 H 0.0489 0.89811 0.06049 0.0
H708 H 0.05278 0.9151 -0.0001 0.0
H709 H 0.02902 0.90784 0.01986 0.0
H710 H 0.01052 0.90822 0.91312 0.0
H711 H 0.0013 0.93823 0.86589 0.0
H712 H 0.6947 0.00029 0.97458 0.0
H713 H 0.66911 0.01231 0.91088 0.0
H714 H 0.66657 0.06345 0.02045 0.0
H715 H 0.69204 0.05122 0.08509 0.0
H716 H 0.6338 0.04476 0.02245 0.0
H717 H 0.65593 0.05045 0.78267 0.0
H718 H 0.66324 0.02798 0.81296 0.0
H719 H 0.67298 0.0498 0.84415 0.0
C720 C 0.68938 0.01452 0.98317 0.0
C721 C 0.69527 0.02479 0.03485 0.0
C722 C 0.6747 0.02142 0.94664 0.0
C723 C 0.66588 0.03883 0.96072 0.0
C724 C 0.67315 0.05 0.00864 0.0
H725 H 0.54991 0.05516 0.80525 0.0
H726 H 0.5804 0.06561 0.8503 0.0
C727 C 0.68775 0.04305 0.04539 0.0
C728 C 0.64702 0.04321 0.9339 0.0
H729 H 0.62245 0.0413 0.80003 0.0
C730 C 0.6314 0.0447 0.9737 0.0
C731 C 0.64379 0.04317 0.87036 0.0
C732 C 0.65995 0.04297 0.8252 0.0
C733 C 0.61266 0.0444 0.95179 0.0
C734 C 0.60948 0.04256 0.88873 0.0
C735 C 0.625 0.04264 0.84855 0.0
C736 C 0.59059 0.03696 0.86507 0.0
C737 C 0.59631 0.04454 0.99623 0.0
C738 C 0.58622 0.01751 0.86011 0.0
C739 C 0.56901 0.01154 0.8349 0.0
C740 C 0.55573 0.02493 0.81403 0.0
C741 C 0.5598 0.04452 0.82123 0.0
C742 C 0.57721 0.0505 0.84644 0.0
H743 H 0.60098 0.04844 0.04297 0.0
H744 H 0.5853 0.05478 0.98115 0.0
H745 H 0.58961 0.03015 -0.00249 0.0
H746 H 0.59636 0.00689 0.87472 0.0
H747 H 0.56631 0.99636 0.83042 0.0
H748 H 0.50475 0.69283 0.97936 0.0
H749 H 0.49184 0.66682 0.91761 0.0
H750 H 0.44232 0.66402 0.03345 0.0
H751 H 0.45539 0.68997 0.09589 0.0
H752 H 0.46217 0.63168 0.0359 0.0
H753 H 0.45154 0.65151 0.79571 0.0
H754 H 0.47415 0.66001 0.82264 0.0
H755 H 0.45259 0.66909 0.85606 0.0
C756 C 0.49065 0.68738 0.98969 0.0
C757 C 0.48112 0.69328 0.04257 0.0
C758 C 0.48324 0.67246 0.9543 0.0
C759 C 0.46609 0.66341 0.97088 0.0
C760 C 0.45555 0.67078 0.01977 0.0
H761 H 0.44904 0.54943 0.79991 0.0
H762 H 0.43895 0.57975 0.84659 0.0
C763 C 0.463 0.68564 0.05528 0.0
C764 C 0.46158 0.64415 0.94627 0.0
H765 H 0.46085 0.61836 0.81418 0.0
C766 C 0.46125 0.62884 0.98743 0.0
C767 C 0.46032 0.64035 0.88314 0.0
C768 C 0.45947 0.65617 0.83697 0.0
C769 C 0.46136 0.60988 0.96697 0.0
C770 C 0.46185 0.60614 0.90391 0.0
C771 C 0.46057 0.62132 0.86266 0.0
C772 C 0.46696 0.58709 0.8805 0.0
C773 C 0.46217 0.59394 0.01279 0.0
C774 C 0.4859 0.58119 0.88523 0.0
C775 C 0.49168 0.56415 0.85847 0.0
C776 C 0.47858 0.55255 0.82694 0.0
C777 C 0.45937 0.55801 0.82459 0.0
C778 C 0.45363 0.57533 0.85072 0.0
H779 H 0.45729 0.59868 0.05847 0.0
H780 H 0.4533 0.58162 -0.00227 0.0
H781 H 0.47708 0.589 0.0169 0.0
H782 H 0.49638 0.59014 0.90792 0.0
H783 H 0.50656 0.5603 0.86097 0.0
H784 H 0.80378 0.51773 0.97815 0.0
H785 H 0.82761 0.50724 0.9046 0.0
H786 H 0.84353 0.46151 0.02483 0.0
H787 H 0.819 0.47123 0.09648 0.0
H788 H 0.8629 0.51093 0.93577 0.0
H789 H 0.8527 0.43586 0.86641 0.0
H790 H 0.8339 0.44953 0.90118 0.0
H791 H 0.85151 0.43796 0.94758 0.0
C792 C 0.81163 0.50482 0.98737 0.0
C793 C 0.80974 0.49548 0.04352 0.0
C794 C 0.8254 0.49893 0.94552 0.0
C795 C 0.83752 0.48366 0.95923 0.0
C796 C 0.83425 0.47313 0.01247 0.0
H797 H 0.95795 0.48688 0.88369 0.0
H798 H 0.92649 0.48557 0.93134 0.0
C799 C 0.82032 0.47883 0.05383 0.0
C800 C 0.85558 0.48116 0.92504 0.0
H801 H 0.88531 0.44781 0.86397 0.0
C802 C 0.86761 0.49715 0.91915 0.0
C803 C 0.86182 0.46323 0.9032 0.0
C804 C 0.84917 0.44574 0.90438 0.0
C805 C 0.88582 0.49566 0.89384 0.0
C806 C 0.89254 0.47753 0.87572 0.0
C807 C 0.88032 0.46161 0.87938 0.0
C808 C 0.91199 0.47514 0.85078 0.0
C809 C 0.89761 0.51362 0.88634 0.0
C810 C 0.91445 0.46846 0.79115 0.0
C811 C 0.93243 0.46889 0.76413 0.0
C812 C 0.94831 0.47611 0.79618 0.0
C813 C 0.94602 0.48145 0.85746 0.0
C814 C 0.92802 0.48084 0.88463 0.0
H815 H 0.8886 0.52657 0.88621 0.0
H816 H 0.90771 0.51493 0.92496 0.0
H817 H 0.90593 0.51326 0.84339 0.0
H818 H 0.9023 0.46383 0.7644 0.0
H819 H 0.93365 0.4645 0.71698 0.0
H820 H 0.06763 0.17552 0.15627 0.0
H821 H 0.07301 0.14886 0.08614 0.0
H822 H 0.02577 0.16739 0.97642 0.0
H823 H 0.02075 0.19427 0.04546 0.0
H824 H 0.04791 0.12117 0.07332 0.0
H825 H 0.06151 0.15101 0.84532 0.0
H826 H 0.06329 0.16535 0.91355 0.0
H827 H 0.04052 0.16121 0.87788 0.0
C828 C 0.0589 0.17428 0.1158 0.0
C829 C 0.04383 0.18698 0.10607 0.0
C830 C 0.06191 0.159 0.07594 0.0
C831 C 0.04988 0.1561 0.02569 0.0
C832 C 0.03558 0.16952 0.01385 0.0
H833 H 0.00116 0.0673 0.82192 0.0
H834 H 0.0115 0.0956 0.87754 0.0
C835 C 0.03269 0.18492 0.0534 0.0
C836 C 0.05037 0.13779 0.99123 0.0
H837 H 0.04791 0.11897 0.84778 0.0
C838 C 0.04841 0.12067 0.02402 0.0
C839 C 0.05102 0.13705 0.92688 0.0
C840 C 0.05441 0.15465 0.88899 0.0
C841 C 0.04592 0.10307 0.9942 0.0
C842 C 0.04539 0.10256 0.93003 0.0
C843 C 0.04826 0.11946 0.89711 0.0
C844 C 0.03966 0.08505 0.89667 0.0
C845 C 0.04278 0.08525 0.03129 0.0
C846 C 0.0521 0.06961 0.88942 0.0
C847 C 0.04624 0.05325 0.85729 0.0
C848 C 0.02782 0.05208 0.83223 0.0
C849 C 0.01542 0.06758 0.84056 0.0
C850 C 0.02131 0.08386 0.87215 0.0
H851 H 0.04275 0.0882 0.08099 0.0
H852 H 0.029 0.07847 0.01861 0.0
H853 H 0.05419 0.07485 0.02116 0.0
H854 H 0.06635 0.07032 0.90812 0.0
H855 H 0.05617 0.04163 0.85158 0.0
H856 H 0.32481 0.05369 0.15878 0.0
H857 H 0.35134 0.05945 0.08871 0.0
H858 H 0.33144 0.01317 0.97475 0.0
H859 H 0.30464 0.00781 0.04379 0.0
H860 H 0.37858 0.03467 0.07145 0.0
H861 H 0.34742 0.05018 0.8467 0.0
H862 H 0.33357 0.05115 0.91585 0.0
H863 H 0.33744 0.0287 0.87766 0.0
C864 C 0.32574 0.04526 0.11748 0.0
C865 C 0.31261 0.03039 0.10643 0.0
C866 C 0.34095 0.04847 0.07765 0.0
C867 C 0.34342 0.03684 0.02608 0.0
C868 C 0.32967 0.02268 0.01322 0.0
H869 H 0.4314 0.99336 0.80771 0.0
H870 H 0.40323 0.00197 0.86556 0.0
C871 C 0.31431 0.01961 0.05274 0.0
C872 C 0.3615 0.03776 0.99065 0.0
H873 H 0.37947 0.03755 0.84607 0.0
C874 C 0.37878 0.03576 0.02224 0.0
C875 C 0.36186 0.03917 0.92639 0.0
C876 C 0.34407 0.04263 0.88981 0.0
C877 C 0.39619 0.03408 0.99126 0.0
C878 C 0.39637 0.03445 0.92704 0.0
C879 C 0.37926 0.03723 0.89542 0.0
C880 C 0.41378 0.02984 0.89192 0.0
C881 C 0.41418 0.03091 0.02709 0.0
C882 C 0.42917 0.04269 0.88772 0.0
C883 C 0.44549 0.03784 0.85423 0.0
C884 C 0.44665 0.02 0.82478 0.0
C885 C 0.43116 0.0072 0.82981 0.0
C886 C 0.41493 0.01211 0.86269 0.0
H887 H 0.41143 0.02961 0.0767 0.0
H888 H 0.42133 0.01774 0.01093 0.0
H889 H 0.42415 0.04304 0.01966 0.0
H890 H 0.42851 0.05649 0.90994 0.0
H891 H 0.45709 0.04805 0.85116 0.0
H892 H 0.44682 0.31941 0.14809 0.0
H893 H 0.44228 0.34587 0.07719 0.0
H894 H 0.49164 0.32788 0.97586 0.0
H895 H 0.49582 0.30114 0.04563 0.0
H896 H 0.46697 0.37403 0.06803 0.0
H897 H 0.4578 0.34295 0.83858 0.0
H898 H 0.4553 0.32885 0.90676 0.0
H899 H 0.47851 0.33361 0.87506 0.0
C900 C 0.45623 0.32072 0.10922 0.0
C901 C 0.47159 0.30818 0.10203 0.0
C902 C 0.4537 0.33589 0.06895 0.0
C903 C 0.46654 0.33889 0.02084 0.0
C904 C 0.48124 0.32567 0.01155 0.0
H905 H 0.51177 0.42965 0.81298 0.0
H906 H 0.50318 0.40076 0.86793 0.0
C907 C 0.48364 0.31035 0.05148 0.0
C908 C 0.4662 0.35708 0.98597 0.0
H909 H 0.46946 0.37557 0.84262 0.0
C910 C 0.46708 0.37436 0.0187 0.0
C911 C 0.46637 0.35759 0.92158 0.0
C912 C 0.46424 0.33974 0.88353 0.0
C913 C 0.46912 0.39197 0.98898 0.0
C914 C 0.47024 0.39236 0.92484 0.0
C915 C 0.46865 0.37521 0.89191 0.0
C916 C 0.47491 0.41016 0.89158 0.0
C917 C 0.47104 0.40999 0.02634 0.0
C918 C 0.46183 0.42514 0.88685 0.0
C919 C 0.46668 0.44185 0.85513 0.0
C920 C 0.48473 0.44383 0.8279 0.0
C921 C 0.49777 0.42876 0.83343 0.0
C922 C 0.49287 0.41213 0.86462 0.0
H923 H 0.47186 0.40704 0.0759 0.0
H924 H 0.48399 0.41807 0.01248 0.0
H925 H 0.45857 0.41924 0.01799 0.0
H926 H 0.44784 0.42384 0.9072 0.0
H927 H 0.45627 0.4531 0.85156 0.0
H928 H 0.17485 0.47808 0.18824 0.0
H929 H 0.14848 0.47127 0.11896 0.0
H930 H 0.17841 0.50025 0.97448 0.0
H931 H 0.20478 0.50748 0.04441 0.0
H932 H 0.14236 0.5139 0.99241 0.0
H933 H 0.13978 0.43506 0.97696 0.0
H934 H 0.14034 0.44358 0.05405 0.0
H935 H 0.16038 0.44793 0.00487 0.0
C936 C 0.176 0.48262 0.14131 0.0
C937 C 0.19184 0.49337 0.12174 0.0
C938 C 0.16096 0.47861 0.10162 0.0
C939 C 0.1615 0.48512 0.04135 0.0
C940 C 0.17774 0.49501 0.02075 0.0
H941 H 0.07523 0.4647 0.76525 0.0
H942 H 0.10378 0.46426 0.82829 0.0
C943 C 0.19286 0.49901 0.06053 0.0
C944 C 0.14427 0.48342 0.0024 0.0
H945 H 0.11169 0.45155 0.9457 0.0
C946 C 0.13576 0.50025 0.98173 0.0
C947 C 0.13568 0.46561 0.9883 0.0
C948 C 0.14461 0.44701 0.00668 0.0
C949 C 0.11869 0.49981 0.94852 0.0
C950 C 0.10968 0.48205 0.93656 0.0
C951 C 0.11843 0.46517 0.95586 0.0
C952 C 0.09159 0.48076 0.90173 0.0
C953 C 0.1106 0.51836 0.92583 0.0
C954 C 0.07498 0.48959 0.92306 0.0
C955 C 0.05853 0.4899 0.88703 0.0
C956 C 0.05842 0.48132 0.82903 0.0
C957 C 0.0748 0.47158 0.80945 0.0
C958 C 0.09117 0.47128 0.84546 0.0
H959 H 0.12145 0.52999 0.92584 0.0
H960 H 0.10489 0.5167 0.87898 0.0
H961 H 0.09876 0.52277 0.95606 0.0
H962 H 0.07487 0.49666 0.96697 0.0
H963 H 0.04619 0.49747 0.90368 0.0
H964 H 0.96565 0.81295 0.22188 0.0
H965 H 0.96147 0.83983 0.29217 0.0
H966 H 0.0196 0.83398 0.35202 0.0
H967 H 0.02402 0.8077 0.27956 0.0
H968 H 0.96387 0.84747 0.40982 0.0
H969 H 0.02073 0.8875 0.29003 0.0
H970 H 0.01161 0.86499 0.26234 0.0
H971 H 0.02932 0.86566 0.3216 0.0
C972 C 0.97736 0.81712 0.25125 0.0
C973 C 0.99517 0.80835 0.24539 0.0
C974 C 0.97501 0.83255 0.29111 0.0
C975 C 0.9904 0.83934 0.32601 0.0
C976 C 0.00771 0.82943 0.32405 0.0
H977 H 0.98575 0.92204 0.61875 0.0
H978 H 0.98413 0.89354 0.55538 0.0
C979 C 0.01017 0.81426 0.28338 0.0
C980 C 0.98869 0.85739 0.36145 0.0
H981 H 0.00947 0.90115 0.38233 0.0
C982 C 0.97379 0.85925 0.40363 0.0
C983 C 0.00125 0.87303 0.35212 0.0
C984 C 0.01648 0.87281 0.30359 0.0
C985 C 0.97144 0.87606 0.43789 0.0
C986 C 0.98476 0.89122 0.43131 0.0
C987 C -0.00065 0.88952 0.388 0.0
C988 C 0.98428 0.90876 0.46981 0.0
C989 C 0.95448 0.87747 0.47976 0.0
C990 C 0.98537 0.92697 0.44316 0.0
C991 C 0.98679 0.94338 0.4795 0.0
C992 C 0.98697 0.94194 0.54328 0.0
C993 C 0.98538 0.92374 0.56979 0.0
C994 C 0.9843 0.90736 0.53351 0.0
H995 H 0.94253 0.86831 0.46355 0.0
H996 H 0.95854 0.87241 0.5257 0.0
H997 H 0.94938 0.89238 0.48366 0.0
H998 H 0.98547 0.92846 0.39412 0.0
H999 H 0.98802 0.95717 0.45764 0.0
H1000 H 0.68444 0.02732 0.25839 0.0
H1001 H 0.65863 0.02139 0.33064 0.0
H1002 H 0.6654 0.96073 0.30631 0.0
H1003 H 0.69098 0.9666 0.23276 0.0
H1004 H 0.62855 0.97245 0.28802 0.0
H1005 H 0.656 0.00223 0.50485 0.0
H1006 H 0.65812 0.01866 0.44274 0.0
H1007 H 0.67133 0.99677 0.44127 0.0
C1008 C 0.68072 0.01271 0.2695 0.0
C1009 C 0.68975 0.99743 0.23986 0.0
C1010 C 0.66602 0.00933 0.31106 0.0
C1011 C 0.66013 0.99061 0.32421 0.0
C1012 C 0.66976 0.97529 0.29702 0.0
H1013 H 0.57216 0.96783 0.59548 0.0
H1014 H 0.60124 0.96669 0.53484 0.0
C1015 C 0.68451 0.97866 0.25546 0.0
C1016 C 0.64279 0.98717 0.36145 0.0
H1017 H 0.62224 0.99749 0.49836 0.0
C1018 C 0.62724 0.97772 0.3343 0.0
C1019 C 0.64112 0.99391 0.42194 0.0
C1020 C 0.6576 0.00329 0.45467 0.0
C1021 C 0.60988 0.97538 0.36528 0.0
C1022 C 0.60792 0.98296 0.42468 0.0
C1023 C 0.62367 0.99184 0.45257 0.0
C1024 C 0.58962 0.98214 0.45857 0.0
C1025 C 0.59384 0.96477 0.33414 0.0
C1026 C 0.57326 0.99098 0.43554 0.0
C1027 C 0.55651 0.99158 0.47003 0.0
C1028 C 0.55584 0.98352 0.52855 0.0
C1029 C 0.57211 0.97421 0.55066 0.0
C1030 C 0.58881 0.97357 0.51612 0.0
H1031 H 0.59919 0.95524 0.29752 0.0
H1032 H 0.58555 0.95607 0.36712 0.0
H1033 H 0.58409 0.97521 0.31303 0.0
H1034 H 0.57364 -0.00199 0.39175 0.0
H1035 H 0.54433 -0.00099 0.45175 0.0
H1036 H 0.54113 0.68968 0.2383 0.0
H1037 H 0.54692 0.66434 0.31246 0.0
H1038 H 0.48642 0.657 0.33706 0.0
H1039 H 0.48056 0.68269 0.26475 0.0
H1040 H 0.50611 0.65315 0.4441 0.0
H1041 H 0.53822 0.60896 0.26086 0.0
H1042 H 0.54976 0.63156 0.27394 0.0
H1043 H 0.52579 0.63083 0.24547 0.0
C1044 C 0.52908 0.68306 0.26091 0.0
C1045 C 0.51037 0.68805 0.24521 0.0
C1046 C 0.53241 0.66839 0.30261 0.0
C1047 C 0.51709 0.65842 0.32897 0.0
C1048 C 0.49846 0.66435 0.31678 0.0
H1049 H 0.50573 0.54377 0.46229 0.0
H1050 H 0.5073 0.5732 0.40291 0.0
C1051 C 0.49513 0.67901 0.27537 0.0
C1052 C 0.5202 0.64107 0.3662 0.0
H1053 H 0.53659 0.59531 0.35855 0.0
C1054 C 0.51292 0.64055 0.42565 0.0
C1055 C 0.52878 0.62452 0.34155 0.0
C1056 C 0.53595 0.62383 0.27681 0.0
C1057 C 0.5138 0.6239 0.46095 0.0
C1058 C 0.52258 0.60743 0.43656 0.0
C1059 C 0.53003 0.608 0.37733 0.0
C1060 C 0.52321 0.58916 0.47061 0.0
C1061 C 0.50463 0.62391 0.52309 0.0
C1062 C 0.53223 0.58813 0.52743 0.0
C1063 C 0.53128 0.57136 0.56163 0.0
C1064 C 0.52147 0.55518 0.53937 0.0
C1065 C 0.51338 0.55593 0.48089 0.0
C1066 C 0.51424 0.57277 0.4469 0.0
H1067 H 0.49453 0.63591 0.52867 0.0
H1068 H 0.49685 0.61031 0.53138 0.0
H1069 H 0.51583 0.62547 0.55836 0.0
H1070 H 0.53967 0.60044 0.54593 0.0
H1071 H 0.53785 0.57125 0.6062 0.0
H1072 H 0.81828 0.55334 0.23805 0.0
H1073 H 0.84638 0.55798 0.3034 0.0
H1074 H 0.84848 0.49737 0.33495 0.0
H1075 H 0.82054 0.49268 0.27001 0.0
H1076 H 0.85753 0.54158 0.43497 0.0
H1077 H 0.89853 0.51622 0.23431 0.0
H1078 H 0.87504 0.52631 0.22782 0.0
H1079 H 0.87784 0.50229 0.25422 0.0
C1080 C 0.82431 0.54114 0.26095 0.0
C1081 C 0.81731 0.52264 0.24898 0.0
C1082 C 0.84041 0.54379 0.29786 0.0
C1083 C 0.84959 0.52798 0.32324 0.0
C1084 C 0.84163 0.50972 0.31544 0.0
H1085 H 0.94754 0.48739 0.49329 0.0
H1086 H 0.91905 0.49482 0.4354 0.0
C1087 C 0.82565 0.50707 0.2786 0.0
C1088 C 0.86862 0.52996 0.35163 0.0
H1089 H 0.91501 0.5178 0.32846 0.0
C1090 C 0.8702 0.53674 0.41155 0.0
C1091 C 0.88508 0.52371 0.32061 0.0
C1092 C 0.88419 0.51684 0.25549 0.0
C1093 C 0.88774 0.53637 0.44251 0.0
C1094 C 0.90403 0.52922 0.41232 0.0
C1095 C 0.90254 0.52331 0.35145 0.0
C1096 C 0.92206 0.52542 0.44507 0.0
C1097 C 0.88855 0.54258 0.50825 0.0
C1098 C 0.93356 0.54022 0.46848 0.0
C1099 C 0.95009 0.536 0.50159 0.0
C1100 C 0.95524 0.51691 0.51199 0.0
C1101 C 0.94396 0.50224 0.48656 0.0
C1102 C 0.92764 0.50645 0.45338 0.0
H1103 H 0.87421 0.54562 0.52706 0.0
H1104 H 0.8953 0.53137 0.53635 0.0
H1105 H 0.89739 0.55571 0.51223 0.0
H1106 H 0.92963 0.55497 0.46178 0.0
H1107 H 0.95843 0.54761 0.52072 0.0
loop_
_geom_bond_atom_site_label_1
_geom_bond_atom_site_label_2
_geom_bond_distance
_geom_bond_site_symmetry_2
_ccdc_geom_bond_type
H0 C1 0.949 . S
C1 H0 0.949 . S
C1 C2 1.395 . S
C1 C3 1.391 1_556 S
C2 C1 1.395 . S
C2 C5 1.390 1_556 S
C3 C1 1.391 1_554 S
C3 C7 1.387 . S
C3 C8 1.491 . S
H4 C5 0.950 . S
C5 C2 1.390 1_554 S
C5 H4 0.950 . S
C5 C6 1.378 . S
C6 C5 1.378 . S
C6 C7 1.409 . S
C7 C3 1.387 . S
C7 C6 1.409 . S
C7 H9 0.951 . S
C8 C3 1.491 . S
C8 C10 1.382 1_554 S
C8 C12 1.404 . S
H9 C7 0.951 . S
C10 C8 1.382 1_556 S
C10 C11 1.390 . S
C10 H15 0.949 . S
C11 C10 1.390 . S
C11 C16 1.399 1_556 S
C12 C8 1.404 . S
C12 H13 0.950 . S
C12 C14 1.375 . S
H13 C12 0.950 . S
C14 C12 1.375 . S
C14 C16 1.382 . S
C14 H18 0.950 . S
H15 C10 0.949 . S
C16 C11 1.399 1_554 S
C16 C14 1.382 . S
C16 H17 0.952 . S
H17 C16 0.952 . S
H18 C14 0.950 . S
H19 C20 0.949 . S
C20 H19 0.949 . S
C20 C21 1.390 1_655 S
C20 C22 1.391 . S
C21 C20 1.390 1_455 S
C21 C24 1.393 . S
C22 C20 1.391 . S
C22 C26 1.387 . S
C22 C27 1.491 . S
H23 C24 0.950 . S
C24 C21 1.393 . S
C24 H23 0.950 . S
C24 C25 1.379 . S
C25 C24 1.379 . S
C25 C26 1.408 1_455 S
C26 C22 1.387 . S
C26 C25 1.408 1_655 S
C26 H28 0.951 . S
C27 C22 1.491 . S
C27 C29 1.382 . S
C27 C31 1.404 . S
H28 C26 0.951 . S
C29 C27 1.382 . S
C29 C30 1.390 . S
C29 H34 0.949 1_655 S
C30 C29 1.390 . S
C30 C35 1.399 . S
C31 C27 1.404 . S
C31 H32 0.950 . S
C31 C33 1.375 . S
H32 C31 0.950 . S
C33 C31 1.375 . S
C33 C35 1.382 . S
C33 H37 0.950 . S
H34 C29 0.949 1_455 S
C35 C30 1.399 . S
C35 C33 1.382 . S
C35 H36 0.952 . S
H36 C35 0.952 . S
H37 C33 0.950 . S
H38 C39 0.949 1_556 S
C39 H38 0.949 1_554 S
C39 C40 1.394 1_565 S
C39 C41 1.391 . S
C40 C39 1.394 1_545 S
C40 C43 1.391 . S
C41 C39 1.391 . S
C41 C45 1.387 . S
C41 C46 1.491 . S
H42 C43 0.950 . S
C43 C40 1.391 . S
C43 H42 0.950 . S
C43 C44 1.378 1_545 S
C44 C43 1.378 1_565 S
C44 C45 1.409 . S
C45 C41 1.387 . S
C45 C44 1.409 . S
C45 H47 0.951 . S
C46 C41 1.491 . S
C46 C48 1.382 . S
C46 C50 1.404 . S
H47 C45 0.951 . S
C48 C46 1.382 . S
C48 C49 1.390 . S
C48 H53 0.949 1_565 S
C49 C48 1.390 . S
C49 C54 1.399 . S
C50 C46 1.404 . S
C50 H51 0.950 . S
C50 C52 1.375 . S
H51 C50 0.950 . S
C52 C50 1.375 . S
C52 C54 1.382 . S
C52 H56 0.950 . S
H53 C48 0.949 1_545 S
C54 C49 1.399 . S
C54 C52 1.382 . S
C54 H55 0.952 . S
H55 C54 0.952 . S
H56 C52 0.950 . S
H57 C58 0.949 . S
C58 H57 0.949 . S
C58 C59 1.395 . S
C58 C60 1.391 1_556 S
C59 C58 1.395 . S
C59 C62 1.390 1_556 S
C60 C58 1.391 1_554 S
C60 C64 1.387 . S
C60 C65 1.491 . S
H61 C62 0.950 . S
C62 C59 1.390 1_554 S
C62 H61 0.950 . S
C62 C63 1.378 . S
C63 C62 1.378 . S
C63 C64 1.409 . S
C64 C60 1.387 . S
C64 C63 1.409 . S
C64 H66 0.951 . S
C65 C60 1.491 . S
C65 C67 1.382 . S
C65 C69 1.404 . S
H66 C64 0.951 . S
C67 C65 1.382 . S
C67 C68 1.390 1_554 S
C67 H72 0.949 1_554 S
C68 C67 1.390 1_556 S
C68 C73 1.399 1_556 S
C69 C65 1.404 . S
C69 H70 0.950 . S
C69 C71 1.375 . S
H70 C69 0.950 . S
C71 C69 1.375 . S
C71 C73 1.382 . S
C71 H75 0.950 . S
H72 C67 0.949 1_556 S
C73 C68 1.399 1_554 S
C73 C71 1.382 . S
C73 H74 0.952 . S
H74 C73 0.952 . S
H75 C71 0.950 . S
H76 C77 0.949 . S
C77 H76 0.949 . S
C77 C78 1.395 . S
C77 C79 1.391 . S
C78 C77 1.395 . S
C78 C81 1.390 . S
C79 C77 1.391 . S
C79 C83 1.387 . S
C79 C84 1.491 . S
H80 C81 0.950 . S
C81 C78 1.390 . S
C81 H80 0.950 . S
C81 C82 1.378 . S
C82 C81 1.378 . S
C82 C83 1.409 . S
C83 C79 1.387 . S
C83 C82 1.409 . S
C83 H85 0.951 . S
C84 C79 1.491 . S
C84 C86 1.382 . S
C84 C88 1.404 . S
H85 C83 0.951 . S
C86 C84 1.382 . S
C86 C87 1.390 . S
C86 H91 0.949 . S
C87 C86 1.390 . S
C87 C92 1.399 . S
C88 C84 1.404 . S
C88 H89 0.950 . S
C88 C90 1.375 . S
H89 C88 0.950 . S
C90 C88 1.375 . S
C90 C92 1.382 . S
C90 H94 0.950 . S
H91 C86 0.949 . S
C92 C87 1.399 . S
C92 C90 1.382 . S
C92 H93 0.952 . S
H93 C92 0.952 . S
H94 C90 0.950 . S
H95 C96 0.949 . S
C96 H95 0.949 . S
C96 C97 1.395 . S
C96 C98 1.391 . S
C97 C96 1.395 . S
C97 C100 1.390 . S
C98 C96 1.391 . S
C98 C102 1.387 . S
C98 C103 1.491 . S
H99 C100 0.950 . S
C100 C97 1.390 . S
C100 H99 0.950 . S
C100 C101 1.378 . S
C101 C100 1.378 . S
C101 C102 1.409 . S
C102 C98 1.387 . S
C102 C101 1.409 . S
C102 H104 0.951 . S
C103 C98 1.491 . S
C103 C105 1.382 . S
C103 C107 1.404 . S
H104 C102 0.951 . S
C105 C103 1.382 . S
C105 C106 1.390 . S
C105 H110 0.949 . S
C106 C105 1.390 . S
C106 C111 1.399 . S
C107 C103 1.404 . S
C107 H108 0.950 . S
C107 C109 1.375 . S
H108 C107 0.950 . S
C109 C107 1.375 . S
C109 C111 1.382 . S
C109 H113 0.950 1_455 S
H110 C105 0.949 . S
C111 C106 1.399 . S
C111 C109 1.382 . S
C111 H112 0.952 . S
H112 C111 0.952 . S
H113 C109 0.950 1_655 S
H114 C115 0.949 . S
C115 H114 0.949 . S
C115 C116 1.395 . S
C115 C117 1.391 . S
C116 C115 1.395 . S
C116 C119 1.390 . S
C117 C115 1.391 . S
C117 C121 1.387 . S
C117 C122 1.500 . S
H118 C119 0.950 . S
C119 C116 1.390 . S
C119 H118 0.950 . S
C119 C120 1.378 . S
C120 C119 1.378 . S
C120 C121 1.409 . S
C121 C117 1.387 . S
C121 C120 1.409 . S
C121 H123 0.951 . S
C122 C117 1.500 . S
C122 C124 1.400 . S
C122 C126 1.377 1_545 S
H123 C121 0.951 . S
C124 C122 1.400 . S
C124 C125 1.390 . S
C124 H129 0.949 . S
C125 C124 1.390 . S
C125 C130 1.399 1_545 S
C126 C122 1.377 1_565 S
C126 H127 0.950 . S
C126 C128 1.375 . S
H127 C126 0.950 . S
C128 C126 1.375 . S
C128 C130 1.382 . S
C128 H132 0.950 . S
H129 C124 0.949 . S
C130 C125 1.399 1_565 S
C130 C128 1.382 . S
C130 H131 0.952 . S
H131 C130 0.952 . S
H132 C128 0.950 . S
H133 C134 0.949 . S
C134 H133 0.949 . S
C134 C135 1.395 . S
C134 C136 1.391 . S
C135 C134 1.395 . S
C135 C138 1.390 . S
C136 C134 1.391 . S
C136 C140 1.387 . S
C136 C141 1.491 . S
H137 C138 0.950 . S
C138 C135 1.390 . S
C138 H137 0.950 . S
C138 C139 1.378 . S
C139 C138 1.378 . S
C139 C140 1.409 . S
C140 C136 1.387 . S
C140 C139 1.409 . S
C140 H142 0.951 . S
C141 C136 1.491 . S
C141 C143 1.382 . S
C141 C145 1.404 . S
H142 C140 0.951 . S
C143 C141 1.382 . S
C143 C144 1.390 . S
C143 H148 0.949 . S
C144 C143 1.390 . S
C144 C149 1.399 . S
C145 C141 1.404 . S
C145 H146 0.950 . S
C145 C147 1.375 . S
H146 C145 0.950 . S
C147 C145 1.375 . S
C147 C149 1.382 . S
C147 H151 0.950 . S
H148 C143 0.949 . S
C149 C144 1.399 . S
C149 C147 1.382 . S
C149 H150 0.952 . S
H150 C149 0.952 . S
H151 C147 0.950 . S
O152 Zn153 1.957 . S
O152 C168 1.216 1_545 S
Zn153 O152 1.957 . S
Zn153 O154 1.948 1_545 S
Zn153 O160 1.952 . S
Zn153 O165 1.885 1_545 S
O154 Zn153 1.948 1_565 S
O154 Zn155 1.904 1_465 S
O154 Zn156 1.952 . S
O154 Zn157 1.963 1_455 S
Zn155 O154 1.904 1_645 S
Zn155 O158 1.933 . S
Zn155 O161 1.941 1_655 S
Zn155 O162 1.966 1_655 S
Zn156 O154 1.952 . S
Zn156 O163 1.938 1_565 S
Zn156 O164 1.906 . S
Zn156 O174 1.953 . S
Zn157 O154 1.963 1_655 S
Zn157 O159 1.932 . S
Zn157 O166 1.977 . S
Zn157 O167 1.910 1_655 S
O158 Zn155 1.933 . S
O158 C169 1.226 . S
O159 Zn157 1.932 . S
O159 C169 1.307 1_565 S
O160 Zn153 1.952 . S
O160 C171 1.253 . S
O161 Zn155 1.941 1_455 S
O161 C171 1.283 . S
O162 Zn155 1.966 1_455 S
O162 C170 1.300 . S
O163 Zn156 1.938 1_545 S
O163 C170 1.247 . S
O164 Zn156 1.906 . S
O164 C172 1.304 1_455 S
O165 Zn153 1.885 1_565 S
O165 C173 1.311 . S
O166 Zn157 1.977 . S
O166 C172 1.272 . S
O167 Zn157 1.910 1_455 S
O167 C173 1.231 . S
C168 O152 1.216 1_565 S
C168 O174 1.309 . S
C169 O158 1.226 . S
C169 O159 1.307 1_545 S
C170 O162 1.300 . S
C170 O163 1.247 . S
C171 O160 1.253 . S
C171 O161 1.283 . S
C172 O164 1.304 1_655 S
C172 O166 1.272 . S
C173 O165 1.311 . S
C173 O167 1.231 . S
O174 Zn156 1.953 . S
O174 C168 1.309 . S
O175 Zn176 1.953 . S
O175 C191 1.225 . S
Zn176 O175 1.953 . S
Zn176 O177 1.949 . S
Zn176 O183 1.919 . S
Zn176 O188 1.924 . S
O177 Zn176 1.949 . S
O177 Zn178 1.923 1_545 S
O177 Zn179 1.950 . S
O177 Zn180 1.945 1_545 S
Zn178 O177 1.923 1_565 S
Zn178 O181 1.933 . S
Zn178 O184 1.941 . S
Zn178 O185 1.965 . S
Zn179 O177 1.950 . S
Zn179 O186 1.938 . S
Zn179 O187 1.906 . S
Zn179 O197 1.953 . S
Zn180 O177 1.945 1_565 S
Zn180 O182 1.932 . S
Zn180 O189 1.977 . S
Zn180 O190 1.910 1_565 S
O181 Zn178 1.933 . S
O181 C192 1.226 . S
O182 Zn180 1.932 . S
O182 C192 1.307 . S
O183 Zn176 1.919 . S
O183 C194 1.253 . S
O184 Zn178 1.941 . S
O184 C194 1.283 1_565 S
O185 Zn178 1.965 . S
O185 C193 1.303 1_565 S
O186 Zn179 1.938 . S
O186 C193 1.247 . S
O187 Zn179 1.906 . S
O187 C195 1.304 1_545 S
O188 Zn176 1.924 . S
O188 C196 1.311 . S
O189 Zn180 1.977 . S
O189 C195 1.272 . S
O190 Zn180 1.910 1_545 S
O190 C196 1.231 . S
C191 O175 1.225 . S
C191 O197 1.298 . S
C192 O181 1.226 . S
C192 O182 1.307 . S
C193 O185 1.303 1_545 S
C193 O186 1.247 . S
C194 O183 1.253 . S
C194 O184 1.283 1_545 S
C195 O187 1.304 1_565 S
C195 O189 1.272 . S
C196 O188 1.311 . S
C196 O190 1.231 . S
O197 Zn179 1.953 . S
O197 C191 1.298 . S
O198 Zn199 1.953 . S
O198 C214 1.225 . S
Zn199 O198 1.953 . S
Zn199 O200 1.949 . S
Zn199 O206 1.919 . S
Zn199 O211 1.924 . S
O200 Zn199 1.949 . S
O200 Zn201 1.923 . S
O200 Zn202 1.950 . S
O200 Zn203 1.945 . S
Zn201 O200 1.923 . S
Zn201 O204 1.933 . S
Zn201 O207 1.941 . S
Zn201 O208 1.965 . S
Zn202 O200 1.950 . S
Zn202 O209 1.938 . S
Zn202 O210 1.906 . S
Zn202 O220 1.953 . S
Zn203 O200 1.945 . S
Zn203 O205 1.932 . S
Zn203 O212 1.977 . S
Zn203 O213 1.910 . S
O204 Zn201 1.933 . S
O204 C215 1.226 . S
O205 Zn203 1.932 . S
O205 C215 1.307 . S
O206 Zn199 1.919 . S
O206 C217 1.253 . S
O207 Zn201 1.941 . S
O207 C217 1.283 . S
O208 Zn201 1.965 . S
O208 C216 1.303 . S
O209 Zn202 1.938 . S
O209 C216 1.247 . S
O210 Zn202 1.906 . S
O210 C218 1.304 . S
O211 Zn199 1.924 . S
O211 C219 1.311 . S
O212 Zn203 1.977 . S
O212 C218 1.272 . S
O213 Zn203 1.910 . S
O213 C219 1.231 . S
C214 O198 1.225 . S
C214 O220 1.298 . S
C215 O204 1.226 . S
C215 O205 1.307 . S
C216 O208 1.303 . S
C216 O209 1.247 . S
C217 O206 1.253 . S
C217 O207 1.283 . S
C218 O210 1.304 . S
C218 O212 1.272 . S
C219 O211 1.311 . S
C219 O213 1.231 . S
O220 Zn202 1.953 . S
O220 C214 1.298 . S
O221 Zn222 1.910 1_655 S
O221 C237 1.225 . S
Zn222 O221 1.910 1_455 S
Zn222 O223 1.949 . S
Zn222 O229 1.920 . S
Zn222 O234 1.970 . S
O223 Zn222 1.949 . S
O223 Zn224 1.918 1_455 S
O223 Zn225 1.929 1_455 S
O223 Zn226 1.973 . S
Zn224 O223 1.918 1_655 S
Zn224 O227 1.933 1_655 S
Zn224 O230 1.941 . S
Zn224 O231 1.965 . S
Zn225 O223 1.929 1_655 S
Zn225 O232 1.938 . S
Zn225 O233 1.906 . S
Zn225 O243 1.953 . S
Zn226 O223 1.973 . S
Zn226 O228 1.932 . S
Zn226 O235 1.977 . S
Zn226 O236 1.910 . S
O227 Zn224 1.933 1_455 S
O227 C238 1.226 . S
O228 Zn226 1.932 . S
O228 C238 1.307 . S
O229 Zn222 1.920 . S
O229 C240 1.254 . S
O230 Zn224 1.941 . S
O230 C240 1.279 1_655 S
O231 Zn224 1.965 . S
O231 C239 1.303 . S
O232 Zn225 1.938 . S
O232 C239 1.247 . S
O233 Zn225 1.906 . S
O233 C241 1.304 1_655 S
O234 Zn222 1.970 . S
O234 C242 1.311 . S
O235 Zn226 1.977 . S
O235 C241 1.272 . S
O236 Zn226 1.910 . S
O236 C242 1.231 . S
C237 O221 1.225 . S
C237 O243 1.298 . S
C238 O227 1.226 . S
C238 O228 1.307 . S
C239 O231 1.303 . S
C239 O232 1.247 . S
C240 O229 1.254 . S
C240 O230 1.279 1_455 S
C241 O233 1.304 1_455 S
C241 O235 1.272 . S
C242 O234 1.311 . S
C242 O236 1.231 . S
O243 Zn225 1.953 . S
O243 C237 1.298 . S
H244 C252 0.929 . S
H245 C254 0.930 . S
H246 C256 0.930 . S
H247 C259 0.929 . S
H248 C262 0.930 . S
H249 C264 0.960 . S
H250 C264 0.960 . S
H251 C264 0.960 . S
C252 H244 0.929 . S
C252 C253 1.377 1_565 S
C252 C254 1.384 . S
C253 C252 1.377 1_545 S
C253 C259 1.390 . S
C254 H245 0.930 . S
C254 C252 1.384 . S
C254 C255 1.372 1_565 S
C255 C254 1.372 1_545 S
C255 C256 1.400 . S
C255 C260 1.490 . S
C256 H246 0.930 . S
C256 C255 1.400 . S
C256 C259 1.386 . S
H257 C273 0.930 . S
H258 C274 0.931 . S
C259 H247 0.929 . S
C259 C253 1.390 . S
C259 C256 1.386 . S
C260 C255 1.490 . S
C260 C262 1.395 1_545 S
C260 C263 1.403 . S
H261 C267 0.930 . S
C262 H248 0.930 . S
C262 C260 1.395 1_565 S
C262 C265 1.403 . S
C263 C260 1.403 . S
C263 C264 1.524 . S
C263 C267 1.400 . S
C264 H249 0.960 . S
C264 H250 0.960 . S
C264 H251 0.960 . S
C264 C263 1.524 . S
C265 C262 1.403 . S
C265 C266 1.377 1_565 S
C265 C269 1.495 . S
C266 C265 1.377 1_545 S
C266 C267 1.404 . S
C266 C268 1.477 1_545 S
C267 H261 0.930 . S
C267 C263 1.400 . S
C267 C266 1.404 . S
C268 C266 1.477 1_565 S
C268 C270 1.378 . S
C268 C274 1.386 1_565 S
C269 C265 1.495 . S
C269 H275 0.959 . S
C269 H276 0.961 . S
C269 H277 0.960 . S
C270 C268 1.378 . S
C270 C271 1.394 . S
C270 H278 0.930 . S
C271 C270 1.394 . S
C271 C272 1.383 . S
C271 H279 0.929 . S
C272 C271 1.383 . S
C272 C273 1.377 1_565 S
C273 H257 0.930 . S
C273 C272 1.377 1_545 S
C273 C274 1.379 . S
C274 H258 0.931 . S
C274 C268 1.386 1_545 S
C274 C273 1.379 . S
H275 C269 0.959 . S
H276 C269 0.961 . S
H277 C269 0.960 . S
H278 C270 0.930 . S
H279 C271 0.929 . S
H280 C288 0.929 . S
H281 C290 0.930 . S
H282 C292 0.930 . S
H283 C295 0.929 . S
H284 C298 0.930 . S
H285 C300 0.960 . S
H286 C300 0.960 . S
H287 C300 0.960 . S
C288 H280 0.929 . S
C288 C289 1.377 . S
C288 C290 1.384 . S
C289 C288 1.377 . S
C289 C295 1.390 . S
C290 H281 0.930 . S
C290 C288 1.384 . S
C290 C291 1.372 . S
C291 C290 1.372 . S
C291 C292 1.400 . S
C291 C296 1.490 . S
C292 H282 0.930 . S
C292 C291 1.400 . S
C292 C295 1.386 . S
H293 C309 0.930 . S
H294 C310 0.931 . S
C295 H283 0.929 . S
C295 C289 1.390 . S
C295 C292 1.386 . S
C296 C291 1.490 . S
C296 C298 1.395 . S
C296 C299 1.403 . S
H297 C303 0.930 . S
C298 H284 0.930 . S
C298 C296 1.395 . S
C298 C301 1.403 . S
C299 C296 1.403 . S
C299 C300 1.524 . S
C299 C303 1.400 . S
C300 H285 0.960 . S
C300 H286 0.960 . S
C300 H287 0.960 . S
C300 C299 1.524 . S
C301 C298 1.403 . S
C301 C302 1.392 . S
C301 C305 1.495 . S
C302 C301 1.392 . S
C302 C303 1.385 . S
C302 C304 1.478 . S
C303 H297 0.930 . S
C303 C299 1.400 . S
C303 C302 1.385 . S
C304 C302 1.478 . S
C304 C306 1.381 . S
C304 C310 1.383 . S
C305 C301 1.495 . S
C305 H311 0.959 . S
C305 H312 0.961 . S
C305 H313 0.960 . S
C306 C304 1.381 . S
C306 C307 1.394 . S
C306 H314 0.930 . S
C307 C306 1.394 . S
C307 C308 1.383 . S
C307 H315 0.929 . S
C308 C307 1.383 . S
C308 C309 1.377 . S
C309 H293 0.930 . S
C309 C308 1.377 . S
C309 C310 1.379 . S
C310 H294 0.931 . S
C310 C304 1.383 . S
C310 C309 1.379 . S
H311 C305 0.959 . S
H312 C305 0.961 . S
H313 C305 0.960 . S
H314 C306 0.930 . S
H315 C307 0.929 . S
H316 C324 0.929 . S
H317 C326 0.930 . S
H318 C328 0.930 . S
H319 C331 0.929 . S
H320 C334 0.930 . S
H321 C336 0.960 . S
H322 C336 0.960 . S
H323 C336 0.960 . S
C324 H316 0.929 . S
C324 C325 1.377 . S
C324 C326 1.384 . S
C325 C324 1.377 . S
C325 C331 1.390 . S
C326 H317 0.930 . S
C326 C324 1.384 . S
C326 C327 1.372 . S
C327 C326 1.372 . S
C327 C328 1.400 . S
C327 C332 1.490 . S
C328 H318 0.930 . S
C328 C327 1.400 . S
C328 C331 1.386 . S
H329 C345 0.930 . S
H330 C346 0.931 . S
C331 H319 0.929 . S
C331 C325 1.390 . S
C331 C328 1.386 . S
C332 C327 1.490 . S
C332 C334 1.395 . S
C332 C335 1.403 . S
H333 C339 0.930 . S
C334 H320 0.930 . S
C334 C332 1.395 . S
C334 C337 1.403 . S
C335 C332 1.403 . S
C335 C336 1.524 . S
C335 C339 1.400 . S
C336 H321 0.960 . S
C336 H322 0.960 . S
C336 H323 0.960 . S
C336 C335 1.524 . S
C337 C334 1.403 . S
C337 C338 1.392 . S
C337 C341 1.495 . S
C338 C337 1.392 . S
C338 C339 1.385 . S
C338 C340 1.478 . S
C339 H333 0.930 . S
C339 C335 1.400 . S
C339 C338 1.385 . S
C340 C338 1.478 . S
C340 C342 1.381 . S
C340 C346 1.383 . S
C341 C337 1.495 . S
C341 H347 0.959 . S
C341 H348 0.961 . S
C341 H349 0.960 . S
C342 C340 1.381 . S
C342 C343 1.394 . S
C342 H350 0.930 . S
C343 C342 1.394 . S
C343 C344 1.383 . S
C343 H351 0.929 . S
C344 C343 1.383 . S
C344 C345 1.377 . S
C345 H329 0.930 . S
C345 C344 1.377 . S
C345 C346 1.379 . S
C346 H330 0.931 . S
C346 C340 1.383 . S
C346 C345 1.379 . S
H347 C341 0.959 . S
H348 C341 0.961 . S
H349 C341 0.960 . S
H350 C342 0.930 . S
H351 C343 0.929 . S
H352 C360 0.929 . S
H353 C362 0.930 . S
H354 C364 0.930 . S
H355 C367 0.929 . S
H356 C370 0.930 . S
H357 C372 0.960 . S
H358 C372 0.960 . S
H359 C372 0.960 . S
C360 H352 0.929 . S
C360 C361 1.377 . S
C360 C362 1.384 . S
C361 C360 1.377 . S
C361 C367 1.390 . S
C362 H353 0.930 . S
C362 C360 1.384 . S
C362 C363 1.372 . S
C363 C362 1.372 . S
C363 C364 1.400 . S
C363 C368 1.490 . S
C364 H354 0.930 . S
C364 C363 1.400 . S
C364 C367 1.386 . S
H365 C381 0.930 1_655 S
H366 C382 0.915 1_655 S
C367 H355 0.929 . S
C367 C361 1.390 . S
C367 C364 1.386 . S
C368 C363 1.490 . S
C368 C370 1.395 . S
C368 C371 1.403 . S
H369 C375 0.930 1_655 S
C370 H356 0.930 . S
C370 C368 1.395 . S
C370 C373 1.403 . S
C371 C368 1.403 . S
C371 C372 1.524 1_455 S
C371 C375 1.400 . S
C372 H357 0.960 . S
C372 H358 0.960 . S
C372 H359 0.960 . S
C372 C371 1.524 1_655 S
C373 C370 1.403 . S
C373 C374 1.392 . S
C373 C377 1.495 . S
C374 C373 1.392 . S
C374 C375 1.385 . S
C374 C376 1.478 . S
C375 H369 0.930 1_455 S
C375 C371 1.400 . S
C375 C374 1.385 . S
C376 C374 1.478 . S
C376 C378 1.381 . S
C376 C382 1.383 . S
C377 C373 1.495 . S
C377 H383 0.959 . S
C377 H384 0.961 . S
C377 H385 0.960 . S
C378 C376 1.381 . S
C378 C379 1.394 . S
C378 H386 0.930 . S
C379 C378 1.394 . S
C379 C380 1.383 . S
C379 H387 0.929 . S
C380 C379 1.383 . S
C380 C381 1.377 . S
C381 H365 0.930 1_455 S
C381 C380 1.377 . S
C381 C382 1.379 . S
C382 H366 0.915 1_455 S
C382 C376 1.383 . S
C382 C381 1.379 . S
H383 C377 0.959 . S
H384 C377 0.961 . S
H385 C377 0.960 . S
H386 C378 0.930 . S
H387 C379 0.929 . S
H388 C396 0.929 . S
H389 C398 0.930 . S
H390 C400 0.930 . S
H391 C403 0.929 1_554 S
H392 C406 0.930 . S
H393 C408 0.960 . S
H394 C408 0.960 1_565 S
H395 C408 0.960 . S
C396 H388 0.929 . S
C396 C397 1.419 . S
C396 C398 1.384 . S
C397 C396 1.419 . S
C397 C403 1.350 1_565 S
C398 H389 0.930 . S
C398 C396 1.384 . S
C398 C399 1.372 . S
C399 C398 1.372 . S
C399 C400 1.400 1_565 S
C399 C404 1.490 . S
C400 H390 0.930 . S
C400 C399 1.400 1_545 S
C400 C403 1.386 . S
H401 C417 0.930 . S
H402 C418 0.931 . S
C403 H391 0.929 1_556 S
C403 C397 1.350 1_545 S
C403 C400 1.386 . S
C404 C399 1.490 . S
C404 C406 1.395 . S
C404 C407 1.401 1_565 S
H405 C411 0.937 . S
C406 H392 0.930 . S
C406 C404 1.395 . S
C406 C409 1.403 . S
C407 C404 1.401 1_545 S
C407 C408 1.525 1_556 S
C407 C411 1.400 . S
C408 H393 0.960 . S
C408 H394 0.960 1_545 S
C408 H395 0.960 . S
C408 C407 1.525 1_554 S
C409 C406 1.403 . S
C409 C410 1.394 . S
C409 C413 1.495 . S
C410 C409 1.394 . S
C410 C411 1.382 1_565 S
C410 C412 1.477 1_565 S
C411 H405 0.937 . S
C411 C407 1.400 . S
C411 C410 1.382 1_545 S
C412 C410 1.477 1_545 S
C412 C414 1.370 1_545 S
C412 C418 1.394 . S
C413 C409 1.495 . S
C413 H419 0.959 . S
C413 H420 0.961 1_565 S
C413 H421 0.960 . S
C414 C412 1.370 1_565 S
C414 C415 1.394 . S
C414 H422 0.930 . S
C415 C414 1.394 . S
C415 C416 1.383 1_565 S
C415 H423 0.929 . S
C416 C415 1.383 1_545 S
C416 C417 1.377 . S
C417 H401 0.930 . S
C417 C416 1.377 . S
C417 C418 1.379 . S
C418 H402 0.931 . S
C418 C412 1.394 . S
C418 C417 1.379 . S
H419 C413 0.959 . S
H420 C413 0.961 1_545 S
H421 C413 0.960 . S
H422 C414 0.930 . S
H423 C415 0.929 . S
H424 C432 0.929 1_554 S
H425 C434 0.930 . S
H426 C436 0.930 . S
H427 C439 0.929 . S
H428 C442 0.930 . S
H429 C444 0.960 . S
H430 C444 0.960 . S
H431 C444 0.960 . S
C432 H424 0.929 1_556 S
C432 C433 1.377 . S
C432 C434 1.384 . S
C433 C432 1.377 . S
C433 C439 1.390 . S
C434 H425 0.930 . S
C434 C432 1.384 . S
C434 C435 1.372 . S
C435 C434 1.372 . S
C435 C436 1.400 . S
C435 C440 1.490 . S
C436 H426 0.930 . S
C436 C435 1.400 . S
C436 C439 1.386 . S
H437 C453 0.930 . S
H438 C454 0.931 . S
C439 H427 0.929 . S
C439 C433 1.390 . S
C439 C436 1.386 . S
C440 C435 1.490 . S
C440 C442 1.395 . S
C440 C443 1.403 . S
H441 C447 0.930 . S
C442 H428 0.930 . S
C442 C440 1.395 . S
C442 C445 1.403 . S
C443 C440 1.403 . S
C443 C444 1.524 . S
C443 C447 1.400 . S
C444 H429 0.960 . S
C444 H430 0.960 . S
C444 H431 0.960 . S
C444 C443 1.524 . S
C445 C442 1.403 . S
C445 C446 1.392 . S
C445 C449 1.495 . S
C446 C445 1.392 . S
C446 C447 1.385 . S
C446 C448 1.478 . S
C447 H441 0.930 . S
C447 C443 1.400 . S
C447 C446 1.385 . S
C448 C446 1.478 . S
C448 C450 1.381 . S
C448 C454 1.383 . S
C449 C445 1.495 . S
C449 H455 0.959 . S
C449 H456 0.961 . S
C449 H457 0.960 . S
C450 C448 1.381 . S
C450 C451 1.394 . S
C450 H458 0.930 . S
C451 C450 1.394 . S
C451 C452 1.383 . S
C451 H459 0.929 . S
C452 C451 1.383 . S
C452 C453 1.377 . S
C453 H437 0.930 . S
C453 C452 1.377 . S
C453 C454 1.379 . S
C454 H438 0.931 . S
C454 C448 1.383 . S
C454 C453 1.379 . S
H455 C449 0.959 . S
H456 C449 0.961 . S
H457 C449 0.960 . S
H458 C450 0.930 . S
H459 C451 0.929 . S
H460 C468 0.929 . S
H461 C470 0.930 . S
H462 C472 0.930 . S
H463 C475 0.929 . S
H464 C478 0.930 . S
H465 C480 0.960 . S
H466 C480 0.960 . S
H467 C480 0.960 . S
C468 H460 0.929 . S
C468 C469 1.377 . S
C468 C470 1.384 . S
C469 C468 1.377 . S
C469 C475 1.390 . S
C470 H461 0.930 . S
C470 C468 1.384 . S
C470 C471 1.372 . S
C471 C470 1.372 . S
C471 C472 1.400 . S
C471 C476 1.490 . S
C472 H462 0.930 . S
C472 C471 1.400 . S
C472 C475 1.386 . S
H473 C489 0.930 . S
H474 C490 0.931 . S
C475 H463 0.929 . S
C475 C469 1.390 . S
C475 C472 1.386 . S
C476 C471 1.490 . S
C476 C478 1.395 . S
C476 C479 1.403 . S
H477 C483 0.930 . S
C478 H464 0.930 . S
C478 C476 1.395 . S
C478 C481 1.403 . S
C479 C476 1.403 . S
C479 C480 1.524 . S
C479 C483 1.400 . S
C480 H465 0.960 . S
C480 H466 0.960 . S
C480 H467 0.960 . S
C480 C479 1.524 . S
C481 C478 1.403 . S
C481 C482 1.392 . S
C481 C485 1.495 . S
C482 C481 1.392 . S
C482 C483 1.385 . S
C482 C484 1.478 . S
C483 H477 0.930 . S
C483 C479 1.400 . S
C483 C482 1.385 . S
C484 C482 1.478 . S
C484 C486 1.381 . S
C484 C490 1.383 . S
C485 C481 1.495 . S
C485 H491 0.959 . S
C485 H492 0.961 . S
C485 H493 0.960 . S
C486 C484 1.381 . S
C486 C487 1.394 . S
C486 H494 0.930 . S
C487 C486 1.394 . S
C487 C488 1.383 . S
C487 H495 0.929 . S
C488 C487 1.383 . S
C488 C489 1.377 . S
C489 H473 0.930 . S
C489 C488 1.377 . S
C489 C490 1.379 . S
C490 H474 0.931 . S
C490 C484 1.383 . S
C490 C489 1.379 . S
H491 C485 0.959 . S
H492 C485 0.961 . S
H493 C485 0.960 . S
H494 C486 0.930 . S
H495 C487 0.929 . S
H496 C504 0.929 . S
H497 C506 0.930 . S
H498 C508 0.930 . S
H499 C511 0.929 . S
H500 C514 0.930 . S
H501 C516 0.960 . S
H502 C516 0.960 . S
H503 C516 0.960 . S
C504 H496 0.929 . S
C504 C505 1.377 . S
C504 C506 1.384 . S
C505 C504 1.377 . S
C505 C511 1.390 1_654 S
C506 H497 0.930 . S
C506 C504 1.384 . S
C506 C507 1.399 1_554 S
C507 C506 1.399 1_556 S
C507 C508 1.374 1_655 S
C507 C512 1.490 . S
C508 H498 0.930 . S
C508 C507 1.374 1_455 S
C508 C511 1.386 . S
H509 C525 0.930 . S
H510 C526 0.931 . S
C511 H499 0.929 . S
C511 C505 1.390 1_456 S
C511 C508 1.386 . S
C512 C507 1.490 . S
C512 C514 1.432 . S
C512 C515 1.366 1_655 S
H513 C519 0.930 . S
C514 H500 0.930 . S
C514 C512 1.432 . S
C514 C517 1.403 . S
C515 C512 1.366 1_455 S
C515 C516 1.524 . S
C515 C519 1.400 . S
C516 H501 0.960 . S
C516 H502 0.960 . S
C516 H503 0.960 . S
C516 C515 1.524 . S
C517 C514 1.403 . S
C517 C518 1.392 . S
C517 C521 1.495 . S
C518 C517 1.392 . S
C518 C519 1.385 1_655 S
C518 C520 1.478 . S
C519 H513 0.930 . S
C519 C515 1.400 . S
C519 C518 1.385 1_455 S
C520 C518 1.478 . S
C520 C522 1.381 . S
C520 C526 1.383 1_655 S
C521 C517 1.495 . S
C521 H527 0.959 . S
C521 H528 0.961 . S
C521 H529 0.960 . S
C522 C520 1.381 . S
C522 C523 1.394 . S
C522 H530 0.930 . S
C523 C522 1.394 . S
C523 C524 1.383 1_655 S
C523 H531 0.929 . S
C524 C523 1.383 1_455 S
C524 C525 1.377 . S
C525 H509 0.930 . S
C525 C524 1.377 . S
C525 C526 1.379 . S
C526 H510 0.931 . S
C526 C520 1.383 1_455 S
C526 C525 1.379 . S
H527 C521 0.959 . S
H528 C521 0.961 . S
H529 C521 0.960 . S
H530 C522 0.930 . S
H531 C523 0.929 . S
H532 C540 0.929 . S
H533 C542 0.930 . S
H534 C544 0.930 . S
H535 C547 0.929 . S
H536 C550 0.930 . S
H537 C552 0.960 . S
H538 C552 0.960 . S
H539 C552 0.960 . S
C540 H532 0.929 . S
C540 C541 1.377 . S
C540 C542 1.384 . S
C541 C540 1.377 . S
C541 C547 1.390 . S
C542 H533 0.930 . S
C542 C540 1.384 . S
C542 C543 1.372 . S
C543 C542 1.372 . S
C543 C544 1.400 . S
C543 C548 1.490 . S
C544 H534 0.930 . S
C544 C543 1.400 . S
C544 C547 1.386 . S
H545 C561 0.906 1_655 S
H546 C562 0.931 . S
C547 H535 0.929 . S
C547 C541 1.390 . S
C547 C544 1.386 . S
C548 C543 1.490 . S
C548 C550 1.395 . S
C548 C551 1.403 . S
H549 C555 0.930 . S
C550 H536 0.930 . S
C550 C548 1.395 . S
C550 C553 1.403 . S
C551 C548 1.403 . S
C551 C552 1.524 . S
C551 C555 1.400 . S
C552 H537 0.960 . S
C552 H538 0.960 . S
C552 H539 0.960 . S
C552 C551 1.524 . S
C553 C550 1.403 . S
C553 C554 1.392 . S
C553 C557 1.495 . S
C554 C553 1.392 . S
C554 C555 1.385 . S
C554 C556 1.478 . S
C555 H549 0.930 . S
C555 C551 1.400 . S
C555 C554 1.385 . S
C556 C554 1.478 . S
C556 C558 1.381 . S
C556 C562 1.383 . S
C557 C553 1.495 . S
C557 H563 0.959 . S
C557 H564 0.961 1_455 S
C557 H565 0.960 . S
C558 C556 1.381 . S
C558 C559 1.394 . S
C558 H566 0.930 . S
C559 C558 1.394 . S
C559 C560 1.383 . S
C559 H567 0.929 . S
C560 C559 1.383 . S
C560 C561 1.377 . S
C561 H545 0.906 1_455 S
C561 C560 1.377 . S
C561 C562 1.379 . S
C562 H546 0.931 . S
C562 C556 1.383 . S
C562 C561 1.379 . S
H563 C557 0.959 . S
H564 C557 0.961 1_655 S
H565 C557 0.960 . S
H566 C558 0.930 . S
H567 C559 0.929 . S
H568 C576 0.929 . S
H569 C578 0.930 . S
H570 C580 0.930 . S
H571 C583 0.929 . S
H572 C586 0.930 . S
H573 C588 0.960 . S
H574 C588 0.960 1_565 S
H575 C588 0.960 . S
C576 H568 0.929 . S
C576 C577 1.377 1_565 S
C576 C578 1.384 . S
C577 C576 1.377 1_545 S
C577 C583 1.390 . S
C578 H569 0.930 . S
C578 C576 1.384 . S
C578 C579 1.372 1_565 S
C579 C578 1.372 1_545 S
C579 C580 1.400 . S
C579 C584 1.490 . S
C580 H570 0.930 . S
C580 C579 1.400 . S
C580 C583 1.386 . S
H581 C597 0.930 . S
H582 C598 0.931 . S
C583 H571 0.929 . S
C583 C577 1.390 . S
C583 C580 1.386 . S
C584 C579 1.490 . S
C584 C586 1.395 . S
C584 C587 1.403 . S
H585 C591 0.930 . S
C586 H572 0.930 . S
C586 C584 1.395 . S
C586 C589 1.403 . S
C587 C584 1.403 . S
C587 C588 1.524 . S
C587 C591 1.400 . S
C588 H573 0.960 . S
C588 H574 0.960 1_545 S
C588 H575 0.960 . S
C588 C587 1.524 . S
C589 C586 1.403 . S
C589 C590 1.392 . S
C589 C593 1.495 . S
C590 C589 1.392 . S
C590 C591 1.385 . S
C590 C592 1.478 . S
C591 H585 0.930 . S
C591 C587 1.400 . S
C591 C590 1.385 . S
C592 C590 1.478 . S
C592 C594 1.381 1_545 S
C592 C598 1.383 . S
C593 C589 1.495 . S
C593 H599 0.959 . S
C593 H600 0.961 . S
C593 H601 0.989 . S
C594 C592 1.381 1_565 S
C594 C595 1.394 . S
C594 H602 0.930 . S
C595 C594 1.394 . S
C595 C596 1.383 1_565 S
C595 H603 0.929 . S
C596 C595 1.383 1_545 S
C596 C597 1.377 . S
C597 H581 0.930 . S
C597 C596 1.377 . S
C597 C598 1.379 . S
C598 H582 0.931 . S
C598 C592 1.383 . S
C598 C597 1.379 . S
H599 C593 0.959 . S
H600 C593 0.961 . S
H601 C593 0.989 . S
H602 C594 0.930 . S
H603 C595 0.929 . S
H604 C612 0.929 . S
H605 C614 0.930 . S
H606 C616 0.930 . S
H607 C619 0.929 . S
H608 C622 0.930 . S
H609 C624 0.960 . S
H610 C624 0.960 . S
H611 C624 0.960 . S
C612 H604 0.929 . S
C612 C613 1.377 . S
C612 C614 1.384 . S
C613 C612 1.377 . S
C613 C619 1.390 . S
C614 H605 0.930 . S
C614 C612 1.384 . S
C614 C615 1.372 . S
C615 C614 1.372 . S
C615 C616 1.400 . S
C615 C620 1.490 . S
C616 H606 0.930 . S
C616 C615 1.400 . S
C616 C619 1.386 . S
H617 C633 0.930 . S
H618 C634 0.931 . S
C619 H607 0.929 . S
C619 C613 1.390 . S
C619 C616 1.386 . S
C620 C615 1.490 . S
C620 C622 1.395 . S
C620 C623 1.403 . S
H621 C627 0.930 . S
C622 H608 0.930 . S
C622 C620 1.395 . S
C622 C625 1.403 . S
C623 C620 1.403 . S
C623 C624 1.524 . S
C623 C627 1.400 . S
C624 H609 0.960 . S
C624 H610 0.960 . S
C624 H611 0.960 . S
C624 C623 1.524 . S
C625 C622 1.403 . S
C625 C626 1.392 . S
C625 C629 1.495 . S
C626 C625 1.392 . S
C626 C627 1.385 . S
C626 C628 1.478 . S
C627 H621 0.930 . S
C627 C623 1.400 . S
C627 C626 1.385 . S
C628 C626 1.478 . S
C628 C630 1.381 . S
C628 C634 1.383 . S
C629 C625 1.495 . S
C629 H635 0.959 . S
C629 H636 0.961 . S
C629 H637 0.960 . S
C630 C628 1.381 . S
C630 C631 1.394 . S
C630 H638 0.930 . S
C631 C630 1.394 . S
C631 C632 1.383 . S
C631 H639 0.929 . S
C632 C631 1.383 . S
C632 C633 1.377 . S
C633 H617 0.930 . S
C633 C632 1.377 . S
C633 C634 1.379 . S
C634 H618 0.931 . S
C634 C628 1.383 . S
C634 C633 1.379 . S
H635 C629 0.959 . S
H636 C629 0.961 . S
H637 C629 0.960 . S
H638 C630 0.930 . S
H639 C631 0.929 . S
H640 C648 0.929 . S
H641 C650 0.930 . S
H642 C652 0.930 . S
H643 C655 0.929 . S
H644 C658 0.930 . S
H645 C660 0.960 . S
H646 C660 0.960 . S
H647 C660 0.960 . S
C648 H640 0.929 . S
C648 C649 1.377 . S
C648 C650 1.384 . S
C649 C648 1.377 . S
C649 C655 1.390 . S
C650 H641 0.930 . S
C650 C648 1.384 . S
C650 C651 1.372 . S
C651 C650 1.372 . S
C651 C652 1.400 . S
C651 C656 1.490 . S
C652 H642 0.930 . S
C652 C651 1.400 . S
C652 C655 1.386 . S
H653 C669 0.930 . S
H654 C670 0.931 . S
C655 H643 0.929 . S
C655 C649 1.390 . S
C655 C652 1.386 . S
C656 C651 1.490 . S
C656 C658 1.395 . S
C656 C659 1.403 . S
H657 C663 0.930 . S
C658 H644 0.930 . S
C658 C656 1.395 . S
C658 C661 1.403 . S
C659 C656 1.403 . S
C659 C660 1.524 . S
C659 C663 1.400 . S
C660 H645 0.960 . S
C660 H646 0.960 . S
C660 H647 0.960 . S
C660 C659 1.524 . S
C661 C658 1.403 . S
C661 C662 1.392 . S
C661 C665 1.495 . S
C662 C661 1.392 . S
C662 C663 1.385 . S
C662 C664 1.478 . S
C663 H657 0.930 . S
C663 C659 1.400 . S
C663 C662 1.385 . S
C664 C662 1.478 . S
C664 C666 1.381 . S
C664 C670 1.383 . S
C665 C661 1.495 . S
C665 H671 0.959 . S
C665 H672 0.961 . S
C665 H673 0.960 . S
C666 C664 1.381 . S
C666 C667 1.394 . S
C666 H674 0.930 . S
C667 C666 1.394 . S
C667 C668 1.383 . S
C667 H675 0.929 . S
C668 C667 1.383 . S
C668 C669 1.377 . S
C669 H653 0.930 . S
C669 C668 1.377 . S
C669 C670 1.379 . S
C670 H654 0.931 . S
C670 C664 1.383 . S
C670 C669 1.379 . S
H671 C665 0.959 . S
H672 C665 0.961 . S
H673 C665 0.960 . S
H674 C666 0.930 . S
H675 C667 0.929 . S
H676 C684 0.929 1_556 S
H677 C686 0.930 . S
H678 C688 0.930 . S
H679 C691 0.929 . S
H680 C694 0.930 . S
H681 C696 0.960 . S
H682 C696 0.960 . S
H683 C696 0.960 . S
C684 H676 0.929 1_554 S
C684 C685 1.380 1_655 S
C684 C686 1.384 1_554 S
C685 C684 1.380 1_455 S
C685 C691 1.386 . S
C686 H677 0.930 . S
C686 C684 1.384 1_556 S
C686 C687 1.372 1_655 S
C687 C686 1.372 1_455 S
C687 C688 1.400 1_556 S
C687 C692 1.490 . S
C688 H678 0.930 . S
C688 C687 1.400 1_554 S
C688 C691 1.386 . S
H689 C705 0.930 . S
H690 C706 0.931 . S
C691 H679 0.929 . S
C691 C685 1.386 . S
C691 C688 1.386 . S
C692 C687 1.490 . S
C692 C694 1.395 1_455 S
C692 C695 1.403 . S
H693 C699 0.930 . S
C694 H680 0.930 . S
C694 C692 1.395 1_655 S
C694 C697 1.403 . S
C695 C692 1.403 . S
C695 C696 1.524 . S
C695 C699 1.400 . S
C696 H681 0.960 . S
C696 H682 0.960 . S
C696 H683 0.960 . S
C696 C695 1.524 . S
C697 C694 1.403 . S
C697 C698 1.392 1_655 S
C697 C701 1.495 . S
C698 C697 1.392 1_455 S
C698 C699 1.385 . S
C698 C700 1.478 . S
C699 H693 0.930 . S
C699 C695 1.400 . S
C699 C698 1.385 . S
C700 C698 1.478 . S
C700 C702 1.381 . S
C700 C706 1.383 . S
C701 C697 1.495 . S
C701 H707 0.959 . S
C701 H708 0.961 . S
C701 H709 0.960 . S
C702 C700 1.381 . S
C702 C703 1.394 . S
C702 H710 0.930 1_455 S
C703 C702 1.394 . S
C703 C704 1.383 . S
C703 H711 0.929 . S
C704 C703 1.383 . S
C704 C705 1.377 . S
C705 H689 0.930 . S
C705 C704 1.377 . S
C705 C706 1.379 . S
C706 H690 0.931 . S
C706 C700 1.383 . S
C706 C705 1.379 . S
H707 C701 0.959 . S
H708 C701 0.961 . S
H709 C701 0.960 . S
H710 C702 0.930 1_655 S
H711 C703 0.929 . S
H712 C720 0.929 . S
H713 C722 0.930 . S
H714 C724 0.930 . S
H715 C727 0.929 . S
H716 C730 0.930 . S
H717 C732 0.960 . S
H718 C732 0.960 . S
H719 C732 0.960 . S
C720 H712 0.929 . S
C720 C721 1.379 1_556 S
C720 C722 1.384 . S
C721 C720 1.379 1_554 S
C721 C727 1.387 1_565 S
C722 H713 0.930 . S
C722 C720 1.384 . S
C722 C723 1.372 1_565 S
C723 C722 1.372 1_545 S
C723 C724 1.400 1_556 S
C723 C728 1.490 . S
C724 H714 0.930 . S
C724 C723 1.400 1_554 S
C724 C727 1.386 . S
H725 C741 0.930 . S
H726 C742 0.931 . S
C727 H715 0.929 . S
C727 C721 1.387 1_545 S
C727 C724 1.386 . S
C728 C723 1.490 . S
C728 C730 1.395 1_545 S
C728 C731 1.403 . S
H729 C735 0.930 . S
C730 H716 0.930 . S
C730 C728 1.395 1_565 S
C730 C733 1.403 . S
C731 C728 1.403 . S
C731 C732 1.524 . S
C731 C735 1.400 . S
C732 H717 0.960 . S
C732 H718 0.960 . S
C732 H719 0.960 . S
C732 C731 1.524 . S
C733 C730 1.403 . S
C733 C734 1.392 1_565 S
C733 C737 1.495 . S
C734 C733 1.392 1_545 S
C734 C735 1.385 . S
C734 C736 1.478 . S
C735 H729 0.930 . S
C735 C731 1.400 . S
C735 C734 1.385 . S
C736 C734 1.478 . S
C736 C738 1.381 . S
C736 C742 1.383 . S
C737 C733 1.495 . S
C737 H743 0.959 . S
C737 H744 0.961 . S
C737 H745 0.960 . S
C738 C736 1.381 . S
C738 C739 1.394 . S
C738 H746 0.930 . S
C739 C738 1.394 . S
C739 C740 1.383 . S
C739 H747 0.929 . S
C740 C739 1.383 . S
C740 C741 1.377 . S
C741 H725 0.930 . S
C741 C740 1.377 . S
C741 C742 1.379 . S
C742 H726 0.931 . S
C742 C736 1.383 . S
C742 C741 1.379 . S
H743 C737 0.959 . S
H744 C737 0.961 . S
H745 C737 0.960 . S
H746 C738 0.930 . S
H747 C739 0.929 . S
H748 C756 0.929 1_554 S
H749 C758 0.930 . S
H750 C760 0.930 . S
H751 C763 0.929 . S
H752 C766 0.930 . S
H753 C768 0.960 . S
H754 C768 0.960 . S
H755 C768 0.960 . S
C756 H748 0.929 1_556 S
C756 C757 1.377 . S
C756 C758 1.384 . S
C757 C756 1.377 . S
C757 C763 1.390 . S
C758 H749 0.930 . S
C758 C756 1.384 . S
C758 C759 1.372 . S
C759 C758 1.372 . S
C759 C760 1.400 . S
C759 C764 1.490 . S
C760 H750 0.930 . S
C760 C759 1.400 . S
C760 C763 1.386 . S
H761 C777 0.930 . S
H762 C778 0.931 . S
C763 H751 0.929 . S
C763 C757 1.390 . S
C763 C760 1.386 . S
C764 C759 1.490 . S
C764 C766 1.395 . S
C764 C767 1.403 . S
H765 C771 0.930 . S
C766 H752 0.930 . S
C766 C764 1.395 . S
C766 C769 1.403 . S
C767 C764 1.403 . S
C767 C768 1.524 . S
C767 C771 1.400 . S
C768 H753 0.960 . S
C768 H754 0.960 . S
C768 H755 0.960 . S
C768 C767 1.524 . S
C769 C766 1.403 . S
C769 C770 1.392 . S
C769 C773 1.495 . S
C770 C769 1.392 . S
C770 C771 1.385 . S
C770 C772 1.478 . S
C771 H765 0.930 . S
C771 C767 1.400 . S
C771 C770 1.385 . S
C772 C770 1.478 . S
C772 C774 1.381 . S
C772 C778 1.383 . S
C773 C769 1.495 . S
C773 H779 0.959 . S
C773 H780 0.961 . S
C773 H781 0.960 . S
C774 C772 1.381 . S
C774 C775 1.394 . S
C774 H782 0.930 . S
C775 C774 1.394 . S
C775 C776 1.383 . S
C775 H783 0.929 . S
C776 C775 1.383 . S
C776 C777 1.377 . S
C777 H761 0.930 . S
C777 C776 1.377 . S
C777 C778 1.379 . S
C778 H762 0.931 . S
C778 C772 1.383 . S
C778 C777 1.379 . S
H779 C773 0.959 . S
H780 C773 0.961 . S
H781 C773 0.960 . S
H782 C774 0.930 . S
H783 C775 0.929 . S
H784 C792 0.929 . S
H785 C794 0.930 . S
H786 C796 0.930 . S
H787 C799 0.929 1_554 S
H788 C802 0.930 . S
H789 C804 0.960 . S
H790 C804 0.960 . S
H791 C804 0.960 . S
C792 H784 0.929 . S
C792 C793 1.377 . S
C792 C794 1.384 . S
C793 C792 1.377 . S
C793 C799 1.390 . S
C794 H785 0.930 . S
C794 C792 1.384 . S
C794 C795 1.372 . S
C795 C794 1.372 . S
C795 C796 1.400 . S
C795 C800 1.490 . S
C796 H786 0.930 . S
C796 C795 1.400 . S
C796 C799 1.386 . S
H797 C813 0.930 . S
H798 C814 0.931 . S
C799 H787 0.929 1_556 S
C799 C793 1.390 . S
C799 C796 1.386 . S
C800 C795 1.490 . S
C800 C802 1.395 . S
C800 C803 1.403 . S
H801 C807 0.930 . S
C802 H788 0.930 . S
C802 C800 1.395 . S
C802 C805 1.403 . S
C803 C800 1.403 . S
C803 C804 1.524 . S
C803 C807 1.400 . S
C804 H789 0.960 . S
C804 H790 0.960 . S
C804 H791 0.960 . S
C804 C803 1.524 . S
C805 C802 1.403 . S
C805 C806 1.392 . S
C805 C809 1.495 . S
C806 C805 1.392 . S
C806 C807 1.385 . S
C806 C808 1.478 . S
C807 H801 0.930 . S
C807 C803 1.400 . S
C807 C806 1.385 . S
C808 C806 1.478 . S
C808 C810 1.381 . S
C808 C814 1.383 . S
C809 C805 1.495 . S
C809 H815 0.959 . S
C809 H816 0.961 . S
C809 H817 0.960 . S
C810 C808 1.381 . S
C810 C811 1.394 . S
C810 H818 0.930 . S
C811 C810 1.394 . S
C811 C812 1.383 . S
C811 H819 0.929 . S
C812 C811 1.383 . S
C812 C813 1.377 . S
C813 H797 0.930 . S
C813 C812 1.377 . S
C813 C814 1.379 . S
C814 H798 0.931 . S
C814 C808 1.383 . S
C814 C813 1.379 . S
H815 C809 0.959 . S
H816 C809 0.961 . S
H817 C809 0.960 . S
H818 C810 0.930 . S
H819 C811 0.929 . S
H820 C828 0.929 . S
H821 C830 0.930 . S
H822 C832 0.930 . S
H823 C835 0.929 . S
H824 C838 0.930 . S
H825 C840 0.960 . S
H826 C840 0.960 1_455 S
H827 C840 0.960 . S
C828 H820 0.929 . S
C828 C829 1.377 . S
C828 C830 1.384 . S
C829 C828 1.377 . S
C829 C835 1.390 . S
C830 H821 0.930 . S
C830 C828 1.384 . S
C830 C831 1.372 . S
C831 C830 1.372 . S
C831 C832 1.400 . S
C831 C836 1.490 . S
C832 H822 0.930 . S
C832 C831 1.400 . S
C832 C835 1.386 . S
H833 C849 0.930 1_655 S
H834 C850 0.928 1_554 S
C835 H823 0.929 . S
C835 C829 1.390 . S
C835 C832 1.386 . S
C836 C831 1.490 . S
C836 C838 1.395 . S
C836 C839 1.403 . S
H837 C843 0.930 1_556 S
C838 H824 0.930 . S
C838 C836 1.395 . S
C838 C841 1.403 . S
C839 C836 1.403 . S
C839 C840 1.524 1_455 S
C839 C843 1.400 . S
C840 H825 0.960 . S
C840 H826 0.960 1_655 S
C840 H827 0.960 . S
C840 C839 1.524 1_655 S
C841 C838 1.403 . S
C841 C842 1.392 . S
C841 C845 1.495 . S
C842 C841 1.392 . S
C842 C843 1.385 . S
C842 C844 1.478 1_554 S
C843 H837 0.930 1_554 S
C843 C839 1.400 . S
C843 C842 1.385 . S
C844 C842 1.478 1_556 S
C844 C846 1.381 . S
C844 C850 1.383 . S
C845 C841 1.495 . S
C845 H851 0.959 . S
C845 H852 0.961 . S
C845 H853 0.960 . S
C846 C844 1.381 . S
C846 C847 1.394 . S
C846 H854 0.930 . S
C847 C846 1.394 . S
C847 C848 1.383 . S
C847 H855 0.929 . S
C848 C847 1.383 . S
C848 C849 1.377 . S
C849 H833 0.930 1_455 S
C849 C848 1.377 . S
C849 C850 1.379 . S
C850 H834 0.928 1_556 S
C850 C844 1.383 . S
C850 C849 1.379 . S
H851 C845 0.959 . S
H852 C845 0.961 . S
H853 C845 0.960 . S
H854 C846 0.930 . S
H855 C847 0.929 . S
H856 C864 0.929 . S
H857 C866 0.930 . S
H858 C868 0.930 . S
H859 C871 0.929 . S
H860 C874 0.930 . S
H861 C876 0.960 1_565 S
H862 C876 0.960 . S
H863 C876 0.960 1_565 S
C864 H856 0.929 . S
C864 C865 1.377 . S
C864 C866 1.384 . S
C865 C864 1.377 . S
C865 C871 1.390 1_545 S
C866 H857 0.930 . S
C866 C864 1.384 . S
C866 C867 1.372 . S
C867 C866 1.372 . S
C867 C868 1.400 1_545 S
C867 C872 1.490 . S
C868 H858 0.930 . S
C868 C867 1.400 1_565 S
C868 C871 1.386 . S
H869 C885 0.930 . S
H870 C886 0.931 . S
C871 H859 0.929 . S
C871 C865 1.390 1_565 S
C871 C868 1.386 . S
C872 C867 1.490 . S
C872 C874 1.395 . S
C872 C875 1.403 1_554 S
H873 C879 0.930 . S
C874 H860 0.930 . S
C874 C872 1.395 . S
C874 C877 1.403 . S
C875 C872 1.403 1_556 S
C875 C876 1.524 . S
C875 C879 1.400 . S
C876 H861 0.960 1_545 S
C876 H862 0.960 . S
C876 H863 0.960 1_545 S
C876 C875 1.524 . S
C877 C874 1.403 . S
C877 C878 1.392 1_554 S
C877 C881 1.495 . S
C878 C877 1.392 1_556 S
C878 C879 1.385 . S
C878 C880 1.478 . S
C879 H873 0.930 . S
C879 C875 1.400 . S
C879 C878 1.385 . S
C880 C878 1.478 . S
C880 C882 1.381 . S
C880 C886 1.383 1_545 S
C881 C877 1.495 . S
C881 H887 0.959 . S
C881 H888 0.961 . S
C881 H889 0.960 . S
C882 C880 1.381 . S
C882 C883 1.394 . S
C882 H890 0.930 . S
C883 C882 1.394 . S
C883 C884 1.383 . S
C883 H891 0.929 . S
C884 C883 1.383 . S
C884 C885 1.377 1_545 S
C885 H869 0.930 . S
C885 C884 1.377 1_565 S
C885 C886 1.379 . S
C886 H870 0.931 . S
C886 C880 1.383 1_565 S
C886 C885 1.379 . S
H887 C881 0.959 . S
H888 C881 0.961 . S
H889 C881 0.960 . S
H890 C882 0.930 . S
H891 C883 0.929 . S
H892 C900 0.929 . S
H893 C902 0.930 . S
H894 C904 0.930 . S
H895 C907 0.929 . S
H896 C910 0.930 . S
H897 C912 0.960 . S
H898 C912 0.960 . S
H899 C912 0.960 . S
C900 H892 0.929 . S
C900 C901 1.377 . S
C900 C902 1.384 . S
C901 C900 1.377 . S
C901 C907 1.390 . S
C902 H893 0.930 . S
C902 C900 1.384 . S
C902 C903 1.372 . S
C903 C902 1.372 . S
C903 C904 1.400 . S
C903 C908 1.490 . S
C904 H894 0.930 . S
C904 C903 1.400 . S
C904 C907 1.386 . S
H905 C921 0.930 . S
H906 C922 0.931 . S
C907 H895 0.929 . S
C907 C901 1.390 . S
C907 C904 1.386 . S
C908 C903 1.490 . S
C908 C910 1.395 . S
C908 C911 1.403 1_554 S
H909 C915 0.930 . S
C910 H896 0.930 . S
C910 C908 1.395 . S
C910 C913 1.403 . S
C911 C908 1.403 1_556 S
C911 C912 1.524 . S
C911 C915 1.400 . S
C912 H897 0.960 . S
C912 H898 0.960 . S
C912 H899 0.960 . S
C912 C911 1.524 . S
C913 C910 1.403 . S
C913 C914 1.392 1_554 S
C913 C917 1.495 . S
C914 C913 1.392 1_556 S
C914 C915 1.385 . S
C914 C916 1.478 . S
C915 H909 0.930 . S
C915 C911 1.400 . S
C915 C914 1.385 . S
C916 C914 1.478 . S
C916 C918 1.381 . S
C916 C922 1.383 . S
C917 C913 1.495 . S
C917 H923 0.959 . S
C917 H924 0.961 . S
C917 H925 0.960 . S
C918 C916 1.381 . S
C918 C919 1.394 . S
C918 H926 0.930 . S
C919 C918 1.394 . S
C919 C920 1.383 . S
C919 H927 0.929 . S
C920 C919 1.383 . S
C920 C921 1.377 . S
C921 H905 0.930 . S
C921 C920 1.377 . S
C921 C922 1.379 . S
C922 H906 0.931 . S
C922 C916 1.383 . S
C922 C921 1.379 . S
H923 C917 0.959 . S
H924 C917 0.961 . S
H925 C917 0.960 . S
H926 C918 0.930 . S
H927 C919 0.929 . S
H928 C936 0.929 . S
H929 C938 0.930 . S
H930 C940 0.930 . S
H931 C943 0.929 . S
H932 C946 0.930 . S
H933 C948 0.960 . S
H934 C948 0.960 . S
H935 C948 0.960 . S
C936 H928 0.929 . S
C936 C937 1.377 . S
C936 C938 1.384 . S
C937 C936 1.377 . S
C937 C943 1.390 . S
C938 H929 0.930 . S
C938 C936 1.384 . S
C938 C939 1.372 . S
C939 C938 1.372 . S
C939 C940 1.400 . S
C939 C944 1.490 . S
C940 H930 0.930 . S
C940 C939 1.400 . S
C940 C943 1.386 . S
H941 C957 0.930 . S
H942 C958 0.931 . S
C943 H931 0.929 . S
C943 C937 1.390 . S
C943 C940 1.386 . S
C944 C939 1.490 . S
C944 C946 1.395 . S
C944 C947 1.403 1_554 S
H945 C951 0.930 . S
C946 H932 0.930 . S
C946 C944 1.395 . S
C946 C949 1.403 . S
C947 C944 1.403 1_556 S
C947 C948 1.524 . S
C947 C951 1.400 . S
C948 H933 0.960 . S
C948 H934 0.960 . S
C948 H935 0.960 . S
C948 C947 1.524 . S
C949 C946 1.403 . S
C949 C950 1.392 1_554 S
C949 C953 1.495 . S
C950 C949 1.392 1_556 S
C950 C951 1.385 . S
C950 C952 1.478 . S
C951 H945 0.930 . S
C951 C947 1.400 . S
C951 C950 1.385 . S
C952 C950 1.478 . S
C952 C954 1.381 . S
C952 C958 1.383 . S
C953 C949 1.495 . S
C953 H959 0.959 . S
C953 H960 0.961 . S
C953 H961 0.960 . S
C954 C952 1.381 . S
C954 C955 1.394 . S
C954 H962 0.930 . S
C955 C954 1.394 . S
C955 C956 1.383 . S
C955 H963 0.929 . S
C956 C955 1.383 . S
C956 C957 1.377 . S
C957 H941 0.930 . S
C957 C956 1.377 . S
C957 C958 1.379 . S
C958 H942 0.931 . S
C958 C952 1.383 . S
C958 C957 1.379 . S
H959 C953 0.959 . S
H960 C953 0.961 . S
H961 C953 0.960 . S
H962 C954 0.930 . S
H963 C955 0.929 . S
H964 C972 0.929 . S
H965 C974 0.930 . S
H966 C976 0.930 . S
H967 C979 0.929 . S
H968 C982 0.930 . S
H969 C984 0.960 . S
H970 C984 0.960 . S
H971 C984 0.960 . S
C972 H964 0.929 . S
C972 C973 1.379 1_655 S
C972 C974 1.384 . S
C973 C972 1.379 1_455 S
C973 C979 1.388 . S
C974 H965 0.930 . S
C974 C972 1.384 . S
C974 C975 1.372 . S
C975 C974 1.372 . S
C975 C976 1.400 1_655 S
C975 C980 1.490 . S
C976 H966 0.930 . S
C976 C975 1.400 1_455 S
C976 C979 1.386 . S
H977 C993 0.930 1_455 S
H978 C994 0.931 1_455 S
C979 H967 0.929 . S
C979 C973 1.388 . S
C979 C976 1.386 . S
C980 C975 1.490 . S
C980 C982 1.395 . S
C980 C983 1.403 1_655 S
H981 C987 0.930 . S
C982 H968 0.930 . S
C982 C980 1.395 . S
C982 C985 1.403 . S
C983 C980 1.403 1_455 S
C983 C984 1.524 . S
C983 C987 1.400 . S
C984 H969 0.960 . S
C984 H970 0.960 . S
C984 H971 0.960 . S
C984 C983 1.524 . S
C985 C982 1.403 . S
C985 C986 1.392 . S
C985 C989 1.495 . S
C986 C985 1.392 . S
C986 C987 1.385 1_655 S
C986 C988 1.478 . S
C987 H981 0.930 . S
C987 C983 1.400 . S
C987 C986 1.385 1_455 S
C988 C986 1.478 . S
C988 C990 1.381 . S
C988 C994 1.383 . S
C989 C985 1.495 . S
C989 H995 0.959 . S
C989 H996 0.961 . S
C989 H997 0.960 . S
C990 C988 1.381 . S
C990 C991 1.394 . S
C990 H998 0.930 . S
C991 C990 1.394 . S
C991 C992 1.383 . S
C991 H999 0.929 . S
C992 C991 1.383 . S
C992 C993 1.377 . S
C993 H977 0.930 1_655 S
C993 C992 1.377 . S
C993 C994 1.379 . S
C994 H978 0.931 1_655 S
C994 C988 1.383 . S
C994 C993 1.379 . S
H995 C989 0.959 . S
H996 C989 0.961 . S
H997 C989 0.960 . S
H998 C990 0.930 . S
H999 C991 0.929 . S
H1000 C1008 0.929 . S
H1001 C1010 0.930 . S
H1002 C1012 0.930 . S
H1003 C1015 0.929 . S
H1004 C1018 0.930 . S
H1005 C1020 0.960 . S
H1006 C1020 0.960 . S
H1007 C1020 0.960 . S
C1008 H1000 0.929 . S
C1008 C1009 1.376 1_545 S
C1008 C1010 1.384 . S
C1009 C1008 1.376 1_565 S
C1009 C1015 1.391 . S
C1010 H1001 0.930 . S
C1010 C1008 1.384 . S
C1010 C1011 1.372 1_545 S
C1011 C1010 1.372 1_565 S
C1011 C1012 1.400 . S
C1011 C1016 1.490 . S
C1012 H1002 0.930 . S
C1012 C1011 1.400 . S
C1012 C1015 1.386 . S
H1013 C1029 0.930 . S
H1014 C1030 0.931 . S
C1015 H1003 0.929 . S
C1015 C1009 1.391 . S
C1015 C1012 1.386 . S
C1016 C1011 1.490 . S
C1016 C1018 1.395 . S
C1016 C1019 1.403 1_565 S
H1017 C1023 0.930 . S
C1018 H1004 0.930 . S
C1018 C1016 1.395 . S
C1018 C1021 1.403 . S
C1019 C1016 1.403 1_545 S
C1019 C1020 1.524 . S
C1019 C1023 1.400 . S
C1020 H1005 0.960 . S
C1020 H1006 0.960 . S
C1020 H1007 0.960 . S
C1020 C1019 1.524 . S
C1021 C1018 1.403 . S
C1021 C1022 1.392 . S
C1021 C1025 1.495 . S
C1022 C1021 1.392 . S
C1022 C1023 1.385 1_565 S
C1022 C1024 1.478 . S
C1023 H1017 0.930 . S
C1023 C1019 1.400 . S
C1023 C1022 1.385 1_545 S
C1024 C1022 1.478 . S
C1024 C1026 1.381 . S
C1024 C1030 1.383 . S
C1025 C1021 1.495 . S
C1025 H1031 0.959 . S
C1025 H1032 0.961 . S
C1025 H1033 0.960 . S
C1026 C1024 1.381 . S
C1026 C1027 1.394 . S
C1026 H1034 0.930 . S
C1027 C1026 1.394 . S
C1027 C1028 1.383 . S
C1027 H1035 0.929 . S
C1028 C1027 1.383 . S
C1028 C1029 1.377 . S
C1029 H1013 0.930 . S
C1029 C1028 1.377 . S
C1029 C1030 1.379 . S
C1030 H1014 0.931 . S
C1030 C1024 1.383 . S
C1030 C1029 1.379 . S
H1031 C1025 0.959 . S
H1032 C1025 0.961 . S
H1033 C1025 0.960 . S
H1034 C1026 0.930 . S
H1035 C1027 0.929 . S
H1036 C1044 0.929 . S
H1037 C1046 0.930 . S
H1038 C1048 0.930 . S
H1039 C1051 0.929 . S
H1040 C1054 0.930 . S
H1041 C1056 0.960 . S
H1042 C1056 0.960 . S
H1043 C1056 0.960 . S
C1044 H1036 0.929 . S
C1044 C1045 1.377 . S
C1044 C1046 1.384 . S
C1045 C1044 1.377 . S
C1045 C1051 1.390 . S
C1046 H1037 0.930 . S
C1046 C1044 1.384 . S
C1046 C1047 1.372 . S
C1047 C1046 1.372 . S
C1047 C1048 1.400 . S
C1047 C1052 1.490 . S
C1048 H1038 0.930 . S
C1048 C1047 1.400 . S
C1048 C1051 1.386 . S
H1049 C1065 0.930 . S
H1050 C1066 0.931 . S
C1051 H1039 0.929 . S
C1051 C1045 1.390 . S
C1051 C1048 1.386 . S
C1052 C1047 1.490 . S
C1052 C1054 1.395 . S
C1052 C1055 1.403 . S
H1053 C1059 0.930 . S
C1054 H1040 0.930 . S
C1054 C1052 1.395 . S
C1054 C1057 1.403 . S
C1055 C1052 1.403 . S
C1055 C1056 1.524 . S
C1055 C1059 1.400 . S
C1056 H1041 0.960 . S
C1056 H1042 0.960 . S
C1056 H1043 0.960 . S
C1056 C1055 1.524 . S
C1057 C1054 1.403 . S
C1057 C1058 1.392 . S
C1057 C1061 1.495 . S
C1058 C1057 1.392 . S
C1058 C1059 1.385 . S
C1058 C1060 1.478 . S
C1059 H1053 0.930 . S
C1059 C1055 1.400 . S
C1059 C1058 1.385 . S
C1060 C1058 1.478 . S
C1060 C1062 1.381 . S
C1060 C1066 1.383 . S
C1061 C1057 1.495 . S
C1061 H1067 0.959 . S
C1061 H1068 0.961 . S
C1061 H1069 0.960 . S
C1062 C1060 1.381 . S
C1062 C1063 1.394 . S
C1062 H1070 0.930 . S
C1063 C1062 1.394 . S
C1063 C1064 1.383 . S
C1063 H1071 0.929 . S
C1064 C1063 1.383 . S
C1064 C1065 1.377 . S
C1065 H1049 0.930 . S
C1065 C1064 1.377 . S
C1065 C1066 1.379 . S
C1066 H1050 0.931 . S
C1066 C1060 1.383 . S
C1066 C1065 1.379 . S
H1067 C1061 0.959 . S
H1068 C1061 0.961 . S
H1069 C1061 0.960 . S
H1070 C1062 0.930 . S
H1071 C1063 0.929 . S
H1072 C1080 0.929 . S
H1073 C1082 0.930 . S
H1074 C1084 0.930 . S
H1075 C1087 0.929 . S
H1076 C1090 0.930 . S
H1077 C1092 0.960 . S
H1078 C1092 0.960 . S
H1079 C1092 0.960 . S
C1080 H1072 0.929 . S
C1080 C1081 1.377 . S
C1080 C1082 1.384 . S
C1081 C1080 1.377 . S
C1081 C1087 1.390 . S
C1082 H1073 0.930 . S
C1082 C1080 1.384 . S
C1082 C1083 1.372 . S
C1083 C1082 1.372 . S
C1083 C1084 1.400 . S
C1083 C1088 1.490 . S
C1084 H1074 0.930 . S
C1084 C1083 1.400 . S
C1084 C1087 1.386 . S
H1085 C1101 0.930 . S
H1086 C1102 0.931 . S
C1087 H1075 0.929 . S
C1087 C1081 1.390 . S
C1087 C1084 1.386 . S
C1088 C1083 1.490 . S
C1088 C1090 1.395 . S
C1088 C1091 1.403 . S
H1089 C1095 0.930 . S
C1090 H1076 0.930 . S
C1090 C1088 1.395 . S
C1090 C1093 1.403 . S
C1091 C1088 1.403 . S
C1091 C1092 1.524 . S
C1091 C1095 1.400 . S
C1092 H1077 0.960 . S
C1092 H1078 0.960 . S
C1092 H1079 0.960 . S
C1092 C1091 1.524 . S
C1093 C1090 1.403 . S
C1093 C1094 1.392 . S
C1093 C1097 1.495 . S
C1094 C1093 1.392 . S
C1094 C1095 1.385 . S
C1094 C1096 1.478 . S
C1095 H1089 0.930 . S
C1095 C1091 1.400 . S
C1095 C1094 1.385 . S
C1096 C1094 1.478 . S
C1096 C1098 1.381 . S
C1096 C1102 1.383 . S
C1097 C1093 1.495 . S
C1097 H1103 0.959 . S
C1097 H1104 0.961 . S
C1097 H1105 0.960 . S
C1098 C1096 1.381 . S
C1098 C1099 1.394 . S
C1098 H1106 0.930 . S
C1099 C1098 1.394 . S
C1099 C1100 1.383 . S
C1099 H1107 0.929 . S
C1100 C1099 1.383 . S
C1100 C1101 1.377 . S
C1101 H1085 0.930 . S
C1101 C1100 1.377 . S
C1101 C1102 1.379 . S
C1102 H1086 0.931 . S
C1102 C1096 1.383 . S
C1102 C1101 1.379 . S
H1103 C1097 0.959 . S
H1104 C1097 0.961 . S
H1105 C1097 0.960 . S
H1106 C1098 0.930 . S
H1107 C1099 0.929 . S
C253 C125 1.535 . S
C272 C168 1.617 . S
C308 C191 1.629 . S
C289 C144 1.571 . S
C344 C214 1.677 . S
C325 C87 1.602 . S
C380 C241 1.515 . S
C361 C106 1.492 . S
C416 C169 1.606 . S
C397 C49 1.536 1_556 S
C433 C68 1.463 . S
C452 C192 1.514 . S
C469 C11 1.450 . S
C488 C215 1.511 . S
C505 C30 1.598 . S
C524 C240 1.610 . S
C560 C170 0.205 . S
C541 C97 0.452 . S
C596 C193 0.270 . S
C577 C116 0.403 . S
C632 C216 0.356 . S
C613 C135 0.389 . S
C649 C78 0.470 . S
C668 C242 0.438 . S
C685 C21 0.544 . S
C704 C173 0.489 . S
C740 C196 0.465 . S
C721 C40 0.532 1_565 S
C776 C219 0.532 . S
C757 C59 0.488 . S
C793 C2 0.404 . S
C812 C239 0.279 . S
C829 C101 1.615 . S
C848 C171 1.576 . S
C865 C120 1.567 . S
C884 C194 1.565 . S
C920 C217 1.580 . S
C901 C139 1.579 . S
C956 C238 1.356 . S
C937 C82 1.321 . S
C973 C25 1.586 . S
C992 C172 1.557 . S
C1028 C195 1.512 . S
C1009 C44 1.544 . S
C1064 C218 1.459 . S
C1045 C63 1.522 . S
C1081 C6 1.771 . S
C1100 C237 1.790 . S
