# Generated by pormake.
# Topology ptr, (4,4)-cn, num edge types: 1
# Building blocks:
#     Node 0, Type 0, BuildingBlock: GALJAG_clean_sbu_0, # of connection points: 4
#     Node 1, Type 0, BuildingBlock: GALJAG_clean_sbu_0, # of connection points: 4
#     Node 2, Type 0, BuildingBlock: GALJAG_clean_sbu_0, # of connection points: 4
#     Node 3, Type 0, BuildingBlock: GALJAG_clean_sbu_0, # of connection points: 4
#     Node 4, Type 0, BuildingBlock: GALJAG_clean_sbu_0, # of connection points: 4
#     Node 5, Type 0, BuildingBlock: GALJAG_clean_sbu_0, # of connection points: 4
#     Node 6, Type 0, BuildingBlock: GALJAG_clean_sbu_0, # of connection points: 4
#     Node 7, Type 0, BuildingBlock: GALJAG_clean_sbu_0, # of connection points: 4
#     Node 8, Type 0, BuildingBlock: GALJAG_clean_sbu_0, # of connection points: 4
#     Node 9, Type 0, BuildingBlock: GALJAG_clean_sbu_0, # of connection points: 4
#     Node 10, Type 0, BuildingBlock: GALJAG_clean_sbu_0, # of connection points: 4
#     Node 11, Type 0, BuildingBlock: GALJAG_clean_sbu_0, # of connection points: 4
#     Node 12, Type 0, BuildingBlock: GALJAG_clean_sbu_0, # of connection points: 4
#     Node 13, Type 0, BuildingBlock: GALJAG_clean_sbu_0, # of connection points: 4
#     Node 14, Type 0, BuildingBlock: GALJAG_clean_sbu_0, # of connection points: 4
#     Node 15, Type 0, BuildingBlock: GALJAG_clean_sbu_0, # of connection points: 4
#     Node 16, Type 0, BuildingBlock: GALJAG_clean_sbu_0, # of connection points: 4
#     Node 17, Type 0, BuildingBlock: GALJAG_clean_sbu_0, # of connection points: 4
#     Node 18, Type 1, BuildingBlock: NAWXER_clean_linker_0, # of connection points: 4
#     Node 19, Type 1, BuildingBlock: NAWXER_clean_linker_0, # of connection points: 4
#     Node 20, Type 1, BuildingBlock: NAWXER_clean_linker_0, # of connection points: 4
#     Node 21, Type 1, BuildingBlock: NAWXER_clean_linker_0, # of connection points: 4
#     Node 22, Type 1, BuildingBlock: NAWXER_clean_linker_0, # of connection points: 4
#     Node 23, Type 1, BuildingBlock: NAWXER_clean_linker_0, # of connection points: 4
#     Node 24, Type 1, BuildingBlock: NAWXER_clean_linker_0, # of connection points: 4
#     Node 25, Type 1, BuildingBlock: NAWXER_clean_linker_0, # of connection points: 4
#     Node 26, Type 1, BuildingBlock: NAWXER_clean_linker_0, # of connection points: 4
#     Node 27, Type 1, BuildingBlock: NAWXER_clean_linker_0, # of connection points: 4
#     Node 28, Type 1, BuildingBlock: NAWXER_clean_linker_0, # of connection points: 4
#     Node 29, Type 1, BuildingBlock: NAWXER_clean_linker_0, # of connection points: 4
#     Node 30, Type 1, BuildingBlock: NAWXER_clean_linker_0, # of connection points: 4
#     Node 31, Type 1, BuildingBlock: NAWXER_clean_linker_0, # of connection points: 4
#     Node 32, Type 1, BuildingBlock: NAWXER_clean_linker_0, # of connection points: 4
#     Node 33, Type 1, BuildingBlock: NAWXER_clean_linker_0, # of connection points: 4
#     Node 34, Type 1, BuildingBlock: NAWXER_clean_linker_0, # of connection points: 4
#     Node 35, Type 1, BuildingBlock: NAWXER_clean_linker_0, # of connection points: 4
#     Edge 36, Type (0, 1), BuildingBlock: XIVTED_clean_linker_0, # of connection points: 2
#     Edge 37, Type (0, 1), BuildingBlock: XIVTED_clean_linker_0, # of connection points: 2
#     Edge 38, Type (0, 1), BuildingBlock: XIVTED_clean_linker_0, # of connection points: 2
#     Edge 39, Type (0, 1), BuildingBlock: XIVTED_clean_linker_0, # of connection points: 2
#     Edge 40, Type (0, 1), BuildingBlock: XIVTED_clean_linker_0, # of connection points: 2
#     Edge 41, Type (0, 1), BuildingBlock: XIVTED_clean_linker_0, # of connection points: 2
#     Edge 42, Type (0, 1), BuildingBlock: XIVTED_clean_linker_0, # of connection points: 2
#     Edge 43, Type (0, 1), BuildingBlock: XIVTED_clean_linker_0, # of connection points: 2
#     Edge 44, Type (0, 1), BuildingBlock: XIVTED_clean_linker_0, # of connection points: 2
#     Edge 45, Type (0, 1), BuildingBlock: XIVTED_clean_linker_0, # of connection points: 2
#     Edge 46, Type (0, 1), BuildingBlock: XIVTED_clean_linker_0, # of connection points: 2
#     Edge 47, Type (0, 1), BuildingBlock: XIVTED_clean_linker_0, # of connection points: 2
#     Edge 48, Type (0, 1), BuildingBlock: XIVTED_clean_linker_0, # of connection points: 2
#     Edge 49, Type (0, 1), BuildingBlock: XIVTED_clean_linker_0, # of connection points: 2
#     Edge 50, Type (0, 1), BuildingBlock: XIVTED_clean_linker_0, # of connection points: 2
#     Edge 51, Type (0, 1), BuildingBlock: XIVTED_clean_linker_0, # of connection points: 2
#     Edge 52, Type (0, 1), BuildingBlock: XIVTED_clean_linker_0, # of connection points: 2
#     Edge 53, Type (0, 1), BuildingBlock: XIVTED_clean_linker_0, # of connection points: 2
#     Edge 54, Type (0, 1), BuildingBlock: XIVTED_clean_linker_0, # of connection points: 2
#     Edge 55, Type (0, 1), BuildingBlock: XIVTED_clean_linker_0, # of connection points: 2
#     Edge 56, Type (0, 1), BuildingBlock: XIVTED_clean_linker_0, # of connection points: 2
#     Edge 57, Type (0, 1), BuildingBlock: XIVTED_clean_linker_0, # of connection points: 2
#     Edge 58, Type (0, 1), BuildingBlock: XIVTED_clean_linker_0, # of connection points: 2
#     Edge 59, Type (0, 1), BuildingBlock: XIVTED_clean_linker_0, # of connection points: 2
#     Edge 60, Type (0, 1), BuildingBlock: XIVTED_clean_linker_0, # of connection points: 2
#     Edge 61, Type (0, 1), BuildingBlock: XIVTED_clean_linker_0, # of connection points: 2
#     Edge 62, Type (0, 1), BuildingBlock: XIVTED_clean_linker_0, # of connection points: 2
#     Edge 63, Type (0, 1), BuildingBlock: XIVTED_clean_linker_0, # of connection points: 2
#     Edge 64, Type (0, 1), BuildingBlock: XIVTED_clean_linker_0, # of connection points: 2
#     Edge 65, Type (0, 1), BuildingBlock: XIVTED_clean_linker_0, # of connection points: 2
#     Edge 66, Type (0, 1), BuildingBlock: XIVTED_clean_linker_0, # of connection points: 2
#     Edge 67, Type (0, 1), BuildingBlock: XIVTED_clean_linker_0, # of connection points: 2
#     Edge 68, Type (0, 1), BuildingBlock: XIVTED_clean_linker_0, # of connection points: 2
#     Edge 69, Type (0, 1), BuildingBlock: XIVTED_clean_linker_0, # of connection points: 2
#     Edge 70, Type (0, 1), BuildingBlock: XIVTED_clean_linker_0, # of connection points: 2
#     Edge 71, Type (0, 1), BuildingBlock: XIVTED_clean_linker_0, # of connection points: 2
#     Edge 72, Type (0, 1), BuildingBlock: XIVTED_clean_linker_0, # of connection points: 2
#     Edge 73, Type (0, 1), BuildingBlock: XIVTED_clean_linker_0, # of connection points: 2
#     Edge 74, Type (0, 1), BuildingBlock: XIVTED_clean_linker_0, # of connection points: 2
#     Edge 75, Type (0, 1), BuildingBlock: XIVTED_clean_linker_0, # of connection points: 2
#     Edge 76, Type (0, 1), BuildingBlock: XIVTED_clean_linker_0, # of connection points: 2
#     Edge 77, Type (0, 1), BuildingBlock: XIVTED_clean_linker_0, # of connection points: 2
#     Edge 78, Type (0, 1), BuildingBlock: XIVTED_clean_linker_0, # of connection points: 2
#     Edge 79, Type (0, 1), BuildingBlock: XIVTED_clean_linker_0, # of connection points: 2
#     Edge 80, Type (0, 1), BuildingBlock: XIVTED_clean_linker_0, # of connection points: 2
#     Edge 81, Type (0, 1), BuildingBlock: XIVTED_clean_linker_0, # of connection points: 2
#     Edge 82, Type (0, 1), BuildingBlock: XIVTED_clean_linker_0, # of connection points: 2
#     Edge 83, Type (0, 1), BuildingBlock: XIVTED_clean_linker_0, # of connection points: 2
#     Edge 84, Type (0, 1), BuildingBlock: XIVTED_clean_linker_0, # of connection points: 2
#     Edge 85, Type (0, 1), BuildingBlock: XIVTED_clean_linker_0, # of connection points: 2
#     Edge 86, Type (0, 1), BuildingBlock: XIVTED_clean_linker_0, # of connection points: 2
#     Edge 87, Type (0, 1), BuildingBlock: XIVTED_clean_linker_0, # of connection points: 2
#     Edge 88, Type (0, 1), BuildingBlock: XIVTED_clean_linker_0, # of connection points: 2
#     Edge 89, Type (0, 1), BuildingBlock: XIVTED_clean_linker_0, # of connection points: 2
#     Edge 90, Type (0, 1), BuildingBlock: XIVTED_clean_linker_0, # of connection points: 2
#     Edge 91, Type (0, 1), BuildingBlock: XIVTED_clean_linker_0, # of connection points: 2
#     Edge 92, Type (0, 1), BuildingBlock: XIVTED_clean_linker_0, # of connection points: 2
#     Edge 93, Type (0, 1), BuildingBlock: XIVTED_clean_linker_0, # of connection points: 2
#     Edge 94, Type (0, 1), BuildingBlock: XIVTED_clean_linker_0, # of connection points: 2
#     Edge 95, Type (0, 1), BuildingBlock: XIVTED_clean_linker_0, # of connection points: 2
#     Edge 96, Type (0, 1), BuildingBlock: XIVTED_clean_linker_0, # of connection points: 2
#     Edge 97, Type (0, 1), BuildingBlock: XIVTED_clean_linker_0, # of connection points: 2
#     Edge 98, Type (0, 1), BuildingBlock: XIVTED_clean_linker_0, # of connection points: 2
#     Edge 99, Type (0, 1), BuildingBlock: XIVTED_clean_linker_0, # of connection points: 2
#     Edge 100, Type (0, 1), BuildingBlock: XIVTED_clean_linker_0, # of connection points: 2
#     Edge 101, Type (0, 1), BuildingBlock: XIVTED_clean_linker_0, # of connection points: 2
#     Edge 102, Type (0, 1), BuildingBlock: XIVTED_clean_linker_0, # of connection points: 2
#     Edge 103, Type (0, 1), BuildingBlock: XIVTED_clean_linker_0, # of connection points: 2
#     Edge 104, Type (0, 1), BuildingBlock: XIVTED_clean_linker_0, # of connection points: 2
#     Edge 105, Type (0, 1), BuildingBlock: XIVTED_clean_linker_0, # of connection points: 2
#     Edge 106, Type (0, 1), BuildingBlock: XIVTED_clean_linker_0, # of connection points: 2
#     Edge 107, Type (0, 1), BuildingBlock: XIVTED_clean_linker_0, # of connection points: 2
# Relax obj value: 0.045
# Max RMSD: 0.081
# Mean RMSD: 0.066
data_MOF--net-ptr--node1-GALJAG_clean_sbu_0--node2-NAWXER_clean_linker_0--edge1-XIVTED_clean_linker_0
_symmetry_space_group_name_H-M    P1
_symmetry_Int_Tables_number       1
_symmetry_cell_setting            triclinic
loop_
_symmetry_equiv_pos_as_xyz
'x, y, z'
_cell_length_a     86.487955
_cell_length_b     86.540573
_cell_length_c     67.834506
_cell_angle_alpha  90.096942
_cell_angle_beta   89.962495
_cell_angle_gamma 120.06791
loop_
_atom_site_label
_atom_site_type_symbol
_atom_site_fract_x
_atom_site_fract_y
_atom_site_fract_z
_atom_type_partial_charge
In0 In 0.00177 0.3461 0.00716 0.0
O1 O 0.98469 0.34816 0.03187 0.0
O2 O 0.01225 0.36788 0.03019 0.0
C3 C 0.97976 0.31586 0.98771 0.0
C4 C 0.02462 0.33691 0.02262 0.0
C5 C 0.00515 0.36917 0.97864 0.0
O6 O 0.97489 0.32049 0.00315 0.0
O7 O 0.99566 0.32636 0.98241 0.0
O8 O 0.01791 0.36672 0.98331 0.0
O9 O 0.99104 0.36024 0.98852 0.0
C10 C -0.0024 0.36217 0.03913 0.0
O11 O 0.02975 0.35001 0.01101 0.0
O12 O 0.00805 0.32843 0.02607 0.0
In13 In 0.64586 0.6496 0.00812 0.0
O14 O 0.64665 0.63171 0.03251 0.0
O15 O 0.62144 0.62509 0.02038 0.0
C16 C 0.67788 0.65861 0.99234 0.0
C17 C 0.65122 0.67771 0.03051 0.0
C18 C 0.62411 0.63952 0.97639 0.0
O19 O 0.66726 0.6431 0.99865 0.0
O20 O 0.67247 0.66962 0.99435 0.0
O21 O 0.62111 0.64602 0.99164 0.0
O22 O 0.63806 0.63839 0.97714 0.0
C23 C 0.62995 0.62139 0.03276 0.0
O24 O 0.64645 0.67621 0.01269 0.0
O25 O 0.65308 0.66508 0.03687 0.0
In26 In 0.34478 0.99854 0.01049 0.0
O27 O 0.35077 0.02705 0.00447 0.0
O28 O 0.3295 0.00569 0.98872 0.0
C29 C 0.36478 0.0027 0.04262 0.0
C30 C 0.36318 0.99286 0.98204 0.0
C31 C 0.313 0.97597 0.02684 0.0
O32 O 0.363 0.01535 0.03588 0.0
O33 O 0.3564 0.98819 0.03326 0.0
O34 O 0.32082 0.97067 0.01522 0.0
O35 O 0.32114 0.99259 0.02997 0.0
C36 C 0.33851 0.02227 0.99177 0.0
O37 O 0.34657 0.9826 0.98427 0.0
O38 O 0.37021 0.00571 0.99402 0.0
In39 In 0.00163 0.65607 0.00783 0.0
O40 O 0.01873 0.65427 0.98293 0.0
O41 O 0.99091 0.63517 0.9839 0.0
C42 C 0.02434 0.68609 0.02739 0.0
C43 C 0.97893 0.66506 0.99163 0.0
C44 C 0.99623 0.63146 0.03543 0.0
O45 O 0.02958 0.67992 0.01364 0.0
O46 O 0.00785 0.67716 0.03105 0.0
O47 O 0.98563 0.63738 0.03332 0.0
O48 O 0.00933 0.63795 0.02376 0.0
C49 C 0.00564 0.64071 0.97517 0.0
O50 O 0.97367 0.65169 0.00285 0.0
O51 O 0.99561 0.674 0.98895 0.0
In52 In 0.34647 0.35057 0.00784 0.0
O53 O 0.34621 0.3686 0.98328 0.0
O54 O 0.37128 0.37215 0.99253 0.0
C55 C 0.31451 0.3381 0.0255 0.0
C56 C 0.34218 0.3222 0.98688 0.0
C57 C 0.3667 0.36574 0.03994 0.0
O58 O 0.32046 0.35081 0.01328 0.0
O59 O 0.3245 0.3316 0.02842 0.0
O60 O 0.36742 0.35354 0.03039 0.0
O61 O 0.35599 0.3703 0.03312 0.0
C62 C 0.36297 0.37697 0.98115 0.0
O63 O 0.35199 0.32767 0.00201 0.0
O64 O 0.3347 0.33102 0.98247 0.0
In65 In 0.65069 0.99762 0.00837 0.0
O66 O 0.64721 0.01497 0.03152 0.0
O67 O 0.62611 0.9882 0.02739 0.0
C68 C 0.68271 0.01901 0.99183 0.0
C69 C 0.65798 0.97484 0.02748 0.0
C70 C 0.6302 0.99427 0.97704 0.0
O71 O 0.67661 0.02443 0.00547 0.0
O72 O 0.6728 0.00288 0.98696 0.0
O73 O 0.63043 0.98095 0.9844 0.0
O74 O 0.64007 0.00893 0.98563 0.0
C75 C 0.63182 0.00273 0.03663 0.0
O76 O 0.64861 0.97034 0.01195 0.0
O77 O 0.66362 0.99069 0.03307 0.0
In78 In 0.66281 0.68096 0.34458 0.0
O79 O 0.64158 0.68505 0.36022 0.0
O80 O 0.66552 0.69178 0.37569 0.0
C81 C 0.6399 0.65256 0.32259 0.0
C82 C 0.68624 0.6727 0.36061 0.0
C83 C 0.67557 0.70896 0.3196 0.0
O84 O 0.63686 0.65411 0.34048 0.0
O85 O 0.65425 0.66527 0.31598 0.0
O86 O 0.68152 0.6983 0.31989 0.0
O87 O 0.66353 0.70569 0.3321 0.0
C88 C 0.65063 0.69113 0.37583 0.0
O89 O 0.69085 0.68811 0.35423 0.0
O90 O 0.66988 0.6614 0.35859 0.0
In91 In 0.31699 0.98401 0.34541 0.0
O92 O 0.31439 0.965 0.37026 0.0
O93 O 0.29088 0.96473 0.36053 0.0
C94 C 0.34876 0.99151 0.33019 0.0
C95 C 0.32463 0.01368 0.36599 0.0
C96 C 0.29694 0.97101 0.31258 0.0
O97 O 0.33893 0.97732 0.3396 0.0
O98 O 0.34278 0.00211 0.32896 0.0
O99 O 0.29653 0.98295 0.32297 0.0
O100 O 0.3073 0.96582 0.31884 0.0
C101 C 0.29774 0.95849 0.37217 0.0
O102 O 0.31742 0.0106 0.34915 0.0
O103 O 0.32791 0.0019 0.3722 0.0
In104 In 0.01471 0.33369 0.34334 0.0
O105 O 0.02117 0.36235 0.33734 0.0
O106 O -0.00011 0.34125 0.32137 0.0
C107 C 0.0341 0.33888 0.3763 0.0
C108 C 0.03257 0.32694 0.31507 0.0
C109 C 0.98271 0.31062 0.35891 0.0
O110 O 0.03297 0.35143 0.36818 0.0
O111 O 0.02549 0.32395 0.36779 0.0
O112 O 0.99131 0.30558 0.34817 0.0
O113 O 0.99019 0.32727 0.3616 0.0
C114 C 0.00907 0.35781 0.3245 0.0
O115 O 0.01582 0.31767 0.31688 0.0
O116 O 0.04013 0.33935 0.32749 0.0
In117 In 0.66427 0.98195 0.34416 0.0
O118 O 0.68277 0.98075 0.3208 0.0
O119 O 0.65516 0.96088 0.32038 0.0
C120 C 0.68816 0.01243 0.3624 0.0
C121 C 0.64213 0.99022 0.32502 0.0
C122 C 0.65526 0.95734 0.37303 0.0
O123 O 0.69293 0.00355 0.35179 0.0
O124 O 0.67152 0.00594 0.36372 0.0
O125 O 0.64754 0.96633 0.37101 0.0
O126 O 0.66738 0.96077 0.36061 0.0
C127 C 0.67035 0.96702 0.3125 0.0
O128 O 0.63665 0.97832 0.33821 0.0
O129 O 0.65874 0.9981 0.32187 0.0
In130 In 0.01325 0.67888 0.34358 0.0
O131 O 0.01478 0.69849 0.31995 0.0
O132 O 0.03878 0.6991 0.32835 0.0
C133 C 0.98081 0.66715 0.3597 0.0
C134 C 0.00851 0.65065 0.32203 0.0
C135 C 0.03314 0.69363 0.37604 0.0
O136 O 0.9877 0.68016 0.34787 0.0
O137 O 0.99011 0.65994 0.36297 0.0
O138 O 0.03373 0.68133 0.36658 0.0
O139 O 0.02267 0.69841 0.36902 0.0
C140 C 0.03144 0.70543 0.31754 0.0
O141 O 0.01654 0.65449 0.33842 0.0
O142 O 0.00291 0.66094 0.31677 0.0
In143 In 0.31689 0.33175 0.34488 0.0
O144 O 0.31314 0.30396 0.34938 0.0
O145 O 0.3349 0.32587 0.36391 0.0
C146 C 0.29348 0.32597 0.31569 0.0
C147 C 0.30086 0.33732 0.37607 0.0
C148 C 0.34709 0.35398 0.32546 0.0
O149 O 0.29636 0.31386 0.32182 0.0
O150 O 0.30213 0.34073 0.32453 0.0
O151 O 0.34274 0.35856 0.34129 0.0
O152 O 0.33634 0.33829 0.31975 0.0
C153 C 0.32641 0.30927 0.36075 0.0
O154 O 0.31442 0.34997 0.36786 0.0
O155 O 0.29554 0.32218 0.36848 0.0
In156 In 0.32814 0.01257 0.67845 0.0
O157 O 0.35622 0.01673 0.68336 0.0
O158 O 0.33546 -0.00036 0.70293 0.0
C159 C 0.33367 0.03545 0.64894 0.0
C160 C 0.32031 0.02905 0.70714 0.0
C161 C 0.30671 0.98164 0.65948 0.0
O162 O 0.34564 0.03207 0.65446 0.0
O163 O 0.31908 0.02723 0.65821 0.0
O164 O 0.30107 0.9873 0.67331 0.0
O165 O 0.32304 0.99142 0.65551 0.0
C166 C 0.3517 0.00671 0.69831 0.0
O167 O 0.31038 0.01261 0.70345 0.0
O168 O 0.33404 0.03701 0.69644 0.0
In169 In 0.98271 0.31691 0.67563 0.0
O170 O 0.97949 0.34135 0.68039 0.0
O171 O 0.99472 0.3362 0.70124 0.0
C172 C 0.96166 0.30065 0.64425 0.0
C173 C 0.96507 0.29148 0.70301 0.0
C174 C 0.01478 0.32869 0.65845 0.0
O175 O 0.96188 0.31379 0.6527 0.0
O176 O 0.97183 0.29574 0.65178 0.0
O177 O 0.0093 0.31736 0.67225 0.0
O178 O 0.00428 0.33421 0.65377 0.0
C179 C 0.98852 0.34604 0.69613 0.0
O180 O 0.98057 0.29558 0.69725 0.0
O181 O 0.95859 0.30005 0.69481 0.0
In182 In 0.68256 0.66567 0.67534 0.0
O183 O 0.68782 0.6937 0.66842 0.0
O184 O 0.66544 0.67166 0.65484 0.0
C185 C 0.70493 0.67242 0.70604 0.0
C186 C 0.69871 0.65922 0.64495 0.0
C187 C 0.6519 0.64257 0.69357 0.0
O188 O 0.70082 0.68372 0.70009 0.0
O189 O 0.69784 0.65798 0.69649 0.0
O190 O 0.65999 0.63747 0.68211 0.0
O191 O 0.65915 0.65927 0.69559 0.0
C192 C 0.67468 0.68838 0.65685 0.0
O193 O 0.68326 0.64777 0.65076 0.0
O194 O 0.70584 0.67368 0.65447 0.0
In195 In 0.32962 0.31618 0.67683 0.0
O196 O 0.34837 0.31581 0.65305 0.0
O197 O 0.32072 0.29626 0.65182 0.0
C198 C 0.35418 0.34572 0.696 0.0
C199 C 0.30743 0.32523 0.65924 0.0
C200 C 0.31978 0.29113 0.70535 0.0
O201 O 0.35848 0.33609 0.68606 0.0
O202 O 0.33772 0.34049 0.69608 0.0
O203 O 0.3135 0.30148 0.70439 0.0
O204 O 0.33082 0.29337 0.692 0.0
C205 C 0.33598 0.30248 0.64416 0.0
O206 O 0.3018 0.31166 0.67019 0.0
O207 O 0.32419 0.33429 0.65743 0.0
In208 In 0.68078 0.01441 0.6751 0.0
O209 O 0.68301 0.03276 0.64965 0.0
O210 O 0.70627 0.03196 0.65812 0.0
C211 C 0.64974 0.00764 0.6918 0.0
C212 C 0.6722 0.98406 0.65546 0.0
C213 C 0.70252 0.0289 0.70647 0.0
O214 O 0.65884 0.02112 0.68104 0.0
O215 O 0.65618 0.99749 0.69387 0.0
O216 O 0.70045 0.01489 0.69815 0.0
O217 O 0.69362 0.03533 0.69901 0.0
C218 C 0.6994 0.03836 0.64673 0.0
O219 O 0.6816 0.98855 0.67094 0.0
O220 O 0.66714 0.99477 0.65014 0.0
In221 In 0.9784 0.6654 0.67671 0.0
O222 O 0.97679 0.63841 0.68104 0.0
O223 O 0.992 0.65919 0.70153 0.0
C224 C 0.9552 0.65821 0.64687 0.0
C225 C 0.96144 0.67298 0.70516 0.0
C226 C 0.00975 0.68691 0.65863 0.0
O227 O 0.95725 0.64621 0.65495 0.0
O228 O 0.96474 0.67367 0.65393 0.0
O229 O 0.00443 0.69207 0.67324 0.0
O230 O -0.00065 0.67101 0.65338 0.0
C231 C 0.98637 0.64325 0.69637 0.0
O232 O 0.97606 0.6848 0.69782 0.0
O233 O 0.95545 0.65755 0.69802 0.0
C234 C 0.21385 0.32249 0.12641 0.0
C235 C 0.20953 0.31102 0.11013 0.0
C236 C 0.20043 0.32139 0.13877 0.0
C237 C 0.18247 0.30835 0.13552 0.0
C238 C 0.19159 0.29822 0.10659 0.0
C239 C 0.17819 0.29686 0.11923 0.0
C240 C 0.16796 0.30784 0.14763 0.0
C241 C 0.20293 0.30053 0.19226 0.0
C242 C 0.21053 0.31425 0.20644 0.0
C243 C 0.18958 0.29922 0.17952 0.0
C244 C 0.18368 0.31166 0.18074 0.0
C245 C 0.20449 0.32659 0.20758 0.0
C246 C 0.19121 0.32526 0.19493 0.0
C247 C 0.16896 0.31021 0.16832 0.0
C248 C 0.0986 0.30078 0.19321 0.0
C249 C 0.10491 0.3149 0.20692 0.0
C250 C 0.11033 0.29979 0.17969 0.0
C251 C 0.12851 0.31287 0.17974 0.0
C252 C 0.12296 0.32842 0.2061 0.0
C253 C 0.13464 0.3273 0.19282 0.0
C254 C 0.14169 0.31082 0.16789 0.0
C255 C 0.11312 0.32596 0.12335 0.0
C256 C 0.10395 0.31306 0.10869 0.0
C257 C 0.12452 0.32406 0.13641 0.0
C258 C 0.12692 0.3092 0.13509 0.0
C259 C 0.10613 0.29804 0.10759 0.0
C260 C 0.11767 0.29623 0.12056 0.0
C261 C 0.1405 0.30822 0.14733 0.0
H262 H 0.22757 0.33272 0.12917 0.0
H263 H 0.20413 0.33111 0.1505 0.0
H264 H 0.18797 0.28928 0.09406 0.0
H265 H 0.16442 0.28692 0.11615 0.0
H266 H 0.20732 0.29084 0.19102 0.0
H267 H 0.1837 0.28838 0.16895 0.0
H268 H 0.20976 0.33708 0.21858 0.0
H269 H 0.18675 0.3349 0.1963 0.0
H270 H 0.08481 0.29009 0.19351 0.0
H271 H 0.10539 0.28841 0.16986 0.0
H272 H 0.12819 0.33974 0.21603 0.0
H273 H 0.14862 0.33758 0.19302 0.0
H274 H 0.11161 0.33761 0.12461 0.0
H275 H 0.1319 0.33452 0.14711 0.0
H276 H 0.09934 0.28799 0.09631 0.0
H277 H 0.11956 0.28482 0.11911 0.0
N278 N 0.15365 0.30678 0.138 0.0
N279 N 0.15583 0.31169 0.17753 0.0
C280 C 0.66841 0.88441 0.12717 0.0
C281 C 0.67934 0.89183 0.11055 0.0
C282 C 0.67052 0.87263 0.13934 0.0
C283 C 0.68398 0.86846 0.13548 0.0
C284 C 0.69234 0.88714 0.10621 0.0
C285 C 0.69465 0.87554 0.1186 0.0
C286 C 0.68619 0.85584 0.14824 0.0
C287 C 0.69583 0.90154 0.1892 0.0
C288 C 0.68265 0.89618 0.2039 0.0
C289 C 0.69691 0.88876 0.17747 0.0
C290 C 0.68489 0.87049 0.18042 0.0
C291 C 0.6707 0.87789 0.20672 0.0
C292 C 0.67189 0.8652 0.1952 0.0
C293 C 0.68607 0.85655 0.16903 0.0
C294 C 0.70045 0.79935 0.1969 0.0
C295 C 0.68861 0.79357 0.21302 0.0
C296 C 0.69953 0.81047 0.18249 0.0
C297 C 0.68669 0.81582 0.18399 0.0
C298 C 0.67537 0.79842 0.21393 0.0
C299 C 0.67451 0.8095 0.19967 0.0
C300 C 0.68677 0.82938 0.17074 0.0
C301 C 0.6693 0.78112 0.13227 0.0
C302 C 0.67939 0.78386 0.11505 0.0
C303 C 0.67201 0.79558 0.14393 0.0
C304 C 0.68514 0.81305 0.13885 0.0
C305 C 0.69251 0.80133 0.10995 0.0
C306 C 0.69532 0.81579 0.12173 0.0
C307 C 0.68689 0.82859 0.14995 0.0
H308 H 0.65802 0.88751 0.13058 0.0
H309 H 0.66147 0.86665 0.15164 0.0
H310 H 0.7009 0.89266 0.09343 0.0
H311 H 0.70487 0.87223 0.11511 0.0
H312 H 0.70522 0.91557 0.18675 0.0
H313 H 0.70724 0.89311 0.16634 0.0
H314 H 0.66062 0.87333 0.21816 0.0
H315 H 0.66258 0.85117 0.19783 0.0
H316 H 0.71084 0.79588 0.19584 0.0
H317 H 0.70925 0.81542 0.17067 0.0
H318 H 0.66576 0.79383 0.22587 0.0
H319 H 0.66444 0.8134 0.20108 0.0
H320 H 0.65884 0.76786 0.13635 0.0
H321 H 0.66338 0.79309 0.15652 0.0
H322 H 0.70055 0.80383 0.09682 0.0
H323 H 0.70533 0.82916 0.11733 0.0
N324 N 0.68674 0.84194 0.13952 0.0
N325 N 0.68631 0.84329 0.17937 0.0
C326 C 0.11205 0.78703 0.12942 0.0
C327 C 0.10226 0.78979 0.11471 0.0
C328 C 0.12345 0.801 0.14187 0.0
C329 C 0.12529 0.81799 0.13982 0.0
C330 C 0.10385 0.80671 0.11293 0.0
C331 C 0.11544 0.82074 0.12524 0.0
C332 C 0.13897 0.83326 0.15127 0.0
C333 C 0.09784 0.80015 0.19807 0.0
C334 C 0.10432 0.79289 0.21221 0.0
C335 C 0.10945 0.81263 0.1843 0.0
C336 C 0.12771 0.81808 0.18452 0.0
C337 C 0.1225 0.79789 0.21172 0.0
C338 C 0.13408 0.81048 0.19819 0.0
C339 C 0.14064 0.83281 0.17192 0.0
C340 C 0.20258 0.90565 0.19166 0.0
C341 C 0.21091 0.90042 0.20583 0.0
C342 C 0.18881 0.89285 0.17986 0.0
C343 C 0.18312 0.87463 0.18215 0.0
C344 C 0.20521 0.88218 0.20797 0.0
C345 C 0.1914 0.86944 0.19635 0.0
C346 C 0.16791 0.86068 0.17078 0.0
C347 C 0.21148 0.88779 0.12585 0.0
C348 C 0.20789 0.89685 0.111 0.0
C349 C 0.1981 0.87659 0.13894 0.0
C350 C 0.18087 0.87427 0.13748 0.0
C351 C 0.1907 0.89469 0.10968 0.0
C352 C 0.17723 0.88332 0.12269 0.0
C353 C 0.16633 0.8611 0.15011 0.0
H354 H 0.111 0.7741 0.13119 0.0
H355 H 0.13129 0.79866 0.15264 0.0
H356 H 0.09658 0.80923 0.10159 0.0
H357 H 0.11689 0.83383 0.12322 0.0
H358 H 0.08396 0.79672 0.19809 0.0
H359 H 0.10431 0.81854 0.17404 0.0
H360 H 0.1279 0.79224 0.22198 0.0
H361 H 0.14811 0.81445 0.19854 0.0
H362 H 0.20671 0.91961 0.18971 0.0
H363 H 0.18238 0.89714 0.16926 0.0
H364 H 0.21116 0.8777 0.21897 0.0
H365 H 0.18714 0.85546 0.19849 0.0
H366 H 0.22464 0.8893 0.12729 0.0
H367 H 0.2011 0.86937 0.14989 0.0
H368 H 0.18754 0.90141 0.09825 0.0
H369 H 0.16394 0.88148 0.12113 0.0
N370 N 0.15186 0.84743 0.14115 0.0
N371 N 0.15504 0.84652 0.18083 0.0
C372 C 0.31695 0.10747 0.82695 0.0
C373 C 0.30345 0.09991 0.81262 0.0
C374 C 0.31752 0.12014 0.84021 0.0
C375 C 0.30424 0.12499 0.83978 0.0
C376 C 0.29012 0.10462 0.81226 0.0
C377 C 0.29047 0.11698 0.82576 0.0
C378 C 0.30566 0.13987 0.85199 0.0
C379 C 0.30448 0.09999 0.89549 0.0
C380 C 0.319 0.10675 0.90868 0.0
C381 C 0.30165 0.11153 0.88358 0.0
C382 C 0.31357 0.13002 0.8842 0.0
C383 C 0.33061 0.12532 0.9096 0.0
C384 C 0.32794 0.13679 0.89748 0.0
C385 C 0.31078 0.14265 0.87207 0.0
C386 C 0.3037 0.2061 0.8949 0.0
C387 C 0.31952 0.21573 0.90592 0.0
C388 C 0.30076 0.19133 0.88364 0.0
C389 C 0.31363 0.18599 0.8831 0.0
C390 C 0.33228 0.2102 0.90545 0.0
C391 C 0.3293 0.19541 0.89427 0.0
C392 C 0.31071 0.17024 0.87163 0.0
C393 C 0.31578 0.21047 0.82585 0.0
C394 C 0.30193 0.20417 0.8119 0.0
C395 C 0.31676 0.19871 0.83923 0.0
C396 C 0.3036 0.18051 0.83926 0.0
C397 C 0.28868 0.18605 0.81208 0.0
C398 C 0.2895 0.17436 0.82565 0.0
C399 C 0.30544 0.16741 0.85165 0.0
H400 H 0.32755 0.10426 0.82723 0.0
H401 H 0.32872 0.12661 0.85024 0.0
H402 H 0.27962 0.09899 0.80127 0.0
H403 H 0.2802 0.12064 0.82493 0.0
H404 H 0.29531 0.08578 0.89422 0.0
H405 H 0.29008 0.10595 0.874 0.0
H406 H 0.34166 0.13111 0.91989 0.0
H407 H 0.33717 0.15102 0.89852 0.0
H408 H 0.29346 0.20981 0.89521 0.0
H409 H 0.28836 0.18397 0.87553 0.0
H410 H 0.3447 0.21743 0.91354 0.0
H411 H 0.33937 0.19146 0.89413 0.0
H412 H 0.32635 0.22431 0.82577 0.0
H413 H 0.32821 0.20375 0.84893 0.0
H414 H 0.27786 0.18087 0.80149 0.0
H415 H 0.2793 0.16037 0.8252 0.0
N416 N 0.30308 0.15232 0.84272 0.0
N417 N 0.31319 0.15778 0.88097 0.0
C418 C 0.90186 0.20188 0.89262 0.0
C419 C 0.89569 0.21011 0.90592 0.0
C420 C 0.88981 0.18757 0.88088 0.0
C421 C 0.87141 0.18131 0.88218 0.0
C422 C 0.87725 0.20382 0.90704 0.0
C423 C 0.86525 0.1895 0.89541 0.0
C424 C 0.85828 0.1656 0.87081 0.0
C425 C 0.88736 0.20799 0.82486 0.0
C426 C 0.89582 0.20357 0.80999 0.0
C427 C 0.87603 0.19516 0.8384 0.0
C428 C 0.87311 0.17768 0.83755 0.0
C429 C 0.89316 0.18616 0.8094 0.0
C430 C 0.88181 0.17331 0.82297 0.0
C431 C 0.85953 0.16351 0.85031 0.0
C432 C 0.78642 0.10542 0.82936 0.0
C433 C 0.79045 0.09718 0.81388 0.0
C434 C 0.79984 0.11745 0.84196 0.0
C435 C 0.81754 0.12123 0.83966 0.0
C436 C 0.80811 0.1007 0.81183 0.0
C437 C 0.82153 0.11268 0.82454 0.0
C438 C 0.83217 0.13558 0.85137 0.0
C439 C 0.7973 0.0943 0.89627 0.0
C440 C 0.78878 0.10028 0.90941 0.0
C441 C 0.81096 0.10634 0.88388 0.0
C442 C 0.81633 0.12456 0.88439 0.0
C443 C 0.7943 0.11857 0.90987 0.0
C444 C 0.80801 0.13058 0.89762 0.0
C445 C 0.83107 0.13765 0.87189 0.0
H446 H 0.91595 0.20621 0.8916 0.0
H447 H 0.89484 0.18118 0.87112 0.0
H448 H 0.87205 0.21002 0.91684 0.0
H449 H 0.8511 0.18487 0.89667 0.0
H450 H 0.88922 0.22131 0.82581 0.0
H451 H 0.86908 0.19878 0.84908 0.0
H452 H 0.89929 0.18226 0.79798 0.0
H453 H 0.87954 0.15983 0.82185 0.0
H454 H 0.77294 0.1029 0.83149 0.0
H455 H 0.79642 0.12428 0.853 0.0
H456 H 0.81173 0.09479 0.79991 0.0
H457 H 0.83513 0.1156 0.82227 0.0
H458 H 0.79361 0.08036 0.89576 0.0
H459 H 0.81748 0.10146 0.87411 0.0
H460 H 0.78786 0.12363 0.91951 0.0
H461 H 0.81198 0.1446 0.89828 0.0
N462 N 0.8441 0.1526 0.88073 0.0
N463 N 0.84645 0.14854 0.84143 0.0
C464 C 0.79253 0.69943 0.89765 0.0
C465 C 0.78537 0.68528 0.91128 0.0
C466 C 0.80727 0.70277 0.88604 0.0
C467 C 0.81494 0.69185 0.88769 0.0
C468 C 0.79342 0.67472 0.91321 0.0
C469 C 0.80801 0.67798 0.90156 0.0
C470 C 0.83049 0.69487 0.87564 0.0
C471 C 0.78682 0.6808 0.83085 0.0
C472 C 0.79075 0.69379 0.81627 0.0
C473 C 0.80001 0.68247 0.84396 0.0
C474 C 0.81734 0.6973 0.84298 0.0
C475 C 0.80802 0.70882 0.81558 0.0
C476 C 0.82121 0.71049 0.82873 0.0
C477 C 0.8319 0.69805 0.85513 0.0
C478 C 0.88686 0.68072 0.82952 0.0
C479 C 0.89529 0.69336 0.81444 0.0
C480 C 0.87575 0.68257 0.84309 0.0
C481 C 0.87307 0.69727 0.84208 0.0
C482 C 0.89287 0.70825 0.8137 0.0
C483 C 0.88177 0.71012 0.82732 0.0
C484 C 0.85957 0.69812 0.85471 0.0
C485 C 0.90157 0.70059 0.89604 0.0
C486 C 0.89509 0.68716 0.91056 0.0
C487 C 0.88975 0.70336 0.88454 0.0
C488 C 0.87121 0.69251 0.88705 0.0
C489 C 0.87653 0.67669 0.91333 0.0
C490 C 0.86477 0.67931 0.90171 0.0
C491 C 0.85822 0.69506 0.87527 0.0
H492 H 0.78662 0.7078 0.89576 0.0
H493 H 0.81266 0.71388 0.87586 0.0
H494 H 0.78854 0.66398 0.92386 0.0
H495 H 0.81381 0.66949 0.9033 0.0
H496 H 0.77362 0.66912 0.83186 0.0
H497 H 0.79679 0.67183 0.85442 0.0
H498 H 0.81156 0.71894 0.80435 0.0
H499 H 0.83458 0.72189 0.8275 0.0
H500 H 0.88856 0.66918 0.83061 0.0
H501 H 0.86878 0.67217 0.85393 0.0
H502 H 0.89895 0.71809 0.80211 0.0
H503 H 0.87964 0.7214 0.82606 0.0
H504 H 0.91578 0.70887 0.89342 0.0
H505 H 0.89514 0.71403 0.87379 0.0
H506 H 0.87101 0.66654 0.92467 0.0
H507 H 0.85054 0.67089 0.90416 0.0
N508 N 0.84372 0.69354 0.88481 0.0
N509 N 0.84644 0.69967 0.84553 0.0
C510 C 0.76027 0.63196 0.4552 0.0
C511 C 0.76699 0.64591 0.44133 0.0
C512 C 0.77192 0.62896 0.46672 0.0
C513 C 0.7905 0.64003 0.46477 0.0
C514 C 0.78559 0.65667 0.43914 0.0
C515 C 0.79718 0.65375 0.45071 0.0
C516 C 0.80325 0.6372 0.47659 0.0
C517 C 0.77406 0.65144 0.52162 0.0
C518 C 0.76495 0.63844 0.53619 0.0
C519 C 0.78559 0.64977 0.50851 0.0
C520 C 0.78805 0.63493 0.5095 0.0
C521 C 0.76721 0.62345 0.53695 0.0
C522 C 0.77875 0.62179 0.5238 0.0
C523 C 0.80167 0.63405 0.49712 0.0
C524 C 0.8741 0.64974 0.52084 0.0
C525 C 0.86972 0.63751 0.53638 0.0
C526 C 0.86105 0.64804 0.5075 0.0
C527 C 0.84339 0.63387 0.50918 0.0
C528 C 0.85213 0.62308 0.53776 0.0
C529 C 0.83908 0.62135 0.52435 0.0
C530 C 0.82899 0.63344 0.49696 0.0
C531 C 0.86502 0.62754 0.45293 0.0
C532 C 0.87357 0.64207 0.43986 0.0
C533 C 0.85117 0.62577 0.46512 0.0
C534 C 0.84563 0.63847 0.46444 0.0
C535 C 0.868 0.65479 0.43939 0.0
C536 C 0.85409 0.65292 0.45141 0.0
C537 C 0.8305 0.63654 0.47643 0.0
H538 H 0.74602 0.62345 0.4573 0.0
H539 H 0.7664 0.61794 0.47704 0.0
H540 H 0.79124 0.66727 0.42831 0.0
H541 H 0.81145 0.66234 0.44874 0.0
H542 H 0.77253 0.66308 0.52056 0.0
H543 H 0.793 0.66037 0.498 0.0
H544 H 0.76059 0.61334 0.54818 0.0
H545 H 0.78067 0.61038 0.52503 0.0
H546 H 0.88755 0.66091 0.51925 0.0
H547 H 0.86467 0.65827 0.49641 0.0
H548 H 0.84824 0.61357 0.54971 0.0
H549 H 0.82548 0.61049 0.52614 0.0
H550 H 0.86878 0.61736 0.45347 0.0
H551 H 0.84458 0.61431 0.47479 0.0
H552 H 0.87448 0.66634 0.42985 0.0
H553 H 0.85002 0.66289 0.45066 0.0
N554 N 0.81761 0.63833 0.46713 0.0
N555 N 0.81456 0.63219 0.50645 0.0
C556 C 0.33647 0.21765 0.45721 0.0
C557 C 0.34934 0.22703 0.44262 0.0
C558 C 0.33866 0.20648 0.47028 0.0
C559 C 0.35378 0.20451 0.46904 0.0
C560 C 0.36455 0.22518 0.44149 0.0
C561 C 0.36665 0.21382 0.45448 0.0
C562 C 0.35531 0.19157 0.48182 0.0
C563 C 0.36262 0.23617 0.52276 0.0
C564 C 0.349 0.23074 0.53694 0.0
C565 C 0.36395 0.22348 0.51116 0.0
C566 C 0.35174 0.20518 0.51364 0.0
C567 C 0.33678 0.21243 0.53926 0.0
C568 C 0.33821 0.19981 0.52783 0.0
C569 C 0.3534 0.19137 0.50249 0.0
C570 C 0.3641 0.13206 0.53113 0.0
C571 C 0.34955 0.12384 0.54426 0.0
C572 C 0.36521 0.14473 0.5175 0.0
C573 C 0.35188 0.14945 0.51692 0.0
C574 C 0.33596 0.12822 0.54301 0.0
C575 C 0.33725 0.14105 0.5297 0.0
C576 C 0.35343 0.16387 0.50405 0.0
C577 C 0.33874 0.11706 0.4643 0.0
C578 C 0.35011 0.12026 0.44815 0.0
C579 C 0.34057 0.13118 0.47596 0.0
C580 C 0.35415 0.14878 0.47205 0.0
C581 C 0.36352 0.13786 0.44402 0.0
C582 C 0.36552 0.15198 0.45588 0.0
C583 C 0.3553 0.16399 0.48336 0.0
H584 H 0.32467 0.21893 0.45849 0.0
H585 H 0.32832 0.19906 0.48108 0.0
H586 H 0.37459 0.23216 0.43026 0.0
H587 H 0.37827 0.21225 0.45312 0.0
H588 H 0.37221 0.25019 0.52066 0.0
H589 H 0.37472 0.22793 0.50056 0.0
H590 H 0.32633 0.2078 0.55028 0.0
H591 H 0.32873 0.18577 0.53011 0.0
H592 H 0.37489 0.12916 0.53176 0.0
H593 H 0.37671 0.15123 0.50786 0.0
H594 H 0.32428 0.12183 0.5524 0.0
H595 H 0.32677 0.14444 0.52937 0.0
H596 H 0.32803 0.10368 0.46754 0.0
H597 H 0.33096 0.12833 0.4876 0.0
H598 H 0.37247 0.14068 0.43165 0.0
H599 H 0.37586 0.16546 0.45232 0.0
N600 N 0.35628 0.17794 0.47306 0.0
N601 N 0.35249 0.1775 0.51275 0.0
C602 C 0.78021 0.11727 0.45759 0.0
C603 C 0.77036 0.11984 0.4428 0.0
C604 C 0.79186 0.13144 0.46964 0.0
C605 C 0.79382 0.14844 0.46722 0.0
C606 C 0.77222 0.13683 0.44048 0.0
C607 C 0.784 0.15106 0.45248 0.0
C608 C 0.80736 0.16375 0.47876 0.0
C609 C 0.76619 0.13058 0.52561 0.0
C610 C 0.77261 0.12286 0.53923 0.0
C611 C 0.77778 0.14319 0.51194 0.0
C612 C 0.79595 0.14833 0.5118 0.0
C613 C 0.79069 0.1275 0.5383 0.0
C614 C 0.80225 0.14025 0.52492 0.0
C615 C 0.8089 0.16317 0.49939 0.0
C616 C 0.87093 0.23552 0.52037 0.0
C617 C 0.87876 0.2299 0.53476 0.0
C618 C 0.85733 0.22302 0.50816 0.0
C619 C 0.85136 0.20472 0.5102 0.0
C620 C 0.8728 0.21159 0.53658 0.0
C621 C 0.85922 0.19916 0.52451 0.0
C622 C 0.83615 0.19103 0.4986 0.0
C623 C 0.87991 0.21902 0.45419 0.0
C624 C 0.87639 0.22844 0.43973 0.0
C625 C 0.86644 0.20741 0.46694 0.0
C626 C 0.8492 0.20506 0.46552 0.0
C627 C 0.85917 0.2262 0.43842 0.0
C628 C 0.84561 0.21443 0.4511 0.0
C629 C 0.83465 0.19167 0.47794 0.0
H630 H 0.77897 0.1043 0.45981 0.0
H631 H 0.7997 0.12919 0.48049 0.0
H632 H 0.76493 0.13923 0.42906 0.0
H633 H 0.78555 0.16415 0.45016 0.0
H634 H 0.7524 0.12744 0.52599 0.0
H635 H 0.77272 0.14946 0.50207 0.0
H636 H 0.79602 0.12148 0.54814 0.0
H637 H 0.81623 0.14397 0.52494 0.0
H638 H 0.87527 0.24955 0.51862 0.0
H639 H 0.85122 0.22761 0.49749 0.0
H640 H 0.8783 0.20677 0.54774 0.0
H641 H 0.85474 0.18511 0.52646 0.0
H642 H 0.8931 0.22058 0.45562 0.0
H643 H 0.8694 0.19996 0.47762 0.0
H644 H 0.85607 0.2332 0.42728 0.0
H645 H 0.83231 0.21257 0.44959 0.0
N646 N 0.82026 0.17805 0.46879 0.0
N647 N 0.82322 0.17678 0.50847 0.0
C648 C 0.9748 0.5368 0.15286 0.0
C649 C 0.98807 0.54464 0.13823 0.0
C650 C 0.97509 0.52474 0.16639 0.0
C651 C 0.98866 0.52034 0.16549 0.0
C652 C 0.00186 0.5405 0.13781 0.0
C653 C 0.00202 0.52835 0.15114 0.0
C654 C 0.98853 0.5066 0.17846 0.0
C655 C 0.00197 0.55342 0.21791 0.0
C656 C 0.991 0.54975 0.23455 0.0
C657 C 0.0006 0.53952 0.20617 0.0
C658 C 0.98789 0.5217 0.21053 0.0
C659 C 0.97842 0.53194 0.23904 0.0
C660 C 0.97688 0.51805 0.22712 0.0
C661 C 0.98728 0.50675 0.19922 0.0
C662 C 0.00647 0.45277 0.22488 0.0
C663 C 0.99371 0.44368 0.23967 0.0
C664 C 0.00449 0.4642 0.21196 0.0
C665 C 0.98972 0.46673 0.2136 0.0
C666 C 0.97893 0.44621 0.24127 0.0
C667 C 0.97706 0.45779 0.22846 0.0
C668 C 0.98816 0.47964 0.2008 0.0
C669 C 0.97918 0.43429 0.16036 0.0
C670 C 0.99207 0.43931 0.14538 0.0
C671 C 0.97847 0.44728 0.17202 0.0
C672 C 0.99065 0.46549 0.16889 0.0
C673 C 0.00425 0.45754 0.14239 0.0
C674 C 0.00348 0.47048 0.15394 0.0
C675 C 0.98948 0.47955 0.18008 0.0
H676 H 0.96389 0.53953 0.1535 0.0
H677 H 0.96448 0.51848 0.17717 0.0
H678 H 0.01256 0.54659 0.12712 0.0
H679 H 0.01264 0.52517 0.15024 0.0
H680 H 0.01202 0.56701 0.21436 0.0
H681 H 0.00989 0.54275 0.19408 0.0
H682 H 0.96978 0.52877 0.25176 0.0
H683 H 0.96718 0.50441 0.23098 0.0
H684 H 0.01794 0.45099 0.22326 0.0
H685 H 0.01467 0.47131 0.2009 0.0
H686 H 0.969 0.4395 0.25267 0.0
H687 H 0.96571 0.45978 0.23013 0.0
H688 H 0.96964 0.42034 0.16302 0.0
H689 H 0.96818 0.44311 0.18317 0.0
H690 H 0.01414 0.46187 0.13075 0.0
H691 H 0.01288 0.48444 0.15112 0.0
N692 N 0.98967 0.49306 0.16975 0.0
N693 N 0.98703 0.49317 0.20956 0.0
C694 C 0.45771 0.43 0.16383 0.0
C695 C 0.44991 0.43546 0.14924 0.0
C696 C 0.47149 0.44268 0.17573 0.0
C697 C 0.47768 0.46096 0.17312 0.0
C698 C 0.45613 0.45377 0.1468 0.0
C699 C 0.46992 0.46636 0.15852 0.0
C700 C 0.49289 0.4748 0.1845 0.0
C701 C 0.44784 0.44616 0.22703 0.0
C702 C 0.45167 0.43873 0.24339 0.0
C703 C 0.46154 0.45809 0.2147 0.0
C704 C 0.47928 0.46241 0.21812 0.0
C705 C 0.46947 0.44352 0.24726 0.0
C706 C 0.48317 0.45526 0.23471 0.0
C707 C 0.49395 0.47525 0.20529 0.0
C708 C 0.55259 0.54968 0.22156 0.0
C709 C 0.56004 0.54671 0.23854 0.0
C710 C 0.54058 0.53538 0.20989 0.0
C711 C 0.53602 0.51781 0.21473 0.0
C712 C 0.55545 0.52914 0.24341 0.0
C713 C 0.54352 0.51483 0.23163 0.0
C714 C 0.52202 0.50244 0.20358 0.0
C715 C 0.56478 0.53165 0.15657 0.0
C716 C 0.55888 0.53782 0.14069 0.0
C717 C 0.55265 0.52048 0.17091 0.0
C718 C 0.53451 0.51544 0.16958 0.0
C719 C 0.54084 0.53325 0.13994 0.0
C720 C 0.5288 0.52209 0.15412 0.0
C721 C 0.52093 0.50187 0.1828 0.0
H722 H 0.45317 0.41597 0.16602 0.0
H723 H 0.47751 0.43825 0.1867 0.0
H724 H 0.45064 0.45842 0.13545 0.0
H725 H 0.4746 0.4804 0.15614 0.0
H726 H 0.43427 0.44299 0.22399 0.0
H727 H 0.45823 0.46409 0.20263 0.0
H728 H 0.47275 0.43797 0.2598 0.0
H729 H 0.49679 0.45866 0.23787 0.0
H730 H 0.55558 0.56303 0.21766 0.0
H731 H 0.5344 0.53805 0.1975 0.0
H732 H 0.56104 0.52646 0.25636 0.0
H733 H 0.54001 0.50139 0.23583 0.0
H734 H 0.57858 0.53489 0.15751 0.0
H735 H 0.5573 0.51526 0.18255 0.0
H736 H 0.53593 0.53812 0.1282 0.0
H737 H 0.51488 0.51842 0.15284 0.0
N738 N 0.50639 0.48813 0.17417 0.0
N739 N 0.50854 0.48901 0.21399 0.0
C740 C 0.45589 0.01953 0.22913 0.0
C741 C 0.4489 0.00601 0.24352 0.0
C742 C 0.46953 0.02144 0.21651 0.0
C743 C 0.47619 0.00963 0.21775 0.0
C744 C 0.45585 0.99443 0.24491 0.0
C745 C 0.46931 0.99623 0.23218 0.0
C746 C 0.49107 0.01168 0.2051 0.0
C747 C 0.44669 9e-05 0.16248 0.0
C748 C 0.45072 0.01326 0.1481 0.0
C749 C 0.46009 0.00087 0.17465 0.0
C750 C 0.47775 0.01503 0.17297 0.0
C751 C 0.46839 0.02751 0.14655 0.0
C752 C 0.48178 0.02832 0.15879 0.0
C753 C 0.4923 0.0152 0.18463 0.0
C754 C 0.55026 0.00179 0.15802 0.0
C755 C 0.55864 0.01527 0.14376 0.0
C756 C 0.53814 0.00215 0.17136 0.0
C757 C 0.53431 0.01611 0.1709 0.0
C758 C 0.55503 0.0294 0.14353 0.0
C759 C 0.54288 0.02974 0.15689 0.0
C760 C 0.52014 0.01562 0.18357 0.0
C761 C 0.56256 0.02121 0.22685 0.0
C762 C 0.55682 0.00647 0.23953 0.0
C763 C 0.55033 0.02286 0.21483 0.0
C764 C 0.53216 0.00979 0.21528 0.0
C765 C 0.53863 0.99329 0.23964 0.0
C766 C 0.52643 0.99503 0.22778 0.0
C767 C 0.51875 0.01188 0.20394 0.0
H768 H 0.4508 0.02862 0.22754 0.0
H769 H 0.47498 0.03227 0.20595 0.0
H770 H 0.45111 0.98412 0.25607 0.0
H771 H 0.4744 0.98711 0.23365 0.0
H772 H 0.43321 0.989 0.16417 0.0
H773 H 0.45668 0.99015 0.18504 0.0
H774 H 0.47203 0.03772 0.13543 0.0
H775 H 0.49536 0.03922 0.15702 0.0
H776 H 0.55284 0.99078 0.15866 0.0
H777 H 0.53133 0.99117 0.1816 0.0
H778 H 0.56107 0.03986 0.13257 0.0
H779 H 0.53993 0.04051 0.15608 0.0
H780 H 0.57642 0.03174 0.22659 0.0
H781 H 0.55498 0.03457 0.2056 0.0
H782 H 0.53377 0.98158 0.2489 0.0
H783 H 0.51245 0.9848 0.22836 0.0
N784 N 0.5043 0.01007 0.21384 0.0
N785 N 0.50687 0.01719 0.17474 0.0
C786 C 0.55056 0.00281 0.79001 0.0
C787 C 0.54671 0.99005 0.77516 0.0
C788 C 0.53714 0.00123 0.80272 0.0
C789 C 0.51963 0.98682 0.80082 0.0
C790 C 0.52917 0.97563 0.7733 0.0
C791 C 0.51571 0.97413 0.78592 0.0
C792 C 0.50519 0.98562 0.81349 0.0
C793 C 0.54062 0.97575 0.85449 0.0
C794 C 0.54841 0.98851 0.86963 0.0
C795 C 0.52723 0.97537 0.84256 0.0
C796 C 0.52146 0.98775 0.84558 0.0
C797 C 0.54264 0.00092 0.87248 0.0
C798 C 0.52926 0.00048 0.86064 0.0
C799 C 0.50645 0.98686 0.83422 0.0
C800 C 0.43469 0.97269 0.86134 0.0
C801 C 0.44024 0.98573 0.87626 0.0
C802 C 0.447 0.9731 0.84761 0.0
C803 C 0.46503 0.98657 0.8486 0.0
C804 C 0.45821 -0.00051 0.87669 0.0
C805 C 0.47048 -0.00022 0.86317 0.0
C806 C 0.47866 0.98639 0.83565 0.0
C807 C 0.44567 0.00033 0.79653 0.0
C808 C 0.43843 0.98957 0.77974 0.0
C809 C 0.45819 -0.00114 0.80813 0.0
C810 C 0.46331 0.98621 0.8035 0.0
C811 C 0.44375 0.97715 0.77487 0.0
C812 C 0.45606 0.97547 0.78668 0.0
C813 C 0.47744 0.98529 0.81488 0.0
H814 H 0.56397 0.01401 0.79185 0.0
H815 H 0.54037 0.01142 0.81381 0.0
H816 H 0.5258 0.96571 0.76184 0.0
H817 H 0.50223 0.96306 0.78406 0.0
H818 H 0.54481 0.96604 0.85194 0.0
H819 H 0.52112 0.96515 0.83132 0.0
H820 H 0.54813 0.0107 0.88423 0.0
H821 H 0.52489 0.01004 0.86337 0.0
H822 H 0.421 0.96183 0.86066 0.0
H823 H 0.44258 0.96262 0.83665 0.0
H824 H 0.46289 0.01002 0.88763 0.0
H825 H 0.48431 0.01032 0.86414 0.0
H826 H 0.44204 0.01026 0.80035 0.0
H827 H 0.4642 0.00799 0.82038 0.0
H828 H 0.43833 0.96868 0.762 0.0
H829 H 0.46001 0.96583 0.78259 0.0
N830 N 0.49072 0.98481 0.80463 0.0
N831 N 0.49315 0.98723 0.84445 0.0
C832 C 0.99523 0.55131 0.79505 0.0
C833 C 0.00566 0.55808 0.77797 0.0
C834 C 0.99693 0.53914 0.807 0.0
C835 C 0.00949 0.53389 0.80241 0.0
C836 C 0.01786 0.55246 0.77306 0.0
C837 C 0.01976 0.54048 0.7852 0.0
C838 C 0.01106 0.52057 0.81461 0.0
C839 C 0.02455 0.56691 0.85568 0.0
C840 C 0.01224 0.56242 0.87121 0.0
C841 C 0.02435 0.55353 0.84386 0.0
C842 C 0.01184 0.53547 0.84739 0.0
C843 C -7e-05 0.54433 0.87481 0.0
C844 C -0.00019 0.53101 0.8631 0.0
C845 C 0.01148 0.52098 0.83543 0.0
C846 C 0.02234 0.45966 0.85772 0.0
C847 C 0.01042 0.45308 0.87374 0.0
C848 C 0.02251 0.47257 0.84515 0.0
C849 C 0.01067 0.479 0.84833 0.0
C850 C -0.00125 0.45973 0.87693 0.0
C851 C -0.00108 0.47256 0.86441 0.0
C852 C 0.01092 0.49312 0.83585 0.0
C853 C 0.994 0.4457 0.79601 0.0
C854 C 0.00443 0.44905 0.77895 0.0
C855 C 0.99598 0.45981 0.80784 0.0
C856 C 0.00878 0.47751 0.80314 0.0
C857 C 0.01693 0.46676 0.77401 0.0
C858 C 0.01909 0.48085 0.78599 0.0
C859 C 0.01059 0.49272 0.81501 0.0
H860 H 0.98545 0.55514 0.79893 0.0
H861 H 0.98821 0.53363 0.81964 0.0
H862 H 0.02607 0.5575 0.75996 0.0
H863 H 0.02931 0.53639 0.78116 0.0
H864 H 0.03419 0.58074 0.85258 0.0
H865 H 0.03402 0.55726 0.83206 0.0
H866 H 0.99051 0.54041 0.88689 0.0
H867 H 0.99018 0.51717 0.86623 0.0
H868 H 0.03148 0.4548 0.85486 0.0
H869 H 0.032 0.47765 0.83311 0.0
H870 H 0.98967 0.45526 0.88936 0.0
H871 H 0.98982 0.47748 0.86731 0.0
H872 H 0.98403 0.43218 0.79995 0.0
H873 H 0.98725 0.45685 0.82044 0.0
H874 H 0.02517 0.4697 0.76096 0.0
H875 H 0.02885 0.4944 0.78188 0.0
N876 N 0.0108 0.50654 0.80526 0.0
N877 N 0.01127 0.50719 0.84517 0.0
C878 C 0.53823 0.56741 0.78945 0.0
C879 C 0.54598 0.56064 0.77627 0.0
C880 C 0.52374 0.55588 0.80124 0.0
C881 C 0.51697 0.53736 0.80053 0.0
C882 C 0.53886 0.54205 0.77526 0.0
C883 C 0.52457 0.53058 0.78726 0.0
C884 C 0.50141 0.52476 0.8126 0.0
C885 C 0.54268 0.55899 0.85811 0.0
C886 C 0.53785 0.56942 0.86972 0.0
C887 C 0.53025 0.54576 0.84561 0.0
C888 C 0.51273 0.54268 0.8444 0.0
C889 C 0.52033 0.56644 0.86822 0.0
C890 C 0.50787 0.55309 0.85582 0.0
C891 C 0.49908 0.52767 0.8326 0.0
C892 C 0.43945 0.45681 0.85963 0.0
C893 C 0.43198 0.46302 0.87377 0.0
C894 C 0.45201 0.46863 0.84612 0.0
C895 C 0.45686 0.48677 0.84607 0.0
C896 C 0.43677 0.4811 0.87373 0.0
C897 C 0.44903 0.49283 0.85996 0.0
C898 C 0.4715 0.49994 0.83337 0.0
C899 C 0.43083 0.45982 0.79112 0.0
C900 C 0.4374 0.45149 0.77848 0.0
C901 C 0.44253 0.4746 0.8025 0.0
C902 C 0.46101 0.48111 0.80184 0.0
C903 C 0.45595 0.45829 0.77761 0.0
C904 C 0.46759 0.47291 0.78915 0.0
C905 C 0.47381 0.49701 0.81331 0.0
H906 H 0.54337 0.58163 0.79077 0.0
H907 H 0.51774 0.5615 0.81074 0.0
H908 H 0.54413 0.53626 0.76498 0.0
H909 H 0.51945 0.51633 0.78615 0.0
H910 H 0.5559 0.56059 0.85917 0.0
H911 H 0.53417 0.53756 0.83732 0.0
H912 H 0.51619 0.57434 0.87671 0.0
H913 H 0.49437 0.55083 0.85521 0.0
H914 H 0.4362 0.44298 0.85965 0.0
H915 H 0.45836 0.46367 0.83622 0.0
H916 H 0.43121 0.48619 0.88453 0.0
H917 H 0.45271 0.50677 0.86045 0.0
H918 H 0.41663 0.4549 0.79229 0.0
H919 H 0.43711 0.48099 0.8117 0.0
H920 H 0.46157 0.45254 0.76776 0.0
H921 H 0.48181 0.47783 0.78813 0.0
N922 N 0.4887 0.50953 0.80384 0.0
N923 N 0.4842 0.51522 0.8421 0.0
C924 C 0.64836 0.77201 0.49292 0.0
C925 C 0.63323 0.76153 0.48113 0.0
C926 C 0.64891 0.7851 0.50545 0.0
C927 C 0.63433 0.78796 0.50652 0.0
C928 C 0.61859 0.76436 0.48241 0.0
C929 C 0.61922 0.77755 0.49485 0.0
C930 C 0.63534 0.80266 0.51859 0.0
C931 C 0.63497 0.76253 0.56102 0.0
C932 C 0.64938 0.76934 0.57435 0.0
C933 C 0.63185 0.77405 0.54943 0.0
C934 C 0.64336 0.79262 0.55053 0.0
C935 C 0.66059 0.78796 0.57574 0.0
C936 C 0.65762 0.79942 0.56395 0.0
C937 C 0.64026 0.80522 0.5387 0.0
C938 C 0.63233 0.86803 0.56237 0.0
C939 C 0.64757 0.87698 0.57444 0.0
C940 C 0.62983 0.85372 0.55049 0.0
C941 C 0.64259 0.84822 0.55035 0.0
C942 C 0.66025 0.87135 0.57426 0.0
C943 C 0.65772 0.85706 0.56245 0.0
C944 C 0.63998 0.83271 0.53856 0.0
C945 C 0.64708 0.87405 0.49337 0.0
C946 C 0.63403 0.86821 0.47853 0.0
C947 C 0.64726 0.86188 0.50677 0.0
C948 C 0.63403 0.84372 0.50597 0.0
C949 C 0.62072 0.85013 0.47782 0.0
C950 C 0.6207 0.83802 0.49144 0.0
C951 C 0.63518 0.83022 0.51839 0.0
H952 H 0.66004 0.77052 0.49203 0.0
H953 H 0.66091 0.7933 0.51393 0.0
H954 H 0.60665 0.75643 0.47374 0.0
H955 H 0.60788 0.77966 0.49536 0.0
H956 H 0.62609 0.74829 0.55942 0.0
H957 H 0.62032 0.76839 0.5398 0.0
H958 H 0.67154 0.79377 0.58615 0.0
H959 H 0.66654 0.81369 0.56535 0.0
H960 H 0.62217 0.87184 0.56239 0.0
H961 H 0.61782 0.8468 0.54166 0.0
H962 H 0.67226 0.8781 0.58312 0.0
H963 H 0.66771 0.853 0.56263 0.0
H964 H 0.65768 0.88787 0.49397 0.0
H965 H 0.65821 0.86661 0.51714 0.0
H966 H 0.61052 0.8453 0.46649 0.0
H967 H 0.61048 0.82408 0.49031 0.0
N968 N 0.63292 0.8152 0.50931 0.0
N969 N 0.6424 0.82016 0.54781 0.0
C970 C 0.1238 0.76164 0.49867 0.0
C971 C 0.11562 0.76679 0.48421 0.0
C972 C 0.1374 0.77452 0.51056 0.0
C973 C 0.14304 0.79271 0.50808 0.0
C974 C 0.12134 0.785 0.48182 0.0
C975 C 0.13498 0.79781 0.49354 0.0
C976 C 0.15788 0.80672 0.51974 0.0
C977 C 0.11239 0.77671 0.56117 0.0
C978 C 0.11608 0.76919 0.57753 0.0
C979 C 0.12622 0.78901 0.54925 0.0
C980 C 0.144 0.79359 0.55305 0.0
C981 C 0.13388 0.77426 0.58185 0.0
C982 C 0.14773 0.78635 0.56967 0.0
C983 C 0.15877 0.80676 0.54053 0.0
C984 C 0.2189 0.8808 0.55831 0.0
C985 C 0.22599 0.87705 0.57502 0.0
C986 C 0.20625 0.86696 0.5466 0.0
C987 C 0.20089 0.84909 0.551 0.0
C988 C 0.22042 0.85922 0.57968 0.0
C989 C 0.20801 0.84537 0.56774 0.0
C990 C 0.18667 0.83418 0.53946 0.0
C991 C 0.22882 0.86504 0.4921 0.0
C992 C 0.22283 0.87277 0.47796 0.0
C993 C 0.21693 0.85291 0.50596 0.0
C994 C 0.1989 0.84835 0.50585 0.0
C995 C 0.20489 0.86859 0.47851 0.0
C996 C 0.19304 0.85638 0.49213 0.0
C997 C 0.18557 0.83417 0.51868 0.0
H998 H 0.11964 0.74769 0.5008 0.0
H999 H 0.14367 0.77033 0.52148 0.0
H1000 H 0.11553 0.7894 0.47058 0.0
H1001 H 0.13924 0.81177 0.49126 0.0
H1002 H 0.0988 0.77332 0.55781 0.0
H1003 H 0.12298 0.79508 0.5372 0.0
H1004 H 0.13704 0.76867 0.59445 0.0
H1005 H 0.16136 0.78995 0.57314 0.0
H1006 H 0.2227 0.89444 0.55467 0.0
H1007 H 0.20032 0.87029 0.53448 0.0
H1008 H 0.2257 0.85601 0.59253 0.0
H1009 H 0.20387 0.8317 0.57166 0.0
H1010 H 0.24251 0.86785 0.49202 0.0
H1011 H 0.22164 0.84666 0.5163 0.0
H1012 H 0.19989 0.87463 0.46825 0.0
H1013 H 0.17918 0.85307 0.49186 0.0
N1014 N 0.17123 0.82048 0.50971 0.0
N1015 N 0.17323 0.8204 0.54955 0.0
C1016 C 0.2341 0.36495 0.49652 0.0
C1017 C 0.22814 0.35207 0.48142 0.0
C1018 C 0.2218 0.3663 0.5088 0.0
C1019 C 0.20336 0.35478 0.50617 0.0
C1020 C 0.20968 0.34065 0.47882 0.0
C1021 C 0.19745 0.34205 0.491 0.0
C1022 C 0.18996 0.3563 0.51835 0.0
C1023 C 0.21694 0.33736 0.56067 0.0
C1024 C 0.22651 0.34956 0.5758 0.0
C1025 C 0.20562 0.34013 0.54839 0.0
C1026 C 0.20368 0.35517 0.55098 0.0
C1027 C 0.22468 0.3647 0.57827 0.0
C1028 C 0.21321 0.36738 0.56607 0.0
C1029 C 0.19058 0.35731 0.53912 0.0
C1030 C 0.11698 0.34237 0.56001 0.0
C1031 C 0.12093 0.35337 0.57667 0.0
C1032 C 0.13066 0.34385 0.54782 0.0
C1033 C 0.14854 0.3568 0.55165 0.0
C1034 C 0.13881 0.36597 0.58086 0.0
C1035 C 0.15249 0.3677 0.56842 0.0
C1036 C 0.16327 0.35795 0.53938 0.0
C1037 C 0.1283 0.3673 0.49702 0.0
C1038 C 0.12044 0.35398 0.48245 0.0
C1039 C 0.14204 0.3684 0.50894 0.0
C1040 C 0.14809 0.35617 0.50647 0.0
C1041 C 0.12674 0.34196 0.47991 0.0
C1042 C 0.14044 0.3431 0.49172 0.0
C1043 C 0.16273 0.35702 0.51855 0.0
H1044 H 0.24824 0.37393 0.49887 0.0
H1045 H 0.22669 0.3765 0.52013 0.0
H1046 H 0.20464 0.33081 0.4671 0.0
H1047 H 0.1833 0.33313 0.48855 0.0
H1048 H 0.21817 0.32563 0.55837 0.0
H1049 H 0.19805 0.33029 0.53717 0.0
H1050 H 0.23176 0.37421 0.58995 0.0
H1051 H 0.21168 0.37892 0.56848 0.0
H1052 H 0.10332 0.33228 0.55672 0.0
H1053 H 0.12723 0.33459 0.53565 0.0
H1054 H 0.14218 0.37458 0.59365 0.0
H1055 H 0.16619 0.37753 0.57193 0.0
H1056 H 0.12374 0.37676 0.49929 0.0
H1057 H 0.148 0.37883 0.51998 0.0
H1058 H 0.12124 0.33178 0.46856 0.0
H1059 H 0.145 0.33363 0.48941 0.0
N1060 N 0.17605 0.35615 0.50893 0.0
N1061 N 0.17728 0.35821 0.54881 0.0
H1062 H 0.96714 0.35592 0.05875 0.0
H1063 H 0.02142 0.43801 0.13281 0.0
H1064 H 0.02449 0.38969 0.05918 0.0
H1065 H 0.96393 0.40987 0.12819 0.0
H1066 H 0.02241 0.41766 0.10863 0.0
H1067 H 0.96529 0.37295 0.08679 0.0
C1068 C 0.97932 0.36683 0.06481 0.0
C1069 C 0.99598 0.3715 0.05656 0.0
C1070 C 0.00954 0.41584 0.11295 0.0
C1071 C 0.994 0.3909 0.08853 0.0
C1072 C 0.00899 0.42749 0.12673 0.0
C1073 C 0.99259 0.42578 0.13234 0.0
C1074 C 0.99358 0.40233 0.10461 0.0
C1075 C 0.97686 0.41165 0.12431 0.0
C1076 C 0.97827 0.37654 0.08077 0.0
C1077 C 0.01135 0.38571 0.06497 0.0
N1078 N 0.97775 0.40055 0.1107 0.0
N1079 N 0.00998 0.39491 0.08043 0.0
H1080 H 0.5957 0.59385 0.03144 0.0
H1081 H 0.59383 0.56525 0.14309 0.0
H1082 H 0.64328 0.61638 0.0673 0.0
H1083 H 0.55187 0.53451 0.1012 0.0
H1084 H 0.61259 0.58398 0.11594 0.0
H1085 H 0.57961 0.57187 0.05712 0.0
C1086 C 0.6028 0.59404 0.04468 0.0
C1087 C 0.6208 0.60696 0.04732 0.0
C1088 C 0.59932 0.57303 0.11272 0.0
C1089 C 0.60242 0.582 0.07695 0.0
C1090 C 0.58863 0.56232 0.12819 0.0
C1091 C 0.57112 0.54849 0.12447 0.0
C1092 C 0.59239 0.5699 0.09347 0.0
C1093 C 0.56508 0.54533 0.10487 0.0
C1094 C 0.59362 0.58148 0.05934 0.0
C1095 C 0.62938 0.6066 0.06472 0.0
N1096 N 0.57561 0.55604 0.09018 0.0
N1097 N 0.62005 0.59444 0.07903 0.0
H1098 H 0.38694 0.03306 0.06368 0.0
H1099 H 0.42479 0.98295 0.13018 0.0
H1100 H 0.3688 0.97672 0.06023 0.0
H1101 H 0.44499 0.03972 0.13364 0.0
H1102 H 0.4028 0.98039 0.10609 0.0
H1103 H 0.40703 0.0358 0.09071 0.0
C1104 C 0.38711 0.02127 0.06869 0.0
C1105 C 0.37626 0.00466 0.05965 0.0
C1106 C 0.41197 0.99342 0.11216 0.0
C1107 C 0.39914 0.00767 0.09044 0.0
C1108 C 0.42448 0.99487 0.12607 0.0
C1109 C 0.43678 0.01158 0.13402 0.0
C1110 C 0.41172 0.00878 0.10601 0.0
C1111 C 0.43591 0.0266 0.12774 0.0
C1112 C 0.39858 0.02284 0.08408 0.0
C1113 C 0.37698 0.9898 0.0667 0.0
N1114 N 0.42363 0.02485 0.11407 0.0
N1115 N 0.38825 0.99168 0.0816 0.0
H1116 H 0.3992 0.00802 0.98085 0.0
H1117 H 0.40461 0.97579 0.8727 0.0
H1118 H 0.3515 0.97212 0.94855 0.0
H1119 H 0.44712 0.99332 0.91549 0.0
H1120 H 0.3849 0.97584 0.89874 0.0
H1121 H 0.4172 0.00483 0.9553 0.0
C1122 C 0.39251 -0.00058 0.96835 0.0
C1123 C 0.37385 0.99031 0.96678 0.0
C1124 C 0.39854 0.97958 0.90235 0.0
C1125 C 0.39441 0.9867 0.93734 0.0
C1126 C 0.40978 0.97952 0.88754 0.0
C1127 C 0.42767 0.98483 0.8918 0.0
C1128 C 0.4053 0.98514 0.92146 0.0
C1129 C 0.43363 0.98963 0.91131 0.0
C1130 C 0.40279 0.99755 0.9538 0.0
C1131 C 0.36587 0.97931 0.9503 0.0
N1132 N 0.42254 0.98981 0.92532 0.0
N1133 N 0.37623 0.97791 0.93607 0.0
H1134 H 0.97816 0.37321 0.964 0.0
H1135 H 0.03899 0.45124 0.88883 0.0
H1136 H 0.03442 0.39218 0.95658 0.0
H1137 H 0.98136 0.42424 0.88996 0.0
H1138 H 0.03811 0.43018 0.91355 0.0
H1139 H 0.9796 0.39266 0.93734 0.0
C1140 C 0.99085 0.38151 0.95676 0.0
C1141 C 0.00621 0.38112 0.96254 0.0
C1142 C 0.02567 0.42883 0.90828 0.0
C1143 C 0.00797 0.40349 0.93188 0.0
C1144 C 0.02615 0.44078 0.89409 0.0
C1145 C 0.01022 0.43962 0.88745 0.0
C1146 C 0.00916 0.41571 0.9159 0.0
C1147 C 0.99399 0.42589 0.89494 0.0
C1148 C 0.99166 0.39258 0.94145 0.0
C1149 C 0.02228 0.39211 0.95256 0.0
N1150 N 0.9939 0.41458 0.90882 0.0
N1151 N 0.02277 0.40294 0.93773 0.0
H1152 H 0.58934 0.63197 0.97453 0.0
H1153 H 0.57412 0.59153 0.86539 0.0
H1154 H 0.63065 0.63085 0.93994 0.0
H1155 H 0.53118 0.57754 0.90685 0.0
H1156 H 0.59538 0.61104 0.89029 0.0
H1157 H 0.56825 0.61721 0.94734 0.0
C1158 C 0.59402 0.62884 0.96112 0.0
C1159 C 0.61171 0.63249 0.9595 0.0
C1160 C 0.58127 0.60378 0.89385 0.0
C1161 C 0.58777 0.61572 0.92845 0.0
C1162 C 0.56912 0.59255 0.87968 0.0
C1163 C 0.55079 0.58266 0.88403 0.0
C1164 C 0.57509 0.60527 0.9125 0.0
C1165 C 0.54512 0.58497 0.90269 0.0
C1166 C 0.58198 0.62036 0.94567 0.0
C1167 C 0.61708 0.62813 0.94183 0.0
N1168 N 0.55723 0.59595 0.91626 0.0
N1169 N 0.60515 0.61993 0.92702 0.0
H1170 H 0.97851 0.61493 0.95368 0.0
H1171 H 0.04094 0.5921 0.88741 0.0
H1172 H 0.03606 0.64518 0.95687 0.0
H1173 H 0.98339 0.56447 0.88398 0.0
H1174 H 0.04001 0.61326 0.91084 0.0
H1175 H 0.98056 0.59786 0.92633 0.0
C1176 C 0.99162 0.61804 0.94853 0.0
C1177 C 0.00715 0.6314 0.95765 0.0
C1178 C 0.02761 0.60264 0.90483 0.0
C1179 C 0.00962 0.61174 0.92628 0.0
C1180 C 0.02814 0.59063 0.89139 0.0
C1181 C 0.0122 0.57638 0.88392 0.0
C1182 C 0.01103 0.60038 0.91077 0.0
C1183 C 0.99598 0.57503 0.88967 0.0
C1184 C 0.99279 0.60828 0.93287 0.0
C1185 C 0.02377 0.63494 0.95026 0.0
N1186 N 0.99583 0.58678 0.9028 0.0
N1187 N 0.02458 0.62504 0.93508 0.0
H1188 H 0.39757 0.40383 0.98155 0.0
H1189 H 0.40167 0.43038 0.86977 0.0
H1190 H 0.34957 0.38139 0.9464 0.0
H1191 H 0.43614 0.46831 0.91339 0.0
H1192 H 0.38362 0.41008 0.89645 0.0
H1193 H 0.41349 0.42571 0.95551 0.0
C1194 C 0.39038 0.40358 0.96836 0.0
C1195 C 0.37226 0.39085 0.96607 0.0
C1196 C 0.39504 0.42293 0.90011 0.0
C1197 C 0.39042 0.41553 0.93618 0.0
C1198 C 0.40535 0.43442 0.88496 0.0
C1199 C 0.42033 0.45099 0.88948 0.0
C1200 C 0.40009 0.42791 0.91981 0.0
C1201 C 0.42459 0.45569 0.90935 0.0
C1202 C 0.39944 0.41608 0.95358 0.0
C1203 C 0.36354 0.39108 0.94873 0.0
N1204 N 0.41465 0.4441 0.9238 0.0
N1205 N 0.37277 0.40311 0.93427 0.0
H1206 H 0.63093 0.02174 0.95695 0.0
H1207 H 0.54869 0.95987 0.88668 0.0
H1208 H 0.60484 0.96421 0.95774 0.0
H1209 H 0.57902 0.01738 0.88327 0.0
H1210 H 0.56977 0.96075 0.91138 0.0
H1211 H 0.6125 0.02004 0.92904 0.0
C1212 C 0.62131 0.00872 0.9512 0.0
C1213 C 0.61933 0.99308 0.95974 0.0
C1214 C 0.57187 0.97315 0.9051 0.0
C1215 C 0.59807 0.99101 0.92769 0.0
C1216 C 0.55992 0.97266 0.89091 0.0
C1217 C 0.56201 0.98859 0.88304 0.0
C1218 C 0.58598 0.9897 0.91146 0.0
C1219 C 0.5767 0.00479 0.88922 0.0
C1220 C 0.6108 0.00775 0.9352 0.0
C1221 C 0.60674 0.97659 0.9516 0.0
N1222 N 0.58802 0.00492 0.90313 0.0
N1223 N 0.59647 0.97596 0.93607 0.0
H1224 H 0.59942 0.97753 0.05066 0.0
H1225 H 0.59051 0.04202 0.12893 0.0
H1226 H 0.64016 0.03269 0.05853 0.0
H1227 H 0.55301 0.98559 0.12347 0.0
H1228 H 0.6087 0.03942 0.10282 0.0
H1229 H 0.58203 0.98077 0.07691 0.0
C1230 C 0.6047 0.99036 0.05792 0.0
C1231 C 0.62126 0.00487 0.05241 0.0
C1232 C 0.59653 0.02761 0.10741 0.0
C1233 C 0.60137 0.00869 0.08259 0.0
C1234 C 0.58611 0.0291 0.12225 0.0
C1235 C 0.57025 0.01399 0.12846 0.0
C1236 C 0.59096 0.01092 0.09864 0.0
C1237 C 0.56527 0.99755 0.1194 0.0
C1238 C 0.59477 0.9922 0.07295 0.0
C1239 C 0.62745 0.02117 0.06234 0.0
N1240 N 0.57555 0.99648 0.10495 0.0
N1241 N 0.61748 0.02266 0.07697 0.0
H1242 H 0.01234 0.61147 0.03631 0.0
H1243 H 0.97777 0.56997 0.1425 0.0
H1244 H 0.97464 0.62085 0.06823 0.0
H1245 H 0.9967 0.54672 0.09912 0.0
H1246 H 0.97821 0.59039 0.11717 0.0
H1247 H 0.00903 0.58967 0.0611 0.0
C1248 C 0.00334 0.60891 0.04856 0.0
C1249 C 0.99375 0.61795 0.05025 0.0
C1250 C 0.98218 0.58074 0.11327 0.0
C1251 C 0.98998 0.59309 0.0788 0.0
C1252 C 0.98189 0.56904 0.12767 0.0
C1253 C 0.98745 0.55672 0.12305 0.0
C1254 C 0.98824 0.58022 0.09421 0.0
C1255 C 0.99278 0.55627 0.10359 0.0
C1256 C 0.00139 0.59641 0.06267 0.0
C1257 C 0.98222 0.61409 0.06639 0.0
N1258 N 0.99319 0.56793 0.08999 0.0
N1259 N 0.98075 0.60201 0.0802 0.0
H1260 H 0.36517 0.39013 0.064 0.0
H1261 H 0.44868 0.40686 0.13014 0.0
H1262 H 0.39285 0.36065 0.0563 0.0
H1263 H 0.41917 0.43449 0.13784 0.0
H1264 H 0.42706 0.38792 0.10502 0.0
H1265 H 0.38372 0.40494 0.09265 0.0
C1266 C 0.37515 0.38675 0.06838 0.0
C1267 C 0.37757 0.37424 0.05768 0.0
C1268 C 0.42524 0.39802 0.11235 0.0
C1269 C 0.39894 0.3912 0.09055 0.0
C1270 C 0.4375 0.40874 0.12677 0.0
C1271 C 0.43581 0.42239 0.13592 0.0
C1272 C 0.41122 0.40099 0.10709 0.0
C1273 C 0.42116 0.42435 0.13089 0.0
C1274 C 0.38573 0.39518 0.08479 0.0
C1275 C 0.39062 0.37028 0.06411 0.0
N1276 N 0.40953 0.41387 0.11673 0.0
N1277 N 0.40092 0.37883 0.08008 0.0
H1278 H 0.6238 0.69924 0.37666 0.0
H1279 H 0.64732 0.73949 0.48601 0.0
H1280 H 0.66501 0.69947 0.41269 0.0
H1281 H 0.61899 0.75344 0.44376 0.0
H1282 H 0.64935 0.71995 0.4614 0.0
H1283 H 0.61717 0.71413 0.40345 0.0
C1284 C 0.63128 0.70221 0.3903 0.0
C1285 C 0.64506 0.69825 0.39245 0.0
C1286 C 0.64259 0.72721 0.45759 0.0
C1287 C 0.63756 0.7152 0.42303 0.0
C1288 C 0.6415 0.73845 0.47159 0.0
C1289 C 0.63315 0.74834 0.46694 0.0
C1290 C 0.63518 0.7257 0.43879 0.0
C1291 C 0.62544 0.74602 0.44813 0.0
C1292 C 0.62755 0.71076 0.40552 0.0
C1293 C 0.65437 0.70241 0.41039 0.0
N1294 N 0.62672 0.73502 0.43473 0.0
N1295 N 0.65049 0.71071 0.42496 0.0
H1296 H 0.26155 0.93787 0.37398 0.0
H1297 H 0.25863 0.89823 0.48047 0.0
H1298 H 0.30967 0.94852 0.4045 0.0
H1299 H 0.21463 0.87431 0.43932 0.0
H1300 H 0.27754 0.91833 0.45427 0.0
H1301 H 0.24386 0.91629 0.39945 0.0
C1302 C 0.26839 0.93562 0.38604 0.0
C1303 C 0.28708 0.94496 0.38716 0.0
C1304 C 0.26375 0.90861 0.45104 0.0
C1305 C 0.26692 0.92041 0.41646 0.0
C1306 C 0.25295 0.89709 0.46595 0.0
C1307 C 0.23489 0.88468 0.46222 0.0
C1308 C 0.25638 0.9078 0.43236 0.0
C1309 C 0.22829 0.88396 0.44311 0.0
C1310 C 0.25829 0.92327 0.40054 0.0
C1311 C 0.29526 0.94152 0.40309 0.0
N1312 N 0.23897 0.89543 0.429 0.0
N1313 N 0.28512 0.9296 0.41725 0.0
H1314 H 0.03482 0.31309 0.39842 0.0
H1315 H 0.11797 0.38101 0.46418 0.0
H1316 H 0.05826 0.37026 0.39438 0.0
H1317 H 0.08994 0.32377 0.47123 0.0
H1318 H 0.09538 0.37783 0.44016 0.0
H1319 H 0.05413 0.3171 0.42637 0.0
C1320 C 0.044 0.32651 0.40349 0.0
C1321 C 0.04503 0.34137 0.39399 0.0
C1322 C 0.0941 0.36599 0.4471 0.0
C1323 C 0.06735 0.34612 0.42601 0.0
C1324 C 0.10694 0.36781 0.46088 0.0
C1325 C 0.10596 0.35261 0.46953 0.0
C1326 C 0.08024 0.34886 0.44195 0.0
C1327 C 0.09144 0.33582 0.46462 0.0
C1328 C 0.05503 0.32881 0.4195 0.0
C1329 C 0.0571 0.35845 0.40128 0.0
N1330 N 0.07926 0.3344 0.45108 0.0
N1331 N 0.06792 0.36038 0.41678 0.0
H1332 H 0.0685 0.34093 0.31303 0.0
H1333 H 0.06927 0.30525 0.2049 0.0
H1334 H 0.01971 0.30622 0.28175 0.0
H1335 H 0.11371 0.32485 0.24537 0.0
H1336 H 0.05084 0.30678 0.23153 0.0
H1337 H 0.08547 0.33689 0.28687 0.0
C1338 C 0.06135 0.33241 0.30064 0.0
C1339 C 0.04268 0.32389 0.29953 0.0
C1340 C 0.06463 0.31069 0.23451 0.0
C1341 C 0.06205 0.3193 0.2694 0.0
C1342 C 0.07514 0.30979 0.21935 0.0
C1343 C 0.09318 0.31519 0.22278 0.0
C1344 C 0.07226 0.31714 0.25313 0.0
C1345 C 0.10006 0.32103 0.24181 0.0
C1346 C 0.07104 0.33006 0.28573 0.0
C1347 C 0.0341 0.31297 0.28316 0.0
N1348 N 0.08965 0.32195 0.25617 0.0
N1349 N 0.04388 0.31107 0.26861 0.0
H1350 H 0.69407 0.71346 0.28525 0.0
H1351 H 0.68596 0.79784 0.25249 0.0
H1352 H 0.66944 0.73686 0.32039 0.0
H1353 H 0.69519 0.76555 0.21085 0.0
H1354 H 0.68568 0.7789 0.27914 0.0
H1355 H 0.70024 0.73575 0.25949 0.0
C1356 C 0.69019 0.72344 0.28764 0.0
C1357 C 0.68114 0.7233 0.30488 0.0
C1358 C 0.68783 0.77597 0.26419 0.0
C1359 C 0.68817 0.7487 0.27566 0.0
C1360 C 0.68791 0.78673 0.24894 0.0
C1361 C 0.6902 0.78304 0.22934 0.0
C1362 C 0.69016 0.76141 0.25992 0.0
C1363 C 0.69329 0.76882 0.22573 0.0
C1364 C 0.69363 0.73606 0.27293 0.0
C1365 C 0.67634 0.73643 0.30725 0.0
N1366 N 0.69302 0.75839 0.24089 0.0
N1367 N 0.67988 0.74857 0.29279 0.0
H1368 H 0.29922 0.94851 0.28637 0.0
H1369 H 0.21182 0.92853 0.22578 0.0
H1370 H 0.26956 0.97538 0.29833 0.0
H1371 H 0.24242 0.90235 0.21567 0.0
H1372 H 0.23417 0.94807 0.25004 0.0
H1373 H 0.2799 0.93367 0.25831 0.0
C1374 C 0.28865 0.95135 0.28302 0.0
C1375 C 0.28589 0.96308 0.2948 0.0
C1376 C 0.23605 0.93815 0.24238 0.0
C1377 C 0.26353 0.94599 0.26261 0.0
C1378 C 0.22337 0.92708 0.22846 0.0
C1379 C 0.22519 0.91368 0.21886 0.0
C1380 C 0.25064 0.9358 0.24665 0.0
C1381 C 0.24033 0.91229 0.22298 0.0
C1382 C 0.2776 0.94287 0.26695 0.0
C1383 C 0.27208 0.96636 0.28965 0.0
N1384 N 0.25238 0.92311 0.23663 0.0
N1385 N 0.26129 0.95773 0.274 0.0
H1386 H 0.70198 0.97471 0.29465 0.0
H1387 H 0.65269 0.89707 0.2144 0.0
H1388 H 0.64485 0.94034 0.29018 0.0
H1389 H 0.70979 0.92508 0.22297 0.0
H1390 H 0.65018 0.91612 0.23917 0.0
H1391 H 0.70568 0.95962 0.26584 0.0
C1392 C 0.69024 0.96406 0.28756 0.0
C1393 C 0.67309 0.95866 0.29488 0.0
C1394 C 0.6633 0.91822 0.23559 0.0
C1395 C 0.67719 0.94151 0.26199 0.0
C1396 C 0.66473 0.90734 0.22144 0.0
C1397 C 0.68144 0.90935 0.21684 0.0
C1398 C 0.67869 0.93122 0.24533 0.0
C1399 C 0.69665 0.9231 0.22611 0.0
C1400 C 0.69235 0.95547 0.27115 0.0
C1401 C 0.65833 0.94484 0.28514 0.0
N1402 N 0.6949 0.93342 0.24011 0.0
N1403 N 0.66073 0.93675 0.26925 0.0
H1404 H 0.06742 0.7273 0.31589 0.0
H1405 H 0.06886 0.76647 0.20966 0.0
H1406 H 0.01873 0.71519 0.28568 0.0
H1407 H 0.11271 0.79168 0.25087 0.0
H1408 H 0.05032 0.74612 0.23589 0.0
H1409 H 0.08455 0.74937 0.29062 0.0
C1410 C 0.06034 0.72936 0.30395 0.0
C1411 C 0.04166 0.71944 0.30284 0.0
C1412 C 0.06399 0.75618 0.23912 0.0
C1413 C 0.06117 0.74453 0.27373 0.0
C1414 C 0.07458 0.76783 0.22419 0.0
C1415 C 0.0925 0.7807 0.22793 0.0
C1416 C 0.07144 0.7573 0.25782 0.0
C1417 C 0.09917 0.78169 0.24706 0.0
C1418 C 0.07011 0.74198 0.28956 0.0
C1419 C 0.03314 0.72265 0.28708 0.0
N1420 N 0.0887 0.77008 0.26119 0.0
N1421 N 0.04299 0.73483 0.27298 0.0
H1422 H 0.27072 0.29491 0.29618 0.0
H1423 H 0.24059 0.34444 0.21876 0.0
H1424 H 0.28922 0.3514 0.29705 0.0
H1425 H 0.21184 0.28722 0.22626 0.0
H1426 H 0.26127 0.34694 0.2446 0.0
H1427 H 0.2514 0.29154 0.26805 0.0
C1428 C 0.27071 0.30658 0.29046 0.0
C1429 C 0.28151 0.32344 0.29899 0.0
C1430 C 0.25048 0.33381 0.24057 0.0
C1431 C 0.2597 0.31974 0.26682 0.0
C1432 C 0.23864 0.33238 0.22583 0.0
C1433 C 0.2243 0.31561 0.22052 0.0
C1434 C 0.24807 0.31837 0.25009 0.0
C1435 C 0.22273 0.30041 0.22984 0.0
C1436 C 0.25971 0.30465 0.27444 0.0
C1437 C 0.28104 0.33813 0.291 0.0
N1438 N 0.23442 0.30215 0.24429 0.0
N1439 N 0.27035 0.33594 0.27536 0.0
H1440 H 0.27352 0.31147 0.39735 0.0
H1441 H 0.25822 0.37908 0.46384 0.0
H1442 H 0.3071 0.3687 0.39343 0.0
H1443 H 0.22714 0.32168 0.46839 0.0
H1444 H 0.27749 0.37598 0.43953 0.0
H1445 H 0.25742 0.31532 0.42456 0.0
C1446 C 0.27754 0.32488 0.40226 0.0
C1447 C 0.29161 0.3398 0.39305 0.0
C1448 C 0.26652 0.36408 0.44596 0.0
C1449 C 0.27313 0.34434 0.42429 0.0
C1450 C 0.25558 0.36584 0.45991 0.0
C1451 C 0.24094 0.35061 0.46801 0.0
C1452 C 0.26277 0.34696 0.4401 0.0
C1453 C 0.23806 0.33379 0.46226 0.0
C1454 C 0.26834 0.32708 0.41786 0.0
C1455 C 0.29629 0.35685 0.40012 0.0
N1456 N 0.24879 0.33243 0.44861 0.0
N1457 N 0.28698 0.35867 0.41527 0.0
H1458 H 0.63817 0.95428 0.40809 0.0
H1459 H 0.63378 0.86341 0.43887 0.0
H1460 H 0.66189 0.92977 0.3733 0.0
H1461 H 0.63726 0.90126 0.4826 0.0
H1462 H 0.63771 0.88474 0.41294 0.0
H1463 H 0.63167 0.93206 0.43414 0.0
C1464 C 0.64189 0.94416 0.40591 0.0
C1465 C 0.65062 0.94384 0.38861 0.0
C1466 C 0.63751 0.88832 0.42821 0.0
C1467 C 0.64302 0.91843 0.41799 0.0
C1468 C 0.63515 0.87614 0.44297 0.0
C1469 C 0.6352 0.88063 0.46285 0.0
C1470 C 0.63963 0.90499 0.43335 0.0
C1471 C 0.63724 0.89738 0.46741 0.0
C1472 C 0.63825 0.93159 0.42075 0.0
C1473 C 0.65522 0.93052 0.38648 0.0
N1474 N 0.6393 0.90897 0.45274 0.0
N1475 N 0.65127 0.91827 0.40095 0.0
H1476 H 0.05925 0.68853 0.39252 0.0
H1477 H 0.0842 0.76473 0.47373 0.0
H1478 H 0.03175 0.71821 0.39986 0.0
H1479 H 0.11506 0.73867 0.46474 0.0
H1480 H 0.06281 0.7451 0.44911 0.0
H1481 H 0.078 0.70426 0.42111 0.0
C1482 C 0.0571 0.69827 0.40021 0.0
C1483 C 0.04404 0.70219 0.39375 0.0
C1484 C 0.07418 0.74355 0.45257 0.0
C1485 C 0.0653 0.72012 0.42637 0.0
C1486 C 0.08641 0.75478 0.46661 0.0
C1487 C 0.10153 0.75346 0.4711 0.0
C1488 C 0.0771 0.73091 0.44281 0.0
C1489 C 0.10356 0.74011 0.46172 0.0
C1490 C 0.06778 0.70723 0.41651 0.0
C1491 C 0.04175 0.71487 0.40425 0.0
N1492 N 0.09157 0.72945 0.44785 0.0
N1493 N 0.05231 0.72341 0.41997 0.0
H1494 H 0.30055 0.01508 0.74072 0.0
H1495 H 0.30424 0.10504 0.77311 0.0
H1496 H 0.33109 0.06437 0.70875 0.0
H1497 H 0.30457 0.06898 0.81667 0.0
H1498 H 0.30717 0.08696 0.74711 0.0
H1499 H 0.29523 0.03165 0.76688 0.0
C1500 C 0.306 0.02934 0.73917 0.0
C1501 C 0.31631 0.03844 0.72267 0.0
C1502 C 0.30649 0.08297 0.76236 0.0
C1503 C 0.31005 0.05721 0.75208 0.0
C1504 C 0.30473 0.09318 0.77713 0.0
C1505 C 0.30418 0.08842 0.79696 0.0
C1506 C 0.30736 0.06772 0.76745 0.0
C1507 C 0.30503 0.07306 0.8015 0.0
C1508 C 0.30304 0.03874 0.75408 0.0
C1509 C 0.32316 0.05691 0.72133 0.0
N1510 N 0.30648 0.06313 0.7868 0.0
N1511 N 0.31979 0.06568 0.73578 0.0
H1512 H 0.97547 0.27063 0.72311 0.0
H1513 H 0.88779 0.2264 0.79085 0.0
H1514 H 0.93238 0.28196 0.71823 0.0
H1515 H 0.92778 0.21056 0.79344 0.0
H1516 H 0.90481 0.24763 0.76496 0.0
H1517 H 0.95892 0.24908 0.74935 0.0
C1518 C 0.96253 0.26855 0.72752 0.0
C1519 C 0.95528 0.27809 0.71849 0.0
C1520 C 0.90993 0.23955 0.77117 0.0
C1521 C 0.93637 0.25361 0.74847 0.0
C1522 C 0.90026 0.22751 0.7861 0.0
C1523 C 0.90641 0.21675 0.79445 0.0
C1524 C 0.92593 0.24093 0.76445 0.0
C1525 C 0.92249 0.21851 0.78734 0.0
C1526 C 0.9531 0.25628 0.74249 0.0
C1527 C 0.93848 0.27491 0.72477 0.0
N1528 N 0.93172 0.23041 0.77277 0.0
N1529 N 0.92964 0.26299 0.73937 0.0
H1530 H 0.71351 0.649 0.7223 0.0
H1531 H 0.78297 0.71841 0.80048 0.0
H1532 H 0.72389 0.70305 0.72795 0.0
H1533 H 0.76811 0.66285 0.79695 0.0
H1534 H 0.76167 0.71347 0.77402 0.0
H1535 H 0.73371 0.65421 0.74971 0.0
C1536 C 0.72005 0.66199 0.72934 0.0
C1537 C 0.71705 0.67563 0.72282 0.0
C1538 C 0.76302 0.70236 0.77914 0.0
C1539 C 0.74029 0.68173 0.75431 0.0
C1540 C 0.77521 0.70518 0.79418 0.0
C1541 C 0.7773 0.69101 0.80099 0.0
C1542 C 0.75293 0.68527 0.77078 0.0
C1543 C 0.76678 0.67411 0.79241 0.0
C1544 C 0.73158 0.66496 0.74504 0.0
C1545 C 0.72586 0.69218 0.73253 0.0
N1546 N 0.75514 0.67175 0.77773 0.0
N1547 N 0.73714 0.6948 0.74778 0.0
H1548 H 0.73088 0.68288 0.62902 0.0
H1549 H 0.7324 0.61368 0.55168 0.0
H1550 H 0.68754 0.62861 0.6232 0.0
H1551 H 0.77297 0.66932 0.55547 0.0
H1552 H 0.71563 0.61849 0.57777 0.0
H1553 H 0.74636 0.67781 0.60199 0.0
C1554 C 0.72461 0.66987 0.62202 0.0
C1555 C 0.70791 0.65613 0.62838 0.0
C1556 C 0.72816 0.62965 0.5728 0.0
C1557 C 0.72561 0.65019 0.59735 0.0
C1558 C 0.73777 0.6269 0.55797 0.0
C1559 C 0.7541 0.64113 0.55133 0.0
C1560 C 0.735 0.64672 0.58113 0.0
C1561 C 0.76033 0.65801 0.55989 0.0
C1562 C 0.73345 0.66698 0.60654 0.0
C1563 C 0.7004 0.63956 0.61874 0.0
N1564 N 0.75082 0.6603 0.57435 0.0
N1565 N 0.70934 0.63702 0.60371 0.0
H1566 H 0.31412 0.05152 0.64221 0.0
H1567 H 0.3606 0.0989 0.54204 0.0
H1568 H 0.35959 0.04888 0.62028 0.0
H1569 H 0.33664 0.11993 0.58192 0.0
H1570 H 0.35776 0.07762 0.56763 0.0
H1571 H 0.3189 0.07334 0.61671 0.0
C1572 C 0.32509 0.0555 0.63196 0.0
C1573 C 0.33651 0.04844 0.63334 0.0
C1574 C 0.35319 0.08697 0.57066 0.0
C1575 C 0.34195 0.07329 0.60406 0.0
C1576 C 0.35485 0.09917 0.55613 0.0
C1577 C 0.34862 0.11114 0.55965 0.0
C1578 C 0.34501 0.08658 0.58867 0.0
C1579 C 0.34114 0.11066 0.5782 0.0
C1580 C 0.32785 0.06801 0.61749 0.0
C1581 C 0.35055 0.0541 0.61972 0.0
N1582 N 0.33939 0.0985 0.59189 0.0
N1583 N 0.35283 0.06615 0.60549 0.0
H1584 H 0.96183 0.27453 0.62207 0.0
H1585 H 0.87958 0.25825 0.55405 0.0
H1586 H 0.93627 0.30628 0.6267 0.0
H1587 H 0.90933 0.23079 0.54691 0.0
H1588 H 0.90087 0.27712 0.57944 0.0
H1589 H 0.94313 0.25915 0.59371 0.0
C1590 C 0.95227 0.27828 0.61709 0.0
C1591 C 0.95053 0.29163 0.62682 0.0
C1592 C 0.90281 0.26706 0.57219 0.0
C1593 C 0.92898 0.27402 0.59426 0.0
C1594 C 0.89073 0.25637 0.55761 0.0
C1595 C 0.89258 0.2428 0.54849 0.0
C1596 C 0.91679 0.26413 0.57769 0.0
C1597 C 0.90718 0.24085 0.55382 0.0
C1598 C 0.94161 0.26952 0.60083 0.0
C1599 C 0.93799 0.29601 0.61964 0.0
N1600 N 0.91862 0.25129 0.56814 0.0
N1601 N 0.9276 0.28715 0.60383 0.0
H1602 H 0.3678 0.30962 0.62716 0.0
H1603 H 0.31894 0.23174 0.54699 0.0
H1604 H 0.31065 0.27671 0.62082 0.0
H1605 H 0.37594 0.25954 0.55639 0.0
H1606 H 0.3163 0.2511 0.57124 0.0
H1607 H 0.37168 0.29423 0.59873 0.0
C1608 C 0.35609 0.29926 0.6197 0.0
C1609 C 0.33888 0.29432 0.62643 0.0
C1610 C 0.32943 0.25308 0.56795 0.0
C1611 C 0.34319 0.27678 0.59401 0.0
C1612 C 0.33093 0.242 0.55412 0.0
C1613 C 0.34765 0.24388 0.54985 0.0
C1614 C 0.34476 0.26616 0.57773 0.0
C1615 C 0.36279 0.25765 0.55923 0.0
C1616 C 0.35831 0.29049 0.60352 0.0
C1617 C 0.32417 0.28085 0.61625 0.0
N1618 N 0.36097 0.26817 0.5729 0.0
N1619 N 0.32667 0.27254 0.60063 0.0
H1620 H 0.73553 0.05748 0.64317 0.0
H1621 H 0.73685 0.09718 0.53721 0.0
H1622 H 0.68701 0.04844 0.61487 0.0
H1623 H 0.78156 0.12092 0.57747 0.0
H1624 H 0.71836 0.07706 0.56362 0.0
H1625 H 0.75287 0.07839 0.61704 0.0
C1626 C 0.72853 0.05992 0.63143 0.0
C1627 C 0.70983 0.05127 0.63116 0.0
C1628 C 0.73222 0.08673 0.56658 0.0
C1629 C 0.72957 0.07506 0.60113 0.0
C1630 C 0.74278 0.09825 0.55156 0.0
C1631 C 0.7609 0.11066 0.55499 0.0
C1632 C 0.73991 0.08751 0.58505 0.0
C1633 C 0.76784 0.11128 0.57388 0.0
C1634 C 0.73843 0.0719 0.61657 0.0
C1635 C 0.70143 0.05493 0.61563 0.0
N1636 N 0.75739 0.0998 0.58811 0.0
N1637 N 0.71138 0.06649 0.6011 0.0
H1638 H 0.93277 0.62613 0.62903 0.0
H1639 H 0.89392 0.66921 0.55337 0.0
H1640 H 0.94938 0.68217 0.62701 0.0
H1641 H 0.87577 0.61279 0.55508 0.0
H1642 H 0.91506 0.6741 0.57963 0.0
H1643 H 0.9123 0.6208 0.60151 0.0
C1644 C 0.9321 0.6373 0.6228 0.0
C1645 C 0.94275 0.65461 0.63032 0.0
C1646 C 0.90652 0.66064 0.57425 0.0
C1647 C 0.91947 0.64865 0.59889 0.0
C1648 C 0.89452 0.65785 0.5591 0.0
C1649 C 0.88309 0.64056 0.5519 0.0
C1650 C 0.90714 0.64605 0.58238 0.0
C1651 C 0.88422 0.62632 0.56029 0.0
C1652 C 0.92044 0.63426 0.6071 0.0
C1653 C 0.9414 0.6686 0.6217 0.0
N1654 N 0.89603 0.62938 0.5751 0.0
N1655 N 0.92998 0.66531 0.60647 0.0
H1656 H 0.97143 0.70488 0.72363 0.0
H1657 H 0.8869 0.66198 0.79606 0.0
H1658 H 0.93033 0.64933 0.7232 0.0
H1659 H 0.92688 0.71795 0.7969 0.0
H1660 H 0.90325 0.65724 0.76979 0.0
H1661 H 0.95576 0.71018 0.75062 0.0
C1662 C 0.9591 0.69382 0.72919 0.0
C1663 C 0.95215 0.67665 0.72117 0.0
C1664 C 0.90852 0.67057 0.77572 0.0
C1665 C 0.93422 0.68256 0.752 0.0
C1666 C 0.89924 0.67326 0.79087 0.0
C1667 C 0.90556 0.69038 0.79881 0.0
C1668 C 0.92428 0.68508 0.76834 0.0
C1669 C 0.92144 0.70455 0.79112 0.0
C1670 C 0.95018 0.69684 0.7446 0.0
C1671 C 0.93616 0.66279 0.72893 0.0
N1672 N 0.93026 0.70159 0.77631 0.0
N1673 N 0.92776 0.66605 0.74389 0.0
H1674 H 0.30549 0.29007 0.74174 0.0
H1675 H 0.29853 0.19785 0.77239 0.0
H1676 H 0.32339 0.26169 0.70446 0.0
H1677 H 0.30618 0.23767 0.81564 0.0
H1678 H 0.30104 0.2184 0.7462 0.0
H1679 H 0.29937 0.26821 0.76806 0.0
C1680 C 0.30796 0.27915 0.73906 0.0
C1681 C 0.31501 0.27767 0.72099 0.0
C1682 C 0.30205 0.22259 0.76143 0.0
C1683 C 0.30788 0.25269 0.75073 0.0
C1684 C 0.3005 0.21085 0.77635 0.0
C1685 C 0.30217 0.21611 0.79616 0.0
C1686 C 0.30505 0.23963 0.76634 0.0
C1687 C 0.30494 0.23318 0.80051 0.0
C1688 C 0.30456 0.26678 0.75406 0.0
C1689 C 0.31806 0.26336 0.71824 0.0
N1690 N 0.30626 0.24436 0.78569 0.0
N1691 N 0.31441 0.25137 0.73293 0.0
H1692 H 0.7253 0.01956 0.72413 0.0
H1693 H 0.76494 0.10319 0.79787 0.0
H1694 H 0.70757 0.05808 0.72698 0.0
H1695 H 0.78444 0.06602 0.7959 0.0
H1696 H 0.74286 0.08563 0.77294 0.0
H1697 H 0.7462 0.03529 0.75125 0.0
C1698 C 0.72575 0.03126 0.73052 0.0
C1699 C 0.71474 0.03757 0.72327 0.0
C1700 C 0.75189 0.08122 0.77798 0.0
C1701 C 0.73853 0.05557 0.75417 0.0
C1702 C 0.76445 0.09119 0.79238 0.0
C1703 C 0.77655 0.08605 0.79913 0.0
C1704 C 0.75136 0.06596 0.77009 0.0
C1705 C 0.77549 0.07058 0.79102 0.0
C1706 C 0.73768 0.04023 0.74596 0.0
C1707 C 0.71585 0.05278 0.73205 0.0
N1708 N 0.76313 0.06108 0.77691 0.0
N1709 N 0.72753 0.06125 0.74697 0.0
H1710 H 0.06114 0.35661 0.02399 0.0
H1711 H 0.07031 0.2885 0.09621 0.0
H1712 H 0.01624 0.30716 0.04412 0.0
H1713 H 0.11175 0.34333 0.08832 0.0
H1714 H 0.05144 0.29334 0.07303 0.0
H1715 H 0.08109 0.35007 0.04334 0.0
C1716 C 0.05552 0.3443 0.0323 0.0
C1717 C 0.03703 0.33246 0.03258 0.0
C1718 C 0.06468 0.30429 0.07635 0.0
C1719 C 0.05968 0.32492 0.0547 0.0
C1720 C 0.07546 0.30151 0.08949 0.0
C1721 C 0.09253 0.31558 0.0943 0.0
C1722 C 0.07111 0.3212 0.06781 0.0
C1723 C 0.09855 0.33221 0.08525 0.0
C1724 C 0.06688 0.34061 0.04341 0.0
C1725 C 0.03042 0.3167 0.04362 0.0
N1726 N 0.08785 0.33457 0.07244 0.0
N1727 N 0.04173 0.31341 0.05429 0.0
H1728 H 0.65855 0.68177 0.0698 0.0
H1729 H 0.67661 0.78183 0.07477 0.0
H1730 H 0.65245 0.70884 0.0196 0.0
H1731 H 0.67372 0.751 0.12599 0.0
H1732 H 0.66961 0.75603 0.0539 0.0
H1733 H 0.66563 0.70769 0.09025 0.0
C1734 C 0.65866 0.69318 0.06309 0.0
C1735 C 0.6549 0.69317 0.04298 0.0
C1736 C 0.67051 0.75492 0.0697 0.0
C1737 C 0.66312 0.72297 0.06631 0.0
C1738 C 0.67464 0.76968 0.0816 0.0
C1739 C 0.67575 0.76855 0.10215 0.0
C1740 C 0.6676 0.73897 0.0784 0.0
C1741 C 0.67282 0.75239 0.11024 0.0
C1742 C 0.6627 0.70798 0.07478 0.0
C1743 C 0.65523 0.7083 0.03506 0.0
N1744 N 0.66892 0.73826 0.09835 0.0
N1745 N 0.65934 0.72265 0.04675 0.0
H1746 H 0.29575 0.93948 0.02801 0.0
H1747 H 0.21741 0.93057 0.09859 0.0
H1748 H 0.29183 0.98462 0.04852 0.0
H1749 H 0.23041 0.88887 0.09096 0.0
H1750 H 0.24177 0.94951 0.07603 0.0
H1751 H 0.26882 0.91964 0.04684 0.0
C1752 C 0.28913 0.94518 0.03634 0.0
C1753 C 0.29606 0.9637 0.03684 0.0
C1754 C 0.23924 0.93619 0.07926 0.0
C1755 C 0.26533 0.94116 0.05833 0.0
C1756 C 0.22531 0.92537 0.09204 0.0
C1757 C 0.22202 0.90821 0.09675 0.0
C1758 C 0.2498 0.92971 0.071 0.0
C1759 C 0.23269 0.90213 0.08794 0.0
C1760 C 0.27382 0.93388 0.04712 0.0
C1761 C 0.28698 0.97042 0.04785 0.0
N1762 N 0.24611 0.91288 0.0755 0.0
N1763 N 0.27209 0.95915 0.0582 0.0
H1764 H 0.30863 0.01502 0.97114 0.0
H1765 H 0.35099 0.11013 0.92059 0.0
H1766 H 0.36075 0.05828 0.98728 0.0
H1767 H 0.29392 0.07544 0.92629 0.0
H1768 H 0.35556 0.09021 0.94212 0.0
H1769 H 0.30365 0.03586 0.95159 0.0
C1770 C 0.319 0.02893 0.97061 0.0
C1771 C 0.33513 0.03498 0.98081 0.0
C1772 C 0.34205 0.08704 0.93868 0.0
C1773 C 0.32962 0.05877 0.95829 0.0
C1774 C 0.33939 0.09844 0.92645 0.0
C1775 C 0.322 0.09456 0.92156 0.0
C1776 C 0.32726 0.07146 0.94586 0.0
C1777 C 0.30756 0.07889 0.92928 0.0
C1778 C 0.31613 0.0408 0.9595 0.0
C1779 C 0.34811 0.05313 0.97967 0.0
N1780 N 0.31052 0.06788 0.94095 0.0
N1781 N 0.34514 0.06439 0.96843 0.0
H1782 H 0.98688 0.30516 0.95277 0.0
H1783 H 0.89129 0.21659 0.94456 0.0
H1784 H 0.94545 0.28992 0.99646 0.0
H1785 H 0.929 0.23787 0.89649 0.0
H1786 H 0.91182 0.24191 0.96494 0.0
H1787 H 0.96678 0.27899 0.93326 0.0
C1788 C 0.97355 0.29625 0.9583 0.0
C1789 C 0.96779 0.29972 0.97624 0.0
C1790 C 0.91559 0.24103 0.94993 0.0
C1791 C 0.9447 0.26972 0.95395 0.0
C1792 C 0.90384 0.22662 0.93823 0.0
C1793 C 0.90835 0.22512 0.91869 0.0
C1794 C 0.93205 0.25402 0.94212 0.0
C1795 C 0.92501 0.23833 0.9115 0.0
C1796 C 0.96207 0.28134 0.94711 0.0
C1797 C 0.9504 0.28774 0.98268 0.0
N1798 N 0.93623 0.25223 0.9232 0.0
N1799 N 0.93944 0.27325 0.97152 0.0
H1800 H 0.70366 0.69139 0.97932 0.0
H1801 H 0.75722 0.65259 0.92138 0.0
H1802 H 0.69005 0.63616 0.98162 0.0
H1803 H 0.77741 0.70907 0.92902 0.0
H1804 H 0.73185 0.64634 0.94231 0.0
H1805 H 0.73024 0.69823 0.96 0.0
C1806 C 0.70634 0.68073 0.97587 0.0
C1807 C 0.69465 0.66318 0.98203 0.0
C1808 C 0.74185 0.66011 0.93946 0.0
C1809 C 0.72486 0.67085 0.9598 0.0
C1810 C 0.7564 0.6637 0.92756 0.0
C1811 C 0.76957 0.6814 0.9235 0.0
C1812 C 0.74031 0.6743 0.9473 0.0
C1813 C 0.76751 0.69523 0.93156 0.0
C1814 C 0.7215 0.68464 0.96484 0.0
C1815 C 0.69873 0.64988 0.97717 0.0
N1816 N 0.75315 0.69138 0.94307 0.0
N1817 N 0.71345 0.65397 0.96623 0.0
H1818 H 0.98698 0.69558 0.97173 0.0
H1819 H 0.89053 0.65519 0.92383 0.0
H1820 H 0.94276 0.64402 0.98771 0.0
H1821 H 0.92802 0.71191 0.92539 0.0
H1822 H 0.9105 0.65032 0.9449 0.0
H1823 H 0.96651 0.70141 0.95248 0.0
C1824 C 0.97293 0.68554 0.97128 0.0
C1825 C 0.96652 0.66929 0.98129 0.0
C1826 C 0.91431 0.66383 0.94068 0.0
C1827 C 0.94316 0.67576 0.95912 0.0
C1828 C 0.90288 0.66666 0.92869 0.0
C1829 C 0.90749 0.68403 0.92287 0.0
C1830 C 0.93062 0.67842 0.94671 0.0
C1831 C 0.92396 0.69827 0.92925 0.0
C1832 C 0.96128 0.68889 0.96032 0.0
C1833 C 0.94823 0.65675 0.98024 0.0
N1834 N 0.93495 0.69515 0.94079 0.0
N1835 N 0.9372 0.66018 0.96919 0.0
H1836 H 0.35429 0.29899 0.99463 0.0
H1837 H 0.31175 0.24187 0.89634 0.0
H1838 H 0.32368 0.31001 0.95252 0.0
H1839 H 0.33477 0.22559 0.94264 0.0
H1840 H 0.31738 0.26777 0.91607 0.0
H1841 H 0.34889 0.27296 0.97496 0.0
C1842 C 0.34647 0.29594 0.98124 0.0
C1843 C 0.3394 0.30662 0.97519 0.0
C1844 C 0.32118 0.25852 0.92193 0.0
C1845 C 0.3332 0.27699 0.95266 0.0
C1846 C 0.31787 0.24366 0.91071 0.0
C1847 C 0.32277 0.23149 0.91783 0.0
C1848 C 0.32951 0.26132 0.9404 0.0
C1849 C 0.33099 0.23473 0.93643 0.0
C1850 C 0.34336 0.28108 0.97004 0.0
C1851 C 0.32935 0.3021 0.95774 0.0
N1852 N 0.33411 0.24933 0.94706 0.0
N1853 N 0.32657 0.28765 0.94709 0.0
H1854 H 0.70751 0.05391 -6e-05 0.0
H1855 H 0.76217 0.06616 0.90086 0.0
H1856 H 0.69611 0.01075 0.95976 0.0
H1857 H 0.78169 0.10533 0.94766 0.0
H1858 H 0.73746 0.04594 0.922 0.0
H1859 H 0.73436 0.07341 0.98074 0.0
C1860 C 0.71073 0.04852 0.98717 0.0
C1861 C 0.69957 0.03073 0.98138 0.0
C1862 C 0.7472 0.05893 0.92768 0.0
C1863 C 0.73006 0.05291 0.95932 0.0
C1864 C 0.7614 0.07047 0.91564 0.0
C1865 C 0.77405 0.08755 0.92242 0.0
C1866 C 0.74551 0.06452 0.94661 0.0
C1867 C 0.77209 0.09245 0.94164 0.0
C1868 C 0.72604 0.05963 0.97623 0.0
C1869 C 0.70433 0.0244 0.96473 0.0
N1870 N 0.75804 0.08104 0.95301 0.0
N1871 N 0.71914 0.03551 0.9542 0.0
H1872 H 0.65195 0.94167 0.0166 0.0
H1873 H 0.67749 0.92095 0.12221 0.0
H1874 H 0.67256 0.98009 0.06406 0.0
H1875 H 0.67605 0.89138 0.07033 0.0
H1876 H 0.67281 0.9413 0.10147 0.0
H1877 H 0.65796 0.92149 0.03638 0.0
C1878 C 0.65775 0.94585 0.03114 0.0
C1879 C 0.66175 0.96254 0.03874 0.0
C1880 C 0.67359 0.93042 0.09459 0.0
C1881 C 0.66847 0.93959 0.06137 0.0
C1882 C 0.67617 0.91877 0.10642 0.0
C1883 C 0.67712 0.9045 0.09793 0.0
C1884 C 0.67169 0.92764 0.07412 0.0
C1885 C 0.6755 0.90232 0.07739 0.0
C1886 C 0.66122 0.93438 0.04236 0.0
C1887 C 0.66929 0.96734 0.05763 0.0
N1888 N 0.67271 0.91371 0.06615 0.0
N1889 N 0.67229 0.95589 0.06834 0.0
H1890 H 0.06098 0.70406 0.02847 0.0
H1891 H 0.06798 0.77895 0.10326 0.0
H1892 H 0.01507 0.70486 0.05217 0.0
H1893 H 0.1107 0.76756 0.0947 0.0
H1894 H 0.04928 0.75448 0.08069 0.0
H1895 H 0.08041 0.73013 0.04891 0.0
C1896 C 0.05502 0.7098 0.03787 0.0
C1897 C 0.03642 0.70228 0.03872 0.0
C1898 C 0.06275 0.75735 0.08376 0.0
C1899 C 0.05845 0.732 0.06196 0.0
C1900 C 0.07343 0.77134 0.09654 0.0
C1901 C 0.09084 0.77518 0.10092 0.0
C1902 C 0.06963 0.74729 0.0751 0.0
C1903 C 0.09725 0.76486 0.0919 0.0
C1904 C 0.06608 0.72459 0.04956 0.0
C1905 C 0.02935 0.71018 0.05116 0.0
N1906 N 0.08665 0.7514 0.07937 0.0
N1907 N 0.04037 0.72463 0.06227 0.0
H1908 H 0.30356 0.31708 0.05816 0.0
H1909 H 0.2111 0.31551 0.07021 0.0
H1910 H 0.28763 0.34543 0.01834 0.0
H1911 H 0.24022 0.31111 0.11938 0.0
H1912 H 0.23587 0.32065 0.04828 0.0
H1913 H 0.27695 0.30879 0.07804 0.0
C1914 C 0.29436 0.32142 0.0535 0.0
C1915 C 0.29781 0.33203 0.03665 0.0
C1916 C 0.23675 0.31846 0.06385 0.0
C1917 C 0.26736 0.3225 0.05925 0.0
C1918 C 0.22264 0.31543 0.0763 0.0
C1919 C 0.22374 0.31294 0.09656 0.0
C1920 C 0.25184 0.31865 0.07174 0.0
C1921 C 0.23897 0.31309 0.10383 0.0
C1922 C 0.27925 0.31674 0.06489 0.0
C1923 C 0.28548 0.33731 0.0313 0.0
N1924 N 0.25243 0.31585 0.09141 0.0
N1925 N 0.27073 0.33246 0.04258 0.0
H1926 H 0.72097 0.69572 0.37058 0.0
H1927 H 0.73517 0.62146 0.42417 0.0
H1928 H 0.67981 0.64032 0.37431 0.0
H1929 H 0.77097 0.67821 0.43057 0.0
H1930 H 0.71567 0.62764 0.40363 0.0
H1931 H 0.74078 0.689 0.38975 0.0
C1932 C 0.71615 0.68211 0.37531 0.0
C1933 C 0.69872 0.66856 0.37092 0.0
C1934 C 0.7278 0.63872 0.40954 0.0
C1935 C 0.72126 0.66078 0.39292 0.0
C1936 C 0.73889 0.63521 0.42137 0.0
C1937 C 0.75478 0.64933 0.4291 0.0
C1938 C 0.73267 0.65647 0.40532 0.0
C1939 C 0.75903 0.66688 0.42468 0.0
C1940 C 0.72743 0.6783 0.38633 0.0
C1941 C 0.69315 0.65116 0.37744 0.0
N1942 N 0.74807 0.66994 0.41308 0.0
N1943 N 0.70438 0.64777 0.38815 0.0
H1944 H 0.3356 0.02016 0.40418 0.0
H1945 H 0.34894 0.11841 0.4078 0.0
H1946 H 0.32354 0.04359 0.35468 0.0
H1947 H 0.34532 0.08792 0.4596 0.0
H1948 H 0.34323 0.09274 0.3872 0.0
H1949 H 0.34267 0.0465 0.42385 0.0
C1950 C 0.33446 0.03088 0.39744 0.0
C1951 C 0.32893 0.02968 0.37779 0.0
C1952 C 0.34372 0.0917 0.40307 0.0
C1953 C 0.3371 0.05995 0.40022 0.0
C1954 C 0.3471 0.10636 0.4148 0.0
C1955 C 0.34757 0.10523 0.43541 0.0
C1956 C 0.34101 0.07592 0.41204 0.0
C1957 C 0.34491 0.08927 0.44377 0.0
C1958 C 0.33846 0.0459 0.4087 0.0
C1959 C 0.32769 0.04398 0.36981 0.0
N1960 N 0.34178 0.07526 0.43206 0.0
N1961 N 0.3318 0.05858 0.38106 0.0
H1962 H 0.96618 0.2742 0.35958 0.0
H1963 H 0.88578 0.26244 0.42853 0.0
H1964 H 0.96052 0.31838 0.37997 0.0
H1965 H 0.89936 0.22131 0.41941 0.0
H1966 H 0.91047 0.28222 0.40677 0.0
H1967 H 0.93896 0.25368 0.37748 0.0
C1968 C 0.95912 0.27956 0.3677 0.0
C1969 C 0.96565 0.298 0.36843 0.0
C1970 C 0.90799 0.26884 0.40949 0.0
C1971 C 0.93456 0.27466 0.3889 0.0
C1972 C 0.89387 0.25755 0.4218 0.0
C1973 C 0.89066 0.2403 0.42588 0.0
C1974 C 0.91882 0.26276 0.40107 0.0
C1975 C 0.90158 0.23462 0.41688 0.0
C1976 C 0.94363 0.26786 0.37796 0.0
C1977 C 0.95599 0.30424 0.37914 0.0
N1978 N 0.91519 0.24583 0.40492 0.0
N1979 N 0.94094 0.2926 0.38902 0.0
H1980 H 0.98081 0.35078 0.30096 0.0
H1981 H 0.02385 0.44993 0.25949 0.0
H1982 H 0.03061 0.39415 0.3228 0.0
H1983 H 0.96848 0.41004 0.25104 0.0
H1984 H 0.02731 0.42942 0.28143 0.0
H1985 H 0.97664 0.37205 0.28135 0.0
C1986 C 0.99084 0.36482 0.30168 0.0
C1987 C 0.0061 0.37074 0.31347 0.0
C1988 C 0.01439 0.4252 0.27485 0.0
C1989 C 0.00149 0.39512 0.29094 0.0
C1990 C 0.01244 0.43683 0.26225 0.0
C1991 C 0.99587 0.43162 0.2534 0.0
C1992 C -0.00029 0.40815 0.27844 0.0
C1993 C 0.98145 0.41461 0.25766 0.0
C1994 C 0.98843 0.37695 0.29052 0.0
C1995 C 0.01864 0.38906 0.3139 0.0
N1996 N 0.98374 0.40343 0.26977 0.0
N1997 N 0.01613 0.40061 0.30265 0.0
H1998 H 0.64278 0.64833 0.28326 0.0
H1999 H 0.55982 0.54862 0.27887 0.0
H2000 H 0.61005 0.62145 0.33387 0.0
H2001 H 0.58752 0.5794 0.22746 0.0
H2002 H 0.5792 0.57427 0.29968 0.0
H2003 H 0.62359 0.62242 0.26297 0.0
C2004 C 0.63151 0.63696 0.2901 0.0
C2005 C 0.62798 0.63703 0.31027 0.0
C2006 C 0.58103 0.5754 0.28385 0.0
C2007 C 0.60597 0.60724 0.28712 0.0
C2008 C 0.57008 0.56073 0.27198 0.0
C2009 C 0.57207 0.56189 0.2514 0.0
C2010 C 0.59415 0.5913 0.27509 0.0
C2011 C 0.58541 0.57798 0.24324 0.0
C2012 C 0.62055 0.62217 0.2785 0.0
C2013 C 0.6132 0.62194 0.31835 0.0
N2014 N 0.59594 0.59203 0.2551 0.0
N2015 N 0.60274 0.6076 0.30674 0.0
H2016 H 0.37381 0.02221 0.3123 0.0
H2017 H 0.42052 0.97502 0.25759 0.0
H2018 H 0.36046 0.96789 0.32393 0.0
H2019 H 0.44445 0.03237 0.26065 0.0
H2020 H 0.39742 0.97198 0.28047 0.0
H2021 H 0.399 0.02618 0.29209 0.0
C2022 C 0.3763 0.01118 0.31075 0.0
C2023 C 0.36504 0.99469 0.31974 0.0
C2024 C 0.40778 0.98523 0.2762 0.0
C2025 C 0.39359 -0.00096 0.29647 0.0
C2026 C 0.42103 0.987 0.26317 0.0
C2027 C 0.43455 0.004 0.25717 0.0
C2028 C 0.40785 0.00055 0.28315 0.0
C2029 C 0.43419 0.01899 0.26459 0.0
C2030 C 0.39066 0.01345 0.29922 0.0
C2031 C 0.36884 0.98084 0.31727 0.0
N2032 N 0.42102 0.01691 0.27713 0.0
N2033 N 0.3827 0.98327 0.30569 0.0
H2034 H 0.65041 0.01166 0.29272 0.0
H2035 H 0.55125 0.99397 0.27756 0.0
H2036 H 0.60634 0.97721 0.33056 0.0
H2037 H 0.59164 0.01552 0.23212 0.0
H2038 H 0.5721 0.9907 0.29893 0.0
H2039 H 0.62992 0.01647 0.27231 0.0
C2040 C 0.63643 0.00521 0.29681 0.0
C2041 C 0.63003 0.99399 0.31333 0.0
C2042 C 0.57638 0.99614 0.28428 0.0
C2043 C 0.60655 -0.00057 0.29004 0.0
C2044 C 0.56445 0.99792 0.27199 0.0
C2045 C 0.56961 0.0049 0.25288 0.0
C2046 C 0.59368 0.00153 0.27754 0.0
C2047 C 0.5871 0.01024 0.24676 0.0
C2048 C 0.62474 0.0079 0.28511 0.0
C2049 C 0.6118 0.98593 0.31792 0.0
N2050 N 0.59849 0.00843 0.25905 0.0
N2051 N 0.60068 0.98882 0.30632 0.0
H2052 H 0.01432 0.62324 0.33188 0.0
H2053 H 0.99333 0.58119 0.22364 0.0
H2054 H 0.99686 0.64369 0.28409 0.0
H2055 H 0.99364 0.55178 0.27477 0.0
H2056 H -0.00236 0.60576 0.24516 0.0
H2057 H 0.00976 0.59826 0.31072 0.0
C2058 C 0.00955 0.62247 0.31695 0.0
C2059 C 0.00593 0.6355 0.3097 0.0
C2060 C 0.9967 0.59391 0.25168 0.0
C2061 C 0.00083 0.60718 0.28549 0.0
C2062 C 0.99432 0.57995 0.23941 0.0
C2063 C 0.9931 0.56447 0.24747 0.0
C2064 C -0.0019 0.59247 0.27215 0.0
C2065 C 0.99434 0.56344 0.26801 0.0
C2066 C 0.0069 0.60822 0.30492 0.0
C2067 C -0.00025 0.63389 0.29027 0.0
N2068 N 0.99688 0.57732 0.27966 0.0
N2069 N -0.00252 0.62004 0.27881 0.0
H2070 H 0.35561 0.3486 0.28849 0.0
H2071 H 0.44978 0.43887 0.28371 0.0
H2072 H 0.37502 0.38676 0.33623 0.0
H2073 H 0.42031 0.40965 0.23224 0.0
H2074 H 0.42474 0.41791 0.30451 0.0
H2075 H 0.38164 0.36889 0.26896 0.0
C2076 C 0.36541 0.36124 0.2949 0.0
C2077 C 0.36314 0.36606 0.31397 0.0
C2078 C 0.4238 0.41612 0.28867 0.0
C2079 C 0.393 0.38931 0.29171 0.0
C2080 C 0.43808 0.42797 0.27684 0.0
C2081 C 0.43702 0.42597 0.25627 0.0
C2082 C 0.40854 0.40206 0.27983 0.0
C2083 C 0.42156 0.41174 0.24804 0.0
C2084 C 0.38023 0.37283 0.28372 0.0
C2085 C 0.37625 0.38259 0.32154 0.0
N2086 N 0.40795 0.40029 0.25985 0.0
N2087 N 0.39069 0.39366 0.31038 0.0
H2088 H 0.35631 0.31787 0.38227 0.0
H2089 H 0.31911 0.21896 0.42202 0.0
H2090 H 0.30717 0.27279 0.3616 0.0
H2091 H 0.37345 0.26113 0.43119 0.0
H2092 H 0.31432 0.23858 0.40013 0.0
H2093 H 0.36286 0.29745 0.40046 0.0
C2094 C 0.34696 0.30365 0.38146 0.0
C2095 C 0.33113 0.29699 0.37051 0.0
C2096 C 0.32734 0.24352 0.40681 0.0
C2097 C 0.33845 0.2736 0.3914 0.0
C2098 C 0.33003 0.23237 0.41939 0.0
C2099 C 0.34666 0.23851 0.42852 0.0
C2100 C 0.34131 0.26102 0.40351 0.0
C2101 C 0.36045 0.25589 0.42439 0.0
C2102 C 0.35072 0.29201 0.39181 0.0
C2103 C 0.31951 0.27847 0.3699 0.0
N2104 N 0.35742 0.26662 0.41232 0.0
N2105 N 0.32332 0.26742 0.38036 0.0
H2106 H 0.72444 0.02723 0.3659 0.0
H2107 H 0.73631 0.10985 0.43103 0.0
H2108 H 0.68078 0.03524 0.38253 0.0
H2109 H 0.77739 0.09579 0.4246 0.0
H2110 H 0.71663 0.08444 0.4101 0.0
H2111 H 0.74495 0.05421 0.38435 0.0
C2112 C 0.7192 0.03471 0.37336 0.0
C2113 C 0.7009 0.02898 0.37278 0.0
C2114 C 0.72996 0.08693 0.41325 0.0
C2115 C 0.7242 0.05979 0.39381 0.0
C2116 C 0.74122 0.10148 0.4251 0.0
C2117 C 0.75845 0.10484 0.42966 0.0
C2118 C 0.73604 0.07576 0.40578 0.0
C2119 C 0.76409 0.0935 0.4217 0.0
C2120 C 0.73088 0.05007 0.38391 0.0
C2121 C 0.69479 0.03915 0.38268 0.0
N2122 N 0.75292 0.07946 0.41015 0.0
N2123 N 0.70641 0.05406 0.39279 0.0
H2124 H 0.9664 0.64332 0.38986 0.0
H2125 H 0.88052 0.65426 0.40169 0.0
H2126 H 0.95665 0.67826 0.35319 0.0
H2127 H 0.90017 0.63443 0.44802 0.0
H2128 H 0.90574 0.65915 0.38113 0.0
H2129 H 0.93932 0.6357 0.40852 0.0
C2130 C 0.95847 0.64927 0.38563 0.0
C2131 C 0.96379 0.6615 0.37002 0.0
C2132 C 0.90448 0.65369 0.39579 0.0
C2133 C 0.93283 0.65283 0.39129 0.0
C2134 C 0.89014 0.65098 0.4076 0.0
C2135 C 0.88827 0.64409 0.42676 0.0
C2136 C 0.91698 0.64932 0.40305 0.0
C2137 C 0.90093 0.63962 0.43333 0.0
C2138 C 0.94307 0.64497 0.39634 0.0
C2139 C 0.95304 0.66883 0.36518 0.0
N2140 N 0.91477 0.64235 0.42151 0.0
N2141 N 0.93805 0.66438 0.3758 0.0
H2142 H 0.34627 0.99159 0.73459 0.0
H2143 H 0.4392 0.99343 0.73968 0.0
H2144 H 0.38582 0.01505 0.68855 0.0
H2145 H 0.40864 0.99039 0.79128 0.0
H2146 H 0.41804 0.99742 0.71926 0.0
H2147 H 0.36732 0.98705 0.7542 0.0
C2148 C 0.35939 0.99573 0.72858 0.0
C2149 C 0.36435 0.00374 0.70995 0.0
C2150 C 0.416 0.99588 0.73505 0.0
C2151 C 0.38843 0.99848 0.73226 0.0
C2152 C 0.42796 0.99349 0.74666 0.0
C2153 C 0.4256 0.99159 0.76715 0.0
C2154 C 0.40146 0.99607 0.74401 0.0
C2155 C 0.41097 0.99194 0.77554 0.0
C2156 C 0.3714 0.9932 0.73982 0.0
C2157 C 0.38152 0.00889 0.70289 0.0
N2158 N 0.39938 0.99405 0.76392 0.0
N2159 N 0.39296 0.0061 0.71404 0.0
H2160 H 0.00188 0.35458 0.73339 0.0
H2161 H 0.00084 0.44613 0.73882 0.0
H2162 H 0.98138 0.37252 0.68612 0.0
H2163 H 0.00286 0.41804 0.79034 0.0
H2164 H 0.99712 0.42117 0.7182 0.0
H2165 H 0.00585 0.37978 0.75345 0.0
C2166 C -0.00173 0.36388 0.72721 0.0
C2167 C 0.99128 0.36148 0.70808 0.0
C2168 C -0.00165 0.42048 0.73402 0.0
C2169 C 0.99585 0.39037 0.73093 0.0
C2170 C 0.00057 0.43473 0.74575 0.0
C2171 C 0.00215 0.4341 0.76629 0.0
C2172 C -0.00202 0.40565 0.74287 0.0
C2173 C 0.00155 0.41897 0.77457 0.0
C2174 C 0.00047 0.3782 0.73869 0.0
C2175 C 0.98678 0.37389 0.70083 0.0
N2176 N -0.00039 0.40538 0.76283 0.0
N2177 N 0.98921 0.38787 0.71225 0.0
H2178 H 0.63818 0.60674 0.69888 0.0
H2179 H 0.55246 0.59201 0.75866 0.0
H2180 H 0.62872 0.64992 0.7131 0.0
H2181 H 0.57458 0.55719 0.76455 0.0
H2182 H 0.57783 0.61181 0.73794 0.0
H2183 H 0.61198 0.58651 0.71855 0.0
C2184 C 0.63051 0.61192 0.70602 0.0
C2185 C 0.63562 0.63001 0.70444 0.0
C2186 C 0.57708 0.59982 0.7438 0.0
C2187 C 0.6057 0.60701 0.7268 0.0
C2188 C 0.56265 0.58853 0.75576 0.0
C2189 C 0.56131 0.57285 0.7635 0.0
C2190 C 0.59015 0.5953 0.73929 0.0
C2191 C 0.5748 0.56893 0.75871 0.0
C2192 C 0.61564 0.60041 0.7173 0.0
C2193 C 0.62526 0.63607 0.71403 0.0
N2194 N 0.58861 0.58004 0.74688 0.0
N2195 N 0.61074 0.62457 0.72477 0.0
H2196 H 0.69634 0.72432 0.65168 0.0
H2197 H 0.62471 0.73748 0.59136 0.0
H2198 H 0.64413 0.68044 0.63696 0.0
H2199 H 0.68162 0.77334 0.58619 0.0
H2200 H 0.63059 0.71785 0.61192 0.0
H2201 H 0.69004 0.74422 0.63194 0.0
C2202 C 0.68351 0.71891 0.6444 0.0
C2203 C 0.67075 0.70072 0.64588 0.0
C2204 C 0.64176 0.73003 0.60625 0.0
C2205 C 0.66345 0.72335 0.62343 0.0
C2206 C 0.63844 0.74122 0.59438 0.0
C2207 C 0.65268 0.75716 0.58691 0.0
C2208 C 0.65942 0.7349 0.61093 0.0
C2209 C 0.67017 0.7614 0.59183 0.0
C2210 C 0.67997 0.73024 0.63308 0.0
C2211 C 0.65436 0.69438 0.63612 0.0
N2212 N 0.67304 0.75038 0.60357 0.0
N2213 N 0.65114 0.7057 0.62534 0.0
H2214 H 0.27268 0.95518 0.66835 0.0
H2215 H 0.25631 0.90744 0.56409 0.0
H2216 H 0.31427 0.97111 0.62473 0.0
H2217 H 0.22441 0.88012 0.61498 0.0
H2218 H 0.27648 0.93239 0.58533 0.0
H2219 H 0.25336 0.9288 0.64829 0.0
C2220 C 0.27775 0.95308 0.6546 0.0
C2221 C 0.29506 0.96531 0.64815 0.0
C2222 C 0.26513 0.92088 0.59187 0.0
C2223 C 0.27308 0.93543 0.62514 0.0
C2224 C 0.25361 0.90672 0.57977 0.0
C2225 C 0.23874 0.89177 0.58785 0.0
C2226 C 0.26155 0.92022 0.61214 0.0
C2227 C 0.23584 0.89139 0.60825 0.0
C2228 C 0.26677 0.93803 0.64322 0.0
C2229 C 0.30101 0.96198 0.63025 0.0
N2230 N 0.24706 0.90551 0.6197 0.0
N2231 N 0.28998 0.94744 0.61928 0.0
H2232 H 0.02554 0.34749 0.62422 0.0
H2233 H 0.11851 0.34928 0.61675 0.0
H2234 H 0.04204 0.3224 0.66781 0.0
H2235 H 0.09026 0.35285 0.56621 0.0
H2236 H 0.0934 0.34458 0.63785 0.0
H2237 H 0.05225 0.35492 0.60499 0.0
C2238 C 0.03488 0.34368 0.62984 0.0
C2239 C 0.03155 0.33424 0.64759 0.0
C2240 C 0.09277 0.34645 0.62215 0.0
C2241 C 0.06215 0.34276 0.62567 0.0
C2242 C 0.10708 0.34923 0.61016 0.0
C2243 C 0.10636 0.35139 0.58975 0.0
C2244 C 0.07783 0.34616 0.61365 0.0
C2245 C 0.09124 0.35109 0.58187 0.0
C2246 C 0.05006 0.34786 0.61881 0.0
C2247 C 0.04409 0.32962 0.65414 0.0
N2248 N 0.07759 0.34858 0.59384 0.0
N2249 N 0.05889 0.33394 0.64317 0.0
H2250 H 0.31639 0.35551 0.63834 0.0
H2251 H 0.21863 0.31831 0.594 0.0
H2252 H 0.2711 0.30514 0.65563 0.0
H2253 H 0.2605 0.37322 0.58819 0.0
H2254 H 0.23801 0.31281 0.61555 0.0
H2255 H 0.29646 0.36198 0.61901 0.0
C2256 C 0.30223 0.34586 0.63815 0.0
C2257 C 0.29537 0.32975 0.64855 0.0
C2258 C 0.24294 0.32608 0.60964 0.0
C2259 C 0.27253 0.33699 0.62635 0.0
C2260 C 0.23194 0.32919 0.59724 0.0
C2261 C 0.23803 0.34622 0.58923 0.0
C2262 C 0.26024 0.34006 0.61392 0.0
C2263 C 0.25527 0.35992 0.59414 0.0
C2264 C 0.29086 0.34957 0.62714 0.0
C2265 C 0.27692 0.31773 0.64783 0.0
N2266 N 0.26584 0.35651 0.60606 0.0
N2267 N 0.26615 0.32153 0.63678 0.0
H2268 H 0.65365 0.97308 0.62096 0.0
H2269 H 0.66079 0.88465 0.61217 0.0
H2270 H 0.68048 0.95807 0.66397 0.0
H2271 H 0.6406 0.90389 0.56582 0.0
H2272 H 0.66631 0.9103 0.63236 0.0
H2273 H 0.64683 0.94657 0.6017 0.0
C2274 C 0.65807 0.96416 0.62638 0.0
C2275 C 0.66769 0.96779 0.64407 0.0
C2276 C 0.66065 0.9089 0.61779 0.0
C2277 C 0.65992 0.93739 0.62207 0.0
C2278 C 0.65757 0.8943 0.60619 0.0
C2279 C 0.65031 0.89214 0.58718 0.0
C2280 C 0.6564 0.92145 0.61039 0.0
C2281 C 0.64605 0.90488 0.58043 0.0
C2282 C 0.65419 0.94904 0.61535 0.0
C2283 C 0.67307 0.95578 0.65039 0.0
N2284 N 0.6492 0.919 0.592 0.0
N2285 N 0.66912 0.9411 0.63938 0.0
H2286 H 0.03694 0.72001 0.66948 0.0
H2287 H 0.08571 0.73944 0.56561 0.0
H2288 H 0.02038 0.68051 0.62328 0.0
H2289 H 0.11278 0.76951 0.61766 0.0
H2290 H 0.06046 0.71882 0.58609 0.0
H2291 H 0.06388 0.73961 0.65038 0.0
C2292 C 0.03901 0.71546 0.65537 0.0
C2293 C 0.02642 0.69866 0.6479 0.0
C2294 C 0.07197 0.72985 0.59307 0.0
C2295 C 0.05697 0.72097 0.62601 0.0
C2296 C 0.08631 0.74163 0.58139 0.0
C2297 C 0.10126 0.75615 0.59001 0.0
C2298 C 0.07245 0.73278 0.61349 0.0
C2299 C 0.10149 0.75838 0.61052 0.0
C2300 C 0.05439 0.7266 0.64454 0.0
C2301 C 0.02975 0.69336 0.62958 0.0
N2302 N 0.08719 0.7469 0.62159 0.0
N2303 N 0.04462 0.70454 0.61919 0.0
H2304 H 0.00156 0.64916 0.73276 0.0
H2305 H 0.0017 0.55707 0.73787 0.0
H2306 H 0.97997 0.60987 0.68621 0.0
H2307 H 0.00507 0.58804 0.78926 0.0
H2308 H -0.00227 0.57813 0.71731 0.0
H2309 H 0.00703 0.62869 0.7523 0.0
C2310 C -0.00195 0.63624 0.72662 0.0
C2311 C 0.99025 0.63115 0.70788 0.0
C2312 C -0.00065 0.58029 0.73308 0.0
C2313 C 0.99653 0.60772 0.73013 0.0
C2314 C 0.00171 0.56837 0.74478 0.0
C2315 C 0.00367 0.57085 0.76526 0.0
C2316 C -0.0008 0.59489 0.74194 0.0
C2317 C 0.00344 0.58559 0.77353 0.0
C2318 C 0.00111 0.62455 0.73781 0.0
C2319 C 0.98594 0.61426 0.70064 0.0
N2320 N 0.00131 0.5971 0.76183 0.0
N2321 N 0.98918 0.60313 0.71178 0.0
H2322 H 0.3891 0.35646 0.70478 0.0
H2323 H 0.40674 0.44562 0.75972 0.0
H2324 H 0.34862 0.37118 0.71256 0.0
H2325 H 0.43993 0.42199 0.76849 0.0
H2326 H 0.38682 0.42018 0.73917 0.0
H2327 H 0.40974 0.38249 0.72459 0.0
C2328 C 0.38461 0.36523 0.71056 0.0
C2329 C 0.36714 0.36167 0.7071 0.0
C2330 C 0.39847 0.42058 0.74562 0.0
C2331 C 0.39058 0.39136 0.72961 0.0
C2332 C 0.4098 0.43505 0.75749 0.0
C2333 C 0.42507 0.436 0.76598 0.0
C2334 C 0.40246 0.40698 0.742 0.0
C2335 C 0.4285 0.42203 0.76207 0.0
C2336 C 0.39634 0.38 0.72192 0.0
C2337 C 0.36196 0.3734 0.71496 0.0
N2338 N 0.41732 0.40813 0.75034 0.0
N2339 N 0.37364 0.38774 0.7258 0.0
H2340 H 0.63597 0.02993 0.69424 0.0
H2341 H 0.55412 0.9642 0.76328 0.0
H2342 H 0.62644 0.97823 0.71288 0.0
H2343 H 0.57157 0.02011 0.75604 0.0
H2344 H 0.5782 0.96781 0.74133 0.0
H2345 H 0.60993 0.02521 0.71331 0.0
C2346 C 0.62831 0.01753 0.70222 0.0
C2347 C 0.63338 0.00448 0.70208 0.0
C2348 C 0.57673 0.97928 0.74453 0.0
C2349 C 0.60365 -0.001 0.7239 0.0
C2350 C 0.56296 0.9772 0.75696 0.0
C2351 C 0.56093 0.9919 0.76154 0.0
C2352 C 0.58846 0.99614 0.7365 0.0
C2353 C 0.57283 0.00849 0.75309 0.0
C2354 C 0.6135 0.01487 0.71316 0.0
C2355 C 0.62301 0.98866 0.71269 0.0
N2356 N 0.58608 0.01016 0.74096 0.0
N2357 N 0.60864 0.98637 0.7232 0.0
loop_
_geom_bond_atom_site_label_1
_geom_bond_atom_site_label_2
_geom_bond_distance
_geom_bond_site_symmetry_2
_ccdc_geom_bond_type
In0 O1 2.294 1_455 S
In0 O2 2.326 . S
In0 O6 2.266 1_455 S
In0 O7 2.326 1_454 S
In0 O8 2.266 1_554 S
In0 O9 2.326 1_454 S
In0 O11 2.294 . S
In0 O12 2.326 . S
O1 In0 2.294 1_655 S
O1 C10 1.240 1_655 S
O2 In0 2.326 . S
O2 C10 1.253 . S
C3 O6 1.252 1_556 S
C3 O7 1.260 . S
C4 O11 1.240 . S
C4 O12 1.252 . S
C5 O8 1.252 . S
C5 O9 1.260 1_455 S
O6 In0 2.266 1_655 S
O6 C3 1.252 1_554 S
O7 In0 2.326 1_656 S
O7 C3 1.260 . S
O8 In0 2.266 1_556 S
O8 C5 1.252 . S
O9 In0 2.326 1_656 S
O9 C5 1.260 1_655 S
C10 O1 1.240 1_455 S
C10 O2 1.253 . S
O11 In0 2.294 . S
O11 C4 1.240 . S
O12 In0 2.326 . S
O12 C4 1.252 . S
In13 O14 2.294 . S
In13 O15 2.326 . S
In13 O19 2.266 . S
In13 O20 2.326 1_554 S
In13 O21 2.266 1_554 S
In13 O22 2.326 1_554 S
In13 O24 2.294 . S
In13 O25 2.326 . S
O14 In13 2.294 . S
O14 C23 1.240 . S
O15 In13 2.326 . S
O15 C23 1.252 . S
C16 O19 1.252 1_556 S
C16 O20 1.260 . S
C17 O24 1.240 . S
C17 O25 1.252 . S
C18 O21 1.252 . S
C18 O22 1.260 . S
O19 In13 2.266 . S
O19 C16 1.252 1_554 S
O20 In13 2.326 1_556 S
O20 C16 1.260 . S
O21 In13 2.266 1_556 S
O21 C18 1.252 . S
O22 In13 2.326 1_556 S
O22 C18 1.260 . S
C23 O14 1.240 . S
C23 O15 1.252 . S
O24 In13 2.294 . S
O24 C17 1.240 . S
O25 In13 2.326 . S
O25 C17 1.252 . S
In26 O27 2.294 . S
In26 O28 2.326 1_554 S
In26 O32 2.266 . S
In26 O33 2.326 1_545 S
In26 O34 2.266 1_545 S
In26 O35 2.326 1_545 S
In26 O37 2.294 1_544 S
In26 O38 2.326 1_554 S
O27 In26 2.294 . S
O27 C36 1.240 1_554 S
O28 In26 2.326 1_556 S
O28 C36 1.252 . S
C29 O32 1.252 . S
C29 O33 1.260 1_545 S
C30 O37 1.232 1_545 S
C30 O38 1.266 . S
C31 O34 1.252 . S
C31 O35 1.260 . S
O32 In26 2.266 . S
O32 C29 1.252 . S
O33 In26 2.326 1_565 S
O33 C29 1.260 1_565 S
O34 In26 2.266 1_565 S
O34 C31 1.252 . S
O35 In26 2.326 1_565 S
O35 C31 1.260 . S
C36 O27 1.240 1_556 S
C36 O28 1.252 . S
O37 In26 2.294 1_566 S
O37 C30 1.232 1_565 S
O38 In26 2.326 1_556 S
O38 C30 1.266 . S
In39 O40 2.293 1_554 S
In39 O41 2.326 1_454 S
In39 O45 2.265 . S
In39 O46 2.326 . S
In39 O47 2.267 1_455 S
In39 O48 2.324 . S
In39 O50 2.296 1_455 S
In39 O51 2.327 1_454 S
O40 In39 2.293 1_556 S
O40 C49 1.240 . S
O41 In39 2.326 1_656 S
O41 C49 1.252 1_655 S
C42 O45 1.252 . S
C42 O46 1.260 . S
C43 O50 1.240 1_556 S
C43 O51 1.252 . S
C44 O47 1.286 . S
C44 O48 1.235 1_655 S
O45 In39 2.265 . S
O45 C42 1.252 . S
O46 In39 2.326 . S
O46 C42 1.260 . S
O47 In39 2.267 1_655 S
O47 C44 1.286 . S
O48 In39 2.324 . S
O48 C44 1.235 1_455 S
C49 O40 1.240 . S
C49 O41 1.252 1_455 S
O50 In39 2.296 1_655 S
O50 C43 1.240 1_554 S
O51 In39 2.327 1_656 S
O51 C43 1.252 . S
In52 O53 2.294 1_554 S
In52 O54 2.326 1_554 S
In52 O58 2.266 . S
In52 O59 2.326 . S
In52 O60 2.266 . S
In52 O61 2.326 . S
In52 O63 2.294 . S
In52 O64 2.326 1_554 S
O53 In52 2.294 1_556 S
O53 C62 1.240 . S
O54 In52 2.326 1_556 S
O54 C62 1.252 . S
C55 O58 1.252 . S
C55 O59 1.260 . S
C56 O63 1.240 1_556 S
C56 O64 1.252 . S
C57 O60 1.252 . S
C57 O61 1.260 . S
O58 In52 2.266 . S
O58 C55 1.252 . S
O59 In52 2.326 . S
O59 C55 1.260 . S
O60 In52 2.266 . S
O60 C57 1.252 . S
O61 In52 2.326 . S
O61 C57 1.260 . S
C62 O53 1.240 . S
C62 O54 1.252 . S
O63 In52 2.294 . S
O63 C56 1.240 1_554 S
O64 In52 2.326 1_556 S
O64 C56 1.252 . S
In65 O66 2.293 . S
In65 O67 2.326 1_545 S
In65 O71 2.265 . S
In65 O72 2.326 1_554 S
In65 O73 2.267 1_544 S
In65 O74 2.324 1_554 S
In65 O76 2.296 1_545 S
In65 O77 2.327 1_545 S
O66 In65 2.293 . S
O66 C75 1.272 . S
O67 In65 2.326 1_565 S
O67 C75 1.196 1_565 S
C68 O71 1.252 1_556 S
C68 O72 1.260 . S
C69 O76 1.240 . S
C69 O77 1.252 . S
C70 O73 1.289 . S
C70 O74 1.233 1_565 S
O71 In65 2.265 . S
O71 C68 1.252 1_554 S
O72 In65 2.326 1_556 S
O72 C68 1.260 . S
O73 In65 2.267 1_566 S
O73 C70 1.289 . S
O74 In65 2.324 1_556 S
O74 C70 1.233 1_545 S
C75 O66 1.272 . S
C75 O67 1.196 1_545 S
O76 In65 2.296 1_565 S
O76 C69 1.240 . S
O77 In65 2.327 1_565 S
O77 C69 1.252 . S
In78 O79 2.294 . S
In78 O80 2.326 . S
In78 O84 2.266 . S
In78 O85 2.326 . S
In78 O86 2.266 . S
In78 O87 2.326 . S
In78 O89 2.294 . S
In78 O90 2.326 . S
O79 In78 2.294 . S
O79 C88 1.240 . S
O80 In78 2.326 . S
O80 C88 1.252 . S
C81 O84 1.252 . S
C81 O85 1.260 . S
C82 O89 1.240 . S
C82 O90 1.252 . S
C83 O86 1.252 . S
C83 O87 1.260 . S
O84 In78 2.266 . S
O84 C81 1.252 . S
O85 In78 2.326 . S
O85 C81 1.260 . S
O86 In78 2.266 . S
O86 C83 1.252 . S
O87 In78 2.326 . S
O87 C83 1.260 . S
C88 O79 1.240 . S
C88 O80 1.252 . S
O89 In78 2.294 . S
O89 C82 1.240 . S
O90 In78 2.326 . S
O90 C82 1.252 . S
In91 O92 2.294 . S
In91 O93 2.326 . S
In91 O97 2.266 . S
In91 O98 2.326 . S
In91 O99 2.266 . S
In91 O100 2.326 . S
In91 O102 2.294 1_565 S
In91 O103 2.326 1_565 S
O92 In91 2.294 . S
O92 C101 1.240 . S
O93 In91 2.326 . S
O93 C101 1.252 . S
C94 O97 1.252 . S
C94 O98 1.260 . S
C95 O102 1.240 . S
C95 O103 1.252 . S
C96 O99 1.252 . S
C96 O100 1.260 . S
O97 In91 2.266 . S
O97 C94 1.252 . S
O98 In91 2.326 . S
O98 C94 1.260 . S
O99 In91 2.266 . S
O99 C96 1.252 . S
O100 In91 2.326 . S
O100 C96 1.260 . S
C101 O92 1.240 . S
C101 O93 1.252 . S
O102 In91 2.294 1_545 S
O102 C95 1.240 . S
O103 In91 2.326 1_545 S
O103 C95 1.252 . S
In104 O105 2.294 . S
In104 O106 2.326 . S
In104 O110 2.266 . S
In104 O111 2.326 . S
In104 O112 2.266 1_455 S
In104 O113 2.326 1_455 S
In104 O115 2.294 . S
In104 O116 2.326 . S
O105 In104 2.294 . S
O105 C114 1.240 . S
O106 In104 2.326 . S
O106 C114 1.252 . S
C107 O110 1.252 . S
C107 O111 1.260 . S
C108 O115 1.240 . S
C108 O116 1.252 . S
C109 O112 1.252 . S
C109 O113 1.260 . S
O110 In104 2.266 . S
O110 C107 1.252 . S
O111 In104 2.326 . S
O111 C107 1.260 . S
O112 In104 2.266 1_655 S
O112 C109 1.252 . S
O113 In104 2.326 1_655 S
O113 C109 1.260 . S
C114 O105 1.240 . S
C114 O106 1.252 . S
O115 In104 2.294 . S
O115 C108 1.240 . S
O116 In104 2.326 . S
O116 C108 1.252 . S
In117 O118 2.294 . S
In117 O119 2.326 . S
In117 O123 2.266 1_565 S
In117 O124 2.326 1_565 S
In117 O125 2.266 . S
In117 O126 2.326 . S
In117 O128 2.294 . S
In117 O129 2.326 . S
O118 In117 2.294 . S
O118 C127 1.240 . S
O119 In117 2.326 . S
O119 C127 1.252 . S
C120 O123 1.252 . S
C120 O124 1.260 . S
C121 O128 1.240 . S
C121 O129 1.252 . S
C122 O125 1.252 . S
C122 O126 1.260 . S
O123 In117 2.266 1_545 S
O123 C120 1.252 . S
O124 In117 2.326 1_545 S
O124 C120 1.260 . S
O125 In117 2.266 . S
O125 C122 1.252 . S
O126 In117 2.326 . S
O126 C122 1.260 . S
C127 O118 1.240 . S
C127 O119 1.252 . S
O128 In117 2.294 . S
O128 C121 1.240 . S
O129 In117 2.326 . S
O129 C121 1.252 . S
In130 O131 2.294 . S
In130 O132 2.326 . S
In130 O136 2.266 1_455 S
In130 O137 2.326 1_455 S
In130 O138 2.266 . S
In130 O139 2.326 . S
In130 O141 2.294 . S
In130 O142 2.326 . S
O131 In130 2.294 . S
O131 C140 1.240 . S
O132 In130 2.326 . S
O132 C140 1.252 . S
C133 O136 1.252 . S
C133 O137 1.260 . S
C134 O141 1.240 . S
C134 O142 1.252 . S
C135 O138 1.252 . S
C135 O139 1.260 . S
O136 In130 2.266 1_655 S
O136 C133 1.252 . S
O137 In130 2.326 1_655 S
O137 C133 1.260 . S
O138 In130 2.266 . S
O138 C135 1.252 . S
O139 In130 2.326 . S
O139 C135 1.260 . S
C140 O131 1.240 . S
C140 O132 1.252 . S
O141 In130 2.294 . S
O141 C134 1.240 . S
O142 In130 2.326 . S
O142 C134 1.252 . S
In143 O144 2.294 . S
In143 O145 2.326 . S
In143 O149 2.266 . S
In143 O150 2.326 . S
In143 O151 2.266 . S
In143 O152 2.326 . S
In143 O154 2.294 . S
In143 O155 2.326 . S
O144 In143 2.294 . S
O144 C153 1.240 . S
O145 In143 2.326 . S
O145 C153 1.252 . S
C146 O149 1.252 . S
C146 O150 1.260 . S
C147 O154 1.240 . S
C147 O155 1.252 . S
C148 O151 1.252 . S
C148 O152 1.260 . S
O149 In143 2.266 . S
O149 C146 1.252 . S
O150 In143 2.326 . S
O150 C146 1.260 . S
O151 In143 2.266 . S
O151 C148 1.252 . S
O152 In143 2.326 . S
O152 C148 1.260 . S
C153 O144 1.240 . S
C153 O145 1.252 . S
O154 In143 2.294 . S
O154 C147 1.240 . S
O155 In143 2.326 . S
O155 C147 1.252 . S
In156 O157 2.294 . S
In156 O158 2.326 . S
In156 O162 2.266 . S
In156 O163 2.326 . S
In156 O164 2.266 1_545 S
In156 O165 2.326 1_545 S
In156 O167 2.294 . S
In156 O168 2.326 . S
O157 In156 2.294 . S
O157 C166 1.240 . S
O158 In156 2.326 . S
O158 C166 1.252 . S
C159 O162 1.252 . S
C159 O163 1.260 . S
C160 O167 1.240 . S
C160 O168 1.252 . S
C161 O164 1.252 . S
C161 O165 1.260 . S
O162 In156 2.266 . S
O162 C159 1.252 . S
O163 In156 2.326 . S
O163 C159 1.260 . S
O164 In156 2.266 1_565 S
O164 C161 1.252 . S
O165 In156 2.326 1_565 S
O165 C161 1.260 . S
C166 O157 1.240 . S
C166 O158 1.252 . S
O167 In156 2.294 . S
O167 C160 1.240 . S
O168 In156 2.326 . S
O168 C160 1.252 . S
In169 O170 2.294 . S
In169 O171 2.326 . S
In169 O175 2.266 . S
In169 O176 2.326 . S
In169 O177 2.266 1_655 S
In169 O178 2.326 1_655 S
In169 O180 2.294 . S
In169 O181 2.326 . S
O170 In169 2.294 . S
O170 C179 1.240 . S
O171 In169 2.326 . S
O171 C179 1.252 . S
C172 O175 1.252 . S
C172 O176 1.260 . S
C173 O180 1.240 . S
C173 O181 1.252 . S
C174 O177 1.252 . S
C174 O178 1.260 . S
O175 In169 2.266 . S
O175 C172 1.252 . S
O176 In169 2.326 . S
O176 C172 1.260 . S
O177 In169 2.266 1_455 S
O177 C174 1.252 . S
O178 In169 2.326 1_455 S
O178 C174 1.260 . S
C179 O170 1.240 . S
C179 O171 1.252 . S
O180 In169 2.294 . S
O180 C173 1.240 . S
O181 In169 2.326 . S
O181 C173 1.252 . S
In182 O183 2.294 . S
In182 O184 2.326 . S
In182 O188 2.266 . S
In182 O189 2.326 . S
In182 O190 2.266 . S
In182 O191 2.326 . S
In182 O193 2.294 . S
In182 O194 2.326 . S
O183 In182 2.294 . S
O183 C192 1.240 . S
O184 In182 2.326 . S
O184 C192 1.252 . S
C185 O188 1.252 . S
C185 O189 1.260 . S
C186 O193 1.240 . S
C186 O194 1.252 . S
C187 O190 1.252 . S
C187 O191 1.260 . S
O188 In182 2.266 . S
O188 C185 1.252 . S
O189 In182 2.326 . S
O189 C185 1.260 . S
O190 In182 2.266 . S
O190 C187 1.252 . S
O191 In182 2.326 . S
O191 C187 1.260 . S
C192 O183 1.240 . S
C192 O184 1.252 . S
O193 In182 2.294 . S
O193 C186 1.240 . S
O194 In182 2.326 . S
O194 C186 1.252 . S
In195 O196 2.294 . S
In195 O197 2.326 . S
In195 O201 2.266 . S
In195 O202 2.326 . S
In195 O203 2.266 . S
In195 O204 2.326 . S
In195 O206 2.294 . S
In195 O207 2.326 . S
O196 In195 2.294 . S
O196 C205 1.240 . S
O197 In195 2.326 . S
O197 C205 1.252 . S
C198 O201 1.252 . S
C198 O202 1.260 . S
C199 O206 1.240 . S
C199 O207 1.252 . S
C200 O203 1.252 . S
C200 O204 1.260 . S
O201 In195 2.266 . S
O201 C198 1.252 . S
O202 In195 2.326 . S
O202 C198 1.260 . S
O203 In195 2.266 . S
O203 C200 1.252 . S
O204 In195 2.326 . S
O204 C200 1.260 . S
C205 O196 1.240 . S
C205 O197 1.252 . S
O206 In195 2.294 . S
O206 C199 1.240 . S
O207 In195 2.326 . S
O207 C199 1.252 . S
In208 O209 2.294 . S
In208 O210 2.326 . S
In208 O214 2.266 . S
In208 O215 2.326 . S
In208 O216 2.266 . S
In208 O217 2.326 . S
In208 O219 2.294 1_545 S
In208 O220 2.326 1_545 S
O209 In208 2.294 . S
O209 C218 1.240 . S
O210 In208 2.326 . S
O210 C218 1.252 . S
C211 O214 1.252 . S
C211 O215 1.260 . S
C212 O219 1.240 . S
C212 O220 1.252 . S
C213 O216 1.252 . S
C213 O217 1.260 . S
O214 In208 2.266 . S
O214 C211 1.252 . S
O215 In208 2.326 . S
O215 C211 1.260 . S
O216 In208 2.266 . S
O216 C213 1.252 . S
O217 In208 2.326 . S
O217 C213 1.260 . S
C218 O209 1.240 . S
C218 O210 1.252 . S
O219 In208 2.294 1_565 S
O219 C212 1.240 . S
O220 In208 2.326 1_565 S
O220 C212 1.252 . S
In221 O222 2.294 . S
In221 O223 2.326 . S
In221 O227 2.266 . S
In221 O228 2.326 . S
In221 O229 2.266 1_655 S
In221 O230 2.326 1_655 S
In221 O232 2.294 . S
In221 O233 2.326 . S
O222 In221 2.294 . S
O222 C231 1.240 . S
O223 In221 2.326 . S
O223 C231 1.252 . S
C224 O227 1.252 . S
C224 O228 1.260 . S
C225 O232 1.240 . S
C225 O233 1.252 . S
C226 O229 1.252 . S
C226 O230 1.260 . S
O227 In221 2.266 . S
O227 C224 1.252 . S
O228 In221 2.326 . S
O228 C224 1.260 . S
O229 In221 2.266 1_455 S
O229 C226 1.252 . S
O230 In221 2.326 1_455 S
O230 C226 1.260 . S
C231 O222 1.240 . S
C231 O223 1.252 . S
O232 In221 2.294 . S
O232 C225 1.240 . S
O233 In221 2.326 . S
O233 C225 1.252 . S
C234 C235 1.384 . S
C234 C236 1.384 . S
C234 H262 0.931 . S
C235 C234 1.384 . S
C235 C238 1.382 . S
C236 C234 1.384 . S
C236 C237 1.381 . S
C236 H263 0.930 . S
C237 C236 1.381 . S
C237 C239 1.381 . S
C237 C240 1.487 . S
C238 C235 1.382 . S
C238 C239 1.387 . S
C238 H264 0.930 . S
C239 C237 1.381 . S
C239 C238 1.387 . S
C239 H265 0.931 . S
C240 C237 1.487 . S
C240 C247 1.399 . S
C240 N278 1.343 . S
C241 C242 1.384 . S
C241 C243 1.384 . S
C241 H266 0.931 . S
C242 C241 1.384 . S
C242 C245 1.382 . S
C243 C241 1.384 . S
C243 C244 1.381 . S
C243 H267 0.930 . S
C244 C243 1.381 . S
C244 C246 1.381 . S
C244 C247 1.487 . S
C245 C242 1.382 . S
C245 C246 1.387 . S
C245 H268 0.930 . S
C246 C244 1.381 . S
C246 C245 1.387 . S
C246 H269 0.931 . S
C247 C240 1.399 . S
C247 C244 1.487 . S
C247 N279 1.343 . S
C248 C249 1.384 . S
C248 C250 1.384 . S
C248 H270 0.931 . S
C249 C248 1.384 . S
C249 C252 1.382 . S
C250 C248 1.384 . S
C250 C251 1.381 . S
C250 H271 0.930 . S
C251 C250 1.381 . S
C251 C253 1.381 . S
C251 C254 1.487 . S
C252 C249 1.382 . S
C252 C253 1.387 . S
C252 H272 0.930 . S
C253 C251 1.381 . S
C253 C252 1.387 . S
C253 H273 0.931 . S
C254 C251 1.487 . S
C254 C261 1.399 . S
C254 N279 1.343 . S
C255 C256 1.384 . S
C255 C257 1.384 . S
C255 H274 0.931 . S
C256 C255 1.384 . S
C256 C259 1.382 . S
C257 C255 1.384 . S
C257 C258 1.381 . S
C257 H275 0.930 . S
C258 C257 1.381 . S
C258 C260 1.381 . S
C258 C261 1.487 . S
C259 C256 1.382 . S
C259 C260 1.387 . S
C259 H276 0.930 . S
C260 C258 1.381 . S
C260 C259 1.387 . S
C260 H277 0.931 . S
C261 C254 1.399 . S
C261 C258 1.487 . S
C261 N278 1.343 . S
H262 C234 0.931 . S
H263 C236 0.930 . S
H264 C238 0.930 . S
H265 C239 0.931 . S
H266 C241 0.931 . S
H267 C243 0.930 . S
H268 C245 0.930 . S
H269 C246 0.931 . S
H270 C248 0.931 . S
H271 C250 0.930 . S
H272 C252 0.930 . S
H273 C253 0.931 . S
H274 C255 0.931 . S
H275 C257 0.930 . S
H276 C259 0.930 . S
H277 C260 0.931 . S
N278 C240 1.343 . S
N278 C261 1.343 . S
N279 C247 1.343 . S
N279 C254 1.343 . S
C280 C281 1.384 . S
C280 C282 1.384 . S
C280 H308 0.931 . S
C281 C280 1.384 . S
C281 C284 1.382 . S
C282 C280 1.384 . S
C282 C283 1.381 . S
C282 H309 0.930 . S
C283 C282 1.381 . S
C283 C285 1.381 . S
C283 C286 1.487 . S
C284 C281 1.382 . S
C284 C285 1.387 . S
C284 H310 0.930 . S
C285 C283 1.381 . S
C285 C284 1.387 . S
C285 H311 0.931 . S
C286 C283 1.487 . S
C286 C293 1.399 . S
C286 N324 1.343 . S
C287 C288 1.384 . S
C287 C289 1.384 . S
C287 H312 0.931 . S
C288 C287 1.384 . S
C288 C291 1.382 . S
C289 C287 1.384 . S
C289 C290 1.381 . S
C289 H313 0.930 . S
C290 C289 1.381 . S
C290 C292 1.381 . S
C290 C293 1.487 . S
C291 C288 1.382 . S
C291 C292 1.387 . S
C291 H314 0.930 . S
C292 C290 1.381 . S
C292 C291 1.387 . S
C292 H315 0.931 . S
C293 C286 1.399 . S
C293 C290 1.487 . S
C293 N325 1.343 . S
C294 C295 1.384 . S
C294 C296 1.384 . S
C294 H316 0.931 . S
C295 C294 1.384 . S
C295 C298 1.382 . S
C296 C294 1.384 . S
C296 C297 1.381 . S
C296 H317 0.930 . S
C297 C296 1.381 . S
C297 C299 1.381 . S
C297 C300 1.487 . S
C298 C295 1.382 . S
C298 C299 1.387 . S
C298 H318 0.930 . S
C299 C297 1.381 . S
C299 C298 1.387 . S
C299 H319 0.931 . S
C300 C297 1.487 . S
C300 C307 1.399 . S
C300 N325 1.343 . S
C301 C302 1.384 . S
C301 C303 1.384 . S
C301 H320 0.931 . S
C302 C301 1.384 . S
C302 C305 1.382 . S
C303 C301 1.384 . S
C303 C304 1.381 . S
C303 H321 0.930 . S
C304 C303 1.381 . S
C304 C306 1.381 . S
C304 C307 1.487 . S
C305 C302 1.382 . S
C305 C306 1.387 . S
C305 H322 0.930 . S
C306 C304 1.381 . S
C306 C305 1.387 . S
C306 H323 0.931 . S
C307 C300 1.399 . S
C307 C304 1.487 . S
C307 N324 1.343 . S
H308 C280 0.931 . S
H309 C282 0.930 . S
H310 C284 0.930 . S
H311 C285 0.931 . S
H312 C287 0.931 . S
H313 C289 0.930 . S
H314 C291 0.930 . S
H315 C292 0.931 . S
H316 C294 0.931 . S
H317 C296 0.930 . S
H318 C298 0.930 . S
H319 C299 0.931 . S
H320 C301 0.931 . S
H321 C303 0.930 . S
H322 C305 0.930 . S
H323 C306 0.931 . S
N324 C286 1.343 . S
N324 C307 1.343 . S
N325 C293 1.343 . S
N325 C300 1.343 . S
C326 C327 1.384 . S
C326 C328 1.384 . S
C326 H354 0.931 . S
C327 C326 1.384 . S
C327 C330 1.382 . S
C328 C326 1.384 . S
C328 C329 1.381 . S
C328 H355 0.930 . S
C329 C328 1.381 . S
C329 C331 1.381 . S
C329 C332 1.487 . S
C330 C327 1.382 . S
C330 C331 1.387 . S
C330 H356 0.930 . S
C331 C329 1.381 . S
C331 C330 1.387 . S
C331 H357 0.931 . S
C332 C329 1.487 . S
C332 C339 1.399 . S
C332 N370 1.343 . S
C333 C334 1.384 . S
C333 C335 1.384 . S
C333 H358 0.931 . S
C334 C333 1.384 . S
C334 C337 1.382 . S
C335 C333 1.384 . S
C335 C336 1.381 . S
C335 H359 0.930 . S
C336 C335 1.381 . S
C336 C338 1.381 . S
C336 C339 1.487 . S
C337 C334 1.382 . S
C337 C338 1.387 . S
C337 H360 0.930 . S
C338 C336 1.381 . S
C338 C337 1.387 . S
C338 H361 0.931 . S
C339 C332 1.399 . S
C339 C336 1.487 . S
C339 N371 1.343 . S
C340 C341 1.384 . S
C340 C342 1.384 . S
C340 H362 0.931 . S
C341 C340 1.384 . S
C341 C344 1.382 . S
C342 C340 1.384 . S
C342 C343 1.381 . S
C342 H363 0.930 . S
C343 C342 1.381 . S
C343 C345 1.381 . S
C343 C346 1.487 . S
C344 C341 1.382 . S
C344 C345 1.387 . S
C344 H364 0.930 . S
C345 C343 1.381 . S
C345 C344 1.387 . S
C345 H365 0.931 . S
C346 C343 1.487 . S
C346 C353 1.399 . S
C346 N371 1.343 . S
C347 C348 1.384 . S
C347 C349 1.384 . S
C347 H366 0.931 . S
C348 C347 1.384 . S
C348 C351 1.382 . S
C349 C347 1.384 . S
C349 C350 1.381 . S
C349 H367 0.930 . S
C350 C349 1.381 . S
C350 C352 1.381 . S
C350 C353 1.487 . S
C351 C348 1.382 . S
C351 C352 1.387 . S
C351 H368 0.930 . S
C352 C350 1.381 . S
C352 C351 1.387 . S
C352 H369 0.931 . S
C353 C346 1.399 . S
C353 C350 1.487 . S
C353 N370 1.343 . S
H354 C326 0.931 . S
H355 C328 0.930 . S
H356 C330 0.930 . S
H357 C331 0.931 . S
H358 C333 0.931 . S
H359 C335 0.930 . S
H360 C337 0.930 . S
H361 C338 0.931 . S
H362 C340 0.931 . S
H363 C342 0.930 . S
H364 C344 0.930 . S
H365 C345 0.931 . S
H366 C347 0.931 . S
H367 C349 0.930 . S
H368 C351 0.930 . S
H369 C352 0.931 . S
N370 C332 1.343 . S
N370 C353 1.343 . S
N371 C339 1.343 . S
N371 C346 1.343 . S
C372 C373 1.384 . S
C372 C374 1.384 . S
C372 H400 0.931 . S
C373 C372 1.384 . S
C373 C376 1.382 . S
C374 C372 1.384 . S
C374 C375 1.381 . S
C374 H401 0.930 . S
C375 C374 1.381 . S
C375 C377 1.381 . S
C375 C378 1.487 . S
C376 C373 1.382 . S
C376 C377 1.387 . S
C376 H402 0.930 . S
C377 C375 1.381 . S
C377 C376 1.387 . S
C377 H403 0.931 . S
C378 C375 1.487 . S
C378 C385 1.399 . S
C378 N416 1.343 . S
C379 C380 1.384 . S
C379 C381 1.384 . S
C379 H404 0.931 . S
C380 C379 1.384 . S
C380 C383 1.382 . S
C381 C379 1.384 . S
C381 C382 1.381 . S
C381 H405 0.930 . S
C382 C381 1.381 . S
C382 C384 1.381 . S
C382 C385 1.487 . S
C383 C380 1.382 . S
C383 C384 1.387 . S
C383 H406 0.930 . S
C384 C382 1.381 . S
C384 C383 1.387 . S
C384 H407 0.931 . S
C385 C378 1.399 . S
C385 C382 1.487 . S
C385 N417 1.343 . S
C386 C387 1.384 . S
C386 C388 1.384 . S
C386 H408 0.931 . S
C387 C386 1.384 . S
C387 C390 1.382 . S
C388 C386 1.384 . S
C388 C389 1.381 . S
C388 H409 0.930 . S
C389 C388 1.381 . S
C389 C391 1.381 . S
C389 C392 1.487 . S
C390 C387 1.382 . S
C390 C391 1.387 . S
C390 H410 0.930 . S
C391 C389 1.381 . S
C391 C390 1.387 . S
C391 H411 0.931 . S
C392 C389 1.487 . S
C392 C399 1.399 . S
C392 N417 1.343 . S
C393 C394 1.384 . S
C393 C395 1.384 . S
C393 H412 0.931 . S
C394 C393 1.384 . S
C394 C397 1.382 . S
C395 C393 1.384 . S
C395 C396 1.381 . S
C395 H413 0.930 . S
C396 C395 1.381 . S
C396 C398 1.381 . S
C396 C399 1.487 . S
C397 C394 1.382 . S
C397 C398 1.387 . S
C397 H414 0.930 . S
C398 C396 1.381 . S
C398 C397 1.387 . S
C398 H415 0.931 . S
C399 C392 1.399 . S
C399 C396 1.487 . S
C399 N416 1.343 . S
H400 C372 0.931 . S
H401 C374 0.930 . S
H402 C376 0.930 . S
H403 C377 0.931 . S
H404 C379 0.931 . S
H405 C381 0.930 . S
H406 C383 0.930 . S
H407 C384 0.931 . S
H408 C386 0.931 . S
H409 C388 0.930 . S
H410 C390 0.930 . S
H411 C391 0.931 . S
H412 C393 0.931 . S
H413 C395 0.930 . S
H414 C397 0.930 . S
H415 C398 0.931 . S
N416 C378 1.343 . S
N416 C399 1.343 . S
N417 C385 1.343 . S
N417 C392 1.343 . S
C418 C419 1.384 . S
C418 C420 1.384 . S
C418 H446 0.931 . S
C419 C418 1.384 . S
C419 C422 1.382 . S
C420 C418 1.384 . S
C420 C421 1.381 . S
C420 H447 0.930 . S
C421 C420 1.381 . S
C421 C423 1.381 . S
C421 C424 1.487 . S
C422 C419 1.382 . S
C422 C423 1.387 . S
C422 H448 0.930 . S
C423 C421 1.381 . S
C423 C422 1.387 . S
C423 H449 0.931 . S
C424 C421 1.487 . S
C424 C431 1.399 . S
C424 N462 1.343 . S
C425 C426 1.384 . S
C425 C427 1.384 . S
C425 H450 0.931 . S
C426 C425 1.384 . S
C426 C429 1.382 . S
C427 C425 1.384 . S
C427 C428 1.381 . S
C427 H451 0.930 . S
C428 C427 1.381 . S
C428 C430 1.381 . S
C428 C431 1.487 . S
C429 C426 1.382 . S
C429 C430 1.387 . S
C429 H452 0.930 . S
C430 C428 1.381 . S
C430 C429 1.387 . S
C430 H453 0.931 . S
C431 C424 1.399 . S
C431 C428 1.487 . S
C431 N463 1.343 . S
C432 C433 1.384 . S
C432 C434 1.384 . S
C432 H454 0.931 . S
C433 C432 1.384 . S
C433 C436 1.382 . S
C434 C432 1.384 . S
C434 C435 1.381 . S
C434 H455 0.930 . S
C435 C434 1.381 . S
C435 C437 1.381 . S
C435 C438 1.487 . S
C436 C433 1.382 . S
C436 C437 1.387 . S
C436 H456 0.930 . S
C437 C435 1.381 . S
C437 C436 1.387 . S
C437 H457 0.931 . S
C438 C435 1.487 . S
C438 C445 1.399 . S
C438 N463 1.343 . S
C439 C440 1.384 . S
C439 C441 1.384 . S
C439 H458 0.931 . S
C440 C439 1.384 . S
C440 C443 1.382 . S
C441 C439 1.384 . S
C441 C442 1.381 . S
C441 H459 0.930 . S
C442 C441 1.381 . S
C442 C444 1.381 . S
C442 C445 1.487 . S
C443 C440 1.382 . S
C443 C444 1.387 . S
C443 H460 0.930 . S
C444 C442 1.381 . S
C444 C443 1.387 . S
C444 H461 0.931 . S
C445 C438 1.399 . S
C445 C442 1.487 . S
C445 N462 1.343 . S
H446 C418 0.931 . S
H447 C420 0.930 . S
H448 C422 0.930 . S
H449 C423 0.931 . S
H450 C425 0.931 . S
H451 C427 0.930 . S
H452 C429 0.930 . S
H453 C430 0.931 . S
H454 C432 0.931 . S
H455 C434 0.930 . S
H456 C436 0.930 . S
H457 C437 0.931 . S
H458 C439 0.931 . S
H459 C441 0.930 . S
H460 C443 0.930 . S
H461 C444 0.931 . S
N462 C424 1.343 . S
N462 C445 1.343 . S
N463 C431 1.343 . S
N463 C438 1.343 . S
C464 C465 1.384 . S
C464 C466 1.384 . S
C464 H492 0.931 . S
C465 C464 1.384 . S
C465 C468 1.382 . S
C466 C464 1.384 . S
C466 C467 1.381 . S
C466 H493 0.930 . S
C467 C466 1.381 . S
C467 C469 1.381 . S
C467 C470 1.487 . S
C468 C465 1.382 . S
C468 C469 1.387 . S
C468 H494 0.930 . S
C469 C467 1.381 . S
C469 C468 1.387 . S
C469 H495 0.931 . S
C470 C467 1.487 . S
C470 C477 1.399 . S
C470 N508 1.343 . S
C471 C472 1.384 . S
C471 C473 1.384 . S
C471 H496 0.931 . S
C472 C471 1.384 . S
C472 C475 1.382 . S
C473 C471 1.384 . S
C473 C474 1.381 . S
C473 H497 0.930 . S
C474 C473 1.381 . S
C474 C476 1.381 . S
C474 C477 1.487 . S
C475 C472 1.382 . S
C475 C476 1.387 . S
C475 H498 0.930 . S
C476 C474 1.381 . S
C476 C475 1.387 . S
C476 H499 0.931 . S
C477 C470 1.399 . S
C477 C474 1.487 . S
C477 N509 1.343 . S
C478 C479 1.384 . S
C478 C480 1.384 . S
C478 H500 0.931 . S
C479 C478 1.384 . S
C479 C482 1.382 . S
C480 C478 1.384 . S
C480 C481 1.381 . S
C480 H501 0.930 . S
C481 C480 1.381 . S
C481 C483 1.381 . S
C481 C484 1.487 . S
C482 C479 1.382 . S
C482 C483 1.387 . S
C482 H502 0.930 . S
C483 C481 1.381 . S
C483 C482 1.387 . S
C483 H503 0.931 . S
C484 C481 1.487 . S
C484 C491 1.399 . S
C484 N509 1.343 . S
C485 C486 1.384 . S
C485 C487 1.384 . S
C485 H504 0.931 . S
C486 C485 1.384 . S
C486 C489 1.382 . S
C487 C485 1.384 . S
C487 C488 1.381 . S
C487 H505 0.930 . S
C488 C487 1.381 . S
C488 C490 1.381 . S
C488 C491 1.487 . S
C489 C486 1.382 . S
C489 C490 1.387 . S
C489 H506 0.930 . S
C490 C488 1.381 . S
C490 C489 1.387 . S
C490 H507 0.931 . S
C491 C484 1.399 . S
C491 C488 1.487 . S
C491 N508 1.343 . S
H492 C464 0.931 . S
H493 C466 0.930 . S
H494 C468 0.930 . S
H495 C469 0.931 . S
H496 C471 0.931 . S
H497 C473 0.930 . S
H498 C475 0.930 . S
H499 C476 0.931 . S
H500 C478 0.931 . S
H501 C480 0.930 . S
H502 C482 0.930 . S
H503 C483 0.931 . S
H504 C485 0.931 . S
H505 C487 0.930 . S
H506 C489 0.930 . S
H507 C490 0.931 . S
N508 C470 1.343 . S
N508 C491 1.343 . S
N509 C477 1.343 . S
N509 C484 1.343 . S
C510 C511 1.384 . S
C510 C512 1.384 . S
C510 H538 0.931 . S
C511 C510 1.384 . S
C511 C514 1.382 . S
C512 C510 1.384 . S
C512 C513 1.381 . S
C512 H539 0.930 . S
C513 C512 1.381 . S
C513 C515 1.381 . S
C513 C516 1.487 . S
C514 C511 1.382 . S
C514 C515 1.387 . S
C514 H540 0.930 . S
C515 C513 1.381 . S
C515 C514 1.387 . S
C515 H541 0.931 . S
C516 C513 1.487 . S
C516 C523 1.399 . S
C516 N554 1.343 . S
C517 C518 1.384 . S
C517 C519 1.384 . S
C517 H542 0.931 . S
C518 C517 1.384 . S
C518 C521 1.382 . S
C519 C517 1.384 . S
C519 C520 1.381 . S
C519 H543 0.930 . S
C520 C519 1.381 . S
C520 C522 1.381 . S
C520 C523 1.487 . S
C521 C518 1.382 . S
C521 C522 1.387 . S
C521 H544 0.930 . S
C522 C520 1.381 . S
C522 C521 1.387 . S
C522 H545 0.931 . S
C523 C516 1.399 . S
C523 C520 1.487 . S
C523 N555 1.343 . S
C524 C525 1.384 . S
C524 C526 1.384 . S
C524 H546 0.931 . S
C525 C524 1.384 . S
C525 C528 1.382 . S
C526 C524 1.384 . S
C526 C527 1.381 . S
C526 H547 0.930 . S
C527 C526 1.381 . S
C527 C529 1.381 . S
C527 C530 1.487 . S
C528 C525 1.382 . S
C528 C529 1.387 . S
C528 H548 0.930 . S
C529 C527 1.381 . S
C529 C528 1.387 . S
C529 H549 0.931 . S
C530 C527 1.487 . S
C530 C537 1.399 . S
C530 N555 1.343 . S
C531 C532 1.384 . S
C531 C533 1.384 . S
C531 H550 0.931 . S
C532 C531 1.384 . S
C532 C535 1.382 . S
C533 C531 1.384 . S
C533 C534 1.381 . S
C533 H551 0.930 . S
C534 C533 1.381 . S
C534 C536 1.381 . S
C534 C537 1.487 . S
C535 C532 1.382 . S
C535 C536 1.387 . S
C535 H552 0.930 . S
C536 C534 1.381 . S
C536 C535 1.387 . S
C536 H553 0.931 . S
C537 C530 1.399 . S
C537 C534 1.487 . S
C537 N554 1.343 . S
H538 C510 0.931 . S
H539 C512 0.930 . S
H540 C514 0.930 . S
H541 C515 0.931 . S
H542 C517 0.931 . S
H543 C519 0.930 . S
H544 C521 0.930 . S
H545 C522 0.931 . S
H546 C524 0.931 . S
H547 C526 0.930 . S
H548 C528 0.930 . S
H549 C529 0.931 . S
H550 C531 0.931 . S
H551 C533 0.930 . S
H552 C535 0.930 . S
H553 C536 0.931 . S
N554 C516 1.343 . S
N554 C537 1.343 . S
N555 C523 1.343 . S
N555 C530 1.343 . S
C556 C557 1.384 . S
C556 C558 1.384 . S
C556 H584 0.931 . S
C557 C556 1.384 . S
C557 C560 1.382 . S
C558 C556 1.384 . S
C558 C559 1.381 . S
C558 H585 0.930 . S
C559 C558 1.381 . S
C559 C561 1.381 . S
C559 C562 1.487 . S
C560 C557 1.382 . S
C560 C561 1.387 . S
C560 H586 0.930 . S
C561 C559 1.381 . S
C561 C560 1.387 . S
C561 H587 0.931 . S
C562 C559 1.487 . S
C562 C569 1.399 . S
C562 N600 1.343 . S
C563 C564 1.384 . S
C563 C565 1.384 . S
C563 H588 0.931 . S
C564 C563 1.384 . S
C564 C567 1.382 . S
C565 C563 1.384 . S
C565 C566 1.381 . S
C565 H589 0.930 . S
C566 C565 1.381 . S
C566 C568 1.381 . S
C566 C569 1.487 . S
C567 C564 1.382 . S
C567 C568 1.387 . S
C567 H590 0.930 . S
C568 C566 1.381 . S
C568 C567 1.387 . S
C568 H591 0.931 . S
C569 C562 1.399 . S
C569 C566 1.487 . S
C569 N601 1.343 . S
C570 C571 1.384 . S
C570 C572 1.384 . S
C570 H592 0.931 . S
C571 C570 1.384 . S
C571 C574 1.382 . S
C572 C570 1.384 . S
C572 C573 1.381 . S
C572 H593 0.930 . S
C573 C572 1.381 . S
C573 C575 1.381 . S
C573 C576 1.487 . S
C574 C571 1.382 . S
C574 C575 1.387 . S
C574 H594 0.930 . S
C575 C573 1.381 . S
C575 C574 1.387 . S
C575 H595 0.931 . S
C576 C573 1.487 . S
C576 C583 1.399 . S
C576 N601 1.343 . S
C577 C578 1.384 . S
C577 C579 1.384 . S
C577 H596 0.931 . S
C578 C577 1.384 . S
C578 C581 1.382 . S
C579 C577 1.384 . S
C579 C580 1.381 . S
C579 H597 0.930 . S
C580 C579 1.381 . S
C580 C582 1.381 . S
C580 C583 1.487 . S
C581 C578 1.382 . S
C581 C582 1.387 . S
C581 H598 0.930 . S
C582 C580 1.381 . S
C582 C581 1.387 . S
C582 H599 0.931 . S
C583 C576 1.399 . S
C583 C580 1.487 . S
C583 N600 1.343 . S
H584 C556 0.931 . S
H585 C558 0.930 . S
H586 C560 0.930 . S
H587 C561 0.931 . S
H588 C563 0.931 . S
H589 C565 0.930 . S
H590 C567 0.930 . S
H591 C568 0.931 . S
H592 C570 0.931 . S
H593 C572 0.930 . S
H594 C574 0.930 . S
H595 C575 0.931 . S
H596 C577 0.931 . S
H597 C579 0.930 . S
H598 C581 0.930 . S
H599 C582 0.931 . S
N600 C562 1.343 . S
N600 C583 1.343 . S
N601 C569 1.343 . S
N601 C576 1.343 . S
C602 C603 1.384 . S
C602 C604 1.384 . S
C602 H630 0.931 . S
C603 C602 1.384 . S
C603 C606 1.382 . S
C604 C602 1.384 . S
C604 C605 1.381 . S
C604 H631 0.930 . S
C605 C604 1.381 . S
C605 C607 1.381 . S
C605 C608 1.487 . S
C606 C603 1.382 . S
C606 C607 1.387 . S
C606 H632 0.930 . S
C607 C605 1.381 . S
C607 C606 1.387 . S
C607 H633 0.931 . S
C608 C605 1.487 . S
C608 C615 1.399 . S
C608 N646 1.343 . S
C609 C610 1.384 . S
C609 C611 1.384 . S
C609 H634 0.931 . S
C610 C609 1.384 . S
C610 C613 1.382 . S
C611 C609 1.384 . S
C611 C612 1.381 . S
C611 H635 0.930 . S
C612 C611 1.381 . S
C612 C614 1.381 . S
C612 C615 1.487 . S
C613 C610 1.382 . S
C613 C614 1.387 . S
C613 H636 0.930 . S
C614 C612 1.381 . S
C614 C613 1.387 . S
C614 H637 0.931 . S
C615 C608 1.399 . S
C615 C612 1.487 . S
C615 N647 1.343 . S
C616 C617 1.384 . S
C616 C618 1.384 . S
C616 H638 0.931 . S
C617 C616 1.384 . S
C617 C620 1.382 . S
C618 C616 1.384 . S
C618 C619 1.381 . S
C618 H639 0.930 . S
C619 C618 1.381 . S
C619 C621 1.381 . S
C619 C622 1.487 . S
C620 C617 1.382 . S
C620 C621 1.387 . S
C620 H640 0.930 . S
C621 C619 1.381 . S
C621 C620 1.387 . S
C621 H641 0.931 . S
C622 C619 1.487 . S
C622 C629 1.399 . S
C622 N647 1.343 . S
C623 C624 1.384 . S
C623 C625 1.384 . S
C623 H642 0.931 . S
C624 C623 1.384 . S
C624 C627 1.382 . S
C625 C623 1.384 . S
C625 C626 1.381 . S
C625 H643 0.930 . S
C626 C625 1.381 . S
C626 C628 1.381 . S
C626 C629 1.487 . S
C627 C624 1.382 . S
C627 C628 1.387 . S
C627 H644 0.930 . S
C628 C626 1.381 . S
C628 C627 1.387 . S
C628 H645 0.931 . S
C629 C622 1.399 . S
C629 C626 1.487 . S
C629 N646 1.343 . S
H630 C602 0.931 . S
H631 C604 0.930 . S
H632 C606 0.930 . S
H633 C607 0.931 . S
H634 C609 0.931 . S
H635 C611 0.930 . S
H636 C613 0.930 . S
H637 C614 0.931 . S
H638 C616 0.931 . S
H639 C618 0.930 . S
H640 C620 0.930 . S
H641 C621 0.931 . S
H642 C623 0.931 . S
H643 C625 0.930 . S
H644 C627 0.930 . S
H645 C628 0.931 . S
N646 C608 1.343 . S
N646 C629 1.343 . S
N647 C615 1.343 . S
N647 C622 1.343 . S
C648 C649 1.384 . S
C648 C650 1.384 . S
C648 H676 0.931 . S
C649 C648 1.384 . S
C649 C652 1.382 1_655 S
C650 C648 1.384 . S
C650 C651 1.387 . S
C650 H677 0.930 . S
C651 C650 1.387 . S
C651 C653 1.378 1_655 S
C651 C654 1.477 1_655 S
C652 C649 1.382 1_455 S
C652 C653 1.387 . S
C652 H678 0.930 . S
C653 C651 1.378 1_455 S
C653 C652 1.387 . S
C653 H679 0.931 . S
C654 C651 1.477 1_455 S
C654 C661 1.399 1_455 S
C654 N692 1.319 . S
C655 C656 1.384 . S
C655 C657 1.384 . S
C655 H680 0.931 . S
C656 C655 1.384 . S
C656 C659 1.382 1_455 S
C657 C655 1.384 . S
C657 C658 1.384 . S
C657 H681 0.930 . S
C658 C657 1.384 . S
C658 C660 1.373 1_455 S
C658 C661 1.494 1_455 S
C659 C656 1.382 1_655 S
C659 C660 1.387 . S
C659 H682 0.930 . S
C660 C658 1.373 1_655 S
C660 C659 1.387 . S
C660 H683 0.931 . S
C661 C654 1.399 1_655 S
C661 C658 1.494 1_655 S
C661 N693 1.364 . S
C662 C663 1.384 . S
C662 C664 1.384 . S
C662 H684 0.931 . S
C663 C662 1.384 . S
C663 C666 1.382 1_455 S
C664 C662 1.384 . S
C664 C665 1.403 . S
C664 H685 0.930 . S
C665 C664 1.403 . S
C665 C667 1.370 1_455 S
C665 C668 1.477 1_455 S
C666 C663 1.382 1_655 S
C666 C667 1.387 . S
C666 H686 0.930 . S
C667 C665 1.370 1_655 S
C667 C666 1.387 . S
C667 H687 0.931 . S
C668 C665 1.477 1_655 S
C668 C675 1.399 1_655 S
C668 N693 1.319 . S
C669 C670 1.384 . S
C669 C671 1.384 . S
C669 H688 0.931 . S
C670 C669 1.384 . S
C670 C673 1.382 1_655 S
C671 C669 1.384 . S
C671 C672 1.381 . S
C671 H689 0.930 . S
C672 C671 1.381 . S
C672 C674 1.382 1_655 S
C672 C675 1.494 1_655 S
C673 C670 1.382 1_455 S
C673 C674 1.387 . S
C673 H690 0.930 . S
C674 C672 1.382 1_455 S
C674 C673 1.387 . S
C674 H691 0.931 . S
C675 C668 1.399 1_455 S
C675 C672 1.494 1_455 S
C675 N692 1.364 . S
H676 C648 0.931 . S
H677 C650 0.930 . S
H678 C652 0.930 . S
H679 C653 0.931 . S
H680 C655 0.931 . S
H681 C657 0.930 . S
H682 C659 0.930 . S
H683 C660 0.931 . S
H684 C662 0.931 . S
H685 C664 0.930 . S
H686 C666 0.930 . S
H687 C667 0.931 . S
H688 C669 0.931 . S
H689 C671 0.930 . S
H690 C673 0.930 . S
H691 C674 0.931 . S
N692 C654 1.319 . S
N692 C675 1.364 . S
N693 C661 1.364 . S
N693 C668 1.319 . S
C694 C695 1.384 . S
C694 C696 1.384 . S
C694 H722 0.931 . S
C695 C694 1.384 . S
C695 C698 1.382 . S
C696 C694 1.384 . S
C696 C697 1.381 . S
C696 H723 0.930 . S
C697 C696 1.381 . S
C697 C699 1.381 . S
C697 C700 1.487 . S
C698 C695 1.382 . S
C698 C699 1.387 . S
C698 H724 0.930 . S
C699 C697 1.381 . S
C699 C698 1.387 . S
C699 H725 0.931 . S
C700 C697 1.487 . S
C700 C707 1.399 . S
C700 N738 1.343 . S
C701 C702 1.384 . S
C701 C703 1.384 . S
C701 H726 0.931 . S
C702 C701 1.384 . S
C702 C705 1.382 . S
C703 C701 1.384 . S
C703 C704 1.381 . S
C703 H727 0.930 . S
C704 C703 1.381 . S
C704 C706 1.381 . S
C704 C707 1.487 . S
C705 C702 1.382 . S
C705 C706 1.387 . S
C705 H728 0.930 . S
C706 C704 1.381 . S
C706 C705 1.387 . S
C706 H729 0.931 . S
C707 C700 1.399 . S
C707 C704 1.487 . S
C707 N739 1.343 . S
C708 C709 1.384 . S
C708 C710 1.384 . S
C708 H730 0.931 . S
C709 C708 1.384 . S
C709 C712 1.382 . S
C710 C708 1.384 . S
C710 C711 1.381 . S
C710 H731 0.930 . S
C711 C710 1.381 . S
C711 C713 1.381 . S
C711 C714 1.487 . S
C712 C709 1.382 . S
C712 C713 1.387 . S
C712 H732 0.930 . S
C713 C711 1.381 . S
C713 C712 1.387 . S
C713 H733 0.931 . S
C714 C711 1.487 . S
C714 C721 1.399 . S
C714 N739 1.343 . S
C715 C716 1.384 . S
C715 C717 1.384 . S
C715 H734 0.931 . S
C716 C715 1.384 . S
C716 C719 1.382 . S
C717 C715 1.384 . S
C717 C718 1.381 . S
C717 H735 0.930 . S
C718 C717 1.381 . S
C718 C720 1.381 . S
C718 C721 1.487 . S
C719 C716 1.382 . S
C719 C720 1.387 . S
C719 H736 0.930 . S
C720 C718 1.381 . S
C720 C719 1.387 . S
C720 H737 0.931 . S
C721 C714 1.399 . S
C721 C718 1.487 . S
C721 N738 1.343 . S
H722 C694 0.931 . S
H723 C696 0.930 . S
H724 C698 0.930 . S
H725 C699 0.931 . S
H726 C701 0.931 . S
H727 C703 0.930 . S
H728 C705 0.930 . S
H729 C706 0.931 . S
H730 C708 0.931 . S
H731 C710 0.930 . S
H732 C712 0.930 . S
H733 C713 0.931 . S
H734 C715 0.931 . S
H735 C717 0.930 . S
H736 C719 0.930 . S
H737 C720 0.931 . S
N738 C700 1.343 . S
N738 C721 1.343 . S
N739 C707 1.343 . S
N739 C714 1.343 . S
C740 C741 1.384 1_545 S
C740 C742 1.384 . S
C740 H768 0.931 . S
C741 C740 1.384 1_565 S
C741 C744 1.382 . S
C742 C740 1.384 . S
C742 C743 1.381 1_545 S
C742 H769 0.930 . S
C743 C742 1.381 1_565 S
C743 C745 1.381 . S
C743 C746 1.487 . S
C744 C741 1.382 . S
C744 C745 1.387 . S
C744 H770 0.930 . S
C745 C743 1.381 . S
C745 C744 1.387 . S
C745 H771 0.931 . S
C746 C743 1.487 . S
C746 C753 1.399 1_565 S
C746 N784 1.343 . S
C747 C748 1.384 1_565 S
C747 C749 1.384 . S
C747 H772 0.931 . S
C748 C747 1.384 1_545 S
C748 C751 1.382 . S
C749 C747 1.384 . S
C749 C750 1.381 1_565 S
C749 H773 0.930 . S
C750 C749 1.381 1_545 S
C750 C752 1.381 . S
C750 C753 1.487 . S
C751 C748 1.382 . S
C751 C752 1.387 . S
C751 H774 0.930 . S
C752 C750 1.381 . S
C752 C751 1.387 . S
C752 H775 0.931 . S
C753 C746 1.399 1_545 S
C753 C750 1.487 . S
C753 N785 1.343 . S
C754 C755 1.384 1_565 S
C754 C756 1.384 . S
C754 H776 0.931 . S
C755 C754 1.384 1_545 S
C755 C758 1.382 . S
C756 C754 1.384 . S
C756 C757 1.381 1_565 S
C756 H777 0.930 . S
C757 C756 1.381 1_545 S
C757 C759 1.381 . S
C757 C760 1.487 . S
C758 C755 1.382 . S
C758 C759 1.387 . S
C758 H778 0.930 . S
C759 C757 1.381 . S
C759 C758 1.387 . S
C759 H779 0.931 . S
C760 C757 1.487 . S
C760 C767 1.399 1_545 S
C760 N785 1.343 . S
C761 C762 1.384 1_545 S
C761 C763 1.384 . S
C761 H780 0.931 . S
C762 C761 1.384 1_565 S
C762 C765 1.382 . S
C763 C761 1.384 . S
C763 C764 1.381 1_545 S
C763 H781 0.930 . S
C764 C763 1.381 1_565 S
C764 C766 1.381 . S
C764 C767 1.487 . S
C765 C762 1.382 . S
C765 C766 1.387 . S
C765 H782 0.930 . S
C766 C764 1.381 . S
C766 C765 1.387 . S
C766 H783 0.931 . S
C767 C760 1.399 1_565 S
C767 C764 1.487 . S
C767 N784 1.343 . S
H768 C740 0.931 . S
H769 C742 0.930 . S
H770 C744 0.930 . S
H771 C745 0.931 . S
H772 C747 0.931 . S
H773 C749 0.930 . S
H774 C751 0.930 . S
H775 C752 0.931 . S
H776 C754 0.931 . S
H777 C756 0.930 . S
H778 C758 0.930 . S
H779 C759 0.931 . S
H780 C761 0.931 . S
H781 C763 0.930 . S
H782 C765 0.930 . S
H783 C766 0.931 . S
N784 C746 1.343 . S
N784 C767 1.343 . S
N785 C753 1.343 . S
N785 C760 1.343 . S
C786 C787 1.384 . S
C786 C788 1.384 . S
C786 H814 0.931 . S
C787 C786 1.384 . S
C787 C790 1.382 1_545 S
C788 C786 1.384 . S
C788 C789 1.384 . S
C788 H815 0.930 . S
C789 C788 1.384 . S
C789 C791 1.374 1_545 S
C789 C792 1.494 1_545 S
C790 C787 1.382 1_565 S
C790 C791 1.387 . S
C790 H816 0.930 . S
C791 C789 1.374 1_565 S
C791 C790 1.387 . S
C791 H817 0.931 . S
C792 C789 1.494 1_565 S
C792 C799 1.399 1_565 S
C792 N830 1.364 . S
C793 C794 1.384 . S
C793 C795 1.384 . S
C793 H818 0.931 . S
C794 C793 1.384 . S
C794 C797 1.382 1_565 S
C795 C793 1.384 . S
C795 C796 1.388 . S
C795 H819 0.930 . S
C796 C795 1.388 . S
C796 C798 1.378 1_565 S
C796 C799 1.477 1_565 S
C797 C794 1.382 1_545 S
C797 C798 1.387 . S
C797 H820 0.930 . S
C798 C796 1.378 1_545 S
C798 C797 1.387 . S
C798 H821 0.931 . S
C799 C792 1.399 1_545 S
C799 C796 1.477 1_545 S
C799 N831 1.318 . S
C800 C801 1.384 . S
C800 C802 1.384 . S
C800 H822 0.931 . S
C801 C800 1.384 . S
C801 C804 1.382 1_565 S
C802 C800 1.384 . S
C802 C803 1.381 . S
C802 H823 0.930 . S
C803 C802 1.381 . S
C803 C805 1.383 1_565 S
C803 C806 1.494 1_565 S
C804 C801 1.382 1_545 S
C804 C805 1.387 . S
C804 H824 0.930 . S
C805 C803 1.383 1_545 S
C805 C804 1.387 . S
C805 H825 0.931 . S
C806 C803 1.494 1_545 S
C806 C813 1.399 1_545 S
C806 N831 1.364 . S
C807 C808 1.384 . S
C807 C809 1.384 . S
C807 H826 0.931 . S
C808 C807 1.384 . S
C808 C811 1.382 1_545 S
C809 C807 1.384 . S
C809 C810 1.404 . S
C809 H827 0.930 . S
C810 C809 1.404 . S
C810 C812 1.369 1_545 S
C810 C813 1.477 1_545 S
C811 C808 1.382 1_565 S
C811 C812 1.387 . S
C811 H828 0.930 . S
C812 C810 1.369 1_565 S
C812 C811 1.387 . S
C812 H829 0.931 . S
C813 C806 1.399 1_565 S
C813 C810 1.477 1_565 S
C813 N830 1.318 . S
H814 C786 0.931 . S
H815 C788 0.930 . S
H816 C790 0.930 . S
H817 C791 0.931 . S
H818 C793 0.931 . S
H819 C795 0.930 . S
H820 C797 0.930 . S
H821 C798 0.931 . S
H822 C800 0.931 . S
H823 C802 0.930 . S
H824 C804 0.930 . S
H825 C805 0.931 . S
H826 C807 0.931 . S
H827 C809 0.930 . S
H828 C811 0.930 . S
H829 C812 0.931 . S
N830 C792 1.364 . S
N830 C813 1.318 . S
N831 C799 1.318 . S
N831 C806 1.364 . S
C832 C833 1.384 . S
C832 C834 1.384 . S
C832 H860 0.931 . S
C833 C832 1.384 . S
C833 C836 1.382 1_655 S
C834 C832 1.384 . S
C834 C835 1.406 . S
C834 H861 0.930 . S
C835 C834 1.406 . S
C835 C837 1.369 1_655 S
C835 C838 1.477 1_655 S
C836 C833 1.382 1_455 S
C836 C837 1.387 . S
C836 H862 0.930 . S
C837 C835 1.369 1_455 S
C837 C836 1.387 . S
C837 H863 0.931 . S
C838 C835 1.477 1_455 S
C838 C845 1.399 1_455 S
C838 N876 1.319 . S
C839 C840 1.384 . S
C839 C841 1.384 . S
C839 H864 0.931 . S
C840 C839 1.384 . S
C840 C843 1.382 1_455 S
C841 C839 1.384 . S
C841 C842 1.381 . S
C841 H865 0.930 . S
C842 C841 1.381 . S
C842 C844 1.381 1_455 S
C842 C845 1.495 1_455 S
C843 C840 1.382 1_655 S
C843 C844 1.387 . S
C843 H866 0.930 . S
C844 C842 1.381 1_655 S
C844 C843 1.387 . S
C844 H867 0.931 . S
C845 C838 1.399 1_655 S
C845 C842 1.495 1_655 S
C845 N877 1.364 . S
C846 C847 1.384 . S
C846 C848 1.384 . S
C846 H868 0.931 . S
C847 C846 1.384 . S
C847 C850 1.382 1_455 S
C848 C846 1.384 . S
C848 C849 1.389 . S
C848 H869 0.930 . S
C849 C848 1.389 . S
C849 C851 1.377 1_455 S
C849 C852 1.477 1_455 S
C850 C847 1.382 1_655 S
C850 C851 1.387 . S
C850 H870 0.930 . S
C851 C849 1.377 1_655 S
C851 C850 1.387 . S
C851 H871 0.931 . S
C852 C849 1.477 1_655 S
C852 C859 1.399 1_655 S
C852 N877 1.319 . S
C853 C854 1.384 . S
C853 C855 1.384 . S
C853 H872 0.931 . S
C854 C853 1.384 . S
C854 C857 1.382 1_655 S
C855 C853 1.384 . S
C855 C856 1.385 . S
C855 H873 0.930 . S
C856 C855 1.385 . S
C856 C858 1.371 1_655 S
C856 C859 1.495 1_655 S
C857 C854 1.382 1_455 S
C857 C858 1.387 . S
C857 H874 0.930 . S
C858 C856 1.371 1_455 S
C858 C857 1.387 . S
C858 H875 0.931 . S
C859 C852 1.399 1_455 S
C859 C856 1.495 1_455 S
C859 N876 1.364 . S
H860 C832 0.931 . S
H861 C834 0.930 . S
H862 C836 0.930 . S
H863 C837 0.931 . S
H864 C839 0.931 . S
H865 C841 0.930 . S
H866 C843 0.930 . S
H867 C844 0.931 . S
H868 C846 0.931 . S
H869 C848 0.930 . S
H870 C850 0.930 . S
H871 C851 0.931 . S
H872 C853 0.931 . S
H873 C855 0.930 . S
H874 C857 0.930 . S
H875 C858 0.931 . S
N876 C838 1.319 . S
N876 C859 1.364 . S
N877 C845 1.364 . S
N877 C852 1.319 . S
C878 C879 1.384 . S
C878 C880 1.384 . S
C878 H906 0.931 . S
C879 C878 1.384 . S
C879 C882 1.382 . S
C880 C878 1.384 . S
C880 C881 1.381 . S
C880 H907 0.930 . S
C881 C880 1.381 . S
C881 C883 1.381 . S
C881 C884 1.487 . S
C882 C879 1.382 . S
C882 C883 1.387 . S
C882 H908 0.930 . S
C883 C881 1.381 . S
C883 C882 1.387 . S
C883 H909 0.931 . S
C884 C881 1.487 . S
C884 C891 1.399 . S
C884 N922 1.343 . S
C885 C886 1.384 . S
C885 C887 1.384 . S
C885 H910 0.931 . S
C886 C885 1.384 . S
C886 C889 1.382 . S
C887 C885 1.384 . S
C887 C888 1.381 . S
C887 H911 0.930 . S
C888 C887 1.381 . S
C888 C890 1.381 . S
C888 C891 1.487 . S
C889 C886 1.382 . S
C889 C890 1.387 . S
C889 H912 0.930 . S
C890 C888 1.381 . S
C890 C889 1.387 . S
C890 H913 0.931 . S
C891 C884 1.399 . S
C891 C888 1.487 . S
C891 N923 1.343 . S
C892 C893 1.384 . S
C892 C894 1.384 . S
C892 H914 0.931 . S
C893 C892 1.384 . S
C893 C896 1.382 . S
C894 C892 1.384 . S
C894 C895 1.381 . S
C894 H915 0.930 . S
C895 C894 1.381 . S
C895 C897 1.381 . S
C895 C898 1.487 . S
C896 C893 1.382 . S
C896 C897 1.387 . S
C896 H916 0.930 . S
C897 C895 1.381 . S
C897 C896 1.387 . S
C897 H917 0.931 . S
C898 C895 1.487 . S
C898 C905 1.399 . S
C898 N923 1.343 . S
C899 C900 1.384 . S
C899 C901 1.384 . S
C899 H918 0.931 . S
C900 C899 1.384 . S
C900 C903 1.382 . S
C901 C899 1.384 . S
C901 C902 1.381 . S
C901 H919 0.930 . S
C902 C901 1.381 . S
C902 C904 1.381 . S
C902 C905 1.487 . S
C903 C900 1.382 . S
C903 C904 1.387 . S
C903 H920 0.930 . S
C904 C902 1.381 . S
C904 C903 1.387 . S
C904 H921 0.931 . S
C905 C898 1.399 . S
C905 C902 1.487 . S
C905 N922 1.343 . S
H906 C878 0.931 . S
H907 C880 0.930 . S
H908 C882 0.930 . S
H909 C883 0.931 . S
H910 C885 0.931 . S
H911 C887 0.930 . S
H912 C889 0.930 . S
H913 C890 0.931 . S
H914 C892 0.931 . S
H915 C894 0.930 . S
H916 C896 0.930 . S
H917 C897 0.931 . S
H918 C899 0.931 . S
H919 C901 0.930 . S
H920 C903 0.930 . S
H921 C904 0.931 . S
N922 C884 1.343 . S
N922 C905 1.343 . S
N923 C891 1.343 . S
N923 C898 1.343 . S
C924 C925 1.384 . S
C924 C926 1.384 . S
C924 H952 0.931 . S
C925 C924 1.384 . S
C925 C928 1.382 . S
C926 C924 1.384 . S
C926 C927 1.381 . S
C926 H953 0.930 . S
C927 C926 1.381 . S
C927 C929 1.381 . S
C927 C930 1.487 . S
C928 C925 1.382 . S
C928 C929 1.387 . S
C928 H954 0.930 . S
C929 C927 1.381 . S
C929 C928 1.387 . S
C929 H955 0.931 . S
C930 C927 1.487 . S
C930 C937 1.399 . S
C930 N968 1.343 . S
C931 C932 1.384 . S
C931 C933 1.384 . S
C931 H956 0.931 . S
C932 C931 1.384 . S
C932 C935 1.382 . S
C933 C931 1.384 . S
C933 C934 1.381 . S
C933 H957 0.930 . S
C934 C933 1.381 . S
C934 C936 1.381 . S
C934 C937 1.487 . S
C935 C932 1.382 . S
C935 C936 1.387 . S
C935 H958 0.930 . S
C936 C934 1.381 . S
C936 C935 1.387 . S
C936 H959 0.931 . S
C937 C930 1.399 . S
C937 C934 1.487 . S
C937 N969 1.343 . S
C938 C939 1.384 . S
C938 C940 1.384 . S
C938 H960 0.931 . S
C939 C938 1.384 . S
C939 C942 1.382 . S
C940 C938 1.384 . S
C940 C941 1.381 . S
C940 H961 0.930 . S
C941 C940 1.381 . S
C941 C943 1.381 . S
C941 C944 1.487 . S
C942 C939 1.382 . S
C942 C943 1.387 . S
C942 H962 0.930 . S
C943 C941 1.381 . S
C943 C942 1.387 . S
C943 H963 0.931 . S
C944 C941 1.487 . S
C944 C951 1.399 . S
C944 N969 1.343 . S
C945 C946 1.384 . S
C945 C947 1.384 . S
C945 H964 0.931 . S
C946 C945 1.384 . S
C946 C949 1.382 . S
C947 C945 1.384 . S
C947 C948 1.381 . S
C947 H965 0.930 . S
C948 C947 1.381 . S
C948 C950 1.381 . S
C948 C951 1.487 . S
C949 C946 1.382 . S
C949 C950 1.387 . S
C949 H966 0.930 . S
C950 C948 1.381 . S
C950 C949 1.387 . S
C950 H967 0.931 . S
C951 C944 1.399 . S
C951 C948 1.487 . S
C951 N968 1.343 . S
H952 C924 0.931 . S
H953 C926 0.930 . S
H954 C928 0.930 . S
H955 C929 0.931 . S
H956 C931 0.931 . S
H957 C933 0.930 . S
H958 C935 0.930 . S
H959 C936 0.931 . S
H960 C938 0.931 . S
H961 C940 0.930 . S
H962 C942 0.930 . S
H963 C943 0.931 . S
H964 C945 0.931 . S
H965 C947 0.930 . S
H966 C949 0.930 . S
H967 C950 0.931 . S
N968 C930 1.343 . S
N968 C951 1.343 . S
N969 C937 1.343 . S
N969 C944 1.343 . S
C970 C971 1.384 . S
C970 C972 1.384 . S
C970 H998 0.931 . S
C971 C970 1.384 . S
C971 C974 1.382 . S
C972 C970 1.384 . S
C972 C973 1.381 . S
C972 H999 0.930 . S
C973 C972 1.381 . S
C973 C975 1.381 . S
C973 C976 1.487 . S
C974 C971 1.382 . S
C974 C975 1.387 . S
C974 H1000 0.930 . S
C975 C973 1.381 . S
C975 C974 1.387 . S
C975 H1001 0.931 . S
C976 C973 1.487 . S
C976 C983 1.399 . S
C976 N1014 1.343 . S
C977 C978 1.384 . S
C977 C979 1.384 . S
C977 H1002 0.931 . S
C978 C977 1.384 . S
C978 C981 1.382 . S
C979 C977 1.384 . S
C979 C980 1.381 . S
C979 H1003 0.930 . S
C980 C979 1.381 . S
C980 C982 1.381 . S
C980 C983 1.487 . S
C981 C978 1.382 . S
C981 C982 1.387 . S
C981 H1004 0.930 . S
C982 C980 1.381 . S
C982 C981 1.387 . S
C982 H1005 0.931 . S
C983 C976 1.399 . S
C983 C980 1.487 . S
C983 N1015 1.343 . S
C984 C985 1.384 . S
C984 C986 1.384 . S
C984 H1006 0.931 . S
C985 C984 1.384 . S
C985 C988 1.382 . S
C986 C984 1.384 . S
C986 C987 1.381 . S
C986 H1007 0.930 . S
C987 C986 1.381 . S
C987 C989 1.381 . S
C987 C990 1.487 . S
C988 C985 1.382 . S
C988 C989 1.387 . S
C988 H1008 0.930 . S
C989 C987 1.381 . S
C989 C988 1.387 . S
C989 H1009 0.931 . S
C990 C987 1.487 . S
C990 C997 1.399 . S
C990 N1015 1.343 . S
C991 C992 1.384 . S
C991 C993 1.384 . S
C991 H1010 0.931 . S
C992 C991 1.384 . S
C992 C995 1.382 . S
C993 C991 1.384 . S
C993 C994 1.381 . S
C993 H1011 0.930 . S
C994 C993 1.381 . S
C994 C996 1.381 . S
C994 C997 1.487 . S
C995 C992 1.382 . S
C995 C996 1.387 . S
C995 H1012 0.930 . S
C996 C994 1.381 . S
C996 C995 1.387 . S
C996 H1013 0.931 . S
C997 C990 1.399 . S
C997 C994 1.487 . S
C997 N1014 1.343 . S
H998 C970 0.931 . S
H999 C972 0.930 . S
H1000 C974 0.930 . S
H1001 C975 0.931 . S
H1002 C977 0.931 . S
H1003 C979 0.930 . S
H1004 C981 0.930 . S
H1005 C982 0.931 . S
H1006 C984 0.931 . S
H1007 C986 0.930 . S
H1008 C988 0.930 . S
H1009 C989 0.931 . S
H1010 C991 0.931 . S
H1011 C993 0.930 . S
H1012 C995 0.930 . S
H1013 C996 0.931 . S
N1014 C976 1.343 . S
N1014 C997 1.343 . S
N1015 C983 1.343 . S
N1015 C990 1.343 . S
C1016 C1017 1.384 . S
C1016 C1018 1.384 . S
C1016 H1044 0.931 . S
C1017 C1016 1.384 . S
C1017 C1020 1.382 . S
C1018 C1016 1.384 . S
C1018 C1019 1.381 . S
C1018 H1045 0.930 . S
C1019 C1018 1.381 . S
C1019 C1021 1.381 . S
C1019 C1022 1.487 . S
C1020 C1017 1.382 . S
C1020 C1021 1.387 . S
C1020 H1046 0.930 . S
C1021 C1019 1.381 . S
C1021 C1020 1.387 . S
C1021 H1047 0.931 . S
C1022 C1019 1.487 . S
C1022 C1029 1.399 . S
C1022 N1060 1.343 . S
C1023 C1024 1.384 . S
C1023 C1025 1.384 . S
C1023 H1048 0.931 . S
C1024 C1023 1.384 . S
C1024 C1027 1.382 . S
C1025 C1023 1.384 . S
C1025 C1026 1.381 . S
C1025 H1049 0.930 . S
C1026 C1025 1.381 . S
C1026 C1028 1.381 . S
C1026 C1029 1.487 . S
C1027 C1024 1.382 . S
C1027 C1028 1.387 . S
C1027 H1050 0.930 . S
C1028 C1026 1.381 . S
C1028 C1027 1.387 . S
C1028 H1051 0.931 . S
C1029 C1022 1.399 . S
C1029 C1026 1.487 . S
C1029 N1061 1.343 . S
C1030 C1031 1.384 . S
C1030 C1032 1.384 . S
C1030 H1052 0.931 . S
C1031 C1030 1.384 . S
C1031 C1034 1.382 . S
C1032 C1030 1.384 . S
C1032 C1033 1.381 . S
C1032 H1053 0.930 . S
C1033 C1032 1.381 . S
C1033 C1035 1.381 . S
C1033 C1036 1.487 . S
C1034 C1031 1.382 . S
C1034 C1035 1.387 . S
C1034 H1054 0.930 . S
C1035 C1033 1.381 . S
C1035 C1034 1.387 . S
C1035 H1055 0.931 . S
C1036 C1033 1.487 . S
C1036 C1043 1.399 . S
C1036 N1061 1.343 . S
C1037 C1038 1.384 . S
C1037 C1039 1.384 . S
C1037 H1056 0.931 . S
C1038 C1037 1.384 . S
C1038 C1041 1.382 . S
C1039 C1037 1.384 . S
C1039 C1040 1.381 . S
C1039 H1057 0.930 . S
C1040 C1039 1.381 . S
C1040 C1042 1.381 . S
C1040 C1043 1.487 . S
C1041 C1038 1.382 . S
C1041 C1042 1.387 . S
C1041 H1058 0.930 . S
C1042 C1040 1.381 . S
C1042 C1041 1.387 . S
C1042 H1059 0.931 . S
C1043 C1036 1.399 . S
C1043 C1040 1.487 . S
C1043 N1060 1.343 . S
H1044 C1016 0.931 . S
H1045 C1018 0.930 . S
H1046 C1020 0.930 . S
H1047 C1021 0.931 . S
H1048 C1023 0.931 . S
H1049 C1025 0.930 . S
H1050 C1027 0.930 . S
H1051 C1028 0.931 . S
H1052 C1030 0.931 . S
H1053 C1032 0.930 . S
H1054 C1034 0.930 . S
H1055 C1035 0.931 . S
H1056 C1037 0.931 . S
H1057 C1039 0.930 . S
H1058 C1041 0.930 . S
H1059 C1042 0.931 . S
N1060 C1022 1.343 . S
N1060 C1043 1.343 . S
N1061 C1029 1.343 . S
N1061 C1036 1.343 . S
H1062 C1068 0.930 . S
H1063 C1072 0.930 . S
H1064 C1077 0.929 . S
H1065 C1075 0.929 . S
H1066 C1070 0.929 . S
H1067 C1076 0.929 . S
C1068 H1062 0.930 . S
C1068 C1069 1.367 . S
C1068 C1076 1.378 . S
C1069 C1068 1.367 . S
C1069 C1077 1.433 1_655 S
C1070 H1066 0.929 . S
C1070 C1072 1.378 . S
C1070 C1074 1.350 1_455 S
C1071 C1074 1.463 . S
C1071 C1076 1.350 . S
C1071 N1079 1.427 1_655 S
C1072 H1063 0.930 . S
C1072 C1070 1.378 . S
C1072 C1073 1.367 1_455 S
C1073 C1072 1.367 1_655 S
C1073 C1075 1.433 . S
C1074 C1070 1.350 1_655 S
C1074 C1071 1.463 . S
C1074 N1078 1.427 . S
C1075 H1065 0.929 . S
C1075 C1073 1.433 . S
C1075 N1078 1.384 . S
C1076 H1067 0.929 . S
C1076 C1068 1.378 . S
C1076 C1071 1.350 . S
C1077 H1064 0.929 . S
C1077 C1069 1.433 1_455 S
C1077 N1079 1.384 . S
N1078 C1074 1.427 . S
N1078 C1075 1.384 . S
N1079 C1071 1.427 1_455 S
N1079 C1077 1.384 . S
H1080 C1086 0.930 . S
H1081 C1090 0.930 . S
H1082 C1095 0.929 . S
H1083 C1093 0.929 . S
H1084 C1088 0.929 . S
H1085 C1094 0.929 . S
C1086 H1080 0.930 . S
C1086 C1087 1.367 . S
C1086 C1094 1.378 . S
C1087 C1086 1.367 . S
C1087 C1095 1.433 . S
C1088 H1084 0.929 . S
C1088 C1090 1.378 . S
C1088 C1092 1.350 . S
C1089 C1092 1.463 . S
C1089 C1094 1.350 . S
C1089 N1097 1.427 . S
C1090 H1081 0.930 . S
C1090 C1088 1.378 . S
C1090 C1091 1.367 . S
C1091 C1090 1.367 . S
C1091 C1093 1.433 . S
C1092 C1088 1.350 . S
C1092 C1089 1.463 . S
C1092 N1096 1.427 . S
C1093 H1083 0.929 . S
C1093 C1091 1.433 . S
C1093 N1096 1.384 . S
C1094 H1085 0.929 . S
C1094 C1086 1.378 . S
C1094 C1089 1.350 . S
C1095 H1082 0.929 . S
C1095 C1087 1.433 . S
C1095 N1097 1.384 . S
N1096 C1092 1.427 . S
N1096 C1093 1.384 . S
N1097 C1089 1.427 . S
N1097 C1095 1.384 . S
H1098 C1104 0.930 . S
H1099 C1108 0.930 . S
H1100 C1113 0.929 . S
H1101 C1111 0.929 . S
H1102 C1106 0.929 . S
H1103 C1112 0.929 . S
C1104 H1098 0.930 . S
C1104 C1105 1.367 . S
C1104 C1112 1.378 . S
C1105 C1104 1.367 . S
C1105 C1113 1.433 1_545 S
C1106 H1102 0.929 . S
C1106 C1108 1.378 . S
C1106 C1110 1.350 1_565 S
C1107 C1110 1.463 . S
C1107 C1112 1.350 . S
C1107 N1115 1.427 1_545 S
C1108 H1099 0.930 . S
C1108 C1106 1.378 . S
C1108 C1109 1.367 1_565 S
C1109 C1108 1.367 1_545 S
C1109 C1111 1.433 . S
C1110 C1106 1.350 1_545 S
C1110 C1107 1.463 . S
C1110 N1114 1.427 . S
C1111 H1101 0.929 . S
C1111 C1109 1.433 . S
C1111 N1114 1.384 . S
C1112 H1103 0.929 . S
C1112 C1104 1.378 . S
C1112 C1107 1.350 . S
C1113 H1100 0.929 . S
C1113 C1105 1.433 1_565 S
C1113 N1115 1.384 . S
N1114 C1110 1.427 . S
N1114 C1111 1.384 . S
N1115 C1107 1.427 1_565 S
N1115 C1113 1.384 . S
H1116 C1122 0.930 . S
H1117 C1126 0.930 . S
H1118 C1131 0.929 . S
H1119 C1129 0.929 . S
H1120 C1124 0.929 . S
H1121 C1130 0.929 . S
C1122 H1116 0.930 . S
C1122 C1123 1.366 1_545 S
C1122 C1130 1.378 . S
C1123 C1122 1.366 1_565 S
C1123 C1131 1.443 . S
C1124 H1120 0.929 . S
C1124 C1126 1.378 . S
C1124 C1128 1.350 . S
C1125 C1128 1.463 . S
C1125 C1130 1.350 1_565 S
C1125 N1133 1.427 . S
C1126 H1117 0.930 . S
C1126 C1124 1.378 . S
C1126 C1127 1.367 . S
C1127 C1126 1.367 . S
C1127 C1129 1.433 1_565 S
C1128 C1124 1.350 . S
C1128 C1125 1.463 . S
C1128 N1132 1.427 1_565 S
C1129 H1119 0.929 . S
C1129 C1127 1.433 1_545 S
C1129 N1132 1.384 . S
C1130 H1121 0.929 . S
C1130 C1122 1.378 . S
C1130 C1125 1.350 1_545 S
C1131 H1118 0.929 . S
C1131 C1123 1.443 . S
C1131 N1133 1.384 . S
N1132 C1128 1.427 1_545 S
N1132 C1129 1.384 . S
N1133 C1125 1.427 . S
N1133 C1131 1.384 . S
H1134 C1140 0.930 . S
H1135 C1144 0.930 . S
H1136 C1149 0.929 . S
H1137 C1147 0.929 . S
H1138 C1142 0.929 . S
H1139 C1148 0.929 . S
C1140 H1134 0.930 . S
C1140 C1141 1.367 1_655 S
C1140 C1148 1.378 . S
C1141 C1140 1.367 1_455 S
C1141 C1149 1.433 . S
C1142 H1138 0.929 . S
C1142 C1144 1.378 . S
C1142 C1146 1.350 . S
C1143 C1146 1.463 . S
C1143 C1148 1.350 1_455 S
C1143 N1151 1.427 . S
C1144 H1135 0.930 . S
C1144 C1142 1.378 . S
C1144 C1145 1.367 . S
C1145 C1144 1.367 . S
C1145 C1147 1.433 1_455 S
C1146 C1142 1.350 . S
C1146 C1143 1.463 . S
C1146 N1150 1.427 1_455 S
C1147 H1137 0.929 . S
C1147 C1145 1.433 1_655 S
C1147 N1150 1.384 . S
C1148 H1139 0.929 . S
C1148 C1140 1.378 . S
C1148 C1143 1.350 1_655 S
C1149 H1136 0.929 . S
C1149 C1141 1.433 . S
C1149 N1151 1.384 . S
N1150 C1146 1.427 1_655 S
N1150 C1147 1.384 . S
N1151 C1143 1.427 . S
N1151 C1149 1.384 . S
H1152 C1158 0.930 . S
H1153 C1162 0.930 . S
H1154 C1167 0.929 . S
H1155 C1165 0.929 . S
H1156 C1160 0.929 . S
H1157 C1166 0.929 . S
C1158 H1152 0.930 . S
C1158 C1159 1.367 . S
C1158 C1166 1.378 . S
C1159 C1158 1.367 . S
C1159 C1167 1.433 . S
C1160 H1156 0.929 . S
C1160 C1162 1.378 . S
C1160 C1164 1.350 . S
C1161 C1164 1.463 . S
C1161 C1166 1.350 . S
C1161 N1169 1.427 . S
C1162 H1153 0.930 . S
C1162 C1160 1.378 . S
C1162 C1163 1.367 . S
C1163 C1162 1.367 . S
C1163 C1165 1.433 . S
C1164 C1160 1.350 . S
C1164 C1161 1.463 . S
C1164 N1168 1.427 . S
C1165 H1155 0.929 . S
C1165 C1163 1.433 . S
C1165 N1168 1.384 . S
C1166 H1157 0.929 . S
C1166 C1158 1.378 . S
C1166 C1161 1.350 . S
C1167 H1154 0.929 . S
C1167 C1159 1.433 . S
C1167 N1169 1.384 . S
N1168 C1164 1.427 . S
N1168 C1165 1.384 . S
N1169 C1161 1.427 . S
N1169 C1167 1.384 . S
H1170 C1176 0.930 . S
H1171 C1180 0.930 . S
H1172 C1185 0.929 . S
H1173 C1183 0.929 . S
H1174 C1178 0.929 . S
H1175 C1184 0.929 . S
C1176 H1170 0.930 . S
C1176 C1177 1.367 1_655 S
C1176 C1184 1.378 . S
C1177 C1176 1.367 1_455 S
C1177 C1185 1.433 . S
C1178 H1174 0.929 . S
C1178 C1180 1.378 . S
C1178 C1182 1.350 . S
C1179 C1182 1.463 . S
C1179 C1184 1.350 1_455 S
C1179 N1187 1.427 . S
C1180 H1171 0.930 . S
C1180 C1178 1.378 . S
C1180 C1181 1.367 . S
C1181 C1180 1.367 . S
C1181 C1183 1.433 1_455 S
C1182 C1178 1.350 . S
C1182 C1179 1.463 . S
C1182 N1186 1.427 1_455 S
C1183 H1173 0.929 . S
C1183 C1181 1.433 1_655 S
C1183 N1186 1.384 . S
C1184 H1175 0.929 . S
C1184 C1176 1.378 . S
C1184 C1179 1.350 1_655 S
C1185 H1172 0.929 . S
C1185 C1177 1.433 . S
C1185 N1187 1.384 . S
N1186 C1182 1.427 1_655 S
N1186 C1183 1.384 . S
N1187 C1179 1.427 . S
N1187 C1185 1.384 . S
H1188 C1194 0.930 . S
H1189 C1198 0.930 . S
H1190 C1203 0.929 . S
H1191 C1201 0.929 . S
H1192 C1196 0.929 . S
H1193 C1202 0.929 . S
C1194 H1188 0.930 . S
C1194 C1195 1.367 . S
C1194 C1202 1.378 . S
C1195 C1194 1.367 . S
C1195 C1203 1.433 . S
C1196 H1192 0.929 . S
C1196 C1198 1.378 . S
C1196 C1200 1.350 . S
C1197 C1200 1.463 . S
C1197 C1202 1.350 . S
C1197 N1205 1.427 . S
C1198 H1189 0.930 . S
C1198 C1196 1.378 . S
C1198 C1199 1.367 . S
C1199 C1198 1.367 . S
C1199 C1201 1.433 . S
C1200 C1196 1.350 . S
C1200 C1197 1.463 . S
C1200 N1204 1.427 . S
C1201 H1191 0.929 . S
C1201 C1199 1.433 . S
C1201 N1204 1.384 . S
C1202 H1193 0.929 . S
C1202 C1194 1.378 . S
C1202 C1197 1.350 . S
C1203 H1190 0.929 . S
C1203 C1195 1.433 . S
C1203 N1205 1.384 . S
N1204 C1200 1.427 . S
N1204 C1201 1.384 . S
N1205 C1197 1.427 . S
N1205 C1203 1.384 . S
H1206 C1212 0.930 . S
H1207 C1216 0.930 . S
H1208 C1221 0.929 . S
H1209 C1219 0.929 . S
H1210 C1214 0.929 . S
H1211 C1220 0.929 . S
C1212 H1206 0.930 . S
C1212 C1213 1.367 1_545 S
C1212 C1220 1.378 . S
C1213 C1212 1.367 1_565 S
C1213 C1221 1.433 . S
C1214 H1210 0.929 . S
C1214 C1216 1.378 . S
C1214 C1218 1.350 . S
C1215 C1218 1.463 . S
C1215 C1220 1.350 1_565 S
C1215 N1223 1.427 . S
C1216 H1207 0.930 . S
C1216 C1214 1.378 . S
C1216 C1217 1.367 . S
C1217 C1216 1.367 . S
C1217 C1219 1.433 1_565 S
C1218 C1214 1.350 . S
C1218 C1215 1.463 . S
C1218 N1222 1.427 1_565 S
C1219 H1209 0.929 . S
C1219 C1217 1.433 1_545 S
C1219 N1222 1.384 . S
C1220 H1211 0.929 . S
C1220 C1212 1.378 . S
C1220 C1215 1.350 1_545 S
C1221 H1208 0.929 . S
C1221 C1213 1.433 . S
C1221 N1223 1.384 . S
N1222 C1218 1.427 1_545 S
N1222 C1219 1.384 . S
N1223 C1215 1.427 . S
N1223 C1221 1.384 . S
H1224 C1230 0.930 . S
H1225 C1234 0.930 . S
H1226 C1239 0.929 . S
H1227 C1237 0.929 . S
H1228 C1232 0.929 . S
H1229 C1238 0.929 . S
C1230 H1224 0.930 . S
C1230 C1231 1.367 1_565 S
C1230 C1238 1.378 . S
C1231 C1230 1.367 1_545 S
C1231 C1239 1.433 . S
C1232 H1228 0.929 . S
C1232 C1234 1.378 . S
C1232 C1236 1.350 . S
C1233 C1236 1.463 . S
C1233 C1238 1.350 1_545 S
C1233 N1241 1.427 . S
C1234 H1225 0.930 . S
C1234 C1232 1.378 . S
C1234 C1235 1.367 . S
C1235 C1234 1.367 . S
C1235 C1237 1.433 1_545 S
C1236 C1232 1.350 . S
C1236 C1233 1.463 . S
C1236 N1240 1.427 1_545 S
C1237 H1227 0.929 . S
C1237 C1235 1.433 1_565 S
C1237 N1240 1.384 . S
C1238 H1229 0.929 . S
C1238 C1230 1.378 . S
C1238 C1233 1.350 1_565 S
C1239 H1226 0.929 . S
C1239 C1231 1.433 . S
C1239 N1241 1.384 . S
N1240 C1236 1.427 1_565 S
N1240 C1237 1.384 . S
N1241 C1233 1.427 . S
N1241 C1239 1.384 . S
H1242 C1248 0.930 . S
H1243 C1252 0.930 . S
H1244 C1257 0.929 . S
H1245 C1255 0.929 . S
H1246 C1250 0.929 . S
H1247 C1256 0.929 . S
C1248 H1242 0.930 . S
C1248 C1249 1.367 1_455 S
C1248 C1256 1.378 . S
C1249 C1248 1.367 1_655 S
C1249 C1257 1.433 . S
C1250 H1246 0.929 . S
C1250 C1252 1.378 . S
C1250 C1254 1.350 . S
C1251 C1254 1.463 . S
C1251 C1256 1.350 1_655 S
C1251 N1259 1.427 . S
C1252 H1243 0.930 . S
C1252 C1250 1.378 . S
C1252 C1253 1.367 . S
C1253 C1252 1.367 . S
C1253 C1255 1.433 1_655 S
C1254 C1250 1.350 . S
C1254 C1251 1.463 . S
C1254 N1258 1.427 1_655 S
C1255 H1245 0.929 . S
C1255 C1253 1.433 1_455 S
C1255 N1258 1.384 . S
C1256 H1247 0.929 . S
C1256 C1248 1.378 . S
C1256 C1251 1.350 1_455 S
C1257 H1244 0.929 . S
C1257 C1249 1.433 . S
C1257 N1259 1.384 . S
N1258 C1254 1.427 1_455 S
N1258 C1255 1.384 . S
N1259 C1251 1.427 . S
N1259 C1257 1.384 . S
H1260 C1266 0.930 . S
H1261 C1270 0.930 . S
H1262 C1275 0.929 . S
H1263 C1273 0.929 . S
H1264 C1268 0.929 . S
H1265 C1274 0.929 . S
C1266 H1260 0.930 . S
C1266 C1267 1.367 . S
C1266 C1274 1.378 . S
C1267 C1266 1.367 . S
C1267 C1275 1.433 . S
C1268 H1264 0.929 . S
C1268 C1270 1.378 . S
C1268 C1272 1.350 . S
C1269 C1272 1.463 . S
C1269 C1274 1.350 . S
C1269 N1277 1.427 . S
C1270 H1261 0.930 . S
C1270 C1268 1.378 . S
C1270 C1271 1.367 . S
C1271 C1270 1.367 . S
C1271 C1273 1.433 . S
C1272 C1268 1.350 . S
C1272 C1269 1.463 . S
C1272 N1276 1.427 . S
C1273 H1263 0.929 . S
C1273 C1271 1.433 . S
C1273 N1276 1.384 . S
C1274 H1265 0.929 . S
C1274 C1266 1.378 . S
C1274 C1269 1.350 . S
C1275 H1262 0.929 . S
C1275 C1267 1.433 . S
C1275 N1277 1.384 . S
N1276 C1272 1.427 . S
N1276 C1273 1.384 . S
N1277 C1269 1.427 . S
N1277 C1275 1.384 . S
H1278 C1284 0.930 . S
H1279 C1288 0.930 . S
H1280 C1293 0.929 . S
H1281 C1291 0.929 . S
H1282 C1286 0.929 . S
H1283 C1292 0.929 . S
C1284 H1278 0.930 . S
C1284 C1285 1.367 . S
C1284 C1292 1.378 . S
C1285 C1284 1.367 . S
C1285 C1293 1.433 . S
C1286 H1282 0.929 . S
C1286 C1288 1.378 . S
C1286 C1290 1.350 . S
C1287 C1290 1.463 . S
C1287 C1292 1.350 . S
C1287 N1295 1.427 . S
C1288 H1279 0.930 . S
C1288 C1286 1.378 . S
C1288 C1289 1.367 . S
C1289 C1288 1.367 . S
C1289 C1291 1.433 . S
C1290 C1286 1.350 . S
C1290 C1287 1.463 . S
C1290 N1294 1.427 . S
C1291 H1281 0.929 . S
C1291 C1289 1.433 . S
C1291 N1294 1.384 . S
C1292 H1283 0.929 . S
C1292 C1284 1.378 . S
C1292 C1287 1.350 . S
C1293 H1280 0.929 . S
C1293 C1285 1.433 . S
C1293 N1295 1.384 . S
N1294 C1290 1.427 . S
N1294 C1291 1.384 . S
N1295 C1287 1.427 . S
N1295 C1293 1.384 . S
H1296 C1302 0.930 . S
H1297 C1306 0.930 . S
H1298 C1311 0.929 . S
H1299 C1309 0.929 . S
H1300 C1304 0.929 . S
H1301 C1310 0.929 . S
C1302 H1296 0.930 . S
C1302 C1303 1.367 . S
C1302 C1310 1.378 . S
C1303 C1302 1.367 . S
C1303 C1311 1.433 . S
C1304 H1300 0.929 . S
C1304 C1306 1.378 . S
C1304 C1308 1.350 . S
C1305 C1308 1.463 . S
C1305 C1310 1.350 . S
C1305 N1313 1.427 . S
C1306 H1297 0.930 . S
C1306 C1304 1.378 . S
C1306 C1307 1.367 . S
C1307 C1306 1.367 . S
C1307 C1309 1.433 . S
C1308 C1304 1.350 . S
C1308 C1305 1.463 . S
C1308 N1312 1.427 . S
C1309 H1299 0.929 . S
C1309 C1307 1.433 . S
C1309 N1312 1.384 . S
C1310 H1301 0.929 . S
C1310 C1302 1.378 . S
C1310 C1305 1.350 . S
C1311 H1298 0.929 . S
C1311 C1303 1.433 . S
C1311 N1313 1.384 . S
N1312 C1308 1.427 . S
N1312 C1309 1.384 . S
N1313 C1305 1.427 . S
N1313 C1311 1.384 . S
H1314 C1320 0.930 . S
H1315 C1324 0.930 . S
H1316 C1329 0.929 . S
H1317 C1327 0.929 . S
H1318 C1322 0.929 . S
H1319 C1328 0.929 . S
C1320 H1314 0.930 . S
C1320 C1321 1.367 . S
C1320 C1328 1.378 . S
C1321 C1320 1.367 . S
C1321 C1329 1.433 . S
C1322 H1318 0.929 . S
C1322 C1324 1.378 . S
C1322 C1326 1.350 . S
C1323 C1326 1.463 . S
C1323 C1328 1.350 . S
C1323 N1331 1.427 . S
C1324 H1315 0.930 . S
C1324 C1322 1.378 . S
C1324 C1325 1.367 . S
C1325 C1324 1.367 . S
C1325 C1327 1.433 . S
C1326 C1322 1.350 . S
C1326 C1323 1.463 . S
C1326 N1330 1.427 . S
C1327 H1317 0.929 . S
C1327 C1325 1.433 . S
C1327 N1330 1.384 . S
C1328 H1319 0.929 . S
C1328 C1320 1.378 . S
C1328 C1323 1.350 . S
C1329 H1316 0.929 . S
C1329 C1321 1.433 . S
C1329 N1331 1.384 . S
N1330 C1326 1.427 . S
N1330 C1327 1.384 . S
N1331 C1323 1.427 . S
N1331 C1329 1.384 . S
H1332 C1338 0.930 . S
H1333 C1342 0.930 . S
H1334 C1347 0.929 . S
H1335 C1345 0.929 . S
H1336 C1340 0.929 . S
H1337 C1346 0.929 . S
C1338 H1332 0.930 . S
C1338 C1339 1.367 . S
C1338 C1346 1.378 . S
C1339 C1338 1.367 . S
C1339 C1347 1.433 . S
C1340 H1336 0.929 . S
C1340 C1342 1.378 . S
C1340 C1344 1.350 . S
C1341 C1344 1.463 . S
C1341 C1346 1.350 . S
C1341 N1349 1.427 . S
C1342 H1333 0.930 . S
C1342 C1340 1.378 . S
C1342 C1343 1.367 . S
C1343 C1342 1.367 . S
C1343 C1345 1.433 . S
C1344 C1340 1.350 . S
C1344 C1341 1.463 . S
C1344 N1348 1.427 . S
C1345 H1335 0.929 . S
C1345 C1343 1.433 . S
C1345 N1348 1.384 . S
C1346 H1337 0.929 . S
C1346 C1338 1.378 . S
C1346 C1341 1.350 . S
C1347 H1334 0.929 . S
C1347 C1339 1.433 . S
C1347 N1349 1.384 . S
N1348 C1344 1.427 . S
N1348 C1345 1.384 . S
N1349 C1341 1.427 . S
N1349 C1347 1.384 . S
H1350 C1356 0.930 . S
H1351 C1360 0.930 . S
H1352 C1365 0.929 . S
H1353 C1363 0.929 . S
H1354 C1358 0.929 . S
H1355 C1364 0.929 . S
C1356 H1350 0.930 . S
C1356 C1357 1.367 . S
C1356 C1364 1.378 . S
C1357 C1356 1.367 . S
C1357 C1365 1.433 . S
C1358 H1354 0.929 . S
C1358 C1360 1.378 . S
C1358 C1362 1.350 . S
C1359 C1362 1.463 . S
C1359 C1364 1.350 . S
C1359 N1367 1.427 . S
C1360 H1351 0.930 . S
C1360 C1358 1.378 . S
C1360 C1361 1.367 . S
C1361 C1360 1.367 . S
C1361 C1363 1.433 . S
C1362 C1358 1.350 . S
C1362 C1359 1.463 . S
C1362 N1366 1.427 . S
C1363 H1353 0.929 . S
C1363 C1361 1.433 . S
C1363 N1366 1.384 . S
C1364 H1355 0.929 . S
C1364 C1356 1.378 . S
C1364 C1359 1.350 . S
C1365 H1352 0.929 . S
C1365 C1357 1.433 . S
C1365 N1367 1.384 . S
N1366 C1362 1.427 . S
N1366 C1363 1.384 . S
N1367 C1359 1.427 . S
N1367 C1365 1.384 . S
H1368 C1374 0.930 . S
H1369 C1378 0.930 . S
H1370 C1383 0.929 . S
H1371 C1381 0.929 . S
H1372 C1376 0.929 . S
H1373 C1382 0.929 . S
C1374 H1368 0.930 . S
C1374 C1375 1.367 . S
C1374 C1382 1.378 . S
C1375 C1374 1.367 . S
C1375 C1383 1.433 . S
C1376 H1372 0.929 . S
C1376 C1378 1.378 . S
C1376 C1380 1.350 . S
C1377 C1380 1.463 . S
C1377 C1382 1.350 . S
C1377 N1385 1.427 . S
C1378 H1369 0.930 . S
C1378 C1376 1.378 . S
C1378 C1379 1.367 . S
C1379 C1378 1.367 . S
C1379 C1381 1.433 . S
C1380 C1376 1.350 . S
C1380 C1377 1.463 . S
C1380 N1384 1.427 . S
C1381 H1371 0.929 . S
C1381 C1379 1.433 . S
C1381 N1384 1.384 . S
C1382 H1373 0.929 . S
C1382 C1374 1.378 . S
C1382 C1377 1.350 . S
C1383 H1370 0.929 . S
C1383 C1375 1.433 . S
C1383 N1385 1.384 . S
N1384 C1380 1.427 . S
N1384 C1381 1.384 . S
N1385 C1377 1.427 . S
N1385 C1383 1.384 . S
H1386 C1392 0.930 . S
H1387 C1396 0.930 . S
H1388 C1401 0.929 . S
H1389 C1399 0.929 . S
H1390 C1394 0.929 . S
H1391 C1400 0.929 . S
C1392 H1386 0.930 . S
C1392 C1393 1.367 . S
C1392 C1400 1.378 . S
C1393 C1392 1.367 . S
C1393 C1401 1.433 . S
C1394 H1390 0.929 . S
C1394 C1396 1.378 . S
C1394 C1398 1.350 . S
C1395 C1398 1.463 . S
C1395 C1400 1.350 . S
C1395 N1403 1.427 . S
C1396 H1387 0.930 . S
C1396 C1394 1.378 . S
C1396 C1397 1.367 . S
C1397 C1396 1.367 . S
C1397 C1399 1.433 . S
C1398 C1394 1.350 . S
C1398 C1395 1.463 . S
C1398 N1402 1.427 . S
C1399 H1389 0.929 . S
C1399 C1397 1.433 . S
C1399 N1402 1.384 . S
C1400 H1391 0.929 . S
C1400 C1392 1.378 . S
C1400 C1395 1.350 . S
C1401 H1388 0.929 . S
C1401 C1393 1.433 . S
C1401 N1403 1.384 . S
N1402 C1398 1.427 . S
N1402 C1399 1.384 . S
N1403 C1395 1.427 . S
N1403 C1401 1.384 . S
H1404 C1410 0.930 . S
H1405 C1414 0.930 . S
H1406 C1419 0.929 . S
H1407 C1417 0.929 . S
H1408 C1412 0.929 . S
H1409 C1418 0.929 . S
C1410 H1404 0.930 . S
C1410 C1411 1.367 . S
C1410 C1418 1.378 . S
C1411 C1410 1.367 . S
C1411 C1419 1.433 . S
C1412 H1408 0.929 . S
C1412 C1414 1.378 . S
C1412 C1416 1.350 . S
C1413 C1416 1.463 . S
C1413 C1418 1.350 . S
C1413 N1421 1.427 . S
C1414 H1405 0.930 . S
C1414 C1412 1.378 . S
C1414 C1415 1.367 . S
C1415 C1414 1.367 . S
C1415 C1417 1.433 . S
C1416 C1412 1.350 . S
C1416 C1413 1.463 . S
C1416 N1420 1.427 . S
C1417 H1407 0.929 . S
C1417 C1415 1.433 . S
C1417 N1420 1.384 . S
C1418 H1409 0.929 . S
C1418 C1410 1.378 . S
C1418 C1413 1.350 . S
C1419 H1406 0.929 . S
C1419 C1411 1.433 . S
C1419 N1421 1.384 . S
N1420 C1416 1.427 . S
N1420 C1417 1.384 . S
N1421 C1413 1.427 . S
N1421 C1419 1.384 . S
H1422 C1428 0.930 . S
H1423 C1432 0.930 . S
H1424 C1437 0.929 . S
H1425 C1435 0.929 . S
H1426 C1430 0.929 . S
H1427 C1436 0.929 . S
C1428 H1422 0.930 . S
C1428 C1429 1.367 . S
C1428 C1436 1.378 . S
C1429 C1428 1.367 . S
C1429 C1437 1.433 . S
C1430 H1426 0.929 . S
C1430 C1432 1.378 . S
C1430 C1434 1.350 . S
C1431 C1434 1.463 . S
C1431 C1436 1.350 . S
C1431 N1439 1.427 . S
C1432 H1423 0.930 . S
C1432 C1430 1.378 . S
C1432 C1433 1.367 . S
C1433 C1432 1.367 . S
C1433 C1435 1.433 . S
C1434 C1430 1.350 . S
C1434 C1431 1.463 . S
C1434 N1438 1.427 . S
C1435 H1425 0.929 . S
C1435 C1433 1.433 . S
C1435 N1438 1.384 . S
C1436 H1427 0.929 . S
C1436 C1428 1.378 . S
C1436 C1431 1.350 . S
C1437 H1424 0.929 . S
C1437 C1429 1.433 . S
C1437 N1439 1.384 . S
N1438 C1434 1.427 . S
N1438 C1435 1.384 . S
N1439 C1431 1.427 . S
N1439 C1437 1.384 . S
H1440 C1446 0.930 . S
H1441 C1450 0.930 . S
H1442 C1455 0.929 . S
H1443 C1453 0.929 . S
H1444 C1448 0.929 . S
H1445 C1454 0.929 . S
C1446 H1440 0.930 . S
C1446 C1447 1.367 . S
C1446 C1454 1.378 . S
C1447 C1446 1.367 . S
C1447 C1455 1.433 . S
C1448 H1444 0.929 . S
C1448 C1450 1.378 . S
C1448 C1452 1.350 . S
C1449 C1452 1.463 . S
C1449 C1454 1.350 . S
C1449 N1457 1.427 . S
C1450 H1441 0.930 . S
C1450 C1448 1.378 . S
C1450 C1451 1.367 . S
C1451 C1450 1.367 . S
C1451 C1453 1.433 . S
C1452 C1448 1.350 . S
C1452 C1449 1.463 . S
C1452 N1456 1.427 . S
C1453 H1443 0.929 . S
C1453 C1451 1.433 . S
C1453 N1456 1.384 . S
C1454 H1445 0.929 . S
C1454 C1446 1.378 . S
C1454 C1449 1.350 . S
C1455 H1442 0.929 . S
C1455 C1447 1.433 . S
C1455 N1457 1.384 . S
N1456 C1452 1.427 . S
N1456 C1453 1.384 . S
N1457 C1449 1.427 . S
N1457 C1455 1.384 . S
H1458 C1464 0.930 . S
H1459 C1468 0.930 . S
H1460 C1473 0.929 . S
H1461 C1471 0.929 . S
H1462 C1466 0.929 . S
H1463 C1472 0.929 . S
C1464 H1458 0.930 . S
C1464 C1465 1.367 . S
C1464 C1472 1.378 . S
C1465 C1464 1.367 . S
C1465 C1473 1.433 . S
C1466 H1462 0.929 . S
C1466 C1468 1.378 . S
C1466 C1470 1.350 . S
C1467 C1470 1.463 . S
C1467 C1472 1.350 . S
C1467 N1475 1.427 . S
C1468 H1459 0.930 . S
C1468 C1466 1.378 . S
C1468 C1469 1.367 . S
C1469 C1468 1.367 . S
C1469 C1471 1.433 . S
C1470 C1466 1.350 . S
C1470 C1467 1.463 . S
C1470 N1474 1.427 . S
C1471 H1461 0.929 . S
C1471 C1469 1.433 . S
C1471 N1474 1.384 . S
C1472 H1463 0.929 . S
C1472 C1464 1.378 . S
C1472 C1467 1.350 . S
C1473 H1460 0.929 . S
C1473 C1465 1.433 . S
C1473 N1475 1.384 . S
N1474 C1470 1.427 . S
N1474 C1471 1.384 . S
N1475 C1467 1.427 . S
N1475 C1473 1.384 . S
H1476 C1482 0.930 . S
H1477 C1486 0.930 . S
H1478 C1491 0.929 . S
H1479 C1489 0.929 . S
H1480 C1484 0.929 . S
H1481 C1490 0.929 . S
C1482 H1476 0.930 . S
C1482 C1483 1.367 . S
C1482 C1490 1.378 . S
C1483 C1482 1.367 . S
C1483 C1491 1.433 . S
C1484 H1480 0.929 . S
C1484 C1486 1.378 . S
C1484 C1488 1.350 . S
C1485 C1488 1.463 . S
C1485 C1490 1.350 . S
C1485 N1493 1.427 . S
C1486 H1477 0.930 . S
C1486 C1484 1.378 . S
C1486 C1487 1.367 . S
C1487 C1486 1.367 . S
C1487 C1489 1.433 . S
C1488 C1484 1.350 . S
C1488 C1485 1.463 . S
C1488 N1492 1.427 . S
C1489 H1479 0.929 . S
C1489 C1487 1.433 . S
C1489 N1492 1.384 . S
C1490 H1481 0.929 . S
C1490 C1482 1.378 . S
C1490 C1485 1.350 . S
C1491 H1478 0.929 . S
C1491 C1483 1.433 . S
C1491 N1493 1.384 . S
N1492 C1488 1.427 . S
N1492 C1489 1.384 . S
N1493 C1485 1.427 . S
N1493 C1491 1.384 . S
H1494 C1500 0.930 . S
H1495 C1504 0.930 . S
H1496 C1509 0.929 . S
H1497 C1507 0.929 . S
H1498 C1502 0.929 . S
H1499 C1508 0.929 . S
C1500 H1494 0.930 . S
C1500 C1501 1.367 . S
C1500 C1508 1.378 . S
C1501 C1500 1.367 . S
C1501 C1509 1.433 . S
C1502 H1498 0.929 . S
C1502 C1504 1.378 . S
C1502 C1506 1.350 . S
C1503 C1506 1.463 . S
C1503 C1508 1.350 . S
C1503 N1511 1.427 . S
C1504 H1495 0.930 . S
C1504 C1502 1.378 . S
C1504 C1505 1.367 . S
C1505 C1504 1.367 . S
C1505 C1507 1.433 . S
C1506 C1502 1.350 . S
C1506 C1503 1.463 . S
C1506 N1510 1.427 . S
C1507 H1497 0.929 . S
C1507 C1505 1.433 . S
C1507 N1510 1.384 . S
C1508 H1499 0.929 . S
C1508 C1500 1.378 . S
C1508 C1503 1.350 . S
C1509 H1496 0.929 . S
C1509 C1501 1.433 . S
C1509 N1511 1.384 . S
N1510 C1506 1.427 . S
N1510 C1507 1.384 . S
N1511 C1503 1.427 . S
N1511 C1509 1.384 . S
H1512 C1518 0.930 . S
H1513 C1522 0.930 . S
H1514 C1527 0.929 . S
H1515 C1525 0.929 . S
H1516 C1520 0.929 . S
H1517 C1526 0.929 . S
C1518 H1512 0.930 . S
C1518 C1519 1.367 . S
C1518 C1526 1.378 . S
C1519 C1518 1.367 . S
C1519 C1527 1.433 . S
C1520 H1516 0.929 . S
C1520 C1522 1.378 . S
C1520 C1524 1.350 . S
C1521 C1524 1.463 . S
C1521 C1526 1.350 . S
C1521 N1529 1.427 . S
C1522 H1513 0.930 . S
C1522 C1520 1.378 . S
C1522 C1523 1.367 . S
C1523 C1522 1.367 . S
C1523 C1525 1.433 . S
C1524 C1520 1.350 . S
C1524 C1521 1.463 . S
C1524 N1528 1.427 . S
C1525 H1515 0.929 . S
C1525 C1523 1.433 . S
C1525 N1528 1.384 . S
C1526 H1517 0.929 . S
C1526 C1518 1.378 . S
C1526 C1521 1.350 . S
C1527 H1514 0.929 . S
C1527 C1519 1.433 . S
C1527 N1529 1.384 . S
N1528 C1524 1.427 . S
N1528 C1525 1.384 . S
N1529 C1521 1.427 . S
N1529 C1527 1.384 . S
H1530 C1536 0.930 . S
H1531 C1540 0.930 . S
H1532 C1545 0.929 . S
H1533 C1543 0.929 . S
H1534 C1538 0.929 . S
H1535 C1544 0.929 . S
C1536 H1530 0.930 . S
C1536 C1537 1.367 . S
C1536 C1544 1.378 . S
C1537 C1536 1.367 . S
C1537 C1545 1.433 . S
C1538 H1534 0.929 . S
C1538 C1540 1.378 . S
C1538 C1542 1.350 . S
C1539 C1542 1.463 . S
C1539 C1544 1.350 . S
C1539 N1547 1.427 . S
C1540 H1531 0.930 . S
C1540 C1538 1.378 . S
C1540 C1541 1.367 . S
C1541 C1540 1.367 . S
C1541 C1543 1.433 . S
C1542 C1538 1.350 . S
C1542 C1539 1.463 . S
C1542 N1546 1.427 . S
C1543 H1533 0.929 . S
C1543 C1541 1.433 . S
C1543 N1546 1.384 . S
C1544 H1535 0.929 . S
C1544 C1536 1.378 . S
C1544 C1539 1.350 . S
C1545 H1532 0.929 . S
C1545 C1537 1.433 . S
C1545 N1547 1.384 . S
N1546 C1542 1.427 . S
N1546 C1543 1.384 . S
N1547 C1539 1.427 . S
N1547 C1545 1.384 . S
H1548 C1554 0.930 . S
H1549 C1558 0.930 . S
H1550 C1563 0.929 . S
H1551 C1561 0.929 . S
H1552 C1556 0.929 . S
H1553 C1562 0.929 . S
C1554 H1548 0.930 . S
C1554 C1555 1.367 . S
C1554 C1562 1.378 . S
C1555 C1554 1.367 . S
C1555 C1563 1.433 . S
C1556 H1552 0.929 . S
C1556 C1558 1.378 . S
C1556 C1560 1.350 . S
C1557 C1560 1.463 . S
C1557 C1562 1.350 . S
C1557 N1565 1.427 . S
C1558 H1549 0.930 . S
C1558 C1556 1.378 . S
C1558 C1559 1.367 . S
C1559 C1558 1.367 . S
C1559 C1561 1.433 . S
C1560 C1556 1.350 . S
C1560 C1557 1.463 . S
C1560 N1564 1.427 . S
C1561 H1551 0.929 . S
C1561 C1559 1.433 . S
C1561 N1564 1.384 . S
C1562 H1553 0.929 . S
C1562 C1554 1.378 . S
C1562 C1557 1.350 . S
C1563 H1550 0.929 . S
C1563 C1555 1.433 . S
C1563 N1565 1.384 . S
N1564 C1560 1.427 . S
N1564 C1561 1.384 . S
N1565 C1557 1.427 . S
N1565 C1563 1.384 . S
H1566 C1572 0.930 . S
H1567 C1576 0.930 . S
H1568 C1581 0.929 . S
H1569 C1579 0.929 . S
H1570 C1574 0.929 . S
H1571 C1580 0.929 . S
C1572 H1566 0.930 . S
C1572 C1573 1.367 . S
C1572 C1580 1.378 . S
C1573 C1572 1.367 . S
C1573 C1581 1.433 . S
C1574 H1570 0.929 . S
C1574 C1576 1.378 . S
C1574 C1578 1.350 . S
C1575 C1578 1.463 . S
C1575 C1580 1.350 . S
C1575 N1583 1.427 . S
C1576 H1567 0.930 . S
C1576 C1574 1.378 . S
C1576 C1577 1.367 . S
C1577 C1576 1.367 . S
C1577 C1579 1.433 . S
C1578 C1574 1.350 . S
C1578 C1575 1.463 . S
C1578 N1582 1.427 . S
C1579 H1569 0.929 . S
C1579 C1577 1.433 . S
C1579 N1582 1.384 . S
C1580 H1571 0.929 . S
C1580 C1572 1.378 . S
C1580 C1575 1.350 . S
C1581 H1568 0.929 . S
C1581 C1573 1.433 . S
C1581 N1583 1.384 . S
N1582 C1578 1.427 . S
N1582 C1579 1.384 . S
N1583 C1575 1.427 . S
N1583 C1581 1.384 . S
H1584 C1590 0.930 . S
H1585 C1594 0.930 . S
H1586 C1599 0.929 . S
H1587 C1597 0.929 . S
H1588 C1592 0.929 . S
H1589 C1598 0.929 . S
C1590 H1584 0.930 . S
C1590 C1591 1.367 . S
C1590 C1598 1.378 . S
C1591 C1590 1.367 . S
C1591 C1599 1.433 . S
C1592 H1588 0.929 . S
C1592 C1594 1.378 . S
C1592 C1596 1.350 . S
C1593 C1596 1.463 . S
C1593 C1598 1.350 . S
C1593 N1601 1.427 . S
C1594 H1585 0.930 . S
C1594 C1592 1.378 . S
C1594 C1595 1.367 . S
C1595 C1594 1.367 . S
C1595 C1597 1.433 . S
C1596 C1592 1.350 . S
C1596 C1593 1.463 . S
C1596 N1600 1.427 . S
C1597 H1587 0.929 . S
C1597 C1595 1.433 . S
C1597 N1600 1.384 . S
C1598 H1589 0.929 . S
C1598 C1590 1.378 . S
C1598 C1593 1.350 . S
C1599 H1586 0.929 . S
C1599 C1591 1.433 . S
C1599 N1601 1.384 . S
N1600 C1596 1.427 . S
N1600 C1597 1.384 . S
N1601 C1593 1.427 . S
N1601 C1599 1.384 . S
H1602 C1608 0.930 . S
H1603 C1612 0.930 . S
H1604 C1617 0.929 . S
H1605 C1615 0.929 . S
H1606 C1610 0.929 . S
H1607 C1616 0.929 . S
C1608 H1602 0.930 . S
C1608 C1609 1.367 . S
C1608 C1616 1.378 . S
C1609 C1608 1.367 . S
C1609 C1617 1.433 . S
C1610 H1606 0.929 . S
C1610 C1612 1.378 . S
C1610 C1614 1.350 . S
C1611 C1614 1.463 . S
C1611 C1616 1.350 . S
C1611 N1619 1.427 . S
C1612 H1603 0.930 . S
C1612 C1610 1.378 . S
C1612 C1613 1.367 . S
C1613 C1612 1.367 . S
C1613 C1615 1.433 . S
C1614 C1610 1.350 . S
C1614 C1611 1.463 . S
C1614 N1618 1.427 . S
C1615 H1605 0.929 . S
C1615 C1613 1.433 . S
C1615 N1618 1.384 . S
C1616 H1607 0.929 . S
C1616 C1608 1.378 . S
C1616 C1611 1.350 . S
C1617 H1604 0.929 . S
C1617 C1609 1.433 . S
C1617 N1619 1.384 . S
N1618 C1614 1.427 . S
N1618 C1615 1.384 . S
N1619 C1611 1.427 . S
N1619 C1617 1.384 . S
H1620 C1626 0.930 . S
H1621 C1630 0.930 . S
H1622 C1635 0.929 . S
H1623 C1633 0.929 . S
H1624 C1628 0.929 . S
H1625 C1634 0.929 . S
C1626 H1620 0.930 . S
C1626 C1627 1.367 . S
C1626 C1634 1.378 . S
C1627 C1626 1.367 . S
C1627 C1635 1.433 . S
C1628 H1624 0.929 . S
C1628 C1630 1.378 . S
C1628 C1632 1.350 . S
C1629 C1632 1.463 . S
C1629 C1634 1.350 . S
C1629 N1637 1.427 . S
C1630 H1621 0.930 . S
C1630 C1628 1.378 . S
C1630 C1631 1.367 . S
C1631 C1630 1.367 . S
C1631 C1633 1.433 . S
C1632 C1628 1.350 . S
C1632 C1629 1.463 . S
C1632 N1636 1.427 . S
C1633 H1623 0.929 . S
C1633 C1631 1.433 . S
C1633 N1636 1.384 . S
C1634 H1625 0.929 . S
C1634 C1626 1.378 . S
C1634 C1629 1.350 . S
C1635 H1622 0.929 . S
C1635 C1627 1.433 . S
C1635 N1637 1.384 . S
N1636 C1632 1.427 . S
N1636 C1633 1.384 . S
N1637 C1629 1.427 . S
N1637 C1635 1.384 . S
H1638 C1644 0.930 . S
H1639 C1648 0.930 . S
H1640 C1653 0.929 . S
H1641 C1651 0.929 . S
H1642 C1646 0.929 . S
H1643 C1652 0.929 . S
C1644 H1638 0.930 . S
C1644 C1645 1.367 . S
C1644 C1652 1.378 . S
C1645 C1644 1.367 . S
C1645 C1653 1.433 . S
C1646 H1642 0.929 . S
C1646 C1648 1.378 . S
C1646 C1650 1.350 . S
C1647 C1650 1.463 . S
C1647 C1652 1.350 . S
C1647 N1655 1.427 . S
C1648 H1639 0.930 . S
C1648 C1646 1.378 . S
C1648 C1649 1.367 . S
C1649 C1648 1.367 . S
C1649 C1651 1.433 . S
C1650 C1646 1.350 . S
C1650 C1647 1.463 . S
C1650 N1654 1.427 . S
C1651 H1641 0.929 . S
C1651 C1649 1.433 . S
C1651 N1654 1.384 . S
C1652 H1643 0.929 . S
C1652 C1644 1.378 . S
C1652 C1647 1.350 . S
C1653 H1640 0.929 . S
C1653 C1645 1.433 . S
C1653 N1655 1.384 . S
N1654 C1650 1.427 . S
N1654 C1651 1.384 . S
N1655 C1647 1.427 . S
N1655 C1653 1.384 . S
H1656 C1662 0.930 . S
H1657 C1666 0.930 . S
H1658 C1671 0.929 . S
H1659 C1669 0.929 . S
H1660 C1664 0.929 . S
H1661 C1670 0.929 . S
C1662 H1656 0.930 . S
C1662 C1663 1.367 . S
C1662 C1670 1.378 . S
C1663 C1662 1.367 . S
C1663 C1671 1.433 . S
C1664 H1660 0.929 . S
C1664 C1666 1.378 . S
C1664 C1668 1.350 . S
C1665 C1668 1.463 . S
C1665 C1670 1.350 . S
C1665 N1673 1.427 . S
C1666 H1657 0.930 . S
C1666 C1664 1.378 . S
C1666 C1667 1.367 . S
C1667 C1666 1.367 . S
C1667 C1669 1.433 . S
C1668 C1664 1.350 . S
C1668 C1665 1.463 . S
C1668 N1672 1.427 . S
C1669 H1659 0.929 . S
C1669 C1667 1.433 . S
C1669 N1672 1.384 . S
C1670 H1661 0.929 . S
C1670 C1662 1.378 . S
C1670 C1665 1.350 . S
C1671 H1658 0.929 . S
C1671 C1663 1.433 . S
C1671 N1673 1.384 . S
N1672 C1668 1.427 . S
N1672 C1669 1.384 . S
N1673 C1665 1.427 . S
N1673 C1671 1.384 . S
H1674 C1680 0.930 . S
H1675 C1684 0.930 . S
H1676 C1689 0.929 . S
H1677 C1687 0.929 . S
H1678 C1682 0.929 . S
H1679 C1688 0.929 . S
C1680 H1674 0.930 . S
C1680 C1681 1.367 . S
C1680 C1688 1.378 . S
C1681 C1680 1.367 . S
C1681 C1689 1.433 . S
C1682 H1678 0.929 . S
C1682 C1684 1.378 . S
C1682 C1686 1.350 . S
C1683 C1686 1.463 . S
C1683 C1688 1.350 . S
C1683 N1691 1.427 . S
C1684 H1675 0.930 . S
C1684 C1682 1.378 . S
C1684 C1685 1.367 . S
C1685 C1684 1.367 . S
C1685 C1687 1.433 . S
C1686 C1682 1.350 . S
C1686 C1683 1.463 . S
C1686 N1690 1.427 . S
C1687 H1677 0.929 . S
C1687 C1685 1.433 . S
C1687 N1690 1.384 . S
C1688 H1679 0.929 . S
C1688 C1680 1.378 . S
C1688 C1683 1.350 . S
C1689 H1676 0.929 . S
C1689 C1681 1.433 . S
C1689 N1691 1.384 . S
N1690 C1686 1.427 . S
N1690 C1687 1.384 . S
N1691 C1683 1.427 . S
N1691 C1689 1.384 . S
H1692 C1698 0.930 . S
H1693 C1702 0.930 . S
H1694 C1707 0.929 . S
H1695 C1705 0.929 . S
H1696 C1700 0.929 . S
H1697 C1706 0.929 . S
C1698 H1692 0.930 . S
C1698 C1699 1.367 . S
C1698 C1706 1.378 . S
C1699 C1698 1.367 . S
C1699 C1707 1.433 . S
C1700 H1696 0.929 . S
C1700 C1702 1.378 . S
C1700 C1704 1.350 . S
C1701 C1704 1.463 . S
C1701 C1706 1.350 . S
C1701 N1709 1.427 . S
C1702 H1693 0.930 . S
C1702 C1700 1.378 . S
C1702 C1703 1.367 . S
C1703 C1702 1.367 . S
C1703 C1705 1.433 . S
C1704 C1700 1.350 . S
C1704 C1701 1.463 . S
C1704 N1708 1.427 . S
C1705 H1695 0.929 . S
C1705 C1703 1.433 . S
C1705 N1708 1.384 . S
C1706 H1697 0.929 . S
C1706 C1698 1.378 . S
C1706 C1701 1.350 . S
C1707 H1694 0.929 . S
C1707 C1699 1.433 . S
C1707 N1709 1.384 . S
N1708 C1704 1.427 . S
N1708 C1705 1.384 . S
N1709 C1701 1.427 . S
N1709 C1707 1.384 . S
H1710 C1716 0.930 . S
H1711 C1720 0.930 . S
H1712 C1725 0.929 . S
H1713 C1723 0.929 . S
H1714 C1718 0.929 . S
H1715 C1724 0.929 . S
C1716 H1710 0.930 . S
C1716 C1717 1.367 . S
C1716 C1724 1.378 . S
C1717 C1716 1.367 . S
C1717 C1725 1.433 . S
C1718 H1714 0.929 . S
C1718 C1720 1.378 . S
C1718 C1722 1.350 . S
C1719 C1722 1.463 . S
C1719 C1724 1.350 . S
C1719 N1727 1.427 . S
C1720 H1711 0.930 . S
C1720 C1718 1.378 . S
C1720 C1721 1.367 . S
C1721 C1720 1.367 . S
C1721 C1723 1.433 . S
C1722 C1718 1.350 . S
C1722 C1719 1.463 . S
C1722 N1726 1.427 . S
C1723 H1713 0.929 . S
C1723 C1721 1.433 . S
C1723 N1726 1.384 . S
C1724 H1715 0.929 . S
C1724 C1716 1.378 . S
C1724 C1719 1.350 . S
C1725 H1712 0.929 . S
C1725 C1717 1.433 . S
C1725 N1727 1.384 . S
N1726 C1722 1.427 . S
N1726 C1723 1.384 . S
N1727 C1719 1.427 . S
N1727 C1725 1.384 . S
H1728 C1734 0.930 . S
H1729 C1738 0.930 . S
H1730 C1743 0.929 . S
H1731 C1741 0.929 . S
H1732 C1736 0.929 . S
H1733 C1742 0.929 . S
C1734 H1728 0.930 . S
C1734 C1735 1.367 . S
C1734 C1742 1.378 . S
C1735 C1734 1.367 . S
C1735 C1743 1.433 . S
C1736 H1732 0.929 . S
C1736 C1738 1.378 . S
C1736 C1740 1.350 . S
C1737 C1740 1.463 . S
C1737 C1742 1.350 . S
C1737 N1745 1.427 . S
C1738 H1729 0.930 . S
C1738 C1736 1.378 . S
C1738 C1739 1.367 . S
C1739 C1738 1.367 . S
C1739 C1741 1.433 . S
C1740 C1736 1.350 . S
C1740 C1737 1.463 . S
C1740 N1744 1.427 . S
C1741 H1731 0.929 . S
C1741 C1739 1.433 . S
C1741 N1744 1.384 . S
C1742 H1733 0.929 . S
C1742 C1734 1.378 . S
C1742 C1737 1.350 . S
C1743 H1730 0.929 . S
C1743 C1735 1.433 . S
C1743 N1745 1.384 . S
N1744 C1740 1.427 . S
N1744 C1741 1.384 . S
N1745 C1737 1.427 . S
N1745 C1743 1.384 . S
H1746 C1752 0.930 . S
H1747 C1756 0.930 . S
H1748 C1761 0.929 . S
H1749 C1759 0.929 . S
H1750 C1754 0.929 . S
H1751 C1760 0.929 . S
C1752 H1746 0.930 . S
C1752 C1753 1.367 . S
C1752 C1760 1.378 . S
C1753 C1752 1.367 . S
C1753 C1761 1.433 . S
C1754 H1750 0.929 . S
C1754 C1756 1.378 . S
C1754 C1758 1.350 . S
C1755 C1758 1.463 . S
C1755 C1760 1.350 . S
C1755 N1763 1.427 . S
C1756 H1747 0.930 . S
C1756 C1754 1.378 . S
C1756 C1757 1.367 . S
C1757 C1756 1.367 . S
C1757 C1759 1.433 . S
C1758 C1754 1.350 . S
C1758 C1755 1.463 . S
C1758 N1762 1.427 . S
C1759 H1749 0.929 . S
C1759 C1757 1.433 . S
C1759 N1762 1.384 . S
C1760 H1751 0.929 . S
C1760 C1752 1.378 . S
C1760 C1755 1.350 . S
C1761 H1748 0.929 . S
C1761 C1753 1.433 . S
C1761 N1763 1.384 . S
N1762 C1758 1.427 . S
N1762 C1759 1.384 . S
N1763 C1755 1.427 . S
N1763 C1761 1.384 . S
H1764 C1770 0.930 . S
H1765 C1774 0.930 . S
H1766 C1779 0.929 . S
H1767 C1777 0.929 . S
H1768 C1772 0.929 . S
H1769 C1778 0.929 . S
C1770 H1764 0.930 . S
C1770 C1771 1.367 . S
C1770 C1778 1.378 . S
C1771 C1770 1.367 . S
C1771 C1779 1.433 . S
C1772 H1768 0.929 . S
C1772 C1774 1.378 . S
C1772 C1776 1.350 . S
C1773 C1776 1.463 . S
C1773 C1778 1.350 . S
C1773 N1781 1.427 . S
C1774 H1765 0.930 . S
C1774 C1772 1.378 . S
C1774 C1775 1.367 . S
C1775 C1774 1.367 . S
C1775 C1777 1.433 . S
C1776 C1772 1.350 . S
C1776 C1773 1.463 . S
C1776 N1780 1.427 . S
C1777 H1767 0.929 . S
C1777 C1775 1.433 . S
C1777 N1780 1.384 . S
C1778 H1769 0.929 . S
C1778 C1770 1.378 . S
C1778 C1773 1.350 . S
C1779 H1766 0.929 . S
C1779 C1771 1.433 . S
C1779 N1781 1.384 . S
N1780 C1776 1.427 . S
N1780 C1777 1.384 . S
N1781 C1773 1.427 . S
N1781 C1779 1.384 . S
H1782 C1788 0.930 . S
H1783 C1792 0.930 . S
H1784 C1797 0.929 1_554 S
H1785 C1795 0.929 . S
H1786 C1790 0.929 . S
H1787 C1796 0.929 . S
C1788 H1782 0.930 . S
C1788 C1789 1.367 . S
C1788 C1796 1.378 . S
C1789 C1788 1.367 . S
C1789 C1797 1.433 . S
C1790 H1786 0.929 . S
C1790 C1792 1.378 . S
C1790 C1794 1.350 . S
C1791 C1794 1.463 . S
C1791 C1796 1.350 . S
C1791 N1799 1.427 . S
C1792 H1783 0.930 . S
C1792 C1790 1.378 . S
C1792 C1793 1.367 . S
C1793 C1792 1.367 . S
C1793 C1795 1.433 . S
C1794 C1790 1.350 . S
C1794 C1791 1.463 . S
C1794 N1798 1.427 . S
C1795 H1785 0.929 . S
C1795 C1793 1.433 . S
C1795 N1798 1.384 . S
C1796 H1787 0.929 . S
C1796 C1788 1.378 . S
C1796 C1791 1.350 . S
C1797 H1784 0.929 1_556 S
C1797 C1789 1.433 . S
C1797 N1799 1.384 . S
N1798 C1794 1.427 . S
N1798 C1795 1.384 . S
N1799 C1791 1.427 . S
N1799 C1797 1.384 . S
H1800 C1806 0.930 . S
H1801 C1810 0.930 . S
H1802 C1815 0.929 . S
H1803 C1813 0.929 . S
H1804 C1808 0.929 . S
H1805 C1814 0.929 . S
C1806 H1800 0.930 . S
C1806 C1807 1.367 . S
C1806 C1814 1.378 . S
C1807 C1806 1.367 . S
C1807 C1815 1.433 . S
C1808 H1804 0.929 . S
C1808 C1810 1.378 . S
C1808 C1812 1.350 . S
C1809 C1812 1.463 . S
C1809 C1814 1.350 . S
C1809 N1817 1.427 . S
C1810 H1801 0.930 . S
C1810 C1808 1.378 . S
C1810 C1811 1.367 . S
C1811 C1810 1.367 . S
C1811 C1813 1.433 . S
C1812 C1808 1.350 . S
C1812 C1809 1.463 . S
C1812 N1816 1.427 . S
C1813 H1803 0.929 . S
C1813 C1811 1.433 . S
C1813 N1816 1.384 . S
C1814 H1805 0.929 . S
C1814 C1806 1.378 . S
C1814 C1809 1.350 . S
C1815 H1802 0.929 . S
C1815 C1807 1.433 . S
C1815 N1817 1.384 . S
N1816 C1812 1.427 . S
N1816 C1813 1.384 . S
N1817 C1809 1.427 . S
N1817 C1815 1.384 . S
H1818 C1824 0.930 . S
H1819 C1828 0.930 . S
H1820 C1833 0.929 . S
H1821 C1831 0.929 . S
H1822 C1826 0.929 . S
H1823 C1832 0.929 . S
C1824 H1818 0.930 . S
C1824 C1825 1.367 . S
C1824 C1832 1.378 . S
C1825 C1824 1.367 . S
C1825 C1833 1.433 . S
C1826 H1822 0.929 . S
C1826 C1828 1.378 . S
C1826 C1830 1.350 . S
C1827 C1830 1.463 . S
C1827 C1832 1.350 . S
C1827 N1835 1.427 . S
C1828 H1819 0.930 . S
C1828 C1826 1.378 . S
C1828 C1829 1.367 . S
C1829 C1828 1.367 . S
C1829 C1831 1.433 . S
C1830 C1826 1.350 . S
C1830 C1827 1.463 . S
C1830 N1834 1.427 . S
C1831 H1821 0.929 . S
C1831 C1829 1.433 . S
C1831 N1834 1.384 . S
C1832 H1823 0.929 . S
C1832 C1824 1.378 . S
C1832 C1827 1.350 . S
C1833 H1820 0.929 . S
C1833 C1825 1.433 . S
C1833 N1835 1.384 . S
N1834 C1830 1.427 . S
N1834 C1831 1.384 . S
N1835 C1827 1.427 . S
N1835 C1833 1.384 . S
H1836 C1842 0.930 1_554 S
H1837 C1846 0.930 . S
H1838 C1851 0.929 . S
H1839 C1849 0.929 . S
H1840 C1844 0.929 . S
H1841 C1850 0.929 . S
C1842 H1836 0.930 1_556 S
C1842 C1843 1.367 . S
C1842 C1850 1.378 . S
C1843 C1842 1.367 . S
C1843 C1851 1.433 . S
C1844 H1840 0.929 . S
C1844 C1846 1.378 . S
C1844 C1848 1.350 . S
C1845 C1848 1.463 . S
C1845 C1850 1.350 . S
C1845 N1853 1.427 . S
C1846 H1837 0.930 . S
C1846 C1844 1.378 . S
C1846 C1847 1.367 . S
C1847 C1846 1.367 . S
C1847 C1849 1.433 . S
C1848 C1844 1.350 . S
C1848 C1845 1.463 . S
C1848 N1852 1.427 . S
C1849 H1839 0.929 . S
C1849 C1847 1.433 . S
C1849 N1852 1.384 . S
C1850 H1841 0.929 . S
C1850 C1842 1.378 . S
C1850 C1845 1.350 . S
C1851 H1838 0.929 . S
C1851 C1843 1.433 . S
C1851 N1853 1.384 . S
N1852 C1848 1.427 . S
N1852 C1849 1.384 . S
N1853 C1845 1.427 . S
N1853 C1851 1.384 . S
H1854 C1860 0.930 1_554 S
H1855 C1864 0.930 . S
H1856 C1869 0.929 . S
H1857 C1867 0.929 . S
H1858 C1862 0.929 . S
H1859 C1868 0.929 . S
C1860 H1854 0.930 1_556 S
C1860 C1861 1.367 . S
C1860 C1868 1.378 . S
C1861 C1860 1.367 . S
C1861 C1869 1.433 . S
C1862 H1858 0.929 . S
C1862 C1864 1.378 . S
C1862 C1866 1.350 . S
C1863 C1866 1.463 . S
C1863 C1868 1.350 . S
C1863 N1871 1.427 . S
C1864 H1855 0.930 . S
C1864 C1862 1.378 . S
C1864 C1865 1.367 . S
C1865 C1864 1.367 . S
C1865 C1867 1.433 . S
C1866 C1862 1.350 . S
C1866 C1863 1.463 . S
C1866 N1870 1.427 . S
C1867 H1857 0.929 . S
C1867 C1865 1.433 . S
C1867 N1870 1.384 . S
C1868 H1859 0.929 . S
C1868 C1860 1.378 . S
C1868 C1863 1.350 . S
C1869 H1856 0.929 . S
C1869 C1861 1.433 . S
C1869 N1871 1.384 . S
N1870 C1866 1.427 . S
N1870 C1867 1.384 . S
N1871 C1863 1.427 . S
N1871 C1869 1.384 . S
H1872 C1878 0.930 . S
H1873 C1882 0.930 . S
H1874 C1887 0.929 . S
H1875 C1885 0.929 . S
H1876 C1880 0.929 . S
H1877 C1886 0.929 . S
C1878 H1872 0.930 . S
C1878 C1879 1.367 . S
C1878 C1886 1.378 . S
C1879 C1878 1.367 . S
C1879 C1887 1.433 . S
C1880 H1876 0.929 . S
C1880 C1882 1.378 . S
C1880 C1884 1.350 . S
C1881 C1884 1.463 . S
C1881 C1886 1.350 . S
C1881 N1889 1.427 . S
C1882 H1873 0.930 . S
C1882 C1880 1.378 . S
C1882 C1883 1.367 . S
C1883 C1882 1.367 . S
C1883 C1885 1.433 . S
C1884 C1880 1.350 . S
C1884 C1881 1.463 . S
C1884 N1888 1.427 . S
C1885 H1875 0.929 . S
C1885 C1883 1.433 . S
C1885 N1888 1.384 . S
C1886 H1877 0.929 . S
C1886 C1878 1.378 . S
C1886 C1881 1.350 . S
C1887 H1874 0.929 . S
C1887 C1879 1.433 . S
C1887 N1889 1.384 . S
N1888 C1884 1.427 . S
N1888 C1885 1.384 . S
N1889 C1881 1.427 . S
N1889 C1887 1.384 . S
H1890 C1896 0.930 . S
H1891 C1900 0.930 . S
H1892 C1905 0.929 . S
H1893 C1903 0.929 . S
H1894 C1898 0.929 . S
H1895 C1904 0.929 . S
C1896 H1890 0.930 . S
C1896 C1897 1.367 . S
C1896 C1904 1.378 . S
C1897 C1896 1.367 . S
C1897 C1905 1.433 . S
C1898 H1894 0.929 . S
C1898 C1900 1.378 . S
C1898 C1902 1.350 . S
C1899 C1902 1.463 . S
C1899 C1904 1.350 . S
C1899 N1907 1.427 . S
C1900 H1891 0.930 . S
C1900 C1898 1.378 . S
C1900 C1901 1.367 . S
C1901 C1900 1.367 . S
C1901 C1903 1.433 . S
C1902 C1898 1.350 . S
C1902 C1899 1.463 . S
C1902 N1906 1.427 . S
C1903 H1893 0.929 . S
C1903 C1901 1.433 . S
C1903 N1906 1.384 . S
C1904 H1895 0.929 . S
C1904 C1896 1.378 . S
C1904 C1899 1.350 . S
C1905 H1892 0.929 . S
C1905 C1897 1.433 . S
C1905 N1907 1.384 . S
N1906 C1902 1.427 . S
N1906 C1903 1.384 . S
N1907 C1899 1.427 . S
N1907 C1905 1.384 . S
H1908 C1914 0.930 . S
H1909 C1918 0.930 . S
H1910 C1923 0.929 . S
H1911 C1921 0.929 . S
H1912 C1916 0.929 . S
H1913 C1922 0.929 . S
C1914 H1908 0.930 . S
C1914 C1915 1.367 . S
C1914 C1922 1.378 . S
C1915 C1914 1.367 . S
C1915 C1923 1.433 . S
C1916 H1912 0.929 . S
C1916 C1918 1.378 . S
C1916 C1920 1.350 . S
C1917 C1920 1.463 . S
C1917 C1922 1.350 . S
C1917 N1925 1.427 . S
C1918 H1909 0.930 . S
C1918 C1916 1.378 . S
C1918 C1919 1.367 . S
C1919 C1918 1.367 . S
C1919 C1921 1.433 . S
C1920 C1916 1.350 . S
C1920 C1917 1.463 . S
C1920 N1924 1.427 . S
C1921 H1911 0.929 . S
C1921 C1919 1.433 . S
C1921 N1924 1.384 . S
C1922 H1913 0.929 . S
C1922 C1914 1.378 . S
C1922 C1917 1.350 . S
C1923 H1910 0.929 . S
C1923 C1915 1.433 . S
C1923 N1925 1.384 . S
N1924 C1920 1.427 . S
N1924 C1921 1.384 . S
N1925 C1917 1.427 . S
N1925 C1923 1.384 . S
H1926 C1932 0.930 . S
H1927 C1936 0.930 . S
H1928 C1941 0.929 . S
H1929 C1939 0.929 . S
H1930 C1934 0.929 . S
H1931 C1940 0.929 . S
C1932 H1926 0.930 . S
C1932 C1933 1.367 . S
C1932 C1940 1.378 . S
C1933 C1932 1.367 . S
C1933 C1941 1.433 . S
C1934 H1930 0.929 . S
C1934 C1936 1.378 . S
C1934 C1938 1.350 . S
C1935 C1938 1.463 . S
C1935 C1940 1.350 . S
C1935 N1943 1.427 . S
C1936 H1927 0.930 . S
C1936 C1934 1.378 . S
C1936 C1937 1.367 . S
C1937 C1936 1.367 . S
C1937 C1939 1.433 . S
C1938 C1934 1.350 . S
C1938 C1935 1.463 . S
C1938 N1942 1.427 . S
C1939 H1929 0.929 . S
C1939 C1937 1.433 . S
C1939 N1942 1.384 . S
C1940 H1931 0.929 . S
C1940 C1932 1.378 . S
C1940 C1935 1.350 . S
C1941 H1928 0.929 . S
C1941 C1933 1.433 . S
C1941 N1943 1.384 . S
N1942 C1938 1.427 . S
N1942 C1939 1.384 . S
N1943 C1935 1.427 . S
N1943 C1941 1.384 . S
H1944 C1950 0.930 . S
H1945 C1954 0.930 . S
H1946 C1959 0.929 . S
H1947 C1957 0.929 . S
H1948 C1952 0.929 . S
H1949 C1958 0.929 . S
C1950 H1944 0.930 . S
C1950 C1951 1.367 . S
C1950 C1958 1.378 . S
C1951 C1950 1.367 . S
C1951 C1959 1.433 . S
C1952 H1948 0.929 . S
C1952 C1954 1.378 . S
C1952 C1956 1.350 . S
C1953 C1956 1.463 . S
C1953 C1958 1.350 . S
C1953 N1961 1.427 . S
C1954 H1945 0.930 . S
C1954 C1952 1.378 . S
C1954 C1955 1.367 . S
C1955 C1954 1.367 . S
C1955 C1957 1.433 . S
C1956 C1952 1.350 . S
C1956 C1953 1.463 . S
C1956 N1960 1.427 . S
C1957 H1947 0.929 . S
C1957 C1955 1.433 . S
C1957 N1960 1.384 . S
C1958 H1949 0.929 . S
C1958 C1950 1.378 . S
C1958 C1953 1.350 . S
C1959 H1946 0.929 . S
C1959 C1951 1.433 . S
C1959 N1961 1.384 . S
N1960 C1956 1.427 . S
N1960 C1957 1.384 . S
N1961 C1953 1.427 . S
N1961 C1959 1.384 . S
H1962 C1968 0.930 . S
H1963 C1972 0.930 . S
H1964 C1977 0.929 . S
H1965 C1975 0.929 . S
H1966 C1970 0.929 . S
H1967 C1976 0.929 . S
C1968 H1962 0.930 . S
C1968 C1969 1.367 . S
C1968 C1976 1.378 . S
C1969 C1968 1.367 . S
C1969 C1977 1.433 . S
C1970 H1966 0.929 . S
C1970 C1972 1.378 . S
C1970 C1974 1.350 . S
C1971 C1974 1.463 . S
C1971 C1976 1.350 . S
C1971 N1979 1.427 . S
C1972 H1963 0.930 . S
C1972 C1970 1.378 . S
C1972 C1973 1.367 . S
C1973 C1972 1.367 . S
C1973 C1975 1.433 . S
C1974 C1970 1.350 . S
C1974 C1971 1.463 . S
C1974 N1978 1.427 . S
C1975 H1965 0.929 . S
C1975 C1973 1.433 . S
C1975 N1978 1.384 . S
C1976 H1967 0.929 . S
C1976 C1968 1.378 . S
C1976 C1971 1.350 . S
C1977 H1964 0.929 . S
C1977 C1969 1.433 . S
C1977 N1979 1.384 . S
N1978 C1974 1.427 . S
N1978 C1975 1.384 . S
N1979 C1971 1.427 . S
N1979 C1977 1.384 . S
H1980 C1986 0.930 . S
H1981 C1990 0.930 . S
H1982 C1995 0.929 . S
H1983 C1993 0.929 . S
H1984 C1988 0.929 . S
H1985 C1994 0.929 . S
C1986 H1980 0.930 . S
C1986 C1987 1.367 1_655 S
C1986 C1994 1.378 . S
C1987 C1986 1.367 1_455 S
C1987 C1995 1.433 . S
C1988 H1984 0.929 . S
C1988 C1990 1.378 . S
C1988 C1992 1.350 . S
C1989 C1992 1.463 . S
C1989 C1994 1.350 1_455 S
C1989 N1997 1.427 . S
C1990 H1981 0.930 . S
C1990 C1988 1.378 . S
C1990 C1991 1.367 . S
C1991 C1990 1.367 . S
C1991 C1993 1.433 1_455 S
C1992 C1988 1.350 . S
C1992 C1989 1.463 . S
C1992 N1996 1.427 1_455 S
C1993 H1983 0.929 . S
C1993 C1991 1.433 1_655 S
C1993 N1996 1.384 . S
C1994 H1985 0.929 . S
C1994 C1986 1.378 . S
C1994 C1989 1.350 1_655 S
C1995 H1982 0.929 . S
C1995 C1987 1.433 . S
C1995 N1997 1.384 . S
N1996 C1992 1.427 1_655 S
N1996 C1993 1.384 . S
N1997 C1989 1.427 . S
N1997 C1995 1.384 . S
H1998 C2004 0.930 . S
H1999 C2008 0.930 . S
H2000 C2013 0.929 . S
H2001 C2011 0.929 . S
H2002 C2006 0.929 . S
H2003 C2012 0.929 . S
C2004 H1998 0.930 . S
C2004 C2005 1.367 . S
C2004 C2012 1.378 . S
C2005 C2004 1.367 . S
C2005 C2013 1.433 . S
C2006 H2002 0.929 . S
C2006 C2008 1.378 . S
C2006 C2010 1.350 . S
C2007 C2010 1.463 . S
C2007 C2012 1.350 . S
C2007 N2015 1.427 . S
C2008 H1999 0.930 . S
C2008 C2006 1.378 . S
C2008 C2009 1.367 . S
C2009 C2008 1.367 . S
C2009 C2011 1.433 . S
C2010 C2006 1.350 . S
C2010 C2007 1.463 . S
C2010 N2014 1.427 . S
C2011 H2001 0.929 . S
C2011 C2009 1.433 . S
C2011 N2014 1.384 . S
C2012 H2003 0.929 . S
C2012 C2004 1.378 . S
C2012 C2007 1.350 . S
C2013 H2000 0.929 . S
C2013 C2005 1.433 . S
C2013 N2015 1.384 . S
N2014 C2010 1.427 . S
N2014 C2011 1.384 . S
N2015 C2007 1.427 . S
N2015 C2013 1.384 . S
H2016 C2022 0.930 . S
H2017 C2026 0.930 . S
H2018 C2031 0.929 . S
H2019 C2029 0.929 . S
H2020 C2024 0.929 . S
H2021 C2030 0.929 . S
C2022 H2016 0.930 . S
C2022 C2023 1.367 1_545 S
C2022 C2030 1.378 . S
C2023 C2022 1.367 1_565 S
C2023 C2031 1.433 . S
C2024 H2020 0.929 . S
C2024 C2026 1.378 . S
C2024 C2028 1.350 . S
C2025 C2028 1.463 . S
C2025 C2030 1.350 1_565 S
C2025 N2033 1.427 . S
C2026 H2017 0.930 . S
C2026 C2024 1.378 . S
C2026 C2027 1.367 . S
C2027 C2026 1.367 . S
C2027 C2029 1.433 1_565 S
C2028 C2024 1.350 . S
C2028 C2025 1.463 . S
C2028 N2032 1.427 1_565 S
C2029 H2019 0.929 . S
C2029 C2027 1.433 1_545 S
C2029 N2032 1.384 . S
C2030 H2021 0.929 . S
C2030 C2022 1.378 . S
C2030 C2025 1.350 1_545 S
C2031 H2018 0.929 . S
C2031 C2023 1.433 . S
C2031 N2033 1.384 . S
N2032 C2028 1.427 1_545 S
N2032 C2029 1.384 . S
N2033 C2025 1.427 . S
N2033 C2031 1.384 . S
H2034 C2040 0.930 . S
H2035 C2044 0.930 . S
H2036 C2049 0.916 1_545 S
H2037 C2047 0.929 . S
H2038 C2042 0.929 . S
H2039 C2048 0.929 . S
C2040 H2034 0.930 . S
C2040 C2041 1.367 . S
C2040 C2048 1.378 . S
C2041 C2040 1.367 . S
C2041 C2049 1.469 . S
C2042 H2038 0.929 . S
C2042 C2044 1.378 . S
C2042 C2046 1.350 1_545 S
C2043 C2046 1.463 . S
C2043 C2048 1.350 . S
C2043 N2051 1.417 1_565 S
C2044 H2035 0.930 . S
C2044 C2042 1.378 . S
C2044 C2045 1.367 1_545 S
C2045 C2044 1.367 1_565 S
C2045 C2047 1.433 . S
C2046 C2042 1.350 1_565 S
C2046 C2043 1.463 . S
C2046 N2050 1.427 . S
C2047 H2037 0.929 . S
C2047 C2045 1.433 . S
C2047 N2050 1.384 . S
C2048 H2039 0.929 . S
C2048 C2040 1.378 . S
C2048 C2043 1.350 . S
C2049 H2036 0.916 1_565 S
C2049 C2041 1.469 . S
C2049 N2051 1.350 1_565 S
N2050 C2046 1.427 . S
N2050 C2047 1.384 . S
N2051 C2043 1.417 1_545 S
N2051 C2049 1.350 1_545 S
H2052 C2058 0.930 . S
H2053 C2062 0.925 1_655 S
H2054 C2067 0.929 . S
H2055 C2065 0.929 . S
H2056 C2060 0.912 1_655 S
H2057 C2066 0.929 . S
C2058 H2052 0.930 . S
C2058 C2059 1.367 . S
C2058 C2066 1.378 . S
C2059 C2058 1.367 . S
C2059 C2067 1.433 . S
C2060 H2056 0.912 1_455 S
C2060 C2062 1.369 . S
C2060 C2064 1.350 . S
C2061 C2064 1.463 . S
C2061 C2066 1.350 . S
C2061 N2069 1.427 . S
C2062 H2053 0.925 1_455 S
C2062 C2060 1.369 . S
C2062 C2063 1.381 . S
C2063 C2062 1.381 . S
C2063 C2065 1.433 . S
C2064 C2060 1.350 . S
C2064 C2061 1.463 . S
C2064 N2068 1.427 . S
C2065 H2055 0.929 . S
C2065 C2063 1.433 . S
C2065 N2068 1.384 . S
C2066 H2057 0.929 . S
C2066 C2058 1.378 . S
C2066 C2061 1.350 . S
C2067 H2054 0.929 . S
C2067 C2059 1.433 . S
C2067 N2069 1.384 . S
N2068 C2064 1.427 . S
N2068 C2065 1.384 . S
N2069 C2061 1.427 . S
N2069 C2067 1.384 . S
H2070 C2076 0.930 . S
H2071 C2080 0.930 . S
H2072 C2085 0.929 . S
H2073 C2083 0.929 . S
H2074 C2078 0.929 . S
H2075 C2084 0.929 . S
C2076 H2070 0.930 . S
C2076 C2077 1.367 . S
C2076 C2084 1.378 . S
C2077 C2076 1.367 . S
C2077 C2085 1.433 . S
C2078 H2074 0.929 . S
C2078 C2080 1.378 . S
C2078 C2082 1.350 . S
C2079 C2082 1.463 . S
C2079 C2084 1.350 . S
C2079 N2087 1.427 . S
C2080 H2071 0.930 . S
C2080 C2078 1.378 . S
C2080 C2081 1.367 . S
C2081 C2080 1.367 . S
C2081 C2083 1.433 . S
C2082 C2078 1.350 . S
C2082 C2079 1.463 . S
C2082 N2086 1.427 . S
C2083 H2073 0.929 . S
C2083 C2081 1.433 . S
C2083 N2086 1.384 . S
C2084 H2075 0.929 . S
C2084 C2076 1.378 . S
C2084 C2079 1.350 . S
C2085 H2072 0.929 . S
C2085 C2077 1.433 . S
C2085 N2087 1.384 . S
N2086 C2082 1.427 . S
N2086 C2083 1.384 . S
N2087 C2079 1.427 . S
N2087 C2085 1.384 . S
H2088 C2094 0.930 . S
H2089 C2098 0.930 . S
H2090 C2103 0.929 . S
H2091 C2101 0.929 . S
H2092 C2096 0.929 . S
H2093 C2102 0.929 . S
C2094 H2088 0.930 . S
C2094 C2095 1.367 . S
C2094 C2102 1.378 . S
C2095 C2094 1.367 . S
C2095 C2103 1.433 . S
C2096 H2092 0.929 . S
C2096 C2098 1.378 . S
C2096 C2100 1.350 . S
C2097 C2100 1.463 . S
C2097 C2102 1.350 . S
C2097 N2105 1.427 . S
C2098 H2089 0.930 . S
C2098 C2096 1.378 . S
C2098 C2099 1.367 . S
C2099 C2098 1.367 . S
C2099 C2101 1.433 . S
C2100 C2096 1.350 . S
C2100 C2097 1.463 . S
C2100 N2104 1.427 . S
C2101 H2091 0.929 . S
C2101 C2099 1.433 . S
C2101 N2104 1.384 . S
C2102 H2093 0.929 . S
C2102 C2094 1.378 . S
C2102 C2097 1.350 . S
C2103 H2090 0.929 . S
C2103 C2095 1.433 . S
C2103 N2105 1.384 . S
N2104 C2100 1.427 . S
N2104 C2101 1.384 . S
N2105 C2097 1.427 . S
N2105 C2103 1.384 . S
H2106 C2112 0.930 . S
H2107 C2116 0.930 . S
H2108 C2121 0.929 . S
H2109 C2119 0.929 . S
H2110 C2114 0.929 . S
H2111 C2120 0.929 . S
C2112 H2106 0.930 . S
C2112 C2113 1.367 . S
C2112 C2120 1.378 . S
C2113 C2112 1.367 . S
C2113 C2121 1.433 . S
C2114 H2110 0.929 . S
C2114 C2116 1.378 . S
C2114 C2118 1.350 . S
C2115 C2118 1.463 . S
C2115 C2120 1.350 . S
C2115 N2123 1.427 . S
C2116 H2107 0.930 . S
C2116 C2114 1.378 . S
C2116 C2117 1.367 . S
C2117 C2116 1.367 . S
C2117 C2119 1.433 . S
C2118 C2114 1.350 . S
C2118 C2115 1.463 . S
C2118 N2122 1.427 . S
C2119 H2109 0.929 . S
C2119 C2117 1.433 . S
C2119 N2122 1.384 . S
C2120 H2111 0.929 . S
C2120 C2112 1.378 . S
C2120 C2115 1.350 . S
C2121 H2108 0.929 . S
C2121 C2113 1.433 . S
C2121 N2123 1.384 . S
N2122 C2118 1.427 . S
N2122 C2119 1.384 . S
N2123 C2115 1.427 . S
N2123 C2121 1.384 . S
H2124 C2130 0.930 . S
H2125 C2134 0.930 . S
H2126 C2139 0.929 . S
H2127 C2137 0.929 . S
H2128 C2132 0.929 . S
H2129 C2138 0.929 . S
C2130 H2124 0.930 . S
C2130 C2131 1.367 . S
C2130 C2138 1.378 . S
C2131 C2130 1.367 . S
C2131 C2139 1.433 . S
C2132 H2128 0.929 . S
C2132 C2134 1.378 . S
C2132 C2136 1.350 . S
C2133 C2136 1.463 . S
C2133 C2138 1.350 . S
C2133 N2141 1.427 . S
C2134 H2125 0.930 . S
C2134 C2132 1.378 . S
C2134 C2135 1.367 . S
C2135 C2134 1.367 . S
C2135 C2137 1.433 . S
C2136 C2132 1.350 . S
C2136 C2133 1.463 . S
C2136 N2140 1.427 . S
C2137 H2127 0.929 . S
C2137 C2135 1.433 . S
C2137 N2140 1.384 . S
C2138 H2129 0.929 . S
C2138 C2130 1.378 . S
C2138 C2133 1.350 . S
C2139 H2126 0.929 . S
C2139 C2131 1.433 . S
C2139 N2141 1.384 . S
N2140 C2136 1.427 . S
N2140 C2137 1.384 . S
N2141 C2133 1.427 . S
N2141 C2139 1.384 . S
H2142 C2148 0.930 1_565 S
H2143 C2152 0.930 . S
H2144 C2157 0.929 . S
H2145 C2155 0.929 . S
H2146 C2150 0.929 . S
H2147 C2156 0.929 1_565 S
C2148 H2142 0.930 1_545 S
C2148 C2149 1.367 . S
C2148 C2156 1.378 . S
C2149 C2148 1.367 . S
C2149 C2157 1.433 . S
C2150 H2146 0.929 . S
C2150 C2152 1.378 . S
C2150 C2154 1.350 . S
C2151 C2154 1.463 . S
C2151 C2156 1.350 . S
C2151 N2159 1.427 . S
C2152 H2143 0.930 . S
C2152 C2150 1.378 . S
C2152 C2153 1.367 . S
C2153 C2152 1.367 . S
C2153 C2155 1.433 1_545 S
C2154 C2150 1.350 . S
C2154 C2151 1.463 . S
C2154 N2158 1.404 1_545 S
C2155 H2145 0.929 . S
C2155 C2153 1.433 1_565 S
C2155 N2158 1.421 . S
C2156 H2147 0.929 1_545 S
C2156 C2148 1.378 . S
C2156 C2151 1.350 . S
C2157 H2144 0.929 . S
C2157 C2149 1.433 . S
C2157 N2159 1.384 . S
N2158 C2154 1.404 1_565 S
N2158 C2155 1.421 . S
N2159 C2151 1.427 . S
N2159 C2157 1.384 . S
H2160 C2166 0.930 . S
H2161 C2170 0.930 . S
H2162 C2175 0.929 . S
H2163 C2173 0.928 . S
H2164 C2168 0.929 . S
H2165 C2174 0.938 . S
C2166 H2160 0.930 . S
C2166 C2167 1.367 . S
C2166 C2174 1.378 . S
C2167 C2166 1.367 . S
C2167 C2175 1.433 . S
C2168 H2164 0.929 . S
C2168 C2170 1.378 . S
C2168 C2172 1.350 . S
C2169 C2172 1.463 . S
C2169 C2174 1.350 . S
C2169 N2177 1.427 . S
C2170 H2161 0.930 . S
C2170 C2168 1.378 . S
C2170 C2171 1.367 . S
C2171 C2170 1.367 . S
C2171 C2173 1.437 1_655 S
C2172 C2168 1.350 . S
C2172 C2169 1.463 . S
C2172 N2176 1.427 . S
C2173 H2163 0.928 . S
C2173 C2171 1.437 1_455 S
C2173 N2176 1.381 1_455 S
C2174 H2165 0.938 . S
C2174 C2166 1.378 . S
C2174 C2169 1.350 . S
C2175 H2162 0.929 . S
C2175 C2167 1.433 . S
C2175 N2177 1.384 . S
N2176 C2172 1.427 . S
N2176 C2173 1.381 1_655 S
N2177 C2169 1.427 . S
N2177 C2175 1.384 . S
H2178 C2184 0.930 . S
H2179 C2188 0.930 . S
H2180 C2193 0.929 . S
H2181 C2191 0.929 . S
H2182 C2186 0.929 . S
H2183 C2192 0.929 . S
C2184 H2178 0.930 . S
C2184 C2185 1.367 . S
C2184 C2192 1.378 . S
C2185 C2184 1.367 . S
C2185 C2193 1.433 . S
C2186 H2182 0.929 . S
C2186 C2188 1.378 . S
C2186 C2190 1.350 . S
C2187 C2190 1.463 . S
C2187 C2192 1.350 . S
C2187 N2195 1.427 . S
C2188 H2179 0.930 . S
C2188 C2186 1.378 . S
C2188 C2189 1.367 . S
C2189 C2188 1.367 . S
C2189 C2191 1.433 . S
C2190 C2186 1.350 . S
C2190 C2187 1.463 . S
C2190 N2194 1.427 . S
C2191 H2181 0.929 . S
C2191 C2189 1.433 . S
C2191 N2194 1.384 . S
C2192 H2183 0.929 . S
C2192 C2184 1.378 . S
C2192 C2187 1.350 . S
C2193 H2180 0.929 . S
C2193 C2185 1.433 . S
C2193 N2195 1.384 . S
N2194 C2190 1.427 . S
N2194 C2191 1.384 . S
N2195 C2187 1.427 . S
N2195 C2193 1.384 . S
H2196 C2202 0.930 . S
H2197 C2206 0.930 . S
H2198 C2211 0.929 . S
H2199 C2209 0.929 . S
H2200 C2204 0.929 . S
H2201 C2210 0.929 . S
C2202 H2196 0.930 . S
C2202 C2203 1.367 . S
C2202 C2210 1.378 . S
C2203 C2202 1.367 . S
C2203 C2211 1.433 . S
C2204 H2200 0.929 . S
C2204 C2206 1.378 . S
C2204 C2208 1.350 . S
C2205 C2208 1.463 . S
C2205 C2210 1.350 . S
C2205 N2213 1.427 . S
C2206 H2197 0.930 . S
C2206 C2204 1.378 . S
C2206 C2207 1.367 . S
C2207 C2206 1.367 . S
C2207 C2209 1.433 . S
C2208 C2204 1.350 . S
C2208 C2205 1.463 . S
C2208 N2212 1.427 . S
C2209 H2199 0.929 . S
C2209 C2207 1.433 . S
C2209 N2212 1.384 . S
C2210 H2201 0.929 . S
C2210 C2202 1.378 . S
C2210 C2205 1.350 . S
C2211 H2198 0.929 . S
C2211 C2203 1.433 . S
C2211 N2213 1.384 . S
N2212 C2208 1.427 . S
N2212 C2209 1.384 . S
N2213 C2205 1.427 . S
N2213 C2211 1.384 . S
H2214 C2220 0.930 . S
H2215 C2224 0.930 . S
H2216 C2229 0.929 . S
H2217 C2227 0.929 . S
H2218 C2222 0.929 . S
H2219 C2228 0.929 . S
C2220 H2214 0.930 . S
C2220 C2221 1.367 . S
C2220 C2228 1.378 . S
C2221 C2220 1.367 . S
C2221 C2229 1.433 . S
C2222 H2218 0.929 . S
C2222 C2224 1.378 . S
C2222 C2226 1.350 . S
C2223 C2226 1.463 . S
C2223 C2228 1.350 . S
C2223 N2231 1.427 . S
C2224 H2215 0.930 . S
C2224 C2222 1.378 . S
C2224 C2225 1.367 . S
C2225 C2224 1.367 . S
C2225 C2227 1.433 . S
C2226 C2222 1.350 . S
C2226 C2223 1.463 . S
C2226 N2230 1.427 . S
C2227 H2217 0.929 . S
C2227 C2225 1.433 . S
C2227 N2230 1.384 . S
C2228 H2219 0.929 . S
C2228 C2220 1.378 . S
C2228 C2223 1.350 . S
C2229 H2216 0.929 . S
C2229 C2221 1.433 . S
C2229 N2231 1.384 . S
N2230 C2226 1.427 . S
N2230 C2227 1.384 . S
N2231 C2223 1.427 . S
N2231 C2229 1.384 . S
H2232 C2238 0.930 . S
H2233 C2242 0.930 . S
H2234 C2247 0.929 . S
H2235 C2245 0.929 . S
H2236 C2240 0.929 . S
H2237 C2246 0.929 . S
C2238 H2232 0.930 . S
C2238 C2239 1.367 . S
C2238 C2246 1.378 . S
C2239 C2238 1.367 . S
C2239 C2247 1.433 . S
C2240 H2236 0.929 . S
C2240 C2242 1.378 . S
C2240 C2244 1.350 . S
C2241 C2244 1.463 . S
C2241 C2246 1.350 . S
C2241 N2249 1.427 . S
C2242 H2233 0.930 . S
C2242 C2240 1.378 . S
C2242 C2243 1.367 . S
C2243 C2242 1.367 . S
C2243 C2245 1.433 . S
C2244 C2240 1.350 . S
C2244 C2241 1.463 . S
C2244 N2248 1.427 . S
C2245 H2235 0.929 . S
C2245 C2243 1.433 . S
C2245 N2248 1.384 . S
C2246 H2237 0.929 . S
C2246 C2238 1.378 . S
C2246 C2241 1.350 . S
C2247 H2234 0.929 . S
C2247 C2239 1.433 . S
C2247 N2249 1.384 . S
N2248 C2244 1.427 . S
N2248 C2245 1.384 . S
N2249 C2241 1.427 . S
N2249 C2247 1.384 . S
H2250 C2256 0.930 . S
H2251 C2260 0.930 . S
H2252 C2265 0.929 . S
H2253 C2263 0.929 . S
H2254 C2258 0.929 . S
H2255 C2264 0.929 . S
C2256 H2250 0.930 . S
C2256 C2257 1.367 . S
C2256 C2264 1.378 . S
C2257 C2256 1.367 . S
C2257 C2265 1.433 . S
C2258 H2254 0.929 . S
C2258 C2260 1.378 . S
C2258 C2262 1.350 . S
C2259 C2262 1.463 . S
C2259 C2264 1.350 . S
C2259 N2267 1.427 . S
C2260 H2251 0.930 . S
C2260 C2258 1.378 . S
C2260 C2261 1.367 . S
C2261 C2260 1.367 . S
C2261 C2263 1.433 . S
C2262 C2258 1.350 . S
C2262 C2259 1.463 . S
C2262 N2266 1.427 . S
C2263 H2253 0.929 . S
C2263 C2261 1.433 . S
C2263 N2266 1.384 . S
C2264 H2255 0.929 . S
C2264 C2256 1.378 . S
C2264 C2259 1.350 . S
C2265 H2252 0.929 . S
C2265 C2257 1.433 . S
C2265 N2267 1.384 . S
N2266 C2262 1.427 . S
N2266 C2263 1.384 . S
N2267 C2259 1.427 . S
N2267 C2265 1.384 . S
H2268 C2274 0.930 . S
H2269 C2278 0.930 . S
H2270 C2283 0.929 . S
H2271 C2281 0.929 . S
H2272 C2276 0.929 . S
H2273 C2282 0.929 . S
C2274 H2268 0.930 . S
C2274 C2275 1.367 . S
C2274 C2282 1.378 . S
C2275 C2274 1.367 . S
C2275 C2283 1.433 . S
C2276 H2272 0.929 . S
C2276 C2278 1.378 . S
C2276 C2280 1.350 . S
C2277 C2280 1.463 . S
C2277 C2282 1.350 . S
C2277 N2285 1.427 . S
C2278 H2269 0.930 . S
C2278 C2276 1.378 . S
C2278 C2279 1.367 . S
C2279 C2278 1.367 . S
C2279 C2281 1.433 . S
C2280 C2276 1.350 . S
C2280 C2277 1.463 . S
C2280 N2284 1.427 . S
C2281 H2271 0.929 . S
C2281 C2279 1.433 . S
C2281 N2284 1.384 . S
C2282 H2273 0.929 . S
C2282 C2274 1.378 . S
C2282 C2277 1.350 . S
C2283 H2270 0.929 . S
C2283 C2275 1.433 . S
C2283 N2285 1.384 . S
N2284 C2280 1.427 . S
N2284 C2281 1.384 . S
N2285 C2277 1.427 . S
N2285 C2283 1.384 . S
H2286 C2292 0.930 . S
H2287 C2296 0.930 . S
H2288 C2301 0.929 . S
H2289 C2299 0.929 . S
H2290 C2294 0.929 . S
H2291 C2300 0.929 . S
C2292 H2286 0.930 . S
C2292 C2293 1.367 . S
C2292 C2300 1.378 . S
C2293 C2292 1.367 . S
C2293 C2301 1.433 . S
C2294 H2290 0.929 . S
C2294 C2296 1.378 . S
C2294 C2298 1.350 . S
C2295 C2298 1.463 . S
C2295 C2300 1.350 . S
C2295 N2303 1.427 . S
C2296 H2287 0.930 . S
C2296 C2294 1.378 . S
C2296 C2297 1.367 . S
C2297 C2296 1.367 . S
C2297 C2299 1.433 . S
C2298 C2294 1.350 . S
C2298 C2295 1.463 . S
C2298 N2302 1.427 . S
C2299 H2289 0.929 . S
C2299 C2297 1.433 . S
C2299 N2302 1.384 . S
C2300 H2291 0.929 . S
C2300 C2292 1.378 . S
C2300 C2295 1.350 . S
C2301 H2288 0.929 . S
C2301 C2293 1.433 . S
C2301 N2303 1.384 . S
N2302 C2298 1.427 . S
N2302 C2299 1.384 . S
N2303 C2295 1.427 . S
N2303 C2301 1.384 . S
H2304 C2310 0.930 . S
H2305 C2314 0.930 . S
H2306 C2319 0.929 . S
H2307 C2317 0.948 . S
H2308 C2312 0.929 . S
H2309 C2318 0.911 1_455 S
C2310 H2304 0.930 . S
C2310 C2311 1.367 . S
C2310 C2318 1.378 . S
C2311 C2310 1.367 . S
C2311 C2319 1.433 . S
C2312 H2308 0.929 . S
C2312 C2314 1.378 . S
C2312 C2316 1.350 . S
C2313 C2316 1.463 . S
C2313 C2318 1.350 . S
C2313 N2321 1.427 . S
C2314 H2305 0.930 . S
C2314 C2312 1.378 . S
C2314 C2315 1.367 . S
C2315 C2314 1.367 . S
C2315 C2317 1.447 1_655 S
C2316 C2312 1.350 . S
C2316 C2313 1.463 . S
C2316 N2320 1.435 . S
C2317 H2307 0.948 . S
C2317 C2315 1.447 1_455 S
C2317 N2320 1.341 1_455 S
C2318 H2309 0.911 1_655 S
C2318 C2310 1.378 . S
C2318 C2313 1.350 . S
C2319 H2306 0.929 . S
C2319 C2311 1.433 . S
C2319 N2321 1.384 . S
N2320 C2316 1.435 . S
N2320 C2317 1.341 1_655 S
N2321 C2313 1.427 . S
N2321 C2319 1.384 . S
H2322 C2328 0.930 . S
H2323 C2332 0.930 . S
H2324 C2337 0.929 . S
H2325 C2335 0.929 . S
H2326 C2330 0.929 . S
H2327 C2336 0.929 . S
C2328 H2322 0.930 . S
C2328 C2329 1.367 . S
C2328 C2336 1.378 . S
C2329 C2328 1.367 . S
C2329 C2337 1.433 . S
C2330 H2326 0.929 . S
C2330 C2332 1.378 . S
C2330 C2334 1.350 . S
C2331 C2334 1.463 . S
C2331 C2336 1.350 . S
C2331 N2339 1.427 . S
C2332 H2323 0.930 . S
C2332 C2330 1.378 . S
C2332 C2333 1.367 . S
C2333 C2332 1.367 . S
C2333 C2335 1.433 . S
C2334 C2330 1.350 . S
C2334 C2331 1.463 . S
C2334 N2338 1.427 . S
C2335 H2325 0.929 . S
C2335 C2333 1.433 . S
C2335 N2338 1.384 . S
C2336 H2327 0.929 . S
C2336 C2328 1.378 . S
C2336 C2331 1.350 . S
C2337 H2324 0.929 . S
C2337 C2329 1.433 . S
C2337 N2339 1.384 . S
N2338 C2334 1.427 . S
N2338 C2335 1.384 . S
N2339 C2331 1.427 . S
N2339 C2337 1.384 . S
H2340 C2346 0.930 . S
H2341 C2350 0.930 . S
H2342 C2355 0.929 . S
H2343 C2353 0.929 . S
H2344 C2348 0.929 . S
H2345 C2354 0.929 . S
C2346 H2340 0.930 . S
C2346 C2347 1.367 . S
C2346 C2354 1.378 . S
C2347 C2346 1.367 . S
C2347 C2355 1.433 1_545 S
C2348 H2344 0.929 . S
C2348 C2350 1.378 . S
C2348 C2352 1.350 1_565 S
C2349 C2352 1.463 . S
C2349 C2354 1.350 . S
C2349 N2357 1.427 1_545 S
C2350 H2341 0.930 . S
C2350 C2348 1.378 . S
C2350 C2351 1.367 1_565 S
C2351 C2350 1.367 1_545 S
C2351 C2353 1.433 . S
C2352 C2348 1.350 1_545 S
C2352 C2349 1.463 . S
C2352 N2356 1.427 . S
C2353 H2343 0.929 . S
C2353 C2351 1.433 . S
C2353 N2356 1.384 . S
C2354 H2345 0.929 . S
C2354 C2346 1.378 . S
C2354 C2349 1.350 . S
C2355 H2342 0.929 . S
C2355 C2347 1.433 1_565 S
C2355 N2357 1.384 . S
N2356 C2352 1.427 . S
N2356 C2353 1.384 . S
N2357 C2349 1.427 1_565 S
N2357 C2355 1.384 . S
C1069 C10 1.559 1_655 S
C1073 C670 1.553 . S
C1087 C23 1.611 . S
C1091 C716 1.601 . S
C1109 C748 1.561 . S
C1105 C29 1.565 . S
C1123 C30 1.542 1_565 S
C1127 C801 1.555 . S
C1141 C5 1.568 . S
C1145 C847 1.571 . S
C1159 C18 1.615 . S
C1163 C886 1.613 . S
C1177 C49 1.554 . S
C1181 C840 1.549 . S
C1199 C893 1.607 . S
C1195 C62 1.611 . S
C1217 C794 1.566 . S
C1213 C70 1.555 . S
C1231 C75 1.582 . S
C1235 C755 1.548 . S
C1253 C649 1.573 . S
C1249 C44 1.560 . S
C1267 C57 1.616 . S
C1271 C695 1.607 . S
C1285 C88 1.654 . S
C1289 C925 1.648 . S
C1303 C101 1.656 . S
C1307 C992 1.644 . S
C1325 C1038 1.627 . S
C1321 C107 1.637 . S
C1339 C108 1.612 . S
C1343 C249 1.602 . S
C1357 C83 1.640 . S
C1361 C295 1.624 . S
C1375 C96 1.637 . S
C1379 C341 1.626 . S
C1393 C127 1.613 . S
C1397 C288 1.596 . S
C1411 C140 1.633 . S
C1415 C334 1.621 . S
C1433 C242 1.616 . S
C1429 C146 1.631 . S
C1451 C1017 1.643 . S
C1447 C147 1.656 . S
C1469 C946 1.635 . S
C1465 C122 1.644 . S
C1487 C971 1.643 . S
C1483 C135 1.661 . S
C1501 C160 1.616 . S
C1505 C373 1.606 . S
C1519 C173 1.632 . S
C1523 C426 1.621 . S
C1537 C185 1.631 . S
C1541 C472 1.628 . S
C1555 C186 1.654 . S
C1559 C518 1.649 . S
C1577 C571 1.634 . S
C1573 C159 1.643 . S
C1595 C617 1.649 . S
C1591 C172 1.661 . S
C1613 C564 1.639 . S
C1609 C205 1.657 . S
C1631 C610 1.644 . S
C1627 C218 1.656 . S
C1645 C224 1.634 . S
C1649 C525 1.627 . S
C1667 C479 1.603 . S
C1663 C225 1.611 . S
C1681 C200 1.640 . S
C1685 C394 1.631 . S
C1703 C433 1.630 . S
C1699 C213 1.639 . S
C1721 C256 1.534 . S
C1717 C4 1.539 . S
C1735 C17 1.499 . S
C1739 C302 1.494 . S
C1757 C348 1.533 . S
C1753 C31 1.540 . S
C1775 C380 1.523 . S
C1771 C36 1.539 . S
C1793 C419 1.533 . S
C1789 C3 1.544 . S
C1811 C465 1.488 . S
C1807 C16 1.506 . S
C1825 C43 1.543 . S
C1829 C486 1.536 . S
C1843 C56 1.499 . S
C1847 C387 1.483 . S
C1861 C68 1.536 . S
C1865 C440 1.516 . S
C1879 C69 1.544 . S
C1883 C281 1.542 . S
C1901 C327 1.537 . S
C1897 C42 1.539 . S
C1915 C55 1.505 . S
C1919 C235 1.500 . S
C1937 C511 1.522 . S
C1933 C82 1.531 . S
C1951 C95 1.560 . S
C1955 C578 1.556 . S
C1969 C109 1.574 . S
C1973 C624 1.565 . S
C1991 C663 1.473 . S
C1987 C114 1.471 . S
C2005 C81 1.542 . S
C2009 C709 1.536 . S
C2023 C94 1.478 . S
C2027 C741 1.474 . S
C2041 C121 1.471 . S
C2045 C762 1.470 . S
C2059 C134 1.469 . S
C2063 C656 1.469 . S
C2081 C702 1.533 . S
C2077 C148 1.538 . S
C2095 C153 1.535 . S
C2099 C557 1.525 . S
C2113 C120 1.576 . S
C2117 C603 1.568 . S
C2135 C532 1.556 . S
C2131 C133 1.566 . S
C2153 C808 1.477 . S
C2149 C166 1.472 . S
C2167 C179 1.467 . S
C2171 C854 1.472 . S
C2185 C187 1.537 . S
C2189 C879 1.527 . S
C2207 C932 1.519 . S
C2203 C192 1.531 . S
C2225 C985 1.567 . S
C2221 C161 1.578 . S
C2239 C174 1.568 . S
C2243 C1031 1.561 . S
C2257 C199 1.535 . S
C2261 C1024 1.528 . S
C2275 C212 1.558 . S
C2279 C939 1.549 . S
C2297 C978 1.561 . S
C2293 C226 1.572 . S
C2315 C833 1.472 . S
C2311 C231 1.466 . S
C2333 C900 1.534 . S
C2329 C198 1.543 . S
C2347 C211 1.478 . S
C2351 C787 1.478 . S
