# Generated by pormake.
# Topology pth, (4,4)-cn, num edge types: 1
# Building blocks:
#     Node 0, Type 0, BuildingBlock: NAHDIM_clean_sbu_0, # of connection points: 4
#     Node 1, Type 0, BuildingBlock: NAHDIM_clean_sbu_0, # of connection points: 4
#     Node 2, Type 0, BuildingBlock: NAHDIM_clean_sbu_0, # of connection points: 4
#     Node 3, Type 1, BuildingBlock: NAHDIM_clean_linker_0, # of connection points: 4
#     Node 4, Type 1, BuildingBlock: NAHDIM_clean_linker_0, # of connection points: 4
#     Node 5, Type 1, BuildingBlock: NAHDIM_clean_linker_0, # of connection points: 4
#     Edge 6, Type (0, 1), BuildingBlock: CIFDUS_clean_linker_0, # of connection points: 2
#     Edge 7, Type (0, 1), BuildingBlock: CIFDUS_clean_linker_0, # of connection points: 2
#     Edge 8, Type (0, 1), BuildingBlock: CIFDUS_clean_linker_0, # of connection points: 2
#     Edge 9, Type (0, 1), BuildingBlock: CIFDUS_clean_linker_0, # of connection points: 2
#     Edge 10, Type (0, 1), BuildingBlock: CIFDUS_clean_linker_0, # of connection points: 2
#     Edge 11, Type (0, 1), BuildingBlock: CIFDUS_clean_linker_0, # of connection points: 2
#     Edge 12, Type (0, 1), BuildingBlock: CIFDUS_clean_linker_0, # of connection points: 2
#     Edge 13, Type (0, 1), BuildingBlock: CIFDUS_clean_linker_0, # of connection points: 2
#     Edge 14, Type (0, 1), BuildingBlock: CIFDUS_clean_linker_0, # of connection points: 2
#     Edge 15, Type (0, 1), BuildingBlock: CIFDUS_clean_linker_0, # of connection points: 2
#     Edge 16, Type (0, 1), BuildingBlock: CIFDUS_clean_linker_0, # of connection points: 2
#     Edge 17, Type (0, 1), BuildingBlock: CIFDUS_clean_linker_0, # of connection points: 2
# Relax obj value: 0.060
# Max RMSD: 0.179
# Mean RMSD: 0.115
data_MOF--net-pth--node1-NAHDIM_clean_sbu_0--node2-NAHDIM_clean_linker_0--edge1-CIFDUS_clean_linker_0
_symmetry_space_group_name_H-M    P1
_symmetry_Int_Tables_number       1
_symmetry_cell_setting            triclinic
loop_
_symmetry_equiv_pos_as_xyz
'x, y, z'
_cell_length_a     28.858746
_cell_length_b     29.000795
_cell_length_c     72.286197
_cell_angle_alpha  91.680544
_cell_angle_beta   90.478744
_cell_angle_gamma 120.61106
loop_
_atom_site_label
_atom_site_type_symbol
_atom_site_fract_x
_atom_site_fract_y
_atom_site_fract_z
_atom_type_partial_charge
C0 C 0.08101 0.98402 0.08128 0.0
O1 O 0.05614 0.95971 0.06558 0.0
O2 O 0.05694 0.11879 0.08185 0.0
Zn3 Zn 0.07431 0.07121 0.06619 0.0
O4 O 0.00862 0.01509 0.05183 0.0
C5 C 0.16832 0.16492 0.05374 0.0
O6 O 0.17394 0.17842 0.07148 0.0
O7 O 0.09733 0.03361 0.08383 0.0
C8 C 0.99408 0.02265 0.03613 0.0
O9 O 0.02111 0.07028 0.02909 0.0
C10 C 0.05523 0.15814 0.07532 0.0
O11 O 0.06026 0.16555 0.05744 0.0
O12 O 0.13117 0.11821 0.04841 0.0
C13 C 0.05813 0.14523 0.3697 0.0
O14 O 0.0152 0.10817 0.37779 0.0
O15 O 0.06955 0.03124 0.38469 0.0
Zn16 Zn 0.09823 0.10575 0.39573 0.0
O17 O 0.04824 0.1063 0.41483 0.0
C18 C 0.19636 0.10674 0.40283 0.0
O19 O 0.1849 0.08334 0.38623 0.0
O20 O 0.10411 0.15458 0.37535 0.0
C21 C 0.03444 0.07642 0.42865 0.0
O22 O 0.05236 0.04317 0.43037 0.0
C23 C 0.02068 0.99386 0.38279 0.0
O24 O 0.98223 0.0022 0.38832 0.0
O25 O 0.16787 0.12545 0.40901 0.0
C26 C 0.12354 0.05031 0.70775 0.0
O27 O 0.12856 0.0979 0.70915 0.0
O28 O 0.9862 0.03619 0.71465 0.0
Zn29 Zn 0.03767 0.02857 0.73157 0.0
O30 O 0.0803 0.09819 0.74632 0.0
C31 C 0.9552 0.97523 0.75651 0.0
O32 O 0.955 0.01994 0.75429 0.0
O33 O 0.08684 0.01227 0.71665 0.0
C34 C 0.09867 0.10175 0.76265 0.0
O35 O 0.09138 0.05824 0.77043 0.0
C36 C 0.99747 0.08033 0.70767 0.0
O37 O 0.04586 0.12237 0.71047 0.0
O38 O 0.9907 0.96899 0.7484 0.0
C39 C 0.96056 0.6785 0.3589 0.0
C40 C 0.99959 0.72049 0.34575 0.0
C41 C 0.99579 0.69171 0.3136 0.0
C42 C 0.05097 0.71672 0.31007 0.0
C43 C 0.06985 0.696 0.2962 0.0
C44 C 0.03272 0.6493 0.28575 0.0
C45 C 0.97678 0.6258 0.28864 0.0
C46 C 0.95903 0.648 0.30237 0.0
C47 C 0.12958 0.72287 0.29315 0.0
C48 C 0.9359 0.57578 0.27786 0.0
C49 C 0.07679 0.31737 0.32481 0.0
C50 C 0.06308 0.34797 0.31201 0.0
C51 C 0.09695 0.43781 0.30085 0.0
C52 C 0.05117 0.4231 0.28955 0.0
C53 C 0.04602 0.46149 0.2799 0.0
C54 C 0.08859 0.51559 0.28084 0.0
C55 C 0.13552 0.53037 0.29168 0.0
C56 C 0.13886 0.49126 0.30167 0.0
C57 C 0.99445 0.44403 0.26896 0.0
C58 C 0.18185 0.58752 0.29285 0.0
C59 C 0.09351 0.44282 0.16107 0.0
C60 C 0.04592 0.42546 0.17074 0.0
C61 C 0.037 0.46225 0.18076 0.0
C62 C 0.07706 0.51741 0.18132 0.0
C63 C 0.12432 0.53512 0.17103 0.0
C64 C 0.13156 0.49748 0.16079 0.0
C65 C 0.98501 0.44202 0.1909 0.0
C66 C 0.1676 0.59356 0.17118 0.0
C67 C 0.92565 0.79961 0.16996 0.0
C68 C 0.97078 0.78898 0.16484 0.0
C69 C 0.97336 0.70726 0.17006 0.0
C70 C 0.94011 0.6536 0.17427 0.0
C71 C 0.96145 0.62449 0.18212 0.0
C72 C 0.01766 0.64972 0.18552 0.0
C73 C 0.05191 0.70322 0.18038 0.0
C74 C 0.02941 0.73155 0.17268 0.0
C75 C 0.92383 0.56721 0.18718 0.0
C76 C 0.11214 0.73064 0.18336 0.0
C77 C 0.05253 0.6215 0.27343 0.0
C78 C 0.06737 0.58787 0.28176 0.0
C79 C 0.08232 0.55668 0.2712 0.0
C80 C 0.08379 0.55985 0.25172 0.0
C81 C 0.09979 0.52991 0.2407 0.0
C82 C 0.09662 0.52964 0.22149 0.0
C83 C 0.07737 0.55934 0.21259 0.0
C84 C 0.07 0.55607 0.19312 0.0
C85 C 0.05191 0.58701 0.18468 0.0
C86 C 0.04012 0.62077 0.19522 0.0
C87 C 0.04616 0.62376 0.21474 0.0
C88 C 0.03347 0.65639 0.2258 0.0
C89 C 0.03683 0.65682 0.24504 0.0
C90 C 0.05252 0.62429 0.25394 0.0
C91 C 0.06759 0.59278 0.24305 0.0
C92 C 0.06433 0.59247 0.22344 0.0
C93 C 0.15782 0.37991 0.16695 0.0
C94 C 0.10156 0.36356 0.15942 0.0
O95 O 0.97705 0.70809 0.32798 0.0
O96 O 0.94977 0.73407 0.16359 0.0
O97 O 0.10323 0.40759 0.15171 0.0
O98 O 0.10164 0.40193 0.31126 0.0
H99 H 0.03691 0.71812 0.34641 0.0
H100 H 0.95468 0.6386 0.3548 0.0
H101 H 0.92063 0.67549 0.35842 0.0
H102 H 0.97718 0.68883 0.37333 0.0
H103 H 0.07929 0.75195 0.31833 0.0
H104 H 0.91645 0.62962 0.30506 0.0
H105 H 0.14473 0.69715 0.29832 0.0
H106 H 0.15235 0.76277 0.30047 0.0
H107 H 0.13771 0.72778 0.27813 0.0
H108 H 0.8941 0.5613 0.28232 0.0
H109 H 0.94512 0.54334 0.2796 0.0
H110 H 0.93803 0.58386 0.26289 0.0
H111 H 0.02137 0.34048 0.31358 0.0
H112 H 0.04577 0.30409 0.33588 0.0
H113 H 0.11081 0.34792 0.33414 0.0
H114 H 0.08427 0.26266 0.30698 0.0
H115 H 0.01871 0.38182 0.28834 0.0
H116 H 0.17421 0.50234 0.31028 0.0
H117 H 0.00203 0.44372 0.25395 0.0
H118 H 0.97988 0.47238 0.27159 0.0
H119 H 0.96196 0.40317 0.27238 0.0
H120 H 0.21807 0.59121 0.29986 0.0
H121 H 0.16956 0.61284 0.30072 0.0
H122 H 0.19262 0.60345 0.27877 0.0
H123 H 0.07349 0.34933 0.17118 0.0
H124 H 0.01561 0.3832 0.17033 0.0
H125 H 0.16777 0.51037 0.15299 0.0
H126 H 0.99316 0.44368 0.20601 0.0
H127 H 0.95472 0.39997 0.18663 0.0
H128 H 0.96757 0.46778 0.18841 0.0
H129 H 0.20342 0.60036 0.16338 0.0
H130 H 0.18047 0.60915 0.18567 0.0
H131 H 0.15122 0.61701 0.16492 0.0
H132 H 0.0018 0.80763 0.17624 0.0
H133 H 0.94142 0.84344 0.17135 0.0
H134 H 0.90876 0.78165 0.18341 0.0
H135 H 0.89271 0.78164 0.15923 0.0
H136 H 0.89702 0.63502 0.1719 0.0
H137 H 0.05564 0.77251 0.16875 0.0
H138 H 0.92771 0.56317 0.20226 0.0
H139 H 0.93511 0.54039 0.17979 0.0
H140 H 0.88107 0.55348 0.18367 0.0
H141 H 0.13357 0.7712 0.17755 0.0
H142 H 0.12735 0.70592 0.17683 0.0
H143 H 0.12191 0.7345 0.19842 0.0
H144 H 0.06503 0.58419 0.29667 0.0
H145 H 0.11407 0.50565 0.24684 0.0
H146 H 0.10865 0.50515 0.21371 0.0
H147 H 0.04558 0.58374 0.16977 0.0
H148 H 0.02013 0.68147 0.21972 0.0
H149 H 0.02603 0.68222 0.25288 0.0
H150 H 0.18724 0.39394 0.15563 0.0
H151 H 0.15743 0.34557 0.17353 0.0
H152 H 0.17121 0.41297 0.17759 0.0
C153 C 0.26002 0.92497 0.62956 0.0
C154 C 0.2959 0.96024 0.64595 0.0
C155 C 0.38216 0.01968 0.63095 0.0
C156 C 0.41494 0.07174 0.62502 0.0
C157 C 0.46232 0.08624 0.61554 0.0
C158 C 0.47719 0.04741 0.61189 0.0
C159 C 0.44456 0.99465 0.618 0.0
C160 C 0.3973 0.98123 0.62751 0.0
C161 C 0.4964 0.143 0.60936 0.0
C162 C 0.45966 0.95252 0.6144 0.0
C163 C 0.80954 0.22226 0.68521 0.0
C164 C 0.8014 0.17797 0.67121 0.0
C165 C 0.76214 0.17121 0.64065 0.0
C166 C 0.73124 0.11522 0.63821 0.0
C167 C 0.68711 0.09109 0.62566 0.0
C168 C 0.67359 0.12374 0.61548 0.0
C169 C 0.70587 0.18031 0.61751 0.0
C170 C 0.75043 0.20327 0.62985 0.0
C171 C 0.65442 0.03076 0.62351 0.0
C172 C 0.69246 0.21656 0.60708 0.0
C173 C 0.78156 0.14379 0.50018 0.0
C174 C 0.74755 0.08975 0.50421 0.0
C175 C 0.69687 0.07234 0.51176 0.0
C176 C 0.68007 0.10979 0.51531 0.0
C177 C 0.71317 0.16369 0.51036 0.0
C178 C 0.76341 0.17985 0.50265 0.0
C179 C 0.66171 0.0142 0.51632 0.0
C180 C 0.69614 0.20446 0.51374 0.0
C181 C 0.25334 0.97005 0.49237 0.0
C182 C 0.30573 0.02201 0.48866 0.0
C183 C 0.39096 0.02406 0.49187 0.0
C184 C 0.40809 0.98698 0.49268 0.0
C185 C 0.45503 0.99909 0.50273 0.0
C186 C 0.48608 0.05013 0.51174 0.0
C187 C 0.47048 0.08893 0.51006 0.0
C188 C 0.42287 0.07537 0.50018 0.0
C189 C 0.4707 0.95696 0.5041 0.0
C190 C 0.50371 0.14447 0.51889 0.0
C191 C 0.52713 0.0623 0.60177 0.0
C192 C 0.57497 0.08174 0.61214 0.0
C193 C 0.62403 0.09897 0.60353 0.0
C194 C 0.62548 0.09577 0.58401 0.0
C195 C 0.67382 0.11121 0.57493 0.0
C196 C 0.6752 0.10998 0.55569 0.0
C197 C 0.62828 0.09334 0.5448 0.0
C198 C 0.62953 0.09333 0.52524 0.0
C199 C 0.58259 0.07842 0.51485 0.0
C200 C 0.53378 0.06247 0.52348 0.0
C201 C 0.53131 0.06032 0.543 0.0
C202 C 0.48249 0.04257 0.55211 0.0
C203 C 0.48083 0.04237 0.57134 0.0
C204 C 0.52797 0.06028 0.58221 0.0
C205 C 0.57739 0.07722 0.57332 0.0
C206 C 0.57894 0.07668 0.55369 0.0
C207 C 0.91024 0.1954 0.51292 0.0
C208 C 0.86878 0.14929 0.50025 0.0
O209 O 0.33655 0.00886 0.63981 0.0
O210 O 0.34371 0.00927 0.48287 0.0
O211 O 0.83167 0.1622 0.49365 0.0
O212 O 0.80295 0.19541 0.65346 0.0
H213 H 0.31377 0.93933 0.65316 0.0
H214 H 0.28378 0.91634 0.61954 0.0
H215 H 0.24188 0.94543 0.62225 0.0
H216 H 0.22723 0.8861 0.63447 0.0
H217 H 0.40299 0.10112 0.6278 0.0
H218 H 0.37258 0.94081 0.63212 0.0
H219 H 0.53791 0.161 0.6153 0.0
H220 H 0.47977 0.16871 0.61362 0.0
H221 H 0.49924 0.14285 0.59406 0.0
H222 H 0.42971 0.91306 0.61981 0.0
H223 H 0.4996 0.96574 0.62101 0.0
H224 H 0.46322 0.94756 0.59928 0.0
H225 H 0.76098 0.14279 0.67391 0.0
H226 H 0.809 0.20935 0.69957 0.0
H227 H 0.77645 0.23092 0.68349 0.0
H228 H 0.84842 0.25979 0.68313 0.0
H229 H 0.74154 0.09042 0.64615 0.0
H230 H 0.77506 0.24647 0.63171 0.0
H231 H 0.61421 0.01612 0.62951 0.0
H232 H 0.67409 0.01139 0.63057 0.0
H233 H 0.64805 0.0181 0.60861 0.0
H234 H 0.71823 0.25933 0.61167 0.0
H235 H 0.64962 0.20443 0.60895 0.0
H236 H 0.69814 0.21283 0.59206 0.0
H237 H 0.84899 0.113 0.5087 0.0
H238 H 0.7604 0.06113 0.50141 0.0
H239 H 0.78959 0.22123 0.4991 0.0
H240 H 0.65769 0.01092 0.53155 0.0
H241 H 0.6784 0.98922 0.51123 0.0
H242 H 0.62069 0.99787 0.51013 0.0
H243 H 0.72646 0.2448 0.50906 0.0
H244 H 0.68974 0.2076 0.52874 0.0
H245 H 0.65724 0.19114 0.50632 0.0
H246 H 0.31885 0.04611 0.50197 0.0
H247 H 0.26067 0.94796 0.50321 0.0
H248 H 0.22228 0.97896 0.49735 0.0
H249 H 0.23777 0.94391 0.47959 0.0
H250 H 0.38353 0.94779 0.48591 0.0
H251 H 0.41071 0.10487 0.4989 0.0
H252 H 0.47465 0.94971 0.51888 0.0
H253 H 0.51053 0.9715 0.49781 0.0
H254 H 0.44088 0.91838 0.497 0.0
H255 H 0.48994 0.1719 0.51434 0.0
H256 H 0.54678 0.1619 0.51549 0.0
H257 H 0.50083 0.14206 0.53417 0.0
H258 H 0.57419 0.08472 0.62712 0.0
H259 H 0.71121 0.1247 0.5826 0.0
H260 H 0.71371 0.12282 0.54949 0.0
H261 H 0.58417 0.07971 0.49987 0.0
H262 H 0.44499 0.02877 0.54447 0.0
H263 H 0.44218 0.02855 0.57759 0.0
H264 H 0.93136 0.23319 0.50531 0.0
H265 H 0.94041 0.1859 0.51838 0.0
H266 H 0.88973 0.20167 0.52483 0.0
C267 C 0.70486 0.65235 0.78017 0.0
C268 C 0.72003 0.69882 0.79421 0.0
C269 C 0.68369 0.66212 0.82392 0.0
C270 C 0.65286 0.68598 0.82781 0.0
C271 C 0.60877 0.66162 0.83951 0.0
C272 C 0.59547 0.61253 0.84749 0.0
C273 C 0.62797 0.58965 0.84421 0.0
C274 C 0.67217 0.61519 0.8326 0.0
C275 C 0.57599 0.68796 0.84316 0.0
C276 C 0.61531 0.53768 0.85267 0.0
C277 C 0.15093 0.35234 0.83787 0.0
C278 C 0.20205 0.34951 0.83551 0.0
C279 C 0.29313 0.42539 0.83333 0.0
C280 C 0.32142 0.40139 0.83992 0.0
C281 C 0.37408 0.43289 0.84725 0.0
C282 C 0.39821 0.48939 0.84841 0.0
C283 C 0.37078 0.51365 0.84082 0.0
C284 C 0.31876 0.48116 0.83309 0.0
C285 C 0.40305 0.40571 0.85441 0.0
C286 C 0.39553 0.57375 0.84154 0.0
C287 C 0.31165 0.43351 0.96547 0.0
C288 C 0.34426 0.41405 0.95882 0.0
C289 C 0.39321 0.44832 0.95046 0.0
C290 C 0.40938 0.50293 0.9485 0.0
C291 C 0.37767 0.52306 0.95596 0.0
C292 C 0.32945 0.48806 0.96459 0.0
C293 C 0.427 0.42588 0.9433 0.0
C294 C 0.39373 0.58102 0.9542 0.0
C295 C 0.82311 0.78827 0.95004 0.0
C296 C 0.78791 0.80426 0.96096 0.0
C297 C 0.7011 0.72358 0.96385 0.0
C298 C 0.68576 0.66949 0.96386 0.0
C299 C 0.63661 0.63002 0.9556 0.0
C300 C 0.60179 0.64534 0.9476 0.0
C301 C 0.61571 0.69977 0.94868 0.0
C302 C 0.66547 0.73841 0.95673 0.0
C303 C 0.62268 0.57231 0.95486 0.0
C304 C 0.57858 0.71724 0.94094 0.0
C305 C 0.54656 0.58423 0.85874 0.0
C306 C 0.49729 0.55084 0.8494 0.0
C307 C 0.44962 0.5227 0.85908 0.0
C308 C 0.45099 0.5271 0.87864 0.0
C309 C 0.40385 0.49904 0.88884 0.0
C310 C 0.40578 0.50234 0.90807 0.0
C311 C 0.45474 0.53478 0.9179 0.0
C312 C 0.45722 0.53773 0.93748 0.0
C313 C 0.50575 0.5734 0.94682 0.0
C314 C 0.55248 0.60534 0.93706 0.0
C315 C 0.55155 0.60025 0.91751 0.0
C316 C 0.59853 0.62944 0.90732 0.0
C317 C 0.59709 0.6242 0.88809 0.0
C318 C 0.54854 0.58995 0.87828 0.0
C319 C 0.50064 0.5607 0.88826 0.0
C320 C 0.50233 0.56522 0.9079 0.0
C321 C 0.17134 0.34084 0.96426 0.0
C322 C 0.22724 0.348 0.96711 0.0
O323 O 0.72446 0.68339 0.8118 0.0
O324 O 0.75056 0.76084 0.97068 0.0
O325 O 0.26284 0.40086 0.97275 0.0
O326 O 0.24085 0.3959 0.8275 0.0
H327 H 0.68673 0.70755 0.79334 0.0
H328 H 0.66409 0.61842 0.78308 0.0
H329 H 0.73365 0.63773 0.78103 0.0
H330 H 0.70411 0.6651 0.76588 0.0
H331 H 0.66325 0.72364 0.82173 0.0
H332 H 0.69684 0.59763 0.82973 0.0
H333 H 0.5348 0.66225 0.83708 0.0
H334 H 0.59413 0.72818 0.83717 0.0
H335 H 0.57208 0.69211 0.85831 0.0
H336 H 0.6439 0.52457 0.84847 0.0
H337 H 0.57381 0.50569 0.84847 0.0
H338 H 0.61685 0.54242 0.868 0.0
H339 H 0.21571 0.3468 0.84971 0.0
H340 H 0.11923 0.31558 0.84433 0.0
H341 H 0.13539 0.35655 0.82429 0.0
H342 H 0.15986 0.38753 0.84701 0.0
H343 H 0.3022 0.3581 0.8395 0.0
H344 H 0.29678 0.49917 0.82765 0.0
H345 H 0.4033 0.40702 0.86977 0.0
H346 H 0.44558 0.427 0.85004 0.0
H347 H 0.38332 0.36309 0.84945 0.0
H348 H 0.36788 0.58617 0.83579 0.0
H349 H 0.43298 0.59235 0.8335 0.0
H350 H 0.40668 0.58961 0.85607 0.0
H351 H 0.23882 0.33849 0.95347 0.0
H352 H 0.33147 0.37213 0.96013 0.0
H353 H 0.30429 0.50275 0.97006 0.0
H354 H 0.42452 0.42326 0.92794 0.0
H355 H 0.41328 0.38521 0.94837 0.0
H356 H 0.46993 0.45286 0.94754 0.0
H357 H 0.3636 0.5899 0.96014 0.0
H358 H 0.39867 0.59128 0.93939 0.0
H359 H 0.43315 0.60724 0.96145 0.0
H360 H 0.76725 0.81656 0.95086 0.0
H361 H 0.85323 0.82252 0.94209 0.0
H362 H 0.79762 0.75452 0.94008 0.0
H363 H 0.84452 0.77535 0.95952 0.0
H364 H 0.71338 0.65854 0.96971 0.0
H365 H 0.67668 0.78021 0.95743 0.0
H366 H 0.61667 0.55722 0.94022 0.0
H367 H 0.58425 0.5473 0.96197 0.0
H368 H 0.65451 0.56708 0.96148 0.0
H369 H 0.59211 0.75961 0.94494 0.0
H370 H 0.53705 0.69117 0.94585 0.0
H371 H 0.57702 0.71303 0.9256 0.0
H372 H 0.49598 0.54691 0.83441 0.0
H373 H 0.36485 0.47374 0.8821 0.0
H374 H 0.36823 0.47938 0.91513 0.0
H375 H 0.5071 0.57656 0.96183 0.0
H376 H 0.63708 0.65639 0.91411 0.0
H377 H 0.63451 0.64749 0.88099 0.0
H378 H 0.14198 0.29923 0.95921 0.0
H379 H 0.17294 0.36881 0.95377 0.0
H380 H 0.15706 0.34944 0.97743 0.0
H381 H 0.03395 0.15058 0.112 0.0
H382 H 0.08273 0.26029 0.06736 0.0
H383 H 0.09903 0.33314 0.0892 0.0
H384 H 0.10678 0.36721 0.12125 0.0
H385 H 0.05639 0.25737 0.16584 0.0
H386 H 0.03386 0.18304 0.14372 0.0
C387 C 0.04751 0.19028 0.10702 0.0
C388 C 0.05748 0.20003 0.08811 0.0
C389 C 0.05702 0.23207 0.11966 0.0
C390 C 0.07465 0.25161 0.08185 0.0
C391 C 0.08432 0.29342 0.09435 0.0
C392 C 0.08988 0.32689 0.12612 0.0
C393 C 0.08269 0.31771 0.14519 0.0
C394 C 0.0767 0.28435 0.11333 0.0
C395 C 0.0617 0.26526 0.15122 0.0
C396 C 0.04896 0.22284 0.1386 0.0
H397 H 0.99687 0.14537 0.43002 0.0
H398 H 0.99595 0.01772 0.45961 0.0
H399 H 0.94298 0.02768 0.48389 0.0
H400 H 0.89944 0.07474 0.49724 0.0
H401 H 0.90271 0.20381 0.468 0.0
H402 H 0.95227 0.19119 0.44303 0.0
C403 C 0.9849 0.1195 0.44172 0.0
C404 C 0.00049 0.08091 0.44299 0.0
C405 C 0.95484 0.1257 0.4557 0.0
C406 C 0.98462 0.04781 0.45828 0.0
C407 C 0.95434 0.05349 0.47219 0.0
C408 C 0.9105 0.0996 0.48528 0.0
C409 C 0.89651 0.13938 0.48427 0.0
C410 C 0.93955 0.09255 0.4711 0.0
C411 C 0.91211 0.17223 0.4689 0.0
C412 C 0.94065 0.16519 0.45469 0.0
H413 H 0.9465 0.8809 0.76644 0.0
H414 H 0.86346 0.96964 0.76848 0.0
H415 H 0.78512 0.89331 0.78126 0.0
H416 H 0.73735 0.79919 0.7896 0.0
H417 H 0.82044 0.71072 0.7889 0.0
H418 H 0.90154 0.78909 0.77798 0.0
C419 C 0.91143 0.88366 0.76983 0.0
C420 C 0.91068 0.93072 0.76625 0.0
C421 C 0.86626 0.83948 0.77726 0.0
C422 C 0.86516 0.93388 0.77098 0.0
C423 C 0.82015 0.89014 0.77825 0.0
C424 C 0.77329 0.79713 0.78713 0.0
C425 C 0.77221 0.74863 0.7894 0.0
C426 C 0.81983 0.84241 0.78107 0.0
C427 C 0.81965 0.74707 0.7867 0.0
C428 C 0.8661 0.79193 0.78052 0.0
H429 H 0.0189 0.87624 0.08409 0.0
H430 H 0.13458 0.02028 0.11473 0.0
H431 H 0.11495 0.97026 0.14305 0.0
H432 H 0.05622 0.88859 0.15975 0.0
H433 H 0.93603 0.74677 0.12935 0.0
H434 H 0.96617 0.7928 0.10029 0.0
C435 C 0.04074 0.89652 0.09686 0.0
C436 C 0.07778 0.95204 0.09733 0.0
C437 C 0.0279 0.86796 0.1132 0.0
C438 C 0.10559 0.97764 0.11403 0.0
C439 C 0.0942 0.94913 0.13024 0.0
C440 C 0.03754 0.86754 0.1467 0.0
C441 C 0.99448 0.81426 0.14667 0.0
C442 C 0.05407 0.89474 0.1301 0.0
C443 C 0.96978 0.78756 0.12971 0.0
C444 C 0.9868 0.81396 0.11311 0.0
H445 H 0.21985 0.13983 0.43913 0.0
H446 H 0.25148 0.05488 0.39569 0.0
H447 H 0.293 0.02513 0.41826 0.0
H448 H 0.30927 0.01339 0.45074 0.0
H449 H 0.27652 0.09709 0.4942 0.0
H450 H 0.24626 0.13696 0.47121 0.0
C451 C 0.23679 0.11571 0.43452 0.0
C452 C 0.23177 0.099 0.41576 0.0
C453 C 0.25977 0.09787 0.44762 0.0
C454 C 0.25436 0.06806 0.41005 0.0
C455 C 0.27787 0.05071 0.42298 0.0
C456 C 0.29682 0.04143 0.45515 0.0
C457 C 0.29563 0.05272 0.47415 0.0
C458 C 0.27911 0.06385 0.44186 0.0
C459 C 0.27833 0.08829 0.47964 0.0
C460 C 0.26084 0.1109 0.46652 0.0
H461 H 0.13208 0.12151 0.79886 0.0
H462 H 0.12149 0.19893 0.7502 0.0
H463 H 0.15595 0.28312 0.76811 0.0
H464 H 0.18367 0.33343 0.79804 0.0
H465 H 0.19182 0.25556 0.84681 0.0
H466 H 0.16408 0.17304 0.82842 0.0
C467 C 0.13776 0.15689 0.79212 0.0
C468 C 0.12386 0.15371 0.77324 0.0
C469 C 0.15704 0.20513 0.80255 0.0
C470 C 0.13157 0.20007 0.76474 0.0
C471 C 0.15125 0.2483 0.77497 0.0
C472 C 0.18001 0.29853 0.80454 0.0
C473 C 0.19005 0.30055 0.8237 0.0
C474 C 0.16331 0.25107 0.79394 0.0
C475 C 0.18461 0.25497 0.83205 0.0
C476 C 0.16861 0.20779 0.82156 0.0
H477 H 0.00913 0.16337 0.68767 0.0
H478 H 0.88897 0.01062 0.70805 0.0
H479 H 0.81762 0.02571 0.69726 0.0
H480 H 0.78974 0.0859 0.68469 0.0
H481 H 0.90935 0.23821 0.6641 0.0
H482 H 0.98058 0.21959 0.67222 0.0
C483 C 0.96731 0.13313 0.68957 0.0
C484 C 0.95447 0.08628 0.69885 0.0
C485 C 0.92641 0.14214 0.68341 0.0
C486 C 0.90005 0.04714 0.70099 0.0
C487 C 0.85916 0.05582 0.6949 0.0
C488 C 0.83135 0.11464 0.68176 0.0
C489 C 0.84442 0.16354 0.67398 0.0
C490 C 0.87194 0.1037 0.6865 0.0
C491 C 0.89845 0.20041 0.67017 0.0
C492 C 0.93911 0.18982 0.67485 0.0
H493 H 0.95026 0.02477 0.0029 0.0
H494 H 0.94061 0.91709 0.04472 0.0
H495 H 0.87465 0.84043 0.0256 0.0
H496 H 0.8236 0.80348 0.99625 0.0
H497 H 0.83251 0.91072 0.9545 0.0
H498 H 0.89511 0.98801 0.9743 0.0
C499 C 0.93343 0.98458 0.0079 0.0
C500 C 0.95066 0.97678 0.02517 0.0
C501 C 0.89552 0.94053 0.99682 0.0
C502 C 0.92818 0.92437 0.03147 0.0
C503 C 0.89052 0.88039 0.02052 0.0
C504 C 0.83849 0.84379 0.99164 0.0
C505 C 0.8227 0.85146 0.97408 0.0
C506 C 0.87443 0.88795 0.00308 0.0
C507 C 0.84344 0.90392 0.9681 0.0
C508 C 0.87934 0.94805 0.97937 0.0
H509 H 0.09039 0.95909 0.37609 0.0
H510 H 0.92203 0.9099 0.37148 0.0
H511 H 0.90107 0.8222 0.35864 0.0
H512 H 0.9305 0.75886 0.34938 0.0
H513 H 0.09823 0.80724 0.3555 0.0
H514 H 0.11969 0.89635 0.36679 0.0
C515 C 0.04909 0.92931 0.37221 0.0
C516 C 0.00782 0.94102 0.37475 0.0
C517 C 0.03727 0.87888 0.36508 0.0
C518 C 0.95453 0.90184 0.36974 0.0
C519 C 0.94252 0.85172 0.36237 0.0
C520 C 0.97167 0.78891 0.35326 0.0
C521 C 0.01261 0.77628 0.35185 0.0
C522 C 0.98353 0.83969 0.3601 0.0
C523 C 0.06596 0.81585 0.35661 0.0
C524 C 0.07823 0.86675 0.36309 0.0
H525 H 0.1408 0.96599 0.7068 0.0
H526 H 0.18498 0.11423 0.68055 0.0
H527 H 0.24124 0.09929 0.65917 0.0
H528 H 0.27662 0.04384 0.64752 0.0
H529 H 0.23715 0.89776 0.67432 0.0
H530 H 0.17965 0.91175 0.69576 0.0
C531 C 0.1628 0.99499 0.69641 0.0
C532 C 0.15855 0.04106 0.69524 0.0
C533 C 0.19581 0.98654 0.68425 0.0
C534 C 0.18762 0.0785 0.6818 0.0
C535 C 0.21973 0.06995 0.66951 0.0
C536 C 0.25618 0.01541 0.65822 0.0
C537 C 0.26214 0.97038 0.6596 0.0
C538 C 0.22405 0.02414 0.6706 0.0
C539 C 0.23392 0.9332 0.67322 0.0
C540 C 0.20101 0.94114 0.68542 0.0
H541 H 0.17141 0.15089 0.01648 0.0
H542 H 0.22269 0.2734 0.06003 0.0
H543 H 0.24962 0.34186 0.03707 0.0
H544 H 0.2485 0.36539 0.00479 0.0
H545 H 0.19824 0.24346 0.96116 0.0
H546 H 0.18085 0.17627 0.984 0.0
C547 C 0.18943 0.19269 0.02094 0.0
C548 C 0.19449 0.20685 0.03995 0.0
C549 C 0.20443 0.23192 0.00766 0.0
C550 C 0.21829 0.26127 0.0455 0.0
C551 C 0.23337 0.3005 0.03237 0.0
C552 C 0.235 0.32442 0.00023 0.0
C553 C 0.22503 0.30946 0.98127 0.0
C554 C 0.22513 0.28607 0.01343 0.0
C555 C 0.20665 0.25594 0.97567 0.0
C556 C 0.19652 0.21753 0.98871 0.0
H557 H 0.1377 0.231 0.35241 0.0
H558 H 0.96493 0.12078 0.35304 0.0
H559 H 0.94426 0.15987 0.32768 0.0
H560 H 0.97115 0.23928 0.3009 0.0
H561 H 0.17548 0.37106 0.29791 0.0
H562 H 0.1907 0.31303 0.3272 0.0
C563 C 0.09786 0.21783 0.34672 0.0
C564 C 0.05182 0.17375 0.35405 0.0
C565 C 0.0929 0.24517 0.33215 0.0
C566 C 0.99871 0.15483 0.34693 0.0
C567 C 0.98583 0.17674 0.3322 0.0
C568 C 0.01206 0.25125 0.30495 0.0
C569 C 0.0704 0.31657 0.29859 0.0
C570 C 0.02585 0.22005 0.32354 0.0
C571 C 0.14185 0.33525 0.30321 0.0
C572 C 0.15061 0.30047 0.32198 0.0
loop_
_geom_bond_atom_site_label_1
_geom_bond_atom_site_label_2
_geom_bond_distance
_geom_bond_site_symmetry_2
_ccdc_geom_bond_type
C0 O1 1.160 . S
C0 O7 1.185 1_565 S
O1 C0 1.160 . S
O2 Zn3 1.899 . S
O2 C10 1.284 . S
Zn3 O2 1.899 . S
Zn3 O4 2.032 1_445 S
Zn3 O7 2.086 . S
Zn3 O12 1.977 . S
O4 Zn3 2.032 1_665 S
O4 C8 1.278 1_565 S
C5 O6 1.203 . S
C5 O12 1.267 . S
O6 C5 1.203 . S
O7 C0 1.185 1_545 S
O7 Zn3 2.086 . S
C8 O4 1.278 1_545 S
C8 O9 1.211 . S
O9 C8 1.211 . S
C10 O2 1.284 . S
C10 O11 1.273 1_455 S
O11 C10 1.273 1_655 S
O12 Zn3 1.977 . S
O12 C5 1.267 . S
C13 O14 1.160 . S
C13 O20 1.185 . S
O14 C13 1.160 . S
O15 Zn16 1.899 . S
O15 C23 1.284 . S
Zn16 O15 1.899 . S
Zn16 O17 2.032 . S
Zn16 O20 2.086 . S
Zn16 O25 1.977 . S
O17 Zn16 2.032 . S
O17 C21 1.278 . S
C18 O19 1.203 . S
C18 O25 1.267 . S
O19 C18 1.203 . S
O20 C13 1.185 . S
O20 Zn16 2.086 . S
C21 O17 1.278 . S
C21 O22 1.211 . S
O22 C21 1.211 . S
C23 O15 1.284 . S
C23 O24 1.273 1_545 S
O24 C23 1.273 1_565 S
O25 Zn16 1.977 . S
O25 C18 1.267 . S
C26 O27 1.160 . S
C26 O33 1.185 . S
O27 C26 1.160 . S
O28 Zn29 1.899 1_655 S
O28 C36 1.284 . S
Zn29 O28 1.899 1_455 S
Zn29 O30 2.032 . S
Zn29 O33 2.086 . S
Zn29 O38 1.977 1_545 S
O30 Zn29 2.032 . S
O30 C34 1.278 . S
C31 O32 1.203 . S
C31 O38 1.267 1_655 S
O32 C31 1.203 . S
O33 C26 1.185 . S
O33 Zn29 2.086 . S
C34 O30 1.278 . S
C34 O35 1.211 . S
O35 C34 1.211 . S
C36 O28 1.284 . S
C36 O37 1.273 . S
O37 C36 1.273 . S
O38 Zn29 1.977 1_565 S
O38 C31 1.267 1_455 S
C39 C40 1.560 1_655 S
C39 H100 0.959 . S
C39 H101 0.959 . S
C39 H102 0.960 . S
C40 C39 1.560 1_455 S
C40 O95 1.426 1_455 S
C40 H99 0.980 . S
C41 C42 1.407 . S
C41 C46 1.418 1_455 S
C41 O95 1.334 1_455 S
C42 C41 1.407 . S
C42 C43 1.360 . S
C42 H103 0.929 . S
C43 C42 1.360 . S
C43 C44 1.401 . S
C43 C47 1.527 . S
C44 C43 1.401 . S
C44 C45 1.405 1_455 S
C44 C77 1.587 . S
C45 C44 1.405 1_655 S
C45 C46 1.332 . S
C45 C48 1.496 . S
C46 C41 1.418 1_655 S
C46 C45 1.332 . S
C46 H104 0.929 . S
C47 C43 1.527 . S
C47 H105 0.959 . S
C47 H106 0.961 . S
C47 H107 0.961 . S
C48 C45 1.496 . S
C48 H108 0.960 . S
C48 H109 0.960 . S
C48 H110 0.961 . S
C49 C50 1.517 . S
C49 H112 0.961 . S
C49 H113 0.960 . S
C49 H114 0.959 . S
C50 C49 1.517 . S
C50 O98 1.468 . S
C50 H111 0.980 . S
C51 C52 1.349 . S
C51 C56 1.367 . S
C51 O98 1.408 . S
C52 C51 1.349 . S
C52 C53 1.407 . S
C52 H115 0.930 . S
C53 C52 1.407 . S
C53 C54 1.449 . S
C53 C57 1.535 1_455 S
C54 C53 1.449 . S
C54 C55 1.384 . S
C54 C79 1.553 . S
C55 C54 1.384 . S
C55 C56 1.364 . S
C55 C58 1.450 . S
C56 C51 1.367 . S
C56 C55 1.364 . S
C56 H116 0.931 . S
C57 C53 1.535 1_655 S
C57 H117 0.959 . S
C57 H118 0.961 . S
C57 H119 0.959 . S
C58 C55 1.450 . S
C58 H120 0.960 . S
C58 H121 0.960 . S
C58 H122 0.960 . S
C59 C60 1.309 . S
C59 C64 1.304 . S
C59 O97 1.435 . S
C60 C59 1.309 . S
C60 C61 1.476 . S
C60 H124 0.930 1_455 S
C61 C60 1.476 . S
C61 C62 1.400 . S
C61 C65 1.567 1_455 S
C62 C61 1.400 . S
C62 C63 1.373 . S
C62 C84 1.432 . S
C63 C62 1.373 . S
C63 C64 1.339 . S
C63 C66 1.530 . S
C64 C59 1.304 . S
C64 C63 1.339 . S
C64 H125 0.930 . S
C65 C61 1.567 1_655 S
C65 H126 0.961 . S
C65 H127 0.960 . S
C65 H128 0.958 . S
C66 C63 1.530 . S
C66 H129 0.961 . S
C66 H130 0.960 . S
C66 H131 0.960 . S
C67 C68 1.530 1_655 S
C67 H133 0.961 . S
C67 H134 0.961 . S
C67 H135 0.959 . S
C68 C67 1.530 1_455 S
C68 O96 1.412 1_455 S
C68 H132 0.980 . S
C69 C70 1.288 . S
C69 C74 1.377 1_655 S
C69 O96 1.393 . S
C70 C69 1.288 . S
C70 C71 1.369 . S
C70 H136 0.932 . S
C71 C70 1.369 . S
C71 C72 1.398 1_655 S
C71 C75 1.527 . S
C72 C71 1.398 1_455 S
C72 C73 1.380 . S
C72 C86 1.497 . S
C73 C72 1.380 . S
C73 C74 1.383 . S
C73 C76 1.603 . S
C74 C69 1.377 1_455 S
C74 C73 1.383 . S
C74 H137 0.929 . S
C75 C71 1.527 . S
C75 H138 0.961 . S
C75 H139 0.959 . S
C75 H140 0.959 . S
C76 C73 1.603 . S
C76 H141 0.960 . S
C76 H142 0.962 . S
C76 H143 0.961 . S
C77 C44 1.587 . S
C77 C78 1.360 . S
C77 C90 1.412 . S
C78 C77 1.360 . S
C78 C79 1.365 . S
C78 H144 0.929 . S
C79 C54 1.553 . S
C79 C78 1.365 . S
C79 C80 1.404 . S
C80 C79 1.404 . S
C80 C81 1.395 . S
C80 C91 1.451 . S
C81 C80 1.395 . S
C81 C82 1.322 . S
C81 H145 0.930 . S
C82 C81 1.322 . S
C82 C83 1.459 . S
C82 H146 0.929 . S
C83 C82 1.459 . S
C83 C84 1.445 . S
C83 C92 1.395 . S
C84 C62 1.432 . S
C84 C83 1.445 . S
C84 C85 1.370 . S
C85 C84 1.370 . S
C85 C86 1.438 . S
C85 H147 0.930 . S
C86 C72 1.497 . S
C86 C85 1.438 . S
C86 C87 1.360 . S
C87 C86 1.360 . S
C87 C88 1.401 . S
C87 C92 1.446 . S
C88 C87 1.401 . S
C88 C89 1.347 . S
C88 H148 0.929 . S
C89 C88 1.347 . S
C89 C90 1.455 . S
C89 H149 0.930 . S
C90 C77 1.412 . S
C90 C89 1.455 . S
C90 C91 1.331 . S
C91 C80 1.451 . S
C91 C90 1.331 . S
C91 C92 1.497 . S
C92 C83 1.395 . S
C92 C87 1.446 . S
C92 C91 1.497 . S
C93 C94 1.582 . S
C93 H150 0.962 . S
C93 H151 0.959 . S
C93 H152 0.958 . S
C94 C93 1.582 . S
C94 O97 1.458 . S
C94 H123 0.980 . S
O95 C40 1.426 1_655 S
O95 C41 1.334 1_655 S
O96 C68 1.412 1_655 S
O96 C69 1.393 . S
O97 C59 1.435 . S
O97 C94 1.458 . S
O98 C50 1.468 . S
O98 C51 1.408 . S
H99 C40 0.980 . S
H100 C39 0.959 . S
H101 C39 0.959 . S
H102 C39 0.960 . S
H103 C42 0.929 . S
H104 C46 0.929 . S
H105 C47 0.959 . S
H106 C47 0.961 . S
H107 C47 0.961 . S
H108 C48 0.960 . S
H109 C48 0.960 . S
H110 C48 0.961 . S
H111 C50 0.980 . S
H112 C49 0.961 . S
H113 C49 0.960 . S
H114 C49 0.959 . S
H115 C52 0.930 . S
H116 C56 0.931 . S
H117 C57 0.959 . S
H118 C57 0.961 . S
H119 C57 0.959 . S
H120 C58 0.960 . S
H121 C58 0.960 . S
H122 C58 0.960 . S
H123 C94 0.980 . S
H124 C60 0.930 1_655 S
H125 C64 0.930 . S
H126 C65 0.961 . S
H127 C65 0.960 . S
H128 C65 0.958 . S
H129 C66 0.961 . S
H130 C66 0.960 . S
H131 C66 0.960 . S
H132 C68 0.980 . S
H133 C67 0.961 . S
H134 C67 0.961 . S
H135 C67 0.959 . S
H136 C70 0.932 . S
H137 C74 0.929 . S
H138 C75 0.961 . S
H139 C75 0.959 . S
H140 C75 0.959 . S
H141 C76 0.960 . S
H142 C76 0.962 . S
H143 C76 0.961 . S
H144 C78 0.929 . S
H145 C81 0.930 . S
H146 C82 0.929 . S
H147 C85 0.930 . S
H148 C88 0.929 . S
H149 C89 0.930 . S
H150 C93 0.962 . S
H151 C93 0.959 . S
H152 C93 0.958 . S
C153 C154 1.560 1_565 S
C153 H214 0.959 . S
C153 H215 0.959 . S
C153 H216 0.960 . S
C154 C153 1.560 1_545 S
C154 O209 1.426 1_545 S
C154 H213 0.980 . S
C155 C156 1.407 . S
C155 C160 1.418 1_545 S
C155 O209 1.334 1_545 S
C156 C155 1.407 . S
C156 C157 1.360 . S
C156 H217 0.929 . S
C157 C156 1.360 . S
C157 C158 1.401 . S
C157 C161 1.527 . S
C158 C157 1.401 . S
C158 C159 1.405 . S
C158 C191 1.587 . S
C159 C158 1.405 . S
C159 C160 1.332 1_545 S
C159 C162 1.496 1_545 S
C160 C155 1.418 1_565 S
C160 C159 1.332 1_565 S
C160 H218 0.929 . S
C161 C157 1.527 . S
C161 H219 0.959 . S
C161 H220 0.961 . S
C161 H221 0.961 . S
C162 C159 1.496 1_565 S
C162 H222 0.960 . S
C162 H223 0.960 . S
C162 H224 0.961 . S
C163 C164 1.517 . S
C163 H226 0.961 . S
C163 H227 0.960 . S
C163 H228 0.959 . S
C164 C163 1.517 . S
C164 O212 1.468 . S
C164 H225 0.980 . S
C165 C166 1.349 . S
C165 C170 1.367 . S
C165 O212 1.408 . S
C166 C165 1.349 . S
C166 C167 1.407 . S
C166 H229 0.930 . S
C167 C166 1.407 . S
C167 C168 1.449 . S
C167 C171 1.535 . S
C168 C167 1.449 . S
C168 C169 1.384 . S
C168 C193 1.553 . S
C169 C168 1.384 . S
C169 C170 1.364 . S
C169 C172 1.450 . S
C170 C165 1.367 . S
C170 C169 1.364 . S
C170 H230 0.931 . S
C171 C167 1.535 . S
C171 H231 0.959 . S
C171 H232 0.961 1_545 S
C171 H233 0.959 1_545 S
C172 C169 1.450 . S
C172 H234 0.960 . S
C172 H235 0.960 . S
C172 H236 0.960 . S
C173 C174 1.309 . S
C173 C178 1.304 . S
C173 O211 1.435 . S
C174 C173 1.309 . S
C174 C175 1.476 . S
C174 H238 0.930 . S
C175 C174 1.476 . S
C175 C176 1.400 . S
C175 C179 1.567 . S
C176 C175 1.400 . S
C176 C177 1.373 . S
C176 C198 1.432 . S
C177 C176 1.373 . S
C177 C178 1.339 . S
C177 C180 1.530 . S
C178 C173 1.304 . S
C178 C177 1.339 . S
C178 H239 0.930 . S
C179 C175 1.567 . S
C179 H240 0.961 . S
C179 H241 0.960 1_545 S
C179 H242 0.958 1_545 S
C180 C177 1.530 . S
C180 H243 0.961 . S
C180 H244 0.960 . S
C180 H245 0.960 . S
C181 C182 1.530 . S
C181 H247 0.961 . S
C181 H248 0.961 . S
C181 H249 0.959 . S
C182 C181 1.530 . S
C182 O210 1.412 . S
C182 H246 0.980 . S
C183 C184 1.288 . S
C183 C188 1.377 . S
C183 O210 1.393 . S
C184 C183 1.288 . S
C184 C185 1.369 . S
C184 H250 0.932 1_545 S
C185 C184 1.369 . S
C185 C186 1.398 . S
C185 C189 1.527 1_545 S
C186 C185 1.398 . S
C186 C187 1.380 . S
C186 C200 1.497 . S
C187 C186 1.380 . S
C187 C188 1.383 . S
C187 C190 1.603 . S
C188 C183 1.377 . S
C188 C187 1.383 . S
C188 H251 0.929 . S
C189 C185 1.527 1_565 S
C189 H252 0.961 . S
C189 H253 0.959 . S
C189 H254 0.959 . S
C190 C187 1.603 . S
C190 H255 0.960 . S
C190 H256 0.962 . S
C190 H257 0.961 . S
C191 C158 1.587 . S
C191 C192 1.360 . S
C191 C204 1.412 . S
C192 C191 1.360 . S
C192 C193 1.365 . S
C192 H258 0.929 . S
C193 C168 1.553 . S
C193 C192 1.365 . S
C193 C194 1.404 . S
C194 C193 1.404 . S
C194 C195 1.395 . S
C194 C205 1.451 . S
C195 C194 1.395 . S
C195 C196 1.322 . S
C195 H259 0.930 . S
C196 C195 1.322 . S
C196 C197 1.459 . S
C196 H260 0.929 . S
C197 C196 1.459 . S
C197 C198 1.445 . S
C197 C206 1.395 . S
C198 C176 1.432 . S
C198 C197 1.445 . S
C198 C199 1.370 . S
C199 C198 1.370 . S
C199 C200 1.438 . S
C199 H261 0.930 . S
C200 C186 1.497 . S
C200 C199 1.438 . S
C200 C201 1.360 . S
C201 C200 1.360 . S
C201 C202 1.401 . S
C201 C206 1.446 . S
C202 C201 1.401 . S
C202 C203 1.347 . S
C202 H262 0.929 . S
C203 C202 1.347 . S
C203 C204 1.455 . S
C203 H263 0.930 . S
C204 C191 1.412 . S
C204 C203 1.455 . S
C204 C205 1.331 . S
C205 C194 1.451 . S
C205 C204 1.331 . S
C205 C206 1.497 . S
C206 C197 1.395 . S
C206 C201 1.446 . S
C206 C205 1.497 . S
C207 C208 1.582 . S
C207 H264 0.962 . S
C207 H265 0.959 . S
C207 H266 0.958 . S
C208 C207 1.582 . S
C208 O211 1.458 . S
C208 H237 0.980 . S
O209 C154 1.426 1_565 S
O209 C155 1.334 1_565 S
O210 C182 1.412 . S
O210 C183 1.393 . S
O211 C173 1.435 . S
O211 C208 1.458 . S
O212 C164 1.468 . S
O212 C165 1.408 . S
H213 C154 0.980 . S
H214 C153 0.959 . S
H215 C153 0.959 . S
H216 C153 0.960 . S
H217 C156 0.929 . S
H218 C160 0.929 . S
H219 C161 0.959 . S
H220 C161 0.961 . S
H221 C161 0.961 . S
H222 C162 0.960 . S
H223 C162 0.960 . S
H224 C162 0.961 . S
H225 C164 0.980 . S
H226 C163 0.961 . S
H227 C163 0.960 . S
H228 C163 0.959 . S
H229 C166 0.930 . S
H230 C170 0.931 . S
H231 C171 0.959 . S
H232 C171 0.961 1_565 S
H233 C171 0.959 1_565 S
H234 C172 0.960 . S
H235 C172 0.960 . S
H236 C172 0.960 . S
H237 C208 0.980 . S
H238 C174 0.930 . S
H239 C178 0.930 . S
H240 C179 0.961 . S
H241 C179 0.960 1_565 S
H242 C179 0.958 1_565 S
H243 C180 0.961 . S
H244 C180 0.960 . S
H245 C180 0.960 . S
H246 C182 0.980 . S
H247 C181 0.961 . S
H248 C181 0.961 . S
H249 C181 0.959 . S
H250 C184 0.932 1_565 S
H251 C188 0.929 . S
H252 C189 0.961 . S
H253 C189 0.959 . S
H254 C189 0.959 . S
H255 C190 0.960 . S
H256 C190 0.962 . S
H257 C190 0.961 . S
H258 C192 0.929 . S
H259 C195 0.930 . S
H260 C196 0.929 . S
H261 C199 0.930 . S
H262 C202 0.929 . S
H263 C203 0.930 . S
H264 C207 0.962 . S
H265 C207 0.959 . S
H266 C207 0.958 . S
C267 C268 1.560 . S
C267 H328 0.959 . S
C267 H329 0.959 . S
C267 H330 0.960 . S
C268 C267 1.560 . S
C268 O323 1.426 . S
C268 H327 0.980 . S
C269 C270 1.407 . S
C269 C274 1.418 . S
C269 O323 1.334 . S
C270 C269 1.407 . S
C270 C271 1.360 . S
C270 H331 0.929 . S
C271 C270 1.360 . S
C271 C272 1.401 . S
C271 C275 1.527 . S
C272 C271 1.401 . S
C272 C273 1.405 . S
C272 C305 1.587 . S
C273 C272 1.405 . S
C273 C274 1.332 . S
C273 C276 1.496 . S
C274 C269 1.418 . S
C274 C273 1.332 . S
C274 H332 0.929 . S
C275 C271 1.527 . S
C275 H333 0.959 . S
C275 H334 0.961 . S
C275 H335 0.961 . S
C276 C273 1.496 . S
C276 H336 0.960 . S
C276 H337 0.960 . S
C276 H338 0.961 . S
C277 C278 1.517 . S
C277 H340 0.961 . S
C277 H341 0.960 . S
C277 H342 0.959 . S
C278 C277 1.517 . S
C278 O326 1.468 . S
C278 H339 0.980 . S
C279 C280 1.349 . S
C279 C284 1.367 . S
C279 O326 1.408 . S
C280 C279 1.349 . S
C280 C281 1.407 . S
C280 H343 0.930 . S
C281 C280 1.407 . S
C281 C282 1.449 . S
C281 C285 1.535 . S
C282 C281 1.449 . S
C282 C283 1.384 . S
C282 C307 1.553 . S
C283 C282 1.384 . S
C283 C284 1.364 . S
C283 C286 1.450 . S
C284 C279 1.367 . S
C284 C283 1.364 . S
C284 H344 0.931 . S
C285 C281 1.535 . S
C285 H345 0.959 . S
C285 H346 0.961 . S
C285 H347 0.959 . S
C286 C283 1.450 . S
C286 H348 0.960 . S
C286 H349 0.960 . S
C286 H350 0.960 . S
C287 C288 1.309 . S
C287 C292 1.304 . S
C287 O325 1.435 . S
C288 C287 1.309 . S
C288 C289 1.476 . S
C288 H352 0.930 . S
C289 C288 1.476 . S
C289 C290 1.400 . S
C289 C293 1.567 . S
C290 C289 1.400 . S
C290 C291 1.373 . S
C290 C312 1.432 . S
C291 C290 1.373 . S
C291 C292 1.339 . S
C291 C294 1.530 . S
C292 C287 1.304 . S
C292 C291 1.339 . S
C292 H353 0.930 . S
C293 C289 1.567 . S
C293 H354 0.961 . S
C293 H355 0.960 . S
C293 H356 0.958 . S
C294 C291 1.530 . S
C294 H357 0.961 . S
C294 H358 0.960 . S
C294 H359 0.960 . S
C295 C296 1.530 . S
C295 H361 0.961 . S
C295 H362 0.961 . S
C295 H363 0.959 . S
C296 C295 1.530 . S
C296 O324 1.412 . S
C296 H360 0.980 . S
C297 C298 1.288 . S
C297 C302 1.377 . S
C297 O324 1.393 . S
C298 C297 1.288 . S
C298 C299 1.369 . S
C298 H364 0.932 . S
C299 C298 1.369 . S
C299 C300 1.398 . S
C299 C303 1.527 . S
C300 C299 1.398 . S
C300 C301 1.380 . S
C300 C314 1.497 . S
C301 C300 1.380 . S
C301 C302 1.383 . S
C301 C304 1.603 . S
C302 C297 1.377 . S
C302 C301 1.383 . S
C302 H365 0.929 . S
C303 C299 1.527 . S
C303 H366 0.961 . S
C303 H367 0.959 . S
C303 H368 0.959 . S
C304 C301 1.603 . S
C304 H369 0.960 . S
C304 H370 0.962 . S
C304 H371 0.961 . S
C305 C272 1.587 . S
C305 C306 1.360 . S
C305 C318 1.412 . S
C306 C305 1.360 . S
C306 C307 1.365 . S
C306 H372 0.929 . S
C307 C282 1.553 . S
C307 C306 1.365 . S
C307 C308 1.404 . S
C308 C307 1.404 . S
C308 C309 1.395 . S
C308 C319 1.451 . S
C309 C308 1.395 . S
C309 C310 1.322 . S
C309 H373 0.930 . S
C310 C309 1.322 . S
C310 C311 1.459 . S
C310 H374 0.929 . S
C311 C310 1.459 . S
C311 C312 1.445 . S
C311 C320 1.395 . S
C312 C290 1.432 . S
C312 C311 1.445 . S
C312 C313 1.370 . S
C313 C312 1.370 . S
C313 C314 1.438 . S
C313 H375 0.930 . S
C314 C300 1.497 . S
C314 C313 1.438 . S
C314 C315 1.360 . S
C315 C314 1.360 . S
C315 C316 1.401 . S
C315 C320 1.446 . S
C316 C315 1.401 . S
C316 C317 1.347 . S
C316 H376 0.929 . S
C317 C316 1.347 . S
C317 C318 1.455 . S
C317 H377 0.930 . S
C318 C305 1.412 . S
C318 C317 1.455 . S
C318 C319 1.331 . S
C319 C308 1.451 . S
C319 C318 1.331 . S
C319 C320 1.497 . S
C320 C311 1.395 . S
C320 C315 1.446 . S
C320 C319 1.497 . S
C321 C322 1.582 . S
C321 H378 0.962 . S
C321 H379 0.959 . S
C321 H380 0.958 . S
C322 C321 1.582 . S
C322 O325 1.458 . S
C322 H351 0.980 . S
O323 C268 1.426 . S
O323 C269 1.334 . S
O324 C296 1.412 . S
O324 C297 1.393 . S
O325 C287 1.435 . S
O325 C322 1.458 . S
O326 C278 1.468 . S
O326 C279 1.408 . S
H327 C268 0.980 . S
H328 C267 0.959 . S
H329 C267 0.959 . S
H330 C267 0.960 . S
H331 C270 0.929 . S
H332 C274 0.929 . S
H333 C275 0.959 . S
H334 C275 0.961 . S
H335 C275 0.961 . S
H336 C276 0.960 . S
H337 C276 0.960 . S
H338 C276 0.961 . S
H339 C278 0.980 . S
H340 C277 0.961 . S
H341 C277 0.960 . S
H342 C277 0.959 . S
H343 C280 0.930 . S
H344 C284 0.931 . S
H345 C285 0.959 . S
H346 C285 0.961 . S
H347 C285 0.959 . S
H348 C286 0.960 . S
H349 C286 0.960 . S
H350 C286 0.960 . S
H351 C322 0.980 . S
H352 C288 0.930 . S
H353 C292 0.930 . S
H354 C293 0.961 . S
H355 C293 0.960 . S
H356 C293 0.958 . S
H357 C294 0.961 . S
H358 C294 0.960 . S
H359 C294 0.960 . S
H360 C296 0.980 . S
H361 C295 0.961 . S
H362 C295 0.961 . S
H363 C295 0.959 . S
H364 C298 0.932 . S
H365 C302 0.929 . S
H366 C303 0.961 . S
H367 C303 0.959 . S
H368 C303 0.959 . S
H369 C304 0.960 . S
H370 C304 0.962 . S
H371 C304 0.961 . S
H372 C306 0.929 . S
H373 C309 0.930 . S
H374 C310 0.929 . S
H375 C313 0.930 . S
H376 C316 0.929 . S
H377 C317 0.930 . S
H378 C321 0.962 . S
H379 C321 0.959 . S
H380 C321 0.958 . S
H381 C387 0.930 . S
H382 C390 0.930 . S
H383 C391 0.930 . S
H384 C392 0.930 . S
H385 C395 0.930 . S
H386 C396 0.930 . S
C387 H381 0.930 . S
C387 C388 1.355 . S
C387 C389 1.415 . S
C388 C387 1.355 . S
C388 C390 1.419 1_455 S
C389 C387 1.415 . S
C389 C394 1.425 1_455 S
C389 C396 1.409 . S
C390 H382 0.930 . S
C390 C388 1.419 1_655 S
C390 C391 1.362 . S
C391 H383 0.930 . S
C391 C390 1.362 . S
C391 C394 1.409 . S
C392 H384 0.930 . S
C392 C393 1.355 1_655 S
C392 C394 1.415 . S
C393 C392 1.355 1_455 S
C393 C395 1.419 . S
C394 C389 1.425 1_655 S
C394 C391 1.409 . S
C394 C392 1.415 . S
C395 H385 0.930 . S
C395 C393 1.419 . S
C395 C396 1.362 . S
C396 H386 0.930 . S
C396 C389 1.409 . S
C396 C395 1.362 . S
H397 C403 0.930 . S
H398 C406 0.930 1_455 S
H399 C407 0.930 . S
H400 C408 0.930 . S
H401 C411 0.930 . S
H402 C412 0.930 . S
C403 H397 0.930 . S
C403 C404 1.355 . S
C403 C405 1.415 . S
C404 C403 1.355 . S
C404 C406 1.419 . S
C405 C403 1.415 . S
C405 C410 1.425 . S
C405 C412 1.409 . S
C406 H398 0.930 1_655 S
C406 C404 1.419 . S
C406 C407 1.362 . S
C407 H399 0.930 . S
C407 C406 1.362 . S
C407 C410 1.409 . S
C408 H400 0.930 . S
C408 C409 1.355 . S
C408 C410 1.415 . S
C409 C408 1.355 . S
C409 C411 1.419 . S
C410 C405 1.425 . S
C410 C407 1.409 . S
C410 C408 1.415 . S
C411 H401 0.930 . S
C411 C409 1.419 . S
C411 C412 1.362 . S
C412 H402 0.930 . S
C412 C405 1.409 . S
C412 C411 1.362 . S
H413 C419 0.930 . S
H414 C422 0.930 . S
H415 C423 0.930 . S
H416 C424 0.930 . S
H417 C427 0.930 . S
H418 C428 0.930 . S
C419 H413 0.930 . S
C419 C420 1.355 . S
C419 C421 1.415 . S
C420 C419 1.355 . S
C420 C422 1.419 . S
C421 C419 1.415 . S
C421 C426 1.425 . S
C421 C428 1.409 . S
C422 H414 0.930 . S
C422 C420 1.419 . S
C422 C423 1.362 . S
C423 H415 0.930 . S
C423 C422 1.362 . S
C423 C426 1.409 . S
C424 H416 0.930 . S
C424 C425 1.355 . S
C424 C426 1.415 . S
C425 C424 1.355 . S
C425 C427 1.419 . S
C426 C421 1.425 . S
C426 C423 1.409 . S
C426 C424 1.415 . S
C427 H417 0.930 . S
C427 C425 1.419 . S
C427 C428 1.362 . S
C428 H418 0.930 . S
C428 C421 1.409 . S
C428 C427 1.362 . S
H429 C435 0.930 . S
H430 C438 0.930 1_545 S
H431 C439 0.930 . S
H432 C440 0.930 . S
H433 C443 0.930 1_655 S
H434 C444 0.930 1_655 S
C435 H429 0.930 . S
C435 C436 1.355 . S
C435 C437 1.415 . S
C436 C435 1.355 . S
C436 C438 1.419 . S
C437 C435 1.415 . S
C437 C442 1.425 . S
C437 C444 1.409 . S
C438 H430 0.930 1_565 S
C438 C436 1.419 . S
C438 C439 1.362 . S
C439 H431 0.930 . S
C439 C438 1.362 . S
C439 C442 1.409 . S
C440 H432 0.930 . S
C440 C441 1.355 . S
C440 C442 1.415 . S
C441 C440 1.355 . S
C441 C443 1.419 . S
C442 C437 1.425 . S
C442 C439 1.409 . S
C442 C440 1.415 . S
C443 H433 0.930 1_455 S
C443 C441 1.419 . S
C443 C444 1.362 . S
C444 H434 0.930 1_455 S
C444 C437 1.409 . S
C444 C443 1.362 . S
H445 C451 0.930 . S
H446 C454 0.930 . S
H447 C455 0.930 . S
H448 C456 0.930 . S
H449 C459 0.930 . S
H450 C460 0.930 . S
C451 H445 0.930 . S
C451 C452 1.355 . S
C451 C453 1.415 . S
C452 C451 1.355 . S
C452 C454 1.419 . S
C453 C451 1.415 . S
C453 C458 1.425 . S
C453 C460 1.409 . S
C454 H446 0.930 . S
C454 C452 1.419 . S
C454 C455 1.362 . S
C455 H447 0.930 . S
C455 C454 1.362 . S
C455 C458 1.409 . S
C456 H448 0.930 . S
C456 C457 1.355 . S
C456 C458 1.415 . S
C457 C456 1.355 . S
C457 C459 1.419 . S
C458 C453 1.425 . S
C458 C455 1.409 . S
C458 C456 1.415 . S
C459 H449 0.930 . S
C459 C457 1.419 . S
C459 C460 1.362 . S
C460 H450 0.930 . S
C460 C453 1.409 . S
C460 C459 1.362 . S
H461 C467 0.930 . S
H462 C470 0.930 . S
H463 C471 0.930 . S
H464 C472 0.930 . S
H465 C475 0.930 . S
H466 C476 0.930 . S
C467 H461 0.930 . S
C467 C468 1.355 . S
C467 C469 1.415 . S
C468 C467 1.355 . S
C468 C470 1.419 . S
C469 C467 1.415 . S
C469 C474 1.425 . S
C469 C476 1.409 . S
C470 H462 0.930 . S
C470 C468 1.419 . S
C470 C471 1.362 . S
C471 H463 0.930 . S
C471 C470 1.362 . S
C471 C474 1.409 . S
C472 H464 0.930 . S
C472 C473 1.355 . S
C472 C474 1.415 . S
C473 C472 1.355 . S
C473 C475 1.419 . S
C474 C469 1.425 . S
C474 C471 1.409 . S
C474 C472 1.415 . S
C475 H465 0.930 . S
C475 C473 1.419 . S
C475 C476 1.362 . S
C476 H466 0.930 . S
C476 C469 1.409 . S
C476 C475 1.362 . S
H477 C483 0.930 . S
H478 C486 0.930 . S
H479 C487 0.930 . S
H480 C488 0.930 . S
H481 C491 0.930 . S
H482 C492 0.930 . S
C483 H477 0.930 . S
C483 C484 1.355 . S
C483 C485 1.415 . S
C484 C483 1.355 . S
C484 C486 1.419 . S
C485 C483 1.415 . S
C485 C490 1.425 . S
C485 C492 1.409 . S
C486 H478 0.930 . S
C486 C484 1.419 . S
C486 C487 1.362 . S
C487 H479 0.930 . S
C487 C486 1.362 . S
C487 C490 1.409 . S
C488 H480 0.930 . S
C488 C489 1.355 . S
C488 C490 1.415 . S
C489 C488 1.355 . S
C489 C491 1.419 . S
C490 C485 1.425 . S
C490 C487 1.409 . S
C490 C488 1.415 . S
C491 H481 0.930 . S
C491 C489 1.419 . S
C491 C492 1.362 . S
C492 H482 0.930 . S
C492 C485 1.409 . S
C492 C491 1.362 . S
H493 C499 0.930 . S
H494 C502 0.930 . S
H495 C503 0.930 . S
H496 C504 0.930 . S
H497 C507 0.930 . S
H498 C508 0.930 . S
C499 H493 0.930 . S
C499 C500 1.355 . S
C499 C501 1.415 . S
C500 C499 1.355 . S
C500 C502 1.419 . S
C501 C499 1.415 . S
C501 C506 1.425 . S
C501 C508 1.409 1_554 S
C502 H494 0.930 . S
C502 C500 1.419 . S
C502 C503 1.362 . S
C503 H495 0.930 . S
C503 C502 1.362 . S
C503 C506 1.409 . S
C504 H496 0.930 . S
C504 C505 1.355 1_554 S
C504 C506 1.415 . S
C505 C504 1.355 1_556 S
C505 C507 1.419 . S
C506 C501 1.425 . S
C506 C503 1.409 . S
C506 C504 1.415 . S
C507 H497 0.930 . S
C507 C505 1.419 . S
C507 C508 1.362 . S
C508 H498 0.930 . S
C508 C501 1.409 1_556 S
C508 C507 1.362 . S
H509 C515 0.930 1_545 S
H510 C518 0.930 . S
H511 C519 0.930 . S
H512 C520 0.930 1_655 S
H513 C523 0.930 . S
H514 C524 0.930 . S
C515 H509 0.930 1_565 S
C515 C516 1.355 . S
C515 C517 1.415 . S
C516 C515 1.355 . S
C516 C518 1.419 1_455 S
C517 C515 1.415 . S
C517 C522 1.425 . S
C517 C524 1.409 . S
C518 H510 0.930 . S
C518 C516 1.419 1_655 S
C518 C519 1.362 . S
C519 H511 0.930 . S
C519 C518 1.362 . S
C519 C522 1.409 1_655 S
C520 H512 0.930 1_455 S
C520 C521 1.355 . S
C520 C522 1.415 . S
C521 C520 1.355 . S
C521 C523 1.419 . S
C522 C517 1.425 . S
C522 C519 1.409 1_455 S
C522 C520 1.415 . S
C523 H513 0.930 . S
C523 C521 1.419 . S
C523 C524 1.362 . S
C524 H514 0.930 . S
C524 C517 1.409 . S
C524 C523 1.362 . S
H525 C531 0.930 . S
H526 C534 0.930 . S
H527 C535 0.930 . S
H528 C536 0.930 . S
H529 C539 0.930 . S
H530 C540 0.930 1_565 S
C531 H525 0.930 . S
C531 C532 1.355 . S
C531 C533 1.415 . S
C532 C531 1.355 . S
C532 C534 1.419 . S
C533 C531 1.415 . S
C533 C538 1.425 . S
C533 C540 1.409 . S
C534 H526 0.930 . S
C534 C532 1.419 . S
C534 C535 1.362 . S
C535 H527 0.930 . S
C535 C534 1.362 . S
C535 C538 1.409 . S
C536 H528 0.930 . S
C536 C537 1.355 . S
C536 C538 1.415 . S
C537 C536 1.355 . S
C537 C539 1.419 . S
C538 C533 1.425 . S
C538 C535 1.409 . S
C538 C536 1.415 . S
C539 H529 0.930 . S
C539 C537 1.419 . S
C539 C540 1.362 . S
C540 H530 0.930 1_545 S
C540 C533 1.409 . S
C540 C539 1.362 . S
H541 C547 0.930 . S
H542 C550 0.930 . S
H543 C551 0.930 . S
H544 C552 0.930 . S
H545 C555 0.930 . S
H546 C556 0.930 . S
C547 H541 0.930 . S
C547 C548 1.355 . S
C547 C549 1.415 . S
C548 C547 1.355 . S
C548 C550 1.419 . S
C549 C547 1.415 . S
C549 C554 1.425 . S
C549 C556 1.409 1_554 S
C550 H542 0.930 . S
C550 C548 1.419 . S
C550 C551 1.362 . S
C551 H543 0.930 . S
C551 C550 1.362 . S
C551 C554 1.409 . S
C552 H544 0.930 . S
C552 C553 1.355 1_554 S
C552 C554 1.415 . S
C553 C552 1.355 1_556 S
C553 C555 1.419 . S
C554 C549 1.425 . S
C554 C551 1.409 . S
C554 C552 1.415 . S
C555 H545 0.930 . S
C555 C553 1.419 . S
C555 C556 1.362 . S
C556 H546 0.930 . S
C556 C549 1.409 1_556 S
C556 C555 1.362 . S
H557 C563 0.930 . S
H558 C566 0.930 . S
H559 C567 0.930 1_655 S
H560 C568 0.930 1_655 S
H561 C571 0.930 . S
H562 C572 0.930 . S
C563 H557 0.930 . S
C563 C564 1.355 . S
C563 C565 1.415 . S
C564 C563 1.355 . S
C564 C566 1.419 . S
C565 C563 1.415 . S
C565 C570 1.425 . S
C565 C572 1.409 . S
C566 H558 0.930 . S
C566 C564 1.419 . S
C566 C567 1.362 . S
C567 H559 0.930 1_455 S
C567 C566 1.362 . S
C567 C570 1.409 . S
C568 H560 0.930 1_455 S
C568 C569 1.355 . S
C568 C570 1.415 . S
C569 C568 1.355 . S
C569 C571 1.419 . S
C570 C565 1.425 . S
C570 C567 1.409 . S
C570 C568 1.415 . S
C571 H561 0.930 . S
C571 C569 1.419 . S
C571 C572 1.362 . S
C572 H562 0.930 . S
C572 C565 1.409 . S
C572 C571 1.362 . S
C393 C94 0.981 . S
C388 C10 1.478 . S
C404 C21 1.476 1_655 S
C409 C208 1.226 . S
C420 C31 1.199 . S
C425 C268 1.021 . S
C436 C0 1.293 . S
C441 C68 1.178 . S
C457 C182 1.041 . S
C452 C18 1.354 . S
C468 C34 1.402 . S
C473 C278 1.000 . S
C489 C164 0.915 . S
C484 C36 1.400 . S
C500 C8 1.381 1_565 S
C505 C296 0.990 . S
C521 C40 1.099 . S
C516 C23 1.262 1_565 S
C537 C154 0.871 . S
C532 C26 1.137 . S
C553 C322 1.178 . S
C548 C5 1.420 . S
C564 C13 1.342 . S
C569 C50 0.775 . S
