# Generated by pormake.
# Topology zzz, (3,6)-cn, num edge types: 1
# Building blocks:
#     Node 0, Type 0, BuildingBlock: KAKCAD_clean_linker_0, # of connection points: 3
#     Node 1, Type 0, BuildingBlock: KAKCAD_clean_linker_0, # of connection points: 3
#     Node 2, Type 0, BuildingBlock: KAKCAD_clean_linker_0, # of connection points: 3
#     Node 3, Type 0, BuildingBlock: KAKCAD_clean_linker_0, # of connection points: 3
#     Node 4, Type 0, BuildingBlock: KAKCAD_clean_linker_0, # of connection points: 3
#     Node 5, Type 0, BuildingBlock: KAKCAD_clean_linker_0, # of connection points: 3
#     Node 6, Type 0, BuildingBlock: KAKCAD_clean_linker_0, # of connection points: 3
#     Node 7, Type 0, BuildingBlock: KAKCAD_clean_linker_0, # of connection points: 3
#     Node 8, Type 1, BuildingBlock: BETDEL_clean_sbu_0, # of connection points: 6
#     Node 9, Type 1, BuildingBlock: BETDEL_clean_sbu_0, # of connection points: 6
#     Node 10, Type 1, BuildingBlock: BETDEL_clean_sbu_0, # of connection points: 6
#     Node 11, Type 1, BuildingBlock: BETDEL_clean_sbu_0, # of connection points: 6
#     Edge 12, Type (0, 1), BuildingBlock: KIFKEQ_clean_linker_1, # of connection points: 2
#     Edge 13, Type (0, 1), BuildingBlock: KIFKEQ_clean_linker_1, # of connection points: 2
#     Edge 14, Type (0, 1), BuildingBlock: KIFKEQ_clean_linker_1, # of connection points: 2
#     Edge 15, Type (0, 1), BuildingBlock: KIFKEQ_clean_linker_1, # of connection points: 2
#     Edge 16, Type (0, 1), BuildingBlock: KIFKEQ_clean_linker_1, # of connection points: 2
#     Edge 17, Type (0, 1), BuildingBlock: KIFKEQ_clean_linker_1, # of connection points: 2
#     Edge 18, Type (0, 1), BuildingBlock: KIFKEQ_clean_linker_1, # of connection points: 2
#     Edge 19, Type (0, 1), BuildingBlock: KIFKEQ_clean_linker_1, # of connection points: 2
#     Edge 20, Type (0, 1), BuildingBlock: KIFKEQ_clean_linker_1, # of connection points: 2
#     Edge 21, Type (0, 1), BuildingBlock: KIFKEQ_clean_linker_1, # of connection points: 2
#     Edge 22, Type (0, 1), BuildingBlock: KIFKEQ_clean_linker_1, # of connection points: 2
#     Edge 23, Type (0, 1), BuildingBlock: KIFKEQ_clean_linker_1, # of connection points: 2
#     Edge 24, Type (0, 1), BuildingBlock: KIFKEQ_clean_linker_1, # of connection points: 2
#     Edge 25, Type (0, 1), BuildingBlock: KIFKEQ_clean_linker_1, # of connection points: 2
#     Edge 26, Type (0, 1), BuildingBlock: KIFKEQ_clean_linker_1, # of connection points: 2
#     Edge 27, Type (0, 1), BuildingBlock: KIFKEQ_clean_linker_1, # of connection points: 2
#     Edge 28, Type (0, 1), BuildingBlock: KIFKEQ_clean_linker_1, # of connection points: 2
#     Edge 29, Type (0, 1), BuildingBlock: KIFKEQ_clean_linker_1, # of connection points: 2
#     Edge 30, Type (0, 1), BuildingBlock: KIFKEQ_clean_linker_1, # of connection points: 2
#     Edge 31, Type (0, 1), BuildingBlock: KIFKEQ_clean_linker_1, # of connection points: 2
#     Edge 32, Type (0, 1), BuildingBlock: KIFKEQ_clean_linker_1, # of connection points: 2
#     Edge 33, Type (0, 1), BuildingBlock: KIFKEQ_clean_linker_1, # of connection points: 2
#     Edge 34, Type (0, 1), BuildingBlock: KIFKEQ_clean_linker_1, # of connection points: 2
#     Edge 35, Type (0, 1), BuildingBlock: KIFKEQ_clean_linker_1, # of connection points: 2
# Relax obj value: 0.331
# Max RMSD: 0.227
# Mean RMSD: 0.209
data_MOF--net-zzz--node1-BETDEL_clean_sbu_0--node2-KAKCAD_clean_linker_0--edge1-KIFKEQ_clean_linker_1
_symmetry_space_group_name_H-M    P1
_symmetry_Int_Tables_number       1
_symmetry_cell_setting            triclinic
loop_
_symmetry_equiv_pos_as_xyz
'x, y, z'
_cell_length_a     57.680782
_cell_length_b     57.506601
_cell_length_c     20.268177
_cell_angle_alpha  91.052946
_cell_angle_beta   89.247241
_cell_angle_gamma 95.866594
loop_
_atom_site_label
_atom_site_type_symbol
_atom_site_fract_x
_atom_site_fract_y
_atom_site_fract_z
_atom_type_partial_charge
C0 C 0.81099 0.44046 0.86294 0.0
C1 C 0.82286 0.42325 0.89249 0.0
C2 C 0.79295 0.45016 0.89665 0.0
C3 C 0.78641 0.44281 0.96054 0.0
C4 C 0.79661 0.4239 0.9871 0.0
C5 C 0.81472 0.41424 0.95344 0.0
C6 C 0.77232 0.4574 0.00301 0.0
C7 C 0.75318 0.46741 0.97813 0.0
C8 C 0.74219 0.48407 0.01543 0.0
C9 C 0.75058 0.49086 0.07879 0.0
C10 C 0.76972 0.48067 0.10443 0.0
C11 C 0.78016 0.4639 0.06637 0.0
C12 C 0.7813 0.48853 0.16713 0.0
C13 C 0.79247 0.51135 0.17347 0.0
C14 C 0.78662 0.47158 0.21214 0.0
C15 C 0.80456 0.47655 0.25743 0.0
C16 C 0.81734 0.49866 0.25933 0.0
C17 C 0.72267 0.49464 0.98485 0.0
C18 C 0.7266 0.50671 0.92554 0.0
C19 C 0.69969 0.48932 0.0076 0.0
C20 C 0.68088 0.49466 0.96932 0.0
C21 C 0.68479 0.50545 0.90769 0.0
C22 C 0.70791 0.5122 0.88766 0.0
C23 C 0.81035 0.51641 0.21953 0.0
H24 H 0.81693 0.44795 0.81629 0.0
H25 H 0.78557 0.46478 0.87497 0.0
H26 H 0.79159 0.41759 0.03579 0.0
H27 H 0.82327 0.4007 0.97686 0.0
H28 H 0.74702 0.46253 0.92897 0.0
H29 H 0.79568 0.45708 0.08461 0.0
H30 H 0.74266 0.50419 0.10706 0.0
H31 H 0.78895 0.52462 0.13878 0.0
H32 H 0.77834 0.45384 0.2081 0.0
H33 H 0.80947 0.46263 0.28801 0.0
H34 H 0.7442 0.51093 0.90697 0.0
H35 H 0.69626 0.47972 0.05276 0.0
H36 H 0.82 0.53359 0.22002 0.0
H37 H 0.71162 0.52101 0.84137 0.0
H38 H 0.66334 0.4891 0.98622 0.0
C39 C 0.02529 0.79814 0.94337 0.0
C40 C 0.03777 0.81804 0.97185 0.0
C41 C 0.02067 0.7777 0.97938 0.0
C42 C 0.02849 0.77677 0.0445 0.0
C43 C 0.04256 0.79601 0.07095 0.0
C44 C 0.04714 0.81647 0.03502 0.0
C45 C 0.01938 0.75728 0.08745 0.0
C46 C 0.01765 0.73402 0.06497 0.0
C47 C 0.00693 0.71588 0.10411 0.0
C48 C 0.99748 0.72134 0.16651 0.0
C49 C 0.99963 0.7447 0.18963 0.0
C50 C 0.01052 0.76234 0.14993 0.0
C51 C 0.99042 0.75231 0.25389 0.0
C52 C 0.96764 0.75881 0.25726 0.0
C53 C 0.00649 0.76114 0.30175 0.0
C54 C 1.00084 0.7784 0.3469 0.0
C55 C 0.9789 0.78711 0.34529 0.0
C56 C 0.00547 0.69165 0.07685 0.0
C57 C 0.98386 0.67828 0.06877 0.0
C58 C 0.02553 0.68335 0.04887 0.0
C59 C 0.02382 0.66329 0.00883 0.0
C60 C 1.00201 0.65097 0.99598 0.0
C61 C 0.98214 0.65802 0.02858 0.0
C62 C 0.96187 0.77596 0.30288 0.0
H63 H 0.01823 0.79871 0.89423 0.0
H64 H 0.00974 0.76318 0.95773 0.0
H65 H 0.04909 0.79563 0.12076 0.0
H66 H 0.05678 0.83148 0.05839 0.0
H67 H 0.02437 0.73005 0.01627 0.0
H68 H 0.01128 0.78038 0.1672 0.0
H69 H 0.98891 0.70764 0.19686 0.0
H70 H 0.95506 0.75251 0.22013 0.0
H71 H 0.02431 0.75675 0.29917 0.0
H72 H 0.01454 0.78647 0.37828 0.0
H73 H 0.96812 0.68438 0.08951 0.0
H74 H 0.04244 0.69319 0.05491 0.0
H75 H 0.9446 0.78173 0.30136 0.0
H76 H 0.96511 0.64884 0.01941 0.0
H77 H 0.03946 0.65803 0.98519 0.0
C78 C 0.68895 0.04892 0.94018 0.0
C79 C 0.69695 0.06779 0.90012 0.0
C80 C 0.704 0.03936 0.98266 0.0
C81 C 0.72747 0.04855 0.98681 0.0
C82 C 0.73561 0.06738 0.94642 0.0
C83 C 0.72047 0.07686 0.90313 0.0
C84 C 0.74314 0.03802 0.03281 0.0
C85 C 0.76582 0.03401 0.01384 0.0
C86 C 0.77992 0.0221 0.05516 0.0
C87 C 0.77069 0.01356 0.11618 0.0
C88 C 0.74809 0.01826 0.13649 0.0
C89 C 0.73477 0.03065 0.09484 0.0
C90 C 0.73673 0.00986 0.19898 0.0
C91 C 0.72801 0.98629 0.2046 0.0
C92 C 0.72858 0.02633 0.24333 0.0
C93 C 0.71045 0.01981 0.28788 0.0
C94 C 0.70001 0.99659 0.28937 0.0
C95 C 0.80391 0.01865 0.0315 0.0
C96 C 0.81159 0.99625 0.02589 0.0
C97 C 0.81794 0.03769 0.00471 0.0
C98 C 0.83808 0.03425 0.96848 0.0
C99 C 0.84488 0.01169 0.95834 0.0
C100 C 0.83197 0.99279 0.98964 0.0
C101 C 0.70989 0.97969 0.24954 0.0
H102 H 0.67107 0.04109 0.93751 0.0
H103 H 0.69728 0.02443 0.01146 0.0
H104 H 0.75359 0.0749 0.94868 0.0
H105 H 0.72708 0.09134 0.87244 0.0
H106 H 0.77231 0.03944 0.96548 0.0
H107 H 0.71737 0.03408 0.1105 0.0
H108 H 0.78109 0.00391 0.14793 0.0
H109 H 0.73374 0.9733 0.17035 0.0
H110 H 0.73475 0.04469 0.23922 0.0
H111 H 0.7034 0.03345 0.31705 0.0
H112 H 0.80107 0.98124 0.04569 0.0
H113 H 0.81263 0.0552 0.00891 0.0
H114 H 0.70274 0.96154 0.25028 0.0
H115 H 0.83681 0.9752 0.98264 0.0
H116 H 0.84788 0.0492 0.946 0.0
C117 C 0.51983 0.72416 0.34166 0.0
C118 C 0.53908 0.71227 0.35806 0.0
C119 C 0.52222 0.74211 0.29553 0.0
C120 C 0.54386 0.74847 0.26499 0.0
C121 C 0.56361 0.73887 0.28818 0.0
C122 C 0.56126 0.72093 0.33431 0.0
C123 C 0.54393 0.75558 0.19531 0.0
C124 C 0.54385 0.77882 0.17435 0.0
C125 C 0.54288 0.78344 0.10607 0.0
C126 C 0.54085 0.76461 0.06029 0.0
C127 C 0.54074 0.74164 0.08155 0.0
C128 C 0.54263 0.73736 0.14855 0.0
C129 C 0.53676 0.72143 0.03604 0.0
C130 C 0.51534 0.71698 0.00398 0.0
C131 C 0.55236 0.70425 0.03528 0.0
C132 C 0.54596 0.68233 0.00693 0.0
C133 C 0.52373 0.67711 0.97952 0.0
C134 C 0.54364 0.80753 0.08038 0.0
C135 C 0.52729 0.8227 0.10115 0.0
C136 C 0.559 0.81425 0.02819 0.0
C137 C 0.55727 0.83504 0.99496 0.0
C138 C 0.54005 0.84968 0.01289 0.0
C139 C 0.52544 0.84355 0.0675 0.0
C140 C 0.50882 0.69493 0.97597 0.0
H141 H 0.50257 0.71828 0.3602 0.0
H142 H 0.50666 0.74892 0.27775 0.0
H143 H 0.58041 0.74311 0.26439 0.0
H144 H 0.57648 0.71225 0.34572 0.0
H145 H 0.54482 0.79304 0.21033 0.0
H146 H 0.54206 0.71943 0.16494 0.0
H147 H 0.53916 0.76779 0.00808 0.0
H148 H 0.50295 0.72995 0.00492 0.0
H149 H 0.56898 0.7074 0.0599 0.0
H150 H 0.55809 0.66918 0.00873 0.0
H151 H 0.51516 0.81786 0.141 0.0
H152 H 0.5718 0.80288 0.01126 0.0
H153 H 0.49159 0.69144 0.95521 0.0
H154 H 0.51217 0.85457 0.08313 0.0
H155 H 0.56867 0.83897 0.95289 0.0
C156 C 0.2112 0.59886 0.13697 0.0
C157 C 0.20471 0.58999 0.19942 0.0
C158 C 0.22993 0.59074 0.10236 0.0
C159 C 0.24254 0.57367 0.12968 0.0
C160 C 0.23761 0.56666 0.19474 0.0
C161 C 0.21884 0.57472 0.2293 0.0
C162 C 0.25769 0.5603 0.08714 0.0
C163 C 0.27922 0.55443 0.10895 0.0
C164 C 0.29222 0.53939 0.07124 0.0
C165 C 0.28289 0.52959 0.01146 0.0
C166 C 0.26138 0.53583 0.98881 0.0
C167 C 0.24916 0.5512 0.02683 0.0
C168 C 0.24998 0.52615 0.9277 0.0
C169 C 0.24371 0.54188 0.88039 0.0
C170 C 0.23936 0.50304 0.92594 0.0
C171 C 0.22117 0.49649 0.88177 0.0
C172 C 0.21331 0.51305 0.83943 0.0
C173 C 0.31519 0.53412 0.09673 0.0
C174 C 0.33056 0.55235 0.12324 0.0
C175 C 0.3209 0.51104 0.10163 0.0
C176 C 0.3409 0.50627 0.13573 0.0
C177 C 0.35563 0.52451 0.16537 0.0
C178 C 0.35038 0.54764 0.15724 0.0
C179 C 0.22547 0.53545 0.83701 0.0
H180 H 0.20093 0.61099 0.11323 0.0
H181 H 0.23365 0.59669 0.05256 0.0
H182 H 0.24695 0.55342 0.21686 0.0
H183 H 0.21426 0.56738 0.27712 0.0
H184 H 0.28566 0.56129 0.15618 0.0
H185 H 0.23215 0.55515 0.01069 0.0
H186 H 0.29241 0.51765 0.98237 0.0
H187 H 0.25143 0.55988 0.88133 0.0
H188 H 0.24353 0.49075 0.96277 0.0
H189 H 0.21197 0.47914 0.88469 0.0
H190 H 0.32678 0.57036 0.11974 0.0
H191 H 0.30937 0.49662 0.08186 0.0
H192 H 0.21979 0.54848 0.80463 0.0
H193 H 0.36097 0.5622 0.17979 0.0
H194 H 0.34453 0.48827 0.14005 0.0
C195 C 1.00409 0.2043 0.1752 0.0
C196 C 0.01886 0.18628 0.17515 0.0
C197 C 0.01003 0.22444 0.13847 0.0
C198 C 0.03073 0.22674 0.10088 0.0
C199 C 0.04601 0.20931 0.10363 0.0
C200 C 0.04014 0.18929 0.14026 0.0
C201 C 0.03522 0.24566 0.05266 0.0
C202 C 0.03371 0.26909 0.07023 0.0
C203 C 0.03798 0.28677 0.02314 0.0
C204 C 0.04336 0.28067 0.95721 0.0
C205 C 0.04431 0.257 0.93942 0.0
C206 C 0.04048 0.23985 0.98741 0.0
C207 C 0.04784 0.2485 0.87125 0.0
C208 C 0.02804 0.24001 0.83528 0.0
C209 C 0.06939 0.24063 0.85413 0.0
C210 C 0.07063 0.22261 0.80721 0.0
C211 C 0.05025 0.21193 0.77724 0.0
C212 C 0.03699 0.31136 0.04521 0.0
C213 C 0.01715 0.31762 0.07931 0.0
C214 C 0.05689 0.32755 0.04192 0.0
C215 C 0.05742 0.34905 0.07603 0.0
C216 C 0.03796 0.35478 0.11334 0.0
C217 C 0.01758 0.33911 0.11271 0.0
C218 C 0.02921 0.22186 0.78877 0.0
H219 H 0.98772 0.20257 0.20233 0.0
H220 H 0.99794 0.23764 0.13681 0.0
H221 H 0.06214 0.21078 0.0753 0.0
H222 H 0.05181 0.17569 0.1386 0.0
H223 H 0.02973 0.27362 0.12102 0.0
H224 H 0.04094 0.2216 0.97316 0.0
H225 H 0.04633 0.29406 0.92027 0.0
H226 H 0.01113 0.2454 0.84878 0.0
H227 H 0.08481 0.24661 0.88208 0.0
H228 H 0.08725 0.21584 0.79832 0.0
H229 H 1.00164 0.30536 0.08278 0.0
H230 H 0.07247 0.32301 0.01642 0.0
H231 H 0.01311 0.21415 0.76706 0.0
H232 H 1.00237 0.34279 0.14139 0.0
H233 H 0.07331 0.36083 0.07506 0.0
C234 C 0.29349 0.92823 0.23762 0.0
C235 C 0.31213 0.94242 0.26599 0.0
C236 C 0.28052 0.9369 0.18729 0.0
C237 C 0.28651 0.95959 0.16381 0.0
C238 C 0.30519 0.97364 0.1921 0.0
C239 C 0.31778 0.9652 0.24292 0.0
C240 C 0.27339 0.96909 0.11031 0.0
C241 C 0.24956 0.97094 0.11766 0.0
C242 C 0.23754 0.98301 0.07143 0.0
C243 C 0.24978 0.99277 0.01575 0.0
C244 C 0.2738 0.99037 0.00739 0.0
C245 C 0.28529 0.97858 0.05504 0.0
C246 C 0.28814 1.00061 0.95169 0.0
C247 C 0.28618 0.9906 0.88806 0.0
C248 C 0.30744 0.01676 0.96583 0.0
C249 C 0.32523 0.02159 0.91912 0.0
C250 C 0.32425 0.01044 0.85661 0.0
C251 C 0.2129 0.98679 0.08721 0.0
C252 C 0.19739 0.9679 0.1086 0.0
C253 C 0.20615 0.00951 0.09406 0.0
C254 C 0.18518 0.01334 0.12655 0.0
C255 C 0.17051 0.99453 0.15281 0.0
C256 C 0.17653 0.9717 0.14102 0.0
C257 C 0.30404 0.99549 0.84089 0.0
H258 H 0.28895 0.91057 0.25456 0.0
H259 H 0.26612 0.92583 0.16598 0.0
H260 H 0.30997 0.99125 0.17506 0.0
H261 H 0.3323 0.97635 0.26338 0.0
H262 H 0.24067 0.96424 0.16193 0.0
H263 H 0.30383 0.97707 0.04959 0.0
H264 H 0.24087 0.00241 0.9802 0.0
H265 H 0.27165 0.9778 0.87627 0.0
H266 H 0.30955 0.02443 0.0149 0.0
H267 H 0.34048 0.03291 0.93404 0.0
H268 H 0.20214 0.95019 0.10407 0.0
H269 H 0.21782 0.02442 0.07855 0.0
H270 H 0.30239 0.98686 0.79303 0.0
H271 H 0.16596 0.95672 0.16068 0.0
H272 H 0.18093 0.03115 0.1334 0.0
C273 C 0.44748 0.27623 0.79051 0.0
C274 C 0.46934 0.28736 0.77123 0.0
C275 C 0.44593 0.25777 0.83499 0.0
C276 C 0.46619 0.24989 0.86054 0.0
C277 C 0.48793 0.25898 0.83505 0.0
C278 C 0.48951 0.27757 0.79092 0.0
C279 C 0.46529 0.24055 0.92813 0.0
C280 C 0.46964 0.21758 0.94348 0.0
C281 C 0.4718 0.21143 0.0102 0.0
C282 C 0.47002 0.22841 0.06032 0.0
C283 C 0.46579 0.25119 0.04501 0.0
C284 C 0.46296 0.25689 0.97914 0.0
C285 C 0.46783 0.27023 0.0952 0.0
C286 C 0.48766 0.27346 0.13502 0.0
C287 C 0.45237 0.28759 0.09494 0.0
C288 C 0.45776 0.30869 0.12904 0.0
C289 C 0.47869 0.31275 0.164 0.0
C290 C 0.47713 0.18791 0.03003 0.0
C291 C 0.46011 0.16869 0.02601 0.0
C292 C 0.49767 0.18573 0.06475 0.0
C293 C 0.50066 0.16518 0.09788 0.0
C294 C 0.48307 0.14633 0.0976 0.0
C295 C 0.46303 0.14808 0.05966 0.0
C296 C 0.49306 0.29457 0.16911 0.0
H297 H 0.43154 0.28286 0.77505 0.0
H298 H 0.42898 0.25135 0.85476 0.0
H299 H 0.50382 0.25362 0.8552 0.0
H300 H 0.50667 0.28562 0.77745 0.0
H301 H 0.47199 0.20494 0.90429 0.0
H302 H 0.46073 0.27481 0.96678 0.0
H303 H 0.47238 0.22397 0.11143 0.0
H304 H 0.49994 0.26041 0.13585 0.0
H305 H 0.43687 0.28541 0.0649 0.0
H306 H 0.44632 0.32236 0.12425 0.0
H307 H 0.44399 0.1701 1.00029 0.0
H308 H 0.51089 0.20046 0.06924 0.0
H309 H 0.50907 0.29709 0.19688 0.0
H310 H 0.44925 0.1338 0.05777 0.0
H311 H 0.51619 0.16466 0.12707 0.0
Dy312 Dy 0.0208 0.99038 0.61973 0.0
C313 C 0.98847 0.03285 0.3943 0.0
C314 C 0.0316 0.96637 0.72814 0.0
Dy315 Dy 0.99713 0.00817 0.50338 0.0
O316 O 0.04579 0.97219 0.6797 0.0
O317 O 0.01164 0.97416 0.71804 0.0
O318 O 0.0556 0.00375 0.57682 0.0
O319 O 0.02854 0.9908 0.51375 0.0
C320 C 0.04917 1.0005 0.51587 0.0
C321 C 0.96843 0.99769 0.60603 0.0
O322 O 0.99275 0.9705 0.47307 0.0
O323 O 1.00194 0.95742 0.57604 0.0
O324 O 0.97482 0.03019 0.44558 0.0
O325 O 0.00639 0.02131 0.40191 0.0
O326 O 0.96231 0.99474 0.54464 0.0
O327 O 0.98906 0.00752 0.60939 0.0
O328 O 0.02419 0.02796 0.65097 0.0
O329 O 0.01661 0.04083 0.54676 0.0
C330 C 0.994 0.95337 0.5153 0.0
C331 C 0.02367 0.04504 0.60822 0.0
Dy332 Dy 0.49219 0.98005 0.52634 0.0
C333 C 0.56511 0.04715 0.61783 0.0
C334 C 0.45411 0.94934 0.4992 0.0
Dy335 Dy 0.52659 0.01715 0.58989 0.0
O336 O 0.47197 0.95374 0.46006 0.0
O337 O 0.4572 0.96159 0.55331 0.0
O338 O 0.51809 0.97417 0.4454 0.0
O339 O 0.52989 0.98382 0.54039 0.0
C340 C 0.53619 0.98038 0.4815 0.0
C341 C 0.48277 0.01628 0.63652 0.0
O342 O 0.5203 0.03327 0.49206 0.0
O343 O 0.48621 0.0106 0.46385 0.0
O344 O 0.54422 0.04939 0.64018 0.0
O345 O 0.56481 0.02865 0.58022 0.0
O346 O 0.5011 0.02231 0.672 0.0
O347 O 0.4887 0.01317 0.57698 0.0
O348 O 0.49959 0.96269 0.62155 0.0
O349 O 0.53093 0.98792 0.65875 0.0
C350 C 0.50192 0.02871 0.45345 0.0
C351 C 0.51648 0.96856 0.66452 0.0
Dy352 Dy 0.50124 0.5092 0.62661 0.0
C353 C 0.52365 0.46623 0.3808 0.0
C354 C 0.49756 0.52614 0.75179 0.0
Dy355 Dy 0.51936 0.49039 0.4961 0.0
O356 O 0.47995 0.51794 0.71579 0.0
O357 O 0.51696 0.52445 0.71972 0.0
O358 O 0.47393 0.52623 0.57208 0.0
O359 O 0.48495 0.49472 0.5361 0.0
C360 C 0.47243 0.51084 0.52428 0.0
C361 C 0.55229 0.50379 0.58533 0.0
O362 O 0.51856 0.5282 0.47225 0.0
O363 O 0.52033 0.5411 0.58104 0.0
O364 O 0.53696 0.46532 0.43166 0.0
O365 O 0.50847 0.48107 0.39222 0.0
O366 O 0.55564 0.50592 0.52203 0.0
O367 O 0.53237 0.4934 0.5965 0.0
O368 O 0.4937 0.47095 0.64746 0.0
O369 O 0.50581 0.4569 0.54543 0.0
C370 C 0.52174 0.54532 0.51695 0.0
C371 C 0.49698 0.45344 0.60574 0.0
Dy372 Dy 1.00332 0.48518 0.59654 0.0
C373 C 0.0552 0.54701 0.42173 0.0
C374 C 0.97438 0.45904 0.68057 0.0
Dy375 Dy 0.02648 0.52092 0.5063 0.0
O376 O 0.98051 0.45248 0.62199 0.0
O377 O 0.98429 0.47988 0.69378 0.0
O378 O 0.02377 0.4581 0.54945 0.0
O379 O 0.01265 0.48464 0.49146 0.0
C380 C 0.02423 0.46716 0.49115 0.0
C381 C 0.00529 0.53905 0.61116 0.0
O382 O 0.99205 0.51618 0.45638 0.0
O383 O 0.97278 0.49901 0.54673 0.0
O384 O 0.04891 0.55376 0.47999 0.0
O385 O 0.0456 0.52601 0.40918 0.0
O386 O 0.00588 0.5479 0.55258 0.0
O387 O 0.01697 0.52163 0.61143 0.0
O388 O 0.0378 0.48985 0.6464 0.0
O389 O 0.05703 0.50726 0.55632 0.0
C390 C 0.97253 0.50865 0.48777 0.0
C391 C 0.0573 0.49755 0.61516 0.0
H392 H 0.1674 0.02987 0.24474 0.0
H393 H 0.128 0.96811 0.16436 0.0
H394 H 0.13685 0.03389 0.32661 0.0
H395 H 0.09814 0.97128 0.24894 0.0
H396 H 0.09558 0.01522 0.51664 0.0
H397 H 0.12326 0.01575 0.4249 0.0
H398 H 0.06737 0.99116 0.29303 0.0
H399 H 0.03986 0.98973 0.38596 0.0
C400 C 0.15211 0.01729 0.24376 0.0
C401 C 0.1504 0.99856 0.19775 0.0
C402 C 0.13468 0.01938 0.29169 0.0
C403 C 0.11505 0.00272 0.29549 0.0
C404 C 0.11285 0.98456 0.24771 0.0
C405 C 0.13021 0.98257 0.19946 0.0
C406 C 0.08919 0.01004 0.46797 0.0
C407 C 0.06554 0.00238 0.45863 0.0
C408 C 0.10506 0.01052 0.41503 0.0
C409 C 0.0977 0.00352 0.35102 0.0
C410 C 0.07384 0.99637 0.34156 0.0
C411 C 0.05798 0.99573 0.39475 0.0
H412 H 0.52166 0.12362 0.12162 0.0
H413 H 0.44885 0.12338 0.17442 0.0
H414 H 0.52587 0.094 0.20398 0.0
H415 H 0.45306 0.09373 0.25668 0.0
H416 H 0.46544 0.02714 0.367 0.0
H417 H 0.46054 0.05336 0.27587 0.0
H418 H 0.52617 0.09271 0.3236 0.0
H419 H 0.53126 0.06642 0.41373 0.0
C420 C 0.50651 0.11717 0.15054 0.0
C421 C 0.48494 0.12604 0.14151 0.0
C422 C 0.50894 0.10022 0.19794 0.0
C423 C 0.48987 0.09163 0.23762 0.0
C424 C 0.46807 0.09977 0.22669 0.0
C425 C 0.46564 0.11676 0.17928 0.0
C426 C 0.47886 0.04136 0.358 0.0
C427 C 0.49874 0.04463 0.39795 0.0
C428 C 0.47599 0.05646 0.30584 0.0
C429 C 0.49299 0.07513 0.2921 0.0
C430 C 0.51289 0.07831 0.33195 0.0
C431 C 0.51572 0.0633 0.38413 0.0
H432 H 0.35785 0.48823 0.25123 0.0
H433 H 0.39839 0.55006 0.17842 0.0
H434 H 0.38801 0.48356 0.33201 0.0
H435 H 0.42796 0.54577 0.26092 0.0
H436 H 0.45233 0.54825 0.48065 0.0
H437 H 0.42622 0.54983 0.38725 0.0
H438 H 0.43182 0.47683 0.34374 0.0
H439 H 0.45834 0.47535 0.43709 0.0
C440 C 0.37333 0.50058 0.25138 0.0
C441 C 0.37542 0.51972 0.20852 0.0
C442 C 0.39058 0.49793 0.29799 0.0
C443 C 0.41019 0.51447 0.30335 0.0
C444 C 0.41283 0.53297 0.25869 0.0
C445 C 0.39579 0.53545 0.21156 0.0
C446 C 0.44808 0.53257 0.45096 0.0
C447 C 0.45726 0.51166 0.46624 0.0
C448 C 0.43325 0.5335 0.39725 0.0
C449 C 0.42698 0.51345 0.35814 0.0
C450 C 0.43626 0.49252 0.37322 0.0
C451 C 0.45147 0.49169 0.42641 0.0
H452 H 0.07378 0.37097 0.19454 0.0
H453 H 0.00516 0.38548 0.13522 0.0
H454 H 0.0738 0.40138 0.28012 0.0
H455 H 0.00491 0.41545 0.22195 0.0
H456 H 0.0464 0.42767 0.48283 0.0
H457 H 0.05256 0.40375 0.38486 0.0
H458 H 0.02214 0.45361 0.26437 0.0
H459 H 0.01578 0.47749 0.36295 0.0
C460 C 0.0589 0.38098 0.19881 0.0
C461 C 0.0394 0.37569 0.15822 0.0
C462 C 0.0588 0.39823 0.24841 0.0
C463 C 0.03926 0.41069 0.25843 0.0
C464 C 0.0203 0.4063 0.21544 0.0
C465 C 0.02036 0.38897 0.16605 0.0
C466 C 0.04131 0.43368 0.4353 0.0
C467 C 0.03043 0.45432 0.4306 0.0
C468 C 0.04497 0.42004 0.37902 0.0
C469 C 0.03775 0.42669 0.31669 0.0
C470 C 0.02765 0.44785 0.31172 0.0
C471 C 0.02412 0.46158 0.36808 0.0
H472 H 0.84938 0.02813 0.83385 0.0
H473 H 0.88288 0.98669 0.97236 0.0
H474 H 0.87984 0.02268 0.75232 0.0
H475 H 0.91381 0.98135 0.89004 0.0
H476 H 0.97627 0.00707 0.73799 0.0
H477 H 0.94687 0.00838 0.8266 0.0
H478 H 0.89257 0.98756 0.68676 0.0
H479 H 0.9217 0.98593 0.59902 0.0
C480 C 0.86337 0.01794 0.84699 0.0
C481 C 0.86379 0.00794 0.90968 0.0
C482 C 0.88074 0.01468 0.80008 0.0
C483 C 0.89919 1.00154 0.81467 0.0
C484 C 0.89983 0.99164 0.87756 0.0
C485 C 0.88211 0.99458 0.92443 0.0
C486 C 0.95807 0.00248 0.72654 0.0
C487 C 0.95128 0.99659 0.66142 0.0
C488 C 0.94127 0.00316 0.77723 0.0
C489 C 0.9174 0.99827 0.76346 0.0
C490 C 0.91079 0.99167 0.69875 0.0
C491 C 0.92751 0.99069 0.64851 0.0
H492 H 0.57307 0.88097 0.95522 0.0
H493 H 0.49859 0.86429 0.9744 0.0
H494 H 0.56701 0.91055 0.87443 0.0
H495 H 0.4925 0.89458 0.89577 0.0
H496 H 0.49174 0.92637 0.68982 0.0
H497 H 0.49716 0.89975 0.77884 0.0
H498 H 0.55321 0.94792 0.8552 0.0
H499 H 0.54815 0.97439 0.76502 0.0
C500 C 0.55538 0.8838 0.94283 0.0
C501 C 0.53634 0.87006 0.97105 0.0
C502 C 0.55189 0.90096 0.89689 0.0
C503 C 0.52925 0.90486 0.87792 0.0
C504 C 0.51019 0.8918 0.90826 0.0
C505 C 0.51368 0.87463 0.95419 0.0
C506 C 0.50522 0.93137 0.72555 0.0
C507 C 0.51957 0.95255 0.71985 0.0
C508 C 0.5082 0.91613 0.7771 0.0
C509 C 0.52559 0.92165 0.82456 0.0
C510 C 0.53982 0.94294 0.81919 0.0
C511 C 0.53685 0.95819 0.76752 0.0
H512 H 0.68405 0.49793 0.77418 0.0
H513 H 0.64075 0.51778 0.93701 0.0
H514 H 0.65202 0.5001 0.69895 0.0
H515 H 0.60843 0.51994 0.8611 0.0
H516 H 0.54995 0.49162 0.71506 0.0
H517 H 0.58163 0.49428 0.79439 0.0
H518 H 0.62857 0.52668 0.64711 0.0
H519 H 0.59689 0.52362 0.5676 0.0
C520 C 0.66782 0.50321 0.79389 0.0
C521 C 0.66513 0.50787 0.86183 0.0
C522 C 0.64937 0.50444 0.75053 0.0
C523 C 0.6276 0.51032 0.77369 0.0
C524 C 0.62487 0.51512 0.84159 0.0
C525 C 0.64341 0.5139 0.88514 0.0
C526 C 0.56698 0.49956 0.69993 0.0
C527 C 0.57098 0.5073 0.635 0.0
C528 C 0.58514 0.50117 0.74551 0.0
C529 C 0.60776 0.51054 0.72716 0.0
C530 C 0.6115 0.51898 0.66268 0.0
C531 C 0.59333 0.51736 0.61715 0.0
H532 H 0.01957 0.65523 0.87198 0.0
H533 H 0.97964 0.60622 0.99874 0.0
H534 H 0.01686 0.62642 0.78225 0.0
H535 H 0.97704 0.57696 0.90795 0.0
H536 H 0.01096 0.52823 0.74102 0.0
H537 H 0.00712 0.554 0.83774 0.0
H538 H 0.98371 0.60646 0.71203 0.0
H539 H 0.98737 0.58088 0.61605 0.0
C540 C 0.0103 0.63819 0.88071 0.0
C541 C 0.99997 0.63289 0.94249 0.0
C542 C 0.00857 0.62176 0.82913 0.0
C543 C 0.99664 0.59949 0.83801 0.0
C544 C 0.98637 0.59401 0.8999 0.0
C545 C 0.98778 0.61071 0.95158 0.0
C546 C 1.00458 0.5451 0.73441 0.0
C547 C 0.99978 0.5527 0.67092 0.0
C548 C 1.00231 0.55978 0.78971 0.0
C549 C 0.9954 0.58233 0.78218 0.0
C550 C 0.98937 0.5893 0.71914 0.0
C551 C 0.99143 0.57462 0.66421 0.0
H552 H 0.9758 0.16127 0.17497 0.0
H553 H 0.04582 0.16011 0.24735 0.0
H554 H 0.9653 0.12211 0.21838 0.0
H555 H 0.03544 0.12099 0.28924 0.0
H556 H 0.01952 0.04412 0.29556 0.0
H557 H 0.02466 0.0811 0.23748 0.0
H558 H 0.96187 0.10177 0.32981 0.0
H559 H 0.95663 0.06463 0.38778 0.0
C560 C 0.98884 0.15281 0.20088 0.0
C561 C 0.0117 0.16371 0.20738 0.0
C562 C 0.98287 0.13036 0.22517 0.0
C563 C 0.9997 0.11839 0.2558 0.0
C564 C 0.0223 0.12959 0.26415 0.0
C565 C 0.02821 0.15201 0.24043 0.0
C566 C 0.00645 0.05626 0.30193 0.0
C567 C 0.98784 0.05171 0.34663 0.0
C568 C 0.0095 0.07748 0.26921 0.0
C569 C 0.99395 0.09444 0.28046 0.0
C570 C 0.97414 0.089 0.32048 0.0
C571 C 0.97113 0.06776 0.35349 0.0
H572 H 0.33478 0.90302 0.26141 0.0
H573 H 0.32296 0.96267 0.38482 0.0
H574 H 0.36681 0.89468 0.33261 0.0
H575 H 0.35494 0.95482 0.45495 0.0
H576 H 0.41398 0.94314 0.57178 0.0
H577 H 0.37498 0.93164 0.52936 0.0
H578 H 0.40487 0.91709 0.33816 0.0
H579 H 0.44369 0.92795 0.38114 0.0
C580 C 0.33854 0.91383 0.30508 0.0
C581 C 0.32676 0.93367 0.31736 0.0
C582 C 0.35693 0.90918 0.34553 0.0
C583 C 0.36367 0.92427 0.39888 0.0
C584 C 0.35019 0.94269 0.41469 0.0
C585 C 0.33196 0.94736 0.37422 0.0
C586 C 0.41219 0.93669 0.52135 0.0
C587 C 0.43171 0.93685 0.47922 0.0
C588 C 0.38988 0.93019 0.497 0.0
C589 C 0.38677 0.92389 0.43007 0.0
C590 C 0.40657 0.92172 0.39002 0.0
C591 C 0.42887 0.92813 0.41446 0.0
H592 H 0.52208 0.33599 0.15286 0.0
H593 H 0.45298 0.3434 0.22998 0.0
H594 H 0.53502 0.37566 0.19027 0.0
H595 H 0.46594 0.38309 0.26754 0.0
H596 H 0.48926 0.45863 0.28992 0.0
H597 H 0.4794 0.4224 0.22704 0.0
H598 H 0.54185 0.39564 0.29663 0.0
H599 H 0.55184 0.43191 0.35832 0.0
C600 C 0.50973 0.34602 0.1785 0.0
C601 C 0.48657 0.33652 0.18923 0.0
C602 C 0.51711 0.36878 0.1994 0.0
C603 C 0.50147 0.38253 0.23138 0.0
C604 C 0.47827 0.37308 0.24176 0.0
C605 C 0.47089 0.35031 0.22079 0.0
C606 C 0.50124 0.44529 0.28988 0.0
C607 C 0.52118 0.44788 0.32933 0.0
C608 C 0.49546 0.42447 0.25459 0.0
C609 C 0.5096 0.40603 0.25809 0.0
C610 C 0.53062 0.40954 0.29287 0.0
C611 C 0.53636 0.43031 0.32821 0.0
H612 H 0.16349 0.58908 0.13466 0.0
H613 H 0.19314 0.59729 0.32946 0.0
H614 H 0.12453 0.58512 0.18306 0.0
H615 H 0.15408 0.59246 0.37796 0.0
H616 H 0.08049 0.58834 0.45143 0.0
H617 H 0.11502 0.60603 0.39284 0.0
H618 H 0.10588 0.55142 0.24332 0.0
H619 H 0.07136 0.53397 0.30152 0.0
C620 C 0.16172 0.59078 0.18775 0.0
C621 C 0.18146 0.59324 0.22832 0.0
C622 C 0.13936 0.58822 0.21545 0.0
C623 C 0.13626 0.58806 0.28424 0.0
C624 C 0.15589 0.59255 0.32471 0.0
C625 C 0.17829 0.59511 0.29699 0.0
C626 C 0.08563 0.58046 0.40526 0.0
C627 C 0.07346 0.5597 0.38111 0.0
C628 C 0.10541 0.59052 0.37195 0.0
C629 C 0.11324 0.58006 0.31374 0.0
C630 C 0.10015 0.56008 0.28763 0.0
C631 C 0.08046 0.54998 0.3211 0.0
H632 H 1.00271 0.83624 0.90834 0.0
H633 H 0.07487 0.8519 0.96292 0.0
H634 H 1.00325 0.87441 0.85891 0.0
H635 H 0.07515 0.89072 0.91518 0.0
H636 H 0.06994 0.94298 0.74042 0.0
H637 H 0.07296 0.90818 0.80563 0.0
H638 H 0.00518 0.91549 0.89233 0.0
H639 H 1.00198 0.94997 0.82589 0.0
C640 C 0.01877 0.84778 0.90932 0.0
C641 C 0.03882 0.84095 0.939 0.0
C642 C 0.01895 0.86985 0.88208 0.0
C643 C 0.03915 0.8857 0.88397 0.0
C644 C 0.05932 0.87886 0.91303 0.0
C645 C 0.05914 0.8567 0.94051 0.0
C646 C 0.05595 0.93743 0.77458 0.0
C647 C 0.03561 0.94891 0.77768 0.0
C648 C 0.05769 0.91754 0.812 0.0
C649 C 0.03912 0.90887 0.85314 0.0
C650 C 0.01955 0.92148 0.85988 0.0
C651 C 0.01779 0.94131 0.82235 0.0
H652 H 0.70414 0.07685 0.76891 0.0
H653 H 0.65285 0.07841 0.92545 0.0
H654 H 0.67417 0.08203 0.6878 0.0
H655 H 0.62284 0.08247 0.84522 0.0
H656 H 0.56885 0.08494 0.70183 0.0
H657 H 0.60377 0.10073 0.76101 0.0
H658 H 0.64416 0.0538 0.64982 0.0
H659 H 0.60961 0.03895 0.58935 0.0
C660 C 0.6866 0.07897 0.78607 0.0
C661 C 0.68064 0.0767 0.8532 0.0
C662 C 0.66939 0.08172 0.73964 0.0
C663 C 0.64596 0.08216 0.75968 0.0
C664 C 0.64063 0.08231 0.8276 0.0
C665 C 0.65779 0.07968 0.87378 0.0
C666 C 0.58539 0.07861 0.68881 0.0
C667 C 0.58653 0.06043 0.64218 0.0
C668 C 0.60537 0.08754 0.72284 0.0
C669 C 0.62671 0.07818 0.71135 0.0
C670 C 0.62814 0.06158 0.65995 0.0
C671 C 0.60825 0.05286 0.62554 0.0
H672 H 0.53064 0.63685 0.04234 0.0
H673 H 0.49838 0.66242 0.87041 0.0
H674 H 0.51962 0.59672 0.00517 0.0
H675 H 0.48706 0.62226 0.83394 0.0
H676 H 0.46058 0.549 0.79149 0.0
H677 H 0.46291 0.58429 0.86141 0.0
H678 H 0.53412 0.57463 0.9081 0.0
H679 H 0.53179 0.53958 0.83832 0.0
C680 C 0.52118 0.63391 0.99663 0.0
C681 C 0.51575 0.65281 0.95859 0.0
C682 C 0.51469 0.61094 0.97583 0.0
C683 C 0.50245 0.6064 0.91689 0.0
C684 C 0.49614 0.62526 0.88025 0.0
C685 C 0.50275 0.64825 0.90087 0.0
C686 C 0.47637 0.55393 0.8189 0.0
C687 C 0.49611 0.54184 0.80921 0.0
C688 C 0.47778 0.57422 0.85829 0.0
C689 C 0.49882 0.58237 0.8891 0.0
C690 C 0.51767 0.56874 0.88506 0.0
C691 C 0.51635 0.54868 0.84514 0.0
H692 H 0.86284 0.42013 0.96044 0.0
H693 H 0.835 0.41559 0.76322 0.0
H694 H 0.90222 0.42169 0.91504 0.0
H695 H 0.87449 0.41786 0.71777 0.0
H696 H 0.94801 0.41857 0.64853 0.0
H697 H 0.91263 0.40184 0.705 0.0
H698 H 0.92315 0.45519 0.85765 0.0
H699 H 0.95849 0.47173 0.80147 0.0
C700 C 0.86505 0.41866 0.90743 0.0
C701 C 0.8458 0.41803 0.86531 0.0
C702 C 0.88766 0.41982 0.88147 0.0
C703 C 0.89146 0.42032 0.81294 0.0
C704 C 0.87214 0.41746 0.77086 0.0
C705 C 0.84951 0.41635 0.79683 0.0
C706 C 0.94301 0.42634 0.69499 0.0
C707 C 0.95577 0.44656 0.72047 0.0
C708 C 0.92274 0.41682 0.72711 0.0
C709 C 0.91503 0.42728 0.78546 0.0
C710 C 0.92876 0.44656 0.81315 0.0
C711 C 0.94892 0.45614 0.78084 0.0
H712 H 0.07475 0.17549 0.80985 0.0
H713 H 0.02483 0.195 0.66912 0.0
H714 H 0.07087 0.13589 0.76497 0.0
H715 H 0.02001 0.1549 0.62652 0.0
H716 H 0.02811 0.08402 0.53168 0.0
H717 H 0.03724 0.12461 0.56677 0.0
H718 H 0.04251 0.10266 0.76831 0.0
H719 H 0.034 0.06201 0.73294 0.0
C720 C 0.06323 0.17152 0.76849 0.0
C721 C 0.05012 0.18863 0.74319 0.0
C722 C 0.0607 0.14859 0.7435 0.0
C723 C 0.04488 0.142 0.6927 0.0
C724 C 0.03246 0.1593 0.66544 0.0
C725 C 0.03507 0.18231 0.6903 0.0
C726 C 0.03136 0.08781 0.58349 0.0
C727 C 0.03027 0.06967 0.62951 0.0
C728 C 0.03647 0.11115 0.60366 0.0
C729 C 0.04057 0.11703 0.67044 0.0
C730 C 0.03982 0.09884 0.7163 0.0
C731 C 0.03479 0.07547 0.69608 0.0
H732 H 0.35568 0.0492 0.83691 0.0
H733 H 0.34082 0.97702 0.77397 0.0
H734 H 0.39305 0.05106 0.7787 0.0
H735 H 0.37784 0.97944 0.71326 0.0
H736 H 0.44167 0.00317 0.57156 0.0
H737 H 0.40182 0.00217 0.61682 0.0
H738 H 0.42936 0.02937 0.80284 0.0
H739 H 0.46893 0.02954 0.7588 0.0
C740 C 0.36019 0.03376 0.81033 0.0
C741 C 0.34518 0.01283 0.81145 0.0
C742 C 0.38161 0.03491 0.77664 0.0
C743 C 0.38849 0.01533 0.74198 0.0
C744 C 0.37297 0.99485 0.73933 0.0
C745 C 0.35164 0.99355 0.77398 0.0
C746 C 0.43917 0.00872 0.62225 0.0
C747 C 0.45847 0.01621 0.6618 0.0
C748 C 0.41638 0.00821 0.64805 0.0
C749 C 0.41247 0.01582 0.71328 0.0
C750 C 0.43179 0.02364 0.75222 0.0
C751 C 0.45447 0.02365 0.72701 0.0
H752 H 0.50079 0.30484 0.67617 0.0
H753 H 0.44262 0.32339 0.7955 0.0
H754 H 0.50658 0.34469 0.63531 0.0
H755 H 0.44772 0.36273 0.75242 0.0
H756 H 0.48198 0.43777 0.72795 0.0
H757 H 0.47431 0.39744 0.76364 0.0
H758 H 0.49076 0.37296 0.56745 0.0
H759 H 0.49893 0.4132 0.53213 0.0
C760 C 0.48904 0.31728 0.69311 0.0
C761 C 0.47121 0.31073 0.73918 0.0
C762 C 0.49224 0.34014 0.66922 0.0
C763 C 0.47771 0.35708 0.69082 0.0
C764 C 0.45948 0.35032 0.73537 0.0
C765 C 0.4563 0.32753 0.75926 0.0
C766 C 0.48386 0.42382 0.69229 0.0
C767 C 0.49114 0.42886 0.62717 0.0
C768 C 0.47934 0.40061 0.71268 0.0
C769 C 0.48191 0.38182 0.66849 0.0
C770 C 0.48891 0.38691 0.60317 0.0
C771 C 0.49347 0.41008 0.58281 0.0
H772 H 0.17556 0.53662 0.85843 0.0
H773 H 0.19967 0.47922 0.74598 0.0
H774 H 0.13766 0.53006 0.80495 0.0
H775 H 0.16164 0.47296 0.69071 0.0
H776 H 0.1005 0.49856 0.55696 0.0
H777 H 0.13827 0.49964 0.61143 0.0
H778 H 0.10346 0.49569 0.80116 0.0
H779 H 0.06566 0.49413 0.74694 0.0
C780 C 0.17271 0.52264 0.82196 0.0
C781 C 0.19053 0.50851 0.80594 0.0
C782 C 0.151 0.51879 0.79172 0.0
C783 C 0.14671 0.50098 0.74383 0.0
C784 C 0.16455 0.48684 0.72742 0.0
C785 C 0.18621 0.49037 0.75896 0.0
C786 C 0.10088 0.49764 0.61027 0.0
C787 C 0.08006 0.49634 0.64765 0.0
C788 C 0.1225 0.49812 0.64133 0.0
C789 C 0.12377 0.4978 0.71046 0.0
C790 C 0.10296 0.49603 0.74777 0.0
C791 C 0.08133 0.49506 0.71669 0.0
H792 H 0.99561 0.804 0.46575 0.0
H793 H 0.95479 0.82236 0.30076 0.0
H794 H 0.99665 0.84386 0.50846 0.0
H795 H 0.95437 0.86163 0.34602 0.0
H796 H 0.98787 0.93613 0.38922 0.0
H797 H 0.98075 0.89543 0.35363 0.0
H798 H 0.97767 0.87416 0.55733 0.0
H799 H 0.98575 0.91485 0.59264 0.0
C800 C 0.98647 0.81636 0.43915 0.0
C801 C 0.97538 0.80983 0.3792 0.0
C802 C 0.98683 0.83926 0.46414 0.0
C803 C 0.97588 0.85623 0.4303 0.0
C804 C 0.96349 0.84928 0.37273 0.0
C805 C 0.96335 0.82648 0.34737 0.0
C806 C 0.98546 0.92279 0.42643 0.0
C807 C 0.98755 0.92878 0.49374 0.0
C808 C 0.98121 0.89937 0.40606 0.0
C809 C 0.97865 0.88131 0.4525 0.0
C810 C 0.97997 0.88745 0.51998 0.0
C811 C 0.98448 0.91085 0.5403 0.0
H812 H 0.6854 0.01452 0.40864 0.0
H813 H 0.6626 0.96612 0.25134 0.0
H814 H 0.64633 0.00989 0.45695 0.0
H815 H 0.62413 0.9604 0.3018 0.0
H816 H 0.5513 0.97916 0.35419 0.0
H817 H 0.59123 0.98141 0.31266 0.0
H818 H 0.61651 0.98563 0.51281 0.0
H819 H 0.5763 0.98389 0.5541 0.0
C820 C 0.67221 0.00264 0.38472 0.0
C821 C 0.67733 0.9909 0.32548 0.0
C822 C 0.64977 0.99979 0.41295 0.0
C823 C 0.63181 0.98499 0.38297 0.0
C824 C 0.63727 0.97236 0.32567 0.0
C825 C 0.65961 0.97533 0.29724 0.0
C826 C 0.56539 0.9805 0.38932 0.0
C827 C 0.56066 0.98144 0.45736 0.0
C828 C 0.58836 0.98162 0.36555 0.0
C829 C 0.60729 0.98352 0.40921 0.0
C830 C 0.60249 0.98442 0.47754 0.0
C831 C 0.57943 0.98338 0.50131 0.0
H832 H 0.56606 0.69397 0.45174 0.0
H833 H 0.50468 0.67709 0.33346 0.0
H834 H 0.56276 0.65373 0.49105 0.0
H835 H 0.50112 0.63731 0.37374 0.0
H836 H 0.51844 0.56212 0.39213 0.0
H837 H 0.5226 0.6028 0.358 0.0
H838 H 0.53777 0.62525 0.55865 0.0
H839 H 0.53383 0.58454 0.59287 0.0
C840 C 0.55171 0.68181 0.43481 0.0
C841 C 0.53559 0.68889 0.38967 0.0
C842 C 0.54976 0.65877 0.45751 0.0
C843 C 0.5318 0.64221 0.43501 0.0
C844 C 0.51536 0.64949 0.39133 0.0
C845 C 0.51721 0.67248 0.36907 0.0
C846 C 0.52285 0.57568 0.42896 0.0
C847 C 0.52577 0.56998 0.49528 0.0
C848 C 0.52504 0.59905 0.40947 0.0
C849 C 0.53034 0.61733 0.4557 0.0
C850 C 0.53381 0.61162 0.52173 0.0
C851 C 0.53145 0.58824 0.54134 0.0
H852 H 0.83181 0.53177 0.35402 0.0
H853 H 0.85372 0.47289 0.24337 0.0
H854 H 0.86956 0.53628 0.41105 0.0
H855 H 0.89133 0.47771 0.29867 0.0
H856 H 0.96427 0.51218 0.3561 0.0
H857 H 0.92657 0.51155 0.30186 0.0
H858 H 0.89166 0.5081 0.49146 0.0
H859 H 0.92936 0.50821 0.54602 0.0
C860 C 0.8447 0.51988 0.34193 0.0
C861 C 0.83983 0.50187 0.29484 0.0
C862 C 0.8662 0.52241 0.37448 0.0
C863 C 0.88335 0.50738 0.35898 0.0
C864 C 0.8785 0.48962 0.31124 0.0
C865 C 0.85694 0.48677 0.27999 0.0
C866 C 0.9486 0.51152 0.38634 0.0
C867 C 0.94981 0.51013 0.45536 0.0
C868 C 0.92703 0.51109 0.35524 0.0
C869 C 0.90624 0.50978 0.39252 0.0
C870 C 0.90745 0.50927 0.46164 0.0
C871 C 0.92901 0.50919 0.49273 0.0
loop_
_geom_bond_atom_site_label_1
_geom_bond_atom_site_label_2
_geom_bond_distance
_geom_bond_site_symmetry_2
_ccdc_geom_bond_type
C0 C1 1.386 . S
C0 C2 1.397 . S
C0 H24 0.931 . S
C1 C0 1.386 . S
C1 C5 1.397 . S
C2 C0 1.397 . S
C2 C3 1.384 . S
C2 H25 0.930 . S
C3 C2 1.384 . S
C3 C4 1.377 . S
C3 C6 1.481 . S
C4 C3 1.377 . S
C4 C5 1.389 . S
C4 H26 0.929 . S
C5 C1 1.397 . S
C5 C4 1.389 . S
C5 H27 0.931 . S
C6 C3 1.481 . S
C6 C7 1.387 . S
C6 C11 1.390 1_556 S
C7 C6 1.387 . S
C7 C8 1.401 1_556 S
C7 H28 0.930 . S
C8 C7 1.401 1_554 S
C8 C9 1.376 . S
C8 C17 1.511 1_554 S
C9 C8 1.376 . S
C9 C10 1.392 . S
C9 H30 0.931 . S
C10 C9 1.392 . S
C10 C11 1.361 . S
C10 C12 1.500 . S
C11 C6 1.390 1_554 S
C11 C10 1.361 . S
C11 H29 0.931 . S
C12 C10 1.500 . S
C12 C13 1.371 . S
C12 C14 1.365 . S
C13 C12 1.371 . S
C13 C23 1.386 . S
C13 H31 0.931 . S
C14 C12 1.365 . S
C14 C15 1.409 . S
C14 H32 0.929 . S
C15 C14 1.409 . S
C15 C16 1.380 . S
C15 H33 0.930 . S
C16 C15 1.380 . S
C16 C23 1.357 . S
C17 C8 1.511 1_556 S
C17 C18 1.341 . S
C17 C19 1.371 1_556 S
C18 C17 1.341 . S
C18 C22 1.394 . S
C18 H34 0.930 . S
C19 C17 1.371 1_554 S
C19 C20 1.392 . S
C19 H35 0.931 . S
C20 C19 1.392 . S
C20 C21 1.331 1_554 S
C20 H38 0.932 . S
C21 C20 1.331 1_556 S
C21 C22 1.336 . S
C22 C18 1.394 . S
C22 C21 1.336 . S
C22 H37 0.929 . S
C23 C13 1.386 . S
C23 C16 1.357 . S
C23 H36 0.928 . S
H24 C0 0.931 . S
H25 C2 0.930 . S
H26 C4 0.929 . S
H27 C5 0.931 . S
H28 C7 0.930 . S
H29 C11 0.931 . S
H30 C9 0.931 . S
H31 C13 0.931 . S
H32 C14 0.929 . S
H33 C15 0.930 . S
H34 C18 0.930 . S
H35 C19 0.931 . S
H36 C23 0.928 . S
H37 C22 0.929 . S
H38 C20 0.932 . S
C39 C40 1.386 . S
C39 C41 1.397 . S
C39 H63 0.931 . S
C40 C39 1.386 . S
C40 C44 1.397 . S
C41 C39 1.397 . S
C41 C42 1.384 . S
C41 H64 0.930 . S
C42 C41 1.384 . S
C42 C43 1.377 . S
C42 C45 1.481 . S
C43 C42 1.377 . S
C43 C44 1.389 . S
C43 H65 0.929 . S
C44 C40 1.397 . S
C44 C43 1.389 . S
C44 H66 0.931 . S
C45 C42 1.481 . S
C45 C46 1.387 . S
C45 C50 1.390 1_556 S
C46 C45 1.387 . S
C46 C47 1.401 . S
C46 H67 0.930 . S
C47 C46 1.401 . S
C47 C48 1.376 1_556 S
C47 C56 1.511 . S
C48 C47 1.376 1_554 S
C48 C49 1.392 . S
C48 H69 0.931 . S
C49 C48 1.392 . S
C49 C50 1.361 . S
C49 C51 1.500 . S
C50 C45 1.390 1_554 S
C50 C49 1.361 . S
C50 H68 0.931 . S
C51 C49 1.500 . S
C51 C52 1.371 . S
C51 C53 1.365 . S
C52 C51 1.371 . S
C52 C62 1.386 . S
C52 H70 0.931 . S
C53 C51 1.365 . S
C53 C54 1.409 . S
C53 H71 0.929 . S
C54 C53 1.409 . S
C54 C55 1.380 . S
C54 H72 0.930 . S
C55 C54 1.380 . S
C55 C62 1.357 . S
C56 C47 1.511 . S
C56 C57 1.341 . S
C56 C58 1.371 1_556 S
C57 C56 1.341 . S
C57 C61 1.394 . S
C57 H73 0.930 . S
C58 C56 1.371 1_554 S
C58 C59 1.392 . S
C58 H74 0.931 . S
C59 C58 1.392 . S
C59 C60 1.331 1_554 S
C59 H77 0.932 . S
C60 C59 1.331 1_556 S
C60 C61 1.336 . S
C61 C57 1.394 . S
C61 C60 1.336 . S
C61 H76 0.929 . S
C62 C52 1.386 . S
C62 C55 1.357 . S
C62 H75 0.928 . S
H63 C39 0.931 . S
H64 C41 0.930 . S
H65 C43 0.929 . S
H66 C44 0.931 . S
H67 C46 0.930 . S
H68 C50 0.931 . S
H69 C48 0.931 . S
H70 C52 0.931 . S
H71 C53 0.929 . S
H72 C54 0.930 . S
H73 C57 0.930 . S
H74 C58 0.931 . S
H75 C62 0.928 . S
H76 C61 0.929 . S
H77 C59 0.932 . S
C78 C79 1.395 . S
C78 C80 1.397 . S
C78 H102 0.931 . S
C79 C78 1.395 . S
C79 C83 1.389 1_565 S
C80 C78 1.397 . S
C80 C81 1.389 . S
C80 H103 0.930 . S
C81 C80 1.389 . S
C81 C82 1.372 1_565 S
C81 C84 1.478 . S
C82 C81 1.372 1_545 S
C82 C83 1.389 . S
C82 H104 0.929 . S
C83 C79 1.389 1_545 S
C83 C82 1.389 . S
C83 H105 0.931 . S
C84 C81 1.478 . S
C84 C85 1.392 . S
C84 C89 1.390 1_556 S
C85 C84 1.392 . S
C85 C86 1.399 1_556 S
C85 H106 0.930 . S
C86 C85 1.399 1_554 S
C86 C87 1.376 . S
C86 C95 1.516 . S
C87 C86 1.376 . S
C87 C88 1.387 . S
C87 H108 0.938 . S
C88 C87 1.387 . S
C88 C89 1.362 . S
C88 C90 1.499 1_565 S
C89 C84 1.390 1_554 S
C89 C88 1.362 . S
C89 H107 0.930 . S
C90 C88 1.499 1_545 S
C90 C91 1.360 1_545 S
C90 C92 1.376 . S
C91 C90 1.360 1_565 S
C91 C101 1.386 . S
C91 H109 0.931 . S
C92 C90 1.376 . S
C92 C93 1.409 . S
C92 H110 0.929 . S
C93 C92 1.409 . S
C93 C94 1.379 . S
C93 H111 0.930 . S
C94 C93 1.379 . S
C94 C101 1.358 1_545 S
C95 C86 1.516 . S
C95 C96 1.341 1_554 S
C95 C97 1.371 1_565 S
C96 C95 1.341 1_556 S
C96 C100 1.394 . S
C96 H112 0.930 . S
C97 C95 1.371 1_545 S
C97 C98 1.392 . S
C97 H113 0.931 . S
C98 C97 1.392 . S
C98 C99 1.322 1_544 S
C98 H116 0.932 . S
C99 C98 1.322 1_566 S
C99 C100 1.343 . S
C100 C96 1.394 . S
C100 C99 1.343 . S
C100 H115 0.929 . S
C101 C91 1.386 . S
C101 C94 1.358 1_565 S
C101 H114 0.928 . S
H102 C78 0.931 . S
H103 C80 0.930 . S
H104 C82 0.929 . S
H105 C83 0.931 . S
H106 C85 0.930 . S
H107 C89 0.930 . S
H108 C87 0.938 . S
H109 C91 0.931 . S
H110 C92 0.929 . S
H111 C93 0.930 . S
H112 C96 0.930 . S
H113 C97 0.931 . S
H114 C101 0.928 . S
H115 C100 0.929 . S
H116 C98 0.932 . S
C117 C118 1.386 . S
C117 C119 1.397 . S
C117 H141 0.931 . S
C118 C117 1.386 . S
C118 C122 1.397 . S
C119 C117 1.397 . S
C119 C120 1.384 . S
C119 H142 0.930 . S
C120 C119 1.384 . S
C120 C121 1.377 . S
C120 C123 1.481 . S
C121 C120 1.377 . S
C121 C122 1.389 . S
C121 H143 0.929 . S
C122 C118 1.397 . S
C122 C121 1.389 . S
C122 H144 0.931 . S
C123 C120 1.481 . S
C123 C124 1.387 . S
C123 C128 1.390 . S
C124 C123 1.387 . S
C124 C125 1.401 . S
C124 H145 0.930 . S
C125 C124 1.401 . S
C125 C126 1.376 1_554 S
C125 C134 1.511 . S
C126 C125 1.376 1_556 S
C126 C127 1.392 1_556 S
C126 H147 0.931 . S
C127 C126 1.392 1_554 S
C127 C128 1.361 . S
C127 C129 1.500 1_554 S
C128 C123 1.390 . S
C128 C127 1.361 . S
C128 H146 0.931 . S
C129 C127 1.500 1_556 S
C129 C130 1.371 . S
C129 C131 1.365 . S
C130 C129 1.371 . S
C130 C140 1.386 . S
C130 H148 0.931 . S
C131 C129 1.365 . S
C131 C132 1.409 . S
C131 H149 0.929 1_556 S
C132 C131 1.409 . S
C132 C133 1.380 . S
C132 H150 0.930 . S
C133 C132 1.380 . S
C133 C140 1.357 . S
C134 C125 1.511 . S
C134 C135 1.341 . S
C134 C136 1.371 1_554 S
C135 C134 1.341 . S
C135 C139 1.394 . S
C135 H151 0.930 . S
C136 C134 1.371 1_556 S
C136 C137 1.392 . S
C136 H152 0.931 . S
C137 C136 1.392 . S
C137 C138 1.331 1_556 S
C137 H155 0.932 . S
C138 C137 1.331 1_554 S
C138 C139 1.336 . S
C139 C135 1.394 . S
C139 C138 1.336 . S
C139 H154 0.929 . S
C140 C130 1.386 . S
C140 C133 1.357 . S
C140 H153 0.928 . S
H141 C117 0.931 . S
H142 C119 0.930 . S
H143 C121 0.929 . S
H144 C122 0.931 . S
H145 C124 0.930 . S
H146 C128 0.931 . S
H147 C126 0.931 . S
H148 C130 0.931 . S
H149 C131 0.929 1_554 S
H150 C132 0.930 . S
H151 C135 0.930 . S
H152 C136 0.931 . S
H153 C140 0.928 . S
H154 C139 0.929 . S
H155 C137 0.932 . S
C156 C157 1.386 . S
C156 C158 1.397 . S
C156 H180 0.931 . S
C157 C156 1.386 . S
C157 C161 1.397 . S
C158 C156 1.397 . S
C158 C159 1.384 . S
C158 H181 0.930 . S
C159 C158 1.384 . S
C159 C160 1.377 . S
C159 C162 1.481 . S
C160 C159 1.377 . S
C160 C161 1.389 . S
C160 H182 0.929 . S
C161 C157 1.397 . S
C161 C160 1.389 . S
C161 H183 0.931 . S
C162 C159 1.481 . S
C162 C163 1.387 . S
C162 C167 1.390 . S
C163 C162 1.387 . S
C163 C164 1.401 . S
C163 H184 0.930 . S
C164 C163 1.401 . S
C164 C165 1.376 . S
C164 C173 1.511 . S
C165 C164 1.376 . S
C165 C166 1.392 . S
C165 H186 0.931 . S
C166 C165 1.392 . S
C166 C167 1.361 . S
C166 C168 1.500 1_554 S
C167 C162 1.390 . S
C167 C166 1.361 . S
C167 H185 0.931 . S
C168 C166 1.500 1_556 S
C168 C169 1.371 . S
C168 C170 1.365 . S
C169 C168 1.371 . S
C169 C179 1.386 . S
C169 H187 0.931 . S
C170 C168 1.365 . S
C170 C171 1.409 . S
C170 H188 0.929 . S
C171 C170 1.409 . S
C171 C172 1.380 . S
C171 H189 0.930 . S
C172 C171 1.380 . S
C172 C179 1.357 . S
C173 C164 1.511 . S
C173 C174 1.341 . S
C173 C175 1.371 . S
C174 C173 1.341 . S
C174 C178 1.394 . S
C174 H190 0.930 . S
C175 C173 1.371 . S
C175 C176 1.392 . S
C175 H191 0.931 . S
C176 C175 1.392 . S
C176 C177 1.331 . S
C176 H194 0.932 . S
C177 C176 1.331 . S
C177 C178 1.336 . S
C178 C174 1.394 . S
C178 C177 1.336 . S
C178 H193 0.929 . S
C179 C169 1.386 . S
C179 C172 1.357 . S
C179 H192 0.928 . S
H180 C156 0.931 . S
H181 C158 0.930 . S
H182 C160 0.929 . S
H183 C161 0.931 . S
H184 C163 0.930 . S
H185 C167 0.931 . S
H186 C165 0.931 . S
H187 C169 0.931 . S
H188 C170 0.929 . S
H189 C171 0.930 . S
H190 C174 0.930 . S
H191 C175 0.931 . S
H192 C179 0.928 . S
H193 C178 0.929 . S
H194 C176 0.932 . S
C195 C196 1.386 . S
C195 C197 1.397 . S
C195 H219 0.931 . S
C196 C195 1.386 . S
C196 C200 1.397 . S
C197 C195 1.397 . S
C197 C198 1.384 . S
C197 H220 0.930 . S
C198 C197 1.384 . S
C198 C199 1.377 . S
C198 C201 1.481 . S
C199 C198 1.377 . S
C199 C200 1.389 . S
C199 H221 0.929 . S
C200 C196 1.397 . S
C200 C199 1.389 . S
C200 H222 0.931 . S
C201 C198 1.481 . S
C201 C202 1.387 . S
C201 C206 1.390 . S
C202 C201 1.387 . S
C202 C203 1.401 . S
C202 H223 0.930 . S
C203 C202 1.401 . S
C203 C204 1.376 . S
C203 C212 1.511 . S
C204 C203 1.376 . S
C204 C205 1.392 . S
C204 H225 0.931 . S
C205 C204 1.392 . S
C205 C206 1.361 . S
C205 C207 1.500 1_554 S
C206 C201 1.390 . S
C206 C205 1.361 . S
C206 H224 0.931 . S
C207 C205 1.500 1_556 S
C207 C208 1.371 . S
C207 C209 1.365 . S
C208 C207 1.371 . S
C208 C218 1.386 . S
C208 H226 0.931 . S
C209 C207 1.365 . S
C209 C210 1.409 . S
C209 H227 0.929 . S
C210 C209 1.409 . S
C210 C211 1.380 . S
C210 H228 0.930 . S
C211 C210 1.380 . S
C211 C218 1.357 . S
C212 C203 1.511 . S
C212 C213 1.341 . S
C212 C214 1.371 . S
C213 C212 1.341 . S
C213 C217 1.394 . S
C213 H229 0.930 . S
C214 C212 1.371 . S
C214 C215 1.392 . S
C214 H230 0.931 . S
C215 C214 1.392 . S
C215 C216 1.331 . S
C215 H233 0.932 . S
C216 C215 1.331 . S
C216 C217 1.336 . S
C217 C213 1.394 . S
C217 C216 1.336 . S
C217 H232 0.929 . S
C218 C208 1.386 . S
C218 C211 1.357 . S
C218 H231 0.928 . S
H219 C195 0.931 . S
H220 C197 0.930 . S
H221 C199 0.929 . S
H222 C200 0.931 . S
H223 C202 0.930 . S
H224 C206 0.931 . S
H225 C204 0.931 . S
H226 C208 0.931 . S
H227 C209 0.929 . S
H228 C210 0.930 . S
H229 C213 0.930 . S
H230 C214 0.931 . S
H231 C218 0.928 . S
H232 C217 0.929 . S
H233 C215 0.932 . S
C234 C235 1.387 . S
C234 C236 1.397 . S
C234 H258 0.931 . S
C235 C234 1.387 . S
C235 C239 1.396 1_565 S
C236 C234 1.397 . S
C236 C237 1.382 . S
C236 H259 0.930 . S
C237 C236 1.382 . S
C237 C238 1.379 1_565 S
C237 C240 1.483 . S
C238 C237 1.379 1_545 S
C238 C239 1.389 . S
C238 H260 0.929 . S
C239 C235 1.396 1_545 S
C239 C238 1.389 . S
C239 H261 0.931 . S
C240 C237 1.483 . S
C240 C241 1.386 . S
C240 C245 1.390 . S
C241 C240 1.386 . S
C241 C242 1.404 . S
C241 H262 0.930 . S
C242 C241 1.404 . S
C242 C243 1.376 . S
C242 C251 1.510 . S
C243 C242 1.376 . S
C243 C244 1.395 1_565 S
C243 H264 0.930 1_554 S
C244 C243 1.395 1_545 S
C244 C245 1.361 1_545 S
C244 C246 1.500 1_554 S
C245 C240 1.390 . S
C245 C244 1.361 1_565 S
C245 H263 0.932 . S
C246 C244 1.500 1_556 S
C246 C247 1.359 1_545 S
C246 C248 1.378 . S
C247 C246 1.359 1_565 S
C247 C257 1.386 . S
C247 H265 0.931 . S
C248 C246 1.378 . S
C248 C249 1.409 . S
C248 H266 0.929 . S
C249 C248 1.409 . S
C249 C250 1.384 . S
C249 H267 0.930 . S
C250 C249 1.384 . S
C250 C257 1.354 1_545 S
C251 C242 1.510 . S
C251 C252 1.341 . S
C251 C253 1.371 1_565 S
C252 C251 1.341 . S
C252 C256 1.394 . S
C252 H268 0.930 . S
C253 C251 1.371 1_545 S
C253 C254 1.392 . S
C253 H269 0.931 . S
C254 C253 1.392 . S
C254 C255 1.326 1_545 S
C254 H272 0.932 . S
C255 C254 1.326 1_565 S
C255 C256 1.343 . S
C256 C252 1.394 . S
C256 C255 1.343 . S
C256 H271 0.929 . S
C257 C247 1.386 . S
C257 C250 1.354 1_565 S
C257 H270 0.928 . S
H258 C234 0.931 . S
H259 C236 0.930 . S
H260 C238 0.929 . S
H261 C239 0.931 . S
H262 C241 0.930 . S
H263 C245 0.932 . S
H264 C243 0.930 1_556 S
H265 C247 0.931 . S
H266 C248 0.929 . S
H267 C249 0.930 . S
H268 C252 0.930 . S
H269 C253 0.931 . S
H270 C257 0.928 . S
H271 C256 0.929 . S
H272 C254 0.932 . S
C273 C274 1.386 . S
C273 C275 1.397 . S
C273 H297 0.931 . S
C274 C273 1.386 . S
C274 C278 1.397 . S
C275 C273 1.397 . S
C275 C276 1.384 . S
C275 H298 0.930 . S
C276 C275 1.384 . S
C276 C277 1.377 . S
C276 C279 1.481 . S
C277 C276 1.377 . S
C277 C278 1.389 . S
C277 H299 0.929 . S
C278 C274 1.397 . S
C278 C277 1.389 . S
C278 H300 0.931 . S
C279 C276 1.481 . S
C279 C280 1.387 1_556 S
C279 C284 1.390 1_556 S
C280 C279 1.387 1_554 S
C280 C281 1.401 . S
C280 H301 0.930 1_554 S
C281 C280 1.401 . S
C281 C282 1.376 . S
C281 C290 1.511 . S
C282 C281 1.376 . S
C282 C283 1.392 . S
C282 H303 0.931 . S
C283 C282 1.392 . S
C283 C284 1.361 . S
C283 C285 1.500 . S
C284 C279 1.390 1_554 S
C284 C283 1.361 . S
C284 H302 0.931 . S
C285 C283 1.500 . S
C285 C286 1.371 . S
C285 C287 1.365 . S
C286 C285 1.371 . S
C286 C296 1.386 . S
C286 H304 0.931 . S
C287 C285 1.365 . S
C287 C288 1.409 . S
C287 H305 0.929 . S
C288 C287 1.409 . S
C288 C289 1.380 . S
C288 H306 0.930 . S
C289 C288 1.380 . S
C289 C296 1.357 . S
C290 C281 1.511 . S
C290 C291 1.341 . S
C290 C292 1.371 . S
C291 C290 1.341 . S
C291 C295 1.394 . S
C291 H307 0.930 . S
C292 C290 1.371 . S
C292 C293 1.392 . S
C292 H308 0.931 . S
C293 C292 1.392 . S
C293 C294 1.331 . S
C293 H311 0.932 . S
C294 C293 1.331 . S
C294 C295 1.336 . S
C295 C291 1.394 . S
C295 C294 1.336 . S
C295 H310 0.929 . S
C296 C286 1.386 . S
C296 C289 1.357 . S
C296 H309 0.928 . S
H297 C273 0.931 . S
H298 C275 0.930 . S
H299 C277 0.929 . S
H300 C278 0.931 . S
H301 C280 0.930 1_556 S
H302 C284 0.931 . S
H303 C282 0.931 . S
H304 C286 0.931 . S
H305 C287 0.929 . S
H306 C288 0.930 . S
H307 C291 0.930 . S
H308 C292 0.931 . S
H309 C296 0.928 . S
H310 C295 0.929 . S
H311 C293 0.932 . S
Dy312 O316 2.398 . S
Dy312 O317 2.491 1_455 S
Dy312 O318 2.403 . S
Dy312 O319 2.664 1_565 S
Dy312 O323 2.326 . S
Dy312 O327 2.310 1_455 S
Dy312 O328 2.351 1_565 S
C313 O324 1.185 1_455 S
C313 O325 1.355 . S
C314 O316 1.185 . S
C314 O317 1.355 1_455 S
Dy315 O319 2.310 1_655 S
Dy315 O322 2.351 1_545 S
Dy315 O324 2.398 . S
Dy315 O325 2.491 1_655 S
Dy315 O326 2.403 . S
Dy315 O327 2.664 1_545 S
Dy315 O329 2.326 1_655 S
O316 Dy312 2.398 . S
O316 C314 1.185 . S
O317 Dy312 2.491 1_655 S
O317 C314 1.355 1_655 S
O318 Dy312 2.403 . S
O318 C320 1.254 . S
O319 Dy312 2.664 1_545 S
O319 Dy315 2.310 1_455 S
O319 C320 1.268 1_545 S
C320 O318 1.254 . S
C320 O319 1.268 1_565 S
C321 O326 1.254 . S
C321 O327 1.268 1_545 S
O322 Dy315 2.351 1_565 S
O322 C330 1.249 . S
O323 Dy312 2.326 . S
O323 C330 1.267 1_455 S
O324 C313 1.185 1_655 S
O324 Dy315 2.398 . S
O325 C313 1.355 . S
O325 Dy315 2.491 1_455 S
O326 Dy315 2.403 . S
O326 C321 1.254 . S
O327 Dy312 2.310 1_655 S
O327 Dy315 2.664 1_565 S
O327 C321 1.268 1_565 S
O328 Dy312 2.351 1_545 S
O328 C331 1.249 . S
O329 Dy315 2.326 1_455 S
O329 C331 1.267 . S
C330 O322 1.249 . S
C330 O323 1.267 1_655 S
C331 O328 1.249 . S
C331 O329 1.267 . S
Dy332 O336 2.398 . S
Dy332 O337 2.491 . S
Dy332 O338 2.403 . S
Dy332 O339 2.664 . S
Dy332 O343 2.326 1_565 S
Dy332 O347 2.310 1_565 S
Dy332 O348 2.351 . S
C333 O344 1.185 . S
C333 O345 1.355 . S
C334 O336 1.185 . S
C334 O337 1.355 . S
Dy335 O339 2.310 1_545 S
Dy335 O342 2.351 . S
Dy335 O344 2.398 . S
Dy335 O345 2.491 . S
Dy335 O346 2.403 . S
Dy335 O347 2.664 . S
Dy335 O349 2.326 1_545 S
O336 Dy332 2.398 . S
O336 C334 1.185 . S
O337 Dy332 2.491 . S
O337 C334 1.355 . S
O338 Dy332 2.403 . S
O338 C340 1.254 . S
O339 Dy332 2.664 . S
O339 Dy335 2.310 1_565 S
O339 C340 1.268 . S
C340 O338 1.254 . S
C340 O339 1.268 . S
C341 O346 1.254 . S
C341 O347 1.268 . S
O342 Dy335 2.351 . S
O342 C350 1.249 . S
O343 Dy332 2.326 1_545 S
O343 C350 1.267 . S
O344 C333 1.185 . S
O344 Dy335 2.398 . S
O345 C333 1.355 . S
O345 Dy335 2.491 . S
O346 Dy335 2.403 . S
O346 C341 1.254 . S
O347 Dy332 2.310 1_545 S
O347 Dy335 2.664 . S
O347 C341 1.268 . S
O348 Dy332 2.351 . S
O348 C351 1.249 . S
O349 Dy335 2.326 1_565 S
O349 C351 1.267 . S
C350 O342 1.249 . S
C350 O343 1.267 . S
C351 O348 1.249 . S
C351 O349 1.267 . S
Dy352 O356 2.398 . S
Dy352 O357 2.491 . S
Dy352 O358 2.403 . S
Dy352 O359 2.664 . S
Dy352 O363 2.326 . S
Dy352 O367 2.310 . S
Dy352 O368 2.351 . S
C353 O364 1.185 . S
C353 O365 1.355 . S
C354 O356 1.185 . S
C354 O357 1.355 . S
Dy355 O359 2.310 . S
Dy355 O362 2.351 . S
Dy355 O364 2.398 . S
Dy355 O365 2.491 . S
Dy355 O366 2.403 . S
Dy355 O367 2.664 . S
Dy355 O369 2.326 . S
O356 Dy352 2.398 . S
O356 C354 1.185 . S
O357 Dy352 2.491 . S
O357 C354 1.355 . S
O358 Dy352 2.403 . S
O358 C360 1.254 . S
O359 Dy352 2.664 . S
O359 Dy355 2.310 . S
O359 C360 1.268 . S
C360 O358 1.254 . S
C360 O359 1.268 . S
C361 O366 1.254 . S
C361 O367 1.268 . S
O362 Dy355 2.351 . S
O362 C370 1.249 . S
O363 Dy352 2.326 . S
O363 C370 1.267 . S
O364 C353 1.185 . S
O364 Dy355 2.398 . S
O365 C353 1.355 . S
O365 Dy355 2.491 . S
O366 Dy355 2.403 . S
O366 C361 1.254 . S
O367 Dy352 2.310 . S
O367 Dy355 2.664 . S
O367 C361 1.268 . S
O368 Dy352 2.351 . S
O368 C371 1.249 . S
O369 Dy355 2.326 . S
O369 C371 1.267 . S
C370 O362 1.249 . S
C370 O363 1.267 . S
C371 O368 1.249 . S
C371 O369 1.267 . S
Dy372 O376 2.398 . S
Dy372 O377 2.491 . S
Dy372 O378 2.403 1_655 S
Dy372 O379 2.664 1_655 S
Dy372 O383 2.326 . S
Dy372 O387 2.310 . S
Dy372 O388 2.351 1_655 S
C373 O384 1.185 . S
C373 O385 1.355 . S
C374 O376 1.185 . S
C374 O377 1.355 . S
Dy375 O379 2.310 . S
Dy375 O382 2.351 1_455 S
Dy375 O384 2.398 . S
Dy375 O385 2.491 . S
Dy375 O386 2.403 . S
Dy375 O387 2.664 1_455 S
Dy375 O389 2.326 . S
O376 Dy372 2.398 . S
O376 C374 1.185 . S
O377 Dy372 2.491 . S
O377 C374 1.355 . S
O378 Dy372 2.403 1_455 S
O378 C380 1.254 . S
O379 Dy372 2.664 1_455 S
O379 Dy375 2.310 . S
O379 C380 1.268 . S
C380 O378 1.254 . S
C380 O379 1.268 . S
C381 O386 1.254 1_655 S
C381 O387 1.268 . S
O382 Dy375 2.351 1_655 S
O382 C390 1.249 . S
O383 Dy372 2.326 . S
O383 C390 1.267 . S
O384 C373 1.185 . S
O384 Dy375 2.398 . S
O385 C373 1.355 . S
O385 Dy375 2.491 . S
O386 Dy375 2.403 . S
O386 C381 1.254 1_455 S
O387 Dy372 2.310 . S
O387 Dy375 2.664 1_655 S
O387 C381 1.268 . S
O388 Dy372 2.351 1_455 S
O388 C391 1.249 . S
O389 Dy375 2.326 . S
O389 C391 1.267 . S
C390 O382 1.249 . S
C390 O383 1.267 . S
C391 O388 1.249 . S
C391 O389 1.267 . S
H392 C400 0.950 . S
H393 C405 0.950 . S
H394 C402 0.950 . S
H395 C404 0.950 . S
H396 C406 0.950 . S
H397 C408 0.950 . S
H398 C410 0.950 . S
H399 C411 0.950 . S
C400 H392 0.950 . S
C400 C401 1.386 1_545 S
C400 C402 1.391 . S
C401 C400 1.386 1_565 S
C401 C405 1.393 . S
C402 H394 0.950 . S
C402 C400 1.391 . S
C402 C403 1.400 1_545 S
C403 C402 1.400 1_565 S
C403 C404 1.398 . S
C403 C409 1.491 . S
C404 H395 0.950 . S
C404 C403 1.398 . S
C404 C405 1.391 . S
C405 H393 0.950 . S
C405 C401 1.393 . S
C405 C404 1.391 . S
C406 H396 0.950 . S
C406 C407 1.386 . S
C406 C408 1.391 . S
C407 C406 1.386 . S
C407 C411 1.393 1_565 S
C408 H397 0.950 . S
C408 C406 1.391 . S
C408 C409 1.400 . S
C409 C403 1.491 . S
C409 C408 1.400 . S
C409 C410 1.398 1_565 S
C410 H398 0.950 . S
C410 C409 1.398 1_545 S
C410 C411 1.391 . S
C411 H399 0.950 . S
C411 C407 1.393 1_545 S
C411 C410 1.391 . S
H412 C420 0.950 . S
H413 C425 0.950 . S
H414 C422 0.950 . S
H415 C424 0.950 . S
H416 C426 0.950 . S
H417 C428 0.950 . S
H418 C430 0.950 . S
H419 C431 0.950 . S
C420 H412 0.950 . S
C420 C421 1.386 . S
C420 C422 1.391 . S
C421 C420 1.386 . S
C421 C425 1.393 . S
C422 H414 0.950 . S
C422 C420 1.391 . S
C422 C423 1.400 . S
C423 C422 1.400 . S
C423 C424 1.398 . S
C423 C429 1.491 . S
C424 H415 0.950 . S
C424 C423 1.398 . S
C424 C425 1.391 . S
C425 H413 0.950 . S
C425 C421 1.393 . S
C425 C424 1.391 . S
C426 H416 0.950 . S
C426 C427 1.386 . S
C426 C428 1.391 . S
C427 C426 1.386 . S
C427 C431 1.393 . S
C428 H417 0.950 . S
C428 C426 1.391 . S
C428 C429 1.400 . S
C429 C423 1.491 . S
C429 C428 1.400 . S
C429 C430 1.398 . S
C430 H418 0.950 . S
C430 C429 1.398 . S
C430 C431 1.391 . S
C431 H419 0.950 . S
C431 C427 1.393 . S
C431 C430 1.391 . S
H432 C440 0.950 . S
H433 C445 0.950 . S
H434 C442 0.950 . S
H435 C444 0.950 . S
H436 C446 0.950 . S
H437 C448 0.950 . S
H438 C450 0.950 . S
H439 C451 0.950 . S
C440 H432 0.950 . S
C440 C441 1.386 . S
C440 C442 1.391 . S
C441 C440 1.386 . S
C441 C445 1.393 . S
C442 H434 0.950 . S
C442 C440 1.391 . S
C442 C443 1.400 . S
C443 C442 1.400 . S
C443 C444 1.398 . S
C443 C449 1.491 . S
C444 H435 0.950 . S
C444 C443 1.398 . S
C444 C445 1.391 . S
C445 H433 0.950 . S
C445 C441 1.393 . S
C445 C444 1.391 . S
C446 H436 0.950 . S
C446 C447 1.386 . S
C446 C448 1.391 . S
C447 C446 1.386 . S
C447 C451 1.393 . S
C448 H437 0.950 . S
C448 C446 1.391 . S
C448 C449 1.400 . S
C449 C443 1.491 . S
C449 C448 1.400 . S
C449 C450 1.398 . S
C450 H438 0.950 . S
C450 C449 1.398 . S
C450 C451 1.391 . S
C451 H439 0.950 . S
C451 C447 1.393 . S
C451 C450 1.391 . S
H452 C460 0.950 . S
H453 C465 0.950 . S
H454 C462 0.950 . S
H455 C464 0.950 . S
H456 C466 0.950 . S
H457 C468 0.950 . S
H458 C470 0.950 . S
H459 C471 0.950 . S
C460 H452 0.950 . S
C460 C461 1.386 . S
C460 C462 1.391 . S
C461 C460 1.386 . S
C461 C465 1.393 . S
C462 H454 0.950 . S
C462 C460 1.391 . S
C462 C463 1.400 . S
C463 C462 1.400 . S
C463 C464 1.398 . S
C463 C469 1.491 . S
C464 H455 0.950 . S
C464 C463 1.398 . S
C464 C465 1.391 . S
C465 H453 0.950 . S
C465 C461 1.393 . S
C465 C464 1.391 . S
C466 H456 0.950 . S
C466 C467 1.386 . S
C466 C468 1.391 . S
C467 C466 1.386 . S
C467 C471 1.393 . S
C468 H457 0.950 . S
C468 C466 1.391 . S
C468 C469 1.400 . S
C469 C463 1.491 . S
C469 C468 1.400 . S
C469 C470 1.398 . S
C470 H458 0.950 . S
C470 C469 1.398 . S
C470 C471 1.391 . S
C471 H459 0.950 . S
C471 C467 1.393 . S
C471 C470 1.391 . S
H472 C480 0.952 1_565 S
H473 C485 0.950 . S
H474 C482 0.951 . S
H475 C484 0.950 . S
H476 C486 0.950 . S
H477 C488 0.950 . S
H478 C490 0.950 1_565 S
H479 C491 0.950 . S
C480 H472 0.952 1_545 S
C480 C481 1.385 . S
C480 C482 1.392 . S
C481 C480 1.385 . S
C481 C485 1.393 . S
C482 H474 0.951 . S
C482 C480 1.392 . S
C482 C483 1.399 . S
C483 C482 1.399 . S
C483 C484 1.398 . S
C483 C489 1.491 . S
C484 H475 0.950 . S
C484 C483 1.398 . S
C484 C485 1.391 . S
C485 H473 0.950 . S
C485 C481 1.393 . S
C485 C484 1.391 . S
C486 H476 0.950 . S
C486 C487 1.386 . S
C486 C488 1.391 . S
C487 C486 1.386 . S
C487 C491 1.393 . S
C488 H477 0.950 . S
C488 C486 1.391 . S
C488 C489 1.400 . S
C489 C483 1.491 . S
C489 C488 1.400 . S
C489 C490 1.399 . S
C490 H478 0.950 1_545 S
C490 C489 1.399 . S
C490 C491 1.390 . S
C491 H479 0.950 . S
C491 C487 1.393 . S
C491 C490 1.390 . S
H492 C500 0.950 . S
H493 C505 0.950 . S
H494 C502 0.950 . S
H495 C504 0.950 . S
H496 C506 0.950 . S
H497 C508 0.950 . S
H498 C510 0.950 . S
H499 C511 0.950 . S
C500 H492 0.950 . S
C500 C501 1.386 . S
C500 C502 1.391 . S
C501 C500 1.386 . S
C501 C505 1.393 . S
C502 H494 0.950 . S
C502 C500 1.391 . S
C502 C503 1.400 . S
C503 C502 1.400 . S
C503 C504 1.398 . S
C503 C509 1.491 . S
C504 H495 0.950 . S
C504 C503 1.398 . S
C504 C505 1.391 . S
C505 H493 0.950 . S
C505 C501 1.393 . S
C505 C504 1.391 . S
C506 H496 0.950 . S
C506 C507 1.386 . S
C506 C508 1.391 . S
C507 C506 1.386 . S
C507 C511 1.393 . S
C508 H497 0.950 . S
C508 C506 1.391 . S
C508 C509 1.400 . S
C509 C503 1.491 . S
C509 C508 1.400 . S
C509 C510 1.398 . S
C510 H498 0.950 . S
C510 C509 1.398 . S
C510 C511 1.391 . S
C511 H499 0.950 . S
C511 C507 1.393 . S
C511 C510 1.391 . S
H512 C520 0.950 . S
H513 C525 0.950 . S
H514 C522 0.950 . S
H515 C524 0.950 . S
H516 C526 0.950 . S
H517 C528 0.950 . S
H518 C530 0.950 . S
H519 C531 0.950 . S
C520 H512 0.950 . S
C520 C521 1.386 . S
C520 C522 1.391 . S
C521 C520 1.386 . S
C521 C525 1.393 . S
C522 H514 0.950 . S
C522 C520 1.391 . S
C522 C523 1.400 . S
C523 C522 1.400 . S
C523 C524 1.398 . S
C523 C529 1.491 . S
C524 H515 0.950 . S
C524 C523 1.398 . S
C524 C525 1.391 . S
C525 H513 0.950 . S
C525 C521 1.393 . S
C525 C524 1.391 . S
C526 H516 0.950 . S
C526 C527 1.386 . S
C526 C528 1.391 . S
C527 C526 1.386 . S
C527 C531 1.393 . S
C528 H517 0.950 . S
C528 C526 1.391 . S
C528 C529 1.400 . S
C529 C523 1.491 . S
C529 C528 1.400 . S
C529 C530 1.398 . S
C530 H518 0.950 . S
C530 C529 1.398 . S
C530 C531 1.391 . S
C531 H519 0.950 . S
C531 C527 1.393 . S
C531 C530 1.391 . S
H532 C540 0.950 . S
H533 C545 0.950 . S
H534 C542 0.950 . S
H535 C544 0.950 . S
H536 C546 0.950 . S
H537 C548 0.950 . S
H538 C550 0.950 . S
H539 C551 0.950 . S
C540 H532 0.950 . S
C540 C541 1.386 . S
C540 C542 1.391 . S
C541 C540 1.386 . S
C541 C545 1.393 . S
C542 H534 0.950 . S
C542 C540 1.391 . S
C542 C543 1.400 . S
C543 C542 1.400 . S
C543 C544 1.398 . S
C543 C549 1.491 . S
C544 H535 0.950 . S
C544 C543 1.398 . S
C544 C545 1.391 . S
C545 H533 0.950 . S
C545 C541 1.393 . S
C545 C544 1.391 . S
C546 H536 0.950 . S
C546 C547 1.386 . S
C546 C548 1.391 . S
C547 C546 1.386 . S
C547 C551 1.393 . S
C548 H537 0.950 . S
C548 C546 1.391 . S
C548 C549 1.400 . S
C549 C543 1.491 . S
C549 C548 1.400 . S
C549 C550 1.398 . S
C550 H538 0.950 . S
C550 C549 1.398 . S
C550 C551 1.391 . S
C551 H539 0.950 . S
C551 C547 1.393 . S
C551 C550 1.391 . S
H552 C560 0.950 . S
H553 C565 0.950 . S
H554 C562 0.950 . S
H555 C564 0.950 . S
H556 C566 0.950 . S
H557 C568 0.950 . S
H558 C570 0.950 . S
H559 C571 0.950 1_655 S
C560 H552 0.950 . S
C560 C561 1.386 . S
C560 C562 1.391 . S
C561 C560 1.386 . S
C561 C565 1.393 . S
C562 H554 0.950 . S
C562 C560 1.391 . S
C562 C563 1.400 . S
C563 C562 1.400 . S
C563 C564 1.398 . S
C563 C569 1.491 . S
C564 H555 0.950 . S
C564 C563 1.398 . S
C564 C565 1.391 . S
C565 H553 0.950 . S
C565 C561 1.393 . S
C565 C564 1.391 . S
C566 H556 0.950 . S
C566 C567 1.386 . S
C566 C568 1.391 . S
C567 C566 1.386 . S
C567 C571 1.393 . S
C568 H557 0.950 . S
C568 C566 1.391 . S
C568 C569 1.400 . S
C569 C563 1.491 . S
C569 C568 1.400 . S
C569 C570 1.398 . S
C570 H558 0.950 . S
C570 C569 1.398 . S
C570 C571 1.391 . S
C571 H559 0.950 1_455 S
C571 C567 1.393 . S
C571 C570 1.391 . S
H572 C580 0.950 . S
H573 C585 0.950 . S
H574 C582 0.950 . S
H575 C584 0.950 . S
H576 C586 0.940 1_545 S
H577 C588 0.950 . S
H578 C590 0.950 . S
H579 C591 0.950 . S
C580 H572 0.950 . S
C580 C581 1.386 1_565 S
C580 C582 1.391 . S
C581 C580 1.386 1_545 S
C581 C585 1.393 . S
C582 H574 0.950 . S
C582 C580 1.391 . S
C582 C583 1.400 . S
C583 C582 1.400 . S
C583 C584 1.398 1_565 S
C583 C589 1.491 . S
C584 H575 0.950 . S
C584 C583 1.398 1_545 S
C584 C585 1.391 . S
C585 H573 0.950 . S
C585 C581 1.393 . S
C585 C584 1.391 . S
C586 H576 0.940 1_565 S
C586 C587 1.402 . S
C586 C588 1.385 1_565 S
C587 C586 1.402 . S
C587 C591 1.393 . S
C588 H577 0.950 . S
C588 C586 1.385 1_545 S
C588 C589 1.400 1_545 S
C589 C583 1.491 . S
C589 C588 1.400 1_565 S
C589 C590 1.398 . S
C590 H578 0.950 . S
C590 C589 1.398 . S
C590 C591 1.391 . S
C591 H579 0.950 . S
C591 C587 1.393 . S
C591 C590 1.391 . S
H592 C600 0.950 . S
H593 C605 0.950 . S
H594 C602 0.950 . S
H595 C604 0.950 . S
H596 C606 0.950 . S
H597 C608 0.950 . S
H598 C610 0.950 . S
H599 C611 0.950 . S
C600 H592 0.950 . S
C600 C601 1.386 . S
C600 C602 1.391 . S
C601 C600 1.386 . S
C601 C605 1.393 . S
C602 H594 0.950 . S
C602 C600 1.391 . S
C602 C603 1.400 . S
C603 C602 1.400 . S
C603 C604 1.398 . S
C603 C609 1.491 . S
C604 H595 0.950 . S
C604 C603 1.398 . S
C604 C605 1.391 . S
C605 H593 0.950 . S
C605 C601 1.393 . S
C605 C604 1.391 . S
C606 H596 0.950 . S
C606 C607 1.386 . S
C606 C608 1.391 . S
C607 C606 1.386 . S
C607 C611 1.393 . S
C608 H597 0.950 . S
C608 C606 1.391 . S
C608 C609 1.400 . S
C609 C603 1.491 . S
C609 C608 1.400 . S
C609 C610 1.398 . S
C610 H598 0.950 . S
C610 C609 1.398 . S
C610 C611 1.391 . S
C611 H599 0.950 . S
C611 C607 1.393 . S
C611 C610 1.391 . S
H612 C620 0.950 . S
H613 C625 0.950 . S
H614 C622 0.950 . S
H615 C624 0.950 . S
H616 C626 0.950 . S
H617 C628 0.950 . S
H618 C630 0.950 . S
H619 C631 0.950 . S
C620 H612 0.950 . S
C620 C621 1.386 . S
C620 C622 1.391 . S
C621 C620 1.386 . S
C621 C625 1.393 . S
C622 H614 0.950 . S
C622 C620 1.391 . S
C622 C623 1.400 . S
C623 C622 1.400 . S
C623 C624 1.398 . S
C623 C629 1.491 . S
C624 H615 0.950 . S
C624 C623 1.398 . S
C624 C625 1.391 . S
C625 H613 0.950 . S
C625 C621 1.393 . S
C625 C624 1.391 . S
C626 H616 0.950 . S
C626 C627 1.386 . S
C626 C628 1.391 . S
C627 C626 1.386 . S
C627 C631 1.393 . S
C628 H617 0.950 . S
C628 C626 1.391 . S
C628 C629 1.400 . S
C629 C623 1.491 . S
C629 C628 1.400 . S
C629 C630 1.398 . S
C630 H618 0.950 . S
C630 C629 1.398 . S
C630 C631 1.391 . S
C631 H619 0.950 . S
C631 C627 1.393 . S
C631 C630 1.391 . S
H632 C640 0.950 . S
H633 C645 0.950 . S
H634 C642 0.950 . S
H635 C644 0.950 . S
H636 C646 0.950 . S
H637 C648 0.950 . S
H638 C650 0.950 . S
H639 C651 0.950 . S
C640 H632 0.950 . S
C640 C641 1.386 . S
C640 C642 1.391 . S
C641 C640 1.386 . S
C641 C645 1.393 . S
C642 H634 0.950 . S
C642 C640 1.391 . S
C642 C643 1.400 . S
C643 C642 1.400 . S
C643 C644 1.398 . S
C643 C649 1.491 . S
C644 H635 0.950 . S
C644 C643 1.398 . S
C644 C645 1.391 . S
C645 H633 0.950 . S
C645 C641 1.393 . S
C645 C644 1.391 . S
C646 H636 0.950 . S
C646 C647 1.377 1_455 S
C646 C648 1.391 1_455 S
C647 C646 1.377 1_655 S
C647 C651 1.422 . S
C648 H637 0.950 . S
C648 C646 1.391 1_655 S
C648 C649 1.400 . S
C649 C643 1.491 . S
C649 C648 1.400 . S
C649 C650 1.398 . S
C650 H638 0.950 . S
C650 C649 1.398 . S
C650 C651 1.391 . S
C651 H639 0.950 . S
C651 C647 1.422 . S
C651 C650 1.391 . S
H652 C660 0.950 . S
H653 C665 0.950 . S
H654 C662 0.950 . S
H655 C664 0.950 . S
H656 C666 0.950 . S
H657 C668 0.950 . S
H658 C670 0.950 . S
H659 C671 0.950 . S
C660 H652 0.950 . S
C660 C661 1.386 . S
C660 C662 1.391 . S
C661 C660 1.386 . S
C661 C665 1.393 1_565 S
C662 H654 0.950 . S
C662 C660 1.391 . S
C662 C663 1.400 1_565 S
C663 C662 1.400 1_545 S
C663 C664 1.398 . S
C663 C669 1.491 . S
C664 H655 0.950 . S
C664 C663 1.398 . S
C664 C665 1.391 . S
C665 H653 0.950 . S
C665 C661 1.393 1_545 S
C665 C664 1.391 . S
C666 H656 0.950 . S
C666 C667 1.386 . S
C666 C668 1.391 . S
C667 C666 1.386 . S
C667 C671 1.393 1_545 S
C668 H657 0.950 . S
C668 C666 1.391 . S
C668 C669 1.400 . S
C669 C663 1.491 . S
C669 C668 1.400 . S
C669 C670 1.398 1_545 S
C670 H658 0.950 . S
C670 C669 1.398 1_565 S
C670 C671 1.391 . S
C671 H659 0.950 . S
C671 C667 1.393 1_565 S
C671 C670 1.391 . S
H672 C680 0.950 . S
H673 C685 0.950 . S
H674 C682 0.950 . S
H675 C684 0.950 . S
H676 C686 0.950 . S
H677 C688 0.950 . S
H678 C690 0.950 . S
H679 C691 0.950 . S
C680 H672 0.950 . S
C680 C681 1.386 . S
C680 C682 1.391 . S
C681 C680 1.386 . S
C681 C685 1.393 . S
C682 H674 0.950 . S
C682 C680 1.391 . S
C682 C683 1.400 . S
C683 C682 1.400 . S
C683 C684 1.398 . S
C683 C689 1.491 . S
C684 H675 0.950 . S
C684 C683 1.398 . S
C684 C685 1.391 . S
C685 H673 0.950 . S
C685 C681 1.393 . S
C685 C684 1.391 . S
C686 H676 0.950 . S
C686 C687 1.386 . S
C686 C688 1.391 . S
C687 C686 1.386 . S
C687 C691 1.393 . S
C688 H677 0.950 . S
C688 C686 1.391 . S
C688 C689 1.400 . S
C689 C683 1.491 . S
C689 C688 1.400 . S
C689 C690 1.398 . S
C690 H678 0.950 . S
C690 C689 1.398 . S
C690 C691 1.391 . S
C691 H679 0.950 . S
C691 C687 1.393 . S
C691 C690 1.391 . S
H692 C700 0.950 . S
H693 C705 0.950 . S
H694 C702 0.950 . S
H695 C704 0.950 . S
H696 C706 0.950 . S
H697 C708 0.950 . S
H698 C710 0.950 . S
H699 C711 0.950 . S
C700 H692 0.950 . S
C700 C701 1.386 . S
C700 C702 1.391 . S
C701 C700 1.386 . S
C701 C705 1.393 . S
C702 H694 0.950 . S
C702 C700 1.391 . S
C702 C703 1.400 . S
C703 C702 1.400 . S
C703 C704 1.398 . S
C703 C709 1.491 . S
C704 H695 0.950 . S
C704 C703 1.398 . S
C704 C705 1.391 . S
C705 H693 0.950 . S
C705 C701 1.393 . S
C705 C704 1.391 . S
C706 H696 0.950 . S
C706 C707 1.386 . S
C706 C708 1.391 . S
C707 C706 1.386 . S
C707 C711 1.393 . S
C708 H697 0.950 . S
C708 C706 1.391 . S
C708 C709 1.400 . S
C709 C703 1.491 . S
C709 C708 1.400 . S
C709 C710 1.398 . S
C710 H698 0.950 . S
C710 C709 1.398 . S
C710 C711 1.391 . S
C711 H699 0.950 . S
C711 C707 1.393 . S
C711 C710 1.391 . S
H712 C720 0.950 . S
H713 C725 0.950 . S
H714 C722 0.950 . S
H715 C724 0.950 . S
H716 C726 0.950 . S
H717 C728 0.950 . S
H718 C730 0.950 . S
H719 C731 0.950 . S
C720 H712 0.950 . S
C720 C721 1.386 . S
C720 C722 1.391 . S
C721 C720 1.386 . S
C721 C725 1.393 . S
C722 H714 0.950 . S
C722 C720 1.391 . S
C722 C723 1.400 . S
C723 C722 1.400 . S
C723 C724 1.398 . S
C723 C729 1.491 . S
C724 H715 0.950 . S
C724 C723 1.398 . S
C724 C725 1.391 . S
C725 H713 0.950 . S
C725 C721 1.393 . S
C725 C724 1.391 . S
C726 H716 0.950 . S
C726 C727 1.386 . S
C726 C728 1.391 . S
C727 C726 1.386 . S
C727 C731 1.393 . S
C728 H717 0.950 . S
C728 C726 1.391 . S
C728 C729 1.400 . S
C729 C723 1.491 . S
C729 C728 1.400 . S
C729 C730 1.398 . S
C730 H718 0.950 . S
C730 C729 1.398 . S
C730 C731 1.391 . S
C731 H719 0.950 . S
C731 C727 1.393 . S
C731 C730 1.391 . S
H732 C740 0.950 . S
H733 C745 0.950 . S
H734 C742 0.950 . S
H735 C744 0.950 . S
H736 C746 0.950 . S
H737 C748 0.950 . S
H738 C750 0.950 . S
H739 C751 0.950 . S
C740 H732 0.950 . S
C740 C741 1.389 . S
C740 C742 1.391 . S
C741 C740 1.389 . S
C741 C745 1.390 1_545 S
C742 H734 0.950 . S
C742 C740 1.391 . S
C742 C743 1.400 . S
C743 C742 1.400 . S
C743 C744 1.398 1_545 S
C743 C749 1.491 . S
C744 H735 0.950 . S
C744 C743 1.398 1_565 S
C744 C745 1.391 . S
C745 H733 0.950 . S
C745 C741 1.390 1_565 S
C745 C744 1.391 . S
C746 H736 0.950 . S
C746 C747 1.386 1_565 S
C746 C748 1.391 . S
C747 C746 1.386 1_545 S
C747 C751 1.393 . S
C748 H737 0.950 . S
C748 C746 1.391 . S
C748 C749 1.400 1_565 S
C749 C743 1.491 . S
C749 C748 1.400 1_545 S
C749 C750 1.398 . S
C750 H738 0.950 . S
C750 C749 1.398 . S
C750 C751 1.391 . S
C751 H739 0.950 . S
C751 C747 1.393 . S
C751 C750 1.391 . S
H752 C760 0.950 . S
H753 C765 0.950 . S
H754 C762 0.950 . S
H755 C764 0.950 . S
H756 C766 0.950 . S
H757 C768 0.950 . S
H758 C770 0.950 . S
H759 C771 0.950 . S
C760 H752 0.950 . S
C760 C761 1.386 . S
C760 C762 1.391 . S
C761 C760 1.386 . S
C761 C765 1.393 . S
C762 H754 0.950 . S
C762 C760 1.391 . S
C762 C763 1.400 . S
C763 C762 1.400 . S
C763 C764 1.398 . S
C763 C769 1.491 . S
C764 H755 0.950 . S
C764 C763 1.398 . S
C764 C765 1.391 . S
C765 H753 0.950 . S
C765 C761 1.393 . S
C765 C764 1.391 . S
C766 H756 0.950 . S
C766 C767 1.386 . S
C766 C768 1.391 . S
C767 C766 1.386 . S
C767 C771 1.393 . S
C768 H757 0.950 . S
C768 C766 1.391 . S
C768 C769 1.400 . S
C769 C763 1.491 . S
C769 C768 1.400 . S
C769 C770 1.398 . S
C770 H758 0.950 . S
C770 C769 1.398 . S
C770 C771 1.391 . S
C771 H759 0.950 . S
C771 C767 1.393 . S
C771 C770 1.391 . S
H772 C780 0.950 . S
H773 C785 0.950 . S
H774 C782 0.950 . S
H775 C784 0.950 . S
H776 C786 0.950 . S
H777 C788 0.950 . S
H778 C790 0.950 . S
H779 C791 0.950 . S
C780 H772 0.950 . S
C780 C781 1.386 . S
C780 C782 1.391 . S
C781 C780 1.386 . S
C781 C785 1.393 . S
C782 H774 0.950 . S
C782 C780 1.391 . S
C782 C783 1.400 . S
C783 C782 1.400 . S
C783 C784 1.398 . S
C783 C789 1.491 . S
C784 H775 0.950 . S
C784 C783 1.398 . S
C784 C785 1.391 . S
C785 H773 0.950 . S
C785 C781 1.393 . S
C785 C784 1.391 . S
C786 H776 0.950 . S
C786 C787 1.386 . S
C786 C788 1.391 . S
C787 C786 1.386 . S
C787 C791 1.393 . S
C788 H777 0.950 . S
C788 C786 1.391 . S
C788 C789 1.400 . S
C789 C783 1.491 . S
C789 C788 1.400 . S
C789 C790 1.398 . S
C790 H778 0.950 . S
C790 C789 1.398 . S
C790 C791 1.391 . S
C791 H779 0.950 . S
C791 C787 1.393 . S
C791 C790 1.391 . S
H792 C800 0.950 . S
H793 C805 0.950 . S
H794 C802 0.950 . S
H795 C804 0.950 . S
H796 C806 0.950 . S
H797 C808 0.950 . S
H798 C810 0.950 . S
H799 C811 0.950 . S
C800 H792 0.950 . S
C800 C801 1.386 . S
C800 C802 1.391 . S
C801 C800 1.386 . S
C801 C805 1.393 . S
C802 H794 0.950 . S
C802 C800 1.391 . S
C802 C803 1.400 . S
C803 C802 1.400 . S
C803 C804 1.398 . S
C803 C809 1.491 . S
C804 H795 0.950 . S
C804 C803 1.398 . S
C804 C805 1.391 . S
C805 H793 0.950 . S
C805 C801 1.393 . S
C805 C804 1.391 . S
C806 H796 0.950 . S
C806 C807 1.386 . S
C806 C808 1.391 . S
C807 C806 1.386 . S
C807 C811 1.393 . S
C808 H797 0.950 . S
C808 C806 1.391 . S
C808 C809 1.400 . S
C809 C803 1.491 . S
C809 C808 1.400 . S
C809 C810 1.398 . S
C810 H798 0.950 . S
C810 C809 1.398 . S
C810 C811 1.391 . S
C811 H799 0.950 . S
C811 C807 1.393 . S
C811 C810 1.391 . S
H812 C820 0.950 . S
H813 C825 0.950 . S
H814 C822 0.950 . S
H815 C824 0.950 . S
H816 C826 0.950 . S
H817 C828 0.950 . S
H818 C830 0.950 . S
H819 C831 0.950 . S
C820 H812 0.950 . S
C820 C821 1.376 1_545 S
C820 C822 1.391 . S
C821 C820 1.376 1_565 S
C821 C825 1.401 . S
C822 H814 0.950 . S
C822 C820 1.391 . S
C822 C823 1.400 1_545 S
C823 C822 1.400 1_565 S
C823 C824 1.398 . S
C823 C829 1.491 . S
C824 H815 0.950 . S
C824 C823 1.398 . S
C824 C825 1.391 . S
C825 H813 0.950 . S
C825 C821 1.401 . S
C825 C824 1.391 . S
C826 H816 0.950 . S
C826 C827 1.386 . S
C826 C828 1.391 . S
C827 C826 1.386 . S
C827 C831 1.393 1_565 S
C828 H817 0.950 . S
C828 C826 1.391 . S
C828 C829 1.400 . S
C829 C823 1.491 . S
C829 C828 1.400 . S
C829 C830 1.398 1_565 S
C830 H818 0.950 . S
C830 C829 1.398 1_545 S
C830 C831 1.391 . S
C831 H819 0.950 . S
C831 C827 1.393 1_545 S
C831 C830 1.391 . S
H832 C840 0.950 . S
H833 C845 0.950 . S
H834 C842 0.950 . S
H835 C844 0.950 . S
H836 C846 0.950 . S
H837 C848 0.950 . S
H838 C850 0.950 . S
H839 C851 0.950 . S
C840 H832 0.950 . S
C840 C841 1.386 . S
C840 C842 1.391 . S
C841 C840 1.386 . S
C841 C845 1.393 . S
C842 H834 0.950 . S
C842 C840 1.391 . S
C842 C843 1.400 . S
C843 C842 1.400 . S
C843 C844 1.398 . S
C843 C849 1.491 . S
C844 H835 0.950 . S
C844 C843 1.398 . S
C844 C845 1.391 . S
C845 H833 0.950 . S
C845 C841 1.393 . S
C845 C844 1.391 . S
C846 H836 0.950 . S
C846 C847 1.386 . S
C846 C848 1.391 . S
C847 C846 1.386 . S
C847 C851 1.393 . S
C848 H837 0.950 . S
C848 C846 1.391 . S
C848 C849 1.400 . S
C849 C843 1.491 . S
C849 C848 1.400 . S
C849 C850 1.398 . S
C850 H838 0.950 . S
C850 C849 1.398 . S
C850 C851 1.391 . S
C851 H839 0.950 . S
C851 C847 1.393 . S
C851 C850 1.391 . S
H852 C860 0.950 . S
H853 C865 0.950 . S
H854 C862 0.950 . S
H855 C864 0.950 . S
H856 C866 0.950 . S
H857 C868 0.950 . S
H858 C870 0.950 . S
H859 C871 0.950 . S
C860 H852 0.950 . S
C860 C861 1.386 . S
C860 C862 1.391 . S
C861 C860 1.386 . S
C861 C865 1.393 . S
C862 H854 0.950 . S
C862 C860 1.391 . S
C862 C863 1.400 . S
C863 C862 1.400 . S
C863 C864 1.398 . S
C863 C869 1.491 . S
C864 H855 0.950 . S
C864 C863 1.398 . S
C864 C865 1.391 . S
C865 H853 0.950 . S
C865 C861 1.393 . S
C865 C864 1.391 . S
C866 H856 0.950 . S
C866 C867 1.386 . S
C866 C868 1.391 . S
C867 C866 1.386 . S
C867 C871 1.393 . S
C868 H857 0.950 . S
C868 C866 1.391 . S
C868 C869 1.400 . S
C869 C863 1.491 . S
C869 C868 1.400 . S
C869 C870 1.398 . S
C870 H858 0.950 . S
C870 C869 1.398 . S
C870 C871 1.391 . S
C871 H859 0.950 . S
C871 C867 1.393 . S
C871 C870 1.391 . S
C401 C255 1.715 . S
C407 C320 1.788 . S
C427 C350 2.405 . S
C421 C294 2.283 . S
C447 C360 1.871 . S
C441 C177 1.810 . S
C467 C380 1.768 . S
C461 C216 1.642 . S
C487 C321 1.788 . S
C481 C99 1.714 1_545 S
C501 C138 2.272 1_556 S
C507 C351 2.409 . S
C521 C21 1.791 . S
C527 C361 1.877 . S
C541 C60 1.656 . S
C547 C381 1.768 . S
C567 C313 0.804 . S
C561 C196 0.782 . S
C587 C334 0.276 . S
C581 C235 0.371 1_545 S
C607 C353 1.078 . S
C601 C289 1.006 . S
C621 C157 0.540 . S
C627 C373 0.538 . S
C641 C40 0.750 . S
C647 C314 0.775 1_655 S
C667 C333 0.262 . S
C661 C79 0.347 . S
C687 C354 1.075 . S
C681 C133 1.009 . S
C701 C1 0.575 . S
C707 C374 0.541 . S
C721 C211 2.256 . S
C727 C331 2.477 . S
C741 C250 1.763 . S
C747 C341 1.994 . S
C767 C371 2.681 . S
C761 C274 2.446 . S
C787 C391 2.549 . S
C781 C172 2.349 . S
C801 C55 2.249 . S
C807 C330 2.484 . S
C827 C340 1.995 . S
C821 C94 1.761 1_565 S
C847 C370 2.687 . S
C841 C118 2.439 . S
C861 C16 2.351 . S
C867 C390 2.550 . S
