# Generated by pormake.
# Topology rtl, (3,6)-cn, num edge types: 1
# Building blocks:
#     Node 0, Type 0, BuildingBlock: QEWDON_clean_linker_0, # of connection points: 3
#     Node 1, Type 0, BuildingBlock: QEWDON_clean_linker_0, # of connection points: 3
#     Node 2, Type 0, BuildingBlock: QEWDON_clean_linker_0, # of connection points: 3
#     Node 3, Type 0, BuildingBlock: QEWDON_clean_linker_0, # of connection points: 3
#     Node 4, Type 1, BuildingBlock: FUNLAD_clean_sbu_0, # of connection points: 6
#     Node 5, Type 1, BuildingBlock: FUNLAD_clean_sbu_0, # of connection points: 6
#     Edge 6, Type (0, 1), BuildingBlock: XUDNAN_clean_linker_2, # of connection points: 2
#     Edge 7, Type (0, 1), BuildingBlock: XUDNAN_clean_linker_2, # of connection points: 2
#     Edge 8, Type (0, 1), BuildingBlock: XUDNAN_clean_linker_2, # of connection points: 2
#     Edge 9, Type (0, 1), BuildingBlock: XUDNAN_clean_linker_2, # of connection points: 2
#     Edge 10, Type (0, 1), BuildingBlock: XUDNAN_clean_linker_2, # of connection points: 2
#     Edge 11, Type (0, 1), BuildingBlock: XUDNAN_clean_linker_2, # of connection points: 2
#     Edge 12, Type (0, 1), BuildingBlock: XUDNAN_clean_linker_2, # of connection points: 2
#     Edge 13, Type (0, 1), BuildingBlock: XUDNAN_clean_linker_2, # of connection points: 2
#     Edge 14, Type (0, 1), BuildingBlock: XUDNAN_clean_linker_2, # of connection points: 2
#     Edge 15, Type (0, 1), BuildingBlock: XUDNAN_clean_linker_2, # of connection points: 2
#     Edge 16, Type (0, 1), BuildingBlock: XUDNAN_clean_linker_2, # of connection points: 2
#     Edge 17, Type (0, 1), BuildingBlock: XUDNAN_clean_linker_2, # of connection points: 2
# Relax obj value: 0.015
# Max RMSD: 0.094
# Mean RMSD: 0.077
data_MOF--net-rtl--node1-FUNLAD_clean_sbu_0--node2-QEWDON_clean_linker_0--edge1-XUDNAN_clean_linker_2
_symmetry_space_group_name_H-M    P1
_symmetry_Int_Tables_number       1
_symmetry_cell_setting            triclinic
loop_
_symmetry_equiv_pos_as_xyz
'x, y, z'
_cell_length_a     42.09648
_cell_length_b     42.204285
_cell_length_c     20.528201
_cell_angle_alpha  91.546542
_cell_angle_beta   92.592861
_cell_angle_gamma 89.783798
loop_
_atom_site_label
_atom_site_type_symbol
_atom_site_fract_x
_atom_site_fract_y
_atom_site_fract_z
_atom_type_partial_charge
H0 H 0.2062 0.86115 0.10456 0.0
C1 C 0.19669 0.86738 0.05661 0.0
C2 C 0.16714 0.88278 0.05021 0.0
C3 C 0.21476 0.86165 0.00156 0.0
H4 H 0.13288 0.90421 0.98381 0.0
C5 C 0.1557 0.89225 0.98862 0.0
C6 C 0.17315 0.88603 0.93312 0.0
C7 C 0.20266 0.87052 0.93974 0.0
C8 C 0.24815 0.8512 0.00993 0.0
H9 H 0.2168 0.86662 0.89738 0.0
C10 C 0.25679 0.81898 0.00521 0.0
C11 C 0.28906 0.80989 0.01268 0.0
C12 C 0.2717 0.87424 0.02232 0.0
H13 H 0.26538 0.89912 0.02604 0.0
C14 C 0.30354 0.86542 0.03 0.0
H15 H 0.23855 0.80124 0.99515 0.0
C16 C 0.31221 0.83355 0.02533 0.0
H17 H 0.33709 0.8274 0.03271 0.0
H18 H 0.32157 0.88334 0.03988 0.0
H19 H 0.69939 0.67777 0.46077 0.0
C20 C 0.69006 0.67172 0.5072 0.0
C21 C 0.65985 0.65794 0.50904 0.0
C22 C 0.70918 0.67531 0.56471 0.0
H23 H 0.62577 0.63647 0.56875 0.0
C24 C 0.64855 0.64838 0.56855 0.0
C25 C 0.66728 0.652 0.6266 0.0
C26 C 0.69761 0.6657 0.62417 0.0
C27 C 0.74298 0.68405 0.56154 0.0
H28 H 0.71277 0.66801 0.66815 0.0
C29 C 0.75237 0.71552 0.55243 0.0
C30 C 0.78495 0.72319 0.55084 0.0
C31 C 0.76614 0.66026 0.56861 0.0
H32 H 0.75926 0.63592 0.57575 0.0
C33 C 0.79829 0.66763 0.56639 0.0
H34 H 0.73444 0.73387 0.54703 0.0
C35 C 0.8077 0.69882 0.55773 0.0
H36 H 0.8329 0.70394 0.55792 0.0
H37 H 0.81602 0.64915 0.57203 0.0
H38 H 0.8136 0.17695 0.07403 0.0
C39 C 0.82925 0.17216 0.03441 0.0
C40 C 0.85792 0.15543 0.04621 0.0
C41 C 0.82028 0.18164 0.97087 0.0
H42 H 0.89873 0.13418 0.0017 0.0
C43 C 0.87726 0.14813 0.99385 0.0
C44 C 0.86876 0.15773 0.93085 0.0
C45 C 0.84065 0.1749 0.91975 0.0
C46 C 0.78872 0.19621 0.95556 0.0
H47 H 0.83407 0.18202 0.87058 0.0
C48 C 0.77726 0.22225 0.99227 0.0
C49 C 0.74838 0.23702 0.9729 0.0
C50 C 0.77024 0.18442 0.90146 0.0
H51 H 0.77813 0.16408 0.87312 0.0
C52 C 0.74144 0.19866 0.88312 0.0
H53 H 0.79124 0.2317 0.03393 0.0
C54 C 0.73067 0.22496 0.91817 0.0
H55 H 0.70826 0.23577 0.90287 0.0
H56 H 0.7275 0.18941 0.84131 0.0
H57 H 0.36379 0.31977 0.6189 0.0
C58 C 0.36433 0.3329 0.57426 0.0
C59 C 0.37957 0.36244 0.57461 0.0
C60 C 0.35156 0.31911 0.51606 0.0
H61 H 0.39539 0.40002 0.51545 0.0
C62 C 0.38165 0.37836 0.51574 0.0
C63 C 0.36936 0.36468 0.45652 0.0
C64 C 0.35335 0.3354 0.45773 0.0
C65 C 0.34309 0.28515 0.51427 0.0
H66 H 0.34431 0.32407 0.41268 0.0
C67 C 0.31157 0.2747 0.50251 0.0
C68 C 0.30452 0.24197 0.50186 0.0
C69 C 0.36751 0.26286 0.52437 0.0
H70 H 0.39192 0.27051 0.5332 0.0
C71 C 0.36081 0.23058 0.52229 0.0
H72 H 0.2927 0.29198 0.49564 0.0
C73 C 0.32965 0.22015 0.511 0.0
H74 H 0.32531 0.19486 0.50889 0.0
H75 H 0.37986 0.21355 0.52939 0.0
C76 C 0.03732 0.97808 0.38878 0.0
N77 N 0.06357 0.06706 0.47116 0.0
C78 C 0.09471 0.05836 0.47034 0.0
C79 C 0.11842 0.08129 0.46724 0.0
C80 C 0.11006 0.11351 0.46454 0.0
C81 C 0.0777 0.12176 0.46415 0.0
C82 C 0.05476 0.09807 0.46779 0.0
Zn83 Zn 0.0295 0.03297 0.48071 0.0
C84 C 0.97098 0.04458 0.39811 0.0
N85 N 0.95843 0.96195 0.50323 0.0
C86 C 0.96662 0.93074 0.50441 0.0
C87 C 0.92763 0.97127 0.50839 0.0
C88 C 0.90369 0.94886 0.51487 0.0
C89 C 0.91142 0.91645 0.51653 0.0
C90 C 0.94347 0.90756 0.51126 0.0
Zn91 Zn 0.99286 0.99565 0.49316 0.0
O92 O 0.04932 1.00473 0.40632 0.0
C93 C 0.0507 0.9835 0.57581 0.0
O94 O 0.01266 0.96839 0.41583 0.0
H95 H 0.92156 0.99617 0.5073 0.0
H96 H 0.10123 0.0336 0.47273 0.0
H97 H 0.99122 0.92378 0.50027 0.0
O98 O 0.05937 0.00959 0.55259 0.0
O99 O 0.02362 0.97207 0.55906 0.0
H100 H 0.0299 0.10454 0.46885 0.0
O101 O 0.97424 0.02364 0.5712 0.0
O102 O 1.00916 0.06072 0.55431 0.0
O103 O 0.96244 0.01974 0.42617 0.0
O104 O 0.99889 0.05536 0.40997 0.0
C105 C 0.98576 0.05097 0.58503 0.0
H106 H 0.14306 0.07384 0.46677 0.0
H107 H 0.07023 0.14633 0.46272 0.0
H108 H 0.87934 0.95691 0.51781 0.0
H109 H 0.95075 0.88296 0.51336 0.0
C110 C 0.4887 0.47729 0.94313 0.0
N111 N 0.56804 0.46296 0.07058 0.0
C112 C 0.55944 0.43208 0.07582 0.0
C113 C 0.58256 0.40844 0.08295 0.0
C114 C 0.6148 0.41654 0.08312 0.0
C115 C 0.62318 0.44844 0.07772 0.0
C116 C 0.59927 0.47147 0.0723 0.0
Zn117 Zn 0.53296 0.49662 0.05587 0.0
C118 C 0.55248 0.54529 0.96321 0.0
N119 N 0.45925 0.56569 0.02129 0.0
C120 C 0.42833 0.55666 0.01203 0.0
C121 C 0.46736 0.5969 0.02439 0.0
C122 C 0.44396 0.62039 0.01959 0.0
C123 C 0.41174 0.61184 0.01132 0.0
C124 C 0.40413 0.5794 0.00684 0.0
Zn125 Zn 0.49429 0.53215 0.03578 0.0
O126 O 0.51352 0.46925 0.97632 0.0
C127 C 0.47544 0.48238 0.12788 0.0
O128 O 0.47503 0.50345 0.95664 0.0
H129 H 0.49204 0.60364 0.03202 0.0
H130 H 0.53459 0.42558 0.07332 0.0
H131 H 0.42235 0.53174 0.00967 0.0
O132 O 0.50339 0.47287 0.11729 0.0
O133 O 0.46496 0.50761 0.10183 0.0
H134 H 0.60573 0.4961 0.06842 0.0
O135 O 0.5146 0.5601 0.11464 0.0
O136 O 0.55176 0.52463 0.13539 0.0
O137 O 0.52433 0.55562 0.97019 0.0
O138 O 0.5618 0.52086 0.9934 0.0
C139 C 0.53907 0.55135 0.14818 0.0
H140 H 0.57533 0.38394 0.08623 0.0
H141 H 0.64791 0.45541 0.07754 0.0
H142 H 0.45104 0.64501 0.02432 0.0
H143 H 0.37971 0.57163 -0.00039 0.0
H144 H 0.27719 0.19287 0.56349 0.0
H145 H 0.25676 0.26357 0.41763 0.0
H146 H 0.20328 0.24033 0.396 0.0
H147 H 0.24184 0.12883 0.47446 0.0
H148 H 0.22687 0.1102 0.54482 0.0
H149 H 0.26198 0.13442 0.55329 0.0
H150 H 0.23575 0.16929 0.64192 0.0
H151 H 0.20059 0.14505 0.63399 0.0
H152 H 0.19755 0.18727 0.62393 0.0
H153 H 0.15294 0.20672 0.38601 0.0
H154 H 0.11071 0.16615 0.3886 0.0
H155 H 0.16583 0.11692 0.53837 0.0
C156 C 0.26154 0.20359 0.52696 0.0
C157 C 0.27132 0.23003 0.49206 0.0
C158 C 0.24975 0.24356 0.44554 0.0
C159 C 0.21938 0.23039 0.43268 0.0
C160 C 0.21093 0.20378 0.46687 0.0
C161 C 0.23143 0.19065 0.51323 0.0
C162 C 0.21748 0.16125 0.54122 0.0
C163 C 0.23828 0.13195 0.5276 0.0
C164 C 0.21254 0.16602 0.61462 0.0
C165 C 0.18607 0.15945 0.50261 0.0
C166 C 0.1825 0.18433 0.46041 0.0
C167 C 0.15546 0.18728 0.41917 0.0
C168 C 0.13157 0.16418 0.42109 0.0
C169 C 0.13502 0.13831 0.46351 0.0
C170 C 0.16264 0.13618 0.50487 0.0
H171 H 0.34084 0.7847 0.95317 0.0
H172 H 0.2605 0.75857 0.06531 0.0
H173 H 0.28078 0.70351 0.06941 0.0
H174 H 0.34783 0.7091 0.86071 0.0
H175 H 0.39065 0.71075 0.86417 0.0
H176 H 0.36772 0.7469 0.86375 0.0
H177 H 0.39771 0.7659 0.9707 0.0
H178 H 0.42055 0.7298 0.9717 0.0
H179 H 0.39794 0.74124 0.04107 0.0
H180 H 0.31303 0.6526 0.07057 0.0
H181 H 0.35356 0.61023 0.06703 0.0
H182 H 0.41261 0.67002 0.95366 0.0
C183 C 0.32729 0.76735 0.97809 0.0
C184 C 0.29905 0.776 0.00899 0.0
C185 C 0.28195 0.75246 0.04056 0.0
C186 C 0.29339 0.72115 0.04339 0.0
C187 C 0.3218 0.7137 0.01393 0.0
C188 C 0.33836 0.73612 0.98139 0.0
C189 C 0.36915 0.72267 0.95686 0.0
C190 C 0.3688 0.72233 0.88192 0.0
C191 C 0.39803 0.74099 0.9869 0.0
C192 C 0.36786 0.6894 0.98229 0.0
C193 C 0.34025 0.68453 0.01451 0.0
C194 C 0.3345 0.65602 0.04458 0.0
C195 C 0.35765 0.632 0.04202 0.0
C196 C 0.38634 0.63661 0.00984 0.0
C197 C 0.39112 0.66568 0.97904 0.0
H198 H 0.83279 0.74485 0.47737 0.0
H199 H 0.76228 0.77663 0.61257 0.0
H200 H 0.78466 0.83073 0.61287 0.0
H201 H 0.89658 0.78735 0.55004 0.0
H202 H 0.91449 0.79665 0.47479 0.0
H203 H 0.89071 0.7615 0.47918 0.0
H204 H 0.85456 0.7799 0.38177 0.0
H205 H 0.87843 0.81502 0.37665 0.0
H206 H 0.83615 0.8185 0.38552 0.0
H207 H 0.81843 0.87996 0.60706 0.0
H208 H 0.85913 0.92073 0.59216 0.0
H209 H 0.90703 0.85667 0.45939 0.0
C210 C 0.8218 0.76326 0.50651 0.0
C211 C 0.79575 0.75648 0.54495 0.0
C212 C 0.78195 0.78132 0.58204 0.0
C213 C 0.79463 0.81209 0.5828 0.0
C214 C 0.82092 0.81769 0.54577 0.0
C215 C 0.83412 0.79401 0.50776 0.0
C216 C 0.86319 0.80569 0.47487 0.0
C217 C 0.89299 0.78667 0.49601 0.0
C218 C 0.85774 0.80473 0.40028 0.0
C219 C 0.86483 0.83944 0.50161 0.0
C220 C 0.84015 0.846 0.54207 0.0
C221 C 0.83755 0.87523 0.57463 0.0
C222 C 0.86077 0.89832 0.56559 0.0
C223 C 0.88634 0.89212 0.52431 0.0
C224 C 0.88805 0.86223 0.4917 0.0
H225 H 0.73323 0.29438 0.92278 0.0
H226 H 0.73422 0.24211 0.10151 0.0
H227 H 0.70424 0.28568 0.15452 0.0
H228 H 0.73968 0.37539 0.00223 0.0
H229 H 0.71377 0.39227 0.93995 0.0
H230 H 0.73899 0.35911 0.92008 0.0
H231 H 0.68964 0.32772 0.87485 0.0
H232 H 0.66425 0.36053 0.89515 0.0
H233 H 0.65681 0.32194 0.92668 0.0
H234 H 0.66638 0.33061 0.18066 0.0
H235 H 0.62837 0.37569 0.18149 0.0
H236 H 0.65491 0.39996 0.98777 0.0
C237 C 0.72791 0.29262 0.97369 0.0
C238 C 0.73607 0.26513 0.00843 0.0
C239 C 0.72848 0.26326 0.0746 0.0
C240 C 0.71138 0.28781 0.10485 0.0
C241 C 0.70269 0.31422 0.06847 0.0
C242 C 0.71131 0.31704 0.00469 0.0
C243 C 0.69753 0.34679 0.97479 0.0
C244 C 0.72408 0.36975 0.95831 0.0
C245 C 0.67577 0.33874 0.91433 0.0
C246 C 0.6787 0.35969 0.03071 0.0
C247 C 0.68199 0.34065 0.08445 0.0
C248 C 0.66432 0.34614 0.13958 0.0
C249 C 0.64277 0.37164 0.13962 0.0
C250 C 0.63937 0.39144 0.08525 0.0
C251 C 0.65784 0.3856 0.03059 0.0
H252 H 0.15306 0.94135 0.09904 0.0
H253 H 0.13857 0.84133 0.12878 0.0
H254 H 0.10243 0.8546 0.21799 0.0
H255 H 0.15402 0.96522 0.27129 0.0
H256 H 0.13423 1.00235 0.25545 0.0
H257 H 0.15898 0.98453 0.19515 0.0
H258 H 0.11176 0.98627 0.10974 0.0
H259 H 0.08676 1.00374 0.16997 0.0
H260 H 0.07472 0.96763 0.12702 0.0
H261 H 0.06499 0.87945 0.29873 0.0
H262 H 0.03455 0.91347 0.37394 0.0
H263 H 0.07653 0.99706 0.29485 0.0
C264 C 0.14249 0.92233 0.12501 0.0
C265 C 0.14839 0.89037 0.10762 0.0
C266 C 0.13433 0.86594 0.14214 0.0
C267 C 0.11371 0.87328 0.1924 0.0
C268 C 0.10791 0.90514 0.20778 0.0
C269 C 0.12238 0.92924 0.17585 0.0
C270 C 0.11275 0.96151 0.20233 0.0
C271 C 0.14172 0.97945 0.23288 0.0
C272 C 0.09547 0.98092 0.14908 0.0
C273 C 0.09029 0.95188 0.25371 0.0
C274 C 0.08749 0.9193 0.2557 0.0
C275 C 0.06724 0.90497 0.298 0.0
C276 C 0.0499 0.92447 0.34018 0.0
C277 C 0.05329 0.95784 0.34027 0.0
C278 C 0.07363 0.9716 0.29613 0.0
H279 H 0.60692 0.65293 0.6737 0.0
H280 H 0.7028 0.61853 0.7163 0.0
H281 H 0.68409 0.59087 0.81134 0.0
H282 H 0.58359 0.66266 0.84416 0.0
H283 H 0.54363 0.64897 0.82535 0.0
H284 H 0.56508 0.66903 0.76465 0.0
H285 H 0.5557 0.62125 0.68428 0.0
H286 H 0.53442 0.60097 0.74475 0.0
H287 H 0.56816 0.58223 0.70858 0.0
H288 H 0.65469 0.56276 0.8943 0.0
H289 H 0.61664 0.5375 0.96395 0.0
H290 H 0.53915 0.58942 0.86864 0.0
C291 C 0.62406 0.63989 0.70348 0.0
C292 C 0.65645 0.63821 0.68773 0.0
C293 C 0.67806 0.62085 0.72802 0.0
C294 C 0.66761 0.60483 0.78192 0.0
C295 C 0.63549 0.60644 0.79514 0.0
C296 C 0.61402 0.6237 0.7575 0.0
C297 C 0.58048 0.62011 0.78048 0.0
C298 C 0.56743 0.6521 0.80513 0.0
C299 C 0.5584 0.60525 0.7263 0.0
C300 C 0.58642 0.59759 0.83604 0.0
C301 C 0.61836 0.59016 0.84364 0.0
C302 C 0.62967 0.56867 0.88939 0.0
C303 C 0.60779 0.55432 0.92851 0.0
C304 C 0.5749 0.56153 0.92187 0.0
C305 C 0.56417 0.58369 0.87529 0.0
H306 H 0.91654 0.15777 0.10919 0.0
H307 H 0.82047 0.12359 0.12823 0.0
H308 H 0.83838 0.0944 0.22622 0.0
H309 H 0.95489 0.08771 0.14566 0.0
H310 H 0.98841 0.10527 0.19072 0.0
H311 H 0.96738 0.12732 0.12854 0.0
H312 H 0.95728 0.17299 0.212 0.0
H313 H 0.97872 0.15128 0.2744 0.0
H314 H 0.93865 0.16452 0.28694 0.0
H315 H 0.86823 0.06313 0.31187 0.0
H316 H 0.90672 0.03576 0.38524 0.0
H317 H 0.98346 0.09072 0.31081 0.0
C318 C 0.89913 0.14474 0.13496 0.0
C319 C 0.86708 0.143 0.11137 0.0
C320 C 0.845 0.12563 0.14609 0.0
C321 C 0.85502 0.10882 0.20149 0.0
C322 C 0.88709 0.10998 0.22182 0.0
C323 C 0.90872 0.12794 0.19025 0.0
C324 C 0.94216 0.12368 0.21925 0.0
C325 C 0.96451 0.11019 0.16798 0.0
C326 C 0.95495 0.15498 0.24999 0.0
C327 C 0.93617 0.09974 0.27084 0.0
C328 C 0.90424 0.09223 0.2717 0.0
C329 C 0.89319 0.06922 0.31238 0.0
C330 C 0.9153 0.05365 0.35356 0.0
C331 C 0.9481 0.06118 0.35393 0.0
C332 C 0.95852 0.08468 0.31216 0.0
H333 H 0.38015 0.42294 0.62894 0.0
H334 H 0.41993 0.32878 0.65392 0.0
H335 H 0.45167 0.34813 0.75061 0.0
H336 H 0.45124 0.4661 0.67527 0.0
H337 H 0.43111 0.49748 0.71832 0.0
H338 H 0.41082 0.47631 0.65146 0.0
H339 H 0.36539 0.46216 0.72651 0.0
H340 H 0.38549 0.48339 0.79355 0.0
H341 H 0.37476 0.44243 0.80182 0.0
H342 H 0.48069 0.37755 0.84089 0.0
H343 H 0.50325 0.4149 0.92465 0.0
H344 H 0.44401 0.49024 0.84476 0.0
C345 C 0.39547 0.40645 0.65505 0.0
C346 C 0.39737 0.37429 0.63436 0.0
C347 C 0.41767 0.35336 0.66963 0.0
C348 C 0.43596 0.36417 0.72431 0.0
C349 C 0.43362 0.39595 0.74338 0.0
C350 C 0.41375 0.4168 0.71032 0.0
C351 C 0.41572 0.44976 0.74166 0.0
C352 C 0.42796 0.47383 0.69382 0.0
C353 C 0.38342 0.46003 0.76742 0.0
C354 C 0.43995 0.44413 0.79713 0.0
C355 C 0.45005 0.41294 0.79677 0.0
C356 C 0.47287 0.40201 0.84198 0.0
C357 C 0.48563 0.42347 0.88923 0.0
C358 C 0.47538 0.45549 0.89135 0.0
C359 C 0.45219 0.46588 0.84459 0.0
H360 H 0.65712 0.60019 0.44893 0.0
H361 H 0.62072 0.69598 0.43548 0.0
H362 H 0.58556 0.67929 0.34026 0.0
H363 H 0.65687 0.58254 0.2734 0.0
H364 H 0.64524 0.54189 0.28245 0.0
H365 H 0.66824 0.56211 0.34689 0.0
H366 H 0.62527 0.54875 0.42838 0.0
H367 H 0.60197 0.52882 0.36408 0.0
H368 H 0.58462 0.56058 0.41114 0.0
H369 H 0.55215 0.65085 0.25129 0.0
H370 H 0.52586 0.61423 0.17003 0.0
H371 H 0.58549 0.53722 0.24102 0.0
C372 C 0.64207 0.61766 0.425 0.0
C373 C 0.64156 0.64933 0.44841 0.0
C374 C 0.62146 0.67168 0.41719 0.0
C375 C 0.60143 0.66236 0.36353 0.0
C376 C 0.60208 0.6307 0.34201 0.0
C377 C 0.62218 0.60879 0.37135 0.0
C378 C 0.61808 0.57618 0.33968 0.0
C379 C 0.64894 0.56504 0.30876 0.0
C380 C 0.60681 0.55218 0.38875 0.0
C381 C 0.5923 0.583 0.28823 0.0
C382 C 0.58326 0.61453 0.29049 0.0
C383 C 0.55922 0.62618 0.24877 0.0
C384 C 0.54431 0.60515 0.20301 0.0
C385 C 0.55365 0.57286 0.1991 0.0
C386 C 0.57791 0.56177 0.24257 0.0
H387 H 0.88187 0.09746 0.88982 0.0
H388 H 0.89883 0.19591 0.84819 0.0
H389 H 0.93201 0.17915 0.75646 0.0
H390 H 0.95901 0.06675 0.85166 0.0
H391 H 0.9436 0.03057 0.81399 0.0
H392 H 0.92229 0.05038 0.87752 0.0
H393 H 0.87181 0.0526 0.80063 0.0
H394 H 0.89294 0.03276 0.73691 0.0
H395 H 0.87405 0.07045 0.72217 0.0
H396 H 0.96434 0.15151 0.67208 0.0
H397 H 0.98992 0.1153 0.59386 0.0
H398 H 0.9488 0.03463 0.68592 0.0
C399 C 0.89278 0.11539 0.86143 0.0
C400 C 0.88827 0.14792 0.8759 0.0
C401 C 0.90227 0.17089 0.8375 0.0
C402 C 0.92113 0.16158 0.78568 0.0
C403 C 0.92524 0.12924 0.77265 0.0
C404 C 0.91115 0.1065 0.8089 0.0
C405 C 0.91819 0.07337 0.78305 0.0
C406 C 0.93689 0.05414 0.83463 0.0
C407 C 0.88741 0.0563 0.75927 0.0
C408 C 0.93857 0.081 0.72668 0.0
C409 C 0.94265 0.11335 0.72209 0.0
C410 C 0.96116 0.12616 0.67493 0.0
C411 C 0.97568 0.10538 0.63092 0.0
C412 C 0.97123 0.07219 0.63376 0.0
C413 C 0.95241 0.05991 0.68234 0.0
H414 H 0.37414 0.42782 0.42387 0.0
H415 H 0.38692 0.33185 0.34712 0.0
H416 H 0.40892 0.35289 0.24877 0.0
H417 H 0.35683 0.46587 0.26296 0.0
H418 H 0.37918 0.5009 0.28733 0.0
H419 H 0.35919 0.4789 0.3474 0.0
H420 H 0.41237 0.47343 0.41467 0.0
H421 H 0.43255 0.49516 0.35477 0.0
H422 H 0.44632 0.45619 0.37643 0.0
H423 H 0.43723 0.38245 0.16827 0.0
H424 H 0.46789 0.41987 0.10593 0.0
H425 H 0.43741 0.49772 0.23057 0.0
C426 C 0.38093 0.41125 0.38575 0.0
C427 C 0.37818 0.37808 0.39329 0.0
C428 C 0.38769 0.3573 0.34226 0.0
C429 C 0.40054 0.36904 0.28611 0.0
C430 C 0.40373 0.40166 0.28119 0.0
C431 C 0.39395 0.4226 0.32914 0.0
C432 C 0.40268 0.45644 0.31382 0.0
C433 C 0.37268 0.47673 0.30218 0.0
C434 C 0.42479 0.47115 0.36815 0.0
C435 C 0.41997 0.45098 0.25115 0.0
C436 C 0.41999 0.41914 0.23322 0.0
C437 C 0.43679 0.40751 0.18082 0.0
C438 C 0.45424 0.42888 0.14598 0.0
C439 C 0.45458 0.46156 0.16315 0.0
C440 C 0.43682 0.47291 0.21571 0.0
H441 H 0.15353 0.94541 0.89952 0.0
H442 H 0.16301 0.84931 0.82288 0.0
H443 H 0.1355 0.86487 0.7193 0.0
H444 H 0.07728 0.96054 0.83392 0.0
H445 H 0.08445 1.00122 0.81453 0.0
H446 H 0.10713 0.98323 0.8802 0.0
H447 H 0.15954 0.99747 0.82645 0.0
H448 H 0.13702 0.01573 0.76069 0.0
H449 H 0.16539 0.9849 0.7432 0.0
H450 H 0.10078 0.88909 0.63139 0.0
H451 H 0.06623 0.92179 0.5591 0.0
H452 H 0.08299 1.00343 0.68846 0.0
C453 C 0.15025 0.92785 0.86035 0.0
C454 C 0.16029 0.89618 0.86874 0.0
C455 C 0.15566 0.87372 0.81686 0.0
C456 C 0.14001 0.88234 0.75814 0.0
C457 C 0.12976 0.91363 0.75188 0.0
C458 C 0.13522 0.9362 0.80108 0.0
C459 C 0.12112 0.96801 0.78257 0.0
C460 C 0.09601 0.97887 0.83066 0.0
C461 C 0.14734 0.993 0.77794 0.0
C462 C 0.10604 0.9596 0.71599 0.0
C463 C 0.11118 0.92805 0.69943 0.0
C464 C 0.09724 0.91398 0.64306 0.0
C465 C 0.07759 0.93263 0.60255 0.0
C466 C 0.07254 0.96506 0.61803 0.0
C467 C 0.08721 0.97882 0.67501 0.0
loop_
_geom_bond_atom_site_label_1
_geom_bond_atom_site_label_2
_geom_bond_distance
_geom_bond_site_symmetry_2
_ccdc_geom_bond_type
H0 C1 0.949 . S
C1 H0 0.949 . S
C1 C2 1.395 . S
C1 C3 1.391 1_554 S
C2 C1 1.395 . S
C2 C5 1.390 . S
C3 C1 1.391 1_556 S
C3 C7 1.387 . S
C3 C8 1.491 . S
H4 C5 0.950 . S
C5 C2 1.390 . S
C5 H4 0.950 . S
C5 C6 1.378 1_554 S
C6 C5 1.378 1_556 S
C6 C7 1.409 . S
C7 C3 1.387 . S
C7 C6 1.409 . S
C7 H9 0.951 . S
C8 C3 1.491 . S
C8 C10 1.382 1_556 S
C8 C12 1.404 . S
H9 C7 0.951 . S
C10 C8 1.382 1_554 S
C10 C11 1.390 . S
C10 H15 0.949 . S
C11 C10 1.390 . S
C11 C16 1.399 1_554 S
C12 C8 1.404 . S
C12 H13 0.950 . S
C12 C14 1.375 . S
H13 C12 0.950 . S
C14 C12 1.375 . S
C14 C16 1.382 . S
C14 H18 0.950 . S
H15 C10 0.949 . S
C16 C11 1.399 1_556 S
C16 C14 1.382 . S
C16 H17 0.952 . S
H17 C16 0.952 . S
H18 C14 0.950 . S
H19 C20 0.949 . S
C20 H19 0.949 . S
C20 C21 1.395 . S
C20 C22 1.391 . S
C21 C20 1.395 . S
C21 C24 1.390 . S
C22 C20 1.391 . S
C22 C26 1.387 . S
C22 C27 1.491 . S
H23 C24 0.950 . S
C24 C21 1.390 . S
C24 H23 0.950 . S
C24 C25 1.378 . S
C25 C24 1.378 . S
C25 C26 1.409 . S
C26 C22 1.387 . S
C26 C25 1.409 . S
C26 H28 0.951 . S
C27 C22 1.491 . S
C27 C29 1.382 . S
C27 C31 1.404 . S
H28 C26 0.951 . S
C29 C27 1.382 . S
C29 C30 1.390 . S
C29 H34 0.949 . S
C30 C29 1.390 . S
C30 C35 1.399 . S
C31 C27 1.404 . S
C31 H32 0.950 . S
C31 C33 1.375 . S
H32 C31 0.950 . S
C33 C31 1.375 . S
C33 C35 1.382 . S
C33 H37 0.950 . S
H34 C29 0.949 . S
C35 C30 1.399 . S
C35 C33 1.382 . S
C35 H36 0.952 . S
H36 C35 0.952 . S
H37 C33 0.950 . S
H38 C39 0.949 . S
C39 H38 0.949 . S
C39 C40 1.395 . S
C39 C41 1.391 1_554 S
C40 C39 1.395 . S
C40 C43 1.390 . S
C41 C39 1.391 1_556 S
C41 C45 1.387 . S
C41 C46 1.491 . S
H42 C43 0.950 . S
C43 C40 1.390 . S
C43 H42 0.950 . S
C43 C44 1.378 1_554 S
C44 C43 1.378 1_556 S
C44 C45 1.409 . S
C45 C41 1.387 . S
C45 C44 1.409 . S
C45 H47 0.951 . S
C46 C41 1.491 . S
C46 C48 1.382 1_556 S
C46 C50 1.404 . S
H47 C45 0.951 . S
C48 C46 1.382 1_554 S
C48 C49 1.390 . S
C48 H53 0.949 . S
C49 C48 1.390 . S
C49 C54 1.399 1_554 S
C50 C46 1.404 . S
C50 H51 0.950 . S
C50 C52 1.375 . S
H51 C50 0.950 . S
C52 C50 1.375 . S
C52 C54 1.382 . S
C52 H56 0.950 . S
H53 C48 0.949 . S
C54 C49 1.399 1_556 S
C54 C52 1.382 . S
C54 H55 0.952 . S
H55 C54 0.952 . S
H56 C52 0.950 . S
H57 C58 0.949 . S
C58 H57 0.949 . S
C58 C59 1.395 . S
C58 C60 1.391 . S
C59 C58 1.395 . S
C59 C62 1.390 . S
C60 C58 1.391 . S
C60 C64 1.387 . S
C60 C65 1.491 . S
H61 C62 0.950 . S
C62 C59 1.390 . S
C62 H61 0.950 . S
C62 C63 1.378 . S
C63 C62 1.378 . S
C63 C64 1.409 . S
C64 C60 1.387 . S
C64 C63 1.409 . S
C64 H66 0.951 . S
C65 C60 1.491 . S
C65 C67 1.382 . S
C65 C69 1.404 . S
H66 C64 0.951 . S
C67 C65 1.382 . S
C67 C68 1.390 . S
C67 H72 0.949 . S
C68 C67 1.390 . S
C68 C73 1.399 . S
C69 C65 1.404 . S
C69 H70 0.950 . S
C69 C71 1.375 . S
H70 C69 0.950 . S
C71 C69 1.375 . S
C71 C73 1.382 . S
C71 H75 0.950 . S
H72 C67 0.949 . S
C73 C68 1.399 . S
C73 C71 1.382 . S
C73 H74 0.952 . S
H74 C73 0.952 . S
H75 C71 0.950 . S
C76 O92 1.235 1_565 S
C76 O94 1.254 . S
N77 C78 1.333 . S
N77 C82 1.307 . S
N77 Zn83 2.020 . S
C78 N77 1.333 . S
C78 C79 1.379 . S
C78 H96 0.952 . S
C79 C78 1.379 . S
C79 C80 1.390 . S
C79 H106 0.949 . S
C80 C79 1.390 . S
C80 C81 1.357 . S
C81 C80 1.357 . S
C81 C82 1.370 . S
C81 H107 0.950 . S
C82 N77 1.307 . S
C82 C81 1.370 . S
C82 H100 0.948 . S
Zn83 N77 2.020 . S
Zn83 O92 2.050 . S
Zn83 O98 2.034 1_545 S
Zn83 O102 2.038 . S
Zn83 O104 2.021 1_455 S
C84 O103 1.246 . S
C84 O104 1.253 . S
N85 C86 1.307 . S
N85 C87 1.333 . S
N85 Zn91 2.020 . S
C86 N85 1.307 . S
C86 C90 1.370 . S
C86 H97 0.948 . S
C87 N85 1.333 . S
C87 C88 1.379 . S
C87 H95 0.952 . S
C88 C87 1.379 . S
C88 C89 1.390 . S
C88 H108 0.949 . S
C89 C88 1.390 . S
C89 C90 1.357 . S
C90 C86 1.370 . S
C90 C89 1.357 . S
C90 H109 0.950 . S
Zn91 N85 2.020 . S
Zn91 O94 2.025 1_655 S
Zn91 O99 2.024 1_655 S
Zn91 O101 2.039 1_565 S
Zn91 O103 2.034 1_565 S
O92 C76 1.235 1_545 S
O92 Zn83 2.050 . S
C93 O98 1.246 . S
C93 O99 1.249 . S
O94 C76 1.254 . S
O94 Zn91 2.025 1_455 S
H95 C87 0.952 . S
H96 C78 0.952 . S
H97 C86 0.948 . S
O98 Zn83 2.034 1_565 S
O98 C93 1.246 . S
O99 Zn91 2.024 1_455 S
O99 C93 1.249 . S
H100 C82 0.948 . S
O101 Zn91 2.039 1_545 S
O101 C105 1.251 . S
O102 Zn83 2.038 . S
O102 C105 1.237 1_455 S
O103 C84 1.246 . S
O103 Zn91 2.034 1_545 S
O104 Zn83 2.021 1_655 S
O104 C84 1.253 . S
C105 O101 1.251 . S
C105 O102 1.237 1_655 S
H106 C79 0.949 . S
H107 C81 0.950 . S
H108 C88 0.949 . S
H109 C90 0.950 . S
C110 O126 1.251 . S
C110 O128 1.254 . S
N111 C112 1.333 . S
N111 C116 1.307 . S
N111 Zn117 2.020 . S
C112 N111 1.333 . S
C112 C113 1.379 . S
C112 H130 0.952 1_554 S
C113 C112 1.379 . S
C113 C114 1.390 . S
C113 H140 0.949 1_554 S
C114 C113 1.390 . S
C114 C115 1.357 . S
C115 C114 1.357 . S
C115 C116 1.370 . S
C115 H141 0.950 . S
C116 N111 1.307 . S
C116 C115 1.370 . S
C116 H134 0.948 . S
Zn117 N111 2.020 . S
Zn117 O126 2.039 1_554 S
Zn117 O132 2.034 . S
Zn117 O136 2.025 . S
Zn117 O138 2.024 1_554 S
C118 O137 1.246 . S
C118 O138 1.249 . S
N119 C120 1.307 . S
N119 C121 1.333 . S
N119 Zn125 2.020 . S
C120 N119 1.307 . S
C120 C124 1.370 . S
C120 H131 0.950 . S
C121 N119 1.333 . S
C121 C122 1.379 . S
C121 H129 0.952 . S
C122 C121 1.379 . S
C122 C123 1.390 . S
C122 H142 0.949 . S
C123 C122 1.390 . S
C123 C124 1.357 . S
C124 C120 1.370 . S
C124 C123 1.357 . S
C124 H143 0.950 . S
Zn125 N119 2.020 . S
Zn125 O128 2.025 1_554 S
Zn125 O133 2.024 . S
Zn125 O135 2.039 . S
Zn125 O137 2.034 1_554 S
O126 C110 1.251 . S
O126 Zn117 2.039 1_556 S
C127 O132 1.246 . S
C127 O133 1.249 . S
O128 C110 1.254 . S
O128 Zn125 2.025 1_556 S
H129 C121 0.952 . S
H130 C112 0.952 1_556 S
H131 C120 0.950 . S
O132 Zn117 2.034 . S
O132 C127 1.246 . S
O133 Zn125 2.024 . S
O133 C127 1.249 . S
H134 C116 0.948 . S
O135 Zn125 2.039 . S
O135 C139 1.251 . S
O136 Zn117 2.025 . S
O136 C139 1.254 . S
O137 C118 1.246 . S
O137 Zn125 2.034 1_556 S
O138 Zn117 2.024 1_556 S
O138 C118 1.249 . S
C139 O135 1.251 . S
C139 O136 1.254 . S
H140 C113 0.949 1_556 S
H141 C115 0.950 . S
H142 C122 0.949 . S
H143 C124 0.950 . S
H144 C156 0.930 . S
H145 C158 0.930 . S
H146 C159 0.930 . S
H147 C163 0.959 . S
H148 C163 0.959 . S
H149 C163 0.961 . S
H150 C164 0.960 . S
H151 C164 0.961 . S
H152 C164 0.959 . S
H153 C167 0.929 . S
H154 C168 0.931 . S
H155 C170 0.930 . S
C156 H144 0.930 . S
C156 C157 1.399 . S
C156 C161 1.399 . S
C157 C156 1.399 . S
C157 C158 1.376 . S
C158 H145 0.930 . S
C158 C157 1.376 . S
C158 C159 1.388 . S
C159 H146 0.930 . S
C159 C158 1.388 . S
C159 C160 1.390 . S
C160 C159 1.390 . S
C160 C161 1.394 . S
C160 C166 1.465 . S
C161 C156 1.399 . S
C161 C160 1.394 . S
C161 C162 1.516 . S
C162 C161 1.516 . S
C162 C163 1.502 . S
C162 C164 1.561 . S
C162 C165 1.526 . S
C163 H147 0.959 . S
C163 H148 0.959 . S
C163 H149 0.961 . S
C163 C162 1.502 . S
C164 H150 0.960 . S
C164 H151 0.961 . S
C164 H152 0.959 . S
C164 C162 1.561 . S
C165 C162 1.526 . S
C165 C166 1.396 . S
C165 C170 1.390 . S
C166 C160 1.465 . S
C166 C165 1.396 . S
C166 C167 1.399 . S
C167 H153 0.929 . S
C167 C166 1.399 . S
C167 C168 1.385 . S
C168 H154 0.931 . S
C168 C167 1.385 . S
C168 C169 1.389 . S
C169 C168 1.389 . S
C169 C170 1.387 . S
C170 H155 0.930 . S
C170 C165 1.390 . S
C170 C169 1.387 . S
H171 C183 0.933 . S
H172 C185 0.930 . S
H173 C186 0.930 . S
H174 C190 0.959 . S
H175 C190 0.959 . S
H176 C190 0.961 . S
H177 C191 0.960 . S
H178 C191 0.961 . S
H179 C191 0.959 . S
H180 C194 0.929 . S
H181 C195 0.931 . S
H182 C197 0.930 . S
C183 H171 0.933 . S
C183 C184 1.396 1_556 S
C183 C188 1.398 1_556 S
C184 C183 1.396 1_554 S
C184 C185 1.376 . S
C185 H172 0.930 . S
C185 C184 1.376 . S
C185 C186 1.388 . S
C186 H173 0.930 . S
C186 C185 1.388 . S
C186 C187 1.390 . S
C187 C186 1.390 . S
C187 C188 1.394 . S
C187 C193 1.465 . S
C188 C183 1.398 1_554 S
C188 C187 1.394 . S
C188 C189 1.516 1_554 S
C189 C188 1.516 1_556 S
C189 C190 1.502 . S
C189 C191 1.561 . S
C189 C192 1.526 1_556 S
C190 H174 0.959 . S
C190 H175 0.959 . S
C190 H176 0.961 . S
C190 C189 1.502 . S
C191 H177 0.960 . S
C191 H178 0.961 . S
C191 H179 0.959 . S
C191 C189 1.561 . S
C192 C189 1.526 1_554 S
C192 C193 1.396 . S
C192 C197 1.390 1_554 S
C193 C187 1.465 . S
C193 C192 1.396 . S
C193 C194 1.399 . S
C194 H180 0.929 . S
C194 C193 1.399 . S
C194 C195 1.385 . S
C195 H181 0.931 . S
C195 C194 1.385 . S
C195 C196 1.389 . S
C196 C195 1.389 . S
C196 C197 1.387 1_554 S
C197 H182 0.930 . S
C197 C192 1.390 1_556 S
C197 C196 1.387 1_556 S
H198 C210 0.930 . S
H199 C212 0.930 . S
H200 C213 0.930 . S
H201 C217 0.959 . S
H202 C217 0.959 . S
H203 C217 0.961 . S
H204 C218 0.960 . S
H205 C218 0.961 . S
H206 C218 0.959 . S
H207 C221 0.929 . S
H208 C222 0.931 . S
H209 C224 0.930 . S
C210 H198 0.930 . S
C210 C211 1.399 . S
C210 C215 1.399 . S
C211 C210 1.399 . S
C211 C212 1.376 . S
C212 H199 0.930 . S
C212 C211 1.376 . S
C212 C213 1.388 . S
C213 H200 0.930 . S
C213 C212 1.388 . S
C213 C214 1.390 . S
C214 C213 1.390 . S
C214 C215 1.394 . S
C214 C220 1.465 . S
C215 C210 1.399 . S
C215 C214 1.394 . S
C215 C216 1.516 . S
C216 C215 1.516 . S
C216 C217 1.502 . S
C216 C218 1.561 . S
C216 C219 1.526 . S
C217 H201 0.959 . S
C217 H202 0.959 . S
C217 H203 0.961 . S
C217 C216 1.502 . S
C218 H204 0.960 . S
C218 H205 0.961 . S
C218 H206 0.959 . S
C218 C216 1.561 . S
C219 C216 1.526 . S
C219 C220 1.396 . S
C219 C224 1.390 . S
C220 C214 1.465 . S
C220 C219 1.396 . S
C220 C221 1.399 . S
C221 H207 0.929 . S
C221 C220 1.399 . S
C221 C222 1.385 . S
C222 H208 0.931 . S
C222 C221 1.385 . S
C222 C223 1.389 . S
C223 C222 1.389 . S
C223 C224 1.387 . S
C224 H209 0.930 . S
C224 C219 1.390 . S
C224 C223 1.387 . S
H225 C237 0.930 . S
H226 C239 0.930 . S
H227 C240 0.930 . S
H228 C244 0.959 . S
H229 C244 0.959 . S
H230 C244 0.961 . S
H231 C245 0.960 . S
H232 C245 0.961 . S
H233 C245 0.959 . S
H234 C248 0.929 . S
H235 C249 0.931 . S
H236 C251 0.930 . S
C237 H225 0.930 . S
C237 C238 1.399 . S
C237 C242 1.399 . S
C238 C237 1.399 . S
C238 C239 1.376 . S
C239 H226 0.930 . S
C239 C238 1.376 . S
C239 C240 1.388 . S
C240 H227 0.930 . S
C240 C239 1.388 . S
C240 C241 1.390 . S
C241 C240 1.390 . S
C241 C242 1.394 . S
C241 C247 1.465 . S
C242 C237 1.399 . S
C242 C241 1.394 . S
C242 C243 1.516 . S
C243 C242 1.516 . S
C243 C244 1.502 . S
C243 C245 1.561 1_554 S
C243 C246 1.526 . S
C244 H228 0.959 . S
C244 H229 0.959 . S
C244 H230 0.961 . S
C244 C243 1.502 . S
C245 H231 0.960 . S
C245 H232 0.961 . S
C245 H233 0.959 . S
C245 C243 1.561 1_556 S
C246 C243 1.526 . S
C246 C247 1.396 . S
C246 C251 1.390 . S
C247 C241 1.465 . S
C247 C246 1.396 . S
C247 C248 1.399 . S
C248 H234 0.929 . S
C248 C247 1.399 . S
C248 C249 1.385 . S
C249 H235 0.931 . S
C249 C248 1.385 . S
C249 C250 1.389 . S
C250 C249 1.389 . S
C250 C251 1.387 . S
C251 H236 0.930 . S
C251 C246 1.390 . S
C251 C250 1.387 . S
H252 C264 0.930 . S
H253 C266 0.930 . S
H254 C267 0.930 . S
H255 C271 0.959 . S
H256 C271 0.959 . S
H257 C271 0.961 . S
H258 C272 0.960 . S
H259 C272 0.961 . S
H260 C272 0.959 . S
H261 C275 0.929 . S
H262 C276 0.931 . S
H263 C278 0.930 . S
C264 H252 0.930 . S
C264 C265 1.399 . S
C264 C269 1.399 . S
C265 C264 1.399 . S
C265 C266 1.376 . S
C266 H253 0.930 . S
C266 C265 1.376 . S
C266 C267 1.388 . S
C267 H254 0.930 . S
C267 C266 1.388 . S
C267 C268 1.390 . S
C268 C267 1.390 . S
C268 C269 1.394 . S
C268 C274 1.465 . S
C269 C264 1.399 . S
C269 C268 1.394 . S
C269 C270 1.516 . S
C270 C269 1.516 . S
C270 C271 1.502 . S
C270 C272 1.561 . S
C270 C273 1.526 . S
C271 H255 0.959 . S
C271 H256 0.959 . S
C271 H257 0.961 . S
C271 C270 1.502 . S
C272 H258 0.960 . S
C272 H259 0.961 . S
C272 H260 0.959 . S
C272 C270 1.561 . S
C273 C270 1.526 . S
C273 C274 1.396 . S
C273 C278 1.390 . S
C274 C268 1.465 . S
C274 C273 1.396 . S
C274 C275 1.399 . S
C275 H261 0.929 . S
C275 C274 1.399 . S
C275 C276 1.385 . S
C276 H262 0.931 . S
C276 C275 1.385 . S
C276 C277 1.389 . S
C277 C276 1.389 . S
C277 C278 1.387 . S
C278 H263 0.930 . S
C278 C273 1.390 . S
C278 C277 1.387 . S
H279 C291 0.930 . S
H280 C293 0.930 . S
H281 C294 0.930 . S
H282 C298 0.959 . S
H283 C298 0.959 . S
H284 C298 0.961 . S
H285 C299 0.960 . S
H286 C299 0.961 . S
H287 C299 0.959 . S
H288 C302 0.929 . S
H289 C303 0.931 . S
H290 C305 0.930 . S
C291 H279 0.930 . S
C291 C292 1.399 . S
C291 C296 1.399 . S
C292 C291 1.399 . S
C292 C293 1.376 . S
C293 H280 0.930 . S
C293 C292 1.376 . S
C293 C294 1.388 . S
C294 H281 0.930 . S
C294 C293 1.388 . S
C294 C295 1.390 . S
C295 C294 1.390 . S
C295 C296 1.394 . S
C295 C301 1.465 . S
C296 C291 1.399 . S
C296 C295 1.394 . S
C296 C297 1.516 . S
C297 C296 1.516 . S
C297 C298 1.502 . S
C297 C299 1.561 . S
C297 C300 1.526 . S
C298 H282 0.959 . S
C298 H283 0.959 . S
C298 H284 0.961 . S
C298 C297 1.502 . S
C299 H285 0.960 . S
C299 H286 0.961 . S
C299 H287 0.959 . S
C299 C297 1.561 . S
C300 C297 1.526 . S
C300 C301 1.396 . S
C300 C305 1.390 . S
C301 C295 1.465 . S
C301 C300 1.396 . S
C301 C302 1.399 . S
C302 H288 0.929 . S
C302 C301 1.399 . S
C302 C303 1.385 . S
C303 H289 0.931 . S
C303 C302 1.385 . S
C303 C304 1.389 . S
C304 C303 1.389 . S
C304 C305 1.387 . S
C305 H290 0.930 . S
C305 C300 1.390 . S
C305 C304 1.387 . S
H306 C318 0.930 . S
H307 C320 0.930 . S
H308 C321 0.930 . S
H309 C325 0.959 . S
H310 C325 0.959 . S
H311 C325 0.961 . S
H312 C326 0.960 . S
H313 C326 0.961 . S
H314 C326 0.959 . S
H315 C329 0.929 . S
H316 C330 0.931 . S
H317 C332 0.930 . S
C318 H306 0.930 . S
C318 C319 1.399 . S
C318 C323 1.399 . S
C319 C318 1.399 . S
C319 C320 1.376 . S
C320 H307 0.930 . S
C320 C319 1.376 . S
C320 C321 1.388 . S
C321 H308 0.930 . S
C321 C320 1.388 . S
C321 C322 1.390 . S
C322 C321 1.390 . S
C322 C323 1.394 . S
C322 C328 1.465 . S
C323 C318 1.399 . S
C323 C322 1.394 . S
C323 C324 1.516 . S
C324 C323 1.516 . S
C324 C325 1.502 . S
C324 C326 1.561 . S
C324 C327 1.526 . S
C325 H309 0.959 . S
C325 H310 0.959 . S
C325 H311 0.961 . S
C325 C324 1.502 . S
C326 H312 0.960 . S
C326 H313 0.961 . S
C326 H314 0.959 . S
C326 C324 1.561 . S
C327 C324 1.526 . S
C327 C328 1.396 . S
C327 C332 1.390 . S
C328 C322 1.465 . S
C328 C327 1.396 . S
C328 C329 1.399 . S
C329 H315 0.929 . S
C329 C328 1.399 . S
C329 C330 1.385 . S
C330 H316 0.931 . S
C330 C329 1.385 . S
C330 C331 1.389 . S
C331 C330 1.389 . S
C331 C332 1.387 . S
C332 H317 0.930 . S
C332 C327 1.390 . S
C332 C331 1.387 . S
H333 C345 0.930 . S
H334 C347 0.930 . S
H335 C348 0.930 . S
H336 C352 0.959 . S
H337 C352 0.959 . S
H338 C352 0.961 . S
H339 C353 0.960 . S
H340 C353 0.961 . S
H341 C353 0.959 . S
H342 C356 0.929 . S
H343 C357 0.931 . S
H344 C359 0.930 . S
C345 H333 0.930 . S
C345 C346 1.399 . S
C345 C350 1.399 . S
C346 C345 1.399 . S
C346 C347 1.376 . S
C347 H334 0.930 . S
C347 C346 1.376 . S
C347 C348 1.388 . S
C348 H335 0.930 . S
C348 C347 1.388 . S
C348 C349 1.390 . S
C349 C348 1.390 . S
C349 C350 1.394 . S
C349 C355 1.465 . S
C350 C345 1.399 . S
C350 C349 1.394 . S
C350 C351 1.516 . S
C351 C350 1.516 . S
C351 C352 1.502 . S
C351 C353 1.561 . S
C351 C354 1.526 . S
C352 H336 0.959 . S
C352 H337 0.959 . S
C352 H338 0.961 . S
C352 C351 1.502 . S
C353 H339 0.960 . S
C353 H340 0.961 . S
C353 H341 0.959 . S
C353 C351 1.561 . S
C354 C351 1.526 . S
C354 C355 1.396 . S
C354 C359 1.390 . S
C355 C349 1.465 . S
C355 C354 1.396 . S
C355 C356 1.399 . S
C356 H342 0.929 . S
C356 C355 1.399 . S
C356 C357 1.385 . S
C357 H343 0.931 . S
C357 C356 1.385 . S
C357 C358 1.389 . S
C358 C357 1.389 . S
C358 C359 1.387 . S
C359 H344 0.930 . S
C359 C354 1.390 . S
C359 C358 1.387 . S
H360 C372 0.930 . S
H361 C374 0.930 . S
H362 C375 0.930 . S
H363 C379 0.959 . S
H364 C379 0.959 . S
H365 C379 0.961 . S
H366 C380 0.960 . S
H367 C380 0.961 . S
H368 C380 0.959 . S
H369 C383 0.929 . S
H370 C384 0.931 . S
H371 C386 0.930 . S
C372 H360 0.930 . S
C372 C373 1.399 . S
C372 C377 1.399 . S
C373 C372 1.399 . S
C373 C374 1.376 . S
C374 H361 0.930 . S
C374 C373 1.376 . S
C374 C375 1.388 . S
C375 H362 0.930 . S
C375 C374 1.388 . S
C375 C376 1.390 . S
C376 C375 1.390 . S
C376 C377 1.394 . S
C376 C382 1.465 . S
C377 C372 1.399 . S
C377 C376 1.394 . S
C377 C378 1.516 . S
C378 C377 1.516 . S
C378 C379 1.502 . S
C378 C380 1.561 . S
C378 C381 1.526 . S
C379 H363 0.959 . S
C379 H364 0.959 . S
C379 H365 0.961 . S
C379 C378 1.502 . S
C380 H366 0.960 . S
C380 H367 0.961 . S
C380 H368 0.959 . S
C380 C378 1.561 . S
C381 C378 1.526 . S
C381 C382 1.396 . S
C381 C386 1.390 . S
C382 C376 1.465 . S
C382 C381 1.396 . S
C382 C383 1.399 . S
C383 H369 0.929 . S
C383 C382 1.399 . S
C383 C384 1.385 . S
C384 H370 0.931 . S
C384 C383 1.385 . S
C384 C385 1.389 . S
C385 C384 1.389 . S
C385 C386 1.387 . S
C386 H371 0.930 . S
C386 C381 1.390 . S
C386 C385 1.387 . S
H387 C399 0.930 . S
H388 C401 0.930 . S
H389 C402 0.930 . S
H390 C406 0.959 . S
H391 C406 0.959 . S
H392 C406 0.961 . S
H393 C407 0.960 . S
H394 C407 0.961 . S
H395 C407 0.959 . S
H396 C410 0.929 . S
H397 C411 0.931 . S
H398 C413 0.930 . S
C399 H387 0.930 . S
C399 C400 1.399 . S
C399 C404 1.399 . S
C400 C399 1.399 . S
C400 C401 1.376 . S
C401 H388 0.930 . S
C401 C400 1.376 . S
C401 C402 1.388 . S
C402 H389 0.930 . S
C402 C401 1.388 . S
C402 C403 1.390 . S
C403 C402 1.390 . S
C403 C404 1.394 . S
C403 C409 1.465 . S
C404 C399 1.399 . S
C404 C403 1.394 . S
C404 C405 1.516 . S
C405 C404 1.516 . S
C405 C406 1.502 . S
C405 C407 1.561 . S
C405 C408 1.526 . S
C406 H390 0.959 . S
C406 H391 0.959 . S
C406 H392 0.961 . S
C406 C405 1.502 . S
C407 H393 0.960 . S
C407 H394 0.961 . S
C407 H395 0.959 . S
C407 C405 1.561 . S
C408 C405 1.526 . S
C408 C409 1.396 . S
C408 C413 1.390 . S
C409 C403 1.465 . S
C409 C408 1.396 . S
C409 C410 1.399 . S
C410 H396 0.929 . S
C410 C409 1.399 . S
C410 C411 1.385 . S
C411 H397 0.931 . S
C411 C410 1.385 . S
C411 C412 1.389 . S
C412 C411 1.389 . S
C412 C413 1.387 . S
C413 H398 0.930 . S
C413 C408 1.390 . S
C413 C412 1.387 . S
H414 C426 0.930 . S
H415 C428 0.930 . S
H416 C429 0.930 . S
H417 C433 0.959 . S
H418 C433 0.959 . S
H419 C433 0.961 . S
H420 C434 0.960 . S
H421 C434 0.961 . S
H422 C434 0.959 . S
H423 C437 0.929 . S
H424 C438 0.931 . S
H425 C440 0.930 . S
C426 H414 0.930 . S
C426 C427 1.399 . S
C426 C431 1.399 . S
C427 C426 1.399 . S
C427 C428 1.376 . S
C428 H415 0.930 . S
C428 C427 1.376 . S
C428 C429 1.388 . S
C429 H416 0.930 . S
C429 C428 1.388 . S
C429 C430 1.390 . S
C430 C429 1.390 . S
C430 C431 1.394 . S
C430 C436 1.465 . S
C431 C426 1.399 . S
C431 C430 1.394 . S
C431 C432 1.516 . S
C432 C431 1.516 . S
C432 C433 1.502 . S
C432 C434 1.561 . S
C432 C435 1.526 . S
C433 H417 0.959 . S
C433 H418 0.959 . S
C433 H419 0.961 . S
C433 C432 1.502 . S
C434 H420 0.960 . S
C434 H421 0.961 . S
C434 H422 0.959 . S
C434 C432 1.561 . S
C435 C432 1.526 . S
C435 C436 1.396 . S
C435 C440 1.390 . S
C436 C430 1.465 . S
C436 C435 1.396 . S
C436 C437 1.399 . S
C437 H423 0.929 . S
C437 C436 1.399 . S
C437 C438 1.385 . S
C438 H424 0.931 . S
C438 C437 1.385 . S
C438 C439 1.389 . S
C439 C438 1.389 . S
C439 C440 1.387 . S
C440 H425 0.930 . S
C440 C435 1.390 . S
C440 C439 1.387 . S
H441 C453 0.930 . S
H442 C455 0.930 . S
H443 C456 0.930 . S
H444 C460 0.959 . S
H445 C460 0.959 . S
H446 C460 0.961 . S
H447 C461 0.960 . S
H448 C461 0.973 . S
H449 C461 0.959 . S
H450 C464 0.929 . S
H451 C465 0.931 . S
H452 C467 0.930 . S
C453 H441 0.930 . S
C453 C454 1.399 . S
C453 C458 1.399 . S
C454 C453 1.399 . S
C454 C455 1.376 . S
C455 H442 0.930 . S
C455 C454 1.376 . S
C455 C456 1.388 . S
C456 H443 0.930 . S
C456 C455 1.388 . S
C456 C457 1.390 . S
C457 C456 1.390 . S
C457 C458 1.394 . S
C457 C463 1.465 . S
C458 C453 1.399 . S
C458 C457 1.394 . S
C458 C459 1.516 . S
C459 C458 1.516 . S
C459 C460 1.502 . S
C459 C461 1.561 . S
C459 C462 1.526 . S
C460 H444 0.959 . S
C460 H445 0.959 . S
C460 H446 0.961 . S
C460 C459 1.502 . S
C461 H447 0.960 . S
C461 H448 0.973 . S
C461 H449 0.959 . S
C461 C459 1.561 . S
C462 C459 1.526 . S
C462 C463 1.396 . S
C462 C467 1.390 . S
C463 C457 1.465 . S
C463 C462 1.396 . S
C463 C464 1.399 . S
C464 H450 0.929 . S
C464 C463 1.399 . S
C464 C465 1.385 . S
C465 H451 0.931 . S
C465 C464 1.385 . S
C465 C466 1.389 . S
C466 C465 1.389 . S
C466 C467 1.387 . S
C467 H452 0.930 . S
C467 C462 1.390 . S
C467 C466 1.387 . S
C169 C80 1.540 . S
C157 C68 1.402 . S
C184 C11 1.404 . S
C196 C123 1.543 . S
C211 C30 1.418 . S
C223 C89 1.539 . S
C238 C49 1.370 . S
C250 C114 1.537 . S
C277 C76 1.612 . S
C265 C2 1.590 . S
C304 C118 1.601 . S
C292 C25 1.585 . S
C319 C40 1.604 . S
C331 C84 1.601 . S
C346 C59 1.585 . S
C358 C110 1.586 . S
C385 C139 1.498 . S
C373 C21 1.461 . S
C412 C105 1.482 . S
C400 C44 1.491 . S
C439 C127 1.507 . S
C427 C63 1.502 . S
C454 C6 1.490 . S
C466 C93 1.472 . S
