# Generated by pormake.
# Topology zzz, (3,6)-cn, num edge types: 1
# Building blocks:
#     Node 0, Type 0, BuildingBlock: BETDIP_clean_linker_0, # of connection points: 3
#     Node 1, Type 0, BuildingBlock: BETDIP_clean_linker_0, # of connection points: 3
#     Node 2, Type 0, BuildingBlock: BETDIP_clean_linker_0, # of connection points: 3
#     Node 3, Type 0, BuildingBlock: BETDIP_clean_linker_0, # of connection points: 3
#     Node 4, Type 0, BuildingBlock: BETDIP_clean_linker_0, # of connection points: 3
#     Node 5, Type 0, BuildingBlock: BETDIP_clean_linker_0, # of connection points: 3
#     Node 6, Type 0, BuildingBlock: BETDIP_clean_linker_0, # of connection points: 3
#     Node 7, Type 0, BuildingBlock: BETDIP_clean_linker_0, # of connection points: 3
#     Node 8, Type 1, BuildingBlock: BETFAJ_clean_sbu_0, # of connection points: 6
#     Node 9, Type 1, BuildingBlock: BETFAJ_clean_sbu_0, # of connection points: 6
#     Node 10, Type 1, BuildingBlock: BETFAJ_clean_sbu_0, # of connection points: 6
#     Node 11, Type 1, BuildingBlock: BETFAJ_clean_sbu_0, # of connection points: 6
#     Edge 12, Type (0, 1), BuildingBlock: TEMPAE_clean_linker_10, # of connection points: 2
#     Edge 13, Type (0, 1), BuildingBlock: TEMPAE_clean_linker_10, # of connection points: 2
#     Edge 14, Type (0, 1), BuildingBlock: TEMPAE_clean_linker_10, # of connection points: 2
#     Edge 15, Type (0, 1), BuildingBlock: TEMPAE_clean_linker_10, # of connection points: 2
#     Edge 16, Type (0, 1), BuildingBlock: TEMPAE_clean_linker_10, # of connection points: 2
#     Edge 17, Type (0, 1), BuildingBlock: TEMPAE_clean_linker_10, # of connection points: 2
#     Edge 18, Type (0, 1), BuildingBlock: TEMPAE_clean_linker_10, # of connection points: 2
#     Edge 19, Type (0, 1), BuildingBlock: TEMPAE_clean_linker_10, # of connection points: 2
#     Edge 20, Type (0, 1), BuildingBlock: TEMPAE_clean_linker_10, # of connection points: 2
#     Edge 21, Type (0, 1), BuildingBlock: TEMPAE_clean_linker_10, # of connection points: 2
#     Edge 22, Type (0, 1), BuildingBlock: TEMPAE_clean_linker_10, # of connection points: 2
#     Edge 23, Type (0, 1), BuildingBlock: TEMPAE_clean_linker_10, # of connection points: 2
#     Edge 24, Type (0, 1), BuildingBlock: TEMPAE_clean_linker_10, # of connection points: 2
#     Edge 25, Type (0, 1), BuildingBlock: TEMPAE_clean_linker_10, # of connection points: 2
#     Edge 26, Type (0, 1), BuildingBlock: TEMPAE_clean_linker_10, # of connection points: 2
#     Edge 27, Type (0, 1), BuildingBlock: TEMPAE_clean_linker_10, # of connection points: 2
#     Edge 28, Type (0, 1), BuildingBlock: TEMPAE_clean_linker_10, # of connection points: 2
#     Edge 29, Type (0, 1), BuildingBlock: TEMPAE_clean_linker_10, # of connection points: 2
#     Edge 30, Type (0, 1), BuildingBlock: TEMPAE_clean_linker_10, # of connection points: 2
#     Edge 31, Type (0, 1), BuildingBlock: TEMPAE_clean_linker_10, # of connection points: 2
#     Edge 32, Type (0, 1), BuildingBlock: TEMPAE_clean_linker_10, # of connection points: 2
#     Edge 33, Type (0, 1), BuildingBlock: TEMPAE_clean_linker_10, # of connection points: 2
#     Edge 34, Type (0, 1), BuildingBlock: TEMPAE_clean_linker_10, # of connection points: 2
#     Edge 35, Type (0, 1), BuildingBlock: TEMPAE_clean_linker_10, # of connection points: 2
# Relax obj value: 0.274
# Max RMSD: 0.189
# Mean RMSD: 0.161
data_MOF--net-zzz--node1-BETFAJ_clean_sbu_0--node2-BETDIP_clean_linker_0--edge1-TEMPAE_clean_linker_10
_symmetry_space_group_name_H-M    P1
_symmetry_Int_Tables_number       1
_symmetry_cell_setting            triclinic
loop_
_symmetry_equiv_pos_as_xyz
'x, y, z'
_cell_length_a     53.566268
_cell_length_b     53.544117
_cell_length_c     13.452941
_cell_angle_alpha  89.785442
_cell_angle_beta   89.979235
_cell_angle_gamma 90.014363
loop_
_atom_site_label
_atom_site_type_symbol
_atom_site_fract_x
_atom_site_fract_y
_atom_site_fract_z
_atom_type_partial_charge
H0 H 0.75762 0.49805 0.47152 0.0
H1 H 0.74011 0.55754 0.26544 0.0
H2 H 0.80567 0.56194 0.44662 0.0
H3 H 0.69957 0.54992 0.34777 0.0
C4 C 0.6997 0.53068 0.32211 0.0
C5 C 0.76168 0.51626 0.44023 0.0
C6 C 0.78386 0.52908 0.46853 0.0
C7 C 0.74455 0.52756 0.37228 0.0
C8 C 0.75145 0.55012 0.3253 0.0
C9 C 0.77377 0.56227 0.34963 0.0
C10 C 0.78848 0.55257 0.42681 0.0
N11 N 0.72129 0.51588 0.34573 0.0
H12 H 0.99786 0.75322 0.4529 0.0
H13 H 0.02616 0.74273 0.15467 0.0
H14 H 0.0345 0.81351 0.29856 0.0
H15 H 0.97649 0.72239 0.18063 0.0
C16 C 0.98871 0.70967 0.22085 0.0
C17 C 1.00723 0.76047 0.38757 0.0
C18 C 0.01583 0.78555 0.38595 0.0
C19 C 1.01078 0.74487 0.30317 0.0
C20 C 0.02308 0.7545 0.21889 0.0
C21 C 0.03146 0.77919 0.21743 0.0
C22 C 0.02783 0.79435 0.30055 0.0
N23 N 1.00269 0.71942 0.30249 0.0
H24 H 0.76813 0.99974 0.49767 0.0
H25 H 0.77859 0.03007 0.20174 0.0
H26 H 0.70741 0.03578 0.34479 0.0
H27 H 0.79983 0.97816 0.23376 0.0
C28 C 0.81204 0.99173 0.26885 0.0
C29 C 0.7608 1.00933 0.43297 0.0
C30 C 0.73553 0.01737 0.43163 0.0
C31 C 0.77649 0.01374 0.34898 0.0
C32 C 0.76678 0.02631 0.26551 0.0
C33 C 0.742 0.03429 0.26497 0.0
C34 C 0.72672 0.0297 0.34712 0.0
N35 N 0.80213 1.00641 0.34812 0.0
H36 H 0.52436 0.75917 0.47478 0.0
H37 H 0.49105 0.77715 0.19038 0.0
H38 H 0.47938 0.70506 0.32056 0.0
H39 H 0.54484 0.79302 0.21325 0.0
C40 C 0.53273 0.80577 0.25346 0.0
C41 C 0.51288 0.75394 0.41199 0.0
C42 C 0.50215 0.72969 0.40799 0.0
C43 C 0.50881 0.77129 0.33303 0.0
C44 C 0.49416 0.76419 0.25121 0.0
C45 C 0.4834 0.74051 0.2482 0.0
C46 C 0.48737 0.72362 0.32592 0.0
N47 N 0.51876 0.79603 0.33538 0.0
H48 H 0.27267 0.50717 1.002 0.0
H49 H 0.29554 0.4678 0.26729 0.0
H50 H 0.22529 0.45092 0.13091 0.0
H51 H 0.30582 0.523 0.26562 0.0
C52 C 0.31963 0.51286 0.22243 0.0
C53 C 0.26929 0.49282 0.05732 0.0
C54 C 0.24631 0.47938 0.05687 0.0
C55 C 0.28766 0.48787 0.13182 0.0
C56 C 0.28234 0.47052 0.20714 0.0
C57 C 0.25979 0.45742 0.20809 0.0
C58 C 0.24286 0.46087 0.1295 0.0
N59 N 0.31127 0.50042 0.13438 0.0
H60 H 0.01739 0.2596 0.07924 0.0
H61 H 0.96184 0.27989 0.29775 0.0
H62 H 0.95378 0.21223 0.13407 0.0
H63 H 0.96944 0.3192 0.20378 0.0
C64 C 0.98871 0.31866 0.22926 0.0
C65 C 0.99996 0.25586 0.11725 0.0
C66 C 0.98633 0.23369 0.09564 0.0
C67 C 0.9904 0.27351 0.18669 0.0
C68 C 0.96837 0.26772 0.23907 0.0
C69 C 0.95514 0.24588 0.21927 0.0
C70 C 0.96382 0.22952 0.14629 0.0
N71 N 1.00288 0.29666 0.20707 0.0
H72 H 0.25292 1.00432 0.99978 0.0
H73 H 0.23173 0.04472 0.2635 0.0
H74 H 0.30122 0.06083 0.11919 0.0
H75 H 0.2236 0.99186 0.27671 0.0
C76 C 0.20876 0.99934 0.23018 0.0
C77 C 0.25657 0.01897 0.05308 0.0
C78 C 0.2794 0.03251 0.04875 0.0
C79 C 0.23883 0.02403 0.12934 0.0
C80 C 0.24451 0.04183 0.20212 0.0
C81 C 0.26709 0.05488 0.19993 0.0
C82 C 0.2835 0.05112 0.11992 0.0
N83 N 0.21584 1.01059 0.1377 0.0
H84 H 0.51442 0.24677 0.04249 0.0
H85 H 0.55608 0.23615 0.31553 0.0
H86 H 0.55673 0.30714 0.16935 0.0
H87 H 0.56385 0.19713 0.21024 0.0
C88 C 0.54399 0.19344 0.21892 0.0
C89 C 0.52656 0.25396 0.10002 0.0
C90 C 0.53518 0.27906 0.09483 0.0
C91 C 0.53467 0.23794 0.17872 0.0
C92 C 0.55036 0.2477 0.25327 0.0
C93 C 0.55798 0.27256 0.24965 0.0
C94 C 0.55059 0.28782 0.17077 0.0
N95 N 0.52701 0.21231 0.185 0.0
Sm96 Sm 0.02549 1.00399 0.82483 0.0
Sm97 Sm 0.99433 0.01361 0.66948 0.0
C98 C 0.05225 0.98686 0.97574 0.0
C99 C 0.07015 0.96626 0.98482 0.0
C100 C 0.07074 0.95229 0.07261 0.0
C101 C 0.08347 0.92962 0.07579 0.0
C102 C 0.09607 0.9205 0.99108 0.0
C103 C 0.09718 0.93574 0.90575 0.0
C104 C 0.0841 0.95832 0.9023 0.0
C105 C 0.0529 0.01482 0.65338 0.0
C106 C 1.00893 0.95636 0.68781 0.0
C107 C 0.96874 0.02976 0.51351 0.0
C108 C 0.95062 0.04968 0.49636 0.0
C109 C 0.94477 0.06651 0.57259 0.0
C110 C 0.93064 0.08779 0.55175 0.0
C111 C 0.92228 0.09241 0.45445 0.0
C112 C 0.92628 0.07428 0.3807 0.0
C113 C 0.94053 0.0531 0.40147 0.0
C114 C 0.96638 1.00207 0.83841 0.0
C115 C 1.00984 0.061 0.81 0.0
O116 O 0.02921 0.98006 0.95917 0.0
O117 O 0.05914 1.00577 0.92088 0.0
O118 O 0.03439 1.00025 0.65796 0.0
O119 O 0.05629 0.02529 0.73876 0.0
O120 O 0.01404 0.96329 0.77964 0.0
O121 O 1.00466 0.9738 0.62104 0.0
O122 O 0.99142 0.03712 0.53393 0.0
O123 O 0.96125 1.01154 0.5706 0.0
O124 O 0.98511 0.01648 0.83681 0.0
O125 O 0.96262 0.99301 0.75085 0.0
O126 O 1.00523 0.05433 0.71738 0.0
O127 O 0.01428 0.0434 0.87604 0.0
H128 H 0.05996 0.95809 0.13673 0.0
H129 H 0.08161 0.91844 0.14257 0.0
H130 H 0.10697 0.92963 0.83978 0.0
H131 H 0.08381 0.96889 0.83345 0.0
H132 H 0.95236 0.06393 0.64659 0.0
H133 H 0.92808 0.10158 0.6096 0.0
H134 H 0.91998 0.07745 0.30521 0.0
H135 H 0.94481 0.04017 0.3422 0.0
Sm136 Sm 0.51651 0.01971 0.87581 0.0
Sm137 Sm 0.50417 0.99287 0.66407 0.0
C138 C 0.52793 0.03084 0.06063 0.0
C139 C 0.54498 0.04958 0.10179 0.0
C140 C 0.56147 0.04249 0.17723 0.0
C141 C 0.58236 0.05709 0.19766 0.0
C142 C 0.5871 0.07909 0.14269 0.0
C143 C 0.569 0.08753 0.075 0.0
C144 C 0.54814 0.0728 0.05423 0.0
C145 C 0.51355 0.05503 0.72247 0.0
C146 C 0.56326 1.00442 0.7209 0.0
C147 C 0.48767 0.98729 0.48253 0.0
C148 C 0.46612 1.00069 0.44133 0.0
C149 C 0.46283 0.0261 0.46368 0.0
C150 C 0.43958 0.03734 0.45332 0.0
C151 C 0.41902 0.02328 0.4218 0.0
C152 C 0.42259 0.9982 0.39398 0.0
C153 C 0.44601 0.98704 0.40321 0.0
C154 C 0.50983 0.95722 0.81452 0.0
C155 C 0.45788 1.00969 0.81354 0.0
O156 O 0.53895 0.01282 0.01141 0.0
O157 O 0.50786 0.03939 0.01632 0.0
O158 O 0.51015 0.03175 0.71853 0.0
O159 O 0.51836 0.06059 0.81425 0.0
O160 O 0.55634 1.01175 0.81158 0.0
O161 O 0.54698 0.99731 0.65188 0.0
O162 O 0.50757 1.00069 0.50219 0.0
O163 O 0.48174 0.97187 0.55449 0.0
O164 O 0.51132 0.98067 0.82167 0.0
O165 O 0.50614 0.95183 0.72162 0.0
O166 O 0.46536 1.00646 0.72043 0.0
O167 O 0.47413 1.01144 0.88756 0.0
H168 H 0.55934 0.02465 0.21459 0.0
H169 H 0.59593 0.04977 0.24982 0.0
H170 H 0.57189 0.10454 0.03275 0.0
H171 H 0.53555 0.07873 0.99579 0.0
H172 H 0.4777 0.03696 0.49577 0.0
H173 H 0.43754 0.05682 0.47322 0.0
H174 H 0.40703 0.98679 0.37001 0.0
H175 H 0.44796 0.96728 0.38781 0.0
Sm176 Sm 0.50207 0.50854 0.83839 0.0
Sm177 Sm 0.53282 0.49632 0.6366 0.0
C178 C 0.48716 0.52595 0.00988 0.0
C179 C 0.47252 0.54896 0.0243 0.0
C180 C 0.47989 0.57101 0.9756 0.0
C181 C 0.46504 0.59221 0.97899 0.0
C182 C 0.44265 0.5921 0.03279 0.0
C183 C 0.43517 0.57024 0.08266 0.0
C184 C 0.44982 0.54859 0.07659 0.0
C185 C 0.46927 0.50404 0.67695 0.0
C186 C 0.51655 0.55475 0.68313 0.0
C187 C 0.54753 0.4841 0.45655 0.0
C188 C 0.56725 0.46749 0.42008 0.0
C189 C 0.56187 0.45126 0.34196 0.0
C190 C 0.5776 0.43117 0.32238 0.0
C191 C 0.59913 0.42698 0.3806 0.0
C192 C 0.60575 0.44484 0.45221 0.0
C193 C 0.58982 0.46485 0.47236 0.0
C194 C 0.56565 0.50082 0.79797 0.0
C195 C 0.51791 0.45004 0.7929 0.0
O196 O 0.51004 0.52914 0.97713 0.0
O197 O 0.47534 0.50776 0.96498 0.0
O198 O 0.49278 0.50222 0.67664 0.0
O199 O 0.4623 0.50776 0.76787 0.0
O200 O 0.51073 0.54809 0.7753 0.0
O201 O 0.5227 0.53809 0.61473 0.0
O202 O 0.52908 0.47275 0.50249 0.0
O203 O 0.55489 0.50456 0.50107 0.0
O204 O 0.54217 0.50285 0.79772 0.0
O205 O 0.57264 0.49654 0.70736 0.0
O206 O 0.52411 0.45656 0.70039 0.0
O207 O 0.51128 0.46671 0.86093 0.0
H208 H 0.49718 0.572 0.93441 0.0
H209 H 0.4716 0.60909 0.94259 0.0
H210 H 0.41817 0.56999 0.1263 0.0
H211 H 0.44341 0.53159 0.11185 0.0
H212 H 0.54453 0.453 0.30098 0.0
H213 H 0.57152 0.41777 0.26736 0.0
H214 H 0.62237 0.44249 0.49706 0.0
H215 H 0.59441 0.47728 0.53299 0.0
Sm216 Sm 1.00658 0.49304 0.87897 0.0
Sm217 Sm 0.02047 0.51762 0.66253 0.0
C218 C 0.98889 0.49204 0.06069 0.0
C219 C 0.96616 0.5049 0.09407 0.0
C220 C 0.96596 0.51873 0.18242 0.0
C221 C 0.9457 0.53437 0.204 0.0
C222 C 0.92605 0.53684 0.13559 0.0
C223 C 0.92593 0.52247 0.04921 0.0
C224 C 0.9456 0.50639 0.02939 0.0
C225 C 0.01442 0.456 0.73797 0.0
C226 C 0.96114 0.5081 0.71347 0.0
C227 C 0.03823 0.52114 0.48209 0.0
C228 C 0.06046 0.50804 0.44602 0.0
C229 C 0.06438 0.48299 0.47339 0.0
C230 C 0.08795 0.47231 0.46618 0.0
C231 C 0.10819 0.48662 0.43282 0.0
C232 C 0.10407 0.51136 0.40086 0.0
C233 C 0.08033 0.52192 0.40688 0.0
C234 C 1.01115 0.55474 0.8024 0.0
C235 C 0.06625 0.50025 0.82234 0.0
O236 O 1.00721 0.50692 0.03447 0.0
O237 O 0.98537 0.47368 0.99796 0.0
O238 O 0.01591 0.47941 0.72717 0.0
O239 O 1.00989 0.45126 0.83131 0.0
O240 O 0.9678 0.50139 0.80515 0.0
O241 O 0.97774 0.51412 0.64408 0.0
O242 O 0.01869 0.50726 0.50297 0.0
O243 O 0.04318 0.53771 0.55073 0.0
O244 O 1.01029 0.53133 0.81394 0.0
O245 O 0.01665 0.55923 0.70998 0.0
O246 O 0.05933 0.5066 0.73045 0.0
O247 O 0.04967 0.49566 0.89379 0.0
H248 H 0.98166 0.51795 0.23305 0.0
H249 H 0.94559 0.5449 0.2726 0.0
H250 H 0.9104 0.52346 0.99764 0.0
H251 H 0.94484 0.49545 0.96225 0.0
H252 H 0.04967 0.47202 0.50636 0.0
H253 H 0.09044 0.45307 0.48932 0.0
H254 H 0.11938 0.52296 0.3755 0.0
H255 H 0.07788 0.54145 0.38771 0.0
C256 C 0.16398 0.01559 0.23618 0.0
C257 C 0.18309 1.00039 0.27445 0.0
C258 C 0.14092 0.01815 0.287 0.0
C259 C 0.13679 1.00516 0.37798 0.0
C260 C 0.15577 0.98911 0.41432 0.0
C261 C 0.17854 0.98705 0.36265 0.0
C262 C 0.12132 0.03545 0.2452 0.0
C263 C 0.15241 0.97469 0.5101 0.0
C264 C 0.09356 0.0299 0.58172 0.0
C265 C 0.07283 0.01392 0.5753 0.0
C266 C 0.11382 0.028 0.51519 0.0
C267 C 0.11366 1.00954 0.43977 0.0
C268 C 0.09233 0.99392 0.43049 0.0
C269 C 0.07221 0.99632 0.49807 0.0
C270 C 0.13591 0.04518 0.52829 0.0
C271 C 0.09119 0.97398 0.35164 0.0
H272 H 0.16731 0.02609 0.16846 0.0
H273 H 0.19317 0.97526 0.39281 0.0
H274 H 0.10309 0.02568 0.24029 0.0
H275 H 0.11879 0.05157 0.2958 0.0
H276 H 0.12641 0.04262 0.17029 0.0
H277 H 0.16817 0.96171 0.52489 0.0
H278 H 0.15092 0.98788 0.57324 0.0
H279 H 0.13484 0.96373 0.50782 0.0
H280 H 0.09423 0.04365 0.64061 0.0
H281 H 0.05632 0.98387 0.49224 0.0
H282 H 0.14071 0.05432 0.45664 0.0
H283 H 0.15242 0.03418 0.55212 0.0
H284 H 0.13235 0.05989 0.58458 0.0
H285 H 0.09576 0.98201 0.27769 0.0
H286 H 0.07252 0.965 0.3477 0.0
H287 H 0.10531 0.95937 0.36785 0.0
C288 C 0.55602 0.15688 0.32358 0.0
C289 C 0.53685 0.17105 0.27985 0.0
C290 C 0.55091 0.13671 0.3878 0.0
C291 C 0.52584 0.12995 0.40835 0.0
C292 C 0.50631 0.14346 0.36076 0.0
C293 C 0.51201 0.16402 0.29796 0.0
C294 C 0.57246 0.12328 0.43689 0.0
C295 C 0.47937 0.13648 0.37776 0.0
C296 C 0.51803 0.06646 0.53958 0.0
C297 C 0.51482 0.07356 0.63902 0.0
C298 C 0.52026 0.08449 0.4628 0.0
C299 C 0.52037 0.11035 0.48631 0.0
C300 C 0.51734 0.11752 0.58696 0.0
C301 C 0.51439 0.09916 0.6613 0.0
C302 C 0.52286 0.07586 0.35667 0.0
C303 C 0.51815 0.14466 0.61698 0.0
H304 H 0.57528 0.16208 0.30973 0.0
H305 H 0.49706 0.17466 0.26396 0.0
H306 H 0.57125 0.12549 0.51875 0.0
H307 H 0.57156 0.103 0.42094 0.0
H308 H 0.59087 0.13043 0.4115 0.0
H309 H 0.46658 0.14669 0.32689 0.0
H310 H 0.47673 0.1161 0.36714 0.0
H311 H 0.47403 0.14081 0.45547 0.0
H312 H 0.51943 0.04684 0.52201 0.0
H313 H 0.51224 0.10493 0.738 0.0
H314 H 0.54119 0.08174 0.32629 0.0
H315 H 0.50828 0.08476 0.30989 0.0
H316 H 0.52121 0.05525 0.34985 0.0
H317 H 0.53659 0.15275 0.59731 0.0
H318 H 0.51502 0.14724 0.69793 0.0
H319 H 0.50377 0.15542 0.57584 0.0
C320 C 0.35375 0.53051 0.32774 0.0
C321 C 0.34564 0.51148 0.26389 0.0
C322 C 0.37633 0.52866 0.38114 0.0
C323 C 0.3912 0.50682 0.37363 0.0
C324 C 0.38358 0.48785 0.30624 0.0
C325 C 0.36105 0.49049 0.25157 0.0
C326 C 0.38364 0.54969 0.44967 0.0
C327 C 0.39839 0.46405 0.29642 0.0
C328 C 0.45646 0.50965 0.49593 0.0
C329 C 0.45118 0.50137 0.59278 0.0
C330 C 0.43745 0.51078 0.42243 0.0
C331 C 0.4127 0.50288 0.4453 0.0
C332 C 0.40786 0.49323 0.54167 0.0
C333 C 0.42691 0.49292 0.61386 0.0
C334 C 0.44359 0.52133 0.32148 0.0
C335 C 0.38214 0.48416 0.57036 0.0
H336 H 0.34197 0.54677 0.33797 0.0
H337 H 0.35483 0.47551 0.20363 0.0
H338 H 0.38172 0.54348 0.52809 0.0
H339 H 0.40346 0.55492 0.43773 0.0
H340 H 0.37185 0.56654 0.43855 0.0
H341 H 0.39209 0.45265 0.23233 0.0
H342 H 0.41855 0.46822 0.28759 0.0
H343 H 0.39625 0.45277 0.36526 0.0
H344 H 0.47505 0.51646 0.47909 0.0
H345 H 0.4226 0.48645 0.68839 0.0
H346 H 0.43202 0.53815 0.3069 0.0
H347 H 0.43899 0.50741 0.26349 0.0
H348 H 0.4636 0.52651 0.31437 0.0
H349 H 0.36905 0.50021 0.57287 0.0
H350 H 0.38198 0.47479 0.64418 0.0
H351 H 0.37496 0.47089 0.51403 0.0
C352 C 0.0208 0.34521 0.32131 0.0
C353 C 0.99599 0.33806 0.30366 0.0
C354 C 0.02645 0.36491 0.38794 0.0
C355 C 1.00693 0.3772 0.44026 0.0
C356 C 0.98197 0.36953 0.42367 0.0
C357 C 0.97686 0.35048 0.35492 0.0
C358 C 0.05324 0.3729 0.40104 0.0
C359 C 0.9605 0.38137 0.47906 0.0
C360 C 0.01805 0.4112 0.68619 0.0
C361 C 0.01524 0.4364 0.65906 0.0
C362 C 0.01639 0.39188 0.61546 0.0
C363 C 1.01219 0.39774 0.51393 0.0
C364 C 1.01019 0.42326 0.48562 0.0
C365 C 1.01114 0.44214 0.55867 0.0
C366 C 0.01788 0.3651 0.65045 0.0
C367 C 1.00613 0.43064 0.37852 0.0
H368 H 0.03566 0.33594 0.28119 0.0
H369 H 0.95764 0.34504 0.34182 0.0
H370 H 0.05517 0.39303 0.38256 0.0
H371 H 0.05893 0.37055 0.47977 0.0
H372 H 0.06621 0.36204 0.35341 0.0
H373 H 0.94228 0.3726 0.46074 0.0
H374 H 0.96357 0.37976 0.5604 0.0
H375 H 0.95941 0.40155 0.46082 0.0
H376 H 0.02088 0.40647 0.76379 0.0
H377 H 1.00788 0.46136 0.53748 0.0
H378 H 0.03197 0.35471 0.60665 0.0
H379 H 0.9996 0.35581 0.6385 0.0
H380 H 0.02276 0.36362 0.73051 0.0
H381 H 0.01894 0.42011 0.3292 0.0
H382 H 1.00911 0.45097 0.3663 0.0
H383 H 0.98676 0.42598 0.35621 0.0
C384 C 0.84911 0.97375 0.1825 0.0
C385 C 0.83795 0.99438 0.22861 0.0
C386 C 0.87191 0.97592 0.13092 0.0
C387 C 0.8836 0.99957 0.12138 0.0
C388 C 0.87285 0.02037 0.17094 0.0
C389 C 0.8503 0.01749 0.22485 0.0
C390 C 0.88298 0.95298 0.08324 0.0
C391 C 0.8844 0.04597 0.16236 0.0
C392 C 0.95042 1.00142 0.01558 0.0
C393 C 0.94583 1.00346 0.9132 0.0
C394 C 0.93051 1.00065 0.08489 0.0
C395 C 0.90542 1.00271 0.05134 0.0
C396 C 0.90095 1.00601 0.94819 0.0
C397 C 0.92106 1.00589 0.88073 0.0
C398 C 0.9364 0.99627 0.19315 0.0
C399 C 0.87477 1.00915 0.90846 0.0
H400 H 0.83968 0.95584 0.18518 0.0
H401 H 0.84166 0.0336 0.25918 0.0
H402 H 0.88141 0.95448 1.00121 0.0
H403 H 0.90313 0.95147 0.1016 0.0
H404 H 0.87344 0.93558 0.10759 0.0
H405 H 0.87591 0.05946 0.21504 0.0
H406 H 0.90479 0.04506 0.17633 0.0
H407 H 0.88177 0.05313 0.08554 0.0
H408 H 0.96951 0.99938 0.04116 0.0
H409 H 0.91735 1.00777 0.80182 0.0
H410 H 0.93385 0.97615 0.21042 0.0
H411 H 0.92365 1.00693 0.24214 0.0
H412 H 0.95599 1.00142 0.21099 0.0
H413 H 0.86418 0.99151 0.91864 0.0
H414 H 0.87458 0.01411 0.8282 0.0
H415 H 0.86481 0.02393 0.95035 0.0
C416 C 0.50832 0.84594 0.2272 0.0
C417 C 0.53007 0.83175 0.21351 0.0
C418 C 0.50465 0.86866 0.17491 0.0
C419 C 0.52331 0.87762 0.10853 0.0
C420 C 0.54591 0.86402 0.09981 0.0
C421 C 0.54884 0.84124 0.15118 0.0
C422 C 0.48015 0.88224 0.186 0.0
C423 C 0.56655 0.87279 0.03166 0.0
C424 C 0.50569 0.91314 0.87234 0.0
C425 C 0.51222 0.9379 0.89447 0.0
C426 C 0.50832 0.89378 0.94246 0.0
C427 C 0.51812 0.89897 0.03799 0.0
C428 C 0.52436 0.92407 0.06188 0.0
C429 C 0.52119 0.94327 0.99007 0.0
C430 C 0.50112 0.86754 0.91303 0.0
C431 C 0.53505 0.93051 0.16222 0.0
H432 H 0.4936 0.83867 0.27443 0.0
H433 H 0.56571 0.83039 0.1403 0.0
H434 H 0.48334 0.90251 0.19697 0.0
H435 H 0.46908 0.88009 0.11685 0.0
H436 H 0.46898 0.87491 0.2493 0.0
H437 H 0.58407 0.86204 0.0428 0.0
H438 H 0.5606 0.87064 0.95317 0.0
H439 H 0.57051 0.89289 0.04387 0.0
H440 H 0.49854 0.90875 0.79906 0.0
H441 H 0.52625 0.96232 0.00798 0.0
H442 H 0.48805 0.85946 0.9685 0.0
H443 H 0.51797 0.8555 0.91162 0.0
H444 H 0.49214 0.86685 0.83865 0.0
H445 H 0.52287 0.92314 0.22224 0.0
H446 H 0.53725 0.95099 0.17219 0.0
H447 H 0.55359 0.92153 0.17092 0.0
C448 C 0.67454 0.49856 0.22236 0.0
C449 C 0.67871 0.52316 0.25426 0.0
C450 C 0.65462 0.49281 0.15651 0.0
C451 C 0.63879 0.51214 0.11982 0.0
C452 C 0.64283 0.53684 0.15362 0.0
C453 C 0.6624 0.54191 0.22048 0.0
C454 C 0.65067 0.4661 0.12511 0.0
C455 C 0.627 0.55825 0.11625 0.0
C456 C 0.60901 0.50697 0.86201 0.0
C457 C 0.58356 0.5034 0.8831 0.0
C458 C 0.62699 0.50923 0.93786 0.0
C459 C 0.61972 0.50738 0.03895 0.0
C460 C 0.59406 0.50312 0.06115 0.0
C461 C 0.57626 0.50147 0.98315 0.0
C462 C 0.65381 0.51424 0.9094 0.0
C463 C 0.58541 0.50042 0.16736 0.0
H464 H 0.68679 0.48385 0.24864 0.0
H465 H 0.66535 0.56098 0.24474 0.0
H466 H 0.63101 0.46051 0.13885 0.0
H467 H 0.65412 0.46429 0.04416 0.0
H468 H 0.66319 0.45298 0.16534 0.0
H469 H 0.63176 0.57621 0.15277 0.0
H470 H 0.62962 0.56048 0.03486 0.0
H471 H 0.60695 0.55427 0.12927 0.0
H472 H 0.61495 0.50842 0.78515 0.0
H473 H 0.55674 0.49834 1.00043 0.0
H474 H 0.66617 0.49975 0.942 0.0
H475 H 0.6598 0.53252 0.93982 0.0
H476 H 0.65662 0.51453 0.82758 0.0
H477 H 0.59686 0.4862 0.2066 0.0
H478 H 0.56545 0.49494 0.17242 0.0
H479 H 0.58798 0.51835 0.20708 0.0
C480 C 0.0124 0.66891 0.19917 0.0
C481 C 0.99112 0.68361 0.1822 0.0
C482 C 0.01577 0.64592 0.14917 0.0
C483 C 0.99736 0.63729 0.08143 0.0
C484 C 0.97514 0.65134 0.06966 0.0
C485 C 0.97248 0.67437 0.11886 0.0
C486 C 0.03943 0.63128 0.16591 0.0
C487 C 0.95451 0.64248 0.00205 0.0
C488 C 0.01585 0.59922 0.85362 0.0
C489 C 1.00826 0.57487 0.87852 0.0
C490 C 0.01309 0.61926 0.92001 0.0
C491 C 1.00226 0.61521 0.01479 0.0
C492 C 0.99493 0.59055 0.04153 0.0
C493 C 0.9979 0.5707 0.97301 0.0
C494 C 0.02137 0.645 0.88754 0.0
C495 C 0.98319 0.58493 0.1409 0.0
H496 H 0.02692 0.67587 0.24783 0.0
H497 H 0.95589 0.68552 0.10594 0.0
H498 H 0.03486 0.61162 0.18513 0.0
H499 H 0.05058 0.63099 0.09635 0.0
H500 H 0.05107 0.63933 0.22617 0.0
H501 H 0.9376 0.65443 0.00689 0.0
H502 H 0.96116 0.64249 0.92391 0.0
H503 H 0.94924 0.623 0.02138 0.0
H504 H 0.02397 0.60274 0.78107 0.0
H505 H 0.9916 0.55214 0.99281 0.0
H506 H 0.03447 0.65296 0.9429 0.0
H507 H 1.00497 0.65762 0.88338 0.0
H508 H 0.0307 0.64487 0.81378 0.0
H509 H 0.98749 0.59925 0.19773 0.0
H510 H 0.98969 0.56655 0.16901 0.0
H511 H 0.96263 0.584 0.13164 0.0
C512 C 0.91292 0.22778 0.24553 0.0
C513 C 0.93518 0.23697 0.28615 0.0
C514 C 0.90019 0.20812 0.29247 0.0
C515 C 0.91079 0.19715 0.37836 0.0
C516 C 0.92983 0.21005 0.4301 0.0
C517 C 0.94186 0.23011 0.38304 0.0
C518 C 0.87825 0.19629 0.24079 0.0
C519 C 0.94069 0.19984 0.52536 0.0
C520 C 0.89809 0.13213 0.48179 0.0
C521 C 0.91499 0.11803 0.42548 0.0
C522 C 0.89487 0.1578 0.46311 0.0
C523 C 0.90967 0.16957 0.38925 0.0
C524 C 0.92599 0.155 0.32983 0.0
C525 C 0.9281 0.12945 0.34787 0.0
C526 C 0.87645 0.17212 0.52563 0.0
C527 C 0.94252 0.16642 0.2506 0.0
H528 H 0.90733 0.23364 0.17157 0.0
H529 H 0.95878 0.23766 0.41544 0.0
H530 H 0.88504 0.18158 0.18951 0.0
H531 H 0.86542 0.18744 0.29539 0.0
H532 H 0.8678 0.21032 0.19621 0.0
H533 H 0.95244 0.21391 0.56386 0.0
H534 H 0.92562 0.19373 0.57642 0.0
H535 H 0.95247 0.18333 0.50845 0.0
H536 H 0.88786 0.12324 0.54185 0.0
H537 H 0.94147 0.11868 0.30527 0.0
H538 H 0.87122 0.19031 0.49186 0.0
H539 H 0.88469 0.17554 0.60002 0.0
H540 H 0.85925 0.16089 0.5372 0.0
H541 H 0.93086 0.17435 0.19021 0.0
H542 H 0.95545 0.15261 0.21717 0.0
H543 H 0.95398 0.18168 0.28236 0.0
C544 C 0.29424 0.08627 0.28227 0.0
C545 C 0.2772 0.06651 0.2915 0.0
C546 C 0.3162 0.08613 0.33883 0.0
C547 C 0.3202 0.06629 0.40669 0.0
C548 C 0.29978 0.05121 0.43585 0.0
C549 C 0.27811 0.0516 0.37752 0.0
C550 C 0.33691 0.10388 0.31102 0.0
C551 C 0.3027 0.03088 0.51283 0.0
C552 C 0.37783 0.02921 0.34103 0.0
C553 C 0.39383 0.03457 0.41979 0.0
C554 C 0.35381 0.03916 0.33732 0.0
C555 C 0.34565 0.05554 0.41366 0.0
C556 C 0.36182 0.0613 0.49341 0.0
C557 C 0.38569 0.05048 0.49616 0.0
C558 C 0.33773 0.03256 0.249 0.0
C559 C 0.35398 0.07858 0.57614 0.0
H560 H 0.2928 0.09885 0.21914 0.0
H561 H 0.26433 0.03702 0.3887 0.0
H562 H 0.34917 0.1078 0.37556 0.0
H563 H 0.3485 0.09531 0.25179 0.0
H564 H 0.3293 0.12176 0.28183 0.0
H565 H 0.28432 0.025 0.54321 0.0
H566 H 0.31163 0.01438 0.47794 0.0
H567 H 0.31477 0.03709 0.57486 0.0
H568 H 0.3842 0.01731 0.28123 0.0
H569 H 0.39788 0.05428 0.55862 0.0
H570 H 0.33754 0.04865 0.19698 0.0
H571 H 0.31832 0.02829 0.27158 0.0
H572 H 0.34494 0.0161 0.20813 0.0
H573 H 0.34304 0.09462 0.54718 0.0
H574 H 0.37033 0.08581 0.61788 0.0
H575 H 0.34191 0.06826 0.62913 0.0
C576 C 0.59896 0.28322 0.32355 0.0
C577 C 0.57288 0.28421 0.32857 0.0
C578 C 0.61337 0.30311 0.36 0.0
C579 C 0.60107 0.32458 0.39671 0.0
C580 C 0.57508 0.32351 0.41699 0.0
C581 C 0.56135 0.30296 0.38396 0.0
C582 C 0.64133 0.30216 0.34847 0.0
C583 C 0.56102 0.34551 0.45963 0.0
C584 C 0.61717 0.3897 0.46848 0.0
C585 C 0.61117 0.40194 0.37886 0.0
C586 C 0.61866 0.36355 0.47274 0.0
C587 C 0.61279 0.34962 0.3869 0.0
C588 C 0.61115 0.36201 0.29362 0.0
C589 C 0.61116 0.38813 0.29071 0.0
C590 C 0.62361 0.35111 0.57151 0.0
C591 C 0.60551 0.34811 0.19869 0.0
H592 H 0.60791 0.26839 0.28201 0.0
H593 H 0.54113 0.30333 0.3885 0.0
H594 H 0.65085 0.31649 0.39433 0.0
H595 H 0.64834 0.2834 0.37015 0.0
H596 H 0.6464 0.30509 0.26933 0.0
H597 H 0.5409 0.34136 0.47127 0.0
H598 H 0.56913 0.3509 0.53214 0.0
H599 H 0.56254 0.36182 0.40879 0.0
H600 H 0.61818 0.40009 0.53732 0.0
H601 H 0.60809 0.39763 0.22044 0.0
H602 H 0.62828 0.33102 0.56333 0.0
H603 H 0.60696 0.35291 0.62005 0.0
H604 H 0.63927 0.36066 0.60985 0.0
H605 H 0.60618 0.36046 0.13216 0.0
H606 H 0.58656 0.33984 0.20333 0.0
H607 H 0.61902 0.33271 0.1878 0.0
C608 C 0.23374 0.42568 0.29463 0.0
C609 C 0.25036 0.44584 0.30119 0.0
C610 C 0.212 0.42552 0.35259 0.0
C611 C 0.20776 0.44555 0.41867 0.0
C612 C 0.22792 0.46121 0.44529 0.0
C613 C 0.24941 0.46106 0.38588 0.0
C614 C 0.19164 0.40713 0.32801 0.0
C615 C 0.22477 0.48176 0.52054 0.0
C616 C 0.14921 0.48098 0.35126 0.0
C617 C 0.13358 0.47585 0.43157 0.0
C618 C 0.17338 0.47151 0.34758 0.0
C619 C 0.18211 0.45579 0.42559 0.0
C620 C 0.1663 0.4502 0.50688 0.0
C621 C 0.14222 0.46059 0.50952 0.0
C622 C 0.18894 0.47783 0.25733 0.0
C623 C 0.17467 0.43357 0.59131 0.0
H624 H 0.23524 0.41292 0.23247 0.0
H625 H 0.2629 0.47598 0.39487 0.0
H626 H 0.17959 0.41514 0.26881 0.0
H627 H 0.19959 0.38933 0.30005 0.0
H628 H 0.17978 0.4032 0.39386 0.0
H629 H 0.2431 0.48821 0.5493 0.0
H630 H 0.21532 0.4979 0.48466 0.0
H631 H 0.21306 0.4755 0.58382 0.0
H632 H 0.1424 0.4923 0.29014 0.0
H633 H 0.13028 0.45693 0.57301 0.0
H634 H 0.18891 0.4615 0.20702 0.0
H635 H 0.20841 0.48238 0.27781 0.0
H636 H 0.18136 0.49402 0.21526 0.0
H637 H 0.18654 0.41802 0.56444 0.0
H638 H 0.15851 0.42564 0.63249 0.0
H639 H 0.1859 0.44468 0.64435 0.0
C640 C 0.06823 0.78186 0.10382 0.0
C641 C 0.04442 0.79019 0.13111 0.0
C642 C 0.08439 0.79757 0.04983 0.0
C643 C 0.07658 0.82218 0.02649 0.0
C644 C 0.05137 0.82925 0.04342 0.0
C645 C 0.0355 0.81285 0.09369 0.0
C646 C 0.11029 0.78835 0.02617 0.0
C647 C 0.04187 0.85527 0.02087 0.0
C648 C 0.10981 0.88117 0.07588 0.0
C649 C 0.10351 0.89368 0.98757 0.0
C650 C 0.10497 0.8556 0.0865 0.0
C651 C 0.0949 0.84231 0.00499 0.0
C652 C 0.09511 0.85345 0.90982 0.0
C653 C 0.09864 0.87936 0.90216 0.0
C654 C 0.10673 0.84398 0.18866 0.0
C655 C 0.08776 0.83879 0.81909 0.0
H656 H 0.075 0.76409 0.13172 0.0
H657 H 0.01687 0.81894 0.11397 0.0
H658 H 0.12012 0.80049 0.97175 0.0
H659 H 0.12144 0.78734 0.09556 0.0
H660 H 0.10929 0.76911 0.99587 0.0
H661 H 0.02153 0.85719 0.03511 0.0
H662 H 0.05183 0.86906 0.06782 0.0
H663 H 0.04539 0.86023 0.94217 0.0
H664 H 0.11547 0.89184 0.14038 0.0
H665 H 0.09474 0.88839 0.83171 0.0
H666 H 0.11639 0.82572 0.18463 0.0
H667 H 0.08768 0.84065 0.21847 0.0
H668 H 0.11697 0.8561 0.24172 0.0
H669 H 0.09401 0.81908 0.82553 0.0
H670 H 0.0959 0.84722 0.75083 0.0
H671 H 0.06715 0.8388 0.81146 0.0
C672 C 0.73209 0.07381 0.17897 0.0
C673 C 0.73065 0.0477 0.18092 0.0
C674 C 0.7118 0.08801 0.14442 0.0
C675 C 0.68967 0.07554 0.11596 0.0
C676 C 0.69008 0.04932 0.10138 0.0
C677 C 0.71098 0.03572 0.13227 0.0
C678 C 0.71288 0.11607 0.15161 0.0
C679 C 0.66715 0.03509 0.0687 0.0
C680 C 0.62727 0.08855 0.22791 0.0
C681 C 0.6128 0.08949 0.14142 0.0
C682 C 0.6533 0.08711 0.2221 0.0
C683 C 0.66502 0.0879 0.12738 0.0
C684 C 0.65076 0.0941 0.0425 0.0
C685 C 0.62464 0.09439 0.05005 0.0
C686 C 0.66745 0.08056 0.31578 0.0
C687 C 0.66259 0.0973 0.94148 0.0
H688 H 0.74753 0.08308 0.21563 0.0
H689 H 0.71017 0.01547 0.1333 0.0
H690 H 0.7005 0.12504 0.09578 0.0
H691 H 0.70668 0.12197 0.22661 0.0
H692 H 0.73228 0.1229 0.14065 0.0
H693 H 0.67123 0.01507 0.05462 0.0
H694 H 0.65258 0.03622 0.12723 0.0
H695 H 0.65934 0.04336 0.99987 0.0
H696 H 0.61816 0.08588 0.29919 0.0
H697 H 0.61372 0.09578 0.98245 0.0
H698 H 0.68574 0.09015 0.31882 0.0
H699 H 0.67083 0.06013 0.31722 0.0
H700 H 0.65673 0.08547 0.3837 0.0
H701 H 0.68264 0.10233 0.94685 0.0
H702 H 0.65268 0.112 0.89845 0.0
H703 H 0.66091 0.07964 0.89907 0.0
C704 C 0.4431 0.73214 0.16546 0.0
C705 C 0.46922 0.73149 0.16222 0.0
C706 C 0.42906 0.71341 0.1187 0.0
C707 C 0.44174 0.69337 0.07281 0.0
C708 C 0.46781 0.69518 0.05538 0.0
C709 C 0.48123 0.71457 0.09962 0.0
C710 C 0.40108 0.71335 0.13015 0.0
C711 C 0.48218 0.67466 0.00382 0.0
C712 C 0.432 0.62673 0.14358 0.0
C713 C 0.43023 0.61623 0.04909 0.0
C714 C 0.4324 0.65267 0.15496 0.0
C715 C 0.43016 0.66821 0.06949 0.0
C716 C 0.42355 0.6575 0.97724 0.0
C717 C 0.42415 0.63144 0.96751 0.0
C718 C 0.43959 0.66296 0.25543 0.0
C719 C 0.41898 0.67326 0.88592 0.0
H720 H 0.43383 0.74547 0.21345 0.0
H721 H 0.50148 0.71434 0.09722 0.0
H722 H 0.39194 0.70345 0.06758 0.0
H723 H 0.39593 0.70368 0.20029 0.0
H724 H 0.39376 0.73273 0.13403 0.0
H725 H 0.50195 0.67991 0.99005 0.0
H726 H 0.48191 0.65748 0.05029 0.0
H727 H 0.47341 0.67012 0.93158 0.0
H728 H 0.43664 0.61485 0.20643 0.0
H729 H 0.42242 0.62316 0.89437 0.0
H730 H 0.45964 0.66814 0.25419 0.0
H731 H 0.43678 0.64903 0.31587 0.0
H732 H 0.42866 0.67988 0.27359 0.0
H733 H 0.41411 0.69281 0.90488 0.0
H734 H 0.40365 0.66509 0.84095 0.0
H735 H 0.43596 0.67335 0.83864 0.0
C736 C 0.80267 0.5978 0.31817 0.0
C737 C 0.78583 0.5802 0.27973 0.0
C738 C 0.82634 0.60052 0.27474 0.0
C739 C 0.83207 0.58647 0.189 0.0
C740 C 0.81239 0.57536 0.13467 0.0
C741 C 0.78913 0.57231 0.18117 0.0
C742 C 0.84636 0.61427 0.33095 0.0
C743 C 0.81727 0.56191 0.03831 0.0
C744 C 0.89895 0.57401 0.10579 0.0
C745 C 0.90398 0.55191 0.1581 0.0
C746 C 0.87579 0.58612 0.1162 0.0
C747 C 0.85747 0.57555 0.1796 0.0
C748 C 0.86293 0.55323 0.23302 0.0
C749 C 0.88619 0.54188 0.2219 0.0
C750 C 0.87117 0.60999 0.05919 0.0
C751 C 0.84431 0.54091 0.30179 0.0
H752 H 0.79945 0.60534 0.3918 0.0
H753 H 0.77563 0.55982 0.14772 0.0
H754 H 0.85656 0.60084 0.37922 0.0
H755 H 0.86001 0.62289 0.27912 0.0
H756 H 0.83823 0.629 0.37901 0.0
H757 H 0.79989 0.56006 0.99388 0.0
H758 H 0.83156 0.57181 0.99326 0.0
H759 H 0.82436 0.54286 0.05486 0.0
H760 H 0.9129 0.58146 0.0553 0.0
H761 H 0.89017 0.52441 0.25983 0.0
H762 H 0.8758 0.62608 0.10751 0.0
H763 H 0.85136 0.61186 0.03634 0.0
H764 H 0.88317 0.61118 0.99196 0.0
H765 H 0.85013 0.5218 0.3241 0.0
H766 H 0.8257 0.53936 0.26671 0.0
H767 H 0.84263 0.55236 0.36986 0.0
C768 C 0.9775 0.20238 0.96128 0.0
C769 C 0.99488 0.21326 0.02668 0.0
C770 C 0.98159 0.17881 0.91786 0.0
C771 C 1.00403 0.16568 0.93741 0.0
C772 C 0.02266 0.17754 0.99608 0.0
C773 C 0.01781 0.20102 0.04066 0.0
C774 C 0.9609 0.16716 0.85747 0.0
C775 C 0.04719 0.16474 0.01677 0.0
C776 C 1.00087 0.09401 0.93778 0.0
C777 C 1.00885 0.08782 0.84154 0.0
C778 C 0.9993 0.11908 0.96939 0.0
C779 C 1.00675 0.13876 0.90484 0.0
C780 C 0.01545 0.13256 0.8082 0.0
C781 C 0.01593 0.1073 0.77714 0.0
C782 C 0.98875 0.12452 0.07105 0.0
C783 C 0.0243 0.15264 0.73755 0.0
H784 H 0.95973 0.21164 0.94954 0.0
H785 H 0.03131 0.20898 0.0915 0.0
H786 H 0.96819 0.16004 0.78584 0.0
H787 H 0.95306 0.15098 0.89876 0.0
H788 H 0.94554 0.18054 0.84174 0.0
H789 H 0.06107 0.17768 0.04994 0.0
H790 H 0.04414 0.14899 0.06923 0.0
H791 H 0.05505 0.15685 0.9473 0.0
H792 H 0.99512 0.07918 0.98789 0.0
H793 H 0.02233 0.10275 0.70293 0.0
H794 H 0.97121 0.13534 0.06274 0.0
H795 H 1.00195 0.13612 0.11446 0.0
H796 H 0.98462 0.10723 0.11396 0.0
H797 H 0.03252 0.14475 0.66865 0.0
H798 H 0.03849 0.16453 0.77444 0.0
H799 H 1.00848 0.16492 0.71661 0.0
C800 C 0.31197 1.00233 0.98306 0.0
C801 C 0.30115 0.02624 0.98176 0.0
C802 C 0.33633 0.99813 0.94505 0.0
C803 C 0.35055 0.01832 0.90562 0.0
C804 C 0.339 0.0421 0.89829 0.0
C805 C 0.31461 0.04566 0.93545 0.0
C806 C 0.3474 0.97232 0.95266 0.0
C807 C 0.35313 0.06448 0.85933 0.0
C808 C 0.42203 0.0167 0.9331 0.0
C809 C 0.43033 1.01156 0.83611 0.0
C810 C 0.39638 0.01881 0.95616 0.0
C811 C 0.37805 0.01532 0.88119 0.0
C812 C 0.38625 1.01002 0.783 0.0
C813 C 0.41213 1.00832 0.76165 0.0
C814 C 0.38893 0.02475 0.06158 0.0
C815 C 0.36766 1.00627 0.70017 0.0
H816 H 0.3021 0.98723 0.01984 0.0
H817 H 0.30664 0.06428 0.93442 0.0
H818 H 0.35684 0.96721 0.88215 0.0
H819 H 0.36168 0.97199 0.01234 0.0
H820 H 0.33303 0.95799 0.97012 0.0
H821 H 0.34037 0.07997 0.83822 0.0
H822 H 0.3659 0.07132 0.9182 0.0
H823 H 0.36472 0.05955 0.794 0.0
H824 H 0.43565 0.0193 0.99168 0.0
H825 H 0.41806 1.00441 0.68626 0.0
H826 H 0.3794 1.00832 0.09452 0.0
H827 H 0.37562 0.04062 0.06307 0.0
H828 H 0.40524 0.02948 0.10892 0.0
H829 H 0.35447 0.99108 0.72027 0.0
H830 H 0.37682 1.00154 0.62857 0.0
H831 H 0.35646 0.02349 0.68946 0.0
C832 C 0.5493 0.3094 0.96503 0.0
C833 C 0.52928 0.29756 0.01398 0.0
C834 C 0.54651 0.33279 0.9179 0.0
C835 C 0.52289 0.34474 0.91704 0.0
C836 C 0.50208 0.33178 0.95809 0.0
C837 C 0.50555 0.30853 0.007 0.0
C838 C 0.56945 0.34572 0.87754 0.0
C839 C 0.4764 0.34329 0.95661 0.0
C840 C 0.52227 0.4164 0.92361 0.0
C841 C 0.51885 0.423 0.82327 0.0
C842 C 0.5236 0.3912 0.95447 0.0
C843 C 0.52074 0.37171 0.88408 0.0
C844 C 0.51694 0.37822 0.78271 0.0
C845 C 0.51639 0.40366 0.75344 0.0
C846 C 0.52861 0.38547 0.06269 0.0
C847 C 0.51346 0.35827 0.70498 0.0
H848 H 0.5678 0.30132 0.97146 0.0
H849 H 0.49007 0.2999 0.04603 0.0
H850 H 0.56581 0.35361 0.80262 0.0
H851 H 0.57446 0.36149 0.927 0.0
H852 H 0.58572 0.33291 0.87287 0.0
H853 H 0.46168 0.32949 0.97618 0.0
H854 H 0.47561 0.3588 0.01093 0.0
H855 H 0.47226 0.35124 0.88212 0.0
H856 H 0.52448 0.43104 0.97834 0.0
H857 H 0.51364 0.40842 0.67583 0.0
H858 H 0.54587 0.37414 0.0698 0.0
H859 H 0.51306 0.37426 0.09413 0.0
H860 H 0.53081 0.40264 0.10795 0.0
H861 H 0.53075 0.347 0.69824 0.0
H862 H 0.50894 0.36625 0.63081 0.0
H863 H 0.49826 0.34537 0.72763 0.0
C864 C 0.2106 0.46571 0.94677 0.0
C865 C 0.22394 0.48533 0.9919 0.0
C866 C 0.18596 0.46885 0.91094 0.0
C867 C 0.17388 0.49235 0.91892 0.0
C868 C 0.18782 0.51269 0.95825 0.0
C869 C 0.21248 0.50894 0.9945 0.0
C870 C 0.17226 0.44632 0.87175 0.0
C871 C 0.17619 0.53821 0.96722 0.0
C872 C 0.11232 0.50229 0.77311 0.0
C873 C 0.09386 0.49827 0.84627 0.0
C874 C 0.13819 0.50074 0.79542 0.0
C875 C 0.14626 0.49497 0.89355 0.0
C876 C 0.12771 0.49073 0.96731 0.0
C877 C 0.10203 0.49251 0.94316 0.0
C878 C 0.15694 0.50517 0.71353 0.0
C879 C 0.13499 0.48437 0.0727 0.0
H880 H 0.21896 0.44727 0.94509 0.0
H881 H 0.22216 0.52417 0.03075 0.0
H882 H 0.15956 0.43911 0.93043 0.0
H883 H 0.16063 0.45123 0.80638 0.0
H884 H 0.18529 0.4311 0.85056 0.0
H885 H 0.19018 0.55273 0.98628 0.0
H886 H 0.16685 0.54355 0.89664 0.0
H887 H 0.16171 0.53785 0.02619 0.0
H888 H 0.10658 0.50665 0.69777 0.0
H889 H 0.08828 0.48936 1.00095 0.0
H890 H 0.16965 0.52066 0.7344 0.0
H891 H 0.14789 0.50984 0.64152 0.0
H892 H 0.16863 0.48828 0.70327 0.0
H893 H 0.14805 0.46829 0.07386 0.0
H894 H 0.11858 0.47977 0.1199 0.0
H895 H 0.14482 0.50053 0.10595 0.0
C896 C 0.98936 0.81486 0.48742 0.0
C897 C 0.01273 0.80404 0.46844 0.0
C898 C 0.98736 0.83814 0.53646 0.0
C899 C 1.00925 0.85119 0.56593 0.0
C900 C 0.03271 0.83937 0.55339 0.0
C901 C 0.03412 0.81602 0.50574 0.0
C902 C 0.96189 0.84965 0.54961 0.0
C903 C 0.05669 0.85241 0.58107 0.0
C904 C 1.00931 0.92276 0.55719 0.0
C905 C 1.00866 0.92935 0.65819 0.0
C906 C 1.00926 0.89758 0.52673 0.0
C907 C 1.00806 0.87814 0.59858 0.0
C908 C 1.00702 0.88464 0.70073 0.0
C909 C 1.00759 0.91007 0.72932 0.0
C910 C 1.0109 0.89178 0.41713 0.0
C911 C 1.00542 0.86469 0.77987 0.0
H912 H 0.97279 0.80611 0.45713 0.0
H913 H 0.0523 0.80807 0.48972 0.0
H914 H 0.96001 0.85783 0.62492 0.0
H915 H 0.95944 0.86502 0.49492 0.0
H916 H 0.94671 0.83581 0.53832 0.0
H917 H 0.06107 0.86672 0.52381 0.0
H918 H 0.05487 0.86215 0.65328 0.0
H919 H 0.07262 0.83917 0.58531 0.0
H920 H 1.01028 0.93737 0.50132 0.0
H921 H 1.00696 0.91483 0.80751 0.0
H922 H 0.99462 0.88038 0.39411 0.0
H923 H 0.02793 0.88062 0.40202 0.0
H924 H 1.0115 0.90893 0.37045 0.0
H925 H 1.00359 0.87268 0.85559 0.0
H926 H 0.02235 0.85278 0.77734 0.0
H927 H 0.98915 0.85239 0.76556 0.0
C928 C 0.70425 0.03438 0.55144 0.0
C929 C 0.71681 0.01343 0.51317 0.0
C930 C 0.68067 0.03229 0.59738 0.0
C931 C 0.66918 1.00854 0.60711 0.0
C932 C 0.68277 0.98707 0.5767 0.0
C933 C 0.70627 0.98976 0.52945 0.0
C934 C 0.66713 0.05583 0.62704 0.0
C935 C 0.67166 0.96132 0.58723 0.0
C936 C 0.60938 1.00425 0.76582 0.0
C937 C 0.59047 1.00487 0.69329 0.0
C938 C 0.63498 1.00477 0.73927 0.0
C939 C 0.64206 1.00661 0.63774 0.0
C940 C 0.62301 1.00754 0.56447 0.0
C941 C 0.59767 1.00635 0.59289 0.0
C942 C 0.65445 1.0035 0.82008 0.0
C943 C 0.62937 1.01029 0.45554 0.0
H944 H 0.71197 0.05279 0.53745 0.0
H945 H 0.71544 0.97352 0.49835 0.0
H946 H 0.65896 0.05386 0.70242 0.0
H947 H 0.6796 0.07242 0.62609 0.0
H948 H 0.65151 0.05927 0.57453 0.0
H949 H 0.66342 0.9588 0.6623 0.0
H950 H 0.65641 0.959 0.53222 0.0
H951 H 0.68575 0.94644 0.57464 0.0
H952 H 0.60419 1.00309 0.84358 0.0
H953 H 0.58338 1.00717 0.53593 0.0
H954 H 0.64611 0.99982 0.8943 0.0
H955 H 0.66484 0.0214 0.82317 0.0
H956 H 0.66821 0.98859 0.80351 0.0
H957 H 0.64015 0.02774 0.44327 0.0
H958 H 0.61248 1.01083 0.40764 0.0
H959 H 0.64133 0.99452 0.43144 0.0
C960 C 0.53004 0.69881 0.49732 0.0
C961 C 0.50626 0.70923 0.48299 0.0
C962 C 0.53298 0.67489 0.54129 0.0
C963 C 0.51166 0.66083 0.57052 0.0
C964 C 0.4878 0.67212 0.5626 0.0
C965 C 0.48546 0.69608 0.51992 0.0
C966 C 0.55884 0.66401 0.55045 0.0
C967 C 0.46444 0.65813 0.59201 0.0
C968 C 0.51432 0.58928 0.55458 0.0
C969 C 0.51583 0.58195 0.65485 0.0
C970 C 0.51312 0.61472 0.52661 0.0
C971 C 0.51387 0.63365 0.60023 0.0
C972 C 0.51566 0.6264 0.70157 0.0
C973 C 0.51651 0.60078 0.72752 0.0
C974 C 0.51054 0.62131 0.41785 0.0
C975 C 0.51679 0.64572 0.78282 0.0
H976 H 0.54619 0.70854 0.46783 0.0
H977 H 0.46698 0.70385 0.50852 0.0
H978 H 0.56151 0.65557 0.62515 0.0
H979 H 0.56123 0.64893 0.49491 0.0
H980 H 0.57357 0.67829 0.53784 0.0
H981 H 0.44762 0.67026 0.5904 0.0
H982 H 0.46145 0.64237 0.53998 0.0
H983 H 0.46639 0.65009 0.6677 0.0
H984 H 0.51361 0.57507 0.49753 0.0
H985 H 0.518 0.59553 0.80508 0.0
H986 H 0.52622 0.63351 0.39433 0.0
H987 H 0.493 0.63193 0.40563 0.0
H988 H 0.51029 0.60452 0.36957 0.0
H989 H 0.51664 0.63717 0.85821 0.0
H990 H 0.50079 0.65877 0.77669 0.0
H991 H 0.53406 0.65698 0.77442 0.0
C992 C 0.81381 0.53247 0.61169 0.0
C993 C 0.80471 0.51846 0.531 0.0
C994 C 0.83823 0.52911 0.64933 0.0
C995 C 0.85435 0.51114 0.60614 0.0
C996 C 0.84462 0.4956 0.5298 0.0
C997 C 0.82008 0.4995 0.49305 0.0
C998 C 0.84739 0.54633 0.73009 0.0
C999 C 0.86072 0.47595 0.48183 0.0
C1000 C 0.92523 0.52365 0.60758 0.0
C1001 C 0.93377 0.50896 0.68739 0.0
C1002 C 0.89966 0.52474 0.58181 0.0
C1003 C 0.88181 0.51019 0.63463 0.0
C1004 C 0.89033 0.4952 0.7151 0.0
C1005 C 0.91599 0.49498 0.74104 0.0
C1006 C 0.8918 0.54139 0.49693 0.0
C1007 C 0.87234 0.47917 0.77339 0.0
H1008 H 0.8024 0.54754 0.64031 0.0
H1009 H 0.8137 0.48902 0.42909 0.0
H1010 H 0.85696 0.53561 0.78959 0.0
H1011 H 0.86121 0.55959 0.69827 0.0
H1012 H 0.83196 0.55725 0.76395 0.0
H1013 H 0.84962 0.46305 0.43481 0.0
H1014 H 0.87499 0.48512 0.43431 0.0
H1015 H 0.87075 0.46489 0.53919 0.0
H1016 H 0.93857 0.53467 0.5656 0.0
H1017 H 0.9222 0.48339 0.80241 0.0
H1018 H 0.87641 0.55393 0.52032 0.0
H1019 H 0.88469 0.52958 0.43604 0.0
H1020 H 0.90743 0.55293 0.46774 0.0
H1021 H 0.85771 0.49101 0.80763 0.0
H1022 H 0.88178 0.46833 0.83307 0.0
H1023 H 0.86278 0.46596 0.72269 0.0
loop_
_geom_bond_atom_site_label_1
_geom_bond_atom_site_label_2
_geom_bond_distance
_geom_bond_site_symmetry_2
_ccdc_geom_bond_type
H0 C5 0.930 . S
H1 C8 0.930 . S
H2 C10 0.930 . S
H3 C4 1.016 . S
C4 H3 1.016 . S
C4 N11 1.286 . S
C5 H0 0.930 . S
C5 C6 1.397 . S
C5 C7 1.361 . S
C6 C5 1.397 . S
C6 C10 1.390 . S
C7 C5 1.361 . S
C7 C8 1.393 . S
C7 N11 1.413 . S
C8 H1 0.930 . S
C8 C7 1.393 . S
C8 C9 1.399 . S
C9 C8 1.399 . S
C9 C10 1.381 . S
C10 H2 0.930 . S
C10 C6 1.390 . S
C10 C9 1.381 . S
N11 C4 1.286 . S
N11 C7 1.413 . S
H12 C17 0.930 . S
H13 C20 0.930 . S
H14 C22 0.930 . S
H15 C16 1.029 . S
C16 H15 1.029 . S
C16 N23 1.268 1_655 S
C17 H12 0.930 . S
C17 C18 1.397 . S
C17 C19 1.361 . S
C18 C17 1.397 . S
C18 C22 1.390 1_455 S
C19 C17 1.361 . S
C19 C20 1.393 . S
C19 N23 1.413 . S
C20 H13 0.930 . S
C20 C19 1.393 . S
C20 C21 1.402 . S
C21 C20 1.402 . S
C21 C22 1.379 1_455 S
C22 H14 0.930 . S
C22 C18 1.390 1_655 S
C22 C21 1.379 1_655 S
N23 C16 1.268 1_455 S
N23 C19 1.413 . S
H24 C29 0.930 . S
H25 C32 0.930 . S
H26 C34 0.930 . S
H27 C28 1.030 . S
C28 H27 1.030 . S
C28 N35 1.268 1_565 S
C29 H24 0.930 . S
C29 C30 1.397 . S
C29 C31 1.361 . S
C30 C29 1.397 . S
C30 C34 1.390 1_545 S
C31 C29 1.361 . S
C31 C32 1.393 . S
C31 N35 1.413 . S
C32 H25 0.930 . S
C32 C31 1.393 . S
C32 C33 1.402 . S
C33 C32 1.402 . S
C33 C34 1.379 1_545 S
C34 H26 0.930 . S
C34 C30 1.390 1_565 S
C34 C33 1.379 1_565 S
N35 C28 1.268 1_545 S
N35 C31 1.413 . S
H36 C41 0.930 . S
H37 C44 0.930 . S
H38 C46 0.930 . S
H39 C40 1.016 . S
C40 H39 1.016 . S
C40 N47 1.286 . S
C41 H36 0.930 . S
C41 C42 1.397 . S
C41 C43 1.361 . S
C42 C41 1.397 . S
C42 C46 1.390 . S
C43 C41 1.361 . S
C43 C44 1.393 . S
C43 N47 1.413 . S
C44 H37 0.930 . S
C44 C43 1.393 . S
C44 C45 1.399 . S
C45 C44 1.399 . S
C45 C46 1.381 . S
C46 H38 0.930 . S
C46 C42 1.390 . S
C46 C45 1.381 . S
N47 C40 1.286 . S
N47 C43 1.413 . S
H48 C53 0.930 . S
H49 C56 0.930 . S
H50 C58 0.930 . S
H51 C52 1.016 . S
C52 H51 1.016 . S
C52 N59 1.286 . S
C53 H48 0.930 . S
C53 C54 1.397 . S
C53 C55 1.361 1_556 S
C54 C53 1.397 . S
C54 C58 1.390 1_556 S
C55 C53 1.361 1_554 S
C55 C56 1.393 . S
C55 N59 1.413 . S
C56 H49 0.930 . S
C56 C55 1.393 . S
C56 C57 1.399 . S
C57 C56 1.399 . S
C57 C58 1.381 . S
C58 H50 0.930 . S
C58 C54 1.390 1_554 S
C58 C57 1.381 . S
N59 C52 1.286 . S
N59 C55 1.413 . S
H60 C65 0.930 . S
H61 C68 0.930 . S
H62 C70 0.930 . S
H63 C64 1.026 . S
C64 H63 1.026 . S
C64 N71 1.273 1_655 S
C65 H60 0.930 . S
C65 C66 1.397 . S
C65 C67 1.361 1_556 S
C66 C65 1.397 . S
C66 C70 1.390 1_456 S
C67 C65 1.361 1_554 S
C67 C68 1.393 . S
C67 N71 1.413 . S
C68 H61 0.930 . S
C68 C67 1.393 . S
C68 C69 1.404 . S
C69 C68 1.404 . S
C69 C70 1.378 1_455 S
C70 H62 0.930 . S
C70 C66 1.390 1_654 S
C70 C69 1.378 1_655 S
N71 C64 1.273 1_455 S
N71 C67 1.413 . S
H72 C77 0.930 . S
H73 C80 0.930 . S
H74 C82 0.930 . S
H75 C76 1.026 . S
C76 H75 1.026 . S
C76 N83 1.273 1_565 S
C77 H72 0.930 . S
C77 C78 1.397 . S
C77 C79 1.361 1_556 S
C78 C77 1.397 . S
C78 C82 1.390 1_546 S
C79 C77 1.361 1_554 S
C79 C80 1.393 . S
C79 N83 1.413 . S
C80 H73 0.930 . S
C80 C79 1.393 . S
C80 C81 1.404 . S
C81 C80 1.404 . S
C81 C82 1.378 1_545 S
C82 H74 0.930 . S
C82 C78 1.390 1_564 S
C82 C81 1.378 1_565 S
N83 C76 1.273 1_545 S
N83 C79 1.413 . S
H84 C89 0.930 . S
H85 C92 0.930 . S
H86 C94 0.930 1_556 S
H87 C88 1.016 . S
C88 H87 1.016 . S
C88 N95 1.286 . S
C89 H84 0.930 . S
C89 C90 1.397 . S
C89 C91 1.361 1_556 S
C90 C89 1.397 . S
C90 C94 1.390 1_556 S
C91 C89 1.361 1_554 S
C91 C92 1.393 . S
C91 N95 1.413 . S
C92 H85 0.930 . S
C92 C91 1.393 . S
C92 C93 1.399 . S
C93 C92 1.399 . S
C93 C94 1.381 . S
C94 H86 0.930 1_554 S
C94 C90 1.390 1_554 S
C94 C93 1.381 . S
N95 C88 1.286 . S
N95 C91 1.413 . S
Sm96 C98 2.846 . S
Sm96 O116 2.543 . S
Sm96 O117 2.450 . S
Sm96 O118 2.681 1_565 S
Sm96 O119 2.464 . S
Sm96 O120 2.396 . S
Sm96 O124 2.386 1_455 S
Sm96 O127 2.408 1_565 S
Sm97 C107 2.846 . S
Sm97 O118 2.386 1_655 S
Sm97 O121 2.408 1_545 S
Sm97 O122 2.543 . S
Sm97 O123 2.450 . S
Sm97 O124 2.681 1_545 S
Sm97 O125 2.464 . S
Sm97 O126 2.396 . S
C98 Sm96 2.846 . S
C98 C99 1.506 1_556 S
C98 O116 1.261 . S
C98 O117 1.242 . S
C99 C98 1.506 1_554 S
C99 C100 1.358 . S
C99 C104 1.382 . S
C100 C99 1.358 . S
C100 C101 1.385 . S
C100 H128 0.930 1_455 S
C101 C100 1.385 . S
C101 C102 1.395 . S
C101 H129 0.929 1_455 S
C102 C101 1.395 . S
C102 C103 1.335 . S
C103 C102 1.335 . S
C103 C104 1.398 . S
C103 H130 0.930 . S
C104 C99 1.382 . S
C104 C103 1.398 . S
C104 H131 0.931 . S
C105 O118 1.271 1_565 S
C105 O119 1.251 . S
C106 O120 1.252 1_655 S
C106 O121 1.272 . S
C107 Sm97 2.846 . S
C107 C108 1.506 . S
C107 O122 1.261 . S
C107 O123 1.242 . S
C108 C107 1.506 . S
C108 C109 1.358 . S
C108 C113 1.382 . S
C109 C108 1.358 . S
C109 C110 1.385 . S
C109 H132 0.930 1_655 S
C110 C109 1.385 . S
C110 C111 1.395 . S
C110 H133 0.929 1_655 S
C111 C110 1.395 . S
C111 C112 1.335 . S
C112 C111 1.335 . S
C112 C113 1.398 . S
C112 H134 0.930 . S
C113 C108 1.382 . S
C113 C112 1.398 . S
C113 H135 0.929 . S
C114 O124 1.271 1_545 S
C114 O125 1.251 . S
C115 O126 1.252 1_455 S
C115 O127 1.272 . S
O116 Sm96 2.543 . S
O116 C98 1.261 . S
O117 Sm96 2.450 . S
O117 C98 1.242 . S
O118 Sm96 2.681 1_545 S
O118 Sm97 2.386 1_455 S
O118 C105 1.271 1_545 S
O119 Sm96 2.464 . S
O119 C105 1.251 . S
O120 Sm96 2.396 . S
O120 C106 1.252 1_455 S
O121 Sm97 2.408 1_565 S
O121 C106 1.272 . S
O122 Sm97 2.543 . S
O122 C107 1.261 . S
O123 Sm97 2.450 . S
O123 C107 1.242 . S
O124 Sm96 2.386 1_655 S
O124 Sm97 2.681 1_565 S
O124 C114 1.271 1_565 S
O125 Sm97 2.464 . S
O125 C114 1.251 . S
O126 Sm97 2.396 . S
O126 C115 1.252 1_655 S
O127 Sm96 2.408 1_545 S
O127 C115 1.272 . S
H128 C100 0.930 1_655 S
H129 C101 0.929 1_655 S
H130 C103 0.930 . S
H131 C104 0.931 . S
H132 C109 0.930 1_455 S
H133 C110 0.929 1_455 S
H134 C112 0.930 . S
H135 C113 0.929 . S
Sm136 C138 2.846 . S
Sm136 O156 2.543 . S
Sm136 O157 2.450 . S
Sm136 O158 2.681 . S
Sm136 O159 2.464 . S
Sm136 O160 2.396 . S
Sm136 O164 2.386 1_545 S
Sm136 O167 2.408 . S
Sm137 C147 2.846 . S
Sm137 O158 2.386 1_565 S
Sm137 O161 2.408 . S
Sm137 O162 2.543 . S
Sm137 O163 2.450 . S
Sm137 O164 2.681 . S
Sm137 O165 2.464 . S
Sm137 O166 2.396 . S
C138 Sm136 2.846 . S
C138 C139 1.506 1_556 S
C138 O156 1.261 . S
C138 O157 1.242 . S
C139 C138 1.506 1_554 S
C139 C140 1.358 . S
C139 C144 1.382 . S
C140 C139 1.358 . S
C140 C141 1.385 . S
C140 H168 0.930 1_545 S
C141 C140 1.385 . S
C141 C142 1.395 . S
C141 H169 0.929 1_545 S
C142 C141 1.395 . S
C142 C143 1.335 . S
C143 C142 1.335 . S
C143 C144 1.398 . S
C143 H170 0.930 . S
C144 C139 1.382 . S
C144 C143 1.398 . S
C144 H171 0.930 . S
C145 O158 1.271 . S
C145 O159 1.251 . S
C146 O160 1.252 1_565 S
C146 O161 1.272 . S
C147 Sm137 2.846 . S
C147 C148 1.506 . S
C147 O162 1.261 . S
C147 O163 1.242 . S
C148 C147 1.506 . S
C148 C149 1.358 . S
C148 C153 1.382 . S
C149 C148 1.358 . S
C149 C150 1.385 . S
C149 H172 0.930 1_565 S
C150 C149 1.385 . S
C150 C151 1.395 . S
C150 H173 0.929 1_565 S
C151 C150 1.395 . S
C151 C152 1.335 . S
C152 C151 1.335 . S
C152 C153 1.398 . S
C152 H174 0.930 . S
C153 C148 1.382 . S
C153 C152 1.398 . S
C153 H175 0.929 . S
C154 O164 1.271 . S
C154 O165 1.251 . S
C155 O166 1.252 1_545 S
C155 O167 1.272 . S
O156 Sm136 2.543 . S
O156 C138 1.261 . S
O157 Sm136 2.450 . S
O157 C138 1.242 . S
O158 Sm136 2.681 . S
O158 Sm137 2.386 1_545 S
O158 C145 1.271 . S
O159 Sm136 2.464 . S
O159 C145 1.251 . S
O160 Sm136 2.396 . S
O160 C146 1.252 1_545 S
O161 Sm137 2.408 . S
O161 C146 1.272 . S
O162 Sm137 2.543 . S
O162 C147 1.261 . S
O163 Sm137 2.450 . S
O163 C147 1.242 . S
O164 Sm136 2.386 1_565 S
O164 Sm137 2.681 . S
O164 C154 1.271 . S
O165 Sm137 2.464 . S
O165 C154 1.251 . S
O166 Sm137 2.396 . S
O166 C155 1.252 1_565 S
O167 Sm136 2.408 . S
O167 C155 1.272 . S
H168 C140 0.930 1_565 S
H169 C141 0.929 1_565 S
H170 C143 0.930 . S
H171 C144 0.930 . S
H172 C149 0.930 1_545 S
H173 C150 0.929 1_545 S
H174 C152 0.930 . S
H175 C153 0.929 . S
Sm176 C178 2.846 . S
Sm176 O196 2.543 . S
Sm176 O197 2.450 . S
Sm176 O198 2.681 . S
Sm176 O199 2.464 . S
Sm176 O200 2.396 . S
Sm176 O204 2.386 . S
Sm176 O207 2.408 . S
Sm177 C187 2.846 . S
Sm177 O198 2.386 . S
Sm177 O201 2.408 . S
Sm177 O202 2.543 . S
Sm177 O203 2.450 . S
Sm177 O204 2.681 . S
Sm177 O205 2.464 . S
Sm177 O206 2.396 . S
C178 Sm176 2.846 . S
C178 C179 1.506 1_556 S
C178 O196 1.261 . S
C178 O197 1.242 . S
C179 C178 1.506 1_554 S
C179 C180 1.358 . S
C179 C184 1.382 . S
C180 C179 1.358 . S
C180 C181 1.385 . S
C180 H208 0.930 . S
C181 C180 1.385 . S
C181 C182 1.395 . S
C181 H209 0.929 . S
C182 C181 1.395 . S
C182 C183 1.335 . S
C183 C182 1.335 . S
C183 C184 1.398 . S
C183 H210 0.930 . S
C184 C179 1.382 . S
C184 C183 1.398 . S
C184 H211 0.929 . S
C185 O198 1.271 . S
C185 O199 1.251 . S
C186 O200 1.252 . S
C186 O201 1.272 . S
C187 Sm177 2.846 . S
C187 C188 1.506 . S
C187 O202 1.261 . S
C187 O203 1.242 . S
C188 C187 1.506 . S
C188 C189 1.358 . S
C188 C193 1.382 . S
C189 C188 1.358 . S
C189 C190 1.385 . S
C189 H212 0.930 . S
C190 C189 1.385 . S
C190 C191 1.395 . S
C190 H213 0.929 . S
C191 C190 1.395 . S
C191 C192 1.335 . S
C192 C191 1.335 . S
C192 C193 1.398 . S
C192 H214 0.930 . S
C193 C188 1.382 . S
C193 C192 1.398 . S
C193 H215 0.929 . S
C194 O204 1.271 . S
C194 O205 1.251 . S
C195 O206 1.252 . S
C195 O207 1.272 . S
O196 Sm176 2.543 . S
O196 C178 1.261 . S
O197 Sm176 2.450 . S
O197 C178 1.242 . S
O198 Sm176 2.681 . S
O198 Sm177 2.386 . S
O198 C185 1.271 . S
O199 Sm176 2.464 . S
O199 C185 1.251 . S
O200 Sm176 2.396 . S
O200 C186 1.252 . S
O201 Sm177 2.408 . S
O201 C186 1.272 . S
O202 Sm177 2.543 . S
O202 C187 1.261 . S
O203 Sm177 2.450 . S
O203 C187 1.242 . S
O204 Sm176 2.386 . S
O204 Sm177 2.681 . S
O204 C194 1.271 . S
O205 Sm177 2.464 . S
O205 C194 1.251 . S
O206 Sm177 2.396 . S
O206 C195 1.252 . S
O207 Sm176 2.408 . S
O207 C195 1.272 . S
H208 C180 0.930 . S
H209 C181 0.929 . S
H210 C183 0.930 . S
H211 C184 0.929 . S
H212 C189 0.930 . S
H213 C190 0.929 . S
H214 C192 0.930 . S
H215 C193 0.929 . S
Sm216 C218 2.846 . S
Sm216 O236 2.543 . S
Sm216 O237 2.450 . S
Sm216 O238 2.681 1_655 S
Sm216 O239 2.464 . S
Sm216 O240 2.396 . S
Sm216 O244 2.386 . S
Sm216 O247 2.408 1_655 S
Sm217 C227 2.846 . S
Sm217 O238 2.386 . S
Sm217 O241 2.408 1_455 S
Sm217 O242 2.543 . S
Sm217 O243 2.450 . S
Sm217 O244 2.681 1_455 S
Sm217 O245 2.464 . S
Sm217 O246 2.396 . S
C218 Sm216 2.846 . S
C218 C219 1.506 1_556 S
C218 O236 1.261 . S
C218 O237 1.242 . S
C219 C218 1.506 1_554 S
C219 C220 1.358 . S
C219 C224 1.382 . S
C220 C219 1.358 . S
C220 C221 1.385 . S
C220 H248 0.930 . S
C221 C220 1.385 . S
C221 C222 1.395 . S
C221 H249 0.929 . S
C222 C221 1.395 . S
C222 C223 1.335 . S
C223 C222 1.335 . S
C223 C224 1.398 . S
C223 H250 0.930 . S
C224 C219 1.382 . S
C224 C223 1.398 . S
C224 H251 0.929 . S
C225 O238 1.260 1_655 S
C225 O239 1.270 . S
C226 O240 1.252 . S
C226 O241 1.272 . S
C227 Sm217 2.846 . S
C227 C228 1.506 . S
C227 O242 1.261 . S
C227 O243 1.242 . S
C228 C227 1.506 . S
C228 C229 1.358 . S
C228 C233 1.382 . S
C229 C228 1.358 . S
C229 C230 1.385 . S
C229 H252 0.930 . S
C230 C229 1.385 . S
C230 C231 1.395 . S
C230 H253 0.929 . S
C231 C230 1.395 . S
C231 C232 1.335 . S
C232 C231 1.335 . S
C232 C233 1.398 . S
C232 H254 0.930 . S
C233 C228 1.382 . S
C233 C232 1.398 . S
C233 H255 0.929 . S
C234 O244 1.271 1_455 S
C234 O245 1.251 . S
C235 O246 1.252 . S
C235 O247 1.272 . S
O236 Sm216 2.543 . S
O236 C218 1.261 . S
O237 Sm216 2.450 . S
O237 C218 1.242 . S
O238 Sm216 2.681 1_455 S
O238 Sm217 2.386 . S
O238 C225 1.260 1_455 S
O239 Sm216 2.464 . S
O239 C225 1.270 . S
O240 Sm216 2.396 . S
O240 C226 1.252 . S
O241 Sm217 2.408 1_655 S
O241 C226 1.272 . S
O242 Sm217 2.543 . S
O242 C227 1.261 . S
O243 Sm217 2.450 . S
O243 C227 1.242 . S
O244 Sm216 2.386 . S
O244 Sm217 2.681 1_655 S
O244 C234 1.271 1_655 S
O245 Sm217 2.464 . S
O245 C234 1.251 . S
O246 Sm217 2.396 . S
O246 C235 1.252 . S
O247 Sm216 2.408 1_455 S
O247 C235 1.272 . S
H248 C220 0.930 . S
H249 C221 0.929 . S
H250 C223 0.930 . S
H251 C224 0.929 . S
H252 C229 0.930 . S
H253 C230 0.929 . S
H254 C232 0.930 . S
H255 C233 0.929 . S
C256 C257 1.391 . S
C256 C258 1.394 . S
C256 H272 0.931 . S
C257 C256 1.391 . S
C257 C261 1.376 1_545 S
C258 C256 1.394 . S
C258 C259 1.369 . S
C258 C262 1.531 . S
C259 C258 1.369 . S
C259 C260 1.410 1_545 S
C259 C267 1.503 . S
C260 C259 1.410 1_565 S
C260 C261 1.392 . S
C260 C263 1.511 . S
C261 C257 1.376 1_565 S
C261 C260 1.392 . S
C261 H273 0.929 . S
C262 C258 1.531 . S
C262 H274 0.960 . S
C262 H275 0.962 . S
C262 H276 0.960 . S
C263 C260 1.511 . S
C263 H277 0.961 . S
C263 H278 0.961 . S
C263 H279 0.961 . S
C264 C265 1.370 1_565 S
C264 C266 1.363 . S
C264 H280 0.931 . S
C265 C264 1.370 1_545 S
C265 C269 1.408 . S
C266 C264 1.363 . S
C266 C267 1.370 1_565 S
C266 C270 1.524 . S
C267 C259 1.503 . S
C267 C266 1.370 1_545 S
C267 C268 1.403 . S
C268 C267 1.403 . S
C268 C269 1.404 . S
C268 C271 1.539 . S
C269 C265 1.408 . S
C269 C268 1.404 . S
C269 H281 0.930 . S
C270 C266 1.524 . S
C270 H282 0.956 . S
C270 H283 0.961 . S
C270 H284 0.961 . S
C271 C268 1.539 . S
C271 H285 0.958 . S
C271 H286 0.961 . S
C271 H287 0.960 . S
H272 C256 0.931 . S
H273 C261 0.929 . S
H274 C262 0.960 . S
H275 C262 0.962 . S
H276 C262 0.960 . S
H277 C263 0.961 . S
H278 C263 0.961 . S
H279 C263 0.961 . S
H280 C264 0.931 . S
H281 C269 0.930 . S
H282 C270 0.956 . S
H283 C270 0.961 . S
H284 C270 0.961 . S
H285 C271 0.958 . S
H286 C271 0.961 . S
H287 C271 0.960 . S
C288 C289 1.391 . S
C288 C290 1.394 . S
C288 H304 0.931 . S
C289 C288 1.391 . S
C289 C293 1.376 . S
C290 C288 1.394 . S
C290 C291 1.369 . S
C290 C294 1.531 . S
C291 C290 1.369 . S
C291 C292 1.410 . S
C291 C299 1.503 . S
C292 C291 1.410 . S
C292 C293 1.392 . S
C292 C295 1.511 . S
C293 C289 1.376 . S
C293 C292 1.392 . S
C293 H305 0.929 . S
C294 C290 1.531 . S
C294 H306 0.960 . S
C294 H307 0.962 . S
C294 H308 0.960 . S
C295 C292 1.511 . S
C295 H309 0.961 . S
C295 H310 0.961 . S
C295 H311 0.961 . S
C296 C297 1.370 . S
C296 C298 1.363 . S
C296 H312 0.931 . S
C297 C296 1.370 . S
C297 C301 1.408 . S
C298 C296 1.363 . S
C298 C299 1.370 . S
C298 C302 1.524 . S
C299 C291 1.503 . S
C299 C298 1.370 . S
C299 C300 1.403 . S
C300 C299 1.403 . S
C300 C301 1.404 . S
C300 C303 1.539 . S
C301 C297 1.408 . S
C301 C300 1.404 . S
C301 H313 0.930 . S
C302 C298 1.524 . S
C302 H314 0.956 . S
C302 H315 0.961 . S
C302 H316 0.961 . S
C303 C300 1.539 . S
C303 H317 0.958 . S
C303 H318 0.961 . S
C303 H319 0.960 . S
H304 C288 0.931 . S
H305 C293 0.929 . S
H306 C294 0.960 . S
H307 C294 0.962 . S
H308 C294 0.960 . S
H309 C295 0.961 . S
H310 C295 0.961 . S
H311 C295 0.961 . S
H312 C296 0.931 . S
H313 C301 0.930 . S
H314 C302 0.956 . S
H315 C302 0.961 . S
H316 C302 0.961 . S
H317 C303 0.958 . S
H318 C303 0.961 . S
H319 C303 0.960 . S
C320 C321 1.391 . S
C320 C322 1.394 . S
C320 H336 0.931 . S
C321 C320 1.391 . S
C321 C325 1.376 . S
C322 C320 1.394 . S
C322 C323 1.369 . S
C322 C326 1.531 . S
C323 C322 1.369 . S
C323 C324 1.410 . S
C323 C331 1.503 . S
C324 C323 1.410 . S
C324 C325 1.392 . S
C324 C327 1.511 . S
C325 C321 1.376 . S
C325 C324 1.392 . S
C325 H337 0.929 . S
C326 C322 1.531 . S
C326 H338 0.960 . S
C326 H339 0.962 . S
C326 H340 0.960 . S
C327 C324 1.511 . S
C327 H341 0.961 . S
C327 H342 0.961 . S
C327 H343 0.961 . S
C328 C329 1.370 . S
C328 C330 1.363 . S
C328 H344 0.931 . S
C329 C328 1.370 . S
C329 C333 1.408 . S
C330 C328 1.363 . S
C330 C331 1.370 . S
C330 C334 1.524 . S
C331 C323 1.503 . S
C331 C330 1.370 . S
C331 C332 1.403 . S
C332 C331 1.403 . S
C332 C333 1.404 . S
C332 C335 1.539 . S
C333 C329 1.408 . S
C333 C332 1.404 . S
C333 H345 0.930 . S
C334 C330 1.524 . S
C334 H346 0.956 . S
C334 H347 0.961 . S
C334 H348 0.961 . S
C335 C332 1.539 . S
C335 H349 0.958 . S
C335 H350 0.961 . S
C335 H351 0.960 . S
H336 C320 0.931 . S
H337 C325 0.929 . S
H338 C326 0.960 . S
H339 C326 0.962 . S
H340 C326 0.960 . S
H341 C327 0.961 . S
H342 C327 0.961 . S
H343 C327 0.961 . S
H344 C328 0.931 . S
H345 C333 0.930 . S
H346 C334 0.956 . S
H347 C334 0.961 . S
H348 C334 0.961 . S
H349 C335 0.958 . S
H350 C335 0.961 . S
H351 C335 0.960 . S
C352 C353 1.391 1_455 S
C352 C354 1.394 . S
C352 H368 0.931 . S
C353 C352 1.391 1_655 S
C353 C357 1.376 . S
C354 C352 1.394 . S
C354 C355 1.369 1_455 S
C354 C358 1.531 . S
C355 C354 1.369 1_655 S
C355 C356 1.410 . S
C355 C363 1.503 . S
C356 C355 1.410 . S
C356 C357 1.392 . S
C356 C359 1.511 . S
C357 C353 1.376 . S
C357 C356 1.392 . S
C357 H369 0.929 . S
C358 C354 1.531 . S
C358 H370 0.960 . S
C358 H371 0.962 . S
C358 H372 0.960 . S
C359 C356 1.511 . S
C359 H373 0.961 . S
C359 H374 0.961 . S
C359 H375 0.961 . S
C360 C361 1.392 . S
C360 C362 1.363 . S
C360 H376 0.931 . S
C361 C360 1.392 . S
C361 C365 1.385 1_455 S
C362 C360 1.363 . S
C362 C363 1.370 1_455 S
C362 C366 1.524 . S
C363 C355 1.503 . S
C363 C362 1.370 1_655 S
C363 C364 1.403 . S
C364 C363 1.403 . S
C364 C365 1.404 . S
C364 C367 1.539 . S
C365 C361 1.385 1_655 S
C365 C364 1.404 . S
C365 H377 0.930 . S
C366 C362 1.524 . S
C366 H378 0.956 . S
C366 H379 0.961 . S
C366 H380 0.961 . S
C367 C364 1.539 . S
C367 H381 0.958 . S
C367 H382 0.961 . S
C367 H383 0.960 . S
H368 C352 0.931 . S
H369 C357 0.929 . S
H370 C358 0.960 . S
H371 C358 0.962 . S
H372 C358 0.960 . S
H373 C359 0.961 . S
H374 C359 0.961 . S
H375 C359 0.961 . S
H376 C360 0.931 . S
H377 C365 0.930 . S
H378 C366 0.956 . S
H379 C366 0.961 . S
H380 C366 0.961 . S
H381 C367 0.958 . S
H382 C367 0.961 . S
H383 C367 0.960 . S
C384 C385 1.391 . S
C384 C386 1.394 . S
C384 H400 0.931 . S
C385 C384 1.391 . S
C385 C389 1.375 1_565 S
C386 C384 1.394 . S
C386 C387 1.369 . S
C386 C390 1.531 . S
C387 C386 1.369 . S
C387 C388 1.410 . S
C387 C395 1.503 . S
C388 C387 1.410 . S
C388 C389 1.391 1_565 S
C388 C391 1.511 1_565 S
C389 C385 1.375 1_545 S
C389 C388 1.391 1_545 S
C389 H401 0.931 . S
C390 C386 1.531 . S
C390 H402 0.960 . S
C390 H403 0.950 1_565 S
C390 H404 0.960 . S
C391 C388 1.511 1_545 S
C391 H405 0.961 . S
C391 H406 0.961 . S
C391 H407 0.961 1_545 S
C392 C393 1.370 1_545 S
C392 C394 1.363 1_556 S
C392 H408 0.931 . S
C393 C392 1.370 1_565 S
C393 C397 1.408 . S
C394 C392 1.363 1_554 S
C394 C395 1.370 1_545 S
C394 C398 1.524 . S
C395 C387 1.503 . S
C395 C394 1.370 1_565 S
C395 C396 1.403 . S
C396 C395 1.403 . S
C396 C397 1.404 1_554 S
C396 C399 1.539 . S
C397 C393 1.408 . S
C397 C396 1.404 1_556 S
C397 H409 0.930 . S
C398 C394 1.524 . S
C398 H410 0.956 . S
C398 H411 0.961 . S
C398 H412 0.961 . S
C399 C396 1.539 . S
C399 H413 0.958 . S
C399 H414 0.961 1_554 S
C399 H415 0.960 . S
H400 C384 0.931 . S
H401 C389 0.931 . S
H402 C390 0.960 . S
H403 C390 0.950 1_545 S
H404 C390 0.960 . S
H405 C391 0.961 . S
H406 C391 0.961 . S
H407 C391 0.961 1_565 S
H408 C392 0.931 . S
H409 C397 0.930 . S
H410 C398 0.956 . S
H411 C398 0.961 . S
H412 C398 0.961 . S
H413 C399 0.958 . S
H414 C399 0.961 1_556 S
H415 C399 0.960 . S
C416 C417 1.391 . S
C416 C418 1.394 . S
C416 H432 0.931 . S
C417 C416 1.391 . S
C417 C421 1.376 . S
C418 C416 1.394 . S
C418 C419 1.369 . S
C418 C422 1.531 . S
C419 C418 1.369 . S
C419 C420 1.410 . S
C419 C427 1.503 . S
C420 C419 1.410 . S
C420 C421 1.392 . S
C420 C423 1.511 . S
C421 C417 1.376 . S
C421 C420 1.392 . S
C421 H433 0.929 . S
C422 C418 1.531 . S
C422 H434 0.960 . S
C422 H435 0.962 . S
C422 H436 0.960 . S
C423 C420 1.511 . S
C423 H437 0.961 . S
C423 H438 0.961 . S
C423 H439 0.961 . S
C424 C425 1.370 . S
C424 C426 1.363 1_556 S
C424 H440 0.931 . S
C425 C424 1.370 . S
C425 C429 1.408 1_556 S
C426 C424 1.363 1_554 S
C426 C427 1.370 . S
C426 C430 1.524 . S
C427 C419 1.503 . S
C427 C426 1.370 . S
C427 C428 1.403 . S
C428 C427 1.403 . S
C428 C429 1.404 . S
C428 C431 1.539 . S
C429 C425 1.408 1_554 S
C429 C428 1.404 . S
C429 H441 0.930 . S
C430 C426 1.524 . S
C430 H442 0.956 . S
C430 H443 0.961 . S
C430 H444 0.961 1_554 S
C431 C428 1.539 . S
C431 H445 0.958 . S
C431 H446 0.961 . S
C431 H447 0.960 . S
H432 C416 0.931 . S
H433 C421 0.929 . S
H434 C422 0.960 . S
H435 C422 0.962 . S
H436 C422 0.960 . S
H437 C423 0.961 . S
H438 C423 0.961 . S
H439 C423 0.961 . S
H440 C424 0.931 . S
H441 C429 0.930 . S
H442 C430 0.956 . S
H443 C430 0.961 . S
H444 C430 0.961 1_556 S
H445 C431 0.958 . S
H446 C431 0.961 . S
H447 C431 0.960 . S
C448 C449 1.391 . S
C448 C450 1.394 . S
C448 H464 0.931 . S
C449 C448 1.391 . S
C449 C453 1.376 . S
C450 C448 1.394 . S
C450 C451 1.369 . S
C450 C454 1.531 . S
C451 C450 1.369 . S
C451 C452 1.410 . S
C451 C459 1.503 . S
C452 C451 1.410 . S
C452 C453 1.392 . S
C452 C455 1.511 . S
C453 C449 1.376 . S
C453 C452 1.392 . S
C453 H465 0.929 . S
C454 C450 1.531 . S
C454 H466 0.960 . S
C454 H467 0.962 . S
C454 H468 0.960 . S
C455 C452 1.511 . S
C455 H469 0.961 . S
C455 H470 0.961 . S
C455 H471 0.961 . S
C456 C457 1.370 . S
C456 C458 1.363 1_556 S
C456 H472 0.931 . S
C457 C456 1.370 . S
C457 C461 1.408 . S
C458 C456 1.363 1_554 S
C458 C459 1.370 . S
C458 C462 1.524 . S
C459 C451 1.503 . S
C459 C458 1.370 . S
C459 C460 1.403 . S
C460 C459 1.403 . S
C460 C461 1.404 1_554 S
C460 C463 1.539 . S
C461 C457 1.408 . S
C461 C460 1.404 1_556 S
C461 H473 0.930 . S
C462 C458 1.524 . S
C462 H474 0.956 . S
C462 H475 0.961 . S
C462 H476 0.961 . S
C463 C460 1.539 . S
C463 H477 0.958 . S
C463 H478 0.961 . S
C463 H479 0.960 . S
H464 C448 0.931 . S
H465 C453 0.929 . S
H466 C454 0.960 . S
H467 C454 0.962 . S
H468 C454 0.960 . S
H469 C455 0.961 . S
H470 C455 0.961 . S
H471 C455 0.961 . S
H472 C456 0.931 . S
H473 C461 0.930 . S
H474 C462 0.956 . S
H475 C462 0.961 . S
H476 C462 0.961 . S
H477 C463 0.958 . S
H478 C463 0.961 . S
H479 C463 0.960 . S
C480 C481 1.391 1_455 S
C480 C482 1.394 . S
C480 H496 0.931 . S
C481 C480 1.391 1_655 S
C481 C485 1.376 . S
C482 C480 1.394 . S
C482 C483 1.369 1_455 S
C482 C486 1.531 . S
C483 C482 1.369 1_655 S
C483 C484 1.410 . S
C483 C491 1.503 . S
C484 C483 1.410 . S
C484 C485 1.392 . S
C484 C487 1.511 . S
C485 C481 1.376 . S
C485 C484 1.392 . S
C485 H497 0.929 . S
C486 C482 1.531 . S
C486 H498 0.960 . S
C486 H499 0.962 . S
C486 H500 0.960 . S
C487 C484 1.511 . S
C487 H501 0.961 . S
C487 H502 0.961 . S
C487 H503 0.961 . S
C488 C489 1.370 1_455 S
C488 C490 1.363 1_556 S
C488 H504 0.931 . S
C489 C488 1.370 1_655 S
C489 C493 1.404 1_556 S
C490 C488 1.363 1_554 S
C490 C491 1.370 1_455 S
C490 C494 1.524 . S
C491 C483 1.503 . S
C491 C490 1.370 1_655 S
C491 C492 1.403 . S
C492 C491 1.403 . S
C492 C493 1.409 . S
C492 C495 1.539 . S
C493 C489 1.404 1_554 S
C493 C492 1.409 . S
C493 H505 0.929 1_554 S
C494 C490 1.524 . S
C494 H506 0.956 . S
C494 H507 0.961 . S
C494 H508 0.961 1_554 S
C495 C492 1.539 . S
C495 H509 0.958 . S
C495 H510 0.961 . S
C495 H511 0.960 . S
H496 C480 0.931 . S
H497 C485 0.929 . S
H498 C486 0.960 . S
H499 C486 0.962 . S
H500 C486 0.960 . S
H501 C487 0.961 . S
H502 C487 0.961 . S
H503 C487 0.961 . S
H504 C488 0.931 . S
H505 C493 0.929 1_556 S
H506 C494 0.956 . S
H507 C494 0.961 . S
H508 C494 0.961 1_556 S
H509 C495 0.958 . S
H510 C495 0.961 . S
H511 C495 0.960 . S
C512 C513 1.391 1_655 S
C512 C514 1.394 . S
C512 H528 0.931 . S
C513 C512 1.391 1_455 S
C513 C517 1.376 . S
C514 C512 1.394 . S
C514 C515 1.369 . S
C514 C518 1.531 . S
C515 C514 1.369 . S
C515 C516 1.410 1_655 S
C515 C523 1.503 . S
C516 C515 1.410 1_455 S
C516 C517 1.392 . S
C516 C519 1.511 . S
C517 C513 1.376 . S
C517 C516 1.392 . S
C517 H529 0.929 . S
C518 C514 1.531 . S
C518 H530 0.960 . S
C518 H531 0.962 . S
C518 H532 0.960 . S
C519 C516 1.511 . S
C519 H533 0.961 . S
C519 H534 0.961 . S
C519 H535 0.961 . S
C520 C521 1.370 . S
C520 C522 1.363 . S
C520 H536 0.931 . S
C521 C520 1.370 . S
C521 C525 1.408 . S
C522 C520 1.363 . S
C522 C523 1.370 . S
C522 C526 1.524 . S
C523 C515 1.503 . S
C523 C522 1.370 . S
C523 C524 1.403 . S
C524 C523 1.403 . S
C524 C525 1.404 . S
C524 C527 1.539 1_655 S
C525 C521 1.408 . S
C525 C524 1.404 . S
C525 H537 0.930 . S
C526 C522 1.524 . S
C526 H538 0.956 . S
C526 H539 0.961 . S
C526 H540 0.961 . S
C527 C524 1.539 1_455 S
C527 H541 0.958 1_455 S
C527 H542 0.961 . S
C527 H543 0.960 . S
H528 C512 0.931 . S
H529 C517 0.929 . S
H530 C518 0.960 . S
H531 C518 0.962 . S
H532 C518 0.960 . S
H533 C519 0.961 . S
H534 C519 0.961 . S
H535 C519 0.961 . S
H536 C520 0.931 . S
H537 C525 0.930 . S
H538 C526 0.956 . S
H539 C526 0.961 . S
H540 C526 0.961 . S
H541 C527 0.958 1_655 S
H542 C527 0.961 . S
H543 C527 0.960 . S
C544 C545 1.391 . S
C544 C546 1.394 . S
C544 H560 0.931 . S
C545 C544 1.391 . S
C545 C549 1.376 1_545 S
C546 C544 1.394 . S
C546 C547 1.369 1_545 S
C546 C550 1.531 . S
C547 C546 1.369 1_565 S
C547 C548 1.410 . S
C547 C555 1.503 . S
C548 C547 1.410 . S
C548 C549 1.392 . S
C548 C551 1.511 . S
C549 C545 1.376 1_565 S
C549 C548 1.392 . S
C549 H561 0.929 . S
C550 C546 1.531 . S
C550 H562 0.960 . S
C550 H563 0.962 . S
C550 H564 0.960 . S
C551 C548 1.511 . S
C551 H565 0.961 . S
C551 H566 0.961 . S
C551 H567 0.961 . S
C552 C553 1.370 . S
C552 C554 1.363 . S
C552 H568 0.931 . S
C553 C552 1.370 . S
C553 C557 1.408 . S
C554 C552 1.363 . S
C554 C555 1.370 . S
C554 C558 1.524 . S
C555 C547 1.503 . S
C555 C554 1.370 . S
C555 C556 1.403 . S
C556 C555 1.403 . S
C556 C557 1.404 . S
C556 C559 1.539 1_565 S
C557 C553 1.408 . S
C557 C556 1.404 . S
C557 H569 0.930 . S
C558 C554 1.524 . S
C558 H570 0.956 . S
C558 H571 0.961 . S
C558 H572 0.961 . S
C559 C556 1.539 1_545 S
C559 H573 0.958 . S
C559 H574 0.961 . S
C559 H575 0.960 . S
H560 C544 0.931 . S
H561 C549 0.929 . S
H562 C550 0.960 . S
H563 C550 0.962 . S
H564 C550 0.960 . S
H565 C551 0.961 . S
H566 C551 0.961 . S
H567 C551 0.961 . S
H568 C552 0.931 . S
H569 C557 0.930 . S
H570 C558 0.956 . S
H571 C558 0.961 . S
H572 C558 0.961 . S
H573 C559 0.958 . S
H574 C559 0.961 . S
H575 C559 0.960 . S
C576 C577 1.391 . S
C576 C578 1.394 . S
C576 H592 0.931 . S
C577 C576 1.391 . S
C577 C581 1.376 . S
C578 C576 1.394 . S
C578 C579 1.369 . S
C578 C582 1.531 . S
C579 C578 1.369 . S
C579 C580 1.410 . S
C579 C587 1.503 . S
C580 C579 1.410 . S
C580 C581 1.392 . S
C580 C583 1.511 . S
C581 C577 1.376 . S
C581 C580 1.392 . S
C581 H593 0.929 . S
C582 C578 1.531 . S
C582 H594 0.960 . S
C582 H595 0.962 . S
C582 H596 0.960 1_554 S
C583 C580 1.511 . S
C583 H597 0.961 . S
C583 H598 0.961 . S
C583 H599 0.961 . S
C584 C585 1.370 . S
C584 C586 1.363 . S
C584 H600 0.931 . S
C585 C584 1.370 . S
C585 C589 1.408 . S
C586 C584 1.363 . S
C586 C587 1.370 . S
C586 C590 1.524 . S
C587 C579 1.503 . S
C587 C586 1.370 . S
C587 C588 1.403 . S
C588 C587 1.403 . S
C588 C589 1.404 . S
C588 C591 1.539 . S
C589 C585 1.408 . S
C589 C588 1.404 . S
C589 H601 0.930 . S
C590 C586 1.524 . S
C590 H602 0.956 . S
C590 H603 0.961 . S
C590 H604 0.961 . S
C591 C588 1.539 . S
C591 H605 0.958 . S
C591 H606 0.961 . S
C591 H607 0.960 . S
H592 C576 0.931 . S
H593 C581 0.929 . S
H594 C582 0.960 . S
H595 C582 0.962 . S
H596 C582 0.960 1_556 S
H597 C583 0.961 . S
H598 C583 0.961 . S
H599 C583 0.961 . S
H600 C584 0.931 . S
H601 C589 0.930 . S
H602 C590 0.956 . S
H603 C590 0.961 . S
H604 C590 0.961 . S
H605 C591 0.958 . S
H606 C591 0.961 . S
H607 C591 0.960 . S
C608 C609 1.391 . S
C608 C610 1.394 . S
C608 H624 0.931 . S
C609 C608 1.391 . S
C609 C613 1.376 . S
C610 C608 1.394 . S
C610 C611 1.369 . S
C610 C614 1.531 . S
C611 C610 1.369 . S
C611 C612 1.410 . S
C611 C619 1.503 . S
C612 C611 1.410 . S
C612 C613 1.392 . S
C612 C615 1.511 . S
C613 C609 1.376 . S
C613 C612 1.392 . S
C613 H625 0.929 . S
C614 C610 1.531 . S
C614 H626 0.960 . S
C614 H627 0.962 . S
C614 H628 0.960 . S
C615 C612 1.511 . S
C615 H629 0.961 . S
C615 H630 0.961 . S
C615 H631 0.961 . S
C616 C617 1.370 . S
C616 C618 1.363 . S
C616 H632 0.931 . S
C617 C616 1.370 . S
C617 C621 1.408 . S
C618 C616 1.363 . S
C618 C619 1.370 . S
C618 C622 1.524 . S
C619 C611 1.503 . S
C619 C618 1.370 . S
C619 C620 1.403 . S
C620 C619 1.403 . S
C620 C621 1.404 . S
C620 C623 1.539 . S
C621 C617 1.408 . S
C621 C620 1.404 . S
C621 H633 0.930 . S
C622 C618 1.524 . S
C622 H634 0.956 . S
C622 H635 0.961 . S
C622 H636 0.961 . S
C623 C620 1.539 . S
C623 H637 0.958 . S
C623 H638 0.961 . S
C623 H639 0.960 . S
H624 C608 0.931 . S
H625 C613 0.929 . S
H626 C614 0.960 . S
H627 C614 0.962 . S
H628 C614 0.960 . S
H629 C615 0.961 . S
H630 C615 0.961 . S
H631 C615 0.961 . S
H632 C616 0.931 . S
H633 C621 0.930 . S
H634 C622 0.956 . S
H635 C622 0.961 . S
H636 C622 0.961 . S
H637 C623 0.958 . S
H638 C623 0.961 . S
H639 C623 0.960 . S
C640 C641 1.392 1_455 S
C640 C642 1.394 . S
C640 H656 0.931 . S
C641 C640 1.392 1_655 S
C641 C645 1.376 . S
C642 C640 1.394 . S
C642 C643 1.369 . S
C642 C646 1.531 . S
C643 C642 1.369 . S
C643 C644 1.410 . S
C643 C651 1.503 . S
C644 C643 1.410 . S
C644 C645 1.392 1_455 S
C644 C647 1.511 1_455 S
C645 C641 1.376 . S
C645 C644 1.392 1_655 S
C645 H657 0.929 . S
C646 C642 1.531 . S
C646 H658 0.960 . S
C646 H659 0.962 . S
C646 H660 0.960 . S
C647 C644 1.511 1_655 S
C647 H661 0.961 . S
C647 H662 0.961 . S
C647 H663 0.961 1_655 S
C648 C649 1.370 . S
C648 C650 1.363 . S
C648 H664 0.931 . S
C649 C648 1.370 . S
C649 C653 1.408 . S
C650 C648 1.363 . S
C650 C651 1.370 . S
C650 C654 1.524 1_455 S
C651 C643 1.503 . S
C651 C650 1.370 . S
C651 C652 1.403 . S
C652 C651 1.403 . S
C652 C653 1.404 . S
C652 C655 1.539 . S
C653 C649 1.408 . S
C653 C652 1.404 . S
C653 H665 0.930 . S
C654 C650 1.524 1_655 S
C654 H666 0.956 . S
C654 H667 0.961 . S
C654 H668 0.961 . S
C655 C652 1.539 . S
C655 H669 0.958 . S
C655 H670 0.961 . S
C655 H671 0.960 . S
H656 C640 0.931 . S
H657 C645 0.929 . S
H658 C646 0.960 . S
H659 C646 0.962 . S
H660 C646 0.960 . S
H661 C647 0.961 . S
H662 C647 0.961 . S
H663 C647 0.961 1_455 S
H664 C648 0.931 . S
H665 C653 0.930 . S
H666 C654 0.956 . S
H667 C654 0.961 . S
H668 C654 0.961 . S
H669 C655 0.958 . S
H670 C655 0.961 . S
H671 C655 0.960 . S
C672 C673 1.398 . S
C672 C674 1.394 . S
C672 H688 0.931 . S
C673 C672 1.398 . S
C673 C677 1.374 1_545 S
C674 C672 1.394 . S
C674 C675 1.369 . S
C674 C678 1.531 . S
C675 C674 1.369 . S
C675 C676 1.410 . S
C675 C683 1.503 . S
C676 C675 1.410 . S
C676 C677 1.392 1_545 S
C676 C679 1.511 . S
C677 C673 1.374 1_565 S
C677 C676 1.392 1_565 S
C677 H689 0.929 . S
C678 C674 1.531 . S
C678 H690 0.960 . S
C678 H691 0.962 . S
C678 H692 0.960 . S
C679 C676 1.511 . S
C679 H693 0.961 1_545 S
C679 H694 0.958 1_545 S
C679 H695 0.961 . S
C680 C681 1.370 . S
C680 C682 1.363 . S
C680 H696 0.931 . S
C681 C680 1.370 . S
C681 C685 1.408 . S
C682 C680 1.363 . S
C682 C683 1.370 . S
C682 C686 1.524 1_545 S
C683 C675 1.503 . S
C683 C682 1.370 . S
C683 C684 1.403 . S
C684 C683 1.403 . S
C684 C685 1.404 . S
C684 C687 1.539 . S
C685 C681 1.408 . S
C685 C684 1.404 . S
C685 H697 0.930 . S
C686 C682 1.524 1_565 S
C686 H698 0.956 . S
C686 H699 0.961 . S
C686 H700 0.961 . S
C687 C684 1.539 . S
C687 H701 0.958 . S
C687 H702 0.961 . S
C687 H703 0.960 . S
H688 C672 0.931 . S
H689 C677 0.929 . S
H690 C678 0.960 . S
H691 C678 0.962 . S
H692 C678 0.960 . S
H693 C679 0.961 1_565 S
H694 C679 0.958 1_565 S
H695 C679 0.961 . S
H696 C680 0.931 . S
H697 C685 0.930 . S
H698 C686 0.956 . S
H699 C686 0.961 . S
H700 C686 0.961 . S
H701 C687 0.958 . S
H702 C687 0.961 . S
H703 C687 0.960 . S
C704 C705 1.391 . S
C704 C706 1.394 . S
C704 H720 0.931 . S
C705 C704 1.391 . S
C705 C709 1.376 . S
C706 C704 1.394 . S
C706 C707 1.369 . S
C706 C710 1.531 . S
C707 C706 1.369 . S
C707 C708 1.410 . S
C707 C715 1.503 . S
C708 C707 1.410 . S
C708 C709 1.392 . S
C708 C711 1.511 . S
C709 C705 1.376 . S
C709 C708 1.392 . S
C709 H721 0.929 . S
C710 C706 1.531 . S
C710 H722 0.960 . S
C710 H723 0.962 . S
C710 H724 0.960 . S
C711 C708 1.511 . S
C711 H725 0.961 . S
C711 H726 0.961 . S
C711 H727 0.961 . S
C712 C713 1.370 . S
C712 C714 1.363 . S
C712 H728 0.931 . S
C713 C712 1.370 . S
C713 C717 1.408 . S
C714 C712 1.363 . S
C714 C715 1.370 . S
C714 C718 1.524 . S
C715 C707 1.503 . S
C715 C714 1.370 . S
C715 C716 1.403 . S
C716 C715 1.403 . S
C716 C717 1.404 . S
C716 C719 1.539 . S
C717 C713 1.408 . S
C717 C716 1.404 . S
C717 H729 0.930 1_554 S
C718 C714 1.524 . S
C718 H730 0.956 . S
C718 H731 0.961 . S
C718 H732 0.961 . S
C719 C716 1.539 . S
C719 H733 0.958 . S
C719 H734 0.961 1_554 S
C719 H735 0.960 . S
H720 C704 0.931 . S
H721 C709 0.929 . S
H722 C710 0.960 . S
H723 C710 0.962 . S
H724 C710 0.960 . S
H725 C711 0.961 . S
H726 C711 0.961 . S
H727 C711 0.961 . S
H728 C712 0.931 . S
H729 C717 0.930 1_556 S
H730 C718 0.956 . S
H731 C718 0.961 . S
H732 C718 0.961 . S
H733 C719 0.958 . S
H734 C719 0.961 1_556 S
H735 C719 0.960 . S
C736 C737 1.391 . S
C736 C738 1.394 . S
C736 H752 0.931 . S
C737 C736 1.391 . S
C737 C741 1.376 . S
C738 C736 1.394 . S
C738 C739 1.369 . S
C738 C742 1.531 . S
C739 C738 1.369 . S
C739 C740 1.410 . S
C739 C747 1.503 . S
C740 C739 1.410 . S
C740 C741 1.392 . S
C740 C743 1.511 . S
C741 C737 1.376 . S
C741 C740 1.392 . S
C741 H753 0.929 . S
C742 C738 1.531 . S
C742 H754 0.960 . S
C742 H755 0.962 . S
C742 H756 0.960 . S
C743 C740 1.511 . S
C743 H757 0.961 . S
C743 H758 0.961 . S
C743 H759 0.961 . S
C744 C745 1.370 . S
C744 C746 1.363 . S
C744 H760 0.931 . S
C745 C744 1.370 . S
C745 C749 1.408 . S
C746 C744 1.363 . S
C746 C747 1.370 . S
C746 C750 1.524 . S
C747 C739 1.503 . S
C747 C746 1.370 . S
C747 C748 1.403 . S
C748 C747 1.403 . S
C748 C749 1.404 . S
C748 C751 1.539 . S
C749 C745 1.408 . S
C749 C748 1.404 . S
C749 H761 0.930 . S
C750 C746 1.524 . S
C750 H762 0.956 . S
C750 H763 0.961 . S
C750 H764 0.961 . S
C751 C748 1.539 . S
C751 H765 0.958 . S
C751 H766 0.961 . S
C751 H767 0.960 . S
H752 C736 0.931 . S
H753 C741 0.929 . S
H754 C742 0.960 . S
H755 C742 0.962 . S
H756 C742 0.960 . S
H757 C743 0.961 . S
H758 C743 0.961 . S
H759 C743 0.961 . S
H760 C744 0.931 . S
H761 C749 0.930 . S
H762 C750 0.956 . S
H763 C750 0.961 . S
H764 C750 0.961 . S
H765 C751 0.958 . S
H766 C751 0.961 . S
H767 C751 0.960 . S
C768 C769 1.391 . S
C768 C770 1.394 . S
C768 H784 0.931 . S
C769 C768 1.391 . S
C769 C773 1.376 . S
C770 C768 1.394 . S
C770 C771 1.369 . S
C770 C774 1.531 . S
C771 C770 1.369 . S
C771 C772 1.410 . S
C771 C779 1.503 . S
C772 C771 1.410 . S
C772 C773 1.392 . S
C772 C775 1.511 1_556 S
C773 C769 1.376 . S
C773 C772 1.392 . S
C773 H785 0.929 1_556 S
C774 C770 1.531 . S
C774 H786 0.960 . S
C774 H787 0.962 1_455 S
C774 H788 0.960 . S
C775 C772 1.511 1_554 S
C775 H789 0.961 . S
C775 H790 0.961 . S
C775 H791 0.961 . S
C776 C777 1.370 1_655 S
C776 C778 1.363 . S
C776 H792 0.931 . S
C777 C776 1.370 1_455 S
C777 C781 1.408 . S
C778 C776 1.363 . S
C778 C779 1.370 1_655 S
C778 C782 1.524 . S
C779 C771 1.503 . S
C779 C778 1.370 1_455 S
C779 C780 1.403 . S
C780 C779 1.403 . S
C780 C781 1.404 . S
C780 C783 1.539 . S
C781 C777 1.408 . S
C781 C780 1.404 . S
C781 H793 0.930 . S
C782 C778 1.524 . S
C782 H794 0.956 . S
C782 H795 0.961 . S
C782 H796 0.961 . S
C783 C780 1.539 . S
C783 H797 0.958 . S
C783 H798 0.961 . S
C783 H799 0.960 . S
H784 C768 0.931 . S
H785 C773 0.929 1_554 S
H786 C774 0.960 . S
H787 C774 0.962 1_655 S
H788 C774 0.960 . S
H789 C775 0.961 . S
H790 C775 0.961 . S
H791 C775 0.961 . S
H792 C776 0.931 . S
H793 C781 0.930 . S
H794 C782 0.956 . S
H795 C782 0.961 . S
H796 C782 0.961 . S
H797 C783 0.958 . S
H798 C783 0.961 . S
H799 C783 0.960 . S
C800 C801 1.378 1_565 S
C800 C802 1.394 . S
C800 H816 0.931 . S
C801 C800 1.378 1_545 S
C801 C805 1.388 . S
C802 C800 1.394 . S
C802 C803 1.369 1_565 S
C802 C806 1.531 . S
C803 C802 1.369 1_545 S
C803 C804 1.410 . S
C803 C811 1.503 . S
C804 C803 1.410 . S
C804 C805 1.392 . S
C804 C807 1.511 . S
C805 C801 1.388 . S
C805 C804 1.392 . S
C805 H817 0.929 . S
C806 C802 1.531 . S
C806 H818 0.960 . S
C806 H819 0.962 1_556 S
C806 H820 0.960 . S
C807 C804 1.511 . S
C807 H821 0.961 . S
C807 H822 0.961 . S
C807 H823 0.961 . S
C808 C809 1.370 . S
C808 C810 1.363 . S
C808 H824 0.931 . S
C809 C808 1.370 . S
C809 C813 1.408 1_545 S
C810 C808 1.363 . S
C810 C811 1.370 . S
C810 C814 1.524 . S
C811 C803 1.503 . S
C811 C810 1.370 . S
C811 C812 1.403 1_545 S
C812 C811 1.403 1_565 S
C812 C813 1.404 . S
C812 C815 1.539 . S
C813 C809 1.408 1_565 S
C813 C812 1.404 . S
C813 H825 0.930 . S
C814 C810 1.524 . S
C814 H826 0.956 1_556 S
C814 H827 0.961 . S
C814 H828 0.961 . S
C815 C812 1.539 . S
C815 H829 0.958 . S
C815 H830 0.961 . S
C815 H831 0.960 . S
H816 C800 0.931 . S
H817 C805 0.929 . S
H818 C806 0.960 . S
H819 C806 0.962 1_554 S
H820 C806 0.960 . S
H821 C807 0.961 . S
H822 C807 0.961 . S
H823 C807 0.961 . S
H824 C808 0.931 . S
H825 C813 0.930 . S
H826 C814 0.956 1_554 S
H827 C814 0.961 . S
H828 C814 0.961 . S
H829 C815 0.958 . S
H830 C815 0.961 . S
H831 C815 0.960 . S
C832 C833 1.391 . S
C832 C834 1.394 . S
C832 H848 0.931 . S
C833 C832 1.391 . S
C833 C837 1.376 . S
C834 C832 1.394 . S
C834 C835 1.369 . S
C834 C838 1.531 . S
C835 C834 1.369 . S
C835 C836 1.410 . S
C835 C843 1.503 . S
C836 C835 1.410 . S
C836 C837 1.392 . S
C836 C839 1.511 . S
C837 C833 1.376 . S
C837 C836 1.392 . S
C837 H849 0.929 . S
C838 C834 1.531 . S
C838 H850 0.960 . S
C838 H851 0.962 . S
C838 H852 0.960 . S
C839 C836 1.511 . S
C839 H853 0.961 . S
C839 H854 0.961 . S
C839 H855 0.961 . S
C840 C841 1.370 . S
C840 C842 1.363 . S
C840 H856 0.931 . S
C841 C840 1.370 . S
C841 C845 1.408 . S
C842 C840 1.363 . S
C842 C843 1.370 . S
C842 C846 1.524 1_556 S
C843 C835 1.503 . S
C843 C842 1.370 . S
C843 C844 1.403 . S
C844 C843 1.403 . S
C844 C845 1.404 . S
C844 C847 1.539 . S
C845 C841 1.408 . S
C845 C844 1.404 . S
C845 H857 0.930 . S
C846 C842 1.524 1_554 S
C846 H858 0.956 . S
C846 H859 0.961 . S
C846 H860 0.961 . S
C847 C844 1.539 . S
C847 H861 0.958 . S
C847 H862 0.961 . S
C847 H863 0.960 . S
H848 C832 0.931 . S
H849 C837 0.929 . S
H850 C838 0.960 . S
H851 C838 0.962 . S
H852 C838 0.960 . S
H853 C839 0.961 . S
H854 C839 0.961 . S
H855 C839 0.961 . S
H856 C840 0.931 . S
H857 C845 0.930 . S
H858 C846 0.956 . S
H859 C846 0.961 . S
H860 C846 0.961 . S
H861 C847 0.958 . S
H862 C847 0.961 . S
H863 C847 0.960 . S
C864 C865 1.391 . S
C864 C866 1.394 . S
C864 H880 0.931 . S
C865 C864 1.391 . S
C865 C869 1.376 . S
C866 C864 1.394 . S
C866 C867 1.369 . S
C866 C870 1.531 . S
C867 C866 1.369 . S
C867 C868 1.410 . S
C867 C875 1.503 . S
C868 C867 1.410 . S
C868 C869 1.392 . S
C868 C871 1.511 . S
C869 C865 1.376 . S
C869 C868 1.392 . S
C869 H881 0.929 . S
C870 C866 1.531 . S
C870 H882 0.960 . S
C870 H883 0.962 . S
C870 H884 0.960 . S
C871 C868 1.511 . S
C871 H885 0.961 . S
C871 H886 0.961 . S
C871 H887 0.961 . S
C872 C873 1.370 . S
C872 C874 1.363 . S
C872 H888 0.931 . S
C873 C872 1.370 . S
C873 C877 1.408 . S
C874 C872 1.363 . S
C874 C875 1.370 . S
C874 C878 1.524 . S
C875 C867 1.503 . S
C875 C874 1.370 . S
C875 C876 1.403 . S
C876 C875 1.403 . S
C876 C877 1.404 . S
C876 C879 1.539 1_556 S
C877 C873 1.408 . S
C877 C876 1.404 . S
C877 H889 0.930 . S
C878 C874 1.524 . S
C878 H890 0.956 . S
C878 H891 0.961 . S
C878 H892 0.961 . S
C879 C876 1.539 1_554 S
C879 H893 0.958 . S
C879 H894 0.961 . S
C879 H895 0.960 . S
H880 C864 0.931 . S
H881 C869 0.929 . S
H882 C870 0.960 . S
H883 C870 0.962 . S
H884 C870 0.960 . S
H885 C871 0.961 . S
H886 C871 0.961 . S
H887 C871 0.961 . S
H888 C872 0.931 . S
H889 C877 0.930 . S
H890 C878 0.956 . S
H891 C878 0.961 . S
H892 C878 0.961 . S
H893 C879 0.958 . S
H894 C879 0.961 . S
H895 C879 0.960 . S
C896 C897 1.395 . S
C896 C898 1.394 . S
C896 H912 0.931 . S
C897 C896 1.395 . S
C897 C901 1.372 1_655 S
C898 C896 1.394 . S
C898 C899 1.391 . S
C898 C902 1.531 . S
C899 C898 1.391 . S
C899 C900 1.387 1_655 S
C899 C907 1.509 . S
C900 C899 1.387 1_455 S
C900 C901 1.392 . S
C900 C903 1.511 . S
C901 C897 1.372 1_455 S
C901 C900 1.392 . S
C901 H913 0.929 . S
C902 C898 1.531 . S
C902 H914 0.960 . S
C902 H915 0.962 . S
C902 H916 0.960 . S
C903 C900 1.511 . S
C903 H917 0.961 . S
C903 H918 0.961 . S
C903 H919 0.961 . S
C904 C905 1.370 . S
C904 C906 1.363 . S
C904 H920 0.931 . S
C905 C904 1.370 . S
C905 C909 1.408 1_655 S
C906 C904 1.363 . S
C906 C907 1.370 . S
C906 C910 1.524 . S
C907 C899 1.509 . S
C907 C906 1.370 . S
C907 C908 1.403 1_655 S
C908 C907 1.403 1_455 S
C908 C909 1.404 . S
C908 C911 1.539 . S
C909 C905 1.408 1_455 S
C909 C908 1.404 . S
C909 H921 0.930 . S
C910 C906 1.524 . S
C910 H922 0.956 . S
C910 H923 0.961 . S
C910 H924 0.961 . S
C911 C908 1.539 . S
C911 H925 0.958 . S
C911 H926 0.961 . S
C911 H927 0.960 . S
H912 C896 0.931 . S
H913 C901 0.929 . S
H914 C902 0.960 . S
H915 C902 0.962 . S
H916 C902 0.960 . S
H917 C903 0.961 . S
H918 C903 0.961 . S
H919 C903 0.961 . S
H920 C904 0.931 . S
H921 C909 0.930 . S
H922 C910 0.956 . S
H923 C910 0.961 . S
H924 C910 0.961 . S
H925 C911 0.958 . S
H926 C911 0.961 . S
H927 C911 0.960 . S
C928 C929 1.391 . S
C928 C930 1.394 . S
C928 H944 0.931 . S
C929 C928 1.391 . S
C929 C933 1.376 . S
C930 C928 1.394 . S
C930 C931 1.369 . S
C930 C934 1.531 . S
C931 C930 1.369 . S
C931 C932 1.410 . S
C931 C939 1.503 . S
C932 C931 1.410 . S
C932 C933 1.392 . S
C932 C935 1.511 . S
C933 C929 1.376 . S
C933 C932 1.392 . S
C933 H945 0.929 . S
C934 C930 1.531 . S
C934 H946 0.960 . S
C934 H947 0.962 1_565 S
C934 H948 0.960 . S
C935 C932 1.511 . S
C935 H949 0.981 . S
C935 H950 0.961 . S
C935 H951 0.961 . S
C936 C937 1.370 1_545 S
C936 C938 1.363 . S
C936 H952 0.931 . S
C937 C936 1.370 1_565 S
C937 C941 1.408 . S
C938 C936 1.363 . S
C938 C939 1.370 1_545 S
C938 C942 1.524 . S
C939 C931 1.503 . S
C939 C938 1.370 1_565 S
C939 C940 1.403 . S
C940 C939 1.403 . S
C940 C941 1.404 . S
C940 C943 1.539 . S
C941 C937 1.408 . S
C941 C940 1.404 . S
C941 H953 0.930 . S
C942 C938 1.524 . S
C942 H954 0.956 . S
C942 H955 0.961 . S
C942 H956 0.961 . S
C943 C940 1.539 . S
C943 H957 0.958 . S
C943 H958 0.961 . S
C943 H959 0.960 . S
H944 C928 0.931 . S
H945 C933 0.929 . S
H946 C934 0.960 . S
H947 C934 0.962 1_545 S
H948 C934 0.960 . S
H949 C935 0.981 . S
H950 C935 0.961 . S
H951 C935 0.961 . S
H952 C936 0.931 . S
H953 C941 0.930 . S
H954 C942 0.956 . S
H955 C942 0.961 . S
H956 C942 0.961 . S
H957 C943 0.958 . S
H958 C943 0.961 . S
H959 C943 0.960 . S
C960 C961 1.391 . S
C960 C962 1.394 . S
C960 H976 0.931 . S
C961 C960 1.391 . S
C961 C965 1.376 . S
C962 C960 1.394 . S
C962 C963 1.369 . S
C962 C966 1.531 . S
C963 C962 1.369 . S
C963 C964 1.410 . S
C963 C971 1.503 . S
C964 C963 1.410 . S
C964 C965 1.392 . S
C964 C967 1.511 . S
C965 C961 1.376 . S
C965 C964 1.392 . S
C965 H977 0.929 . S
C966 C962 1.531 . S
C966 H978 0.960 . S
C966 H979 0.962 . S
C966 H980 0.960 . S
C967 C964 1.511 . S
C967 H981 0.961 . S
C967 H982 0.961 . S
C967 H983 0.961 . S
C968 C969 1.370 . S
C968 C970 1.363 . S
C968 H984 0.931 . S
C969 C968 1.370 . S
C969 C973 1.408 . S
C970 C968 1.363 . S
C970 C971 1.370 . S
C970 C974 1.524 . S
C971 C963 1.503 . S
C971 C970 1.370 . S
C971 C972 1.403 . S
C972 C971 1.403 . S
C972 C973 1.404 . S
C972 C975 1.539 . S
C973 C969 1.408 . S
C973 C972 1.404 . S
C973 H985 0.930 . S
C974 C970 1.524 . S
C974 H986 0.956 . S
C974 H987 0.961 . S
C974 H988 0.961 . S
C975 C972 1.539 . S
C975 H989 0.958 . S
C975 H990 0.961 . S
C975 H991 0.960 . S
H976 C960 0.931 . S
H977 C965 0.929 . S
H978 C966 0.960 . S
H979 C966 0.962 . S
H980 C966 0.960 . S
H981 C967 0.961 . S
H982 C967 0.961 . S
H983 C967 0.961 . S
H984 C968 0.931 . S
H985 C973 0.930 . S
H986 C974 0.956 . S
H987 C974 0.961 . S
H988 C974 0.961 . S
H989 C975 0.958 . S
H990 C975 0.961 . S
H991 C975 0.960 . S
C992 C993 1.391 . S
C992 C994 1.394 . S
C992 H1008 0.931 . S
C993 C992 1.391 . S
C993 C997 1.376 . S
C994 C992 1.394 . S
C994 C995 1.369 . S
C994 C998 1.531 . S
C995 C994 1.369 . S
C995 C996 1.410 . S
C995 C1003 1.503 . S
C996 C995 1.410 . S
C996 C997 1.392 . S
C996 C999 1.511 . S
C997 C993 1.376 . S
C997 C996 1.392 . S
C997 H1009 0.929 . S
C998 C994 1.531 . S
C998 H1010 0.960 . S
C998 H1011 0.962 . S
C998 H1012 0.960 . S
C999 C996 1.511 . S
C999 H1013 0.961 . S
C999 H1014 0.961 . S
C999 H1015 0.961 . S
C1000 C1001 1.370 . S
C1000 C1002 1.363 . S
C1000 H1016 0.931 . S
C1001 C1000 1.370 . S
C1001 C1005 1.408 . S
C1002 C1000 1.363 . S
C1002 C1003 1.370 . S
C1002 C1006 1.524 . S
C1003 C995 1.503 . S
C1003 C1002 1.370 . S
C1003 C1004 1.403 . S
C1004 C1003 1.403 . S
C1004 C1005 1.404 . S
C1004 C1007 1.539 . S
C1005 C1001 1.408 . S
C1005 C1004 1.404 . S
C1005 H1017 0.930 . S
C1006 C1002 1.524 . S
C1006 H1018 0.956 . S
C1006 H1019 0.961 . S
C1006 H1020 0.961 . S
C1007 C1004 1.539 . S
C1007 H1021 0.958 . S
C1007 H1022 0.961 . S
C1007 H1023 0.960 . S
H1008 C992 0.931 . S
H1009 C997 0.929 . S
H1010 C998 0.960 . S
H1011 C998 0.962 . S
H1012 C998 0.960 . S
H1013 C999 0.961 . S
H1014 C999 0.961 . S
H1015 C999 0.961 . S
H1016 C1000 0.931 . S
H1017 C1005 0.930 . S
H1018 C1006 0.956 . S
H1019 C1006 0.961 . S
H1020 C1006 0.961 . S
H1021 C1007 0.958 . S
H1022 C1007 0.961 . S
H1023 C1007 0.960 . S
C257 C76 1.824 1_545 S
C265 C105 1.959 1_545 S
C297 C145 1.969 . S
C289 C88 1.786 . S
C329 C185 1.974 . S
C321 C52 1.799 . S
C361 C225 1.959 1_455 S
C353 C64 1.832 . S
C393 C114 1.961 1_565 S
C385 C28 1.799 . S
C417 C40 1.832 . S
C425 C154 1.972 . S
C449 C4 1.820 . S
C457 C194 1.967 . S
C481 C16 1.827 . S
C489 C234 1.969 1_655 S
C521 C111 0.476 . S
C513 C69 0.469 . S
C553 C151 0.478 . S
C545 C81 0.597 . S
C585 C191 0.473 . S
C577 C93 0.522 . S
C609 C57 0.545 . S
C617 C231 0.460 . S
C641 C21 0.515 1_655 S
C649 C102 0.515 . S
C681 C142 0.524 . S
C673 C33 0.509 . S
C713 C182 0.496 . S
C705 C45 0.593 . S
C737 C9 0.445 . S
C745 C222 0.531 . S
C769 C66 2.043 . S
C777 C115 2.287 . S
C801 C78 2.056 . S
C809 C155 2.261 . S
C841 C195 2.257 . S
C833 C90 2.052 . S
C873 C235 2.274 . S
C865 C54 1.993 . S
C897 C18 2.072 1_655 S
C905 C106 2.287 . S
C937 C146 2.272 . S
C929 C30 2.034 1_565 S
C969 C186 2.248 . S
C961 C42 2.020 . S
C993 C6 2.056 . S
C1001 C226 2.275 . S
