# Generated by pormake.
# Topology pyr, (3,6)-cn, num edge types: 1
# Building blocks:
#     Node 0, Type 0, BuildingBlock: MIDCAF_clean_linker_0, # of connection points: 3
#     Node 1, Type 0, BuildingBlock: MIDCAF_clean_linker_0, # of connection points: 3
#     Node 2, Type 0, BuildingBlock: MIDCAF_clean_linker_0, # of connection points: 3
#     Node 3, Type 0, BuildingBlock: MIDCAF_clean_linker_0, # of connection points: 3
#     Node 4, Type 0, BuildingBlock: MIDCAF_clean_linker_0, # of connection points: 3
#     Node 5, Type 0, BuildingBlock: MIDCAF_clean_linker_0, # of connection points: 3
#     Node 6, Type 0, BuildingBlock: MIDCAF_clean_linker_0, # of connection points: 3
#     Node 7, Type 0, BuildingBlock: MIDCAF_clean_linker_0, # of connection points: 3
#     Node 8, Type 1, BuildingBlock: INOVEN_clean_sbu_0, # of connection points: 6
#     Node 9, Type 1, BuildingBlock: INOVEN_clean_sbu_0, # of connection points: 6
#     Node 10, Type 1, BuildingBlock: INOVEN_clean_sbu_0, # of connection points: 6
#     Node 11, Type 1, BuildingBlock: INOVEN_clean_sbu_0, # of connection points: 6
#     Edge 12, Type (0, 1), BuildingBlock: XIVTED_clean_linker_0, # of connection points: 2
#     Edge 13, Type (0, 1), BuildingBlock: XIVTED_clean_linker_0, # of connection points: 2
#     Edge 14, Type (0, 1), BuildingBlock: XIVTED_clean_linker_0, # of connection points: 2
#     Edge 15, Type (0, 1), BuildingBlock: XIVTED_clean_linker_0, # of connection points: 2
#     Edge 16, Type (0, 1), BuildingBlock: XIVTED_clean_linker_0, # of connection points: 2
#     Edge 17, Type (0, 1), BuildingBlock: XIVTED_clean_linker_0, # of connection points: 2
#     Edge 18, Type (0, 1), BuildingBlock: XIVTED_clean_linker_0, # of connection points: 2
#     Edge 19, Type (0, 1), BuildingBlock: XIVTED_clean_linker_0, # of connection points: 2
#     Edge 20, Type (0, 1), BuildingBlock: XIVTED_clean_linker_0, # of connection points: 2
#     Edge 21, Type (0, 1), BuildingBlock: XIVTED_clean_linker_0, # of connection points: 2
#     Edge 22, Type (0, 1), BuildingBlock: XIVTED_clean_linker_0, # of connection points: 2
#     Edge 23, Type (0, 1), BuildingBlock: XIVTED_clean_linker_0, # of connection points: 2
#     Edge 24, Type (0, 1), BuildingBlock: XIVTED_clean_linker_0, # of connection points: 2
#     Edge 25, Type (0, 1), BuildingBlock: XIVTED_clean_linker_0, # of connection points: 2
#     Edge 26, Type (0, 1), BuildingBlock: XIVTED_clean_linker_0, # of connection points: 2
#     Edge 27, Type (0, 1), BuildingBlock: XIVTED_clean_linker_0, # of connection points: 2
#     Edge 28, Type (0, 1), BuildingBlock: XIVTED_clean_linker_0, # of connection points: 2
#     Edge 29, Type (0, 1), BuildingBlock: XIVTED_clean_linker_0, # of connection points: 2
#     Edge 30, Type (0, 1), BuildingBlock: XIVTED_clean_linker_0, # of connection points: 2
#     Edge 31, Type (0, 1), BuildingBlock: XIVTED_clean_linker_0, # of connection points: 2
#     Edge 32, Type (0, 1), BuildingBlock: XIVTED_clean_linker_0, # of connection points: 2
#     Edge 33, Type (0, 1), BuildingBlock: XIVTED_clean_linker_0, # of connection points: 2
#     Edge 34, Type (0, 1), BuildingBlock: XIVTED_clean_linker_0, # of connection points: 2
#     Edge 35, Type (0, 1), BuildingBlock: XIVTED_clean_linker_0, # of connection points: 2
# Relax obj value: 0.094
# Max RMSD: 0.127
# Mean RMSD: 0.059
data_MOF--net-pyr--node1-INOVEN_clean_sbu_0--node2-MIDCAF_clean_linker_0--edge1-XIVTED_clean_linker_0
_symmetry_space_group_name_H-M    P1
_symmetry_Int_Tables_number       1
_symmetry_cell_setting            triclinic
loop_
_symmetry_equiv_pos_as_xyz
'x, y, z'
_cell_length_a     47.421239
_cell_length_b     48.87123
_cell_length_c     42.782333
_cell_angle_alpha  90.126383
_cell_angle_beta   87.886092
_cell_angle_gamma 101.39425
loop_
_atom_site_label
_atom_site_type_symbol
_atom_site_fract_x
_atom_site_fract_y
_atom_site_fract_z
_atom_type_partial_charge
C0 C 0.27304 0.29333 0.3378 0.0
C1 C 0.2844 0.27533 0.35726 0.0
C2 C 0.31128 0.26886 0.34863 0.0
C3 C 0.32489 0.2778 0.31986 0.0
H4 H 0.35522 0.23437 0.24751 0.0
H5 H 0.37817 0.19912 0.2227 0.0
H6 H 0.3938 0.24865 0.13815 0.0
H7 H 0.37065 0.2841 0.16283 0.0
H8 H 0.30709 0.31311 0.15507 0.0
H9 H 0.27538 0.33724 0.12658 0.0
H10 H 0.26692 0.38844 0.20746 0.0
H11 H 0.29857 0.36459 0.2358 0.0
H12 H 0.27657 0.31519 0.29432 0.0
H13 H 0.25233 0.29868 0.34322 0.0
H14 H 0.32121 0.25579 0.36341 0.0
H15 H 0.34469 0.2711 0.31309 0.0
N16 N 0.3391 0.28135 0.25306 0.0
N17 N 0.33531 0.3013 0.20388 0.0
N18 N 0.31317 0.31709 0.24844 0.0
C19 C 0.34553 0.28269 0.2218 0.0
C20 C 0.3193 0.31877 0.2172 0.0
C21 C 0.32301 0.29855 0.26657 0.0
C22 C 0.36103 0.26212 0.20715 0.0
C23 C 0.36368 0.23795 0.22369 0.0
C24 C 0.37664 0.21759 0.20944 0.0
C25 C 0.3876 0.22109 0.17848 0.0
C26 C 0.38561 0.2455 0.16211 0.0
C27 C 0.37227 0.26573 0.17622 0.0
C28 C 0.30507 0.33671 0.19782 0.0
C29 C 0.29905 0.32999 0.16648 0.0
C30 C 0.28072 0.34365 0.15025 0.0
C31 C 0.26843 0.36452 0.16491 0.0
C32 C 0.27615 0.37257 0.19544 0.0
C33 C 0.29417 0.35875 0.21175 0.0
C34 C 0.31223 0.2939 0.29942 0.0
C35 C 0.28692 0.3027 0.3094 0.0
C36 C 0.14104 0.85676 0.68739 0.0
C37 C 0.12937 0.85192 0.6577 0.0
C38 C 0.12953 0.82606 0.64324 0.0
C39 C 0.14162 0.80576 0.6579 0.0
H40 H 0.18802 0.74134 0.63662 0.0
H41 H 0.20918 0.70665 0.60772 0.0
H42 H 0.22673 0.67022 0.69507 0.0
H43 H 0.20536 0.70429 0.72372 0.0
H44 H 0.23284 0.75292 0.7736 0.0
H45 H 0.26163 0.77001 0.8182 0.0
H46 H 0.21733 0.83895 0.82751 0.0
H47 H 0.18828 0.82182 0.78334 0.0
H48 H 0.16207 0.84132 0.72473 0.0
H49 H 0.14181 0.87657 0.69904 0.0
H50 H 0.12037 0.82148 0.62056 0.0
H51 H 0.14173 0.78622 0.64596 0.0
N52 N 0.17291 0.7673 0.68678 0.0
N53 N 0.19833 0.75531 0.72905 0.0
N54 N 0.17898 0.79571 0.73126 0.0
C55 C 0.18775 0.74953 0.70017 0.0
C56 C 0.19401 0.77832 0.74479 0.0
C57 C 0.16822 0.79037 0.70241 0.0
C58 C 0.19542 0.72583 0.68247 0.0
C59 C 0.19573 0.72546 0.6496 0.0
C60 C 0.20799 0.7057 0.63303 0.0
C61 C 0.21985 0.68582 0.64907 0.0
C62 C 0.21756 0.68502 0.68191 0.0
C63 C 0.20554 0.70479 0.6984 0.0
C64 C 0.20845 0.78618 0.77456 0.0
C65 C 0.22884 0.77145 0.78546 0.0
C66 C 0.24548 0.7813 0.81094 0.0
C67 C 0.24194 0.80595 0.82619 0.0
C68 C 0.22043 0.81976 0.81644 0.0
C69 C 0.20389 0.81001 0.79091 0.0
C70 C 0.1537 0.81087 0.68739 0.0
C71 C 0.1529 0.83649 0.70209 0.0
C72 C 0.62428 0.29074 0.92696 0.0
C73 C 0.60887 0.27029 0.90761 0.0
C74 C 0.60741 0.27632 0.87564 0.0
C75 C 0.62089 0.30247 0.86337 0.0
H76 H 0.61737 0.36336 0.79096 0.0
H77 H 0.59896 0.3859 0.74727 0.0
H78 H 0.6527 0.46455 0.77121 0.0
H79 H 0.67119 0.44218 0.81475 0.0
H80 H 0.72696 0.43853 0.85726 0.0
H81 H 0.77089 0.46067 0.88258 0.0
H82 H 0.7565 0.395 0.95217 0.0
H83 H 0.71312 0.37261 0.92668 0.0
H84 H 0.65011 0.33172 0.93022 0.0
H85 H 0.62585 0.28662 0.95164 0.0
H86 H 0.59553 0.26094 0.86026 0.0
H87 H 0.61938 0.30659 0.83868 0.0
N88 N 0.64273 0.3619 0.84446 0.0
N89 N 0.68038 0.40095 0.84853 0.0
N90 N 0.67564 0.36409 0.88447 0.0
C91 C 0.65667 0.38745 0.8337 0.0
C92 C 0.69011 0.38933 0.87385 0.0
C93 C 0.65205 0.3502 0.87002 0.0
C94 C 0.6458 0.40088 0.80653 0.0
C95 C 0.62533 0.38545 0.78692 0.0
C96 C 0.61487 0.39834 0.76173 0.0
C97 C 0.62429 0.42706 0.75576 0.0
C98 C 0.64477 0.44246 0.77531 0.0
C99 C 0.65551 0.42953 0.80021 0.0
C100 C 0.71641 0.40365 0.88973 0.0
C101 C 0.73311 0.42882 0.87799 0.0
C102 C 0.75828 0.44162 0.89264 0.0
C103 C 0.76741 0.42958 0.91939 0.0
C104 C 0.7505 0.40463 0.93131 0.0
C105 C 0.72541 0.39185 0.91671 0.0
C106 C 0.63667 0.32279 0.88271 0.0
C107 C 0.63825 0.31654 0.91461 0.0
C108 C 0.76552 0.68533 0.42894 0.0
C109 C 0.75397 0.65657 0.4272 0.0
C110 C 0.76903 0.63984 0.40876 0.0
C111 C 0.79517 0.6515 0.39306 0.0
H112 H 0.84871 0.6459 0.31049 0.0
H113 H 0.86986 0.62256 0.26783 0.0
H114 H 0.95154 0.67841 0.27877 0.0
H115 H 0.93046 0.70188 0.32152 0.0
H116 H 0.93403 0.75253 0.37759 0.0
H117 H 0.9574 0.79727 0.39988 0.0
H118 H 0.87413 0.81458 0.42688 0.0
H119 H 0.85088 0.77008 0.40514 0.0
H120 H 0.79981 0.7191 0.41581 0.0
H121 H 0.75432 0.69912 0.44213 0.0
H122 H 0.76102 0.61758 0.40699 0.0
H123 H 0.80641 0.63794 0.37955 0.0
N124 N 0.84817 0.67903 0.35813 0.0
N125 N 0.88852 0.71593 0.35564 0.0
N126 N 0.84959 0.71806 0.39038 0.0
C127 C 0.87461 0.69057 0.34526 0.0
C128 C 0.87599 0.72985 0.37814 0.0
C129 C 0.83556 0.69266 0.3808 0.0
C130 C 0.8878 0.67588 0.31961 0.0
C131 C 0.87122 0.65323 0.30396 0.0
C132 C 0.88329 0.63992 0.27927 0.0
C133 C 0.9124 0.64862 0.26974 0.0
C134 C 0.92911 0.67102 0.28562 0.0
C135 C 0.91695 0.68457 0.31008 0.0
C136 C 0.89058 0.75763 0.38966 0.0
C137 C 0.92074 0.766 0.38807 0.0
C138 C 0.93412 0.79152 0.40099 0.0
C139 C 0.9176 0.80946 0.41513 0.0
C140 C 0.88747 0.80137 0.41594 0.0
C141 C 0.87416 0.77574 0.40361 0.0
C142 C 0.807 0.68014 0.39561 0.0
C143 C 0.79166 0.69689 0.41356 0.0
C144 C 0.61468 0.84087 0.8741 0.0
C145 C 0.61104 0.84521 0.90632 0.0
C146 C 0.62175 0.82816 0.9275 0.0
C147 C 0.63674 0.80787 0.91665 0.0
H148 H 0.68934 0.75255 0.94546 0.0
H149 H 0.71616 0.72656 0.97842 0.0
H150 H 0.73557 0.67891 0.89811 0.0
H151 H 0.70891 0.70466 0.86539 0.0
H152 H 0.73135 0.74682 0.80471 0.0
H153 H 0.76863 0.7656 0.76556 0.0
H154 H 0.73287 0.83994 0.75814 0.0
H155 H 0.69528 0.82107 0.7968 0.0
H156 H 0.63316 0.81865 0.83824 0.0
H157 H 0.6068 0.85379 0.85725 0.0
H158 H 0.61897 0.83088 0.95248 0.0
H159 H 0.64543 0.79564 0.93359 0.0
N160 N 0.66784 0.76606 0.89189 0.0
N161 N 0.69919 0.75469 0.85246 0.0
N162 N 0.67355 0.79002 0.84381 0.0
C163 C 0.68679 0.75016 0.88156 0.0
C164 C 0.69284 0.77461 0.83345 0.0
C165 C 0.6607 0.78571 0.8728 0.0
C166 C 0.6973 0.73083 0.90278 0.0
C167 C 0.69865 0.73598 0.93508 0.0
C168 C 0.71417 0.72126 0.95389 0.0
C169 C 0.72818 0.70087 0.9408 0.0
C170 C 0.72488 0.69433 0.90899 0.0
C171 C 0.70974 0.70923 0.89017 0.0
C172 C 0.71069 0.78272 0.80452 0.0
C173 C 0.73098 0.7669 0.79423 0.0
C174 C 0.75245 0.77769 0.77186 0.0
C175 C 0.75411 0.80452 0.75929 0.0
C176 C 0.73221 0.81919 0.76733 0.0
C177 C 0.71067 0.80837 0.78967 0.0
C178 C 0.64165 0.80448 0.8844 0.0
C179 C 0.62995 0.82084 0.86325 0.0
C180 C 0.68443 0.14524 0.38814 0.0
C181 C 0.66818 0.16205 0.37309 0.0
C182 C 0.66578 0.18788 0.38624 0.0
C183 C 0.68031 0.19724 0.41325 0.0
H184 H 0.68138 0.2437 0.50852 0.0
H185 H 0.67497 0.29087 0.52104 0.0
H186 H 0.76691 0.32064 0.51236 0.0
H187 H 0.77341 0.27299 0.50069 0.0
H188 H 0.78464 0.19357 0.53845 0.0
H189 H 0.82319 0.16902 0.5511 0.0
H190 H 0.82231 0.13573 0.45754 0.0
H191 H 0.78364 0.15969 0.44498 0.0
H192 H 0.71224 0.14157 0.42539 0.0
H193 H 0.68683 0.12532 0.3784 0.0
H194 H 0.65312 0.20111 0.37527 0.0
H195 H 0.6787 0.21762 0.42226 0.0
N196 N 0.71256 0.21616 0.46811 0.0
N197 N 0.75325 0.21574 0.49771 0.0
N198 N 0.73842 0.18039 0.46118 0.0
C199 C 0.73093 0.22786 0.49024 0.0
C200 C 0.75688 0.19178 0.48333 0.0
C201 C 0.71618 0.1924 0.45346 0.0
C202 C 0.72784 0.25487 0.50361 0.0
C203 C 0.70025 0.26018 0.51022 0.0
C204 C 0.69662 0.28709 0.51754 0.0
C205 C 0.72048 0.30927 0.51763 0.0
C206 C 0.74825 0.30378 0.51251 0.0
C207 C 0.75194 0.27661 0.50597 0.0
C208 C 0.78109 0.17841 0.4908 0.0
C209 C 0.79284 0.18115 0.52058 0.0
C210 C 0.81472 0.16706 0.52785 0.0
C211 C 0.82558 0.1506 0.50523 0.0
C212 C 0.81437 0.14847 0.47527 0.0
C213 C 0.79215 0.16204 0.4682 0.0
C214 C 0.69778 0.18104 0.42742 0.0
C215 C 0.69915 0.15467 0.41496 0.0
C216 C 0.25434 0.64979 0.18981 0.0
C217 C 0.24885 0.65528 0.15862 0.0
C218 C 0.2692 0.67471 0.14127 0.0
C219 C 0.29428 0.6888 0.15501 0.0
H220 H 0.34273 0.76944 0.15856 0.0
H221 H 0.36337 0.81597 0.13927 0.0
H222 H 0.43331 0.82097 0.20224 0.0
H223 H 0.41223 0.77436 0.22224 0.0
H224 H 0.40668 0.72502 0.27529 0.0
H225 H 0.42855 0.7028 0.31656 0.0
H226 H 0.37035 0.62481 0.29985 0.0
H227 H 0.34856 0.64681 0.25855 0.0
H228 H 0.28341 0.65875 0.22744 0.0
H229 H 0.23901 0.63483 0.20365 0.0
H230 H 0.26542 0.67943 0.11724 0.0
H231 H 0.30938 0.70391 0.1411 0.0
N232 N 0.33879 0.72462 0.19043 0.0
N233 N 0.37461 0.72728 0.22734 0.0
N234 N 0.33824 0.68705 0.22457 0.0
C235 C 0.36282 0.73922 0.2036 0.0
C236 C 0.36251 0.70112 0.23791 0.0
C237 C 0.32631 0.69865 0.20077 0.0
C238 C 0.37578 0.76789 0.19199 0.0
C239 C 0.36252 0.78032 0.16842 0.0
C240 C 0.37449 0.80709 0.15714 0.0
C241 C 0.40017 0.82231 0.16898 0.0
C242 C 0.41337 0.81003 0.19275 0.0
C243 C 0.40134 0.78317 0.20411 0.0
C244 C 0.37578 0.6878 0.26343 0.0
C245 C 0.39849 0.70313 0.28036 0.0
C246 C 0.41097 0.69042 0.30419 0.0
C247 C 0.40127 0.66198 0.31153 0.0
C248 C 0.37861 0.64665 0.2946 0.0
C249 C 0.36597 0.65939 0.27099 0.0
C250 C 0.29989 0.68328 0.18619 0.0
C251 C 0.27978 0.66338 0.20335 0.0
C252 C 0.15783 0.28833 0.67112 0.0
C253 C 0.13064 0.27401 0.68217 0.0
C254 C 0.11569 0.28701 0.70504 0.0
C255 C 0.12742 0.31391 0.71596 0.0
H256 H 0.11222 0.38241 0.77373 0.0
H257 H 0.09008 0.40705 0.81447 0.0
H258 H 0.16889 0.46867 0.81891 0.0
H259 H 0.19054 0.4447 0.77756 0.0
H260 H 0.23612 0.45038 0.7178 0.0
H261 H 0.28226 0.47202 0.6924 0.0
H262 H 0.28308 0.39624 0.64065 0.0
H263 H 0.23761 0.3746 0.66593 0.0
H264 H 0.19044 0.32511 0.6725 0.0
H265 H 0.17034 0.27886 0.65408 0.0
H266 H 0.09464 0.27666 0.71401 0.0
H267 H 0.11519 0.32343 0.73322 0.0
N268 N 0.15441 0.37053 0.73764 0.0
N269 N 0.19226 0.40973 0.73266 0.0
N270 N 0.19255 0.37062 0.70113 0.0
C271 C 0.16687 0.39684 0.74679 0.0
C272 C 0.20523 0.39678 0.70972 0.0
C273 C 0.16728 0.35723 0.71477 0.0
C274 C 0.15321 0.4115 0.77212 0.0
C275 C 0.12483 0.40123 0.78337 0.0
C276 C 0.11216 0.41535 0.80697 0.0
C277 C 0.12755 0.44005 0.82021 0.0
C278 C 0.15601 0.45013 0.80904 0.0
C279 C 0.16857 0.43617 0.78531 0.0
C280 C 0.23305 0.41061 0.69416 0.0
C281 C 0.24615 0.43833 0.70101 0.0
C282 C 0.27254 0.45082 0.68632 0.0
C283 C 0.28653 0.43581 0.66466 0.0
C284 C 0.27322 0.40828 0.6576 0.0
C285 C 0.24693 0.39589 0.67207 0.0
C286 C 0.15443 0.32838 0.70432 0.0
C287 C 0.16948 0.31501 0.68193 0.0
Gd288 Gd 0.03759 0.04805 0.52805 0.0
Gd289 Gd 0.01413 1.02181 0.59028 0.0
C290 C 0.05356 0.084 0.59124 0.0
C291 C 0.0556 0.08072 0.48099 0.0
C292 C 0.07797 0.10614 0.47788 0.0
C293 C 0.10085 0.11084 0.4984 0.0
C294 C 0.07742 0.12517 0.4536 0.0
C295 C 0.12376 0.15204 0.46872 0.0
C296 C 0.10014 0.14804 0.44907 0.0
C297 C 0.12356 0.13356 0.49384 0.0
C298 C 0.0676 1.01211 0.55241 0.0
C299 C 0.99937 0.98779 0.5266 0.0
C300 C 0.00168 0.99663 0.64323 0.0
C301 C 0.97666 0.97559 0.65456 0.0
C302 C 0.94846 0.98002 0.65179 0.0
C303 C 0.98083 0.95002 0.66643 0.0
C304 C 0.92893 0.9334 0.67216 0.0
C305 C 0.95721 0.92909 0.67508 0.0
C306 C 0.92489 0.95923 0.66064 0.0
C307 C 0.97498 0.04162 0.55716 0.0
O308 O 0.0578 0.08192 0.56068 0.0
O309 O 0.03775 0.06342 0.60801 0.0
O310 O 0.06507 0.05796 0.48662 0.0
O311 O 0.03271 0.08265 0.49815 0.0
O312 O 0.06299 1.01369 0.52288 0.0
O313 O 0.05687 1.03002 0.56733 0.0
O314 O 0.00656 0.98587 0.55605 0.0
O315 O 0.00404 1.01217 0.51195 0.0
O316 O 0.99704 1.02174 0.63781 0.0
O317 O 0.0181 0.98806 0.62153 0.0
O318 O 0.96888 1.01947 0.57459 0.0
O319 O 0.00105 0.05288 0.5595 0.0
H320 H 0.10163 0.09644 0.51742 0.0
H321 H 0.05988 0.12187 0.43761 0.0
H322 H 0.09986 0.16182 0.42934 0.0
H323 H 0.14133 0.1363 0.50951 0.0
H324 H 0.9445 0.99945 0.64247 0.0
H325 H 0.00237 0.94604 0.66846 0.0
H326 H 0.96115 0.90935 0.68349 0.0
H327 H 0.90348 0.96351 0.65862 0.0
Gd328 Gd 0.53137 0.05005 1.04638 0.0
Gd329 Gd 0.47631 0.03433 1.0131 0.0
C330 C 0.47886 0.07692 0.06929 0.0
C331 C 0.5814 0.06822 0.06855 0.0
C332 C 0.58994 0.07768 0.09994 0.0
C333 C 0.56924 0.07439 0.12462 0.0
C334 C 0.61843 0.09049 0.1054 0.0
C335 C 0.6055 0.09631 0.16029 0.0
C336 C 0.62617 0.09984 0.13541 0.0
C337 C 0.57696 0.08349 0.15457 0.0
C338 C 0.49134 1.00932 0.07532 0.0
C339 C 0.52954 1.00574 0.99094 0.0
C340 C 0.42903 1.01087 0.98803 0.0
C341 C 0.4146 0.98335 0.97628 0.0
C342 C 0.41784 0.9764 0.94464 0.0
C343 C 0.39554 0.96475 0.99599 0.0
C344 C 0.38199 0.93364 0.95226 0.0
C345 C 0.37944 0.94014 0.98412 0.0
C346 C 0.40178 0.95176 0.93279 0.0
C347 C 0.50808 0.08496 0.99631 0.0
O348 O 0.50697 0.08197 0.06423 0.0
O349 O 0.46232 0.05518 0.05646 0.0
O350 O 0.57005 0.04163 0.06633 0.0
O351 O 0.56714 0.08423 0.05371 0.0
O352 O 0.50801 1.02895 0.09003 0.0
O353 O 0.49726 1.01185 1.04652 0.0
O354 O 0.50149 1.00458 0.99025 0.0
O355 O 0.54613 1.02388 1.00856 0.0
O356 O 0.45146 1.02436 0.97176 0.0
O357 O 0.4319 1.01321 1.01836 0.0
O358 O 0.48033 0.07959 0.99963 0.0
O359 O 0.5178 0.06315 1.00085 0.0
H360 H 0.54704 0.06488 0.12069 0.0
H361 H 0.63461 0.09329 0.08651 0.0
H362 H 0.64836 0.10951 0.13925 0.0
H363 H 0.56051 0.08089 0.17317 0.0
H364 H 0.4321 0.9904 0.92874 0.0
H365 H 0.39242 0.96954 1.02046 0.0
H366 H 0.36457 0.92645 0.99976 0.0
H367 H 0.40394 0.94758 0.90804 0.0
Gd368 Gd 0.52254 0.52359 0.51081 0.0
Gd369 Gd 0.50606 0.56866 0.55834 0.0
C370 C 0.5415 0.52276 0.58216 0.0
C371 C 0.54694 0.49704 0.46909 0.0
C372 C 0.57409 0.4871 0.47057 0.0
C373 C 0.58013 0.46644 0.45011 0.0
C374 C 0.5928 0.49633 0.49476 0.0
C375 C 0.62203 0.46257 0.47985 0.0
C376 C 0.61658 0.48421 0.49935 0.0
C377 C 0.60406 0.4543 0.45464 0.0
C378 C 0.47276 0.50824 0.54466 0.0
C379 C 0.48922 0.57118 0.48521 0.0
C380 C 0.47523 0.59123 0.59744 0.0
C381 C 0.44555 0.59584 0.5971 0.0
C382 C 0.4328 0.59954 0.5687 0.0
C383 C 0.42955 0.59599 0.62523 0.0
C384 C 0.38871 0.60489 0.59673 0.0
C385 C 0.40134 0.60047 0.62508 0.0
C386 C 0.40466 0.6041 0.56852 0.0
C387 C 0.56191 0.58406 0.53656 0.0
O388 O 0.54837 0.51778 0.55266 0.0
O389 O 0.52289 0.5389 0.58979 0.0
O390 O 0.52652 0.48461 0.4886 0.0
O391 O 0.54928 0.52417 0.46857 0.0
O392 O 0.48886 0.49097 0.53537 0.0
O393 O 0.48252 0.5322 0.53334 0.0
O394 O 0.48777 0.58126 0.5139 0.0
O395 O 0.50122 0.54939 0.47857 0.0
O396 O 0.49346 0.60572 0.57691 0.0
O397 O 0.47785 0.56508 0.59973 0.0
O398 O 0.54984 0.59885 0.55634 0.0
O399 O 0.54357 0.56259 0.53076 0.0
H400 H 0.56577 0.45894 0.43149 0.0
H401 H 0.58845 0.51217 0.5109 0.0
H402 H 0.63018 0.49116 0.51877 0.0
H403 H 0.60757 0.43743 0.43946 0.0
H404 H 0.44462 0.59903 0.54664 0.0
H405 H 0.43897 0.59293 0.64733 0.0
H406 H 0.38973 0.60127 0.64723 0.0
H407 H 0.39541 0.60708 0.5463 0.0
Gd408 Gd 0.01401 0.51358 0.05058 0.0
Gd409 Gd 0.00463 0.56986 1.02798 0.0
C410 C 0.06278 0.56747 0.06158 0.0
C411 C 0.0252 0.46424 0.05607 0.0
C412 C 0.04762 0.45216 0.07041 0.0
C413 C 0.06429 0.46626 0.0941 0.0
C414 C 0.05456 0.42778 0.05778 0.0
C415 C 0.09538 0.43202 0.09163 0.0
C416 C 0.07821 0.41779 0.06823 0.0
C417 C 0.08788 0.45619 0.10475 0.0
C418 C 0.99703 0.54633 0.0959 0.0
C419 C 0.95359 0.51571 1.01875 0.0
C420 C 0.98504 0.61438 1.01698 0.0
C421 C 0.95614 0.62117 1.01477 0.0
C422 C 0.93679 0.60825 0.99256 0.0
C423 C 0.94773 0.64093 1.03507 0.0
C424 C 0.90141 0.63539 1.01043 0.0
C425 C 0.92064 0.64791 1.03302 0.0
C426 C 0.9098 0.61533 0.99036 0.0
C427 C 0.03726 0.54382 0.98889 0.0
O428 O 0.05823 0.54076 0.05392 0.0
O429 O 0.04277 0.5825 0.05825 0.0
O430 O 0.00693 0.47373 0.0749 0.0
O431 O 0.03445 0.4809 1.0324 0.0
O432 O 0.01541 0.5303 0.10003 0.0
O433 O 0.98776 0.54336 0.0686 0.0
O434 O 0.96214 0.54306 1.01603 0.0
O435 O 0.96984 0.49979 1.03123 0.0
O436 O 0.99315 0.59872 0.99484 0.0
O437 O 0.99225 0.60785 1.04488 0.0
O438 O 0.04257 0.5706 0.9935 0.0
O439 O 0.01484 0.5328 1.00431 0.0
H440 H 0.05947 0.48539 0.10382 0.0
H441 H 0.04221 0.41693 1.03907 0.0
H442 H 0.08357 0.39944 0.05717 0.0
H443 H 0.10035 0.46747 0.12308 0.0
H444 H 0.94254 0.59284 0.9766 0.0
H445 H 0.9622 0.65106 0.05251 0.0
H446 H 0.91478 0.66311 0.04918 0.0
H447 H 0.89582 0.60555 0.97236 0.0
H448 H 0.28207 0.22172 0.37797 0.0
H449 H 0.12686 0.20689 0.4523 0.0
H450 H 0.24464 0.29421 0.39651 0.0
H451 H 0.17967 0.14599 0.46732 0.0
H452 H 0.16987 0.24007 0.43345 0.0
H453 H 0.24611 0.19464 0.41326 0.0
C454 C 0.26684 0.23228 0.38998 0.0
C455 C 0.26631 0.26038 0.38361 0.0
C456 C 0.17208 0.21961 0.44145 0.0
C457 C 0.22408 0.2288 0.42339 0.0
C458 C 0.14755 0.20066 0.45198 0.0
C459 C 0.14972 0.17364 0.46115 0.0
C460 C 0.19877 0.21122 0.43952 0.0
C461 C 0.17705 0.16666 0.46059 0.0
C462 C 0.24604 0.2166 0.41003 0.0
C463 C 0.24544 0.27243 0.39977 0.0
N464 N 0.20043 0.18517 0.44947 0.0
N465 N 0.22478 0.25643 0.41839 0.0
H466 H 0.22979 0.8308 0.88133 0.0
H467 H 0.39498 0.89643 0.90847 0.0
H468 H 0.30041 0.81079 0.82522 0.0
H469 H 0.32429 0.91599 0.96485 0.0
H470 H 0.36107 0.86048 0.88188 0.0
H471 H 0.26437 0.85749 0.91644 0.0
C472 C 0.25257 0.8318 0.87658 0.0
C473 C 0.26223 0.81875 0.85016 0.0
C474 C 0.35301 0.87241 0.90033 0.0
C475 C 0.30194 0.84931 0.89015 0.0
C476 C 0.37235 0.893 0.91542 0.0
C477 C 0.36243 0.90941 0.93872 0.0
C478 C 0.32348 0.86833 0.90842 0.0
C479 C 0.33295 0.90375 0.94716 0.0
C480 C 0.2723 0.84697 0.89667 0.0
C481 C 0.29197 0.82037 0.8454 0.0
N482 N 0.31449 0.8839 0.93179 0.0
N483 N 0.31078 0.83566 0.86498 0.0
H484 H 0.61546 0.40888 0.69531 0.0
H485 H 0.54082 0.53451 0.64493 0.0
H486 H 0.60633 0.47713 0.75643 0.0
H487 H 0.57224 0.48053 0.57779 0.0
H488 H 0.56134 0.51153 0.68674 0.0
H489 H 0.59612 0.43237 0.65276 0.0
C490 C 0.6093 0.42875 0.69983 0.0
C491 C 0.61258 0.44104 0.72954 0.0
C492 C 0.56383 0.50476 0.66286 0.0
C493 C 0.59035 0.46805 0.68089 0.0
C494 C 0.55206 0.51785 0.63891 0.0
C495 C 0.55475 0.5095 0.60767 0.0
C496 C 0.57816 0.48283 0.65573 0.0
C497 C 0.56965 0.48777 0.60146 0.0
C498 C 0.59842 0.44223 0.67547 0.0
C499 C 0.60447 0.46698 0.73388 0.0
N500 N 0.58061 0.47509 0.62525 0.0
N501 N 0.59361 0.4795 0.70995 0.0
H502 H 0.88897 0.63201 0.21327 0.0
H503 H 0.01701 0.55693 0.1547 0.0
H504 H 0.96501 0.6328 0.26582 0.0
H505 H 0.95134 0.57307 0.09423 0.0
H506 H 0.99712 0.58263 0.19658 0.0
H507 H 0.90999 0.6082 0.17056 0.0
C508 C 0.91005 0.62709 0.2159 0.0
C509 C 0.92518 0.63442 0.24331 0.0
C510 C 0.98709 0.58065 0.17414 0.0
C511 C 0.94947 0.60709 0.19428 0.0
C512 C 0.99842 0.56593 0.15023 0.0
C513 C 0.98575 0.56275 0.12098 0.0
C514 C 0.96268 0.59209 0.16893 0.0
C515 C 0.96175 0.57496 0.11645 0.0
C516 C 0.92212 0.61364 0.19139 0.0
C517 C 0.95262 0.6278 0.2451 0.0
N518 N 0.9509 0.58892 0.1402 0.0
N519 N 0.96377 0.6144 0.22107 0.0
H520 H 0.3666 0.16477 0.17791 0.0
H521 H 0.50498 0.12896 0.08766 0.0
H522 H 0.43855 0.22752 0.14456 0.0
H523 H 0.42304 0.07157 0.09216 0.0
H524 H 0.4829 0.16364 0.11502 0.0
H525 H 0.38886 0.12878 0.15271 0.0
C526 C 0.38715 0.17093 0.16538 0.0
C527 C 0.40079 0.19914 0.16327 0.0
C528 C 0.46976 0.14345 0.11008 0.0
C529 C 0.42633 0.15817 0.13458 0.0
C530 C 0.48237 0.12353 0.0946 0.0
C531 C 0.4658 0.09728 0.08753 0.0
C532 C 0.44041 0.13706 0.11891 0.0
C533 C 0.43657 0.09156 0.09703 0.0
C534 C 0.39973 0.15043 0.1509 0.0
C535 C 0.42722 0.20603 0.14652 0.0
N536 N 0.42479 0.1113 0.11231 0.0
N537 N 0.43921 0.18568 0.13295 0.0
H538 H 0.09885 0.88914 0.68357 0.0
H539 H 0.08174 0.96655 0.52364 0.0
H540 H 0.13432 0.86596 0.59523 0.0
H541 H 0.07661 1.00471 0.61414 0.0
H542 H 0.09576 0.92648 0.54875 0.0
H543 H 0.08435 0.92831 0.65767 0.0
C544 C 0.10366 0.89227 0.65875 0.0
C545 C 0.11815 0.87431 0.64167 0.0
C546 C 0.09163 0.94367 0.56307 0.0
C547 C 0.10115 0.91896 0.61181 0.0
C548 C 0.08371 0.96652 0.54878 0.0
C549 C 0.07786 0.9888 0.56695 0.0
C550 C 0.0934 0.94306 0.59574 0.0
C551 C 0.08067 0.98778 0.59938 0.0
C552 C 0.0953 0.91462 0.64398 0.0
C553 C 0.12302 0.87905 0.60935 0.0
N554 N 0.08804 0.96516 0.61281 0.0
N555 N 0.11458 0.90095 0.59547 0.0
H556 H 0.7891 0.48544 0.9289 0.0
H557 H 0.92954 0.45984 1.01451 0.0
H558 H 0.80781 0.4038 0.94495 0.0
H559 H 0.91298 0.54159 0.99412 0.0
H560 H 0.88403 0.4389 0.99119 0.0
H561 H 0.83367 0.50634 0.95406 0.0
C562 C 0.80261 0.47188 0.93754 0.0
C563 C 0.79455 0.44275 0.93472 0.0
C564 C 0.89032 0.46143 0.9919 0.0
C565 C 0.84564 0.46663 0.964 0.0
C566 C 0.91631 0.47342 1.00532 0.0
C567 C 0.92527 0.50257 1.00626 0.0
C568 C 0.87303 0.47865 0.97931 0.0
C569 C 0.90713 0.51903 0.99386 0.0
C570 C 0.82801 0.48385 0.95211 0.0
C571 C 0.81282 0.42631 0.94692 0.0
N572 N 0.88198 0.50687 0.98088 0.0
N573 N 0.83744 0.43845 0.96095 0.0
H574 H 0.73485 0.67138 0.48518 0.0
H575 H 0.58785 0.55802 0.49003 0.0
H576 H 0.7102 0.61353 0.40994 0.0
H577 H 0.60274 0.62991 0.54978 0.0
H578 H 0.63509 0.57413 0.4642 0.0
H579 H 0.68909 0.65288 0.51259 0.0
C580 C 0.71983 0.65491 0.47423 0.0
C581 C 0.7265 0.64434 0.44484 0.0
C582 C 0.62806 0.58639 0.48299 0.0
C583 C 0.67397 0.62252 0.47677 0.0
C584 C 0.60106 0.5771 0.49777 0.0
C585 C 0.59117 0.59263 0.52189 0.0
C586 C 0.64552 0.61139 0.49264 0.0
C587 C 0.60942 0.61729 0.53116 0.0
C588 C 0.6937 0.64422 0.49008 0.0
C589 C 0.70629 0.62231 0.43255 0.0
N590 N 0.63568 0.62591 0.51654 0.0
N591 N 0.68098 0.6122 0.44852 0.0
H592 H 0.26134 0.41892 0.16265 0.0
H593 H 0.10254 0.37798 0.09887 0.0
H594 H 0.22255 0.33568 0.13406 0.0
H595 H 0.14791 0.46337 0.10674 0.0
H596 H 0.14595 0.36217 0.11335 0.0
H597 H 0.2198 0.43585 0.14351 0.0
C598 C 0.2442 0.40427 0.15208 0.0
C599 C 0.2454 0.37585 0.14994 0.0
C600 C 0.14643 0.38437 0.11184 0.0
C601 C 0.19772 0.39498 0.12834 0.0
C602 C 0.12164 0.39345 0.10347 0.0
C603 C 0.12145 0.4221 0.1015 0.0
C604 C 0.17128 0.40403 0.11859 0.0
C605 C 0.1468 0.44109 0.1084 0.0
C606 C 0.22053 0.41394 0.14114 0.0
C607 C 0.22268 0.3578 0.13587 0.0
N608 N 0.17064 0.43172 0.1167 0.0
N609 N 0.19968 0.36762 0.12588 0.0
H610 H 0.57145 0.26072 0.95822 0.0
H611 H 0.56143 0.09596 0.9662 0.0
H612 H 0.61334 0.21775 0.88792 0.0
H613 H 0.49272 0.13548 1.00018 0.0
H614 H 0.5868 0.14122 0.94445 0.0
H615 H 0.5481 0.21553 0.98098 0.0
C616 C 0.57575 0.24173 0.94764 0.0
C617 C 0.59423 0.24292 0.92108 0.0
C618 C 0.5662 0.13989 0.95675 0.0
C619 C 0.56799 0.19122 0.94728 0.0
C620 C 0.55184 0.1142 0.96928 0.0
C621 C 0.5249 0.11204 0.9848 0.0
C622 C 0.55378 0.16361 0.96047 0.0
C623 C 0.51336 0.13624 0.98815 0.0
C624 C 0.56239 0.21599 0.96057 0.0
C625 C 0.59902 0.21768 0.90823 0.0
N626 N 0.5279 0.16102 0.97624 0.0
N627 N 0.58615 0.19283 0.92159 0.0
H628 H 0.96225 0.81837 0.4553 0.0
H629 H 0.96938 0.98274 0.47247 0.0
H630 H 0.90426 0.86128 0.40894 0.0
H631 H 0.00218 0.93387 0.54125 0.0
H632 H 0.9504 0.93969 0.44419 0.0
H633 H 0.98264 0.86192 0.48195 0.0
C634 C 0.95403 0.83703 0.45048 0.0
C635 C 0.93148 0.83616 0.4299 0.0
C636 C 0.96172 0.93842 0.4655 0.0
C637 C 0.9547 0.88608 0.46033 0.0
C638 C 0.97261 0.96298 0.48163 0.0
C639 C 0.98728 0.96193 0.50939 0.0
C640 C 0.96595 0.91263 0.47687 0.0
C641 C 0.99079 0.93569 0.52012 0.0
C642 C 0.96551 0.86181 0.46588 0.0
C643 C 0.92146 0.86095 0.42481 0.0
N644 N 0.98037 0.91215 0.50378 0.0
N645 N 0.93318 0.88488 0.43981 0.0
H646 H 0.22222 0.6309 0.65983 0.0
H647 H 0.37089 0.64489 0.5621 0.0
H648 H 0.25927 0.70135 0.60084 0.0
H649 H 0.34047 0.58107 0.63171 0.0
H650 H 0.32477 0.65986 0.56695 0.0
H651 H 0.25972 0.60664 0.64045 0.0
C652 C 0.23795 0.64108 0.64242 0.0
C653 C 0.23789 0.66841 0.63239 0.0
C654 C 0.32804 0.64236 0.5809 0.0
C655 C 0.28088 0.64081 0.61019 0.0
C656 C 0.35433 0.6337 0.57802 0.0
C657 C 0.35968 0.61192 0.59685 0.0
C658 C 0.30694 0.62919 0.60278 0.0
C659 C 0.33747 0.59834 0.61725 0.0
C660 C 0.25934 0.62722 0.63137 0.0
C661 C 0.25843 0.68034 0.60928 0.0
N662 N 0.31217 0.60737 0.61989 0.0
N663 N 0.27936 0.66663 0.59934 0.0
H664 H 0.80996 0.80331 0.77132 0.0
H665 H 0.87708 0.91929 0.64355 0.0
H666 H 0.75832 0.8387 0.70745 0.0
H667 H 0.92313 0.89685 0.72172 0.0
H668 H 0.83492 0.88473 0.66108 0.0
H669 H 0.85319 0.83142 0.74679 0.0
C670 C 0.8077 0.81656 0.75168 0.0
C671 C 0.78039 0.81867 0.74147 0.0
C672 C 0.85433 0.8873 0.67425 0.0
C673 C 0.82998 0.85147 0.71372 0.0
C674 C 0.87837 0.90716 0.66441 0.0
C675 C 0.9037 0.91126 0.68136 0.0
C676 C 0.85563 0.87126 0.70112 0.0
C677 C 0.90425 0.89434 0.70772 0.0
C678 C 0.83244 0.83286 0.73791 0.0
C679 C 0.7789 0.83666 0.7163 0.0
N680 N 0.88056 0.8752 0.71684 0.0
N681 N 0.80336 0.85251 0.70339 0.0
H682 H 0.67018 0.19394 0.32045 0.0
H683 H 0.59035 0.06854 0.21565 0.0
H684 H 0.63836 0.1106 0.35611 0.0
H685 H 0.63853 0.14616 0.17734 0.0
H686 H 0.60303 0.08521 0.2682 0.0
H687 H 0.65333 0.17851 0.26882 0.0
C688 C 0.65927 0.17248 0.31749 0.0
C689 C 0.65568 0.15348 0.34255 0.0
C690 C 0.61083 0.09859 0.2483 0.0
C691 C 0.63674 0.13562 0.2835 0.0
C692 C 0.60352 0.08915 0.21835 0.0
C693 C 0.61347 0.106 0.19215 0.0
C694 C 0.62804 0.12518 0.25211 0.0
C695 C 0.6307 0.13239 0.19691 0.0
C696 C 0.64991 0.16363 0.28797 0.0
C697 C 0.6418 0.12582 0.33732 0.0
N698 N 0.63739 0.14121 0.22634 0.0
N699 N 0.63286 0.1177 0.30833 0.0
H700 H 0.41577 0.6102 0.31116 0.0
H701 H 0.4673 0.61914 0.48785 0.0
H702 H 0.41721 0.6825 0.36955 0.0
H703 H 0.48131 0.55408 0.42414 0.0
H704 H 0.44625 0.64115 0.44577 0.0
H705 H 0.43701 0.58793 0.35311 0.0
C706 C 0.42044 0.62137 0.33284 0.0
C707 C 0.41463 0.64831 0.33676 0.0
C708 C 0.45396 0.62208 0.44096 0.0
C709 C 0.43909 0.62287 0.385 0.0
C710 C 0.46596 0.6094 0.46505 0.0
C711 C 0.4762 0.58463 0.45966 0.0
C712 C 0.45189 0.60989 0.41115 0.0
C713 C 0.4738 0.57315 0.42948 0.0
C714 C 0.43274 0.60869 0.35673 0.0
C715 C 0.42155 0.66186 0.36529 0.0
N716 N 0.46185 0.58581 0.40644 0.0
N717 N 0.43326 0.64898 0.3883 0.0
H718 H 0.08893 0.41804 0.86796 0.0
H719 H 0.08378 0.565 0.94988 0.0
H720 H 0.13549 0.49687 0.83078 0.0
H721 H 0.02324 0.4889 0.97228 0.0
H722 H 0.10611 0.53997 0.90901 0.0
H723 H 0.06747 0.44317 0.90889 0.0
C724 C 0.09457 0.44061 0.86814 0.0
C725 C 0.11416 0.45519 0.84555 0.0
C726 C 0.088 0.52873 0.92296 0.0
C727 C 0.08988 0.48423 0.89317 0.0
C728 C 0.0753 0.54301 0.94633 0.0
C729 C 0.05174 0.52899 0.96469 0.0
C730 C 0.07717 0.50016 0.91801 0.0
C731 C 0.04157 0.50049 0.95897 0.0
C732 C 0.08238 0.45497 0.89175 0.0
C733 C 0.12093 0.48452 0.84778 0.0
N734 N 0.05435 0.48705 0.93626 0.0
N735 N 0.10889 0.49799 0.87109 0.0
H736 H 0.56173 0.86076 0.88726 0.0
H737 H 0.58509 0.99826 0.99231 0.0
H738 H 0.63101 0.88351 0.95075 0.0
H739 H 0.50336 0.96381 0.95242 0.0
H740 H 0.6047 0.95965 0.97044 0.0
H741 H 0.54207 0.90122 0.90515 0.0
C742 C 0.57275 0.87425 0.90498 0.0
C743 C 0.59793 0.8687 0.91771 0.0
C744 C 0.58251 0.96058 0.96634 0.0
C745 C 0.57585 0.91503 0.9379 0.0
C746 C 0.57129 0.98276 0.97866 0.0
C747 C 0.54242 0.98425 0.97439 0.0
C748 C 0.56486 0.93973 0.9494 0.0
C749 C 0.5257 0.96346 0.95642 0.0
C750 C 0.56152 0.89725 0.91519 0.0
C751 C 0.61133 0.88678 0.94065 0.0
N752 N 0.53714 0.94198 0.94464 0.0
N753 N 0.60021 0.90917 0.94988 0.0
H754 H 0.82475 0.11463 0.55392 0.0
H755 H 0.98326 0.08955 0.5225 0.0
H756 H 0.87665 0.15056 0.47377 0.0
H757 H 0.91693 1.02791 0.56814 0.0
H758 H 0.94671 0.11605 0.50869 0.0
H759 H 0.86103 0.08682 0.56495 0.0
C760 C 0.84393 0.11678 0.53885 0.0
C761 C 0.8479 0.13484 0.51298 0.0
C762 C 0.94019 0.09659 0.52147 0.0
C763 C 0.88921 0.10333 0.52535 0.0
C764 C 0.96098 0.08145 0.52927 0.0
C765 C 0.95304 0.05651 0.54634 0.0
C766 C 0.91144 0.08695 0.53147 0.0
C767 C 0.92392 0.04705 0.55488 0.0
C768 C 0.86443 0.10079 0.54495 0.0
C769 C 0.87289 0.13674 0.49389 0.0
N770 N 0.90415 0.06247 0.54765 0.0
N771 N 0.89278 0.12128 0.50058 0.0
H772 H 0.24253 0.62596 0.10386 0.0
H773 H 0.07298 0.6127 0.10016 0.0
H774 H 0.1936 0.65307 0.1807 0.0
H775 H 0.11526 0.5519 0.05507 0.0
H776 H 0.1183 0.63343 0.12423 0.0
H777 H 0.19725 0.60395 0.08002 0.0
C778 C 0.22223 0.62726 0.11566 0.0
C779 C 0.22172 0.64125 0.1443 0.0
C780 C 0.11763 0.61556 0.10905 0.0
C781 C 0.17006 0.61665 0.117 0.0
C782 C 0.09185 0.60383 0.09513 0.0
C783 C 0.09035 0.58056 0.07551 0.0
C784 C 0.14231 0.60436 0.1028 0.0
C785 C 0.11545 0.56978 0.0701 0.0
C786 C 0.19648 0.61464 0.10215 0.0
C787 C 0.19488 0.64229 0.15871 0.0
N788 N 0.14048 0.58192 0.08345 0.0
N789 N 0.17012 0.6304 0.14476 0.0
H790 H 0.33287 0.41095 0.65486 0.0
H791 H 0.43114 0.53885 0.55993 0.0
H792 H 0.30562 0.489 0.64053 0.0
H793 H 0.45358 0.4586 0.57394 0.0
H794 H 0.38644 0.52303 0.59162 0.0
H795 H 0.37844 0.42988 0.62758 0.0
C796 C 0.33643 0.4321 0.64587 0.0
C797 C 0.31513 0.44824 0.64971 0.0
C798 C 0.40122 0.50895 0.58781 0.0
C799 C 0.3678 0.47035 0.61837 0.0
C800 C 0.42673 0.51801 0.56984 0.0
C801 C 0.44606 0.5 0.56432 0.0
C802 C 0.39508 0.48167 0.60023 0.0
C803 C 0.43927 0.47315 0.57747 0.0
C804 C 0.3626 0.443 0.63037 0.0
C805 C 0.32141 0.47581 0.63818 0.0
N806 N 0.41442 0.46484 0.59467 0.0
N807 N 0.34709 0.48594 0.62283 0.0
H808 H 0.73526 0.64645 0.94263 0.0
H809 H 0.88924 0.68788 1.01636 0.0
H810 H 0.76921 0.7282 0.97918 0.0
H811 H 0.84929 0.60276 0.99587 0.0
H812 H 0.8441 0.70229 1.00618 0.0
H813 H 0.77518 0.62917 0.9651 0.0
C814 C 0.7509 0.66066 0.95577 0.0
C815 C 0.74901 0.68885 0.95886 0.0
C816 C 0.8451 0.6804 1.0042 0.0
C817 C 0.79491 0.66933 0.98434 0.0
C818 C 0.8709 0.67209 1.01019 0.0
C819 C 0.87328 0.64404 1.00675 0.0
C820 C 0.82147 0.66061 0.99438 0.0
C821 C 0.84874 0.62471 0.99816 0.0
C822 C 0.77366 0.65079 0.96863 0.0
C823 C 0.7697 0.70627 0.97638 0.0
N824 N 0.82398 0.63339 0.99198 0.0
N825 N 0.79199 0.69633 0.98807 0.0
H826 H 0.42717 0.86897 0.2006 0.0
H827 H 0.45889 0.96498 1.0463 0.0
H828 H 0.40284 0.84054 0.10801 0.0
H829 H 0.4874 0.99383 0.13734 0.0
H830 H 0.43587 0.92009 0.06945 0.0
H831 H 0.44784 0.91519 0.17875 0.0
C832 C 0.42625 0.87234 0.17568 0.0
C833 C 0.41311 0.85067 0.1562 0.0
C834 C 0.44705 0.93621 0.08447 0.0
C835 C 0.4365 0.90381 0.13104 0.0
C836 C 0.46014 0.9619 0.07125 0.0
C837 C 0.47521 0.98312 0.08991 0.0
C838 C 0.44902 0.93154 0.11666 0.0
C839 C 0.47602 0.97801 0.12211 0.0
C840 C 0.43791 0.89884 0.16325 0.0
C841 C 0.41228 0.85657 0.12412 0.0
N842 N 0.46326 0.9527 0.13446 0.0
N843 N 0.42378 0.88245 0.11263 0.0
H844 H 0.133 0.25658 0.62137 0.0
H845 H 0.04793 0.09949 0.65306 0.0
H846 H 0.09965 0.22718 0.71306 0.0
H847 H 0.08717 0.13052 0.56409 0.0
H848 H 0.06601 0.14546 0.67599 0.0
H849 H 0.11525 0.2103 0.6005 0.0
C850 C 0.12206 0.24036 0.63724 0.0
C851 C 0.11818 0.2459 0.66919 0.0
C852 C 0.07073 0.1421 0.65149 0.0
C853 C 0.09728 0.19237 0.6451 0.0
C854 C 0.0605 0.11581 0.63837 0.0
C855 C 0.06599 0.11094 0.60651 0.0
C856 C 0.08651 0.16377 0.63262 0.0
C857 C 0.08231 0.13306 0.58871 0.0
C858 C 0.11177 0.21384 0.62521 0.0
C859 C 0.10308 0.22401 0.68827 0.0
N860 N 0.09184 0.15836 0.60194 0.0
N861 N 0.09328 0.19821 0.67598 0.0
H862 H 0.68876 0.33254 0.56098 0.0
H863 H 0.66169 0.44463 0.44059 0.0
H864 H 0.73981 0.35082 0.47537 0.0
H865 H 0.63253 0.44381 0.53739 0.0
H866 H 0.69356 0.41291 0.45386 0.0
H867 H 0.67144 0.3761 0.55491 0.0
C868 C 0.69683 0.34615 0.54133 0.0
C869 C 0.71554 0.33815 0.51855 0.0
C870 C 0.68059 0.42011 0.47229 0.0
C871 C 0.69532 0.38744 0.51089 0.0
C872 C 0.66229 0.43804 0.46467 0.0
C873 C 0.6443 0.44664 0.48786 0.0
C874 C 0.68043 0.41034 0.50319 0.0
C875 C 0.64612 0.43777 0.51879 0.0
C876 C 0.68695 0.37096 0.5378 0.0
C877 C 0.72542 0.35638 0.49347 0.0
N878 N 0.6635 0.41976 0.52546 0.0
N879 N 0.71471 0.37994 0.48993 0.0
loop_
_geom_bond_atom_site_label_1
_geom_bond_atom_site_label_2
_geom_bond_distance
_geom_bond_site_symmetry_2
_ccdc_geom_bond_type
C0 C1 1.384 . S
C0 H13 0.947 . S
C0 C35 1.382 . S
C1 C0 1.384 . S
C1 C2 1.378 . S
C2 C1 1.378 . S
C2 C3 1.378 . S
C2 H14 0.952 . S
C3 C2 1.378 . S
C3 H15 0.950 . S
C3 C34 1.383 . S
H4 C23 0.947 . S
H5 C24 0.946 . S
H6 C26 0.953 . S
H7 C27 0.945 . S
H8 C29 0.952 . S
H9 C30 0.949 . S
H10 C32 0.950 . S
H11 C33 0.948 . S
H12 C35 0.951 . S
H13 C0 0.947 . S
H14 C2 0.952 . S
H15 C3 0.950 . S
N16 C19 1.382 . S
N16 C21 1.363 . S
N17 C19 1.371 . S
N17 C20 1.372 . S
N18 C20 1.361 . S
N18 C21 1.377 . S
C19 N16 1.382 . S
C19 N17 1.371 . S
C19 C22 1.480 . S
C20 N17 1.372 . S
C20 N18 1.361 . S
C20 C28 1.457 . S
C21 N16 1.363 . S
C21 N18 1.377 . S
C21 C34 1.479 . S
C22 C19 1.480 . S
C22 C23 1.383 . S
C22 C27 1.385 . S
C23 H4 0.947 . S
C23 C22 1.383 . S
C23 C24 1.388 . S
C24 H5 0.946 . S
C24 C23 1.388 . S
C24 C25 1.384 . S
C25 C24 1.384 . S
C25 C26 1.377 . S
C26 H6 0.953 . S
C26 C25 1.377 . S
C26 C27 1.369 . S
C27 H7 0.945 . S
C27 C22 1.385 . S
C27 C26 1.369 . S
C28 C20 1.457 . S
C28 C29 1.372 . S
C28 C33 1.364 . S
C29 H8 0.952 . S
C29 C28 1.372 . S
C29 C30 1.389 . S
C30 H9 0.949 . S
C30 C29 1.389 . S
C30 C31 1.387 . S
C31 C30 1.387 . S
C31 C32 1.372 . S
C32 H10 0.950 . S
C32 C31 1.372 . S
C32 C33 1.379 . S
C33 H11 0.948 . S
C33 C28 1.364 . S
C33 C32 1.379 . S
C34 C3 1.383 . S
C34 C21 1.479 . S
C34 C35 1.398 . S
C35 C0 1.382 . S
C35 H12 0.951 . S
C35 C34 1.398 . S
C36 C37 1.384 . S
C36 H49 0.947 . S
C36 C71 1.382 . S
C37 C36 1.384 . S
C37 C38 1.378 . S
C38 C37 1.378 . S
C38 C39 1.378 . S
C38 H50 0.952 . S
C39 C38 1.378 . S
C39 H51 0.950 . S
C39 C70 1.383 . S
H40 C59 0.947 . S
H41 C60 0.946 . S
H42 C62 0.953 . S
H43 C63 0.945 . S
H44 C65 0.952 . S
H45 C66 0.949 . S
H46 C68 0.950 . S
H47 C69 0.948 . S
H48 C71 0.951 . S
H49 C36 0.947 . S
H50 C38 0.952 . S
H51 C39 0.950 . S
N52 C55 1.382 . S
N52 C57 1.363 . S
N53 C55 1.371 . S
N53 C56 1.372 . S
N54 C56 1.361 . S
N54 C57 1.377 . S
C55 N52 1.382 . S
C55 N53 1.371 . S
C55 C58 1.480 . S
C56 N53 1.372 . S
C56 N54 1.361 . S
C56 C64 1.457 . S
C57 N52 1.363 . S
C57 N54 1.377 . S
C57 C70 1.479 . S
C58 C55 1.480 . S
C58 C59 1.383 . S
C58 C63 1.385 . S
C59 H40 0.947 . S
C59 C58 1.383 . S
C59 C60 1.388 . S
C60 H41 0.946 . S
C60 C59 1.388 . S
C60 C61 1.384 . S
C61 C60 1.384 . S
C61 C62 1.377 . S
C62 H42 0.953 . S
C62 C61 1.377 . S
C62 C63 1.369 . S
C63 H43 0.945 . S
C63 C58 1.385 . S
C63 C62 1.369 . S
C64 C56 1.457 . S
C64 C65 1.372 . S
C64 C69 1.364 . S
C65 H44 0.952 . S
C65 C64 1.372 . S
C65 C66 1.389 . S
C66 H45 0.949 . S
C66 C65 1.389 . S
C66 C67 1.387 . S
C67 C66 1.387 . S
C67 C68 1.372 . S
C68 H46 0.950 . S
C68 C67 1.372 . S
C68 C69 1.379 . S
C69 H47 0.948 . S
C69 C64 1.364 . S
C69 C68 1.379 . S
C70 C39 1.383 . S
C70 C57 1.479 . S
C70 C71 1.398 . S
C71 C36 1.382 . S
C71 H48 0.951 . S
C71 C70 1.398 . S
C72 C73 1.384 . S
C72 H85 0.947 . S
C72 C107 1.382 . S
C73 C72 1.384 . S
C73 C74 1.378 . S
C74 C73 1.378 . S
C74 C75 1.378 . S
C74 H86 0.952 . S
C75 C74 1.378 . S
C75 H87 0.950 . S
C75 C106 1.383 . S
H76 C95 0.947 . S
H77 C96 0.946 . S
H78 C98 0.953 . S
H79 C99 0.945 . S
H80 C101 0.952 . S
H81 C102 0.949 . S
H82 C104 0.950 . S
H83 C105 0.948 . S
H84 C107 0.951 . S
H85 C72 0.947 . S
H86 C74 0.952 . S
H87 C75 0.950 . S
N88 C91 1.382 . S
N88 C93 1.363 . S
N89 C91 1.371 . S
N89 C92 1.372 . S
N90 C92 1.361 . S
N90 C93 1.377 . S
C91 N88 1.382 . S
C91 N89 1.371 . S
C91 C94 1.480 . S
C92 N89 1.372 . S
C92 N90 1.361 . S
C92 C100 1.457 . S
C93 N88 1.363 . S
C93 N90 1.377 . S
C93 C106 1.479 . S
C94 C91 1.480 . S
C94 C95 1.383 . S
C94 C99 1.385 . S
C95 H76 0.947 . S
C95 C94 1.383 . S
C95 C96 1.388 . S
C96 H77 0.946 . S
C96 C95 1.388 . S
C96 C97 1.384 . S
C97 C96 1.384 . S
C97 C98 1.377 . S
C98 H78 0.953 . S
C98 C97 1.377 . S
C98 C99 1.369 . S
C99 H79 0.945 . S
C99 C94 1.385 . S
C99 C98 1.369 . S
C100 C92 1.457 . S
C100 C101 1.372 . S
C100 C105 1.364 . S
C101 H80 0.952 . S
C101 C100 1.372 . S
C101 C102 1.389 . S
C102 H81 0.949 . S
C102 C101 1.389 . S
C102 C103 1.387 . S
C103 C102 1.387 . S
C103 C104 1.372 . S
C104 H82 0.950 . S
C104 C103 1.372 . S
C104 C105 1.379 . S
C105 H83 0.948 . S
C105 C100 1.364 . S
C105 C104 1.379 . S
C106 C75 1.383 . S
C106 C93 1.479 . S
C106 C107 1.398 . S
C107 C72 1.382 . S
C107 H84 0.951 . S
C107 C106 1.398 . S
C108 C109 1.384 . S
C108 H121 0.947 . S
C108 C143 1.382 . S
C109 C108 1.384 . S
C109 C110 1.378 . S
C110 C109 1.378 . S
C110 C111 1.378 . S
C110 H122 0.952 . S
C111 C110 1.378 . S
C111 H123 0.950 . S
C111 C142 1.383 . S
H112 C131 0.947 . S
H113 C132 0.946 . S
H114 C134 0.953 . S
H115 C135 0.945 . S
H116 C137 0.952 . S
H117 C138 0.949 . S
H118 C140 0.950 . S
H119 C141 0.948 . S
H120 C143 0.951 . S
H121 C108 0.947 . S
H122 C110 0.952 . S
H123 C111 0.950 . S
N124 C127 1.382 . S
N124 C129 1.363 . S
N125 C127 1.371 . S
N125 C128 1.372 . S
N126 C128 1.361 . S
N126 C129 1.377 . S
C127 N124 1.382 . S
C127 N125 1.371 . S
C127 C130 1.480 . S
C128 N125 1.372 . S
C128 N126 1.361 . S
C128 C136 1.457 . S
C129 N124 1.363 . S
C129 N126 1.377 . S
C129 C142 1.479 . S
C130 C127 1.480 . S
C130 C131 1.383 . S
C130 C135 1.385 . S
C131 H112 0.947 . S
C131 C130 1.383 . S
C131 C132 1.388 . S
C132 H113 0.946 . S
C132 C131 1.388 . S
C132 C133 1.384 . S
C133 C132 1.384 . S
C133 C134 1.377 . S
C134 H114 0.953 . S
C134 C133 1.377 . S
C134 C135 1.369 . S
C135 H115 0.945 . S
C135 C130 1.385 . S
C135 C134 1.369 . S
C136 C128 1.457 . S
C136 C137 1.372 . S
C136 C141 1.364 . S
C137 H116 0.952 . S
C137 C136 1.372 . S
C137 C138 1.389 . S
C138 H117 0.949 . S
C138 C137 1.389 . S
C138 C139 1.387 . S
C139 C138 1.387 . S
C139 C140 1.372 . S
C140 H118 0.950 . S
C140 C139 1.372 . S
C140 C141 1.379 . S
C141 H119 0.948 . S
C141 C136 1.364 . S
C141 C140 1.379 . S
C142 C111 1.383 . S
C142 C129 1.479 . S
C142 C143 1.398 . S
C143 C108 1.382 . S
C143 H120 0.951 . S
C143 C142 1.398 . S
C144 C145 1.384 . S
C144 H157 0.947 . S
C144 C179 1.382 . S
C145 C144 1.384 . S
C145 C146 1.378 . S
C146 C145 1.378 . S
C146 C147 1.378 . S
C146 H158 0.952 . S
C147 C146 1.378 . S
C147 H159 0.950 . S
C147 C178 1.383 . S
H148 C167 0.947 . S
H149 C168 0.946 . S
H150 C170 0.953 . S
H151 C171 0.945 . S
H152 C173 0.952 . S
H153 C174 0.949 . S
H154 C176 0.950 . S
H155 C177 0.948 . S
H156 C179 0.951 . S
H157 C144 0.947 . S
H158 C146 0.952 . S
H159 C147 0.950 . S
N160 C163 1.382 . S
N160 C165 1.363 . S
N161 C163 1.371 . S
N161 C164 1.372 . S
N162 C164 1.361 . S
N162 C165 1.377 . S
C163 N160 1.382 . S
C163 N161 1.371 . S
C163 C166 1.480 . S
C164 N161 1.372 . S
C164 N162 1.361 . S
C164 C172 1.457 . S
C165 N160 1.363 . S
C165 N162 1.377 . S
C165 C178 1.479 . S
C166 C163 1.480 . S
C166 C167 1.383 . S
C166 C171 1.385 . S
C167 H148 0.947 . S
C167 C166 1.383 . S
C167 C168 1.388 . S
C168 H149 0.946 . S
C168 C167 1.388 . S
C168 C169 1.384 . S
C169 C168 1.384 . S
C169 C170 1.377 . S
C170 H150 0.953 . S
C170 C169 1.377 . S
C170 C171 1.369 . S
C171 H151 0.945 . S
C171 C166 1.385 . S
C171 C170 1.369 . S
C172 C164 1.457 . S
C172 C173 1.372 . S
C172 C177 1.364 . S
C173 H152 0.952 . S
C173 C172 1.372 . S
C173 C174 1.389 . S
C174 H153 0.949 . S
C174 C173 1.389 . S
C174 C175 1.387 . S
C175 C174 1.387 . S
C175 C176 1.372 . S
C176 H154 0.950 . S
C176 C175 1.372 . S
C176 C177 1.379 . S
C177 H155 0.948 . S
C177 C172 1.364 . S
C177 C176 1.379 . S
C178 C147 1.383 . S
C178 C165 1.479 . S
C178 C179 1.398 . S
C179 C144 1.382 . S
C179 H156 0.951 . S
C179 C178 1.398 . S
C180 C181 1.384 . S
C180 H193 0.947 . S
C180 C215 1.382 . S
C181 C180 1.384 . S
C181 C182 1.378 . S
C182 C181 1.378 . S
C182 C183 1.378 . S
C182 H194 0.952 . S
C183 C182 1.378 . S
C183 H195 0.950 . S
C183 C214 1.383 . S
H184 C203 0.947 . S
H185 C204 0.946 . S
H186 C206 0.953 . S
H187 C207 0.945 . S
H188 C209 0.952 . S
H189 C210 0.949 . S
H190 C212 0.950 . S
H191 C213 0.948 . S
H192 C215 0.951 . S
H193 C180 0.947 . S
H194 C182 0.952 . S
H195 C183 0.950 . S
N196 C199 1.382 . S
N196 C201 1.363 . S
N197 C199 1.371 . S
N197 C200 1.372 . S
N198 C200 1.361 . S
N198 C201 1.377 . S
C199 N196 1.382 . S
C199 N197 1.371 . S
C199 C202 1.480 . S
C200 N197 1.372 . S
C200 N198 1.361 . S
C200 C208 1.457 . S
C201 N196 1.363 . S
C201 N198 1.377 . S
C201 C214 1.479 . S
C202 C199 1.480 . S
C202 C203 1.383 . S
C202 C207 1.385 . S
C203 H184 0.947 . S
C203 C202 1.383 . S
C203 C204 1.388 . S
C204 H185 0.946 . S
C204 C203 1.388 . S
C204 C205 1.384 . S
C205 C204 1.384 . S
C205 C206 1.377 . S
C206 H186 0.953 . S
C206 C205 1.377 . S
C206 C207 1.369 . S
C207 H187 0.945 . S
C207 C202 1.385 . S
C207 C206 1.369 . S
C208 C200 1.457 . S
C208 C209 1.372 . S
C208 C213 1.364 . S
C209 H188 0.952 . S
C209 C208 1.372 . S
C209 C210 1.389 . S
C210 H189 0.949 . S
C210 C209 1.389 . S
C210 C211 1.387 . S
C211 C210 1.387 . S
C211 C212 1.372 . S
C212 H190 0.950 . S
C212 C211 1.372 . S
C212 C213 1.379 . S
C213 H191 0.948 . S
C213 C208 1.364 . S
C213 C212 1.379 . S
C214 C183 1.383 . S
C214 C201 1.479 . S
C214 C215 1.398 . S
C215 C180 1.382 . S
C215 H192 0.951 . S
C215 C214 1.398 . S
C216 C217 1.384 . S
C216 H229 0.947 . S
C216 C251 1.382 . S
C217 C216 1.384 . S
C217 C218 1.378 . S
C218 C217 1.378 . S
C218 C219 1.378 . S
C218 H230 0.952 . S
C219 C218 1.378 . S
C219 H231 0.950 . S
C219 C250 1.383 . S
H220 C239 0.947 . S
H221 C240 0.946 . S
H222 C242 0.953 . S
H223 C243 0.945 . S
H224 C245 0.952 . S
H225 C246 0.949 . S
H226 C248 0.950 . S
H227 C249 0.948 . S
H228 C251 0.951 . S
H229 C216 0.947 . S
H230 C218 0.952 . S
H231 C219 0.950 . S
N232 C235 1.382 . S
N232 C237 1.363 . S
N233 C235 1.371 . S
N233 C236 1.372 . S
N234 C236 1.361 . S
N234 C237 1.377 . S
C235 N232 1.382 . S
C235 N233 1.371 . S
C235 C238 1.480 . S
C236 N233 1.372 . S
C236 N234 1.361 . S
C236 C244 1.457 . S
C237 N232 1.363 . S
C237 N234 1.377 . S
C237 C250 1.479 . S
C238 C235 1.480 . S
C238 C239 1.383 . S
C238 C243 1.385 . S
C239 H220 0.947 . S
C239 C238 1.383 . S
C239 C240 1.388 . S
C240 H221 0.946 . S
C240 C239 1.388 . S
C240 C241 1.384 . S
C241 C240 1.384 . S
C241 C242 1.377 . S
C242 H222 0.953 . S
C242 C241 1.377 . S
C242 C243 1.369 . S
C243 H223 0.945 . S
C243 C238 1.385 . S
C243 C242 1.369 . S
C244 C236 1.457 . S
C244 C245 1.372 . S
C244 C249 1.364 . S
C245 H224 0.952 . S
C245 C244 1.372 . S
C245 C246 1.389 . S
C246 H225 0.949 . S
C246 C245 1.389 . S
C246 C247 1.387 . S
C247 C246 1.387 . S
C247 C248 1.372 . S
C248 H226 0.950 . S
C248 C247 1.372 . S
C248 C249 1.379 . S
C249 H227 0.948 . S
C249 C244 1.364 . S
C249 C248 1.379 . S
C250 C219 1.383 . S
C250 C237 1.479 . S
C250 C251 1.398 . S
C251 C216 1.382 . S
C251 H228 0.951 . S
C251 C250 1.398 . S
C252 C253 1.384 . S
C252 H265 0.947 . S
C252 C287 1.382 . S
C253 C252 1.384 . S
C253 C254 1.378 . S
C254 C253 1.378 . S
C254 C255 1.378 . S
C254 H266 0.952 . S
C255 C254 1.378 . S
C255 H267 0.950 . S
C255 C286 1.383 . S
H256 C275 0.947 . S
H257 C276 0.946 . S
H258 C278 0.953 . S
H259 C279 0.945 . S
H260 C281 0.952 . S
H261 C282 0.949 . S
H262 C284 0.950 . S
H263 C285 0.948 . S
H264 C287 0.951 . S
H265 C252 0.947 . S
H266 C254 0.952 . S
H267 C255 0.950 . S
N268 C271 1.382 . S
N268 C273 1.363 . S
N269 C271 1.371 . S
N269 C272 1.372 . S
N270 C272 1.361 . S
N270 C273 1.377 . S
C271 N268 1.382 . S
C271 N269 1.371 . S
C271 C274 1.480 . S
C272 N269 1.372 . S
C272 N270 1.361 . S
C272 C280 1.457 . S
C273 N268 1.363 . S
C273 N270 1.377 . S
C273 C286 1.479 . S
C274 C271 1.480 . S
C274 C275 1.383 . S
C274 C279 1.385 . S
C275 H256 0.947 . S
C275 C274 1.383 . S
C275 C276 1.388 . S
C276 H257 0.946 . S
C276 C275 1.388 . S
C276 C277 1.384 . S
C277 C276 1.384 . S
C277 C278 1.377 . S
C278 H258 0.953 . S
C278 C277 1.377 . S
C278 C279 1.369 . S
C279 H259 0.945 . S
C279 C274 1.385 . S
C279 C278 1.369 . S
C280 C272 1.457 . S
C280 C281 1.372 . S
C280 C285 1.364 . S
C281 H260 0.952 . S
C281 C280 1.372 . S
C281 C282 1.389 . S
C282 H261 0.949 . S
C282 C281 1.389 . S
C282 C283 1.387 . S
C283 C282 1.387 . S
C283 C284 1.372 . S
C284 H262 0.950 . S
C284 C283 1.372 . S
C284 C285 1.379 . S
C285 H263 0.948 . S
C285 C280 1.364 . S
C285 C284 1.379 . S
C286 C255 1.383 . S
C286 C273 1.479 . S
C286 C287 1.398 . S
C287 C252 1.382 . S
C287 H264 0.951 . S
C287 C286 1.398 . S
Gd288 C291 2.818 . S
Gd288 O308 2.377 . S
Gd288 O310 2.448 . S
Gd288 O311 2.506 . S
Gd288 O312 2.435 1_545 S
Gd288 O313 2.717 1_545 S
Gd288 O315 2.395 1_445 S
Gd288 O319 2.327 1_455 S
Gd289 C300 2.818 . S
Gd289 O309 2.395 1_665 S
Gd289 O313 2.327 1_655 S
Gd289 O314 2.377 . S
Gd289 O316 2.448 . S
Gd289 O317 2.506 . S
Gd289 O318 2.435 1_565 S
Gd289 O319 2.717 1_565 S
C290 O308 1.240 . S
C290 O309 1.240 . S
C291 Gd288 2.818 . S
C291 C292 1.510 . S
C291 O310 1.249 . S
C291 O311 1.252 . S
C292 C291 1.510 . S
C292 C293 1.404 . S
C292 C294 1.352 . S
C293 C292 1.404 . S
C293 C297 1.389 . S
C293 H320 0.930 . S
C294 C292 1.352 . S
C294 C296 1.374 . S
C294 H321 0.931 . S
C295 C296 1.359 . S
C295 C297 1.364 . S
C296 C294 1.374 . S
C296 C295 1.359 . S
C296 H322 0.931 . S
C297 C293 1.389 . S
C297 C295 1.364 . S
C297 H323 0.931 . S
C298 O312 1.256 . S
C298 O313 1.257 . S
C299 O314 1.240 . S
C299 O315 1.240 . S
C300 Gd289 2.818 . S
C300 C301 1.510 . S
C300 O316 1.249 . S
C300 O317 1.252 . S
C301 C300 1.510 . S
C301 C302 1.404 . S
C301 C303 1.352 . S
C302 C301 1.404 . S
C302 C306 1.389 . S
C302 H324 0.930 . S
C303 C301 1.352 . S
C303 C305 1.374 . S
C303 H325 0.931 . S
C304 C305 1.359 . S
C304 C306 1.364 . S
C305 C303 1.374 . S
C305 C304 1.359 . S
C305 H326 0.931 . S
C306 C302 1.389 . S
C306 C304 1.364 . S
C306 H327 0.931 . S
C307 O318 1.256 . S
C307 O319 1.257 . S
O308 Gd288 2.377 . S
O308 C290 1.240 . S
O309 Gd289 2.395 1_445 S
O309 C290 1.240 . S
O310 Gd288 2.448 . S
O310 C291 1.249 . S
O311 Gd288 2.506 . S
O311 C291 1.252 . S
O312 Gd288 2.435 1_565 S
O312 C298 1.256 . S
O313 Gd288 2.717 1_565 S
O313 Gd289 2.327 1_455 S
O313 C298 1.257 . S
O314 Gd289 2.377 . S
O314 C299 1.240 . S
O315 Gd288 2.395 1_665 S
O315 C299 1.240 . S
O316 Gd289 2.448 . S
O316 C300 1.249 . S
O317 Gd289 2.506 . S
O317 C300 1.252 . S
O318 Gd289 2.435 1_545 S
O318 C307 1.256 . S
O319 Gd288 2.327 1_655 S
O319 Gd289 2.717 1_545 S
O319 C307 1.257 . S
H320 C293 0.930 . S
H321 C294 0.931 . S
H322 C296 0.931 . S
H323 C297 0.931 . S
H324 C302 0.930 . S
H325 C303 0.931 . S
H326 C305 0.931 . S
H327 C306 0.931 . S
Gd328 C331 2.819 1_565 S
Gd328 O348 2.378 1_565 S
Gd328 O350 2.448 1_565 S
Gd328 O351 2.508 1_565 S
Gd328 O352 2.434 . S
Gd328 O353 2.717 . S
Gd328 O355 2.394 1_554 S
Gd328 O359 2.329 1_564 S
Gd329 C340 2.818 1_545 S
Gd329 O349 2.395 1_556 S
Gd329 O353 2.327 1_546 S
Gd329 O354 2.377 1_545 S
Gd329 O356 2.448 1_545 S
Gd329 O357 2.506 1_545 S
Gd329 O358 2.435 . S
Gd329 O359 2.717 . S
C330 O348 1.240 . S
C330 O349 1.240 . S
C331 Gd328 2.819 1_545 S
C331 C332 1.510 . S
C331 O350 1.249 . S
C331 O351 1.252 . S
C332 C331 1.510 . S
C332 C333 1.404 . S
C332 C334 1.352 . S
C333 C332 1.404 . S
C333 C337 1.389 . S
C333 H360 0.930 . S
C334 C332 1.352 . S
C334 C336 1.374 . S
C334 H361 0.931 . S
C335 C336 1.359 . S
C335 C337 1.364 . S
C336 C334 1.374 . S
C336 C335 1.359 . S
C336 H362 0.931 . S
C337 C333 1.389 . S
C337 C335 1.364 . S
C337 H363 0.931 . S
C338 O352 1.256 . S
C338 O353 1.257 . S
C339 O354 1.240 . S
C339 O355 1.240 . S
C340 Gd329 2.818 1_565 S
C340 C341 1.510 . S
C340 O356 1.249 . S
C340 O357 1.252 . S
C341 C340 1.510 . S
C341 C342 1.404 . S
C341 C343 1.352 . S
C342 C341 1.404 . S
C342 C346 1.389 . S
C342 H364 0.930 . S
C343 C341 1.352 . S
C343 C345 1.374 . S
C343 H365 0.931 . S
C344 C345 1.359 . S
C344 C346 1.364 . S
C345 C343 1.374 . S
C345 C344 1.359 . S
C345 H366 0.931 . S
C346 C342 1.389 . S
C346 C344 1.364 . S
C346 H367 0.931 . S
C347 O358 1.256 . S
C347 O359 1.257 . S
O348 Gd328 2.378 1_545 S
O348 C330 1.240 . S
O349 Gd329 2.395 1_554 S
O349 C330 1.240 . S
O350 Gd328 2.448 1_545 S
O350 C331 1.249 . S
O351 Gd328 2.508 1_545 S
O351 C331 1.252 . S
O352 Gd328 2.434 . S
O352 C338 1.256 . S
O353 Gd328 2.717 . S
O353 Gd329 2.327 1_564 S
O353 C338 1.257 . S
O354 Gd329 2.377 1_565 S
O354 C339 1.240 . S
O355 Gd328 2.394 1_556 S
O355 C339 1.240 . S
O356 Gd329 2.448 1_565 S
O356 C340 1.249 . S
O357 Gd329 2.506 1_565 S
O357 C340 1.252 . S
O358 Gd329 2.435 . S
O358 C347 1.256 . S
O359 Gd328 2.329 1_546 S
O359 Gd329 2.717 . S
O359 C347 1.257 . S
H360 C333 0.930 . S
H361 C334 0.931 . S
H362 C336 0.931 . S
H363 C337 0.931 . S
H364 C342 0.930 . S
H365 C343 0.931 . S
H366 C345 0.931 . S
H367 C346 0.931 . S
Gd368 C371 2.818 . S
Gd368 O388 2.377 . S
Gd368 O390 2.448 . S
Gd368 O391 2.506 . S
Gd368 O392 2.435 . S
Gd368 O393 2.717 . S
Gd368 O395 2.395 . S
Gd368 O399 2.327 . S
Gd369 C380 2.818 . S
Gd369 O389 2.395 . S
Gd369 O393 2.327 . S
Gd369 O394 2.377 . S
Gd369 O396 2.448 . S
Gd369 O397 2.506 . S
Gd369 O398 2.435 . S
Gd369 O399 2.717 . S
C370 O388 1.240 . S
C370 O389 1.240 . S
C371 Gd368 2.818 . S
C371 C372 1.510 . S
C371 O390 1.249 . S
C371 O391 1.252 . S
C372 C371 1.510 . S
C372 C373 1.404 . S
C372 C374 1.352 . S
C373 C372 1.404 . S
C373 C377 1.389 . S
C373 H400 0.930 . S
C374 C372 1.352 . S
C374 C376 1.374 . S
C374 H401 0.931 . S
C375 C376 1.359 . S
C375 C377 1.364 . S
C376 C374 1.374 . S
C376 C375 1.359 . S
C376 H402 0.931 . S
C377 C373 1.389 . S
C377 C375 1.364 . S
C377 H403 0.931 . S
C378 O392 1.256 . S
C378 O393 1.257 . S
C379 O394 1.240 . S
C379 O395 1.240 . S
C380 Gd369 2.818 . S
C380 C381 1.510 . S
C380 O396 1.249 . S
C380 O397 1.252 . S
C381 C380 1.510 . S
C381 C382 1.404 . S
C381 C383 1.352 . S
C382 C381 1.404 . S
C382 C386 1.389 . S
C382 H404 0.930 . S
C383 C381 1.352 . S
C383 C385 1.374 . S
C383 H405 0.931 . S
C384 C385 1.359 . S
C384 C386 1.364 . S
C385 C383 1.374 . S
C385 C384 1.359 . S
C385 H406 0.931 . S
C386 C382 1.389 . S
C386 C384 1.364 . S
C386 H407 0.931 . S
C387 O398 1.256 . S
C387 O399 1.257 . S
O388 Gd368 2.377 . S
O388 C370 1.240 . S
O389 Gd369 2.395 . S
O389 C370 1.240 . S
O390 Gd368 2.448 . S
O390 C371 1.249 . S
O391 Gd368 2.506 . S
O391 C371 1.252 . S
O392 Gd368 2.435 . S
O392 C378 1.256 . S
O393 Gd368 2.717 . S
O393 Gd369 2.327 . S
O393 C378 1.257 . S
O394 Gd369 2.377 . S
O394 C379 1.240 . S
O395 Gd368 2.395 . S
O395 C379 1.240 . S
O396 Gd369 2.448 . S
O396 C380 1.249 . S
O397 Gd369 2.506 . S
O397 C380 1.252 . S
O398 Gd369 2.435 . S
O398 C387 1.256 . S
O399 Gd368 2.327 . S
O399 Gd369 2.717 . S
O399 C387 1.257 . S
H400 C373 0.930 . S
H401 C374 0.931 . S
H402 C376 0.931 . S
H403 C377 0.931 . S
H404 C382 0.930 . S
H405 C383 0.931 . S
H406 C385 0.931 . S
H407 C386 0.931 . S
Gd408 C411 2.818 . S
Gd408 O428 2.377 . S
Gd408 O430 2.448 . S
Gd408 O431 2.506 . S
Gd408 O432 2.435 1_455 S
Gd408 O433 2.717 1_455 S
Gd408 O435 2.413 1_455 S
Gd408 O439 2.327 1_554 S
Gd409 C420 2.793 1_455 S
Gd409 O429 2.423 1_556 S
Gd409 O433 2.320 1_456 S
Gd409 O434 2.359 1_455 S
Gd409 O436 2.433 1_455 S
Gd409 O437 2.477 1_455 S
Gd409 O438 2.450 . S
Gd409 O439 2.733 . S
C410 O428 1.240 . S
C410 O429 1.240 . S
C411 Gd408 2.818 . S
C411 C412 1.510 . S
C411 O430 1.249 . S
C411 O431 1.252 . S
C412 C411 1.510 . S
C412 C413 1.404 . S
C412 C414 1.352 . S
C413 C412 1.404 . S
C413 C417 1.389 . S
C413 H440 0.930 . S
C414 C412 1.352 . S
C414 C416 1.374 . S
C414 H441 0.931 . S
C415 C416 1.359 . S
C415 C417 1.364 . S
C416 C414 1.374 . S
C416 C415 1.359 . S
C416 H442 0.931 . S
C417 C413 1.389 . S
C417 C415 1.364 . S
C417 H443 0.931 . S
C418 O432 1.256 . S
C418 O433 1.257 . S
C419 O434 1.240 . S
C419 O435 1.215 1_556 S
C420 Gd409 2.793 1_655 S
C420 C421 1.510 . S
C420 O436 1.249 . S
C420 O437 1.252 . S
C421 C420 1.510 . S
C421 C422 1.404 . S
C421 C423 1.352 . S
C422 C421 1.404 . S
C422 C426 1.389 . S
C422 H444 0.930 . S
C423 C421 1.352 . S
C423 C425 1.374 . S
C423 H445 0.931 . S
C424 C425 1.359 . S
C424 C426 1.364 . S
C425 C423 1.374 . S
C425 C424 1.359 . S
C425 H446 0.931 . S
C426 C422 1.389 . S
C426 C424 1.364 . S
C426 H447 0.931 . S
C427 O438 1.256 . S
C427 O439 1.257 . S
O428 Gd408 2.377 . S
O428 C410 1.240 . S
O429 Gd409 2.423 1_554 S
O429 C410 1.240 . S
O430 Gd408 2.448 . S
O430 C411 1.249 . S
O431 Gd408 2.506 . S
O431 C411 1.252 . S
O432 Gd408 2.435 1_655 S
O432 C418 1.256 . S
O433 Gd408 2.717 1_655 S
O433 Gd409 2.320 1_654 S
O433 C418 1.257 . S
O434 Gd409 2.359 1_655 S
O434 C419 1.240 . S
O435 Gd408 2.413 1_655 S
O435 C419 1.215 1_554 S
O436 Gd409 2.433 1_655 S
O436 C420 1.249 . S
O437 Gd409 2.477 1_655 S
O437 C420 1.252 . S
O438 Gd409 2.450 . S
O438 C427 1.256 . S
O439 Gd408 2.327 1_556 S
O439 Gd409 2.733 . S
O439 C427 1.257 . S
H440 C413 0.930 . S
H441 C414 0.931 . S
H442 C416 0.931 . S
H443 C417 0.931 . S
H444 C422 0.930 . S
H445 C423 0.931 . S
H446 C425 0.931 . S
H447 C426 0.931 . S
H448 C454 0.930 . S
H449 C458 0.930 . S
H450 C463 0.929 . S
H451 C461 0.929 . S
H452 C456 0.929 . S
H453 C462 0.929 . S
C454 H448 0.930 . S
C454 C455 1.367 . S
C454 C462 1.378 . S
C455 C454 1.367 . S
C455 C463 1.433 . S
C456 H452 0.929 . S
C456 C458 1.378 . S
C456 C460 1.350 . S
C457 C460 1.463 . S
C457 C462 1.350 . S
C457 N465 1.427 . S
C458 H449 0.930 . S
C458 C456 1.378 . S
C458 C459 1.367 . S
C459 C458 1.367 . S
C459 C461 1.433 . S
C460 C456 1.350 . S
C460 C457 1.463 . S
C460 N464 1.427 . S
C461 H451 0.929 . S
C461 C459 1.433 . S
C461 N464 1.384 . S
C462 H453 0.929 . S
C462 C454 1.378 . S
C462 C457 1.350 . S
C463 H450 0.929 . S
C463 C455 1.433 . S
C463 N465 1.384 . S
N464 C460 1.427 . S
N464 C461 1.384 . S
N465 C457 1.427 . S
N465 C463 1.384 . S
H466 C472 0.930 . S
H467 C476 0.930 . S
H468 C481 0.929 . S
H469 C479 0.929 . S
H470 C474 0.929 . S
H471 C480 0.929 . S
C472 H466 0.930 . S
C472 C473 1.367 . S
C472 C480 1.378 . S
C473 C472 1.367 . S
C473 C481 1.433 . S
C474 H470 0.929 . S
C474 C476 1.378 . S
C474 C478 1.350 . S
C475 C478 1.463 . S
C475 C480 1.350 . S
C475 N483 1.427 . S
C476 H467 0.930 . S
C476 C474 1.378 . S
C476 C477 1.367 . S
C477 C476 1.367 . S
C477 C479 1.433 . S
C478 C474 1.350 . S
C478 C475 1.463 . S
C478 N482 1.427 . S
C479 H469 0.929 . S
C479 C477 1.433 . S
C479 N482 1.384 . S
C480 H471 0.929 . S
C480 C472 1.378 . S
C480 C475 1.350 . S
C481 H468 0.929 . S
C481 C473 1.433 . S
C481 N483 1.384 . S
N482 C478 1.427 . S
N482 C479 1.384 . S
N483 C475 1.427 . S
N483 C481 1.384 . S
H484 C490 0.930 . S
H485 C494 0.930 . S
H486 C499 0.929 . S
H487 C497 0.929 . S
H488 C492 0.929 . S
H489 C498 0.929 . S
C490 H484 0.930 . S
C490 C491 1.367 . S
C490 C498 1.378 . S
C491 C490 1.367 . S
C491 C499 1.433 . S
C492 H488 0.929 . S
C492 C494 1.378 . S
C492 C496 1.350 . S
C493 C496 1.463 . S
C493 C498 1.350 . S
C493 N501 1.427 . S
C494 H485 0.930 . S
C494 C492 1.378 . S
C494 C495 1.367 . S
C495 C494 1.367 . S
C495 C497 1.433 . S
C496 C492 1.350 . S
C496 C493 1.463 . S
C496 N500 1.427 . S
C497 H487 0.929 . S
C497 C495 1.433 . S
C497 N500 1.384 . S
C498 H489 0.929 . S
C498 C490 1.378 . S
C498 C493 1.350 . S
C499 H486 0.929 . S
C499 C491 1.433 . S
C499 N501 1.384 . S
N500 C496 1.427 . S
N500 C497 1.384 . S
N501 C493 1.427 . S
N501 C499 1.384 . S
H502 C508 0.930 . S
H503 C512 0.930 . S
H504 C517 0.929 . S
H505 C515 0.929 . S
H506 C510 0.929 . S
H507 C516 0.929 . S
C508 H502 0.930 . S
C508 C509 1.367 . S
C508 C516 1.378 . S
C509 C508 1.367 . S
C509 C517 1.433 . S
C510 H506 0.929 . S
C510 C512 1.378 . S
C510 C514 1.350 . S
C511 C514 1.463 . S
C511 C516 1.350 . S
C511 N519 1.427 . S
C512 H503 0.930 . S
C512 C510 1.378 . S
C512 C513 1.367 . S
C513 C512 1.367 . S
C513 C515 1.433 . S
C514 C510 1.350 . S
C514 C511 1.463 . S
C514 N518 1.427 . S
C515 H505 0.929 . S
C515 C513 1.433 . S
C515 N518 1.384 . S
C516 H507 0.929 . S
C516 C508 1.378 . S
C516 C511 1.350 . S
C517 H504 0.929 . S
C517 C509 1.433 . S
C517 N519 1.384 . S
N518 C514 1.427 . S
N518 C515 1.384 . S
N519 C511 1.427 . S
N519 C517 1.384 . S
H520 C526 0.930 . S
H521 C530 0.930 . S
H522 C535 0.929 . S
H523 C533 0.929 . S
H524 C528 0.929 . S
H525 C534 0.929 . S
C526 H520 0.930 . S
C526 C527 1.367 . S
C526 C534 1.378 . S
C527 C526 1.367 . S
C527 C535 1.433 . S
C528 H524 0.929 . S
C528 C530 1.378 . S
C528 C532 1.350 . S
C529 C532 1.463 . S
C529 C534 1.350 . S
C529 N537 1.427 . S
C530 H521 0.930 . S
C530 C528 1.378 . S
C530 C531 1.367 . S
C531 C530 1.367 . S
C531 C533 1.433 . S
C532 C528 1.350 . S
C532 C529 1.463 . S
C532 N536 1.427 . S
C533 H523 0.929 . S
C533 C531 1.433 . S
C533 N536 1.384 . S
C534 H525 0.929 . S
C534 C526 1.378 . S
C534 C529 1.350 . S
C535 H522 0.929 . S
C535 C527 1.433 . S
C535 N537 1.384 . S
N536 C532 1.427 . S
N536 C533 1.384 . S
N537 C529 1.427 . S
N537 C535 1.384 . S
H538 C544 0.930 . S
H539 C548 0.930 . S
H540 C553 0.929 . S
H541 C551 0.929 . S
H542 C546 0.929 . S
H543 C552 0.929 . S
C544 H538 0.930 . S
C544 C545 1.367 . S
C544 C552 1.378 . S
C545 C544 1.367 . S
C545 C553 1.433 . S
C546 H542 0.929 . S
C546 C548 1.378 . S
C546 C550 1.350 . S
C547 C550 1.463 . S
C547 C552 1.350 . S
C547 N555 1.427 . S
C548 H539 0.930 . S
C548 C546 1.378 . S
C548 C549 1.367 . S
C549 C548 1.367 . S
C549 C551 1.433 . S
C550 C546 1.350 . S
C550 C547 1.463 . S
C550 N554 1.427 . S
C551 H541 0.929 . S
C551 C549 1.433 . S
C551 N554 1.384 . S
C552 H543 0.929 . S
C552 C544 1.378 . S
C552 C547 1.350 . S
C553 H540 0.929 . S
C553 C545 1.433 . S
C553 N555 1.384 . S
N554 C550 1.427 . S
N554 C551 1.384 . S
N555 C547 1.427 . S
N555 C553 1.384 . S
H556 C562 0.930 . S
H557 C566 0.930 . S
H558 C571 0.929 . S
H559 C569 0.929 . S
H560 C564 0.929 . S
H561 C570 0.929 . S
C562 H556 0.930 . S
C562 C563 1.367 . S
C562 C570 1.378 . S
C563 C562 1.367 . S
C563 C571 1.433 . S
C564 H560 0.929 . S
C564 C566 1.378 . S
C564 C568 1.350 . S
C565 C568 1.463 . S
C565 C570 1.350 . S
C565 N573 1.427 . S
C566 H557 0.930 . S
C566 C564 1.378 . S
C566 C567 1.367 . S
C567 C566 1.367 . S
C567 C569 1.433 . S
C568 C564 1.350 . S
C568 C565 1.463 . S
C568 N572 1.427 . S
C569 H559 0.929 . S
C569 C567 1.433 . S
C569 N572 1.384 . S
C570 H561 0.929 . S
C570 C562 1.378 . S
C570 C565 1.350 . S
C571 H558 0.929 . S
C571 C563 1.433 . S
C571 N573 1.384 . S
N572 C568 1.427 . S
N572 C569 1.384 . S
N573 C565 1.427 . S
N573 C571 1.384 . S
H574 C580 0.930 . S
H575 C584 0.930 . S
H576 C589 0.929 . S
H577 C587 0.929 . S
H578 C582 0.929 . S
H579 C588 0.929 . S
C580 H574 0.930 . S
C580 C581 1.367 . S
C580 C588 1.378 . S
C581 C580 1.367 . S
C581 C589 1.433 . S
C582 H578 0.929 . S
C582 C584 1.378 . S
C582 C586 1.350 . S
C583 C586 1.463 . S
C583 C588 1.350 . S
C583 N591 1.427 . S
C584 H575 0.930 . S
C584 C582 1.378 . S
C584 C585 1.367 . S
C585 C584 1.367 . S
C585 C587 1.433 . S
C586 C582 1.350 . S
C586 C583 1.463 . S
C586 N590 1.427 . S
C587 H577 0.929 . S
C587 C585 1.433 . S
C587 N590 1.384 . S
C588 H579 0.929 . S
C588 C580 1.378 . S
C588 C583 1.350 . S
C589 H576 0.929 . S
C589 C581 1.433 . S
C589 N591 1.384 . S
N590 C586 1.427 . S
N590 C587 1.384 . S
N591 C583 1.427 . S
N591 C589 1.384 . S
H592 C598 0.930 . S
H593 C602 0.930 . S
H594 C607 0.929 . S
H595 C605 0.929 . S
H596 C600 0.929 . S
H597 C606 0.929 . S
C598 H592 0.930 . S
C598 C599 1.367 . S
C598 C606 1.378 . S
C599 C598 1.367 . S
C599 C607 1.433 . S
C600 H596 0.929 . S
C600 C602 1.378 . S
C600 C604 1.350 . S
C601 C604 1.463 . S
C601 C606 1.350 . S
C601 N609 1.427 . S
C602 H593 0.930 . S
C602 C600 1.378 . S
C602 C603 1.367 . S
C603 C602 1.367 . S
C603 C605 1.433 . S
C604 C600 1.350 . S
C604 C601 1.463 . S
C604 N608 1.427 . S
C605 H595 0.929 . S
C605 C603 1.433 . S
C605 N608 1.384 . S
C606 H597 0.929 . S
C606 C598 1.378 . S
C606 C601 1.350 . S
C607 H594 0.929 . S
C607 C599 1.433 . S
C607 N609 1.384 . S
N608 C604 1.427 . S
N608 C605 1.384 . S
N609 C601 1.427 . S
N609 C607 1.384 . S
H610 C616 0.930 . S
H611 C620 0.930 . S
H612 C625 0.929 . S
H613 C623 0.929 . S
H614 C618 0.929 . S
H615 C624 0.929 . S
C616 H610 0.930 . S
C616 C617 1.367 . S
C616 C624 1.378 . S
C617 C616 1.367 . S
C617 C625 1.433 . S
C618 H614 0.929 . S
C618 C620 1.378 . S
C618 C622 1.350 . S
C619 C622 1.463 . S
C619 C624 1.350 . S
C619 N627 1.427 . S
C620 H611 0.930 . S
C620 C618 1.378 . S
C620 C621 1.367 . S
C621 C620 1.367 . S
C621 C623 1.433 . S
C622 C618 1.350 . S
C622 C619 1.463 . S
C622 N626 1.427 . S
C623 H613 0.929 . S
C623 C621 1.433 . S
C623 N626 1.384 . S
C624 H615 0.929 . S
C624 C616 1.378 . S
C624 C619 1.350 . S
C625 H612 0.929 . S
C625 C617 1.433 . S
C625 N627 1.384 . S
N626 C622 1.427 . S
N626 C623 1.384 . S
N627 C619 1.427 . S
N627 C625 1.384 . S
H628 C634 0.930 . S
H629 C638 0.930 . S
H630 C643 0.929 . S
H631 C641 0.929 . S
H632 C636 0.929 . S
H633 C642 0.929 . S
C634 H628 0.930 . S
C634 C635 1.367 . S
C634 C642 1.378 . S
C635 C634 1.367 . S
C635 C643 1.433 . S
C636 H632 0.929 . S
C636 C638 1.378 . S
C636 C640 1.350 . S
C637 C640 1.463 . S
C637 C642 1.350 . S
C637 N645 1.427 . S
C638 H629 0.930 . S
C638 C636 1.378 . S
C638 C639 1.367 . S
C639 C638 1.367 . S
C639 C641 1.433 . S
C640 C636 1.350 . S
C640 C637 1.463 . S
C640 N644 1.427 . S
C641 H631 0.929 . S
C641 C639 1.433 . S
C641 N644 1.384 . S
C642 H633 0.929 . S
C642 C634 1.378 . S
C642 C637 1.350 . S
C643 H630 0.929 . S
C643 C635 1.433 . S
C643 N645 1.384 . S
N644 C640 1.427 . S
N644 C641 1.384 . S
N645 C637 1.427 . S
N645 C643 1.384 . S
H646 C652 0.930 . S
H647 C656 0.930 . S
H648 C661 0.929 . S
H649 C659 0.929 . S
H650 C654 0.929 . S
H651 C660 0.929 . S
C652 H646 0.930 . S
C652 C653 1.367 . S
C652 C660 1.378 . S
C653 C652 1.367 . S
C653 C661 1.433 . S
C654 H650 0.929 . S
C654 C656 1.378 . S
C654 C658 1.350 . S
C655 C658 1.463 . S
C655 C660 1.350 . S
C655 N663 1.427 . S
C656 H647 0.930 . S
C656 C654 1.378 . S
C656 C657 1.367 . S
C657 C656 1.367 . S
C657 C659 1.433 . S
C658 C654 1.350 . S
C658 C655 1.463 . S
C658 N662 1.427 . S
C659 H649 0.929 . S
C659 C657 1.433 . S
C659 N662 1.384 . S
C660 H651 0.929 . S
C660 C652 1.378 . S
C660 C655 1.350 . S
C661 H648 0.929 . S
C661 C653 1.433 . S
C661 N663 1.384 . S
N662 C658 1.427 . S
N662 C659 1.384 . S
N663 C655 1.427 . S
N663 C661 1.384 . S
H664 C670 0.930 . S
H665 C674 0.930 . S
H666 C679 0.929 . S
H667 C677 0.929 . S
H668 C672 0.929 . S
H669 C678 0.929 . S
C670 H664 0.930 . S
C670 C671 1.367 . S
C670 C678 1.378 . S
C671 C670 1.367 . S
C671 C679 1.433 . S
C672 H668 0.929 . S
C672 C674 1.378 . S
C672 C676 1.350 . S
C673 C676 1.463 . S
C673 C678 1.350 . S
C673 N681 1.427 . S
C674 H665 0.930 . S
C674 C672 1.378 . S
C674 C675 1.367 . S
C675 C674 1.367 . S
C675 C677 1.433 . S
C676 C672 1.350 . S
C676 C673 1.463 . S
C676 N680 1.427 . S
C677 H667 0.929 . S
C677 C675 1.433 . S
C677 N680 1.384 . S
C678 H669 0.929 . S
C678 C670 1.378 . S
C678 C673 1.350 . S
C679 H666 0.929 . S
C679 C671 1.433 . S
C679 N681 1.384 . S
N680 C676 1.427 . S
N680 C677 1.384 . S
N681 C673 1.427 . S
N681 C679 1.384 . S
H682 C688 0.930 . S
H683 C692 0.930 . S
H684 C697 0.929 . S
H685 C695 0.929 . S
H686 C690 0.929 . S
H687 C696 0.929 . S
C688 H682 0.930 . S
C688 C689 1.367 . S
C688 C696 1.378 . S
C689 C688 1.367 . S
C689 C697 1.433 . S
C690 H686 0.929 . S
C690 C692 1.378 . S
C690 C694 1.350 . S
C691 C694 1.463 . S
C691 C696 1.350 . S
C691 N699 1.427 . S
C692 H683 0.930 . S
C692 C690 1.378 . S
C692 C693 1.367 . S
C693 C692 1.367 . S
C693 C695 1.433 . S
C694 C690 1.350 . S
C694 C691 1.463 . S
C694 N698 1.427 . S
C695 H685 0.929 . S
C695 C693 1.433 . S
C695 N698 1.384 . S
C696 H687 0.929 . S
C696 C688 1.378 . S
C696 C691 1.350 . S
C697 H684 0.929 . S
C697 C689 1.433 . S
C697 N699 1.384 . S
N698 C694 1.427 . S
N698 C695 1.384 . S
N699 C691 1.427 . S
N699 C697 1.384 . S
H700 C706 0.930 . S
H701 C710 0.930 . S
H702 C715 0.929 . S
H703 C713 0.929 . S
H704 C708 0.929 . S
H705 C714 0.929 . S
C706 H700 0.930 . S
C706 C707 1.367 . S
C706 C714 1.378 . S
C707 C706 1.367 . S
C707 C715 1.433 . S
C708 H704 0.929 . S
C708 C710 1.378 . S
C708 C712 1.350 . S
C709 C712 1.463 . S
C709 C714 1.350 . S
C709 N717 1.427 . S
C710 H701 0.930 . S
C710 C708 1.378 . S
C710 C711 1.367 . S
C711 C710 1.367 . S
C711 C713 1.433 . S
C712 C708 1.350 . S
C712 C709 1.463 . S
C712 N716 1.427 . S
C713 H703 0.929 . S
C713 C711 1.433 . S
C713 N716 1.384 . S
C714 H705 0.929 . S
C714 C706 1.378 . S
C714 C709 1.350 . S
C715 H702 0.929 . S
C715 C707 1.433 . S
C715 N717 1.384 . S
N716 C712 1.427 . S
N716 C713 1.384 . S
N717 C709 1.427 . S
N717 C715 1.384 . S
H718 C724 0.930 . S
H719 C728 0.930 . S
H720 C733 0.929 . S
H721 C731 0.929 . S
H722 C726 0.929 . S
H723 C732 0.929 . S
C724 H718 0.930 . S
C724 C725 1.367 . S
C724 C732 1.378 . S
C725 C724 1.367 . S
C725 C733 1.433 . S
C726 H722 0.929 . S
C726 C728 1.378 . S
C726 C730 1.350 . S
C727 C730 1.463 . S
C727 C732 1.350 . S
C727 N735 1.427 . S
C728 H719 0.930 . S
C728 C726 1.378 . S
C728 C729 1.367 . S
C729 C728 1.367 . S
C729 C731 1.433 . S
C730 C726 1.350 . S
C730 C727 1.463 . S
C730 N734 1.427 . S
C731 H721 0.929 . S
C731 C729 1.433 . S
C731 N734 1.384 . S
C732 H723 0.929 . S
C732 C724 1.378 . S
C732 C727 1.350 . S
C733 H720 0.929 . S
C733 C725 1.433 . S
C733 N735 1.384 . S
N734 C730 1.427 . S
N734 C731 1.384 . S
N735 C727 1.427 . S
N735 C733 1.384 . S
H736 C742 0.930 . S
H737 C746 0.930 . S
H738 C751 0.929 . S
H739 C749 0.929 . S
H740 C744 0.929 . S
H741 C750 0.929 . S
C742 H736 0.930 . S
C742 C743 1.367 . S
C742 C750 1.378 . S
C743 C742 1.367 . S
C743 C751 1.433 . S
C744 H740 0.929 . S
C744 C746 1.378 . S
C744 C748 1.350 . S
C745 C748 1.463 . S
C745 C750 1.350 . S
C745 N753 1.427 . S
C746 H737 0.930 . S
C746 C744 1.378 . S
C746 C747 1.367 . S
C747 C746 1.367 . S
C747 C749 1.433 . S
C748 C744 1.350 . S
C748 C745 1.463 . S
C748 N752 1.427 . S
C749 H739 0.929 . S
C749 C747 1.433 . S
C749 N752 1.384 . S
C750 H741 0.929 . S
C750 C742 1.378 . S
C750 C745 1.350 . S
C751 H738 0.929 . S
C751 C743 1.433 . S
C751 N753 1.384 . S
N752 C748 1.427 . S
N752 C749 1.384 . S
N753 C745 1.427 . S
N753 C751 1.384 . S
H754 C760 0.930 . S
H755 C764 0.930 . S
H756 C769 0.929 . S
H757 C767 0.929 . S
H758 C762 0.929 . S
H759 C768 0.929 . S
C760 H754 0.930 . S
C760 C761 1.367 . S
C760 C768 1.378 . S
C761 C760 1.367 . S
C761 C769 1.433 . S
C762 H758 0.929 . S
C762 C764 1.378 . S
C762 C766 1.350 . S
C763 C766 1.463 . S
C763 C768 1.350 . S
C763 N771 1.427 . S
C764 H755 0.930 . S
C764 C762 1.378 . S
C764 C765 1.367 . S
C765 C764 1.367 . S
C765 C767 1.433 . S
C766 C762 1.350 . S
C766 C763 1.463 . S
C766 N770 1.427 . S
C767 H757 0.929 . S
C767 C765 1.433 . S
C767 N770 1.384 . S
C768 H759 0.929 . S
C768 C760 1.378 . S
C768 C763 1.350 . S
C769 H756 0.929 . S
C769 C761 1.433 . S
C769 N771 1.384 . S
N770 C766 1.427 . S
N770 C767 1.384 . S
N771 C763 1.427 . S
N771 C769 1.384 . S
H772 C778 0.930 . S
H773 C782 0.930 . S
H774 C787 0.929 . S
H775 C785 0.929 . S
H776 C780 0.929 . S
H777 C786 0.929 . S
C778 H772 0.930 . S
C778 C779 1.367 . S
C778 C786 1.378 . S
C779 C778 1.367 . S
C779 C787 1.433 . S
C780 H776 0.929 . S
C780 C782 1.378 . S
C780 C784 1.350 . S
C781 C784 1.463 . S
C781 C786 1.350 . S
C781 N789 1.427 . S
C782 H773 0.930 . S
C782 C780 1.378 . S
C782 C783 1.367 . S
C783 C782 1.367 . S
C783 C785 1.433 . S
C784 C780 1.350 . S
C784 C781 1.463 . S
C784 N788 1.427 . S
C785 H775 0.929 . S
C785 C783 1.433 . S
C785 N788 1.384 . S
C786 H777 0.929 . S
C786 C778 1.378 . S
C786 C781 1.350 . S
C787 H774 0.929 . S
C787 C779 1.433 . S
C787 N789 1.384 . S
N788 C784 1.427 . S
N788 C785 1.384 . S
N789 C781 1.427 . S
N789 C787 1.384 . S
H790 C796 0.930 . S
H791 C800 0.930 . S
H792 C805 0.929 . S
H793 C803 0.929 . S
H794 C798 0.929 . S
H795 C804 0.929 . S
C796 H790 0.930 . S
C796 C797 1.367 . S
C796 C804 1.378 . S
C797 C796 1.367 . S
C797 C805 1.433 . S
C798 H794 0.929 . S
C798 C800 1.378 . S
C798 C802 1.350 . S
C799 C802 1.463 . S
C799 C804 1.350 . S
C799 N807 1.427 . S
C800 H791 0.930 . S
C800 C798 1.378 . S
C800 C801 1.367 . S
C801 C800 1.367 . S
C801 C803 1.433 . S
C802 C798 1.350 . S
C802 C799 1.463 . S
C802 N806 1.427 . S
C803 H793 0.929 . S
C803 C801 1.433 . S
C803 N806 1.384 . S
C804 H795 0.929 . S
C804 C796 1.378 . S
C804 C799 1.350 . S
C805 H792 0.929 . S
C805 C797 1.433 . S
C805 N807 1.384 . S
N806 C802 1.427 . S
N806 C803 1.384 . S
N807 C799 1.427 . S
N807 C805 1.384 . S
H808 C814 0.930 . S
H809 C818 0.930 . S
H810 C823 0.929 . S
H811 C821 0.929 . S
H812 C816 0.929 . S
H813 C822 0.929 . S
C814 H808 0.930 . S
C814 C815 1.367 . S
C814 C822 1.378 . S
C815 C814 1.367 . S
C815 C823 1.433 . S
C816 H812 0.929 . S
C816 C818 1.378 . S
C816 C820 1.350 . S
C817 C820 1.463 . S
C817 C822 1.350 . S
C817 N825 1.427 . S
C818 H809 0.930 . S
C818 C816 1.378 . S
C818 C819 1.367 . S
C819 C818 1.367 . S
C819 C821 1.433 . S
C820 C816 1.350 . S
C820 C817 1.463 . S
C820 N824 1.427 . S
C821 H811 0.929 . S
C821 C819 1.433 . S
C821 N824 1.384 . S
C822 H813 0.929 . S
C822 C814 1.378 . S
C822 C817 1.350 . S
C823 H810 0.929 . S
C823 C815 1.433 . S
C823 N825 1.384 . S
N824 C820 1.427 . S
N824 C821 1.384 . S
N825 C817 1.427 . S
N825 C823 1.384 . S
H826 C832 0.930 . S
H827 C836 0.930 . S
H828 C841 0.929 . S
H829 C839 0.929 . S
H830 C834 0.929 . S
H831 C840 0.929 . S
C832 H826 0.930 . S
C832 C833 1.367 . S
C832 C840 1.378 . S
C833 C832 1.367 . S
C833 C841 1.433 . S
C834 H830 0.929 . S
C834 C836 1.378 . S
C834 C838 1.350 . S
C835 C838 1.463 . S
C835 C840 1.350 . S
C835 N843 1.427 . S
C836 H827 0.930 . S
C836 C834 1.378 . S
C836 C837 1.367 . S
C837 C836 1.367 . S
C837 C839 1.433 . S
C838 C834 1.350 . S
C838 C835 1.463 . S
C838 N842 1.427 . S
C839 H829 0.929 . S
C839 C837 1.433 . S
C839 N842 1.384 . S
C840 H831 0.929 . S
C840 C832 1.378 . S
C840 C835 1.350 . S
C841 H828 0.929 . S
C841 C833 1.433 . S
C841 N843 1.384 . S
N842 C838 1.427 . S
N842 C839 1.384 . S
N843 C835 1.427 . S
N843 C841 1.384 . S
H844 C850 0.930 . S
H845 C854 0.930 . S
H846 C859 0.929 . S
H847 C857 0.929 . S
H848 C852 0.929 . S
H849 C858 0.929 . S
C850 H844 0.930 . S
C850 C851 1.367 . S
C850 C858 1.378 . S
C851 C850 1.367 . S
C851 C859 1.433 . S
C852 H848 0.929 . S
C852 C854 1.378 . S
C852 C856 1.350 . S
C853 C856 1.463 . S
C853 C858 1.350 . S
C853 N861 1.427 . S
C854 H845 0.930 . S
C854 C852 1.378 . S
C854 C855 1.367 . S
C855 C854 1.367 . S
C855 C857 1.433 . S
C856 C852 1.350 . S
C856 C853 1.463 . S
C856 N860 1.427 . S
C857 H847 0.929 . S
C857 C855 1.433 . S
C857 N860 1.384 . S
C858 H849 0.929 . S
C858 C850 1.378 . S
C858 C853 1.350 . S
C859 H846 0.929 . S
C859 C851 1.433 . S
C859 N861 1.384 . S
N860 C856 1.427 . S
N860 C857 1.384 . S
N861 C853 1.427 . S
N861 C859 1.384 . S
H862 C868 0.930 . S
H863 C872 0.930 . S
H864 C877 0.929 . S
H865 C875 0.929 . S
H866 C870 0.929 . S
H867 C876 0.929 . S
C868 H862 0.930 . S
C868 C869 1.367 . S
C868 C876 1.378 . S
C869 C868 1.367 . S
C869 C877 1.433 . S
C870 H866 0.929 . S
C870 C872 1.378 . S
C870 C874 1.350 . S
C871 C874 1.463 . S
C871 C876 1.350 . S
C871 N879 1.427 . S
C872 H863 0.930 . S
C872 C870 1.378 . S
C872 C873 1.367 . S
C873 C872 1.367 . S
C873 C875 1.433 . S
C874 C870 1.350 . S
C874 C871 1.463 . S
C874 N878 1.427 . S
C875 H865 0.929 . S
C875 C873 1.433 . S
C875 N878 1.384 . S
C876 H867 0.929 . S
C876 C868 1.378 . S
C876 C871 1.350 . S
C877 H864 0.929 . S
C877 C869 1.433 . S
C877 N879 1.384 . S
N878 C874 1.427 . S
N878 C875 1.384 . S
N879 C871 1.427 . S
N879 C877 1.384 . S
C455 C1 1.266 . S
C459 C295 1.303 . S
C473 C67 1.005 . S
C477 C344 1.004 . S
C495 C370 2.431 . S
C491 C97 2.452 . S
C509 C133 2.392 . S
C513 C418 2.329 . S
C531 C330 2.509 . S
C527 C25 2.426 . S
C549 C298 0.868 . S
C545 C37 0.895 . S
C567 C419 1.893 . S
C563 C103 1.930 . S
C585 C387 1.577 . S
C581 C109 1.598 . S
C599 C31 1.720 . S
C603 C415 1.772 . S
C621 C347 2.303 . S
C617 C73 2.378 . S
C635 C139 2.347 . S
C639 C299 2.342 . S
C653 C61 0.897 . S
C657 C384 0.905 . S
C675 C304 1.302 . S
C671 C175 1.214 . S
C689 C181 0.970 . S
C693 C335 0.975 . S
C707 C247 2.474 . S
C711 C379 2.454 . S
C725 C277 2.378 . S
C729 C427 2.315 . S
C743 C145 2.338 . S
C747 C339 2.497 . S
C765 C307 0.897 . S
C761 C211 0.905 . S
C783 C410 1.879 . S
C779 C217 1.902 . S
C801 C378 1.596 . S
C797 C283 1.613 . S
C815 C169 1.647 . S
C819 C424 1.765 . S
C837 C338 2.313 . S
C833 C241 2.382 . S
C855 C290 2.327 . S
C851 C253 2.335 . S
C869 C205 0.907 . S
C873 C375 0.900 . S
