# Generated by pormake.
# Topology the, (3,8)-cn, num edge types: 1
# Building blocks:
#     Node 0, Type 0, BuildingBlock: INOVEN_clean_linker_0, # of connection points: 3
#     Node 1, Type 0, BuildingBlock: INOVEN_clean_linker_0, # of connection points: 3
#     Node 2, Type 0, BuildingBlock: INOVEN_clean_linker_0, # of connection points: 3
#     Node 3, Type 0, BuildingBlock: INOVEN_clean_linker_0, # of connection points: 3
#     Node 4, Type 0, BuildingBlock: INOVEN_clean_linker_0, # of connection points: 3
#     Node 5, Type 0, BuildingBlock: INOVEN_clean_linker_0, # of connection points: 3
#     Node 6, Type 0, BuildingBlock: INOVEN_clean_linker_0, # of connection points: 3
#     Node 7, Type 0, BuildingBlock: INOVEN_clean_linker_0, # of connection points: 3
#     Node 8, Type 1, BuildingBlock: GIZVER_clean_sbu_0, # of connection points: 8
#     Node 9, Type 1, BuildingBlock: GIZVER_clean_sbu_0, # of connection points: 8
#     Node 10, Type 1, BuildingBlock: GIZVER_clean_sbu_0, # of connection points: 8
#     Edge 11, Type (0, 1), BuildingBlock: OJICUG_clean_linker_0, # of connection points: 2
#     Edge 12, Type (0, 1), BuildingBlock: OJICUG_clean_linker_0, # of connection points: 2
#     Edge 13, Type (0, 1), BuildingBlock: OJICUG_clean_linker_0, # of connection points: 2
#     Edge 14, Type (0, 1), BuildingBlock: OJICUG_clean_linker_0, # of connection points: 2
#     Edge 15, Type (0, 1), BuildingBlock: OJICUG_clean_linker_0, # of connection points: 2
#     Edge 16, Type (0, 1), BuildingBlock: OJICUG_clean_linker_0, # of connection points: 2
#     Edge 17, Type (0, 1), BuildingBlock: OJICUG_clean_linker_0, # of connection points: 2
#     Edge 18, Type (0, 1), BuildingBlock: OJICUG_clean_linker_0, # of connection points: 2
#     Edge 19, Type (0, 1), BuildingBlock: OJICUG_clean_linker_0, # of connection points: 2
#     Edge 20, Type (0, 1), BuildingBlock: OJICUG_clean_linker_0, # of connection points: 2
#     Edge 21, Type (0, 1), BuildingBlock: OJICUG_clean_linker_0, # of connection points: 2
#     Edge 22, Type (0, 1), BuildingBlock: OJICUG_clean_linker_0, # of connection points: 2
#     Edge 23, Type (0, 1), BuildingBlock: OJICUG_clean_linker_0, # of connection points: 2
#     Edge 24, Type (0, 1), BuildingBlock: OJICUG_clean_linker_0, # of connection points: 2
#     Edge 25, Type (0, 1), BuildingBlock: OJICUG_clean_linker_0, # of connection points: 2
#     Edge 26, Type (0, 1), BuildingBlock: OJICUG_clean_linker_0, # of connection points: 2
#     Edge 27, Type (0, 1), BuildingBlock: OJICUG_clean_linker_0, # of connection points: 2
#     Edge 28, Type (0, 1), BuildingBlock: OJICUG_clean_linker_0, # of connection points: 2
#     Edge 29, Type (0, 1), BuildingBlock: OJICUG_clean_linker_0, # of connection points: 2
#     Edge 30, Type (0, 1), BuildingBlock: OJICUG_clean_linker_0, # of connection points: 2
#     Edge 31, Type (0, 1), BuildingBlock: OJICUG_clean_linker_0, # of connection points: 2
#     Edge 32, Type (0, 1), BuildingBlock: OJICUG_clean_linker_0, # of connection points: 2
#     Edge 33, Type (0, 1), BuildingBlock: OJICUG_clean_linker_0, # of connection points: 2
#     Edge 34, Type (0, 1), BuildingBlock: OJICUG_clean_linker_0, # of connection points: 2
# Relax obj value: 0.074
# Max RMSD: 0.199
# Mean RMSD: 0.120
data_MOF--net-the--node1-GIZVER_clean_sbu_0--node2-INOVEN_clean_linker_0--edge1-OJICUG_clean_linker_0
_symmetry_space_group_name_H-M    P1
_symmetry_Int_Tables_number       1
_symmetry_cell_setting            triclinic
loop_
_symmetry_equiv_pos_as_xyz
'x, y, z'
_cell_length_a     29.874237
_cell_length_b     28.971389
_cell_length_c     27.063533
_cell_angle_alpha  87.965383
_cell_angle_beta   98.095025
_cell_angle_gamma 112.95258
loop_
_atom_site_label
_atom_site_type_symbol
_atom_site_fract_x
_atom_site_fract_y
_atom_site_fract_z
_atom_type_partial_charge
H0 H 0.33154 0.35443 0.33523 0.0
H1 H 0.4208 0.269 0.33337 0.0
H2 H 0.32945 0.24664 0.44924 0.0
N3 N 0.29255 0.31396 0.41731 0.0
N4 N 0.29418 0.3576 0.41598 0.0
C5 C 0.34476 0.32675 0.35201 0.0
C6 C 0.3776 0.31409 0.32903 0.0
C7 C 0.32709 0.30224 0.3952 0.0
C8 C 0.34299 0.26535 0.41578 0.0
C9 C 0.378 0.25435 0.39449 0.0
C10 C 0.39468 0.2783 0.35067 0.0
H11 H 0.6627 0.23648 0.28662 0.0
H12 H 0.78392 0.26299 0.40443 0.0
H13 H 0.78757 0.37523 0.29493 0.0
N14 N 0.69712 0.32012 0.24351 0.0
N15 N 0.71149 0.36255 0.22485 0.0
C16 C 0.69942 0.25869 0.30435 0.0
C17 C 0.72001 0.24212 0.34776 0.0
C18 C 0.7235 0.3057 0.2847 0.0
C19 C 0.76967 0.33785 0.30872 0.0
C20 C 0.79119 0.32258 0.35258 0.0
C21 C 0.76667 0.27442 0.37108 0.0
H22 H 0.70966 0.73738 0.26451 0.0
H23 H 0.79223 0.64355 0.28181 0.0
H24 H 0.81469 0.75317 0.39554 0.0
N25 N 0.74481 0.78427 0.35174 0.0
N26 N 0.74025 0.78257 0.39698 0.0
C27 C 0.7388 0.72774 0.28447 0.0
C28 C 0.74835 0.68778 0.267 0.0
C29 C 0.76235 0.75126 0.33088 0.0
C30 C 0.79779 0.73644 0.35891 0.0
C31 C 0.80893 0.69777 0.34119 0.0
C32 C 0.78462 0.67432 0.29494 0.0
H33 H 0.28211 0.62149 0.30061 0.0
H34 H 0.30277 0.75018 0.39141 0.0
H35 H 0.42254 0.74279 0.32631 0.0
N36 N 0.37582 0.65605 0.28114 0.0
N37 N 0.35241 0.61726 0.25491 0.0
C38 C 0.30421 0.65888 0.31552 0.0
C39 C 0.28505 0.68298 0.34648 0.0
C40 C 0.35355 0.68114 0.3073 0.0
C41 C 0.38385 0.72722 0.33037 0.0
C42 C 0.36579 0.75199 0.36095 0.0
C43 C 0.31608 0.73076 0.36734 0.0
H44 H 0.45617 0.77606 0.77235 0.0
H45 H 0.33108 0.75853 0.66207 0.0
H46 H 0.33246 0.6361 0.75634 0.0
N47 N 0.42392 0.68832 0.80811 0.0
N48 N 0.40976 0.64502 0.82488 0.0
C49 C 0.41898 0.75474 0.75514 0.0
C50 C 0.39675 0.77476 0.71567 0.0
C51 C 0.39606 0.70567 0.77073 0.0
C52 C 0.34946 0.67502 0.74628 0.0
C53 C 0.32571 0.69438 0.70716 0.0
C54 C 0.3491 0.74443 0.69288 0.0
H55 H 0.33751 0.23222 0.64571 0.0
H56 H 0.45581 0.26636 0.76844 0.0
H57 H 0.34989 0.3327 0.76448 0.0
N58 N 0.30057 0.29506 0.67447 0.0
N59 N 0.29031 0.3293 0.69001 0.0
C60 C 0.35533 0.2498 0.6818 0.0
C61 C 0.39769 0.24322 0.70526 0.0
C62 C 0.33811 0.28232 0.70256 0.0
C63 C 0.36248 0.30701 0.74831 0.0
C64 C 0.40512 0.30208 0.77204 0.0
C65 C 0.42224 0.26946 0.75079 0.0
H66 H 0.72293 0.2585 0.7408 0.0
H67 H 0.83542 0.27897 0.65026 0.0
H68 H 0.84986 0.39579 0.75394 0.0
N69 N 0.76156 0.34622 0.78419 0.0
N70 N 0.78104 0.38805 0.80586 0.0
C71 C 0.75936 0.28029 0.73144 0.0
C72 C 0.77671 0.26329 0.69352 0.0
C73 C 0.78578 0.32764 0.75356 0.0
C74 C 0.83129 0.35796 0.73881 0.0
C75 C 0.85031 0.34114 0.70145 0.0
C76 C 0.82265 0.29299 0.67962 0.0
H77 H 0.73276 0.69763 0.73176 0.0
H78 H 0.82634 0.61874 0.72026 0.0
H79 H 0.81858 0.72863 0.61081 0.0
N80 N 0.75074 0.75049 0.65269 0.0
N81 N 0.76905 0.78692 0.62578 0.0
C82 C 0.75909 0.69065 0.71252 0.0
C83 C 0.77874 0.65612 0.73143 0.0
C84 C 0.77333 0.71703 0.66959 0.0
C85 C 0.80769 0.70858 0.64452 0.0
C86 C 0.82617 0.67223 0.6622 0.0
C87 C 0.81165 0.64616 0.7059 0.0
Co88 Co 0.14355 0.47185 0.54819 0.0
Co89 Co 0.09359 0.454 0.45798 0.0
Co90 Co 0.05813 0.52209 0.51827 0.0
O91 O 0.0789 0.46434 0.5203 0.0
H92 H 0.05423 0.43388 0.53065 0.0
O93 O 0.03522 0.57851 0.51602 0.0
Co94 Co 0.96727 0.56535 0.49136 0.0
Co95 Co 0.02101 0.58737 0.57927 0.0
H96 H 0.05818 0.60923 0.50404 0.0
O97 O 0.10059 0.39507 0.4406 0.0
O98 O 0.15803 0.46313 0.48134 0.0
O99 O 0.0983 0.50601 0.40963 0.0
O100 O 0.10265 0.56037 0.46798 0.0
O101 O 1.00378 0.4847 0.46365 0.0
O102 O 0.90729 0.55848 0.46695 0.0
O103 O 0.97541 0.62952 0.47469 0.0
O104 O 0.94879 0.49614 0.50218 0.0
O105 O 1.01469 0.48359 0.56876 0.0
O106 O 0.02001 0.53656 0.62865 0.0
O107 O 0.95528 0.57591 0.55941 0.0
O108 O 1.0139 0.6454 0.59728 0.0
C109 C 0.17562 0.42562 0.58088 0.0
C110 C 0.15748 0.56648 0.57094 0.0
C111 C 0.11166 0.55074 0.42552 0.0
C112 C 0.14589 0.42011 0.45938 0.0
C113 C 0.92849 0.60612 0.45916 0.0
C114 C 0.95911 0.47219 0.47016 0.0
C115 C 1.00732 0.49216 0.61218 0.0
C116 C 0.96797 0.61903 0.58184 0.0
O117 O 0.20109 0.4731 0.57604 0.0
O118 O 0.12934 0.40605 0.56197 0.0
O119 O 0.11284 0.55948 0.57333 0.0
O120 O 0.1665 0.54128 0.5392 0.0
Co121 Co 0.60433 0.92422 0.51023 0.0
Co122 Co 0.62923 0.96633 0.60022 0.0
Co123 Co 0.5597 0.01106 0.5355 0.0
O124 O 0.61484 0.98843 0.53651 0.0
H125 H 0.64404 0.01453 0.52699 0.0
O126 O 0.50577 0.03557 0.53494 0.0
Co127 Co 0.52032 0.10174 0.56143 0.0
Co128 Co 0.49274 0.05968 0.47273 0.0
H129 H 0.47626 0.01038 0.54491 0.0
O130 O 0.69073 0.96369 0.62008 0.0
O131 O 0.62379 0.90453 0.57796 0.0
O132 O 0.58038 0.95159 0.6454 0.0
O133 O 0.52548 0.96173 0.58611 0.0
O134 O 0.60151 0.06137 0.58891 0.0
O135 O 0.52873 0.16009 0.58804 0.0
O136 O 0.45976 0.09002 0.57847 0.0
O137 O 0.58664 0.1233 0.5505 0.0
O138 O 0.59385 0.06013 0.48456 0.0
O139 O 0.53826 0.06842 0.42514 0.0
O140 O 0.50167 0.12347 0.49374 0.0
O141 O 0.43311 0.06431 0.453 0.0
C142 C 0.6452 0.89247 0.47978 0.0
C143 C 0.51011 0.91299 0.48853 0.0
C144 C 0.53641 0.94484 0.62829 0.0
C145 C 0.66891 0.91925 0.59962 0.0
C146 C 0.48345 0.13615 0.5956 0.0
C147 C 0.61421 0.10805 0.58092 0.0
C148 C 0.58232 0.07529 0.44167 0.0
C149 C 0.45724 0.11 0.46993 0.0
O150 O 0.59969 0.8664 0.48531 0.0
O151 O 0.66566 0.93956 0.49421 0.0
O152 O 0.51784 0.95937 0.4823 0.0
O153 O 0.53853 0.90077 0.52093 0.0
Co154 Co 0.50404 0.50867 0.12031 0.0
Co155 Co 0.48424 0.41986 0.08531 0.0
Co156 Co 0.56092 0.50136 0.02341 0.0
O157 O 0.49996 0.48171 0.05554 0.0
H158 H 0.47238 0.48251 0.03263 0.0
O159 O 0.62246 0.52093 0.99283 0.0
Co160 Co 0.62011 0.48984 0.93176 0.0
Co161 Co 0.63996 0.58079 0.95995 0.0
H162 H 0.64982 0.52153 1.01696 0.0
O163 O 0.4227 0.38137 0.10259 0.0
O164 O 0.4852 0.44129 0.14965 0.0
O165 O 0.53253 0.39071 0.08929 0.0
O166 O 0.59125 0.46161 0.06994 0.0
O167 O 0.52546 0.44117 0.97634 0.0
O168 O 0.62259 0.4597 0.87739 0.0
O169 O 0.68133 0.49043 0.94357 0.0
O170 O 0.55575 0.48447 0.91228 0.0
O171 O 0.53093 0.54173 0.97653 0.0
O172 O 0.59008 0.60768 0.94828 0.0
O173 O 0.64355 0.55521 0.89944 0.0
O174 O 0.7042 0.61634 0.94626 0.0
C175 C 0.45849 0.52803 0.15747 0.0
C176 C 0.60181 0.55483 0.11699 0.0
C177 C 0.57752 0.41794 0.08865 0.0
C178 C 0.44263 0.40408 0.14544 0.0
C179 C 0.66581 0.4662 0.90076 0.0
C180 C 0.52378 0.44652 0.92916 0.0
C181 C 0.54523 0.58306 0.95292 0.0
C182 C 0.68798 0.58903 0.90558 0.0
O183 O 0.50274 0.53471 0.17782 0.0
O184 O 0.44146 0.50533 0.11385 0.0
O185 O 0.59666 0.56115 0.07001 0.0
O186 O 0.57031 0.51765 0.13565 0.0
C187 C 0.20954 0.33545 0.43277 0.0
C188 C 0.25793 0.37057 0.43294 0.0
H189 H 0.13546 0.32398 0.44047 0.0
C190 C 0.26958 0.4208 0.44483 0.0
H191 H 0.19971 0.29645 0.42307 0.0
C192 C 0.23334 0.43638 0.45554 0.0
C193 C 0.18442 0.402 0.453 0.0
H194 H 0.30669 0.44818 0.44467 0.0
H195 H 0.24334 0.47576 0.46372 0.0
C196 C 0.17285 0.35124 0.44226 0.0
C197 C 0.6514 0.15537 0.34189 0.0
C198 C 0.69001 0.194 0.37096 0.0
H199 H 0.58615 0.08824 0.34131 0.0
C200 C 0.69611 0.18817 0.42309 0.0
H201 H 0.64633 0.15654 0.30157 0.0
C202 C 0.66316 0.14705 0.44533 0.0
C203 C 0.62206 0.11169 0.4165 0.0
H204 H 0.72453 0.21654 0.44749 0.0
H205 H 0.66808 0.14484 0.4856 0.0
C206 C 0.6171 0.1155 0.36447 0.0
C207 C 0.88787 0.70611 0.39601 0.0
C208 C 0.8401 0.67631 0.37362 0.0
H209 H 0.95408 0.70738 0.44055 0.0
C210 C 0.82145 0.6246 0.38183 0.0
H211 H 0.90295 0.74619 0.3904 0.0
C212 C 0.85005 0.60273 0.41053 0.0
C213 C 0.89844 0.63181 0.43171 0.0
H214 H 0.78447 0.60083 0.36585 0.0
H215 H 0.83418 0.56253 0.41525 0.0
C216 C 0.91704 0.68394 0.42456 0.0
C217 C 0.39978 0.84223 0.39177 0.0
C218 C 0.40105 0.79418 0.39357 0.0
H219 H 0.43402 0.91841 0.42008 0.0
C220 C 0.43684 0.78553 0.42739 0.0
H221 H 0.3722 0.84956 0.36605 0.0
C222 C 0.47119 0.82401 0.45845 0.0
C223 C 0.47131 0.87267 0.45615 0.0
H224 H 0.43815 0.74864 0.42991 0.0
H225 H 0.49815 0.81546 0.48393 0.0
C226 C 0.43507 0.88145 0.42256 0.0
C227 C 0.28479 0.62425 0.64514 0.0
C228 C 0.28094 0.66041 0.67531 0.0
H229 H 0.25014 0.56829 0.58788 0.0
C230 C 0.23583 0.66602 0.67143 0.0
H231 H 0.31935 0.61982 0.64672 0.0
C232 C 0.19502 0.63518 0.63828 0.0
C233 C 0.19924 0.59936 0.60741 0.0
H234 H 0.23225 0.69424 0.69394 0.0
H235 H 0.16063 0.63999 0.63613 0.0
C236 C 0.24486 0.59473 0.61127 0.0
C237 C 0.46979 0.23324 0.67627 0.0
C238 C 0.41919 0.21381 0.67905 0.0
H239 H 0.52918 0.22452 0.64781 0.0
C240 C 0.38938 0.16785 0.6541 0.0
H241 H 0.49379 0.26888 0.69407 0.0
C242 C 0.40981 0.14209 0.62716 0.0
C243 C 0.46042 0.16207 0.62404 0.0
H244 H 0.35023 0.15177 0.65549 0.0
H245 H 0.38596 0.10691 0.60841 0.0
C246 C 0.49002 0.2079 0.64911 0.0
C247 C 0.8994 0.37311 0.63003 0.0
C248 C 0.89515 0.37622 0.68086 0.0
H249 H 0.93877 0.40587 0.56946 0.0
C250 C 0.9321 0.41568 0.71034 0.0
H251 H 0.87165 0.3446 0.60521 0.0
C252 C 0.96998 0.4527 0.6888 0.0
C253 C 0.97274 0.4501 0.63771 0.0
H254 H 0.93121 0.41891 0.74987 0.0
H255 H 0.99646 0.48385 0.71185 0.0
C256 C 0.93803 0.40893 0.60908 0.0
C257 C 0.77008 0.87027 0.6075 0.0
C258 C 0.74361 0.81883 0.61234 0.0
H259 H 0.7671 0.94314 0.60089 0.0
C260 C 0.69219 0.80036 0.60936 0.0
H261 H 0.80968 0.88505 0.60984 0.0
C262 C 0.66794 0.83308 0.60387 0.0
C263 C 0.69465 0.88488 0.60194 0.0
H264 H 0.67088 0.76065 0.61249 0.0
H265 H 0.62842 0.81793 0.60269 0.0
C266 C 0.74584 0.90328 0.60301 0.0
C267 C 0.36624 0.16853 0.42477 0.0
C268 C 0.39769 0.21826 0.41803 0.0
H269 H 0.36069 0.09488 0.44649 0.0
C270 C 0.44842 0.23312 0.43228 0.0
H271 H 0.32697 0.15645 0.41406 0.0
C272 C 0.46764 0.19837 0.45178 0.0
C273 C 0.43646 0.14796 0.45617 0.0
H274 H 0.47321 0.27151 0.42772 0.0
H275 H 0.50703 0.21053 0.46135 0.0
C276 C 0.38553 0.13348 0.44322 0.0
C277 C 0.83471 0.36839 0.43288 0.0
C278 C 0.83602 0.35877 0.38272 0.0
H279 H 0.87231 0.41184 0.49938 0.0
C280 C 0.87937 0.385 0.36189 0.0
H281 H 0.80171 0.34905 0.44981 0.0
C282 C 0.92055 0.42037 0.39082 0.0
C283 C 0.91846 0.43104 0.44056 0.0
H284 H 0.88129 0.37824 0.32329 0.0
H285 H 0.95328 0.44063 0.37379 0.0
C286 C 0.87516 0.40443 0.46123 0.0
C287 C 0.72771 0.86169 0.40328 0.0
C288 C 0.72011 0.81262 0.41879 0.0
H289 H 0.71111 0.92669 0.41224 0.0
C290 C 0.69042 0.79172 0.45595 0.0
H291 H 0.75087 0.87863 0.3748 0.0
C292 C 0.66628 0.81799 0.47552 0.0
C293 C 0.6735 0.86692 0.46032 0.0
H294 H 0.68424 0.75399 0.46823 0.0
H295 H 0.64158 0.79979 0.50241 0.0
C296 C 0.70526 0.88911 0.42477 0.0
C297 C 0.19783 0.61765 0.33226 0.0
C298 C 0.23569 0.65523 0.36284 0.0
H299 H 0.12858 0.55494 0.32792 0.0
C300 C 0.22779 0.66236 0.41165 0.0
H301 H 0.20159 0.61166 0.29407 0.0
C302 C 0.18505 0.63115 0.4302 0.0
C303 C 0.14945 0.59093 0.40109 0.0
H304 H 0.25584 0.68985 0.43719 0.0
H305 H 0.18191 0.63625 0.46885 0.0
C306 C 0.15554 0.58544 0.35139 0.0
C307 C 0.46524 0.86129 0.72507 0.0
C308 C 0.42657 0.8241 0.69463 0.0
H309 H 0.5311 0.92809 0.72807 0.0
C310 C 0.42112 0.83182 0.64283 0.0
H311 H 0.46992 0.85805 0.76525 0.0
C312 C 0.45504 0.87335 0.62198 0.0
C313 C 0.49604 0.90758 0.6521 0.0
H314 H 0.39262 0.80429 0.61768 0.0
H315 H 0.45099 0.87659 0.58174 0.0
C316 C 0.50018 0.90189 0.70396 0.0
C317 C 0.25542 0.39151 0.6826 0.0
C318 C 0.25672 0.34797 0.66345 0.0
H319 H 0.229 0.4503 0.67094 0.0
C320 C 0.22778 0.32701 0.6178 0.0
H321 H 0.27759 0.40804 0.71761 0.0
C322 C 0.19884 0.35065 0.59139 0.0
C323 C 0.19975 0.39579 0.60994 0.0
H324 H 0.22833 0.29336 0.60223 0.0
H325 H 0.17764 0.33505 0.55572 0.0
C326 C 0.2278 0.41557 0.65593 0.0
C327 C 0.72361 0.22941 0.61355 0.0
C328 C 0.74187 0.22031 0.66191 0.0
H329 H 0.66808 0.20141 0.55059 0.0
C330 C 0.7205 0.17261 0.68206 0.0
H331 H 0.73896 0.26626 0.59771 0.0
C332 C 0.68051 0.1349 0.65458 0.0
C333 C 0.66035 0.14504 0.60734 0.0
H334 H 0.73363 0.16517 0.71966 0.0
H335 H 0.66375 0.09879 0.67138 0.0
C336 C 0.68284 0.19239 0.5868 0.0
C337 C 0.90706 0.69729 0.63102 0.0
C338 C 0.86039 0.66072 0.6354 0.0
H339 H 0.97822 0.71264 0.61064 0.0
C340 C 0.84783 0.61172 0.61771 0.0
H341 H 0.91739 0.73529 0.64458 0.0
C342 C 0.88207 0.59892 0.59757 0.0
C343 C 0.92987 0.63467 0.59589 0.0
H344 H 0.81186 0.58305 0.62065 0.0
H345 H 0.87176 0.56043 0.58558 0.0
C346 C 0.94175 0.68426 0.6118 0.0
C347 C 0.41869 0.38947 0.2797 0.0
C348 C 0.39289 0.33748 0.28171 0.0
H349 H 0.45502 0.45142 0.2347 0.0
C350 C 0.38074 0.30795 0.23809 0.0
H351 H 0.42811 0.41285 0.31301 0.0
C352 C 0.39474 0.33006 0.19303 0.0
C353 C 0.4221 0.38191 0.19123 0.0
H354 H 0.36038 0.26779 0.23893 0.0
H355 H 0.38571 0.3063 0.16008 0.0
C356 C 0.43377 0.41145 0.23493 0.0
C357 C 0.42654 0.58221 0.87896 0.0
C358 C 0.44193 0.63113 0.86076 0.0
H359 H 0.44682 0.52845 0.92306 0.0
C360 C 0.49029 0.66509 0.87668 0.0
H361 H 0.38955 0.55548 0.86725 0.0
C362 C 0.52293 0.64985 0.90822 0.0
C363 C 0.50823 0.60038 0.9251 0.0
H364 H 0.50353 0.70325 0.86371 0.0
H365 H 0.5602 0.67668 0.91845 0.0
C366 C 0.45927 0.56695 0.91103 0.0
C367 C 0.44689 0.38902 0.80744 0.0
C368 C 0.43478 0.33745 0.81414 0.0
H369 H 0.48334 0.46312 0.83876 0.0
C370 C 0.44975 0.32115 0.86084 0.0
H371 H 0.43613 0.40283 0.7719 0.0
C372 C 0.47641 0.35611 0.89996 0.0
C373 C 0.48915 0.40779 0.89247 0.0
H374 H 0.44067 0.28158 0.86705 0.0
H375 H 0.48858 0.34298 0.93525 0.0
C376 C 0.47379 0.42359 0.84586 0.0
C377 C 0.77587 0.44769 0.8643 0.0
C378 C 0.75266 0.40619 0.83152 0.0
H379 H 0.76646 0.4993 0.91306 0.0
C380 C 0.70109 0.38456 0.82237 0.0
H381 H 0.81555 0.46507 0.87137 0.0
C382 C 0.67337 0.40438 0.84511 0.0
C383 C 0.69639 0.44577 0.87807 0.0
H384 H 0.68203 0.35289 0.79678 0.0
H385 H 0.63372 0.38705 0.83692 0.0
C386 C 0.7479 0.46709 0.888 0.0
C387 C 0.72148 0.58743 0.77637 0.0
C388 C 0.76382 0.63145 0.77813 0.0
H389 H 0.66415 0.53925 0.81565 0.0
C390 C 0.78482 0.65783 0.82357 0.0
H391 H 0.7044 0.56717 0.74132 0.0
C392 C 0.76186 0.64217 0.86621 0.0
C393 C 0.7172 0.60028 0.86368 0.0
H394 H 0.81714 0.69241 0.82523 0.0
H395 H 0.77751 0.66465 0.9002 0.0
C396 C 0.69834 0.57187 0.81886 0.0
C397 C 0.69937 0.67368 0.18034 0.0
C398 C 0.71506 0.65447 0.22497 0.0
H399 H 0.65187 0.65692 0.10996 0.0
C400 C 0.69594 0.60228 0.23124 0.0
H401 H 0.71347 0.71371 0.17444 0.0
C402 C 0.66084 0.57025 0.19494 0.0
C403 C 0.64404 0.5893 0.15102 0.0
H404 H 0.7065 0.58612 0.26536 0.0
H405 H 0.64586 0.53038 0.20188 0.0
C406 C 0.66448 0.64125 0.14335 0.0
C407 C 0.35377 0.5594 0.1916 0.0
C408 C 0.37788 0.59321 0.23188 0.0
H409 H 0.36026 0.51226 0.13564 0.0
C410 C 0.42749 0.60308 0.24881 0.0
H411 H 0.31546 0.55105 0.17825 0.0
C412 C 0.4527 0.58061 0.22531 0.0
C413 C 0.4293 0.54805 0.18383 0.0
H414 H 0.44702 0.62839 0.28025 0.0
H415 H 0.49106 0.58981 0.23918 0.0
C416 C 0.37937 0.5373 0.16737 0.0
C417 C 0.63401 0.33848 0.16687 0.0
C418 C 0.68065 0.37431 0.1857 0.0
H419 H 0.56533 0.32408 0.12111 0.0
C420 C 0.69499 0.4233 0.16802 0.0
H421 H 0.62178 0.30017 0.17938 0.0
C422 C 0.6625 0.43703 0.13411 0.0
C423 C 0.61485 0.40187 0.1175 0.0
H424 H 0.73065 0.4514 0.18202 0.0
H425 H 0.67389 0.47575 0.12286 0.0
C426 C 0.60154 0.35217 0.13333 0.0
loop_
_geom_bond_atom_site_label_1
_geom_bond_atom_site_label_2
_geom_bond_distance
_geom_bond_site_symmetry_2
_ccdc_geom_bond_type
H0 C5 0.929 . S
H1 C10 0.931 . S
H2 C8 0.930 . S
N3 N4 1.234 . S
N3 C7 1.453 . S
N4 N3 1.234 . S
C5 H0 0.929 . S
C5 C6 1.373 . S
C5 C7 1.368 . S
C6 C5 1.373 . S
C6 C10 1.397 . S
C7 N3 1.453 . S
C7 C5 1.368 . S
C7 C8 1.373 . S
C8 H2 0.930 . S
C8 C7 1.373 . S
C8 C9 1.371 . S
C9 C8 1.371 . S
C9 C10 1.383 . S
C10 H1 0.931 . S
C10 C6 1.397 . S
C10 C9 1.383 . S
H11 C16 0.929 . S
H12 C21 0.931 . S
H13 C19 0.930 . S
N14 N15 1.234 . S
N14 C18 1.453 . S
N15 N14 1.234 . S
C16 H11 0.929 . S
C16 C17 1.373 . S
C16 C18 1.368 . S
C17 C16 1.373 . S
C17 C21 1.397 . S
C18 N14 1.453 . S
C18 C16 1.368 . S
C18 C19 1.373 . S
C19 H13 0.930 . S
C19 C18 1.373 . S
C19 C20 1.371 . S
C20 C19 1.371 . S
C20 C21 1.383 . S
C21 H12 0.931 . S
C21 C17 1.397 . S
C21 C20 1.383 . S
H22 C27 0.929 . S
H23 C32 0.931 . S
H24 C30 0.930 . S
N25 N26 1.234 . S
N25 C29 1.453 . S
N26 N25 1.234 . S
C27 H22 0.929 . S
C27 C28 1.373 . S
C27 C29 1.368 . S
C28 C27 1.373 . S
C28 C32 1.397 . S
C29 N25 1.453 . S
C29 C27 1.368 . S
C29 C30 1.373 . S
C30 H24 0.930 . S
C30 C29 1.373 . S
C30 C31 1.371 . S
C31 C30 1.371 . S
C31 C32 1.383 . S
C32 H23 0.931 . S
C32 C28 1.397 . S
C32 C31 1.383 . S
H33 C38 0.929 . S
H34 C43 0.931 . S
H35 C41 0.930 . S
N36 N37 1.234 . S
N36 C40 1.453 . S
N37 N36 1.234 . S
C38 H33 0.929 . S
C38 C39 1.373 . S
C38 C40 1.368 . S
C39 C38 1.373 . S
C39 C43 1.397 . S
C40 N36 1.453 . S
C40 C38 1.368 . S
C40 C41 1.373 . S
C41 H35 0.930 . S
C41 C40 1.373 . S
C41 C42 1.371 . S
C42 C41 1.371 . S
C42 C43 1.383 . S
C43 H34 0.931 . S
C43 C39 1.397 . S
C43 C42 1.383 . S
H44 C49 0.929 . S
H45 C54 0.931 . S
H46 C52 0.930 . S
N47 N48 1.234 . S
N47 C51 1.453 . S
N48 N47 1.234 . S
C49 H44 0.929 . S
C49 C50 1.373 . S
C49 C51 1.368 . S
C50 C49 1.373 . S
C50 C54 1.397 . S
C51 N47 1.453 . S
C51 C49 1.368 . S
C51 C52 1.373 . S
C52 H46 0.930 . S
C52 C51 1.373 . S
C52 C53 1.371 . S
C53 C52 1.371 . S
C53 C54 1.383 . S
C54 H45 0.931 . S
C54 C50 1.397 . S
C54 C53 1.383 . S
H55 C60 0.929 . S
H56 C65 0.931 . S
H57 C63 0.930 . S
N58 N59 1.234 . S
N58 C62 1.453 . S
N59 N58 1.234 . S
C60 H55 0.929 . S
C60 C61 1.373 . S
C60 C62 1.368 . S
C61 C60 1.373 . S
C61 C65 1.397 . S
C62 N58 1.453 . S
C62 C60 1.368 . S
C62 C63 1.373 . S
C63 H57 0.930 . S
C63 C62 1.373 . S
C63 C64 1.371 . S
C64 C63 1.371 . S
C64 C65 1.383 . S
C65 H56 0.931 . S
C65 C61 1.397 . S
C65 C64 1.383 . S
H66 C71 0.929 . S
H67 C76 0.931 . S
H68 C74 0.930 . S
N69 N70 1.234 . S
N69 C73 1.453 . S
N70 N69 1.234 . S
C71 H66 0.929 . S
C71 C72 1.373 . S
C71 C73 1.368 . S
C72 C71 1.373 . S
C72 C76 1.397 . S
C73 N69 1.453 . S
C73 C71 1.368 . S
C73 C74 1.373 . S
C74 H68 0.930 . S
C74 C73 1.373 . S
C74 C75 1.371 . S
C75 C74 1.371 . S
C75 C76 1.383 . S
C76 H67 0.931 . S
C76 C72 1.397 . S
C76 C75 1.383 . S
H77 C82 0.929 . S
H78 C87 0.931 . S
H79 C85 0.930 . S
N80 N81 1.234 . S
N80 C84 1.453 . S
N81 N80 1.234 . S
C82 H77 0.929 . S
C82 C83 1.373 . S
C82 C84 1.368 . S
C83 C82 1.373 . S
C83 C87 1.397 . S
C84 N80 1.453 . S
C84 C82 1.368 . S
C84 C85 1.373 . S
C85 H79 0.930 . S
C85 C84 1.373 . S
C85 C86 1.371 . S
C86 C85 1.371 . S
C86 C87 1.383 . S
C87 H78 0.931 . S
C87 C83 1.397 . S
C87 C86 1.383 . S
Co88 O91 2.042 . S
Co88 O98 2.264 . S
Co88 O117 2.286 . S
Co88 O118 2.069 . S
Co88 O120 2.015 . S
Co89 O91 2.122 . S
Co89 O97 2.073 . S
Co89 O98 2.327 . S
Co89 O99 1.976 . S
Co90 O91 2.087 . S
Co90 O93 2.087 1_455 S
Co90 O100 2.111 . S
Co90 O101 2.143 1_455 S
Co90 O105 2.111 1_455 S
Co90 O119 2.143 . S
O91 Co88 2.042 . S
O91 Co89 2.122 . S
O91 Co90 2.087 . S
O91 H92 0.980 . S
H92 O91 0.980 . S
O93 Co90 2.087 1_655 S
O93 Co94 2.042 . S
O93 Co95 2.122 . S
O93 H96 0.980 1_655 S
Co94 O93 2.042 . S
Co94 O102 2.286 . S
Co94 O103 2.069 . S
Co94 O104 2.015 . S
Co94 O107 2.264 . S
Co95 O93 2.122 . S
Co95 O106 1.976 . S
Co95 O107 2.327 . S
Co95 O108 2.073 . S
H96 O93 0.980 1_455 S
O97 Co89 2.073 . S
O97 C112 1.245 . S
O98 Co88 2.264 . S
O98 Co89 2.327 . S
O98 C112 1.257 . S
O99 Co89 1.976 . S
O99 C111 1.251 . S
O100 Co90 2.111 . S
O100 C111 1.274 . S
O101 Co90 2.143 1_655 S
O101 C114 1.246 . S
O102 Co94 2.286 . S
O102 C113 1.259 . S
O103 Co94 2.069 . S
O103 C113 1.289 . S
O104 Co94 2.015 . S
O104 C114 1.257 . S
O105 Co90 2.111 1_655 S
O105 C115 1.274 . S
O106 Co95 1.976 . S
O106 C115 1.251 . S
O107 Co94 2.264 . S
O107 Co95 2.327 . S
O107 C116 1.257 . S
O108 Co95 2.073 . S
O108 C116 1.245 . S
C109 O117 1.259 . S
C109 O118 1.289 . S
C110 O119 1.246 . S
C110 O120 1.257 . S
C111 O99 1.251 . S
C111 O100 1.274 . S
C112 O97 1.245 . S
C112 O98 1.257 . S
C113 O102 1.259 . S
C113 O103 1.289 . S
C114 O101 1.246 . S
C114 O104 1.257 . S
C115 O105 1.274 . S
C115 O106 1.251 . S
C116 O107 1.257 . S
C116 O108 1.245 . S
O117 Co88 2.286 . S
O117 C109 1.259 . S
O118 Co88 2.069 . S
O118 C109 1.289 . S
O119 Co90 2.143 . S
O119 C110 1.246 . S
O120 Co88 2.015 . S
O120 C110 1.257 . S
Co121 O124 2.042 . S
Co121 O131 2.264 . S
Co121 O150 2.286 . S
Co121 O151 2.069 . S
Co121 O153 2.015 . S
Co122 O124 2.122 . S
Co122 O130 2.073 . S
Co122 O131 2.327 . S
Co122 O132 1.976 . S
Co123 O124 2.087 1_545 S
Co123 O126 2.087 . S
Co123 O133 2.111 1_545 S
Co123 O134 2.143 . S
Co123 O138 2.111 . S
Co123 O152 2.143 1_545 S
O124 Co121 2.042 . S
O124 Co122 2.122 . S
O124 Co123 2.087 1_565 S
O124 H125 0.980 1_565 S
H125 O124 0.980 1_545 S
O126 Co123 2.087 . S
O126 Co127 2.042 . S
O126 Co128 2.122 . S
O126 H129 0.980 . S
Co127 O126 2.042 . S
Co127 O135 2.286 . S
Co127 O136 2.069 . S
Co127 O137 2.015 . S
Co127 O140 2.264 . S
Co128 O126 2.122 . S
Co128 O139 1.976 . S
Co128 O140 2.327 . S
Co128 O141 2.073 . S
H129 O126 0.980 . S
O130 Co122 2.073 . S
O130 C145 1.245 . S
O131 Co121 2.264 . S
O131 Co122 2.327 . S
O131 C145 1.257 . S
O132 Co122 1.976 . S
O132 C144 1.251 . S
O133 Co123 2.111 1_565 S
O133 C144 1.274 . S
O134 Co123 2.143 . S
O134 C147 1.246 . S
O135 Co127 2.286 . S
O135 C146 1.259 . S
O136 Co127 2.069 . S
O136 C146 1.289 . S
O137 Co127 2.015 . S
O137 C147 1.257 . S
O138 Co123 2.111 . S
O138 C148 1.274 . S
O139 Co128 1.976 . S
O139 C148 1.251 . S
O140 Co127 2.264 . S
O140 Co128 2.327 . S
O140 C149 1.257 . S
O141 Co128 2.073 . S
O141 C149 1.245 . S
C142 O150 1.259 . S
C142 O151 1.289 . S
C143 O152 1.246 . S
C143 O153 1.257 . S
C144 O132 1.251 . S
C144 O133 1.274 . S
C145 O130 1.245 . S
C145 O131 1.257 . S
C146 O135 1.259 . S
C146 O136 1.289 . S
C147 O134 1.246 . S
C147 O137 1.257 . S
C148 O138 1.274 . S
C148 O139 1.251 . S
C149 O140 1.257 . S
C149 O141 1.245 . S
O150 Co121 2.286 . S
O150 C142 1.259 . S
O151 Co121 2.069 . S
O151 C142 1.289 . S
O152 Co123 2.143 1_565 S
O152 C143 1.246 . S
O153 Co121 2.015 . S
O153 C143 1.257 . S
Co154 O157 2.042 . S
Co154 O164 2.264 . S
Co154 O183 2.286 . S
Co154 O184 2.069 . S
Co154 O186 2.015 . S
Co155 O157 2.122 . S
Co155 O163 2.073 . S
Co155 O164 2.327 . S
Co155 O165 1.976 . S
Co156 O157 2.087 . S
Co156 O159 2.087 1_554 S
Co156 O166 2.111 . S
Co156 O167 2.143 1_554 S
Co156 O171 2.111 1_554 S
Co156 O185 2.143 . S
O157 Co154 2.042 . S
O157 Co155 2.122 . S
O157 Co156 2.087 . S
O157 H158 0.980 . S
H158 O157 0.980 . S
O159 Co156 2.087 1_556 S
O159 Co160 2.042 . S
O159 Co161 2.122 . S
O159 H162 0.980 . S
Co160 O159 2.042 . S
Co160 O168 2.286 . S
Co160 O169 2.069 . S
Co160 O170 2.015 . S
Co160 O173 2.264 . S
Co161 O159 2.122 . S
Co161 O172 1.976 . S
Co161 O173 2.327 . S
Co161 O174 2.073 . S
H162 O159 0.980 . S
O163 Co155 2.073 . S
O163 C178 1.245 . S
O164 Co154 2.264 . S
O164 Co155 2.327 . S
O164 C178 1.257 . S
O165 Co155 1.976 . S
O165 C177 1.251 . S
O166 Co156 2.111 . S
O166 C177 1.274 . S
O167 Co156 2.143 1_556 S
O167 C180 1.246 . S
O168 Co160 2.286 . S
O168 C179 1.259 . S
O169 Co160 2.069 . S
O169 C179 1.289 . S
O170 Co160 2.015 . S
O170 C180 1.257 . S
O171 Co156 2.111 1_556 S
O171 C181 1.274 . S
O172 Co161 1.976 . S
O172 C181 1.251 . S
O173 Co160 2.264 . S
O173 Co161 2.327 . S
O173 C182 1.257 . S
O174 Co161 2.073 . S
O174 C182 1.245 . S
C175 O183 1.259 . S
C175 O184 1.289 . S
C176 O185 1.246 . S
C176 O186 1.257 . S
C177 O165 1.251 . S
C177 O166 1.274 . S
C178 O163 1.245 . S
C178 O164 1.257 . S
C179 O168 1.259 . S
C179 O169 1.289 . S
C180 O167 1.246 . S
C180 O170 1.257 . S
C181 O171 1.274 . S
C181 O172 1.251 . S
C182 O173 1.257 . S
C182 O174 1.245 . S
O183 Co154 2.286 . S
O183 C175 1.259 . S
O184 Co154 2.069 . S
O184 C175 1.289 . S
O185 Co156 2.143 . S
O185 C176 1.246 . S
O186 Co154 2.015 . S
O186 C176 1.257 . S
C187 C188 1.387 . S
C187 H191 0.950 . S
C187 C196 1.390 . S
C188 C187 1.387 . S
C188 C190 1.387 . S
H189 C196 0.950 . S
C190 C188 1.387 . S
C190 C192 1.390 . S
C190 H194 0.950 . S
H191 C187 0.950 . S
C192 C190 1.390 . S
C192 C193 1.387 . S
C192 H195 0.950 . S
C193 C192 1.387 . S
C193 C196 1.387 . S
H194 C190 0.950 . S
H195 C192 0.950 . S
C196 C187 1.390 . S
C196 H189 0.950 . S
C196 C193 1.387 . S
C197 C198 1.387 . S
C197 H201 0.950 . S
C197 C206 1.390 . S
C198 C197 1.387 . S
C198 C200 1.387 . S
H199 C206 0.950 . S
C200 C198 1.387 . S
C200 C202 1.390 . S
C200 H204 0.950 . S
H201 C197 0.950 . S
C202 C200 1.390 . S
C202 C203 1.387 . S
C202 H205 0.950 . S
C203 C202 1.387 . S
C203 C206 1.387 . S
H204 C200 0.950 . S
H205 C202 0.950 . S
C206 C197 1.390 . S
C206 H199 0.950 . S
C206 C203 1.387 . S
C207 C208 1.387 . S
C207 H211 0.950 . S
C207 C216 1.390 . S
C208 C207 1.387 . S
C208 C210 1.387 . S
H209 C216 0.950 . S
C210 C208 1.387 . S
C210 C212 1.390 . S
C210 H214 0.950 . S
H211 C207 0.950 . S
C212 C210 1.390 . S
C212 C213 1.387 . S
C212 H215 0.950 . S
C213 C212 1.387 . S
C213 C216 1.387 . S
H214 C210 0.950 . S
H215 C212 0.950 . S
C216 C207 1.390 . S
C216 H209 0.950 . S
C216 C213 1.387 . S
C217 C218 1.387 . S
C217 H221 0.950 . S
C217 C226 1.390 . S
C218 C217 1.387 . S
C218 C220 1.387 . S
H219 C226 0.950 . S
C220 C218 1.387 . S
C220 C222 1.390 . S
C220 H224 0.950 . S
H221 C217 0.950 . S
C222 C220 1.390 . S
C222 C223 1.387 . S
C222 H225 0.950 . S
C223 C222 1.387 . S
C223 C226 1.387 . S
H224 C220 0.950 . S
H225 C222 0.950 . S
C226 C217 1.390 . S
C226 H219 0.950 . S
C226 C223 1.387 . S
C227 C228 1.387 . S
C227 H231 0.950 . S
C227 C236 1.390 . S
C228 C227 1.387 . S
C228 C230 1.387 . S
H229 C236 0.950 . S
C230 C228 1.387 . S
C230 C232 1.390 . S
C230 H234 0.950 . S
H231 C227 0.950 . S
C232 C230 1.390 . S
C232 C233 1.387 . S
C232 H235 0.950 . S
C233 C232 1.387 . S
C233 C236 1.387 . S
H234 C230 0.950 . S
H235 C232 0.950 . S
C236 C227 1.390 . S
C236 H229 0.950 . S
C236 C233 1.387 . S
C237 C238 1.387 . S
C237 H241 0.950 . S
C237 C246 1.390 . S
C238 C237 1.387 . S
C238 C240 1.387 . S
H239 C246 0.950 . S
C240 C238 1.387 . S
C240 C242 1.390 . S
C240 H244 0.950 . S
H241 C237 0.950 . S
C242 C240 1.390 . S
C242 C243 1.387 . S
C242 H245 0.950 . S
C243 C242 1.387 . S
C243 C246 1.387 . S
H244 C240 0.950 . S
H245 C242 0.950 . S
C246 C237 1.390 . S
C246 H239 0.950 . S
C246 C243 1.387 . S
C247 C248 1.387 . S
C247 H251 0.950 . S
C247 C256 1.390 . S
C248 C247 1.387 . S
C248 C250 1.387 . S
H249 C256 0.950 . S
C250 C248 1.387 . S
C250 C252 1.390 . S
C250 H254 0.950 . S
H251 C247 0.950 . S
C252 C250 1.390 . S
C252 C253 1.387 . S
C252 H255 0.950 . S
C253 C252 1.387 . S
C253 C256 1.387 . S
H254 C250 0.950 . S
H255 C252 0.950 . S
C256 C247 1.390 . S
C256 H249 0.950 . S
C256 C253 1.387 . S
C257 C258 1.387 . S
C257 H261 0.950 . S
C257 C266 1.390 . S
C258 C257 1.387 . S
C258 C260 1.387 . S
H259 C266 0.950 . S
C260 C258 1.387 . S
C260 C262 1.390 . S
C260 H264 0.950 . S
H261 C257 0.950 . S
C262 C260 1.390 . S
C262 C263 1.387 . S
C262 H265 0.950 . S
C263 C262 1.387 . S
C263 C266 1.387 . S
H264 C260 0.950 . S
H265 C262 0.950 . S
C266 C257 1.390 . S
C266 H259 0.950 . S
C266 C263 1.387 . S
C267 C268 1.387 . S
C267 H271 0.950 . S
C267 C276 1.390 . S
C268 C267 1.387 . S
C268 C270 1.387 . S
H269 C276 0.950 . S
C270 C268 1.387 . S
C270 C272 1.390 . S
C270 H274 0.950 . S
H271 C267 0.950 . S
C272 C270 1.390 . S
C272 C273 1.387 . S
C272 H275 0.950 . S
C273 C272 1.387 . S
C273 C276 1.387 . S
H274 C270 0.950 . S
H275 C272 0.950 . S
C276 C267 1.390 . S
C276 H269 0.950 . S
C276 C273 1.387 . S
C277 C278 1.387 . S
C277 H281 0.950 . S
C277 C286 1.390 . S
C278 C277 1.387 . S
C278 C280 1.387 . S
H279 C286 0.950 . S
C280 C278 1.387 . S
C280 C282 1.390 . S
C280 H284 0.950 . S
H281 C277 0.950 . S
C282 C280 1.390 . S
C282 C283 1.387 . S
C282 H285 0.950 . S
C283 C282 1.387 . S
C283 C286 1.387 . S
H284 C280 0.950 . S
H285 C282 0.950 . S
C286 C277 1.390 . S
C286 H279 0.950 . S
C286 C283 1.387 . S
C287 C288 1.387 . S
C287 H291 0.950 . S
C287 C296 1.390 . S
C288 C287 1.387 . S
C288 C290 1.387 . S
H289 C296 0.950 . S
C290 C288 1.387 . S
C290 C292 1.390 . S
C290 H294 0.950 . S
H291 C287 0.950 . S
C292 C290 1.390 . S
C292 C293 1.387 . S
C292 H295 0.950 . S
C293 C292 1.387 . S
C293 C296 1.387 . S
H294 C290 0.950 . S
H295 C292 0.950 . S
C296 C287 1.390 . S
C296 H289 0.950 . S
C296 C293 1.387 . S
C297 C298 1.387 . S
C297 H301 0.950 . S
C297 C306 1.390 . S
C298 C297 1.387 . S
C298 C300 1.387 . S
H299 C306 0.950 . S
C300 C298 1.387 . S
C300 C302 1.390 . S
C300 H304 0.950 . S
H301 C297 0.950 . S
C302 C300 1.390 . S
C302 C303 1.387 . S
C302 H305 0.950 . S
C303 C302 1.387 . S
C303 C306 1.387 . S
H304 C300 0.950 . S
H305 C302 0.950 . S
C306 C297 1.390 . S
C306 H299 0.950 . S
C306 C303 1.387 . S
C307 C308 1.387 . S
C307 H311 0.950 . S
C307 C316 1.390 . S
C308 C307 1.387 . S
C308 C310 1.387 . S
H309 C316 0.950 . S
C310 C308 1.387 . S
C310 C312 1.390 . S
C310 H314 0.950 . S
H311 C307 0.950 . S
C312 C310 1.390 . S
C312 C313 1.387 . S
C312 H315 0.950 . S
C313 C312 1.387 . S
C313 C316 1.387 . S
H314 C310 0.950 . S
H315 C312 0.950 . S
C316 C307 1.390 . S
C316 H309 0.950 . S
C316 C313 1.387 . S
C317 C318 1.387 . S
C317 H321 0.950 . S
C317 C326 1.390 . S
C318 C317 1.387 . S
C318 C320 1.387 . S
H319 C326 0.950 . S
C320 C318 1.387 . S
C320 C322 1.390 . S
C320 H324 0.950 . S
H321 C317 0.950 . S
C322 C320 1.390 . S
C322 C323 1.387 . S
C322 H325 0.950 . S
C323 C322 1.387 . S
C323 C326 1.387 . S
H324 C320 0.950 . S
H325 C322 0.950 . S
C326 C317 1.390 . S
C326 H319 0.950 . S
C326 C323 1.387 . S
C327 C328 1.387 . S
C327 H331 0.950 . S
C327 C336 1.390 . S
C328 C327 1.387 . S
C328 C330 1.387 . S
H329 C336 0.950 . S
C330 C328 1.387 . S
C330 C332 1.390 . S
C330 H334 0.950 . S
H331 C327 0.950 . S
C332 C330 1.390 . S
C332 C333 1.387 . S
C332 H335 0.950 . S
C333 C332 1.387 . S
C333 C336 1.387 . S
H334 C330 0.950 . S
H335 C332 0.950 . S
C336 C327 1.390 . S
C336 H329 0.950 . S
C336 C333 1.387 . S
C337 C338 1.387 . S
C337 H341 0.950 . S
C337 C346 1.390 . S
C338 C337 1.387 . S
C338 C340 1.387 . S
H339 C346 0.950 . S
C340 C338 1.387 . S
C340 C342 1.390 . S
C340 H344 0.950 . S
H341 C337 0.950 . S
C342 C340 1.390 . S
C342 C343 1.387 . S
C342 H345 0.950 . S
C343 C342 1.387 . S
C343 C346 1.387 . S
H344 C340 0.950 . S
H345 C342 0.950 . S
C346 C337 1.390 . S
C346 H339 0.950 . S
C346 C343 1.387 . S
C347 C348 1.387 . S
C347 H351 0.950 . S
C347 C356 1.390 . S
C348 C347 1.387 . S
C348 C350 1.387 . S
H349 C356 0.950 . S
C350 C348 1.387 . S
C350 C352 1.390 . S
C350 H354 0.950 . S
H351 C347 0.950 . S
C352 C350 1.390 . S
C352 C353 1.387 . S
C352 H355 0.950 . S
C353 C352 1.387 . S
C353 C356 1.387 . S
H354 C350 0.950 . S
H355 C352 0.950 . S
C356 C347 1.390 . S
C356 H349 0.950 . S
C356 C353 1.387 . S
C357 C358 1.387 . S
C357 H361 0.950 . S
C357 C366 1.390 . S
C358 C357 1.387 . S
C358 C360 1.387 . S
H359 C366 0.950 . S
C360 C358 1.387 . S
C360 C362 1.390 . S
C360 H364 0.950 . S
H361 C357 0.950 . S
C362 C360 1.390 . S
C362 C363 1.387 . S
C362 H365 0.950 . S
C363 C362 1.387 . S
C363 C366 1.387 . S
H364 C360 0.950 . S
H365 C362 0.950 . S
C366 C357 1.390 . S
C366 H359 0.950 . S
C366 C363 1.387 . S
C367 C368 1.387 . S
C367 H371 0.950 . S
C367 C376 1.390 . S
C368 C367 1.387 . S
C368 C370 1.387 . S
H369 C376 0.950 . S
C370 C368 1.387 . S
C370 C372 1.390 . S
C370 H374 0.950 . S
H371 C367 0.950 . S
C372 C370 1.390 . S
C372 C373 1.387 . S
C372 H375 0.950 . S
C373 C372 1.387 . S
C373 C376 1.387 . S
H374 C370 0.950 . S
H375 C372 0.950 . S
C376 C367 1.390 . S
C376 H369 0.950 . S
C376 C373 1.387 . S
C377 C378 1.387 . S
C377 H381 0.950 . S
C377 C386 1.390 . S
C378 C377 1.387 . S
C378 C380 1.387 . S
H379 C386 0.950 . S
C380 C378 1.387 . S
C380 C382 1.390 . S
C380 H384 0.950 . S
H381 C377 0.950 . S
C382 C380 1.390 . S
C382 C383 1.387 . S
C382 H385 0.950 . S
C383 C382 1.387 . S
C383 C386 1.387 . S
H384 C380 0.950 . S
H385 C382 0.950 . S
C386 C377 1.390 . S
C386 H379 0.950 . S
C386 C383 1.387 . S
C387 C388 1.387 . S
C387 H391 0.950 . S
C387 C396 1.390 . S
C388 C387 1.387 . S
C388 C390 1.387 . S
H389 C396 0.950 . S
C390 C388 1.387 . S
C390 C392 1.390 . S
C390 H394 0.950 . S
H391 C387 0.950 . S
C392 C390 1.390 . S
C392 C393 1.387 . S
C392 H395 0.950 . S
C393 C392 1.387 . S
C393 C396 1.387 . S
H394 C390 0.950 . S
H395 C392 0.950 . S
C396 C387 1.390 . S
C396 H389 0.950 . S
C396 C393 1.387 . S
C397 C398 1.387 . S
C397 H401 0.950 . S
C397 C406 1.390 . S
C398 C397 1.387 . S
C398 C400 1.387 . S
H399 C406 0.950 . S
C400 C398 1.387 . S
C400 C402 1.390 . S
C400 H404 0.950 . S
H401 C397 0.950 . S
C402 C400 1.390 . S
C402 C403 1.387 . S
C402 H405 0.950 . S
C403 C402 1.387 . S
C403 C406 1.387 . S
H404 C400 0.950 . S
H405 C402 0.950 . S
C406 C397 1.390 . S
C406 H399 0.950 . S
C406 C403 1.387 . S
C407 C408 1.387 . S
C407 H411 0.950 . S
C407 C416 1.390 . S
C408 C407 1.387 . S
C408 C410 1.387 . S
H409 C416 0.950 . S
C410 C408 1.387 . S
C410 C412 1.390 . S
C410 H414 0.950 . S
H411 C407 0.950 . S
C412 C410 1.390 . S
C412 C413 1.387 . S
C412 H415 0.950 . S
C413 C412 1.387 . S
C413 C416 1.387 . S
H414 C410 0.950 . S
H415 C412 0.950 . S
C416 C407 1.390 . S
C416 H409 0.950 . S
C416 C413 1.387 . S
C417 C418 1.387 . S
C417 H421 0.950 . S
C417 C426 1.390 . S
C418 C417 1.387 . S
C418 C420 1.387 . S
H419 C426 0.950 . S
C420 C418 1.387 . S
C420 C422 1.390 . S
C420 H424 0.950 . S
H421 C417 0.950 . S
C422 C420 1.390 . S
C422 C423 1.387 . S
C422 H425 0.950 . S
C423 C422 1.387 . S
C423 C426 1.387 . S
H424 C420 0.950 . S
H425 C422 0.950 . S
C426 C417 1.390 . S
C426 H419 0.950 . S
C426 C423 1.387 . S
C193 C112 1.451 . S
C188 N4 1.537 . S
C203 C148 1.411 . S
C198 C17 1.490 . S
C213 C113 1.584 . S
C208 C31 1.608 . S
C223 C143 1.556 . S
C218 C42 1.607 . S
C233 C110 1.464 . S
C228 C53 1.524 . S
C238 C61 1.783 . S
C243 C146 1.807 . S
C248 C75 0.947 . S
C253 C115 0.891 . S
C263 C145 1.512 . S
C258 N81 1.542 . S
C273 C149 1.694 . S
C268 C9 1.724 . S
C283 C114 1.269 . S
C278 C20 1.304 . S
C293 C142 1.587 . S
C288 N26 1.554 . S
C303 C111 1.226 . S
C298 C39 1.383 . S
C313 C144 1.676 . S
C308 C50 1.791 . S
C318 N59 1.306 . S
C323 C109 1.298 . S
C328 C72 1.252 . S
C333 C147 1.257 . S
C343 C116 1.483 . S
C338 C86 1.577 . S
C353 C178 1.697 . S
C348 C6 1.803 . S
C358 N48 1.951 . S
C363 C181 1.814 . S
C373 C180 1.844 . S
C368 C64 1.885 . S
C378 N70 1.377 . S
C383 C179 1.369 . S
C393 C182 1.757 . S
C388 C83 1.881 . S
C398 C28 1.784 . S
C403 C176 1.728 . S
C413 C175 1.900 . S
C408 N37 1.927 . S
C418 N15 1.357 . S
C423 C177 1.269 . S
