# Generated by pormake.
# Topology anh, (6,3)-cn, num edge types: 1
# Building blocks:
#     Node 0, Type 0, BuildingBlock: PAMTOO_clean_sbu_0, # of connection points: 6
#     Node 1, Type 0, BuildingBlock: PAMTOO_clean_sbu_0, # of connection points: 6
#     Node 2, Type 0, BuildingBlock: PAMTOO_clean_sbu_0, # of connection points: 6
#     Node 3, Type 1, BuildingBlock: BELTOD_clean_linker_0, # of connection points: 3
#     Node 4, Type 1, BuildingBlock: BELTOD_clean_linker_0, # of connection points: 3
#     Node 5, Type 1, BuildingBlock: BELTOD_clean_linker_0, # of connection points: 3
#     Node 6, Type 1, BuildingBlock: BELTOD_clean_linker_0, # of connection points: 3
#     Node 7, Type 1, BuildingBlock: BELTOD_clean_linker_0, # of connection points: 3
#     Node 8, Type 1, BuildingBlock: BELTOD_clean_linker_0, # of connection points: 3
#     Edge 9, Type (0, 1), BuildingBlock: OJICUG_clean_linker_0, # of connection points: 2
#     Edge 10, Type (0, 1), BuildingBlock: OJICUG_clean_linker_0, # of connection points: 2
#     Edge 11, Type (0, 1), BuildingBlock: OJICUG_clean_linker_0, # of connection points: 2
#     Edge 12, Type (0, 1), BuildingBlock: OJICUG_clean_linker_0, # of connection points: 2
#     Edge 13, Type (0, 1), BuildingBlock: OJICUG_clean_linker_0, # of connection points: 2
#     Edge 14, Type (0, 1), BuildingBlock: OJICUG_clean_linker_0, # of connection points: 2
#     Edge 15, Type (0, 1), BuildingBlock: OJICUG_clean_linker_0, # of connection points: 2
#     Edge 16, Type (0, 1), BuildingBlock: OJICUG_clean_linker_0, # of connection points: 2
#     Edge 17, Type (0, 1), BuildingBlock: OJICUG_clean_linker_0, # of connection points: 2
#     Edge 18, Type (0, 1), BuildingBlock: OJICUG_clean_linker_0, # of connection points: 2
#     Edge 19, Type (0, 1), BuildingBlock: OJICUG_clean_linker_0, # of connection points: 2
#     Edge 20, Type (0, 1), BuildingBlock: OJICUG_clean_linker_0, # of connection points: 2
#     Edge 21, Type (0, 1), BuildingBlock: OJICUG_clean_linker_0, # of connection points: 2
#     Edge 22, Type (0, 1), BuildingBlock: OJICUG_clean_linker_0, # of connection points: 2
#     Edge 23, Type (0, 1), BuildingBlock: OJICUG_clean_linker_0, # of connection points: 2
#     Edge 24, Type (0, 1), BuildingBlock: OJICUG_clean_linker_0, # of connection points: 2
#     Edge 25, Type (0, 1), BuildingBlock: OJICUG_clean_linker_0, # of connection points: 2
#     Edge 26, Type (0, 1), BuildingBlock: OJICUG_clean_linker_0, # of connection points: 2
# Relax obj value: 0.221
# Max RMSD: 0.210
# Mean RMSD: 0.160
data_MOF--net-anh--node1-PAMTOO_clean_sbu_0--node2-BELTOD_clean_linker_0--edge1-OJICUG_clean_linker_0
_symmetry_space_group_name_H-M    P1
_symmetry_Int_Tables_number       1
_symmetry_cell_setting            triclinic
loop_
_symmetry_equiv_pos_as_xyz
'x, y, z'
_cell_length_a     26.242632
_cell_length_b     25.430994
_cell_length_c     46.861522
_cell_angle_alpha  88.912866
_cell_angle_beta   95.457669
_cell_angle_gamma 100.74854
loop_
_atom_site_label
_atom_site_type_symbol
_atom_site_fract_x
_atom_site_fract_y
_atom_site_fract_z
_atom_type_partial_charge
Dy0 Dy 1.05033 0.64279 0.1453 0.0
Dy1 Dy 1.01904 0.51494 0.12709 0.0
C2 C 1.02931 0.60862 0.08183 0.0
O3 O 0.9637 0.62389 0.1507 0.0
O4 O 0.94231 0.54207 0.1278 0.0
O5 O 1.08071 0.72266 0.13106 0.0
O6 O 1.05988 0.70925 0.17467 0.0
O7 O 1.01551 0.51831 0.17449 0.0
O8 O 1.07291 0.59687 0.18364 0.0
O9 O 0.10673 0.52918 0.13257 0.0
O10 O 0.12598 0.62135 0.13368 0.0
O11 O 1.02824 0.43279 0.13265 0.0
O12 O 0.97047 0.45309 0.10022 0.0
C13 C 0.92865 0.58316 0.13982 0.0
O14 O 1.01094 0.63384 0.10132 0.0
O15 O 1.04378 0.56282 0.08829 0.0
C16 C 0.13698 0.77052 0.1671 0.0
C17 C 0.24191 0.82019 0.1805 0.0
C18 C 0.20525 0.84969 0.16784 0.0
C19 C 0.15323 0.82496 0.16111 0.0
C20 C 0.17312 0.74127 0.18029 0.0
C21 C 0.22494 0.76587 0.18703 0.0
C22 C 0.08433 0.7427 0.15675 0.0
C23 C 1.04759 0.55092 0.19225 0.0
C24 C 0.14066 0.57455 0.13244 0.0
C25 C 0.94734 0.37264 0.12622 0.0
C26 C 0.86954 0.29276 0.14743 0.0
C27 C 0.90693 0.32506 0.16633 0.0
C28 C 0.94507 0.36467 0.15588 0.0
C29 C 0.91019 0.34067 0.10726 0.0
C30 C 0.87162 0.30129 0.11772 0.0
C31 C 0.98744 0.41475 0.11499 0.0
H32 H 0.2171 0.89141 0.16226 0.0
H33 H 0.12606 0.84793 0.15051 0.0
H34 H 0.16153 0.69898 0.18476 0.0
H35 H 0.25183 0.74213 0.19718 0.0
H36 H 0.9074 0.3193 0.18929 0.0
H37 H 0.97291 0.38891 0.17113 0.0
H38 H 0.91084 0.34635 0.08432 0.0
H39 H 0.84314 0.27792 0.10246 0.0
Dy40 Dy 0.55169 0.98829 0.51717 0.0
Dy41 Dy 0.67998 0.0102 0.52183 0.0
C42 C 0.61858 0.99066 0.57712 0.0
O43 O 0.57339 0.07767 0.51392 0.0
O44 O 0.65951 0.08873 0.53192 0.0
O45 O 0.47963 0.95663 0.53535 0.0
O46 O 0.47801 0.99076 0.49272 0.0
O47 O 0.65165 0.03684 0.47869 0.0
O48 O 0.57739 0.97426 0.47421 0.0
O49 O 0.65641 0.9228 0.51146 0.0
O50 O 0.57334 0.9081 0.52543 0.0
O51 O 0.7513 0.00652 0.50303 0.0
O52 O 0.75403 0.0395 0.54559 0.0
C53 C 0.61747 0.10836 0.52377 0.0
O54 O 0.57981 0.00879 0.56288 0.0
O55 O 0.65586 0.97691 0.56379 0.0
C56 C 0.41793 0.91208 0.50051 0.0
C57 C 0.357 0.81245 0.48321 0.0
C58 C 0.41009 0.8249 0.47858 0.0
C59 C 0.44024 0.87411 0.48721 0.0
C60 C 0.36488 0.90049 0.50479 0.0
C61 C 0.33451 0.85106 0.49611 0.0
C62 C 0.45126 0.96187 0.51146 0.0
C63 C 0.61413 0.00738 0.4625 0.0
C64 C 0.61429 0.8902 0.51839 0.0
C65 C 0.81751 0.08006 0.51586 0.0
C66 C 0.88768 0.1695 0.49767 0.0
C67 C 0.83637 0.17381 0.50221 0.0
C68 C 0.80155 0.12942 0.51109 0.0
C69 C 0.86865 0.07559 0.51175 0.0
C70 C 0.90347 0.11988 0.5027 0.0
C71 C 0.78046 0.03286 0.52414 0.0
H72 H 0.42846 0.79655 0.46826 0.0
H73 H 0.48126 0.88229 0.48383 0.0
H74 H 0.3472 0.92922 0.51528 0.0
H75 H 0.29384 0.84254 0.50015 0.0
H76 H 0.82304 0.21147 0.49888 0.0
H77 H 0.76202 0.13351 0.51401 0.0
H78 H 0.88144 0.03763 0.51513 0.0
H79 H 0.94236 0.11483 0.49896 0.0
Dy80 Dy 0.63922 0.4469 0.85122 0.0
Dy81 Dy 0.51534 0.42998 0.83014 0.0
C82 C 0.59797 0.4415 0.78543 0.0
O83 O 0.61929 0.52824 0.85472 0.0
O84 O 0.54673 0.51684 0.82273 0.0
O85 O 0.7045 0.47609 0.88185 0.0
O86 O 0.71634 0.43727 0.84283 0.0
O87 O 0.52794 0.45815 0.87581 0.0
O88 O 0.59772 0.41956 0.88958 0.0
O89 O 0.52653 0.34566 0.83911 0.0
O90 O 0.61639 0.35906 0.84316 0.0
O91 O 0.43484 0.40802 0.83916 0.0
O92 O 0.45404 0.44079 0.7977 0.0
C93 C 0.58428 0.54812 0.83817 0.0
O94 O 0.63048 0.46932 0.80499 0.0
O95 O 0.55479 0.41141 0.79249 0.0
C96 C 0.77813 0.51194 0.85868 0.0
C97 C 0.85398 0.60182 0.84791 0.0
C98 C 0.80192 0.59938 0.83688 0.0
C99 C 0.76425 0.55467 0.8422 0.0
C100 C 0.82987 0.51393 0.86956 0.0
C101 C 0.86756 0.55855 0.86425 0.0
C102 C 0.73827 0.46602 0.86498 0.0
C103 C 0.5583 0.4403 0.89612 0.0
C104 C 0.57049 0.32725 0.84132 0.0
C105 C 0.39416 0.47739 0.82058 0.0
C106 C 0.35332 0.57031 0.8281 0.0
C107 C 0.40273 0.56584 0.84105 0.0
C108 C 0.42277 0.51982 0.83742 0.0
C109 C 0.34501 0.48158 0.80725 0.0
C110 C 0.32446 0.52774 0.81117 0.0
C111 C 0.41871 0.43145 0.81585 0.0
H112 H 0.79037 0.63192 0.82415 0.0
H113 H 0.72421 0.55355 0.83366 0.0
H114 H 0.84098 0.48134 0.88244 0.0
H115 H 0.90716 0.55971 0.87354 0.0
H116 H 0.42542 0.59734 0.8547 0.0
H117 H 0.46085 0.51739 0.84787 0.0
H118 H 0.32276 0.44945 0.79388 0.0
H119 H 0.28616 0.53024 0.801 0.0
P120 P 0.6304 0.97814 0.24329 0.0
H121 H 0.55055 0.02761 0.2094 0.0
H122 H 0.45948 0.99234 0.19232 0.0
H123 H 0.47551 0.83741 0.2276 0.0
H124 H 0.56599 0.87263 0.24422 0.0
H125 H 0.71125 0.98472 0.20407 0.0
H126 H 0.7635 0.05898 0.18066 0.0
H127 H 0.67627 0.16792 0.21487 0.0
H128 H 0.62574 0.09293 0.23963 0.0
H129 H 0.70947 0.99371 0.2918 0.0
H130 H 0.54625 1.00083 0.27608 0.0
O131 O 0.66376 0.92825 0.24355 0.0
H132 H 0.70506 0.00536 0.34313 0.0
H133 H 0.54165 0.01289 0.32727 0.0
C134 C 0.56543 0.95237 0.22744 0.0
C135 C 0.53467 0.98586 0.21297 0.0
C136 C 0.48248 0.96577 0.20347 0.0
C137 C 0.46031 0.91192 0.2084 0.0
C138 C 0.49156 0.87871 0.22287 0.0
C139 C 0.5434 0.89883 0.2324 0.0
C140 C 0.66491 0.03334 0.22384 0.0
C141 C 0.7032 0.02453 0.20654 0.0
C142 C 0.73286 0.06725 0.19284 0.0
C143 C 0.72439 0.11988 0.19574 0.0
C144 C 0.68468 0.12824 0.21248 0.0
C145 C 0.65537 0.08535 0.22648 0.0
C146 C 0.6281 0.99549 0.28018 0.0
C147 C 0.67287 0.99855 0.29936 0.0
C148 C 0.6703 0.0054 0.32869 0.0
C149 C 0.62281 0.00941 0.33934 0.0
C150 C 0.57856 0.00887 0.31981 0.0
C151 C 0.58124 1.00221 0.29047 0.0
P152 P 0.67115 0.50925 0.57202 0.0
H153 H 0.72601 0.45262 0.53459 0.0
H154 H 0.71008 0.3598 0.51884 0.0
H155 H 0.559 0.33405 0.55166 0.0
H156 H 0.57447 0.42772 0.56639 0.0
H157 H 0.66021 0.55482 0.5143 0.0
H158 H 0.64174 0.64211 0.49729 0.0
H159 H 0.60822 0.67757 0.58245 0.0
H160 H 0.62853 0.59265 0.59942 0.0
H161 H 0.73729 0.48801 0.62314 0.0
H162 H 0.5754 0.49575 0.60151 0.0
O163 O 0.73553 0.52835 0.57181 0.0
H164 H 0.72024 0.46815 0.67283 0.0
H165 H 0.55811 0.47661 0.65137 0.0
C166 C 0.65197 0.4471 0.5523 0.0
C167 C 0.68885 0.42756 0.53777 0.0
C168 C 0.67988 0.3741 0.529 0.0
C169 C 0.63388 0.33883 0.53474 0.0
C170 C 0.59499 0.35984 0.54699 0.0
C171 C 0.60392 0.41358 0.55558 0.0
C172 C 0.64385 0.56579 0.55793 0.0
C173 C 0.64731 0.58073 0.52907 0.0
C174 C 0.63727 0.63079 0.51944 0.0
C175 C 0.62306 0.66648 0.5385 0.0
C176 C 0.61798 0.65057 0.5671 0.0
C177 C 0.62911 0.60132 0.57679 0.0
C178 C 0.65785 0.49453 0.60871 0.0
C179 C 0.6981 0.48585 0.6291 0.0
C180 C 0.68831 0.47455 0.65756 0.0
C181 C 0.6379 0.47128 0.66616 0.0
C182 C 0.5973 0.47844 0.64545 0.0
C183 C 0.60719 0.48969 0.61696 0.0
P184 P 0.16868 0.84041 0.91112 0.0
H185 H 0.23518 0.86306 0.86329 0.0
H186 H 0.28372 0.80441 0.84006 0.0
H187 H 0.26819 0.69628 0.91207 0.0
H188 H 0.22105 0.75403 0.9351 0.0
H189 H 1.06416 0.8609 0.91305 0.0
H190 H 0.98344 0.81563 0.8878 0.0
H191 H 1.07036 0.76281 0.8235 0.0
H192 H 0.15048 0.80365 0.85006 0.0
H193 H 0.16854 0.86096 0.97308 0.0
H194 H 0.11028 0.73196 0.9133 0.0
O195 O 0.18962 0.90424 0.92059 0.0
H196 H 0.1328 0.80419 0.01213 0.0
H197 H 1.07497 0.67524 0.95208 0.0
C198 C 0.22115 0.81106 0.89992 0.0
C199 C 0.24344 0.8274 0.87436 0.0
C200 C 0.27099 0.79397 0.8611 0.0
C201 C 0.27733 0.74491 0.87384 0.0
C202 C 0.2618 0.73298 0.90138 0.0
C203 C 0.23442 0.76607 0.91445 0.0
C204 C 0.11382 0.83423 0.88428 0.0
C205 C 1.06584 0.84127 0.89293 0.0
C206 C 1.01939 0.81533 0.87829 0.0
C207 C 1.02047 0.78335 0.85423 0.0
C208 C 1.06827 0.785 0.84273 0.0
C209 C 0.11467 0.80922 0.85795 0.0
C210 C 0.14177 0.80075 0.94035 0.0
C211 C 0.14792 0.82064 0.96835 0.0
C212 C 0.12745 0.78821 0.99056 0.0
C213 C 0.1012 0.73529 0.98506 0.0
C214 C 0.09536 0.71561 0.95697 0.0
C215 C 0.11517 0.74816 0.93481 0.0
P216 P 0.15911 0.44647 0.4009 0.0
H217 H 0.26675 0.50208 0.40497 0.0
H218 H 0.31113 0.58705 0.42627 0.0
H219 H 0.16689 0.61098 0.45683 0.0
H220 H 0.12248 0.52552 0.43516 0.0
H221 H 1.0579 0.38228 0.38098 0.0
H222 H 0.99293 0.32227 0.40557 0.0
H223 H 1.08137 0.36692 0.48687 0.0
H224 H 0.14737 0.42618 0.46182 0.0
H225 H 0.15557 0.39479 0.34537 0.0
H226 H 0.1076 0.53338 0.3782 0.0
O227 O 0.20249 0.40674 0.39863 0.0
H228 H 0.12417 0.41781 0.29675 0.0
H229 H 1.07614 0.5566 0.32968 0.0
C230 C 0.19165 0.50697 0.41905 0.0
C231 C 0.24481 0.52513 0.41664 0.0
C232 C 0.27016 0.57374 0.42887 0.0
C233 C 0.24264 0.60557 0.44347 0.0
C234 C 0.18912 0.58741 0.44568 0.0
C235 C 0.16382 0.53844 0.43354 0.0
C236 C 0.10699 0.40966 0.41962 0.0
C237 C 1.06292 0.38019 0.40413 0.0
C238 C 1.02556 0.34582 0.41829 0.0
C239 C 1.03173 0.33984 0.44825 0.0
C240 C 1.07559 0.37026 0.46377 0.0
C241 C 0.11307 0.40459 0.44952 0.0
C242 C 0.13522 0.46321 0.36526 0.0
C243 C 0.13843 0.43026 0.34211 0.0
C244 C 0.12 0.44313 0.31438 0.0
C245 C 0.09803 0.48921 0.3094 0.0
C246 C 0.09362 0.5213 0.33282 0.0
C247 C 0.1117 0.50814 0.36055 0.0
P248 P 0.6423 0.95917 0.79955 0.0
H249 H 0.64602 0.00739 0.85585 0.0
H250 H 0.62007 0.0898 0.87023 0.0
H251 H 0.53574 0.09861 0.78707 0.0
H252 H 0.56087 0.01607 0.77307 0.0
H253 H 0.70762 0.8796 0.80823 0.0
H254 H 0.6913 0.7847 0.81925 0.0
H255 H 0.52876 0.78896 0.82509 0.0
H256 H 0.54573 0.88529 0.81355 0.0
H257 H 0.70929 0.01953 0.75931 0.0
H258 H 0.56376 0.90709 0.75495 0.0
O259 O 0.70452 0.98209 0.81115 0.0
H260 H 0.70244 0.02621 0.70713 0.0
H261 H 0.55647 0.91399 0.70242 0.0
C262 C 0.60613 0.00568 0.81326 0.0
C263 C 0.62033 0.02593 0.84108 0.0
C264 C 0.60593 0.07348 0.84917 0.0
C265 C 0.57683 0.10163 0.82957 0.0
C266 C 0.55819 0.07818 0.80272 0.0
C267 C 0.57274 0.03069 0.79465 0.0
C268 C 0.62821 0.88998 0.81082 0.0
C269 C 0.66857 0.86058 0.81242 0.0
C270 C 0.65916 0.80602 0.8188 0.0
C271 C 0.60884 0.77898 0.8235 0.0
C272 C 0.56804 0.80845 0.82163 0.0
C273 C 0.57767 0.86357 0.81528 0.0
C274 C 0.63757 0.96195 0.76097 0.0
C275 C 0.67609 0.99581 0.74712 0.0
C276 C 0.67214 0.99966 0.71727 0.0
C277 C 0.6291 0.97036 0.70071 0.0
C278 C 0.59001 0.9371 0.71467 0.0
C279 C 0.59433 0.93279 0.7446 0.0
P280 P 0.52376 0.52065 0.11047 0.0
H281 H 0.59439 0.49456 0.15909 0.0
H282 H 0.68896 0.51341 0.16805 0.0
H283 H 0.698 0.63174 0.10074 0.0
H284 H 0.60251 0.61212 0.09145 0.0
H285 H 0.42545 0.50394 0.07437 0.0
H286 H 0.33903 0.51998 0.08015 0.0
H287 H 0.39714 0.60592 0.15854 0.0
H288 H 0.48557 0.58976 0.15244 0.0
H289 H 0.54679 0.42721 0.08202 0.0
H290 H 0.51506 0.58293 0.0574 0.0
O291 O 0.51087 0.46156 0.12699 0.0
H292 H 0.55321 0.40668 0.03197 0.0
H293 H 0.52251 0.56317 0.00717 0.0
C294 C 0.5902 0.55173 0.12449 0.0
C295 C 0.61608 0.52582 0.14667 0.0
C296 C 0.67075 0.53623 0.15164 0.0
C297 C 0.70174 0.57346 0.13483 0.0
C298 C 0.67573 0.60278 0.11418 0.0
C299 C 0.62074 0.5918 0.10896 0.0
C300 C 0.4636 0.54738 0.11229 0.0
C301 C 0.42082 0.5281 0.09237 0.0
C302 C 0.37049 0.53645 0.09598 0.0
C303 C 0.3603 0.56392 0.11994 0.0
C304 C 0.40326 0.58491 0.13964 0.0
C305 C 0.45416 0.57605 0.13607 0.0
C306 C 0.52934 0.50619 0.07338 0.0
C307 C 0.54108 0.457 0.06582 0.0
C308 C 0.54517 0.44545 0.03716 0.0
C309 C 0.53802 0.4831 0.01544 0.0
C310 C 0.52724 0.53284 0.02323 0.0
C311 C 0.52326 0.54435 0.05195 0.0
C312 C 0.23736 0.61768 0.13555 0.0
C313 C 0.19734 0.57247 0.13014 0.0
H314 H 0.31961 0.65065 0.13712 0.0
C315 C 0.21212 0.5246 0.12236 0.0
H316 H 0.22793 0.65528 0.14177 0.0
C317 C 0.26452 0.52214 0.11949 0.0
C318 C 0.30458 0.56726 0.12457 0.0
H319 H 0.183 0.48877 0.11808 0.0
H320 H 0.27369 0.4844 0.11332 0.0
C321 C 0.29018 0.61498 0.13306 0.0
C322 C 0.97726 0.22551 0.49645 0.0
C323 C 0.924 0.21585 0.48668 0.0
H324 H 1.05295 0.27178 0.49194 0.0
C325 C 0.90601 0.24964 0.46548 0.0
H326 H 0.99233 0.2008 0.51306 0.0
C327 C 0.94064 0.29101 0.45374 0.0
C328 C 0.99417 0.29949 0.4628 0.0
H329 H 0.86536 0.24317 0.45725 0.0
H330 H 0.92551 0.31591 0.43724 0.0
C331 C 1.01193 0.26676 0.48462 0.0
C332 C 0.63136 0.64178 0.84986 0.0
C333 C 0.58838 0.60726 0.83603 0.0
H334 H 0.67081 0.72251 0.85736 0.0
C335 C 0.55012 0.62994 0.8196 0.0
H336 H 0.66143 0.62595 0.86285 0.0
C337 C 0.55565 0.68564 0.81633 0.0
C338 C 0.59965 0.72006 0.82933 0.0
H339 H 0.51625 0.60465 0.8088 0.0
H340 H 0.52634 0.70157 0.80277 0.0
C341 C 0.63688 0.69732 0.84657 0.0
C342 C 0.84986 0.62951 0.1397 0.0
C343 C 0.87107 0.58237 0.1403 0.0
H344 H 0.78034 0.66411 0.13695 0.0
C345 C 0.836 0.53304 0.13967 0.0
H346 H 0.87538 0.66826 0.13989 0.0
C347 C 0.78188 0.53068 0.13846 0.0
C348 C 0.76033 0.57754 0.13724 0.0
H349 H 0.85042 0.49577 0.14006 0.0
H350 H 0.75665 0.49172 0.13776 0.0
C351 C 0.79525 0.62712 0.13781 0.0
C352 C 0.34768 0.71282 0.4794 0.0
C353 C 0.32582 0.75907 0.47479 0.0
H354 H 0.33829 0.62823 0.4736 0.0
C355 C 0.27488 0.75391 0.46137 0.0
H356 H 0.38635 0.71516 0.49027 0.0
C357 C 0.24717 0.70385 0.45189 0.0
C358 C 0.26989 0.65799 0.45562 0.0
H359 H 0.25705 0.78879 0.45733 0.0
H360 H 0.2087 0.70139 0.44075 0.0
C361 C 0.32011 0.66296 0.4699 0.0
C362 C 0.61454 0.24837 0.85006 0.0
C363 C 0.56934 0.26851 0.84081 0.0
H364 H 0.65214 0.18063 0.85392 0.0
C365 C 0.52479 0.23236 0.82978 0.0
H366 H 0.64954 0.27485 0.85882 0.0
C367 C 0.52632 0.17775 0.82693 0.0
C368 C 0.57217 0.15802 0.83546 0.0
H369 H 0.48933 0.24649 0.82243 0.0
H370 H 0.49188 0.15112 0.81765 0.0
C371 C 0.61588 0.194 0.84753 0.0
C372 C 0.65519 0.8096 0.5115 0.0
C373 C 0.61393 0.83164 0.52039 0.0
H374 H 0.69 0.73982 0.50987 0.0
C375 C 0.5733 0.79744 0.53278 0.0
H376 H 0.68699 0.83461 0.50176 0.0
C377 C 0.57524 0.74335 0.53754 0.0
C378 C 0.61744 0.72182 0.52968 0.0
H379 H 0.54068 0.81275 0.53975 0.0
H380 H 0.54422 0.71853 0.548 0.0
C381 C 0.65676 0.75519 0.51595 0.0
C382 C 0.94446 0.64437 0.83854 0.0
C383 C 0.89399 0.65 0.84367 0.0
H384 H 1.02374 0.68161 0.83794 0.0
C385 C 0.88357 0.7016 0.84731 0.0
H386 H 0.95342 0.60523 0.83502 0.0
C387 C 0.92395 0.74623 0.84823 0.0
C388 C 0.97547 0.73993 0.8457 0.0
H389 H 0.84492 0.70722 0.8512 0.0
H390 H 0.91523 0.78517 0.85242 0.0
C391 C 0.98473 0.68865 0.83969 0.0
C392 C 0.31287 0.89755 0.19719 0.0
C393 C 0.29791 0.84523 0.18627 0.0
H394 H 0.3758 0.95957 0.21291 0.0
C395 C 0.33698 0.81639 0.18121 0.0
H396 H 0.28381 0.92074 0.20152 0.0
C397 C 0.38954 0.8386 0.18771 0.0
C398 C 0.40451 0.89029 0.19939 0.0
H399 H 0.32697 0.77651 0.17215 0.0
H400 H 0.41854 0.81512 0.18365 0.0
C401 C 0.36561 0.91985 0.20367 0.0
C402 C 0.57728 0.19154 0.51851 0.0
C403 C 0.62079 0.16731 0.52591 0.0
H404 H 0.54715 0.26462 0.51508 0.0
C405 C 0.66838 0.20017 0.53551 0.0
H406 H 0.54002 0.16756 0.51097 0.0
C407 C 0.67243 0.25547 0.53784 0.0
C408 C 0.62905 0.2799 0.53062 0.0
H409 H 0.70281 0.18325 0.54151 0.0
H410 H 0.70954 0.27896 0.546 0.0
C411 C 0.58133 0.2472 0.52093 0.0
C412 C 0.36146 0.66916 0.83558 0.0
C413 C 0.33081 0.61733 0.83471 0.0
H414 H 0.3682 0.751 0.84857 0.0
C415 C 0.28055 0.60967 0.84376 0.0
H416 H 0.40025 0.67616 0.82846 0.0
C417 C 0.26264 0.65212 0.8553 0.0
C418 C 0.29447 0.70306 0.85783 0.0
H419 H 0.25624 0.57023 0.84356 0.0
H420 H 0.2245 0.64472 0.86327 0.0
C421 C 0.34325 0.7119 0.84694 0.0
C422 C 0.81324 0.20062 0.14436 0.0
C423 C 0.82948 0.24978 0.15878 0.0
H424 H 0.76653 0.12218 0.144 0.0
C425 C 0.80834 0.2568 0.18466 0.0
H426 H 0.82879 0.19331 0.12453 0.0
C427 C 0.77353 0.21528 0.1963 0.0
C428 C 0.75833 0.16563 0.18224 0.0
H429 H 0.81895 0.29436 0.19616 0.0
H430 H 0.75978 0.22177 0.21677 0.0
C431 C 0.77797 0.15933 0.15582 0.0
C432 C 1.03174 0.68956 0.0507 0.0
C433 C 1.04238 0.63757 0.05501 0.0
H434 H 1.04227 0.76103 0.0254 0.0
C435 C 1.07016 0.61674 0.03512 0.0
H436 H 1.0103 0.70696 0.06551 0.0
C437 C 0.0884 0.64804 0.01197 0.0
C438 C 1.07961 0.70082 0.00853 0.0
H439 H 1.07922 0.57701 0.0379 0.0
H440 H 0.11089 0.63163 -0.00268 0.0
C441 C 1.0504 0.72087 0.02785 0.0
C442 C 0.5746 0.97956 0.41292 0.0
C443 C 0.61487 0.00994 0.43091 0.0
H444 H 0.54563 0.95545 0.36999 0.0
C445 C 0.6567 0.04194 0.41844 0.0
H446 H 0.5418 0.95452 0.42181 0.0
C447 C 0.65881 0.04259 0.38873 0.0
C448 C 0.61904 0.01147 0.37077 0.0
H449 H 0.68832 0.06603 0.43163 0.0
H450 H 0.6917 0.06741 0.37983 0.0
C451 C 0.57662 0.98038 0.38319 0.0
C452 C 0.65442 0.48056 0.74731 0.0
C453 C 0.60878 0.44714 0.75497 0.0
H454 H 0.69895 0.51486 0.71343 0.0
C455 C 0.57317 0.42066 0.73321 0.0
H456 H 0.68265 0.50171 0.76349 0.0
C457 C 0.58273 0.42805 0.70439 0.0
C458 C 0.62814 0.46196 0.69674 0.0
H459 H 0.53767 0.39456 0.73837 0.0
H460 H 0.55465 0.407 0.68811 0.0
C461 C 0.66395 0.48789 0.71857 0.0
C462 C 0.6666 0.97652 0.62449 0.0
C463 C 0.62061 0.98524 0.60871 0.0
H464 H 0.70512 0.96486 0.66583 0.0
C465 C 0.57695 0.98827 0.6234 0.0
H466 H 0.70097 0.97397 0.61388 0.0
C467 C 0.5793 0.9826 0.65326 0.0
C468 C 0.62556 0.97454 0.66899 0.0
H469 H 0.54089 0.99474 0.61184 0.0
H470 H 0.54526 0.98547 0.6641 0.0
C471 C 0.66911 0.97151 0.65428 0.0
C472 C 0.51205 0.47523 0.93416 0.0
C473 C 0.55135 0.44871 0.92668 0.0
H474 H 0.47673 0.50644 0.9679 0.0
C475 C 0.58549 0.43259 0.94866 0.0
H476 H 0.48503 0.4882 0.9178 0.0
C477 C 0.58094 0.44341 0.97738 0.0
C478 C 0.54215 0.47065 0.98487 0.0
H479 H 0.61636 0.41228 0.94371 0.0
H480 H 0.60862 0.43141 0.99369 0.0
C481 C 0.50755 0.48611 0.96289 0.0
C482 C 1.04144 0.48216 0.23159 0.0
C483 C 1.05723 0.53525 0.22256 0.0
H484 H 1.04195 0.42589 0.26626 0.0
C485 C 0.08452 0.57325 0.2426 0.0
H486 H 1.02041 0.45193 0.21667 0.0
C487 C 0.09661 0.5584 0.27088 0.0
C488 C 0.08206 0.50512 0.27977 0.0
H489 H 0.09717 0.61453 0.2364 0.0
H490 H 0.11871 0.5884 0.2856 0.0
C491 C 1.05402 0.46717 0.25991 0.0
loop_
_geom_bond_atom_site_label_1
_geom_bond_atom_site_label_2
_geom_bond_distance
_geom_bond_site_symmetry_2
_ccdc_geom_bond_type
Dy0 O3 2.307 1_455 S
Dy0 O5 2.395 . S
Dy0 O6 2.379 . S
Dy0 O8 2.339 . S
Dy0 O10 2.298 . S
Dy0 O14 2.275 . S
Dy0 C22 2.738 . S
Dy1 O4 2.298 . S
Dy1 O7 2.275 1_655 S
Dy1 O9 2.307 1_655 S
Dy1 O11 2.395 . S
Dy1 O12 2.379 . S
Dy1 O15 2.339 . S
Dy1 C31 2.738 . S
C2 O14 1.254 . S
C2 O15 1.257 1_455 S
O3 Dy0 2.307 1_655 S
O3 C13 1.266 . S
O4 Dy1 2.298 . S
O4 C13 1.236 . S
O5 Dy0 2.395 . S
O5 C22 1.255 . S
O6 Dy0 2.379 . S
O6 C22 1.249 . S
O7 Dy1 2.275 1_455 S
O7 C23 1.254 . S
O8 Dy0 2.339 . S
O8 C23 1.257 . S
O9 Dy1 2.307 1_455 S
O9 C24 1.266 . S
O10 Dy0 2.298 . S
O10 C24 1.236 . S
O11 Dy1 2.395 . S
O11 C31 1.255 . S
O12 Dy1 2.379 . S
O12 C31 1.249 . S
C13 O3 1.266 . S
C13 O4 1.236 . S
O14 Dy0 2.275 . S
O14 C2 1.254 . S
O15 Dy1 2.339 . S
O15 C2 1.257 1_655 S
C16 C19 1.344 . S
C16 C20 1.328 . S
C16 C22 1.516 . S
C17 C18 1.304 . S
C17 C21 1.323 . S
C18 C17 1.304 . S
C18 C19 1.371 . S
C18 H32 0.930 . S
C19 C16 1.344 . S
C19 C18 1.371 . S
C19 H33 0.931 . S
C20 C16 1.328 . S
C20 C21 1.433 . S
C20 H34 0.931 . S
C21 C17 1.323 . S
C21 C20 1.433 . S
C21 H35 0.933 . S
C22 Dy0 2.738 . S
C22 O5 1.255 . S
C22 O6 1.249 . S
C22 C16 1.516 . S
C23 O7 1.254 . S
C23 O8 1.257 . S
C24 O9 1.266 . S
C24 O10 1.236 . S
C25 C28 1.344 . S
C25 C29 1.328 . S
C25 C31 1.516 . S
C26 C27 1.304 . S
C26 C30 1.323 . S
C27 C26 1.304 . S
C27 C28 1.371 . S
C27 H36 0.930 . S
C28 C25 1.344 . S
C28 C27 1.371 . S
C28 H37 0.931 . S
C29 C25 1.328 . S
C29 C30 1.433 . S
C29 H38 0.931 . S
C30 C26 1.323 . S
C30 C29 1.433 . S
C30 H39 0.933 . S
C31 Dy1 2.738 . S
C31 O11 1.255 . S
C31 O12 1.249 . S
C31 C25 1.516 . S
H32 C18 0.930 . S
H33 C19 0.931 . S
H34 C20 0.931 . S
H35 C21 0.933 . S
H36 C27 0.930 . S
H37 C28 0.931 . S
H38 C29 0.931 . S
H39 C30 0.933 . S
Dy40 O43 2.307 1_565 S
Dy40 O45 2.395 . S
Dy40 O46 2.379 . S
Dy40 O48 2.339 1_565 S
Dy40 O50 2.298 . S
Dy40 O54 2.275 1_565 S
Dy40 C62 2.738 . S
Dy41 O44 2.298 . S
Dy41 O47 2.275 . S
Dy41 O49 2.307 1_545 S
Dy41 O51 2.395 . S
Dy41 O52 2.379 . S
Dy41 O55 2.339 . S
Dy41 C71 2.738 . S
C42 O54 1.254 . S
C42 O55 1.257 . S
O43 Dy40 2.307 1_545 S
O43 C53 1.266 . S
O44 Dy41 2.298 . S
O44 C53 1.236 . S
O45 Dy40 2.395 . S
O45 C62 1.255 . S
O46 Dy40 2.379 . S
O46 C62 1.249 . S
O47 Dy41 2.275 . S
O47 C63 1.254 . S
O48 Dy40 2.339 1_545 S
O48 C63 1.257 . S
O49 Dy41 2.307 1_565 S
O49 C64 1.266 . S
O50 Dy40 2.298 . S
O50 C64 1.236 . S
O51 Dy41 2.395 . S
O51 C71 1.255 . S
O52 Dy41 2.379 . S
O52 C71 1.249 . S
C53 O43 1.266 . S
C53 O44 1.236 . S
O54 Dy40 2.275 1_545 S
O54 C42 1.254 . S
O55 Dy41 2.339 . S
O55 C42 1.257 . S
C56 C59 1.344 . S
C56 C60 1.328 . S
C56 C62 1.516 . S
C57 C58 1.304 . S
C57 C61 1.323 . S
C58 C57 1.304 . S
C58 C59 1.371 . S
C58 H72 0.930 . S
C59 C56 1.344 . S
C59 C58 1.371 . S
C59 H73 0.931 . S
C60 C56 1.328 . S
C60 C61 1.433 . S
C60 H74 0.931 . S
C61 C57 1.323 . S
C61 C60 1.433 . S
C61 H75 0.933 . S
C62 Dy40 2.738 . S
C62 O45 1.255 . S
C62 O46 1.249 . S
C62 C56 1.516 . S
C63 O47 1.254 . S
C63 O48 1.257 . S
C64 O49 1.266 . S
C64 O50 1.236 . S
C65 C68 1.344 . S
C65 C69 1.328 . S
C65 C71 1.516 . S
C66 C67 1.304 . S
C66 C70 1.323 . S
C67 C66 1.304 . S
C67 C68 1.371 . S
C67 H76 0.930 . S
C68 C65 1.344 . S
C68 C67 1.371 . S
C68 H77 0.931 . S
C69 C65 1.328 . S
C69 C70 1.433 . S
C69 H78 0.931 . S
C70 C66 1.323 . S
C70 C69 1.433 . S
C70 H79 0.933 . S
C71 Dy41 2.738 . S
C71 O51 1.255 . S
C71 O52 1.249 . S
C71 C65 1.516 . S
H72 C58 0.930 . S
H73 C59 0.931 . S
H74 C60 0.931 . S
H75 C61 0.933 . S
H76 C67 0.930 . S
H77 C68 0.931 . S
H78 C69 0.931 . S
H79 C70 0.933 . S
Dy80 O83 2.307 . S
Dy80 O85 2.395 . S
Dy80 O86 2.379 . S
Dy80 O88 2.339 . S
Dy80 O90 2.298 . S
Dy80 O94 2.275 . S
Dy80 C102 2.738 . S
Dy81 O84 2.298 . S
Dy81 O87 2.275 . S
Dy81 O89 2.307 . S
Dy81 O91 2.395 . S
Dy81 O92 2.379 . S
Dy81 O95 2.339 . S
Dy81 C111 2.738 . S
C82 O94 1.254 . S
C82 O95 1.257 . S
O83 Dy80 2.307 . S
O83 C93 1.266 . S
O84 Dy81 2.298 . S
O84 C93 1.236 . S
O85 Dy80 2.395 . S
O85 C102 1.255 . S
O86 Dy80 2.379 . S
O86 C102 1.249 . S
O87 Dy81 2.275 . S
O87 C103 1.254 . S
O88 Dy80 2.339 . S
O88 C103 1.257 . S
O89 Dy81 2.307 . S
O89 C104 1.266 . S
O90 Dy80 2.298 . S
O90 C104 1.236 . S
O91 Dy81 2.395 . S
O91 C111 1.255 . S
O92 Dy81 2.379 . S
O92 C111 1.249 . S
C93 O83 1.266 . S
C93 O84 1.236 . S
O94 Dy80 2.275 . S
O94 C82 1.254 . S
O95 Dy81 2.339 . S
O95 C82 1.257 . S
C96 C99 1.344 . S
C96 C100 1.328 . S
C96 C102 1.516 . S
C97 C98 1.304 . S
C97 C101 1.323 . S
C98 C97 1.304 . S
C98 C99 1.371 . S
C98 H112 0.930 . S
C99 C96 1.344 . S
C99 C98 1.371 . S
C99 H113 0.931 . S
C100 C96 1.328 . S
C100 C101 1.433 . S
C100 H114 0.931 . S
C101 C97 1.323 . S
C101 C100 1.433 . S
C101 H115 0.933 . S
C102 Dy80 2.738 . S
C102 O85 1.255 . S
C102 O86 1.249 . S
C102 C96 1.516 . S
C103 O87 1.254 . S
C103 O88 1.257 . S
C104 O89 1.266 . S
C104 O90 1.236 . S
C105 C108 1.344 . S
C105 C109 1.328 . S
C105 C111 1.516 . S
C106 C107 1.304 . S
C106 C110 1.323 . S
C107 C106 1.304 . S
C107 C108 1.371 . S
C107 H116 0.930 . S
C108 C105 1.344 . S
C108 C107 1.371 . S
C108 H117 0.931 . S
C109 C105 1.328 . S
C109 C110 1.433 . S
C109 H118 0.931 . S
C110 C106 1.323 . S
C110 C109 1.433 . S
C110 H119 0.933 . S
C111 Dy81 2.738 . S
C111 O91 1.255 . S
C111 O92 1.249 . S
C111 C105 1.516 . S
H112 C98 0.930 . S
H113 C99 0.931 . S
H114 C100 0.931 . S
H115 C101 0.933 . S
H116 C107 0.930 . S
H117 C108 0.931 . S
H118 C109 0.931 . S
H119 C110 0.933 . S
P120 O131 1.490 . S
P120 C134 1.812 . S
P120 C140 1.803 1_565 S
P120 C146 1.819 1_565 S
H121 C135 0.941 . S
H122 C136 0.939 . S
H123 C138 0.940 . S
H124 C139 0.940 1_545 S
H125 C141 0.939 . S
H126 C142 0.942 . S
H127 C144 0.940 . S
H128 C145 0.939 . S
H129 C147 0.941 . S
H130 C151 0.939 . S
O131 P120 1.490 . S
H132 C148 0.939 . S
H133 C150 0.940 . S
C134 P120 1.812 . S
C134 C135 1.389 . S
C134 C139 1.391 . S
C135 H121 0.941 . S
C135 C134 1.389 . S
C135 C136 1.397 . S
C136 H122 0.939 . S
C136 C135 1.397 . S
C136 C137 1.378 . S
C137 C136 1.378 . S
C137 C138 1.378 . S
C138 H123 0.940 . S
C138 C137 1.378 . S
C138 C139 1.396 . S
C139 H124 0.940 1_565 S
C139 C134 1.391 . S
C139 C138 1.396 . S
C140 P120 1.803 1_545 S
C140 C141 1.378 . S
C140 C145 1.400 . S
C141 H125 0.939 . S
C141 C140 1.378 . S
C141 C142 1.361 . S
C142 H126 0.942 . S
C142 C141 1.361 . S
C142 C143 1.369 . S
C143 C142 1.369 . S
C143 C144 1.404 . S
C144 H127 0.940 . S
C144 C143 1.404 . S
C144 C145 1.389 . S
C145 H128 0.939 . S
C145 C140 1.400 . S
C145 C144 1.389 . S
C146 P120 1.819 1_545 S
C146 C147 1.391 1_545 S
C146 C151 1.391 . S
C147 H129 0.941 . S
C147 C146 1.391 1_565 S
C147 C148 1.396 . S
C148 H132 0.939 . S
C148 C147 1.396 . S
C148 C149 1.397 1_565 S
C149 C148 1.397 1_545 S
C149 C150 1.385 . S
C150 H133 0.940 . S
C150 C149 1.385 . S
C150 C151 1.388 . S
C151 H130 0.939 . S
C151 C146 1.391 . S
C151 C150 1.388 . S
P152 O163 1.490 . S
P152 C166 1.812 . S
P152 C172 1.803 . S
P152 C178 1.819 . S
H153 C167 0.941 . S
H154 C168 0.939 . S
H155 C170 0.940 . S
H156 C171 0.940 . S
H157 C173 0.939 . S
H158 C174 0.942 . S
H159 C176 0.940 . S
H160 C177 0.939 . S
H161 C179 0.941 . S
H162 C183 0.939 . S
O163 P152 1.490 . S
H164 C180 0.939 . S
H165 C182 0.940 . S
C166 P152 1.812 . S
C166 C167 1.389 . S
C166 C171 1.391 . S
C167 H153 0.941 . S
C167 C166 1.389 . S
C167 C168 1.397 . S
C168 H154 0.939 . S
C168 C167 1.397 . S
C168 C169 1.378 . S
C169 C168 1.378 . S
C169 C170 1.378 . S
C170 H155 0.940 . S
C170 C169 1.378 . S
C170 C171 1.396 . S
C171 H156 0.940 . S
C171 C166 1.391 . S
C171 C170 1.396 . S
C172 P152 1.803 . S
C172 C173 1.378 . S
C172 C177 1.400 . S
C173 H157 0.939 . S
C173 C172 1.378 . S
C173 C174 1.361 . S
C174 H158 0.942 . S
C174 C173 1.361 . S
C174 C175 1.369 . S
C175 C174 1.369 . S
C175 C176 1.404 . S
C176 H159 0.940 . S
C176 C175 1.404 . S
C176 C177 1.389 . S
C177 H160 0.939 . S
C177 C172 1.400 . S
C177 C176 1.389 . S
C178 P152 1.819 . S
C178 C179 1.391 . S
C178 C183 1.391 . S
C179 H161 0.941 . S
C179 C178 1.391 . S
C179 C180 1.396 . S
C180 H164 0.939 . S
C180 C179 1.396 . S
C180 C181 1.397 . S
C181 C180 1.397 . S
C181 C182 1.385 . S
C182 H165 0.940 . S
C182 C181 1.385 . S
C182 C183 1.388 . S
C183 H162 0.939 . S
C183 C178 1.391 . S
C183 C182 1.388 . S
P184 O195 1.490 . S
P184 C198 1.812 . S
P184 C204 1.803 1_455 S
P184 C210 1.819 . S
H185 C199 0.941 . S
H186 C200 0.939 . S
H187 C202 0.940 . S
H188 C203 0.940 . S
H189 C205 0.939 . S
H190 C206 0.942 . S
H191 C208 0.940 . S
H192 C209 0.939 . S
H193 C211 0.941 . S
H194 C215 0.939 . S
O195 P184 1.490 . S
H196 C212 0.939 1_554 S
H197 C214 0.940 . S
C198 P184 1.812 . S
C198 C199 1.389 . S
C198 C203 1.391 . S
C199 H185 0.941 . S
C199 C198 1.389 . S
C199 C200 1.397 . S
C200 H186 0.939 . S
C200 C199 1.397 . S
C200 C201 1.378 . S
C201 C200 1.378 . S
C201 C202 1.378 . S
C202 H187 0.940 . S
C202 C201 1.378 . S
C202 C203 1.396 . S
C203 H188 0.940 . S
C203 C198 1.391 . S
C203 C202 1.396 . S
C204 P184 1.803 1_655 S
C204 C205 1.378 . S
C204 C209 1.400 . S
C205 H189 0.939 . S
C205 C204 1.378 . S
C205 C206 1.361 . S
C206 H190 0.942 . S
C206 C205 1.361 . S
C206 C207 1.369 . S
C207 C206 1.369 . S
C207 C208 1.404 . S
C208 H191 0.940 . S
C208 C207 1.404 . S
C208 C209 1.389 . S
C209 H192 0.939 . S
C209 C204 1.400 . S
C209 C208 1.389 . S
C210 P184 1.819 . S
C210 C211 1.391 . S
C210 C215 1.391 1_455 S
C211 H193 0.941 . S
C211 C210 1.391 . S
C211 C212 1.396 . S
C212 H196 0.939 1_556 S
C212 C211 1.396 . S
C212 C213 1.397 1_556 S
C213 C212 1.397 1_554 S
C213 C214 1.385 1_454 S
C214 H197 0.940 . S
C214 C213 1.385 1_656 S
C214 C215 1.388 . S
C215 H194 0.939 . S
C215 C210 1.391 1_655 S
C215 C214 1.388 . S
P216 O227 1.490 . S
P216 C230 1.812 . S
P216 C236 1.803 1_455 S
P216 C242 1.819 . S
H217 C231 0.941 . S
H218 C232 0.939 . S
H219 C234 0.940 . S
H220 C235 0.940 . S
H221 C237 0.939 . S
H222 C238 0.942 . S
H223 C240 0.940 . S
H224 C241 0.939 . S
H225 C243 0.941 . S
H226 C247 0.939 . S
O227 P216 1.490 . S
H228 C244 0.939 . S
H229 C246 0.940 . S
C230 P216 1.812 . S
C230 C231 1.389 . S
C230 C235 1.391 . S
C231 H217 0.941 . S
C231 C230 1.389 . S
C231 C232 1.397 . S
C232 H218 0.939 . S
C232 C231 1.397 . S
C232 C233 1.378 . S
C233 C232 1.378 . S
C233 C234 1.378 . S
C234 H219 0.940 . S
C234 C233 1.378 . S
C234 C235 1.396 . S
C235 H220 0.940 . S
C235 C230 1.391 . S
C235 C234 1.396 . S
C236 P216 1.803 1_655 S
C236 C237 1.378 . S
C236 C241 1.400 . S
C237 H221 0.939 . S
C237 C236 1.378 . S
C237 C238 1.361 . S
C238 H222 0.942 . S
C238 C237 1.361 . S
C238 C239 1.369 . S
C239 C238 1.369 . S
C239 C240 1.404 . S
C240 H223 0.940 . S
C240 C239 1.404 . S
C240 C241 1.389 . S
C241 H224 0.939 . S
C241 C236 1.400 . S
C241 C240 1.389 . S
C242 P216 1.819 . S
C242 C243 1.391 . S
C242 C247 1.391 1_455 S
C243 H225 0.941 . S
C243 C242 1.391 . S
C243 C244 1.396 . S
C244 H228 0.939 . S
C244 C243 1.396 . S
C244 C245 1.413 . S
C245 C244 1.413 . S
C245 C246 1.373 1_455 S
C246 H229 0.940 . S
C246 C245 1.373 1_655 S
C246 C247 1.388 . S
C247 H226 0.939 . S
C247 C242 1.391 1_655 S
C247 C246 1.388 . S
P248 O259 1.490 . S
P248 C262 1.812 . S
P248 C268 1.803 1_545 S
P248 C274 1.819 . S
H249 C263 0.941 . S
H250 C264 0.939 . S
H251 C266 0.940 . S
H252 C267 0.940 . S
H253 C269 0.939 . S
H254 C270 0.942 . S
H255 C272 0.940 . S
H256 C273 0.939 . S
H257 C275 0.941 . S
H258 C279 0.939 . S
O259 P248 1.490 . S
H260 C276 0.939 . S
H261 C278 0.940 . S
C262 P248 1.812 . S
C262 C263 1.389 . S
C262 C267 1.391 . S
C263 H249 0.941 . S
C263 C262 1.389 . S
C263 C264 1.397 . S
C264 H250 0.939 . S
C264 C263 1.397 . S
C264 C265 1.378 . S
C265 C264 1.378 . S
C265 C266 1.378 . S
C266 H251 0.940 . S
C266 C265 1.378 . S
C266 C267 1.396 . S
C267 H252 0.940 . S
C267 C262 1.391 . S
C267 C266 1.396 . S
C268 P248 1.803 1_565 S
C268 C269 1.378 . S
C268 C273 1.400 . S
C269 H253 0.939 . S
C269 C268 1.378 . S
C269 C270 1.361 . S
C270 H254 0.942 . S
C270 C269 1.361 . S
C270 C271 1.369 . S
C271 C270 1.369 . S
C271 C272 1.404 . S
C272 H255 0.940 . S
C272 C271 1.404 . S
C272 C273 1.389 . S
C273 H256 0.939 . S
C273 C268 1.400 . S
C273 C272 1.389 . S
C274 P248 1.819 . S
C274 C275 1.391 . S
C274 C279 1.391 1_545 S
C275 H257 0.941 . S
C275 C274 1.391 . S
C275 C276 1.396 . S
C276 H260 0.939 . S
C276 C275 1.396 . S
C276 C277 1.397 . S
C277 C276 1.397 . S
C277 C278 1.385 1_545 S
C278 H261 0.940 . S
C278 C277 1.385 1_565 S
C278 C279 1.388 . S
C279 H258 0.939 . S
C279 C274 1.391 1_565 S
C279 C278 1.388 . S
P280 O291 1.490 . S
P280 C294 1.812 . S
P280 C300 1.803 . S
P280 C306 1.819 . S
H281 C295 0.941 . S
H282 C296 0.939 . S
H283 C298 0.940 . S
H284 C299 0.940 . S
H285 C301 0.939 . S
H286 C302 0.942 . S
H287 C304 0.940 . S
H288 C305 0.939 . S
H289 C307 0.941 . S
H290 C311 0.939 . S
O291 P280 1.490 . S
H292 C308 0.939 . S
H293 C310 0.940 . S
C294 P280 1.812 . S
C294 C295 1.389 . S
C294 C299 1.391 . S
C295 H281 0.941 . S
C295 C294 1.389 . S
C295 C296 1.397 . S
C296 H282 0.939 . S
C296 C295 1.397 . S
C296 C297 1.378 . S
C297 C296 1.378 . S
C297 C298 1.378 . S
C298 H283 0.940 . S
C298 C297 1.378 . S
C298 C299 1.396 . S
C299 H284 0.940 . S
C299 C294 1.391 . S
C299 C298 1.396 . S
C300 P280 1.803 . S
C300 C301 1.378 . S
C300 C305 1.400 . S
C301 H285 0.939 . S
C301 C300 1.378 . S
C301 C302 1.361 . S
C302 H286 0.942 . S
C302 C301 1.361 . S
C302 C303 1.369 . S
C303 C302 1.369 . S
C303 C304 1.404 . S
C304 H287 0.940 . S
C304 C303 1.404 . S
C304 C305 1.389 . S
C305 H288 0.939 . S
C305 C300 1.400 . S
C305 C304 1.389 . S
C306 P280 1.819 . S
C306 C307 1.391 . S
C306 C311 1.391 . S
C307 H289 0.941 . S
C307 C306 1.391 . S
C307 C308 1.396 . S
C308 H292 0.939 . S
C308 C307 1.396 . S
C308 C309 1.397 . S
C309 C308 1.397 . S
C309 C310 1.385 . S
C310 H293 0.940 . S
C310 C309 1.385 . S
C310 C311 1.388 . S
C311 H290 0.939 . S
C311 C306 1.391 . S
C311 C310 1.388 . S
C312 C313 1.387 . S
C312 H316 0.950 . S
C312 C321 1.390 . S
C313 C312 1.387 . S
C313 C315 1.387 . S
H314 C321 0.950 . S
C315 C313 1.387 . S
C315 C317 1.390 . S
C315 H319 0.950 . S
H316 C312 0.950 . S
C317 C315 1.390 . S
C317 C318 1.387 . S
C317 H320 0.950 . S
C318 C317 1.387 . S
C318 C321 1.387 . S
H319 C315 0.950 . S
H320 C317 0.950 . S
C321 C312 1.390 . S
C321 H314 0.950 . S
C321 C318 1.387 . S
C322 C323 1.387 . S
C322 H326 0.950 . S
C322 C331 1.390 . S
C323 C322 1.387 . S
C323 C325 1.387 . S
H324 C331 0.950 . S
C325 C323 1.387 . S
C325 C327 1.390 . S
C325 H329 0.950 . S
H326 C322 0.950 . S
C327 C325 1.390 . S
C327 C328 1.387 . S
C327 H330 0.950 . S
C328 C327 1.387 . S
C328 C331 1.387 . S
H329 C325 0.950 . S
H330 C327 0.950 . S
C331 C322 1.390 . S
C331 H324 0.950 . S
C331 C328 1.387 . S
C332 C333 1.387 . S
C332 H336 0.950 . S
C332 C341 1.390 . S
C333 C332 1.387 . S
C333 C335 1.387 . S
H334 C341 0.950 . S
C335 C333 1.387 . S
C335 C337 1.390 . S
C335 H339 0.950 . S
H336 C332 0.950 . S
C337 C335 1.390 . S
C337 C338 1.387 . S
C337 H340 0.950 . S
C338 C337 1.387 . S
C338 C341 1.387 . S
H339 C335 0.950 . S
H340 C337 0.950 . S
C341 C332 1.390 . S
C341 H334 0.950 . S
C341 C338 1.387 . S
C342 C343 1.387 . S
C342 H346 0.950 . S
C342 C351 1.390 . S
C343 C342 1.387 . S
C343 C345 1.387 . S
H344 C351 0.950 . S
C345 C343 1.387 . S
C345 C347 1.390 . S
C345 H349 0.950 . S
H346 C342 0.950 . S
C347 C345 1.390 . S
C347 C348 1.387 . S
C347 H350 0.950 . S
C348 C347 1.387 . S
C348 C351 1.387 . S
H349 C345 0.950 . S
H350 C347 0.950 . S
C351 C342 1.390 . S
C351 H344 0.950 . S
C351 C348 1.387 . S
C352 C353 1.387 . S
C352 H356 0.950 . S
C352 C361 1.390 . S
C353 C352 1.387 . S
C353 C355 1.387 . S
H354 C361 0.950 . S
C355 C353 1.387 . S
C355 C357 1.390 . S
C355 H359 0.950 . S
H356 C352 0.950 . S
C357 C355 1.390 . S
C357 C358 1.387 . S
C357 H360 0.950 . S
C358 C357 1.387 . S
C358 C361 1.387 . S
H359 C355 0.950 . S
H360 C357 0.950 . S
C361 C352 1.390 . S
C361 H354 0.950 . S
C361 C358 1.387 . S
C362 C363 1.387 . S
C362 H366 0.950 . S
C362 C371 1.390 . S
C363 C362 1.387 . S
C363 C365 1.387 . S
H364 C371 0.950 . S
C365 C363 1.387 . S
C365 C367 1.390 . S
C365 H369 0.950 . S
H366 C362 0.950 . S
C367 C365 1.390 . S
C367 C368 1.387 . S
C367 H370 0.950 . S
C368 C367 1.387 . S
C368 C371 1.387 . S
H369 C365 0.950 . S
H370 C367 0.950 . S
C371 C362 1.390 . S
C371 H364 0.950 . S
C371 C368 1.387 . S
C372 C373 1.387 . S
C372 H376 0.950 . S
C372 C381 1.390 . S
C373 C372 1.387 . S
C373 C375 1.387 . S
H374 C381 0.950 . S
C375 C373 1.387 . S
C375 C377 1.390 . S
C375 H379 0.950 . S
H376 C372 0.950 . S
C377 C375 1.390 . S
C377 C378 1.387 . S
C377 H380 0.950 . S
C378 C377 1.387 . S
C378 C381 1.387 . S
H379 C375 0.950 . S
H380 C377 0.950 . S
C381 C372 1.390 . S
C381 H374 0.950 . S
C381 C378 1.387 . S
C382 C383 1.387 . S
C382 H386 0.950 . S
C382 C391 1.390 . S
C383 C382 1.387 . S
C383 C385 1.387 . S
H384 C391 0.950 . S
C385 C383 1.387 . S
C385 C387 1.390 . S
C385 H389 0.950 . S
H386 C382 0.950 . S
C387 C385 1.390 . S
C387 C388 1.387 . S
C387 H390 0.950 . S
C388 C387 1.387 . S
C388 C391 1.387 . S
H389 C385 0.950 . S
H390 C387 0.950 . S
C391 C382 1.390 . S
C391 H384 0.950 . S
C391 C388 1.387 . S
C392 C393 1.387 . S
C392 H396 0.950 . S
C392 C401 1.390 . S
C393 C392 1.387 . S
C393 C395 1.387 . S
H394 C401 0.950 . S
C395 C393 1.387 . S
C395 C397 1.390 . S
C395 H399 0.950 . S
H396 C392 0.950 . S
C397 C395 1.390 . S
C397 C398 1.387 . S
C397 H400 0.950 . S
C398 C397 1.387 . S
C398 C401 1.387 . S
H399 C395 0.950 . S
H400 C397 0.950 . S
C401 C392 1.390 . S
C401 H394 0.950 . S
C401 C398 1.387 . S
C402 C403 1.387 . S
C402 H406 0.950 . S
C402 C411 1.390 . S
C403 C402 1.387 . S
C403 C405 1.387 . S
H404 C411 0.950 . S
C405 C403 1.387 . S
C405 C407 1.390 . S
C405 H409 0.950 . S
H406 C402 0.950 . S
C407 C405 1.390 . S
C407 C408 1.387 . S
C407 H410 0.950 . S
C408 C407 1.387 . S
C408 C411 1.387 . S
H409 C405 0.950 . S
H410 C407 0.950 . S
C411 C402 1.390 . S
C411 H404 0.950 . S
C411 C408 1.387 . S
C412 C413 1.387 . S
C412 H416 0.950 . S
C412 C421 1.390 . S
C413 C412 1.387 . S
C413 C415 1.387 . S
H414 C421 0.950 . S
C415 C413 1.387 . S
C415 C417 1.390 . S
C415 H419 0.950 . S
H416 C412 0.950 . S
C417 C415 1.390 . S
C417 C418 1.387 . S
C417 H420 0.950 . S
C418 C417 1.387 . S
C418 C421 1.387 . S
H419 C415 0.950 . S
H420 C417 0.950 . S
C421 C412 1.390 . S
C421 H414 0.950 . S
C421 C418 1.387 . S
C422 C423 1.387 . S
C422 H426 0.950 . S
C422 C431 1.390 . S
C423 C422 1.387 . S
C423 C425 1.387 . S
H424 C431 0.950 . S
C425 C423 1.387 . S
C425 C427 1.390 . S
C425 H429 0.950 . S
H426 C422 0.950 . S
C427 C425 1.390 . S
C427 C428 1.387 . S
C427 H430 0.950 . S
C428 C427 1.387 . S
C428 C431 1.387 . S
H429 C425 0.950 . S
H430 C427 0.950 . S
C431 C422 1.390 . S
C431 H424 0.950 . S
C431 C428 1.387 . S
C432 C433 1.387 . S
C432 H436 0.950 . S
C432 C441 1.390 . S
C433 C432 1.387 . S
C433 C435 1.387 . S
H434 C441 0.950 . S
C435 C433 1.387 . S
C435 C437 1.390 . S
C435 H439 0.950 1_455 S
H436 C432 0.950 . S
C437 C435 1.390 . S
C437 C438 1.387 . S
C437 H440 0.950 . S
C438 C437 1.387 . S
C438 C441 1.387 . S
H439 C435 0.950 1_655 S
H440 C437 0.950 . S
C441 C432 1.390 . S
C441 H434 0.950 . S
C441 C438 1.387 . S
C442 C443 1.387 . S
C442 H446 0.950 . S
C442 C451 1.390 . S
C443 C442 1.387 . S
C443 C445 1.387 . S
H444 C451 0.950 . S
C445 C443 1.387 . S
C445 C447 1.390 . S
C445 H449 0.950 1_545 S
H446 C442 0.950 . S
C447 C445 1.390 . S
C447 C448 1.387 . S
C447 H450 0.950 1_545 S
C448 C447 1.387 . S
C448 C451 1.387 . S
H449 C445 0.950 1_565 S
H450 C447 0.950 1_565 S
C451 C442 1.390 . S
C451 H444 0.950 . S
C451 C448 1.387 . S
C452 C453 1.387 . S
C452 H456 0.950 . S
C452 C461 1.390 . S
C453 C452 1.387 . S
C453 C455 1.387 . S
H454 C461 0.950 . S
C455 C453 1.387 . S
C455 C457 1.390 . S
C455 H459 0.950 . S
H456 C452 0.950 . S
C457 C455 1.390 . S
C457 C458 1.387 . S
C457 H460 0.950 . S
C458 C457 1.387 . S
C458 C461 1.387 . S
H459 C455 0.950 . S
H460 C457 0.950 . S
C461 C452 1.390 . S
C461 H454 0.950 . S
C461 C458 1.387 . S
C462 C463 1.387 . S
C462 H466 0.950 . S
C462 C471 1.390 . S
C463 C462 1.387 . S
C463 C465 1.387 1_545 S
H464 C471 0.950 . S
C465 C463 1.387 1_565 S
C465 C467 1.390 . S
C465 H469 0.950 . S
H466 C462 0.950 . S
C467 C465 1.390 . S
C467 C468 1.387 1_565 S
C467 H470 0.950 . S
C468 C467 1.387 1_545 S
C468 C471 1.387 . S
H469 C465 0.950 . S
H470 C467 0.950 . S
C471 C462 1.390 . S
C471 H464 0.950 . S
C471 C468 1.387 . S
C472 C473 1.387 . S
C472 H476 0.950 . S
C472 C481 1.390 . S
C473 C472 1.387 . S
C473 C475 1.387 . S
H474 C481 0.950 . S
C475 C473 1.387 . S
C475 C477 1.390 . S
C475 H479 0.950 . S
H476 C472 0.950 . S
C477 C475 1.390 . S
C477 C478 1.387 . S
C477 H480 0.950 . S
C478 C477 1.387 . S
C478 C481 1.387 . S
H479 C475 0.950 . S
H480 C477 0.950 . S
C481 C472 1.390 . S
C481 H474 0.950 . S
C481 C478 1.387 . S
C482 C483 1.387 . S
C482 H486 0.950 . S
C482 C491 1.390 . S
C483 C482 1.387 . S
C483 C485 1.387 1_455 S
H484 C491 0.950 . S
C485 C483 1.387 1_655 S
C485 C487 1.390 . S
C485 H489 0.950 . S
H486 C482 0.950 . S
C487 C485 1.390 . S
C487 C488 1.387 . S
C487 H490 0.950 . S
C488 C487 1.387 . S
C488 C491 1.387 1_655 S
H489 C485 0.950 . S
H490 C487 0.950 . S
C491 C482 1.390 . S
C491 H484 0.950 . S
C491 C488 1.387 1_455 S
C313 C24 3.011 . S
C318 C303 2.925 . S
C323 C66 1.283 . S
C328 C239 1.320 . S
C333 C93 1.930 . S
C338 C271 1.857 . S
C343 C13 3.143 . S
C348 C297 3.085 . S
C358 C233 1.349 . S
C353 C57 1.350 . S
C368 C265 1.923 . S
C363 C104 2.004 . S
C373 C64 1.998 . S
C378 C175 1.925 . S
C383 C97 0.904 . S
C388 C207 0.986 . S
C393 C17 1.431 . S
C398 C137 1.506 . S
C408 C169 1.861 . S
C403 C53 1.918 . S
C418 C201 0.637 . S
C413 C106 0.690 . S
C423 C26 1.324 . S
C428 C143 1.346 . S
C438 C213 1.041 . S
C433 C2 1.045 . S
C443 C63 1.443 . S
C448 C149 1.451 . S
C453 C82 1.363 . S
C458 C181 1.365 . S
C468 C277 1.348 . S
C463 C42 1.379 . S
C478 C309 1.766 1_556 S
C473 C103 1.750 . S
C483 C23 1.470 . S
C488 C245 1.458 1_655 S
