# Generated by pormake.
# Topology ctn, (3,4)-cn, num edge types: 1
# Building blocks:
#     Node 0, Type 0, BuildingBlock: PAMTOO_clean_linker_0, # of connection points: 3
#     Node 1, Type 0, BuildingBlock: PAMTOO_clean_linker_0, # of connection points: 3
#     Node 2, Type 0, BuildingBlock: PAMTOO_clean_linker_0, # of connection points: 3
#     Node 3, Type 0, BuildingBlock: PAMTOO_clean_linker_0, # of connection points: 3
#     Node 4, Type 0, BuildingBlock: PAMTOO_clean_linker_0, # of connection points: 3
#     Node 5, Type 0, BuildingBlock: PAMTOO_clean_linker_0, # of connection points: 3
#     Node 6, Type 0, BuildingBlock: PAMTOO_clean_linker_0, # of connection points: 3
#     Node 7, Type 0, BuildingBlock: PAMTOO_clean_linker_0, # of connection points: 3
#     Node 8, Type 0, BuildingBlock: PAMTOO_clean_linker_0, # of connection points: 3
#     Node 9, Type 0, BuildingBlock: PAMTOO_clean_linker_0, # of connection points: 3
#     Node 10, Type 0, BuildingBlock: PAMTOO_clean_linker_0, # of connection points: 3
#     Node 11, Type 0, BuildingBlock: PAMTOO_clean_linker_0, # of connection points: 3
#     Node 12, Type 0, BuildingBlock: PAMTOO_clean_linker_0, # of connection points: 3
#     Node 13, Type 0, BuildingBlock: PAMTOO_clean_linker_0, # of connection points: 3
#     Node 14, Type 0, BuildingBlock: PAMTOO_clean_linker_0, # of connection points: 3
#     Node 15, Type 0, BuildingBlock: PAMTOO_clean_linker_0, # of connection points: 3
#     Node 16, Type 1, BuildingBlock: KUFVIS_clean_sbu_0, # of connection points: 4
#     Node 17, Type 1, BuildingBlock: KUFVIS_clean_sbu_0, # of connection points: 4
#     Node 18, Type 1, BuildingBlock: KUFVIS_clean_sbu_0, # of connection points: 4
#     Node 19, Type 1, BuildingBlock: KUFVIS_clean_sbu_0, # of connection points: 4
#     Node 20, Type 1, BuildingBlock: KUFVIS_clean_sbu_0, # of connection points: 4
#     Node 21, Type 1, BuildingBlock: KUFVIS_clean_sbu_0, # of connection points: 4
#     Node 22, Type 1, BuildingBlock: KUFVIS_clean_sbu_0, # of connection points: 4
#     Node 23, Type 1, BuildingBlock: KUFVIS_clean_sbu_0, # of connection points: 4
#     Node 24, Type 1, BuildingBlock: KUFVIS_clean_sbu_0, # of connection points: 4
#     Node 25, Type 1, BuildingBlock: KUFVIS_clean_sbu_0, # of connection points: 4
#     Node 26, Type 1, BuildingBlock: KUFVIS_clean_sbu_0, # of connection points: 4
#     Node 27, Type 1, BuildingBlock: KUFVIS_clean_sbu_0, # of connection points: 4
#     Edge 28, Type (0, 1), BuildingBlock: EZIPEK_clean_linker_0, # of connection points: 2
#     Edge 29, Type (0, 1), BuildingBlock: EZIPEK_clean_linker_0, # of connection points: 2
#     Edge 30, Type (0, 1), BuildingBlock: EZIPEK_clean_linker_0, # of connection points: 2
#     Edge 31, Type (0, 1), BuildingBlock: EZIPEK_clean_linker_0, # of connection points: 2
#     Edge 32, Type (0, 1), BuildingBlock: EZIPEK_clean_linker_0, # of connection points: 2
#     Edge 33, Type (0, 1), BuildingBlock: EZIPEK_clean_linker_0, # of connection points: 2
#     Edge 34, Type (0, 1), BuildingBlock: EZIPEK_clean_linker_0, # of connection points: 2
#     Edge 35, Type (0, 1), BuildingBlock: EZIPEK_clean_linker_0, # of connection points: 2
#     Edge 36, Type (0, 1), BuildingBlock: EZIPEK_clean_linker_0, # of connection points: 2
#     Edge 37, Type (0, 1), BuildingBlock: EZIPEK_clean_linker_0, # of connection points: 2
#     Edge 38, Type (0, 1), BuildingBlock: EZIPEK_clean_linker_0, # of connection points: 2
#     Edge 39, Type (0, 1), BuildingBlock: EZIPEK_clean_linker_0, # of connection points: 2
#     Edge 40, Type (0, 1), BuildingBlock: EZIPEK_clean_linker_0, # of connection points: 2
#     Edge 41, Type (0, 1), BuildingBlock: EZIPEK_clean_linker_0, # of connection points: 2
#     Edge 42, Type (0, 1), BuildingBlock: EZIPEK_clean_linker_0, # of connection points: 2
#     Edge 43, Type (0, 1), BuildingBlock: EZIPEK_clean_linker_0, # of connection points: 2
#     Edge 44, Type (0, 1), BuildingBlock: EZIPEK_clean_linker_0, # of connection points: 2
#     Edge 45, Type (0, 1), BuildingBlock: EZIPEK_clean_linker_0, # of connection points: 2
#     Edge 46, Type (0, 1), BuildingBlock: EZIPEK_clean_linker_0, # of connection points: 2
#     Edge 47, Type (0, 1), BuildingBlock: EZIPEK_clean_linker_0, # of connection points: 2
#     Edge 48, Type (0, 1), BuildingBlock: EZIPEK_clean_linker_0, # of connection points: 2
#     Edge 49, Type (0, 1), BuildingBlock: EZIPEK_clean_linker_0, # of connection points: 2
#     Edge 50, Type (0, 1), BuildingBlock: EZIPEK_clean_linker_0, # of connection points: 2
#     Edge 51, Type (0, 1), BuildingBlock: EZIPEK_clean_linker_0, # of connection points: 2
#     Edge 52, Type (0, 1), BuildingBlock: EZIPEK_clean_linker_0, # of connection points: 2
#     Edge 53, Type (0, 1), BuildingBlock: EZIPEK_clean_linker_0, # of connection points: 2
#     Edge 54, Type (0, 1), BuildingBlock: EZIPEK_clean_linker_0, # of connection points: 2
#     Edge 55, Type (0, 1), BuildingBlock: EZIPEK_clean_linker_0, # of connection points: 2
#     Edge 56, Type (0, 1), BuildingBlock: EZIPEK_clean_linker_0, # of connection points: 2
#     Edge 57, Type (0, 1), BuildingBlock: EZIPEK_clean_linker_0, # of connection points: 2
#     Edge 58, Type (0, 1), BuildingBlock: EZIPEK_clean_linker_0, # of connection points: 2
#     Edge 59, Type (0, 1), BuildingBlock: EZIPEK_clean_linker_0, # of connection points: 2
#     Edge 60, Type (0, 1), BuildingBlock: EZIPEK_clean_linker_0, # of connection points: 2
#     Edge 61, Type (0, 1), BuildingBlock: EZIPEK_clean_linker_0, # of connection points: 2
#     Edge 62, Type (0, 1), BuildingBlock: EZIPEK_clean_linker_0, # of connection points: 2
#     Edge 63, Type (0, 1), BuildingBlock: EZIPEK_clean_linker_0, # of connection points: 2
#     Edge 64, Type (0, 1), BuildingBlock: EZIPEK_clean_linker_0, # of connection points: 2
#     Edge 65, Type (0, 1), BuildingBlock: EZIPEK_clean_linker_0, # of connection points: 2
#     Edge 66, Type (0, 1), BuildingBlock: EZIPEK_clean_linker_0, # of connection points: 2
#     Edge 67, Type (0, 1), BuildingBlock: EZIPEK_clean_linker_0, # of connection points: 2
#     Edge 68, Type (0, 1), BuildingBlock: EZIPEK_clean_linker_0, # of connection points: 2
#     Edge 69, Type (0, 1), BuildingBlock: EZIPEK_clean_linker_0, # of connection points: 2
#     Edge 70, Type (0, 1), BuildingBlock: EZIPEK_clean_linker_0, # of connection points: 2
#     Edge 71, Type (0, 1), BuildingBlock: EZIPEK_clean_linker_0, # of connection points: 2
#     Edge 72, Type (0, 1), BuildingBlock: EZIPEK_clean_linker_0, # of connection points: 2
#     Edge 73, Type (0, 1), BuildingBlock: EZIPEK_clean_linker_0, # of connection points: 2
#     Edge 74, Type (0, 1), BuildingBlock: EZIPEK_clean_linker_0, # of connection points: 2
#     Edge 75, Type (0, 1), BuildingBlock: EZIPEK_clean_linker_0, # of connection points: 2
# Relax obj value: 0.078
# Max RMSD: 0.177
# Mean RMSD: 0.120
data_MOF--net-ctn--node1-KUFVIS_clean_sbu_0--node2-PAMTOO_clean_linker_0--edge1-EZIPEK_clean_linker_0
_symmetry_space_group_name_H-M    P1
_symmetry_Int_Tables_number       1
_symmetry_cell_setting            triclinic
loop_
_symmetry_equiv_pos_as_xyz
'x, y, z'
_cell_length_a     38.115269
_cell_length_b     38.269986
_cell_length_c     39.335116
_cell_angle_alpha  85.55973
_cell_angle_beta   92.642113
_cell_angle_gamma 99.653191
loop_
_atom_site_label
_atom_site_type_symbol
_atom_site_fract_x
_atom_site_fract_y
_atom_site_fract_z
_atom_type_partial_charge
H0 H 0.99182 0.10277 0.06783 0.0
H1 H 0.05869 0.02451 0.08768 0.0
H2 H 0.0667 0.08792 0.99314 0.0
H3 H 0.06905 1.00539 0.99597 0.0
C4 C 0.08888 1.00666 0.01766 0.0
O5 O 0.09345 0.03961 0.03094 0.0
H6 H 0.07675 0.98581 0.03686 0.0
C7 C 0.01055 0.08851 0.05779 0.0
C8 C 0.02293 0.09584 0.02413 0.0
C9 C 0.022 0.06188 0.08008 0.0
C10 C 0.04959 0.04504 0.07067 0.0
C11 C 0.06557 0.05475 0.03928 0.0
C12 C 0.05274 0.08027 0.01657 0.0
H13 H 0.34568 0.65263 0.27118 0.0
H14 H 0.28165 0.68444 0.18483 0.0
H15 H 0.38057 0.74978 0.21072 0.0
H16 H 0.32597 0.79015 0.18765 0.0
C17 C 0.30966 0.77148 0.17056 0.0
O18 O 0.32606 0.74238 0.16747 0.0
H19 H 0.28401 0.76337 0.18368 0.0
C20 C 0.34152 0.67115 0.24968 0.0
C21 C 0.36581 0.70295 0.24479 0.0
C22 C 0.31088 0.66398 0.22828 0.0
C23 C 0.30545 0.6889 0.20112 0.0
C24 C 0.33098 0.71923 0.19434 0.0
C25 C 0.36142 0.72579 0.2157 0.0
H26 H 0.98356 0.5457 0.11534 0.0
H27 H 0.94884 0.48989 0.02535 0.0
H28 H 0.0268 0.4526 0.09496 0.0
H29 H 0.04283 0.44099 0.03138 0.0
C30 C 0.01733 0.44039 0.01637 0.0
O31 O 0.9898 0.44099 0.03802 0.0
H32 H 0.02191 0.46528 0.99954 0.0
C33 C 0.98501 0.52433 0.0992 0.0
C34 C 1.00842 0.49991 0.10864 0.0
C35 C 0.96299 0.52078 0.06926 0.0
C36 C 0.96555 0.49308 0.0483 0.0
C37 C 0.98863 0.46859 0.0575 0.0
C38 C 0.00936 0.47179 0.08785 0.0
H39 H 0.70337 0.8844 0.26428 0.0
H40 H 0.67101 0.77682 0.23633 0.0
H41 H 0.76609 0.83947 0.19606 0.0
H42 H 0.70218 0.79648 0.14998 0.0
C43 C 0.70746 0.77147 0.16413 0.0
O44 O 0.72406 0.7781 0.19549 0.0
H45 H 0.6805 0.75572 0.16798 0.0
C46 C 0.70744 0.86248 0.24986 0.0
C47 C 0.73779 0.86578 0.23003 0.0
C48 C 0.68348 0.8303 0.25274 0.0
C49 C 0.68922 0.80182 0.2343 0.0
C50 C 0.71857 0.80547 0.21327 0.0
C51 C 0.7429 0.83723 0.21149 0.0
H52 H 0.11842 0.95223 0.54809 0.0
H53 H 0.03209 0.92848 0.47445 0.0
H54 H 0.10895 0.0228 0.45878 0.0
H55 H 0.01409 0.01149 0.44975 0.0
C56 C 0.01794 0.99333 0.43017 0.0
O57 O 0.05208 0.98545 0.43343 0.0
H58 H 0.99866 0.96862 0.43602 0.0
C59 C 0.10425 0.95945 0.52477 0.0
C60 C 0.11692 0.99125 0.50542 0.0
C61 C 0.07326 0.93694 0.51395 0.0
C62 C 0.0555 0.94601 0.48329 0.0
C63 C 0.06794 0.97756 0.46391 0.0
C64 C 0.09845 0.99984 0.475 0.0
H65 H 0.16848 0.77416 0.82458 0.0
H66 H 0.20857 0.69245 0.77717 0.0
H67 H 0.25836 0.73119 0.86888 0.0
H68 H 0.23505 0.63935 0.82904 0.0
C69 C 0.26148 0.65594 0.83358 0.0
O70 O 0.26195 0.69021 0.81947 0.0
H71 H 0.26412 0.65587 0.8618 0.0
C72 C 0.18493 0.75372 0.82532 0.0
C73 C 0.21302 0.75527 0.85015 0.0
C74 C 0.1786 0.72653 0.80204 0.0
C75 C 0.20714 0.7077 0.79881 0.0
C76 C 0.23527 0.70887 0.82308 0.0
C77 C 0.23685 0.73099 0.84985 0.0
H78 H 0.93097 0.59017 0.51585 0.0
H79 H 0.961 0.51794 0.45032 0.0
H80 H 0.04231 0.5804 0.50849 0.0
H81 H 0.01731 0.48832 0.45681 0.0
C82 C 0.04027 0.51026 0.45375 0.0
O83 O 0.0295 0.54307 0.45412 0.0
H84 H 0.05747 0.50559 0.47662 0.0
C85 C 0.95218 0.57838 0.50652 0.0
C86 C 0.98834 0.58973 0.51663 0.0
C87 C 0.94246 0.54982 0.48584 0.0
C88 C 0.96873 0.53804 0.46828 0.0
C89 C 1.00472 0.55068 0.47497 0.0
C90 C 0.01438 0.57382 0.50134 0.0
H91 H 0.78106 0.83213 0.88605 0.0
H92 H 0.87443 0.79681 0.85305 0.0
H93 H 0.82556 0.87201 0.78876 0.0
H94 H 0.8512 0.81642 0.74922 0.0
C95 C 0.87043 0.808 0.76899 0.0
O96 O 0.87652 0.83258 0.79361 0.0
H97 H 0.85645 0.78195 0.77989 0.0
C98 C 0.80108 0.83297 0.8672 0.0
C99 C 0.8005 0.85591 0.83716 0.0
C100 C 0.82737 0.81082 0.87264 0.0
C101 C 0.85372 0.81289 0.84848 0.0
C102 C 0.85248 0.8338 0.81783 0.0
C103 C 0.82604 0.8554 0.81232 0.0
H104 H 0.27537 0.32057 0.38339 0.0
H105 H 0.37055 0.28699 0.35199 0.0
H106 H 0.32572 0.36735 0.29087 0.0
H107 H 0.34467 0.3152 0.25116 0.0
C108 C 0.36424 0.30267 0.26756 0.0
O109 O 0.37386 0.32528 0.29355 0.0
H110 H 0.35099 0.27617 0.27816 0.0
C111 C 0.29678 0.32295 0.36573 0.0
C112 C 0.29777 0.34773 0.33702 0.0
C113 C 0.32339 0.30121 0.37168 0.0
C114 C 0.35051 0.304 0.34808 0.0
C115 C 0.35073 0.32691 0.3185 0.0
C116 C 0.32513 0.34945 0.31366 0.0
H117 H 0.48301 0.04531 0.6132 0.0
H118 H 0.44812 0.98819 0.52403 0.0
H119 H 0.52965 0.9546 0.59159 0.0
H120 H 0.54437 0.94699 0.52467 0.0
C121 C 0.51753 0.94282 0.51189 0.0
O122 O 0.49152 0.94149 0.53561 0.0
H123 H 0.51802 0.9668 0.49399 0.0
C124 C 0.48498 0.02414 0.59697 0.0
C125 C 0.50967 1.00085 0.60584 0.0
C126 C 0.46229 0.01964 0.56754 0.0
C127 C 0.46537 0.99214 0.54656 0.0
C128 C 0.48975 0.96885 0.55515 0.0
C129 C 0.51126 0.97298 0.58493 0.0
H130 H 0.20704 0.38387 0.76749 0.0
H131 H 0.17187 0.27875 0.73388 0.0
H132 H 0.27021 0.33994 0.69915 0.0
H133 H 0.2258 0.3066 0.64678 0.0
C134 C 0.21658 0.28011 0.66003 0.0
O135 O 0.2262 0.28022 0.69432 0.0
H136 H 0.18712 0.27627 0.65661 0.0
C137 C 0.21082 0.36241 0.75229 0.0
C138 C 0.24157 0.36567 0.73312 0.0
C139 C 0.18591 0.33085 0.75342 0.0
C140 C 0.19096 0.30318 0.73346 0.0
C141 C 0.22109 0.30675 0.71344 0.0
C142 C 0.24656 0.33764 0.71392 0.0
H143 H 0.84629 0.15923 0.76691 0.0
H144 H 0.78522 0.18983 0.67796 0.0
H145 H 0.88511 0.25355 0.70392 0.0
H146 H 0.83084 0.29469 0.67887 0.0
C147 C 0.81508 0.27593 0.66154 0.0
O148 O 0.83127 0.24642 0.65983 0.0
H149 H 0.78892 0.26839 0.67383 0.0
C150 C 0.8432 0.17712 0.74463 0.0
C151 C 0.86852 0.20806 0.73911 0.0
C152 C 0.81294 0.17003 0.72273 0.0
C153 C 0.80875 0.19423 0.6946 0.0
C154 C 0.83512 0.2238 0.68745 0.0
C155 C 0.86526 0.23019 0.70924 0.0
H156 H 0.49657 0.60505 0.56976 0.0
H157 H 0.5607 0.52347 0.5949 0.0
H158 H 0.57946 0.59165 0.50336 0.0
H159 H 0.57128 0.50614 0.50524 0.0
C160 C 0.59283 0.50607 0.52526 0.0
O161 O 0.59941 0.53804 0.54046 0.0
H162 H 0.58196 0.48442 0.54428 0.0
C163 C 0.51806 0.59142 0.56386 0.0
C164 C 0.53696 0.60192 0.53389 0.0
C165 C 0.52655 0.56329 0.58616 0.0
C166 C 0.55409 0.54539 0.57808 0.0
C167 C 0.57295 0.55544 0.54813 0.0
C168 C 0.56462 0.58387 0.52634 0.0
H169 H 0.62816 0.45966 0.05061 0.0
H170 H 0.53007 0.43845 0.99111 0.0
H171 H 0.60677 0.53063 0.96481 0.0
H172 H 0.52966 0.45246 0.92128 0.0
C173 C 0.54168 0.48103 0.91807 0.0
O174 O 0.54412 0.49566 0.94927 0.0
H175 H 0.56858 0.48083 0.90846 0.0
C176 C 0.61083 0.46703 0.0296 0.0
C177 C 0.62087 0.49886 0.00941 0.0
C178 C 0.57813 0.44502 0.023 0.0
C179 C 0.55549 0.455 0.99611 0.0
C180 C 0.56593 0.48593 0.97513 0.0
C181 C 0.59866 0.50737 0.98158 0.0
H182 H 0.65454 0.26174 0.32726 0.0
H183 H 0.69506 0.1757 0.28689 0.0
H184 H 0.75041 0.22774 0.36937 0.0
H185 H 0.79368 0.20957 0.30682 0.0
C186 C 0.77571 0.18405 0.30311 0.0
O187 O 0.74981 0.17794 0.32736 0.0
H188 H 0.76325 0.1879 0.27722 0.0
C189 C 0.67273 0.24275 0.32842 0.0
C190 C 0.70278 0.24819 0.35104 0.0
C191 C 0.66615 0.21325 0.30778 0.0
C192 C 0.6945 0.19388 0.30609 0.0
C193 C 0.72435 0.19874 0.32835 0.0
C194 C 0.72759 0.22474 0.35173 0.0
H195 H 0.43766 0.07702 0.04052 0.0
H196 H 0.45872 0.01919 0.9566 0.0
H197 H 0.53958 0.10124 0.99317 0.0
H198 H 0.52251 0.99901 0.95535 0.0
C199 C 0.54128 0.02403 0.94939 0.0
O200 O 0.52353 0.05295 0.9476 0.0
H201 H 0.56034 0.02522 0.97162 0.0
C202 C 0.45586 0.07185 0.02199 0.0
C203 C 0.49008 0.09246 0.02006 0.0
C204 C 0.44445 0.04537 0.99928 0.0
C205 C 0.46753 0.03935 0.9744 0.0
C206 C 0.50203 0.05885 0.97246 0.0
C207 C 0.51325 0.08551 0.99525 0.0
Mn208 Mn 0.25387 0.88907 1.00213 0.0
Mn209 Mn 0.26074 0.93173 0.92397 0.0
C210 C 0.23353 0.85821 0.95456 0.0
C211 C 0.27618 0.85631 0.04823 0.0
C212 C 0.20867 0.94519 0.9761 0.0
O213 O 0.29193 0.93294 0.00896 0.0
O214 O 0.29957 0.95498 0.95417 0.0
C215 C 0.32976 0.91801 0.90125 0.0
N216 N 0.29376 0.91498 0.8967 0.0
C217 C 0.29532 0.89041 0.84242 0.0
C218 C 0.33244 0.89338 0.84647 0.0
C219 C 0.34969 0.90704 0.87611 0.0
C220 C 0.27689 0.9018 0.86832 0.0
H221 H 0.34318 0.92889 0.92381 0.0
C222 C 0.30843 0.95433 0.98605 0.0
O223 O 0.25194 0.87561 0.052 0.0
O224 O 0.28853 0.85684 0.01795 0.0
N225 N 0.22484 0.91022 0.89284 0.0
C226 C 0.18875 0.90514 0.89488 0.0
C227 C 0.16726 0.88932 0.86843 0.0
C228 C 0.1831 0.87841 0.8404 0.0
C229 C 0.22031 0.88296 0.83933 0.0
C230 C 0.24033 0.89888 0.86645 0.0
H231 H 0.17648 0.91209 0.917 0.0
O232 O 0.22138 0.84721 0.9845 0.0
O233 O 0.25655 0.88751 0.95346 0.0
O234 O 0.21412 0.91952 0.99725 0.0
O235 O 0.226 0.95275 0.94884 0.0
C236 C 0.23831 0.87164 0.81277 0.0
C237 C 0.27582 0.87573 0.81413 0.0
H238 H 0.34788 0.88481 0.82719 0.0
H239 H 0.3783 0.90926 0.87949 0.0
H240 H 0.13856 0.88511 0.86988 0.0
H241 H 0.16645 0.86594 0.82019 0.0
H242 H 0.22354 0.85935 0.7914 0.0
H243 H 0.28934 0.86658 0.79375 0.0
Mn244 Mn 0.16455 0.49048 0.27717 0.0
Mn245 Mn 0.13893 0.57165 0.27437 0.0
C246 C 0.20016 0.54067 0.25205 0.0
C247 C 0.19637 0.44576 0.30141 0.0
C248 C 0.10501 0.51369 0.22884 0.0
O249 O 0.12873 0.4846 0.31561 0.0
O250 O 0.11605 0.54063 0.31303 0.0
C251 C 0.16934 0.5993 0.3396 0.0
N252 N 0.16745 0.60227 0.30487 0.0
C253 C 0.20345 0.66042 0.30345 0.0
C254 C 0.20598 0.65778 0.3392 0.0
C255 C 0.18901 0.627 0.35733 0.0
C256 C 0.18384 0.63175 0.28717 0.0
H257 H 0.15549 0.57626 0.35368 0.0
C258 C 0.11364 0.50881 0.32681 0.0
O259 O 0.16888 0.43867 0.28092 0.0
O260 O 0.20378 0.47836 0.30987 0.0
N261 N 0.16046 0.60396 0.23863 0.0
C262 C 0.15595 0.60217 0.2042 0.0
C263 C 0.1729 0.63006 0.18236 0.0
C264 C 0.1938 0.65978 0.1961 0.0
C265 C 0.19757 0.66132 0.2316 0.0
C266 C 0.18049 0.63247 0.2521 0.0
H267 H 0.13976 0.57953 0.19343 0.0
O268 O 0.20232 0.50911 0.2432 0.0
O269 O 0.17626 0.54197 0.27414 0.0
O270 O 0.12435 0.49063 0.2397 0.0
O271 O 0.10765 0.54397 0.24098 0.0
C272 C 0.21758 0.69038 0.24743 0.0
C273 C 0.22016 0.69012 0.28334 0.0
H274 H 0.22107 0.67913 0.35296 0.0
H275 H 0.19072 0.62479 0.38493 0.0
H276 H 0.16978 0.62869 0.15499 0.0
H277 H 0.20674 0.68129 0.17918 0.0
H278 H 0.23111 0.71304 0.23223 0.0
H279 H 0.23571 0.71256 0.29523 0.0
Mn280 Mn 0.80369 0.64057 0.03486 0.0
Mn281 Mn 0.72999 0.66813 0.99677 0.0
C282 C 0.74825 0.60265 0.03442 0.0
C283 C 0.85453 0.61194 0.03751 0.0
C284 C 0.7608 0.69148 0.06519 0.0
O285 O 0.82523 0.68365 1.00269 0.0
O286 O 0.77379 0.69718 0.97821 0.0
C287 C 0.73773 0.64835 0.92655 0.0
N288 N 0.71808 0.64616 0.95488 0.0
C289 C 0.66673 0.61482 0.92601 0.0
C290 C 0.68646 0.61661 0.89653 0.0
C291 C 0.72226 0.63316 0.89692 0.0
C292 C 0.684 0.62928 0.95513 0.0
H293 H 0.76483 0.66185 0.92655 0.0
C294 C 0.80778 0.70225 0.98155 0.0
O295 O 0.85069 0.63552 0.05832 0.0
O296 O 0.83019 0.6067 0.01334 0.0
N297 N 0.68526 0.64261 0.01192 0.0
C298 C 0.66963 0.64382 0.0422 0.0
C299 C 0.6339 0.62811 0.04617 0.0
C300 C 0.61418 0.61257 0.01857 0.0
C301 C 0.63049 0.6127 0.98734 0.0
C302 C 0.66649 0.62772 0.98522 0.0
H303 H 0.68427 0.65671 0.0632 0.0
O304 O 0.77283 0.59775 0.05738 0.0
O305 O 0.75644 0.6298 0.01277 0.0
O306 O 0.78665 0.67405 0.06684 0.0
O307 O 0.73878 0.69172 0.03985 0.0
C308 C 0.61214 0.59951 0.9579 0.0
C309 C 0.63036 0.60013 0.9274 0.0
H310 H 0.67433 0.6056 0.87341 0.0
H311 H 0.73768 0.63479 0.87426 0.0
H312 H 0.62142 0.62848 0.07027 0.0
H313 H 0.58645 0.60099 0.02154 0.0
H314 H 0.58406 0.58847 0.95853 0.0
H315 H 0.61606 0.58978 0.90499 0.0
Mn316 Mn 0.88998 0.03672 0.25357 0.0
Mn317 Mn 0.91615 0.95662 0.25285 0.0
C318 C 0.85086 0.9879 0.23417 0.0
C319 C 0.86257 0.07772 0.2796 0.0
C320 C 0.94122 0.0193 0.20244 0.0
O321 O 0.93369 0.04123 0.2866 0.0
O322 O 0.94396 0.98484 0.28806 0.0
C323 C 0.89535 0.92466 0.32147 0.0
N324 N 0.89272 0.92362 0.28688 0.0
C325 C 0.85619 0.86584 0.29135 0.0
C326 C 0.85869 0.86621 0.327 0.0
C327 C 0.87813 0.89588 0.3421 0.0
C328 C 0.87366 0.89542 0.27209 0.0
H329 H 0.91066 0.94717 0.33326 0.0
C330 C 0.94973 0.01603 0.2991 0.0
O331 O 0.88473 0.08773 0.25532 0.0
O332 O 0.8581 0.04445 0.29033 0.0
N333 N 0.88985 0.92657 0.22048 0.0
C334 C 0.88996 0.93031 0.18576 0.0
C335 C 0.87022 0.90369 0.16674 0.0
C336 C 0.85121 0.87313 0.18359 0.0
C337 C 0.85221 0.86943 0.21934 0.0
C338 C 0.8719 0.89709 0.23694 0.0
H339 H 0.90502 0.95338 0.17266 0.0
O340 O 0.84631 0.02004 0.22451 0.0
O341 O 0.87867 0.98548 0.25386 0.0
O342 O 0.92214 0.04042 0.21274 0.0
O343 O 0.9418 0.98803 0.21616 0.0
C344 C 0.83459 0.8393 0.23821 0.0
C345 C 0.83666 0.83745 0.27418 0.0
H346 H 0.8455 0.84403 0.34301 0.0
H347 H 0.88005 0.89644 0.3696 0.0
H348 H 0.86984 0.90663 0.13915 0.0
H349 H 0.83612 0.85259 0.16884 0.0
H350 H 0.81941 0.81736 0.22533 0.0
H351 H 0.82281 0.81425 0.2884 0.0
Mn352 Mn 0.29774 0.13315 0.53674 0.0
Mn353 Mn 0.22292 0.16075 0.50116 0.0
C354 C 0.24246 0.09477 0.53669 0.0
C355 C 0.34921 0.10563 0.53783 0.0
C356 C 0.25553 0.18297 0.56967 0.0
O357 O 0.31813 0.17687 0.50468 0.0
O358 O 0.26599 0.19092 0.48262 0.0
C359 C 0.231 0.14315 0.43023 0.0
N360 N 0.21122 0.13995 0.4586 0.0
C361 C 0.16061 0.10778 0.42932 0.0
C362 C 0.18044 0.11069 0.39979 0.0
C363 C 0.21593 0.12817 0.40036 0.0
C364 C 0.17751 0.1221 0.45868 0.0
H365 H 0.25796 0.15722 0.43033 0.0
C366 C 0.29999 0.19583 0.48458 0.0
O367 O 0.34525 0.12862 0.55917 0.0
O368 O 0.32445 0.1002 0.51404 0.0
N369 N 0.17844 0.1341 0.51585 0.0
C370 C 0.16232 0.13496 0.54589 0.0
C371 C 0.12676 0.11863 0.54961 0.0
C372 C 0.10755 0.10287 0.52188 0.0
C373 C 0.12415 0.1036 0.49073 0.0
C374 C 0.16 0.11936 0.48887 0.0
H375 H 0.17619 0.14873 0.56659 0.0
O376 O 0.26762 0.08958 0.55894 0.0
O377 O 0.25006 0.12244 0.51554 0.0
O378 O 0.28123 0.1655 0.57007 0.0
O379 O 0.23223 0.18311 0.54529 0.0
C380 C 0.10618 0.09036 0.46115 0.0
C381 C 0.12452 0.09196 0.43058 0.0
H382 H 0.16864 0.09981 0.3765 0.0
H383 H 0.23142 0.13061 0.37767 0.0
H384 H 0.11395 0.11888 0.57355 0.0
H385 H 0.07992 0.09082 0.52463 0.0
H386 H 0.07834 0.0784 0.46174 0.0
H387 H 0.11054 0.0811 0.40816 0.0
Mn388 Mn 0.39293 0.53587 0.75962 0.0
Mn389 Mn 0.42105 0.45661 0.75785 0.0
C390 C 0.35508 0.48701 0.7394 0.0
C391 C 0.36433 0.57606 0.78513 0.0
C392 C 0.44528 0.52 0.70833 0.0
O393 O 0.43518 0.5402 0.79409 0.0
O394 O 0.44882 0.48482 0.79347 0.0
C395 C 0.40101 0.42279 0.82606 0.0
N396 N 0.39799 0.42271 0.79143 0.0
C397 C 0.36125 0.36497 0.79495 0.0
C398 C 0.36388 0.36457 0.83064 0.0
C399 C 0.38371 0.3937 0.84625 0.0
C400 C 0.37881 0.39487 0.77616 0.0
H401 H 0.4168 0.44469 0.83819 0.0
C402 C 0.45272 0.51564 0.80524 0.0
O403 O 0.38715 0.58659 0.76152 0.0
O404 O 0.35972 0.54269 0.7955 0.0
N405 N 0.39503 0.42693 0.72501 0.0
C406 C 0.39494 0.43146 0.6903 0.0
C407 C 0.37526 0.40519 0.67083 0.0
C408 C 0.3563 0.37432 0.68721 0.0
C409 C 0.35729 0.36994 0.72294 0.0
C410 C 0.37708 0.39718 0.741 0.0
H411 H 0.40966 0.45497 0.67752 0.0
O412 O 0.35014 0.51907 0.72976 0.0
O413 O 0.38276 0.48468 0.75934 0.0
O414 O 0.42622 0.54075 0.71936 0.0
O415 O 0.44615 0.48862 0.72148 0.0
C416 C 0.3395 0.33956 0.74132 0.0
C417 C 0.34157 0.33703 0.77729 0.0
H418 H 0.35064 0.34212 0.84629 0.0
H419 H 0.38592 0.39359 0.87379 0.0
H420 H 0.37475 0.40872 0.64326 0.0
H421 H 0.34119 0.3541 0.67211 0.0
H422 H 0.32418 0.31797 0.72806 0.0
H423 H 0.32762 0.31363 0.79115 0.0
Mn424 Mn 0.75471 0.39054 0.49399 0.0
Mn425 Mn 0.75438 0.43165 0.41521 0.0
C426 C 0.73091 0.35829 0.44825 0.0
C427 C 0.78107 0.35922 0.53875 0.0
C428 C 0.70704 0.44523 0.47151 0.0
O429 O 0.79212 0.43565 0.49755 0.0
O430 O 0.79556 0.45611 0.442 0.0
C431 C 0.82103 0.41829 0.38684 0.0
N432 N 0.78484 0.41471 0.38532 0.0
C433 C 0.78158 0.3881 0.33159 0.0
C434 C 0.81882 0.39157 0.33253 0.0
C435 C 0.83861 0.40658 0.36037 0.0
C436 C 0.76555 0.40031 0.35867 0.0
H437 H 0.83637 0.43012 0.40804 0.0
C438 C 0.80663 0.45677 0.47329 0.0
O439 O 0.75698 0.37817 0.54406 0.0
O440 O 0.79109 0.35939 0.50762 0.0
N441 N 0.71599 0.40902 0.38728 0.0
C442 C 0.68032 0.4038 0.39226 0.0
C443 C 0.65664 0.38696 0.36786 0.0
C444 C 0.6699 0.37518 0.33882 0.0
C445 C 0.70677 0.37994 0.3347 0.0
C446 C 0.72905 0.39696 0.35986 0.0
H447 H 0.67007 0.41143 0.41517 0.0
O448 O 0.72159 0.34773 0.47919 0.0
O449 O 0.75332 0.38797 0.44516 0.0
O450 O 0.71416 0.41969 0.49194 0.0
O451 O 0.72198 0.45282 0.44294 0.0
C452 C 0.7223 0.36779 0.30699 0.0
C453 C 0.75969 0.37219 0.30526 0.0
H454 H 0.83247 0.38241 0.31224 0.0
H455 H 0.86735 0.40921 0.36136 0.0
H456 H 0.62826 0.38262 0.37166 0.0
H457 H 0.65157 0.36193 0.32021 0.0
H458 H 0.70575 0.35463 0.28709 0.0
H459 H 0.77133 0.36238 0.28403 0.0
Mn460 Mn 0.66633 0.99768 0.7756 0.0
Mn461 Mn 0.63892 0.07821 0.76932 0.0
C462 C 0.70163 0.04777 0.74982 0.0
C463 C 0.69962 0.95508 0.80236 0.0
C464 C 0.60712 0.01815 0.72523 0.0
O465 O 0.62909 0.9922 0.81296 0.0
O466 O 0.61601 0.04816 0.80852 0.0
C467 C 0.66751 0.10901 0.83377 0.0
N468 N 0.66632 0.11052 0.79904 0.0
C469 C 0.70146 0.16911 0.79605 0.0
C470 C 0.70334 0.16794 0.83179 0.0
C471 C 0.68643 0.13767 0.85072 0.0
C472 C 0.68257 0.13953 0.78058 0.0
H473 H 0.65365 0.0864 0.84841 0.0
C474 C 0.61352 0.01667 0.8231 0.0
O475 O 0.67331 0.94637 0.78087 0.0
O476 O 0.70465 0.98782 0.81042 0.0
N477 N 0.66046 0.10953 0.7329 0.0
C478 C 0.65657 0.10634 0.69861 0.0
C479 C 0.67352 0.1336 0.6761 0.0
C480 C 0.69378 0.16411 0.68903 0.0
C481 C 0.69689 0.16709 0.72437 0.0
C482 C 0.67984 0.13883 0.74558 0.0
H483 H 0.64089 0.08308 0.68845 0.0
O484 O 0.70485 0.01604 0.74236 0.0
O485 O 0.677 0.04931 0.77109 0.0
O486 O 0.62709 0.9959 0.73689 0.0
O487 O 0.60874 0.04866 0.73663 0.0
C488 C 0.7162 0.19703 0.73938 0.0
C489 C 0.71811 0.19823 0.77518 0.0
H490 H 0.71786 0.19004 0.84494 0.0
H491 H 0.6876 0.13661 0.87831 0.0
H492 H 0.6709 0.13111 0.64885 0.0
H493 H 0.70676 0.18511 0.67159 0.0
H494 H 0.72969 0.21927 0.72363 0.0
H495 H 0.73312 0.22135 0.78644 0.0
Mn496 Mn 0.02246 0.27442 0.87953 0.0
Mn497 Mn 0.93866 0.2616 0.90817 0.0
C498 C 0.9751 0.24627 0.84689 0.0
C499 C 0.06951 0.30413 0.84709 0.0
C500 C 0.99394 0.2166 0.9345 0.0
O501 O 0.02649 0.31103 0.9155 0.0
O502 O 0.96946 0.30032 0.93241 0.0
C503 C 0.91702 0.33066 0.885 0.0
N504 N 0.9118 0.2946 0.88471 0.0
C505 C 0.85721 0.29445 0.85136 0.0
C506 C 0.86225 0.33161 0.85104 0.0
C507 C 0.89238 0.34979 0.86783 0.0
C508 C 0.88302 0.27687 0.8684 0.0
H509 H 0.93956 0.34468 0.89857 0.0
C510 C 1.00145 0.31749 0.93351 0.0
O511 O 0.07449 0.28177 0.87263 0.0
O512 O 0.03775 0.31213 0.84258 0.0
N513 N 0.9062 0.22575 0.88629 0.0
C514 C 0.9055 0.18992 0.88848 0.0
C515 C 0.87764 0.16798 0.87208 0.0
C516 C 0.85038 0.18297 0.85425 0.0
C517 C 0.85129 0.21982 0.85286 0.0
C518 C 0.88006 0.24043 0.86921 0.0
H519 H 0.92616 0.17815 0.90245 0.0
O520 O 1.00727 0.24056 0.84336 0.0
O521 O 0.97131 0.26751 0.87027 0.0
O522 O 0.01931 0.23345 0.91679 0.0
O523 O 0.96296 0.2252 0.93332 0.0
C524 C 0.8247 0.23692 0.83608 0.0
C525 C 0.82762 0.27419 0.83538 0.0
H526 H 0.84314 0.34644 0.83804 0.0
H527 H 0.89637 0.37846 0.86787 0.0
H528 H 0.87707 0.13954 0.87335 0.0
H529 H 0.82884 0.16589 0.84189 0.0
H530 H 0.80183 0.22173 0.82368 0.0
H531 H 0.80712 0.28704 0.82218 0.0
Mn532 Mn 0.52272 0.77102 0.38127 0.0
Mn533 Mn 0.44075 0.75759 0.41423 0.0
C534 C 0.47422 0.74129 0.35113 0.0
C535 C 0.56796 0.80134 0.34697 0.0
C536 C 0.4992 0.71644 0.44039 0.0
O537 O 0.52772 0.80858 0.41647 0.0
O538 O 0.47104 0.79943 0.43446 0.0
C539 C 0.41298 0.82301 0.38915 0.0
N540 N 0.41055 0.78706 0.39016 0.0
C541 C 0.35417 0.78137 0.35913 0.0
C542 C 0.35651 0.81841 0.35717 0.0
C543 C 0.3861 0.83932 0.37221 0.0
C544 C 0.38209 0.76667 0.37589 0.0
H545 H 0.4349 0.83906 0.40169 0.0
C546 C 0.50313 0.81649 0.43418 0.0
O547 O 0.57433 0.77943 0.3724 0.0
O548 O 0.5357 0.80823 0.34324 0.0
N549 N 0.40939 0.71865 0.39566 0.0
C550 C 0.41144 0.68334 0.39916 0.0
C551 C 0.38442 0.65888 0.38455 0.0
C552 C 0.35527 0.67088 0.36701 0.0
C553 C 0.35352 0.70729 0.36408 0.0
C554 C 0.38157 0.73048 0.37862 0.0
H555 H 0.43363 0.67389 0.41281 0.0
O556 O 0.50633 0.73617 0.34618 0.0
O557 O 0.47132 0.76272 0.37463 0.0
O558 O 0.52224 0.73107 0.4191 0.0
O559 O 0.46826 0.72477 0.44123 0.0
C560 C 0.32498 0.72148 0.34744 0.0
C561 C 0.32524 0.75847 0.34506 0.0
H562 H 0.33568 0.83105 0.34434 0.0
H563 H 0.38793 0.86791 0.37117 0.0
H564 H 0.38598 0.63081 0.38693 0.0
H565 H 0.33438 0.65192 0.35593 0.0
H566 H 0.30256 0.70423 0.33658 0.0
H567 H 0.30319 0.76905 0.33207 0.0
Mn568 Mn 0.02866 0.75845 0.63722 0.0
Mn569 Mn 0.98966 0.68401 0.68227 0.0
C570 C 0.02212 0.70322 0.6129 0.0
C571 C 0.02978 0.80935 0.60012 0.0
C572 C 0.06465 0.72202 0.69783 0.0
O573 O 1.00144 0.7783 0.67315 0.0
O574 O 0.97434 0.72678 0.69883 0.0
C575 C 0.9131 0.68307 0.66504 0.0
N576 N 0.94229 0.6667 0.66644 0.0
C577 C 0.9062 0.61026 0.65657 0.0
C578 C 0.87577 0.62655 0.65479 0.0
C579 C 0.87929 0.66318 0.65869 0.0
C580 C 0.93926 0.63164 0.662 0.0
H581 H 0.91557 0.71097 0.66914 0.0
C582 C 0.97962 0.76076 0.69452 0.0
O583 O 0.05437 0.80645 0.62334 0.0
O584 O 1.00334 0.78304 0.59872 0.0
N585 N 1.00094 0.64036 0.6688 0.0
C586 C 0.0331 0.62941 0.66893 0.0
C587 C 0.03465 0.59411 0.66255 0.0
C588 C 1.003 0.57016 0.65722 0.0
C589 C 0.97013 0.58196 0.65763 0.0
C590 C 0.97041 0.61777 0.66285 0.0
H591 H 0.05722 0.64741 0.67418 0.0
O592 O 0.04631 0.72983 0.60332 0.0
O593 O 1.0023 0.7094 0.63735 0.0
O594 O 0.06557 0.74591 0.67355 0.0
O595 O 0.03783 0.69777 0.70311 0.0
C596 C 0.9371 0.55962 0.65321 0.0
C597 C 0.90511 0.57371 0.65296 0.0
H598 H 0.8496 0.61121 0.65035 0.0
H599 H 0.85593 0.67592 0.65744 0.0
H600 H 0.06013 0.5852 0.66243 0.0
H601 H 1.00425 0.54279 0.65291 0.0
H602 H 0.936 0.5317 0.64954 0.0
H603 H 0.87991 0.55641 0.64906 0.0
Mn604 Mn 0.53325 0.25998 0.14046 0.0
Mn605 Mn 0.48068 0.18669 0.17395 0.0
C606 C 0.52655 0.20673 0.11293 0.0
C607 C 0.54128 0.31327 0.1064 0.0
C608 C 0.55335 0.21664 0.20457 0.0
O609 O 0.5025 0.27987 0.17358 0.0
O610 O 0.46395 0.22991 0.1881 0.0
C611 C 0.41224 0.19324 0.13722 0.0
N612 N 0.4393 0.17459 0.14514 0.0
C613 C 0.41062 0.12632 0.11274 0.0
C614 C 0.38261 0.14518 0.104 0.0
C615 C 0.38347 0.17883 0.11624 0.0
C616 C 0.43883 0.14228 0.13331 0.0
H617 H 0.41257 0.21881 0.14695 0.0
C618 C 0.47465 0.26352 0.18848 0.0
O619 O 0.56304 0.30745 0.13168 0.0
O620 O 0.51426 0.28846 0.10109 0.0
N621 N 0.4938 0.14324 0.16181 0.0
C622 C 0.52256 0.12817 0.17305 0.0
C623 C 0.52558 0.09429 0.16336 0.0
C624 C 0.49868 0.07591 0.14278 0.0
C625 C 0.46898 0.09162 0.13208 0.0
C626 C 0.46752 0.12554 0.1424 0.0
H627 H 0.54288 0.14172 0.18954 0.0
O628 O 0.55361 0.23171 0.10716 0.0
O629 O 0.50459 0.21379 0.1348 0.0
O630 O 0.56221 0.24039 0.18061 0.0
O631 O 0.52309 0.1963 0.20534 0.0
C632 C 0.44065 0.07482 0.11181 0.0
C633 C 0.41155 0.09222 0.10202 0.0
H634 H 0.36026 0.13403 0.08801 0.0
H635 H 0.3619 0.19353 0.10973 0.0
H636 H 0.54849 0.08226 0.17192 0.0
H637 H 0.50106 0.04975 0.13539 0.0
H638 H 0.44104 0.04858 0.10345 0.0
H639 H 0.39002 0.07912 0.08623 0.0
C640 C 0.25194 0.80352 0.88193 0.0
C641 C 0.21793 0.78266 0.8762 0.0
C642 C 0.19337 0.8154 0.91834 0.0
C643 C 0.22806 0.83347 0.92649 0.0
N644 N 0.29153 0.83421 0.92367 0.0
N645 N 0.15901 0.76192 0.89746 0.0
C646 C 0.25778 0.82449 0.91057 0.0
C647 C 0.18926 0.78677 0.89666 0.0
N648 N 0.27856 0.80405 0.85971 0.0
N649 N 0.1642 0.82557 0.9311 0.0
H650 H 0.15623 0.73875 0.88461 0.0
H651 H 0.13865 0.76204 0.91421 0.0
H652 H 0.16597 0.84649 0.94692 0.0
H653 H 0.13824 0.81562 0.92311 0.0
H654 H 0.30362 0.81947 0.86237 0.0
H655 H 0.27444 0.79231 0.8365 0.0
H656 H 0.31359 0.82535 0.91478 0.0
H657 H 0.29718 0.8477 0.94579 0.0
C658 C 0.09695 0.5182 0.41928 0.0
C659 C 0.05927 0.50807 0.42047 0.0
C660 C 0.05795 0.49249 0.36036 0.0
C661 C 0.09538 0.50203 0.35993 0.0
N662 N 0.15129 0.51439 0.39099 0.0
N663 N 1.00318 0.4924 0.38935 0.0
C664 C 0.11506 0.51182 0.39009 0.0
C665 C 0.03953 0.49676 0.39027 0.0
N666 N 0.11531 0.53658 0.44479 0.0
N667 N 0.04029 0.47822 0.33232 0.0
H668 H 0.98847 0.49637 0.40983 0.0
H669 H 0.98726 0.48782 0.36744 0.0
H670 H 0.05358 0.47416 0.31072 0.0
H671 H 0.01339 0.46739 0.33131 0.0
H672 H 0.14211 0.5478 0.44352 0.0
H673 H 0.10317 0.54461 0.46538 0.0
H674 H 0.16701 0.51758 0.41326 0.0
H675 H 0.16531 0.50988 0.37001 0.0
C676 C 0.83351 0.79326 0.93628 0.0
C677 C 0.82677 0.78329 0.90216 0.0
C678 C 0.82677 0.72092 0.92274 0.0
C679 C 0.82618 0.72999 0.95674 0.0
N680 N 0.83225 0.77464 0.99698 0.0
N681 N 0.8123 0.73622 0.86362 0.0
C682 C 0.83086 0.76627 0.96382 0.0
C683 C 0.82256 0.74671 0.89553 0.0
N684 N 0.84331 0.82831 0.94224 0.0
N685 N 0.83116 0.68733 0.91662 0.0
H686 H 0.80695 0.75386 0.84325 0.0
H687 H 0.80552 0.70964 0.85826 0.0
H688 H 0.83443 0.66827 0.93649 0.0
H689 H 0.83489 0.67965 0.89238 0.0
H690 H 0.85156 0.83723 0.9661 0.0
H691 H 0.84575 0.84853 0.92271 0.0
H692 H 0.83126 0.79995 1.00445 0.0
H693 H 0.83365 0.75541 0.01712 0.0
C694 C 0.01332 0.98679 0.36561 0.0
C695 C 0.00934 0.00697 0.39367 0.0
C696 C 0.97009 0.04015 0.35758 0.0
C697 C 0.97537 0.02072 0.32921 0.0
N698 N 0.01607 0.98865 0.30432 0.0
N699 N 0.9971 0.06347 0.40975 0.0
C700 C 1.00206 0.99875 0.3326 0.0
C701 C 0.99217 0.03724 0.38755 0.0
N702 N 0.02557 0.95513 0.37015 0.0
N703 N 0.94303 0.05943 0.35757 0.0
H704 H 0.01571 0.06423 0.43005 0.0
H705 H 0.98669 0.08695 0.40491 0.0
H706 H 0.92499 0.062 0.33734 0.0
H707 H 0.9366 0.07054 0.37938 0.0
H708 H 0.02569 0.93862 0.35028 0.0
H709 H 0.03195 0.94339 0.39388 0.0
H710 H 0.03718 0.97435 0.30575 0.0
H711 H 0.00936 0.99828 0.27974 0.0
C712 C 0.26523 0.25989 0.6275 0.0
C713 C 0.23187 0.2514 0.64352 0.0
C714 C 0.22381 0.1919 0.62209 0.0
C715 C 0.25175 0.20391 0.59936 0.0
N716 N 0.30369 0.24634 0.58447 0.0
N717 N 0.18279 0.20656 0.66202 0.0
C718 C 0.27418 0.23689 0.6036 0.0
C719 C 0.21238 0.21634 0.64295 0.0
N720 N 0.28868 0.28925 0.63602 0.0
N721 N 0.20971 0.15664 0.6249 0.0
H722 H 0.17599 0.22208 0.68055 0.0
H723 H 0.16463 0.18334 0.65914 0.0
H724 H 0.21937 0.13833 0.6111 0.0
H725 H 0.19125 0.14507 0.64285 0.0
H726 H 0.3145 0.29564 0.62734 0.0
H727 H 0.28364 0.30541 0.65474 0.0
H728 H 0.31857 0.2718 0.58262 0.0
H729 H 0.31294 0.22852 0.56973 0.0
C730 C 0.46895 0.53849 0.61486 0.0
C731 C 0.5059 0.55216 0.61768 0.0
C732 C 0.50372 0.54187 0.68006 0.0
C733 C 0.46617 0.53203 0.67731 0.0
N734 N 0.41217 0.52661 0.64222 0.0
N735 N 0.55713 0.5733 0.65333 0.0
C736 C 0.44851 0.53222 0.64472 0.0
C737 C 0.52298 0.55559 0.65042 0.0
N738 N 0.45365 0.52991 0.58383 0.0
N739 N 0.52109 0.53775 0.71089 0.0
H740 H 0.57183 0.58451 0.63233 0.0
H741 H 0.56967 0.57982 0.67662 0.0
H742 H 0.5078 0.52825 0.73316 0.0
H743 H 0.54871 0.54091 0.71385 0.0
H744 H 0.42774 0.51639 0.58077 0.0
H745 H 0.4679 0.53303 0.56148 0.0
H746 H 0.39786 0.53017 0.61937 0.0
H747 H 0.3963 0.5214 0.66345 0.0
C748 C 0.78 0.28118 0.60485 0.0
C749 C 0.81013 0.29371 0.62593 0.0
C750 C 0.82423 0.34699 0.58683 0.0
C751 C 0.79336 0.33532 0.56667 0.0
N752 N 0.74693 0.28789 0.55106 0.0
N753 N 0.86793 0.33063 0.6292 0.0
C754 C 0.77284 0.30125 0.57399 0.0
C755 C 0.83452 0.32418 0.61447 0.0
N756 N 0.75788 0.25044 0.61461 0.0
N757 N 0.8431 0.38028 0.58026 0.0
H758 H 0.87717 0.31317 0.64785 0.0
H759 H 0.88781 0.35082 0.62011 0.0
H760 H 0.83663 0.39737 0.55984 0.0
H761 H 0.86351 0.39183 0.59638 0.0
H762 H 0.7329 0.24244 0.60329 0.0
H763 H 0.76403 0.23305 0.63486 0.0
H764 H 0.73327 0.26193 0.55294 0.0
H765 H 0.74099 0.30195 0.52835 0.0
C766 C 0.57182 0.01289 0.63284 0.0
C767 C 0.53434 1.00517 0.63686 0.0
C768 C 0.54445 1.00556 0.69923 0.0
C769 C 0.58191 0.00996 0.6953 0.0
N770 N 0.63094 0.01201 0.65817 0.0
N771 N 0.48532 0.98723 0.67444 0.0
C772 C 0.59543 0.01159 0.66203 0.0
C773 C 0.52074 0.99961 0.67025 0.0
N774 N 0.58492 0.02323 0.6012 0.0
N775 N 0.53143 0.00757 0.73066 0.0
H776 H 0.46723 0.98205 0.65403 0.0
H777 H 0.47443 0.97902 0.69811 0.0
H778 H 0.54775 0.01059 0.75257 0.0
H779 H 0.50484 0.00879 0.7346 0.0
H780 H 0.61168 0.03291 0.59701 0.0
H781 H 0.5686 0.02556 0.5794 0.0
H782 H 0.64185 0.0094 0.63489 0.0
H783 H 0.64915 0.01177 0.67871 0.0
C784 C 0.91912 0.19383 0.77909 0.0
C785 C 0.89684 0.21833 0.76593 0.0
C786 C 0.92995 0.26287 0.80218 0.0
C787 C 0.94743 0.23642 0.81971 0.0
N788 N 0.95498 0.17487 0.82719 0.0
N789 N 0.87656 0.27436 0.77107 0.0
C790 C 0.94101 0.20134 0.80878 0.0
C791 C 0.90099 0.25241 0.77916 0.0
N792 N 0.92071 0.16417 0.76237 0.0
N793 N 0.94166 0.29809 0.80631 0.0
H794 H 0.85285 0.26658 0.75738 0.0
H795 H 0.87771 0.29881 0.78137 0.0
H796 H 0.96392 0.30733 0.82144 0.0
H797 H 0.93173 0.31833 0.79162 0.0
H798 H 0.93894 0.14715 0.76914 0.0
H799 H 0.90667 0.15878 0.73947 0.0
H800 H 0.94811 0.14818 0.82229 0.0
H801 H 0.97041 0.17909 0.84953 0.0
C802 C 0.49615 0.90835 0.45965 0.0
C803 C 0.51213 0.90863 0.493 0.0
C804 C 0.52355 0.8475 0.48788 0.0
C805 C 0.51064 0.84915 0.45348 0.0
N806 N 0.49378 0.88463 0.40418 0.0
N807 N 0.53941 0.87748 0.54015 0.0
C808 C 0.49973 0.88066 0.43867 0.0
C809 C 0.52529 0.87778 0.50755 0.0
N810 N 0.47582 0.93344 0.44851 0.0
N811 N 0.5339 0.81679 0.50162 0.0
H812 H 0.53763 0.89716 0.55658 0.0
H813 H 0.5533 0.85803 0.5511 0.0
H814 H 0.53617 0.7959 0.48679 0.0
H815 H 0.5397 0.81156 0.52741 0.0
H816 H 0.46109 0.93253 0.42552 0.0
H817 H 0.46984 0.95239 0.46403 0.0
H818 H 0.48918 0.90846 0.3915 0.0
H819 H 0.49693 0.86514 0.38793 0.0
C820 C 0.12002 0.32285 0.76373 0.0
C821 C 0.15556 0.32627 0.77695 0.0
C822 C 0.13373 0.32549 0.83473 0.0
C823 C 0.09819 0.31611 0.82217 0.0
N824 N 0.05848 0.29876 0.77405 0.0
N825 N 0.19554 0.32299 0.82609 0.0
C826 C 0.0914 0.31317 0.78643 0.0
C827 C 0.16228 0.32559 0.81278 0.0
N828 N 0.11348 0.32919 0.72956 0.0
N829 N 0.14027 0.33484 0.86752 0.0
H830 H 0.21654 0.3203 0.811 0.0
H831 H 0.20111 0.31923 0.85218 0.0
H832 H 0.11991 0.33641 0.88392 0.0
H833 H 0.16564 0.34486 0.87702 0.0
H834 H 0.0881 0.33059 0.71907 0.0
H835 H 0.13375 0.33646 0.71219 0.0
H836 H 0.05357 0.29267 0.74873 0.0
H837 H 0.03687 0.28931 0.7893 0.0
C838 C 0.51547 0.6246 0.47596 0.0
C839 C 0.52714 0.63136 0.50999 0.0
C840 C 0.51528 0.69253 0.49963 0.0
C841 C 0.50833 0.68707 0.46452 0.0
N842 N 0.50763 0.64912 0.41814 0.0
N843 N 0.54508 0.67418 0.55208 0.0
C844 C 0.51036 0.6535 0.45232 0.0
C845 C 0.52893 0.66603 0.52129 0.0
N846 N 0.50756 0.59045 0.46654 0.0
N847 N 0.50854 0.72279 0.51247 0.0
H848 H 0.55661 0.65596 0.56814 0.0
H849 H 0.55026 0.69993 0.56007 0.0
H850 H 0.49828 0.7426 0.49748 0.0
H851 H 0.50989 0.72662 0.53846 0.0
H852 H 0.49552 0.58383 0.44307 0.0
H853 H 0.50945 0.56838 0.4834 0.0
H854 H 0.51267 0.62637 0.40762 0.0
H855 H 0.50343 0.66945 0.40008 0.0
C856 C 0.91399 0.81926 0.72031 0.0
C857 C 0.90509 0.80285 0.75309 0.0
C858 C 0.95517 0.77 0.75086 0.0
C859 C 0.95788 0.77975 0.71536 0.0
N860 N 0.93559 0.81103 0.6652 0.0
N861 N 0.91884 0.76276 0.8005 0.0
C862 C 0.9366 0.80417 0.6998 0.0
C863 C 0.92652 0.77865 0.76885 0.0
N864 N 0.90099 0.8493 0.70875 0.0
N865 N 0.98036 0.75287 0.76754 0.0
H866 H 0.89967 0.76966 0.81544 0.0
H867 H 0.93022 0.74136 0.81122 0.0
H868 H 1.00178 0.74636 0.75526 0.0
H869 H 0.98205 0.74834 0.79398 0.0
H870 H 0.90891 0.86385 0.6861 0.0
H871 H 0.88593 0.86202 0.72385 0.0
H872 H 0.91769 0.8258 0.65257 0.0
H873 H 0.9499 0.79919 0.64872 0.0
C874 C 0.03946 0.90511 0.56401 0.0
C875 C 0.05925 0.90352 0.53454 0.0
C876 C 0.05374 0.83866 0.54499 0.0
C877 C 0.03446 0.84036 0.57469 0.0
N878 N 1.00391 0.87308 0.61001 0.0
N879 N 0.08138 0.86904 0.49401 0.0
C880 C 0.02573 0.87304 0.58338 0.0
C881 C 0.06503 0.87028 0.52404 0.0
N882 N 0.0344 0.93744 0.5737 0.0
N883 N 0.0626 0.8069 0.53776 0.0
H884 H 0.09221 0.8917 0.47917 0.0
H885 H 0.08277 0.84566 0.48268 0.0
H886 H 0.05308 0.78297 0.55138 0.0
H887 H 0.08037 0.80413 0.51925 0.0
H888 H 0.02364 0.94122 0.59669 0.0
H889 H 0.04243 0.96121 0.55924 0.0
H890 H 0.9938 0.8952 0.61645 0.0
H891 H 0.9937 0.84992 0.62449 0.0
C892 C 0.13989 0.69459 0.75421 0.0
C893 C 0.14487 0.7205 0.77889 0.0
C894 C 0.09456 0.74573 0.75136 0.0
C895 C 0.09459 0.72424 0.72358 0.0
N896 N 0.12202 0.68221 0.69611 0.0
N897 N 0.10677 0.74834 0.81169 0.0
C898 C 0.11864 0.69983 0.72429 0.0
C899 C 0.11676 0.74046 0.78071 0.0
N900 N 0.1496 0.66212 0.762 0.0
N901 N 0.07345 0.77135 0.74987 0.0
H902 H 0.11717 0.73758 0.83436 0.0
H903 H 0.08451 0.76014 0.81488 0.0
H904 H 0.05693 0.77618 0.72875 0.0
H905 H 0.07499 0.78977 0.7683 0.0
H906 H 0.14382 0.64137 0.74588 0.0
H907 H 0.15813 0.65447 0.78665 0.0
H908 H 0.14117 0.66586 0.69482 0.0
H909 H 0.10859 0.68741 0.67303 0.0
C910 C 0.03148 0.64111 0.54361 0.0
C911 C 0.99817 0.61753 0.54308 0.0
C912 C 0.97855 0.65463 0.5844 0.0
C913 C 0.0139 0.67175 0.59118 0.0
N914 N 0.0762 0.67221 0.5809 0.0
N915 N 0.94532 0.59677 0.57599 0.0
C916 C 0.04117 0.66182 0.57225 0.0
C917 C 0.97326 0.62258 0.56753 0.0
N918 N 0.05231 0.64718 0.51582 0.0
N919 N 0.94995 0.66965 0.59127 0.0
H920 H 0.94448 0.57039 0.57052 0.0
H921 H 0.92531 0.60119 0.59139 0.0
H922 H 0.95241 0.69511 0.5997 0.0
H923 H 0.92398 0.65832 0.58443 0.0
H924 H 0.07578 0.66569 0.51526 0.0
H925 H 0.04339 0.63837 0.49203 0.0
H926 H 0.0965 0.66394 0.56823 0.0
H927 H 0.08447 0.68516 0.60299 0.0
C928 C 0.78299 0.90765 0.26215 0.0
C929 C 0.76565 0.89817 0.2307 0.0
C930 C 0.80418 0.94789 0.20075 0.0
C931 C 0.82048 0.95797 0.23251 0.0
N932 N 0.8163 0.9544 0.29392 0.0
N933 N 0.75401 0.91392 0.17119 0.0
C934 C 0.80702 0.94005 0.26338 0.0
C935 C 0.77461 0.91963 0.20024 0.0
N936 N 0.77794 0.88486 0.29066 0.0
N937 N 0.81741 0.96473 0.17105 0.0
H938 H 0.73164 0.89412 0.17013 0.0
H939 H 0.75697 0.93078 0.14907 0.0
H940 H 0.83807 0.98627 0.17052 0.0
H941 H 0.8097 0.9558 0.14706 0.0
H942 H 0.79136 0.88954 0.31393 0.0
H943 H 0.76378 0.85919 0.29006 0.0
H944 H 0.80432 0.94431 0.31669 0.0
H945 H 0.83302 0.9786 0.29616 0.0
C946 C 0.83084 0.15504 0.31862 0.0
C947 C 0.79604 0.15276 0.30342 0.0
C948 C 0.80271 0.09693 0.27926 0.0
C949 C 0.8391 0.10188 0.29058 0.0
N950 N 0.88862 0.13599 0.3198 0.0
N951 N 0.74497 0.11542 0.27963 0.0
C952 C 0.85333 0.13091 0.31015 0.0
C953 C 0.78079 0.12178 0.28688 0.0
N954 N 0.84159 0.17895 0.34261 0.0
N955 N 0.78962 0.06967 0.25927 0.0
H956 H 0.72796 0.13256 0.28528 0.0
H957 H 0.73125 0.09165 0.27122 0.0
H958 H 0.8039 0.04987 0.25429 0.0
H959 H 0.76531 0.06754 0.2458 0.0
H960 H 0.86546 0.18013 0.35676 0.0
H961 H 0.82473 0.19484 0.35144 0.0
H962 H 0.90178 0.15885 0.33047 0.0
H963 H 0.90544 0.11813 0.31518 0.0
C964 C 0.40533 0.98665 0.01213 0.0
C965 C 0.40832 0.02325 1.0014 0.0
C966 C 0.34359 0.01544 0.99045 0.0
C967 C 0.34171 0.97811 0.99582 0.0
N968 N 0.3719 0.92755 0.00736 0.0
N969 N 0.38077 0.07244 0.97759 0.0
C970 C 0.37278 0.9635 1.00592 0.0
C971 C 0.37749 0.03779 0.99018 0.0
N972 N 0.43358 0.97409 0.02852 0.0
N973 N 0.31285 0.02944 0.98588 0.0
H974 H 0.40507 0.0896 0.97681 0.0
H975 H 0.35988 0.08348 0.96554 0.0
H976 H 0.2877 0.01365 0.98616 0.0
H977 H 0.31212 0.05657 0.98507 0.0
H978 H 0.43189 0.94841 0.03993 0.0
H979 H 0.45776 0.99042 0.03364 0.0
H980 H 0.39463 0.91572 0.01071 0.0
H981 H 0.34885 0.90955 1.00239 0.0
C982 C 0.26361 0.39604 0.35281 0.0
C983 C 0.26929 0.37068 0.32986 0.0
C984 C 0.22917 0.39606 0.28767 0.0
C985 C 0.22034 0.41886 0.31182 0.0
N986 N 0.22337 0.43345 0.37065 0.0
N987 N 0.24859 0.34039 0.27934 0.0
C988 C 0.23585 0.41675 0.3454 0.0
C989 C 0.24916 0.36872 0.29858 0.0
N990 N 0.28563 0.40168 0.38092 0.0
N991 N 0.22093 0.40183 0.25373 0.0
H992 H 0.26183 0.31919 0.28698 0.0
H993 H 0.23177 0.33613 0.25787 0.0
H994 H 0.20943 0.42338 0.24365 0.0
H995 H 0.22978 0.38781 0.23504 0.0
H996 H 0.28495 0.42233 0.39653 0.0
H997 H 0.30684 0.38802 0.38678 0.0
H998 H 0.23149 0.43012 0.39619 0.0
H999 H 0.20205 0.44735 0.36677 0.0
C1000 C 0.1532 0.03246 0.54641 0.0
C1001 C 0.15054 0.01506 0.51553 0.0
C1002 C 0.20858 0.04915 0.49906 0.0
C1003 C 0.21164 0.06594 0.53036 0.0
N1004 N 0.19166 0.06568 0.58768 0.0
N1005 N 0.18011 0.99963 0.46733 0.0
C1006 C 0.18559 0.05485 0.55537 0.0
C1007 C 0.17951 0.02142 0.4932 0.0
N1008 N 0.1242 0.0293 0.56629 0.0
N1009 N 0.23365 0.05931 0.47489 0.0
H1010 H 0.16011 0.97805 0.46318 0.0
H1011 H 0.20201 1.0005 0.45223 0.0
H1012 H 0.25753 0.07628 0.47926 0.0
H1013 H 0.22996 0.05214 0.44981 0.0
H1014 H 0.12343 0.04429 0.58716 0.0
H1015 H 0.09964 0.01429 0.56012 0.0
H1016 H 0.17517 0.05581 0.60782 0.0
H1017 H 0.21498 0.08194 0.59515 0.0
C1018 C 0.77143 0.12953 0.76297 0.0
C1019 C 0.78518 0.13776 0.72978 0.0
C1020 C 0.74301 0.08736 0.70907 0.0
C1021 C 0.73093 0.07816 0.74267 0.0
N1022 N 0.74388 0.08319 0.80308 0.0
N1023 N 0.79158 0.1167 0.67436 0.0
C1024 C 0.74837 0.0969 0.77014 0.0
C1025 C 0.77312 0.11445 0.70362 0.0
N1026 N 0.77895 0.15346 0.78737 0.0
N1027 N 0.72544 0.07085 0.68217 0.0
H1028 H 0.81525 0.13434 0.67037 0.0
H1029 H 0.78578 0.0983 0.65588 0.0
H1030 H 0.70337 0.05089 0.6851 0.0
H1031 H 0.73072 0.07931 0.65683 0.0
H1032 H 0.76873 0.14912 0.81169 0.0
H1033 H 0.7917 0.17945 0.78209 0.0
H1034 H 0.75868 0.09425 0.82369 0.0
H1035 H 0.72857 0.05859 0.80957 0.0
C1036 C 0.40228 0.0355 0.57919 0.0
C1037 C 0.43348 0.04201 0.55971 0.0
C1038 C 0.40739 0.0871 0.52279 0.0
C1039 C 0.3777 0.0828 0.54417 0.0
N1040 N 0.34826 0.05507 0.59482 0.0
N1041 N 0.46774 0.07656 0.51519 0.0
C1042 C 0.37567 0.05769 0.57302 0.0
C1043 C 0.43649 0.06844 0.53197 0.0
N1044 N 0.39723 0.00695 0.60264 0.0
N1045 N 0.40768 0.10896 0.49359 0.0
H1046 H 0.48939 0.06352 0.52124 0.0
H1047 H 0.47335 0.09786 0.49709 0.0
H1048 H 0.38751 0.1238 0.48683 0.0
H1049 H 0.42648 0.11062 0.47492 0.0
H1050 H 0.37337 0.99805 0.61482 0.0
H1051 H 0.41589 0.99005 0.60796 0.0
H1052 H 0.34778 0.04111 0.61863 0.0
H1053 H 0.32674 0.06853 0.59012 0.0
C1054 C 0.63243 0.50212 0.47553 0.0
C1055 C 0.62692 0.49776 0.51111 0.0
C1056 C 0.68281 0.47387 0.51889 0.0
C1057 C 0.68226 0.46834 0.48345 0.0
N1058 N 0.65596 0.48053 0.42693 0.0
N1059 N 0.64932 0.48189 0.56767 0.0
C1060 C 0.65724 0.48377 0.4613 0.0
C1061 C 0.65296 0.48452 0.53313 0.0
N1062 N 0.61513 0.52504 0.45542 0.0
N1063 N 0.71286 0.47118 0.5386 0.0
H1064 H 0.6297 0.49209 0.57951 0.0
H1065 H 0.66495 0.46807 0.58446 0.0
H1066 H 0.7365 0.46702 0.52842 0.0
H1067 H 0.71588 0.4778 0.56389 0.0
H1068 H 0.62056 0.5318 0.42981 0.0
H1069 H 0.59888 0.54089 0.46532 0.0
H1070 H 0.63458 0.48618 0.41119 0.0
H1071 H 0.67516 0.4714 0.41383 0.0
C1072 C 0.68226 0.28356 0.39653 0.0
C1073 C 0.70886 0.27848 0.37404 0.0
C1074 C 0.75107 0.32364 0.40248 0.0
C1075 C 0.72303 0.3328 0.42085 0.0
N1076 N 0.66006 0.3243 0.43101 0.0
N1077 N 0.76668 0.30042 0.35081 0.0
C1078 C 0.68799 0.31376 0.41633 0.0
C1079 C 0.74265 0.30075 0.37545 0.0
N1080 N 0.65276 0.25822 0.40126 0.0
N1081 N 0.78584 0.33477 0.41196 0.0
H1082 H 0.76043 0.28656 0.32893 0.0
H1083 H 0.79136 0.31689 0.35018 0.0
H1084 H 0.7936 0.34962 0.43293 0.0
H1085 H 0.80697 0.3259 0.40127 0.0
H1086 H 0.63416 0.25922 0.41961 0.0
H1087 H 0.64924 0.23404 0.39007 0.0
H1088 H 0.63361 0.31345 0.42567 0.0
H1089 H 0.66307 0.34626 0.44565 0.0
C1090 C 0.59675 0.03333 0.91329 0.0
C1091 C 0.55945 0.02173 0.91575 0.0
C1092 C 0.55765 1.00221 0.85702 0.0
C1093 C 0.59522 0.01113 0.85629 0.0
N1094 N 0.65109 0.02628 0.88692 0.0
N1095 N 0.5038 0.995 0.88939 0.0
C1096 C 0.61487 0.02363 0.88558 0.0
C1097 C 0.5397 1.00606 0.88739 0.0
N1098 N 0.6147 0.05567 0.93608 0.0
N1099 N 0.53921 0.99068 0.82831 0.0
H1100 H 0.48896 1.00069 0.90921 0.0
H1101 H 0.48857 0.97942 0.87178 0.0
H1102 H 0.55205 0.98449 0.80726 0.0
H1103 H 0.51168 0.98792 0.82491 0.0
H1104 H 0.64127 0.06736 0.93354 0.0
H1105 H 0.6021 0.06638 0.9548 0.0
H1106 H 0.66663 0.03202 0.90892 0.0
H1107 H 0.66516 0.01943 0.86697 0.0
C1108 C 0.32097 0.23777 0.39741 0.0
C1109 C 0.32254 0.27458 0.40203 0.0
C1110 C 0.31717 0.26015 0.46378 0.0
C1111 C 0.31738 0.22372 0.45925 0.0
N1112 N 0.32945 0.1798 0.42292 0.0
N1113 N 0.33244 0.32126 0.44098 0.0
C1114 C 0.32306 0.21337 0.42644 0.0
C1115 C 0.32392 0.28594 0.43569 0.0
N1116 N 0.3148 0.22555 0.36559 0.0
N1117 N 0.30897 0.26999 0.49465 0.0
H1118 H 0.33861 0.34078 0.42119 0.0
H1119 H 0.33694 0.33076 0.46518 0.0
H1120 H 0.30468 0.25184 0.51573 0.0
H1121 H 0.30421 0.29537 0.4986 0.0
H1122 H 0.30987 0.19862 0.36126 0.0
H1123 H 0.31072 0.24195 0.34385 0.0
H1124 H 0.33677 0.17154 0.40003 0.0
H1125 H 0.33077 0.16142 0.44379 0.0
C1126 C 0.48077 0.49352 0.89537 0.0
C1127 C 0.51847 0.50015 0.89277 0.0
C1128 C 0.51227 0.52983 0.83568 0.0
C1129 C 0.47493 0.51988 0.83708 0.0
N1130 N 0.42342 0.50487 0.87149 0.0
N1131 N 0.56912 0.53747 0.86693 0.0
C1132 C 0.45915 0.50609 0.86821 0.0
C1133 C 0.534 0.52256 0.86497 0.0
N1134 N 0.46555 0.47383 0.92299 0.0
N1135 N 0.52684 0.54543 0.80609 0.0
H1136 H 0.58502 0.53451 0.88889 0.0
H1137 H 0.58136 0.55595 0.84852 0.0
H1138 H 0.51112 0.55368 0.78557 0.0
H1139 H 0.55399 0.54933 0.80167 0.0
H1140 H 0.43842 0.46404 0.92419 0.0
H1141 H 0.48019 0.46586 0.94437 0.0
H1142 H 0.41051 0.49801 0.89439 0.0
H1143 H 0.40722 0.51393 0.85177 0.0
C1144 C 0.72728 0.71397 0.14916 0.0
C1145 C 0.72925 0.75139 0.14326 0.0
C1146 C 0.75836 0.75004 0.08929 0.0
C1147 C 0.75504 0.71249 0.09418 0.0
N1148 N 0.74519 0.65983 0.1327 0.0
N1149 N 0.76056 0.80544 0.11583 0.0
C1150 C 0.74256 0.69483 0.12554 0.0
C1151 C 0.74933 0.76961 0.11592 0.0
N1152 N 0.70991 0.69663 0.17681 0.0
N1153 N 0.76919 0.76705 0.05882 0.0
H1154 H 0.75632 0.82016 0.13605 0.0
H1155 H 0.7778 0.81965 0.09795 0.0
H1156 H 0.77678 0.75378 0.03894 0.0
H1157 H 0.76819 0.79381 0.05245 0.0
H1158 H 0.703 0.66912 0.18011 0.0
H1159 H 0.70122 0.70985 0.19621 0.0
H1160 H 0.7397 0.64622 0.1563 0.0
H1161 H 0.75593 0.64494 0.11604 0.0
C1162 C 0.01875 0.05649 0.1446 0.0
C1163 C 1.00239 0.0498 0.11203 0.0
C1164 C 0.94538 0.02734 0.13882 0.0
C1165 C 0.96233 0.0308 0.17151 0.0
N1166 N 0.01583 0.04515 0.20616 0.0
N1167 N 0.95224 0.02153 0.07879 0.0
C1168 C 0.99932 0.0442 0.17459 0.0
C1169 C 0.96628 0.03311 0.10935 0.0
N1170 N 0.05222 0.07587 0.14681 0.0
N1171 N 0.90913 0.01936 0.1358 0.0
H1172 H 0.96689 0.02437 0.05671 0.0
H1173 H 0.92725 1.00592 0.07611 0.0
H1174 H 0.89296 0.01518 0.15683 0.0
H1175 H 0.895 0.02018 0.11252 0.0
H1176 H 0.06422 0.08487 0.16953 0.0
H1177 H 0.06708 0.0854 0.12544 0.0
H1178 H 0.04334 0.05078 0.21004 0.0
H1179 H 1.00203 0.03815 0.22863 0.0
C1180 C 0.27159 0.77933 0.11632 0.0
C1181 C 0.30358 0.78991 0.13554 0.0
C1182 C 0.32042 0.8406 0.09389 0.0
C1183 C 0.28682 0.8322 0.07681 0.0
N1184 N 0.23001 0.79411 0.07096 0.0
N1185 N 0.36381 0.82174 0.1354 0.0
C1186 C 0.26242 0.80149 0.08763 0.0
C1187 C 0.3297 0.81791 0.12212 0.0
N1188 N 0.251 0.74716 0.1245 0.0
N1189 N 0.34262 0.87135 0.08431 0.0
H1190 H 0.37204 0.80442 0.15476 0.0
H1191 H 0.38491 0.83946 0.12486 0.0
H1192 H 0.33669 0.88849 0.06374 0.0
H1193 H 0.36559 0.88132 0.09812 0.0
H1194 H 0.22901 0.73618 0.10995 0.0
H1195 H 0.25787 0.72942 0.14413 0.0
H1196 H 0.20908 0.77512 0.07996 0.0
H1197 H 0.22319 0.80829 0.04861 0.0
C1198 C 0.07027 0.51097 0.13614 0.0
C1199 C 0.03277 0.50361 0.1399 0.0
C1200 C 0.04242 0.50269 0.20244 0.0
C1201 C 0.07987 0.50685 0.19865 0.0
N1202 N 0.12911 0.50911 0.16169 0.0
N1203 N 0.98323 0.48622 0.17692 0.0
C1204 C 0.09363 0.50899 0.16542 0.0
C1205 C 0.01885 0.49781 0.17317 0.0
N1206 N 0.08367 0.52154 0.10465 0.0
N1207 N 0.02932 0.50375 0.23402 0.0
H1208 H 0.96525 0.48205 0.15627 0.0
H1209 H 0.97193 0.47783 0.20037 0.0
H1210 H 0.04551 0.5056 0.25611 0.0
H1211 H 1.00279 0.50512 0.23806 0.0
H1212 H 0.1105 0.53105 0.10068 0.0
H1213 H 0.06755 0.52421 0.08276 0.0
H1214 H 0.14013 0.50675 0.13841 0.0
H1215 H 0.14719 0.50839 0.18228 0.0
C1216 C 0.39775 0.74679 0.2856 0.0
C1217 C 0.39428 0.71324 0.27144 0.0
C1218 C 0.4397 0.69653 0.31293 0.0
C1219 C 0.44564 0.7313 0.32468 0.0
N1220 N 0.43821 0.79275 0.31254 0.0
N1221 N 0.41986 0.66048 0.26566 0.0
C1222 C 0.42708 0.7575 0.30815 0.0
C1223 C 0.41754 0.68928 0.2834 0.0
N1224 N 0.37248 0.76805 0.27869 0.0
N1225 N 0.45458 0.6701 0.33027 0.0
H1226 H 0.40569 0.65543 0.24276 0.0
H1227 H 0.4388 0.64403 0.27156 0.0
H1228 H 0.47048 0.67421 0.35224 0.0
H1229 H 0.44809 0.64351 0.32485 0.0
H1230 H 0.37327 0.79215 0.28955 0.0
H1231 H 0.34858 0.7599 0.26543 0.0
H1232 H 0.42735 0.81283 0.29851 0.0
H1233 H 0.46081 0.8023 0.32707 0.0
C1234 C 0.01717 0.3737 0.0111 0.0
C1235 C 0.01039 0.40715 0.99598 0.0
C1236 C 1.00318 0.38244 0.93976 0.0
C1237 C 1.00816 0.34868 0.95484 0.0
N1238 N 0.01587 0.31056 1.00518 0.0
N1239 N 0.98417 0.43824 0.94815 0.0
C1240 C 0.01397 0.34385 0.99067 0.0
C1241 C 0.99967 0.41006 0.96094 0.0
N1242 N 0.02691 0.37048 0.04494 0.0
N1243 N 1.00214 0.38836 0.90504 0.0
H1244 H 0.97799 0.45733 0.9634 0.0
H1245 H 0.97311 0.44008 0.92348 0.0
H1246 H 1.00448 0.3688 0.88862 0.0
H1247 H 1.0022 0.41348 0.89272 0.0
H1248 H 0.03677 0.34858 0.05655 0.0
H1249 H 0.02619 0.3903 0.06151 0.0
H1250 H 0.01574 0.304 0.03135 0.0
H1251 H 0.01589 0.28883 0.99072 0.0
C1252 C 0.66008 0.82645 0.31213 0.0
C1253 C 0.65325 0.82594 0.27637 0.0
C1254 C 0.5892 0.81085 0.28613 0.0
C1255 C 0.59601 0.81453 0.32174 0.0
N1256 N 0.63753 0.83582 0.3666 0.0
N1257 N 0.61083 0.8262 0.229 0.0
C1258 C 0.63136 0.82564 0.33404 0.0
C1259 C 0.61762 0.82098 0.26326 0.0
N1260 N 0.69364 0.8255 0.32547 0.0
N1261 N 0.55652 0.79535 0.27411 0.0
H1262 H 0.63097 0.83371 0.21151 0.0
H1263 H 0.58528 0.82644 0.21844 0.0
H1264 H 0.53506 0.78588 0.28955 0.0
H1265 H 0.55166 0.78862 0.24896 0.0
H1266 H 0.69941 0.82263 0.35159 0.0
H1267 H 0.71485 0.8233 0.31046 0.0
H1268 H 0.66261 0.84705 0.37588 0.0
H1269 H 0.61696 0.83676 0.38296 0.0
C1270 C 0.98453 0.14455 0.00722 0.0
C1271 C 1.00735 0.12144 0.99796 0.0
C1272 C 0.01351 0.1559 0.94228 0.0
C1273 C 0.99955 0.18396 0.95621 0.0
N1274 N 0.97478 0.20502 1.00499 0.0
N1275 N 0.01898 0.09339 0.94809 0.0
C1276 C 0.98609 0.17834 0.9896 0.0
C1277 C 0.01541 0.12371 0.96285 0.0
N1278 N 0.95608 0.13182 0.02691 0.0
N1279 N 0.02443 0.15944 0.90941 0.0
H1280 H 0.01435 0.06853 0.96151 0.0
H1281 H 0.02154 0.09195 0.92203 0.0
H1282 H 0.0196 0.17999 0.89187 0.0
H1283 H 0.03955 0.1424 0.89979 0.0
H1284 H 0.93719 0.14734 0.03215 0.0
H1285 H 0.94822 0.10456 0.03238 0.0
H1286 H 0.96679 0.2018 0.03024 0.0
H1287 H 0.97675 0.2309 0.99397 0.0
C1288 C 0.38867 0.28978 0.21099 0.0
C1289 C 0.39537 0.29687 0.24614 0.0
C1290 C 0.45858 0.29233 0.2396 0.0
C1291 C 0.45116 0.28386 0.20549 0.0
N1292 N 0.41329 0.28688 0.15557 0.0
N1293 N 0.43519 0.2919 0.29557 0.0
C1294 C 0.41743 0.28655 0.19026 0.0
C1295 C 0.43006 0.29508 0.26096 0.0
N1296 N 0.35449 0.28228 0.19807 0.0
N1297 N 0.49312 0.29866 0.25131 0.0
H1298 H 0.41442 0.28827 0.31235 0.0
H1299 H 0.45916 0.28749 0.30753 0.0
H1300 H 0.51422 0.29854 0.23535 0.0
H1301 H 0.50082 0.30818 0.27509 0.0
H1302 H 0.34818 0.27346 0.17381 0.0
H1303 H 0.33197 0.2801 0.2126 0.0
H1304 H 0.39049 0.29261 0.14217 0.0
H1305 H 0.43435 0.28515 0.14003 0.0
C1306 C 0.57153 0.37845 0.03119 0.0
C1307 C 0.56753 0.41116 0.04408 0.0
C1308 C 0.54537 0.37957 0.09763 0.0
C1309 C 0.54793 0.34673 0.08416 0.0
N1310 N 0.55868 0.314 0.03672 0.0
N1311 N 0.54574 0.44304 0.08688 0.0
C1312 C 0.55937 0.34591 0.05041 0.0
C1313 C 0.5531 0.41177 0.07661 0.0
N1314 N 0.58837 0.37866 1.00117 0.0
N1315 N 0.53579 0.37994 0.13068 0.0
H1316 H 0.55136 0.46712 0.07229 0.0
H1317 H 0.53174 0.4449 0.10858 0.0
H1318 H 0.5275 0.35685 0.14606 0.0
H1319 H 0.53766 0.403 0.14351 0.0
H1320 H 0.59587 0.35624 0.99215 0.0
H1321 H 0.5974 0.4019 0.98627 0.0
H1322 H 0.56258 0.31149 0.01107 0.0
H1323 H 0.5518 0.28959 0.05046 0.0
C1324 C 0.60069 0.21966 0.29272 0.0
C1325 C 0.63165 0.20541 0.28604 0.0
C1326 C 0.60719 0.19239 0.22905 0.0
C1327 C 0.57956 0.21207 0.23316 0.0
N1328 N 0.54691 0.24092 0.27049 0.0
N1329 N 0.63936 0.15173 0.26099 0.0
C1330 C 0.57515 0.22438 0.26566 0.0
C1331 C 0.62881 0.18415 0.25771 0.0
N1332 N 0.59334 0.22366 0.32569 0.0
N1333 N 0.61243 0.1805 0.19822 0.0
H1334 H 0.64591 0.14024 0.28489 0.0
H1335 H 0.63528 0.13417 0.24162 0.0
H1336 H 0.59695 0.18568 0.17651 0.0
H1337 H 0.63395 0.16784 0.19417 0.0
H1338 H 0.57013 0.23144 0.33311 0.0
H1339 H 0.60863 0.21445 0.34604 0.0
H1340 H 0.54444 0.25458 0.2919 0.0
H1341 H 0.52643 0.24205 0.25217 0.0
C1342 C 0.52921 0.12176 0.06753 0.0
C1343 C 0.5006 0.12235 0.04314 0.0
C1344 C 0.48769 0.17696 0.06591 0.0
C1345 C 0.51746 0.17732 0.08923 0.0
N1346 N 0.57152 0.15472 0.10604 0.0
N1347 N 0.45823 0.15524 0.01382 0.0
C1348 C 0.53985 0.15126 0.08795 0.0
C1349 C 0.48128 0.15121 0.04099 0.0
N1350 N 0.54517 0.09226 0.07246 0.0
N1351 N 0.46569 0.2016 0.06705 0.0
H1352 H 0.45408 0.13802 0.99421 0.0
H1353 H 0.44601 0.17753 0.00869 0.0
H1354 H 0.471 0.22312 0.08221 0.0
H1355 H 0.44092 0.19955 0.05437 0.0
H1356 H 0.56351 0.08865 0.09233 0.0
H1357 H 0.53759 0.06979 0.05877 0.0
H1358 H 0.59069 0.13874 0.10339 0.0
H1359 H 0.57991 0.17544 0.12168 0.0
C1360 C 0.27874 0.4198 0.70446 0.0
C1361 C 0.26964 0.39774 0.73454 0.0
C1362 C 0.3115 0.43836 0.76798 0.0
C1363 C 0.32499 0.45691 0.73735 0.0
N1364 N 0.32219 0.46466 0.67591 0.0
N1365 N 0.28171 0.3829 0.79424 0.0
C1366 C 0.30864 0.4476 0.7054 0.0
C1367 C 0.28712 0.40625 0.76615 0.0
N1368 N 0.25797 0.41508 0.67538 0.0
N1369 N 0.32097 0.45189 0.79887 0.0
H1370 H 0.26671 0.35762 0.79328 0.0
H1371 H 0.29542 0.38673 0.81751 0.0
H1372 H 0.33786 0.47589 0.80165 0.0
H1373 H 0.309 0.4413 0.82151 0.0
H1374 H 0.26107 0.43249 0.65363 0.0
H1375 H 0.23535 0.39562 0.674 0.0
H1376 H 0.31424 0.45629 0.65177 0.0
H1377 H 0.34353 0.48555 0.67565 0.0
C1378 C 0.32343 0.63813 0.83726 0.0
C1379 C 0.29074 0.63955 0.81861 0.0
C1380 C 0.31126 0.60659 0.7741 0.0
C1381 C 0.34044 0.59975 0.79591 0.0
N1382 N 0.37346 0.60683 0.84929 0.0
N1383 N 0.25423 0.62679 0.76771 0.0
C1384 C 0.34629 0.61489 0.82782 0.0
C1385 C 0.28504 0.62456 0.78637 0.0
N1386 N 0.33351 0.66018 0.86294 0.0
N1387 N 0.30876 0.59624 0.74143 0.0
H1388 H 0.23589 0.64245 0.77374 0.0
H1389 H 0.24598 0.61202 0.7468 0.0
H1390 H 0.32654 0.58188 0.73179 0.0
H1391 H 0.29075 0.6041 0.72289 0.0
H1392 H 0.35834 0.66231 0.87553 0.0
H1393 H 0.31903 0.67962 0.86878 0.0
H1394 H 0.37651 0.61375 0.87448 0.0
H1395 H 0.39153 0.59102 0.84265 0.0
C1396 C 0.90166 0.49339 0.50253 0.0
C1397 C 0.90594 0.52829 0.48644 0.0
C1398 C 0.84236 0.51866 0.46983 0.0
C1399 C 0.83984 0.48202 0.48078 0.0
N1400 N 0.87001 0.43334 0.50152 0.0
N1401 N 0.88101 0.57366 0.45228 0.0
C1402 C 0.87016 0.46906 0.49583 0.0
C1403 C 0.87637 0.54096 0.46958 0.0
N1404 N 0.92763 0.48352 0.52456 0.0
N1405 N 0.81213 0.53226 0.46045 0.0
H1406 H 0.90546 0.59065 0.45184 0.0
H1407 H 0.86135 0.58281 0.43642 0.0
H1408 H 0.78681 0.51685 0.46123 0.0
H1409 H 0.81182 0.5593 0.45518 0.0
H1410 H 0.9243 0.45955 0.53948 0.0
H1411 H 0.9509 0.50077 0.53066 0.0
H1412 H 0.89275 0.42258 0.50908 0.0
H1413 H 0.84831 0.4142 0.49538 0.0
C1414 C 0.78629 0.91837 0.82719 0.0
C1415 C 0.77389 0.88122 0.83145 0.0
C1416 C 0.71228 0.89346 0.82361 0.0
C1417 C 0.72511 0.92988 0.81404 0.0
N1418 N 0.77626 0.9743 0.79896 0.0
N1419 N 0.72446 0.83298 0.82804 0.0
C1420 C 0.76265 0.9417 0.81391 0.0
C1421 C 0.73665 0.86862 0.82822 0.0
N1422 N 0.82065 0.93167 0.83638 0.0
N1423 N 0.67695 0.88266 0.82951 0.0
H1424 H 0.74128 0.81401 0.83055 0.0
H1425 H 0.69804 0.82249 0.82218 0.0
H1426 H 0.65861 0.90015 0.82788 0.0
H1427 H 0.66665 0.85723 0.83962 0.0
H1428 H 0.83009 0.95882 0.83693 0.0
H1429 H 0.83853 0.91567 0.847 0.0
H1430 H 0.8034 0.98251 0.79536 0.0
H1431 H 0.76066 0.99144 0.78635 0.0
C1432 C 0.65907 0.5416 0.04764 0.0
C1433 C 0.65463 0.52361 0.01702 0.0
C1434 C 0.7124 0.55671 0.99817 0.0
C1435 C 0.71671 0.5744 0.02904 0.0
N1436 N 0.69597 0.58003 0.08519 0.0
N1437 N 0.68061 0.50826 0.96667 0.0
C1438 C 0.69101 0.5651 0.05455 0.0
C1439 C 0.68227 0.52971 0.99316 0.0
N1440 N 0.63268 0.53809 0.07048 0.0
N1441 N 0.73723 0.56554 0.9736 0.0
H1442 H 0.6596 0.48754 0.9628 0.0
H1443 H 0.70134 0.50866 0.95027 0.0
H1444 H 0.76163 0.58185 0.97751 0.0
H1445 H 0.73305 0.558 0.94868 0.0
H1446 H 0.60744 0.52303 0.06719 0.0
H1447 H 0.60744 0.52303 0.06719 0.0
H1448 H 0.67757 0.57389 0.10451 0.0
H1449 H 0.71839 0.59827 0.09133 0.0
C1450 C 0.27168 0.60889 0.20756 0.0
C1451 C 0.28404 0.63085 0.2347 0.0
C1452 C 0.24816 0.58772 0.27392 0.0
C1453 C 0.23006 0.57067 0.24576 0.0
N1454 N 0.22377 0.56641 0.18484 0.0
N1455 N 0.27939 0.64292 0.29373 0.0
C1456 C 0.2417 0.58153 0.21228 0.0
C1457 C 0.27119 0.62061 0.26799 0.0
N1458 N 0.28973 0.61274 0.17793 0.0
N1459 N 0.24413 0.57221 0.3063 0.0
H1460 H 0.29171 0.66921 0.28959 0.0
H1461 H 0.27003 0.63704 0.31829 0.0
H1462 H 0.22874 0.54742 0.31178 0.0
H1463 H 0.25936 0.58192 0.32726 0.0
H1464 H 0.28371 0.59537 0.15858 0.0
H1465 H 0.31336 0.63059 0.17438 0.0
H1466 H 0.22868 0.57616 0.15974 0.0
H1467 H 0.20185 0.54621 0.18723 0.0
C1468 C 0.93979 0.57083 0.0331 0.0
C1469 C 0.93542 0.5445 0.0609 0.0
C1470 C 0.87891 0.56333 0.07375 0.0
C1471 C 0.88216 0.58824 0.04474 0.0
N1472 N 0.91329 0.61266 0.99423 0.0
N1473 N 0.8976 0.51124 0.10366 0.0
C1474 C 0.91186 0.59094 0.02357 0.0
C1475 C 0.90414 0.53966 0.08018 0.0
N1476 N 0.97125 0.57747 0.0166 0.0
N1477 N 0.85165 0.56226 0.09543 0.0
H1478 H 0.91514 0.49321 0.10907 0.0
H1479 H 0.87349 0.50358 0.11571 0.0
H1480 H 0.83106 0.57693 0.09062 0.0
H1481 H 0.85049 0.54841 0.11931 0.0
H1482 H 0.97789 0.59859 0.9985 0.0
H1483 H 0.99209 0.56338 0.02291 0.0
H1484 H 0.93201 0.61316 0.97568 0.0
H1485 H 0.89411 0.62863 0.98725 0.0
C1486 C 0.13334 1.00228 0.97224 0.0
C1487 C 0.12445 0.99819 0.00706 0.0
C1488 C 0.17962 0.974 0.02043 0.0
C1489 C 0.18256 0.96836 0.98535 0.0
N1490 N 0.16186 0.98076 0.92666 0.0
N1491 N 0.14173 0.98329 0.06552 0.0
C1492 C 0.15969 0.9839 0.9608 0.0
C1493 C 0.14848 0.98515 0.03156 0.0
N1494 N 0.11773 0.02502 0.95025 0.0
N1495 N 0.20769 0.97106 0.04279 0.0
H1496 H 0.1213 0.99425 0.07514 0.0
H1497 H 0.15566 0.96956 0.08401 0.0
H1498 H 0.23225 0.96658 0.03498 0.0
H1499 H 0.20832 0.97775 0.06801 0.0
H1500 H 0.12561 0.03174 0.92524 0.0
H1501 H 0.10023 0.04074 0.95821 0.0
H1502 H 0.14187 0.98615 0.90902 0.0
H1503 H 0.18266 0.97221 0.91548 0.0
loop_
_geom_bond_atom_site_label_1
_geom_bond_atom_site_label_2
_geom_bond_distance
_geom_bond_site_symmetry_2
_ccdc_geom_bond_type
H0 C7 0.929 . S
H1 C10 0.930 1_565 S
H2 C12 0.911 1_556 S
H3 C4 0.969 . S
C4 H3 0.969 . S
C4 O5 1.550 1_565 S
C4 H6 0.973 . S
O5 C4 1.550 1_545 S
O5 C11 1.412 . S
H6 C4 0.973 . S
C7 H0 0.929 . S
C7 C8 1.400 1_655 S
C7 C9 1.364 1_655 S
C8 C7 1.400 1_455 S
C8 C12 1.383 . S
C9 C7 1.364 1_455 S
C9 C10 1.374 . S
C10 H1 0.930 1_545 S
C10 C9 1.374 . S
C10 C11 1.383 . S
C11 O5 1.412 . S
C11 C10 1.383 . S
C11 C12 1.407 . S
C12 H2 0.911 1_554 S
C12 C8 1.383 . S
C12 C11 1.407 . S
H13 C20 0.929 . S
H14 C23 0.930 . S
H15 C25 0.929 . S
H16 C17 0.969 . S
C17 H16 0.969 . S
C17 O18 1.550 . S
C17 H19 0.973 . S
O18 C17 1.550 . S
O18 C24 1.412 . S
H19 C17 0.973 . S
C20 H13 0.929 . S
C20 C21 1.400 . S
C20 C22 1.364 . S
C21 C20 1.400 . S
C21 C25 1.377 . S
C22 C20 1.364 . S
C22 C23 1.374 . S
C23 H14 0.930 . S
C23 C22 1.374 . S
C23 C24 1.383 . S
C24 O18 1.412 . S
C24 C23 1.383 . S
C24 C25 1.394 . S
C25 H15 0.929 . S
C25 C21 1.377 . S
C25 C24 1.394 . S
H26 C33 0.929 . S
H27 C36 0.930 . S
H28 C38 0.929 . S
H29 C30 0.969 . S
C30 H29 0.969 . S
C30 O31 1.550 1_556 S
C30 H32 0.973 . S
O31 C30 1.550 1_554 S
O31 C37 1.412 . S
H32 C30 0.973 . S
C33 H26 0.929 . S
C33 C34 1.400 1_655 S
C33 C35 1.364 . S
C34 C33 1.400 1_455 S
C34 C38 1.377 . S
C35 C33 1.364 . S
C35 C36 1.374 . S
C36 H27 0.930 . S
C36 C35 1.374 . S
C36 C37 1.383 . S
C37 O31 1.412 . S
C37 C36 1.383 . S
C37 C38 1.394 1_655 S
C38 H28 0.929 . S
C38 C34 1.377 . S
C38 C37 1.394 1_455 S
H39 C46 0.929 . S
H40 C49 0.930 . S
H41 C51 0.929 . S
H42 C43 0.969 . S
C43 H42 0.969 . S
C43 O44 1.550 . S
C43 H45 0.973 . S
O44 C43 1.550 . S
O44 C50 1.412 . S
H45 C43 0.973 . S
C46 H39 0.929 . S
C46 C47 1.400 . S
C46 C48 1.364 . S
C47 C46 1.400 . S
C47 C51 1.377 . S
C48 C46 1.364 . S
C48 C49 1.374 . S
C49 H40 0.930 . S
C49 C48 1.374 . S
C49 C50 1.383 . S
C50 O44 1.412 . S
C50 C49 1.383 . S
C50 C51 1.394 . S
C51 H41 0.929 . S
C51 C47 1.377 . S
C51 C50 1.394 . S
H52 C59 0.929 . S
H53 C62 0.930 . S
H54 C64 0.929 . S
H55 C56 0.969 . S
C56 H55 0.969 . S
C56 O57 1.550 1_655 S
C56 H58 0.973 . S
O57 C56 1.550 1_455 S
O57 C63 1.412 . S
H58 C56 0.973 . S
C59 H52 0.929 . S
C59 C60 1.400 1_565 S
C59 C61 1.364 . S
C60 C59 1.400 1_545 S
C60 C64 1.377 . S
C61 C59 1.364 . S
C61 C62 1.374 . S
C62 H53 0.930 . S
C62 C61 1.374 . S
C62 C63 1.383 . S
C63 O57 1.412 . S
C63 C62 1.383 . S
C63 C64 1.394 1_565 S
C64 H54 0.929 . S
C64 C60 1.377 . S
C64 C63 1.394 1_545 S
H65 C72 0.929 . S
H66 C75 0.930 . S
H67 C77 0.929 . S
H68 C69 0.969 . S
C69 H68 0.969 . S
C69 O70 1.550 . S
C69 H71 0.973 . S
O70 C69 1.550 . S
O70 C76 1.412 . S
H71 C69 0.973 . S
C72 H65 0.929 . S
C72 C73 1.400 . S
C72 C74 1.364 . S
C73 C72 1.400 . S
C73 C77 1.377 . S
C74 C72 1.364 . S
C74 C75 1.374 . S
C75 H66 0.930 . S
C75 C74 1.374 . S
C75 C76 1.383 . S
C76 O70 1.412 . S
C76 C75 1.383 . S
C76 C77 1.394 . S
C77 H67 0.929 . S
C77 C73 1.377 . S
C77 C76 1.394 . S
H78 C85 0.929 . S
H79 C88 0.930 . S
H80 C90 0.929 . S
H81 C82 0.969 . S
C82 H81 0.969 . S
C82 O83 1.550 . S
C82 H84 0.973 . S
O83 C82 1.550 . S
O83 C89 1.412 . S
H84 C82 0.973 . S
C85 H78 0.929 . S
C85 C86 1.400 . S
C85 C87 1.364 . S
C86 C85 1.400 . S
C86 C90 1.377 1_655 S
C87 C85 1.364 . S
C87 C88 1.374 . S
C88 H79 0.930 . S
C88 C87 1.374 . S
C88 C89 1.383 1_655 S
C89 O83 1.412 . S
C89 C88 1.383 1_455 S
C89 C90 1.394 . S
C90 H80 0.929 . S
C90 C86 1.377 1_455 S
C90 C89 1.394 . S
H91 C98 0.929 . S
H92 C101 0.930 . S
H93 C103 0.929 . S
H94 C95 0.969 . S
C95 H94 0.969 . S
C95 O96 1.550 . S
C95 H97 0.973 . S
O96 C95 1.550 . S
O96 C102 1.412 . S
H97 C95 0.973 . S
C98 H91 0.929 . S
C98 C99 1.400 . S
C98 C100 1.364 . S
C99 C98 1.400 . S
C99 C103 1.377 . S
C100 C98 1.364 . S
C100 C101 1.374 . S
C101 H92 0.930 . S
C101 C100 1.374 . S
C101 C102 1.383 . S
C102 O96 1.412 . S
C102 C101 1.383 . S
C102 C103 1.394 . S
C103 H93 0.929 . S
C103 C99 1.377 . S
C103 C102 1.394 . S
H104 C111 0.929 . S
H105 C114 0.930 . S
H106 C116 0.929 . S
H107 C108 0.969 . S
C108 H107 0.969 . S
C108 O109 1.550 . S
C108 H110 0.973 . S
O109 C108 1.550 . S
O109 C115 1.412 . S
H110 C108 0.973 . S
C111 H104 0.929 . S
C111 C112 1.400 . S
C111 C113 1.364 . S
C112 C111 1.400 . S
C112 C116 1.377 . S
C113 C111 1.364 . S
C113 C114 1.374 . S
C114 H105 0.930 . S
C114 C113 1.374 . S
C114 C115 1.383 . S
C115 O109 1.412 . S
C115 C114 1.383 . S
C115 C116 1.394 . S
C116 H106 0.929 . S
C116 C112 1.377 . S
C116 C115 1.394 . S
H117 C124 0.929 . S
H118 C127 0.930 . S
H119 C129 0.929 . S
H120 C121 0.969 . S
C121 H120 0.969 . S
C121 O122 1.550 . S
C121 H123 0.973 . S
O122 C121 1.550 . S
O122 C128 1.412 . S
H123 C121 0.973 . S
C124 H117 0.929 . S
C124 C125 1.400 1_545 S
C124 C126 1.364 1_545 S
C125 C124 1.400 1_565 S
C125 C129 1.377 . S
C126 C124 1.364 1_565 S
C126 C127 1.374 . S
C127 H118 0.930 . S
C127 C126 1.374 . S
C127 C128 1.383 . S
C128 O122 1.412 . S
C128 C127 1.383 . S
C128 C129 1.394 . S
C129 H119 0.929 . S
C129 C125 1.377 . S
C129 C128 1.394 . S
H130 C137 0.929 . S
H131 C140 0.930 . S
H132 C142 0.929 . S
H133 C134 0.969 . S
C134 H133 0.969 . S
C134 O135 1.550 . S
C134 H136 0.973 . S
O135 C134 1.550 . S
O135 C141 1.412 . S
H136 C134 0.973 . S
C137 H130 0.929 . S
C137 C138 1.400 . S
C137 C139 1.364 . S
C138 C137 1.400 . S
C138 C142 1.377 . S
C139 C137 1.364 . S
C139 C140 1.374 . S
C140 H131 0.930 . S
C140 C139 1.374 . S
C140 C141 1.383 . S
C141 O135 1.412 . S
C141 C140 1.383 . S
C141 C142 1.394 . S
C142 H132 0.929 . S
C142 C138 1.377 . S
C142 C141 1.394 . S
H143 C150 0.929 . S
H144 C153 0.930 . S
H145 C155 0.929 . S
H146 C147 0.969 . S
C147 H146 0.969 . S
C147 O148 1.550 . S
C147 H149 0.973 . S
O148 C147 1.550 . S
O148 C154 1.412 . S
H149 C147 0.973 . S
C150 H143 0.929 . S
C150 C151 1.400 . S
C150 C152 1.364 . S
C151 C150 1.400 . S
C151 C155 1.377 . S
C152 C150 1.364 . S
C152 C153 1.374 . S
C153 H144 0.930 . S
C153 C152 1.374 . S
C153 C154 1.383 . S
C154 O148 1.412 . S
C154 C153 1.383 . S
C154 C155 1.394 . S
C155 H145 0.929 . S
C155 C151 1.377 . S
C155 C154 1.394 . S
H156 C163 0.929 . S
H157 C166 0.930 . S
H158 C168 0.929 . S
H159 C160 0.969 . S
C160 H159 0.969 . S
C160 O161 1.550 . S
C160 H162 0.973 . S
O161 C160 1.550 . S
O161 C167 1.412 . S
H162 C160 0.973 . S
C163 H156 0.929 . S
C163 C164 1.400 . S
C163 C165 1.364 . S
C164 C163 1.400 . S
C164 C168 1.377 . S
C165 C163 1.364 . S
C165 C166 1.374 . S
C166 H157 0.930 . S
C166 C165 1.374 . S
C166 C167 1.383 . S
C167 O161 1.412 . S
C167 C166 1.383 . S
C167 C168 1.394 . S
C168 H158 0.929 . S
C168 C164 1.377 . S
C168 C167 1.394 . S
H169 C176 0.929 . S
H170 C179 0.930 . S
H171 C181 0.929 . S
H172 C173 0.969 . S
C173 H172 0.969 . S
C173 O174 1.550 . S
C173 H175 0.973 . S
O174 C173 1.550 . S
O174 C180 1.412 . S
H175 C173 0.973 . S
C176 H169 0.929 . S
C176 C177 1.400 1_554 S
C176 C178 1.364 1_554 S
C177 C176 1.400 1_556 S
C177 C181 1.377 . S
C178 C176 1.364 1_556 S
C178 C179 1.374 . S
C179 H170 0.930 . S
C179 C178 1.374 . S
C179 C180 1.383 . S
C180 O174 1.412 . S
C180 C179 1.383 . S
C180 C181 1.394 . S
C181 H171 0.929 . S
C181 C177 1.377 . S
C181 C180 1.394 . S
H182 C189 0.929 . S
H183 C192 0.930 . S
H184 C194 0.929 . S
H185 C186 0.969 . S
C186 H185 0.969 . S
C186 O187 1.550 . S
C186 H188 0.973 . S
O187 C186 1.550 . S
O187 C193 1.412 . S
H188 C186 0.973 . S
C189 H182 0.929 . S
C189 C190 1.400 . S
C189 C191 1.364 . S
C190 C189 1.400 . S
C190 C194 1.377 . S
C191 C189 1.364 . S
C191 C192 1.374 . S
C192 H183 0.930 . S
C192 C191 1.374 . S
C192 C193 1.383 . S
C193 O187 1.412 . S
C193 C192 1.383 . S
C193 C194 1.394 . S
C194 H184 0.929 . S
C194 C190 1.377 . S
C194 C193 1.394 . S
H195 C202 0.929 . S
H196 C205 0.930 . S
H197 C207 0.929 . S
H198 C199 0.969 . S
C199 H198 0.969 . S
C199 O200 1.550 . S
C199 H201 0.973 . S
O200 C199 1.550 . S
O200 C206 1.412 . S
H201 C199 0.973 . S
C202 H195 0.929 . S
C202 C203 1.400 . S
C202 C204 1.373 . S
C203 C202 1.400 . S
C203 C207 1.369 1_554 S
C204 C202 1.373 . S
C204 C205 1.366 1_554 S
C205 H196 0.930 . S
C205 C204 1.366 1_556 S
C205 C206 1.383 . S
C206 O200 1.412 . S
C206 C205 1.383 . S
C206 C207 1.403 . S
C207 H197 0.929 . S
C207 C203 1.369 1_556 S
C207 C206 1.403 . S
Mn208 O213 2.095 . S
Mn208 O223 2.162 . S
Mn208 O224 2.297 . S
Mn208 O232 2.385 1_554 S
Mn208 O233 2.209 1_554 S
Mn208 O234 2.094 . S
Mn209 O214 2.121 . S
Mn209 N216 2.257 . S
Mn209 N225 2.282 . S
Mn209 O233 2.215 . S
Mn209 O235 2.117 . S
C210 O232 1.234 . S
C210 O233 1.283 . S
C211 O223 1.281 . S
C211 O224 1.236 . S
C212 O234 1.240 1_556 S
C212 O235 1.264 . S
O213 Mn208 2.095 . S
O213 C222 1.250 1_554 S
O214 Mn209 2.121 . S
O214 C222 1.258 . S
C215 N216 1.326 . S
C215 C219 1.460 . S
C215 H221 0.929 . S
N216 Mn209 2.257 . S
N216 C215 1.326 . S
N216 C220 1.362 . S
C217 C218 1.258 . S
C217 C220 1.431 . S
C217 C237 1.449 . S
C218 C217 1.258 . S
C218 C219 1.477 . S
C218 H238 0.931 . S
C219 C215 1.460 . S
C219 C218 1.477 . S
C219 H239 0.930 . S
C220 N216 1.362 . S
C220 C217 1.431 . S
C220 C230 1.476 . S
H221 C215 0.929 . S
C222 O213 1.250 1_556 S
C222 O214 1.258 . S
O223 Mn208 2.162 . S
O223 C211 1.281 . S
O224 Mn208 2.297 . S
O224 C211 1.236 . S
N225 Mn209 2.282 . S
N225 C226 1.328 . S
N225 C230 1.318 . S
C226 N225 1.328 . S
C226 C227 1.457 . S
C226 H231 0.929 . S
C227 C226 1.457 . S
C227 C228 1.291 . S
C227 H240 0.931 . S
C228 C227 1.291 . S
C228 C229 1.373 . S
C228 H241 0.929 . S
C229 C228 1.373 . S
C229 C230 1.396 . S
C229 C236 1.403 . S
C230 C220 1.476 . S
C230 N225 1.318 . S
C230 C229 1.396 . S
H231 C226 0.929 . S
O232 Mn208 2.385 1_556 S
O232 C210 1.234 . S
O233 Mn208 2.209 1_556 S
O233 Mn209 2.215 . S
O233 C210 1.283 . S
O234 Mn208 2.094 . S
O234 C212 1.240 1_554 S
O235 Mn209 2.117 . S
O235 C212 1.264 . S
C236 C229 1.403 . S
C236 C237 1.399 . S
C236 H242 0.929 . S
C237 C217 1.449 . S
C237 C236 1.399 . S
C237 H243 0.930 . S
H238 C218 0.931 . S
H239 C219 0.930 . S
H240 C227 0.931 . S
H241 C228 0.929 . S
H242 C236 0.929 . S
H243 C237 0.930 . S
Mn244 O249 2.095 . S
Mn244 O259 2.162 . S
Mn244 O260 2.297 . S
Mn244 O268 2.385 . S
Mn244 O269 2.209 . S
Mn244 O270 2.094 . S
Mn245 O250 2.121 . S
Mn245 N252 2.257 . S
Mn245 N261 2.282 . S
Mn245 O269 2.215 . S
Mn245 O271 2.117 . S
C246 O268 1.234 . S
C246 O269 1.283 . S
C247 O259 1.281 . S
C247 O260 1.236 . S
C248 O270 1.240 . S
C248 O271 1.264 . S
O249 Mn244 2.095 . S
O249 C258 1.250 . S
O250 Mn245 2.121 . S
O250 C258 1.258 . S
C251 N252 1.326 . S
C251 C255 1.460 . S
C251 H257 0.929 . S
N252 Mn245 2.257 . S
N252 C251 1.326 . S
N252 C256 1.362 . S
C253 C254 1.258 . S
C253 C256 1.431 . S
C253 C273 1.449 . S
C254 C253 1.258 . S
C254 C255 1.477 . S
C254 H274 0.931 . S
C255 C251 1.460 . S
C255 C254 1.477 . S
C255 H275 0.930 . S
C256 N252 1.362 . S
C256 C253 1.431 . S
C256 C266 1.476 . S
H257 C251 0.929 . S
C258 O249 1.250 . S
C258 O250 1.258 . S
O259 Mn244 2.162 . S
O259 C247 1.281 . S
O260 Mn244 2.297 . S
O260 C247 1.236 . S
N261 Mn245 2.282 . S
N261 C262 1.328 . S
N261 C266 1.318 . S
C262 N261 1.328 . S
C262 C263 1.457 . S
C262 H267 0.929 . S
C263 C262 1.457 . S
C263 C264 1.291 . S
C263 H276 0.931 . S
C264 C263 1.291 . S
C264 C265 1.373 . S
C264 H277 0.929 . S
C265 C264 1.373 . S
C265 C266 1.396 . S
C265 C272 1.403 . S
C266 C256 1.476 . S
C266 N261 1.318 . S
C266 C265 1.396 . S
H267 C262 0.929 . S
O268 Mn244 2.385 . S
O268 C246 1.234 . S
O269 Mn244 2.209 . S
O269 Mn245 2.215 . S
O269 C246 1.283 . S
O270 Mn244 2.094 . S
O270 C248 1.240 . S
O271 Mn245 2.117 . S
O271 C248 1.264 . S
C272 C265 1.403 . S
C272 C273 1.399 . S
C272 H278 0.929 . S
C273 C253 1.449 . S
C273 C272 1.399 . S
C273 H279 0.930 . S
H274 C254 0.931 . S
H275 C255 0.930 . S
H276 C263 0.931 . S
H277 C264 0.929 . S
H278 C272 0.929 . S
H279 C273 0.930 . S
Mn280 O285 2.095 . S
Mn280 O295 2.162 . S
Mn280 O296 2.297 . S
Mn280 O304 2.385 . S
Mn280 O305 2.209 . S
Mn280 O306 2.094 . S
Mn281 O286 2.121 1_554 S
Mn281 N288 2.257 1_554 S
Mn281 N297 2.282 . S
Mn281 O305 2.215 . S
Mn281 O307 2.117 . S
C282 O304 1.234 . S
C282 O305 1.283 . S
C283 O295 1.281 . S
C283 O296 1.236 . S
C284 O306 1.240 . S
C284 O307 1.264 . S
O285 Mn280 2.095 . S
O285 C294 1.250 1_554 S
O286 Mn281 2.121 1_556 S
O286 C294 1.258 . S
C287 N288 1.326 . S
C287 C291 1.460 . S
C287 H293 0.929 . S
N288 Mn281 2.257 1_556 S
N288 C287 1.326 . S
N288 C292 1.362 . S
C289 C290 1.258 . S
C289 C292 1.431 . S
C289 C309 1.449 . S
C290 C289 1.258 . S
C290 C291 1.477 . S
C290 H310 0.931 . S
C291 C287 1.460 . S
C291 C290 1.477 . S
C291 H311 0.930 . S
C292 N288 1.362 . S
C292 C289 1.431 . S
C292 C302 1.476 . S
H293 C287 0.929 . S
C294 O285 1.250 1_556 S
C294 O286 1.258 . S
O295 Mn280 2.162 . S
O295 C283 1.281 . S
O296 Mn280 2.297 . S
O296 C283 1.236 . S
N297 Mn281 2.282 . S
N297 C298 1.328 . S
N297 C302 1.318 1_554 S
C298 N297 1.328 . S
C298 C299 1.457 . S
C298 H303 0.929 . S
C299 C298 1.457 . S
C299 C300 1.291 . S
C299 H312 0.931 . S
C300 C299 1.291 . S
C300 C301 1.373 . S
C300 H313 0.929 . S
C301 C300 1.373 . S
C301 C302 1.396 1_554 S
C301 C308 1.403 1_554 S
C302 C292 1.476 . S
C302 N297 1.318 1_556 S
C302 C301 1.396 1_556 S
H303 C298 0.929 . S
O304 Mn280 2.385 . S
O304 C282 1.234 . S
O305 Mn280 2.209 . S
O305 Mn281 2.215 . S
O305 C282 1.283 . S
O306 Mn280 2.094 . S
O306 C284 1.240 . S
O307 Mn281 2.117 . S
O307 C284 1.264 . S
C308 C301 1.403 1_556 S
C308 C309 1.399 . S
C308 H314 0.929 . S
C309 C289 1.449 . S
C309 C308 1.399 . S
C309 H315 0.930 . S
H310 C290 0.931 . S
H311 C291 0.930 . S
H312 C299 0.931 . S
H313 C300 0.929 . S
H314 C308 0.929 . S
H315 C309 0.930 . S
Mn316 O321 2.095 . S
Mn316 O331 2.162 . S
Mn316 O332 2.297 . S
Mn316 O340 2.385 . S
Mn316 O341 2.209 1_545 S
Mn316 O342 2.094 . S
Mn317 O322 2.121 . S
Mn317 N324 2.257 . S
Mn317 N333 2.282 . S
Mn317 O341 2.215 . S
Mn317 O343 2.117 . S
C318 O340 1.234 1_565 S
C318 O341 1.283 . S
C319 O331 1.281 . S
C319 O332 1.236 . S
C320 O342 1.240 . S
C320 O343 1.264 1_545 S
O321 Mn316 2.095 . S
O321 C330 1.250 . S
O322 Mn317 2.121 . S
O322 C330 1.258 1_565 S
C323 N324 1.326 . S
C323 C327 1.460 . S
C323 H329 0.929 . S
N324 Mn317 2.257 . S
N324 C323 1.326 . S
N324 C328 1.362 . S
C325 C326 1.258 . S
C325 C328 1.431 . S
C325 C345 1.449 . S
C326 C325 1.258 . S
C326 C327 1.477 . S
C326 H346 0.931 . S
C327 C323 1.460 . S
C327 C326 1.477 . S
C327 H347 0.930 . S
C328 N324 1.362 . S
C328 C325 1.431 . S
C328 C338 1.476 . S
H329 C323 0.929 . S
C330 O321 1.250 . S
C330 O322 1.258 1_545 S
O331 Mn316 2.162 . S
O331 C319 1.281 . S
O332 Mn316 2.297 . S
O332 C319 1.236 . S
N333 Mn317 2.282 . S
N333 C334 1.328 . S
N333 C338 1.318 . S
C334 N333 1.328 . S
C334 C335 1.457 . S
C334 H339 0.929 . S
C335 C334 1.457 . S
C335 C336 1.291 . S
C335 H348 0.931 . S
C336 C335 1.291 . S
C336 C337 1.373 . S
C336 H349 0.929 . S
C337 C336 1.373 . S
C337 C338 1.396 . S
C337 C344 1.403 . S
C338 C328 1.476 . S
C338 N333 1.318 . S
C338 C337 1.396 . S
H339 C334 0.929 . S
O340 Mn316 2.385 . S
O340 C318 1.234 1_545 S
O341 Mn316 2.209 1_565 S
O341 Mn317 2.215 . S
O341 C318 1.283 . S
O342 Mn316 2.094 . S
O342 C320 1.240 . S
O343 Mn317 2.117 . S
O343 C320 1.264 1_565 S
C344 C337 1.403 . S
C344 C345 1.399 . S
C344 H350 0.929 . S
C345 C325 1.449 . S
C345 C344 1.399 . S
C345 H351 0.930 . S
H346 C326 0.931 . S
H347 C327 0.930 . S
H348 C335 0.931 . S
H349 C336 0.929 . S
H350 C344 0.929 . S
H351 C345 0.930 . S
Mn352 O357 2.095 . S
Mn352 O367 2.162 . S
Mn352 O368 2.297 . S
Mn352 O376 2.385 . S
Mn352 O377 2.209 . S
Mn352 O378 2.094 . S
Mn353 O358 2.121 . S
Mn353 N360 2.257 . S
Mn353 N369 2.282 . S
Mn353 O377 2.215 . S
Mn353 O379 2.117 . S
C354 O376 1.234 . S
C354 O377 1.283 . S
C355 O367 1.281 . S
C355 O368 1.236 . S
C356 O378 1.240 . S
C356 O379 1.264 . S
O357 Mn352 2.095 . S
O357 C366 1.250 . S
O358 Mn353 2.121 . S
O358 C366 1.258 . S
C359 N360 1.326 . S
C359 C363 1.460 . S
C359 H365 0.929 . S
N360 Mn353 2.257 . S
N360 C359 1.326 . S
N360 C364 1.362 . S
C361 C362 1.258 . S
C361 C364 1.431 . S
C361 C381 1.449 . S
C362 C361 1.258 . S
C362 C363 1.477 . S
C362 H382 0.931 . S
C363 C359 1.460 . S
C363 C362 1.477 . S
C363 H383 0.930 . S
C364 N360 1.362 . S
C364 C361 1.431 . S
C364 C374 1.476 . S
H365 C359 0.929 . S
C366 O357 1.250 . S
C366 O358 1.258 . S
O367 Mn352 2.162 . S
O367 C355 1.281 . S
O368 Mn352 2.297 . S
O368 C355 1.236 . S
N369 Mn353 2.282 . S
N369 C370 1.328 . S
N369 C374 1.318 . S
C370 N369 1.328 . S
C370 C371 1.457 . S
C370 H375 0.929 . S
C371 C370 1.457 . S
C371 C372 1.291 . S
C371 H384 0.931 . S
C372 C371 1.291 . S
C372 C373 1.373 . S
C372 H385 0.929 . S
C373 C372 1.373 . S
C373 C374 1.396 . S
C373 C380 1.403 . S
C374 C364 1.476 . S
C374 N369 1.318 . S
C374 C373 1.396 . S
H375 C370 0.929 . S
O376 Mn352 2.385 . S
O376 C354 1.234 . S
O377 Mn352 2.209 . S
O377 Mn353 2.215 . S
O377 C354 1.283 . S
O378 Mn352 2.094 . S
O378 C356 1.240 . S
O379 Mn353 2.117 . S
O379 C356 1.264 . S
C380 C373 1.403 . S
C380 C381 1.399 . S
C380 H386 0.929 . S
C381 C361 1.449 . S
C381 C380 1.399 . S
C381 H387 0.930 . S
H382 C362 0.931 . S
H383 C363 0.930 . S
H384 C371 0.931 . S
H385 C372 0.929 . S
H386 C380 0.929 . S
H387 C381 0.930 . S
Mn388 O393 2.095 . S
Mn388 O403 2.162 . S
Mn388 O404 2.297 . S
Mn388 O412 2.385 . S
Mn388 O413 2.209 . S
Mn388 O414 2.094 . S
Mn389 O394 2.121 . S
Mn389 N396 2.257 . S
Mn389 N405 2.282 . S
Mn389 O413 2.215 . S
Mn389 O415 2.117 . S
C390 O412 1.234 . S
C390 O413 1.283 . S
C391 O403 1.281 . S
C391 O404 1.236 . S
C392 O414 1.240 . S
C392 O415 1.264 . S
O393 Mn388 2.095 . S
O393 C402 1.250 . S
O394 Mn389 2.121 . S
O394 C402 1.258 . S
C395 N396 1.326 . S
C395 C399 1.460 . S
C395 H401 0.929 . S
N396 Mn389 2.257 . S
N396 C395 1.326 . S
N396 C400 1.362 . S
C397 C398 1.258 . S
C397 C400 1.431 . S
C397 C417 1.449 . S
C398 C397 1.258 . S
C398 C399 1.477 . S
C398 H418 0.931 . S
C399 C395 1.460 . S
C399 C398 1.477 . S
C399 H419 0.930 . S
C400 N396 1.362 . S
C400 C397 1.431 . S
C400 C410 1.476 . S
H401 C395 0.929 . S
C402 O393 1.250 . S
C402 O394 1.258 . S
O403 Mn388 2.162 . S
O403 C391 1.281 . S
O404 Mn388 2.297 . S
O404 C391 1.236 . S
N405 Mn389 2.282 . S
N405 C406 1.328 . S
N405 C410 1.318 . S
C406 N405 1.328 . S
C406 C407 1.457 . S
C406 H411 0.929 . S
C407 C406 1.457 . S
C407 C408 1.291 . S
C407 H420 0.931 . S
C408 C407 1.291 . S
C408 C409 1.373 . S
C408 H421 0.929 . S
C409 C408 1.373 . S
C409 C410 1.396 . S
C409 C416 1.403 . S
C410 C400 1.476 . S
C410 N405 1.318 . S
C410 C409 1.396 . S
H411 C406 0.929 . S
O412 Mn388 2.385 . S
O412 C390 1.234 . S
O413 Mn388 2.209 . S
O413 Mn389 2.215 . S
O413 C390 1.283 . S
O414 Mn388 2.094 . S
O414 C392 1.240 . S
O415 Mn389 2.117 . S
O415 C392 1.264 . S
C416 C409 1.403 . S
C416 C417 1.399 . S
C416 H422 0.929 . S
C417 C397 1.449 . S
C417 C416 1.399 . S
C417 H423 0.930 . S
H418 C398 0.931 . S
H419 C399 0.930 . S
H420 C407 0.931 . S
H421 C408 0.929 . S
H422 C416 0.929 . S
H423 C417 0.930 . S
Mn424 O429 2.095 . S
Mn424 O439 2.162 . S
Mn424 O440 2.297 . S
Mn424 O448 2.385 . S
Mn424 O449 2.209 . S
Mn424 O450 2.094 . S
Mn425 O430 2.121 . S
Mn425 N432 2.257 . S
Mn425 N441 2.282 . S
Mn425 O449 2.215 . S
Mn425 O451 2.117 . S
C426 O448 1.234 . S
C426 O449 1.283 . S
C427 O439 1.281 . S
C427 O440 1.236 . S
C428 O450 1.240 . S
C428 O451 1.264 . S
O429 Mn424 2.095 . S
O429 C438 1.250 . S
O430 Mn425 2.121 . S
O430 C438 1.258 . S
C431 N432 1.326 . S
C431 C435 1.460 . S
C431 H437 0.929 . S
N432 Mn425 2.257 . S
N432 C431 1.326 . S
N432 C436 1.362 . S
C433 C434 1.258 . S
C433 C436 1.431 . S
C433 C453 1.449 . S
C434 C433 1.258 . S
C434 C435 1.477 . S
C434 H454 0.931 . S
C435 C431 1.460 . S
C435 C434 1.477 . S
C435 H455 0.930 . S
C436 N432 1.362 . S
C436 C433 1.431 . S
C436 C446 1.476 . S
H437 C431 0.929 . S
C438 O429 1.250 . S
C438 O430 1.258 . S
O439 Mn424 2.162 . S
O439 C427 1.281 . S
O440 Mn424 2.297 . S
O440 C427 1.236 . S
N441 Mn425 2.282 . S
N441 C442 1.328 . S
N441 C446 1.318 . S
C442 N441 1.328 . S
C442 C443 1.457 . S
C442 H447 0.929 . S
C443 C442 1.457 . S
C443 C444 1.291 . S
C443 H456 0.931 . S
C444 C443 1.291 . S
C444 C445 1.373 . S
C444 H457 0.929 . S
C445 C444 1.373 . S
C445 C446 1.396 . S
C445 C452 1.403 . S
C446 C436 1.476 . S
C446 N441 1.318 . S
C446 C445 1.396 . S
H447 C442 0.929 . S
O448 Mn424 2.385 . S
O448 C426 1.234 . S
O449 Mn424 2.209 . S
O449 Mn425 2.215 . S
O449 C426 1.283 . S
O450 Mn424 2.094 . S
O450 C428 1.240 . S
O451 Mn425 2.117 . S
O451 C428 1.264 . S
C452 C445 1.403 . S
C452 C453 1.399 . S
C452 H458 0.929 . S
C453 C433 1.449 . S
C453 C452 1.399 . S
C453 H459 0.930 . S
H454 C434 0.931 . S
H455 C435 0.930 . S
H456 C443 0.931 . S
H457 C444 0.929 . S
H458 C452 0.929 . S
H459 C453 0.930 . S
Mn460 O465 2.095 . S
Mn460 O475 2.162 . S
Mn460 O476 2.297 . S
Mn460 O484 2.385 1_565 S
Mn460 O485 2.209 1_565 S
Mn460 O486 2.094 . S
Mn461 O466 2.121 . S
Mn461 N468 2.257 . S
Mn461 N477 2.282 . S
Mn461 O485 2.215 . S
Mn461 O487 2.117 . S
C462 O484 1.234 . S
C462 O485 1.283 . S
C463 O475 1.281 . S
C463 O476 1.236 . S
C464 O486 1.240 . S
C464 O487 1.264 1_565 S
O465 Mn460 2.095 . S
O465 C474 1.250 1_565 S
O466 Mn461 2.121 . S
O466 C474 1.258 . S
C467 N468 1.326 . S
C467 C471 1.460 . S
C467 H473 0.929 . S
N468 Mn461 2.257 . S
N468 C467 1.326 . S
N468 C472 1.362 . S
C469 C470 1.258 . S
C469 C472 1.431 . S
C469 C489 1.449 . S
C470 C469 1.258 . S
C470 C471 1.477 . S
C470 H490 0.931 . S
C471 C467 1.460 . S
C471 C470 1.477 . S
C471 H491 0.930 . S
C472 N468 1.362 . S
C472 C469 1.431 . S
C472 C482 1.476 . S
H473 C467 0.929 . S
C474 O465 1.250 1_545 S
C474 O466 1.258 . S
O475 Mn460 2.162 . S
O475 C463 1.281 . S
O476 Mn460 2.297 . S
O476 C463 1.236 . S
N477 Mn461 2.282 . S
N477 C478 1.328 . S
N477 C482 1.318 . S
C478 N477 1.328 . S
C478 C479 1.457 . S
C478 H483 0.929 . S
C479 C478 1.457 . S
C479 C480 1.291 . S
C479 H492 0.931 . S
C480 C479 1.291 . S
C480 C481 1.373 . S
C480 H493 0.929 . S
C481 C480 1.373 . S
C481 C482 1.396 . S
C481 C488 1.403 . S
C482 C472 1.476 . S
C482 N477 1.318 . S
C482 C481 1.396 . S
H483 C478 0.929 . S
O484 Mn460 2.385 1_545 S
O484 C462 1.234 . S
O485 Mn460 2.209 1_545 S
O485 Mn461 2.215 . S
O485 C462 1.283 . S
O486 Mn460 2.094 . S
O486 C464 1.240 . S
O487 Mn461 2.117 . S
O487 C464 1.264 1_545 S
C488 C481 1.403 . S
C488 C489 1.399 . S
C488 H494 0.929 . S
C489 C469 1.449 . S
C489 C488 1.399 . S
C489 H495 0.930 . S
H490 C470 0.931 . S
H491 C471 0.930 . S
H492 C479 0.931 . S
H493 C480 0.929 . S
H494 C488 0.929 . S
H495 C489 0.930 . S
Mn496 O501 2.095 . S
Mn496 O511 2.162 . S
Mn496 O512 2.297 . S
Mn496 O520 2.385 1_455 S
Mn496 O521 2.209 1_455 S
Mn496 O522 2.094 . S
Mn497 O502 2.121 . S
Mn497 N504 2.257 . S
Mn497 N513 2.282 . S
Mn497 O521 2.215 . S
Mn497 O523 2.117 . S
C498 O520 1.234 . S
C498 O521 1.283 . S
C499 O511 1.281 . S
C499 O512 1.236 . S
C500 O522 1.240 1_655 S
C500 O523 1.264 . S
O501 Mn496 2.095 . S
O501 C510 1.250 1_455 S
O502 Mn497 2.121 . S
O502 C510 1.258 . S
C503 N504 1.326 . S
C503 C507 1.460 . S
C503 H509 0.929 . S
N504 Mn497 2.257 . S
N504 C503 1.326 . S
N504 C508 1.362 . S
C505 C506 1.258 . S
C505 C508 1.431 . S
C505 C525 1.449 . S
C506 C505 1.258 . S
C506 C507 1.477 . S
C506 H526 0.931 . S
C507 C503 1.460 . S
C507 C506 1.477 . S
C507 H527 0.930 . S
C508 N504 1.362 . S
C508 C505 1.431 . S
C508 C518 1.476 . S
H509 C503 0.929 . S
C510 O501 1.250 1_655 S
C510 O502 1.258 . S
O511 Mn496 2.162 . S
O511 C499 1.281 . S
O512 Mn496 2.297 . S
O512 C499 1.236 . S
N513 Mn497 2.282 . S
N513 C514 1.328 . S
N513 C518 1.318 . S
C514 N513 1.328 . S
C514 C515 1.457 . S
C514 H519 0.929 . S
C515 C514 1.457 . S
C515 C516 1.291 . S
C515 H528 0.931 . S
C516 C515 1.291 . S
C516 C517 1.373 . S
C516 H529 0.929 . S
C517 C516 1.373 . S
C517 C518 1.396 . S
C517 C524 1.403 . S
C518 C508 1.476 . S
C518 N513 1.318 . S
C518 C517 1.396 . S
H519 C514 0.929 . S
O520 Mn496 2.385 1_655 S
O520 C498 1.234 . S
O521 Mn496 2.209 1_655 S
O521 Mn497 2.215 . S
O521 C498 1.283 . S
O522 Mn496 2.094 . S
O522 C500 1.240 1_455 S
O523 Mn497 2.117 . S
O523 C500 1.264 . S
C524 C517 1.403 . S
C524 C525 1.399 . S
C524 H530 0.929 . S
C525 C505 1.449 . S
C525 C524 1.399 . S
C525 H531 0.930 . S
H526 C506 0.931 . S
H527 C507 0.930 . S
H528 C515 0.931 . S
H529 C516 0.929 . S
H530 C524 0.929 . S
H531 C525 0.930 . S
Mn532 O537 2.095 . S
Mn532 O547 2.162 . S
Mn532 O548 2.297 . S
Mn532 O556 2.385 . S
Mn532 O557 2.209 . S
Mn532 O558 2.094 . S
Mn533 O538 2.121 . S
Mn533 N540 2.257 . S
Mn533 N549 2.282 . S
Mn533 O557 2.215 . S
Mn533 O559 2.117 . S
C534 O556 1.234 . S
C534 O557 1.283 . S
C535 O547 1.281 . S
C535 O548 1.236 . S
C536 O558 1.240 . S
C536 O559 1.264 . S
O537 Mn532 2.095 . S
O537 C546 1.250 . S
O538 Mn533 2.121 . S
O538 C546 1.258 . S
C539 N540 1.326 . S
C539 C543 1.460 . S
C539 H545 0.929 . S
N540 Mn533 2.257 . S
N540 C539 1.326 . S
N540 C544 1.362 . S
C541 C542 1.258 . S
C541 C544 1.431 . S
C541 C561 1.449 . S
C542 C541 1.258 . S
C542 C543 1.477 . S
C542 H562 0.931 . S
C543 C539 1.460 . S
C543 C542 1.477 . S
C543 H563 0.930 . S
C544 N540 1.362 . S
C544 C541 1.431 . S
C544 C554 1.476 . S
H545 C539 0.929 . S
C546 O537 1.250 . S
C546 O538 1.258 . S
O547 Mn532 2.162 . S
O547 C535 1.281 . S
O548 Mn532 2.297 . S
O548 C535 1.236 . S
N549 Mn533 2.282 . S
N549 C550 1.328 . S
N549 C554 1.318 . S
C550 N549 1.328 . S
C550 C551 1.457 . S
C550 H555 0.929 . S
C551 C550 1.457 . S
C551 C552 1.291 . S
C551 H564 0.931 . S
C552 C551 1.291 . S
C552 C553 1.373 . S
C552 H565 0.929 . S
C553 C552 1.373 . S
C553 C554 1.396 . S
C553 C560 1.403 . S
C554 C544 1.476 . S
C554 N549 1.318 . S
C554 C553 1.396 . S
H555 C550 0.929 . S
O556 Mn532 2.385 . S
O556 C534 1.234 . S
O557 Mn532 2.209 . S
O557 Mn533 2.215 . S
O557 C534 1.283 . S
O558 Mn532 2.094 . S
O558 C536 1.240 . S
O559 Mn533 2.117 . S
O559 C536 1.264 . S
C560 C553 1.403 . S
C560 C561 1.399 . S
C560 H566 0.929 . S
C561 C541 1.449 . S
C561 C560 1.399 . S
C561 H567 0.930 . S
H562 C542 0.931 . S
H563 C543 0.930 . S
H564 C551 0.931 . S
H565 C552 0.929 . S
H566 C560 0.929 . S
H567 C561 0.930 . S
Mn568 O573 2.095 . S
Mn568 O583 2.162 . S
Mn568 O584 2.297 . S
Mn568 O592 2.385 . S
Mn568 O593 2.209 . S
Mn568 O594 2.094 . S
Mn569 O574 2.121 . S
Mn569 N576 2.257 . S
Mn569 N585 2.282 1_655 S
Mn569 O593 2.215 1_655 S
Mn569 O595 2.117 1_655 S
C570 O592 1.234 . S
C570 O593 1.283 . S
C571 O583 1.281 . S
C571 O584 1.236 . S
C572 O594 1.240 . S
C572 O595 1.264 . S
O573 Mn568 2.095 . S
O573 C582 1.250 1_455 S
O574 Mn569 2.121 . S
O574 C582 1.258 . S
C575 N576 1.326 . S
C575 C579 1.460 . S
C575 H581 0.929 . S
N576 Mn569 2.257 . S
N576 C575 1.326 . S
N576 C580 1.362 . S
C577 C578 1.258 . S
C577 C580 1.431 . S
C577 C597 1.449 . S
C578 C577 1.258 . S
C578 C579 1.477 . S
C578 H598 0.931 . S
C579 C575 1.460 . S
C579 C578 1.477 . S
C579 H599 0.930 . S
C580 N576 1.362 . S
C580 C577 1.431 . S
C580 C590 1.476 . S
H581 C575 0.929 . S
C582 O573 1.250 1_655 S
C582 O574 1.258 . S
O583 Mn568 2.162 . S
O583 C571 1.281 . S
O584 Mn568 2.297 . S
O584 C571 1.236 . S
N585 Mn569 2.282 1_455 S
N585 C586 1.328 . S
N585 C590 1.318 1_455 S
C586 N585 1.328 . S
C586 C587 1.457 . S
C586 H591 0.929 . S
C587 C586 1.457 . S
C587 C588 1.291 . S
C587 H600 0.931 . S
C588 C587 1.291 . S
C588 C589 1.373 1_455 S
C588 H601 0.929 . S
C589 C588 1.373 1_655 S
C589 C590 1.396 . S
C589 C596 1.403 . S
C590 C580 1.476 . S
C590 N585 1.318 1_655 S
C590 C589 1.396 . S
H591 C586 0.929 . S
O592 Mn568 2.385 . S
O592 C570 1.234 . S
O593 Mn568 2.209 . S
O593 Mn569 2.215 1_455 S
O593 C570 1.283 . S
O594 Mn568 2.094 . S
O594 C572 1.240 . S
O595 Mn569 2.117 1_455 S
O595 C572 1.264 . S
C596 C589 1.403 . S
C596 C597 1.399 . S
C596 H602 0.929 . S
C597 C577 1.449 . S
C597 C596 1.399 . S
C597 H603 0.930 . S
H598 C578 0.931 . S
H599 C579 0.930 . S
H600 C587 0.931 . S
H601 C588 0.929 . S
H602 C596 0.929 . S
H603 C597 0.930 . S
Mn604 O609 2.095 . S
Mn604 O619 2.162 . S
Mn604 O620 2.297 . S
Mn604 O628 2.385 . S
Mn604 O629 2.209 . S
Mn604 O630 2.094 . S
Mn605 O610 2.121 . S
Mn605 N612 2.257 . S
Mn605 N621 2.282 . S
Mn605 O629 2.215 . S
Mn605 O631 2.117 . S
C606 O628 1.234 . S
C606 O629 1.283 . S
C607 O619 1.281 . S
C607 O620 1.236 . S
C608 O630 1.240 . S
C608 O631 1.264 . S
O609 Mn604 2.095 . S
O609 C618 1.250 . S
O610 Mn605 2.121 . S
O610 C618 1.258 . S
C611 N612 1.326 . S
C611 C615 1.460 . S
C611 H617 0.929 . S
N612 Mn605 2.257 . S
N612 C611 1.326 . S
N612 C616 1.362 . S
C613 C614 1.258 . S
C613 C616 1.431 . S
C613 C633 1.449 . S
C614 C613 1.258 . S
C614 C615 1.477 . S
C614 H634 0.931 . S
C615 C611 1.460 . S
C615 C614 1.477 . S
C615 H635 0.930 . S
C616 N612 1.362 . S
C616 C613 1.431 . S
C616 C626 1.476 . S
H617 C611 0.929 . S
C618 O609 1.250 . S
C618 O610 1.258 . S
O619 Mn604 2.162 . S
O619 C607 1.281 . S
O620 Mn604 2.297 . S
O620 C607 1.236 . S
N621 Mn605 2.282 . S
N621 C622 1.328 . S
N621 C626 1.318 . S
C622 N621 1.328 . S
C622 C623 1.457 . S
C622 H627 0.929 . S
C623 C622 1.457 . S
C623 C624 1.291 . S
C623 H636 0.931 . S
C624 C623 1.291 . S
C624 C625 1.373 . S
C624 H637 0.929 . S
C625 C624 1.373 . S
C625 C626 1.396 . S
C625 C632 1.403 . S
C626 C616 1.476 . S
C626 N621 1.318 . S
C626 C625 1.396 . S
H627 C622 0.929 . S
O628 Mn604 2.385 . S
O628 C606 1.234 . S
O629 Mn604 2.209 . S
O629 Mn605 2.215 . S
O629 C606 1.283 . S
O630 Mn604 2.094 . S
O630 C608 1.240 . S
O631 Mn605 2.117 . S
O631 C608 1.264 . S
C632 C625 1.403 . S
C632 C633 1.399 . S
C632 H638 0.929 . S
C633 C613 1.449 . S
C633 C632 1.399 . S
C633 H639 0.930 . S
H634 C614 0.931 . S
H635 C615 0.930 . S
H636 C623 0.931 . S
H637 C624 0.929 . S
H638 C632 0.929 . S
H639 C633 0.930 . S
C640 C641 1.363 . S
C640 C646 1.379 . S
C640 N648 1.356 . S
C641 C640 1.363 . S
C641 C647 1.363 . S
C642 C643 1.363 . S
C642 C647 1.379 . S
C642 N649 1.356 . S
C643 C642 1.363 . S
C643 C646 1.363 . S
N644 C646 1.356 . S
N644 H656 0.984 . S
N644 H657 0.985 . S
N645 C647 1.356 . S
N645 H650 0.984 . S
N645 H651 0.985 . S
C646 C640 1.379 . S
C646 C643 1.363 . S
C646 N644 1.356 . S
C647 C641 1.363 . S
C647 C642 1.379 . S
C647 N645 1.356 . S
N648 C640 1.356 . S
N648 H654 0.984 . S
N648 H655 0.984 . S
N649 C642 1.356 . S
N649 H652 0.984 . S
N649 H653 0.985 . S
H650 N645 0.984 . S
H651 N645 0.985 . S
H652 N649 0.984 . S
H653 N649 0.985 . S
H654 N648 0.984 . S
H655 N648 0.984 . S
H656 N644 0.984 . S
H657 N644 0.985 . S
C658 C659 1.363 . S
C658 C664 1.379 . S
C658 N666 1.356 . S
C659 C658 1.363 . S
C659 C665 1.363 . S
C660 C661 1.363 . S
C660 C665 1.379 . S
C660 N667 1.356 . S
C661 C660 1.363 . S
C661 C664 1.363 . S
N662 C664 1.356 . S
N662 H674 0.984 . S
N662 H675 0.985 . S
N663 C665 1.356 . S
N663 H668 0.984 . S
N663 H669 0.985 . S
C664 C658 1.379 . S
C664 C661 1.363 . S
C664 N662 1.356 . S
C665 C659 1.363 . S
C665 C660 1.379 . S
C665 N663 1.356 . S
N666 C658 1.356 . S
N666 H672 0.984 . S
N666 H673 0.984 . S
N667 C660 1.356 . S
N667 H670 0.984 . S
N667 H671 0.985 . S
H668 N663 0.984 . S
H669 N663 0.985 . S
H670 N667 0.984 . S
H671 N667 0.985 . S
H672 N666 0.984 . S
H673 N666 0.984 . S
H674 N662 0.984 . S
H675 N662 0.985 . S
C676 C677 1.363 . S
C676 C682 1.379 . S
C676 N684 1.356 . S
C677 C676 1.363 . S
C677 C683 1.363 . S
C678 C679 1.363 . S
C678 C683 1.379 . S
C678 N685 1.356 . S
C679 C678 1.363 . S
C679 C682 1.363 . S
N680 C682 1.356 . S
N680 H692 0.972 1_556 S
N680 H693 0.985 1_556 S
N681 C683 1.356 . S
N681 H686 0.984 . S
N681 H687 0.985 . S
C682 C676 1.379 . S
C682 C679 1.363 . S
C682 N680 1.356 . S
C683 C677 1.363 . S
C683 C678 1.379 . S
C683 N681 1.356 . S
N684 C676 1.356 . S
N684 H690 0.984 . S
N684 H691 0.984 . S
N685 C678 1.356 . S
N685 H688 0.984 . S
N685 H689 0.985 . S
H686 N681 0.984 . S
H687 N681 0.985 . S
H688 N685 0.984 . S
H689 N685 0.985 . S
H690 N684 0.984 . S
H691 N684 0.984 . S
H692 N680 0.972 1_554 S
H693 N680 0.985 1_554 S
C694 C695 1.363 . S
C694 C700 1.379 . S
C694 N702 1.356 1_655 S
C695 C694 1.363 . S
C695 C701 1.363 1_565 S
C696 C697 1.363 . S
C696 C701 1.379 . S
C696 N703 1.356 . S
C697 C696 1.363 . S
C697 C700 1.363 1_545 S
N698 C700 1.356 . S
N698 H710 0.984 . S
N698 H711 0.985 . S
N699 C701 1.356 . S
N699 H704 0.984 . S
N699 H705 0.985 . S
C700 C694 1.379 . S
C700 C697 1.363 1_565 S
C700 N698 1.356 . S
C701 C695 1.363 1_545 S
C701 C696 1.379 . S
C701 N699 1.356 . S
N702 C694 1.356 1_455 S
N702 H708 0.984 . S
N702 H709 0.984 . S
N703 C696 1.356 . S
N703 H706 0.984 . S
N703 H707 0.985 . S
H704 N699 0.984 . S
H705 N699 0.985 . S
H706 N703 0.984 . S
H707 N703 0.985 . S
H708 N702 0.984 . S
H709 N702 0.984 . S
H710 N698 0.984 . S
H711 N698 0.985 . S
C712 C713 1.363 . S
C712 C718 1.379 . S
C712 N720 1.356 . S
C713 C712 1.363 . S
C713 C719 1.363 . S
C714 C715 1.363 . S
C714 C719 1.379 . S
C714 N721 1.356 . S
C715 C714 1.363 . S
C715 C718 1.363 . S
N716 C718 1.356 . S
N716 H728 0.984 . S
N716 H729 0.985 . S
N717 C719 1.356 . S
N717 H722 0.984 . S
N717 H723 0.985 . S
C718 C712 1.379 . S
C718 C715 1.363 . S
C718 N716 1.356 . S
C719 C713 1.363 . S
C719 C714 1.379 . S
C719 N717 1.356 . S
N720 C712 1.356 . S
N720 H726 0.984 . S
N720 H727 0.984 . S
N721 C714 1.356 . S
N721 H724 0.984 . S
N721 H725 0.985 . S
H722 N717 0.984 . S
H723 N717 0.985 . S
H724 N721 0.984 . S
H725 N721 0.985 . S
H726 N720 0.984 . S
H727 N720 0.984 . S
H728 N716 0.984 . S
H729 N716 0.985 . S
C730 C731 1.363 . S
C730 C736 1.379 . S
C730 N738 1.356 . S
C731 C730 1.363 . S
C731 C737 1.363 . S
C732 C733 1.363 . S
C732 C737 1.379 . S
C732 N739 1.356 . S
C733 C732 1.363 . S
C733 C736 1.363 . S
N734 C736 1.356 . S
N734 H746 0.984 . S
N734 H747 0.985 . S
N735 C737 1.356 . S
N735 H740 0.984 . S
N735 H741 0.985 . S
C736 C730 1.379 . S
C736 C733 1.363 . S
C736 N734 1.356 . S
C737 C731 1.363 . S
C737 C732 1.379 . S
C737 N735 1.356 . S
N738 C730 1.356 . S
N738 H744 0.984 . S
N738 H745 0.984 . S
N739 C732 1.356 . S
N739 H742 0.984 . S
N739 H743 0.985 . S
H740 N735 0.984 . S
H741 N735 0.985 . S
H742 N739 0.984 . S
H743 N739 0.985 . S
H744 N738 0.984 . S
H745 N738 0.984 . S
H746 N734 0.984 . S
H747 N734 0.985 . S
C748 C749 1.363 . S
C748 C754 1.379 . S
C748 N756 1.356 . S
C749 C748 1.363 . S
C749 C755 1.363 . S
C750 C751 1.363 . S
C750 C755 1.379 . S
C750 N757 1.356 . S
C751 C750 1.363 . S
C751 C754 1.363 . S
N752 C754 1.356 . S
N752 H764 0.984 . S
N752 H765 0.985 . S
N753 C755 1.356 . S
N753 H758 0.984 . S
N753 H759 0.985 . S
C754 C748 1.379 . S
C754 C751 1.363 . S
C754 N752 1.356 . S
C755 C749 1.363 . S
C755 C750 1.379 . S
C755 N753 1.356 . S
N756 C748 1.356 . S
N756 H762 0.984 . S
N756 H763 0.984 . S
N757 C750 1.356 . S
N757 H760 0.984 . S
N757 H761 0.985 . S
H758 N753 0.984 . S
H759 N753 0.985 . S
H760 N757 0.984 . S
H761 N757 0.985 . S
H762 N756 0.984 . S
H763 N756 0.984 . S
H764 N752 0.984 . S
H765 N752 0.985 . S
C766 C767 1.363 1_545 S
C766 C772 1.379 . S
C766 N774 1.356 . S
C767 C766 1.363 1_565 S
C767 C773 1.363 . S
C768 C769 1.363 . S
C768 C773 1.379 . S
C768 N775 1.356 . S
C769 C768 1.363 . S
C769 C772 1.363 1_565 S
N770 C772 1.356 . S
N770 H782 0.984 . S
N770 H783 0.985 . S
N771 C773 1.356 . S
N771 H776 0.984 . S
N771 H777 0.985 . S
C772 C766 1.379 . S
C772 C769 1.363 1_545 S
C772 N770 1.356 . S
C773 C767 1.363 . S
C773 C768 1.379 . S
C773 N771 1.356 . S
N774 C766 1.356 . S
N774 H780 0.984 . S
N774 H781 0.984 . S
N775 C768 1.356 . S
N775 H778 0.984 . S
N775 H779 0.985 . S
H776 N771 0.984 . S
H777 N771 0.985 . S
H778 N775 0.984 . S
H779 N775 0.985 . S
H780 N774 0.984 . S
H781 N774 0.984 . S
H782 N770 0.984 . S
H783 N770 0.985 . S
C784 C785 1.363 . S
C784 C790 1.379 . S
C784 N792 1.356 . S
C785 C784 1.363 . S
C785 C791 1.363 . S
C786 C787 1.363 . S
C786 C791 1.379 . S
C786 N793 1.356 . S
C787 C786 1.363 . S
C787 C790 1.363 . S
N788 C790 1.356 . S
N788 H800 0.984 . S
N788 H801 0.985 . S
N789 C791 1.356 . S
N789 H794 0.984 . S
N789 H795 0.985 . S
C790 C784 1.379 . S
C790 C787 1.363 . S
C790 N788 1.356 . S
C791 C785 1.363 . S
C791 C786 1.379 . S
C791 N789 1.356 . S
N792 C784 1.356 . S
N792 H798 0.984 . S
N792 H799 0.984 . S
N793 C786 1.356 . S
N793 H796 0.984 . S
N793 H797 0.985 . S
H794 N789 0.984 . S
H795 N789 0.985 . S
H796 N793 0.984 . S
H797 N793 0.985 . S
H798 N792 0.984 . S
H799 N792 0.984 . S
H800 N788 0.984 . S
H801 N788 0.985 . S
C802 C803 1.363 . S
C802 C808 1.379 . S
C802 N810 1.356 . S
C803 C802 1.363 . S
C803 C809 1.363 . S
C804 C805 1.363 . S
C804 C809 1.379 . S
C804 N811 1.356 . S
C805 C804 1.363 . S
C805 C808 1.363 . S
N806 C808 1.356 . S
N806 H818 0.984 . S
N806 H819 0.985 . S
N807 C809 1.356 . S
N807 H812 0.984 . S
N807 H813 0.985 . S
C808 C802 1.379 . S
C808 C805 1.363 . S
C808 N806 1.356 . S
C809 C803 1.363 . S
C809 C804 1.379 . S
C809 N807 1.356 . S
N810 C802 1.356 . S
N810 H816 0.984 . S
N810 H817 0.984 . S
N811 C804 1.356 . S
N811 H814 0.984 . S
N811 H815 0.985 . S
H812 N807 0.984 . S
H813 N807 0.985 . S
H814 N811 0.984 . S
H815 N811 0.985 . S
H816 N810 0.984 . S
H817 N810 0.984 . S
H818 N806 0.984 . S
H819 N806 0.985 . S
C820 C821 1.363 . S
C820 C826 1.379 . S
C820 N828 1.356 . S
C821 C820 1.363 . S
C821 C827 1.363 . S
C822 C823 1.363 . S
C822 C827 1.379 . S
C822 N829 1.356 . S
C823 C822 1.363 . S
C823 C826 1.363 . S
N824 C826 1.356 . S
N824 H836 0.984 . S
N824 H837 0.985 . S
N825 C827 1.356 . S
N825 H830 0.984 . S
N825 H831 0.985 . S
C826 C820 1.379 . S
C826 C823 1.363 . S
C826 N824 1.356 . S
C827 C821 1.363 . S
C827 C822 1.379 . S
C827 N825 1.356 . S
N828 C820 1.356 . S
N828 H834 0.984 . S
N828 H835 0.984 . S
N829 C822 1.356 . S
N829 H832 0.984 . S
N829 H833 0.985 . S
H830 N825 0.984 . S
H831 N825 0.985 . S
H832 N829 0.984 . S
H833 N829 0.985 . S
H834 N828 0.984 . S
H835 N828 0.984 . S
H836 N824 0.984 . S
H837 N824 0.985 . S
C838 C839 1.363 . S
C838 C844 1.379 . S
C838 N846 1.356 . S
C839 C838 1.363 . S
C839 C845 1.363 . S
C840 C841 1.363 . S
C840 C845 1.379 . S
C840 N847 1.356 . S
C841 C840 1.363 . S
C841 C844 1.363 . S
N842 C844 1.356 . S
N842 H854 0.984 . S
N842 H855 0.985 . S
N843 C845 1.356 . S
N843 H848 0.984 . S
N843 H849 0.985 . S
C844 C838 1.379 . S
C844 C841 1.363 . S
C844 N842 1.356 . S
C845 C839 1.363 . S
C845 C840 1.379 . S
C845 N843 1.356 . S
N846 C838 1.356 . S
N846 H852 0.984 . S
N846 H853 0.984 . S
N847 C840 1.356 . S
N847 H850 0.984 . S
N847 H851 0.985 . S
H848 N843 0.984 . S
H849 N843 0.985 . S
H850 N847 0.984 . S
H851 N847 0.985 . S
H852 N846 0.984 . S
H853 N846 0.984 . S
H854 N842 0.984 . S
H855 N842 0.985 . S
C856 C857 1.363 . S
C856 C862 1.379 . S
C856 N864 1.356 . S
C857 C856 1.363 . S
C857 C863 1.363 . S
C858 C859 1.363 . S
C858 C863 1.379 . S
C858 N865 1.356 . S
C859 C858 1.363 . S
C859 C862 1.363 . S
N860 C862 1.356 . S
N860 H872 0.984 . S
N860 H873 0.985 . S
N861 C863 1.356 . S
N861 H866 0.984 . S
N861 H867 0.985 . S
C862 C856 1.379 . S
C862 C859 1.363 . S
C862 N860 1.356 . S
C863 C857 1.363 . S
C863 C858 1.379 . S
C863 N861 1.356 . S
N864 C856 1.356 . S
N864 H870 0.984 . S
N864 H871 0.984 . S
N865 C858 1.356 . S
N865 H868 0.984 . S
N865 H869 0.985 . S
H866 N861 0.984 . S
H867 N861 0.985 . S
H868 N865 0.984 . S
H869 N865 0.985 . S
H870 N864 0.984 . S
H871 N864 0.984 . S
H872 N860 0.984 . S
H873 N860 0.985 . S
C874 C875 1.363 . S
C874 C880 1.379 . S
C874 N882 1.356 1_455 S
C875 C874 1.363 . S
C875 C881 1.363 . S
C876 C877 1.363 . S
C876 C881 1.379 . S
C876 N883 1.356 . S
C877 C876 1.363 . S
C877 C880 1.363 . S
N878 C880 1.356 1_655 S
N878 H890 0.984 . S
N878 H891 0.985 . S
N879 C881 1.356 . S
N879 H884 0.984 . S
N879 H885 0.985 . S
C880 C874 1.379 . S
C880 C877 1.363 . S
C880 N878 1.356 1_455 S
C881 C875 1.363 . S
C881 C876 1.379 . S
C881 N879 1.356 . S
N882 C874 1.356 1_655 S
N882 H888 0.984 . S
N882 H889 0.984 1_655 S
N883 C876 1.356 . S
N883 H886 0.984 . S
N883 H887 0.985 . S
H884 N879 0.984 . S
H885 N879 0.985 . S
H886 N883 0.984 . S
H887 N883 0.985 . S
H888 N882 0.984 . S
H889 N882 0.984 1_455 S
H890 N878 0.984 . S
H891 N878 0.985 . S
C892 C893 1.363 . S
C892 C898 1.379 . S
C892 N900 1.356 . S
C893 C892 1.363 . S
C893 C899 1.363 . S
C894 C895 1.363 . S
C894 C899 1.379 . S
C894 N901 1.356 . S
C895 C894 1.363 . S
C895 C898 1.363 . S
N896 C898 1.356 . S
N896 H908 0.984 . S
N896 H909 0.985 . S
N897 C899 1.356 . S
N897 H902 0.984 . S
N897 H903 0.985 . S
C898 C892 1.379 . S
C898 C895 1.363 . S
C898 N896 1.356 . S
C899 C893 1.363 . S
C899 C894 1.379 . S
C899 N897 1.356 . S
N900 C892 1.356 . S
N900 H906 0.984 . S
N900 H907 0.984 . S
N901 C894 1.356 . S
N901 H904 0.984 . S
N901 H905 0.985 . S
H902 N897 0.984 . S
H903 N897 0.985 . S
H904 N901 0.984 . S
H905 N901 0.985 . S
H906 N900 0.984 . S
H907 N900 0.984 . S
H908 N896 0.984 . S
H909 N896 0.985 . S
C910 C911 1.363 1_455 S
C910 C916 1.379 . S
C910 N918 1.356 . S
C911 C910 1.363 1_655 S
C911 C917 1.363 . S
C912 C913 1.363 1_655 S
C912 C917 1.379 . S
C912 N919 1.356 . S
C913 C912 1.363 1_455 S
C913 C916 1.363 . S
N914 C916 1.356 . S
N914 H926 0.984 . S
N914 H927 0.985 . S
N915 C917 1.356 . S
N915 H920 0.984 . S
N915 H921 0.985 . S
C916 C910 1.379 . S
C916 C913 1.363 . S
C916 N914 1.356 . S
C917 C911 1.363 . S
C917 C912 1.379 . S
C917 N915 1.356 . S
N918 C910 1.356 . S
N918 H924 0.984 . S
N918 H925 0.984 . S
N919 C912 1.356 . S
N919 H922 0.984 . S
N919 H923 0.985 . S
H920 N915 0.984 . S
H921 N915 0.985 . S
H922 N919 0.984 . S
H923 N919 0.985 . S
H924 N918 0.984 . S
H925 N918 0.984 . S
H926 N914 0.984 . S
H927 N914 0.985 . S
C928 C929 1.363 . S
C928 C934 1.379 . S
C928 N936 1.356 . S
C929 C928 1.363 . S
C929 C935 1.363 . S
C930 C931 1.363 . S
C930 C935 1.379 . S
C930 N937 1.356 . S
C931 C930 1.363 . S
C931 C934 1.363 . S
N932 C934 1.356 . S
N932 H944 0.984 . S
N932 H945 0.985 . S
N933 C935 1.356 . S
N933 H938 0.984 . S
N933 H939 0.985 . S
C934 C928 1.379 . S
C934 C931 1.363 . S
C934 N932 1.356 . S
C935 C929 1.363 . S
C935 C930 1.379 . S
C935 N933 1.356 . S
N936 C928 1.356 . S
N936 H942 0.984 . S
N936 H943 0.984 . S
N937 C930 1.356 . S
N937 H940 0.984 . S
N937 H941 0.985 . S
H938 N933 0.984 . S
H939 N933 0.985 . S
H940 N937 0.984 . S
H941 N937 0.985 . S
H942 N936 0.984 . S
H943 N936 0.984 . S
H944 N932 0.984 . S
H945 N932 0.985 . S
C946 C947 1.363 . S
C946 C952 1.379 . S
C946 N954 1.356 . S
C947 C946 1.363 . S
C947 C953 1.363 . S
C948 C949 1.363 . S
C948 C953 1.379 . S
C948 N955 1.356 . S
C949 C948 1.363 . S
C949 C952 1.363 . S
N950 C952 1.356 . S
N950 H962 0.984 . S
N950 H963 0.985 . S
N951 C953 1.356 . S
N951 H956 0.984 . S
N951 H957 0.985 . S
C952 C946 1.379 . S
C952 C949 1.363 . S
C952 N950 1.356 . S
C953 C947 1.363 . S
C953 C948 1.379 . S
C953 N951 1.356 . S
N954 C946 1.356 . S
N954 H960 0.984 . S
N954 H961 0.984 . S
N955 C948 1.356 . S
N955 H958 0.984 . S
N955 H959 0.985 . S
H956 N951 0.984 . S
H957 N951 0.985 . S
H958 N955 0.984 . S
H959 N955 0.985 . S
H960 N954 0.984 . S
H961 N954 0.984 . S
H962 N950 0.984 . S
H963 N950 0.985 . S
C964 C965 1.367 1_565 S
C964 C970 1.379 . S
C964 N972 1.356 . S
C965 C964 1.367 1_545 S
C965 C971 1.359 1_554 S
C966 C967 1.363 . S
C966 C971 1.379 1_565 S
C966 N973 1.356 . S
C967 C966 1.363 . S
C967 C970 1.363 1_556 S
N968 C970 1.356 . S
N968 H980 0.984 . S
N968 H981 0.985 . S
N969 C971 1.356 . S
N969 H974 0.984 . S
N969 H975 0.985 . S
C970 C964 1.379 . S
C970 C967 1.363 1_554 S
C970 N968 1.356 . S
C971 C965 1.359 1_556 S
C971 C966 1.379 1_545 S
C971 N969 1.356 . S
N972 C964 1.356 . S
N972 H978 0.984 . S
N972 H979 0.984 1_565 S
N973 C966 1.356 . S
N973 H976 0.984 . S
N973 H977 0.985 1_565 S
H974 N969 0.984 . S
H975 N969 0.985 . S
H976 N973 0.984 . S
H977 N973 0.985 1_545 S
H978 N972 0.984 . S
H979 N972 0.984 1_545 S
H980 N968 0.984 . S
H981 N968 0.985 . S
C982 C983 1.363 . S
C982 C988 1.379 . S
C982 N990 1.356 . S
C983 C982 1.363 . S
C983 C989 1.363 . S
C984 C985 1.363 . S
C984 C989 1.379 . S
C984 N991 1.356 . S
C985 C984 1.363 . S
C985 C988 1.363 . S
N986 C988 1.356 . S
N986 H998 0.984 . S
N986 H999 0.985 . S
N987 C989 1.356 . S
N987 H992 0.984 . S
N987 H993 0.985 . S
C988 C982 1.379 . S
C988 C985 1.363 . S
C988 N986 1.356 . S
C989 C983 1.363 . S
C989 C984 1.379 . S
C989 N987 1.356 . S
N990 C982 1.356 . S
N990 H996 0.984 . S
N990 H997 0.984 . S
N991 C984 1.356 . S
N991 H994 0.984 . S
N991 H995 0.985 . S
H992 N987 0.984 . S
H993 N987 0.985 . S
H994 N991 0.984 . S
H995 N991 0.985 . S
H996 N990 0.984 . S
H997 N990 0.984 . S
H998 N986 0.984 . S
H999 N986 0.985 . S
C1000 C1001 1.363 . S
C1000 C1006 1.379 . S
C1000 N1008 1.356 . S
C1001 C1000 1.363 . S
C1001 C1007 1.363 . S
C1002 C1003 1.363 . S
C1002 C1007 1.379 . S
C1002 N1009 1.356 . S
C1003 C1002 1.363 . S
C1003 C1006 1.363 . S
N1004 C1006 1.356 . S
N1004 H1016 0.984 . S
N1004 H1017 0.985 . S
N1005 C1007 1.356 1_565 S
N1005 H1010 0.984 . S
N1005 H1011 0.985 . S
C1006 C1000 1.379 . S
C1006 C1003 1.363 . S
C1006 N1004 1.356 . S
C1007 C1001 1.363 . S
C1007 C1002 1.379 . S
C1007 N1005 1.356 1_545 S
N1008 C1000 1.356 . S
N1008 H1014 0.984 . S
N1008 H1015 0.984 . S
N1009 C1002 1.356 . S
N1009 H1012 0.984 . S
N1009 H1013 0.985 . S
H1010 N1005 0.984 . S
H1011 N1005 0.985 . S
H1012 N1009 0.984 . S
H1013 N1009 0.985 . S
H1014 N1008 0.984 . S
H1015 N1008 0.984 . S
H1016 N1004 0.984 . S
H1017 N1004 0.985 . S
C1018 C1019 1.363 . S
C1018 C1024 1.379 . S
C1018 N1026 1.356 . S
C1019 C1018 1.363 . S
C1019 C1025 1.363 . S
C1020 C1021 1.363 . S
C1020 C1025 1.379 . S
C1020 N1027 1.356 . S
C1021 C1020 1.363 . S
C1021 C1024 1.363 . S
N1022 C1024 1.356 . S
N1022 H1034 0.984 . S
N1022 H1035 0.985 . S
N1023 C1025 1.356 . S
N1023 H1028 0.984 . S
N1023 H1029 0.985 . S
C1024 C1018 1.379 . S
C1024 C1021 1.363 . S
C1024 N1022 1.356 . S
C1025 C1019 1.363 . S
C1025 C1020 1.379 . S
C1025 N1023 1.356 . S
N1026 C1018 1.356 . S
N1026 H1032 0.984 . S
N1026 H1033 0.984 . S
N1027 C1020 1.356 . S
N1027 H1030 0.984 . S
N1027 H1031 0.985 . S
H1028 N1023 0.984 . S
H1029 N1023 0.985 . S
H1030 N1027 0.984 . S
H1031 N1027 0.985 . S
H1032 N1026 0.984 . S
H1033 N1026 0.984 . S
H1034 N1022 0.984 . S
H1035 N1022 0.985 . S
C1036 C1037 1.363 . S
C1036 C1042 1.379 . S
C1036 N1044 1.356 1_545 S
C1037 C1036 1.363 . S
C1037 C1043 1.363 . S
C1038 C1039 1.363 . S
C1038 C1043 1.379 . S
C1038 N1045 1.356 . S
C1039 C1038 1.363 . S
C1039 C1042 1.363 . S
N1040 C1042 1.356 . S
N1040 H1052 0.984 . S
N1040 H1053 0.985 . S
N1041 C1043 1.356 . S
N1041 H1046 0.984 . S
N1041 H1047 0.985 . S
C1042 C1036 1.379 . S
C1042 C1039 1.363 . S
C1042 N1040 1.356 . S
C1043 C1037 1.363 . S
C1043 C1038 1.379 . S
C1043 N1041 1.356 . S
N1044 C1036 1.356 1_565 S
N1044 H1050 0.984 . S
N1044 H1051 0.984 . S
N1045 C1038 1.356 . S
N1045 H1048 0.984 . S
N1045 H1049 0.985 . S
H1046 N1041 0.984 . S
H1047 N1041 0.985 . S
H1048 N1045 0.984 . S
H1049 N1045 0.985 . S
H1050 N1044 0.984 . S
H1051 N1044 0.984 . S
H1052 N1040 0.984 . S
H1053 N1040 0.985 . S
C1054 C1055 1.363 . S
C1054 C1060 1.379 . S
C1054 N1062 1.356 . S
C1055 C1054 1.363 . S
C1055 C1061 1.363 . S
C1056 C1057 1.363 . S
C1056 C1061 1.379 . S
C1056 N1063 1.356 . S
C1057 C1056 1.363 . S
C1057 C1060 1.363 . S
N1058 C1060 1.356 . S
N1058 H1070 0.984 . S
N1058 H1071 0.985 . S
N1059 C1061 1.356 . S
N1059 H1064 0.984 . S
N1059 H1065 0.985 . S
C1060 C1054 1.379 . S
C1060 C1057 1.363 . S
C1060 N1058 1.356 . S
C1061 C1055 1.363 . S
C1061 C1056 1.379 . S
C1061 N1059 1.356 . S
N1062 C1054 1.356 . S
N1062 H1068 0.984 . S
N1062 H1069 0.984 . S
N1063 C1056 1.356 . S
N1063 H1066 0.984 . S
N1063 H1067 0.985 . S
H1064 N1059 0.984 . S
H1065 N1059 0.985 . S
H1066 N1063 0.984 . S
H1067 N1063 0.985 . S
H1068 N1062 0.984 . S
H1069 N1062 0.984 . S
H1070 N1058 0.984 . S
H1071 N1058 0.985 . S
C1072 C1073 1.363 . S
C1072 C1078 1.379 . S
C1072 N1080 1.356 . S
C1073 C1072 1.363 . S
C1073 C1079 1.363 . S
C1074 C1075 1.363 . S
C1074 C1079 1.379 . S
C1074 N1081 1.356 . S
C1075 C1074 1.363 . S
C1075 C1078 1.363 . S
N1076 C1078 1.356 . S
N1076 H1088 0.984 . S
N1076 H1089 0.985 . S
N1077 C1079 1.356 . S
N1077 H1082 0.984 . S
N1077 H1083 0.985 . S
C1078 C1072 1.379 . S
C1078 C1075 1.363 . S
C1078 N1076 1.356 . S
C1079 C1073 1.363 . S
C1079 C1074 1.379 . S
C1079 N1077 1.356 . S
N1080 C1072 1.356 . S
N1080 H1086 0.984 . S
N1080 H1087 0.984 . S
N1081 C1074 1.356 . S
N1081 H1084 0.984 . S
N1081 H1085 0.985 . S
H1082 N1077 0.984 . S
H1083 N1077 0.985 . S
H1084 N1081 0.984 . S
H1085 N1081 0.985 . S
H1086 N1080 0.984 . S
H1087 N1080 0.984 . S
H1088 N1076 0.984 . S
H1089 N1076 0.985 . S
C1090 C1091 1.363 . S
C1090 C1096 1.379 1_545 S
C1090 N1098 1.355 1_545 S
C1091 C1090 1.363 . S
C1091 C1097 1.363 . S
C1092 C1093 1.363 . S
C1092 C1097 1.379 . S
C1092 N1099 1.356 . S
C1093 C1092 1.363 . S
C1093 C1096 1.363 1_545 S
N1094 C1096 1.356 . S
N1094 H1106 0.984 . S
N1094 H1107 0.985 . S
N1095 C1097 1.356 . S
N1095 H1100 0.984 . S
N1095 H1101 0.985 . S
C1096 C1090 1.379 1_565 S
C1096 C1093 1.363 1_565 S
C1096 N1094 1.356 . S
C1097 C1091 1.363 . S
C1097 C1092 1.379 . S
C1097 N1095 1.356 . S
N1098 C1090 1.355 1_565 S
N1098 H1104 0.995 . S
N1098 H1105 0.976 1_565 S
N1099 C1092 1.356 . S
N1099 H1102 0.984 . S
N1099 H1103 0.985 . S
H1100 N1095 0.984 . S
H1101 N1095 0.985 . S
H1102 N1099 0.984 . S
H1103 N1099 0.985 . S
H1104 N1098 0.995 . S
H1105 N1098 0.976 1_545 S
H1106 N1094 0.984 . S
H1107 N1094 0.985 . S
C1108 C1109 1.363 . S
C1108 C1114 1.379 . S
C1108 N1116 1.356 . S
C1109 C1108 1.363 . S
C1109 C1115 1.363 . S
C1110 C1111 1.363 . S
C1110 C1115 1.379 . S
C1110 N1117 1.356 . S
C1111 C1110 1.363 . S
C1111 C1114 1.363 . S
N1112 C1114 1.356 . S
N1112 H1124 0.984 . S
N1112 H1125 0.985 . S
N1113 C1115 1.356 . S
N1113 H1118 0.984 . S
N1113 H1119 0.985 . S
C1114 C1108 1.379 . S
C1114 C1111 1.363 . S
C1114 N1112 1.356 . S
C1115 C1109 1.363 . S
C1115 C1110 1.379 . S
C1115 N1113 1.356 . S
N1116 C1108 1.356 . S
N1116 H1122 0.984 . S
N1116 H1123 0.984 . S
N1117 C1110 1.356 . S
N1117 H1120 0.984 . S
N1117 H1121 0.985 . S
H1118 N1113 0.984 . S
H1119 N1113 0.985 . S
H1120 N1117 0.984 . S
H1121 N1117 0.985 . S
H1122 N1116 0.984 . S
H1123 N1116 0.984 . S
H1124 N1112 0.984 . S
H1125 N1112 0.985 . S
C1126 C1127 1.363 . S
C1126 C1132 1.379 . S
C1126 N1134 1.356 . S
C1127 C1126 1.363 . S
C1127 C1133 1.363 . S
C1128 C1129 1.363 . S
C1128 C1133 1.379 . S
C1128 N1135 1.356 . S
C1129 C1128 1.363 . S
C1129 C1132 1.363 . S
N1130 C1132 1.356 . S
N1130 H1142 0.984 . S
N1130 H1143 0.985 . S
N1131 C1133 1.356 . S
N1131 H1136 0.984 . S
N1131 H1137 0.985 . S
C1132 C1126 1.379 . S
C1132 C1129 1.363 . S
C1132 N1130 1.356 . S
C1133 C1127 1.363 . S
C1133 C1128 1.379 . S
C1133 N1131 1.356 . S
N1134 C1126 1.356 . S
N1134 H1140 0.984 . S
N1134 H1141 0.984 . S
N1135 C1128 1.356 . S
N1135 H1138 0.984 . S
N1135 H1139 0.985 . S
H1136 N1131 0.984 . S
H1137 N1131 0.985 . S
H1138 N1135 0.984 . S
H1139 N1135 0.985 . S
H1140 N1134 0.984 . S
H1141 N1134 0.984 . S
H1142 N1130 0.984 . S
H1143 N1130 0.985 . S
C1144 C1145 1.363 . S
C1144 C1150 1.379 . S
C1144 N1152 1.356 . S
C1145 C1144 1.363 . S
C1145 C1151 1.363 . S
C1146 C1147 1.363 . S
C1146 C1151 1.379 . S
C1146 N1153 1.356 . S
C1147 C1146 1.363 . S
C1147 C1150 1.363 . S
N1148 C1150 1.356 . S
N1148 H1160 0.984 . S
N1148 H1161 0.985 . S
N1149 C1151 1.356 . S
N1149 H1154 0.984 . S
N1149 H1155 0.985 . S
C1150 C1144 1.379 . S
C1150 C1147 1.363 . S
C1150 N1148 1.356 . S
C1151 C1145 1.363 . S
C1151 C1146 1.379 . S
C1151 N1149 1.356 . S
N1152 C1144 1.356 . S
N1152 H1158 0.984 . S
N1152 H1159 0.984 . S
N1153 C1146 1.356 . S
N1153 H1156 0.984 . S
N1153 H1157 0.985 . S
H1154 N1149 0.984 . S
H1155 N1149 0.985 . S
H1156 N1153 0.984 . S
H1157 N1153 0.985 . S
H1158 N1152 0.984 . S
H1159 N1152 0.984 . S
H1160 N1148 0.984 . S
H1161 N1148 0.985 . S
C1162 C1163 1.363 . S
C1162 C1168 1.379 . S
C1162 N1170 1.356 1_655 S
C1163 C1162 1.363 . S
C1163 C1169 1.363 . S
C1164 C1165 1.363 . S
C1164 C1169 1.379 . S
C1164 N1171 1.356 1_545 S
C1165 C1164 1.363 . S
C1165 C1168 1.363 . S
N1166 C1168 1.356 . S
N1166 H1178 0.984 . S
N1166 H1179 0.985 . S
N1167 C1169 1.356 1_565 S
N1167 H1172 0.984 . S
N1167 H1173 0.985 . S
C1168 C1162 1.379 . S
C1168 C1165 1.363 . S
C1168 N1166 1.356 . S
C1169 C1163 1.363 . S
C1169 C1164 1.379 . S
C1169 N1167 1.356 1_545 S
N1170 C1162 1.356 1_455 S
N1170 H1176 0.984 . S
N1170 H1177 0.984 . S
N1171 C1164 1.356 1_565 S
N1171 H1174 0.984 . S
N1171 H1175 0.985 . S
H1172 N1167 0.984 . S
H1173 N1167 0.985 . S
H1174 N1171 0.984 . S
H1175 N1171 0.985 . S
H1176 N1170 0.984 . S
H1177 N1170 0.984 . S
H1178 N1166 0.984 . S
H1179 N1166 0.985 . S
C1180 C1181 1.363 . S
C1180 C1186 1.379 . S
C1180 N1188 1.356 . S
C1181 C1180 1.363 . S
C1181 C1187 1.363 . S
C1182 C1183 1.363 . S
C1182 C1187 1.379 . S
C1182 N1189 1.356 . S
C1183 C1182 1.363 . S
C1183 C1186 1.363 . S
N1184 C1186 1.356 . S
N1184 H1196 0.984 . S
N1184 H1197 0.985 . S
N1185 C1187 1.356 . S
N1185 H1190 0.984 . S
N1185 H1191 0.985 . S
C1186 C1180 1.379 . S
C1186 C1183 1.363 . S
C1186 N1184 1.356 . S
C1187 C1181 1.363 . S
C1187 C1182 1.379 . S
C1187 N1185 1.356 . S
N1188 C1180 1.356 . S
N1188 H1194 0.984 . S
N1188 H1195 0.984 . S
N1189 C1182 1.356 . S
N1189 H1192 0.984 . S
N1189 H1193 0.985 . S
H1190 N1185 0.984 . S
H1191 N1185 0.985 . S
H1192 N1189 0.984 . S
H1193 N1189 0.985 . S
H1194 N1188 0.984 . S
H1195 N1188 0.984 . S
H1196 N1184 0.984 . S
H1197 N1184 0.985 . S
C1198 C1199 1.363 . S
C1198 C1204 1.379 . S
C1198 N1206 1.356 . S
C1199 C1198 1.363 . S
C1199 C1205 1.363 . S
C1200 C1201 1.363 . S
C1200 C1205 1.379 . S
C1200 N1207 1.356 . S
C1201 C1200 1.363 . S
C1201 C1204 1.363 . S
N1202 C1204 1.356 . S
N1202 H1214 0.984 . S
N1202 H1215 0.985 . S
N1203 C1205 1.356 1_655 S
N1203 H1208 0.984 . S
N1203 H1209 0.985 . S
C1204 C1198 1.379 . S
C1204 C1201 1.363 . S
C1204 N1202 1.356 . S
C1205 C1199 1.363 . S
C1205 C1200 1.379 . S
C1205 N1203 1.356 1_455 S
N1206 C1198 1.356 . S
N1206 H1212 0.984 . S
N1206 H1213 0.984 . S
N1207 C1200 1.356 . S
N1207 H1210 0.984 . S
N1207 H1211 0.985 . S
H1208 N1203 0.984 . S
H1209 N1203 0.985 . S
H1210 N1207 0.984 . S
H1211 N1207 0.985 . S
H1212 N1206 0.984 . S
H1213 N1206 0.984 . S
H1214 N1202 0.984 . S
H1215 N1202 0.985 . S
C1216 C1217 1.363 . S
C1216 C1222 1.379 . S
C1216 N1224 1.356 . S
C1217 C1216 1.363 . S
C1217 C1223 1.363 . S
C1218 C1219 1.363 . S
C1218 C1223 1.379 . S
C1218 N1225 1.356 . S
C1219 C1218 1.363 . S
C1219 C1222 1.363 . S
N1220 C1222 1.356 . S
N1220 H1232 0.984 . S
N1220 H1233 0.985 . S
N1221 C1223 1.356 . S
N1221 H1226 0.984 . S
N1221 H1227 0.985 . S
C1222 C1216 1.379 . S
C1222 C1219 1.363 . S
C1222 N1220 1.356 . S
C1223 C1217 1.363 . S
C1223 C1218 1.379 . S
C1223 N1221 1.356 . S
N1224 C1216 1.356 . S
N1224 H1230 0.984 . S
N1224 H1231 0.984 . S
N1225 C1218 1.356 . S
N1225 H1228 0.984 . S
N1225 H1229 0.985 . S
H1226 N1221 0.984 . S
H1227 N1221 0.985 . S
H1228 N1225 0.984 . S
H1229 N1225 0.985 . S
H1230 N1224 0.984 . S
H1231 N1224 0.984 . S
H1232 N1220 0.984 . S
H1233 N1220 0.985 . S
C1234 C1235 1.363 1_455 S
C1234 C1240 1.379 . S
C1234 N1242 1.356 1_556 S
C1235 C1234 1.363 1_655 S
C1235 C1241 1.363 . S
C1236 C1237 1.363 . S
C1236 C1241 1.379 . S
C1236 N1243 1.356 . S
C1237 C1236 1.363 . S
C1237 C1240 1.363 1_655 S
N1238 C1240 1.356 . S
N1238 H1250 0.984 . S
N1238 H1251 0.985 . S
N1239 C1241 1.356 . S
N1239 H1244 0.984 . S
N1239 H1245 0.985 . S
C1240 C1234 1.379 . S
C1240 C1237 1.363 1_455 S
C1240 N1238 1.356 . S
C1241 C1235 1.363 . S
C1241 C1236 1.379 . S
C1241 N1239 1.356 . S
N1242 C1234 1.356 1_554 S
N1242 H1248 0.984 . S
N1242 H1249 0.984 . S
N1243 C1236 1.356 . S
N1243 H1246 0.984 . S
N1243 H1247 0.985 . S
H1244 N1239 0.984 . S
H1245 N1239 0.985 . S
H1246 N1243 0.984 . S
H1247 N1243 0.985 . S
H1248 N1242 0.984 . S
H1249 N1242 0.984 . S
H1250 N1238 0.984 . S
H1251 N1238 0.985 . S
C1252 C1253 1.363 . S
C1252 C1258 1.379 . S
C1252 N1260 1.356 . S
C1253 C1252 1.363 . S
C1253 C1259 1.363 . S
C1254 C1255 1.363 . S
C1254 C1259 1.379 . S
C1254 N1261 1.356 . S
C1255 C1254 1.363 . S
C1255 C1258 1.363 . S
N1256 C1258 1.356 . S
N1256 H1268 0.984 . S
N1256 H1269 0.985 . S
N1257 C1259 1.356 . S
N1257 H1262 0.984 . S
N1257 H1263 0.985 . S
C1258 C1252 1.379 . S
C1258 C1255 1.363 . S
C1258 N1256 1.356 . S
C1259 C1253 1.363 . S
C1259 C1254 1.379 . S
C1259 N1257 1.356 . S
N1260 C1252 1.356 . S
N1260 H1266 0.984 . S
N1260 H1267 0.984 . S
N1261 C1254 1.356 . S
N1261 H1264 0.984 . S
N1261 H1265 0.985 . S
H1262 N1257 0.984 . S
H1263 N1257 0.985 . S
H1264 N1261 0.984 . S
H1265 N1261 0.985 . S
H1266 N1260 0.984 . S
H1267 N1260 0.984 . S
H1268 N1256 0.984 . S
H1269 N1256 0.985 . S
C1270 C1271 1.363 1_655 S
C1270 C1276 1.379 . S
C1270 N1278 1.356 1_556 S
C1271 C1270 1.363 1_455 S
C1271 C1277 1.363 . S
C1272 C1273 1.379 . S
C1272 C1277 1.379 . S
C1272 N1279 1.356 . S
C1273 C1272 1.379 . S
C1273 C1276 1.352 1_455 S
N1274 C1276 1.356 . S
N1274 H1286 0.984 . S
N1274 H1287 0.985 . S
N1275 C1277 1.356 . S
N1275 H1280 0.984 . S
N1275 H1281 0.985 . S
C1276 C1270 1.379 . S
C1276 C1273 1.352 1_655 S
C1276 N1274 1.356 . S
C1277 C1271 1.363 . S
C1277 C1272 1.379 . S
C1277 N1275 1.356 . S
N1278 C1270 1.356 1_554 S
N1278 H1284 0.984 . S
N1278 H1285 0.984 . S
N1279 C1272 1.356 . S
N1279 H1282 0.984 . S
N1279 H1283 0.985 . S
H1280 N1275 0.984 . S
H1281 N1275 0.985 . S
H1282 N1279 0.984 . S
H1283 N1279 0.985 . S
H1284 N1278 0.984 . S
H1285 N1278 0.984 . S
H1286 N1274 0.984 . S
H1287 N1274 0.985 . S
C1288 C1289 1.363 . S
C1288 C1294 1.379 . S
C1288 N1296 1.356 . S
C1289 C1288 1.363 . S
C1289 C1295 1.363 . S
C1290 C1291 1.363 . S
C1290 C1295 1.379 . S
C1290 N1297 1.356 . S
C1291 C1290 1.363 . S
C1291 C1294 1.363 . S
N1292 C1294 1.356 . S
N1292 H1304 0.984 . S
N1292 H1305 0.985 . S
N1293 C1295 1.356 . S
N1293 H1298 0.984 . S
N1293 H1299 0.985 . S
C1294 C1288 1.379 . S
C1294 C1291 1.363 . S
C1294 N1292 1.356 . S
C1295 C1289 1.363 . S
C1295 C1290 1.379 . S
C1295 N1293 1.356 . S
N1296 C1288 1.356 . S
N1296 H1302 0.984 . S
N1296 H1303 0.984 . S
N1297 C1290 1.356 . S
N1297 H1300 0.984 . S
N1297 H1301 0.985 . S
H1298 N1293 0.984 . S
H1299 N1293 0.985 . S
H1300 N1297 0.984 . S
H1301 N1297 0.985 . S
H1302 N1296 0.984 . S
H1303 N1296 0.984 . S
H1304 N1292 0.984 . S
H1305 N1292 0.985 . S
C1306 C1307 1.363 . S
C1306 C1312 1.379 . S
C1306 N1314 1.356 1_554 S
C1307 C1306 1.363 . S
C1307 C1313 1.363 . S
C1308 C1309 1.363 . S
C1308 C1313 1.379 . S
C1308 N1315 1.356 . S
C1309 C1308 1.363 . S
C1309 C1312 1.363 . S
N1310 C1312 1.356 . S
N1310 H1322 0.984 . S
N1310 H1323 0.985 . S
N1311 C1313 1.356 . S
N1311 H1316 0.984 . S
N1311 H1317 0.985 . S
C1312 C1306 1.379 . S
C1312 C1309 1.363 . S
C1312 N1310 1.356 . S
C1313 C1307 1.363 . S
C1313 C1308 1.379 . S
C1313 N1311 1.356 . S
N1314 C1306 1.356 1_556 S
N1314 H1320 0.984 . S
N1314 H1321 0.984 . S
N1315 C1308 1.356 . S
N1315 H1318 0.984 . S
N1315 H1319 0.985 . S
H1316 N1311 0.984 . S
H1317 N1311 0.985 . S
H1318 N1315 0.984 . S
H1319 N1315 0.985 . S
H1320 N1314 0.984 . S
H1321 N1314 0.984 . S
H1322 N1310 0.984 . S
H1323 N1310 0.985 . S
C1324 C1325 1.363 . S
C1324 C1330 1.379 . S
C1324 N1332 1.356 . S
C1325 C1324 1.363 . S
C1325 C1331 1.363 . S
C1326 C1327 1.363 . S
C1326 C1331 1.379 . S
C1326 N1333 1.356 . S
C1327 C1326 1.363 . S
C1327 C1330 1.363 . S
N1328 C1330 1.356 . S
N1328 H1340 0.984 . S
N1328 H1341 0.985 . S
N1329 C1331 1.356 . S
N1329 H1334 0.984 . S
N1329 H1335 0.985 . S
C1330 C1324 1.379 . S
C1330 C1327 1.363 . S
C1330 N1328 1.356 . S
C1331 C1325 1.363 . S
C1331 C1326 1.379 . S
C1331 N1329 1.356 . S
N1332 C1324 1.356 . S
N1332 H1338 0.984 . S
N1332 H1339 0.984 . S
N1333 C1326 1.356 . S
N1333 H1336 0.984 . S
N1333 H1337 0.985 . S
H1334 N1329 0.984 . S
H1335 N1329 0.985 . S
H1336 N1333 0.984 . S
H1337 N1333 0.985 . S
H1338 N1332 0.984 . S
H1339 N1332 0.984 . S
H1340 N1328 0.984 . S
H1341 N1328 0.985 . S
C1342 C1343 1.363 . S
C1342 C1348 1.379 . S
C1342 N1350 1.356 . S
C1343 C1342 1.363 . S
C1343 C1349 1.363 . S
C1344 C1345 1.363 . S
C1344 C1349 1.379 . S
C1344 N1351 1.356 . S
C1345 C1344 1.363 . S
C1345 C1348 1.363 . S
N1346 C1348 1.356 . S
N1346 H1358 0.984 . S
N1346 H1359 0.985 . S
N1347 C1349 1.356 . S
N1347 H1352 0.984 . S
N1347 H1353 0.985 . S
C1348 C1342 1.379 . S
C1348 C1345 1.363 . S
C1348 N1346 1.356 . S
C1349 C1343 1.363 . S
C1349 C1344 1.379 . S
C1349 N1347 1.356 . S
N1350 C1342 1.356 . S
N1350 H1356 0.984 . S
N1350 H1357 0.984 . S
N1351 C1344 1.356 . S
N1351 H1354 0.984 . S
N1351 H1355 0.985 . S
H1352 N1347 0.984 . S
H1353 N1347 0.985 . S
H1354 N1351 0.984 . S
H1355 N1351 0.985 . S
H1356 N1350 0.984 . S
H1357 N1350 0.984 . S
H1358 N1346 0.984 . S
H1359 N1346 0.985 . S
C1360 C1361 1.363 . S
C1360 C1366 1.379 . S
C1360 N1368 1.356 . S
C1361 C1360 1.363 . S
C1361 C1367 1.363 . S
C1362 C1363 1.363 . S
C1362 C1367 1.379 . S
C1362 N1369 1.356 . S
C1363 C1362 1.363 . S
C1363 C1366 1.363 . S
N1364 C1366 1.356 . S
N1364 H1376 0.984 . S
N1364 H1377 0.985 . S
N1365 C1367 1.356 . S
N1365 H1370 0.984 . S
N1365 H1371 0.985 . S
C1366 C1360 1.379 . S
C1366 C1363 1.363 . S
C1366 N1364 1.356 . S
C1367 C1361 1.363 . S
C1367 C1362 1.379 . S
C1367 N1365 1.356 . S
N1368 C1360 1.356 . S
N1368 H1374 0.984 . S
N1368 H1375 0.984 . S
N1369 C1362 1.356 . S
N1369 H1372 0.984 . S
N1369 H1373 0.985 . S
H1370 N1365 0.984 . S
H1371 N1365 0.985 . S
H1372 N1369 0.984 . S
H1373 N1369 0.985 . S
H1374 N1368 0.984 . S
H1375 N1368 0.984 . S
H1376 N1364 0.984 . S
H1377 N1364 0.985 . S
C1378 C1379 1.363 . S
C1378 C1384 1.379 . S
C1378 N1386 1.356 . S
C1379 C1378 1.363 . S
C1379 C1385 1.363 . S
C1380 C1381 1.363 . S
C1380 C1385 1.379 . S
C1380 N1387 1.356 . S
C1381 C1380 1.363 . S
C1381 C1384 1.363 . S
N1382 C1384 1.356 . S
N1382 H1394 0.984 . S
N1382 H1395 0.985 . S
N1383 C1385 1.356 . S
N1383 H1388 0.984 . S
N1383 H1389 0.985 . S
C1384 C1378 1.379 . S
C1384 C1381 1.363 . S
C1384 N1382 1.356 . S
C1385 C1379 1.363 . S
C1385 C1380 1.379 . S
C1385 N1383 1.356 . S
N1386 C1378 1.356 . S
N1386 H1392 0.984 . S
N1386 H1393 0.984 . S
N1387 C1380 1.356 . S
N1387 H1390 0.984 . S
N1387 H1391 0.985 . S
H1388 N1383 0.984 . S
H1389 N1383 0.985 . S
H1390 N1387 0.984 . S
H1391 N1387 0.985 . S
H1392 N1386 0.984 . S
H1393 N1386 0.984 . S
H1394 N1382 0.984 . S
H1395 N1382 0.985 . S
C1396 C1397 1.363 . S
C1396 C1402 1.379 . S
C1396 N1404 1.356 . S
C1397 C1396 1.363 . S
C1397 C1403 1.363 . S
C1398 C1399 1.363 . S
C1398 C1403 1.379 . S
C1398 N1405 1.356 . S
C1399 C1398 1.363 . S
C1399 C1402 1.363 . S
N1400 C1402 1.356 . S
N1400 H1412 0.984 . S
N1400 H1413 0.985 . S
N1401 C1403 1.356 . S
N1401 H1406 0.984 . S
N1401 H1407 0.985 . S
C1402 C1396 1.379 . S
C1402 C1399 1.363 . S
C1402 N1400 1.356 . S
C1403 C1397 1.363 . S
C1403 C1398 1.379 . S
C1403 N1401 1.356 . S
N1404 C1396 1.356 . S
N1404 H1410 0.984 . S
N1404 H1411 0.984 . S
N1405 C1398 1.356 . S
N1405 H1408 0.984 . S
N1405 H1409 0.985 . S
H1406 N1401 0.984 . S
H1407 N1401 0.985 . S
H1408 N1405 0.984 . S
H1409 N1405 0.985 . S
H1410 N1404 0.984 . S
H1411 N1404 0.984 . S
H1412 N1400 0.984 . S
H1413 N1400 0.985 . S
C1414 C1415 1.363 . S
C1414 C1420 1.379 . S
C1414 N1422 1.356 . S
C1415 C1414 1.363 . S
C1415 C1421 1.363 . S
C1416 C1417 1.363 . S
C1416 C1421 1.379 . S
C1416 N1423 1.356 . S
C1417 C1416 1.363 . S
C1417 C1420 1.363 . S
N1418 C1420 1.356 . S
N1418 H1430 0.984 . S
N1418 H1431 0.985 . S
N1419 C1421 1.356 . S
N1419 H1424 0.984 . S
N1419 H1425 0.985 . S
C1420 C1414 1.379 . S
C1420 C1417 1.363 . S
C1420 N1418 1.356 . S
C1421 C1415 1.363 . S
C1421 C1416 1.379 . S
C1421 N1419 1.356 . S
N1422 C1414 1.356 . S
N1422 H1428 0.984 . S
N1422 H1429 0.984 . S
N1423 C1416 1.356 . S
N1423 H1426 0.984 . S
N1423 H1427 0.985 . S
H1424 N1419 0.984 . S
H1425 N1419 0.985 . S
H1426 N1423 0.984 . S
H1427 N1423 0.985 . S
H1428 N1422 0.984 . S
H1429 N1422 0.984 . S
H1430 N1418 0.984 . S
H1431 N1418 0.985 . S
C1432 C1433 1.363 1_554 S
C1432 C1438 1.379 . S
C1432 N1440 1.356 1_554 S
C1433 C1432 1.363 1_556 S
C1433 C1439 1.363 . S
C1434 C1435 1.363 . S
C1434 C1439 1.379 1_554 S
C1434 N1441 1.356 . S
C1435 C1434 1.363 . S
C1435 C1438 1.363 . S
N1436 C1438 1.356 . S
N1436 H1448 0.984 . S
N1436 H1449 0.985 . S
N1437 C1439 1.356 . S
N1437 H1442 0.984 . S
N1437 H1443 0.985 . S
C1438 C1432 1.379 . S
C1438 C1435 1.363 . S
C1438 N1436 1.356 . S
C1439 C1433 1.363 . S
C1439 C1434 1.379 1_556 S
C1439 N1437 1.356 . S
N1440 C1432 1.356 1_556 S
N1440 H1446 0.984 . S
N1440 H1447 0.984 . S
N1441 C1434 1.356 . S
N1441 H1444 0.984 . S
N1441 H1445 0.985 . S
H1442 N1437 0.984 . S
H1443 N1437 0.985 . S
H1444 N1441 0.984 . S
H1445 N1441 0.985 . S
H1446 N1440 0.984 . S
H1447 N1440 0.984 . S
H1448 N1436 0.984 . S
H1449 N1436 0.985 . S
C1450 C1451 1.363 . S
C1450 C1456 1.379 . S
C1450 N1458 1.356 . S
C1451 C1450 1.363 . S
C1451 C1457 1.363 . S
C1452 C1453 1.363 . S
C1452 C1457 1.379 . S
C1452 N1459 1.356 . S
C1453 C1452 1.363 . S
C1453 C1456 1.363 . S
N1454 C1456 1.356 . S
N1454 H1466 0.984 . S
N1454 H1467 0.985 . S
N1455 C1457 1.356 . S
N1455 H1460 0.984 . S
N1455 H1461 0.985 . S
C1456 C1450 1.379 . S
C1456 C1453 1.363 . S
C1456 N1454 1.356 . S
C1457 C1451 1.363 . S
C1457 C1452 1.379 . S
C1457 N1455 1.356 . S
N1458 C1450 1.356 . S
N1458 H1464 0.984 . S
N1458 H1465 0.984 . S
N1459 C1452 1.356 . S
N1459 H1462 0.984 . S
N1459 H1463 0.985 . S
H1460 N1455 0.984 . S
H1461 N1455 0.985 . S
H1462 N1459 0.984 . S
H1463 N1459 0.985 . S
H1464 N1458 0.984 . S
H1465 N1458 0.984 . S
H1466 N1454 0.984 . S
H1467 N1454 0.985 . S
C1468 C1469 1.363 . S
C1468 C1474 1.379 . S
C1468 N1476 1.356 . S
C1469 C1468 1.363 . S
C1469 C1475 1.363 . S
C1470 C1471 1.363 . S
C1470 C1475 1.379 . S
C1470 N1477 1.356 . S
C1471 C1470 1.363 . S
C1471 C1474 1.363 . S
N1472 C1474 1.337 1_556 S
N1472 H1484 1.013 . S
N1472 H1485 0.977 1_556 S
N1473 C1475 1.356 . S
N1473 H1478 0.984 . S
N1473 H1479 0.985 . S
C1474 C1468 1.379 . S
C1474 C1471 1.363 . S
C1474 N1472 1.337 1_554 S
C1475 C1469 1.363 . S
C1475 C1470 1.379 . S
C1475 N1473 1.356 . S
N1476 C1468 1.356 . S
N1476 H1482 0.984 1_554 S
N1476 H1483 0.984 . S
N1477 C1470 1.356 . S
N1477 H1480 0.984 . S
N1477 H1481 0.985 . S
H1478 N1473 0.984 . S
H1479 N1473 0.985 . S
H1480 N1477 0.984 . S
H1481 N1477 0.985 . S
H1482 N1476 0.984 1_556 S
H1483 N1476 0.984 . S
H1484 N1472 1.013 . S
H1485 N1472 0.977 1_554 S
C1486 C1487 1.363 1_556 S
C1486 C1492 1.379 . S
C1486 N1494 1.356 . S
C1487 C1486 1.363 1_554 S
C1487 C1493 1.363 . S
C1488 C1489 1.363 . S
C1488 C1493 1.379 . S
C1488 N1495 1.356 . S
C1489 C1488 1.363 . S
C1489 C1492 1.363 1_554 S
N1490 C1492 1.356 . S
N1490 H1502 0.984 . S
N1490 H1503 0.985 . S
N1491 C1493 1.356 . S
N1491 H1496 0.984 . S
N1491 H1497 0.985 . S
C1492 C1486 1.379 . S
C1492 C1489 1.363 1_556 S
C1492 N1490 1.356 . S
C1493 C1487 1.363 . S
C1493 C1488 1.379 . S
C1493 N1491 1.356 . S
N1494 C1486 1.356 . S
N1494 H1500 0.984 . S
N1494 H1501 0.984 . S
N1495 C1488 1.356 . S
N1495 H1498 0.984 . S
N1495 H1499 0.985 . S
H1496 N1491 0.984 . S
H1497 N1491 0.985 . S
H1498 N1495 0.984 . S
H1499 N1495 0.985 . S
H1500 N1494 0.984 . S
H1501 N1494 0.984 . S
H1502 N1490 0.984 . S
H1503 N1490 0.985 . S
C643 C210 1.633 . S
C641 C73 1.642 . S
C661 C258 1.380 . S
C659 C82 1.383 . S
C677 C100 1.758 . S
C679 C294 1.634 . S
C697 C330 1.400 . S
C695 C56 1.438 . S
C715 C356 1.409 . S
C713 C134 1.441 . S
C733 C392 1.665 . S
C731 C165 1.670 . S
C749 C147 1.250 . S
C751 C427 1.327 . S
C769 C464 1.809 . S
C767 C125 1.824 . S
C785 C151 1.383 . S
C787 C498 1.373 . S
C805 C546 1.475 . S
C803 C121 1.511 . S
C821 C139 1.666 . S
C823 C499 1.675 . S
C841 C536 1.471 . S
C839 C164 1.472 . S
C857 C95 1.363 . S
C859 C582 1.383 . S
C875 C61 1.544 . S
C877 C571 1.546 . S
C893 C74 1.434 . S
C895 C572 1.427 . S
C911 C86 1.779 . S
C913 C570 1.771 . S
C929 C47 1.382 . S
C931 C318 1.389 . S
C947 C186 1.248 . S
C949 C319 1.324 . S
C967 C222 1.623 . S
C965 C204 1.641 . S
C985 C247 1.797 . S
C983 C112 1.794 . S
C1001 C60 1.517 . S
C1003 C354 1.516 . S
C1021 C462 1.418 . S
C1019 C152 1.414 . S
C1039 C355 1.826 . S
C1037 C126 1.827 1_545 S
C1057 C428 1.448 . S
C1055 C160 1.444 . S
C1075 C426 1.633 . S
C1073 C190 1.642 . S
C1091 C199 1.383 . S
C1093 C474 1.379 . S
C1109 C113 1.758 . S
C1111 C366 1.634 . S
C1129 C402 1.400 . S
C1127 C173 1.438 . S
C1145 C43 1.441 . S
C1147 C284 1.409 . S
C1165 C320 1.665 . S
C1163 C9 1.670 1_655 S
C1183 C211 1.327 . S
C1181 C17 1.250 . S
C1201 C248 1.809 . S
C1199 C34 1.824 . S
C1217 C21 1.384 . S
C1219 C534 1.373 . S
C1235 C30 1.512 . S
C1237 C510 1.476 . S
C1253 C48 1.666 . S
C1255 C535 1.675 . S
C1271 C8 1.472 1_556 S
C1273 C500 1.466 1_455 S
C1291 C618 1.383 . S
C1289 C108 1.363 . S
C1309 C607 1.546 . S
C1307 C178 1.544 1_554 S
C1327 C608 1.427 . S
C1325 C191 1.434 . S
C1343 C203 1.779 . S
C1345 C606 1.771 . S
C1361 C138 1.382 . S
C1363 C390 1.389 . S
C1381 C391 1.324 . S
C1379 C69 1.248 . S
C1399 C438 1.623 . S
C1397 C87 1.641 . S
C1417 C463 1.797 . S
C1415 C99 1.797 . S
C1433 C177 1.517 . S
C1435 C282 1.516 . S
C1453 C246 1.418 . S
C1451 C22 1.417 . S
C1469 C35 1.827 . S
C1471 C283 1.826 . S
C1489 C212 1.448 1_554 S
C1487 C4 1.445 . S
