# Generated by pormake.
# Topology cml, (3,6)-cn, num edge types: 1
# Building blocks:
#     Node 0, Type 0, BuildingBlock: BETDAH_clean_linker_0, # of connection points: 3
#     Node 1, Type 0, BuildingBlock: BETDAH_clean_linker_0, # of connection points: 3
#     Node 2, Type 0, BuildingBlock: BETDAH_clean_linker_0, # of connection points: 3
#     Node 3, Type 0, BuildingBlock: BETDAH_clean_linker_0, # of connection points: 3
#     Node 4, Type 0, BuildingBlock: BETDAH_clean_linker_0, # of connection points: 3
#     Node 5, Type 0, BuildingBlock: BETDAH_clean_linker_0, # of connection points: 3
#     Node 6, Type 0, BuildingBlock: BETDAH_clean_linker_0, # of connection points: 3
#     Node 7, Type 0, BuildingBlock: BETDAH_clean_linker_0, # of connection points: 3
#     Node 8, Type 1, BuildingBlock: IZENUY_clean_sbu_0, # of connection points: 6
#     Node 9, Type 1, BuildingBlock: IZENUY_clean_sbu_0, # of connection points: 6
#     Node 10, Type 1, BuildingBlock: IZENUY_clean_sbu_0, # of connection points: 6
#     Node 11, Type 1, BuildingBlock: IZENUY_clean_sbu_0, # of connection points: 6
#     Edge 12, Type (0, 1), BuildingBlock: EZIPEK_clean_linker_0, # of connection points: 2
#     Edge 13, Type (0, 1), BuildingBlock: EZIPEK_clean_linker_0, # of connection points: 2
#     Edge 14, Type (0, 1), BuildingBlock: EZIPEK_clean_linker_0, # of connection points: 2
#     Edge 15, Type (0, 1), BuildingBlock: EZIPEK_clean_linker_0, # of connection points: 2
#     Edge 16, Type (0, 1), BuildingBlock: EZIPEK_clean_linker_0, # of connection points: 2
#     Edge 17, Type (0, 1), BuildingBlock: EZIPEK_clean_linker_0, # of connection points: 2
#     Edge 18, Type (0, 1), BuildingBlock: EZIPEK_clean_linker_0, # of connection points: 2
#     Edge 19, Type (0, 1), BuildingBlock: EZIPEK_clean_linker_0, # of connection points: 2
#     Edge 20, Type (0, 1), BuildingBlock: EZIPEK_clean_linker_0, # of connection points: 2
#     Edge 21, Type (0, 1), BuildingBlock: EZIPEK_clean_linker_0, # of connection points: 2
#     Edge 22, Type (0, 1), BuildingBlock: EZIPEK_clean_linker_0, # of connection points: 2
#     Edge 23, Type (0, 1), BuildingBlock: EZIPEK_clean_linker_0, # of connection points: 2
#     Edge 24, Type (0, 1), BuildingBlock: EZIPEK_clean_linker_0, # of connection points: 2
#     Edge 25, Type (0, 1), BuildingBlock: EZIPEK_clean_linker_0, # of connection points: 2
#     Edge 26, Type (0, 1), BuildingBlock: EZIPEK_clean_linker_0, # of connection points: 2
#     Edge 27, Type (0, 1), BuildingBlock: EZIPEK_clean_linker_0, # of connection points: 2
#     Edge 28, Type (0, 1), BuildingBlock: EZIPEK_clean_linker_0, # of connection points: 2
#     Edge 29, Type (0, 1), BuildingBlock: EZIPEK_clean_linker_0, # of connection points: 2
#     Edge 30, Type (0, 1), BuildingBlock: EZIPEK_clean_linker_0, # of connection points: 2
#     Edge 31, Type (0, 1), BuildingBlock: EZIPEK_clean_linker_0, # of connection points: 2
#     Edge 32, Type (0, 1), BuildingBlock: EZIPEK_clean_linker_0, # of connection points: 2
#     Edge 33, Type (0, 1), BuildingBlock: EZIPEK_clean_linker_0, # of connection points: 2
#     Edge 34, Type (0, 1), BuildingBlock: EZIPEK_clean_linker_0, # of connection points: 2
#     Edge 35, Type (0, 1), BuildingBlock: EZIPEK_clean_linker_0, # of connection points: 2
# Relax obj value: 0.004
# Max RMSD: 0.062
# Mean RMSD: 0.049
data_MOF--net-cml--node1-IZENUY_clean_sbu_0--node2-BETDAH_clean_linker_0--edge1-EZIPEK_clean_linker_0
_symmetry_space_group_name_H-M    P1
_symmetry_Int_Tables_number       1
_symmetry_cell_setting            triclinic
loop_
_symmetry_equiv_pos_as_xyz
'x, y, z'
_cell_length_a     27.305573
_cell_length_b     30.076396
_cell_length_c     26.146351
_cell_angle_alpha  89.257468
_cell_angle_beta   90.726229
_cell_angle_gamma 91.652929
loop_
_atom_site_label
_atom_site_type_symbol
_atom_site_fract_x
_atom_site_fract_y
_atom_site_fract_z
_atom_type_partial_charge
H0 H 0.36977 0.45908 0.05815 0.0
H1 H 0.29859 0.38316 0.94086 0.0
H2 H 0.30654 0.32976 0.09234 0.0
C3 C 0.34589 0.43107 0.04887 0.0
C4 C 0.33251 0.39881 0.08641 0.0
C5 C 0.33329 0.42621 0.99702 0.0
C6 C 0.30662 0.38805 0.98111 0.0
C7 C 0.29623 0.35375 0.01668 0.0
C8 C 0.31059 0.35883 0.06803 0.0
N9 N 0.27987 0.3108 1.00092 0.0
C10 C 0.23798 0.30135 0.97172 0.0
H11 H 0.63675 0.58608 0.54424 0.0
H12 H 0.77275 0.60901 0.46507 0.0
H13 H 0.74616 0.67693 0.60548 0.0
C14 C 0.67207 0.6033 0.54114 0.0
C15 C 0.68731 0.63331 0.57915 0.0
C16 C 0.70246 0.59451 0.49982 0.0
C17 C 0.74855 0.61652 0.49612 0.0
C18 C 0.76422 0.64646 0.53431 0.0
C19 C 0.73353 0.65464 0.57553 0.0
N20 N 0.813 0.66379 0.53607 0.0
C21 C 0.83344 0.69185 0.49889 0.0
H22 H 0.63233 0.4499 0.04611 0.0
H23 H 0.75128 0.45217 0.94001 0.0
H24 H 0.75625 0.36662 0.07293 0.0
C25 C 0.66706 0.43725 0.03397 0.0
C26 C 0.69144 0.40607 0.0647 0.0
C27 C 0.68834 0.4537 0.9888 0.0
C28 C 0.73401 0.43851 0.9741 0.0
C29 C 0.75803 0.40629 1.00337 0.0
C30 C 0.73673 0.38996 0.04888 0.0
N31 N 0.80637 0.39571 0.98998 0.0
C32 C 0.82086 0.35313 0.97831 0.0
H33 H 0.38355 0.57399 0.57746 0.0
H34 H 0.26901 0.66541 0.55288 0.0
H35 H 0.30248 0.57395 0.43535 0.0
C36 C 0.35318 0.58392 0.55375 0.0
C37 C 0.34134 0.56255 0.50726 0.0
C38 C 0.32669 0.62002 0.57086 0.0
C39 C 0.28981 0.63779 0.53957 0.0
C40 C 0.2821 0.62096 0.49016 0.0
C41 C 0.30805 0.58432 0.47447 0.0
N42 N 0.24901 0.63975 0.45436 0.0
C43 C 0.22356 0.67837 0.4612 0.0
H44 H 0.88066 0.95681 0.05234 0.0
H45 H 0.75319 0.91405 0.96499 0.0
H46 H 0.78797 0.85005 0.1088 0.0
C47 C 0.84829 0.93534 0.04802 0.0
C48 C 0.83769 0.90305 0.08553 0.0
C49 C 0.81836 0.9394 1.00432 0.0
C50 C 0.77659 0.91095 0.99853 0.0
C51 C 0.76562 0.87864 0.03671 0.0
C52 C 0.79621 0.87518 0.0798 0.0
N53 N 0.72385 0.84953 0.03477 0.0
C54 C 0.69738 0.83665 0.99146 0.0
H55 H 0.15285 0.06668 0.55591 0.0
H56 H 0.24308 0.1374 0.4487 0.0
H57 H 0.21255 0.19631 0.59201 0.0
C58 C 0.17835 0.09408 0.54921 0.0
C59 C 0.18764 0.12699 0.5866 0.0
C60 C 0.19884 0.0971 0.50026 0.0
C61 C 0.22828 0.13437 0.48687 0.0
C62 C 0.23301 0.17004 0.52068 0.0
C63 C 0.21155 0.16665 0.56913 0.0
N64 N 0.25262 0.21204 0.50463 0.0
C65 C 0.29756 0.21915 0.48089 0.0
H66 H 0.13055 0.93004 0.06108 0.0
H67 H 0.23714 0.94756 0.94231 0.0
H68 H 0.26251 0.85508 0.06606 0.0
C69 C 0.16484 0.9212 0.04392 0.0
C70 C 0.19524 0.8911 0.06944 0.0
C71 C 0.17966 0.94202 0.9981 0.0
C72 C 0.22481 0.93118 0.97721 0.0
C73 C 0.25356 0.89834 0.99992 0.0
C74 C 0.23907 0.87853 0.04663 0.0
N75 N 0.29815 0.88812 0.97611 0.0
C76 C 0.31726 0.84582 0.97461 0.0
H77 H 0.89556 0.08299 0.55701 0.0
H78 H 0.76282 0.15687 0.56192 0.0
H79 H 0.79296 0.07717 0.43114 0.0
C80 C 0.86148 0.09317 0.53926 0.0
C81 C 0.84818 0.0773 0.49074 0.0
C82 C 0.83112 0.12205 0.56504 0.0
C83 C 0.78687 0.13515 0.5419 0.0
C84 C 0.77313 0.11852 0.49353 0.0
C85 C 0.80382 0.08987 0.46834 0.0
N86 N 0.7271 0.1272 0.47082 0.0
C87 C 0.70968 0.16966 0.46356 0.0
Fe88 Fe 0.03095 0.83043 0.32095 0.0
Fe89 Fe 0.03636 0.88646 0.4185 0.0
O90 O 0.03607 0.88313 0.35075 0.0
Fe91 Fe 0.04104 0.9324 0.31304 0.0
O92 O 0.98307 0.92043 0.28081 0.0
O93 O 0.99682 0.85035 0.26428 0.0
O94 O 0.97216 0.81804 0.35059 0.0
C95 C 0.9661 0.81633 0.39833 0.0
C96 C 0.09902 0.87109 0.25944 0.0
O97 O 0.99551 0.83702 0.42826 0.0
C98 C 0.10513 0.95536 0.38916 0.0
O99 O 0.06439 0.80099 0.37195 0.0
O100 O 0.0908 0.85368 0.424 0.0
O101 O 0.07593 0.90696 0.26187 0.0
O102 O 0.08931 0.83877 0.28911 0.0
C103 C 0.97855 0.95617 0.39428 0.0
O104 O 0.07674 0.93672 0.42147 0.0
O105 O 0.0996 0.94803 0.34218 0.0
C106 C 0.09396 0.81523 0.40606 0.0
O107 O 0.98222 0.91951 0.41762 0.0
O108 O 1.00674 0.96681 0.3576 0.0
C109 C 0.97336 0.8855 0.25614 0.0
Fe110 Fe 0.99551 0.14319 0.91754 0.0
Fe111 Fe 0.99066 0.09238 0.81692 0.0
O112 O 0.99414 0.14358 0.84974 0.0
Fe113 Fe 0.99757 0.19458 0.81468 0.0
O114 O 0.05559 0.21041 0.84429 0.0
O115 O 0.03635 0.19282 0.92357 0.0
O116 O 0.05067 0.11095 0.91942 0.0
C117 C 0.05315 0.07253 0.90143 0.0
C118 C 0.93612 0.21339 0.89932 0.0
O119 O 0.0237 0.06017 0.86633 0.0
C120 C 0.93192 0.14886 0.75476 0.0
O121 O 0.9548 0.09296 0.92385 0.0
O122 O 0.93194 0.0775 0.84482 0.0
O123 O 0.96265 0.2258 0.86186 0.0
O124 O 0.94103 0.17591 0.92061 0.0
C125 C 0.0588 0.13739 0.75911 0.0
O126 O 0.9569 0.11437 0.76116 0.0
O127 O 0.93979 0.18273 0.78181 0.0
C128 C 0.926 0.07315 0.89238 0.0
O129 O 0.04926 0.10409 0.78738 0.0
O130 O 0.03351 0.17212 0.76147 0.0
C131 C 0.06455 0.2119 0.89153 0.0
Fe132 Fe 0.52325 0.33412 0.31582 0.0
Fe133 Fe 0.53869 0.38247 0.41714 0.0
O134 O 0.53066 0.38464 0.34982 0.0
Fe135 Fe 0.52862 0.43662 0.3173 0.0
O136 O 0.4688 0.42366 0.29035 0.0
O137 O 0.48288 0.35625 0.26493 0.0
O138 O 0.46809 0.31913 0.35153 0.0
C139 C 0.46702 0.31425 0.39954 0.0
C140 C 0.58386 0.38177 0.25158 0.0
O141 O 0.50192 0.3303 0.42652 0.0
C142 C 0.59871 0.4579 0.38854 0.0
O143 O 0.56301 0.30221 0.36015 0.0
O144 O 0.59495 0.35294 0.41147 0.0
O145 O 0.56043 0.41675 0.26039 0.0
O146 O 0.57711 0.34648 0.27764 0.0
C147 C 0.47302 0.44888 0.4071 0.0
O148 O 0.57601 0.43422 0.42134 0.0
O149 O 0.58835 0.45476 0.34169 0.0
C150 C 0.59586 0.31492 0.39209 0.0
O151 O 0.48324 0.41185 0.42653 0.0
O152 O 0.49601 0.46481 0.36882 0.0
C153 C 0.45798 0.39105 0.26253 0.0
Fe154 Fe 0.50352 0.64364 0.91429 0.0
Fe155 Fe 0.49595 0.5956 0.81153 0.0
O156 O 0.49745 0.64577 0.84652 0.0
Fe157 Fe 0.4935 0.69788 0.81428 0.0
O158 O 0.5518 0.71803 0.84055 0.0
O159 O 0.53695 0.69769 0.91985 0.0
O160 O 0.56255 0.61794 0.91019 0.0
C161 C 0.57099 0.58306 0.88586 0.0
C162 C 0.43482 0.70696 0.90325 0.0
O163 O 0.53859 0.56747 0.85524 0.0
C164 C 0.42748 0.64948 0.75727 0.0
O165 O 0.47141 0.58903 0.92236 0.0
O166 O 0.44255 0.57385 0.84561 0.0
O167 O 0.45836 0.72334 0.86551 0.0
O168 O 0.44497 0.66955 0.92239 0.0
C169 C 0.55447 0.64789 0.74956 0.0
O170 O 0.45399 0.61564 0.76106 0.0
O171 O 0.43499 0.68262 0.78535 0.0
C172 C 0.44188 0.56758 0.89337 0.0
O173 O 0.54903 0.61245 0.77509 0.0
O174 O 0.52787 0.68105 0.75734 0.0
C175 C 0.56133 0.72069 0.88764 0.0
C176 C 0.14974 0.30302 0.94654 0.0
C177 C 0.19503 0.28117 0.94649 0.0
C178 C 0.15558 0.21628 0.9051 0.0
C179 C 0.1094 0.23632 0.90969 0.0
N180 N 0.06106 0.29734 0.93668 0.0
N181 N 0.24153 0.21606 0.92988 0.0
C182 C 0.10607 0.27939 0.93089 0.0
C183 C 0.19815 0.23766 0.92655 0.0
N184 N 0.1488 0.34658 0.96074 0.0
N185 N 0.15877 0.1769 0.87986 0.0
H186 H 0.27404 0.2312 0.94313 0.0
H187 H 0.24498 0.18241 0.92235 0.0
H188 H 0.12829 0.15911 0.86571 0.0
H189 H 0.19176 0.16316 0.86973 0.0
H190 H 0.11803 0.36607 0.95731 0.0
H191 H 0.18019 0.36444 0.97256 0.0
H192 H 0.05522 0.32628 0.95682 0.0
H193 H 0.0287 0.28188 0.92353 0.0
C194 C 0.89055 0.70968 0.428 0.0
C195 C 0.86107 0.72432 0.46815 0.0
C196 C 0.89392 0.80051 0.45608 0.0
C197 C 0.9282 0.7849 0.42039 0.0
N198 N 0.96417 0.72234 0.37888 0.0
N199 N 0.83585 0.78265 0.52337 0.0
C200 C 0.92754 0.73893 0.40755 0.0
C201 C 0.86284 0.76953 0.4828 0.0
N202 N 0.88317 0.66773 0.4094 0.0
N203 N 0.89004 0.84512 0.46345 0.0
H204 H 0.81081 0.76149 0.54215 0.0
H205 H 0.84021 0.81366 0.54035 0.0
H206 H 0.91241 0.86868 0.44513 0.0
H207 H 0.86217 0.85904 0.48421 0.0
H208 H 0.89991 0.65654 0.37658 0.0
H209 H 0.85668 0.6455 0.42407 0.0
H210 H 0.96859 0.68847 0.37338 0.0
H211 H 0.99316 0.74173 0.36457 0.0
C212 C 0.83475 0.29716 0.91116 0.0
C213 C 0.84362 0.31275 0.96147 0.0
C214 C 0.91129 0.26162 0.97245 0.0
C215 C 0.90228 0.24545 0.92214 0.0
N216 N 0.84831 0.23981 0.84877 0.0
N217 N 0.88152 0.30322 0.0442 0.0
C218 C 0.86182 0.26088 0.89297 0.0
C219 C 0.879 0.29268 0.9935 0.0
N220 N 0.80134 0.31782 0.88032 0.0
N221 N 0.95216 0.24929 0.99918 0.0
H222 H 0.85843 0.32604 0.06053 0.0
H223 H 0.90307 0.2865 0.0709 0.0
H224 H 0.97672 0.2265 0.98574 0.0
H225 H 0.96394 0.2642 0.03306 0.0
H226 H 0.79728 0.31173 0.84137 0.0
H227 H 0.77928 0.34302 0.89327 0.0
H228 H 0.8165 0.24659 0.82811 0.0
H229 H 0.86655 0.21242 0.83526 0.0
C230 C 0.21244 0.75734 0.4389 0.0
C231 C 0.19294 0.71677 0.45894 0.0
C232 C 0.11064 0.74658 0.45743 0.0
C233 C 0.12891 0.78408 0.42932 0.0
N234 N 0.19655 0.82521 0.39112 0.0
N235 N 0.12455 0.67152 0.48835 0.0
C236 C 0.17983 0.78997 0.4202 0.0
C237 C 0.14238 0.71121 0.46917 0.0
N238 N 0.26209 0.76438 0.43764 0.0
N239 N 0.06325 0.7453 0.4737 0.0
H240 H 0.14727 0.64586 0.5 0.0
H241 H 0.08738 0.66313 0.49055 0.0
H242 H 0.03941 0.77111 0.46658 0.0
H243 H 0.04877 0.72085 0.49814 0.0
H244 H 0.27884 0.79474 0.42766 0.0
H245 H 0.28656 0.74078 0.45119 0.0
H246 H 0.23243 0.82876 0.37839 0.0
H247 H 0.1737 0.84967 0.3766 0.0
C248 C 0.68145 0.78284 0.92173 0.0
C249 C 0.66366 0.81464 0.95581 0.0
C250 C 0.57921 0.79249 0.93329 0.0
C251 C 0.59679 0.75567 0.9062 0.0
N252 N 0.66446 0.71582 0.87289 0.0
N253 N 0.59627 0.85048 0.99514 0.0
C254 C 0.64795 0.75125 0.89918 0.0
C255 C 0.61269 0.82003 0.96144 0.0
N256 N 0.73036 0.78299 0.91119 0.0
N257 N 0.53066 0.80208 0.9305 0.0
H258 H 0.61967 0.87299 0.01415 0.0
H259 H 0.55988 0.85198 1.00627 0.0
H260 H 0.50566 0.78372 0.90844 0.0
H261 H 0.51602 0.83063 0.94551 0.0
H262 H 0.74565 0.76323 0.88356 0.0
H263 H 0.75531 0.80589 0.92737 0.0
H264 H 0.70115 0.70763 0.87098 0.0
H265 H 0.64086 0.69287 0.85506 0.0
C266 C 0.36268 0.22712 0.41448 0.0
C267 C 0.34432 0.23761 0.46303 0.0
C268 C 0.40661 0.29726 0.47191 0.0
C269 C 0.42705 0.28586 0.42385 0.0
N270 N 0.43345 0.22902 0.35966 0.0
N271 N 0.35754 0.27306 0.54421 0.0
C272 C 0.40763 0.24758 0.39797 0.0
C273 C 0.36932 0.26938 0.49377 0.0
N274 N 0.33713 0.19797 0.38388 0.0
N275 N 0.41991 0.33596 0.49576 0.0
H276 H 0.33024 0.25335 0.56158 0.0
H277 H 0.37822 0.29226 0.56994 0.0
H278 H 0.44647 0.35827 0.48259 0.0
H279 H 0.40113 0.34814 0.52683 0.0
H280 H 0.34592 0.19284 0.34577 0.0
H281 H 0.30513 0.18127 0.39572 0.0
H282 H 0.42277 0.1992 0.34238 0.0
H283 H 0.46865 0.24005 0.34977 0.0
C284 C 0.38678 0.79575 0.98951 0.0
C285 C 0.34155 0.80443 0.9648 0.0
C286 C 0.35311 0.74297 0.9058 0.0
C287 C 0.39937 0.73538 0.92915 0.0
N288 N 0.4546 0.74608 1.00103 0.0
N289 N 0.27573 0.78103 0.90848 0.0
C290 C 0.41426 0.75893 0.97376 0.0
C291 C 0.32272 0.77614 0.92589 0.0
N292 N 0.4044 0.8239 0.02652 0.0
N293 N 0.33893 0.71907 0.86375 0.0
H294 H 0.25285 0.80503 0.92279 0.0
H295 H 0.25801 0.7594 0.88311 0.0
H296 H 0.35879 0.69252 0.85049 0.0
H297 H 0.30856 0.72622 0.84099 0.0
H298 H 0.4399 0.82316 0.04143 0.0
H299 H 0.38406 0.84981 0.04063 0.0
H300 H 0.46488 0.75916 0.03635 0.0
H301 H 0.47579 0.71954 0.99052 0.0
C302 C 0.65016 0.2277 0.4812 0.0
C303 C 0.68696 0.21113 0.4497 0.0
C304 C 0.66776 0.26569 0.3825 0.0
C305 C 0.63024 0.28206 0.41365 0.0
N306 N 0.59283 0.28564 0.49703 0.0
N307 N 0.73865 0.219 0.37614 0.0
C308 C 0.62382 0.26542 0.4645 0.0
C309 C 0.69829 0.2317 0.40211 0.0
N310 N 0.63908 0.20622 0.52623 0.0
N311 N 0.6737 0.28232 0.33399 0.0
H312 H 0.76159 0.1942 0.38977 0.0
H313 H 0.7518 0.23512 0.34344 0.0
H314 H 0.65455 0.30944 0.31988 0.0
H315 H 0.69611 0.26842 0.30696 0.0
H316 H 0.60835 0.21262 0.54781 0.0
H317 H 0.65932 0.17991 0.54082 0.0
H318 H 0.59091 0.27827 0.53596 0.0
H319 H 0.57158 0.31245 0.48655 0.0
C320 C 0.40583 0.45233 0.94684 0.0
C321 C 0.35634 0.4584 0.95987 0.0
C322 C 0.36055 0.53355 0.92126 0.0
C323 C 0.41189 0.52958 0.91489 0.0
N324 N 0.48461 0.48652 0.92783 0.0
N325 N 0.28604 0.50457 0.96149 0.0
C326 C 0.4348 0.48922 0.92906 0.0
C327 C 0.33333 0.49884 0.94705 0.0
N328 N 0.42524 0.41105 0.95173 0.0
N329 N 0.33804 0.57072 0.90324 0.0
H330 H 0.26482 0.47907 0.97832 0.0
H331 H 0.26853 0.53481 0.95895 0.0
H332 H 0.35725 0.5977 0.88689 0.0
H333 H 0.30019 0.57388 0.90174 0.0
H334 H 0.45942 0.40318 0.93776 0.0
H335 H 0.40521 0.38339 0.96529 0.0
H336 H 0.5038 0.46011 0.94354 0.0
H337 H 0.50743 0.51239 0.91525 0.0
C338 C 0.69674 0.51519 0.47001 0.0
C339 C 0.68547 0.56055 0.46209 0.0
C340 C 0.62245 0.53938 0.39862 0.0
C341 C 0.63315 0.49373 0.40701 0.0
N342 N 0.68882 0.43932 0.43954 0.0
N343 N 0.64774 0.61677 0.41014 0.0
C344 C 0.67311 0.48206 0.43918 0.0
C345 C 0.65179 0.57287 0.42322 0.0
N346 N 0.72839 0.50365 0.50853 0.0
N347 N 0.58231 0.5509 0.37017 0.0
H348 H 0.66844 0.64196 0.428 0.0
H349 H 0.62757 0.62782 0.37863 0.0
H350 H 0.56003 0.52814 0.35052 0.0
H351 H 0.56899 0.58299 0.36864 0.0
H352 H 0.73358 0.47095 0.52049 0.0
H353 H 0.74763 0.52711 0.5306 0.0
H354 H 0.72039 0.42929 0.45865 0.0
H355 H 0.67282 0.41473 0.41644 0.0
C356 C 0.63931 0.47745 0.91175 0.0
C357 C 0.66408 0.4888 0.95798 0.0
C358 C 0.64403 0.56713 0.94419 0.0
C359 C 0.61261 0.55433 0.90288 0.0
N360 N 0.60535 0.5044 0.83166 0.0
N361 N 0.69162 0.54431 0.01849 0.0
C362 C 0.61753 0.51146 0.88178 0.0
C363 C 0.66728 0.53373 0.97407 0.0
N364 N 0.63476 0.43395 0.89751 0.0
N365 N 0.65532 0.61113 0.95162 0.0
H366 H 0.71145 0.52132 0.0399 0.0
H367 H 0.68985 0.57518 0.03578 0.0
H368 H 0.64477 0.63571 0.92566 0.0
H369 H 0.68076 0.62276 0.97865 0.0
H370 H 0.6121 0.42323 0.86748 0.0
H371 H 0.65053 0.40802 0.91818 0.0
H372 H 0.61155 0.47478 0.81297 0.0
H373 H 0.59612 0.53036 0.80684 0.0
C374 C 0.40987 0.50612 0.51457 0.0
C375 C 0.36739 0.52161 0.48951 0.0
C376 C 0.38866 0.47926 0.41397 0.0
C377 C 0.43695 0.4754 0.4341 0.0
N378 N 0.49384 0.48625 0.50503 0.0
N379 N 0.30394 0.49214 0.43414 0.0
C380 C 0.44767 0.48905 0.4849 0.0
C381 C 0.35268 0.49938 0.44412 0.0
N382 N 0.41015 0.49944 0.56621 0.0
N383 N 0.37703 0.46393 0.36633 0.0
H384 H 0.27735 0.50147 0.45997 0.0
H385 H 0.29044 0.47246 0.40435 0.0
H386 H 0.4015 0.44676 0.34438 0.0
H387 H 0.34406 0.47055 0.34764 0.0
H388 H 0.43894 0.48444 0.5858 0.0
H389 H 0.37833 0.50246 0.58752 0.0
H390 H 0.50338 0.49923 0.54073 0.0
H391 H 0.5232 0.47484 0.48436 0.0
C392 C 0.86437 0.96055 0.92519 0.0
C393 C 0.83346 0.97335 0.96513 0.0
C394 C 0.85257 0.05206 0.94538 0.0
C395 C 0.89001 0.039 0.91205 0.0
N396 N 0.93306 0.98008 0.87109 0.0
N397 N 0.79621 0.03073 0.01321 0.0
C398 C 0.89566 0.99308 0.90127 0.0
C399 C 0.82647 0.01907 0.97469 0.0
N400 N 0.86433 0.91704 0.91071 0.0
N401 N 0.8415 0.09599 0.94819 0.0
H402 H 0.77455 1.00739 0.03319 0.0
H403 H 0.79398 0.06299 0.02674 0.0
H404 H 0.85938 0.12062 0.92633 0.0
H405 H 0.81192 0.10759 0.96831 0.0
H406 H 0.882 0.90611 0.87834 0.0
H407 H 0.84274 0.89229 0.92836 0.0
H408 H 0.94329 0.94718 0.86781 0.0
H409 H 0.95632 1.00215 0.85158 0.0
C410 C 0.20042 0.01819 0.47033 0.0
C411 C 0.18466 0.06229 0.46228 0.0
C412 C 0.1313 0.03656 0.39182 0.0
C413 C 0.13948 0.99165 0.40686 0.0
N414 N 0.18388 0.9392 0.45855 0.0
N415 N 0.13103 0.11319 0.41869 0.0
C416 C 0.1751 0.98236 0.4453 0.0
C417 C 0.14976 0.07161 0.42323 0.0
N418 N 0.23973 1.01086 0.50187 0.0
N419 N 0.10473 0.04613 0.34861 0.0
H420 H 0.14293 0.13999 0.44091 0.0
H421 H 0.10065 0.12034 0.39585 0.0
H422 H 0.08819 0.02226 0.32523 0.0
H423 H 0.10267 0.07817 0.33324 0.0
H424 H 0.25593 0.98012 0.50634 0.0
H425 H 0.25897 0.03668 0.52026 0.0
H426 H 0.20464 0.9299 0.49038 0.0
H427 H 0.16874 0.91235 0.43838 0.0
C428 C 0.13362 0.97165 0.92077 0.0
C429 C 0.14835 0.97606 0.97278 0.0
C430 C 0.09495 0.03955 0.97979 0.0
C431 C 0.08655 0.03968 0.92591 0.0
N432 N 0.11046 1.01123 0.84384 0.0
N433 N 0.15314 0.02311 0.04714 0.0
C434 C 0.10953 1.00729 0.8959 0.0
C435 C 0.13224 0.01282 1.00089 0.0
N436 N 0.14071 0.93298 0.89543 0.0
N437 N 0.0656 0.06232 0.0116 0.0
H438 H 0.18247 1.00589 0.06281 0.0
H439 H 0.14495 0.05187 0.0668 0.0
H440 H 0.03422 0.07832 0.99913 0.0
H441 H 0.06864 0.06 0.05134 0.0
H442 H 0.12654 0.92712 0.85884 0.0
H443 H 0.15573 0.90506 0.91292 0.0
H444 H 0.13036 0.99021 0.82106 0.0
H445 H 0.09678 0.03849 0.824 0.0
C446 C 0.86449 1.00324 0.45162 0.0
C447 C 0.88078 0.0472 0.46335 0.0
C448 C 0.96209 0.03136 0.43135 0.0
C449 C 0.94442 0.98897 0.41475 0.0
N450 N 0.87511 0.93963 0.39788 0.0
N451 N 0.94141 0.10651 0.45241 0.0
C452 C 0.89442 0.97645 0.42147 0.0
C453 C 0.92844 0.06239 0.44938 0.0
N454 N 0.82161 0.98621 0.47115 0.0
N455 N 0.01117 0.04113 0.43322 0.0
H456 H 0.91739 0.13052 0.46442 0.0
H457 H 0.97422 0.11976 0.43805 0.0
H458 H 0.03718 0.01824 0.42368 0.0
H459 H 0.02609 0.0699 0.44975 0.0
H460 H 0.81076 0.95285 0.46785 0.0
H461 H 0.79933 1.00413 0.49501 0.0
H462 H 0.83776 0.93143 0.39733 0.0
H463 H 0.89597 0.91967 0.37491 0.0
C464 C 0.34328 0.36917 0.17909 0.0
C465 C 0.3497 0.40359 0.14198 0.0
C466 C 0.41739 0.43537 0.19212 0.0
C467 C 0.41868 0.39594 0.22287 0.0
N468 N 0.37801 0.32702 0.24961 0.0
N469 N 0.36283 0.48285 0.14526 0.0
C470 C 0.38003 0.36331 0.21774 0.0
C471 C 0.37772 0.44121 0.1578 0.0
N472 N 0.29885 0.34751 0.18253 0.0
N473 N 0.45507 0.46622 0.19269 0.0
H474 H 0.32981 0.48775 0.12562 0.0
H475 H 0.37992 0.51157 0.1598 0.0
H476 H 0.48744 0.46226 0.2135 0.0
H477 H 0.4561 0.49348 0.16759 0.0
H478 H 0.28981 0.32483 0.21158 0.0
H479 H 0.26903 0.35717 0.16 0.0
H480 H 0.35449 0.29969 0.24328 0.0
H481 H 0.401 0.3235 0.28136 0.0
C482 C 0.66923 0.62595 0.67346 0.0
C483 C 0.65517 0.6408 0.62376 0.0
C484 C 0.57415 0.65836 0.65582 0.0
C485 C 0.58985 0.6482 0.70655 0.0
N486 N 0.65598 0.6298 0.76464 0.0
N487 N 0.59812 0.68046 0.57019 0.0
C488 C 0.63859 0.63436 0.71566 0.0
C489 C 0.60889 0.66014 0.61583 0.0
N490 N 0.71045 0.60168 0.68012 0.0
N491 N 0.52551 0.6627 0.64484 0.0
H492 H 0.62288 0.68282 0.54013 0.0
H493 H 0.56664 0.6987 0.56416 0.0
H494 H 0.49853 0.65732 0.67212 0.0
H495 H 0.51165 0.66603 0.60771 0.0
H496 H 0.71943 0.58583 0.7145 0.0
H497 H 0.73332 0.5937 0.65017 0.0
H498 H 0.69267 0.62448 0.77346 0.0
H499 H 0.63475 0.63532 0.79664 0.0
C500 C 0.68389 0.41825 0.15928 0.0
C501 C 0.67028 0.39344 0.11524 0.0
C502 C 0.60276 0.3569 0.16224 0.0
C503 C 0.61652 0.38161 0.20645 0.0
N504 N 0.67692 0.42675 0.25111 0.0
N505 N 0.6245 0.33253 0.0774 0.0
C506 C 0.65927 0.4095 0.20618 0.0
C507 C 0.63224 0.36047 0.11771 0.0
N508 N 0.71901 0.45145 0.15574 0.0
N509 N 0.56014 0.33193 0.16172 0.0
H510 H 0.64524 0.33475 0.04416 0.0
H511 H 0.60071 0.30488 0.07853 0.0
H512 H 0.53804 0.3275 0.19363 0.0
H513 H 0.5449 0.31782 0.12882 0.0
H514 H 0.72633 0.47435 0.18457 0.0
H515 H 0.73896 0.45792 0.12257 0.0
H516 H 0.71039 0.44398 0.2545 0.0
H517 H 0.66028 0.41999 0.28617 0.0
C518 C 0.36835 0.67632 0.62816 0.0
C519 C 0.3385 0.63728 0.62285 0.0
C520 C 0.35303 0.61779 0.7131 0.0
C521 C 0.3903 0.65145 0.71529 0.0
N522 N 0.43014 0.71684 0.67783 0.0
N523 N 0.29653 0.57375 0.66049 0.0
C524 C 0.39599 0.68279 0.67423 0.0
C525 C 0.32834 0.60937 0.66586 0.0
N526 N 0.37115 0.7065 0.58866 0.0
N527 N 0.34115 0.59445 0.75663 0.0
H528 H 0.27555 0.56867 0.62731 0.0
H529 H 0.29167 0.54871 0.68792 0.0
H530 H 0.35811 0.60107 0.79179 0.0
H531 H 0.31206 0.57146 0.75924 0.0
H532 H 0.38811 0.7378 0.59127 0.0
H533 H 0.35322 0.70177 0.55369 0.0
H534 H 0.4408 0.7373 0.64737 0.0
H535 H 0.45032 0.72383 0.71087 0.0
C536 C 0.85623 0.90505 0.18021 0.0
C537 C 0.87173 0.89685 0.12966 0.0
C538 C 0.95459 0.88344 0.16168 0.0
C539 C 0.93805 0.8875 0.21264 0.0
N540 N 0.87049 0.89114 0.27054 0.0
N541 N 0.9324 0.86733 0.07393 0.0
C542 C 0.88802 0.89514 0.22199 0.0
C543 C 0.91996 0.8827 0.12087 0.0
N544 N 0.81197 0.92364 0.1883 0.0
N545 N 1.0035 0.88247 0.1518 0.0
H546 H 0.90774 0.86524 0.0432 0.0
H547 H 0.96564 0.85245 0.06704 0.0
H548 H 0.03014 0.88451 0.18043 0.0
H549 H 0.01771 0.8842 0.115 0.0
H550 H 0.80109 0.93435 0.22404 0.0
H551 H 0.78801 0.93215 0.15861 0.0
H552 H 0.83344 0.89264 0.27918 0.0
H553 H 0.89248 0.88119 0.30124 0.0
C554 C 0.17369 0.15658 0.6775 0.0
C555 C 0.16593 0.12313 0.64021 0.0
C556 C 0.09515 0.0944 0.68749 0.0
C557 C 0.09634 0.13295 0.71854 0.0
N558 N 0.14015 0.20005 0.74521 0.0
N559 N 0.14729 0.04448 0.64431 0.0
C560 C 0.1367 0.16388 0.7143 0.0
C561 C 0.13469 0.08692 0.65464 0.0
N562 N 0.21926 0.17588 0.68305 0.0
N563 N 0.05565 0.06551 0.68726 0.0
H564 H 0.18116 0.03767 0.62848 0.0
H565 H 0.12764 0.01668 0.65812 0.0
H566 H 0.02389 0.07071 0.70774 0.0
H567 H 0.05276 0.03892 0.66205 0.0
H568 H 0.22908 0.19738 0.7126 0.0
H569 H 0.24893 0.1652 0.66208 0.0
H570 H 0.16539 0.22622 0.73939 0.0
H571 H 0.11626 0.20508 0.77505 0.0
C572 C 0.1493 0.84009 0.1296 0.0
C573 C 0.1821 0.87683 0.12231 0.0
C574 C 0.17353 0.89699 0.21229 0.0
C575 C 0.1336 0.86612 0.21649 0.0
N576 N 0.08362 0.80663 0.17977 0.0
N577 N 0.22737 0.94003 0.15622 0.0
C578 C 0.12228 0.83632 0.17581 0.0
C579 C 0.19548 0.90477 0.16385 0.0
N580 N 0.14372 0.80924 0.09191 0.0
N581 N 0.19055 0.91848 0.25499 0.0
H582 H 0.24576 0.94555 0.12188 0.0
H583 H 0.23389 0.96496 0.18291 0.0
H584 H 0.17571 0.91227 0.29107 0.0
H585 H 0.22206 0.93879 0.25575 0.0
H586 H 0.12391 0.77937 0.09625 0.0
H587 H 0.16279 0.81178 0.0576 0.0
H588 H 0.06948 0.78833 0.14918 0.0
H589 H 0.06342 0.80192 0.21297 0.0
C590 C 0.88151 0.17289 0.62084 0.0
C591 C 0.84671 0.13726 0.61679 0.0
C592 C 0.85685 0.12077 0.70839 0.0
C593 C 0.89781 0.15078 0.71009 0.0
N594 N 0.95023 0.2056 0.66784 0.0
N595 N 0.80023 0.07691 0.65584 0.0
C596 C 0.90988 0.17764 0.6666 0.0
C597 C 0.83348 0.1115 0.66057 0.0
N598 N 0.88755 0.20191 0.5806 0.0
N599 N 0.84011 0.10164 0.75278 0.0
H600 H 0.78107 0.07037 0.62185 0.0
H601 H 0.79337 0.05342 0.68464 0.0
H602 H 0.85598 0.10884 0.78834 0.0
H603 H 0.80798 0.08228 0.75512 0.0
H604 H 0.90887 0.23111 0.5825 0.0
H605 H 0.86752 0.1988 0.54651 0.0
H606 H 0.96474 0.22141 0.63554 0.0
H607 H 0.97114 0.21134 0.70076 0.0
loop_
_geom_bond_atom_site_label_1
_geom_bond_atom_site_label_2
_geom_bond_distance
_geom_bond_site_symmetry_2
_ccdc_geom_bond_type
H0 C3 0.929 . S
H1 C6 0.929 . S
H2 C8 0.930 . S
C3 H0 0.929 . S
C3 C4 1.398 . S
C3 C5 1.396 1_554 S
C4 C3 1.398 . S
C4 C8 1.407 . S
C5 C3 1.396 1_556 S
C5 C6 1.394 . S
C6 H1 0.929 . S
C6 C5 1.394 . S
C6 C7 1.382 1_556 S
C7 C6 1.382 1_554 S
C7 C8 1.392 . S
C7 N9 1.420 1_554 S
C8 H2 0.930 . S
C8 C4 1.407 . S
C8 C7 1.392 . S
N9 C7 1.420 1_556 S
N9 C10 1.244 . S
C10 N9 1.244 . S
H11 C14 0.929 . S
H12 C17 0.929 . S
H13 C19 0.930 . S
C14 H11 0.929 . S
C14 C15 1.398 . S
C14 C16 1.396 . S
C15 C14 1.398 . S
C15 C19 1.407 . S
C16 C14 1.396 . S
C16 C17 1.394 . S
C17 H12 0.929 . S
C17 C16 1.394 . S
C17 C18 1.382 . S
C18 C17 1.382 . S
C18 C19 1.392 . S
C18 N20 1.420 . S
C19 H13 0.930 . S
C19 C15 1.407 . S
C19 C18 1.392 . S
N20 C18 1.420 . S
N20 C21 1.244 . S
C21 N20 1.244 . S
H22 C25 0.929 . S
H23 C28 0.929 . S
H24 C30 0.930 . S
C25 H22 0.929 . S
C25 C26 1.398 . S
C25 C27 1.396 1_554 S
C26 C25 1.398 . S
C26 C30 1.407 . S
C27 C25 1.396 1_556 S
C27 C28 1.394 . S
C28 H23 0.929 . S
C28 C27 1.394 . S
C28 C29 1.382 1_556 S
C29 C28 1.382 1_554 S
C29 C30 1.392 . S
C29 N31 1.420 . S
C30 H24 0.930 . S
C30 C26 1.407 . S
C30 C29 1.392 . S
N31 C29 1.420 . S
N31 C32 1.244 1_554 S
C32 N31 1.244 1_556 S
H33 C36 0.929 . S
H34 C39 0.929 . S
H35 C41 0.930 . S
C36 H33 0.929 . S
C36 C37 1.398 . S
C36 C38 1.396 . S
C37 C36 1.398 . S
C37 C41 1.407 . S
C38 C36 1.396 . S
C38 C39 1.394 . S
C39 H34 0.929 . S
C39 C38 1.394 . S
C39 C40 1.382 . S
C40 C39 1.382 . S
C40 C41 1.392 . S
C40 N42 1.420 . S
C41 H35 0.930 . S
C41 C37 1.407 . S
C41 C40 1.392 . S
N42 C40 1.420 . S
N42 C43 1.244 . S
C43 N42 1.244 . S
H44 C47 0.929 . S
H45 C50 0.929 . S
H46 C52 0.930 . S
C47 H44 0.929 . S
C47 C48 1.398 . S
C47 C49 1.396 1_554 S
C48 C47 1.398 . S
C48 C52 1.407 . S
C49 C47 1.396 1_556 S
C49 C50 1.394 . S
C50 H45 0.929 . S
C50 C49 1.394 . S
C50 C51 1.382 1_556 S
C51 C50 1.382 1_554 S
C51 C52 1.392 . S
C51 N53 1.420 1_554 S
C52 H46 0.930 . S
C52 C48 1.407 . S
C52 C51 1.392 . S
N53 C51 1.420 1_556 S
N53 C54 1.244 . S
C54 N53 1.244 . S
H55 C58 0.929 . S
H56 C61 0.929 . S
H57 C63 0.930 . S
C58 H55 0.929 . S
C58 C59 1.398 . S
C58 C60 1.396 . S
C59 C58 1.398 . S
C59 C63 1.407 . S
C60 C58 1.396 . S
C60 C61 1.394 . S
C61 H56 0.929 . S
C61 C60 1.394 . S
C61 C62 1.382 . S
C62 C61 1.382 . S
C62 C63 1.392 . S
C62 N64 1.420 . S
C63 H57 0.930 . S
C63 C59 1.407 . S
C63 C62 1.392 . S
N64 C62 1.420 . S
N64 C65 1.244 . S
C65 N64 1.244 . S
H66 C69 0.929 . S
H67 C72 0.929 . S
H68 C74 0.930 . S
C69 H66 0.929 . S
C69 C70 1.398 . S
C69 C71 1.396 1_554 S
C70 C69 1.398 . S
C70 C74 1.407 . S
C71 C69 1.396 1_556 S
C71 C72 1.394 . S
C72 H67 0.929 . S
C72 C71 1.394 . S
C72 C73 1.382 1_556 S
C73 C72 1.382 1_554 S
C73 C74 1.392 . S
C73 N75 1.420 . S
C74 H68 0.930 . S
C74 C70 1.407 . S
C74 C73 1.392 . S
N75 C73 1.420 . S
N75 C76 1.244 1_554 S
C76 N75 1.244 1_556 S
H77 C80 0.929 . S
H78 C83 0.929 . S
H79 C85 0.930 . S
C80 H77 0.929 . S
C80 C81 1.398 . S
C80 C82 1.396 . S
C81 C80 1.398 . S
C81 C85 1.407 . S
C82 C80 1.396 . S
C82 C83 1.394 . S
C83 H78 0.929 . S
C83 C82 1.394 . S
C83 C84 1.382 . S
C84 C83 1.382 . S
C84 C85 1.392 . S
C84 N86 1.420 . S
C85 H79 0.930 . S
C85 C81 1.407 . S
C85 C84 1.392 . S
N86 C84 1.420 . S
N86 C87 1.244 . S
C87 N86 1.244 . S
Fe88 O90 1.918 . S
Fe88 O93 1.997 1_455 S
Fe88 O94 2.002 1_455 S
Fe88 O99 1.976 . S
Fe88 O102 1.996 . S
Fe89 O90 1.918 . S
Fe89 O97 1.997 1_455 S
Fe89 O100 1.996 . S
Fe89 O104 1.976 . S
Fe89 O107 2.002 1_455 S
O90 Fe88 1.918 . S
O90 Fe89 1.918 . S
O90 Fe91 1.918 . S
Fe91 O90 1.918 . S
Fe91 O92 2.002 1_455 S
Fe91 O101 1.976 . S
Fe91 O105 1.996 . S
Fe91 O108 1.997 1_455 S
O92 Fe91 2.002 1_655 S
O92 C109 1.295 . S
O93 Fe88 1.997 1_655 S
O93 C109 1.235 . S
O94 Fe88 2.002 1_655 S
O94 C95 1.295 . S
C95 O94 1.295 . S
C95 O97 1.235 . S
C96 O101 1.287 . S
C96 O102 1.255 . S
O97 Fe89 1.997 1_655 S
O97 C95 1.235 . S
C98 O104 1.287 . S
C98 O105 1.255 . S
O99 Fe88 1.976 . S
O99 C106 1.287 . S
O100 Fe89 1.996 . S
O100 C106 1.255 . S
O101 Fe91 1.976 . S
O101 C96 1.287 . S
O102 Fe88 1.996 . S
O102 C96 1.255 . S
C103 O107 1.295 . S
C103 O108 1.235 . S
O104 Fe89 1.976 . S
O104 C98 1.287 . S
O105 Fe91 1.996 . S
O105 C98 1.255 . S
C106 O99 1.287 . S
C106 O100 1.255 . S
O107 Fe89 2.002 1_655 S
O107 C103 1.295 . S
O108 Fe91 1.997 1_655 S
O108 C103 1.235 . S
C109 O92 1.295 . S
C109 O93 1.235 . S
Fe110 O112 1.918 . S
Fe110 O115 1.985 1_655 S
Fe110 O116 1.990 1_655 S
Fe110 O121 1.988 . S
Fe110 O124 2.008 . S
Fe111 O112 1.918 . S
Fe111 O119 1.997 1_655 S
Fe111 O122 1.996 . S
Fe111 O126 1.976 . S
Fe111 O129 2.002 1_655 S
O112 Fe110 1.918 . S
O112 Fe111 1.918 . S
O112 Fe113 1.918 . S
Fe113 O112 1.918 . S
Fe113 O114 2.002 1_655 S
Fe113 O123 1.976 . S
Fe113 O127 1.996 . S
Fe113 O130 1.997 1_655 S
O114 Fe113 2.002 1_455 S
O114 C131 1.295 . S
O115 Fe110 1.985 1_455 S
O115 C131 1.235 . S
O116 Fe110 1.990 1_455 S
O116 C117 1.295 . S
C117 O116 1.295 . S
C117 O119 1.235 . S
C118 O123 1.287 . S
C118 O124 1.255 . S
O119 Fe111 1.997 1_455 S
O119 C117 1.235 . S
C120 O126 1.287 . S
C120 O127 1.255 . S
O121 Fe110 1.988 . S
O121 C128 1.287 . S
O122 Fe111 1.996 . S
O122 C128 1.255 . S
O123 Fe113 1.976 . S
O123 C118 1.287 . S
O124 Fe110 2.008 . S
O124 C118 1.255 . S
C125 O129 1.295 . S
C125 O130 1.235 . S
O126 Fe111 1.976 . S
O126 C120 1.287 . S
O127 Fe113 1.996 . S
O127 C120 1.255 . S
C128 O121 1.287 . S
C128 O122 1.255 . S
O129 Fe111 2.002 1_455 S
O129 C125 1.295 . S
O130 Fe113 1.997 1_455 S
O130 C125 1.235 . S
C131 O114 1.295 . S
C131 O115 1.235 . S
Fe132 O134 1.918 . S
Fe132 O137 1.997 . S
Fe132 O138 2.002 . S
Fe132 O143 1.976 . S
Fe132 O146 1.996 . S
Fe133 O134 1.918 . S
Fe133 O141 1.997 . S
Fe133 O144 1.996 . S
Fe133 O148 1.976 . S
Fe133 O151 2.002 . S
O134 Fe132 1.918 . S
O134 Fe133 1.918 . S
O134 Fe135 1.918 . S
Fe135 O134 1.918 . S
Fe135 O136 2.002 . S
Fe135 O145 1.976 . S
Fe135 O149 1.996 . S
Fe135 O152 1.997 . S
O136 Fe135 2.002 . S
O136 C153 1.295 . S
O137 Fe132 1.997 . S
O137 C153 1.235 . S
O138 Fe132 2.002 . S
O138 C139 1.295 . S
C139 O138 1.295 . S
C139 O141 1.235 . S
C140 O145 1.287 . S
C140 O146 1.255 . S
O141 Fe133 1.997 . S
O141 C139 1.235 . S
C142 O148 1.287 . S
C142 O149 1.255 . S
O143 Fe132 1.976 . S
O143 C150 1.287 . S
O144 Fe133 1.996 . S
O144 C150 1.255 . S
O145 Fe135 1.976 . S
O145 C140 1.287 . S
O146 Fe132 1.996 . S
O146 C140 1.255 . S
C147 O151 1.295 . S
C147 O152 1.235 . S
O148 Fe133 1.976 . S
O148 C142 1.287 . S
O149 Fe135 1.996 . S
O149 C142 1.255 . S
C150 O143 1.287 . S
C150 O144 1.255 . S
O151 Fe133 2.002 . S
O151 C147 1.295 . S
O152 Fe135 1.997 . S
O152 C147 1.235 . S
C153 O136 1.295 . S
C153 O137 1.235 . S
Fe154 O156 1.918 . S
Fe154 O159 1.997 . S
Fe154 O160 2.002 . S
Fe154 O165 1.976 . S
Fe154 O168 1.996 . S
Fe155 O156 1.918 . S
Fe155 O163 1.997 . S
Fe155 O166 1.996 . S
Fe155 O170 1.976 . S
Fe155 O173 2.002 . S
O156 Fe154 1.918 . S
O156 Fe155 1.918 . S
O156 Fe157 1.918 . S
Fe157 O156 1.918 . S
Fe157 O158 2.002 . S
Fe157 O167 1.976 . S
Fe157 O171 1.996 . S
Fe157 O174 1.997 . S
O158 Fe157 2.002 . S
O158 C175 1.295 . S
O159 Fe154 1.997 . S
O159 C175 1.235 . S
O160 Fe154 2.002 . S
O160 C161 1.295 . S
C161 O160 1.295 . S
C161 O163 1.235 . S
C162 O167 1.287 . S
C162 O168 1.255 . S
O163 Fe155 1.997 . S
O163 C161 1.235 . S
C164 O170 1.287 . S
C164 O171 1.255 . S
O165 Fe154 1.976 . S
O165 C172 1.287 . S
O166 Fe155 1.996 . S
O166 C172 1.255 . S
O167 Fe157 1.976 . S
O167 C162 1.287 . S
O168 Fe154 1.996 . S
O168 C162 1.255 . S
C169 O173 1.295 . S
C169 O174 1.235 . S
O170 Fe155 1.976 . S
O170 C164 1.287 . S
O171 Fe157 1.996 . S
O171 C164 1.255 . S
C172 O165 1.287 . S
C172 O166 1.255 . S
O173 Fe155 2.002 . S
O173 C169 1.295 . S
O174 Fe157 1.997 . S
O174 C169 1.235 . S
C175 O158 1.295 . S
C175 O159 1.235 . S
C176 C177 1.363 . S
C176 C182 1.379 . S
C176 N184 1.356 . S
C177 C176 1.363 . S
C177 C183 1.363 . S
C178 C179 1.363 . S
C178 C183 1.379 . S
C178 N185 1.356 . S
C179 C178 1.363 . S
C179 C182 1.363 . S
N180 C182 1.356 . S
N180 H192 0.984 . S
N180 H193 0.985 . S
N181 C183 1.356 1_554 S
N181 H186 0.984 . S
N181 H187 0.985 . S
C182 C176 1.379 . S
C182 C179 1.363 . S
C182 N180 1.356 . S
C183 C177 1.363 . S
C183 C178 1.379 . S
C183 N181 1.356 1_556 S
N184 C176 1.356 . S
N184 H190 0.984 . S
N184 H191 0.984 . S
N185 C178 1.356 . S
N185 H188 0.984 . S
N185 H189 0.985 . S
H186 N181 0.984 . S
H187 N181 0.985 . S
H188 N185 0.984 . S
H189 N185 0.985 . S
H190 N184 0.984 . S
H191 N184 0.984 . S
H192 N180 0.984 . S
H193 N180 0.985 . S
C194 C195 1.363 . S
C194 C200 1.379 . S
C194 N202 1.356 . S
C195 C194 1.363 . S
C195 C201 1.363 . S
C196 C197 1.363 . S
C196 C201 1.379 . S
C196 N203 1.356 . S
C197 C196 1.363 . S
C197 C200 1.363 . S
N198 C200 1.356 . S
N198 H210 0.984 . S
N198 H211 0.985 . S
N199 C201 1.356 . S
N199 H204 0.984 . S
N199 H205 0.985 . S
C200 C194 1.379 . S
C200 C197 1.363 . S
C200 N198 1.356 . S
C201 C195 1.363 . S
C201 C196 1.379 . S
C201 N199 1.356 . S
N202 C194 1.356 . S
N202 H208 0.984 . S
N202 H209 0.984 . S
N203 C196 1.356 . S
N203 H206 0.984 . S
N203 H207 0.985 . S
H204 N199 0.984 . S
H205 N199 0.985 . S
H206 N203 0.984 . S
H207 N203 0.985 . S
H208 N202 0.984 . S
H209 N202 0.984 . S
H210 N198 0.984 . S
H211 N198 0.985 . S
C212 C213 1.363 . S
C212 C218 1.379 . S
C212 N220 1.356 . S
C213 C212 1.363 . S
C213 C219 1.363 . S
C214 C215 1.363 . S
C214 C219 1.379 . S
C214 N221 1.356 . S
C215 C214 1.363 . S
C215 C218 1.363 . S
N216 C218 1.356 . S
N216 H228 0.984 . S
N216 H229 0.985 . S
N217 C219 1.356 . S
N217 H222 0.984 . S
N217 H223 0.985 . S
C218 C212 1.379 . S
C218 C215 1.363 . S
C218 N216 1.356 . S
C219 C213 1.363 . S
C219 C214 1.379 . S
C219 N217 1.356 . S
N220 C212 1.356 . S
N220 H226 0.984 . S
N220 H227 0.984 . S
N221 C214 1.356 . S
N221 H224 0.984 . S
N221 H225 0.985 . S
H222 N217 0.984 . S
H223 N217 0.985 . S
H224 N221 0.984 . S
H225 N221 0.985 . S
H226 N220 0.984 . S
H227 N220 0.984 . S
H228 N216 0.984 . S
H229 N216 0.985 . S
C230 C231 1.363 . S
C230 C236 1.379 . S
C230 N238 1.356 . S
C231 C230 1.363 . S
C231 C237 1.363 . S
C232 C233 1.363 . S
C232 C237 1.379 . S
C232 N239 1.356 . S
C233 C232 1.363 . S
C233 C236 1.363 . S
N234 C236 1.356 . S
N234 H246 0.984 . S
N234 H247 0.985 . S
N235 C237 1.356 . S
N235 H240 0.984 . S
N235 H241 0.985 . S
C236 C230 1.379 . S
C236 C233 1.363 . S
C236 N234 1.356 . S
C237 C231 1.363 . S
C237 C232 1.379 . S
C237 N235 1.356 . S
N238 C230 1.356 . S
N238 H244 0.984 . S
N238 H245 0.984 . S
N239 C232 1.356 . S
N239 H242 0.984 . S
N239 H243 0.985 . S
H240 N235 0.984 . S
H241 N235 0.985 . S
H242 N239 0.984 . S
H243 N239 0.985 . S
H244 N238 0.984 . S
H245 N238 0.984 . S
H246 N234 0.984 . S
H247 N234 0.985 . S
C248 C249 1.363 . S
C248 C254 1.379 . S
C248 N256 1.356 . S
C249 C248 1.363 . S
C249 C255 1.363 . S
C250 C251 1.363 . S
C250 C255 1.379 . S
C250 N257 1.356 . S
C251 C250 1.363 . S
C251 C254 1.363 . S
N252 C254 1.356 . S
N252 H264 0.984 . S
N252 H265 0.985 . S
N253 C255 1.356 . S
N253 H258 0.984 . S
N253 H259 0.985 . S
C254 C248 1.379 . S
C254 C251 1.363 . S
C254 N252 1.356 . S
C255 C249 1.363 . S
C255 C250 1.379 . S
C255 N253 1.356 . S
N256 C248 1.356 . S
N256 H262 0.984 . S
N256 H263 0.984 . S
N257 C250 1.356 . S
N257 H260 0.984 . S
N257 H261 0.985 . S
H258 N253 0.984 . S
H259 N253 0.985 . S
H260 N257 0.984 . S
H261 N257 0.985 . S
H262 N256 0.984 . S
H263 N256 0.984 . S
H264 N252 0.984 . S
H265 N252 0.985 . S
C266 C267 1.363 . S
C266 C272 1.379 . S
C266 N274 1.356 . S
C267 C266 1.363 . S
C267 C273 1.363 . S
C268 C269 1.363 . S
C268 C273 1.379 . S
C268 N275 1.356 . S
C269 C268 1.363 . S
C269 C272 1.363 . S
N270 C272 1.356 . S
N270 H282 0.984 . S
N270 H283 0.985 . S
N271 C273 1.356 . S
N271 H276 0.984 . S
N271 H277 0.985 . S
C272 C266 1.379 . S
C272 C269 1.363 . S
C272 N270 1.356 . S
C273 C267 1.363 . S
C273 C268 1.379 . S
C273 N271 1.356 . S
N274 C266 1.356 . S
N274 H280 0.984 . S
N274 H281 0.984 . S
N275 C268 1.356 . S
N275 H278 0.984 . S
N275 H279 0.985 . S
H276 N271 0.984 . S
H277 N271 0.985 . S
H278 N275 0.984 . S
H279 N275 0.985 . S
H280 N274 0.984 . S
H281 N274 0.984 . S
H282 N270 0.984 . S
H283 N270 0.985 . S
C284 C285 1.363 . S
C284 C290 1.379 . S
C284 N292 1.356 . S
C285 C284 1.363 . S
C285 C291 1.363 . S
C286 C287 1.363 . S
C286 C291 1.379 . S
C286 N293 1.356 . S
C287 C286 1.363 . S
C287 C290 1.363 . S
N288 C290 1.356 . S
N288 H300 0.984 . S
N288 H301 0.985 . S
N289 C291 1.356 . S
N289 H294 0.984 . S
N289 H295 0.985 . S
C290 C284 1.379 . S
C290 C287 1.363 . S
C290 N288 1.356 . S
C291 C285 1.363 . S
C291 C286 1.379 . S
C291 N289 1.356 . S
N292 C284 1.356 . S
N292 H298 0.982 1_556 S
N292 H299 0.984 . S
N293 C286 1.356 . S
N293 H296 0.984 . S
N293 H297 0.985 . S
H294 N289 0.984 . S
H295 N289 0.985 . S
H296 N293 0.984 . S
H297 N293 0.985 . S
H298 N292 0.982 1_554 S
H299 N292 0.984 . S
H300 N288 0.984 . S
H301 N288 0.985 . S
C302 C303 1.363 . S
C302 C308 1.379 . S
C302 N310 1.356 . S
C303 C302 1.363 . S
C303 C309 1.363 . S
C304 C305 1.363 . S
C304 C309 1.379 . S
C304 N311 1.356 . S
C305 C304 1.363 . S
C305 C308 1.363 . S
N306 C308 1.356 . S
N306 H318 0.984 . S
N306 H319 0.985 . S
N307 C309 1.356 . S
N307 H312 0.984 . S
N307 H313 0.985 . S
C308 C302 1.379 . S
C308 C305 1.363 . S
C308 N306 1.356 . S
C309 C303 1.363 . S
C309 C304 1.379 . S
C309 N307 1.356 . S
N310 C302 1.356 . S
N310 H316 0.984 . S
N310 H317 0.984 . S
N311 C304 1.356 . S
N311 H314 0.984 . S
N311 H315 0.985 . S
H312 N307 0.984 . S
H313 N307 0.985 . S
H314 N311 0.984 . S
H315 N311 0.985 . S
H316 N310 0.984 . S
H317 N310 0.984 . S
H318 N306 0.984 . S
H319 N306 0.985 . S
C320 C321 1.363 . S
C320 C326 1.379 . S
C320 N328 1.356 1_556 S
C321 C320 1.363 . S
C321 C327 1.363 . S
C322 C323 1.363 . S
C322 C327 1.379 . S
C322 N329 1.356 . S
C323 C322 1.363 . S
C323 C326 1.363 . S
N324 C326 1.356 . S
N324 H336 0.984 . S
N324 H337 0.985 . S
N325 C327 1.356 . S
N325 H330 0.984 . S
N325 H331 0.985 . S
C326 C320 1.379 . S
C326 C323 1.363 . S
C326 N324 1.356 . S
C327 C321 1.363 . S
C327 C322 1.379 . S
C327 N325 1.356 . S
N328 C320 1.356 1_554 S
N328 H334 0.984 . S
N328 H335 0.984 . S
N329 C322 1.356 . S
N329 H332 0.984 . S
N329 H333 0.985 . S
H330 N325 0.984 . S
H331 N325 0.985 . S
H332 N329 0.984 . S
H333 N329 0.985 . S
H334 N328 0.984 . S
H335 N328 0.984 . S
H336 N324 0.984 . S
H337 N324 0.985 . S
C338 C339 1.363 . S
C338 C344 1.379 . S
C338 N346 1.356 . S
C339 C338 1.363 . S
C339 C345 1.363 . S
C340 C341 1.363 . S
C340 C345 1.379 . S
C340 N347 1.356 . S
C341 C340 1.363 . S
C341 C344 1.363 . S
N342 C344 1.356 . S
N342 H354 0.984 . S
N342 H355 0.985 . S
N343 C345 1.356 . S
N343 H348 0.984 . S
N343 H349 0.985 . S
C344 C338 1.379 . S
C344 C341 1.363 . S
C344 N342 1.356 . S
C345 C339 1.363 . S
C345 C340 1.379 . S
C345 N343 1.356 . S
N346 C338 1.356 . S
N346 H352 0.984 . S
N346 H353 0.984 . S
N347 C340 1.356 . S
N347 H350 0.984 . S
N347 H351 0.985 . S
H348 N343 0.984 . S
H349 N343 0.985 . S
H350 N347 0.984 . S
H351 N347 0.985 . S
H352 N346 0.984 . S
H353 N346 0.984 . S
H354 N342 0.984 . S
H355 N342 0.985 . S
C356 C357 1.363 . S
C356 C362 1.379 . S
C356 N364 1.356 . S
C357 C356 1.363 . S
C357 C363 1.363 . S
C358 C359 1.363 . S
C358 C363 1.379 . S
C358 N365 1.356 . S
C359 C358 1.363 . S
C359 C362 1.363 . S
N360 C362 1.356 . S
N360 H372 0.984 . S
N360 H373 0.985 . S
N361 C363 1.356 . S
N361 H366 0.984 . S
N361 H367 0.985 . S
C362 C356 1.379 . S
C362 C359 1.363 . S
C362 N360 1.356 . S
C363 C357 1.363 . S
C363 C358 1.379 . S
C363 N361 1.356 . S
N364 C356 1.356 . S
N364 H370 0.984 . S
N364 H371 0.984 . S
N365 C358 1.356 . S
N365 H368 0.984 . S
N365 H369 0.985 . S
H366 N361 0.984 . S
H367 N361 0.985 . S
H368 N365 0.984 . S
H369 N365 0.985 . S
H370 N364 0.984 . S
H371 N364 0.984 . S
H372 N360 0.984 . S
H373 N360 0.985 . S
C374 C375 1.363 . S
C374 C380 1.379 . S
C374 N382 1.356 . S
C375 C374 1.363 . S
C375 C381 1.363 . S
C376 C377 1.363 . S
C376 C381 1.379 . S
C376 N383 1.356 . S
C377 C376 1.363 . S
C377 C380 1.363 . S
N378 C380 1.356 . S
N378 H390 0.984 . S
N378 H391 0.985 . S
N379 C381 1.356 . S
N379 H384 0.984 . S
N379 H385 0.985 . S
C380 C374 1.379 . S
C380 C377 1.363 . S
C380 N378 1.356 . S
C381 C375 1.363 . S
C381 C376 1.379 . S
C381 N379 1.356 . S
N382 C374 1.356 . S
N382 H388 0.984 . S
N382 H389 0.984 . S
N383 C376 1.356 . S
N383 H386 0.984 . S
N383 H387 0.985 . S
H384 N379 0.984 . S
H385 N379 0.985 . S
H386 N383 0.984 . S
H387 N383 0.985 . S
H388 N382 0.984 . S
H389 N382 0.984 . S
H390 N378 0.984 . S
H391 N378 0.985 . S
C392 C393 1.363 . S
C392 C398 1.379 . S
C392 N400 1.356 1_556 S
C393 C392 1.363 . S
C393 C399 1.363 . S
C394 C395 1.363 . S
C394 C399 1.379 1_545 S
C394 N401 1.356 . S
C395 C394 1.363 . S
C395 C398 1.363 1_545 S
N396 C398 1.356 . S
N396 H408 0.984 . S
N396 H409 0.985 1_565 S
N397 C399 1.356 . S
N397 H402 0.984 . S
N397 H403 0.995 . S
C398 C392 1.379 . S
C398 C395 1.363 1_565 S
C398 N396 1.356 . S
C399 C393 1.363 . S
C399 C394 1.379 1_565 S
C399 N397 1.356 . S
N400 C392 1.356 1_554 S
N400 H406 0.984 . S
N400 H407 0.984 . S
N401 C394 1.356 . S
N401 H404 0.984 . S
N401 H405 0.985 . S
H402 N397 0.984 . S
H403 N397 0.995 . S
H404 N401 0.984 . S
H405 N401 0.985 . S
H406 N400 0.984 . S
H407 N400 0.984 . S
H408 N396 0.984 . S
H409 N396 0.985 1_545 S
C410 C411 1.363 . S
C410 C416 1.379 1_545 S
C410 N418 1.356 . S
C411 C410 1.363 . S
C411 C417 1.363 . S
C412 C413 1.363 1_545 S
C412 C417 1.379 . S
C412 N419 1.356 . S
C413 C412 1.363 1_565 S
C413 C416 1.363 . S
N414 C416 1.356 . S
N414 H426 0.984 . S
N414 H427 0.985 . S
N415 C417 1.356 . S
N415 H420 0.984 . S
N415 H421 0.985 . S
C416 C410 1.379 1_565 S
C416 C413 1.363 . S
C416 N414 1.356 . S
C417 C411 1.363 . S
C417 C412 1.379 . S
C417 N415 1.356 . S
N418 C410 1.356 . S
N418 H424 0.984 1_545 S
N418 H425 0.984 . S
N419 C412 1.356 . S
N419 H422 0.984 1_545 S
N419 H423 0.985 . S
H420 N415 0.984 . S
H421 N415 0.985 . S
H422 N419 0.984 1_565 S
H423 N419 0.985 . S
H424 N418 0.984 1_565 S
H425 N418 0.984 . S
H426 N414 0.984 . S
H427 N414 0.985 . S
C428 C429 1.363 . S
C428 C434 1.379 1_565 S
C428 N436 1.356 . S
C429 C428 1.363 . S
C429 C435 1.363 . S
C430 C431 1.363 . S
C430 C435 1.379 1_545 S
C430 N437 1.356 . S
C431 C430 1.363 . S
C431 C434 1.363 . S
N432 C434 1.356 . S
N432 H444 0.984 . S
N432 H445 0.985 . S
N433 C435 1.356 1_554 S
N433 H438 0.984 . S
N433 H439 0.985 . S
C434 C428 1.379 1_545 S
C434 C431 1.363 . S
C434 N432 1.356 . S
C435 C429 1.363 . S
C435 C430 1.379 1_565 S
C435 N433 1.356 1_556 S
N436 C428 1.356 . S
N436 H442 0.984 . S
N436 H443 0.984 . S
N437 C430 1.356 . S
N437 H440 0.984 . S
N437 H441 0.985 1_556 S
H438 N433 0.984 . S
H439 N433 0.985 . S
H440 N437 0.984 . S
H441 N437 0.985 1_554 S
H442 N436 0.984 . S
H443 N436 0.984 . S
H444 N432 0.984 . S
H445 N432 0.985 . S
C446 C447 1.363 1_565 S
C446 C452 1.379 . S
C446 N454 1.356 . S
C447 C446 1.363 1_545 S
C447 C453 1.363 . S
C448 C449 1.363 1_545 S
C448 C453 1.379 . S
C448 N455 1.356 . S
C449 C448 1.363 1_565 S
C449 C452 1.363 . S
N450 C452 1.356 . S
N450 H462 0.984 . S
N450 H463 0.985 . S
N451 C453 1.356 . S
N451 H456 0.984 . S
N451 H457 0.985 . S
C452 C446 1.379 . S
C452 C449 1.363 . S
C452 N450 1.356 . S
C453 C447 1.363 . S
C453 C448 1.379 . S
C453 N451 1.356 . S
N454 C446 1.356 . S
N454 H460 0.984 . S
N454 H461 0.984 1_565 S
N455 C448 1.356 . S
N455 H458 0.984 1_545 S
N455 H459 0.985 . S
H456 N451 0.984 . S
H457 N451 0.985 . S
H458 N455 0.984 1_565 S
H459 N455 0.985 . S
H460 N454 0.984 . S
H461 N454 0.984 1_545 S
H462 N450 0.984 . S
H463 N450 0.985 . S
C464 C465 1.363 . S
C464 C470 1.379 . S
C464 N472 1.356 . S
C465 C464 1.363 . S
C465 C471 1.363 . S
C466 C467 1.363 . S
C466 C471 1.379 . S
C466 N473 1.356 . S
C467 C466 1.363 . S
C467 C470 1.363 . S
N468 C470 1.356 . S
N468 H480 0.984 . S
N468 H481 0.985 . S
N469 C471 1.356 . S
N469 H474 0.984 . S
N469 H475 0.985 . S
C470 C464 1.379 . S
C470 C467 1.363 . S
C470 N468 1.356 . S
C471 C465 1.363 . S
C471 C466 1.379 . S
C471 N469 1.356 . S
N472 C464 1.356 . S
N472 H478 0.984 . S
N472 H479 0.984 . S
N473 C466 1.356 . S
N473 H476 0.984 . S
N473 H477 0.985 . S
H474 N469 0.984 . S
H475 N469 0.985 . S
H476 N473 0.984 . S
H477 N473 0.985 . S
H478 N472 0.984 . S
H479 N472 0.984 . S
H480 N468 0.984 . S
H481 N468 0.985 . S
C482 C483 1.363 . S
C482 C488 1.379 . S
C482 N490 1.356 . S
C483 C482 1.363 . S
C483 C489 1.363 . S
C484 C485 1.363 . S
C484 C489 1.379 . S
C484 N491 1.356 . S
C485 C484 1.363 . S
C485 C488 1.363 . S
N486 C488 1.356 . S
N486 H498 0.984 . S
N486 H499 0.985 . S
N487 C489 1.356 . S
N487 H492 0.984 . S
N487 H493 0.985 . S
C488 C482 1.379 . S
C488 C485 1.363 . S
C488 N486 1.356 . S
C489 C483 1.363 . S
C489 C484 1.379 . S
C489 N487 1.356 . S
N490 C482 1.356 . S
N490 H496 0.984 . S
N490 H497 0.984 . S
N491 C484 1.356 . S
N491 H494 0.984 . S
N491 H495 0.985 . S
H492 N487 0.984 . S
H493 N487 0.985 . S
H494 N491 0.984 . S
H495 N491 0.985 . S
H496 N490 0.984 . S
H497 N490 0.984 . S
H498 N486 0.984 . S
H499 N486 0.985 . S
C500 C501 1.363 . S
C500 C506 1.379 . S
C500 N508 1.356 . S
C501 C500 1.363 . S
C501 C507 1.363 . S
C502 C503 1.363 . S
C502 C507 1.379 . S
C502 N509 1.356 . S
C503 C502 1.363 . S
C503 C506 1.363 . S
N504 C506 1.356 . S
N504 H516 0.984 . S
N504 H517 0.985 . S
N505 C507 1.356 . S
N505 H510 0.984 . S
N505 H511 0.985 . S
C506 C500 1.379 . S
C506 C503 1.363 . S
C506 N504 1.356 . S
C507 C501 1.363 . S
C507 C502 1.379 . S
C507 N505 1.356 . S
N508 C500 1.356 . S
N508 H514 0.984 . S
N508 H515 0.984 . S
N509 C502 1.356 . S
N509 H512 0.984 . S
N509 H513 0.985 . S
H510 N505 0.984 . S
H511 N505 0.985 . S
H512 N509 0.984 . S
H513 N509 0.985 . S
H514 N508 0.984 . S
H515 N508 0.984 . S
H516 N504 0.984 . S
H517 N504 0.985 . S
C518 C519 1.363 . S
C518 C524 1.379 . S
C518 N526 1.356 . S
C519 C518 1.363 . S
C519 C525 1.363 . S
C520 C521 1.363 . S
C520 C525 1.379 . S
C520 N527 1.356 . S
C521 C520 1.363 . S
C521 C524 1.363 . S
N522 C524 1.356 . S
N522 H534 0.984 . S
N522 H535 0.985 . S
N523 C525 1.356 . S
N523 H528 0.984 . S
N523 H529 0.985 . S
C524 C518 1.379 . S
C524 C521 1.363 . S
C524 N522 1.356 . S
C525 C519 1.363 . S
C525 C520 1.379 . S
C525 N523 1.356 . S
N526 C518 1.356 . S
N526 H532 0.984 . S
N526 H533 0.984 . S
N527 C520 1.356 . S
N527 H530 0.984 . S
N527 H531 0.985 . S
H528 N523 0.984 . S
H529 N523 0.985 . S
H530 N527 0.984 . S
H531 N527 0.985 . S
H532 N526 0.984 . S
H533 N526 0.984 . S
H534 N522 0.984 . S
H535 N522 0.985 . S
C536 C537 1.363 . S
C536 C542 1.379 . S
C536 N544 1.356 . S
C537 C536 1.363 . S
C537 C543 1.363 . S
C538 C539 1.363 . S
C538 C543 1.379 . S
C538 N545 1.356 . S
C539 C538 1.363 . S
C539 C542 1.363 . S
N540 C542 1.356 . S
N540 H552 0.984 . S
N540 H553 0.985 . S
N541 C543 1.356 . S
N541 H546 0.984 . S
N541 H547 0.985 . S
C542 C536 1.379 . S
C542 C539 1.363 . S
C542 N540 1.356 . S
C543 C537 1.363 . S
C543 C538 1.379 . S
C543 N541 1.356 . S
N544 C536 1.356 . S
N544 H550 0.984 . S
N544 H551 0.984 . S
N545 C538 1.356 . S
N545 H548 0.984 . S
N545 H549 0.985 . S
H546 N541 0.984 . S
H547 N541 0.985 . S
H548 N545 0.984 . S
H549 N545 0.985 . S
H550 N544 0.984 . S
H551 N544 0.984 . S
H552 N540 0.984 . S
H553 N540 0.985 . S
C554 C555 1.363 . S
C554 C560 1.379 . S
C554 N562 1.356 . S
C555 C554 1.363 . S
C555 C561 1.363 . S
C556 C557 1.363 . S
C556 C561 1.379 . S
C556 N563 1.356 . S
C557 C556 1.363 . S
C557 C560 1.363 . S
N558 C560 1.356 . S
N558 H570 0.984 . S
N558 H571 0.985 . S
N559 C561 1.356 . S
N559 H564 0.984 . S
N559 H565 0.985 . S
C560 C554 1.379 . S
C560 C557 1.363 . S
C560 N558 1.356 . S
C561 C555 1.363 . S
C561 C556 1.379 . S
C561 N559 1.356 . S
N562 C554 1.356 . S
N562 H568 0.984 . S
N562 H569 0.984 . S
N563 C556 1.356 . S
N563 H566 0.984 . S
N563 H567 0.985 . S
H564 N559 0.984 . S
H565 N559 0.985 . S
H566 N563 0.984 . S
H567 N563 0.985 . S
H568 N562 0.984 . S
H569 N562 0.984 . S
H570 N558 0.984 . S
H571 N558 0.985 . S
C572 C573 1.363 . S
C572 C578 1.379 . S
C572 N580 1.356 . S
C573 C572 1.363 . S
C573 C579 1.363 . S
C574 C575 1.363 . S
C574 C579 1.379 . S
C574 N581 1.356 . S
C575 C574 1.363 . S
C575 C578 1.363 . S
N576 C578 1.356 . S
N576 H588 0.984 . S
N576 H589 0.985 . S
N577 C579 1.356 . S
N577 H582 0.984 . S
N577 H583 0.985 . S
C578 C572 1.379 . S
C578 C575 1.363 . S
C578 N576 1.356 . S
C579 C573 1.363 . S
C579 C574 1.379 . S
C579 N577 1.356 . S
N580 C572 1.356 . S
N580 H586 0.984 . S
N580 H587 0.984 . S
N581 C574 1.356 . S
N581 H584 0.984 . S
N581 H585 0.985 . S
H582 N577 0.984 . S
H583 N577 0.985 . S
H584 N581 0.984 . S
H585 N581 0.985 . S
H586 N580 0.984 . S
H587 N580 0.984 . S
H588 N576 0.984 . S
H589 N576 0.985 . S
C590 C591 1.363 . S
C590 C596 1.379 . S
C590 N598 1.356 . S
C591 C590 1.363 . S
C591 C597 1.363 . S
C592 C593 1.363 . S
C592 C597 1.379 . S
C592 N599 1.356 . S
C593 C592 1.363 . S
C593 C596 1.363 . S
N594 C596 1.356 . S
N594 H606 0.984 . S
N594 H607 0.985 . S
N595 C597 1.356 . S
N595 H600 0.984 . S
N595 H601 0.985 . S
C596 C590 1.379 . S
C596 C593 1.363 . S
C596 N594 1.356 . S
C597 C591 1.363 . S
C597 C592 1.379 . S
C597 N595 1.356 . S
N598 C590 1.356 . S
N598 H604 0.984 . S
N598 H605 0.984 . S
N599 C592 1.356 . S
N599 H602 0.984 . S
N599 H603 0.985 . S
H600 N595 0.984 . S
H601 N595 0.985 . S
H602 N599 0.984 . S
H603 N599 0.985 . S
H604 N598 0.984 . S
H605 N598 0.984 . S
H606 N594 0.984 . S
H607 N594 0.985 . S
C177 C10 1.541 . S
C179 C131 1.528 . S
C197 C95 1.530 . S
C195 C21 1.541 . S
C215 C118 1.593 . S
C213 C32 1.585 . S
C233 C106 1.493 . S
C231 C43 1.491 . S
C251 C175 1.527 . S
C249 C54 1.541 . S
C269 C139 1.530 . S
C267 C65 1.541 . S
C285 C76 1.585 . S
C287 C162 1.593 . S
C305 C150 1.493 . S
C303 C87 1.491 . S
C321 C5 1.505 . S
C323 C172 1.543 . S
C341 C142 1.522 . S
C339 C16 1.484 . S
C357 C27 1.568 . S
C359 C161 1.600 . S
C375 C37 1.461 . S
C377 C147 1.478 . S
C395 C128 1.543 . S
C393 C49 1.505 . S
C411 C60 1.484 . S
C413 C98 1.522 . S
C431 C117 1.600 . S
C429 C71 1.568 . S
C449 C103 1.478 . S
C447 C81 1.461 . S
C467 C153 1.525 . S
C465 C4 1.515 . S
C485 C169 1.521 . S
C483 C15 1.507 . S
C501 C26 1.500 . S
C503 C140 1.509 . S
C521 C164 1.508 . S
C519 C38 1.472 . S
C539 C109 1.525 . S
C537 C48 1.515 . S
C555 C59 1.507 . S
C557 C125 1.521 . S
C573 C70 1.500 . S
C575 C96 1.509 . S
C591 C82 1.472 . S
C593 C120 1.508 . S
