# Generated by pormake.
# Topology anh, (6,3)-cn, num edge types: 1
# Building blocks:
#     Node 0, Type 0, BuildingBlock: BETFAJ_clean_sbu_0, # of connection points: 6
#     Node 1, Type 0, BuildingBlock: BETFAJ_clean_sbu_0, # of connection points: 6
#     Node 2, Type 0, BuildingBlock: BETFAJ_clean_sbu_0, # of connection points: 6
#     Node 3, Type 1, BuildingBlock: BELTOD_clean_linker_0, # of connection points: 3
#     Node 4, Type 1, BuildingBlock: BELTOD_clean_linker_0, # of connection points: 3
#     Node 5, Type 1, BuildingBlock: BELTOD_clean_linker_0, # of connection points: 3
#     Node 6, Type 1, BuildingBlock: BELTOD_clean_linker_0, # of connection points: 3
#     Node 7, Type 1, BuildingBlock: BELTOD_clean_linker_0, # of connection points: 3
#     Node 8, Type 1, BuildingBlock: BELTOD_clean_linker_0, # of connection points: 3
#     Edge 9, Type (0, 1), BuildingBlock: AJUNOK_clean_linker_0, # of connection points: 2
#     Edge 10, Type (0, 1), BuildingBlock: AJUNOK_clean_linker_0, # of connection points: 2
#     Edge 11, Type (0, 1), BuildingBlock: AJUNOK_clean_linker_0, # of connection points: 2
#     Edge 12, Type (0, 1), BuildingBlock: AJUNOK_clean_linker_0, # of connection points: 2
#     Edge 13, Type (0, 1), BuildingBlock: AJUNOK_clean_linker_0, # of connection points: 2
#     Edge 14, Type (0, 1), BuildingBlock: AJUNOK_clean_linker_0, # of connection points: 2
#     Edge 15, Type (0, 1), BuildingBlock: AJUNOK_clean_linker_0, # of connection points: 2
#     Edge 16, Type (0, 1), BuildingBlock: AJUNOK_clean_linker_0, # of connection points: 2
#     Edge 17, Type (0, 1), BuildingBlock: AJUNOK_clean_linker_0, # of connection points: 2
#     Edge 18, Type (0, 1), BuildingBlock: AJUNOK_clean_linker_0, # of connection points: 2
#     Edge 19, Type (0, 1), BuildingBlock: AJUNOK_clean_linker_0, # of connection points: 2
#     Edge 20, Type (0, 1), BuildingBlock: AJUNOK_clean_linker_0, # of connection points: 2
#     Edge 21, Type (0, 1), BuildingBlock: AJUNOK_clean_linker_0, # of connection points: 2
#     Edge 22, Type (0, 1), BuildingBlock: AJUNOK_clean_linker_0, # of connection points: 2
#     Edge 23, Type (0, 1), BuildingBlock: AJUNOK_clean_linker_0, # of connection points: 2
#     Edge 24, Type (0, 1), BuildingBlock: AJUNOK_clean_linker_0, # of connection points: 2
#     Edge 25, Type (0, 1), BuildingBlock: AJUNOK_clean_linker_0, # of connection points: 2
#     Edge 26, Type (0, 1), BuildingBlock: AJUNOK_clean_linker_0, # of connection points: 2
# Relax obj value: 0.218
# Max RMSD: 0.226
# Mean RMSD: 0.159
data_MOF--net-anh--node1-BETFAJ_clean_sbu_0--node2-BELTOD_clean_linker_0--edge1-AJUNOK_clean_linker_0
_symmetry_space_group_name_H-M    P1
_symmetry_Int_Tables_number       1
_symmetry_cell_setting            triclinic
loop_
_symmetry_equiv_pos_as_xyz
'x, y, z'
_cell_length_a     27.072027
_cell_length_b     33.500846
_cell_length_c     47.066765
_cell_angle_alpha  92.523342
_cell_angle_beta   88.249735
_cell_angle_gamma 130.83611
loop_
_atom_site_label
_atom_site_type_symbol
_atom_site_fract_x
_atom_site_fract_y
_atom_site_fract_z
_atom_type_partial_charge
Sm0 Sm 0.15287 0.51288 0.15392 0.0
Sm1 Sm 1.07207 0.54211 0.1602 0.0
C2 C 0.24406 0.51396 0.13427 0.0
C3 C 0.30906 0.54825 0.14682 0.0
C4 C 0.36383 0.57062 0.12968 0.0
C5 C 0.42429 0.59729 0.14238 0.0
C6 C 0.42843 0.59776 0.17229 0.0
C7 C 0.37804 0.58866 0.18868 0.0
C8 C 0.31743 0.56195 0.17605 0.0
C9 C 0.12861 0.50889 0.21168 0.0
C10 C 0.22988 0.63693 0.1635 0.0
C11 C 1.01981 0.5823 0.17899 0.0
C12 C 0.95313 0.55889 0.1864 0.0
C13 C 0.92433 0.53267 0.21213 0.0
C14 C 0.85695 0.50026 0.21589 0.0
C15 C 0.81889 0.49511 0.19419 0.0
C16 C 0.8483 0.52401 0.16941 0.0
C17 C 0.91498 0.55615 0.16568 0.0
C18 C 0.08273 0.52022 0.10472 0.0
C19 C 0.99642 0.41714 0.15513 0.0
O20 O 0.22977 0.53946 0.12198 0.0
O21 O 0.19679 0.47564 0.15017 0.0
O22 O 0.1081 0.52093 0.19306 0.0
O23 O 0.16004 0.49575 0.19983 0.0
O24 O 0.23375 0.60033 0.16659 0.0
O25 O 0.17367 0.62396 0.15814 0.0
O26 O 1.04763 0.57196 0.19571 0.0
O27 O 1.02998 0.57871 0.15201 0.0
O28 O 0.12898 0.54745 0.12259 0.0
O29 O 1.02785 0.50339 0.11615 0.0
O30 O 0.99281 0.45215 0.16638 0.0
O31 O 1.05168 0.43254 0.14383 0.0
H32 H 0.35917 0.56432 0.1068 0.0
H33 H 0.4641 0.60822 0.12871 0.0
H34 H 0.38142 0.59242 0.21167 0.0
H35 H 0.27666 0.54902 0.18949 0.0
H36 H 0.95307 0.53474 0.22861 0.0
H37 H 0.83445 0.47785 0.23502 0.0
H38 H 0.81908 0.51947 0.1522 0.0
H39 H 0.93597 0.57605 0.14574 0.0
Sm40 Sm 0.61988 0.99924 0.47386 0.0
Sm41 Sm 0.53952 0.02838 0.47374 0.0
C42 C 0.66707 0.95104 0.47708 0.0
C43 C 0.63874 0.89578 0.47987 0.0
C44 C 0.62577 0.87442 0.50682 0.0
C45 C 0.603 0.82355 0.5096 0.0
C46 C 0.59322 0.79297 0.48545 0.0
C47 C 0.60392 0.81346 0.45838 0.0
C48 C 0.62645 0.86439 0.45561 0.0
C49 C 0.60535 0.02259 0.42126 0.0
C50 C 0.46036 0.90547 0.47214 0.0
C51 C 0.49371 0.07563 0.46319 0.0
C52 C 0.51688 0.12896 0.46971 0.0
C53 C 0.53567 0.16303 0.44742 0.0
C54 C 0.55916 0.21409 0.45324 0.0
C55 C 0.56447 0.23179 0.48143 0.0
C56 C 0.54671 0.19825 0.50374 0.0
C57 C 0.52294 0.14716 0.49797 0.0
C58 C 0.55418 0.00836 0.5275 0.0
C59 C 0.70143 0.12323 0.47861 0.0
O60 O 0.66288 0.97399 0.49907 0.0
O61 O 0.65665 0.96243 0.45306 0.0
O62 O 0.55946 0.99306 0.4386 0.0
O63 O 0.66107 0.04182 0.43166 0.0
O64 O 0.51514 0.92064 0.4827 0.0
O65 O 0.45877 0.94059 0.46196 0.0
O66 O 0.52914 0.07318 0.44498 0.0
O67 O 0.47344 0.04439 0.48453 0.0
O68 O 0.5994 0.03401 0.50928 0.0
O69 O 0.50089 0.99604 0.51835 0.0
O70 O 0.64511 0.10993 0.4721 0.0
O71 O 0.70555 0.08706 0.48348 0.0
H72 H 0.63562 0.8977 0.52586 0.0
H73 H 0.59718 0.80955 0.53078 0.0
H74 H 0.59743 0.79088 0.43945 0.0
H75 H 0.63613 0.87971 0.43449 0.0
H76 H 0.53218 0.15012 0.4255 0.0
H77 H 0.57298 0.23971 0.43579 0.0
H78 H 0.5502 0.21133 0.52563 0.0
H79 H 0.50942 0.12209 0.51565 0.0
Sm80 Sm 0.67806 0.59707 0.83302 0.0
Sm81 Sm 0.58613 0.48056 0.83681 0.0
C82 C 0.73305 0.69381 0.81972 0.0
C83 C 0.70828 0.72223 0.8208 0.0
C84 C 0.68146 0.72403 0.79634 0.0
C85 C 0.65688 0.74985 0.7972 0.0
C86 C 0.65892 0.77479 0.82248 0.0
C87 C 0.68402 0.77183 0.8472 0.0
C88 C 0.70874 0.74598 0.84635 0.0
C89 C 0.6487 0.5611 0.88725 0.0
C90 C 0.51673 0.53249 0.83955 0.0
C91 C 0.52851 0.38236 0.84898 0.0
C92 C 0.54054 0.34608 0.84125 0.0
C93 C 0.57561 0.34075 0.8598 0.0
C94 C 0.58972 0.30839 0.85211 0.0
C95 C 0.56814 0.28032 0.82599 0.0
C96 C 0.53245 0.28485 0.80758 0.0
C97 C 0.51886 0.31758 0.81509 0.0
C98 C 0.60743 0.51312 0.78204 0.0
C99 C 0.74942 0.54786 0.83759 0.0
O100 O 0.70619 0.65502 0.80075 0.0
O101 O 0.74274 0.68265 0.84412 0.0
O102 O 0.60955 0.54318 0.86709 0.0
O103 O 0.70738 0.60198 0.87974 0.0
O104 O 0.57479 0.57504 0.83024 0.0
O105 O 0.50981 0.4913 0.84707 0.0
O106 O 0.57207 0.42305 0.86546 0.0
O107 O 0.50833 0.39427 0.82876 0.0
O108 O 0.65173 0.53405 0.80063 0.0
O109 O 0.55148 0.47247 0.79179 0.0
O110 O 0.68894 0.50348 0.84273 0.0
O111 O 0.75863 0.59011 0.83014 0.0
H112 H 0.68006 0.70594 0.77637 0.0
H113 H 0.63861 0.75211 0.77772 0.0
H114 H 0.68564 0.79036 0.86702 0.0
H115 H 0.72853 0.74492 0.86568 0.0
H116 H 0.5927 0.36197 0.88014 0.0
H117 H 0.61723 0.30509 0.86655 0.0
H118 H 0.51576 0.26348 0.78726 0.0
H119 H 0.49181 0.32079 0.8003 0.0
P120 P 0.64743 0.01894 0.20399 0.0
H121 H 0.61554 0.95651 0.15134 0.0
H122 H 0.51603 0.86728 0.13783 0.0
H123 H 0.41255 0.87373 0.20696 0.0
H124 H 0.51015 0.96337 0.2191 0.0
H125 H 0.78203 0.10712 0.21533 0.0
H126 H 0.85775 0.19841 0.20104 0.0
H127 H 0.70638 0.17065 0.15085 0.0
H128 H 0.62942 0.07796 0.16581 0.0
H129 H 0.61942 0.95219 0.25023 0.0
H130 H 0.6333 0.08626 0.23879 0.0
O131 O 0.69124 1.00004 0.20198 0.0
H132 H 0.59671 0.95295 0.3008 0.0
H133 H 0.60956 0.08676 0.28948 0.0
C134 C 0.57096 0.96647 0.18657 0.0
C135 C 0.57072 0.93949 0.16284 0.0
C136 C 0.51413 0.88797 0.15555 0.0
C137 C 0.45707 0.86244 0.17211 0.0
C138 C 0.45576 0.89181 0.19394 0.0
C139 C 0.51195 0.94345 0.20091 0.0
C140 C 0.70049 0.08543 0.19119 0.0
C141 C 0.76499 0.12032 0.20103 0.0
C142 C 0.80839 0.17266 0.19282 0.0
C143 C 0.78847 0.19191 0.17463 0.0
C144 C 0.7232 0.15711 0.16501 0.0
C145 C 0.67934 0.10411 0.17332 0.0
C146 C 0.6306 0.02045 0.2411 0.0
C147 C 0.61788 0.98196 0.25867 0.0
C148 C 0.60397 0.98195 0.28745 0.0
C149 C 0.60216 0.0203 0.2991 0.0
C150 C 0.61194 0.0574 0.28113 0.0
C151 C 0.62582 0.05732 0.25226 0.0
P152 P 0.69973 0.58064 0.56521 0.0
H153 H 0.75655 0.5631 0.51816 0.0
H154 H 0.72463 0.48267 0.49435 0.0
H155 H 0.55061 0.38842 0.54608 0.0
H156 H 0.5833 0.46898 0.57037 0.0
H157 H 0.75485 0.68765 0.55603 0.0
H158 H 0.71435 0.72464 0.5325 0.0
H159 H 0.53058 0.56793 0.51609 0.0
H160 H 0.57173 0.5305 0.53971 0.0
H161 H 0.75061 0.56022 0.6101 0.0
H162 H 0.6059 0.57612 0.60217 0.0
O163 O 0.78097 0.62549 0.56269 0.0
H164 H 0.72888 0.54783 0.66123 0.0
H165 H 0.58455 0.56437 0.65339 0.0
C166 C 0.67302 0.5217 0.54646 0.0
C167 C 0.71154 0.52516 0.5244 0.0
C168 C 0.69328 0.47943 0.51073 0.0
C169 C 0.63544 0.42981 0.51853 0.0
C170 C 0.5953 0.42649 0.53971 0.0
C171 C 0.61408 0.47227 0.55365 0.0
C172 C 0.66693 0.6064 0.54896 0.0
C173 C 0.70601 0.66107 0.54727 0.0
C174 C 0.6829 0.68215 0.53381 0.0
C175 C 0.61992 0.64893 0.52215 0.0
C176 C 0.57952 0.59411 0.52476 0.0
C177 C 0.60306 0.57287 0.53812 0.0
C178 C 0.6802 0.56937 0.60243 0.0
C179 C 0.71422 0.5611 0.6194 0.0
C180 C 0.70212 0.55438 0.64858 0.0
C181 C 0.65524 0.55531 0.66126 0.0
C182 C 0.62062 0.56308 0.64412 0.0
C183 C 0.63291 0.56993 0.61486 0.0
P184 P 0.15565 0.56901 0.88409 0.0
H185 H 0.26748 0.62006 0.84362 0.0
H186 H 0.34858 0.61081 0.83411 0.0
H187 H 0.22934 0.46502 0.87905 0.0
H188 H 0.1507 0.47688 0.89017 0.0
H189 H 0.13191 0.64296 0.88252 0.0
H190 H 1.04084 0.63707 0.87184 0.0
H191 H 0.92916 0.47459 0.84406 0.0
H192 H 1.02194 0.48024 0.85635 0.0
H193 H 0.23335 0.57615 0.92922 0.0
H194 H 1.03926 0.52165 0.9214 0.0
O195 O 0.21558 0.63431 0.88753 0.0
H196 H 0.21572 0.55993 0.98013 0.0
H197 H 1.02274 0.50822 0.97236 0.0
C198 C 0.20131 0.54931 0.86773 0.0
C199 C 0.25764 0.58536 0.8511 0.0
C200 C 0.30508 0.58004 0.84571 0.0
C201 C 0.2987 0.53795 0.85642 0.0
C202 C 0.2396 0.49969 0.87134 0.0
C203 C 0.19258 0.50555 0.8771 0.0
C204 C 0.08697 0.56283 0.86933 0.0
C205 C 0.0891 0.60603 0.87332 0.0
C206 C 1.03577 0.6027 0.86694 0.0
C207 C 0.97642 0.55587 0.8559 0.0
C208 C 0.97348 0.51192 0.85212 0.0
C209 C 1.02743 0.51524 0.85883 0.0
C210 C 0.13731 0.54911 0.92101 0.0
C211 C 0.18643 0.55979 0.93828 0.0
C212 C 0.17656 0.55111 0.9676 0.0
C213 C 0.11744 0.53209 0.98063 0.0
C214 C 1.06817 0.52125 0.96319 0.0
C215 C 1.07785 0.52938 0.9338 0.0
P216 P 0.12257 0.50515 0.43074 0.0
H217 H 0.23687 0.57148 0.46765 0.0
H218 H 0.30884 0.66492 0.47972 0.0
H219 H 0.16421 0.67078 0.44996 0.0
H220 H 0.09434 0.57713 0.43542 0.0
H221 H 0.08307 0.40156 0.42954 0.0
H222 H 0.98578 0.31525 0.44412 0.0
H223 H 0.90438 0.3831 0.47819 0.0
H224 H 1.00415 0.4714 0.46351 0.0
H225 H 0.20723 0.58497 0.38907 0.0
H226 H 1.00954 0.43631 0.39157 0.0
O227 O 0.1801 0.50023 0.42834 0.0
H228 H 0.19908 0.58584 0.33741 0.0
H229 H 1.00187 0.43702 0.33977 0.0
C230 C 0.16055 0.5672 0.44999 0.0
C231 C 0.21984 0.59241 0.46402 0.0
C232 C 0.26129 0.64639 0.47108 0.0
C233 C 0.244 0.67662 0.46489 0.0
C234 C 0.18102 0.64976 0.45377 0.0
C235 C 0.14007 0.59571 0.44604 0.0
C236 C 1.0519 0.44352 0.44583 0.0
C237 C 1.04534 0.39867 0.44071 0.0
C238 C 0.98923 0.34894 0.44892 0.0
C239 C 0.93734 0.34218 0.46235 0.0
C240 C 0.94399 0.3872 0.46819 0.0
C241 C 1.00081 0.43759 0.45976 0.0
C242 C 0.109 0.51075 0.39429 0.0
C243 C 0.1614 0.55334 0.37867 0.0
C244 C 0.15678 0.55391 0.34918 0.0
C245 C 0.09977 0.51167 0.33476 0.0
C246 C 1.04614 0.47019 0.35053 0.0
C247 C 1.05063 0.46979 0.38012 0.0
P248 P 0.67725 0.05705 0.74087 0.0
H249 H 0.73154 0.12829 0.7905 0.0
H250 H 0.70428 0.17821 0.81435 0.0
H251 H 0.53668 0.09981 0.75959 0.0
H252 H 0.5633 0.04917 0.73628 0.0
H253 H 0.72626 1.00261 0.73386 0.0
H254 H 0.70736 0.93218 0.75991 0.0
H255 H 0.55874 0.91455 0.81039 0.0
H256 H 0.57793 0.98579 0.78419 0.0
H257 H 0.70665 0.12707 0.69679 0.0
H258 H 0.58539 0.95907 0.70595 0.0
O259 O 0.75867 0.10132 0.7398 0.0
H260 H 0.67335 0.11264 0.64707 0.0
H261 H 0.55128 0.94432 0.65616 0.0
C262 C 0.6506 0.08652 0.7611 0.0
C263 C 0.68859 0.12154 0.78386 0.0
C264 C 0.6732 0.15012 0.79734 0.0
C265 C 0.61949 0.14382 0.78822 0.0
C266 C 0.5787 0.10569 0.76683 0.0
C267 C 0.59408 0.07703 0.7534 0.0
C268 C 0.65445 0.99993 0.75749 0.0
C269 C 0.68914 0.98333 0.7503 0.0
C270 C 0.67839 0.94328 0.76514 0.0
C271 C 0.63237 0.91896 0.78723 0.0
C272 C 0.59475 0.93332 0.79349 0.0
C273 C 0.60581 0.97386 0.7786 0.0
C274 C 0.64927 0.04426 0.70482 0.0
C275 C 0.67275 0.08706 0.68805 0.0
C276 C 0.65345 0.07878 0.65975 0.0
C277 C 0.61034 0.02744 0.64771 0.0
C278 C 0.58556 0.98437 0.66479 0.0
C279 C 0.60484 0.99274 0.69322 0.0
P280 P 0.46535 0.36203 0.07385 0.0
H281 H 0.43088 0.29569 0.12097 0.0
H282 H 0.50181 0.3141 0.15997 0.0
H283 H 0.67089 0.42401 0.10793 0.0
H284 H 0.60101 0.40621 0.06927 0.0
H285 H 0.36355 0.36383 0.09545 0.0
H286 H 0.36817 0.42355 0.12957 0.0
H287 H 0.57433 0.51165 0.14185 0.0
H288 H 0.57056 0.45544 0.10624 0.0
H289 H 0.51701 0.34432 0.02428 0.0
H290 H 0.50133 0.45977 0.05366 0.0
O291 O 0.3897 0.30621 0.06672 0.0
H292 H 0.57404 0.39551 0.98136 0.0
H293 H 0.55902 0.51064 0.01154 0.0
C294 C 0.51043 0.34922 0.09213 0.0
C295 C 0.483 0.32111 0.11728 0.0
C296 C 0.52329 0.33215 0.13967 0.0
C297 C 0.59097 0.37065 0.13668 0.0
C298 C 0.61839 0.39388 0.11037 0.0
C299 C 0.57824 0.38293 0.08806 0.0
C300 C 0.46606 0.40391 0.09919 0.0
C301 C 0.4094 0.3957 0.10573 0.0
C302 C 0.4121 0.42943 0.12548 0.0
C303 C 0.47132 0.47098 0.13925 0.0
C304 C 0.52795 0.47948 0.13204 0.0
C305 C 0.52551 0.44677 0.11188 0.0
C306 C 0.50585 0.39855 0.04233 0.0
C307 C 0.5266 0.38082 0.02173 0.0
C308 C 0.5599 0.41029 -0.00237 0.0
C309 C 0.57249 0.45756 0.99408 0.0
C310 C 0.55177 0.47524 0.01463 0.0
C311 C 0.51814 0.44569 0.03852 0.0
C312 C 0.51953 0.59822 0.16925 0.0
C313 C 0.4608 0.5788 0.18272 0.0
C314 C 0.52535 0.56292 0.15652 0.0
C315 C 0.47509 0.50806 0.15927 0.0
H316 H 0.55423 0.63913 0.16323 0.0
H317 H 0.56576 0.57845 0.14206 0.0
S318 S 0.3314 0.44178 0.20689 0.0
N319 N 0.36583 0.50454 0.20846 0.0
N320 N 0.3782 0.43852 0.18552 0.0
C321 C 0.42512 0.49013 0.17895 0.0
C322 C 0.41893 0.52599 0.19148 0.0
C323 C 0.79182 0.19642 0.44919 0.0
C324 C 0.76177 0.17903 0.47591 0.0
C325 C 0.84717 0.24937 0.44506 0.0
C326 C 0.87531 0.28732 0.4676 0.0
H327 H 0.77258 0.16873 0.43131 0.0
H328 H 0.86845 0.26068 0.42396 0.0
S329 S 0.81641 0.26116 0.54229 0.0
N330 N 0.76425 0.20318 0.52553 0.0
N331 N 0.86938 0.30299 0.51804 0.0
C332 C 0.84573 0.27037 0.4946 0.0
C333 C 0.78887 0.21613 0.49872 0.0
C334 C 0.58595 0.79108 0.80706 0.0
C335 C 0.6424 0.80901 0.82153 0.0
C336 C 0.5789 0.82666 0.79845 0.0
C337 C 0.62798 0.88097 0.80424 0.0
H338 H 0.54941 0.74987 0.80053 0.0
H339 H 0.53774 0.81221 0.78523 0.0
S340 S 0.7798 0.94712 0.84505 0.0
N341 N 0.7443 0.88407 0.84401 0.0
N342 N 0.73018 0.9505 0.82812 0.0
C343 C 0.6811 0.89867 0.82112 0.0
C344 C 0.68849 0.8627 0.82979 0.0
C345 C 0.71977 0.40383 0.18553 0.0
C346 C 0.74787 0.45535 0.19446 0.0
C347 C 0.66318 0.373 0.16897 0.0
C348 C 0.63353 0.39306 0.16154 0.0
H349 H 0.7465 0.39043 0.18784 0.0
H350 H 0.64669 0.33599 0.15952 0.0
S351 S 0.68242 0.52175 0.18454 0.0
N352 N 0.73696 0.52148 0.19902 0.0
N353 N 0.63073 0.46405 0.1675 0.0
C354 C 0.65642 0.44159 0.17359 0.0
C355 C 0.71339 0.47246 0.19062 0.0
C356 C 0.39219 0.81494 0.492 0.0
C357 C 0.40121 0.8483 0.47133 0.0
C358 C 0.33941 0.7602 0.49062 0.0
C359 C 0.29394 0.73593 0.46809 0.0
H360 H 0.42653 0.83122 0.50937 0.0
H361 H 0.33505 0.7366 0.50717 0.0
S362 S 0.297 0.80629 0.4081 0.0
N363 N 0.35989 0.85366 0.42795 0.0
N364 N 0.26294 0.75087 0.42433 0.0
C365 C 0.30207 0.76928 0.44748 0.0
C366 C 0.3551 0.82527 0.44931 0.0
C367 C 0.53309 0.19122 0.81759 0.0
C368 C 0.58296 0.24631 0.81777 0.0
C369 C 0.54557 0.15812 0.80865 0.0
C370 C 0.60827 0.17922 0.79952 0.0
H371 H 0.48412 0.17373 0.82425 0.0
H372 H 0.50587 0.11577 0.80869 0.0
S373 S 0.75428 0.32137 0.79467 0.0
N374 N 0.69645 0.32082 0.80763 0.0
N375 N 0.72007 0.25881 0.79023 0.0
C376 C 0.65851 0.23443 0.79964 0.0
C377 C 0.64577 0.26799 0.8089 0.0
C378 C 0.63015 0.74263 0.47609 0.0
C379 C 0.58467 0.74509 0.48904 0.0
C380 C 0.63701 0.70738 0.48524 0.0
C381 C 0.59837 0.6732 0.50747 0.0
H382 H 0.66469 0.77123 0.46058 0.0
H383 H 0.67607 0.70955 0.47631 0.0
S384 S 0.46329 0.6566 0.54421 0.0
N385 N 0.49337 0.70462 0.52196 0.0
N386 N 0.50682 0.63832 0.53935 0.0
C387 C 0.54808 0.67121 0.51848 0.0
C388 C 0.54116 0.70731 0.50922 0.0
C389 C 0.79934 0.50661 0.85115 0.0
C390 C 0.80772 0.54999 0.84096 0.0
C391 C 0.85275 0.50821 0.85527 0.0
C392 C 0.91849 0.55337 0.84954 0.0
H393 H 0.75076 0.47082 0.85642 0.0
H394 H 0.84224 0.4738 0.86371 0.0
S395 S 0.96826 0.67666 0.81997 0.0
N396 N 0.88848 0.63902 0.82393 0.0
N397 N 0.9868 0.64166 0.83077 0.0
C398 C 0.92723 0.59652 0.83856 0.0
C399 C 0.87292 0.59494 0.83453 0.0
C400 C 0.28204 0.73196 0.16801 0.0
C401 C 0.28915 0.69389 0.16533 0.0
C402 C 0.33636 0.78608 0.16946 0.0
C403 C 0.40038 0.80475 0.1682 0.0
H404 H 0.23396 0.71999 0.16925 0.0
H405 H 0.328 0.81358 0.17163 0.0
S406 S 0.44624 0.72163 0.16091 0.0
N407 N 0.36565 0.67883 0.1609 0.0
N408 N 0.46781 0.78049 0.16428 0.0
C409 C 0.40839 0.76716 0.16529 0.0
C410 C 0.35286 0.71185 0.16379 0.0
C411 C 0.64383 0.32283 0.50263 0.0
C412 C 0.58539 0.28428 0.48783 0.0
C413 C 0.66101 0.37098 0.51145 0.0
C414 C 0.61954 0.38137 0.50625 0.0
H415 H 0.6757 0.31525 0.50783 0.0
H416 H 0.70578 0.39947 0.52334 0.0
S417 S 0.46261 0.29388 0.46733 0.0
N418 N 0.48764 0.26021 0.46723 0.0
N419 N 0.51915 0.35038 0.48451 0.0
C420 C 0.56179 0.34361 0.49092 0.0
C421 C 0.54493 0.29506 0.48149 0.0
C422 C 0.44784 0.55599 0.8243 0.0
C423 C 0.46051 0.53277 0.84385 0.0
C424 C 0.39577 0.55655 0.82821 0.0
C425 C 0.35358 0.53508 0.85231 0.0
H426 H 0.47798 0.57336 0.80544 0.0
H427 H 0.38852 0.5739 0.81181 0.0
S428 S 0.37143 0.47555 0.91201 0.0
N429 N 0.42837 0.49037 0.88917 0.0
N430 N 0.33455 0.4939 0.89744 0.0
C431 C 0.36742 0.51309 0.87244 0.0
C432 C 0.41946 0.51142 0.86803 0.0
C433 C 0.94986 0.32317 0.15267 0.0
C434 C 0.93969 0.35923 0.15703 0.0
C435 C 0.89992 0.2691 0.15723 0.0
C436 C 0.83714 0.24824 0.16616 0.0
H437 H 0.99756 0.33688 0.14663 0.0
H438 H 0.91108 0.24346 0.15435 0.0
S439 S 0.78257 0.3243 0.17829 0.0
N440 N 0.86007 0.36917 0.16904 0.0
N441 N 0.76636 0.26743 0.17764 0.0
C442 C 0.82513 0.2832 0.16933 0.0
C443 C 0.8763 0.33862 0.16485 0.0
C444 C 0.15227 0.56181 0.06073 0.0
C445 C 0.09233 0.52026 0.07332 0.0
C446 C 0.16012 0.56493 0.03094 0.0
C447 C 0.10867 0.52622 0.01238 0.0
H448 H 0.19288 0.59319 0.07395 0.0
H449 H 0.20652 0.59885 0.02243 0.0
S450 S 0.94475 0.40531 0.03499 0.0
N451 N 0.98236 0.43741 0.06512 0.0
N452 N 0.99757 0.44194 0.00944 0.0
C453 C 1.04942 0.48318 0.0249 0.0
C454 C 1.04121 0.48051 0.05521 0.0
C455 C 0.54699 0.97872 0.37528 0.0
C456 C 0.59674 0.02478 0.39082 0.0
C457 C 0.54683 0.9781 0.34542 0.0
C458 C 0.59569 0.02375 0.33031 0.0
H459 H 0.51049 0.94225 0.38611 0.0
H460 H 0.50973 0.94121 0.33405 0.0
S461 S 0.73129 0.15581 0.36179 0.0
N462 N 0.69177 0.11798 0.38938 0.0
N463 N 0.69163 0.11719 0.33344 0.0
C464 C 0.64279 0.07084 0.34585 0.0
C465 C 0.64329 0.07121 0.3761 0.0
C466 C 0.68205 0.56572 0.7411 0.0
C467 C 0.61865 0.52596 0.75152 0.0
C468 C 0.6934 0.57578 0.71192 0.0
C469 C 0.64173 0.54673 0.6922 0.0
H470 H 0.7233 0.58861 0.75547 0.0
H471 H 0.74306 0.60627 0.70468 0.0
S472 S 0.46655 0.43924 0.7086 0.0
N473 N 0.50324 0.45833 0.73978 0.0
N474 N 0.525 0.47704 0.68514 0.0
C475 C 0.57805 0.50777 0.70242 0.0
C476 C 0.56643 0.49744 0.73203 0.0
C477 C 0.5583 0.03987 0.57693 0.0
C478 C 0.56668 0.01106 0.55803 0.0
C479 C 0.57173 0.04445 0.606 0.0
C480 C 0.59288 0.01958 0.6172 0.0
H481 H 0.54242 0.05981 0.56909 0.0
H482 H 0.56559 0.06767 0.61982 0.0
S483 S 0.61898 0.93739 0.57667 0.0
N484 N 0.59503 0.95584 0.55247 0.0
N485 N 0.62022 0.96426 0.60717 0.0
C486 C 0.6 0.9897 0.59854 0.0
C487 C 0.58704 0.98558 0.5689 0.0
C488 C 0.67456 0.55773 0.93718 0.0
C489 C 0.62994 0.53473 0.91453 0.0
C490 C 0.65663 0.53224 0.96312 0.0
C491 C 0.59445 0.48261 0.96657 0.0
H492 H 0.72304 0.59578 0.93498 0.0
H493 H 0.69114 0.55136 0.98054 0.0
S494 S 0.45932 0.40634 0.91465 0.0
N495 N 0.5196 0.46035 0.89823 0.0
N496 N 0.48823 0.41182 0.94625 0.0
C497 C 0.54986 0.45919 0.94423 0.0
C498 C 0.56705 0.48548 0.91833 0.0
C499 C 0.10561 0.539 0.25629 0.0
C500 C 0.11534 0.50622 0.24277 0.0
C501 C 0.09915 0.5401 0.28611 0.0
C502 C 0.10039 0.50737 0.30325 0.0
H503 H 0.10539 0.56534 0.24387 0.0
H504 H 0.09406 0.56713 0.29587 0.0
S505 S 0.12029 0.41215 0.27844 0.0
N506 N 0.12349 0.43898 0.24906 0.0
N507 N 0.1095 0.44018 0.30466 0.0
C508 C 0.10772 0.47323 0.28994 0.0
C509 C 0.11561 0.47284 0.25982 0.0
loop_
_geom_bond_atom_site_label_1
_geom_bond_atom_site_label_2
_geom_bond_distance
_geom_bond_site_symmetry_2
_ccdc_geom_bond_type
Sm0 C2 2.846 . S
Sm0 O20 2.543 . S
Sm0 O21 2.450 . S
Sm0 O22 2.681 . S
Sm0 O23 2.464 . S
Sm0 O24 2.396 . S
Sm0 O28 2.386 . S
Sm0 O31 2.408 1_455 S
Sm1 C11 2.846 . S
Sm1 O22 2.386 1_655 S
Sm1 O25 2.408 1_655 S
Sm1 O26 2.543 . S
Sm1 O27 2.450 . S
Sm1 O28 2.681 1_655 S
Sm1 O29 2.464 . S
Sm1 O30 2.396 . S
C2 Sm0 2.846 . S
C2 C3 1.506 . S
C2 O20 1.261 . S
C2 O21 1.242 . S
C3 C2 1.506 . S
C3 C4 1.358 . S
C3 C8 1.382 . S
C4 C3 1.358 . S
C4 C5 1.385 . S
C4 H32 0.930 . S
C5 C4 1.385 . S
C5 C6 1.395 . S
C5 H33 0.929 . S
C6 C5 1.395 . S
C6 C7 1.335 . S
C7 C6 1.335 . S
C7 C8 1.398 . S
C7 H34 0.930 . S
C8 C3 1.382 . S
C8 C7 1.398 . S
C8 H35 0.929 . S
C9 O22 1.271 . S
C9 O23 1.251 . S
C10 O24 1.252 . S
C10 O25 1.272 . S
C11 Sm1 2.846 . S
C11 C12 1.506 . S
C11 O26 1.261 . S
C11 O27 1.242 . S
C12 C11 1.506 . S
C12 C13 1.358 . S
C12 C17 1.382 . S
C13 C12 1.358 . S
C13 C14 1.385 . S
C13 H36 0.930 . S
C14 C13 1.385 . S
C14 C15 1.395 . S
C14 H37 0.929 . S
C15 C14 1.395 . S
C15 C16 1.335 . S
C16 C15 1.335 . S
C16 C17 1.398 . S
C16 H38 0.930 . S
C17 C12 1.382 . S
C17 C16 1.398 . S
C17 H39 0.929 . S
C18 O28 1.271 . S
C18 O29 1.251 1_455 S
C19 O30 1.252 . S
C19 O31 1.272 . S
O20 Sm0 2.543 . S
O20 C2 1.261 . S
O21 Sm0 2.450 . S
O21 C2 1.242 . S
O22 Sm0 2.681 . S
O22 Sm1 2.386 1_455 S
O22 C9 1.271 . S
O23 Sm0 2.464 . S
O23 C9 1.251 . S
O24 Sm0 2.396 . S
O24 C10 1.252 . S
O25 Sm1 2.408 1_455 S
O25 C10 1.272 . S
O26 Sm1 2.543 . S
O26 C11 1.261 . S
O27 Sm1 2.450 . S
O27 C11 1.242 . S
O28 Sm0 2.386 . S
O28 Sm1 2.681 1_455 S
O28 C18 1.271 . S
O29 Sm1 2.464 . S
O29 C18 1.251 1_655 S
O30 Sm1 2.396 . S
O30 C19 1.252 . S
O31 Sm0 2.408 1_655 S
O31 C19 1.272 . S
H32 C4 0.930 . S
H33 C5 0.929 . S
H34 C7 0.930 . S
H35 C8 0.929 . S
H36 C13 0.930 . S
H37 C14 0.929 . S
H38 C16 0.930 . S
H39 C17 0.929 . S
Sm40 C42 2.846 . S
Sm40 O60 2.543 . S
Sm40 O61 2.450 . S
Sm40 O62 2.681 1_565 S
Sm40 O63 2.464 . S
Sm40 O64 2.396 . S
Sm40 O68 2.386 . S
Sm40 O71 2.408 1_565 S
Sm41 C51 2.846 . S
Sm41 O62 2.386 . S
Sm41 O65 2.408 1_545 S
Sm41 O66 2.543 . S
Sm41 O67 2.450 . S
Sm41 O68 2.681 1_545 S
Sm41 O69 2.464 . S
Sm41 O70 2.396 . S
C42 Sm40 2.846 . S
C42 C43 1.506 . S
C42 O60 1.261 . S
C42 O61 1.242 . S
C43 C42 1.506 . S
C43 C44 1.358 . S
C43 C48 1.382 . S
C44 C43 1.358 . S
C44 C45 1.385 . S
C44 H72 0.930 . S
C45 C44 1.385 . S
C45 C46 1.395 . S
C45 H73 0.929 . S
C46 C45 1.395 . S
C46 C47 1.335 . S
C47 C46 1.335 . S
C47 C48 1.398 . S
C47 H74 0.930 . S
C48 C43 1.382 . S
C48 C47 1.398 . S
C48 H75 0.929 . S
C49 O62 1.271 . S
C49 O63 1.251 1_545 S
C50 O64 1.252 . S
C50 O65 1.272 . S
C51 Sm41 2.846 . S
C51 C52 1.506 . S
C51 O66 1.261 . S
C51 O67 1.242 . S
C52 C51 1.506 . S
C52 C53 1.358 . S
C52 C57 1.382 . S
C53 C52 1.358 . S
C53 C54 1.385 . S
C53 H76 0.930 . S
C54 C53 1.385 . S
C54 C55 1.395 . S
C54 H77 0.929 . S
C55 C54 1.395 . S
C55 C56 1.335 . S
C56 C55 1.335 . S
C56 C57 1.398 . S
C56 H78 0.930 . S
C57 C52 1.382 . S
C57 C56 1.398 . S
C57 H79 0.929 . S
C58 O68 1.271 1_545 S
C58 O69 1.251 . S
C59 O70 1.252 . S
C59 O71 1.272 . S
O60 Sm40 2.543 . S
O60 C42 1.261 . S
O61 Sm40 2.450 . S
O61 C42 1.242 . S
O62 Sm40 2.681 1_545 S
O62 Sm41 2.386 . S
O62 C49 1.271 . S
O63 Sm40 2.464 . S
O63 C49 1.251 1_565 S
O64 Sm40 2.396 . S
O64 C50 1.252 . S
O65 Sm41 2.408 1_565 S
O65 C50 1.272 . S
O66 Sm41 2.543 . S
O66 C51 1.261 . S
O67 Sm41 2.450 . S
O67 C51 1.242 . S
O68 Sm40 2.386 . S
O68 Sm41 2.681 1_565 S
O68 C58 1.271 1_565 S
O69 Sm41 2.464 . S
O69 C58 1.251 . S
O70 Sm41 2.396 . S
O70 C59 1.252 . S
O71 Sm40 2.408 1_545 S
O71 C59 1.272 . S
H72 C44 0.930 . S
H73 C45 0.929 . S
H74 C47 0.930 . S
H75 C48 0.929 . S
H76 C53 0.930 . S
H77 C54 0.929 . S
H78 C56 0.930 . S
H79 C57 0.929 . S
Sm80 C82 2.846 . S
Sm80 O100 2.543 . S
Sm80 O101 2.450 . S
Sm80 O102 2.681 . S
Sm80 O103 2.464 . S
Sm80 O104 2.396 . S
Sm80 O108 2.386 . S
Sm80 O111 2.408 . S
Sm81 C91 2.846 . S
Sm81 O102 2.386 . S
Sm81 O105 2.408 . S
Sm81 O106 2.543 . S
Sm81 O107 2.450 . S
Sm81 O108 2.681 . S
Sm81 O109 2.464 . S
Sm81 O110 2.396 . S
C82 Sm80 2.846 . S
C82 C83 1.506 . S
C82 O100 1.261 . S
C82 O101 1.242 . S
C83 C82 1.506 . S
C83 C84 1.358 . S
C83 C88 1.382 . S
C84 C83 1.358 . S
C84 C85 1.385 . S
C84 H112 0.930 . S
C85 C84 1.385 . S
C85 C86 1.395 . S
C85 H113 0.929 . S
C86 C85 1.395 . S
C86 C87 1.335 . S
C87 C86 1.335 . S
C87 C88 1.398 . S
C87 H114 0.930 . S
C88 C83 1.382 . S
C88 C87 1.398 . S
C88 H115 0.929 . S
C89 O102 1.271 . S
C89 O103 1.251 . S
C90 O104 1.252 . S
C90 O105 1.272 . S
C91 Sm81 2.846 . S
C91 C92 1.506 . S
C91 O106 1.261 . S
C91 O107 1.242 . S
C92 C91 1.506 . S
C92 C93 1.358 . S
C92 C97 1.382 . S
C93 C92 1.358 . S
C93 C94 1.385 . S
C93 H116 0.930 . S
C94 C93 1.385 . S
C94 C95 1.395 . S
C94 H117 0.929 . S
C95 C94 1.395 . S
C95 C96 1.335 . S
C96 C95 1.335 . S
C96 C97 1.398 . S
C96 H118 0.930 . S
C97 C92 1.382 . S
C97 C96 1.398 . S
C97 H119 0.929 . S
C98 O108 1.271 . S
C98 O109 1.251 . S
C99 O110 1.252 . S
C99 O111 1.272 . S
O100 Sm80 2.543 . S
O100 C82 1.261 . S
O101 Sm80 2.450 . S
O101 C82 1.242 . S
O102 Sm80 2.681 . S
O102 Sm81 2.386 . S
O102 C89 1.271 . S
O103 Sm80 2.464 . S
O103 C89 1.251 . S
O104 Sm80 2.396 . S
O104 C90 1.252 . S
O105 Sm81 2.408 . S
O105 C90 1.272 . S
O106 Sm81 2.543 . S
O106 C91 1.261 . S
O107 Sm81 2.450 . S
O107 C91 1.242 . S
O108 Sm80 2.386 . S
O108 Sm81 2.681 . S
O108 C98 1.271 . S
O109 Sm81 2.464 . S
O109 C98 1.251 . S
O110 Sm81 2.396 . S
O110 C99 1.252 . S
O111 Sm80 2.408 . S
O111 C99 1.272 . S
H112 C84 0.930 . S
H113 C85 0.929 . S
H114 C87 0.930 . S
H115 C88 0.929 . S
H116 C93 0.930 . S
H117 C94 0.929 . S
H118 C96 0.930 . S
H119 C97 0.929 . S
P120 O131 1.490 . S
P120 C134 1.812 . S
P120 C140 1.803 1_565 S
P120 C146 1.819 1_565 S
H121 C135 0.941 . S
H122 C136 0.939 . S
H123 C138 0.940 . S
H124 C139 0.940 . S
H125 C141 0.939 . S
H126 C142 0.942 . S
H127 C144 0.940 . S
H128 C145 0.939 . S
H129 C147 0.941 . S
H130 C151 0.939 . S
O131 P120 1.490 . S
H132 C148 0.939 . S
H133 C150 0.940 . S
C134 P120 1.812 . S
C134 C135 1.389 . S
C134 C139 1.391 . S
C135 H121 0.941 . S
C135 C134 1.389 . S
C135 C136 1.397 . S
C136 H122 0.939 . S
C136 C135 1.397 . S
C136 C137 1.378 . S
C137 C136 1.378 . S
C137 C138 1.378 . S
C138 H123 0.940 . S
C138 C137 1.378 . S
C138 C139 1.396 . S
C139 H124 0.940 . S
C139 C134 1.391 . S
C139 C138 1.396 . S
C140 P120 1.803 1_545 S
C140 C141 1.378 . S
C140 C145 1.400 . S
C141 H125 0.939 . S
C141 C140 1.378 . S
C141 C142 1.361 . S
C142 H126 0.942 . S
C142 C141 1.361 . S
C142 C143 1.369 . S
C143 C142 1.369 . S
C143 C144 1.404 . S
C144 H127 0.940 . S
C144 C143 1.404 . S
C144 C145 1.389 . S
C145 H128 0.939 . S
C145 C140 1.400 . S
C145 C144 1.389 . S
C146 P120 1.819 1_545 S
C146 C147 1.391 1_545 S
C146 C151 1.391 . S
C147 H129 0.941 . S
C147 C146 1.391 1_565 S
C147 C148 1.396 . S
C148 H132 0.939 . S
C148 C147 1.396 . S
C148 C149 1.397 1_565 S
C149 C148 1.397 1_545 S
C149 C150 1.385 . S
C150 H133 0.940 . S
C150 C149 1.385 . S
C150 C151 1.388 . S
C151 H130 0.939 . S
C151 C146 1.391 . S
C151 C150 1.388 . S
P152 O163 1.490 . S
P152 C166 1.812 . S
P152 C172 1.803 . S
P152 C178 1.819 . S
H153 C167 0.941 . S
H154 C168 0.939 . S
H155 C170 0.940 . S
H156 C171 0.940 . S
H157 C173 0.939 . S
H158 C174 0.942 . S
H159 C176 0.940 . S
H160 C177 0.939 . S
H161 C179 0.941 . S
H162 C183 0.939 . S
O163 P152 1.490 . S
H164 C180 0.939 . S
H165 C182 0.940 . S
C166 P152 1.812 . S
C166 C167 1.389 . S
C166 C171 1.391 . S
C167 H153 0.941 . S
C167 C166 1.389 . S
C167 C168 1.397 . S
C168 H154 0.939 . S
C168 C167 1.397 . S
C168 C169 1.378 . S
C169 C168 1.378 . S
C169 C170 1.378 . S
C170 H155 0.940 . S
C170 C169 1.378 . S
C170 C171 1.396 . S
C171 H156 0.940 . S
C171 C166 1.391 . S
C171 C170 1.396 . S
C172 P152 1.803 . S
C172 C173 1.378 . S
C172 C177 1.400 . S
C173 H157 0.939 . S
C173 C172 1.378 . S
C173 C174 1.361 . S
C174 H158 0.942 . S
C174 C173 1.361 . S
C174 C175 1.369 . S
C175 C174 1.369 . S
C175 C176 1.404 . S
C176 H159 0.940 . S
C176 C175 1.404 . S
C176 C177 1.389 . S
C177 H160 0.939 . S
C177 C172 1.400 . S
C177 C176 1.389 . S
C178 P152 1.819 . S
C178 C179 1.391 . S
C178 C183 1.391 . S
C179 H161 0.941 . S
C179 C178 1.391 . S
C179 C180 1.396 . S
C180 H164 0.939 . S
C180 C179 1.396 . S
C180 C181 1.397 . S
C181 C180 1.397 . S
C181 C182 1.385 . S
C182 H165 0.940 . S
C182 C181 1.385 . S
C182 C183 1.388 . S
C183 H162 0.939 . S
C183 C178 1.391 . S
C183 C182 1.388 . S
P184 O195 1.490 . S
P184 C198 1.812 . S
P184 C204 1.803 . S
P184 C210 1.819 . S
H185 C199 0.941 . S
H186 C200 0.939 . S
H187 C202 0.940 . S
H188 C203 0.940 . S
H189 C205 0.939 . S
H190 C206 0.942 . S
H191 C208 0.940 . S
H192 C209 0.939 1_455 S
H193 C211 0.941 . S
H194 C215 0.939 1_655 S
O195 P184 1.490 . S
H196 C212 0.939 . S
H197 C214 0.940 1_655 S
C198 P184 1.812 . S
C198 C199 1.389 . S
C198 C203 1.391 . S
C199 H185 0.941 . S
C199 C198 1.389 . S
C199 C200 1.397 . S
C200 H186 0.939 . S
C200 C199 1.397 . S
C200 C201 1.378 . S
C201 C200 1.378 . S
C201 C202 1.378 . S
C202 H187 0.940 . S
C202 C201 1.378 . S
C202 C203 1.396 . S
C203 H188 0.940 . S
C203 C198 1.391 . S
C203 C202 1.396 . S
C204 P184 1.803 . S
C204 C205 1.378 . S
C204 C209 1.400 1_455 S
C205 H189 0.939 . S
C205 C204 1.378 . S
C205 C206 1.361 1_455 S
C206 H190 0.942 . S
C206 C205 1.361 1_655 S
C206 C207 1.369 . S
C207 C206 1.369 . S
C207 C208 1.404 . S
C208 H191 0.940 . S
C208 C207 1.404 . S
C208 C209 1.389 . S
C209 H192 0.939 1_655 S
C209 C204 1.400 1_655 S
C209 C208 1.389 . S
C210 P184 1.819 . S
C210 C211 1.391 . S
C210 C215 1.391 . S
C211 H193 0.941 . S
C211 C210 1.391 . S
C211 C212 1.396 . S
C212 H196 0.939 . S
C212 C211 1.396 . S
C212 C213 1.397 . S
C213 C212 1.397 . S
C213 C214 1.385 . S
C214 H197 0.940 1_455 S
C214 C213 1.385 . S
C214 C215 1.388 . S
C215 H194 0.939 1_455 S
C215 C210 1.391 . S
C215 C214 1.388 . S
P216 O227 1.490 . S
P216 C230 1.812 . S
P216 C236 1.803 1_455 S
P216 C242 1.819 . S
H217 C231 0.941 . S
H218 C232 0.939 . S
H219 C234 0.940 . S
H220 C235 0.940 . S
H221 C237 0.939 . S
H222 C238 0.942 . S
H223 C240 0.940 . S
H224 C241 0.939 . S
H225 C243 0.941 . S
H226 C247 0.939 . S
O227 P216 1.490 . S
H228 C244 0.939 . S
H229 C246 0.940 . S
C230 P216 1.812 . S
C230 C231 1.389 . S
C230 C235 1.391 . S
C231 H217 0.941 . S
C231 C230 1.389 . S
C231 C232 1.397 . S
C232 H218 0.939 . S
C232 C231 1.397 . S
C232 C233 1.378 . S
C233 C232 1.378 . S
C233 C234 1.378 . S
C234 H219 0.940 . S
C234 C233 1.378 . S
C234 C235 1.396 . S
C235 H220 0.940 . S
C235 C230 1.391 . S
C235 C234 1.396 . S
C236 P216 1.803 1_655 S
C236 C237 1.378 . S
C236 C241 1.400 . S
C237 H221 0.939 . S
C237 C236 1.378 . S
C237 C238 1.361 . S
C238 H222 0.942 . S
C238 C237 1.361 . S
C238 C239 1.369 . S
C239 C238 1.369 . S
C239 C240 1.404 . S
C240 H223 0.940 . S
C240 C239 1.404 . S
C240 C241 1.389 . S
C241 H224 0.939 . S
C241 C236 1.400 . S
C241 C240 1.389 . S
C242 P216 1.819 . S
C242 C243 1.391 . S
C242 C247 1.391 1_455 S
C243 H225 0.941 . S
C243 C242 1.391 . S
C243 C244 1.396 . S
C244 H228 0.939 . S
C244 C243 1.396 . S
C244 C245 1.397 . S
C245 C244 1.397 . S
C245 C246 1.385 1_455 S
C246 H229 0.940 . S
C246 C245 1.385 1_655 S
C246 C247 1.388 . S
C247 H226 0.939 . S
C247 C242 1.391 1_655 S
C247 C246 1.388 . S
P248 O259 1.490 . S
P248 C262 1.812 . S
P248 C268 1.803 1_545 S
P248 C274 1.819 . S
H249 C263 0.941 . S
H250 C264 0.939 . S
H251 C266 0.940 . S
H252 C267 0.940 . S
H253 C269 0.939 1_545 S
H254 C270 0.942 . S
H255 C272 0.940 . S
H256 C273 0.939 . S
H257 C275 0.941 . S
H258 C279 0.939 . S
O259 P248 1.490 . S
H260 C276 0.939 . S
H261 C278 0.940 . S
C262 P248 1.812 . S
C262 C263 1.389 . S
C262 C267 1.391 . S
C263 H249 0.941 . S
C263 C262 1.389 . S
C263 C264 1.397 . S
C264 H250 0.939 . S
C264 C263 1.397 . S
C264 C265 1.378 . S
C265 C264 1.378 . S
C265 C266 1.378 . S
C266 H251 0.940 . S
C266 C265 1.378 . S
C266 C267 1.396 . S
C267 H252 0.940 . S
C267 C262 1.391 . S
C267 C266 1.396 . S
C268 P248 1.803 1_565 S
C268 C269 1.378 . S
C268 C273 1.400 . S
C269 H253 0.939 1_565 S
C269 C268 1.378 . S
C269 C270 1.361 . S
C270 H254 0.942 . S
C270 C269 1.361 . S
C270 C271 1.369 . S
C271 C270 1.369 . S
C271 C272 1.404 . S
C272 H255 0.940 . S
C272 C271 1.404 . S
C272 C273 1.389 . S
C273 H256 0.939 . S
C273 C268 1.400 . S
C273 C272 1.389 . S
C274 P248 1.819 . S
C274 C275 1.391 . S
C274 C279 1.391 1_545 S
C275 H257 0.941 . S
C275 C274 1.391 . S
C275 C276 1.396 . S
C276 H260 0.939 . S
C276 C275 1.396 . S
C276 C277 1.397 . S
C277 C276 1.397 . S
C277 C278 1.385 1_545 S
C278 H261 0.940 . S
C278 C277 1.385 1_565 S
C278 C279 1.388 . S
C279 H258 0.939 . S
C279 C274 1.391 1_565 S
C279 C278 1.388 . S
P280 O291 1.490 . S
P280 C294 1.812 . S
P280 C300 1.803 . S
P280 C306 1.819 . S
H281 C295 0.941 . S
H282 C296 0.939 . S
H283 C298 0.940 . S
H284 C299 0.940 . S
H285 C301 0.939 . S
H286 C302 0.942 . S
H287 C304 0.940 . S
H288 C305 0.939 . S
H289 C307 0.941 . S
H290 C311 0.939 . S
O291 P280 1.490 . S
H292 C308 0.940 . S
H293 C310 0.940 . S
C294 P280 1.812 . S
C294 C295 1.389 . S
C294 C299 1.391 . S
C295 H281 0.941 . S
C295 C294 1.389 . S
C295 C296 1.397 . S
C296 H282 0.939 . S
C296 C295 1.397 . S
C296 C297 1.378 . S
C297 C296 1.378 . S
C297 C298 1.378 . S
C298 H283 0.940 . S
C298 C297 1.378 . S
C298 C299 1.396 . S
C299 H284 0.940 . S
C299 C294 1.391 . S
C299 C298 1.396 . S
C300 P280 1.803 . S
C300 C301 1.378 . S
C300 C305 1.400 . S
C301 H285 0.939 . S
C301 C300 1.378 . S
C301 C302 1.361 . S
C302 H286 0.942 . S
C302 C301 1.361 . S
C302 C303 1.369 . S
C303 C302 1.369 . S
C303 C304 1.404 . S
C304 H287 0.940 . S
C304 C303 1.404 . S
C304 C305 1.389 . S
C305 H288 0.939 . S
C305 C300 1.400 . S
C305 C304 1.389 . S
C306 P280 1.819 . S
C306 C307 1.391 . S
C306 C311 1.391 . S
C307 H289 0.941 . S
C307 C306 1.391 . S
C307 C308 1.396 1_554 S
C308 H292 0.940 . S
C308 C307 1.396 1_556 S
C308 C309 1.397 . S
C309 C308 1.397 . S
C309 C310 1.385 1_556 S
C310 H293 0.940 . S
C310 C309 1.385 1_554 S
C310 C311 1.388 . S
C311 H290 0.939 . S
C311 C306 1.391 . S
C311 C310 1.388 . S
C312 C313 1.369 . S
C312 C314 1.419 . S
C312 H316 0.930 . S
C313 C312 1.369 . S
C313 C322 1.429 . S
C314 C312 1.419 . S
C314 C315 1.363 . S
C314 H317 0.929 . S
C315 C314 1.363 . S
C315 C321 1.428 . S
H316 C312 0.930 . S
H317 C314 0.929 . S
S318 N319 1.613 . S
S318 N320 1.610 . S
N319 S318 1.613 . S
N319 C322 1.350 . S
N320 S318 1.610 . S
N320 C321 1.351 . S
C321 C315 1.428 . S
C321 N320 1.351 . S
C321 C322 1.434 . S
C322 C313 1.429 . S
C322 N319 1.350 . S
C322 C321 1.434 . S
C323 C324 1.369 . S
C323 C325 1.419 . S
C323 H327 0.930 . S
C324 C323 1.369 . S
C324 C333 1.429 . S
C325 C323 1.419 . S
C325 C326 1.363 . S
C325 H328 0.929 . S
C326 C325 1.363 . S
C326 C332 1.428 . S
H327 C323 0.930 . S
H328 C325 0.929 . S
S329 N330 1.613 . S
S329 N331 1.610 . S
N330 S329 1.613 . S
N330 C333 1.350 . S
N331 S329 1.610 . S
N331 C332 1.351 . S
C332 C326 1.428 . S
C332 N331 1.351 . S
C332 C333 1.434 . S
C333 C324 1.429 . S
C333 N330 1.350 . S
C333 C332 1.434 . S
C334 C335 1.369 . S
C334 C336 1.419 . S
C334 H338 0.930 . S
C335 C334 1.369 . S
C335 C344 1.429 . S
C336 C334 1.419 . S
C336 C337 1.363 . S
C336 H339 0.929 . S
C337 C336 1.363 . S
C337 C343 1.428 . S
H338 C334 0.930 . S
H339 C336 0.929 . S
S340 N341 1.613 . S
S340 N342 1.610 . S
N341 S340 1.613 . S
N341 C344 1.350 . S
N342 S340 1.610 . S
N342 C343 1.351 . S
C343 C337 1.428 . S
C343 N342 1.351 . S
C343 C344 1.434 . S
C344 C335 1.429 . S
C344 N341 1.350 . S
C344 C343 1.434 . S
C345 C346 1.369 . S
C345 C347 1.419 . S
C345 H349 0.930 . S
C346 C345 1.369 . S
C346 C355 1.429 . S
C347 C345 1.419 . S
C347 C348 1.363 . S
C347 H350 0.929 . S
C348 C347 1.363 . S
C348 C354 1.428 . S
H349 C345 0.930 . S
H350 C347 0.929 . S
S351 N352 1.613 . S
S351 N353 1.610 . S
N352 S351 1.613 . S
N352 C355 1.350 . S
N353 S351 1.610 . S
N353 C354 1.351 . S
C354 C348 1.428 . S
C354 N353 1.351 . S
C354 C355 1.434 . S
C355 C346 1.429 . S
C355 N352 1.350 . S
C355 C354 1.434 . S
C356 C357 1.369 . S
C356 C358 1.419 . S
C356 H360 0.930 . S
C357 C356 1.369 . S
C357 C366 1.429 . S
C358 C356 1.419 . S
C358 C359 1.363 . S
C358 H361 0.929 . S
C359 C358 1.363 . S
C359 C365 1.428 . S
H360 C356 0.930 . S
H361 C358 0.929 . S
S362 N363 1.613 . S
S362 N364 1.610 . S
N363 S362 1.613 . S
N363 C366 1.350 . S
N364 S362 1.610 . S
N364 C365 1.351 . S
C365 C359 1.428 . S
C365 N364 1.351 . S
C365 C366 1.434 . S
C366 C357 1.429 . S
C366 N363 1.350 . S
C366 C365 1.434 . S
C367 C368 1.369 . S
C367 C369 1.419 . S
C367 H371 0.930 . S
C368 C367 1.369 . S
C368 C377 1.429 . S
C369 C367 1.419 . S
C369 C370 1.363 . S
C369 H372 0.929 . S
C370 C369 1.363 . S
C370 C376 1.428 . S
H371 C367 0.930 . S
H372 C369 0.929 . S
S373 N374 1.613 . S
S373 N375 1.610 . S
N374 S373 1.613 . S
N374 C377 1.350 . S
N375 S373 1.610 . S
N375 C376 1.351 . S
C376 C370 1.428 . S
C376 N375 1.351 . S
C376 C377 1.434 . S
C377 C368 1.429 . S
C377 N374 1.350 . S
C377 C376 1.434 . S
C378 C379 1.369 . S
C378 C380 1.419 . S
C378 H382 0.930 . S
C379 C378 1.369 . S
C379 C388 1.429 . S
C380 C378 1.419 . S
C380 C381 1.363 . S
C380 H383 0.929 . S
C381 C380 1.363 . S
C381 C387 1.428 . S
H382 C378 0.930 . S
H383 C380 0.929 . S
S384 N385 1.613 . S
S384 N386 1.610 . S
N385 S384 1.613 . S
N385 C388 1.350 . S
N386 S384 1.610 . S
N386 C387 1.351 . S
C387 C381 1.428 . S
C387 N386 1.351 . S
C387 C388 1.434 . S
C388 C379 1.429 . S
C388 N385 1.350 . S
C388 C387 1.434 . S
C389 C390 1.369 . S
C389 C391 1.419 . S
C389 H393 0.930 . S
C390 C389 1.369 . S
C390 C399 1.429 . S
C391 C389 1.419 . S
C391 C392 1.363 . S
C391 H394 0.929 . S
C392 C391 1.363 . S
C392 C398 1.428 . S
H393 C389 0.930 . S
H394 C391 0.929 . S
S395 N396 1.613 . S
S395 N397 1.610 . S
N396 S395 1.613 . S
N396 C399 1.350 . S
N397 S395 1.610 . S
N397 C398 1.351 . S
C398 C392 1.428 . S
C398 N397 1.351 . S
C398 C399 1.434 . S
C399 C390 1.429 . S
C399 N396 1.350 . S
C399 C398 1.434 . S
C400 C401 1.369 . S
C400 C402 1.419 . S
C400 H404 0.930 . S
C401 C400 1.369 . S
C401 C410 1.429 . S
C402 C400 1.419 . S
C402 C403 1.363 . S
C402 H405 0.929 . S
C403 C402 1.363 . S
C403 C409 1.428 . S
H404 C400 0.930 . S
H405 C402 0.929 . S
S406 N407 1.613 . S
S406 N408 1.610 . S
N407 S406 1.613 . S
N407 C410 1.350 . S
N408 S406 1.610 . S
N408 C409 1.351 . S
C409 C403 1.428 . S
C409 N408 1.351 . S
C409 C410 1.434 . S
C410 C401 1.429 . S
C410 N407 1.350 . S
C410 C409 1.434 . S
C411 C412 1.369 . S
C411 C413 1.419 . S
C411 H415 0.930 . S
C412 C411 1.369 . S
C412 C421 1.429 . S
C413 C411 1.419 . S
C413 C414 1.363 . S
C413 H416 0.929 . S
C414 C413 1.363 . S
C414 C420 1.428 . S
H415 C411 0.930 . S
H416 C413 0.929 . S
S417 N418 1.613 . S
S417 N419 1.610 . S
N418 S417 1.613 . S
N418 C421 1.350 . S
N419 S417 1.610 . S
N419 C420 1.351 . S
C420 C414 1.428 . S
C420 N419 1.351 . S
C420 C421 1.434 . S
C421 C412 1.429 . S
C421 N418 1.350 . S
C421 C420 1.434 . S
C422 C423 1.369 . S
C422 C424 1.419 . S
C422 H426 0.930 . S
C423 C422 1.369 . S
C423 C432 1.429 . S
C424 C422 1.419 . S
C424 C425 1.363 . S
C424 H427 0.929 . S
C425 C424 1.363 . S
C425 C431 1.428 . S
H426 C422 0.930 . S
H427 C424 0.929 . S
S428 N429 1.613 . S
S428 N430 1.610 . S
N429 S428 1.613 . S
N429 C432 1.350 . S
N430 S428 1.610 . S
N430 C431 1.351 . S
C431 C425 1.428 . S
C431 N430 1.351 . S
C431 C432 1.434 . S
C432 C423 1.429 . S
C432 N429 1.350 . S
C432 C431 1.434 . S
C433 C434 1.369 . S
C433 C435 1.419 . S
C433 H437 0.930 . S
C434 C433 1.369 . S
C434 C443 1.429 . S
C435 C433 1.419 . S
C435 C436 1.363 . S
C435 H438 0.929 . S
C436 C435 1.363 . S
C436 C442 1.428 . S
H437 C433 0.930 . S
H438 C435 0.929 . S
S439 N440 1.613 . S
S439 N441 1.610 . S
N440 S439 1.613 . S
N440 C443 1.350 . S
N441 S439 1.610 . S
N441 C442 1.351 . S
C442 C436 1.428 . S
C442 N441 1.351 . S
C442 C443 1.434 . S
C443 C434 1.429 . S
C443 N440 1.350 . S
C443 C442 1.434 . S
C444 C445 1.369 . S
C444 C446 1.419 . S
C444 H448 0.930 . S
C445 C444 1.369 . S
C445 C454 1.429 1_455 S
C446 C444 1.419 . S
C446 C447 1.363 . S
C446 H449 0.929 . S
C447 C446 1.363 . S
C447 C453 1.428 1_455 S
H448 C444 0.930 . S
H449 C446 0.929 . S
S450 N451 1.613 . S
S450 N452 1.610 . S
N451 S450 1.613 . S
N451 C454 1.350 . S
N452 S450 1.610 . S
N452 C453 1.351 . S
C453 C447 1.428 1_655 S
C453 N452 1.351 . S
C453 C454 1.434 . S
C454 C445 1.429 1_655 S
C454 N451 1.350 . S
C454 C453 1.434 . S
C455 C456 1.369 1_565 S
C455 C457 1.419 . S
C455 H459 0.930 . S
C456 C455 1.369 1_545 S
C456 C465 1.429 . S
C457 C455 1.419 . S
C457 C458 1.363 1_565 S
C457 H460 0.929 . S
C458 C457 1.363 1_545 S
C458 C464 1.428 . S
H459 C455 0.930 . S
H460 C457 0.929 . S
S461 N462 1.613 . S
S461 N463 1.610 . S
N462 S461 1.613 . S
N462 C465 1.350 . S
N463 S461 1.610 . S
N463 C464 1.351 . S
C464 C458 1.428 . S
C464 N463 1.351 . S
C464 C465 1.434 . S
C465 C456 1.429 . S
C465 N462 1.350 . S
C465 C464 1.434 . S
C466 C467 1.369 . S
C466 C468 1.419 . S
C466 H470 0.930 . S
C467 C466 1.369 . S
C467 C476 1.429 . S
C468 C466 1.419 . S
C468 C469 1.363 . S
C468 H471 0.929 . S
C469 C468 1.363 . S
C469 C475 1.428 . S
H470 C466 0.930 . S
H471 C468 0.929 . S
S472 N473 1.613 . S
S472 N474 1.610 . S
N473 S472 1.613 . S
N473 C476 1.350 . S
N474 S472 1.610 . S
N474 C475 1.351 . S
C475 C469 1.428 . S
C475 N474 1.351 . S
C475 C476 1.434 . S
C476 C467 1.429 . S
C476 N473 1.350 . S
C476 C475 1.434 . S
C477 C478 1.369 . S
C477 C479 1.419 . S
C477 H481 0.930 . S
C478 C477 1.369 . S
C478 C487 1.429 1_545 S
C479 C477 1.419 . S
C479 C480 1.363 1_545 S
C479 H482 0.929 . S
C480 C479 1.363 1_565 S
C480 C486 1.428 . S
H481 C477 0.930 . S
H482 C479 0.929 . S
S483 N484 1.613 . S
S483 N485 1.610 . S
N484 S483 1.613 . S
N484 C487 1.350 . S
N485 S483 1.610 . S
N485 C486 1.351 . S
C486 C480 1.428 . S
C486 N485 1.351 . S
C486 C487 1.434 . S
C487 C478 1.429 1_565 S
C487 N484 1.350 . S
C487 C486 1.434 . S
C488 C489 1.369 . S
C488 C490 1.419 . S
C488 H492 0.930 . S
C489 C488 1.369 . S
C489 C498 1.429 . S
C490 C488 1.419 . S
C490 C491 1.363 . S
C490 H493 0.929 . S
C491 C490 1.363 . S
C491 C497 1.428 . S
H492 C488 0.930 . S
H493 C490 0.929 . S
S494 N495 1.613 . S
S494 N496 1.610 . S
N495 S494 1.613 . S
N495 C498 1.350 . S
N496 S494 1.610 . S
N496 C497 1.351 . S
C497 C491 1.428 . S
C497 N496 1.351 . S
C497 C498 1.434 . S
C498 C489 1.429 . S
C498 N495 1.350 . S
C498 C497 1.434 . S
C499 C500 1.369 1_655 S
C499 C501 1.419 . S
C499 H503 0.930 . S
C500 C499 1.369 1_455 S
C500 C509 1.429 . S
C501 C499 1.419 . S
C501 C502 1.363 1_655 S
C501 H504 0.929 . S
C502 C501 1.363 1_455 S
C502 C508 1.428 . S
H503 C499 0.930 . S
H504 C501 0.929 . S
S505 N506 1.613 . S
S505 N507 1.610 . S
N506 S505 1.613 . S
N506 C509 1.350 . S
N507 S505 1.610 . S
N507 C508 1.351 . S
C508 C502 1.428 . S
C508 N507 1.351 . S
C508 C509 1.434 . S
C509 C500 1.429 . S
C509 N506 1.350 . S
C509 C508 1.434 . S
C313 C6 0.908 . S
C315 C303 1.038 . S
C324 C59 1.968 . S
C326 C239 1.905 . S
C335 C86 1.394 . S
C337 C271 1.374 . S
C346 C15 0.741 . S
C348 C297 0.727 . S
C359 C233 1.959 . S
C357 C50 2.043 . S
C370 C265 1.379 . S
C368 C95 1.351 . S
C379 C46 1.312 . S
C381 C175 1.352 . S
C390 C99 3.113 . S
C392 C207 3.034 . S
C401 C10 2.079 . S
C403 C137 1.995 . S
C414 C169 1.391 . S
C412 C55 1.358 . S
C425 C201 3.039 . S
C423 C90 3.075 . S
C434 C19 1.973 . S
C436 C143 1.937 . S
C447 C213 1.763 1_554 S
C445 C18 1.730 . S
C456 C49 1.326 . S
C458 C149 1.341 . S
C467 C98 1.446 . S
C469 C181 1.480 . S
C480 C277 1.440 1_565 S
C478 C58 1.441 . S
C491 C309 1.061 . S
C489 C89 1.059 . S
C500 C9 1.310 . S
C502 C245 1.317 . S
