# Generated by pormake.
# Topology pyr, (3,6)-cn, num edge types: 1
# Building blocks:
#     Node 0, Type 0, BuildingBlock: INOVEN_clean_linker_0, # of connection points: 3
#     Node 1, Type 0, BuildingBlock: INOVEN_clean_linker_0, # of connection points: 3
#     Node 2, Type 0, BuildingBlock: INOVEN_clean_linker_0, # of connection points: 3
#     Node 3, Type 0, BuildingBlock: INOVEN_clean_linker_0, # of connection points: 3
#     Node 4, Type 0, BuildingBlock: INOVEN_clean_linker_0, # of connection points: 3
#     Node 5, Type 0, BuildingBlock: INOVEN_clean_linker_0, # of connection points: 3
#     Node 6, Type 0, BuildingBlock: INOVEN_clean_linker_0, # of connection points: 3
#     Node 7, Type 0, BuildingBlock: INOVEN_clean_linker_0, # of connection points: 3
#     Node 8, Type 1, BuildingBlock: VOLQOD_clean_sbu_1, # of connection points: 6
#     Node 9, Type 1, BuildingBlock: VOLQOD_clean_sbu_1, # of connection points: 6
#     Node 10, Type 1, BuildingBlock: VOLQOD_clean_sbu_1, # of connection points: 6
#     Node 11, Type 1, BuildingBlock: VOLQOD_clean_sbu_1, # of connection points: 6
#     Edge 12, Type (0, 1), BuildingBlock: XIVTED_clean_linker_0, # of connection points: 2
#     Edge 13, Type (0, 1), BuildingBlock: XIVTED_clean_linker_0, # of connection points: 2
#     Edge 14, Type (0, 1), BuildingBlock: XIVTED_clean_linker_0, # of connection points: 2
#     Edge 15, Type (0, 1), BuildingBlock: XIVTED_clean_linker_0, # of connection points: 2
#     Edge 16, Type (0, 1), BuildingBlock: XIVTED_clean_linker_0, # of connection points: 2
#     Edge 17, Type (0, 1), BuildingBlock: XIVTED_clean_linker_0, # of connection points: 2
#     Edge 18, Type (0, 1), BuildingBlock: XIVTED_clean_linker_0, # of connection points: 2
#     Edge 19, Type (0, 1), BuildingBlock: XIVTED_clean_linker_0, # of connection points: 2
#     Edge 20, Type (0, 1), BuildingBlock: XIVTED_clean_linker_0, # of connection points: 2
#     Edge 21, Type (0, 1), BuildingBlock: XIVTED_clean_linker_0, # of connection points: 2
#     Edge 22, Type (0, 1), BuildingBlock: XIVTED_clean_linker_0, # of connection points: 2
#     Edge 23, Type (0, 1), BuildingBlock: XIVTED_clean_linker_0, # of connection points: 2
#     Edge 24, Type (0, 1), BuildingBlock: XIVTED_clean_linker_0, # of connection points: 2
#     Edge 25, Type (0, 1), BuildingBlock: XIVTED_clean_linker_0, # of connection points: 2
#     Edge 26, Type (0, 1), BuildingBlock: XIVTED_clean_linker_0, # of connection points: 2
#     Edge 27, Type (0, 1), BuildingBlock: XIVTED_clean_linker_0, # of connection points: 2
#     Edge 28, Type (0, 1), BuildingBlock: XIVTED_clean_linker_0, # of connection points: 2
#     Edge 29, Type (0, 1), BuildingBlock: XIVTED_clean_linker_0, # of connection points: 2
#     Edge 30, Type (0, 1), BuildingBlock: XIVTED_clean_linker_0, # of connection points: 2
#     Edge 31, Type (0, 1), BuildingBlock: XIVTED_clean_linker_0, # of connection points: 2
#     Edge 32, Type (0, 1), BuildingBlock: XIVTED_clean_linker_0, # of connection points: 2
#     Edge 33, Type (0, 1), BuildingBlock: XIVTED_clean_linker_0, # of connection points: 2
#     Edge 34, Type (0, 1), BuildingBlock: XIVTED_clean_linker_0, # of connection points: 2
#     Edge 35, Type (0, 1), BuildingBlock: XIVTED_clean_linker_0, # of connection points: 2
# Relax obj value: 0.101
# Max RMSD: 0.185
# Mean RMSD: 0.145
data_MOF--net-pry--node1-VOLQOD_clean_sbu_1--node2-INOVEN_clean_linker_0--edge1-XIVTED_clean_linker_0
_symmetry_space_group_name_H-M    P1
_symmetry_Int_Tables_number       1
_symmetry_cell_setting            triclinic
loop_
_symmetry_equiv_pos_as_xyz
'x, y, z'
_cell_length_a     36.051041
_cell_length_b     36.782454
_cell_length_c     38.355893
_cell_angle_alpha  90.783114
_cell_angle_beta   90.914024
_cell_angle_gamma 96.122694
loop_
_atom_site_label
_atom_site_type_symbol
_atom_site_fract_x
_atom_site_fract_y
_atom_site_fract_z
_atom_type_partial_charge
H0 H 0.0803 0.16516 0.18608 0.0
H1 H 0.16935 0.09648 0.19717 0.0
H2 H 0.16693 0.16981 0.11092 0.0
N3 N 0.10492 0.19956 0.1313 0.0
N4 N 0.11841 0.21657 0.10574 0.0
C5 C 0.106 0.15557 0.17733 0.0
C6 C 0.12313 0.12933 0.1964 0.0
C7 C 0.1218 0.17054 0.14703 0.0
C8 C 0.15447 0.15789 0.13418 0.0
C9 C 0.17152 0.13052 0.1518 0.0
C10 C 0.15582 0.1168 0.18309 0.0
H11 H 0.38695 0.87027 0.61484 0.0
H12 H 0.45091 0.86464 0.71002 0.0
H13 H 0.38456 0.95392 0.69304 0.0
N14 N 0.35461 0.92771 0.6315 0.0
N15 N 0.34154 0.95679 0.63915 0.0
C16 C 0.39644 0.88154 0.64008 0.0
C17 C 0.42116 0.86362 0.66072 0.0
C18 C 0.38291 0.9136 0.65172 0.0
C19 C 0.39496 0.92889 0.68421 0.0
C20 C 0.41968 0.91157 0.70558 0.0
C21 C 0.43289 0.87896 0.69343 0.0
H22 H 0.53818 0.39673 0.9359 0.0
H23 H 0.63191 0.38753 0.005 0.0
H24 H 0.63406 0.47593 0.93269 0.0
N25 N 0.56775 0.45311 0.90192 0.0
N26 N 0.58451 0.47836 0.88507 0.0
C27 C 0.56534 0.40725 0.94644 0.0
C28 C 0.58277 0.38798 0.97226 0.0
C29 C 0.58366 0.43877 0.93212 0.0
C30 C 0.61926 0.4524 0.94486 0.0
C31 C 0.63682 0.43429 0.9715 0.0
C32 C 0.61811 0.40229 0.98527 0.0
H33 H 0.86268 0.57728 0.40584 0.0
H34 H 0.85556 0.67118 0.47301 0.0
H35 H 0.94316 0.67175 0.3988 0.0
N36 N 0.9189 0.60634 0.369 0.0
N37 N 0.94487 0.62266 0.35232 0.0
C38 C 0.87367 0.60422 0.41536 0.0
C39 C 0.85563 0.62148 0.44225 0.0
C40 C 0.90505 0.62215 0.39946 0.0
C41 C 0.91943 0.65722 0.41143 0.0
C42 C 0.90164 0.67484 0.43797 0.0
C43 C 0.8699 0.65688 0.45331 0.0
H44 H 0.89575 0.97313 0.87086 0.0
H45 H 0.96906 0.8883 0.8627 0.0
H46 H 0.90019 0.89506 0.95247 0.0
N47 N 0.86668 0.95337 0.93045 0.0
N48 N 0.84995 0.93922 0.95593 0.0
C49 C 0.90828 0.95023 0.8818 0.0
C50 C 0.93425 0.93263 0.86259 0.0
C51 C 0.89601 0.93703 0.91413 0.0
C52 C 0.91045 0.9061 0.92798 0.0
C53 C 0.93657 0.88814 0.90936 0.0
C54 C 0.94865 0.9019 0.87694 0.0
H55 H 0.55981 0.13531 0.38955 0.0
H56 H 0.65311 0.072 0.38848 0.0
H57 H 0.63443 0.13934 0.47814 0.0
N58 N 0.57487 0.16812 0.44932 0.0
N59 N 0.58258 0.18351 0.4781 0.0
C60 C 0.58368 0.12563 0.40265 0.0
C61 C 0.60463 0.10112 0.38551 0.0
C62 C 0.59447 0.13982 0.43567 0.0
C63 C 0.62612 0.12841 0.45251 0.0
C64 C 0.64741 0.10349 0.43584 0.0
C65 C 0.63644 0.09022 0.4022 0.0
H66 H 0.47071 0.65495 0.15224 0.0
H67 H 0.38733 0.66324 0.0725 0.0
H68 H 0.37327 0.57683 0.147 0.0
N69 N 0.43585 0.6008 0.18485 0.0
N70 N 0.42017 0.57349 0.19958 0.0
C71 C 0.44545 0.64367 0.13853 0.0
C72 C 0.43209 0.66214 0.11009 0.0
C73 C 0.42478 0.61277 0.15175 0.0
C74 C 0.39061 0.5993 0.13559 0.0
C75 C 0.37703 0.61759 0.10688 0.0
C76 C 0.39852 0.64824 0.09369 0.0
H77 H 0.02178 0.41297 0.61455 0.0
H78 H 0.1198 0.39875 0.55488 0.0
H79 H 0.11857 0.49154 0.62311 0.0
N80 N 0.05164 0.47004 0.65081 0.0
N81 N 0.06975 0.49456 0.66873 0.0
C82 C 0.04938 0.42293 0.60576 0.0
C83 C 0.06792 0.4022 0.58177 0.0
C84 C 0.0675 0.45488 0.62104 0.0
C85 C 0.10381 0.46741 0.61077 0.0
C86 C 0.12245 0.44744 0.58659 0.0
C87 C 0.10425 0.41526 0.57174 0.0
O88 O 0.99219 0.11397 0.55797 0.0
Zn89 Zn 0.97209 0.06097 0.55518 0.0
O90 O 0.00198 0.03448 0.52334 0.0
Zn91 Zn 0.97234 0.01868 0.4816 0.0
Zn92 Zn 0.04636 0.06589 0.50977 0.0
Zn93 Zn 0.01794 0.99228 0.54691 0.0
O94 O 0.96611 0.96365 0.47735 0.0
O95 O -0.00087 0.94564 0.52209 0.0
O96 O 0.91917 0.06037 0.53686 0.0
O97 O 0.92059 0.03422 0.48439 0.0
O98 O 0.9972 0.03858 0.43762 0.0
O99 O 0.05224 0.06426 0.45764 0.0
O100 O 0.09364 0.05039 0.53148 0.0
O101 O 0.97091 0.03957 0.60371 0.0
O102 O 0.07363 0.99497 0.55015 0.0
O103 O -0.00048 0.98959 0.59609 0.0
C104 C 0.01888 0.13293 0.54313 0.0
C105 C 0.97859 0.93842 0.49509 0.0
C106 C 0.02988 0.05426 0.43245 0.0
C107 C 0.90319 0.04965 0.50811 0.0
C108 C 0.09994 0.02006 0.5448 0.0
C109 C 0.98231 0.01038 0.61545 0.0
O110 O 0.04139 0.11817 0.52348 0.0
O111 O 0.49395 0.10455 0.00994 0.0
Zn112 Zn 0.4723 0.05182 0.01362 0.0
O113 O 0.50574 0.02571 0.04292 0.0
Zn114 Zn 0.52251 0.986 0.01574 0.0
Zn115 Zn 0.55007 0.05778 0.05865 0.0
Zn116 Zn 0.47864 0.00589 0.0834 0.0
O117 O 0.5039 0.93769 0.03494 0.0
O118 O 0.47387 0.95074 0.08282 0.0
O119 O 0.46569 0.02935 0.96453 0.0
O120 O 0.5046 0.98649 0.96629 0.0
O121 O 0.578 0.98794 0.01574 0.0
O122 O 0.59849 0.04127 0.0406 0.0
O123 O 0.55473 0.05888 0.11119 0.0
O124 O 0.42165 0.0532 0.0361 0.0
O125 O 0.50522 0.02276 0.12807 0.0
O126 O 0.42759 0.02321 0.08538 0.0
C127 C 0.52223 0.12341 0.02383 0.0
C128 C 0.48549 0.9276 0.06173 0.0
C129 C 0.60463 0.01154 0.02539 0.0
C130 C 0.48166 0.00409 0.94967 0.0
C131 C 0.53491 0.04362 0.1352 0.0
C132 C 0.40858 0.04145 0.06504 0.0
O133 O 0.54544 0.10896 0.04324 0.0
O134 O 0.53855 0.54323 0.62041 0.0
Zn135 Zn 0.53441 0.55983 0.57083 0.0
O136 O 0.49795 0.52641 0.5444 0.0
Zn137 Zn 0.52137 0.50381 0.50564 0.0
Zn138 Zn 0.47582 0.48785 0.57474 0.0
Zn139 Zn 0.45968 0.5542 0.52525 0.0
O140 O 0.49832 0.51447 0.45939 0.0
O141 O 0.46154 0.55703 0.473 0.0
O142 O 0.58525 0.56211 0.5488 0.0
O143 O 0.57545 0.52276 0.50424 0.0
O144 O 0.51807 0.44953 0.51012 0.0
O145 O 0.49011 0.43785 0.56052 0.0
O146 O 0.41965 0.48557 0.57288 0.0
O147 O 0.51774 0.61073 0.57501 0.0
O148 O 0.40908 0.52989 0.53635 0.0
O149 O 0.46376 0.60499 0.54583 0.0
C150 C 0.51925 0.5194 0.63826 0.0
C151 C 0.47638 0.53769 0.45044 0.0
C152 C 0.50595 0.42716 0.53335 0.0
C153 C 0.59705 0.54546 0.52247 0.0
C154 C 0.39729 0.50358 0.55583 0.0
C155 C 0.48829 0.62394 0.56462 0.0
O156 O 0.49335 0.49748 0.62426 0.0
O157 O 0.98504 0.53233 0.09323 0.0
Zn158 Zn 0.98247 0.51139 0.04443 0.0
O159 O 0.00956 0.54562 0.01278 0.0
Zn160 Zn 0.97565 0.55923 0.97648 0.0
Zn161 Zn 0.03069 0.59014 0.03792 0.0
Zn162 Zn 0.04932 0.52149 0.9914 0.0
O163 O 0.99076 0.54304 0.92908 0.0
O164 O 0.04634 0.52395 0.93913 0.0
O165 O 0.92798 0.5024 0.03063 0.0
O166 O 0.92306 0.53832 0.98505 0.0
O167 O 0.97639 0.6136 0.97396 0.0
O168 O 0.01487 0.63663 0.01629 0.0
O169 O 0.08689 0.59304 0.03911 0.0
O170 O 0.00375 0.46267 0.04523 0.0
O171 O 0.0994 0.54473 0.00782 0.0
O172 O 0.04772 0.46872 0.00531 0.0
C173 C 0.99812 0.56306 0.10652 0.0
C174 C 0.02063 0.53158 0.91816 0.0
C175 C 0.99289 0.64095 0.99065 0.0
C176 C 0.90841 0.51579 0.00707 0.0
C177 C 0.11012 0.57278 0.02657 0.0
C178 C 0.02912 0.44956 0.02774 0.0
O179 O 0.01507 0.58796 0.08808 0.0
H180 H 0.08391 0.16661 0.24414 0.0
H181 H 0.0976 0.04531 0.40504 0.0
H182 H 0.12677 0.0622 0.22813 0.0
H183 H 0.99042 0.08037 0.37866 0.0
H184 H 0.11882 0.06058 0.34581 0.0
H185 H 0.05834 0.14487 0.29929 0.0
C186 C 0.08769 0.13899 0.25164 0.0
C187 C 0.10748 0.11623 0.2306 0.0
C188 C 0.09061 0.06461 0.35306 0.0
C189 C 0.07965 0.09221 0.29516 0.0
C190 C 0.07857 0.05612 0.38671 0.0
C191 C 0.04223 0.06157 0.39652 0.0
C192 C 0.06655 0.07984 0.32968 0.0
C193 C 0.01856 0.0756 0.37191 0.0
C194 C 0.07326 0.12685 0.28344 0.0
C195 C 0.11248 0.08124 0.24327 0.0
N196 N 0.03136 0.08492 0.33971 0.0
N197 N 0.09909 0.07049 0.27492 0.0
H198 H 0.48746 0.914 0.74016 0.0
H199 H 0.42274 0.02074 0.90838 0.0
H200 H 0.37557 0.94361 0.75237 0.0
H201 H 0.52154 0.96397 0.90651 0.0
H202 H 0.40826 -0.00014 0.84817 0.0
H203 H 0.50338 0.93857 0.79869 0.0
C204 C 0.46619 0.92553 0.75509 0.0
C205 C 0.43012 0.92673 0.74108 0.0
C206 C 0.43315 0.99211 0.861 0.0
C207 C 0.44841 0.95553 0.808 0.0
C208 C 0.44151 0.00416 0.89528 0.0
C209 C 0.47327 0.99393 0.91263 0.0
C210 C 0.45696 0.97006 0.84386 0.0
C211 C 0.49657 0.9723 0.89433 0.0
C212 C 0.47538 0.93975 0.78846 0.0
C213 C 0.40395 0.94263 0.76163 0.0
N214 N 0.48796 0.96113 0.86102 0.0
N215 N 0.41362 0.95642 0.79396 0.0
H216 H 0.51858 0.45319 0.85291 0.0
H217 H 0.57445 0.55871 0.67739 0.0
H218 H 0.61782 0.52866 0.84373 0.0
H219 H 0.48105 0.47553 0.68566 0.0
H220 H 0.58694 0.55363 0.73984 0.0
H221 H 0.49999 0.46744 0.79365 0.0
C222 C 0.53621 0.4732 0.83853 0.0
C223 C 0.57 0.48977 0.85294 0.0
C224 C 0.56363 0.53662 0.72798 0.0
C225 C 0.54913 0.50576 0.78499 0.0
C226 C 0.5565 0.53944 0.6923 0.0
C227 C 0.52683 0.51728 0.67614 0.0
C228 C 0.5409 0.5115 0.74765 0.0
C229 C 0.50441 0.49296 0.69687 0.0
C230 C 0.52566 0.48122 0.80463 0.0
C231 C 0.59166 0.51546 0.83327 0.0
N232 N 0.512 0.49065 0.73149 0.0
N233 N 0.58108 0.52248 0.80008 0.0
H234 H 0.91833 0.55951 0.31778 0.0
H235 H 0.02803 0.62209 0.14581 0.0
H236 H 0.99761 0.65557 0.31314 0.0
H237 H 0.95808 0.51967 0.15332 0.0
H238 H 0.01907 0.63353 0.20772 0.0
H239 H 0.93488 0.54256 0.25856 0.0
C240 C 0.93963 0.57675 0.30441 0.0
C241 C 0.95675 0.60912 0.32007 0.0
C242 C 0.00582 0.60846 0.19588 0.0
C243 C 0.97534 0.59022 0.25235 0.0
C244 C 0.01081 0.60196 0.16046 0.0
C245 C 0.99358 0.56997 0.14422 0.0
C246 C 0.98323 0.58293 0.21525 0.0
C247 C 0.97181 0.54478 0.16466 0.0
C248 C 0.94901 0.56714 0.27059 0.0
C249 C 0.984 0.63047 0.30169 0.0
N250 N 0.96707 0.55191 0.19906 0.0
N251 N 0.99227 0.62087 0.26864 0.0
H252 H 0.18951 0.11867 0.08326 0.0
H253 H 0.37806 0.03245 0.12964 0.0
H254 H 0.23255 0.11069 0.18832 0.0
H255 H 0.35544 0.07376 0.02749 0.0
H256 H 0.32004 0.05315 0.15008 0.0
H257 H 0.24607 0.09581 0.06117 0.0
C258 C 0.21082 0.11235 0.10174 0.0
C259 C 0.20596 0.11667 0.13784 0.0
C260 C 0.3277 0.0576 0.12316 0.0
C261 C 0.27051 0.0896 0.11254 0.0
C262 C 0.36078 0.04558 0.11135 0.0
C263 C 0.37184 0.05143 0.07673 0.0
C264 C 0.30513 0.07533 0.1002 0.0
C265 C 0.34816 0.06876 0.0544 0.0
C266 C 0.24303 0.09908 0.08904 0.0
C267 C 0.23445 0.10724 0.16037 0.0
N268 N 0.31591 0.08008 0.06651 0.0
N269 N 0.26533 0.09408 0.14737 0.0
H270 H 0.29921 0.91828 0.58902 0.0
H271 H 0.15938 0.07036 0.56268 0.0
H272 H 0.31348 0.0207 0.64623 0.0
H273 H 0.12784 0.95446 0.54895 0.0
H274 H 0.22195 0.05723 0.58202 0.0
H275 H 0.24248 0.93641 0.56191 0.0
C276 C 0.29067 0.94486 0.59551 0.0
C277 C 0.31089 0.96817 0.62002 0.0
C278 C 0.20127 0.03482 0.57455 0.0
C279 C 0.24595 0.98888 0.5891 0.0
C280 C 0.16574 0.04225 0.56342 0.0
C281 C 0.1384 0.01341 0.55447 0.0
C282 C 0.20952 -0.00159 0.57593 0.0
C283 C 0.14797 0.97748 0.55595 0.0
C284 C 0.25819 0.95509 0.58014 0.0
C285 C 0.29845 0.00215 0.62747 0.0
N286 N 0.18274 0.97103 0.5664 0.0
N287 N 0.2666 0.01157 0.61214 0.0
H288 H 0.69311 0.39214 0.98793 0.0
H289 H 0.85515 0.55295 0.97663 0.0
H290 H 0.67066 0.50475 0.97869 0.0
H291 H 0.86923 0.45455 0.03323 0.0
H292 H 0.78809 0.53421 0.97229 0.0
H293 H 0.75833 0.41295 0.00089 0.0
C294 C 0.70158 0.42126 0.98922 0.0
C295 C 0.67606 0.44671 0.98218 0.0
C296 C 0.80586 0.51689 0.98586 0.0
C297 C 0.75124 0.4705 0.99583 0.0
C298 C 0.84412 0.52741 0.98816 0.0
C299 C 0.86778 0.50516 0.00518 0.0
C300 C 0.79126 0.48356 9e-05 0.0
C301 C 0.85196 0.47251 0.0199 0.0
C302 C 0.73898 0.43306 0.99639 0.0
C303 C 0.68931 0.48407 0.98331 0.0
N304 N 0.81466 0.46245 0.01667 0.0
N305 N 0.72606 0.49482 0.98959 0.0
H306 H 0.83206 0.62256 0.51001 0.0
H307 H 0.62965 0.52127 0.4639 0.0
H308 H 0.7975 0.58208 0.40704 0.0
H309 H 0.65454 0.58619 0.55773 0.0
H310 H 0.69418 0.53505 0.44629 0.0
H311 H 0.77015 0.60095 0.53134 0.0
C312 C 0.81157 0.60895 0.49191 0.0
C313 C 0.81998 0.60443 0.45657 0.0
C314 C 0.68556 0.5462 0.47078 0.0
C315 C 0.74927 0.57935 0.48095 0.0
C316 C 0.64869 0.53832 0.48092 0.0
C317 C 0.63652 0.55283 0.51227 0.0
C318 C 0.71062 0.56858 0.49217 0.0
C319 C 0.6626 0.57465 0.53323 0.0
C320 C 0.77629 0.59658 0.50415 0.0
C321 C 0.79254 0.5859 0.43453 0.0
N322 N 0.69844 0.58193 0.52276 0.0
N323 N 0.75838 0.57423 0.44705 0.0
H324 H 0.055 0.24405 0.12715 0.0
H325 H 0.08356 0.41331 0.99779 0.0
H326 H 0.14376 0.25792 0.05297 0.0
H327 H 0.99735 0.40061 0.07492 0.0
H328 H 0.1027 0.35401 0.01395 0.0
H329 H 0.03036 0.29865 0.10481 0.0
C330 C 0.06917 0.25848 0.10594 0.0
C331 C 0.10165 0.24665 0.09182 0.0
C332 C 0.07944 0.36409 0.02718 0.0
C333 C 0.07361 0.30936 0.06627 0.0
C334 C 0.06842 0.39798 0.01793 0.0
C335 C 0.0389 0.41221 0.03516 0.0
C336 C 0.06089 0.34418 0.0539 0.0
C337 C 0.02035 0.39091 0.061 0.0
C338 C 0.05509 0.28971 0.0932 0.0
C339 C 0.11873 0.26635 0.06441 0.0
N340 N 0.03179 0.35812 0.06969 0.0
N341 N 0.10467 0.29689 0.0526 0.0
H342 H 0.54524 0.33488 0.93021 0.0
H343 H 0.56656 0.17499 0.0617 0.0
H344 H 0.58429 0.35531 0.03653 0.0
H345 H 0.49033 0.16257 0.9733 0.0
H346 H 0.57593 0.24072 0.0517 0.0
H347 H 0.5259 0.27166 0.9447 0.0
C348 C 0.54907 0.32643 0.95684 0.0
C349 C 0.56661 0.35071 0.98217 0.0
C350 C 0.55696 0.22362 0.03465 0.0
C351 C 0.5456 0.27764 0.99848 0.0
C352 C 0.55182 0.18607 0.04015 0.0
C353 C 0.52783 0.16322 0.01812 0.0
C354 C 0.53845 0.23838 0.00661 0.0
C355 C 0.50915 0.17916 0.99086 0.0
C356 C 0.53826 0.29011 0.96497 0.0
C357 C 0.57159 0.33753 0.01595 0.0
N358 N 0.51514 0.21576 0.98565 0.0
N359 N 0.56158 0.30176 0.02301 0.0
H360 H 0.97179 0.70502 0.45685 0.0
H361 H 0.91993 0.91006 0.4535 0.0
H362 H 0.8596 0.73198 0.43897 0.0
H363 H 0.01353 0.87897 0.51355 0.0
H364 H 0.90161 0.84551 0.43928 0.0
H365 H 0.99175 0.76983 0.46983 0.0
C366 C 0.95144 0.72465 0.45578 0.0
C367 C 0.91402 0.71336 0.44717 0.0
C368 C 0.92617 0.85292 0.45553 0.0
C369 C 0.93656 0.78702 0.46127 0.0
C370 C 0.93676 0.8897 0.46348 0.0
C371 C 0.9682 0.89983 0.48484 0.0
C372 C 0.94752 0.82621 0.46858 0.0
C373 C 0.98894 0.8723 0.49719 0.0
C374 C 0.96276 0.76144 0.46321 0.0
C375 C 0.88862 0.73966 0.44598 0.0
N376 N 0.9783 0.83669 0.48877 0.0
N377 N 0.9004 0.77537 0.45274 0.0
H378 H 0.49057 0.83846 0.66569 0.0
H379 H 0.42677 0.65897 0.55041 0.0
H380 H 0.37812 0.80732 0.62778 0.0
H381 H 0.5321 0.67317 0.60682 0.0
H382 H 0.41174 0.71707 0.57423 0.0
H383 H 0.50889 0.78081 0.64168 0.0
C384 C 0.46971 0.81949 0.65253 0.0
C385 C 0.43285 0.82806 0.64835 0.0
C386 C 0.4382 0.7076 0.58141 0.0
C387 C 0.45371 0.7625 0.62047 0.0
C388 C 0.44693 0.67439 0.56763 0.0
C389 C 0.48073 0.66092 0.57669 0.0
C390 C 0.46341 0.72783 0.60443 0.0
C391 C 0.50568 0.6824 0.59915 0.0
C392 C 0.48024 0.78673 0.63868 0.0
C393 C 0.40706 0.80247 0.63091 0.0
N394 N 0.49649 0.71478 0.61233 0.0
N395 N 0.41802 0.7711 0.61752 0.0
H396 H 0.9458 0.88966 0.80546 0.0
H397 H 0.95822 0.05216 0.66894 0.0
H398 H 0.94392 0.00269 0.83686 0.0
H399 H 0.99141 0.94513 0.64602 0.0
H400 H 0.94813 0.03407 0.72964 0.0
H401 H 0.95869 0.90913 0.74609 0.0
C402 C 0.9486 0.91864 0.8001 0.0
C403 C 0.94393 0.94453 0.82652 0.0
C404 C 0.95771 0.01464 0.71128 0.0
C405 C 0.95769 0.96696 0.75791 0.0
C406 C 0.96333 0.02487 0.6766 0.0
C407 C 0.97568 0.00014 0.65228 0.0
C408 C 0.96408 0.97929 0.72159 0.0
C409 C 0.98197 0.96518 0.66379 0.0
C410 C 0.95567 0.92971 0.766 0.0
C411 C 0.94684 0.98164 0.81741 0.0
N412 N 0.97594 0.95579 0.69751 0.0
N413 N 0.95336 0.99173 0.78387 0.0
H414 H 0.53583 0.07523 0.359 0.0
H415 H 0.60149 0.077 0.16123 0.0
H416 H 0.65057 0.10037 0.32951 0.0
H417 H 0.49439 0.02575 0.19346 0.0
H418 H 0.61922 0.08859 0.22248 0.0
H419 H 0.51922 0.05946 0.29811 0.0
C420 C 0.55752 0.07726 0.33968 0.0
C421 C 0.5946 0.08906 0.34924 0.0
C422 C 0.5919 0.07467 0.21612 0.0
C423 C 0.57585 0.07136 0.27961 0.0
C424 C 0.58169 0.06817 0.18115 0.0
C425 C 0.54635 0.05043 0.17215 0.0
C426 C 0.56646 0.06372 0.24229 0.0
C427 C 0.52194 0.03947 0.19914 0.0
C428 C 0.54808 0.06816 0.30499 0.0
C429 C 0.6217 0.09102 0.32327 0.0
N430 N 0.53238 0.04648 0.23296 0.0
N431 N 0.61174 0.08253 0.28958 0.0
H432 H 0.40771 0.50951 0.23237 0.0
H433 H 0.45555 0.59839 0.41882 0.0
H434 H 0.45373 0.6219 0.24691 0.0
H435 H 0.47754 0.48725 0.39743 0.0
H436 H 0.44217 0.60578 0.35674 0.0
H437 H 0.42177 0.49866 0.29445 0.0
C438 C 0.42098 0.53166 0.24859 0.0
C439 C 0.42999 0.56635 0.23461 0.0
C440 C 0.44993 0.57979 0.36572 0.0
C441 C 0.44493 0.55474 0.3049 0.0
C442 C 0.45741 0.57552 0.40106 0.0
C443 C 0.46787 0.54225 0.41315 0.0
C444 C 0.45212 0.55036 0.34245 0.0
C445 C 0.4699 0.51346 0.38902 0.0
C446 C 0.42896 0.52554 0.28374 0.0
C447 C 0.44679 0.59454 0.25654 0.0
N448 N 0.46181 0.51807 0.35471 0.0
N449 N 0.45337 0.58818 0.29066 0.0
H450 H 0.00219 0.47633 0.69892 0.0
H451 H 0.08666 0.53362 0.8843 0.0
H452 H 0.10936 0.5393 0.71269 0.0
H453 H 0.96751 0.52353 0.86594 0.0
H454 H 0.0958 0.53029 0.82144 0.0
H455 H 0.98805 0.48958 0.75991 0.0
C456 C 0.02239 0.49355 0.71463 0.0
C457 C 0.05716 0.50678 0.70115 0.0
C458 C 0.06767 0.529 0.83119 0.0
C459 C 0.0416 0.52104 0.77056 0.0
C460 C 0.06242 0.53053 0.86703 0.0
C461 C 0.02628 0.52869 0.88029 0.0
C462 C 0.03655 0.52485 0.80847 0.0
C463 C 0.99585 0.52507 0.85671 0.0
C464 C 0.01436 0.50102 0.74935 0.0
C465 C 0.08236 0.5288 0.72244 0.0
N466 N 0.00165 0.52287 0.82184 0.0
N467 N 0.07442 0.53477 0.75635 0.0
H468 H 0.82533 0.00579 0.94357 0.0
H469 H 0.62934 0.94449 0.02333 0.0
H470 H 0.804 0.90658 0.00174 0.0
H471 H 0.66752 0.05914 0.01424 0.0
H472 H 0.69219 0.92958 0.01117 0.0
H473 H 0.76718 0.02618 0.96545 0.0
C474 C 0.80857 0.98851 0.96126 0.0
C475 C 0.81905 0.95423 0.97082 0.0
C476 C 0.68695 0.95803 0.0121 0.0
C477 C 0.75269 0.97713 0.9953 0.0
C478 C 0.65104 0.96656 0.0188 0.0
C479 C 0.64322 0.0031 0.0196 0.0
C480 C 0.71521 0.98615 0.00532 0.0
C481 C 0.67248 0.03062 0.01387 0.0
C482 C 0.77553 0.0002 0.97378 0.0
C483 C 0.79658 0.93305 0.99385 0.0
N484 N 0.70721 0.02156 0.00644 0.0
N485 N 0.76412 0.94452 0.00492 0.0
H486 H 0.67461 0.03653 0.43355 0.0
H487 H 0.86302 0.09938 0.54022 0.0
H488 H 0.70031 0.14615 0.47532 0.0
H489 H 0.85362 0.01375 0.46148 0.0
H490 H 0.79851 0.11075 0.52692 0.0
H491 H 0.73549 0.02171 0.4543 0.0
C492 C 0.69293 0.0575 0.44714 0.0
C493 C 0.68238 0.09287 0.45215 0.0
C494 C 0.81062 0.08938 0.51274 0.0
C495 C 0.75187 0.07568 0.47663 0.0
C496 C 0.84731 0.08278 0.52036 0.0
C497 C 0.86378 0.05573 0.50174 0.0
C498 C 0.7901 0.06834 0.4868 0.0
C499 C 0.84216 0.0351 0.47623 0.0
C500 C 0.72762 0.04892 0.45908 0.0
C501 C 0.707 0.11849 0.47096 0.0
N502 N 0.80642 0.04178 0.46956 0.0
N503 N 0.74068 0.10943 0.48238 0.0
H504 H 0.33992 0.55134 0.08607 0.0
H505 H 0.14574 0.63451 0.05773 0.0
H506 H 0.32529 0.66542 0.10033 0.0
H507 H 0.16548 0.52807 0.01773 0.0
H508 H 0.21086 0.64469 0.07698 0.0
H509 H 0.27479 0.54011 0.06487 0.0
C510 C 0.32297 0.5739 0.0847 0.0
C511 C 0.33796 0.60937 0.09446 0.0
C512 C 0.20101 0.61917 0.06382 0.0
C513 C 0.26401 0.59692 0.0707 0.0
C514 C 0.16381 0.61336 0.05281 0.0
C515 C 0.15012 0.58042 0.03606 0.0
C516 C 0.22467 0.59171 0.0584 0.0
C517 C 0.17488 0.55396 0.0304 0.0
C518 C 0.28602 0.56759 0.07251 0.0
C519 C 0.31496 0.63777 0.09242 0.0
N520 N 0.21094 0.56008 0.04176 0.0
N521 N 0.27919 0.63091 0.08084 0.0
H522 H 0.17661 0.45755 0.63668 0.0
H523 H 0.34242 0.51847 0.50991 0.0
H524 H 0.15971 0.45736 0.52511 0.0
H525 H 0.35985 0.46754 0.60873 0.0
H526 H 0.27496 0.50447 0.51642 0.0
H527 H 0.24385 0.47027 0.62853 0.0
C528 C 0.18715 0.4606 0.61046 0.0
C529 C 0.16279 0.45678 0.58148 0.0
C530 C 0.29364 0.49625 0.53654 0.0
C531 C 0.23939 0.47108 0.57201 0.0
C532 C 0.33205 0.50434 0.53296 0.0
C533 C 0.3567 0.49419 0.5589 0.0
C534 C 0.27987 0.47859 0.56656 0.0
C535 C 0.34182 0.47573 0.5881 0.0
C536 C 0.22543 0.4675 0.60584 0.0
C537 C 0.17775 0.46027 0.54804 0.0
N538 N 0.30428 0.46883 0.59131 0.0
N539 N 0.21523 0.46753 0.54417 0.0
H540 H 0.95835 0.87116 0.97587 0.0
H541 H 0.96166 0.65957 0.92918 0.0
H542 H 0.94125 0.82513 0.87206 0.0
H543 H 0.00974 0.70719 0.02532 0.0
H544 H 0.95049 0.72013 0.9098 0.0
H545 H 0.97418 0.8116 0.99637 0.0
C546 C 0.95808 0.8486 0.95739 0.0
C547 C 0.94857 0.85316 0.92217 0.0
C548 C 0.9636 0.71747 0.93511 0.0
C549 C 0.96634 0.7851 0.94544 0.0
C550 C 0.96986 0.68278 0.94632 0.0
C551 C 0.98662 0.67816 0.97903 0.0
C552 C 0.97373 0.74806 0.95681 0.0
C553 C 0.99681 0.70946 -0.00011 0.0
C554 C 0.96726 0.81472 0.96907 0.0
C555 C 0.94887 0.82306 0.89932 0.0
N556 N 0.98998 0.74312 0.98852 0.0
N557 N 0.95732 0.79036 0.91139 0.0
H558 H 0.44765 0.69203 0.04613 0.0
H559 H 0.46329 0.89507 0.1228 0.0
H560 H 0.45143 0.71782 0.15631 0.0
H561 H 0.49384 0.87045 0.01731 0.0
H562 H 0.45573 0.82967 0.13475 0.0
H563 H 0.46342 0.75711 0.03407 0.0
C564 C 0.4525 0.71134 0.06772 0.0
C565 C 0.44839 0.69963 0.10221 0.0
C566 C 0.46422 0.83863 0.10902 0.0
C567 C 0.46548 0.77375 0.08874 0.0
C568 C 0.46821 0.87592 0.10212 0.0
C569 C 0.47912 0.8882 0.06901 0.0
C570 C 0.47074 0.81347 0.08252 0.0
C571 C 0.48543 0.86216 0.04324 0.0
C572 C 0.46139 0.74837 0.06088 0.0
C573 C 0.45482 0.72563 0.12934 0.0
N574 N 0.48096 0.82597 0.05049 0.0
N575 N 0.4626 0.76155 0.12201 0.0
H576 H 0.07266 0.366 0.51895 0.0
H577 H 0.98502 0.17341 0.59119 0.0
H578 H 0.02924 0.35126 0.62274 0.0
H579 H 0.06078 0.18404 0.50492 0.0
H580 H 0.99085 0.23997 0.59751 0.0
H581 H 0.05736 0.30045 0.50754 0.0
C582 C 0.05951 0.34916 0.53918 0.0
C583 C 0.05256 0.36427 0.57197 0.0
C584 C 0.00613 0.22768 0.57717 0.0
C585 C 0.03481 0.28942 0.55895 0.0
C586 C 0.00288 0.18972 0.57356 0.0
C587 C 0.02272 0.17311 0.54767 0.0
C588 C 0.02905 0.24923 0.55451 0.0
C589 C 0.0453 0.19565 0.52549 0.0
C590 C 0.05083 0.31178 0.53264 0.0
C591 C 0.03479 0.34115 0.59694 0.0
N592 N 0.04784 0.2326 0.5294 0.0
N593 N 0.02679 0.30487 0.58998 0.0
H594 H 0.53172 0.21751 0.44099 0.0
H595 H 0.51636 0.37574 0.58297 0.0
H596 H 0.59175 0.21936 0.53928 0.0
H597 H 0.50698 0.39009 0.47184 0.0
H598 H 0.5299 0.31228 0.57224 0.0
H599 H 0.50723 0.27439 0.45754 0.0
C600 C 0.53935 0.22962 0.46633 0.0
C601 C 0.56411 0.21394 0.48885 0.0
C602 C 0.52453 0.32938 0.55035 0.0
C603 C 0.53611 0.27916 0.50778 0.0
C604 C 0.51666 0.36538 0.55641 0.0
C605 C 0.51084 0.38814 0.5282 0.0
C606 C 0.52563 0.31608 0.51593 0.0
C607 C 0.51168 0.37355 0.4943 0.0
C608 C 0.52545 0.26218 0.47568 0.0
C609 C 0.57286 0.23085 0.52131 0.0
N610 N 0.51887 0.33847 0.48913 0.0
N611 N 0.55904 0.26281 0.52985 0.0
loop_
_geom_bond_atom_site_label_1
_geom_bond_atom_site_label_2
_geom_bond_distance
_geom_bond_site_symmetry_2
_ccdc_geom_bond_type
H0 C5 0.929 . S
H1 C10 0.931 . S
H2 C8 0.930 . S
N3 N4 1.234 . S
N3 C7 1.453 . S
N4 N3 1.234 . S
C5 H0 0.929 . S
C5 C6 1.373 . S
C5 C7 1.368 . S
C6 C5 1.373 . S
C6 C10 1.397 . S
C7 N3 1.453 . S
C7 C5 1.368 . S
C7 C8 1.373 . S
C8 H2 0.930 . S
C8 C7 1.373 . S
C8 C9 1.371 . S
C9 C8 1.371 . S
C9 C10 1.383 . S
C10 H1 0.931 . S
C10 C6 1.397 . S
C10 C9 1.383 . S
H11 C16 0.929 . S
H12 C21 0.931 . S
H13 C19 0.930 . S
N14 N15 1.234 . S
N14 C18 1.453 . S
N15 N14 1.234 . S
C16 H11 0.929 . S
C16 C17 1.373 . S
C16 C18 1.368 . S
C17 C16 1.373 . S
C17 C21 1.397 . S
C18 N14 1.453 . S
C18 C16 1.368 . S
C18 C19 1.373 . S
C19 H13 0.930 . S
C19 C18 1.373 . S
C19 C20 1.371 . S
C20 C19 1.371 . S
C20 C21 1.383 . S
C21 H12 0.931 . S
C21 C17 1.397 . S
C21 C20 1.383 . S
H22 C27 0.929 . S
H23 C32 0.931 . S
H24 C30 0.930 . S
N25 N26 1.234 . S
N25 C29 1.453 . S
N26 N25 1.234 . S
C27 H22 0.929 . S
C27 C28 1.373 . S
C27 C29 1.368 . S
C28 C27 1.373 . S
C28 C32 1.397 . S
C29 N25 1.453 . S
C29 C27 1.368 . S
C29 C30 1.373 . S
C30 H24 0.930 . S
C30 C29 1.373 . S
C30 C31 1.371 . S
C31 C30 1.371 . S
C31 C32 1.383 . S
C32 H23 0.931 . S
C32 C28 1.397 . S
C32 C31 1.383 . S
H33 C38 0.929 . S
H34 C43 0.931 . S
H35 C41 0.930 . S
N36 N37 1.234 . S
N36 C40 1.453 . S
N37 N36 1.234 . S
C38 H33 0.929 . S
C38 C39 1.373 . S
C38 C40 1.368 . S
C39 C38 1.373 . S
C39 C43 1.397 . S
C40 N36 1.453 . S
C40 C38 1.368 . S
C40 C41 1.373 . S
C41 H35 0.930 . S
C41 C40 1.373 . S
C41 C42 1.371 . S
C42 C41 1.371 . S
C42 C43 1.383 . S
C43 H34 0.931 . S
C43 C39 1.397 . S
C43 C42 1.383 . S
H44 C49 0.929 1_545 S
H45 C54 0.931 . S
H46 C52 0.930 . S
N47 N48 1.234 1_545 S
N47 C51 1.453 1_545 S
N48 N47 1.234 1_565 S
C49 H44 0.929 1_565 S
C49 C50 1.373 . S
C49 C51 1.368 . S
C50 C49 1.373 . S
C50 C54 1.397 . S
C51 N47 1.453 1_565 S
C51 C49 1.368 . S
C51 C52 1.373 . S
C52 H46 0.930 . S
C52 C51 1.373 . S
C52 C53 1.371 . S
C53 C52 1.371 . S
C53 C54 1.383 . S
C54 H45 0.931 . S
C54 C50 1.397 . S
C54 C53 1.383 . S
H55 C60 0.929 . S
H56 C65 0.931 . S
H57 C63 0.930 . S
N58 N59 1.234 . S
N58 C62 1.453 . S
N59 N58 1.234 . S
C60 H55 0.929 . S
C60 C61 1.373 . S
C60 C62 1.368 . S
C61 C60 1.373 . S
C61 C65 1.397 . S
C62 N58 1.453 . S
C62 C60 1.368 . S
C62 C63 1.373 . S
C63 H57 0.930 . S
C63 C62 1.373 . S
C63 C64 1.371 . S
C64 C63 1.371 . S
C64 C65 1.383 . S
C65 H56 0.931 . S
C65 C61 1.397 . S
C65 C64 1.383 . S
H66 C71 0.929 . S
H67 C76 0.931 . S
H68 C74 0.930 . S
N69 N70 1.234 . S
N69 C73 1.453 . S
N70 N69 1.234 . S
C71 H66 0.929 . S
C71 C72 1.373 . S
C71 C73 1.368 . S
C72 C71 1.373 . S
C72 C76 1.397 . S
C73 N69 1.453 . S
C73 C71 1.368 . S
C73 C74 1.373 . S
C74 H68 0.930 . S
C74 C73 1.373 . S
C74 C75 1.371 . S
C75 C74 1.371 . S
C75 C76 1.383 . S
C76 H67 0.931 . S
C76 C72 1.397 . S
C76 C75 1.383 . S
H77 C82 0.929 . S
H78 C87 0.931 . S
H79 C85 0.930 . S
N80 N81 1.234 . S
N80 C84 1.453 . S
N81 N80 1.234 . S
C82 H77 0.929 . S
C82 C83 1.373 . S
C82 C84 1.368 . S
C83 C82 1.373 . S
C83 C87 1.397 . S
C84 N80 1.453 . S
C84 C82 1.368 . S
C84 C85 1.373 . S
C85 H79 0.930 . S
C85 C84 1.373 . S
C85 C86 1.371 . S
C86 C85 1.371 . S
C86 C87 1.383 . S
C87 H78 0.931 . S
C87 C83 1.397 . S
C87 C86 1.383 . S
O88 Zn89 1.953 . S
O88 C104 1.225 1_655 S
Zn89 O88 1.953 . S
Zn89 O90 1.949 1_655 S
Zn89 O96 1.919 . S
Zn89 O101 1.924 . S
O90 Zn89 1.949 1_455 S
O90 Zn91 1.923 1_455 S
O90 Zn92 1.950 . S
O90 Zn93 1.945 1_545 S
Zn91 O90 1.923 1_655 S
Zn91 O94 1.933 1_545 S
Zn91 O97 1.941 . S
Zn91 O98 1.965 1_655 S
Zn92 O90 1.950 . S
Zn92 O99 1.938 . S
Zn92 O100 1.906 . S
Zn92 O110 1.953 . S
Zn93 O90 1.945 1_565 S
Zn93 O95 1.932 1_455 S
Zn93 O102 1.977 . S
Zn93 O103 1.910 1_455 S
O94 Zn91 1.933 1_565 S
O94 C105 1.226 . S
O95 Zn93 1.932 1_655 S
O95 C105 1.307 . S
O96 Zn89 1.919 . S
O96 C107 1.253 . S
O97 Zn91 1.941 . S
O97 C107 1.283 . S
O98 Zn91 1.965 1_455 S
O98 C106 1.303 . S
O99 Zn92 1.938 . S
O99 C106 1.247 . S
O100 Zn92 1.906 . S
O100 C108 1.304 1_545 S
O101 Zn89 1.924 . S
O101 C109 1.311 . S
O102 Zn93 1.977 . S
O102 C108 1.272 . S
O103 Zn93 1.910 1_655 S
O103 C109 1.231 1_565 S
C104 O88 1.225 1_455 S
C104 O110 1.298 . S
C105 O94 1.226 . S
C105 O95 1.307 . S
C106 O98 1.303 . S
C106 O99 1.247 . S
C107 O96 1.253 . S
C107 O97 1.283 . S
C108 O100 1.304 1_565 S
C108 O102 1.272 . S
C109 O101 1.311 . S
C109 O103 1.231 1_545 S
O110 Zn92 1.953 . S
O110 C104 1.298 . S
O111 Zn112 1.953 . S
O111 C127 1.225 . S
Zn112 O111 1.953 . S
Zn112 O113 1.949 . S
Zn112 O119 1.919 1_554 S
Zn112 O124 1.924 . S
O113 Zn112 1.949 . S
O113 Zn114 1.923 1_545 S
O113 Zn115 1.950 . S
O113 Zn116 1.945 . S
Zn114 O113 1.923 1_565 S
Zn114 O117 1.933 . S
Zn114 O120 1.941 1_554 S
Zn114 O121 1.965 . S
Zn115 O113 1.950 . S
Zn115 O122 1.938 . S
Zn115 O123 1.906 . S
Zn115 O133 1.953 . S
Zn116 O113 1.945 . S
Zn116 O118 1.932 1_545 S
Zn116 O125 1.977 . S
Zn116 O126 1.910 . S
O117 Zn114 1.933 . S
O117 C128 1.226 . S
O118 Zn116 1.932 1_565 S
O118 C128 1.307 . S
O119 Zn112 1.919 1_556 S
O119 C130 1.253 1_545 S
O120 Zn114 1.941 1_556 S
O120 C130 1.283 . S
O121 Zn114 1.965 . S
O121 C129 1.303 1_565 S
O122 Zn115 1.938 . S
O122 C129 1.247 . S
O123 Zn115 1.906 . S
O123 C131 1.304 . S
O124 Zn112 1.924 . S
O124 C132 1.311 . S
O125 Zn116 1.977 . S
O125 C131 1.272 . S
O126 Zn116 1.910 . S
O126 C132 1.231 . S
C127 O111 1.225 . S
C127 O133 1.298 . S
C128 O117 1.226 . S
C128 O118 1.307 . S
C129 O121 1.303 1_545 S
C129 O122 1.247 . S
C130 O119 1.253 1_565 S
C130 O120 1.283 . S
C131 O123 1.304 . S
C131 O125 1.272 . S
C132 O124 1.311 . S
C132 O126 1.231 . S
O133 Zn115 1.953 . S
O133 C127 1.298 . S
O134 Zn135 1.953 . S
O134 C150 1.225 . S
Zn135 O134 1.953 . S
Zn135 O136 1.949 . S
Zn135 O142 1.919 . S
Zn135 O147 1.924 . S
O136 Zn135 1.949 . S
O136 Zn137 1.923 . S
O136 Zn138 1.950 . S
O136 Zn139 1.945 . S
Zn137 O136 1.923 . S
Zn137 O140 1.933 . S
Zn137 O143 1.941 . S
Zn137 O144 1.965 . S
Zn138 O136 1.950 . S
Zn138 O145 1.938 . S
Zn138 O146 1.906 . S
Zn138 O156 1.953 . S
Zn139 O136 1.945 . S
Zn139 O141 1.932 . S
Zn139 O148 1.977 . S
Zn139 O149 1.910 . S
O140 Zn137 1.933 . S
O140 C151 1.226 . S
O141 Zn139 1.932 . S
O141 C151 1.307 . S
O142 Zn135 1.919 . S
O142 C153 1.253 . S
O143 Zn137 1.941 . S
O143 C153 1.283 . S
O144 Zn137 1.965 . S
O144 C152 1.303 . S
O145 Zn138 1.938 . S
O145 C152 1.247 . S
O146 Zn138 1.906 . S
O146 C154 1.304 . S
O147 Zn135 1.924 . S
O147 C155 1.311 . S
O148 Zn139 1.977 . S
O148 C154 1.272 . S
O149 Zn139 1.910 . S
O149 C155 1.231 . S
C150 O134 1.225 . S
C150 O156 1.298 . S
C151 O140 1.226 . S
C151 O141 1.307 . S
C152 O144 1.303 . S
C152 O145 1.247 . S
C153 O142 1.253 . S
C153 O143 1.283 . S
C154 O146 1.304 . S
C154 O148 1.272 . S
C155 O147 1.311 . S
C155 O149 1.231 . S
O156 Zn138 1.953 . S
O156 C150 1.298 . S
O157 Zn158 1.953 . S
O157 C173 1.225 . S
Zn158 O157 1.953 . S
Zn158 O159 1.949 1_655 S
Zn158 O165 1.919 . S
Zn158 O170 1.924 . S
O159 Zn158 1.949 1_455 S
O159 Zn160 1.923 1_454 S
O159 Zn161 1.950 . S
O159 Zn162 1.945 1_554 S
Zn160 O159 1.923 1_656 S
Zn160 O163 1.933 1_655 S
Zn160 O166 1.941 . S
Zn160 O167 1.965 . S
Zn161 O159 1.950 . S
Zn161 O168 1.938 . S
Zn161 O169 1.906 . S
Zn161 O179 1.953 . S
Zn162 O159 1.945 1_556 S
Zn162 O164 1.932 . S
Zn162 O171 1.977 1_556 S
Zn162 O172 1.910 1_556 S
O163 Zn160 1.933 1_455 S
O163 C174 1.226 . S
O164 Zn162 1.932 . S
O164 C174 1.307 . S
O165 Zn158 1.919 . S
O165 C176 1.253 1_554 S
O166 Zn160 1.941 . S
O166 C176 1.283 . S
O167 Zn160 1.965 . S
O167 C175 1.304 . S
O168 Zn161 1.938 . S
O168 C175 1.229 1_454 S
O169 Zn161 1.906 . S
O169 C177 1.304 . S
O170 Zn158 1.924 . S
O170 C178 1.311 1_655 S
O171 Zn162 1.977 1_554 S
O171 C177 1.272 . S
O172 Zn162 1.910 1_554 S
O172 C178 1.231 . S
C173 O157 1.225 . S
C173 O179 1.298 1_655 S
C174 O163 1.226 . S
C174 O164 1.307 . S
C175 O167 1.304 . S
C175 O168 1.229 1_656 S
C176 O165 1.253 1_556 S
C176 O166 1.283 . S
C177 O169 1.304 . S
C177 O171 1.272 . S
C178 O170 1.311 1_455 S
C178 O172 1.231 . S
O179 Zn161 1.953 . S
O179 C173 1.298 1_455 S
H180 C186 0.930 . S
H181 C190 0.930 . S
H182 C195 0.929 . S
H183 C193 0.929 . S
H184 C188 0.929 . S
H185 C194 0.929 . S
C186 H180 0.930 . S
C186 C187 1.367 . S
C186 C194 1.378 . S
C187 C186 1.367 . S
C187 C195 1.433 . S
C188 H184 0.929 . S
C188 C190 1.378 . S
C188 C192 1.350 . S
C189 C192 1.463 . S
C189 C194 1.350 . S
C189 N197 1.427 . S
C190 H181 0.930 . S
C190 C188 1.378 . S
C190 C191 1.367 . S
C191 C190 1.367 . S
C191 C193 1.433 . S
C192 C188 1.350 . S
C192 C189 1.463 . S
C192 N196 1.427 . S
C193 H183 0.929 . S
C193 C191 1.433 . S
C193 N196 1.384 . S
C194 H185 0.929 . S
C194 C186 1.378 . S
C194 C189 1.350 . S
C195 H182 0.929 . S
C195 C187 1.433 . S
C195 N197 1.384 . S
N196 C192 1.427 . S
N196 C193 1.384 . S
N197 C189 1.427 . S
N197 C195 1.384 . S
H198 C204 0.930 . S
H199 C208 0.949 . S
H200 C213 0.929 . S
H201 C211 0.929 . S
H202 C206 0.929 . S
H203 C212 0.929 . S
C204 H198 0.930 . S
C204 C205 1.367 . S
C204 C212 1.378 . S
C205 C204 1.367 . S
C205 C213 1.433 . S
C206 H202 0.929 . S
C206 C208 1.378 . S
C206 C210 1.350 . S
C207 C210 1.463 . S
C207 C212 1.350 . S
C207 N215 1.427 . S
C208 H199 0.949 . S
C208 C206 1.378 . S
C208 C209 1.367 . S
C209 C208 1.367 . S
C209 C211 1.433 . S
C210 C206 1.350 . S
C210 C207 1.463 . S
C210 N214 1.427 . S
C211 H201 0.929 . S
C211 C209 1.433 . S
C211 N214 1.384 . S
C212 H203 0.929 . S
C212 C204 1.378 . S
C212 C207 1.350 . S
C213 H200 0.929 . S
C213 C205 1.433 . S
C213 N215 1.384 . S
N214 C210 1.427 . S
N214 C211 1.384 . S
N215 C207 1.427 . S
N215 C213 1.384 . S
H216 C222 0.930 . S
H217 C226 0.930 . S
H218 C231 0.929 . S
H219 C229 0.929 . S
H220 C224 0.929 . S
H221 C230 0.929 . S
C222 H216 0.930 . S
C222 C223 1.367 . S
C222 C230 1.378 . S
C223 C222 1.367 . S
C223 C231 1.433 . S
C224 H220 0.929 . S
C224 C226 1.378 . S
C224 C228 1.350 . S
C225 C228 1.463 . S
C225 C230 1.350 . S
C225 N233 1.427 . S
C226 H217 0.930 . S
C226 C224 1.378 . S
C226 C227 1.367 . S
C227 C226 1.367 . S
C227 C229 1.433 . S
C228 C224 1.350 . S
C228 C225 1.463 . S
C228 N232 1.427 . S
C229 H219 0.929 . S
C229 C227 1.433 . S
C229 N232 1.384 . S
C230 H221 0.929 . S
C230 C222 1.378 . S
C230 C225 1.350 . S
C231 H218 0.929 . S
C231 C223 1.433 . S
C231 N233 1.384 . S
N232 C228 1.427 . S
N232 C229 1.384 . S
N233 C225 1.427 . S
N233 C231 1.384 . S
H234 C240 0.930 . S
H235 C244 0.930 1_455 S
H236 C249 0.929 . S
H237 C247 0.929 . S
H238 C242 0.937 . S
H239 C248 0.929 . S
C240 H234 0.930 . S
C240 C241 1.367 . S
C240 C248 1.378 . S
C241 C240 1.367 . S
C241 C249 1.433 . S
C242 H238 0.937 . S
C242 C244 1.378 . S
C242 C246 1.350 . S
C243 C246 1.463 . S
C243 C248 1.350 . S
C243 N251 1.427 . S
C244 H235 0.930 1_655 S
C244 C242 1.378 . S
C244 C245 1.367 . S
C245 C244 1.367 . S
C245 C247 1.433 . S
C246 C242 1.350 . S
C246 C243 1.463 . S
C246 N250 1.427 . S
C247 H237 0.929 . S
C247 C245 1.433 . S
C247 N250 1.384 . S
C248 H239 0.929 . S
C248 C240 1.378 . S
C248 C243 1.350 . S
C249 H236 0.929 . S
C249 C241 1.433 . S
C249 N251 1.384 . S
N250 C246 1.427 . S
N250 C247 1.384 . S
N251 C243 1.427 . S
N251 C249 1.384 . S
H252 C258 0.930 . S
H253 C262 0.930 . S
H254 C267 0.929 . S
H255 C265 0.929 . S
H256 C260 0.929 . S
H257 C266 0.929 . S
C258 H252 0.930 . S
C258 C259 1.367 . S
C258 C266 1.378 . S
C259 C258 1.367 . S
C259 C267 1.433 . S
C260 H256 0.929 . S
C260 C262 1.378 . S
C260 C264 1.350 . S
C261 C264 1.463 . S
C261 C266 1.350 . S
C261 N269 1.427 . S
C262 H253 0.930 . S
C262 C260 1.378 . S
C262 C263 1.367 . S
C263 C262 1.367 . S
C263 C265 1.433 . S
C264 C260 1.350 . S
C264 C261 1.463 . S
C264 N268 1.427 . S
C265 H255 0.929 . S
C265 C263 1.433 . S
C265 N268 1.384 . S
C266 H257 0.929 . S
C266 C258 1.378 . S
C266 C261 1.350 . S
C267 H254 0.929 . S
C267 C259 1.433 . S
C267 N269 1.384 . S
N268 C264 1.427 . S
N268 C265 1.384 . S
N269 C261 1.427 . S
N269 C267 1.384 . S
H270 C276 0.930 . S
H271 C280 0.930 1_545 S
H272 C285 0.929 . S
H273 C283 0.929 . S
H274 C278 0.929 1_545 S
H275 C284 0.929 . S
C276 H270 0.930 . S
C276 C277 1.367 . S
C276 C284 1.378 . S
C277 C276 1.367 . S
C277 C285 1.433 . S
C278 H274 0.929 1_565 S
C278 C280 1.378 . S
C278 C282 1.350 . S
C279 C282 1.463 . S
C279 C284 1.350 . S
C279 N287 1.427 . S
C280 H271 0.930 1_565 S
C280 C278 1.378 . S
C280 C281 1.367 . S
C281 C280 1.367 . S
C281 C283 1.433 . S
C282 C278 1.350 . S
C282 C279 1.463 . S
C282 N286 1.427 . S
C283 H273 0.929 . S
C283 C281 1.433 . S
C283 N286 1.384 . S
C284 H275 0.929 . S
C284 C276 1.378 . S
C284 C279 1.350 . S
C285 H272 0.929 . S
C285 C277 1.433 . S
C285 N287 1.384 . S
N286 C282 1.427 . S
N286 C283 1.384 . S
N287 C279 1.427 . S
N287 C285 1.384 . S
H288 C294 0.930 . S
H289 C298 0.930 . S
H290 C303 0.929 . S
H291 C301 0.929 . S
H292 C296 0.929 . S
H293 C302 0.929 . S
C294 H288 0.930 . S
C294 C295 1.367 . S
C294 C302 1.378 . S
C295 C294 1.367 . S
C295 C303 1.433 . S
C296 H292 0.929 . S
C296 C298 1.378 . S
C296 C300 1.350 . S
C297 C300 1.463 . S
C297 C302 1.350 . S
C297 N305 1.427 . S
C298 H289 0.930 . S
C298 C296 1.378 . S
C298 C299 1.367 . S
C299 C298 1.367 . S
C299 C301 1.433 . S
C300 C296 1.350 . S
C300 C297 1.463 . S
C300 N304 1.427 . S
C301 H291 0.929 . S
C301 C299 1.433 . S
C301 N304 1.384 . S
C302 H293 0.929 . S
C302 C294 1.378 . S
C302 C297 1.350 . S
C303 H290 0.929 . S
C303 C295 1.433 . S
C303 N305 1.384 . S
N304 C300 1.427 . S
N304 C301 1.384 . S
N305 C297 1.427 . S
N305 C303 1.384 . S
H306 C312 0.930 . S
H307 C316 0.930 . S
H308 C321 0.929 . S
H309 C319 0.929 . S
H310 C314 0.929 . S
H311 C320 0.929 . S
C312 H306 0.930 . S
C312 C313 1.367 . S
C312 C320 1.378 . S
C313 C312 1.367 . S
C313 C321 1.433 . S
C314 H310 0.929 . S
C314 C316 1.378 . S
C314 C318 1.350 . S
C315 C318 1.463 . S
C315 C320 1.350 . S
C315 N323 1.427 . S
C316 H307 0.930 . S
C316 C314 1.378 . S
C316 C317 1.367 . S
C317 C316 1.367 . S
C317 C319 1.433 . S
C318 C314 1.350 . S
C318 C315 1.463 . S
C318 N322 1.427 . S
C319 H309 0.929 . S
C319 C317 1.433 . S
C319 N322 1.384 . S
C320 H311 0.929 . S
C320 C312 1.378 . S
C320 C315 1.350 . S
C321 H308 0.929 . S
C321 C313 1.433 . S
C321 N323 1.384 . S
N322 C318 1.427 . S
N322 C319 1.384 . S
N323 C315 1.427 . S
N323 C321 1.384 . S
H324 C330 0.930 . S
H325 C334 0.930 . S
H326 C339 0.929 . S
H327 C337 0.929 1_655 S
H328 C332 0.929 . S
H329 C338 0.929 . S
C330 H324 0.930 . S
C330 C331 1.367 . S
C330 C338 1.378 . S
C331 C330 1.367 . S
C331 C339 1.433 . S
C332 H328 0.929 . S
C332 C334 1.378 . S
C332 C336 1.350 . S
C333 C336 1.463 . S
C333 C338 1.350 . S
C333 N341 1.427 . S
C334 H325 0.930 . S
C334 C332 1.378 . S
C334 C335 1.367 . S
C335 C334 1.367 . S
C335 C337 1.433 . S
C336 C332 1.350 . S
C336 C333 1.463 . S
C336 N340 1.427 . S
C337 H327 0.929 1_455 S
C337 C335 1.433 . S
C337 N340 1.384 . S
C338 H329 0.929 . S
C338 C330 1.378 . S
C338 C333 1.350 . S
C339 H326 0.929 . S
C339 C331 1.433 . S
C339 N341 1.384 . S
N340 C336 1.427 . S
N340 C337 1.384 . S
N341 C333 1.427 . S
N341 C339 1.384 . S
H342 C348 0.930 . S
H343 C352 0.930 . S
H344 C357 0.929 1_554 S
H345 C355 0.929 . S
H346 C350 0.929 . S
H347 C356 0.929 . S
C348 H342 0.930 . S
C348 C349 1.367 . S
C348 C356 1.378 . S
C349 C348 1.367 . S
C349 C357 1.433 . S
C350 H346 0.929 . S
C350 C352 1.378 . S
C350 C354 1.350 1_554 S
C351 C354 1.463 . S
C351 C356 1.350 . S
C351 N359 1.427 . S
C352 H343 0.930 . S
C352 C350 1.378 . S
C352 C353 1.367 . S
C353 C352 1.367 . S
C353 C355 1.433 1_554 S
C354 C350 1.350 1_556 S
C354 C351 1.463 . S
C354 N358 1.427 . S
C355 H345 0.929 . S
C355 C353 1.433 1_556 S
C355 N358 1.384 . S
C356 H347 0.929 . S
C356 C348 1.378 . S
C356 C351 1.350 . S
C357 H344 0.929 1_556 S
C357 C349 1.433 . S
C357 N359 1.384 . S
N358 C354 1.427 . S
N358 C355 1.384 . S
N359 C351 1.427 . S
N359 C357 1.384 . S
H360 C366 0.930 . S
H361 C370 0.930 . S
H362 C375 0.929 . S
H363 C373 0.929 1_455 S
H364 C368 0.929 . S
H365 C374 0.929 . S
C366 H360 0.930 . S
C366 C367 1.367 . S
C366 C374 1.378 . S
C367 C366 1.367 . S
C367 C375 1.433 . S
C368 H364 0.929 . S
C368 C370 1.378 . S
C368 C372 1.350 . S
C369 C372 1.463 . S
C369 C374 1.350 . S
C369 N377 1.427 . S
C370 H361 0.930 . S
C370 C368 1.378 . S
C370 C371 1.367 . S
C371 C370 1.367 . S
C371 C373 1.433 . S
C372 C368 1.350 . S
C372 C369 1.463 . S
C372 N376 1.427 . S
C373 H363 0.929 1_655 S
C373 C371 1.433 . S
C373 N376 1.384 . S
C374 H365 0.929 . S
C374 C366 1.378 . S
C374 C369 1.350 . S
C375 H362 0.929 . S
C375 C367 1.433 . S
C375 N377 1.384 . S
N376 C372 1.427 . S
N376 C373 1.384 . S
N377 C369 1.427 . S
N377 C375 1.384 . S
H378 C384 0.930 . S
H379 C388 0.930 . S
H380 C393 0.929 . S
H381 C391 0.929 . S
H382 C386 0.929 . S
H383 C392 0.929 . S
C384 H378 0.930 . S
C384 C385 1.367 . S
C384 C392 1.378 . S
C385 C384 1.367 . S
C385 C393 1.433 . S
C386 H382 0.929 . S
C386 C388 1.378 . S
C386 C390 1.350 . S
C387 C390 1.463 . S
C387 C392 1.350 . S
C387 N395 1.427 . S
C388 H379 0.930 . S
C388 C386 1.378 . S
C388 C389 1.367 . S
C389 C388 1.367 . S
C389 C391 1.433 . S
C390 C386 1.350 . S
C390 C387 1.463 . S
C390 N394 1.427 . S
C391 H381 0.929 . S
C391 C389 1.433 . S
C391 N394 1.384 . S
C392 H383 0.929 . S
C392 C384 1.378 . S
C392 C387 1.350 . S
C393 H380 0.929 . S
C393 C385 1.433 . S
C393 N395 1.384 . S
N394 C390 1.427 . S
N394 C391 1.384 . S
N395 C387 1.427 . S
N395 C393 1.384 . S
H396 C402 0.930 . S
H397 C406 0.930 . S
H398 C411 0.929 . S
H399 C409 0.929 . S
H400 C404 0.929 . S
H401 C410 0.929 . S
C402 H396 0.930 . S
C402 C403 1.367 . S
C402 C410 1.378 . S
C403 C402 1.367 . S
C403 C411 1.433 1_565 S
C404 H400 0.929 . S
C404 C406 1.378 . S
C404 C408 1.358 . S
C405 C408 1.461 1_565 S
C405 C410 1.350 . S
C405 N413 1.427 1_565 S
C406 H397 0.930 . S
C406 C404 1.378 . S
C406 C407 1.367 . S
C407 C406 1.367 . S
C407 C409 1.433 1_545 S
C408 C404 1.358 . S
C408 C405 1.461 1_545 S
C408 N412 1.421 1_545 S
C409 H399 0.929 . S
C409 C407 1.433 1_565 S
C409 N412 1.384 . S
C410 H401 0.929 . S
C410 C402 1.378 . S
C410 C405 1.350 . S
C411 H398 0.929 . S
C411 C403 1.433 1_545 S
C411 N413 1.384 . S
N412 C408 1.421 1_565 S
N412 C409 1.384 . S
N413 C405 1.427 1_545 S
N413 C411 1.384 . S
H414 C420 0.930 . S
H415 C424 0.930 . S
H416 C429 0.929 . S
H417 C427 0.929 1_565 S
H418 C422 0.929 . S
H419 C428 0.929 . S
C420 H414 0.930 . S
C420 C421 1.367 . S
C420 C428 1.378 . S
C421 C420 1.367 . S
C421 C429 1.433 . S
C422 H418 0.929 . S
C422 C424 1.378 . S
C422 C426 1.350 . S
C423 C426 1.463 . S
C423 C428 1.350 . S
C423 N431 1.427 . S
C424 H415 0.930 . S
C424 C422 1.378 . S
C424 C425 1.367 . S
C425 C424 1.367 . S
C425 C427 1.433 . S
C426 C422 1.350 . S
C426 C423 1.463 . S
C426 N430 1.427 . S
C427 H417 0.929 1_545 S
C427 C425 1.433 . S
C427 N430 1.384 . S
C428 H419 0.929 . S
C428 C420 1.378 . S
C428 C423 1.350 . S
C429 H416 0.929 . S
C429 C421 1.433 . S
C429 N431 1.384 . S
N430 C426 1.427 . S
N430 C427 1.384 . S
N431 C423 1.427 . S
N431 C429 1.384 . S
H432 C438 0.930 . S
H433 C442 0.930 . S
H434 C447 0.929 . S
H435 C445 0.929 . S
H436 C440 0.929 . S
H437 C446 0.929 . S
C438 H432 0.930 . S
C438 C439 1.367 . S
C438 C446 1.378 . S
C439 C438 1.367 . S
C439 C447 1.433 . S
C440 H436 0.929 . S
C440 C442 1.378 . S
C440 C444 1.350 . S
C441 C444 1.463 . S
C441 C446 1.350 . S
C441 N449 1.427 . S
C442 H433 0.930 . S
C442 C440 1.378 . S
C442 C443 1.367 . S
C443 C442 1.367 . S
C443 C445 1.433 . S
C444 C440 1.350 . S
C444 C441 1.463 . S
C444 N448 1.427 . S
C445 H435 0.929 . S
C445 C443 1.433 . S
C445 N448 1.384 . S
C446 H437 0.929 . S
C446 C438 1.378 . S
C446 C441 1.350 . S
C447 H434 0.929 . S
C447 C439 1.433 . S
C447 N449 1.384 . S
N448 C444 1.427 . S
N448 C445 1.384 . S
N449 C441 1.427 . S
N449 C447 1.384 . S
H450 C456 0.930 . S
H451 C460 0.930 . S
H452 C465 0.929 . S
H453 C463 0.929 . S
H454 C458 0.929 . S
H455 C464 0.929 . S
C456 H450 0.930 . S
C456 C457 1.367 . S
C456 C464 1.378 . S
C457 C456 1.367 . S
C457 C465 1.433 . S
C458 H454 0.929 . S
C458 C460 1.378 . S
C458 C462 1.350 . S
C459 C462 1.463 . S
C459 C464 1.350 . S
C459 N467 1.427 . S
C460 H451 0.930 . S
C460 C458 1.378 . S
C460 C461 1.367 . S
C461 C460 1.367 . S
C461 C463 1.433 . S
C462 C458 1.350 . S
C462 C459 1.463 . S
C462 N466 1.427 . S
C463 H453 0.929 . S
C463 C461 1.433 . S
C463 N466 1.384 . S
C464 H455 0.929 . S
C464 C456 1.378 . S
C464 C459 1.350 . S
C465 H452 0.929 . S
C465 C457 1.433 . S
C465 N467 1.384 . S
N466 C462 1.427 . S
N466 C463 1.384 . S
N467 C459 1.427 . S
N467 C465 1.384 . S
H468 C474 0.930 . S
H469 C478 0.928 1_556 S
H470 C483 0.929 . S
H471 C481 0.929 . S
H472 C476 0.929 . S
H473 C482 0.929 1_554 S
C474 H468 0.930 . S
C474 C475 1.367 1_545 S
C474 C482 1.378 . S
C475 C474 1.367 1_565 S
C475 C483 1.433 . S
C476 H472 0.929 . S
C476 C478 1.378 1_556 S
C476 C480 1.350 1_565 S
C477 C480 1.463 . S
C477 C482 1.350 . S
C477 N485 1.427 1_545 S
C478 H469 0.928 1_554 S
C478 C476 1.378 1_554 S
C478 C479 1.367 1_565 S
C479 C478 1.367 1_545 S
C479 C481 1.433 . S
C480 C476 1.350 1_545 S
C480 C477 1.463 . S
C480 N484 1.427 1_556 S
C481 H471 0.929 . S
C481 C479 1.433 . S
C481 N484 1.384 . S
C482 H473 0.929 1_556 S
C482 C474 1.378 . S
C482 C477 1.350 . S
C483 H470 0.929 . S
C483 C475 1.433 . S
C483 N485 1.384 . S
N484 C480 1.427 1_554 S
N484 C481 1.384 . S
N485 C477 1.427 1_565 S
N485 C483 1.384 . S
H486 C492 0.930 . S
H487 C496 0.930 . S
H488 C501 0.929 . S
H489 C499 0.929 1_565 S
H490 C494 0.929 . S
H491 C500 0.929 . S
C492 H486 0.930 . S
C492 C493 1.367 . S
C492 C500 1.378 . S
C493 C492 1.367 . S
C493 C501 1.433 . S
C494 H490 0.929 . S
C494 C496 1.378 . S
C494 C498 1.350 . S
C495 C498 1.463 . S
C495 C500 1.350 . S
C495 N503 1.427 . S
C496 H487 0.930 . S
C496 C494 1.378 . S
C496 C497 1.367 . S
C497 C496 1.367 . S
C497 C499 1.433 . S
C498 C494 1.350 . S
C498 C495 1.463 . S
C498 N502 1.427 . S
C499 H489 0.929 1_545 S
C499 C497 1.433 . S
C499 N502 1.384 . S
C500 H491 0.929 . S
C500 C492 1.378 . S
C500 C495 1.350 . S
C501 H488 0.929 . S
C501 C493 1.433 . S
C501 N503 1.384 . S
N502 C498 1.427 . S
N502 C499 1.384 . S
N503 C495 1.427 . S
N503 C501 1.384 . S
H504 C510 0.930 . S
H505 C514 0.930 . S
H506 C519 0.929 . S
H507 C517 0.929 . S
H508 C512 0.929 . S
H509 C518 0.929 . S
C510 H504 0.930 . S
C510 C511 1.367 . S
C510 C518 1.378 . S
C511 C510 1.367 . S
C511 C519 1.433 . S
C512 H508 0.929 . S
C512 C514 1.378 . S
C512 C516 1.350 . S
C513 C516 1.463 . S
C513 C518 1.350 . S
C513 N521 1.427 . S
C514 H505 0.930 . S
C514 C512 1.378 . S
C514 C515 1.367 . S
C515 C514 1.367 . S
C515 C517 1.433 . S
C516 C512 1.350 . S
C516 C513 1.463 . S
C516 N520 1.427 . S
C517 H507 0.929 . S
C517 C515 1.433 . S
C517 N520 1.384 . S
C518 H509 0.929 . S
C518 C510 1.378 . S
C518 C513 1.350 . S
C519 H506 0.929 . S
C519 C511 1.433 . S
C519 N521 1.384 . S
N520 C516 1.427 . S
N520 C517 1.384 . S
N521 C513 1.427 . S
N521 C519 1.384 . S
H522 C528 0.930 . S
H523 C532 0.930 . S
H524 C537 0.929 . S
H525 C535 0.929 . S
H526 C530 0.929 . S
H527 C536 0.929 . S
C528 H522 0.930 . S
C528 C529 1.367 . S
C528 C536 1.378 . S
C529 C528 1.367 . S
C529 C537 1.433 . S
C530 H526 0.929 . S
C530 C532 1.378 . S
C530 C534 1.350 . S
C531 C534 1.463 . S
C531 C536 1.350 . S
C531 N539 1.427 . S
C532 H523 0.930 . S
C532 C530 1.378 . S
C532 C533 1.367 . S
C533 C532 1.367 . S
C533 C535 1.433 . S
C534 C530 1.350 . S
C534 C531 1.463 . S
C534 N538 1.427 . S
C535 H525 0.929 . S
C535 C533 1.433 . S
C535 N538 1.384 . S
C536 H527 0.929 . S
C536 C528 1.378 . S
C536 C531 1.350 . S
C537 H524 0.929 . S
C537 C529 1.433 . S
C537 N539 1.384 . S
N538 C534 1.427 . S
N538 C535 1.384 . S
N539 C531 1.427 . S
N539 C537 1.384 . S
H540 C546 0.930 1_554 S
H541 C550 0.930 . S
H542 C555 0.929 . S
H543 C553 0.929 . S
H544 C548 0.929 . S
H545 C554 0.929 1_554 S
C546 H540 0.930 1_556 S
C546 C547 1.367 . S
C546 C554 1.378 . S
C547 C546 1.367 . S
C547 C555 1.433 . S
C548 H544 0.929 . S
C548 C550 1.378 . S
C548 C552 1.350 . S
C549 C552 1.463 . S
C549 C554 1.350 . S
C549 N557 1.427 . S
C550 H541 0.930 . S
C550 C548 1.378 . S
C550 C551 1.367 . S
C551 C550 1.367 . S
C551 C553 1.433 1_556 S
C552 C548 1.350 . S
C552 C549 1.463 . S
C552 N556 1.427 1_556 S
C553 H543 0.929 . S
C553 C551 1.433 1_554 S
C553 N556 1.384 . S
C554 H545 0.929 1_556 S
C554 C546 1.378 . S
C554 C549 1.350 . S
C555 H542 0.929 . S
C555 C547 1.433 . S
C555 N557 1.384 . S
N556 C552 1.427 1_554 S
N556 C553 1.384 . S
N557 C549 1.427 . S
N557 C555 1.384 . S
H558 C564 0.930 . S
H559 C568 0.930 . S
H560 C573 0.929 . S
H561 C571 0.929 . S
H562 C566 0.929 . S
H563 C572 0.929 . S
C564 H558 0.930 . S
C564 C565 1.367 . S
C564 C572 1.378 . S
C565 C564 1.367 . S
C565 C573 1.433 . S
C566 H562 0.929 . S
C566 C568 1.378 . S
C566 C570 1.350 . S
C567 C570 1.463 . S
C567 C572 1.350 . S
C567 N575 1.427 . S
C568 H559 0.930 . S
C568 C566 1.378 . S
C568 C569 1.367 . S
C569 C568 1.367 . S
C569 C571 1.433 . S
C570 C566 1.350 . S
C570 C567 1.463 . S
C570 N574 1.427 . S
C571 H561 0.929 . S
C571 C569 1.433 . S
C571 N574 1.384 . S
C572 H563 0.929 . S
C572 C564 1.378 . S
C572 C567 1.350 . S
C573 H560 0.929 . S
C573 C565 1.433 . S
C573 N575 1.384 . S
N574 C570 1.427 . S
N574 C571 1.384 . S
N575 C567 1.427 . S
N575 C573 1.384 . S
H576 C582 0.930 . S
H577 C586 0.930 . S
H578 C591 0.929 . S
H579 C589 0.929 . S
H580 C584 0.929 . S
H581 C590 0.929 . S
C582 H576 0.930 . S
C582 C583 1.367 . S
C582 C590 1.378 . S
C583 C582 1.367 . S
C583 C591 1.433 . S
C584 H580 0.929 . S
C584 C586 1.378 . S
C584 C588 1.350 . S
C585 C588 1.463 . S
C585 C590 1.350 . S
C585 N593 1.427 . S
C586 H577 0.930 . S
C586 C584 1.378 . S
C586 C587 1.367 . S
C587 C586 1.367 . S
C587 C589 1.433 . S
C588 C584 1.350 . S
C588 C585 1.463 . S
C588 N592 1.427 . S
C589 H579 0.929 . S
C589 C587 1.433 . S
C589 N592 1.384 . S
C590 H581 0.929 . S
C590 C582 1.378 . S
C590 C585 1.350 . S
C591 H578 0.929 . S
C591 C583 1.433 . S
C591 N593 1.384 . S
N592 C588 1.427 . S
N592 C589 1.384 . S
N593 C585 1.427 . S
N593 C591 1.384 . S
H594 C600 0.930 . S
H595 C604 0.930 . S
H596 C609 0.929 . S
H597 C607 0.929 . S
H598 C602 0.929 . S
H599 C608 0.929 . S
C600 H594 0.930 . S
C600 C601 1.367 . S
C600 C608 1.378 . S
C601 C600 1.367 . S
C601 C609 1.433 . S
C602 H598 0.929 . S
C602 C604 1.378 . S
C602 C606 1.350 . S
C603 C606 1.463 . S
C603 C608 1.350 . S
C603 N611 1.427 . S
C604 H595 0.930 . S
C604 C602 1.378 . S
C604 C605 1.367 . S
C605 C604 1.367 . S
C605 C607 1.433 . S
C606 C602 1.350 . S
C606 C603 1.463 . S
C606 N610 1.427 . S
C607 H597 0.929 . S
C607 C605 1.433 . S
C607 N610 1.384 . S
C608 H599 0.929 . S
C608 C600 1.378 . S
C608 C603 1.350 . S
C609 H596 0.929 . S
C609 C601 1.433 . S
C609 N611 1.384 . S
N610 C606 1.427 . S
N610 C607 1.384 . S
N611 C603 1.427 . S
N611 C609 1.384 . S
C187 C6 1.756 . S
C191 C106 1.719 . S
C205 C20 1.904 . S
C209 C130 1.853 . S
C227 C150 1.045 . S
C223 N26 1.038 . S
C241 N37 1.307 . S
C245 C173 1.328 . S
C263 C132 2.069 . S
C259 C9 2.096 . S
C281 C108 1.421 . S
C277 N15 1.478 . S
C299 C176 1.457 . S
C295 C31 1.498 . S
C317 C153 1.418 . S
C313 C39 1.445 . S
C331 N4 1.479 . S
C335 C178 1.435 . S
C353 C127 1.694 . S
C349 C28 1.670 . S
C367 C42 1.381 . S
C371 C105 1.387 . S
C385 C17 1.575 . S
C389 C155 1.537 . S
C407 C109 1.897 . S
C403 C50 1.889 . S
C421 C61 1.650 . S
C425 C131 1.659 . S
C439 N70 1.578 . S
C443 C151 1.604 . S
C457 N81 1.409 . S
C461 C174 1.442 . S
C475 N48 1.392 . S
C479 C129 1.389 . S
C497 C107 1.868 . S
C493 C64 1.867 . S
C515 C177 1.366 . S
C511 C75 1.413 . S
C533 C154 1.357 . S
C529 C86 1.365 . S
C547 C53 2.038 . S
C551 C175 2.023 . S
C569 C128 1.259 . S
C565 C72 1.251 . S
C587 C104 1.587 . S
C583 C83 1.576 . S
C601 N59 1.734 . S
C605 C152 1.719 . S
