# Generated by pormake.
# Topology pyr, (3,6)-cn, num edge types: 1
# Building blocks:
#     Node 0, Type 0, BuildingBlock: CUQRIR_clean_linker_1, # of connection points: 3
#     Node 1, Type 0, BuildingBlock: CUQRIR_clean_linker_1, # of connection points: 3
#     Node 2, Type 0, BuildingBlock: CUQRIR_clean_linker_1, # of connection points: 3
#     Node 3, Type 0, BuildingBlock: CUQRIR_clean_linker_1, # of connection points: 3
#     Node 4, Type 0, BuildingBlock: CUQRIR_clean_linker_1, # of connection points: 3
#     Node 5, Type 0, BuildingBlock: CUQRIR_clean_linker_1, # of connection points: 3
#     Node 6, Type 0, BuildingBlock: CUQRIR_clean_linker_1, # of connection points: 3
#     Node 7, Type 0, BuildingBlock: CUQRIR_clean_linker_1, # of connection points: 3
#     Node 8, Type 1, BuildingBlock: PAMTUU_clean_sbu_0, # of connection points: 6
#     Node 9, Type 1, BuildingBlock: PAMTUU_clean_sbu_0, # of connection points: 6
#     Node 10, Type 1, BuildingBlock: PAMTUU_clean_sbu_0, # of connection points: 6
#     Node 11, Type 1, BuildingBlock: PAMTUU_clean_sbu_0, # of connection points: 6
#     Edge 12, Type (0, 1), BuildingBlock: KIFKEQ_clean_linker_1, # of connection points: 2
#     Edge 13, Type (0, 1), BuildingBlock: KIFKEQ_clean_linker_1, # of connection points: 2
#     Edge 14, Type (0, 1), BuildingBlock: KIFKEQ_clean_linker_1, # of connection points: 2
#     Edge 15, Type (0, 1), BuildingBlock: KIFKEQ_clean_linker_1, # of connection points: 2
#     Edge 16, Type (0, 1), BuildingBlock: KIFKEQ_clean_linker_1, # of connection points: 2
#     Edge 17, Type (0, 1), BuildingBlock: KIFKEQ_clean_linker_1, # of connection points: 2
#     Edge 18, Type (0, 1), BuildingBlock: KIFKEQ_clean_linker_1, # of connection points: 2
#     Edge 19, Type (0, 1), BuildingBlock: KIFKEQ_clean_linker_1, # of connection points: 2
#     Edge 20, Type (0, 1), BuildingBlock: KIFKEQ_clean_linker_1, # of connection points: 2
#     Edge 21, Type (0, 1), BuildingBlock: KIFKEQ_clean_linker_1, # of connection points: 2
#     Edge 22, Type (0, 1), BuildingBlock: KIFKEQ_clean_linker_1, # of connection points: 2
#     Edge 23, Type (0, 1), BuildingBlock: KIFKEQ_clean_linker_1, # of connection points: 2
#     Edge 24, Type (0, 1), BuildingBlock: KIFKEQ_clean_linker_1, # of connection points: 2
#     Edge 25, Type (0, 1), BuildingBlock: KIFKEQ_clean_linker_1, # of connection points: 2
#     Edge 26, Type (0, 1), BuildingBlock: KIFKEQ_clean_linker_1, # of connection points: 2
#     Edge 27, Type (0, 1), BuildingBlock: KIFKEQ_clean_linker_1, # of connection points: 2
#     Edge 28, Type (0, 1), BuildingBlock: KIFKEQ_clean_linker_1, # of connection points: 2
#     Edge 29, Type (0, 1), BuildingBlock: KIFKEQ_clean_linker_1, # of connection points: 2
#     Edge 30, Type (0, 1), BuildingBlock: KIFKEQ_clean_linker_1, # of connection points: 2
#     Edge 31, Type (0, 1), BuildingBlock: KIFKEQ_clean_linker_1, # of connection points: 2
#     Edge 32, Type (0, 1), BuildingBlock: KIFKEQ_clean_linker_1, # of connection points: 2
#     Edge 33, Type (0, 1), BuildingBlock: KIFKEQ_clean_linker_1, # of connection points: 2
#     Edge 34, Type (0, 1), BuildingBlock: KIFKEQ_clean_linker_1, # of connection points: 2
#     Edge 35, Type (0, 1), BuildingBlock: KIFKEQ_clean_linker_1, # of connection points: 2
# Relax obj value: 0.191
# Max RMSD: 0.250
# Mean RMSD: 0.164
data_MOF--net-pyr--node1-PAMTUU_clean_sbu_0--node2-CUQRIR_clean_linker_1--edge1-KIFKEQ_clean_linker_1
_symmetry_space_group_name_H-M    P1
_symmetry_Int_Tables_number       1
_symmetry_cell_setting            triclinic
loop_
_symmetry_equiv_pos_as_xyz
'x, y, z'
_cell_length_a     35.887092
_cell_length_b     37.250537
_cell_length_c     34.793358
_cell_angle_alpha  88.814183
_cell_angle_beta   89.946242
_cell_angle_gamma 105.48952
loop_
_atom_site_label
_atom_site_type_symbol
_atom_site_fract_x
_atom_site_fract_y
_atom_site_fract_z
_atom_type_partial_charge
C0 C 0.3623 0.35818 0.22106 0.0
N1 N 0.38009 0.33113 0.22914 0.0
N2 N 0.36276 0.36581 0.18277 0.0
C3 C 0.33683 0.3709 0.24932 0.0
C4 C 0.38282 0.34319 0.16797 0.0
N5 N 0.39353 0.32246 0.19602 0.0
C6 C 0.38723 0.33762 0.12575 0.0
H7 H 0.3064 0.35442 0.24548 0.0
H8 H 0.33833 0.40071 0.2441 0.0
H9 H 0.34552 0.36711 0.27939 0.0
H10 H 0.38406 0.36215 0.10873 0.0
H11 H 0.36461 0.31262 0.11682 0.0
H12 H 0.41585 0.33273 0.11983 0.0
C13 C 0.17798 0.81518 0.73379 0.0
N14 N 0.16974 0.84166 0.75575 0.0
N15 N 0.20156 0.79794 0.75269 0.0
C16 C 0.16714 0.80954 0.69216 0.0
C17 C 0.20711 0.81482 0.78709 0.0
N18 N 0.18795 0.84146 0.78893 0.0
C19 C 0.23634 0.80952 0.81619 0.0
H20 H 0.13591 0.80727 0.68849 0.0
H21 H 0.17348 0.78405 0.68113 0.0
H22 H 0.18355 0.83412 0.67496 0.0
H23 H 0.26582 0.82348 0.80525 0.0
H24 H 0.23429 0.77948 0.82044 0.0
H25 H 0.23208 0.82143 0.8443 0.0
C26 C 0.63568 0.37933 0.87689 0.0
N27 N 0.65792 0.37512 0.90776 0.0
N28 N 0.64813 0.41392 0.86025 0.0
C29 C 0.59946 0.35094 0.86498 0.0
C30 C 0.67876 0.43077 0.88236 0.0
N31 N 0.6846 0.40772 0.91144 0.0
C32 C 0.70507 0.46889 0.87345 0.0
H33 H 0.60708 0.33223 0.84372 0.0
H34 H 0.57878 0.36466 0.85133 0.0
H35 H 0.58513 0.33387 0.89005 0.0
H36 H 0.69498 0.48989 0.88967 0.0
H37 H 0.70474 0.47591 0.84234 0.0
H38 H 0.73524 0.47053 0.88203 0.0
C39 C 0.8541 0.6956 0.37049 0.0
N40 N 0.88727 0.72175 0.35971 0.0
N41 N 0.83583 0.7073 0.40005 0.0
C42 C 0.839 0.65874 0.3513 0.0
C43 C 0.85915 0.74158 0.40724 0.0
N44 N 0.89035 0.75088 0.38303 0.0
C45 C 0.85182 0.76585 0.43899 0.0
H46 H 0.80831 0.64557 0.35889 0.0
H47 H 0.85667 0.63983 0.36049 0.0
H48 H 0.84166 0.66233 0.31961 0.0
H49 H 0.83332 0.74902 0.462 0.0
H50 H 0.8369 0.786 0.42684 0.0
H51 H 0.87932 0.78186 0.45193 0.0
C52 C 0.65915 0.79722 0.93121 0.0
N53 N 0.68391 0.78874 0.90583 0.0
N54 N 0.64427 0.82454 0.91687 0.0
C55 C 0.6494 0.7786 0.97008 0.0
C56 C 0.66039 0.83176 0.8813 0.0
N57 N 0.68409 0.80975 0.87451 0.0
C58 C 0.65808 0.86452 0.85603 0.0
H59 H 0.62062 0.78056 0.98002 0.0
H60 H 0.67137 0.79227 0.9913 0.0
H61 H 0.64958 0.74889 0.96882 0.0
H62 H 0.66241 0.88994 0.8734 0.0
H63 H 0.62888 0.85866 0.84312 0.0
H64 H 0.67977 0.8703 0.83246 0.0
C65 C 0.88811 0.34506 0.46928 0.0
N66 N 0.89985 0.32317 0.44381 0.0
N67 N 0.86416 0.3632 0.45239 0.0
C68 C 0.8978 0.34719 0.5113 0.0
C69 C 0.862 0.35166 0.41559 0.0
N70 N 0.88331 0.32709 0.41038 0.0
C71 C 0.83252 0.35787 0.3871 0.0
H72 H 0.875 0.32647 0.5276 0.0
H73 H 0.89857 0.37524 0.52202 0.0
H74 H 0.92606 0.34118 0.51652 0.0
H75 H 0.82153 0.38198 0.39445 0.0
H76 H 0.80779 0.33254 0.38649 0.0
H77 H 0.84538 0.36279 0.35785 0.0
C78 C 0.34709 0.69048 0.27093 0.0
N79 N 0.3799 0.71623 0.2818 0.0
N80 N 0.32787 0.70445 0.24327 0.0
C81 C 0.33325 0.6518 0.28818 0.0
C82 C 0.35011 0.73975 0.23755 0.0
N83 N 0.38166 0.7473 0.26078 0.0
C84 C 0.34128 0.7668 0.20835 0.0
H85 H 0.34997 0.63394 0.27523 0.0
H86 H 0.30206 0.63946 0.28267 0.0
H87 H 0.33825 0.65208 0.31963 0.0
H88 H 0.32344 0.75195 0.18459 0.0
H89 H 0.36799 0.78566 0.19591 0.0
H90 H 0.32496 0.7842 0.22279 0.0
C91 C 0.12986 0.37745 0.76836 0.0
N92 N 0.15262 0.37196 0.7385 0.0
N93 N 0.14351 0.41184 0.78391 0.0
C94 C 0.09246 0.35032 0.78061 0.0
C95 C 0.1756 0.42716 0.76208 0.0
N96 N 0.18123 0.40341 0.73456 0.0
C97 C 0.20212 0.46534 0.76832 0.0
H98 H 0.0724 0.36506 0.79317 0.0
H99 H 0.09852 0.33087 0.80282 0.0
H100 H 0.07819 0.33386 0.75592 0.0
H101 H 0.2321 0.4673 0.75885 0.0
H102 H 0.20238 0.47273 0.79906 0.0
H103 H 0.19147 0.48601 0.75123 0.0
Tb104 Tb 0.07867 0.07166 0.52593 0.0
Tb105 Tb 0.9978 0.05144 0.57467 0.0
C106 C 1.01008 0.99795 0.50781 0.0
C107 C 0.17208 0.11282 0.47279 0.0
C108 C 0.22909 0.16968 0.4358 0.0
C109 C 0.23313 0.13321 0.43856 0.0
C110 C 0.20482 0.10504 0.45691 0.0
C111 C 0.16836 0.14933 0.47141 0.0
C112 C 0.19672 0.17762 0.45301 0.0
C113 C 0.14216 0.08229 0.4903 0.0
O114 O 0.04489 0.10475 0.49622 0.0
O115 O 0.99089 0.09459 0.53565 0.0
O116 O 0.03614 0.10155 0.60182 0.0
O117 O 0.08346 0.12382 0.55605 0.0
O118 O 0.93715 1.03571 0.57982 0.0
O119 O 0.97365 0.04668 0.62987 0.0
O120 O 0.02807 1.0112 0.59258 0.0
O121 O 0.08876 0.04804 0.5814 0.0
O122 O 0.04747 1.0147 0.50858 0.0
O123 O 0.98534 1.01131 0.52733 0.0
C124 C 1.01171 0.111 0.50611 0.0
O125 O 0.13904 0.08275 0.52754 0.0
O126 O 0.1085 0.07386 0.47361 0.0
C127 C 0.06577 0.12826 0.58814 0.0
C128 C 0.91514 0.9993 0.63663 0.0
C129 C 0.86819 0.93637 0.67608 0.0
C130 C 0.89982 0.96028 0.69443 0.0
C131 C 0.9229 0.99142 0.675 0.0
C132 C 0.88397 0.97503 0.61794 0.0
C133 C 0.86073 0.94383 0.63748 0.0
C134 C 0.93854 1.03366 0.61726 0.0
C135 C 0.06514 1.01955 0.59896 0.0
H136 H 0.25733 0.12604 0.4251 0.0
H137 H 0.20807 0.07693 0.45797 0.0
H138 H 0.1433 0.15574 0.48395 0.0
H139 H 0.193 0.20552 0.45161 0.0
H140 H 0.90587 0.95581 0.72438 0.0
H141 H 0.94639 1.00979 0.6904 0.0
H142 H 0.87709 0.98043 0.58844 0.0
H143 H 0.83661 0.92584 0.62257 0.0
Tb144 Tb 0.5704 0.07224 0.12924 0.0
Tb145 Tb 0.4953 0.05572 0.07202 0.0
C146 C 0.56484 1.02622 0.05456 0.0
C147 C 0.66089 0.11111 0.18645 0.0
C148 C 0.72076 0.1633 0.22306 0.0
C149 C 0.72703 0.1303 0.20908 0.0
C150 C 0.69724 0.10437 0.191 0.0
C151 C 0.65509 0.14493 0.19844 0.0
C152 C 0.68483 0.17082 0.21674 0.0
C153 C 0.62921 0.08146 0.17121 0.0
O154 O 0.58702 0.11835 0.08657 0.0
O155 O 0.53003 0.1113 0.05304 0.0
O156 O 0.47956 0.07597 0.12594 0.0
O157 O 0.53876 0.11263 0.1428 0.0
O158 O 0.46172 1.0236 1.02953 0.0
O159 O 0.44697 0.07205 0.05143 0.0
O160 O 0.48834 1.00349 0.10597 0.0
O161 O 0.52687 1.0263 0.15751 0.0
O162 O 0.57246 1.02726 0.09132 0.0
O163 O 0.54233 0.04505 1.03968 0.0
C164 C 0.56589 0.13022 0.06063 0.0
O165 O 0.59444 0.07892 0.18431 0.0
O166 O 0.6297 0.07653 0.13424 0.0
C167 C 0.50096 0.10562 0.14256 0.0
C168 C 0.39581 1.02486 1.0242 0.0
C169 C 0.32151 0.99149 0.99517 0.0
C170 C 0.33289 1.02982 1.00267 0.0
C171 C 0.36977 0.04635 1.01687 0.0
C172 C 0.38317 0.98604 1.02023 0.0
C173 C 0.34636 0.96952 1.0059 0.0
C174 C 0.43726 0.04395 1.02841 0.0
C175 C 0.50074 0.99922 0.14113 0.0
H176 H 0.75427 0.12363 0.21386 0.0
H177 H 0.70218 0.0784 0.18176 0.0
H178 H 0.62731 0.15082 0.19476 0.0
H179 H 0.67942 0.19628 0.22688 0.0
H180 H 0.31421 0.04742 0.99531 0.0
H181 H 0.37883 0.07635 1.01961 0.0
H182 H 0.40256 0.96867 1.02558 0.0
H183 H 0.33876 0.93998 1.00026 0.0
Tb184 Tb 0.50611 0.51965 0.54232 0.0
Tb185 Tb 0.51006 0.59193 0.59274 0.0
C186 C 0.47652 0.58799 0.50816 0.0
C187 C 0.54697 0.44877 0.50611 0.0
C188 C 0.61705 0.42794 0.50335 0.0
C189 C 0.58956 0.41791 0.47384 0.0
C190 C 0.55485 0.42839 0.47516 0.0
C191 C 0.57392 0.45798 0.536 0.0
C192 C 0.60849 0.44762 0.53469 0.0
C193 C 0.5132 0.46417 0.50569 0.0
O194 O 0.56715 0.55115 0.54184 0.0
O195 O 0.56084 0.60905 0.55468 0.0
O196 O 0.54893 0.56404 0.62243 0.0
O197 O 0.5205 0.50566 0.6014 0.0
O198 O 0.51747 0.64954 0.59713 0.0
O199 O 0.5061 0.6136 0.64738 0.0
O200 O 0.45803 0.54901 0.61235 0.0
O201 O 0.44553 0.51093 0.56041 0.0
O202 O 0.49119 0.55975 0.50128 0.0
O203 O 0.47408 0.59899 0.54362 0.0
C204 C 0.58093 0.58757 0.54041 0.0
O205 O 0.49415 0.46141 0.53801 0.0
O206 O 0.51984 0.49758 0.49067 0.0
C207 C 0.54245 0.52768 0.62639 0.0
C208 C 0.47616 0.66203 0.64406 0.0
C209 C 0.41365 0.6897 0.66555 0.0
C210 C 0.45015 0.70318 0.68264 0.0
C211 C 0.48118 0.68941 0.67194 0.0
C212 C 0.43989 0.64844 0.62695 0.0
C213 C 0.40892 0.66222 0.63751 0.0
C214 C 0.50827 0.64678 0.63346 0.0
C215 C 0.43463 0.52174 0.59347 0.0
H216 H 0.59544 0.40308 0.44909 0.0
H217 H 0.5347 0.42152 0.45155 0.0
H218 H 0.56868 0.47407 0.56 0.0
H219 H 0.62869 0.45533 0.55814 0.0
H220 H 0.4546 0.72397 0.70469 0.0
H221 H 0.50897 0.69993 0.6856 0.0
H222 H 0.43554 0.62712 0.60543 0.0
H223 H 0.38138 0.65162 0.62343 0.0
Tb224 Tb 1.00902 0.59619 0.04634 0.0
Tb225 Tb 1.00564 0.52387 0.09992 0.0
C226 C 0.03957 0.53017 1.01409 0.0
C227 C 0.97457 0.66398 0.98926 0.0
C228 C 0.91098 0.68855 0.96379 0.0
C229 C 0.94863 0.7065 0.95071 0.0
C230 C 0.98021 0.69421 0.96332 0.0
C231 C 0.93713 0.646 1.00236 0.0
C232 C 0.9056 0.65812 0.9897 0.0
C233 C 1.0073 0.65044 1.00222 0.0
O234 O 0.95428 0.55565 1.03197 0.0
O235 O 0.94525 0.51378 0.08277 0.0
O236 O 0.99111 0.56417 0.13982 0.0
O237 O 0.97616 0.60577 0.09696 0.0
O238 O 0.99206 0.46576 0.10864 0.0
O239 O 0.02181 0.50285 0.15199 0.0
O240 O 0.06655 0.55458 0.096 0.0
O241 O 0.06002 0.61278 0.0831 0.0
O242 O 0.0458 0.56664 1.01592 0.0
O243 O 1.01896 0.50857 1.0413 0.0
C244 C 0.93264 0.52674 0.05131 0.0
O245 O 1.01484 0.65357 1.03876 0.0
O246 O 1.00713 0.61755 0.99029 0.0
C247 C 0.97803 0.59369 0.13268 0.0
C248 C 0.04558 0.45207 0.13838 0.0
C249 C 0.11479 0.42991 0.13873 0.0
C250 C 0.09007 0.42301 0.1711 0.0
C251 C 0.05575 0.43417 0.17095 0.0
C252 C 0.06964 0.45798 0.10571 0.0
C253 C 0.10379 0.4469 0.10582 0.0
C254 C 1.01294 0.46891 0.13962 0.0
C255 C 0.08021 0.5909 0.09712 0.0
H256 H 0.9536 0.72985 0.93053 0.0
H257 H 1.00896 0.70822 0.95281 0.0
H258 H 0.93233 0.62262 1.02251 0.0
H259 H 0.8771 0.6441 1.00078 0.0
H260 H 0.09796 0.41028 0.19702 0.0
H261 H 0.03787 0.42994 0.19662 0.0
H262 H 0.06265 0.47219 0.08039 0.0
H263 H 0.12187 0.45213 0.08027 0.0
H264 H 0.31952 0.27213 0.22668 0.0
H265 H 0.40897 0.33286 0.3012 0.0
H266 H 0.28726 0.23412 0.281 0.0
H267 H 0.37604 0.29507 0.35677 0.0
H268 H 0.30829 0.18439 0.43139 0.0
H269 H 0.35091 0.22357 0.38284 0.0
H270 H 0.25371 0.2577 0.33696 0.0
H271 H 0.21119 0.21831 0.38439 0.0
C272 C 0.33295 0.27617 0.25467 0.0
C273 C 0.36694 0.30455 0.25995 0.0
C274 C 0.31422 0.25505 0.28581 0.0
C275 C 0.32891 0.26218 0.32303 0.0
C276 C 0.36426 0.28914 0.32824 0.0
C277 C 0.38312 0.31049 0.29672 0.0
C278 C 0.29621 0.20065 0.41116 0.0
C279 C 0.25632 0.19801 0.41145 0.0
C280 C 0.32062 0.22316 0.38366 0.0
C281 C 0.30534 0.24302 0.35594 0.0
C282 C 0.26602 0.24215 0.35777 0.0
C283 C 0.24176 0.21991 0.38521 0.0
H284 H 0.14619 0.84446 0.85247 0.0
H285 H 0.24866 0.90108 0.78902 0.0
H286 H 0.16742 0.8866 0.90664 0.0
H287 H 0.26954 0.94368 0.84175 0.0
H288 H 0.29838 1.02396 0.9318 0.0
H289 H 0.25442 0.99315 0.88222 0.0
H290 H 0.22553 0.89156 0.95089 0.0
H291 H 0.26879 0.92272 1.00135 0.0
C292 C 0.1724 0.86697 0.8497 0.0
C293 C 0.19542 0.87054 0.81654 0.0
C294 C 0.18466 0.8908 0.88054 0.0
C295 C 0.21992 0.91866 0.87824 0.0
C296 C 0.24179 0.92315 0.84409 0.0
C297 C 0.22988 0.899 0.8138 0.0
C298 C 0.28151 0.99553 0.93722 0.0
C299 C 0.28761 0.97562 0.97038 0.0
C300 C 0.25652 0.97781 0.90857 0.0
C301 C 0.23709 0.93984 0.91243 0.0
C302 C 0.2401 0.9209 0.94716 0.0
C303 C 0.26519 0.93864 0.97588 0.0
H304 H 0.63304 0.38452 0.78904 0.0
H305 H 0.62768 0.47914 0.85545 0.0
H306 H 0.60881 0.41157 0.73274 0.0
H307 H 0.60278 0.50625 0.79971 0.0
H308 H 0.5898 0.5635 0.6846 0.0
H309 H 0.61529 0.53632 0.73973 0.0
H310 H 0.55707 0.42612 0.70141 0.0
H311 H 0.5327 0.45341 0.64577 0.0
C312 C 0.62628 0.41099 0.79172 0.0
C313 C 0.63246 0.42957 0.82694 0.0
C314 C 0.61219 0.42667 0.75931 0.0
C315 C 0.60358 0.46155 0.76087 0.0
C316 C 0.60957 0.47986 0.79645 0.0
C317 C 0.62376 0.46421 0.82875 0.0
C318 C 0.58251 0.53344 0.68775 0.0
C319 C 0.55899 0.51091 0.66023 0.0
C320 C 0.59697 0.51765 0.71984 0.0
C321 C 0.58845 0.47861 0.7259 0.0
C322 C 0.56508 0.45616 0.69811 0.0
C323 C 0.55073 0.47195 0.66599 0.0
H324 H 0.88044 0.73833 0.28419 0.0
H325 H 0.94451 0.68671 0.36155 0.0
H326 H 0.90238 0.70864 0.2298 0.0
H327 H 0.96813 0.65782 0.30748 0.0
H328 H 0.97244 0.57618 0.21117 0.0
H329 H 0.95573 0.61099 0.26415 0.0
H330 H 0.94247 0.69648 0.18373 0.0
H331 H 0.95775 0.66076 0.13086 0.0
C332 C 0.90109 0.72227 0.28941 0.0
C333 C 0.91178 0.7165 0.32761 0.0
C334 C 0.91346 0.70446 0.25795 0.0
C335 C 0.93714 0.67972 0.26308 0.0
C336 C 0.94942 0.67561 0.30129 0.0
C337 C 0.93676 0.69326 0.33268 0.0
C338 C 0.96575 0.60229 0.20458 0.0
C339 C 0.96641 0.61498 0.16595 0.0
C340 C 0.95644 0.62287 0.23545 0.0
C341 C 0.94759 0.6575 0.22946 0.0
C342 C 0.94831 0.67007 0.19064 0.0
C343 C 0.95736 0.64936 0.15978 0.0
H344 H 0.35291 0.25483 0.1734 0.0
H345 H 0.46632 0.31863 0.20624 0.0
H346 H 0.37636 0.19968 0.16662 0.0
H347 H 0.49165 0.26483 0.19579 0.0
H348 H 0.52529 0.15702 0.19864 0.0
H349 H 0.49755 0.20781 0.21524 0.0
H350 H 0.41002 0.17171 0.12827 0.0
H351 H 0.43584 0.11973 0.11447 0.0
C352 C 0.38307 0.25682 0.17885 0.0
C353 C 0.40793 0.29046 0.19054 0.0
C354 C 0.39683 0.22544 0.17448 0.0
C355 C 0.43622 0.2274 0.18031 0.0
C356 C 0.46106 0.26161 0.19178 0.0
C357 C 0.44686 0.29265 0.19732 0.0
C358 C 0.49963 0.15972 0.18378 0.0
C359 C 0.48251 0.13427 0.15558 0.0
C360 C 0.48392 0.18914 0.19286 0.0
C361 C 0.45145 0.19444 0.17303 0.0
C362 C 0.4343 0.16845 0.14506 0.0
C363 C 0.44928 0.13852 0.13689 0.0
H364 H 0.09551 0.834 0.73758 0.0
H365 H 0.20743 0.91303 0.73953 0.0
H366 H 0.06945 0.87928 0.70244 0.0
H367 H 0.18139 0.95968 0.70755 0.0
H368 H 0.02598 0.97425 0.65662 0.0
H369 H 0.05063 0.93465 0.70085 0.0
H370 H 0.16293 0.97144 0.64571 0.0
H371 H 0.13866 1.0124 0.60308 0.0
C372 C 0.11405 0.86168 0.73163 0.0
C373 C 0.15312 0.87047 0.74181 0.0
C374 C 0.09926 0.88773 0.71168 0.0
C375 C 0.12332 0.92328 0.70186 0.0
C376 C 0.16209 0.93247 0.71392 0.0
C377 C 0.17692 0.90612 0.73316 0.0
C378 C 0.05601 0.97398 0.6542 0.0
C379 C 0.08041 0.99631 0.62635 0.0
C380 C 0.07013 0.95114 0.67944 0.0
C381 C 0.10882 0.94962 0.67697 0.0
C382 C 0.13322 0.97234 0.6492 0.0
C383 C 0.11926 0.99567 0.62444 0.0
H384 H 0.69683 0.46563 0.95917 0.0
H385 H 0.74224 0.37448 0.9275 0.0
H386 H 0.75544 0.49291 0.99566 0.0
H387 H 0.801 0.4012 0.96519 0.0
H388 H 0.88995 0.45372 0.06328 0.0
H389 H 0.82823 0.42118 1.03389 0.0
H390 H 0.82492 0.52283 0.97412 0.0
H391 H 0.88672 0.55502 1.00264 0.0
C392 C 0.71907 0.45094 0.96084 0.0
C393 C 0.71484 0.41794 0.94027 0.0
C394 C 0.75287 0.46673 0.98152 0.0
C395 C 0.78347 0.4497 0.98302 0.0
C396 C 0.77814 0.41518 0.96473 0.0
C397 C 0.74435 0.39963 0.94336 0.0
C398 C 0.87593 0.46923 0.04409 0.0
C399 C 0.89352 0.50722 1.03562 0.0
C400 C 0.84061 0.45043 1.02698 0.0
C401 C 0.82129 0.46925 1.00159 0.0
C402 C 0.8386 0.50737 0.99373 0.0
C403 C 0.87424 0.5259 1.01009 0.0
H404 H 0.77233 0.733 0.40574 0.0
H405 H 0.81636 0.63998 0.43746 0.0
H406 H 0.7117 0.70401 0.43966 0.0
H407 H 0.75605 0.61081 0.47235 0.0
H408 H 0.62903 0.55231 0.50359 0.0
H409 H 0.68955 0.58006 0.46934 0.0
H410 H 0.68186 0.68962 0.5 0.0
H411 H 0.62081 0.66183 0.53324 0.0
C412 C 0.76895 0.70627 0.42013 0.0
C413 C 0.79917 0.68881 0.41882 0.0
C414 C 0.73421 0.68961 0.43995 0.0
C415 C 0.72842 0.65487 0.45939 0.0
C416 C 0.75873 0.63724 0.45758 0.0
C417 C 0.7935 0.65394 0.43761 0.0
C418 C 0.64026 0.58235 0.50323 0.0
C419 C 0.61958 0.60466 0.5214 0.0
C420 C 0.67534 0.5984 0.48357 0.0
C421 C 0.69117 0.63741 0.48135 0.0
C422 C 0.67069 0.65961 0.50011 0.0
C423 C 0.63557 0.64356 0.51966 0.0
H424 H 0.35427 0.43546 0.17833 0.0
H425 H 0.30159 0.32194 0.1475 0.0
H426 H 0.29427 0.45193 0.16239 0.0
H427 H 0.24205 0.33813 0.13034 0.0
H428 H 0.1307 0.36696 0.16807 0.0
H429 H 0.19324 0.353 0.17115 0.0
H430 H 0.24688 0.45798 0.11352 0.0
H431 H 0.18449 0.47251 0.11161 0.0
C432 C 0.33025 0.4145 0.16665 0.0
C433 C 0.33239 0.37765 0.16376 0.0
C434 C 0.29592 0.42375 0.15763 0.0
C435 C 0.26321 0.39615 0.14565 0.0
C436 C 0.26649 0.35986 0.14012 0.0
C437 C 0.30071 0.35069 0.14923 0.0
C438 C 0.15585 0.38709 0.15617 0.0
C439 C 0.15261 0.42079 0.13959 0.0
C440 C 0.19161 0.37891 0.15746 0.0
C441 C 0.225 0.40428 0.14226 0.0
C442 C 0.22174 0.43792 0.12553 0.0
C443 C 0.18593 0.44606 0.12416 0.0
H444 H 0.65223 0.36789 0.98633 0.0
H445 H 0.65063 0.30497 0.88369 0.0
H446 H 0.63294 0.30929 1.02462 0.0
H447 H 0.63008 0.24679 0.92124 0.0
H448 H 0.54259 0.15435 0.9917 0.0
H449 H 0.56874 0.21338 0.95689 0.0
H450 H 0.65299 0.24946 0.046 0.0
H451 H 0.62723 0.18973 0.0807 0.0
C452 C 0.64844 0.34166 0.972 0.0
C453 C 0.65264 0.34133 0.93172 0.0
C454 C 0.63711 0.30794 0.99391 0.0
C455 C 0.62913 0.27293 0.97611 0.0
C456 C 0.63506 0.27291 0.93608 0.0
C457 C 0.64698 0.3064 0.91445 0.0
C458 C 0.56679 0.17467 1.00399 0.0
C459 C 0.58272 0.16674 1.03917 0.0
C460 C 0.58197 0.20869 0.98383 0.0
C461 C 0.61321 0.23656 0.99835 0.0
C462 C 0.62889 0.22894 1.03382 0.0
C463 C 0.6142 0.19445 0.05366 0.0
H464 H 0.88231 0.81698 0.357 0.0
H465 H 0.95968 0.76749 0.4195 0.0
H466 H 0.91271 0.87741 0.38509 0.0
H467 H 0.99092 0.8281 0.44749 0.0
H468 H 0.05204 0.95212 0.4778 0.0
H469 H 0.0292 0.89463 0.44168 0.0
H470 H 0.91254 0.90469 0.44895 0.0
H471 H 0.9353 0.96184 0.48551 0.0
C472 C 0.90741 0.81943 0.37503 0.0
C473 C 0.91911 0.78707 0.38464 0.0
C474 C 0.92428 0.85409 0.3922 0.0
C475 C 0.95416 0.85824 0.4195 0.0
C476 C 0.96819 0.82664 0.42669 0.0
C477 C 0.95076 0.79174 0.40989 0.0
C478 C 1.02146 0.94225 0.47174 0.0
C479 C 0.99577 0.96233 0.48496 0.0
C480 C 1.00824 0.90888 0.45097 0.0
C481 C 0.9688 0.89441 0.44172 0.0
C482 C 0.94318 0.9147 0.4547 0.0
C483 C 0.95629 0.94767 0.47609 0.0
H484 H 0.2088 0.72967 0.77159 0.0
H485 H 0.25326 0.82497 0.69663 0.0
H486 H 0.25934 0.70183 0.74894 0.0
H487 H 0.30274 0.79697 0.67257 0.0
H488 H 0.41467 0.76187 0.67946 0.0
H489 H 0.36088 0.78592 0.69853 0.0
H490 H 0.28372 0.67499 0.6943 0.0
H491 H 0.33802 0.65061 0.67693 0.0
C492 C 0.22901 0.74412 0.74964 0.0
C493 C 0.22735 0.77916 0.7356 0.0
C494 C 0.25777 0.72828 0.73655 0.0
C495 C 0.28527 0.74737 0.70917 0.0
C496 C 0.28243 0.78185 0.69412 0.0
C497 C 0.25388 0.79765 0.70739 0.0
C498 C 0.38633 0.74254 0.68298 0.0
C499 C 0.38067 0.70433 0.67675 0.0
C500 C 0.35536 0.75639 0.69338 0.0
C501 C 0.31793 0.73239 0.69766 0.0
C502 C 0.31223 0.69416 0.69147 0.0
C503 C 0.34327 0.68027 0.68112 0.0
H504 H 0.6704 0.79316 0.80031 0.0
H505 H 0.7602 0.84128 0.88047 0.0
H506 H 0.71622 0.81328 0.74659 0.0
H507 H 0.80609 0.86176 0.82749 0.0
H508 H 0.88627 0.88765 0.72825 0.0
H509 H 0.84224 0.84616 0.77361 0.0
H510 H 0.74555 0.87582 0.72035 0.0
H511 H 0.78935 0.91708 0.67524 0.0
C512 C 0.70031 0.80721 0.80621 0.0
C513 C 0.71221 0.81561 0.84406 0.0
C514 C 0.72639 0.81888 0.77573 0.0
C515 C 0.76474 0.83924 0.78278 0.0
C516 C 0.77698 0.84564 0.82104 0.0
C517 C 0.75086 0.83403 0.85139 0.0
C518 C 0.85552 0.8848 0.72591 0.0
C519 C 0.84131 0.90601 0.69853 0.0
C520 C 0.83035 0.86104 0.75183 0.0
C521 C 0.79048 0.85802 0.75083 0.0
C522 C 0.77604 0.87716 0.72165 0.0
C523 C 0.80119 0.9009 0.69575 0.0
H524 H 0.89878 0.33444 0.33416 0.0
H525 H 0.84334 0.25646 0.42329 0.0
H526 H 0.86395 0.29174 0.28517 0.0
H527 H 0.80962 0.21343 0.37498 0.0
H528 H 0.70828 0.19187 0.29132 0.0
H529 H 0.75596 0.22791 0.335 0.0
H530 H 0.84745 0.22483 0.25548 0.0
H531 H 0.79921 0.18867 0.21106 0.0
C532 C 0.88047 0.30743 0.34299 0.0
C533 C 0.8735 0.2985 0.38217 0.0
C534 C 0.86058 0.2831 0.31517 0.0
C535 C 0.8336 0.24972 0.32649 0.0
C536 C 0.82986 0.23928 0.3656 0.0
C537 C 0.84952 0.26355 0.39319 0.0
C538 C 0.73847 0.19927 0.28283 0.0
C539 C 0.75003 0.18764 0.24774 0.0
C540 C 0.76582 0.21941 0.30808 0.0
C541 C 0.80539 0.22852 0.29882 0.0
C542 C 0.8171 0.21788 0.2633 0.0
C543 C 0.7896 0.19725 0.23804 0.0
H544 H 0.43718 0.68161 0.279 0.0
H545 H 0.37352 0.73121 0.35677 0.0
H546 H 0.46267 0.65283 0.33319 0.0
H547 H 0.39704 0.70137 0.41131 0.0
H548 H 0.45658 0.65481 0.5091 0.0
H549 H 0.43986 0.69074 0.4557 0.0
H550 H 0.44986 0.60509 0.37761 0.0
H551 H 0.46831 0.57017 0.43099 0.0
C552 C 0.42982 0.68755 0.30794 0.0
C553 C 0.40446 0.71009 0.31335 0.0
C554 C 0.44357 0.67008 0.33934 0.0
C555 C 0.43183 0.6737 0.37764 0.0
C556 C 0.40767 0.69773 0.38296 0.0
C557 C 0.39433 0.71548 0.3515 0.0
C558 C 0.45514 0.64346 0.48056 0.0
C559 C 0.46384 0.60913 0.47495 0.0
C560 C 0.44528 0.66425 0.4495 0.0
C561 C 0.44327 0.65156 0.41128 0.0
C562 C 0.45167 0.61692 0.40589 0.0
C563 C 0.46194 0.59634 0.43692 0.0
H564 H 0.12687 0.4793 0.78645 0.0
H565 H 0.12481 0.38218 0.85621 0.0
H566 H 0.1024 0.50728 0.84065 0.0
H567 H 0.10111 0.41007 0.91101 0.0
H568 H 0.02969 0.45545 0.99834 0.0
H569 H 0.05325 0.42735 0.94394 0.0
H570 H 0.11082 0.53694 0.89869 0.0
H571 H 0.08597 0.56485 0.95256 0.0
C572 C 0.12148 0.46394 0.81354 0.0
C573 C 0.12804 0.42828 0.81651 0.0
C574 C 0.10745 0.48015 0.84511 0.0
C575 C 0.09942 0.46156 0.88137 0.0
C576 C 0.10596 0.42567 0.88407 0.0
C577 C 0.11982 0.40942 0.85239 0.0
C578 C 0.04737 0.47373 0.97685 0.0
C579 C 0.05555 0.51279 0.98051 0.0
C580 C 0.06134 0.45742 0.94531 0.0
C581 C 0.08441 0.4793 0.91578 0.0
C582 C 0.09278 0.51846 0.91974 0.0
C583 C 0.07864 0.53476 0.95123 0.0
H584 H 0.58401 0.85166 0.89713 0.0
H585 H 0.66962 0.85514 0.98472 0.0
H586 H 0.56513 0.90249 0.92772 0.0
H587 H 0.64776 0.90197 1.01826 0.0
H588 H 0.63535 1.01296 0.05082 0.0
H589 H 0.65289 0.96358 1.01648 0.0
H590 H 0.53515 0.92467 0.9758 0.0
H591 H 0.51921 0.97642 1.00738 0.0
C592 C 0.59799 0.86268 0.92355 0.0
C593 C 0.62813 0.84938 0.93859 0.0
C594 C 0.58699 0.89159 0.94142 0.0
C595 C 0.60521 0.90708 0.97543 0.0
C596 C 0.63378 0.89193 0.99154 0.0
C597 C 0.64562 0.86407 0.97294 0.0
C598 C 0.61361 0.9941 1.03388 0.0
C599 C 0.57617 0.99845 1.03131 0.0
C600 C 0.62333 0.96534 1.01464 0.0
C601 C 0.59531 0.9393 0.99372 0.0
C602 C 0.55781 0.94422 0.99096 0.0
C603 C 0.54853 0.97383 1.00914 0.0
H604 H 0.88253 0.26947 0.4994 0.0
H605 H 0.9601 0.31163 0.40452 0.0
H606 H 0.91212 0.2183 0.50916 0.0
H607 H 0.9894 0.25941 0.41327 0.0
H608 H 0.05417 0.17859 0.47672 0.0
H609 H 0.02899 0.23188 0.4592 0.0
H610 H 0.91234 0.16234 0.47429 0.0
H611 H 0.93737 0.10985 0.49229 0.0
C612 C 0.90661 0.26822 0.48124 0.0
C613 C 0.91977 0.29495 0.45187 0.0
C614 C 0.92309 0.23849 0.48623 0.0
C615 C 0.95292 0.23454 0.46172 0.0
C616 C 0.96665 0.26176 0.43275 0.0
C617 C 0.94999 0.29154 0.42772 0.0
C618 C 0.02318 0.17458 0.47512 0.0
C619 C 0.9977 0.14021 0.48609 0.0
C620 C 1.00875 0.20509 0.46534 0.0
C621 C 0.96867 0.20155 0.46635 0.0
C622 C 0.94337 0.16631 0.47435 0.0
C623 C 0.9577 0.13612 0.48426 0.0
H624 H 0.26259 0.72744 0.23986 0.0
H625 H 0.31246 0.64109 0.20227 0.0
H626 H 0.20371 0.69987 0.20391 0.0
H627 H 0.25387 0.61338 0.16553 0.0
H628 H 0.12823 0.55402 0.13263 0.0
H629 H 0.18727 0.58027 0.1684 0.0
H630 H 0.17812 0.69119 0.141 0.0
H631 H 0.11853 0.66487 0.10605 0.0
C632 C 0.26083 0.70246 0.2238 0.0
C633 C 0.29211 0.68643 0.22389 0.0
C634 C 0.22717 0.68671 0.20287 0.0
C635 C 0.22371 0.65437 0.18123 0.0
C636 C 0.25496 0.63798 0.18199 0.0
C637 C 0.28865 0.65381 0.20302 0.0
C638 C 0.13888 0.58406 0.13394 0.0
C639 C 0.11829 0.60722 0.11626 0.0
C640 C 0.17303 0.5992 0.15448 0.0
C641 C 0.1878 0.63805 0.15809 0.0
C642 C 0.16755 0.66117 0.1397 0.0
C643 C 0.13338 0.64603 0.11921 0.0
H644 H 0.18825 0.43303 0.66203 0.0
H645 H 0.25181 0.39476 0.75134 0.0
H646 H 0.24868 0.45897 0.6256 0.0
H647 H 0.31244 0.42145 0.71583 0.0
H648 H 0.41245 0.52075 0.66919 0.0
H649 H 0.35138 0.4877 0.6999 0.0
H650 H 0.30687 0.44406 0.59047 0.0
H651 H 0.36878 0.47661 0.5596 0.0
C652 C 0.215 0.42898 0.67321 0.0
C653 C 0.21492 0.41068 0.70908 0.0
C654 C 0.24983 0.44421 0.65252 0.0
C655 C 0.28591 0.4427 0.66764 0.0
C656 C 0.28553 0.42351 0.70314 0.0
C657 C 0.25067 0.40763 0.72333 0.0
C658 C 0.38981 0.50415 0.65143 0.0
C659 C 0.39607 0.50164 0.61163 0.0
C660 C 0.35463 0.48486 0.66925 0.0
C661 C 0.3238 0.46281 0.64796 0.0
C662 C 0.32969 0.4607 0.60799 0.0
C663 C 0.36537 0.47938 0.59023 0.0
H664 H 0.73511 0.80582 0.96305 0.0
H665 H 0.70099 0.73292 0.86743 0.0
H666 H 0.78968 0.77998 0.97539 0.0
H667 H 0.75662 0.70731 0.87889 0.0
H668 H 0.83903 0.64727 0.9427 0.0
H669 H 0.78244 0.66974 0.92802 0.0
H670 H 0.85106 0.78305 0.94211 0.0
H671 H 0.9072 0.76063 0.95782 0.0
C672 C 0.7389 0.78351 0.94531 0.0
C673 C 0.71351 0.77052 0.91498 0.0
C674 C 0.77051 0.76924 0.95182 0.0
C675 C 0.77756 0.7418 0.92794 0.0
C676 C 0.7517 0.72825 0.89793 0.0
C677 C 0.72 0.74273 0.89135 0.0
C678 C 0.84196 0.67698 0.94266 0.0
C679 C 0.87748 0.70219 0.95167 0.0
C680 C 0.80968 0.68982 0.93392 0.0
C681 C 0.81227 0.7281 0.93427 0.0
C682 C 0.84807 0.75333 0.94218 0.0
C683 C 0.88033 0.74053 0.95075 0.0
H684 H 0.38446 0.81197 0.29578 0.0
H685 H 0.44345 0.76226 0.21336 0.0
H686 H 0.41638 0.8741 0.26899 0.0
H687 H 0.47478 0.82409 0.18562 0.0
H688 H 0.46742 0.92962 0.11203 0.0
H689 H 0.44657 0.86953 0.14657 0.0
H690 H 0.4797 0.92444 0.25394 0.0
H691 H 0.50145 0.9845 0.2193 0.0
C692 C 0.406 0.81447 0.27335 0.0
C693 C 0.41221 0.78195 0.25767 0.0
C694 C 0.42379 0.85014 0.25735 0.0
C695 C 0.44778 0.85444 0.22447 0.0
C696 C 0.4562 0.82214 0.21056 0.0
C697 C 0.43904 0.78662 0.22713 0.0
C698 C 0.47025 0.92904 0.14301 0.0
C699 C 0.48614 0.96236 0.16263 0.0
C700 C 0.45857 0.89436 0.16289 0.0
C701 C 0.46156 0.8917 0.20327 0.0
C702 C 0.47684 0.9251 0.22297 0.0
C703 C 0.48937 0.95969 0.20298 0.0
H704 H 0.14145 0.30066 0.76504 0.0
H705 H 0.14757 0.36515 0.66014 0.0
H706 H 0.12139 0.24304 0.72907 0.0
H707 H 0.12803 0.30743 0.62359 0.0
H708 H 0.11945 0.19375 0.56512 0.0
H709 H 0.14274 0.25189 0.59984 0.0
H710 H 0.06791 0.20426 0.69535 0.0
H711 H 0.04477 0.14617 0.66067 0.0
C712 C 0.13884 0.3026 0.73413 0.0
C713 C 0.14631 0.33798 0.71579 0.0
C714 C 0.12698 0.26931 0.71331 0.0
C715 C 0.12233 0.26976 0.67298 0.0
C716 C 0.13131 0.30529 0.6544 0.0
C717 C 0.14289 0.33872 0.67541 0.0
C718 C 0.10786 0.19549 0.59356 0.0
C719 C 0.08003 0.16454 0.60976 0.0
C720 C 0.12119 0.22925 0.61358 0.0
C721 C 0.10767 0.23353 0.65094 0.0
C722 C 0.07981 0.20251 0.66707 0.0
C723 C 0.06618 0.16891 0.6469 0.0
H724 H 0.85439 0.43239 0.44975 0.0
H725 H 0.80559 0.32122 0.49463 0.0
H726 H 0.79501 0.4492 0.46693 0.0
H727 H 0.74649 0.33772 0.51282 0.0
H728 H 0.63167 0.36317 0.48004 0.0
H729 H 0.69414 0.34939 0.47457 0.0
H730 H 0.75089 0.45845 0.51696 0.0
H731 H 0.68851 0.47271 0.52118 0.0
C732 C 0.83139 0.41211 0.4647 0.0
C733 C 0.83436 0.37573 0.47121 0.0
C734 C 0.79736 0.42153 0.4744 0.0
C735 C 0.76573 0.3946 0.49074 0.0
C736 C 0.76999 0.35891 0.49963 0.0
C737 C 0.80395 0.34958 0.48989 0.0
C738 C 0.65748 0.38426 0.48805 0.0
C739 C 0.65503 0.41902 0.50103 0.0
C740 C 0.69328 0.3762 0.48542 0.0
C741 C 0.72757 0.40273 0.4956 0.0
C742 C 0.72511 0.43744 0.50876 0.0
C743 C 0.68928 0.44546 0.5115 0.0
loop_
_geom_bond_atom_site_label_1
_geom_bond_atom_site_label_2
_geom_bond_distance
_geom_bond_site_symmetry_2
_ccdc_geom_bond_type
C0 N1 1.317 . S
C0 N2 1.348 . S
C0 C3 1.485 . S
N1 C0 1.317 . S
N1 N5 1.370 . S
N2 C0 1.348 . S
N2 C4 1.346 . S
C3 C0 1.485 . S
C3 H7 0.960 . S
C3 H8 0.961 . S
C3 H9 0.960 . S
C4 N2 1.346 . S
C4 N5 1.307 . S
C4 C6 1.486 . S
N5 N1 1.370 . S
N5 C4 1.307 . S
C6 C4 1.486 . S
C6 H10 0.960 . S
C6 H11 0.960 . S
C6 H12 0.959 . S
H7 C3 0.960 . S
H8 C3 0.961 . S
H9 C3 0.960 . S
H10 C6 0.960 . S
H11 C6 0.960 . S
H12 C6 0.959 . S
C13 N14 1.317 . S
C13 N15 1.348 . S
C13 C16 1.485 . S
N14 C13 1.317 . S
N14 N18 1.370 . S
N15 C13 1.348 . S
N15 C17 1.346 . S
C16 C13 1.485 . S
C16 H20 0.960 . S
C16 H21 0.961 . S
C16 H22 0.960 . S
C17 N15 1.346 . S
C17 N18 1.307 . S
C17 C19 1.486 . S
N18 N14 1.370 . S
N18 C17 1.307 . S
C19 C17 1.486 . S
C19 H23 0.960 . S
C19 H24 0.960 . S
C19 H25 0.959 . S
H20 C16 0.960 . S
H21 C16 0.961 . S
H22 C16 0.960 . S
H23 C19 0.960 . S
H24 C19 0.960 . S
H25 C19 0.959 . S
C26 N27 1.317 . S
C26 N28 1.348 . S
C26 C29 1.485 . S
N27 C26 1.317 . S
N27 N31 1.370 . S
N28 C26 1.348 . S
N28 C30 1.346 . S
C29 C26 1.485 . S
C29 H33 0.960 . S
C29 H34 0.961 . S
C29 H35 0.960 . S
C30 N28 1.346 . S
C30 N31 1.307 . S
C30 C32 1.486 . S
N31 N27 1.370 . S
N31 C30 1.307 . S
C32 C30 1.486 . S
C32 H36 0.960 . S
C32 H37 0.960 . S
C32 H38 0.959 . S
H33 C29 0.960 . S
H34 C29 0.961 . S
H35 C29 0.960 . S
H36 C32 0.960 . S
H37 C32 0.960 . S
H38 C32 0.959 . S
C39 N40 1.317 . S
C39 N41 1.348 . S
C39 C42 1.485 . S
N40 C39 1.317 . S
N40 N44 1.370 . S
N41 C39 1.348 . S
N41 C43 1.346 . S
C42 C39 1.485 . S
C42 H46 0.960 . S
C42 H47 0.961 . S
C42 H48 0.960 . S
C43 N41 1.346 . S
C43 N44 1.307 . S
C43 C45 1.486 . S
N44 N40 1.370 . S
N44 C43 1.307 . S
C45 C43 1.486 . S
C45 H49 0.960 . S
C45 H50 0.960 . S
C45 H51 0.959 . S
H46 C42 0.960 . S
H47 C42 0.961 . S
H48 C42 0.960 . S
H49 C45 0.960 . S
H50 C45 0.960 . S
H51 C45 0.959 . S
C52 N53 1.317 . S
C52 N54 1.348 . S
C52 C55 1.485 . S
N53 C52 1.317 . S
N53 N57 1.370 . S
N54 C52 1.348 . S
N54 C56 1.346 . S
C55 C52 1.485 . S
C55 H59 0.960 . S
C55 H60 0.961 . S
C55 H61 0.960 . S
C56 N54 1.346 . S
C56 N57 1.307 . S
C56 C58 1.486 . S
N57 N53 1.370 . S
N57 C56 1.307 . S
C58 C56 1.486 . S
C58 H62 0.960 . S
C58 H63 0.960 . S
C58 H64 0.959 . S
H59 C55 0.960 . S
H60 C55 0.961 . S
H61 C55 0.960 . S
H62 C58 0.960 . S
H63 C58 0.960 . S
H64 C58 0.959 . S
C65 N66 1.317 . S
C65 N67 1.348 . S
C65 C68 1.485 . S
N66 C65 1.317 . S
N66 N70 1.370 . S
N67 C65 1.348 . S
N67 C69 1.346 . S
C68 C65 1.485 . S
C68 H72 0.960 . S
C68 H73 0.961 . S
C68 H74 0.960 . S
C69 N67 1.346 . S
C69 N70 1.307 . S
C69 C71 1.486 . S
N70 N66 1.370 . S
N70 C69 1.307 . S
C71 C69 1.486 . S
C71 H75 0.960 . S
C71 H76 0.960 . S
C71 H77 0.959 . S
H72 C68 0.960 . S
H73 C68 0.961 . S
H74 C68 0.960 . S
H75 C71 0.960 . S
H76 C71 0.960 . S
H77 C71 0.959 . S
C78 N79 1.317 . S
C78 N80 1.348 . S
C78 C81 1.485 . S
N79 C78 1.317 . S
N79 N83 1.370 . S
N80 C78 1.348 . S
N80 C82 1.346 . S
C81 C78 1.485 . S
C81 H85 0.960 . S
C81 H86 0.961 . S
C81 H87 0.960 . S
C82 N80 1.346 . S
C82 N83 1.307 . S
C82 C84 1.486 . S
N83 N79 1.370 . S
N83 C82 1.307 . S
C84 C82 1.486 . S
C84 H88 0.960 . S
C84 H89 0.960 . S
C84 H90 0.959 . S
H85 C81 0.960 . S
H86 C81 0.961 . S
H87 C81 0.960 . S
H88 C84 0.960 . S
H89 C84 0.960 . S
H90 C84 0.959 . S
C91 N92 1.317 . S
C91 N93 1.348 . S
C91 C94 1.485 . S
N92 C91 1.317 . S
N92 N96 1.370 . S
N93 C91 1.348 . S
N93 C95 1.346 . S
C94 C91 1.485 . S
C94 H98 0.960 . S
C94 H99 0.961 . S
C94 H100 0.960 . S
C95 N93 1.346 . S
C95 N96 1.307 . S
C95 C97 1.486 . S
N96 N92 1.370 . S
N96 C95 1.307 . S
C97 C95 1.486 . S
C97 H101 0.960 . S
C97 H102 0.960 . S
C97 H103 0.959 . S
H98 C94 0.960 . S
H99 C94 0.961 . S
H100 C94 0.960 . S
H101 C97 0.960 . S
H102 C97 0.960 . S
H103 C97 0.959 . S
Tb104 C113 2.764 . S
Tb104 O114 2.325 . S
Tb104 O117 2.303 . S
Tb104 O121 2.322 1_545 S
Tb104 O122 2.349 1_545 S
Tb104 O125 2.415 . S
Tb104 O126 2.399 . S
Tb105 O115 2.322 . S
Tb105 O116 2.349 1_655 S
Tb105 O118 2.415 1_545 S
Tb105 O119 2.399 1_545 S
Tb105 O120 2.325 1_645 S
Tb105 O123 2.303 1_645 S
Tb105 C134 2.764 1_545 S
C106 O122 1.261 . S
C106 O123 1.257 . S
C107 C110 1.358 . S
C107 C111 1.332 . S
C107 C113 1.504 . S
C108 C109 1.373 . S
C108 C112 1.308 . S
C109 C108 1.373 . S
C109 C110 1.429 . S
C109 H136 0.932 . S
C110 C107 1.358 . S
C110 C109 1.429 . S
C110 H137 0.930 . S
C111 C107 1.332 . S
C111 C112 1.394 . S
C111 H138 0.932 . S
C112 C108 1.308 . S
C112 C111 1.394 . S
C112 H139 0.929 . S
C113 Tb104 2.764 . S
C113 C107 1.504 . S
C113 O125 1.239 . S
C113 O126 1.263 . S
O114 Tb104 2.325 . S
O114 C124 1.236 . S
O115 Tb105 2.322 . S
O115 C124 1.257 1_655 S
O116 Tb105 2.349 1_455 S
O116 C127 1.261 . S
O117 Tb104 2.303 . S
O117 C127 1.257 . S
O118 Tb105 2.415 1_565 S
O118 C134 1.239 . S
O119 Tb105 2.399 1_565 S
O119 C134 1.263 . S
O120 Tb105 2.325 1_465 S
O120 C135 1.236 . S
O121 Tb104 2.322 1_565 S
O121 C135 1.257 . S
O122 Tb104 2.349 1_565 S
O122 C106 1.261 . S
O123 Tb105 2.303 1_465 S
O123 C106 1.257 . S
C124 O114 1.236 . S
C124 O115 1.257 1_455 S
O125 Tb104 2.415 . S
O125 C113 1.239 . S
O126 Tb104 2.399 . S
O126 C113 1.263 . S
C127 O116 1.261 . S
C127 O117 1.257 . S
C128 C131 1.358 . S
C128 C132 1.332 . S
C128 C134 1.504 . S
C129 C130 1.373 . S
C129 C133 1.308 . S
C130 C129 1.373 . S
C130 C131 1.429 . S
C130 H140 0.932 . S
C131 C128 1.358 . S
C131 C130 1.429 . S
C131 H141 0.930 . S
C132 C128 1.332 . S
C132 C133 1.394 . S
C132 H142 0.932 . S
C133 C129 1.308 . S
C133 C132 1.394 . S
C133 H143 0.929 . S
C134 Tb105 2.764 1_565 S
C134 O118 1.239 . S
C134 O119 1.263 . S
C134 C128 1.504 . S
C135 O120 1.236 . S
C135 O121 1.257 . S
H136 C109 0.932 . S
H137 C110 0.930 . S
H138 C111 0.932 . S
H139 C112 0.929 . S
H140 C130 0.932 . S
H141 C131 0.930 . S
H142 C132 0.932 . S
H143 C133 0.929 . S
Tb144 C153 2.764 . S
Tb144 O154 2.325 . S
Tb144 O157 2.303 . S
Tb144 O161 2.322 1_545 S
Tb144 O162 2.351 1_545 S
Tb144 O165 2.415 . S
Tb144 O166 2.399 . S
Tb145 O155 2.322 . S
Tb145 O156 2.349 . S
Tb145 O158 2.415 1_544 S
Tb145 O159 2.399 1_545 S
Tb145 O160 2.325 1_545 S
Tb145 O163 2.303 . S
Tb145 C174 2.764 1_544 S
C146 O162 1.261 . S
C146 O163 1.257 1_565 S
C147 C150 1.358 . S
C147 C151 1.332 . S
C147 C153 1.504 . S
C148 C149 1.373 . S
C148 C152 1.308 . S
C149 C148 1.373 . S
C149 C150 1.429 . S
C149 H176 0.932 . S
C150 C147 1.358 . S
C150 C149 1.429 . S
C150 H177 0.930 . S
C151 C147 1.332 . S
C151 C152 1.394 . S
C151 H178 0.932 . S
C152 C148 1.308 . S
C152 C151 1.394 . S
C152 H179 0.929 . S
C153 Tb144 2.764 . S
C153 C147 1.504 . S
C153 O165 1.239 . S
C153 O166 1.263 . S
O154 Tb144 2.325 . S
O154 C164 1.236 . S
O155 Tb145 2.322 . S
O155 C164 1.257 . S
O156 Tb145 2.349 . S
O156 C167 1.261 . S
O157 Tb144 2.303 . S
O157 C167 1.257 . S
O158 Tb145 2.415 1_566 S
O158 C174 1.239 . S
O159 Tb145 2.399 1_565 S
O159 C174 1.263 1_554 S
O160 Tb145 2.325 1_565 S
O160 C175 1.236 . S
O161 Tb144 2.322 1_565 S
O161 C175 1.257 . S
O162 Tb144 2.351 1_565 S
O162 C146 1.261 . S
O163 Tb145 2.303 . S
O163 C146 1.257 1_545 S
C164 O154 1.236 . S
C164 O155 1.257 . S
O165 Tb144 2.415 . S
O165 C153 1.239 . S
O166 Tb144 2.399 . S
O166 C153 1.263 . S
C167 O156 1.261 . S
C167 O157 1.257 . S
C168 C171 1.358 . S
C168 C172 1.332 . S
C168 C174 1.504 . S
C169 C170 1.373 . S
C169 C173 1.308 . S
C170 C169 1.373 . S
C170 C171 1.429 . S
C170 H180 0.932 . S
C171 C168 1.358 . S
C171 C170 1.429 . S
C171 H181 0.930 . S
C172 C168 1.332 . S
C172 C173 1.394 . S
C172 H182 0.932 . S
C173 C169 1.308 . S
C173 C172 1.394 . S
C173 H183 0.929 . S
C174 Tb145 2.764 1_566 S
C174 O158 1.239 . S
C174 O159 1.263 1_556 S
C174 C168 1.504 . S
C175 O160 1.236 . S
C175 O161 1.257 . S
H176 C149 0.932 . S
H177 C150 0.930 . S
H178 C151 0.932 . S
H179 C152 0.929 . S
H180 C170 0.932 . S
H181 C171 0.930 . S
H182 C172 0.932 . S
H183 C173 0.929 . S
Tb184 C193 2.764 . S
Tb184 O194 2.325 . S
Tb184 O197 2.303 . S
Tb184 O201 2.322 . S
Tb184 O202 2.349 . S
Tb184 O205 2.415 . S
Tb184 O206 2.399 . S
Tb185 O195 2.322 . S
Tb185 O196 2.349 . S
Tb185 O198 2.415 . S
Tb185 O199 2.399 . S
Tb185 O200 2.325 . S
Tb185 O203 2.303 . S
Tb185 C214 2.764 . S
C186 O202 1.261 . S
C186 O203 1.257 . S
C187 C190 1.358 . S
C187 C191 1.332 . S
C187 C193 1.504 . S
C188 C189 1.373 . S
C188 C192 1.308 . S
C189 C188 1.373 . S
C189 C190 1.429 . S
C189 H216 0.932 . S
C190 C187 1.358 . S
C190 C189 1.429 . S
C190 H217 0.930 . S
C191 C187 1.332 . S
C191 C192 1.394 . S
C191 H218 0.932 . S
C192 C188 1.308 . S
C192 C191 1.394 . S
C192 H219 0.929 . S
C193 Tb184 2.764 . S
C193 C187 1.504 . S
C193 O205 1.239 . S
C193 O206 1.263 . S
O194 Tb184 2.325 . S
O194 C204 1.236 . S
O195 Tb185 2.322 . S
O195 C204 1.257 . S
O196 Tb185 2.349 . S
O196 C207 1.261 . S
O197 Tb184 2.303 . S
O197 C207 1.257 . S
O198 Tb185 2.415 . S
O198 C214 1.239 . S
O199 Tb185 2.399 . S
O199 C214 1.263 . S
O200 Tb185 2.325 . S
O200 C215 1.236 . S
O201 Tb184 2.322 . S
O201 C215 1.257 . S
O202 Tb184 2.349 . S
O202 C186 1.261 . S
O203 Tb185 2.303 . S
O203 C186 1.257 . S
C204 O194 1.236 . S
C204 O195 1.257 . S
O205 Tb184 2.415 . S
O205 C193 1.239 . S
O206 Tb184 2.399 . S
O206 C193 1.263 . S
C207 O196 1.261 . S
C207 O197 1.257 . S
C208 C211 1.358 . S
C208 C212 1.332 . S
C208 C214 1.504 . S
C209 C210 1.373 . S
C209 C213 1.308 . S
C210 C209 1.373 . S
C210 C211 1.429 . S
C210 H220 0.932 . S
C211 C208 1.358 . S
C211 C210 1.429 . S
C211 H221 0.930 . S
C212 C208 1.332 . S
C212 C213 1.394 . S
C212 H222 0.932 . S
C213 C209 1.308 . S
C213 C212 1.394 . S
C213 H223 0.929 . S
C214 Tb185 2.764 . S
C214 O198 1.239 . S
C214 O199 1.263 . S
C214 C208 1.504 . S
C215 O200 1.236 . S
C215 O201 1.257 . S
H216 C189 0.932 . S
H217 C190 0.930 . S
H218 C191 0.932 . S
H219 C192 0.929 . S
H220 C210 0.932 . S
H221 C211 0.930 . S
H222 C212 0.932 . S
H223 C213 0.929 . S
Tb224 C233 2.764 . S
Tb224 O234 2.325 . S
Tb224 O237 2.303 1_556 S
Tb224 O241 2.322 1_656 S
Tb224 O242 2.349 1_655 S
Tb224 O245 2.415 . S
Tb224 O246 2.399 . S
Tb225 O235 2.322 1_455 S
Tb225 O236 2.349 1_455 S
Tb225 O238 2.415 . S
Tb225 O239 2.399 . S
Tb225 O240 2.325 . S
Tb225 O243 2.303 1_554 S
Tb225 C254 2.764 . S
C226 O242 1.261 . S
C226 O243 1.257 . S
C227 C230 1.358 . S
C227 C231 1.332 . S
C227 C233 1.504 . S
C228 C229 1.373 . S
C228 C232 1.308 . S
C229 C228 1.373 . S
C229 C230 1.429 . S
C229 H256 0.932 . S
C230 C227 1.358 . S
C230 C229 1.429 . S
C230 H257 0.930 . S
C231 C227 1.332 . S
C231 C232 1.394 . S
C231 H258 0.932 . S
C232 C228 1.308 . S
C232 C231 1.394 . S
C232 H259 0.929 . S
C233 Tb224 2.764 . S
C233 C227 1.504 . S
C233 O245 1.239 . S
C233 O246 1.263 . S
O234 Tb224 2.325 . S
O234 C244 1.236 . S
O235 Tb225 2.322 1_655 S
O235 C244 1.257 1_554 S
O236 Tb225 2.349 1_655 S
O236 C247 1.261 . S
O237 Tb224 2.303 1_554 S
O237 C247 1.257 . S
O238 Tb225 2.415 . S
O238 C254 1.239 . S
O239 Tb225 2.399 . S
O239 C254 1.263 . S
O240 Tb225 2.325 . S
O240 C255 1.236 . S
O241 Tb224 2.322 1_454 S
O241 C255 1.257 . S
O242 Tb224 2.349 1_455 S
O242 C226 1.261 . S
O243 Tb225 2.303 1_556 S
O243 C226 1.257 . S
C244 O234 1.236 . S
C244 O235 1.257 1_556 S
O245 Tb224 2.415 . S
O245 C233 1.239 . S
O246 Tb224 2.399 . S
O246 C233 1.263 . S
C247 O236 1.261 . S
C247 O237 1.257 . S
C248 C251 1.358 . S
C248 C252 1.332 . S
C248 C254 1.504 . S
C249 C250 1.373 . S
C249 C253 1.308 . S
C250 C249 1.373 . S
C250 C251 1.429 . S
C250 H260 0.932 . S
C251 C248 1.358 . S
C251 C250 1.429 . S
C251 H261 0.930 . S
C252 C248 1.332 . S
C252 C253 1.394 . S
C252 H262 0.932 . S
C253 C249 1.308 . S
C253 C252 1.394 . S
C253 H263 0.929 . S
C254 Tb225 2.764 . S
C254 O238 1.239 . S
C254 O239 1.263 . S
C254 C248 1.504 . S
C255 O240 1.236 . S
C255 O241 1.257 . S
H256 C229 0.932 . S
H257 C230 0.930 . S
H258 C231 0.932 . S
H259 C232 0.929 . S
H260 C250 0.932 . S
H261 C251 0.930 . S
H262 C252 0.932 . S
H263 C253 0.929 . S
H264 C272 0.950 . S
H265 C277 0.950 . S
H266 C274 0.950 . S
H267 C276 0.950 . S
H268 C278 0.950 . S
H269 C280 0.950 . S
H270 C282 0.950 . S
H271 C283 0.950 . S
C272 H264 0.950 . S
C272 C273 1.386 . S
C272 C274 1.391 . S
C273 C272 1.386 . S
C273 C277 1.393 . S
C274 H266 0.950 . S
C274 C272 1.391 . S
C274 C275 1.400 . S
C275 C274 1.400 . S
C275 C276 1.398 . S
C275 C281 1.491 . S
C276 H267 0.950 . S
C276 C275 1.398 . S
C276 C277 1.391 . S
C277 H265 0.950 . S
C277 C273 1.393 . S
C277 C276 1.391 . S
C278 H268 0.950 . S
C278 C279 1.386 . S
C278 C280 1.391 . S
C279 C278 1.386 . S
C279 C283 1.393 . S
C280 H269 0.950 . S
C280 C278 1.391 . S
C280 C281 1.400 . S
C281 C275 1.491 . S
C281 C280 1.400 . S
C281 C282 1.398 . S
C282 H270 0.950 . S
C282 C281 1.398 . S
C282 C283 1.391 . S
C283 H271 0.950 . S
C283 C279 1.393 . S
C283 C282 1.391 . S
H284 C292 0.950 . S
H285 C297 0.950 . S
H286 C294 0.950 . S
H287 C296 0.950 . S
H288 C298 0.950 . S
H289 C300 0.950 . S
H290 C302 0.950 . S
H291 C303 0.950 . S
C292 H284 0.950 . S
C292 C293 1.386 . S
C292 C294 1.391 . S
C293 C292 1.386 . S
C293 C297 1.393 . S
C294 H286 0.950 . S
C294 C292 1.391 . S
C294 C295 1.400 . S
C295 C294 1.400 . S
C295 C296 1.398 . S
C295 C301 1.491 . S
C296 H287 0.950 . S
C296 C295 1.398 . S
C296 C297 1.391 . S
C297 H285 0.950 . S
C297 C293 1.393 . S
C297 C296 1.391 . S
C298 H288 0.950 . S
C298 C299 1.386 . S
C298 C300 1.391 . S
C299 C298 1.386 . S
C299 C303 1.393 . S
C300 H289 0.950 . S
C300 C298 1.391 . S
C300 C301 1.400 . S
C301 C295 1.491 . S
C301 C300 1.400 . S
C301 C302 1.398 . S
C302 H290 0.950 . S
C302 C301 1.398 . S
C302 C303 1.391 . S
C303 H291 0.950 . S
C303 C299 1.393 . S
C303 C302 1.391 . S
H304 C312 0.950 . S
H305 C317 0.950 . S
H306 C314 0.950 . S
H307 C316 0.950 . S
H308 C318 0.950 . S
H309 C320 0.950 . S
H310 C322 0.950 . S
H311 C323 0.950 . S
C312 H304 0.950 . S
C312 C313 1.386 . S
C312 C314 1.391 . S
C313 C312 1.386 . S
C313 C317 1.393 . S
C314 H306 0.950 . S
C314 C312 1.391 . S
C314 C315 1.400 . S
C315 C314 1.400 . S
C315 C316 1.398 . S
C315 C321 1.491 . S
C316 H307 0.950 . S
C316 C315 1.398 . S
C316 C317 1.391 . S
C317 H305 0.950 . S
C317 C313 1.393 . S
C317 C316 1.391 . S
C318 H308 0.950 . S
C318 C319 1.386 . S
C318 C320 1.391 . S
C319 C318 1.386 . S
C319 C323 1.393 . S
C320 H309 0.950 . S
C320 C318 1.391 . S
C320 C321 1.400 . S
C321 C315 1.491 . S
C321 C320 1.400 . S
C321 C322 1.398 . S
C322 H310 0.950 . S
C322 C321 1.398 . S
C322 C323 1.391 . S
C323 H311 0.950 . S
C323 C319 1.393 . S
C323 C322 1.391 . S
H324 C332 0.950 . S
H325 C337 0.950 . S
H326 C334 0.950 . S
H327 C336 0.950 . S
H328 C338 0.950 . S
H329 C340 0.950 . S
H330 C342 0.950 . S
H331 C343 0.950 . S
C332 H324 0.950 . S
C332 C333 1.386 . S
C332 C334 1.391 . S
C333 C332 1.386 . S
C333 C337 1.393 . S
C334 H326 0.950 . S
C334 C332 1.391 . S
C334 C335 1.400 . S
C335 C334 1.400 . S
C335 C336 1.398 . S
C335 C341 1.491 . S
C336 H327 0.950 . S
C336 C335 1.398 . S
C336 C337 1.391 . S
C337 H325 0.950 . S
C337 C333 1.393 . S
C337 C336 1.391 . S
C338 H328 0.950 . S
C338 C339 1.386 . S
C338 C340 1.391 . S
C339 C338 1.386 . S
C339 C343 1.393 . S
C340 H329 0.950 . S
C340 C338 1.391 . S
C340 C341 1.400 . S
C341 C335 1.491 . S
C341 C340 1.400 . S
C341 C342 1.398 . S
C342 H330 0.950 . S
C342 C341 1.398 . S
C342 C343 1.391 . S
C343 H331 0.950 . S
C343 C339 1.393 . S
C343 C342 1.391 . S
H344 C352 0.950 . S
H345 C357 0.950 . S
H346 C354 0.950 . S
H347 C356 0.950 . S
H348 C358 0.950 . S
H349 C360 0.950 . S
H350 C362 0.950 . S
H351 C363 0.950 . S
C352 H344 0.950 . S
C352 C353 1.386 . S
C352 C354 1.391 . S
C353 C352 1.386 . S
C353 C357 1.393 . S
C354 H346 0.950 . S
C354 C352 1.391 . S
C354 C355 1.400 . S
C355 C354 1.400 . S
C355 C356 1.398 . S
C355 C361 1.491 . S
C356 H347 0.950 . S
C356 C355 1.398 . S
C356 C357 1.391 . S
C357 H345 0.950 . S
C357 C353 1.393 . S
C357 C356 1.391 . S
C358 H348 0.950 . S
C358 C359 1.386 . S
C358 C360 1.391 . S
C359 C358 1.386 . S
C359 C363 1.393 . S
C360 H349 0.950 . S
C360 C358 1.391 . S
C360 C361 1.400 . S
C361 C355 1.491 . S
C361 C360 1.400 . S
C361 C362 1.398 . S
C362 H350 0.950 . S
C362 C361 1.398 . S
C362 C363 1.391 . S
C363 H351 0.950 . S
C363 C359 1.393 . S
C363 C362 1.391 . S
H364 C372 0.950 . S
H365 C377 0.950 . S
H366 C374 0.950 . S
H367 C376 0.950 . S
H368 C378 0.950 . S
H369 C380 0.950 . S
H370 C382 0.950 . S
H371 C383 0.950 . S
C372 H364 0.950 . S
C372 C373 1.386 . S
C372 C374 1.391 . S
C373 C372 1.386 . S
C373 C377 1.393 . S
C374 H366 0.950 . S
C374 C372 1.391 . S
C374 C375 1.400 . S
C375 C374 1.400 . S
C375 C376 1.398 . S
C375 C381 1.491 . S
C376 H367 0.950 . S
C376 C375 1.398 . S
C376 C377 1.391 . S
C377 H365 0.950 . S
C377 C373 1.393 . S
C377 C376 1.391 . S
C378 H368 0.950 . S
C378 C379 1.386 . S
C378 C380 1.391 . S
C379 C378 1.386 . S
C379 C383 1.393 . S
C380 H369 0.950 . S
C380 C378 1.391 . S
C380 C381 1.400 . S
C381 C375 1.491 . S
C381 C380 1.400 . S
C381 C382 1.398 . S
C382 H370 0.950 . S
C382 C381 1.398 . S
C382 C383 1.391 . S
C383 H371 0.950 . S
C383 C379 1.393 . S
C383 C382 1.391 . S
H384 C392 0.950 . S
H385 C397 0.950 . S
H386 C394 0.950 . S
H387 C396 0.950 . S
H388 C398 0.950 . S
H389 C400 0.950 . S
H390 C402 0.950 . S
H391 C403 0.950 . S
C392 H384 0.950 . S
C392 C393 1.386 . S
C392 C394 1.391 . S
C393 C392 1.386 . S
C393 C397 1.393 . S
C394 H386 0.950 . S
C394 C392 1.391 . S
C394 C395 1.400 . S
C395 C394 1.400 . S
C395 C396 1.398 . S
C395 C401 1.491 . S
C396 H387 0.950 . S
C396 C395 1.398 . S
C396 C397 1.391 . S
C397 H385 0.950 . S
C397 C393 1.393 . S
C397 C396 1.391 . S
C398 H388 0.950 . S
C398 C399 1.386 . S
C398 C400 1.391 . S
C399 C398 1.386 . S
C399 C403 1.393 . S
C400 H389 0.950 . S
C400 C398 1.391 . S
C400 C401 1.400 . S
C401 C395 1.491 . S
C401 C400 1.400 . S
C401 C402 1.398 . S
C402 H390 0.950 . S
C402 C401 1.398 . S
C402 C403 1.391 . S
C403 H391 0.950 . S
C403 C399 1.393 . S
C403 C402 1.391 . S
H404 C412 0.950 . S
H405 C417 0.950 . S
H406 C414 0.950 . S
H407 C416 0.950 . S
H408 C418 0.950 . S
H409 C420 0.950 . S
H410 C422 0.950 . S
H411 C423 0.950 . S
C412 H404 0.950 . S
C412 C413 1.386 . S
C412 C414 1.391 . S
C413 C412 1.386 . S
C413 C417 1.393 . S
C414 H406 0.950 . S
C414 C412 1.391 . S
C414 C415 1.400 . S
C415 C414 1.400 . S
C415 C416 1.398 . S
C415 C421 1.491 . S
C416 H407 0.950 . S
C416 C415 1.398 . S
C416 C417 1.391 . S
C417 H405 0.950 . S
C417 C413 1.393 . S
C417 C416 1.391 . S
C418 H408 0.950 . S
C418 C419 1.386 . S
C418 C420 1.391 . S
C419 C418 1.386 . S
C419 C423 1.393 . S
C420 H409 0.950 . S
C420 C418 1.391 . S
C420 C421 1.400 . S
C421 C415 1.491 . S
C421 C420 1.400 . S
C421 C422 1.398 . S
C422 H410 0.950 . S
C422 C421 1.398 . S
C422 C423 1.391 . S
C423 H411 0.950 . S
C423 C419 1.393 . S
C423 C422 1.391 . S
H424 C432 0.950 . S
H425 C437 0.950 . S
H426 C434 0.950 . S
H427 C436 0.950 . S
H428 C438 0.950 . S
H429 C440 0.950 . S
H430 C442 0.950 . S
H431 C443 0.950 . S
C432 H424 0.950 . S
C432 C433 1.386 . S
C432 C434 1.391 . S
C433 C432 1.386 . S
C433 C437 1.393 . S
C434 H426 0.950 . S
C434 C432 1.391 . S
C434 C435 1.400 . S
C435 C434 1.400 . S
C435 C436 1.398 . S
C435 C441 1.491 . S
C436 H427 0.950 . S
C436 C435 1.398 . S
C436 C437 1.391 . S
C437 H425 0.950 . S
C437 C433 1.393 . S
C437 C436 1.391 . S
C438 H428 0.950 . S
C438 C439 1.386 . S
C438 C440 1.391 . S
C439 C438 1.386 . S
C439 C443 1.393 . S
C440 H429 0.950 . S
C440 C438 1.391 . S
C440 C441 1.400 . S
C441 C435 1.491 . S
C441 C440 1.400 . S
C441 C442 1.398 . S
C442 H430 0.950 . S
C442 C441 1.398 . S
C442 C443 1.391 . S
C443 H431 0.950 . S
C443 C439 1.393 . S
C443 C442 1.391 . S
H444 C452 0.950 . S
H445 C457 0.950 . S
H446 C454 0.950 . S
H447 C456 0.950 . S
H448 C458 0.950 . S
H449 C460 0.950 . S
H450 C462 0.950 . S
H451 C463 0.950 . S
C452 H444 0.950 . S
C452 C453 1.386 . S
C452 C454 1.391 . S
C453 C452 1.386 . S
C453 C457 1.393 . S
C454 H446 0.950 . S
C454 C452 1.391 . S
C454 C455 1.400 . S
C455 C454 1.400 . S
C455 C456 1.398 . S
C455 C461 1.491 . S
C456 H447 0.950 . S
C456 C455 1.398 . S
C456 C457 1.391 . S
C457 H445 0.950 . S
C457 C453 1.393 . S
C457 C456 1.391 . S
C458 H448 0.950 . S
C458 C459 1.386 1_556 S
C458 C460 1.391 . S
C459 C458 1.386 1_554 S
C459 C463 1.393 . S
C460 H449 0.950 . S
C460 C458 1.391 . S
C460 C461 1.400 . S
C461 C455 1.491 . S
C461 C460 1.400 . S
C461 C462 1.398 1_556 S
C462 H450 0.950 . S
C462 C461 1.398 1_554 S
C462 C463 1.391 . S
C463 H451 0.950 . S
C463 C459 1.393 . S
C463 C462 1.391 . S
H464 C472 0.950 . S
H465 C477 0.950 . S
H466 C474 0.950 . S
H467 C476 0.950 . S
H468 C478 0.950 . S
H469 C480 0.950 1_455 S
H470 C482 0.950 . S
H471 C483 0.950 . S
C472 H464 0.950 . S
C472 C473 1.386 . S
C472 C474 1.391 . S
C473 C472 1.386 . S
C473 C477 1.393 . S
C474 H466 0.950 . S
C474 C472 1.391 . S
C474 C475 1.400 . S
C475 C474 1.400 . S
C475 C476 1.398 . S
C475 C481 1.491 . S
C476 H467 0.950 . S
C476 C475 1.398 . S
C476 C477 1.391 . S
C477 H465 0.950 . S
C477 C473 1.393 . S
C477 C476 1.391 . S
C478 H468 0.950 . S
C478 C479 1.386 1_455 S
C478 C480 1.391 1_455 S
C479 C478 1.386 1_655 S
C479 C483 1.393 . S
C480 H469 0.950 1_655 S
C480 C478 1.391 1_655 S
C480 C481 1.400 . S
C481 C475 1.491 . S
C481 C480 1.400 . S
C481 C482 1.398 . S
C482 H470 0.950 . S
C482 C481 1.398 . S
C482 C483 1.391 . S
C483 H471 0.950 . S
C483 C479 1.393 . S
C483 C482 1.391 . S
H484 C492 0.950 . S
H485 C497 0.950 . S
H486 C494 0.950 . S
H487 C496 0.950 . S
H488 C498 0.950 . S
H489 C500 0.950 . S
H490 C502 0.950 . S
H491 C503 0.950 . S
C492 H484 0.950 . S
C492 C493 1.386 . S
C492 C494 1.391 . S
C493 C492 1.386 . S
C493 C497 1.393 . S
C494 H486 0.950 . S
C494 C492 1.391 . S
C494 C495 1.400 . S
C495 C494 1.400 . S
C495 C496 1.398 . S
C495 C501 1.491 . S
C496 H487 0.950 . S
C496 C495 1.398 . S
C496 C497 1.391 . S
C497 H485 0.950 . S
C497 C493 1.393 . S
C497 C496 1.391 . S
C498 H488 0.950 . S
C498 C499 1.386 . S
C498 C500 1.391 . S
C499 C498 1.386 . S
C499 C503 1.393 . S
C500 H489 0.950 . S
C500 C498 1.391 . S
C500 C501 1.400 . S
C501 C495 1.491 . S
C501 C500 1.400 . S
C501 C502 1.398 . S
C502 H490 0.950 . S
C502 C501 1.398 . S
C502 C503 1.391 . S
C503 H491 0.950 . S
C503 C499 1.393 . S
C503 C502 1.391 . S
H504 C512 0.950 . S
H505 C517 0.950 . S
H506 C514 0.950 . S
H507 C516 0.950 . S
H508 C518 0.950 . S
H509 C520 0.950 . S
H510 C522 0.950 . S
H511 C523 0.950 . S
C512 H504 0.950 . S
C512 C513 1.386 . S
C512 C514 1.391 . S
C513 C512 1.386 . S
C513 C517 1.393 . S
C514 H506 0.950 . S
C514 C512 1.391 . S
C514 C515 1.400 . S
C515 C514 1.400 . S
C515 C516 1.398 . S
C515 C521 1.491 . S
C516 H507 0.950 . S
C516 C515 1.398 . S
C516 C517 1.391 . S
C517 H505 0.950 . S
C517 C513 1.393 . S
C517 C516 1.391 . S
C518 H508 0.950 . S
C518 C519 1.386 . S
C518 C520 1.391 . S
C519 C518 1.386 . S
C519 C523 1.393 . S
C520 H509 0.950 . S
C520 C518 1.391 . S
C520 C521 1.400 . S
C521 C515 1.491 . S
C521 C520 1.400 . S
C521 C522 1.398 . S
C522 H510 0.950 . S
C522 C521 1.398 . S
C522 C523 1.391 . S
C523 H511 0.950 . S
C523 C519 1.393 . S
C523 C522 1.391 . S
H524 C532 0.950 . S
H525 C537 0.950 . S
H526 C534 0.950 . S
H527 C536 0.950 . S
H528 C538 0.950 . S
H529 C540 0.950 . S
H530 C542 0.950 . S
H531 C543 0.950 . S
C532 H524 0.950 . S
C532 C533 1.386 . S
C532 C534 1.391 . S
C533 C532 1.386 . S
C533 C537 1.393 . S
C534 H526 0.950 . S
C534 C532 1.391 . S
C534 C535 1.400 . S
C535 C534 1.400 . S
C535 C536 1.398 . S
C535 C541 1.491 . S
C536 H527 0.950 . S
C536 C535 1.398 . S
C536 C537 1.391 . S
C537 H525 0.950 . S
C537 C533 1.393 . S
C537 C536 1.391 . S
C538 H528 0.950 . S
C538 C539 1.386 . S
C538 C540 1.391 . S
C539 C538 1.386 . S
C539 C543 1.393 . S
C540 H529 0.950 . S
C540 C538 1.391 . S
C540 C541 1.400 . S
C541 C535 1.491 . S
C541 C540 1.400 . S
C541 C542 1.398 . S
C542 H530 0.950 . S
C542 C541 1.398 . S
C542 C543 1.391 . S
C543 H531 0.950 . S
C543 C539 1.393 . S
C543 C542 1.391 . S
H544 C552 0.950 . S
H545 C557 0.950 . S
H546 C554 0.950 . S
H547 C556 0.950 . S
H548 C558 0.950 . S
H549 C560 0.950 . S
H550 C562 0.950 . S
H551 C563 0.950 . S
C552 H544 0.950 . S
C552 C553 1.386 . S
C552 C554 1.391 . S
C553 C552 1.386 . S
C553 C557 1.393 . S
C554 H546 0.950 . S
C554 C552 1.391 . S
C554 C555 1.400 . S
C555 C554 1.400 . S
C555 C556 1.398 . S
C555 C561 1.491 . S
C556 H547 0.950 . S
C556 C555 1.398 . S
C556 C557 1.391 . S
C557 H545 0.950 . S
C557 C553 1.393 . S
C557 C556 1.391 . S
C558 H548 0.950 . S
C558 C559 1.386 . S
C558 C560 1.391 . S
C559 C558 1.386 . S
C559 C563 1.393 . S
C560 H549 0.950 . S
C560 C558 1.391 . S
C560 C561 1.400 . S
C561 C555 1.491 . S
C561 C560 1.400 . S
C561 C562 1.398 . S
C562 H550 0.950 . S
C562 C561 1.398 . S
C562 C563 1.391 . S
C563 H551 0.950 . S
C563 C559 1.393 . S
C563 C562 1.391 . S
H564 C572 0.950 . S
H565 C577 0.950 . S
H566 C574 0.950 . S
H567 C576 0.950 . S
H568 C578 0.950 . S
H569 C580 0.950 . S
H570 C582 0.950 . S
H571 C583 0.950 . S
C572 H564 0.950 . S
C572 C573 1.386 . S
C572 C574 1.391 . S
C573 C572 1.386 . S
C573 C577 1.393 . S
C574 H566 0.950 . S
C574 C572 1.391 . S
C574 C575 1.400 . S
C575 C574 1.400 . S
C575 C576 1.398 . S
C575 C581 1.491 . S
C576 H567 0.950 . S
C576 C575 1.398 . S
C576 C577 1.391 . S
C577 H565 0.950 . S
C577 C573 1.393 . S
C577 C576 1.391 . S
C578 H568 0.950 . S
C578 C579 1.386 . S
C578 C580 1.391 . S
C579 C578 1.386 . S
C579 C583 1.393 . S
C580 H569 0.950 . S
C580 C578 1.391 . S
C580 C581 1.400 . S
C581 C575 1.491 . S
C581 C580 1.400 . S
C581 C582 1.398 . S
C582 H570 0.950 . S
C582 C581 1.398 . S
C582 C583 1.391 . S
C583 H571 0.950 . S
C583 C579 1.393 . S
C583 C582 1.391 . S
H584 C592 0.950 . S
H585 C597 0.950 . S
H586 C594 0.950 . S
H587 C596 0.950 . S
H588 C598 0.950 . S
H589 C600 0.950 . S
H590 C602 0.950 . S
H591 C603 0.949 1_554 S
C592 H584 0.950 . S
C592 C593 1.386 . S
C592 C594 1.391 . S
C593 C592 1.386 . S
C593 C597 1.393 . S
C594 H586 0.950 . S
C594 C592 1.391 . S
C594 C595 1.400 . S
C595 C594 1.400 . S
C595 C596 1.398 . S
C595 C601 1.491 . S
C596 H587 0.950 . S
C596 C595 1.398 . S
C596 C597 1.391 . S
C597 H585 0.950 . S
C597 C593 1.393 . S
C597 C596 1.391 . S
C598 H588 0.950 . S
C598 C599 1.386 . S
C598 C600 1.391 1_554 S
C599 C598 1.386 . S
C599 C603 1.393 1_554 S
C600 H589 0.950 . S
C600 C598 1.391 1_556 S
C600 C601 1.400 . S
C601 C595 1.491 . S
C601 C600 1.400 . S
C601 C602 1.398 . S
C602 H590 0.950 . S
C602 C601 1.398 . S
C602 C603 1.391 . S
C603 H591 0.949 1_556 S
C603 C599 1.393 1_556 S
C603 C602 1.391 . S
H604 C612 0.950 . S
H605 C617 0.950 . S
H606 C614 0.950 . S
H607 C616 0.950 . S
H608 C618 0.950 1_455 S
H609 C620 0.950 . S
H610 C622 0.950 . S
H611 C623 0.950 . S
C612 H604 0.950 . S
C612 C613 1.386 . S
C612 C614 1.391 . S
C613 C612 1.386 . S
C613 C617 1.393 . S
C614 H606 0.950 . S
C614 C612 1.391 . S
C614 C615 1.400 . S
C615 C614 1.400 . S
C615 C616 1.398 . S
C615 C621 1.491 . S
C616 H607 0.950 . S
C616 C615 1.398 . S
C616 C617 1.391 . S
C617 H605 0.950 . S
C617 C613 1.393 . S
C617 C616 1.391 . S
C618 H608 0.950 1_655 S
C618 C619 1.386 . S
C618 C620 1.391 . S
C619 C618 1.386 . S
C619 C623 1.393 . S
C620 H609 0.950 . S
C620 C618 1.391 . S
C620 C621 1.400 . S
C621 C615 1.491 . S
C621 C620 1.400 . S
C621 C622 1.398 . S
C622 H610 0.950 . S
C622 C621 1.398 . S
C622 C623 1.391 . S
C623 H611 0.950 . S
C623 C619 1.393 . S
C623 C622 1.391 . S
H624 C632 0.950 . S
H625 C637 0.950 . S
H626 C634 0.950 . S
H627 C636 0.950 . S
H628 C638 0.950 . S
H629 C640 0.950 . S
H630 C642 0.950 . S
H631 C643 0.950 . S
C632 H624 0.950 . S
C632 C633 1.386 . S
C632 C634 1.391 . S
C633 C632 1.386 . S
C633 C637 1.393 . S
C634 H626 0.950 . S
C634 C632 1.391 . S
C634 C635 1.400 . S
C635 C634 1.400 . S
C635 C636 1.398 . S
C635 C641 1.491 . S
C636 H627 0.950 . S
C636 C635 1.398 . S
C636 C637 1.391 . S
C637 H625 0.950 . S
C637 C633 1.393 . S
C637 C636 1.391 . S
C638 H628 0.950 . S
C638 C639 1.386 . S
C638 C640 1.391 . S
C639 C638 1.386 . S
C639 C643 1.393 . S
C640 H629 0.950 . S
C640 C638 1.391 . S
C640 C641 1.400 . S
C641 C635 1.491 . S
C641 C640 1.400 . S
C641 C642 1.398 . S
C642 H630 0.950 . S
C642 C641 1.398 . S
C642 C643 1.391 . S
C643 H631 0.950 . S
C643 C639 1.393 . S
C643 C642 1.391 . S
H644 C652 0.950 . S
H645 C657 0.950 . S
H646 C654 0.950 . S
H647 C656 0.950 . S
H648 C658 0.950 . S
H649 C660 0.950 . S
H650 C662 0.950 . S
H651 C663 0.950 . S
C652 H644 0.950 . S
C652 C653 1.386 . S
C652 C654 1.391 . S
C653 C652 1.386 . S
C653 C657 1.393 . S
C654 H646 0.950 . S
C654 C652 1.391 . S
C654 C655 1.400 . S
C655 C654 1.400 . S
C655 C656 1.398 . S
C655 C661 1.491 . S
C656 H647 0.950 . S
C656 C655 1.398 . S
C656 C657 1.391 . S
C657 H645 0.950 . S
C657 C653 1.393 . S
C657 C656 1.391 . S
C658 H648 0.950 . S
C658 C659 1.386 . S
C658 C660 1.391 . S
C659 C658 1.386 . S
C659 C663 1.393 . S
C660 H649 0.950 . S
C660 C658 1.391 . S
C660 C661 1.400 . S
C661 C655 1.491 . S
C661 C660 1.400 . S
C661 C662 1.398 . S
C662 H650 0.950 . S
C662 C661 1.398 . S
C662 C663 1.391 . S
C663 H651 0.950 . S
C663 C659 1.393 . S
C663 C662 1.391 . S
H664 C672 0.950 . S
H665 C677 0.950 . S
H666 C674 0.950 . S
H667 C676 0.950 . S
H668 C678 0.950 . S
H669 C680 0.950 . S
H670 C682 0.950 . S
H671 C683 0.950 . S
C672 H664 0.950 . S
C672 C673 1.386 . S
C672 C674 1.391 . S
C673 C672 1.386 . S
C673 C677 1.393 . S
C674 H666 0.950 . S
C674 C672 1.391 . S
C674 C675 1.400 . S
C675 C674 1.400 . S
C675 C676 1.398 . S
C675 C681 1.491 . S
C676 H667 0.950 . S
C676 C675 1.398 . S
C676 C677 1.391 . S
C677 H665 0.950 . S
C677 C673 1.393 . S
C677 C676 1.391 . S
C678 H668 0.950 . S
C678 C679 1.386 . S
C678 C680 1.391 . S
C679 C678 1.386 . S
C679 C683 1.393 . S
C680 H669 0.950 . S
C680 C678 1.391 . S
C680 C681 1.400 . S
C681 C675 1.491 . S
C681 C680 1.400 . S
C681 C682 1.398 . S
C682 H670 0.950 . S
C682 C681 1.398 . S
C682 C683 1.391 . S
C683 H671 0.950 . S
C683 C679 1.393 . S
C683 C682 1.391 . S
H684 C692 0.950 . S
H685 C697 0.950 . S
H686 C694 0.950 . S
H687 C696 0.950 . S
H688 C698 0.950 . S
H689 C700 0.950 . S
H690 C702 0.950 . S
H691 C703 0.950 . S
C692 H684 0.950 . S
C692 C693 1.386 . S
C692 C694 1.391 . S
C693 C692 1.386 . S
C693 C697 1.393 . S
C694 H686 0.950 . S
C694 C692 1.391 . S
C694 C695 1.400 . S
C695 C694 1.400 . S
C695 C696 1.398 . S
C695 C701 1.491 . S
C696 H687 0.950 . S
C696 C695 1.398 . S
C696 C697 1.391 . S
C697 H685 0.950 . S
C697 C693 1.393 . S
C697 C696 1.391 . S
C698 H688 0.950 . S
C698 C699 1.386 . S
C698 C700 1.391 . S
C699 C698 1.386 . S
C699 C703 1.393 . S
C700 H689 0.950 . S
C700 C698 1.391 . S
C700 C701 1.400 . S
C701 C695 1.491 . S
C701 C700 1.400 . S
C701 C702 1.398 . S
C702 H690 0.950 . S
C702 C701 1.398 . S
C702 C703 1.391 . S
C703 H691 0.950 . S
C703 C699 1.393 . S
C703 C702 1.391 . S
H704 C712 0.950 . S
H705 C717 0.950 . S
H706 C714 0.950 . S
H707 C716 0.950 . S
H708 C718 0.950 . S
H709 C720 0.950 . S
H710 C722 0.950 . S
H711 C723 0.950 . S
C712 H704 0.950 . S
C712 C713 1.386 . S
C712 C714 1.391 . S
C713 C712 1.386 . S
C713 C717 1.393 . S
C714 H706 0.950 . S
C714 C712 1.391 . S
C714 C715 1.400 . S
C715 C714 1.400 . S
C715 C716 1.398 . S
C715 C721 1.491 . S
C716 H707 0.950 . S
C716 C715 1.398 . S
C716 C717 1.391 . S
C717 H705 0.950 . S
C717 C713 1.393 . S
C717 C716 1.391 . S
C718 H708 0.950 . S
C718 C719 1.386 . S
C718 C720 1.391 . S
C719 C718 1.386 . S
C719 C723 1.393 . S
C720 H709 0.950 . S
C720 C718 1.391 . S
C720 C721 1.400 . S
C721 C715 1.491 . S
C721 C720 1.400 . S
C721 C722 1.398 . S
C722 H710 0.950 . S
C722 C721 1.398 . S
C722 C723 1.391 . S
C723 H711 0.950 . S
C723 C719 1.393 . S
C723 C722 1.391 . S
H724 C732 0.950 . S
H725 C737 0.950 . S
H726 C734 0.950 . S
H727 C736 0.950 . S
H728 C738 0.950 . S
H729 C740 0.950 . S
H730 C742 0.950 . S
H731 C743 0.950 . S
C732 H724 0.950 . S
C732 C733 1.386 . S
C732 C734 1.391 . S
C733 C732 1.386 . S
C733 C737 1.393 . S
C734 H726 0.950 . S
C734 C732 1.391 . S
C734 C735 1.400 . S
C735 C734 1.400 . S
C735 C736 1.398 . S
C735 C741 1.491 . S
C736 H727 0.950 . S
C736 C735 1.398 . S
C736 C737 1.391 . S
C737 H725 0.950 . S
C737 C733 1.393 . S
C737 C736 1.391 . S
C738 H728 0.950 . S
C738 C739 1.386 . S
C738 C740 1.391 . S
C739 C738 1.386 . S
C739 C743 1.393 . S
C740 H729 0.950 . S
C740 C738 1.391 . S
C740 C741 1.400 . S
C741 C735 1.491 . S
C741 C740 1.400 . S
C741 C742 1.398 . S
C742 H730 0.950 . S
C742 C741 1.398 . S
C742 C743 1.391 . S
C743 H731 0.950 . S
C743 C739 1.393 . S
C743 C742 1.391 . S
C273 N1 0.774 . S
C279 C108 0.758 . S
C293 N18 1.169 . S
C299 C169 1.232 . S
C319 C207 2.079 . S
C313 N28 2.142 . S
C333 N40 2.598 . S
C339 C247 2.601 . S
C359 C167 1.490 . S
C353 N5 1.513 . S
C379 C135 1.721 . S
C373 N14 1.631 . S
C399 C244 1.800 . S
C393 N31 1.802 . S
C419 C204 1.625 . S
C413 N41 1.635 . S
C433 N2 0.926 . S
C439 C249 0.942 . S
C459 C164 2.570 . S
C453 N27 2.552 . S
C473 N44 2.369 . S
C479 C106 2.396 1_655 S
C493 N15 1.067 . S
C499 C209 1.105 . S
C519 C129 1.327 . S
C513 N57 1.326 . S
C533 N70 0.856 . S
C539 C148 0.895 . S
C553 N79 2.386 . S
C559 C186 2.391 . S
C573 N93 2.313 . S
C579 C226 2.292 . S
C593 N54 1.120 . S
C599 C146 1.157 . S
C619 C124 2.320 1_655 S
C613 N66 2.287 . S
C639 C255 1.289 . S
C633 N80 1.313 . S
C659 C215 1.889 . S
C653 N96 1.891 . S
C673 N53 1.130 . S
C679 C228 1.133 . S
C699 C175 2.105 . S
C693 N83 2.044 . S
C719 C127 2.422 . S
C713 N92 2.464 . S
C733 N67 1.265 . S
C739 C188 1.295 . S
