# Generated by pormake.
# Topology pyr, (3,6)-cn, num edge types: 1
# Building blocks:
#     Node 0, Type 0, BuildingBlock: CUQRIR_clean_linker_1, # of connection points: 3
#     Node 1, Type 0, BuildingBlock: CUQRIR_clean_linker_1, # of connection points: 3
#     Node 2, Type 0, BuildingBlock: CUQRIR_clean_linker_1, # of connection points: 3
#     Node 3, Type 0, BuildingBlock: CUQRIR_clean_linker_1, # of connection points: 3
#     Node 4, Type 0, BuildingBlock: CUQRIR_clean_linker_1, # of connection points: 3
#     Node 5, Type 0, BuildingBlock: CUQRIR_clean_linker_1, # of connection points: 3
#     Node 6, Type 0, BuildingBlock: CUQRIR_clean_linker_1, # of connection points: 3
#     Node 7, Type 0, BuildingBlock: CUQRIR_clean_linker_1, # of connection points: 3
#     Node 8, Type 1, BuildingBlock: JUFBIX_clean_sbu_0, # of connection points: 6
#     Node 9, Type 1, BuildingBlock: JUFBIX_clean_sbu_0, # of connection points: 6
#     Node 10, Type 1, BuildingBlock: JUFBIX_clean_sbu_0, # of connection points: 6
#     Node 11, Type 1, BuildingBlock: JUFBIX_clean_sbu_0, # of connection points: 6
#     Edge 12, Type (0, 1), BuildingBlock: KIFKEQ_clean_linker_1, # of connection points: 2
#     Edge 13, Type (0, 1), BuildingBlock: KIFKEQ_clean_linker_1, # of connection points: 2
#     Edge 14, Type (0, 1), BuildingBlock: KIFKEQ_clean_linker_1, # of connection points: 2
#     Edge 15, Type (0, 1), BuildingBlock: KIFKEQ_clean_linker_1, # of connection points: 2
#     Edge 16, Type (0, 1), BuildingBlock: KIFKEQ_clean_linker_1, # of connection points: 2
#     Edge 17, Type (0, 1), BuildingBlock: KIFKEQ_clean_linker_1, # of connection points: 2
#     Edge 18, Type (0, 1), BuildingBlock: KIFKEQ_clean_linker_1, # of connection points: 2
#     Edge 19, Type (0, 1), BuildingBlock: KIFKEQ_clean_linker_1, # of connection points: 2
#     Edge 20, Type (0, 1), BuildingBlock: KIFKEQ_clean_linker_1, # of connection points: 2
#     Edge 21, Type (0, 1), BuildingBlock: KIFKEQ_clean_linker_1, # of connection points: 2
#     Edge 22, Type (0, 1), BuildingBlock: KIFKEQ_clean_linker_1, # of connection points: 2
#     Edge 23, Type (0, 1), BuildingBlock: KIFKEQ_clean_linker_1, # of connection points: 2
#     Edge 24, Type (0, 1), BuildingBlock: KIFKEQ_clean_linker_1, # of connection points: 2
#     Edge 25, Type (0, 1), BuildingBlock: KIFKEQ_clean_linker_1, # of connection points: 2
#     Edge 26, Type (0, 1), BuildingBlock: KIFKEQ_clean_linker_1, # of connection points: 2
#     Edge 27, Type (0, 1), BuildingBlock: KIFKEQ_clean_linker_1, # of connection points: 2
#     Edge 28, Type (0, 1), BuildingBlock: KIFKEQ_clean_linker_1, # of connection points: 2
#     Edge 29, Type (0, 1), BuildingBlock: KIFKEQ_clean_linker_1, # of connection points: 2
#     Edge 30, Type (0, 1), BuildingBlock: KIFKEQ_clean_linker_1, # of connection points: 2
#     Edge 31, Type (0, 1), BuildingBlock: KIFKEQ_clean_linker_1, # of connection points: 2
#     Edge 32, Type (0, 1), BuildingBlock: KIFKEQ_clean_linker_1, # of connection points: 2
#     Edge 33, Type (0, 1), BuildingBlock: KIFKEQ_clean_linker_1, # of connection points: 2
#     Edge 34, Type (0, 1), BuildingBlock: KIFKEQ_clean_linker_1, # of connection points: 2
#     Edge 35, Type (0, 1), BuildingBlock: KIFKEQ_clean_linker_1, # of connection points: 2
# Relax obj value: 0.140
# Max RMSD: 0.220
# Mean RMSD: 0.152
data_MOF--net-pry--node1-JUFBIX_clean_sbu_0--node2-CUQRIR_clean_linker_1--edge1-KIFKEQ_clean_linker_1
_symmetry_space_group_name_H-M    P1
_symmetry_Int_Tables_number       1
_symmetry_cell_setting            triclinic
loop_
_symmetry_equiv_pos_as_xyz
'x, y, z'
_cell_length_a     34.953514
_cell_length_b     33.243093
_cell_length_c     34.289939
_cell_angle_alpha  81.206672
_cell_angle_beta   89.747103
_cell_angle_gamma 93.920356
loop_
_atom_site_label
_atom_site_type_symbol
_atom_site_fract_x
_atom_site_fract_y
_atom_site_fract_z
_atom_type_partial_charge
C0 C 0.20643 0.21539 0.20793 0.0
N1 N 0.23149 0.18577 0.21552 0.0
N2 N 0.21249 0.23712 0.17139 0.0
C3 C 0.17442 0.22169 0.23552 0.0
C4 C 0.24213 0.21919 0.15678 0.0
N5 N 0.25377 0.18783 0.18345 0.0
C6 C 0.26068 0.23332 0.11697 0.0
H7 H 0.1641 0.19272 0.25417 0.0
H8 H 0.14985 0.23478 0.21892 0.0
H9 H 0.1853 0.24324 0.25529 0.0
H10 H 0.25583 0.26578 0.10636 0.0
H11 H 0.248 0.21448 0.09561 0.0
H12 H 0.29196 0.22946 0.11811 0.0
C13 C 0.35144 0.75593 0.74312 0.0
N14 N 0.34896 0.78661 0.76462 0.0
N15 N 0.38596 0.73983 0.74785 0.0
C16 C 0.32317 0.74701 0.71198 0.0
C17 C 0.40448 0.76191 0.77286 0.0
N18 N 0.38208 0.79033 0.78303 0.0
C19 C 0.44546 0.75748 0.78481 0.0
H20 H 0.29385 0.74166 0.72504 0.0
H21 H 0.33002 0.71989 0.69875 0.0
H22 H 0.32326 0.77386 0.68835 0.0
H23 H 0.46452 0.77739 0.76287 0.0
H24 H 0.45297 0.72549 0.78534 0.0
H25 H 0.45043 0.76669 0.81425 0.0
C26 C 0.67219 0.37845 0.84334 0.0
N27 N 0.69456 0.3709 0.87533 0.0
N28 N 0.68119 0.41627 0.82354 0.0
C29 C 0.64201 0.34842 0.8312 0.0
C30 C 0.70979 0.4316 0.84468 0.0
N31 N 0.71755 0.40416 0.87672 0.0
C32 C 0.73083 0.47276 0.8334 0.0
H33 H 0.65631 0.32476 0.81808 0.0
H34 H 0.62225 0.3631 0.80911 0.0
H35 H 0.62519 0.3329 0.85742 0.0
H36 H 0.7265 0.48532 0.802 0.0
H37 H 0.76196 0.47073 0.83889 0.0
H38 H 0.71993 0.49419 0.85194 0.0
C39 C 0.94592 0.65258 0.40171 0.0
N40 N 0.98086 0.67219 0.39337 0.0
N41 N 0.93196 0.66051 0.4363 0.0
C42 C 0.92346 0.62935 0.37396 0.0
C43 C 0.95983 0.68554 0.44889 0.0
N44 N 0.99 0.69226 0.42309 0.0
C45 C 0.9554 0.70762 0.48372 0.0
H46 H 0.90757 0.65111 0.35338 0.0
H47 H 0.90239 0.60639 0.39039 0.0
H48 H 0.94286 0.61384 0.35631 0.0
H49 H 0.92732 0.69936 0.49905 0.0
H50 H 0.95848 0.74107 0.47374 0.0
H51 H 0.97842 0.6998 0.50514 0.0
C52 C 0.84333 0.86303 0.89938 0.0
N53 N 0.87153 0.85623 0.8741 0.0
N54 N 0.82883 0.89988 0.88791 0.0
C55 C 0.82873 0.83245 0.93422 0.0
C56 C 0.84944 0.91517 0.85454 0.0
N57 N 0.87553 0.88898 0.84618 0.0
C58 C 0.84431 0.95596 0.83014 0.0
H59 H 0.80911 0.80898 0.92353 0.0
H60 H 0.81255 0.8463 0.95588 0.0
H61 H 0.85294 0.8169 0.94927 0.0
H62 H 0.87184 0.96937 0.816 0.0
H63 H 0.83295 0.97736 0.84844 0.0
H64 H 0.82354 0.95175 0.80647 0.0
C65 C 0.68426 0.21328 0.45748 0.0
N66 N 0.68988 0.1773 0.44525 0.0
N67 N 0.65134 0.22803 0.44291 0.0
C68 C 0.71042 0.23389 0.48428 0.0
C69 C 0.63674 0.19962 0.42169 0.0
N70 N 0.66 0.16845 0.42344 0.0
C71 C 0.60272 0.20494 0.39498 0.0
H72 H 0.69376 0.25173 0.50238 0.0
H73 H 0.73163 0.25532 0.46619 0.0
H74 H 0.72608 0.21116 0.50398 0.0
H75 H 0.59554 0.23722 0.38857 0.0
H76 H 0.57755 0.18645 0.40959 0.0
H77 H 0.60828 0.19398 0.36664 0.0
C78 C 0.33782 0.65564 0.17197 0.0
N79 N 0.3682 0.67697 0.18525 0.0
N80 N 0.32359 0.67705 0.13905 0.0
C81 C 0.31977 0.61578 0.19304 0.0
C82 C 0.34608 0.71223 0.13297 0.0
N83 N 0.37295 0.71227 0.16114 0.0
C84 C 0.34249 0.74612 0.09896 0.0
H85 H 0.3334 0.59033 0.1822 0.0
H86 H 0.28859 0.61276 0.18718 0.0
H87 H 0.324 0.61309 0.22536 0.0
H88 H 0.32455 0.76921 0.10851 0.0
H89 H 0.32871 0.73448 0.07341 0.0
H90 H 0.37099 0.7614 0.08966 0.0
C91 C 0.08473 0.40164 0.61737 0.0
N92 N 0.10253 0.38428 0.58961 0.0
N93 N 0.09713 0.44152 0.6152 0.0
C94 C 0.05796 0.37888 0.64897 0.0
C95 C 0.12241 0.44775 0.58443 0.0
N96 N 0.12619 0.41293 0.56912 0.0
C97 C 0.14674 0.48693 0.57216 0.0
H98 H 0.03482 0.39808 0.65552 0.0
H99 H 0.0743 0.37088 0.67641 0.0
H100 H 0.0446 0.35054 0.64001 0.0
H101 H 0.17709 0.48215 0.57982 0.0
H102 H 0.13686 0.51218 0.5865 0.0
H103 H 0.14541 0.49613 0.53976 0.0
Co104 Co 0.04277 0.02491 0.51486 0.0
C105 C 0.06854 0.94758 0.51053 0.0
Co106 Co 0.09644 0.01197 0.54578 0.0
C107 C 0.96581 0.04822 0.49776 0.0
C108 C 0.99016 0.02031 0.45205 0.0
N109 N 0.998 0.03221 0.48723 0.0
N110 N 0.9381 0.04646 0.47065 0.0
C111 C 0.95333 0.02893 0.44184 0.0
H112 H 0.96259 0.06029 0.52509 0.0
H113 H 1.00993 1.00601 0.43503 0.0
C114 C 0.07084 0.09039 0.54796 0.0
N115 N 0.14137 1.00473 0.57301 0.0
C116 C 0.14966 0.97392 0.60138 0.0
C117 C 0.17228 0.03161 0.57058 0.0
N118 N 0.18447 0.98068 0.617 0.0
C119 C 0.19883 0.01691 0.59753 0.0
C120 C 0.1087 0.04662 0.46665 0.0
O121 O 0.04338 0.07852 0.52741 0.0
O122 O 0.09623 0.06579 0.55961 0.0
O123 O 0.12553 0.03369 0.49846 0.0
O124 O 0.0722 0.04559 0.4671 0.0
O125 O 0.09662 0.95822 0.53111 0.0
H126 H 0.17506 0.06039 0.55088 0.0
H127 H 0.13008 0.9476 0.61105 0.0
O128 O 0.04244 0.97197 0.50203 0.0
O129 O 1.01353 1.00387 0.56291 0.0
O130 O 0.06706 0.99004 0.59324 0.0
C131 C 0.03058 0.98952 0.59428 0.0
H132 H 0.93909 0.02339 0.415 0.0
H133 H 0.22666 0.03164 0.60217 0.0
Co134 Co 0.53336 0.0411 0.02733 0.0
C135 C 0.52458 0.97181 0.08483 0.0
Co136 Co 0.56661 0.04496 0.08118 0.0
C137 C 0.4943 1.0027 0.96833 0.0
C138 C 0.48504 0.06635 0.96109 0.0
N139 N 0.50328 0.037 0.98377 0.0
N140 N 0.47107 0.00928 0.9371 0.0
C141 C 0.46532 0.04938 0.93215 0.0
H142 H 0.50486 0.97338 0.97963 0.0
H143 H 0.48572 0.0979 0.96556 0.0
C144 C 0.57671 0.11393 1.02372 0.0
N145 N 0.59786 0.04899 0.12402 0.0
C146 C 0.58956 0.04423 0.16304 0.0
C147 C 0.63608 0.05814 0.12126 0.0
N148 N 0.62129 0.04967 0.18459 0.0
C149 C 0.65051 0.05843 0.15829 0.0
C150 C 0.60561 0.01255 1.02069 0.0
O151 O 0.55342 0.09403 1.00419 0.0
O152 O 0.58538 0.09827 0.05836 0.0
O153 O 0.60833 0.02221 0.05519 0.0
O154 O 0.57425 0.0178 1.00263 0.0
O155 O 0.54801 0.99167 0.10419 0.0
H156 H 0.65243 0.06505 0.09392 0.0
H157 H 0.56087 0.0372 0.17531 0.0
O158 O 0.51424 0.98809 0.05093 0.0
O159 O 0.49204 0.06433 0.05194 0.0
O160 O 0.52413 0.06747 0.10626 0.0
C161 C 0.49331 0.07318 0.08683 0.0
H162 H 0.44749 0.06504 0.90983 0.0
H163 H 0.68002 0.06627 0.16517 0.0
Co164 Co 0.54751 0.56558 0.49728 0.0
C165 C 0.49054 0.57332 0.44123 0.0
Co166 Co 0.49785 0.52092 0.51139 0.0
C167 C 0.62573 0.59692 0.48719 0.0
C168 C 0.58738 0.64479 0.47647 0.0
N169 N 0.58822 0.60401 0.48623 0.0
N170 N 0.64848 0.6316 0.47847 0.0
C171 C 0.62446 0.66188 0.47175 0.0
H172 H 0.63613 0.56683 0.49482 0.0
H173 H 0.5615 0.66099 0.47305 0.0
C174 C 0.55574 0.51404 0.56731 0.0
N175 N 0.45772 0.48131 0.52241 0.0
C176 C 0.42033 0.4833 0.51313 0.0
C177 C 0.46093 0.44236 0.53935 0.0
N178 N 0.40004 0.44704 0.5235 0.0
C179 C 0.42565 0.42135 0.54023 0.0
C180 C 0.55491 0.49483 0.4669 0.0
O181 O 0.5719 0.54328 0.54357 0.0
O182 O 0.52274 0.49923 0.55914 0.0
O183 O 0.52248 0.48576 0.48369 0.0
O184 O 0.57222 0.52933 0.46872 0.0
O185 O 0.47399 0.54319 0.46384 0.0
H186 H 0.4874 0.42979 0.54986 0.0
H187 H 0.40855 0.51066 0.49822 0.0
O188 O 0.52301 0.5882 0.45068 0.0
O189 O 0.52258 0.60076 0.52661 0.0
O190 O 0.47304 0.55623 0.53932 0.0
C191 C 0.48999 0.59039 0.5432 0.0
H192 H 0.63301 0.69397 0.46344 0.0
H193 H 0.4195 0.38962 0.5526 0.0
Co194 Co 0.0335 0.52619 0.98468 0.0
C195 C 0.95892 0.48936 1.00198 0.0
Co196 Co 1.00881 0.53465 0.04218 0.0
C197 C 0.06388 0.53511 0.90266 0.0
C198 C 0.0523 0.47367 0.93174 0.0
N199 N 0.0513 0.51295 0.93737 0.0
N200 N 0.07348 0.5107 0.87654 0.0
C201 C 0.06618 0.47224 0.89481 0.0
H202 H 0.06583 0.56812 0.89663 0.0
H203 H 0.04262 0.44734 0.95286 0.0
C204 C 0.08298 0.57145 1.02415 0.0
N205 N 0.99074 0.54435 0.091 0.0
C206 C 1.00289 0.57353 0.11261 0.0
C207 C 0.96684 0.51843 0.11551 0.0
N208 N 0.98814 0.56623 0.14972 0.0
C209 C 0.96516 0.53176 0.15142 0.0
C210 C 0.05162 0.46614 0.04862 0.0
O211 O 0.07995 0.55693 0.99197 0.0
O212 O 0.05535 0.56515 0.04905 0.0
O213 O 0.03097 0.48574 0.06877 0.0
O214 O 0.05541 0.47862 1.0119 0.0
O215 O 0.96207 0.50398 0.03403 0.0
H216 H 0.95316 0.49027 0.10859 0.0
H217 H 1.02399 0.59822 0.10225 0.0
O218 O 0.9868 0.49533 0.97748 0.0
O219 O 1.01211 0.57478 0.95835 0.0
O220 O 0.98736 0.58353 1.01535 0.0
C221 C 0.99255 0.59574 0.97837 0.0
H222 H 0.06952 0.44499 0.88173 0.0
H223 H 0.94926 0.51645 0.17725 0.0
H224 H 0.19406 0.11169 0.22213 0.0
H225 H 0.25821 0.19305 0.2876 0.0
H226 H 0.16699 0.07294 0.28389 0.0
H227 H 0.23161 0.15465 0.34957 0.0
H228 H 0.18661 0.06432 0.45793 0.0
H229 H 0.22345 0.09066 0.39745 0.0
H230 H 0.11909 0.0907 0.33066 0.0
H231 H 0.08231 0.06447 0.39102 0.0
C232 C 0.20395 0.11988 0.24995 0.0
C233 C 0.22897 0.15477 0.25011 0.0
C234 C 0.18779 0.09833 0.28534 0.0
C235 C 0.19652 0.11097 0.32191 0.0
C236 C 0.22425 0.14375 0.32219 0.0
C237 C 0.24001 0.16551 0.28672 0.0
C238 C 0.17149 0.0698 0.43033 0.0
C239 C 0.13134 0.06232 0.42957 0.0
C240 C 0.19267 0.08502 0.39559 0.0
C241 C 0.17444 0.09266 0.3589 0.0
C242 C 0.13434 0.08463 0.35812 0.0
C243 C 0.11311 0.0699 0.39291 0.0
H244 H 0.34726 0.80743 0.84773 0.0
H245 H 0.44101 0.84695 0.7659 0.0
H246 H 0.36622 0.86279 0.88527 0.0
H247 H 0.46021 0.90227 0.80304 0.0
H248 H 0.45721 0.01981 0.85883 0.0
H249 H 0.43305 0.9674 0.82026 0.0
H250 H 0.42518 0.87841 0.92632 0.0
H251 H 0.44918 0.93068 0.9647 0.0
C252 C 0.37197 0.82804 0.83805 0.0
C253 C 0.39329 0.82278 0.80476 0.0
C254 C 0.38282 0.85952 0.85933 0.0
C255 C 0.41474 0.88663 0.84705 0.0
C256 C 0.43542 0.88188 0.81303 0.0
C257 C 0.42485 0.85008 0.79214 0.0
C258 C 0.44994 0.98914 0.87381 0.0
C259 C 0.45526 0.97917 0.91462 0.0
C260 C 0.43639 0.95917 0.8518 0.0
C261 C 0.42734 0.91893 0.87038 0.0
C262 C 0.43172 0.90926 0.91134 0.0
C263 C 0.44577 0.93903 0.9332 0.0
H264 H 0.71476 0.42773 0.75184 0.0
H265 H 0.61099 0.44365 0.81393 0.0
H266 H 0.6846 0.45121 0.68867 0.0
H267 H 0.58038 0.46737 0.75108 0.0
H268 H 0.52643 0.45931 0.63008 0.0
H269 H 0.55785 0.43718 0.69253 0.0
H270 H 0.65957 0.51303 0.65106 0.0
H271 H 0.62854 0.5348 0.58874 0.0
C272 C 0.68567 0.43705 0.7517 0.0
C273 C 0.66505 0.43439 0.78721 0.0
C274 C 0.66836 0.45034 0.7158 0.0
C275 C 0.63001 0.46087 0.71492 0.0
C276 C 0.60975 0.45892 0.75077 0.0
C277 C 0.62721 0.44586 0.78662 0.0
C278 C 0.55556 0.47106 0.63425 0.0
C279 C 0.57493 0.49884 0.6045 0.0
C280 C 0.57344 0.45865 0.67009 0.0
C281 C 0.61112 0.47355 0.67675 0.0
C282 C 0.63065 0.50078 0.64672 0.0
C283 C 0.61275 0.51336 0.61106 0.0
H284 H 0.0393 0.62777 0.38021 0.0
H285 H 0.96505 0.71634 0.32404 0.0
H286 H 0.05333 0.60742 0.31623 0.0
H287 H 0.97817 0.69606 0.26008 0.0
H288 H 1.00578 0.64745 0.14752 0.0
H289 H 1.01878 0.68315 0.20426 0.0
H290 H 1.00644 0.56777 0.28216 0.0
H291 H 0.99416 0.53264 0.22599 0.0
C292 C 0.02778 0.64442 0.35374 0.0
C293 C 1.0014 0.6737 0.35674 0.0
C294 C 0.03517 0.63239 0.31722 0.0
C295 C 1.01611 0.64942 0.28316 0.0
C296 C 0.99346 0.68235 0.28557 0.0
C297 C 0.98613 0.69429 0.32212 0.0
C298 C 1.00646 0.62986 0.17678 0.0
C299 C 0.99834 0.58734 0.18238 0.0
C300 C 1.01384 0.65024 0.20923 0.0
C301 C 1.01389 0.62834 0.24779 0.0
C302 C 1.00731 0.58564 0.25294 0.0
C303 C 0.99957 0.56548 0.22074 0.0
H304 H 0.32319 0.19017 0.21827 0.0
H305 H 0.25775 0.13308 0.13343 0.0
H306 H 0.38152 0.16169 0.19723 0.0
H307 H 0.31505 0.10297 0.11316 0.0
H308 H 0.42758 0.09651 0.04925 0.0
H309 H 0.37046 0.12037 0.07601 0.0
H310 H 0.42123 0.10818 0.19147 0.0
H311 H 0.47944 0.08546 0.16393 0.0
C312 C 0.32111 0.17023 0.19607 0.0
C313 C 0.28576 0.16338 0.17791 0.0
C314 C 0.35465 0.15395 0.18371 0.0
C315 C 0.35383 0.13024 0.15275 0.0
C316 C 0.31771 0.12182 0.13621 0.0
C317 C 0.28445 0.13842 0.14832 0.0
C318 C 0.4268 0.09891 0.08039 0.0
C319 C 0.45855 0.08887 0.10423 0.0
C320 C 0.39352 0.11232 0.09603 0.0
C321 C 0.39023 0.11595 0.13639 0.0
C322 C 0.42223 0.10625 0.16027 0.0
C323 C 0.45581 0.09301 0.14445 0.0
H324 H 0.36719 0.86302 0.72949 0.0
H325 H 0.27264 0.7807 0.77838 0.0
H326 H 0.3228 0.91304 0.70251 0.0
H327 H 0.22738 0.83068 0.7509 0.0
H328 H 0.23696 1.00366 0.66857 0.0
H329 H 0.27359 0.95898 0.71508 0.0
H330 H 0.21043 0.85377 0.68124 0.0
H331 H 0.17388 0.89842 0.63474 0.0
C332 C 0.33683 0.85646 0.73569 0.0
C333 C 0.3231 0.81845 0.75615 0.0
C334 C 0.31134 0.88494 0.72016 0.0
C335 C 0.27156 0.8757 0.72445 0.0
C336 C 0.25789 0.83843 0.74687 0.0
C337 C 0.28357 0.81003 0.76271 0.0
C338 C 0.23078 0.97101 0.6712 0.0
C339 C 0.203 0.95454 0.64747 0.0
C340 C 0.25159 0.94546 0.69799 0.0
C341 C 0.24505 0.9029 0.70161 0.0
C342 C 0.2158 0.88647 0.67949 0.0
C343 C 0.19495 0.91206 0.6527 0.0
H344 H 0.77547 0.35506 0.89224 0.0
H345 H 0.72864 0.46293 0.92237 0.0
H346 H 0.83298 0.36828 0.93029 0.0
H347 H 0.78628 0.47716 0.95957 0.0
H348 H 0.88843 0.48441 0.03892 0.0
H349 H 0.82735 0.45665 1.01599 0.0
H350 H 0.88625 0.41999 0.91754 0.0
H351 H 0.94693 0.44708 0.94055 0.0
C352 C 0.77728 0.38111 0.90779 0.0
C353 C 0.74805 0.40822 0.90426 0.0
C354 C 0.81025 0.38897 0.92921 0.0
C355 C 0.81448 0.42407 0.94762 0.0
C356 C 0.78396 0.44974 0.94603 0.0
C357 C 0.7511 0.44187 0.92452 0.0
C358 C 0.88836 0.46978 1.01278 0.0
C359 C 0.92252 0.46825 0.99141 0.0
C360 C 0.85335 0.45408 0.99952 0.0
C361 C 0.85183 0.43621 0.96483 0.0
C362 C 0.88631 0.43306 0.94461 0.0
C363 C 0.92115 0.44892 0.95767 0.0
H364 H 0.88259 0.7187 0.42267 0.0
H365 H 0.89253 0.59358 0.47426 0.0
H366 H 0.81351 0.71146 0.43625 0.0
H367 H 0.82335 0.5859 0.48916 0.0
H368 H 0.69495 0.57579 0.45884 0.0
H369 H 0.76457 0.58261 0.4529 0.0
H370 H 0.76535 0.70231 0.48757 0.0
H371 H 0.69552 0.69558 0.49295 0.0
C372 C 0.86972 0.68987 0.43765 0.0
C373 C 0.89225 0.65671 0.44773 0.0
C374 C 0.83037 0.68566 0.4456 0.0
C375 C 0.81286 0.64808 0.46384 0.0
C376 C 0.83586 0.6151 0.47467 0.0
C377 C 0.87529 0.6194 0.46653 0.0
C378 C 0.71001 0.60335 0.46564 0.0
C379 C 0.68973 0.63524 0.4762 0.0
C380 C 0.74996 0.60723 0.46235 0.0
C381 C 0.77058 0.64302 0.46974 0.0
C382 C 0.7503 0.6746 0.48105 0.0
C383 C 0.71031 0.6708 0.48411 0.0
H384 H 0.19948 0.30681 0.19941 0.0
H385 H 0.17601 0.24256 0.10139 0.0
H386 H 0.15954 0.36106 0.17048 0.0
H387 H 0.13557 0.29634 0.07225 0.0
H388 H 0.09684 0.41912 1.0116 0.0
H389 H 0.13586 0.36488 0.04058 0.0
H390 H 0.09495 0.3778 0.15674 0.0
H391 H 0.05635 0.43318 0.12751 0.0
C392 C 0.1857 0.30441 0.17156 0.0
C393 C 0.19099 0.27051 0.1526 0.0
C394 C 0.16251 0.33535 0.15504 0.0
C395 C 0.14385 0.33337 0.11894 0.0
C396 C 0.14968 0.29951 0.09977 0.0
C397 C 0.17292 0.26859 0.11636 0.0
C398 C 0.09586 0.41037 0.04336 0.0
C399 C 0.07321 0.43079 0.06711 0.0
C400 C 0.11826 0.37888 0.06006 0.0
C401 C 0.1189 0.36655 0.10119 0.0
C402 C 0.09582 0.38663 0.125 0.0
C403 C 0.07331 0.41825 0.10822 0.0
H404 H 0.66839 0.36461 0.94989 0.0
H405 H 0.71015 0.29582 0.86402 0.0
H406 H 0.6426 0.30103 0.99045 0.0
H407 H 0.68448 0.23224 0.90399 0.0
H408 H 0.57723 0.1481 0.94613 0.0
H409 H 0.6136 0.20997 0.91506 0.0
H410 H 0.65699 0.23055 0.02856 0.0
H411 H 0.62069 0.16832 0.05988 0.0
C412 C 0.67338 0.33563 0.94071 0.0
C413 C 0.69098 0.33463 0.9041 0.0
C414 C 0.65844 0.29939 0.96358 0.0
C415 C 0.66082 0.26187 0.94982 0.0
C416 C 0.6816 0.26082 0.91488 0.0
C417 C 0.69665 0.29694 0.89229 0.0
C418 C 0.59429 0.16589 0.96455 0.0
C419 C 0.59609 0.15328 1.00544 0.0
C420 C 0.61545 0.20108 0.94671 0.0
C421 C 0.63856 0.22466 0.96938 0.0
C422 C 0.63952 0.21281 1.01042 0.0
C423 C 0.6187 0.17726 0.02826 0.0
H424 H 1.00007 0.76157 0.37133 0.0
H425 H 0.04491 0.69598 0.47726 0.0
H426 H 0.03107 0.82512 0.38681 0.0
H427 H 0.07427 0.75969 0.49439 0.0
H428 H 0.12004 0.88709 0.51667 0.0
H429 H 0.11451 0.82435 0.48654 0.0
H430 H 1.00565 0.8586 0.43745 0.0
H431 H 1.01121 0.92017 0.46649 0.0
C432 C 1.01819 0.76053 0.39692 0.0
C433 C 1.0199 0.72417 0.42333 0.0
C434 C 0.03535 0.79699 0.40632 0.0
C435 C 0.05393 0.79773 0.44264 0.0
C436 C 0.06002 0.7604 0.46635 0.0
C437 C 0.0433 0.72387 0.45655 0.0
C438 C 0.09506 0.88105 0.49933 0.0
C439 C 0.06608 0.90867 0.49413 0.0
C440 C 0.09196 0.84528 0.48195 0.0
C441 C 0.06002 0.83679 0.45882 0.0
C442 C 0.03127 0.86456 0.45389 0.0
C443 C 0.03425 0.89983 0.47118 0.0
H444 H 0.43117 0.77311 0.68688 0.0
H445 H 0.37898 0.65915 0.74642 0.0
H446 H 0.45604 0.73848 0.63509 0.0
H447 H 0.40473 0.62351 0.6955 0.0
H448 H 0.41858 0.58115 0.57714 0.0
H449 H 0.39441 0.61788 0.62725 0.0
H450 H 0.50162 0.69164 0.62212 0.0
H451 H 0.5253 0.6558 0.57109 0.0
C452 C 0.42588 0.74036 0.68902 0.0
C453 C 0.40373 0.71839 0.72032 0.0
C454 C 0.44001 0.72051 0.65957 0.0
C455 C 0.43227 0.67823 0.66107 0.0
C456 C 0.41067 0.65619 0.69313 0.0
C457 C 0.39634 0.67624 0.72245 0.0
C458 C 0.4368 0.60555 0.58638 0.0
C459 C 0.47384 0.61559 0.57019 0.0
C460 C 0.42311 0.6263 0.61541 0.0
C461 C 0.44626 0.65734 0.62907 0.0
C462 C 0.48292 0.66811 0.61205 0.0
C463 C 0.49651 0.64757 0.58279 0.0
H464 H 0.94957 0.91872 0.84077 0.0
H465 H 0.85642 0.87667 0.77267 0.0
H466 H 0.98762 0.94147 0.7802 0.0
H467 H 0.89422 0.89841 0.71175 0.0
H468 H 0.95247 0.98547 0.60803 0.0
H469 H 0.91676 0.95783 0.66864 0.0
H470 H 1.02256 0.92539 0.72585 0.0
H471 H 0.05824 0.95393 0.66548 0.0
C472 C 0.93782 0.9131 0.81279 0.0
C473 C 0.90047 0.89492 0.81151 0.0
C474 C 0.95949 0.92634 0.77786 0.0
C475 C 0.94427 0.92217 0.74045 0.0
C476 C 0.90704 0.90291 0.73957 0.0
C477 C 0.88547 0.88973 0.77453 0.0
C478 C 0.96819 0.97244 0.6335 0.0
C479 C 1.00844 0.97218 0.63153 0.0
C480 C 0.94758 0.95618 0.66843 0.0
C481 C 0.96643 0.93898 0.70271 0.0
C482 C 1.00674 0.93869 0.70059 0.0
C483 C 0.02734 0.95497 0.66567 0.0
H484 H 0.60192 0.11155 0.42112 0.0
H485 H 0.7112 0.15767 0.368 0.0
H486 H 0.59078 0.06936 0.36887 0.0
H487 H 0.70078 0.11555 0.31624 0.0
H488 H 0.68095 0.02989 0.23166 0.0
H489 H 0.69118 0.04663 0.29782 0.0
H490 H 0.57784 0.09095 0.29765 0.0
H491 H 0.56771 0.07416 0.23149 0.0
C492 C 0.62396 0.11155 0.39883 0.0
C493 C 0.65742 0.13746 0.39841 0.0
C494 C 0.6176 0.08771 0.36896 0.0
C495 C 0.64483 0.08927 0.33839 0.0
C496 C 0.67949 0.11316 0.33968 0.0
C497 C 0.68562 0.1372 0.36933 0.0
C498 C 0.65802 0.04259 0.24607 0.0
C499 C 0.62385 0.05152 0.22615 0.0
C500 C 0.66385 0.05208 0.28393 0.0
C501 C 0.63557 0.07065 0.30266 0.0
C502 C 0.6001 0.07639 0.28409 0.0
C503 C 0.59427 0.06684 0.24615 0.0
H504 H 0.38202 0.71927 0.24551 0.0
H505 H 0.40256 0.60672 0.20372 0.0
H506 H 0.41382 0.69555 0.30753 0.0
H507 H 0.43302 0.5821 0.2663 0.0
H508 H 0.433 0.53764 0.40193 0.0
H509 H 0.40602 0.5644 0.33832 0.0
H510 H 0.4812 0.67379 0.3322 0.0
H511 H 0.50866 0.64694 0.39558 0.0
C512 C 0.39409 0.68984 0.24936 0.0
C513 C 0.39008 0.66481 0.21999 0.0
C514 C 0.41194 0.67613 0.28486 0.0
C515 C 0.4255 0.63688 0.29173 0.0
C516 C 0.42234 0.61228 0.2619 0.0
C517 C 0.40506 0.62629 0.22622 0.0
C518 C 0.44369 0.56744 0.38709 0.0
C519 C 0.47297 0.59017 0.40369 0.0
C520 C 0.42844 0.5826 0.35061 0.0
C521 C 0.44173 0.62102 0.33037 0.0
C522 C 0.47044 0.64412 0.3473 0.0
C523 C 0.48617 0.62869 0.38346 0.0
H524 H 0.15826 0.46643 0.65464 0.0
H525 H 0.03546 0.46977 0.64782 0.0
H526 H 0.15858 0.50157 0.71168 0.0
H527 H 0.03477 0.50071 0.70812 0.0
H528 H 0.03818 0.55632 0.81713 0.0
H529 H 0.04768 0.55271 0.74677 0.0
H530 H 0.14399 0.47911 0.77649 0.0
H531 H 0.13509 0.48471 0.84529 0.0
C532 C 0.13128 0.47505 0.66535 0.0
C533 C 0.09677 0.46508 0.64716 0.0
C534 C 0.13132 0.4947 0.69843 0.0
C535 C 0.09664 0.50324 0.71538 0.0
C536 C 0.06214 0.49495 0.69597 0.0
C537 C 0.06231 0.47644 0.6619 0.0
C538 C 0.06243 0.54127 0.80793 0.0
C539 C 0.086 0.52077 0.83622 0.0
C540 C 0.06751 0.53844 0.76784 0.0
C541 C 0.09616 0.51492 0.7557 0.0
C542 C 0.12186 0.49792 0.78408 0.0
C543 C 0.11688 0.501 0.82374 0.0
H544 H 0.76273 0.92509 0.85429 0.0
H545 H 0.825 0.91657 0.96277 0.0
H546 H 0.71006 0.95404 0.88515 0.0
H547 H 0.77148 0.94218 0.99513 0.0
H548 H 0.68203 0.01778 0.03963 0.0
H549 H 0.73597 0.99364 1.00681 0.0
H550 H 0.65779 0.94393 0.92609 0.0
H551 H 0.60444 0.97048 0.9576 0.0
C552 C 0.76496 0.9292 0.88494 0.0
C553 C 0.79784 0.91792 0.9062 0.0
C554 C 0.73443 0.94534 0.90305 0.0
C555 C 0.7355 0.95036 0.94329 0.0
C556 C 0.769 0.93956 0.96418 0.0
C557 C 0.79974 0.92416 0.9458 0.0
C558 C 0.67639 1.00169 1.01484 0.0
C559 C 0.63868 0.9962 1.0014 0.0
C560 C 0.70751 0.98743 0.99595 0.0
C561 C 0.70204 0.96638 0.96332 0.0
C562 C 0.66402 0.9606 0.95031 0.0
C563 C 0.63304 0.97557 0.96874 0.0
H564 H 0.76154 0.20939 0.42774 0.0
H565 H 0.69557 0.09704 0.47103 0.0
H566 H 0.82082 0.17478 0.43795 0.0
H567 H 0.75524 0.06153 0.48033 0.0
H568 H 0.87329 0.01566 0.44011 0.0
H569 H 0.81089 0.04515 0.43587 0.0
H570 H 0.85585 0.14092 0.49843 0.0
H571 H 0.91821 0.1117 0.50234 0.0
C572 C 0.75994 0.1773 0.43992 0.0
C573 C 0.72436 0.15594 0.44966 0.0
C574 C 0.79372 0.15749 0.44563 0.0
C575 C 0.79253 0.1157 0.46056 0.0
C576 C 0.75682 0.09386 0.46897 0.0
C577 C 0.72288 0.11396 0.46368 0.0
C578 C 0.8697 0.0429 0.45307 0.0
C579 C 0.90062 0.06165 0.47123 0.0
C580 C 0.83399 0.05949 0.45098 0.0
C581 C 0.82878 0.09538 0.4666 0.0
C582 C 0.85931 0.11338 0.48587 0.0
C583 C 0.89486 0.09654 0.48836 0.0
H584 H 0.31183 0.60911 0.10586 0.0
H585 H 0.26171 0.72004 0.12301 0.0
H586 H 0.25402 0.58797 0.07187 0.0
H587 H 0.20426 0.69987 0.08816 0.0
H588 H 0.1541 0.57447 0.98919 0.0
H589 H 0.21435 0.60444 1.012 0.0
H590 H 0.15255 0.64659 0.10563 0.0
H591 H 0.09284 0.6174 0.0828 0.0
C592 C 0.28844 0.62903 0.10185 0.0
C593 C 0.29078 0.66596 0.11698 0.0
C594 C 0.25565 0.61728 0.08211 0.0
C595 C 0.22462 0.64229 0.07737 0.0
C596 C 0.22758 0.67983 0.09165 0.0
C597 C 0.26039 0.69152 0.11131 0.0
C598 C 0.15342 0.59076 1.01421 0.0
C599 C 0.1188 0.59336 0.03436 0.0
C600 C 0.18787 0.60763 0.02741 0.0
C601 C 0.18814 0.62773 0.06066 0.0
C602 C 0.15327 0.63172 0.07967 0.0
C603 C 0.11904 0.61469 0.06672 0.0
H604 H 0.15238 0.44691 0.49628 0.0
H605 H 0.17888 0.36281 0.59944 0.0
H606 H 0.21975 0.45104 0.47438 0.0
H607 H 0.24533 0.36535 0.57719 0.0
H608 H 0.36314 0.37195 0.52483 0.0
H609 H 0.29417 0.35574 0.52483 0.0
H610 H 0.27542 0.4841 0.50982 0.0
H611 H 0.34417 0.50056 0.51092 0.0
C612 C 0.17236 0.42813 0.51335 0.0
C613 C 0.16077 0.40486 0.54963 0.0
C614 C 0.21076 0.43054 0.50098 0.0
C615 C 0.2378 0.40891 0.52438 0.0
C616 C 0.22513 0.38214 0.55839 0.0
C617 C 0.187 0.38038 0.57103 0.0
C618 C 0.34449 0.39685 0.52149 0.0
C619 C 0.3595 0.43764 0.51872 0.0
C620 C 0.30494 0.38746 0.52108 0.0
C621 C 0.27948 0.41862 0.51731 0.0
C622 C 0.29441 0.45944 0.51216 0.0
C623 C 0.33394 0.46886 0.51298 0.0
H624 H 0.84157 0.77956 0.87259 0.0
H625 H 0.94782 0.84933 0.88553 0.0
H626 H 0.87213 0.71624 0.8959 0.0
H627 H 0.97924 0.78562 0.90697 0.0
H628 H 1.01812 0.64692 0.91116 0.0
H629 H 0.9916 0.7106 0.88027 0.0
H630 H 0.90276 0.69452 0.96997 0.0
H631 H 0.92992 0.63188 1.00167 0.0
C632 C 0.8718 0.78121 0.87937 0.0
C633 C 0.89223 0.81946 0.8773 0.0
C634 C 0.88926 0.74499 0.89289 0.0
C635 C 0.92801 0.74588 0.90371 0.0
C636 C 0.94934 0.78391 0.89881 0.0
C637 C 0.93152 0.82037 0.88611 0.0
C638 C 0.99295 0.657 0.92433 0.0
C639 C 0.97617 0.63414 0.95897 0.0
C640 C 0.97788 0.69356 0.90669 0.0
C641 C 0.945 0.70756 0.92257 0.0
C642 C 0.92801 0.68448 0.95689 0.0
C643 C 0.94365 0.64862 0.97513 0.0
H644 H 0.36708 0.78117 0.1914 0.0
H645 H 0.4439 0.71505 0.13089 0.0
H646 H 0.41175 0.84219 0.17906 0.0
H647 H 0.48839 0.7763 0.11725 0.0
H648 H 0.49799 0.91206 0.04413 0.0
H649 H 0.46874 0.84465 0.07079 0.0
H650 H 0.48575 0.87065 0.18925 0.0
H651 H 0.51615 0.93813 0.16256 0.0
C652 C 0.39434 0.77953 0.17679 0.0
C653 C 0.40275 0.74377 0.16257 0.0
C654 C 0.41975 0.81421 0.16964 0.0
C655 C 0.45337 0.81375 0.14721 0.0
C656 C 0.46267 0.77722 0.13475 0.0
C657 C 0.43757 0.74231 0.14268 0.0
C658 C 0.49595 0.90323 0.07587 0.0
C659 C 0.50915 0.9303 0.10132 0.0
C660 C 0.47953 0.86458 0.09108 0.0
C661 C 0.47532 0.85255 0.132 0.0
C662 C 0.48896 0.8793 0.15758 0.0
C663 C 0.50626 0.91774 0.14234 0.0
H664 H 0.08577 0.35533 0.52241 0.0
H665 H 0.11291 0.31826 0.64438 0.0
H666 H 0.07795 0.28359 0.51286 0.0
H667 H 0.1044 0.24647 0.63554 0.0
H668 H 0.12556 0.12514 0.59172 0.0
H669 H 0.13406 0.19625 0.60186 0.0
H670 H 0.03324 0.22339 0.53309 0.0
H671 H 1.0249 0.15239 0.52257 0.0
C672 C 0.08989 0.33162 0.54712 0.0
C673 C 0.09909 0.34199 0.58422 0.0
C674 C 0.08519 0.29065 0.54185 0.0
C675 C 0.09011 0.25922 0.57357 0.0
C676 C 0.10043 0.26984 0.61049 0.0
C677 C 0.10492 0.31082 0.61572 0.0
C678 C 0.10504 0.14619 0.57896 0.0
C679 C 0.07455 0.133 0.5563 0.0
C680 C 0.10987 0.18696 0.58488 0.0
C681 C 0.08445 0.21559 0.56813 0.0
C682 C 0.05367 0.20227 0.54592 0.0
C683 C 0.04872 0.16147 0.54015 0.0
H684 H 0.58408 0.24847 0.46892 0.0
H685 H 0.69197 0.29801 0.41473 0.0
H686 H 0.56294 0.31748 0.46636 0.0
H687 H 0.6711 0.36738 0.4115 0.0
H688 H 0.63068 0.47978 0.4673 0.0
H689 H 0.65634 0.4156 0.45652 0.0
H690 H 0.54507 0.374 0.4177 0.0
H691 H 0.51941 0.43734 0.42961 0.0
C692 C 0.60308 0.27439 0.45647 0.0
C693 C 0.63952 0.2685 0.44236 0.0
C694 C 0.59105 0.31374 0.45457 0.0
C695 C 0.61529 0.34783 0.4383 0.0
C696 C 0.65195 0.34175 0.42436 0.0
C697 C 0.66392 0.3023 0.42631 0.0
C698 C 0.61219 0.45738 0.45523 0.0
C699 C 0.57307 0.46301 0.44972 0.0
C700 C 0.62677 0.42063 0.44919 0.0
C701 C 0.60237 0.38942 0.43729 0.0
C702 C 0.56421 0.39703 0.42801 0.0
C703 C 0.54964 0.43339 0.43443 0.0
loop_
_geom_bond_atom_site_label_1
_geom_bond_atom_site_label_2
_geom_bond_distance
_geom_bond_site_symmetry_2
_ccdc_geom_bond_type
C0 N1 1.317 . S
C0 N2 1.348 . S
C0 C3 1.485 . S
N1 C0 1.317 . S
N1 N5 1.370 . S
N2 C0 1.348 . S
N2 C4 1.346 . S
C3 C0 1.485 . S
C3 H7 0.960 . S
C3 H8 0.961 . S
C3 H9 0.960 . S
C4 N2 1.346 . S
C4 N5 1.307 . S
C4 C6 1.486 . S
N5 N1 1.370 . S
N5 C4 1.307 . S
C6 C4 1.486 . S
C6 H10 0.960 . S
C6 H11 0.960 . S
C6 H12 0.959 . S
H7 C3 0.960 . S
H8 C3 0.961 . S
H9 C3 0.960 . S
H10 C6 0.960 . S
H11 C6 0.960 . S
H12 C6 0.959 . S
C13 N14 1.317 . S
C13 N15 1.348 . S
C13 C16 1.485 . S
N14 C13 1.317 . S
N14 N18 1.370 . S
N15 C13 1.348 . S
N15 C17 1.346 . S
C16 C13 1.485 . S
C16 H20 0.960 . S
C16 H21 0.961 . S
C16 H22 0.960 . S
C17 N15 1.346 . S
C17 N18 1.307 . S
C17 C19 1.486 . S
N18 N14 1.370 . S
N18 C17 1.307 . S
C19 C17 1.486 . S
C19 H23 0.960 . S
C19 H24 0.960 . S
C19 H25 0.959 . S
H20 C16 0.960 . S
H21 C16 0.961 . S
H22 C16 0.960 . S
H23 C19 0.960 . S
H24 C19 0.960 . S
H25 C19 0.959 . S
C26 N27 1.317 . S
C26 N28 1.348 . S
C26 C29 1.485 . S
N27 C26 1.317 . S
N27 N31 1.370 . S
N28 C26 1.348 . S
N28 C30 1.346 . S
C29 C26 1.485 . S
C29 H33 0.960 . S
C29 H34 0.961 . S
C29 H35 0.960 . S
C30 N28 1.346 . S
C30 N31 1.307 . S
C30 C32 1.486 . S
N31 N27 1.370 . S
N31 C30 1.307 . S
C32 C30 1.486 . S
C32 H36 0.960 . S
C32 H37 0.960 . S
C32 H38 0.959 . S
H33 C29 0.960 . S
H34 C29 0.961 . S
H35 C29 0.960 . S
H36 C32 0.960 . S
H37 C32 0.960 . S
H38 C32 0.959 . S
C39 N40 1.317 . S
C39 N41 1.348 . S
C39 C42 1.485 . S
N40 C39 1.317 . S
N40 N44 1.370 . S
N41 C39 1.348 . S
N41 C43 1.346 . S
C42 C39 1.485 . S
C42 H46 0.960 . S
C42 H47 0.961 . S
C42 H48 0.960 . S
C43 N41 1.346 . S
C43 N44 1.307 . S
C43 C45 1.486 . S
N44 N40 1.370 . S
N44 C43 1.307 . S
C45 C43 1.486 . S
C45 H49 0.960 . S
C45 H50 0.960 . S
C45 H51 0.959 . S
H46 C42 0.960 . S
H47 C42 0.961 . S
H48 C42 0.960 . S
H49 C45 0.960 . S
H50 C45 0.960 . S
H51 C45 0.959 . S
C52 N53 1.317 . S
C52 N54 1.348 . S
C52 C55 1.485 . S
N53 C52 1.317 . S
N53 N57 1.370 . S
N54 C52 1.348 . S
N54 C56 1.346 . S
C55 C52 1.485 . S
C55 H59 0.960 . S
C55 H60 0.961 . S
C55 H61 0.960 . S
C56 N54 1.346 . S
C56 N57 1.307 . S
C56 C58 1.486 . S
N57 N53 1.370 . S
N57 C56 1.307 . S
C58 C56 1.486 . S
C58 H62 0.963 . S
C58 H63 0.960 . S
C58 H64 0.959 . S
H59 C55 0.960 . S
H60 C55 0.961 . S
H61 C55 0.960 . S
H62 C58 0.963 . S
H63 C58 0.960 . S
H64 C58 0.959 . S
C65 N66 1.317 . S
C65 N67 1.348 . S
C65 C68 1.485 . S
N66 C65 1.317 . S
N66 N70 1.370 . S
N67 C65 1.348 . S
N67 C69 1.346 . S
C68 C65 1.485 . S
C68 H72 0.960 . S
C68 H73 0.961 . S
C68 H74 0.960 . S
C69 N67 1.346 . S
C69 N70 1.307 . S
C69 C71 1.486 . S
N70 N66 1.370 . S
N70 C69 1.307 . S
C71 C69 1.486 . S
C71 H75 0.960 . S
C71 H76 0.960 . S
C71 H77 0.959 . S
H72 C68 0.960 . S
H73 C68 0.961 . S
H74 C68 0.960 . S
H75 C71 0.960 . S
H76 C71 0.960 . S
H77 C71 0.959 . S
C78 N79 1.317 . S
C78 N80 1.348 . S
C78 C81 1.485 . S
N79 C78 1.317 . S
N79 N83 1.370 . S
N80 C78 1.348 . S
N80 C82 1.346 . S
C81 C78 1.485 . S
C81 H85 0.960 . S
C81 H86 0.961 . S
C81 H87 0.960 . S
C82 N80 1.346 . S
C82 N83 1.307 . S
C82 C84 1.486 . S
N83 N79 1.370 . S
N83 C82 1.307 . S
C84 C82 1.486 . S
C84 H88 0.960 . S
C84 H89 0.960 . S
C84 H90 0.959 . S
H85 C81 0.960 . S
H86 C81 0.961 . S
H87 C81 0.960 . S
H88 C84 0.960 . S
H89 C84 0.960 . S
H90 C84 0.959 . S
C91 N92 1.317 . S
C91 N93 1.348 . S
C91 C94 1.485 . S
N92 C91 1.317 . S
N92 N96 1.370 . S
N93 C91 1.348 . S
N93 C95 1.346 . S
C94 C91 1.485 . S
C94 H98 0.960 . S
C94 H99 0.961 . S
C94 H100 0.960 . S
C95 N93 1.346 . S
C95 N96 1.307 . S
C95 C97 1.486 . S
N96 N92 1.370 . S
N96 C95 1.307 . S
C97 C95 1.486 . S
C97 H101 0.960 . S
C97 H102 0.960 . S
C97 H103 0.959 . S
H98 C94 0.960 . S
H99 C94 0.961 . S
H100 C94 0.960 . S
H101 C97 0.960 . S
H102 C97 0.960 . S
H103 C97 0.959 . S
Co104 N109 2.057 1_455 S
Co104 O121 2.021 . S
Co104 O124 2.062 . S
Co104 O128 2.118 1_445 S
Co104 O129 2.020 1_455 S
C105 O125 1.259 . S
C105 O128 1.248 1_455 S
Co106 N115 2.057 . S
Co106 O122 2.117 1_565 S
Co106 O123 2.020 1_565 S
Co106 O125 2.021 . S
Co106 O130 2.062 . S
C107 N109 1.316 . S
C107 N110 1.347 . S
C107 H112 0.931 . S
C108 N109 1.375 . S
C108 C111 1.350 . S
C108 H113 0.930 1_545 S
N109 Co104 2.057 1_655 S
N109 C107 1.316 . S
N109 C108 1.375 . S
N110 C107 1.347 . S
N110 C111 1.373 . S
C111 C108 1.350 . S
C111 N110 1.373 . S
C111 H132 0.931 . S
H112 C107 0.931 . S
H113 C108 0.930 1_565 S
C114 O121 1.259 . S
C114 O122 1.258 . S
N115 Co106 2.057 . S
N115 C116 1.316 . S
N115 C117 1.375 1_565 S
C116 N115 1.316 . S
C116 N118 1.347 . S
C116 H127 0.931 . S
C117 N115 1.375 1_545 S
C117 C119 1.350 . S
C117 H126 0.930 . S
N118 C116 1.347 . S
N118 C119 1.373 1_565 S
C119 C117 1.350 . S
C119 N118 1.373 1_545 S
C119 H133 0.931 . S
C120 O123 1.256 . S
C120 O124 1.255 . S
O121 Co104 2.021 . S
O121 C114 1.259 . S
O122 Co106 2.117 1_545 S
O122 C114 1.258 . S
O123 Co106 2.020 1_545 S
O123 C120 1.256 . S
O124 Co104 2.062 . S
O124 C120 1.255 . S
O125 C105 1.259 . S
O125 Co106 2.021 . S
H126 C117 0.930 . S
H127 C116 0.931 . S
O128 Co104 2.118 1_665 S
O128 C105 1.248 1_655 S
O129 Co104 2.020 1_655 S
O129 C131 1.256 1_645 S
O130 Co106 2.062 . S
O130 C131 1.255 . S
C131 O129 1.256 1_465 S
C131 O130 1.255 . S
H132 C111 0.931 . S
H133 C119 0.931 . S
Co134 N139 2.057 1_545 S
Co134 O151 2.021 . S
Co134 O154 2.066 . S
Co134 O158 2.117 1_546 S
Co134 O159 2.020 1_556 S
C135 O155 1.259 . S
C135 O158 1.258 . S
Co136 N145 2.057 . S
Co136 O152 2.117 . S
Co136 O153 2.020 . S
Co136 O155 2.021 1_545 S
Co136 O160 2.062 . S
C137 N139 1.316 1_545 S
C137 N140 1.345 1_545 S
C137 H142 0.933 . S
C138 N139 1.375 . S
C138 C141 1.350 . S
C138 H143 0.930 . S
N139 Co134 2.057 1_565 S
N139 C137 1.316 1_565 S
N139 C138 1.375 . S
N140 C137 1.345 1_565 S
N140 C141 1.373 . S
C141 C138 1.350 . S
C141 N140 1.373 . S
C141 H162 0.931 . S
H142 C137 0.933 . S
H143 C138 0.930 . S
C144 O151 1.259 . S
C144 O152 1.258 1_556 S
N145 Co136 2.057 . S
N145 C146 1.316 . S
N145 C147 1.375 . S
C146 N145 1.316 . S
C146 N148 1.347 . S
C146 H157 0.931 . S
C147 N145 1.375 . S
C147 C149 1.350 . S
C147 H156 0.930 . S
N148 C146 1.347 . S
N148 C149 1.373 . S
C149 C147 1.350 . S
C149 N148 1.373 . S
C149 H163 0.931 . S
C150 O153 1.255 1_565 S
C150 O154 1.254 1_564 S
O151 Co134 2.021 . S
O151 C144 1.259 . S
O152 Co136 2.117 . S
O152 C144 1.258 1_554 S
O153 Co136 2.020 . S
O153 C150 1.255 1_545 S
O154 Co134 2.066 . S
O154 C150 1.254 1_546 S
O155 C135 1.259 . S
O155 Co136 2.021 1_565 S
H156 C147 0.930 . S
H157 C146 0.931 . S
O158 Co134 2.117 1_564 S
O158 C135 1.258 . S
O159 Co134 2.020 1_554 S
O159 C161 1.256 . S
O160 Co136 2.062 . S
O160 C161 1.255 . S
C161 O159 1.256 . S
C161 O160 1.255 . S
H162 C141 0.931 . S
H163 C149 0.931 . S
Co164 N169 2.057 . S
Co164 O181 2.021 . S
Co164 O184 2.062 . S
Co164 O188 2.117 . S
Co164 O189 2.020 . S
C165 O185 1.259 . S
C165 O188 1.258 . S
Co166 N175 2.057 . S
Co166 O182 2.117 . S
Co166 O183 2.020 . S
Co166 O185 2.021 . S
Co166 O190 2.062 . S
C167 N169 1.316 . S
C167 N170 1.347 . S
C167 H172 0.931 . S
C168 N169 1.375 . S
C168 C171 1.350 . S
C168 H173 0.930 . S
N169 Co164 2.057 . S
N169 C167 1.316 . S
N169 C168 1.375 . S
N170 C167 1.347 . S
N170 C171 1.373 . S
C171 C168 1.350 . S
C171 N170 1.373 . S
C171 H192 0.931 . S
H172 C167 0.931 . S
H173 C168 0.930 . S
C174 O181 1.259 . S
C174 O182 1.258 . S
N175 Co166 2.057 . S
N175 C176 1.316 . S
N175 C177 1.375 . S
C176 N175 1.316 . S
C176 N178 1.347 . S
C176 H187 0.931 . S
C177 N175 1.375 . S
C177 C179 1.350 . S
C177 H186 0.930 . S
N178 C176 1.347 . S
N178 C179 1.373 . S
C179 C177 1.350 . S
C179 N178 1.373 . S
C179 H193 0.931 . S
C180 O183 1.256 . S
C180 O184 1.255 . S
O181 Co164 2.021 . S
O181 C174 1.259 . S
O182 Co166 2.117 . S
O182 C174 1.258 . S
O183 Co166 2.020 . S
O183 C180 1.256 . S
O184 Co164 2.062 . S
O184 C180 1.255 . S
O185 C165 1.259 . S
O185 Co166 2.021 . S
H186 C177 0.930 . S
H187 C176 0.931 . S
O188 Co164 2.117 . S
O188 C165 1.258 . S
O189 Co164 2.020 . S
O189 C191 1.256 . S
O190 Co166 2.062 . S
O190 C191 1.255 . S
C191 O189 1.256 . S
C191 O190 1.255 . S
H192 C171 0.931 . S
H193 C179 0.931 . S
Co194 N199 2.057 . S
Co194 O211 2.021 . S
Co194 O214 2.062 . S
Co194 O218 2.117 1_455 S
Co194 O219 2.020 1_455 S
C195 O215 1.259 1_556 S
C195 O218 1.258 . S
Co196 N205 2.057 . S
Co196 O212 2.117 1_655 S
Co196 O213 2.020 1_655 S
Co196 O215 2.021 . S
Co196 O220 2.062 . S
C197 N199 1.316 . S
C197 N200 1.347 . S
C197 H202 0.931 . S
C198 N199 1.375 1_655 S
C198 C201 1.350 1_655 S
C198 H203 0.930 . S
N199 Co194 2.057 . S
N199 C197 1.316 . S
N199 C198 1.375 1_455 S
N200 C197 1.347 . S
N200 C201 1.373 . S
C201 C198 1.350 1_455 S
C201 N200 1.373 . S
C201 H222 0.931 1_455 S
H202 C197 0.931 . S
H203 C198 0.930 . S
C204 O211 1.259 1_554 S
C204 O212 1.258 . S
N205 Co196 2.057 . S
N205 C206 1.316 . S
N205 C207 1.375 1_655 S
C206 N205 1.316 . S
C206 N208 1.347 . S
C206 H217 0.931 . S
C207 N205 1.375 1_455 S
C207 C209 1.350 . S
C207 H216 0.930 . S
N208 C206 1.347 . S
N208 C209 1.373 1_655 S
C209 C207 1.350 . S
C209 N208 1.373 1_455 S
C209 H223 0.931 . S
C210 O213 1.256 . S
C210 O214 1.255 1_554 S
O211 Co194 2.021 . S
O211 C204 1.259 1_556 S
O212 Co196 2.117 1_455 S
O212 C204 1.258 . S
O213 Co196 2.020 1_455 S
O213 C210 1.256 . S
O214 Co194 2.062 . S
O214 C210 1.255 1_556 S
O215 C195 1.259 1_554 S
O215 Co196 2.021 . S
H216 C207 0.930 . S
H217 C206 0.931 . S
O218 Co194 2.117 1_655 S
O218 C195 1.258 . S
O219 Co194 2.020 1_655 S
O219 C221 1.256 . S
O220 Co196 2.062 . S
O220 C221 1.255 1_554 S
C221 O219 1.256 . S
C221 O220 1.255 1_556 S
H222 C201 0.931 1_655 S
H223 C209 0.931 . S
H224 C232 0.950 . S
H225 C237 0.950 . S
H226 C234 0.950 . S
H227 C236 0.950 . S
H228 C238 0.950 . S
H229 C240 0.950 . S
H230 C242 0.950 . S
H231 C243 0.950 . S
C232 H224 0.950 . S
C232 C233 1.386 . S
C232 C234 1.391 . S
C233 C232 1.386 . S
C233 C237 1.393 . S
C234 H226 0.950 . S
C234 C232 1.391 . S
C234 C235 1.400 . S
C235 C234 1.400 . S
C235 C236 1.398 . S
C235 C241 1.491 . S
C236 H227 0.950 . S
C236 C235 1.398 . S
C236 C237 1.391 . S
C237 H225 0.950 . S
C237 C233 1.393 . S
C237 C236 1.391 . S
C238 H228 0.950 . S
C238 C239 1.386 . S
C238 C240 1.391 . S
C239 C238 1.386 . S
C239 C243 1.393 . S
C240 H229 0.950 . S
C240 C238 1.391 . S
C240 C241 1.400 . S
C241 C235 1.491 . S
C241 C240 1.400 . S
C241 C242 1.398 . S
C242 H230 0.950 . S
C242 C241 1.398 . S
C242 C243 1.391 . S
C243 H231 0.950 . S
C243 C239 1.393 . S
C243 C242 1.391 . S
H244 C252 0.950 . S
H245 C257 0.950 . S
H246 C254 0.950 . S
H247 C256 0.950 . S
H248 C258 0.950 1_545 S
H249 C260 0.950 . S
H250 C262 0.950 . S
H251 C263 0.950 . S
C252 H244 0.950 . S
C252 C253 1.386 . S
C252 C254 1.391 . S
C253 C252 1.386 . S
C253 C257 1.393 . S
C254 H246 0.950 . S
C254 C252 1.391 . S
C254 C255 1.400 . S
C255 C254 1.400 . S
C255 C256 1.398 . S
C255 C261 1.491 . S
C256 H247 0.950 . S
C256 C255 1.398 . S
C256 C257 1.391 . S
C257 H245 0.950 . S
C257 C253 1.393 . S
C257 C256 1.391 . S
C258 H248 0.950 1_565 S
C258 C259 1.386 . S
C258 C260 1.391 . S
C259 C258 1.386 . S
C259 C263 1.393 . S
C260 H249 0.950 . S
C260 C258 1.391 . S
C260 C261 1.400 . S
C261 C255 1.491 . S
C261 C260 1.400 . S
C261 C262 1.398 . S
C262 H250 0.950 . S
C262 C261 1.398 . S
C262 C263 1.391 . S
C263 H251 0.950 . S
C263 C259 1.393 . S
C263 C262 1.391 . S
H264 C272 0.950 . S
H265 C277 0.950 . S
H266 C274 0.950 . S
H267 C276 0.950 . S
H268 C278 0.950 . S
H269 C280 0.950 . S
H270 C282 0.950 . S
H271 C283 0.950 . S
C272 H264 0.950 . S
C272 C273 1.386 . S
C272 C274 1.391 . S
C273 C272 1.386 . S
C273 C277 1.393 . S
C274 H266 0.950 . S
C274 C272 1.391 . S
C274 C275 1.400 . S
C275 C274 1.400 . S
C275 C276 1.398 . S
C275 C281 1.491 . S
C276 H267 0.950 . S
C276 C275 1.398 . S
C276 C277 1.391 . S
C277 H265 0.950 . S
C277 C273 1.393 . S
C277 C276 1.391 . S
C278 H268 0.950 . S
C278 C279 1.386 . S
C278 C280 1.391 . S
C279 C278 1.386 . S
C279 C283 1.393 . S
C280 H269 0.950 . S
C280 C278 1.391 . S
C280 C281 1.400 . S
C281 C275 1.491 . S
C281 C280 1.400 . S
C281 C282 1.398 . S
C282 H270 0.950 . S
C282 C281 1.398 . S
C282 C283 1.391 . S
C283 H271 0.950 . S
C283 C279 1.393 . S
C283 C282 1.391 . S
H284 C292 0.950 . S
H285 C297 0.950 . S
H286 C294 0.950 . S
H287 C296 0.950 . S
H288 C298 0.950 . S
H289 C300 0.950 . S
H290 C302 0.950 . S
H291 C303 0.950 . S
C292 H284 0.950 . S
C292 C293 1.386 . S
C292 C294 1.391 . S
C293 C292 1.386 . S
C293 C297 1.393 . S
C294 H286 0.950 . S
C294 C292 1.391 . S
C294 C295 1.400 . S
C295 C294 1.400 . S
C295 C296 1.398 . S
C295 C301 1.491 . S
C296 H287 0.950 . S
C296 C295 1.398 . S
C296 C297 1.391 . S
C297 H285 0.950 . S
C297 C293 1.393 . S
C297 C296 1.391 . S
C298 H288 0.950 . S
C298 C299 1.386 . S
C298 C300 1.391 . S
C299 C298 1.386 . S
C299 C303 1.393 . S
C300 H289 0.950 . S
C300 C298 1.391 . S
C300 C301 1.400 . S
C301 C295 1.491 . S
C301 C300 1.400 . S
C301 C302 1.398 . S
C302 H290 0.950 . S
C302 C301 1.398 . S
C302 C303 1.391 . S
C303 H291 0.950 . S
C303 C299 1.393 . S
C303 C302 1.391 . S
H304 C312 0.950 . S
H305 C317 0.950 . S
H306 C314 0.950 . S
H307 C316 0.950 . S
H308 C318 0.950 . S
H309 C320 0.950 . S
H310 C322 0.950 . S
H311 C323 0.950 . S
C312 H304 0.950 . S
C312 C313 1.386 . S
C312 C314 1.391 . S
C313 C312 1.386 . S
C313 C317 1.393 . S
C314 H306 0.950 . S
C314 C312 1.391 . S
C314 C315 1.400 . S
C315 C314 1.400 . S
C315 C316 1.398 . S
C315 C321 1.491 . S
C316 H307 0.950 . S
C316 C315 1.398 . S
C316 C317 1.391 . S
C317 H305 0.950 . S
C317 C313 1.393 . S
C317 C316 1.391 . S
C318 H308 0.950 . S
C318 C319 1.386 . S
C318 C320 1.391 . S
C319 C318 1.386 . S
C319 C323 1.393 . S
C320 H309 0.950 . S
C320 C318 1.391 . S
C320 C321 1.400 . S
C321 C315 1.491 . S
C321 C320 1.400 . S
C321 C322 1.398 . S
C322 H310 0.950 . S
C322 C321 1.398 . S
C322 C323 1.391 . S
C323 H311 0.950 . S
C323 C319 1.393 . S
C323 C322 1.391 . S
H324 C332 0.950 . S
H325 C337 0.950 . S
H326 C334 0.950 . S
H327 C336 0.950 . S
H328 C338 0.950 . S
H329 C340 0.950 . S
H330 C342 0.950 . S
H331 C343 0.950 . S
C332 H324 0.950 . S
C332 C333 1.386 . S
C332 C334 1.391 . S
C333 C332 1.386 . S
C333 C337 1.393 . S
C334 H326 0.950 . S
C334 C332 1.391 . S
C334 C335 1.400 . S
C335 C334 1.400 . S
C335 C336 1.398 . S
C335 C341 1.491 . S
C336 H327 0.950 . S
C336 C335 1.398 . S
C336 C337 1.391 . S
C337 H325 0.950 . S
C337 C333 1.393 . S
C337 C336 1.391 . S
C338 H328 0.950 . S
C338 C339 1.386 . S
C338 C340 1.391 . S
C339 C338 1.386 . S
C339 C343 1.393 . S
C340 H329 0.950 . S
C340 C338 1.391 . S
C340 C341 1.400 . S
C341 C335 1.491 . S
C341 C340 1.400 . S
C341 C342 1.398 . S
C342 H330 0.950 . S
C342 C341 1.398 . S
C342 C343 1.391 . S
C343 H331 0.950 . S
C343 C339 1.393 . S
C343 C342 1.391 . S
H344 C352 0.950 . S
H345 C357 0.950 . S
H346 C354 0.950 . S
H347 C356 0.950 . S
H348 C358 0.950 1_554 S
H349 C360 0.965 . S
H350 C362 0.950 . S
H351 C363 0.950 . S
C352 H344 0.950 . S
C352 C353 1.386 . S
C352 C354 1.391 . S
C353 C352 1.386 . S
C353 C357 1.393 . S
C354 H346 0.950 . S
C354 C352 1.391 . S
C354 C355 1.400 . S
C355 C354 1.400 . S
C355 C356 1.398 . S
C355 C361 1.491 . S
C356 H347 0.950 . S
C356 C355 1.398 . S
C356 C357 1.391 . S
C357 H345 0.950 . S
C357 C353 1.393 . S
C357 C356 1.391 . S
C358 H348 0.950 1_556 S
C358 C359 1.386 . S
C358 C360 1.391 . S
C359 C358 1.386 . S
C359 C363 1.393 . S
C360 H349 0.965 . S
C360 C358 1.391 . S
C360 C361 1.400 . S
C361 C355 1.491 . S
C361 C360 1.400 . S
C361 C362 1.398 . S
C362 H350 0.950 . S
C362 C361 1.398 . S
C362 C363 1.391 . S
C363 H351 0.950 . S
C363 C359 1.393 . S
C363 C362 1.391 . S
H364 C372 0.950 . S
H365 C377 0.950 . S
H366 C374 0.950 . S
H367 C376 0.950 . S
H368 C378 0.950 . S
H369 C380 0.950 . S
H370 C382 0.950 . S
H371 C383 0.950 . S
C372 H364 0.950 . S
C372 C373 1.386 . S
C372 C374 1.391 . S
C373 C372 1.386 . S
C373 C377 1.393 . S
C374 H366 0.950 . S
C374 C372 1.391 . S
C374 C375 1.400 . S
C375 C374 1.400 . S
C375 C376 1.398 . S
C375 C381 1.491 . S
C376 H367 0.950 . S
C376 C375 1.398 . S
C376 C377 1.391 . S
C377 H365 0.950 . S
C377 C373 1.393 . S
C377 C376 1.391 . S
C378 H368 0.950 . S
C378 C379 1.386 . S
C378 C380 1.391 . S
C379 C378 1.386 . S
C379 C383 1.393 . S
C380 H369 0.950 . S
C380 C378 1.391 . S
C380 C381 1.400 . S
C381 C375 1.491 . S
C381 C380 1.400 . S
C381 C382 1.398 . S
C382 H370 0.950 . S
C382 C381 1.398 . S
C382 C383 1.391 . S
C383 H371 0.950 . S
C383 C379 1.393 . S
C383 C382 1.391 . S
H384 C392 0.950 . S
H385 C397 0.950 . S
H386 C394 0.950 . S
H387 C396 0.950 . S
H388 C398 0.950 1_556 S
H389 C400 0.950 1_556 S
H390 C402 0.950 . S
H391 C403 0.950 . S
C392 H384 0.950 . S
C392 C393 1.386 . S
C392 C394 1.391 . S
C393 C392 1.386 . S
C393 C397 1.393 . S
C394 H386 0.950 . S
C394 C392 1.391 . S
C394 C395 1.400 . S
C395 C394 1.400 . S
C395 C396 1.398 . S
C395 C401 1.491 . S
C396 H387 0.950 . S
C396 C395 1.398 . S
C396 C397 1.391 . S
C397 H385 0.950 . S
C397 C393 1.393 . S
C397 C396 1.391 . S
C398 H388 0.950 1_554 S
C398 C399 1.386 . S
C398 C400 1.391 . S
C399 C398 1.386 . S
C399 C403 1.393 . S
C400 H389 0.950 1_554 S
C400 C398 1.391 . S
C400 C401 1.400 . S
C401 C395 1.491 . S
C401 C400 1.400 . S
C401 C402 1.398 . S
C402 H390 0.950 . S
C402 C401 1.398 . S
C402 C403 1.391 . S
C403 H391 0.950 . S
C403 C399 1.393 . S
C403 C402 1.391 . S
H404 C412 0.950 . S
H405 C417 0.950 . S
H406 C414 0.950 . S
H407 C416 0.950 . S
H408 C418 0.950 . S
H409 C420 0.950 . S
H410 C422 0.950 1_554 S
H411 C423 0.950 . S
C412 H404 0.950 . S
C412 C413 1.386 . S
C412 C414 1.391 . S
C413 C412 1.386 . S
C413 C417 1.393 . S
C414 H406 0.950 . S
C414 C412 1.391 . S
C414 C415 1.400 . S
C415 C414 1.400 . S
C415 C416 1.398 . S
C415 C421 1.491 . S
C416 H407 0.950 . S
C416 C415 1.398 . S
C416 C417 1.391 . S
C417 H405 0.950 . S
C417 C413 1.393 . S
C417 C416 1.391 . S
C418 H408 0.950 . S
C418 C419 1.386 . S
C418 C420 1.391 . S
C419 C418 1.386 . S
C419 C423 1.393 1_556 S
C420 H409 0.950 . S
C420 C418 1.391 . S
C420 C421 1.400 . S
C421 C415 1.491 . S
C421 C420 1.400 . S
C421 C422 1.398 . S
C422 H410 0.950 1_556 S
C422 C421 1.398 . S
C422 C423 1.391 1_556 S
C423 H411 0.950 . S
C423 C419 1.393 1_554 S
C423 C422 1.391 1_554 S
H424 C432 0.950 . S
H425 C437 0.950 . S
H426 C434 0.950 . S
H427 C436 0.950 1_455 S
H428 C438 0.950 . S
H429 C440 0.950 . S
H430 C442 0.950 . S
H431 C443 0.950 . S
C432 H424 0.950 . S
C432 C433 1.386 . S
C432 C434 1.391 . S
C433 C432 1.386 . S
C433 C437 1.393 . S
C434 H426 0.950 . S
C434 C432 1.391 . S
C434 C435 1.400 . S
C435 C434 1.400 . S
C435 C436 1.398 . S
C435 C441 1.491 . S
C436 H427 0.950 1_655 S
C436 C435 1.398 . S
C436 C437 1.391 . S
C437 H425 0.950 . S
C437 C433 1.393 . S
C437 C436 1.391 . S
C438 H428 0.950 . S
C438 C439 1.386 . S
C438 C440 1.391 . S
C439 C438 1.386 . S
C439 C443 1.393 1_455 S
C440 H429 0.950 . S
C440 C438 1.391 . S
C440 C441 1.400 1_455 S
C441 C435 1.491 . S
C441 C440 1.400 1_655 S
C441 C442 1.398 . S
C442 H430 0.950 . S
C442 C441 1.398 . S
C442 C443 1.391 . S
C443 H431 0.950 . S
C443 C439 1.393 1_655 S
C443 C442 1.391 . S
H444 C452 0.950 . S
H445 C457 0.950 . S
H446 C454 0.950 . S
H447 C456 0.950 . S
H448 C458 0.950 . S
H449 C460 0.950 . S
H450 C462 0.950 . S
H451 C463 0.950 . S
C452 H444 0.950 . S
C452 C453 1.386 . S
C452 C454 1.391 . S
C453 C452 1.386 . S
C453 C457 1.393 . S
C454 H446 0.950 . S
C454 C452 1.391 . S
C454 C455 1.400 . S
C455 C454 1.400 . S
C455 C456 1.398 . S
C455 C461 1.491 . S
C456 H447 0.950 . S
C456 C455 1.398 . S
C456 C457 1.391 . S
C457 H445 0.950 . S
C457 C453 1.393 . S
C457 C456 1.391 . S
C458 H448 0.950 . S
C458 C459 1.386 . S
C458 C460 1.391 . S
C459 C458 1.386 . S
C459 C463 1.393 . S
C460 H449 0.950 . S
C460 C458 1.391 . S
C460 C461 1.400 . S
C461 C455 1.491 . S
C461 C460 1.400 . S
C461 C462 1.398 . S
C462 H450 0.950 . S
C462 C461 1.398 . S
C462 C463 1.391 . S
C463 H451 0.950 . S
C463 C459 1.393 . S
C463 C462 1.391 . S
H464 C472 0.950 . S
H465 C477 0.950 . S
H466 C474 0.950 . S
H467 C476 0.950 . S
H468 C478 0.950 . S
H469 C480 0.950 . S
H470 C482 0.950 . S
H471 C483 0.950 1_545 S
C472 H464 0.950 . S
C472 C473 1.386 . S
C472 C474 1.391 . S
C473 C472 1.386 . S
C473 C477 1.393 . S
C474 H466 0.950 . S
C474 C472 1.391 . S
C474 C475 1.400 . S
C475 C474 1.400 . S
C475 C476 1.398 . S
C475 C481 1.491 . S
C476 H467 0.950 . S
C476 C475 1.398 . S
C476 C477 1.391 . S
C477 H465 0.950 . S
C477 C473 1.393 . S
C477 C476 1.391 . S
C478 H468 0.950 . S
C478 C479 1.386 1_655 S
C478 C480 1.391 . S
C479 C478 1.386 1_455 S
C479 C483 1.393 . S
C480 H469 0.950 . S
C480 C478 1.391 . S
C480 C481 1.400 . S
C481 C475 1.491 . S
C481 C480 1.400 . S
C481 C482 1.398 1_655 S
C482 H470 0.950 . S
C482 C481 1.398 1_455 S
C482 C483 1.391 . S
C483 H471 0.950 1_565 S
C483 C479 1.393 . S
C483 C482 1.391 . S
H484 C492 0.950 . S
H485 C497 0.950 . S
H486 C494 0.950 . S
H487 C496 0.950 . S
H488 C498 0.950 . S
H489 C500 0.950 . S
H490 C502 0.950 . S
H491 C503 0.950 . S
C492 H484 0.950 . S
C492 C493 1.386 . S
C492 C494 1.391 . S
C493 C492 1.386 . S
C493 C497 1.393 . S
C494 H486 0.950 . S
C494 C492 1.391 . S
C494 C495 1.400 . S
C495 C494 1.400 . S
C495 C496 1.398 . S
C495 C501 1.491 . S
C496 H487 0.950 . S
C496 C495 1.398 . S
C496 C497 1.391 . S
C497 H485 0.950 . S
C497 C493 1.393 . S
C497 C496 1.391 . S
C498 H488 0.950 . S
C498 C499 1.386 . S
C498 C500 1.391 . S
C499 C498 1.386 . S
C499 C503 1.393 . S
C500 H489 0.950 . S
C500 C498 1.391 . S
C500 C501 1.400 . S
C501 C495 1.491 . S
C501 C500 1.400 . S
C501 C502 1.398 . S
C502 H490 0.950 . S
C502 C501 1.398 . S
C502 C503 1.391 . S
C503 H491 0.950 . S
C503 C499 1.393 . S
C503 C502 1.391 . S
H504 C512 0.950 . S
H505 C517 0.950 . S
H506 C514 0.950 . S
H507 C516 0.950 . S
H508 C518 0.950 . S
H509 C520 0.950 . S
H510 C522 0.950 . S
H511 C523 0.950 . S
C512 H504 0.950 . S
C512 C513 1.386 . S
C512 C514 1.391 . S
C513 C512 1.386 . S
C513 C517 1.393 . S
C514 H506 0.950 . S
C514 C512 1.391 . S
C514 C515 1.400 . S
C515 C514 1.400 . S
C515 C516 1.398 . S
C515 C521 1.491 . S
C516 H507 0.950 . S
C516 C515 1.398 . S
C516 C517 1.391 . S
C517 H505 0.950 . S
C517 C513 1.393 . S
C517 C516 1.391 . S
C518 H508 0.950 . S
C518 C519 1.386 . S
C518 C520 1.391 . S
C519 C518 1.386 . S
C519 C523 1.393 . S
C520 H509 0.950 . S
C520 C518 1.391 . S
C520 C521 1.400 . S
C521 C515 1.491 . S
C521 C520 1.400 . S
C521 C522 1.398 . S
C522 H510 0.950 . S
C522 C521 1.398 . S
C522 C523 1.391 . S
C523 H511 0.950 . S
C523 C519 1.393 . S
C523 C522 1.391 . S
H524 C532 0.950 . S
H525 C537 0.950 . S
H526 C534 0.950 . S
H527 C536 0.950 . S
H528 C538 0.950 . S
H529 C540 0.950 . S
H530 C542 0.950 . S
H531 C543 0.950 . S
C532 H524 0.950 . S
C532 C533 1.386 . S
C532 C534 1.391 . S
C533 C532 1.386 . S
C533 C537 1.393 . S
C534 H526 0.950 . S
C534 C532 1.391 . S
C534 C535 1.400 . S
C535 C534 1.400 . S
C535 C536 1.398 . S
C535 C541 1.491 . S
C536 H527 0.950 . S
C536 C535 1.398 . S
C536 C537 1.391 . S
C537 H525 0.950 . S
C537 C533 1.393 . S
C537 C536 1.391 . S
C538 H528 0.950 . S
C538 C539 1.386 . S
C538 C540 1.391 . S
C539 C538 1.386 . S
C539 C543 1.393 . S
C540 H529 0.950 . S
C540 C538 1.391 . S
C540 C541 1.400 . S
C541 C535 1.491 . S
C541 C540 1.400 . S
C541 C542 1.398 . S
C542 H530 0.950 . S
C542 C541 1.398 . S
C542 C543 1.391 . S
C543 H531 0.950 . S
C543 C539 1.393 . S
C543 C542 1.391 . S
H544 C552 0.950 . S
H545 C557 0.950 . S
H546 C554 0.950 . S
H547 C556 0.950 . S
H548 C558 0.950 . S
H549 C560 0.950 1_544 S
H550 C562 0.950 . S
H551 C563 0.950 . S
C552 H544 0.950 . S
C552 C553 1.386 . S
C552 C554 1.391 . S
C553 C552 1.386 . S
C553 C557 1.393 . S
C554 H546 0.950 . S
C554 C552 1.391 . S
C554 C555 1.400 . S
C555 C554 1.400 . S
C555 C556 1.398 . S
C555 C561 1.491 . S
C556 H547 0.950 . S
C556 C555 1.398 . S
C556 C557 1.391 . S
C557 H545 0.950 . S
C557 C553 1.393 . S
C557 C556 1.391 . S
C558 H548 0.950 . S
C558 C559 1.386 1_544 S
C558 C560 1.391 1_544 S
C559 C558 1.386 1_566 S
C559 C563 1.393 . S
C560 H549 0.950 1_566 S
C560 C558 1.391 1_566 S
C560 C561 1.400 . S
C561 C555 1.491 . S
C561 C560 1.400 . S
C561 C562 1.398 . S
C562 H550 0.950 . S
C562 C561 1.398 . S
C562 C563 1.391 . S
C563 H551 0.950 . S
C563 C559 1.393 . S
C563 C562 1.391 . S
H564 C572 0.950 . S
H565 C577 0.950 . S
H566 C574 0.950 . S
H567 C576 0.950 . S
H568 C578 0.950 . S
H569 C580 0.950 . S
H570 C582 0.950 . S
H571 C583 0.950 . S
C572 H564 0.950 . S
C572 C573 1.386 . S
C572 C574 1.391 . S
C573 C572 1.386 . S
C573 C577 1.393 . S
C574 H566 0.950 . S
C574 C572 1.391 . S
C574 C575 1.400 . S
C575 C574 1.400 . S
C575 C576 1.398 . S
C575 C581 1.491 . S
C576 H567 0.950 . S
C576 C575 1.398 . S
C576 C577 1.391 . S
C577 H565 0.950 . S
C577 C573 1.393 . S
C577 C576 1.391 . S
C578 H568 0.950 . S
C578 C579 1.386 . S
C578 C580 1.391 . S
C579 C578 1.386 . S
C579 C583 1.393 . S
C580 H569 0.950 . S
C580 C578 1.391 . S
C580 C581 1.400 . S
C581 C575 1.491 . S
C581 C580 1.400 . S
C581 C582 1.398 . S
C582 H570 0.950 . S
C582 C581 1.398 . S
C582 C583 1.391 . S
C583 H571 0.950 . S
C583 C579 1.393 . S
C583 C582 1.391 . S
H584 C592 0.950 . S
H585 C597 0.950 . S
H586 C594 0.950 . S
H587 C596 0.950 . S
H588 C598 0.950 . S
H589 C600 0.950 . S
H590 C602 0.950 . S
H591 C603 0.950 . S
C592 H584 0.950 . S
C592 C593 1.386 . S
C592 C594 1.391 . S
C593 C592 1.386 . S
C593 C597 1.393 . S
C594 H586 0.950 . S
C594 C592 1.391 . S
C594 C595 1.400 . S
C595 C594 1.400 . S
C595 C596 1.398 . S
C595 C601 1.491 . S
C596 H587 0.950 . S
C596 C595 1.398 . S
C596 C597 1.391 . S
C597 H585 0.950 . S
C597 C593 1.393 . S
C597 C596 1.391 . S
C598 H588 0.950 . S
C598 C599 1.386 . S
C598 C600 1.391 . S
C599 C598 1.386 . S
C599 C603 1.393 . S
C600 H589 0.950 . S
C600 C598 1.391 . S
C600 C601 1.400 . S
C601 C595 1.491 . S
C601 C600 1.400 . S
C601 C602 1.398 . S
C602 H590 0.950 . S
C602 C601 1.398 . S
C602 C603 1.391 . S
C603 H591 0.950 . S
C603 C599 1.393 . S
C603 C602 1.391 . S
H604 C612 0.950 . S
H605 C617 0.950 . S
H606 C614 0.950 . S
H607 C616 0.950 . S
H608 C618 0.950 . S
H609 C620 0.950 . S
H610 C622 0.950 . S
H611 C623 0.950 . S
C612 H604 0.950 . S
C612 C613 1.386 . S
C612 C614 1.391 . S
C613 C612 1.386 . S
C613 C617 1.393 . S
C614 H606 0.950 . S
C614 C612 1.391 . S
C614 C615 1.400 . S
C615 C614 1.400 . S
C615 C616 1.398 . S
C615 C621 1.491 . S
C616 H607 0.950 . S
C616 C615 1.398 . S
C616 C617 1.391 . S
C617 H605 0.950 . S
C617 C613 1.393 . S
C617 C616 1.391 . S
C618 H608 0.950 . S
C618 C619 1.386 . S
C618 C620 1.391 . S
C619 C618 1.386 . S
C619 C623 1.393 . S
C620 H609 0.950 . S
C620 C618 1.391 . S
C620 C621 1.400 . S
C621 C615 1.491 . S
C621 C620 1.400 . S
C621 C622 1.398 . S
C622 H610 0.950 . S
C622 C621 1.398 . S
C622 C623 1.391 . S
C623 H611 0.950 . S
C623 C619 1.393 . S
C623 C622 1.391 . S
H624 C632 0.950 . S
H625 C637 0.950 . S
H626 C634 0.950 . S
H627 C636 0.950 . S
H628 C638 0.936 1_455 S
H629 C640 0.950 . S
H630 C642 0.950 . S
H631 C643 0.950 1_554 S
C632 H624 0.950 . S
C632 C633 1.386 . S
C632 C634 1.391 . S
C633 C632 1.386 . S
C633 C637 1.393 . S
C634 H626 0.950 . S
C634 C632 1.391 . S
C634 C635 1.400 . S
C635 C634 1.400 . S
C635 C636 1.398 . S
C635 C641 1.491 . S
C636 H627 0.950 . S
C636 C635 1.398 . S
C636 C637 1.391 . S
C637 H625 0.950 . S
C637 C633 1.393 . S
C637 C636 1.391 . S
C638 H628 0.936 1_655 S
C638 C639 1.386 . S
C638 C640 1.391 . S
C639 C638 1.386 . S
C639 C643 1.393 . S
C640 H629 0.950 . S
C640 C638 1.391 . S
C640 C641 1.400 . S
C641 C635 1.491 . S
C641 C640 1.400 . S
C641 C642 1.398 . S
C642 H630 0.950 . S
C642 C641 1.398 . S
C642 C643 1.391 . S
C643 H631 0.950 1_556 S
C643 C639 1.393 . S
C643 C642 1.391 . S
H644 C652 0.950 . S
H645 C657 0.950 . S
H646 C654 0.950 . S
H647 C656 0.950 . S
H648 C658 0.950 . S
H649 C660 0.950 . S
H650 C662 0.950 . S
H651 C663 0.950 . S
C652 H644 0.950 . S
C652 C653 1.386 . S
C652 C654 1.391 . S
C653 C652 1.386 . S
C653 C657 1.393 . S
C654 H646 0.950 . S
C654 C652 1.391 . S
C654 C655 1.400 . S
C655 C654 1.400 . S
C655 C656 1.398 . S
C655 C661 1.491 . S
C656 H647 0.950 . S
C656 C655 1.398 . S
C656 C657 1.391 . S
C657 H645 0.950 . S
C657 C653 1.393 . S
C657 C656 1.391 . S
C658 H648 0.950 . S
C658 C659 1.386 . S
C658 C660 1.391 . S
C659 C658 1.386 . S
C659 C663 1.393 . S
C660 H649 0.950 . S
C660 C658 1.391 . S
C660 C661 1.400 . S
C661 C655 1.491 . S
C661 C660 1.400 . S
C661 C662 1.398 . S
C662 H650 0.950 . S
C662 C661 1.398 . S
C662 C663 1.391 . S
C663 H651 0.950 . S
C663 C659 1.393 . S
C663 C662 1.391 . S
H664 C672 0.950 . S
H665 C677 0.950 . S
H666 C674 0.950 . S
H667 C676 0.950 . S
H668 C678 0.950 . S
H669 C680 0.950 . S
H670 C682 0.950 . S
H671 C683 0.950 . S
C672 H664 0.950 . S
C672 C673 1.386 . S
C672 C674 1.391 . S
C673 C672 1.386 . S
C673 C677 1.393 . S
C674 H666 0.950 . S
C674 C672 1.391 . S
C674 C675 1.400 . S
C675 C674 1.400 . S
C675 C676 1.398 . S
C675 C681 1.491 . S
C676 H667 0.950 . S
C676 C675 1.398 . S
C676 C677 1.391 . S
C677 H665 0.950 . S
C677 C673 1.393 . S
C677 C676 1.391 . S
C678 H668 0.950 . S
C678 C679 1.386 . S
C678 C680 1.391 . S
C679 C678 1.386 . S
C679 C683 1.393 . S
C680 H669 0.950 . S
C680 C678 1.391 . S
C680 C681 1.400 . S
C681 C675 1.491 . S
C681 C680 1.400 . S
C681 C682 1.398 . S
C682 H670 0.950 . S
C682 C681 1.398 . S
C682 C683 1.391 . S
C683 H671 0.950 . S
C683 C679 1.393 . S
C683 C682 1.391 . S
H684 C692 0.950 . S
H685 C697 0.950 . S
H686 C694 0.950 . S
H687 C696 0.950 . S
H688 C698 0.950 . S
H689 C700 0.950 . S
H690 C702 0.950 . S
H691 C703 0.950 . S
C692 H684 0.950 . S
C692 C693 1.386 . S
C692 C694 1.391 . S
C693 C692 1.386 . S
C693 C697 1.393 . S
C694 H686 0.950 . S
C694 C692 1.391 . S
C694 C695 1.400 . S
C695 C694 1.400 . S
C695 C696 1.398 . S
C695 C701 1.491 . S
C696 H687 0.950 . S
C696 C695 1.398 . S
C696 C697 1.391 . S
C697 H685 0.950 . S
C697 C693 1.393 . S
C697 C696 1.391 . S
C698 H688 0.950 . S
C698 C699 1.386 . S
C698 C700 1.391 . S
C699 C698 1.386 . S
C699 C703 1.393 . S
C700 H689 0.950 . S
C700 C698 1.391 . S
C700 C701 1.400 . S
C701 C695 1.491 . S
C701 C700 1.400 . S
C701 C702 1.398 . S
C702 H690 0.950 . S
C702 C701 1.398 . S
C702 C703 1.391 . S
C703 H691 0.950 . S
C703 C699 1.393 . S
C703 C702 1.391 . S
C233 N1 2.041 . S
C239 C120 2.108 . S
C253 N18 1.393 . S
C259 N140 1.357 . S
C279 C174 1.500 . S
C273 N28 1.500 . S
C293 N40 1.356 . S
C299 N208 1.338 . S
C319 C161 2.632 . S
C313 N5 2.593 . S
C339 N118 1.159 . S
C333 N14 1.181 . S
C359 C195 1.934 . S
C353 N31 1.898 . S
C379 N170 0.702 . S
C373 N41 0.688 . S
C393 N2 1.701 . S
C399 C210 1.721 . S
C419 C144 1.743 . S
C413 N27 1.703 . S
C433 N44 1.518 . S
C439 C105 1.561 . S
C453 N15 1.202 . S
C459 C191 1.213 . S
C479 C131 2.426 . S
C473 N57 2.419 . S
C493 N70 0.964 . S
C499 N148 0.971 . S
C513 N79 1.761 . S
C519 C165 1.824 . S
C533 N93 1.105 . S
C539 N200 1.071 . S
C553 N54 2.231 . S
C559 C150 2.234 1_556 S
C579 N110 1.539 . S
C573 N66 1.569 . S
C599 C204 1.441 . S
C593 N80 1.426 . S
C619 N178 0.974 . S
C613 N96 0.960 . S
C633 N53 1.741 . S
C639 C221 1.772 . S
C659 C135 1.629 . S
C653 N83 1.603 . S
C679 C114 1.566 . S
C673 N92 1.552 . S
C693 N67 1.229 . S
C699 C180 1.233 . S
