# Generated by pormake.
# Topology ssa, (4,4)-cn, num edge types: 1
# Building blocks:
#     Node 0, Type 0, BuildingBlock: KUFVIS_clean_linker_0, # of connection points: 4
#     Node 1, Type 0, BuildingBlock: KUFVIS_clean_linker_0, # of connection points: 4
#     Node 2, Type 0, BuildingBlock: KUFVIS_clean_linker_0, # of connection points: 4
#     Node 3, Type 0, BuildingBlock: KUFVIS_clean_linker_0, # of connection points: 4
#     Node 4, Type 0, BuildingBlock: KUFVIS_clean_linker_0, # of connection points: 4
#     Node 5, Type 0, BuildingBlock: KUFVIS_clean_linker_0, # of connection points: 4
#     Node 6, Type 1, BuildingBlock: MUDLON_clean_sbu_0, # of connection points: 4
#     Node 7, Type 1, BuildingBlock: MUDLON_clean_sbu_0, # of connection points: 4
#     Node 8, Type 1, BuildingBlock: MUDLON_clean_sbu_0, # of connection points: 4
#     Node 9, Type 1, BuildingBlock: MUDLON_clean_sbu_0, # of connection points: 4
#     Node 10, Type 1, BuildingBlock: MUDLON_clean_sbu_0, # of connection points: 4
#     Node 11, Type 1, BuildingBlock: MUDLON_clean_sbu_0, # of connection points: 4
#     Edge 12, Type (0, 1), BuildingBlock: MIFKUJ_clean_linker_0, # of connection points: 2
#     Edge 13, Type (0, 1), BuildingBlock: MIFKUJ_clean_linker_0, # of connection points: 2
#     Edge 14, Type (0, 1), BuildingBlock: MIFKUJ_clean_linker_0, # of connection points: 2
#     Edge 15, Type (0, 1), BuildingBlock: MIFKUJ_clean_linker_0, # of connection points: 2
#     Edge 16, Type (0, 1), BuildingBlock: MIFKUJ_clean_linker_0, # of connection points: 2
#     Edge 17, Type (0, 1), BuildingBlock: MIFKUJ_clean_linker_0, # of connection points: 2
#     Edge 18, Type (0, 1), BuildingBlock: MIFKUJ_clean_linker_0, # of connection points: 2
#     Edge 19, Type (0, 1), BuildingBlock: MIFKUJ_clean_linker_0, # of connection points: 2
#     Edge 20, Type (0, 1), BuildingBlock: MIFKUJ_clean_linker_0, # of connection points: 2
#     Edge 21, Type (0, 1), BuildingBlock: MIFKUJ_clean_linker_0, # of connection points: 2
#     Edge 22, Type (0, 1), BuildingBlock: MIFKUJ_clean_linker_0, # of connection points: 2
#     Edge 23, Type (0, 1), BuildingBlock: MIFKUJ_clean_linker_0, # of connection points: 2
#     Edge 24, Type (0, 1), BuildingBlock: MIFKUJ_clean_linker_0, # of connection points: 2
#     Edge 25, Type (0, 1), BuildingBlock: MIFKUJ_clean_linker_0, # of connection points: 2
#     Edge 26, Type (0, 1), BuildingBlock: MIFKUJ_clean_linker_0, # of connection points: 2
#     Edge 27, Type (0, 1), BuildingBlock: MIFKUJ_clean_linker_0, # of connection points: 2
#     Edge 28, Type (0, 1), BuildingBlock: MIFKUJ_clean_linker_0, # of connection points: 2
#     Edge 29, Type (0, 1), BuildingBlock: MIFKUJ_clean_linker_0, # of connection points: 2
#     Edge 30, Type (0, 1), BuildingBlock: MIFKUJ_clean_linker_0, # of connection points: 2
#     Edge 31, Type (0, 1), BuildingBlock: MIFKUJ_clean_linker_0, # of connection points: 2
#     Edge 32, Type (0, 1), BuildingBlock: MIFKUJ_clean_linker_0, # of connection points: 2
#     Edge 33, Type (0, 1), BuildingBlock: MIFKUJ_clean_linker_0, # of connection points: 2
#     Edge 34, Type (0, 1), BuildingBlock: MIFKUJ_clean_linker_0, # of connection points: 2
#     Edge 35, Type (0, 1), BuildingBlock: MIFKUJ_clean_linker_0, # of connection points: 2
# Relax obj value: 0.001
# Max RMSD: 0.051
# Mean RMSD: 0.029
data_MOF--net-ssa--node1-MUDLON_clean_sbu_0--node2-KUFVIS_clean_linker_0--edge1-MIFKUJ_clean_linker_0
_symmetry_space_group_name_H-M    P1
_symmetry_Int_Tables_number       1
_symmetry_cell_setting            triclinic
loop_
_symmetry_equiv_pos_as_xyz
'x, y, z'
_cell_length_a     56.966645
_cell_length_b     57.021711
_cell_length_c     54.461759
_cell_angle_alpha  90.227161
_cell_angle_beta   89.227479
_cell_angle_gamma 119.96802
loop_
_atom_site_label
_atom_site_type_symbol
_atom_site_fract_x
_atom_site_fract_y
_atom_site_fract_z
_atom_type_partial_charge
H0 H 0.93248 0.47139 0.97289 0.0
H1 H 1.00006 0.54131 1.00268 0.0
H2 H 0.98906 0.46105 0.01536 0.0
H3 H 0.02959 0.48063 0.02812 0.0
H4 H 0.08874 0.54871 0.06781 0.0
H5 H 0.02338 0.5534 0.03575 0.0
C6 C 0.95025 0.48 0.98443 0.0
C7 C 0.95952 0.46335 0.9936 0.0
C8 C 0.9646 0.50788 0.988 0.0
C9 C 0.98873 0.5195 1.0014 0.0
C10 C 0.99798 0.50307 1.01252 0.0
C11 C 0.983 0.47471 1.00797 0.0
C12 C 0.02322 0.51555 0.0282 0.0
C13 C 0.0368 0.50109 0.03425 0.0
C14 C 0.0603 0.51308 0.04858 0.0
C15 C 0.07098 0.53976 0.05623 0.0
C16 C 0.0579 0.5543 0.05138 0.0
C17 C 0.03377 0.54208 0.03799 0.0
H18 H 0.53129 0.07759 0.58539 0.0
H19 H 0.47249 0.01439 0.5407 0.0
H20 H 0.55842 0.04321 0.52968 0.0
H21 H 0.54543 0.00375 0.51318 0.0
H22 H 0.49125 0.95465 0.45698 0.0
H23 H 0.46897 1.00187 0.50231 0.0
C24 C 0.52674 0.06353 0.5703 0.0
C25 C 0.54775 0.06198 0.55834 0.0
C26 C 0.49982 0.04677 0.56376 0.0
C27 C 0.49361 0.02779 0.54477 0.0
C28 C 0.51452 0.02587 0.53184 0.0
C29 C 0.54169 0.0434 0.53907 0.0
C30 C 0.50816 0.0059 0.51101 0.0
C31 C 0.52664 0.9971 0.50363 0.0
C32 C 0.52061 0.97883 0.48402 0.0
C33 C 0.49603 0.96889 0.47198 0.0
C34 C 0.47743 0.97686 0.47886 0.0
C35 C 0.48348 0.99545 0.49805 0.0
H36 H 0.49329 0.53932 0.09656 0.0
H37 H 0.47148 0.48661 0.0344 0.0
H38 H 0.55265 0.55601 0.04032 0.0
H39 H 0.55456 0.55238 1.00042 0.0
H40 H 0.54393 0.49075 0.94947 0.0
H41 H 0.49163 0.46869 1.01261 0.0
C42 C 0.49891 0.53369 0.07932 0.0
C43 C 0.52479 0.55033 0.06945 0.0
C44 C 0.47977 0.51059 0.06697 0.0
C45 C 0.48683 0.50406 0.04404 0.0
C46 C 0.51341 0.51986 0.03388 0.0
C47 C 0.53214 0.54331 0.047 0.0
C48 C 0.52165 0.51181 1.01004 0.0
C49 C 0.54375 0.53122 0.99543 0.0
C50 C 0.55179 0.52357 0.97367 0.0
C51 C 0.53768 0.49659 0.96623 0.0
C52 C 0.51597 0.47689 0.98002 0.0
C53 C 0.50793 0.48444 1.00184 0.0
H54 H 0.97307 0.48631 0.60064 0.0
H55 H 0.01528 0.54631 0.54524 0.0
H56 H 1.0029 0.46493 0.53727 0.0
H57 H 0.03585 0.48176 0.51113 0.0
H58 H 0.06549 0.53523 0.44943 0.0
H59 H 0.02367 0.55112 0.50682 0.0
C60 C 0.98435 0.49239 0.5834 0.0
C61 C 0.98834 0.47348 0.57045 0.0
C62 C 0.99335 0.51836 0.57406 0.0
C63 C 0.00754 0.52575 0.5514 0.0
C64 C 0.01193 0.50704 0.53744 0.0
C65 C 1.00134 0.48049 0.54728 0.0
C66 C 0.02711 0.51502 0.51285 0.0
C67 C 0.03758 0.4993 0.50192 0.0
C68 C 0.05046 0.50595 0.47864 0.0
C69 C 0.05439 0.52935 0.46675 0.0
C70 C 0.04536 0.54592 0.47715 0.0
C71 C 0.0314 0.53852 0.49987 0.0
H72 H 0.47581 0.95557 0.09257 0.0
H73 H 0.46849 0.99892 0.03214 0.0
H74 H 0.54473 1.00127 0.04554 0.0
H75 H 0.55198 0.01037 1.00547 0.0
H76 H 0.55351 0.07061 0.95767 0.0
H77 H 0.49492 0.03932 0.01595 0.0
C78 C 0.48498 0.96888 0.07684 0.0
C79 C 0.51181 0.97737 0.07031 0.0
C80 C 0.46954 0.97682 0.06335 0.0
C81 C 0.48117 0.99371 0.04272 0.0
C82 C 0.50865 0.00312 0.03569 0.0
C83 C 0.5237 0.99444 0.04985 0.0
C84 C 0.52152 0.02199 0.01397 0.0
C85 C 0.54389 0.02331 1.00067 0.0
C86 C 0.55544 0.04086 0.98034 0.0
C87 C 0.54472 0.05706 0.97329 0.0
C88 C 0.52284 0.05614 0.98583 0.0
C89 C 0.51142 0.03898 1.00621 0.0
H90 H 0.52782 0.46931 0.59126 0.0
H91 H 0.53999 0.53683 0.54765 0.0
H92 H 0.47435 0.45577 0.53164 0.0
H93 H 0.45387 0.47931 0.51922 0.0
H94 H 0.47437 0.53948 0.46349 0.0
H95 H 0.53764 0.54197 0.50681 0.0
C96 C 0.52157 0.47737 0.57625 0.0
C97 C 0.49923 0.45977 0.56241 0.0
C98 C 0.53644 0.50493 0.57086 0.0
C99 C 0.5286 0.51527 0.55119 0.0
C100 C 0.50577 0.49791 0.53679 0.0
C101 C 0.49139 0.46984 0.54253 0.0
C102 C 0.49699 0.50912 0.51609 0.0
C103 C 0.46927 0.49692 0.50949 0.0
C104 C 0.4612 0.50801 0.49058 0.0
C105 C 0.48063 0.53099 0.47813 0.0
C106 C 0.50798 0.54317 0.48391 0.0
C107 C 0.51625 0.5324 0.50285 0.0
Mg108 Mg 0.23704 0.46202 0.26895 0.0
C109 C 0.19845 0.4722 0.24165 0.0
O110 O 0.18286 0.44989 0.25403 0.0
C111 C 0.284 0.47154 0.29784 0.0
O112 O 0.27677 0.44895 0.28588 0.0
C113 C 0.20642 0.43897 0.31809 0.0
O114 O 0.23084 0.44626 0.32582 0.0
O115 O 0.20281 0.43998 0.29512 0.0
O116 O 0.22393 0.48435 0.24526 0.0
O117 O 0.25148 0.44212 0.2426 0.0
C118 C 0.24991 0.44453 0.21948 0.0
O119 O 0.23489 0.45431 0.21146 0.0
O120 O 0.27155 0.48442 0.29339 0.0
Mg121 Mg 0.78925 0.2303 0.77369 0.0
C122 C 0.75192 0.19706 0.73674 0.0
O123 O 0.76782 0.18715 0.7416 0.0
C124 C 0.82467 0.27038 0.80784 0.0
O125 O 0.83751 0.25853 0.79859 0.0
C126 C 0.75072 0.18345 0.80346 0.0
O127 O 0.73621 0.19279 0.79337 0.0
O128 O 0.77599 0.19493 0.79817 0.0
O129 O 0.75514 0.21763 0.74884 0.0
O130 O 0.82411 0.24556 0.74771 0.0
C131 C 0.82132 0.2576 0.72918 0.0
O132 O 0.79898 0.25877 0.72743 0.0
O133 O 0.80108 0.26323 0.79993 0.0
Mg134 Mg 0.55968 0.78542 0.27715 0.0
C135 C 0.53747 0.79565 0.23057 0.0
O136 O 0.55031 0.78392 0.22112 0.0
C137 C 0.55383 0.75474 0.32258 0.0
O138 O 0.57775 0.77652 0.32461 0.0
C139 C 0.56361 0.82148 0.31612 0.0
O140 O 0.53828 0.80192 0.31472 0.0
O141 O 0.58081 0.82143 0.30084 0.0
O142 O 0.53567 0.79669 0.25386 0.0
O143 O 0.57896 0.76898 0.25223 0.0
C144 C 0.56193 0.74429 0.24733 0.0
O145 O 0.53782 0.73346 0.25778 0.0
O146 O 0.5394 0.75245 0.30405 0.0
Mg147 Mg 0.78828 0.56768 0.76997 0.0
C148 C 0.75483 0.55374 0.72532 0.0
O149 O 0.77813 0.57444 0.71839 0.0
C150 C 0.82503 0.56183 0.80245 0.0
O151 O 0.83938 0.58537 0.79147 0.0
C152 C 0.75454 0.59132 0.79024 0.0
O153 O 0.74302 0.58287 0.76882 0.0
O154 O 0.77657 0.59135 0.79425 0.0
O155 O 0.75261 0.54422 0.74693 0.0
O156 O 0.82295 0.5836 0.74374 0.0
C157 C 0.82426 0.56354 0.73476 0.0
O158 O 0.80605 0.53914 0.74223 0.0
O159 O 0.80011 0.5472 0.79694 0.0
Mg160 Mg 0.23426 0.78559 0.27093 0.0
C161 C 0.19614 0.74142 0.24093 0.0
O162 O 0.18315 0.75298 0.25046 0.0
C163 C 0.26731 0.81591 0.31078 0.0
O164 O 0.24701 0.82057 0.30902 0.0
C165 C 0.19979 0.75005 0.30854 0.0
O166 O 0.21776 0.74322 0.30163 0.0
O167 O 0.2006 0.77041 0.298 0.0
O168 O 0.22071 0.75036 0.24695 0.0
O169 O 0.24737 0.8193 0.24462 0.0
C170 C 0.26088 0.8166 0.22702 0.0
O171 O 0.26381 0.79516 0.22699 0.0
O172 O 0.26886 0.79988 0.29532 0.0
Mg173 Mg 0.4681 0.23457 0.77106 0.0
C174 C 0.44046 0.17739 0.75075 0.0
O175 O 0.45114 0.17377 0.77057 0.0
C176 C 0.47131 0.27721 0.80329 0.0
O177 O 0.49427 0.28778 0.79084 0.0
C178 C 0.50187 0.22998 0.81292 0.0
O179 O 0.50338 0.2525 0.82066 0.0
O180 O 0.49112 0.22033 0.79224 0.0
O181 O 0.44096 0.19985 0.74803 0.0
O182 O 0.4894 0.26655 0.74375 0.0
C183 C 0.49015 0.26163 0.72102 0.0
O184 O 0.48231 0.23672 0.71408 0.0
O185 O 0.45302 0.25303 0.79828 0.0
H186 H 0.11181 0.52263 0.04228 0.0
H187 H 0.13643 0.51189 0.07249 0.0
H188 H 0.06146 0.46084 0.11146 0.0
H189 H 0.03685 0.47167 0.08119 0.0
H190 H 0.09767 0.50179 0.13956 0.0
H191 H 0.09963 0.43511 0.08684 0.0
H192 H 0.10827 0.41763 0.04834 0.0
H193 H 0.19279 0.47725 0.05166 0.0
H194 H 0.1846 0.49534 0.09002 0.0
H195 H 0.14542 0.45661 0.23605 0.0
H196 H 0.1238 0.46266 0.20032 0.0
H197 H 0.20193 0.51046 0.16511 0.0
H198 H 0.22388 0.50412 0.20107 0.0
H199 H 0.16632 0.4727 0.13409 0.0
H200 H 0.16637 0.54058 0.1846 0.0
H201 H 0.15968 0.56134 0.22188 0.0
H202 H 0.07432 0.50426 0.22105 0.0
H203 H 0.08053 0.48291 0.18393 0.0
C204 C 0.10043 0.50791 0.05652 0.0
C205 C 0.0724 0.49777 0.0593 0.0
C206 C 0.11454 0.50193 0.07392 0.0
C207 C 0.10085 0.48574 0.09441 0.0
C208 C 0.07246 0.47345 0.09584 0.0
C209 C 0.05832 0.4793 0.07833 0.0
C210 C 0.11635 0.48519 0.11599 0.0
C211 C 0.11234 0.49498 0.13843 0.0
C212 C 0.13648 0.4776 0.11427 0.0
C213 C 0.14144 0.46674 0.0912 0.0
C214 C 0.12002 0.44465 0.07925 0.0
C215 C 0.12485 0.4346 0.05747 0.0
C216 C 0.15105 0.44636 0.04752 0.0
C217 C 0.17249 0.46817 0.05937 0.0
C218 C 0.16778 0.47831 0.08115 0.0
C219 C 0.15813 0.46879 0.2209 0.0
C220 C 0.1864 0.47993 0.22145 0.0
C221 C 0.1457 0.4723 0.20045 0.0
C222 C 0.16118 0.48713 0.18 0.0
C223 C 0.18955 0.49894 0.18068 0.0
C224 C 0.20209 0.49553 0.20131 0.0
C225 C 0.1473 0.48896 0.1577 0.0
C226 C 0.15167 0.47956 0.13516 0.0
C227 C 0.12781 0.49742 0.15911 0.0
C228 C 0.12397 0.50997 0.18162 0.0
C229 C 0.14621 0.53228 0.1925 0.0
C230 C 0.14249 0.5442 0.21357 0.0
C231 C 0.11661 0.53408 0.22387 0.0
C232 C 0.09437 0.51205 0.21308 0.0
C233 C 0.09797 0.50005 0.19201 0.0
H234 H 0.11377 0.54334 0.24017 0.0
H235 H 0.15474 0.43855 0.03066 0.0
H236 H 0.57463 0.11633 0.56643 0.0
H237 H 0.61379 0.14142 0.59273 0.0
H238 H 0.62248 0.07072 0.59895 0.0
H239 H 0.58272 0.04532 0.573 0.0
H240 H 0.61859 0.08852 0.64284 0.0
H241 H 0.67163 0.12984 0.5707 0.0
H242 H 0.68335 0.15392 0.53099 0.0
H243 H 0.68499 0.2226 0.56536 0.0
H244 H 0.67288 0.19879 0.60524 0.0
H245 H 0.73653 0.14927 0.71391 0.0
H246 H 0.7049 0.12886 0.68036 0.0
H247 H 0.68985 0.19585 0.68077 0.0
H248 H 0.72192 0.21673 0.71466 0.0
H249 H 0.69807 0.18076 0.63306 0.0
H250 H 0.64359 0.13849 0.7048 0.0
H251 H 0.6325 0.11445 0.74452 0.0
H252 H 0.63396 0.04723 0.71026 0.0
H253 H 0.64547 0.07105 0.67038 0.0
C254 C 0.58543 0.10641 0.5728 0.0
C255 C 0.57559 0.07885 0.56781 0.0
C256 C 0.60788 0.1208 0.58779 0.0
C257 C 0.6211 0.10797 0.59793 0.0
C258 C 0.61256 0.08101 0.5914 0.0
C259 C 0.59003 0.06659 0.57636 0.0
C260 C 0.64133 0.12156 0.61762 0.0
C261 C 0.63626 0.10847 0.64048 0.0
C262 C 0.66386 0.14802 0.61491 0.0
C263 C 0.6711 0.16241 0.59094 0.0
C264 C 0.67425 0.14998 0.56976 0.0
C265 C 0.68102 0.16361 0.54723 0.0
C266 C 0.68485 0.18975 0.54564 0.0
C267 C 0.68198 0.20234 0.56661 0.0
C268 C 0.6752 0.1888 0.5892 0.0
C269 C 0.72651 0.15975 0.70699 0.0
C270 C 0.73168 0.18462 0.71704 0.0
C271 C 0.70837 0.14798 0.68779 0.0
C272 C 0.69491 0.16074 0.67816 0.0
C273 C 0.70007 0.18569 0.68797 0.0
C274 C 0.71821 0.19748 0.70741 0.0
C275 C 0.6753 0.14758 0.65802 0.0
C276 C 0.68043 0.16076 0.63523 0.0
C277 C 0.6528 0.12117 0.66072 0.0
C278 C 0.64564 0.10667 0.68464 0.0
C279 C 0.64176 0.11867 0.70577 0.0
C280 C 0.63536 0.10507 0.72831 0.0
C281 C 0.63259 0.07935 0.72993 0.0
C282 C 0.63614 0.06716 0.70899 0.0
C283 C 0.64258 0.08069 0.68641 0.0
H284 H 0.62765 0.06885 0.74739 0.0
H285 H 0.6901 0.20026 0.52818 0.0
H286 H 0.54708 0.55521 0.11437 0.0
H287 H 0.5647 0.59482 0.14131 0.0
H288 H 0.55842 0.64163 0.08244 0.0
H289 H 0.54114 0.60204 0.05535 0.0
H290 H 0.60614 0.65189 0.14229 0.0
H291 H 0.52058 0.66801 0.10804 0.0
H292 H 0.47726 0.64285 0.08614 0.0
H293 H 0.46588 0.56792 0.11525 0.0
H294 H 0.5088 0.59269 0.13768 0.0
H295 H 0.6028 0.76123 0.21184 0.0
H296 H 0.60612 0.73349 0.17853 0.0
H297 H 0.5353 0.66312 0.20761 0.0
H298 H 0.53197 0.69019 0.24048 0.0
H299 H 0.53031 0.66921 0.15915 0.0
H300 H 0.59678 0.67018 0.214 0.0
H301 H 0.6386 0.69189 0.23828 0.0
H302 H 0.68573 0.72768 0.17273 0.0
H303 H 0.6441 0.70645 0.1481 0.0
C304 C 0.55066 0.57432 0.10689 0.0
C305 C 0.54299 0.57568 0.08275 0.0
C306 C 0.56072 0.59695 0.12229 0.0
C307 C 0.56273 0.62117 0.11397 0.0
C308 C 0.55711 0.62318 0.08924 0.0
C309 C 0.54737 0.60061 0.07373 0.0
C310 C 0.56588 0.64218 0.1321 0.0
C311 C 0.58975 0.65601 0.14576 0.0
C312 C 0.54432 0.6472 0.13702 0.0
C313 C 0.51806 0.63219 0.12424 0.0
C314 C 0.50875 0.64619 0.10983 0.0
C315 C 0.48426 0.63199 0.09735 0.0
C316 C 0.46888 0.6038 0.09923 0.0
C317 C 0.47785 0.58975 0.11374 0.0
C318 C 0.50224 0.60386 0.12634 0.0
C319 C 0.58825 0.73976 0.21128 0.0
C320 C 0.567 0.72803 0.22875 0.0
C321 C 0.5901 0.72394 0.19222 0.0
C322 C 0.57075 0.69621 0.19039 0.0
C323 C 0.55026 0.68447 0.20837 0.0
C324 C 0.54846 0.70008 0.22727 0.0
C325 C 0.57063 0.67913 0.16947 0.0
C326 C 0.54711 0.6658 0.1553 0.0
C327 C 0.59233 0.67431 0.16449 0.0
C328 C 0.61732 0.68701 0.17926 0.0
C329 C 0.61604 0.68288 0.2048 0.0
C330 C 0.63971 0.69505 0.21862 0.0
C331 C 0.6648 0.71123 0.20707 0.0
C332 C 0.66627 0.71519 0.18166 0.0
C333 C 0.64266 0.70309 0.16776 0.0
H334 H 0.6831 0.72063 0.2178 0.0
H335 H 0.44998 0.59285 0.08949 0.0
H336 H 0.99765 0.52893 0.62332 0.0
H337 H 0.97437 0.54769 0.64714 0.0
H338 H 0.94905 0.56809 0.58013 0.0
H339 H 0.97148 0.54818 0.55613 0.0
H340 H 0.97161 0.5919 0.65461 0.0
H341 H 0.88215 0.55217 0.58818 0.0
H342 H 0.86276 0.51992 0.55387 0.0
H343 H 0.89557 0.47272 0.58319 0.0
H344 H 0.91426 0.50406 0.61814 0.0
H345 H 0.86656 0.61021 0.71377 0.0
H346 H 0.90014 0.61291 0.68317 0.0
H347 H 0.86238 0.52586 0.68387 0.0
H348 H 0.82912 0.52301 0.71367 0.0
H349 H 0.87293 0.54286 0.63852 0.0
H350 H 0.92161 0.56751 0.71514 0.0
H351 H 0.94067 0.59539 0.75218 0.0
H352 H 0.9885 0.66548 0.7071 0.0
H353 H 0.96943 0.63803 0.66978 0.0
C354 C 0.98756 0.53788 0.6136 0.0
C355 C 0.98595 0.53652 0.58781 0.0
C356 C 0.97438 0.54881 0.62728 0.0
C357 C 0.95934 0.55878 0.61554 0.0
C358 C 0.96007 0.56006 0.58969 0.0
C359 C 0.97313 0.54889 0.57594 0.0
C360 C 0.94031 0.56426 0.63039 0.0
C361 C 0.95008 0.5815 0.65086 0.0
C362 C 0.91207 0.55041 0.62588 0.0
C363 C 0.89994 0.53071 0.60555 0.0
C364 C 0.88502 0.53477 0.5874 0.0
C365 C 0.87409 0.5166 0.56789 0.0
C366 C 0.87792 0.49427 0.56636 0.0
C367 C 0.89249 0.48993 0.58447 0.0
C368 C 0.90321 0.50786 0.60416 0.0
C369 C 0.86546 0.59171 0.70731 0.0
C370 C 0.84507 0.56642 0.71625 0.0
C371 C 0.88469 0.59326 0.68986 0.0
C372 C 0.88387 0.56955 0.68112 0.0
C373 C 0.86344 0.54445 0.69005 0.0
C374 C 0.84441 0.5429 0.7073 0.0
C375 C 0.90413 0.57016 0.66299 0.0
C376 C 0.89455 0.55395 0.6419 0.0
C377 C 0.93237 0.58435 0.66734 0.0
C378 C 0.94384 0.60082 0.68971 0.0
C379 C 0.93603 0.58891 0.71315 0.0
C380 C 0.94686 0.60463 0.73418 0.0
C381 C 0.96572 0.63221 0.732 0.0
C382 C 0.97384 0.64413 0.70876 0.0
C383 C 0.96303 0.62851 0.68767 0.0
H384 H 0.97409 0.64435 0.7483 0.0
H385 H 0.8696 0.48033 0.55116 0.0
H386 H 0.42654 0.92658 0.05715 0.0
H387 H 0.38494 0.9054 0.08207 0.0
H388 H 0.40861 0.98225 0.11637 0.0
H389 H 0.45045 0.00338 0.09138 0.0
H390 H 0.39767 0.94366 0.14995 0.0
H391 H 0.35164 0.95108 0.08055 0.0
H392 H 0.33849 0.94684 0.03711 0.0
H393 H 0.30391 0.8606 0.04133 0.0
H394 H 0.31719 0.86434 0.0847 0.0
H395 H 0.28133 0.87195 0.22895 0.0
H396 H 0.31139 0.90562 0.19825 0.0
H397 H 0.30297 0.84114 0.15085 0.0
H398 H 0.2732 0.80786 0.18108 0.0
H399 H 0.30349 0.88054 0.12411 0.0
H400 H 0.35733 0.87368 0.18873 0.0
H401 H 0.37241 0.87613 0.23139 0.0
H402 H 0.39357 0.95965 0.2352 0.0
H403 H 0.37832 0.95758 0.19261 0.0
C404 C 0.42218 0.93916 0.06915 0.0
C405 C 0.4413 0.96674 0.07189 0.0
C406 C 0.39848 0.92703 0.08355 0.0
C407 C 0.39344 0.94222 0.10108 0.0
C408 C 0.41192 0.97013 0.10291 0.0
C409 C 0.43562 0.98229 0.0884 0.0
C410 C 0.3707 0.92825 0.11923 0.0
C411 C 0.37692 0.93045 0.14431 0.0
C412 C 0.34372 0.9104 0.11194 0.0
C413 C 0.33555 0.90803 0.08587 0.0
C414 C 0.34139 0.93123 0.07218 0.0
C415 C 0.33389 0.92891 0.04757 0.0
C416 C 0.32041 0.90347 0.03646 0.0
C417 C 0.31435 0.88029 0.04996 0.0
C418 C 0.32183 0.8825 0.07457 0.0
C419 C 0.28544 0.86506 0.21173 0.0
C420 C 0.275 0.83727 0.20749 0.0
C421 C 0.30278 0.88428 0.19427 0.0
C422 C 0.30976 0.87596 0.17229 0.0
C423 C 0.29799 0.84817 0.16758 0.0
C424 C 0.281 0.82912 0.18498 0.0
C425 C 0.33059 0.89568 0.15473 0.0
C426 C 0.32408 0.8944 0.12976 0.0
C427 C 0.3574 0.91415 0.16204 0.0
C428 C 0.36632 0.91536 0.18767 0.0
C429 C 0.36496 0.89248 0.19876 0.0
C430 C 0.37359 0.89382 0.22289 0.0
C431 C 0.38383 0.918 0.23603 0.0
C432 C 0.38555 0.94092 0.22503 0.0
C433 C 0.37692 0.93967 0.2009 0.0
H434 H 0.39052 0.919 0.25471 0.0
H435 H 0.31462 0.90172 0.0174 0.0
H436 H 0.50556 0.41933 0.54275 0.0
H437 H 0.49975 0.37991 0.56604 0.0
H438 H 0.4594 0.39827 0.62415 0.0
H439 H 0.46477 0.43724 0.60077 0.0
H440 H 0.51214 0.40199 0.63493 0.0
H441 H 0.42433 0.34227 0.59979 0.0
H442 H 0.3931 0.31974 0.56556 0.0
H443 H 0.44019 0.28361 0.5424 0.0
H444 H 0.47195 0.30626 0.5763 0.0
H445 H 0.48872 0.30827 0.72837 0.0
H446 H 0.48783 0.33839 0.69739 0.0
H447 H 0.49966 0.29232 0.6404 0.0
H448 H 0.49904 0.26106 0.67147 0.0
H449 H 0.46343 0.30218 0.62583 0.0
H450 H 0.55079 0.3593 0.65847 0.0
H451 H 0.58577 0.3831 0.68972 0.0
H452 H 0.54548 0.4259 0.71382 0.0
H453 H 0.51008 0.40214 0.6829 0.0
C454 C 0.49394 0.41387 0.55977 0.0
C455 C 0.48522 0.431 0.56984 0.0
C456 C 0.49093 0.39158 0.5732 0.0
C457 C 0.47938 0.38638 0.5969 0.0
C458 C 0.46833 0.40193 0.60588 0.0
C459 C 0.47107 0.42396 0.59238 0.0
C460 C 0.48297 0.36817 0.6139 0.0
C461 C 0.50124 0.38011 0.63319 0.0
C462 C 0.4698 0.33983 0.61077 0.0
C463 C 0.4507 0.32622 0.59042 0.0
C464 C 0.4282 0.32976 0.58725 0.0
C465 C 0.41035 0.3169 0.56794 0.0
C466 C 0.4147 0.30032 0.55177 0.0
C467 C 0.43686 0.2965 0.55492 0.0
C468 C 0.45478 0.30932 0.57419 0.0
C469 C 0.49163 0.30477 0.70929 0.0
C470 C 0.49411 0.2823 0.70243 0.0
C471 C 0.4912 0.32214 0.6915 0.0
C472 C 0.49407 0.31802 0.66642 0.0
C473 C 0.49737 0.29602 0.65957 0.0
C474 C 0.49725 0.27827 0.67737 0.0
C475 C 0.49224 0.33591 0.64747 0.0
C476 C 0.47449 0.32403 0.62766 0.0
C477 C 0.50646 0.36449 0.64972 0.0
C478 C 0.52764 0.37875 0.66848 0.0
C479 C 0.54927 0.37363 0.67055 0.0
C480 C 0.5692 0.38715 0.68819 0.0
C481 C 0.56781 0.40595 0.70378 0.0
C482 C 0.54652 0.41132 0.70174 0.0
C483 C 0.52654 0.39786 0.68414 0.0
H484 H 0.58327 0.4164 0.71742 0.0
H485 H 0.40086 0.29038 0.53684 0.0
H486 H 0.51389 0.92862 0.4888 0.0
H487 H 0.53501 0.90874 0.46336 0.0
H488 H 0.58869 0.98709 0.43136 0.0
H489 H 0.56705 0.00692 0.45678 0.0
H490 H 0.56417 0.9517 0.39645 0.0
H491 H 0.61332 0.95238 0.4661 0.0
H492 H 0.62106 0.94566 0.50929 0.0
H493 H 0.56712 0.86008 0.50235 0.0
H494 H 0.55872 0.86629 0.45923 0.0
H495 H 0.60324 0.87567 0.31615 0.0
H496 H 0.60949 0.90948 0.34767 0.0
H497 H 0.54616 0.84657 0.39194 0.0
H498 H 0.53981 0.81322 0.36082 0.0
H499 H 0.58826 0.88259 0.42031 0.0
H500 H 0.53225 0.88459 0.35436 0.0
H501 H 0.52345 0.89098 0.31137 0.0
H502 H 0.59101 0.97215 0.31205 0.0
H503 H 0.60041 0.96608 0.35498 0.0
C504 C 0.53102 0.94179 0.47715 0.0
C505 C 0.53921 0.96939 0.4751 0.0
C506 C 0.54308 0.93041 0.46248 0.0
C507 C 0.56366 0.94636 0.44541 0.0
C508 C 0.57296 0.97433 0.44441 0.0
C509 C 0.56086 0.98575 0.45916 0.0
C510 C 0.57276 0.93309 0.42679 0.0
C511 C 0.57022 0.93718 0.40174 0.0
C512 C 0.58029 0.91376 0.43346 0.0
C513 C 0.5853 0.90984 0.45941 0.0
C514 C 0.60296 0.93214 0.47382 0.0
C515 C 0.60749 0.92841 0.49829 0.0
C516 C 0.59457 0.90246 0.50856 0.0
C517 C 0.57712 0.88017 0.49437 0.0
C518 C 0.57251 0.88378 0.46989 0.0
C519 C 0.59108 0.86911 0.33284 0.0
C520 C 0.57091 0.84184 0.33593 0.0
C521 C 0.59454 0.88841 0.35078 0.0
C522 C 0.57814 0.88062 0.37217 0.0
C523 C 0.55909 0.85316 0.37571 0.0
C524 C 0.55539 0.8341 0.35778 0.0
C525 C 0.5789 0.90076 0.39023 0.0
C526 C 0.58309 0.89779 0.41513 0.0
C527 C 0.57291 0.92113 0.38346 0.0
C528 C 0.56725 0.92477 0.35772 0.0
C529 C 0.54536 0.90372 0.34526 0.0
C530 C 0.54024 0.90729 0.32093 0.0
C531 C 0.55673 0.93192 0.30896 0.0
C532 C 0.57831 0.95306 0.32132 0.0
C533 C 0.58354 0.94957 0.34565 0.0
H534 H 0.55272 0.93466 0.29012 0.0
H535 H 0.5981 0.89962 0.52752 0.0
H536 H 0.60552 0.55025 0.98549 0.0
H537 H 0.64397 0.57 0.95631 0.0
H538 H 0.58918 0.55778 0.89738 0.0
H539 H 0.55095 0.53781 0.9264 0.0
H540 H 0.61821 0.53438 0.88719 0.0
H541 H 0.63778 0.62178 0.91664 0.0
H542 H 0.64753 0.65681 0.94786 0.0
H543 H 0.71905 0.65505 0.96876 0.0
H544 H 0.70952 0.61972 0.93787 0.0
H545 H 0.70665 0.5911 0.78726 0.0
H546 H 0.67603 0.58701 0.82077 0.0
H547 H 0.73472 0.59349 0.87348 0.0
H548 H 0.76572 0.59753 0.83984 0.0
H549 H 0.70611 0.62038 0.88865 0.0
H550 H 0.68687 0.53346 0.85971 0.0
H551 H 0.67702 0.49755 0.82944 0.0
H552 H 0.60435 0.4972 0.80891 0.0
H553 H 0.61405 0.53353 0.83873 0.0
C554 C 0.60193 0.55285 0.96648 0.0
C555 C 0.57532 0.54275 0.95822 0.0
C556 C 0.62388 0.56398 0.94975 0.0
C557 C 0.61956 0.56529 0.92451 0.0
C558 C 0.59312 0.55691 0.91666 0.0
C559 C 0.57129 0.54575 0.93329 0.0
C560 C 0.64166 0.57235 0.90588 0.0
C561 C 0.63723 0.55342 0.88734 0.0
C562 C 0.66701 0.59667 0.90653 0.0
C563 C 0.67277 0.61789 0.92512 0.0
C564 C 0.65545 0.62868 0.92804 0.0
C565 C 0.66097 0.64863 0.94564 0.0
C566 C 0.68385 0.65809 0.96033 0.0
C567 C 0.70131 0.64767 0.9574 0.0
C568 C 0.69587 0.6277 0.93983 0.0
C569 C 0.7134 0.59219 0.80594 0.0
C570 C 0.73866 0.5944 0.81075 0.0
C571 C 0.69575 0.58976 0.82513 0.0
C572 C 0.70282 0.58947 0.84968 0.0
C573 C 0.72875 0.59356 0.85469 0.0
C574 C 0.74648 0.5959 0.83541 0.0
C575 C 0.6822 0.58269 0.8697 0.0
C576 C 0.68701 0.60145 0.88852 0.0
C577 C 0.65711 0.5581 0.86947 0.0
C578 C 0.65138 0.53648 0.85127 0.0
C579 C 0.66896 0.52597 0.84854 0.0
C580 C 0.66337 0.50549 0.83149 0.0
C581 C 0.64012 0.49516 0.8172 0.0
C582 C 0.62239 0.50528 0.81995 0.0
C583 C 0.62793 0.52582 0.83691 0.0
H584 H 0.63579 0.47926 0.80406 0.0
H585 H 0.68809 0.67355 0.97394 0.0
H586 H 0.06966 0.59746 0.49569 0.0
H587 H 0.08983 0.63989 0.47208 0.0
H588 H 0.05799 0.59436 0.40541 0.0
H589 H 0.03742 0.5523 0.42892 0.0
H590 H 0.12879 0.65492 0.4403 0.0
H591 H 0.05183 0.63025 0.36062 0.0
H592 H 1.00239 0.60868 0.35558 0.0
H593 H 0.99312 0.62448 0.43119 0.0
H594 H 0.04253 0.64651 0.43662 0.0
H595 H 0.19244 0.70365 0.32906 0.0
H596 H 0.16167 0.67693 0.36188 0.0
H597 H 0.13046 0.7319 0.36603 0.0
H598 H 0.16158 0.75916 0.33238 0.0
H599 H 0.08963 0.67794 0.36983 0.0
H600 H 0.17196 0.73511 0.40999 0.0
H601 H 0.22135 0.759 0.41617 0.0
H602 H 0.21903 0.68292 0.42344 0.0
H603 H 0.16969 0.65854 0.41691 0.0
C604 C 0.06617 0.59664 0.47613 0.0
C605 C 0.05205 0.57155 0.46416 0.0
C606 C 0.0779 0.62089 0.46259 0.0
C607 C 0.07549 0.6205 0.43687 0.0
C608 C 0.05989 0.59545 0.42519 0.0
C609 C 0.04823 0.57132 0.43866 0.0
C610 C 0.09192 0.6455 0.42179 0.0
C611 C 0.12009 0.66014 0.42514 0.0
C612 C 0.0807 0.65296 0.40226 0.0
C613 C 0.05094 0.63993 0.39905 0.0
C614 C 0.03929 0.62929 0.37614 0.0
C615 C 0.01125 0.61694 0.37323 0.0
C616 C 0.99462 0.61517 0.39307 0.0
C617 C 0.00601 0.62579 0.41586 0.0
C618 C 0.03403 0.63818 0.41887 0.0
C619 C 0.17914 0.71029 0.33681 0.0
C620 C 0.17975 0.73382 0.32813 0.0
C621 C 0.16153 0.69491 0.35575 0.0
C622 C 0.14408 0.70262 0.36684 0.0
C623 C 0.14391 0.72567 0.35787 0.0
C624 C 0.1617 0.74123 0.33868 0.0
C625 C 0.12637 0.68614 0.38774 0.0
C626 C 0.09811 0.67309 0.38541 0.0
C627 C 0.13741 0.68044 0.40853 0.0
C628 C 0.16708 0.69499 0.41289 0.0
C629 C 0.18199 0.72346 0.4128 0.0
C630 C 0.20999 0.73709 0.41636 0.0
C631 C 0.22332 0.72249 0.42018 0.0
C632 C 0.20867 0.69421 0.4205 0.0
C633 C 0.18067 0.68047 0.41691 0.0
H634 H 0.24501 0.73309 0.42291 0.0
H635 H 0.97292 0.60558 0.39077 0.0
H636 H 0.48297 0.04081 0.95277 0.0
H637 H 0.47675 0.07133 0.92549 0.0
H638 H 0.53423 0.13983 0.96761 0.0
H639 H 0.54066 0.10925 0.99475 0.0
H640 H 0.48886 0.14438 0.94729 0.0
H641 H 0.55867 0.12353 0.9238 0.0
H642 H 0.57516 0.09172 0.91517 0.0
H643 H 0.51843 0.05657 0.85655 0.0
H644 H 0.50103 0.08769 0.86523 0.0
H645 H 0.52811 0.2455 0.85676 0.0
H646 H 0.53071 0.21645 0.88817 0.0
H647 H 0.48936 0.14744 0.84044 0.0
H648 H 0.48751 0.17654 0.80864 0.0
H649 H 0.52615 0.1431 0.86466 0.0
H650 H 0.45571 0.16218 0.88706 0.0
H651 H 0.43589 0.1911 0.89621 0.0
H652 H 0.49051 0.22722 0.95625 0.0
H653 H 0.51093 0.19876 0.94725 0.0
C654 C 0.49321 0.06226 0.95687 0.0
C655 C 0.51192 0.07276 0.976 0.0
C656 C 0.48987 0.07968 0.94118 0.0
C657 C 0.50527 0.10783 0.9444 0.0
C658 C 0.5221 0.11817 0.96489 0.0
C659 C 0.52562 0.10073 0.98047 0.0
C660 C 0.50677 0.12636 0.92464 0.0
C661 C 0.49726 0.14437 0.92929 0.0
C662 C 0.51732 0.12592 0.90105 0.0
C663 C 0.52835 0.10777 0.89533 0.0
C664 C 0.54957 0.1089 0.90918 0.0
C665 C 0.5591 0.09101 0.90427 0.0
C666 C 0.54786 0.07214 0.88535 0.0
C667 C 0.5271 0.07118 0.87123 0.0
C668 C 0.51737 0.08892 0.87614 0.0
C669 C 0.51997 0.22422 0.85277 0.0
C670 C 0.50738 0.21333 0.83024 0.0
C671 C 0.52126 0.20757 0.87086 0.0
C672 C 0.50956 0.17957 0.86699 0.0
C673 C 0.49835 0.16892 0.84398 0.0
C674 C 0.49734 0.18562 0.82577 0.0
C675 C 0.5081 0.16126 0.88714 0.0
C676 C 0.51771 0.14325 0.8826 0.0
C677 C 0.49738 0.16153 0.91076 0.0
C678 C 0.48503 0.17854 0.91632 0.0
C679 C 0.46362 0.17642 0.90211 0.0
C680 C 0.45226 0.19271 0.90728 0.0
C681 C 0.46199 0.21104 0.92676 0.0
C682 C 0.48304 0.21305 0.94115 0.0
C683 C 0.4945 0.19683 0.93603 0.0
H684 H 0.45317 0.22364 0.93073 0.0
H685 H 0.55527 0.0583 0.88162 0.0
H686 H 0.43333 0.46196 0.46417 0.0
H687 H 0.39727 0.45348 0.43535 0.0
H688 H 0.39164 0.52034 0.46603 0.0
H689 H 0.42755 0.52867 0.49494 0.0
H690 H 0.34103 0.47815 0.44686 0.0
H691 H 0.43436 0.53587 0.42171 0.0
H692 H 0.48189 0.54743 0.41583 0.0
H693 H 0.45689 0.47807 0.36956 0.0
H694 H 0.40905 0.466 0.3752 0.0
H695 H 0.2937 0.50756 0.33571 0.0
H696 H 0.32052 0.51358 0.37261 0.0
H697 H 0.34219 0.45602 0.34435 0.0
H698 H 0.31638 0.45059 0.30754 0.0
H699 H 0.38436 0.49627 0.36414 0.0
H700 H 0.29019 0.43939 0.3882 0.0
H701 H 0.24297 0.42929 0.39337 0.0
H702 H 0.26919 0.4975 0.44146 0.0
H703 H 0.31661 0.50823 0.43627 0.0
C704 C 0.42327 0.47377 0.46571 0.0
C705 C 0.43302 0.49581 0.48185 0.0
C706 C 0.4029 0.46916 0.44905 0.0
C707 C 0.39212 0.48661 0.44825 0.0
C708 C 0.3996 0.50661 0.46632 0.0
C709 C 0.42 0.51125 0.48294 0.0
C710 C 0.37711 0.48709 0.42629 0.0
C711 C 0.35049 0.48226 0.42878 0.0
C712 C 0.38948 0.49261 0.4027 0.0
C713 C 0.41817 0.49991 0.39907 0.0
C714 C 0.43899 0.523 0.41041 0.0
C715 C 0.46599 0.52966 0.4071 0.0
C716 C 0.47244 0.51345 0.39246 0.0
C717 C 0.45187 0.49059 0.38095 0.0
C718 C 0.42481 0.48385 0.38413 0.0
C719 C 0.30462 0.49661 0.33722 0.0
C720 C 0.30282 0.47853 0.3187 0.0
C721 C 0.31968 0.49981 0.35844 0.0
C722 C 0.33301 0.48486 0.36151 0.0
C723 C 0.33205 0.46771 0.34254 0.0
C724 C 0.3172 0.4646 0.32144 0.0
C725 C 0.34782 0.48647 0.38439 0.0
C726 C 0.37468 0.49201 0.38214 0.0
C727 C 0.33556 0.4816 0.40808 0.0
C728 C 0.30697 0.47477 0.41165 0.0
C729 C 0.28589 0.45232 0.39977 0.0
C730 C 0.25908 0.44649 0.40268 0.0
C731 C 0.25306 0.46282 0.41762 0.0
C732 C 0.27384 0.48491 0.42981 0.0
C733 C 0.3007 0.49087 0.42691 0.0
H734 H 0.23229 0.4583 0.41981 0.0
H735 H 0.49338 0.51866 0.38999 0.0
H736 H 0.90581 0.42581 0.99685 0.0
H737 H 0.88174 0.38783 0.9689 0.0
H738 H 0.95813 0.39947 0.94107 0.0
H739 H 0.98227 0.43809 0.96865 0.0
H740 H 0.92964 0.40312 0.90532 0.0
H741 H 0.90981 0.33959 0.97045 0.0
H742 H 0.8936 0.31927 1.01145 0.0
H743 H 0.81389 0.30485 0.99534 0.0
H744 H 0.82971 0.32543 0.95435 0.0
H745 H 0.8775 0.29593 0.82073 0.0
H746 H 0.89865 0.32531 0.85575 0.0
H747 H 0.82226 0.31879 0.8764 0.0
H748 H 0.80064 0.28893 0.84103 0.0
H749 H 0.84935 0.31163 0.91619 0.0
H750 H 0.8693 0.37603 0.85191 0.0
H751 H 0.88527 0.39659 0.81095 0.0
H752 H 0.96475 0.40971 0.82597 0.0
H753 H 0.94915 0.38888 0.86692 0.0
C754 C 0.91742 0.41947 0.98554 0.0
C755 C 0.9459 0.43495 0.98482 0.0
C756 C 0.90364 0.39775 0.96949 0.0
C757 C 0.91808 0.39086 0.95265 0.0
C758 C 0.94654 0.40451 0.95379 0.0
C759 C 0.96035 0.42635 0.9698 0.0
C760 C 0.90384 0.37264 0.93165 0.0
C761 C 0.91243 0.38289 0.90778 0.0
C762 C 0.88061 0.34669 0.93474 0.0
C763 C 0.87102 0.33428 0.95938 0.0
C764 C 0.88888 0.33229 0.97571 0.0
C765 C 0.87975 0.32068 0.99894 0.0
C766 C 0.85275 0.31083 1.00602 0.0
C767 C 0.83481 0.31251 0.98985 0.0
C768 C 0.84384 0.32411 0.9666 0.0
C769 C 0.86512 0.30082 0.83256 0.0
C770 C 0.83736 0.29011 0.82805 0.0
C771 C 0.87731 0.31769 0.8526 0.0
C772 C 0.86209 0.32434 0.86866 0.0
C773 C 0.83436 0.31387 0.86421 0.0
C774 C 0.8221 0.29703 0.84392 0.0
C775 C 0.87549 0.34207 0.89007 0.0
C776 C 0.86666 0.33182 0.91389 0.0
C777 C 0.89851 0.36809 0.88703 0.0
C778 C 0.90798 0.38066 0.86241 0.0
C779 C 0.89013 0.38309 0.84641 0.0
C780 C 0.89912 0.39484 0.82321 0.0
C781 C 0.92599 0.40439 0.81584 0.0
C782 C 0.94393 0.40227 0.83169 0.0
C783 C 0.93503 0.39053 0.85491 0.0
H784 H 0.93291 0.41348 0.79787 0.0
H785 H 0.84572 0.30185 0.02401 0.0
H786 H 0.9882 0.54363 0.95015 0.0
H787 H 0.96431 0.55691 0.92109 0.0
H788 H 0.89289 0.51918 0.96757 0.0
H789 H 0.91671 0.50585 0.99645 0.0
H790 H 0.88273 0.49862 0.92156 0.0
H791 H 0.92635 0.58713 0.95785 0.0
H792 H 0.96511 0.62976 0.97237 0.0
H793 H 0.99928 0.64726 0.89946 0.0
H794 H 0.9609 0.60454 0.88455 0.0
H795 H 0.8016 0.52982 0.84329 0.0
H796 H 0.8253 0.52338 0.87767 0.0
H797 H 0.90156 0.57008 0.83901 0.0
H798 H 0.87818 0.57737 0.80534 0.0
H799 H 0.90806 0.58695 0.88318 0.0
H800 H 0.86839 0.49859 0.84693 0.0
H801 H 0.83174 0.45523 0.83117 0.0
H802 H 0.79266 0.43659 0.90208 0.0
H803 H 0.82893 0.48001 0.91819 0.0
C804 C 0.96786 0.53936 0.95466 0.0
C805 C 0.95433 0.52396 0.97558 0.0
C806 C 0.95412 0.54673 0.93798 0.0
C807 C 0.9267 0.53884 0.94206 0.0
C808 C 0.91396 0.52536 0.96398 0.0
C809 C 0.92766 0.51804 0.98059 0.0
C810 C 0.91043 0.54164 0.92235 0.0
C811 C 0.88797 0.51802 0.91345 0.0
C812 C 0.91778 0.56677 0.91121 0.0
C813 C 0.94085 0.59251 0.92013 0.0
C814 C 0.94223 0.59996 0.94495 0.0
C815 C 0.96412 0.62416 0.95324 0.0
C816 C 0.98468 0.64118 0.93686 0.0
C817 C 0.98336 0.63405 0.91213 0.0
C818 C 0.96152 0.60986 0.90375 0.0
C819 C 0.82335 0.53828 0.84204 0.0
C820 C 0.83805 0.55412 0.82168 0.0
C821 C 0.83692 0.53463 0.86168 0.0
C822 C 0.86533 0.54624 0.86102 0.0
C823 C 0.87974 0.56115 0.84019 0.0
C824 C 0.8663 0.56516 0.82085 0.0
C825 C 0.88038 0.54387 0.8822 0.0
C826 C 0.90265 0.56755 0.89137 0.0
C827 C 0.87312 0.51872 0.89336 0.0
C828 C 0.8512 0.49269 0.88368 0.0
C829 C 0.85185 0.48535 0.8591 0.0
C830 C 0.83118 0.46074 0.85012 0.0
C831 C 0.80984 0.44321 0.86559 0.0
C832 C 0.80917 0.45021 0.8901 0.0
C833 C 0.82979 0.47481 0.89917 0.0
H834 H 0.79386 0.42416 0.85861 0.0
H835 H 1.0016 0.65991 0.94332 0.0
H836 H 0.46886 0.99002 0.43345 0.0
H837 H 0.43008 0.96226 0.40716 0.0
H838 H 0.39027 0.90668 0.46731 0.0
H839 H 0.42918 0.93459 0.4936 0.0
H840 H 0.39218 0.8806 0.42606 0.0
H841 H 0.36502 0.94492 0.44728 0.0
H842 H 0.3703 0.99023 0.45281 0.0
H843 H 0.38669 0.00621 0.37564 0.0
H844 H 0.38189 0.9611 0.3697 0.0
H845 H 0.26128 0.84007 0.35132 0.0
H846 H 0.29475 0.86642 0.38206 0.0
H847 H 0.35303 0.85073 0.34522 0.0
H848 H 0.31904 0.82359 0.31429 0.0
H849 H 0.34023 0.91168 0.37679 0.0
H850 H 0.39841 0.85355 0.38821 0.0
H851 H 0.39012 0.80681 0.38544 0.0
H852 H 0.30586 0.77573 0.40256 0.0
H853 H 0.31372 0.82226 0.40574 0.0
C854 C 0.45133 0.97243 0.44124 0.0
C855 C 0.45158 0.96466 0.4656 0.0
C856 C 0.4293 0.95647 0.42621 0.0
C857 C 0.40727 0.93236 0.43526 0.0
C858 C 0.40705 0.92518 0.45995 0.0
C859 C 0.42903 0.94128 0.47504 0.0
C860 C 0.38544 0.91383 0.41847 0.0
C861 C 0.38074 0.88735 0.41533 0.0
C862 C 0.3704 0.92255 0.40461 0.0
C863 C 0.37335 0.94972 0.40809 0.0
C864 C 0.36999 0.95818 0.43152 0.0
C865 C 0.37284 0.98381 0.43472 0.0
C866 C 0.37889 1.00111 0.4146 0.0
C867 C 0.38204 0.99279 0.39122 0.0
C868 C 0.37922 0.96718 0.38792 0.0
C869 C 0.28115 0.84201 0.34975 0.0
C870 C 0.28755 0.82985 0.33024 0.0
C871 C 0.30032 0.85718 0.36737 0.0
C872 C 0.32647 0.86071 0.36598 0.0
C873 C 0.33288 0.8481 0.34683 0.0
C874 C 0.31349 0.83262 0.32915 0.0
C875 C 0.34699 0.87842 0.38421 0.0
C876 C 0.3516 0.90485 0.38752 0.0
C877 C 0.36154 0.86946 0.39856 0.0
C878 C 0.35662 0.84139 0.39694 0.0
C879 C 0.37814 0.83673 0.39145 0.0
C880 C 0.37351 0.81028 0.3898 0.0
C881 C 0.34747 0.78832 0.39373 0.0
C882 C 0.32601 0.79276 0.39942 0.0
C883 C 0.33053 0.81916 0.40111 0.0
H884 H 0.34393 0.76786 0.39243 0.0
H885 H 0.38108 0.02095 0.41711 0.0
H886 H 0.46356 0.44483 0.96469 0.0
H887 H 0.44715 0.40464 0.93814 0.0
H888 H 0.5233 0.40667 0.9462 0.0
H889 H 0.53947 0.44627 0.97276 0.0
H890 H 0.50778 0.41348 0.89623 0.0
H891 H 0.47313 0.35629 0.9689 0.0
H892 H 0.44397 0.33847 1.00584 0.0
H893 H 0.37316 0.31154 0.96175 0.0
H894 H 0.40195 0.32958 0.92457 0.0
H895 H 0.51243 0.31235 0.83156 0.0
H896 H 0.5118 0.34083 0.86448 0.0
H897 H 0.42555 0.30646 0.85632 0.0
H898 H 0.42596 0.27662 0.82349 0.0
H899 H 0.43855 0.31624 0.9041 0.0
H900 H 0.47069 0.36897 0.83141 0.0
H901 H 0.49798 0.38801 0.79361 0.0
H902 H 0.57076 0.42586 0.83592 0.0
H903 H 0.54398 0.40662 0.87394 0.0
C904 C 0.47625 0.4359 0.96163 0.0
C905 C 0.50275 0.44858 0.97081 0.0
C906 C 0.46696 0.41308 0.94634 0.0
C907 C 0.48411 0.40279 0.94005 0.0
C908 C 0.50975 0.41426 0.95077 0.0
C909 C 0.51891 0.43679 0.96606 0.0
C910 C 0.47743 0.38292 0.91978 0.0
C911 C 0.49277 0.39217 0.898 0.0
C912 C 0.45695 0.35541 0.92165 0.0
C913 C 0.43971 0.34461 0.944 0.0
C914 C 0.45136 0.34686 0.96711 0.0
C915 C 0.4349 0.33664 0.98809 0.0
C916 C 0.40674 0.32397 0.98616 0.0
C917 C 0.39498 0.32141 0.96323 0.0
C918 C 0.41136 0.33161 0.9422 0.0
C919 C 0.49322 0.31067 0.83675 0.0
C920 C 0.4693 0.29252 0.8246 0.0
C921 C 0.49291 0.32711 0.85561 0.0
C922 C 0.4688 0.32655 0.86248 0.0
C923 C 0.4445 0.30753 0.8512 0.0
C924 C 0.44472 0.29051 0.83244 0.0
C925 C 0.4698 0.34661 0.88085 0.0
C926 C 0.45335 0.33757 0.90214 0.0
C927 C 0.48902 0.3746 0.87843 0.0
C928 C 0.50529 0.38618 0.85555 0.0
C929 C 0.49253 0.38117 0.83265 0.0
C930 C 0.50791 0.39202 0.81118 0.0
C931 C 0.53608 0.40809 0.81236 0.0
C932 C 0.54893 0.41338 0.83503 0.0
C933 C 0.53365 0.40252 0.85655 0.0
H934 H 0.54795 0.4165 0.79571 0.0
H935 H 0.39402 0.31606 1.00242 0.0
H936 H 0.04148 0.48791 0.43154 0.0
H937 H 0.0641 0.46818 0.40821 0.0
H938 H 0.10532 0.46663 0.47353 0.0
H939 H 0.08302 0.48725 0.49696 0.0
H940 H 0.1404 0.4884 0.4369 0.0
H941 H 0.0558 0.40721 0.44556 0.0
H942 H 0.00616 0.37777 0.44465 0.0
H943 H 0.00686 0.39116 0.36705 0.0
H944 H 0.05648 0.421 0.36753 0.0
H945 H 0.20638 0.43245 0.36784 0.0
H946 H 0.17602 0.43502 0.39846 0.0
H947 H 0.12878 0.44191 0.34065 0.0
H948 H 0.15872 0.43865 0.30987 0.0
H949 H 0.09625 0.41275 0.37767 0.0
H950 H 0.18064 0.49773 0.37066 0.0
H951 H 0.23032 0.52691 0.372 0.0
H952 H 0.2296 0.50605 0.44778 0.0
H953 H 0.18001 0.4762 0.44671 0.0
C954 C 0.05502 0.48295 0.44107 0.0
C955 C 0.06051 0.48924 0.46611 0.0
C956 C 0.06785 0.47147 0.4277 0.0
C957 C 0.08637 0.46563 0.43903 0.0
C958 C 0.0911 0.47087 0.46433 0.0
C959 C 0.07817 0.48242 0.47778 0.0
C960 C 0.10225 0.45629 0.42386 0.0
C961 C 0.13068 0.47144 0.42438 0.0
C962 C 0.08974 0.43452 0.40704 0.0
C963 C 0.05988 0.41651 0.40662 0.0
C964 C 0.04536 0.40404 0.42832 0.0
C965 C 0.01722 0.38725 0.42788 0.0
C966 C 1.00336 0.38264 0.40582 0.0
C967 C 0.01763 0.39476 0.38413 0.0
C968 C 0.04577 0.41159 0.38447 0.0
C969 C 0.18922 0.43397 0.36158 0.0
C970 C 0.18517 0.43555 0.33632 0.0
C971 C 0.17193 0.43562 0.37917 0.0
C972 C 0.15041 0.43935 0.37197 0.0
C973 C 0.1453 0.43921 0.34675 0.0
C974 C 0.16246 0.4373 0.32912 0.0
C975 C 0.13432 0.44512 0.3905 0.0
C976 C 0.1059 0.42941 0.39051 0.0
C977 C 0.14683 0.46634 0.40787 0.0
C978 C 0.17665 0.48447 0.40852 0.0
C979 C 0.19111 0.49918 0.38754 0.0
C980 C 0.21926 0.51582 0.38825 0.0
C981 C 0.23313 0.51823 0.40992 0.0
C982 C 0.21886 0.50408 0.43097 0.0
C983 C 0.19074 0.48725 0.43031 0.0
H984 H 0.25493 0.53112 0.41044 0.0
H985 H 0.98158 0.36963 0.40551 0.0
H986 H 0.60744 0.05907 0.99535 0.0
H987 H 0.64776 0.07634 0.96847 0.0
H988 H 0.59632 0.04827 0.90506 0.0
H989 H 0.55635 0.03067 0.93182 0.0
H990 H 0.64009 0.04425 0.89637 0.0
H991 H 0.62176 0.11319 0.92694 0.0
H992 H 0.6143 0.13924 0.95931 0.0
H993 H 0.6937 0.16541 0.98741 0.0
H994 H 0.70135 0.13908 0.95536 0.0
H995 H 0.69953 0.14134 0.80214 0.0
H996 H 0.67355 0.11013 0.83533 0.0
H997 H 0.74454 0.14552 0.88066 0.0
H998 H 0.77094 0.17687 0.847 0.0
H999 H 0.69902 0.14382 0.90319 0.0
H1000 H 0.71922 0.08136 0.86332 0.0
H1001 H 0.72385 0.05641 0.82828 0.0
H1002 H 0.63858 0.01933 0.81476 0.0
H1003 H 0.63346 0.04434 0.84952 0.0
C1004 C 0.60483 0.05557 0.97576 0.0
C1005 C 0.57879 0.04338 0.96567 0.0
C1006 C 0.62786 0.06577 0.96035 0.0
C1007 C 0.62519 0.06411 0.93462 0.0
C1008 C 0.59907 0.04985 0.92477 0.0
C1009 C 0.57617 0.03967 0.9401 0.0
C1010 C 0.64901 0.07952 0.91776 0.0
C1011 C 0.65304 0.066 0.89793 0.0
C1012 C 0.66633 0.1079 0.91986 0.0
C1013 C 0.66193 0.12388 0.93903 0.0
C1014 C 0.63749 0.12432 0.94017 0.0
C1015 C 0.63325 0.13915 0.95842 0.0
C1016 C 0.65349 0.1539 0.97547 0.0
C1017 C 0.67802 0.15391 0.97423 0.0
C1018 C 0.68231 0.13902 0.95603 0.0
C1019 C 0.70984 0.14202 0.81894 0.0
C1020 C 0.73732 0.16144 0.82192 0.0
C1021 C 0.69495 0.12412 0.83792 0.0
C1022 C 0.70704 0.12532 0.86053 0.0
C1023 C 0.73479 0.1441 0.86334 0.0
C1024 C 0.74992 0.16184 0.84406 0.0
C1025 C 0.68975 0.10862 0.88156 0.0
C1026 C 0.68675 0.12195 0.90206 0.0
C1027 C 0.67309 0.08015 0.87981 0.0
C1028 C 0.67599 0.06483 0.859 0.0
C1029 C 0.70147 0.06801 0.8528 0.0
C1030 C 0.70418 0.05383 0.83299 0.0
C1031 C 0.68153 0.03631 0.81929 0.0
C1032 C 0.6561 0.03289 0.8254 0.0
C1033 C 0.65328 0.04703 0.84519 0.0
H1034 H 0.68367 0.02537 0.80395 0.0
H1035 H 0.6502 0.1654 0.9896 0.0
H1036 H 0.53102 0.5953 0.49907 0.0
H1037 H 0.54433 0.6341 0.47174 0.0
H1038 H 0.53677 0.58424 0.40918 0.0
H1039 H 0.52422 0.54578 0.43659 0.0
H1040 H 0.57289 0.63488 0.39869 0.0
H1041 H 0.48213 0.58844 0.42906 0.0
H1042 H 0.44594 0.56805 0.46058 0.0
H1043 H 0.47425 0.64615 0.49328 0.0
H1044 H 0.51088 0.66693 0.46205 0.0
H1045 H 0.52797 0.70034 0.31342 0.0
H1046 H 0.52342 0.66471 0.34174 0.0
H1047 H 0.55808 0.72356 0.39969 0.0
H1048 H 0.56346 0.75925 0.37137 0.0
H1049 H 0.50805 0.6682 0.41151 0.0
H1050 H 0.59952 0.71287 0.37531 0.0
H1051 H 0.63092 0.72837 0.33969 0.0
H1052 H 0.5943 0.64682 0.31292 0.0
H1053 H 0.5624 0.63091 0.34822 0.0
C1054 C 0.53374 0.59313 0.47963 0.0
C1055 C 0.52675 0.5677 0.46987 0.0
C1056 C 0.54088 0.61515 0.46396 0.0
C1057 C 0.54065 0.61183 0.43832 0.0
C1058 C 0.53691 0.58729 0.42884 0.0
C1059 C 0.52995 0.56535 0.44452 0.0
C1060 C 0.54048 0.6323 0.42154 0.0
C1061 C 0.55865 0.64206 0.4015 0.0
C1062 C 0.52155 0.64137 0.42478 0.0
C1063 C 0.49942 0.62915 0.44343 0.0
C1064 C 0.48075 0.6012 0.4431 0.0
C1065 C 0.46015 0.58958 0.46088 0.0
C1066 C 0.45786 0.60577 0.479 0.0
C1067 C 0.4761 0.63363 0.47927 0.0
C1068 C 0.49677 0.64534 0.46152 0.0
C1069 C 0.53399 0.70548 0.33235 0.0
C1070 C 0.54599 0.73246 0.34029 0.0
C1071 C 0.53157 0.68521 0.34842 0.0
C1072 C 0.54058 0.69163 0.37271 0.0
C1073 C 0.55103 0.71826 0.38101 0.0
C1074 C 0.55406 0.73857 0.36485 0.0
C1075 C 0.54079 0.67109 0.38913 0.0
C1076 C 0.52244 0.66117 0.40895 0.0
C1077 C 0.55894 0.66126 0.3852 0.0
C1078 C 0.57841 0.67076 0.36425 0.0
C1079 C 0.59802 0.69829 0.36172 0.0
C1080 C 0.61594 0.70714 0.34161 0.0
C1081 C 0.61456 0.6886 0.32401 0.0
C1082 C 0.59532 0.66116 0.32655 0.0
C1083 C 0.57734 0.65222 0.34661 0.0
H1084 H 0.62842 0.69549 0.30845 0.0
H1085 H 0.44189 0.59674 0.49277 0.0
H1086 H 0.48086 0.0283 0.60965 0.0
H1087 H 0.45926 0.04562 0.63771 0.0
H1088 H 0.45308 0.09232 0.57859 0.0
H1089 H 0.47513 0.07511 0.55057 0.0
H1090 H 0.47716 0.12388 0.61633 0.0
H1091 H 0.39558 0.03975 0.6074 0.0
H1092 H 0.36649 0.99012 0.60594 0.0
H1093 H 0.38455 0.98417 0.68117 0.0
H1094 H 0.41407 0.03374 0.683 0.0
H1095 H 0.42872 0.18333 0.70297 0.0
H1096 H 0.42714 0.15606 0.66746 0.0
H1097 H 0.43777 0.10202 0.71522 0.0
H1098 H 0.43869 0.12865 0.75069 0.0
H1099 H 0.40507 0.0739 0.67888 0.0
H1100 H 0.492 0.15632 0.68522 0.0
H1101 H 0.52172 0.20588 0.68727 0.0
H1102 H 0.49382 0.21453 0.61686 0.0
H1103 H 0.46364 0.16502 0.61455 0.0
C1104 C 0.47373 0.04127 0.60243 0.0
C1105 C 0.47905 0.04986 0.57783 0.0
C1106 C 0.46149 0.05133 0.61851 0.0
C1107 C 0.45432 0.07027 0.61035 0.0
C1108 C 0.45829 0.0777 0.58538 0.0
C1109 C 0.47053 0.06757 0.56926 0.0
C1110 C 0.44577 0.08449 0.62846 0.0
C1111 C 0.46091 0.1129 0.62959 0.0
C1112 C 0.42501 0.07033 0.64624 0.0
C1113 C 0.40719 0.04049 0.64527 0.0
C1114 C 0.39351 0.02786 0.62358 0.0
C1115 C 0.37691 0.99973 0.6227 0.0
C1116 C 0.37371 0.984 0.64344 0.0
C1117 C 0.38706 0.99638 0.66512 0.0
C1118 C 0.40369 0.0245 0.6661 0.0
C1119 C 0.43006 0.16527 0.70599 0.0
C1120 C 0.43412 0.15839 0.72974 0.0
C1121 C 0.42936 0.14978 0.68561 0.0
C1122 C 0.43294 0.12724 0.68851 0.0
C1123 C 0.43509 0.11933 0.71238 0.0
C1124 C 0.43568 0.13469 0.73271 0.0
C1125 C 0.43673 0.11314 0.66689 0.0
C1126 C 0.42087 0.08481 0.66522 0.0
C1127 C 0.45691 0.12733 0.64865 0.0
C1128 C 0.47536 0.15703 0.64983 0.0
C1129 C 0.49211 0.16882 0.67024 0.0
C1130 C 0.50903 0.19689 0.67145 0.0
C1131 C 0.50961 0.21335 0.65224 0.0
C1132 C 0.49331 0.20176 0.63174 0.0
C1133 C 0.4763 0.1737 0.63047 0.0
H1134 H 0.52274 0.23507 0.6532 0.0
H1135 H 0.36085 0.96222 0.64271 0.0
H1136 H 0.46814 0.489 0.11291 0.0
H1137 H 0.42505 0.47011 0.13534 0.0
H1138 H 0.38657 0.47739 0.07043 0.0
H1139 H 0.43006 0.49661 0.04788 0.0
H1140 H 0.37621 0.49988 0.10973 0.0
H1141 H 0.37037 0.41496 0.09338 0.0
H1142 H 0.38608 0.38179 0.0916 0.0
H1143 H 0.39494 0.38583 0.16992 0.0
H1144 H 0.37965 0.41934 0.17215 0.0
H1145 H 0.24915 0.44499 0.16933 0.0
H1146 H 0.28419 0.44869 0.1407 0.0
H1147 H 0.32939 0.44307 0.20104 0.0
H1148 H 0.29406 0.4389 0.22988 0.0
H1149 H 0.33373 0.41682 0.16121 0.0
H1150 H 0.34438 0.50456 0.17718 0.0
H1151 H 0.32979 0.5386 0.17966 0.0
H1152 H 0.3132 0.52999 0.10246 0.0
H1153 H 0.32735 0.49561 0.09959 0.0
C1154 C 0.45033 0.48596 0.10325 0.0
C1155 C 0.45244 0.49417 0.0786 0.0
C1156 C 0.42565 0.47509 0.11609 0.0
C1157 C 0.40238 0.47213 0.10463 0.0
C1158 C 0.40418 0.47938 0.07969 0.0
C1159 C 0.42895 0.49012 0.06673 0.0
C1160 C 0.37705 0.46373 0.11938 0.0
C1161 C 0.36658 0.48139 0.12053 0.0
C1162 C 0.36487 0.44004 0.13415 0.0
C1163 C 0.37405 0.41984 0.13291 0.0
C1164 C 0.37587 0.40895 0.11021 0.0
C1165 C 0.38466 0.39005 0.10912 0.0
C1166 C 0.39155 0.38175 0.13062 0.0
C1167 C 0.38961 0.39229 0.15327 0.0
C1168 C 0.38084 0.41122 0.15447 0.0
C1169 C 0.26629 0.44405 0.17655 0.0
C1170 C 0.26882 0.44186 0.20201 0.0
C1171 C 0.28644 0.44633 0.1601 0.0
C1172 C 0.30983 0.4468 0.16868 0.0
C1173 C 0.31165 0.44292 0.19392 0.0
C1174 C 0.29137 0.44049 0.21043 0.0
C1175 C 0.333 0.45301 0.15155 0.0
C1176 C 0.34315 0.43508 0.1501 0.0
C1177 C 0.34504 0.47655 0.13657 0.0
C1178 C 0.33663 0.4973 0.13823 0.0
C1179 C 0.33742 0.50978 0.16077 0.0
C1180 C 0.32926 0.52915 0.16224 0.0
C1181 C 0.3205 0.53639 0.14124 0.0
C1182 C 0.31995 0.52432 0.11872 0.0
C1183 C 0.32805 0.5049 0.11715 0.0
H1184 H 0.31419 0.5514 0.14242 0.0
H1185 H 0.39836 0.36711 0.12974 0.0
H1186 H 0.94807 0.42477 0.55359 0.0
H1187 H 0.92336 0.38253 0.57738 0.0
H1188 H 0.97894 0.41932 0.63712 0.0
H1189 H 1.00348 0.4614 0.61344 0.0
H1190 H 0.96235 0.36437 0.63228 0.0
H1191 H 0.92266 0.42178 0.63762 0.0
H1192 H 0.90267 0.44821 0.62159 0.0
H1193 H 0.83921 0.37676 0.58787 0.0
H1194 H 0.85907 0.34999 0.60343 0.0
H1195 H 0.87632 0.28986 0.73556 0.0
H1196 H 0.90893 0.32192 0.70535 0.0
H1197 H 0.84689 0.2902 0.65024 0.0
H1198 H 0.81434 0.25918 0.68049 0.0
H1199 H 0.86785 0.34146 0.65124 0.0
H1200 H 0.90563 0.28285 0.64856 0.0
H1201 H 0.92527 0.25649 0.66551 0.0
H1202 H 0.99169 0.32915 0.69456 0.0
H1203 H 0.97226 0.35592 0.67807 0.0
C1204 C 0.95551 0.42344 0.57143 0.0
C1205 C 0.97772 0.44624 0.58166 0.0
C1206 C 0.94129 0.39942 0.58511 0.0
C1207 C 0.9491 0.39782 0.6092 0.0
C1208 C 0.97252 0.41998 0.61862 0.0
C1209 C 0.98655 0.444 0.60507 0.0
C1210 C 0.93132 0.37452 0.62558 0.0
C1211 C 0.94169 0.35935 0.63652 0.0
C1212 C 0.9043 0.3678 0.63101 0.0
C1213 C 0.89252 0.38395 0.62145 0.0
C1214 C 0.9046 0.41177 0.62658 0.0
C1215 C 0.89326 0.4268 0.61762 0.0
C1216 C 0.86971 0.41417 0.60368 0.0
C1217 C 0.85747 0.38651 0.59865 0.0
C1218 C 0.86876 0.3714 0.60753 0.0
C1219 C 0.86999 0.28924 0.71679 0.0
C1220 C 0.84283 0.27203 0.71034 0.0
C1221 C 0.88861 0.30762 0.69949 0.0
C1222 C 0.88047 0.30868 0.67537 0.0
C1223 C 0.85374 0.2901 0.66868 0.0
C1224 C 0.83515 0.2722 0.68597 0.0
C1225 C 0.89853 0.33067 0.65776 0.0
C1226 C 0.88831 0.34597 0.64678 0.0
C1227 C 0.9256 0.33738 0.65235 0.0
C1228 C 0.93735 0.32135 0.66227 0.0
C1229 C 0.92431 0.29318 0.65873 0.0
C1230 C 0.93543 0.27817 0.66822 0.0
C1231 C 0.95967 0.29113 0.68116 0.0
C1232 C 0.97289 0.31914 0.68457 0.0
C1233 C 0.96185 0.33424 0.67513 0.0
H1234 H 0.96825 0.27947 0.68849 0.0
H1235 H 0.86084 0.42577 0.59686 0.0
H1236 H 0.52844 0.94216 0.05594 0.0
H1237 H 0.53578 0.91251 0.08355 0.0
H1238 H 0.53189 0.95734 0.14593 0.0
H1239 H 0.52446 0.98678 0.11843 0.0
H1240 H 0.57029 0.91636 0.12188 0.0
H1241 H 0.48666 0.90995 0.18782 0.0
H1242 H 0.44781 0.9178 0.18676 0.0
H1243 H 0.43923 0.90076 0.10951 0.0
H1244 H 0.47754 0.89215 0.11021 0.0
H1245 H 0.52523 0.83505 0.24353 0.0
H1246 H 0.52252 0.86749 0.21596 0.0
H1247 H 0.53139 0.82588 0.15335 0.0
H1248 H 0.53448 0.79374 0.18065 0.0
H1249 H 0.49091 0.86583 0.1777 0.0
H1250 H 0.57414 0.87195 0.11176 0.0
H1251 H 0.61336 0.8647 0.11256 0.0
H1252 H 0.62287 0.88289 0.1896 0.0
H1253 H 0.58398 0.89061 0.18918 0.0
C1254 C 0.53046 0.94641 0.07544 0.0
C1255 C 0.52602 0.96674 0.08512 0.0
C1256 C 0.53439 0.92934 0.09122 0.0
C1257 C 0.53372 0.93236 0.11681 0.0
C1258 C 0.53205 0.95441 0.12627 0.0
C1259 C 0.52813 0.9714 0.11056 0.0
C1260 C 0.53166 0.91091 0.13358 0.0
C1261 C 0.55282 0.90511 0.13389 0.0
C1262 C 0.50897 0.89651 0.14952 0.0
C1263 C 0.48524 0.90074 0.14904 0.0
C1264 C 0.47638 0.90771 0.17064 0.0
C1265 C 0.45444 0.91228 0.1701 0.0
C1266 C 0.44113 0.90988 0.14806 0.0
C1267 C 0.4496 0.90269 0.12655 0.0
C1268 C 0.47143 0.89795 0.12702 0.0
C1269 C 0.52604 0.83248 0.22388 0.0
C1270 C 0.5304 0.81197 0.21431 0.0
C1271 C 0.52455 0.85108 0.20813 0.0
C1272 C 0.5274 0.84951 0.1826 0.0
C1273 C 0.52976 0.82789 0.173 0.0
C1274 C 0.53139 0.80942 0.18867 0.0
C1275 C 0.5296 0.87127 0.16606 0.0
C1276 C 0.50841 0.87711 0.16575 0.0
C1277 C 0.55224 0.8857 0.15008 0.0
C1278 C 0.57597 0.88158 0.15046 0.0
C1279 C 0.58468 0.87451 0.12884 0.0
C1280 C 0.60684 0.87031 0.12923 0.0
C1281 C 0.62054 0.87325 0.15114 0.0
C1282 C 0.61218 0.88052 0.17267 0.0
C1283 C 0.59007 0.88479 0.17237 0.0
H1284 H 0.63767 0.86994 0.15141 0.0
H1285 H 0.42422 0.91353 0.14766 0.0
H1286 H 0.53814 0.51318 0.61996 0.0
H1287 H 0.57705 0.52573 0.64614 0.0
H1288 H 0.62859 0.54476 0.58186 0.0
H1289 H 0.58925 0.53151 0.55556 0.0
H1290 H 0.63301 0.50963 0.60961 0.0
H1291 H 0.6368 0.59379 0.62528 0.0
H1292 H 0.61939 0.62428 0.63645 0.0
H1293 H 0.59575 0.5872 0.70773 0.0
H1294 H 0.61269 0.55621 0.69688 0.0
H1295 H 0.75543 0.55885 0.67584 0.0
H1296 H 0.71822 0.55238 0.6497 0.0
H1297 H 0.66361 0.52415 0.71217 0.0
H1298 H 0.70103 0.53055 0.73861 0.0
H1299 H 0.66144 0.56488 0.68547 0.0
H1300 H 0.65672 0.48005 0.66895 0.0
H1301 H 0.67449 0.44989 0.65759 0.0
H1302 H 0.70053 0.48929 0.58742 0.0
H1303 H 0.68321 0.51993 0.59849 0.0
C1304 C 0.55802 0.52119 0.61149 0.0
C1305 C 0.56078 0.52159 0.58578 0.0
C1306 C 0.58028 0.52828 0.62646 0.0
C1307 C 0.60586 0.53616 0.61604 0.0
C1308 C 0.60907 0.53869 0.59034 0.0
C1309 C 0.58669 0.53151 0.57531 0.0
C1310 C 0.62808 0.53834 0.63176 0.0
C1311 C 0.63959 0.52218 0.62592 0.0
C1312 C 0.63605 0.5539 0.65357 0.0
C1313 C 0.62582 0.5725 0.66017 0.0
C1314 C 0.62769 0.59197 0.64326 0.0
C1315 C 0.61794 0.60939 0.64956 0.0
C1316 C 0.60642 0.60764 0.67276 0.0
C1317 C 0.60467 0.58852 0.68975 0.0
C1318 C 0.61437 0.57104 0.68355 0.0
C1319 C 0.73539 0.55076 0.68397 0.0
C1320 C 0.73114 0.54514 0.70928 0.0
C1321 C 0.71413 0.54707 0.66898 0.0
C1322 C 0.68812 0.5378 0.67896 0.0
C1323 C 0.68354 0.53135 0.70411 0.0
C1324 C 0.70485 0.53475 0.71913 0.0
C1325 C 0.66629 0.53628 0.66319 0.0
C1326 C 0.65486 0.55247 0.66908 0.0
C1327 C 0.65844 0.52084 0.64136 0.0
C1328 C 0.6689 0.50246 0.63465 0.0
C1329 C 0.66645 0.48244 0.65118 0.0
C1330 C 0.67639 0.46522 0.64477 0.0
C1331 C 0.6887 0.46772 0.62182 0.0
C1332 C 0.69102 0.4874 0.6052 0.0
C1333 C 0.68111 0.50468 0.61152 0.0
H1334 H 0.69638 0.45437 0.61689 0.0
H1335 H 0.59889 0.62114 0.6776 0.0
H1336 H 0.10822 0.59761 0.04525 0.0
H1337 H 0.13201 0.63336 0.0755 0.0
H1338 H 0.0571 0.60628 0.11573 0.0
H1339 H 0.03324 0.5701 0.08557 0.0
H1340 H 0.09542 0.66522 0.11619 0.0
H1341 H 0.09063 0.57943 0.13067 0.0
H1342 H 0.09645 0.54073 0.11939 0.0
H1343 H 0.18208 0.59407 0.10999 0.0
H1344 H 0.17665 0.63325 0.12043 0.0
H1345 H 0.14215 0.70943 0.23468 0.0
H1346 H 0.11902 0.68001 0.20009 0.0
H1347 H 0.196 0.6974 0.16865 0.0
H1348 H 0.21942 0.72668 0.2038 0.0
H1349 H 0.158 0.64494 0.16209 0.0
H1350 H 0.16389 0.73044 0.14823 0.0
H1351 H 0.15893 0.7699 0.15853 0.0
H1352 H 0.07281 0.71823 0.16622 0.0
H1353 H 0.0773 0.67838 0.15631 0.0
C1354 C 0.09662 0.60008 0.05994 0.0
C1355 C 0.06894 0.58112 0.06318 0.0
C1356 C 0.11026 0.62033 0.0773 0.0
C1357 C 0.09639 0.62203 0.09807 0.0
C1358 C 0.06814 0.60517 0.09984 0.0
C1359 C 0.05447 0.58469 0.0825 0.0
C1360 C 0.11184 0.63866 0.1193 0.0
C1361 C 0.1089 0.66069 0.1264 0.0
C1362 C 0.12989 0.63298 0.13221 0.0
C1363 C 0.13317 0.60936 0.12604 0.0
C1364 C 0.11066 0.58298 0.12592 0.0
C1365 C 0.1139 0.56093 0.11973 0.0
C1366 C 0.13963 0.56494 0.114 0.0
C1367 C 0.16216 0.591 0.1144 0.0
C1368 C 0.159 0.61315 0.12041 0.0
C1369 C 0.1542 0.70676 0.22057 0.0
C1370 C 0.18263 0.72055 0.22183 0.0
C1371 C 0.14093 0.69004 0.20072 0.0
C1372 C 0.15579 0.68707 0.18143 0.0
C1373 C 0.18414 0.6996 0.18324 0.0
C1374 C 0.19749 0.71622 0.20334 0.0
C1375 C 0.14157 0.67158 0.15915 0.0
C1376 C 0.14467 0.64966 0.15184 0.0
C1377 C 0.12379 0.67745 0.14596 0.0
C1378 C 0.12097 0.70139 0.15172 0.0
C1379 C 0.14392 0.72746 0.15228 0.0
C1380 C 0.14118 0.7499 0.15802 0.0
C1381 C 0.11557 0.74657 0.16307 0.0
C1382 C 0.09263 0.72078 0.16232 0.0
C1383 C 0.09526 0.69826 0.15662 0.0
H1384 H 0.1135 0.76397 0.16752 0.0
H1385 H 0.14216 0.54788 0.1093 0.0
loop_
_geom_bond_atom_site_label_1
_geom_bond_atom_site_label_2
_geom_bond_distance
_geom_bond_site_symmetry_2
_ccdc_geom_bond_type
H0 C6 0.930 . S
H1 C9 0.931 . S
H2 C11 0.931 1_455 S
H3 C13 0.930 . S
H4 C15 0.930 . S
H5 C17 0.931 . S
C6 H0 0.930 . S
C6 C7 1.380 . S
C6 C8 1.394 . S
C7 C6 1.380 . S
C7 C11 1.382 . S
C8 C6 1.394 . S
C8 C9 1.400 . S
C9 H1 0.931 . S
C9 C8 1.400 . S
C9 C10 1.375 1_655 S
C10 C9 1.375 1_455 S
C10 C11 1.415 1_455 S
C10 C12 1.501 1_556 S
C11 H2 0.931 1_655 S
C11 C7 1.382 . S
C11 C10 1.415 1_655 S
C12 C10 1.501 1_554 S
C12 C13 1.384 . S
C12 C17 1.408 . S
C13 H3 0.930 . S
C13 C12 1.384 . S
C13 C14 1.389 . S
C14 C13 1.389 . S
C14 C15 1.405 . S
C15 H4 0.930 . S
C15 C14 1.405 . S
C15 C16 1.364 . S
C16 C15 1.364 . S
C16 C17 1.400 . S
C17 H5 0.931 . S
C17 C12 1.408 . S
C17 C16 1.400 . S
H18 C24 0.930 . S
H19 C27 0.931 . S
H20 C29 0.931 . S
H21 C31 0.931 1_545 S
H22 C33 0.930 . S
H23 C35 0.946 . S
C24 H18 0.930 . S
C24 C25 1.380 . S
C24 C26 1.394 . S
C25 C24 1.380 . S
C25 C29 1.382 . S
C26 C24 1.394 . S
C26 C27 1.400 . S
C27 H19 0.931 . S
C27 C26 1.400 . S
C27 C28 1.375 . S
C28 C27 1.375 . S
C28 C29 1.415 . S
C28 C30 1.501 . S
C29 H20 0.931 . S
C29 C25 1.382 . S
C29 C28 1.415 . S
C30 C28 1.501 . S
C30 C31 1.382 1_545 S
C30 C35 1.408 1_545 S
C31 H21 0.931 1_565 S
C31 C30 1.382 1_565 S
C31 C32 1.391 . S
C32 C31 1.391 . S
C32 C33 1.405 . S
C33 H22 0.930 . S
C33 C32 1.405 . S
C33 C34 1.364 . S
C34 C33 1.364 . S
C34 C35 1.400 . S
C35 H23 0.946 . S
C35 C30 1.408 1_565 S
C35 C34 1.400 . S
H36 C42 0.930 . S
H37 C45 0.931 . S
H38 C47 0.931 . S
H39 C49 0.930 . S
H40 C51 0.930 . S
H41 C53 0.931 . S
C42 H36 0.930 . S
C42 C43 1.380 . S
C42 C44 1.394 . S
C43 C42 1.380 . S
C43 C47 1.382 . S
C44 C42 1.394 . S
C44 C45 1.400 . S
C45 H37 0.931 . S
C45 C44 1.400 . S
C45 C46 1.375 . S
C46 C45 1.375 . S
C46 C47 1.415 . S
C46 C48 1.501 1_554 S
C47 H38 0.931 . S
C47 C43 1.382 . S
C47 C46 1.415 . S
C48 C46 1.501 1_556 S
C48 C49 1.384 . S
C48 C53 1.408 . S
C49 H39 0.930 . S
C49 C48 1.384 . S
C49 C50 1.389 . S
C50 C49 1.389 . S
C50 C51 1.405 . S
C51 H40 0.930 . S
C51 C50 1.405 . S
C51 C52 1.364 . S
C52 C51 1.364 . S
C52 C53 1.400 . S
C53 H41 0.931 . S
C53 C48 1.408 . S
C53 C52 1.400 . S
H54 C60 0.930 . S
H55 C63 0.931 . S
H56 C65 0.931 . S
H57 C67 0.930 . S
H58 C69 0.930 . S
H59 C71 0.931 . S
C60 H54 0.930 . S
C60 C61 1.380 . S
C60 C62 1.394 . S
C61 C60 1.380 . S
C61 C65 1.382 . S
C62 C60 1.394 . S
C62 C63 1.400 . S
C63 H55 0.931 . S
C63 C62 1.400 . S
C63 C64 1.375 . S
C64 C63 1.375 . S
C64 C65 1.415 . S
C64 C66 1.501 1_655 S
C65 H56 0.931 . S
C65 C61 1.382 . S
C65 C64 1.415 . S
C66 C64 1.501 1_455 S
C66 C67 1.384 . S
C66 C71 1.408 . S
C67 H57 0.930 . S
C67 C66 1.384 . S
C67 C68 1.389 . S
C68 C67 1.389 . S
C68 C69 1.405 . S
C69 H58 0.930 . S
C69 C68 1.405 . S
C69 C70 1.364 . S
C70 C69 1.364 . S
C70 C71 1.400 . S
C71 H59 0.931 . S
C71 C66 1.408 . S
C71 C70 1.400 . S
H72 C78 0.930 . S
H73 C81 0.931 . S
H74 C83 0.931 . S
H75 C85 0.930 . S
H76 C87 0.930 . S
H77 C89 0.931 . S
C78 H72 0.930 . S
C78 C79 1.380 . S
C78 C80 1.394 . S
C79 C78 1.380 . S
C79 C83 1.382 . S
C80 C78 1.394 . S
C80 C81 1.400 . S
C81 H73 0.931 . S
C81 C80 1.400 . S
C81 C82 1.375 . S
C82 C81 1.375 . S
C82 C83 1.415 . S
C82 C84 1.501 1_564 S
C83 H74 0.931 . S
C83 C79 1.382 . S
C83 C82 1.415 . S
C84 C82 1.501 1_546 S
C84 C85 1.384 . S
C84 C89 1.408 . S
C85 H75 0.930 . S
C85 C84 1.384 . S
C85 C86 1.389 . S
C86 C85 1.389 . S
C86 C87 1.405 . S
C87 H76 0.930 . S
C87 C86 1.405 . S
C87 C88 1.364 . S
C88 C87 1.364 . S
C88 C89 1.400 . S
C89 H77 0.931 . S
C89 C84 1.408 . S
C89 C88 1.400 . S
H90 C96 0.930 . S
H91 C99 0.931 . S
H92 C101 0.931 . S
H93 C103 0.930 . S
H94 C105 0.930 . S
H95 C107 0.931 . S
C96 H90 0.930 . S
C96 C97 1.380 . S
C96 C98 1.394 . S
C97 C96 1.380 . S
C97 C101 1.382 . S
C98 C96 1.394 . S
C98 C99 1.400 . S
C99 H91 0.931 . S
C99 C98 1.400 . S
C99 C100 1.375 . S
C100 C99 1.375 . S
C100 C101 1.415 . S
C100 C102 1.501 . S
C101 H92 0.931 . S
C101 C97 1.382 . S
C101 C100 1.415 . S
C102 C100 1.501 . S
C102 C103 1.384 . S
C102 C107 1.408 . S
C103 H93 0.930 . S
C103 C102 1.384 . S
C103 C104 1.389 . S
C104 C103 1.389 . S
C104 C105 1.405 . S
C105 H94 0.930 . S
C105 C104 1.405 . S
C105 C106 1.364 . S
C106 C105 1.364 . S
C106 C107 1.400 . S
C107 H95 0.931 . S
C107 C102 1.408 . S
C107 C106 1.400 . S
Mg108 O115 2.141 . S
Mg108 O116 2.048 . S
Mg108 O117 2.048 . S
Mg108 O120 2.141 . S
C109 O110 1.313 . S
C109 O116 1.195 . S
O110 C109 1.313 . S
C111 O112 1.245 . S
C111 O120 1.289 . S
O112 C111 1.245 . S
C113 O114 1.245 . S
C113 O115 1.289 . S
O114 C113 1.245 . S
O115 Mg108 2.141 . S
O115 C113 1.289 . S
O116 Mg108 2.048 . S
O116 C109 1.195 . S
O117 Mg108 2.048 . S
O117 C118 1.195 . S
C118 O117 1.195 . S
C118 O119 1.313 . S
O119 C118 1.313 . S
O120 Mg108 2.141 . S
O120 C111 1.289 . S
Mg121 O128 2.141 . S
Mg121 O129 2.048 . S
Mg121 O130 2.048 . S
Mg121 O133 2.141 . S
C122 O123 1.313 . S
C122 O129 1.195 . S
O123 C122 1.313 . S
C124 O125 1.245 . S
C124 O133 1.289 . S
O125 C124 1.245 . S
C126 O127 1.245 . S
C126 O128 1.289 . S
O127 C126 1.245 . S
O128 Mg121 2.141 . S
O128 C126 1.289 . S
O129 Mg121 2.048 . S
O129 C122 1.195 . S
O130 Mg121 2.048 . S
O130 C131 1.195 . S
C131 O130 1.195 . S
C131 O132 1.313 . S
O132 C131 1.313 . S
O133 Mg121 2.141 . S
O133 C124 1.289 . S
Mg134 O141 2.141 . S
Mg134 O142 2.048 . S
Mg134 O143 2.048 . S
Mg134 O146 2.141 . S
C135 O136 1.313 . S
C135 O142 1.195 . S
O136 C135 1.313 . S
C137 O138 1.245 . S
C137 O146 1.289 . S
O138 C137 1.245 . S
C139 O140 1.245 . S
C139 O141 1.289 . S
O140 C139 1.245 . S
O141 Mg134 2.141 . S
O141 C139 1.289 . S
O142 Mg134 2.048 . S
O142 C135 1.195 . S
O143 Mg134 2.048 . S
O143 C144 1.195 . S
C144 O143 1.195 . S
C144 O145 1.313 . S
O145 C144 1.313 . S
O146 Mg134 2.141 . S
O146 C137 1.289 . S
Mg147 O154 2.141 . S
Mg147 O155 2.048 . S
Mg147 O156 2.048 . S
Mg147 O159 2.141 . S
C148 O149 1.313 . S
C148 O155 1.195 . S
O149 C148 1.313 . S
C150 O151 1.245 . S
C150 O159 1.289 . S
O151 C150 1.245 . S
C152 O153 1.245 . S
C152 O154 1.289 . S
O153 C152 1.245 . S
O154 Mg147 2.141 . S
O154 C152 1.289 . S
O155 Mg147 2.048 . S
O155 C148 1.195 . S
O156 Mg147 2.048 . S
O156 C157 1.195 . S
C157 O156 1.195 . S
C157 O158 1.313 . S
O158 C157 1.313 . S
O159 Mg147 2.141 . S
O159 C150 1.289 . S
Mg160 O167 2.141 . S
Mg160 O168 2.048 . S
Mg160 O169 2.048 . S
Mg160 O172 2.141 . S
C161 O162 1.313 . S
C161 O168 1.195 . S
O162 C161 1.313 . S
C163 O164 1.245 . S
C163 O172 1.289 . S
O164 C163 1.245 . S
C165 O166 1.245 . S
C165 O167 1.289 . S
O166 C165 1.245 . S
O167 Mg160 2.141 . S
O167 C165 1.289 . S
O168 Mg160 2.048 . S
O168 C161 1.195 . S
O169 Mg160 2.048 . S
O169 C170 1.195 . S
C170 O169 1.195 . S
C170 O171 1.313 . S
O171 C170 1.313 . S
O172 Mg160 2.141 . S
O172 C163 1.289 . S
Mg173 O180 2.141 . S
Mg173 O181 2.048 . S
Mg173 O182 2.048 . S
Mg173 O185 2.141 . S
C174 O175 1.313 . S
C174 O181 1.195 . S
O175 C174 1.313 . S
C176 O177 1.245 . S
C176 O185 1.289 . S
O177 C176 1.245 . S
C178 O179 1.245 . S
C178 O180 1.289 . S
O179 C178 1.245 . S
O180 Mg173 2.141 . S
O180 C178 1.289 . S
O181 Mg173 2.048 . S
O181 C174 1.195 . S
O182 Mg173 2.048 . S
O182 C183 1.195 . S
C183 O182 1.195 . S
C183 O184 1.313 . S
O184 C183 1.313 . S
O185 Mg173 2.141 . S
O185 C176 1.289 . S
H186 C204 0.951 . S
H187 C206 0.951 . S
H188 C208 0.950 . S
H189 C209 0.950 . S
H190 C211 0.950 . S
H191 C214 0.950 . S
H192 C215 0.950 . S
H193 C217 0.950 . S
H194 C218 0.950 . S
H195 C219 0.951 . S
H196 C221 0.951 . S
H197 C223 0.950 . S
H198 C224 0.950 . S
H199 C226 0.950 . S
H200 C229 0.950 . S
H201 C230 0.950 . S
H202 C232 0.950 . S
H203 C233 0.950 . S
C204 H186 0.951 . S
C204 C205 1.366 . S
C204 C206 1.388 . S
C205 C204 1.366 . S
C205 C209 1.385 . S
C206 H187 0.951 . S
C206 C204 1.388 . S
C206 C207 1.366 . S
C207 C206 1.366 . S
C207 C208 1.414 . S
C207 C210 1.499 . S
C208 H188 0.950 . S
C208 C207 1.414 . S
C208 C209 1.374 . S
C209 H189 0.950 . S
C209 C205 1.385 . S
C209 C208 1.374 . S
C210 C207 1.499 . S
C210 C211 1.373 . S
C210 C212 1.389 . S
C211 H190 0.950 . S
C211 C210 1.373 . S
C211 C227 1.377 . S
C212 C210 1.389 . S
C212 C213 1.524 . S
C212 C226 1.377 . S
C213 C212 1.524 . S
C213 C214 1.397 . S
C213 C218 1.363 . S
C214 H191 0.950 . S
C214 C213 1.397 . S
C214 C215 1.334 . S
C215 H192 0.950 . S
C215 C214 1.334 . S
C215 C216 1.287 . S
C216 C215 1.287 . S
C216 C217 1.524 . S
C216 H235 0.913 . S
C217 H193 0.950 . S
C217 C216 1.524 . S
C217 C218 1.415 . S
C218 H194 0.950 . S
C218 C213 1.363 . S
C218 C217 1.415 . S
C219 H195 0.951 . S
C219 C220 1.366 . S
C219 C221 1.388 . S
C220 C219 1.366 . S
C220 C224 1.385 . S
C221 H196 0.951 . S
C221 C219 1.388 . S
C221 C222 1.366 . S
C222 C221 1.366 . S
C222 C223 1.414 . S
C222 C225 1.499 . S
C223 H197 0.950 . S
C223 C222 1.414 . S
C223 C224 1.374 . S
C224 H198 0.950 . S
C224 C220 1.385 . S
C224 C223 1.374 . S
C225 C222 1.499 . S
C225 C226 1.373 . S
C225 C227 1.389 . S
C226 H199 0.950 . S
C226 C212 1.377 . S
C226 C225 1.373 . S
C227 C211 1.377 . S
C227 C225 1.389 . S
C227 C228 1.524 . S
C228 C227 1.524 . S
C228 C229 1.397 . S
C228 C233 1.363 . S
C229 H200 0.950 . S
C229 C228 1.397 . S
C229 C230 1.334 . S
C230 H201 0.950 . S
C230 C229 1.334 . S
C230 C231 1.287 . S
C231 C230 1.287 . S
C231 C232 1.524 . S
C231 H234 0.999 . S
C232 H202 0.950 . S
C232 C231 1.524 . S
C232 C233 1.415 . S
C233 H203 0.950 . S
C233 C228 1.363 . S
C233 C232 1.415 . S
H234 C231 0.999 . S
H235 C216 0.913 . S
H236 C254 0.951 . S
H237 C256 0.951 . S
H238 C258 0.950 . S
H239 C259 0.950 . S
H240 C261 0.950 . S
H241 C264 0.950 . S
H242 C265 0.950 . S
H243 C267 0.950 . S
H244 C268 0.950 . S
H245 C269 0.951 . S
H246 C271 0.951 . S
H247 C273 0.950 . S
H248 C274 0.950 . S
H249 C276 0.950 . S
H250 C279 0.950 . S
H251 C280 0.950 . S
H252 C282 0.950 . S
H253 C283 0.950 . S
C254 H236 0.951 . S
C254 C255 1.366 . S
C254 C256 1.388 . S
C255 C254 1.366 . S
C255 C259 1.385 . S
C256 H237 0.951 . S
C256 C254 1.388 . S
C256 C257 1.366 . S
C257 C256 1.366 . S
C257 C258 1.414 . S
C257 C260 1.499 . S
C258 H238 0.950 . S
C258 C257 1.414 . S
C258 C259 1.374 . S
C259 H239 0.950 . S
C259 C255 1.385 . S
C259 C258 1.374 . S
C260 C257 1.499 . S
C260 C261 1.373 . S
C260 C262 1.389 . S
C261 H240 0.950 . S
C261 C260 1.373 . S
C261 C277 1.377 . S
C262 C260 1.389 . S
C262 C263 1.524 . S
C262 C276 1.377 . S
C263 C262 1.524 . S
C263 C264 1.397 . S
C263 C268 1.363 . S
C264 H241 0.950 . S
C264 C263 1.397 . S
C264 C265 1.334 . S
C265 H242 0.950 . S
C265 C264 1.334 . S
C265 C266 1.287 . S
C266 C265 1.287 . S
C266 C267 1.524 . S
C266 H285 0.913 . S
C267 H243 0.950 . S
C267 C266 1.524 . S
C267 C268 1.415 . S
C268 H244 0.950 . S
C268 C263 1.363 . S
C268 C267 1.415 . S
C269 H245 0.951 . S
C269 C270 1.366 . S
C269 C271 1.388 . S
C270 C269 1.366 . S
C270 C274 1.385 . S
C271 H246 0.951 . S
C271 C269 1.388 . S
C271 C272 1.366 . S
C272 C271 1.366 . S
C272 C273 1.414 . S
C272 C275 1.499 . S
C273 H247 0.950 . S
C273 C272 1.414 . S
C273 C274 1.374 . S
C274 H248 0.950 . S
C274 C270 1.385 . S
C274 C273 1.374 . S
C275 C272 1.499 . S
C275 C276 1.373 . S
C275 C277 1.389 . S
C276 H249 0.950 . S
C276 C262 1.377 . S
C276 C275 1.373 . S
C277 C261 1.377 . S
C277 C275 1.389 . S
C277 C278 1.524 . S
C278 C277 1.524 . S
C278 C279 1.397 . S
C278 C283 1.363 . S
C279 H250 0.950 . S
C279 C278 1.397 . S
C279 C280 1.334 . S
C280 H251 0.950 . S
C280 C279 1.334 . S
C280 C281 1.287 . S
C281 C280 1.287 . S
C281 C282 1.524 . S
C281 H284 0.999 . S
C282 H252 0.950 . S
C282 C281 1.524 . S
C282 C283 1.415 . S
C283 H253 0.950 . S
C283 C278 1.363 . S
C283 C282 1.415 . S
H284 C281 0.999 . S
H285 C266 0.913 . S
H286 C304 0.951 . S
H287 C306 0.951 . S
H288 C308 0.950 . S
H289 C309 0.950 . S
H290 C311 0.950 . S
H291 C314 0.950 . S
H292 C315 0.950 . S
H293 C317 0.950 . S
H294 C318 0.950 . S
H295 C319 0.951 . S
H296 C321 0.951 . S
H297 C323 0.950 . S
H298 C324 0.950 . S
H299 C326 0.950 . S
H300 C329 0.950 . S
H301 C330 0.950 . S
H302 C332 0.950 . S
H303 C333 0.950 . S
C304 H286 0.951 . S
C304 C305 1.366 . S
C304 C306 1.388 . S
C305 C304 1.366 . S
C305 C309 1.385 . S
C306 H287 0.951 . S
C306 C304 1.388 . S
C306 C307 1.366 . S
C307 C306 1.366 . S
C307 C308 1.414 . S
C307 C310 1.499 . S
C308 H288 0.950 . S
C308 C307 1.414 . S
C308 C309 1.374 . S
C309 H289 0.950 . S
C309 C305 1.385 . S
C309 C308 1.374 . S
C310 C307 1.499 . S
C310 C311 1.373 . S
C310 C312 1.389 . S
C311 H290 0.950 . S
C311 C310 1.373 . S
C311 C327 1.377 . S
C312 C310 1.389 . S
C312 C313 1.524 . S
C312 C326 1.377 . S
C313 C312 1.524 . S
C313 C314 1.397 . S
C313 C318 1.363 . S
C314 H291 0.950 . S
C314 C313 1.397 . S
C314 C315 1.334 . S
C315 H292 0.950 . S
C315 C314 1.334 . S
C315 C316 1.287 . S
C316 C315 1.287 . S
C316 C317 1.524 . S
C316 H335 0.913 . S
C317 H293 0.950 . S
C317 C316 1.524 . S
C317 C318 1.415 . S
C318 H294 0.950 . S
C318 C313 1.363 . S
C318 C317 1.415 . S
C319 H295 0.951 . S
C319 C320 1.366 . S
C319 C321 1.388 . S
C320 C319 1.366 . S
C320 C324 1.385 . S
C321 H296 0.951 . S
C321 C319 1.388 . S
C321 C322 1.366 . S
C322 C321 1.366 . S
C322 C323 1.414 . S
C322 C325 1.499 . S
C323 H297 0.950 . S
C323 C322 1.414 . S
C323 C324 1.374 . S
C324 H298 0.950 . S
C324 C320 1.385 . S
C324 C323 1.374 . S
C325 C322 1.499 . S
C325 C326 1.373 . S
C325 C327 1.389 . S
C326 H299 0.950 . S
C326 C312 1.377 . S
C326 C325 1.373 . S
C327 C311 1.377 . S
C327 C325 1.389 . S
C327 C328 1.524 . S
C328 C327 1.524 . S
C328 C329 1.397 . S
C328 C333 1.363 . S
C329 H300 0.950 . S
C329 C328 1.397 . S
C329 C330 1.334 . S
C330 H301 0.950 . S
C330 C329 1.334 . S
C330 C331 1.287 . S
C331 C330 1.287 . S
C331 C332 1.524 . S
C331 H334 0.999 . S
C332 H302 0.950 . S
C332 C331 1.524 . S
C332 C333 1.415 . S
C333 H303 0.950 . S
C333 C328 1.363 . S
C333 C332 1.415 . S
H334 C331 0.999 . S
H335 C316 0.913 . S
H336 C354 0.951 . S
H337 C356 0.951 . S
H338 C358 0.950 . S
H339 C359 0.950 . S
H340 C361 0.950 . S
H341 C364 0.950 . S
H342 C365 0.950 . S
H343 C367 0.950 . S
H344 C368 0.950 . S
H345 C369 0.951 . S
H346 C371 0.951 . S
H347 C373 0.950 . S
H348 C374 0.950 . S
H349 C376 0.950 . S
H350 C379 0.950 . S
H351 C380 0.950 . S
H352 C382 0.950 . S
H353 C383 0.950 . S
C354 H336 0.951 . S
C354 C355 1.366 . S
C354 C356 1.388 . S
C355 C354 1.366 . S
C355 C359 1.385 . S
C356 H337 0.951 . S
C356 C354 1.388 . S
C356 C357 1.366 . S
C357 C356 1.366 . S
C357 C358 1.414 . S
C357 C360 1.499 . S
C358 H338 0.950 . S
C358 C357 1.414 . S
C358 C359 1.374 . S
C359 H339 0.950 . S
C359 C355 1.385 . S
C359 C358 1.374 . S
C360 C357 1.499 . S
C360 C361 1.373 . S
C360 C362 1.389 . S
C361 H340 0.950 . S
C361 C360 1.373 . S
C361 C377 1.377 . S
C362 C360 1.389 . S
C362 C363 1.524 . S
C362 C376 1.377 . S
C363 C362 1.524 . S
C363 C364 1.397 . S
C363 C368 1.363 . S
C364 H341 0.950 . S
C364 C363 1.397 . S
C364 C365 1.334 . S
C365 H342 0.950 . S
C365 C364 1.334 . S
C365 C366 1.287 . S
C366 C365 1.287 . S
C366 C367 1.524 . S
C366 H385 0.913 . S
C367 H343 0.950 . S
C367 C366 1.524 . S
C367 C368 1.415 . S
C368 H344 0.950 . S
C368 C363 1.363 . S
C368 C367 1.415 . S
C369 H345 0.951 . S
C369 C370 1.366 . S
C369 C371 1.388 . S
C370 C369 1.366 . S
C370 C374 1.385 . S
C371 H346 0.951 . S
C371 C369 1.388 . S
C371 C372 1.366 . S
C372 C371 1.366 . S
C372 C373 1.414 . S
C372 C375 1.499 . S
C373 H347 0.950 . S
C373 C372 1.414 . S
C373 C374 1.374 . S
C374 H348 0.950 . S
C374 C370 1.385 . S
C374 C373 1.374 . S
C375 C372 1.499 . S
C375 C376 1.373 . S
C375 C377 1.389 . S
C376 H349 0.950 . S
C376 C362 1.377 . S
C376 C375 1.373 . S
C377 C361 1.377 . S
C377 C375 1.389 . S
C377 C378 1.524 . S
C378 C377 1.524 . S
C378 C379 1.397 . S
C378 C383 1.363 . S
C379 H350 0.950 . S
C379 C378 1.397 . S
C379 C380 1.334 . S
C380 H351 0.950 . S
C380 C379 1.334 . S
C380 C381 1.287 . S
C381 C380 1.287 . S
C381 C382 1.524 . S
C381 H384 0.999 . S
C382 H352 0.950 . S
C382 C381 1.524 . S
C382 C383 1.415 . S
C383 H353 0.950 . S
C383 C378 1.363 . S
C383 C382 1.415 . S
H384 C381 0.999 . S
H385 C366 0.913 . S
H386 C404 0.951 . S
H387 C406 0.951 . S
H388 C408 0.950 . S
H389 C409 0.950 . S
H390 C411 0.950 . S
H391 C414 0.950 . S
H392 C415 0.950 . S
H393 C417 0.950 . S
H394 C418 0.950 . S
H395 C419 0.951 . S
H396 C421 0.951 . S
H397 C423 0.950 . S
H398 C424 0.950 . S
H399 C426 0.950 . S
H400 C429 0.950 . S
H401 C430 0.950 . S
H402 C432 0.950 . S
H403 C433 0.950 . S
C404 H386 0.951 . S
C404 C405 1.366 . S
C404 C406 1.388 . S
C405 C404 1.366 . S
C405 C409 1.385 . S
C406 H387 0.951 . S
C406 C404 1.388 . S
C406 C407 1.366 . S
C407 C406 1.366 . S
C407 C408 1.414 . S
C407 C410 1.499 . S
C408 H388 0.950 . S
C408 C407 1.414 . S
C408 C409 1.374 . S
C409 H389 0.950 . S
C409 C405 1.385 . S
C409 C408 1.374 . S
C410 C407 1.499 . S
C410 C411 1.373 . S
C410 C412 1.389 . S
C411 H390 0.950 . S
C411 C410 1.373 . S
C411 C427 1.377 . S
C412 C410 1.389 . S
C412 C413 1.524 . S
C412 C426 1.377 . S
C413 C412 1.524 . S
C413 C414 1.397 . S
C413 C418 1.363 . S
C414 H391 0.950 . S
C414 C413 1.397 . S
C414 C415 1.334 . S
C415 H392 0.950 . S
C415 C414 1.334 . S
C415 C416 1.287 . S
C416 C415 1.287 . S
C416 C417 1.524 . S
C416 H435 0.913 . S
C417 H393 0.950 . S
C417 C416 1.524 . S
C417 C418 1.415 . S
C418 H394 0.950 . S
C418 C413 1.363 . S
C418 C417 1.415 . S
C419 H395 0.951 . S
C419 C420 1.366 . S
C419 C421 1.388 . S
C420 C419 1.366 . S
C420 C424 1.385 . S
C421 H396 0.951 . S
C421 C419 1.388 . S
C421 C422 1.366 . S
C422 C421 1.366 . S
C422 C423 1.414 . S
C422 C425 1.499 . S
C423 H397 0.950 . S
C423 C422 1.414 . S
C423 C424 1.374 . S
C424 H398 0.950 . S
C424 C420 1.385 . S
C424 C423 1.374 . S
C425 C422 1.499 . S
C425 C426 1.373 . S
C425 C427 1.389 . S
C426 H399 0.950 . S
C426 C412 1.377 . S
C426 C425 1.373 . S
C427 C411 1.377 . S
C427 C425 1.389 . S
C427 C428 1.524 . S
C428 C427 1.524 . S
C428 C429 1.397 . S
C428 C433 1.363 . S
C429 H400 0.950 . S
C429 C428 1.397 . S
C429 C430 1.334 . S
C430 H401 0.950 . S
C430 C429 1.334 . S
C430 C431 1.287 . S
C431 C430 1.287 . S
C431 C432 1.524 . S
C431 H434 0.999 . S
C432 H402 0.950 . S
C432 C431 1.524 . S
C432 C433 1.415 . S
C433 H403 0.950 . S
C433 C428 1.363 . S
C433 C432 1.415 . S
H434 C431 0.999 . S
H435 C416 0.913 . S
H436 C454 0.951 . S
H437 C456 0.951 . S
H438 C458 0.950 . S
H439 C459 0.950 . S
H440 C461 0.950 . S
H441 C464 0.950 . S
H442 C465 0.950 . S
H443 C467 0.950 . S
H444 C468 0.950 . S
H445 C469 0.951 . S
H446 C471 0.951 . S
H447 C473 0.950 . S
H448 C474 0.950 . S
H449 C476 0.950 . S
H450 C479 0.950 . S
H451 C480 0.950 . S
H452 C482 0.950 . S
H453 C483 0.950 . S
C454 H436 0.951 . S
C454 C455 1.366 . S
C454 C456 1.388 . S
C455 C454 1.366 . S
C455 C459 1.385 . S
C456 H437 0.951 . S
C456 C454 1.388 . S
C456 C457 1.366 . S
C457 C456 1.366 . S
C457 C458 1.414 . S
C457 C460 1.499 . S
C458 H438 0.950 . S
C458 C457 1.414 . S
C458 C459 1.374 . S
C459 H439 0.950 . S
C459 C455 1.385 . S
C459 C458 1.374 . S
C460 C457 1.499 . S
C460 C461 1.373 . S
C460 C462 1.389 . S
C461 H440 0.950 . S
C461 C460 1.373 . S
C461 C477 1.377 . S
C462 C460 1.389 . S
C462 C463 1.524 . S
C462 C476 1.377 . S
C463 C462 1.524 . S
C463 C464 1.397 . S
C463 C468 1.363 . S
C464 H441 0.950 . S
C464 C463 1.397 . S
C464 C465 1.334 . S
C465 H442 0.950 . S
C465 C464 1.334 . S
C465 C466 1.287 . S
C466 C465 1.287 . S
C466 C467 1.524 . S
C466 H485 0.913 . S
C467 H443 0.950 . S
C467 C466 1.524 . S
C467 C468 1.415 . S
C468 H444 0.950 . S
C468 C463 1.363 . S
C468 C467 1.415 . S
C469 H445 0.951 . S
C469 C470 1.366 . S
C469 C471 1.388 . S
C470 C469 1.366 . S
C470 C474 1.385 . S
C471 H446 0.951 . S
C471 C469 1.388 . S
C471 C472 1.366 . S
C472 C471 1.366 . S
C472 C473 1.414 . S
C472 C475 1.499 . S
C473 H447 0.950 . S
C473 C472 1.414 . S
C473 C474 1.374 . S
C474 H448 0.950 . S
C474 C470 1.385 . S
C474 C473 1.374 . S
C475 C472 1.499 . S
C475 C476 1.373 . S
C475 C477 1.389 . S
C476 H449 0.950 . S
C476 C462 1.377 . S
C476 C475 1.373 . S
C477 C461 1.377 . S
C477 C475 1.389 . S
C477 C478 1.524 . S
C478 C477 1.524 . S
C478 C479 1.397 . S
C478 C483 1.363 . S
C479 H450 0.950 . S
C479 C478 1.397 . S
C479 C480 1.334 . S
C480 H451 0.950 . S
C480 C479 1.334 . S
C480 C481 1.287 . S
C481 C480 1.287 . S
C481 C482 1.524 . S
C481 H484 0.999 . S
C482 H452 0.950 . S
C482 C481 1.524 . S
C482 C483 1.415 . S
C483 H453 0.950 . S
C483 C478 1.363 . S
C483 C482 1.415 . S
H484 C481 0.999 . S
H485 C466 0.913 . S
H486 C504 0.951 . S
H487 C506 0.951 . S
H488 C508 0.950 . S
H489 C509 0.975 . S
H490 C511 0.950 . S
H491 C514 0.950 . S
H492 C515 0.950 . S
H493 C517 0.950 . S
H494 C518 0.950 . S
H495 C519 0.951 . S
H496 C521 0.951 . S
H497 C523 0.950 . S
H498 C524 0.950 . S
H499 C526 0.950 . S
H500 C529 0.950 . S
H501 C530 0.950 . S
H502 C532 0.950 . S
H503 C533 0.950 . S
C504 H486 0.951 . S
C504 C505 1.366 . S
C504 C506 1.388 . S
C505 C504 1.366 . S
C505 C509 1.385 . S
C506 H487 0.951 . S
C506 C504 1.388 . S
C506 C507 1.366 . S
C507 C506 1.366 . S
C507 C508 1.414 . S
C507 C510 1.499 . S
C508 H488 0.950 . S
C508 C507 1.414 . S
C508 C509 1.374 . S
C509 H489 0.975 . S
C509 C505 1.385 . S
C509 C508 1.374 . S
C510 C507 1.499 . S
C510 C511 1.373 . S
C510 C512 1.389 . S
C511 H490 0.950 . S
C511 C510 1.373 . S
C511 C527 1.377 . S
C512 C510 1.389 . S
C512 C513 1.524 . S
C512 C526 1.377 . S
C513 C512 1.524 . S
C513 C514 1.397 . S
C513 C518 1.363 . S
C514 H491 0.950 . S
C514 C513 1.397 . S
C514 C515 1.334 . S
C515 H492 0.950 . S
C515 C514 1.334 . S
C515 C516 1.287 . S
C516 C515 1.287 . S
C516 C517 1.524 . S
C516 H535 0.913 . S
C517 H493 0.950 . S
C517 C516 1.524 . S
C517 C518 1.415 . S
C518 H494 0.950 . S
C518 C513 1.363 . S
C518 C517 1.415 . S
C519 H495 0.951 . S
C519 C520 1.366 . S
C519 C521 1.388 . S
C520 C519 1.366 . S
C520 C524 1.385 . S
C521 H496 0.951 . S
C521 C519 1.388 . S
C521 C522 1.366 . S
C522 C521 1.366 . S
C522 C523 1.414 . S
C522 C525 1.499 . S
C523 H497 0.950 . S
C523 C522 1.414 . S
C523 C524 1.374 . S
C524 H498 0.950 . S
C524 C520 1.385 . S
C524 C523 1.374 . S
C525 C522 1.499 . S
C525 C526 1.373 . S
C525 C527 1.389 . S
C526 H499 0.950 . S
C526 C512 1.377 . S
C526 C525 1.373 . S
C527 C511 1.377 . S
C527 C525 1.389 . S
C527 C528 1.524 . S
C528 C527 1.524 . S
C528 C529 1.397 . S
C528 C533 1.363 . S
C529 H500 0.950 . S
C529 C528 1.397 . S
C529 C530 1.334 . S
C530 H501 0.950 . S
C530 C529 1.334 . S
C530 C531 1.287 . S
C531 C530 1.287 . S
C531 C532 1.524 . S
C531 H534 0.999 . S
C532 H502 0.950 . S
C532 C531 1.524 . S
C532 C533 1.415 . S
C533 H503 0.950 . S
C533 C528 1.363 . S
C533 C532 1.415 . S
H534 C531 0.999 . S
H535 C516 0.913 . S
H536 C554 0.951 . S
H537 C556 0.951 . S
H538 C558 0.950 . S
H539 C559 0.950 . S
H540 C561 0.950 . S
H541 C564 0.950 . S
H542 C565 0.950 . S
H543 C567 0.950 . S
H544 C568 0.950 . S
H545 C569 0.951 . S
H546 C571 0.951 . S
H547 C573 0.950 . S
H548 C574 0.950 . S
H549 C576 0.950 . S
H550 C579 0.950 . S
H551 C580 0.950 . S
H552 C582 0.950 . S
H553 C583 0.950 . S
C554 H536 0.951 . S
C554 C555 1.366 . S
C554 C556 1.388 . S
C555 C554 1.366 . S
C555 C559 1.385 . S
C556 H537 0.951 . S
C556 C554 1.388 . S
C556 C557 1.366 . S
C557 C556 1.366 . S
C557 C558 1.414 . S
C557 C560 1.499 . S
C558 H538 0.950 . S
C558 C557 1.414 . S
C558 C559 1.374 . S
C559 H539 0.950 . S
C559 C555 1.385 . S
C559 C558 1.374 . S
C560 C557 1.499 . S
C560 C561 1.373 . S
C560 C562 1.389 . S
C561 H540 0.950 . S
C561 C560 1.373 . S
C561 C577 1.377 . S
C562 C560 1.389 . S
C562 C563 1.524 . S
C562 C576 1.377 . S
C563 C562 1.524 . S
C563 C564 1.397 . S
C563 C568 1.363 . S
C564 H541 0.950 . S
C564 C563 1.397 . S
C564 C565 1.334 . S
C565 H542 0.950 . S
C565 C564 1.334 . S
C565 C566 1.287 . S
C566 C565 1.287 . S
C566 C567 1.524 . S
C566 H585 0.913 . S
C567 H543 0.950 . S
C567 C566 1.524 . S
C567 C568 1.415 . S
C568 H544 0.950 . S
C568 C563 1.363 . S
C568 C567 1.415 . S
C569 H545 0.951 . S
C569 C570 1.366 . S
C569 C571 1.388 . S
C570 C569 1.366 . S
C570 C574 1.385 . S
C571 H546 0.951 . S
C571 C569 1.388 . S
C571 C572 1.366 . S
C572 C571 1.366 . S
C572 C573 1.414 . S
C572 C575 1.499 . S
C573 H547 0.950 . S
C573 C572 1.414 . S
C573 C574 1.374 . S
C574 H548 0.950 . S
C574 C570 1.385 . S
C574 C573 1.374 . S
C575 C572 1.499 . S
C575 C576 1.373 . S
C575 C577 1.389 . S
C576 H549 0.950 . S
C576 C562 1.377 . S
C576 C575 1.373 . S
C577 C561 1.377 . S
C577 C575 1.389 . S
C577 C578 1.524 . S
C578 C577 1.524 . S
C578 C579 1.397 . S
C578 C583 1.363 . S
C579 H550 0.950 . S
C579 C578 1.397 . S
C579 C580 1.334 . S
C580 H551 0.950 . S
C580 C579 1.334 . S
C580 C581 1.287 . S
C581 C580 1.287 . S
C581 C582 1.524 . S
C581 H584 0.999 . S
C582 H552 0.950 . S
C582 C581 1.524 . S
C582 C583 1.415 . S
C583 H553 0.950 . S
C583 C578 1.363 . S
C583 C582 1.415 . S
H584 C581 0.999 . S
H585 C566 0.913 . S
H586 C604 0.951 . S
H587 C606 0.951 . S
H588 C608 0.950 . S
H589 C609 0.950 . S
H590 C611 0.950 . S
H591 C614 0.950 . S
H592 C615 0.950 1_655 S
H593 C617 0.950 . S
H594 C618 0.950 . S
H595 C619 0.951 . S
H596 C621 0.951 . S
H597 C623 0.950 . S
H598 C624 0.950 . S
H599 C626 0.950 . S
H600 C629 0.950 . S
H601 C630 0.950 . S
H602 C632 0.950 . S
H603 C633 0.950 . S
C604 H586 0.951 . S
C604 C605 1.366 . S
C604 C606 1.388 . S
C605 C604 1.366 . S
C605 C609 1.385 . S
C606 H587 0.951 . S
C606 C604 1.388 . S
C606 C607 1.366 . S
C607 C606 1.366 . S
C607 C608 1.414 . S
C607 C610 1.499 . S
C608 H588 0.950 . S
C608 C607 1.414 . S
C608 C609 1.374 . S
C609 H589 0.950 . S
C609 C605 1.385 . S
C609 C608 1.374 . S
C610 C607 1.499 . S
C610 C611 1.373 . S
C610 C612 1.389 . S
C611 H590 0.950 . S
C611 C610 1.373 . S
C611 C627 1.377 . S
C612 C610 1.389 . S
C612 C613 1.524 . S
C612 C626 1.377 . S
C613 C612 1.524 . S
C613 C614 1.397 . S
C613 C618 1.363 . S
C614 H591 0.950 . S
C614 C613 1.397 . S
C614 C615 1.334 . S
C615 H592 0.950 1_455 S
C615 C614 1.334 . S
C615 C616 1.287 . S
C616 C615 1.287 . S
C616 C617 1.524 . S
C616 H635 0.913 1_455 S
C617 H593 0.950 . S
C617 C616 1.524 . S
C617 C618 1.415 . S
C618 H594 0.950 . S
C618 C613 1.363 . S
C618 C617 1.415 . S
C619 H595 0.951 . S
C619 C620 1.366 . S
C619 C621 1.388 . S
C620 C619 1.366 . S
C620 C624 1.385 . S
C621 H596 0.951 . S
C621 C619 1.388 . S
C621 C622 1.366 . S
C622 C621 1.366 . S
C622 C623 1.414 . S
C622 C625 1.499 . S
C623 H597 0.950 . S
C623 C622 1.414 . S
C623 C624 1.374 . S
C624 H598 0.950 . S
C624 C620 1.385 . S
C624 C623 1.374 . S
C625 C622 1.499 . S
C625 C626 1.373 . S
C625 C627 1.389 . S
C626 H599 0.950 . S
C626 C612 1.377 . S
C626 C625 1.373 . S
C627 C611 1.377 . S
C627 C625 1.389 . S
C627 C628 1.524 . S
C628 C627 1.524 . S
C628 C629 1.397 . S
C628 C633 1.363 . S
C629 H600 0.950 . S
C629 C628 1.397 . S
C629 C630 1.334 . S
C630 H601 0.950 . S
C630 C629 1.334 . S
C630 C631 1.287 . S
C631 C630 1.287 . S
C631 C632 1.524 . S
C631 H634 0.999 . S
C632 H602 0.950 . S
C632 C631 1.524 . S
C632 C633 1.415 . S
C633 H603 0.950 . S
C633 C628 1.363 . S
C633 C632 1.415 . S
H634 C631 0.999 . S
H635 C616 0.913 1_655 S
H636 C654 0.951 . S
H637 C656 0.951 . S
H638 C658 0.950 . S
H639 C659 0.950 . S
H640 C661 0.950 . S
H641 C664 0.950 . S
H642 C665 0.950 . S
H643 C667 0.950 1_565 S
H644 C668 0.950 . S
H645 C669 0.951 . S
H646 C671 0.951 . S
H647 C673 0.950 . S
H648 C674 0.950 . S
H649 C676 0.950 . S
H650 C679 0.950 . S
H651 C680 0.950 . S
H652 C682 0.950 . S
H653 C683 0.950 . S
C654 H636 0.951 . S
C654 C655 1.366 . S
C654 C656 1.388 . S
C655 C654 1.366 . S
C655 C659 1.385 . S
C656 H637 0.951 . S
C656 C654 1.388 . S
C656 C657 1.366 . S
C657 C656 1.366 . S
C657 C658 1.414 . S
C657 C660 1.499 . S
C658 H638 0.950 . S
C658 C657 1.414 . S
C658 C659 1.374 . S
C659 H639 0.950 . S
C659 C655 1.385 . S
C659 C658 1.374 . S
C660 C657 1.499 . S
C660 C661 1.373 . S
C660 C662 1.389 . S
C661 H640 0.950 . S
C661 C660 1.373 . S
C661 C677 1.377 . S
C662 C660 1.389 . S
C662 C663 1.524 . S
C662 C676 1.377 . S
C663 C662 1.524 . S
C663 C664 1.397 . S
C663 C668 1.363 . S
C664 H641 0.950 . S
C664 C663 1.397 . S
C664 C665 1.334 . S
C665 H642 0.950 . S
C665 C664 1.334 . S
C665 C666 1.287 . S
C666 C665 1.287 . S
C666 C667 1.524 . S
C666 H685 0.913 1_545 S
C667 H643 0.950 1_545 S
C667 C666 1.524 . S
C667 C668 1.415 . S
C668 H644 0.950 . S
C668 C663 1.363 . S
C668 C667 1.415 . S
C669 H645 0.951 . S
C669 C670 1.366 . S
C669 C671 1.388 . S
C670 C669 1.366 . S
C670 C674 1.385 . S
C671 H646 0.951 . S
C671 C669 1.388 . S
C671 C672 1.366 . S
C672 C671 1.366 . S
C672 C673 1.414 . S
C672 C675 1.499 . S
C673 H647 0.950 . S
C673 C672 1.414 . S
C673 C674 1.374 . S
C674 H648 0.950 . S
C674 C670 1.385 . S
C674 C673 1.374 . S
C675 C672 1.499 . S
C675 C676 1.373 . S
C675 C677 1.389 . S
C676 H649 0.950 . S
C676 C662 1.377 . S
C676 C675 1.373 . S
C677 C661 1.377 . S
C677 C675 1.389 . S
C677 C678 1.524 . S
C678 C677 1.524 . S
C678 C679 1.397 . S
C678 C683 1.363 . S
C679 H650 0.950 . S
C679 C678 1.397 . S
C679 C680 1.334 . S
C680 H651 0.950 . S
C680 C679 1.334 . S
C680 C681 1.287 . S
C681 C680 1.287 . S
C681 C682 1.524 . S
C681 H684 0.999 . S
C682 H652 0.950 . S
C682 C681 1.524 . S
C682 C683 1.415 . S
C683 H653 0.950 . S
C683 C678 1.363 . S
C683 C682 1.415 . S
H684 C681 0.999 . S
H685 C666 0.913 1_565 S
H686 C704 0.951 . S
H687 C706 0.951 . S
H688 C708 0.950 . S
H689 C709 0.950 . S
H690 C711 0.950 . S
H691 C714 0.950 . S
H692 C715 0.950 . S
H693 C717 0.950 . S
H694 C718 0.950 . S
H695 C719 0.951 . S
H696 C721 0.951 . S
H697 C723 0.950 . S
H698 C724 0.950 . S
H699 C726 0.950 . S
H700 C729 0.950 . S
H701 C730 0.950 . S
H702 C732 0.950 . S
H703 C733 0.950 . S
C704 H686 0.951 . S
C704 C705 1.366 . S
C704 C706 1.388 . S
C705 C704 1.366 . S
C705 C709 1.385 . S
C706 H687 0.951 . S
C706 C704 1.388 . S
C706 C707 1.366 . S
C707 C706 1.366 . S
C707 C708 1.414 . S
C707 C710 1.499 . S
C708 H688 0.950 . S
C708 C707 1.414 . S
C708 C709 1.374 . S
C709 H689 0.950 . S
C709 C705 1.385 . S
C709 C708 1.374 . S
C710 C707 1.499 . S
C710 C711 1.373 . S
C710 C712 1.389 . S
C711 H690 0.950 . S
C711 C710 1.373 . S
C711 C727 1.377 . S
C712 C710 1.389 . S
C712 C713 1.524 . S
C712 C726 1.377 . S
C713 C712 1.524 . S
C713 C714 1.397 . S
C713 C718 1.363 . S
C714 H691 0.950 . S
C714 C713 1.397 . S
C714 C715 1.334 . S
C715 H692 0.950 . S
C715 C714 1.334 . S
C715 C716 1.287 . S
C716 C715 1.287 . S
C716 C717 1.524 . S
C716 H735 0.913 . S
C717 H693 0.950 . S
C717 C716 1.524 . S
C717 C718 1.415 . S
C718 H694 0.950 . S
C718 C713 1.363 . S
C718 C717 1.415 . S
C719 H695 0.951 . S
C719 C720 1.366 . S
C719 C721 1.388 . S
C720 C719 1.366 . S
C720 C724 1.385 . S
C721 H696 0.951 . S
C721 C719 1.388 . S
C721 C722 1.366 . S
C722 C721 1.366 . S
C722 C723 1.414 . S
C722 C725 1.499 . S
C723 H697 0.950 . S
C723 C722 1.414 . S
C723 C724 1.374 . S
C724 H698 0.950 . S
C724 C720 1.385 . S
C724 C723 1.374 . S
C725 C722 1.499 . S
C725 C726 1.373 . S
C725 C727 1.389 . S
C726 H699 0.950 . S
C726 C712 1.377 . S
C726 C725 1.373 . S
C727 C711 1.377 . S
C727 C725 1.389 . S
C727 C728 1.524 . S
C728 C727 1.524 . S
C728 C729 1.397 . S
C728 C733 1.363 . S
C729 H700 0.950 . S
C729 C728 1.397 . S
C729 C730 1.334 . S
C730 H701 0.950 . S
C730 C729 1.334 . S
C730 C731 1.287 . S
C731 C730 1.287 . S
C731 C732 1.524 . S
C731 H734 0.999 . S
C732 H702 0.950 . S
C732 C731 1.524 . S
C732 C733 1.415 . S
C733 H703 0.950 . S
C733 C728 1.363 . S
C733 C732 1.415 . S
H734 C731 0.999 . S
H735 C716 0.913 . S
H736 C754 0.951 . S
H737 C756 0.951 . S
H738 C758 0.950 . S
H739 C759 0.950 . S
H740 C761 0.950 . S
H741 C764 0.950 . S
H742 C765 0.950 . S
H743 C767 0.950 . S
H744 C768 0.950 . S
H745 C769 0.951 . S
H746 C771 0.951 . S
H747 C773 0.950 . S
H748 C774 0.950 . S
H749 C776 0.950 . S
H750 C779 0.950 . S
H751 C780 0.950 . S
H752 C782 0.950 . S
H753 C783 0.950 . S
C754 H736 0.951 . S
C754 C755 1.366 . S
C754 C756 1.388 . S
C755 C754 1.366 . S
C755 C759 1.385 . S
C756 H737 0.951 . S
C756 C754 1.388 . S
C756 C757 1.366 . S
C757 C756 1.366 . S
C757 C758 1.414 . S
C757 C760 1.499 . S
C758 H738 0.950 . S
C758 C757 1.414 . S
C758 C759 1.374 . S
C759 H739 0.950 . S
C759 C755 1.385 . S
C759 C758 1.374 . S
C760 C757 1.499 . S
C760 C761 1.373 . S
C760 C762 1.389 . S
C761 H740 0.950 . S
C761 C760 1.373 . S
C761 C777 1.377 . S
C762 C760 1.389 . S
C762 C763 1.524 . S
C762 C776 1.377 . S
C763 C762 1.524 . S
C763 C764 1.397 . S
C763 C768 1.363 . S
C764 H741 0.950 . S
C764 C763 1.397 . S
C764 C765 1.334 . S
C765 H742 0.950 . S
C765 C764 1.334 . S
C765 C766 1.287 . S
C766 C765 1.287 . S
C766 C767 1.524 . S
C766 H785 0.913 . S
C767 H743 0.950 . S
C767 C766 1.524 . S
C767 C768 1.415 . S
C768 H744 0.950 . S
C768 C763 1.363 . S
C768 C767 1.415 . S
C769 H745 0.951 . S
C769 C770 1.366 . S
C769 C771 1.388 . S
C770 C769 1.366 . S
C770 C774 1.385 . S
C771 H746 0.951 . S
C771 C769 1.388 . S
C771 C772 1.366 . S
C772 C771 1.366 . S
C772 C773 1.414 . S
C772 C775 1.499 . S
C773 H747 0.950 . S
C773 C772 1.414 . S
C773 C774 1.374 . S
C774 H748 0.950 . S
C774 C770 1.385 . S
C774 C773 1.374 . S
C775 C772 1.499 . S
C775 C776 1.373 . S
C775 C777 1.389 . S
C776 H749 0.950 . S
C776 C762 1.377 . S
C776 C775 1.373 . S
C777 C761 1.377 . S
C777 C775 1.389 . S
C777 C778 1.524 . S
C778 C777 1.524 . S
C778 C779 1.397 . S
C778 C783 1.363 . S
C779 H750 0.950 . S
C779 C778 1.397 . S
C779 C780 1.334 . S
C780 H751 0.950 . S
C780 C779 1.334 . S
C780 C781 1.287 . S
C781 C780 1.287 . S
C781 C782 1.524 . S
C781 H784 0.999 . S
C782 H752 0.950 . S
C782 C781 1.524 . S
C782 C783 1.415 . S
C783 H753 0.950 . S
C783 C778 1.363 . S
C783 C782 1.415 . S
H784 C781 0.999 . S
H785 C766 0.913 . S
H786 C804 0.951 . S
H787 C806 0.951 . S
H788 C808 0.950 . S
H789 C809 0.950 . S
H790 C811 0.950 . S
H791 C814 0.950 . S
H792 C815 0.962 . S
H793 C817 0.950 . S
H794 C818 0.950 . S
H795 C819 0.951 . S
H796 C821 0.951 . S
H797 C823 0.950 . S
H798 C824 0.950 . S
H799 C826 0.950 . S
H800 C829 0.950 . S
H801 C830 0.950 . S
H802 C832 0.950 . S
H803 C833 0.950 . S
C804 H786 0.951 . S
C804 C805 1.366 . S
C804 C806 1.388 . S
C805 C804 1.366 . S
C805 C809 1.385 . S
C806 H787 0.951 . S
C806 C804 1.388 . S
C806 C807 1.366 . S
C807 C806 1.366 . S
C807 C808 1.414 . S
C807 C810 1.499 . S
C808 H788 0.950 . S
C808 C807 1.414 . S
C808 C809 1.374 . S
C809 H789 0.950 . S
C809 C805 1.385 . S
C809 C808 1.374 . S
C810 C807 1.499 . S
C810 C811 1.373 . S
C810 C812 1.389 . S
C811 H790 0.950 . S
C811 C810 1.373 . S
C811 C827 1.377 . S
C812 C810 1.389 . S
C812 C813 1.524 . S
C812 C826 1.377 . S
C813 C812 1.524 . S
C813 C814 1.397 . S
C813 C818 1.363 . S
C814 H791 0.950 . S
C814 C813 1.397 . S
C814 C815 1.300 1_655 S
C815 H792 0.962 . S
C815 C814 1.300 1_455 S
C815 C816 1.310 . S
C816 C815 1.310 . S
C816 C817 1.524 . S
C816 H835 0.913 . S
C817 H793 0.950 . S
C817 C816 1.524 . S
C817 C818 1.415 1_455 S
C818 H794 0.950 . S
C818 C813 1.363 . S
C818 C817 1.415 1_655 S
C819 H795 0.951 . S
C819 C820 1.366 . S
C819 C821 1.388 . S
C820 C819 1.366 . S
C820 C824 1.385 . S
C821 H796 0.951 . S
C821 C819 1.388 . S
C821 C822 1.366 . S
C822 C821 1.366 . S
C822 C823 1.414 . S
C822 C825 1.499 . S
C823 H797 0.950 . S
C823 C822 1.414 . S
C823 C824 1.374 . S
C824 H798 0.950 . S
C824 C820 1.385 . S
C824 C823 1.374 . S
C825 C822 1.499 . S
C825 C826 1.373 . S
C825 C827 1.389 . S
C826 H799 0.950 . S
C826 C812 1.377 . S
C826 C825 1.373 . S
C827 C811 1.377 . S
C827 C825 1.389 . S
C827 C828 1.524 . S
C828 C827 1.524 . S
C828 C829 1.397 . S
C828 C833 1.363 . S
C829 H800 0.950 . S
C829 C828 1.397 . S
C829 C830 1.334 . S
C830 H801 0.950 . S
C830 C829 1.334 . S
C830 C831 1.287 . S
C831 C830 1.287 . S
C831 C832 1.524 . S
C831 H834 0.999 . S
C832 H802 0.950 . S
C832 C831 1.524 . S
C832 C833 1.415 . S
C833 H803 0.950 . S
C833 C828 1.363 . S
C833 C832 1.415 . S
H834 C831 0.999 . S
H835 C816 0.913 . S
H836 C854 0.951 . S
H837 C856 0.951 . S
H838 C858 0.950 . S
H839 C859 0.950 . S
H840 C861 0.950 . S
H841 C864 0.950 . S
H842 C865 0.950 . S
H843 C867 0.950 . S
H844 C868 0.950 . S
H845 C869 0.951 . S
H846 C871 0.951 . S
H847 C873 0.950 . S
H848 C874 0.950 . S
H849 C876 0.950 . S
H850 C879 0.950 . S
H851 C880 0.950 . S
H852 C882 0.950 . S
H853 C883 0.950 . S
C854 H836 0.951 . S
C854 C855 1.366 . S
C854 C856 1.388 . S
C855 C854 1.366 . S
C855 C859 1.385 . S
C856 H837 0.951 . S
C856 C854 1.388 . S
C856 C857 1.366 . S
C857 C856 1.366 . S
C857 C858 1.414 . S
C857 C860 1.499 . S
C858 H838 0.950 . S
C858 C857 1.414 . S
C858 C859 1.374 . S
C859 H839 0.950 . S
C859 C855 1.385 . S
C859 C858 1.374 . S
C860 C857 1.499 . S
C860 C861 1.373 . S
C860 C862 1.389 . S
C861 H840 0.950 . S
C861 C860 1.373 . S
C861 C877 1.377 . S
C862 C860 1.389 . S
C862 C863 1.524 . S
C862 C876 1.377 . S
C863 C862 1.524 . S
C863 C864 1.397 . S
C863 C868 1.363 . S
C864 H841 0.950 . S
C864 C863 1.397 . S
C864 C865 1.334 . S
C865 H842 0.950 . S
C865 C864 1.334 . S
C865 C866 1.287 . S
C866 C865 1.287 . S
C866 C867 1.524 . S
C866 H885 0.913 . S
C867 H843 0.950 . S
C867 C866 1.524 . S
C867 C868 1.415 . S
C868 H844 0.950 . S
C868 C863 1.363 . S
C868 C867 1.415 . S
C869 H845 0.951 . S
C869 C870 1.366 . S
C869 C871 1.388 . S
C870 C869 1.366 . S
C870 C874 1.385 . S
C871 H846 0.951 . S
C871 C869 1.388 . S
C871 C872 1.366 . S
C872 C871 1.366 . S
C872 C873 1.414 . S
C872 C875 1.499 . S
C873 H847 0.950 . S
C873 C872 1.414 . S
C873 C874 1.374 . S
C874 H848 0.950 . S
C874 C870 1.385 . S
C874 C873 1.374 . S
C875 C872 1.499 . S
C875 C876 1.373 . S
C875 C877 1.389 . S
C876 H849 0.950 . S
C876 C862 1.377 . S
C876 C875 1.373 . S
C877 C861 1.377 . S
C877 C875 1.389 . S
C877 C878 1.524 . S
C878 C877 1.524 . S
C878 C879 1.397 . S
C878 C883 1.363 . S
C879 H850 0.950 . S
C879 C878 1.397 . S
C879 C880 1.334 . S
C880 H851 0.950 . S
C880 C879 1.334 . S
C880 C881 1.287 . S
C881 C880 1.287 . S
C881 C882 1.524 . S
C881 H884 0.999 . S
C882 H852 0.950 . S
C882 C881 1.524 . S
C882 C883 1.415 . S
C883 H853 0.950 . S
C883 C878 1.363 . S
C883 C882 1.415 . S
H884 C881 0.999 . S
H885 C866 0.913 . S
H886 C904 0.951 . S
H887 C906 0.951 . S
H888 C908 0.950 . S
H889 C909 0.950 . S
H890 C911 0.950 . S
H891 C914 0.950 . S
H892 C915 0.950 . S
H893 C917 0.950 . S
H894 C918 0.950 . S
H895 C919 0.951 . S
H896 C921 0.951 . S
H897 C923 0.950 . S
H898 C924 0.950 . S
H899 C926 0.950 . S
H900 C929 0.950 . S
H901 C930 0.950 . S
H902 C932 0.950 . S
H903 C933 0.950 . S
C904 H886 0.951 . S
C904 C905 1.366 . S
C904 C906 1.388 . S
C905 C904 1.366 . S
C905 C909 1.385 . S
C906 H887 0.951 . S
C906 C904 1.388 . S
C906 C907 1.366 . S
C907 C906 1.366 . S
C907 C908 1.414 . S
C907 C910 1.499 . S
C908 H888 0.950 . S
C908 C907 1.414 . S
C908 C909 1.374 . S
C909 H889 0.950 . S
C909 C905 1.385 . S
C909 C908 1.374 . S
C910 C907 1.499 . S
C910 C911 1.373 . S
C910 C912 1.389 . S
C911 H890 0.950 . S
C911 C910 1.373 . S
C911 C927 1.377 . S
C912 C910 1.389 . S
C912 C913 1.524 . S
C912 C926 1.377 . S
C913 C912 1.524 . S
C913 C914 1.397 . S
C913 C918 1.363 . S
C914 H891 0.950 . S
C914 C913 1.397 . S
C914 C915 1.334 . S
C915 H892 0.950 . S
C915 C914 1.334 . S
C915 C916 1.287 . S
C916 C915 1.287 . S
C916 C917 1.524 . S
C916 H935 0.913 . S
C917 H893 0.950 . S
C917 C916 1.524 . S
C917 C918 1.415 . S
C918 H894 0.950 . S
C918 C913 1.363 . S
C918 C917 1.415 . S
C919 H895 0.951 . S
C919 C920 1.366 . S
C919 C921 1.388 . S
C920 C919 1.366 . S
C920 C924 1.385 . S
C921 H896 0.951 . S
C921 C919 1.388 . S
C921 C922 1.366 . S
C922 C921 1.366 . S
C922 C923 1.414 . S
C922 C925 1.499 . S
C923 H897 0.950 . S
C923 C922 1.414 . S
C923 C924 1.374 . S
C924 H898 0.950 . S
C924 C920 1.385 . S
C924 C923 1.374 . S
C925 C922 1.499 . S
C925 C926 1.373 . S
C925 C927 1.389 . S
C926 H899 0.950 . S
C926 C912 1.377 . S
C926 C925 1.373 . S
C927 C911 1.377 . S
C927 C925 1.389 . S
C927 C928 1.524 . S
C928 C927 1.524 . S
C928 C929 1.397 . S
C928 C933 1.363 . S
C929 H900 0.950 . S
C929 C928 1.397 . S
C929 C930 1.334 . S
C930 H901 0.950 . S
C930 C929 1.334 . S
C930 C931 1.287 . S
C931 C930 1.287 . S
C931 C932 1.524 . S
C931 H934 0.999 . S
C932 H902 0.950 . S
C932 C931 1.524 . S
C932 C933 1.415 . S
C933 H903 0.950 . S
C933 C928 1.363 . S
C933 C932 1.415 . S
H934 C931 0.999 . S
H935 C916 0.913 . S
H936 C954 0.951 . S
H937 C956 0.951 . S
H938 C958 0.950 . S
H939 C959 0.950 . S
H940 C961 0.950 . S
H941 C964 0.950 . S
H942 C965 0.950 1_655 S
H943 C967 0.950 . S
H944 C968 0.950 . S
H945 C969 0.951 . S
H946 C971 0.951 . S
H947 C973 0.950 . S
H948 C974 0.950 . S
H949 C976 0.950 . S
H950 C979 0.950 . S
H951 C980 0.950 . S
H952 C982 0.950 . S
H953 C983 0.950 . S
C954 H936 0.951 . S
C954 C955 1.366 . S
C954 C956 1.388 . S
C955 C954 1.366 . S
C955 C959 1.385 . S
C956 H937 0.951 . S
C956 C954 1.388 . S
C956 C957 1.366 . S
C957 C956 1.366 . S
C957 C958 1.414 . S
C957 C960 1.499 . S
C958 H938 0.950 . S
C958 C957 1.414 . S
C958 C959 1.374 . S
C959 H939 0.950 . S
C959 C955 1.385 . S
C959 C958 1.374 . S
C960 C957 1.499 . S
C960 C961 1.373 . S
C960 C962 1.389 . S
C961 H940 0.950 . S
C961 C960 1.373 . S
C961 C977 1.377 . S
C962 C960 1.389 . S
C962 C963 1.524 . S
C962 C976 1.377 . S
C963 C962 1.524 . S
C963 C964 1.397 . S
C963 C968 1.363 . S
C964 H941 0.950 . S
C964 C963 1.397 . S
C964 C965 1.334 . S
C965 H942 0.950 1_455 S
C965 C964 1.334 . S
C965 C966 1.293 . S
C966 C965 1.293 . S
C966 C967 1.527 . S
C966 H985 0.902 1_455 S
C967 H943 0.950 . S
C967 C966 1.527 . S
C967 C968 1.415 . S
C968 H944 0.950 . S
C968 C963 1.363 . S
C968 C967 1.415 . S
C969 H945 0.951 . S
C969 C970 1.366 . S
C969 C971 1.388 . S
C970 C969 1.366 . S
C970 C974 1.385 . S
C971 H946 0.951 . S
C971 C969 1.388 . S
C971 C972 1.366 . S
C972 C971 1.366 . S
C972 C973 1.414 . S
C972 C975 1.499 . S
C973 H947 0.950 . S
C973 C972 1.414 . S
C973 C974 1.374 . S
C974 H948 0.950 . S
C974 C970 1.385 . S
C974 C973 1.374 . S
C975 C972 1.499 . S
C975 C976 1.373 . S
C975 C977 1.389 . S
C976 H949 0.950 . S
C976 C962 1.377 . S
C976 C975 1.373 . S
C977 C961 1.377 . S
C977 C975 1.389 . S
C977 C978 1.524 . S
C978 C977 1.524 . S
C978 C979 1.397 . S
C978 C983 1.363 . S
C979 H950 0.950 . S
C979 C978 1.397 . S
C979 C980 1.334 . S
C980 H951 0.950 . S
C980 C979 1.334 . S
C980 C981 1.287 . S
C981 C980 1.287 . S
C981 C982 1.524 . S
C981 H984 0.999 . S
C982 H952 0.950 . S
C982 C981 1.524 . S
C982 C983 1.415 . S
C983 H953 0.950 . S
C983 C978 1.363 . S
C983 C982 1.415 . S
H984 C981 0.999 . S
H985 C966 0.902 1_655 S
H986 C1004 0.951 . S
H987 C1006 0.951 . S
H988 C1008 0.950 . S
H989 C1009 0.950 . S
H990 C1011 0.950 . S
H991 C1014 0.950 . S
H992 C1015 0.950 . S
H993 C1017 0.950 . S
H994 C1018 0.950 . S
H995 C1019 0.951 . S
H996 C1021 0.951 . S
H997 C1023 0.950 . S
H998 C1024 0.950 . S
H999 C1026 0.950 . S
H1000 C1029 0.950 . S
H1001 C1030 0.950 . S
H1002 C1032 0.950 . S
H1003 C1033 0.950 . S
C1004 H986 0.951 . S
C1004 C1005 1.366 . S
C1004 C1006 1.388 . S
C1005 C1004 1.366 . S
C1005 C1009 1.385 . S
C1006 H987 0.951 . S
C1006 C1004 1.388 . S
C1006 C1007 1.366 . S
C1007 C1006 1.366 . S
C1007 C1008 1.414 . S
C1007 C1010 1.499 . S
C1008 H988 0.950 . S
C1008 C1007 1.414 . S
C1008 C1009 1.374 . S
C1009 H989 0.950 . S
C1009 C1005 1.385 . S
C1009 C1008 1.374 . S
C1010 C1007 1.499 . S
C1010 C1011 1.373 . S
C1010 C1012 1.389 . S
C1011 H990 0.950 . S
C1011 C1010 1.373 . S
C1011 C1027 1.377 . S
C1012 C1010 1.389 . S
C1012 C1013 1.524 . S
C1012 C1026 1.377 . S
C1013 C1012 1.524 . S
C1013 C1014 1.397 . S
C1013 C1018 1.363 . S
C1014 H991 0.950 . S
C1014 C1013 1.397 . S
C1014 C1015 1.334 . S
C1015 H992 0.950 . S
C1015 C1014 1.334 . S
C1015 C1016 1.287 . S
C1016 C1015 1.287 . S
C1016 C1017 1.524 . S
C1016 H1035 0.913 . S
C1017 H993 0.950 . S
C1017 C1016 1.524 . S
C1017 C1018 1.415 . S
C1018 H994 0.950 . S
C1018 C1013 1.363 . S
C1018 C1017 1.415 . S
C1019 H995 0.951 . S
C1019 C1020 1.366 . S
C1019 C1021 1.388 . S
C1020 C1019 1.366 . S
C1020 C1024 1.385 . S
C1021 H996 0.951 . S
C1021 C1019 1.388 . S
C1021 C1022 1.366 . S
C1022 C1021 1.366 . S
C1022 C1023 1.414 . S
C1022 C1025 1.499 . S
C1023 H997 0.950 . S
C1023 C1022 1.414 . S
C1023 C1024 1.374 . S
C1024 H998 0.950 . S
C1024 C1020 1.385 . S
C1024 C1023 1.374 . S
C1025 C1022 1.499 . S
C1025 C1026 1.373 . S
C1025 C1027 1.389 . S
C1026 H999 0.950 . S
C1026 C1012 1.377 . S
C1026 C1025 1.373 . S
C1027 C1011 1.377 . S
C1027 C1025 1.389 . S
C1027 C1028 1.524 . S
C1028 C1027 1.524 . S
C1028 C1029 1.397 . S
C1028 C1033 1.363 . S
C1029 H1000 0.950 . S
C1029 C1028 1.397 . S
C1029 C1030 1.334 . S
C1030 H1001 0.950 . S
C1030 C1029 1.334 . S
C1030 C1031 1.287 . S
C1031 C1030 1.287 . S
C1031 C1032 1.524 . S
C1031 H1034 0.999 . S
C1032 H1002 0.950 . S
C1032 C1031 1.524 . S
C1032 C1033 1.415 . S
C1033 H1003 0.950 . S
C1033 C1028 1.363 . S
C1033 C1032 1.415 . S
H1034 C1031 0.999 . S
H1035 C1016 0.913 . S
H1036 C1054 0.951 . S
H1037 C1056 0.951 . S
H1038 C1058 0.950 . S
H1039 C1059 0.950 . S
H1040 C1061 0.950 . S
H1041 C1064 0.950 . S
H1042 C1065 0.950 . S
H1043 C1067 0.950 . S
H1044 C1068 0.950 . S
H1045 C1069 0.951 . S
H1046 C1071 0.951 . S
H1047 C1073 0.950 . S
H1048 C1074 0.950 . S
H1049 C1076 0.950 . S
H1050 C1079 0.950 . S
H1051 C1080 0.950 . S
H1052 C1082 0.950 . S
H1053 C1083 0.950 . S
C1054 H1036 0.951 . S
C1054 C1055 1.366 . S
C1054 C1056 1.388 . S
C1055 C1054 1.366 . S
C1055 C1059 1.385 . S
C1056 H1037 0.951 . S
C1056 C1054 1.388 . S
C1056 C1057 1.366 . S
C1057 C1056 1.366 . S
C1057 C1058 1.414 . S
C1057 C1060 1.499 . S
C1058 H1038 0.950 . S
C1058 C1057 1.414 . S
C1058 C1059 1.374 . S
C1059 H1039 0.950 . S
C1059 C1055 1.385 . S
C1059 C1058 1.374 . S
C1060 C1057 1.499 . S
C1060 C1061 1.373 . S
C1060 C1062 1.389 . S
C1061 H1040 0.950 . S
C1061 C1060 1.373 . S
C1061 C1077 1.377 . S
C1062 C1060 1.389 . S
C1062 C1063 1.524 . S
C1062 C1076 1.377 . S
C1063 C1062 1.524 . S
C1063 C1064 1.397 . S
C1063 C1068 1.363 . S
C1064 H1041 0.950 . S
C1064 C1063 1.397 . S
C1064 C1065 1.334 . S
C1065 H1042 0.950 . S
C1065 C1064 1.334 . S
C1065 C1066 1.287 . S
C1066 C1065 1.287 . S
C1066 C1067 1.524 . S
C1066 H1085 0.913 . S
C1067 H1043 0.950 . S
C1067 C1066 1.524 . S
C1067 C1068 1.415 . S
C1068 H1044 0.950 . S
C1068 C1063 1.363 . S
C1068 C1067 1.415 . S
C1069 H1045 0.951 . S
C1069 C1070 1.366 . S
C1069 C1071 1.388 . S
C1070 C1069 1.366 . S
C1070 C1074 1.385 . S
C1071 H1046 0.951 . S
C1071 C1069 1.388 . S
C1071 C1072 1.366 . S
C1072 C1071 1.366 . S
C1072 C1073 1.414 . S
C1072 C1075 1.499 . S
C1073 H1047 0.950 . S
C1073 C1072 1.414 . S
C1073 C1074 1.374 . S
C1074 H1048 0.950 . S
C1074 C1070 1.385 . S
C1074 C1073 1.374 . S
C1075 C1072 1.499 . S
C1075 C1076 1.373 . S
C1075 C1077 1.389 . S
C1076 H1049 0.950 . S
C1076 C1062 1.377 . S
C1076 C1075 1.373 . S
C1077 C1061 1.377 . S
C1077 C1075 1.389 . S
C1077 C1078 1.524 . S
C1078 C1077 1.524 . S
C1078 C1079 1.397 . S
C1078 C1083 1.363 . S
C1079 H1050 0.950 . S
C1079 C1078 1.397 . S
C1079 C1080 1.334 . S
C1080 H1051 0.950 . S
C1080 C1079 1.334 . S
C1080 C1081 1.287 . S
C1081 C1080 1.287 . S
C1081 C1082 1.524 . S
C1081 H1084 0.999 . S
C1082 H1052 0.950 . S
C1082 C1081 1.524 . S
C1082 C1083 1.415 . S
C1083 H1053 0.950 . S
C1083 C1078 1.363 . S
C1083 C1082 1.415 . S
H1084 C1081 0.999 . S
H1085 C1066 0.913 . S
H1086 C1104 0.951 . S
H1087 C1106 0.951 . S
H1088 C1108 0.950 . S
H1089 C1109 0.950 . S
H1090 C1111 0.950 . S
H1091 C1114 0.950 . S
H1092 C1115 0.950 . S
H1093 C1117 0.950 . S
H1094 C1118 0.950 . S
H1095 C1119 0.951 . S
H1096 C1121 0.951 . S
H1097 C1123 0.950 . S
H1098 C1124 0.950 . S
H1099 C1126 0.950 . S
H1100 C1129 0.950 . S
H1101 C1130 0.950 . S
H1102 C1132 0.950 . S
H1103 C1133 0.950 . S
C1104 H1086 0.951 . S
C1104 C1105 1.366 . S
C1104 C1106 1.388 . S
C1105 C1104 1.366 . S
C1105 C1109 1.385 . S
C1106 H1087 0.951 . S
C1106 C1104 1.388 . S
C1106 C1107 1.366 . S
C1107 C1106 1.366 . S
C1107 C1108 1.414 . S
C1107 C1110 1.499 . S
C1108 H1088 0.950 . S
C1108 C1107 1.414 . S
C1108 C1109 1.374 . S
C1109 H1089 0.950 . S
C1109 C1105 1.385 . S
C1109 C1108 1.374 . S
C1110 C1107 1.499 . S
C1110 C1111 1.373 . S
C1110 C1112 1.389 . S
C1111 H1090 0.950 . S
C1111 C1110 1.373 . S
C1111 C1127 1.377 . S
C1112 C1110 1.389 . S
C1112 C1113 1.524 . S
C1112 C1126 1.377 . S
C1113 C1112 1.524 . S
C1113 C1114 1.397 . S
C1113 C1118 1.363 . S
C1114 H1091 0.950 . S
C1114 C1113 1.397 . S
C1114 C1115 1.334 . S
C1115 H1092 0.950 . S
C1115 C1114 1.334 . S
C1115 C1116 1.287 . S
C1116 C1115 1.287 . S
C1116 C1117 1.524 . S
C1116 H1135 0.913 1_545 S
C1117 H1093 0.950 . S
C1117 C1116 1.524 . S
C1117 C1118 1.415 . S
C1118 H1094 0.950 . S
C1118 C1113 1.363 . S
C1118 C1117 1.415 . S
C1119 H1095 0.951 . S
C1119 C1120 1.366 . S
C1119 C1121 1.388 . S
C1120 C1119 1.366 . S
C1120 C1124 1.385 . S
C1121 H1096 0.951 . S
C1121 C1119 1.388 . S
C1121 C1122 1.366 . S
C1122 C1121 1.366 . S
C1122 C1123 1.414 . S
C1122 C1125 1.499 . S
C1123 H1097 0.950 . S
C1123 C1122 1.414 . S
C1123 C1124 1.374 . S
C1124 H1098 0.950 . S
C1124 C1120 1.385 . S
C1124 C1123 1.374 . S
C1125 C1122 1.499 . S
C1125 C1126 1.373 . S
C1125 C1127 1.389 . S
C1126 H1099 0.950 . S
C1126 C1112 1.377 . S
C1126 C1125 1.373 . S
C1127 C1111 1.377 . S
C1127 C1125 1.389 . S
C1127 C1128 1.524 . S
C1128 C1127 1.524 . S
C1128 C1129 1.397 . S
C1128 C1133 1.363 . S
C1129 H1100 0.950 . S
C1129 C1128 1.397 . S
C1129 C1130 1.334 . S
C1130 H1101 0.950 . S
C1130 C1129 1.334 . S
C1130 C1131 1.287 . S
C1131 C1130 1.287 . S
C1131 C1132 1.524 . S
C1131 H1134 0.999 . S
C1132 H1102 0.950 . S
C1132 C1131 1.524 . S
C1132 C1133 1.415 . S
C1133 H1103 0.950 . S
C1133 C1128 1.363 . S
C1133 C1132 1.415 . S
H1134 C1131 0.999 . S
H1135 C1116 0.913 1_565 S
H1136 C1154 0.951 . S
H1137 C1156 0.951 . S
H1138 C1158 0.950 . S
H1139 C1159 0.950 . S
H1140 C1161 0.950 . S
H1141 C1164 0.950 . S
H1142 C1165 0.950 . S
H1143 C1167 0.950 . S
H1144 C1168 0.950 . S
H1145 C1169 0.951 . S
H1146 C1171 0.951 . S
H1147 C1173 0.950 . S
H1148 C1174 0.950 . S
H1149 C1176 0.950 . S
H1150 C1179 0.950 . S
H1151 C1180 0.950 . S
H1152 C1182 0.950 . S
H1153 C1183 0.950 . S
C1154 H1136 0.951 . S
C1154 C1155 1.366 . S
C1154 C1156 1.388 . S
C1155 C1154 1.366 . S
C1155 C1159 1.385 . S
C1156 H1137 0.951 . S
C1156 C1154 1.388 . S
C1156 C1157 1.366 . S
C1157 C1156 1.366 . S
C1157 C1158 1.414 . S
C1157 C1160 1.499 . S
C1158 H1138 0.950 . S
C1158 C1157 1.414 . S
C1158 C1159 1.374 . S
C1159 H1139 0.950 . S
C1159 C1155 1.385 . S
C1159 C1158 1.374 . S
C1160 C1157 1.499 . S
C1160 C1161 1.373 . S
C1160 C1162 1.389 . S
C1161 H1140 0.950 . S
C1161 C1160 1.373 . S
C1161 C1177 1.377 . S
C1162 C1160 1.389 . S
C1162 C1163 1.524 . S
C1162 C1176 1.377 . S
C1163 C1162 1.524 . S
C1163 C1164 1.397 . S
C1163 C1168 1.363 . S
C1164 H1141 0.950 . S
C1164 C1163 1.397 . S
C1164 C1165 1.334 . S
C1165 H1142 0.950 . S
C1165 C1164 1.334 . S
C1165 C1166 1.287 . S
C1166 C1165 1.287 . S
C1166 C1167 1.524 . S
C1166 H1185 0.913 . S
C1167 H1143 0.950 . S
C1167 C1166 1.524 . S
C1167 C1168 1.415 . S
C1168 H1144 0.950 . S
C1168 C1163 1.363 . S
C1168 C1167 1.415 . S
C1169 H1145 0.951 . S
C1169 C1170 1.366 . S
C1169 C1171 1.388 . S
C1170 C1169 1.366 . S
C1170 C1174 1.385 . S
C1171 H1146 0.951 . S
C1171 C1169 1.388 . S
C1171 C1172 1.366 . S
C1172 C1171 1.366 . S
C1172 C1173 1.414 . S
C1172 C1175 1.499 . S
C1173 H1147 0.950 . S
C1173 C1172 1.414 . S
C1173 C1174 1.374 . S
C1174 H1148 0.950 . S
C1174 C1170 1.385 . S
C1174 C1173 1.374 . S
C1175 C1172 1.499 . S
C1175 C1176 1.373 . S
C1175 C1177 1.389 . S
C1176 H1149 0.950 . S
C1176 C1162 1.377 . S
C1176 C1175 1.373 . S
C1177 C1161 1.377 . S
C1177 C1175 1.389 . S
C1177 C1178 1.524 . S
C1178 C1177 1.524 . S
C1178 C1179 1.397 . S
C1178 C1183 1.363 . S
C1179 H1150 0.950 . S
C1179 C1178 1.397 . S
C1179 C1180 1.334 . S
C1180 H1151 0.950 . S
C1180 C1179 1.334 . S
C1180 C1181 1.287 . S
C1181 C1180 1.287 . S
C1181 C1182 1.524 . S
C1181 H1184 0.999 . S
C1182 H1152 0.950 . S
C1182 C1181 1.524 . S
C1182 C1183 1.415 . S
C1183 H1153 0.950 . S
C1183 C1178 1.363 . S
C1183 C1182 1.415 . S
H1184 C1181 0.999 . S
H1185 C1166 0.913 . S
H1186 C1204 0.951 . S
H1187 C1206 0.951 . S
H1188 C1208 0.950 . S
H1189 C1209 0.950 . S
H1190 C1211 0.950 . S
H1191 C1214 0.950 . S
H1192 C1215 0.950 . S
H1193 C1217 0.950 . S
H1194 C1218 0.950 . S
H1195 C1219 0.951 . S
H1196 C1221 0.951 . S
H1197 C1223 0.950 . S
H1198 C1224 0.950 . S
H1199 C1226 0.950 . S
H1200 C1229 0.950 . S
H1201 C1230 0.950 . S
H1202 C1232 0.950 . S
H1203 C1233 0.950 . S
C1204 H1186 0.951 . S
C1204 C1205 1.366 . S
C1204 C1206 1.388 . S
C1205 C1204 1.366 . S
C1205 C1209 1.385 . S
C1206 H1187 0.951 . S
C1206 C1204 1.388 . S
C1206 C1207 1.366 . S
C1207 C1206 1.366 . S
C1207 C1208 1.414 . S
C1207 C1210 1.499 . S
C1208 H1188 0.950 . S
C1208 C1207 1.414 . S
C1208 C1209 1.374 . S
C1209 H1189 0.950 . S
C1209 C1205 1.385 . S
C1209 C1208 1.374 . S
C1210 C1207 1.499 . S
C1210 C1211 1.373 . S
C1210 C1212 1.389 . S
C1211 H1190 0.950 . S
C1211 C1210 1.373 . S
C1211 C1227 1.377 . S
C1212 C1210 1.389 . S
C1212 C1213 1.524 . S
C1212 C1226 1.377 . S
C1213 C1212 1.524 . S
C1213 C1214 1.397 . S
C1213 C1218 1.363 . S
C1214 H1191 0.950 . S
C1214 C1213 1.397 . S
C1214 C1215 1.334 . S
C1215 H1192 0.950 . S
C1215 C1214 1.334 . S
C1215 C1216 1.287 . S
C1216 C1215 1.287 . S
C1216 C1217 1.524 . S
C1216 H1235 0.913 . S
C1217 H1193 0.950 . S
C1217 C1216 1.524 . S
C1217 C1218 1.415 . S
C1218 H1194 0.950 . S
C1218 C1213 1.363 . S
C1218 C1217 1.415 . S
C1219 H1195 0.951 . S
C1219 C1220 1.366 . S
C1219 C1221 1.388 . S
C1220 C1219 1.366 . S
C1220 C1224 1.385 . S
C1221 H1196 0.951 . S
C1221 C1219 1.388 . S
C1221 C1222 1.366 . S
C1222 C1221 1.366 . S
C1222 C1223 1.414 . S
C1222 C1225 1.499 . S
C1223 H1197 0.950 . S
C1223 C1222 1.414 . S
C1223 C1224 1.374 . S
C1224 H1198 0.950 . S
C1224 C1220 1.385 . S
C1224 C1223 1.374 . S
C1225 C1222 1.499 . S
C1225 C1226 1.373 . S
C1225 C1227 1.389 . S
C1226 H1199 0.950 . S
C1226 C1212 1.377 . S
C1226 C1225 1.373 . S
C1227 C1211 1.377 . S
C1227 C1225 1.389 . S
C1227 C1228 1.524 . S
C1228 C1227 1.524 . S
C1228 C1229 1.397 . S
C1228 C1233 1.363 . S
C1229 H1200 0.950 . S
C1229 C1228 1.397 . S
C1229 C1230 1.334 . S
C1230 H1201 0.950 . S
C1230 C1229 1.334 . S
C1230 C1231 1.287 . S
C1231 C1230 1.287 . S
C1231 C1232 1.524 . S
C1231 H1234 0.999 . S
C1232 H1202 0.950 . S
C1232 C1231 1.524 . S
C1232 C1233 1.415 . S
C1233 H1203 0.950 . S
C1233 C1228 1.363 . S
C1233 C1232 1.415 . S
H1234 C1231 0.999 . S
H1235 C1216 0.913 . S
H1236 C1254 0.951 . S
H1237 C1256 0.951 . S
H1238 C1258 0.950 . S
H1239 C1259 0.950 . S
H1240 C1261 0.950 . S
H1241 C1264 0.950 . S
H1242 C1265 0.950 . S
H1243 C1267 0.950 . S
H1244 C1268 0.950 . S
H1245 C1269 0.951 . S
H1246 C1271 0.951 . S
H1247 C1273 0.950 . S
H1248 C1274 0.950 . S
H1249 C1276 0.950 . S
H1250 C1279 0.950 . S
H1251 C1280 0.950 . S
H1252 C1282 0.950 . S
H1253 C1283 0.950 . S
C1254 H1236 0.951 . S
C1254 C1255 1.366 . S
C1254 C1256 1.388 . S
C1255 C1254 1.366 . S
C1255 C1259 1.385 . S
C1256 H1237 0.951 . S
C1256 C1254 1.388 . S
C1256 C1257 1.366 . S
C1257 C1256 1.366 . S
C1257 C1258 1.414 . S
C1257 C1260 1.499 . S
C1258 H1238 0.950 . S
C1258 C1257 1.414 . S
C1258 C1259 1.374 . S
C1259 H1239 0.950 . S
C1259 C1255 1.385 . S
C1259 C1258 1.374 . S
C1260 C1257 1.499 . S
C1260 C1261 1.373 . S
C1260 C1262 1.389 . S
C1261 H1240 0.950 . S
C1261 C1260 1.373 . S
C1261 C1277 1.377 . S
C1262 C1260 1.389 . S
C1262 C1263 1.524 . S
C1262 C1276 1.377 . S
C1263 C1262 1.524 . S
C1263 C1264 1.397 . S
C1263 C1268 1.363 . S
C1264 H1241 0.950 . S
C1264 C1263 1.397 . S
C1264 C1265 1.334 . S
C1265 H1242 0.950 . S
C1265 C1264 1.334 . S
C1265 C1266 1.287 . S
C1266 C1265 1.287 . S
C1266 C1267 1.524 . S
C1266 H1285 0.913 . S
C1267 H1243 0.950 . S
C1267 C1266 1.524 . S
C1267 C1268 1.415 . S
C1268 H1244 0.950 . S
C1268 C1263 1.363 . S
C1268 C1267 1.415 . S
C1269 H1245 0.951 . S
C1269 C1270 1.366 . S
C1269 C1271 1.388 . S
C1270 C1269 1.366 . S
C1270 C1274 1.385 . S
C1271 H1246 0.951 . S
C1271 C1269 1.388 . S
C1271 C1272 1.366 . S
C1272 C1271 1.366 . S
C1272 C1273 1.414 . S
C1272 C1275 1.499 . S
C1273 H1247 0.950 . S
C1273 C1272 1.414 . S
C1273 C1274 1.374 . S
C1274 H1248 0.950 . S
C1274 C1270 1.385 . S
C1274 C1273 1.374 . S
C1275 C1272 1.499 . S
C1275 C1276 1.373 . S
C1275 C1277 1.389 . S
C1276 H1249 0.950 . S
C1276 C1262 1.377 . S
C1276 C1275 1.373 . S
C1277 C1261 1.377 . S
C1277 C1275 1.389 . S
C1277 C1278 1.524 . S
C1278 C1277 1.524 . S
C1278 C1279 1.397 . S
C1278 C1283 1.363 . S
C1279 H1250 0.950 . S
C1279 C1278 1.397 . S
C1279 C1280 1.334 . S
C1280 H1251 0.950 . S
C1280 C1279 1.334 . S
C1280 C1281 1.287 . S
C1281 C1280 1.287 . S
C1281 C1282 1.524 . S
C1281 H1284 0.999 . S
C1282 H1252 0.950 . S
C1282 C1281 1.524 . S
C1282 C1283 1.415 . S
C1283 H1253 0.950 . S
C1283 C1278 1.363 . S
C1283 C1282 1.415 . S
H1284 C1281 0.999 . S
H1285 C1266 0.913 . S
H1286 C1304 0.951 . S
H1287 C1306 0.951 . S
H1288 C1308 0.950 . S
H1289 C1309 0.950 . S
H1290 C1311 0.950 . S
H1291 C1314 0.950 . S
H1292 C1315 0.950 . S
H1293 C1317 0.950 . S
H1294 C1318 0.950 . S
H1295 C1319 0.951 . S
H1296 C1321 0.951 . S
H1297 C1323 0.950 . S
H1298 C1324 0.950 . S
H1299 C1326 0.950 . S
H1300 C1329 0.950 . S
H1301 C1330 0.950 . S
H1302 C1332 0.950 . S
H1303 C1333 0.950 . S
C1304 H1286 0.951 . S
C1304 C1305 1.366 . S
C1304 C1306 1.388 . S
C1305 C1304 1.366 . S
C1305 C1309 1.385 . S
C1306 H1287 0.951 . S
C1306 C1304 1.388 . S
C1306 C1307 1.366 . S
C1307 C1306 1.366 . S
C1307 C1308 1.414 . S
C1307 C1310 1.499 . S
C1308 H1288 0.950 . S
C1308 C1307 1.414 . S
C1308 C1309 1.374 . S
C1309 H1289 0.950 . S
C1309 C1305 1.385 . S
C1309 C1308 1.374 . S
C1310 C1307 1.499 . S
C1310 C1311 1.373 . S
C1310 C1312 1.389 . S
C1311 H1290 0.950 . S
C1311 C1310 1.373 . S
C1311 C1327 1.377 . S
C1312 C1310 1.389 . S
C1312 C1313 1.524 . S
C1312 C1326 1.377 . S
C1313 C1312 1.524 . S
C1313 C1314 1.397 . S
C1313 C1318 1.363 . S
C1314 H1291 0.950 . S
C1314 C1313 1.397 . S
C1314 C1315 1.334 . S
C1315 H1292 0.950 . S
C1315 C1314 1.334 . S
C1315 C1316 1.287 . S
C1316 C1315 1.287 . S
C1316 C1317 1.524 . S
C1316 H1335 0.913 . S
C1317 H1293 0.950 . S
C1317 C1316 1.524 . S
C1317 C1318 1.415 . S
C1318 H1294 0.950 . S
C1318 C1313 1.363 . S
C1318 C1317 1.415 . S
C1319 H1295 0.951 . S
C1319 C1320 1.366 . S
C1319 C1321 1.388 . S
C1320 C1319 1.366 . S
C1320 C1324 1.385 . S
C1321 H1296 0.951 . S
C1321 C1319 1.388 . S
C1321 C1322 1.366 . S
C1322 C1321 1.366 . S
C1322 C1323 1.414 . S
C1322 C1325 1.499 . S
C1323 H1297 0.950 . S
C1323 C1322 1.414 . S
C1323 C1324 1.374 . S
C1324 H1298 0.950 . S
C1324 C1320 1.385 . S
C1324 C1323 1.374 . S
C1325 C1322 1.499 . S
C1325 C1326 1.373 . S
C1325 C1327 1.389 . S
C1326 H1299 0.950 . S
C1326 C1312 1.377 . S
C1326 C1325 1.373 . S
C1327 C1311 1.377 . S
C1327 C1325 1.389 . S
C1327 C1328 1.524 . S
C1328 C1327 1.524 . S
C1328 C1329 1.397 . S
C1328 C1333 1.363 . S
C1329 H1300 0.950 . S
C1329 C1328 1.397 . S
C1329 C1330 1.334 . S
C1330 H1301 0.950 . S
C1330 C1329 1.334 . S
C1330 C1331 1.287 . S
C1331 C1330 1.287 . S
C1331 C1332 1.524 . S
C1331 H1334 0.999 . S
C1332 H1302 0.950 . S
C1332 C1331 1.524 . S
C1332 C1333 1.415 . S
C1333 H1303 0.950 . S
C1333 C1328 1.363 . S
C1333 C1332 1.415 . S
H1334 C1331 0.999 . S
H1335 C1316 0.913 . S
H1336 C1354 0.951 . S
H1337 C1356 0.951 . S
H1338 C1358 0.950 . S
H1339 C1359 0.950 . S
H1340 C1361 0.950 . S
H1341 C1364 0.950 . S
H1342 C1365 0.950 . S
H1343 C1367 0.950 . S
H1344 C1368 0.950 . S
H1345 C1369 0.951 . S
H1346 C1371 0.951 . S
H1347 C1373 0.950 . S
H1348 C1374 0.950 . S
H1349 C1376 0.950 . S
H1350 C1379 0.950 . S
H1351 C1380 0.950 . S
H1352 C1382 0.950 . S
H1353 C1383 0.950 . S
C1354 H1336 0.951 . S
C1354 C1355 1.366 . S
C1354 C1356 1.388 . S
C1355 C1354 1.366 . S
C1355 C1359 1.385 . S
C1356 H1337 0.951 . S
C1356 C1354 1.388 . S
C1356 C1357 1.366 . S
C1357 C1356 1.366 . S
C1357 C1358 1.414 . S
C1357 C1360 1.499 . S
C1358 H1338 0.950 . S
C1358 C1357 1.414 . S
C1358 C1359 1.374 . S
C1359 H1339 0.950 . S
C1359 C1355 1.385 . S
C1359 C1358 1.374 . S
C1360 C1357 1.499 . S
C1360 C1361 1.373 . S
C1360 C1362 1.389 . S
C1361 H1340 0.950 . S
C1361 C1360 1.373 . S
C1361 C1377 1.377 . S
C1362 C1360 1.389 . S
C1362 C1363 1.524 . S
C1362 C1376 1.377 . S
C1363 C1362 1.524 . S
C1363 C1364 1.397 . S
C1363 C1368 1.363 . S
C1364 H1341 0.950 . S
C1364 C1363 1.397 . S
C1364 C1365 1.334 . S
C1365 H1342 0.950 . S
C1365 C1364 1.334 . S
C1365 C1366 1.287 . S
C1366 C1365 1.287 . S
C1366 C1367 1.524 . S
C1366 H1385 0.913 . S
C1367 H1343 0.950 . S
C1367 C1366 1.524 . S
C1367 C1368 1.415 . S
C1368 H1344 0.950 . S
C1368 C1363 1.363 . S
C1368 C1367 1.415 . S
C1369 H1345 0.951 . S
C1369 C1370 1.366 . S
C1369 C1371 1.388 . S
C1370 C1369 1.366 . S
C1370 C1374 1.385 . S
C1371 H1346 0.951 . S
C1371 C1369 1.388 . S
C1371 C1372 1.366 . S
C1372 C1371 1.366 . S
C1372 C1373 1.414 . S
C1372 C1375 1.499 . S
C1373 H1347 0.950 . S
C1373 C1372 1.414 . S
C1373 C1374 1.374 . S
C1374 H1348 0.950 . S
C1374 C1370 1.385 . S
C1374 C1373 1.374 . S
C1375 C1372 1.499 . S
C1375 C1376 1.373 . S
C1375 C1377 1.389 . S
C1376 H1349 0.950 . S
C1376 C1362 1.377 . S
C1376 C1375 1.373 . S
C1377 C1361 1.377 . S
C1377 C1375 1.389 . S
C1377 C1378 1.524 . S
C1378 C1377 1.524 . S
C1378 C1379 1.397 . S
C1378 C1383 1.363 . S
C1379 H1350 0.950 . S
C1379 C1378 1.397 . S
C1379 C1380 1.334 . S
C1380 H1351 0.950 . S
C1380 C1379 1.334 . S
C1380 C1381 1.287 . S
C1381 C1380 1.287 . S
C1381 C1382 1.524 . S
C1381 H1384 0.999 . S
C1382 H1352 0.950 . S
C1382 C1381 1.524 . S
C1382 C1383 1.415 . S
C1383 H1353 0.950 . S
C1383 C1378 1.363 . S
C1383 C1382 1.415 . S
H1384 C1381 0.999 . S
H1385 C1366 0.913 . S
C205 C14 1.506 . S
C220 C109 1.555 . S
C255 C25 1.508 . S
C270 C122 1.559 . S
C320 C144 1.527 . S
C305 C43 1.504 . S
C370 C157 1.525 . S
C355 C62 1.507 . S
C420 C170 1.521 . S
C405 C80 1.501 . S
C470 C183 1.526 . S
C455 C97 1.501 . S
C505 C32 1.505 . S
C520 C139 1.519 . S
C555 C50 1.505 . S
C570 C152 1.519 . S
C620 C165 1.515 . S
C605 C70 1.495 . S
C670 C178 1.520 . S
C655 C88 1.501 . S
C705 C104 1.507 . S
C720 C111 1.555 . S
C770 C124 1.558 . S
C755 C7 1.505 . S
C820 C150 1.510 . S
C805 C8 1.499 . S
C855 C34 1.496 . S
C870 C163 1.512 . S
C920 C176 1.513 . S
C905 C52 1.496 . S
C955 C68 1.505 . S
C970 C113 1.554 . S
C1005 C86 1.506 . S
C1020 C126 1.554 . S
C1055 C106 1.502 . S
C1070 C137 1.517 . S
C1105 C26 1.508 . S
C1120 C174 1.526 . S
C1170 C118 1.560 . S
C1155 C44 1.513 . S
C1205 C61 1.508 . S
C1220 C131 1.561 . S
C1255 C79 1.507 . S
C1270 C135 1.532 . S
C1305 C98 1.507 . S
C1320 C148 1.526 . S
C1355 C16 1.501 . S
C1370 C161 1.527 . S
