# Generated by pormake.
# Topology ssa, (4,4)-cn, num edge types: 1
# Building blocks:
#     Node 0, Type 0, BuildingBlock: KOZSID_clean_sbu_0, # of connection points: 4
#     Node 1, Type 0, BuildingBlock: KOZSID_clean_sbu_0, # of connection points: 4
#     Node 2, Type 0, BuildingBlock: KOZSID_clean_sbu_0, # of connection points: 4
#     Node 3, Type 0, BuildingBlock: KOZSID_clean_sbu_0, # of connection points: 4
#     Node 4, Type 0, BuildingBlock: KOZSID_clean_sbu_0, # of connection points: 4
#     Node 5, Type 0, BuildingBlock: KOZSID_clean_sbu_0, # of connection points: 4
#     Node 6, Type 1, BuildingBlock: MIFKUJ_clean_linker_1, # of connection points: 4
#     Node 7, Type 1, BuildingBlock: MIFKUJ_clean_linker_1, # of connection points: 4
#     Node 8, Type 1, BuildingBlock: MIFKUJ_clean_linker_1, # of connection points: 4
#     Node 9, Type 1, BuildingBlock: MIFKUJ_clean_linker_1, # of connection points: 4
#     Node 10, Type 1, BuildingBlock: MIFKUJ_clean_linker_1, # of connection points: 4
#     Node 11, Type 1, BuildingBlock: MIFKUJ_clean_linker_1, # of connection points: 4
#     Edge 12, Type (0, 1), BuildingBlock: ZUJKAS_clean_linker_0, # of connection points: 2
#     Edge 13, Type (0, 1), BuildingBlock: ZUJKAS_clean_linker_0, # of connection points: 2
#     Edge 14, Type (0, 1), BuildingBlock: ZUJKAS_clean_linker_0, # of connection points: 2
#     Edge 15, Type (0, 1), BuildingBlock: ZUJKAS_clean_linker_0, # of connection points: 2
#     Edge 16, Type (0, 1), BuildingBlock: ZUJKAS_clean_linker_0, # of connection points: 2
#     Edge 17, Type (0, 1), BuildingBlock: ZUJKAS_clean_linker_0, # of connection points: 2
#     Edge 18, Type (0, 1), BuildingBlock: ZUJKAS_clean_linker_0, # of connection points: 2
#     Edge 19, Type (0, 1), BuildingBlock: ZUJKAS_clean_linker_0, # of connection points: 2
#     Edge 20, Type (0, 1), BuildingBlock: ZUJKAS_clean_linker_0, # of connection points: 2
#     Edge 21, Type (0, 1), BuildingBlock: ZUJKAS_clean_linker_0, # of connection points: 2
#     Edge 22, Type (0, 1), BuildingBlock: ZUJKAS_clean_linker_0, # of connection points: 2
#     Edge 23, Type (0, 1), BuildingBlock: ZUJKAS_clean_linker_0, # of connection points: 2
#     Edge 24, Type (0, 1), BuildingBlock: ZUJKAS_clean_linker_0, # of connection points: 2
#     Edge 25, Type (0, 1), BuildingBlock: ZUJKAS_clean_linker_0, # of connection points: 2
#     Edge 26, Type (0, 1), BuildingBlock: ZUJKAS_clean_linker_0, # of connection points: 2
#     Edge 27, Type (0, 1), BuildingBlock: ZUJKAS_clean_linker_0, # of connection points: 2
#     Edge 28, Type (0, 1), BuildingBlock: ZUJKAS_clean_linker_0, # of connection points: 2
#     Edge 29, Type (0, 1), BuildingBlock: ZUJKAS_clean_linker_0, # of connection points: 2
#     Edge 30, Type (0, 1), BuildingBlock: ZUJKAS_clean_linker_0, # of connection points: 2
#     Edge 31, Type (0, 1), BuildingBlock: ZUJKAS_clean_linker_0, # of connection points: 2
#     Edge 32, Type (0, 1), BuildingBlock: ZUJKAS_clean_linker_0, # of connection points: 2
#     Edge 33, Type (0, 1), BuildingBlock: ZUJKAS_clean_linker_0, # of connection points: 2
#     Edge 34, Type (0, 1), BuildingBlock: ZUJKAS_clean_linker_0, # of connection points: 2
#     Edge 35, Type (0, 1), BuildingBlock: ZUJKAS_clean_linker_0, # of connection points: 2
# Relax obj value: 0.004
# Max RMSD: 0.020
# Mean RMSD: 0.012
data_MOF--net-ssa--node1-KOZSID_clean_sbu_0--node2-MIFKUJ_clean_linker_1--edge1-ZUJKAS_clean_linker_0
_symmetry_space_group_name_H-M    P1
_symmetry_Int_Tables_number       1
_symmetry_cell_setting            triclinic
loop_
_symmetry_equiv_pos_as_xyz
'x, y, z'
_cell_length_a     79.770636
_cell_length_b     81.231079
_cell_length_c     52.052324
_cell_angle_alpha  88.054245
_cell_angle_beta   89.97405
_cell_angle_gamma 121.76257
loop_
_atom_site_label
_atom_site_type_symbol
_atom_site_fract_x
_atom_site_fract_y
_atom_site_fract_z
_atom_type_partial_charge
C0 C 0.96151 0.50027 0.9893 0.0
C1 C 0.94195 0.48999 0.99775 0.0
C2 C 0.9413 0.48119 0.02086 0.0
C3 C 0.96018 0.48553 0.02443 0.0
N4 N 0.97259 0.49597 0.00456 0.0
Co5 Co 0.99927 0.50006 0.99761 0.0
N6 N 0.99893 0.48773 0.03181 0.0
C7 C 0.98414 0.47978 0.04969 0.0
C8 C 0.98832 0.4728 0.07149 0.0
C9 C 0.00694 0.47657 0.06737 0.0
C10 C 0.01303 0.48565 0.04315 0.0
N11 N 0.02606 0.5044 0.99061 0.0
C12 C 0.03764 0.50082 0.0059 0.0
C13 C 0.05559 0.50669 0.99391 0.0
C14 C 0.05536 0.51426 0.9702 0.0
C15 C 0.03739 0.51266 0.96908 0.0
N16 N 0.99945 0.51225 0.96343 0.0
C17 C 0.01277 0.5175 0.94401 0.0
C18 C 0.00674 0.52117 0.92106 0.0
C19 C 0.98877 0.51869 0.92643 0.0
C20 C 0.9854 0.51474 0.95274 0.0
N21 N 0.01188 0.52558 0.01346 0.0
C22 C 0.03411 0.56021 0.03974 0.0
C23 C 0.03899 0.55882 0.01439 0.0
C24 C 0.02771 0.54153 0.00166 0.0
C25 C 0.01693 0.54437 0.05086 0.0
C26 C 0.00597 0.5274 0.03734 0.0
N27 N 0.98656 0.47419 0.98153 0.0
C28 C 0.98277 0.45508 0.94471 0.0
C29 C 0.96508 0.43942 0.95483 0.0
C30 C 0.95921 0.44094 0.97947 0.0
C31 C 0.97017 0.45818 0.99243 0.0
C32 C 0.99329 0.47199 0.95841 0.0
H33 H 0.96493 0.45806 0.01117 0.0
H34 H 0.0067 0.48307 0.94963 0.0
H35 H 0.0323 0.54116 0.9825 0.0
H36 H 0.99308 0.51567 0.04679 0.0
C37 C 0.96643 0.47896 0.0453 0.0
C38 C 0.96951 0.51451 0.96746 0.0
C39 C 0.03228 0.49191 0.03176 0.0
C40 C 0.0305 0.51823 0.94786 0.0
H41 H 0.92931 0.48869 0.98815 0.0
H42 H 0.92847 0.47218 0.03315 0.0
H43 H 0.97896 0.46581 0.08838 0.0
H44 H 0.01511 0.47302 0.08066 0.0
H45 H 0.06759 0.50558 0.00154 0.0
H46 H 0.06689 0.52017 0.9555 0.0
H47 H 0.01436 0.52495 0.90259 0.0
H48 H 0.97942 0.52004 0.91256 0.0
H49 H 0.05168 0.5709 0.00448 0.0
H50 H 0.01231 0.54467 0.07032 0.0
H51 H 0.98826 0.45462 0.92589 0.0
H52 H 0.94611 0.42891 0.98877 0.0
C53 C 0.52933 0.00969 0.54281 0.0
C54 C 0.53115 0.00223 0.56632 0.0
C55 C 0.51373 0.98521 0.57117 0.0
C56 C 0.50236 0.98317 0.55037 0.0
N57 N 0.51153 0.99777 0.53234 0.0
Co58 Co 0.5004 1.00047 0.49898 0.0
N59 N 0.47433 0.97606 0.50696 0.0
C60 C 0.46906 0.96468 0.5287 0.0
C61 C 0.45023 0.94883 0.52858 0.0
C62 C 0.44309 0.94999 0.50523 0.0
C63 C 0.4581 0.96649 0.49235 0.0
N64 N 0.48934 0.00298 0.46543 0.0
C65 C 0.47181 0.99065 0.45455 0.0
C66 C 0.47051 0.99743 0.43023 0.0
C67 C 0.48781 0.01458 0.42552 0.0
C68 C 0.4987 0.01726 0.44704 0.0
N69 N 0.52642 0.02504 0.49118 0.0
C70 C 0.53133 0.03688 0.46994 0.0
C71 C 0.54979 0.0532 0.47052 0.0
C72 C 0.5571 0.05187 0.49363 0.0
C73 C 0.54265 0.03464 0.50582 0.0
N74 N 0.5098 0.98517 0.48196 0.0
C75 C 0.52082 0.96218 0.45619 0.0
C76 C 0.52578 0.98035 0.44597 0.0
C77 C 0.52016 0.9915 0.45904 0.0
C78 C 0.51075 0.95596 0.47987 0.0
C79 C 0.50552 0.96761 0.49236 0.0
N80 N 0.49101 0.01579 0.51604 0.0
C81 C 0.48832 0.0441 0.51692 0.0
C82 C 0.48028 0.03902 0.54187 0.0
C83 C 0.47716 0.02179 0.55333 0.0
C84 C 0.48254 0.01051 0.54019 0.0
C85 C 0.49347 0.03236 0.50446 0.0
H86 H 0.47991 0.99769 0.55015 0.0
H87 H 0.49972 0.03718 0.48562 0.0
H88 H 0.5241 0.00506 0.45003 0.0
H89 H 0.49781 0.96197 0.51026 0.0
C90 C 0.48265 0.9684 0.54799 0.0
C91 C 0.54472 0.02843 0.53168 0.0
C92 C 0.45644 0.97201 0.46595 0.0
C93 C 0.51804 0.03258 0.4501 0.0
H94 H 0.54366 0.0086 0.57888 0.0
H95 H 0.50967 0.97568 0.58812 0.0
H96 H 0.4428 0.93748 0.54339 0.0
H97 H 0.42862 0.93964 0.49823 0.0
H98 H 0.45851 0.99052 0.41696 0.0
H99 H 0.49214 0.02376 0.4082 0.0
H100 H 0.55691 0.06489 0.45609 0.0
H101 H 0.57132 0.06261 0.50083 0.0
H102 H 0.5335 0.98576 0.42759 0.0
H103 H 0.50689 0.94213 0.48881 0.0
H104 H 0.49116 0.05736 0.50722 0.0
H105 H 0.47058 0.01698 0.57243 0.0
C106 C 0.53024 0.52106 0.96007 0.0
C107 C 0.53386 0.53117 0.93662 0.0
C108 C 0.51755 0.53199 0.93152 0.0
C109 C 0.50488 0.52226 0.95193 0.0
N110 N 0.51218 0.51546 0.96999 0.0
Co111 Co 0.49806 0.49929 0.00185 0.0
N112 N 0.4738 0.49994 0.99379 0.0
C113 C 0.47111 0.50887 0.9732 0.0
C114 C 0.45313 0.50725 0.97321 0.0
C115 C 0.44385 0.49694 0.99535 0.0
C116 C 0.45682 0.49292 0.00765 0.0
N117 N 0.4838 0.48279 0.03342 0.0
C118 C 0.46574 0.47716 0.04336 0.0
C119 C 0.46173 0.46618 0.06612 0.0
C120 C 0.47782 0.46488 0.07079 0.0
C121 C 0.49073 0.47513 0.05077 0.0
N122 N 0.52248 0.49901 0.01023 0.0
C123 C 0.52536 0.4906 0.03125 0.0
C124 C 0.54368 0.49297 0.03186 0.0
C125 C 0.55303 0.50337 0.0098 0.0
C126 C 0.53975 0.50662 0.99686 0.0
N127 N 0.50801 0.52304 0.02171 0.0
C128 C 0.52041 0.55611 0.05077 0.0
C129 C 0.5207 0.54014 0.06101 0.0
C130 C 0.51451 0.52393 0.04628 0.0
C131 C 0.51414 0.55536 0.02554 0.0
C132 C 0.50808 0.53885 0.01148 0.0
N133 N 0.48814 0.47552 0.98194 0.0
C134 C 0.48525 0.44472 0.97586 0.0
C135 C 0.47644 0.44291 0.95206 0.0
C136 C 0.47314 0.45751 0.94385 0.0
C137 C 0.47908 0.47353 0.95889 0.0
C138 C 0.4908 0.4609 0.9904 0.0
H139 H 0.47632 0.48418 0.9513 0.0
H140 H 0.4975 0.46137 0.00825 0.0
H141 H 0.51499 0.51224 0.0553 0.0
H142 H 0.50329 0.53914 0.99248 0.0
C143 C 0.48589 0.51891 0.95437 0.0
C144 C 0.54403 0.51641 0.97154 0.0
C145 C 0.45246 0.48281 0.03275 0.0
C146 C 0.51011 0.47943 0.04913 0.0
H147 H 0.54679 0.53706 0.92419 0.0
H148 H 0.51506 0.53855 0.91468 0.0
H149 H 0.44755 0.5131 0.95898 0.0
H150 H 0.42928 0.49303 0.00188 0.0
H151 H 0.44878 0.4602 0.07852 0.0
H152 H 0.48014 0.45793 0.08733 0.0
H153 H 0.54938 0.4874 0.04633 0.0
H154 H 0.56783 0.50776 0.00367 0.0
H155 H 0.52574 0.54012 0.08032 0.0
H156 H 0.51345 0.56727 0.01679 0.0
H157 H 0.48834 0.43395 0.98308 0.0
H158 H 0.46598 0.45666 0.92584 0.0
C159 C 0.96106 0.46127 0.51847 0.0
C160 C 0.94122 0.45137 0.51243 0.0
C161 C 0.93986 0.45912 0.48939 0.0
C162 C 0.95867 0.47404 0.48352 0.0
N163 N 0.97173 0.47662 0.50184 0.0
Co164 Co 0.99883 0.49991 0.50545 0.0
N165 N 0.9977 0.51091 0.47087 0.0
C166 C 0.98243 0.50315 0.45455 0.0
C167 C 0.98622 0.51371 0.43188 0.0
C168 C 0.00507 0.5291 0.43376 0.0
C169 C 0.01169 0.52703 0.45762 0.0
N170 N 0.02595 0.5232 0.50926 0.0
C171 C 0.0372 0.53825 0.49246 0.0
C172 C 0.05545 0.55124 0.50251 0.0
C173 C 0.05575 0.54413 0.52653 0.0
C174 C 0.03777 0.52726 0.52976 0.0
N175 N 0.99987 0.48871 0.53987 0.0
C176 C 0.01388 0.49749 0.5577 0.0
C177 C 0.00859 0.48796 0.58128 0.0
C178 C 0.99042 0.4718 0.57795 0.0
C179 C 0.98617 0.47186 0.55209 0.0
N180 N 0.0104 0.48647 0.48898 0.0
C181 C 0.03081 0.47304 0.4611 0.0
C182 C 0.03726 0.48104 0.48516 0.0
C183 C 0.02684 0.48749 0.49876 0.0
C184 C 0.01308 0.47055 0.45224 0.0
C185 C 0.00307 0.47716 0.46652 0.0
N186 N 0.98713 0.51361 0.52211 0.0
C187 C 0.98427 0.52957 0.55892 0.0
C188 C 0.96708 0.52791 0.54954 0.0
C189 C 0.96099 0.52036 0.52526 0.0
C190 C 0.97126 0.5136 0.51191 0.0
C191 C 0.99409 0.52267 0.54487 0.0
H192 H 0.96592 0.5084 0.49345 0.0
H193 H 0.00716 0.52476 0.55311 0.0
H194 H 0.03254 0.49371 0.51687 0.0
H195 H 0.98972 0.47514 0.45879 0.0
C196 C 0.96452 0.48621 0.46141 0.0
C197 C 0.96975 0.4555 0.53915 0.0
C198 C 0.03127 0.54085 0.46688 0.0
C199 C 0.03149 0.51501 0.55183 0.0
H200 H 0.92895 0.43968 0.52339 0.0
H201 H 0.92668 0.45462 0.47848 0.0
H202 H 0.97642 0.51065 0.41594 0.0
H203 H 0.01304 0.54059 0.41927 0.0
H204 H 0.06733 0.56448 0.49339 0.0
H205 H 0.06767 0.55049 0.54002 0.0
H206 H 0.01683 0.49233 0.59885 0.0
H207 H 0.9815 0.46103 0.59285 0.0
H208 H 0.05049 0.48263 0.49333 0.0
H209 H 0.00731 0.46426 0.43387 0.0
H210 H 0.98988 0.5356 0.57746 0.0
H211 H 0.94826 0.51955 0.51655 0.0
C212 C 0.47369 0.99321 0.04549 0.0
C213 C 0.47221 0.00089 0.06821 0.0
C214 C 0.48961 0.01803 0.07064 0.0
C215 C 0.50065 0.01987 0.04934 0.0
N216 N 0.49127 0.00507 0.03321 0.0
Co217 Co 0.50214 0.00169 1.00037 0.0
N218 N 0.52777 0.02692 0.00404 0.0
C219 C 0.53269 0.03947 0.02315 0.0
C220 C 0.55102 0.05591 0.01996 0.0
C221 C 0.55815 0.05391 0.99724 0.0
C222 C 0.54367 0.0363 0.98786 0.0
N223 N 0.51325 0.99804 0.96793 0.0
C224 C 0.53078 0.00995 0.95555 0.0
C225 C 0.53256 0.00192 0.93336 0.0
C226 C 0.51552 0.98436 0.93157 0.0
C227 C 0.50434 0.98268 0.95263 0.0
N228 N 0.47627 0.97677 0.99624 0.0
C229 C 0.47117 0.9646 0.97662 0.0
C230 C 0.45255 0.94853 0.97916 0.0
C231 C 0.44529 0.95048 0.0018 0.0
C232 C 0.45996 0.96776 0.01178 0.0
N233 N 0.49191 0.01573 0.98048 0.0
C234 C 0.47903 0.03673 0.95126 0.0
C235 C 0.47754 0.02008 0.94193 0.0
C236 C 0.48393 0.00986 0.95676 0.0
C237 C 0.48673 0.04242 0.97571 0.0
C238 C 0.49305 0.03184 0.98983 0.0
N239 N 0.51237 0.98763 0.0203 0.0
C240 C 0.51385 0.95892 0.02834 0.0
C241 C 0.52508 0.96673 0.05021 0.0
C242 C 0.53019 0.98539 0.0565 0.0
C243 C 0.52371 0.99546 0.04146 0.0
C244 C 0.50783 0.96956 0.01373 0.0
H245 H 0.52795 0.00948 0.04752 0.0
H246 H 0.49927 0.9627 0.99742 0.0
H247 H 0.48249 0.99738 0.94848 0.0
H248 H 0.49895 0.03709 0.00817 0.0
C249 C 0.5197 0.03547 0.04373 0.0
C250 C 0.45807 0.9745 0.03664 0.0
C251 C 0.5456 0.02936 0.96324 0.0
C252 C 0.48477 0.9678 0.95722 0.0
H253 H 0.45986 0.9947 0.08171 0.0
H254 H 0.49374 0.02795 0.08612 0.0
H255 H 0.55822 0.068 0.03251 0.0
H256 H 0.57233 0.06433 0.9884 0.0
H257 H 0.5447 0.0083 0.91952 0.0
H258 H 0.51147 0.97433 0.91625 0.0
H259 H 0.44534 0.93653 0.96647 0.0
H260 H 0.43097 0.94007 0.01024 0.0
H261 H 0.47187 0.01515 0.92299 0.0
H262 H 0.48786 0.055 0.98405 0.0
H263 H 0.50927 0.94445 0.02273 0.0
H264 H 0.53919 0.99228 0.07296 0.0
C265 C 0.51105 0.54365 0.49489 0.0
C266 C 0.50671 0.55646 0.50558 0.0
C267 C 0.49544 0.54733 0.52713 0.0
C268 C 0.4934 0.52949 0.52828 0.0
N269 N 0.5029 0.52672 0.50896 0.0
Co270 Co 0.50233 0.50225 0.50207 0.0
N271 N 0.48506 0.48857 0.53326 0.0
C272 C 0.47851 0.49614 0.55051 0.0
C273 C 0.46799 0.4837 0.5708 0.0
C274 C 0.46803 0.46726 0.56652 0.0
C275 C 0.47851 0.4706 0.54363 0.0
N276 N 0.50122 0.47763 0.49463 0.0
C277 C 0.49248 0.46047 0.50814 0.0
C278 C 0.49491 0.44691 0.49592 0.0
C279 C 0.50595 0.45596 0.47416 0.0
C280 C 0.50948 0.4744 0.47424 0.0
N281 N 0.52013 0.51609 0.4714 0.0
C282 C 0.52788 0.50898 0.45525 0.0
C283 C 0.53986 0.522 0.43622 0.0
C284 C 0.53962 0.53837 0.44028 0.0
C285 C 0.52733 0.5343 0.46154 0.0
N286 N 0.52586 0.5106 0.52356 0.0
C287 C 0.55836 0.52084 0.55533 0.0
C288 C 0.55615 0.51157 0.53232 0.0
C289 C 0.54001 0.5067 0.51684 0.0
C290 C 0.54416 0.52518 0.56189 0.0
C291 C 0.52818 0.51996 0.54592 0.0
N292 N 0.47879 0.4939 0.48058 0.0
C293 C 0.4624 0.48363 0.43992 0.0
C294 C 0.44603 0.48369 0.44938 0.0
C295 C 0.44623 0.4886 0.4749 0.0
C296 C 0.46259 0.49361 0.48999 0.0
C297 C 0.47844 0.48869 0.45571 0.0
H298 H 0.4618 0.49732 0.50917 0.0
H299 H 0.49049 0.48851 0.44724 0.0
H300 H 0.53918 0.49958 0.49967 0.0
H301 H 0.51784 0.52356 0.55219 0.0
C302 C 0.48256 0.51501 0.54715 0.0
C303 C 0.52228 0.54791 0.47086 0.0
C304 C 0.48257 0.4566 0.53311 0.0
C305 C 0.5221 0.48948 0.45696 0.0
H306 H 0.51093 0.57081 0.49838 0.0
H307 H 0.4892 0.5529 0.54018 0.0
H308 H 0.46135 0.48638 0.58699 0.0
H309 H 0.46137 0.45441 0.5791 0.0
H310 H 0.48965 0.43214 0.50241 0.0
H311 H 0.51131 0.45002 0.46037 0.0
H312 H 0.54735 0.51966 0.42075 0.0
H313 H 0.54726 0.55167 0.42856 0.0
H314 H 0.5666 0.50766 0.52644 0.0
H315 H 0.54534 0.53265 0.57927 0.0
H316 H 0.46308 0.48012 0.42021 0.0
H317 H 0.43377 0.48853 0.48332 0.0
H318 H 0.18356 0.42918 0.18555 0.0
H319 H 0.15937 0.43228 0.16032 0.0
H320 H 0.17327 0.48318 0.20135 0.0
H321 H 0.19753 0.48017 0.22622 0.0
H322 H 0.22241 0.45289 0.1886 0.0
H323 H 0.16773 0.4259 0.25055 0.0
H324 H 0.14189 0.42574 0.27633 0.0
H325 H 0.18597 0.47866 0.31068 0.0
H326 H 0.21166 0.47882 0.2848 0.0
H327 H 0.26165 0.47951 0.28405 0.0
H328 H 0.28851 0.48091 0.30838 0.0
H329 H 0.27819 0.4292 0.27263 0.0
H330 H 0.25095 0.42763 0.24871 0.0
H331 H 0.22302 0.45277 0.2839 0.0
H332 H 0.2772 0.48092 0.22404 0.0
H333 H 0.30443 0.48337 0.19928 0.0
H334 H 0.2632 0.43189 0.15956 0.0
H335 H 0.23609 0.42902 0.18538 0.0
C336 C 0.19215 0.45424 0.20808 0.0
C337 C 0.18137 0.44099 0.18911 0.0
C338 C 0.1676 0.4428 0.17468 0.0
C339 C 0.16434 0.45791 0.17896 0.0
C340 C 0.17518 0.47118 0.19792 0.0
C341 C 0.18904 0.46945 0.21219 0.0
C342 C 0.20716 0.45265 0.22295 0.0
C343 C 0.22233 0.45245 0.20946 0.0
C344 C 0.20738 0.45267 0.25015 0.0
C345 C 0.19161 0.45243 0.26566 0.0
C346 C 0.17179 0.4375 0.26356 0.0
C347 C 0.15707 0.43736 0.2784 0.0
C348 C 0.1619 0.45222 0.29546 0.0
C349 C 0.18176 0.46714 0.29749 0.0
C350 C 0.19647 0.46717 0.28286 0.0
C351 C 0.25438 0.45354 0.26445 0.0
C352 C 0.2651 0.46841 0.28155 0.0
C353 C 0.28057 0.46929 0.29526 0.0
C354 C 0.28557 0.45524 0.29228 0.0
C355 C 0.27462 0.44018 0.27543 0.0
C356 C 0.25916 0.43934 0.26163 0.0
C357 C 0.23828 0.45307 0.24956 0.0
C358 C 0.22294 0.4529 0.26305 0.0
C359 C 0.23805 0.45295 0.22236 0.0
C360 C 0.2546 0.4546 0.2069 0.0
C361 C 0.27403 0.47001 0.21025 0.0
C362 C 0.28959 0.47152 0.19581 0.0
C363 C 0.28606 0.45783 0.17737 0.0
C364 C 0.26653 0.44253 0.17385 0.0
C365 C 0.25097 0.44096 0.18843 0.0
H366 H 0.73361 0.21375 0.78295 0.0
H367 H 0.70561 0.18932 0.80937 0.0
H368 H 0.71261 0.14458 0.77822 0.0
H369 H 0.74106 0.16921 0.75249 0.0
H370 H 0.77107 0.22455 0.78367 0.0
H371 H 0.72103 0.20036 0.72053 0.0
H372 H 0.6937 0.17607 0.69577 0.0
H373 H 0.73092 0.15621 0.66799 0.0
H374 H 0.75837 0.181 0.69232 0.0
H375 H 0.81501 0.23414 0.6891 0.0
H376 H 0.84188 0.25984 0.66226 0.0
H377 H 0.83114 0.30178 0.69491 0.0
H378 H 0.80384 0.27597 0.72068 0.0
H379 H 0.77641 0.22115 0.68929 0.0
H380 H 0.82818 0.25036 0.75243 0.0
H381 H 0.85366 0.27674 0.77735 0.0
H382 H 0.81033 0.28862 0.80576 0.0
H383 H 0.78509 0.26256 0.78049 0.0
C384 C 0.73937 0.19332 0.7656 0.0
C385 C 0.72913 0.19868 0.78184 0.0
C386 C 0.71301 0.18467 0.79676 0.0
C387 C 0.70681 0.16497 0.79584 0.0
C388 C 0.71709 0.15963 0.77954 0.0
C389 C 0.73324 0.17368 0.76462 0.0
C390 C 0.75675 0.20838 0.75023 0.0
C391 C 0.77217 0.22391 0.76299 0.0
C392 C 0.7583 0.20738 0.72332 0.0
C393 C 0.74169 0.19239 0.70843 0.0
C394 C 0.72326 0.1907 0.7092 0.0
C395 C 0.7076 0.17671 0.6951 0.0
C396 C 0.71001 0.16405 0.67991 0.0
C397 C 0.72856 0.16584 0.67916 0.0
C398 C 0.74426 0.17995 0.69316 0.0
C399 C 0.80754 0.25313 0.70715 0.0
C400 C 0.81846 0.24888 0.69042 0.0
C401 C 0.83392 0.26362 0.67524 0.0
C402 C 0.83869 0.2829 0.6764 0.0
C403 C 0.82773 0.28708 0.69325 0.0
C404 C 0.81225 0.27235 0.70829 0.0
C405 C 0.79077 0.23742 0.72273 0.0
C406 C 0.77544 0.22171 0.71 0.0
C407 C 0.78911 0.23849 0.74965 0.0
C408 C 0.80475 0.25456 0.76446 0.0
C409 C 0.82423 0.25876 0.76387 0.0
C410 C 0.83873 0.27373 0.77827 0.0
C411 C 0.83402 0.2848 0.79349 0.0
C412 C 0.8145 0.28055 0.79398 0.0
C413 C 0.80002 0.26555 0.77971 0.0
H414 H 0.58771 0.81708 0.30842 0.0
H415 H 0.58414 0.8402 0.33334 0.0
H416 H 0.5288 0.82211 0.29661 0.0
H417 H 0.53229 0.79889 0.27219 0.0
H418 H 0.56309 0.77698 0.30741 0.0
H419 H 0.58684 0.83192 0.24859 0.0
H420 H 0.58544 0.85734 0.22382 0.0
H421 H 0.53489 0.81361 0.1838 0.0
H422 H 0.536 0.78828 0.20895 0.0
H423 H 0.53326 0.74069 0.21185 0.0
H424 H 0.5301 0.71436 0.18689 0.0
H425 H 0.58211 0.72089 0.22251 0.0
H426 H 0.58559 0.74778 0.24679 0.0
H427 H 0.56109 0.77777 0.21214 0.0
H428 H 0.53155 0.72465 0.27464 0.0
H429 H 0.52839 0.69725 0.29988 0.0
H430 H 0.58584 0.73503 0.33168 0.0
H431 H 0.58862 0.76249 0.30673 0.0
C432 C 0.56036 0.80641 0.2883 0.0
C433 C 0.57482 0.81811 0.30581 0.0
C434 C 0.57282 0.83138 0.31988 0.0
C435 C 0.5562 0.83298 0.31692 0.0
C436 C 0.54168 0.8211 0.29951 0.0
C437 C 0.54373 0.80794 0.28538 0.0
C438 C 0.56239 0.79234 0.27326 0.0
C439 C 0.56307 0.77738 0.28655 0.0
C440 C 0.56184 0.7926 0.24607 0.0
C441 C 0.56141 0.80816 0.23082 0.0
C442 C 0.57533 0.8278 0.23468 0.0
C443 C 0.57456 0.84231 0.2205 0.0
C444 C 0.56008 0.83742 0.20188 0.0
C445 C 0.54635 0.81778 0.19781 0.0
C446 C 0.54697 0.80331 0.21218 0.0
C447 C 0.55959 0.74615 0.23131 0.0
C448 C 0.54405 0.73653 0.21419 0.0
C449 C 0.54215 0.72133 0.20013 0.0
C450 C 0.55577 0.71541 0.20283 0.0
C451 C 0.57144 0.72517 0.21985 0.0
C452 C 0.57335 0.74043 0.23391 0.0
C453 C 0.56125 0.76217 0.24629 0.0
C454 C 0.5614 0.77755 0.23298 0.0
C455 C 0.56214 0.76211 0.27343 0.0
C456 C 0.5604 0.74554 0.28865 0.0
C457 C 0.5435 0.72698 0.28695 0.0
C458 C 0.54177 0.71132 0.30132 0.0
C459 C 0.55692 0.71389 0.31772 0.0
C460 C 0.5738 0.73256 0.31947 0.0
C461 C 0.57547 0.74826 0.30516 0.0
H462 H 0.74296 0.52741 0.72596 0.0
H463 H 0.71645 0.52522 0.6999 0.0
H464 H 0.72277 0.57512 0.73632 0.0
H465 H 0.74955 0.57747 0.76213 0.0
H466 H 0.77992 0.55336 0.72806 0.0
H467 H 0.72619 0.52543 0.7873 0.0
H468 H 0.69809 0.52194 0.81107 0.0
H469 H 0.73708 0.57491 0.84951 0.0
H470 H 0.76506 0.5788 0.82463 0.0
H471 H 0.82045 0.58354 0.82339 0.0
H472 H 0.84579 0.58346 0.84985 0.0
H473 H 0.83322 0.53034 0.81604 0.0
H474 H 0.80749 0.53014 0.79049 0.0
H475 H 0.78104 0.55722 0.82298 0.0
H476 H 0.83566 0.58207 0.75999 0.0
H477 H 0.86089 0.58107 0.73433 0.0
H478 H 0.81595 0.52643 0.70457 0.0
H479 H 0.79098 0.52734 0.73053 0.0
C480 C 0.7482 0.55252 0.74617 0.0
C481 C 0.73874 0.53796 0.72826 0.0
C482 C 0.7236 0.53673 0.71335 0.0
C483 C 0.71754 0.55001 0.71606 0.0
C484 C 0.72697 0.56456 0.73402 0.0
C485 C 0.74226 0.5659 0.74879 0.0
C486 C 0.76446 0.55381 0.7617 0.0
C487 C 0.78005 0.55403 0.74885 0.0
C488 C 0.76473 0.55483 0.78883 0.0
C489 C 0.74772 0.55255 0.80384 0.0
C490 C 0.72867 0.53643 0.80061 0.0
C491 C 0.71262 0.53433 0.81449 0.0
C492 C 0.71527 0.54814 0.83226 0.0
C493 C 0.73443 0.56415 0.83573 0.0
C494 C 0.75048 0.56631 0.82169 0.0
C495 C 0.81222 0.55698 0.80473 0.0
C496 C 0.82317 0.57188 0.82173 0.0
C497 C 0.83775 0.57189 0.83669 0.0
C498 C 0.84156 0.55689 0.83508 0.0
C499 C 0.83054 0.54199 0.81801 0.0
C500 C 0.81596 0.54198 0.80313 0.0
C501 C 0.79646 0.55676 0.78927 0.0
C502 C 0.78096 0.55675 0.80217 0.0
C503 C 0.79591 0.55527 0.76223 0.0
C504 C 0.81145 0.55473 0.74728 0.0
C505 C 0.83131 0.56981 0.74811 0.0
C506 C 0.84567 0.56929 0.7333 0.0
C507 C 0.84042 0.55364 0.71747 0.0
C508 C 0.82053 0.53855 0.71682 0.0
C509 C 0.80621 0.53912 0.73149 0.0
H510 H 0.24453 0.81967 0.21282 0.0
H511 H 0.2717 0.84615 0.18727 0.0
H512 H 0.31062 0.82771 0.21494 0.0
H513 H 0.28355 0.80173 0.24091 0.0
H514 H 0.22903 0.77974 0.20999 0.0
H515 H 0.25967 0.82901 0.27302 0.0
H516 H 0.2868 0.85335 0.29816 0.0
H517 H 0.29765 0.80955 0.328 0.0
H518 H 0.27033 0.78528 0.30313 0.0
H519 H 0.21942 0.73428 0.30167 0.0
H520 H 0.19378 0.70567 0.326 0.0
H521 H 0.1499 0.71712 0.29744 0.0
H522 H 0.17571 0.74591 0.27332 0.0
H523 H 0.2317 0.7722 0.30462 0.0
H524 H 0.20316 0.72333 0.2432 0.0
H525 H 0.17767 0.6978 0.21761 0.0
H526 H 0.16508 0.73897 0.18254 0.0
H527 H 0.19043 0.76448 0.2086 0.0
C528 C 0.26208 0.80887 0.2289 0.0
C529 C 0.25897 0.82145 0.21342 0.0
C530 C 0.2745 0.83651 0.19874 0.0
C531 C 0.29341 0.83912 0.19902 0.0
C532 C 0.29641 0.82642 0.2146 0.0
C533 C 0.28092 0.81148 0.22939 0.0
C534 C 0.24556 0.7926 0.24398 0.0
C535 C 0.22935 0.77824 0.23075 0.0
C536 C 0.24644 0.79043 0.27094 0.0
C537 C 0.26302 0.80532 0.28606 0.0
C538 C 0.26798 0.82469 0.28487 0.0
C539 C 0.28355 0.83861 0.29922 0.0
C540 C 0.29446 0.83345 0.31515 0.0
C541 C 0.2894 0.81401 0.31629 0.0
C542 C 0.27382 0.80011 0.30199 0.0
C543 C 0.19945 0.74214 0.28559 0.0
C544 C 0.20429 0.73067 0.30073 0.0
C545 C 0.18961 0.71425 0.31444 0.0
C546 C 0.16982 0.70912 0.3135 0.0
C547 C 0.16504 0.72079 0.29862 0.0
C548 C 0.17973 0.73715 0.28474 0.0
C549 C 0.21511 0.75929 0.27065 0.0
C550 C 0.23118 0.77379 0.2839 0.0
C551 C 0.21423 0.76142 0.24364 0.0
C552 C 0.19852 0.74581 0.22822 0.0
C553 C 0.1947 0.72683 0.23037 0.0
C554 C 0.18013 0.71223 0.21567 0.0
C555 C 0.16928 0.71633 0.19813 0.0
C556 C 0.17327 0.73538 0.19576 0.0
C557 C 0.18773 0.74996 0.21068 0.0
H558 H 0.46911 0.26098 0.79251 0.0
H559 H 0.47037 0.28637 0.81779 0.0
H560 H 0.42049 0.28055 0.77701 0.0
H561 H 0.41903 0.25483 0.752 0.0
H562 H 0.44328 0.22457 0.78868 0.0
H563 H 0.47241 0.27958 0.73065 0.0
H564 H 0.47561 0.30719 0.70595 0.0
H565 H 0.42325 0.2684 0.66429 0.0
H566 H 0.41963 0.2409 0.68998 0.0
H567 H 0.41862 0.18753 0.691 0.0
H568 H 0.42156 0.16395 0.6664 0.0
H569 H 0.47598 0.18021 0.70457 0.0
H570 H 0.47286 0.20357 0.7291 0.0
H571 H 0.4437 0.22721 0.69331 0.0
H572 H 0.41696 0.17157 0.75354 0.0
H573 H 0.41831 0.14572 0.77732 0.0
H574 H 0.47198 0.18871 0.81293 0.0
H575 H 0.4707 0.21441 0.7889 0.0
C576 C 0.44408 0.25606 0.77018 0.0
C577 C 0.45832 0.26502 0.78913 0.0
C578 C 0.45902 0.27953 0.80359 0.0
C579 C 0.44554 0.28545 0.79937 0.0
C580 C 0.43121 0.27643 0.78048 0.0
C581 C 0.43039 0.26175 0.76617 0.0
C582 C 0.44366 0.24076 0.75478 0.0
C583 C 0.44348 0.22526 0.76782 0.0
C584 C 0.44366 0.24143 0.72753 0.0
C585 C 0.4456 0.2582 0.71244 0.0
C586 C 0.46146 0.27704 0.71645 0.0
C587 C 0.4634 0.2928 0.70207 0.0
C588 C 0.44969 0.29002 0.6831 0.0
C589 C 0.4339 0.27109 0.67899 0.0
C590 C 0.43191 0.25534 0.69351 0.0
C591 C 0.44536 0.1971 0.71214 0.0
C592 C 0.43117 0.18599 0.69401 0.0
C593 C 0.43291 0.17257 0.67992 0.0
C594 C 0.44894 0.1701 0.68364 0.0
C595 C 0.46325 0.18146 0.7016 0.0
C596 C 0.46151 0.19486 0.71561 0.0
C597 C 0.4435 0.21124 0.72727 0.0
C598 C 0.4432 0.22645 0.71417 0.0
C599 C 0.44349 0.21057 0.75445 0.0
C600 C 0.4438 0.19488 0.76937 0.0
C601 C 0.42902 0.17538 0.76645 0.0
C602 C 0.42974 0.16067 0.78013 0.0
C603 C 0.44531 0.16522 0.79686 0.0
C604 C 0.45996 0.18476 0.79992 0.0
C605 C 0.45915 0.19945 0.78639 0.0
H606 H 0.05934 0.51489 0.06636 0.0
H607 H 0.0819 0.50849 0.09068 0.0
H608 H 0.05845 0.45415 0.05351 0.0
H609 H 0.03584 0.46056 0.02935 0.0
H610 H 0.06133 0.4517 0.10779 0.0
H611 H 0.13131 0.51054 0.0618 0.0
H612 H 0.1156 0.51821 0.07428 0.0
H613 H 0.10751 0.50218 0.04795 0.0
C614 C 0.05918 0.50167 0.06341 0.0
C615 C 0.0461 0.48822 0.04608 0.0
C616 C 0.07205 0.49805 0.07714 0.0
C617 C 0.072 0.48096 0.07362 0.0
C618 C 0.05877 0.46745 0.05639 0.0
H619 H 0.15925 0.4549 0.12698 0.0
H620 H 0.13618 0.45948 0.10126 0.0
C621 C 0.04594 0.4711 0.04262 0.0
C622 C 0.08544 0.47696 0.08835 0.0
H623 H 0.1341 0.49384 0.0983 0.0
C624 C 0.07724 0.46086 0.10568 0.0
C625 C 0.10618 0.48882 0.08531 0.0
C626 C 0.11574 0.50582 0.06618 0.0
C627 C 0.08927 0.45655 0.12048 0.0
C628 C 0.10999 0.46875 0.11799 0.0
C629 C 0.11819 0.48461 0.10028 0.0
C630 C 0.12345 0.46537 0.13371 0.0
C631 C 0.07973 0.43889 0.13851 0.0
C632 C 0.12394 0.46724 0.16043 0.0
C633 C 0.13708 0.46464 0.17516 0.0
C634 C 0.14997 0.4601 0.16341 0.0
C635 C 0.14934 0.45814 0.13662 0.0
C636 C 0.13627 0.46086 0.1219 0.0
H637 H 0.06402 0.4287 0.13392 0.0
H638 H 0.08771 0.4311 0.13771 0.0
H639 H 0.08033 0.44348 0.15849 0.0
H640 H 0.11433 0.47095 0.16986 0.0
H641 H 0.13713 0.46612 0.19577 0.0
H642 H 0.58323 0.03973 0.52372 0.0
H643 H 0.61181 0.06212 0.54917 0.0
H644 H 0.57338 0.06867 0.6004 0.0
H645 H 0.54487 0.04657 0.57471 0.0
H646 H 0.62168 0.10337 0.56241 0.0
H647 H 0.60852 0.05279 0.64565 0.0
H648 H 0.5995 0.04434 0.61396 0.0
H649 H 0.5877 0.05335 0.63335 0.0
C650 C 0.58099 0.04601 0.54041 0.0
C651 C 0.562 0.04161 0.5473 0.0
C652 C 0.59723 0.05872 0.5549 0.0
C653 C 0.59463 0.06692 0.57668 0.0
C654 C 0.57562 0.06236 0.58374 0.0
H655 H 0.67072 0.1423 0.69378 0.0
H656 H 0.64322 0.11918 0.66809 0.0
C657 C 0.55942 0.04981 0.56912 0.0
C658 C 0.61185 0.08069 0.5917 0.0
H659 H 0.63453 0.08529 0.64891 0.0
C660 C 0.6246 0.09946 0.58127 0.0
C661 C 0.61542 0.07549 0.61633 0.0
C662 C 0.60218 0.05538 0.62809 0.0
C663 C 0.64072 0.11337 0.59509 0.0
C664 C 0.64449 0.10815 0.61971 0.0
C665 C 0.6317 0.08929 0.63004 0.0
C666 C 0.66138 0.12213 0.63525 0.0
C667 C 0.65315 0.13368 0.58351 0.0
C668 C 0.68081 0.13129 0.62554 0.0
C669 C 0.69658 0.1448 0.64002 0.0
C670 C 0.69329 0.14924 0.66472 0.0
C671 C 0.67382 0.13959 0.67465 0.0
C672 C 0.65806 0.12621 0.66007 0.0
H673 H 0.64509 0.13669 0.56852 0.0
H674 H 0.65783 0.14463 0.59844 0.0
H675 H 0.66656 0.13542 0.57427 0.0
H676 H 0.68381 0.12804 0.60671 0.0
H677 H 0.7113 0.15199 0.63163 0.0
H678 H 0.54188 0.59457 0.03541 0.0
H679 H 0.55033 0.62253 0.06108 0.0
H680 H 0.52047 0.58438 0.12711 0.0
H681 H 0.51177 0.55636 0.1016 0.0
H682 H 0.52425 0.63005 0.08613 0.0
H683 H 0.57428 0.62484 0.15532 0.0
H684 H 0.56741 0.61222 0.1256 0.0
H685 H 0.55077 0.60274 0.15297 0.0
C686 C 0.53708 0.59212 0.05539 0.0
C687 C 0.52619 0.57321 0.06646 0.0
C688 C 0.54202 0.60811 0.07005 0.0
C689 C 0.53629 0.60554 0.09608 0.0
C690 C 0.52545 0.58672 0.10721 0.0
H691 H 0.52182 0.68124 0.19303 0.0
H692 H 0.518 0.65525 0.16655 0.0
C693 C 0.52049 0.57072 0.09259 0.0
C694 C 0.54076 0.62243 0.11129 0.0
H695 H 0.56341 0.64621 0.16554 0.0
C696 C 0.53293 0.63368 0.10339 0.0
C697 C 0.55227 0.62725 0.13363 0.0
C698 C 0.56184 0.61626 0.1423 0.0
C699 C 0.53582 0.64929 0.11765 0.0
C700 C 0.54661 0.65358 0.14058 0.0
C701 C 0.55496 0.64273 0.14808 0.0
C702 C 0.5491 0.66913 0.1572 0.0
C703 C 0.52736 0.6611 0.10802 0.0
C704 C 0.56793 0.6853 0.1613 0.0
C705 C 0.57017 0.70024 0.17638 0.0
C706 C 0.55361 0.6992 0.18775 0.0
C707 C 0.53483 0.68269 0.18412 0.0
C708 C 0.53262 0.66781 0.16902 0.0
H709 H 0.52398 0.65916 0.08724 0.0
H710 H 0.51343 0.65638 0.11878 0.0
H711 H 0.53772 0.67675 0.11112 0.0
H712 H 0.58084 0.68652 0.1524 0.0
H713 H 0.58481 0.7128 0.17863 0.0
H714 H 0.98037 0.55873 0.58108 0.0
H715 H 0.96068 0.56575 0.6096 0.0
H716 H 0.9074 0.51652 0.58225 0.0
H717 H 0.92689 0.50914 0.55408 0.0
H718 H 0.90652 0.55141 0.58593 0.0
H719 H 0.93134 0.53189 0.67544 0.0
H720 H 0.95052 0.54935 0.65373 0.0
H721 H 0.93453 0.52491 0.6441 0.0
C722 C 0.96447 0.54934 0.58119 0.0
C723 C 0.95524 0.53329 0.56537 0.0
C724 C 0.95325 0.55341 0.59746 0.0
C725 C 0.93261 0.54151 0.59824 0.0
C726 C 0.92332 0.52587 0.58193 0.0
H727 H 0.84436 0.5227 0.70989 0.0
H728 H 0.86765 0.52118 0.68097 0.0
C729 C 0.9345 0.52175 0.56572 0.0
C730 C 0.92063 0.54498 0.61646 0.0
H731 H 0.90981 0.54328 0.68035 0.0
C732 C 0.9073 0.54977 0.60658 0.0
C733 C 0.92157 0.5426 0.64336 0.0
C734 C 0.93513 0.53676 0.65491 0.0
C735 C 0.8948 0.55219 0.62294 0.0
C736 C 0.89582 0.5499 0.64985 0.0
C737 C 0.9092 0.54518 0.65971 0.0
C738 C 0.88233 0.55128 0.66799 0.0
C739 C 0.88019 0.55657 0.61129 0.0
C740 C 0.88313 0.56881 0.67062 0.0
C741 C 0.8698 0.56972 0.68711 0.0
C742 C 0.85544 0.55309 0.70123 0.0
C743 C 0.85505 0.53569 0.699 0.0
C744 C 0.86841 0.53482 0.68261 0.0
H745 H 0.87861 0.55411 0.59034 0.0
H746 H 0.86547 0.54748 0.62087 0.0
H747 H 0.88528 0.57199 0.61412 0.0
H748 H 0.89395 0.58175 0.65976 0.0
H749 H 0.8704 0.58331 0.6883 0.0
H750 H 0.41991 0.96432 0.02991 0.0
H751 H 0.39114 0.94252 0.05785 0.0
H752 H 0.42878 0.93478 0.10979 0.0
H753 H 0.45747 0.95628 0.08166 0.0
H754 H 0.3809 0.90082 0.07561 0.0
H755 H 0.39399 0.95183 0.15287 0.0
H756 H 0.40291 0.96012 0.12019 0.0
H757 H 0.41478 0.95124 0.14058 0.0
C758 C 0.42193 0.95792 0.04732 0.0
C759 C 0.44073 0.96178 0.05373 0.0
C760 C 0.40559 0.94556 0.06321 0.0
C761 C 0.40794 0.9372 0.08587 0.0
C762 C 0.42676 0.94125 0.09244 0.0
H763 H 0.33254 0.86178 0.21076 0.0
H764 H 0.35975 0.88551 0.18267 0.0
C765 C 0.44306 0.95345 0.07644 0.0
C766 C 0.39063 0.92364 0.10224 0.0
H767 H 0.3679 0.91936 0.15977 0.0
C768 C 0.37792 0.90484 0.09395 0.0
C769 C 0.38702 0.929 0.12617 0.0
C770 C 0.40028 0.94917 0.1356 0.0
C771 C 0.36181 0.891 0.1093 0.0
C772 C 0.35804 0.89636 0.13324 0.0
C773 C 0.37075 0.91529 0.1414 0.0
C774 C 0.34132 0.88239 0.15042 0.0
C775 C 0.34944 0.87062 0.1001 0.0
C776 C 0.32186 0.87303 0.14183 0.0
C777 C 0.30629 0.85918 0.15767 0.0
C778 C 0.30983 0.85462 0.18262 0.0
C779 C 0.32929 0.86459 0.19149 0.0
C780 C 0.34486 0.87831 0.17553 0.0
H781 H 0.35745 0.8676 0.08536 0.0
H782 H 0.34495 0.85977 0.11629 0.0
H783 H 0.33592 0.86871 0.09122 0.0
H784 H 0.31871 0.87629 0.12274 0.0
H785 H 0.29154 0.85173 0.1501 0.0
H786 H 0.44654 0.42453 0.54503 0.0
H787 H 0.43949 0.39582 0.57148 0.0
H788 H 0.5019 0.42066 0.58151 0.0
H789 H 0.50885 0.44949 0.55567 0.0
H790 H 0.45093 0.36974 0.56406 0.0
H791 H 0.48081 0.4071 0.6551 0.0
H792 H 0.47602 0.41834 0.62795 0.0
H793 H 0.49824 0.41772 0.62871 0.0
C794 C 0.45865 0.4238 0.55312 0.0
C795 C 0.47817 0.43914 0.54876 0.0
C796 C 0.45466 0.40746 0.56811 0.0
C797 C 0.47016 0.40629 0.57887 0.0
C798 C 0.48971 0.42149 0.57396 0.0
H799 H 0.48386 0.32142 0.66327 0.0
H800 H 0.48773 0.34921 0.6381 0.0
C801 C 0.49368 0.43783 0.55911 0.0
C802 C 0.46597 0.38901 0.59477 0.0
H803 H 0.4741 0.37484 0.65356 0.0
C804 C 0.45582 0.3708 0.58371 0.0
C805 C 0.47231 0.39046 0.62043 0.0
C806 C 0.48227 0.40942 0.63386 0.0
C807 C 0.45239 0.35408 0.5974 0.0
C808 C 0.45917 0.35564 0.6228 0.0
C809 C 0.46903 0.37376 0.634 0.0
C810 C 0.45657 0.33869 0.63792 0.0
C811 C 0.44203 0.33494 0.58441 0.0
C812 C 0.43775 0.3237 0.64632 0.0
C813 C 0.43548 0.30787 0.66096 0.0
C814 C 0.45201 0.30679 0.66746 0.0
C815 C 0.47084 0.32191 0.65896 0.0
C816 C 0.47309 0.33774 0.64444 0.0
H817 H 0.44086 0.33676 0.56337 0.0
H818 H 0.44994 0.3272 0.58774 0.0
H819 H 0.42691 0.32568 0.59275 0.0
H820 H 0.42486 0.32435 0.64178 0.0
H821 H 0.42081 0.29664 0.66753 0.0
H822 H 0.5552 0.97253 0.43039 0.0
H823 H 0.56253 0.95157 0.40619 0.0
H824 H 0.50476 0.90243 0.42601 0.0
H825 H 0.49719 0.92325 0.44982 0.0
H826 H 0.56109 0.91651 0.42506 0.0
H827 H 0.50904 0.90316 0.34615 0.0
H828 H 0.5174 0.92306 0.36735 0.0
H829 H 0.4986 0.89896 0.37806 0.0
C830 C 0.54402 0.95728 0.42943 0.0
C831 C 0.52559 0.94955 0.44197 0.0
C832 C 0.54827 0.94534 0.41574 0.0
C833 C 0.5341 0.92553 0.41411 0.0
C834 C 0.5158 0.91774 0.4268 0.0
H835 H 0.52297 0.82662 0.34164 0.0
H836 H 0.51876 0.84968 0.36545 0.0
C837 C 0.51157 0.92962 0.44059 0.0
C838 C 0.53841 0.9129 0.39928 0.0
H839 H 0.52343 0.88398 0.34765 0.0
C840 C 0.55299 0.90949 0.40801 0.0
C841 C 0.52777 0.90379 0.37711 0.0
C842 C 0.51243 0.9075 0.36641 0.0
C843 C 0.55681 0.89667 0.39558 0.0
C844 C 0.54601 0.88738 0.37353 0.0
C845 C 0.53164 0.89107 0.3646 0.0
C846 C 0.54898 0.8734 0.3597 0.0
C847 C 0.57187 0.8927 0.40666 0.0
C848 C 0.56735 0.8791 0.34844 0.0
C849 C 0.5698 0.86592 0.33485 0.0
C850 C 0.55385 0.84687 0.33199 0.0
C851 C 0.53548 0.84124 0.34326 0.0
C852 C 0.53307 0.85438 0.35695 0.0
H853 H 0.57502 0.89694 0.42699 0.0
H854 H 0.56681 0.87712 0.40571 0.0
H855 H 0.58588 0.90124 0.39536 0.0
H856 H 0.57971 0.89384 0.34979 0.0
H857 H 0.58406 0.87076 0.32606 0.0
H858 H 0.57696 0.55162 0.95928 0.0
H859 H 0.60632 0.55816 0.93467 0.0
H860 H 0.58071 0.49671 0.92747 0.0
H861 H 0.5512 0.49027 0.95135 0.0
H862 H 0.63267 0.54729 0.94501 0.0
H863 H 0.59564 0.51634 0.8536 0.0
H864 H 0.58377 0.52115 0.87925 0.0
H865 H 0.5847 0.49947 0.88056 0.0
C866 C 0.57764 0.5396 0.95216 0.0
C867 C 0.56187 0.52049 0.9568 0.0
C868 C 0.59436 0.54331 0.93823 0.0
C869 C 0.59555 0.52794 0.92878 0.0
C870 C 0.57991 0.50881 0.93394 0.0
H871 H 0.68368 0.5146 0.85314 0.0
H872 H 0.65509 0.51064 0.87644 0.0
C873 C 0.56316 0.50512 0.94771 0.0
C874 C 0.61335 0.53186 0.91411 0.0
H875 H 0.62849 0.52314 0.85752 0.0
C876 C 0.63179 0.54217 0.92579 0.0
C877 C 0.61219 0.52523 0.88898 0.0
C878 C 0.59304 0.51511 0.87474 0.0
C879 C 0.649 0.54552 0.91331 0.0
C880 C 0.64772 0.53848 0.88848 0.0
C881 C 0.62936 0.5284 0.87665 0.0
C882 C 0.66524 0.54114 0.87458 0.0
C883 C 0.66836 0.55612 0.92699 0.0
C884 C 0.68034 0.5596 0.86565 0.0
C885 C 0.69663 0.56192 0.85204 0.0
C886 C 0.69811 0.54579 0.8471 0.0
C887 C 0.68291 0.52731 0.85621 0.0
C888 C 0.66661 0.52501 0.86968 0.0
H889 H 0.6663 0.55755 0.94773 0.0
H890 H 0.67644 0.5485 0.92513 0.0
H891 H 0.67768 0.57088 0.91802 0.0
H892 H 0.67939 0.57219 0.86892 0.0
H893 H 0.70786 0.57631 0.84496 0.0
H894 H 0.0579 0.54452 0.43105 0.0
H895 H 0.08075 0.57358 0.4045 0.0
H896 H 0.05745 0.60497 0.43977 0.0
H897 H 0.03485 0.57597 0.46653 0.0
H898 H 0.07241 0.59481 0.36921 0.0
H899 H 0.11682 0.6402 0.44933 0.0
H900 H 0.10009 0.61433 0.45326 0.0
H901 H 0.09078 0.63025 0.45296 0.0
C902 C 0.05781 0.5577 0.43306 0.0
C903 C 0.04489 0.55827 0.45073 0.0
C904 C 0.07077 0.57422 0.41796 0.0
C905 C 0.07099 0.5915 0.42045 0.0
C906 C 0.0578 0.59191 0.43792 0.0
H907 H 0.13988 0.70563 0.34354 0.0
H908 H 0.11488 0.67689 0.36862 0.0
C909 C 0.04487 0.5754 0.45305 0.0
C910 C 0.08486 0.609 0.40454 0.0
H911 H 0.12337 0.65578 0.408 0.0
C912 C 0.08358 0.60813 0.37767 0.0
C913 C 0.0994 0.62636 0.41567 0.0
C914 C 0.10204 0.62787 0.44438 0.0
C915 C 0.09638 0.62423 0.36161 0.0
C916 C 0.11093 0.64153 0.37274 0.0
C917 C 0.11211 0.64248 0.39959 0.0
C918 C 0.12551 0.65864 0.35684 0.0
C919 C 0.09414 0.62272 0.33286 0.0
C920 C 0.13975 0.65784 0.34206 0.0
C921 C 0.15403 0.67419 0.32782 0.0
C922 C 0.1543 0.69163 0.32808 0.0
C923 C 0.1399 0.69233 0.34276 0.0
C924 C 0.1257 0.67599 0.35717 0.0
H925 H 0.07964 0.6101 0.32761 0.0
H926 H 0.09573 0.63611 0.32397 0.0
H927 H 0.10589 0.62095 0.32459 0.0
H928 H 0.13997 0.64462 0.34183 0.0
H929 H 0.16484 0.67317 0.31653 0.0
H930 H 0.49735 0.07621 0.94689 0.0
H931 H 0.4878 0.0953 0.92057 0.0
H932 H 0.43826 0.04288 0.89261 0.0
H933 H 0.44735 0.02353 0.91945 0.0
H934 H 0.46333 0.07267 0.85366 0.0
H935 H 0.43889 0.10053 0.93208 0.0
H936 H 0.46253 0.10319 0.93658 0.0
H937 H 0.44073 0.07937 0.93637 0.0
C938 C 0.4842 0.06868 0.93553 0.0
C939 C 0.47305 0.04831 0.93543 0.0
C940 C 0.47882 0.07963 0.92044 0.0
C941 C 0.46222 0.07046 0.90492 0.0
C942 C 0.4511 0.05018 0.90457 0.0
H943 H 0.41554 0.13339 0.82313 0.0
H944 H 0.41781 0.10848 0.84808 0.0
C945 C 0.45639 0.03918 0.91979 0.0
C946 C 0.45698 0.08219 0.88842 0.0
H947 H 0.44384 0.11588 0.89056 0.0
C948 C 0.45887 0.08198 0.86166 0.0
C949 C 0.45097 0.09412 0.89898 0.0
C950 C 0.44797 0.09426 0.92757 0.0
C951 C 0.45565 0.09403 0.84517 0.0
C952 C 0.45056 0.10664 0.85581 0.0
C953 C 0.44788 0.10627 0.88251 0.0
C954 C 0.44887 0.12102 0.83968 0.0
C955 C 0.4579 0.09334 0.81652 0.0
C956 C 0.4656 0.13628 0.82684 0.0
C957 C 0.46437 0.1505 0.81269 0.0
C958 C 0.44637 0.1497 0.81114 0.0
C959 C 0.42956 0.13426 0.82379 0.0
C960 C 0.43084 0.12009 0.83811 0.0
H961 H 0.45691 0.07972 0.8112 0.0
H962 H 0.44645 0.0946 0.80612 0.0
H963 H 0.47256 0.10569 0.80998 0.0
H964 H 0.47971 0.13737 0.82813 0.0
H965 H 0.47752 0.16214 0.80296 0.0
H966 H 0.42895 0.45568 0.41351 0.0
H967 H 0.40144 0.44869 0.38558 0.0
H968 H 0.39708 0.49395 0.4197 0.0
H969 H 0.42473 0.50129 0.44735 0.0
H970 H 0.36036 0.45782 0.41553 0.0
H971 H 0.4038 0.48359 0.32358 0.0
H972 H 0.40635 0.46628 0.34292 0.0
H973 H 0.41522 0.48999 0.35457 0.0
C974 C 0.42228 0.46428 0.4149 0.0
C975 C 0.42909 0.47908 0.43266 0.0
C976 C 0.40654 0.46023 0.39897 0.0
C977 C 0.39738 0.47093 0.40045 0.0
C978 C 0.40396 0.48553 0.4183 0.0
H979 H 0.3218 0.48738 0.30003 0.0
H980 H 0.34847 0.48967 0.32594 0.0
C981 C 0.4197 0.48962 0.43418 0.0
C982 C 0.38083 0.46694 0.38352 0.0
H983 H 0.36947 0.47013 0.32103 0.0
C984 C 0.36228 0.46038 0.39485 0.0
C985 C 0.3835 0.47047 0.3566 0.0
C986 C 0.4033 0.47811 0.34359 0.0
C987 C 0.34632 0.45739 0.37995 0.0
C988 C 0.34897 0.46089 0.35302 0.0
C989 C 0.36748 0.46732 0.34167 0.0
C990 C 0.33301 0.45908 0.33653 0.0
C991 C 0.3269 0.4511 0.39321 0.0
C992 C 0.31561 0.44106 0.33357 0.0
C993 C 0.3003 0.43971 0.31885 0.0
C994 C 0.30214 0.45639 0.30686 0.0
C995 C 0.31981 0.47433 0.30937 0.0
C996 C 0.3351 0.47564 0.32401 0.0
H997 H 0.32839 0.45266 0.41435 0.0
H998 H 0.32072 0.45969 0.38554 0.0
H999 H 0.3162 0.43563 0.38954 0.0
H1000 H 0.31383 0.42807 0.34284 0.0
H1001 H 0.28685 0.4257 0.31736 0.0
H1002 H 0.9248 0.4181 0.95245 0.0
H1003 H 0.90431 0.39063 0.92571 0.0
H1004 H 0.95632 0.3941 0.89499 0.0
H1005 H 0.97701 0.4214 0.9221 0.0
H1006 H 0.92969 0.39244 0.85727 0.0
H1007 H 0.89158 0.33432 0.93329 0.0
H1008 H 0.89073 0.35563 0.93846 0.0
H1009 H 0.91401 0.35711 0.93891 0.0
C1010 C 0.93192 0.4128 0.94045 0.0
C1011 C 0.9526 0.42198 0.93955 0.0
C1012 C 0.92015 0.39711 0.92511 0.0
C1013 C 0.92878 0.3902 0.90858 0.0
C1014 C 0.94937 0.3992 0.90767 0.0
H1015 H 0.86215 0.28427 0.82308 0.0
H1016 H 0.88646 0.30993 0.84999 0.0
C1017 C 0.96117 0.41487 0.9231 0.0
C1018 C 0.91631 0.37421 0.89135 0.0
H1019 H 0.87832 0.32697 0.89128 0.0
C1020 C 0.91856 0.37808 0.86467 0.0
C1021 C 0.90195 0.35544 0.90106 0.0
C1022 C 0.89948 0.35025 0.92949 0.0
C1023 C 0.90639 0.36383 0.84746 0.0
C1024 C 0.89149 0.3453 0.85722 0.0
C1025 C 0.88966 0.34124 0.88386 0.0
C1026 C 0.87731 0.33008 0.84015 0.0
C1027 C 0.90958 0.36871 0.81896 0.0
C1028 C 0.86408 0.3329 0.82579 0.0
C1029 C 0.85022 0.31831 0.81041 0.0
C1030 C 0.84928 0.30058 0.80911 0.0
C1031 C 0.86266 0.29785 0.82341 0.0
C1032 C 0.87646 0.31243 0.8389 0.0
H1033 H 0.92451 0.38151 0.81444 0.0
H1034 H 0.90764 0.35626 0.80823 0.0
H1035 H 0.89856 0.37214 0.81203 0.0
H1036 H 0.86429 0.34631 0.82677 0.0
H1037 H 0.84023 0.32093 0.7995 0.0
H1038 H 0.93985 0.51922 0.99099 0.0
H1039 H 0.92144 0.53126 0.96946 0.0
H1040 H 0.96729 0.55973 0.91144 0.0
H1041 H 0.98551 0.54719 0.93271 0.0
H1042 H 0.92726 0.56652 0.95071 0.0
H1043 H 0.91903 0.5195 0.87025 0.0
H1044 H 0.92799 0.51737 0.90122 0.0
H1045 H 0.9439 0.53688 0.87892 0.0
C1046 C 0.94535 0.52637 0.97247 0.0
C1047 C 0.96188 0.52777 0.96008 0.0
C1048 C 0.93518 0.53425 0.96081 0.0
C1049 C 0.9421 0.54491 0.93747 0.0
C1050 C 0.96081 0.55011 0.92828 0.0
H1051 H 0.87825 0.58744 0.84686 0.0
H1052 H 0.90352 0.58642 0.87243 0.0
C1053 C 0.97087 0.54215 0.94001 0.0
C1054 C 0.9291 0.5491 0.92191 0.0
H1055 H 0.90323 0.53693 0.8663 0.0
C1056 C 0.92214 0.56024 0.93213 0.0
C1057 C 0.92224 0.54063 0.89784 0.0
C1058 C 0.9285 0.52779 0.8864 0.0
C1059 C 0.90834 0.56299 0.91896 0.0
C1060 C 0.90145 0.55443 0.89498 0.0
C1061 C 0.90863 0.54354 0.88465 0.0
C1062 C 0.88591 0.55552 0.88085 0.0
C1063 C 0.90068 0.57442 0.93114 0.0
C1064 C 0.8677 0.53848 0.87701 0.0
C1065 C 0.85326 0.539 0.86249 0.0
C1066 C 0.85677 0.55658 0.85131 0.0
C1067 C 0.87497 0.5737 0.85545 0.0
C1068 C 0.88943 0.57316 0.87006 0.0
H1069 H 0.90487 0.57721 0.9516 0.0
H1070 H 0.90687 0.58858 0.92051 0.0
H1071 H 0.88436 0.56662 0.93002 0.0
H1072 H 0.8647 0.52472 0.88519 0.0
H1073 H 0.83931 0.5256 0.86009 0.0
H1074 H 0.42564 0.97487 0.44902 0.0
H1075 H 0.39788 0.95182 0.42308 0.0
H1076 H 0.42147 0.91468 0.42262 0.0
H1077 H 0.44945 0.938 0.44798 0.0
H1078 H 0.40982 0.91933 0.37504 0.0
H1079 H 0.35062 0.90001 0.4475 0.0
H1080 H 0.36567 0.92552 0.43977 0.0
H1081 H 0.37642 0.91323 0.45532 0.0
C1082 C 0.42481 0.96177 0.44328 0.0
C1083 C 0.43957 0.95812 0.4503 0.0
C1084 C 0.40892 0.94856 0.42868 0.0
C1085 C 0.40742 0.93137 0.42122 0.0
C1086 C 0.42227 0.9278 0.42822 0.0
H1087 H 0.30423 0.82918 0.36441 0.0
H1088 H 0.33186 0.85308 0.38927 0.0
C1089 C 0.43819 0.94105 0.44269 0.0
C1090 C 0.39061 0.91724 0.40573 0.0
H1091 H 0.34037 0.88812 0.40574 0.0
C1092 C 0.39463 0.91248 0.38176 0.0
C1093 C 0.37081 0.90812 0.41466 0.0
C1094 C 0.36557 0.91181 0.44082 0.0
C1095 C 0.37942 0.89899 0.36638 0.0
C1096 C 0.35958 0.8903 0.37498 0.0
C1097 C 0.35556 0.89493 0.39905 0.0
C1098 C 0.3428 0.87591 0.35965 0.0
C1099 C 0.38478 0.89384 0.34138 0.0
C1100 C 0.33959 0.88085 0.3348 0.0
C1101 C 0.32392 0.86712 0.32038 0.0
C1102 C 0.31101 0.84821 0.33059 0.0
C1103 C 0.31407 0.84346 0.35571 0.0
C1104 C 0.32978 0.85717 0.37006 0.0
H1105 H 0.40036 0.89766 0.34096 0.0
H1106 H 0.37508 0.87813 0.33807 0.0
H1107 H 0.38295 0.90203 0.32527 0.0
H1108 H 0.3492 0.89533 0.32655 0.0
H1109 H 0.32211 0.87127 0.30107 0.0
H1110 H 0.47946 0.44301 0.89954 0.0
H1111 H 0.47143 0.41579 0.87281 0.0
H1112 H 0.45492 0.37807 0.94063 0.0
H1113 H 0.46181 0.40494 0.96743 0.0
H1114 H 0.48805 0.39461 0.87219 0.0
H1115 H 0.40847 0.34616 0.89605 0.0
H1116 H 0.42232 0.37121 0.90465 0.0
H1117 H 0.42344 0.35305 0.92405 0.0
C1118 C 0.47367 0.42885 0.90879 0.0
C1119 C 0.47118 0.42621 0.9357 0.0
C1120 C 0.46926 0.41332 0.89346 0.0
C1121 C 0.46226 0.3948 0.90465 0.0
C1122 C 0.45984 0.3921 0.93148 0.0
H1123 H 0.45006 0.2898 0.85119 0.0
H1124 H 0.45344 0.31649 0.87596 0.0
C1125 C 0.46409 0.40759 0.94683 0.0
C1126 C 0.45852 0.37859 0.88834 0.0
H1127 H 0.42392 0.33199 0.87407 0.0
C1128 C 0.47395 0.38101 0.87242 0.0
C1129 C 0.4401 0.36083 0.88859 0.0
C1130 C 0.42258 0.35769 0.90405 0.0
C1131 C 0.47161 0.366 0.85726 0.0
C1132 C 0.45341 0.34816 0.85805 0.0
C1133 C 0.43789 0.34573 0.87368 0.0
C1134 C 0.45046 0.33171 0.84313 0.0
C1135 C 0.4887 0.3691 0.84083 0.0
C1136 C 0.44744 0.33143 0.81657 0.0
C1137 C 0.44545 0.3162 0.80238 0.0
C1138 C 0.4466 0.3011 0.81455 0.0
C1139 C 0.44934 0.30134 0.84126 0.0
C1140 C 0.45116 0.31648 0.85544 0.0
H1141 H 0.50243 0.38321 0.8441 0.0
H1142 H 0.49152 0.35726 0.84487 0.0
H1143 H 0.48494 0.36867 0.82023 0.0
H1144 H 0.44684 0.3431 0.80681 0.0
H1145 H 0.44351 0.31648 0.78181 0.0
H1146 H 0.01834 0.44203 0.43003 0.0
H1147 H 0.03865 0.43544 0.40198 0.0
H1148 H 0.09103 0.48669 0.42723 0.0
H1149 H 0.07095 0.49357 0.45492 0.0
H1150 H 0.0648 0.45985 0.36156 0.0
H1151 H 0.1041 0.44416 0.43706 0.0
H1152 H 0.08182 0.44405 0.44373 0.0
H1153 H 0.10514 0.46659 0.44065 0.0
C1154 C 0.03418 0.45191 0.42962 0.0
C1155 C 0.04299 0.46827 0.44492 0.0
C1156 C 0.04576 0.44807 0.41366 0.0
C1157 C 0.06636 0.46041 0.41283 0.0
C1158 C 0.07519 0.47672 0.42803 0.0
H1159 H 0.15715 0.48259 0.30363 0.0
H1160 H 0.13246 0.48289 0.33129 0.0
C1161 C 0.06366 0.4806 0.44392 0.0
C1162 C 0.07867 0.45678 0.39533 0.0
H1163 H 0.11723 0.44967 0.39423 0.0
C1164 C 0.07613 0.45743 0.3687 0.0
C1165 C 0.09334 0.45347 0.40469 0.0
C1166 C 0.09619 0.45183 0.4331 0.0
C1167 C 0.08839 0.45558 0.35117 0.0
C1168 C 0.10355 0.45307 0.36053 0.0
C1169 C 0.10565 0.45172 0.38714 0.0
C1170 C 0.11788 0.45255 0.343 0.0
C1171 C 0.08518 0.45645 0.32273 0.0
C1172 C 0.11786 0.43539 0.34054 0.0
C1173 C 0.1319 0.43516 0.32467 0.0
C1174 C 0.14638 0.45217 0.31133 0.0
C1175 C 0.14628 0.4693 0.31382 0.0
C1176 C 0.13212 0.46947 0.32945 0.0
H1177 H 0.07069 0.45477 0.31872 0.0
H1178 H 0.09696 0.47067 0.3143 0.0
H1179 H 0.08605 0.44497 0.31296 0.0
H1180 H 0.10703 0.42222 0.35099 0.0
H1181 H 0.13173 0.4218 0.32333 0.0
H1182 H 0.54974 0.05988 0.93472 0.0
H1183 H 0.57724 0.08214 0.90543 0.0
H1184 H 0.60619 0.05091 0.92313 0.0
H1185 H 0.57854 0.02854 0.95222 0.0
H1186 H 0.61699 0.10599 0.91733 0.0
H1187 H 0.60687 0.05336 0.84428 0.0
H1188 H 0.58803 0.04829 0.86796 0.0
H1189 H 0.60871 0.04632 0.87674 0.0
C1190 C 0.56197 0.05779 0.93213 0.0
C1191 C 0.56213 0.04255 0.94536 0.0
C1192 C 0.57762 0.07045 0.9155 0.0
C1193 C 0.5936 0.06798 0.91182 0.0
C1194 C 0.59381 0.05281 0.92527 0.0
H1195 H 0.70349 0.13385 0.82304 0.0
H1196 H 0.67605 0.11019 0.8511 0.0
C1197 C 0.57814 0.04014 0.94192 0.0
C1198 C 0.6103 0.08172 0.89453 0.0
H1199 H 0.63559 0.0848 0.83978 0.0
C1200 C 0.62103 0.10138 0.90033 0.0
C1201 C 0.61557 0.07562 0.87243 0.0
C1202 C 0.60411 0.05478 0.86477 0.0
C1203 C 0.63701 0.11512 0.88474 0.0
C1204 C 0.64217 0.10907 0.86253 0.0
C1205 C 0.63157 0.08938 0.85682 0.0
C1206 C 0.65846 0.12302 0.84487 0.0
C1207 C 0.64844 0.13596 0.89242 0.0
C1208 C 0.65745 0.13781 0.83167 0.0
C1209 C 0.67303 0.15128 0.81554 0.0
C1210 C 0.6899 0.15016 0.81219 0.0
C1211 C 0.69065 0.13503 0.825 0.0
C1212 C 0.67503 0.12155 0.84114 0.0
H1213 H 0.64587 0.13733 0.913 0.0
H1214 H 0.66451 0.14254 0.88893 0.0
H1215 H 0.64366 0.14437 0.8807 0.0
H1216 H 0.64458 0.13893 0.83385 0.0
H1217 H 0.67181 0.16252 0.80557 0.0
H1218 H 0.50697 0.54912 0.42485 0.0
H1219 H 0.51476 0.57787 0.39814 0.0
H1220 H 0.55606 0.61457 0.45458 0.0
H1221 H 0.54872 0.58573 0.48082 0.0
H1222 H 0.50957 0.60701 0.40992 0.0
H1223 H 0.58886 0.63659 0.38914 0.0
H1224 H 0.57261 0.61242 0.40268 0.0
H1225 H 0.58271 0.63295 0.42286 0.0
C1226 C 0.51784 0.56337 0.43131 0.0
C1227 C 0.52726 0.56538 0.45475 0.0
C1228 C 0.52225 0.57973 0.41615 0.0
C1229 C 0.53619 0.59836 0.42419 0.0
C1230 C 0.54561 0.60034 0.4477 0.0
H1231 H 0.568 0.71325 0.36748 0.0
H1232 H 0.56364 0.68537 0.39311 0.0
C1233 C 0.5413 0.58395 0.46277 0.0
C1234 C 0.54015 0.61566 0.40848 0.0
H1235 H 0.57666 0.65694 0.37744 0.0
C1236 C 0.52422 0.61786 0.40271 0.0
C1237 C 0.5593 0.62982 0.39909 0.0
C1238 C 0.57682 0.62778 0.40353 0.0
C1239 C 0.52695 0.63392 0.38804 0.0
C1240 C 0.54607 0.64809 0.37887 0.0
C1241 C 0.56203 0.64601 0.38465 0.0
C1242 C 0.54963 0.66507 0.36294 0.0
C1243 C 0.50944 0.6358 0.3826 0.0
C1244 C 0.54347 0.66284 0.33741 0.0
C1245 C 0.54613 0.67874 0.32261 0.0
C1246 C 0.55492 0.69716 0.33313 0.0
C1247 C 0.56139 0.69935 0.35866 0.0
C1248 C 0.55882 0.68344 0.37339 0.0
H1249 H 0.4962 0.62516 0.39427 0.0
H1250 H 0.51299 0.65064 0.38654 0.0
H1251 H 0.5058 0.63335 0.36196 0.0
H1252 H 0.53651 0.64876 0.329 0.0
H1253 H 0.54133 0.67659 0.30289 0.0
H1254 H 0.48645 0.04776 0.59263 0.0
H1255 H 0.47945 0.06914 0.61596 0.0
H1256 H 0.45777 0.08147 0.54664 0.0
H1257 H 0.46405 0.05952 0.52332 0.0
H1258 H 0.49519 0.10829 0.60611 0.0
H1259 H 0.41363 0.06759 0.59887 0.0
H1260 H 0.42803 0.05695 0.592 0.0
H1261 H 0.42667 0.07299 0.56862 0.0
C1262 C 0.47984 0.05472 0.58242 0.0
C1263 C 0.47569 0.0518 0.55611 0.0
C1264 C 0.47599 0.06706 0.59575 0.0
C1265 C 0.46784 0.07669 0.58313 0.0
C1266 C 0.46372 0.07389 0.55688 0.0
H1267 H 0.44173 0.16238 0.63256 0.0
H1268 H 0.44609 0.13966 0.60797 0.0
C1269 C 0.46754 0.06152 0.54351 0.0
C1270 C 0.46444 0.09025 0.5973 0.0
H1271 H 0.42876 0.09879 0.61622 0.0
C1272 C 0.48066 0.10618 0.6084 0.0
C1273 C 0.44548 0.0875 0.60016 0.0
C1274 C 0.4274 0.07025 0.58949 0.0
C1275 C 0.47846 0.11953 0.62211 0.0
C1276 C 0.45949 0.1167 0.62513 0.0
C1277 C 0.44328 0.10089 0.61385 0.0
C1278 C 0.45618 0.12992 0.64024 0.0
C1279 C 0.49652 0.13671 0.63293 0.0
C1280 C 0.46002 0.13164 0.66662 0.0
C1281 C 0.45745 0.14451 0.68074 0.0
C1282 C 0.45091 0.15586 0.66876 0.0
C1283 C 0.44663 0.15375 0.64242 0.0
C1284 C 0.4492 0.14085 0.62831 0.0
H1285 H 0.51031 0.13941 0.62356 0.0
H1286 H 0.4959 0.15002 0.63054 0.0
H1287 H 0.4972 0.13388 0.65379 0.0
H1288 H 0.46501 0.12301 0.6763 0.0
H1289 H 0.46049 0.14548 0.70109 0.0
H1290 H 0.44703 0.50954 0.0547 0.0
H1291 H 0.41793 0.50396 0.07898 0.0
H1292 H 0.38957 0.44251 0.06884 0.0
H1293 H 0.41865 0.44813 0.04435 0.0
H1294 H 0.37719 0.48391 0.06044 0.0
H1295 H 0.38634 0.44862 0.14828 0.0
H1296 H 0.40645 0.46353 0.12581 0.0
H1297 H 0.38769 0.4394 0.1179 0.0
C1298 C 0.43457 0.49487 0.05781 0.0
C1299 C 0.43501 0.47922 0.04799 0.0
C1300 C 0.41801 0.4917 0.0716 0.0
C1301 C 0.40172 0.47281 0.07593 0.0
C1302 C 0.40212 0.45716 0.06602 0.0
H1303 H 0.29151 0.42879 0.16253 0.0
H1304 H 0.31873 0.4319 0.13669 0.0
C1305 C 0.41864 0.46035 0.05207 0.0
C1306 C 0.38415 0.46962 0.0903 0.0
H1307 H 0.35795 0.45068 0.14671 0.0
C1308 C 0.37295 0.47665 0.0793 0.0
C1309 C 0.37862 0.46001 0.11478 0.0
C1310 C 0.39042 0.45253 0.12759 0.0
C1311 C 0.35626 0.47425 0.09211 0.0
C1312 C 0.35096 0.46504 0.11691 0.0
C1313 C 0.36204 0.45778 0.12775 0.0
C1314 C 0.33423 0.46315 0.13215 0.0
C1315 C 0.34429 0.48132 0.07874 0.0
C1316 C 0.33396 0.47968 0.13842 0.0
C1317 C 0.31831 0.47794 0.15291 0.0
C1318 C 0.30266 0.45962 0.16176 0.0
C1319 C 0.30311 0.44309 0.1557 0.0
C1320 C 0.31875 0.44485 0.14109 0.0
H1321 H 0.34655 0.48242 0.05753 0.0
H1322 H 0.3283 0.47155 0.08326 0.0
H1323 H 0.34901 0.49598 0.08527 0.0
H1324 H 0.34595 0.49398 0.13224 0.0
H1325 H 0.31841 0.49097 0.15696 0.0
H1326 H 0.98614 0.43949 0.57256 0.0
H1327 H 0.96845 0.4079 0.59421 0.0
H1328 H 0.92211 0.38902 0.53937 0.0
H1329 H 0.93995 0.42031 0.51748 0.0
H1330 H 0.93257 0.39527 0.61805 0.0
H1331 H 0.92539 0.3416 0.54955 0.0
H1332 H 0.94294 0.36726 0.54454 0.0
H1333 H 0.9176 0.35692 0.53562 0.0
C1334 C 0.97155 0.42932 0.56603 0.0
C1335 C 0.96234 0.43437 0.54678 0.0
C1336 C 0.96182 0.41079 0.57789 0.0
C1337 C 0.94331 0.39638 0.56948 0.0
C1338 C 0.93596 0.40014 0.54711 0.0
H1339 H 0.8391 0.31317 0.65104 0.0
H1340 H 0.8661 0.33988 0.62577 0.0
C1341 C 0.9458 0.41869 0.53533 0.0
C1342 C 0.93069 0.37855 0.58569 0.0
H1343 H 0.9007 0.3293 0.5841 0.0
C1344 C 0.92591 0.38083 0.61075 0.0
C1345 C 0.92205 0.35969 0.57626 0.0
C1346 C 0.92743 0.35621 0.5501 0.0
C1347 C 0.91197 0.36491 0.62612 0.0
C1348 C 0.90241 0.34621 0.61608 0.0
C1349 C 0.9079 0.34372 0.59158 0.0
C1350 C 0.88588 0.32939 0.63035 0.0
C1351 C 0.90721 0.36823 0.65279 0.0
C1352 C 0.88798 0.31447 0.64088 0.0
C1353 C 0.87261 0.29923 0.65563 0.0
C1354 C 0.85485 0.29863 0.65994 0.0
C1355 C 0.8527 0.31338 0.64865 0.0
C1356 C 0.86806 0.3286 0.63405 0.0
H1357 H 0.91894 0.38244 0.65984 0.0
H1358 H 0.89321 0.36806 0.65245 0.0
H1359 H 0.90523 0.35657 0.66658 0.0
H1360 H 0.90165 0.31487 0.6382 0.0
H1361 H 0.87482 0.28819 0.66418 0.0
H1362 H 0.53653 0.94203 0.03492 0.0
H1363 H 0.54399 0.9217 0.06213 0.0
H1364 H 0.53556 0.94598 0.12975 0.0
H1365 H 0.52698 0.96555 0.10282 0.0
H1366 H 0.57266 0.93064 0.09686 0.0
H1367 H 0.49905 0.88869 0.14543 0.0
H1368 H 0.50387 0.9044 0.11746 0.0
H1369 H 0.51109 0.91437 0.14873 0.0
C1370 C 0.536 0.94288 0.05559 0.0
C1371 C 0.53092 0.95529 0.06664 0.0
C1372 C 0.54046 0.93138 0.07111 0.0
C1373 C 0.53997 0.93205 0.09798 0.0
C1374 C 0.53559 0.9449 0.10908 0.0
H1375 H 0.56193 0.86958 0.21972 0.0
H1376 H 0.5586 0.8939 0.19488 0.0
C1377 C 0.53096 0.95629 0.09359 0.0
C1378 C 0.54392 0.91921 0.11431 0.0
H1379 H 0.52363 0.8832 0.16124 0.0
C1380 C 0.56194 0.92026 0.11092 0.0
C1381 C 0.52987 0.90563 0.1326 0.0
C1382 C 0.50981 0.90302 0.13615 0.0
C1383 C 0.56629 0.90814 0.12541 0.0
C1384 C 0.55227 0.89464 0.14366 0.0
C1385 C 0.53438 0.89371 0.1473 0.0
C1386 C 0.55547 0.88071 0.15838 0.0
C1387 C 0.58585 0.90981 0.12121 0.0
C1388 C 0.55477 0.86531 0.14598 0.0
C1389 C 0.55654 0.85139 0.16008 0.0
C1390 C 0.55912 0.8527 0.18681 0.0
C1391 C 0.56014 0.86834 0.19911 0.0
C1392 C 0.55818 0.88216 0.18501 0.0
H1393 H 0.59646 0.92325 0.10998 0.0
H1394 H 0.59245 0.90961 0.13992 0.0
H1395 H 0.58351 0.8972 0.11051 0.0
H1396 H 0.55249 0.86389 0.12546 0.0
H1397 H 0.55584 0.83956 0.1501 0.0
H1398 H 0.55796 0.51837 0.60802 0.0
H1399 H 0.58537 0.52576 0.63616 0.0
H1400 H 0.6238 0.54029 0.56988 0.0
H1401 H 0.59675 0.53388 0.54162 0.0
H1402 H 0.60634 0.50843 0.6393 0.0
H1403 H 0.65664 0.58641 0.61339 0.0
H1404 H 0.63111 0.5731 0.60432 0.0
H1405 H 0.6493 0.57149 0.58599 0.0
C1406 C 0.57233 0.52354 0.5994 0.0
C1407 C 0.57514 0.52563 0.57251 0.0
C1408 C 0.58795 0.5276 0.61553 0.0
C1409 C 0.60672 0.53387 0.60516 0.0
C1410 C 0.60957 0.5359 0.57836 0.0
H1411 H 0.71253 0.54426 0.66453 0.0
H1412 H 0.68539 0.54087 0.63844 0.0
C1413 C 0.59399 0.53194 0.5622 0.0
C1414 C 0.62304 0.53737 0.62234 0.0
H1415 H 0.67054 0.57098 0.63745 0.0
C1416 C 0.6203 0.52217 0.63907 0.0
C1417 C 0.64124 0.55535 0.62208 0.0
C1418 C 0.64472 0.57258 0.60567 0.0
C1419 C 0.63543 0.5243 0.65504 0.0
C1420 C 0.65373 0.54206 0.65425 0.0
C1421 C 0.65646 0.55736 0.63784 0.0
C1422 C 0.67034 0.54477 0.66998 0.0
C1423 C 0.63202 0.50748 0.67232 0.0
C1424 C 0.67085 0.54826 0.69625 0.0
C1425 C 0.68633 0.55024 0.7112 0.0
C1426 C 0.70146 0.54863 0.7001 0.0
C1427 C 0.70096 0.54534 0.67367 0.0
C1428 C 0.68557 0.54351 0.65873 0.0
H1429 H 0.61746 0.49416 0.66928 0.0
H1430 H 0.64378 0.50433 0.66889 0.0
H1431 H 0.63278 0.51136 0.69272 0.0
H1432 H 0.65918 0.54928 0.70519 0.0
H1433 H 0.68625 0.55262 0.73154 0.0
H1434 H 0.02392 0.57772 0.07585 0.0
H1435 H 0.04598 0.60466 0.10258 0.0
H1436 H 0.09635 0.60941 0.06422 0.0
H1437 H 0.07451 0.58191 0.03841 0.0
H1438 H 0.10023 0.60995 0.11524 0.0
H1439 H 0.07846 0.66205 0.08476 0.0
H1440 H 0.05813 0.63912 0.0966 0.0
H1441 H 0.07116 0.64038 0.06766 0.0
C1442 C 0.03968 0.58445 0.07309 0.0
C1443 C 0.04736 0.5776 0.05481 0.0
C1444 C 0.0523 0.60005 0.08819 0.0
C1445 C 0.07286 0.6093 0.08516 0.0
C1446 C 0.08055 0.60262 0.0668 0.0
H1447 H 0.16322 0.71857 0.14668 0.0
H1448 H 0.13947 0.69258 0.11979 0.0
C1449 C 0.06799 0.58697 0.05184 0.0
C1450 C 0.08643 0.6253 0.10188 0.0
H1451 H 0.09936 0.67032 0.12081 0.0
C1452 C 0.10006 0.62317 0.11639 0.0
C1453 C 0.08639 0.64266 0.10319 0.0
C1454 C 0.07289 0.64632 0.08704 0.0
C1455 C 0.11354 0.6378 0.13225 0.0
C1456 C 0.11308 0.6549 0.13421 0.0
C1457 C 0.09957 0.65713 0.11954 0.0
C1458 C 0.12684 0.67083 0.15088 0.0
C1459 C 0.12847 0.63497 0.14623 0.0
C1460 C 0.12737 0.66739 0.1774 0.0
C1461 C 0.141 0.68219 0.19278 0.0
C1462 C 0.15419 0.70083 0.18201 0.0
C1463 C 0.15318 0.70441 0.15559 0.0
C1464 C 0.13965 0.68955 0.14019 0.0
H1465 H 0.13049 0.62391 0.13719 0.0
H1466 H 0.14302 0.64875 0.1466 0.0
H1467 H 0.12325 0.62989 0.16636 0.0
H1468 H 0.11729 0.65322 0.18623 0.0
H1469 H 0.14116 0.67907 0.21314 0.0
loop_
_geom_bond_atom_site_label_1
_geom_bond_atom_site_label_2
_geom_bond_distance
_geom_bond_site_symmetry_2
_ccdc_geom_bond_type
C0 C1 1.443 1_556 S
C0 N4 1.376 1_556 S
C0 C38 1.389 . S
C1 C0 1.443 1_554 S
C1 C2 1.340 . S
C1 H41 0.951 1_554 S
C2 C1 1.340 . S
C2 C3 1.439 . S
C2 H42 0.950 . S
C3 C2 1.439 . S
C3 N4 1.374 . S
C3 C37 1.395 . S
N4 C0 1.376 1_554 S
N4 C3 1.374 . S
N4 Co5 1.991 1_655 S
Co5 N4 1.991 1_455 S
Co5 N6 2.009 1_455 S
Co5 N11 2.025 1_554 S
Co5 N16 1.980 1_554 S
Co5 N21 2.292 . S
Co5 N27 2.273 1_454 S
N6 Co5 2.009 1_655 S
N6 C7 1.376 . S
N6 C10 1.383 1_655 S
C7 N6 1.376 . S
C7 C8 1.446 . S
C7 C37 1.391 . S
C8 C7 1.446 . S
C8 C9 1.339 1_655 S
C8 H43 0.949 . S
C9 C8 1.339 1_455 S
C9 C10 1.439 . S
C9 H44 0.950 . S
C10 N6 1.383 1_455 S
C10 C9 1.439 . S
C10 C39 1.392 . S
N11 Co5 2.025 1_556 S
N11 C12 1.376 1_556 S
N11 C15 1.374 . S
C12 N11 1.376 1_554 S
C12 C13 1.429 1_554 S
C12 C39 1.389 . S
C13 C12 1.429 1_556 S
C13 C14 1.378 . S
C13 H45 0.934 1_556 S
C14 C13 1.378 . S
C14 C15 1.439 . S
C14 H46 0.950 . S
C15 N11 1.374 . S
C15 C14 1.439 . S
C15 C40 1.395 . S
N16 Co5 1.980 1_556 S
N16 C17 1.376 . S
N16 C20 1.383 1_455 S
C17 N16 1.376 . S
C17 C18 1.446 . S
C17 C40 1.391 . S
C18 C17 1.446 . S
C18 C19 1.339 1_455 S
C18 H47 0.949 . S
C19 C18 1.339 1_655 S
C19 C20 1.439 . S
C19 H48 0.950 . S
C20 N16 1.383 1_655 S
C20 C19 1.439 . S
C20 C38 1.392 . S
N21 Co5 2.292 . S
N21 C24 1.332 . S
N21 C26 1.332 . S
C22 C23 1.386 . S
C22 C25 1.388 . S
C23 C22 1.386 . S
C23 C24 1.382 . S
C23 H49 0.950 . S
C24 N21 1.332 . S
C24 C23 1.382 . S
C24 H35 0.952 1_554 S
C25 C22 1.388 . S
C25 C26 1.382 . S
C25 H50 0.950 . S
C26 N21 1.332 . S
C26 C25 1.382 . S
C26 H36 0.948 . S
N27 Co5 2.273 1_656 S
N27 C31 1.332 . S
N27 C32 1.332 . S
C28 C29 1.388 . S
C28 C32 1.382 . S
C28 H51 0.950 . S
C29 C28 1.388 . S
C29 C30 1.386 . S
C30 C29 1.386 . S
C30 C31 1.382 . S
C30 H52 0.950 . S
C31 N27 1.332 . S
C31 C30 1.382 . S
C31 H33 0.952 1_556 S
C32 N27 1.332 . S
C32 C28 1.382 . S
C32 H34 0.948 . S
H33 C31 0.952 1_554 S
H34 C32 0.948 . S
H35 C24 0.952 1_556 S
H36 C26 0.948 . S
C37 C3 1.395 . S
C37 C7 1.391 . S
C38 C0 1.389 . S
C38 C20 1.392 . S
C39 C10 1.392 . S
C39 C12 1.389 . S
C40 C15 1.395 . S
C40 C17 1.391 . S
H41 C1 0.951 1_556 S
H42 C2 0.950 . S
H43 C8 0.949 . S
H44 C9 0.950 . S
H45 C13 0.934 1_554 S
H46 C14 0.950 . S
H47 C18 0.949 . S
H48 C19 0.950 . S
H49 C23 0.950 . S
H50 C25 0.950 . S
H51 C28 0.950 . S
H52 C30 0.950 . S
C53 C54 1.443 . S
C53 N57 1.359 1_545 S
C53 C91 1.389 . S
C54 C53 1.443 . S
C54 C55 1.340 1_545 S
C54 H94 0.951 . S
C55 C54 1.340 1_565 S
C55 C56 1.439 . S
C55 H95 0.950 . S
C56 C55 1.439 . S
C56 N57 1.398 . S
C56 C90 1.395 . S
N57 C53 1.359 1_565 S
N57 C56 1.398 . S
N57 Co58 1.990 1_565 S
Co58 N57 1.990 1_545 S
Co58 N59 1.975 1_545 S
Co58 N64 2.018 . S
Co58 N69 2.015 . S
Co58 N74 2.244 1_545 S
Co58 N80 2.321 . S
N59 Co58 1.975 1_565 S
N59 C60 1.376 . S
N59 C63 1.383 . S
C60 N59 1.376 . S
C60 C61 1.446 . S
C60 C90 1.391 . S
C61 C60 1.446 . S
C61 C62 1.339 . S
C61 H96 0.949 . S
C62 C61 1.339 . S
C62 C63 1.439 . S
C62 H97 0.950 . S
C63 N59 1.383 . S
C63 C62 1.439 . S
C63 C92 1.392 . S
N64 Co58 2.018 . S
N64 C65 1.376 1_545 S
N64 C68 1.374 . S
C65 N64 1.376 1_565 S
C65 C66 1.443 . S
C65 C92 1.389 . S
C66 C65 1.443 . S
C66 C67 1.340 1_565 S
C66 H98 0.951 . S
C67 C66 1.340 1_545 S
C67 C68 1.439 . S
C67 H99 0.950 . S
C68 N64 1.374 . S
C68 C67 1.439 . S
C68 C93 1.395 . S
N69 Co58 2.015 . S
N69 C70 1.376 . S
N69 C73 1.383 . S
C70 N69 1.376 . S
C70 C71 1.446 . S
C70 C93 1.391 . S
C71 C70 1.446 . S
C71 C72 1.339 . S
C71 H100 0.949 . S
C72 C71 1.339 . S
C72 C73 1.439 . S
C72 H101 0.950 . S
C73 N69 1.383 . S
C73 C72 1.439 . S
C73 C91 1.392 . S
N74 Co58 2.244 1_565 S
N74 C77 1.332 . S
N74 C79 1.332 . S
C75 C76 1.386 . S
C75 C78 1.388 . S
C76 C75 1.386 . S
C76 C77 1.382 . S
C76 H102 0.950 . S
C77 N74 1.332 . S
C77 C76 1.382 . S
C77 H88 0.952 1_565 S
C78 C75 1.388 . S
C78 C79 1.382 . S
C78 H103 0.950 . S
C79 N74 1.332 . S
C79 C78 1.382 . S
C79 H89 0.948 . S
N80 Co58 2.321 . S
N80 C84 1.332 . S
N80 C85 1.332 . S
C81 C82 1.388 . S
C81 C85 1.382 . S
C81 H104 0.950 . S
C82 C81 1.388 . S
C82 C83 1.386 . S
C83 C82 1.386 . S
C83 C84 1.382 . S
C83 H105 0.950 . S
C84 N80 1.332 . S
C84 C83 1.382 . S
C84 H86 0.914 1_545 S
C85 N80 1.332 . S
C85 C81 1.382 . S
C85 H87 0.948 . S
H86 C84 0.914 1_565 S
H87 C85 0.948 . S
H88 C77 0.952 1_545 S
H89 C79 0.948 . S
C90 C56 1.395 . S
C90 C60 1.391 . S
C91 C53 1.389 . S
C91 C73 1.392 . S
C92 C63 1.392 . S
C92 C65 1.389 . S
C93 C68 1.395 . S
C93 C70 1.391 . S
H94 C54 0.951 . S
H95 C55 0.950 . S
H96 C61 0.949 . S
H97 C62 0.950 . S
H98 C66 0.951 . S
H99 C67 0.950 . S
H100 C71 0.949 . S
H101 C72 0.950 . S
H102 C76 0.950 . S
H103 C78 0.950 . S
H104 C81 0.950 . S
H105 C83 0.950 . S
C106 C107 1.443 . S
C106 N110 1.376 . S
C106 C144 1.389 . S
C107 C106 1.443 . S
C107 C108 1.340 . S
C107 H147 0.951 . S
C108 C107 1.340 . S
C108 C109 1.439 . S
C108 H148 0.950 . S
C109 C108 1.439 . S
C109 N110 1.374 . S
C109 C143 1.395 . S
N110 C106 1.376 . S
N110 C109 1.374 . S
N110 Co111 1.998 1_556 S
Co111 N110 1.998 1_554 S
Co111 N112 1.992 1_554 S
Co111 N117 2.019 . S
Co111 N122 1.998 . S
Co111 N127 2.288 . S
Co111 N133 2.277 1_554 S
N112 Co111 1.992 1_556 S
N112 C113 1.376 . S
N112 C116 1.383 1_556 S
C113 N112 1.376 . S
C113 C114 1.446 . S
C113 C143 1.391 . S
C114 C113 1.446 . S
C114 C115 1.339 . S
C114 H149 0.949 . S
C115 C114 1.339 . S
C115 C116 1.439 1_556 S
C115 H150 0.950 1_556 S
C116 N112 1.383 1_554 S
C116 C115 1.439 1_554 S
C116 C145 1.392 . S
N117 Co111 2.019 . S
N117 C118 1.376 . S
N117 C121 1.374 . S
C118 N117 1.376 . S
C118 C119 1.443 . S
C118 C145 1.389 . S
C119 C118 1.443 . S
C119 C120 1.340 . S
C119 H151 0.951 . S
C120 C119 1.340 . S
C120 C121 1.439 . S
C120 H152 0.950 . S
C121 N117 1.374 . S
C121 C120 1.439 . S
C121 C146 1.395 . S
N122 Co111 1.998 . S
N122 C123 1.376 . S
N122 C126 1.383 1_554 S
C123 N122 1.376 . S
C123 C124 1.446 . S
C123 C146 1.391 . S
C124 C123 1.446 . S
C124 C125 1.339 . S
C124 H153 0.949 . S
C125 C124 1.339 . S
C125 C126 1.439 1_554 S
C125 H154 0.950 1_554 S
C126 N122 1.383 1_556 S
C126 C125 1.439 1_556 S
C126 C144 1.392 . S
N127 Co111 2.288 . S
N127 C130 1.332 . S
N127 C132 1.332 . S
C128 C129 1.386 . S
C128 C131 1.388 . S
C129 C128 1.386 . S
C129 C130 1.382 . S
C129 H155 0.950 . S
C130 N127 1.332 . S
C130 C129 1.382 . S
C130 H141 0.952 . S
C131 C128 1.388 . S
C131 C132 1.382 . S
C131 H156 0.950 . S
C132 N127 1.332 . S
C132 C131 1.382 . S
C132 H142 0.910 1_554 S
N133 Co111 2.277 1_556 S
N133 C137 1.332 . S
N133 C138 1.332 . S
C134 C135 1.388 . S
C134 C138 1.382 . S
C134 H157 0.950 . S
C135 C134 1.388 . S
C135 C136 1.386 . S
C136 C135 1.386 . S
C136 C137 1.382 . S
C136 H158 0.950 . S
C137 N133 1.332 . S
C137 C136 1.382 . S
C137 H139 0.952 . S
C138 N133 1.332 . S
C138 C134 1.382 . S
C138 H140 0.948 1_556 S
H139 C137 0.952 . S
H140 C138 0.948 1_554 S
H141 C130 0.952 . S
H142 C132 0.910 1_556 S
C143 C109 1.395 . S
C143 C113 1.391 . S
C144 C106 1.389 . S
C144 C126 1.392 . S
C145 C116 1.392 . S
C145 C118 1.389 . S
C146 C121 1.395 . S
C146 C123 1.391 . S
H147 C107 0.951 . S
H148 C108 0.950 . S
H149 C114 0.949 . S
H150 C115 0.950 1_554 S
H151 C119 0.951 . S
H152 C120 0.950 . S
H153 C124 0.949 . S
H154 C125 0.950 1_556 S
H155 C129 0.950 . S
H156 C131 0.950 . S
H157 C134 0.950 . S
H158 C136 0.950 . S
C159 C160 1.443 . S
C159 N163 1.376 . S
C159 C197 1.389 . S
C160 C159 1.443 . S
C160 C161 1.340 . S
C160 H200 0.951 . S
C161 C160 1.340 . S
C161 C162 1.439 . S
C161 H201 0.950 . S
C162 C161 1.439 . S
C162 N163 1.374 . S
C162 C196 1.395 . S
N163 C159 1.376 . S
N163 C162 1.374 . S
N163 Co164 1.996 1_655 S
Co164 N163 1.996 1_455 S
Co164 N165 1.987 1_455 S
Co164 N170 2.021 . S
Co164 N175 2.002 . S
Co164 N180 2.298 . S
Co164 N186 2.267 1_455 S
N165 Co164 1.987 1_655 S
N165 C166 1.376 . S
N165 C169 1.383 1_655 S
C166 N165 1.376 . S
C166 C167 1.446 . S
C166 C196 1.391 . S
C167 C166 1.446 . S
C167 C168 1.339 1_655 S
C167 H202 0.949 . S
C168 C167 1.339 1_455 S
C168 C169 1.439 . S
C168 H203 0.950 . S
C169 N165 1.383 1_455 S
C169 C168 1.439 . S
C169 C198 1.392 . S
N170 Co164 2.021 . S
N170 C171 1.376 . S
N170 C174 1.374 . S
C171 N170 1.376 . S
C171 C172 1.443 . S
C171 C198 1.389 . S
C172 C171 1.443 . S
C172 C173 1.340 . S
C172 H204 0.951 . S
C173 C172 1.340 . S
C173 C174 1.439 . S
C173 H205 0.950 . S
C174 N170 1.374 . S
C174 C173 1.439 . S
C174 C199 1.395 . S
N175 Co164 2.002 . S
N175 C176 1.376 . S
N175 C179 1.383 1_455 S
C176 N175 1.376 . S
C176 C177 1.446 . S
C176 C199 1.391 . S
C177 C176 1.446 . S
C177 C178 1.339 1_455 S
C177 H206 0.949 . S
C178 C177 1.339 1_655 S
C178 C179 1.439 . S
C178 H207 0.950 . S
C179 N175 1.383 1_655 S
C179 C178 1.439 . S
C179 C197 1.392 . S
N180 Co164 2.298 . S
N180 C183 1.332 . S
N180 C185 1.332 . S
C181 C182 1.386 . S
C181 C184 1.388 . S
C182 C181 1.386 . S
C182 C183 1.382 . S
C182 H208 0.950 . S
C183 N180 1.332 . S
C183 C182 1.382 . S
C183 H194 0.952 . S
C184 C181 1.388 . S
C184 C185 1.382 . S
C184 H209 0.950 . S
C185 N180 1.332 . S
C185 C184 1.382 . S
C185 H195 0.948 . S
N186 Co164 2.267 1_655 S
N186 C190 1.332 . S
N186 C191 1.332 . S
C187 C188 1.388 . S
C187 C191 1.382 . S
C187 H210 0.950 . S
C188 C187 1.388 . S
C188 C189 1.386 . S
C189 C188 1.386 . S
C189 C190 1.382 . S
C189 H211 0.950 . S
C190 N186 1.332 . S
C190 C189 1.382 . S
C190 H192 0.952 . S
C191 N186 1.332 . S
C191 C187 1.382 . S
C191 H193 0.948 . S
H192 C190 0.952 . S
H193 C191 0.948 . S
H194 C183 0.952 . S
H195 C185 0.948 . S
C196 C162 1.395 . S
C196 C166 1.391 . S
C197 C159 1.389 . S
C197 C179 1.392 . S
C198 C169 1.392 . S
C198 C171 1.389 . S
C199 C174 1.395 . S
C199 C176 1.391 . S
H200 C160 0.951 . S
H201 C161 0.950 . S
H202 C167 0.949 . S
H203 C168 0.950 . S
H204 C172 0.951 . S
H205 C173 0.950 . S
H206 C177 0.949 . S
H207 C178 0.950 . S
H208 C182 0.950 . S
H209 C184 0.950 . S
H210 C187 0.950 . S
H211 C189 0.950 . S
C212 C213 1.443 . S
C212 N216 1.376 1_565 S
C212 C250 1.389 . S
C213 C212 1.443 . S
C213 C214 1.340 1_565 S
C213 H253 0.951 . S
C214 C213 1.340 1_545 S
C214 C215 1.439 . S
C214 H254 0.950 . S
C215 C214 1.439 . S
C215 N216 1.374 . S
C215 C249 1.395 . S
N216 C212 1.376 1_545 S
N216 C215 1.374 . S
N216 Co217 2.031 . S
Co217 N216 2.031 . S
Co217 N218 2.018 . S
Co217 N223 1.980 1_544 S
Co217 N228 1.972 1_544 S
Co217 N233 2.314 1_554 S
Co217 N239 2.251 1_545 S
N218 Co217 2.018 . S
N218 C219 1.376 . S
N218 C222 1.383 1_554 S
C219 N218 1.376 . S
C219 C220 1.446 . S
C219 C249 1.391 . S
C220 C219 1.446 . S
C220 C221 1.303 1_554 S
C220 H255 0.949 . S
C221 C220 1.303 1_556 S
C221 C222 1.455 . S
C221 H256 0.967 . S
C222 N218 1.383 1_556 S
C222 C221 1.455 . S
C222 C251 1.392 . S
N223 Co217 1.980 1_566 S
N223 C224 1.368 1_565 S
N223 C227 1.387 . S
C224 N223 1.368 1_545 S
C224 C225 1.443 . S
C224 C251 1.389 . S
C225 C224 1.443 . S
C225 C226 1.340 1_545 S
C225 H257 0.951 . S
C226 C225 1.340 1_565 S
C226 C227 1.439 . S
C226 H258 0.950 . S
C227 N223 1.387 . S
C227 C226 1.439 . S
C227 C252 1.395 . S
N228 Co217 1.972 1_566 S
N228 C229 1.376 . S
N228 C232 1.383 1_556 S
C229 N228 1.376 . S
C229 C230 1.446 . S
C229 C252 1.391 . S
C230 C229 1.446 . S
C230 C231 1.339 1_556 S
C230 H259 0.949 . S
C231 C230 1.339 1_554 S
C231 C232 1.439 . S
C231 H260 0.950 . S
C232 N228 1.383 1_554 S
C232 C231 1.439 . S
C232 C250 1.392 . S
N233 Co217 2.314 1_556 S
N233 C236 1.332 . S
N233 C238 1.332 . S
C234 C235 1.386 . S
C234 C237 1.388 . S
C235 C234 1.386 . S
C235 C236 1.382 . S
C235 H261 0.950 . S
C236 N233 1.332 . S
C236 C235 1.382 . S
C236 H247 0.941 1_545 S
C237 C234 1.388 . S
C237 C238 1.382 . S
C237 H262 0.950 . S
C238 N233 1.332 . S
C238 C237 1.382 . S
C238 H248 0.963 . S
N239 Co217 2.251 1_565 S
N239 C243 1.332 . S
N239 C244 1.332 . S
C240 C241 1.388 . S
C240 C244 1.382 . S
C240 H263 0.950 . S
C241 C240 1.388 . S
C241 C242 1.386 . S
C242 C241 1.386 . S
C242 C243 1.382 . S
C242 H264 0.950 . S
C243 N239 1.332 . S
C243 C242 1.382 . S
C243 H245 0.952 1_565 S
C244 N239 1.332 . S
C244 C240 1.382 . S
C244 H246 0.948 . S
H245 C243 0.952 1_545 S
H246 C244 0.948 . S
H247 C236 0.941 1_565 S
H248 C238 0.963 . S
C249 C215 1.395 . S
C249 C219 1.391 . S
C250 C212 1.389 . S
C250 C232 1.392 . S
C251 C222 1.392 . S
C251 C224 1.389 . S
C252 C227 1.395 . S
C252 C229 1.391 . S
H253 C213 0.951 . S
H254 C214 0.950 . S
H255 C220 0.949 . S
H256 C221 0.967 . S
H257 C225 0.951 . S
H258 C226 0.950 . S
H259 C230 0.949 . S
H260 C231 0.950 . S
H261 C235 0.950 . S
H262 C237 0.950 . S
H263 C240 0.950 . S
H264 C242 0.950 . S
C265 C266 1.443 . S
C265 N269 1.376 . S
C265 C303 1.389 . S
C266 C265 1.443 . S
C266 C267 1.340 . S
C266 H306 0.951 . S
C267 C266 1.340 . S
C267 C268 1.439 . S
C267 H307 0.950 . S
C268 C267 1.439 . S
C268 N269 1.374 . S
C268 C302 1.395 . S
N269 C265 1.376 . S
N269 C268 1.374 . S
N269 Co270 2.008 . S
Co270 N269 2.008 . S
Co270 N271 1.995 . S
Co270 N276 2.008 . S
Co270 N281 1.995 . S
Co270 N286 2.282 . S
Co270 N292 2.282 . S
N271 Co270 1.995 . S
N271 C272 1.376 . S
N271 C275 1.383 . S
C272 N271 1.376 . S
C272 C273 1.446 . S
C272 C302 1.391 . S
C273 C272 1.446 . S
C273 C274 1.339 . S
C273 H308 0.949 . S
C274 C273 1.339 . S
C274 C275 1.439 . S
C274 H309 0.950 . S
C275 N271 1.383 . S
C275 C274 1.439 . S
C275 C304 1.392 . S
N276 Co270 2.008 . S
N276 C277 1.376 . S
N276 C280 1.374 . S
C277 N276 1.376 . S
C277 C278 1.443 . S
C277 C304 1.389 . S
C278 C277 1.443 . S
C278 C279 1.340 . S
C278 H310 0.951 . S
C279 C278 1.340 . S
C279 C280 1.439 . S
C279 H311 0.950 . S
C280 N276 1.374 . S
C280 C279 1.439 . S
C280 C305 1.395 . S
N281 Co270 1.995 . S
N281 C282 1.376 . S
N281 C285 1.383 . S
C282 N281 1.376 . S
C282 C283 1.446 . S
C282 C305 1.391 . S
C283 C282 1.446 . S
C283 C284 1.339 . S
C283 H312 0.949 . S
C284 C283 1.339 . S
C284 C285 1.439 . S
C284 H313 0.950 . S
C285 N281 1.383 . S
C285 C284 1.439 . S
C285 C303 1.392 . S
N286 Co270 2.282 . S
N286 C289 1.332 . S
N286 C291 1.332 . S
C287 C288 1.386 . S
C287 C290 1.388 . S
C288 C287 1.386 . S
C288 C289 1.382 . S
C288 H314 0.950 . S
C289 N286 1.332 . S
C289 C288 1.382 . S
C289 H300 0.952 . S
C290 C287 1.388 . S
C290 C291 1.382 . S
C290 H315 0.950 . S
C291 N286 1.332 . S
C291 C290 1.382 . S
C291 H301 0.948 . S
N292 Co270 2.282 . S
N292 C296 1.332 . S
N292 C297 1.332 . S
C293 C294 1.388 . S
C293 C297 1.382 . S
C293 H316 0.950 . S
C294 C293 1.388 . S
C294 C295 1.386 . S
C295 C294 1.386 . S
C295 C296 1.382 . S
C295 H317 0.950 . S
C296 N292 1.332 . S
C296 C295 1.382 . S
C296 H298 0.952 . S
C297 N292 1.332 . S
C297 C293 1.382 . S
C297 H299 0.948 . S
H298 C296 0.952 . S
H299 C297 0.948 . S
H300 C289 0.952 . S
H301 C291 0.948 . S
C302 C268 1.395 . S
C302 C272 1.391 . S
C303 C265 1.389 . S
C303 C285 1.392 . S
C304 C275 1.392 . S
C304 C277 1.389 . S
C305 C280 1.395 . S
C305 C282 1.391 . S
H306 C266 0.951 . S
H307 C267 0.950 . S
H308 C273 0.949 . S
H309 C274 0.950 . S
H310 C278 0.951 . S
H311 C279 0.950 . S
H312 C283 0.949 . S
H313 C284 0.950 . S
H314 C288 0.950 . S
H315 C290 0.950 . S
H316 C293 0.950 . S
H317 C295 0.950 . S
H318 C337 0.949 . S
H319 C338 0.950 . S
H320 C340 0.950 . S
H321 C341 0.950 . S
H322 C343 0.950 . S
H323 C346 0.950 . S
H324 C347 0.950 . S
H325 C349 0.951 . S
H326 C350 0.949 . S
H327 C352 0.949 . S
H328 C353 0.950 . S
H329 C355 0.950 . S
H330 C356 0.950 . S
H331 C358 0.950 . S
H332 C361 0.950 . S
H333 C362 0.950 . S
H334 C364 0.951 . S
H335 C365 0.949 . S
C336 C337 1.376 . S
C336 C341 1.386 . S
C336 C342 1.483 . S
C337 H318 0.949 . S
C337 C336 1.376 . S
C337 C338 1.397 . S
C338 H319 0.950 . S
C338 C337 1.397 . S
C338 C339 1.391 . S
C339 C338 1.391 . S
C339 C340 1.405 . S
C340 H320 0.950 . S
C340 C339 1.405 . S
C340 C341 1.367 . S
C341 H321 0.950 . S
C341 C336 1.386 . S
C341 C340 1.367 . S
C342 C336 1.483 . S
C342 C343 1.382 . S
C342 C344 1.403 . S
C343 H322 0.950 . S
C343 C342 1.382 . S
C343 C359 1.411 . S
C344 C342 1.403 . S
C344 C345 1.489 . S
C344 C358 1.411 . S
C345 C344 1.489 . S
C345 C346 1.383 . S
C345 C350 1.382 . S
C346 H323 0.950 . S
C346 C345 1.383 . S
C346 C347 1.395 . S
C347 H324 0.950 . S
C347 C346 1.395 . S
C347 C348 1.288 . S
C348 C347 1.288 . S
C348 C349 1.392 . S
C349 H325 0.951 . S
C349 C348 1.392 . S
C349 C350 1.392 . S
C350 H326 0.949 . S
C350 C345 1.382 . S
C350 C349 1.392 . S
C351 C352 1.376 . S
C351 C356 1.386 . S
C351 C357 1.483 . S
C352 H327 0.949 . S
C352 C351 1.376 . S
C352 C353 1.397 . S
C353 H328 0.950 . S
C353 C352 1.397 . S
C353 C354 1.391 . S
C354 C353 1.391 . S
C354 C355 1.405 . S
C355 H329 0.950 . S
C355 C354 1.405 . S
C355 C356 1.367 . S
C356 H330 0.950 . S
C356 C351 1.386 . S
C356 C355 1.367 . S
C357 C351 1.483 . S
C357 C358 1.382 . S
C357 C359 1.403 . S
C358 H331 0.950 . S
C358 C344 1.411 . S
C358 C357 1.382 . S
C359 C343 1.411 . S
C359 C357 1.403 . S
C359 C360 1.489 . S
C360 C359 1.489 . S
C360 C361 1.383 . S
C360 C365 1.382 . S
C361 H332 0.950 . S
C361 C360 1.383 . S
C361 C362 1.395 . S
C362 H333 0.950 . S
C362 C361 1.395 . S
C362 C363 1.288 . S
C363 C362 1.288 . S
C363 C364 1.392 . S
C364 H334 0.951 . S
C364 C363 1.392 . S
C364 C365 1.392 . S
C365 H335 0.949 . S
C365 C360 1.382 . S
C365 C364 1.392 . S
H366 C385 0.949 . S
H367 C386 0.950 . S
H368 C388 0.950 . S
H369 C389 0.950 . S
H370 C391 0.950 . S
H371 C394 0.950 . S
H372 C395 0.950 . S
H373 C397 0.951 . S
H374 C398 0.949 . S
H375 C400 0.949 . S
H376 C401 0.950 . S
H377 C403 0.950 . S
H378 C404 0.950 . S
H379 C406 0.950 . S
H380 C409 0.950 . S
H381 C410 0.950 . S
H382 C412 0.951 . S
H383 C413 0.949 . S
C384 C385 1.376 . S
C384 C389 1.386 . S
C384 C390 1.483 . S
C385 H366 0.949 . S
C385 C384 1.376 . S
C385 C386 1.397 . S
C386 H367 0.950 . S
C386 C385 1.397 . S
C386 C387 1.391 . S
C387 C386 1.391 . S
C387 C388 1.405 . S
C388 H368 0.950 . S
C388 C387 1.405 . S
C388 C389 1.367 . S
C389 H369 0.950 . S
C389 C384 1.386 . S
C389 C388 1.367 . S
C390 C384 1.483 . S
C390 C391 1.382 . S
C390 C392 1.403 . S
C391 H370 0.950 . S
C391 C390 1.382 . S
C391 C407 1.411 . S
C392 C390 1.403 . S
C392 C393 1.489 . S
C392 C406 1.411 . S
C393 C392 1.489 . S
C393 C394 1.383 . S
C393 C398 1.382 . S
C394 H371 0.950 . S
C394 C393 1.383 . S
C394 C395 1.395 . S
C395 H372 0.950 . S
C395 C394 1.395 . S
C395 C396 1.288 . S
C396 C395 1.288 . S
C396 C397 1.392 . S
C397 H373 0.951 . S
C397 C396 1.392 . S
C397 C398 1.392 . S
C398 H374 0.949 . S
C398 C393 1.382 . S
C398 C397 1.392 . S
C399 C400 1.376 . S
C399 C404 1.386 . S
C399 C405 1.483 . S
C400 H375 0.949 . S
C400 C399 1.376 . S
C400 C401 1.397 . S
C401 H376 0.950 . S
C401 C400 1.397 . S
C401 C402 1.391 . S
C402 C401 1.391 . S
C402 C403 1.405 . S
C403 H377 0.950 . S
C403 C402 1.405 . S
C403 C404 1.367 . S
C404 H378 0.950 . S
C404 C399 1.386 . S
C404 C403 1.367 . S
C405 C399 1.483 . S
C405 C406 1.382 . S
C405 C407 1.403 . S
C406 H379 0.950 . S
C406 C392 1.411 . S
C406 C405 1.382 . S
C407 C391 1.411 . S
C407 C405 1.403 . S
C407 C408 1.489 . S
C408 C407 1.489 . S
C408 C409 1.383 . S
C408 C413 1.382 . S
C409 H380 0.950 . S
C409 C408 1.383 . S
C409 C410 1.395 . S
C410 H381 0.950 . S
C410 C409 1.395 . S
C410 C411 1.288 . S
C411 C410 1.288 . S
C411 C412 1.392 . S
C412 H382 0.951 . S
C412 C411 1.392 . S
C412 C413 1.392 . S
C413 H383 0.949 . S
C413 C408 1.382 . S
C413 C412 1.392 . S
H414 C433 0.949 . S
H415 C434 0.950 . S
H416 C436 0.950 . S
H417 C437 0.950 . S
H418 C439 0.950 . S
H419 C442 0.950 . S
H420 C443 0.950 . S
H421 C445 0.951 . S
H422 C446 0.949 . S
H423 C448 0.949 . S
H424 C449 0.950 . S
H425 C451 0.950 . S
H426 C452 0.950 . S
H427 C454 0.950 . S
H428 C457 0.950 . S
H429 C458 0.950 . S
H430 C460 0.951 . S
H431 C461 0.949 . S
C432 C433 1.376 . S
C432 C437 1.386 . S
C432 C438 1.483 . S
C433 H414 0.949 . S
C433 C432 1.376 . S
C433 C434 1.397 . S
C434 H415 0.950 . S
C434 C433 1.397 . S
C434 C435 1.391 . S
C435 C434 1.391 . S
C435 C436 1.405 . S
C436 H416 0.950 . S
C436 C435 1.405 . S
C436 C437 1.367 . S
C437 H417 0.950 . S
C437 C432 1.386 . S
C437 C436 1.367 . S
C438 C432 1.483 . S
C438 C439 1.382 . S
C438 C440 1.403 . S
C439 H418 0.950 . S
C439 C438 1.382 . S
C439 C455 1.411 . S
C440 C438 1.403 . S
C440 C441 1.489 . S
C440 C454 1.411 . S
C441 C440 1.489 . S
C441 C442 1.383 . S
C441 C446 1.382 . S
C442 H419 0.950 . S
C442 C441 1.383 . S
C442 C443 1.395 . S
C443 H420 0.950 . S
C443 C442 1.395 . S
C443 C444 1.288 . S
C444 C443 1.288 . S
C444 C445 1.392 . S
C445 H421 0.951 . S
C445 C444 1.392 . S
C445 C446 1.392 . S
C446 H422 0.949 . S
C446 C441 1.382 . S
C446 C445 1.392 . S
C447 C448 1.376 . S
C447 C452 1.386 . S
C447 C453 1.483 . S
C448 H423 0.949 . S
C448 C447 1.376 . S
C448 C449 1.397 . S
C449 H424 0.950 . S
C449 C448 1.397 . S
C449 C450 1.391 . S
C450 C449 1.391 . S
C450 C451 1.405 . S
C451 H425 0.950 . S
C451 C450 1.405 . S
C451 C452 1.367 . S
C452 H426 0.950 . S
C452 C447 1.386 . S
C452 C451 1.367 . S
C453 C447 1.483 . S
C453 C454 1.382 . S
C453 C455 1.403 . S
C454 H427 0.950 . S
C454 C440 1.411 . S
C454 C453 1.382 . S
C455 C439 1.411 . S
C455 C453 1.403 . S
C455 C456 1.489 . S
C456 C455 1.489 . S
C456 C457 1.383 . S
C456 C461 1.382 . S
C457 H428 0.950 . S
C457 C456 1.383 . S
C457 C458 1.395 . S
C458 H429 0.950 . S
C458 C457 1.395 . S
C458 C459 1.288 . S
C459 C458 1.288 . S
C459 C460 1.392 . S
C460 H430 0.951 . S
C460 C459 1.392 . S
C460 C461 1.392 . S
C461 H431 0.949 . S
C461 C456 1.382 . S
C461 C460 1.392 . S
H462 C481 0.949 . S
H463 C482 0.950 . S
H464 C484 0.950 . S
H465 C485 0.950 . S
H466 C487 0.950 . S
H467 C490 0.950 . S
H468 C491 0.950 . S
H469 C493 0.951 . S
H470 C494 0.949 . S
H471 C496 0.949 . S
H472 C497 0.950 . S
H473 C499 0.950 . S
H474 C500 0.950 . S
H475 C502 0.950 . S
H476 C505 0.950 . S
H477 C506 0.950 . S
H478 C508 0.951 . S
H479 C509 0.949 . S
C480 C481 1.376 . S
C480 C485 1.386 . S
C480 C486 1.483 . S
C481 H462 0.949 . S
C481 C480 1.376 . S
C481 C482 1.397 . S
C482 H463 0.950 . S
C482 C481 1.397 . S
C482 C483 1.391 . S
C483 C482 1.391 . S
C483 C484 1.405 . S
C484 H464 0.950 . S
C484 C483 1.405 . S
C484 C485 1.367 . S
C485 H465 0.950 . S
C485 C480 1.386 . S
C485 C484 1.367 . S
C486 C480 1.483 . S
C486 C487 1.382 . S
C486 C488 1.403 . S
C487 H466 0.950 . S
C487 C486 1.382 . S
C487 C503 1.411 . S
C488 C486 1.403 . S
C488 C489 1.489 . S
C488 C502 1.411 . S
C489 C488 1.489 . S
C489 C490 1.383 . S
C489 C494 1.382 . S
C490 H467 0.950 . S
C490 C489 1.383 . S
C490 C491 1.395 . S
C491 H468 0.950 . S
C491 C490 1.395 . S
C491 C492 1.288 . S
C492 C491 1.288 . S
C492 C493 1.392 . S
C493 H469 0.951 . S
C493 C492 1.392 . S
C493 C494 1.392 . S
C494 H470 0.949 . S
C494 C489 1.382 . S
C494 C493 1.392 . S
C495 C496 1.376 . S
C495 C500 1.386 . S
C495 C501 1.483 . S
C496 H471 0.949 . S
C496 C495 1.376 . S
C496 C497 1.397 . S
C497 H472 0.950 . S
C497 C496 1.397 . S
C497 C498 1.391 . S
C498 C497 1.391 . S
C498 C499 1.405 . S
C499 H473 0.950 . S
C499 C498 1.405 . S
C499 C500 1.367 . S
C500 H474 0.950 . S
C500 C495 1.386 . S
C500 C499 1.367 . S
C501 C495 1.483 . S
C501 C502 1.382 . S
C501 C503 1.403 . S
C502 H475 0.950 . S
C502 C488 1.411 . S
C502 C501 1.382 . S
C503 C487 1.411 . S
C503 C501 1.403 . S
C503 C504 1.489 . S
C504 C503 1.489 . S
C504 C505 1.383 . S
C504 C509 1.382 . S
C505 H476 0.950 . S
C505 C504 1.383 . S
C505 C506 1.395 . S
C506 H477 0.950 . S
C506 C505 1.395 . S
C506 C507 1.288 . S
C507 C506 1.288 . S
C507 C508 1.392 . S
C508 H478 0.951 . S
C508 C507 1.392 . S
C508 C509 1.392 . S
C509 H479 0.949 . S
C509 C504 1.382 . S
C509 C508 1.392 . S
H510 C529 0.949 . S
H511 C530 0.950 . S
H512 C532 0.950 . S
H513 C533 0.950 . S
H514 C535 0.950 . S
H515 C538 0.950 . S
H516 C539 0.950 . S
H517 C541 0.951 . S
H518 C542 0.949 . S
H519 C544 0.949 . S
H520 C545 0.950 . S
H521 C547 0.950 . S
H522 C548 0.950 . S
H523 C550 0.950 . S
H524 C553 0.950 . S
H525 C554 0.950 . S
H526 C556 0.951 . S
H527 C557 0.949 . S
C528 C529 1.376 . S
C528 C533 1.386 . S
C528 C534 1.483 . S
C529 H510 0.949 . S
C529 C528 1.376 . S
C529 C530 1.397 . S
C530 H511 0.950 . S
C530 C529 1.397 . S
C530 C531 1.391 . S
C531 C530 1.391 . S
C531 C532 1.405 . S
C532 H512 0.950 . S
C532 C531 1.405 . S
C532 C533 1.367 . S
C533 H513 0.950 . S
C533 C528 1.386 . S
C533 C532 1.367 . S
C534 C528 1.483 . S
C534 C535 1.382 . S
C534 C536 1.403 . S
C535 H514 0.950 . S
C535 C534 1.382 . S
C535 C551 1.411 . S
C536 C534 1.403 . S
C536 C537 1.489 . S
C536 C550 1.411 . S
C537 C536 1.489 . S
C537 C538 1.383 . S
C537 C542 1.382 . S
C538 H515 0.950 . S
C538 C537 1.383 . S
C538 C539 1.395 . S
C539 H516 0.950 . S
C539 C538 1.395 . S
C539 C540 1.288 . S
C540 C539 1.288 . S
C540 C541 1.392 . S
C541 H517 0.951 . S
C541 C540 1.392 . S
C541 C542 1.392 . S
C542 H518 0.949 . S
C542 C537 1.382 . S
C542 C541 1.392 . S
C543 C544 1.376 . S
C543 C548 1.386 . S
C543 C549 1.483 . S
C544 H519 0.949 . S
C544 C543 1.376 . S
C544 C545 1.397 . S
C545 H520 0.950 . S
C545 C544 1.397 . S
C545 C546 1.391 . S
C546 C545 1.391 . S
C546 C547 1.405 . S
C547 H521 0.950 . S
C547 C546 1.405 . S
C547 C548 1.367 . S
C548 H522 0.950 . S
C548 C543 1.386 . S
C548 C547 1.367 . S
C549 C543 1.483 . S
C549 C550 1.382 . S
C549 C551 1.403 . S
C550 H523 0.950 . S
C550 C536 1.411 . S
C550 C549 1.382 . S
C551 C535 1.411 . S
C551 C549 1.403 . S
C551 C552 1.489 . S
C552 C551 1.489 . S
C552 C553 1.383 . S
C552 C557 1.382 . S
C553 H524 0.950 . S
C553 C552 1.383 . S
C553 C554 1.395 . S
C554 H525 0.950 . S
C554 C553 1.395 . S
C554 C555 1.288 . S
C555 C554 1.288 . S
C555 C556 1.392 . S
C556 H526 0.951 . S
C556 C555 1.392 . S
C556 C557 1.392 . S
C557 H527 0.949 . S
C557 C552 1.382 . S
C557 C556 1.392 . S
H558 C577 0.949 . S
H559 C578 0.950 . S
H560 C580 0.950 . S
H561 C581 0.950 . S
H562 C583 0.950 . S
H563 C586 0.950 . S
H564 C587 0.950 . S
H565 C589 0.951 . S
H566 C590 0.949 . S
H567 C592 0.949 . S
H568 C593 0.950 . S
H569 C595 0.950 . S
H570 C596 0.950 . S
H571 C598 0.950 . S
H572 C601 0.950 . S
H573 C602 0.950 . S
H574 C604 0.951 . S
H575 C605 0.949 . S
C576 C577 1.376 . S
C576 C581 1.386 . S
C576 C582 1.483 . S
C577 H558 0.949 . S
C577 C576 1.376 . S
C577 C578 1.397 . S
C578 H559 0.950 . S
C578 C577 1.397 . S
C578 C579 1.391 . S
C579 C578 1.391 . S
C579 C580 1.405 . S
C580 H560 0.950 . S
C580 C579 1.405 . S
C580 C581 1.367 . S
C581 H561 0.950 . S
C581 C576 1.386 . S
C581 C580 1.367 . S
C582 C576 1.483 . S
C582 C583 1.382 . S
C582 C584 1.403 . S
C583 H562 0.950 . S
C583 C582 1.382 . S
C583 C599 1.411 . S
C584 C582 1.403 . S
C584 C585 1.489 . S
C584 C598 1.411 . S
C585 C584 1.489 . S
C585 C586 1.383 . S
C585 C590 1.382 . S
C586 H563 0.950 . S
C586 C585 1.383 . S
C586 C587 1.395 . S
C587 H564 0.950 . S
C587 C586 1.395 . S
C587 C588 1.288 . S
C588 C587 1.288 . S
C588 C589 1.392 . S
C589 H565 0.951 . S
C589 C588 1.392 . S
C589 C590 1.392 . S
C590 H566 0.949 . S
C590 C585 1.382 . S
C590 C589 1.392 . S
C591 C592 1.376 . S
C591 C596 1.386 . S
C591 C597 1.483 . S
C592 H567 0.949 . S
C592 C591 1.376 . S
C592 C593 1.397 . S
C593 H568 0.950 . S
C593 C592 1.397 . S
C593 C594 1.391 . S
C594 C593 1.391 . S
C594 C595 1.405 . S
C595 H569 0.950 . S
C595 C594 1.405 . S
C595 C596 1.367 . S
C596 H570 0.950 . S
C596 C591 1.386 . S
C596 C595 1.367 . S
C597 C591 1.483 . S
C597 C598 1.382 . S
C597 C599 1.403 . S
C598 H571 0.950 . S
C598 C584 1.411 . S
C598 C597 1.382 . S
C599 C583 1.411 . S
C599 C597 1.403 . S
C599 C600 1.489 . S
C600 C599 1.489 . S
C600 C601 1.383 . S
C600 C605 1.382 . S
C601 H572 0.950 . S
C601 C600 1.383 . S
C601 C602 1.395 . S
C602 H573 0.950 . S
C602 C601 1.395 . S
C602 C603 1.288 . S
C603 C602 1.288 . S
C603 C604 1.392 . S
C604 H574 0.951 . S
C604 C603 1.392 . S
C604 C605 1.392 . S
C605 H575 0.949 . S
C605 C600 1.382 . S
C605 C604 1.392 . S
H606 C614 0.929 . S
H607 C616 0.930 . S
H608 C618 0.930 . S
H609 C621 0.929 . S
H610 C624 0.930 . S
H611 C626 0.960 . S
H612 C626 0.960 . S
H613 C626 0.960 . S
C614 H606 0.929 . S
C614 C615 1.377 . S
C614 C616 1.384 . S
C615 C614 1.377 . S
C615 C621 1.390 . S
C616 H607 0.930 . S
C616 C614 1.384 . S
C616 C617 1.372 . S
C617 C616 1.372 . S
C617 C618 1.400 . S
C617 C622 1.490 . S
C618 H608 0.930 . S
C618 C617 1.400 . S
C618 C621 1.386 . S
H619 C635 0.930 . S
H620 C636 0.931 . S
C621 H609 0.929 . S
C621 C615 1.390 . S
C621 C618 1.386 . S
C622 C617 1.490 . S
C622 C624 1.395 . S
C622 C625 1.403 . S
H623 C629 0.930 . S
C624 H610 0.930 . S
C624 C622 1.395 . S
C624 C627 1.403 . S
C625 C622 1.403 . S
C625 C626 1.524 . S
C625 C629 1.400 . S
C626 H611 0.960 . S
C626 H612 0.960 . S
C626 H613 0.960 . S
C626 C625 1.524 . S
C627 C624 1.403 . S
C627 C628 1.392 . S
C627 C631 1.495 . S
C628 C627 1.392 . S
C628 C629 1.385 . S
C628 C630 1.478 . S
C629 H623 0.930 . S
C629 C625 1.400 . S
C629 C628 1.385 . S
C630 C628 1.478 . S
C630 C632 1.381 . S
C630 C636 1.383 . S
C631 C627 1.495 . S
C631 H637 0.959 . S
C631 H638 0.961 . S
C631 H639 0.960 . S
C632 C630 1.381 . S
C632 C633 1.394 . S
C632 H640 0.930 . S
C633 C632 1.394 . S
C633 C634 1.383 . S
C633 H641 0.929 . S
C634 C633 1.383 . S
C634 C635 1.377 . S
C635 H619 0.930 . S
C635 C634 1.377 . S
C635 C636 1.379 . S
C636 H620 0.931 . S
C636 C630 1.383 . S
C636 C635 1.379 . S
H637 C631 0.959 . S
H638 C631 0.961 . S
H639 C631 0.960 . S
H640 C632 0.930 . S
H641 C633 0.929 . S
H642 C650 0.929 . S
H643 C652 0.930 . S
H644 C654 0.930 . S
H645 C657 0.929 . S
H646 C660 0.930 . S
H647 C662 0.960 . S
H648 C662 0.960 . S
H649 C662 0.960 . S
C650 H642 0.929 . S
C650 C651 1.377 . S
C650 C652 1.384 . S
C651 C650 1.377 . S
C651 C657 1.390 . S
C652 H643 0.930 . S
C652 C650 1.384 . S
C652 C653 1.372 . S
C653 C652 1.372 . S
C653 C654 1.400 . S
C653 C658 1.490 . S
C654 H644 0.930 . S
C654 C653 1.400 . S
C654 C657 1.386 . S
H655 C671 0.930 . S
H656 C672 0.931 . S
C657 H645 0.929 . S
C657 C651 1.390 . S
C657 C654 1.386 . S
C658 C653 1.490 . S
C658 C660 1.395 . S
C658 C661 1.403 . S
H659 C665 0.930 . S
C660 H646 0.930 . S
C660 C658 1.395 . S
C660 C663 1.403 . S
C661 C658 1.403 . S
C661 C662 1.524 . S
C661 C665 1.400 . S
C662 H647 0.960 . S
C662 H648 0.960 . S
C662 H649 0.960 . S
C662 C661 1.524 . S
C663 C660 1.403 . S
C663 C664 1.392 . S
C663 C667 1.495 . S
C664 C663 1.392 . S
C664 C665 1.385 . S
C664 C666 1.478 . S
C665 H659 0.930 . S
C665 C661 1.400 . S
C665 C664 1.385 . S
C666 C664 1.478 . S
C666 C668 1.381 . S
C666 C672 1.383 . S
C667 C663 1.495 . S
C667 H673 0.959 . S
C667 H674 0.961 . S
C667 H675 0.960 . S
C668 C666 1.381 . S
C668 C669 1.394 . S
C668 H676 0.930 . S
C669 C668 1.394 . S
C669 C670 1.383 . S
C669 H677 0.929 . S
C670 C669 1.383 . S
C670 C671 1.377 . S
C671 H655 0.930 . S
C671 C670 1.377 . S
C671 C672 1.379 . S
C672 H656 0.931 . S
C672 C666 1.383 . S
C672 C671 1.379 . S
H673 C667 0.959 . S
H674 C667 0.961 . S
H675 C667 0.960 . S
H676 C668 0.930 . S
H677 C669 0.929 . S
H678 C686 0.929 . S
H679 C688 0.930 . S
H680 C690 0.930 . S
H681 C693 0.929 . S
H682 C696 0.930 . S
H683 C698 0.960 . S
H684 C698 0.960 . S
H685 C698 0.960 . S
C686 H678 0.929 . S
C686 C687 1.377 . S
C686 C688 1.384 . S
C687 C686 1.377 . S
C687 C693 1.390 . S
C688 H679 0.930 . S
C688 C686 1.384 . S
C688 C689 1.372 . S
C689 C688 1.372 . S
C689 C690 1.400 . S
C689 C694 1.490 . S
C690 H680 0.930 . S
C690 C689 1.400 . S
C690 C693 1.386 . S
H691 C707 0.930 . S
H692 C708 0.931 . S
C693 H681 0.929 . S
C693 C687 1.390 . S
C693 C690 1.386 . S
C694 C689 1.490 . S
C694 C696 1.395 . S
C694 C697 1.403 . S
H695 C701 0.930 . S
C696 H682 0.930 . S
C696 C694 1.395 . S
C696 C699 1.403 . S
C697 C694 1.403 . S
C697 C698 1.524 . S
C697 C701 1.400 . S
C698 H683 0.960 . S
C698 H684 0.960 . S
C698 H685 0.960 . S
C698 C697 1.524 . S
C699 C696 1.403 . S
C699 C700 1.392 . S
C699 C703 1.495 . S
C700 C699 1.392 . S
C700 C701 1.385 . S
C700 C702 1.478 . S
C701 H695 0.930 . S
C701 C697 1.400 . S
C701 C700 1.385 . S
C702 C700 1.478 . S
C702 C704 1.381 . S
C702 C708 1.383 . S
C703 C699 1.495 . S
C703 H709 0.959 . S
C703 H710 0.961 . S
C703 H711 0.960 . S
C704 C702 1.381 . S
C704 C705 1.394 . S
C704 H712 0.930 . S
C705 C704 1.394 . S
C705 C706 1.383 . S
C705 H713 0.929 . S
C706 C705 1.383 . S
C706 C707 1.377 . S
C707 H691 0.930 . S
C707 C706 1.377 . S
C707 C708 1.379 . S
C708 H692 0.931 . S
C708 C702 1.383 . S
C708 C707 1.379 . S
H709 C703 0.959 . S
H710 C703 0.961 . S
H711 C703 0.960 . S
H712 C704 0.930 . S
H713 C705 0.929 . S
H714 C722 0.929 . S
H715 C724 0.930 . S
H716 C726 0.930 . S
H717 C729 0.929 . S
H718 C732 0.930 . S
H719 C734 0.960 . S
H720 C734 0.960 . S
H721 C734 0.960 . S
C722 H714 0.929 . S
C722 C723 1.377 . S
C722 C724 1.384 . S
C723 C722 1.377 . S
C723 C729 1.390 . S
C724 H715 0.930 . S
C724 C722 1.384 . S
C724 C725 1.372 . S
C725 C724 1.372 . S
C725 C726 1.400 . S
C725 C730 1.490 . S
C726 H716 0.930 . S
C726 C725 1.400 . S
C726 C729 1.386 . S
H727 C743 0.930 . S
H728 C744 0.931 . S
C729 H717 0.929 . S
C729 C723 1.390 . S
C729 C726 1.386 . S
C730 C725 1.490 . S
C730 C732 1.395 . S
C730 C733 1.403 . S
H731 C737 0.930 . S
C732 H718 0.930 . S
C732 C730 1.395 . S
C732 C735 1.403 . S
C733 C730 1.403 . S
C733 C734 1.524 . S
C733 C737 1.400 . S
C734 H719 0.960 . S
C734 H720 0.960 . S
C734 H721 0.960 . S
C734 C733 1.524 . S
C735 C732 1.403 . S
C735 C736 1.392 . S
C735 C739 1.495 . S
C736 C735 1.392 . S
C736 C737 1.385 . S
C736 C738 1.478 . S
C737 H731 0.930 . S
C737 C733 1.400 . S
C737 C736 1.385 . S
C738 C736 1.478 . S
C738 C740 1.381 . S
C738 C744 1.383 . S
C739 C735 1.495 . S
C739 H745 0.959 . S
C739 H746 0.961 . S
C739 H747 0.960 . S
C740 C738 1.381 . S
C740 C741 1.394 . S
C740 H748 0.930 . S
C741 C740 1.394 . S
C741 C742 1.383 . S
C741 H749 0.929 . S
C742 C741 1.383 . S
C742 C743 1.377 . S
C743 H727 0.930 . S
C743 C742 1.377 . S
C743 C744 1.379 . S
C744 H728 0.931 . S
C744 C738 1.383 . S
C744 C743 1.379 . S
H745 C739 0.959 . S
H746 C739 0.961 . S
H747 C739 0.960 . S
H748 C740 0.930 . S
H749 C741 0.929 . S
H750 C758 0.929 . S
H751 C760 0.930 . S
H752 C762 0.930 . S
H753 C765 0.929 . S
H754 C768 0.930 . S
H755 C770 0.960 . S
H756 C770 0.960 . S
H757 C770 0.960 . S
C758 H750 0.929 . S
C758 C759 1.377 . S
C758 C760 1.384 . S
C759 C758 1.377 . S
C759 C765 1.390 . S
C760 H751 0.930 . S
C760 C758 1.384 . S
C760 C761 1.372 . S
C761 C760 1.372 . S
C761 C762 1.400 . S
C761 C766 1.490 . S
C762 H752 0.930 . S
C762 C761 1.400 . S
C762 C765 1.386 . S
H763 C779 0.930 . S
H764 C780 0.931 . S
C765 H753 0.929 . S
C765 C759 1.390 . S
C765 C762 1.386 . S
C766 C761 1.490 . S
C766 C768 1.395 . S
C766 C769 1.403 . S
H767 C773 0.930 . S
C768 H754 0.930 . S
C768 C766 1.395 . S
C768 C771 1.403 . S
C769 C766 1.403 . S
C769 C770 1.524 . S
C769 C773 1.400 . S
C770 H755 0.960 . S
C770 H756 0.960 . S
C770 H757 0.960 . S
C770 C769 1.524 . S
C771 C768 1.403 . S
C771 C772 1.392 . S
C771 C775 1.495 . S
C772 C771 1.392 . S
C772 C773 1.385 . S
C772 C774 1.478 . S
C773 H767 0.930 . S
C773 C769 1.400 . S
C773 C772 1.385 . S
C774 C772 1.478 . S
C774 C776 1.381 . S
C774 C780 1.383 . S
C775 C771 1.495 . S
C775 H781 0.959 . S
C775 H782 0.961 . S
C775 H783 0.960 . S
C776 C774 1.381 . S
C776 C777 1.394 . S
C776 H784 0.930 . S
C777 C776 1.394 . S
C777 C778 1.383 . S
C777 H785 0.929 . S
C778 C777 1.383 . S
C778 C779 1.377 . S
C779 H763 0.930 . S
C779 C778 1.377 . S
C779 C780 1.379 . S
C780 H764 0.931 . S
C780 C774 1.383 . S
C780 C779 1.379 . S
H781 C775 0.959 . S
H782 C775 0.961 . S
H783 C775 0.960 . S
H784 C776 0.930 . S
H785 C777 0.929 . S
H786 C794 0.929 . S
H787 C796 0.930 . S
H788 C798 0.930 . S
H789 C801 0.929 . S
H790 C804 0.930 . S
H791 C806 0.960 . S
H792 C806 0.960 . S
H793 C806 0.960 . S
C794 H786 0.929 . S
C794 C795 1.377 . S
C794 C796 1.384 . S
C795 C794 1.377 . S
C795 C801 1.390 . S
C796 H787 0.930 . S
C796 C794 1.384 . S
C796 C797 1.372 . S
C797 C796 1.372 . S
C797 C798 1.400 . S
C797 C802 1.490 . S
C798 H788 0.930 . S
C798 C797 1.400 . S
C798 C801 1.386 . S
H799 C815 0.930 . S
H800 C816 0.931 . S
C801 H789 0.929 . S
C801 C795 1.390 . S
C801 C798 1.386 . S
C802 C797 1.490 . S
C802 C804 1.395 . S
C802 C805 1.403 . S
H803 C809 0.930 . S
C804 H790 0.930 . S
C804 C802 1.395 . S
C804 C807 1.403 . S
C805 C802 1.403 . S
C805 C806 1.524 . S
C805 C809 1.400 . S
C806 H791 0.960 . S
C806 H792 0.960 . S
C806 H793 0.960 . S
C806 C805 1.524 . S
C807 C804 1.403 . S
C807 C808 1.392 . S
C807 C811 1.495 . S
C808 C807 1.392 . S
C808 C809 1.385 . S
C808 C810 1.478 . S
C809 H803 0.930 . S
C809 C805 1.400 . S
C809 C808 1.385 . S
C810 C808 1.478 . S
C810 C812 1.381 . S
C810 C816 1.383 . S
C811 C807 1.495 . S
C811 H817 0.959 . S
C811 H818 0.961 . S
C811 H819 0.960 . S
C812 C810 1.381 . S
C812 C813 1.394 . S
C812 H820 0.930 . S
C813 C812 1.394 . S
C813 C814 1.383 . S
C813 H821 0.929 . S
C814 C813 1.383 . S
C814 C815 1.377 . S
C815 H799 0.930 . S
C815 C814 1.377 . S
C815 C816 1.379 . S
C816 H800 0.931 . S
C816 C810 1.383 . S
C816 C815 1.379 . S
H817 C811 0.959 . S
H818 C811 0.961 . S
H819 C811 0.960 . S
H820 C812 0.930 . S
H821 C813 0.929 . S
H822 C830 0.929 . S
H823 C832 0.930 . S
H824 C834 0.930 . S
H825 C837 0.929 . S
H826 C840 0.930 . S
H827 C842 0.960 . S
H828 C842 0.960 . S
H829 C842 0.960 . S
C830 H822 0.929 . S
C830 C831 1.377 . S
C830 C832 1.384 . S
C831 C830 1.377 . S
C831 C837 1.390 . S
C832 H823 0.930 . S
C832 C830 1.384 . S
C832 C833 1.372 . S
C833 C832 1.372 . S
C833 C834 1.400 . S
C833 C838 1.490 . S
C834 H824 0.930 . S
C834 C833 1.400 . S
C834 C837 1.386 . S
H835 C851 0.930 . S
H836 C852 0.931 . S
C837 H825 0.929 . S
C837 C831 1.390 . S
C837 C834 1.386 . S
C838 C833 1.490 . S
C838 C840 1.395 . S
C838 C841 1.403 . S
H839 C845 0.930 . S
C840 H826 0.930 . S
C840 C838 1.395 . S
C840 C843 1.403 . S
C841 C838 1.403 . S
C841 C842 1.524 . S
C841 C845 1.400 . S
C842 H827 0.960 . S
C842 H828 0.960 . S
C842 H829 0.960 . S
C842 C841 1.524 . S
C843 C840 1.403 . S
C843 C844 1.392 . S
C843 C847 1.495 . S
C844 C843 1.392 . S
C844 C845 1.385 . S
C844 C846 1.478 . S
C845 H839 0.930 . S
C845 C841 1.400 . S
C845 C844 1.385 . S
C846 C844 1.478 . S
C846 C848 1.381 . S
C846 C852 1.383 . S
C847 C843 1.495 . S
C847 H853 0.959 . S
C847 H854 0.961 . S
C847 H855 0.960 . S
C848 C846 1.381 . S
C848 C849 1.394 . S
C848 H856 0.930 . S
C849 C848 1.394 . S
C849 C850 1.383 . S
C849 H857 0.929 . S
C850 C849 1.383 . S
C850 C851 1.377 . S
C851 H835 0.930 . S
C851 C850 1.377 . S
C851 C852 1.379 . S
C852 H836 0.931 . S
C852 C846 1.383 . S
C852 C851 1.379 . S
H853 C847 0.959 . S
H854 C847 0.961 . S
H855 C847 0.960 . S
H856 C848 0.930 . S
H857 C849 0.929 . S
H858 C866 0.929 . S
H859 C868 0.930 . S
H860 C870 0.930 . S
H861 C873 0.929 . S
H862 C876 0.930 . S
H863 C878 0.960 . S
H864 C878 0.960 . S
H865 C878 0.960 . S
C866 H858 0.929 . S
C866 C867 1.377 . S
C866 C868 1.384 . S
C867 C866 1.377 . S
C867 C873 1.390 . S
C868 H859 0.930 . S
C868 C866 1.384 . S
C868 C869 1.372 . S
C869 C868 1.372 . S
C869 C870 1.400 . S
C869 C874 1.490 . S
C870 H860 0.930 . S
C870 C869 1.400 . S
C870 C873 1.386 . S
H871 C887 0.930 . S
H872 C888 0.931 . S
C873 H861 0.929 . S
C873 C867 1.390 . S
C873 C870 1.386 . S
C874 C869 1.490 . S
C874 C876 1.395 . S
C874 C877 1.403 . S
H875 C881 0.930 . S
C876 H862 0.930 . S
C876 C874 1.395 . S
C876 C879 1.403 . S
C877 C874 1.403 . S
C877 C878 1.524 . S
C877 C881 1.400 . S
C878 H863 0.960 . S
C878 H864 0.960 . S
C878 H865 0.960 . S
C878 C877 1.524 . S
C879 C876 1.403 . S
C879 C880 1.392 . S
C879 C883 1.495 . S
C880 C879 1.392 . S
C880 C881 1.385 . S
C880 C882 1.478 . S
C881 H875 0.930 . S
C881 C877 1.400 . S
C881 C880 1.385 . S
C882 C880 1.478 . S
C882 C884 1.381 . S
C882 C888 1.383 . S
C883 C879 1.495 . S
C883 H889 0.959 . S
C883 H890 0.961 . S
C883 H891 0.960 . S
C884 C882 1.381 . S
C884 C885 1.394 . S
C884 H892 0.930 . S
C885 C884 1.394 . S
C885 C886 1.383 . S
C885 H893 0.929 . S
C886 C885 1.383 . S
C886 C887 1.377 . S
C887 H871 0.930 . S
C887 C886 1.377 . S
C887 C888 1.379 . S
C888 H872 0.931 . S
C888 C882 1.383 . S
C888 C887 1.379 . S
H889 C883 0.959 . S
H890 C883 0.961 . S
H891 C883 0.960 . S
H892 C884 0.930 . S
H893 C885 0.929 . S
H894 C902 0.929 . S
H895 C904 0.930 . S
H896 C906 0.930 . S
H897 C909 0.929 . S
H898 C912 0.930 . S
H899 C914 0.960 . S
H900 C914 0.960 . S
H901 C914 0.960 . S
C902 H894 0.929 . S
C902 C903 1.377 . S
C902 C904 1.384 . S
C903 C902 1.377 . S
C903 C909 1.390 . S
C904 H895 0.930 . S
C904 C902 1.384 . S
C904 C905 1.372 . S
C905 C904 1.372 . S
C905 C906 1.400 . S
C905 C910 1.490 . S
C906 H896 0.930 . S
C906 C905 1.400 . S
C906 C909 1.386 . S
H907 C923 0.930 . S
H908 C924 0.931 . S
C909 H897 0.929 . S
C909 C903 1.390 . S
C909 C906 1.386 . S
C910 C905 1.490 . S
C910 C912 1.395 . S
C910 C913 1.403 . S
H911 C917 0.930 . S
C912 H898 0.930 . S
C912 C910 1.395 . S
C912 C915 1.403 . S
C913 C910 1.403 . S
C913 C914 1.524 . S
C913 C917 1.400 . S
C914 H899 0.960 . S
C914 H900 0.960 . S
C914 H901 0.960 . S
C914 C913 1.524 . S
C915 C912 1.403 . S
C915 C916 1.392 . S
C915 C919 1.495 . S
C916 C915 1.392 . S
C916 C917 1.385 . S
C916 C918 1.478 . S
C917 H911 0.930 . S
C917 C913 1.400 . S
C917 C916 1.385 . S
C918 C916 1.478 . S
C918 C920 1.381 . S
C918 C924 1.383 . S
C919 C915 1.495 . S
C919 H925 0.959 . S
C919 H926 0.961 . S
C919 H927 0.960 . S
C920 C918 1.381 . S
C920 C921 1.394 . S
C920 H928 0.930 . S
C921 C920 1.394 . S
C921 C922 1.383 . S
C921 H929 0.929 . S
C922 C921 1.383 . S
C922 C923 1.377 . S
C923 H907 0.930 . S
C923 C922 1.377 . S
C923 C924 1.379 . S
C924 H908 0.931 . S
C924 C918 1.383 . S
C924 C923 1.379 . S
H925 C919 0.959 . S
H926 C919 0.961 . S
H927 C919 0.960 . S
H928 C920 0.930 . S
H929 C921 0.929 . S
H930 C938 0.929 . S
H931 C940 0.930 . S
H932 C942 0.930 . S
H933 C945 0.929 . S
H934 C948 0.930 . S
H935 C950 0.960 . S
H936 C950 0.960 . S
H937 C950 0.960 . S
C938 H930 0.929 . S
C938 C939 1.377 . S
C938 C940 1.384 . S
C939 C938 1.377 . S
C939 C945 1.390 . S
C940 H931 0.930 . S
C940 C938 1.384 . S
C940 C941 1.372 . S
C941 C940 1.372 . S
C941 C942 1.400 . S
C941 C946 1.490 . S
C942 H932 0.930 . S
C942 C941 1.400 . S
C942 C945 1.386 . S
H943 C959 0.930 . S
H944 C960 0.931 . S
C945 H933 0.929 . S
C945 C939 1.390 . S
C945 C942 1.386 . S
C946 C941 1.490 . S
C946 C948 1.395 . S
C946 C949 1.403 . S
H947 C953 0.930 . S
C948 H934 0.930 . S
C948 C946 1.395 . S
C948 C951 1.403 . S
C949 C946 1.403 . S
C949 C950 1.524 . S
C949 C953 1.400 . S
C950 H935 0.960 . S
C950 H936 0.960 . S
C950 H937 0.960 . S
C950 C949 1.524 . S
C951 C948 1.403 . S
C951 C952 1.392 . S
C951 C955 1.495 . S
C952 C951 1.392 . S
C952 C953 1.385 . S
C952 C954 1.478 . S
C953 H947 0.930 . S
C953 C949 1.400 . S
C953 C952 1.385 . S
C954 C952 1.478 . S
C954 C956 1.381 . S
C954 C960 1.383 . S
C955 C951 1.495 . S
C955 H961 0.959 . S
C955 H962 0.961 . S
C955 H963 0.960 . S
C956 C954 1.381 . S
C956 C957 1.394 . S
C956 H964 0.930 . S
C957 C956 1.394 . S
C957 C958 1.383 . S
C957 H965 0.929 . S
C958 C957 1.383 . S
C958 C959 1.377 . S
C959 H943 0.930 . S
C959 C958 1.377 . S
C959 C960 1.379 . S
C960 H944 0.931 . S
C960 C954 1.383 . S
C960 C959 1.379 . S
H961 C955 0.959 . S
H962 C955 0.961 . S
H963 C955 0.960 . S
H964 C956 0.930 . S
H965 C957 0.929 . S
H966 C974 0.929 . S
H967 C976 0.930 . S
H968 C978 0.930 . S
H969 C981 0.929 . S
H970 C984 0.930 . S
H971 C986 0.960 . S
H972 C986 0.960 . S
H973 C986 0.960 . S
C974 H966 0.929 . S
C974 C975 1.377 . S
C974 C976 1.384 . S
C975 C974 1.377 . S
C975 C981 1.390 . S
C976 H967 0.930 . S
C976 C974 1.384 . S
C976 C977 1.372 . S
C977 C976 1.372 . S
C977 C978 1.400 . S
C977 C982 1.490 . S
C978 H968 0.930 . S
C978 C977 1.400 . S
C978 C981 1.386 . S
H979 C995 0.930 . S
H980 C996 0.931 . S
C981 H969 0.929 . S
C981 C975 1.390 . S
C981 C978 1.386 . S
C982 C977 1.490 . S
C982 C984 1.395 . S
C982 C985 1.403 . S
H983 C989 0.930 . S
C984 H970 0.930 . S
C984 C982 1.395 . S
C984 C987 1.403 . S
C985 C982 1.403 . S
C985 C986 1.524 . S
C985 C989 1.400 . S
C986 H971 0.960 . S
C986 H972 0.960 . S
C986 H973 0.960 . S
C986 C985 1.524 . S
C987 C984 1.403 . S
C987 C988 1.392 . S
C987 C991 1.495 . S
C988 C987 1.392 . S
C988 C989 1.385 . S
C988 C990 1.478 . S
C989 H983 0.930 . S
C989 C985 1.400 . S
C989 C988 1.385 . S
C990 C988 1.478 . S
C990 C992 1.381 . S
C990 C996 1.383 . S
C991 C987 1.495 . S
C991 H997 0.959 . S
C991 H998 0.961 . S
C991 H999 0.960 . S
C992 C990 1.381 . S
C992 C993 1.394 . S
C992 H1000 0.930 . S
C993 C992 1.394 . S
C993 C994 1.383 . S
C993 H1001 0.929 . S
C994 C993 1.383 . S
C994 C995 1.377 . S
C995 H979 0.930 . S
C995 C994 1.377 . S
C995 C996 1.379 . S
C996 H980 0.931 . S
C996 C990 1.383 . S
C996 C995 1.379 . S
H997 C991 0.959 . S
H998 C991 0.961 . S
H999 C991 0.960 . S
H1000 C992 0.930 . S
H1001 C993 0.929 . S
H1002 C1010 0.929 . S
H1003 C1012 0.930 . S
H1004 C1014 0.930 . S
H1005 C1017 0.929 . S
H1006 C1020 0.930 . S
H1007 C1022 0.960 . S
H1008 C1022 0.960 . S
H1009 C1022 0.960 . S
C1010 H1002 0.929 . S
C1010 C1011 1.377 . S
C1010 C1012 1.384 . S
C1011 C1010 1.377 . S
C1011 C1017 1.390 . S
C1012 H1003 0.930 . S
C1012 C1010 1.384 . S
C1012 C1013 1.372 . S
C1013 C1012 1.372 . S
C1013 C1014 1.400 . S
C1013 C1018 1.490 . S
C1014 H1004 0.930 . S
C1014 C1013 1.400 . S
C1014 C1017 1.386 . S
H1015 C1031 0.930 . S
H1016 C1032 0.931 . S
C1017 H1005 0.929 . S
C1017 C1011 1.390 . S
C1017 C1014 1.386 . S
C1018 C1013 1.490 . S
C1018 C1020 1.395 . S
C1018 C1021 1.403 . S
H1019 C1025 0.930 . S
C1020 H1006 0.930 . S
C1020 C1018 1.395 . S
C1020 C1023 1.403 . S
C1021 C1018 1.403 . S
C1021 C1022 1.524 . S
C1021 C1025 1.400 . S
C1022 H1007 0.960 . S
C1022 H1008 0.960 . S
C1022 H1009 0.960 . S
C1022 C1021 1.524 . S
C1023 C1020 1.403 . S
C1023 C1024 1.392 . S
C1023 C1027 1.495 . S
C1024 C1023 1.392 . S
C1024 C1025 1.385 . S
C1024 C1026 1.478 . S
C1025 H1019 0.930 . S
C1025 C1021 1.400 . S
C1025 C1024 1.385 . S
C1026 C1024 1.478 . S
C1026 C1028 1.381 . S
C1026 C1032 1.383 . S
C1027 C1023 1.495 . S
C1027 H1033 0.959 . S
C1027 H1034 0.961 . S
C1027 H1035 0.960 . S
C1028 C1026 1.381 . S
C1028 C1029 1.394 . S
C1028 H1036 0.930 . S
C1029 C1028 1.394 . S
C1029 C1030 1.383 . S
C1029 H1037 0.929 . S
C1030 C1029 1.383 . S
C1030 C1031 1.377 . S
C1031 H1015 0.930 . S
C1031 C1030 1.377 . S
C1031 C1032 1.379 . S
C1032 H1016 0.931 . S
C1032 C1026 1.383 . S
C1032 C1031 1.379 . S
H1033 C1027 0.959 . S
H1034 C1027 0.961 . S
H1035 C1027 0.960 . S
H1036 C1028 0.930 . S
H1037 C1029 0.929 . S
H1038 C1046 0.929 . S
H1039 C1048 0.930 . S
H1040 C1050 0.930 . S
H1041 C1053 0.929 . S
H1042 C1056 0.930 . S
H1043 C1058 0.960 . S
H1044 C1058 0.960 . S
H1045 C1058 0.960 . S
C1046 H1038 0.929 . S
C1046 C1047 1.377 . S
C1046 C1048 1.384 . S
C1047 C1046 1.377 . S
C1047 C1053 1.390 . S
C1048 H1039 0.930 . S
C1048 C1046 1.384 . S
C1048 C1049 1.372 . S
C1049 C1048 1.372 . S
C1049 C1050 1.400 . S
C1049 C1054 1.490 . S
C1050 H1040 0.930 . S
C1050 C1049 1.400 . S
C1050 C1053 1.386 . S
H1051 C1067 0.930 . S
H1052 C1068 0.931 . S
C1053 H1041 0.929 . S
C1053 C1047 1.390 . S
C1053 C1050 1.386 . S
C1054 C1049 1.490 . S
C1054 C1056 1.395 . S
C1054 C1057 1.403 . S
H1055 C1061 0.930 . S
C1056 H1042 0.930 . S
C1056 C1054 1.395 . S
C1056 C1059 1.403 . S
C1057 C1054 1.403 . S
C1057 C1058 1.524 . S
C1057 C1061 1.400 . S
C1058 H1043 0.960 . S
C1058 H1044 0.960 . S
C1058 H1045 0.960 . S
C1058 C1057 1.524 . S
C1059 C1056 1.403 . S
C1059 C1060 1.392 . S
C1059 C1063 1.495 . S
C1060 C1059 1.392 . S
C1060 C1061 1.385 . S
C1060 C1062 1.478 . S
C1061 H1055 0.930 . S
C1061 C1057 1.400 . S
C1061 C1060 1.385 . S
C1062 C1060 1.478 . S
C1062 C1064 1.381 . S
C1062 C1068 1.383 . S
C1063 C1059 1.495 . S
C1063 H1069 0.959 . S
C1063 H1070 0.961 . S
C1063 H1071 0.960 . S
C1064 C1062 1.381 . S
C1064 C1065 1.394 . S
C1064 H1072 0.930 . S
C1065 C1064 1.394 . S
C1065 C1066 1.383 . S
C1065 H1073 0.929 . S
C1066 C1065 1.383 . S
C1066 C1067 1.377 . S
C1067 H1051 0.930 . S
C1067 C1066 1.377 . S
C1067 C1068 1.379 . S
C1068 H1052 0.931 . S
C1068 C1062 1.383 . S
C1068 C1067 1.379 . S
H1069 C1063 0.959 . S
H1070 C1063 0.961 . S
H1071 C1063 0.960 . S
H1072 C1064 0.930 . S
H1073 C1065 0.929 . S
H1074 C1082 0.929 . S
H1075 C1084 0.930 . S
H1076 C1086 0.930 . S
H1077 C1089 0.929 . S
H1078 C1092 0.930 . S
H1079 C1094 0.960 . S
H1080 C1094 0.960 . S
H1081 C1094 0.960 . S
C1082 H1074 0.929 . S
C1082 C1083 1.377 . S
C1082 C1084 1.384 . S
C1083 C1082 1.377 . S
C1083 C1089 1.390 . S
C1084 H1075 0.930 . S
C1084 C1082 1.384 . S
C1084 C1085 1.372 . S
C1085 C1084 1.372 . S
C1085 C1086 1.400 . S
C1085 C1090 1.490 . S
C1086 H1076 0.930 . S
C1086 C1085 1.400 . S
C1086 C1089 1.386 . S
H1087 C1103 0.930 . S
H1088 C1104 0.931 . S
C1089 H1077 0.929 . S
C1089 C1083 1.390 . S
C1089 C1086 1.386 . S
C1090 C1085 1.490 . S
C1090 C1092 1.395 . S
C1090 C1093 1.403 . S
H1091 C1097 0.930 . S
C1092 H1078 0.930 . S
C1092 C1090 1.395 . S
C1092 C1095 1.403 . S
C1093 C1090 1.403 . S
C1093 C1094 1.524 . S
C1093 C1097 1.400 . S
C1094 H1079 0.960 . S
C1094 H1080 0.960 . S
C1094 H1081 0.960 . S
C1094 C1093 1.524 . S
C1095 C1092 1.403 . S
C1095 C1096 1.392 . S
C1095 C1099 1.495 . S
C1096 C1095 1.392 . S
C1096 C1097 1.385 . S
C1096 C1098 1.478 . S
C1097 H1091 0.930 . S
C1097 C1093 1.400 . S
C1097 C1096 1.385 . S
C1098 C1096 1.478 . S
C1098 C1100 1.381 . S
C1098 C1104 1.383 . S
C1099 C1095 1.495 . S
C1099 H1105 0.959 . S
C1099 H1106 0.961 . S
C1099 H1107 0.960 . S
C1100 C1098 1.381 . S
C1100 C1101 1.394 . S
C1100 H1108 0.930 . S
C1101 C1100 1.394 . S
C1101 C1102 1.383 . S
C1101 H1109 0.929 . S
C1102 C1101 1.383 . S
C1102 C1103 1.377 . S
C1103 H1087 0.930 . S
C1103 C1102 1.377 . S
C1103 C1104 1.379 . S
C1104 H1088 0.931 . S
C1104 C1098 1.383 . S
C1104 C1103 1.379 . S
H1105 C1099 0.959 . S
H1106 C1099 0.961 . S
H1107 C1099 0.960 . S
H1108 C1100 0.930 . S
H1109 C1101 0.929 . S
H1110 C1118 0.929 . S
H1111 C1120 0.930 . S
H1112 C1122 0.930 . S
H1113 C1125 0.929 . S
H1114 C1128 0.930 . S
H1115 C1130 0.960 . S
H1116 C1130 0.960 . S
H1117 C1130 0.960 . S
C1118 H1110 0.929 . S
C1118 C1119 1.377 . S
C1118 C1120 1.384 . S
C1119 C1118 1.377 . S
C1119 C1125 1.390 . S
C1120 H1111 0.930 . S
C1120 C1118 1.384 . S
C1120 C1121 1.372 . S
C1121 C1120 1.372 . S
C1121 C1122 1.400 . S
C1121 C1126 1.490 . S
C1122 H1112 0.930 . S
C1122 C1121 1.400 . S
C1122 C1125 1.386 . S
H1123 C1139 0.930 . S
H1124 C1140 0.931 . S
C1125 H1113 0.929 . S
C1125 C1119 1.390 . S
C1125 C1122 1.386 . S
C1126 C1121 1.490 . S
C1126 C1128 1.395 . S
C1126 C1129 1.403 . S
H1127 C1133 0.930 . S
C1128 H1114 0.930 . S
C1128 C1126 1.395 . S
C1128 C1131 1.403 . S
C1129 C1126 1.403 . S
C1129 C1130 1.524 . S
C1129 C1133 1.400 . S
C1130 H1115 0.960 . S
C1130 H1116 0.960 . S
C1130 H1117 0.960 . S
C1130 C1129 1.524 . S
C1131 C1128 1.403 . S
C1131 C1132 1.392 . S
C1131 C1135 1.495 . S
C1132 C1131 1.392 . S
C1132 C1133 1.385 . S
C1132 C1134 1.478 . S
C1133 H1127 0.930 . S
C1133 C1129 1.400 . S
C1133 C1132 1.385 . S
C1134 C1132 1.478 . S
C1134 C1136 1.381 . S
C1134 C1140 1.383 . S
C1135 C1131 1.495 . S
C1135 H1141 0.959 . S
C1135 H1142 0.961 . S
C1135 H1143 0.960 . S
C1136 C1134 1.381 . S
C1136 C1137 1.394 . S
C1136 H1144 0.930 . S
C1137 C1136 1.394 . S
C1137 C1138 1.383 . S
C1137 H1145 0.929 . S
C1138 C1137 1.383 . S
C1138 C1139 1.377 . S
C1139 H1123 0.930 . S
C1139 C1138 1.377 . S
C1139 C1140 1.379 . S
C1140 H1124 0.931 . S
C1140 C1134 1.383 . S
C1140 C1139 1.379 . S
H1141 C1135 0.959 . S
H1142 C1135 0.961 . S
H1143 C1135 0.960 . S
H1144 C1136 0.930 . S
H1145 C1137 0.929 . S
H1146 C1154 0.929 . S
H1147 C1156 0.930 . S
H1148 C1158 0.930 . S
H1149 C1161 0.929 . S
H1150 C1164 0.930 . S
H1151 C1166 0.960 . S
H1152 C1166 0.960 . S
H1153 C1166 0.960 . S
C1154 H1146 0.929 . S
C1154 C1155 1.377 . S
C1154 C1156 1.384 . S
C1155 C1154 1.377 . S
C1155 C1161 1.390 . S
C1156 H1147 0.930 . S
C1156 C1154 1.384 . S
C1156 C1157 1.372 . S
C1157 C1156 1.372 . S
C1157 C1158 1.400 . S
C1157 C1162 1.490 . S
C1158 H1148 0.930 . S
C1158 C1157 1.400 . S
C1158 C1161 1.386 . S
H1159 C1175 0.930 . S
H1160 C1176 0.931 . S
C1161 H1149 0.929 . S
C1161 C1155 1.390 . S
C1161 C1158 1.386 . S
C1162 C1157 1.490 . S
C1162 C1164 1.395 . S
C1162 C1165 1.403 . S
H1163 C1169 0.930 . S
C1164 H1150 0.930 . S
C1164 C1162 1.395 . S
C1164 C1167 1.403 . S
C1165 C1162 1.403 . S
C1165 C1166 1.524 . S
C1165 C1169 1.400 . S
C1166 H1151 0.960 . S
C1166 H1152 0.960 . S
C1166 H1153 0.960 . S
C1166 C1165 1.524 . S
C1167 C1164 1.403 . S
C1167 C1168 1.392 . S
C1167 C1171 1.495 . S
C1168 C1167 1.392 . S
C1168 C1169 1.385 . S
C1168 C1170 1.478 . S
C1169 H1163 0.930 . S
C1169 C1165 1.400 . S
C1169 C1168 1.385 . S
C1170 C1168 1.478 . S
C1170 C1172 1.381 . S
C1170 C1176 1.383 . S
C1171 C1167 1.495 . S
C1171 H1177 0.959 . S
C1171 H1178 0.961 . S
C1171 H1179 0.960 . S
C1172 C1170 1.381 . S
C1172 C1173 1.394 . S
C1172 H1180 0.930 . S
C1173 C1172 1.394 . S
C1173 C1174 1.383 . S
C1173 H1181 0.929 . S
C1174 C1173 1.383 . S
C1174 C1175 1.377 . S
C1175 H1159 0.930 . S
C1175 C1174 1.377 . S
C1175 C1176 1.379 . S
C1176 H1160 0.931 . S
C1176 C1170 1.383 . S
C1176 C1175 1.379 . S
H1177 C1171 0.959 . S
H1178 C1171 0.961 . S
H1179 C1171 0.960 . S
H1180 C1172 0.930 . S
H1181 C1173 0.929 . S
H1182 C1190 0.929 . S
H1183 C1192 0.930 . S
H1184 C1194 0.930 . S
H1185 C1197 0.929 . S
H1186 C1200 0.930 . S
H1187 C1202 0.960 . S
H1188 C1202 0.960 . S
H1189 C1202 0.960 . S
C1190 H1182 0.929 . S
C1190 C1191 1.377 . S
C1190 C1192 1.384 . S
C1191 C1190 1.377 . S
C1191 C1197 1.390 . S
C1192 H1183 0.930 . S
C1192 C1190 1.384 . S
C1192 C1193 1.372 . S
C1193 C1192 1.372 . S
C1193 C1194 1.400 . S
C1193 C1198 1.490 . S
C1194 H1184 0.930 . S
C1194 C1193 1.400 . S
C1194 C1197 1.386 . S
H1195 C1211 0.930 . S
H1196 C1212 0.931 . S
C1197 H1185 0.929 . S
C1197 C1191 1.390 . S
C1197 C1194 1.386 . S
C1198 C1193 1.490 . S
C1198 C1200 1.395 . S
C1198 C1201 1.403 . S
H1199 C1205 0.930 . S
C1200 H1186 0.930 . S
C1200 C1198 1.395 . S
C1200 C1203 1.403 . S
C1201 C1198 1.403 . S
C1201 C1202 1.524 . S
C1201 C1205 1.400 . S
C1202 H1187 0.960 . S
C1202 H1188 0.960 . S
C1202 H1189 0.960 . S
C1202 C1201 1.524 . S
C1203 C1200 1.403 . S
C1203 C1204 1.392 . S
C1203 C1207 1.495 . S
C1204 C1203 1.392 . S
C1204 C1205 1.385 . S
C1204 C1206 1.478 . S
C1205 H1199 0.930 . S
C1205 C1201 1.400 . S
C1205 C1204 1.385 . S
C1206 C1204 1.478 . S
C1206 C1208 1.381 . S
C1206 C1212 1.383 . S
C1207 C1203 1.495 . S
C1207 H1213 0.959 . S
C1207 H1214 0.961 . S
C1207 H1215 0.960 . S
C1208 C1206 1.381 . S
C1208 C1209 1.394 . S
C1208 H1216 0.930 . S
C1209 C1208 1.394 . S
C1209 C1210 1.383 . S
C1209 H1217 0.929 . S
C1210 C1209 1.383 . S
C1210 C1211 1.377 . S
C1211 H1195 0.930 . S
C1211 C1210 1.377 . S
C1211 C1212 1.379 . S
C1212 H1196 0.931 . S
C1212 C1206 1.383 . S
C1212 C1211 1.379 . S
H1213 C1207 0.959 . S
H1214 C1207 0.961 . S
H1215 C1207 0.960 . S
H1216 C1208 0.930 . S
H1217 C1209 0.929 . S
H1218 C1226 0.929 . S
H1219 C1228 0.930 . S
H1220 C1230 0.930 . S
H1221 C1233 0.929 . S
H1222 C1236 0.930 . S
H1223 C1238 0.960 . S
H1224 C1238 0.960 . S
H1225 C1238 0.960 . S
C1226 H1218 0.929 . S
C1226 C1227 1.377 . S
C1226 C1228 1.384 . S
C1227 C1226 1.377 . S
C1227 C1233 1.390 . S
C1228 H1219 0.930 . S
C1228 C1226 1.384 . S
C1228 C1229 1.372 . S
C1229 C1228 1.372 . S
C1229 C1230 1.400 . S
C1229 C1234 1.490 . S
C1230 H1220 0.930 . S
C1230 C1229 1.400 . S
C1230 C1233 1.386 . S
H1231 C1247 0.930 . S
H1232 C1248 0.931 . S
C1233 H1221 0.929 . S
C1233 C1227 1.390 . S
C1233 C1230 1.386 . S
C1234 C1229 1.490 . S
C1234 C1236 1.395 . S
C1234 C1237 1.403 . S
H1235 C1241 0.930 . S
C1236 H1222 0.930 . S
C1236 C1234 1.395 . S
C1236 C1239 1.403 . S
C1237 C1234 1.403 . S
C1237 C1238 1.524 . S
C1237 C1241 1.400 . S
C1238 H1223 0.960 . S
C1238 H1224 0.960 . S
C1238 H1225 0.960 . S
C1238 C1237 1.524 . S
C1239 C1236 1.403 . S
C1239 C1240 1.392 . S
C1239 C1243 1.495 . S
C1240 C1239 1.392 . S
C1240 C1241 1.385 . S
C1240 C1242 1.478 . S
C1241 H1235 0.930 . S
C1241 C1237 1.400 . S
C1241 C1240 1.385 . S
C1242 C1240 1.478 . S
C1242 C1244 1.381 . S
C1242 C1248 1.383 . S
C1243 C1239 1.495 . S
C1243 H1249 0.959 . S
C1243 H1250 0.961 . S
C1243 H1251 0.960 . S
C1244 C1242 1.381 . S
C1244 C1245 1.394 . S
C1244 H1252 0.930 . S
C1245 C1244 1.394 . S
C1245 C1246 1.383 . S
C1245 H1253 0.929 . S
C1246 C1245 1.383 . S
C1246 C1247 1.377 . S
C1247 H1231 0.930 . S
C1247 C1246 1.377 . S
C1247 C1248 1.379 . S
C1248 H1232 0.931 . S
C1248 C1242 1.383 . S
C1248 C1247 1.379 . S
H1249 C1243 0.959 . S
H1250 C1243 0.961 . S
H1251 C1243 0.960 . S
H1252 C1244 0.930 . S
H1253 C1245 0.929 . S
H1254 C1262 0.929 . S
H1255 C1264 0.930 . S
H1256 C1266 0.930 . S
H1257 C1269 0.929 . S
H1258 C1272 0.930 . S
H1259 C1274 0.960 . S
H1260 C1274 0.960 . S
H1261 C1274 0.960 . S
C1262 H1254 0.929 . S
C1262 C1263 1.377 . S
C1262 C1264 1.384 . S
C1263 C1262 1.377 . S
C1263 C1269 1.390 . S
C1264 H1255 0.930 . S
C1264 C1262 1.384 . S
C1264 C1265 1.372 . S
C1265 C1264 1.372 . S
C1265 C1266 1.400 . S
C1265 C1270 1.490 . S
C1266 H1256 0.930 . S
C1266 C1265 1.400 . S
C1266 C1269 1.386 . S
H1267 C1283 0.930 . S
H1268 C1284 0.931 . S
C1269 H1257 0.929 . S
C1269 C1263 1.390 . S
C1269 C1266 1.386 . S
C1270 C1265 1.490 . S
C1270 C1272 1.395 . S
C1270 C1273 1.403 . S
H1271 C1277 0.930 . S
C1272 H1258 0.930 . S
C1272 C1270 1.395 . S
C1272 C1275 1.403 . S
C1273 C1270 1.403 . S
C1273 C1274 1.524 . S
C1273 C1277 1.400 . S
C1274 H1259 0.960 . S
C1274 H1260 0.960 . S
C1274 H1261 0.960 . S
C1274 C1273 1.524 . S
C1275 C1272 1.403 . S
C1275 C1276 1.392 . S
C1275 C1279 1.495 . S
C1276 C1275 1.392 . S
C1276 C1277 1.385 . S
C1276 C1278 1.478 . S
C1277 H1271 0.930 . S
C1277 C1273 1.400 . S
C1277 C1276 1.385 . S
C1278 C1276 1.478 . S
C1278 C1280 1.381 . S
C1278 C1284 1.383 . S
C1279 C1275 1.495 . S
C1279 H1285 0.959 . S
C1279 H1286 0.961 . S
C1279 H1287 0.960 . S
C1280 C1278 1.381 . S
C1280 C1281 1.394 . S
C1280 H1288 0.930 . S
C1281 C1280 1.394 . S
C1281 C1282 1.383 . S
C1281 H1289 0.929 . S
C1282 C1281 1.383 . S
C1282 C1283 1.377 . S
C1283 H1267 0.930 . S
C1283 C1282 1.377 . S
C1283 C1284 1.379 . S
C1284 H1268 0.931 . S
C1284 C1278 1.383 . S
C1284 C1283 1.379 . S
H1285 C1279 0.959 . S
H1286 C1279 0.961 . S
H1287 C1279 0.960 . S
H1288 C1280 0.930 . S
H1289 C1281 0.929 . S
H1290 C1298 0.929 . S
H1291 C1300 0.930 . S
H1292 C1302 0.930 . S
H1293 C1305 0.929 . S
H1294 C1308 0.930 . S
H1295 C1310 0.960 . S
H1296 C1310 0.960 . S
H1297 C1310 0.960 . S
C1298 H1290 0.929 . S
C1298 C1299 1.377 . S
C1298 C1300 1.384 . S
C1299 C1298 1.377 . S
C1299 C1305 1.390 . S
C1300 H1291 0.930 . S
C1300 C1298 1.384 . S
C1300 C1301 1.372 . S
C1301 C1300 1.372 . S
C1301 C1302 1.400 . S
C1301 C1306 1.490 . S
C1302 H1292 0.930 . S
C1302 C1301 1.400 . S
C1302 C1305 1.386 . S
H1303 C1319 0.930 . S
H1304 C1320 0.931 . S
C1305 H1293 0.929 . S
C1305 C1299 1.390 . S
C1305 C1302 1.386 . S
C1306 C1301 1.490 . S
C1306 C1308 1.395 . S
C1306 C1309 1.403 . S
H1307 C1313 0.930 . S
C1308 H1294 0.930 . S
C1308 C1306 1.395 . S
C1308 C1311 1.403 . S
C1309 C1306 1.403 . S
C1309 C1310 1.524 . S
C1309 C1313 1.400 . S
C1310 H1295 0.960 . S
C1310 H1296 0.960 . S
C1310 H1297 0.960 . S
C1310 C1309 1.524 . S
C1311 C1308 1.403 . S
C1311 C1312 1.392 . S
C1311 C1315 1.495 . S
C1312 C1311 1.392 . S
C1312 C1313 1.385 . S
C1312 C1314 1.478 . S
C1313 H1307 0.930 . S
C1313 C1309 1.400 . S
C1313 C1312 1.385 . S
C1314 C1312 1.478 . S
C1314 C1316 1.381 . S
C1314 C1320 1.383 . S
C1315 C1311 1.495 . S
C1315 H1321 0.959 . S
C1315 H1322 0.961 . S
C1315 H1323 0.960 . S
C1316 C1314 1.381 . S
C1316 C1317 1.394 . S
C1316 H1324 0.930 . S
C1317 C1316 1.394 . S
C1317 C1318 1.383 . S
C1317 H1325 0.929 . S
C1318 C1317 1.383 . S
C1318 C1319 1.377 . S
C1319 H1303 0.930 . S
C1319 C1318 1.377 . S
C1319 C1320 1.379 . S
C1320 H1304 0.931 . S
C1320 C1314 1.383 . S
C1320 C1319 1.379 . S
H1321 C1315 0.959 . S
H1322 C1315 0.961 . S
H1323 C1315 0.960 . S
H1324 C1316 0.930 . S
H1325 C1317 0.929 . S
H1326 C1334 0.929 . S
H1327 C1336 0.930 . S
H1328 C1338 0.930 . S
H1329 C1341 0.929 . S
H1330 C1344 0.930 . S
H1331 C1346 0.960 . S
H1332 C1346 0.960 . S
H1333 C1346 0.960 . S
C1334 H1326 0.929 . S
C1334 C1335 1.377 . S
C1334 C1336 1.384 . S
C1335 C1334 1.377 . S
C1335 C1341 1.390 . S
C1336 H1327 0.930 . S
C1336 C1334 1.384 . S
C1336 C1337 1.372 . S
C1337 C1336 1.372 . S
C1337 C1338 1.400 . S
C1337 C1342 1.490 . S
C1338 H1328 0.930 . S
C1338 C1337 1.400 . S
C1338 C1341 1.386 . S
H1339 C1355 0.930 . S
H1340 C1356 0.931 . S
C1341 H1329 0.929 . S
C1341 C1335 1.390 . S
C1341 C1338 1.386 . S
C1342 C1337 1.490 . S
C1342 C1344 1.395 . S
C1342 C1345 1.403 . S
H1343 C1349 0.930 . S
C1344 H1330 0.930 . S
C1344 C1342 1.395 . S
C1344 C1347 1.403 . S
C1345 C1342 1.403 . S
C1345 C1346 1.524 . S
C1345 C1349 1.400 . S
C1346 H1331 0.960 . S
C1346 H1332 0.960 . S
C1346 H1333 0.960 . S
C1346 C1345 1.524 . S
C1347 C1344 1.403 . S
C1347 C1348 1.392 . S
C1347 C1351 1.495 . S
C1348 C1347 1.392 . S
C1348 C1349 1.385 . S
C1348 C1350 1.478 . S
C1349 H1343 0.930 . S
C1349 C1345 1.400 . S
C1349 C1348 1.385 . S
C1350 C1348 1.478 . S
C1350 C1352 1.381 . S
C1350 C1356 1.383 . S
C1351 C1347 1.495 . S
C1351 H1357 0.959 . S
C1351 H1358 0.961 . S
C1351 H1359 0.960 . S
C1352 C1350 1.381 . S
C1352 C1353 1.394 . S
C1352 H1360 0.930 . S
C1353 C1352 1.394 . S
C1353 C1354 1.383 . S
C1353 H1361 0.929 . S
C1354 C1353 1.383 . S
C1354 C1355 1.377 . S
C1355 H1339 0.930 . S
C1355 C1354 1.377 . S
C1355 C1356 1.379 . S
C1356 H1340 0.931 . S
C1356 C1350 1.383 . S
C1356 C1355 1.379 . S
H1357 C1351 0.959 . S
H1358 C1351 0.961 . S
H1359 C1351 0.960 . S
H1360 C1352 0.930 . S
H1361 C1353 0.929 . S
H1362 C1370 0.929 . S
H1363 C1372 0.930 . S
H1364 C1374 0.930 . S
H1365 C1377 0.929 . S
H1366 C1380 0.930 . S
H1367 C1382 0.960 . S
H1368 C1382 0.960 . S
H1369 C1382 0.960 . S
C1370 H1362 0.929 . S
C1370 C1371 1.377 . S
C1370 C1372 1.384 . S
C1371 C1370 1.377 . S
C1371 C1377 1.390 . S
C1372 H1363 0.930 . S
C1372 C1370 1.384 . S
C1372 C1373 1.372 . S
C1373 C1372 1.372 . S
C1373 C1374 1.400 . S
C1373 C1378 1.490 . S
C1374 H1364 0.930 . S
C1374 C1373 1.400 . S
C1374 C1377 1.386 . S
H1375 C1391 0.930 . S
H1376 C1392 0.931 . S
C1377 H1365 0.929 . S
C1377 C1371 1.390 . S
C1377 C1374 1.386 . S
C1378 C1373 1.490 . S
C1378 C1380 1.395 . S
C1378 C1381 1.403 . S
H1379 C1385 0.930 . S
C1380 H1366 0.930 . S
C1380 C1378 1.395 . S
C1380 C1383 1.403 . S
C1381 C1378 1.403 . S
C1381 C1382 1.524 . S
C1381 C1385 1.400 . S
C1382 H1367 0.960 . S
C1382 H1368 0.960 . S
C1382 H1369 0.960 . S
C1382 C1381 1.524 . S
C1383 C1380 1.403 . S
C1383 C1384 1.392 . S
C1383 C1387 1.495 . S
C1384 C1383 1.392 . S
C1384 C1385 1.385 . S
C1384 C1386 1.478 . S
C1385 H1379 0.930 . S
C1385 C1381 1.400 . S
C1385 C1384 1.385 . S
C1386 C1384 1.478 . S
C1386 C1388 1.381 . S
C1386 C1392 1.383 . S
C1387 C1383 1.495 . S
C1387 H1393 0.959 . S
C1387 H1394 0.961 . S
C1387 H1395 0.960 . S
C1388 C1386 1.381 . S
C1388 C1389 1.394 . S
C1388 H1396 0.930 . S
C1389 C1388 1.394 . S
C1389 C1390 1.383 . S
C1389 H1397 0.929 . S
C1390 C1389 1.383 . S
C1390 C1391 1.377 . S
C1391 H1375 0.930 . S
C1391 C1390 1.377 . S
C1391 C1392 1.379 . S
C1392 H1376 0.931 . S
C1392 C1386 1.383 . S
C1392 C1391 1.379 . S
H1393 C1387 0.959 . S
H1394 C1387 0.961 . S
H1395 C1387 0.960 . S
H1396 C1388 0.930 . S
H1397 C1389 0.929 . S
H1398 C1406 0.929 . S
H1399 C1408 0.930 . S
H1400 C1410 0.930 . S
H1401 C1413 0.929 . S
H1402 C1416 0.930 . S
H1403 C1418 0.960 . S
H1404 C1418 0.960 . S
H1405 C1418 0.960 . S
C1406 H1398 0.929 . S
C1406 C1407 1.377 . S
C1406 C1408 1.384 . S
C1407 C1406 1.377 . S
C1407 C1413 1.390 . S
C1408 H1399 0.930 . S
C1408 C1406 1.384 . S
C1408 C1409 1.372 . S
C1409 C1408 1.372 . S
C1409 C1410 1.400 . S
C1409 C1414 1.490 . S
C1410 H1400 0.930 . S
C1410 C1409 1.400 . S
C1410 C1413 1.386 . S
H1411 C1427 0.930 . S
H1412 C1428 0.931 . S
C1413 H1401 0.929 . S
C1413 C1407 1.390 . S
C1413 C1410 1.386 . S
C1414 C1409 1.490 . S
C1414 C1416 1.395 . S
C1414 C1417 1.403 . S
H1415 C1421 0.930 . S
C1416 H1402 0.930 . S
C1416 C1414 1.395 . S
C1416 C1419 1.403 . S
C1417 C1414 1.403 . S
C1417 C1418 1.524 . S
C1417 C1421 1.400 . S
C1418 H1403 0.960 . S
C1418 H1404 0.960 . S
C1418 H1405 0.960 . S
C1418 C1417 1.524 . S
C1419 C1416 1.403 . S
C1419 C1420 1.392 . S
C1419 C1423 1.495 . S
C1420 C1419 1.392 . S
C1420 C1421 1.385 . S
C1420 C1422 1.478 . S
C1421 H1415 0.930 . S
C1421 C1417 1.400 . S
C1421 C1420 1.385 . S
C1422 C1420 1.478 . S
C1422 C1424 1.381 . S
C1422 C1428 1.383 . S
C1423 C1419 1.495 . S
C1423 H1429 0.959 . S
C1423 H1430 0.961 . S
C1423 H1431 0.960 . S
C1424 C1422 1.381 . S
C1424 C1425 1.394 . S
C1424 H1432 0.930 . S
C1425 C1424 1.394 . S
C1425 C1426 1.383 . S
C1425 H1433 0.929 . S
C1426 C1425 1.383 . S
C1426 C1427 1.377 . S
C1427 H1411 0.930 . S
C1427 C1426 1.377 . S
C1427 C1428 1.379 . S
C1428 H1412 0.931 . S
C1428 C1422 1.383 . S
C1428 C1427 1.379 . S
H1429 C1423 0.959 . S
H1430 C1423 0.961 . S
H1431 C1423 0.960 . S
H1432 C1424 0.930 . S
H1433 C1425 0.929 . S
H1434 C1442 0.929 . S
H1435 C1444 0.930 . S
H1436 C1446 0.930 . S
H1437 C1449 0.929 . S
H1438 C1452 0.930 . S
H1439 C1454 0.960 . S
H1440 C1454 0.960 . S
H1441 C1454 0.960 . S
C1442 H1434 0.929 . S
C1442 C1443 1.377 . S
C1442 C1444 1.384 . S
C1443 C1442 1.377 . S
C1443 C1449 1.390 . S
C1444 H1435 0.930 . S
C1444 C1442 1.384 . S
C1444 C1445 1.372 . S
C1445 C1444 1.372 . S
C1445 C1446 1.400 . S
C1445 C1450 1.490 . S
C1446 H1436 0.930 . S
C1446 C1445 1.400 . S
C1446 C1449 1.386 . S
H1447 C1463 0.930 . S
H1448 C1464 0.931 . S
C1449 H1437 0.929 . S
C1449 C1443 1.390 . S
C1449 C1446 1.386 . S
C1450 C1445 1.490 . S
C1450 C1452 1.395 . S
C1450 C1453 1.403 . S
H1451 C1457 0.930 . S
C1452 H1438 0.930 . S
C1452 C1450 1.395 . S
C1452 C1455 1.403 . S
C1453 C1450 1.403 . S
C1453 C1454 1.524 . S
C1453 C1457 1.400 . S
C1454 H1439 0.960 . S
C1454 H1440 0.960 . S
C1454 H1441 0.960 . S
C1454 C1453 1.524 . S
C1455 C1452 1.403 . S
C1455 C1456 1.392 . S
C1455 C1459 1.495 . S
C1456 C1455 1.392 . S
C1456 C1457 1.385 . S
C1456 C1458 1.478 . S
C1457 H1451 0.930 . S
C1457 C1453 1.400 . S
C1457 C1456 1.385 . S
C1458 C1456 1.478 . S
C1458 C1460 1.381 . S
C1458 C1464 1.383 . S
C1459 C1455 1.495 . S
C1459 H1465 0.959 . S
C1459 H1466 0.961 . S
C1459 H1467 0.960 . S
C1460 C1458 1.381 . S
C1460 C1461 1.394 . S
C1460 H1468 0.930 . S
C1461 C1460 1.394 . S
C1461 C1462 1.383 . S
C1461 H1469 0.929 . S
C1462 C1461 1.383 . S
C1462 C1463 1.377 . S
C1463 H1447 0.930 . S
C1463 C1462 1.377 . S
C1463 C1464 1.379 . S
C1464 H1448 0.931 . S
C1464 C1458 1.383 . S
C1464 C1463 1.379 . S
H1465 C1459 0.959 . S
H1466 C1459 0.961 . S
H1467 C1459 0.960 . S
H1468 C1460 0.930 . S
H1469 C1461 0.929 . S
C615 C39 1.766 . S
C634 C339 1.757 . S
C651 C91 1.722 . S
C670 C396 1.717 . S
C706 C450 1.563 . S
C687 C128 1.592 . S
C742 C507 1.503 . S
C723 C188 1.540 . S
C778 C531 1.634 . S
C759 C250 1.644 . S
C814 C588 1.721 . S
C795 C304 1.722 . S
C831 C75 1.652 . S
C850 C435 1.647 . S
C867 C144 1.749 . S
C886 C492 1.751 . S
C922 C546 1.679 . S
C903 C198 1.703 . S
C958 C603 1.508 . S
C939 C234 1.561 . S
C975 C294 1.534 . S
C994 C354 1.520 . S
C1030 C411 1.525 . S
C1011 C29 1.565 . S
C1066 C498 1.759 . S
C1047 C38 1.766 . S
C1083 C92 1.722 . S
C1102 C540 1.672 . S
C1138 C579 1.547 . S
C1119 C135 1.592 . S
C1155 C181 1.540 . S
C1174 C348 1.516 . S
C1191 C251 1.646 . S
C1210 C387 1.621 . S
C1227 C303 1.722 . S
C1246 C459 1.711 . S
C1263 C82 1.652 . S
C1282 C594 1.622 . S
C1318 C363 1.747 . S
C1299 C145 1.750 . S
C1335 C197 1.701 . S
C1354 C402 1.678 . S
C1371 C241 1.562 . S
C1390 C444 1.535 . S
C1407 C287 1.534 . S
C1426 C483 1.495 . S
C1443 C22 1.563 . S
C1462 C555 1.558 . S
