# Generated by pormake.
# Topology anh, (6,3)-cn, num edge types: 1
# Building blocks:
#     Node 0, Type 0, BuildingBlock: INOVEN_clean_sbu_0, # of connection points: 6
#     Node 1, Type 0, BuildingBlock: INOVEN_clean_sbu_0, # of connection points: 6
#     Node 2, Type 0, BuildingBlock: INOVEN_clean_sbu_0, # of connection points: 6
#     Node 3, Type 1, BuildingBlock: QEWDON_clean_linker_0, # of connection points: 3
#     Node 4, Type 1, BuildingBlock: QEWDON_clean_linker_0, # of connection points: 3
#     Node 5, Type 1, BuildingBlock: QEWDON_clean_linker_0, # of connection points: 3
#     Node 6, Type 1, BuildingBlock: QEWDON_clean_linker_0, # of connection points: 3
#     Node 7, Type 1, BuildingBlock: QEWDON_clean_linker_0, # of connection points: 3
#     Node 8, Type 1, BuildingBlock: QEWDON_clean_linker_0, # of connection points: 3
#     Edge 9, Type (0, 1), BuildingBlock: ZUJKAS_clean_linker_0, # of connection points: 2
#     Edge 10, Type (0, 1), BuildingBlock: ZUJKAS_clean_linker_0, # of connection points: 2
#     Edge 11, Type (0, 1), BuildingBlock: ZUJKAS_clean_linker_0, # of connection points: 2
#     Edge 12, Type (0, 1), BuildingBlock: ZUJKAS_clean_linker_0, # of connection points: 2
#     Edge 13, Type (0, 1), BuildingBlock: ZUJKAS_clean_linker_0, # of connection points: 2
#     Edge 14, Type (0, 1), BuildingBlock: ZUJKAS_clean_linker_0, # of connection points: 2
#     Edge 15, Type (0, 1), BuildingBlock: ZUJKAS_clean_linker_0, # of connection points: 2
#     Edge 16, Type (0, 1), BuildingBlock: ZUJKAS_clean_linker_0, # of connection points: 2
#     Edge 17, Type (0, 1), BuildingBlock: ZUJKAS_clean_linker_0, # of connection points: 2
#     Edge 18, Type (0, 1), BuildingBlock: ZUJKAS_clean_linker_0, # of connection points: 2
#     Edge 19, Type (0, 1), BuildingBlock: ZUJKAS_clean_linker_0, # of connection points: 2
#     Edge 20, Type (0, 1), BuildingBlock: ZUJKAS_clean_linker_0, # of connection points: 2
#     Edge 21, Type (0, 1), BuildingBlock: ZUJKAS_clean_linker_0, # of connection points: 2
#     Edge 22, Type (0, 1), BuildingBlock: ZUJKAS_clean_linker_0, # of connection points: 2
#     Edge 23, Type (0, 1), BuildingBlock: ZUJKAS_clean_linker_0, # of connection points: 2
#     Edge 24, Type (0, 1), BuildingBlock: ZUJKAS_clean_linker_0, # of connection points: 2
#     Edge 25, Type (0, 1), BuildingBlock: ZUJKAS_clean_linker_0, # of connection points: 2
#     Edge 26, Type (0, 1), BuildingBlock: ZUJKAS_clean_linker_0, # of connection points: 2
# Relax obj value: 0.104
# Max RMSD: 0.160
# Mean RMSD: 0.123
data_MOF--net-anh--node1-INOVEN_clean_sbu_0--node2-QEWDON_clean_linker_0--edge1-ZUJKAS_clean_linker_0
_symmetry_space_group_name_H-M    P1
_symmetry_Int_Tables_number       1
_symmetry_cell_setting            triclinic
loop_
_symmetry_equiv_pos_as_xyz
'x, y, z'
_cell_length_a     40.918183
_cell_length_b     48.51939
_cell_length_c     62.21834
_cell_angle_alpha  96.49625
_cell_angle_beta   91.627605
_cell_angle_gamma 127.80922
loop_
_atom_site_label
_atom_site_type_symbol
_atom_site_fract_x
_atom_site_fract_y
_atom_site_fract_z
_atom_type_partial_charge
Gd0 Gd 0.10659 0.52001 0.14943 0.0
Gd1 Gd 1.05241 0.54002 0.16325 0.0
C2 C 0.15087 0.60268 0.16099 0.0
C3 C 0.14854 0.50208 0.13172 0.0
C4 C 0.1939 0.52327 0.13262 0.0
C5 C 0.21936 0.55719 0.14517 0.0
C6 C 0.21217 0.50995 0.1217 0.0
C7 C 0.28125 0.56414 0.13661 0.0
C8 C 0.25566 0.53027 0.12369 0.0
C9 C 0.26253 0.57753 0.14702 0.0
C10 C 0.1083 0.53353 0.19279 0.0
C11 C 1.00798 0.45811 0.1515 0.0
C12 C 1.01267 0.55782 0.18381 0.0
C13 C 0.97111 0.53573 0.19096 0.0
C14 C 0.93956 0.50217 0.17894 0.0
C15 C 0.96293 0.54754 0.21008 0.0
C16 C 0.89054 0.49397 0.2038 0.0
C17 C 0.92297 0.52679 0.21651 0.0
C18 C 0.89965 0.48157 0.18522 0.0
C19 C 1.05224 0.52783 0.11974 0.0
O20 O 0.15304 0.57868 0.15057 0.0
O21 O 0.11644 0.59371 0.16892 0.0
O22 O 0.13434 0.49388 0.15043 0.0
O23 O 0.13206 0.51343 0.12101 0.0
O24 O 0.14089 0.54288 0.1835 0.0
O25 O 0.07645 0.51649 0.1789 0.0
O26 O 1.00754 0.48206 0.16348 0.0
O27 O 1.04111 0.46716 0.14191 0.0
O28 O 1.01348 0.55608 0.16269 0.0
O29 O 1.04048 0.55686 0.19375 0.0
O30 O 1.01932 0.51874 0.12866 0.0
O31 O 0.0833 0.54418 0.13405 0.0
H32 H 0.20585 0.5678 0.15389 0.0
H33 H 0.1929 0.48373 0.11199 0.0
H34 H 0.26918 0.5191 0.11564 0.0
H35 H 0.28126 0.60368 0.1568 0.0
H36 H 0.94545 0.49225 0.16431 0.0
H37 H 0.98721 0.57304 0.21982 0.0
H38 H 0.91719 0.53688 0.23109 0.0
H39 H 0.8755 0.45674 0.17485 0.0
Gd40 Gd 0.66519 0.07711 0.49025 0.0
Gd41 Gd 0.60693 0.09352 0.47941 0.0
C42 C 0.5648 0.01343 0.47962 0.0
C43 C 0.70119 0.05315 0.50564 0.0
C44 C 0.68914 0.01871 0.50944 0.0
C45 C 0.71555 0.01023 0.50457 0.0
C46 C 0.6515 0.99393 0.51744 0.0
C47 C 0.66697 0.95253 0.51558 0.0
C48 C 0.64056 0.96119 0.52051 0.0
C49 C 0.70461 0.97752 0.50756 0.0
C50 C 0.65514 0.0812 0.44806 0.0
C51 C 0.70802 0.15774 0.48948 0.0
C52 C 0.57097 0.11731 0.46375 0.0
C53 C 0.57756 0.15096 0.46743 0.0
C54 C 0.60334 0.17656 0.48582 0.0
C55 C 0.5573 0.15735 0.45269 0.0
C56 C 0.58707 0.21417 0.47516 0.0
C57 C 0.56205 0.18867 0.45647 0.0
C58 C 0.60797 0.20783 0.48969 0.0
C59 C 0.6179 0.09095 0.52189 0.0
O60 O 0.60056 0.02525 0.49049 0.0
O61 O 0.56147 0.0347 0.47007 0.0
O62 O 0.69975 0.05695 0.48525 0.0
O63 O 0.68716 0.06666 0.51789 0.0
O64 O 0.69052 0.09317 0.45845 0.0
O65 O 0.62649 0.06641 0.46008 0.0
O66 O 0.67092 0.14644 0.48096 0.0
O67 O 0.71336 0.13617 0.497 0.0
O68 O 0.55882 0.09959 0.48 0.0
O69 O 0.59962 0.11785 0.45447 0.0
O70 O 0.58301 0.08059 0.51189 0.0
O71 O 0.64589 0.10451 0.50947 0.0
H72 H 0.7446 0.02888 0.49825 0.0
H73 H 0.63051 0.99982 0.52129 0.0
H74 H 0.61155 0.94281 0.52692 0.0
H75 H 0.72538 0.97161 0.5032 0.0
H76 H 0.61936 0.1721 0.49736 0.0
H77 H 0.53752 0.13796 0.43832 0.0
H78 H 0.54611 0.19289 0.44472 0.0
H79 H 0.62709 0.22659 0.50437 0.0
Gd80 Gd 0.65498 0.59443 0.83898 0.0
Gd81 Gd 0.59652 0.51652 0.84214 0.0
C82 C 0.55513 0.55506 0.84252 0.0
C83 C 0.69167 0.65599 0.82774 0.0
C84 C 0.68266 0.68048 0.82481 0.0
C85 C 0.71532 0.71696 0.82879 0.0
C86 C 0.64213 0.66804 0.81799 0.0
C87 C 0.66729 0.72857 0.81884 0.0
C88 C 0.6345 0.69188 0.81503 0.0
C89 C 0.70776 0.7408 0.82584 0.0
C90 C 0.65135 0.57954 0.87955 0.0
C91 C 0.69682 0.55615 0.83959 0.0
C92 C 0.56119 0.45476 0.85269 0.0
C93 C 0.56932 0.42895 0.85118 0.0
C94 C 0.53666 0.39327 0.84312 0.0
C95 C 0.60938 0.4395 0.85695 0.0
C96 C 0.58412 0.37903 0.84599 0.0
C97 C 0.61674 0.41479 0.85433 0.0
C98 C 0.54394 0.36853 0.84055 0.0
C99 C 0.60122 0.53147 0.80139 0.0
O100 O 0.59078 0.58188 0.83654 0.0
O101 O 0.55135 0.52785 0.84829 0.0
O102 O 0.69531 0.65158 0.84777 0.0
O103 O 0.67097 0.62649 0.81375 0.0
O104 O 0.68539 0.60504 0.87281 0.0
O105 O 0.62073 0.56454 0.86502 0.0
O106 O 0.66039 0.52863 0.84439 0.0
O107 O 0.70145 0.58407 0.83451 0.0
O108 O 0.55083 0.45944 0.83416 0.0
O109 O 0.58702 0.48435 0.86639 0.0
O110 O 0.56708 0.50577 0.80791 0.0
O111 O 0.63132 0.54638 0.81621 0.0
H112 H 0.74677 0.72702 0.83416 0.0
H113 H 0.61645 0.63994 0.8148 0.0
H114 H 0.60306 0.68155 0.80942 0.0
H115 H 0.73358 0.76886 0.82927 0.0
H116 H 0.50556 0.3846 0.8385 0.0
H117 H 0.63505 0.46686 0.86337 0.0
H118 H 0.64793 0.42366 0.8589 0.0
H119 H 0.51824 0.34131 0.8338 0.0
H120 H 0.60085 0.07173 0.20574 0.0
C121 C 0.57596 0.04371 0.20067 0.0
C122 C 0.56167 0.02089 0.2162 0.0
C123 C 0.55768 0.03062 0.17874 0.0
H124 H 0.516 0.96722 0.22159 0.0
C125 C 0.52862 0.98471 0.20956 0.0
C126 C 0.51026 0.9709 0.18782 0.0
C127 C 0.52506 0.99398 0.17249 0.0
C128 C 0.57107 0.05521 0.16256 0.0
H129 H 0.51126 0.98323 0.15562 0.0
C130 C 0.61323 0.08521 0.16296 0.0
C131 C 0.62504 0.10818 0.1476 0.0
C132 C 0.54106 0.049 0.1467 0.0
H133 H 0.50832 0.02698 0.14622 0.0
C134 C 0.55262 0.07155 0.1315 0.0
H135 H 0.63693 0.09034 0.17487 0.0
C136 C 0.59417 0.10085 0.13189 0.0
H137 H 0.602 0.11827 0.12013 0.0
H138 H 0.52913 0.06649 0.11948 0.0
H139 H 0.58133 0.57959 0.56971 0.0
C140 C 0.5867 0.56184 0.56181 0.0
C141 C 0.60263 0.54935 0.5745 0.0
C142 C 0.5762 0.55047 0.53911 0.0
H143 H 0.6186 0.5144 0.57403 0.0
C144 C 0.60829 0.52546 0.56423 0.0
C145 C 0.59788 0.51366 0.54165 0.0
C146 C 0.58233 0.52661 0.5292 0.0
C147 C 0.55608 0.56135 0.52593 0.0
H148 H 0.57469 0.51783 0.51172 0.0
C149 C 0.56938 0.5963 0.52958 0.0
C150 C 0.5494 0.60591 0.51719 0.0
C151 C 0.52246 0.53622 0.50974 0.0
H152 H 0.51079 0.509 0.50682 0.0
C153 C 0.5029 0.54567 0.49735 0.0
H154 H 0.59509 0.61589 0.54205 0.0
C155 C 0.51623 0.58018 0.50096 0.0
H156 H 0.50075 0.58679 0.49084 0.0
H157 H 0.47719 0.5261 0.48489 0.0
H158 H 0.13874 0.55282 0.88697 0.0
C159 C 0.11278 0.55046 0.87947 0.0
C160 C 0.07972 0.54078 0.89163 0.0
C161 C 0.11296 0.55791 0.85817 0.0
H162 H 1.02218 0.53321 0.89236 0.0
C163 C 1.04656 0.53901 0.88256 0.0
C164 C 1.04517 0.54634 0.86157 0.0
C165 C 0.07832 0.55546 0.84936 0.0
C166 C 0.15038 0.57054 0.84592 0.0
H167 H 0.07648 0.56018 0.83296 0.0
C168 C 0.17849 0.56279 0.85016 0.0
C169 C 0.21485 0.57754 0.83935 0.0
C170 C 0.15967 0.59266 0.83039 0.0
H171 H 0.14096 0.60082 0.82703 0.0
C172 C 0.19418 0.60588 0.81921 0.0
H173 H 0.1728 0.54598 0.86194 0.0
C174 C 0.22135 0.59849 0.82358 0.0
H175 H 0.24792 0.60949 0.81454 0.0
H176 H 0.20036 0.62261 0.80725 0.0
H177 H 0.08814 0.55826 0.43498 0.0
C178 C 0.11849 0.5834 0.44058 0.0
C179 C 0.14675 0.60067 0.42546 0.0
C180 C 0.12889 0.59886 0.46275 0.0
H181 H 0.20663 0.64788 0.42085 0.0
C182 C 0.18557 0.63375 0.43264 0.0
C183 C 0.19663 0.64981 0.45455 0.0
C184 C 0.16828 0.6321 0.46955 0.0
C185 C 0.09805 0.58131 0.4786 0.0
H186 H 0.17709 0.64427 0.48655 0.0
C187 C 0.07119 0.54413 0.47749 0.0
C188 C 1.04222 0.52806 0.49261 0.0
C189 C 0.09493 0.60194 0.4949 0.0
H190 H 0.11408 0.63037 0.49594 0.0
C191 C 1.06641 0.58616 0.50986 0.0
H192 H 0.07336 0.52778 0.46522 0.0
C193 C 1.0403 0.54959 0.50878 0.0
H194 H 1.01795 0.53806 0.5204 0.0
H195 H 1.06426 0.60238 0.52225 0.0
H196 H 0.60568 0.02463 0.75019 0.0
C197 C 0.61086 0.04785 0.75898 0.0
C198 C 0.62764 0.07772 0.74886 0.0
C199 C 0.59891 0.04721 0.78 0.0
H200 H 0.64364 0.12952 0.75201 0.0
C201 C 0.6329 0.10723 0.76016 0.0
C202 C 0.62132 0.10714 0.7812 0.0
C203 C 0.60489 0.07717 0.79108 0.0
C204 C 0.57679 0.0143 0.78969 0.0
H205 H 0.59606 0.07693 0.80736 0.0
C206 C 0.59069 0.99389 0.78884 0.0
C207 C 0.56854 0.96218 0.79752 0.0
C208 C 0.5406 1.00265 0.7994 0.0
H209 H 0.52877 0.01746 0.8 0.0
C210 C 0.51872 0.97136 0.80806 0.0
H211 H 0.61851 1.00256 0.78139 0.0
C212 C 0.53247 0.95119 0.80711 0.0
H213 H 0.51514 0.92715 0.81414 0.0
H214 H 0.4909 0.96265 0.81548 0.0
H215 H 0.68543 0.61504 0.10921 0.0
C216 C 0.67972 0.59436 0.11765 0.0
C217 C 0.66591 0.56191 0.10571 0.0
C218 C 0.68626 0.6004 0.14045 0.0
H219 H 0.64898 0.51068 0.10765 0.0
C220 C 0.65817 0.53521 0.1169 0.0
C221 C 0.6644 0.54084 0.13986 0.0
C222 C 0.67818 0.57358 0.15145 0.0
C223 C 0.70003 0.63436 0.15286 0.0
H224 H 0.68214 0.57824 0.16911 0.0
C225 C 0.67586 0.6454 0.15002 0.0
C226 C 0.68669 0.67646 0.16259 0.0
C227 C 0.736 0.655 0.16812 0.0
H228 H 0.75503 0.64681 0.17056 0.0
C229 C 0.74759 0.68642 0.18031 0.0
H230 H 0.64725 0.62861 0.13881 0.0
C231 C 0.72294 0.69704 0.17771 0.0
H232 H 0.7319 0.72104 0.18764 0.0
H233 H 0.7754 0.70229 0.19204 0.0
H234 H 0.33343 0.5727 0.10662 0.0
H235 H 0.40896 0.60516 0.1133 0.0
H236 H 0.40825 0.6359 0.18097 0.0
H237 H 0.33292 0.60268 0.1747 0.0
H238 H 0.47663 0.67945 0.13224 0.0
H239 H 0.45719 0.58228 0.18136 0.0
H240 H 0.41456 0.57294 0.16377 0.0
H241 H 0.43219 0.60116 0.18972 0.0
C242 C 0.34937 0.58625 0.12293 0.0
C243 C 0.32717 0.58497 0.14014 0.0
C244 C 0.39248 0.60506 0.12666 0.0
C245 C 0.41392 0.62266 0.14764 0.0
C246 C 0.3921 0.62226 0.1647 0.0
H247 H 0.6596 0.69558 0.19632 0.0
H248 H 0.59835 0.69348 0.1943 0.0
C249 C 0.34911 0.60345 0.16102 0.0
C250 C 0.45864 0.63959 0.152 0.0
H251 H 0.52554 0.63069 0.17772 0.0
C252 C 0.48752 0.66904 0.14229 0.0
C253 C 0.47253 0.62595 0.16523 0.0
C254 C 0.44259 0.59369 0.17552 0.0
C255 C 0.53018 0.68502 0.14527 0.0
C256 C 0.54389 0.6707 0.15798 0.0
C257 C 0.51503 0.64188 0.16817 0.0
C258 C 0.58677 0.68205 0.15905 0.0
C259 C 0.56006 0.7169 0.13474 0.0
C260 C 0.60163 0.67797 0.13988 0.0
C261 C 0.63679 0.67947 0.14099 0.0
C262 C 0.65731 0.6846 0.1613 0.0
C263 C 0.64459 0.69179 0.18044 0.0
C264 C 0.60948 0.69043 0.17931 0.0
H265 H 0.54806 0.73177 0.1325 0.0
H266 H 0.59124 0.73504 0.14457 0.0
H267 H 0.56369 0.70802 0.11838 0.0
H268 H 0.58425 0.67084 0.12409 0.0
H269 H 0.64624 0.67422 0.12598 0.0
H270 H 0.70798 0.20953 0.47615 0.0
H271 H 0.76743 0.27116 0.47604 0.0
H272 H 0.84967 0.25402 0.50456 0.0
H273 H 0.79026 0.19189 0.50442 0.0
H274 H 0.82179 0.32316 0.5101 0.0
H275 H 0.90698 0.30028 0.45245 0.0
H276 H 0.85345 0.26591 0.45599 0.0
H277 H 0.89511 0.27789 0.47554 0.0
C278 C 0.73867 0.2187 0.48237 0.0
C279 C 0.74427 0.19557 0.49022 0.0
C280 C 0.77269 0.25405 0.48229 0.0
C281 C 0.81316 0.26714 0.48995 0.0
C282 C 0.81888 0.24434 0.49811 0.0
H283 H 1.02211 0.49091 0.52636 0.0
H284 H 0.96821 0.42744 0.5254 0.0
C285 C 0.78479 0.20887 0.49819 0.0
C286 C 0.84896 0.30493 0.48989 0.0
H287 H 0.94201 0.3595 0.46991 0.0
C288 C 0.84807 0.33108 0.50131 0.0
C289 C 0.88297 0.31528 0.47815 0.0
C290 C 0.88468 0.28842 0.46465 0.0
C291 C 0.88035 0.36721 0.50153 0.0
C292 C 0.91499 0.37762 0.49035 0.0
C293 C 0.91568 0.35151 0.47867 0.0
C294 C 0.95046 0.41555 0.49054 0.0
C295 C 0.87664 0.39392 0.5134 0.0
C296 C 0.95981 0.42978 0.47112 0.0
C297 C 0.99086 0.46617 0.4716 0.0
C298 C 1.01308 0.48893 0.49153 0.0
C299 C 1.00499 0.47422 0.51079 0.0
C300 C 0.97415 0.43794 0.51028 0.0
H301 H 0.84393 0.3817 0.51614 0.0
H302 H 0.89584 0.40516 0.52956 0.0
H303 H 0.88808 0.41597 0.50418 0.0
H304 H 0.94208 0.41294 0.45567 0.0
H305 H 0.99621 0.47666 0.4565 0.0
H306 H 0.60147 0.72638 0.82985 0.0
H307 H 0.58864 0.76829 0.82428 0.0
H308 H 0.70299 0.83083 0.79555 0.0
H309 H 0.71546 0.78852 0.80043 0.0
H310 H 0.64004 0.84146 0.84087 0.0
H311 H 0.61557 0.81536 0.75022 0.0
H312 H 0.61396 0.78575 0.76616 0.0
H313 H 0.66314 0.82599 0.76245 0.0
C314 C 0.62362 0.74879 0.82208 0.0
C315 C 0.65941 0.75401 0.81551 0.0
C316 C 0.61639 0.77283 0.81905 0.0
C317 C 0.64463 0.80242 0.80929 0.0
C318 C 0.68049 0.80788 0.80282 0.0
H319 H 0.64741 0.98446 0.80876 0.0
H320 H 0.66912 0.94741 0.81083 0.0
C321 C 0.68778 0.78386 0.80584 0.0
C322 C 0.63681 0.82788 0.8063 0.0
H323 H 0.61601 0.86159 0.76761 0.0
C324 C 0.63497 0.846 0.82487 0.0
C325 C 0.63001 0.83355 0.78538 0.0
C326 C 0.63039 0.81398 0.76486 0.0
C327 C 0.62638 0.86961 0.82307 0.0
C328 C 0.61966 0.87531 0.80217 0.0
C329 C 0.62161 0.85733 0.78359 0.0
C330 C 0.60782 0.89811 0.79935 0.0
C331 C 0.62342 0.88767 0.84344 0.0
C332 C 0.56649 0.88258 0.79176 0.0
C333 C 0.55404 0.90355 0.79064 0.0
C334 C 0.58283 0.94048 0.7969 0.0
C335 C 0.62464 0.9561 0.80372 0.0
C336 C 0.63701 0.93502 0.80502 0.0
H337 H 0.6247 0.8773 0.8582 0.0
H338 H 0.64963 0.91647 0.8458 0.0
H339 H 0.59393 0.88417 0.84176 0.0
H340 H 0.5436 0.85412 0.78726 0.0
H341 H 0.52173 0.89085 0.7851 0.0
H342 H 0.82692 0.42203 0.19927 0.0
H343 H 0.75205 0.39297 0.19628 0.0
H344 H 0.78011 0.49462 0.21399 0.0
H345 H 0.8539 0.52351 0.21682 0.0
H346 H 0.70463 0.43849 0.22812 0.0
H347 H 0.71209 0.40591 0.14029 0.0
H348 H 0.7226 0.38807 0.16079 0.0
H349 H 0.75978 0.43413 0.15877 0.0
C350 C 0.81699 0.43803 0.20301 0.0
C351 C 0.84646 0.47521 0.20781 0.0
C352 C 0.77423 0.42134 0.20138 0.0
C353 C 0.76053 0.44169 0.20447 0.0
C354 C 0.78991 0.4783 0.21159 0.0
H355 H 0.71175 0.55225 0.17667 0.0
H356 H 0.70926 0.50923 0.1942 0.0
C357 C 0.83237 0.4949 0.21322 0.0
C358 C 0.71777 0.42765 0.19635 0.0
H359 H 0.67309 0.42513 0.14843 0.0
C360 C 0.69614 0.43377 0.21066 0.0
C361 C 0.70555 0.42025 0.1736 0.0
C362 C 0.72598 0.41159 0.15736 0.0
C363 C 0.66875 0.43959 0.20279 0.0
C364 C 0.6635 0.43953 0.18024 0.0
C365 C 0.67815 0.42615 0.1658 0.0
C366 C 0.65674 0.46353 0.17235 0.0
C367 C 0.64983 0.45012 0.21882 0.0
C368 C 0.62805 0.45233 0.15407 0.0
C369 C 0.6291 0.47723 0.14398 0.0
C370 C 0.65947 0.51374 0.15175 0.0
C371 C 0.68718 0.52452 0.17047 0.0
C372 C 0.68568 0.49977 0.18066 0.0
H373 H 0.64086 0.43488 0.23251 0.0
H374 H 0.67328 0.47857 0.22583 0.0
H375 H 0.62196 0.44574 0.21092 0.0
H376 H 0.60598 0.42453 0.14716 0.0
H377 H 0.60687 0.4679 0.12978 0.0
H378 H 0.48507 0.98077 0.46128 0.0
H379 H 0.42397 0.91902 0.45961 0.0
H380 H 0.49944 0.89857 0.49262 0.0
H381 H 0.56066 0.96047 0.49471 0.0
H382 H 0.40991 0.85916 0.43981 0.0
H383 H 0.40253 0.85769 0.5286 0.0
H384 H 0.43451 0.89817 0.51747 0.0
H385 H 0.4519 0.87243 0.52039 0.0
C386 C 0.48876 0.96322 0.46825 0.0
C387 C 0.52784 0.97571 0.47821 0.0
C388 C 0.45372 0.92788 0.4673 0.0
C389 C 0.45689 0.90423 0.47631 0.0
C390 C 0.49596 0.91647 0.48602 0.0
H391 H 0.27353 0.67513 0.44329 0.0
H392 H 0.33744 0.73649 0.44978 0.0
C393 C 0.53104 0.95187 0.48705 0.0
C394 C 0.41952 0.86656 0.47483 0.0
H395 H 0.35713 0.80208 0.50523 0.0
C396 C 0.39837 0.84672 0.45412 0.0
C397 C 0.40412 0.85042 0.49353 0.0
C398 C 0.42415 0.87082 0.51628 0.0
C399 C 0.3626 0.81117 0.45156 0.0
C400 C 0.34795 0.79469 0.4702 0.0
C401 C 0.3687 0.81461 0.49095 0.0
C402 C 0.31059 0.75698 0.46835 0.0
C403 C 0.34032 0.79178 0.4289 0.0
C404 C 0.27484 0.74781 0.47755 0.0
C405 C 0.23827 0.71265 0.47398 0.0
C406 C 0.23685 0.68606 0.46113 0.0
C407 C 0.27342 0.69511 0.45294 0.0
C408 C 0.30993 0.73016 0.45659 0.0
H409 H 0.34895 0.81034 0.41724 0.0
H410 H 0.34904 0.77492 0.42292 0.0
H411 H 0.30597 0.77444 0.4289 0.0
H412 H 0.27472 0.76806 0.48679 0.0
H413 H 0.21058 0.70659 0.48041 0.0
H414 H 0.65047 0.38743 0.82929 0.0
H415 H 0.66066 0.34276 0.82112 0.0
H416 H 0.54582 0.2668 0.84621 0.0
H417 H 0.5355 0.31128 0.85459 0.0
H418 H 0.66453 0.30037 0.84828 0.0
H419 H 0.52978 0.21969 0.78308 0.0
H420 H 0.55277 0.26483 0.79428 0.0
H421 H 0.51787 0.22964 0.80899 0.0
C422 C 0.62766 0.36136 0.83335 0.0
C423 C 0.59194 0.3528 0.8424 0.0
C424 C 0.63348 0.33586 0.8286 0.0
C425 C 0.60365 0.30137 0.83274 0.0
C426 C 0.56878 0.2931 0.84249 0.0
H427 H 0.56252 0.10332 0.80366 0.0
H428 H 0.56149 0.15163 0.81818 0.0
C429 C 0.5629 0.31852 0.84723 0.0
C430 C 0.60818 0.27366 0.82621 0.0
H431 H 0.56163 0.19472 0.79284 0.0
C432 C 0.64216 0.27729 0.83612 0.0
C433 C 0.57901 0.24372 0.81028 0.0
C434 C 0.54298 0.23925 0.79836 0.0
C435 C 0.64715 0.2512 0.83087 0.0
C436 C 0.61771 0.22109 0.81507 0.0
C437 C 0.58398 0.21771 0.80506 0.0
C438 C 0.62107 0.19267 0.80845 0.0
C439 C 0.68328 0.25568 0.84262 0.0
C440 C 0.65519 0.19976 0.79837 0.0
C441 C 0.65609 0.17218 0.79022 0.0
C442 C 0.62272 0.13696 0.79185 0.0
C443 C 0.58908 0.13014 0.80243 0.0
C444 C 0.58827 0.1577 0.8106 0.0
H445 H 0.6964 0.27505 0.85798 0.0
H446 H 0.67369 0.23006 0.84649 0.0
H447 H 0.70838 0.26559 0.83196 0.0
H448 H 0.6805 0.22646 0.79617 0.0
H449 H 0.68256 0.17835 0.78228 0.0
H450 H 0.58947 0.88758 0.50708 0.0
H451 H 0.57076 0.83 0.51073 0.0
H452 H 0.69916 0.87996 0.53286 0.0
H453 H 0.71783 0.93778 0.53029 0.0
H454 H 0.59757 0.79711 0.48917 0.0
H455 H 0.64078 0.8171 0.578 0.0
H456 H 0.63652 0.84685 0.56565 0.0
H457 H 0.68263 0.85008 0.56454 0.0
C458 C 0.61363 0.88648 0.51319 0.0
C459 C 0.65519 0.91746 0.51844 0.0
C460 C 0.60291 0.85346 0.5151 0.0
C461 C 0.63342 0.85063 0.52236 0.0
C462 C 0.67488 0.88147 0.52768 0.0
H463 H 0.62927 0.66881 0.52476 0.0
H464 H 0.65061 0.72878 0.52721 0.0
C465 C 0.68561 0.91452 0.52587 0.0
C466 C 0.62218 0.81526 0.52318 0.0
H467 H 0.62504 0.76537 0.55673 0.0
C468 C 0.60338 0.79016 0.50398 0.0
C469 C 0.62992 0.80619 0.54251 0.0
C470 C 0.6482 0.83134 0.5639 0.0
C471 C 0.59247 0.75644 0.50352 0.0
C472 C 0.60027 0.74743 0.52279 0.0
C473 C 0.61929 0.77248 0.54197 0.0
C474 C 0.58767 0.71164 0.52328 0.0
C475 C 0.57302 0.73071 0.48234 0.0
C476 C 0.5453 0.68238 0.52092 0.0
C477 C 0.53304 0.64825 0.5197 0.0
C478 C 0.56292 0.64261 0.52074 0.0
C479 C 0.60546 0.67219 0.52401 0.0
C480 C 0.61772 0.70644 0.52531 0.0
H481 H 0.57678 0.74397 0.46813 0.0
H482 H 0.58703 0.71713 0.47977 0.0
H483 H 0.53918 0.71024 0.48299 0.0
H484 H 0.52166 0.68592 0.51966 0.0
H485 H 0.50004 0.62618 0.51767 0.0
H486 H 0.69974 0.50301 0.84822 0.0
H487 H 0.75917 0.50249 0.8493 0.0
H488 H 0.83612 0.60652 0.83164 0.0
H489 H 0.77702 0.60754 0.83103 0.0
H490 H 0.80656 0.5057 0.81893 0.0
H491 H 0.90963 0.62258 0.88358 0.0
H492 H 0.85512 0.60185 0.87723 0.0
H493 H 0.89254 0.63188 0.86057 0.0
C494 C 0.72929 0.52596 0.8447 0.0
C495 C 0.73321 0.55546 0.83975 0.0
C496 C 0.76347 0.52558 0.84526 0.0
C497 C 0.80289 0.55474 0.84099 0.0
C498 C 0.80668 0.58397 0.83562 0.0
H499 H 1.04706 0.59664 0.8432 0.0
H500 H 0.98909 0.59873 0.83617 0.0
C501 C 0.77252 0.58439 0.8351 0.0
C502 C 0.8395 0.55421 0.84186 0.0
H503 H 0.93984 0.59878 0.86588 0.0
C504 C 0.83562 0.5261 0.82926 0.0
C505 C 0.87789 0.58074 0.85522 0.0
C506 C 0.88406 0.61079 0.87008 0.0
C507 C 0.86859 0.52394 0.8295 0.0
C508 C 0.9068 0.55027 0.84301 0.0
C509 C 0.91091 0.57861 0.8554 0.0
C510 C 0.94187 0.54793 0.84543 0.0
C511 C 0.86227 0.49357 0.81495 0.0
C512 C 0.93516 0.51864 0.85276 0.0
C513 C 0.9682 0.51739 0.8567 0.0
C514 C 1.00929 0.54544 0.85353 0.0
C515 C 1.01589 0.57432 0.84553 0.0
C516 C 0.98271 0.57567 0.84171 0.0
H517 H 0.83784 0.48259 0.80094 0.0
H518 H 0.89161 0.50185 0.80856 0.0
H519 H 0.85194 0.47206 0.82446 0.0
H520 H 0.90448 0.49711 0.85623 0.0
H521 H 0.96176 0.49474 0.86292 0.0
H522 H 0.22705 0.63095 0.14722 0.0
H523 H 0.28739 0.69332 0.1505 0.0
H524 H 0.21853 0.7231 0.18223 0.0
H525 H 0.15805 0.66068 0.1793 0.0
H526 H 0.2956 0.74816 0.13419 0.0
H527 H 0.32533 0.77578 0.22459 0.0
H528 H 0.29105 0.73142 0.2094 0.0
H529 H 0.27333 0.75732 0.21382 0.0
C530 C 0.22464 0.65068 0.15498 0.0
C531 C 0.18762 0.64067 0.16311 0.0
C532 C 0.25923 0.68639 0.15678 0.0
C533 C 0.25771 0.71291 0.16683 0.0
C534 C 0.22071 0.70309 0.17476 0.0
H535 H 0.43629 0.93968 0.16228 0.0
H536 H 0.37507 0.87698 0.15574 0.0
C537 C 0.18607 0.66735 0.173 0.0
C538 C 0.29486 0.75079 0.16893 0.0
H539 H 0.36551 0.82493 0.20627 0.0
C540 C 0.31092 0.76498 0.14994 0.0
C541 C 0.31513 0.7726 0.1895 0.0
C542 C 0.30065 0.75852 0.21052 0.0
C543 C 0.34647 0.80042 0.15096 0.0
C544 C 0.36619 0.82242 0.17152 0.0
C545 C 0.35024 0.80814 0.1905 0.0
C546 C 0.40407 0.86006 0.17391 0.0
C547 C 0.36316 0.81378 0.13006 0.0
C548 C 0.44075 0.8715 0.18628 0.0
C549 C 0.47563 0.90723 0.19007 0.0
C550 C 0.47463 0.93247 0.18166 0.0
C551 C 0.43826 0.92087 0.16874 0.0
C552 C 0.40323 0.88502 0.165 0.0
H553 H 0.35116 0.79172 0.11641 0.0
H554 H 0.35323 0.82931 0.12548 0.0
H555 H 0.39777 0.83132 0.13211 0.0
H556 H 0.4422 0.85276 0.19328 0.0
H557 H 0.50329 0.91523 0.19989 0.0
H558 H 0.52542 0.22033 0.46846 0.0
H559 H 0.53021 0.27316 0.47682 0.0
H560 H 0.65985 0.33407 0.50206 0.0
H561 H 0.65593 0.28172 0.49276 0.0
H562 H 0.54813 0.31195 0.51623 0.0
H563 H 0.66514 0.39744 0.46302 0.0
H564 H 0.63943 0.35068 0.46018 0.0
H565 H 0.68271 0.38138 0.48104 0.0
C566 C 0.55525 0.24509 0.47534 0.0
C567 C 0.59035 0.24669 0.4798 0.0
C568 C 0.55783 0.27526 0.48028 0.0
C569 C 0.59553 0.30775 0.48977 0.0
C570 C 0.63065 0.30951 0.49429 0.0
H571 H 0.66086 0.50921 0.54862 0.0
H572 H 0.66074 0.45968 0.53502 0.0
C573 C 0.62817 0.27938 0.48924 0.0
C574 C 0.59732 0.33919 0.49601 0.0
H575 H 0.648 0.42511 0.48929 0.0
C576 C 0.56977 0.33659 0.5102 0.0
C577 C 0.62565 0.37141 0.48818 0.0
C578 C 0.65464 0.3754 0.4721 0.0
C579 C 0.57017 0.36538 0.51701 0.0
C580 C 0.59861 0.39758 0.50929 0.0
C581 C 0.62625 0.40034 0.49516 0.0
C582 C 0.60012 0.42869 0.51597 0.0
C583 C 0.54067 0.36141 0.53276 0.0
C584 C 0.56653 0.42797 0.50929 0.0
C585 C 0.56652 0.45619 0.51699 0.0
C586 C 0.6001 0.48562 0.53156 0.0
C587 C 0.63437 0.48675 0.53759 0.0
C588 C 0.63444 0.45859 0.52978 0.0
H589 H 0.52658 0.33739 0.54041 0.0
H590 H 0.55706 0.38492 0.54582 0.0
H591 H 0.5151 0.35927 0.52389 0.0
H592 H 0.5399 0.40521 0.49849 0.0
H593 H 0.53949 0.45433 0.51219 0.0
H594 H 0.55242 0.60928 0.83646 0.0
H595 H 0.49342 0.61033 0.83789 0.0
H596 H 0.41568 0.5033 0.85081 0.0
H597 H 0.47476 0.50243 0.84999 0.0
H598 H 0.42032 0.57417 0.81405 0.0
H599 H 0.38776 0.54575 0.89783 0.0
H600 H 0.43414 0.55616 0.88735 0.0
H601 H 0.3854 0.51209 0.88076 0.0
C602 C 0.52288 0.58596 0.83974 0.0
C603 C 0.51886 0.55585 0.84325 0.0
C604 C 0.48891 0.58659 0.84055 0.0
C605 C 0.44972 0.55717 0.84494 0.0
C606 C 0.44552 0.52687 0.84809 0.0
H607 H 0.20512 0.51627 0.84355 0.0
H608 H 0.26013 0.50939 0.84547 0.0
C609 C 0.47952 0.52631 0.84742 0.0
C610 C 0.41324 0.55793 0.84549 0.0
H611 H 0.33759 0.54442 0.87638 0.0
C612 C 0.40248 0.56774 0.82778 0.0
C613 C 0.38925 0.54947 0.86327 0.0
C614 C 0.39991 0.54062 0.88347 0.0
C615 C 0.36893 0.56913 0.82727 0.0
C616 C 0.34513 0.56083 0.84504 0.0
C617 C 0.35539 0.55057 0.86265 0.0
C618 C 0.3113 0.56478 0.84597 0.0
C619 C 0.35898 0.57927 0.80749 0.0
C620 C 0.3214 0.59824 0.84653 0.0
C621 C 0.2902 0.60223 0.84567 0.0
C622 C 0.24755 0.57288 0.84413 0.0
C623 C 0.23744 0.53951 0.84477 0.0
C624 C 0.26897 0.53553 0.84572 0.0
H625 H 0.37257 0.57601 0.79316 0.0
H626 H 0.32475 0.56312 0.80314 0.0
H627 H 0.3722 0.60747 0.81116 0.0
H628 H 0.35363 0.62142 0.84723 0.0
H629 H 0.29955 0.62849 0.84565 0.0
H630 H 0.93424 0.4321 0.16723 0.0
H631 H 0.87341 0.37069 0.16567 0.0
H632 H 0.93497 0.33647 0.1302 0.0
H633 H 0.99681 0.39845 0.13183 0.0
H634 H 0.82371 0.31974 0.1291 0.0
H635 H 0.89519 0.27874 0.18082 0.0
H636 H 0.9193 0.32458 0.17997 0.0
H637 H 0.92178 0.2987 0.15805 0.0
C638 C 0.93515 0.41168 0.15908 0.0
C639 C 0.97068 0.42037 0.1497 0.0
C640 C 0.90017 0.37646 0.15822 0.0
C641 C 0.89975 0.34891 0.14808 0.0
C642 C 0.93488 0.3573 0.13845 0.0
H643 H 0.66913 0.13272 0.11297 0.0
H644 H 0.73734 0.18969 0.11284 0.0
C645 C 0.97008 0.39274 0.13926 0.0
C646 C 0.86187 0.31164 0.14731 0.0
H647 H 0.82479 0.23455 0.16568 0.0
C648 C 0.82401 0.30106 0.13698 0.0
C649 C 0.86219 0.28745 0.15789 0.0
C650 C 0.90165 0.29785 0.16999 0.0
C651 C 0.7865 0.26705 0.13695 0.0
C652 C 0.78684 0.24265 0.14726 0.0
C653 C 0.82466 0.25318 0.15764 0.0
C654 C 0.74786 0.20641 0.14773 0.0
C655 C 0.74657 0.25784 0.12637 0.0
C656 C 0.7319 0.19616 0.16751 0.0
C657 C 0.69279 0.16347 0.16765 0.0
C658 C 0.66901 0.14048 0.14799 0.0
C659 C 0.68626 0.15009 0.12836 0.0
C660 C 0.72526 0.18264 0.12824 0.0
H661 H 0.75016 0.2818 0.12374 0.0
H662 H 0.7374 0.24099 0.11026 0.0
H663 H 0.72089 0.24281 0.13648 0.0
H664 H 0.74892 0.21406 0.18276 0.0
H665 H 0.68036 0.15695 0.18303 0.0
H666 H 0.12253 0.55898 0.09976 0.0
H667 H 0.12779 0.55799 0.06067 0.0
H668 H 0.99366 0.48963 0.04717 0.0
H669 H 0.98831 0.4914 0.0864 0.0
H670 H 0.1 0.50556 0.02697 0.0
H671 H 1.02627 0.56858 0.01457 0.0
H672 H 1.042 0.56651 0.04133 0.0
H673 H 0.99367 0.52873 0.02592 0.0
C674 C 0.09414 0.54369 0.08845 0.0
C675 C 1.05499 0.52551 0.09608 0.0
C676 C 0.0972 0.54312 0.06611 0.0
C677 C 1.06118 0.5243 0.05097 0.0
C678 C 1.02194 0.5051 0.05856 0.0
H679 H 1.01485 0.48818 0.91039 0.0
H680 H 1.01223 0.48281 0.94902 0.0
C681 C 1.01888 0.50594 0.08094 0.0
C682 C 1.06488 0.52518 0.02732 0.0
H683 H 1.0388 0.54611 0.98269 0.0
C684 C 0.08676 0.51456 0.01732 0.0
C685 C 1.04793 0.53724 0.01474 0.0
C686 C 1.02653 0.55125 0.02471 0.0
C687 C 0.09141 0.51507 -0.00498 0.0
C688 C 0.07374 0.52644 0.98248 0.0
C689 C 1.05205 0.53717 0.99242 0.0
C690 C 0.07711 0.52738 0.9589 0.0
C691 C 0.11461 0.50302 0.98488 0.0
C692 C 0.11472 0.55392 0.95167 0.0
C693 C 0.11626 0.55735 0.92959 0.0
C694 C 0.08013 0.53428 0.91443 0.0
C695 C 1.04306 0.5067 0.92169 0.0
C696 C 1.04151 0.50347 0.94372 0.0
H697 H 0.12208 0.49091 -0.00382 0.0
H698 H 0.09589 0.48351 0.96978 0.0
H699 H 0.14421 0.52604 0.98023 0.0
H700 H 0.14242 0.57285 0.96323 0.0
H701 H 0.14516 0.57907 0.92459 0.0
H702 H 0.58187 0.03955 0.42097 0.0
H703 H 0.57222 0.03649 0.38151 0.0
H704 H 0.70375 0.12147 0.38329 0.0
H705 H 0.71377 0.12319 0.42255 0.0
H706 H 0.5831 0.08002 0.35602 0.0
H707 H 0.69109 0.04994 0.33798 0.0
H708 H 0.67556 0.05062 0.36471 0.0
H709 H 0.71609 0.0913 0.35575 0.0
C710 C 0.60867 0.05751 0.41289 0.0
C711 C 0.64866 0.0812 0.42465 0.0
C712 C 0.60316 0.05583 0.39036 0.0
C713 C 0.63744 0.07814 0.37927 0.0
C714 C 0.67707 0.10312 0.39129 0.0
H715 H 0.58746 0.0831 0.24139 0.0
H716 H 0.61105 0.10191 0.28056 0.0
C717 C 0.68272 0.10428 0.41373 0.0
C718 C 0.63157 0.07468 0.35514 0.0
H719 H 0.6639 0.05968 0.30838 0.0
C720 C 0.60078 0.07558 0.34559 0.0
C721 C 0.65435 0.06853 0.3415 0.0
C722 C 0.6858 0.06467 0.35048 0.0
C723 C 0.59153 0.0698 0.32284 0.0
C724 C 0.61488 0.06432 0.30922 0.0
C725 C 0.6463 0.06423 0.3188 0.0
C726 C 0.60475 0.05531 0.28508 0.0
C727 C 0.55554 0.06798 0.31374 0.0
C728 C 0.59592 0.02402 0.2743 0.0
C729 C 0.58384 0.01382 0.25185 0.0
C730 C 0.57964 0.03438 0.2396 0.0
C731 C 0.59031 0.06657 0.25025 0.0
C732 C 0.60313 0.07709 0.27275 0.0
H733 H 0.53436 0.0634 0.32613 0.0
H734 H 0.56781 0.09346 0.30842 0.0
H735 H 0.53702 0.04651 0.29947 0.0
H736 H 0.59738 1.00692 0.28335 0.0
H737 H 0.57701 0.98936 0.24416 0.0
H738 H 0.5389 0.50017 0.76786 0.0
H739 H 0.54535 0.51095 0.73009 0.0
H740 H 0.67829 0.59064 0.74638 0.0
H741 H 0.67221 0.57969 0.78419 0.0
H742 H 0.61941 0.60261 0.7179 0.0
H743 H 0.61791 0.48848 0.69008 0.0
H744 H 0.58248 0.48307 0.70897 0.0
H745 H 0.63747 0.5124 0.71766 0.0
C746 C 0.56947 0.5201 0.76342 0.0
C747 C 0.60506 0.53909 0.77891 0.0
C748 C 0.57306 0.52627 0.7419 0.0
C749 C 0.61225 0.5516 0.73558 0.0
C750 C 0.64779 0.57111 0.75107 0.0
H751 H 0.66839 0.56653 0.60177 0.0
H752 H 0.675 0.57237 0.64155 0.0
C753 C 0.64425 0.56482 0.7726 0.0
C754 C 0.61609 0.55631 0.71251 0.0
H755 H 0.61627 0.51808 0.66309 0.0
C756 C 0.61899 0.58434 0.70587 0.0
C757 C 0.61585 0.53254 0.69704 0.0
C758 C 0.61344 0.50242 0.70364 0.0
C759 C 0.62076 0.58874 0.68387 0.0
C760 C 0.61924 0.56427 0.66825 0.0
C761 C 0.61739 0.53679 0.67509 0.0
C762 C 0.61809 0.5657 0.64459 0.0
C763 C 0.6244 0.61953 0.67752 0.0
C764 C 0.58423 0.56059 0.63314 0.0
C765 C 0.58027 0.55709 0.6104 0.0
C766 C 0.60999 0.5584 0.59869 0.0
C767 C 0.64477 0.56502 0.61031 0.0
C768 C 0.64867 0.56849 0.63302 0.0
H769 H 0.63641 0.64078 0.69174 0.0
H770 H 0.64531 0.63083 0.66469 0.0
H771 H 0.59311 0.61025 0.67093 0.0
H772 H 0.55983 0.55763 0.6417 0.0
H773 H 0.55281 0.55148 0.60194 0.0
H774 H 0.55956 0.06247 0.54982 0.0
H775 H 0.56982 0.06099 0.58851 0.0
H776 H 0.70055 0.11431 0.585 0.0
H777 H 0.69067 0.11644 0.54623 0.0
H778 H 0.64676 0.04586 0.6077 0.0
H779 H 0.6447 0.15767 0.63635 0.0
H780 H 0.60549 0.12438 0.61443 0.0
H781 H 0.65927 0.15214 0.61001 0.0
C782 C 0.59049 0.07386 0.55727 0.0
C783 C 0.62434 0.08958 0.54507 0.0
C784 C 0.59625 0.07292 0.57932 0.0
C785 C 0.63589 0.08756 0.5895 0.0
C786 C 0.66971 0.1028 0.57733 0.0
H787 H 0.69382 0.13086 0.73087 0.0
H788 H 0.70138 0.13319 0.69208 0.0
C789 C 0.66402 0.10398 0.55525 0.0
C790 C 0.64186 0.08776 0.61306 0.0
H791 H 0.64207 0.12531 0.66287 0.0
C792 C 0.64617 0.06341 0.61984 0.0
C793 C 0.64137 0.11089 0.62874 0.0
C794 C 0.63773 0.13799 0.62216 0.0
C795 C 0.64865 0.06086 0.64202 0.0
C796 C 0.6465 0.0831 0.65765 0.0
C797 C 0.64364 0.10824 0.65085 0.0
C798 C 0.64509 0.0798 0.68106 0.0
C799 C 0.65337 0.03436 0.64855 0.0
C800 C 0.61126 0.04882 0.68772 0.0
C801 C 0.6067 0.04748 0.70985 0.0
C802 C 0.63581 0.0772 0.72573 0.0
C803 C 0.67064 0.10766 0.71902 0.0
C804 C 0.67511 0.10899 0.6969 0.0
H805 H 0.66588 0.02648 0.63577 0.0
H806 H 0.67433 0.04516 0.6641 0.0
H807 H 0.62236 0.01024 0.65096 0.0
H808 H 0.58727 0.02625 0.67575 0.0
H809 H 0.57918 0.02382 0.71441 0.0
H810 H 0.71517 0.60865 0.91177 0.0
H811 H 0.71085 0.59554 0.94885 0.0
H812 H 0.57726 0.51724 0.93428 0.0
H813 H 0.58136 0.53074 0.89715 0.0
H814 H 0.60153 0.56294 0.97259 0.0
H815 H 0.68979 0.5108 0.9709 0.0
H816 H 0.71806 0.55297 0.96203 0.0
H817 H 0.66989 0.51535 0.9464 0.0
C818 C 0.68492 0.58847 0.91643 0.0
C819 C 0.64861 0.57066 0.90164 0.0
C820 C 0.68252 0.58078 0.93755 0.0
C821 C 0.64382 0.55494 0.94419 0.0
C822 C 0.60746 0.53703 0.9294 0.0
H823 H 0.6004 0.50452 0.07742 0.0
H824 H 0.59079 0.49758 0.03743 0.0
C825 C 0.60984 0.54475 0.90824 0.0
C826 C 0.64137 0.54853 0.96702 0.0
H827 H 0.68287 0.5309 0.00649 0.0
C828 C 0.61861 0.55524 0.97991 0.0
C829 C 0.66354 0.53831 0.9765 0.0
C830 C 0.68634 0.52858 0.96317 0.0
C831 C 0.61936 0.55391 0.00232 0.0
C832 C 0.64336 0.5456 0.01195 0.0
C833 C 0.66467 0.53742 -0.00104 0.0
C834 C 0.64955 0.54842 0.0358 0.0
C835 C 0.59616 0.56296 0.01583 0.0
C836 C 0.68594 0.57907 0.04787 0.0
C837 C 0.69143 0.58315 0.07055 0.0
C838 C 0.66068 0.55652 0.08155 0.0
C839 C 0.62466 0.52537 0.06934 0.0
C840 C 0.61906 0.52141 0.04659 0.0
H841 H 0.5795 0.56952 0.00591 0.0
H842 H 0.57313 0.54027 0.0239 0.0
H843 H 0.61833 0.58587 0.02886 0.0
H844 H 0.70979 0.60011 0.03974 0.0
H845 H 0.71974 0.60721 0.07951 0.0
H846 H 0.17435 0.56788 0.2244 0.0
H847 H 0.17354 0.57447 0.26391 0.0
H848 H 1.04044 0.51708 0.25438 0.0
H849 H 1.04092 0.50953 0.21479 0.0
H850 H 0.14875 0.60711 0.28923 0.0
H851 H 1.05213 0.46479 0.29683 0.0
H852 H 0.07491 0.48093 0.27235 0.0
H853 H 1.02873 0.47558 0.27819 0.0
C854 C 0.1449 0.55655 0.23074 0.0
C855 C 0.10771 0.53816 0.21658 0.0
C856 C 0.14447 0.56036 0.25329 0.0
C857 C 0.10685 0.54581 0.2621 0.0
C858 C 0.06968 0.52785 0.24796 0.0
H859 H 0.07335 0.57072 0.39977 0.0
H860 H 1.05945 0.5543 0.35988 0.0
C861 C 0.07007 0.52387 0.22536 0.0
C862 C 0.10707 0.55031 0.28609 0.0
H863 H 0.07176 0.50522 0.32909 0.0
C864 C 0.1318 0.58481 0.29791 0.0
C865 C 0.08482 0.52115 0.2974 0.0
C866 C 1.0589 0.4835 0.28561 0.0
C867 C 0.13531 0.59097 0.32073 0.0
C868 C 0.11374 0.56189 0.33201 0.0
C869 C 0.08816 0.52737 0.32028 0.0
C870 C 0.11959 0.56728 0.35608 0.0
C871 C 0.16242 0.62856 0.33271 0.0
C872 C 0.15739 0.5788 0.36703 0.0
C873 C 0.16528 0.58789 0.38969 0.0
C874 C 0.13553 0.58576 0.40184 0.0
C875 C 0.09675 0.57241 0.39089 0.0
C876 C 0.08883 0.5632 0.36813 0.0
H877 H 0.17088 0.64783 0.3216 0.0
H878 H 0.14634 0.6316 0.34573 0.0
H879 H 0.19161 0.63515 0.34059 0.0
H880 H 0.18131 0.58178 0.35795 0.0
H881 H 0.19519 0.59757 0.39769 0.0
loop_
_geom_bond_atom_site_label_1
_geom_bond_atom_site_label_2
_geom_bond_distance
_geom_bond_site_symmetry_2
_ccdc_geom_bond_type
Gd0 C3 2.818 . S
Gd0 O20 2.377 . S
Gd0 O22 2.448 . S
Gd0 O23 2.506 . S
Gd0 O24 2.435 . S
Gd0 O25 2.717 . S
Gd0 O27 2.375 1_455 S
Gd0 O31 2.327 . S
Gd1 C12 2.818 1_455 S
Gd1 O21 2.395 . S
Gd1 O25 2.327 . S
Gd1 O26 2.377 1_455 S
Gd1 O28 2.448 1_455 S
Gd1 O29 2.506 1_455 S
Gd1 O30 2.435 . S
Gd1 O31 2.717 . S
C2 O20 1.240 . S
C2 O21 1.240 . S
C3 Gd0 2.818 . S
C3 C4 1.510 . S
C3 O22 1.249 . S
C3 O23 1.252 . S
C4 C3 1.510 . S
C4 C5 1.404 . S
C4 C6 1.352 . S
C5 C4 1.404 . S
C5 C9 1.389 . S
C5 H32 0.930 . S
C6 C4 1.352 . S
C6 C8 1.374 . S
C6 H33 0.931 . S
C7 C8 1.359 . S
C7 C9 1.364 . S
C8 C6 1.374 . S
C8 C7 1.359 . S
C8 H34 0.931 . S
C9 C5 1.389 . S
C9 C7 1.364 . S
C9 H35 0.931 . S
C10 O24 1.256 . S
C10 O25 1.257 . S
C11 O26 1.240 . S
C11 O27 1.266 . S
C12 Gd1 2.818 1_655 S
C12 C13 1.510 . S
C12 O28 1.249 . S
C12 O29 1.252 . S
C13 C12 1.510 . S
C13 C14 1.404 . S
C13 C15 1.352 . S
C14 C13 1.404 . S
C14 C18 1.389 . S
C14 H36 0.930 . S
C15 C13 1.352 . S
C15 C17 1.374 . S
C15 H37 0.931 . S
C16 C17 1.359 . S
C16 C18 1.364 . S
C17 C15 1.374 . S
C17 C16 1.359 . S
C17 H38 0.931 . S
C18 C14 1.389 . S
C18 C16 1.364 . S
C18 H39 0.931 . S
C19 O30 1.256 . S
C19 O31 1.257 . S
O20 Gd0 2.377 . S
O20 C2 1.240 . S
O21 Gd1 2.395 . S
O21 C2 1.240 . S
O22 Gd0 2.448 . S
O22 C3 1.249 . S
O23 Gd0 2.506 . S
O23 C3 1.252 . S
O24 Gd0 2.435 . S
O24 C10 1.256 . S
O25 Gd0 2.717 . S
O25 Gd1 2.327 . S
O25 C10 1.257 . S
O26 Gd1 2.377 1_655 S
O26 C11 1.240 . S
O27 Gd0 2.375 1_655 S
O27 C11 1.266 . S
O28 Gd1 2.448 1_655 S
O28 C12 1.249 . S
O29 Gd1 2.506 1_655 S
O29 C12 1.252 . S
O30 Gd1 2.435 . S
O30 C19 1.256 . S
O31 Gd0 2.327 . S
O31 Gd1 2.717 . S
O31 C19 1.257 . S
H32 C5 0.930 . S
H33 C6 0.931 . S
H34 C8 0.931 . S
H35 C9 0.931 . S
H36 C14 0.930 . S
H37 C15 0.931 . S
H38 C17 0.931 . S
H39 C18 0.931 . S
Gd40 C43 2.818 1_545 S
Gd40 O60 2.377 1_545 S
Gd40 O62 2.448 1_545 S
Gd40 O63 2.506 1_545 S
Gd40 O64 2.435 . S
Gd40 O65 2.717 . S
Gd40 O67 2.395 . S
Gd40 O71 2.327 . S
Gd41 C52 2.818 . S
Gd41 O61 2.395 . S
Gd41 O65 2.327 . S
Gd41 O66 2.377 . S
Gd41 O68 2.448 . S
Gd41 O69 2.506 . S
Gd41 O70 2.435 . S
Gd41 O71 2.717 . S
C42 O60 1.240 . S
C42 O61 1.240 1_565 S
C43 Gd40 2.818 1_565 S
C43 C44 1.510 . S
C43 O62 1.249 . S
C43 O63 1.252 . S
C44 C43 1.510 . S
C44 C45 1.404 . S
C44 C46 1.352 . S
C45 C44 1.404 . S
C45 C49 1.389 . S
C45 H72 0.930 . S
C46 C44 1.352 . S
C46 C48 1.374 . S
C46 H73 0.931 . S
C47 C48 1.359 . S
C47 C49 1.364 . S
C48 C46 1.374 . S
C48 C47 1.359 . S
C48 H74 0.931 . S
C49 C45 1.389 . S
C49 C47 1.364 . S
C49 H75 0.931 . S
C50 O64 1.256 . S
C50 O65 1.257 . S
C51 O66 1.240 . S
C51 O67 1.240 . S
C52 Gd41 2.818 . S
C52 C53 1.510 . S
C52 O68 1.249 . S
C52 O69 1.252 . S
C53 C52 1.510 . S
C53 C54 1.404 . S
C53 C55 1.352 . S
C54 C53 1.404 . S
C54 C58 1.389 . S
C54 H76 0.930 . S
C55 C53 1.352 . S
C55 C57 1.374 . S
C55 H77 0.931 . S
C56 C57 1.359 . S
C56 C58 1.364 . S
C57 C55 1.374 . S
C57 C56 1.359 . S
C57 H78 0.931 . S
C58 C54 1.389 . S
C58 C56 1.364 . S
C58 H79 0.931 . S
C59 O70 1.256 . S
C59 O71 1.257 . S
O60 Gd40 2.377 1_565 S
O60 C42 1.240 . S
O61 Gd41 2.395 . S
O61 C42 1.240 1_545 S
O62 Gd40 2.448 1_565 S
O62 C43 1.249 . S
O63 Gd40 2.506 1_565 S
O63 C43 1.252 . S
O64 Gd40 2.435 . S
O64 C50 1.256 . S
O65 Gd40 2.717 . S
O65 Gd41 2.327 . S
O65 C50 1.257 . S
O66 Gd41 2.377 . S
O66 C51 1.240 . S
O67 Gd40 2.395 . S
O67 C51 1.240 . S
O68 Gd41 2.448 . S
O68 C52 1.249 . S
O69 Gd41 2.506 . S
O69 C52 1.252 . S
O70 Gd41 2.435 . S
O70 C59 1.256 . S
O71 Gd40 2.327 . S
O71 Gd41 2.717 . S
O71 C59 1.257 . S
H72 C45 0.930 . S
H73 C46 0.931 . S
H74 C48 0.931 . S
H75 C49 0.931 . S
H76 C54 0.930 . S
H77 C55 0.931 . S
H78 C57 0.931 . S
H79 C58 0.931 . S
Gd80 C83 2.818 . S
Gd80 O100 2.377 . S
Gd80 O102 2.448 . S
Gd80 O103 2.506 . S
Gd80 O104 2.435 . S
Gd80 O105 2.717 . S
Gd80 O107 2.395 . S
Gd80 O111 2.327 . S
Gd81 C92 2.818 . S
Gd81 O101 2.395 . S
Gd81 O105 2.327 . S
Gd81 O106 2.377 . S
Gd81 O108 2.448 . S
Gd81 O109 2.506 . S
Gd81 O110 2.435 . S
Gd81 O111 2.717 . S
C82 O100 1.240 . S
C82 O101 1.240 . S
C83 Gd80 2.818 . S
C83 C84 1.510 . S
C83 O102 1.249 . S
C83 O103 1.252 . S
C84 C83 1.510 . S
C84 C85 1.404 . S
C84 C86 1.352 . S
C85 C84 1.404 . S
C85 C89 1.389 . S
C85 H112 0.930 . S
C86 C84 1.352 . S
C86 C88 1.374 . S
C86 H113 0.931 . S
C87 C88 1.359 . S
C87 C89 1.364 . S
C88 C86 1.374 . S
C88 C87 1.359 . S
C88 H114 0.931 . S
C89 C85 1.389 . S
C89 C87 1.364 . S
C89 H115 0.931 . S
C90 O104 1.256 . S
C90 O105 1.257 . S
C91 O106 1.240 . S
C91 O107 1.240 . S
C92 Gd81 2.818 . S
C92 C93 1.510 . S
C92 O108 1.249 . S
C92 O109 1.252 . S
C93 C92 1.510 . S
C93 C94 1.404 . S
C93 C95 1.352 . S
C94 C93 1.404 . S
C94 C98 1.389 . S
C94 H116 0.930 . S
C95 C93 1.352 . S
C95 C97 1.374 . S
C95 H117 0.931 . S
C96 C97 1.359 . S
C96 C98 1.364 . S
C97 C95 1.374 . S
C97 C96 1.359 . S
C97 H118 0.931 . S
C98 C94 1.389 . S
C98 C96 1.364 . S
C98 H119 0.931 . S
C99 O110 1.256 . S
C99 O111 1.257 . S
O100 Gd80 2.377 . S
O100 C82 1.240 . S
O101 Gd81 2.395 . S
O101 C82 1.240 . S
O102 Gd80 2.448 . S
O102 C83 1.249 . S
O103 Gd80 2.506 . S
O103 C83 1.252 . S
O104 Gd80 2.435 . S
O104 C90 1.256 . S
O105 Gd80 2.717 . S
O105 Gd81 2.327 . S
O105 C90 1.257 . S
O106 Gd81 2.377 . S
O106 C91 1.240 . S
O107 Gd80 2.395 . S
O107 C91 1.240 . S
O108 Gd81 2.448 . S
O108 C92 1.249 . S
O109 Gd81 2.506 . S
O109 C92 1.252 . S
O110 Gd81 2.435 . S
O110 C99 1.256 . S
O111 Gd80 2.327 . S
O111 Gd81 2.717 . S
O111 C99 1.257 . S
H112 C85 0.930 . S
H113 C86 0.931 . S
H114 C88 0.931 . S
H115 C89 0.931 . S
H116 C94 0.930 . S
H117 C95 0.931 . S
H118 C97 0.931 . S
H119 C98 0.931 . S
H120 C121 0.949 . S
C121 H120 0.949 . S
C121 C122 1.395 . S
C121 C123 1.391 . S
C122 C121 1.395 . S
C122 C125 1.390 . S
C123 C121 1.391 . S
C123 C127 1.387 . S
C123 C128 1.491 . S
H124 C125 0.950 . S
C125 C122 1.390 . S
C125 H124 0.950 . S
C125 C126 1.378 . S
C126 C125 1.378 . S
C126 C127 1.409 . S
C127 C123 1.387 . S
C127 C126 1.409 . S
C127 H129 0.951 . S
C128 C123 1.491 . S
C128 C130 1.382 . S
C128 C132 1.404 . S
H129 C127 0.951 . S
C130 C128 1.382 . S
C130 C131 1.390 . S
C130 H135 0.949 . S
C131 C130 1.390 . S
C131 C136 1.399 . S
C132 C128 1.404 . S
C132 H133 0.950 . S
C132 C134 1.375 . S
H133 C132 0.950 . S
C134 C132 1.375 . S
C134 C136 1.382 . S
C134 H138 0.950 . S
H135 C130 0.949 . S
C136 C131 1.399 . S
C136 C134 1.382 . S
C136 H137 0.952 . S
H137 C136 0.952 . S
H138 C134 0.950 . S
H139 C140 0.949 . S
C140 H139 0.949 . S
C140 C141 1.395 . S
C140 C142 1.391 . S
C141 C140 1.395 . S
C141 C144 1.390 . S
C142 C140 1.391 . S
C142 C146 1.387 . S
C142 C147 1.491 . S
H143 C144 0.950 . S
C144 C141 1.390 . S
C144 H143 0.950 . S
C144 C145 1.378 . S
C145 C144 1.378 . S
C145 C146 1.409 . S
C146 C142 1.387 . S
C146 C145 1.409 . S
C146 H148 0.951 . S
C147 C142 1.491 . S
C147 C149 1.382 . S
C147 C151 1.404 . S
H148 C146 0.951 . S
C149 C147 1.382 . S
C149 C150 1.390 . S
C149 H154 0.949 . S
C150 C149 1.390 . S
C150 C155 1.399 . S
C151 C147 1.404 . S
C151 H152 0.950 . S
C151 C153 1.375 . S
H152 C151 0.950 . S
C153 C151 1.375 . S
C153 C155 1.382 . S
C153 H157 0.950 . S
H154 C149 0.949 . S
C155 C150 1.399 . S
C155 C153 1.382 . S
C155 H156 0.952 . S
H156 C155 0.952 . S
H157 C153 0.950 . S
H158 C159 0.949 . S
C159 H158 0.949 . S
C159 C160 1.395 . S
C159 C161 1.391 . S
C160 C159 1.395 . S
C160 C163 1.390 . S
C161 C159 1.391 . S
C161 C165 1.387 . S
C161 C166 1.491 . S
H162 C163 0.950 . S
C163 C160 1.390 . S
C163 H162 0.950 . S
C163 C164 1.378 . S
C164 C163 1.378 . S
C164 C165 1.409 . S
C165 C161 1.387 . S
C165 C164 1.409 . S
C165 H167 0.951 . S
C166 C161 1.491 . S
C166 C168 1.382 . S
C166 C170 1.404 . S
H167 C165 0.951 . S
C168 C166 1.382 . S
C168 C169 1.390 . S
C168 H173 0.949 . S
C169 C168 1.390 . S
C169 C174 1.399 . S
C170 C166 1.404 . S
C170 H171 0.950 . S
C170 C172 1.375 . S
H171 C170 0.950 . S
C172 C170 1.375 . S
C172 C174 1.382 . S
C172 H176 0.950 . S
H173 C168 0.949 . S
C174 C169 1.399 . S
C174 C172 1.382 . S
C174 H175 0.952 . S
H175 C174 0.952 . S
H176 C172 0.950 . S
H177 C178 0.949 . S
C178 H177 0.949 . S
C178 C179 1.395 1_655 S
C178 C180 1.393 1_655 S
C179 C178 1.395 1_455 S
C179 C182 1.390 . S
C180 C178 1.393 1_455 S
C180 C184 1.394 . S
C180 C185 1.483 1_455 S
H181 C182 0.950 . S
C182 C179 1.390 . S
C182 H181 0.950 . S
C182 C183 1.378 . S
C183 C182 1.378 . S
C183 C184 1.409 . S
C184 C180 1.394 . S
C184 C183 1.409 . S
C184 H186 0.951 . S
C185 C180 1.483 1_655 S
C185 C187 1.382 . S
C185 C189 1.404 . S
H186 C184 0.951 . S
C187 C185 1.382 . S
C187 C188 1.390 . S
C187 H192 0.949 . S
C188 C187 1.390 . S
C188 C193 1.399 . S
C189 C185 1.404 . S
C189 H190 0.950 . S
C189 C191 1.375 . S
H190 C189 0.950 . S
C191 C189 1.375 . S
C191 C193 1.382 . S
C191 H195 0.950 . S
H192 C187 0.949 . S
C193 C188 1.399 . S
C193 C191 1.382 . S
C193 H194 0.952 . S
H194 C193 0.952 . S
H195 C191 0.950 . S
H196 C197 0.949 . S
C197 H196 0.949 . S
C197 C198 1.395 . S
C197 C199 1.391 . S
C198 C197 1.395 . S
C198 C201 1.390 . S
C199 C197 1.391 . S
C199 C203 1.387 . S
C199 C204 1.491 . S
H200 C201 0.950 . S
C201 C198 1.390 . S
C201 H200 0.950 . S
C201 C202 1.378 . S
C202 C201 1.378 . S
C202 C203 1.409 . S
C203 C199 1.387 . S
C203 C202 1.409 . S
C203 H205 0.951 . S
C204 C199 1.491 . S
C204 C206 1.382 1_545 S
C204 C208 1.404 . S
H205 C203 0.951 . S
C206 C204 1.382 1_565 S
C206 C207 1.390 . S
C206 H211 0.948 . S
C207 C206 1.390 . S
C207 C212 1.399 . S
C208 C204 1.404 . S
C208 H209 0.950 . S
C208 C210 1.375 1_545 S
H209 C208 0.950 . S
C210 C208 1.375 1_565 S
C210 C212 1.382 . S
C210 H214 0.950 . S
H211 C206 0.948 . S
C212 C207 1.399 . S
C212 C210 1.382 . S
C212 H213 0.952 . S
H213 C212 0.952 . S
H214 C210 0.950 . S
H215 C216 0.949 . S
C216 H215 0.949 . S
C216 C217 1.395 . S
C216 C218 1.391 . S
C217 C216 1.395 . S
C217 C220 1.390 . S
C218 C216 1.391 . S
C218 C222 1.387 . S
C218 C223 1.491 . S
H219 C220 0.950 . S
C220 C217 1.390 . S
C220 H219 0.950 . S
C220 C221 1.378 . S
C221 C220 1.378 . S
C221 C222 1.409 . S
C222 C218 1.387 . S
C222 C221 1.409 . S
C222 H224 0.951 . S
C223 C218 1.491 . S
C223 C225 1.382 . S
C223 C227 1.404 . S
H224 C222 0.951 . S
C225 C223 1.382 . S
C225 C226 1.390 . S
C225 H230 0.949 . S
C226 C225 1.390 . S
C226 C231 1.399 . S
C227 C223 1.404 . S
C227 H228 0.950 . S
C227 C229 1.375 . S
H228 C227 0.950 . S
C229 C227 1.375 . S
C229 C231 1.382 . S
C229 H233 0.950 . S
H230 C225 0.949 . S
C231 C226 1.399 . S
C231 C229 1.382 . S
C231 H232 0.952 . S
H232 C231 0.952 . S
H233 C229 0.950 . S
H234 C242 0.929 . S
H235 C244 0.930 . S
H236 C246 0.930 . S
H237 C249 0.929 . S
H238 C252 0.930 . S
H239 C254 0.960 . S
H240 C254 0.960 . S
H241 C254 0.960 . S
C242 H234 0.929 . S
C242 C243 1.377 . S
C242 C244 1.384 . S
C243 C242 1.377 . S
C243 C249 1.390 . S
C244 H235 0.930 . S
C244 C242 1.384 . S
C244 C245 1.372 . S
C245 C244 1.372 . S
C245 C246 1.400 . S
C245 C250 1.490 . S
C246 H236 0.930 . S
C246 C245 1.400 . S
C246 C249 1.386 . S
H247 C263 0.930 . S
H248 C264 0.931 . S
C249 H237 0.929 . S
C249 C243 1.390 . S
C249 C246 1.386 . S
C250 C245 1.490 . S
C250 C252 1.395 . S
C250 C253 1.403 . S
H251 C257 0.930 . S
C252 H238 0.930 . S
C252 C250 1.395 . S
C252 C255 1.403 . S
C253 C250 1.403 . S
C253 C254 1.524 . S
C253 C257 1.400 . S
C254 H239 0.960 . S
C254 H240 0.960 . S
C254 H241 0.960 . S
C254 C253 1.524 . S
C255 C252 1.403 . S
C255 C256 1.392 . S
C255 C259 1.495 . S
C256 C255 1.392 . S
C256 C257 1.385 . S
C256 C258 1.478 . S
C257 H251 0.930 . S
C257 C253 1.400 . S
C257 C256 1.385 . S
C258 C256 1.478 . S
C258 C260 1.381 . S
C258 C264 1.383 . S
C259 C255 1.495 . S
C259 H265 0.959 . S
C259 H266 0.961 . S
C259 H267 0.960 . S
C260 C258 1.381 . S
C260 C261 1.394 . S
C260 H268 0.930 . S
C261 C260 1.394 . S
C261 C262 1.383 . S
C261 H269 0.929 . S
C262 C261 1.383 . S
C262 C263 1.377 . S
C263 H247 0.930 . S
C263 C262 1.377 . S
C263 C264 1.379 . S
C264 H248 0.931 . S
C264 C258 1.383 . S
C264 C263 1.379 . S
H265 C259 0.959 . S
H266 C259 0.961 . S
H267 C259 0.960 . S
H268 C260 0.930 . S
H269 C261 0.929 . S
H270 C278 0.929 . S
H271 C280 0.930 . S
H272 C282 0.930 . S
H273 C285 0.929 . S
H274 C288 0.930 . S
H275 C290 0.960 . S
H276 C290 0.960 . S
H277 C290 0.960 . S
C278 H270 0.929 . S
C278 C279 1.377 . S
C278 C280 1.384 . S
C279 C278 1.377 . S
C279 C285 1.390 . S
C280 H271 0.930 . S
C280 C278 1.384 . S
C280 C281 1.372 . S
C281 C280 1.372 . S
C281 C282 1.400 . S
C281 C286 1.490 . S
C282 H272 0.930 . S
C282 C281 1.400 . S
C282 C285 1.386 . S
H283 C299 0.930 . S
H284 C300 0.931 . S
C285 H273 0.929 . S
C285 C279 1.390 . S
C285 C282 1.386 . S
C286 C281 1.490 . S
C286 C288 1.395 . S
C286 C289 1.403 . S
H287 C293 0.930 . S
C288 H274 0.930 . S
C288 C286 1.395 . S
C288 C291 1.403 . S
C289 C286 1.403 . S
C289 C290 1.524 . S
C289 C293 1.400 . S
C290 H275 0.960 . S
C290 H276 0.960 . S
C290 H277 0.960 . S
C290 C289 1.524 . S
C291 C288 1.403 . S
C291 C292 1.392 . S
C291 C295 1.495 . S
C292 C291 1.392 . S
C292 C293 1.385 . S
C292 C294 1.478 . S
C293 H287 0.930 . S
C293 C289 1.400 . S
C293 C292 1.385 . S
C294 C292 1.478 . S
C294 C296 1.381 . S
C294 C300 1.383 . S
C295 C291 1.495 . S
C295 H301 0.959 . S
C295 H302 0.961 . S
C295 H303 0.960 . S
C296 C294 1.381 . S
C296 C297 1.394 . S
C296 H304 0.930 . S
C297 C296 1.394 . S
C297 C298 1.383 . S
C297 H305 0.929 . S
C298 C297 1.383 . S
C298 C299 1.377 . S
C299 H283 0.930 . S
C299 C298 1.377 . S
C299 C300 1.379 . S
C300 H284 0.931 . S
C300 C294 1.383 . S
C300 C299 1.379 . S
H301 C295 0.959 . S
H302 C295 0.961 . S
H303 C295 0.960 . S
H304 C296 0.930 . S
H305 C297 0.929 . S
H306 C314 0.929 . S
H307 C316 0.930 . S
H308 C318 0.930 . S
H309 C321 0.929 . S
H310 C324 0.930 . S
H311 C326 0.960 . S
H312 C326 0.960 . S
H313 C326 0.960 . S
C314 H306 0.929 . S
C314 C315 1.377 . S
C314 C316 1.384 . S
C315 C314 1.377 . S
C315 C321 1.390 . S
C316 H307 0.930 . S
C316 C314 1.384 . S
C316 C317 1.372 . S
C317 C316 1.372 . S
C317 C318 1.400 . S
C317 C322 1.490 . S
C318 H308 0.930 . S
C318 C317 1.400 . S
C318 C321 1.386 . S
H319 C335 0.930 . S
H320 C336 0.931 . S
C321 H309 0.929 . S
C321 C315 1.390 . S
C321 C318 1.386 . S
C322 C317 1.490 . S
C322 C324 1.395 . S
C322 C325 1.403 . S
H323 C329 0.930 . S
C324 H310 0.930 . S
C324 C322 1.395 . S
C324 C327 1.403 . S
C325 C322 1.403 . S
C325 C326 1.524 . S
C325 C329 1.400 . S
C326 H311 0.960 . S
C326 H312 0.960 . S
C326 H313 0.960 . S
C326 C325 1.524 . S
C327 C324 1.403 . S
C327 C328 1.392 . S
C327 C331 1.495 . S
C328 C327 1.392 . S
C328 C329 1.385 . S
C328 C330 1.478 . S
C329 H323 0.930 . S
C329 C325 1.400 . S
C329 C328 1.385 . S
C330 C328 1.478 . S
C330 C332 1.381 . S
C330 C336 1.383 . S
C331 C327 1.495 . S
C331 H337 0.959 . S
C331 H338 0.961 . S
C331 H339 0.960 . S
C332 C330 1.381 . S
C332 C333 1.394 . S
C332 H340 0.930 . S
C333 C332 1.394 . S
C333 C334 1.383 . S
C333 H341 0.929 . S
C334 C333 1.383 . S
C334 C335 1.377 . S
C335 H319 0.930 . S
C335 C334 1.377 . S
C335 C336 1.379 . S
C336 H320 0.931 . S
C336 C330 1.383 . S
C336 C335 1.379 . S
H337 C331 0.959 . S
H338 C331 0.961 . S
H339 C331 0.960 . S
H340 C332 0.930 . S
H341 C333 0.929 . S
H342 C350 0.929 . S
H343 C352 0.930 . S
H344 C354 0.930 . S
H345 C357 0.929 . S
H346 C360 0.930 . S
H347 C362 0.960 . S
H348 C362 0.960 . S
H349 C362 0.960 . S
C350 H342 0.929 . S
C350 C351 1.377 . S
C350 C352 1.384 . S
C351 C350 1.377 . S
C351 C357 1.390 . S
C352 H343 0.930 . S
C352 C350 1.384 . S
C352 C353 1.372 . S
C353 C352 1.372 . S
C353 C354 1.400 . S
C353 C358 1.490 . S
C354 H344 0.930 . S
C354 C353 1.400 . S
C354 C357 1.386 . S
H355 C371 0.930 . S
H356 C372 0.931 . S
C357 H345 0.929 . S
C357 C351 1.390 . S
C357 C354 1.386 . S
C358 C353 1.490 . S
C358 C360 1.395 . S
C358 C361 1.403 . S
H359 C365 0.930 . S
C360 H346 0.930 . S
C360 C358 1.395 . S
C360 C363 1.403 . S
C361 C358 1.403 . S
C361 C362 1.524 . S
C361 C365 1.400 . S
C362 H347 0.960 . S
C362 H348 0.960 . S
C362 H349 0.960 . S
C362 C361 1.524 . S
C363 C360 1.403 . S
C363 C364 1.392 . S
C363 C367 1.495 . S
C364 C363 1.392 . S
C364 C365 1.385 . S
C364 C366 1.478 . S
C365 H359 0.930 . S
C365 C361 1.400 . S
C365 C364 1.385 . S
C366 C364 1.478 . S
C366 C368 1.381 . S
C366 C372 1.383 . S
C367 C363 1.495 . S
C367 H373 0.959 . S
C367 H374 0.961 . S
C367 H375 0.960 . S
C368 C366 1.381 . S
C368 C369 1.394 . S
C368 H376 0.930 . S
C369 C368 1.394 . S
C369 C370 1.383 . S
C369 H377 0.929 . S
C370 C369 1.383 . S
C370 C371 1.377 . S
C371 H355 0.930 . S
C371 C370 1.377 . S
C371 C372 1.379 . S
C372 H356 0.931 . S
C372 C366 1.383 . S
C372 C371 1.379 . S
H373 C367 0.959 . S
H374 C367 0.961 . S
H375 C367 0.960 . S
H376 C368 0.930 . S
H377 C369 0.929 . S
H378 C386 0.929 . S
H379 C388 0.930 . S
H380 C390 0.930 . S
H381 C393 0.929 . S
H382 C396 0.930 . S
H383 C398 0.960 . S
H384 C398 0.960 . S
H385 C398 0.960 . S
C386 H378 0.929 . S
C386 C387 1.377 . S
C386 C388 1.384 . S
C387 C386 1.377 . S
C387 C393 1.390 . S
C388 H379 0.930 . S
C388 C386 1.384 . S
C388 C389 1.372 . S
C389 C388 1.372 . S
C389 C390 1.400 . S
C389 C394 1.490 . S
C390 H380 0.930 . S
C390 C389 1.400 . S
C390 C393 1.386 . S
H391 C407 0.930 . S
H392 C408 0.931 . S
C393 H381 0.929 . S
C393 C387 1.390 . S
C393 C390 1.386 . S
C394 C389 1.490 . S
C394 C396 1.395 . S
C394 C397 1.403 . S
H395 C401 0.930 . S
C396 H382 0.930 . S
C396 C394 1.395 . S
C396 C399 1.403 . S
C397 C394 1.403 . S
C397 C398 1.524 . S
C397 C401 1.400 . S
C398 H383 0.960 . S
C398 H384 0.960 . S
C398 H385 0.960 . S
C398 C397 1.524 . S
C399 C396 1.403 . S
C399 C400 1.392 . S
C399 C403 1.495 . S
C400 C399 1.392 . S
C400 C401 1.385 . S
C400 C402 1.478 . S
C401 H395 0.930 . S
C401 C397 1.400 . S
C401 C400 1.385 . S
C402 C400 1.478 . S
C402 C404 1.381 . S
C402 C408 1.383 . S
C403 C399 1.495 . S
C403 H409 0.959 . S
C403 H410 0.961 . S
C403 H411 0.960 . S
C404 C402 1.381 . S
C404 C405 1.394 . S
C404 H412 0.930 . S
C405 C404 1.394 . S
C405 C406 1.383 . S
C405 H413 0.929 . S
C406 C405 1.383 . S
C406 C407 1.377 . S
C407 H391 0.930 . S
C407 C406 1.377 . S
C407 C408 1.379 . S
C408 H392 0.931 . S
C408 C402 1.383 . S
C408 C407 1.379 . S
H409 C403 0.959 . S
H410 C403 0.961 . S
H411 C403 0.960 . S
H412 C404 0.930 . S
H413 C405 0.929 . S
H414 C422 0.929 . S
H415 C424 0.930 . S
H416 C426 0.930 . S
H417 C429 0.929 . S
H418 C432 0.930 . S
H419 C434 0.960 . S
H420 C434 0.960 . S
H421 C434 0.960 . S
C422 H414 0.929 . S
C422 C423 1.377 . S
C422 C424 1.384 . S
C423 C422 1.377 . S
C423 C429 1.390 . S
C424 H415 0.930 . S
C424 C422 1.384 . S
C424 C425 1.372 . S
C425 C424 1.372 . S
C425 C426 1.400 . S
C425 C430 1.490 . S
C426 H416 0.930 . S
C426 C425 1.400 . S
C426 C429 1.386 . S
H427 C443 0.930 . S
H428 C444 0.931 . S
C429 H417 0.929 . S
C429 C423 1.390 . S
C429 C426 1.386 . S
C430 C425 1.490 . S
C430 C432 1.395 . S
C430 C433 1.403 . S
H431 C437 0.930 . S
C432 H418 0.930 . S
C432 C430 1.395 . S
C432 C435 1.403 . S
C433 C430 1.403 . S
C433 C434 1.524 . S
C433 C437 1.400 . S
C434 H419 0.960 . S
C434 H420 0.960 . S
C434 H421 0.960 . S
C434 C433 1.524 . S
C435 C432 1.403 . S
C435 C436 1.392 . S
C435 C439 1.495 . S
C436 C435 1.392 . S
C436 C437 1.385 . S
C436 C438 1.478 . S
C437 H431 0.930 . S
C437 C433 1.400 . S
C437 C436 1.385 . S
C438 C436 1.478 . S
C438 C440 1.381 . S
C438 C444 1.383 . S
C439 C435 1.495 . S
C439 H445 0.959 . S
C439 H446 0.961 . S
C439 H447 0.960 . S
C440 C438 1.381 . S
C440 C441 1.394 . S
C440 H448 0.930 . S
C441 C440 1.394 . S
C441 C442 1.383 . S
C441 H449 0.929 . S
C442 C441 1.383 . S
C442 C443 1.377 . S
C443 H427 0.930 . S
C443 C442 1.377 . S
C443 C444 1.379 . S
C444 H428 0.931 . S
C444 C438 1.383 . S
C444 C443 1.379 . S
H445 C439 0.959 . S
H446 C439 0.961 . S
H447 C439 0.960 . S
H448 C440 0.930 . S
H449 C441 0.929 . S
H450 C458 0.929 . S
H451 C460 0.930 . S
H452 C462 0.930 . S
H453 C465 0.929 . S
H454 C468 0.930 . S
H455 C470 0.960 . S
H456 C470 0.960 . S
H457 C470 0.960 . S
C458 H450 0.929 . S
C458 C459 1.377 . S
C458 C460 1.384 . S
C459 C458 1.377 . S
C459 C465 1.390 . S
C460 H451 0.930 . S
C460 C458 1.384 . S
C460 C461 1.372 . S
C461 C460 1.372 . S
C461 C462 1.400 . S
C461 C466 1.490 . S
C462 H452 0.930 . S
C462 C461 1.400 . S
C462 C465 1.386 . S
H463 C479 0.930 . S
H464 C480 0.931 . S
C465 H453 0.929 . S
C465 C459 1.390 . S
C465 C462 1.386 . S
C466 C461 1.490 . S
C466 C468 1.395 . S
C466 C469 1.403 . S
H467 C473 0.930 . S
C468 H454 0.930 . S
C468 C466 1.395 . S
C468 C471 1.403 . S
C469 C466 1.403 . S
C469 C470 1.524 . S
C469 C473 1.400 . S
C470 H455 0.960 . S
C470 H456 0.960 . S
C470 H457 0.960 . S
C470 C469 1.524 . S
C471 C468 1.403 . S
C471 C472 1.392 . S
C471 C475 1.495 . S
C472 C471 1.392 . S
C472 C473 1.385 . S
C472 C474 1.478 . S
C473 H467 0.930 . S
C473 C469 1.400 . S
C473 C472 1.385 . S
C474 C472 1.478 . S
C474 C476 1.381 . S
C474 C480 1.383 . S
C475 C471 1.495 . S
C475 H481 0.959 . S
C475 H482 0.961 . S
C475 H483 0.960 . S
C476 C474 1.381 . S
C476 C477 1.394 . S
C476 H484 0.930 . S
C477 C476 1.394 . S
C477 C478 1.383 . S
C477 H485 0.929 . S
C478 C477 1.383 . S
C478 C479 1.377 . S
C479 H463 0.930 . S
C479 C478 1.377 . S
C479 C480 1.379 . S
C480 H464 0.931 . S
C480 C474 1.383 . S
C480 C479 1.379 . S
H481 C475 0.959 . S
H482 C475 0.961 . S
H483 C475 0.960 . S
H484 C476 0.930 . S
H485 C477 0.929 . S
H486 C494 0.929 . S
H487 C496 0.930 . S
H488 C498 0.930 . S
H489 C501 0.929 . S
H490 C504 0.930 . S
H491 C506 0.960 . S
H492 C506 0.960 . S
H493 C506 0.960 . S
C494 H486 0.929 . S
C494 C495 1.377 . S
C494 C496 1.384 . S
C495 C494 1.377 . S
C495 C501 1.390 . S
C496 H487 0.930 . S
C496 C494 1.384 . S
C496 C497 1.372 . S
C497 C496 1.372 . S
C497 C498 1.400 . S
C497 C502 1.490 . S
C498 H488 0.930 . S
C498 C497 1.400 . S
C498 C501 1.386 . S
H499 C515 0.930 . S
H500 C516 0.931 . S
C501 H489 0.929 . S
C501 C495 1.390 . S
C501 C498 1.386 . S
C502 C497 1.490 . S
C502 C504 1.395 . S
C502 C505 1.403 . S
H503 C509 0.930 . S
C504 H490 0.930 . S
C504 C502 1.395 . S
C504 C507 1.403 . S
C505 C502 1.403 . S
C505 C506 1.524 . S
C505 C509 1.400 . S
C506 H491 0.960 . S
C506 H492 0.960 . S
C506 H493 0.960 . S
C506 C505 1.524 . S
C507 C504 1.403 . S
C507 C508 1.392 . S
C507 C511 1.495 . S
C508 C507 1.392 . S
C508 C509 1.385 . S
C508 C510 1.478 . S
C509 H503 0.930 . S
C509 C505 1.400 . S
C509 C508 1.385 . S
C510 C508 1.478 . S
C510 C512 1.381 . S
C510 C516 1.383 . S
C511 C507 1.495 . S
C511 H517 0.959 . S
C511 H518 0.961 . S
C511 H519 0.960 . S
C512 C510 1.381 . S
C512 C513 1.394 . S
C512 H520 0.930 . S
C513 C512 1.394 . S
C513 C514 1.383 . S
C513 H521 0.929 . S
C514 C513 1.383 . S
C514 C515 1.377 . S
C515 H499 0.930 . S
C515 C514 1.377 . S
C515 C516 1.379 . S
C516 H500 0.931 . S
C516 C510 1.383 . S
C516 C515 1.379 . S
H517 C511 0.959 . S
H518 C511 0.961 . S
H519 C511 0.960 . S
H520 C512 0.930 . S
H521 C513 0.929 . S
H522 C530 0.929 . S
H523 C532 0.930 . S
H524 C534 0.930 . S
H525 C537 0.929 . S
H526 C540 0.930 . S
H527 C542 0.960 . S
H528 C542 0.960 . S
H529 C542 0.960 . S
C530 H522 0.929 . S
C530 C531 1.377 . S
C530 C532 1.384 . S
C531 C530 1.377 . S
C531 C537 1.390 . S
C532 H523 0.930 . S
C532 C530 1.384 . S
C532 C533 1.372 . S
C533 C532 1.372 . S
C533 C534 1.400 . S
C533 C538 1.490 . S
C534 H524 0.930 . S
C534 C533 1.400 . S
C534 C537 1.386 . S
H535 C551 0.930 . S
H536 C552 0.931 . S
C537 H525 0.929 . S
C537 C531 1.390 . S
C537 C534 1.386 . S
C538 C533 1.490 . S
C538 C540 1.395 . S
C538 C541 1.403 . S
H539 C545 0.930 . S
C540 H526 0.930 . S
C540 C538 1.395 . S
C540 C543 1.403 . S
C541 C538 1.403 . S
C541 C542 1.524 . S
C541 C545 1.400 . S
C542 H527 0.960 . S
C542 H528 0.960 . S
C542 H529 0.960 . S
C542 C541 1.524 . S
C543 C540 1.403 . S
C543 C544 1.392 . S
C543 C547 1.495 . S
C544 C543 1.392 . S
C544 C545 1.385 . S
C544 C546 1.478 . S
C545 H539 0.930 . S
C545 C541 1.400 . S
C545 C544 1.385 . S
C546 C544 1.478 . S
C546 C548 1.381 . S
C546 C552 1.383 . S
C547 C543 1.495 . S
C547 H553 0.959 . S
C547 H554 0.961 . S
C547 H555 0.960 . S
C548 C546 1.381 . S
C548 C549 1.394 . S
C548 H556 0.930 . S
C549 C548 1.394 . S
C549 C550 1.383 . S
C549 H557 0.929 . S
C550 C549 1.383 . S
C550 C551 1.377 . S
C551 H535 0.930 . S
C551 C550 1.377 . S
C551 C552 1.379 . S
C552 H536 0.931 . S
C552 C546 1.383 . S
C552 C551 1.379 . S
H553 C547 0.959 . S
H554 C547 0.961 . S
H555 C547 0.960 . S
H556 C548 0.930 . S
H557 C549 0.929 . S
H558 C566 0.929 . S
H559 C568 0.930 . S
H560 C570 0.930 . S
H561 C573 0.929 . S
H562 C576 0.930 . S
H563 C578 0.960 . S
H564 C578 0.960 . S
H565 C578 0.960 . S
C566 H558 0.929 . S
C566 C567 1.377 . S
C566 C568 1.384 . S
C567 C566 1.377 . S
C567 C573 1.390 . S
C568 H559 0.930 . S
C568 C566 1.384 . S
C568 C569 1.372 . S
C569 C568 1.372 . S
C569 C570 1.400 . S
C569 C574 1.490 . S
C570 H560 0.930 . S
C570 C569 1.400 . S
C570 C573 1.386 . S
H571 C587 0.930 . S
H572 C588 0.931 . S
C573 H561 0.929 . S
C573 C567 1.390 . S
C573 C570 1.386 . S
C574 C569 1.490 . S
C574 C576 1.395 . S
C574 C577 1.403 . S
H575 C581 0.930 . S
C576 H562 0.930 . S
C576 C574 1.395 . S
C576 C579 1.403 . S
C577 C574 1.403 . S
C577 C578 1.524 . S
C577 C581 1.400 . S
C578 H563 0.960 . S
C578 H564 0.960 . S
C578 H565 0.960 . S
C578 C577 1.524 . S
C579 C576 1.403 . S
C579 C580 1.392 . S
C579 C583 1.495 . S
C580 C579 1.392 . S
C580 C581 1.385 . S
C580 C582 1.478 . S
C581 H575 0.930 . S
C581 C577 1.400 . S
C581 C580 1.385 . S
C582 C580 1.478 . S
C582 C584 1.381 . S
C582 C588 1.383 . S
C583 C579 1.495 . S
C583 H589 0.959 . S
C583 H590 0.961 . S
C583 H591 0.960 . S
C584 C582 1.381 . S
C584 C585 1.394 . S
C584 H592 0.930 . S
C585 C584 1.394 . S
C585 C586 1.383 . S
C585 H593 0.929 . S
C586 C585 1.383 . S
C586 C587 1.377 . S
C587 H571 0.930 . S
C587 C586 1.377 . S
C587 C588 1.379 . S
C588 H572 0.931 . S
C588 C582 1.383 . S
C588 C587 1.379 . S
H589 C583 0.959 . S
H590 C583 0.961 . S
H591 C583 0.960 . S
H592 C584 0.930 . S
H593 C585 0.929 . S
H594 C602 0.929 . S
H595 C604 0.930 . S
H596 C606 0.930 . S
H597 C609 0.929 . S
H598 C612 0.930 . S
H599 C614 0.960 . S
H600 C614 0.960 . S
H601 C614 0.960 . S
C602 H594 0.929 . S
C602 C603 1.377 . S
C602 C604 1.384 . S
C603 C602 1.377 . S
C603 C609 1.390 . S
C604 H595 0.930 . S
C604 C602 1.384 . S
C604 C605 1.372 . S
C605 C604 1.372 . S
C605 C606 1.400 . S
C605 C610 1.490 . S
C606 H596 0.930 . S
C606 C605 1.400 . S
C606 C609 1.386 . S
H607 C623 0.930 . S
H608 C624 0.931 . S
C609 H597 0.929 . S
C609 C603 1.390 . S
C609 C606 1.386 . S
C610 C605 1.490 . S
C610 C612 1.395 . S
C610 C613 1.403 . S
H611 C617 0.930 . S
C612 H598 0.930 . S
C612 C610 1.395 . S
C612 C615 1.403 . S
C613 C610 1.403 . S
C613 C614 1.524 . S
C613 C617 1.400 . S
C614 H599 0.960 . S
C614 H600 0.960 . S
C614 H601 0.960 . S
C614 C613 1.524 . S
C615 C612 1.403 . S
C615 C616 1.392 . S
C615 C619 1.495 . S
C616 C615 1.392 . S
C616 C617 1.385 . S
C616 C618 1.478 . S
C617 H611 0.930 . S
C617 C613 1.400 . S
C617 C616 1.385 . S
C618 C616 1.478 . S
C618 C620 1.381 . S
C618 C624 1.383 . S
C619 C615 1.495 . S
C619 H625 0.959 . S
C619 H626 0.961 . S
C619 H627 0.960 . S
C620 C618 1.381 . S
C620 C621 1.394 . S
C620 H628 0.930 . S
C621 C620 1.394 . S
C621 C622 1.383 . S
C621 H629 0.929 . S
C622 C621 1.383 . S
C622 C623 1.377 . S
C623 H607 0.930 . S
C623 C622 1.377 . S
C623 C624 1.379 . S
C624 H608 0.931 . S
C624 C618 1.383 . S
C624 C623 1.379 . S
H625 C619 0.959 . S
H626 C619 0.961 . S
H627 C619 0.960 . S
H628 C620 0.930 . S
H629 C621 0.929 . S
H630 C638 0.929 . S
H631 C640 0.930 . S
H632 C642 0.930 . S
H633 C645 0.929 . S
H634 C648 0.930 . S
H635 C650 0.960 . S
H636 C650 0.960 . S
H637 C650 0.960 . S
C638 H630 0.929 . S
C638 C639 1.377 . S
C638 C640 1.384 . S
C639 C638 1.377 . S
C639 C645 1.390 . S
C640 H631 0.930 . S
C640 C638 1.384 . S
C640 C641 1.372 . S
C641 C640 1.372 . S
C641 C642 1.400 . S
C641 C646 1.490 . S
C642 H632 0.930 . S
C642 C641 1.400 . S
C642 C645 1.386 . S
H643 C659 0.930 . S
H644 C660 0.931 . S
C645 H633 0.929 . S
C645 C639 1.390 . S
C645 C642 1.386 . S
C646 C641 1.490 . S
C646 C648 1.395 . S
C646 C649 1.403 . S
H647 C653 0.930 . S
C648 H634 0.930 . S
C648 C646 1.395 . S
C648 C651 1.403 . S
C649 C646 1.403 . S
C649 C650 1.524 . S
C649 C653 1.400 . S
C650 H635 0.960 . S
C650 H636 0.960 . S
C650 H637 0.960 . S
C650 C649 1.524 . S
C651 C648 1.403 . S
C651 C652 1.392 . S
C651 C655 1.495 . S
C652 C651 1.392 . S
C652 C653 1.385 . S
C652 C654 1.478 . S
C653 H647 0.930 . S
C653 C649 1.400 . S
C653 C652 1.385 . S
C654 C652 1.478 . S
C654 C656 1.381 . S
C654 C660 1.383 . S
C655 C651 1.495 . S
C655 H661 0.959 . S
C655 H662 0.961 . S
C655 H663 0.960 . S
C656 C654 1.381 . S
C656 C657 1.394 . S
C656 H664 0.930 . S
C657 C656 1.394 . S
C657 C658 1.383 . S
C657 H665 0.929 . S
C658 C657 1.383 . S
C658 C659 1.377 . S
C659 H643 0.930 . S
C659 C658 1.377 . S
C659 C660 1.379 . S
C660 H644 0.931 . S
C660 C654 1.383 . S
C660 C659 1.379 . S
H661 C655 0.959 . S
H662 C655 0.961 . S
H663 C655 0.960 . S
H664 C656 0.930 . S
H665 C657 0.929 . S
H666 C674 0.929 . S
H667 C676 0.930 . S
H668 C678 0.930 1_655 S
H669 C681 0.929 1_655 S
H670 C684 0.930 . S
H671 C686 0.960 . S
H672 C686 0.960 . S
H673 C686 0.960 1_655 S
C674 H666 0.929 . S
C674 C675 1.377 . S
C674 C676 1.384 . S
C675 C674 1.377 . S
C675 C681 1.390 . S
C676 H667 0.930 . S
C676 C674 1.384 . S
C676 C677 1.372 . S
C677 C676 1.372 . S
C677 C678 1.400 . S
C677 C682 1.490 . S
C678 H668 0.930 1_455 S
C678 C677 1.400 . S
C678 C681 1.386 . S
H679 C695 0.930 . S
H680 C696 0.931 . S
C681 H669 0.929 1_455 S
C681 C675 1.390 . S
C681 C678 1.386 . S
C682 C677 1.490 . S
C682 C684 1.395 . S
C682 C685 1.403 . S
H683 C689 0.955 . S
C684 H670 0.930 . S
C684 C682 1.395 . S
C684 C687 1.403 . S
C685 C682 1.403 . S
C685 C686 1.524 . S
C685 C689 1.366 1_554 S
C686 H671 0.960 . S
C686 H672 0.960 . S
C686 H673 0.960 1_455 S
C686 C685 1.524 . S
C687 C684 1.403 . S
C687 C688 1.392 1_554 S
C687 C691 1.495 . S
C688 C687 1.392 1_556 S
C688 C689 1.396 . S
C688 C690 1.478 . S
C689 H683 0.955 . S
C689 C685 1.366 1_556 S
C689 C688 1.396 . S
C690 C688 1.478 . S
C690 C692 1.381 . S
C690 C696 1.383 . S
C691 C687 1.495 . S
C691 H697 0.959 . S
C691 H698 0.961 1_554 S
C691 H699 0.960 1_554 S
C692 C690 1.381 . S
C692 C693 1.394 . S
C692 H700 0.930 . S
C693 C692 1.394 . S
C693 C694 1.383 . S
C693 H701 0.929 . S
C694 C693 1.383 . S
C694 C695 1.377 . S
C695 H679 0.930 . S
C695 C694 1.377 . S
C695 C696 1.379 . S
C696 H680 0.931 . S
C696 C690 1.383 . S
C696 C695 1.379 . S
H697 C691 0.959 . S
H698 C691 0.961 1_556 S
H699 C691 0.960 1_556 S
H700 C692 0.930 . S
H701 C693 0.929 . S
H702 C710 0.929 1_565 S
H703 C712 0.930 1_565 S
H704 C714 0.930 . S
H705 C717 0.929 . S
H706 C720 0.930 . S
H707 C722 0.960 . S
H708 C722 0.960 . S
H709 C722 0.960 . S
C710 H702 0.929 1_545 S
C710 C711 1.377 . S
C710 C712 1.384 . S
C711 C710 1.377 . S
C711 C717 1.390 . S
C712 H703 0.930 1_545 S
C712 C710 1.384 . S
C712 C713 1.372 . S
C713 C712 1.372 . S
C713 C714 1.400 . S
C713 C718 1.490 . S
C714 H704 0.930 . S
C714 C713 1.400 . S
C714 C717 1.386 . S
H715 C731 0.930 . S
H716 C732 0.931 . S
C717 H705 0.929 . S
C717 C711 1.390 . S
C717 C714 1.386 . S
C718 C713 1.490 . S
C718 C720 1.395 . S
C718 C721 1.403 . S
H719 C725 0.930 . S
C720 H706 0.930 . S
C720 C718 1.395 . S
C720 C723 1.403 . S
C721 C718 1.403 . S
C721 C722 1.524 . S
C721 C725 1.400 . S
C722 H707 0.960 . S
C722 H708 0.960 . S
C722 H709 0.960 . S
C722 C721 1.524 . S
C723 C720 1.403 . S
C723 C724 1.392 . S
C723 C727 1.495 . S
C724 C723 1.392 . S
C724 C725 1.385 . S
C724 C726 1.478 . S
C725 H719 0.930 . S
C725 C721 1.400 . S
C725 C724 1.385 . S
C726 C724 1.478 . S
C726 C728 1.381 . S
C726 C732 1.383 . S
C727 C723 1.495 . S
C727 H733 0.959 . S
C727 H734 0.961 . S
C727 H735 0.960 . S
C728 C726 1.381 . S
C728 C729 1.394 . S
C728 H736 0.930 . S
C729 C728 1.394 . S
C729 C730 1.383 . S
C729 H737 0.929 . S
C730 C729 1.383 . S
C730 C731 1.377 . S
C731 H715 0.930 . S
C731 C730 1.377 . S
C731 C732 1.379 . S
C732 H716 0.931 . S
C732 C726 1.383 . S
C732 C731 1.379 . S
H733 C727 0.959 . S
H734 C727 0.961 . S
H735 C727 0.960 . S
H736 C728 0.930 . S
H737 C729 0.929 . S
H738 C746 0.929 . S
H739 C748 0.930 . S
H740 C750 0.930 . S
H741 C753 0.929 . S
H742 C756 0.930 . S
H743 C758 0.960 . S
H744 C758 0.960 . S
H745 C758 0.960 . S
C746 H738 0.929 . S
C746 C747 1.377 . S
C746 C748 1.384 . S
C747 C746 1.377 . S
C747 C753 1.390 . S
C748 H739 0.930 . S
C748 C746 1.384 . S
C748 C749 1.372 . S
C749 C748 1.372 . S
C749 C750 1.400 . S
C749 C754 1.490 . S
C750 H740 0.930 . S
C750 C749 1.400 . S
C750 C753 1.386 . S
H751 C767 0.930 . S
H752 C768 0.931 . S
C753 H741 0.929 . S
C753 C747 1.390 . S
C753 C750 1.386 . S
C754 C749 1.490 . S
C754 C756 1.395 . S
C754 C757 1.403 . S
H755 C761 0.930 . S
C756 H742 0.930 . S
C756 C754 1.395 . S
C756 C759 1.403 . S
C757 C754 1.403 . S
C757 C758 1.524 . S
C757 C761 1.400 . S
C758 H743 0.960 . S
C758 H744 0.960 . S
C758 H745 0.960 . S
C758 C757 1.524 . S
C759 C756 1.403 . S
C759 C760 1.392 . S
C759 C763 1.495 . S
C760 C759 1.392 . S
C760 C761 1.385 . S
C760 C762 1.478 . S
C761 H755 0.930 . S
C761 C757 1.400 . S
C761 C760 1.385 . S
C762 C760 1.478 . S
C762 C764 1.381 . S
C762 C768 1.383 . S
C763 C759 1.495 . S
C763 H769 0.959 . S
C763 H770 0.961 . S
C763 H771 0.960 . S
C764 C762 1.381 . S
C764 C765 1.394 . S
C764 H772 0.930 . S
C765 C764 1.394 . S
C765 C766 1.383 . S
C765 H773 0.929 . S
C766 C765 1.383 . S
C766 C767 1.377 . S
C767 H751 0.930 . S
C767 C766 1.377 . S
C767 C768 1.379 . S
C768 H752 0.931 . S
C768 C762 1.383 . S
C768 C767 1.379 . S
H769 C763 0.959 . S
H770 C763 0.961 . S
H771 C763 0.960 . S
H772 C764 0.930 . S
H773 C765 0.929 . S
H774 C782 0.929 . S
H775 C784 0.930 . S
H776 C786 0.930 . S
H777 C789 0.929 . S
H778 C792 0.930 1_565 S
H779 C794 0.960 . S
H780 C794 0.960 . S
H781 C794 0.960 . S
C782 H774 0.929 . S
C782 C783 1.377 . S
C782 C784 1.384 . S
C783 C782 1.377 . S
C783 C789 1.390 . S
C784 H775 0.930 . S
C784 C782 1.384 . S
C784 C785 1.372 . S
C785 C784 1.372 . S
C785 C786 1.400 . S
C785 C790 1.490 . S
C786 H776 0.930 . S
C786 C785 1.400 . S
C786 C789 1.386 . S
H787 C803 0.930 . S
H788 C804 0.931 . S
C789 H777 0.929 . S
C789 C783 1.390 . S
C789 C786 1.386 . S
C790 C785 1.490 . S
C790 C792 1.395 . S
C790 C793 1.403 . S
H791 C797 0.930 . S
C792 H778 0.930 1_545 S
C792 C790 1.395 . S
C792 C795 1.403 . S
C793 C790 1.403 . S
C793 C794 1.524 . S
C793 C797 1.400 . S
C794 H779 0.960 . S
C794 H780 0.960 . S
C794 H781 0.960 . S
C794 C793 1.524 . S
C795 C792 1.403 . S
C795 C796 1.392 . S
C795 C799 1.495 1_545 S
C796 C795 1.392 . S
C796 C797 1.385 . S
C796 C798 1.478 . S
C797 H791 0.930 . S
C797 C793 1.400 . S
C797 C796 1.385 . S
C798 C796 1.478 . S
C798 C800 1.381 . S
C798 C804 1.383 . S
C799 C795 1.495 1_565 S
C799 H805 0.959 . S
C799 H806 0.961 . S
C799 H807 0.960 . S
C800 C798 1.381 . S
C800 C801 1.394 . S
C800 H808 0.930 . S
C801 C800 1.394 . S
C801 C802 1.383 . S
C801 H809 0.929 . S
C802 C801 1.383 . S
C802 C803 1.377 . S
C803 H787 0.930 . S
C803 C802 1.377 . S
C803 C804 1.379 . S
C804 H788 0.931 . S
C804 C798 1.383 . S
C804 C803 1.379 . S
H805 C799 0.959 . S
H806 C799 0.961 . S
H807 C799 0.960 . S
H808 C800 0.930 . S
H809 C801 0.929 . S
H810 C818 0.929 . S
H811 C820 0.930 . S
H812 C822 0.930 . S
H813 C825 0.929 . S
H814 C828 0.930 . S
H815 C830 0.960 . S
H816 C830 0.960 . S
H817 C830 0.960 . S
C818 H810 0.929 . S
C818 C819 1.377 . S
C818 C820 1.384 . S
C819 C818 1.377 . S
C819 C825 1.390 . S
C820 H811 0.930 . S
C820 C818 1.384 . S
C820 C821 1.372 . S
C821 C820 1.372 . S
C821 C822 1.400 . S
C821 C826 1.490 . S
C822 H812 0.930 . S
C822 C821 1.400 . S
C822 C825 1.386 . S
H823 C839 0.930 . S
H824 C840 0.931 . S
C825 H813 0.929 . S
C825 C819 1.390 . S
C825 C822 1.386 . S
C826 C821 1.490 . S
C826 C828 1.395 . S
C826 C829 1.403 . S
H827 C833 0.917 1_554 S
C828 H814 0.930 . S
C828 C826 1.395 . S
C828 C831 1.403 . S
C829 C826 1.403 . S
C829 C830 1.524 . S
C829 C833 1.420 . S
C830 H815 0.960 . S
C830 H816 0.960 . S
C830 H817 0.960 . S
C830 C829 1.524 . S
C831 C828 1.403 . S
C831 C832 1.392 1_556 S
C831 C835 1.495 1_556 S
C832 C831 1.392 1_554 S
C832 C833 1.377 1_554 S
C832 C834 1.478 . S
C833 H827 0.917 1_556 S
C833 C829 1.420 . S
C833 C832 1.377 1_556 S
C834 C832 1.478 . S
C834 C836 1.381 . S
C834 C840 1.383 . S
C835 C831 1.495 1_554 S
C835 H841 0.959 1_554 S
C835 H842 0.961 . S
C835 H843 0.960 . S
C836 C834 1.381 . S
C836 C837 1.394 . S
C836 H844 0.930 . S
C837 C836 1.394 . S
C837 C838 1.383 . S
C837 H845 0.929 . S
C838 C837 1.383 . S
C838 C839 1.377 . S
C839 H823 0.930 . S
C839 C838 1.377 . S
C839 C840 1.379 . S
C840 H824 0.931 . S
C840 C834 1.383 . S
C840 C839 1.379 . S
H841 C835 0.959 1_556 S
H842 C835 0.961 . S
H843 C835 0.960 . S
H844 C836 0.930 . S
H845 C837 0.929 . S
H846 C854 0.929 . S
H847 C856 0.930 . S
H848 C858 0.930 1_655 S
H849 C861 0.929 1_655 S
H850 C864 0.930 . S
H851 C866 0.960 . S
H852 C866 0.960 . S
H853 C866 0.960 . S
C854 H846 0.929 . S
C854 C855 1.377 . S
C854 C856 1.384 . S
C855 C854 1.377 . S
C855 C861 1.390 . S
C856 H847 0.930 . S
C856 C854 1.384 . S
C856 C857 1.372 . S
C857 C856 1.372 . S
C857 C858 1.400 . S
C857 C862 1.490 . S
C858 H848 0.930 1_455 S
C858 C857 1.400 . S
C858 C861 1.386 . S
H859 C875 0.930 1_655 S
H860 C876 0.931 1_655 S
C861 H849 0.929 1_455 S
C861 C855 1.390 . S
C861 C858 1.386 . S
C862 C857 1.490 . S
C862 C864 1.395 . S
C862 C865 1.403 . S
H863 C869 0.930 1_655 S
C864 H850 0.930 . S
C864 C862 1.395 . S
C864 C867 1.403 . S
C865 C862 1.403 . S
C865 C866 1.524 1_455 S
C865 C869 1.400 . S
C866 H851 0.960 . S
C866 H852 0.960 . S
C866 H853 0.960 . S
C866 C865 1.524 1_655 S
C867 C864 1.403 . S
C867 C868 1.392 . S
C867 C871 1.495 . S
C868 C867 1.392 . S
C868 C869 1.385 . S
C868 C870 1.478 . S
C869 H863 0.930 1_455 S
C869 C865 1.400 . S
C869 C868 1.385 . S
C870 C868 1.478 . S
C870 C872 1.381 . S
C870 C876 1.383 . S
C871 C867 1.495 . S
C871 H877 0.959 . S
C871 H878 0.961 . S
C871 H879 0.960 . S
C872 C870 1.381 . S
C872 C873 1.394 . S
C872 H880 0.930 . S
C873 C872 1.394 . S
C873 C874 1.383 . S
C873 H881 0.929 . S
C874 C873 1.383 . S
C874 C875 1.377 . S
C875 H859 0.930 1_455 S
C875 C874 1.377 . S
C875 C876 1.379 . S
C876 H860 0.931 1_455 S
C876 C870 1.383 . S
C876 C875 1.379 . S
H877 C871 0.959 . S
H878 C871 0.961 . S
H879 C871 0.960 . S
H880 C872 0.930 . S
H881 C873 0.929 . S
C243 C7 0.674 . S
C262 C226 0.626 . S
C279 C51 1.979 . S
C298 C188 1.895 . S
C315 C87 1.264 . S
C334 C207 1.178 . S
C351 C16 0.161 . S
C370 C221 0.306 . S
C406 C183 1.835 . S
C387 C42 1.884 . S
C442 C202 1.114 . S
C423 C96 1.109 . S
C459 C47 1.320 . S
C478 C150 1.216 . S
C495 C91 3.035 . S
C514 C164 3.000 1_655 S
C531 C2 1.897 . S
C550 C126 1.884 1_565 S
C586 C145 1.071 . S
C567 C56 1.099 . S
C622 C169 2.980 . S
C603 C82 3.064 . S
C639 C11 1.984 . S
C658 C131 1.902 . S
C694 C160 1.711 . S
C675 C19 1.685 . S
C711 C50 1.478 . S
C730 C122 1.525 . S
C747 C99 1.560 . S
C766 C141 1.579 . S
C802 C198 1.578 . S
C783 C59 1.570 . S
C838 C217 1.417 . S
C819 C90 1.387 . S
C855 C10 1.446 . S
C874 C179 1.470 . S
