# Generated by pormake.
# Topology wbl, (4,4)-cn, num edge types: 1
# Building blocks:
#     Node 0, Type 0, BuildingBlock: MUDLON_clean_linker_0, # of connection points: 4
#     Node 1, Type 0, BuildingBlock: MUDLON_clean_linker_0, # of connection points: 4
#     Node 2, Type 0, BuildingBlock: MUDLON_clean_linker_0, # of connection points: 4
#     Node 3, Type 0, BuildingBlock: MUDLON_clean_linker_0, # of connection points: 4
#     Node 4, Type 0, BuildingBlock: MUDLON_clean_linker_0, # of connection points: 4
#     Node 5, Type 0, BuildingBlock: MUDLON_clean_linker_0, # of connection points: 4
#     Node 6, Type 0, BuildingBlock: MUDLON_clean_linker_0, # of connection points: 4
#     Node 7, Type 0, BuildingBlock: MUDLON_clean_linker_0, # of connection points: 4
#     Node 8, Type 1, BuildingBlock: QUQFOY_clean_sbu_3, # of connection points: 4
#     Node 9, Type 1, BuildingBlock: QUQFOY_clean_sbu_3, # of connection points: 4
#     Node 10, Type 1, BuildingBlock: QUQFOY_clean_sbu_3, # of connection points: 4
#     Node 11, Type 1, BuildingBlock: QUQFOY_clean_sbu_3, # of connection points: 4
#     Node 12, Type 1, BuildingBlock: QUQFOY_clean_sbu_3, # of connection points: 4
#     Node 13, Type 1, BuildingBlock: QUQFOY_clean_sbu_3, # of connection points: 4
#     Node 14, Type 1, BuildingBlock: QUQFOY_clean_sbu_3, # of connection points: 4
#     Node 15, Type 1, BuildingBlock: QUQFOY_clean_sbu_3, # of connection points: 4
#     Edge 16, Type (0, 1), BuildingBlock: TEMPAE_clean_linker_10, # of connection points: 2
#     Edge 17, Type (0, 1), BuildingBlock: TEMPAE_clean_linker_10, # of connection points: 2
#     Edge 18, Type (0, 1), BuildingBlock: TEMPAE_clean_linker_10, # of connection points: 2
#     Edge 19, Type (0, 1), BuildingBlock: TEMPAE_clean_linker_10, # of connection points: 2
#     Edge 20, Type (0, 1), BuildingBlock: TEMPAE_clean_linker_10, # of connection points: 2
#     Edge 21, Type (0, 1), BuildingBlock: TEMPAE_clean_linker_10, # of connection points: 2
#     Edge 22, Type (0, 1), BuildingBlock: TEMPAE_clean_linker_10, # of connection points: 2
#     Edge 23, Type (0, 1), BuildingBlock: TEMPAE_clean_linker_10, # of connection points: 2
#     Edge 24, Type (0, 1), BuildingBlock: TEMPAE_clean_linker_10, # of connection points: 2
#     Edge 25, Type (0, 1), BuildingBlock: TEMPAE_clean_linker_10, # of connection points: 2
#     Edge 26, Type (0, 1), BuildingBlock: TEMPAE_clean_linker_10, # of connection points: 2
#     Edge 27, Type (0, 1), BuildingBlock: TEMPAE_clean_linker_10, # of connection points: 2
#     Edge 28, Type (0, 1), BuildingBlock: TEMPAE_clean_linker_10, # of connection points: 2
#     Edge 29, Type (0, 1), BuildingBlock: TEMPAE_clean_linker_10, # of connection points: 2
#     Edge 30, Type (0, 1), BuildingBlock: TEMPAE_clean_linker_10, # of connection points: 2
#     Edge 31, Type (0, 1), BuildingBlock: TEMPAE_clean_linker_10, # of connection points: 2
#     Edge 32, Type (0, 1), BuildingBlock: TEMPAE_clean_linker_10, # of connection points: 2
#     Edge 33, Type (0, 1), BuildingBlock: TEMPAE_clean_linker_10, # of connection points: 2
#     Edge 34, Type (0, 1), BuildingBlock: TEMPAE_clean_linker_10, # of connection points: 2
#     Edge 35, Type (0, 1), BuildingBlock: TEMPAE_clean_linker_10, # of connection points: 2
#     Edge 36, Type (0, 1), BuildingBlock: TEMPAE_clean_linker_10, # of connection points: 2
#     Edge 37, Type (0, 1), BuildingBlock: TEMPAE_clean_linker_10, # of connection points: 2
#     Edge 38, Type (0, 1), BuildingBlock: TEMPAE_clean_linker_10, # of connection points: 2
#     Edge 39, Type (0, 1), BuildingBlock: TEMPAE_clean_linker_10, # of connection points: 2
#     Edge 40, Type (0, 1), BuildingBlock: TEMPAE_clean_linker_10, # of connection points: 2
#     Edge 41, Type (0, 1), BuildingBlock: TEMPAE_clean_linker_10, # of connection points: 2
#     Edge 42, Type (0, 1), BuildingBlock: TEMPAE_clean_linker_10, # of connection points: 2
#     Edge 43, Type (0, 1), BuildingBlock: TEMPAE_clean_linker_10, # of connection points: 2
#     Edge 44, Type (0, 1), BuildingBlock: TEMPAE_clean_linker_10, # of connection points: 2
#     Edge 45, Type (0, 1), BuildingBlock: TEMPAE_clean_linker_10, # of connection points: 2
#     Edge 46, Type (0, 1), BuildingBlock: TEMPAE_clean_linker_10, # of connection points: 2
#     Edge 47, Type (0, 1), BuildingBlock: TEMPAE_clean_linker_10, # of connection points: 2
# Relax obj value: 0.125
# Max RMSD: 0.148
# Mean RMSD: 0.132
data_MOF--net-wbl--node1-QUQFOY_clean_sbu_3--node2-MUDLON_clean_linker_0--edge1-TEMPAE_clean_linker_10
_symmetry_space_group_name_H-M    P1
_symmetry_Int_Tables_number       1
_symmetry_cell_setting            triclinic
loop_
_symmetry_equiv_pos_as_xyz
'x, y, z'
_cell_length_a     54.279524
_cell_length_b     54.842076
_cell_length_c     77.528953
_cell_angle_alpha  90.694591
_cell_angle_beta   90.228625
_cell_angle_gamma 89.935755
loop_
_atom_site_label
_atom_site_type_symbol
_atom_site_fract_x
_atom_site_fract_y
_atom_site_fract_z
_atom_type_partial_charge
H0 H 0.11984 0.95754 0.31658 0.0
N1 N 0.07605 0.95467 0.29844 0.0
H2 H 0.12674 0.94599 0.34618 0.0
H3 H 0.04339 0.93694 0.32053 0.0
H4 H 0.04972 0.92709 0.35089 0.0
H5 H 0.08359 0.91201 0.28276 0.0
H6 H 0.12075 0.89871 0.26741 0.0
H7 H 0.11372 0.98459 0.28749 0.0
H8 H 0.15049 0.97143 0.27227 0.0
H9 H 0.09171 -0.00199 0.31265 0.0
H10 H 0.03449 0.96475 0.28172 0.0
H11 H 0.06925 0.03648 0.31282 0.0
H12 H 0.01128 0.00307 0.28235 0.0
H13 H 0.97752 0.14692 0.32699 0.0
H14 H 0.96113 0.15456 0.35609 0.0
H15 H 0.93557 0.08012 0.3579 0.0
H16 H 0.95227 0.07249 0.32921 0.0
H17 H 0.94118 0.06922 0.30043 0.0
H18 H 0.90093 0.07414 0.28686 0.0
H19 H 0.91687 0.15004 0.27787 0.0
H20 H 0.95734 0.14502 0.2916 0.0
H21 H 0.00711 0.0865 0.33091 0.0
H22 H 0.03333 0.05143 0.32667 0.0
H23 H 0.00915 0.04543 0.27367 0.0
N24 N 0.97395 0.10597 0.30814 0.0
H25 H 0.98212 0.08032 0.27796 0.0
C26 C 0.08102 0.94766 0.31607 0.0
C27 C 0.10443 0.95048 0.32375 0.0
C28 C 0.10832 0.9442 0.34093 0.0
C29 C 0.0888 0.93567 0.35111 0.0
C30 C 0.06535 0.93312 0.34345 0.0
C31 C 0.06161 0.93889 0.32611 0.0
C32 C 0.0957 0.94918 0.28644 0.0
C33 C 0.09783 0.92523 0.28005 0.0
C34 C 0.11902 0.91768 0.27128 0.0
C35 C 0.13858 0.934 0.26885 0.0
C36 C 0.13578 0.95841 0.27416 0.0
C37 C 0.11455 0.96599 0.28283 0.0
C38 C 0.06475 0.97843 0.29709 0.0
C39 C 0.07444 -0.00094 0.30569 0.0
C40 C 0.06142 0.02104 0.30592 0.0
C41 C 0.03829 0.02283 0.29778 0.0
C42 C 0.02913 0.00244 0.28861 0.0
C43 C 0.04229 0.9805 0.28828 0.0
C44 C 0.96602 0.10929 0.32583 0.0
C45 C 0.96863 0.13224 0.33379 0.0
C46 C 0.95928 0.13655 0.35034 0.0
C47 C 0.94686 0.11798 0.35911 0.0
C48 C 0.94468 0.09486 0.35129 0.0
C49 C 0.95421 0.0905 0.33487 0.0
C50 C 0.95234 0.10689 0.29714 0.0
C51 C 0.93626 0.08686 0.29535 0.0
C52 C 0.91319 0.08969 0.28762 0.0
C53 C 0.90566 0.11255 0.28153 0.0
C54 C 0.92225 0.13219 0.28238 0.0
C55 C 0.94534 0.12936 0.29018 0.0
C56 C 0.99043 0.08518 0.3053 0.0
C57 C 0.00666 0.07745 0.31844 0.0
C58 C 0.02225 0.05751 0.3159 0.0
C59 C 0.02297 0.04519 0.29992 0.0
C60 C 0.00838 0.05396 0.28633 0.0
C61 C 0.99269 0.07394 0.28888 0.0
H62 H 0.98111 0.38147 0.56506 0.0
N63 N 0.98099 0.42233 0.5471 0.0
H64 H 0.96536 0.37526 0.5941 0.0
H65 H 0.96377 0.45804 0.56921 0.0
H66 H 0.94978 0.45247 0.59857 0.0
H67 H 0.93258 0.43534 0.54442 0.0
H68 H 0.90085 0.41076 0.5298 0.0
H69 H 0.98902 0.3894 0.52249 0.0
H70 H 0.95765 0.36515 0.50755 0.0
H71 H 0.02931 0.41988 0.54339 0.0
H72 H 0.96786 0.46921 0.53974 0.0
H73 H 0.0578 0.45333 0.53822 0.0
H74 H 0.99621 0.50342 0.53601 0.0
H75 H 0.14002 0.57054 0.55549 0.0
H76 H 0.14771 0.58609 0.58481 0.0
H77 H 0.06928 0.58845 0.59398 0.0
H78 H 0.06179 0.57301 0.5647 0.0
H79 H 0.05944 0.59675 0.5391 0.0
H80 H 0.06208 0.63669 0.52576 0.0
H81 H 0.13238 0.61686 0.50373 0.0
H82 H 0.12937 0.57666 0.51694 0.0
H83 H 0.10207 0.51949 0.55437 0.0
H84 H 0.07377 0.48539 0.55398 0.0
H85 H 0.02534 0.52486 0.51977 0.0
N86 N 0.09665 0.56292 0.54023 0.0
H87 H 0.05307 0.55947 0.52093 0.0
C88 C 0.97405 0.42017 0.56497 0.0
C89 C 0.97449 0.39704 0.57243 0.0
C90 C 0.96555 0.39359 0.58908 0.0
C91 C 0.95629 0.41337 0.59883 0.0
C92 C 0.95634 0.43669 0.59142 0.0
C93 C 0.96479 0.44001 0.57461 0.0
C94 C 0.9631 0.41378 0.53473 0.0
C95 C 0.93817 0.42059 0.53589 0.0
C96 C 0.92008 0.40653 0.52758 0.0
C97 C 0.92678 0.38588 0.51772 0.0
C98 C 0.9519 0.38103 0.51496 0.0
C99 C 0.96988 0.39483 0.52348 0.0
C100 C 0.99669 0.44222 0.54237 0.0
C101 C 0.02205 0.43807 0.5415 0.0
C102 C 0.03828 0.45731 0.53874 0.0
C103 C 0.02947 0.48135 0.53718 0.0
C104 C 0.00377 0.48524 0.53713 0.0
C105 C 0.9875 0.46576 0.53948 0.0
C106 C 0.10045 0.57063 0.55792 0.0
C107 C 0.12456 0.57425 0.56391 0.0
C108 C 0.12888 0.58307 0.58063 0.0
C109 C 0.10908 0.58856 0.59165 0.0
C110 C 0.08488 0.5847 0.58569 0.0
C111 C 0.08058 0.57578 0.569 0.0
C112 C 0.09431 0.58364 0.52902 0.0
C113 C 0.07505 0.60066 0.53097 0.0
C114 C 0.07666 0.62358 0.52343 0.0
C115 C 0.09763 0.63007 0.51394 0.0
C116 C 0.11591 0.61238 0.51087 0.0
C117 C 0.11423 0.58939 0.51838 0.0
C118 C 0.07974 0.54258 0.53821 0.0
C119 C 0.08532 0.52088 0.54681 0.0
C120 C 0.06914 0.50119 0.54638 0.0
C121 C 0.04708 0.50222 0.53684 0.0
C122 C 0.04185 0.52356 0.52758 0.0
C123 C 0.05794 0.54354 0.52825 0.0
H124 H 0.6036 0.44242 0.80637 0.0
N125 N 0.55987 0.43229 0.78993 0.0
H126 H 0.61328 0.43556 0.83655 0.0
H127 H 0.52963 0.41647 0.8143 0.0
H128 H 0.53845 0.41135 0.84496 0.0
H129 H 0.57374 0.38645 0.78458 0.0
H130 H 0.61156 0.37201 0.77065 0.0
H131 H 0.59058 0.45995 0.76898 0.0
H132 H 0.62784 0.44541 0.75502 0.0
H133 H 0.57716 0.47864 0.7954 0.0
H134 H 0.51419 0.43722 0.77815 0.0
H135 H 0.55362 0.51622 0.79311 0.0
H136 H 0.48964 0.47448 0.77717 0.0
H137 H 0.45543 0.62804 0.80713 0.0
H138 H 0.44211 0.63963 0.83627 0.0
H139 H 0.43283 0.56352 0.84847 0.0
H140 H 0.44549 0.55219 0.81937 0.0
H141 H 0.41599 0.55408 0.79644 0.0
H142 H 0.37546 0.56168 0.78461 0.0
H143 H 0.40522 0.62047 0.75428 0.0
H144 H 0.44542 0.61419 0.76785 0.0
H145 H 0.49821 0.57303 0.81042 0.0
H146 H 0.52409 0.53732 0.8078 0.0
H147 H 0.47965 0.51149 0.76494 0.0
N148 N 0.45649 0.5834 0.79308 0.0
H149 H 0.45268 0.5463 0.76837 0.0
C150 C 0.56593 0.42943 0.80797 0.0
C151 C 0.58935 0.43537 0.81465 0.0
C152 C 0.59477 0.43171 0.83205 0.0
C153 C 0.57672 0.42275 0.84333 0.0
C154 C 0.55307 0.41763 0.83667 0.0
C155 C 0.54786 0.42076 0.81917 0.0
C156 C 0.57922 0.42432 0.77829 0.0
C157 C 0.58513 0.39937 0.77779 0.0
C158 C 0.60673 0.39115 0.76991 0.0
C159 C 0.62262 0.40768 0.76194 0.0
C160 C 0.61582 0.43233 0.76109 0.0
C161 C 0.59442 0.44066 0.76927 0.0
C162 C 0.54753 0.45509 0.78657 0.0
C163 C 0.5583 0.47769 0.79086 0.0
C164 C 0.54458 0.4992 0.78984 0.0
C165 C 0.51946 0.49859 0.78517 0.0
C166 C 0.50896 0.47594 0.78053 0.0
C167 C 0.52292 0.45452 0.78113 0.0
C168 C 0.45156 0.58935 0.81101 0.0
C169 C 0.45085 0.61391 0.81621 0.0
C170 C 0.44328 0.62046 0.83285 0.0
C171 C 0.43623 0.60249 0.84464 0.0
C172 C 0.43771 0.57783 0.8396 0.0
C173 C 0.44515 0.57131 0.82298 0.0
C174 C 0.43368 0.58405 0.78337 0.0
C175 C 0.41381 0.56864 0.78728 0.0
C176 C 0.39054 0.57285 0.78021 0.0
C177 C 0.38664 0.59202 0.76856 0.0
C178 C 0.40711 0.60608 0.76362 0.0
C179 C 0.43027 0.60229 0.77112 0.0
C180 C 0.47222 0.56207 0.79048 0.0
C181 C 0.4936 0.55948 0.80066 0.0
C182 C 0.50881 0.5391 0.7989 0.0
C183 C 0.50393 0.52109 0.78628 0.0
C184 C 0.48358 0.52444 0.77523 0.0
C185 C 0.46799 0.54462 0.77725 0.0
H186 H 0.4747 0.88313 0.06761 0.0
N187 N 0.47583 0.92402 0.04972 0.0
H188 H 0.46049 0.87763 0.0971 0.0
H189 H 0.45938 0.96008 0.07152 0.0
H190 H 0.4468 0.95522 0.10149 0.0
H191 H 0.42649 0.93416 0.04825 0.0
H192 H 0.39603 0.90989 0.03211 0.0
H193 H 0.48518 0.89474 0.02308 0.0
H194 H 0.45498 0.87114 0.00646 0.0
H195 H 0.52365 0.9268 0.05571 0.0
H196 H 0.46262 0.96707 0.03472 0.0
H197 H 0.55092 0.96113 0.05078 0.0
H198 H 0.4901 0.0013 0.02859 0.0
H199 H 0.6374 0.06778 0.05168 0.0
H200 H 0.65089 0.07877 0.08102 0.0
H201 H 0.57509 0.07902 0.09773 0.0
H202 H 0.5618 0.06868 0.06872 0.0
H203 H 0.5663 0.10508 0.04914 0.0
H204 H 0.5692 0.14396 0.03507 0.0
H205 H 0.61044 0.11015 0.99347 0.0
H206 H 0.60937 0.07145 0.00877 0.0
H207 H 0.6009 0.01737 0.03182 0.0
H208 H 0.57202 0.98334 0.03058 0.0
H209 H 0.51209 0.03309 0.04181 0.0
N210 N 0.59138 0.06337 0.04005 0.0
H211 H 0.54095 0.06709 0.04156 0.0
C212 C 0.46849 0.92196 0.06749 0.0
C213 C 0.46868 0.8989 0.07501 0.0
C214 C 0.4607 0.89588 0.09193 0.0
C215 C 0.4527 0.91602 0.10186 0.0
C216 C 0.45253 0.93922 0.09424 0.0
C217 C 0.46006 0.94213 0.07715 0.0
C218 C 0.4581 0.9157 0.03711 0.0
C219 C 0.43282 0.92094 0.03878 0.0
C220 C 0.41544 0.90716 0.02954 0.0
C221 C 0.42318 0.88856 0.01816 0.0
C222 C 0.44849 0.88549 0.01504 0.0
C223 C 0.46578 0.89887 0.02454 0.0
C224 C 0.49132 0.94431 0.04545 0.0
C225 C 0.51633 0.943 0.04968 0.0
C226 C 0.53191 0.96262 0.04666 0.0
C227 C 0.52291 0.98404 0.03903 0.0
C228 C 0.49771 0.98524 0.0346 0.0
C229 C 0.48198 0.96561 0.03793 0.0
C230 C 0.59868 0.06724 0.05784 0.0
C231 C 0.62378 0.06989 0.06176 0.0
C232 C 0.63143 0.07612 0.0785 0.0
C233 C 0.61401 0.07994 0.09163 0.0
C234 C 0.58892 0.07655 0.08783 0.0
C235 C 0.58131 0.07032 0.07115 0.0
C236 C 0.58834 0.0854 0.03027 0.0
C237 C 0.57593 0.1059 0.03699 0.0
C238 C 0.57733 0.12827 0.02869 0.0
C239 C 0.59044 0.13058 0.01313 0.0
C240 C 0.60089 0.10943 0.00568 0.0
C241 C 0.60004 0.08717 0.01427 0.0
C242 C 0.57323 0.04459 0.03714 0.0
C243 C 0.58144 0.02089 0.03364 0.0
C244 C 0.56488 0.00145 0.03316 0.0
C245 C 0.5397 0.00524 0.03662 0.0
C246 C 0.53127 0.02934 0.03907 0.0
C247 C 0.54783 0.04887 0.03911 0.0
H248 H 0.09464 0.50195 0.919 0.0
N249 N 0.08537 0.52933 0.94678 0.0
H250 H 0.10093 0.51571 0.88927 0.0
H251 H 0.08182 0.57636 0.93526 0.0
H252 H 0.08735 0.58997 0.90571 0.0
H253 H 0.08239 0.57111 0.96652 0.0
H254 H 0.11716 0.59125 0.98112 0.0
H255 H 0.12921 0.51041 0.95301 0.0
H256 H 0.16387 0.53011 0.96781 0.0
H257 H 0.06923 0.48913 0.96173 0.0
H258 H 0.04585 0.56083 0.94645 0.0
H259 H 0.02672 0.47882 0.96891 0.0
H260 H 0.00352 0.55027 0.95209 0.0
H261 H 0.91013 0.4412 0.94169 0.0
H262 H 0.90287 0.42384 0.91311 0.0
H263 H 0.89538 0.49631 0.89248 0.0
H264 H 0.90255 0.5137 0.92141 0.0
H265 H 0.86761 0.51211 0.95632 0.0
H266 H 0.8319 0.49585 0.97142 0.0
H267 H 0.875 0.43356 0.98697 0.0
H268 H 0.911 0.45048 0.9722 0.0
H269 H 0.94863 0.45737 0.95066 0.0
H270 H 0.99162 0.46797 0.95417 0.0
H271 H 0.97066 0.54134 0.96927 0.0
N272 N 0.90991 0.48974 0.95063 0.0
H273 H 0.9275 0.53088 0.96414 0.0
C274 C 0.08744 0.53794 0.92933 0.0
C275 C 0.09285 0.52115 0.91612 0.0
C276 C 0.09651 0.52902 0.89923 0.0
C277 C 0.09449 0.55387 0.89525 0.0
C278 C 0.0887 0.57067 0.90842 0.0
C279 C 0.08547 0.56285 0.92533 0.0
C280 C 0.10339 0.53931 0.95855 0.0
C281 C 0.09996 0.56183 0.96709 0.0
C282 C 0.11982 0.57329 0.97546 0.0
C283 C 0.14329 0.5624 0.97534 0.0
C284 C 0.14609 0.53911 0.96785 0.0
C285 C 0.12632 0.52774 0.95954 0.0
C286 C 0.06078 0.52544 0.95315 0.0
C287 C 0.05493 0.50268 0.96002 0.0
C288 C 0.03054 0.49677 0.96393 0.0
C289 C 0.01134 0.51344 0.96074 0.0
C290 C 0.01757 0.53687 0.9549 0.0
C291 C 0.04202 0.54291 0.95137 0.0
C292 C 0.90697 0.47889 0.9337 0.0
C293 C 0.90714 0.45345 0.93108 0.0
C294 C 0.90306 0.4435 0.91467 0.0
C295 C 0.89856 0.45871 0.90056 0.0
C296 C 0.89858 0.48413 0.90316 0.0
C297 C 0.90281 0.49409 0.91959 0.0
C298 C 0.89173 0.48241 0.96296 0.0
C299 C 0.86953 0.49536 0.96346 0.0
C300 C 0.84914 0.48591 0.97192 0.0
C301 C 0.85053 0.46315 0.98 0.0
C302 C 0.87339 0.4511 0.98079 0.0
C303 C 0.89393 0.4607 0.97233 0.0
C304 C 0.9348 0.49363 0.95657 0.0
C305 C 0.95316 0.47569 0.95481 0.0
C306 C 0.97797 0.48179 0.95708 0.0
C307 C 0.98494 0.50579 0.96163 0.0
C308 C 0.96622 0.52294 0.96514 0.0
C309 C 0.94147 0.51694 0.96245 0.0
H310 H 0.48436 0.40278 0.17523 0.0
N311 N 0.51303 0.41051 0.20274 0.0
H312 H 0.49729 0.39711 0.14507 0.0
H313 H 0.56044 0.41111 0.19049 0.0
H314 H 0.57326 0.40554 0.16076 0.0
H315 H 0.55524 0.41694 0.22223 0.0
H316 H 0.57872 0.38423 0.23575 0.0
H317 H 0.49715 0.36618 0.20957 0.0
H318 H 0.52028 0.3335 0.22344 0.0
H319 H 0.47199 0.42933 0.2159 0.0
H320 H 0.54612 0.44842 0.20168 0.0
H321 H 0.46217 0.47255 0.22016 0.0
H322 H 0.53628 0.49116 0.20475 0.0
H323 H 0.42959 0.58996 0.18773 0.0
H324 H 0.41259 0.5973 0.15908 0.0
H325 H 0.48529 0.59048 0.13719 0.0
H326 H 0.50248 0.58381 0.16613 0.0
H327 H 0.50262 0.62655 0.19985 0.0
H328 H 0.48859 0.66326 0.21506 0.0
H329 H 0.4249 0.62407 0.23321 0.0
H330 H 0.43972 0.58709 0.21843 0.0
H331 H 0.44508 0.54745 0.19556 0.0
H332 H 0.45395 0.50514 0.20211 0.0
H333 H 0.52651 0.52594 0.22033 0.0
N334 N 0.47857 0.58495 0.19604 0.0
H335 H 0.51795 0.56809 0.21239 0.0
C336 C 0.52127 0.40746 0.18515 0.0
C337 C 0.50377 0.40344 0.17208 0.0
C338 C 0.51117 0.40014 0.15494 0.0
C339 C 0.53627 0.40105 0.15059 0.0
C340 C 0.55377 0.40514 0.16369 0.0
C341 C 0.5464 0.40823 0.18077 0.0
C342 C 0.52444 0.3939 0.21465 0.0
C343 C 0.54713 0.39898 0.22281 0.0
C344 C 0.56058 0.38024 0.23059 0.0
C345 C 0.55154 0.35623 0.23032 0.0
C346 C 0.52792 0.35174 0.22352 0.0
C347 C 0.51457 0.37041 0.21577 0.0
C348 C 0.50958 0.4355 0.20825 0.0
C349 C 0.48625 0.44281 0.21397 0.0
C350 C 0.48062 0.46756 0.21619 0.0
C351 C 0.49824 0.48556 0.21249 0.0
C352 C 0.52218 0.47802 0.20791 0.0
C353 C 0.52785 0.45332 0.20596 0.0
C354 C 0.46752 0.58676 0.17913 0.0
C355 C 0.44198 0.59005 0.17686 0.0
C356 C 0.43221 0.59419 0.16046 0.0
C357 C 0.44767 0.5946 0.146 0.0
C358 C 0.47299 0.59015 0.14816 0.0
C359 C 0.48281 0.5864 0.16461 0.0
C360 C 0.47212 0.60432 0.20786 0.0
C361 C 0.486 0.62577 0.20751 0.0
C362 C 0.4778 0.64673 0.21604 0.0
C363 C 0.45531 0.64671 0.22498 0.0
C364 C 0.44226 0.62468 0.2264 0.0
C365 C 0.45066 0.60356 0.21794 0.0
C366 C 0.48123 0.56083 0.20298 0.0
C367 C 0.46283 0.54298 0.20105 0.0
C368 C 0.46789 0.51868 0.20504 0.0
C369 C 0.49122 0.51184 0.21144 0.0
C370 C 0.50865 0.53028 0.2149 0.0
C371 C 0.50374 0.55444 0.21055 0.0
H372 H 0.39349 0.96486 0.44408 0.0
N373 N 0.43674 0.95654 0.46179 0.0
H374 H 0.38383 0.95218 0.41487 0.0
H375 H 0.46568 0.93241 0.43972 0.0
H376 H 0.45662 0.92084 0.40974 0.0
H377 H 0.4244 0.91491 0.47651 0.0
H378 H 0.38547 0.90562 0.49083 0.0
H379 H 0.40334 0.99074 0.47415 0.0
H380 H 0.36482 0.98153 0.48841 0.0
H381 H 0.42396 0.00033 0.44742 0.0
H382 H 0.47965 0.96424 0.47766 0.0
H383 H 0.4497 0.03648 0.44587 0.0
H384 H 0.50592 0.00052 0.4759 0.0
H385 H 0.54348 0.13571 0.42424 0.0
H386 H 0.56037 0.13775 0.39495 0.0
H387 H 0.59044 0.06531 0.40049 0.0
H388 H 0.5733 0.06328 0.42954 0.0
H389 H 0.58015 0.06529 0.45967 0.0
H390 H 0.61929 0.07393 0.47425 0.0
H391 H 0.60342 0.15095 0.47289 0.0
H392 H 0.5638 0.14225 0.45872 0.0
H393 H 0.51563 0.07754 0.4245 0.0
H394 H 0.48755 0.04462 0.43032 0.0
H395 H 0.5103 0.04498 0.48371 0.0
N396 N 0.54817 0.09948 0.44663 0.0
H397 H 0.5388 0.07812 0.47801 0.0
C398 C 0.43033 0.9492 0.44434 0.0
C399 C 0.40735 0.95496 0.43689 0.0
C400 C 0.40192 0.94797 0.41996 0.0
C401 C 0.41945 0.93555 0.40984 0.0
C402 C 0.44251 0.93003 0.41722 0.0
C403 C 0.4478 0.93672 0.43431 0.0
C404 C 0.41692 0.95336 0.47399 0.0
C405 C 0.41183 0.92967 0.4796 0.0
C406 C 0.38958 0.92439 0.48776 0.0
C407 C 0.37197 0.94281 0.49044 0.0
C408 C 0.37793 0.96692 0.48622 0.0
C409 C 0.40018 0.97221 0.47811 0.0
C410 C 0.44995 0.97939 0.46264 0.0
C411 C 0.4416 0.00024 0.45394 0.0
C412 C 0.45643 0.02092 0.45297 0.0
C413 C 0.47999 0.02124 0.46056 0.0
C414 C 0.4878 0.00088 0.47 0.0
C415 C 0.47289 0.98015 0.47099 0.0
C416 C 0.55724 0.09952 0.4291 0.0
C417 C 0.55356 0.12026 0.41904 0.0
C418 C 0.56315 0.12135 0.40236 0.0
C419 C 0.57681 0.10173 0.39553 0.0
C420 C 0.58027 0.08081 0.40554 0.0
C421 C 0.5705 0.07965 0.42214 0.0
C422 C 0.5688 0.10321 0.45824 0.0
C423 C 0.58464 0.08399 0.46297 0.0
C424 C 0.60699 0.0889 0.4713 0.0
C425 C 0.61419 0.11307 0.47462 0.0
C426 C 0.5981 0.13217 0.47049 0.0
C427 C 0.57551 0.12723 0.46252 0.0
C428 C 0.53142 0.0794 0.45037 0.0
C429 C 0.51536 0.07034 0.43744 0.0
C430 C 0.49877 0.05166 0.44083 0.0
C431 C 0.497 0.04188 0.45741 0.0
C432 C 0.51179 0.05169 0.47067 0.0
C433 C 0.52837 0.07057 0.4673 0.0
H434 H 0.04541 0.90847 0.69567 0.0
N435 N 0.06766 0.94581 0.71355 0.0
H436 H 0.05261 0.89676 0.66578 0.0
H437 H 0.09809 0.96678 0.69146 0.0
H438 H 0.10702 0.95401 0.66182 0.0
H439 H 0.11311 0.93553 0.72343 0.0
H440 H 0.12745 0.89807 0.73715 0.0
H441 H 0.03783 0.91224 0.72982 0.0
H442 H 0.05213 0.87519 0.74375 0.0
H443 H 0.0186 0.93436 0.70894 0.0
H444 H 0.06833 0.99152 0.72512 0.0
H445 H 0.98417 0.96233 0.71097 0.0
H446 H 0.03379 0.02023 0.72644 0.0
H447 H 0.88222 0.06366 0.6976 0.0
H448 H 0.86987 0.07694 0.66875 0.0
H449 H 0.94616 0.09064 0.65647 0.0
H450 H 0.95824 0.07765 0.6853 0.0
H451 H 0.96413 0.09838 0.7119 0.0
H452 H 0.96079 0.13982 0.72354 0.0
H453 H 0.88882 0.12288 0.74373 0.0
H454 H 0.89247 0.08132 0.73217 0.0
H455 H 0.93648 0.02417 0.69156 0.0
H456 H 0.96967 0.99505 0.69426 0.0
H457 H 0.99564 0.03264 0.74008 0.0
N458 N 0.9273 0.06412 0.71134 0.0
H459 H 0.96281 0.0624 0.73717 0.0
C460 C 0.07088 0.93892 0.6957 0.0
C461 C 0.05834 0.91898 0.68824 0.0
C462 C 0.06287 0.91198 0.67117 0.0
C463 C 0.0805 0.92434 0.66129 0.0
C464 C 0.09297 0.94432 0.66884 0.0
C465 C 0.08804 0.95159 0.68582 0.0
C466 C 0.07446 0.92688 0.72545 0.0
C467 C 0.09966 0.92281 0.72833 0.0
C468 C 0.10783 0.90141 0.73606 0.0
C469 C 0.09085 0.88379 0.74138 0.0
C470 C 0.06554 0.88863 0.73982 0.0
C471 C 0.05736 0.9099 0.73178 0.0
C472 C 0.04628 0.96073 0.71705 0.0
C473 C 0.02221 0.95279 0.71324 0.0
C474 C 0.0024 0.96902 0.71417 0.0
C475 C 0.00618 0.99369 0.71861 0.0
C476 C 0.03011 0.00135 0.72312 0.0
C477 C 0.0499 0.98499 0.72236 0.0
C478 C 0.92104 0.06965 0.69364 0.0
C479 C 0.89623 0.06925 0.68857 0.0
C480 C 0.88926 0.0768 0.6721 0.0
C481 C 0.90704 0.08498 0.66037 0.0
C482 C 0.93199 0.08483 0.66532 0.0
C483 C 0.93894 0.0773 0.68178 0.0
C484 C 0.92843 0.08669 0.72116 0.0
C485 C 0.94786 0.1034 0.71913 0.0
C486 C 0.94587 0.12715 0.72572 0.0
C487 C 0.9244 0.13474 0.73436 0.0
C488 C 0.90569 0.11758 0.73727 0.0
C489 C 0.90772 0.09382 0.7307 0.0
C490 C 0.94773 0.047 0.71329 0.0
C491 C 0.94958 0.02675 0.70199 0.0
C492 C 0.96842 0.00965 0.70375 0.0
C493 C 0.9856 0.01161 0.71729 0.0
C494 C 0.98315 0.03097 0.72921 0.0
C495 C 0.96429 0.04823 0.7274 0.0
C496 C 0.39723 0.64766 0.02714 0.0
O497 O 0.41496 0.65149 0.01689 0.0
Cd498 Cd 0.41061 0.66451 0.98782 0.0
O499 O 0.37495 0.65053 0.02223 0.0
Cd500 Cd 0.35236 0.66285 0.99547 0.0
C501 C 0.37954 0.71841 0.99549 0.0
O502 O 0.37856 0.64008 0.97551 0.0
O503 O 0.35255 0.66456 0.96381 0.0
O504 O 0.32147 0.63252 0.003 0.0
C505 C 0.36899 0.64836 0.96185 0.0
O506 O 0.39899 0.70717 0.99082 0.0
C507 C 0.30296 0.64622 0.00051 0.0
O508 O 0.35983 0.70682 -0.00117 0.0
O509 O 0.30744 0.66801 0.99612 0.0
C510 C 0.40348 0.88516 0.22501 0.0
O511 O 0.42051 0.88712 0.23622 0.0
Cd512 Cd 0.417 0.87352 0.26534 0.0
O513 O 0.38229 0.87707 0.2291 0.0
Cd514 Cd 0.35997 0.86408 0.25549 0.0
C515 C 0.3969 0.81443 0.25797 0.0
O516 O 0.38027 0.89181 0.27587 0.0
O517 O 0.35758 0.86399 0.28707 0.0
O518 O 0.32551 0.88852 0.24512 0.0
C519 C 0.37113 0.88257 0.28929 0.0
O520 O 0.41355 0.82909 0.26329 0.0
C521 C 0.30912 0.87261 0.24801 0.0
O522 O 0.37582 0.82235 0.25334 0.0
O523 O 0.31649 0.85227 0.25379 0.0
C524 C 0.12386 0.89869 0.47612 0.0
O525 O 0.12107 0.91574 0.48716 0.0
Cd526 Cd 0.13534 0.91257 0.5164 0.0
O527 O 0.13279 0.8782 0.48057 0.0
Cd528 Cd 0.14623 0.85773 0.50742 0.0
C529 C 0.19557 0.8946 0.50998 0.0
O530 O 0.11799 0.87647 0.52827 0.0
O531 O 0.15007 0.85885 0.53888 0.0
O532 O 0.12153 0.82256 0.49873 0.0
C533 C 0.1296 0.86936 0.54151 0.0
O534 O 0.18054 0.91072 0.51554 0.0
C535 C 0.13854 0.80693 0.50067 0.0
O536 O 0.18788 0.87382 0.50481 0.0
O537 O 0.15947 0.815 0.50543 0.0
C538 C 0.1345 0.61252 0.77587 0.0
O539 O 0.13682 0.59649 0.76401 0.0
Cd540 Cd 0.15182 0.60396 0.73548 0.0
O541 O 0.13953 0.63482 0.77303 0.0
Cd542 Cd 0.15354 0.65963 0.74828 0.0
C543 C 0.20783 0.62919 0.74567 0.0
O544 O 0.13038 0.63891 0.72554 0.0
O545 O 0.15888 0.663 0.7168 0.0
O546 O 0.12383 0.69206 0.75408 0.0
C547 C 0.14099 0.64905 0.71301 0.0
O548 O 0.19596 0.61223 0.73797 0.0
C549 C 0.13959 0.70898 0.75593 0.0
O550 O 0.19682 0.64767 0.75213 0.0
O551 O 0.16213 0.70286 0.7549 0.0
C552 C 0.87165 0.13283 0.4774 0.0
O553 O 0.86961 0.11324 0.48584 0.0
Cd554 Cd 0.84999 0.11116 0.51338 0.0
O555 O 0.86395 0.15299 0.48374 0.0
Cd556 Cd 0.84528 0.16922 0.51085 0.0
C557 C 0.79305 0.13606 0.50497 0.0
O558 O 0.86833 0.14319 0.53037 0.0
O559 O 0.83973 0.16504 0.54211 0.0
O560 O 0.8732 0.20371 0.51001 0.0
C561 C 0.85738 0.15012 0.54399 0.0
O562 O 0.80597 0.11718 0.50799 0.0
C563 C 0.85669 0.22003 0.50901 0.0
O564 O 0.80278 0.15717 0.50481 0.0
O565 O 0.83446 0.2128 0.50885 0.0
C566 C 0.89691 0.38351 0.71985 0.0
O567 O 0.91361 0.38488 0.73134 0.0
Cd568 Cd 0.90884 0.37221 0.76051 0.0
O569 O 0.87527 0.37622 0.72358 0.0
Cd570 Cd 0.85257 0.36392 0.75007 0.0
C571 C 0.88834 0.31338 0.75413 0.0
O572 O 0.87235 0.3922 0.77019 0.0
O573 O 0.85044 0.36413 0.78181 0.0
O574 O 0.81698 0.38917 0.74308 0.0
C575 C 0.86294 0.3835 0.7837 0.0
O576 O 0.9053 0.32768 0.75945 0.0
C577 C 0.80139 0.37194 0.74302 0.0
O578 O 0.86766 0.32184 0.74915 0.0
O579 O 0.80972 0.35061 0.74552 0.0
C580 C 0.61561 0.39662 0.96937 0.0
O581 O 0.61158 0.41398 0.97997 0.0
Cd582 Cd 0.62248 0.41193 0.00988 0.0
O583 O 0.62446 0.37641 0.97452 0.0
Cd584 Cd 0.636 0.35723 0.00238 0.0
C585 C 0.68382 0.39601 0.00705 0.0
O586 O 0.60337 0.37563 0.02011 0.0
O587 O 0.63242 0.35729 0.03383 0.0
O588 O 0.61647 0.32066 0.99008 0.0
C589 C 0.61164 0.36779 0.03431 0.0
O590 O 0.66764 0.41184 0.01122 0.0
C591 C 0.63211 0.30592 0.99628 0.0
O592 O 0.67739 0.37465 0.00226 0.0
O593 O 0.65005 0.31509 0.00466 0.0
C594 C 0.65174 0.11578 0.27714 0.0
O595 O 0.65522 0.09706 0.26766 0.0
Cd596 Cd 0.67296 0.09963 0.23937 0.0
O597 O 0.65665 0.13697 0.27154 0.0
Cd598 Cd 0.67112 0.15729 0.2451 0.0
C599 C 0.72694 0.13046 0.24857 0.0
O600 O 0.65025 0.13026 0.22443 0.0
O601 O 0.67632 0.15554 0.21374 0.0
O602 O 0.63853 0.18605 0.25209 0.0
C603 C 0.66019 0.13919 0.21116 0.0
O604 O 0.71613 0.11106 0.24343 0.0
C605 C 0.65102 0.2052 0.24957 0.0
O606 O 0.71474 0.14996 0.25143 0.0
O607 O 0.67338 0.20223 0.24517 0.0
C608 C 0.18407 0.93079 0.27227 0.0
C609 C 0.16284 0.92499 0.26275 0.0
C610 C 0.20707 0.92114 0.26771 0.0
C611 C 0.20898 0.90548 0.25312 0.0
C612 C 0.1877 0.89997 0.24318 0.0
C613 C 0.16477 0.90962 0.24823 0.0
C614 C 0.22922 0.92723 0.27881 0.0
C615 C 0.18913 0.88369 0.22738 0.0
C616 C 0.275 0.89971 0.23803 0.0
C617 C 0.28261 0.87854 0.24651 0.0
C618 C 0.25046 0.90773 0.23892 0.0
C619 C 0.23329 0.89448 0.2488 0.0
C620 C 0.24052 0.87228 0.25648 0.0
C621 C 0.26508 0.86447 0.25512 0.0
C622 C 0.24334 0.9312 0.23022 0.0
C623 C 0.22285 0.85773 0.26726 0.0
H624 H 0.18257 0.94231 0.28368 0.0
H625 H 0.14835 0.90516 0.24084 0.0
H626 H 0.23716 0.91026 0.28418 0.0
H627 H 0.2437 0.93588 0.27091 0.0
H628 H 0.22458 0.93976 0.28969 0.0
H629 H 0.17121 0.8824 0.22047 0.0
H630 H 0.20324 0.89067 0.21838 0.0
H631 H 0.19492 0.86509 0.23114 0.0
H632 H 0.28842 0.91053 0.23119 0.0
H633 H 0.27084 0.84807 0.26169 0.0
H634 H 0.24097 0.94579 0.24011 0.0
H635 H 0.22551 0.9291 0.22332 0.0
H636 H 0.25754 0.93719 0.2209 0.0
H637 H 0.21878 0.86795 0.27936 0.0
H638 H 0.23045 0.8396 0.27069 0.0
H639 H 0.20514 0.85502 0.26032 0.0
C640 C 0.09746 0.67439 0.52151 0.0
C641 C 0.10192 0.6559 0.50926 0.0
C642 C 0.10346 0.69871 0.5182 0.0
C643 C 0.11417 0.70478 0.5022 0.0
C644 C 0.11819 0.68634 0.48958 0.0
C645 C 0.11212 0.66205 0.49329 0.0
C646 C 0.099 0.7178 0.53206 0.0
C647 C 0.12935 0.6922 0.47232 0.0
C648 C 0.11066 0.77231 0.49264 0.0
C649 C 0.13362 0.78049 0.49873 0.0
C650 C 0.10459 0.74744 0.4927 0.0
C651 C 0.12181 0.7304 0.49914 0.0
C652 C 0.14549 0.7384 0.50445 0.0
C653 C 0.15114 0.76336 0.50412 0.0
C654 C 0.07926 0.73959 0.48675 0.0
C655 C 0.16435 0.7208 0.51144 0.0
H656 H 0.09007 0.66973 0.53401 0.0
H657 H 0.11552 0.64782 0.48376 0.0
H658 H 0.11678 0.72607 0.53612 0.0
H659 H 0.08727 0.73265 0.52695 0.0
H660 H 0.08991 0.71015 0.54361 0.0
H661 H 0.12989 0.67606 0.46353 0.0
H662 H 0.11868 0.7069 0.46601 0.0
H663 H 0.14841 0.69904 0.47418 0.0
H664 H 0.09709 0.78542 0.48831 0.0
H665 H 0.16895 0.76954 0.50878 0.0
H666 H 0.06826 0.73389 0.49803 0.0
H667 H 0.08056 0.72366 0.47784 0.0
H668 H 0.06922 0.75448 0.48012 0.0
H669 H 0.15793 0.71365 0.52397 0.0
H670 H 0.18262 0.72951 0.51345 0.0
H671 H 0.16656 0.70498 0.50253 0.0
C672 C 0.34293 0.58012 0.76114 0.0
C673 C 0.36113 0.59825 0.76263 0.0
C674 C 0.31825 0.5861 0.75775 0.0
C675 C 0.31167 0.61071 0.75494 0.0
C676 C 0.33007 0.62895 0.75535 0.0
C677 C 0.35442 0.62261 0.75954 0.0
C678 C 0.29909 0.56615 0.75778 0.0
C679 C 0.32394 0.65529 0.7518 0.0
C680 C 0.24924 0.61976 0.73362 0.0
C681 C 0.23467 0.6266 0.74774 0.0
C682 C 0.27462 0.61567 0.73562 0.0
C683 C 0.28535 0.61739 0.75227 0.0
C684 C 0.27064 0.62446 0.76655 0.0
C685 C 0.24552 0.62946 0.76404 0.0
C686 C 0.28987 0.60923 0.71997 0.0
C687 C 0.28119 0.62573 0.78459 0.0
H688 H 0.34779 0.56117 0.76292 0.0
H689 H 0.36797 0.63698 0.76088 0.0
H690 H 0.28495 0.57028 0.7677 0.0
H691 H 0.28951 0.56521 0.74513 0.0
H692 H 0.30717 0.54796 0.76048 0.0
H693 H 0.34072 0.66668 0.75051 0.0
H694 H 0.31288 0.6567 0.73978 0.0
H695 H 0.31265 0.66291 0.76247 0.0
H696 H 0.24075 0.6177 0.721 0.0
H697 H 0.23409 0.63451 0.77495 0.0
H698 H 0.29654 0.59017 0.72087 0.0
H699 H 0.30634 0.62117 0.71939 0.0
H700 H 0.27926 0.61107 0.70777 0.0
H701 H 0.28849 0.60758 0.78822 0.0
H702 H 0.26726 0.63149 0.79429 0.0
H703 H 0.2968 0.63873 0.78515 0.0
C704 C 0.39302 0.85618 0.02493 0.0
C705 C 0.406 0.86914 0.01243 0.0
C706 C 0.38317 0.8331 0.02114 0.0
C707 C 0.38606 0.82305 0.00436 0.0
C708 C 0.39633 0.83746 0.99116 0.0
C709 C 0.40653 0.86027 0.99542 0.0
C710 C 0.37262 0.81835 0.03567 0.0
C711 C 0.39898 0.82776 0.97298 0.0
C712 C 0.40302 0.75618 0.00211 0.0
C713 C 0.38056 0.74517 -0.00231 0.0
C714 C 0.40484 0.78144 0.00438 0.0
C715 C 0.38379 0.79625 0.00174 0.0
C716 C 0.36106 0.78532 0.99705 0.0
C717 C 0.35962 0.75978 0.9953 0.0
C718 C 0.42935 0.79224 0.00978 0.0
C719 C 0.33846 0.80061 0.99367 0.0
H720 H 0.39273 0.86292 0.03814 0.0
H721 H 0.41641 0.8704 0.98572 0.0
H722 H 0.35622 0.80789 0.03133 0.0
H723 H 0.38665 0.80504 0.04007 0.0
H724 H 0.36738 0.83008 0.04685 0.0
H725 H 0.40195 0.84269 0.96366 0.0
H726 H 0.41507 0.81528 0.97232 0.0
H727 H 0.38244 0.81722 0.96899 0.0
H728 H 0.41919 0.74492 0.00411 0.0
H729 H 0.34228 0.75128 0.99173 0.0
H730 H 0.42722 0.80301 0.0219 0.0
H731 H 0.43604 0.80482 -0.00026 0.0
H732 H 0.44365 0.77807 0.01189 0.0
H733 H 0.33408 0.81203 0.00515 0.0
H734 H 0.32211 0.78929 0.99035 0.0
H735 H 0.34208 0.8132 0.98288 0.0
C736 C 0.16565 0.58861 0.9972 0.0
C737 C 0.16535 0.57608 0.98132 0.0
C738 C 0.18675 0.60147 0.0027 0.0
C739 C 0.20779 0.60198 0.99194 0.0
C740 C 0.20735 0.58964 0.9758 0.0
C741 C 0.18619 0.57683 0.97073 0.0
C742 C 0.18666 0.61427 0.02003 0.0
C743 C 0.22925 0.58994 0.96383 0.0
C744 C 0.25785 0.65 0.99435 0.0
C745 C 0.27753 0.63656 0.00117 0.0
C746 C 0.23442 0.63949 0.99232 0.0
C747 C 0.23058 0.61506 -0.00262 0.0
C748 C 0.24991 0.60207 0.00545 0.0
C749 C 0.2732 0.61293 0.00717 0.0
C750 C 0.21431 0.65394 0.98362 0.0
C751 C 0.24649 0.5761 0.01122 0.0
H752 H 0.14954 0.58804 0.0054 0.0
H753 H 0.18584 0.56759 0.95829 0.0
H754 H 0.20134 0.60658 0.02837 0.0
H755 H 0.19078 0.63392 0.01846 0.0
H756 H 0.16871 0.61248 0.02673 0.0
H757 H 0.22571 0.57979 0.95158 0.0
H758 H 0.23414 0.60902 0.9607 0.0
H759 H 0.24548 0.58169 0.97028 0.0
H760 H 0.26103 0.66831 0.98975 0.0
H761 H 0.28826 0.60253 0.01263 0.0
H762 H 0.19671 0.65228 0.99072 0.0
H763 H 0.21122 0.64654 0.9704 0.0
H764 H 0.21909 0.67357 0.98265 0.0
H765 H 0.22908 0.57422 0.01852 0.0
H766 H 0.26202 0.56981 0.01943 0.0
H767 H 0.24524 0.56388 -0.00026 0.0
C768 C 0.44583 0.69081 0.22103 0.0
C769 C 0.44473 0.67008 0.23142 0.0
C770 C 0.43635 0.71324 0.22669 0.0
C771 C 0.42527 0.71504 0.24315 0.0
C772 C 0.42355 0.69411 0.2536 0.0
C773 C 0.43332 0.67181 0.2476 0.0
C774 C 0.43849 0.7351 0.21511 0.0
C775 C 0.41178 0.69537 0.27118 0.0
C776 C 0.4261 0.77944 0.26119 0.0
C777 C 0.40282 0.7881 0.2562 0.0
C778 C 0.43312 0.75523 0.25792 0.0
C779 C 0.41646 0.73922 0.24946 0.0
C780 C 0.39245 0.7474 0.24527 0.0
C781 C 0.38591 0.77177 0.24867 0.0
C782 C 0.4589 0.7472 0.26261 0.0
C783 C 0.37412 0.7308 0.23634 0.0
H784 H 0.45404 0.68947 0.20833 0.0
H785 H 0.43242 0.65585 0.25568 0.0
H786 H 0.41998 0.74292 0.21259 0.0
H787 H 0.44965 0.74948 0.22159 0.0
H788 H 0.4472 0.73048 0.20254 0.0
H789 H 0.41068 0.6772 0.27731 0.0
H790 H 0.42255 0.70775 0.27975 0.0
H791 H 0.39292 0.70307 0.27019 0.0
H792 H 0.43924 0.7918 0.26718 0.0
H793 H 0.36781 0.7782 0.24489 0.0
H794 H 0.46971 0.74409 0.25066 0.0
H795 H 0.45842 0.72972 0.26964 0.0
H796 H 0.46866 0.76098 0.27072 0.0
H797 H 0.38017 0.72721 0.22289 0.0
H798 H 0.35535 0.73888 0.23596 0.0
H799 H 0.3732 0.71297 0.24291 0.0
C800 C 0.32659 0.9455 0.48593 0.0
C801 C 0.34648 0.93645 0.49552 0.0
C802 C 0.30239 0.93825 0.48937 0.0
C803 C 0.29791 0.92166 0.50284 0.0
C804 C 0.31784 0.91283 0.51284 0.0
C805 C 0.34197 0.9202 0.50896 0.0
C806 C 0.28169 0.94786 0.47827 0.0
C807 C 0.31369 0.89539 0.52745 0.0
C808 C 0.23169 0.92061 0.51826 0.0
C809 C 0.22219 0.90041 0.50917 0.0
C810 C 0.2566 0.92709 0.51695 0.0
C811 C 0.27232 0.91327 0.50607 0.0
C812 C 0.26301 0.89249 0.4972 0.0
C813 C 0.23809 0.88621 0.49895 0.0
C814 C 0.26594 0.94916 0.5268 0.0
C815 C 0.27914 0.87745 0.48532 0.0
H816 H 0.33004 0.95768 0.4753 0.0
H817 H 0.35733 0.91322 0.5164 0.0
H818 H 0.2723 0.93248 0.47155 0.0
H819 H 0.26775 0.95719 0.48644 0.0
H820 H 0.28828 0.96088 0.46845 0.0
H821 H 0.331 0.89116 0.53451 0.0
H822 H 0.3002 0.90321 0.5367 0.0
H823 H 0.30577 0.8781 0.52235 0.0
H824 H 0.21959 0.93152 0.52634 0.0
H825 H 0.2309 0.87058 0.49188 0.0
H826 H 0.271 0.96367 0.51762 0.0
H827 H 0.28281 0.94446 0.53418 0.0
H828 H 0.25199 0.95661 0.53589 0.0
H829 H 0.28509 0.88872 0.47431 0.0
H830 H 0.26948 0.86105 0.48016 0.0
H831 H 0.29601 0.87151 0.49221 0.0
C832 C 0.11381 0.84573 0.73453 0.0
C833 C 0.09951 0.85922 0.74624 0.0
C834 C 0.12058 0.8216 0.73794 0.0
C835 C 0.11334 0.81086 0.75365 0.0
C836 C 0.09964 0.82473 0.76582 0.0
C837 C 0.09251 0.84869 0.76184 0.0
C838 C 0.13465 0.80732 0.72441 0.0
C839 C 0.09217 0.81412 0.78289 0.0
C840 C 0.10846 0.7419 0.75192 0.0
C841 C 0.13193 0.73481 0.75758 0.0
C842 C 0.10184 0.7666 0.75117 0.0
C843 C 0.11889 0.78465 0.75666 0.0
C844 C 0.14207 0.77752 0.76339 0.0
C845 C 0.14847 0.75267 0.76354 0.0
C846 C 0.07717 0.7734 0.74352 0.0
C847 C 0.16046 0.79618 0.76982 0.0
H848 H 0.11893 0.85383 0.72237 0.0
H849 H 0.08147 0.85921 0.77087 0.0
H850 H 0.15209 0.80024 0.72993 0.0
H851 H 0.12362 0.79134 0.72007 0.0
H852 H 0.13912 0.81847 0.71298 0.0
H853 H 0.08373 0.828 0.7916 0.0
H854 H 0.07869 0.79921 0.78071 0.0
H855 H 0.10843 0.80609 0.78944 0.0
H856 H 0.09564 0.72818 0.74722 0.0
H857 H 0.16657 0.74726 0.76806 0.0
H858 H 0.08001 0.78333 0.7313 0.0
H859 H 0.06704 0.7858 0.7524 0.0
H860 H 0.06549 0.75718 0.74077 0.0
H861 H 0.16791 0.80643 0.75876 0.0
H862 H 0.17611 0.78763 0.77679 0.0
H863 H 0.15138 0.80957 0.77857 0.0
C864 C 0.65631 0.40468 0.73993 0.0
C865 C 0.64755 0.39986 0.75652 0.0
C866 C 0.68069 0.39891 0.73534 0.0
C867 C 0.69677 0.38884 0.74783 0.0
C868 C 0.68779 0.38365 0.76452 0.0
C869 C 0.66322 0.38897 0.76858 0.0
C870 C 0.6894 0.40408 0.7173 0.0
C871 C 0.70442 0.37346 0.77835 0.0
C872 C 0.75794 0.35803 0.73801 0.0
C873 C 0.77463 0.37685 0.74183 0.0
C874 C 0.73238 0.36207 0.73881 0.0
C875 C 0.7234 0.38526 0.74404 0.0
C876 C 0.7402 0.40452 0.7473 0.0
C877 C 0.76558 0.40016 0.74593 0.0
C878 C 0.71503 0.34128 0.73473 0.0
C879 C 0.73145 0.42938 0.75327 0.0
H880 H 0.64411 0.41307 0.73062 0.0
H881 H 0.6565 0.38555 0.78148 0.0
H882 H 0.70305 0.41911 0.71764 0.0
H883 H 0.69875 0.3878 0.71174 0.0
H884 H 0.674 0.40935 0.70862 0.0
H885 H 0.69442 0.37 0.79056 0.0
H886 H 0.71289 0.35612 0.77385 0.0
H887 H 0.71963 0.38645 0.78111 0.0
H888 H 0.76485 0.34003 0.7347 0.0
H889 H 0.7784 0.41475 0.74897 0.0
H890 H 0.70007 0.34742 0.726 0.0
H891 H 0.70628 0.33497 0.74678 0.0
H892 H 0.72468 0.32556 0.7286 0.0
H893 H 0.71742 0.43659 0.74424 0.0
H894 H 0.74676 0.44275 0.75434 0.0
H895 H 0.72258 0.42785 0.76609 0.0
C896 C 0.61769 0.16049 -0.00218 0.0
C897 C 0.59511 0.15524 0.0058 0.0
C898 C 0.62386 0.18439 0.99324 0.0
C899 C 0.60753 0.2037 0.99732 0.0
C900 C 0.58422 0.19847 0.00449 0.0
C901 C 0.57809 0.17428 0.00826 0.0
C902 C 0.64849 0.18911 0.98494 0.0
C903 C 0.5664 0.21858 0.00932 0.0
C904 C 0.6354 0.26495 0.00934 0.0
C905 C 0.62816 0.27934 0.99541 0.0
C906 C 0.629 0.24023 0.00999 0.0
C907 C 0.61586 0.22944 0.99604 0.0
C908 C 0.60972 0.2436 0.98148 0.0
C909 C 0.61548 0.26858 0.98151 0.0
C910 C 0.63535 0.22597 0.02596 0.0
C911 C 0.59668 0.23249 0.96606 0.0
H912 H 0.63122 0.14621 0.99589 0.0
H913 H 0.56023 0.17048 0.0138 0.0
H914 H 0.64659 0.20244 0.97436 0.0
H915 H 0.66134 0.19702 0.99465 0.0
H916 H 0.65685 0.1721 0.97967 0.0
H917 H 0.54849 0.21139 0.01392 0.0
H918 H 0.57458 0.2301 0.01972 0.0
H919 H 0.5629 0.23053 -0.00185 0.0
H920 H 0.64499 0.27333 0.02018 0.0
H921 H 0.61 0.27973 0.97069 0.0
H922 H 0.64685 0.20994 0.02251 0.0
H923 H 0.61823 0.21902 0.03194 0.0
H924 H 0.64546 0.23715 0.03571 0.0
H925 H 0.60594 0.21532 0.96199 0.0
H926 H 0.59616 0.24508 0.95495 0.0
H927 H 0.57748 0.22782 0.96954 0.0
C928 C 0.87472 0.12918 0.26054 0.0
C929 C 0.87992 0.11626 0.27562 0.0
C930 C 0.85028 0.13288 0.2551 0.0
C931 C 0.83068 0.12367 0.26511 0.0
C932 C 0.83587 0.11089 0.28045 0.0
C933 C 0.86041 0.10728 0.28548 0.0
C934 C 0.84543 0.14638 0.23858 0.0
C935 C 0.81549 0.10098 0.29157 0.0
C936 C 0.76559 0.14859 0.26109 0.0
C937 C 0.7539 0.12987 0.25168 0.0
C938 C 0.79081 0.14721 0.26512 0.0
C939 C 0.80467 0.12676 0.25945 0.0
C940 C 0.79318 0.1083 0.24938 0.0
C941 C 0.76794 0.11002 0.24569 0.0
C942 C 0.80241 0.16718 0.27598 0.0
C943 C 0.80738 0.08632 0.24296 0.0
H944 H 0.88979 0.13608 0.25288 0.0
H945 H 0.86435 0.0977 0.29733 0.0
H946 H 0.83544 0.13436 0.22931 0.0
H947 H 0.83348 0.16242 0.24116 0.0
H948 H 0.86269 0.15272 0.23242 0.0
H949 H 0.82265 0.09199 0.30334 0.0
H950 H 0.8029 0.11595 0.29556 0.0
H951 H 0.80441 0.08753 0.28409 0.0
H952 H 0.7549 0.164 0.26575 0.0
H953 H 0.75913 0.09558 0.23826 0.0
H954 H 0.81917 0.17422 0.2696 0.0
H955 H 0.80821 0.15971 0.2886 0.0
H956 H 0.78957 0.18264 0.27836 0.0
H957 H 0.82419 0.09216 0.23605 0.0
H958 H 0.79622 0.07458 0.23416 0.0
H959 H 0.81344 0.07523 0.25407 0.0
C960 C 0.90926 0.35457 0.4973 0.0
C961 C 0.90844 0.36677 0.51328 0.0
C962 C 0.89671 0.33244 0.49471 0.0
C963 C 0.88348 0.32214 0.50854 0.0
C964 C 0.88081 0.3355 0.52416 0.0
C965 C 0.89321 0.35774 0.5263 0.0
C966 C 0.89946 0.31909 0.47769 0.0
C967 C 0.86707 0.32514 0.53931 0.0
C968 C 0.84602 0.26378 0.50332 0.0
C969 C 0.86328 0.24617 0.50839 0.0
C970 C 0.85241 0.28863 0.50284 0.0
C971 C 0.87641 0.29594 0.50788 0.0
C972 C 0.89386 0.27817 0.51297 0.0
C973 C 0.88714 0.25353 0.51301 0.0
C974 C 0.83352 0.30702 0.49702 0.0
C975 C 0.91957 0.2852 0.51868 0.0
H976 H 0.92086 0.36163 0.48716 0.0
H977 H 0.8927 0.36696 0.53875 0.0
H978 H 0.91309 0.30416 0.47912 0.0
H979 H 0.88173 0.31073 0.47361 0.0
H980 H 0.90593 0.33137 0.46736 0.0
H981 H 0.86347 0.33918 0.54944 0.0
H982 H 0.84926 0.31712 0.53511 0.0
H983 H 0.8782 0.31032 0.5451 0.0
H984 H 0.82759 0.25814 0.49962 0.0
H985 H 0.90053 0.24002 0.51699 0.0
H986 H 0.84103 0.31798 0.48632 0.0
H987 H 0.82922 0.31986 0.50775 0.0
H988 H 0.81613 0.29824 0.49261 0.0
H989 H 0.92915 0.29485 0.50817 0.0
H990 H 0.93084 0.26914 0.52236 0.0
H991 H 0.91863 0.2979 0.52992 0.0
C992 C 0.64835 0.1092 0.49615 0.0
C993 C 0.63952 0.11838 0.48054 0.0
C994 C 0.67293 0.11303 0.50124 0.0
C995 C 0.68908 0.12564 0.49014 0.0
C996 C 0.6801 0.13504 0.47439 0.0
C997 C 0.65531 0.13154 0.46989 0.0
C998 C 0.68169 0.10329 0.51833 0.0
C999 C 0.69686 0.14803 0.46201 0.0
C1000 C 0.74988 0.15186 0.50619 0.0
C1001 C 0.76642 0.13331 0.5015 0.0
C1002 C 0.72451 0.1493 0.50306 0.0
C1003 C 0.71566 0.12804 0.49456 0.0
C1004 C 0.73235 0.10934 0.4897 0.0
C1005 C 0.7575 0.11205 0.49347 0.0
C1006 C 0.70718 0.16931 0.50885 0.0
C1007 C 0.72373 0.08671 0.48017 0.0
H1008 H 0.63601 0.09903 0.50434 0.0
H1009 H 0.64843 0.13835 0.4577 0.0
H1010 H 0.69555 0.08872 0.51614 0.0
H1011 H 0.69081 0.11799 0.52595 0.0
H1012 H 0.66637 0.09569 0.52605 0.0
H1013 H 0.68687 0.15451 0.45039 0.0
H1014 H 0.70566 0.16392 0.4685 0.0
H1015 H 0.71184 0.13555 0.4578 0.0
H1016 H 0.75674 0.16821 0.51256 0.0
H1017 H 0.7703 0.09777 0.48974 0.0
H1018 H 0.6925 0.16165 0.5171 0.0
H1019 H 0.69801 0.17749 0.49749 0.0
H1020 H 0.71683 0.18401 0.51619 0.0
H1021 H 0.7099 0.07692 0.48797 0.0
H1022 H 0.73912 0.07399 0.47717 0.0
H1023 H 0.71462 0.09187 0.4679 0.0
C1024 C 0.9095 0.16778 0.75455 0.0
C1025 C 0.92053 0.16088 0.73889 0.0
C1026 C 0.90421 0.19237 0.75829 0.0
C1027 C 0.91 0.21043 0.74606 0.0
C1028 C 0.92148 0.20361 0.73037 0.0
C1029 C 0.92659 0.17895 0.72698 0.0
C1030 C 0.8921 0.19898 0.77521 0.0
C1031 C 0.92787 0.22231 0.71696 0.0
C1032 C 0.87568 0.27084 0.74581 0.0
C1033 C 0.89316 0.28675 0.75314 0.0
C1034 C 0.88067 0.24583 0.74386 0.0
C1035 C 0.90365 0.23647 0.74941 0.0
C1036 C 0.92108 0.25226 0.75727 0.0
C1037 C 0.91565 0.2772 0.75902 0.0
C1038 C 0.86161 0.22955 0.73539 0.0
C1039 C 0.94576 0.24294 0.76341 0.0
H1040 H 0.90494 0.15392 0.76385 0.0
H1041 H 0.93469 0.17374 0.71472 0.0
H1042 H 0.90338 0.21269 0.7823 0.0
H1043 H 0.87383 0.20739 0.77276 0.0
H1044 H 0.88951 0.18288 0.78357 0.0
H1045 H 0.93735 0.21408 0.70562 0.0
H1046 H 0.91085 0.23149 0.71242 0.0
H1047 H 0.93997 0.23657 0.72268 0.0
H1048 H 0.85823 0.27799 0.74126 0.0
H1049 H 0.92925 0.28927 0.76479 0.0
H1050 H 0.85744 0.21386 0.74379 0.0
H1051 H 0.86895 0.22204 0.72309 0.0
H1052 H 0.84417 0.2394 0.73261 0.0
H1053 H 0.94318 0.22736 0.77221 0.0
H1054 H 0.95663 0.25726 0.77025 0.0
H1055 H 0.95659 0.23618 0.75223 0.0
C1056 C 0.80687 0.45106 0.97497 0.0
C1057 C 0.82758 0.45114 0.98583 0.0
C1058 C 0.78473 0.4403 0.98001 0.0
C1059 C 0.78316 0.42926 0.99637 0.0
C1060 C 0.80414 0.42876 0.00731 0.0
C1061 C 0.82621 0.43966 0.00186 0.0
C1062 C 0.76289 0.44104 0.96787 0.0
C1063 C 0.80312 0.41714 0.02483 0.0
C1064 C 0.71734 0.42661 0.01212 0.0
C1065 C 0.71017 0.40316 0.00667 0.0
C1066 C 0.74159 0.43478 0.00991 0.0
C1067 C 0.75912 0.41916 0.00203 0.0
C1068 C 0.75244 0.39497 -0.00251 0.0
C1069 C 0.72803 0.38724 -0.00013 0.0
C1070 C 0.748 0.46068 0.01501 0.0
C1071 C 0.77063 0.37772 0.98912 0.0
H1072 H 0.80802 0.45938 0.96238 0.0
H1073 H 0.84222 0.43964 0.01027 0.0
H1074 H 0.75615 0.42229 0.96518 0.0
H1075 H 0.74756 0.45135 0.97397 0.0
H1076 H 0.7674 0.44975 0.95541 0.0
H1077 H 0.82137 0.41705 0.03136 0.0
H1078 H 0.78985 0.4272 0.03313 0.0
H1079 H 0.7964 0.3981 0.02362 0.0
H1080 H 0.70379 0.43898 0.01758 0.0
H1081 H 0.72276 0.36902 0.99575 0.0
H1082 H 0.75079 0.47162 0.00322 0.0
H1083 H 0.76547 0.46119 0.02247 0.0
H1084 H 0.73329 0.46946 0.02284 0.0
H1085 H 0.77427 0.38365 0.97574 0.0
H1086 H 0.76368 0.35868 0.98863 0.0
H1087 H 0.78846 0.37804 0.99617 0.0
C1088 C 0.58175 0.3361 0.25041 0.0
C1089 C 0.56758 0.33547 0.23524 0.0
C1090 C 0.59707 0.31638 0.25478 0.0
C1091 C 0.59838 0.29577 0.24361 0.0
C1092 C 0.58439 0.29529 0.22817 0.0
C1093 C 0.56918 0.31509 0.22421 0.0
C1094 C 0.61162 0.31743 0.2714 0.0
C1095 C 0.5854 0.2738 0.21581 0.0
C1096 C 0.65074 0.24989 0.2432 0.0
C1097 C 0.63934 0.22958 0.25054 0.0
C1098 C 0.63816 0.27219 0.24181 0.0
C1099 C 0.61373 0.27422 0.24805 0.0
C1100 C 0.60284 0.25428 0.25655 0.0
C1101 C 0.61573 0.23217 0.25761 0.0
C1102 C 0.65039 0.29302 0.23262 0.0
C1103 C 0.57695 0.25576 0.26356 0.0
H1104 H 0.58057 0.35185 0.25895 0.0
H1105 H 0.55871 0.31476 0.21227 0.0
H1106 H 0.60581 0.30239 0.27992 0.0
H1107 H 0.63151 0.31481 0.26873 0.0
H1108 H 0.60912 0.33503 0.27843 0.0
H1109 H 0.57384 0.27659 0.20414 0.0
H1110 H 0.60468 0.2705 0.21167 0.0
H1111 H 0.57898 0.2571 0.22235 0.0
H1112 H 0.66902 0.24803 0.23776 0.0
H1113 H 0.60692 0.21662 0.2635 0.0
H1114 H 0.64806 0.31031 0.24001 0.0
H1115 H 0.64151 0.29549 0.21984 0.0
H1116 H 0.67038 0.28972 0.23061 0.0
H1117 H 0.57443 0.27275 0.27126 0.0
H1118 H 0.57241 0.23992 0.27175 0.0
H1119 H 0.56363 0.25627 0.25268 0.0
C1120 C 0.08027 0.91048 0.3774 0.0
C1121 C 0.09292 0.92979 0.36965 0.0
C1122 C 0.08408 0.90484 0.39483 0.0
C1123 C 0.10143 0.9184 0.40466 0.0
C1124 C 0.11438 0.93777 0.39694 0.0
C1125 C 0.1097 0.94346 0.37965 0.0
C1126 C 0.06957 0.88436 0.40273 0.0
C1127 C 0.13333 0.95243 0.40692 0.0
C1128 C 0.09927 0.92016 0.4536 0.0
C1129 C 0.11725 0.90287 0.45789 0.0
C1130 C 0.09334 0.9248 0.43632 0.0
C1131 C 0.10621 0.91235 0.42302 0.0
C1132 C 0.12432 0.89479 0.42728 0.0
C1133 C 0.12939 0.89003 0.44468 0.0
C1134 C 0.07348 0.9432 0.43228 0.0
C1135 C 0.13885 0.88158 0.41347 0.0
H1136 H 0.06755 0.89952 0.36981 0.0
H1137 H 0.11917 0.95879 0.37402 0.0
H1138 H 0.08226 0.86974 0.407 0.0
H1139 H 0.05964 0.89112 0.41432 0.0
H1140 H 0.05596 0.87632 0.39357 0.0
H1141 H 0.14245 0.96634 0.39884 0.0
H1142 H 0.12448 0.96183 0.41803 0.0
H1143 H 0.14766 0.94012 0.41219 0.0
H1144 H 0.0897 0.92996 0.4638 0.0
H1145 H 0.14343 0.87677 0.44795 0.0
H1146 H 0.05948 0.93491 0.42355 0.0
H1147 H 0.08158 0.95892 0.42546 0.0
H1148 H 0.0641 0.95009 0.44408 0.0
H1149 H 0.12621 0.87181 0.40449 0.0
H1150 H 0.15205 0.86821 0.41893 0.0
H1151 H 0.1493 0.89496 0.40575 0.0
C1152 C 0.09974 0.61816 0.61561 0.0
C1153 C 0.11365 0.59845 0.60927 0.0
C1154 C 0.10381 0.62765 0.63227 0.0
C1155 C 0.12214 0.61708 0.64285 0.0
C1156 C 0.13632 0.59726 0.6365 0.0
C1157 C 0.13193 0.58821 0.61976 0.0
C1158 C 0.08844 0.6489 0.63857 0.0
C1159 C 0.15592 0.5854 0.64745 0.0
C1160 C 0.14812 0.65238 0.68125 0.0
C1161 C 0.13526 0.64197 0.69497 0.0
C1162 C 0.14372 0.64478 0.66416 0.0
C1163 C 0.12611 0.62629 0.66075 0.0
C1164 C 0.11275 0.61607 0.67452 0.0
C1165 C 0.11744 0.62407 0.69146 0.0
C1166 C 0.15822 0.65621 0.64978 0.0
C1167 C 0.09384 0.5963 0.6714 0.0
H1168 H 0.08582 0.62635 0.60745 0.0
H1169 H 0.14254 0.57282 0.61498 0.0
H1170 H 0.07786 0.64357 0.65014 0.0
H1171 H 0.10057 0.66429 0.64246 0.0
H1172 H 0.07529 0.65536 0.6286 0.0
H1173 H 0.16563 0.57044 0.64047 0.0
H1174 H 0.1697 0.59917 0.65168 0.0
H1175 H 0.14748 0.57784 0.65925 0.0
H1176 H 0.16188 0.6663 0.68387 0.0
H1177 H 0.10741 0.61596 0.70199 0.0
H1178 H 0.14551 0.6637 0.63994 0.0
H1179 H 0.16968 0.64212 0.64326 0.0
H1180 H 0.17048 0.67108 0.65451 0.0
H1181 H 0.07964 0.60264 0.66215 0.0
H1182 H 0.08454 0.59073 0.68347 0.0
H1183 H 0.10282 0.58003 0.66555 0.0
C1184 C 0.43739 0.62819 0.87166 0.0
C1185 C 0.42646 0.60938 0.8619 0.0
C1186 C 0.42811 0.63489 0.88792 0.0
C1187 C 0.40745 0.62244 0.89458 0.0
C1188 C 0.39631 0.60348 0.88479 0.0
C1189 C 0.4059 0.59724 0.86856 0.0
C1190 C 0.44045 0.65522 0.89801 0.0
C1191 C 0.37423 0.5898 0.89144 0.0
C1192 C 0.39699 0.62374 0.94296 0.0
C1193 C 0.37848 0.64147 0.94461 0.0
C1194 C 0.4066 0.61739 0.92675 0.0
C1195 C 0.39753 0.62911 0.91184 0.0
C1196 C 0.37881 0.64698 0.91341 0.0
C1197 C 0.36946 0.65292 0.92979 0.0
C1198 C 0.42646 0.59814 0.92556 0.0
C1199 C 0.36872 0.65989 0.8978 0.0
H1200 H 0.45341 0.63749 0.86667 0.0
H1201 H 0.39706 0.58299 0.86096 0.0
H1202 H 0.42692 0.66984 0.90096 0.0
H1203 H 0.44735 0.64826 0.91051 0.0
H1204 H 0.45614 0.6633 0.89091 0.0
H1205 H 0.36781 0.57543 0.88226 0.0
H1206 H 0.37885 0.58113 0.9039 0.0
H1207 H 0.35882 0.60266 0.89389 0.0
H1208 H 0.40403 0.61481 0.95436 0.0
H1209 H 0.35519 0.66666 0.93098 0.0
H1210 H 0.44321 0.60586 0.91956 0.0
H1211 H 0.42016 0.58282 0.91717 0.0
H1212 H 0.43153 0.59078 0.93838 0.0
H1213 H 0.38383 0.6694 0.89103 0.0
H1214 H 0.35428 0.67345 0.90124 0.0
H1215 H 0.36075 0.64642 0.88857 0.0
C1216 C 0.42516 0.92657 0.12696 0.0
C1217 C 0.4446 0.91268 0.12004 0.0
C1218 C 0.4174 0.92343 0.14405 0.0
C1219 C 0.42894 0.90558 0.15435 0.0
C1220 C 0.44839 0.89137 0.14745 0.0
C1221 C 0.4562 0.89533 0.1305 0.0
C1222 C 0.39689 0.93924 0.1511 0.0
C1223 C 0.46096 0.87192 0.15796 0.0
C1224 C 0.42721 0.90858 0.20324 0.0
C1225 C 0.40866 0.89169 0.20694 0.0
C1226 C 0.43329 0.91403 0.18614 0.0
C1227 C 0.42095 0.90181 0.17245 0.0
C1228 C 0.40193 0.88501 0.17611 0.0
C1229 C 0.3958 0.88037 0.19333 0.0
C1230 C 0.45325 0.93251 0.18275 0.0
C1231 C 0.38873 0.87123 0.16185 0.0
H1232 H 0.41576 0.93975 0.11898 0.0
H1233 H 0.47159 0.88486 0.12551 0.0
H1234 H 0.38108 0.92772 0.15488 0.0
H1235 H 0.40328 0.94909 0.16287 0.0
H1236 H 0.39035 0.95282 0.14159 0.0
H1237 H 0.47505 0.86171 0.15043 0.0
H1238 H 0.47005 0.88032 0.16941 0.0
H1239 H 0.44713 0.85877 0.16275 0.0
H1240 H 0.43703 0.91755 0.21373 0.0
H1241 H 0.38154 0.8672 0.19616 0.0
H1242 H 0.44648 0.94647 0.17363 0.0
H1243 H 0.46928 0.92336 0.17664 0.0
H1244 H 0.45962 0.94184 0.19476 0.0
H1245 H 0.38073 0.88413 0.15245 0.0
H1246 H 0.37374 0.8595 0.16683 0.0
H1247 H 0.40206 0.85955 0.15475 0.0
C1248 C 0.12101 0.55583 0.86908 0.0
C1249 C 0.09921 0.56243 0.87754 0.0
C1250 C 0.12624 0.56455 0.85256 0.0
C1251 C 0.109 0.57984 0.84419 0.0
C1252 C 0.08678 0.58629 0.8526 0.0
C1253 C 0.08226 0.57769 0.86928 0.0
C1254 C 0.15033 0.55761 0.84413 0.0
C1255 C 0.06775 0.60217 0.84397 0.0
C1256 C 0.13232 0.61938 0.8078 0.0
C1257 C 0.12667 0.60495 0.79327 0.0
C1258 C 0.12647 0.61154 0.82447 0.0
C1259 C 0.11427 0.58897 0.8266 0.0
C1260 C 0.10783 0.57471 0.81193 0.0
C1261 C 0.11433 0.58275 0.79546 0.0
C1262 C 0.13398 0.62707 0.83982 0.0
C1263 C 0.09437 0.55078 0.81366 0.0
H1264 H 0.13424 0.54426 0.87558 0.0
H1265 H 0.06533 0.58267 0.87581 0.0
H1266 H 0.14676 0.54763 0.83185 0.0
H1267 H 0.16085 0.57428 0.84095 0.0
H1268 H 0.16194 0.54596 0.85252 0.0
H1269 H 0.05122 0.60511 0.85214 0.0
H1270 H 0.07585 0.62017 0.84095 0.0
H1271 H 0.06187 0.59367 0.83156 0.0
H1272 H 0.14198 0.63649 0.8062 0.0
H1273 H 0.10973 0.57161 0.78426 0.0
H1274 H 0.14703 0.61678 0.84805 0.0
H1275 H 0.11766 0.63149 0.84784 0.0
H1276 H 0.1429 0.64438 0.83596 0.0
H1277 H 0.10606 0.53762 0.82074 0.0
H1278 H 0.0894 0.5426 0.80093 0.0
H1279 H 0.07728 0.55346 0.82126 0.0
C1280 C 0.42381 0.6224 0.12694 0.0
C1281 C 0.43765 0.60101 0.12887 0.0
C1282 C 0.41566 0.62978 0.11062 0.0
C1283 C 0.42112 0.61516 0.09595 0.0
C1284 C 0.43435 0.59308 0.09793 0.0
C1285 C 0.44271 0.5864 0.11437 0.0
C1286 C 0.40206 0.65369 0.10901 0.0
C1287 C 0.44014 0.57679 0.08264 0.0
C1288 C 0.38555 0.62658 0.05443 0.0
C1289 C 0.40279 0.63983 0.04492 0.0
C1290 C 0.39127 0.61825 0.07104 0.0
C1291 C 0.41454 0.62381 0.07842 0.0
C1292 C 0.43177 0.63765 0.06901 0.0
C1293 C 0.42578 0.64525 0.05232 0.0
C1294 C 0.37263 0.60317 0.08059 0.0
C1295 C 0.45657 0.64443 0.07657 0.0
H1296 H 0.42012 0.63382 0.13815 0.0
H1297 H 0.45326 0.56976 0.11591 0.0
H1298 H 0.41317 0.66652 0.10128 0.0
H1299 H 0.38434 0.65091 0.1021 0.0
H1300 H 0.39824 0.66231 0.12176 0.0
H1301 H 0.44871 0.55929 0.08655 0.0
H1302 H 0.42308 0.57276 0.0752 0.0
H1303 H 0.45296 0.58627 0.07386 0.0
H1304 H 0.36781 0.62223 0.04871 0.0
H1305 H 0.43909 0.65568 0.04509 0.0
H1306 H 0.36793 0.61215 0.09305 0.0
H1307 H 0.38062 0.58508 0.08361 0.0
H1308 H 0.35539 0.60039 0.07304 0.0
H1309 H 0.45409 0.65438 0.08899 0.0
H1310 H 0.4675 0.65604 0.06779 0.0
H1311 H 0.46732 0.6277 0.07932 0.0
C1312 C 0.3992 0.9438 0.38133 0.0
C1313 C 0.41351 0.92841 0.39171 0.0
C1314 C 0.39231 0.93682 0.36454 0.0
C1315 C 0.40036 0.91413 0.35778 0.0
C1316 C 0.41536 0.89877 0.36795 0.0
C1317 C 0.42157 0.90599 0.38485 0.0
C1318 C 0.37609 0.95359 0.35413 0.0
C1319 C 0.4246 0.87458 0.36107 0.0
C1320 C 0.36424 0.88458 0.32109 0.0
C1321 C 0.37822 0.89117 0.30673 0.0
C1322 C 0.3711 0.89217 0.33778 0.0
C1323 C 0.39271 0.90627 0.34015 0.0
C1324 C 0.40695 0.9129 0.32569 0.0
C1325 C 0.39939 0.90548 0.30912 0.0
C1326 C 0.3552 0.88515 0.35287 0.0
C1327 C 0.43033 0.92757 0.32775 0.0
H1328 H 0.39333 0.96139 0.38632 0.0
H1329 H 0.43235 0.89382 0.39279 0.0
H1330 H 0.3855 0.95863 0.34201 0.0
H1331 H 0.3588 0.94405 0.35045 0.0
H1332 H 0.37128 0.97056 0.36132 0.0
H1333 H 0.43715 0.86537 0.37029 0.0
H1334 H 0.40878 0.86233 0.35828 0.0
H1335 H 0.43453 0.87723 0.34875 0.0
H1336 H 0.34778 0.8736 0.31927 0.0
H1337 H 0.41034 0.91045 0.29806 0.0
H1338 H 0.34908 0.90177 0.35996 0.0
H1339 H 0.36602 0.874 0.36203 0.0
H1340 H 0.33865 0.87462 0.34879 0.0
H1341 H 0.42625 0.94537 0.33406 0.0
H1342 H 0.43944 0.93099 0.3152 0.0
H1343 H 0.44346 0.91779 0.33623 0.0
C1344 C 0.08643 0.89098 0.63913 0.0
C1345 C 0.08641 0.91596 0.6434 0.0
C1346 C 0.09238 0.88278 0.62245 0.0
C1347 C 0.0991 0.89989 0.6098 0.0
C1348 C 0.09916 0.92509 0.61396 0.0
C1349 C 0.09253 0.93283 0.63062 0.0
C1350 C 0.09173 0.85578 0.61842 0.0
C1351 C 0.10659 0.94386 0.60087 0.0
C1352 C 0.1387 0.87743 0.57262 0.0
C1353 C 0.12155 0.87627 0.55907 0.0
C1354 C 0.13164 0.88521 0.58918 0.0
C1355 C 0.10672 0.89138 0.59234 0.0
C1356 C 0.08921 0.88968 0.5788 0.0
C1357 C 0.09691 0.88242 0.56225 0.0
C1358 C 0.15095 0.88727 0.60321 0.0
C1359 C 0.06237 0.89555 0.58179 0.0
H1360 H 0.08224 0.87769 0.64891 0.0
H1361 H 0.09214 0.95217 0.63362 0.0
H1362 H 0.07997 0.85218 0.60693 0.0
H1363 H 0.11054 0.8492 0.61528 0.0
H1364 H 0.08458 0.845 0.62936 0.0
H1365 H 0.10588 0.96274 0.6062 0.0
H1366 H 0.1256 0.9401 0.59634 0.0
H1367 H 0.09428 0.94273 0.58944 0.0
H1368 H 0.15782 0.87286 0.57018 0.0
H1369 H 0.08359 0.88139 0.5518 0.0
H1370 H 0.146 0.87548 0.61418 0.0
H1371 H 0.15173 0.9063 0.60819 0.0
H1372 H 0.16957 0.88196 0.59859 0.0
H1373 H 0.05506 0.8842 0.59236 0.0
H1374 H 0.05093 0.89238 0.57006 0.0
H1375 H 0.06035 0.91489 0.58588 0.0
C1376 C 0.599 0.43407 0.87084 0.0
C1377 C 0.58256 0.41864 0.86191 0.0
C1378 C 0.60497 0.43013 0.88822 0.0
C1379 C 0.59369 0.41073 0.89708 0.0
C1380 C 0.57688 0.39525 0.88828 0.0
C1381 C 0.5718 0.39916 0.87077 0.0
C1382 C 0.62334 0.44676 0.89709 0.0
C1383 C 0.56412 0.37464 0.8974 0.0
C1384 C 0.62306 0.38708 0.93821 0.0
C1385 C 0.60988 0.39994 0.9509 0.0
C1386 C 0.61818 0.39061 0.92062 0.0
C1387 C 0.5992 0.40685 0.91566 0.0
C1388 C 0.58554 0.41953 0.92844 0.0
C1389 C 0.59128 0.41618 0.94591 0.0
C1390 C 0.63356 0.37724 0.90735 0.0
C1391 C 0.56474 0.43652 0.92367 0.0
H1392 H 0.6071 0.44945 0.86434 0.0
H1393 H 0.5595 0.38676 0.864 0.0
H1394 H 0.61427 0.45686 0.9078 0.0
H1395 H 0.63846 0.43584 0.90282 0.0
H1396 H 0.63146 0.46018 0.88814 0.0
H1397 H 0.55096 0.36472 0.88884 0.0
H1398 H 0.57794 0.36147 0.90225 0.0
H1399 H 0.55392 0.38186 0.90874 0.0
H1400 H 0.63758 0.37465 0.94204 0.0
H1401 H 0.58092 0.42599 0.9557 0.0
H1402 H 0.6427 0.39055 0.89881 0.0
H1403 H 0.62162 0.36558 0.89906 0.0
H1404 H 0.64792 0.36559 0.91334 0.0
H1405 H 0.57187 0.45172 0.91583 0.0
H1406 H 0.55536 0.44433 0.93519 0.0
H1407 H 0.55092 0.42662 0.91567 0.0
C1408 C 0.60867 0.10723 0.1174 0.0
C1409 C 0.62171 0.08841 0.10909 0.0
C1410 C 0.61538 0.11541 0.13395 0.0
C1411 C 0.63564 0.1045 0.14243 0.0
C1412 C 0.64902 0.0856 0.13408 0.0
C1413 C 0.64192 0.07781 0.11747 0.0
C1414 C 0.60075 0.13572 0.14238 0.0
C1415 C 0.67068 0.07349 0.14277 0.0
C1416 C 0.66523 0.14056 0.17913 0.0
C1417 C 0.65424 0.13006 0.1936 0.0
C1418 C 0.65961 0.13219 0.16239 0.0
C1419 C 0.64263 0.11283 0.16009 0.0
C1420 C 0.63168 0.10199 0.17466 0.0
C1421 C 0.63759 0.11076 0.19124 0.0
C1422 C 0.67159 0.14425 0.14717 0.0
C1423 C 0.61351 0.08129 0.17271 0.0
H1424 H 0.59329 0.11578 0.11085 0.0
H1425 H 0.65194 0.06314 0.11114 0.0
H1426 H 0.59269 0.12932 0.15464 0.0
H1427 H 0.61306 0.15127 0.14561 0.0
H1428 H 0.58561 0.14238 0.13398 0.0
H1429 H 0.67931 0.05926 0.13445 0.0
H1430 H 0.68483 0.08731 0.14621 0.0
H1431 H 0.66464 0.06496 0.15494 0.0
H1432 H 0.67814 0.15546 0.18086 0.0
H1433 H 0.62909 0.1025 0.20236 0.0
H1434 H 0.65727 0.15259 0.13885 0.0
H1435 H 0.68143 0.13045 0.13919 0.0
H1436 H 0.68488 0.15865 0.15117 0.0
H1437 H 0.59715 0.08748 0.16532 0.0
H1438 H 0.60724 0.07433 0.18535 0.0
H1439 H 0.62194 0.06602 0.16529 0.0
C1440 C 0.9495 0.13366 0.38954 0.0
C1441 C 0.93575 0.12262 0.37626 0.0
C1442 C 0.93949 0.13676 0.40611 0.0
C1443 C 0.9151 0.12891 0.40933 0.0
C1444 C 0.90091 0.11847 0.39579 0.0
C1445 C 0.91147 0.11533 0.37944 0.0
C1446 C 0.95525 0.14775 0.42028 0.0
C1447 C 0.87473 0.11018 0.39864 0.0
C1448 C 0.8963 0.11146 0.4546 0.0
C1449 C 0.88323 0.13219 0.46013 0.0
C1450 C 0.9072 0.11041 0.43824 0.0
C1451 C 0.90475 0.13046 0.42703 0.0
C1452 C 0.89172 0.15151 0.43254 0.0
C1453 C 0.88123 0.15219 0.44908 0.0
C1454 C 0.92118 0.08773 0.43289 0.0
C1455 C 0.88848 0.17312 0.42086 0.0
H1456 H 0.96832 0.13918 0.38711 0.0
H1457 H 0.90071 0.10711 0.36909 0.0
H1458 H 0.94567 0.16351 0.42635 0.0
H1459 H 0.95835 0.13408 0.4305 0.0
H1460 H 0.97344 0.15393 0.41548 0.0
H1461 H 0.86575 0.10375 0.38652 0.0
H1462 H 0.87451 0.0951 0.40804 0.0
H1463 H 0.86362 0.12532 0.4042 0.0
H1464 H 0.8981 0.096 0.46309 0.0
H1465 H 0.87113 0.16826 0.45323 0.0
H1466 H 0.94016 0.09259 0.42896 0.0
H1467 H 0.91206 0.07904 0.42156 0.0
H1468 H 0.92229 0.07417 0.44339 0.0
H1469 H 0.90671 0.17991 0.41666 0.0
H1470 H 0.87837 0.18834 0.42724 0.0
H1471 H 0.87821 0.16748 0.40907 0.0
C1472 C 0.92604 0.42321 0.62247 0.0
C1473 C 0.94631 0.40959 0.6165 0.0
C1474 C 0.91665 0.41997 0.63913 0.0
C1475 C 0.92734 0.40226 0.64997 0.0
C1476 C 0.94747 0.38814 0.64396 0.0
C1477 C 0.95691 0.39221 0.62743 0.0
C1478 C 0.89545 0.43568 0.64521 0.0
C1479 C 0.95916 0.36881 0.65505 0.0
C1480 C 0.92191 0.40654 0.69865 0.0
C1481 C 0.90311 0.38973 0.7019 0.0
C1482 C 0.92928 0.41151 0.68174 0.0
C1483 C 0.91801 0.39886 0.66778 0.0
C1484 C 0.89871 0.38216 0.67097 0.0
C1485 C 0.89126 0.37802 0.68802 0.0
C1486 C 0.94946 0.42993 0.67884 0.0
C1487 C 0.88663 0.36795 0.65645 0.0
H1488 H 0.91731 0.43633 0.61408 0.0
H1489 H 0.97282 0.38188 0.62317 0.0
H1490 H 0.87953 0.42407 0.64864 0.0
H1491 H 0.90089 0.44598 0.65703 0.0
H1492 H 0.88941 0.44888 0.63529 0.0
H1493 H 0.97371 0.35842 0.6481 0.0
H1494 H 0.96749 0.37738 0.66672 0.0
H1495 H 0.94494 0.35582 0.65949 0.0
H1496 H 0.93095 0.41579 0.70937 0.0
H1497 H 0.87683 0.36489 0.69052 0.0
H1498 H 0.94337 0.44364 0.66932 0.0
H1499 H 0.96594 0.42066 0.67344 0.0
H1500 H 0.95493 0.43957 0.69095 0.0
H1501 H 0.87943 0.38054 0.64654 0.0
H1502 H 0.87124 0.35638 0.66101 0.0
H1503 H 0.90049 0.35604 0.65006 0.0
C1504 C 0.57376 0.11136 0.36412 0.0
C1505 C 0.58782 0.10322 0.37811 0.0
C1506 C 0.58405 0.11297 0.34759 0.0
C1507 C 0.60907 0.10655 0.34509 0.0
C1508 C 0.62336 0.09836 0.35919 0.0
C1509 C 0.61252 0.09667 0.37553 0.0
C1510 C 0.56816 0.12153 0.33282 0.0
C1511 C 0.65018 0.09166 0.35707 0.0
C1512 C 0.63084 0.09103 0.29975 0.0
C1513 C 0.64134 0.11316 0.29466 0.0
C1514 C 0.62022 0.08862 0.31613 0.0
C1515 C 0.62039 0.10873 0.32775 0.0
C1516 C 0.63125 0.13101 0.32278 0.0
C1517 C 0.64147 0.133 0.30627 0.0
C1518 C 0.60859 0.06465 0.32092 0.0
C1519 C 0.63203 0.15276 0.3349 0.0
H1520 H 0.55459 0.11621 0.36607 0.0
H1521 H 0.6235 0.09064 0.38638 0.0
H1522 H 0.57601 0.13839 0.32731 0.0
H1523 H 0.56787 0.10752 0.32238 0.0
H1524 H 0.5489 0.12532 0.33686 0.0
H1525 H 0.6587 0.08552 0.36933 0.0
H1526 H 0.65211 0.07687 0.34727 0.0
H1527 H 0.66063 0.1076 0.35233 0.0
H1528 H 0.63056 0.07565 0.29084 0.0
H1529 H 0.64964 0.15013 0.30248 0.0
H1530 H 0.58885 0.06749 0.32404 0.0
H1531 H 0.61762 0.05734 0.33263 0.0
H1532 H 0.60996 0.05079 0.3104 0.0
H1533 H 0.61302 0.15839 0.33835 0.0
H1534 H 0.64164 0.1686 0.3292 0.0
H1535 H 0.64157 0.14783 0.34706 0.0
C1536 C 0.88152 0.08222 0.63335 0.0
C1537 C 0.89955 0.09433 0.64322 0.0
C1538 C 0.87418 0.09107 0.6172 0.0
C1539 C 0.88513 0.11254 0.61079 0.0
C1540 C 0.9033 0.12487 0.6207 0.0
C1541 C 0.91028 0.11562 0.63679 0.0
C1542 C 0.85479 0.07739 0.60697 0.0
C1543 C 0.91535 0.14785 0.61432 0.0
C1544 C 0.88365 0.12361 0.56255 0.0
C1545 C 0.86433 0.14049 0.56108 0.0
C1546 C 0.89052 0.11428 0.57864 0.0
C1547 C 0.87777 0.12202 0.59363 0.0
C1548 C 0.85822 0.139 0.59224 0.0
C1549 C 0.85173 0.14805 0.57598 0.0
C1550 C 0.91149 0.09622 0.57961 0.0
C1551 C 0.84421 0.14768 0.60795 0.0
H1552 H 0.87334 0.06564 0.63817 0.0
H1553 H 0.92393 0.12529 0.64447 0.0
H1554 H 0.83898 0.08959 0.6042 0.0
H1555 H 0.86247 0.07136 0.59438 0.0
H1556 H 0.84789 0.06114 0.61386 0.0
H1557 H 0.92916 0.15526 0.6236 0.0
H1558 H 0.92464 0.14416 0.60183 0.0
H1559 H 0.90117 0.16203 0.612 0.0
H1560 H 0.89347 0.11766 0.5511 0.0
H1561 H 0.83678 0.16107 0.57493 0.0
H1562 H 0.90504 0.07905 0.5855 0.0
H1563 H 0.92638 0.10363 0.58799 0.0
H1564 H 0.91934 0.09187 0.56672 0.0
H1565 H 0.83589 0.13189 0.61458 0.0
H1566 H 0.82934 0.16078 0.60466 0.0
H1567 H 0.85701 0.15662 0.61725 0.0
C1568 C 0.90777 0.42861 0.87692 0.0
C1569 C 0.89341 0.44798 0.88327 0.0
C1570 C 0.90277 0.41792 0.86075 0.0
C1571 C 0.88287 0.42675 0.85075 0.0
C1572 C 0.86831 0.4463 0.85709 0.0
C1573 C 0.87381 0.45673 0.87326 0.0
C1574 C 0.91883 0.39723 0.85436 0.0
C1575 C 0.84687 0.45612 0.84681 0.0
C1576 C 0.88373 0.4146 0.80248 0.0
C1577 C 0.86782 0.39456 0.80087 0.0
C1578 C 0.88875 0.42526 0.81864 0.0
C1579 C 0.87751 0.41572 0.83354 0.0
C1580 C 0.86132 0.39558 0.83201 0.0
C1581 C 0.8567 0.38519 0.81567 0.0
C1582 C 0.90619 0.44668 0.81978 0.0
C1583 C 0.84892 0.38498 0.84762 0.0
H1584 H 0.9231 0.42197 0.88454 0.0
H1585 H 0.86247 0.47149 0.87823 0.0
H1586 H 0.90742 0.3808 0.85179 0.0
H1587 H 0.92761 0.40225 0.842 0.0
H1588 H 0.93352 0.39244 0.86375 0.0
H1589 H 0.83728 0.47131 0.85362 0.0
H1590 H 0.85338 0.46275 0.83417 0.0
H1591 H 0.83338 0.44134 0.84417 0.0
H1592 H 0.8924 0.42194 0.7911 0.0
H1593 H 0.84434 0.36974 0.8145 0.0
H1594 H 0.92201 0.44218 0.82828 0.0
H1595 H 0.8967 0.46266 0.82563 0.0
H1596 H 0.91339 0.45193 0.80696 0.0
H1597 H 0.86303 0.37852 0.8569 0.0
H1598 H 0.83659 0.36949 0.8442 0.0
H1599 H 0.83792 0.39926 0.85432 0.0
C1600 C 0.53539 0.37773 0.12262 0.0
C1601 C 0.54448 0.3973 0.13254 0.0
C1602 C 0.54466 0.3728 0.10606 0.0
C1603 C 0.56332 0.38791 0.09928 0.0
C1604 C 0.57192 0.40819 0.10902 0.0
C1605 C 0.56243 0.41261 0.12555 0.0
C1606 C 0.53512 0.35095 0.09607 0.0
C1607 C 0.59165 0.42485 0.10217 0.0
C1608 C 0.60777 0.36224 0.06609 0.0
C1609 C 0.59864 0.37222 0.05077 0.0
C1610 C 0.59611 0.36681 0.08191 0.0
C1611 C 0.57488 0.38182 0.08243 0.0
C1612 C 0.56536 0.39167 0.06699 0.0
C1613 C 0.57733 0.3867 0.05131 0.0
C1614 C 0.60675 0.35587 0.09811 0.0
C1615 C 0.54281 0.40782 0.06707 0.0
H1616 H 0.52166 0.36575 0.12806 0.0
H1617 H 0.56923 0.42795 0.13311 0.0
H1618 H 0.52901 0.35644 0.08301 0.0
H1619 H 0.55015 0.33741 0.09437 0.0
H1620 H 0.51949 0.34198 0.10267 0.0
H1621 H 0.59528 0.44062 0.11094 0.0
H1622 H 0.60906 0.4145 0.10044 0.0
H1623 H 0.5862 0.43184 0.08934 0.0
H1624 H 0.62416 0.35094 0.06575 0.0
H1625 H 0.57017 0.39445 0.03951 0.0
H1626 H 0.59247 0.34514 0.10483 0.0
H1627 H 0.61276 0.37063 0.10709 0.0
H1628 H 0.62277 0.34382 0.0954 0.0
H1629 H 0.52716 0.39828 0.07319 0.0
H1630 H 0.53721 0.4133 0.05388 0.0
H1631 H 0.54651 0.42453 0.07487 0.0
loop_
_geom_bond_atom_site_label_1
_geom_bond_atom_site_label_2
_geom_bond_distance
_geom_bond_site_symmetry_2
_ccdc_geom_bond_type
H0 C27 0.929 . S
N1 C26 1.433 . S
N1 C32 1.435 . S
N1 C38 1.423 . S
H2 C28 0.930 . S
H3 C31 0.931 . S
H4 C30 0.929 . S
H5 C33 0.930 . S
H6 C34 0.932 . S
H7 C37 0.929 . S
H8 C36 0.931 . S
H9 C39 0.929 . S
H10 C43 0.932 . S
H11 C40 0.931 . S
H12 C42 0.929 . S
H13 C45 0.929 . S
H14 C46 0.930 . S
H15 C48 0.929 . S
H16 C49 0.931 . S
H17 C51 0.930 . S
H18 C52 0.932 . S
H19 C54 0.931 . S
H20 C55 0.929 . S
H21 C57 0.929 . S
H22 C58 0.931 . S
H23 C60 0.929 . S
N24 C44 1.433 . S
N24 C50 1.435 . S
N24 C56 1.423 . S
H25 C61 0.932 . S
C26 N1 1.433 . S
C26 C27 1.363 . S
C26 C31 1.370 . S
C27 H0 0.929 . S
C27 C26 1.363 . S
C27 C28 1.385 . S
C28 H2 0.930 . S
C28 C27 1.385 . S
C28 C29 1.357 . S
C29 C28 1.357 . S
C29 C30 1.406 . S
C30 H4 0.929 . S
C30 C29 1.406 . S
C30 C31 1.391 . S
C31 H3 0.931 . S
C31 C26 1.370 . S
C31 C30 1.391 . S
C32 N1 1.435 . S
C32 C33 1.358 . S
C32 C37 1.371 . S
C33 H5 0.930 . S
C33 C32 1.358 . S
C33 C34 1.405 . S
C34 H6 0.932 . S
C34 C33 1.405 . S
C34 C35 1.383 . S
C35 C34 1.383 . S
C35 C36 1.393 . S
C36 H8 0.931 . S
C36 C35 1.393 . S
C36 C37 1.382 . S
C37 H7 0.929 . S
C37 C32 1.371 . S
C37 C36 1.382 . S
C38 N1 1.423 . S
C38 C39 1.362 1_565 S
C38 C43 1.388 . S
C39 H9 0.929 . S
C39 C38 1.362 1_545 S
C39 C40 1.376 . S
C40 H11 0.931 . S
C40 C39 1.376 . S
C40 C41 1.396 . S
C41 C40 1.396 . S
C41 C42 1.348 1_545 S
C41 C59 1.472 . S
C42 H12 0.929 . S
C42 C41 1.348 1_565 S
C42 C43 1.443 . S
C43 H10 0.932 . S
C43 C38 1.388 . S
C43 C42 1.443 . S
C44 N24 1.433 . S
C44 C45 1.363 . S
C44 C49 1.370 . S
C45 H13 0.929 . S
C45 C44 1.363 . S
C45 C46 1.385 . S
C46 H14 0.930 . S
C46 C45 1.385 . S
C46 C47 1.357 . S
C47 C46 1.357 . S
C47 C48 1.406 . S
C48 H15 0.929 . S
C48 C47 1.406 . S
C48 C49 1.391 . S
C49 H16 0.931 . S
C49 C44 1.370 . S
C49 C48 1.391 . S
C50 N24 1.435 . S
C50 C51 1.358 . S
C50 C55 1.371 . S
C51 H17 0.930 . S
C51 C50 1.358 . S
C51 C52 1.405 . S
C52 H18 0.932 . S
C52 C51 1.405 . S
C52 C53 1.383 . S
C53 C52 1.383 . S
C53 C54 1.393 . S
C54 H19 0.931 . S
C54 C53 1.393 . S
C54 C55 1.382 . S
C55 H20 0.929 . S
C55 C50 1.371 . S
C55 C54 1.382 . S
C56 N24 1.423 . S
C56 C57 1.362 . S
C56 C61 1.388 . S
C57 H21 0.929 . S
C57 C56 1.362 . S
C57 C58 1.376 1_655 S
C58 H22 0.931 . S
C58 C57 1.376 1_455 S
C58 C59 1.396 . S
C59 C41 1.472 . S
C59 C58 1.396 . S
C59 C60 1.348 1_455 S
C60 H23 0.929 . S
C60 C59 1.348 1_655 S
C60 C61 1.443 . S
C61 H25 0.932 . S
C61 C56 1.388 . S
C61 C60 1.443 . S
H62 C89 0.929 . S
N63 C88 1.433 . S
N63 C94 1.435 . S
N63 C100 1.423 . S
H64 C90 0.930 . S
H65 C93 0.931 . S
H66 C92 0.929 . S
H67 C95 0.930 . S
H68 C96 0.932 . S
H69 C99 0.929 . S
H70 C98 0.931 . S
H71 C101 0.929 . S
H72 C105 0.932 . S
H73 C102 0.931 . S
H74 C104 0.929 . S
H75 C107 0.929 . S
H76 C108 0.930 . S
H77 C110 0.929 . S
H78 C111 0.931 . S
H79 C113 0.930 . S
H80 C114 0.932 . S
H81 C116 0.931 . S
H82 C117 0.929 . S
H83 C119 0.929 . S
H84 C120 0.931 . S
H85 C122 0.929 . S
N86 C106 1.433 . S
N86 C112 1.435 . S
N86 C118 1.423 . S
H87 C123 0.932 . S
C88 N63 1.433 . S
C88 C89 1.363 . S
C88 C93 1.370 . S
C89 H62 0.929 . S
C89 C88 1.363 . S
C89 C90 1.385 . S
C90 H64 0.930 . S
C90 C89 1.385 . S
C90 C91 1.357 . S
C91 C90 1.357 . S
C91 C92 1.406 . S
C92 H66 0.929 . S
C92 C91 1.406 . S
C92 C93 1.391 . S
C93 H65 0.931 . S
C93 C88 1.370 . S
C93 C92 1.391 . S
C94 N63 1.435 . S
C94 C95 1.358 . S
C94 C99 1.371 . S
C95 H67 0.930 . S
C95 C94 1.358 . S
C95 C96 1.405 . S
C96 H68 0.932 . S
C96 C95 1.405 . S
C96 C97 1.383 . S
C97 C96 1.383 . S
C97 C98 1.393 . S
C98 H70 0.931 . S
C98 C97 1.393 . S
C98 C99 1.382 . S
C99 H69 0.929 . S
C99 C94 1.371 . S
C99 C98 1.382 . S
C100 N63 1.423 . S
C100 C101 1.362 1_655 S
C100 C105 1.388 . S
C101 H71 0.929 . S
C101 C100 1.362 1_455 S
C101 C102 1.376 . S
C102 H73 0.931 . S
C102 C101 1.376 . S
C102 C103 1.396 . S
C103 C102 1.396 . S
C103 C104 1.348 1_455 S
C103 C121 1.472 . S
C104 H74 0.929 . S
C104 C103 1.348 1_655 S
C104 C105 1.443 . S
C105 H72 0.932 . S
C105 C100 1.388 . S
C105 C104 1.443 . S
C106 N86 1.433 . S
C106 C107 1.363 . S
C106 C111 1.370 . S
C107 H75 0.929 . S
C107 C106 1.363 . S
C107 C108 1.385 . S
C108 H76 0.930 . S
C108 C107 1.385 . S
C108 C109 1.357 . S
C109 C108 1.357 . S
C109 C110 1.406 . S
C110 H77 0.929 . S
C110 C109 1.406 . S
C110 C111 1.391 . S
C111 H78 0.931 . S
C111 C106 1.370 . S
C111 C110 1.391 . S
C112 N86 1.435 . S
C112 C113 1.358 . S
C112 C117 1.371 . S
C113 H79 0.930 . S
C113 C112 1.358 . S
C113 C114 1.405 . S
C114 H80 0.932 . S
C114 C113 1.405 . S
C114 C115 1.383 . S
C115 C114 1.383 . S
C115 C116 1.393 . S
C116 H81 0.931 . S
C116 C115 1.393 . S
C116 C117 1.382 . S
C117 H82 0.929 . S
C117 C112 1.371 . S
C117 C116 1.382 . S
C118 N86 1.423 . S
C118 C119 1.362 . S
C118 C123 1.388 . S
C119 H83 0.929 . S
C119 C118 1.362 . S
C119 C120 1.376 . S
C120 H84 0.931 . S
C120 C119 1.376 . S
C120 C121 1.396 . S
C121 C103 1.472 . S
C121 C120 1.396 . S
C121 C122 1.348 . S
C122 H85 0.929 . S
C122 C121 1.348 . S
C122 C123 1.443 . S
C123 H87 0.932 . S
C123 C118 1.388 . S
C123 C122 1.443 . S
H124 C151 0.929 . S
N125 C150 1.433 . S
N125 C156 1.435 . S
N125 C162 1.423 . S
H126 C152 0.930 . S
H127 C155 0.931 . S
H128 C154 0.929 . S
H129 C157 0.930 . S
H130 C158 0.932 . S
H131 C161 0.929 . S
H132 C160 0.931 . S
H133 C163 0.929 . S
H134 C167 0.932 . S
H135 C164 0.931 . S
H136 C166 0.929 . S
H137 C169 0.929 . S
H138 C170 0.930 . S
H139 C172 0.929 . S
H140 C173 0.931 . S
H141 C175 0.930 . S
H142 C176 0.932 . S
H143 C178 0.931 . S
H144 C179 0.929 . S
H145 C181 0.929 . S
H146 C182 0.931 . S
H147 C184 0.929 . S
N148 C168 1.433 . S
N148 C174 1.435 . S
N148 C180 1.423 . S
H149 C185 0.932 . S
C150 N125 1.433 . S
C150 C151 1.363 . S
C150 C155 1.370 . S
C151 H124 0.929 . S
C151 C150 1.363 . S
C151 C152 1.385 . S
C152 H126 0.930 . S
C152 C151 1.385 . S
C152 C153 1.357 . S
C153 C152 1.357 . S
C153 C154 1.406 . S
C154 H128 0.929 . S
C154 C153 1.406 . S
C154 C155 1.391 . S
C155 H127 0.931 . S
C155 C150 1.370 . S
C155 C154 1.391 . S
C156 N125 1.435 . S
C156 C157 1.358 . S
C156 C161 1.371 . S
C157 H129 0.930 . S
C157 C156 1.358 . S
C157 C158 1.405 . S
C158 H130 0.932 . S
C158 C157 1.405 . S
C158 C159 1.383 . S
C159 C158 1.383 . S
C159 C160 1.393 . S
C160 H132 0.931 . S
C160 C159 1.393 . S
C160 C161 1.382 . S
C161 H131 0.929 . S
C161 C156 1.371 . S
C161 C160 1.382 . S
C162 N125 1.423 . S
C162 C163 1.362 . S
C162 C167 1.388 . S
C163 H133 0.929 . S
C163 C162 1.362 . S
C163 C164 1.376 . S
C164 H135 0.931 . S
C164 C163 1.376 . S
C164 C165 1.396 . S
C165 C164 1.396 . S
C165 C166 1.348 . S
C165 C183 1.472 . S
C166 H136 0.929 . S
C166 C165 1.348 . S
C166 C167 1.443 . S
C167 H134 0.932 . S
C167 C162 1.388 . S
C167 C166 1.443 . S
C168 N148 1.433 . S
C168 C169 1.363 . S
C168 C173 1.370 . S
C169 H137 0.929 . S
C169 C168 1.363 . S
C169 C170 1.385 . S
C170 H138 0.930 . S
C170 C169 1.385 . S
C170 C171 1.357 . S
C171 C170 1.357 . S
C171 C172 1.406 . S
C172 H139 0.929 . S
C172 C171 1.406 . S
C172 C173 1.391 . S
C173 H140 0.931 . S
C173 C168 1.370 . S
C173 C172 1.391 . S
C174 N148 1.435 . S
C174 C175 1.358 . S
C174 C179 1.371 . S
C175 H141 0.930 . S
C175 C174 1.358 . S
C175 C176 1.405 . S
C176 H142 0.932 . S
C176 C175 1.405 . S
C176 C177 1.383 . S
C177 C176 1.383 . S
C177 C178 1.393 . S
C178 H143 0.931 . S
C178 C177 1.393 . S
C178 C179 1.382 . S
C179 H144 0.929 . S
C179 C174 1.371 . S
C179 C178 1.382 . S
C180 N148 1.423 . S
C180 C181 1.362 . S
C180 C185 1.388 . S
C181 H145 0.929 . S
C181 C180 1.362 . S
C181 C182 1.376 . S
C182 H146 0.931 . S
C182 C181 1.376 . S
C182 C183 1.396 . S
C183 C165 1.472 . S
C183 C182 1.396 . S
C183 C184 1.348 . S
C184 H147 0.929 . S
C184 C183 1.348 . S
C184 C185 1.443 . S
C185 H149 0.932 . S
C185 C180 1.388 . S
C185 C184 1.443 . S
H186 C213 0.929 . S
N187 C212 1.433 . S
N187 C218 1.435 . S
N187 C224 1.423 . S
H188 C214 0.930 . S
H189 C217 0.931 . S
H190 C216 0.929 . S
H191 C219 0.930 . S
H192 C220 0.932 . S
H193 C223 0.929 . S
H194 C222 0.931 . S
H195 C225 0.929 . S
H196 C229 0.932 . S
H197 C226 0.931 . S
H198 C228 0.929 . S
H199 C231 0.929 . S
H200 C232 0.930 . S
H201 C234 0.929 . S
H202 C235 0.931 . S
H203 C237 0.930 . S
H204 C238 0.932 . S
H205 C240 0.931 . S
H206 C241 0.929 . S
H207 C243 0.929 . S
H208 C244 0.931 1_565 S
H209 C246 0.929 . S
N210 C230 1.433 . S
N210 C236 1.435 . S
N210 C242 1.423 . S
H211 C247 0.932 . S
C212 N187 1.433 . S
C212 C213 1.363 . S
C212 C217 1.370 . S
C213 H186 0.929 . S
C213 C212 1.363 . S
C213 C214 1.385 . S
C214 H188 0.930 . S
C214 C213 1.385 . S
C214 C215 1.357 . S
C215 C214 1.357 . S
C215 C216 1.406 . S
C216 H190 0.929 . S
C216 C215 1.406 . S
C216 C217 1.391 . S
C217 H189 0.931 . S
C217 C212 1.370 . S
C217 C216 1.391 . S
C218 N187 1.435 . S
C218 C219 1.358 . S
C218 C223 1.371 . S
C219 H191 0.930 . S
C219 C218 1.358 . S
C219 C220 1.405 . S
C220 H192 0.932 . S
C220 C219 1.405 . S
C220 C221 1.383 . S
C221 C220 1.383 . S
C221 C222 1.393 . S
C222 H194 0.931 . S
C222 C221 1.393 . S
C222 C223 1.382 . S
C223 H193 0.929 . S
C223 C218 1.371 . S
C223 C222 1.382 . S
C224 N187 1.423 . S
C224 C225 1.362 . S
C224 C229 1.388 . S
C225 H195 0.929 . S
C225 C224 1.362 . S
C225 C226 1.376 . S
C226 H197 0.931 . S
C226 C225 1.376 . S
C226 C227 1.396 . S
C227 C226 1.396 . S
C227 C228 1.348 . S
C227 C245 1.472 1_565 S
C228 H198 0.929 . S
C228 C227 1.348 . S
C228 C229 1.443 . S
C229 H196 0.932 . S
C229 C224 1.388 . S
C229 C228 1.443 . S
C230 N210 1.433 . S
C230 C231 1.363 . S
C230 C235 1.370 . S
C231 H199 0.929 . S
C231 C230 1.363 . S
C231 C232 1.385 . S
C232 H200 0.930 . S
C232 C231 1.385 . S
C232 C233 1.357 . S
C233 C232 1.357 . S
C233 C234 1.406 . S
C234 H201 0.929 . S
C234 C233 1.406 . S
C234 C235 1.391 . S
C235 H202 0.931 . S
C235 C230 1.370 . S
C235 C234 1.391 . S
C236 N210 1.435 . S
C236 C237 1.358 . S
C236 C241 1.371 . S
C237 H203 0.930 . S
C237 C236 1.358 . S
C237 C238 1.405 . S
C238 H204 0.932 . S
C238 C237 1.405 . S
C238 C239 1.383 . S
C239 C238 1.383 . S
C239 C240 1.393 . S
C240 H205 0.931 . S
C240 C239 1.393 . S
C240 C241 1.382 . S
C241 H206 0.929 . S
C241 C236 1.371 . S
C241 C240 1.382 . S
C242 N210 1.423 . S
C242 C243 1.362 . S
C242 C247 1.388 . S
C243 H207 0.929 . S
C243 C242 1.362 . S
C243 C244 1.376 . S
C244 H208 0.931 1_545 S
C244 C243 1.376 . S
C244 C245 1.396 . S
C245 C227 1.472 1_545 S
C245 C244 1.396 . S
C245 C246 1.348 . S
C246 H209 0.929 . S
C246 C245 1.348 . S
C246 C247 1.443 . S
C247 H211 0.932 . S
C247 C242 1.388 . S
C247 C246 1.443 . S
H248 C275 0.929 . S
N249 C274 1.433 . S
N249 C280 1.435 . S
N249 C286 1.423 . S
H250 C276 0.930 . S
H251 C279 0.931 . S
H252 C278 0.929 . S
H253 C281 0.930 . S
H254 C282 0.932 . S
H255 C285 0.929 . S
H256 C284 0.931 . S
H257 C287 0.929 . S
H258 C291 0.932 . S
H259 C288 0.931 . S
H260 C290 0.929 . S
H261 C293 0.929 . S
H262 C294 0.930 . S
H263 C296 0.929 . S
H264 C297 0.931 . S
H265 C299 0.930 . S
H266 C300 0.932 . S
H267 C302 0.931 . S
H268 C303 0.929 . S
H269 C305 0.929 . S
H270 C306 0.931 1_455 S
H271 C308 0.929 . S
N272 C292 1.433 . S
N272 C298 1.435 . S
N272 C304 1.423 . S
H273 C309 0.932 . S
C274 N249 1.433 . S
C274 C275 1.363 . S
C274 C279 1.370 . S
C275 H248 0.929 . S
C275 C274 1.363 . S
C275 C276 1.385 . S
C276 H250 0.930 . S
C276 C275 1.385 . S
C276 C277 1.357 . S
C277 C276 1.357 . S
C277 C278 1.406 . S
C278 H252 0.929 . S
C278 C277 1.406 . S
C278 C279 1.391 . S
C279 H251 0.931 . S
C279 C274 1.370 . S
C279 C278 1.391 . S
C280 N249 1.435 . S
C280 C281 1.358 . S
C280 C285 1.371 . S
C281 H253 0.930 . S
C281 C280 1.358 . S
C281 C282 1.405 . S
C282 H254 0.932 . S
C282 C281 1.405 . S
C282 C283 1.383 . S
C283 C282 1.383 . S
C283 C284 1.393 . S
C284 H256 0.931 . S
C284 C283 1.393 . S
C284 C285 1.382 . S
C285 H255 0.929 . S
C285 C280 1.371 . S
C285 C284 1.382 . S
C286 N249 1.423 . S
C286 C287 1.362 . S
C286 C291 1.388 . S
C287 H257 0.929 . S
C287 C286 1.362 . S
C287 C288 1.376 . S
C288 H259 0.931 . S
C288 C287 1.376 . S
C288 C289 1.396 . S
C289 C288 1.396 . S
C289 C290 1.348 . S
C289 C307 1.506 . S
C290 H260 0.929 . S
C290 C289 1.348 . S
C290 C291 1.443 . S
C291 H258 0.932 . S
C291 C286 1.388 . S
C291 C290 1.443 . S
C292 N272 1.433 . S
C292 C293 1.363 . S
C292 C297 1.370 . S
C293 H261 0.929 . S
C293 C292 1.363 . S
C293 C294 1.385 . S
C294 H262 0.930 . S
C294 C293 1.385 . S
C294 C295 1.357 . S
C295 C294 1.357 . S
C295 C296 1.406 . S
C296 H263 0.929 . S
C296 C295 1.406 . S
C296 C297 1.391 . S
C297 H264 0.931 . S
C297 C292 1.370 . S
C297 C296 1.391 . S
C298 N272 1.435 . S
C298 C299 1.358 . S
C298 C303 1.371 . S
C299 H265 0.930 . S
C299 C298 1.358 . S
C299 C300 1.405 . S
C300 H266 0.932 . S
C300 C299 1.405 . S
C300 C301 1.383 . S
C301 C300 1.383 . S
C301 C302 1.393 . S
C302 H267 0.931 . S
C302 C301 1.393 . S
C302 C303 1.382 . S
C303 H268 0.929 . S
C303 C298 1.371 . S
C303 C302 1.382 . S
C304 N272 1.423 . S
C304 C305 1.362 . S
C304 C309 1.388 . S
C305 H269 0.929 . S
C305 C304 1.362 . S
C305 C306 1.376 . S
C306 H270 0.931 1_655 S
C306 C305 1.376 . S
C306 C307 1.392 1_655 S
C307 C289 1.506 . S
C307 C306 1.392 1_455 S
C307 C308 1.316 1_455 S
C308 H271 0.929 . S
C308 C307 1.316 1_655 S
C308 C309 1.443 . S
C309 H273 0.932 . S
C309 C304 1.388 . S
C309 C308 1.443 . S
H310 C337 0.929 . S
N311 C336 1.433 . S
N311 C342 1.435 . S
N311 C348 1.423 . S
H312 C338 0.930 . S
H313 C341 0.931 . S
H314 C340 0.929 . S
H315 C343 0.930 . S
H316 C344 0.932 . S
H317 C347 0.929 . S
H318 C346 0.931 . S
H319 C349 0.929 . S
H320 C353 0.932 . S
H321 C350 0.931 . S
H322 C352 0.929 . S
H323 C355 0.929 . S
H324 C356 0.930 . S
H325 C358 0.929 . S
H326 C359 0.931 . S
H327 C361 0.930 . S
H328 C362 0.932 . S
H329 C364 0.931 . S
H330 C365 0.929 . S
H331 C367 0.929 . S
H332 C368 0.931 . S
H333 C370 0.929 . S
N334 C354 1.433 . S
N334 C360 1.435 . S
N334 C366 1.423 . S
H335 C371 0.932 . S
C336 N311 1.433 . S
C336 C337 1.363 . S
C336 C341 1.370 . S
C337 H310 0.929 . S
C337 C336 1.363 . S
C337 C338 1.385 . S
C338 H312 0.930 . S
C338 C337 1.385 . S
C338 C339 1.357 . S
C339 C338 1.357 . S
C339 C340 1.406 . S
C340 H314 0.929 . S
C340 C339 1.406 . S
C340 C341 1.391 . S
C341 H313 0.931 . S
C341 C336 1.370 . S
C341 C340 1.391 . S
C342 N311 1.435 . S
C342 C343 1.358 . S
C342 C347 1.371 . S
C343 H315 0.930 . S
C343 C342 1.358 . S
C343 C344 1.405 . S
C344 H316 0.932 . S
C344 C343 1.405 . S
C344 C345 1.383 . S
C345 C344 1.383 . S
C345 C346 1.393 . S
C346 H318 0.931 . S
C346 C345 1.393 . S
C346 C347 1.382 . S
C347 H317 0.929 . S
C347 C342 1.371 . S
C347 C346 1.382 . S
C348 N311 1.423 . S
C348 C349 1.362 . S
C348 C353 1.388 . S
C349 H319 0.929 . S
C349 C348 1.362 . S
C349 C350 1.376 . S
C350 H321 0.931 . S
C350 C349 1.376 . S
C350 C351 1.396 . S
C351 C350 1.396 . S
C351 C352 1.348 . S
C351 C369 1.472 . S
C352 H322 0.929 . S
C352 C351 1.348 . S
C352 C353 1.443 . S
C353 H320 0.932 . S
C353 C348 1.388 . S
C353 C352 1.443 . S
C354 N334 1.433 . S
C354 C355 1.363 . S
C354 C359 1.370 . S
C355 H323 0.929 . S
C355 C354 1.363 . S
C355 C356 1.385 . S
C356 H324 0.930 . S
C356 C355 1.385 . S
C356 C357 1.357 . S
C357 C356 1.357 . S
C357 C358 1.406 . S
C358 H325 0.929 . S
C358 C357 1.406 . S
C358 C359 1.391 . S
C359 H326 0.931 . S
C359 C354 1.370 . S
C359 C358 1.391 . S
C360 N334 1.435 . S
C360 C361 1.358 . S
C360 C365 1.371 . S
C361 H327 0.930 . S
C361 C360 1.358 . S
C361 C362 1.405 . S
C362 H328 0.932 . S
C362 C361 1.405 . S
C362 C363 1.383 . S
C363 C362 1.383 . S
C363 C364 1.393 . S
C364 H329 0.931 . S
C364 C363 1.393 . S
C364 C365 1.382 . S
C365 H330 0.929 . S
C365 C360 1.371 . S
C365 C364 1.382 . S
C366 N334 1.423 . S
C366 C367 1.362 . S
C366 C371 1.388 . S
C367 H331 0.929 . S
C367 C366 1.362 . S
C367 C368 1.376 . S
C368 H332 0.931 . S
C368 C367 1.376 . S
C368 C369 1.396 . S
C369 C351 1.472 . S
C369 C368 1.396 . S
C369 C370 1.348 . S
C370 H333 0.929 . S
C370 C369 1.348 . S
C370 C371 1.443 . S
C371 H335 0.932 . S
C371 C366 1.388 . S
C371 C370 1.443 . S
H372 C399 0.929 . S
N373 C398 1.433 . S
N373 C404 1.435 . S
N373 C410 1.423 . S
H374 C400 0.930 . S
H375 C403 0.931 . S
H376 C402 0.929 . S
H377 C405 0.930 . S
H378 C406 0.932 . S
H379 C409 0.929 . S
H380 C408 0.931 . S
H381 C411 0.929 . S
H382 C415 0.932 . S
H383 C412 0.931 . S
H384 C414 0.929 . S
H385 C417 0.929 . S
H386 C418 0.930 . S
H387 C420 0.929 . S
H388 C421 0.931 . S
H389 C423 0.930 . S
H390 C424 0.932 . S
H391 C426 0.931 . S
H392 C427 0.929 . S
H393 C429 0.929 . S
H394 C430 0.931 . S
H395 C432 0.929 . S
N396 C416 1.433 . S
N396 C422 1.435 . S
N396 C428 1.423 . S
H397 C433 0.932 . S
C398 N373 1.433 . S
C398 C399 1.363 . S
C398 C403 1.370 . S
C399 H372 0.929 . S
C399 C398 1.363 . S
C399 C400 1.385 . S
C400 H374 0.930 . S
C400 C399 1.385 . S
C400 C401 1.357 . S
C401 C400 1.357 . S
C401 C402 1.406 . S
C402 H376 0.929 . S
C402 C401 1.406 . S
C402 C403 1.391 . S
C403 H375 0.931 . S
C403 C398 1.370 . S
C403 C402 1.391 . S
C404 N373 1.435 . S
C404 C405 1.358 . S
C404 C409 1.371 . S
C405 H377 0.930 . S
C405 C404 1.358 . S
C405 C406 1.405 . S
C406 H378 0.932 . S
C406 C405 1.405 . S
C406 C407 1.383 . S
C407 C406 1.383 . S
C407 C408 1.393 . S
C408 H380 0.931 . S
C408 C407 1.393 . S
C408 C409 1.382 . S
C409 H379 0.929 . S
C409 C404 1.371 . S
C409 C408 1.382 . S
C410 N373 1.423 . S
C410 C411 1.362 1_565 S
C410 C415 1.388 . S
C411 H381 0.929 . S
C411 C410 1.362 1_545 S
C411 C412 1.376 . S
C412 H383 0.931 . S
C412 C411 1.376 . S
C412 C413 1.396 . S
C413 C412 1.396 . S
C413 C414 1.348 1_545 S
C413 C431 1.472 . S
C414 H384 0.929 . S
C414 C413 1.348 1_565 S
C414 C415 1.443 . S
C415 H382 0.932 . S
C415 C410 1.388 . S
C415 C414 1.443 . S
C416 N396 1.433 . S
C416 C417 1.363 . S
C416 C421 1.370 . S
C417 H385 0.929 . S
C417 C416 1.363 . S
C417 C418 1.385 . S
C418 H386 0.930 . S
C418 C417 1.385 . S
C418 C419 1.357 . S
C419 C418 1.357 . S
C419 C420 1.406 . S
C420 H387 0.929 . S
C420 C419 1.406 . S
C420 C421 1.391 . S
C421 H388 0.931 . S
C421 C416 1.370 . S
C421 C420 1.391 . S
C422 N396 1.435 . S
C422 C423 1.358 . S
C422 C427 1.371 . S
C423 H389 0.930 . S
C423 C422 1.358 . S
C423 C424 1.405 . S
C424 H390 0.932 . S
C424 C423 1.405 . S
C424 C425 1.383 . S
C425 C424 1.383 . S
C425 C426 1.393 . S
C426 H391 0.931 . S
C426 C425 1.393 . S
C426 C427 1.382 . S
C427 H392 0.929 . S
C427 C422 1.371 . S
C427 C426 1.382 . S
C428 N396 1.423 . S
C428 C429 1.362 . S
C428 C433 1.388 . S
C429 H393 0.929 . S
C429 C428 1.362 . S
C429 C430 1.376 . S
C430 H394 0.931 . S
C430 C429 1.376 . S
C430 C431 1.396 . S
C431 C413 1.472 . S
C431 C430 1.396 . S
C431 C432 1.348 . S
C432 H395 0.929 . S
C432 C431 1.348 . S
C432 C433 1.443 . S
C433 H397 0.932 . S
C433 C428 1.388 . S
C433 C432 1.443 . S
H434 C461 0.929 . S
N435 C460 1.433 . S
N435 C466 1.435 . S
N435 C472 1.423 . S
H436 C462 0.930 . S
H437 C465 0.931 . S
H438 C464 0.929 . S
H439 C467 0.930 . S
H440 C468 0.932 . S
H441 C471 0.929 . S
H442 C470 0.931 . S
H443 C473 0.929 . S
H444 C477 0.932 . S
H445 C474 0.931 1_655 S
H446 C476 0.929 1_545 S
H447 C479 0.929 . S
H448 C480 0.930 . S
H449 C482 0.929 . S
H450 C483 0.931 . S
H451 C485 0.930 . S
H452 C486 0.932 . S
H453 C488 0.931 . S
H454 C489 0.929 . S
H455 C491 0.929 . S
H456 C492 0.931 . S
H457 C494 0.929 1_455 S
N458 C478 1.433 . S
N458 C484 1.435 . S
N458 C490 1.423 . S
H459 C495 0.932 . S
C460 N435 1.433 . S
C460 C461 1.363 . S
C460 C465 1.370 . S
C461 H434 0.929 . S
C461 C460 1.363 . S
C461 C462 1.385 . S
C462 H436 0.930 . S
C462 C461 1.385 . S
C462 C463 1.357 . S
C463 C462 1.357 . S
C463 C464 1.406 . S
C464 H438 0.929 . S
C464 C463 1.406 . S
C464 C465 1.391 . S
C465 H437 0.931 . S
C465 C460 1.370 . S
C465 C464 1.391 . S
C466 N435 1.435 . S
C466 C467 1.358 . S
C466 C471 1.371 . S
C467 H439 0.930 . S
C467 C466 1.358 . S
C467 C468 1.405 . S
C468 H440 0.932 . S
C468 C467 1.405 . S
C468 C469 1.383 . S
C469 C468 1.383 . S
C469 C470 1.393 . S
C470 H442 0.931 . S
C470 C469 1.393 . S
C470 C471 1.382 . S
C471 H441 0.929 . S
C471 C466 1.371 . S
C471 C470 1.382 . S
C472 N435 1.423 . S
C472 C473 1.362 . S
C472 C477 1.388 . S
C473 H443 0.929 . S
C473 C472 1.362 . S
C473 C474 1.376 . S
C474 H445 0.931 1_455 S
C474 C473 1.376 . S
C474 C475 1.396 1_565 S
C475 C474 1.396 1_545 S
C475 C476 1.348 1_545 S
C475 C493 1.472 1_455 S
C476 H446 0.929 1_565 S
C476 C475 1.348 1_565 S
C476 C477 1.443 . S
C477 H444 0.932 . S
C477 C472 1.388 . S
C477 C476 1.443 . S
C478 N458 1.433 . S
C478 C479 1.363 . S
C478 C483 1.370 . S
C479 H447 0.929 . S
C479 C478 1.363 . S
C479 C480 1.385 . S
C480 H448 0.930 . S
C480 C479 1.385 . S
C480 C481 1.357 . S
C481 C480 1.357 . S
C481 C482 1.406 . S
C482 H449 0.929 . S
C482 C481 1.406 . S
C482 C483 1.391 . S
C483 H450 0.931 . S
C483 C478 1.370 . S
C483 C482 1.391 . S
C484 N458 1.435 . S
C484 C485 1.358 . S
C484 C489 1.371 . S
C485 H451 0.930 . S
C485 C484 1.358 . S
C485 C486 1.405 . S
C486 H452 0.932 . S
C486 C485 1.405 . S
C486 C487 1.383 . S
C487 C486 1.383 . S
C487 C488 1.393 . S
C488 H453 0.931 . S
C488 C487 1.393 . S
C488 C489 1.382 . S
C489 H454 0.929 . S
C489 C484 1.371 . S
C489 C488 1.382 . S
C490 N458 1.423 . S
C490 C491 1.362 . S
C490 C495 1.388 . S
C491 H455 0.929 . S
C491 C490 1.362 . S
C491 C492 1.376 . S
C492 H456 0.931 . S
C492 C491 1.376 . S
C492 C493 1.396 . S
C493 C475 1.472 1_655 S
C493 C492 1.396 . S
C493 C494 1.348 . S
C494 H457 0.929 1_655 S
C494 C493 1.348 . S
C494 C495 1.443 . S
C495 H459 0.932 . S
C495 C490 1.388 . S
C495 C494 1.443 . S
C496 O497 1.306 . S
C496 O499 1.160 . S
O497 C496 1.306 . S
O497 Cd498 2.228 . S
Cd498 O497 2.228 . S
Cd498 O502 2.273 1_554 S
Cd498 O506 2.277 . S
O499 C496 1.160 . S
O499 Cd500 2.203 . S
Cd500 O499 2.203 . S
Cd500 O502 2.411 1_554 S
Cd500 O503 2.333 1_554 S
Cd500 O504 2.352 . S
Cd500 O508 2.277 . S
Cd500 O509 2.355 1_554 S
C501 O506 1.209 . S
C501 O508 1.226 . S
O502 Cd498 2.273 1_556 S
O502 Cd500 2.411 1_556 S
O502 C505 1.320 . S
O503 Cd500 2.333 1_556 S
O503 C505 1.214 . S
O504 Cd500 2.352 . S
O504 C507 1.266 . S
C505 O502 1.320 . S
C505 O503 1.214 . S
O506 Cd498 2.277 . S
O506 C501 1.209 . S
C507 O504 1.266 . S
C507 O509 1.279 1_554 S
O508 Cd500 2.277 . S
O508 C501 1.226 . S
O509 Cd500 2.355 1_556 S
O509 C507 1.279 1_556 S
C510 O511 1.306 . S
C510 O513 1.160 . S
O511 C510 1.306 . S
O511 Cd512 2.228 . S
Cd512 O511 2.228 . S
Cd512 O516 2.273 . S
Cd512 O520 2.277 . S
O513 C510 1.160 . S
O513 Cd514 2.203 . S
Cd514 O513 2.203 . S
Cd514 O516 2.411 . S
Cd514 O517 2.333 . S
Cd514 O518 2.352 . S
Cd514 O522 2.277 . S
Cd514 O523 2.356 . S
C515 O520 1.209 . S
C515 O522 1.226 . S
O516 Cd512 2.273 . S
O516 Cd514 2.411 . S
O516 C519 1.320 . S
O517 Cd514 2.333 . S
O517 C519 1.214 . S
O518 Cd514 2.352 . S
O518 C521 1.258 . S
C519 O516 1.320 . S
C519 O517 1.214 . S
O520 Cd512 2.277 . S
O520 C515 1.209 . S
C521 O518 1.258 . S
C521 O523 1.282 . S
O522 Cd514 2.277 . S
O522 C515 1.226 . S
O523 Cd514 2.356 . S
O523 C521 1.282 . S
C524 O525 1.306 . S
C524 O527 1.160 . S
O525 C524 1.306 . S
O525 Cd526 2.228 . S
Cd526 O525 2.228 . S
Cd526 O530 2.273 . S
Cd526 O534 2.277 . S
O527 C524 1.160 . S
O527 Cd528 2.203 . S
Cd528 O527 2.203 . S
Cd528 O530 2.411 . S
Cd528 O531 2.333 . S
Cd528 O532 2.352 . S
Cd528 O536 2.277 . S
Cd528 O537 2.356 . S
C529 O534 1.209 . S
C529 O536 1.226 . S
O530 Cd526 2.273 . S
O530 Cd528 2.411 . S
O530 C533 1.320 . S
O531 Cd528 2.333 . S
O531 C533 1.214 . S
O532 Cd528 2.352 . S
O532 C535 1.258 . S
C533 O530 1.320 . S
C533 O531 1.214 . S
O534 Cd526 2.277 . S
O534 C529 1.209 . S
C535 O532 1.258 . S
C535 O537 1.282 . S
O536 Cd528 2.277 . S
O536 C529 1.226 . S
O537 Cd528 2.356 . S
O537 C535 1.282 . S
C538 O539 1.306 . S
C538 O541 1.160 . S
O539 C538 1.306 . S
O539 Cd540 2.228 . S
Cd540 O539 2.228 . S
Cd540 O544 2.273 . S
Cd540 O548 2.277 . S
O541 C538 1.160 . S
O541 Cd542 2.203 . S
Cd542 O541 2.203 . S
Cd542 O544 2.411 . S
Cd542 O545 2.333 . S
Cd542 O546 2.352 . S
Cd542 O550 2.277 . S
Cd542 O551 2.356 . S
C543 O548 1.209 . S
C543 O550 1.226 . S
O544 Cd540 2.273 . S
O544 Cd542 2.411 . S
O544 C547 1.320 . S
O545 Cd542 2.333 . S
O545 C547 1.214 . S
O546 Cd542 2.352 . S
O546 C549 1.258 . S
C547 O544 1.320 . S
C547 O545 1.214 . S
O548 Cd540 2.277 . S
O548 C543 1.209 . S
C549 O546 1.258 . S
C549 O551 1.282 . S
O550 Cd542 2.277 . S
O550 C543 1.226 . S
O551 Cd542 2.356 . S
O551 C549 1.282 . S
C552 O553 1.306 . S
C552 O555 1.160 . S
O553 C552 1.306 . S
O553 Cd554 2.228 . S
Cd554 O553 2.228 . S
Cd554 O558 2.273 . S
Cd554 O562 2.277 . S
O555 C552 1.160 . S
O555 Cd556 2.203 . S
Cd556 O555 2.203 . S
Cd556 O558 2.411 . S
Cd556 O559 2.333 . S
Cd556 O560 2.352 . S
Cd556 O564 2.277 . S
Cd556 O565 2.356 . S
C557 O562 1.209 . S
C557 O564 1.226 . S
O558 Cd554 2.273 . S
O558 Cd556 2.411 . S
O558 C561 1.320 . S
O559 Cd556 2.333 . S
O559 C561 1.214 . S
O560 Cd556 2.352 . S
O560 C563 1.258 . S
C561 O558 1.320 . S
C561 O559 1.214 . S
O562 Cd554 2.277 . S
O562 C557 1.209 . S
C563 O560 1.258 . S
C563 O565 1.282 . S
O564 Cd556 2.277 . S
O564 C557 1.226 . S
O565 Cd556 2.356 . S
O565 C563 1.282 . S
C566 O567 1.306 . S
C566 O569 1.160 . S
O567 C566 1.306 . S
O567 Cd568 2.228 . S
Cd568 O567 2.228 . S
Cd568 O572 2.273 . S
Cd568 O576 2.277 . S
O569 C566 1.160 . S
O569 Cd570 2.203 . S
Cd570 O569 2.203 . S
Cd570 O572 2.411 . S
Cd570 O573 2.333 . S
Cd570 O574 2.352 . S
Cd570 O578 2.277 . S
Cd570 O579 2.356 . S
C571 O576 1.209 . S
C571 O578 1.226 . S
O572 Cd568 2.273 . S
O572 Cd570 2.411 . S
O572 C575 1.320 . S
O573 Cd570 2.333 . S
O573 C575 1.214 . S
O574 Cd570 2.352 . S
O574 C577 1.258 . S
C575 O572 1.320 . S
C575 O573 1.214 . S
O576 Cd568 2.277 . S
O576 C571 1.209 . S
C577 O574 1.258 . S
C577 O579 1.282 . S
O578 Cd570 2.277 . S
O578 C571 1.226 . S
O579 Cd570 2.356 . S
O579 C577 1.282 . S
C580 O581 1.306 . S
C580 O583 1.160 . S
O581 C580 1.306 . S
O581 Cd582 2.208 1_556 S
Cd582 O581 2.208 1_554 S
Cd582 O586 2.289 . S
Cd582 O590 2.275 1_554 S
O583 C580 1.160 . S
O583 Cd584 2.203 1_556 S
Cd584 O583 2.203 1_554 S
Cd584 O586 2.411 . S
Cd584 O587 2.333 . S
Cd584 O588 2.352 . S
Cd584 O592 2.277 1_554 S
Cd584 O593 2.356 . S
C585 O590 1.209 . S
C585 O592 1.226 . S
O586 Cd582 2.289 . S
O586 Cd584 2.411 . S
O586 C589 1.320 . S
O587 Cd584 2.333 . S
O587 C589 1.214 . S
O588 Cd584 2.352 . S
O588 C591 1.258 . S
C589 O586 1.320 . S
C589 O587 1.214 . S
O590 Cd582 2.275 1_556 S
O590 C585 1.209 . S
C591 O588 1.258 . S
C591 O593 1.282 . S
O592 Cd584 2.277 1_556 S
O592 C585 1.226 . S
O593 Cd584 2.356 . S
O593 C591 1.282 . S
C594 O595 1.306 . S
C594 O597 1.160 . S
O595 C594 1.306 . S
O595 Cd596 2.228 . S
Cd596 O595 2.228 . S
Cd596 O600 2.273 . S
Cd596 O604 2.277 . S
O597 C594 1.160 . S
O597 Cd598 2.203 . S
Cd598 O597 2.203 . S
Cd598 O600 2.411 . S
Cd598 O601 2.333 . S
Cd598 O602 2.352 . S
Cd598 O606 2.277 . S
Cd598 O607 2.356 . S
C599 O604 1.209 . S
C599 O606 1.226 . S
O600 Cd596 2.273 . S
O600 Cd598 2.411 . S
O600 C603 1.320 . S
O601 Cd598 2.333 . S
O601 C603 1.214 . S
O602 Cd598 2.352 . S
O602 C605 1.258 . S
C603 O600 1.320 . S
C603 O601 1.214 . S
O604 Cd596 2.277 . S
O604 C599 1.209 . S
C605 O602 1.258 . S
C605 O607 1.282 . S
O606 Cd598 2.277 . S
O606 C599 1.226 . S
O607 Cd598 2.356 . S
O607 C605 1.282 . S
C608 C609 1.391 . S
C608 C610 1.394 . S
C608 H624 0.931 . S
C609 C608 1.391 . S
C609 C613 1.376 . S
C610 C608 1.394 . S
C610 C611 1.369 . S
C610 C614 1.531 . S
C611 C610 1.369 . S
C611 C612 1.410 . S
C611 C619 1.503 . S
C612 C611 1.410 . S
C612 C613 1.392 . S
C612 C615 1.511 . S
C613 C609 1.376 . S
C613 C612 1.392 . S
C613 H625 0.929 . S
C614 C610 1.531 . S
C614 H626 0.960 . S
C614 H627 0.962 . S
C614 H628 0.960 . S
C615 C612 1.511 . S
C615 H629 0.961 . S
C615 H630 0.961 . S
C615 H631 0.961 . S
C616 C617 1.370 . S
C616 C618 1.363 . S
C616 H632 0.931 . S
C617 C616 1.370 . S
C617 C621 1.408 . S
C618 C616 1.363 . S
C618 C619 1.370 . S
C618 C622 1.524 . S
C619 C611 1.503 . S
C619 C618 1.370 . S
C619 C620 1.403 . S
C620 C619 1.403 . S
C620 C621 1.404 . S
C620 C623 1.539 . S
C621 C617 1.408 . S
C621 C620 1.404 . S
C621 H633 0.930 . S
C622 C618 1.524 . S
C622 H634 0.956 . S
C622 H635 0.961 . S
C622 H636 0.961 . S
C623 C620 1.539 . S
C623 H637 0.958 . S
C623 H638 0.961 . S
C623 H639 0.960 . S
H624 C608 0.931 . S
H625 C613 0.929 . S
H626 C614 0.960 . S
H627 C614 0.962 . S
H628 C614 0.960 . S
H629 C615 0.961 . S
H630 C615 0.961 . S
H631 C615 0.961 . S
H632 C616 0.931 . S
H633 C621 0.930 . S
H634 C622 0.956 . S
H635 C622 0.961 . S
H636 C622 0.961 . S
H637 C623 0.958 . S
H638 C623 0.961 . S
H639 C623 0.960 . S
C640 C641 1.391 . S
C640 C642 1.394 . S
C640 H656 0.931 . S
C641 C640 1.391 . S
C641 C645 1.376 . S
C642 C640 1.394 . S
C642 C643 1.369 . S
C642 C646 1.531 . S
C643 C642 1.369 . S
C643 C644 1.410 . S
C643 C651 1.503 . S
C644 C643 1.410 . S
C644 C645 1.392 . S
C644 C647 1.511 . S
C645 C641 1.376 . S
C645 C644 1.392 . S
C645 H657 0.929 . S
C646 C642 1.531 . S
C646 H658 0.960 . S
C646 H659 0.962 . S
C646 H660 0.960 . S
C647 C644 1.511 . S
C647 H661 0.961 . S
C647 H662 0.961 . S
C647 H663 0.961 . S
C648 C649 1.370 . S
C648 C650 1.363 . S
C648 H664 0.931 . S
C649 C648 1.370 . S
C649 C653 1.408 . S
C650 C648 1.363 . S
C650 C651 1.370 . S
C650 C654 1.524 . S
C651 C643 1.503 . S
C651 C650 1.370 . S
C651 C652 1.403 . S
C652 C651 1.403 . S
C652 C653 1.404 . S
C652 C655 1.539 . S
C653 C649 1.408 . S
C653 C652 1.404 . S
C653 H665 0.930 . S
C654 C650 1.524 . S
C654 H666 0.956 . S
C654 H667 0.961 . S
C654 H668 0.961 . S
C655 C652 1.539 . S
C655 H669 0.958 . S
C655 H670 0.961 . S
C655 H671 0.960 . S
H656 C640 0.931 . S
H657 C645 0.929 . S
H658 C646 0.960 . S
H659 C646 0.962 . S
H660 C646 0.960 . S
H661 C647 0.961 . S
H662 C647 0.961 . S
H663 C647 0.961 . S
H664 C648 0.931 . S
H665 C653 0.930 . S
H666 C654 0.956 . S
H667 C654 0.961 . S
H668 C654 0.961 . S
H669 C655 0.958 . S
H670 C655 0.961 . S
H671 C655 0.960 . S
C672 C673 1.391 . S
C672 C674 1.394 . S
C672 H688 0.931 . S
C673 C672 1.391 . S
C673 C677 1.376 . S
C674 C672 1.394 . S
C674 C675 1.369 . S
C674 C678 1.531 . S
C675 C674 1.369 . S
C675 C676 1.410 . S
C675 C683 1.503 . S
C676 C675 1.410 . S
C676 C677 1.392 . S
C676 C679 1.511 . S
C677 C673 1.376 . S
C677 C676 1.392 . S
C677 H689 0.929 . S
C678 C674 1.531 . S
C678 H690 0.960 . S
C678 H691 0.962 . S
C678 H692 0.960 . S
C679 C676 1.511 . S
C679 H693 0.961 . S
C679 H694 0.961 . S
C679 H695 0.961 . S
C680 C681 1.370 . S
C680 C682 1.363 . S
C680 H696 0.931 . S
C681 C680 1.370 . S
C681 C685 1.408 . S
C682 C680 1.363 . S
C682 C683 1.370 . S
C682 C686 1.524 . S
C683 C675 1.503 . S
C683 C682 1.370 . S
C683 C684 1.403 . S
C684 C683 1.403 . S
C684 C685 1.404 . S
C684 C687 1.539 . S
C685 C681 1.408 . S
C685 C684 1.404 . S
C685 H697 0.930 . S
C686 C682 1.524 . S
C686 H698 0.956 . S
C686 H699 0.961 . S
C686 H700 0.961 . S
C687 C684 1.539 . S
C687 H701 0.958 . S
C687 H702 0.961 . S
C687 H703 0.960 . S
H688 C672 0.931 . S
H689 C677 0.929 . S
H690 C678 0.960 . S
H691 C678 0.962 . S
H692 C678 0.960 . S
H693 C679 0.961 . S
H694 C679 0.961 . S
H695 C679 0.961 . S
H696 C680 0.931 . S
H697 C685 0.930 . S
H698 C686 0.956 . S
H699 C686 0.961 . S
H700 C686 0.961 . S
H701 C687 0.958 . S
H702 C687 0.961 . S
H703 C687 0.960 . S
C704 C705 1.391 . S
C704 C706 1.394 . S
C704 H720 0.931 . S
C705 C704 1.391 . S
C705 C709 1.381 . S
C706 C704 1.394 . S
C706 C707 1.369 . S
C706 C710 1.531 . S
C707 C706 1.369 . S
C707 C708 1.410 1_554 S
C707 C715 1.503 . S
C708 C707 1.410 1_556 S
C708 C709 1.392 1_556 S
C708 C711 1.511 . S
C709 C705 1.381 . S
C709 C708 1.392 1_554 S
C709 H721 0.924 1_554 S
C710 C706 1.531 . S
C710 H722 0.960 . S
C710 H723 0.962 . S
C710 H724 0.960 . S
C711 C708 1.511 . S
C711 H725 0.961 . S
C711 H726 0.961 . S
C711 H727 0.961 . S
C712 C713 1.370 . S
C712 C714 1.363 . S
C712 H728 0.931 . S
C713 C712 1.370 . S
C713 C717 1.408 1_554 S
C714 C712 1.363 . S
C714 C715 1.370 . S
C714 C718 1.524 . S
C715 C707 1.503 . S
C715 C714 1.370 . S
C715 C716 1.403 1_554 S
C716 C715 1.403 1_556 S
C716 C717 1.404 . S
C716 C719 1.539 . S
C717 C713 1.408 1_556 S
C717 C716 1.404 . S
C717 H729 0.930 . S
C718 C714 1.524 . S
C718 H730 0.956 . S
C718 H731 0.961 . S
C718 H732 0.961 . S
C719 C716 1.539 . S
C719 H733 0.958 . S
C719 H734 0.961 . S
C719 H735 0.960 . S
H720 C704 0.931 . S
H721 C709 0.924 1_556 S
H722 C710 0.960 . S
H723 C710 0.962 . S
H724 C710 0.960 . S
H725 C711 0.961 . S
H726 C711 0.961 . S
H727 C711 0.961 . S
H728 C712 0.931 . S
H729 C717 0.930 . S
H730 C718 0.956 . S
H731 C718 0.961 . S
H732 C718 0.961 . S
H733 C719 0.958 . S
H734 C719 0.961 . S
H735 C719 0.960 . S
C736 C737 1.391 1_554 S
C736 C738 1.394 . S
C736 H752 0.931 . S
C737 C736 1.391 1_556 S
C737 C741 1.376 . S
C738 C736 1.394 . S
C738 C739 1.380 . S
C738 C742 1.531 . S
C739 C738 1.380 . S
C739 C740 1.397 1_554 S
C739 C747 1.503 . S
C740 C739 1.397 1_556 S
C740 C741 1.392 . S
C740 C743 1.511 . S
C741 C737 1.376 . S
C741 C740 1.392 . S
C741 H753 0.929 . S
C742 C738 1.531 . S
C742 H754 0.960 . S
C742 H755 0.962 . S
C742 H756 0.960 . S
C743 C740 1.511 . S
C743 H757 0.961 . S
C743 H758 0.961 . S
C743 H759 0.961 . S
C744 C745 1.370 1_556 S
C744 C746 1.363 . S
C744 H760 0.931 . S
C745 C744 1.370 1_554 S
C745 C749 1.409 . S
C746 C744 1.363 . S
C746 C747 1.363 1_556 S
C746 C750 1.524 . S
C747 C739 1.503 . S
C747 C746 1.363 1_554 S
C747 C748 1.411 . S
C748 C747 1.411 . S
C748 C749 1.404 . S
C748 C751 1.539 . S
C749 C745 1.409 . S
C749 C748 1.404 . S
C749 H761 0.930 . S
C750 C746 1.524 . S
C750 H762 0.956 . S
C750 H763 0.961 . S
C750 H764 0.961 . S
C751 C748 1.539 . S
C751 H765 0.958 . S
C751 H766 0.961 . S
C751 H767 0.960 . S
H752 C736 0.931 . S
H753 C741 0.929 . S
H754 C742 0.960 . S
H755 C742 0.962 . S
H756 C742 0.960 . S
H757 C743 0.961 . S
H758 C743 0.961 . S
H759 C743 0.961 . S
H760 C744 0.931 . S
H761 C749 0.930 . S
H762 C750 0.956 . S
H763 C750 0.961 . S
H764 C750 0.961 . S
H765 C751 0.958 . S
H766 C751 0.961 . S
H767 C751 0.960 . S
C768 C769 1.391 . S
C768 C770 1.394 . S
C768 H784 0.931 . S
C769 C768 1.391 . S
C769 C773 1.376 . S
C770 C768 1.394 . S
C770 C771 1.369 . S
C770 C774 1.531 . S
C771 C770 1.369 . S
C771 C772 1.410 . S
C771 C779 1.503 . S
C772 C771 1.410 . S
C772 C773 1.392 . S
C772 C775 1.511 . S
C773 C769 1.376 . S
C773 C772 1.392 . S
C773 H785 0.929 . S
C774 C770 1.531 . S
C774 H786 0.960 . S
C774 H787 0.962 . S
C774 H788 0.960 . S
C775 C772 1.511 . S
C775 H789 0.961 . S
C775 H790 0.961 . S
C775 H791 0.961 . S
C776 C777 1.370 . S
C776 C778 1.363 . S
C776 H792 0.931 . S
C777 C776 1.370 . S
C777 C781 1.408 . S
C778 C776 1.363 . S
C778 C779 1.370 . S
C778 C782 1.524 . S
C779 C771 1.503 . S
C779 C778 1.370 . S
C779 C780 1.403 . S
C780 C779 1.403 . S
C780 C781 1.404 . S
C780 C783 1.539 . S
C781 C777 1.408 . S
C781 C780 1.404 . S
C781 H793 0.930 . S
C782 C778 1.524 . S
C782 H794 0.956 . S
C782 H795 0.961 . S
C782 H796 0.961 . S
C783 C780 1.539 . S
C783 H797 0.958 . S
C783 H798 0.961 . S
C783 H799 0.960 . S
H784 C768 0.931 . S
H785 C773 0.929 . S
H786 C774 0.960 . S
H787 C774 0.962 . S
H788 C774 0.960 . S
H789 C775 0.961 . S
H790 C775 0.961 . S
H791 C775 0.961 . S
H792 C776 0.931 . S
H793 C781 0.930 . S
H794 C782 0.956 . S
H795 C782 0.961 . S
H796 C782 0.961 . S
H797 C783 0.958 . S
H798 C783 0.961 . S
H799 C783 0.960 . S
C800 C801 1.391 . S
C800 C802 1.394 . S
C800 H816 0.931 . S
C801 C800 1.391 . S
C801 C805 1.376 . S
C802 C800 1.394 . S
C802 C803 1.369 . S
C802 C806 1.531 . S
C803 C802 1.369 . S
C803 C804 1.410 . S
C803 C811 1.503 . S
C804 C803 1.410 . S
C804 C805 1.392 . S
C804 C807 1.511 . S
C805 C801 1.376 . S
C805 C804 1.392 . S
C805 H817 0.929 . S
C806 C802 1.531 . S
C806 H818 0.960 . S
C806 H819 0.962 . S
C806 H820 0.960 . S
C807 C804 1.511 . S
C807 H821 0.961 . S
C807 H822 0.961 . S
C807 H823 0.961 . S
C808 C809 1.370 . S
C808 C810 1.363 . S
C808 H824 0.931 . S
C809 C808 1.370 . S
C809 C813 1.408 . S
C810 C808 1.363 . S
C810 C811 1.370 . S
C810 C814 1.524 . S
C811 C803 1.503 . S
C811 C810 1.370 . S
C811 C812 1.403 . S
C812 C811 1.403 . S
C812 C813 1.404 . S
C812 C815 1.539 . S
C813 C809 1.408 . S
C813 C812 1.404 . S
C813 H825 0.930 . S
C814 C810 1.524 . S
C814 H826 0.956 . S
C814 H827 0.961 . S
C814 H828 0.961 . S
C815 C812 1.539 . S
C815 H829 0.958 . S
C815 H830 0.961 . S
C815 H831 0.960 . S
H816 C800 0.931 . S
H817 C805 0.929 . S
H818 C806 0.960 . S
H819 C806 0.962 . S
H820 C806 0.960 . S
H821 C807 0.961 . S
H822 C807 0.961 . S
H823 C807 0.961 . S
H824 C808 0.931 . S
H825 C813 0.930 . S
H826 C814 0.956 . S
H827 C814 0.961 . S
H828 C814 0.961 . S
H829 C815 0.958 . S
H830 C815 0.961 . S
H831 C815 0.960 . S
C832 C833 1.391 . S
C832 C834 1.394 . S
C832 H848 0.931 . S
C833 C832 1.391 . S
C833 C837 1.376 . S
C834 C832 1.394 . S
C834 C835 1.369 . S
C834 C838 1.531 . S
C835 C834 1.369 . S
C835 C836 1.410 . S
C835 C843 1.503 . S
C836 C835 1.410 . S
C836 C837 1.392 . S
C836 C839 1.511 . S
C837 C833 1.376 . S
C837 C836 1.392 . S
C837 H849 0.929 . S
C838 C834 1.531 . S
C838 H850 0.960 . S
C838 H851 0.962 . S
C838 H852 0.960 . S
C839 C836 1.511 . S
C839 H853 0.961 . S
C839 H854 0.961 . S
C839 H855 0.961 . S
C840 C841 1.370 . S
C840 C842 1.363 . S
C840 H856 0.931 . S
C841 C840 1.370 . S
C841 C845 1.408 . S
C842 C840 1.363 . S
C842 C843 1.370 . S
C842 C846 1.524 . S
C843 C835 1.503 . S
C843 C842 1.370 . S
C843 C844 1.403 . S
C844 C843 1.403 . S
C844 C845 1.404 . S
C844 C847 1.539 . S
C845 C841 1.408 . S
C845 C844 1.404 . S
C845 H857 0.930 . S
C846 C842 1.524 . S
C846 H858 0.956 . S
C846 H859 0.961 . S
C846 H860 0.961 . S
C847 C844 1.539 . S
C847 H861 0.958 . S
C847 H862 0.961 . S
C847 H863 0.960 . S
H848 C832 0.931 . S
H849 C837 0.929 . S
H850 C838 0.960 . S
H851 C838 0.962 . S
H852 C838 0.960 . S
H853 C839 0.961 . S
H854 C839 0.961 . S
H855 C839 0.961 . S
H856 C840 0.931 . S
H857 C845 0.930 . S
H858 C846 0.956 . S
H859 C846 0.961 . S
H860 C846 0.961 . S
H861 C847 0.958 . S
H862 C847 0.961 . S
H863 C847 0.960 . S
C864 C865 1.391 . S
C864 C866 1.394 . S
C864 H880 0.931 . S
C865 C864 1.391 . S
C865 C869 1.376 . S
C866 C864 1.394 . S
C866 C867 1.369 . S
C866 C870 1.531 . S
C867 C866 1.369 . S
C867 C868 1.410 . S
C867 C875 1.503 . S
C868 C867 1.410 . S
C868 C869 1.392 . S
C868 C871 1.511 . S
C869 C865 1.376 . S
C869 C868 1.392 . S
C869 H881 0.929 . S
C870 C866 1.531 . S
C870 H882 0.960 . S
C870 H883 0.962 . S
C870 H884 0.960 . S
C871 C868 1.511 . S
C871 H885 0.961 . S
C871 H886 0.961 . S
C871 H887 0.961 . S
C872 C873 1.370 . S
C872 C874 1.363 . S
C872 H888 0.931 . S
C873 C872 1.370 . S
C873 C877 1.408 . S
C874 C872 1.363 . S
C874 C875 1.370 . S
C874 C878 1.524 . S
C875 C867 1.503 . S
C875 C874 1.370 . S
C875 C876 1.403 . S
C876 C875 1.403 . S
C876 C877 1.404 . S
C876 C879 1.539 . S
C877 C873 1.408 . S
C877 C876 1.404 . S
C877 H889 0.930 . S
C878 C874 1.524 . S
C878 H890 0.956 . S
C878 H891 0.961 . S
C878 H892 0.961 . S
C879 C876 1.539 . S
C879 H893 0.958 . S
C879 H894 0.961 . S
C879 H895 0.960 . S
H880 C864 0.931 . S
H881 C869 0.929 . S
H882 C870 0.960 . S
H883 C870 0.962 . S
H884 C870 0.960 . S
H885 C871 0.961 . S
H886 C871 0.961 . S
H887 C871 0.961 . S
H888 C872 0.931 . S
H889 C877 0.930 . S
H890 C878 0.956 . S
H891 C878 0.961 . S
H892 C878 0.961 . S
H893 C879 0.958 . S
H894 C879 0.961 . S
H895 C879 0.960 . S
C896 C897 1.391 . S
C896 C898 1.394 . S
C896 H912 0.931 1_554 S
C897 C896 1.391 . S
C897 C901 1.376 . S
C898 C896 1.394 . S
C898 C899 1.370 . S
C898 C902 1.529 1_554 S
C899 C898 1.370 . S
C899 C900 1.410 . S
C899 C907 1.503 . S
C900 C899 1.410 . S
C900 C901 1.392 . S
C900 C903 1.511 . S
C901 C897 1.376 . S
C901 C900 1.392 . S
C901 H913 0.929 . S
C902 C898 1.529 1_556 S
C902 H914 0.960 . S
C902 H915 0.958 1_556 S
C902 H916 0.960 . S
C903 C900 1.511 . S
C903 H917 0.961 . S
C903 H918 0.961 . S
C903 H919 0.961 . S
C904 C905 1.370 . S
C904 C906 1.363 . S
C904 H920 0.931 . S
C905 C904 1.370 . S
C905 C909 1.408 1_554 S
C906 C904 1.363 . S
C906 C907 1.370 . S
C906 C910 1.524 . S
C907 C899 1.503 . S
C907 C906 1.370 . S
C907 C908 1.403 1_554 S
C908 C907 1.403 1_556 S
C908 C909 1.404 . S
C908 C911 1.539 . S
C909 C905 1.408 1_556 S
C909 C908 1.404 . S
C909 H921 0.930 . S
C910 C906 1.524 . S
C910 H922 0.956 . S
C910 H923 0.961 . S
C910 H924 0.961 . S
C911 C908 1.539 . S
C911 H925 0.958 . S
C911 H926 0.961 . S
C911 H927 0.960 . S
H912 C896 0.931 1_556 S
H913 C901 0.929 . S
H914 C902 0.960 . S
H915 C902 0.958 1_554 S
H916 C902 0.960 . S
H917 C903 0.961 . S
H918 C903 0.961 . S
H919 C903 0.961 . S
H920 C904 0.931 . S
H921 C909 0.930 . S
H922 C910 0.956 . S
H923 C910 0.961 . S
H924 C910 0.961 . S
H925 C911 0.958 . S
H926 C911 0.961 . S
H927 C911 0.960 . S
C928 C929 1.391 . S
C928 C930 1.394 . S
C928 H944 0.931 . S
C929 C928 1.391 . S
C929 C933 1.376 . S
C930 C928 1.394 . S
C930 C931 1.369 . S
C930 C934 1.531 . S
C931 C930 1.369 . S
C931 C932 1.410 . S
C931 C939 1.503 . S
C932 C931 1.410 . S
C932 C933 1.392 . S
C932 C935 1.511 . S
C933 C929 1.376 . S
C933 C932 1.392 . S
C933 H945 0.929 . S
C934 C930 1.531 . S
C934 H946 0.960 . S
C934 H947 0.962 . S
C934 H948 0.960 . S
C935 C932 1.511 . S
C935 H949 0.961 . S
C935 H950 0.961 . S
C935 H951 0.961 . S
C936 C937 1.370 . S
C936 C938 1.363 . S
C936 H952 0.931 . S
C937 C936 1.370 . S
C937 C941 1.408 . S
C938 C936 1.363 . S
C938 C939 1.370 . S
C938 C942 1.524 . S
C939 C931 1.503 . S
C939 C938 1.370 . S
C939 C940 1.403 . S
C940 C939 1.403 . S
C940 C941 1.404 . S
C940 C943 1.539 . S
C941 C937 1.408 . S
C941 C940 1.404 . S
C941 H953 0.930 . S
C942 C938 1.524 . S
C942 H954 0.956 . S
C942 H955 0.961 . S
C942 H956 0.961 . S
C943 C940 1.539 . S
C943 H957 0.958 . S
C943 H958 0.961 . S
C943 H959 0.960 . S
H944 C928 0.931 . S
H945 C933 0.929 . S
H946 C934 0.960 . S
H947 C934 0.962 . S
H948 C934 0.960 . S
H949 C935 0.961 . S
H950 C935 0.961 . S
H951 C935 0.961 . S
H952 C936 0.931 . S
H953 C941 0.930 . S
H954 C942 0.956 . S
H955 C942 0.961 . S
H956 C942 0.961 . S
H957 C943 0.958 . S
H958 C943 0.961 . S
H959 C943 0.960 . S
C960 C961 1.391 . S
C960 C962 1.394 . S
C960 H976 0.931 . S
C961 C960 1.391 . S
C961 C965 1.376 . S
C962 C960 1.394 . S
C962 C963 1.369 . S
C962 C966 1.531 . S
C963 C962 1.369 . S
C963 C964 1.410 . S
C963 C971 1.503 . S
C964 C963 1.410 . S
C964 C965 1.392 . S
C964 C967 1.511 . S
C965 C961 1.376 . S
C965 C964 1.392 . S
C965 H977 0.929 . S
C966 C962 1.531 . S
C966 H978 0.960 . S
C966 H979 0.962 . S
C966 H980 0.960 . S
C967 C964 1.511 . S
C967 H981 0.961 . S
C967 H982 0.961 . S
C967 H983 0.961 . S
C968 C969 1.370 . S
C968 C970 1.363 . S
C968 H984 0.931 . S
C969 C968 1.370 . S
C969 C973 1.408 . S
C970 C968 1.363 . S
C970 C971 1.370 . S
C970 C974 1.524 . S
C971 C963 1.503 . S
C971 C970 1.370 . S
C971 C972 1.403 . S
C972 C971 1.403 . S
C972 C973 1.404 . S
C972 C975 1.539 . S
C973 C969 1.408 . S
C973 C972 1.404 . S
C973 H985 0.930 . S
C974 C970 1.524 . S
C974 H986 0.956 . S
C974 H987 0.961 . S
C974 H988 0.961 . S
C975 C972 1.539 . S
C975 H989 0.958 . S
C975 H990 0.961 . S
C975 H991 0.960 . S
H976 C960 0.931 . S
H977 C965 0.929 . S
H978 C966 0.960 . S
H979 C966 0.962 . S
H980 C966 0.960 . S
H981 C967 0.961 . S
H982 C967 0.961 . S
H983 C967 0.961 . S
H984 C968 0.931 . S
H985 C973 0.930 . S
H986 C974 0.956 . S
H987 C974 0.961 . S
H988 C974 0.961 . S
H989 C975 0.958 . S
H990 C975 0.961 . S
H991 C975 0.960 . S
C992 C993 1.391 . S
C992 C994 1.394 . S
C992 H1008 0.931 . S
C993 C992 1.391 . S
C993 C997 1.376 . S
C994 C992 1.394 . S
C994 C995 1.369 . S
C994 C998 1.531 . S
C995 C994 1.369 . S
C995 C996 1.410 . S
C995 C1003 1.503 . S
C996 C995 1.410 . S
C996 C997 1.392 . S
C996 C999 1.511 . S
C997 C993 1.376 . S
C997 C996 1.392 . S
C997 H1009 0.929 . S
C998 C994 1.531 . S
C998 H1010 0.960 . S
C998 H1011 0.962 . S
C998 H1012 0.960 . S
C999 C996 1.511 . S
C999 H1013 0.961 . S
C999 H1014 0.961 . S
C999 H1015 0.961 . S
C1000 C1001 1.370 . S
C1000 C1002 1.363 . S
C1000 H1016 0.931 . S
C1001 C1000 1.370 . S
C1001 C1005 1.408 . S
C1002 C1000 1.363 . S
C1002 C1003 1.370 . S
C1002 C1006 1.524 . S
C1003 C995 1.503 . S
C1003 C1002 1.370 . S
C1003 C1004 1.403 . S
C1004 C1003 1.403 . S
C1004 C1005 1.404 . S
C1004 C1007 1.539 . S
C1005 C1001 1.408 . S
C1005 C1004 1.404 . S
C1005 H1017 0.930 . S
C1006 C1002 1.524 . S
C1006 H1018 0.956 . S
C1006 H1019 0.961 . S
C1006 H1020 0.961 . S
C1007 C1004 1.539 . S
C1007 H1021 0.958 . S
C1007 H1022 0.961 . S
C1007 H1023 0.960 . S
H1008 C992 0.931 . S
H1009 C997 0.929 . S
H1010 C998 0.960 . S
H1011 C998 0.962 . S
H1012 C998 0.960 . S
H1013 C999 0.961 . S
H1014 C999 0.961 . S
H1015 C999 0.961 . S
H1016 C1000 0.931 . S
H1017 C1005 0.930 . S
H1018 C1006 0.956 . S
H1019 C1006 0.961 . S
H1020 C1006 0.961 . S
H1021 C1007 0.958 . S
H1022 C1007 0.961 . S
H1023 C1007 0.960 . S
C1024 C1025 1.391 . S
C1024 C1026 1.394 . S
C1024 H1040 0.931 . S
C1025 C1024 1.391 . S
C1025 C1029 1.376 . S
C1026 C1024 1.394 . S
C1026 C1027 1.369 . S
C1026 C1030 1.531 . S
C1027 C1026 1.369 . S
C1027 C1028 1.410 . S
C1027 C1035 1.503 . S
C1028 C1027 1.410 . S
C1028 C1029 1.392 . S
C1028 C1031 1.511 . S
C1029 C1025 1.376 . S
C1029 C1028 1.392 . S
C1029 H1041 0.929 . S
C1030 C1026 1.531 . S
C1030 H1042 0.960 . S
C1030 H1043 0.962 . S
C1030 H1044 0.960 . S
C1031 C1028 1.511 . S
C1031 H1045 0.961 . S
C1031 H1046 0.961 . S
C1031 H1047 0.961 . S
C1032 C1033 1.370 . S
C1032 C1034 1.363 . S
C1032 H1048 0.931 . S
C1033 C1032 1.370 . S
C1033 C1037 1.408 . S
C1034 C1032 1.363 . S
C1034 C1035 1.370 . S
C1034 C1038 1.524 . S
C1035 C1027 1.503 . S
C1035 C1034 1.370 . S
C1035 C1036 1.403 . S
C1036 C1035 1.403 . S
C1036 C1037 1.404 . S
C1036 C1039 1.539 . S
C1037 C1033 1.408 . S
C1037 C1036 1.404 . S
C1037 H1049 0.930 . S
C1038 C1034 1.524 . S
C1038 H1050 0.956 . S
C1038 H1051 0.961 . S
C1038 H1052 0.961 . S
C1039 C1036 1.539 . S
C1039 H1053 0.958 . S
C1039 H1054 0.961 . S
C1039 H1055 0.960 . S
H1040 C1024 0.931 . S
H1041 C1029 0.929 . S
H1042 C1030 0.960 . S
H1043 C1030 0.962 . S
H1044 C1030 0.960 . S
H1045 C1031 0.961 . S
H1046 C1031 0.961 . S
H1047 C1031 0.961 . S
H1048 C1032 0.931 . S
H1049 C1037 0.930 . S
H1050 C1038 0.956 . S
H1051 C1038 0.961 . S
H1052 C1038 0.961 . S
H1053 C1039 0.958 . S
H1054 C1039 0.961 . S
H1055 C1039 0.960 . S
C1056 C1057 1.391 . S
C1056 C1058 1.394 . S
C1056 H1072 0.931 . S
C1057 C1056 1.391 . S
C1057 C1061 1.376 1_556 S
C1058 C1056 1.394 . S
C1058 C1059 1.369 . S
C1058 C1062 1.531 . S
C1059 C1058 1.369 . S
C1059 C1060 1.410 1_556 S
C1059 C1067 1.503 . S
C1060 C1059 1.410 1_554 S
C1060 C1061 1.392 . S
C1060 C1063 1.511 . S
C1061 C1057 1.376 1_554 S
C1061 C1060 1.392 . S
C1061 H1073 0.929 . S
C1062 C1058 1.531 . S
C1062 H1074 0.960 . S
C1062 H1075 0.962 . S
C1062 H1076 0.960 . S
C1063 C1060 1.511 . S
C1063 H1077 0.961 . S
C1063 H1078 0.961 . S
C1063 H1079 0.961 . S
C1064 C1065 1.370 . S
C1064 C1066 1.363 . S
C1064 H1080 0.931 . S
C1065 C1064 1.370 . S
C1065 C1069 1.408 1_556 S
C1066 C1064 1.363 . S
C1066 C1067 1.370 . S
C1066 C1070 1.524 . S
C1067 C1059 1.503 . S
C1067 C1066 1.370 . S
C1067 C1068 1.403 1_556 S
C1068 C1067 1.403 1_554 S
C1068 C1069 1.404 . S
C1068 C1071 1.539 . S
C1069 C1065 1.408 1_554 S
C1069 C1068 1.404 . S
C1069 H1081 0.930 . S
C1070 C1066 1.524 . S
C1070 H1082 0.956 . S
C1070 H1083 0.961 . S
C1070 H1084 0.961 . S
C1071 C1068 1.539 . S
C1071 H1085 0.958 . S
C1071 H1086 0.961 . S
C1071 H1087 0.960 . S
H1072 C1056 0.931 . S
H1073 C1061 0.929 . S
H1074 C1062 0.960 . S
H1075 C1062 0.962 . S
H1076 C1062 0.960 . S
H1077 C1063 0.961 . S
H1078 C1063 0.961 . S
H1079 C1063 0.961 . S
H1080 C1064 0.931 . S
H1081 C1069 0.930 . S
H1082 C1070 0.956 . S
H1083 C1070 0.961 . S
H1084 C1070 0.961 . S
H1085 C1071 0.958 . S
H1086 C1071 0.961 . S
H1087 C1071 0.960 . S
C1088 C1089 1.391 . S
C1088 C1090 1.394 . S
C1088 H1104 0.931 . S
C1089 C1088 1.391 . S
C1089 C1093 1.376 . S
C1090 C1088 1.394 . S
C1090 C1091 1.369 . S
C1090 C1094 1.531 . S
C1091 C1090 1.369 . S
C1091 C1092 1.410 . S
C1091 C1099 1.503 . S
C1092 C1091 1.410 . S
C1092 C1093 1.392 . S
C1092 C1095 1.511 . S
C1093 C1089 1.376 . S
C1093 C1092 1.392 . S
C1093 H1105 0.929 . S
C1094 C1090 1.531 . S
C1094 H1106 0.960 . S
C1094 H1107 0.962 . S
C1094 H1108 0.960 . S
C1095 C1092 1.511 . S
C1095 H1109 0.961 . S
C1095 H1110 0.961 . S
C1095 H1111 0.961 . S
C1096 C1097 1.370 . S
C1096 C1098 1.363 . S
C1096 H1112 0.931 . S
C1097 C1096 1.370 . S
C1097 C1101 1.408 . S
C1098 C1096 1.363 . S
C1098 C1099 1.370 . S
C1098 C1102 1.524 . S
C1099 C1091 1.503 . S
C1099 C1098 1.370 . S
C1099 C1100 1.403 . S
C1100 C1099 1.403 . S
C1100 C1101 1.404 . S
C1100 C1103 1.539 . S
C1101 C1097 1.408 . S
C1101 C1100 1.404 . S
C1101 H1113 0.930 . S
C1102 C1098 1.524 . S
C1102 H1114 0.956 . S
C1102 H1115 0.961 . S
C1102 H1116 0.961 . S
C1103 C1100 1.539 . S
C1103 H1117 0.958 . S
C1103 H1118 0.961 . S
C1103 H1119 0.960 . S
H1104 C1088 0.931 . S
H1105 C1093 0.929 . S
H1106 C1094 0.960 . S
H1107 C1094 0.962 . S
H1108 C1094 0.960 . S
H1109 C1095 0.961 . S
H1110 C1095 0.961 . S
H1111 C1095 0.961 . S
H1112 C1096 0.931 . S
H1113 C1101 0.930 . S
H1114 C1102 0.956 . S
H1115 C1102 0.961 . S
H1116 C1102 0.961 . S
H1117 C1103 0.958 . S
H1118 C1103 0.961 . S
H1119 C1103 0.960 . S
C1120 C1121 1.391 . S
C1120 C1122 1.394 . S
C1120 H1136 0.931 . S
C1121 C1120 1.391 . S
C1121 C1125 1.376 . S
C1122 C1120 1.394 . S
C1122 C1123 1.369 . S
C1122 C1126 1.531 . S
C1123 C1122 1.369 . S
C1123 C1124 1.410 . S
C1123 C1131 1.503 . S
C1124 C1123 1.410 . S
C1124 C1125 1.392 . S
C1124 C1127 1.511 . S
C1125 C1121 1.376 . S
C1125 C1124 1.392 . S
C1125 H1137 0.929 . S
C1126 C1122 1.531 . S
C1126 H1138 0.960 . S
C1126 H1139 0.962 . S
C1126 H1140 0.960 . S
C1127 C1124 1.511 . S
C1127 H1141 0.961 . S
C1127 H1142 0.961 . S
C1127 H1143 0.961 . S
C1128 C1129 1.370 . S
C1128 C1130 1.363 . S
C1128 H1144 0.931 . S
C1129 C1128 1.370 . S
C1129 C1133 1.408 . S
C1130 C1128 1.363 . S
C1130 C1131 1.370 . S
C1130 C1134 1.524 . S
C1131 C1123 1.503 . S
C1131 C1130 1.370 . S
C1131 C1132 1.403 . S
C1132 C1131 1.403 . S
C1132 C1133 1.404 . S
C1132 C1135 1.539 . S
C1133 C1129 1.408 . S
C1133 C1132 1.404 . S
C1133 H1145 0.930 . S
C1134 C1130 1.524 . S
C1134 H1146 0.956 . S
C1134 H1147 0.961 . S
C1134 H1148 0.961 . S
C1135 C1132 1.539 . S
C1135 H1149 0.958 . S
C1135 H1150 0.961 . S
C1135 H1151 0.960 . S
H1136 C1120 0.931 . S
H1137 C1125 0.929 . S
H1138 C1126 0.960 . S
H1139 C1126 0.962 . S
H1140 C1126 0.960 . S
H1141 C1127 0.961 . S
H1142 C1127 0.961 . S
H1143 C1127 0.961 . S
H1144 C1128 0.931 . S
H1145 C1133 0.930 . S
H1146 C1134 0.956 . S
H1147 C1134 0.961 . S
H1148 C1134 0.961 . S
H1149 C1135 0.958 . S
H1150 C1135 0.961 . S
H1151 C1135 0.960 . S
C1152 C1153 1.391 . S
C1152 C1154 1.394 . S
C1152 H1168 0.931 . S
C1153 C1152 1.391 . S
C1153 C1157 1.376 . S
C1154 C1152 1.394 . S
C1154 C1155 1.369 . S
C1154 C1158 1.531 . S
C1155 C1154 1.369 . S
C1155 C1156 1.410 . S
C1155 C1163 1.503 . S
C1156 C1155 1.410 . S
C1156 C1157 1.392 . S
C1156 C1159 1.511 . S
C1157 C1153 1.376 . S
C1157 C1156 1.392 . S
C1157 H1169 0.929 . S
C1158 C1154 1.531 . S
C1158 H1170 0.960 . S
C1158 H1171 0.962 . S
C1158 H1172 0.960 . S
C1159 C1156 1.511 . S
C1159 H1173 0.961 . S
C1159 H1174 0.961 . S
C1159 H1175 0.961 . S
C1160 C1161 1.370 . S
C1160 C1162 1.363 . S
C1160 H1176 0.931 . S
C1161 C1160 1.370 . S
C1161 C1165 1.408 . S
C1162 C1160 1.363 . S
C1162 C1163 1.370 . S
C1162 C1166 1.524 . S
C1163 C1155 1.503 . S
C1163 C1162 1.370 . S
C1163 C1164 1.403 . S
C1164 C1163 1.403 . S
C1164 C1165 1.404 . S
C1164 C1167 1.539 . S
C1165 C1161 1.408 . S
C1165 C1164 1.404 . S
C1165 H1177 0.930 . S
C1166 C1162 1.524 . S
C1166 H1178 0.956 . S
C1166 H1179 0.961 . S
C1166 H1180 0.961 . S
C1167 C1164 1.539 . S
C1167 H1181 0.958 . S
C1167 H1182 0.961 . S
C1167 H1183 0.960 . S
H1168 C1152 0.931 . S
H1169 C1157 0.929 . S
H1170 C1158 0.960 . S
H1171 C1158 0.962 . S
H1172 C1158 0.960 . S
H1173 C1159 0.961 . S
H1174 C1159 0.961 . S
H1175 C1159 0.961 . S
H1176 C1160 0.931 . S
H1177 C1165 0.930 . S
H1178 C1166 0.956 . S
H1179 C1166 0.961 . S
H1180 C1166 0.961 . S
H1181 C1167 0.958 . S
H1182 C1167 0.961 . S
H1183 C1167 0.960 . S
C1184 C1185 1.391 . S
C1184 C1186 1.394 . S
C1184 H1200 0.931 . S
C1185 C1184 1.391 . S
C1185 C1189 1.376 . S
C1186 C1184 1.394 . S
C1186 C1187 1.369 . S
C1186 C1190 1.531 . S
C1187 C1186 1.369 . S
C1187 C1188 1.410 . S
C1187 C1195 1.503 . S
C1188 C1187 1.410 . S
C1188 C1189 1.392 . S
C1188 C1191 1.511 . S
C1189 C1185 1.376 . S
C1189 C1188 1.392 . S
C1189 H1201 0.929 . S
C1190 C1186 1.531 . S
C1190 H1202 0.960 . S
C1190 H1203 0.962 . S
C1190 H1204 0.960 . S
C1191 C1188 1.511 . S
C1191 H1205 0.961 . S
C1191 H1206 0.961 . S
C1191 H1207 0.961 . S
C1192 C1193 1.370 . S
C1192 C1194 1.363 . S
C1192 H1208 0.931 . S
C1193 C1192 1.370 . S
C1193 C1197 1.408 . S
C1194 C1192 1.363 . S
C1194 C1195 1.370 . S
C1194 C1198 1.524 . S
C1195 C1187 1.503 . S
C1195 C1194 1.370 . S
C1195 C1196 1.403 . S
C1196 C1195 1.403 . S
C1196 C1197 1.404 . S
C1196 C1199 1.539 . S
C1197 C1193 1.408 . S
C1197 C1196 1.404 . S
C1197 H1209 0.930 . S
C1198 C1194 1.524 . S
C1198 H1210 0.956 . S
C1198 H1211 0.961 . S
C1198 H1212 0.961 . S
C1199 C1196 1.539 . S
C1199 H1213 0.958 . S
C1199 H1214 0.961 . S
C1199 H1215 0.960 . S
H1200 C1184 0.931 . S
H1201 C1189 0.929 . S
H1202 C1190 0.960 . S
H1203 C1190 0.962 . S
H1204 C1190 0.960 . S
H1205 C1191 0.961 . S
H1206 C1191 0.961 . S
H1207 C1191 0.961 . S
H1208 C1192 0.931 . S
H1209 C1197 0.930 . S
H1210 C1198 0.956 . S
H1211 C1198 0.961 . S
H1212 C1198 0.961 . S
H1213 C1199 0.958 . S
H1214 C1199 0.961 . S
H1215 C1199 0.960 . S
C1216 C1217 1.391 . S
C1216 C1218 1.394 . S
C1216 H1232 0.931 . S
C1217 C1216 1.391 . S
C1217 C1221 1.376 . S
C1218 C1216 1.394 . S
C1218 C1219 1.369 . S
C1218 C1222 1.531 . S
C1219 C1218 1.369 . S
C1219 C1220 1.410 . S
C1219 C1227 1.503 . S
C1220 C1219 1.410 . S
C1220 C1221 1.392 . S
C1220 C1223 1.511 . S
C1221 C1217 1.376 . S
C1221 C1220 1.392 . S
C1221 H1233 0.929 . S
C1222 C1218 1.531 . S
C1222 H1234 0.960 . S
C1222 H1235 0.962 . S
C1222 H1236 0.960 . S
C1223 C1220 1.511 . S
C1223 H1237 0.961 . S
C1223 H1238 0.961 . S
C1223 H1239 0.961 . S
C1224 C1225 1.370 . S
C1224 C1226 1.363 . S
C1224 H1240 0.931 . S
C1225 C1224 1.370 . S
C1225 C1229 1.408 . S
C1226 C1224 1.363 . S
C1226 C1227 1.370 . S
C1226 C1230 1.524 . S
C1227 C1219 1.503 . S
C1227 C1226 1.370 . S
C1227 C1228 1.403 . S
C1228 C1227 1.403 . S
C1228 C1229 1.404 . S
C1228 C1231 1.539 . S
C1229 C1225 1.408 . S
C1229 C1228 1.404 . S
C1229 H1241 0.930 . S
C1230 C1226 1.524 . S
C1230 H1242 0.956 . S
C1230 H1243 0.961 . S
C1230 H1244 0.961 . S
C1231 C1228 1.539 . S
C1231 H1245 0.958 . S
C1231 H1246 0.961 . S
C1231 H1247 0.960 . S
H1232 C1216 0.931 . S
H1233 C1221 0.929 . S
H1234 C1222 0.960 . S
H1235 C1222 0.962 . S
H1236 C1222 0.960 . S
H1237 C1223 0.961 . S
H1238 C1223 0.961 . S
H1239 C1223 0.961 . S
H1240 C1224 0.931 . S
H1241 C1229 0.930 . S
H1242 C1230 0.956 . S
H1243 C1230 0.961 . S
H1244 C1230 0.961 . S
H1245 C1231 0.958 . S
H1246 C1231 0.961 . S
H1247 C1231 0.960 . S
C1248 C1249 1.391 . S
C1248 C1250 1.394 . S
C1248 H1264 0.931 . S
C1249 C1248 1.391 . S
C1249 C1253 1.376 . S
C1250 C1248 1.394 . S
C1250 C1251 1.369 . S
C1250 C1254 1.531 . S
C1251 C1250 1.369 . S
C1251 C1252 1.410 . S
C1251 C1259 1.503 . S
C1252 C1251 1.410 . S
C1252 C1253 1.392 . S
C1252 C1255 1.511 . S
C1253 C1249 1.376 . S
C1253 C1252 1.392 . S
C1253 H1265 0.929 . S
C1254 C1250 1.531 . S
C1254 H1266 0.960 . S
C1254 H1267 0.962 . S
C1254 H1268 0.960 . S
C1255 C1252 1.511 . S
C1255 H1269 0.961 . S
C1255 H1270 0.961 . S
C1255 H1271 0.961 . S
C1256 C1257 1.370 . S
C1256 C1258 1.363 . S
C1256 H1272 0.931 . S
C1257 C1256 1.370 . S
C1257 C1261 1.408 . S
C1258 C1256 1.363 . S
C1258 C1259 1.370 . S
C1258 C1262 1.524 . S
C1259 C1251 1.503 . S
C1259 C1258 1.370 . S
C1259 C1260 1.403 . S
C1260 C1259 1.403 . S
C1260 C1261 1.404 . S
C1260 C1263 1.539 . S
C1261 C1257 1.408 . S
C1261 C1260 1.404 . S
C1261 H1273 0.930 . S
C1262 C1258 1.524 . S
C1262 H1274 0.956 . S
C1262 H1275 0.961 . S
C1262 H1276 0.961 . S
C1263 C1260 1.539 . S
C1263 H1277 0.958 . S
C1263 H1278 0.961 . S
C1263 H1279 0.960 . S
H1264 C1248 0.931 . S
H1265 C1253 0.929 . S
H1266 C1254 0.960 . S
H1267 C1254 0.962 . S
H1268 C1254 0.960 . S
H1269 C1255 0.961 . S
H1270 C1255 0.961 . S
H1271 C1255 0.961 . S
H1272 C1256 0.931 . S
H1273 C1261 0.930 . S
H1274 C1262 0.956 . S
H1275 C1262 0.961 . S
H1276 C1262 0.961 . S
H1277 C1263 0.958 . S
H1278 C1263 0.961 . S
H1279 C1263 0.960 . S
C1280 C1281 1.391 . S
C1280 C1282 1.394 . S
C1280 H1296 0.931 . S
C1281 C1280 1.391 . S
C1281 C1285 1.376 . S
C1282 C1280 1.394 . S
C1282 C1283 1.369 . S
C1282 C1286 1.531 . S
C1283 C1282 1.369 . S
C1283 C1284 1.410 . S
C1283 C1291 1.503 . S
C1284 C1283 1.410 . S
C1284 C1285 1.392 . S
C1284 C1287 1.511 . S
C1285 C1281 1.376 . S
C1285 C1284 1.392 . S
C1285 H1297 0.929 . S
C1286 C1282 1.531 . S
C1286 H1298 0.960 . S
C1286 H1299 0.962 . S
C1286 H1300 0.960 . S
C1287 C1284 1.511 . S
C1287 H1301 0.961 . S
C1287 H1302 0.961 . S
C1287 H1303 0.961 . S
C1288 C1289 1.370 . S
C1288 C1290 1.363 . S
C1288 H1304 0.931 . S
C1289 C1288 1.370 . S
C1289 C1293 1.408 . S
C1290 C1288 1.363 . S
C1290 C1291 1.370 . S
C1290 C1294 1.524 . S
C1291 C1283 1.503 . S
C1291 C1290 1.370 . S
C1291 C1292 1.403 . S
C1292 C1291 1.403 . S
C1292 C1293 1.404 . S
C1292 C1295 1.539 . S
C1293 C1289 1.408 . S
C1293 C1292 1.404 . S
C1293 H1305 0.930 . S
C1294 C1290 1.524 . S
C1294 H1306 0.956 . S
C1294 H1307 0.961 . S
C1294 H1308 0.961 . S
C1295 C1292 1.539 . S
C1295 H1309 0.958 . S
C1295 H1310 0.961 . S
C1295 H1311 0.960 . S
H1296 C1280 0.931 . S
H1297 C1285 0.929 . S
H1298 C1286 0.960 . S
H1299 C1286 0.962 . S
H1300 C1286 0.960 . S
H1301 C1287 0.961 . S
H1302 C1287 0.961 . S
H1303 C1287 0.961 . S
H1304 C1288 0.931 . S
H1305 C1293 0.930 . S
H1306 C1294 0.956 . S
H1307 C1294 0.961 . S
H1308 C1294 0.961 . S
H1309 C1295 0.958 . S
H1310 C1295 0.961 . S
H1311 C1295 0.960 . S
C1312 C1313 1.391 . S
C1312 C1314 1.394 . S
C1312 H1328 0.931 . S
C1313 C1312 1.391 . S
C1313 C1317 1.376 . S
C1314 C1312 1.394 . S
C1314 C1315 1.369 . S
C1314 C1318 1.531 . S
C1315 C1314 1.369 . S
C1315 C1316 1.410 . S
C1315 C1323 1.503 . S
C1316 C1315 1.410 . S
C1316 C1317 1.392 . S
C1316 C1319 1.511 . S
C1317 C1313 1.376 . S
C1317 C1316 1.392 . S
C1317 H1329 0.929 . S
C1318 C1314 1.531 . S
C1318 H1330 0.960 . S
C1318 H1331 0.962 . S
C1318 H1332 0.960 . S
C1319 C1316 1.511 . S
C1319 H1333 0.961 . S
C1319 H1334 0.961 . S
C1319 H1335 0.961 . S
C1320 C1321 1.370 . S
C1320 C1322 1.363 . S
C1320 H1336 0.931 . S
C1321 C1320 1.370 . S
C1321 C1325 1.408 . S
C1322 C1320 1.363 . S
C1322 C1323 1.370 . S
C1322 C1326 1.524 . S
C1323 C1315 1.503 . S
C1323 C1322 1.370 . S
C1323 C1324 1.403 . S
C1324 C1323 1.403 . S
C1324 C1325 1.404 . S
C1324 C1327 1.539 . S
C1325 C1321 1.408 . S
C1325 C1324 1.404 . S
C1325 H1337 0.930 . S
C1326 C1322 1.524 . S
C1326 H1338 0.956 . S
C1326 H1339 0.961 . S
C1326 H1340 0.961 . S
C1327 C1324 1.539 . S
C1327 H1341 0.958 . S
C1327 H1342 0.961 . S
C1327 H1343 0.960 . S
H1328 C1312 0.931 . S
H1329 C1317 0.929 . S
H1330 C1318 0.960 . S
H1331 C1318 0.962 . S
H1332 C1318 0.960 . S
H1333 C1319 0.961 . S
H1334 C1319 0.961 . S
H1335 C1319 0.961 . S
H1336 C1320 0.931 . S
H1337 C1325 0.930 . S
H1338 C1326 0.956 . S
H1339 C1326 0.961 . S
H1340 C1326 0.961 . S
H1341 C1327 0.958 . S
H1342 C1327 0.961 . S
H1343 C1327 0.960 . S
C1344 C1345 1.391 . S
C1344 C1346 1.394 . S
C1344 H1360 0.931 . S
C1345 C1344 1.391 . S
C1345 C1349 1.376 . S
C1346 C1344 1.394 . S
C1346 C1347 1.369 . S
C1346 C1350 1.531 . S
C1347 C1346 1.369 . S
C1347 C1348 1.410 . S
C1347 C1355 1.503 . S
C1348 C1347 1.410 . S
C1348 C1349 1.392 . S
C1348 C1351 1.511 . S
C1349 C1345 1.376 . S
C1349 C1348 1.392 . S
C1349 H1361 0.929 . S
C1350 C1346 1.531 . S
C1350 H1362 0.960 . S
C1350 H1363 0.962 . S
C1350 H1364 0.960 . S
C1351 C1348 1.511 . S
C1351 H1365 0.961 . S
C1351 H1366 0.961 . S
C1351 H1367 0.961 . S
C1352 C1353 1.370 . S
C1352 C1354 1.363 . S
C1352 H1368 0.931 . S
C1353 C1352 1.370 . S
C1353 C1357 1.408 . S
C1354 C1352 1.363 . S
C1354 C1355 1.370 . S
C1354 C1358 1.524 . S
C1355 C1347 1.503 . S
C1355 C1354 1.370 . S
C1355 C1356 1.403 . S
C1356 C1355 1.403 . S
C1356 C1357 1.404 . S
C1356 C1359 1.539 . S
C1357 C1353 1.408 . S
C1357 C1356 1.404 . S
C1357 H1369 0.930 . S
C1358 C1354 1.524 . S
C1358 H1370 0.956 . S
C1358 H1371 0.961 . S
C1358 H1372 0.961 . S
C1359 C1356 1.539 . S
C1359 H1373 0.958 . S
C1359 H1374 0.961 . S
C1359 H1375 0.960 . S
H1360 C1344 0.931 . S
H1361 C1349 0.929 . S
H1362 C1350 0.960 . S
H1363 C1350 0.962 . S
H1364 C1350 0.960 . S
H1365 C1351 0.961 . S
H1366 C1351 0.961 . S
H1367 C1351 0.961 . S
H1368 C1352 0.931 . S
H1369 C1357 0.930 . S
H1370 C1358 0.956 . S
H1371 C1358 0.961 . S
H1372 C1358 0.961 . S
H1373 C1359 0.958 . S
H1374 C1359 0.961 . S
H1375 C1359 0.960 . S
C1376 C1377 1.391 . S
C1376 C1378 1.394 . S
C1376 H1392 0.931 . S
C1377 C1376 1.391 . S
C1377 C1381 1.376 . S
C1378 C1376 1.394 . S
C1378 C1379 1.369 . S
C1378 C1382 1.531 . S
C1379 C1378 1.369 . S
C1379 C1380 1.410 . S
C1379 C1387 1.503 . S
C1380 C1379 1.410 . S
C1380 C1381 1.392 . S
C1380 C1383 1.511 . S
C1381 C1377 1.376 . S
C1381 C1380 1.392 . S
C1381 H1393 0.929 . S
C1382 C1378 1.531 . S
C1382 H1394 0.960 . S
C1382 H1395 0.962 . S
C1382 H1396 0.960 . S
C1383 C1380 1.511 . S
C1383 H1397 0.961 . S
C1383 H1398 0.961 . S
C1383 H1399 0.961 . S
C1384 C1385 1.370 . S
C1384 C1386 1.363 . S
C1384 H1400 0.931 . S
C1385 C1384 1.370 . S
C1385 C1389 1.408 . S
C1386 C1384 1.363 . S
C1386 C1387 1.370 . S
C1386 C1390 1.524 . S
C1387 C1379 1.503 . S
C1387 C1386 1.370 . S
C1387 C1388 1.403 . S
C1388 C1387 1.403 . S
C1388 C1389 1.404 . S
C1388 C1391 1.539 . S
C1389 C1385 1.408 . S
C1389 C1388 1.404 . S
C1389 H1401 0.930 . S
C1390 C1386 1.524 . S
C1390 H1402 0.956 . S
C1390 H1403 0.961 . S
C1390 H1404 0.961 . S
C1391 C1388 1.539 . S
C1391 H1405 0.958 . S
C1391 H1406 0.961 . S
C1391 H1407 0.960 . S
H1392 C1376 0.931 . S
H1393 C1381 0.929 . S
H1394 C1382 0.960 . S
H1395 C1382 0.962 . S
H1396 C1382 0.960 . S
H1397 C1383 0.961 . S
H1398 C1383 0.961 . S
H1399 C1383 0.961 . S
H1400 C1384 0.931 . S
H1401 C1389 0.930 . S
H1402 C1390 0.956 . S
H1403 C1390 0.961 . S
H1404 C1390 0.961 . S
H1405 C1391 0.958 . S
H1406 C1391 0.961 . S
H1407 C1391 0.960 . S
C1408 C1409 1.391 . S
C1408 C1410 1.394 . S
C1408 H1424 0.931 . S
C1409 C1408 1.391 . S
C1409 C1413 1.376 . S
C1410 C1408 1.394 . S
C1410 C1411 1.369 . S
C1410 C1414 1.531 . S
C1411 C1410 1.369 . S
C1411 C1412 1.410 . S
C1411 C1419 1.503 . S
C1412 C1411 1.410 . S
C1412 C1413 1.392 . S
C1412 C1415 1.511 . S
C1413 C1409 1.376 . S
C1413 C1412 1.392 . S
C1413 H1425 0.929 . S
C1414 C1410 1.531 . S
C1414 H1426 0.960 . S
C1414 H1427 0.962 . S
C1414 H1428 0.960 . S
C1415 C1412 1.511 . S
C1415 H1429 0.961 . S
C1415 H1430 0.961 . S
C1415 H1431 0.961 . S
C1416 C1417 1.370 . S
C1416 C1418 1.363 . S
C1416 H1432 0.931 . S
C1417 C1416 1.370 . S
C1417 C1421 1.408 . S
C1418 C1416 1.363 . S
C1418 C1419 1.370 . S
C1418 C1422 1.524 . S
C1419 C1411 1.503 . S
C1419 C1418 1.370 . S
C1419 C1420 1.403 . S
C1420 C1419 1.403 . S
C1420 C1421 1.404 . S
C1420 C1423 1.539 . S
C1421 C1417 1.408 . S
C1421 C1420 1.404 . S
C1421 H1433 0.930 . S
C1422 C1418 1.524 . S
C1422 H1434 0.956 . S
C1422 H1435 0.961 . S
C1422 H1436 0.961 . S
C1423 C1420 1.539 . S
C1423 H1437 0.958 . S
C1423 H1438 0.961 . S
C1423 H1439 0.960 . S
H1424 C1408 0.931 . S
H1425 C1413 0.929 . S
H1426 C1414 0.960 . S
H1427 C1414 0.962 . S
H1428 C1414 0.960 . S
H1429 C1415 0.961 . S
H1430 C1415 0.961 . S
H1431 C1415 0.961 . S
H1432 C1416 0.931 . S
H1433 C1421 0.930 . S
H1434 C1422 0.956 . S
H1435 C1422 0.961 . S
H1436 C1422 0.961 . S
H1437 C1423 0.958 . S
H1438 C1423 0.961 . S
H1439 C1423 0.960 . S
C1440 C1441 1.391 . S
C1440 C1442 1.394 . S
C1440 H1456 0.931 . S
C1441 C1440 1.391 . S
C1441 C1445 1.376 . S
C1442 C1440 1.394 . S
C1442 C1443 1.369 . S
C1442 C1446 1.531 . S
C1443 C1442 1.369 . S
C1443 C1444 1.410 . S
C1443 C1451 1.503 . S
C1444 C1443 1.410 . S
C1444 C1445 1.392 . S
C1444 C1447 1.511 . S
C1445 C1441 1.376 . S
C1445 C1444 1.392 . S
C1445 H1457 0.929 . S
C1446 C1442 1.531 . S
C1446 H1458 0.960 . S
C1446 H1459 0.962 . S
C1446 H1460 0.960 . S
C1447 C1444 1.511 . S
C1447 H1461 0.961 . S
C1447 H1462 0.961 . S
C1447 H1463 0.961 . S
C1448 C1449 1.370 . S
C1448 C1450 1.363 . S
C1448 H1464 0.931 . S
C1449 C1448 1.370 . S
C1449 C1453 1.408 . S
C1450 C1448 1.363 . S
C1450 C1451 1.370 . S
C1450 C1454 1.524 . S
C1451 C1443 1.503 . S
C1451 C1450 1.370 . S
C1451 C1452 1.403 . S
C1452 C1451 1.403 . S
C1452 C1453 1.404 . S
C1452 C1455 1.539 . S
C1453 C1449 1.408 . S
C1453 C1452 1.404 . S
C1453 H1465 0.930 . S
C1454 C1450 1.524 . S
C1454 H1466 0.956 . S
C1454 H1467 0.961 . S
C1454 H1468 0.961 . S
C1455 C1452 1.539 . S
C1455 H1469 0.958 . S
C1455 H1470 0.961 . S
C1455 H1471 0.960 . S
H1456 C1440 0.931 . S
H1457 C1445 0.929 . S
H1458 C1446 0.960 . S
H1459 C1446 0.962 . S
H1460 C1446 0.960 . S
H1461 C1447 0.961 . S
H1462 C1447 0.961 . S
H1463 C1447 0.961 . S
H1464 C1448 0.931 . S
H1465 C1453 0.930 . S
H1466 C1454 0.956 . S
H1467 C1454 0.961 . S
H1468 C1454 0.961 . S
H1469 C1455 0.958 . S
H1470 C1455 0.961 . S
H1471 C1455 0.960 . S
C1472 C1473 1.391 . S
C1472 C1474 1.394 . S
C1472 H1488 0.931 . S
C1473 C1472 1.391 . S
C1473 C1477 1.376 . S
C1474 C1472 1.394 . S
C1474 C1475 1.369 . S
C1474 C1478 1.531 . S
C1475 C1474 1.369 . S
C1475 C1476 1.410 . S
C1475 C1483 1.503 . S
C1476 C1475 1.410 . S
C1476 C1477 1.392 . S
C1476 C1479 1.511 . S
C1477 C1473 1.376 . S
C1477 C1476 1.392 . S
C1477 H1489 0.929 . S
C1478 C1474 1.531 . S
C1478 H1490 0.960 . S
C1478 H1491 0.962 . S
C1478 H1492 0.960 . S
C1479 C1476 1.511 . S
C1479 H1493 0.961 . S
C1479 H1494 0.961 . S
C1479 H1495 0.961 . S
C1480 C1481 1.370 . S
C1480 C1482 1.363 . S
C1480 H1496 0.931 . S
C1481 C1480 1.370 . S
C1481 C1485 1.408 . S
C1482 C1480 1.363 . S
C1482 C1483 1.370 . S
C1482 C1486 1.524 . S
C1483 C1475 1.503 . S
C1483 C1482 1.370 . S
C1483 C1484 1.403 . S
C1484 C1483 1.403 . S
C1484 C1485 1.404 . S
C1484 C1487 1.539 . S
C1485 C1481 1.408 . S
C1485 C1484 1.404 . S
C1485 H1497 0.930 . S
C1486 C1482 1.524 . S
C1486 H1498 0.956 . S
C1486 H1499 0.961 . S
C1486 H1500 0.961 . S
C1487 C1484 1.539 . S
C1487 H1501 0.958 . S
C1487 H1502 0.961 . S
C1487 H1503 0.960 . S
H1488 C1472 0.931 . S
H1489 C1477 0.929 . S
H1490 C1478 0.960 . S
H1491 C1478 0.962 . S
H1492 C1478 0.960 . S
H1493 C1479 0.961 . S
H1494 C1479 0.961 . S
H1495 C1479 0.961 . S
H1496 C1480 0.931 . S
H1497 C1485 0.930 . S
H1498 C1486 0.956 . S
H1499 C1486 0.961 . S
H1500 C1486 0.961 . S
H1501 C1487 0.958 . S
H1502 C1487 0.961 . S
H1503 C1487 0.960 . S
C1504 C1505 1.391 . S
C1504 C1506 1.394 . S
C1504 H1520 0.931 . S
C1505 C1504 1.391 . S
C1505 C1509 1.376 . S
C1506 C1504 1.394 . S
C1506 C1507 1.369 . S
C1506 C1510 1.531 . S
C1507 C1506 1.369 . S
C1507 C1508 1.410 . S
C1507 C1515 1.503 . S
C1508 C1507 1.410 . S
C1508 C1509 1.392 . S
C1508 C1511 1.511 . S
C1509 C1505 1.376 . S
C1509 C1508 1.392 . S
C1509 H1521 0.929 . S
C1510 C1506 1.531 . S
C1510 H1522 0.960 . S
C1510 H1523 0.962 . S
C1510 H1524 0.960 . S
C1511 C1508 1.511 . S
C1511 H1525 0.961 . S
C1511 H1526 0.961 . S
C1511 H1527 0.961 . S
C1512 C1513 1.370 . S
C1512 C1514 1.363 . S
C1512 H1528 0.931 . S
C1513 C1512 1.370 . S
C1513 C1517 1.408 . S
C1514 C1512 1.363 . S
C1514 C1515 1.370 . S
C1514 C1518 1.524 . S
C1515 C1507 1.503 . S
C1515 C1514 1.370 . S
C1515 C1516 1.403 . S
C1516 C1515 1.403 . S
C1516 C1517 1.404 . S
C1516 C1519 1.539 . S
C1517 C1513 1.408 . S
C1517 C1516 1.404 . S
C1517 H1529 0.930 . S
C1518 C1514 1.524 . S
C1518 H1530 0.956 . S
C1518 H1531 0.961 . S
C1518 H1532 0.961 . S
C1519 C1516 1.539 . S
C1519 H1533 0.958 . S
C1519 H1534 0.961 . S
C1519 H1535 0.960 . S
H1520 C1504 0.931 . S
H1521 C1509 0.929 . S
H1522 C1510 0.960 . S
H1523 C1510 0.962 . S
H1524 C1510 0.960 . S
H1525 C1511 0.961 . S
H1526 C1511 0.961 . S
H1527 C1511 0.961 . S
H1528 C1512 0.931 . S
H1529 C1517 0.930 . S
H1530 C1518 0.956 . S
H1531 C1518 0.961 . S
H1532 C1518 0.961 . S
H1533 C1519 0.958 . S
H1534 C1519 0.961 . S
H1535 C1519 0.960 . S
C1536 C1537 1.391 . S
C1536 C1538 1.394 . S
C1536 H1552 0.931 . S
C1537 C1536 1.391 . S
C1537 C1541 1.376 . S
C1538 C1536 1.394 . S
C1538 C1539 1.369 . S
C1538 C1542 1.531 . S
C1539 C1538 1.369 . S
C1539 C1540 1.410 . S
C1539 C1547 1.503 . S
C1540 C1539 1.410 . S
C1540 C1541 1.392 . S
C1540 C1543 1.511 . S
C1541 C1537 1.376 . S
C1541 C1540 1.392 . S
C1541 H1553 0.929 . S
C1542 C1538 1.531 . S
C1542 H1554 0.960 . S
C1542 H1555 0.962 . S
C1542 H1556 0.960 . S
C1543 C1540 1.511 . S
C1543 H1557 0.961 . S
C1543 H1558 0.961 . S
C1543 H1559 0.961 . S
C1544 C1545 1.370 . S
C1544 C1546 1.363 . S
C1544 H1560 0.931 . S
C1545 C1544 1.370 . S
C1545 C1549 1.408 . S
C1546 C1544 1.363 . S
C1546 C1547 1.370 . S
C1546 C1550 1.524 . S
C1547 C1539 1.503 . S
C1547 C1546 1.370 . S
C1547 C1548 1.403 . S
C1548 C1547 1.403 . S
C1548 C1549 1.404 . S
C1548 C1551 1.539 . S
C1549 C1545 1.408 . S
C1549 C1548 1.404 . S
C1549 H1561 0.930 . S
C1550 C1546 1.524 . S
C1550 H1562 0.956 . S
C1550 H1563 0.961 . S
C1550 H1564 0.961 . S
C1551 C1548 1.539 . S
C1551 H1565 0.958 . S
C1551 H1566 0.961 . S
C1551 H1567 0.960 . S
H1552 C1536 0.931 . S
H1553 C1541 0.929 . S
H1554 C1542 0.960 . S
H1555 C1542 0.962 . S
H1556 C1542 0.960 . S
H1557 C1543 0.961 . S
H1558 C1543 0.961 . S
H1559 C1543 0.961 . S
H1560 C1544 0.931 . S
H1561 C1549 0.930 . S
H1562 C1550 0.956 . S
H1563 C1550 0.961 . S
H1564 C1550 0.961 . S
H1565 C1551 0.958 . S
H1566 C1551 0.961 . S
H1567 C1551 0.960 . S
C1568 C1569 1.391 . S
C1568 C1570 1.394 . S
C1568 H1584 0.931 . S
C1569 C1568 1.391 . S
C1569 C1573 1.376 . S
C1570 C1568 1.394 . S
C1570 C1571 1.369 . S
C1570 C1574 1.531 . S
C1571 C1570 1.369 . S
C1571 C1572 1.410 . S
C1571 C1579 1.503 . S
C1572 C1571 1.410 . S
C1572 C1573 1.392 . S
C1572 C1575 1.511 . S
C1573 C1569 1.376 . S
C1573 C1572 1.392 . S
C1573 H1585 0.929 . S
C1574 C1570 1.531 . S
C1574 H1586 0.960 . S
C1574 H1587 0.962 . S
C1574 H1588 0.960 . S
C1575 C1572 1.511 . S
C1575 H1589 0.961 . S
C1575 H1590 0.961 . S
C1575 H1591 0.961 . S
C1576 C1577 1.370 . S
C1576 C1578 1.363 . S
C1576 H1592 0.931 . S
C1577 C1576 1.370 . S
C1577 C1581 1.408 . S
C1578 C1576 1.363 . S
C1578 C1579 1.370 . S
C1578 C1582 1.524 . S
C1579 C1571 1.503 . S
C1579 C1578 1.370 . S
C1579 C1580 1.403 . S
C1580 C1579 1.403 . S
C1580 C1581 1.404 . S
C1580 C1583 1.539 . S
C1581 C1577 1.408 . S
C1581 C1580 1.404 . S
C1581 H1593 0.930 . S
C1582 C1578 1.524 . S
C1582 H1594 0.956 . S
C1582 H1595 0.961 . S
C1582 H1596 0.961 . S
C1583 C1580 1.539 . S
C1583 H1597 0.958 . S
C1583 H1598 0.961 . S
C1583 H1599 0.960 . S
H1584 C1568 0.931 . S
H1585 C1573 0.929 . S
H1586 C1574 0.960 . S
H1587 C1574 0.962 . S
H1588 C1574 0.960 . S
H1589 C1575 0.961 . S
H1590 C1575 0.961 . S
H1591 C1575 0.961 . S
H1592 C1576 0.931 . S
H1593 C1581 0.930 . S
H1594 C1582 0.956 . S
H1595 C1582 0.961 . S
H1596 C1582 0.961 . S
H1597 C1583 0.958 . S
H1598 C1583 0.961 . S
H1599 C1583 0.960 . S
C1600 C1601 1.391 . S
C1600 C1602 1.394 . S
C1600 H1616 0.931 . S
C1601 C1600 1.391 . S
C1601 C1605 1.376 . S
C1602 C1600 1.394 . S
C1602 C1603 1.369 . S
C1602 C1606 1.531 . S
C1603 C1602 1.369 . S
C1603 C1604 1.410 . S
C1603 C1611 1.503 . S
C1604 C1603 1.410 . S
C1604 C1605 1.392 . S
C1604 C1607 1.511 . S
C1605 C1601 1.376 . S
C1605 C1604 1.392 . S
C1605 H1617 0.929 . S
C1606 C1602 1.531 . S
C1606 H1618 0.960 . S
C1606 H1619 0.962 . S
C1606 H1620 0.960 . S
C1607 C1604 1.511 . S
C1607 H1621 0.961 . S
C1607 H1622 0.961 . S
C1607 H1623 0.961 . S
C1608 C1609 1.370 . S
C1608 C1610 1.363 . S
C1608 H1624 0.931 . S
C1609 C1608 1.370 . S
C1609 C1613 1.408 . S
C1610 C1608 1.363 . S
C1610 C1611 1.370 . S
C1610 C1614 1.524 . S
C1611 C1603 1.503 . S
C1611 C1610 1.370 . S
C1611 C1612 1.403 . S
C1612 C1611 1.403 . S
C1612 C1613 1.404 . S
C1612 C1615 1.539 . S
C1613 C1609 1.408 . S
C1613 C1612 1.404 . S
C1613 H1625 0.930 . S
C1614 C1610 1.524 . S
C1614 H1626 0.956 . S
C1614 H1627 0.961 . S
C1614 H1628 0.961 . S
C1615 C1612 1.539 . S
C1615 H1629 0.958 . S
C1615 H1630 0.961 . S
C1615 H1631 0.960 . S
H1616 C1600 0.931 . S
H1617 C1605 0.929 . S
H1618 C1606 0.960 . S
H1619 C1606 0.962 . S
H1620 C1606 0.960 . S
H1621 C1607 0.961 . S
H1622 C1607 0.961 . S
H1623 C1607 0.961 . S
H1624 C1608 0.931 . S
H1625 C1613 0.930 . S
H1626 C1614 0.956 . S
H1627 C1614 0.961 . S
H1628 C1614 0.961 . S
H1629 C1615 0.958 . S
H1630 C1615 0.961 . S
H1631 C1615 0.960 . S
C617 C521 1.467 . S
C609 C35 1.242 . S
C649 C535 1.449 . S
C641 C115 1.316 . S
C681 C543 1.489 . S
C673 C177 1.294 . S
C705 C221 1.346 . S
C713 C501 1.456 . S
C737 C283 1.297 . S
C745 C507 1.435 . S
C769 C363 1.306 . S
C777 C515 1.457 . S
C809 C529 1.556 . S
C801 C407 1.325 . S
C841 C549 1.491 . S
C833 C469 1.338 . S
C865 C159 1.240 . S
C873 C577 1.441 . S
C905 C591 1.526 . S
C897 C239 1.416 . S
C929 C53 1.315 . S
C937 C599 1.459 . S
C969 C563 1.398 . S
C961 C97 1.190 . S
C993 C425 1.278 . S
C1001 C557 1.490 . S
C1025 C487 1.294 . S
C1033 C571 1.476 . S
C1065 C585 1.478 . S
C1057 C301 1.382 . S
C1089 C345 1.397 . S
C1097 C605 1.511 . S
C1129 C524 1.847 . S
C1121 C29 1.845 . S
C1161 C547 1.867 . S
C1153 C109 1.851 . S
C1185 C171 1.812 . S
C1193 C505 1.878 . S
C1217 C215 1.868 . S
C1225 C510 1.862 . S
C1249 C277 1.860 . S
C1257 C538 1.819 . S
C1289 C496 1.836 . S
C1281 C357 1.838 . S
C1321 C519 1.873 . S
C1313 C401 1.885 . S
C1353 C533 1.872 . S
C1345 C463 1.871 . S
C1385 C580 1.826 . S
C1377 C153 1.872 . S
C1417 C603 1.863 . S
C1409 C233 1.847 . S
C1441 C47 1.811 . S
C1449 C552 1.824 . S
C1481 C566 1.819 . S
C1473 C91 1.828 . S
C1513 C594 1.869 . S
C1505 C419 1.836 . S
C1537 C481 1.838 . S
C1545 C561 1.893 . S
C1577 C575 1.892 . S
C1569 C295 1.819 . S
C1609 C589 1.876 . S
C1601 C339 1.874 . S
