# Generated by pormake.
# Topology tsx, (6,3)-cn, num edge types: 1
# Building blocks:
#     Node 0, Type 0, BuildingBlock: MIDCAF_clean_sbu_0, # of connection points: 6
#     Node 1, Type 0, BuildingBlock: MIDCAF_clean_sbu_0, # of connection points: 6
#     Node 2, Type 1, BuildingBlock: ESEHIV_clean_linker_0, # of connection points: 3
#     Node 3, Type 1, BuildingBlock: ESEHIV_clean_linker_0, # of connection points: 3
#     Node 4, Type 1, BuildingBlock: ESEHIV_clean_linker_0, # of connection points: 3
#     Node 5, Type 1, BuildingBlock: ESEHIV_clean_linker_0, # of connection points: 3
#     Edge 6, Type (0, 1), BuildingBlock: FUNLAD_clean_linker_0, # of connection points: 2
#     Edge 7, Type (0, 1), BuildingBlock: FUNLAD_clean_linker_0, # of connection points: 2
#     Edge 8, Type (0, 1), BuildingBlock: FUNLAD_clean_linker_0, # of connection points: 2
#     Edge 9, Type (0, 1), BuildingBlock: FUNLAD_clean_linker_0, # of connection points: 2
#     Edge 10, Type (0, 1), BuildingBlock: FUNLAD_clean_linker_0, # of connection points: 2
#     Edge 11, Type (0, 1), BuildingBlock: FUNLAD_clean_linker_0, # of connection points: 2
#     Edge 12, Type (0, 1), BuildingBlock: FUNLAD_clean_linker_0, # of connection points: 2
#     Edge 13, Type (0, 1), BuildingBlock: FUNLAD_clean_linker_0, # of connection points: 2
#     Edge 14, Type (0, 1), BuildingBlock: FUNLAD_clean_linker_0, # of connection points: 2
#     Edge 15, Type (0, 1), BuildingBlock: FUNLAD_clean_linker_0, # of connection points: 2
#     Edge 16, Type (0, 1), BuildingBlock: FUNLAD_clean_linker_0, # of connection points: 2
#     Edge 17, Type (0, 1), BuildingBlock: FUNLAD_clean_linker_0, # of connection points: 2
# Relax obj value: 0.119
# Max RMSD: 0.182
# Mean RMSD: 0.113
data_MOF--net-tsx--node1-MIDCAF_clean_sbu_0--node2-ESEHIV_clean_linker_0--edge1-FUNLAD_clean_linker_0
_symmetry_space_group_name_H-M    P1
_symmetry_Int_Tables_number       1
_symmetry_cell_setting            triclinic
loop_
_symmetry_equiv_pos_as_xyz
'x, y, z'
_cell_length_a     20.986405
_cell_length_b     22.478389
_cell_length_c     42.676694
_cell_angle_alpha  90.701436
_cell_angle_beta   95.442326
_cell_angle_gamma 90.105878
loop_
_atom_site_label
_atom_site_type_symbol
_atom_site_fract_x
_atom_site_fract_y
_atom_site_fract_z
_atom_type_partial_charge
Zn0 Zn 0.929 -0.00137 0.98235 0.0
Zn1 Zn 0.16225 0.02108 0.04249 0.0
Zn2 Zn 0.04434 0.01159 0.01239 0.0
C3 C 0.11332 0.13622 0.03379 0.0
C4 C 0.17668 0.96163 0.98676 0.0
O5 O 0.98484 0.95398 0.04039 0.0
O6 O 0.89107 0.94678 0.01209 0.0
C7 C 0.94659 0.12007 -0.00518 0.0
O8 O 0.06484 0.10767 0.02021 0.0
O9 O 0.16182 0.10885 0.04589 0.0
O10 O 0.21065 0.98335 0.01011 0.0
O11 O 0.11535 0.9682 0.9842 0.0
O12 O 0.90485 0.08322 0.98357 0.0
O13 O 1.00265 0.10216 0.00564 0.0
O14 O 0.05559 0.96993 0.96629 0.0
O15 O 0.95679 0.96231 0.94331 0.0
C16 C 0.01622 0.95463 0.94255 0.0
O17 O 0.04357 0.9665 0.05792 0.0
O18 O 0.14359 0.9735 0.07947 0.0
C19 C 0.92715 0.93351 0.03628 0.0
C20 C 0.08669 0.95594 0.08072 0.0
Zn21 Zn 0.66845 0.51171 0.54452 0.0
Zn22 Zn 0.44197 0.49473 0.47772 0.0
Zn23 Zn 0.55388 0.50416 0.51139 0.0
C24 C 0.5335 0.45202 0.44005 0.0
C25 C 0.46173 0.61526 0.49252 0.0
O26 O 0.54488 0.46117 0.55697 0.0
O27 O 0.64141 0.47185 0.5823 0.0
C28 C 0.68601 0.44434 0.49146 0.0
O29 O 0.56971 0.46302 0.46558 0.0
O30 O 0.47418 0.46229 0.43875 0.0
O31 O 0.41932 0.57974 0.48054 0.0
O32 O 0.51678 0.59571 0.50378 0.0
O33 O 0.71751 0.46484 0.51587 0.0
O34 O 0.62576 0.45564 0.48599 0.0
O35 O 0.579 0.59981 0.5181 0.0
O36 O 0.67607 0.59929 0.54363 0.0
C37 C 0.62914 0.62752 0.53055 0.0
O38 O 0.48807 0.44979 0.53773 0.0
O39 O 0.39981 0.44113 0.50517 0.0
C40 C 0.58434 0.45356 0.58161 0.0
C41 C 0.43089 0.42919 0.53106 0.0
H42 H 0.98864 0.06239 0.34447 0.0
H43 H 0.13545 0.93226 0.36668 0.0
H44 H 0.09922 0.06883 0.43437 0.0
C45 C 0.02578 0.04364 0.36078 0.0
C46 C 0.03919 0.07029 0.39051 0.0
C47 C 0.06005 -0.00636 0.35192 0.0
C48 C 0.10933 0.9714 0.37311 0.0
C49 C 0.1245 -0.00148 0.40279 0.0
C50 C 0.0882 0.04741 0.41159 0.0
H51 H 0.96613 0.93785 0.66233 0.0
H52 H 0.13444 0.04798 0.6696 0.0
H53 H 1.00433 0.04919 0.58524 0.0
C54 C 0.99627 0.97041 0.65235 0.0
C55 C 0.97771 0.99251 0.62226 0.0
C56 C 0.05284 0.98982 0.66965 0.0
C57 C 0.0922 0.03061 0.65593 0.0
C58 C 0.07571 0.05195 0.6254 0.0
C59 C 0.01818 0.03253 0.60861 0.0
H60 H 0.45134 0.55261 0.84679 0.0
H61 H 0.60872 0.4325 0.8664 0.0
H62 H 0.56062 0.55839 0.93716 0.0
C63 C 0.49 0.53553 0.86278 0.0
C64 C 0.5006 0.56003 0.89323 0.0
C65 C 0.5289 0.48974 0.85272 0.0
C66 C 0.57942 0.46888 0.87364 0.0
C67 C 0.59178 0.4936 0.90406 0.0
C68 C 0.55146 0.53873 0.91385 0.0
H69 H 0.4774 0.41968 0.1542 0.0
H70 H 0.64859 0.5258 0.16598 0.0
H71 H 0.52446 0.53449 0.07988 0.0
C72 C 0.50964 0.45129 0.14495 0.0
C73 C 0.49446 0.47461 0.11476 0.0
C74 C 0.56524 0.46934 0.16355 0.0
C75 C 0.6062 0.51092 0.15151 0.0
C76 C 0.59185 0.53503 0.12146 0.0
C77 C 0.5361 0.51612 0.10307 0.0
C78 C 0.10881 0.23189 0.06255 0.0
C79 C 0.11613 0.20131 0.03433 0.0
C80 C 0.13448 0.289 0.06765 0.0
C81 C 0.16918 0.31549 0.04491 0.0
C82 C 0.17009 0.28737 0.01529 0.0
C83 C 0.144 0.23042 0.01015 0.0
C84 C 0.21148 0.36682 0.05471 0.0
C85 C 0.27075 0.37184 0.04513 0.0
C86 C 0.32355 0.40769 0.06188 0.0
C87 C 0.32235 0.42673 0.0934 0.0
C88 C 0.37718 0.45058 0.11007 0.0
C89 C 0.43458 0.45576 0.09583 0.0
H90 H 0.38281 0.40104 0.0231 0.0
C91 C 0.43504 0.43964 0.06395 0.0
C92 C 0.38018 0.41564 0.04724 0.0
H93 H 0.4786 0.44294 0.05234 0.0
H94 H 0.08827 0.2097 0.08164 0.0
H95 H 0.13254 0.30992 0.09055 0.0
H96 H 0.19456 0.30747 -0.00315 0.0
H97 H 0.15056 0.20715 0.9883 0.0
H98 H 0.19751 0.39472 0.07379 0.0
H99 H 0.28404 0.34332 0.02609 0.0
H100 H 0.28059 0.42068 0.10601 0.0
H101 H 0.3751 0.46352 0.13449 0.0
C102 C 0.18107 0.8688 0.95448 0.0
C103 C 0.20804 0.92383 0.96444 0.0
C104 C 0.21684 0.82762 0.93872 0.0
C105 C 0.27978 0.84132 0.93243 0.0
C106 C 0.30464 0.89808 0.94023 0.0
C107 C 0.26945 0.9387 0.95655 0.0
C108 C 0.3219 0.79636 0.91947 0.0
C109 C 0.32315 0.73957 0.92922 0.0
C110 C 0.3704 0.69523 0.91988 0.0
C111 C 0.38763 0.64799 0.94018 0.0
C112 C 0.4314 0.60498 0.93202 0.0
C113 C 0.45802 0.60793 0.90311 0.0
H114 H 0.38445 0.73337 0.87447 0.0
C115 C 0.44096 0.6553 0.88283 0.0
C116 C 0.39757 0.69845 0.89106 0.0
H117 H 0.46092 0.65878 0.86042 0.0
H118 H 0.13386 0.85631 0.96044 0.0
H119 H 0.19598 0.78458 0.93225 0.0
H120 H 0.35277 0.90979 0.93531 0.0
H121 H 0.29111 0.98098 0.96398 0.0
H122 H 0.35763 0.81206 0.90468 0.0
H123 H 0.29157 0.7262 0.94667 0.0
H124 H 0.36717 0.64433 0.96246 0.0
H125 H 0.4431 0.56858 0.94792 0.0
C126 C 0.83778 0.89628 0.0644 0.0
C127 C 0.90209 0.89166 0.05833 0.0
C128 C 0.80805 0.85008 0.07889 0.0
C129 C 0.84176 0.79764 0.087 0.0
C130 C 0.90765 0.79521 0.08354 0.0
C131 C 0.9377 0.84192 0.06911 0.0
C132 C 0.80802 0.7442 0.09727 0.0
C133 C 0.7476 0.73116 0.08541 0.0
C134 C 0.70997 0.67893 0.09419 0.0
C135 C 0.64321 0.68033 0.08736 0.0
C136 C 0.60511 0.63311 0.09552 0.0
C137 C 0.63297 0.58292 0.11048 0.0
H138 H 0.78956 0.62424 0.11318 0.0
C139 C 0.70003 0.58058 0.11646 0.0
C140 C 0.73822 0.62805 0.10842 0.0
H141 H 0.72305 0.542 0.12743 0.0
H142 H 0.80964 0.93466 0.05663 0.0
H143 H 0.75799 0.85472 0.08264 0.0
H144 H 0.93492 0.7557 0.09017 0.0
H145 H 0.98737 0.83741 0.06455 0.0
H146 H 0.83434 0.71451 0.1136 0.0
H147 H 0.72335 0.76097 0.06836 0.0
H148 H 0.62014 0.71875 0.07621 0.0
H149 H 0.55363 0.63681 0.09093 0.0
C150 C 0.86642 0.19695 0.00402 0.0
C151 C 0.92797 0.18313 -0.00402 0.0
C152 C 0.84123 0.25366 -0.00091 0.0
C153 C 0.8771 0.29824 0.98583 0.0
C154 C 0.94042 0.28534 0.97965 0.0
C155 C 0.9659 0.22822 0.98488 0.0
C156 C 0.8461 0.35392 0.97342 0.0
C157 C 0.79017 0.37434 0.98258 0.0
C158 C 0.7456 0.41468 0.96364 0.0
C159 C 0.68843 0.43164 0.976 0.0
C160 C 0.63943 0.4596 0.95715 0.0
C161 C 0.64647 0.47123 0.9254 0.0
H162 H 0.79665 0.4176 0.92147 0.0
C163 C 0.7051 0.45775 0.91356 0.0
C164 C 0.754 0.42968 0.93233 0.0
H165 H 0.71254 0.46734 0.88935 0.0
H166 H 0.83624 0.16275 0.01259 0.0
H167 H 0.79192 0.26045 0.00356 0.0
H168 H 0.96899 0.31852 0.96916 0.0
H169 H 1.01316 0.21826 0.97808 0.0
H170 H 0.86744 0.37491 0.9542 0.0
H171 H 0.7728 0.3565 0.00372 0.0
H172 H 0.68028 0.42063 -5e-05 0.0
H173 H 0.59486 0.4693 0.96702 0.0
C174 C 0.61717 0.7308 0.55052 0.0
C175 C 0.63647 0.69191 0.52737 0.0
C176 C 0.64203 0.78868 0.55325 0.0
C177 C 0.68744 0.80778 0.53313 0.0
C178 C 0.70081 0.77064 0.50791 0.0
C179 C 0.67604 0.71294 0.50524 0.0
C180 C 0.72849 0.86137 0.54001 0.0
C181 C 0.74399 0.88168 0.56961 0.0
C182 C 0.80011 0.92052 0.57936 0.0
C183 C 0.80385 0.94675 0.60948 0.0
C184 C 0.86056 0.97315 0.62259 0.0
C185 C 0.91517 0.97378 0.60593 0.0
H186 H 0.85351 0.90403 0.53876 0.0
C187 C 0.91055 0.9513 0.57497 0.0
C188 C 0.85362 0.92459 0.56179 0.0
H189 H 0.95205 0.95102 0.56168 0.0
H190 H 0.58666 0.71515 0.56782 0.0
H191 H 0.62828 0.81689 0.57217 0.0
H192 H 0.73488 0.78431 0.49182 0.0
H193 H 0.6917 0.68325 0.48732 0.0
H194 H 0.7537 0.87849 0.52096 0.0
H195 H 0.71867 0.86453 0.58861 0.0
H196 H 0.76362 0.94435 0.62357 0.0
H197 H 0.86248 0.99106 0.64635 0.0
C198 C 0.78464 0.4107 0.46872 0.0
C199 C 0.71875 0.40379 0.47091 0.0
C200 C 0.819 0.36707 0.45414 0.0
C201 C 0.7881 0.31533 0.44154 0.0
C202 C 0.72164 0.30963 0.44255 0.0
C203 C 0.68707 0.35374 0.45692 0.0
C204 C 0.82511 0.26419 0.43066 0.0
C205 C 0.88239 0.27027 0.41931 0.0
C206 C 0.92251 0.2186 0.41235 0.0
C207 C 0.96001 0.2211 0.38691 0.0
C208 C 0.9986 0.17304 0.38003 0.0
C209 C 1.00164 0.12242 0.39906 0.0
H210 H 0.89918 0.16575 0.452 0.0
C211 C 0.96587 0.12059 0.42516 0.0
C212 C 0.92622 0.16816 0.43167 0.0
H213 H 0.96755 0.08185 0.44007 0.0
H214 H 0.8102 0.44882 0.47947 0.0
H215 H 0.8703 0.37257 0.45451 0.0
H216 H 0.69681 0.27003 0.43318 0.0
H217 H 0.63641 0.34704 0.45867 0.0
H218 H 0.80489 0.21995 0.43255 0.0
H219 H 0.90013 0.31424 0.41429 0.0
H220 H 0.95858 0.25986 0.37201 0.0
H221 H 0.02608 0.1753 0.35983 0.0
C222 C 0.33421 0.39621 0.55492 0.0
C223 C 0.40009 0.39009 0.55259 0.0
C224 C 0.30058 0.35301 0.56972 0.0
C225 C 0.33195 0.30193 0.58195 0.0
C226 C 0.39884 0.29812 0.58187 0.0
C227 C 0.43278 0.34187 0.56714 0.0
C228 C 0.29547 0.25145 0.59372 0.0
C229 C 0.23525 0.23821 0.58158 0.0
C230 C 0.19613 0.18856 0.59222 0.0
C231 C 0.12924 0.19157 0.58618 0.0
C232 C 0.09015 0.14663 0.59621 0.0
C233 C 0.11718 0.09721 0.61226 0.0
H234 H 0.27472 0.13308 0.6115 0.0
C235 C 0.18429 0.0931 0.6173 0.0
C236 C 0.2234 0.13824 0.60742 0.0
H237 H 0.20666 0.05494 0.629 0.0
H238 H 0.30818 0.43358 0.54426 0.0
H239 H 0.24969 0.35916 0.57079 0.0
H240 H 0.42432 0.25976 0.5917 0.0
H241 H 0.48361 0.3362 0.56551 0.0
H242 H 0.31968 0.22387 0.61181 0.0
H243 H 0.21237 0.26566 0.56302 0.0
H244 H 0.10696 0.22956 0.57424 0.0
H245 H 0.03871 0.15157 0.59221 0.0
C246 C 0.3838 0.69436 0.50137 0.0
C247 C 0.44531 0.67877 0.49401 0.0
C248 C 0.3616 0.75228 0.49724 0.0
C249 C 0.40052 0.79625 0.48548 0.0
C250 C 0.46364 0.78133 0.47991 0.0
C251 C 0.48609 0.723 0.48432 0.0
C252 C 0.37284 0.85365 0.47372 0.0
C253 C 0.31724 0.87551 0.48247 0.0
C254 C 0.27487 0.91698 0.46319 0.0
C255 C 0.21921 0.93797 0.47556 0.0
C256 C 0.17141 0.96682 0.45637 0.0
C257 C 0.17819 0.9751 0.4243 0.0
H258 H 0.3245 0.91295 0.42056 0.0
C259 C 0.23545 0.95746 0.41235 0.0
C260 C 0.28315 0.9286 0.43146 0.0
H261 H 0.24259 0.96431 0.38784 0.0
H262 H 0.35149 0.66084 0.50887 0.0
H263 H 0.31226 0.76073 0.50113 0.0
H264 H 0.49446 0.81402 0.47051 0.0
H265 H 0.53338 0.71168 0.47802 0.0
H266 H 0.39597 0.87475 0.45507 0.0
H267 H 0.29822 0.85779 0.50324 0.0
H268 H 0.21118 0.92945 0.49981 0.0
H269 H 0.12781 0.97983 0.46628 0.0
C270 C 1.01027 0.93723 0.12107 0.0
C271 C 0.06999 0.92727 0.10973 0.0
C272 C 0.99925 0.91957 0.15139 0.0
C273 C 0.04839 0.89251 0.17104 0.0
C274 C 0.10598 0.87812 0.15855 0.0
C275 C 0.11688 0.89568 0.12829 0.0
C276 C 0.04553 0.88538 0.20545 0.0
C277 C 1.00766 0.91868 0.2224 0.0
C278 C 0.02069 0.92783 0.25688 0.0
C279 C 0.97038 0.94464 0.27445 0.0
C280 C 0.98274 0.96324 0.3058 0.0
C281 C 0.04597 0.96662 0.32003 0.0
H282 H 0.12403 0.91785 0.25848 0.0
C283 C 0.09613 0.94773 0.30273 0.0
C284 C 0.08369 0.92851 0.27153 0.0
H285 H 0.14546 0.9507 0.3127 0.0
H286 H 0.97342 0.96183 0.1073 0.0
H287 H 0.95325 0.92954 0.15961 0.0
H288 H 0.14442 0.85672 0.17294 0.0
H289 H 0.1632 0.88694 0.11997 0.0
H290 H 0.08234 0.85819 0.21783 0.0
H291 H 0.96957 0.94524 0.21077 0.0
H292 H 0.92153 0.94496 0.26364 0.0
H293 H 0.94283 0.97641 0.31862 0.0
C294 C 0.09508 0.95425 0.90219 0.0
C295 C 0.03944 0.93124 0.91336 0.0
C296 C 0.1099 0.94046 0.87166 0.0
C297 C 0.06885 0.90355 0.8518 0.0
C298 C 0.01633 0.87679 0.86419 0.0
C299 C 1.00147 0.89082 0.89453 0.0
C300 C 0.07234 0.89838 0.81723 0.0
C301 C 0.11135 0.93085 0.80082 0.0
C302 C 0.09651 0.94026 0.7666 0.0
C303 C 0.14606 0.94783 0.74716 0.0
C304 C 0.13212 0.96212 0.7154 0.0
C305 C 0.06833 0.97059 0.70276 0.0
H306 H 0.99358 0.9448 0.76854 0.0
C307 C 0.01898 0.96314 0.72247 0.0
C308 C 0.03283 0.94792 0.75389 0.0
H309 H 0.96949 0.9711 0.714 0.0
H310 H 0.12486 0.9859 0.91623 0.0
H311 H 0.15152 0.96139 0.86349 0.0
H312 H 0.98409 0.84784 0.84967 0.0
H313 H 0.95855 0.87208 0.90276 0.0
H314 H 0.03511 0.872 0.80408 0.0
H315 H 0.15169 0.95514 0.81246 0.0
H316 H 0.19553 0.94295 0.75657 0.0
H317 H 0.17134 0.96695 0.70087 0.0
C318 C 0.50274 0.43827 0.61995 0.0
C319 C 0.56357 0.42655 0.61024 0.0
C320 C 0.48846 0.42254 0.65015 0.0
C321 C 0.53519 0.39519 0.67112 0.0
C322 C 0.59374 0.37892 0.66017 0.0
C323 C 0.60801 0.39486 0.63017 0.0
C324 C 0.529 0.38911 0.70535 0.0
C325 C 0.48917 0.42233 0.72123 0.0
C326 C 0.49923 0.43111 0.75584 0.0
C327 C 0.44675 0.44368 0.7728 0.0
C328 C 0.45605 0.46007 0.80462 0.0
C329 C 0.51828 0.46576 0.81994 0.0
H330 H 0.60311 0.42726 0.75881 0.0
C331 C 0.5707 0.45182 0.80302 0.0
C332 C 0.56133 0.43457 0.7714 0.0
H333 H 0.61932 0.45687 0.81373 0.0
H334 H 0.46766 0.46272 0.60499 0.0
H335 H 0.44188 0.43406 0.65722 0.0
H336 H 0.63038 0.35724 0.67557 0.0
H337 H 0.65507 0.38474 0.62309 0.0
H338 H 0.56486 0.36234 0.71871 0.0
H339 H 0.45164 0.44839 0.70879 0.0
H340 H 0.3985 0.44183 0.76126 0.0
H341 H 0.41444 0.46937 0.81703 0.0
C342 C 0.52256 0.40213 0.38743 0.0
C343 C 0.56098 0.4329 0.41101 0.0
C344 C 0.54291 0.3942 0.35748 0.0
C345 C 0.60246 0.41697 0.35047 0.0
C346 C 0.64255 0.44432 0.37474 0.0
C347 C 0.62201 0.45232 0.40472 0.0
C348 C 0.61954 0.42179 0.31754 0.0
C349 C 0.58861 0.39251 0.29285 0.0
C350 C 0.59168 0.41079 0.25968 0.0
C351 C 0.57255 0.37028 0.23528 0.0
C352 C 0.5661 0.38856 0.20393 0.0
C353 C 0.57803 0.44801 0.19637 0.0
H354 H 0.61795 0.50321 0.27003 0.0
C355 C 0.59872 0.48816 0.22073 0.0
C356 C 0.60539 0.46989 0.25199 0.0
H357 H 0.60694 0.53458 0.21585 0.0
H358 H 0.47518 0.38679 0.39166 0.0
H359 H 0.50968 0.37381 0.33962 0.0
H360 H 0.68841 0.46267 0.37002 0.0
H361 H 0.65216 0.47724 0.42224 0.0
H362 H 0.65593 0.45437 0.31331 0.0
H363 H 0.55688 0.35577 0.29682 0.0
H364 H 0.56104 0.32469 0.24053 0.0
H365 H 0.55069 0.35638 0.18566 0.0
loop_
_geom_bond_atom_site_label_1
_geom_bond_atom_site_label_2
_geom_bond_distance
_geom_bond_site_symmetry_2
_ccdc_geom_bond_type
Zn0 O6 1.917 1_545 S
Zn0 O12 1.898 . S
Zn0 O15 1.905 1_545 S
Zn1 O9 1.905 . S
Zn1 O10 1.898 1_545 S
Zn1 O18 1.920 1_545 S
Zn2 O5 2.080 1_445 S
Zn2 O8 2.114 . S
Zn2 O11 2.120 1_545 S
Zn2 O13 2.120 1_455 S
Zn2 O14 2.114 1_554 S
Zn2 O17 2.080 . S
C3 O8 1.166 . S
C3 O9 1.182 . S
C4 O10 1.167 . S
C4 O11 1.299 . S
O5 Zn2 2.080 1_665 S
O5 C19 1.305 . S
O6 Zn0 1.917 1_565 S
O6 C19 1.236 1_556 S
C7 O12 1.187 . S
C7 O13 1.282 1_556 S
O8 Zn2 2.114 . S
O8 C3 1.166 . S
O9 Zn1 1.905 . S
O9 C3 1.182 . S
O10 Zn1 1.898 1_565 S
O10 C4 1.167 . S
O11 Zn2 2.120 1_565 S
O11 C4 1.299 . S
O12 Zn0 1.898 . S
O12 C7 1.187 . S
O13 Zn2 2.120 1_655 S
O13 C7 1.282 1_554 S
O14 Zn2 2.114 1_556 S
O14 C16 1.166 1_545 S
O15 Zn0 1.905 1_565 S
O15 C16 1.182 1_655 S
C16 O14 1.166 1_565 S
C16 O15 1.182 1_455 S
O17 Zn2 2.080 . S
O17 C20 1.305 1_545 S
O18 Zn1 1.920 1_565 S
O18 C20 1.234 . S
C19 O5 1.305 . S
C19 O6 1.236 1_554 S
C20 O17 1.305 1_565 S
C20 O18 1.234 . S
Zn21 O27 1.920 . S
Zn21 O33 1.898 . S
Zn21 O36 1.905 . S
Zn22 O30 1.905 . S
Zn22 O31 1.898 . S
Zn22 O39 1.920 . S
Zn23 O26 2.080 . S
Zn23 O29 2.114 . S
Zn23 O32 2.120 . S
Zn23 O34 2.120 . S
Zn23 O35 2.114 . S
Zn23 O38 2.080 . S
C24 O29 1.166 . S
C24 O30 1.182 . S
C25 O31 1.167 . S
C25 O32 1.299 . S
O26 Zn23 2.080 . S
O26 C40 1.305 . S
O27 Zn21 1.920 . S
O27 C40 1.234 . S
C28 O33 1.167 . S
C28 O34 1.299 . S
O29 Zn23 2.114 . S
O29 C24 1.166 . S
O30 Zn22 1.905 . S
O30 C24 1.182 . S
O31 Zn22 1.898 . S
O31 C25 1.167 . S
O32 Zn23 2.120 . S
O32 C25 1.299 . S
O33 Zn21 1.898 . S
O33 C28 1.167 . S
O34 Zn23 2.120 . S
O34 C28 1.299 . S
O35 Zn23 2.114 . S
O35 C37 1.166 . S
O36 Zn21 1.905 . S
O36 C37 1.182 . S
C37 O35 1.166 . S
C37 O36 1.182 . S
O38 Zn23 2.080 . S
O38 C41 1.305 . S
O39 Zn22 1.920 . S
O39 C41 1.234 . S
C40 O26 1.305 . S
C40 O27 1.234 . S
C41 O38 1.305 . S
C41 O39 1.234 . S
H42 C45 0.931 . S
H43 C48 0.928 . S
H44 C50 0.930 . S
C45 H42 0.931 . S
C45 C46 1.413 . S
C45 C47 1.360 . S
C46 C45 1.413 . S
C46 C50 1.429 . S
C47 C45 1.360 . S
C47 C48 1.372 1_545 S
C48 H43 0.928 . S
C48 C47 1.372 1_565 S
C48 C49 1.404 . S
C49 C48 1.404 . S
C49 C50 1.391 1_565 S
C50 H44 0.930 . S
C50 C46 1.429 . S
C50 C49 1.391 1_545 S
H51 C54 0.931 . S
H52 C57 0.928 . S
H53 C59 0.931 . S
C54 H51 0.931 . S
C54 C55 1.413 . S
C54 C56 1.360 1_665 S
C55 C54 1.413 . S
C55 C59 1.420 1_665 S
C56 C54 1.360 1_445 S
C56 C57 1.372 . S
C57 H52 0.928 . S
C57 C56 1.372 . S
C57 C58 1.404 . S
C58 C57 1.404 . S
C58 C59 1.399 . S
C59 H53 0.931 . S
C59 C55 1.420 1_445 S
C59 C58 1.399 . S
H60 C63 0.931 . S
H61 C66 0.928 . S
H62 C68 0.930 . S
C63 H60 0.931 . S
C63 C64 1.413 . S
C63 C65 1.360 . S
C64 C63 1.413 . S
C64 C68 1.429 . S
C65 C63 1.360 . S
C65 C66 1.372 . S
C66 H61 0.928 . S
C66 C65 1.372 . S
C66 C67 1.404 . S
C67 C66 1.404 . S
C67 C68 1.391 . S
C68 H62 0.930 . S
C68 C64 1.429 . S
C68 C67 1.391 . S
H69 C72 0.931 . S
H70 C75 0.928 . S
H71 C77 0.930 . S
C72 H69 0.931 . S
C72 C73 1.413 . S
C72 C74 1.360 . S
C73 C72 1.413 . S
C73 C77 1.429 . S
C74 C72 1.360 . S
C74 C75 1.372 . S
C75 H70 0.928 . S
C75 C74 1.372 . S
C75 C76 1.404 . S
C76 C75 1.404 . S
C76 C77 1.391 . S
C77 H71 0.930 . S
C77 C73 1.429 . S
C77 C76 1.391 . S
C78 C79 1.386 . S
C78 C80 1.383 . S
C78 H94 0.951 . S
C79 C78 1.386 . S
C79 C83 1.383 . S
C80 C78 1.383 . S
C80 C81 1.402 . S
C80 H95 0.951 . S
C81 C80 1.402 . S
C81 C82 1.375 . S
C81 C84 1.481 . S
C82 C81 1.375 . S
C82 C83 1.367 . S
C82 H96 0.951 1_554 S
C83 C79 1.383 . S
C83 C82 1.367 . S
C83 H97 0.950 1_554 S
C84 C81 1.481 . S
C84 C85 1.297 . S
C84 H98 0.950 . S
C85 C84 1.297 . S
C85 C86 1.479 . S
C85 H99 0.950 . S
C86 C85 1.479 . S
C86 C87 1.375 . S
C86 C92 1.404 . S
C87 C86 1.375 . S
C87 C88 1.369 . S
C87 H100 0.950 . S
C88 C87 1.369 . S
C88 C89 1.392 . S
C88 H101 0.951 . S
C89 C88 1.392 . S
C89 C91 1.384 . S
H90 C92 0.949 . S
C91 C89 1.384 . S
C91 C92 1.385 . S
C91 H93 0.950 . S
C92 C86 1.404 . S
C92 H90 0.949 . S
C92 C91 1.385 . S
H93 C91 0.950 . S
H94 C78 0.951 . S
H95 C80 0.951 . S
H96 C82 0.951 1_556 S
H97 C83 0.950 1_556 S
H98 C84 0.950 . S
H99 C85 0.950 . S
H100 C87 0.950 . S
H101 C88 0.951 . S
C102 C103 1.386 1_554 S
C102 C104 1.383 1_554 S
C102 H118 0.951 . S
C103 C102 1.386 1_556 S
C103 C107 1.383 . S
C104 C102 1.383 1_556 S
C104 C105 1.402 . S
C104 H119 0.951 1_556 S
C105 C104 1.402 . S
C105 C106 1.375 . S
C105 C108 1.481 . S
C106 C105 1.375 . S
C106 C107 1.367 . S
C106 H120 0.951 . S
C107 C103 1.383 . S
C107 C106 1.367 . S
C107 H121 0.950 . S
C108 C105 1.481 . S
C108 C109 1.297 . S
C108 H122 0.950 . S
C109 C108 1.297 . S
C109 C110 1.479 . S
C109 H123 0.950 . S
C110 C109 1.479 . S
C110 C111 1.375 . S
C110 C116 1.404 . S
C111 C110 1.375 . S
C111 C112 1.369 . S
C111 H124 0.950 . S
C112 C111 1.369 . S
C112 C113 1.392 . S
C112 H125 0.951 . S
C113 C112 1.392 . S
C113 C115 1.384 . S
H114 C116 0.949 . S
C115 C113 1.384 . S
C115 C116 1.385 . S
C115 H117 0.950 . S
C116 C110 1.404 . S
C116 H114 0.949 . S
C116 C115 1.385 . S
H117 C115 0.950 . S
H118 C102 0.951 . S
H119 C104 0.951 1_554 S
H120 C106 0.951 . S
H121 C107 0.950 . S
H122 C108 0.950 . S
H123 C109 0.950 . S
H124 C111 0.950 . S
H125 C112 0.951 . S
C126 C127 1.386 . S
C126 C128 1.383 . S
C126 H142 0.951 . S
C127 C126 1.386 . S
C127 C131 1.383 . S
C128 C126 1.383 . S
C128 C129 1.402 . S
C128 H143 0.951 . S
C129 C128 1.402 . S
C129 C130 1.375 . S
C129 C132 1.481 . S
C130 C129 1.375 . S
C130 C131 1.367 . S
C130 H144 0.951 . S
C131 C127 1.383 . S
C131 C130 1.367 . S
C131 H145 0.950 . S
C132 C129 1.481 . S
C132 C133 1.297 . S
C132 H146 0.950 . S
C133 C132 1.297 . S
C133 C134 1.479 . S
C133 H147 0.950 . S
C134 C133 1.479 . S
C134 C135 1.375 . S
C134 C140 1.404 . S
C135 C134 1.375 . S
C135 C136 1.369 . S
C135 H148 0.950 . S
C136 C135 1.369 . S
C136 C137 1.392 . S
C136 H149 0.951 . S
C137 C136 1.392 . S
C137 C139 1.384 . S
H138 C140 0.949 . S
C139 C137 1.384 . S
C139 C140 1.385 . S
C139 H141 0.950 . S
C140 C134 1.404 . S
C140 H138 0.949 . S
C140 C139 1.385 . S
H141 C139 0.950 . S
H142 C126 0.951 . S
H143 C128 0.951 . S
H144 C130 0.951 . S
H145 C131 0.950 . S
H146 C132 0.950 . S
H147 C133 0.950 . S
H148 C135 0.950 . S
H149 C136 0.951 . S
C150 C151 1.386 . S
C150 C152 1.377 1_554 S
C150 H166 0.957 . S
C151 C150 1.386 . S
C151 C155 1.383 1_554 S
C152 C150 1.377 1_556 S
C152 C153 1.402 . S
C152 H167 0.951 . S
C153 C152 1.402 . S
C153 C154 1.375 . S
C153 C156 1.481 . S
C154 C153 1.375 . S
C154 C155 1.367 . S
C154 H168 0.951 . S
C155 C151 1.383 1_556 S
C155 C154 1.367 . S
C155 H169 0.949 1_556 S
C156 C153 1.481 . S
C156 C157 1.297 . S
C156 H170 0.950 . S
C157 C156 1.297 . S
C157 C158 1.479 . S
C157 H171 0.950 . S
C158 C157 1.479 . S
C158 C159 1.375 . S
C158 C164 1.404 . S
C159 C158 1.375 . S
C159 C160 1.369 . S
C159 H172 0.950 . S
C160 C159 1.369 . S
C160 C161 1.392 . S
C160 H173 0.951 . S
C161 C160 1.392 . S
C161 C163 1.384 . S
H162 C164 0.949 . S
C163 C161 1.384 . S
C163 C164 1.385 . S
C163 H165 0.950 . S
C164 C158 1.404 . S
C164 H162 0.949 . S
C164 C163 1.385 . S
H165 C163 0.950 . S
H166 C150 0.957 . S
H167 C152 0.951 . S
H168 C154 0.951 . S
H169 C155 0.949 1_554 S
H170 C156 0.950 . S
H171 C157 0.950 . S
H172 C159 0.950 . S
H173 C160 0.951 . S
C174 C175 1.386 . S
C174 C176 1.383 . S
C174 H190 0.951 . S
C175 C174 1.386 . S
C175 C179 1.383 . S
C176 C174 1.383 . S
C176 C177 1.402 . S
C176 H191 0.951 . S
C177 C176 1.402 . S
C177 C178 1.375 . S
C177 C180 1.481 . S
C178 C177 1.375 . S
C178 C179 1.367 . S
C178 H192 0.951 . S
C179 C175 1.383 . S
C179 C178 1.367 . S
C179 H193 0.950 . S
C180 C177 1.481 . S
C180 C181 1.297 . S
C180 H194 0.950 . S
C181 C180 1.297 . S
C181 C182 1.479 . S
C181 H195 0.950 . S
C182 C181 1.479 . S
C182 C183 1.375 . S
C182 C188 1.404 . S
C183 C182 1.375 . S
C183 C184 1.369 . S
C183 H196 0.950 . S
C184 C183 1.369 . S
C184 C185 1.392 . S
C184 H197 0.951 . S
C185 C184 1.392 . S
C185 C187 1.384 . S
H186 C188 0.949 . S
C187 C185 1.384 . S
C187 C188 1.385 . S
C187 H189 0.950 . S
C188 C182 1.404 . S
C188 H186 0.949 . S
C188 C187 1.385 . S
H189 C187 0.950 . S
H190 C174 0.951 . S
H191 C176 0.951 . S
H192 C178 0.951 . S
H193 C179 0.950 . S
H194 C180 0.950 . S
H195 C181 0.950 . S
H196 C183 0.950 . S
H197 C184 0.951 . S
C198 C199 1.386 . S
C198 C200 1.383 . S
C198 H214 0.951 . S
C199 C198 1.386 . S
C199 C203 1.383 . S
C200 C198 1.383 . S
C200 C201 1.402 . S
C200 H215 0.951 . S
C201 C200 1.402 . S
C201 C202 1.375 . S
C201 C204 1.481 . S
C202 C201 1.375 . S
C202 C203 1.367 . S
C202 H216 0.951 . S
C203 C199 1.383 . S
C203 C202 1.367 . S
C203 H217 0.950 . S
C204 C201 1.481 . S
C204 C205 1.297 . S
C204 H218 0.950 . S
C205 C204 1.297 . S
C205 C206 1.479 . S
C205 H219 0.950 . S
C206 C205 1.479 . S
C206 C207 1.375 . S
C206 C212 1.404 . S
C207 C206 1.375 . S
C207 C208 1.369 . S
C207 H220 0.950 . S
C208 C207 1.369 . S
C208 C209 1.392 . S
C208 H221 0.951 1_655 S
C209 C208 1.392 . S
C209 C211 1.384 . S
H210 C212 0.949 . S
C211 C209 1.384 . S
C211 C212 1.385 . S
C211 H213 0.950 . S
C212 C206 1.404 . S
C212 H210 0.949 . S
C212 C211 1.385 . S
H213 C211 0.950 . S
H214 C198 0.951 . S
H215 C200 0.951 . S
H216 C202 0.951 . S
H217 C203 0.950 . S
H218 C204 0.950 . S
H219 C205 0.950 . S
H220 C207 0.950 . S
H221 C208 0.951 1_455 S
C222 C223 1.386 . S
C222 C224 1.383 . S
C222 H238 0.951 . S
C223 C222 1.386 . S
C223 C227 1.383 . S
C224 C222 1.383 . S
C224 C225 1.402 . S
C224 H239 0.951 . S
C225 C224 1.402 . S
C225 C226 1.375 . S
C225 C228 1.481 . S
C226 C225 1.375 . S
C226 C227 1.367 . S
C226 H240 0.951 . S
C227 C223 1.383 . S
C227 C226 1.367 . S
C227 H241 0.950 . S
C228 C225 1.481 . S
C228 C229 1.297 . S
C228 H242 0.950 . S
C229 C228 1.297 . S
C229 C230 1.479 . S
C229 H243 0.950 . S
C230 C229 1.479 . S
C230 C231 1.375 . S
C230 C236 1.404 . S
C231 C230 1.375 . S
C231 C232 1.369 . S
C231 H244 0.950 . S
C232 C231 1.369 . S
C232 C233 1.392 . S
C232 H245 0.951 . S
C233 C232 1.392 . S
C233 C235 1.384 . S
H234 C236 0.949 . S
C235 C233 1.384 . S
C235 C236 1.385 . S
C235 H237 0.950 . S
C236 C230 1.404 . S
C236 H234 0.949 . S
C236 C235 1.385 . S
H237 C235 0.950 . S
H238 C222 0.951 . S
H239 C224 0.951 . S
H240 C226 0.951 . S
H241 C227 0.950 . S
H242 C228 0.950 . S
H243 C229 0.950 . S
H244 C231 0.950 . S
H245 C232 0.951 . S
C246 C247 1.386 . S
C246 C248 1.383 . S
C246 H262 0.951 . S
C247 C246 1.386 . S
C247 C251 1.383 . S
C248 C246 1.383 . S
C248 C249 1.402 . S
C248 H263 0.951 . S
C249 C248 1.402 . S
C249 C250 1.375 . S
C249 C252 1.481 . S
C250 C249 1.375 . S
C250 C251 1.367 . S
C250 H264 0.951 . S
C251 C247 1.383 . S
C251 C250 1.367 . S
C251 H265 0.950 . S
C252 C249 1.481 . S
C252 C253 1.297 . S
C252 H266 0.950 . S
C253 C252 1.297 . S
C253 C254 1.479 . S
C253 H267 0.950 . S
C254 C253 1.479 . S
C254 C255 1.375 . S
C254 C260 1.404 . S
C255 C254 1.375 . S
C255 C256 1.369 . S
C255 H268 0.950 . S
C256 C255 1.369 . S
C256 C257 1.392 . S
C256 H269 0.951 . S
C257 C256 1.392 . S
C257 C259 1.384 . S
H258 C260 0.949 . S
C259 C257 1.384 . S
C259 C260 1.385 . S
C259 H261 0.950 . S
C260 C254 1.404 . S
C260 H258 0.949 . S
C260 C259 1.385 . S
H261 C259 0.950 . S
H262 C246 0.951 . S
H263 C248 0.951 . S
H264 C250 0.951 . S
H265 C251 0.950 . S
H266 C252 0.950 . S
H267 C253 0.950 . S
H268 C255 0.950 . S
H269 C256 0.951 . S
C270 C271 1.386 1_655 S
C270 C272 1.383 1_655 S
C270 H286 0.951 1_565 S
C271 C270 1.386 1_455 S
C271 C275 1.383 . S
C272 C270 1.383 1_455 S
C272 C273 1.402 . S
C272 H287 0.951 1_465 S
C273 C272 1.402 . S
C273 C274 1.375 . S
C273 C276 1.481 . S
C274 C273 1.375 . S
C274 C275 1.367 . S
C274 H288 0.951 . S
C275 C271 1.383 . S
C275 C274 1.367 . S
C275 H289 0.950 . S
C276 C273 1.481 . S
C276 C277 1.297 . S
C276 H290 0.950 . S
C277 C276 1.297 . S
C277 C278 1.479 . S
C277 H291 0.950 1_455 S
C278 C277 1.479 . S
C278 C279 1.372 1_465 S
C278 C284 1.404 . S
C279 C278 1.372 1_645 S
C279 C280 1.368 1_655 S
C279 H292 0.954 . S
C280 C279 1.368 1_455 S
C280 C281 1.392 . S
C280 H293 0.951 1_455 S
C281 C280 1.392 . S
C281 C283 1.384 1_545 S
H282 C284 0.949 . S
C283 C281 1.384 1_565 S
C283 C284 1.385 . S
C283 H285 0.950 . S
C284 C278 1.404 . S
C284 H282 0.949 . S
C284 C283 1.385 . S
H285 C283 0.950 . S
H286 C270 0.951 1_545 S
H287 C272 0.951 1_645 S
H288 C274 0.951 . S
H289 C275 0.950 . S
H290 C276 0.950 . S
H291 C277 0.950 1_655 S
H292 C279 0.954 . S
H293 C280 0.951 1_655 S
C294 C295 1.386 . S
C294 C296 1.383 . S
C294 H310 0.951 . S
C295 C294 1.386 . S
C295 C299 1.383 1_455 S
C296 C294 1.383 . S
C296 C297 1.402 1_455 S
C296 H311 0.951 . S
C297 C296 1.402 1_655 S
C297 C298 1.378 . S
C297 C300 1.481 . S
C298 C297 1.378 . S
C298 C299 1.368 . S
C298 H312 0.947 1_565 S
C299 C295 1.383 1_655 S
C299 C298 1.368 . S
C299 H313 0.950 1_565 S
C300 C297 1.481 . S
C300 C301 1.297 1_655 S
C300 H314 0.950 1_565 S
C301 C300 1.297 1_455 S
C301 C302 1.479 . S
C301 H315 0.950 . S
C302 C301 1.479 . S
C302 C303 1.375 . S
C302 C308 1.404 1_465 S
C303 C302 1.375 . S
C303 C304 1.369 . S
C303 H316 0.950 . S
C304 C303 1.369 . S
C304 C305 1.392 1_565 S
C304 H317 0.951 . S
C305 C304 1.392 1_545 S
C305 C307 1.384 1_455 S
H306 C308 0.949 . S
C307 C305 1.384 1_655 S
C307 C308 1.385 . S
C307 H309 0.950 . S
C308 C302 1.404 1_645 S
C308 H306 0.949 . S
C308 C307 1.385 . S
H309 C307 0.950 . S
H310 C294 0.951 . S
H311 C296 0.951 . S
H312 C298 0.947 1_545 S
H313 C299 0.950 1_545 S
H314 C300 0.950 1_545 S
H315 C301 0.950 . S
H316 C303 0.950 . S
H317 C304 0.951 . S
C318 C319 1.386 . S
C318 C320 1.383 . S
C318 H334 0.951 . S
C319 C318 1.386 . S
C319 C323 1.383 . S
C320 C318 1.383 . S
C320 C321 1.402 . S
C320 H335 0.951 . S
C321 C320 1.402 . S
C321 C322 1.375 . S
C321 C324 1.481 . S
C322 C321 1.375 . S
C322 C323 1.367 . S
C322 H336 0.951 . S
C323 C319 1.383 . S
C323 C322 1.367 . S
C323 H337 0.950 . S
C324 C321 1.481 . S
C324 C325 1.297 . S
C324 H338 0.950 . S
C325 C324 1.297 . S
C325 C326 1.479 . S
C325 H339 0.950 . S
C326 C325 1.479 . S
C326 C327 1.375 . S
C326 C332 1.404 . S
C327 C326 1.375 . S
C327 C328 1.369 . S
C327 H340 0.950 . S
C328 C327 1.369 . S
C328 C329 1.392 . S
C328 H341 0.951 . S
C329 C328 1.392 . S
C329 C331 1.384 . S
H330 C332 0.949 . S
C331 C329 1.384 . S
C331 C332 1.385 . S
C331 H333 0.950 . S
C332 C326 1.404 . S
C332 H330 0.949 . S
C332 C331 1.385 . S
H333 C331 0.950 . S
H334 C318 0.951 . S
H335 C320 0.951 . S
H336 C322 0.951 . S
H337 C323 0.950 . S
H338 C324 0.950 . S
H339 C325 0.950 . S
H340 C327 0.950 . S
H341 C328 0.951 . S
C342 C343 1.386 . S
C342 C344 1.383 . S
C342 H358 0.951 . S
C343 C342 1.386 . S
C343 C347 1.383 . S
C344 C342 1.383 . S
C344 C345 1.402 . S
C344 H359 0.951 . S
C345 C344 1.402 . S
C345 C346 1.375 . S
C345 C348 1.481 . S
C346 C345 1.375 . S
C346 C347 1.367 . S
C346 H360 0.951 . S
C347 C343 1.383 . S
C347 C346 1.367 . S
C347 H361 0.950 . S
C348 C345 1.481 . S
C348 C349 1.297 . S
C348 H362 0.950 . S
C349 C348 1.297 . S
C349 C350 1.479 . S
C349 H363 0.950 . S
C350 C349 1.479 . S
C350 C351 1.375 . S
C350 C356 1.404 . S
C351 C350 1.375 . S
C351 C352 1.369 . S
C351 H364 0.950 . S
C352 C351 1.369 . S
C352 C353 1.392 . S
C352 H365 0.951 . S
C353 C352 1.392 . S
C353 C355 1.384 . S
H354 C356 0.949 . S
C355 C353 1.384 . S
C355 C356 1.385 . S
C355 H357 0.950 . S
C356 C350 1.404 . S
C356 H354 0.949 . S
C356 C355 1.385 . S
H357 C355 0.950 . S
H358 C342 0.951 . S
H359 C344 0.951 . S
H360 C346 0.951 . S
H361 C347 0.950 . S
H362 C348 0.950 . S
H363 C349 0.950 . S
H364 C351 0.950 . S
H365 C352 0.951 . S
C89 C73 1.182 . S
C79 C3 1.049 . S
C103 C4 1.489 1_556 S
C113 C64 1.524 . S
C127 C19 1.504 . S
C137 C76 1.565 . S
C151 C7 1.124 1_554 S
C161 C67 1.220 . S
C175 C37 1.034 . S
C185 C55 1.177 . S
C199 C28 1.431 . S
C209 C46 1.551 1_655 S
C233 C58 1.557 . S
C223 C41 1.447 . S
C257 C49 1.219 . S
C247 C25 1.115 . S
C271 C20 1.286 . S
C281 C47 1.421 . S
C295 C16 1.311 . S
C305 C56 1.481 . S
C329 C65 1.422 . S
C319 C40 1.300 . S
C343 C24 1.320 . S
C353 C74 1.495 . S
