# Generated by pormake.
# Topology tsx, (6,3)-cn, num edge types: 1
# Building blocks:
#     Node 0, Type 0, BuildingBlock: JUFBIX_clean_sbu_0, # of connection points: 6
#     Node 1, Type 0, BuildingBlock: JUFBIX_clean_sbu_0, # of connection points: 6
#     Node 2, Type 1, BuildingBlock: PAMTOO_clean_linker_0, # of connection points: 3
#     Node 3, Type 1, BuildingBlock: PAMTOO_clean_linker_0, # of connection points: 3
#     Node 4, Type 1, BuildingBlock: PAMTOO_clean_linker_0, # of connection points: 3
#     Node 5, Type 1, BuildingBlock: PAMTOO_clean_linker_0, # of connection points: 3
#     Edge 6, Type (0, 1), BuildingBlock: EZIPEK_clean_linker_0, # of connection points: 2
#     Edge 7, Type (0, 1), BuildingBlock: EZIPEK_clean_linker_0, # of connection points: 2
#     Edge 8, Type (0, 1), BuildingBlock: EZIPEK_clean_linker_0, # of connection points: 2
#     Edge 9, Type (0, 1), BuildingBlock: EZIPEK_clean_linker_0, # of connection points: 2
#     Edge 10, Type (0, 1), BuildingBlock: EZIPEK_clean_linker_0, # of connection points: 2
#     Edge 11, Type (0, 1), BuildingBlock: EZIPEK_clean_linker_0, # of connection points: 2
#     Edge 12, Type (0, 1), BuildingBlock: EZIPEK_clean_linker_0, # of connection points: 2
#     Edge 13, Type (0, 1), BuildingBlock: EZIPEK_clean_linker_0, # of connection points: 2
#     Edge 14, Type (0, 1), BuildingBlock: EZIPEK_clean_linker_0, # of connection points: 2
#     Edge 15, Type (0, 1), BuildingBlock: EZIPEK_clean_linker_0, # of connection points: 2
#     Edge 16, Type (0, 1), BuildingBlock: EZIPEK_clean_linker_0, # of connection points: 2
#     Edge 17, Type (0, 1), BuildingBlock: EZIPEK_clean_linker_0, # of connection points: 2
# Relax obj value: 0.107
# Max RMSD: 0.129
# Mean RMSD: 0.122
data_MOF--net-tsx--node1-JUFBIX_clean_sbu_0--node2-PAMTOO_clean_linker_0--edge1-EZIPEK_clean_linker_0
_symmetry_space_group_name_H-M    P1
_symmetry_Int_Tables_number       1
_symmetry_cell_setting            triclinic
loop_
_symmetry_equiv_pos_as_xyz
'x, y, z'
_cell_length_a     14.973456
_cell_length_b     17.294145
_cell_length_c     24.535645
_cell_angle_alpha  84.161142
_cell_angle_beta   89.254513
_cell_angle_gamma 101.70666
loop_
_atom_site_label
_atom_site_type_symbol
_atom_site_fract_x
_atom_site_fract_y
_atom_site_fract_z
_atom_type_partial_charge
Co0 Co 0.1179 0.06506 0.96021 0.0
C1 C 1.02105 0.12525 0.87558 0.0
Co2 Co 1.01277 0.12775 -0.01352 0.0
C3 C 0.2245 0.94598 0.93784 0.0
C4 C 0.27279 0.06049 0.89368 0.0
N5 N 0.20821 1.02034 0.93093 0.0
N6 N 0.29729 0.93923 0.9068 0.0
C7 C 0.32781 1.01102 0.87909 0.0
H8 H 0.1848 0.89809 0.96538 0.0
H9 H 0.27923 0.12207 0.87768 0.0
C10 C 0.1085 0.0591 0.07016 0.0
N11 N 0.92354 0.17698 0.01263 0.0
C12 C 0.88804 0.23481 -0.01488 0.0
C13 C 0.87834 0.16218 0.06182 0.0
N14 N 0.82234 0.25597 0.01484 0.0
C15 C 0.81619 0.21103 0.06337 0.0
C16 C 0.94969 0.96526 -0.0169 0.0
O17 O 0.14706 0.03377 0.03139 0.0
O18 O 0.05226 0.10472 0.05945 0.0
O19 O 0.92984 1.02963 -0.00491 0.0
O20 O 1.0288 0.96673 0.9623 0.0
O21 O 0.97422 0.14657 0.91265 0.0
H22 H 0.88867 0.11784 0.09416 0.0
H23 H 0.90884 0.26043 0.94368 0.0
O24 O 0.08776 0.09367 0.8888 0.0
O25 O 0.20519 0.1646 0.96102 0.0
O26 O 0.09643 0.22676 -0.02062 0.0
C27 C 0.18031 0.22843 0.97006 0.0
H28 H 0.38609 1.02637 0.85062 0.0
H29 H 0.76863 0.21214 0.09675 0.0
Co30 Co 0.58351 0.4821 0.48076 0.0
C31 C 0.51256 0.54648 0.38513 0.0
Co32 Co 0.46579 0.53997 0.49177 0.0
C33 C 0.70553 0.36872 0.47017 0.0
C34 C 0.74224 0.47925 0.41944 0.0
N35 N 0.68457 0.4415 0.46095 0.0
N36 N 0.77096 0.35901 0.43404 0.0
C37 C 0.7925 0.42849 0.40188 0.0
H38 H 0.66913 0.32207 0.49992 0.0
H39 H 0.74256 0.53822 0.39988 0.0
C40 C 0.54104 0.47829 0.58683 0.0
N41 N 0.36671 0.5851 0.50644 0.0
C42 C 0.34858 0.65222 0.47988 0.0
C43 C 0.29719 0.55935 0.54375 0.0
N44 N 0.27069 0.66908 0.49877 0.0
C45 C 0.23779 0.61113 0.5391 0.0
C46 C 0.41816 0.37668 0.48521 0.0
O47 O 0.59454 0.45378 0.5551 0.0
O48 O 0.48172 0.51602 0.56749 0.0
O49 O 0.38805 0.43924 0.49084 0.0
O50 O 0.50323 0.38171 0.4762 0.0
O51 O 0.452 0.56378 0.41543 0.0
H52 H 0.28973 0.50601 0.57202 0.0
H53 H 0.39113 0.68785 0.44677 0.0
O54 O 0.57141 0.51121 0.40648 0.0
O55 O 0.66208 0.58311 0.48734 0.0
O56 O 0.5444 0.63983 0.49417 0.0
C57 C 0.63003 0.64456 0.49348 0.0
H58 H 0.83965 0.44095 0.36674 0.0
H59 H 0.17496 0.60618 0.56273 0.0
H60 H 0.19787 0.90158 0.3165 0.0
H61 H 0.07413 0.10532 0.29703 0.0
H62 H 0.06734 0.96919 0.45468 0.0
H63 H 0.88364 0.03113 0.39587 0.0
C64 C 0.92302 0.08952 0.38032 0.0
O65 O 1.01181 0.09304 0.39773 0.0
H66 H 0.92148 0.09207 0.33488 0.0
C67 C 0.1645 0.94346 0.33454 0.0
C68 C 0.1415 0.93267 0.39064 0.0
C69 C 0.13837 1.00478 0.30103 0.0
C70 C 0.09462 0.05865 0.32373 0.0
C71 C 0.06615 0.04634 0.37887 0.0
C72 C 0.09012 0.9827 0.41238 0.0
H73 H 0.1394 0.19411 0.63732 0.0
H74 H 0.89984 1.00778 0.64377 0.0
H75 H 0.07087 0.0678 0.4978 0.0
H76 H 0.84836 0.99398 0.48849 0.0
C77 C 0.84524 0.95563 0.52764 0.0
O78 O 0.93175 0.96211 0.54814 0.0
H79 H 0.80082 0.98029 0.55504 0.0
C80 C 0.0933 0.14971 0.61734 0.0
C81 C 0.11341 0.13639 0.56365 0.0
C82 C 1.01561 0.10423 0.646 0.0
C83 C 0.95776 0.04481 0.62075 0.0
C84 C 0.97862 1.02869 0.56794 0.0
C85 C 0.05502 0.07663 0.53897 0.0
H86 H 0.63324 0.39965 0.8393 0.0
H87 H 0.47593 0.58034 0.80774 0.0
H88 H 0.5961 0.54553 0.96408 0.0
H89 H 0.5583 0.72207 0.85213 0.0
C90 C 0.52277 0.70894 0.89305 0.0
O91 O 0.48923 0.62821 0.90544 0.0
H92 H 0.57709 0.72942 0.9217 0.0
C93 C 0.60355 0.44656 0.8535 0.0
C94 C 0.61659 0.46619 0.90696 0.0
C95 C 0.55486 0.48905 0.8177 0.0
C96 C 0.5151 0.54892 0.8356 0.0
C97 C 0.52963 0.57091 0.88841 0.0
C98 C 0.58195 0.52982 0.92374 0.0
H99 H 0.70296 0.72347 0.15494 0.0
H100 H 0.47545 0.53096 0.14109 0.0
H101 H 0.61928 0.65955 -0.00364 0.0
H102 H 0.36556 0.57526 0.01761 0.0
C103 C 0.39039 0.5229 0.03529 0.0
O104 O 0.48505 0.53804 0.03412 0.0
H105 H 0.36337 0.51435 0.07836 0.0
C106 C 0.65746 0.68641 0.12963 0.0
C107 C 0.6689 0.69851 0.07234 0.0
C108 C 0.58641 0.62665 0.15411 0.0
C109 C 0.52856 0.57805 0.1216 0.0
C110 C 0.53853 0.58932 0.06469 0.0
C111 C 0.60937 0.64986 0.04024 0.0
C112 C 0.25737 0.37095 0.94324 0.0
C113 C 0.24862 0.30086 -0.02031 0.0
C114 C 0.35737 0.37255 0.04024 0.0
C115 C 0.35191 0.44607 0.00999 0.0
N116 N 0.29502 0.51439 0.93024 0.0
N117 N 0.28161 0.23744 0.06698 0.0
C118 C 0.30252 0.44518 0.96031 0.0
C119 C 0.29741 0.3021 0.0288 0.0
N120 N 0.22345 0.36622 0.89197 0.0
N121 N 0.4191 0.36921 0.08054 0.0
H122 H 0.23751 0.18507 0.06058 0.0
H123 H 0.3053 0.23828 0.10672 0.0
H124 H 0.46317 0.4185 0.09252 0.0
H125 H 0.43297 0.3159 0.09861 0.0
H126 H 0.23615 0.41324 0.86094 0.0
H127 H 0.18988 0.31266 0.87885 0.0
H128 H 0.2495 0.51704 0.89871 0.0
H129 H 0.33062 0.57017 0.93753 0.0
C130 C 0.34287 0.83676 0.8556 0.0
C131 C 0.33947 0.87179 0.90516 0.0
C132 C 0.42534 0.77908 0.94915 0.0
C133 C 0.44668 0.75586 0.89749 0.0
N134 N 0.41436 0.75476 0.80127 0.0
N135 N 0.38706 0.88283 -0.00213 0.0
C136 C 0.40135 0.78186 0.85052 0.0
C137 C 0.38246 0.84421 0.9518 0.0
N138 N 0.28817 0.85498 0.81415 0.0
N139 N 0.44288 0.73678 -0.00403 0.0
H140 H 0.35921 0.93283 0.00089 0.0
H141 H 0.42603 0.86957 0.03112 0.0
H142 H 0.46924 0.68634 -0.0056 0.0
H143 H 0.42038 0.7456 0.03482 0.0
H144 H 0.28074 0.82723 0.77832 0.0
H145 H 0.2438 0.89371 0.81786 0.0
H146 H 0.39351 0.77909 0.76424 0.0
H147 H 0.44745 0.70817 0.79716 0.0
C148 C 0.90451 0.82331 0.02877 0.0
C149 C 0.88088 0.89002 -0.00245 0.0
C150 C 0.71884 0.83278 0.01881 0.0
C151 C 0.74207 0.76346 0.04558 0.0
N152 N 0.85593 0.68495 0.06492 0.0
N153 N 0.76356 0.94645 0.95126 0.0
C154 C 0.83462 0.75611 0.04675 0.0
C155 C 0.78732 0.89069 -0.0113 0.0
N156 N 0.9918 0.82575 0.04524 0.0
N157 N 0.63241 0.8457 0.02471 0.0
H158 H 0.81148 0.98928 0.92761 0.0
H159 H 0.69656 0.94482 0.93964 0.0
H160 H 0.58221 0.80702 0.04958 0.0
H161 H 0.61372 0.8987 0.01018 0.0
H162 H 1.00946 0.7822 0.07311 0.0
H163 H 0.04514 0.87436 0.03589 0.0
H164 H 0.92158 0.67401 0.06134 0.0
H165 H 0.80655 0.63478 0.07885 0.0
C166 C 0.80698 0.39327 -0.01437 0.0
C167 C 0.7666 0.31154 -0.00388 0.0
C168 C 0.62091 0.3387 0.96364 0.0
C169 C 0.66525 0.41761 0.9449 0.0
N170 N 0.80123 0.52087 0.93601 0.0
N171 N 0.63805 0.20393 -0.00954 0.0
C172 C 0.75835 0.44565 0.95598 0.0
C173 C 0.67383 0.28362 -0.01536 0.0
N174 N 0.89167 0.42034 0.00466 0.0
N175 N 0.52816 0.3167 0.96126 0.0
H176 H 0.67562 0.16175 0.00438 0.0
H177 H 0.57376 0.17918 -0.02278 0.0
H178 H 0.48766 0.35593 0.94597 0.0
H179 H 0.49073 0.26236 -0.02091 0.0
H180 H 0.92233 0.48026 0.00295 0.0
H181 H 0.92795 0.3827 0.02663 0.0
H182 H 0.87131 0.54194 0.93744 0.0
H183 H 0.76737 0.56122 0.91497 0.0
C184 C 0.68867 0.74918 0.55538 0.0
C185 C 0.69155 0.72018 0.50332 0.0
C186 C 0.80895 0.83696 0.47026 0.0
C187 C 0.80192 0.86864 0.5212 0.0
N188 N 0.76093 0.84119 0.61754 0.0
N189 N 0.75927 0.73059 0.41265 0.0
C190 C 0.74944 0.82054 0.5654 0.0
C191 C 0.75368 0.76221 0.46125 0.0
N192 N 0.62683 0.70912 0.59521 0.0
N193 N 0.86917 0.87875 0.43067 0.0
H194 H 0.71548 0.679 0.4033 0.0
H195 H 0.80798 0.75363 0.38153 0.0
H196 H 0.91978 0.9254 0.43979 0.0
H197 H 0.87063 0.8675 0.3899 0.0
H198 H 0.61279 0.73238 0.63112 0.0
H199 H 0.58512 0.65412 0.59128 0.0
H200 H 0.732 0.80483 0.65236 0.0
H201 H 0.80801 0.89077 0.62675 0.0
C202 C 0.74942 0.21403 0.42327 0.0
C203 C 0.8076 0.28915 0.42615 0.0
C204 C 0.9333 0.23763 0.38812 0.0
C205 C 0.88145 0.15842 0.39693 0.0
N206 N 0.73358 0.07257 0.42469 0.0
N207 N 0.95998 0.36813 0.42023 0.0
C208 C 0.78801 0.14669 0.41577 0.0
C209 C 0.90147 0.29912 0.41171 0.0
N210 N 0.65707 0.20792 0.42156 0.0
N211 N 1.01054 0.25532 0.35521 0.0
H212 H 0.94147 0.40867 0.44469 0.0
H213 H 1.02807 0.38291 0.40687 0.0
H214 H 0.03373 0.21358 0.33416 0.0
H215 H 0.04554 0.3133 0.34367 0.0
H216 H 0.61203 0.15613 0.41382 0.0
H217 H 0.62605 0.2567 0.42019 0.0
H218 H 0.67141 0.06193 0.44663 0.0
H219 H 0.7493 1.02101 0.41251 0.0
C220 C 0.361 0.24196 0.53855 0.0
C221 C 0.35283 0.29905 0.4938 0.0
C222 C 0.19083 0.23994 0.48888 0.0
C223 C 0.19762 0.18442 0.53431 0.0
N224 N 0.2936 0.11611 0.59082 0.0
N225 N 0.26994 0.33393 0.41512 0.0
C226 C 0.2845 0.17985 0.55519 0.0
C227 C 0.27097 0.29124 0.46503 0.0
N228 N 0.43895 0.24972 0.56761 0.0
N229 N 0.10743 0.24879 0.47115 0.0
H230 H 0.32836 0.37182 0.39699 0.0
H231 H 0.21455 0.32526 0.38955 0.0
H232 H 0.04586 0.21443 0.48761 0.0
H233 H 0.10028 0.29615 0.44347 0.0
H234 H 0.44383 0.21629 0.60482 0.0
H235 H 0.49741 0.29276 0.55654 0.0
H236 H 0.35646 0.10557 0.60372 0.0
H237 H 0.2387 0.06958 0.60311 0.0
C238 C 0.15661 0.72084 0.44179 0.0
C239 C 0.23016 0.73427 0.47762 0.0
C240 C 0.24079 0.87824 0.46074 0.0
C241 C 0.16617 0.86474 0.42531 0.0
N242 N 0.04025 0.77406 0.39145 0.0
N243 N 0.33166 0.82184 0.52965 0.0
C244 C 0.11991 0.78611 0.41889 0.0
C245 C 0.26876 0.81203 0.48979 0.0
N246 N 0.12511 0.64604 0.42759 0.0
N247 N 0.28721 0.95406 0.46475 0.0
H248 H 0.35311 0.77392 0.55105 0.0
H249 H 0.35706 0.87597 0.54453 0.0
H250 H 0.26776 1.00398 0.44488 0.0
H251 H 0.34801 0.96769 0.48511 0.0
H252 H 0.07844 0.63321 0.39704 0.0
H253 H 0.15081 0.59715 0.44373 0.0
H254 H 0.99822 0.71844 0.39009 0.0
H255 H 1.01201 0.82066 0.37389 0.0
C256 C 0.04378 0.99141 0.16082 0.0
C257 C 0.12167 1.03 0.1276 0.0
C258 C 0.21622 0.03803 0.20817 0.0
C259 C 0.13758 1.00331 0.24124 0.0
N260 N 0.98386 0.92586 0.2496 0.0
N261 N 0.28685 0.06134 0.11727 0.0
C262 C 0.05362 0.97299 0.2176 0.0
C263 C 0.20973 0.04392 0.15033 0.0
N264 N 0.96026 0.97277 0.13812 0.0
N265 N 0.29588 0.06841 0.23201 0.0
H266 H 0.28606 0.06514 0.07471 0.0
H267 H 0.35215 0.06454 0.1322 0.0
H268 H 0.30342 0.0628 0.27437 0.0
H269 H 0.35237 0.10342 0.2101 0.0
H270 H 0.899 0.9556 0.16087 0.0
H271 H 0.9516 0.97659 0.09604 0.0
H272 H 0.92415 0.89514 0.23412 0.0
H273 H 0.98867 0.91156 0.29163 0.0
C274 C 0.99616 0.19053 0.78174 0.0
C275 C 0.99178 0.12128 0.81859 0.0
C276 C 1.00313 0.04292 0.74296 0.0
C277 C 1.00253 0.1104 0.70522 0.0
N278 N 0.97708 0.24418 0.68821 0.0
N279 N 0.95527 0.97832 0.83292 0.0
C280 C 0.99194 0.18311 0.72443 0.0
C281 C 0.98236 0.04637 0.79848 0.0
N282 N 1.00857 0.26307 0.80108 0.0
N283 N 1.03029 0.97752 0.72695 0.0
H284 H 0.93661 0.97958 0.8737 0.0
H285 H 0.94091 0.92206 0.81931 0.0
H286 H 0.05428 0.97429 0.68735 0.0
H287 H 0.03953 0.93022 0.75471 0.0
H288 H 1.02262 0.31644 0.77569 0.0
H289 H 1.00949 0.26963 0.84289 0.0
H290 H 0.96156 0.29604 0.70039 0.0
H291 H 0.97219 0.23983 0.64621 0.0
C292 C 0.6303 0.51249 0.66868 0.0
C293 C 0.55104 0.46906 0.64626 0.0
C294 C 0.48132 0.42669 0.73799 0.0
C295 C 0.55549 0.47783 0.75934 0.0
N296 N 0.69696 0.57479 0.74666 0.0
N297 N 0.40031 0.38578 0.65739 0.0
C298 C 0.62961 0.52148 0.72528 0.0
C299 C 0.4764 0.42588 0.68037 0.0
N300 N 0.70571 0.54619 0.63596 0.0
N301 N 0.41648 0.37882 0.77298 0.0
H302 H 0.3965 0.3802 0.61552 0.0
H303 H 0.33946 0.36078 0.67914 0.0
H304 H 0.41771 0.37946 0.81546 0.0
H305 H 0.36499 0.33472 0.76063 0.0
H306 H 0.76891 0.56974 0.65112 0.0
H307 H 0.70798 0.54638 0.59356 0.0
H308 H 0.74585 0.61636 0.72288 0.0
H309 H 0.70074 0.58183 0.78834 0.0
C310 C 0.52706 0.64771 0.30243 0.0
C311 C 0.51983 0.5678 0.32542 0.0
C312 C 0.57682 0.53426 0.23927 0.0
C313 C 0.57213 0.61068 0.21418 0.0
N314 N 0.52458 0.73535 0.21936 0.0
N315 N 0.5162 0.43089 0.31145 0.0
C316 C 0.54186 0.66624 0.24493 0.0
C317 C 0.5379 0.50973 0.2924 0.0
N318 N 0.52542 0.70672 0.33524 0.0
N319 N 0.62026 0.48581 0.21277 0.0
H320 H 0.48391 0.41029 0.34963 0.0
H321 H 0.52107 0.38589 0.28704 0.0
H322 H 0.65266 0.50314 0.17426 0.0
H323 H 0.63247 0.43224 0.23147 0.0
H324 H 0.54017 0.76674 0.32045 0.0
H325 H 0.51833 0.69682 0.37778 0.0
H326 H 0.49351 0.7737 0.23951 0.0
H327 H 0.5337 0.75097 0.17718 0.0
loop_
_geom_bond_atom_site_label_1
_geom_bond_atom_site_label_2
_geom_bond_distance
_geom_bond_site_symmetry_2
_ccdc_geom_bond_type
Co0 N5 2.057 1_554 S
Co0 O17 2.021 . S
Co0 O20 2.062 1_455 S
Co0 O24 2.117 1_564 S
Co0 O25 2.020 1_565 S
C1 O21 1.259 1_455 S
C1 O24 1.258 . S
Co2 N11 2.057 1_556 S
Co2 O18 2.117 1_556 S
Co2 O19 2.020 1_546 S
Co2 O21 2.021 . S
Co2 O26 2.062 1_655 S
C3 N5 1.316 1_554 S
C3 N6 1.347 . S
C3 H8 0.931 . S
C4 N5 1.375 . S
C4 C7 1.350 . S
C4 H9 0.930 . S
N5 Co0 2.057 1_556 S
N5 C3 1.316 1_556 S
N5 C4 1.375 . S
N6 C3 1.347 . S
N6 C7 1.373 1_554 S
C7 C4 1.350 . S
C7 N6 1.373 1_556 S
C7 H28 0.931 . S
H8 C3 0.931 . S
H9 C4 0.930 . S
C10 O17 1.259 1_545 S
C10 O18 1.258 1_455 S
N11 Co2 2.057 1_554 S
N11 C12 1.316 1_554 S
N11 C13 1.375 . S
C12 N11 1.316 1_556 S
C12 N14 1.347 1_556 S
C12 H23 0.931 . S
C13 N11 1.375 . S
C13 C15 1.350 . S
C13 H22 0.930 . S
N14 C12 1.347 1_554 S
N14 C15 1.373 . S
C15 C13 1.350 . S
C15 N14 1.373 . S
C15 H29 0.931 . S
C16 O19 1.256 . S
C16 O20 1.255 . S
O17 Co0 2.021 . S
O17 C10 1.259 1_565 S
O18 Co2 2.117 1_554 S
O18 C10 1.258 1_655 S
O19 Co2 2.020 1_564 S
O19 C16 1.256 . S
O20 Co0 2.062 1_655 S
O20 C16 1.255 . S
O21 C1 1.259 1_655 S
O21 Co2 2.021 . S
H22 C13 0.930 . S
H23 C12 0.931 . S
O24 Co0 2.117 1_546 S
O24 C1 1.258 . S
O25 Co0 2.020 1_545 S
O25 C27 1.256 1_554 S
O26 Co2 2.062 1_455 S
O26 C27 1.255 . S
C27 O25 1.256 1_556 S
C27 O26 1.255 . S
H28 C7 0.931 . S
H29 C15 0.931 . S
Co30 N35 2.057 . S
Co30 O47 2.021 . S
Co30 O50 2.062 . S
Co30 O54 2.117 . S
Co30 O55 2.020 . S
C31 O51 1.259 . S
C31 O54 1.258 . S
Co32 N41 2.057 . S
Co32 O48 2.117 . S
Co32 O49 2.020 . S
Co32 O51 2.021 . S
Co32 O56 2.062 . S
C33 N35 1.316 . S
C33 N36 1.347 . S
C33 H38 0.931 . S
C34 N35 1.375 . S
C34 C37 1.350 . S
C34 H39 0.930 . S
N35 Co30 2.057 . S
N35 C33 1.316 . S
N35 C34 1.375 . S
N36 C33 1.347 . S
N36 C37 1.373 . S
C37 C34 1.350 . S
C37 N36 1.373 . S
C37 H58 0.931 . S
H38 C33 0.931 . S
H39 C34 0.930 . S
C40 O47 1.259 . S
C40 O48 1.258 . S
N41 Co32 2.057 . S
N41 C42 1.316 . S
N41 C43 1.375 . S
C42 N41 1.316 . S
C42 N44 1.347 . S
C42 H53 0.931 . S
C43 N41 1.375 . S
C43 C45 1.350 . S
C43 H52 0.930 . S
N44 C42 1.347 . S
N44 C45 1.373 . S
C45 C43 1.350 . S
C45 N44 1.373 . S
C45 H59 0.931 . S
C46 O49 1.256 . S
C46 O50 1.255 . S
O47 Co30 2.021 . S
O47 C40 1.259 . S
O48 Co32 2.117 . S
O48 C40 1.258 . S
O49 Co32 2.020 . S
O49 C46 1.256 . S
O50 Co30 2.062 . S
O50 C46 1.255 . S
O51 C31 1.259 . S
O51 Co32 2.021 . S
H52 C43 0.930 . S
H53 C42 0.931 . S
O54 Co30 2.117 . S
O54 C31 1.258 . S
O55 Co30 2.020 . S
O55 C57 1.256 . S
O56 Co32 2.062 . S
O56 C57 1.255 . S
C57 O55 1.256 . S
C57 O56 1.255 . S
H58 C37 0.931 . S
H59 C45 0.931 . S
H60 C67 0.929 . S
H61 C70 0.930 . S
H62 C72 0.929 . S
H63 C64 0.969 . S
C64 H63 0.969 . S
C64 O65 1.550 . S
C64 H66 0.973 . S
O65 C64 1.550 . S
O65 C71 1.412 . S
H66 C64 0.973 . S
C67 H60 0.929 . S
C67 C68 1.400 . S
C67 C69 1.364 . S
C68 C67 1.400 . S
C68 C72 1.377 . S
C69 C67 1.364 . S
C69 C70 1.374 1_465 S
C70 H61 0.930 . S
C70 C69 1.374 1_645 S
C70 C71 1.383 . S
C71 O65 1.412 . S
C71 C70 1.383 . S
C71 C72 1.394 1_645 S
C72 H62 0.929 . S
C72 C68 1.377 . S
C72 C71 1.394 1_465 S
H73 C80 0.929 . S
H74 C83 0.930 1_565 S
H75 C85 0.929 . S
H76 C77 0.969 . S
C77 H76 0.969 . S
C77 O78 1.550 . S
C77 H79 0.973 . S
O78 C77 1.550 . S
O78 C84 1.412 1_565 S
H79 C77 0.973 . S
C80 H73 0.929 . S
C80 C81 1.400 . S
C80 C82 1.364 . S
C81 C80 1.400 . S
C81 C85 1.377 . S
C82 C80 1.364 . S
C82 C83 1.374 1_455 S
C83 H74 0.930 1_545 S
C83 C82 1.374 1_655 S
C83 C84 1.383 . S
C84 O78 1.412 1_545 S
C84 C83 1.383 . S
C84 C85 1.394 1_655 S
C85 H75 0.929 . S
C85 C81 1.377 . S
C85 C84 1.394 1_455 S
H86 C93 0.929 . S
H87 C96 0.930 . S
H88 C98 0.929 1_554 S
H89 C90 0.969 . S
C90 H89 0.969 . S
C90 O91 1.556 . S
C90 H92 0.973 . S
O91 C90 1.556 . S
O91 C97 1.425 . S
H92 C90 0.973 . S
C93 H86 0.929 . S
C93 C94 1.400 . S
C93 C95 1.364 . S
C94 C93 1.400 . S
C94 C98 1.377 . S
C95 C93 1.364 . S
C95 C96 1.374 . S
C96 H87 0.930 . S
C96 C95 1.374 . S
C96 C97 1.383 . S
C97 O91 1.425 . S
C97 C96 1.383 . S
C97 C98 1.394 . S
C98 H88 0.929 1_556 S
C98 C94 1.377 . S
C98 C97 1.394 . S
H99 C106 0.929 . S
H100 C109 0.930 . S
H101 C111 0.929 1_556 S
H102 C103 0.969 . S
C103 H102 0.969 . S
C103 O104 1.550 . S
C103 H105 0.973 . S
O104 C103 1.550 . S
O104 C110 1.412 . S
H105 C103 0.973 . S
C106 H99 0.929 . S
C106 C107 1.400 . S
C106 C108 1.364 . S
C107 C106 1.400 . S
C107 C111 1.377 . S
C108 C106 1.364 . S
C108 C109 1.374 . S
C109 H100 0.930 . S
C109 C108 1.374 . S
C109 C110 1.383 . S
C110 O104 1.412 . S
C110 C109 1.383 . S
C110 C111 1.394 . S
C111 H101 0.929 1_554 S
C111 C107 1.377 . S
C111 C110 1.394 . S
C112 C113 1.375 . S
C112 C118 1.379 . S
C112 N120 1.356 . S
C113 C112 1.375 . S
C113 C119 1.348 1_556 S
C114 C115 1.363 . S
C114 C119 1.379 . S
C114 N121 1.356 . S
C115 C114 1.363 . S
C115 C118 1.363 1_554 S
N116 C118 1.356 . S
N116 H128 0.984 . S
N116 H129 0.985 . S
N117 C119 1.356 . S
N117 H122 0.984 . S
N117 H123 0.985 . S
C118 C112 1.379 . S
C118 C115 1.363 1_556 S
C118 N116 1.356 . S
C119 C113 1.348 1_554 S
C119 C114 1.379 . S
C119 N117 1.356 . S
N120 C112 1.356 . S
N120 H126 0.984 . S
N120 H127 0.984 . S
N121 C114 1.356 . S
N121 H124 0.984 . S
N121 H125 0.985 . S
H122 N117 0.984 . S
H123 N117 0.985 . S
H124 N121 0.984 . S
H125 N121 0.985 . S
H126 N120 0.984 . S
H127 N120 0.984 . S
H128 N116 0.984 . S
H129 N116 0.985 . S
C130 C131 1.363 1_556 S
C130 C136 1.379 . S
C130 N138 1.356 . S
C131 C130 1.363 1_554 S
C131 C137 1.363 . S
C132 C133 1.363 . S
C132 C137 1.379 . S
C132 N139 1.356 . S
C133 C132 1.363 . S
C133 C136 1.363 1_554 S
N134 C136 1.356 . S
N134 H146 0.984 . S
N134 H147 0.985 . S
N135 C137 1.356 . S
N135 H140 0.984 . S
N135 H141 0.985 . S
C136 C130 1.379 . S
C136 C133 1.363 1_556 S
C136 N134 1.356 . S
C137 C131 1.363 . S
C137 C132 1.379 . S
C137 N135 1.356 . S
N138 C130 1.356 . S
N138 H144 0.984 . S
N138 H145 0.984 . S
N139 C132 1.356 . S
N139 H142 0.984 . S
N139 H143 0.985 . S
H140 N135 0.984 . S
H141 N135 0.985 . S
H142 N139 0.984 . S
H143 N139 0.985 . S
H144 N138 0.984 . S
H145 N138 0.984 . S
H146 N134 0.984 . S
H147 N134 0.985 . S
C148 C149 1.363 . S
C148 C154 1.379 . S
C148 N156 1.356 . S
C149 C148 1.363 . S
C149 C155 1.363 1_554 S
C150 C151 1.363 1_556 S
C150 C155 1.379 . S
C150 N157 1.356 . S
C151 C150 1.363 1_554 S
C151 C154 1.363 . S
N152 C154 1.356 . S
N152 H164 0.984 . S
N152 H165 0.985 . S
N153 C155 1.356 . S
N153 H158 0.984 . S
N153 H159 0.985 . S
C154 C148 1.379 . S
C154 C151 1.363 . S
C154 N152 1.356 . S
C155 C149 1.363 1_556 S
C155 C150 1.379 . S
C155 N153 1.356 . S
N156 C148 1.356 . S
N156 H162 0.984 . S
N156 H163 0.984 . S
N157 C150 1.356 . S
N157 H160 0.984 . S
N157 H161 0.985 . S
H158 N153 0.984 . S
H159 N153 0.985 . S
H160 N157 0.984 . S
H161 N157 0.985 . S
H162 N156 0.984 . S
H163 N156 0.984 . S
H164 N152 0.984 . S
H165 N152 0.985 . S
C166 C167 1.363 . S
C166 C172 1.379 . S
C166 N174 1.356 . S
C167 C166 1.363 . S
C167 C173 1.363 1_556 S
C168 C169 1.363 1_554 S
C168 C173 1.379 . S
C168 N175 1.356 . S
C169 C168 1.363 1_556 S
C169 C172 1.363 . S
N170 C172 1.356 . S
N170 H182 0.984 . S
N170 H183 0.985 . S
N171 C173 1.356 . S
N171 H176 0.984 . S
N171 H177 0.985 . S
C172 C166 1.379 . S
C172 C169 1.363 . S
C172 N170 1.356 . S
C173 C167 1.363 1_554 S
C173 C168 1.379 . S
C173 N171 1.356 . S
N174 C166 1.356 . S
N174 H180 0.984 . S
N174 H181 0.984 . S
N175 C168 1.356 . S
N175 H178 0.984 . S
N175 H179 0.985 . S
H176 N171 0.984 . S
H177 N171 0.985 . S
H178 N175 0.984 . S
H179 N175 0.985 . S
H180 N174 0.984 . S
H181 N174 0.984 . S
H182 N170 0.984 . S
H183 N170 0.985 . S
C184 C185 1.363 . S
C184 C190 1.379 . S
C184 N192 1.356 . S
C185 C184 1.363 . S
C185 C191 1.363 . S
C186 C187 1.363 . S
C186 C191 1.379 . S
C186 N193 1.356 . S
C187 C186 1.363 . S
C187 C190 1.363 . S
N188 C190 1.356 . S
N188 H200 0.984 . S
N188 H201 0.985 . S
N189 C191 1.356 . S
N189 H194 0.984 . S
N189 H195 0.985 . S
C190 C184 1.379 . S
C190 C187 1.363 . S
C190 N188 1.356 . S
C191 C185 1.363 . S
C191 C186 1.379 . S
C191 N189 1.356 . S
N192 C184 1.356 . S
N192 H198 0.984 . S
N192 H199 0.984 . S
N193 C186 1.356 . S
N193 H196 0.984 . S
N193 H197 0.985 . S
H194 N189 0.984 . S
H195 N189 0.985 . S
H196 N193 0.984 . S
H197 N193 0.985 . S
H198 N192 0.984 . S
H199 N192 0.984 . S
H200 N188 0.984 . S
H201 N188 0.985 . S
C202 C203 1.363 . S
C202 C208 1.379 . S
C202 N210 1.356 . S
C203 C202 1.363 . S
C203 C209 1.363 . S
C204 C205 1.363 . S
C204 C209 1.379 . S
C204 N211 1.356 . S
C205 C204 1.363 . S
C205 C208 1.363 . S
N206 C208 1.356 . S
N206 H218 0.984 . S
N206 H219 0.985 . S
N207 C209 1.356 . S
N207 H212 0.984 . S
N207 H213 0.985 . S
C208 C202 1.379 . S
C208 C205 1.363 . S
C208 N206 1.356 . S
C209 C203 1.363 . S
C209 C204 1.379 . S
C209 N207 1.356 . S
N210 C202 1.356 . S
N210 H216 0.984 . S
N210 H217 0.984 . S
N211 C204 1.356 . S
N211 H214 0.984 . S
N211 H215 0.985 1_655 S
H212 N207 0.984 . S
H213 N207 0.985 . S
H214 N211 0.984 . S
H215 N211 0.985 1_455 S
H216 N210 0.984 . S
H217 N210 0.984 . S
H218 N206 0.984 . S
H219 N206 0.985 . S
C220 C221 1.363 . S
C220 C226 1.379 . S
C220 N228 1.356 . S
C221 C220 1.363 . S
C221 C227 1.363 . S
C222 C223 1.363 . S
C222 C227 1.379 . S
C222 N229 1.356 . S
C223 C222 1.363 . S
C223 C226 1.363 . S
N224 C226 1.356 . S
N224 H236 0.984 . S
N224 H237 0.985 . S
N225 C227 1.356 . S
N225 H230 0.984 . S
N225 H231 0.985 . S
C226 C220 1.379 . S
C226 C223 1.363 . S
C226 N224 1.356 . S
C227 C221 1.363 . S
C227 C222 1.379 . S
C227 N225 1.356 . S
N228 C220 1.356 . S
N228 H234 0.984 . S
N228 H235 0.984 . S
N229 C222 1.356 . S
N229 H232 0.984 . S
N229 H233 0.985 . S
H230 N225 0.984 . S
H231 N225 0.985 . S
H232 N229 0.984 . S
H233 N229 0.985 . S
H234 N228 0.984 . S
H235 N228 0.984 . S
H236 N224 0.984 . S
H237 N224 0.985 . S
C238 C239 1.363 . S
C238 C244 1.379 . S
C238 N246 1.356 . S
C239 C238 1.363 . S
C239 C245 1.363 . S
C240 C241 1.363 . S
C240 C245 1.379 . S
C240 N247 1.356 . S
C241 C240 1.363 . S
C241 C244 1.363 . S
N242 C244 1.356 . S
N242 H254 0.984 . S
N242 H255 0.985 . S
N243 C245 1.356 . S
N243 H248 0.984 . S
N243 H249 0.985 . S
C244 C238 1.379 . S
C244 C241 1.363 . S
C244 N242 1.356 . S
C245 C239 1.363 . S
C245 C240 1.379 . S
C245 N243 1.356 . S
N246 C238 1.356 . S
N246 H252 0.984 . S
N246 H253 0.984 . S
N247 C240 1.356 . S
N247 H250 0.984 . S
N247 H251 0.985 . S
H248 N243 0.984 . S
H249 N243 0.985 . S
H250 N247 0.984 . S
H251 N247 0.985 . S
H252 N246 0.984 . S
H253 N246 0.984 . S
H254 N242 0.984 . S
H255 N242 0.985 . S
C256 C257 1.364 1_655 S
C256 C262 1.379 . S
C256 N264 1.356 . S
C257 C256 1.364 1_455 S
C257 C263 1.362 1_565 S
C258 C259 1.363 1_545 S
C258 C263 1.379 . S
C258 N265 1.356 . S
C259 C258 1.363 1_565 S
C259 C262 1.363 1_455 S
N260 C262 1.356 . S
N260 H272 0.984 . S
N260 H273 0.985 . S
N261 C263 1.356 . S
N261 H266 0.984 . S
N261 H267 0.985 . S
C262 C256 1.379 . S
C262 C259 1.363 1_655 S
C262 N260 1.356 . S
C263 C257 1.362 1_545 S
C263 C258 1.379 . S
C263 N261 1.356 . S
N264 C256 1.356 . S
N264 H270 0.984 . S
N264 H271 0.984 . S
N265 C258 1.356 . S
N265 H268 0.984 . S
N265 H269 0.985 . S
H266 N261 0.984 . S
H267 N261 0.985 . S
H268 N265 0.984 . S
H269 N265 0.985 . S
H270 N264 0.984 . S
H271 N264 0.984 . S
H272 N260 0.984 . S
H273 N260 0.985 . S
C274 C275 1.363 1_655 S
C274 C280 1.379 . S
C274 N282 1.356 . S
C275 C274 1.363 1_455 S
C275 C281 1.363 . S
C276 C277 1.363 . S
C276 C281 1.379 . S
C276 N283 1.356 1_545 S
C277 C276 1.363 . S
C277 C280 1.363 1_455 S
N278 C280 1.356 . S
N278 H290 0.984 . S
N278 H291 0.985 . S
N279 C281 1.356 1_565 S
N279 H284 0.984 . S
N279 H285 0.985 . S
C280 C274 1.379 . S
C280 C277 1.363 1_655 S
C280 N278 1.356 . S
C281 C275 1.363 . S
C281 C276 1.379 . S
C281 N279 1.356 1_545 S
N282 C274 1.356 . S
N282 H288 0.984 . S
N282 H289 0.984 . S
N283 C276 1.356 1_565 S
N283 H286 0.984 . S
N283 H287 0.985 . S
H284 N279 0.984 . S
H285 N279 0.985 . S
H286 N283 0.984 . S
H287 N283 0.985 . S
H288 N282 0.984 . S
H289 N282 0.984 . S
H290 N278 0.984 . S
H291 N278 0.985 . S
C292 C293 1.363 . S
C292 C298 1.379 . S
C292 N300 1.356 . S
C293 C292 1.363 . S
C293 C299 1.363 . S
C294 C295 1.363 . S
C294 C299 1.379 . S
C294 N301 1.356 . S
C295 C294 1.363 . S
C295 C298 1.363 . S
N296 C298 1.356 . S
N296 H308 0.984 . S
N296 H309 0.985 . S
N297 C299 1.356 . S
N297 H302 0.984 . S
N297 H303 0.985 . S
C298 C292 1.379 . S
C298 C295 1.363 . S
C298 N296 1.356 . S
C299 C293 1.363 . S
C299 C294 1.379 . S
C299 N297 1.356 . S
N300 C292 1.356 . S
N300 H306 0.984 . S
N300 H307 0.984 . S
N301 C294 1.356 . S
N301 H304 0.984 . S
N301 H305 0.985 . S
H302 N297 0.984 . S
H303 N297 0.985 . S
H304 N301 0.984 . S
H305 N301 0.985 . S
H306 N300 0.984 . S
H307 N300 0.984 . S
H308 N296 0.984 . S
H309 N296 0.985 . S
C310 C311 1.363 . S
C310 C316 1.379 . S
C310 N318 1.356 . S
C311 C310 1.363 . S
C311 C317 1.363 . S
C312 C313 1.363 . S
C312 C317 1.379 . S
C312 N319 1.356 . S
C313 C312 1.363 . S
C313 C316 1.363 . S
N314 C316 1.356 . S
N314 H326 0.984 . S
N314 H327 0.985 . S
N315 C317 1.356 . S
N315 H320 0.984 . S
N315 H321 0.985 . S
C316 C310 1.379 . S
C316 C313 1.363 . S
C316 N314 1.356 . S
C317 C311 1.363 . S
C317 C312 1.379 . S
C317 N315 1.356 . S
N318 C310 1.356 . S
N318 H324 0.984 . S
N318 H325 0.984 . S
N319 C312 1.356 . S
N319 H322 0.984 . S
N319 H323 0.985 . S
H320 N315 0.984 . S
H321 N315 0.985 . S
H322 N319 0.984 . S
H323 N319 0.985 . S
H324 N318 0.984 . S
H325 N318 0.984 . S
H326 N314 0.984 . S
H327 N314 0.985 . S
C115 C103 1.353 . S
C113 C27 1.492 . S
C131 N6 1.423 . S
C133 C90 1.361 1_554 S
C149 C16 1.503 . S
C151 C107 1.482 . S
C167 N14 1.444 1_556 S
C169 C94 1.460 . S
C185 C57 1.490 . S
C187 C77 1.353 . S
C203 N36 1.423 . S
C205 C64 1.362 . S
C223 C81 1.482 . S
C221 C46 1.503 . S
C241 C68 1.460 . S
C239 N44 1.443 . S
C257 C10 1.472 1_565 S
C259 C69 1.473 . S
C275 C1 1.557 . S
C277 C82 1.559 . S
C295 C95 1.473 . S
C293 C40 1.472 . S
C311 C31 1.557 . S
C313 C108 1.559 . S
