# Generated by pormake.
# Topology pto, (3,4)-cn, num edge types: 1
# Building blocks:
#     Node 0, Type 0, BuildingBlock: KAKCAD_clean_linker_0, # of connection points: 3
#     Node 1, Type 0, BuildingBlock: KAKCAD_clean_linker_0, # of connection points: 3
#     Node 2, Type 0, BuildingBlock: KAKCAD_clean_linker_0, # of connection points: 3
#     Node 3, Type 0, BuildingBlock: KAKCAD_clean_linker_0, # of connection points: 3
#     Node 4, Type 0, BuildingBlock: KAKCAD_clean_linker_0, # of connection points: 3
#     Node 5, Type 0, BuildingBlock: KAKCAD_clean_linker_0, # of connection points: 3
#     Node 6, Type 0, BuildingBlock: KAKCAD_clean_linker_0, # of connection points: 3
#     Node 7, Type 0, BuildingBlock: KAKCAD_clean_linker_0, # of connection points: 3
#     Node 8, Type 1, BuildingBlock: NAWXER_clean_sbu_0, # of connection points: 4
#     Node 9, Type 1, BuildingBlock: NAWXER_clean_sbu_0, # of connection points: 4
#     Node 10, Type 1, BuildingBlock: NAWXER_clean_sbu_0, # of connection points: 4
#     Node 11, Type 1, BuildingBlock: NAWXER_clean_sbu_0, # of connection points: 4
#     Node 12, Type 1, BuildingBlock: NAWXER_clean_sbu_0, # of connection points: 4
#     Node 13, Type 1, BuildingBlock: NAWXER_clean_sbu_0, # of connection points: 4
#     Edge 14, Type (0, 1), BuildingBlock: TEMPAE_clean_linker_10, # of connection points: 2
#     Edge 15, Type (0, 1), BuildingBlock: TEMPAE_clean_linker_10, # of connection points: 2
#     Edge 16, Type (0, 1), BuildingBlock: TEMPAE_clean_linker_10, # of connection points: 2
#     Edge 17, Type (0, 1), BuildingBlock: TEMPAE_clean_linker_10, # of connection points: 2
#     Edge 18, Type (0, 1), BuildingBlock: TEMPAE_clean_linker_10, # of connection points: 2
#     Edge 19, Type (0, 1), BuildingBlock: TEMPAE_clean_linker_10, # of connection points: 2
#     Edge 20, Type (0, 1), BuildingBlock: TEMPAE_clean_linker_10, # of connection points: 2
#     Edge 21, Type (0, 1), BuildingBlock: TEMPAE_clean_linker_10, # of connection points: 2
#     Edge 22, Type (0, 1), BuildingBlock: TEMPAE_clean_linker_10, # of connection points: 2
#     Edge 23, Type (0, 1), BuildingBlock: TEMPAE_clean_linker_10, # of connection points: 2
#     Edge 24, Type (0, 1), BuildingBlock: TEMPAE_clean_linker_10, # of connection points: 2
#     Edge 25, Type (0, 1), BuildingBlock: TEMPAE_clean_linker_10, # of connection points: 2
#     Edge 26, Type (0, 1), BuildingBlock: TEMPAE_clean_linker_10, # of connection points: 2
#     Edge 27, Type (0, 1), BuildingBlock: TEMPAE_clean_linker_10, # of connection points: 2
#     Edge 28, Type (0, 1), BuildingBlock: TEMPAE_clean_linker_10, # of connection points: 2
#     Edge 29, Type (0, 1), BuildingBlock: TEMPAE_clean_linker_10, # of connection points: 2
#     Edge 30, Type (0, 1), BuildingBlock: TEMPAE_clean_linker_10, # of connection points: 2
#     Edge 31, Type (0, 1), BuildingBlock: TEMPAE_clean_linker_10, # of connection points: 2
#     Edge 32, Type (0, 1), BuildingBlock: TEMPAE_clean_linker_10, # of connection points: 2
#     Edge 33, Type (0, 1), BuildingBlock: TEMPAE_clean_linker_10, # of connection points: 2
#     Edge 34, Type (0, 1), BuildingBlock: TEMPAE_clean_linker_10, # of connection points: 2
#     Edge 35, Type (0, 1), BuildingBlock: TEMPAE_clean_linker_10, # of connection points: 2
#     Edge 36, Type (0, 1), BuildingBlock: TEMPAE_clean_linker_10, # of connection points: 2
#     Edge 37, Type (0, 1), BuildingBlock: TEMPAE_clean_linker_10, # of connection points: 2
# Relax obj value: 0.000
# Max RMSD: 0.003
# Mean RMSD: 0.002
data_MOF--net-pto--node1-NAWXER_clean_sbu_0--node2-KAKCAD_clean_linker_0--edge1-TEMPAE_clean_linker_10
_symmetry_space_group_name_H-M    P1
_symmetry_Int_Tables_number       1
_symmetry_cell_setting            triclinic
loop_
_symmetry_equiv_pos_as_xyz
'x, y, z'
_cell_length_a     54.601868
_cell_length_b     51.278903
_cell_length_c     47.887997
_cell_angle_alpha  90.435944
_cell_angle_beta   90.606788
_cell_angle_gamma 90.270464
loop_
_atom_site_label
_atom_site_type_symbol
_atom_site_fract_x
_atom_site_fract_y
_atom_site_fract_z
_atom_type_partial_charge
C0 C 0.27147 0.19703 0.32013 0.0
C1 C 0.24876 0.18395 0.32006 0.0
C2 C 0.27507 0.21891 0.30335 0.0
C3 C 0.25592 0.22829 0.28647 0.0
C4 C 0.23349 0.2147 0.28572 0.0
C5 C 0.22999 0.19268 0.30223 0.0
C6 C 0.25846 0.25341 0.27159 0.0
C7 C 0.2788 0.25872 0.25478 0.0
C8 C 0.28096 0.28281 0.24096 0.0
C9 C 0.26267 0.30178 0.24484 0.0
C10 C 0.24225 0.2966 0.26152 0.0
C11 C 0.24032 0.27241 0.27473 0.0
C12 C 0.22262 0.31617 0.26525 0.0
C13 C 0.22824 0.34218 0.27227 0.0
C14 C 0.19795 0.30854 0.26283 0.0
C15 C 0.17926 0.32639 0.26773 0.0
C16 C 0.18476 0.35231 0.27539 0.0
C17 C 0.30182 0.28789 0.22182 0.0
C18 C 0.32559 0.27923 0.22839 0.0
C19 C 0.298 0.30108 0.1965 0.0
C20 C 0.31734 0.3053 0.17814 0.0
C21 C 0.34103 0.29633 0.1845 0.0
C22 C 0.34493 0.28338 0.20996 0.0
C23 C 0.20949 0.36007 0.27739 0.0
H24 H 0.28635 0.19053 0.33347 0.0
H25 H 0.29248 0.22911 0.30442 0.0
H26 H 0.21847 0.22145 0.27275 0.0
H27 H 0.21228 0.18306 0.30182 0.0
H28 H 0.2925 0.24375 0.25182 0.0
H29 H 0.22486 0.26857 0.28815 0.0
H30 H 0.26416 0.32052 0.23467 0.0
H31 H 0.24712 0.34851 0.27451 0.0
H32 H 0.19309 0.28871 0.25702 0.0
H33 H 0.16046 0.3199 0.26525 0.0
H34 H 0.32929 0.26926 0.24782 0.0
H35 H 0.27991 0.30775 0.19052 0.0
H36 H 0.21437 0.37983 0.28342 0.0
H37 H 0.36287 0.27593 0.21544 0.0
H38 H 0.31368 0.31561 0.15889 0.0
C39 C 0.3304 0.7522 0.80955 0.0
C40 C 0.33818 0.72699 0.81653 0.0
C41 C 0.31041 0.75579 0.79146 0.0
C42 C 0.29798 0.73422 0.77953 0.0
C43 C 0.30622 0.70898 0.78624 0.0
C44 C 0.32589 0.70543 0.80474 0.0
C45 C 0.27649 0.73787 0.76033 0.0
C46 C 0.2753 0.75933 0.74207 0.0
C47 C 0.25537 0.76223 0.72357 0.0
C48 C 0.23661 0.74351 0.72321 0.0
C49 C 0.23701 0.72234 0.74156 0.0
C50 C 0.25695 0.71975 0.76014 0.0
C51 C 0.21649 0.7031 0.74112 0.0
C52 C 0.19225 0.71141 0.73671 0.0
C53 C 0.22096 0.67629 0.7442 0.0
C54 C 0.20169 0.65824 0.74258 0.0
C55 C 0.17751 0.66655 0.73759 0.0
C56 C 0.25342 0.78495 0.70474 0.0
C57 C 0.2548 0.81048 0.71544 0.0
C58 C 0.24777 0.78113 0.67634 0.0
C59 C 0.2428 0.80234 0.65913 0.0
C60 C 0.24309 0.82792 0.66997 0.0
C61 C 0.24958 0.83178 0.69826 0.0
C62 C 0.17307 0.69339 0.73474 0.0
H63 H 0.33946 0.76915 0.8186 0.0
H64 H 0.30446 0.7755 0.78731 0.0
H65 H 0.29764 0.69185 0.77704 0.0
H66 H 0.33171 0.6858 0.8096 0.0
H67 H 0.29008 0.77347 0.7416 0.0
H68 H 0.25693 0.70389 0.77492 0.0
H69 H 0.22148 0.74563 0.70858 0.0
H70 H 0.188 0.73192 0.73473 0.0
H71 H 0.2394 0.66915 0.74738 0.0
H72 H 0.20577 0.63778 0.74535 0.0
H73 H 0.25888 0.8139 0.73736 0.0
H74 H 0.24682 0.76162 0.66752 0.0
H75 H 0.15478 0.70055 0.73059 0.0
H76 H 0.24986 0.85116 0.70738 0.0
H77 H 0.23859 0.79864 0.6373 0.0
C78 C 0.68162 0.69239 0.19325 0.0
C79 C 0.66883 0.71377 0.1824 0.0
C80 C 0.70084 0.69619 0.21243 0.0
C81 C 0.70808 0.72152 0.22081 0.0
C82 C 0.69515 0.74289 0.20983 0.0
C83 C 0.67565 0.73904 0.19104 0.0
C84 C 0.72918 0.72557 0.24058 0.0
C85 C 0.74949 0.7087 0.23988 0.0
C86 C 0.7693 0.71196 0.25859 0.0
C87 C 0.76884 0.73267 0.27788 0.0
C88 C 0.74913 0.75007 0.2787 0.0
C89 C 0.72928 0.74632 0.26012 0.0
C90 C 0.7499 0.77242 0.2987 0.0
C91 C 0.75874 0.76896 0.32611 0.0
C92 C 0.74353 0.79764 0.29004 0.0
C93 C 0.74669 0.81902 0.3081 0.0
C94 C 0.75627 0.81563 0.33523 0.0
C95 C 0.79046 0.69375 0.25836 0.0
C96 C 0.78686 0.66681 0.25435 0.0
C97 C 0.8144 0.70309 0.2633 0.0
C98 C 0.83409 0.6859 0.26509 0.0
C99 C 0.83047 0.65891 0.26152 0.0
C100 C 0.80664 0.64962 0.25579 0.0
C101 C 0.76196 0.79029 0.3441 0.0
H102 H 0.67656 0.6727 0.1871 0.0
H103 H 0.70988 0.67917 0.22082 0.0
H104 H 0.70037 0.7627 0.21525 0.0
H105 H 0.66624 0.75588 0.18271 0.0
H106 H 0.7502 0.69331 0.22431 0.0
H107 H 0.71372 0.75927 0.26137 0.0
H108 H 0.78404 0.73537 0.29235 0.0
H109 H 0.76353 0.74974 0.33357 0.0
H110 H 0.73681 0.80098 0.26901 0.0
H111 H 0.74174 0.83822 0.30075 0.0
H112 H 0.76868 0.65888 0.25071 0.0
H113 H 0.81798 0.72375 0.26597 0.0
H114 H 0.76951 0.78694 0.36476 0.0
H115 H 0.80319 0.62901 0.25241 0.0
H116 H 0.85209 0.69381 0.26981 0.0
C117 C 0.78421 0.1909 0.69872 0.0
C118 C 0.7642 0.17938 0.68474 0.0
C119 C 0.78084 0.21231 0.71638 0.0
C120 C 0.7574 0.22308 0.72011 0.0
C121 C 0.7372 0.21092 0.70687 0.0
C122 C 0.74058 0.18918 0.68943 0.0
C123 C 0.7546 0.2476 0.73668 0.0
C124 C 0.77254 0.2672 0.73473 0.0
C125 C 0.77178 0.28977 0.75144 0.0
C126 C 0.75207 0.29311 0.76973 0.0
C127 C 0.7333 0.27432 0.77114 0.0
C128 C 0.73464 0.25158 0.75457 0.0
C129 C 0.71252 0.27845 0.79034 0.0
C130 C 0.71688 0.28382 0.81873 0.0
C131 C 0.68829 0.27786 0.78027 0.0
C132 C 0.66878 0.283 0.79822 0.0
C133 C 0.67302 0.28834 0.8268 0.0
C134 C 0.79183 0.30949 0.74972 0.0
C135 C 0.81616 0.30146 0.74581 0.0
C136 C 0.78689 0.33635 0.75129 0.0
C137 C 0.8058 0.35467 0.74876 0.0
C138 C 0.83007 0.34658 0.74434 0.0
C139 C 0.83495 0.31972 0.74289 0.0
C140 C 0.6974 0.28843 0.83679 0.0
H141 H 0.80255 0.18344 0.69582 0.0
H142 H 0.79674 0.22065 0.72687 0.0
H143 H 0.71894 0.21874 0.70916 0.0
H144 H 0.72484 0.18064 0.67878 0.0
H145 H 0.78715 0.26496 0.71977 0.0
H146 H 0.72059 0.23671 0.75634 0.0
H147 H 0.75126 0.31033 0.78295 0.0
H148 H 0.73542 0.28416 0.82703 0.0
H149 H 0.6845 0.27403 0.75837 0.0
H150 H 0.65041 0.28316 0.78951 0.0
H151 H 0.8208 0.28096 0.74501 0.0
H152 H 0.76836 0.34328 0.75405 0.0
H153 H 0.70152 0.29175 0.85869 0.0
H154 H 0.8533 0.31267 0.73916 0.0
H155 H 0.80139 0.37518 0.75044 0.0
C156 C 0.75929 0.80407 0.67915 0.0
C157 C 0.75642 0.8308 0.68529 0.0
C158 C 0.76479 0.78634 0.70042 0.0
C159 C 0.76731 0.79501 0.72817 0.0
C160 C 0.76542 0.82174 0.73414 0.0
C161 C 0.76024 0.83945 0.71296 0.0
C162 C 0.76882 0.77623 0.7514 0.0
C163 C 0.78781 0.75795 0.75345 0.0
C164 C 0.78884 0.74042 0.77604 0.0
C165 C 0.77023 0.74141 0.79628 0.0
C166 C 0.75125 0.75976 0.79445 0.0
C167 C 0.75073 0.77692 0.77184 0.0
C168 C 0.73158 0.76107 0.81568 0.0
C169 C 0.72113 0.73822 0.82655 0.0
C170 C 0.72216 0.78538 0.82407 0.0
C171 C 0.70206 0.78679 0.84173 0.0
C172 C 0.69117 0.76396 0.85182 0.0
C173 C 0.80928 0.72123 0.77874 0.0
C174 C 0.81977 0.7097 0.75493 0.0
C175 C 0.81834 0.71404 0.80526 0.0
C176 C 0.83686 0.69546 0.80789 0.0
C177 C 0.8472 0.68404 0.7841 0.0
C178 C 0.83866 0.69149 0.7576 0.0
C179 C 0.70118 0.73967 0.84458 0.0
H180 H 0.75639 0.7967 0.65813 0.0
H181 H 0.7659 0.76574 0.69542 0.0
H182 H 0.76742 0.82887 0.75542 0.0
H183 H 0.75891 0.85993 0.71837 0.0
H184 H 0.80203 0.75799 0.73784 0.0
H185 H 0.73578 0.79063 0.76964 0.0
H186 H 0.77046 0.72791 0.81355 0.0
H187 H 0.72775 0.71919 0.82034 0.0
H188 H 0.73014 0.8034 0.81667 0.0
H189 H 0.69488 0.80575 0.84737 0.0
H190 H 0.81312 0.7143 0.73418 0.0
H191 H 0.81129 0.72288 0.82411 0.0
H192 H 0.69297 0.72178 0.85201 0.0
H193 H 0.84622 0.68275 0.73893 0.0
H194 H 0.84333 0.69021 0.82856 0.0
C195 C 0.68178 0.25972 0.19557 0.0
C196 C 0.686 0.25413 0.16724 0.0
C197 C 0.70126 0.26164 0.21454 0.0
C198 C 0.72545 0.25837 0.2056 0.0
C199 C 0.72989 0.25375 0.17718 0.0
C200 C 0.71033 0.25151 0.15817 0.0
C201 C 0.7457 0.25804 0.22636 0.0
C202 C 0.74375 0.2421 0.24978 0.0
C203 C 0.76231 0.24146 0.27022 0.0
C204 C 0.78348 0.25682 0.26657 0.0
C205 C 0.78585 0.27309 0.24304 0.0
C206 C 0.7667 0.27347 0.22304 0.0
C207 C 0.80783 0.29022 0.23957 0.0
C208 C 0.8195 0.30193 0.26289 0.0
C209 C 0.81685 0.29577 0.21277 0.0
C210 C 0.83637 0.31318 0.20936 0.0
C211 C 0.84771 0.32499 0.23266 0.0
C212 C 0.75927 0.22424 0.29487 0.0
C213 C 0.73603 0.22122 0.30696 0.0
C214 C 0.77885 0.20927 0.30521 0.0
C215 C 0.77495 0.19084 0.32616 0.0
C216 C 0.75138 0.18688 0.3369 0.0
C217 C 0.73209 0.20256 0.3275 0.0
C218 C 0.83934 0.31893 0.25946 0.0
H219 H 0.66337 0.26257 0.20318 0.0
H220 H 0.69741 0.26553 0.23633 0.0
H221 H 0.7484 0.25095 0.16986 0.0
H222 H 0.71425 0.24702 0.13655 0.0
H223 H 0.72776 0.22964 0.25171 0.0
H224 H 0.76766 0.28632 0.20524 0.0
H225 H 0.798 0.25615 0.2821 0.0
H226 H 0.81293 0.29861 0.28381 0.0
H227 H 0.80883 0.28673 0.19432 0.0
H228 H 0.84268 0.31736 0.18848 0.0
H229 H 0.72067 0.2329 0.30009 0.0
H230 H 0.79693 0.21095 0.29629 0.0
H231 H 0.84767 0.32801 0.27775 0.0
H232 H 0.71384 0.20012 0.33579 0.0
H233 H 0.79011 0.17887 0.33309 0.0
C234 C 0.30376 0.26727 0.84859 0.0
C235 C 0.32745 0.26271 0.83837 0.0
C236 C 0.28362 0.26838 0.83033 0.0
C237 C 0.28674 0.26519 0.80141 0.0
C238 C 0.31054 0.26156 0.79116 0.0
C239 C 0.33057 0.26011 0.80939 0.0
C240 C 0.26523 0.26414 0.78205 0.0
C241 C 0.24497 0.28057 0.78575 0.0
C242 C 0.2243 0.27883 0.76787 0.0
C243 C 0.22445 0.26047 0.74574 0.0
C244 C 0.24493 0.24452 0.74135 0.0
C245 C 0.26491 0.2462 0.75984 0.0
C246 C 0.24605 0.22589 0.71756 0.0
C247 C 0.22716 0.20775 0.71251 0.0
C248 C 0.26716 0.22494 0.70104 0.0
C249 C 0.26972 0.20574 0.6805 0.0
C250 C 0.25128 0.18694 0.67609 0.0
C251 C 0.20296 0.29659 0.77207 0.0
C252 C 0.19614 0.3046 0.79911 0.0
C253 C 0.18958 0.30625 0.74909 0.0
C254 C 0.17014 0.32354 0.75305 0.0
C255 C 0.16387 0.33194 0.78 0.0
C256 C 0.17701 0.32227 0.80299 0.0
C257 C 0.22981 0.18834 0.69205 0.0
H258 H 0.3007 0.26988 0.87073 0.0
H259 H 0.26555 0.27105 0.83898 0.0
H260 H 0.31373 0.25952 0.76897 0.0
H261 H 0.34845 0.25634 0.8007 0.0
H262 H 0.24562 0.29516 0.80221 0.0
H263 H 0.28014 0.23296 0.75713 0.0
H264 H 0.2088 0.25863 0.73176 0.0
H265 H 0.21076 0.20799 0.72505 0.0
H266 H 0.28194 0.23882 0.7044 0.0
H267 H 0.28652 0.20511 0.66867 0.0
H268 H 0.20553 0.2972 0.81741 0.0
H269 H 0.19444 0.30103 0.72793 0.0
H270 H 0.21516 0.17427 0.68886 0.0
H271 H 0.17236 0.32826 0.82402 0.0
H272 H 0.16044 0.33095 0.73494 0.0
C273 C 0.25543 0.83166 0.29736 0.0
C274 C 0.25786 0.82404 0.3254 0.0
C275 C 0.25142 0.81314 0.27632 0.0
C276 C 0.24943 0.78658 0.28278 0.0
C277 C 0.25071 0.77891 0.31083 0.0
C278 C 0.25499 0.79748 0.33198 0.0
C279 C 0.24842 0.76699 0.25992 0.0
C280 C 0.2661 0.76806 0.23896 0.0
C281 C 0.26597 0.74994 0.21697 0.0
C282 C 0.24759 0.73077 0.21566 0.0
C283 C 0.22938 0.72961 0.23621 0.0
C284 C 0.2302 0.74754 0.25868 0.0
C285 C 0.20931 0.71004 0.23364 0.0
C286 C 0.19728 0.706 0.20784 0.0
C287 C 0.20219 0.69512 0.25669 0.0
C288 C 0.18364 0.67631 0.25387 0.0
C289 C 0.17165 0.67227 0.22805 0.0
C290 C 0.28556 0.75092 0.19591 0.0
C291 C 0.29158 0.77463 0.1831 0.0
C292 C 0.29942 0.72862 0.18992 0.0
C293 C 0.3195 0.73022 0.17215 0.0
C294 C 0.32581 0.75405 0.15976 0.0
C295 C 0.31143 0.77614 0.16502 0.0
C296 C 0.17858 0.68742 0.20511 0.0
H297 H 0.25678 0.85198 0.29157 0.0
H298 H 0.25025 0.81955 0.25484 0.0
H299 H 0.24943 0.75848 0.31627 0.0
H300 H 0.25684 0.79091 0.35333 0.0
H301 H 0.2805 0.78269 0.24021 0.0
H302 H 0.21625 0.74696 0.2746 0.0
H303 H 0.24744 0.71679 0.19855 0.0
H304 H 0.20221 0.71739 0.18977 0.0
H305 H 0.21122 0.69772 0.27677 0.0
H306 H 0.17852 0.66507 0.27198 0.0
H307 H 0.28109 0.79206 0.18734 0.0
H308 H 0.29523 0.71018 0.19972 0.0
H309 H 0.16976 0.68466 0.18493 0.0
H310 H 0.31597 0.79474 0.15578 0.0
H311 H 0.3302 0.71287 0.1682 0.0
C312 C 0.97742 0.46526 0.22945 0.0
C313 C 0.03731 0.53674 0.22722 0.0
O314 O 0.98288 0.47462 0.25367 0.0
Zn315 Zn 0.00674 0.50377 0.27179 0.0
O316 O 0.98801 0.47414 0.20794 0.0
Zn317 Zn 0.00773 0.5004 0.22719 0.0
O318 O 0.03338 0.47681 0.249 0.0
O319 O 0.02969 0.48371 0.29428 0.0
O320 O 0.02903 0.52377 0.2064 0.0
O321 O 0.03023 0.53102 0.25184 0.0
O322 O 0.98358 0.5267 0.28964 0.0
O323 O 0.98019 0.52591 0.24359 0.0
C324 C 0.04015 0.47211 0.27413 0.0
C325 C 0.97286 0.53421 0.26741 0.0
C326 C 0.96953 0.47578 0.74129 0.0
C327 C 0.03777 0.53757 0.74024 0.0
O328 O 0.97681 0.48285 0.76575 0.0
Zn329 Zn 0.00459 0.50699 0.78449 0.0
O330 O 0.98057 0.48421 0.71989 0.0
Zn331 Zn 0.0037 0.50657 0.73976 0.0
O332 O 0.02814 0.47907 0.7585 0.0
O333 O 0.02476 0.48175 0.80433 0.0
O334 O 0.02599 0.52862 0.71918 0.0
O335 O 0.03147 0.53092 0.7649 0.0
O336 O 0.98528 0.53258 0.80481 0.0
O337 O 0.98003 0.53443 0.75908 0.0
C338 C 0.0345 0.47143 0.78293 0.0
C339 C 0.97468 0.54252 0.78366 0.0
C340 C 0.22642 0.9722 0.53144 0.0
C341 C 0.23131 0.03854 0.45856 0.0
O342 O 0.20821 0.98347 0.52004 0.0
Zn343 Zn 0.22723 0.00638 0.49582 0.0
O344 O 0.24823 0.97908 0.52527 0.0
Zn345 Zn 0.26677 0.00585 0.4994 0.0
O346 O 0.28242 0.02995 0.5261 0.0
O347 O 0.24226 0.0338 0.52445 0.0
O348 O 0.25212 0.03121 0.46827 0.0
O349 O 0.21167 0.02934 0.4688 0.0
O350 O 0.24561 0.97934 0.46909 0.0
O351 O 0.28561 0.98159 0.47689 0.0
C352 C 0.26303 0.04119 0.53433 0.0
C353 C 0.26738 0.97159 0.46379 0.0
C354 C 0.53685 0.71394 0.03427 0.0
C355 C 0.47421 0.71896 0.96027 0.0
O356 O 0.52629 0.6948 0.02204 0.0
Zn357 Zn 0.50538 0.71528 0.99714 0.0
O358 O 0.53067 0.73726 0.02807 0.0
Zn359 Zn 0.50585 0.75691 1.00095 0.0
O360 O 0.48406 0.77416 0.02669 0.0
O361 O 0.47901 0.73143 0.02502 0.0
O362 O 0.48068 0.74125 0.97029 0.0
O363 O 0.48441 0.69836 0.96929 0.0
O364 O 0.53131 0.73501 0.97143 0.0
O365 O 0.52827 0.77742 0.97911 0.0
C366 C 0.47267 0.75384 0.03447 0.0
C367 C 0.53833 0.75841 0.96654 0.0
C368 C 0.73555 0.97081 0.54208 0.0
C369 C 0.7353 0.03652 0.46845 0.0
O370 O 0.71663 0.9806 0.5306 0.0
Zn371 Zn 0.73391 0.00356 0.5049 0.0
O372 O 0.75687 0.97766 0.53398 0.0
Zn373 Zn 0.77349 0.00245 0.50446 0.0
O374 O 0.79203 0.02606 0.52899 0.0
O375 O 0.75191 0.0309 0.53183 0.0
O376 O 0.75672 0.02866 0.47552 0.0
O377 O 0.71646 0.02729 0.48042 0.0
O378 O 0.74923 0.97654 0.47612 0.0
O379 O 0.78956 0.97754 0.47977 0.0
C380 C 0.77362 0.03774 0.53924 0.0
C381 C 0.7702 0.96821 0.4684 0.0
C382 C 0.53937 0.25654 0.03854 0.0
C383 C 0.4723 0.25956 0.9706 0.0
O384 O 0.5288 0.23713 0.02681 0.0
Zn385 Zn 0.50642 0.25709 0.00405 0.0
O386 O 0.53276 0.27981 0.03241 0.0
Zn387 Zn 0.5069 0.2989 0.00545 0.0
O388 O 0.48668 0.31749 0.03216 0.0
O389 O 0.48319 0.27466 0.0348 0.0
O390 O 0.47957 0.28214 0.97883 0.0
O391 O 0.48326 0.23932 0.9793 0.0
O392 O 0.53142 0.2749 0.97614 0.0
O393 O 0.52794 0.31765 0.97942 0.0
C394 C 0.47718 0.29748 0.04343 0.0
C395 C 0.53803 0.29774 0.96859 0.0
C396 C 0.14339 0.36303 0.2946 0.0
C397 C 0.16461 0.3711 0.2807 0.0
C398 C 0.12317 0.37962 0.29722 0.0
C399 C 0.12428 0.40501 0.28594 0.0
C400 C 0.14612 0.41381 0.27331 0.0
C401 C 0.16599 0.39671 0.27072 0.0
C402 C 0.1002 0.36947 0.31074 0.0
C403 C 0.14807 0.44083 0.26119 0.0
C404 C 0.06612 0.43549 0.25788 0.0
C405 C 0.06047 0.45367 0.27885 0.0
C406 C 0.08646 0.41915 0.26038 0.0
C407 C 0.10178 0.42119 0.28431 0.0
C408 C 0.0959 0.43905 0.30593 0.0
C409 C 0.07514 0.45501 0.30302 0.0
C410 C 0.09182 0.40006 0.23705 0.0
C411 C 0.11195 0.44187 0.33162 0.0
H412 H 0.14238 0.34348 0.30296 0.0
H413 H 0.18221 0.40309 0.25982 0.0
H414 H 0.09351 0.38359 0.32654 0.0
H415 H 0.08554 0.36713 0.29467 0.0
H416 H 0.10312 0.35035 0.32098 0.0
H417 H 0.1671 0.44574 0.2551 0.0
H418 H 0.13608 0.44218 0.24241 0.0
H419 H 0.14169 0.45563 0.27646 0.0
H420 H 0.0547 0.43419 0.23926 0.0
H421 H 0.07089 0.46913 0.3192 0.0
H422 H 0.09336 0.38002 0.24544 0.0
H423 H 0.10963 0.40501 0.22742 0.0
H424 H 0.07744 0.40009 0.22047 0.0
H425 H 0.11468 0.42262 0.34157 0.0
H426 H 0.1041 0.45551 0.34724 0.0
H427 H 0.13028 0.44921 0.3256 0.0
C428 C 0.13397 0.65339 0.74667 0.0
C429 C 0.15695 0.64741 0.73547 0.0
C430 C 0.11447 0.63555 0.74505 0.0
C431 C 0.11809 0.61086 0.73239 0.0
C432 C 0.14111 0.6047 0.72082 0.0
C433 C 0.16021 0.62311 0.72232 0.0
C434 C 0.09013 0.6429 0.75751 0.0
C435 C 0.14574 0.57844 0.70747 0.0
C436 C 0.0765 0.55724 0.75847 0.0
C437 C 0.05895 0.55529 0.73695 0.0
C438 C 0.09623 0.57465 0.75676 0.0
C439 C 0.09828 0.5909 0.73315 0.0
C440 C 0.08086 0.58876 0.71109 0.0
C441 C 0.06146 0.57075 0.71313 0.0
C442 C 0.11465 0.57599 0.78052 0.0
C443 C 0.0823 0.60603 0.68578 0.0
H444 H 0.13131 0.67189 0.75728 0.0
H445 H 0.17772 0.61845 0.71314 0.0
H446 H 0.07516 0.63967 0.74201 0.0
H447 H 0.08628 0.63029 0.77569 0.0
H448 H 0.08972 0.66358 0.76456 0.0
H449 H 0.16436 0.57708 0.69845 0.0
H450 H 0.14367 0.56288 0.72325 0.0
H451 H 0.13203 0.57453 0.69068 0.0
H452 H 0.07481 0.54509 0.77679 0.0
H453 H 0.04789 0.56933 0.69651 0.0
H454 H 0.11396 0.59547 0.79071 0.0
H455 H 0.13346 0.57341 0.77244 0.0
H456 H 0.11124 0.56092 0.79657 0.0
H457 H 0.08009 0.62671 0.69223 0.0
H458 H 0.06799 0.60115 0.6699 0.0
H459 H 0.10055 0.6043 0.67599 0.0
C460 C 0.84848 0.61618 0.27668 0.0
C461 C 0.85147 0.64058 0.26401 0.0
C462 C 0.86804 0.59861 0.27881 0.0
C463 C 0.89127 0.60576 0.26845 0.0
C464 C 0.89459 0.63053 0.25619 0.0
C465 C 0.87463 0.64752 0.25387 0.0
C466 C 0.86372 0.57222 0.2917 0.0
C467 C 0.91916 0.63893 0.24506 0.0
C468 C 0.94768 0.56808 0.29181 0.0
C469 C 0.95168 0.55203 0.26849 0.0
C470 C 0.92801 0.58567 0.29219 0.0
C471 C 0.91179 0.58681 0.26894 0.0
C472 C 0.91546 0.57019 0.24566 0.0
C473 C 0.93545 0.55319 0.24563 0.0
C474 C 0.92485 0.6034 0.3172 0.0
C475 C 0.89834 0.57048 0.22066 0.0
H476 H 0.83083 0.61079 0.28508 0.0
H477 H 0.87711 0.66611 0.24366 0.0
H478 H 0.86735 0.55665 0.2761 0.0
H479 H 0.87659 0.56926 0.30946 0.0
H480 H 0.8447 0.56987 0.29931 0.0
H481 H 0.91912 0.6595 0.23794 0.0
H482 H 0.93354 0.63674 0.26141 0.0
H483 H 0.92426 0.62624 0.22721 0.0
H484 H 0.96022 0.5673 0.30947 0.0
H485 H 0.93829 0.54062 0.22765 0.0
H486 H 0.90637 0.60067 0.32614 0.0
H487 H 0.92629 0.62405 0.31065 0.0
H488 H 0.93878 0.59978 0.33379 0.0
H489 H 0.87924 0.56692 0.22738 0.0
H490 H 0.90319 0.55555 0.20475 0.0
H491 H 0.89882 0.58994 0.21072 0.0
C492 C 0.87356 0.36088 0.75294 0.0
C493 C 0.85031 0.36595 0.74146 0.0
C494 C 0.89285 0.37882 0.75044 0.0
C495 C 0.88873 0.40273 0.73666 0.0
C496 C 0.8654 0.40801 0.72491 0.0
C497 C 0.84652 0.38947 0.72725 0.0
C498 C 0.91752 0.3724 0.76313 0.0
C499 C 0.86023 0.43347 0.7104 0.0
C500 C 0.93092 0.45757 0.76023 0.0
C501 C 0.94807 0.45826 0.73865 0.0
C502 C 0.91102 0.44027 0.75924 0.0
C503 C 0.90842 0.42285 0.73636 0.0
C504 C 0.92538 0.42378 0.71417 0.0
C505 C 0.94493 0.44172 0.71545 0.0
C506 C 0.89309 0.44025 0.78306 0.0
C507 C 0.92337 0.40522 0.68964 0.0
H508 H 0.87664 0.34303 0.76439 0.0
H509 H 0.82879 0.39342 0.71788 0.0
H510 H 0.93212 0.37486 0.74741 0.0
H511 H 0.92167 0.38605 0.78065 0.0
H512 H 0.91826 0.35215 0.77118 0.0
H513 H 0.84138 0.4342 0.7015 0.0
H514 H 0.8626 0.4499 0.72541 0.0
H515 H 0.87349 0.43655 0.69333 0.0
H516 H 0.9331 0.47059 0.77804 0.0
H517 H 0.9582 0.4422 0.69878 0.0
H518 H 0.89415 0.42144 0.79429 0.0
H519 H 0.87409 0.44218 0.77492 0.0
H520 H 0.89672 0.45631 0.79827 0.0
H521 H 0.92595 0.38492 0.69694 0.0
H522 H 0.93719 0.40941 0.6734 0.0
H523 H 0.90484 0.40627 0.68002 0.0
C524 C 0.25099 0.16432 0.36766 0.0
C525 C 0.24427 0.162 0.33942 0.0
C526 C 0.2467 0.14394 0.38639 0.0
C527 C 0.23564 0.12052 0.37658 0.0
C528 C 0.22856 0.11814 0.34814 0.0
C529 C 0.23284 0.13899 0.32991 0.0
C530 C 0.25433 0.14733 0.41661 0.0
C531 C 0.21705 0.09336 0.33682 0.0
C532 C 0.25169 0.06094 0.41916 0.0
C533 C 0.2309 0.05792 0.43582 0.0
C534 C 0.25301 0.08059 0.39909 0.0
C535 C 0.23317 0.09796 0.39576 0.0
C536 C 0.21177 0.09456 0.41188 0.0
C537 C 0.21081 0.07439 0.43164 0.0
C538 C 0.27602 0.08327 0.38206 0.0
C539 C 0.19032 0.11283 0.40904 0.0
H540 H 0.25944 0.18226 0.37519 0.0
H541 H 0.2277 0.1371 0.30806 0.0
H542 H 0.23862 0.14326 0.43043 0.0
H543 H 0.26893 0.13316 0.42188 0.0
H544 H 0.26131 0.16731 0.42124 0.0
H545 H 0.21141 0.09513 0.31456 0.0
H546 H 0.23026 0.07708 0.33868 0.0
H547 H 0.20076 0.08807 0.34925 0.0
H548 H 0.26719 0.04806 0.42206 0.0
H549 H 0.19474 0.07217 0.44453 0.0
H550 H 0.2854 0.10191 0.38745 0.0
H551 H 0.27137 0.08381 0.35947 0.0
H552 H 0.28903 0.06703 0.38574 0.0
H553 H 0.19591 0.1327 0.41596 0.0
H554 H 0.17443 0.10651 0.42165 0.0
H555 H 0.18445 0.11419 0.38686 0.0
C556 C 0.35571 0.70771 0.86016 0.0
C557 C 0.3588 0.72323 0.83648 0.0
C558 C 0.37463 0.70512 0.88006 0.0
C559 C 0.39733 0.7179 0.87583 0.0
C560 C 0.40079 0.73284 0.85139 0.0
C561 C 0.38136 0.73559 0.83218 0.0
C562 C 0.36998 0.68954 0.90612 0.0
C563 C 0.42484 0.74637 0.84582 0.0
C564 C 0.43666 0.73753 0.93842 0.0
C565 C 0.4543 0.71775 0.93905 0.0
C566 C 0.41777 0.73742 0.91836 0.0
C567 C 0.41679 0.71736 0.89791 0.0
C568 C 0.43453 0.69726 0.89842 0.0
C569 C 0.45294 0.69751 0.91925 0.0
C570 C 0.39891 0.75887 0.91904 0.0
C571 C 0.43436 0.67585 0.87663 0.0
H572 H 0.33819 0.69828 0.86355 0.0
H573 H 0.38381 0.74738 0.81371 0.0
H574 H 0.38432 0.6745 0.90885 0.0
H575 H 0.37095 0.70262 0.92467 0.0
H576 H 0.35177 0.67978 0.90563 0.0
H577 H 0.42529 0.75525 0.82474 0.0
H578 H 0.42805 0.76197 0.86163 0.0
H579 H 0.44018 0.73234 0.8477 0.0
H580 H 0.43746 0.75307 0.95389 0.0
H581 H 0.46662 0.68226 0.91961 0.0
H582 H 0.38023 0.75034 0.92003 0.0
H583 H 0.39985 0.77044 0.8996 0.0
H584 H 0.40158 0.77228 0.93715 0.0
H585 H 0.41658 0.66531 0.87677 0.0
H586 H 0.44932 0.66157 0.88001 0.0
H587 H 0.43637 0.68444 0.85557 0.0
C588 C 0.75523 0.83675 0.38267 0.0
C589 C 0.76062 0.83841 0.35415 0.0
C590 C 0.75911 0.85806 0.40076 0.0
C591 C 0.76845 0.88174 0.39008 0.0
C592 C 0.7743 0.88347 0.36143 0.0
C593 C 0.77036 0.86178 0.34382 0.0
C594 C 0.75256 0.85545 0.43118 0.0
C595 C 0.7842 0.90841 0.34925 0.0
C596 C 0.75012 0.94228 0.43037 0.0
C597 C 0.77109 0.94745 0.44675 0.0
C598 C 0.74938 0.92148 0.41127 0.0
C599 C 0.77008 0.90523 0.40849 0.0
C600 C 0.79162 0.91077 0.42429 0.0
C601 C 0.79192 0.93194 0.44319 0.0
C602 C 0.72612 0.91646 0.39466 0.0
C603 C 0.81402 0.89381 0.42189 0.0
H604 H 0.74745 0.81891 0.3908 0.0
H605 H 0.775 0.8631 0.32193 0.0
H606 H 0.7683 0.86141 0.44465 0.0
H607 H 0.73711 0.86862 0.43613 0.0
H608 H 0.74717 0.8352 0.43658 0.0
H609 H 0.78922 0.90611 0.32695 0.0
H610 H 0.77026 0.924 0.35092 0.0
H611 H 0.8006 0.91507 0.36123 0.0
H612 H 0.73401 0.95435 0.43273 0.0
H613 H 0.80815 0.93581 0.4558 0.0
H614 H 0.71818 0.89735 0.40057 0.0
H615 H 0.73018 0.91548 0.37202 0.0
H616 H 0.71214 0.93177 0.39814 0.0
H617 H 0.80976 0.87394 0.42954 0.0
H618 H 0.82982 0.90172 0.43412 0.0
H619 H 0.81942 0.89183 0.39971 0.0
C620 C 0.65503 0.3107 0.86897 0.0
C621 C 0.65223 0.29338 0.84623 0.0
C622 C 0.63633 0.31409 0.88859 0.0
C623 C 0.61394 0.30037 0.88512 0.0
C624 C 0.61048 0.28388 0.86154 0.0
C625 C 0.62971 0.28033 0.84263 0.0
C626 C 0.64093 0.33152 0.91367 0.0
C627 C 0.58675 0.26917 0.85681 0.0
C628 C 0.5768 0.28152 0.9484 0.0
C629 C 0.55809 0.30014 0.94825 0.0
C630 C 0.59546 0.28199 0.92855 0.0
C631 C 0.5951 0.30116 0.90744 0.0
C632 C 0.57639 0.32028 0.90734 0.0
C633 C 0.55824 0.31976 0.92805 0.0
C634 C 0.61537 0.26166 0.92995 0.0
C635 C 0.57509 0.34067 0.88484 0.0
H636 H 0.67201 0.32147 0.8717 0.0
H637 H 0.62725 0.26665 0.82547 0.0
H638 H 0.62602 0.346 0.91575 0.0
H639 H 0.64101 0.31961 0.93292 0.0
H640 H 0.65868 0.3421 0.91245 0.0
H641 H 0.58587 0.25964 0.83591 0.0
H642 H 0.58479 0.25391 0.87294 0.0
H643 H 0.57093 0.28253 0.85883 0.0
H644 H 0.57688 0.26648 0.9642 0.0
H645 H 0.54368 0.33407 0.92782 0.0
H646 H 0.63366 0.2712 0.93016 0.0
H647 H 0.61437 0.24891 0.91115 0.0
H648 H 0.6139 0.24922 0.94876 0.0
H649 H 0.59266 0.35154 0.88378 0.0
H650 H 0.56005 0.3548 0.88834 0.0
H651 H 0.57214 0.33104 0.86424 0.0
C652 C 0.21764 0.84774 0.63167 0.0
C653 C 0.23649 0.8503 0.65173 0.0
C654 C 0.21249 0.86783 0.61278 0.0
C655 C 0.22629 0.89122 0.61415 0.0
C656 C 0.24443 0.89451 0.63527 0.0
C657 C 0.24942 0.87397 0.65368 0.0
C658 C 0.19311 0.86348 0.59048 0.0
C659 C 0.25943 0.91926 0.63757 0.0
C660 C 0.23923 0.92895 0.54831 0.0
C661 C 0.22342 0.95024 0.55079 0.0
C662 C 0.23951 0.90911 0.56819 0.0
C663 C 0.22395 0.91089 0.59157 0.0
C664 C 0.20732 0.93197 0.59376 0.0
C665 C 0.20706 0.95137 0.57307 0.0
C666 C 0.25712 0.8867 0.56463 0.0
C667 C 0.19071 0.93467 0.61857 0.0
H668 H 0.2071 0.82981 0.63042 0.0
H669 H 0.26409 0.87615 0.66895 0.0
H670 H 0.18036 0.88024 0.5897 0.0
H671 H 0.20194 0.86202 0.56976 0.0
H672 H 0.18234 0.84538 0.59394 0.0
H673 H 0.27071 0.91998 0.65701 0.0
H674 H 0.27184 0.92065 0.61944 0.0
H675 H 0.24732 0.93657 0.63712 0.0
H676 H 0.25178 0.92805 0.53092 0.0
H677 H 0.19503 0.96801 0.57507 0.0
H678 H 0.24724 0.86782 0.56622 0.0
H679 H 0.27114 0.88732 0.58156 0.0
H680 H 0.26662 0.88727 0.54425 0.0
H681 H 0.18047 0.91626 0.62202 0.0
H682 H 0.17739 0.95081 0.61598 0.0
H683 H 0.20191 0.93855 0.63764 0.0
C684 C 0.65265 0.69507 0.13737 0.0
C685 C 0.64875 0.70987 0.16164 0.0
C686 C 0.63442 0.6929 0.11652 0.0
C687 C 0.61161 0.70541 0.12032 0.0
C688 C 0.60724 0.7194 0.1454 0.0
C689 C 0.62597 0.72171 0.16561 0.0
C690 C 0.64001 0.67828 0.08987 0.0
C691 C 0.58305 0.73266 0.15051 0.0
C692 C 0.57513 0.72919 0.05778 0.0
C693 C 0.55674 0.71013 0.05505 0.0
C694 C 0.5935 0.72732 0.07829 0.0
C695 C 0.59323 0.70616 0.09708 0.0
C696 C 0.57493 0.68656 0.09418 0.0
C697 C 0.55702 0.68861 0.07291 0.0
C698 C 0.61296 0.74833 0.08016 0.0
C699 C 0.5738 0.66395 0.11412 0.0
H700 H 0.67033 0.68604 0.13421 0.0
H701 H 0.62287 0.73292 0.18453 0.0
H702 H 0.62535 0.66385 0.08505 0.0
H703 H 0.6406 0.69217 0.07223 0.0
H704 H 0.65783 0.66795 0.09105 0.0
H705 H 0.58168 0.7404 0.17217 0.0
H706 H 0.58078 0.74911 0.1358 0.0
H707 H 0.56768 0.71883 0.1466 0.0
H708 H 0.57514 0.74571 0.04378 0.0
H709 H 0.54275 0.67393 0.07092 0.0
H710 H 0.63145 0.73946 0.07984 0.0
H711 H 0.61131 0.75917 0.10018 0.0
H712 H 0.61154 0.76248 0.06277 0.0
H713 H 0.5916 0.65363 0.1147 0.0
H714 H 0.55915 0.64975 0.10832 0.0
H715 H 0.57035 0.67134 0.13555 0.0
C716 C 0.7856 0.16098 0.64321 0.0
C717 C 0.76824 0.15797 0.66434 0.0
C718 C 0.78901 0.14147 0.62293 0.0
C719 C 0.77501 0.11821 0.6241 0.0
C720 C 0.75801 0.11474 0.64596 0.0
C721 C 0.75463 0.13481 0.66566 0.0
C722 C 0.80687 0.1462 0.59963 0.0
C723 C 0.74299 0.09006 0.64817 0.0
C724 C 0.7599 0.08031 0.55791 0.0
C725 C 0.77639 0.0595 0.55935 0.0
C726 C 0.75994 0.10001 0.5783 0.0
C727 C 0.77649 0.09853 0.60117 0.0
C728 C 0.79363 0.07785 0.60243 0.0
C729 C 0.79358 0.05866 0.58122 0.0
C730 C 0.7418 0.12204 0.57572 0.0
C731 C 0.81127 0.07542 0.62672 0.0
H732 H 0.796 0.179 0.64206 0.0
H733 H 0.74138 0.1324 0.68215 0.0
H734 H 0.81992 0.12976 0.59801 0.0
H735 H 0.79678 0.14725 0.57943 0.0
H736 H 0.81743 0.16459 0.60268 0.0
H737 H 0.73227 0.08943 0.66775 0.0
H738 H 0.73008 0.08857 0.63018 0.0
H739 H 0.75509 0.07275 0.64737 0.0
H740 H 0.7467 0.08102 0.54084 0.0
H741 H 0.80615 0.0424 0.58245 0.0
H742 H 0.7514 0.14112 0.57741 0.0
H743 H 0.7285 0.12111 0.59304 0.0
H744 H 0.73147 0.12134 0.55562 0.0
H745 H 0.8219 0.09374 0.6296 0.0
H746 H 0.82425 0.05902 0.62389 0.0
H747 H 0.80087 0.07221 0.6462 0.0
C748 C 0.35717 0.2961 0.13555 0.0
C749 C 0.36139 0.29975 0.16429 0.0
C750 C 0.37631 0.29803 0.11631 0.0
C751 C 0.40039 0.30358 0.12598 0.0
C752 C 0.40472 0.30789 0.15486 0.0
C753 C 0.38519 0.30597 0.17365 0.0
C754 C 0.37089 0.29325 0.0857 0.0
C755 C 0.43012 0.31382 0.16601 0.0
C756 C 0.45149 0.27764 0.08057 0.0
C757 C 0.45871 0.29991 0.06583 0.0
C758 C 0.433 0.27878 0.10063 0.0
C759 C 0.42123 0.30278 0.10611 0.0
C760 C 0.42875 0.3255 0.0918 0.0
C761 C 0.44748 0.32382 0.07188 0.0
C762 C 0.42569 0.25411 0.11552 0.0
C763 C 0.41657 0.35142 0.09702 0.0
H764 H 0.33896 0.29094 0.12809 0.0
H765 H 0.38859 0.30924 0.19574 0.0
H766 H 0.37813 0.30955 0.07306 0.0
H767 H 0.38021 0.27521 0.07869 0.0
H768 H 0.35096 0.29112 0.08131 0.0
H769 H 0.4302 0.31834 0.18874 0.0
H770 H 0.4422 0.29682 0.16233 0.0
H771 H 0.43815 0.3306 0.15478 0.0
H772 H 0.46014 0.25908 0.07625 0.0
H773 H 0.45291 0.34111 0.06057 0.0
H774 H 0.40637 0.24912 0.11034 0.0
H775 H 0.42691 0.25711 0.13846 0.0
H776 H 0.43738 0.23727 0.10976 0.0
H777 H 0.397 0.35021 0.09064 0.0
H778 H 0.42539 0.36751 0.08535 0.0
H779 H 0.41714 0.35628 0.11963 0.0
C780 C 0.86258 0.64181 0.80314 0.0
C781 C 0.86657 0.66403 0.78692 0.0
C782 C 0.88023 0.622 0.80479 0.0
C783 C 0.90259 0.6248 0.79036 0.0
C784 C 0.90701 0.64769 0.77474 0.0
C785 C 0.8888 0.66688 0.77292 0.0
C786 C 0.87454 0.59766 0.82109 0.0
C787 C 0.93078 0.65166 0.75949 0.0
C788 C 0.95639 0.58075 0.80897 0.0
C789 C 0.95574 0.56286 0.7867 0.0
C790 C 0.93917 0.60106 0.81056 0.0
C791 C 0.92058 0.60302 0.78978 0.0
C792 C 0.91944 0.58443 0.76781 0.0
C793 C 0.93719 0.56482 0.76637 0.0
C794 C 0.94126 0.62082 0.83399 0.0
C795 C 0.8996 0.58537 0.74562 0.0
H796 H 0.8453 0.63956 0.81382 0.0
H797 H 0.89195 0.6842 0.76059 0.0
H798 H 0.87371 0.58062 0.80667 0.0
H799 H 0.88931 0.59385 0.83658 0.0
H800 H 0.85684 0.59905 0.83222 0.0
H801 H 0.93222 0.67146 0.75037 0.0
H802 H 0.94655 0.64865 0.77389 0.0
H803 H 0.93227 0.63707 0.74237 0.0
H804 H 0.97079 0.57935 0.82463 0.0
H805 H 0.93645 0.55083 0.74927 0.0
H806 H 0.92389 0.62165 0.84575 0.0
H807 H 0.94445 0.6405 0.82522 0.0
H808 H 0.95644 0.6163 0.84877 0.0
H809 H 0.88129 0.5855 0.75547 0.0
H810 H 0.90045 0.56855 0.7309 0.0
H811 H 0.9013 0.60361 0.73348 0.0
C812 C 0.88999 0.34153 0.24338 0.0
C813 C 0.86768 0.34431 0.22903 0.0
C814 C 0.90859 0.36039 0.24116 0.0
C815 C 0.90451 0.38287 0.22475 0.0
C816 C 0.88211 0.38554 0.20987 0.0
C817 C 0.86406 0.36606 0.21196 0.0
C818 C 0.93238 0.35656 0.25691 0.0
C819 C 0.8768 0.40946 0.19269 0.0
C820 C 0.94005 0.44334 0.24731 0.0
C821 C 0.95841 0.44468 0.22712 0.0
C822 C 0.92211 0.42371 0.24632 0.0
C823 C 0.92286 0.40448 0.22499 0.0
C824 C 0.94132 0.40575 0.20443 0.0
C825 C 0.95873 0.42609 0.20553 0.0
C826 C 0.90242 0.42348 0.26825 0.0
C827 C 0.94299 0.38531 0.1817 0.0
H828 H 0.89283 0.32458 0.25641 0.0
H829 H 0.84671 0.36828 0.20103 0.0
H830 H 0.94813 0.35911 0.24271 0.0
H831 H 0.9342 0.37151 0.27368 0.0
H832 H 0.93355 0.33697 0.26656 0.0
H833 H 0.85906 0.40792 0.18121 0.0
H834 H 0.87625 0.42688 0.20657 0.0
H835 H 0.8916 0.41275 0.17741 0.0
H836 H 0.93958 0.45786 0.26388 0.0
H837 H 0.97299 0.42701 0.18998 0.0
H838 H 0.90388 0.40551 0.28089 0.0
H839 H 0.88405 0.42331 0.25812 0.0
H840 H 0.90369 0.44062 0.28253 0.0
H841 H 0.94579 0.36585 0.19117 0.0
H842 H 0.95825 0.38923 0.16712 0.0
H843 H 0.9256 0.38437 0.16955 0.0
C844 C 0.121 0.3474 0.77167 0.0
C845 C 0.14412 0.35136 0.78398 0.0
C846 C 0.10255 0.36627 0.77408 0.0
C847 C 0.10755 0.38992 0.78859 0.0
C848 C 0.13077 0.39378 0.8015 0.0
C849 C 0.1487 0.37432 0.79927 0.0
C850 C 0.07791 0.36117 0.76045 0.0
C851 C 0.13704 0.41892 0.8166 0.0
C852 C 0.07093 0.44839 0.76431 0.0
C853 C 0.05363 0.45118 0.78555 0.0
C854 C 0.08888 0.42897 0.76547 0.0
C855 C 0.08926 0.41142 0.78814 0.0
C856 C 0.07192 0.4142 0.8098 0.0
C857 C 0.05446 0.4343 0.80842 0.0
C858 C 0.10734 0.42713 0.74227 0.0
C859 C 0.07147 0.39557 0.83403 0.0
H860 H 0.11739 0.32954 0.76006 0.0
H861 H 0.16665 0.37747 0.80862 0.0
H862 H 0.06303 0.36476 0.77558 0.0
H863 H 0.07516 0.37479 0.74282 0.0
H864 H 0.07618 0.34089 0.75233 0.0
H865 H 0.15533 0.41824 0.82695 0.0
H866 H 0.13694 0.43526 0.80154 0.0
H867 H 0.12308 0.42333 0.83259 0.0
H868 H 0.07055 0.46159 0.74672 0.0
H869 H 0.04104 0.43634 0.8248 0.0
H870 H 0.10517 0.40824 0.73105 0.0
H871 H 0.12622 0.42778 0.75108 0.0
H872 H 0.10534 0.44313 0.72691 0.0
H873 H 0.06806 0.37544 0.82621 0.0
H874 H 0.05711 0.40061 0.84939 0.0
H875 H 0.08951 0.39555 0.84489 0.0
C876 C 0.15509 0.62729 0.23595 0.0
C877 C 0.15191 0.65235 0.22504 0.0
C878 C 0.1364 0.60844 0.2338 0.0
C879 C 0.11387 0.61491 0.22071 0.0
C880 C 0.1107 0.64006 0.20925 0.0
C881 C 0.1298 0.65844 0.21143 0.0
C882 C 0.14061 0.58177 0.24606 0.0
C883 C 0.08685 0.64783 0.1955 0.0
C884 C 0.07063 0.55912 0.2004 0.0
C885 C 0.05556 0.55794 0.22389 0.0
C886 C 0.0895 0.57785 0.19877 0.0
C887 C 0.09307 0.59598 0.22096 0.0
C888 C 0.07727 0.59545 0.24418 0.0
C889 C 0.05886 0.57637 0.24543 0.0
C890 C 0.10611 0.5777 0.17379 0.0
C891 C 0.08017 0.61464 0.26809 0.0
H892 H 0.17227 0.62239 0.24613 0.0
H893 H 0.1272 0.67785 0.20315 0.0
H894 H 0.12797 0.57864 0.26372 0.0
H895 H 0.13656 0.56643 0.23019 0.0
H896 H 0.1597 0.57926 0.25378 0.0
H897 H 0.08783 0.66756 0.18613 0.0
H898 H 0.08168 0.63355 0.17892 0.0
H899 H 0.07201 0.6477 0.21115 0.0
H900 H 0.06824 0.54486 0.18376 0.0
H901 H 0.04713 0.57575 0.26354 0.0
H902 H 0.12507 0.57296 0.18056 0.0
H903 H 0.10669 0.59731 0.1642 0.0
H904 H 0.10016 0.56326 0.15765 0.0
H905 H 0.09811 0.61168 0.27868 0.0
H906 H 0.06548 0.61258 0.28381 0.0
H907 H 0.07998 0.6349 0.26014 0.0
C908 C 0.73295 0.87013 0.66952 0.0
C909 C 0.74912 0.84971 0.66326 0.0
C910 C 0.72743 0.88943 0.64985 0.0
C911 C 0.73804 0.88813 0.62307 0.0
C912 C 0.75328 0.86682 0.61605 0.0
C913 C 0.75876 0.84796 0.63628 0.0
C914 C 0.71123 0.91189 0.65823 0.0
C915 C 0.76475 0.86461 0.58759 0.0
C916 C 0.7155 0.93219 0.56443 0.0
C917 C 0.73388 0.95134 0.56452 0.0
C918 C 0.71629 0.91156 0.58367 0.0
C919 C 0.73564 0.91051 0.60362 0.0
C920 C 0.75351 0.93058 0.60453 0.0
C921 C 0.75252 0.95056 0.58484 0.0
C922 C 0.69708 0.89035 0.58189 0.0
C923 C 0.77414 0.93056 0.62582 0.0
H924 H 0.72484 0.87129 0.69005 0.0
H925 H 0.77132 0.83237 0.63121 0.0
H926 H 0.72229 0.93009 0.6594 0.0
H927 H 0.69662 0.91492 0.64233 0.0
H928 H 0.70256 0.90877 0.67882 0.0
H929 H 0.77371 0.84543 0.58432 0.0
H930 H 0.75072 0.86737 0.57096 0.0
H931 H 0.77874 0.88018 0.58522 0.0
H932 H 0.70121 0.93266 0.54855 0.0
H933 H 0.76666 0.9655 0.58506 0.0
H934 H 0.68884 0.88709 0.60266 0.0
H935 H 0.70575 0.87177 0.5754 0.0
H936 H 0.68225 0.89501 0.56669 0.0
H937 H 0.76669 0.92901 0.64721 0.0
H938 H 0.78566 0.94844 0.62477 0.0
H939 H 0.78602 0.91338 0.62231 0.0
C940 C 0.64344 0.23839 0.15597 0.0
C941 C 0.66499 0.25094 0.14744 0.0
C942 C 0.62281 0.23683 0.13834 0.0
C943 C 0.62386 0.2477 0.11133 0.0
C944 C 0.64586 0.25936 0.10209 0.0
C945 C 0.66612 0.26099 0.12032 0.0
C946 C 0.59962 0.22441 0.14901 0.0
C947 C 0.64773 0.27097 0.0733 0.0
C948 C 0.57449 0.23058 0.0575 0.0
C949 C 0.55985 0.25294 0.0585 0.0
C950 C 0.59537 0.22843 0.07474 0.0
C951 C 0.60137 0.24891 0.09364 0.0
C952 C 0.58612 0.27108 0.09536 0.0
C953 C 0.56567 0.27291 0.07762 0.0
C954 C 0.61141 0.20465 0.07213 0.0
C955 C 0.59162 0.29313 0.11563 0.0
H956 H 0.64257 0.22999 0.17663 0.0
H957 H 0.68259 0.27089 0.11358 0.0
H958 H 0.58508 0.23938 0.15063 0.0
H959 H 0.59292 0.20922 0.13417 0.0
H960 H 0.60228 0.21542 0.16985 0.0
H961 H 0.66675 0.27702 0.06834 0.0
H962 H 0.64132 0.25671 0.05725 0.0
H963 H 0.63572 0.2883 0.0718 0.0
H964 H 0.57012 0.2152 0.04258 0.0
H965 H 0.55427 0.29014 0.07861 0.0
H966 H 0.6139 0.19535 0.09279 0.0
H967 H 0.62984 0.21055 0.06485 0.0
H968 H 0.60368 0.18999 0.05724 0.0
H969 H 0.59322 0.28551 0.13719 0.0
H970 H 0.57727 0.30842 0.11524 0.0
H971 H 0.60943 0.3023 0.11048 0.0
C972 C 0.26437 0.17083 0.629 0.0
C973 C 0.25487 0.16554 0.65548 0.0
C974 C 0.26789 0.15076 0.60936 0.0
C975 C 0.26187 0.12477 0.61642 0.0
C976 C 0.25278 0.11923 0.64333 0.0
C977 C 0.2493 0.1397 0.6625 0.0
C978 C 0.27733 0.1575 0.58077 0.0
C979 C 0.24623 0.09175 0.65168 0.0
C980 C 0.24259 0.07817 0.55847 0.0
C981 C 0.26367 0.06298 0.55485 0.0
C982 C 0.24197 0.09847 0.57813 0.0
C983 C 0.26291 0.10373 0.59488 0.0
C984 C 0.28441 0.08873 0.59123 0.0
C985 C 0.28459 0.06855 0.5711 0.0
C986 C 0.21875 0.11414 0.58113 0.0
C987 C 0.30704 0.09376 0.60885 0.0
H988 H 0.26858 0.19079 0.62343 0.0
H989 H 0.24236 0.13545 0.6831 0.0
H990 H 0.29338 0.14525 0.57563 0.0
H991 H 0.26295 0.15332 0.5648 0.0
H992 H 0.28274 0.17835 0.57923 0.0
H993 H 0.24107 0.09047 0.67401 0.0
H994 H 0.23063 0.08456 0.63869 0.0
H995 H 0.26189 0.07852 0.64789 0.0
H996 H 0.22637 0.07422 0.54585 0.0
H997 H 0.30091 0.05688 0.56844 0.0
H998 H 0.22269 0.13516 0.57803 0.0
H999 H 0.21149 0.11198 0.60254 0.0
H1000 H 0.20429 0.10798 0.56595 0.0
H1001 H 0.31309 0.1143 0.60657 0.0
H1002 H 0.32241 0.08073 0.60309 0.0
H1003 H 0.30278 0.09082 0.63121 0.0
C1004 C 0.34614 0.76762 0.11562 0.0
C1005 C 0.34771 0.75602 0.14197 0.0
C1006 C 0.36668 0.76897 0.0983 0.0
C1007 C 0.38933 0.75883 0.10781 0.0
C1008 C 0.39114 0.74778 0.13475 0.0
C1009 C 0.37024 0.74632 0.15143 0.0
C1010 C 0.36394 0.78049 0.06952 0.0
C1011 C 0.41506 0.73707 0.14575 0.0
C1012 C 0.43483 0.73473 0.0545 0.0
C1013 C 0.45148 0.7556 0.05333 0.0
C1014 C 0.41439 0.73575 0.07187 0.0
C1015 C 0.41068 0.75803 0.08886 0.0
C1016 C 0.42743 0.77918 0.08789 0.0
C1017 C 0.44758 0.77782 0.0699 0.0
C1018 C 0.39675 0.71296 0.07199 0.0
C1019 C 0.4242 0.80308 0.10605 0.0
H1020 H 0.32868 0.77502 0.10828 0.0
H1021 H 0.37151 0.73769 0.17199 0.0
H1022 H 0.37769 0.79619 0.06653 0.0
H1023 H 0.36741 0.76524 0.0535 0.0
H1024 H 0.34539 0.78864 0.0658 0.0
H1025 H 0.4138 0.73088 0.16788 0.0
H1026 H 0.42059 0.72001 0.13295 0.0
H1027 H 0.42976 0.75196 0.14409 0.0
H1028 H 0.43758 0.7176 0.04153 0.0
H1029 H 0.46043 0.79396 0.06909 0.0
H1030 H 0.37799 0.71968 0.06673 0.0
H1031 H 0.39611 0.70437 0.09316 0.0
H1032 H 0.40191 0.69742 0.0569 0.0
H1033 H 0.40622 0.81221 0.10153 0.0
H1034 H 0.43886 0.81782 0.10285 0.0
H1035 H 0.42425 0.79743 0.12837 0.0
C1036 C 0.72834 0.14685 0.35028 0.0
C1037 C 0.74653 0.16543 0.35661 0.0
C1038 C 0.72415 0.12564 0.36797 0.0
C1039 C 0.73816 0.12329 0.39285 0.0
C1040 C 0.75606 0.14247 0.39974 0.0
C1041 C 0.76025 0.16316 0.38132 0.0
C1042 C 0.70535 0.10529 0.35955 0.0
C1043 C 0.77107 0.14089 0.42632 0.0
C1044 C 0.71709 0.07786 0.45048 0.0
C1045 C 0.73334 0.05704 0.44719 0.0
C1046 C 0.71812 0.09951 0.43264 0.0
C1047 C 0.73537 0.09987 0.41072 0.0
C1048 C 0.75086 0.07817 0.40651 0.0
C1049 C 0.74988 0.0572 0.42504 0.0
C1050 C 0.70163 0.12249 0.43808 0.0
C1051 C 0.76904 0.07745 0.38296 0.0
H1052 H 0.71789 0.14852 0.33101 0.0
H1053 H 0.77418 0.17767 0.38625 0.0
H1054 H 0.71455 0.08631 0.35603 0.0
H1055 H 0.69198 0.10243 0.37654 0.0
H1056 H 0.69522 0.11061 0.34019 0.0
H1057 H 0.78277 0.15844 0.42971 0.0
H1058 H 0.75886 0.13863 0.44454 0.0
H1059 H 0.78304 0.12349 0.42556 0.0
H1060 H 0.70453 0.07785 0.46786 0.0
H1061 H 0.76239 0.04101 0.42247 0.0
H1062 H 0.6914 0.12772 0.4188 0.0
H1063 H 0.71291 0.13969 0.44424 0.0
H1064 H 0.68828 0.11855 0.4549 0.0
H1065 H 0.75974 0.08174 0.36281 0.0
H1066 H 0.77825 0.05824 0.38116 0.0
H1067 H 0.78327 0.09268 0.38642 0.0
C1068 C 0.37179 0.27045 0.85045 0.0
C1069 C 0.34881 0.26036 0.85779 0.0
C1070 C 0.39211 0.26824 0.86841 0.0
C1071 C 0.38933 0.25611 0.89464 0.0
C1072 C 0.36629 0.24575 0.90218 0.0
C1073 C 0.34636 0.24781 0.88358 0.0
C1074 C 0.41645 0.2794 0.85956 0.0
C1075 C 0.36254 0.23301 0.93015 0.0
C1076 C 0.44678 0.23587 0.93451 0.0
C1077 C 0.45071 0.25768 0.95181 0.0
C1078 C 0.42674 0.23492 0.91582 0.0
C1079 C 0.41011 0.25605 0.91494 0.0
C1080 C 0.41368 0.27774 0.93297 0.0
C1081 C 0.43403 0.27837 0.95098 0.0
C1082 C 0.42367 0.21167 0.89657 0.0
C1083 C 0.39613 0.30044 0.93306 0.0
H1084 H 0.37386 0.28054 0.83082 0.0
H1085 H 0.32885 0.23948 0.88925 0.0
H1086 H 0.42154 0.29609 0.87334 0.0
H1087 H 0.43103 0.26453 0.86175 0.0
H1088 H 0.41605 0.28626 0.83761 0.0
H1089 H 0.3437 0.22511 0.93244 0.0
H1090 H 0.37578 0.21689 0.93303 0.0
H1091 H 0.36605 0.24743 0.94714 0.0
H1092 H 0.45968 0.21987 0.93507 0.0
H1093 H 0.43681 0.29516 0.96457 0.0
H1094 H 0.42488 0.21805 0.87454 0.0
H1095 H 0.4053 0.20276 0.89924 0.0
H1096 H 0.43779 0.19654 0.90038 0.0
H1097 H 0.39621 0.3101 0.91241 0.0
H1098 H 0.40089 0.31521 0.94935 0.0
H1099 H 0.37719 0.29341 0.93667 0.0
C1100 C 0.27972 0.86457 0.34191 0.0
C1101 C 0.26351 0.84392 0.34743 0.0
C1102 C 0.28353 0.88485 0.36131 0.0
C1103 C 0.27113 0.88434 0.38708 0.0
C1104 C 0.25587 0.86283 0.39348 0.0
C1105 C 0.25213 0.84295 0.37353 0.0
C1106 C 0.29984 0.90749 0.3536 0.0
C1107 C 0.24251 0.86144 0.42088 0.0
C1108 C 0.28896 0.93201 0.44541 0.0
C1109 C 0.27042 0.95066 0.4428 0.0
C1110 C 0.28969 0.91032 0.42723 0.0
C1111 C 0.27173 0.90764 0.40579 0.0
C1112 C 0.25364 0.92708 0.40246 0.0
C1113 C 0.2531 0.94818 0.42113 0.0
C1114 C 0.30906 0.88981 0.4316 0.0
C1115 C 0.23445 0.9253 0.37954 0.0
H1116 H 0.28914 0.86516 0.32212 0.0
H1117 H 0.23953 0.82717 0.37799 0.0
H1118 H 0.28854 0.92523 0.35077 0.0
H1119 H 0.31324 0.91173 0.37062 0.0
H1120 H 0.30999 0.90377 0.334 0.0
H1121 H 0.2338 0.84208 0.42408 0.0
H1122 H 0.25528 0.86553 0.43857 0.0
H1123 H 0.22802 0.87654 0.42139 0.0
H1124 H 0.30223 0.93379 0.46233 0.0
H1125 H 0.23885 0.96271 0.41894 0.0
H1126 H 0.31892 0.88601 0.41186 0.0
H1127 H 0.30024 0.87122 0.43778 0.0
H1128 H 0.32259 0.89556 0.44803 0.0
H1129 H 0.24334 0.92311 0.35893 0.0
H1130 H 0.22246 0.94274 0.37895 0.0
H1131 H 0.22279 0.9078 0.38265 0.0
C1132 C 0.66721 0.75217 0.89413 0.0
C1133 C 0.66875 0.76551 0.86881 0.0
C1134 C 0.64578 0.75306 0.91002 0.0
C1135 C 0.6253 0.76719 0.89998 0.0
C1136 C 0.62685 0.78083 0.87448 0.0
C1137 C 0.64866 0.77999 0.8593 0.0
C1138 C 0.64493 0.73858 0.93734 0.0
C1139 C 0.60525 0.79564 0.86283 0.0
C1140 C 0.56402 0.74398 0.92682 0.0
C1141 C 0.55908 0.76257 0.94758 0.0
C1142 C 0.58508 0.74583 0.91049 0.0
C1143 C 0.60188 0.76648 0.91547 0.0
C1144 C 0.59669 0.78572 0.93593 0.0
C1145 C 0.57515 0.78368 0.95159 0.0
C1146 C 0.58968 0.72525 0.88844 0.0
C1147 C 0.61435 0.80781 0.94206 0.0
H1148 H 0.68285 0.74114 0.90155 0.0
H1149 H 0.6498 0.79009 0.83954 0.0
H1150 H 0.63923 0.75194 0.95438 0.0
H1151 H 0.63112 0.72268 0.93592 0.0
H1152 H 0.66291 0.72996 0.94304 0.0
H1153 H 0.60975 0.80599 0.84323 0.0
H1154 H 0.58985 0.78195 0.85849 0.0
H1155 H 0.59874 0.81012 0.87836 0.0
H1156 H 0.55151 0.72772 0.92356 0.0
H1157 H 0.57147 0.79794 0.96782 0.0
H1158 H 0.60613 0.71379 0.8942 0.0
H1159 H 0.59336 0.73455 0.86806 0.0
H1160 H 0.57394 0.7116 0.88581 0.0
H1161 H 0.63186 0.79984 0.9502 0.0
H1162 H 0.60707 0.82185 0.95764 0.0
H1163 H 0.61857 0.81849 0.92262 0.0
loop_
_geom_bond_atom_site_label_1
_geom_bond_atom_site_label_2
_geom_bond_distance
_geom_bond_site_symmetry_2
_ccdc_geom_bond_type
C0 C1 1.386 . S
C0 C2 1.397 . S
C0 H24 0.931 . S
C1 C0 1.386 . S
C1 C5 1.397 . S
C2 C0 1.397 . S
C2 C3 1.384 . S
C2 H25 0.930 . S
C3 C2 1.384 . S
C3 C4 1.377 . S
C3 C6 1.481 . S
C4 C3 1.377 . S
C4 C5 1.389 . S
C4 H26 0.929 . S
C5 C1 1.397 . S
C5 C4 1.389 . S
C5 H27 0.931 . S
C6 C3 1.481 . S
C6 C7 1.387 . S
C6 C11 1.390 . S
C7 C6 1.387 . S
C7 C8 1.401 . S
C7 H28 0.930 . S
C8 C7 1.401 . S
C8 C9 1.376 . S
C8 C17 1.511 . S
C9 C8 1.376 . S
C9 C10 1.392 . S
C9 H30 0.931 . S
C10 C9 1.392 . S
C10 C11 1.361 . S
C10 C12 1.500 . S
C11 C6 1.390 . S
C11 C10 1.361 . S
C11 H29 0.931 . S
C12 C10 1.500 . S
C12 C13 1.371 . S
C12 C14 1.365 . S
C13 C12 1.371 . S
C13 C23 1.386 . S
C13 H31 0.931 . S
C14 C12 1.365 . S
C14 C15 1.409 . S
C14 H32 0.929 . S
C15 C14 1.409 . S
C15 C16 1.380 . S
C15 H33 0.930 . S
C16 C15 1.380 . S
C16 C23 1.357 . S
C17 C8 1.511 . S
C17 C18 1.341 . S
C17 C19 1.371 . S
C18 C17 1.341 . S
C18 C22 1.394 . S
C18 H34 0.930 . S
C19 C17 1.371 . S
C19 C20 1.392 . S
C19 H35 0.931 . S
C20 C19 1.392 . S
C20 C21 1.331 . S
C20 H38 0.932 . S
C21 C20 1.331 . S
C21 C22 1.336 . S
C22 C18 1.394 . S
C22 C21 1.336 . S
C22 H37 0.929 . S
C23 C13 1.386 . S
C23 C16 1.357 . S
C23 H36 0.928 . S
H24 C0 0.931 . S
H25 C2 0.930 . S
H26 C4 0.929 . S
H27 C5 0.931 . S
H28 C7 0.930 . S
H29 C11 0.931 . S
H30 C9 0.931 . S
H31 C13 0.931 . S
H32 C14 0.929 . S
H33 C15 0.930 . S
H34 C18 0.930 . S
H35 C19 0.931 . S
H36 C23 0.928 . S
H37 C22 0.929 . S
H38 C20 0.932 . S
C39 C40 1.386 . S
C39 C41 1.397 . S
C39 H63 0.931 . S
C40 C39 1.386 . S
C40 C44 1.397 . S
C41 C39 1.397 . S
C41 C42 1.384 . S
C41 H64 0.930 . S
C42 C41 1.384 . S
C42 C43 1.377 . S
C42 C45 1.481 . S
C43 C42 1.377 . S
C43 C44 1.389 . S
C43 H65 0.929 . S
C44 C40 1.397 . S
C44 C43 1.389 . S
C44 H66 0.931 . S
C45 C42 1.481 . S
C45 C46 1.387 . S
C45 C50 1.390 . S
C46 C45 1.387 . S
C46 C47 1.401 . S
C46 H67 0.930 . S
C47 C46 1.401 . S
C47 C48 1.376 . S
C47 C56 1.511 . S
C48 C47 1.376 . S
C48 C49 1.392 . S
C48 H69 0.931 . S
C49 C48 1.392 . S
C49 C50 1.361 . S
C49 C51 1.500 . S
C50 C45 1.390 . S
C50 C49 1.361 . S
C50 H68 0.931 . S
C51 C49 1.500 . S
C51 C52 1.371 . S
C51 C53 1.365 . S
C52 C51 1.371 . S
C52 C62 1.386 . S
C52 H70 0.931 . S
C53 C51 1.365 . S
C53 C54 1.409 . S
C53 H71 0.929 . S
C54 C53 1.409 . S
C54 C55 1.380 . S
C54 H72 0.930 . S
C55 C54 1.380 . S
C55 C62 1.357 . S
C56 C47 1.511 . S
C56 C57 1.341 . S
C56 C58 1.371 . S
C57 C56 1.341 . S
C57 C61 1.394 . S
C57 H73 0.930 . S
C58 C56 1.371 . S
C58 C59 1.392 . S
C58 H74 0.931 . S
C59 C58 1.392 . S
C59 C60 1.331 . S
C59 H77 0.932 . S
C60 C59 1.331 . S
C60 C61 1.336 . S
C61 C57 1.394 . S
C61 C60 1.336 . S
C61 H76 0.929 . S
C62 C52 1.386 . S
C62 C55 1.357 . S
C62 H75 0.928 . S
H63 C39 0.931 . S
H64 C41 0.930 . S
H65 C43 0.929 . S
H66 C44 0.931 . S
H67 C46 0.930 . S
H68 C50 0.931 . S
H69 C48 0.931 . S
H70 C52 0.931 . S
H71 C53 0.929 . S
H72 C54 0.930 . S
H73 C57 0.930 . S
H74 C58 0.931 . S
H75 C62 0.928 . S
H76 C61 0.929 . S
H77 C59 0.932 . S
C78 C79 1.386 . S
C78 C80 1.397 . S
C78 H102 0.931 . S
C79 C78 1.386 . S
C79 C83 1.397 . S
C80 C78 1.397 . S
C80 C81 1.384 . S
C80 H103 0.930 . S
C81 C80 1.384 . S
C81 C82 1.377 . S
C81 C84 1.481 . S
C82 C81 1.377 . S
C82 C83 1.389 . S
C82 H104 0.929 . S
C83 C79 1.397 . S
C83 C82 1.389 . S
C83 H105 0.931 . S
C84 C81 1.481 . S
C84 C85 1.387 . S
C84 C89 1.390 . S
C85 C84 1.387 . S
C85 C86 1.401 . S
C85 H106 0.930 . S
C86 C85 1.401 . S
C86 C87 1.376 . S
C86 C95 1.511 . S
C87 C86 1.376 . S
C87 C88 1.392 . S
C87 H108 0.931 . S
C88 C87 1.392 . S
C88 C89 1.361 . S
C88 C90 1.500 . S
C89 C84 1.390 . S
C89 C88 1.361 . S
C89 H107 0.931 . S
C90 C88 1.500 . S
C90 C91 1.371 . S
C90 C92 1.365 . S
C91 C90 1.371 . S
C91 C101 1.386 . S
C91 H109 0.931 . S
C92 C90 1.365 . S
C92 C93 1.409 . S
C92 H110 0.929 . S
C93 C92 1.409 . S
C93 C94 1.380 . S
C93 H111 0.930 . S
C94 C93 1.380 . S
C94 C101 1.357 . S
C95 C86 1.511 . S
C95 C96 1.341 . S
C95 C97 1.371 . S
C96 C95 1.341 . S
C96 C100 1.394 . S
C96 H112 0.930 . S
C97 C95 1.371 . S
C97 C98 1.392 . S
C97 H113 0.931 . S
C98 C97 1.392 . S
C98 C99 1.331 . S
C98 H116 0.932 . S
C99 C98 1.331 . S
C99 C100 1.336 . S
C100 C96 1.394 . S
C100 C99 1.336 . S
C100 H115 0.929 . S
C101 C91 1.386 . S
C101 C94 1.357 . S
C101 H114 0.928 . S
H102 C78 0.931 . S
H103 C80 0.930 . S
H104 C82 0.929 . S
H105 C83 0.931 . S
H106 C85 0.930 . S
H107 C89 0.931 . S
H108 C87 0.931 . S
H109 C91 0.931 . S
H110 C92 0.929 . S
H111 C93 0.930 . S
H112 C96 0.930 . S
H113 C97 0.931 . S
H114 C101 0.928 . S
H115 C100 0.929 . S
H116 C98 0.932 . S
C117 C118 1.386 . S
C117 C119 1.397 . S
C117 H141 0.931 . S
C118 C117 1.386 . S
C118 C122 1.397 . S
C119 C117 1.397 . S
C119 C120 1.384 . S
C119 H142 0.930 . S
C120 C119 1.384 . S
C120 C121 1.377 . S
C120 C123 1.481 . S
C121 C120 1.377 . S
C121 C122 1.389 . S
C121 H143 0.929 . S
C122 C118 1.397 . S
C122 C121 1.389 . S
C122 H144 0.931 . S
C123 C120 1.481 . S
C123 C124 1.387 . S
C123 C128 1.390 . S
C124 C123 1.387 . S
C124 C125 1.401 . S
C124 H145 0.930 . S
C125 C124 1.401 . S
C125 C126 1.376 . S
C125 C134 1.511 . S
C126 C125 1.376 . S
C126 C127 1.392 . S
C126 H147 0.931 . S
C127 C126 1.392 . S
C127 C128 1.361 . S
C127 C129 1.500 . S
C128 C123 1.390 . S
C128 C127 1.361 . S
C128 H146 0.931 . S
C129 C127 1.500 . S
C129 C130 1.371 . S
C129 C131 1.365 . S
C130 C129 1.371 . S
C130 C140 1.386 . S
C130 H148 0.931 . S
C131 C129 1.365 . S
C131 C132 1.409 . S
C131 H149 0.929 . S
C132 C131 1.409 . S
C132 C133 1.380 . S
C132 H150 0.930 . S
C133 C132 1.380 . S
C133 C140 1.357 . S
C134 C125 1.511 . S
C134 C135 1.341 . S
C134 C136 1.371 . S
C135 C134 1.341 . S
C135 C139 1.394 . S
C135 H151 0.930 . S
C136 C134 1.371 . S
C136 C137 1.392 . S
C136 H152 0.931 . S
C137 C136 1.392 . S
C137 C138 1.331 . S
C137 H155 0.932 . S
C138 C137 1.331 . S
C138 C139 1.336 . S
C139 C135 1.394 . S
C139 C138 1.336 . S
C139 H154 0.929 . S
C140 C130 1.386 . S
C140 C133 1.357 . S
C140 H153 0.928 . S
H141 C117 0.931 . S
H142 C119 0.930 . S
H143 C121 0.929 . S
H144 C122 0.931 . S
H145 C124 0.930 . S
H146 C128 0.931 . S
H147 C126 0.931 . S
H148 C130 0.931 . S
H149 C131 0.929 . S
H150 C132 0.930 . S
H151 C135 0.930 . S
H152 C136 0.931 . S
H153 C140 0.928 . S
H154 C139 0.929 . S
H155 C137 0.932 . S
C156 C157 1.386 . S
C156 C158 1.397 . S
C156 H180 0.931 . S
C157 C156 1.386 . S
C157 C161 1.397 . S
C158 C156 1.397 . S
C158 C159 1.384 . S
C158 H181 0.930 . S
C159 C158 1.384 . S
C159 C160 1.377 . S
C159 C162 1.481 . S
C160 C159 1.377 . S
C160 C161 1.389 . S
C160 H182 0.929 . S
C161 C157 1.397 . S
C161 C160 1.389 . S
C161 H183 0.931 . S
C162 C159 1.481 . S
C162 C163 1.387 . S
C162 C167 1.390 . S
C163 C162 1.387 . S
C163 C164 1.401 . S
C163 H184 0.930 . S
C164 C163 1.401 . S
C164 C165 1.376 . S
C164 C173 1.511 . S
C165 C164 1.376 . S
C165 C166 1.392 . S
C165 H186 0.931 . S
C166 C165 1.392 . S
C166 C167 1.361 . S
C166 C168 1.500 . S
C167 C162 1.390 . S
C167 C166 1.361 . S
C167 H185 0.931 . S
C168 C166 1.500 . S
C168 C169 1.371 . S
C168 C170 1.365 . S
C169 C168 1.371 . S
C169 C179 1.386 . S
C169 H187 0.931 . S
C170 C168 1.365 . S
C170 C171 1.409 . S
C170 H188 0.929 . S
C171 C170 1.409 . S
C171 C172 1.380 . S
C171 H189 0.930 . S
C172 C171 1.380 . S
C172 C179 1.357 . S
C173 C164 1.511 . S
C173 C174 1.341 . S
C173 C175 1.371 . S
C174 C173 1.341 . S
C174 C178 1.394 . S
C174 H190 0.930 . S
C175 C173 1.371 . S
C175 C176 1.392 . S
C175 H191 0.931 . S
C176 C175 1.392 . S
C176 C177 1.331 . S
C176 H194 0.932 . S
C177 C176 1.331 . S
C177 C178 1.336 . S
C178 C174 1.394 . S
C178 C177 1.336 . S
C178 H193 0.929 . S
C179 C169 1.386 . S
C179 C172 1.357 . S
C179 H192 0.928 . S
H180 C156 0.931 . S
H181 C158 0.930 . S
H182 C160 0.929 . S
H183 C161 0.931 . S
H184 C163 0.930 . S
H185 C167 0.931 . S
H186 C165 0.931 . S
H187 C169 0.931 . S
H188 C170 0.929 . S
H189 C171 0.930 . S
H190 C174 0.930 . S
H191 C175 0.931 . S
H192 C179 0.928 . S
H193 C178 0.929 . S
H194 C176 0.932 . S
C195 C196 1.386 . S
C195 C197 1.397 . S
C195 H219 0.931 . S
C196 C195 1.386 . S
C196 C200 1.397 . S
C197 C195 1.397 . S
C197 C198 1.384 . S
C197 H220 0.930 . S
C198 C197 1.384 . S
C198 C199 1.377 . S
C198 C201 1.481 . S
C199 C198 1.377 . S
C199 C200 1.389 . S
C199 H221 0.929 . S
C200 C196 1.397 . S
C200 C199 1.389 . S
C200 H222 0.931 . S
C201 C198 1.481 . S
C201 C202 1.387 . S
C201 C206 1.390 . S
C202 C201 1.387 . S
C202 C203 1.401 . S
C202 H223 0.930 . S
C203 C202 1.401 . S
C203 C204 1.376 . S
C203 C212 1.511 . S
C204 C203 1.376 . S
C204 C205 1.392 . S
C204 H225 0.931 . S
C205 C204 1.392 . S
C205 C206 1.361 . S
C205 C207 1.500 . S
C206 C201 1.390 . S
C206 C205 1.361 . S
C206 H224 0.931 . S
C207 C205 1.500 . S
C207 C208 1.371 . S
C207 C209 1.365 . S
C208 C207 1.371 . S
C208 C218 1.386 . S
C208 H226 0.931 . S
C209 C207 1.365 . S
C209 C210 1.409 . S
C209 H227 0.929 . S
C210 C209 1.409 . S
C210 C211 1.380 . S
C210 H228 0.930 . S
C211 C210 1.380 . S
C211 C218 1.357 . S
C212 C203 1.511 . S
C212 C213 1.341 . S
C212 C214 1.371 . S
C213 C212 1.341 . S
C213 C217 1.394 . S
C213 H229 0.930 . S
C214 C212 1.371 . S
C214 C215 1.392 . S
C214 H230 0.931 . S
C215 C214 1.392 . S
C215 C216 1.331 . S
C215 H233 0.932 . S
C216 C215 1.331 . S
C216 C217 1.336 . S
C217 C213 1.394 . S
C217 C216 1.336 . S
C217 H232 0.929 . S
C218 C208 1.386 . S
C218 C211 1.357 . S
C218 H231 0.928 . S
H219 C195 0.931 . S
H220 C197 0.930 . S
H221 C199 0.929 . S
H222 C200 0.931 . S
H223 C202 0.930 . S
H224 C206 0.931 . S
H225 C204 0.931 . S
H226 C208 0.931 . S
H227 C209 0.929 . S
H228 C210 0.930 . S
H229 C213 0.930 . S
H230 C214 0.931 . S
H231 C218 0.928 . S
H232 C217 0.929 . S
H233 C215 0.932 . S
C234 C235 1.386 . S
C234 C236 1.397 . S
C234 H258 0.931 . S
C235 C234 1.386 . S
C235 C239 1.397 . S
C236 C234 1.397 . S
C236 C237 1.384 . S
C236 H259 0.930 . S
C237 C236 1.384 . S
C237 C238 1.377 . S
C237 C240 1.481 . S
C238 C237 1.377 . S
C238 C239 1.389 . S
C238 H260 0.929 . S
C239 C235 1.397 . S
C239 C238 1.389 . S
C239 H261 0.931 . S
C240 C237 1.481 . S
C240 C241 1.387 . S
C240 C245 1.390 . S
C241 C240 1.387 . S
C241 C242 1.401 . S
C241 H262 0.930 . S
C242 C241 1.401 . S
C242 C243 1.376 . S
C242 C251 1.511 . S
C243 C242 1.376 . S
C243 C244 1.392 . S
C243 H264 0.931 . S
C244 C243 1.392 . S
C244 C245 1.361 . S
C244 C246 1.500 . S
C245 C240 1.390 . S
C245 C244 1.361 . S
C245 H263 0.931 . S
C246 C244 1.500 . S
C246 C247 1.371 . S
C246 C248 1.365 . S
C247 C246 1.371 . S
C247 C257 1.386 . S
C247 H265 0.931 . S
C248 C246 1.365 . S
C248 C249 1.409 . S
C248 H266 0.929 . S
C249 C248 1.409 . S
C249 C250 1.380 . S
C249 H267 0.930 . S
C250 C249 1.380 . S
C250 C257 1.357 . S
C251 C242 1.511 . S
C251 C252 1.341 . S
C251 C253 1.371 . S
C252 C251 1.341 . S
C252 C256 1.394 . S
C252 H268 0.930 . S
C253 C251 1.371 . S
C253 C254 1.392 . S
C253 H269 0.931 . S
C254 C253 1.392 . S
C254 C255 1.331 . S
C254 H272 0.932 . S
C255 C254 1.331 . S
C255 C256 1.336 . S
C256 C252 1.394 . S
C256 C255 1.336 . S
C256 H271 0.929 . S
C257 C247 1.386 . S
C257 C250 1.357 . S
C257 H270 0.928 . S
H258 C234 0.931 . S
H259 C236 0.930 . S
H260 C238 0.929 . S
H261 C239 0.931 . S
H262 C241 0.930 . S
H263 C245 0.931 . S
H264 C243 0.931 . S
H265 C247 0.931 . S
H266 C248 0.929 . S
H267 C249 0.930 . S
H268 C252 0.930 . S
H269 C253 0.931 . S
H270 C257 0.928 . S
H271 C256 0.929 . S
H272 C254 0.932 . S
C273 C274 1.386 . S
C273 C275 1.397 . S
C273 H297 0.931 . S
C274 C273 1.386 . S
C274 C278 1.397 . S
C275 C273 1.397 . S
C275 C276 1.384 . S
C275 H298 0.930 . S
C276 C275 1.384 . S
C276 C277 1.377 . S
C276 C279 1.481 . S
C277 C276 1.377 . S
C277 C278 1.389 . S
C277 H299 0.929 . S
C278 C274 1.397 . S
C278 C277 1.389 . S
C278 H300 0.931 . S
C279 C276 1.481 . S
C279 C280 1.387 . S
C279 C284 1.390 . S
C280 C279 1.387 . S
C280 C281 1.401 . S
C280 H301 0.930 . S
C281 C280 1.401 . S
C281 C282 1.376 . S
C281 C290 1.511 . S
C282 C281 1.376 . S
C282 C283 1.392 . S
C282 H303 0.931 . S
C283 C282 1.392 . S
C283 C284 1.361 . S
C283 C285 1.500 . S
C284 C279 1.390 . S
C284 C283 1.361 . S
C284 H302 0.931 . S
C285 C283 1.500 . S
C285 C286 1.371 . S
C285 C287 1.365 . S
C286 C285 1.371 . S
C286 C296 1.386 . S
C286 H304 0.931 . S
C287 C285 1.365 . S
C287 C288 1.409 . S
C287 H305 0.929 . S
C288 C287 1.409 . S
C288 C289 1.380 . S
C288 H306 0.930 . S
C289 C288 1.380 . S
C289 C296 1.357 . S
C290 C281 1.511 . S
C290 C291 1.341 . S
C290 C292 1.371 . S
C291 C290 1.341 . S
C291 C295 1.394 . S
C291 H307 0.930 . S
C292 C290 1.371 . S
C292 C293 1.392 . S
C292 H308 0.931 . S
C293 C292 1.392 . S
C293 C294 1.331 . S
C293 H311 0.932 . S
C294 C293 1.331 . S
C294 C295 1.336 . S
C295 C291 1.394 . S
C295 C294 1.336 . S
C295 H310 0.929 . S
C296 C286 1.386 . S
C296 C289 1.357 . S
C296 H309 0.928 . S
H297 C273 0.931 . S
H298 C275 0.930 . S
H299 C277 0.929 . S
H300 C278 0.931 . S
H301 C280 0.930 . S
H302 C284 0.931 . S
H303 C282 0.931 . S
H304 C286 0.931 . S
H305 C287 0.929 . S
H306 C288 0.930 . S
H307 C291 0.930 . S
H308 C292 0.931 . S
H309 C296 0.928 . S
H310 C295 0.929 . S
H311 C293 0.932 . S
C312 O314 1.247 . S
C312 O316 1.258 . S
C313 O320 1.247 . S
C313 O321 1.258 . S
O314 C312 1.247 . S
O314 Zn315 2.028 1_655 S
Zn315 O314 2.028 1_455 S
Zn315 O319 2.035 . S
Zn315 O321 2.035 . S
Zn315 O322 2.028 1_455 S
O316 C312 1.258 . S
O316 Zn317 2.035 1_655 S
Zn317 O316 2.035 1_455 S
Zn317 O318 2.028 . S
Zn317 O320 2.028 . S
Zn317 O323 2.035 1_455 S
O318 Zn317 2.028 . S
O318 C324 1.247 . S
O319 Zn315 2.035 . S
O319 C324 1.258 . S
O320 C313 1.247 . S
O320 Zn317 2.028 . S
O321 C313 1.258 . S
O321 Zn315 2.035 . S
O322 Zn315 2.028 1_655 S
O322 C325 1.247 . S
O323 Zn317 2.035 1_655 S
O323 C325 1.258 . S
C324 O318 1.247 . S
C324 O319 1.258 . S
C325 O322 1.247 . S
C325 O323 1.258 . S
C326 O328 1.247 . S
C326 O330 1.258 . S
C327 O334 1.247 . S
C327 O335 1.258 . S
O328 C326 1.247 . S
O328 Zn329 2.028 1_655 S
Zn329 O328 2.028 1_455 S
Zn329 O333 2.035 . S
Zn329 O335 2.035 . S
Zn329 O336 2.028 1_455 S
O330 C326 1.258 . S
O330 Zn331 2.035 1_655 S
Zn331 O330 2.035 1_455 S
Zn331 O332 2.028 . S
Zn331 O334 2.028 . S
Zn331 O337 2.035 1_455 S
O332 Zn331 2.028 . S
O332 C338 1.247 . S
O333 Zn329 2.035 . S
O333 C338 1.258 . S
O334 C327 1.247 . S
O334 Zn331 2.028 . S
O335 C327 1.258 . S
O335 Zn329 2.035 . S
O336 Zn329 2.028 1_655 S
O336 C339 1.247 . S
O337 Zn331 2.035 1_655 S
O337 C339 1.258 . S
C338 O332 1.247 . S
C338 O333 1.258 . S
C339 O336 1.247 . S
C339 O337 1.258 . S
C340 O342 1.247 . S
C340 O344 1.258 . S
C341 O348 1.247 . S
C341 O349 1.258 . S
O342 C340 1.247 . S
O342 Zn343 2.028 1_565 S
Zn343 O342 2.028 1_545 S
Zn343 O347 2.035 . S
Zn343 O349 2.035 . S
Zn343 O350 2.028 1_545 S
O344 C340 1.258 . S
O344 Zn345 2.035 1_565 S
Zn345 O344 2.035 1_545 S
Zn345 O346 2.028 . S
Zn345 O348 2.028 . S
Zn345 O351 2.035 1_545 S
O346 Zn345 2.028 . S
O346 C352 1.247 . S
O347 Zn343 2.035 . S
O347 C352 1.258 . S
O348 C341 1.247 . S
O348 Zn345 2.028 . S
O349 C341 1.258 . S
O349 Zn343 2.035 . S
O350 Zn343 2.028 1_565 S
O350 C353 1.247 . S
O351 Zn345 2.035 1_565 S
O351 C353 1.258 . S
C352 O346 1.247 . S
C352 O347 1.258 . S
C353 O350 1.247 . S
C353 O351 1.258 . S
C354 O356 1.247 . S
C354 O358 1.258 . S
C355 O362 1.247 . S
C355 O363 1.258 . S
O356 C354 1.247 . S
O356 Zn357 2.046 . S
Zn357 O356 2.046 . S
Zn357 O361 2.053 . S
Zn357 O363 2.018 1_554 S
Zn357 O364 2.010 1_554 S
O358 C354 1.258 . S
O358 Zn359 2.035 . S
Zn359 O358 2.035 . S
Zn359 O360 2.028 . S
Zn359 O362 2.028 1_554 S
Zn359 O365 2.035 1_554 S
O360 Zn359 2.028 . S
O360 C366 1.247 . S
O361 Zn357 2.053 . S
O361 C366 1.258 . S
O362 C355 1.247 . S
O362 Zn359 2.028 1_556 S
O363 C355 1.258 . S
O363 Zn357 2.018 1_556 S
O364 Zn357 2.010 1_556 S
O364 C367 1.247 . S
O365 Zn359 2.035 1_556 S
O365 C367 1.258 . S
C366 O360 1.247 . S
C366 O361 1.258 . S
C367 O364 1.247 . S
C367 O365 1.258 . S
C368 O370 1.247 . S
C368 O372 1.258 . S
C369 O376 1.247 . S
C369 O377 1.258 . S
O370 C368 1.247 . S
O370 Zn371 2.005 1_565 S
Zn371 O370 2.005 1_545 S
Zn371 O375 2.058 . S
Zn371 O377 2.058 . S
Zn371 O378 2.005 1_545 S
O372 C368 1.258 . S
O372 Zn373 2.035 1_565 S
Zn373 O372 2.035 1_545 S
Zn373 O374 2.028 . S
Zn373 O376 2.028 . S
Zn373 O379 2.035 1_545 S
O374 Zn373 2.028 . S
O374 C380 1.247 . S
O375 Zn371 2.058 . S
O375 C380 1.258 . S
O376 C369 1.247 . S
O376 Zn373 2.028 . S
O377 C369 1.258 . S
O377 Zn371 2.058 . S
O378 Zn371 2.005 1_565 S
O378 C381 1.247 . S
O379 Zn373 2.035 1_565 S
O379 C381 1.258 . S
C380 O374 1.247 . S
C380 O375 1.258 . S
C381 O378 1.247 . S
C381 O379 1.258 . S
C382 O384 1.247 . S
C382 O386 1.258 . S
C383 O390 1.247 . S
C383 O391 1.258 . S
O384 C382 1.247 . S
O384 Zn385 2.028 . S
Zn385 O384 2.028 . S
Zn385 O389 2.035 . S
Zn385 O391 2.035 1_554 S
Zn385 O392 2.028 1_554 S
O386 C382 1.258 . S
O386 Zn387 2.035 . S
Zn387 O386 2.035 . S
Zn387 O388 2.028 . S
Zn387 O390 2.028 1_554 S
Zn387 O393 2.035 1_554 S
O388 Zn387 2.028 . S
O388 C394 1.247 . S
O389 Zn385 2.035 . S
O389 C394 1.258 . S
O390 C383 1.247 . S
O390 Zn387 2.028 1_556 S
O391 C383 1.258 . S
O391 Zn385 2.035 1_556 S
O392 Zn385 2.028 1_556 S
O392 C395 1.247 . S
O393 Zn387 2.035 1_556 S
O393 C395 1.258 . S
C394 O388 1.247 . S
C394 O389 1.258 . S
C395 O392 1.247 . S
C395 O393 1.258 . S
C396 C397 1.391 . S
C396 C398 1.394 . S
C396 H412 0.931 . S
C397 C396 1.391 . S
C397 C401 1.376 . S
C398 C396 1.394 . S
C398 C399 1.369 . S
C398 C402 1.531 . S
C399 C398 1.369 . S
C399 C400 1.410 . S
C399 C407 1.503 . S
C400 C399 1.410 . S
C400 C401 1.392 . S
C400 C403 1.511 . S
C401 C397 1.376 . S
C401 C400 1.392 . S
C401 H413 0.929 . S
C402 C398 1.531 . S
C402 H414 0.960 . S
C402 H415 0.962 . S
C402 H416 0.960 . S
C403 C400 1.511 . S
C403 H417 0.961 . S
C403 H418 0.961 . S
C403 H419 0.961 . S
C404 C405 1.370 . S
C404 C406 1.363 . S
C404 H420 0.931 . S
C405 C404 1.370 . S
C405 C409 1.408 . S
C406 C404 1.363 . S
C406 C407 1.370 . S
C406 C410 1.524 . S
C407 C399 1.503 . S
C407 C406 1.370 . S
C407 C408 1.403 . S
C408 C407 1.403 . S
C408 C409 1.404 . S
C408 C411 1.539 . S
C409 C405 1.408 . S
C409 C408 1.404 . S
C409 H421 0.930 . S
C410 C406 1.524 . S
C410 H422 0.956 . S
C410 H423 0.961 . S
C410 H424 0.961 . S
C411 C408 1.539 . S
C411 H425 0.958 . S
C411 H426 0.961 . S
C411 H427 0.960 . S
H412 C396 0.931 . S
H413 C401 0.929 . S
H414 C402 0.960 . S
H415 C402 0.962 . S
H416 C402 0.960 . S
H417 C403 0.961 . S
H418 C403 0.961 . S
H419 C403 0.961 . S
H420 C404 0.931 . S
H421 C409 0.930 . S
H422 C410 0.956 . S
H423 C410 0.961 . S
H424 C410 0.961 . S
H425 C411 0.958 . S
H426 C411 0.961 . S
H427 C411 0.960 . S
C428 C429 1.391 . S
C428 C430 1.394 . S
C428 H444 0.931 . S
C429 C428 1.391 . S
C429 C433 1.376 . S
C430 C428 1.394 . S
C430 C431 1.369 . S
C430 C434 1.531 . S
C431 C430 1.369 . S
C431 C432 1.410 . S
C431 C439 1.503 . S
C432 C431 1.410 . S
C432 C433 1.392 . S
C432 C435 1.511 . S
C433 C429 1.376 . S
C433 C432 1.392 . S
C433 H445 0.929 . S
C434 C430 1.531 . S
C434 H446 0.960 . S
C434 H447 0.962 . S
C434 H448 0.960 . S
C435 C432 1.511 . S
C435 H449 0.961 . S
C435 H450 0.961 . S
C435 H451 0.961 . S
C436 C437 1.370 . S
C436 C438 1.363 . S
C436 H452 0.931 . S
C437 C436 1.370 . S
C437 C441 1.408 . S
C438 C436 1.363 . S
C438 C439 1.370 . S
C438 C442 1.524 . S
C439 C431 1.503 . S
C439 C438 1.370 . S
C439 C440 1.403 . S
C440 C439 1.403 . S
C440 C441 1.404 . S
C440 C443 1.539 . S
C441 C437 1.408 . S
C441 C440 1.404 . S
C441 H453 0.930 . S
C442 C438 1.524 . S
C442 H454 0.956 . S
C442 H455 0.961 . S
C442 H456 0.961 . S
C443 C440 1.539 . S
C443 H457 0.958 . S
C443 H458 0.961 . S
C443 H459 0.960 . S
H444 C428 0.931 . S
H445 C433 0.929 . S
H446 C434 0.960 . S
H447 C434 0.962 . S
H448 C434 0.960 . S
H449 C435 0.961 . S
H450 C435 0.961 . S
H451 C435 0.961 . S
H452 C436 0.931 . S
H453 C441 0.930 . S
H454 C442 0.956 . S
H455 C442 0.961 . S
H456 C442 0.961 . S
H457 C443 0.958 . S
H458 C443 0.961 . S
H459 C443 0.960 . S
C460 C461 1.391 . S
C460 C462 1.394 . S
C460 H476 0.931 . S
C461 C460 1.391 . S
C461 C465 1.376 . S
C462 C460 1.394 . S
C462 C463 1.369 . S
C462 C466 1.531 . S
C463 C462 1.369 . S
C463 C464 1.410 . S
C463 C471 1.503 . S
C464 C463 1.410 . S
C464 C465 1.392 . S
C464 C467 1.511 . S
C465 C461 1.376 . S
C465 C464 1.392 . S
C465 H477 0.929 . S
C466 C462 1.531 . S
C466 H478 0.960 . S
C466 H479 0.962 . S
C466 H480 0.960 . S
C467 C464 1.511 . S
C467 H481 0.961 . S
C467 H482 0.961 . S
C467 H483 0.961 . S
C468 C469 1.370 . S
C468 C470 1.363 . S
C468 H484 0.931 . S
C469 C468 1.370 . S
C469 C473 1.408 . S
C470 C468 1.363 . S
C470 C471 1.370 . S
C470 C474 1.524 . S
C471 C463 1.503 . S
C471 C470 1.370 . S
C471 C472 1.403 . S
C472 C471 1.403 . S
C472 C473 1.404 . S
C472 C475 1.539 . S
C473 C469 1.408 . S
C473 C472 1.404 . S
C473 H485 0.930 . S
C474 C470 1.524 . S
C474 H486 0.956 . S
C474 H487 0.961 . S
C474 H488 0.961 . S
C475 C472 1.539 . S
C475 H489 0.958 . S
C475 H490 0.961 . S
C475 H491 0.960 . S
H476 C460 0.931 . S
H477 C465 0.929 . S
H478 C466 0.960 . S
H479 C466 0.962 . S
H480 C466 0.960 . S
H481 C467 0.961 . S
H482 C467 0.961 . S
H483 C467 0.961 . S
H484 C468 0.931 . S
H485 C473 0.930 . S
H486 C474 0.956 . S
H487 C474 0.961 . S
H488 C474 0.961 . S
H489 C475 0.958 . S
H490 C475 0.961 . S
H491 C475 0.960 . S
C492 C493 1.391 . S
C492 C494 1.394 . S
C492 H508 0.931 . S
C493 C492 1.391 . S
C493 C497 1.376 . S
C494 C492 1.394 . S
C494 C495 1.369 . S
C494 C498 1.531 . S
C495 C494 1.369 . S
C495 C496 1.410 . S
C495 C503 1.503 . S
C496 C495 1.410 . S
C496 C497 1.392 . S
C496 C499 1.511 . S
C497 C493 1.376 . S
C497 C496 1.392 . S
C497 H509 0.929 . S
C498 C494 1.531 . S
C498 H510 0.960 . S
C498 H511 0.962 . S
C498 H512 0.960 . S
C499 C496 1.511 . S
C499 H513 0.961 . S
C499 H514 0.961 . S
C499 H515 0.961 . S
C500 C501 1.370 . S
C500 C502 1.363 . S
C500 H516 0.931 . S
C501 C500 1.370 . S
C501 C505 1.408 . S
C502 C500 1.363 . S
C502 C503 1.370 . S
C502 C506 1.524 . S
C503 C495 1.503 . S
C503 C502 1.370 . S
C503 C504 1.403 . S
C504 C503 1.403 . S
C504 C505 1.404 . S
C504 C507 1.539 . S
C505 C501 1.408 . S
C505 C504 1.404 . S
C505 H517 0.930 . S
C506 C502 1.524 . S
C506 H518 0.956 . S
C506 H519 0.961 . S
C506 H520 0.961 . S
C507 C504 1.539 . S
C507 H521 0.958 . S
C507 H522 0.961 . S
C507 H523 0.960 . S
H508 C492 0.931 . S
H509 C497 0.929 . S
H510 C498 0.960 . S
H511 C498 0.962 . S
H512 C498 0.960 . S
H513 C499 0.961 . S
H514 C499 0.961 . S
H515 C499 0.961 . S
H516 C500 0.931 . S
H517 C505 0.930 . S
H518 C506 0.956 . S
H519 C506 0.961 . S
H520 C506 0.961 . S
H521 C507 0.958 . S
H522 C507 0.961 . S
H523 C507 0.960 . S
C524 C525 1.391 . S
C524 C526 1.394 . S
C524 H540 0.931 . S
C525 C524 1.391 . S
C525 C529 1.376 . S
C526 C524 1.394 . S
C526 C527 1.369 . S
C526 C530 1.531 . S
C527 C526 1.369 . S
C527 C528 1.410 . S
C527 C535 1.503 . S
C528 C527 1.410 . S
C528 C529 1.392 . S
C528 C531 1.511 . S
C529 C525 1.376 . S
C529 C528 1.392 . S
C529 H541 0.929 . S
C530 C526 1.531 . S
C530 H542 0.960 . S
C530 H543 0.962 . S
C530 H544 0.960 . S
C531 C528 1.511 . S
C531 H545 0.961 . S
C531 H546 0.961 . S
C531 H547 0.961 . S
C532 C533 1.370 . S
C532 C534 1.363 . S
C532 H548 0.931 . S
C533 C532 1.370 . S
C533 C537 1.408 . S
C534 C532 1.363 . S
C534 C535 1.370 . S
C534 C538 1.524 . S
C535 C527 1.503 . S
C535 C534 1.370 . S
C535 C536 1.403 . S
C536 C535 1.403 . S
C536 C537 1.404 . S
C536 C539 1.539 . S
C537 C533 1.408 . S
C537 C536 1.404 . S
C537 H549 0.930 . S
C538 C534 1.524 . S
C538 H550 0.956 . S
C538 H551 0.961 . S
C538 H552 0.961 . S
C539 C536 1.539 . S
C539 H553 0.958 . S
C539 H554 0.961 . S
C539 H555 0.960 . S
H540 C524 0.931 . S
H541 C529 0.929 . S
H542 C530 0.960 . S
H543 C530 0.962 . S
H544 C530 0.960 . S
H545 C531 0.961 . S
H546 C531 0.961 . S
H547 C531 0.961 . S
H548 C532 0.931 . S
H549 C537 0.930 . S
H550 C538 0.956 . S
H551 C538 0.961 . S
H552 C538 0.961 . S
H553 C539 0.958 . S
H554 C539 0.961 . S
H555 C539 0.960 . S
C556 C557 1.391 . S
C556 C558 1.394 . S
C556 H572 0.931 . S
C557 C556 1.391 . S
C557 C561 1.376 . S
C558 C556 1.394 . S
C558 C559 1.369 . S
C558 C562 1.531 . S
C559 C558 1.369 . S
C559 C560 1.410 . S
C559 C567 1.503 . S
C560 C559 1.410 . S
C560 C561 1.392 . S
C560 C563 1.511 . S
C561 C557 1.376 . S
C561 C560 1.392 . S
C561 H573 0.929 . S
C562 C558 1.531 . S
C562 H574 0.960 . S
C562 H575 0.962 . S
C562 H576 0.960 . S
C563 C560 1.511 . S
C563 H577 0.961 . S
C563 H578 0.961 . S
C563 H579 0.961 . S
C564 C565 1.370 . S
C564 C566 1.363 . S
C564 H580 0.931 . S
C565 C564 1.370 . S
C565 C569 1.408 . S
C566 C564 1.363 . S
C566 C567 1.370 . S
C566 C570 1.524 . S
C567 C559 1.503 . S
C567 C566 1.370 . S
C567 C568 1.403 . S
C568 C567 1.403 . S
C568 C569 1.404 . S
C568 C571 1.539 . S
C569 C565 1.408 . S
C569 C568 1.404 . S
C569 H581 0.930 . S
C570 C566 1.524 . S
C570 H582 0.956 . S
C570 H583 0.961 . S
C570 H584 0.961 . S
C571 C568 1.539 . S
C571 H585 0.958 . S
C571 H586 0.961 . S
C571 H587 0.960 . S
H572 C556 0.931 . S
H573 C561 0.929 . S
H574 C562 0.960 . S
H575 C562 0.962 . S
H576 C562 0.960 . S
H577 C563 0.961 . S
H578 C563 0.961 . S
H579 C563 0.961 . S
H580 C564 0.931 . S
H581 C569 0.930 . S
H582 C570 0.956 . S
H583 C570 0.961 . S
H584 C570 0.961 . S
H585 C571 0.958 . S
H586 C571 0.961 . S
H587 C571 0.960 . S
C588 C589 1.391 . S
C588 C590 1.394 . S
C588 H604 0.931 . S
C589 C588 1.391 . S
C589 C593 1.376 . S
C590 C588 1.394 . S
C590 C591 1.369 . S
C590 C594 1.531 . S
C591 C590 1.369 . S
C591 C592 1.410 . S
C591 C599 1.503 . S
C592 C591 1.410 . S
C592 C593 1.392 . S
C592 C595 1.511 . S
C593 C589 1.376 . S
C593 C592 1.392 . S
C593 H605 0.929 . S
C594 C590 1.531 . S
C594 H606 0.960 . S
C594 H607 0.962 . S
C594 H608 0.960 . S
C595 C592 1.511 . S
C595 H609 0.961 . S
C595 H610 0.961 . S
C595 H611 0.961 . S
C596 C597 1.370 . S
C596 C598 1.363 . S
C596 H612 0.931 . S
C597 C596 1.370 . S
C597 C601 1.408 . S
C598 C596 1.363 . S
C598 C599 1.370 . S
C598 C602 1.524 . S
C599 C591 1.503 . S
C599 C598 1.370 . S
C599 C600 1.403 . S
C600 C599 1.403 . S
C600 C601 1.404 . S
C600 C603 1.539 . S
C601 C597 1.408 . S
C601 C600 1.404 . S
C601 H613 0.930 . S
C602 C598 1.524 . S
C602 H614 0.956 . S
C602 H615 0.961 . S
C602 H616 0.961 . S
C603 C600 1.539 . S
C603 H617 0.958 . S
C603 H618 0.961 . S
C603 H619 0.960 . S
H604 C588 0.931 . S
H605 C593 0.929 . S
H606 C594 0.960 . S
H607 C594 0.962 . S
H608 C594 0.960 . S
H609 C595 0.961 . S
H610 C595 0.961 . S
H611 C595 0.961 . S
H612 C596 0.931 . S
H613 C601 0.930 . S
H614 C602 0.956 . S
H615 C602 0.961 . S
H616 C602 0.961 . S
H617 C603 0.958 . S
H618 C603 0.961 . S
H619 C603 0.960 . S
C620 C621 1.391 . S
C620 C622 1.394 . S
C620 H636 0.931 . S
C621 C620 1.391 . S
C621 C625 1.376 . S
C622 C620 1.394 . S
C622 C623 1.369 . S
C622 C626 1.531 . S
C623 C622 1.369 . S
C623 C624 1.410 . S
C623 C631 1.503 . S
C624 C623 1.410 . S
C624 C625 1.392 . S
C624 C627 1.511 . S
C625 C621 1.376 . S
C625 C624 1.392 . S
C625 H637 0.929 . S
C626 C622 1.531 . S
C626 H638 0.960 . S
C626 H639 0.962 . S
C626 H640 0.960 . S
C627 C624 1.511 . S
C627 H641 0.961 . S
C627 H642 0.961 . S
C627 H643 0.961 . S
C628 C629 1.370 . S
C628 C630 1.363 . S
C628 H644 0.931 . S
C629 C628 1.370 . S
C629 C633 1.408 . S
C630 C628 1.363 . S
C630 C631 1.370 . S
C630 C634 1.524 . S
C631 C623 1.503 . S
C631 C630 1.370 . S
C631 C632 1.403 . S
C632 C631 1.403 . S
C632 C633 1.404 . S
C632 C635 1.539 . S
C633 C629 1.408 . S
C633 C632 1.404 . S
C633 H645 0.930 . S
C634 C630 1.524 . S
C634 H646 0.956 . S
C634 H647 0.961 . S
C634 H648 0.961 . S
C635 C632 1.539 . S
C635 H649 0.958 . S
C635 H650 0.961 . S
C635 H651 0.960 . S
H636 C620 0.931 . S
H637 C625 0.929 . S
H638 C626 0.960 . S
H639 C626 0.962 . S
H640 C626 0.960 . S
H641 C627 0.961 . S
H642 C627 0.961 . S
H643 C627 0.961 . S
H644 C628 0.931 . S
H645 C633 0.930 . S
H646 C634 0.956 . S
H647 C634 0.961 . S
H648 C634 0.961 . S
H649 C635 0.958 . S
H650 C635 0.961 . S
H651 C635 0.960 . S
C652 C653 1.391 . S
C652 C654 1.394 . S
C652 H668 0.931 . S
C653 C652 1.391 . S
C653 C657 1.376 . S
C654 C652 1.394 . S
C654 C655 1.369 . S
C654 C658 1.531 . S
C655 C654 1.369 . S
C655 C656 1.410 . S
C655 C663 1.503 . S
C656 C655 1.410 . S
C656 C657 1.392 . S
C656 C659 1.511 . S
C657 C653 1.376 . S
C657 C656 1.392 . S
C657 H669 0.929 . S
C658 C654 1.531 . S
C658 H670 0.960 . S
C658 H671 0.962 . S
C658 H672 0.960 . S
C659 C656 1.511 . S
C659 H673 0.961 . S
C659 H674 0.961 . S
C659 H675 0.961 . S
C660 C661 1.370 . S
C660 C662 1.363 . S
C660 H676 0.931 . S
C661 C660 1.370 . S
C661 C665 1.408 . S
C662 C660 1.363 . S
C662 C663 1.370 . S
C662 C666 1.524 . S
C663 C655 1.503 . S
C663 C662 1.370 . S
C663 C664 1.403 . S
C664 C663 1.403 . S
C664 C665 1.404 . S
C664 C667 1.539 . S
C665 C661 1.408 . S
C665 C664 1.404 . S
C665 H677 0.930 . S
C666 C662 1.524 . S
C666 H678 0.956 . S
C666 H679 0.961 . S
C666 H680 0.961 . S
C667 C664 1.539 . S
C667 H681 0.958 . S
C667 H682 0.961 . S
C667 H683 0.960 . S
H668 C652 0.931 . S
H669 C657 0.929 . S
H670 C658 0.960 . S
H671 C658 0.962 . S
H672 C658 0.960 . S
H673 C659 0.961 . S
H674 C659 0.961 . S
H675 C659 0.961 . S
H676 C660 0.931 . S
H677 C665 0.930 . S
H678 C666 0.956 . S
H679 C666 0.961 . S
H680 C666 0.961 . S
H681 C667 0.958 . S
H682 C667 0.961 . S
H683 C667 0.960 . S
C684 C685 1.391 . S
C684 C686 1.394 . S
C684 H700 0.931 . S
C685 C684 1.391 . S
C685 C689 1.376 . S
C686 C684 1.394 . S
C686 C687 1.369 . S
C686 C690 1.531 . S
C687 C686 1.369 . S
C687 C688 1.410 . S
C687 C695 1.503 . S
C688 C687 1.410 . S
C688 C689 1.392 . S
C688 C691 1.511 . S
C689 C685 1.376 . S
C689 C688 1.392 . S
C689 H701 0.929 . S
C690 C686 1.531 . S
C690 H702 0.960 . S
C690 H703 0.962 . S
C690 H704 0.960 . S
C691 C688 1.511 . S
C691 H705 0.961 . S
C691 H706 0.961 . S
C691 H707 0.961 . S
C692 C693 1.370 . S
C692 C694 1.363 . S
C692 H708 0.931 . S
C693 C692 1.370 . S
C693 C697 1.408 . S
C694 C692 1.363 . S
C694 C695 1.370 . S
C694 C698 1.524 . S
C695 C687 1.503 . S
C695 C694 1.370 . S
C695 C696 1.403 . S
C696 C695 1.403 . S
C696 C697 1.404 . S
C696 C699 1.539 . S
C697 C693 1.408 . S
C697 C696 1.404 . S
C697 H709 0.930 . S
C698 C694 1.524 . S
C698 H710 0.956 . S
C698 H711 0.961 . S
C698 H712 0.961 . S
C699 C696 1.539 . S
C699 H713 0.958 . S
C699 H714 0.961 . S
C699 H715 0.960 . S
H700 C684 0.931 . S
H701 C689 0.929 . S
H702 C690 0.960 . S
H703 C690 0.962 . S
H704 C690 0.960 . S
H705 C691 0.961 . S
H706 C691 0.961 . S
H707 C691 0.961 . S
H708 C692 0.931 . S
H709 C697 0.930 . S
H710 C698 0.956 . S
H711 C698 0.961 . S
H712 C698 0.961 . S
H713 C699 0.958 . S
H714 C699 0.961 . S
H715 C699 0.960 . S
C716 C717 1.391 . S
C716 C718 1.394 . S
C716 H732 0.931 . S
C717 C716 1.391 . S
C717 C721 1.376 . S
C718 C716 1.394 . S
C718 C719 1.369 . S
C718 C722 1.531 . S
C719 C718 1.369 . S
C719 C720 1.410 . S
C719 C727 1.503 . S
C720 C719 1.410 . S
C720 C721 1.392 . S
C720 C723 1.511 . S
C721 C717 1.376 . S
C721 C720 1.392 . S
C721 H733 0.929 . S
C722 C718 1.531 . S
C722 H734 0.960 . S
C722 H735 0.962 . S
C722 H736 0.960 . S
C723 C720 1.511 . S
C723 H737 0.961 . S
C723 H738 0.961 . S
C723 H739 0.961 . S
C724 C725 1.370 . S
C724 C726 1.363 . S
C724 H740 0.931 . S
C725 C724 1.370 . S
C725 C729 1.408 . S
C726 C724 1.363 . S
C726 C727 1.370 . S
C726 C730 1.524 . S
C727 C719 1.503 . S
C727 C726 1.370 . S
C727 C728 1.403 . S
C728 C727 1.403 . S
C728 C729 1.404 . S
C728 C731 1.539 . S
C729 C725 1.408 . S
C729 C728 1.404 . S
C729 H741 0.930 . S
C730 C726 1.524 . S
C730 H742 0.956 . S
C730 H743 0.961 . S
C730 H744 0.961 . S
C731 C728 1.539 . S
C731 H745 0.958 . S
C731 H746 0.961 . S
C731 H747 0.960 . S
H732 C716 0.931 . S
H733 C721 0.929 . S
H734 C722 0.960 . S
H735 C722 0.962 . S
H736 C722 0.960 . S
H737 C723 0.961 . S
H738 C723 0.961 . S
H739 C723 0.961 . S
H740 C724 0.931 . S
H741 C729 0.930 . S
H742 C730 0.956 . S
H743 C730 0.961 . S
H744 C730 0.961 . S
H745 C731 0.958 . S
H746 C731 0.961 . S
H747 C731 0.960 . S
C748 C749 1.391 . S
C748 C750 1.394 . S
C748 H764 0.931 . S
C749 C748 1.391 . S
C749 C753 1.376 . S
C750 C748 1.394 . S
C750 C751 1.369 . S
C750 C754 1.531 . S
C751 C750 1.369 . S
C751 C752 1.410 . S
C751 C759 1.503 . S
C752 C751 1.410 . S
C752 C753 1.392 . S
C752 C755 1.511 . S
C753 C749 1.376 . S
C753 C752 1.392 . S
C753 H765 0.929 . S
C754 C750 1.531 . S
C754 H766 0.960 . S
C754 H767 0.962 . S
C754 H768 0.960 . S
C755 C752 1.511 . S
C755 H769 0.961 . S
C755 H770 0.961 . S
C755 H771 0.961 . S
C756 C757 1.370 . S
C756 C758 1.363 . S
C756 H772 0.931 . S
C757 C756 1.370 . S
C757 C761 1.408 . S
C758 C756 1.363 . S
C758 C759 1.370 . S
C758 C762 1.524 . S
C759 C751 1.503 . S
C759 C758 1.370 . S
C759 C760 1.403 . S
C760 C759 1.403 . S
C760 C761 1.404 . S
C760 C763 1.539 . S
C761 C757 1.408 . S
C761 C760 1.404 . S
C761 H773 0.930 . S
C762 C758 1.524 . S
C762 H774 0.956 . S
C762 H775 0.961 . S
C762 H776 0.961 . S
C763 C760 1.539 . S
C763 H777 0.958 . S
C763 H778 0.961 . S
C763 H779 0.960 . S
H764 C748 0.931 . S
H765 C753 0.929 . S
H766 C754 0.960 . S
H767 C754 0.962 . S
H768 C754 0.960 . S
H769 C755 0.961 . S
H770 C755 0.961 . S
H771 C755 0.961 . S
H772 C756 0.931 . S
H773 C761 0.930 . S
H774 C762 0.956 . S
H775 C762 0.961 . S
H776 C762 0.961 . S
H777 C763 0.958 . S
H778 C763 0.961 . S
H779 C763 0.960 . S
C780 C781 1.391 . S
C780 C782 1.394 . S
C780 H796 0.931 . S
C781 C780 1.391 . S
C781 C785 1.376 . S
C782 C780 1.394 . S
C782 C783 1.369 . S
C782 C786 1.531 . S
C783 C782 1.369 . S
C783 C784 1.410 . S
C783 C791 1.503 . S
C784 C783 1.410 . S
C784 C785 1.392 . S
C784 C787 1.511 . S
C785 C781 1.376 . S
C785 C784 1.392 . S
C785 H797 0.929 . S
C786 C782 1.531 . S
C786 H798 0.960 . S
C786 H799 0.962 . S
C786 H800 0.960 . S
C787 C784 1.511 . S
C787 H801 0.961 . S
C787 H802 0.961 . S
C787 H803 0.961 . S
C788 C789 1.370 . S
C788 C790 1.363 . S
C788 H804 0.931 . S
C789 C788 1.370 . S
C789 C793 1.408 . S
C790 C788 1.363 . S
C790 C791 1.370 . S
C790 C794 1.524 . S
C791 C783 1.503 . S
C791 C790 1.370 . S
C791 C792 1.403 . S
C792 C791 1.403 . S
C792 C793 1.404 . S
C792 C795 1.539 . S
C793 C789 1.408 . S
C793 C792 1.404 . S
C793 H805 0.930 . S
C794 C790 1.524 . S
C794 H806 0.956 . S
C794 H807 0.961 . S
C794 H808 0.961 . S
C795 C792 1.539 . S
C795 H809 0.958 . S
C795 H810 0.961 . S
C795 H811 0.960 . S
H796 C780 0.931 . S
H797 C785 0.929 . S
H798 C786 0.960 . S
H799 C786 0.962 . S
H800 C786 0.960 . S
H801 C787 0.961 . S
H802 C787 0.961 . S
H803 C787 0.961 . S
H804 C788 0.931 . S
H805 C793 0.930 . S
H806 C794 0.956 . S
H807 C794 0.961 . S
H808 C794 0.961 . S
H809 C795 0.958 . S
H810 C795 0.961 . S
H811 C795 0.960 . S
C812 C813 1.391 . S
C812 C814 1.394 . S
C812 H828 0.931 . S
C813 C812 1.391 . S
C813 C817 1.376 . S
C814 C812 1.394 . S
C814 C815 1.369 . S
C814 C818 1.531 . S
C815 C814 1.369 . S
C815 C816 1.410 . S
C815 C823 1.503 . S
C816 C815 1.410 . S
C816 C817 1.392 . S
C816 C819 1.511 . S
C817 C813 1.376 . S
C817 C816 1.392 . S
C817 H829 0.929 . S
C818 C814 1.531 . S
C818 H830 0.960 . S
C818 H831 0.962 . S
C818 H832 0.960 . S
C819 C816 1.511 . S
C819 H833 0.961 . S
C819 H834 0.961 . S
C819 H835 0.961 . S
C820 C821 1.370 . S
C820 C822 1.363 . S
C820 H836 0.931 . S
C821 C820 1.370 . S
C821 C825 1.408 . S
C822 C820 1.363 . S
C822 C823 1.370 . S
C822 C826 1.524 . S
C823 C815 1.503 . S
C823 C822 1.370 . S
C823 C824 1.403 . S
C824 C823 1.403 . S
C824 C825 1.404 . S
C824 C827 1.539 . S
C825 C821 1.408 . S
C825 C824 1.404 . S
C825 H837 0.930 . S
C826 C822 1.524 . S
C826 H838 0.956 . S
C826 H839 0.961 . S
C826 H840 0.961 . S
C827 C824 1.539 . S
C827 H841 0.958 . S
C827 H842 0.961 . S
C827 H843 0.960 . S
H828 C812 0.931 . S
H829 C817 0.929 . S
H830 C818 0.960 . S
H831 C818 0.962 . S
H832 C818 0.960 . S
H833 C819 0.961 . S
H834 C819 0.961 . S
H835 C819 0.961 . S
H836 C820 0.931 . S
H837 C825 0.930 . S
H838 C826 0.956 . S
H839 C826 0.961 . S
H840 C826 0.961 . S
H841 C827 0.958 . S
H842 C827 0.961 . S
H843 C827 0.960 . S
C844 C845 1.391 . S
C844 C846 1.394 . S
C844 H860 0.931 . S
C845 C844 1.391 . S
C845 C849 1.376 . S
C846 C844 1.394 . S
C846 C847 1.369 . S
C846 C850 1.531 . S
C847 C846 1.369 . S
C847 C848 1.410 . S
C847 C855 1.503 . S
C848 C847 1.410 . S
C848 C849 1.392 . S
C848 C851 1.511 . S
C849 C845 1.376 . S
C849 C848 1.392 . S
C849 H861 0.929 . S
C850 C846 1.531 . S
C850 H862 0.960 . S
C850 H863 0.962 . S
C850 H864 0.960 . S
C851 C848 1.511 . S
C851 H865 0.961 . S
C851 H866 0.961 . S
C851 H867 0.961 . S
C852 C853 1.370 . S
C852 C854 1.363 . S
C852 H868 0.931 . S
C853 C852 1.370 . S
C853 C857 1.408 . S
C854 C852 1.363 . S
C854 C855 1.370 . S
C854 C858 1.524 . S
C855 C847 1.503 . S
C855 C854 1.370 . S
C855 C856 1.403 . S
C856 C855 1.403 . S
C856 C857 1.404 . S
C856 C859 1.539 . S
C857 C853 1.408 . S
C857 C856 1.404 . S
C857 H869 0.930 . S
C858 C854 1.524 . S
C858 H870 0.956 . S
C858 H871 0.961 . S
C858 H872 0.961 . S
C859 C856 1.539 . S
C859 H873 0.958 . S
C859 H874 0.961 . S
C859 H875 0.960 . S
H860 C844 0.931 . S
H861 C849 0.929 . S
H862 C850 0.960 . S
H863 C850 0.962 . S
H864 C850 0.960 . S
H865 C851 0.961 . S
H866 C851 0.961 . S
H867 C851 0.961 . S
H868 C852 0.931 . S
H869 C857 0.930 . S
H870 C858 0.956 . S
H871 C858 0.961 . S
H872 C858 0.961 . S
H873 C859 0.958 . S
H874 C859 0.961 . S
H875 C859 0.960 . S
C876 C877 1.391 . S
C876 C878 1.394 . S
C876 H892 0.931 . S
C877 C876 1.391 . S
C877 C881 1.376 . S
C878 C876 1.394 . S
C878 C879 1.369 . S
C878 C882 1.531 . S
C879 C878 1.369 . S
C879 C880 1.410 . S
C879 C887 1.503 . S
C880 C879 1.410 . S
C880 C881 1.392 . S
C880 C883 1.511 . S
C881 C877 1.376 . S
C881 C880 1.392 . S
C881 H893 0.929 . S
C882 C878 1.531 . S
C882 H894 0.960 . S
C882 H895 0.962 . S
C882 H896 0.960 . S
C883 C880 1.511 . S
C883 H897 0.961 . S
C883 H898 0.961 . S
C883 H899 0.961 . S
C884 C885 1.370 . S
C884 C886 1.363 . S
C884 H900 0.931 . S
C885 C884 1.370 . S
C885 C889 1.408 . S
C886 C884 1.363 . S
C886 C887 1.370 . S
C886 C890 1.524 . S
C887 C879 1.503 . S
C887 C886 1.370 . S
C887 C888 1.403 . S
C888 C887 1.403 . S
C888 C889 1.404 . S
C888 C891 1.539 . S
C889 C885 1.408 . S
C889 C888 1.404 . S
C889 H901 0.930 . S
C890 C886 1.524 . S
C890 H902 0.956 . S
C890 H903 0.961 . S
C890 H904 0.961 . S
C891 C888 1.539 . S
C891 H905 0.958 . S
C891 H906 0.961 . S
C891 H907 0.960 . S
H892 C876 0.931 . S
H893 C881 0.929 . S
H894 C882 0.960 . S
H895 C882 0.962 . S
H896 C882 0.960 . S
H897 C883 0.961 . S
H898 C883 0.961 . S
H899 C883 0.961 . S
H900 C884 0.931 . S
H901 C889 0.930 . S
H902 C890 0.956 . S
H903 C890 0.961 . S
H904 C890 0.961 . S
H905 C891 0.958 . S
H906 C891 0.961 . S
H907 C891 0.960 . S
C908 C909 1.391 . S
C908 C910 1.394 . S
C908 H924 0.931 . S
C909 C908 1.391 . S
C909 C913 1.376 . S
C910 C908 1.394 . S
C910 C911 1.369 . S
C910 C914 1.531 . S
C911 C910 1.369 . S
C911 C912 1.410 . S
C911 C919 1.503 . S
C912 C911 1.410 . S
C912 C913 1.392 . S
C912 C915 1.511 . S
C913 C909 1.376 . S
C913 C912 1.392 . S
C913 H925 0.929 . S
C914 C910 1.531 . S
C914 H926 0.960 . S
C914 H927 0.962 . S
C914 H928 0.960 . S
C915 C912 1.511 . S
C915 H929 0.961 . S
C915 H930 0.961 . S
C915 H931 0.961 . S
C916 C917 1.370 . S
C916 C918 1.363 . S
C916 H932 0.931 . S
C917 C916 1.370 . S
C917 C921 1.408 . S
C918 C916 1.363 . S
C918 C919 1.370 . S
C918 C922 1.524 . S
C919 C911 1.503 . S
C919 C918 1.370 . S
C919 C920 1.403 . S
C920 C919 1.403 . S
C920 C921 1.404 . S
C920 C923 1.539 . S
C921 C917 1.408 . S
C921 C920 1.404 . S
C921 H933 0.930 . S
C922 C918 1.524 . S
C922 H934 0.956 . S
C922 H935 0.961 . S
C922 H936 0.961 . S
C923 C920 1.539 . S
C923 H937 0.958 . S
C923 H938 0.961 . S
C923 H939 0.960 . S
H924 C908 0.931 . S
H925 C913 0.929 . S
H926 C914 0.960 . S
H927 C914 0.962 . S
H928 C914 0.960 . S
H929 C915 0.961 . S
H930 C915 0.961 . S
H931 C915 0.961 . S
H932 C916 0.931 . S
H933 C921 0.930 . S
H934 C922 0.956 . S
H935 C922 0.961 . S
H936 C922 0.961 . S
H937 C923 0.958 . S
H938 C923 0.961 . S
H939 C923 0.960 . S
C940 C941 1.391 . S
C940 C942 1.394 . S
C940 H956 0.931 . S
C941 C940 1.391 . S
C941 C945 1.376 . S
C942 C940 1.394 . S
C942 C943 1.369 . S
C942 C946 1.531 . S
C943 C942 1.369 . S
C943 C944 1.410 . S
C943 C951 1.503 . S
C944 C943 1.410 . S
C944 C945 1.392 . S
C944 C947 1.511 . S
C945 C941 1.376 . S
C945 C944 1.392 . S
C945 H957 0.929 . S
C946 C942 1.531 . S
C946 H958 0.960 . S
C946 H959 0.962 . S
C946 H960 0.960 . S
C947 C944 1.511 . S
C947 H961 0.961 . S
C947 H962 0.961 . S
C947 H963 0.961 . S
C948 C949 1.370 . S
C948 C950 1.363 . S
C948 H964 0.931 . S
C949 C948 1.370 . S
C949 C953 1.408 . S
C950 C948 1.363 . S
C950 C951 1.370 . S
C950 C954 1.524 . S
C951 C943 1.503 . S
C951 C950 1.370 . S
C951 C952 1.403 . S
C952 C951 1.403 . S
C952 C953 1.404 . S
C952 C955 1.539 . S
C953 C949 1.408 . S
C953 C952 1.404 . S
C953 H965 0.930 . S
C954 C950 1.524 . S
C954 H966 0.956 . S
C954 H967 0.961 . S
C954 H968 0.961 . S
C955 C952 1.539 . S
C955 H969 0.958 . S
C955 H970 0.961 . S
C955 H971 0.960 . S
H956 C940 0.931 . S
H957 C945 0.929 . S
H958 C946 0.960 . S
H959 C946 0.962 . S
H960 C946 0.960 . S
H961 C947 0.961 . S
H962 C947 0.961 . S
H963 C947 0.961 . S
H964 C948 0.931 . S
H965 C953 0.930 . S
H966 C954 0.956 . S
H967 C954 0.961 . S
H968 C954 0.961 . S
H969 C955 0.958 . S
H970 C955 0.961 . S
H971 C955 0.960 . S
C972 C973 1.391 . S
C972 C974 1.394 . S
C972 H988 0.931 . S
C973 C972 1.391 . S
C973 C977 1.376 . S
C974 C972 1.394 . S
C974 C975 1.369 . S
C974 C978 1.531 . S
C975 C974 1.369 . S
C975 C976 1.410 . S
C975 C983 1.503 . S
C976 C975 1.410 . S
C976 C977 1.392 . S
C976 C979 1.511 . S
C977 C973 1.376 . S
C977 C976 1.392 . S
C977 H989 0.929 . S
C978 C974 1.531 . S
C978 H990 0.960 . S
C978 H991 0.962 . S
C978 H992 0.960 . S
C979 C976 1.511 . S
C979 H993 0.961 . S
C979 H994 0.961 . S
C979 H995 0.961 . S
C980 C981 1.370 . S
C980 C982 1.363 . S
C980 H996 0.931 . S
C981 C980 1.370 . S
C981 C985 1.408 . S
C982 C980 1.363 . S
C982 C983 1.370 . S
C982 C986 1.524 . S
C983 C975 1.503 . S
C983 C982 1.370 . S
C983 C984 1.403 . S
C984 C983 1.403 . S
C984 C985 1.404 . S
C984 C987 1.539 . S
C985 C981 1.408 . S
C985 C984 1.404 . S
C985 H997 0.930 . S
C986 C982 1.524 . S
C986 H998 0.956 . S
C986 H999 0.961 . S
C986 H1000 0.961 . S
C987 C984 1.539 . S
C987 H1001 0.958 . S
C987 H1002 0.961 . S
C987 H1003 0.960 . S
H988 C972 0.931 . S
H989 C977 0.929 . S
H990 C978 0.960 . S
H991 C978 0.962 . S
H992 C978 0.960 . S
H993 C979 0.961 . S
H994 C979 0.961 . S
H995 C979 0.961 . S
H996 C980 0.931 . S
H997 C985 0.930 . S
H998 C986 0.956 . S
H999 C986 0.961 . S
H1000 C986 0.961 . S
H1001 C987 0.958 . S
H1002 C987 0.961 . S
H1003 C987 0.960 . S
C1004 C1005 1.391 . S
C1004 C1006 1.394 . S
C1004 H1020 0.931 . S
C1005 C1004 1.391 . S
C1005 C1009 1.376 . S
C1006 C1004 1.394 . S
C1006 C1007 1.369 . S
C1006 C1010 1.531 . S
C1007 C1006 1.369 . S
C1007 C1008 1.410 . S
C1007 C1015 1.503 . S
C1008 C1007 1.410 . S
C1008 C1009 1.392 . S
C1008 C1011 1.511 . S
C1009 C1005 1.376 . S
C1009 C1008 1.392 . S
C1009 H1021 0.929 . S
C1010 C1006 1.531 . S
C1010 H1022 0.960 . S
C1010 H1023 0.962 . S
C1010 H1024 0.960 . S
C1011 C1008 1.511 . S
C1011 H1025 0.961 . S
C1011 H1026 0.961 . S
C1011 H1027 0.961 . S
C1012 C1013 1.370 . S
C1012 C1014 1.363 . S
C1012 H1028 0.931 . S
C1013 C1012 1.370 . S
C1013 C1017 1.408 . S
C1014 C1012 1.363 . S
C1014 C1015 1.370 . S
C1014 C1018 1.524 . S
C1015 C1007 1.503 . S
C1015 C1014 1.370 . S
C1015 C1016 1.403 . S
C1016 C1015 1.403 . S
C1016 C1017 1.404 . S
C1016 C1019 1.539 . S
C1017 C1013 1.408 . S
C1017 C1016 1.404 . S
C1017 H1029 0.930 . S
C1018 C1014 1.524 . S
C1018 H1030 0.956 . S
C1018 H1031 0.961 . S
C1018 H1032 0.961 . S
C1019 C1016 1.539 . S
C1019 H1033 0.958 . S
C1019 H1034 0.961 . S
C1019 H1035 0.960 . S
H1020 C1004 0.931 . S
H1021 C1009 0.929 . S
H1022 C1010 0.960 . S
H1023 C1010 0.962 . S
H1024 C1010 0.960 . S
H1025 C1011 0.961 . S
H1026 C1011 0.961 . S
H1027 C1011 0.961 . S
H1028 C1012 0.931 . S
H1029 C1017 0.930 . S
H1030 C1018 0.956 . S
H1031 C1018 0.961 . S
H1032 C1018 0.961 . S
H1033 C1019 0.958 . S
H1034 C1019 0.961 . S
H1035 C1019 0.960 . S
C1036 C1037 1.391 . S
C1036 C1038 1.394 . S
C1036 H1052 0.931 . S
C1037 C1036 1.391 . S
C1037 C1041 1.376 . S
C1038 C1036 1.394 . S
C1038 C1039 1.369 . S
C1038 C1042 1.531 . S
C1039 C1038 1.369 . S
C1039 C1040 1.410 . S
C1039 C1047 1.503 . S
C1040 C1039 1.410 . S
C1040 C1041 1.392 . S
C1040 C1043 1.511 . S
C1041 C1037 1.376 . S
C1041 C1040 1.392 . S
C1041 H1053 0.929 . S
C1042 C1038 1.531 . S
C1042 H1054 0.960 . S
C1042 H1055 0.962 . S
C1042 H1056 0.960 . S
C1043 C1040 1.511 . S
C1043 H1057 0.961 . S
C1043 H1058 0.961 . S
C1043 H1059 0.961 . S
C1044 C1045 1.370 . S
C1044 C1046 1.363 . S
C1044 H1060 0.931 . S
C1045 C1044 1.370 . S
C1045 C1049 1.408 . S
C1046 C1044 1.363 . S
C1046 C1047 1.370 . S
C1046 C1050 1.524 . S
C1047 C1039 1.503 . S
C1047 C1046 1.370 . S
C1047 C1048 1.403 . S
C1048 C1047 1.403 . S
C1048 C1049 1.404 . S
C1048 C1051 1.539 . S
C1049 C1045 1.408 . S
C1049 C1048 1.404 . S
C1049 H1061 0.930 . S
C1050 C1046 1.524 . S
C1050 H1062 0.956 . S
C1050 H1063 0.961 . S
C1050 H1064 0.961 . S
C1051 C1048 1.539 . S
C1051 H1065 0.958 . S
C1051 H1066 0.961 . S
C1051 H1067 0.960 . S
H1052 C1036 0.931 . S
H1053 C1041 0.929 . S
H1054 C1042 0.960 . S
H1055 C1042 0.962 . S
H1056 C1042 0.960 . S
H1057 C1043 0.961 . S
H1058 C1043 0.961 . S
H1059 C1043 0.961 . S
H1060 C1044 0.931 . S
H1061 C1049 0.930 . S
H1062 C1050 0.956 . S
H1063 C1050 0.961 . S
H1064 C1050 0.961 . S
H1065 C1051 0.958 . S
H1066 C1051 0.961 . S
H1067 C1051 0.960 . S
C1068 C1069 1.391 . S
C1068 C1070 1.394 . S
C1068 H1084 0.931 . S
C1069 C1068 1.391 . S
C1069 C1073 1.376 . S
C1070 C1068 1.394 . S
C1070 C1071 1.369 . S
C1070 C1074 1.531 . S
C1071 C1070 1.369 . S
C1071 C1072 1.410 . S
C1071 C1079 1.503 . S
C1072 C1071 1.410 . S
C1072 C1073 1.392 . S
C1072 C1075 1.511 . S
C1073 C1069 1.376 . S
C1073 C1072 1.392 . S
C1073 H1085 0.929 . S
C1074 C1070 1.531 . S
C1074 H1086 0.960 . S
C1074 H1087 0.962 . S
C1074 H1088 0.960 . S
C1075 C1072 1.511 . S
C1075 H1089 0.961 . S
C1075 H1090 0.961 . S
C1075 H1091 0.961 . S
C1076 C1077 1.370 . S
C1076 C1078 1.363 . S
C1076 H1092 0.931 . S
C1077 C1076 1.370 . S
C1077 C1081 1.408 . S
C1078 C1076 1.363 . S
C1078 C1079 1.370 . S
C1078 C1082 1.524 . S
C1079 C1071 1.503 . S
C1079 C1078 1.370 . S
C1079 C1080 1.403 . S
C1080 C1079 1.403 . S
C1080 C1081 1.404 . S
C1080 C1083 1.539 . S
C1081 C1077 1.408 . S
C1081 C1080 1.404 . S
C1081 H1093 0.930 . S
C1082 C1078 1.524 . S
C1082 H1094 0.956 . S
C1082 H1095 0.961 . S
C1082 H1096 0.961 . S
C1083 C1080 1.539 . S
C1083 H1097 0.958 . S
C1083 H1098 0.961 . S
C1083 H1099 0.960 . S
H1084 C1068 0.931 . S
H1085 C1073 0.929 . S
H1086 C1074 0.960 . S
H1087 C1074 0.962 . S
H1088 C1074 0.960 . S
H1089 C1075 0.961 . S
H1090 C1075 0.961 . S
H1091 C1075 0.961 . S
H1092 C1076 0.931 . S
H1093 C1081 0.930 . S
H1094 C1082 0.956 . S
H1095 C1082 0.961 . S
H1096 C1082 0.961 . S
H1097 C1083 0.958 . S
H1098 C1083 0.961 . S
H1099 C1083 0.960 . S
C1100 C1101 1.391 . S
C1100 C1102 1.394 . S
C1100 H1116 0.931 . S
C1101 C1100 1.391 . S
C1101 C1105 1.376 . S
C1102 C1100 1.394 . S
C1102 C1103 1.369 . S
C1102 C1106 1.531 . S
C1103 C1102 1.369 . S
C1103 C1104 1.410 . S
C1103 C1111 1.503 . S
C1104 C1103 1.410 . S
C1104 C1105 1.392 . S
C1104 C1107 1.511 . S
C1105 C1101 1.376 . S
C1105 C1104 1.392 . S
C1105 H1117 0.929 . S
C1106 C1102 1.531 . S
C1106 H1118 0.960 . S
C1106 H1119 0.962 . S
C1106 H1120 0.960 . S
C1107 C1104 1.511 . S
C1107 H1121 0.961 . S
C1107 H1122 0.961 . S
C1107 H1123 0.961 . S
C1108 C1109 1.370 . S
C1108 C1110 1.363 . S
C1108 H1124 0.931 . S
C1109 C1108 1.370 . S
C1109 C1113 1.408 . S
C1110 C1108 1.363 . S
C1110 C1111 1.370 . S
C1110 C1114 1.524 . S
C1111 C1103 1.503 . S
C1111 C1110 1.370 . S
C1111 C1112 1.403 . S
C1112 C1111 1.403 . S
C1112 C1113 1.404 . S
C1112 C1115 1.539 . S
C1113 C1109 1.408 . S
C1113 C1112 1.404 . S
C1113 H1125 0.930 . S
C1114 C1110 1.524 . S
C1114 H1126 0.956 . S
C1114 H1127 0.961 . S
C1114 H1128 0.961 . S
C1115 C1112 1.539 . S
C1115 H1129 0.958 . S
C1115 H1130 0.961 . S
C1115 H1131 0.960 . S
H1116 C1100 0.931 . S
H1117 C1105 0.929 . S
H1118 C1106 0.960 . S
H1119 C1106 0.962 . S
H1120 C1106 0.960 . S
H1121 C1107 0.961 . S
H1122 C1107 0.961 . S
H1123 C1107 0.961 . S
H1124 C1108 0.931 . S
H1125 C1113 0.930 . S
H1126 C1114 0.956 . S
H1127 C1114 0.961 . S
H1128 C1114 0.961 . S
H1129 C1115 0.958 . S
H1130 C1115 0.961 . S
H1131 C1115 0.960 . S
C1132 C1133 1.391 . S
C1132 C1134 1.394 . S
C1132 H1148 0.931 . S
C1133 C1132 1.391 . S
C1133 C1137 1.376 . S
C1134 C1132 1.394 . S
C1134 C1135 1.369 . S
C1134 C1138 1.531 . S
C1135 C1134 1.369 . S
C1135 C1136 1.410 . S
C1135 C1143 1.503 . S
C1136 C1135 1.410 . S
C1136 C1137 1.392 . S
C1136 C1139 1.511 . S
C1137 C1133 1.376 . S
C1137 C1136 1.392 . S
C1137 H1149 0.929 . S
C1138 C1134 1.531 . S
C1138 H1150 0.960 . S
C1138 H1151 0.962 . S
C1138 H1152 0.960 . S
C1139 C1136 1.511 . S
C1139 H1153 0.961 . S
C1139 H1154 0.961 . S
C1139 H1155 0.961 . S
C1140 C1141 1.370 . S
C1140 C1142 1.363 . S
C1140 H1156 0.931 . S
C1141 C1140 1.370 . S
C1141 C1145 1.408 . S
C1142 C1140 1.363 . S
C1142 C1143 1.370 . S
C1142 C1146 1.524 . S
C1143 C1135 1.503 . S
C1143 C1142 1.370 . S
C1143 C1144 1.403 . S
C1144 C1143 1.403 . S
C1144 C1145 1.404 . S
C1144 C1147 1.539 . S
C1145 C1141 1.408 . S
C1145 C1144 1.404 . S
C1145 H1157 0.930 . S
C1146 C1142 1.524 . S
C1146 H1158 0.956 . S
C1146 H1159 0.961 . S
C1146 H1160 0.961 . S
C1147 C1144 1.539 . S
C1147 H1161 0.958 . S
C1147 H1162 0.961 . S
C1147 H1163 0.960 . S
H1148 C1132 0.931 . S
H1149 C1137 0.929 . S
H1150 C1138 0.960 . S
H1151 C1138 0.962 . S
H1152 C1138 0.960 . S
H1153 C1139 0.961 . S
H1154 C1139 0.961 . S
H1155 C1139 0.961 . S
H1156 C1140 0.931 . S
H1157 C1145 0.930 . S
H1158 C1146 0.956 . S
H1159 C1146 0.961 . S
H1160 C1146 0.961 . S
H1161 C1147 0.958 . S
H1162 C1147 0.961 . S
H1163 C1147 0.960 . S
C405 C324 1.515 . S
C397 C16 1.516 . S
C437 C327 1.498 . S
C429 C55 1.499 . S
C469 C325 1.509 . S
C461 C99 1.506 . S
C501 C326 1.497 . S
C493 C138 1.500 . S
C533 C341 1.511 . S
C525 C1 1.508 . S
C565 C355 1.501 . S
C557 C40 1.503 . S
C589 C94 1.498 . S
C597 C381 1.504 . S
C629 C395 1.501 . S
C621 C133 1.500 . S
C661 C340 1.497 . S
C653 C60 1.493 . S
C685 C79 1.507 . S
C693 C354 1.509 . S
C725 C380 1.497 . S
C717 C118 1.494 . S
C757 C394 1.511 . S
C749 C21 1.505 . S
C781 C177 1.501 . S
C789 C339 1.499 . S
C821 C312 1.510 . S
C813 C211 1.503 . S
C845 C255 1.492 . S
C853 C338 1.502 . S
C877 C289 1.513 . S
C885 C313 1.511 . S
C917 C368 1.498 . S
C909 C157 1.497 . S
C949 C382 1.508 . S
C941 C196 1.507 . S
C981 C352 1.500 . S
C973 C250 1.501 . S
C1005 C294 1.506 . S
C1013 C366 1.502 . S
C1045 C369 1.501 . S
C1037 C216 1.499 . S
C1077 C383 1.506 . S
C1069 C235 1.497 . S
C1109 C353 1.507 . S
C1101 C274 1.501 . S
C1133 C172 1.501 . S
C1141 C367 1.506 . S
