# Generated by pormake.
# Topology zzz, (3,6)-cn, num edge types: 1
# Building blocks:
#     Node 0, Type 0, BuildingBlock: PAMTOO_clean_linker_0, # of connection points: 3
#     Node 1, Type 0, BuildingBlock: PAMTOO_clean_linker_0, # of connection points: 3
#     Node 2, Type 0, BuildingBlock: PAMTOO_clean_linker_0, # of connection points: 3
#     Node 3, Type 0, BuildingBlock: PAMTOO_clean_linker_0, # of connection points: 3
#     Node 4, Type 0, BuildingBlock: PAMTOO_clean_linker_0, # of connection points: 3
#     Node 5, Type 0, BuildingBlock: PAMTOO_clean_linker_0, # of connection points: 3
#     Node 6, Type 0, BuildingBlock: PAMTOO_clean_linker_0, # of connection points: 3
#     Node 7, Type 0, BuildingBlock: PAMTOO_clean_linker_0, # of connection points: 3
#     Node 8, Type 1, BuildingBlock: KUMBUR_clean_sbu_0, # of connection points: 6
#     Node 9, Type 1, BuildingBlock: KUMBUR_clean_sbu_0, # of connection points: 6
#     Node 10, Type 1, BuildingBlock: KUMBUR_clean_sbu_0, # of connection points: 6
#     Node 11, Type 1, BuildingBlock: KUMBUR_clean_sbu_0, # of connection points: 6
#     Edge 12, Type (0, 1), BuildingBlock: AJUNOK_clean_linker_0, # of connection points: 2
#     Edge 13, Type (0, 1), BuildingBlock: AJUNOK_clean_linker_0, # of connection points: 2
#     Edge 14, Type (0, 1), BuildingBlock: AJUNOK_clean_linker_0, # of connection points: 2
#     Edge 15, Type (0, 1), BuildingBlock: AJUNOK_clean_linker_0, # of connection points: 2
#     Edge 16, Type (0, 1), BuildingBlock: AJUNOK_clean_linker_0, # of connection points: 2
#     Edge 17, Type (0, 1), BuildingBlock: AJUNOK_clean_linker_0, # of connection points: 2
#     Edge 18, Type (0, 1), BuildingBlock: AJUNOK_clean_linker_0, # of connection points: 2
#     Edge 19, Type (0, 1), BuildingBlock: AJUNOK_clean_linker_0, # of connection points: 2
#     Edge 20, Type (0, 1), BuildingBlock: AJUNOK_clean_linker_0, # of connection points: 2
#     Edge 21, Type (0, 1), BuildingBlock: AJUNOK_clean_linker_0, # of connection points: 2
#     Edge 22, Type (0, 1), BuildingBlock: AJUNOK_clean_linker_0, # of connection points: 2
#     Edge 23, Type (0, 1), BuildingBlock: AJUNOK_clean_linker_0, # of connection points: 2
#     Edge 24, Type (0, 1), BuildingBlock: AJUNOK_clean_linker_0, # of connection points: 2
#     Edge 25, Type (0, 1), BuildingBlock: AJUNOK_clean_linker_0, # of connection points: 2
#     Edge 26, Type (0, 1), BuildingBlock: AJUNOK_clean_linker_0, # of connection points: 2
#     Edge 27, Type (0, 1), BuildingBlock: AJUNOK_clean_linker_0, # of connection points: 2
#     Edge 28, Type (0, 1), BuildingBlock: AJUNOK_clean_linker_0, # of connection points: 2
#     Edge 29, Type (0, 1), BuildingBlock: AJUNOK_clean_linker_0, # of connection points: 2
#     Edge 30, Type (0, 1), BuildingBlock: AJUNOK_clean_linker_0, # of connection points: 2
#     Edge 31, Type (0, 1), BuildingBlock: AJUNOK_clean_linker_0, # of connection points: 2
#     Edge 32, Type (0, 1), BuildingBlock: AJUNOK_clean_linker_0, # of connection points: 2
#     Edge 33, Type (0, 1), BuildingBlock: AJUNOK_clean_linker_0, # of connection points: 2
#     Edge 34, Type (0, 1), BuildingBlock: AJUNOK_clean_linker_0, # of connection points: 2
#     Edge 35, Type (0, 1), BuildingBlock: AJUNOK_clean_linker_0, # of connection points: 2
# Relax obj value: 0.229
# Max RMSD: 0.183
# Mean RMSD: 0.118
data_MOF--net-zzz--node1-KUMBUR_clean_sbu_0--node2-PAMTOO_clean_linker_0--edge1-AJUNOK_clean_linker_0
_symmetry_space_group_name_H-M    P1
_symmetry_Int_Tables_number       1
_symmetry_cell_setting            triclinic
loop_
_symmetry_equiv_pos_as_xyz
'x, y, z'
_cell_length_a     37.447
_cell_length_b     37.424649
_cell_length_c     11.097609
_cell_angle_alpha  91.154699
_cell_angle_beta   89.866651
_cell_angle_gamma 89.99919
loop_
_atom_site_label
_atom_site_type_symbol
_atom_site_fract_x
_atom_site_fract_y
_atom_site_fract_z
_atom_type_partial_charge
H0 H 0.84733 0.5991 0.26527 0.0
H1 H 0.73614 0.60115 0.16916 0.0
H2 H 0.77569 0.52038 0.40517 0.0
H3 H 0.71457 0.49877 0.13649 0.0
C4 C 0.70795 0.5277 0.14013 0.0
O5 O 0.71881 0.54148 0.25487 0.0
H6 H 0.7248 0.53946 0.06843 0.0
C7 C 0.82036 0.5893 0.27576 0.0
C8 C 0.81483 0.56195 0.35943 0.0
C9 C 0.79292 0.60169 0.1995 0.0
C10 C 0.75803 0.58965 0.21892 0.0
C11 C 0.75186 0.5576 0.27672 0.0
C12 C 0.78045 0.54381 0.35189 0.0
H13 H 0.94717 0.86923 0.3081 0.0
H14 H 0.9596 0.76965 0.10974 0.0
H15 H 0.03557 0.7995 0.38131 0.0
H16 H 0.97218 0.7141 0.21794 0.0
C17 C 1.00181 0.71281 0.21307 0.0
O18 O 0.0158 0.74807 0.20529 0.0
H19 H 1.01021 0.70233 0.30129 0.0
C20 C 0.9608 0.84415 0.29261 0.0
C21 C 0.99188 0.8382 0.36063 0.0
C22 C 0.94933 0.82095 0.19761 0.0
C23 C 0.96751 0.78828 0.17992 0.0
C24 C 0.998 0.77919 0.24417 0.0
C25 C 1.01093 0.80493 0.33437 0.0
H26 H 0.69964 0.96292 0.31943 0.0
H27 H 0.80905 0.96604 0.20441 0.0
H28 H 0.76841 0.04765 0.44646 0.0
H29 H 0.84088 0.07104 0.22631 0.0
C30 C 0.8389 0.04219 0.20187 0.0
O31 O 0.8267 0.02424 0.30552 0.0
H32 H 0.818 0.04085 0.13076 0.0
C33 C 0.72553 0.97521 0.32326 0.0
C34 C 0.72987 1.00521 0.4007 0.0
C35 C 0.75279 0.96269 0.24417 0.0
C36 C 0.78711 0.97716 0.25651 0.0
C37 C 0.79299 1.00913 0.31902 0.0
C38 C 0.76408 0.02346 0.39351 0.0
H39 H 0.6056 0.69811 0.31563 0.0
H40 H 0.59576 0.80075 0.15675 0.0
H41 H 0.52502 0.77129 0.44618 0.0
H42 H 0.49487 0.82996 0.21625 0.0
C43 C 0.52317 0.83442 0.19075 0.0
O44 O 0.54448 0.82452 0.28901 0.0
H45 H 0.52811 0.81594 0.11264 0.0
C46 C 0.59305 0.72395 0.31537 0.0
C47 C 0.5649 0.73054 0.39689 0.0
C48 C 0.60286 0.74789 0.22456 0.0
C49 C 0.58761 0.78191 0.22446 0.0
C50 C 0.55923 0.79088 0.30128 0.0
C51 C 0.54717 0.76473 0.38703 0.0
H52 H 0.19454 0.46214 0.19406 0.0
H53 H 0.29213 0.47689 0.3867 0.0
H54 H 0.26729 0.54491 0.08758 0.0
H55 H 0.36342 0.52121 0.17549 0.0
C56 C 0.3515 0.51271 0.26182 0.0
O57 O 0.31717 0.52874 0.26972 0.0
H58 H 0.34851 0.4832 0.25323 0.0
C59 C 0.21964 0.4758 0.20214 0.0
C60 C 0.22646 0.50403 0.12347 0.0
C61 C 0.24228 0.46662 0.29813 0.0
C62 C 0.27492 0.48394 0.31245 0.0
C63 C 0.28531 0.51162 0.23795 0.0
C64 C 0.26046 0.52249 0.14318 0.0
H65 H 0.08113 0.19749 0.25294 0.0
H66 H 0.07309 0.30703 0.37195 0.0
H67 H 1.00116 0.26559 0.1034 0.0
H68 H 0.01575 0.36764 0.18016 0.0
C69 C 0.02757 0.35728 0.26406 0.0
O70 O 0.01503 0.32151 0.2748 0.0
H71 H 0.05682 0.35675 0.24813 0.0
C72 C 0.07006 0.22363 0.24369 0.0
C73 C 0.0434 0.22763 0.15416 0.0
C74 C 0.07994 0.25139 0.32774 0.0
C75 C 0.06442 0.28499 0.31562 0.0
C76 C 0.03458 0.29056 0.24517 0.0
C77 C 0.02408 0.26174 0.16089 0.0
H78 H 0.36598 0.99729 0.18348 0.0
H79 H 0.26347 1.01498 0.34262 0.0
H80 H 0.28596 0.05715 0.9906 0.0
H81 H 0.2137 0.99801 0.19609 0.0
C82 C 0.20458 0.02609 0.18612 0.0
O83 O 0.23451 0.04911 0.17479 0.0
H84 H 0.18976 0.0263 0.09956 0.0
C85 C 0.33964 1.00912 0.17582 0.0
C86 C 0.33094 0.02872 0.07325 0.0
C87 C 0.31499 1.00341 0.26853 0.0
C88 C 0.28168 0.0193 0.26808 0.0
C89 C 0.26967 0.03744 0.16847 0.0
C90 C 0.29461 0.04272 0.06883 0.0
H91 H 0.44156 0.35072 0.16414 0.0
H92 H 0.45045 0.24861 0.32744 0.0
H93 H 0.52659 0.27969 0.05523 0.0
H94 H 0.51514 0.23436 0.39107 0.0
C95 C 0.52353 0.21651 0.31476 0.0
O96 O 0.50491 0.22566 0.20931 0.0
H97 H 0.55217 0.22261 0.29883 0.0
C98 C 0.45456 0.32508 0.16771 0.0
C99 C 0.48448 0.31917 0.0934 0.0
C100 C 0.4432 0.30075 0.25515 0.0
C101 C 0.45941 0.26728 0.26037 0.0
C102 C 0.48969 0.25896 0.19154 0.0
C103 C 0.50297 0.2855 0.10844 0.0
Tb104 Tb 0.05596 0.01661 0.82905 0.0
C105 C 0.92205 1.01062 0.54952 0.0
C106 C 0.93682 0.97213 0.37869 0.0
C107 C 0.876 0.97388 0.45427 0.0
C108 C 0.94722 0.99683 0.47025 0.0
C109 C 0.88595 0.99992 0.54055 0.0
C110 C 0.90132 0.96023 0.3728 0.0
C111 C 0.87137 0.04369 0.69541 0.0
N112 N 0.93257 0.03583 0.63152 0.0
C113 C 0.90734 0.0535 0.70091 0.0
C114 C 0.86068 0.01644 0.61597 0.0
Tb115 Tb 0.99287 0.04972 0.63369 0.0
N116 N 0.98144 1.00871 0.47922 0.0
C117 C 1.00572 0.99879 0.39169 0.0
C118 C 0.96215 0.96068 0.29397 0.0
C119 C 0.99658 0.97451 0.29944 0.0
H120 H 0.91539 0.07451 0.7635 0.0
H121 H 0.01627 0.96633 0.23286 0.0
H122 H 0.89301 0.94105 0.30405 0.0
H123 H 0.85194 0.05708 0.75283 0.0
H124 H 0.03278 1.00818 0.39227 0.0
H125 H 0.05964 0.07505 0.26644 0.0
H126 H 0.95525 0.94177 0.22273 0.0
H127 H 0.13142 0.97669 0.72059 0.0
H128 H 0.03421 0.04592 0.10559 0.0
H129 H 0.1934 0.99619 0.68257 0.0
H130 H 0.84858 0.96485 0.44757 0.0
H131 H 0.14735 0.11137 0.3712 0.0
H132 H 0.16257 0.13684 0.04621 0.0
H133 H 0.83274 1.00896 0.61156 0.0
H134 H 0.19924 0.11141 0.88765 0.0
N135 N 0.07701 0.05308 0.98316 0.0
C136 C 0.05988 0.05791 0.08961 0.0
C137 C 0.11279 0.09035 0.18514 0.0
C138 C 0.12512 0.09088 0.05624 0.0
C139 C 0.07632 0.07547 0.18662 0.0
C140 C 0.10965 0.06717 0.96985 0.0
H141 H 0.21395 0.0553 0.76081 0.0
N142 N 0.11715 0.02426 0.8194 0.0
C143 C 0.17563 1.0129 0.73621 0.0
C144 C 0.12985 0.0535 0.87704 0.0
C145 C 0.14061 1.00175 0.75941 0.0
C146 C 0.18707 0.04627 0.77983 0.0
C147 C 0.16433 0.06627 0.85511 0.0
O148 O 0.08355 0.972 0.89597 0.0
O149 O 0.01607 0.99958 0.69391 0.0
O150 O 0.96397 0.02148 0.77881 0.0
O151 O 1.00475 0.0293 0.93037 0.0
O152 O 0.06389 0.97476 0.68848 0.0
O153 O 0.03132 0.98474 0.95899 0.0
O154 O 0.95831 0.09071 0.58383 0.0
O155 O 0.03272 0.06781 0.77175 0.0
O156 O 0.08681 0.0332 0.66719 0.0
O157 O 0.04479 0.05203 0.53105 0.0
O158 O 0.98525 0.093 0.77139 0.0
O159 O 1.00541 0.07894 0.47918 0.0
C160 C 0.03322 0.97432 0.63789 0.0
C161 C 0.04267 0.92427 0.90976 0.0
C162 C 0.99312 0.88218 0.87679 0.0
C163 C 1.00592 0.91652 0.90855 0.0
C164 C 0.01835 0.85667 0.83459 0.0
C165 C 0.06691 0.89824 0.86861 0.0
C166 C 0.05465 0.86493 0.82886 0.0
C167 C 0.97104 0.0243 0.89542 0.0
C168 C 0.05535 0.96003 0.94907 0.0
C169 C 0.17457 0.09818 0.91173 0.0
C170 C 0.15365 0.11181 1.00685 0.0
C171 C 0.01534 0.09355 0.82699 0.0
C172 C 0.98654 0.13875 0.49884 0.0
C173 C 0.01728 0.1519 0.55667 0.0
C174 C 0.02378 0.18877 0.5633 0.0
C175 C 0.99817 0.2122 0.51437 0.0
C176 C 0.9617 0.16231 0.45017 0.0
C177 C 0.96744 0.19897 0.45875 0.0
C178 C 0.07842 0.04415 0.55815 0.0
C179 C 0.97861 0.10069 0.49631 0.0
H180 H 0.98754 0.93733 0.93598 0.0
H181 H 1.01101 0.82952 0.81175 0.0
H182 H 0.09532 0.90367 0.86661 0.0
H183 H 0.07354 0.84489 0.79757 0.0
H184 H 0.0365 0.13345 0.59363 0.0
H185 H 1.00252 0.24079 0.51301 0.0
H186 H 0.93775 0.15231 0.40645 0.0
H187 H 0.94838 0.21719 0.42011 0.0
Tb188 Tb 0.54467 0.05389 0.85441 0.0
C189 C 0.58261 0.95833 0.51454 0.0
C190 C 0.59555 0.99036 0.33389 0.0
C191 C 0.63228 0.93993 0.3861 0.0
C192 C 0.57357 0.98444 0.43462 0.0
C193 C 0.61086 0.93439 0.48715 0.0
C194 C 0.62548 0.96889 0.31231 0.0
C195 C 0.59699 0.90286 0.66711 0.0
N196 N 0.56375 0.95614 0.61832 0.0
C197 C 0.57058 0.92816 0.69344 0.0
C198 C 0.61734 0.90599 0.56334 0.0
Tb199 Tb 0.51517 0.99439 0.6387 0.0
N200 N 0.54352 1.00402 0.45491 0.0
C201 C 0.53142 0.02515 0.36337 0.0
C202 C 0.58708 0.01798 0.25788 0.0
C203 C 0.55424 0.0349 0.27006 0.0
H204 H 0.55386 0.92264 0.76858 0.0
H205 H 0.54631 0.05511 0.20727 0.0
H206 H 0.64289 0.97418 0.23702 0.0
H207 H 0.60133 0.88072 0.72666 0.0
H208 H 0.50471 0.03601 0.36276 0.0
H209 H 0.45276 0.01666 0.20941 0.0
H210 H 0.60549 0.02515 0.18805 0.0
H211 H 0.56907 0.13711 0.77779 0.0
H212 H 0.50392 1.00967 0.07503 0.0
H213 H 0.5453 0.19826 0.79426 0.0
H214 H 0.65464 0.92243 0.36674 0.0
H215 H 0.42029 0.07403 0.22003 0.0
H216 H 0.41503 0.13733 0.15177 0.0
H217 H 0.63829 0.88672 0.54387 0.0
H218 H 0.44045 0.18712 0.03848 0.0
N219 N 0.49839 0.06011 0.99279 0.0
C220 C 0.48884 0.03371 0.07001 0.0
C221 C 0.4422 0.07054 0.15695 0.0
C222 C 0.45366 0.09854 0.08522 0.0
C223 C 0.46025 0.03808 0.15036 0.0
C224 C 0.48225 0.09242 1.00386 0.0
H225 H 0.48928 0.21019 0.90623 0.0
N226 N 0.5255 0.11321 0.87178 0.0
C227 C 0.5309 0.17646 0.83471 0.0
C228 C 0.49609 0.11998 0.93962 0.0
C229 C 0.54416 0.14159 0.82542 0.0
C230 C 0.49927 0.18307 0.89753 0.0
C231 C 0.48197 0.15486 0.95379 0.0
O232 O 0.58099 0.08891 0.94255 0.0
O233 O 0.56516 0.01601 0.71454 0.0
O234 O 0.50967 0.96755 0.81579 0.0
O235 O 0.55028 0.99897 0.93166 0.0
O236 O 0.58661 0.06588 0.72082 0.0
O237 O 0.57727 0.03441 0.99 0.0
O238 O 0.50197 0.94074 0.64849 0.0
O239 O 0.49704 0.02327 0.80129 0.0
O240 O 0.53548 0.08546 0.69109 0.0
O241 O 0.50403 0.04836 0.56193 0.0
O242 O 0.4632 0.02187 0.65971 0.0
O243 O 0.47818 0.97205 0.51268 0.0
C244 C 0.58963 0.03556 0.66547 0.0
C245 C 0.63509 0.05878 0.97814 0.0
C246 C 0.68717 0.01943 0.9536 0.0
C247 C 0.65014 0.02441 0.96765 0.0
C248 C 0.70861 0.05044 0.94409 0.0
C249 C 0.65712 0.08882 0.96982 0.0
C250 C 0.69363 0.08458 0.95121 0.0
C251 C 0.5305 0.96987 0.91226 0.0
C252 C 0.59635 0.06315 0.9976 0.0
C253 C 0.45201 0.16069 0.02789 0.0
C254 C 0.43775 0.13246 0.09317 0.0
C255 C 0.46547 0.03357 0.76992 0.0
C256 C 0.44617 0.9218 0.59205 0.0
C257 C 0.41314 0.93606 0.56354 0.0
C258 C 0.38176 0.9173 0.58905 0.0
C259 C 0.38323 0.88419 0.64514 0.0
C260 C 0.44772 0.88859 0.6496 0.0
C261 C 0.41634 0.87009 0.67687 0.0
C262 C 0.51778 0.08017 0.59001 0.0
C263 C 0.47927 0.94079 0.56237 0.0
H264 H 0.63255 1.00184 0.97271 0.0
H265 H 0.73734 0.04904 0.93683 0.0
H266 H 0.64612 0.11554 0.97778 0.0
H267 H 0.71063 0.10789 0.94554 0.0
H268 H 0.41172 0.96117 0.51655 0.0
H269 H 0.35906 0.86915 0.66175 0.0
H270 H 0.47319 0.8769 0.67294 0.0
H271 H 0.41778 0.84451 0.7204 0.0
Tb272 Tb 0.55237 0.50812 0.64368 0.0
C273 C 0.41357 0.50786 0.88325 0.0
C274 C 0.3738 0.53393 0.73946 0.0
C275 C 0.35301 0.48516 0.86219 0.0
C276 C 0.40793 0.53106 0.79221 0.0
C277 C 0.38572 0.48578 0.92392 0.0
C278 C 0.34698 0.50941 0.76977 0.0
C279 C 0.42067 0.47505 0.10097 0.0
N280 N 0.44487 0.51098 0.94322 0.0
C281 C 0.44787 0.49667 0.05563 0.0
C282 C 0.39046 0.46776 0.03151 0.0
Tb283 Tb 0.48997 0.54281 0.85042 0.0
N284 N 0.43434 0.55467 0.76961 0.0
C285 C 0.42624 0.58516 0.70972 0.0
C286 C 0.367 0.56292 0.6656 0.0
C287 C 0.39294 0.58941 0.65454 0.0
H288 H 0.47173 0.50114 0.10846 0.0
H289 H 0.38732 0.6132 0.60407 0.0
H290 H 0.32087 0.51055 0.72813 0.0
H291 H 0.42233 0.46491 0.19081 0.0
H292 H 0.44488 0.60668 0.70579 0.0
H293 H 0.65712 0.44566 0.90865 0.0
H294 H 0.34118 0.56628 0.62346 0.0
H295 H 0.56339 0.54708 0.37905 0.0
H296 H 0.5975 0.45123 0.8274 0.0
H297 H 0.61228 0.57498 0.26494 0.0
H298 H 0.33144 0.46796 0.8908 0.0
H299 H 0.70524 0.48618 0.84445 0.0
H300 H 0.72578 0.5335 0.7035 0.0
H301 H 0.36957 0.4509 0.06705 0.0
H302 H 0.71328 0.56962 0.52572 0.0
N303 N 0.60896 0.4972 0.72086 0.0
C304 C 0.61702 0.47014 0.7981 0.0
C305 C 0.67856 0.48928 0.80851 0.0
C306 C 0.67133 0.51441 0.72068 0.0
C307 C 0.6515 0.46634 0.84458 0.0
C308 C 0.63602 0.51735 0.67708 0.0
H309 H 0.67103 0.58439 0.35852 0.0
N310 N 0.59573 0.53637 0.53215 0.0
C311 C 0.61675 0.56631 0.3557 0.0
C312 C 0.62915 0.53761 0.57826 0.0
C313 C 0.58945 0.54969 0.41987 0.0
C314 C 0.65023 0.57086 0.40791 0.0
C315 C 0.65713 0.5556 0.51922 0.0
O316 O 0.56237 0.48397 0.47458 0.0
O317 O 0.49499 0.51692 0.67571 0.0
O318 O 0.48632 0.48327 0.86083 0.0
O319 O 0.54101 0.46638 0.78239 0.0
O320 O 0.51247 0.52565 0.50771 0.0
O321 O 0.54598 0.45243 0.62324 0.0
O322 O 0.48143 0.56311 0.02587 0.0
O323 O 0.5474 0.53546 0.81645 0.0
O324 O 0.55785 0.56747 0.6344 0.0
O325 O 0.50356 0.58557 0.71555 0.0
O326 O 0.53052 0.52666 0.98584 0.0
O327 O 0.49079 0.59851 0.87977 0.0
C328 C 0.48383 0.52595 0.57157 0.0
C329 C 0.51887 0.44033 0.43503 0.0
C330 C 0.46148 0.40953 0.41634 0.0
C331 C 0.49014 0.42184 0.48777 0.0
C332 C 0.46226 0.4165 0.29187 0.0
C333 C 0.51812 0.44738 0.31168 0.0
C334 C 0.49027 0.43512 0.24059 0.0
C335 C 0.51172 0.45882 0.8454 0.0
C336 C 0.54916 0.45369 0.50712 0.0
C337 C 0.69159 0.55548 0.56862 0.0
C338 C 0.69869 0.53492 0.66972 0.0
C339 C 0.55903 0.52754 0.92116 0.0
C340 C 0.52116 0.61017 0.06252 0.0
C341 C 0.54992 0.62665 1.00287 0.0
C342 C 0.57947 0.63968 0.06843 0.0
C343 C 0.58027 0.63394 0.19379 0.0
C344 C 0.52276 0.60555 0.18711 0.0
C345 C 0.55197 0.61762 0.25221 0.0
C346 C 0.5332 0.59267 0.65273 0.0
C347 C 0.49058 0.59512 0.99595 0.0
H348 H 0.49046 0.41622 0.58316 0.0
H349 H 0.44176 0.40676 0.2316 0.0
H350 H 0.53891 0.46273 0.27015 0.0
H351 H 0.49056 0.43976 0.14489 0.0
H352 H 0.54916 0.62964 0.90615 0.0
H353 H 0.6025 0.64251 0.24884 0.0
H354 H 0.50192 0.59154 0.2337 0.0
H355 H 0.55284 0.61399 0.34841 0.0
Tb356 Tb 0.03594 0.56351 0.63307 0.0
C357 C 0.03749 0.44107 0.96445 0.0
C358 C 0.02475 0.38995 0.83642 0.0
C359 C 0.06502 0.38408 1.00631 0.0
C360 C 0.02255 0.42696 0.8609 0.0
C361 C 0.05737 0.41943 0.0417 0.0
C362 C 0.04743 0.36891 0.90669 0.0
C363 C 0.05107 0.46547 0.19503 0.0
N364 N 0.02874 0.47512 0.99629 0.0
C365 C 0.03296 0.48667 0.11308 0.0
C366 C 0.06553 0.43277 0.1568 0.0
Tb367 Tb 1.00187 0.50797 0.85043 0.0
N368 N 1.00097 0.44842 0.79636 0.0
C369 C 0.97671 0.43349 0.71819 0.0
C370 C 1.00211 0.37504 0.74883 0.0
C371 C 0.97732 0.39677 0.69183 0.0
H372 H 0.02223 0.51196 0.14435 0.0
H373 H 0.95872 0.38531 0.62734 0.0
H374 H 0.04975 0.34052 0.89085 0.0
H375 H 0.05422 0.4746 0.28741 0.0
H376 H 0.95719 0.44976 0.67381 0.0
H377 H 0.09492 0.6765 0.87219 0.0
H378 H 1.002 0.34663 0.72934 0.0
H379 H 0.98872 0.56382 0.37581 0.0
H380 H 0.09056 0.61393 0.80505 0.0
H381 H 0.95001 0.60576 0.26847 0.0
H382 H 0.08155 0.36728 0.06151 0.0
H383 H 0.05183 0.72112 0.79867 0.0
H384 H 1.00115 0.73551 0.65898 0.0
H385 H 0.08036 0.41687 0.21996 0.0
H386 H 0.96134 0.71605 0.49389 0.0
N387 N 0.04436 0.62185 0.69617 0.0
C388 C 0.07145 0.63266 0.77105 0.0
C389 C 0.04975 0.6935 0.76829 0.0
C390 C 0.02402 0.68292 0.68379 0.0
C391 C 0.07417 0.66842 0.80962 0.0
C392 C 0.02256 0.64661 0.64739 0.0
H393 H 0.94239 0.66765 0.34624 0.0
N394 N 1.00304 0.6015 0.51471 0.0
C395 C 0.96404 0.61458 0.34888 0.0
C396 C 1.00097 0.63601 0.55325 0.0
C397 C 0.98629 0.59097 0.40965 0.0
C398 C 0.95976 0.64947 0.3932 0.0
C399 C 0.97909 0.6609 0.49469 0.0
O400 O 0.05696 0.5703 0.45976 0.0
O401 O 0.02784 0.50682 0.67429 0.0
O402 O 0.06101 0.50499 0.88261 0.0
O403 O 0.08041 0.55274 0.76863 0.0
O404 O 0.02113 0.52048 0.50147 0.0
O405 O 0.09174 0.56536 0.6126 0.0
O406 O 0.96187 0.53397 0.95284 0.0
O407 O 1.0099 0.56461 0.80714 0.0
O408 O 0.97644 0.5687 0.63109 0.0
O409 O 0.96179 0.51327 0.69903 0.0
O410 O 0.02043 0.55039 0.97825 0.0
O411 O 0.9587 0.47792 0.91764 0.0
C412 C 0.02029 0.49328 0.56955 0.0
C413 C 0.10678 0.53401 0.4328 0.0
C414 C 0.13348 0.47434 0.43182 0.0
C415 C 0.11905 0.50395 0.49521 0.0
C416 C 0.13134 0.47412 0.30474 0.0
C417 C 0.10824 0.53407 0.30699 0.0
C418 C 0.12022 0.50417 0.24366 0.0
C419 C 0.08696 0.52724 0.84931 0.0
C420 C 0.08927 0.56405 0.49562 0.0
C421 C 0.97824 0.69655 0.53676 0.0
C422 C 1.00087 0.70762 0.6308 0.0
C423 C 0.02029 0.57773 0.90954 0.0
C424 C 0.90575 0.51181 0.89688 0.0
C425 C 0.88922 0.54506 0.91307 0.0
C426 C 0.85922 0.55482 0.84464 0.0
C427 C 0.8452 0.52936 0.76211 0.0
C428 C 0.89037 0.48643 0.81784 0.0
C429 C 0.8601 0.4952 0.75166 0.0
C430 C 0.95292 0.54231 0.63841 0.0
C431 C 0.9412 0.50623 0.95149 0.0
H432 H 0.11807 0.50387 0.59266 0.0
H433 H 0.13951 0.45126 0.25056 0.0
H434 H 0.09838 0.55651 0.25735 0.0
H435 H 0.11942 0.50365 0.14669 0.0
H436 H 0.90001 0.56292 0.98154 0.0
H437 H 0.8224 0.53539 0.7065 0.0
H438 H 0.90227 0.4603 0.8042 0.0
H439 H 0.84871 0.47576 0.68927 0.0
C440 C 0.16208 1.00861 0.36655 0.0
C441 C 0.17712 0.03502 0.28966 0.0
C442 C 0.13166 1.01294 0.44795 0.0
C443 C 0.10817 0.04317 0.46035 0.0
H444 H 0.17465 0.98255 0.36463 0.0
H445 H 0.12548 0.99005 0.50229 0.0
S446 S 0.13064 0.14735 0.25769 0.0
N447 N 0.17004 0.10473 0.22667 0.0
N448 N 0.09851 0.11214 0.36994 0.0
C449 C 0.11701 0.07087 0.3822 0.0
C450 C 0.15888 0.06677 0.2946 0.0
C451 C 0.55105 0.15969 0.40255 0.0
C452 C 0.52004 0.17715 0.36025 0.0
C453 C 0.54971 0.1281 0.4713 0.0
C454 C 0.5173 0.11117 0.5017 0.0
H455 H 0.57699 0.17163 0.38759 0.0
H456 H 0.5746 0.11733 0.50422 0.0
S457 S 0.42766 0.1453 0.41964 0.0
N458 N 0.45524 0.17457 0.35965 0.0
N459 N 0.45291 0.11483 0.48352 0.0
C460 C 0.48595 0.12746 0.45772 0.0
C461 C 0.48726 0.16032 0.38918 0.0
C462 C 0.38998 0.4942 0.4493 0.0
C463 C 0.37989 0.5206 0.3649 0.0
C464 C 0.42194 0.49663 0.52086 0.0
C465 C 0.44615 0.52568 0.51297 0.0
H466 H 0.37377 0.47042 0.45638 0.0
H467 H 0.4284 0.47474 0.57931 0.0
S468 S 0.43177 0.60337 0.31422 0.0
N469 N 0.3968 0.57781 0.28572 0.0
N470 N 0.45592 0.58213 0.41469 0.0
C471 C 0.43582 0.55248 0.43118 0.0
C472 C 0.40315 0.55022 0.36023 0.0
C473 C 0.99427 0.41332 0.35388 0.0
C474 C 0.02055 0.38638 0.36871 0.0
C475 C 0.9938 0.44613 0.4228 0.0
C476 C 0.01913 0.45469 0.5142 0.0
H477 H 0.97505 0.41019 0.2817 0.0
H478 H 0.97378 0.46583 0.4008 0.0
S479 S 0.09301 0.39376 0.59808 0.0
N480 N 0.07248 0.37143 0.48848 0.0
N481 N 0.07105 0.43176 0.61708 0.0
C482 C 0.04484 0.42764 0.53378 0.0
C483 C 0.04551 0.39416 0.46258 0.0
C484 C 0.90799 0.04895 0.16776 0.0
C485 C 0.87567 0.03024 0.14298 0.0
C486 C 0.93915 0.04555 0.09285 0.0
C487 C 0.93992 0.02359 0.98705 0.0
H488 H 0.90865 0.06805 0.24233 0.0
H489 H 0.96222 0.06186 0.11478 0.0
S490 S 0.86521 0.9645 0.88932 0.0
N491 N 0.84904 0.98586 1.00912 0.0
N492 N 0.90634 0.97939 0.87198 0.0
C493 C 0.90878 1.00303 0.96611 0.0
C494 C 0.8773 1.00631 0.04251 0.0
C495 C 0.55886 0.88329 0.07737 0.0
C496 C 0.52828 0.87333 0.14409 0.0
C497 C 0.56025 0.91543 1.01006 0.0
C498 C 0.5307 0.93887 1.00124 0.0
H499 H 0.58137 0.86518 0.07241 0.0
H500 H 0.58409 0.92086 0.95842 0.0
S501 S 0.44542 0.92784 0.16935 0.0
N502 N 0.46904 0.89253 0.20659 0.0
N503 N 0.47065 0.95035 0.07506 0.0
C504 C 0.5005 0.92982 0.07107 0.0
C505 C 0.49957 0.89794 0.14311 0.0
C506 C 0.65695 0.55697 0.01172 0.0
C507 C 0.66756 0.53215 0.10077 0.0
C508 C 0.62276 0.55556 0.95277 0.0
C509 C 0.59686 0.52906 0.97835 0.0
H510 H 0.67591 0.57697 0.98333 0.0
H511 H 0.61676 0.57529 0.88569 0.0
S512 S 0.61075 0.45703 0.19995 0.0
N513 N 0.64822 0.48009 0.20829 0.0
N514 N 0.58531 0.47754 0.10139 0.0
C515 C 0.60683 0.50495 0.06957 0.0
C516 C 0.64151 0.50632 0.12873 0.0
C517 C 0.98784 0.67388 0.01715 0.0
C518 C 1.01181 0.68373 0.11203 0.0
C519 C 0.99132 0.64128 0.94644 0.0
C520 C 0.01902 0.61614 0.96615 0.0
H521 H 0.96491 0.69072 1.00129 0.0
H522 H 0.9711 0.635 0.87974 0.0
S523 S 0.091 0.62968 0.19361 0.0
N524 N 0.06589 0.66559 0.2125 0.0
N525 N 0.07215 0.60561 0.08477 0.0
C526 C 0.04379 0.62649 0.05715 0.0
C527 C 0.04047 0.65967 0.12742 0.0
C528 C 0.11082 0.20929 0.46362 0.0
C529 C 0.09971 0.2444 0.44448 0.0
C530 C 0.08915 0.1872 0.53455 0.0
C531 C 0.05978 0.20251 0.59613 0.0
H532 H 0.13323 0.19898 0.41399 0.0
H533 H 0.09291 0.15867 0.53137 0.0
S534 S 0.05907 0.2969 0.69428 0.0
N535 N 0.08647 0.29557 0.57763 0.0
N536 N 0.04473 0.25571 0.71419 0.0
C537 C 0.06338 0.23883 0.62514 0.0
C538 C 0.08506 0.26021 0.55002 0.0
C539 C 0.32481 0.98847 0.48291 0.0
C540 C 0.32267 0.9775 0.36155 0.0
C541 C 0.338 0.96512 0.56872 0.0
C542 C 0.34931 0.9306 0.53386 0.0
H543 H 0.31912 0.01591 0.50944 0.0
H544 H 0.34392 0.97557 0.6583 0.0
S545 S 0.34029 0.88724 0.23311 0.0
N546 N 0.32585 0.92848 0.21516 0.0
N547 N 0.35091 0.8845 0.37701 0.0
C548 C 0.34207 0.91793 0.41692 0.0
C549 C 0.32911 0.9417 0.32961 0.0
C550 C 0.44427 0.31841 0.46683 0.0
C551 C 0.42332 0.31507 0.36184 0.0
C552 C 0.45088 0.35251 0.51634 0.0
C553 C 0.43565 0.38256 0.46192 0.0
H554 H 0.46212 0.29703 0.49191 0.0
H555 H 0.47335 0.35542 0.57699 0.0
S556 S 0.35689 0.38107 0.26225 0.0
N557 N 0.37164 0.33941 0.26022 0.0
N558 N 0.38251 0.4033 0.35892 0.0
C559 C 0.40394 0.37651 0.39678 0.0
C560 C 0.39792 0.34204 0.34404 0.0
C561 C 0.203 0.41789 0.37079 0.0
C562 C 0.22718 0.44571 0.39893 0.0
C563 C 0.16875 0.41845 0.4231 0.0
C564 C 0.15847 0.44894 0.49179 0.0
H565 H 0.20752 0.40079 0.2923 0.0
H566 H 0.14845 0.40154 0.38218 0.0
S567 S 0.22144 0.50422 0.67154 0.0
N568 N 0.24588 0.48601 0.56246 0.0
N569 N 0.18086 0.4877 0.65368 0.0
C570 C 0.18623 0.4653 0.55762 0.0
C571 C 0.2213 0.46435 0.5085 0.0
C572 C 0.91988 0.87167 0.09586 0.0
C573 C 0.92443 0.83435 0.10064 0.0
C574 C 0.93775 0.89032 1.00552 0.0
C575 C 0.95598 0.87115 0.91262 0.0
H576 H 0.90964 0.88672 0.17266 0.0
H577 H 0.94027 0.91885 0.01827 0.0
S578 S 0.92833 0.77958 0.81887 0.0
N579 N 0.91521 0.78386 0.9609 0.0
N580 N 0.94748 0.8179 0.78449 0.0
C581 C 0.94348 0.83613 0.89067 0.0
C582 C 0.92616 0.81782 0.98551 0.0
C583 C 0.76072 0.9563 0.02536 0.0
C584 C 0.74389 0.94275 0.12873 0.0
C585 C 0.74138 0.97914 0.95119 0.0
C586 C 0.70427 0.98337 0.96942 0.0
H587 H 0.78932 0.95589 0.01686 0.0
H588 H 0.75593 0.99524 0.88782 0.0
S589 S 0.6521 0.90843 0.098 0.0
N590 N 0.69202 0.90534 0.16012 0.0
N591 N 0.65331 0.94404 0.01214 0.0
C592 C 0.68751 0.95479 0.02975 0.0
C593 C 0.70826 0.93353 0.10822 0.0
C594 C 0.64524 0.70514 0.1274 0.0
C595 C 0.62032 0.73302 0.11343 0.0
C596 C 0.63785 0.67122 0.0765 0.0
C597 C 0.60519 0.66567 0.01548 0.0
H598 H 0.66494 0.70697 0.19861 0.0
H599 H 0.65253 0.64854 0.11 0.0
S600 S 0.5542 0.7371 0.86662 0.0
N601 N 0.57912 0.75813 0.96817 0.0
N602 N 0.56479 0.69439 0.87515 0.0
C603 C 0.59047 0.69594 0.96136 0.0
C604 C 0.59831 0.73035 1.01119 0.0
C605 C 0.78307 0.60129 0.9779 0.0
C606 C 0.80195 0.61596 0.07765 0.0
C607 C 0.80173 0.58668 0.87976 0.0
C608 C 0.83923 0.58825 0.87744 0.0
H609 H 0.75512 0.59435 0.98365 0.0
H610 H 0.78696 0.5693 0.81892 0.0
S611 S 0.89331 0.65305 0.05623 0.0
N612 N 0.85458 0.65139 0.12772 0.0
N613 N 0.88939 0.62641 0.93632 0.0
C614 C 0.85514 0.61521 0.94998 0.0
C615 C 0.83636 0.62883 0.05278 0.0
C616 C 0.06386 0.17514 1.00363 0.0
C617 C 0.03585 0.19421 0.06628 0.0
C618 C 0.05841 0.14297 0.93018 0.0
C619 C 0.02459 0.12594 0.91673 0.0
H620 H 0.09076 0.18559 1.00996 0.0
H621 H 0.081 0.13192 0.88136 0.0
S622 S 0.94197 0.16162 0.06665 0.0
N623 N 0.97265 0.1909 0.10942 0.0
N624 N 0.96261 0.13184 0.97951 0.0
C625 C 0.99662 0.14443 0.98081 0.0
C626 C 1.00206 0.1775 0.05287 0.0
C627 C 0.37699 0.06326 0.9394 0.0
C628 C 0.36115 0.03082 0.97678 0.0
C629 C 0.41011 0.06416 0.87306 0.0
C630 C 0.43082 0.03301 0.84687 0.0
H631 H 0.36435 0.08834 0.96458 0.0
H632 H 0.4201 0.08982 0.8449 0.0
S633 S 0.39805 0.94086 0.89849 0.0
N634 N 0.36673 0.96631 0.96011 0.0
N635 N 0.42849 0.9684 0.84575 0.0
C636 C 0.41403 1.00055 0.8767 0.0
C637 C 0.3799 0.99945 0.93941 0.0
C638 C 0.52802 0.36844 0.01413 0.0
C639 C 0.49452 0.35064 1.00982 0.0
C640 C 0.53397 0.40229 0.95805 0.0
C641 C 0.50654 0.42108 0.89715 0.0
H642 H 0.54947 0.35698 0.06593 0.0
H643 H 0.55998 0.4146 0.96753 0.0
S644 S 0.41512 0.38547 0.84672 0.0
N645 N 0.43467 0.35419 0.9261 0.0
N646 N 0.44535 0.41703 0.82906 0.0
C647 C 0.47353 0.40305 0.88885 0.0
C648 C 0.46774 0.36841 0.94244 0.0
C649 C 0.17876 0.54644 0.0209 0.0
C650 C 0.19533 0.51234 0.0318 0.0
C651 C 0.14523 0.55162 0.95844 0.0
C652 C 0.12508 0.52295 0.90551 0.0
H653 H 0.19091 0.56931 0.06575 0.0
H654 H 0.13419 0.57832 0.9568 0.0
S655 S 0.15695 0.42887 0.89331 0.0
N656 N 0.18905 0.45007 0.96725 0.0
N657 N 0.12674 0.45943 0.86233 0.0
C658 C 0.14189 0.4892 0.91207 0.0
C659 C 0.17635 0.48409 0.97113 0.0
C660 C 0.03744 0.88658 0.43706 0.0
C661 C 1.00363 0.86987 0.44645 0.0
C662 C 0.04577 0.91984 0.49744 0.0
C663 C 0.02091 0.93952 0.57038 0.0
H664 H 0.05748 0.8745 0.37881 0.0
H665 H 0.07228 0.93073 0.48482 0.0
S666 S 0.92949 0.90688 0.63782 0.0
N667 N 0.94569 0.87571 0.54536 0.0
N668 N 0.96146 0.93691 0.65576 0.0
C669 C 0.98745 0.92263 0.5843 0.0
C670 C 0.97892 0.88862 0.5235 0.0
C671 C 0.67319 0.04388 0.4504 0.0
C672 C 0.6969 0.01587 0.48033 0.0
C673 C 0.63925 0.04919 0.50924 0.0
C674 C 0.62569 0.02637 0.60004 0.0
H675 H 0.68041 0.06144 0.37793 0.0
H676 H 0.62291 0.07131 0.48078 0.0
S677 S 0.67755 0.94975 0.71731 0.0
N678 N 0.70375 0.96535 0.6109 0.0
N679 N 0.64195 0.97591 0.72231 0.0
C680 C 0.64975 0.99902 0.63351 0.0
C681 C 0.68422 0.99351 0.57314 0.0
C682 C 0.58194 0.6765 0.52729 0.0
C683 C 0.55488 0.6992 0.48083 0.0
C684 C 0.5746 0.64325 0.58275 0.0
C685 C 0.53952 0.63024 0.59963 0.0
H686 H 0.6097 0.68397 0.51761 0.0
H687 H 0.59701 0.6273 0.61176 0.0
S688 S 0.45795 0.67957 0.50498 0.0
N689 N 0.49083 0.70582 0.46215 0.0
N690 N 0.47702 0.64504 0.56916 0.0
C691 C 0.51203 0.65349 0.55975 0.0
C692 C 0.5196 0.68724 0.50076 0.0
C693 C 0.86553 0.52116 0.44869 0.0
C694 C 0.8469 0.55426 0.44522 0.0
C695 C 0.89893 0.51705 0.5117 0.0
C696 C 0.91614 0.54578 0.57478 0.0
H697 H 0.85488 0.4984 0.39892 0.0
H698 H 0.91175 0.49112 0.50891 0.0
S699 S 0.87884 0.63768 0.59999 0.0
N700 N 0.84904 0.61595 0.51717 0.0
N701 N 0.91029 0.60836 0.63049 0.0
C702 C 0.8976 0.57867 0.57267 0.0
C703 C 0.86373 0.58277 0.51025 0.0
loop_
_geom_bond_atom_site_label_1
_geom_bond_atom_site_label_2
_geom_bond_distance
_geom_bond_site_symmetry_2
_ccdc_geom_bond_type
H0 C7 0.929 . S
H1 C10 0.930 . S
H2 C12 0.929 . S
H3 C4 0.969 . S
C4 H3 0.969 . S
C4 O5 1.550 . S
C4 H6 0.973 . S
O5 C4 1.550 . S
O5 C11 1.412 . S
H6 C4 0.973 . S
C7 H0 0.929 . S
C7 C8 1.400 . S
C7 C9 1.364 . S
C8 C7 1.400 . S
C8 C12 1.377 . S
C9 C7 1.364 . S
C9 C10 1.374 . S
C10 H1 0.930 . S
C10 C9 1.374 . S
C10 C11 1.383 . S
C11 O5 1.412 . S
C11 C10 1.383 . S
C11 C12 1.394 . S
C12 H2 0.929 . S
C12 C8 1.377 . S
C12 C11 1.394 . S
H13 C20 0.929 . S
H14 C23 0.930 . S
H15 C25 0.929 . S
H16 C17 0.969 . S
C17 H16 0.969 . S
C17 O18 1.550 . S
C17 H19 0.973 . S
O18 C17 1.550 . S
O18 C24 1.412 . S
H19 C17 0.973 . S
C20 H13 0.929 . S
C20 C21 1.400 . S
C20 C22 1.364 . S
C21 C20 1.400 . S
C21 C25 1.377 . S
C22 C20 1.364 . S
C22 C23 1.374 . S
C23 H14 0.930 . S
C23 C22 1.374 . S
C23 C24 1.383 . S
C24 O18 1.412 . S
C24 C23 1.383 . S
C24 C25 1.394 . S
C25 H15 0.929 . S
C25 C21 1.377 . S
C25 C24 1.394 . S
H26 C33 0.929 . S
H27 C36 0.930 . S
H28 C38 0.929 . S
H29 C30 0.970 1_545 S
C30 H29 0.970 1_565 S
C30 O31 1.550 . S
C30 H32 0.973 . S
O31 C30 1.550 . S
O31 C37 1.412 . S
H32 C30 0.973 . S
C33 H26 0.929 . S
C33 C34 1.400 . S
C33 C35 1.364 . S
C34 C33 1.400 . S
C34 C38 1.377 . S
C35 C33 1.364 . S
C35 C36 1.374 . S
C36 H27 0.930 . S
C36 C35 1.374 . S
C36 C37 1.383 . S
C37 O31 1.412 . S
C37 C36 1.383 . S
C37 C38 1.394 . S
C38 H28 0.929 . S
C38 C34 1.377 . S
C38 C37 1.394 . S
H39 C46 0.929 . S
H40 C49 0.930 . S
H41 C51 0.929 . S
H42 C43 0.969 . S
C43 H42 0.969 . S
C43 O44 1.550 . S
C43 H45 0.973 . S
O44 C43 1.550 . S
O44 C50 1.412 . S
H45 C43 0.973 . S
C46 H39 0.929 . S
C46 C47 1.400 . S
C46 C48 1.364 . S
C47 C46 1.400 . S
C47 C51 1.377 . S
C48 C46 1.364 . S
C48 C49 1.374 . S
C49 H40 0.930 . S
C49 C48 1.374 . S
C49 C50 1.383 . S
C50 O44 1.412 . S
C50 C49 1.383 . S
C50 C51 1.394 . S
C51 H41 0.929 . S
C51 C47 1.377 . S
C51 C50 1.394 . S
H52 C59 0.929 . S
H53 C62 0.930 . S
H54 C64 0.929 . S
H55 C56 0.969 . S
C56 H55 0.969 . S
C56 O57 1.550 . S
C56 H58 0.973 . S
O57 C56 1.550 . S
O57 C63 1.412 . S
H58 C56 0.973 . S
C59 H52 0.929 . S
C59 C60 1.400 . S
C59 C61 1.364 1_556 S
C60 C59 1.400 . S
C60 C64 1.377 . S
C61 C59 1.364 1_554 S
C61 C62 1.374 . S
C62 H53 0.930 . S
C62 C61 1.374 . S
C62 C63 1.383 . S
C63 O57 1.412 . S
C63 C62 1.383 . S
C63 C64 1.394 1_554 S
C64 H54 0.929 . S
C64 C60 1.377 . S
C64 C63 1.394 1_556 S
H65 C72 0.929 . S
H66 C75 0.930 . S
H67 C77 0.929 . S
H68 C69 0.969 . S
C69 H68 0.969 . S
C69 O70 1.550 . S
C69 H71 0.973 . S
O70 C69 1.550 . S
O70 C76 1.412 . S
H71 C69 0.973 . S
C72 H65 0.929 . S
C72 C73 1.400 . S
C72 C74 1.364 1_556 S
C73 C72 1.400 . S
C73 C77 1.377 . S
C74 C72 1.364 1_554 S
C74 C75 1.374 . S
C75 H66 0.930 . S
C75 C74 1.374 . S
C75 C76 1.383 . S
C76 O70 1.412 . S
C76 C75 1.383 . S
C76 C77 1.394 1_554 S
C77 H67 0.929 . S
C77 C73 1.377 . S
C77 C76 1.394 1_556 S
H78 C85 0.929 . S
H79 C88 0.930 . S
H80 C90 0.929 . S
H81 C82 0.969 . S
C82 H81 0.969 . S
C82 O83 1.550 . S
C82 H84 0.973 . S
O83 C82 1.550 . S
O83 C89 1.412 . S
H84 C82 0.973 . S
C85 H78 0.929 . S
C85 C86 1.400 . S
C85 C87 1.364 1_556 S
C86 C85 1.400 . S
C86 C90 1.377 . S
C87 C85 1.364 1_554 S
C87 C88 1.374 . S
C88 H79 0.930 . S
C88 C87 1.374 . S
C88 C89 1.383 . S
C89 O83 1.412 . S
C89 C88 1.383 . S
C89 C90 1.394 1_554 S
C90 H80 0.929 . S
C90 C86 1.377 . S
C90 C89 1.394 1_556 S
H91 C98 0.929 . S
H92 C101 0.930 . S
H93 C103 0.929 . S
H94 C95 0.969 . S
C95 H94 0.969 . S
C95 O96 1.550 . S
C95 H97 0.973 . S
O96 C95 1.550 . S
O96 C102 1.412 . S
H97 C95 0.973 . S
C98 H91 0.929 . S
C98 C99 1.400 . S
C98 C100 1.364 1_556 S
C99 C98 1.400 . S
C99 C103 1.377 . S
C100 C98 1.364 1_554 S
C100 C101 1.374 . S
C101 H92 0.930 . S
C101 C100 1.374 . S
C101 C102 1.383 . S
C102 O96 1.412 . S
C102 C101 1.383 . S
C102 C103 1.394 1_554 S
C103 H93 0.929 . S
C103 C99 1.377 . S
C103 C102 1.394 1_556 S
Tb104 N135 2.660 1_566 S
Tb104 N142 2.600 1_565 S
Tb104 O148 2.546 . S
Tb104 O149 2.610 1_455 S
Tb104 O151 2.320 1_455 S
Tb104 O152 2.552 . S
Tb104 O153 2.413 1_556 S
Tb104 O155 2.362 1_565 S
Tb104 O156 2.421 . S
Tb104 C168 2.833 . S
C105 C108 1.432 . S
C105 C109 1.414 . S
C105 N112 1.359 1_565 S
C106 C108 1.417 . S
C106 C110 1.432 . S
C106 C118 1.410 . S
C107 C109 1.444 . S
C107 C110 1.317 . S
C107 H130 0.929 . S
C108 C105 1.432 . S
C108 C106 1.417 . S
C108 N116 1.360 . S
C109 C105 1.414 . S
C109 C107 1.444 . S
C109 C114 1.385 1_565 S
C110 C106 1.432 . S
C110 C107 1.317 . S
C110 H122 0.930 . S
C111 C113 1.392 . S
C111 C114 1.370 . S
C111 H123 0.931 . S
N112 C105 1.359 1_545 S
N112 C113 1.327 . S
N112 Tb115 2.600 . S
C113 C111 1.392 . S
C113 N112 1.327 . S
C113 H120 0.930 . S
C114 C109 1.385 1_545 S
C114 C111 1.370 . S
C114 H133 0.930 . S
Tb115 N112 2.600 . S
Tb115 N116 2.660 1_545 S
Tb115 O149 2.362 1_545 S
Tb115 O150 2.421 . S
Tb115 O154 2.546 . S
Tb115 O155 2.610 1_655 S
Tb115 O157 2.320 1_655 S
Tb115 O158 2.552 1_655 S
Tb115 O159 2.413 . S
Tb115 C179 2.833 . S
N116 C108 1.360 . S
N116 Tb115 2.660 1_565 S
N116 C117 1.305 1_655 S
C117 N116 1.305 1_455 S
C117 C119 1.407 . S
C117 H124 0.930 . S
C118 C106 1.410 . S
C118 C119 1.345 1_655 S
C118 H126 0.930 . S
C119 C117 1.407 . S
C119 C118 1.345 1_455 S
C119 H121 0.930 . S
H120 C113 0.930 . S
H121 C119 0.930 . S
H122 C110 0.930 . S
H123 C111 0.931 . S
H124 C117 0.930 . S
H125 C139 0.930 1_655 S
H126 C118 0.930 . S
H127 C145 0.930 . S
H128 C136 0.930 1_655 S
H129 C143 0.931 . S
H130 C107 0.929 . S
H131 C137 0.930 . S
H132 C170 0.930 . S
H133 C114 0.930 . S
H134 C169 0.929 . S
N135 Tb104 2.660 1_544 S
N135 C136 1.305 . S
N135 C140 1.360 . S
C136 H128 0.930 1_455 S
C136 N135 1.305 . S
C136 C139 1.407 . S
C137 H131 0.930 . S
C137 C138 1.410 . S
C137 C139 1.345 . S
C138 C137 1.410 . S
C138 C140 1.417 . S
C138 C170 1.432 . S
C139 H125 0.930 1_455 S
C139 C136 1.407 . S
C139 C137 1.345 . S
C140 N135 1.360 . S
C140 C138 1.417 . S
C140 C144 1.432 . S
H141 C146 0.930 . S
N142 Tb104 2.600 1_545 S
N142 C144 1.359 1_556 S
N142 C145 1.327 1_545 S
C143 H129 0.931 . S
C143 C145 1.392 . S
C143 C146 1.370 1_566 S
C144 C140 1.432 . S
C144 N142 1.359 1_554 S
C144 C147 1.414 . S
C145 H127 0.930 . S
C145 N142 1.327 1_565 S
C145 C143 1.392 . S
C146 H141 0.930 . S
C146 C143 1.370 1_544 S
C146 C147 1.385 . S
C147 C144 1.414 . S
C147 C146 1.385 . S
C147 C169 1.444 . S
O148 Tb104 2.546 . S
O148 C168 1.251 . S
O149 Tb104 2.610 1_655 S
O149 Tb115 2.362 1_565 S
O149 C160 1.283 . S
O150 Tb115 2.421 . S
O150 C167 1.262 . S
O151 Tb104 2.320 1_655 S
O151 C167 1.260 1_565 S
O152 Tb104 2.552 . S
O152 C160 1.243 1_455 S
O153 Tb104 2.413 1_554 S
O153 C168 1.256 1_554 S
O154 Tb115 2.546 . S
O154 C179 1.251 . S
O155 Tb104 2.362 1_545 S
O155 Tb115 2.610 1_455 S
O155 C171 1.283 . S
O156 Tb104 2.421 . S
O156 C178 1.262 1_565 S
O157 Tb115 2.320 1_455 S
O157 C178 1.260 . S
O158 Tb115 2.552 1_455 S
O158 C171 1.243 . S
O159 Tb115 2.413 . S
O159 C179 1.256 . S
C160 O149 1.283 . S
C160 O152 1.243 1_655 S
C161 C163 1.382 . S
C161 C165 1.393 . S
C161 C168 1.500 1_554 S
C162 C163 1.400 . S
C162 C164 1.384 . S
C163 C161 1.382 . S
C163 C162 1.400 . S
C163 H180 0.930 . S
C164 C162 1.384 . S
C164 C166 1.392 . S
C164 H181 0.931 . S
C165 C161 1.393 . S
C165 C166 1.401 . S
C165 H182 0.930 . S
C166 C164 1.392 . S
C166 C165 1.401 . S
C166 H183 0.930 . S
C167 O150 1.262 . S
C167 O151 1.260 1_545 S
C168 Tb104 2.833 . S
C168 O148 1.251 . S
C168 O153 1.256 1_556 S
C168 C161 1.500 1_556 S
C169 H134 0.929 . S
C169 C147 1.444 . S
C169 C170 1.317 . S
C170 H132 0.930 . S
C170 C138 1.432 . S
C170 C169 1.317 . S
C171 O155 1.283 . S
C171 O158 1.243 . S
C172 C173 1.382 . S
C172 C176 1.393 . S
C172 C179 1.500 . S
C173 C172 1.382 . S
C173 C174 1.400 . S
C173 H184 0.930 1_655 S
C174 C173 1.400 . S
C174 C175 1.384 . S
C175 C174 1.384 . S
C175 C177 1.392 . S
C175 H185 0.931 . S
C176 C172 1.393 . S
C176 C177 1.401 . S
C176 H186 0.930 . S
C177 C175 1.392 . S
C177 C176 1.401 . S
C177 H187 0.930 . S
C178 O156 1.262 1_545 S
C178 O157 1.260 . S
C179 Tb115 2.833 . S
C179 O154 1.251 . S
C179 O159 1.256 . S
C179 C172 1.500 . S
H180 C163 0.930 . S
H181 C164 0.931 . S
H182 C165 0.930 . S
H183 C166 0.930 . S
H184 C173 0.930 1_455 S
H185 C175 0.931 . S
H186 C176 0.930 . S
H187 C177 0.930 . S
Tb188 N219 2.660 1_556 S
Tb188 N226 2.600 . S
Tb188 O232 2.546 . S
Tb188 O233 2.610 1_545 S
Tb188 O235 2.320 1_545 S
Tb188 O236 2.552 . S
Tb188 O237 2.413 1_556 S
Tb188 O239 2.362 . S
Tb188 O240 2.421 . S
Tb188 C252 2.833 . S
C189 C192 1.432 . S
C189 C193 1.414 . S
C189 N196 1.359 . S
C190 C192 1.417 . S
C190 C194 1.432 . S
C190 C202 1.410 . S
C191 C193 1.444 . S
C191 C194 1.317 . S
C191 H214 0.929 . S
C192 C189 1.432 . S
C192 C190 1.417 . S
C192 N200 1.360 . S
C193 C189 1.414 . S
C193 C191 1.444 . S
C193 C198 1.385 . S
C194 C190 1.432 . S
C194 C191 1.317 . S
C194 H206 0.930 . S
C195 C197 1.392 . S
C195 C198 1.370 . S
C195 H207 0.931 . S
N196 C189 1.359 . S
N196 C197 1.327 . S
N196 Tb199 2.600 . S
C197 C195 1.392 . S
C197 N196 1.327 . S
C197 H204 0.930 . S
C198 C193 1.385 . S
C198 C195 1.370 . S
C198 H217 0.930 . S
Tb199 N196 2.600 . S
Tb199 N200 2.660 . S
Tb199 O233 2.362 . S
Tb199 O234 2.421 . S
Tb199 O238 2.546 . S
Tb199 O239 2.610 1_565 S
Tb199 O241 2.320 1_565 S
Tb199 O242 2.552 1_565 S
Tb199 O243 2.413 . S
Tb199 C263 2.833 . S
N200 C192 1.360 . S
N200 Tb199 2.660 . S
N200 C201 1.305 1_565 S
C201 N200 1.305 1_545 S
C201 C203 1.407 . S
C201 H208 0.930 . S
C202 C190 1.410 . S
C202 C203 1.345 1_565 S
C202 H210 0.930 . S
C203 C201 1.407 . S
C203 C202 1.345 1_545 S
C203 H205 0.930 . S
H204 C197 0.930 . S
H205 C203 0.930 . S
H206 C194 0.930 . S
H207 C195 0.931 . S
H208 C201 0.930 . S
H209 C223 0.930 1_565 S
H210 C202 0.930 . S
H211 C229 0.930 . S
H212 C220 0.930 1_565 S
H213 C227 0.931 . S
H214 C191 0.929 . S
H215 C221 0.930 . S
H216 C254 0.930 . S
H217 C198 0.930 . S
H218 C253 0.929 . S
N219 Tb188 2.660 1_554 S
N219 C220 1.305 . S
N219 C224 1.360 . S
C220 H212 0.930 1_545 S
C220 N219 1.305 . S
C220 C223 1.407 . S
C221 H215 0.930 . S
C221 C222 1.410 . S
C221 C223 1.345 . S
C222 C221 1.410 . S
C222 C224 1.417 . S
C222 C254 1.432 . S
C223 H209 0.930 1_545 S
C223 C220 1.407 . S
C223 C221 1.345 . S
C224 N219 1.360 . S
C224 C222 1.417 . S
C224 C228 1.432 . S
H225 C230 0.930 . S
N226 Tb188 2.600 . S
N226 C228 1.359 1_556 S
N226 C229 1.327 . S
C227 H213 0.931 . S
C227 C229 1.392 . S
C227 C230 1.370 1_556 S
C228 C224 1.432 . S
C228 N226 1.359 1_554 S
C228 C231 1.414 . S
C229 H211 0.930 . S
C229 N226 1.327 . S
C229 C227 1.392 . S
C230 H225 0.930 . S
C230 C227 1.370 1_554 S
C230 C231 1.385 . S
C231 C228 1.414 . S
C231 C230 1.385 . S
C231 C253 1.444 . S
O232 Tb188 2.546 . S
O232 C252 1.251 . S
O233 Tb188 2.610 1_565 S
O233 Tb199 2.362 . S
O233 C244 1.283 . S
O234 Tb199 2.421 . S
O234 C251 1.262 . S
O235 Tb188 2.320 1_565 S
O235 C251 1.260 . S
O236 Tb188 2.552 . S
O236 C244 1.243 1_545 S
O237 Tb188 2.413 1_554 S
O237 C252 1.256 1_554 S
O238 Tb199 2.546 . S
O238 C263 1.251 . S
O239 Tb188 2.362 . S
O239 Tb199 2.610 1_545 S
O239 C255 1.283 . S
O240 Tb188 2.421 . S
O240 C262 1.262 . S
O241 Tb199 2.320 1_545 S
O241 C262 1.260 . S
O242 Tb199 2.552 1_545 S
O242 C255 1.243 . S
O243 Tb199 2.413 . S
O243 C263 1.256 . S
C244 O233 1.283 . S
C244 O236 1.243 1_565 S
C245 C247 1.382 . S
C245 C249 1.393 . S
C245 C252 1.500 1_554 S
C246 C247 1.400 . S
C246 C248 1.384 . S
C247 C245 1.382 . S
C247 C246 1.400 . S
C247 H264 0.930 . S
C248 C246 1.384 . S
C248 C250 1.392 . S
C248 H265 0.931 . S
C249 C245 1.393 . S
C249 C250 1.401 . S
C249 H266 0.930 . S
C250 C248 1.392 . S
C250 C249 1.401 . S
C250 H267 0.930 . S
C251 O234 1.262 . S
C251 O235 1.260 . S
C252 Tb188 2.833 . S
C252 O232 1.251 . S
C252 O237 1.256 1_556 S
C252 C245 1.500 1_556 S
C253 H218 0.929 . S
C253 C231 1.444 . S
C253 C254 1.317 . S
C254 H216 0.930 . S
C254 C222 1.432 . S
C254 C253 1.317 . S
C255 O239 1.283 . S
C255 O242 1.243 . S
C256 C257 1.382 . S
C256 C260 1.393 . S
C256 C263 1.500 . S
C257 C256 1.382 . S
C257 C258 1.400 . S
C257 H268 0.930 1_565 S
C258 C257 1.400 . S
C258 C259 1.384 . S
C259 C258 1.384 . S
C259 C261 1.392 . S
C259 H269 0.931 . S
C260 C256 1.393 . S
C260 C261 1.401 . S
C260 H270 0.930 . S
C261 C259 1.392 . S
C261 C260 1.401 . S
C261 H271 0.930 . S
C262 O240 1.262 . S
C262 O241 1.260 . S
C263 Tb199 2.833 . S
C263 O238 1.251 . S
C263 O243 1.256 . S
C263 C256 1.500 . S
H264 C247 0.930 . S
H265 C248 0.931 . S
H266 C249 0.930 . S
H267 C250 0.930 . S
H268 C257 0.930 1_545 S
H269 C259 0.931 . S
H270 C260 0.930 . S
H271 C261 0.930 . S
Tb272 N303 2.660 . S
Tb272 N310 2.600 . S
Tb272 O316 2.546 . S
Tb272 O317 2.610 . S
Tb272 O319 2.320 . S
Tb272 O320 2.552 . S
Tb272 O321 2.413 . S
Tb272 O323 2.362 . S
Tb272 O324 2.421 . S
Tb272 C336 2.833 . S
C273 C276 1.432 . S
C273 C277 1.414 . S
C273 N280 1.359 . S
C274 C276 1.417 . S
C274 C278 1.432 . S
C274 C286 1.410 . S
C275 C277 1.444 . S
C275 C278 1.317 . S
C275 H298 0.929 . S
C276 C273 1.432 . S
C276 C274 1.417 . S
C276 N284 1.360 . S
C277 C273 1.414 . S
C277 C275 1.444 . S
C277 C282 1.385 1_556 S
C278 C274 1.432 . S
C278 C275 1.317 . S
C278 H290 0.930 . S
C279 C281 1.392 . S
C279 C282 1.370 . S
C279 H291 0.931 . S
N280 C273 1.359 . S
N280 C281 1.327 1_556 S
N280 Tb283 2.600 . S
C281 C279 1.392 . S
C281 N280 1.327 1_554 S
C281 H288 0.930 . S
C282 C277 1.385 1_554 S
C282 C279 1.370 . S
C282 H301 0.930 . S
Tb283 N280 2.600 . S
Tb283 N284 2.660 . S
Tb283 O317 2.362 . S
Tb283 O318 2.421 . S
Tb283 O322 2.546 1_556 S
Tb283 O323 2.610 . S
Tb283 O325 2.320 . S
Tb283 O326 2.552 . S
Tb283 O327 2.413 . S
Tb283 C347 2.833 1_556 S
N284 C276 1.360 . S
N284 Tb283 2.660 . S
N284 C285 1.305 . S
C285 N284 1.305 . S
C285 C287 1.407 . S
C285 H292 0.930 . S
C286 C274 1.410 . S
C286 C287 1.345 . S
C286 H294 0.930 . S
C287 C285 1.407 . S
C287 C286 1.345 . S
C287 H289 0.930 . S
H288 C281 0.930 . S
H289 C287 0.930 . S
H290 C278 0.930 . S
H291 C279 0.931 . S
H292 C285 0.930 . S
H293 C307 0.930 . S
H294 C286 0.930 . S
H295 C313 0.930 . S
H296 C304 0.930 . S
H297 C311 0.931 . S
H298 C275 0.929 . S
H299 C305 0.930 . S
H300 C338 0.930 . S
H301 C282 0.930 . S
H302 C337 0.929 . S
N303 Tb272 2.660 . S
N303 C304 1.305 . S
N303 C308 1.360 . S
C304 H296 0.930 . S
C304 N303 1.305 . S
C304 C307 1.407 . S
C305 H299 0.930 . S
C305 C306 1.410 . S
C305 C307 1.345 . S
C306 C305 1.410 . S
C306 C308 1.417 . S
C306 C338 1.432 . S
C307 H293 0.930 . S
C307 C304 1.407 . S
C307 C305 1.345 . S
C308 N303 1.360 . S
C308 C306 1.417 . S
C308 C312 1.432 . S
H309 C314 0.930 . S
N310 Tb272 2.600 . S
N310 C312 1.359 . S
N310 C313 1.327 . S
C311 H297 0.931 . S
C311 C313 1.392 . S
C311 C314 1.370 . S
C312 C308 1.432 . S
C312 N310 1.359 . S
C312 C315 1.414 . S
C313 H295 0.930 . S
C313 N310 1.327 . S
C313 C311 1.392 . S
C314 H309 0.930 . S
C314 C311 1.370 . S
C314 C315 1.385 . S
C315 C312 1.414 . S
C315 C314 1.385 . S
C315 C337 1.444 . S
O316 Tb272 2.546 . S
O316 C336 1.251 . S
O317 Tb272 2.610 . S
O317 Tb283 2.362 . S
O317 C328 1.283 . S
O318 Tb283 2.421 . S
O318 C335 1.262 . S
O319 Tb272 2.320 . S
O319 C335 1.260 . S
O320 Tb272 2.552 . S
O320 C328 1.243 . S
O321 Tb272 2.413 . S
O321 C336 1.256 . S
O322 Tb283 2.546 1_554 S
O322 C347 1.251 . S
O323 Tb272 2.362 . S
O323 Tb283 2.610 . S
O323 C339 1.283 . S
O324 Tb272 2.421 . S
O324 C346 1.262 . S
O325 Tb283 2.320 . S
O325 C346 1.260 . S
O326 Tb283 2.552 . S
O326 C339 1.243 . S
O327 Tb283 2.413 . S
O327 C347 1.256 1_556 S
C328 O317 1.283 . S
C328 O320 1.243 . S
C329 C331 1.382 . S
C329 C333 1.393 . S
C329 C336 1.500 . S
C330 C331 1.400 . S
C330 C332 1.384 . S
C331 C329 1.382 . S
C331 C330 1.400 . S
C331 H348 0.930 . S
C332 C330 1.384 . S
C332 C334 1.392 . S
C332 H349 0.931 . S
C333 C329 1.393 . S
C333 C334 1.401 . S
C333 H350 0.930 . S
C334 C332 1.392 . S
C334 C333 1.401 . S
C334 H351 0.930 . S
C335 O318 1.262 . S
C335 O319 1.260 . S
C336 Tb272 2.833 . S
C336 O316 1.251 . S
C336 O321 1.256 . S
C336 C329 1.500 . S
C337 H302 0.929 . S
C337 C315 1.444 . S
C337 C338 1.317 . S
C338 H300 0.930 . S
C338 C306 1.432 . S
C338 C337 1.317 . S
C339 O323 1.283 . S
C339 O326 1.243 . S
C340 C341 1.382 . S
C340 C344 1.393 . S
C340 C347 1.500 . S
C341 C340 1.382 . S
C341 C342 1.400 . S
C341 H352 0.930 . S
C342 C341 1.400 . S
C342 C343 1.384 . S
C343 C342 1.384 . S
C343 C345 1.392 . S
C343 H353 0.931 . S
C344 C340 1.393 . S
C344 C345 1.401 . S
C344 H354 0.930 . S
C345 C343 1.392 . S
C345 C344 1.401 . S
C345 H355 0.930 . S
C346 O324 1.262 . S
C346 O325 1.260 . S
C347 Tb283 2.833 1_554 S
C347 O322 1.251 . S
C347 O327 1.256 1_554 S
C347 C340 1.500 . S
H348 C331 0.930 . S
H349 C332 0.931 . S
H350 C333 0.930 . S
H351 C334 0.930 . S
H352 C341 0.930 . S
H353 C343 0.931 . S
H354 C344 0.930 . S
H355 C345 0.930 . S
Tb356 N387 2.660 . S
Tb356 N394 2.600 . S
Tb356 O400 2.546 . S
Tb356 O401 2.610 . S
Tb356 O403 2.320 . S
Tb356 O404 2.552 . S
Tb356 O405 2.413 . S
Tb356 O407 2.362 . S
Tb356 O408 2.421 1_455 S
Tb356 C420 2.833 . S
C357 C360 1.432 . S
C357 C361 1.414 . S
C357 N364 1.368 . S
C358 C360 1.417 . S
C358 C362 1.432 . S
C358 C370 1.410 . S
C359 C361 1.444 . S
C359 C362 1.317 . S
C359 H382 0.929 . S
C360 C357 1.432 . S
C360 C358 1.417 . S
C360 N368 1.360 . S
C361 C357 1.414 . S
C361 C359 1.444 . S
C361 C366 1.385 1_656 S
C362 C358 1.432 . S
C362 C359 1.317 . S
C362 H374 0.930 . S
C363 C365 1.392 . S
C363 C366 1.370 . S
C363 H375 0.931 . S
N364 C357 1.368 . S
N364 C365 1.315 1_656 S
N364 Tb367 2.605 . S
C365 C363 1.392 . S
C365 N364 1.315 1_454 S
C365 H372 0.930 . S
C366 C361 1.385 1_454 S
C366 C363 1.370 . S
C366 H385 0.930 . S
Tb367 N364 2.605 . S
Tb367 N368 2.660 . S
Tb367 O401 2.362 1_655 S
Tb367 O402 2.421 1_655 S
Tb367 O406 2.546 1_556 S
Tb367 O407 2.610 1_655 S
Tb367 O409 2.320 . S
Tb367 O410 2.552 . S
Tb367 O411 2.413 . S
Tb367 C431 2.833 1_556 S
N368 C360 1.360 . S
N368 Tb367 2.660 . S
N368 C369 1.305 . S
C369 N368 1.305 . S
C369 C371 1.407 . S
C369 H376 0.930 . S
C370 C358 1.410 . S
C370 C371 1.345 . S
C370 H378 0.930 . S
C371 C369 1.407 . S
C371 C370 1.345 . S
C371 H373 0.930 . S
H372 C365 0.930 . S
H373 C371 0.930 . S
H374 C362 0.930 . S
H375 C363 0.931 . S
H376 C369 0.930 . S
H377 C391 0.930 . S
H378 C370 0.930 . S
H379 C397 0.930 . S
H380 C388 0.930 . S
H381 C395 0.931 . S
H382 C359 0.929 . S
H383 C389 0.930 . S
H384 C422 0.930 . S
H385 C366 0.930 . S
H386 C421 0.929 . S
N387 Tb356 2.660 . S
N387 C388 1.305 . S
N387 C392 1.360 . S
C388 H380 0.930 . S
C388 N387 1.305 . S
C388 C391 1.407 . S
C389 H383 0.930 . S
C389 C390 1.410 . S
C389 C391 1.345 . S
C390 C389 1.410 . S
C390 C392 1.417 . S
C390 C422 1.432 . S
C391 H377 0.930 . S
C391 C388 1.407 . S
C391 C389 1.345 . S
C392 N387 1.360 . S
C392 C390 1.417 . S
C392 C396 1.432 . S
H393 C398 0.930 1_655 S
N394 Tb356 2.600 . S
N394 C396 1.359 . S
N394 C397 1.327 1_455 S
C395 H381 0.931 . S
C395 C397 1.392 . S
C395 C398 1.370 1_655 S
C396 C392 1.432 . S
C396 N394 1.359 . S
C396 C399 1.414 . S
C397 H379 0.930 . S
C397 N394 1.327 1_655 S
C397 C395 1.392 . S
C398 H393 0.930 1_455 S
C398 C395 1.370 1_455 S
C398 C399 1.385 . S
C399 C396 1.414 . S
C399 C398 1.385 . S
C399 C421 1.444 . S
O400 Tb356 2.546 . S
O400 C420 1.251 . S
O401 Tb356 2.610 . S
O401 Tb367 2.362 1_455 S
O401 C412 1.283 . S
O402 Tb367 2.421 1_455 S
O402 C419 1.262 . S
O403 Tb356 2.320 . S
O403 C419 1.260 . S
O404 Tb356 2.552 . S
O404 C412 1.243 . S
O405 Tb356 2.413 . S
O405 C420 1.256 . S
O406 Tb367 2.546 1_554 S
O406 C431 1.251 . S
O407 Tb356 2.362 . S
O407 Tb367 2.610 1_455 S
O407 C423 1.283 1_455 S
O408 Tb356 2.421 1_655 S
O408 C430 1.262 . S
O409 Tb367 2.320 . S
O409 C430 1.260 . S
O410 Tb367 2.552 . S
O410 C423 1.243 . S
O411 Tb367 2.413 . S
O411 C431 1.256 1_556 S
C412 O401 1.283 . S
C412 O404 1.243 . S
C413 C415 1.382 . S
C413 C417 1.393 . S
C413 C420 1.500 . S
C414 C415 1.400 . S
C414 C416 1.384 . S
C415 C413 1.382 . S
C415 C414 1.400 . S
C415 H432 0.930 . S
C416 C414 1.384 . S
C416 C418 1.392 . S
C416 H433 0.931 . S
C417 C413 1.393 . S
C417 C418 1.401 . S
C417 H434 0.930 . S
C418 C416 1.392 . S
C418 C417 1.401 . S
C418 H435 0.930 . S
C419 O402 1.262 . S
C419 O403 1.260 . S
C420 Tb356 2.833 . S
C420 O400 1.251 . S
C420 O405 1.256 . S
C420 C413 1.500 . S
C421 H386 0.929 . S
C421 C399 1.444 . S
C421 C422 1.317 . S
C422 H384 0.930 . S
C422 C390 1.432 . S
C422 C421 1.317 . S
C423 O407 1.283 1_655 S
C423 O410 1.243 . S
C424 C425 1.382 . S
C424 C428 1.393 . S
C424 C431 1.500 . S
C425 C424 1.382 . S
C425 C426 1.400 . S
C425 H436 0.930 . S
C426 C425 1.400 . S
C426 C427 1.384 . S
C427 C426 1.384 . S
C427 C429 1.392 . S
C427 H437 0.931 . S
C428 C424 1.393 . S
C428 C429 1.401 . S
C428 H438 0.930 . S
C429 C427 1.392 . S
C429 C428 1.401 . S
C429 H439 0.930 . S
C430 O408 1.262 . S
C430 O409 1.260 . S
C431 Tb367 2.833 1_554 S
C431 O406 1.251 . S
C431 O411 1.256 1_554 S
C431 C424 1.500 . S
H432 C415 0.930 . S
H433 C416 0.931 . S
H434 C417 0.930 . S
H435 C418 0.930 . S
H436 C425 0.930 . S
H437 C427 0.931 . S
H438 C428 0.930 . S
H439 C429 0.930 . S
C440 C441 1.369 . S
C440 C442 1.419 . S
C440 H444 0.930 . S
C441 C440 1.369 . S
C441 C450 1.429 . S
C442 C440 1.419 . S
C442 C443 1.363 . S
C442 H445 0.929 . S
C443 C442 1.363 . S
C443 C449 1.428 . S
H444 C440 0.930 . S
H445 C442 0.929 . S
S446 N447 1.613 . S
S446 N448 1.610 . S
N447 S446 1.613 . S
N447 C450 1.350 . S
N448 S446 1.610 . S
N448 C449 1.351 . S
C449 C443 1.428 . S
C449 N448 1.351 . S
C449 C450 1.434 . S
C450 C441 1.429 . S
C450 N447 1.350 . S
C450 C449 1.434 . S
C451 C452 1.369 . S
C451 C453 1.419 . S
C451 H455 0.930 . S
C452 C451 1.369 . S
C452 C461 1.429 . S
C453 C451 1.419 . S
C453 C454 1.363 . S
C453 H456 0.929 . S
C454 C453 1.363 . S
C454 C460 1.428 . S
H455 C451 0.930 . S
H456 C453 0.929 . S
S457 N458 1.613 . S
S457 N459 1.610 . S
N458 S457 1.613 . S
N458 C461 1.350 . S
N459 S457 1.610 . S
N459 C460 1.351 . S
C460 C454 1.428 . S
C460 N459 1.351 . S
C460 C461 1.434 . S
C461 C452 1.429 . S
C461 N458 1.350 . S
C461 C460 1.434 . S
C462 C463 1.369 . S
C462 C464 1.419 . S
C462 H466 0.930 . S
C463 C462 1.369 . S
C463 C472 1.429 . S
C464 C462 1.419 . S
C464 C465 1.363 . S
C464 H467 0.929 . S
C465 C464 1.363 . S
C465 C471 1.428 . S
H466 C462 0.930 . S
H467 C464 0.929 . S
S468 N469 1.613 . S
S468 N470 1.610 . S
N469 S468 1.613 . S
N469 C472 1.350 . S
N470 S468 1.610 . S
N470 C471 1.351 . S
C471 C465 1.428 . S
C471 N470 1.351 . S
C471 C472 1.434 . S
C472 C463 1.429 . S
C472 N469 1.350 . S
C472 C471 1.434 . S
C473 C474 1.369 . S
C473 C475 1.419 . S
C473 H477 0.930 . S
C474 C473 1.369 . S
C474 C483 1.429 . S
C475 C473 1.419 . S
C475 C476 1.363 . S
C475 H478 0.929 1_455 S
C476 C475 1.363 . S
C476 C482 1.428 . S
H477 C473 0.930 . S
H478 C475 0.929 1_655 S
S479 N480 1.613 . S
S479 N481 1.610 . S
N480 S479 1.613 . S
N480 C483 1.350 . S
N481 S479 1.610 . S
N481 C482 1.351 . S
C482 C476 1.428 . S
C482 N481 1.351 . S
C482 C483 1.434 . S
C483 C474 1.429 . S
C483 N480 1.350 . S
C483 C482 1.434 . S
C484 C485 1.369 1_545 S
C484 C486 1.419 . S
C484 H488 0.930 . S
C485 C484 1.369 1_565 S
C485 C494 1.429 . S
C486 C484 1.419 . S
C486 C487 1.363 1_544 S
C486 H489 0.929 . S
C487 C486 1.363 1_566 S
C487 C493 1.428 1_556 S
H488 C484 0.930 . S
H489 C486 0.929 . S
S490 N491 1.613 . S
S490 N492 1.604 1_554 S
N491 S490 1.613 . S
N491 C494 1.350 . S
N492 S490 1.604 1_556 S
N492 C493 1.348 1_556 S
C493 C487 1.428 1_554 S
C493 N492 1.348 1_554 S
C493 C494 1.434 . S
C494 C485 1.429 . S
C494 N491 1.350 . S
C494 C493 1.434 . S
C495 C496 1.369 . S
C495 C497 1.419 . S
C495 H499 0.930 . S
C496 C495 1.369 . S
C496 C505 1.429 . S
C497 C495 1.419 . S
C497 C498 1.363 1_554 S
C497 H500 0.929 1_554 S
C498 C497 1.363 1_556 S
C498 C504 1.428 1_556 S
H499 C495 0.930 . S
H500 C497 0.929 1_556 S
S501 N502 1.613 . S
S501 N503 1.610 . S
N502 S501 1.613 . S
N502 C505 1.350 . S
N503 S501 1.610 . S
N503 C504 1.351 . S
C504 C498 1.428 1_554 S
C504 N503 1.351 . S
C504 C505 1.434 . S
C505 C496 1.429 . S
C505 N502 1.350 . S
C505 C504 1.434 . S
C506 C507 1.369 . S
C506 C508 1.419 . S
C506 H510 0.930 . S
C507 C506 1.369 . S
C507 C516 1.429 . S
C508 C506 1.419 . S
C508 C509 1.363 1_554 S
C508 H511 0.929 1_554 S
C509 C508 1.363 1_556 S
C509 C515 1.428 1_556 S
H510 C506 0.930 . S
H511 C508 0.929 1_556 S
S512 N513 1.613 . S
S512 N514 1.610 . S
N513 S512 1.613 . S
N513 C516 1.350 . S
N514 S512 1.610 . S
N514 C515 1.351 . S
C515 C509 1.428 1_554 S
C515 N514 1.351 . S
C515 C516 1.434 . S
C516 C507 1.429 . S
C516 N513 1.350 . S
C516 C515 1.434 . S
C517 C518 1.369 . S
C517 C519 1.419 . S
C517 H521 0.930 . S
C518 C517 1.369 . S
C518 C527 1.429 1_655 S
C519 C517 1.419 . S
C519 C520 1.363 1_554 S
C519 H522 0.929 1_554 S
C520 C519 1.363 1_556 S
C520 C526 1.428 1_656 S
H521 C517 0.930 . S
H522 C519 0.929 1_556 S
S523 N524 1.613 . S
S523 N525 1.610 . S
N524 S523 1.613 . S
N524 C527 1.350 . S
N525 S523 1.610 . S
N525 C526 1.351 . S
C526 C520 1.428 1_454 S
C526 N525 1.351 . S
C526 C527 1.434 . S
C527 C518 1.429 1_455 S
C527 N524 1.350 . S
C527 C526 1.434 . S
C528 C529 1.369 . S
C528 C530 1.419 . S
C528 H532 0.930 . S
C529 C528 1.369 . S
C529 C538 1.429 . S
C530 C528 1.419 . S
C530 C531 1.335 1_455 S
C530 H533 0.929 . S
C531 C530 1.335 1_655 S
C531 C537 1.436 . S
H532 C528 0.930 . S
H533 C530 0.929 . S
S534 N535 1.606 1_655 S
S534 N536 1.610 . S
N535 S534 1.606 1_455 S
N535 C538 1.353 . S
N536 S534 1.610 . S
N536 C537 1.351 . S
C537 C531 1.436 . S
C537 N536 1.351 . S
C537 C538 1.434 1_655 S
C538 C529 1.429 . S
C538 N535 1.353 . S
C538 C537 1.434 1_455 S
C539 C540 1.369 . S
C539 C541 1.419 . S
C539 H543 0.930 . S
C540 C539 1.369 . S
C540 C549 1.429 . S
C541 C539 1.419 . S
C541 C542 1.338 1_545 S
C541 H544 0.929 . S
C542 C541 1.338 1_565 S
C542 C548 1.432 . S
H543 C539 0.930 . S
H544 C541 0.929 . S
S545 N546 1.613 1_565 S
S545 N547 1.610 1_556 S
N546 S545 1.613 1_545 S
N546 C549 1.350 1_556 S
N547 S545 1.610 1_554 S
N547 C548 1.351 . S
C548 C542 1.432 . S
C548 N547 1.351 . S
C548 C549 1.434 1_565 S
C549 C540 1.429 . S
C549 N546 1.350 1_554 S
C549 C548 1.434 1_545 S
C550 C551 1.369 . S
C550 C552 1.419 . S
C550 H554 0.930 . S
C551 C550 1.369 . S
C551 C560 1.429 . S
C552 C550 1.419 . S
C552 C553 1.363 . S
C552 H555 0.929 . S
C553 C552 1.363 . S
C553 C559 1.428 . S
H554 C550 0.930 . S
H555 C552 0.929 . S
S556 N557 1.613 . S
S556 N558 1.610 . S
N557 S556 1.613 . S
N557 C560 1.350 . S
N558 S556 1.610 . S
N558 C559 1.351 . S
C559 C553 1.428 . S
C559 N558 1.351 . S
C559 C560 1.434 . S
C560 C551 1.429 . S
C560 N557 1.350 . S
C560 C559 1.434 . S
C561 C562 1.369 . S
C561 C563 1.419 . S
C561 H565 0.930 . S
C562 C561 1.369 . S
C562 C571 1.429 . S
C563 C561 1.419 . S
C563 C564 1.363 . S
C563 H566 0.929 . S
C564 C563 1.363 . S
C564 C570 1.428 . S
H565 C561 0.930 . S
H566 C563 0.929 . S
S567 N568 1.613 . S
S567 N569 1.610 . S
N568 S567 1.613 . S
N568 C571 1.350 . S
N569 S567 1.610 . S
N569 C570 1.351 . S
C570 C564 1.428 . S
C570 N569 1.351 . S
C570 C571 1.434 . S
C571 C562 1.429 . S
C571 N568 1.350 . S
C571 C570 1.434 . S
C572 C573 1.369 . S
C572 C574 1.419 . S
C572 H576 0.930 . S
C573 C572 1.369 . S
C573 C582 1.428 . S
C574 C572 1.419 . S
C574 C575 1.363 1_655 S
C574 H577 0.929 . S
C575 C574 1.363 1_455 S
C575 C581 1.428 . S
H576 C572 0.930 . S
H577 C574 0.929 . S
S578 N579 1.613 . S
S578 N580 1.610 . S
N579 S578 1.613 . S
N579 C582 1.350 1_455 S
N580 S578 1.610 . S
N580 C581 1.351 . S
C581 C575 1.428 . S
C581 N580 1.351 . S
C581 C582 1.434 1_455 S
C582 C573 1.428 . S
C582 N579 1.350 1_655 S
C582 C581 1.434 1_655 S
C583 C584 1.369 . S
C583 C585 1.419 1_565 S
C583 H587 0.930 . S
C584 C583 1.369 . S
C584 C593 1.429 . S
C585 C583 1.419 1_545 S
C585 C586 1.363 . S
C585 H588 0.929 . S
C586 C585 1.363 . S
C586 C592 1.445 . S
H587 C583 0.930 . S
H588 C585 0.929 . S
S589 N590 1.613 . S
S589 N591 1.608 1_565 S
N590 S589 1.613 . S
N590 C593 1.350 . S
N591 S589 1.608 1_545 S
N591 C592 1.351 . S
C592 C586 1.445 . S
C592 N591 1.351 . S
C592 C593 1.415 1_545 S
C593 C584 1.429 . S
C593 N590 1.350 . S
C593 C592 1.415 1_565 S
C594 C595 1.369 . S
C594 C596 1.419 . S
C594 H598 0.930 . S
C595 C594 1.369 . S
C595 C604 1.429 . S
C596 C594 1.419 . S
C596 C597 1.363 . S
C596 H599 0.929 . S
C597 C596 1.363 . S
C597 C603 1.428 . S
H598 C594 0.930 . S
H599 C596 0.929 . S
S600 N601 1.613 . S
S600 N602 1.610 . S
N601 S600 1.613 . S
N601 C604 1.350 . S
N602 S600 1.610 . S
N602 C603 1.351 . S
C603 C597 1.428 . S
C603 N602 1.351 . S
C603 C604 1.434 . S
C604 C595 1.429 . S
C604 N601 1.350 . S
C604 C603 1.434 . S
C605 C606 1.369 . S
C605 C607 1.419 . S
C605 H609 0.930 . S
C606 C605 1.369 . S
C606 C615 1.429 . S
C607 C605 1.419 . S
C607 C608 1.363 . S
C607 H610 0.929 . S
C608 C607 1.363 . S
C608 C614 1.428 . S
H609 C605 0.930 . S
H610 C607 0.929 . S
S611 N612 1.613 . S
S611 N613 1.610 . S
N612 S611 1.613 . S
N612 C615 1.350 . S
N613 S611 1.610 . S
N613 C614 1.351 . S
C614 C608 1.428 . S
C614 N613 1.351 . S
C614 C615 1.434 . S
C615 C606 1.429 . S
C615 N612 1.350 . S
C615 C614 1.434 . S
C616 C617 1.369 . S
C616 C618 1.419 . S
C616 H620 0.930 . S
C617 C616 1.369 . S
C617 C626 1.429 . S
C618 C616 1.419 . S
C618 C619 1.363 . S
C618 H621 0.929 . S
C619 C618 1.363 . S
C619 C625 1.428 . S
H620 C616 0.930 . S
H621 C618 0.929 . S
S622 N623 1.613 . S
S622 N624 1.610 . S
N623 S622 1.613 . S
N623 C626 1.350 1_554 S
N624 S622 1.610 . S
N624 C625 1.351 1_554 S
C625 C619 1.428 . S
C625 N624 1.351 1_556 S
C625 C626 1.434 . S
C626 C617 1.429 . S
C626 N623 1.350 1_556 S
C626 C625 1.434 . S
C627 C628 1.369 . S
C627 C629 1.419 . S
C627 H631 0.930 . S
C628 C627 1.369 . S
C628 C637 1.429 . S
C629 C627 1.419 . S
C629 C630 1.363 . S
C629 H632 0.929 . S
C630 C629 1.363 . S
C630 C636 1.428 . S
H631 C627 0.930 . S
H632 C629 0.929 . S
S633 N634 1.613 . S
S633 N635 1.610 . S
N634 S633 1.613 . S
N634 C637 1.350 1_554 S
N635 S633 1.610 . S
N635 C636 1.351 1_554 S
C636 C630 1.428 . S
C636 N635 1.351 1_556 S
C636 C637 1.434 . S
C637 C628 1.429 . S
C637 N634 1.350 1_556 S
C637 C636 1.434 . S
C638 C639 1.369 . S
C638 C640 1.419 . S
C638 H642 0.930 . S
C639 C638 1.369 . S
C639 C648 1.429 . S
C640 C638 1.419 . S
C640 C641 1.363 . S
C640 H643 0.929 . S
C641 C640 1.363 . S
C641 C647 1.428 . S
H642 C638 0.930 . S
H643 C640 0.929 . S
S644 N645 1.613 . S
S644 N646 1.610 . S
N645 S644 1.613 . S
N645 C648 1.350 1_554 S
N646 S644 1.610 . S
N646 C647 1.351 1_554 S
C647 C641 1.428 . S
C647 N646 1.351 1_556 S
C647 C648 1.434 . S
C648 C639 1.429 . S
C648 N645 1.350 1_556 S
C648 C647 1.434 . S
C649 C650 1.369 . S
C649 C651 1.419 . S
C649 H653 0.930 . S
C650 C649 1.369 . S
C650 C659 1.429 . S
C651 C649 1.419 . S
C651 C652 1.363 . S
C651 H654 0.929 . S
C652 C651 1.363 . S
C652 C658 1.428 . S
H653 C649 0.930 . S
H654 C651 0.929 . S
S655 N656 1.613 . S
S655 N657 1.610 . S
N656 S655 1.613 . S
N656 C659 1.350 1_554 S
N657 S655 1.610 . S
N657 C658 1.351 1_554 S
C658 C652 1.428 . S
C658 N657 1.351 1_556 S
C658 C659 1.434 . S
C659 C650 1.429 . S
C659 N656 1.350 1_556 S
C659 C658 1.434 . S
C660 C661 1.369 . S
C660 C662 1.419 . S
C660 H664 0.930 . S
C661 C660 1.369 . S
C661 C670 1.429 . S
C662 C660 1.419 . S
C662 C663 1.363 . S
C662 H665 0.929 . S
C663 C662 1.363 . S
C663 C669 1.428 . S
H664 C660 0.930 . S
H665 C662 0.929 . S
S666 N667 1.613 . S
S666 N668 1.610 . S
N667 S666 1.613 . S
N667 C670 1.350 . S
N668 S666 1.610 . S
N668 C669 1.351 . S
C669 C663 1.428 . S
C669 N668 1.351 . S
C669 C670 1.434 . S
C670 C661 1.429 . S
C670 N667 1.350 . S
C670 C669 1.434 . S
C671 C672 1.369 1_545 S
C671 C673 1.419 . S
C671 H675 0.930 . S
C672 C671 1.369 1_565 S
C672 C681 1.429 . S
C673 C671 1.419 . S
C673 C674 1.363 1_545 S
C673 H676 0.929 . S
C674 C673 1.363 1_565 S
C674 C680 1.428 . S
H675 C671 0.930 . S
H676 C673 0.929 . S
S677 N678 1.613 . S
S677 N679 1.610 . S
N678 S677 1.613 . S
N678 C681 1.350 . S
N679 S677 1.610 . S
N679 C680 1.351 . S
C680 C674 1.428 . S
C680 N679 1.351 . S
C680 C681 1.434 . S
C681 C672 1.429 . S
C681 N678 1.350 . S
C681 C680 1.434 . S
C682 C683 1.369 . S
C682 C684 1.419 . S
C682 H686 0.930 . S
C683 C682 1.369 . S
C683 C692 1.429 . S
C684 C682 1.419 . S
C684 C685 1.363 . S
C684 H687 0.929 . S
C685 C684 1.363 . S
C685 C691 1.428 . S
H686 C682 0.930 . S
H687 C684 0.929 . S
S688 N689 1.613 . S
S688 N690 1.610 . S
N689 S688 1.613 . S
N689 C692 1.350 . S
N690 S688 1.610 . S
N690 C691 1.351 . S
C691 C685 1.428 . S
C691 N690 1.351 . S
C691 C692 1.434 . S
C692 C683 1.429 . S
C692 N689 1.350 . S
C692 C691 1.434 . S
C693 C694 1.369 . S
C693 C695 1.419 . S
C693 H697 0.930 . S
C694 C693 1.369 . S
C694 C703 1.429 . S
C695 C693 1.419 . S
C695 C696 1.363 . S
C695 H698 0.929 . S
C696 C695 1.363 . S
C696 C702 1.428 . S
H697 C693 0.930 . S
H698 C695 0.929 . S
S699 N700 1.613 . S
S699 N701 1.610 . S
N700 S699 1.613 . S
N700 C703 1.350 . S
N701 S699 1.610 . S
N701 C702 1.351 . S
C702 C696 1.428 . S
C702 N701 1.351 . S
C702 C703 1.434 . S
C703 C694 1.429 . S
C703 N700 1.350 . S
C703 C702 1.434 . S
C441 C82 1.804 . S
C443 C178 2.078 . S
C454 C262 2.090 . S
C452 C95 1.815 . S
C465 C328 1.993 . S
C463 C56 1.894 . S
C476 C412 1.991 . S
C474 C69 1.872 . S
C487 C167 2.078 1_565 S
C485 C30 1.751 . S
C496 C43 1.749 . S
C498 C251 2.086 . S
C507 C4 1.816 . S
C509 C339 1.998 . S
C518 C17 1.813 . S
C520 C423 1.987 . S
C531 C174 0.956 . S
C529 C74 0.883 . S
C542 C258 0.923 . S
C540 C87 0.851 . S
C553 C330 0.871 . S
C551 C100 0.834 . S
C562 C61 0.870 . S
C564 C414 0.912 . S
C573 C22 0.874 . S
C575 C162 0.934 . S
C586 C246 0.901 . S
C584 C35 0.861 . S
C597 C342 0.876 . S
C595 C48 0.830 . S
C606 C9 0.870 . S
C608 C426 0.909 . S
C617 C73 2.099 . S
C619 C171 2.203 . S
C628 C86 2.078 . S
C630 C255 2.183 . S
C641 C335 2.273 . S
C639 C99 1.999 . S
C652 C419 2.292 . S
C650 C60 2.019 . S
C661 C21 2.095 . S
C663 C160 2.202 . S
C674 C244 2.182 . S
C672 C34 2.079 . S
C685 C346 2.270 . S
C683 C47 2.003 . S
C694 C8 2.021 . S
C696 C430 2.293 . S
