# Generated by pormake.
# Topology eea, (3,6)-cn, num edge types: 1
# Building blocks:
#     Node 0, Type 0, BuildingBlock: CUQRIR_clean_linker_1, # of connection points: 3
#     Node 1, Type 0, BuildingBlock: CUQRIR_clean_linker_1, # of connection points: 3
#     Node 2, Type 0, BuildingBlock: CUQRIR_clean_linker_1, # of connection points: 3
#     Node 3, Type 0, BuildingBlock: CUQRIR_clean_linker_1, # of connection points: 3
#     Node 4, Type 0, BuildingBlock: CUQRIR_clean_linker_1, # of connection points: 3
#     Node 5, Type 0, BuildingBlock: CUQRIR_clean_linker_1, # of connection points: 3
#     Node 6, Type 0, BuildingBlock: CUQRIR_clean_linker_1, # of connection points: 3
#     Node 7, Type 0, BuildingBlock: CUQRIR_clean_linker_1, # of connection points: 3
#     Node 8, Type 0, BuildingBlock: CUQRIR_clean_linker_1, # of connection points: 3
#     Node 9, Type 0, BuildingBlock: CUQRIR_clean_linker_1, # of connection points: 3
#     Node 10, Type 0, BuildingBlock: CUQRIR_clean_linker_1, # of connection points: 3
#     Node 11, Type 0, BuildingBlock: CUQRIR_clean_linker_1, # of connection points: 3
#     Node 12, Type 0, BuildingBlock: CUQRIR_clean_linker_1, # of connection points: 3
#     Node 13, Type 0, BuildingBlock: CUQRIR_clean_linker_1, # of connection points: 3
#     Node 14, Type 0, BuildingBlock: CUQRIR_clean_linker_1, # of connection points: 3
#     Node 15, Type 0, BuildingBlock: CUQRIR_clean_linker_1, # of connection points: 3
#     Node 16, Type 0, BuildingBlock: CUQRIR_clean_linker_1, # of connection points: 3
#     Node 17, Type 0, BuildingBlock: CUQRIR_clean_linker_1, # of connection points: 3
#     Node 18, Type 1, BuildingBlock: NUHQIS_clean_sbu_0, # of connection points: 6
#     Node 19, Type 1, BuildingBlock: NUHQIS_clean_sbu_0, # of connection points: 6
#     Node 20, Type 1, BuildingBlock: NUHQIS_clean_sbu_0, # of connection points: 6
#     Node 21, Type 1, BuildingBlock: NUHQIS_clean_sbu_0, # of connection points: 6
#     Node 22, Type 1, BuildingBlock: NUHQIS_clean_sbu_0, # of connection points: 6
#     Node 23, Type 1, BuildingBlock: NUHQIS_clean_sbu_0, # of connection points: 6
#     Node 24, Type 1, BuildingBlock: NUHQIS_clean_sbu_0, # of connection points: 6
#     Node 25, Type 1, BuildingBlock: NUHQIS_clean_sbu_0, # of connection points: 6
#     Node 26, Type 1, BuildingBlock: NUHQIS_clean_sbu_0, # of connection points: 6
#     Edge 27, Type (0, 1), BuildingBlock: CIFDUS_clean_linker_0, # of connection points: 2
#     Edge 28, Type (0, 1), BuildingBlock: CIFDUS_clean_linker_0, # of connection points: 2
#     Edge 29, Type (0, 1), BuildingBlock: CIFDUS_clean_linker_0, # of connection points: 2
#     Edge 30, Type (0, 1), BuildingBlock: CIFDUS_clean_linker_0, # of connection points: 2
#     Edge 31, Type (0, 1), BuildingBlock: CIFDUS_clean_linker_0, # of connection points: 2
#     Edge 32, Type (0, 1), BuildingBlock: CIFDUS_clean_linker_0, # of connection points: 2
#     Edge 33, Type (0, 1), BuildingBlock: CIFDUS_clean_linker_0, # of connection points: 2
#     Edge 34, Type (0, 1), BuildingBlock: CIFDUS_clean_linker_0, # of connection points: 2
#     Edge 35, Type (0, 1), BuildingBlock: CIFDUS_clean_linker_0, # of connection points: 2
#     Edge 36, Type (0, 1), BuildingBlock: CIFDUS_clean_linker_0, # of connection points: 2
#     Edge 37, Type (0, 1), BuildingBlock: CIFDUS_clean_linker_0, # of connection points: 2
#     Edge 38, Type (0, 1), BuildingBlock: CIFDUS_clean_linker_0, # of connection points: 2
#     Edge 39, Type (0, 1), BuildingBlock: CIFDUS_clean_linker_0, # of connection points: 2
#     Edge 40, Type (0, 1), BuildingBlock: CIFDUS_clean_linker_0, # of connection points: 2
#     Edge 41, Type (0, 1), BuildingBlock: CIFDUS_clean_linker_0, # of connection points: 2
#     Edge 42, Type (0, 1), BuildingBlock: CIFDUS_clean_linker_0, # of connection points: 2
#     Edge 43, Type (0, 1), BuildingBlock: CIFDUS_clean_linker_0, # of connection points: 2
#     Edge 44, Type (0, 1), BuildingBlock: CIFDUS_clean_linker_0, # of connection points: 2
#     Edge 45, Type (0, 1), BuildingBlock: CIFDUS_clean_linker_0, # of connection points: 2
#     Edge 46, Type (0, 1), BuildingBlock: CIFDUS_clean_linker_0, # of connection points: 2
#     Edge 47, Type (0, 1), BuildingBlock: CIFDUS_clean_linker_0, # of connection points: 2
#     Edge 48, Type (0, 1), BuildingBlock: CIFDUS_clean_linker_0, # of connection points: 2
#     Edge 49, Type (0, 1), BuildingBlock: CIFDUS_clean_linker_0, # of connection points: 2
#     Edge 50, Type (0, 1), BuildingBlock: CIFDUS_clean_linker_0, # of connection points: 2
#     Edge 51, Type (0, 1), BuildingBlock: CIFDUS_clean_linker_0, # of connection points: 2
#     Edge 52, Type (0, 1), BuildingBlock: CIFDUS_clean_linker_0, # of connection points: 2
#     Edge 53, Type (0, 1), BuildingBlock: CIFDUS_clean_linker_0, # of connection points: 2
#     Edge 54, Type (0, 1), BuildingBlock: CIFDUS_clean_linker_0, # of connection points: 2
#     Edge 55, Type (0, 1), BuildingBlock: CIFDUS_clean_linker_0, # of connection points: 2
#     Edge 56, Type (0, 1), BuildingBlock: CIFDUS_clean_linker_0, # of connection points: 2
#     Edge 57, Type (0, 1), BuildingBlock: CIFDUS_clean_linker_0, # of connection points: 2
#     Edge 58, Type (0, 1), BuildingBlock: CIFDUS_clean_linker_0, # of connection points: 2
#     Edge 59, Type (0, 1), BuildingBlock: CIFDUS_clean_linker_0, # of connection points: 2
#     Edge 60, Type (0, 1), BuildingBlock: CIFDUS_clean_linker_0, # of connection points: 2
#     Edge 61, Type (0, 1), BuildingBlock: CIFDUS_clean_linker_0, # of connection points: 2
#     Edge 62, Type (0, 1), BuildingBlock: CIFDUS_clean_linker_0, # of connection points: 2
#     Edge 63, Type (0, 1), BuildingBlock: CIFDUS_clean_linker_0, # of connection points: 2
#     Edge 64, Type (0, 1), BuildingBlock: CIFDUS_clean_linker_0, # of connection points: 2
#     Edge 65, Type (0, 1), BuildingBlock: CIFDUS_clean_linker_0, # of connection points: 2
#     Edge 66, Type (0, 1), BuildingBlock: CIFDUS_clean_linker_0, # of connection points: 2
#     Edge 67, Type (0, 1), BuildingBlock: CIFDUS_clean_linker_0, # of connection points: 2
#     Edge 68, Type (0, 1), BuildingBlock: CIFDUS_clean_linker_0, # of connection points: 2
#     Edge 69, Type (0, 1), BuildingBlock: CIFDUS_clean_linker_0, # of connection points: 2
#     Edge 70, Type (0, 1), BuildingBlock: CIFDUS_clean_linker_0, # of connection points: 2
#     Edge 71, Type (0, 1), BuildingBlock: CIFDUS_clean_linker_0, # of connection points: 2
#     Edge 72, Type (0, 1), BuildingBlock: CIFDUS_clean_linker_0, # of connection points: 2
#     Edge 73, Type (0, 1), BuildingBlock: CIFDUS_clean_linker_0, # of connection points: 2
#     Edge 74, Type (0, 1), BuildingBlock: CIFDUS_clean_linker_0, # of connection points: 2
#     Edge 75, Type (0, 1), BuildingBlock: CIFDUS_clean_linker_0, # of connection points: 2
#     Edge 76, Type (0, 1), BuildingBlock: CIFDUS_clean_linker_0, # of connection points: 2
#     Edge 77, Type (0, 1), BuildingBlock: CIFDUS_clean_linker_0, # of connection points: 2
#     Edge 78, Type (0, 1), BuildingBlock: CIFDUS_clean_linker_0, # of connection points: 2
#     Edge 79, Type (0, 1), BuildingBlock: CIFDUS_clean_linker_0, # of connection points: 2
#     Edge 80, Type (0, 1), BuildingBlock: CIFDUS_clean_linker_0, # of connection points: 2
# Relax obj value: 0.107
# Max RMSD: 0.256
# Mean RMSD: 0.187
data_MOF--net-eea--node1-NUHQIS_clean_sbu_0--node2-CUQRIR_clean_linker_1--edge1-CIFDUS_clean_linker_0
_symmetry_space_group_name_H-M    P1
_symmetry_Int_Tables_number       1
_symmetry_cell_setting            triclinic
loop_
_symmetry_equiv_pos_as_xyz
'x, y, z'
_cell_length_a     42.705148
_cell_length_b     43.739812
_cell_length_c     58.427078
_cell_angle_alpha  85.730818
_cell_angle_beta   94.096717
_cell_angle_gamma 120.29733
loop_
_atom_site_label
_atom_site_type_symbol
_atom_site_fract_x
_atom_site_fract_y
_atom_site_fract_z
_atom_type_partial_charge
C0 C 0.22265 0.12072 0.40367 0.0
N1 N 0.23222 0.14762 0.41781 0.0
N2 N 0.23651 0.10005 0.41193 0.0
C3 C 0.19927 0.11412 0.38201 0.0
C4 C 0.25511 0.11544 0.43147 0.0
N5 N 0.25287 0.14455 0.43492 0.0
C6 C 0.27418 0.10127 0.44781 0.0
H7 H 0.1704 0.0968 0.38632 0.0
H8 H 0.20573 0.10048 0.36949 0.0
H9 H 0.20281 0.13935 0.37387 0.0
H10 H 0.30367 0.12075 0.44859 0.0
H11 H 0.27048 0.07581 0.44251 0.0
H12 H 0.26405 0.09774 0.46533 0.0
C13 C 0.90928 0.14862 0.41648 0.0
N14 N 0.92719 0.17262 0.43299 0.0
N15 N 0.87533 0.12434 0.42282 0.0
C16 C 0.92455 0.14901 0.39391 0.0
C17 C 0.87284 0.13451 0.44358 0.0
N18 N 0.90404 0.1641 0.44967 0.0
C19 C 0.83999 0.11549 0.45812 0.0
H20 H 0.90283 0.13609 0.38051 0.0
H21 H 0.93933 0.13413 0.39624 0.0
H22 H 0.94361 0.17654 0.38775 0.0
H23 H 0.81942 0.08955 0.45136 0.0
H24 H 0.82725 0.13213 0.45858 0.0
H25 H 0.84833 0.11156 0.47602 0.0
C26 C 0.88313 0.77752 0.40998 0.0
N27 N 0.90291 0.77006 0.42625 0.0
N28 N 0.85198 0.77186 0.41857 0.0
C29 C 0.89242 0.78711 0.3851 0.0
C30 C 0.85317 0.76031 0.44056 0.0
N31 N 0.88388 0.75881 0.44515 0.0
C32 C 0.82576 0.75311 0.45809 0.0
H33 H 0.90868 0.81635 0.38261 0.0
H34 H 0.86741 0.77752 0.37393 0.0
H35 H 0.90852 0.77554 0.37975 0.0
H36 H 0.80389 0.72497 0.4575 0.0
H37 H 0.81343 0.77009 0.45439 0.0
H38 H 0.83837 0.75784 0.4757 0.0
C39 C 0.09488 0.20482 0.64305 0.0
N40 N 0.12628 0.22216 0.63178 0.0
N41 N 0.07378 0.21923 0.63687 0.0
C42 C 0.08497 0.17384 0.65993 0.0
C43 C 0.09352 0.24605 0.62168 0.0
N44 N 0.12559 0.24804 0.6188 0.0
C45 C 0.08115 0.26984 0.6094 0.0
H46 H 0.0606 0.16677 0.6695 0.0
H47 H 0.10814 0.17976 0.67225 0.0
H48 H 0.07911 0.15033 0.65051 0.0
H49 H 0.06327 0.27368 0.62029 0.0
H50 H 0.06548 0.25723 0.59349 0.0
H51 H 0.10444 0.29605 0.60449 0.0
C52 C 0.79759 0.9085 0.64904 0.0
N53 N 0.78523 0.88093 0.63505 0.0
N54 N 0.79113 0.93389 0.63913 0.0
C55 C 0.81891 0.9122 0.67132 0.0
C56 C 0.77451 0.92089 0.61867 0.0
N57 N 0.77115 0.88892 0.61615 0.0
C58 C 0.76097 0.9391 0.60124 0.0
H59 H 0.83752 0.9405 0.67494 0.0
H60 H 0.83494 0.89868 0.67096 0.0
H61 H 0.79976 0.89975 0.68549 0.0
H62 H 0.7823 0.95472 0.58864 0.0
H63 H 0.75475 0.9573 0.60957 0.0
H64 H 0.73631 0.91945 0.59173 0.0
C65 C 0.1244 0.91987 0.65343 0.0
N66 N 0.10668 0.89169 0.63976 0.0
N67 N 0.15724 0.94372 0.6451 0.0
C68 C 0.10995 0.924 0.67505 0.0
C69 C 0.15915 0.92895 0.62609 0.0
N70 N 0.12868 0.89724 0.62298 0.0
C71 C 0.19088 0.94517 0.61058 0.0
H72 H 0.09233 0.93558 0.67045 0.0
H73 H 0.13205 0.94199 0.68688 0.0
H74 H 0.09355 0.8979 0.68413 0.0
H75 H 0.20584 0.93051 0.61348 0.0
H76 H 0.21009 0.97342 0.61383 0.0
H77 H 0.18104 0.94264 0.59234 0.0
C78 C 0.87343 0.44553 0.7423 0.0
N79 N 0.88642 0.47352 0.75595 0.0
N80 N 0.88235 0.42135 0.75142 0.0
C81 C 0.85471 0.44324 0.71914 0.0
C82 C 0.90152 0.43586 0.77104 0.0
N83 N 0.90427 0.46761 0.77364 0.0
C84 C 0.91538 0.41802 0.78858 0.0
H85 H 0.825 0.43002 0.72123 0.0
H86 H 0.8601 0.42759 0.70754 0.0
H87 H 0.86397 0.47009 0.71111 0.0
H88 H 0.9431 0.42489 0.7842 0.0
H89 H 0.89764 0.38879 0.78871 0.0
H90 H 0.91694 0.42713 0.80606 0.0
C91 C 0.57488 0.477 0.75267 0.0
N92 N 0.5963 0.50125 0.76841 0.0
N93 N 0.54398 0.45093 0.76209 0.0
C94 C 0.58192 0.48082 0.72743 0.0
C95 C 0.54708 0.46023 0.78405 0.0
N96 N 0.57853 0.49083 0.78789 0.0
C97 C 0.51981 0.43892 0.8021 0.0
H98 H 0.59896 0.5091 0.72185 0.0
H99 H 0.55601 0.46915 0.71707 0.0
H100 H 0.59622 0.46647 0.72399 0.0
H101 H 0.50522 0.41027 0.79869 0.0
H102 H 0.49974 0.44796 0.80193 0.0
H103 H 0.53318 0.44277 0.81947 0.0
C104 C 0.57295 0.13914 0.75493 0.0
N105 N 0.58738 0.12293 0.76891 0.0
N106 N 0.54359 0.13641 0.76435 0.0
C107 C 0.58949 0.16055 0.73322 0.0
C108 C 0.54071 0.11818 0.78456 0.0
N109 N 0.56753 0.11025 0.78742 0.0
C110 C 0.51176 0.1082 0.80153 0.0
H111 H 0.61951 0.17334 0.73448 0.0
H112 H 0.58198 0.18133 0.72954 0.0
H113 H 0.57937 0.14262 0.71865 0.0
H114 H 0.50489 0.08279 0.81096 0.0
H115 H 0.48677 0.10591 0.7928 0.0
H116 H 0.52206 0.12909 0.81426 0.0
C117 C 0.77062 0.5564 0.981 0.0
N118 N 0.80005 0.57232 0.96785 0.0
N119 N 0.74389 0.56148 0.97117 0.0
C120 C 0.76657 0.53295 1.00212 0.0
C121 C 0.75786 0.58073 0.95154 0.0
N122 N 0.79195 0.58712 0.94949 0.0
C123 C 0.73885 0.59454 0.93491 0.0
H124 H 0.73767 0.51282 1.00466 0.0
H125 H 0.77715 0.54954 1.01735 0.0
H126 H 0.78223 0.51922 1.00091 0.0
H127 H 0.71892 0.59827 0.94372 0.0
H128 H 0.72413 0.57506 0.92142 0.0
H129 H 0.75867 0.62006 0.92645 0.0
C130 C 0.44719 0.23341 0.98873 0.0
N131 N 0.44505 0.21093 0.97305 0.0
N132 N 0.43517 0.25514 0.97936 0.0
C133 C 0.45804 0.23217 1.01371 0.0
C134 C 0.42538 0.24489 0.95745 0.0
N135 N 0.43093 0.21783 0.95371 0.0
C136 C 0.41299 0.26304 0.93914 0.0
H137 H 0.44445 0.24159 0.02445 0.0
H138 H 0.48782 0.24963 1.01609 0.0
H139 H 0.45094 0.20481 1.01967 0.0
H140 H 0.42549 0.29167 0.94221 0.0
H141 H 0.38307 0.25069 0.93946 0.0
H142 H 0.41995 0.26018 0.9218 0.0
C143 C 0.75856 0.24328 0.97998 0.0
N144 N 0.74202 0.21508 0.96634 0.0
N145 N 0.79078 0.26862 0.97156 0.0
C146 C 0.74432 0.24487 1.00244 0.0
C147 C 0.79326 0.25469 0.95224 0.0
N148 N 0.76375 0.22224 0.9491 0.0
C149 C 0.82405 0.27314 0.93605 0.0
H150 H 0.72712 0.25721 0.99932 0.0
H151 H 0.76695 0.261 1.01467 0.0
H152 H 0.72747 0.21785 1.01026 0.0
H153 H 0.84523 0.26628 0.94161 0.0
H154 H 0.83628 0.30233 0.93611 0.0
H155 H 0.81493 0.26464 0.91823 0.0
C156 C 0.55804 0.7824 0.0745 0.0
N157 N 0.5725 0.81288 0.08593 0.0
N158 N 0.56692 0.75932 0.08563 0.0
C159 C 0.5344 0.7746 0.05291 0.0
C160 C 0.58738 0.77682 0.10409 0.0
N161 N 0.59104 0.80935 0.1042 0.0
C162 C 0.60285 0.76169 0.12247 0.0
H163 H 0.50558 0.76121 0.05762 0.0
H164 H 0.53765 0.75662 0.04217 0.0
H165 H 0.54092 0.79939 0.04271 0.0
H166 H 0.60722 0.74121 0.11559 0.0
H167 H 0.58344 0.74921 0.1365 0.0
H168 H 0.62889 0.78289 0.12982 0.0
C169 C 0.23731 0.78061 0.09459 0.0
N170 N 0.25393 0.8102 0.10708 0.0
N171 N 0.20796 0.75433 0.10532 0.0
C172 C 0.25156 0.776 0.07304 0.0
C173 C 0.20741 0.76871 0.12488 0.0
N174 N 0.23554 0.80238 0.12618 0.0
C175 C 0.17795 0.7507 0.14204 0.0
H176 H 0.24074 0.78522 0.05795 0.0
H177 H 0.24279 0.74772 0.07106 0.0
H178 H 0.28164 0.79172 0.07326 0.0
H179 H 0.18635 0.73708 0.15577 0.0
H180 H 0.15202 0.73075 0.13381 0.0
H181 H 0.17341 0.77023 0.15013 0.0
C182 C 0.24867 0.49055 0.09155 0.0
N183 N 0.26342 0.4756 0.10649 0.0
N184 N 0.2189 0.4879 0.10023 0.0
C185 C 0.26023 0.50335 0.06724 0.0
C186 C 0.21555 0.47029 0.12074 0.0
N187 N 0.24256 0.46274 0.12456 0.0
C188 C 0.18539 0.45965 0.13683 0.0
H189 H 0.28048 0.53209 0.06703 0.0
H190 H 0.23688 0.4995 0.05569 0.0
H191 H 0.27268 0.48914 0.06038 0.0
H192 H 0.16389 0.43192 0.1338 0.0
H193 H 0.1734 0.47705 0.13395 0.0
H194 H 0.19553 0.46082 0.15496 0.0
C195 C 0.44357 0.9062 0.31843 0.0
N196 N 0.47134 0.92115 0.30386 0.0
N197 N 0.41525 0.90938 0.30936 0.0
C198 C 0.44238 0.8849 0.34016 0.0
C199 C 0.42658 0.9265 0.28875 0.0
N200 N 0.46056 0.93353 0.28539 0.0
C201 C 0.40451 0.93634 0.27184 0.0
H202 H 0.4141 0.86459 0.34419 0.0
H203 H 0.45432 0.903 0.35462 0.0
H204 H 0.45834 0.87152 0.33873 0.0
H205 H 0.42234 0.96141 0.26212 0.0
H206 H 0.38409 0.93929 0.28068 0.0
H207 H 0.39015 0.91511 0.25937 0.0
C208 C 0.09599 0.56112 0.32552 0.0
N209 N 0.09215 0.53679 0.31071 0.0
N210 N 0.08844 0.58532 0.31471 0.0
C211 C 0.10329 0.55922 0.35103 0.0
C212 C 0.07951 0.57471 0.29286 0.0
N213 N 0.0814 0.54516 0.29049 0.0
C214 C 0.0713 0.5945 0.27338 0.0
H215 H 0.0899 0.57046 0.36033 0.0
H216 H 0.13293 0.57493 0.35491 0.0
H217 H 0.09336 0.53142 0.3574 0.0
H218 H 0.08638 0.62342 0.27598 0.0
H219 H 0.0418 0.58513 0.27263 0.0
H220 H 0.07848 0.58964 0.25668 0.0
C221 C 0.44445 0.59756 0.31097 0.0
N222 N 0.42742 0.5685 0.29805 0.0
N223 N 0.47288 0.62459 0.2999 0.0
C224 C 0.43596 0.59824 0.33545 0.0
C225 C 0.47278 0.61077 0.27988 0.0
N226 N 0.44547 0.57671 0.27884 0.0
C227 C 0.49799 0.631 0.26066 0.0
H228 H 0.41635 0.60777 0.33564 0.0
H229 H 0.46086 0.61641 0.34545 0.0
H230 H 0.42374 0.57136 0.34394 0.0
H231 H 0.52211 0.62764 0.2629 0.0
H232 H 0.50714 0.65967 0.26069 0.0
H233 H 0.4845 0.62072 0.24377 0.0
Tb234 Tb 0.48095 0.98015 1.00217 0.0
Eu235 Eu 0.51065 0.02257 0.05003 0.0
C236 C 0.50918 0.95068 0.04307 0.0
C237 C 0.42827 0.95824 0.04369 0.0
C238 C 0.47996 0.96334 0.94167 0.0
C239 C 0.49723 0.95465 0.90501 0.0
C240 C 0.4819 0.94112 0.92644 0.0
C241 C 0.4938 0.99931 0.93537 0.0
C242 C 0.5088 1.01276 0.91397 0.0
C243 C 0.51086 0.99068 0.89852 0.0
C244 C 0.46572 0.9497 0.96466 0.0
O245 O 0.47918 0.0285 0.99337 0.0
O246 O 0.48391 0.04947 0.02937 0.0
O247 O 0.54918 0.05917 0.0235 0.0
O248 O 0.54003 0.01526 1.00033 0.0
C249 C 0.47695 0.04977 1.00707 0.0
O250 O 0.50539 0.04888 0.07846 0.0
O251 O 0.5524 0.04245 0.07773 0.0
O252 O 0.53044 0.98343 0.04909 0.0
O253 O 0.48171 0.94287 0.02855 0.0
O254 O 0.43162 0.96144 1.02122 0.0
O255 O 0.45639 0.97468 0.05792 0.0
C256 C 0.55916 0.04819 1.00671 0.0
O257 O 0.48918 0.94935 0.98004 0.0
O258 O 0.44684 0.96222 0.97261 0.0
C259 C 0.52597 0.03329 0.11341 0.0
C260 C 0.51261 0.99833 0.15723 0.0
C261 C 0.54739 0.02671 0.15213 0.0
C262 C 0.55398 0.04405 0.13037 0.0
C263 C 0.49129 1.00501 0.11848 0.0
C264 C 0.48463 0.98795 0.14015 0.0
C265 C 0.53318 0.05004 0.09012 0.0
H266 H 0.49865 0.93698 0.89364 0.0
H267 H 0.47185 0.91339 0.9312 0.0
H268 H 0.49303 0.01707 0.94699 0.0
H269 H 0.5182 0.04042 0.90944 0.0
H270 H 0.56962 0.03516 0.16481 0.0
H271 H 0.58103 0.06555 0.12669 0.0
H272 H 0.46922 0.99589 0.10565 0.0
H273 H 0.45733 0.96677 0.14355 0.0
Tb274 Tb 0.01979 0.52934 1.00382 0.0
Eu275 Eu 0.98676 0.5037 0.05556 0.0
C276 C 0.05599 0.57947 0.04573 0.0
C277 C 0.05291 0.49721 0.04002 0.0
C278 C 0.02049 0.54128 0.94068 0.0
C279 C 0.01625 0.55987 0.90091 0.0
C280 C 0.03547 0.56556 0.92206 0.0
C281 C 0.98584 0.5114 0.93802 0.0
C282 C 0.9667 0.50555 0.91686 0.0
C283 C 0.98165 0.52969 0.89799 0.0
C284 C 0.04023 0.5483 0.96312 0.0
O285 O 0.98444 0.47182 1.00433 0.0
O286 O 0.94437 0.46567 0.03081 0.0
O287 O 0.967 0.53928 0.03938 0.0
O288 O 0.96776 0.52688 1.00222 0.0
C289 C 0.95264 0.45354 1.0137 0.0
O290 O 0.96385 0.46187 0.08261 0.0
O291 O 0.97032 0.51344 0.08741 0.0
O292 O 0.042 0.55208 0.06043 0.0
O293 O 0.04499 0.57665 0.02396 0.0
O294 O 0.06064 0.5232 0.02461 0.0
O295 O 0.02159 0.48039 0.04984 0.0
C296 C 0.95695 0.53939 1.01769 0.0
O297 O 0.03396 0.56712 0.97635 0.0
O298 O 0.0399 0.52127 0.97443 0.0
C299 C 0.97572 0.48155 0.12055 0.0
C300 C 0.99817 0.48205 0.16723 0.0
C301 C 0.96463 0.45439 0.1591 0.0
C302 C 0.95351 0.45422 0.13601 0.0
C303 C 0.01001 0.50832 0.12826 0.0
C304 C 0.02112 0.50859 0.15142 0.0
C305 C 0.96188 0.48237 0.09683 0.0
H306 H 0.02839 0.57927 0.8869 0.0
H307 H 0.06196 0.58907 0.92393 0.0
H308 H 0.97359 0.49255 0.9523 0.0
H309 H 0.94044 0.48175 0.91521 0.0
H310 H 0.94655 0.43325 0.17072 0.0
H311 H 0.92711 0.43316 0.13032 0.0
H312 H 0.02772 0.52955 0.11654 0.0
H313 H 0.04696 0.53046 0.1571 0.0
Tb314 Tb 0.50486 0.49535 0.06638 0.0
Eu315 Eu 0.48821 0.50931 1.01115 0.0
C316 C 0.4789 0.43586 0.03141 0.0
C317 C 0.56351 0.51578 0.02929 0.0
C318 C 0.50003 0.48738 0.1304 0.0
C319 C 0.49371 0.47456 0.1715 0.0
C320 C 0.50378 0.46967 0.15043 0.0
C321 C 0.48465 0.50902 0.1315 0.0
C322 C 0.47462 0.51402 0.15263 0.0
C323 C 0.4798 0.49744 0.17298 0.0
C324 C 0.51336 0.48378 0.10878 0.0
O325 O 0.50574 0.54572 0.06357 0.0
O326 O 0.52579 0.56174 0.02701 0.0
O327 O 0.44655 0.51153 0.0311 0.0
O328 O 0.44686 0.47468 0.06095 0.0
C329 C 0.52138 0.57015 0.04716 0.0
O330 O 0.4975 0.54646 0.98175 0.0
O331 O 0.46236 0.49026 0.97747 0.0
O332 O 0.46233 0.45028 1.01908 0.0
O333 O 0.50262 0.45289 0.04798 0.0
O334 O 0.55735 0.5193 0.05045 0.0
O335 O 0.53838 0.50565 1.01276 0.0
C336 C 0.4324 0.4919 0.04974 0.0
O337 O 0.48939 0.45983 0.09523 0.0
O338 O 0.53472 0.51318 0.09744 0.0
C339 C 0.4976 0.52535 0.94563 0.0
C340 C 0.52982 0.53286 0.9032 0.0
C341 C 0.521 0.55804 0.90942 0.0
C342 C 0.505 0.55423 0.9303 0.0
C343 C 0.50754 0.50077 0.93996 0.0
C344 C 0.52342 0.50446 0.91895 0.0
C345 C 0.47946 0.52162 0.96722 0.0
H346 H 0.49752 0.46094 0.18675 0.0
H347 H 0.51525 0.45258 0.14987 0.0
H348 H 0.48131 0.52275 0.11613 0.0
H349 H 0.46428 0.53202 0.15315 0.0
H350 H 0.52609 0.58059 0.89799 0.0
H351 H 0.498 0.57376 0.93439 0.0
H352 H 0.50252 0.47841 0.95157 0.0
H353 H 0.52949 0.48436 0.91472 0.0
Tb354 Tb 0.17704 0.34424 0.3498 0.0
Eu355 Eu 0.20275 0.38199 0.39972 0.0
C356 C 0.20945 0.3156 0.38895 0.0
C357 C 0.12321 0.3122 0.39129 0.0
C358 C 0.18401 0.3389 0.2887 0.0
C359 C 0.2052 0.33873 0.25126 0.0
C360 C 0.18788 0.3206 0.27144 0.0
C361 C 0.1982 0.37562 0.28576 0.0
C362 C 0.21522 0.39369 0.26558 0.0
C363 C 0.21888 0.3755 0.248 0.0
C364 C 0.16772 0.32038 0.31045 0.0
O365 O 0.16648 0.38826 0.34452 0.0
O366 O 0.17358 0.40785 0.38131 0.0
O367 O 0.23664 0.4237 0.37353 0.0
O368 O 0.2347 0.38489 0.34877 0.0
C369 C 0.16421 0.40818 0.3594 0.0
O370 O 0.19303 0.39772 0.4318 0.0
O371 O 0.24702 0.40831 0.42508 0.0
O372 O 0.22775 0.34777 0.3964 0.0
O373 O 0.18213 0.3068 0.37413 0.0
O374 O 0.1274 0.31465 0.36894 0.0
O375 O 0.14924 0.33211 0.40597 0.0
C376 C 0.24892 0.41728 0.35571 0.0
O377 O 0.19062 0.31948 0.32606 0.0
O378 O 0.1458 0.32887 0.31894 0.0
C379 C 0.2266 0.39022 0.46288 0.0
C380 C 0.21629 0.35018 0.50458 0.0
C381 C 0.21101 0.37957 0.5029 0.0
C382 C 0.2162 0.39943 0.48224 0.0
C383 C 0.23357 0.36197 0.46472 0.0
C384 C 0.22872 0.34229 0.48544 0.0
C385 C 0.22555 0.40716 0.44039 0.0
H386 H 0.20799 0.32395 0.23826 0.0
H387 H 0.17775 0.29237 0.27365 0.0
H388 H 0.19609 0.39037 0.29908 0.0
H389 H 0.2248 0.42182 0.2636 0.0
H390 H 0.20084 0.38609 0.51713 0.0
H391 H 0.21033 0.42089 0.48106 0.0
H392 H 0.24134 0.35415 0.44992 0.0
H393 H 0.2335 0.32015 0.48623 0.0
Tb394 Tb 0.70068 0.88955 0.3325 0.0
Eu395 Eu 0.66575 0.85714 0.38305 0.0
C396 C 0.73557 0.93352 0.37705 0.0
C397 C 0.73226 0.85235 0.3656 0.0
C398 C 0.70368 0.90507 0.26952 0.0
C399 C 0.70097 0.89015 0.22993 0.0
C400 C 0.7195 0.89949 0.25126 0.0
C401 C 0.66928 0.90193 0.266 0.0
C402 C 0.65087 0.89289 0.24462 0.0
C403 C 0.66624 0.88638 0.22638 0.0
C404 C 0.72234 0.91204 0.29238 0.0
O405 O 0.66476 0.83224 0.32992 0.0
O406 O 0.62407 0.82155 0.35728 0.0
O407 O 0.64603 0.89407 0.36922 0.0
O408 O 0.64827 0.88628 0.33131 0.0
C409 C 0.63283 0.8123 0.33899 0.0
O410 O 0.6471 0.81438 0.40964 0.0
O411 O 0.64519 0.86187 0.41488 0.0
O412 O 0.72087 0.90402 0.38978 0.0
O413 O 0.72579 0.93431 0.35521 0.0
O414 O 0.74067 0.88038 0.35192 0.0
O415 O 0.70061 0.83463 0.37505 0.0
C416 C 0.63626 0.89616 0.34765 0.0
O417 O 0.71428 0.92899 0.30615 0.0
O418 O 0.72351 0.88532 0.30299 0.0
C419 C 0.66231 0.83641 0.44678 0.0
C420 C 0.70058 0.84275 0.48928 0.0
C421 C 0.66859 0.8109 0.48405 0.0
C422 C 0.64961 0.80781 0.46297 0.0
C423 C 0.6944 0.86804 0.45183 0.0
C424 C 0.71313 0.87127 0.47288 0.0
C425 C 0.64293 0.83289 0.42437 0.0
H426 H 0.71342 0.88471 0.21647 0.0
H427 H 0.74586 0.90149 0.25367 0.0
H428 H 0.65632 0.90588 0.27986 0.0
H429 H 0.62441 0.89067 0.24247 0.0
H430 H 0.65834 0.78829 0.49614 0.0
H431 H 0.62512 0.78304 0.45926 0.0
H432 H 0.705 0.89042 0.43953 0.0
H433 H 0.73716 0.89646 0.4764 0.0
Tb434 Tb 0.16992 0.82672 0.40248 0.0
Eu435 Eu 0.15784 0.84741 0.34789 0.0
C436 C 0.14554 0.77115 0.3647 0.0
C437 C 0.23121 0.85264 0.36727 0.0
C438 C 0.16548 0.8127 0.46646 0.0
C439 C 0.15734 0.79431 0.50687 0.0
C440 C 0.16596 0.79068 0.48498 0.0
C441 C 0.1548 0.83752 0.46987 0.0
C442 C 0.14627 0.84128 0.49181 0.0
C443 C 0.14821 0.82022 0.51069 0.0
C444 C 0.1778 0.81046 0.44408 0.0
O445 O 0.16696 0.87465 0.40348 0.0
O446 O 0.186 0.89807 0.36728 0.0
O447 O 0.1119 0.84418 0.36631 0.0
O448 O 0.11196 0.80749 0.39673 0.0
C449 C 0.18025 0.90163 0.38849 0.0
O450 O 0.18097 0.88495 0.31871 0.0
O451 O 0.12894 0.8371 0.31434 0.0
O452 O 0.13163 0.78781 0.35199 0.0
O453 O 0.16787 0.78593 0.38232 0.0
O454 O 0.22365 0.85649 0.3879 0.0
O455 O 0.20621 0.84058 0.35078 0.0
C456 C 0.09654 0.82301 0.38426 0.0
O457 O 0.15303 0.78847 0.42989 0.0
O458 O 0.20003 0.8405 0.43372 0.0
C459 C 0.16915 0.85823 0.2832 0.0
C460 C 0.19998 0.84908 0.24462 0.0
C461 C 0.20083 0.88123 0.24732 0.0
C462 C 0.18558 0.8857 0.26639 0.0
C463 C 0.16798 0.82604 0.28052 0.0
C464 C 0.18295 0.82144 0.26141 0.0
C465 C 0.1558 0.86445 0.3041 0.0
H466 H 0.15854 0.77729 0.52093 0.0
H467 H 0.17385 0.77118 0.48262 0.0
H468 H 0.15408 0.85468 0.45572 0.0
H469 H 0.1397 0.86172 0.49415 0.0
H470 H 0.21397 0.90325 0.23498 0.0
H471 H 0.1872 0.91094 0.26824 0.0
H472 H 0.15581 0.8045 0.29333 0.0
H473 H 0.181 0.79603 0.25981 0.0
Tb474 Tb 0.84331 0.67213 0.67844 0.0
Eu475 Eu 0.86632 0.71139 0.72747 0.0
C476 C 0.87519 0.64541 0.71929 0.0
C477 C 0.78953 0.6398 0.72026 0.0
C478 C 0.84325 0.65549 0.61651 0.0
C479 C 0.85291 0.64091 0.57935 0.0
C480 C 0.84341 0.63125 0.60223 0.0
C481 C 0.85399 0.69006 0.60788 0.0
C482 C 0.86337 0.69974 0.58491 0.0
C483 C 0.86231 0.67504 0.57026 0.0
C484 C 0.83168 0.644 0.64024 0.0
O485 O 0.83435 0.71705 0.67228 0.0
O486 O 0.82737 0.72616 0.70939 0.0
O487 O 0.89941 0.75226 0.70055 0.0
O488 O 0.90095 0.71289 0.67791 0.0
C489 C 0.82317 0.73037 0.68712 0.0
O490 O 0.85543 0.72901 0.75832 0.0
O491 O 0.91007 0.7409 0.75253 0.0
O492 O 0.89246 0.67765 0.72663 0.0
O493 O 0.84891 0.63599 0.70362 0.0
O494 O 0.79358 0.64338 0.69783 0.0
O495 O 0.81568 0.65942 0.73496 0.0
C496 C 0.91419 0.7455 0.68424 0.0
O497 O 0.85687 0.64659 0.65526 0.0
O498 O 0.81105 0.65456 0.64815 0.0
C499 C 0.88853 0.72246 0.78978 0.0
C500 C 0.87453 0.68185 0.83125 0.0
C501 C 0.87831 0.71577 0.83056 0.0
C502 C 0.88513 0.73592 0.80987 0.0
C503 C 0.88712 0.68963 0.79076 0.0
C504 C 0.8803 0.66953 0.81136 0.0
C505 C 0.8879 0.73955 0.76736 0.0
H506 H 0.85237 0.62143 0.56867 0.0
H507 H 0.83566 0.60459 0.6087 0.0
H508 H 0.85441 0.7093 0.61874 0.0
H509 H 0.87012 0.72612 0.57843 0.0
H510 H 0.87358 0.7257 0.84561 0.0
H511 H 0.88574 0.76103 0.80931 0.0
H512 H 0.88934 0.67863 0.77535 0.0
H513 H 0.8778 0.64361 0.81148 0.0
Tb514 Tb 0.37115 0.2173 0.66343 0.0
Eu515 Eu 0.33876 0.19346 0.7158 0.0
C516 C 0.40665 0.26995 0.70332 0.0
C517 C 0.40611 0.18859 0.702 0.0
C518 C 0.37766 0.23177 0.59958 0.0
C519 C 0.3851 0.25192 0.55943 0.0
C520 C 0.39847 0.25601 0.58221 0.0
C521 C 0.34259 0.20413 0.59403 0.0
C522 C 0.32923 0.19988 0.57121 0.0
C523 C 0.35066 0.2233 0.55353 0.0
C524 C 0.39374 0.23465 0.62304 0.0
O525 O 0.3183 0.1698 0.65939 0.0
O526 O 0.31596 0.1443 0.69538 0.0
O527 O 0.29675 0.19826 0.69325 0.0
O528 O 0.33608 0.23925 0.66721 0.0
C529 C 0.30505 0.14187 0.67365 0.0
O530 O 0.32122 0.15423 0.74424 0.0
O531 O 0.31901 0.20233 0.74689 0.0
O532 O 0.37606 0.25293 0.71419 0.0
O533 O 0.41257 0.25639 0.6859 0.0
O534 O 0.39452 0.1868 0.68041 0.0
O535 O 0.39336 0.19851 0.71782 0.0
C536 C 0.30445 0.22266 0.67675 0.0
O537 O 0.39119 0.25593 0.63627 0.0
O538 O 0.38694 0.20496 0.63392 0.0
C539 C 0.32943 0.17579 0.78156 0.0
C540 C 0.35079 0.17432 0.82845 0.0
C541 C 0.32245 0.18111 0.82172 0.0
C542 C 0.31184 0.18169 0.79858 0.0
C543 C 0.35856 0.17013 0.78804 0.0
C544 C 0.36912 0.16939 0.81127 0.0
C545 C 0.31538 0.17341 0.75749 0.0
H546 H 0.40206 0.27079 0.54634 0.0
H547 H 0.42548 0.27767 0.5862 0.0
H548 H 0.32597 0.18519 0.60723 0.0
H549 H 0.30277 0.17736 0.56732 0.0
H550 H 0.30829 0.18596 0.83436 0.0
H551 H 0.28941 0.1862 0.79399 0.0
H552 H 0.3727 0.16559 0.77521 0.0
H553 H 0.39099 0.16404 0.81579 0.0
Tb554 Tb 0.83945 0.16106 0.73359 0.0
Eu555 Eu 0.8247 0.1796 0.67857 0.0
C556 C 0.82004 0.1065 0.6949 0.0
C557 C 0.90056 0.18622 0.69857 0.0
C558 C 0.82593 0.15125 0.79619 0.0
C559 C 0.8303 0.16667 0.83593 0.0
C560 C 0.84564 0.16158 0.81717 0.0
C561 C 0.79041 0.14561 0.79438 0.0
C562 C 0.77514 0.15088 0.81305 0.0
C563 C 0.79498 0.16172 0.83402 0.0
C564 C 0.8427 0.14701 0.77622 0.0
O565 O 0.8661 0.21855 0.72827 0.0
O566 O 0.828 0.22197 0.69985 0.0
O567 O 0.77014 0.14731 0.69461 0.0
O568 O 0.79133 0.16572 0.73097 0.0
C569 C 0.85209 0.23607 0.71676 0.0
O570 O 0.83805 0.2193 0.65026 0.0
O571 O 0.798 0.16429 0.64468 0.0
O572 O 0.83113 0.13198 0.6789 0.0
O573 O 0.81428 0.11124 0.71585 0.0
O574 O 0.88597 0.16645 0.71716 0.0
O575 O 0.88421 0.19932 0.68465 0.0
C576 C 0.76443 0.15079 0.71582 0.0
O577 O 0.82049 0.12412 0.7615 0.0
O578 O 0.86692 0.17607 0.7659 0.0
C579 C 0.83396 0.19891 0.61302 0.0
C580 C 0.86128 0.20408 0.56914 0.0
C581 C 0.85338 0.22969 0.57579 0.0
C582 C 0.83982 0.22705 0.5974 0.0
C583 C 0.84317 0.174 0.60693 0.0
C584 C 0.85667 0.17655 0.58519 0.0
C585 C 0.8176 0.19596 0.63521 0.0
H586 H 0.8465 0.17545 0.85174 0.0
H587 H 0.87306 0.1661 0.81897 0.0
H588 H 0.77444 0.1372 0.77849 0.0
H589 H 0.74776 0.14643 0.81107 0.0
H590 H 0.8572 0.25164 0.56413 0.0
H591 H 0.83331 0.2468 0.60179 0.0
H592 H 0.83927 0.15218 0.61875 0.0
H593 H 0.86218 0.1562 0.58068 0.0
H594 H 0.26545 0.84785 0.06711 0.0
H595 H 0.31566 0.84555 0.13321 0.0
H596 H 0.37432 0.89398 0.11999 0.0
H597 H 0.41242 0.93206 0.08809 0.0
H598 H 0.3621 0.92981 1.02095 0.0
H599 H 0.3027 0.88757 0.03585 0.0
C600 C 0.28926 0.85825 0.07863 0.0
C601 C 0.28638 0.84302 0.10103 0.0
C602 C 0.32302 0.88474 0.07051 0.0
C603 C 0.31717 0.85704 0.11598 0.0
C604 C 0.35076 0.88438 0.10829 0.0
C605 C 0.38844 0.92261 0.07674 0.0
C606 C 0.39193 0.93404 0.05331 0.0
C607 C 0.35424 0.89768 0.08535 0.0
C608 C 0.36043 0.92133 0.03894 0.0
C609 C 0.32636 0.89722 0.04748 0.0
H610 H 0.14974 0.44117 0.09062 0.0
H611 H 0.23111 0.5512 0.08247 0.0
H612 H 0.18721 0.56372 0.06056 0.0
H613 H 0.12484 0.54312 0.0452 0.0
H614 H 0.04297 0.43317 0.05533 0.0
H615 H 0.08787 0.42042 0.07491 0.0
C616 C 0.15747 0.46787 0.08422 0.0
C617 C 0.19298 0.49544 0.08826 0.0
C618 C 0.1322 0.47462 0.07187 0.0
C619 C 0.20353 0.52987 0.07956 0.0
C620 C 0.17859 0.53688 0.06704 0.0
C621 C 0.11713 0.51631 0.05133 0.0
C622 C 0.08095 0.48902 0.04879 0.0
C623 C 0.14279 0.50944 0.06318 0.0
C624 C 0.07085 0.45448 0.05715 0.0
C625 C 0.09638 0.44723 0.0684 0.0
H626 H 0.58284 0.73545 0.04978 0.0
H627 H 0.52284 0.70219 0.11154 0.0
H628 H 0.50347 0.64011 0.10539 0.0
H629 H 0.50444 0.59563 0.08259 0.0
H630 H 0.56399 0.62887 1.02028 0.0
H631 H 0.58258 0.69049 0.02632 0.0
C632 C 0.56514 0.71438 0.06161 0.0
C633 C 0.55389 0.72293 0.08094 0.0
C634 C 0.55427 0.6789 0.05792 0.0
C635 C 0.53153 0.69582 0.09652 0.0
C636 C 0.52059 0.66051 0.09301 0.0
C637 C 0.5216 0.61634 0.07036 0.0
C638 C 0.53294 0.60758 0.05107 0.0
C639 C 0.53199 0.65174 0.07383 0.0
C640 C 0.55486 0.63479 0.03529 0.0
C641 C 0.56552 0.67009 0.03871 0.0
H642 H 0.8633 0.29832 0.97782 0.0
H643 H 0.77443 0.31647 0.98515 0.0
H644 H 0.81638 0.37469 1.00035 0.0
H645 H 0.87894 0.42135 1.01055 0.0
H646 H 0.9683 0.40584 0.99849 0.0
H647 H 0.92593 0.34625 0.98555 0.0
C648 C 0.85324 0.31525 0.98245 0.0
C649 C 0.81579 0.30299 0.98051 0.0
C650 C 0.87773 0.34931 0.99017 0.0
C651 C 0.80304 0.32499 0.98695 0.0
C652 C 0.82707 0.35842 0.99543 0.0
C653 C 0.88902 0.40481 1.00512 0.0
C654 C 0.92661 0.41781 1.00558 0.0
C655 C 0.86451 0.37093 0.99705 0.0
C656 C 0.93945 0.39641 0.9982 0.0
C657 C 0.91524 0.36231 0.99088 0.0
H658 H 0.72817 0.57209 1.01217 0.0
H659 H 0.6808 0.52153 0.94835 0.0
H660 H 0.61985 0.50094 0.96153 0.0
H661 H 0.58101 0.49945 0.99044 0.0
H662 H 0.62755 0.55031 0.05459 0.0
H663 H 0.68831 0.56804 0.04235 0.0
C664 C 0.70429 0.55628 1.00139 0.0
C665 C 0.70839 0.54844 0.97936 0.0
C666 C 0.66961 0.5446 1.00916 0.0
C667 C 0.67778 0.52811 0.96525 0.0
C668 C 0.64318 0.51628 0.97282 0.0
C669 C 0.60436 0.51437 1.00185 0.0
C670 C 0.59989 0.52395 0.02328 0.0
C671 C 0.63888 0.52475 0.99462 0.0
C672 C 0.63037 0.54273 0.03797 0.0
C673 C 0.66505 0.55298 0.03095 0.0
H674 H 0.40812 0.14099 0.96482 0.0
H675 H 0.51131 0.22538 0.98906 0.0
H676 H 0.53066 0.1828 1.00195 0.0
H677 H 0.51637 0.12096 1.00903 0.0
H678 H 0.41555 0.03642 0.98207 0.0
H679 H 0.39702 0.07926 0.96737 0.0
C680 C 0.43508 0.14995 0.97243 0.0
C681 C 0.45804 0.18611 0.97647 0.0
C682 C 0.44618 0.1252 0.97957 0.0
C683 C 0.49297 0.19753 0.98632 0.0
C684 C 0.50401 0.17322 0.99367 0.0
C685 C 0.49045 0.11209 0.99982 0.0
C686 C 0.46702 0.07576 0.9969 0.0
C687 C 0.48049 0.13691 0.99095 0.0
C688 C 0.43382 0.06438 0.98459 0.0
C689 C 0.42326 0.08884 0.97621 0.0
H690 H 0.71845 0.14471 0.97165 0.0
H691 H 0.68298 0.22133 0.96584 0.0
H692 H 0.62219 0.17579 0.97711 0.0
H693 H 0.58101 0.11563 0.99239 0.0
H694 H 0.61388 0.03707 0.99599 0.0
H695 H 0.67358 0.08146 0.98162 0.0
C696 C 0.69704 0.15101 0.97221 0.0
C697 C 0.70509 0.18631 0.96815 0.0
C698 C 0.66192 0.12445 0.97864 0.0
C699 C 0.67726 0.19433 0.96911 0.0
C700 C 0.64263 0.16837 0.97564 0.0
C701 C 0.60118 0.10821 0.98978 0.0
C702 C 0.59344 0.07342 0.99553 0.0
C703 C 0.63496 0.13361 0.98112 0.0
C704 C 0.6194 0.06382 0.99173 0.0
C705 C 0.65353 0.08922 0.98358 0.0
H706 H 0.84325 0.59108 1.00546 0.0
H707 H 0.82836 0.5483 0.93903 0.0
H708 H 0.87878 0.53715 0.94788 0.0
H709 H 0.92255 0.53414 0.97608 0.0
H710 H 0.93418 0.57306 0.04381 0.0
H711 H 0.88915 0.59074 0.0331 0.0
C712 C 0.8515 0.57964 0.99297 0.0
C713 C 0.83253 0.57042 0.97174 0.0
C714 C 0.87934 0.5721 0.99857 0.0
C715 C 0.84315 0.55591 0.95538 0.0
C716 C 0.87158 0.54921 0.96055 0.0
C717 C 0.91545 0.54673 0.98846 0.0
C718 C 0.93135 0.5519 1.01077 0.0
C719 C 0.8892 0.55634 0.98233 0.0
C720 C 0.922 0.56839 0.02659 0.0
C721 C 0.89635 0.57861 1.02048 0.0
H722 H 0.49139 0.30658 1.00249 0.0
H723 H 0.38093 0.27009 0.97875 0.0
H724 H 0.38433 0.32326 0.99264 0.0
H725 H 0.41989 0.38133 1.01053 0.0
H726 H 0.52884 0.41477 0.03698 0.0
H727 H 0.52468 0.3613 0.0236 0.0
C728 C 0.46785 0.30994 1.00085 0.0
C729 C 0.43607 0.2847 0.98948 0.0
C730 C 0.46979 0.34005 1.00937 0.0
C731 C 0.40588 0.28957 0.98711 0.0
C732 C 0.40779 0.31984 0.99513 0.0
C733 C 0.44256 0.37672 1.01347 0.0
C734 C 0.47464 0.40201 0.02465 0.0
C735 C 0.4398 0.34551 1.00605 0.0
C736 C 0.50374 0.3956 0.02854 0.0
C737 C 0.50148 0.36511 1.02081 0.0
H738 H 0.17162 0.73936 0.0646 0.0
H739 H 0.1865 0.69161 0.1284 0.0
H740 H 0.1402 0.6327 0.11585 0.0
H741 H 0.09486 0.59501 0.08672 0.0
H742 H 0.08159 0.64338 1.02237 0.0
H743 H 0.128 0.70159 0.03496 0.0
C744 C 0.16493 0.71592 0.07555 0.0
C745 C 0.18219 0.7196 0.09736 0.0
C746 C 0.13852 0.68229 0.06813 0.0
C747 C 0.17318 0.68923 0.11162 0.0
C748 C 0.14682 0.65565 0.10442 0.0
C749 C 0.10208 0.61827 0.07546 0.0
C750 C 0.08455 0.61469 0.05365 0.0
C751 C 0.12911 0.65186 0.08274 0.0
C752 C 0.09456 0.6452 0.03924 0.0
C753 C 0.12113 0.67861 0.04642 0.0
H754 H 0.32728 0.52914 0.09436 0.0
H755 H 0.2694 0.4165 0.10899 0.0
H756 H 0.31897 0.41175 0.09419 0.0
H757 H 0.37554 0.43915 0.07267 0.0
H758 H 0.42682 0.55022 0.05214 0.0
H759 H 0.38245 0.55614 0.07264 0.0
C760 C 0.32589 0.50367 0.09448 0.0
C761 C 0.29503 0.47329 0.10272 0.0
C762 C 0.35269 0.50082 0.08409 0.0
C763 C 0.29327 0.44035 0.10313 0.0
C764 C 0.32125 0.43757 0.09423 0.0
C765 C 0.37669 0.4645 0.07265 0.0
C766 C 0.40379 0.49408 0.06068 0.0
C767 C 0.35045 0.46747 0.08391 0.0
C768 C 0.4055 0.52695 0.0608 0.0
C769 C 0.3805 0.53044 0.07273 0.0
H770 H 0.50856 0.8105 0.0786 0.0
H771 H 0.62398 0.88182 0.08062 0.0
H772 H 0.61478 0.93198 0.06971 0.0
H773 H 0.57358 0.95488 0.05702 0.0
H774 H 0.45837 0.88176 0.05097 0.0
H775 H 0.46759 0.83296 0.0655 0.0
C776 C 0.53161 0.83704 0.07652 0.0
C777 C 0.56689 0.84257 0.08052 0.0
C778 C 0.52606 0.86536 0.06927 0.0
C779 C 0.5966 0.87709 0.07813 0.0
C780 C 0.59131 0.90567 0.07162 0.0
C781 C 0.55054 0.9283 0.05909 0.0
C782 C 0.51536 0.92191 0.05293 0.0
C783 C 0.55614 0.90007 0.06685 0.0
C784 C 0.48574 0.88729 0.05544 0.0
C785 C 0.49097 0.85938 0.06379 0.0
H786 H 0.9862 0.16985 0.42371 0.0
H787 H 0.95071 0.24174 0.4396 0.0
H788 H 0.0103 0.29249 0.42988 0.0
H789 H 0.07036 0.31608 0.4124 0.0
H790 H 0.10074 0.24264 0.39121 0.0
H791 H 0.04508 0.19275 0.40652 0.0
C792 C 0.99161 0.19667 0.42505 0.0
C793 C 0.964 0.20209 0.43203 0.0
C794 C 0.02479 0.22537 0.41786 0.0
C795 C 0.9716 0.23692 0.43438 0.0
C796 C 0.00548 0.26588 0.42847 0.0
C797 C 0.06461 0.28909 0.41123 0.0
C798 C 0.08928 0.28279 0.4006 0.0
C799 C 0.03188 0.26042 0.41945 0.0
C800 C 0.08184 0.24789 0.39912 0.0
C801 C 0.05017 0.21945 0.40798 0.0
H802 H 0.8656 0.83312 0.39692 0.0
H803 H 0.77953 0.72865 0.41606 0.0
H804 H 0.7342 0.74402 0.40035 0.0
H805 H 0.71953 0.78818 0.38286 0.0
H806 H 0.80582 0.89231 0.36242 0.0
H807 H 0.85093 0.87585 0.37637 0.0
C808 C 0.83692 0.81363 0.39717 0.0
C809 C 0.82564 0.77994 0.40765 0.0
C810 C 0.81128 0.8226 0.3879 0.0
C811 C 0.78851 0.75486 0.40829 0.0
C812 C 0.76276 0.76362 0.39926 0.0
C813 C 0.74821 0.80722 0.38133 0.0
C814 C 0.75939 0.84149 0.37183 0.0
C815 C 0.77387 0.79758 0.38933 0.0
C816 C 0.79658 0.86573 0.36966 0.0
C817 C 0.82236 0.8564 0.37772 0.0
H818 H 0.19735 0.03685 0.4332 0.0
H819 H 0.25832 0.08856 0.37295 0.0
H820 H 0.24561 0.03119 0.35967 0.0
H821 H 0.21786 0.96631 0.36587 0.0
H822 H 0.1589 0.91546 0.4274 0.0
H823 H 0.17028 0.97231 0.43965 0.0
C824 C 0.20769 0.03527 0.41717 0.0
C825 C 0.22847 0.06644 0.40392 0.0
C826 C 0.2008 1.00243 0.41 0.0
C827 C 0.24199 0.0646 0.38321 0.0
C828 C 0.23484 0.03192 0.37573 0.0
C829 C 0.20744 0.96766 0.38193 0.0
C830 C 0.18757 0.93656 0.39566 0.0
C831 C 0.21436 1.00063 0.38905 0.0
C832 C 0.17444 0.93889 0.4165 0.0
C833 C 0.18083 0.97142 0.42353 0.0
H834 H 0.54585 0.65974 0.29905 0.0
H835 H 0.45528 0.66853 0.3182 0.0
H836 H 0.49685 0.72742 0.33263 0.0
H837 H 0.55922 0.77646 0.33978 0.0
H838 H 0.64944 0.76994 0.31696 0.0
H839 H 0.60785 0.71063 0.3033 0.0
C840 C 0.53527 0.67484 0.30602 0.0
C841 C 0.49759 0.65975 0.30772 0.0
C842 C 0.55929 0.70915 0.31348 0.0
C843 C 0.48422 0.67935 0.31715 0.0
C844 C 0.50796 0.71309 0.32522 0.0
C845 C 0.5697 0.76204 0.33175 0.0
C846 C 0.60732 0.77742 0.3295 0.0
C847 C 0.54557 0.72823 0.32353 0.0
C848 C 0.62056 0.7587 0.31881 0.0
C849 C 0.59682 0.72473 0.31109 0.0
H850 H 0.39805 0.92047 0.34993 0.0
H851 H 0.35314 0.86293 0.28817 0.0
H852 H 0.29167 0.83825 0.30161 0.0
H853 H 0.25124 0.83545 0.32987 0.0
H854 H 0.29481 0.89303 0.39197 0.0
H855 H 0.35664 0.91477 0.37981 0.0
C856 C 0.37462 0.9023 0.33966 0.0
C857 C 0.37957 0.89377 0.31803 0.0
C858 C 0.33948 0.88826 0.34758 0.0
C859 C 0.34949 0.87018 0.30468 0.0
C860 C 0.31455 0.85602 0.31241 0.0
C861 C 0.27419 0.85266 0.34086 0.0
C862 C 0.2685 0.86298 0.36167 0.0
C863 C 0.30928 0.86529 0.33366 0.0
C864 C 0.29854 0.88479 0.37585 0.0
C865 C 0.33383 0.89734 0.36885 0.0
H866 H 0.15259 0.5441 0.33242 0.0
H867 H 0.05233 0.46755 0.29967 0.0
H868 H 0.0671 0.42073 0.31007 0.0
H869 H 0.10732 0.40103 0.33098 0.0
H870 H 0.20256 0.4773 0.36847 0.0
H871 H 0.19064 0.52459 0.35446 0.0
C872 C 0.13374 0.51706 0.32785 0.0
C873 C 0.10135 0.50928 0.31545 0.0
C874 C 0.14142 0.49017 0.33504 0.0
C875 C 0.07768 0.47434 0.30896 0.0
C876 C 0.08595 0.44751 0.31515 0.0
C877 C 0.12533 0.42806 0.33599 0.0
C878 C 0.15573 0.43583 0.35073 0.0
C879 C 0.11752 0.45501 0.32853 0.0
C880 C 0.17886 0.47077 0.35728 0.0
C881 C 0.17215 0.49781 0.34921 0.0
H882 H 0.36625 0.56283 0.3112 0.0
H883 H 0.41515 0.50113 0.29777 0.0
H884 H 0.36189 0.44712 0.31245 0.0
H885 H 0.3037 0.41873 0.33282 0.0
H886 H 0.25987 0.48362 0.34999 0.0
H887 H 0.30891 0.53512 0.33069 0.0
C888 C 0.36511 0.53748 0.31149 0.0
C889 C 0.39454 0.5359 0.30361 0.0
C890 C 0.3355 0.50722 0.32102 0.0
C891 C 0.39264 0.50291 0.30357 0.0
C892 C 0.36238 0.47215 0.31222 0.0
C893 C 0.3049 0.44414 0.33216 0.0
C894 C 0.27839 0.44747 0.343 0.0
C895 C 0.33401 0.47414 0.32155 0.0
C896 C 0.28022 0.48051 0.34208 0.0
C897 C 0.30816 0.50995 0.33095 0.0
H898 H 0.51875 0.9435 0.33956 0.0
H899 H 0.49665 0.89441 0.27471 0.0
H900 H 0.54884 0.88572 0.28155 0.0
H901 H 0.59679 0.88682 0.3077 0.0
H902 H 0.61515 0.93053 0.37447 0.0
H903 H 0.56797 0.94604 0.36546 0.0
C904 C 0.52578 0.93123 0.32693 0.0
C905 C 0.50441 0.91997 0.3066 0.0
C906 C 0.55463 0.92479 0.33155 0.0
C907 C 0.5134 0.9041 0.2902 0.0
C908 C 0.54286 0.89867 0.29428 0.0
C909 C 0.59073 0.90005 0.32021 0.0
C910 C 0.60926 0.90733 0.34177 0.0
C911 C 0.56312 0.90817 0.31513 0.0
C912 C 0.60101 0.92435 0.35783 0.0
C913 C 0.57413 0.9333 0.35268 0.0
H914 H 0.14572 0.63393 0.33869 0.0
H915 H 0.03939 0.60734 0.31083 0.0
H916 H 0.0477 0.66331 0.32338 0.0
H917 H 0.08615 0.72053 0.34173 0.0
H918 H 0.19066 0.74436 0.37217 0.0
H919 H 0.18196 0.68852 0.35964 0.0
C920 C 0.12415 0.64014 0.33581 0.0
C921 C 0.09213 0.61681 0.32375 0.0
C922 C 0.12886 0.67188 0.34353 0.0
C923 C 0.06451 0.62529 0.31977 0.0
C924 C 0.06921 0.65716 0.32702 0.0
C925 C 0.10692 0.71338 0.34563 0.0
C926 C 0.13904 0.73656 0.35776 0.0
C927 C 0.10146 0.68085 0.33873 0.0
C928 C 0.1656 0.72687 0.36295 0.0
C929 C 0.16072 0.695 0.35573 0.0
H930 H 0.85502 0.0577 0.43675 0.0
H931 H 0.83747 0.12105 0.38329 0.0
H932 H 0.79331 0.06733 0.36343 0.0
H933 H 0.75909 1.00205 0.36186 0.0
H934 H 0.77495 0.93894 0.41682 0.0
H935 H 0.82014 0.99256 0.43558 0.0
C936 C 0.84136 0.05944 0.42075 0.0
C937 C 0.84935 0.09289 0.41128 0.0
C938 C 0.81574 0.02853 0.40979 0.0
C939 C 0.83169 0.09534 0.39064 0.0
C940 C 0.80651 0.06472 0.3794 0.0
C941 C 0.7726 1.00007 0.37786 0.0
C942 C 0.76367 0.96649 0.38785 0.0
C943 C 0.79826 0.03111 0.38883 0.0
C944 C 0.78118 0.9644 0.40875 0.0
C945 C 0.80709 0.99506 0.41952 0.0
H946 H 0.95924 0.82912 0.40973 0.0
H947 H 0.92681 0.72372 0.43712 0.0
H948 H 0.98566 0.73146 0.42774 0.0
H949 H 0.04428 0.76686 0.4086 0.0
H950 H 0.07218 0.86949 0.37712 0.0
H951 H 0.01653 0.8638 0.39037 0.0
C952 C 0.96511 0.80784 0.41352 0.0
C953 C 0.93883 0.77582 0.42381 0.0
C954 C 0.9978 0.81178 0.40685 0.0
C955 C 0.94686 0.74869 0.42933 0.0
C956 C 0.98025 0.75299 0.42369 0.0
C957 C 0.03807 0.78791 0.40465 0.0
C958 C 0.06209 0.81841 0.39172 0.0
C959 C 0.00557 0.78414 0.41193 0.0
C960 C 0.05382 0.84552 0.38671 0.0
C961 C 0.02219 0.84243 0.39444 0.0
H962 H 0.27672 0.2182 0.41902 0.0
H963 H 0.16453 0.13719 0.41096 0.0
H964 H 0.14737 0.18231 0.40135 0.0
H965 H 0.16484 0.24463 0.39308 0.0
H966 H 0.27635 0.32646 0.40375 0.0
H967 H 0.29331 0.28143 0.41487 0.0
C968 C 0.24852 0.21064 0.41551 0.0
C969 C 0.22198 0.17452 0.41506 0.0
C970 C 0.23884 0.23684 0.41037 0.0
C971 C 0.18546 0.16486 0.41068 0.0
C972 C 0.17566 0.19062 0.4053 0.0
C973 C 0.19284 0.25259 0.3979 0.0
C974 C 0.21942 0.28873 0.39724 0.0
C975 C 0.20223 0.22665 0.40462 0.0
C976 C 0.25545 0.29875 0.40401 0.0
C977 C 0.26516 0.27302 0.41032 0.0
H978 H 0.6493 0.49772 0.74923 0.0
H979 H 0.62574 0.5702 0.77961 0.0
H980 H 0.68549 0.61985 0.76913 0.0
H981 H 0.74267 0.64314 0.74811 0.0
H982 H 0.76034 0.57041 0.71278 0.0
H983 H 0.70429 0.52046 0.72758 0.0
C984 C 0.65715 0.52444 0.7534 0.0
C985 C 0.63294 0.53024 0.76501 0.0
C986 C 0.6903 0.55287 0.74599 0.0
C987 C 0.64392 0.56487 0.77094 0.0
C988 C 0.67792 0.59332 0.76464 0.0
C989 C 0.73409 0.61628 0.74375 0.0
C990 C 0.75539 0.61027 0.72934 0.0
C991 C 0.70103 0.58774 0.75169 0.0
C992 C 0.74413 0.57554 0.72366 0.0
C993 C 0.71223 0.54703 0.7322 0.0
H994 H 0.5092 0.1251 0.72321 0.0
H995 H 0.52917 0.1801 0.78543 0.0
H996 H 0.48883 0.20242 0.77103 0.0
H997 H 0.4467 0.20435 0.74142 0.0
H998 H 0.42704 0.1504 0.67849 0.0
H999 H 0.46932 0.1301 0.6922 0.0
C1000 C 0.50481 0.14227 0.73337 0.0
C1001 C 0.5214 0.15076 0.75535 0.0
C1002 C 0.48195 0.15513 0.72485 0.0
C1003 C 0.51591 0.17292 0.76861 0.0
C1004 C 0.49311 0.18573 0.76035 0.0
C1005 C 0.45166 0.1882 0.73064 0.0
C1006 C 0.43353 0.17851 0.70911 0.0
C1007 C 0.47572 0.17664 0.73862 0.0
C1008 C 0.44069 0.15811 0.69518 0.0
C1009 C 0.4647 0.14641 0.70303 0.0
H1010 H 0.92521 0.3935 0.74767 0.0
H1011 H 0.81524 0.37197 0.7369 0.0
H1012 H 0.79651 0.31336 0.72335 0.0
H1013 H 0.81104 0.26721 0.71614 0.0
H1014 H 0.91938 0.28596 0.7317 0.0
H1015 H 0.93911 0.3463 0.74239 0.0
C1016 C 0.89712 0.37577 0.74257 0.0
C1017 C 0.87169 0.38708 0.74309 0.0
C1018 C 0.88628 0.34155 0.73586 0.0
C1019 C 0.83543 0.36411 0.73614 0.0
C1020 C 0.82467 0.33049 0.72863 0.0
C1021 C 0.83899 0.28466 0.72175 0.0
C1022 C 0.86383 0.27244 0.72301 0.0
C1023 C 0.84981 0.31884 0.72856 0.0
C1024 C 0.89982 0.29492 0.73066 0.0
C1025 C 0.91111 0.32938 0.73672 0.0
H1026 H 0.17786 1.00771 0.62517 0.0
H1027 H 0.19676 0.95438 0.68469 0.0
H1028 H 0.24403 1.01147 0.6994 0.0
H1029 H 0.28079 0.07646 0.69464 0.0
H1030 H 0.26386 0.12951 0.63379 0.0
H1031 H 0.21538 0.0728 0.62008 0.0
C1032 C 0.1924 1.0089 0.64138 0.0
C1033 C 0.18394 0.9773 0.65404 0.0
C1034 C 0.22 0.04166 0.64932 0.0
C1035 C 0.20281 0.97864 0.67493 0.0
C1036 C 0.22984 1.01117 0.6832 0.0
C1037 C 0.26646 0.07564 0.6784 0.0
C1038 C 0.27601 0.10725 0.66529 0.0
C1039 C 0.23881 0.04286 0.67047 0.0
C1040 C 0.25727 0.10562 0.64419 0.0
C1041 C 0.22942 0.0732 0.63635 0.0
H1042 H 0.05821 0.21886 0.6804 0.0
H1043 H 0.0124 0.19903 0.61139 0.0
H1044 H 0.95397 0.1872 0.62465 0.0
H1045 H 0.91697 0.184 0.65574 0.0
H1046 H 0.96071 0.19927 0.72546 0.0
H1047 H 0.01919 0.21069 0.7123 0.0
C1048 C 0.03508 0.21128 0.66849 0.0
C1049 C 0.03905 0.20961 0.64507 0.0
C1050 C 0.00163 0.20383 0.67636 0.0
C1051 C 0.0095 0.20045 0.62948 0.0
C1052 C 0.97632 0.1937 0.63706 0.0
C1053 C 0.9394 0.18992 0.66802 0.0
C1054 C 0.93515 0.1915 0.6914 0.0
C1055 C 0.97226 0.19565 0.66041 0.0
C1056 C 0.96378 0.1982 0.70734 0.0
C1057 C 0.99706 0.20476 0.69982 0.0
H1058 H 0.76286 0.83565 0.67149 0.0
H1059 H 0.81719 0.85804 0.60802 0.0
H1060 H 0.83041 0.81004 0.61731 0.0
H1061 H 0.83183 0.7658 0.64549 0.0
H1062 H 0.78117 0.74691 0.71038 0.0
H1063 H 0.76147 0.78946 0.69876 0.0
C1064 C 0.77727 0.82962 0.65969 0.0
C1065 C 0.78894 0.85003 0.63912 0.0
C1066 C 0.78583 0.80294 0.66558 0.0
C1067 C 0.80742 0.84215 0.62376 0.0
C1068 C 0.81533 0.81502 0.62921 0.0
C1069 C 0.81602 0.77063 0.65693 0.0
C1070 C 0.80821 0.75338 0.67882 0.0
C1071 C 0.8054 0.79577 0.65034 0.0
C1072 C 0.78788 0.76009 0.69352 0.0
C1073 C 0.77654 0.78439 0.68689 0.0
H1074 H 0.04461 0.88994 0.6475 0.0
H1075 H 0.09035 0.82334 0.64044 0.0
H1076 H 0.03287 0.77078 0.65126 0.0
H1077 H 0.97133 0.74466 0.6665 0.0
H1078 H 0.92904 0.8133 0.6775 0.0
H1079 H 0.9834 0.86415 0.66193 0.0
C1080 C 0.04193 0.8639 0.64843 0.0
C1081 C 0.07168 0.86048 0.64346 0.0
C1082 C 0.00949 0.83422 0.65569 0.0
C1083 C 0.06768 0.82653 0.64406 0.0
C1084 C 0.03495 0.79657 0.65047 0.0
C1085 C 0.97396 0.77072 0.66524 0.0
C1086 C 0.94633 0.77528 0.67325 0.0
C1087 C 0.00592 0.80018 0.65687 0.0
C1088 C 0.95013 0.8092 0.67167 0.0
C1089 C 0.98115 0.83828 0.66271 0.0
H1090 H 0.19312 0.27204 0.64425 0.0
H1091 H 0.12843 0.16208 0.62839 0.0
H1092 H 0.17858 0.15222 0.64146 0.0
H1093 H 0.23956 0.17459 0.65963 0.0
H1094 H 0.30637 0.28574 0.6722 0.0
H1095 H 0.25686 0.29604 0.6578 0.0
C1096 C 0.19051 0.24622 0.64315 0.0
C1097 C 0.15724 0.21761 0.63588 0.0
C1098 C 0.21959 0.24109 0.65026 0.0
C1099 C 0.15368 0.18412 0.63458 0.0
C1100 C 0.18229 0.17858 0.64194 0.0
C1101 C 0.24307 0.201 0.65913 0.0
C1102 C 0.27581 0.22934 0.66727 0.0
C1103 C 0.21503 0.20672 0.65032 0.0
C1104 C 0.28096 0.26367 0.66615 0.0
C1105 C 0.2528 0.26948 0.65794 0.0
H1106 H 0.77394 0.94732 0.67902 0.0
H1107 H 0.83258 0.99681 0.61755 0.0
H1108 H 0.84748 0.05516 0.62972 0.0
H1109 H 0.84183 0.09146 0.65704 0.0
H1110 H 0.78382 0.04282 0.71913 0.0
H1111 H 0.77096 0.98471 0.70775 0.0
C1112 C 0.79028 0.97107 0.66855 0.0
C1113 C 0.80192 0.96812 0.64737 0.0
C1114 C 0.79869 1.00445 0.67572 0.0
C1115 C 0.82303 0.99875 0.63375 0.0
C1116 C 0.83156 0.03196 0.64073 0.0
C1117 C 0.82635 0.0682 0.66814 0.0
C1118 C 0.81348 0.07144 0.6888 0.0
C1119 C 0.81912 0.03505 0.66153 0.0
C1120 C 0.79396 0.04105 0.7031 0.0
C1121 C 0.78654 1.00781 0.69659 0.0
H1122 H 0.55006 0.40477 0.73766 0.0
H1123 H 0.4723 0.42822 0.76244 0.0
H1124 H 0.42232 0.37359 0.7468 0.0
H1125 H 0.40089 0.31841 0.72665 0.0
H1126 H 0.47917 0.2975 0.69937 0.0
H1127 H 0.52879 0.35208 0.71495 0.0
C1128 C 0.52216 0.3981 0.73926 0.0
C1129 C 0.51475 0.42012 0.7514 0.0
C1130 C 0.49372 0.36712 0.72977 0.0
C1131 C 0.47852 0.41119 0.75357 0.0
C1132 C 0.45002 0.3801 0.74454 0.0
C1133 C 0.42882 0.32589 0.7241 0.0
C1134 C 0.43634 0.30388 0.71198 0.0
C1135 C 0.45729 0.35767 0.73278 0.0
C1136 C 0.47265 0.31407 0.70856 0.0
C1137 C 0.50107 0.34522 0.71753 0.0
H1138 H 0.59986 0.09629 0.73335 0.0
H1139 H 0.64882 0.15247 0.79513 0.0
H1140 H 0.70833 0.16446 0.78445 0.0
H1141 H 0.74676 0.16501 0.75554 0.0
H1142 H 0.6993 0.11152 0.69235 0.0
H1143 H 0.63866 0.09348 0.70507 0.0
C1144 C 0.62361 0.11032 0.74462 0.0
C1145 C 0.62017 0.1229 0.76519 0.0
C1146 C 0.65787 0.11852 0.73774 0.0
C1147 C 0.65079 0.14153 0.77967 0.0
C1148 C 0.68485 0.14898 0.77331 0.0
C1149 C 0.72323 0.14884 0.74463 0.0
C1150 C 0.72757 0.13952 0.72303 0.0
C1151 C 0.68876 0.13848 0.75209 0.0
C1152 C 0.6967 0.11923 0.70898 0.0
C1153 C 0.66207 0.10874 0.71631 0.0
H1154 H 0.93502 0.54373 0.75494 0.0
H1155 H 0.8208 0.46733 0.75044 0.0
H1156 H 0.80702 0.51435 0.7392 0.0
H1157 H 0.82782 0.57634 0.72771 0.0
H1158 H 0.94148 0.65432 0.73413 0.0
H1159 H 0.95536 0.60783 0.7479 0.0
C1160 C 0.90717 0.5377 0.75197 0.0
C1161 C 0.87891 0.50222 0.75304 0.0
C1162 C 0.8995 0.56505 0.74566 0.0
C1163 C 0.84288 0.49448 0.74919 0.0
C1164 C 0.83504 0.5213 0.7428 0.0
C1165 C 0.85562 0.58314 0.73222 0.0
C1166 C 0.8837 0.61844 0.72953 0.0
C1167 C 0.86319 0.55651 0.7404 0.0
C1168 C 0.91949 0.62718 0.73594 0.0
C1169 C 0.9274 0.60062 0.74375 0.0
H1170 H 0.44654 0.90156 0.2461 0.0
H1171 H 0.51634 0.9997 0.2787 0.0
H1172 H 0.54165 0.02886 0.24146 0.0
H1173 H 0.53826 0.02717 0.1992 0.0
H1174 H 0.46958 0.92744 0.16713 0.0
H1175 H 0.44936 0.8979 0.20458 0.0
C1176 C 0.4679 0.9291 0.2449 0.0
C1177 C 0.47988 0.94874 0.2647 0.0
C1178 C 0.48198 0.94533 0.2236 0.0
C1179 C 0.50725 0.98438 0.26344 0.0
C1180 C 0.52139 1.00092 0.24222 0.0
C1181 C 0.51953 0.99884 0.20041 0.0
C1182 C 0.50481 0.97979 0.18028 0.0
C1183 C 0.50823 0.98183 0.22208 0.0
C1184 C 0.48049 0.94304 0.18225 0.0
C1185 C 0.46905 0.92601 0.20367 0.0
H1186 H 0.01457 0.5073 0.27312 0.0
H1187 H 0.12604 0.54225 0.26145 0.0
H1188 H 0.10968 0.52238 0.2218 0.0
H1189 H 0.06416 0.50187 0.18933 0.0
H1190 H 0.95293 0.4698 0.20159 0.0
H1191 H 0.96831 0.48107 0.24214 0.0
C1192 C 0.03489 0.5094 0.26197 0.0
C1193 C 0.07123 0.52577 0.2699 0.0
C1194 C 0.02531 0.4989 0.23927 0.0
C1195 C 0.09783 0.52918 0.25555 0.0
C1196 C 0.08847 0.51823 0.2329 0.0
C1197 C 0.04327 0.49709 0.20093 0.0
C1198 C 0.00745 0.48513 0.19232 0.0
C1199 C 0.05242 0.50419 0.22434 0.0
C1200 C 0.98061 0.47859 0.20768 0.0
C1201 C 0.9894 0.48527 0.2309 0.0
H1202 H 0.48945 0.55276 0.27128 0.0
H1203 H 0.39121 0.55036 0.24638 0.0
H1204 H 0.39117 0.5225 0.21122 0.0
H1205 H 0.42364 0.50525 0.18597 0.0
H1206 H 0.52369 0.51061 0.2114 0.0
H1207 H 0.5185 0.53051 0.24796 0.0
C1208 C 0.46761 0.54514 0.25833 0.0
C1209 C 0.4403 0.55319 0.26119 0.0
C1210 C 0.4685 0.5302 0.23816 0.0
C1211 C 0.41218 0.54385 0.24444 0.0
C1212 C 0.41249 0.52838 0.22432 0.0
C1213 C 0.44414 0.51057 0.19958 0.0
C1214 C 0.47406 0.50645 0.19584 0.0
C1215 C 0.44123 0.5225 0.22067 0.0
C1216 C 0.50016 0.51307 0.2138 0.0
C1217 C 0.49737 0.5247 0.23472 0.0
H1218 H 0.87473 0.47232 0.81106 0.0
H1219 H 0.97574 0.51074 0.77845 0.0
H1220 H 0.00965 0.53701 0.81415 0.0
H1221 H 0.00984 0.54128 0.8557 0.0
H1222 H 0.90851 0.50182 0.88893 0.0
H1223 H 0.87527 0.48333 0.85211 0.0
C1224 C 0.90414 0.48757 0.81177 0.0
C1225 C 0.92303 0.49026 0.79237 0.0
C1226 C 0.92322 0.50146 0.83257 0.0
C1227 C 0.96105 0.50911 0.79328 0.0
C1228 C 0.98026 0.52366 0.8137 0.0
C1229 C 0.98056 0.52946 0.85488 0.0
C1230 C 0.96177 0.5225 0.8752 0.0
C1231 C 0.96159 0.5189 0.83366 0.0
C1232 C 0.9237 0.50673 0.8737 0.0
C1233 C 0.90463 0.49635 0.8526 0.0
H1234 H 0.55041 0.52978 0.79772 0.0
H1235 H 0.62093 0.49125 0.82449 0.0
H1236 H 0.61486 0.50418 0.86367 0.0
H1237 H 0.58139 0.51774 0.89051 0.0
H1238 H 0.50689 0.55178 0.86268 0.0
H1239 H 0.5227 0.54975 0.82393 0.0
C1240 C 0.56572 0.52587 0.81211 0.0
C1241 C 0.5866 0.5103 0.80836 0.0
C1242 C 0.56047 0.53166 0.83449 0.0
C1243 C 0.60548 0.50409 0.82704 0.0
C1244 C 0.60136 0.51082 0.84943 0.0
C1245 C 0.5688 0.52494 0.87597 0.0
C1246 C 0.54278 0.53475 0.87971 0.0
C1247 C 0.57755 0.5231 0.85345 0.0
C1248 C 0.52725 0.54451 0.86056 0.0
C1249 C 0.53612 0.54318 0.83826 0.0
H1250 H 0.53424 0.04035 0.79436 0.0
H1251 H 0.60894 0.13893 0.82507 0.0
H1252 H 0.6032 0.1083 0.86265 0.0
H1253 H 0.56849 0.05551 0.88745 0.0
H1254 H 0.48605 0.95852 0.85734 0.0
H1255 H 0.50349 0.9858 0.81899 0.0
C1256 C 0.55031 0.05457 0.80922 0.0
C1257 C 0.57282 0.09146 0.80706 0.0
C1258 C 0.54464 0.03707 0.83097 0.0
C1259 C 0.59261 0.11031 0.82635 0.0
C1260 C 0.58869 0.09287 0.84786 0.0
C1261 C 0.55442 0.04023 0.87251 0.0
C1262 C 0.52551 1.0052 0.87536 0.0
C1263 C 0.56344 0.05657 0.85052 0.0
C1264 C 0.50841 0.9855 0.85576 0.0
C1265 C 0.51818 1.00118 0.83376 0.0
H1266 H 0.13449 0.22816 0.5791 0.0
H1267 H 0.17346 0.31752 0.62142 0.0
H1268 H 0.21028 0.35764 0.59016 0.0
H1269 H 0.225 0.3674 0.54945 0.0
H1270 H 0.18119 0.27776 0.50621 0.0
H1271 H 0.15365 0.23746 0.53916 0.0
C1272 C 0.1518 0.25635 0.58142 0.0
C1273 C 0.15158 0.27031 0.60214 0.0
C1274 C 0.17178 0.27906 0.5632 0.0
C1275 C 0.17359 0.30669 0.60537 0.0
C1276 C 0.19435 0.32944 0.58754 0.0
C1277 C 0.20961 0.33904 0.54726 0.0
C1278 C 0.20492 0.32577 0.5253 0.0
C1279 C 0.19265 0.31601 0.56612 0.0
C1280 C 0.1856 0.28884 0.52289 0.0
C1281 C 0.16946 0.2657 0.5417 0.0
H1282 H 0.80375 0.89796 0.5772 0.0
H1283 H 0.70269 0.83565 0.61071 0.0
H1284 H 0.67125 0.81203 0.57378 0.0
H1285 H 0.6718 0.81686 0.53152 0.0
H1286 H 0.77402 0.8785 0.49825 0.0
H1287 H 0.80595 0.89471 0.5355 0.0
C1288 C 0.77513 0.87816 0.57634 0.0
C1289 C 0.75537 0.86803 0.59633 0.0
C1290 C 0.75747 0.86537 0.5551 0.0
C1291 C 0.71821 0.84309 0.59536 0.0
C1292 C 0.70032 0.83004 0.57428 0.0
C1293 C 0.70114 0.83303 0.53236 0.0
C1294 C 0.72028 0.8472 0.512 0.0
C1295 C 0.7195 0.84206 0.55392 0.0
C1296 C 0.75838 0.86819 0.51357 0.0
C1297 C 0.77676 0.8773 0.53489 0.0
H1298 H 0.16441 0.86498 0.6129 0.0
H1299 H 0.07625 0.88187 0.58997 0.0
H1300 H 0.07184 0.85605 0.55305 0.0
H1301 H 0.09838 0.8353 0.52592 0.0
H1302 H 0.18919 0.82181 0.54901 0.0
H1303 H 0.18724 0.83935 0.5872 0.0
C1304 C 0.14388 0.86229 0.59987 0.0
C1305 C 0.12083 0.87532 0.60381 0.0
C1306 C 0.14237 0.84847 0.57866 0.0
C1307 C 0.09405 0.87171 0.58712 0.0
C1308 C 0.09187 0.85735 0.56603 0.0
C1309 C 0.11759 0.83602 0.53935 0.0
C1310 C 0.14399 0.82737 0.53448 0.0
C1311 C 0.11674 0.84675 0.56132 0.0
C1312 C 0.16831 0.82791 0.55224 0.0
C1313 C 0.16742 0.83819 0.5741 0.0
H1314 H 0.56023 0.80519 0.14315 0.0
H1315 H 0.65933 0.8637 0.10709 0.0
H1316 H 0.69117 0.89633 0.14157 0.0
H1317 H 0.69181 0.90344 0.18295 0.0
H1318 H 0.59346 0.84 0.21993 0.0
H1319 H 0.56009 0.8146 0.18425 0.0
C1320 C 0.58851 0.82589 0.14287 0.0
C1321 C 0.60739 0.83305 0.1227 0.0
C1322 C 0.60676 0.84324 0.163 0.0
C1323 C 0.64427 0.85886 0.12238 0.0
C1324 C 0.66245 0.87705 0.14213 0.0
C1325 C 0.66308 0.88407 0.18324 0.0
C1326 C 0.64536 0.87359 0.20422 0.0
C1327 C 0.64418 0.86872 0.16272 0.0
C1328 C 0.60787 0.84898 0.20409 0.0
C1329 C 0.58873 0.83416 0.18369 0.0
H1330 H 0.25814 0.79636 0.16896 0.0
H1331 H 0.22275 0.85674 0.12459 0.0
H1332 H 0.21107 0.8798 0.15811 0.0
H1333 H 0.20141 0.8743 0.19981 0.0
H1334 H 0.23693 0.81303 0.24401 0.0
H1335 H 0.25757 0.79836 0.21092 0.0
C1336 C 0.24941 0.81581 0.16679 0.0
C1337 C 0.24168 0.82528 0.1445 0.0
C1338 C 0.24151 0.82768 0.18612 0.0
C1339 C 0.22953 0.84977 0.14165 0.0
C1340 C 0.22224 0.86234 0.16082 0.0
C1341 C 0.21439 0.8584 0.20235 0.0
C1342 C 0.21659 0.84406 0.22449 0.0
C1343 C 0.22661 0.85021 0.18314 0.0
C1344 C 0.23357 0.82346 0.2272 0.0
C1345 C 0.2458 0.81532 0.20827 0.0
H1346 H 0.28327 0.48357 0.16337 0.0
H1347 H 0.20306 0.39233 0.12763 0.0
H1348 H 0.19146 0.35512 0.163 0.0
H1349 H 0.19694 0.35139 0.20485 0.0
H1350 H 0.27674 0.44287 0.24133 0.0
H1351 H 0.29574 0.47735 0.20505 0.0
C1352 C 0.2644 0.45527 0.16336 0.0
C1353 C 0.24428 0.44029 0.14315 0.0
C1354 C 0.25713 0.43447 0.18395 0.0
C1355 C 0.21911 0.40389 0.1431 0.0
C1356 C 0.21223 0.38287 0.16333 0.0
C1357 C 0.21922 0.37853 0.20492 0.0
C1358 C 0.2348 0.39462 0.2259 0.0
C1359 C 0.22999 0.39821 0.18403 0.0
C1360 C 0.26348 0.43003 0.2255 0.0
C1361 C 0.27455 0.44976 0.20474 0.0
H1362 H 0.77998 0.56777 0.90637 0.0
H1363 H 0.85502 0.64877 0.95133 0.0
H1364 H 0.89019 0.68526 0.91833 0.0
H1365 H 0.89555 0.69574 0.87625 0.0
H1366 H 0.81944 0.61371 0.83169 0.0
H1367 H 0.78889 0.57553 0.86487 0.0
C1368 C 0.80436 0.59324 0.90874 0.0
C1369 C 0.81507 0.60613 0.93081 0.0
C1370 C 0.824 0.61371 0.88983 0.0
C1371 C 0.84666 0.6388 0.93423 0.0
C1372 C 0.86649 0.65952 0.91544 0.0
C1373 C 0.87253 0.66936 0.8739 0.0
C1374 C 0.85969 0.65758 0.85161 0.0
C1375 C 0.85485 0.64759 0.89309 0.0
C1376 C 0.83007 0.62323 0.8487 0.0
C1377 C 0.81238 0.60147 0.86764 0.0
H1378 H 0.36578 0.17253 0.9365 0.0
H1379 H 0.47915 0.22868 0.92242 0.0
H1380 H 0.46446 0.21708 0.88137 0.0
H1381 H 0.4187 0.19945 0.84914 0.0
H1382 H 0.30488 0.14387 0.86394 0.0
H1383 H 0.32015 0.14689 0.90497 0.0
C1384 C 0.38709 0.18077 0.92445 0.0
C1385 C 0.42337 0.20095 0.93223 0.0
C1386 C 0.37825 0.17511 0.90097 0.0
C1387 C 0.45108 0.21248 0.91667 0.0
C1388 C 0.44259 0.20635 0.89322 0.0
C1389 C 0.39721 0.1873 0.86131 0.0
C1390 C 0.36066 0.17228 0.85334 0.0
C1391 C 0.40619 0.18902 0.88505 0.0
C1392 C 0.33325 0.15666 0.86949 0.0
C1393 C 0.34192 0.15806 0.89301 0.0
H1394 H 0.73967 0.22348 0.9057 0.0
H1395 H 0.7816 0.17167 0.95303 0.0
H1396 H 0.7923 0.14498 0.92118 0.0
H1397 H 0.79747 0.14342 0.87959 0.0
H1398 H 0.75805 0.19788 0.83206 0.0
H1399 H 0.73834 0.21627 0.86398 0.0
C1400 C 0.74977 0.20518 0.90891 0.0
C1401 C 0.75932 0.19889 0.93153 0.0
C1402 C 0.75712 0.19119 0.89041 0.0
C1403 C 0.77339 0.17607 0.93571 0.0
C1404 C 0.78001 0.16136 0.91749 0.0
C1405 C 0.78435 0.15912 0.87623 0.0
C1406 C 0.77967 0.16958 0.85345 0.0
C1407 C 0.77332 0.16988 0.89471 0.0
C1408 C 0.76196 0.18936 0.84938 0.0
C1409 C 0.75078 0.20003 0.86765 0.0
H1410 H 0.32193 0.18338 0.44953 0.0
H1411 H 0.21241 0.15005 0.46586 0.0
H1412 H 0.2334 0.17482 0.50402 0.0
H1413 H 0.28246 0.2001 0.53402 0.0
H1414 H 0.39161 0.22984 0.51775 0.0
H1415 H 0.37151 0.21268 0.47837 0.0
C1416 C 0.30293 0.18208 0.46145 0.0
C1417 C 0.26582 0.16483 0.45523 0.0
C1418 C 0.31515 0.19541 0.48341 0.0
C1419 C 0.24115 0.16345 0.47045 0.0
C1420 C 0.25314 0.17728 0.49226 0.0
C1421 C 0.30186 0.20295 0.52183 0.0
C1422 C 0.33851 0.21614 0.52898 0.0
C1423 C 0.28998 0.19233 0.49919 0.0
C1424 C 0.36336 0.2202 0.51278 0.0
C1425 C 0.35185 0.21013 0.49024 0.0
H1426 H 0.87256 0.19905 0.46229 0.0
H1427 H 0.94737 0.16393 0.48551 0.0
H1428 H 0.94309 0.17574 0.52536 0.0
H1429 H 0.91143 0.18879 0.55393 0.0
H1430 H 0.83341 0.22026 0.52972 0.0
H1431 H 0.84551 0.21734 0.49016 0.0
C1432 C 0.88878 0.19519 0.47608 0.0
C1433 C 0.91047 0.18101 0.47113 0.0
C1434 C 0.88489 0.20065 0.49886 0.0
C1435 C 0.93103 0.17544 0.489 0.0
C1436 C 0.92805 0.18165 0.51177 0.0
C1437 C 0.89721 0.19518 0.54 0.0
C1438 C 0.87143 0.20469 0.54501 0.0
C1439 C 0.90394 0.19298 0.51701 0.0
C1440 C 0.8537 0.21331 0.5266 0.0
C1441 C 0.86044 0.21147 0.50386 0.0
H1442 H 0.84978 0.69312 0.46275 0.0
H1443 H 0.9369 0.79824 0.4759 0.0
H1444 H 0.94078 0.7806 0.51654 0.0
H1445 H 0.91316 0.73691 0.54901 0.0
H1446 H 0.82311 0.63264 0.53511 0.0
H1447 H 0.82674 0.64788 0.49414 0.0
C1448 C 0.87032 0.71163 0.4745 0.0
C1449 C 0.89316 0.74667 0.46666 0.0
C1450 C 0.87133 0.70153 0.49773 0.0
C1451 C 0.91947 0.77099 0.48175 0.0
C1452 C 0.92126 0.76097 0.50495 0.0
C1453 C 0.89454 0.71748 0.53698 0.0
C1454 C 0.86777 0.68372 0.54522 0.0
C1455 C 0.89633 0.72664 0.5133 0.0
C1456 C 0.84421 0.65867 0.52934 0.0
C1457 C 0.84608 0.66741 0.50586 0.0
loop_
_geom_bond_atom_site_label_1
_geom_bond_atom_site_label_2
_geom_bond_distance
_geom_bond_site_symmetry_2
_ccdc_geom_bond_type
C0 N1 1.317 . S
C0 N2 1.348 . S
C0 C3 1.485 . S
N1 C0 1.317 . S
N1 N5 1.370 . S
N2 C0 1.348 . S
N2 C4 1.346 . S
C3 C0 1.485 . S
C3 H7 0.960 . S
C3 H8 0.961 . S
C3 H9 0.960 . S
C4 N2 1.346 . S
C4 N5 1.307 . S
C4 C6 1.486 . S
N5 N1 1.370 . S
N5 C4 1.307 . S
C6 C4 1.486 . S
C6 H10 0.960 . S
C6 H11 0.960 . S
C6 H12 0.959 . S
H7 C3 0.960 . S
H8 C3 0.961 . S
H9 C3 0.960 . S
H10 C6 0.960 . S
H11 C6 0.960 . S
H12 C6 0.959 . S
C13 N14 1.317 . S
C13 N15 1.348 . S
C13 C16 1.485 . S
N14 C13 1.317 . S
N14 N18 1.370 . S
N15 C13 1.348 . S
N15 C17 1.346 . S
C16 C13 1.485 . S
C16 H20 0.960 . S
C16 H21 0.961 . S
C16 H22 0.960 . S
C17 N15 1.346 . S
C17 N18 1.307 . S
C17 C19 1.486 . S
N18 N14 1.370 . S
N18 C17 1.307 . S
C19 C17 1.486 . S
C19 H23 0.960 . S
C19 H24 0.960 . S
C19 H25 0.959 . S
H20 C16 0.960 . S
H21 C16 0.961 . S
H22 C16 0.960 . S
H23 C19 0.960 . S
H24 C19 0.960 . S
H25 C19 0.959 . S
C26 N27 1.317 . S
C26 N28 1.348 . S
C26 C29 1.485 . S
N27 C26 1.317 . S
N27 N31 1.370 . S
N28 C26 1.348 . S
N28 C30 1.346 . S
C29 C26 1.485 . S
C29 H33 0.960 . S
C29 H34 0.961 . S
C29 H35 0.960 . S
C30 N28 1.346 . S
C30 N31 1.307 . S
C30 C32 1.486 . S
N31 N27 1.370 . S
N31 C30 1.307 . S
C32 C30 1.486 . S
C32 H36 0.960 . S
C32 H37 0.960 . S
C32 H38 0.959 . S
H33 C29 0.960 . S
H34 C29 0.961 . S
H35 C29 0.960 . S
H36 C32 0.960 . S
H37 C32 0.960 . S
H38 C32 0.959 . S
C39 N40 1.317 . S
C39 N41 1.348 . S
C39 C42 1.485 . S
N40 C39 1.317 . S
N40 N44 1.370 . S
N41 C39 1.348 . S
N41 C43 1.346 . S
C42 C39 1.485 . S
C42 H46 0.960 . S
C42 H47 0.961 . S
C42 H48 0.960 . S
C43 N41 1.346 . S
C43 N44 1.307 . S
C43 C45 1.486 . S
N44 N40 1.370 . S
N44 C43 1.307 . S
C45 C43 1.486 . S
C45 H49 0.960 . S
C45 H50 0.960 . S
C45 H51 0.959 . S
H46 C42 0.960 . S
H47 C42 0.961 . S
H48 C42 0.960 . S
H49 C45 0.960 . S
H50 C45 0.960 . S
H51 C45 0.959 . S
C52 N53 1.317 . S
C52 N54 1.348 . S
C52 C55 1.485 . S
N53 C52 1.317 . S
N53 N57 1.370 . S
N54 C52 1.348 . S
N54 C56 1.346 . S
C55 C52 1.485 . S
C55 H59 0.960 . S
C55 H60 0.961 . S
C55 H61 0.960 . S
C56 N54 1.346 . S
C56 N57 1.307 . S
C56 C58 1.486 . S
N57 N53 1.370 . S
N57 C56 1.307 . S
C58 C56 1.486 . S
C58 H62 0.960 . S
C58 H63 0.960 . S
C58 H64 0.959 . S
H59 C55 0.960 . S
H60 C55 0.961 . S
H61 C55 0.960 . S
H62 C58 0.960 . S
H63 C58 0.960 . S
H64 C58 0.959 . S
C65 N66 1.317 . S
C65 N67 1.348 . S
C65 C68 1.485 . S
N66 C65 1.317 . S
N66 N70 1.370 . S
N67 C65 1.348 . S
N67 C69 1.346 . S
C68 C65 1.485 . S
C68 H72 0.960 . S
C68 H73 0.961 . S
C68 H74 0.960 . S
C69 N67 1.346 . S
C69 N70 1.307 . S
C69 C71 1.486 . S
N70 N66 1.370 . S
N70 C69 1.307 . S
C71 C69 1.486 . S
C71 H75 0.960 . S
C71 H76 0.960 . S
C71 H77 0.959 . S
H72 C68 0.960 . S
H73 C68 0.961 . S
H74 C68 0.960 . S
H75 C71 0.960 . S
H76 C71 0.960 . S
H77 C71 0.959 . S
C78 N79 1.317 . S
C78 N80 1.348 . S
C78 C81 1.485 . S
N79 C78 1.317 . S
N79 N83 1.370 . S
N80 C78 1.348 . S
N80 C82 1.346 . S
C81 C78 1.485 . S
C81 H85 0.960 . S
C81 H86 0.961 . S
C81 H87 0.960 . S
C82 N80 1.346 . S
C82 N83 1.307 . S
C82 C84 1.486 . S
N83 N79 1.370 . S
N83 C82 1.307 . S
C84 C82 1.486 . S
C84 H88 0.960 . S
C84 H89 0.960 . S
C84 H90 0.959 . S
H85 C81 0.960 . S
H86 C81 0.961 . S
H87 C81 0.960 . S
H88 C84 0.960 . S
H89 C84 0.960 . S
H90 C84 0.959 . S
C91 N92 1.317 . S
C91 N93 1.348 . S
C91 C94 1.485 . S
N92 C91 1.317 . S
N92 N96 1.370 . S
N93 C91 1.348 . S
N93 C95 1.346 . S
C94 C91 1.485 . S
C94 H98 0.960 . S
C94 H99 0.961 . S
C94 H100 0.960 . S
C95 N93 1.346 . S
C95 N96 1.307 . S
C95 C97 1.486 . S
N96 N92 1.370 . S
N96 C95 1.307 . S
C97 C95 1.486 . S
C97 H101 0.960 . S
C97 H102 0.960 . S
C97 H103 0.959 . S
H98 C94 0.960 . S
H99 C94 0.961 . S
H100 C94 0.960 . S
H101 C97 0.960 . S
H102 C97 0.960 . S
H103 C97 0.959 . S
C104 N105 1.317 . S
C104 N106 1.348 . S
C104 C107 1.485 . S
N105 C104 1.317 . S
N105 N109 1.370 . S
N106 C104 1.348 . S
N106 C108 1.346 . S
C107 C104 1.485 . S
C107 H111 0.960 . S
C107 H112 0.961 . S
C107 H113 0.960 . S
C108 N106 1.346 . S
C108 N109 1.307 . S
C108 C110 1.486 . S
N109 N105 1.370 . S
N109 C108 1.307 . S
C110 C108 1.486 . S
C110 H114 0.960 . S
C110 H115 0.960 . S
C110 H116 0.959 . S
H111 C107 0.960 . S
H112 C107 0.961 . S
H113 C107 0.960 . S
H114 C110 0.960 . S
H115 C110 0.960 . S
H116 C110 0.959 . S
C117 N118 1.317 . S
C117 N119 1.348 . S
C117 C120 1.485 . S
N118 C117 1.317 . S
N118 N122 1.370 . S
N119 C117 1.348 . S
N119 C121 1.346 . S
C120 C117 1.485 . S
C120 H124 0.960 . S
C120 H125 0.961 . S
C120 H126 0.960 . S
C121 N119 1.346 . S
C121 N122 1.307 . S
C121 C123 1.486 . S
N122 N118 1.370 . S
N122 C121 1.307 . S
C123 C121 1.486 . S
C123 H127 0.960 . S
C123 H128 0.960 . S
C123 H129 0.959 . S
H124 C120 0.960 . S
H125 C120 0.961 . S
H126 C120 0.960 . S
H127 C123 0.960 . S
H128 C123 0.960 . S
H129 C123 0.959 . S
C130 N131 1.317 . S
C130 N132 1.348 . S
C130 C133 1.485 1_556 S
N131 C130 1.317 . S
N131 N135 1.370 . S
N132 C130 1.348 . S
N132 C134 1.346 . S
C133 C130 1.485 1_554 S
C133 H137 0.960 . S
C133 H138 0.961 . S
C133 H139 0.960 . S
C134 N132 1.346 . S
C134 N135 1.307 . S
C134 C136 1.486 . S
N135 N131 1.370 . S
N135 C134 1.307 . S
C136 C134 1.486 . S
C136 H140 0.960 . S
C136 H141 0.960 . S
C136 H142 0.959 . S
H137 C133 0.960 . S
H138 C133 0.961 . S
H139 C133 0.960 . S
H140 C136 0.960 . S
H141 C136 0.960 . S
H142 C136 0.959 . S
C143 N144 1.317 . S
C143 N145 1.348 . S
C143 C146 1.485 1_556 S
N144 C143 1.317 . S
N144 N148 1.370 . S
N145 C143 1.348 . S
N145 C147 1.346 . S
C146 C143 1.485 1_554 S
C146 H150 0.960 . S
C146 H151 0.961 . S
C146 H152 0.960 . S
C147 N145 1.346 . S
C147 N148 1.307 . S
C147 C149 1.486 . S
N148 N144 1.370 . S
N148 C147 1.307 . S
C149 C147 1.486 . S
C149 H153 0.960 . S
C149 H154 0.960 . S
C149 H155 0.959 . S
H150 C146 0.960 . S
H151 C146 0.961 . S
H152 C146 0.960 . S
H153 C149 0.960 . S
H154 C149 0.960 . S
H155 C149 0.959 . S
C156 N157 1.317 . S
C156 N158 1.348 . S
C156 C159 1.485 . S
N157 C156 1.317 . S
N157 N161 1.370 . S
N158 C156 1.348 . S
N158 C160 1.346 . S
C159 C156 1.485 . S
C159 H163 0.963 . S
C159 H164 0.961 1_554 S
C159 H165 0.960 1_554 S
C160 N158 1.346 . S
C160 N161 1.307 . S
C160 C162 1.486 . S
N161 N157 1.370 . S
N161 C160 1.307 . S
C162 C160 1.486 . S
C162 H166 0.960 . S
C162 H167 0.960 . S
C162 H168 0.959 . S
H163 C159 0.963 . S
H164 C159 0.961 1_556 S
H165 C159 0.960 1_556 S
H166 C162 0.960 . S
H167 C162 0.960 . S
H168 C162 0.959 . S
C169 N170 1.317 . S
C169 N171 1.348 . S
C169 C172 1.485 . S
N170 C169 1.317 . S
N170 N174 1.370 . S
N171 C169 1.348 . S
N171 C173 1.346 . S
C172 C169 1.485 . S
C172 H176 0.960 . S
C172 H177 0.961 . S
C172 H178 0.960 . S
C173 N171 1.346 . S
C173 N174 1.307 . S
C173 C175 1.486 . S
N174 N170 1.370 . S
N174 C173 1.307 . S
C175 C173 1.486 . S
C175 H179 0.960 . S
C175 H180 0.960 . S
C175 H181 0.959 . S
H176 C172 0.960 . S
H177 C172 0.961 . S
H178 C172 0.960 . S
H179 C175 0.960 . S
H180 C175 0.960 . S
H181 C175 0.959 . S
C182 N183 1.317 . S
C182 N184 1.348 . S
C182 C185 1.485 . S
N183 C182 1.317 . S
N183 N187 1.370 . S
N184 C182 1.348 . S
N184 C186 1.346 . S
C185 C182 1.485 . S
C185 H189 0.960 . S
C185 H190 0.961 . S
C185 H191 0.960 . S
C186 N184 1.346 . S
C186 N187 1.307 . S
C186 C188 1.486 . S
N187 N183 1.370 . S
N187 C186 1.307 . S
C188 C186 1.486 . S
C188 H192 0.960 . S
C188 H193 0.960 . S
C188 H194 0.959 . S
H189 C185 0.960 . S
H190 C185 0.961 . S
H191 C185 0.960 . S
H192 C188 0.960 . S
H193 C188 0.960 . S
H194 C188 0.959 . S
C195 N196 1.317 . S
C195 N197 1.348 . S
C195 C198 1.485 . S
N196 C195 1.317 . S
N196 N200 1.370 . S
N197 C195 1.348 . S
N197 C199 1.346 . S
C198 C195 1.485 . S
C198 H202 0.960 . S
C198 H203 0.961 . S
C198 H204 0.960 . S
C199 N197 1.346 . S
C199 N200 1.307 . S
C199 C201 1.486 . S
N200 N196 1.370 . S
N200 C199 1.307 . S
C201 C199 1.486 . S
C201 H205 0.960 . S
C201 H206 0.960 . S
C201 H207 0.959 . S
H202 C198 0.960 . S
H203 C198 0.961 . S
H204 C198 0.960 . S
H205 C201 0.960 . S
H206 C201 0.960 . S
H207 C201 0.959 . S
C208 N209 1.317 . S
C208 N210 1.348 . S
C208 C211 1.485 . S
N209 C208 1.317 . S
N209 N213 1.370 . S
N210 C208 1.348 . S
N210 C212 1.346 . S
C211 C208 1.485 . S
C211 H215 0.960 . S
C211 H216 0.961 . S
C211 H217 0.960 . S
C212 N210 1.346 . S
C212 N213 1.307 . S
C212 C214 1.486 . S
N213 N209 1.370 . S
N213 C212 1.307 . S
C214 C212 1.486 . S
C214 H218 0.960 . S
C214 H219 0.960 . S
C214 H220 0.959 . S
H215 C211 0.960 . S
H216 C211 0.961 . S
H217 C211 0.960 . S
H218 C214 0.960 . S
H219 C214 0.960 . S
H220 C214 0.959 . S
C221 N222 1.317 . S
C221 N223 1.348 . S
C221 C224 1.485 . S
N222 C221 1.317 . S
N222 N226 1.370 . S
N223 C221 1.348 . S
N223 C225 1.346 . S
C224 C221 1.485 . S
C224 H228 0.960 . S
C224 H229 0.961 . S
C224 H230 0.960 . S
C225 N223 1.346 . S
C225 N226 1.307 . S
C225 C227 1.486 . S
N226 N222 1.370 . S
N226 C225 1.307 . S
C227 C225 1.486 . S
C227 H231 0.960 . S
C227 H232 0.960 . S
C227 H233 0.959 . S
H228 C224 0.960 . S
H229 C224 0.961 . S
H230 C224 0.960 . S
H231 C227 0.960 . S
H232 C227 0.960 . S
H233 C227 0.959 . S
Tb234 C244 2.825 1_565 S
Tb234 O245 2.320 1_566 S
Tb234 O248 2.366 1_565 S
Tb234 O253 2.418 . S
Tb234 O254 2.384 1_556 S
Tb234 O257 2.479 . S
Tb234 O258 2.471 1_565 S
Eu235 O246 2.418 . S
Eu235 O247 2.384 . S
Eu235 O250 2.479 . S
Eu235 O251 2.471 1_545 S
Eu235 O252 2.347 1_545 S
Eu235 O255 2.366 1_545 S
Eu235 C265 2.825 1_545 S
C236 O252 1.259 . S
C236 O253 1.265 1_554 S
C237 O254 1.255 . S
C237 O255 1.265 . S
C238 C240 1.380 . S
C238 C241 1.374 . S
C238 C244 1.507 . S
C239 C240 1.384 . S
C239 C243 1.387 . S
C239 H266 0.930 . S
C240 C238 1.380 . S
C240 C239 1.384 . S
C240 H267 0.931 1_545 S
C241 C238 1.374 . S
C241 C242 1.390 . S
C241 H268 0.930 . S
C242 C241 1.390 . S
C242 C243 1.391 . S
C242 H269 0.930 . S
C243 C239 1.387 . S
C243 C242 1.391 . S
C244 Tb234 2.825 1_545 S
C244 C238 1.507 . S
C244 O257 1.238 1_545 S
C244 O258 1.247 . S
O245 Tb234 2.320 1_544 S
O245 C249 1.284 . S
O246 Eu235 2.418 . S
O246 C249 1.265 . S
O247 Eu235 2.384 . S
O247 C256 1.255 1_554 S
O248 Tb234 2.366 1_545 S
O248 C256 1.265 . S
C249 O245 1.284 . S
C249 O246 1.265 . S
O250 Eu235 2.479 . S
O250 C265 1.238 1_545 S
O251 Eu235 2.471 1_565 S
O251 C265 1.247 . S
O252 Eu235 2.347 1_565 S
O252 C236 1.259 . S
O253 Tb234 2.418 . S
O253 C236 1.265 1_556 S
O254 Tb234 2.384 1_554 S
O254 C237 1.255 . S
O255 Eu235 2.366 1_565 S
O255 C237 1.265 . S
C256 O247 1.255 1_556 S
C256 O248 1.265 . S
O257 Tb234 2.479 . S
O257 C244 1.238 1_565 S
O258 Tb234 2.471 1_545 S
O258 C244 1.247 . S
C259 C262 1.380 . S
C259 C263 1.374 . S
C259 C265 1.507 . S
C260 C261 1.387 . S
C260 C264 1.391 . S
C261 C260 1.387 . S
C261 C262 1.384 . S
C261 H270 0.930 . S
C262 C259 1.380 . S
C262 C261 1.384 . S
C262 H271 0.931 1_565 S
C263 C259 1.374 . S
C263 C264 1.390 . S
C263 H272 0.930 . S
C264 C260 1.391 . S
C264 C263 1.390 . S
C264 H273 0.930 . S
C265 Eu235 2.825 1_565 S
C265 O250 1.238 1_565 S
C265 O251 1.247 . S
C265 C259 1.507 . S
H266 C239 0.930 . S
H267 C240 0.931 1_565 S
H268 C241 0.930 . S
H269 C242 0.930 . S
H270 C261 0.930 . S
H271 C262 0.931 1_545 S
H272 C263 0.930 . S
H273 C264 0.930 . S
Tb274 C284 2.825 . S
Tb274 O285 2.347 1_455 S
Tb274 O288 2.366 1_455 S
Tb274 O293 2.418 . S
Tb274 O294 2.384 1_556 S
Tb274 O297 2.479 . S
Tb274 O298 2.463 1_455 S
Eu275 O286 2.418 . S
Eu275 O287 2.384 . S
Eu275 O290 2.479 . S
Eu275 O291 2.471 1_655 S
Eu275 O292 2.347 1_655 S
Eu275 O295 2.366 1_655 S
Eu275 C305 2.825 1_655 S
C276 O292 1.259 . S
C276 O293 1.265 1_554 S
C277 O294 1.255 . S
C277 O295 1.265 . S
C278 C280 1.378 1_655 S
C278 C281 1.377 . S
C278 C284 1.505 1_655 S
C279 C280 1.384 . S
C279 C283 1.387 1_455 S
C279 H306 0.930 . S
C280 C278 1.378 1_455 S
C280 C279 1.384 . S
C280 H307 0.931 . S
C281 C278 1.377 . S
C281 C282 1.390 . S
C281 H308 0.930 . S
C282 C281 1.390 . S
C282 C283 1.391 . S
C282 H309 0.930 . S
C283 C279 1.387 1_655 S
C283 C282 1.391 . S
C284 Tb274 2.825 . S
C284 C278 1.505 1_455 S
C284 O297 1.238 . S
C284 O298 1.246 1_455 S
O285 Tb274 2.347 1_655 S
O285 C289 1.259 1_556 S
O286 Eu275 2.418 . S
O286 C289 1.265 . S
O287 Eu275 2.384 . S
O287 C296 1.255 1_554 S
O288 Tb274 2.366 1_655 S
O288 C296 1.265 . S
C289 O285 1.259 1_554 S
C289 O286 1.265 . S
O290 Eu275 2.479 . S
O290 C305 1.238 1_655 S
O291 Eu275 2.471 1_455 S
O291 C305 1.247 . S
O292 Eu275 2.347 1_455 S
O292 C276 1.259 . S
O293 Tb274 2.418 . S
O293 C276 1.265 1_556 S
O294 Tb274 2.384 1_554 S
O294 C277 1.255 . S
O295 Eu275 2.366 1_455 S
O295 C277 1.265 . S
C296 O287 1.255 1_556 S
C296 O288 1.265 . S
O297 Tb274 2.479 . S
O297 C284 1.238 . S
O298 Tb274 2.463 1_655 S
O298 C284 1.246 1_655 S
C299 C302 1.380 1_455 S
C299 C303 1.374 . S
C299 C305 1.507 . S
C300 C301 1.387 . S
C300 C304 1.391 . S
C301 C300 1.387 . S
C301 C302 1.384 1_455 S
C301 H310 0.930 1_455 S
C302 C299 1.380 1_655 S
C302 C301 1.384 1_655 S
C302 H311 0.931 . S
C303 C299 1.374 . S
C303 C304 1.390 . S
C303 H312 0.930 . S
C304 C300 1.391 . S
C304 C303 1.390 . S
C304 H313 0.930 . S
C305 Eu275 2.825 1_455 S
C305 O290 1.238 1_455 S
C305 O291 1.247 . S
C305 C299 1.507 . S
H306 C279 0.930 . S
H307 C280 0.931 . S
H308 C281 0.930 . S
H309 C282 0.930 . S
H310 C301 0.930 1_655 S
H311 C302 0.931 . S
H312 C303 0.930 . S
H313 C304 0.930 . S
Tb314 C324 2.825 . S
Tb314 O325 2.347 . S
Tb314 O328 2.366 . S
Tb314 O333 2.418 . S
Tb314 O334 2.384 . S
Tb314 O337 2.479 . S
Tb314 O338 2.471 . S
Eu315 O326 2.418 . S
Eu315 O327 2.384 1_556 S
Eu315 O330 2.479 . S
Eu315 O331 2.471 . S
Eu315 O332 2.347 1_556 S
Eu315 O335 2.366 . S
Eu315 C345 2.825 . S
C316 O332 1.259 . S
C316 O333 1.265 . S
C317 O334 1.255 1_556 S
C317 O335 1.265 . S
C318 C320 1.380 . S
C318 C321 1.374 . S
C318 C324 1.507 . S
C319 C320 1.384 . S
C319 C323 1.387 . S
C319 H346 0.930 . S
C320 C318 1.380 . S
C320 C319 1.384 . S
C320 H347 0.931 . S
C321 C318 1.374 . S
C321 C322 1.390 . S
C321 H348 0.930 . S
C322 C321 1.390 . S
C322 C323 1.391 . S
C322 H349 0.930 . S
C323 C319 1.387 . S
C323 C322 1.391 . S
C324 Tb314 2.825 . S
C324 C318 1.507 . S
C324 O337 1.238 . S
C324 O338 1.247 . S
O325 Tb314 2.347 . S
O325 C329 1.259 . S
O326 Eu315 2.418 . S
O326 C329 1.265 1_556 S
O327 Eu315 2.384 1_554 S
O327 C336 1.255 . S
O328 Tb314 2.366 . S
O328 C336 1.265 . S
C329 O325 1.259 . S
C329 O326 1.265 1_554 S
O330 Eu315 2.479 . S
O330 C345 1.238 . S
O331 Eu315 2.471 . S
O331 C345 1.247 . S
O332 Eu315 2.347 1_554 S
O332 C316 1.259 . S
O333 Tb314 2.418 . S
O333 C316 1.265 . S
O334 Tb314 2.384 . S
O334 C317 1.255 1_554 S
O335 Eu315 2.366 . S
O335 C317 1.265 . S
C336 O327 1.255 . S
C336 O328 1.265 . S
O337 Tb314 2.479 . S
O337 C324 1.238 . S
O338 Tb314 2.471 . S
O338 C324 1.247 . S
C339 C342 1.380 . S
C339 C343 1.374 . S
C339 C345 1.507 . S
C340 C341 1.387 . S
C340 C344 1.391 . S
C341 C340 1.387 . S
C341 C342 1.384 . S
C341 H350 0.930 . S
C342 C339 1.380 . S
C342 C341 1.384 . S
C342 H351 0.931 . S
C343 C339 1.374 . S
C343 C344 1.390 . S
C343 H352 0.930 . S
C344 C340 1.391 . S
C344 C343 1.390 . S
C344 H353 0.930 . S
C345 Eu315 2.825 . S
C345 O330 1.238 . S
C345 O331 1.247 . S
C345 C339 1.507 . S
H346 C319 0.930 . S
H347 C320 0.931 . S
H348 C321 0.930 . S
H349 C322 0.930 . S
H350 C341 0.930 . S
H351 C342 0.931 . S
H352 C343 0.930 . S
H353 C344 0.930 . S
Tb354 C364 2.825 . S
Tb354 O365 2.347 . S
Tb354 O368 2.366 . S
Tb354 O373 2.418 . S
Tb354 O374 2.384 . S
Tb354 O377 2.479 . S
Tb354 O378 2.471 . S
Eu355 O366 2.418 . S
Eu355 O367 2.384 . S
Eu355 O370 2.479 . S
Eu355 O371 2.471 . S
Eu355 O372 2.347 . S
Eu355 O375 2.366 . S
Eu355 C385 2.825 . S
C356 O372 1.259 . S
C356 O373 1.265 . S
C357 O374 1.255 . S
C357 O375 1.265 . S
C358 C360 1.380 . S
C358 C361 1.374 . S
C358 C364 1.507 . S
C359 C360 1.384 . S
C359 C363 1.387 . S
C359 H386 0.930 . S
C360 C358 1.380 . S
C360 C359 1.384 . S
C360 H387 0.931 . S
C361 C358 1.374 . S
C361 C362 1.390 . S
C361 H388 0.930 . S
C362 C361 1.390 . S
C362 C363 1.391 . S
C362 H389 0.930 . S
C363 C359 1.387 . S
C363 C362 1.391 . S
C364 Tb354 2.825 . S
C364 C358 1.507 . S
C364 O377 1.238 . S
C364 O378 1.247 . S
O365 Tb354 2.347 . S
O365 C369 1.259 . S
O366 Eu355 2.418 . S
O366 C369 1.265 . S
O367 Eu355 2.384 . S
O367 C376 1.255 . S
O368 Tb354 2.366 . S
O368 C376 1.265 . S
C369 O365 1.259 . S
C369 O366 1.265 . S
O370 Eu355 2.479 . S
O370 C385 1.238 . S
O371 Eu355 2.471 . S
O371 C385 1.247 . S
O372 Eu355 2.347 . S
O372 C356 1.259 . S
O373 Tb354 2.418 . S
O373 C356 1.265 . S
O374 Tb354 2.384 . S
O374 C357 1.255 . S
O375 Eu355 2.366 . S
O375 C357 1.265 . S
C376 O367 1.255 . S
C376 O368 1.265 . S
O377 Tb354 2.479 . S
O377 C364 1.238 . S
O378 Tb354 2.471 . S
O378 C364 1.247 . S
C379 C382 1.380 . S
C379 C383 1.374 . S
C379 C385 1.507 . S
C380 C381 1.387 . S
C380 C384 1.391 . S
C381 C380 1.387 . S
C381 C382 1.384 . S
C381 H390 0.930 . S
C382 C379 1.380 . S
C382 C381 1.384 . S
C382 H391 0.931 . S
C383 C379 1.374 . S
C383 C384 1.390 . S
C383 H392 0.930 . S
C384 C380 1.391 . S
C384 C383 1.390 . S
C384 H393 0.930 . S
C385 Eu355 2.825 . S
C385 O370 1.238 . S
C385 O371 1.247 . S
C385 C379 1.507 . S
H386 C359 0.930 . S
H387 C360 0.931 . S
H388 C361 0.930 . S
H389 C362 0.930 . S
H390 C381 0.930 . S
H391 C382 0.931 . S
H392 C383 0.930 . S
H393 C384 0.930 . S
Tb394 C404 2.825 . S
Tb394 O405 2.347 . S
Tb394 O408 2.366 . S
Tb394 O413 2.418 . S
Tb394 O414 2.384 . S
Tb394 O417 2.479 . S
Tb394 O418 2.471 . S
Eu395 O406 2.418 . S
Eu395 O407 2.384 . S
Eu395 O410 2.479 . S
Eu395 O411 2.471 . S
Eu395 O412 2.347 . S
Eu395 O415 2.366 . S
Eu395 C425 2.825 . S
C396 O412 1.259 . S
C396 O413 1.265 . S
C397 O414 1.255 . S
C397 O415 1.265 . S
C398 C400 1.380 . S
C398 C401 1.374 . S
C398 C404 1.507 . S
C399 C400 1.384 . S
C399 C403 1.387 . S
C399 H426 0.930 . S
C400 C398 1.380 . S
C400 C399 1.384 . S
C400 H427 0.931 . S
C401 C398 1.374 . S
C401 C402 1.390 . S
C401 H428 0.930 . S
C402 C401 1.390 . S
C402 C403 1.391 . S
C402 H429 0.930 . S
C403 C399 1.387 . S
C403 C402 1.391 . S
C404 Tb394 2.825 . S
C404 C398 1.507 . S
C404 O417 1.238 . S
C404 O418 1.247 . S
O405 Tb394 2.347 . S
O405 C409 1.259 . S
O406 Eu395 2.418 . S
O406 C409 1.265 . S
O407 Eu395 2.384 . S
O407 C416 1.255 . S
O408 Tb394 2.366 . S
O408 C416 1.265 . S
C409 O405 1.259 . S
C409 O406 1.265 . S
O410 Eu395 2.479 . S
O410 C425 1.238 . S
O411 Eu395 2.471 . S
O411 C425 1.247 . S
O412 Eu395 2.347 . S
O412 C396 1.259 . S
O413 Tb394 2.418 . S
O413 C396 1.265 . S
O414 Tb394 2.384 . S
O414 C397 1.255 . S
O415 Eu395 2.366 . S
O415 C397 1.265 . S
C416 O407 1.255 . S
C416 O408 1.265 . S
O417 Tb394 2.479 . S
O417 C404 1.238 . S
O418 Tb394 2.471 . S
O418 C404 1.247 . S
C419 C422 1.380 . S
C419 C423 1.374 . S
C419 C425 1.507 . S
C420 C421 1.387 . S
C420 C424 1.391 . S
C421 C420 1.387 . S
C421 C422 1.384 . S
C421 H430 0.930 . S
C422 C419 1.380 . S
C422 C421 1.384 . S
C422 H431 0.931 . S
C423 C419 1.374 . S
C423 C424 1.390 . S
C423 H432 0.930 . S
C424 C420 1.391 . S
C424 C423 1.390 . S
C424 H433 0.930 . S
C425 Eu395 2.825 . S
C425 O410 1.238 . S
C425 O411 1.247 . S
C425 C419 1.507 . S
H426 C399 0.930 . S
H427 C400 0.931 . S
H428 C401 0.930 . S
H429 C402 0.930 . S
H430 C421 0.930 . S
H431 C422 0.931 . S
H432 C423 0.930 . S
H433 C424 0.930 . S
Tb434 C444 2.825 . S
Tb434 O445 2.347 . S
Tb434 O448 2.366 . S
Tb434 O453 2.418 . S
Tb434 O454 2.384 . S
Tb434 O457 2.479 . S
Tb434 O458 2.471 . S
Eu435 O446 2.418 . S
Eu435 O447 2.384 . S
Eu435 O450 2.479 . S
Eu435 O451 2.471 . S
Eu435 O452 2.347 . S
Eu435 O455 2.366 . S
Eu435 C465 2.825 . S
C436 O452 1.259 . S
C436 O453 1.265 . S
C437 O454 1.255 . S
C437 O455 1.265 . S
C438 C440 1.380 . S
C438 C441 1.374 . S
C438 C444 1.507 . S
C439 C440 1.384 . S
C439 C443 1.387 . S
C439 H466 0.930 . S
C440 C438 1.380 . S
C440 C439 1.384 . S
C440 H467 0.931 . S
C441 C438 1.374 . S
C441 C442 1.390 . S
C441 H468 0.930 . S
C442 C441 1.390 . S
C442 C443 1.391 . S
C442 H469 0.930 . S
C443 C439 1.387 . S
C443 C442 1.391 . S
C444 Tb434 2.825 . S
C444 C438 1.507 . S
C444 O457 1.238 . S
C444 O458 1.247 . S
O445 Tb434 2.347 . S
O445 C449 1.259 . S
O446 Eu435 2.418 . S
O446 C449 1.265 . S
O447 Eu435 2.384 . S
O447 C456 1.255 . S
O448 Tb434 2.366 . S
O448 C456 1.265 . S
C449 O445 1.259 . S
C449 O446 1.265 . S
O450 Eu435 2.479 . S
O450 C465 1.238 . S
O451 Eu435 2.471 . S
O451 C465 1.247 . S
O452 Eu435 2.347 . S
O452 C436 1.259 . S
O453 Tb434 2.418 . S
O453 C436 1.265 . S
O454 Tb434 2.384 . S
O454 C437 1.255 . S
O455 Eu435 2.366 . S
O455 C437 1.265 . S
C456 O447 1.255 . S
C456 O448 1.265 . S
O457 Tb434 2.479 . S
O457 C444 1.238 . S
O458 Tb434 2.471 . S
O458 C444 1.247 . S
C459 C462 1.380 . S
C459 C463 1.374 . S
C459 C465 1.507 . S
C460 C461 1.387 . S
C460 C464 1.391 . S
C461 C460 1.387 . S
C461 C462 1.384 . S
C461 H470 0.930 . S
C462 C459 1.380 . S
C462 C461 1.384 . S
C462 H471 0.931 . S
C463 C459 1.374 . S
C463 C464 1.390 . S
C463 H472 0.930 . S
C464 C460 1.391 . S
C464 C463 1.390 . S
C464 H473 0.930 . S
C465 Eu435 2.825 . S
C465 O450 1.238 . S
C465 O451 1.247 . S
C465 C459 1.507 . S
H466 C439 0.930 . S
H467 C440 0.931 . S
H468 C441 0.930 . S
H469 C442 0.930 . S
H470 C461 0.930 . S
H471 C462 0.931 . S
H472 C463 0.930 . S
H473 C464 0.930 . S
Tb474 C484 2.825 . S
Tb474 O485 2.347 . S
Tb474 O488 2.366 . S
Tb474 O493 2.418 . S
Tb474 O494 2.384 . S
Tb474 O497 2.479 . S
Tb474 O498 2.471 . S
Eu475 O486 2.418 . S
Eu475 O487 2.384 . S
Eu475 O490 2.479 . S
Eu475 O491 2.471 . S
Eu475 O492 2.347 . S
Eu475 O495 2.366 . S
Eu475 C505 2.825 . S
C476 O492 1.259 . S
C476 O493 1.265 . S
C477 O494 1.255 . S
C477 O495 1.265 . S
C478 C480 1.380 . S
C478 C481 1.374 . S
C478 C484 1.507 . S
C479 C480 1.384 . S
C479 C483 1.387 . S
C479 H506 0.930 . S
C480 C478 1.380 . S
C480 C479 1.384 . S
C480 H507 0.931 . S
C481 C478 1.374 . S
C481 C482 1.390 . S
C481 H508 0.930 . S
C482 C481 1.390 . S
C482 C483 1.391 . S
C482 H509 0.930 . S
C483 C479 1.387 . S
C483 C482 1.391 . S
C484 Tb474 2.825 . S
C484 C478 1.507 . S
C484 O497 1.238 . S
C484 O498 1.247 . S
O485 Tb474 2.347 . S
O485 C489 1.259 . S
O486 Eu475 2.418 . S
O486 C489 1.265 . S
O487 Eu475 2.384 . S
O487 C496 1.255 . S
O488 Tb474 2.366 . S
O488 C496 1.265 . S
C489 O485 1.259 . S
C489 O486 1.265 . S
O490 Eu475 2.479 . S
O490 C505 1.238 . S
O491 Eu475 2.471 . S
O491 C505 1.247 . S
O492 Eu475 2.347 . S
O492 C476 1.259 . S
O493 Tb474 2.418 . S
O493 C476 1.265 . S
O494 Tb474 2.384 . S
O494 C477 1.255 . S
O495 Eu475 2.366 . S
O495 C477 1.265 . S
C496 O487 1.255 . S
C496 O488 1.265 . S
O497 Tb474 2.479 . S
O497 C484 1.238 . S
O498 Tb474 2.471 . S
O498 C484 1.247 . S
C499 C502 1.380 . S
C499 C503 1.374 . S
C499 C505 1.507 . S
C500 C501 1.387 . S
C500 C504 1.391 . S
C501 C500 1.387 . S
C501 C502 1.384 . S
C501 H510 0.930 . S
C502 C499 1.380 . S
C502 C501 1.384 . S
C502 H511 0.931 . S
C503 C499 1.374 . S
C503 C504 1.390 . S
C503 H512 0.930 . S
C504 C500 1.391 . S
C504 C503 1.390 . S
C504 H513 0.930 . S
C505 Eu475 2.825 . S
C505 O490 1.238 . S
C505 O491 1.247 . S
C505 C499 1.507 . S
H506 C479 0.930 . S
H507 C480 0.931 . S
H508 C481 0.930 . S
H509 C482 0.930 . S
H510 C501 0.930 . S
H511 C502 0.931 . S
H512 C503 0.930 . S
H513 C504 0.930 . S
Tb514 C524 2.825 . S
Tb514 O525 2.347 . S
Tb514 O528 2.366 . S
Tb514 O533 2.418 . S
Tb514 O534 2.384 . S
Tb514 O537 2.479 . S
Tb514 O538 2.471 . S
Eu515 O526 2.418 . S
Eu515 O527 2.384 . S
Eu515 O530 2.479 . S
Eu515 O531 2.471 . S
Eu515 O532 2.347 . S
Eu515 O535 2.366 . S
Eu515 C545 2.825 . S
C516 O532 1.259 . S
C516 O533 1.265 . S
C517 O534 1.255 . S
C517 O535 1.265 . S
C518 C520 1.380 . S
C518 C521 1.374 . S
C518 C524 1.507 . S
C519 C520 1.384 . S
C519 C523 1.387 . S
C519 H546 0.930 . S
C520 C518 1.380 . S
C520 C519 1.384 . S
C520 H547 0.931 . S
C521 C518 1.374 . S
C521 C522 1.390 . S
C521 H548 0.930 . S
C522 C521 1.390 . S
C522 C523 1.391 . S
C522 H549 0.930 . S
C523 C519 1.387 . S
C523 C522 1.391 . S
C524 Tb514 2.825 . S
C524 C518 1.507 . S
C524 O537 1.238 . S
C524 O538 1.247 . S
O525 Tb514 2.347 . S
O525 C529 1.259 . S
O526 Eu515 2.418 . S
O526 C529 1.265 . S
O527 Eu515 2.384 . S
O527 C536 1.255 . S
O528 Tb514 2.366 . S
O528 C536 1.265 . S
C529 O525 1.259 . S
C529 O526 1.265 . S
O530 Eu515 2.479 . S
O530 C545 1.238 . S
O531 Eu515 2.471 . S
O531 C545 1.247 . S
O532 Eu515 2.347 . S
O532 C516 1.259 . S
O533 Tb514 2.418 . S
O533 C516 1.265 . S
O534 Tb514 2.384 . S
O534 C517 1.255 . S
O535 Eu515 2.366 . S
O535 C517 1.265 . S
C536 O527 1.255 . S
C536 O528 1.265 . S
O537 Tb514 2.479 . S
O537 C524 1.238 . S
O538 Tb514 2.471 . S
O538 C524 1.247 . S
C539 C542 1.380 . S
C539 C543 1.374 . S
C539 C545 1.507 . S
C540 C541 1.387 . S
C540 C544 1.391 . S
C541 C540 1.387 . S
C541 C542 1.384 . S
C541 H550 0.930 . S
C542 C539 1.380 . S
C542 C541 1.384 . S
C542 H551 0.931 . S
C543 C539 1.374 . S
C543 C544 1.390 . S
C543 H552 0.930 . S
C544 C540 1.391 . S
C544 C543 1.390 . S
C544 H553 0.930 . S
C545 Eu515 2.825 . S
C545 O530 1.238 . S
C545 O531 1.247 . S
C545 C539 1.507 . S
H546 C519 0.930 . S
H547 C520 0.931 . S
H548 C521 0.930 . S
H549 C522 0.930 . S
H550 C541 0.930 . S
H551 C542 0.931 . S
H552 C543 0.930 . S
H553 C544 0.930 . S
Tb554 C564 2.825 . S
Tb554 O565 2.347 . S
Tb554 O568 2.366 . S
Tb554 O573 2.418 . S
Tb554 O574 2.384 . S
Tb554 O577 2.479 . S
Tb554 O578 2.471 . S
Eu555 O566 2.418 . S
Eu555 O567 2.384 . S
Eu555 O570 2.479 . S
Eu555 O571 2.471 . S
Eu555 O572 2.347 . S
Eu555 O575 2.366 . S
Eu555 C585 2.825 . S
C556 O572 1.259 . S
C556 O573 1.265 . S
C557 O574 1.255 . S
C557 O575 1.265 . S
C558 C560 1.380 . S
C558 C561 1.374 . S
C558 C564 1.507 . S
C559 C560 1.384 . S
C559 C563 1.387 . S
C559 H586 0.930 . S
C560 C558 1.380 . S
C560 C559 1.384 . S
C560 H587 0.931 . S
C561 C558 1.374 . S
C561 C562 1.390 . S
C561 H588 0.930 . S
C562 C561 1.390 . S
C562 C563 1.391 . S
C562 H589 0.930 . S
C563 C559 1.387 . S
C563 C562 1.391 . S
C564 Tb554 2.825 . S
C564 C558 1.507 . S
C564 O577 1.238 . S
C564 O578 1.247 . S
O565 Tb554 2.347 . S
O565 C569 1.259 . S
O566 Eu555 2.418 . S
O566 C569 1.265 . S
O567 Eu555 2.384 . S
O567 C576 1.255 . S
O568 Tb554 2.366 . S
O568 C576 1.265 . S
C569 O565 1.259 . S
C569 O566 1.265 . S
O570 Eu555 2.479 . S
O570 C585 1.238 . S
O571 Eu555 2.471 . S
O571 C585 1.247 . S
O572 Eu555 2.347 . S
O572 C556 1.259 . S
O573 Tb554 2.418 . S
O573 C556 1.265 . S
O574 Tb554 2.384 . S
O574 C557 1.255 . S
O575 Eu555 2.366 . S
O575 C557 1.265 . S
C576 O567 1.255 . S
C576 O568 1.265 . S
O577 Tb554 2.479 . S
O577 C564 1.238 . S
O578 Tb554 2.471 . S
O578 C564 1.247 . S
C579 C582 1.380 . S
C579 C583 1.374 . S
C579 C585 1.507 . S
C580 C581 1.387 . S
C580 C584 1.391 . S
C581 C580 1.387 . S
C581 C582 1.384 . S
C581 H590 0.930 . S
C582 C579 1.380 . S
C582 C581 1.384 . S
C582 H591 0.931 . S
C583 C579 1.374 . S
C583 C584 1.390 . S
C583 H592 0.930 . S
C584 C580 1.391 . S
C584 C583 1.390 . S
C584 H593 0.930 . S
C585 Eu555 2.825 . S
C585 O570 1.238 . S
C585 O571 1.247 . S
C585 C579 1.507 . S
H586 C559 0.930 . S
H587 C560 0.931 . S
H588 C561 0.930 . S
H589 C562 0.930 . S
H590 C581 0.930 . S
H591 C582 0.931 . S
H592 C583 0.930 . S
H593 C584 0.930 . S
H594 C600 0.930 . S
H595 C603 0.930 . S
H596 C604 0.930 . S
H597 C605 0.930 . S
H598 C608 0.930 1_556 S
H599 C609 0.930 1_556 S
C600 H594 0.930 . S
C600 C601 1.355 . S
C600 C602 1.415 . S
C601 C600 1.355 . S
C601 C603 1.419 . S
C602 C600 1.415 . S
C602 C607 1.425 . S
C602 C609 1.409 . S
C603 H595 0.930 . S
C603 C601 1.419 . S
C603 C604 1.362 . S
C604 H596 0.930 . S
C604 C603 1.362 . S
C604 C607 1.409 . S
C605 H597 0.930 . S
C605 C606 1.355 . S
C605 C607 1.415 . S
C606 C605 1.355 . S
C606 C608 1.419 . S
C607 C602 1.425 . S
C607 C604 1.409 . S
C607 C605 1.415 . S
C608 H598 0.930 1_554 S
C608 C606 1.419 . S
C608 C609 1.362 . S
C609 H599 0.930 1_554 S
C609 C602 1.409 . S
C609 C608 1.362 . S
H610 C616 0.930 . S
H611 C619 0.930 . S
H612 C620 0.930 . S
H613 C621 0.930 . S
H614 C624 0.930 . S
H615 C625 0.930 . S
C616 H610 0.930 . S
C616 C617 1.355 . S
C616 C618 1.415 . S
C617 C616 1.355 . S
C617 C619 1.419 . S
C618 C616 1.415 . S
C618 C623 1.425 . S
C618 C625 1.409 . S
C619 H611 0.930 . S
C619 C617 1.419 . S
C619 C620 1.362 . S
C620 H612 0.930 . S
C620 C619 1.362 . S
C620 C623 1.409 . S
C621 H613 0.930 . S
C621 C622 1.355 . S
C621 C623 1.415 . S
C622 C621 1.355 . S
C622 C624 1.419 . S
C623 C618 1.425 . S
C623 C620 1.409 . S
C623 C621 1.415 . S
C624 H614 0.930 . S
C624 C622 1.419 . S
C624 C625 1.362 . S
C625 H615 0.930 . S
C625 C618 1.409 . S
C625 C624 1.362 . S
H626 C632 0.930 . S
H627 C635 0.930 . S
H628 C636 0.930 . S
H629 C637 0.930 . S
H630 C640 0.930 . S
H631 C641 0.930 . S
C632 H626 0.930 . S
C632 C633 1.355 . S
C632 C634 1.415 . S
C633 C632 1.355 . S
C633 C635 1.419 . S
C634 C632 1.415 . S
C634 C639 1.425 . S
C634 C641 1.409 . S
C635 H627 0.930 . S
C635 C633 1.419 . S
C635 C636 1.362 . S
C636 H628 0.930 . S
C636 C635 1.362 . S
C636 C639 1.409 . S
C637 H629 0.930 . S
C637 C638 1.355 . S
C637 C639 1.415 . S
C638 C637 1.355 . S
C638 C640 1.419 . S
C639 C634 1.425 . S
C639 C636 1.409 . S
C639 C637 1.415 . S
C640 H630 0.930 . S
C640 C638 1.419 . S
C640 C641 1.362 . S
C641 H631 0.930 . S
C641 C634 1.409 . S
C641 C640 1.362 . S
H642 C648 0.930 1_554 S
H643 C651 0.930 . S
H644 C652 0.930 . S
H645 C653 0.930 . S
H646 C656 0.930 . S
H647 C657 0.930 . S
C648 H642 0.930 1_556 S
C648 C649 1.355 . S
C648 C650 1.415 . S
C649 C648 1.355 . S
C649 C651 1.419 . S
C650 C648 1.415 . S
C650 C655 1.425 . S
C650 C657 1.409 1_556 S
C651 H643 0.930 . S
C651 C649 1.419 . S
C651 C652 1.362 . S
C652 H644 0.930 . S
C652 C651 1.362 . S
C652 C655 1.409 . S
C653 H645 0.930 . S
C653 C654 1.355 . S
C653 C655 1.415 . S
C654 C653 1.355 . S
C654 C656 1.419 1_556 S
C655 C650 1.425 . S
C655 C652 1.409 . S
C655 C653 1.415 . S
C656 H646 0.930 . S
C656 C654 1.419 1_554 S
C656 C657 1.362 . S
C657 H647 0.930 . S
C657 C650 1.409 1_554 S
C657 C656 1.362 . S
H658 C664 0.930 . S
H659 C667 0.930 . S
H660 C668 0.930 . S
H661 C669 0.930 . S
H662 C672 0.930 . S
H663 C673 0.930 . S
C664 H658 0.930 . S
C664 C665 1.355 . S
C664 C666 1.415 . S
C665 C664 1.355 . S
C665 C667 1.419 . S
C666 C664 1.415 . S
C666 C671 1.425 . S
C666 C673 1.409 1_556 S
C667 H659 0.930 . S
C667 C665 1.419 . S
C667 C668 1.362 . S
C668 H660 0.930 . S
C668 C667 1.362 . S
C668 C671 1.409 . S
C669 H661 0.930 . S
C669 C670 1.355 . S
C669 C671 1.415 . S
C670 C669 1.355 . S
C670 C672 1.419 1_556 S
C671 C666 1.425 . S
C671 C668 1.409 . S
C671 C669 1.415 . S
C672 H662 0.930 . S
C672 C670 1.419 1_554 S
C672 C673 1.362 . S
C673 H663 0.930 . S
C673 C666 1.409 1_554 S
C673 C672 1.362 . S
H674 C680 0.930 . S
H675 C683 0.941 . S
H676 C684 0.930 . S
H677 C685 0.930 . S
H678 C688 0.930 . S
H679 C689 0.930 . S
C680 H674 0.930 . S
C680 C681 1.355 . S
C680 C682 1.415 . S
C681 C680 1.355 . S
C681 C683 1.419 . S
C682 C680 1.415 . S
C682 C687 1.425 . S
C682 C689 1.409 . S
C683 H675 0.941 . S
C683 C681 1.419 . S
C683 C684 1.362 1_556 S
C684 H676 0.930 . S
C684 C683 1.362 1_554 S
C684 C687 1.409 1_554 S
C685 H677 0.930 . S
C685 C686 1.355 1_554 S
C685 C687 1.415 1_554 S
C686 C685 1.355 1_556 S
C686 C688 1.419 . S
C687 C682 1.425 . S
C687 C684 1.409 1_556 S
C687 C685 1.415 1_556 S
C688 H678 0.930 . S
C688 C686 1.419 . S
C688 C689 1.362 . S
C689 H679 0.930 . S
C689 C682 1.409 . S
C689 C688 1.362 . S
H690 C696 0.930 . S
H691 C699 0.930 . S
H692 C700 0.930 . S
H693 C701 0.930 . S
H694 C704 0.930 . S
H695 C705 0.930 . S
C696 H690 0.930 . S
C696 C697 1.355 . S
C696 C698 1.415 . S
C697 C696 1.355 . S
C697 C699 1.419 . S
C698 C696 1.415 . S
C698 C703 1.425 . S
C698 C705 1.409 . S
C699 H691 0.930 . S
C699 C697 1.419 . S
C699 C700 1.362 . S
C700 H692 0.930 . S
C700 C699 1.362 . S
C700 C703 1.409 . S
C701 H693 0.930 . S
C701 C702 1.355 . S
C701 C703 1.415 . S
C702 C701 1.355 . S
C702 C704 1.419 . S
C703 C698 1.425 . S
C703 C700 1.409 . S
C703 C701 1.415 . S
C704 H694 0.930 . S
C704 C702 1.419 . S
C704 C705 1.362 . S
C705 H695 0.930 . S
C705 C698 1.409 . S
C705 C704 1.362 . S
H706 C712 0.930 . S
H707 C715 0.930 . S
H708 C716 0.930 . S
H709 C717 0.930 . S
H710 C720 0.930 . S
H711 C721 0.930 . S
C712 H706 0.930 . S
C712 C713 1.355 . S
C712 C714 1.415 . S
C713 C712 1.355 . S
C713 C715 1.419 . S
C714 C712 1.415 . S
C714 C719 1.425 . S
C714 C721 1.409 . S
C715 H707 0.930 . S
C715 C713 1.419 . S
C715 C716 1.362 . S
C716 H708 0.930 . S
C716 C715 1.362 . S
C716 C719 1.409 . S
C717 H709 0.930 . S
C717 C718 1.355 . S
C717 C719 1.415 . S
C718 C717 1.355 . S
C718 C720 1.419 . S
C719 C714 1.425 . S
C719 C716 1.409 . S
C719 C717 1.415 . S
C720 H710 0.930 . S
C720 C718 1.419 . S
C720 C721 1.362 . S
C721 H711 0.930 . S
C721 C714 1.409 . S
C721 C720 1.362 . S
H722 C728 0.930 . S
H723 C731 0.930 . S
H724 C732 0.930 . S
H725 C733 0.930 . S
H726 C736 0.930 . S
H727 C737 0.936 . S
C728 H722 0.930 . S
C728 C729 1.355 . S
C728 C730 1.427 . S
C729 C728 1.355 . S
C729 C731 1.419 . S
C730 C728 1.427 . S
C730 C735 1.418 1_556 S
C730 C737 1.405 1_556 S
C731 H723 0.930 . S
C731 C729 1.419 . S
C731 C732 1.362 . S
C732 H724 0.930 . S
C732 C731 1.362 . S
C732 C735 1.407 1_556 S
C733 H725 0.930 . S
C733 C734 1.355 . S
C733 C735 1.420 . S
C734 C733 1.355 . S
C734 C736 1.419 . S
C735 C730 1.418 1_554 S
C735 C732 1.407 1_554 S
C735 C733 1.420 . S
C736 H726 0.930 . S
C736 C734 1.419 . S
C736 C737 1.362 . S
C737 H727 0.936 . S
C737 C730 1.405 1_554 S
C737 C736 1.362 . S
H738 C744 0.930 . S
H739 C747 0.930 . S
H740 C748 0.930 . S
H741 C749 0.930 . S
H742 C752 0.930 1_556 S
H743 C753 0.930 1_556 S
C744 H738 0.930 . S
C744 C745 1.355 . S
C744 C746 1.415 . S
C745 C744 1.355 . S
C745 C747 1.419 . S
C746 C744 1.415 . S
C746 C751 1.425 . S
C746 C753 1.409 . S
C747 H739 0.930 . S
C747 C745 1.419 . S
C747 C748 1.362 . S
C748 H740 0.930 . S
C748 C747 1.362 . S
C748 C751 1.409 . S
C749 H741 0.930 . S
C749 C750 1.355 . S
C749 C751 1.415 . S
C750 C749 1.355 . S
C750 C752 1.419 . S
C751 C746 1.425 . S
C751 C748 1.409 . S
C751 C749 1.415 . S
C752 H742 0.930 1_554 S
C752 C750 1.419 . S
C752 C753 1.362 . S
C753 H743 0.930 1_554 S
C753 C746 1.409 . S
C753 C752 1.362 . S
H754 C760 0.930 . S
H755 C763 0.930 . S
H756 C764 0.930 . S
H757 C765 0.930 . S
H758 C768 0.930 . S
H759 C769 0.930 . S
C760 H754 0.930 . S
C760 C761 1.355 . S
C760 C762 1.415 . S
C761 C760 1.355 . S
C761 C763 1.419 . S
C762 C760 1.415 . S
C762 C767 1.425 . S
C762 C769 1.409 . S
C763 H755 0.930 . S
C763 C761 1.419 . S
C763 C764 1.362 . S
C764 H756 0.930 . S
C764 C763 1.362 . S
C764 C767 1.409 . S
C765 H757 0.930 . S
C765 C766 1.355 . S
C765 C767 1.415 . S
C766 C765 1.355 . S
C766 C768 1.419 . S
C767 C762 1.425 . S
C767 C764 1.409 . S
C767 C765 1.415 . S
C768 H758 0.930 . S
C768 C766 1.419 . S
C768 C769 1.362 . S
C769 H759 0.930 . S
C769 C762 1.409 . S
C769 C768 1.362 . S
H770 C776 0.930 . S
H771 C779 0.930 . S
H772 C780 0.930 . S
H773 C781 0.930 . S
H774 C784 0.930 1_556 S
H775 C785 0.930 1_556 S
C776 H770 0.930 . S
C776 C777 1.355 . S
C776 C778 1.415 . S
C777 C776 1.355 . S
C777 C779 1.419 . S
C778 C776 1.415 . S
C778 C783 1.425 . S
C778 C785 1.409 . S
C779 H771 0.930 . S
C779 C777 1.419 . S
C779 C780 1.362 . S
C780 H772 0.930 . S
C780 C779 1.362 . S
C780 C783 1.409 . S
C781 H773 0.930 . S
C781 C782 1.355 . S
C781 C783 1.415 . S
C782 C781 1.355 . S
C782 C784 1.419 . S
C783 C778 1.425 . S
C783 C780 1.409 . S
C783 C781 1.415 . S
C784 H774 0.930 1_554 S
C784 C782 1.419 . S
C784 C785 1.362 . S
C785 H775 0.930 1_554 S
C785 C778 1.409 . S
C785 C784 1.362 . S
H786 C792 0.930 . S
H787 C795 0.930 . S
H788 C796 0.930 . S
H789 C797 0.930 . S
H790 C800 0.930 . S
H791 C801 0.930 . S
C792 H786 0.930 . S
C792 C793 1.355 . S
C792 C794 1.415 1_655 S
C793 C792 1.355 . S
C793 C795 1.419 . S
C794 C792 1.415 1_455 S
C794 C799 1.425 . S
C794 C801 1.409 . S
C795 H787 0.930 . S
C795 C793 1.419 . S
C795 C796 1.362 . S
C796 H788 0.930 . S
C796 C795 1.362 . S
C796 C799 1.409 1_655 S
C797 H789 0.930 . S
C797 C798 1.355 . S
C797 C799 1.415 . S
C798 C797 1.355 . S
C798 C800 1.419 . S
C799 C794 1.425 . S
C799 C796 1.409 1_455 S
C799 C797 1.415 . S
C800 H790 0.930 . S
C800 C798 1.419 . S
C800 C801 1.362 . S
C801 H791 0.930 . S
C801 C794 1.409 . S
C801 C800 1.362 . S
H802 C808 0.930 . S
H803 C811 0.930 . S
H804 C812 0.930 . S
H805 C813 0.930 . S
H806 C816 0.930 . S
H807 C817 0.930 . S
C808 H802 0.930 . S
C808 C809 1.355 . S
C808 C810 1.415 . S
C809 C808 1.355 . S
C809 C811 1.419 . S
C810 C808 1.415 . S
C810 C815 1.425 . S
C810 C817 1.409 . S
C811 H803 0.930 . S
C811 C809 1.419 . S
C811 C812 1.362 . S
C812 H804 0.930 . S
C812 C811 1.362 . S
C812 C815 1.409 . S
C813 H805 0.930 . S
C813 C814 1.355 . S
C813 C815 1.415 . S
C814 C813 1.355 . S
C814 C816 1.419 . S
C815 C810 1.425 . S
C815 C812 1.409 . S
C815 C813 1.415 . S
C816 H806 0.930 . S
C816 C814 1.419 . S
C816 C817 1.362 . S
C817 H807 0.930 . S
C817 C810 1.409 . S
C817 C816 1.362 . S
H818 C824 0.930 . S
H819 C827 0.930 . S
H820 C828 0.930 . S
H821 C829 0.930 . S
H822 C832 0.930 . S
H823 C833 0.930 . S
C824 H818 0.930 . S
C824 C825 1.355 . S
C824 C826 1.445 . S
C825 C824 1.355 . S
C825 C827 1.419 . S
C826 C824 1.445 . S
C826 C831 1.404 1_545 S
C826 C833 1.400 1_545 S
C827 H819 0.930 . S
C827 C825 1.419 . S
C827 C828 1.362 . S
C828 H820 0.930 . S
C828 C827 1.362 . S
C828 C831 1.409 1_545 S
C829 H821 0.930 . S
C829 C830 1.355 . S
C829 C831 1.415 . S
C830 C829 1.355 . S
C830 C832 1.419 . S
C831 C826 1.404 1_565 S
C831 C828 1.409 1_565 S
C831 C829 1.415 . S
C832 H822 0.930 . S
C832 C830 1.419 . S
C832 C833 1.362 . S
C833 H823 0.930 . S
C833 C826 1.400 1_565 S
C833 C832 1.362 . S
H834 C840 0.930 . S
H835 C843 0.930 . S
H836 C844 0.930 . S
H837 C845 0.930 . S
H838 C848 0.930 . S
H839 C849 0.930 . S
C840 H834 0.930 . S
C840 C841 1.355 . S
C840 C842 1.415 . S
C841 C840 1.355 . S
C841 C843 1.419 . S
C842 C840 1.415 . S
C842 C847 1.425 . S
C842 C849 1.409 . S
C843 H835 0.930 . S
C843 C841 1.419 . S
C843 C844 1.362 . S
C844 H836 0.930 . S
C844 C843 1.362 . S
C844 C847 1.409 . S
C845 H837 0.930 . S
C845 C846 1.355 . S
C845 C847 1.415 . S
C846 C845 1.355 . S
C846 C848 1.419 . S
C847 C842 1.425 . S
C847 C844 1.409 . S
C847 C845 1.415 . S
C848 H838 0.930 . S
C848 C846 1.419 . S
C848 C849 1.362 . S
C849 H839 0.930 . S
C849 C842 1.409 . S
C849 C848 1.362 . S
H850 C856 0.930 . S
H851 C859 0.930 . S
H852 C860 0.930 . S
H853 C861 0.930 . S
H854 C864 0.930 . S
H855 C865 0.930 . S
C856 H850 0.930 . S
C856 C857 1.355 . S
C856 C858 1.415 . S
C857 C856 1.355 . S
C857 C859 1.419 . S
C858 C856 1.415 . S
C858 C863 1.425 . S
C858 C865 1.409 . S
C859 H851 0.930 . S
C859 C857 1.419 . S
C859 C860 1.362 . S
C860 H852 0.930 . S
C860 C859 1.362 . S
C860 C863 1.409 . S
C861 H853 0.930 . S
C861 C862 1.355 . S
C861 C863 1.415 . S
C862 C861 1.355 . S
C862 C864 1.419 . S
C863 C858 1.425 . S
C863 C860 1.409 . S
C863 C861 1.415 . S
C864 H854 0.930 . S
C864 C862 1.419 . S
C864 C865 1.362 . S
C865 H855 0.930 . S
C865 C858 1.409 . S
C865 C864 1.362 . S
H866 C872 0.930 . S
H867 C875 0.930 . S
H868 C876 0.930 . S
H869 C877 0.930 . S
H870 C880 0.930 . S
H871 C881 0.930 . S
C872 H866 0.930 . S
C872 C873 1.355 . S
C872 C874 1.415 . S
C873 C872 1.355 . S
C873 C875 1.419 . S
C874 C872 1.415 . S
C874 C879 1.425 . S
C874 C881 1.409 . S
C875 H867 0.930 . S
C875 C873 1.419 . S
C875 C876 1.362 . S
C876 H868 0.930 . S
C876 C875 1.362 . S
C876 C879 1.409 . S
C877 H869 0.930 . S
C877 C878 1.355 . S
C877 C879 1.415 . S
C878 C877 1.355 . S
C878 C880 1.419 . S
C879 C874 1.425 . S
C879 C876 1.409 . S
C879 C877 1.415 . S
C880 H870 0.930 . S
C880 C878 1.419 . S
C880 C881 1.362 . S
C881 H871 0.930 . S
C881 C874 1.409 . S
C881 C880 1.362 . S
H882 C888 0.930 . S
H883 C891 0.930 . S
H884 C892 0.930 . S
H885 C893 0.930 . S
H886 C896 0.930 . S
H887 C897 0.930 . S
C888 H882 0.930 . S
C888 C889 1.355 . S
C888 C890 1.415 . S
C889 C888 1.355 . S
C889 C891 1.419 . S
C890 C888 1.415 . S
C890 C895 1.425 . S
C890 C897 1.409 . S
C891 H883 0.930 . S
C891 C889 1.419 . S
C891 C892 1.362 . S
C892 H884 0.930 . S
C892 C891 1.362 . S
C892 C895 1.409 . S
C893 H885 0.930 . S
C893 C894 1.355 . S
C893 C895 1.415 . S
C894 C893 1.355 . S
C894 C896 1.419 . S
C895 C890 1.425 . S
C895 C892 1.409 . S
C895 C893 1.415 . S
C896 H886 0.930 . S
C896 C894 1.419 . S
C896 C897 1.362 . S
C897 H887 0.930 . S
C897 C890 1.409 . S
C897 C896 1.362 . S
H898 C904 0.930 . S
H899 C907 0.930 . S
H900 C908 0.930 . S
H901 C909 0.930 . S
H902 C912 0.930 . S
H903 C913 0.930 . S
C904 H898 0.930 . S
C904 C905 1.355 . S
C904 C906 1.415 . S
C905 C904 1.355 . S
C905 C907 1.419 . S
C906 C904 1.415 . S
C906 C911 1.425 . S
C906 C913 1.409 . S
C907 H899 0.930 . S
C907 C905 1.419 . S
C907 C908 1.362 . S
C908 H900 0.930 . S
C908 C907 1.362 . S
C908 C911 1.409 . S
C909 H901 0.930 . S
C909 C910 1.355 . S
C909 C911 1.415 . S
C910 C909 1.355 . S
C910 C912 1.419 . S
C911 C906 1.425 . S
C911 C908 1.409 . S
C911 C909 1.415 . S
C912 H902 0.930 . S
C912 C910 1.419 . S
C912 C913 1.362 . S
C913 H903 0.930 . S
C913 C906 1.409 . S
C913 C912 1.362 . S
H914 C920 0.930 . S
H915 C923 0.930 . S
H916 C924 0.930 . S
H917 C925 0.930 . S
H918 C928 0.930 . S
H919 C929 0.930 . S
C920 H914 0.930 . S
C920 C921 1.355 . S
C920 C922 1.415 . S
C921 C920 1.355 . S
C921 C923 1.419 . S
C922 C920 1.415 . S
C922 C927 1.425 . S
C922 C929 1.409 . S
C923 H915 0.930 . S
C923 C921 1.419 . S
C923 C924 1.362 . S
C924 H916 0.930 . S
C924 C923 1.362 . S
C924 C927 1.409 . S
C925 H917 0.930 . S
C925 C926 1.355 . S
C925 C927 1.415 . S
C926 C925 1.355 . S
C926 C928 1.419 . S
C927 C922 1.425 . S
C927 C924 1.409 . S
C927 C925 1.415 . S
C928 H918 0.930 . S
C928 C926 1.419 . S
C928 C929 1.362 . S
C929 H919 0.930 . S
C929 C922 1.409 . S
C929 C928 1.362 . S
H930 C936 0.930 . S
H931 C939 0.930 . S
H932 C940 0.930 . S
H933 C941 0.930 . S
H934 C944 0.930 . S
H935 C945 0.930 . S
C936 H930 0.930 . S
C936 C937 1.355 . S
C936 C938 1.415 . S
C937 C936 1.355 . S
C937 C939 1.419 . S
C938 C936 1.415 . S
C938 C943 1.425 . S
C938 C945 1.409 1_545 S
C939 H931 0.930 . S
C939 C937 1.419 . S
C939 C940 1.362 . S
C940 H932 0.930 . S
C940 C939 1.362 . S
C940 C943 1.409 . S
C941 H933 0.930 . S
C941 C942 1.355 . S
C941 C943 1.415 1_565 S
C942 C941 1.355 . S
C942 C944 1.419 . S
C943 C938 1.425 . S
C943 C940 1.409 . S
C943 C941 1.415 1_545 S
C944 H934 0.930 . S
C944 C942 1.419 . S
C944 C945 1.362 . S
C945 H935 0.930 . S
C945 C938 1.409 1_565 S
C945 C944 1.362 . S
H946 C952 0.930 . S
H947 C955 0.930 . S
H948 C956 0.921 1_455 S
H949 C957 0.930 . S
H950 C960 0.930 . S
H951 C961 0.930 . S
C952 H946 0.930 . S
C952 C953 1.355 . S
C952 C954 1.415 1_655 S
C953 C952 1.355 . S
C953 C955 1.419 . S
C954 C952 1.415 1_455 S
C954 C959 1.425 . S
C954 C961 1.409 . S
C955 H947 0.930 . S
C955 C953 1.419 . S
C955 C956 1.378 . S
C956 H948 0.921 1_655 S
C956 C955 1.378 . S
C956 C959 1.403 1_655 S
C957 H949 0.930 . S
C957 C958 1.355 . S
C957 C959 1.415 . S
C958 C957 1.355 . S
C958 C960 1.419 . S
C959 C954 1.425 . S
C959 C956 1.403 1_455 S
C959 C957 1.415 . S
C960 H950 0.930 . S
C960 C958 1.419 . S
C960 C961 1.362 . S
C961 H951 0.930 . S
C961 C954 1.409 . S
C961 C960 1.362 . S
H962 C968 0.930 . S
H963 C971 0.930 . S
H964 C972 0.930 . S
H965 C973 0.930 . S
H966 C976 0.930 . S
H967 C977 0.930 . S
C968 H962 0.930 . S
C968 C969 1.355 . S
C968 C970 1.415 . S
C969 C968 1.355 . S
C969 C971 1.419 . S
C970 C968 1.415 . S
C970 C975 1.425 . S
C970 C977 1.409 . S
C971 H963 0.930 . S
C971 C969 1.419 . S
C971 C972 1.362 . S
C972 H964 0.930 . S
C972 C971 1.362 . S
C972 C975 1.409 . S
C973 H965 0.930 . S
C973 C974 1.355 . S
C973 C975 1.415 . S
C974 C973 1.355 . S
C974 C976 1.419 . S
C975 C970 1.425 . S
C975 C972 1.409 . S
C975 C973 1.415 . S
C976 H966 0.930 . S
C976 C974 1.419 . S
C976 C977 1.362 . S
C977 H967 0.930 . S
C977 C970 1.409 . S
C977 C976 1.362 . S
H978 C984 0.930 . S
H979 C987 0.930 . S
H980 C988 0.930 . S
H981 C989 0.930 . S
H982 C992 0.930 . S
H983 C993 0.930 . S
C984 H978 0.930 . S
C984 C985 1.355 . S
C984 C986 1.415 . S
C985 C984 1.355 . S
C985 C987 1.419 . S
C986 C984 1.415 . S
C986 C991 1.425 . S
C986 C993 1.409 . S
C987 H979 0.930 . S
C987 C985 1.419 . S
C987 C988 1.362 . S
C988 H980 0.930 . S
C988 C987 1.362 . S
C988 C991 1.409 . S
C989 H981 0.930 . S
C989 C990 1.355 . S
C989 C991 1.415 . S
C990 C989 1.355 . S
C990 C992 1.419 . S
C991 C986 1.425 . S
C991 C988 1.409 . S
C991 C989 1.415 . S
C992 H982 0.930 . S
C992 C990 1.419 . S
C992 C993 1.362 . S
C993 H983 0.930 . S
C993 C986 1.409 . S
C993 C992 1.362 . S
H994 C1000 0.930 . S
H995 C1003 0.930 . S
H996 C1004 0.930 . S
H997 C1005 0.930 . S
H998 C1008 0.930 . S
H999 C1009 0.930 . S
C1000 H994 0.930 . S
C1000 C1001 1.355 . S
C1000 C1002 1.415 . S
C1001 C1000 1.355 . S
C1001 C1003 1.419 . S
C1002 C1000 1.415 . S
C1002 C1007 1.425 . S
C1002 C1009 1.409 . S
C1003 H995 0.930 . S
C1003 C1001 1.419 . S
C1003 C1004 1.362 . S
C1004 H996 0.930 . S
C1004 C1003 1.362 . S
C1004 C1007 1.409 . S
C1005 H997 0.930 . S
C1005 C1006 1.355 . S
C1005 C1007 1.415 . S
C1006 C1005 1.355 . S
C1006 C1008 1.419 . S
C1007 C1002 1.425 . S
C1007 C1004 1.409 . S
C1007 C1005 1.415 . S
C1008 H998 0.930 . S
C1008 C1006 1.419 . S
C1008 C1009 1.362 . S
C1009 H999 0.930 . S
C1009 C1002 1.409 . S
C1009 C1008 1.362 . S
H1010 C1016 0.930 . S
H1011 C1019 0.930 . S
H1012 C1020 0.930 . S
H1013 C1021 0.930 . S
H1014 C1024 0.930 . S
H1015 C1025 0.930 . S
C1016 H1010 0.930 . S
C1016 C1017 1.355 . S
C1016 C1018 1.415 . S
C1017 C1016 1.355 . S
C1017 C1019 1.419 . S
C1018 C1016 1.415 . S
C1018 C1023 1.425 . S
C1018 C1025 1.409 . S
C1019 H1011 0.930 . S
C1019 C1017 1.419 . S
C1019 C1020 1.362 . S
C1020 H1012 0.930 . S
C1020 C1019 1.362 . S
C1020 C1023 1.409 . S
C1021 H1013 0.930 . S
C1021 C1022 1.355 . S
C1021 C1023 1.415 . S
C1022 C1021 1.355 . S
C1022 C1024 1.419 . S
C1023 C1018 1.425 . S
C1023 C1020 1.409 . S
C1023 C1021 1.415 . S
C1024 H1014 0.930 . S
C1024 C1022 1.419 . S
C1024 C1025 1.362 . S
C1025 H1015 0.930 . S
C1025 C1018 1.409 . S
C1025 C1024 1.362 . S
H1026 C1032 0.930 . S
H1027 C1035 0.930 . S
H1028 C1036 0.930 . S
H1029 C1037 0.930 . S
H1030 C1040 0.930 . S
H1031 C1041 0.930 . S
C1032 H1026 0.930 . S
C1032 C1033 1.355 . S
C1032 C1034 1.415 1_565 S
C1033 C1032 1.355 . S
C1033 C1035 1.419 . S
C1034 C1032 1.415 1_545 S
C1034 C1039 1.425 . S
C1034 C1041 1.409 . S
C1035 H1027 0.930 . S
C1035 C1033 1.419 . S
C1035 C1036 1.362 . S
C1036 H1028 0.930 . S
C1036 C1035 1.362 . S
C1036 C1039 1.409 1_565 S
C1037 H1029 0.930 . S
C1037 C1038 1.355 . S
C1037 C1039 1.415 . S
C1038 C1037 1.355 . S
C1038 C1040 1.419 . S
C1039 C1034 1.425 . S
C1039 C1036 1.409 1_545 S
C1039 C1037 1.415 . S
C1040 H1030 0.930 . S
C1040 C1038 1.419 . S
C1040 C1041 1.362 . S
C1041 H1031 0.930 . S
C1041 C1034 1.409 . S
C1041 C1040 1.362 . S
H1042 C1048 0.930 . S
H1043 C1051 0.919 1_455 S
H1044 C1052 0.930 . S
H1045 C1053 0.930 . S
H1046 C1056 0.930 . S
H1047 C1057 0.938 . S
C1048 H1042 0.930 . S
C1048 C1049 1.355 . S
C1048 C1050 1.415 1_455 S
C1049 C1048 1.355 . S
C1049 C1051 1.408 1_455 S
C1050 C1048 1.415 1_655 S
C1050 C1055 1.425 . S
C1050 C1057 1.409 . S
C1051 H1043 0.919 1_655 S
C1051 C1049 1.408 1_655 S
C1051 C1052 1.385 . S
C1052 H1044 0.930 . S
C1052 C1051 1.385 . S
C1052 C1055 1.409 . S
C1053 H1045 0.930 . S
C1053 C1054 1.355 . S
C1053 C1055 1.415 . S
C1054 C1053 1.355 . S
C1054 C1056 1.419 . S
C1055 C1050 1.425 . S
C1055 C1052 1.409 . S
C1055 C1053 1.415 . S
C1056 H1046 0.930 . S
C1056 C1054 1.419 . S
C1056 C1057 1.362 . S
C1057 H1047 0.938 . S
C1057 C1050 1.409 . S
C1057 C1056 1.362 . S
H1058 C1064 0.930 . S
H1059 C1067 0.930 . S
H1060 C1068 0.930 . S
H1061 C1069 0.930 . S
H1062 C1072 0.930 . S
H1063 C1073 0.930 . S
C1064 H1058 0.930 . S
C1064 C1065 1.355 . S
C1064 C1066 1.415 . S
C1065 C1064 1.355 . S
C1065 C1067 1.419 . S
C1066 C1064 1.415 . S
C1066 C1071 1.425 . S
C1066 C1073 1.409 . S
C1067 H1059 0.930 . S
C1067 C1065 1.419 . S
C1067 C1068 1.362 . S
C1068 H1060 0.930 . S
C1068 C1067 1.362 . S
C1068 C1071 1.409 . S
C1069 H1061 0.930 . S
C1069 C1070 1.355 . S
C1069 C1071 1.415 . S
C1070 C1069 1.355 . S
C1070 C1072 1.419 . S
C1071 C1066 1.425 . S
C1071 C1068 1.409 . S
C1071 C1069 1.415 . S
C1072 H1062 0.930 . S
C1072 C1070 1.419 . S
C1072 C1073 1.362 . S
C1073 H1063 0.930 . S
C1073 C1066 1.409 . S
C1073 C1072 1.362 . S
H1074 C1080 0.930 . S
H1075 C1083 0.930 . S
H1076 C1084 0.930 . S
H1077 C1085 0.930 . S
H1078 C1088 0.930 . S
H1079 C1089 0.930 . S
C1080 H1074 0.930 . S
C1080 C1081 1.355 . S
C1080 C1082 1.415 . S
C1081 C1080 1.355 . S
C1081 C1083 1.419 . S
C1082 C1080 1.415 . S
C1082 C1087 1.425 . S
C1082 C1089 1.409 . S
C1083 H1075 0.930 . S
C1083 C1081 1.419 . S
C1083 C1084 1.362 . S
C1084 H1076 0.930 . S
C1084 C1083 1.362 . S
C1084 C1087 1.409 . S
C1085 H1077 0.930 . S
C1085 C1086 1.355 . S
C1085 C1087 1.415 1_655 S
C1086 C1085 1.355 . S
C1086 C1088 1.419 . S
C1087 C1082 1.425 . S
C1087 C1084 1.409 . S
C1087 C1085 1.415 1_455 S
C1088 H1078 0.930 . S
C1088 C1086 1.419 . S
C1088 C1089 1.362 1_655 S
C1089 H1079 0.930 . S
C1089 C1082 1.409 . S
C1089 C1088 1.362 1_455 S
H1090 C1096 0.930 . S
H1091 C1099 0.930 . S
H1092 C1100 0.930 . S
H1093 C1101 0.930 . S
H1094 C1104 0.930 . S
H1095 C1105 0.930 . S
C1096 H1090 0.930 . S
C1096 C1097 1.355 . S
C1096 C1098 1.415 . S
C1097 C1096 1.355 . S
C1097 C1099 1.419 . S
C1098 C1096 1.415 . S
C1098 C1103 1.425 . S
C1098 C1105 1.409 . S
C1099 H1091 0.930 . S
C1099 C1097 1.419 . S
C1099 C1100 1.362 . S
C1100 H1092 0.930 . S
C1100 C1099 1.362 . S
C1100 C1103 1.409 . S
C1101 H1093 0.930 . S
C1101 C1102 1.355 . S
C1101 C1103 1.415 . S
C1102 C1101 1.355 . S
C1102 C1104 1.419 . S
C1103 C1098 1.425 . S
C1103 C1100 1.409 . S
C1103 C1101 1.415 . S
C1104 H1094 0.930 . S
C1104 C1102 1.419 . S
C1104 C1105 1.362 . S
C1105 H1095 0.930 . S
C1105 C1098 1.409 . S
C1105 C1104 1.362 . S
H1106 C1112 0.930 . S
H1107 C1115 0.930 . S
H1108 C1116 0.931 . S
H1109 C1117 0.930 . S
H1110 C1120 0.930 . S
H1111 C1121 0.930 . S
C1112 H1106 0.930 . S
C1112 C1113 1.355 . S
C1112 C1114 1.415 . S
C1113 C1112 1.355 . S
C1113 C1115 1.419 . S
C1114 C1112 1.415 . S
C1114 C1119 1.425 1_565 S
C1114 C1121 1.409 . S
C1115 H1107 0.930 . S
C1115 C1113 1.419 . S
C1115 C1116 1.362 . S
C1116 H1108 0.931 . S
C1116 C1115 1.362 . S
C1116 C1119 1.409 1_565 S
C1117 H1109 0.930 . S
C1117 C1118 1.355 . S
C1117 C1119 1.415 . S
C1118 C1117 1.355 . S
C1118 C1120 1.419 . S
C1119 C1114 1.425 1_545 S
C1119 C1116 1.409 1_545 S
C1119 C1117 1.415 . S
C1120 H1110 0.930 . S
C1120 C1118 1.419 . S
C1120 C1121 1.362 1_545 S
C1121 H1111 0.930 . S
C1121 C1114 1.409 . S
C1121 C1120 1.362 1_565 S
H1122 C1128 0.930 . S
H1123 C1131 0.930 . S
H1124 C1132 0.930 . S
H1125 C1133 0.930 . S
H1126 C1136 0.930 . S
H1127 C1137 0.930 . S
C1128 H1122 0.930 . S
C1128 C1129 1.355 . S
C1128 C1130 1.415 . S
C1129 C1128 1.355 . S
C1129 C1131 1.419 . S
C1130 C1128 1.415 . S
C1130 C1135 1.425 . S
C1130 C1137 1.409 . S
C1131 H1123 0.930 . S
C1131 C1129 1.419 . S
C1131 C1132 1.362 . S
C1132 H1124 0.930 . S
C1132 C1131 1.362 . S
C1132 C1135 1.409 . S
C1133 H1125 0.930 . S
C1133 C1134 1.355 . S
C1133 C1135 1.415 . S
C1134 C1133 1.355 . S
C1134 C1136 1.419 . S
C1135 C1130 1.425 . S
C1135 C1132 1.409 . S
C1135 C1133 1.415 . S
C1136 H1126 0.930 . S
C1136 C1134 1.419 . S
C1136 C1137 1.362 . S
C1137 H1127 0.930 . S
C1137 C1130 1.409 . S
C1137 C1136 1.362 . S
H1138 C1144 0.930 . S
H1139 C1147 0.930 . S
H1140 C1148 0.930 . S
H1141 C1149 0.930 . S
H1142 C1152 0.930 . S
H1143 C1153 0.930 . S
C1144 H1138 0.930 . S
C1144 C1145 1.355 . S
C1144 C1146 1.415 . S
C1145 C1144 1.355 . S
C1145 C1147 1.419 . S
C1146 C1144 1.415 . S
C1146 C1151 1.425 . S
C1146 C1153 1.409 . S
C1147 H1139 0.930 . S
C1147 C1145 1.419 . S
C1147 C1148 1.362 . S
C1148 H1140 0.930 . S
C1148 C1147 1.362 . S
C1148 C1151 1.409 . S
C1149 H1141 0.930 . S
C1149 C1150 1.355 . S
C1149 C1151 1.415 . S
C1150 C1149 1.355 . S
C1150 C1152 1.419 . S
C1151 C1146 1.425 . S
C1151 C1148 1.409 . S
C1151 C1149 1.415 . S
C1152 H1142 0.930 . S
C1152 C1150 1.419 . S
C1152 C1153 1.362 . S
C1153 H1143 0.930 . S
C1153 C1146 1.409 . S
C1153 C1152 1.362 . S
H1154 C1160 0.930 . S
H1155 C1163 0.930 . S
H1156 C1164 0.930 . S
H1157 C1165 0.930 . S
H1158 C1168 0.930 . S
H1159 C1169 0.930 . S
C1160 H1154 0.930 . S
C1160 C1161 1.355 . S
C1160 C1162 1.415 . S
C1161 C1160 1.355 . S
C1161 C1163 1.419 . S
C1162 C1160 1.415 . S
C1162 C1167 1.425 . S
C1162 C1169 1.409 . S
C1163 H1155 0.930 . S
C1163 C1161 1.419 . S
C1163 C1164 1.362 . S
C1164 H1156 0.930 . S
C1164 C1163 1.362 . S
C1164 C1167 1.409 . S
C1165 H1157 0.930 . S
C1165 C1166 1.355 . S
C1165 C1167 1.415 . S
C1166 C1165 1.355 . S
C1166 C1168 1.419 . S
C1167 C1162 1.425 . S
C1167 C1164 1.409 . S
C1167 C1165 1.415 . S
C1168 H1158 0.930 . S
C1168 C1166 1.419 . S
C1168 C1169 1.362 . S
C1169 H1159 0.930 . S
C1169 C1162 1.409 . S
C1169 C1168 1.362 . S
H1170 C1176 0.930 . S
H1171 C1179 0.930 . S
H1172 C1180 0.930 . S
H1173 C1181 0.930 . S
H1174 C1184 0.930 . S
H1175 C1185 0.930 . S
C1176 H1170 0.930 . S
C1176 C1177 1.355 . S
C1176 C1178 1.415 . S
C1177 C1176 1.355 . S
C1177 C1179 1.419 . S
C1178 C1176 1.415 . S
C1178 C1183 1.425 . S
C1178 C1185 1.409 . S
C1179 H1171 0.930 . S
C1179 C1177 1.419 . S
C1179 C1180 1.362 . S
C1180 H1172 0.930 . S
C1180 C1179 1.362 . S
C1180 C1183 1.409 . S
C1181 H1173 0.930 . S
C1181 C1182 1.355 . S
C1181 C1183 1.415 . S
C1182 C1181 1.355 . S
C1182 C1184 1.419 . S
C1183 C1178 1.425 . S
C1183 C1180 1.409 . S
C1183 C1181 1.415 . S
C1184 H1174 0.930 . S
C1184 C1182 1.419 . S
C1184 C1185 1.362 . S
C1185 H1175 0.930 . S
C1185 C1178 1.409 . S
C1185 C1184 1.362 . S
H1186 C1192 0.930 . S
H1187 C1195 0.930 . S
H1188 C1196 0.930 . S
H1189 C1197 0.930 . S
H1190 C1200 0.930 1_655 S
H1191 C1201 0.930 1_655 S
C1192 H1186 0.930 . S
C1192 C1193 1.355 . S
C1192 C1194 1.415 . S
C1193 C1192 1.355 . S
C1193 C1195 1.419 . S
C1194 C1192 1.415 . S
C1194 C1199 1.425 . S
C1194 C1201 1.409 . S
C1195 H1187 0.930 . S
C1195 C1193 1.419 . S
C1195 C1196 1.362 . S
C1196 H1188 0.930 . S
C1196 C1195 1.362 . S
C1196 C1199 1.409 . S
C1197 H1189 0.930 . S
C1197 C1198 1.355 . S
C1197 C1199 1.415 . S
C1198 C1197 1.355 . S
C1198 C1200 1.419 . S
C1199 C1194 1.425 . S
C1199 C1196 1.409 . S
C1199 C1197 1.415 . S
C1200 H1190 0.930 1_455 S
C1200 C1198 1.419 . S
C1200 C1201 1.362 . S
C1201 H1191 0.930 1_455 S
C1201 C1194 1.409 . S
C1201 C1200 1.362 . S
H1202 C1208 0.930 . S
H1203 C1211 0.930 . S
H1204 C1212 0.930 . S
H1205 C1213 0.930 . S
H1206 C1216 0.930 . S
H1207 C1217 0.930 . S
C1208 H1202 0.930 . S
C1208 C1209 1.355 . S
C1208 C1210 1.415 . S
C1209 C1208 1.355 . S
C1209 C1211 1.419 . S
C1210 C1208 1.415 . S
C1210 C1215 1.425 . S
C1210 C1217 1.409 . S
C1211 H1203 0.930 . S
C1211 C1209 1.419 . S
C1211 C1212 1.362 . S
C1212 H1204 0.930 . S
C1212 C1211 1.362 . S
C1212 C1215 1.409 . S
C1213 H1205 0.930 . S
C1213 C1214 1.355 . S
C1213 C1215 1.415 . S
C1214 C1213 1.355 . S
C1214 C1216 1.419 . S
C1215 C1210 1.425 . S
C1215 C1212 1.409 . S
C1215 C1213 1.415 . S
C1216 H1206 0.930 . S
C1216 C1214 1.419 . S
C1216 C1217 1.362 . S
C1217 H1207 0.930 . S
C1217 C1210 1.409 . S
C1217 C1216 1.362 . S
H1218 C1224 0.930 . S
H1219 C1227 0.930 . S
H1220 C1228 0.930 . S
H1221 C1229 0.930 . S
H1222 C1232 0.930 . S
H1223 C1233 0.930 . S
C1224 H1218 0.930 . S
C1224 C1225 1.355 . S
C1224 C1226 1.415 . S
C1225 C1224 1.355 . S
C1225 C1227 1.419 . S
C1226 C1224 1.415 . S
C1226 C1231 1.425 . S
C1226 C1233 1.409 . S
C1227 H1219 0.930 . S
C1227 C1225 1.419 . S
C1227 C1228 1.362 . S
C1228 H1220 0.930 . S
C1228 C1227 1.362 . S
C1228 C1231 1.409 . S
C1229 H1221 0.930 . S
C1229 C1230 1.355 . S
C1229 C1231 1.415 . S
C1230 C1229 1.355 . S
C1230 C1232 1.419 . S
C1231 C1226 1.425 . S
C1231 C1228 1.409 . S
C1231 C1229 1.415 . S
C1232 H1222 0.930 . S
C1232 C1230 1.419 . S
C1232 C1233 1.362 . S
C1233 H1223 0.930 . S
C1233 C1226 1.409 . S
C1233 C1232 1.362 . S
H1234 C1240 0.930 . S
H1235 C1243 0.930 . S
H1236 C1244 0.930 . S
H1237 C1245 0.930 . S
H1238 C1248 0.930 . S
H1239 C1249 0.930 . S
C1240 H1234 0.930 . S
C1240 C1241 1.355 . S
C1240 C1242 1.415 . S
C1241 C1240 1.355 . S
C1241 C1243 1.419 . S
C1242 C1240 1.415 . S
C1242 C1247 1.425 . S
C1242 C1249 1.409 . S
C1243 H1235 0.930 . S
C1243 C1241 1.419 . S
C1243 C1244 1.362 . S
C1244 H1236 0.930 . S
C1244 C1243 1.362 . S
C1244 C1247 1.409 . S
C1245 H1237 0.930 . S
C1245 C1246 1.355 . S
C1245 C1247 1.415 . S
C1246 C1245 1.355 . S
C1246 C1248 1.419 . S
C1247 C1242 1.425 . S
C1247 C1244 1.409 . S
C1247 C1245 1.415 . S
C1248 H1238 0.930 . S
C1248 C1246 1.419 . S
C1248 C1249 1.362 . S
C1249 H1239 0.930 . S
C1249 C1242 1.409 . S
C1249 C1248 1.362 . S
H1250 C1256 0.930 . S
H1251 C1259 0.930 . S
H1252 C1260 0.930 . S
H1253 C1261 0.930 . S
H1254 C1264 0.930 . S
H1255 C1265 0.930 . S
C1256 H1250 0.930 . S
C1256 C1257 1.355 . S
C1256 C1258 1.415 . S
C1257 C1256 1.355 . S
C1257 C1259 1.419 . S
C1258 C1256 1.415 . S
C1258 C1263 1.425 . S
C1258 C1265 1.409 . S
C1259 H1251 0.930 . S
C1259 C1257 1.419 . S
C1259 C1260 1.362 . S
C1260 H1252 0.930 . S
C1260 C1259 1.362 . S
C1260 C1263 1.409 . S
C1261 H1253 0.930 . S
C1261 C1262 1.355 . S
C1261 C1263 1.415 . S
C1262 C1261 1.355 . S
C1262 C1264 1.419 . S
C1263 C1258 1.425 . S
C1263 C1260 1.409 . S
C1263 C1261 1.415 . S
C1264 H1254 0.930 . S
C1264 C1262 1.419 . S
C1264 C1265 1.362 . S
C1265 H1255 0.930 . S
C1265 C1258 1.409 . S
C1265 C1264 1.362 . S
H1266 C1272 0.930 . S
H1267 C1275 0.930 . S
H1268 C1276 0.930 . S
H1269 C1277 0.930 . S
H1270 C1280 0.930 . S
H1271 C1281 0.930 . S
C1272 H1266 0.930 . S
C1272 C1273 1.355 . S
C1272 C1274 1.415 . S
C1273 C1272 1.355 . S
C1273 C1275 1.419 . S
C1274 C1272 1.415 . S
C1274 C1279 1.425 . S
C1274 C1281 1.409 . S
C1275 H1267 0.930 . S
C1275 C1273 1.419 . S
C1275 C1276 1.362 . S
C1276 H1268 0.930 . S
C1276 C1275 1.362 . S
C1276 C1279 1.409 . S
C1277 H1269 0.930 . S
C1277 C1278 1.355 . S
C1277 C1279 1.415 . S
C1278 C1277 1.355 . S
C1278 C1280 1.419 . S
C1279 C1274 1.425 . S
C1279 C1276 1.409 . S
C1279 C1277 1.415 . S
C1280 H1270 0.930 . S
C1280 C1278 1.419 . S
C1280 C1281 1.362 . S
C1281 H1271 0.930 . S
C1281 C1274 1.409 . S
C1281 C1280 1.362 . S
H1282 C1288 0.930 . S
H1283 C1291 0.930 . S
H1284 C1292 0.930 . S
H1285 C1293 0.930 . S
H1286 C1296 0.930 . S
H1287 C1297 0.930 . S
C1288 H1282 0.930 . S
C1288 C1289 1.355 . S
C1288 C1290 1.415 . S
C1289 C1288 1.355 . S
C1289 C1291 1.419 . S
C1290 C1288 1.415 . S
C1290 C1295 1.425 . S
C1290 C1297 1.409 . S
C1291 H1283 0.930 . S
C1291 C1289 1.419 . S
C1291 C1292 1.362 . S
C1292 H1284 0.930 . S
C1292 C1291 1.362 . S
C1292 C1295 1.409 . S
C1293 H1285 0.930 . S
C1293 C1294 1.355 . S
C1293 C1295 1.415 . S
C1294 C1293 1.355 . S
C1294 C1296 1.419 . S
C1295 C1290 1.425 . S
C1295 C1292 1.409 . S
C1295 C1293 1.415 . S
C1296 H1286 0.930 . S
C1296 C1294 1.419 . S
C1296 C1297 1.362 . S
C1297 H1287 0.930 . S
C1297 C1290 1.409 . S
C1297 C1296 1.362 . S
H1298 C1304 0.930 . S
H1299 C1307 0.930 . S
H1300 C1308 0.930 . S
H1301 C1309 0.930 . S
H1302 C1312 0.930 . S
H1303 C1313 0.930 . S
C1304 H1298 0.930 . S
C1304 C1305 1.355 . S
C1304 C1306 1.415 . S
C1305 C1304 1.355 . S
C1305 C1307 1.419 . S
C1306 C1304 1.415 . S
C1306 C1311 1.425 . S
C1306 C1313 1.409 . S
C1307 H1299 0.930 . S
C1307 C1305 1.419 . S
C1307 C1308 1.362 . S
C1308 H1300 0.930 . S
C1308 C1307 1.362 . S
C1308 C1311 1.409 . S
C1309 H1301 0.930 . S
C1309 C1310 1.355 . S
C1309 C1311 1.415 . S
C1310 C1309 1.355 . S
C1310 C1312 1.419 . S
C1311 C1306 1.425 . S
C1311 C1308 1.409 . S
C1311 C1309 1.415 . S
C1312 H1302 0.930 . S
C1312 C1310 1.419 . S
C1312 C1313 1.362 . S
C1313 H1303 0.930 . S
C1313 C1306 1.409 . S
C1313 C1312 1.362 . S
H1314 C1320 0.930 . S
H1315 C1323 0.930 . S
H1316 C1324 0.930 . S
H1317 C1325 0.930 . S
H1318 C1328 0.930 . S
H1319 C1329 0.930 . S
C1320 H1314 0.930 . S
C1320 C1321 1.355 . S
C1320 C1322 1.415 . S
C1321 C1320 1.355 . S
C1321 C1323 1.419 . S
C1322 C1320 1.415 . S
C1322 C1327 1.425 . S
C1322 C1329 1.409 . S
C1323 H1315 0.930 . S
C1323 C1321 1.419 . S
C1323 C1324 1.362 . S
C1324 H1316 0.930 . S
C1324 C1323 1.362 . S
C1324 C1327 1.409 . S
C1325 H1317 0.930 . S
C1325 C1326 1.355 . S
C1325 C1327 1.415 . S
C1326 C1325 1.355 . S
C1326 C1328 1.419 . S
C1327 C1322 1.425 . S
C1327 C1324 1.409 . S
C1327 C1325 1.415 . S
C1328 H1318 0.930 . S
C1328 C1326 1.419 . S
C1328 C1329 1.362 . S
C1329 H1319 0.930 . S
C1329 C1322 1.409 . S
C1329 C1328 1.362 . S
H1330 C1336 0.930 . S
H1331 C1339 0.930 . S
H1332 C1340 0.930 . S
H1333 C1341 0.930 . S
H1334 C1344 0.930 . S
H1335 C1345 0.930 . S
C1336 H1330 0.930 . S
C1336 C1337 1.355 . S
C1336 C1338 1.415 . S
C1337 C1336 1.355 . S
C1337 C1339 1.419 . S
C1338 C1336 1.415 . S
C1338 C1343 1.425 . S
C1338 C1345 1.409 . S
C1339 H1331 0.930 . S
C1339 C1337 1.419 . S
C1339 C1340 1.362 . S
C1340 H1332 0.930 . S
C1340 C1339 1.362 . S
C1340 C1343 1.409 . S
C1341 H1333 0.930 . S
C1341 C1342 1.355 . S
C1341 C1343 1.415 . S
C1342 C1341 1.355 . S
C1342 C1344 1.419 . S
C1343 C1338 1.425 . S
C1343 C1340 1.409 . S
C1343 C1341 1.415 . S
C1344 H1334 0.930 . S
C1344 C1342 1.419 . S
C1344 C1345 1.362 . S
C1345 H1335 0.930 . S
C1345 C1338 1.409 . S
C1345 C1344 1.362 . S
H1346 C1352 0.930 . S
H1347 C1355 0.930 . S
H1348 C1356 0.930 . S
H1349 C1357 0.930 . S
H1350 C1360 0.930 . S
H1351 C1361 0.930 . S
C1352 H1346 0.930 . S
C1352 C1353 1.355 . S
C1352 C1354 1.415 . S
C1353 C1352 1.355 . S
C1353 C1355 1.419 . S
C1354 C1352 1.415 . S
C1354 C1359 1.425 . S
C1354 C1361 1.409 . S
C1355 H1347 0.930 . S
C1355 C1353 1.419 . S
C1355 C1356 1.362 . S
C1356 H1348 0.930 . S
C1356 C1355 1.362 . S
C1356 C1359 1.409 . S
C1357 H1349 0.930 . S
C1357 C1358 1.355 . S
C1357 C1359 1.415 . S
C1358 C1357 1.355 . S
C1358 C1360 1.419 . S
C1359 C1354 1.425 . S
C1359 C1356 1.409 . S
C1359 C1357 1.415 . S
C1360 H1350 0.930 . S
C1360 C1358 1.419 . S
C1360 C1361 1.362 . S
C1361 H1351 0.930 . S
C1361 C1354 1.409 . S
C1361 C1360 1.362 . S
H1362 C1368 0.930 . S
H1363 C1371 0.930 . S
H1364 C1372 0.930 . S
H1365 C1373 0.930 . S
H1366 C1376 0.930 . S
H1367 C1377 0.930 . S
C1368 H1362 0.930 . S
C1368 C1369 1.355 . S
C1368 C1370 1.415 . S
C1369 C1368 1.355 . S
C1369 C1371 1.419 . S
C1370 C1368 1.415 . S
C1370 C1375 1.425 . S
C1370 C1377 1.409 . S
C1371 H1363 0.930 . S
C1371 C1369 1.419 . S
C1371 C1372 1.362 . S
C1372 H1364 0.930 . S
C1372 C1371 1.362 . S
C1372 C1375 1.409 . S
C1373 H1365 0.930 . S
C1373 C1374 1.355 . S
C1373 C1375 1.415 . S
C1374 C1373 1.355 . S
C1374 C1376 1.419 . S
C1375 C1370 1.425 . S
C1375 C1372 1.409 . S
C1375 C1373 1.415 . S
C1376 H1366 0.930 . S
C1376 C1374 1.419 . S
C1376 C1377 1.362 . S
C1377 H1367 0.930 . S
C1377 C1370 1.409 . S
C1377 C1376 1.362 . S
H1378 C1384 0.930 . S
H1379 C1387 0.930 . S
H1380 C1388 0.930 . S
H1381 C1389 0.930 . S
H1382 C1392 0.930 . S
H1383 C1393 0.930 . S
C1384 H1378 0.930 . S
C1384 C1385 1.355 . S
C1384 C1386 1.415 . S
C1385 C1384 1.355 . S
C1385 C1387 1.419 . S
C1386 C1384 1.415 . S
C1386 C1391 1.425 . S
C1386 C1393 1.409 . S
C1387 H1379 0.930 . S
C1387 C1385 1.419 . S
C1387 C1388 1.362 . S
C1388 H1380 0.930 . S
C1388 C1387 1.362 . S
C1388 C1391 1.409 . S
C1389 H1381 0.930 . S
C1389 C1390 1.355 . S
C1389 C1391 1.415 . S
C1390 C1389 1.355 . S
C1390 C1392 1.419 . S
C1391 C1386 1.425 . S
C1391 C1388 1.409 . S
C1391 C1389 1.415 . S
C1392 H1382 0.930 . S
C1392 C1390 1.419 . S
C1392 C1393 1.362 . S
C1393 H1383 0.930 . S
C1393 C1386 1.409 . S
C1393 C1392 1.362 . S
H1394 C1400 0.930 . S
H1395 C1403 0.930 . S
H1396 C1404 0.930 . S
H1397 C1405 0.930 . S
H1398 C1408 0.930 . S
H1399 C1409 0.930 . S
C1400 H1394 0.930 . S
C1400 C1401 1.355 . S
C1400 C1402 1.415 . S
C1401 C1400 1.355 . S
C1401 C1403 1.419 . S
C1402 C1400 1.415 . S
C1402 C1407 1.425 . S
C1402 C1409 1.409 . S
C1403 H1395 0.930 . S
C1403 C1401 1.419 . S
C1403 C1404 1.362 . S
C1404 H1396 0.930 . S
C1404 C1403 1.362 . S
C1404 C1407 1.409 . S
C1405 H1397 0.930 . S
C1405 C1406 1.355 . S
C1405 C1407 1.415 . S
C1406 C1405 1.355 . S
C1406 C1408 1.419 . S
C1407 C1402 1.425 . S
C1407 C1404 1.409 . S
C1407 C1405 1.415 . S
C1408 H1398 0.930 . S
C1408 C1406 1.419 . S
C1408 C1409 1.362 . S
C1409 H1399 0.930 . S
C1409 C1402 1.409 . S
C1409 C1408 1.362 . S
H1410 C1416 0.930 . S
H1411 C1419 0.930 . S
H1412 C1420 0.930 . S
H1413 C1421 0.930 . S
H1414 C1424 0.930 . S
H1415 C1425 0.930 . S
C1416 H1410 0.930 . S
C1416 C1417 1.355 . S
C1416 C1418 1.415 . S
C1417 C1416 1.355 . S
C1417 C1419 1.419 . S
C1418 C1416 1.415 . S
C1418 C1423 1.425 . S
C1418 C1425 1.409 . S
C1419 H1411 0.930 . S
C1419 C1417 1.419 . S
C1419 C1420 1.362 . S
C1420 H1412 0.930 . S
C1420 C1419 1.362 . S
C1420 C1423 1.409 . S
C1421 H1413 0.930 . S
C1421 C1422 1.355 . S
C1421 C1423 1.415 . S
C1422 C1421 1.355 . S
C1422 C1424 1.419 . S
C1423 C1418 1.425 . S
C1423 C1420 1.409 . S
C1423 C1421 1.415 . S
C1424 H1414 0.930 . S
C1424 C1422 1.419 . S
C1424 C1425 1.362 . S
C1425 H1415 0.930 . S
C1425 C1418 1.409 . S
C1425 C1424 1.362 . S
H1426 C1432 0.930 . S
H1427 C1435 0.930 . S
H1428 C1436 0.930 . S
H1429 C1437 0.930 . S
H1430 C1440 0.930 . S
H1431 C1441 0.930 . S
C1432 H1426 0.930 . S
C1432 C1433 1.355 . S
C1432 C1434 1.415 . S
C1433 C1432 1.355 . S
C1433 C1435 1.419 . S
C1434 C1432 1.415 . S
C1434 C1439 1.425 . S
C1434 C1441 1.409 . S
C1435 H1427 0.930 . S
C1435 C1433 1.419 . S
C1435 C1436 1.362 . S
C1436 H1428 0.930 . S
C1436 C1435 1.362 . S
C1436 C1439 1.409 . S
C1437 H1429 0.930 . S
C1437 C1438 1.355 . S
C1437 C1439 1.415 . S
C1438 C1437 1.355 . S
C1438 C1440 1.419 . S
C1439 C1434 1.425 . S
C1439 C1436 1.409 . S
C1439 C1437 1.415 . S
C1440 H1430 0.930 . S
C1440 C1438 1.419 . S
C1440 C1441 1.362 . S
C1441 H1431 0.930 . S
C1441 C1434 1.409 . S
C1441 C1440 1.362 . S
H1442 C1448 0.930 . S
H1443 C1451 0.930 . S
H1444 C1452 0.930 . S
H1445 C1453 0.930 . S
H1446 C1456 0.930 . S
H1447 C1457 0.930 . S
C1448 H1442 0.930 . S
C1448 C1449 1.355 . S
C1448 C1450 1.415 . S
C1449 C1448 1.355 . S
C1449 C1451 1.419 . S
C1450 C1448 1.415 . S
C1450 C1455 1.425 . S
C1450 C1457 1.409 . S
C1451 H1443 0.930 . S
C1451 C1449 1.419 . S
C1451 C1452 1.362 . S
C1452 H1444 0.930 . S
C1452 C1451 1.362 . S
C1452 C1455 1.409 . S
C1453 H1445 0.930 . S
C1453 C1454 1.355 . S
C1453 C1455 1.415 . S
C1454 C1453 1.355 . S
C1454 C1456 1.419 . S
C1455 C1450 1.425 . S
C1455 C1452 1.409 . S
C1455 C1453 1.415 . S
C1456 H1446 0.930 . S
C1456 C1454 1.419 . S
C1456 C1457 1.362 . S
C1457 H1447 0.930 . S
C1457 C1450 1.409 . S
C1457 C1456 1.362 . S
C601 N170 2.024 . S
C606 C237 2.073 . S
C617 N184 1.200 . S
C622 C277 1.199 . S
C633 N158 1.655 . S
C638 C329 1.665 . S
C649 N145 1.538 . S
C654 C289 1.540 1_556 S
C670 C317 0.891 . S
C665 N119 0.900 . S
C681 N131 1.784 . S
C686 C249 1.855 1_556 S
C702 C256 1.755 . S
C697 N144 1.735 . S
C718 C296 1.656 . S
C713 N118 1.664 . S
C729 N132 1.578 . S
C734 C316 1.564 . S
C745 N171 1.453 . S
C750 C276 1.472 . S
C761 N183 1.317 . S
C766 C336 1.359 . S
C782 C236 1.453 . S
C777 N157 1.494 . S
C798 C357 2.092 . S
C793 N14 2.056 . S
C809 N28 1.181 . S
C814 C397 1.185 . S
C825 N2 1.668 . S
C830 C449 1.642 . S
C841 N223 1.542 . S
C846 C409 1.546 . S
C857 N197 0.898 . S
C862 C437 0.890 . S
C873 N209 1.828 . S
C878 C369 1.837 . S
C889 N222 1.760 . S
C894 C376 1.768 . S
C905 N196 1.669 . S
C910 C416 1.646 . S
C926 C436 1.564 . S
C921 N210 1.578 . S
C937 N15 1.498 . S
C942 C396 1.476 . S
C958 C456 1.336 . S
C953 N27 1.349 . S
C969 N1 1.462 . S
C974 C356 1.486 . S
C990 C477 2.093 . S
C985 N92 2.055 . S
C1001 N106 1.201 . S
C1006 C517 1.199 . S
C1022 C569 1.678 . S
C1017 N80 1.682 . S
C1038 C529 1.542 . S
C1033 N67 1.568 . S
C1054 C557 0.889 . S
C1049 N41 0.897 . S
C1065 N53 1.776 . S
C1070 C489 1.840 . S
C1081 N66 1.760 . S
C1086 C496 1.768 . S
C1097 N40 1.653 . S
C1102 C536 1.668 . S
C1118 C556 1.553 . S
C1113 N54 1.534 . S
C1129 N93 1.498 . S
C1134 C516 1.474 . S
C1145 N105 1.358 . S
C1150 C576 1.335 . S
C1161 N79 1.470 . S
C1166 C476 1.451 . S
C1177 N200 1.067 . S
C1182 C260 1.096 . S
C1198 C300 1.926 . S
C1193 N213 1.938 . S
C1209 N226 1.565 . S
C1214 C323 1.579 . S
C1225 N83 1.799 . S
C1230 C283 1.794 . S
C1241 N96 1.772 . S
C1246 C340 1.786 . S
C1262 C243 1.204 . S
C1257 N109 1.266 . S
C1273 N44 1.102 . S
C1278 C380 1.114 . S
C1289 N57 1.948 . S
C1294 C420 1.963 . S
C1305 N70 1.587 . S
C1310 C443 1.556 . S
C1321 N161 1.815 . S
C1326 C403 1.749 . S
C1342 C460 1.810 . S
C1337 N174 1.758 . S
C1353 N187 1.245 . S
C1358 C363 1.262 . S
C1369 N122 1.117 . S
C1374 C500 1.114 . S
C1385 N135 1.916 . S
C1390 C540 1.936 . S
C1406 C563 1.556 . S
C1401 N148 1.597 . S
C1417 N5 1.800 . S
C1422 C523 1.738 . S
C1433 N18 1.781 . S
C1438 C580 1.787 . S
C1449 N31 1.267 . S
C1454 C483 1.201 . S
