# Generated by pormake.
# Topology pyr, (3,6)-cn, num edge types: 1
# Building blocks:
#     Node 0, Type 0, BuildingBlock: BELTOD_clean_linker_0, # of connection points: 3
#     Node 1, Type 0, BuildingBlock: BELTOD_clean_linker_0, # of connection points: 3
#     Node 2, Type 0, BuildingBlock: BELTOD_clean_linker_0, # of connection points: 3
#     Node 3, Type 0, BuildingBlock: BELTOD_clean_linker_0, # of connection points: 3
#     Node 4, Type 0, BuildingBlock: BELTOD_clean_linker_0, # of connection points: 3
#     Node 5, Type 0, BuildingBlock: BELTOD_clean_linker_0, # of connection points: 3
#     Node 6, Type 0, BuildingBlock: BELTOD_clean_linker_0, # of connection points: 3
#     Node 7, Type 0, BuildingBlock: BELTOD_clean_linker_0, # of connection points: 3
#     Node 8, Type 1, BuildingBlock: BETFAJ_clean_sbu_0, # of connection points: 6
#     Node 9, Type 1, BuildingBlock: BETFAJ_clean_sbu_0, # of connection points: 6
#     Node 10, Type 1, BuildingBlock: BETFAJ_clean_sbu_0, # of connection points: 6
#     Node 11, Type 1, BuildingBlock: BETFAJ_clean_sbu_0, # of connection points: 6
#     Edge 12, Type (0, 1), BuildingBlock: TEMPAE_clean_linker_10, # of connection points: 2
#     Edge 13, Type (0, 1), BuildingBlock: TEMPAE_clean_linker_10, # of connection points: 2
#     Edge 14, Type (0, 1), BuildingBlock: TEMPAE_clean_linker_10, # of connection points: 2
#     Edge 15, Type (0, 1), BuildingBlock: TEMPAE_clean_linker_10, # of connection points: 2
#     Edge 16, Type (0, 1), BuildingBlock: TEMPAE_clean_linker_10, # of connection points: 2
#     Edge 17, Type (0, 1), BuildingBlock: TEMPAE_clean_linker_10, # of connection points: 2
#     Edge 18, Type (0, 1), BuildingBlock: TEMPAE_clean_linker_10, # of connection points: 2
#     Edge 19, Type (0, 1), BuildingBlock: TEMPAE_clean_linker_10, # of connection points: 2
#     Edge 20, Type (0, 1), BuildingBlock: TEMPAE_clean_linker_10, # of connection points: 2
#     Edge 21, Type (0, 1), BuildingBlock: TEMPAE_clean_linker_10, # of connection points: 2
#     Edge 22, Type (0, 1), BuildingBlock: TEMPAE_clean_linker_10, # of connection points: 2
#     Edge 23, Type (0, 1), BuildingBlock: TEMPAE_clean_linker_10, # of connection points: 2
#     Edge 24, Type (0, 1), BuildingBlock: TEMPAE_clean_linker_10, # of connection points: 2
#     Edge 25, Type (0, 1), BuildingBlock: TEMPAE_clean_linker_10, # of connection points: 2
#     Edge 26, Type (0, 1), BuildingBlock: TEMPAE_clean_linker_10, # of connection points: 2
#     Edge 27, Type (0, 1), BuildingBlock: TEMPAE_clean_linker_10, # of connection points: 2
#     Edge 28, Type (0, 1), BuildingBlock: TEMPAE_clean_linker_10, # of connection points: 2
#     Edge 29, Type (0, 1), BuildingBlock: TEMPAE_clean_linker_10, # of connection points: 2
#     Edge 30, Type (0, 1), BuildingBlock: TEMPAE_clean_linker_10, # of connection points: 2
#     Edge 31, Type (0, 1), BuildingBlock: TEMPAE_clean_linker_10, # of connection points: 2
#     Edge 32, Type (0, 1), BuildingBlock: TEMPAE_clean_linker_10, # of connection points: 2
#     Edge 33, Type (0, 1), BuildingBlock: TEMPAE_clean_linker_10, # of connection points: 2
#     Edge 34, Type (0, 1), BuildingBlock: TEMPAE_clean_linker_10, # of connection points: 2
#     Edge 35, Type (0, 1), BuildingBlock: TEMPAE_clean_linker_10, # of connection points: 2
# Relax obj value: 0.103
# Max RMSD: 0.124
# Mean RMSD: 0.059
data_MOF--net-pyr--node1-BETFAJ_clean_sbu_0--node2-BELTOD_clean_linker_0--edge1-TEMPAE_clean_linker_10
_symmetry_space_group_name_H-M    P1
_symmetry_Int_Tables_number       1
_symmetry_cell_setting            triclinic
loop_
_symmetry_equiv_pos_as_xyz
'x, y, z'
_cell_length_a     43.378968
_cell_length_b     46.725145
_cell_length_c     41.94767
_cell_angle_alpha  91.21457
_cell_angle_beta   89.096589
_cell_angle_gamma 101.07529
loop_
_atom_site_label
_atom_site_type_symbol
_atom_site_fract_x
_atom_site_fract_y
_atom_site_fract_z
_atom_type_partial_charge
P0 P 0.37383 0.3121 0.24201 0.0
H1 H 0.43515 0.29457 0.24222 0.0
H2 H 0.45364 0.25243 0.21863 0.0
H3 H 0.36492 0.22583 0.17109 0.0
H4 H 0.34625 0.26748 0.19526 0.0
H5 H 0.34944 0.36347 0.26001 0.0
H6 H 0.31583 0.39108 0.23259 0.0
H7 H 0.3256 0.34189 0.14582 0.0
H8 H 0.36054 0.31554 0.17295 0.0
H9 H 0.37185 0.28757 0.30594 0.0
H10 H 0.30728 0.29122 0.22961 0.0
O11 O 0.40121 0.3312 0.26568 0.0
H12 H 0.32999 0.25585 0.33576 0.0
H13 H 0.26566 0.25993 0.25916 0.0
C14 C 0.3896 0.28466 0.21984 0.0
C15 C 0.41988 0.28004 0.22622 0.0
C16 C 0.43034 0.25584 0.21299 0.0
C17 C 0.4107 0.23597 0.19303 0.0
C18 C 0.38067 0.24103 0.18607 0.0
C19 C 0.37008 0.26495 0.19971 0.0
C20 C 0.35716 0.33717 0.21871 0.0
C21 C 0.34516 0.35929 0.2348 0.0
C22 C 0.32563 0.37482 0.21919 0.0
C23 C 0.31742 0.36824 0.1872 0.0
C24 C 0.33142 0.34753 0.17046 0.0
C25 C 0.35123 0.33217 0.1861 0.0
C26 C 0.3425 0.29219 0.26589 0.0
C27 C 0.34856 0.28203 0.29591 0.0
C28 C 0.3247 0.26393 0.31287 0.0
C29 C 0.29465 0.2554 0.29969 0.0
C30 C 0.28867 0.26595 0.26976 0.0
C31 C 0.3124 0.28408 0.25299 0.0
P32 P 0.37849 0.95103 0.55839 0.0
H33 H 0.40849 0.92275 0.60861 0.0
H34 H 0.41512 0.93374 0.66539 0.0
H35 H 0.38161 1.01411 0.65333 0.0
H36 H 0.37443 1.00269 0.59642 0.0
H37 H 0.42739 0.93215 0.51866 0.0
H38 H 0.44104 0.88424 0.50869 0.0
H39 H 0.36208 0.84483 0.56746 0.0
H40 H 0.34822 0.89218 0.57635 0.0
H41 H 0.33714 0.96761 0.51044 0.0
H42 H 0.32817 0.93113 0.60449 0.0
O43 O 0.39672 0.97593 0.53303 0.0
H44 H 0.28105 0.96858 0.51093 0.0
H45 H 0.27192 0.93062 0.60458 0.0
C46 C 0.39076 0.96186 0.59831 0.0
C47 C 0.40304 0.94297 0.61794 0.0
C48 C 0.40696 0.94933 0.65047 0.0
C49 C 0.39854 0.97463 0.66386 0.0
C50 C 0.38783 0.99424 0.64375 0.0
C51 C 0.38403 0.98789 0.61122 0.0
C52 C 0.38652 0.91569 0.54785 0.0
C53 C 0.41269 0.91306 0.5288 0.0
C54 C 0.42057 0.8857 0.5233 0.0
C55 C 0.40257 0.86065 0.53715 0.0
C56 C 0.37604 0.86348 0.55576 0.0
C57 C 0.36812 0.8907 0.56102 0.0
C58 C 0.33683 0.94969 0.55755 0.0
C59 C 0.32302 0.95948 0.53101 0.0
C60 C 0.29085 0.9597 0.53123 0.0
C61 C 0.27193 0.94971 0.55787 0.0
C62 C 0.28583 0.93891 0.58393 0.0
C63 C 0.318 0.93903 0.5838 0.0
P64 P 0.6717 0.33456 0.84351 0.0
H65 H 0.71507 0.3172 0.88806 0.0
H66 H 0.75751 0.34435 0.92092 0.0
H67 H 0.73319 0.42527 0.89255 0.0
H68 H 0.68957 0.39808 0.86121 0.0
H69 H 0.64201 0.2758 0.82227 0.0
H70 H 0.61497 0.23281 0.85035 0.0
H71 H 0.61788 0.284 0.93764 0.0
H72 H 0.64581 0.32684 0.90933 0.0
H73 H 0.69426 0.38634 0.80554 0.0
H74 H 0.60575 0.32852 0.82201 0.0
O75 O 0.69409 0.31895 0.81849 0.0
H76 H 0.67001 0.41289 0.76714 0.0
H77 H 0.58158 0.35327 0.78122 0.0
C78 C 0.69925 0.35544 0.8716 0.0
C79 C 0.71838 0.34077 0.88938 0.0
C80 C 0.7427 0.35629 0.90812 0.0
C81 C 0.74891 0.38693 0.90899 0.0
C82 C 0.72918 0.40165 0.89198 0.0
C83 C 0.70429 0.38605 0.87386 0.0
C84 C 0.64631 0.30459 0.86366 0.0
C85 C 0.63653 0.27791 0.84739 0.0
C86 C 0.62089 0.25323 0.86357 0.0
C87 C 0.61435 0.25456 0.89654 0.0
C88 C 0.62301 0.28179 0.91247 0.0
C89 C 0.63874 0.3065 0.8962 0.0
C90 C 0.65168 0.35613 0.81796 0.0
C91 C 0.66933 0.37964 0.80136 0.0
C92 C 0.65542 0.39445 0.77853 0.0
C93 C 0.62356 0.38541 0.77033 0.0
C94 C 0.60592 0.36157 0.78697 0.0
C95 C 0.61979 0.34719 0.81046 0.0
P96 P 0.82795 0.69074 0.33798 0.0
H97 H 0.8426 0.75206 0.31986 0.0
H98 H 0.87054 0.79634 0.34608 0.0
H99 H 0.89703 0.74492 0.42161 0.0
H100 H 0.86848 0.70026 0.39516 0.0
H101 H 0.80628 0.65055 0.28562 0.0
H102 H 0.83234 0.62324 0.2471 0.0
H103 H 0.92132 0.65639 0.29208 0.0
H104 H 0.89459 0.68321 0.33141 0.0
H105 H 0.79865 0.70686 0.39733 0.0
H106 H 0.79921 0.62805 0.34225 0.0
O107 O 0.80297 0.70347 0.31471 0.0
H108 H 0.75704 0.68076 0.43153 0.0
H109 H 0.75672 0.60206 0.37545 0.0
C110 C 0.85297 0.72271 0.3557 0.0
C111 C 0.85449 0.7501 0.34197 0.0
C112 C 0.87041 0.77556 0.35711 0.0
C113 C 0.88568 0.77434 0.38624 0.0
C114 C 0.88551 0.7467 0.39922 0.0
C115 C 0.86921 0.72113 0.38413 0.0
C116 C 0.84838 0.66907 0.31146 0.0
C117 C 0.83139 0.65184 0.28742 0.0
C118 C 0.84646 0.63638 0.26509 0.0
C119 C 0.87915 0.63778 0.26595 0.0
C120 C 0.89612 0.65458 0.29063 0.0
C121 C 0.88087 0.67006 0.31316 0.0
C122 C 0.80278 0.66944 0.36747 0.0
C123 C 0.79037 0.68376 0.39296 0.0
C124 C 0.76606 0.66884 0.41224 0.0
C125 C 0.75302 0.63922 0.40621 0.0
C126 C 0.76622 0.6247 0.38121 0.0
C127 C 0.79069 0.63965 0.36205 0.0
P128 P 0.69488 0.79001 0.87916 0.0
H129 H 0.66589 0.79966 0.94029 0.0
H130 H 0.62096 0.8218 0.95358 0.0
H131 H 0.59267 0.81361 0.85489 0.0
H132 H 0.63843 0.79206 0.84167 0.0
H133 H 0.73851 0.76018 0.84468 0.0
H134 H 0.75884 0.71699 0.85639 0.0
H135 H 0.69072 0.69718 0.9329 0.0
H136 H 0.66989 0.74089 0.92058 0.0
H137 H 0.72659 0.84776 0.8603 0.0
H138 H 0.68518 0.76676 0.81348 0.0
O139 O 0.71936 0.80931 0.90549 0.0
H140 H 0.74735 0.86748 0.80958 0.0
H141 H 0.7057 0.78662 0.76196 0.0
C142 C 0.65598 0.79501 0.8899 0.0
C143 C 0.64952 0.80179 0.92166 0.0
C144 C 0.62359 0.81436 0.92925 0.0
C145 C 0.60351 0.82012 0.90515 0.0
C146 C 0.60812 0.81014 0.87387 0.0
C147 C 0.6342 0.79763 0.8663 0.0
C148 C 0.70194 0.75341 0.88108 0.0
C149 C 0.72664 0.74587 0.86285 0.0
C150 C 0.73845 0.72104 0.8697 0.0
C151 C 0.72637 0.70356 0.89554 0.0
C152 C 0.70049 0.71024 0.91281 0.0
C153 C 0.6884 0.73507 0.90564 0.0
C154 C 0.7054 0.80549 0.84071 0.0
C155 C 0.72162 0.83433 0.83896 0.0
C156 C 0.73314 0.84572 0.80978 0.0
C157 C 0.72837 0.82852 0.7817 0.0
C158 C 0.7101 0.80023 0.78324 0.0
C159 C 0.69844 0.78888 0.81259 0.0
P160 P 0.82921 0.26258 0.39736 0.0
H161 H 0.81389 0.3198 0.4102 0.0
H162 H 0.77038 0.33499 0.43913 0.0
H163 H 0.73855 0.24656 0.47066 0.0
H164 H 0.78131 0.23139 0.44043 0.0
H165 H 0.85026 0.21185 0.36884 0.0
H166 H 0.86456 0.16878 0.39201 0.0
H167 H 0.85694 0.20581 0.48639 0.0
H168 H 0.84273 0.24899 0.46303 0.0
H169 H 0.82491 0.2888 0.33478 0.0
H170 H 0.78428 0.20955 0.38299 0.0
O171 O 0.85898 0.28989 0.38925 0.0
H172 H 0.79395 0.27126 0.28716 0.0
H173 H 0.75394 0.1919 0.3357 0.0
C174 C 0.80126 0.27467 0.42383 0.0
C175 C 0.79799 0.30387 0.42399 0.0
C176 C 0.77313 0.31251 0.44069 0.0
C177 C 0.75103 0.29199 0.4574 0.0
C178 C 0.75502 0.26287 0.45791 0.0
C179 C 0.77969 0.25423 0.44092 0.0
C180 C 0.84419 0.23303 0.41431 0.0
C181 C 0.85156 0.2107 0.39452 0.0
C182 C 0.85957 0.18604 0.40776 0.0
C183 C 0.86103 0.18366 0.44101 0.0
C184 C 0.85566 0.20696 0.4607 0.0
C185 C 0.84747 0.23158 0.44739 0.0
C186 C 0.80761 0.25001 0.36194 0.0
C187 C 0.80965 0.26755 0.33498 0.0
C188 C 0.79187 0.25765 0.30796 0.0
C189 C 0.77203 0.23007 0.30771 0.0
C190 C 0.76957 0.21297 0.33508 0.0
C191 C 0.78692 0.22302 0.36207 0.0
P192 P 0.37357 0.68586 0.21022 0.0
H193 H 0.35555 0.64948 0.15316 0.0
H194 H 0.30548 0.62639 0.1307 0.0
H195 H 0.25701 0.66279 0.20777 0.0
H196 H 0.30783 0.68483 0.23105 0.0
H197 H 0.43234 0.7287 0.21236 0.0
H198 H 0.44755 0.7788 0.19419 0.0
H199 H 0.35108 0.77903 0.17063 0.0
H200 H 0.336 0.72888 0.1889 0.0
H201 H 0.34935 0.63211 0.24433 0.0
H202 H 0.40974 0.71457 0.26564 0.0
O203 O 0.40061 0.67184 0.18971 0.0
H204 H 0.36347 0.6129 0.29455 0.0
H205 H 0.4239 0.69556 0.31612 0.0
C206 C 0.33562 0.66886 0.19398 0.0
C207 C 0.33425 0.65244 0.16546 0.0
C208 C 0.30534 0.63939 0.15235 0.0
C209 C 0.27681 0.64274 0.1671 0.0
C210 C 0.2783 0.6593 0.1958 0.0
C211 C 0.30739 0.67212 0.20911 0.0
C212 C 0.38292 0.72485 0.20255 0.0
C213 C 0.41425 0.73973 0.20412 0.0
C214 C 0.42297 0.7685 0.19357 0.0
C215 C 0.40062 0.78314 0.18075 0.0
C216 C 0.36904 0.76844 0.17999 0.0
C217 C 0.3603 0.73968 0.1908 0.0
C218 C 0.37787 0.67508 0.25117 0.0
C219 C 0.3649 0.64648 0.26024 0.0
C220 C 0.37314 0.63541 0.2891 0.0
C221 C 0.39502 0.65253 0.30962 0.0
C222 C 0.4073 0.68152 0.30088 0.0
C223 C 0.39891 0.6926 0.27201 0.0
P224 P 0.17005 0.34755 0.73999 0.0
H225 H 0.19511 0.30819 0.69688 0.0
H226 H 0.17212 0.26525 0.66568 0.0
H227 H 0.07974 0.27378 0.70004 0.0
H228 H 0.10312 0.31824 0.72965 0.0
H229 H 0.22472 0.39155 0.75813 0.0
H230 H 0.26808 0.42029 0.72748 0.0
H231 H 0.2236 0.38559 0.63995 0.0
H232 H 0.17966 0.35786 0.67055 0.0
H233 H 0.12142 0.32818 0.78835 0.0
H234 H 0.16474 0.40976 0.7465 0.0
O235 O 0.19054 0.33292 0.76642 0.0
H236 H 0.09508 0.35449 0.8282 0.0
H237 H 0.13887 0.43615 0.78644 0.0
C238 C 0.15095 0.31685 0.71539 0.0
C239 C 0.16981 0.30116 0.69732 0.0
C240 C 0.15655 0.27615 0.67976 0.0
C241 C 0.12389 0.2654 0.68039 0.0
C242 C 0.10491 0.28133 0.69848 0.0
C243 C 0.11829 0.3068 0.71572 0.0
C244 C 0.19912 0.37207 0.71677 0.0
C245 C 0.22399 0.3905 0.73233 0.0
C246 C 0.24876 0.40693 0.71481 0.0
C247 C 0.24941 0.40489 0.68133 0.0
C248 C 0.2239 0.38729 0.66574 0.0
C249 C 0.19877 0.37139 0.68328 0.0
C250 C 0.14485 0.36679 0.76398 0.0
C251 C 0.12463 0.35169 0.78714 0.0
C252 C 0.10967 0.36683 0.81009 0.0
C253 C 0.11503 0.39754 0.81084 0.0
C254 C 0.13451 0.41255 0.78694 0.0
C255 C 0.14916 0.39737 0.76379 0.0
Sm256 Sm 0.02511 0.03332 0.49746 0.0
Sm257 Sm 1.00057 1.0066 0.56012 0.0
C258 C 0.03912 0.0547 0.43997 0.0
C259 C 0.06552 0.07572 0.42692 0.0
C260 C 0.06328 0.08763 0.3969 0.0
C261 C 0.08844 0.10781 0.38457 0.0
C262 C 0.11619 0.11624 0.40212 0.0
C263 C 0.11819 0.10432 0.43231 0.0
C264 C 0.09301 0.0843 0.44466 0.0
C265 C 0.07033 1.01612 0.53345 0.0
C266 C 0.03775 0.0754 0.55989 0.0
C267 C 0.98852 0.9852 0.61767 0.0
C268 C 0.96282 0.96362 0.63108 0.0
C269 C 0.94689 0.94046 0.61216 0.0
C270 C 0.9204 0.9218 0.62419 0.0
C271 C 0.90923 0.92621 0.65521 0.0
C272 C 0.92557 0.94931 0.67412 0.0
C273 C 0.95216 0.96778 0.66216 0.0
C274 C 0.95628 1.02581 0.5244 0.0
C275 C 0.98504 0.96501 0.49806 0.0
O276 O 0.02099 0.06547 0.46025 0.0
O277 O 0.04581 0.03006 0.44919 0.0
O278 O 0.04284 1.00168 0.52982 0.0
O279 O 0.07476 0.03973 0.51704 0.0
O280 O 0.0343 0.07516 0.52864 0.0
O281 O 0.03068 0.05103 0.57624 0.0
O282 O 1.00737 0.97539 0.5973 0.0
O283 O 0.98054 1.00938 0.60876 0.0
O284 O 0.98423 0.03849 0.52815 0.0
O285 O 0.94944 1.00331 0.54257 0.0
O286 O 0.98851 0.96516 0.52923 0.0
O287 O 0.99363 0.98916 0.48146 0.0
H288 H 0.04214 0.08128 0.38299 0.0
H289 H 0.08637 0.11649 0.36113 0.0
H290 H 0.13912 0.1107 0.44652 0.0
H291 H 0.09499 0.07553 0.46806 0.0
H292 H 0.95453 0.93714 0.58787 0.0
H293 H 0.90855 0.90407 0.60914 0.0
H294 H 0.91727 0.9537 0.69787 0.0
H295 H 0.96389 0.98584 0.67686 0.0
Sm296 Sm 0.5307 1.02802 0.0583 0.0
Sm297 Sm 0.46917 1.0205 0.03333 0.0
C298 C 0.58597 0.04686 0.08512 0.0
C299 C 0.60162 0.07151 0.10523 0.0
C300 C 0.60821 0.10028 0.09412 0.0
C301 C 0.62382 0.12301 0.1136 0.0
C302 C 0.63277 0.11735 0.14452 0.0
C303 C 0.62589 0.08863 0.1556 0.0
C304 C 0.61062 0.06596 0.1361 0.0
C305 C 0.49354 0.97589 0.077 0.0
C306 C 0.4795 0.06051 0.09362 0.0
C307 C 0.41503 1.0029 1.00422 0.0
C308 C 0.40974 1.00115 0.96977 0.0
C309 C 0.38109 0.98691 0.95702 0.0
C310 C 0.37723 0.98484 0.92389 0.0
C311 C 0.40199 0.99709 0.90328 0.0
C312 C 0.43061 1.01127 0.91637 0.0
C313 C 0.43445 1.01323 0.94927 0.0
C314 C 0.50705 0.07147 1.012 0.0
C315 C 0.52103 0.98746 0.99679 0.0
O316 O 0.58001 0.05217 0.05561 0.0
O317 O 0.56326 0.02853 0.09864 0.0
O318 O 0.48464 1.00022 0.07738 0.0
O319 O 0.52217 0.97871 0.06646 0.0
O320 O 0.50878 0.06374 0.08343 0.0
O321 O 0.45837 0.03896 0.08211 0.0
O322 O 0.43194 0.98485 1.01467 0.0
O323 O 0.42391 0.02928 1.01582 0.0
O324 O 0.51534 0.047 1.01334 0.0
O325 O 0.47822 0.06928 1.02142 0.0
O326 O 0.49114 0.98817 1.00189 0.0
O327 O 0.54289 1.0044 1.01342 0.0
H328 H 0.60151 0.10524 0.0704 0.0
H329 H 0.62885 0.14498 0.10455 0.0
H330 H 0.63302 0.08358 0.17914 0.0
H331 H 0.60604 0.04396 0.1451 0.0
H332 H 0.36189 0.97732 0.9726 0.0
H333 H 0.3549 0.97386 0.91441 0.0
H334 H 0.4503 1.02041 0.90114 0.0
H335 H 0.45689 1.02401 0.95877 0.0
Sm336 Sm 0.50105 0.49557 0.52373 0.0
Sm337 Sm 0.50346 0.54486 0.56744 0.0
C338 C 0.51122 0.45096 0.48764 0.0
C339 C 0.52791 0.42675 0.49045 0.0
C340 C 0.54762 0.42559 0.51637 0.0
C341 C 0.56599 0.40419 0.51725 0.0
C342 C 0.56507 0.38378 0.49204 0.0
C343 C 0.54416 0.3842 0.46684 0.0
C344 C 0.5257 0.40557 0.46607 0.0
C345 C 0.44572 0.49404 0.55758 0.0
C346 C 0.53034 0.49174 0.59593 0.0
C347 C 0.49028 0.58888 0.60229 0.0
C348 C 0.47979 0.616 0.59474 0.0
C349 C 0.45802 0.61645 0.57041 0.0
C350 C 0.44985 0.64266 0.56183 0.0
C351 C 0.46324 0.66883 0.57748 0.0
C352 C 0.48459 0.66828 0.60223 0.0
C353 C 0.49288 0.64203 0.61072 0.0
C354 C 0.55911 0.54738 0.53382 0.0
C355 C 0.47588 0.54949 0.49419 0.0
O356 O 0.52895 0.47693 0.48687 0.0
O357 O 0.48626 0.44999 0.50566 0.0
O358 O 0.47298 0.5 0.5691 0.0
O359 O 0.44703 0.48942 0.52702 0.0
O360 O 0.53 0.48267 0.56581 0.0
O361 O 0.51797 0.51448 0.60418 0.0
O362 O 0.47011 0.56464 0.59714 0.0
O363 O 0.51877 0.58733 0.59289 0.0
O364 O 0.53191 0.54044 0.52211 0.0
O365 O 0.55739 0.55321 0.56412 0.0
O366 O 0.47747 0.55968 0.52394 0.0
O367 O 0.48621 0.52547 0.48676 0.0
H368 H 0.54976 0.44188 0.53528 0.0
H369 H 0.58214 0.40463 0.53678 0.0
H370 H 0.54282 0.36854 0.44724 0.0
H371 H 0.51048 0.40615 0.44595 0.0
H372 H 0.44747 0.59661 0.55783 0.0
H373 H 0.43291 0.64244 0.5431 0.0
H374 H 0.49536 0.68822 0.61454 0.0
H375 H 0.50984 0.64211 0.62942 0.0
Sm376 Sm 1.0114 0.48778 0.06104 0.0
Sm377 Sm 1.00192 0.5479 0.0321 0.0
C378 C 0.03263 0.44108 0.07837 0.0
C379 C 0.06374 0.43427 0.08382 0.0
C380 C 0.09103 0.45266 0.07259 0.0
C381 C 0.12064 0.44696 0.07962 0.0
C382 C 0.12338 0.42265 0.09782 0.0
C383 C 0.09589 0.40406 0.10854 0.0
C384 C 0.06632 0.40988 0.10165 0.0
C385 C 0.97795 0.52087 0.09831 0.0
C386 C 0.06832 0.54694 0.06751 0.0
C387 C 0.97936 0.59597 1.02556 0.0
C388 C 0.955 0.60439 1.006 0.0
C389 C 0.94845 0.63248 1.00929 0.0
C390 C 0.9229 0.63968 0.9936 0.0
C391 C 0.9034 0.61881 0.97445 0.0
C392 C 0.91055 0.59082 0.97064 0.0
C393 C 0.93619 0.58368 0.98628 0.0
C394 C 0.02645 0.5149 0.98542 0.0
C395 C 0.94824 0.48761 1.02021 0.0
O396 O 0.02613 0.44594 0.04883 0.0
O397 O 0.02372 0.45951 0.09879 0.0
O398 O 1.00221 0.53037 0.08178 0.0
O399 O 0.97084 0.49253 0.09617 0.0
O400 O 0.06015 0.51806 0.06789 0.0
O401 O 0.04921 0.56358 0.05708 0.0
O402 O 0.96877 0.5762 0.04679 0.0
O403 O 1.00491 0.5915 1.01068 0.0
O404 O 0.01968 0.50864 1.01403 0.0
O405 O 0.02008 0.54048 0.98027 0.0
O406 O 0.95446 0.51647 1.02276 0.0
O407 O 0.96803 0.47142 0.03006 0.0
H408 H 0.08943 0.47155 0.05865 0.0
H409 H 0.14137 0.46153 0.07082 0.0
H410 H 0.09723 0.38541 0.12299 0.0
H411 H 0.04548 0.39559 0.11066 0.0
H412 H 0.96254 0.64857 1.02474 0.0
H413 H 0.91776 0.66129 0.99739 0.0
H414 H 0.89616 0.57438 0.95583 0.0
H415 H 0.94087 0.56179 0.98365 0.0
C416 C 0.25206 0.21114 0.29947 0.0
C417 C 0.26974 0.23474 0.31636 0.0
C418 C 0.2277 0.19181 0.3144 0.0
C419 C 0.22077 0.19628 0.34699 0.0
C420 C 0.2388 0.21983 0.36432 0.0
C421 C 0.26323 0.23876 0.3488 0.0
C422 C 0.20922 0.16674 0.29521 0.0
C423 C 0.23194 0.2253 0.39908 0.0
C424 C 0.13826 0.16273 0.37441 0.0
C425 C 0.14311 0.13723 0.3889 0.0
C426 C 0.16348 0.18251 0.36134 0.0
C427 C 0.19421 0.1765 0.36262 0.0
C428 C 0.19929 0.15095 0.37754 0.0
C429 C 0.17366 0.13164 0.39059 0.0
C430 C 0.15721 0.20965 0.34579 0.0
C431 C 0.23169 0.1437 0.37909 0.0
H432 H 0.25741 0.20773 0.27451 0.0
H433 H 0.27678 0.2571 0.36183 0.0
H434 H 0.21019 0.14576 0.30668 0.0
H435 H 0.18416 0.16874 0.29455 0.0
H436 H 0.21816 0.16591 0.27031 0.0
H437 H 0.24862 0.24418 0.40932 0.0
H438 H 0.20773 0.22953 0.40189 0.0
H439 H 0.23317 0.20568 0.41308 0.0
H440 H 0.11471 0.16727 0.37347 0.0
H441 H 0.17743 0.11179 0.4015 0.0
H442 H 0.16363 0.20928 0.3201 0.0
H443 H 0.17201 0.22931 0.35672 0.0
H444 H 0.13218 0.21173 0.34802 0.0
H445 H 0.24071 0.14065 0.3546 0.0
H446 H 0.23183 0.12357 0.39266 0.0
H447 H 0.24821 0.16201 0.39046 0.0
C448 C 0.42418 0.97444 0.71694 0.0
C449 C 0.3989 0.97948 0.6989 0.0
C450 C 0.42396 0.97763 0.75027 0.0
C451 C 0.39777 0.98596 0.76586 0.0
C452 C 0.37227 0.99128 0.74776 0.0
C453 C 0.37315 0.98798 0.71449 0.0
C454 C 0.45167 0.97196 0.76881 0.0
C455 C 0.34391 1.00009 0.76358 0.0
C456 C 0.38543 0.96799 0.85353 0.0
C457 C 0.39863 0.99468 0.86816 0.0
C458 C 0.38455 0.96494 0.82018 0.0
C459 C 0.39712 0.98917 0.80113 0.0
C460 C 0.40972 1.01636 0.81579 0.0
C461 C 0.41029 1.01879 0.84913 0.0
C462 C 0.37089 0.93561 0.80534 0.0
C463 C 0.42315 0.04273 0.79625 0.0
H464 H 0.44421 0.96808 0.70495 0.0
H465 H 0.3533 0.99141 0.70068 0.0
H466 H 0.46205 0.99173 0.78291 0.0
H467 H 0.44381 0.95419 0.78594 0.0
H468 H 0.47025 0.96576 0.75307 0.0
H469 H 0.32624 1.0038 0.74602 0.0
H470 H 0.33258 0.98287 0.78012 0.0
H471 H 0.35121 1.02037 0.77801 0.0
H472 H 0.3767 0.94925 0.86815 0.0
H473 H 0.42012 0.03957 0.86039 0.0
H474 H 0.38939 0.92721 0.79152 0.0
H475 H 0.35212 0.93781 0.78841 0.0
H476 H 0.36091 0.91929 0.82346 0.0
H477 H 0.44331 0.03828 0.78164 0.0
H478 H 0.43128 0.06248 0.81135 0.0
H479 H 0.40525 0.0474 0.77955 0.0
C480 C 0.62789 0.41313 0.71837 0.0
C481 C 0.60932 0.40033 0.74412 0.0
C482 C 0.61533 0.42789 0.69421 0.0
C483 C 0.583 0.42931 0.69482 0.0
C484 C 0.56386 0.41586 0.72014 0.0
C485 C 0.57722 0.40196 0.74454 0.0
C486 C 0.63687 0.44224 0.6681 0.0
C487 C 0.52915 0.41624 0.72153 0.0
C488 C 0.55482 0.48987 0.64976 0.0
C489 C 0.54422 0.47583 0.62092 0.0
C490 C 0.56772 0.47514 0.67372 0.0
C491 C 0.56942 0.44529 0.66929 0.0
C492 C 0.55847 0.43093 0.64031 0.0
C493 C 0.54638 0.4464 0.61643 0.0
C494 C 0.57985 0.49168 0.7037 0.0
C495 C 0.5591 0.39903 0.63467 0.0
H496 H 0.65243 0.41154 0.71676 0.0
H497 H 0.5624 0.3927 0.7642 0.0
H498 H 0.62892 0.43249 0.64459 0.0
H499 H 0.63599 0.4658 0.66736 0.0
H500 H 0.66164 0.43998 0.67144 0.0
H501 H 0.51705 0.40336 0.74163 0.0
H502 H 0.5255 0.43902 0.72427 0.0
H503 H 0.51794 0.40731 0.6989 0.0
H504 H 0.55344 0.51262 0.65347 0.0
H505 H 0.53794 0.43521 0.59445 0.0
H506 H 0.60494 0.4906 0.70691 0.0
H507 H 0.56675 0.48149 0.72478 0.0
H508 H 0.57762 0.51495 0.70321 0.0
H509 H 0.58353 0.39531 0.63611 0.0
H510 H 0.5495 0.39094 0.61105 0.0
H511 H 0.54518 0.3859 0.65355 0.0
C512 C 0.91975 0.60785 0.24866 0.0
C513 C 0.89512 0.622 0.2409 0.0
C514 C 0.93392 0.59209 0.22542 0.0
C515 C 0.92331 0.59026 0.19348 0.0
C516 C 0.89885 0.60487 0.18538 0.0
C517 C 0.88521 0.62054 0.20901 0.0
C518 C 0.95998 0.57698 0.23519 0.0
C519 C 0.88679 0.60371 0.15171 0.0
C520 C 0.97608 0.56864 0.12657 0.0
C521 C 0.96341 0.53889 0.12181 0.0
C522 C 0.96337 0.58557 0.14973 0.0
C523 C 0.93724 0.57256 0.16868 0.0
C524 C 0.92419 0.54258 0.16369 0.0
C525 C 0.93742 0.52616 0.14043 0.0
C526 C 0.97811 0.61737 0.1541 0.0
C527 C 0.89624 0.52777 0.18304 0.0
H528 H 0.92753 0.60851 0.27313 0.0
H529 H 0.86671 0.63181 0.20239 0.0
H530 H 0.95268 0.55308 0.23133 0.0
H531 H 0.98119 0.58428 0.22015 0.0
H532 H 0.96637 0.58129 0.26062 0.0
H533 H 0.868 0.61661 0.14908 0.0
H534 H 0.90631 0.61214 0.13496 0.0
H535 H 0.87733 0.58076 0.14449 0.0
H536 H 0.99622 0.57867 0.11238 0.0
H537 H 0.92745 0.50322 0.13694 0.0
H538 H 0.98648 0.62163 0.17892 0.0
H539 H 0.96035 0.63111 0.15021 0.0
H540 H 0.99822 0.62428 0.13748 0.0
H541 H 0.902 0.52934 0.20877 0.0
H542 H 0.88872 0.50439 0.17623 0.0
H543 H 0.87617 0.53896 0.17982 0.0
C544 C 0.41814 0.20201 0.14798 0.0
C545 C 0.42093 0.2094 0.18048 0.0
C546 C 0.42751 0.17677 0.13582 0.0
C547 C 0.43941 0.15825 0.15679 0.0
C548 C 0.44186 0.16543 0.18973 0.0
C549 C 0.43283 0.19109 0.20115 0.0
C550 C 0.42507 0.17013 0.10045 0.0
C551 C 0.45401 0.14601 0.21286 0.0
C552 C 0.43887 0.08149 0.12462 0.0
C553 C 0.46989 0.08393 0.11349 0.0
C554 C 0.42888 0.10518 0.14002 0.0
C555 C 0.45032 0.13197 0.14391 0.0
C556 C 0.48192 0.13418 0.13376 0.0
C557 C 0.49137 0.11009 0.11891 0.0
C558 C 0.39513 0.10187 0.15112 0.0
C559 C 0.50545 0.16242 0.13718 0.0
H560 H 0.40907 0.21626 0.132 0.0
H561 H 0.43458 0.19663 0.22637 0.0
H562 H 0.44865 0.16923 0.09031 0.0
H563 H 0.40994 0.14845 0.09615 0.0
H564 H 0.4152 0.18671 0.08742 0.0
H565 H 0.45334 0.15414 0.2379 0.0
H566 H 0.43981 0.12359 0.21131 0.0
H567 H 0.47858 0.14451 0.20653 0.0
H568 H 0.42219 0.06132 0.12065 0.0
H569 H 0.51541 0.11223 0.11039 0.0
H570 H 0.38288 0.11573 0.13661 0.0
H571 H 0.39401 0.10939 0.1763 0.0
H572 H 0.38226 0.07894 0.14907 0.0
H573 H 0.49818 0.17935 0.1224 0.0
H574 H 0.52953 0.16006 0.12966 0.0
H575 H 0.50618 0.17045 0.16227 0.0
C576 C 0.21998 0.94751 0.5317 0.0
C577 C 0.23835 0.95235 0.5592 0.0
C578 C 0.18984 0.95415 0.5314 0.0
C579 C 0.17764 0.96553 0.5594 0.0
C580 C 0.19497 0.96816 0.58793 0.0
C581 C 0.22527 0.9618 0.58743 0.0
C582 C 0.17206 0.95105 0.50046 0.0
C583 C 0.18249 0.9797 0.61841 0.0
C584 C 0.12719 1.02079 0.54297 0.0
C585 C 0.09689 1.00385 0.5448 0.0
C586 C 0.15357 1.00873 0.54886 0.0
C587 C 0.14951 0.97906 0.55728 0.0
C588 C 0.11887 0.9623 0.56124 0.0
C589 C 0.09276 0.9749 0.55475 0.0
C590 C 0.18585 1.0274 0.5444 0.0
C591 C 0.1137 0.93081 0.57092 0.0
H592 H 0.22959 0.93947 0.51004 0.0
H593 H 0.23927 0.96577 0.60881 0.0
H594 H 0.14749 0.93952 0.50429 0.0
H595 H 0.17118 0.97302 0.4914 0.0
H596 H 0.1832 0.93899 0.48185 0.0
H597 H 0.19584 0.97522 0.63953 0.0
H598 H 0.18437 1.00365 0.61686 0.0
H599 H 0.15731 0.96993 0.62208 0.0
H600 H 0.13041 0.04329 0.53562 0.0
H601 H 0.06928 0.96185 0.5564 0.0
H602 H 0.19837 1.01836 0.52446 0.0
H603 H 0.19998 1.02723 0.56616 0.0
H604 H 0.18484 0.05039 0.53905 0.0
H605 H 0.12006 0.91729 0.55071 0.0
H606 H 0.08884 0.9223 0.57781 0.0
H607 H 0.12899 0.92816 0.59118 0.0
C608 C 0.78117 0.39813 0.95866 0.0
C609 C 0.77677 0.40331 0.92638 0.0
C610 C 0.80812 0.41254 0.9749 0.0
C611 C 0.83181 0.43197 0.95826 0.0
C612 C 0.82741 0.43725 0.92562 0.0
C613 C 0.7998 0.42318 0.91024 0.0
C614 C 0.81132 0.40684 1.00986 0.0
C615 C 0.85227 0.45716 0.90668 0.0
C616 C 0.89266 0.48752 1.00368 0.0
C617 C 0.91817 0.47309 1.00516 0.0
C618 C 0.86432 0.47428 0.98902 0.0
C619 C 0.86152 0.44614 0.97472 0.0
C620 C 0.88732 0.43159 0.97591 0.0
C621 C 0.9151 0.44505 0.99141 0.0
C622 C 0.83731 0.4904 0.98897 0.0
C623 C 0.88578 0.40194 0.96031 0.0
H624 H 0.76336 0.38286 0.97124 0.0
H625 H 0.79666 0.427 0.8852 0.0
H626 H 0.83178 0.39625 1.01339 0.0
H627 H 0.81572 0.42776 1.02359 0.0
H628 H 0.79004 0.39259 1.01982 0.0
H629 H 0.8453 0.45904 0.88155 0.0
H630 H 0.8571 0.47927 0.91784 0.0
H631 H 0.87454 0.4488 0.90677 0.0
H632 H 0.89471 0.50915 1.01429 0.0
H633 H 0.93474 0.43382 0.99208 0.0
H634 H 0.81627 0.47693 1.00026 0.0
H635 H 0.83106 0.49429 0.96411 0.0
H636 H 0.84288 0.51174 1.00187 0.0
H637 H 0.86644 0.38594 0.97113 0.0
H638 H 0.90805 0.39379 0.96268 0.0
H639 H 0.88058 0.40295 0.93459 0.0
C640 C 0.70086 0.63906 0.43397 0.0
C641 C 0.72486 0.62408 0.4248 0.0
C642 C 0.67413 0.62528 0.45112 0.0
C643 C 0.67087 0.59556 0.45927 0.0
C644 C 0.6948 0.58018 0.4499 0.0
C645 C 0.72144 0.59457 0.43292 0.0
C646 C 0.64932 0.64262 0.46059 0.0
C647 C 0.69235 0.54849 0.45801 0.0
C648 C 0.61629 0.57009 0.5297 0.0
C649 C 0.58823 0.55731 0.51455 0.0
C650 C 0.64345 0.58197 0.51205 0.0
C651 C 0.64278 0.58097 0.47826 0.0
C652 C 0.61478 0.56722 0.46282 0.0
C653 C 0.58787 0.55563 0.48111 0.0
C654 C 0.67262 0.5964 0.52961 0.0
C655 C 0.61301 0.56541 0.42691 0.0
H656 H 0.70269 0.66162 0.42735 0.0
H657 H 0.73982 0.58274 0.42634 0.0
H658 H 0.62636 0.63216 0.45041 0.0
H659 H 0.64639 0.64289 0.48691 0.0
H660 H 0.65524 0.6655 0.4524 0.0
H661 H 0.71239 0.53931 0.44819 0.0
H662 H 0.69157 0.54606 0.48428 0.0
H663 H 0.67019 0.53543 0.44854 0.0
H664 H 0.61687 0.57144 0.55552 0.0
H665 H 0.56633 0.54573 0.46919 0.0
H666 H 0.67827 0.61995 0.52401 0.0
H667 H 0.69297 0.58676 0.52167 0.0
H668 H 0.66985 0.59421 0.55587 0.0
H669 H 0.61603 0.58769 0.41719 0.0
H670 H 0.59026 0.55251 0.41854 0.0
H671 H 0.63235 0.55536 0.41695 0.0
C672 C 0.29351 0.38856 0.14042 0.0
C673 C 0.29189 0.38053 0.17254 0.0
C674 C 0.2681 0.39765 0.12593 0.0
C675 C 0.24046 0.39866 0.14399 0.0
C676 C 0.23906 0.3914 0.17663 0.0
C677 C 0.2647 0.38235 0.19044 0.0
C678 C 0.27045 0.40534 0.09109 0.0
C679 C 0.21 0.39213 0.19673 0.0
C680 C 0.1781 0.43991 0.11781 0.0
C681 C 0.1547 0.41707 0.10658 0.0
C682 C 0.20679 0.43446 0.12884 0.0
C683 C 0.21214 0.40551 0.12861 0.0
C684 C 0.18911 0.38256 0.11608 0.0
C685 C 0.16067 0.38863 0.10524 0.0
C686 C 0.23074 0.4595 0.14207 0.0
C687 C 0.19397 0.3514 0.11527 0.0
H688 H 0.31454 0.38746 0.12652 0.0
H689 H 0.26291 0.37564 0.21508 0.0
H690 H 0.25318 0.38938 0.07734 0.0
H691 H 0.26458 0.42716 0.08779 0.0
H692 H 0.29427 0.40536 0.08096 0.0
H693 H 0.21341 0.38757 0.22219 0.0
H694 H 0.20323 0.41378 0.19528 0.0
H695 H 0.1901 0.37565 0.18749 0.0
H696 H 0.17352 0.46191 0.11915 0.0
H697 H 0.14285 0.37099 0.0961 0.0
H698 H 0.25427 0.45923 0.13145 0.0
H699 H 0.2326 0.45713 0.16819 0.0
H700 H 0.22442 0.48099 0.13754 0.0
H701 H 0.21663 0.34998 0.10332 0.0
H702 H 0.1748 0.33646 0.10266 0.0
H703 H 0.19507 0.34368 0.13999 0.0
C704 C 0.57622 0.2062 0.8998 0.0
C705 C 0.5994 0.22755 0.9142 0.0
C706 C 0.56258 0.18047 0.91573 0.0
C707 C 0.57203 0.17575 0.94708 0.0
C708 C 0.59536 0.19715 0.96181 0.0
C709 C 0.60876 0.22262 0.94526 0.0
C710 C 0.53776 0.15841 0.89903 0.0
C711 C 0.6061 0.1932 0.99522 0.0
C712 C 0.51339 0.12416 0.99843 0.0
C713 C 0.52501 0.09811 0.99647 0.0
C714 C 0.52873 0.14954 0.98306 0.0
C715 C 0.55645 0.14907 0.96488 0.0
C716 C 0.56863 0.12292 0.9632 0.0
C717 C 0.55287 0.09781 0.97913 0.0
C718 C 0.51497 0.17683 0.98596 0.0
C719 C 0.59801 0.12132 0.94408 0.0
H720 H 0.56834 0.20973 0.87608 0.0
H721 H 0.62696 0.23853 0.95659 0.0
H722 H 0.54462 0.13672 0.8984 0.0
H723 H 0.5152 0.1561 0.91245 0.0
H724 H 0.53387 0.16466 0.87422 0.0
H725 H 0.62479 0.21155 1.00321 0.0
H726 H 0.58592 0.19144 1.01212 0.0
H727 H 0.61515 0.17261 0.99649 0.0
H728 H 0.49201 0.12471 1.01198 0.0
H729 H 0.56204 0.07782 0.97752 0.0
H730 H 0.50813 0.18306 0.96209 0.0
H731 H 0.53281 0.19522 0.99533 0.0
H732 H 0.49399 0.174 1.00195 0.0
H733 H 0.59422 0.12548 0.91863 0.0
H734 H 0.60501 0.09976 0.94582 0.0
H735 H 0.61771 0.13849 0.95245 0.0
C736 C 0.88482 0.82547 0.40608 0.0
C737 C 0.90069 0.80198 0.40323 0.0
C738 C 0.89847 0.85182 0.42154 0.0
C739 C 0.92907 0.85516 0.43425 0.0
C740 C 0.94526 0.83153 0.43146 0.0
C741 C 0.93081 0.80521 0.41627 0.0
C742 C 0.88001 0.87606 0.42443 0.0
C743 C 0.97802 0.83418 0.44425 0.0
C744 C 0.97413 0.93329 0.44844 0.0
C745 C 0.97073 0.93703 0.48154 0.0
C746 C 0.96122 0.90669 0.43288 0.0
C747 C 0.94391 0.8833 0.45063 0.0
C748 C 0.94019 0.88708 0.48401 0.0
C749 C 0.95382 0.91368 0.49902 0.0
C750 C 0.9662 0.90359 0.39738 0.0
C751 C 0.92148 0.86309 0.50389 0.0
H752 H 0.86138 0.8231 0.39651 0.0
H753 H 0.94336 0.78731 0.41401 0.0
H754 H 0.87723 0.88202 0.44992 0.0
H755 H 0.89294 0.8958 0.41244 0.0
H756 H 0.85633 0.86992 0.41375 0.0
H757 H 0.98766 0.81406 0.43984 0.0
H758 H 0.99395 0.85275 0.43296 0.0
H759 H 0.978 0.83882 0.47029 0.0
H760 H 0.98729 0.95104 0.43469 0.0
H761 H 0.95083 0.91628 0.52455 0.0
H762 H 0.94322 0.89936 0.38518 0.0
H763 H 0.97754 0.88462 0.39216 0.0
H764 H 0.98105 0.92338 0.38713 0.0
H765 H 0.8971 0.85721 0.49493 0.0
H766 H 0.92056 0.86947 0.5295 0.0
H767 H 0.93193 0.84324 0.50178 0.0
C768 C 0.44432 0.83038 0.53803 0.0
C769 C 0.41258 0.83202 0.53472 0.0
C770 C 0.45354 0.8034 0.54091 0.0
C771 C 0.4304 0.77753 0.54091 0.0
C772 C 0.39859 0.77889 0.53562 0.0
C773 C 0.3901 0.80612 0.53234 0.0
C774 C 0.48777 0.80275 0.546 0.0
C775 C 0.37324 0.75175 0.53548 0.0
C776 C 0.45497 0.70385 0.53566 0.0
C777 C 0.45494 0.69665 0.56795 0.0
C778 C 0.44717 0.7302 0.52636 0.0
C779 C 0.43893 0.74957 0.54996 0.0
C780 C 0.43871 0.74229 0.58258 0.0
C781 C 0.44687 0.71595 0.59119 0.0
C782 C 0.44799 0.73741 0.49141 0.0
C783 C 0.42966 0.76225 0.60842 0.0
H784 H 0.46185 0.85024 0.54013 0.0
H785 H 0.36561 0.8072 0.52906 0.0
H786 H 0.49122 0.79704 0.57106 0.0
H787 H 0.49532 0.78581 0.53043 0.0
H788 H 0.50319 0.82413 0.54111 0.0
H789 H 0.35022 0.7562 0.52788 0.0
H790 H 0.37991 0.73476 0.51937 0.0
H791 H 0.37041 0.74267 0.55981 0.0
H792 H 0.46156 0.68903 0.51771 0.0
H793 H 0.4465 0.71022 0.61612 0.0
H794 H 0.46543 0.75771 0.48716 0.0
H795 H 0.4248 0.74149 0.48403 0.0
H796 H 0.45421 0.71966 0.47603 0.0
H797 H 0.44583 0.78374 0.60779 0.0
H798 H 0.43033 0.75317 0.63261 0.0
H799 H 0.4056 0.76611 0.60424 0.0
C800 C 0.76278 0.82083 0.73523 0.0
C801 C 0.74594 0.83908 0.75227 0.0
C802 C 0.78611 0.83236 0.71299 0.0
C803 C 0.7929 0.86281 0.70814 0.0
C804 C 0.77364 0.88076 0.72264 0.0
C805 C 0.75018 0.8686 0.74439 0.0
C806 C 0.8055 0.81238 0.69717 0.0
C807 C 0.77992 0.91331 0.71788 0.0
C808 C 0.87819 0.89931 0.69966 0.0
C809 C 0.88011 0.90755 0.66767 0.0
C810 C 0.85006 0.88416 0.71279 0.0
C811 C 0.82327 0.87652 0.69329 0.0
C812 C 0.82538 0.88342 0.66057 0.0
C813 C 0.85376 0.89913 0.64817 0.0
C814 C 0.84881 0.87716 0.74787 0.0
C815 C 0.79748 0.87518 0.63892 0.0
H816 H 0.75961 0.79796 0.74108 0.0
H817 H 0.73662 0.88263 0.75691 0.0
H818 H 0.81078 0.81834 0.67194 0.0
H819 H 0.82822 0.81458 0.70967 0.0
H820 H 0.79341 0.78917 0.69801 0.0
H821 H 0.76024 0.92342 0.72698 0.0
H822 H 0.80155 0.92345 0.73078 0.0
H823 H 0.78391 0.91845 0.69229 0.0
H824 H 0.89865 0.90512 0.71466 0.0
H825 H 0.85495 0.90559 0.62346 0.0
H826 H 0.84119 0.85334 0.75109 0.0
H827 H 0.83131 0.88806 0.76028 0.0
H828 H 0.87188 0.88431 0.75956 0.0
H829 H 0.78526 0.85241 0.64303 0.0
H830 H 0.80442 0.87741 0.61335 0.0
H831 H 0.78042 0.88958 0.64422 0.0
C832 C 0.75457 0.19047 0.26777 0.0
C833 C 0.75375 0.21868 0.27919 0.0
C834 C 0.73494 0.17778 0.24308 0.0
C835 C 0.71379 0.19366 0.22967 0.0
C836 C 0.7138 0.22267 0.24015 0.0
C837 C 0.73397 0.23494 0.26482 0.0
C838 C 0.73592 0.1469 0.23233 0.0
C839 C 0.69151 0.24019 0.22645 0.0
C840 C 0.67753 0.15917 0.15314 0.0
C841 C 0.65059 0.14079 0.165 0.0
C842 C 0.69747 0.17815 0.17365 0.0
C843 C 0.69012 0.1787 0.20663 0.0
C844 C 0.66174 0.16172 0.21824 0.0
C845 C 0.64235 0.1429 0.19726 0.0
C846 C 0.72747 0.196 0.16039 0.0
C847 C 0.65287 0.16192 0.25319 0.0
H848 H 0.7702 0.17808 0.27868 0.0
H849 H 0.73329 0.25674 0.2738 0.0
H850 H 0.71334 0.13237 0.23852 0.0
H851 H 0.73893 0.14575 0.20606 0.0
H852 H 0.75527 0.13839 0.24359 0.0
H853 H 0.69701 0.26342 0.23441 0.0
H854 H 0.69226 0.23915 0.20001 0.0
H855 H 0.66713 0.23078 0.23407 0.0
H856 H 0.68398 0.15751 0.12819 0.0
H857 H 0.62123 0.12902 0.20632 0.0
H858 H 0.74768 0.18641 0.16777 0.0
H859 H 0.73122 0.21868 0.17002 0.0
H860 H 0.7274 0.19659 0.13392 0.0
H861 H 0.66906 0.15125 0.2669 0.0
H862 H 0.62843 0.15019 0.2577 0.0
H863 H 0.65523 0.18463 0.26248 0.0
C864 C 0.43804 0.64586 0.34734 0.0
C865 C 0.40615 0.63962 0.33893 0.0
C866 C 0.44921 0.63247 0.37349 0.0
C867 C 0.42812 0.61223 0.39202 0.0
C868 C 0.3958 0.60635 0.38416 0.0
C869 C 0.38527 0.61999 0.35782 0.0
C870 C 0.48385 0.6394 0.38075 0.0
C871 C 0.37235 0.58516 0.40327 0.0
C872 C 0.46087 0.55433 0.43697 0.0
C873 C 0.46312 0.56557 0.4684 0.0
C874 C 0.44956 0.56922 0.41214 0.0
C875 C 0.44007 0.59618 0.41856 0.0
C876 C 0.4422 0.60768 0.45021 0.0
C877 C 0.45366 0.5923 0.47465 0.0
C878 C 0.4479 0.55607 0.37886 0.0
C879 C 0.43245 0.63633 0.45824 0.0
H880 H 0.45458 0.6606 0.33282 0.0
H881 H 0.36055 0.61521 0.35199 0.0
H882 H 0.48748 0.64661 0.40601 0.0
H883 H 0.494 0.61947 0.37739 0.0
H884 H 0.49697 0.65669 0.36524 0.0
H885 H 0.34788 0.58392 0.39513 0.0
H886 H 0.37814 0.56307 0.40126 0.0
H887 H 0.37363 0.59166 0.42888 0.0
H888 H 0.46809 0.53379 0.43161 0.0
H889 H 0.45538 0.6014 0.49865 0.0
H890 H 0.46248 0.5714 0.36226 0.0
H891 H 0.42337 0.55242 0.37026 0.0
H892 H 0.45614 0.53498 0.3777 0.0
H893 H 0.44654 0.65399 0.44392 0.0
H894 H 0.43547 0.64239 0.48388 0.0
H895 H 0.40745 0.63507 0.45203 0.0
C896 C 0.07033 0.4051 0.84769 0.0
C897 C 0.10158 0.41387 0.83719 0.0
C898 C 0.05759 0.42038 0.87244 0.0
C899 C 0.07657 0.44489 0.88753 0.0
C900 C 0.10826 0.45354 0.87736 0.0
C901 C 0.12027 0.43811 0.85232 0.0
C902 C 0.02359 0.41056 0.88208 0.0
C903 C 0.12956 0.47923 0.89289 0.0
C904 C 0.03821 0.50334 0.92848 0.0
C905 C 0.03873 0.49633 0.96081 0.0
C906 C 0.04991 0.48656 0.90454 0.0
C907 C 0.06301 0.46225 0.91297 0.0
C908 C 0.06364 0.45506 0.94566 0.0
C909 C 0.05134 0.47206 0.96913 0.0
C910 C 0.04834 0.49498 0.87013 0.0
C911 C 0.07772 0.42965 0.95591 0.0
H912 H 0.0556 0.38655 0.83612 0.0
H913 H 0.14457 0.44483 0.84485 0.0
H914 H 0.02175 0.40585 0.90792 0.0
H915 H 1.01047 0.4283 0.87796 0.0
H916 H 1.0121 0.39077 0.86857 0.0
H917 H 0.15395 0.48247 0.88323 0.0
H918 H 0.12026 0.49941 0.88917 0.0
H919 H 0.13018 0.4761 0.919 0.0
H920 H 0.02844 0.52201 0.9218 0.0
H921 H 0.05216 0.4667 0.99405 0.0
H922 H 0.03548 0.47624 0.85597 0.0
H923 H 0.07241 0.50067 0.85985 0.0
H924 H 0.03651 0.51385 0.86738 0.0
H925 H 0.06541 0.40924 0.94415 0.0
H926 H 0.07631 0.42678 0.98216 0.0
H927 H 0.10274 0.43295 0.94828 0.0
C928 C 0.56596 0.84017 0.9415 0.0
C929 C 0.58159 0.84046 0.91194 0.0
C930 C 0.55176 0.86348 0.95137 0.0
C931 C 0.55286 0.88745 0.93099 0.0
C932 C 0.56577 0.88649 0.89991 0.0
C933 C 0.58017 0.8631 0.89082 0.0
C934 C 0.53798 0.86357 0.98466 0.0
C935 C 0.56682 0.91133 0.87723 0.0
C936 C 0.50662 0.94477 0.95912 0.0
C937 C 0.52975 0.96447 0.97562 0.0
C938 C 0.51395 0.92016 0.94314 0.0
C939 C 0.54504 0.91506 0.944 0.0
C940 C 0.56876 0.93567 0.95919 0.0
C941 C 0.56086 0.96018 0.97464 0.0
C942 C 0.48818 0.899 0.92664 0.0
C943 C 0.60228 0.93111 0.96053 0.0
H944 H 0.56633 0.82246 0.95767 0.0
H945 H 0.5923 0.86374 0.86798 0.0
H946 H 0.55341 0.88005 0.99967 0.0
H947 H 0.51456 0.86974 0.98428 0.0
H948 H 0.53561 0.84199 0.99606 0.0
H949 H 0.57203 0.90492 0.85236 0.0
H950 H 0.54421 0.91911 0.87767 0.0
H951 H 0.58544 0.9299 0.88471 0.0
H952 H 0.48253 0.94801 0.95958 0.0
H953 H 0.57893 0.9753 0.98718 0.0
H954 H 0.48203 0.87885 0.94075 0.0
H955 H 0.49618 0.89264 0.90272 0.0
H956 H 0.46663 0.90826 0.9239 0.0
H957 H 0.60315 0.91115 0.97409 0.0
H958 H 0.61815 0.94981 0.9721 0.0
H959 H 0.61138 0.92785 0.93614 0.0
C960 C 0.85374 0.12935 0.4435 0.0
C961 C 0.86842 0.15697 0.45492 0.0
C962 C 0.86215 0.10393 0.45488 0.0
C963 C 0.88598 0.10634 0.47794 0.0
C964 C 0.89991 0.13412 0.49051 0.0
C965 C 0.89088 0.15912 0.47889 0.0
C966 C 0.84652 0.07467 0.44125 0.0
C967 C 0.92558 0.13759 0.51502 0.0
C968 C 0.90603 0.04419 0.52502 0.0
C969 C 0.93346 0.04019 0.509 0.0
C970 C 0.88865 0.06435 0.51388 0.0
C971 C 0.89921 0.08053 0.48628 0.0
C972 C 0.92532 0.07441 0.46862 0.0
C973 C 0.94206 0.05422 0.48026 0.0
C974 C 0.86062 0.06998 0.53302 0.0
C975 C 0.93723 0.09092 0.4389 0.0
H976 H 0.83593 0.12765 0.42535 0.0
H977 H 0.90234 0.18046 0.48764 0.0
H978 H 0.86346 0.06577 0.42567 0.0
H979 H 0.83926 0.05889 0.46061 0.0
H980 H 0.82559 0.0762 0.42693 0.0
H981 H 0.93225 0.16042 0.52411 0.0
H982 H 0.91797 0.12317 0.53549 0.0
H983 H 0.94675 0.13098 0.50428 0.0
H984 H 0.8995 0.03326 0.54735 0.0
H985 H 0.96283 0.05034 0.46764 0.0
H986 H 0.84107 0.07224 0.5171 0.0
H987 H 0.86723 0.09077 0.54672 0.0
H988 H 0.85212 0.05226 0.5501 0.0
H989 H 0.91773 0.09096 0.42214 0.0
H990 H 0.95585 0.08151 0.42637 0.0
H991 H 0.94709 0.11397 0.44542 0.0
C992 C 0.24267 0.62699 0.11904 0.0
C993 C 0.2459 0.62903 0.15239 0.0
C994 C 0.21426 0.61346 0.10477 0.0
C995 C 0.18794 0.60195 0.12414 0.0
C996 C 0.19079 0.60424 0.15778 0.0
C997 C 0.21965 0.61754 0.17145 0.0
C998 C 0.21245 0.61143 0.06886 0.0
C999 C 0.16331 0.59253 0.17939 0.0
C1000 C 0.10638 0.59133 0.08712 0.0
C1001 C 0.09942 0.56112 0.08088 0.0
C1002 C 0.13491 0.6048 0.10126 0.0
C1003 C 0.15739 0.58781 0.10917 0.0
C1004 C 0.15071 0.55737 0.10257 0.0
C1005 C 0.12185 0.54442 0.08873 0.0
C1006 C 0.14082 0.63724 0.10808 0.0
C1007 C 0.17404 0.53839 0.11022 0.0
H1008 H 0.26235 0.63624 0.10387 0.0
H1009 H 0.22172 0.61851 0.19716 0.0
H1010 H 0.20537 0.58829 0.06104 0.0
H1011 H 0.19427 0.62317 0.06046 0.0
H1012 H 0.23518 0.62077 0.05711 0.0
H1013 H 0.16904 0.59649 0.20501 0.0
H1014 H 0.14308 0.60287 0.17389 0.0
H1015 H 0.15572 0.56871 0.17517 0.0
H1016 H 0.08928 0.60452 0.08144 0.0
H1017 H 0.11688 0.5211 0.08408 0.0
H1018 H 0.16242 0.64805 0.09539 0.0
H1019 H 0.14474 0.64154 0.13396 0.0
H1020 H 0.12096 0.64738 0.10071 0.0
H1021 H 0.19679 0.5466 0.09799 0.0
H1022 H 0.16568 0.51523 0.1029 0.0
H1023 H 0.17854 0.53936 0.13621 0.0
C1024 C 0.28919 0.44972 0.66725 0.0
C1025 C 0.27738 0.41979 0.66289 0.0
C1026 C 0.31604 0.46373 0.65036 0.0
C1027 C 0.33203 0.44728 0.62927 0.0
C1028 C 0.32026 0.41698 0.62502 0.0
C1029 C 0.29292 0.40372 0.64155 0.0
C1030 C 0.32723 0.49616 0.655 0.0
C1031 C 0.33687 0.39842 0.60341 0.0
C1032 C 0.38708 0.48261 0.56316 0.0
C1033 C 0.41669 0.48455 0.57689 0.0
C1034 C 0.35933 0.47162 0.58035 0.0
C1035 C 0.36119 0.46153 0.61178 0.0
C1036 C 0.3911 0.46387 0.62589 0.0
C1037 C 0.41842 0.47571 0.60845 0.0
C1038 C 0.32801 0.47033 0.56464 0.0
C1039 C 0.39432 0.45283 0.659 0.0
H1040 H 0.27716 0.46223 0.68364 0.0
H1041 H 0.28409 0.38052 0.6384 0.0
H1042 H 0.35124 0.5006 0.66499 0.0
H1043 H 0.32857 0.50711 0.63166 0.0
H1044 H 0.31154 0.50604 0.67126 0.0
H1045 H 0.32513 0.37509 0.60322 0.0
H1046 H 0.33778 0.40646 0.57867 0.0
H1047 H 0.36149 0.40006 0.61123 0.0
H1048 H 0.38563 0.48956 0.53882 0.0
H1049 H 0.44126 0.477 0.61913 0.0
H1050 H 0.3124 0.4808 0.58035 0.0
H1051 H 0.31629 0.44725 0.56089 0.0
H1052 H 0.33042 0.48127 0.54123 0.0
H1053 H 0.38043 0.46352 0.67637 0.0
H1054 H 0.41914 0.45681 0.66687 0.0
H1055 H 0.38478 0.42904 0.6596 0.0
C1056 C 0.75781 0.66439 0.88559 0.0
C1057 C 0.74433 0.68191 0.90721 0.0
C1058 C 0.78101 0.64935 0.89533 0.0
C1059 C 0.79093 0.65198 0.92742 0.0
C1060 C 0.7755 0.66758 0.94987 0.0
C1061 C 0.75236 0.68235 0.93949 0.0
C1062 C 0.79655 0.63258 0.87077 0.0
C1063 C 0.78527 0.67079 0.98436 0.0
C1064 C 0.84615 0.60639 0.96096 0.0
C1065 C 0.87501 0.62604 0.95971 0.0
C1066 C 0.81863 0.61405 0.94953 0.0
C1067 C 0.82004 0.64203 0.93668 0.0
C1068 C 0.84931 0.66153 0.93433 0.0
C1069 C 0.87641 0.65328 0.94582 0.0
C1070 C 0.7879 0.59263 0.95227 0.0
C1071 C 0.85188 0.69153 0.92055 0.0
H1072 H 0.75138 0.66369 0.86067 0.0
H1073 H 0.74231 0.69604 0.95631 0.0
H1074 H 0.82031 0.64513 0.86495 0.0
H1075 H 0.79952 0.61129 0.88022 0.0
H1076 H 0.7829 0.62864 0.84839 0.0
H1077 H 0.76845 0.68038 0.99947 0.0
H1078 H 0.78728 0.64935 0.99409 0.0
H1079 H 0.80874 0.6852 0.98608 0.0
H1080 H 0.84486 0.58538 0.97192 0.0
H1081 H 0.89874 0.66833 0.94428 0.0
H1082 H 0.77535 0.59044 0.92924 0.0
H1083 H 0.77255 0.60083 0.97027 0.0
H1084 H 0.7913 0.57072 0.95948 0.0
H1085 H 0.84189 0.68981 0.89625 0.0
H1086 H 0.87656 0.70357 0.9192 0.0
H1087 H 0.83808 0.70453 0.9355 0.0
C1088 C 0.39833 0.8199 0.1378 0.0
C1089 C 0.41061 0.81296 0.16685 0.0
C1090 C 0.40922 0.84699 0.12324 0.0
C1091 C 0.43297 0.86795 0.13803 0.0
C1092 C 0.44474 0.86144 0.16783 0.0
C1093 C 0.43355 0.83414 0.18176 0.0
C1094 C 0.39612 0.85273 0.09139 0.0
C1095 C 0.46985 0.88308 0.18466 0.0
C1096 C 0.4881 0.92255 0.08667 0.0
C1097 C 0.47643 0.94835 0.09148 0.0
C1098 C 0.47385 0.89632 0.10112 0.0
C1099 C 0.44721 0.89565 0.12129 0.0
C1100 C 0.43492 0.92155 0.12585 0.0
C1101 C 0.44956 0.94754 0.11077 0.0
C1102 C 0.48767 0.86937 0.09511 0.0
C1103 C 0.40665 0.92191 0.14715 0.0
H1104 H 0.38091 0.8037 0.12577 0.0
H1105 H 0.44294 0.8293 0.20438 0.0
H1106 H 0.38805 0.87387 0.09217 0.0
H1107 H 0.41484 0.85431 0.07282 0.0
H1108 H 0.37617 0.83526 0.08413 0.0
H1109 H 0.47499 0.87567 0.20866 0.0
H1110 H 0.49184 0.88648 0.17019 0.0
H1111 H 0.46255 0.90451 0.18728 0.0
H1112 H 0.50871 0.92286 0.07161 0.0
H1113 H 0.44038 0.96735 0.11463 0.0
H1114 H 0.46939 0.85129 0.08588 0.0
H1115 H 0.49617 0.86212 0.11782 0.0
H1116 H 0.50758 0.87315 0.07774 0.0
H1117 H 0.38663 0.90495 0.13908 0.0
H1118 H 0.3993 0.94342 0.1475 0.0
H1119 H 0.41205 0.91663 0.17187 0.0
C1120 C 0.12714 0.21473 0.65963 0.0
C1121 C 0.11018 0.23751 0.66273 0.0
C1122 C 0.11531 0.18882 0.64245 0.0
C1123 C 0.08527 0.18491 0.62841 0.0
C1124 C 0.06769 0.20747 0.63183 0.0
C1125 C 0.08038 0.23347 0.64865 0.0
C1126 C 0.13508 0.16557 0.63929 0.0
C1127 C 0.03539 0.20414 0.61769 0.0
C1128 C 0.06583 0.128 0.56092 0.0
C1129 C 0.04967 0.10355 0.5772 0.0
C1130 C 0.07742 0.15454 0.57718 0.0
C1131 C 0.07226 0.15706 0.61052 0.0
C1132 C 0.05548 0.13259 0.62696 0.0
C1133 C 0.04471 0.10616 0.61023 0.0
C1134 C 0.09568 0.17978 0.55872 0.0
C1135 C 0.04889 0.13431 0.66233 0.0
H1136 H 0.14977 0.21692 0.67092 0.0
H1137 H 0.06702 0.25079 0.65037 0.0
H1138 H 0.12273 0.14524 0.65059 0.0
H1139 H 0.13866 0.16036 0.61373 0.0
H1140 H 0.15843 0.17233 0.65054 0.0
H1141 H 0.02432 0.22328 0.62309 0.0
H1142 H 0.03684 0.20124 0.59143 0.0
H1143 H 0.0199 0.18432 0.62706 0.0
H1144 H 0.06992 0.12626 0.53545 0.0
H1145 H 0.03202 0.08756 0.62307 0.0
H1146 H 0.11972 0.18615 0.56845 0.0
H1147 H 0.08426 0.19901 0.56143 0.0
H1148 H 0.09755 0.17446 0.53291 0.0
H1149 H 0.07131 0.13886 0.67553 0.0
H1150 H 0.03435 0.11382 0.67138 0.0
H1151 H 0.03651 0.15256 0.66773 0.0
C1152 C 0.72398 0.32802 0.48595 0.0
C1153 C 0.72236 0.30052 0.47132 0.0
C1154 C 0.69661 0.3385 0.4938 0.0
C1155 C 0.66696 0.32087 0.4872 0.0
C1156 C 0.66513 0.29212 0.47512 0.0
C1157 C 0.69288 0.28235 0.46706 0.0
C1158 C 0.69951 0.36929 0.50675 0.0
C1159 C 0.63392 0.2725 0.46832 0.0
C1160 C 0.5957 0.35 0.51722 0.0
C1161 C 0.58849 0.36458 0.49025 0.0
C1162 C 0.62046 0.33455 0.51637 0.0
C1163 C 0.63854 0.33415 0.48805 0.0
C1164 C 0.63064 0.34804 0.4605 0.0
C1165 C 0.60565 0.36299 0.46193 0.0
C1166 C 0.62789 0.31951 0.54599 0.0
C1167 C 0.64946 0.34823 0.42983 0.0
H1168 H 0.7467 0.34188 0.49001 0.0
H1169 H 0.69131 0.26112 0.45562 0.0
H1170 H 0.69246 0.38323 0.48816 0.0
H1171 H 0.68355 0.36993 0.52756 0.0
H1172 H 0.72389 0.37882 0.51405 0.0
H1173 H 0.63629 0.24939 0.4647 0.0
H1174 H 0.61692 0.27377 0.48809 0.0
H1175 H 0.62394 0.27974 0.44638 0.0
H1176 H 0.58229 0.35107 0.53909 0.0
H1177 H 0.60047 0.37462 0.44119 0.0
H1178 H 0.65048 0.33121 0.55593 0.0
H1179 H 0.6307 0.29687 0.54014 0.0
H1180 H 0.60935 0.31884 0.56468 0.0
H1181 H 0.674 0.3597 0.43386 0.0
H1182 H 0.63952 0.3592 0.41029 0.0
H1183 H 0.65032 0.32559 0.42193 0.0
loop_
_geom_bond_atom_site_label_1
_geom_bond_atom_site_label_2
_geom_bond_distance
_geom_bond_site_symmetry_2
_ccdc_geom_bond_type
P0 O11 1.490 . S
P0 C14 1.812 . S
P0 C20 1.803 . S
P0 C26 1.819 . S
H1 C15 0.941 . S
H2 C16 0.939 . S
H3 C18 0.940 . S
H4 C19 0.940 . S
H5 C21 0.939 . S
H6 C22 0.942 . S
H7 C24 0.940 . S
H8 C25 0.939 . S
H9 C27 0.941 . S
H10 C31 0.939 . S
O11 P0 1.490 . S
H12 C28 0.939 . S
H13 C30 0.940 . S
C14 P0 1.812 . S
C14 C15 1.389 . S
C14 C19 1.391 . S
C15 H1 0.941 . S
C15 C14 1.389 . S
C15 C16 1.397 . S
C16 H2 0.939 . S
C16 C15 1.397 . S
C16 C17 1.378 . S
C17 C16 1.378 . S
C17 C18 1.378 . S
C18 H3 0.940 . S
C18 C17 1.378 . S
C18 C19 1.396 . S
C19 H4 0.940 . S
C19 C14 1.391 . S
C19 C18 1.396 . S
C20 P0 1.803 . S
C20 C21 1.378 . S
C20 C25 1.400 . S
C21 H5 0.939 . S
C21 C20 1.378 . S
C21 C22 1.361 . S
C22 H6 0.942 . S
C22 C21 1.361 . S
C22 C23 1.369 . S
C23 C22 1.369 . S
C23 C24 1.404 . S
C24 H7 0.940 . S
C24 C23 1.404 . S
C24 C25 1.389 . S
C25 H8 0.939 . S
C25 C20 1.400 . S
C25 C24 1.389 . S
C26 P0 1.819 . S
C26 C27 1.391 . S
C26 C31 1.391 . S
C27 H9 0.941 . S
C27 C26 1.391 . S
C27 C28 1.396 . S
C28 H12 0.939 . S
C28 C27 1.396 . S
C28 C29 1.397 . S
C29 C28 1.397 . S
C29 C30 1.385 . S
C30 H13 0.940 . S
C30 C29 1.385 . S
C30 C31 1.388 . S
C31 H10 0.939 . S
C31 C26 1.391 . S
C31 C30 1.388 . S
P32 O43 1.490 . S
P32 C46 1.812 . S
P32 C52 1.803 . S
P32 C58 1.819 . S
H33 C47 0.941 . S
H34 C48 0.939 . S
H35 C50 0.940 . S
H36 C51 0.940 . S
H37 C53 0.939 . S
H38 C54 0.942 . S
H39 C56 0.940 . S
H40 C57 0.939 . S
H41 C59 0.941 . S
H42 C63 0.939 . S
O43 P32 1.490 . S
H44 C60 0.939 . S
H45 C62 0.940 . S
C46 P32 1.812 . S
C46 C47 1.389 . S
C46 C51 1.391 . S
C47 H33 0.941 . S
C47 C46 1.389 . S
C47 C48 1.397 . S
C48 H34 0.939 . S
C48 C47 1.397 . S
C48 C49 1.378 . S
C49 C48 1.378 . S
C49 C50 1.378 . S
C50 H35 0.940 . S
C50 C49 1.378 . S
C50 C51 1.396 . S
C51 H36 0.940 . S
C51 C46 1.391 . S
C51 C50 1.396 . S
C52 P32 1.803 . S
C52 C53 1.378 . S
C52 C57 1.400 . S
C53 H37 0.939 . S
C53 C52 1.378 . S
C53 C54 1.361 . S
C54 H38 0.942 . S
C54 C53 1.361 . S
C54 C55 1.369 . S
C55 C54 1.369 . S
C55 C56 1.404 . S
C56 H39 0.940 . S
C56 C55 1.404 . S
C56 C57 1.389 . S
C57 H40 0.939 . S
C57 C52 1.400 . S
C57 C56 1.389 . S
C58 P32 1.819 . S
C58 C59 1.391 . S
C58 C63 1.391 . S
C59 H41 0.941 . S
C59 C58 1.391 . S
C59 C60 1.396 . S
C60 H44 0.939 . S
C60 C59 1.396 . S
C60 C61 1.397 . S
C61 C60 1.397 . S
C61 C62 1.385 . S
C62 H45 0.940 . S
C62 C61 1.385 . S
C62 C63 1.388 . S
C63 H42 0.939 . S
C63 C58 1.391 . S
C63 C62 1.388 . S
P64 O75 1.490 . S
P64 C78 1.812 . S
P64 C84 1.803 . S
P64 C90 1.819 . S
H65 C79 0.941 . S
H66 C80 0.939 . S
H67 C82 0.940 . S
H68 C83 0.940 . S
H69 C85 0.939 . S
H70 C86 0.942 . S
H71 C88 0.940 . S
H72 C89 0.939 . S
H73 C91 0.941 . S
H74 C95 0.939 . S
O75 P64 1.490 . S
H76 C92 0.939 . S
H77 C94 0.940 . S
C78 P64 1.812 . S
C78 C79 1.389 . S
C78 C83 1.391 . S
C79 H65 0.941 . S
C79 C78 1.389 . S
C79 C80 1.397 . S
C80 H66 0.939 . S
C80 C79 1.397 . S
C80 C81 1.378 . S
C81 C80 1.378 . S
C81 C82 1.378 . S
C82 H67 0.940 . S
C82 C81 1.378 . S
C82 C83 1.396 . S
C83 H68 0.940 . S
C83 C78 1.391 . S
C83 C82 1.396 . S
C84 P64 1.803 . S
C84 C85 1.378 . S
C84 C89 1.400 . S
C85 H69 0.939 . S
C85 C84 1.378 . S
C85 C86 1.361 . S
C86 H70 0.942 . S
C86 C85 1.361 . S
C86 C87 1.369 . S
C87 C86 1.369 . S
C87 C88 1.404 . S
C88 H71 0.940 . S
C88 C87 1.404 . S
C88 C89 1.389 . S
C89 H72 0.939 . S
C89 C84 1.400 . S
C89 C88 1.389 . S
C90 P64 1.819 . S
C90 C91 1.391 . S
C90 C95 1.391 . S
C91 H73 0.941 . S
C91 C90 1.391 . S
C91 C92 1.396 . S
C92 H76 0.939 . S
C92 C91 1.396 . S
C92 C93 1.397 . S
C93 C92 1.397 . S
C93 C94 1.385 . S
C94 H77 0.940 . S
C94 C93 1.385 . S
C94 C95 1.388 . S
C95 H74 0.939 . S
C95 C90 1.391 . S
C95 C94 1.388 . S
P96 O107 1.490 . S
P96 C110 1.812 . S
P96 C116 1.803 . S
P96 C122 1.819 . S
H97 C111 0.941 . S
H98 C112 0.939 . S
H99 C114 0.940 . S
H100 C115 0.940 . S
H101 C117 0.939 . S
H102 C118 0.942 . S
H103 C120 0.940 . S
H104 C121 0.939 . S
H105 C123 0.941 . S
H106 C127 0.939 . S
O107 P96 1.490 . S
H108 C124 0.939 . S
H109 C126 0.940 . S
C110 P96 1.812 . S
C110 C111 1.389 . S
C110 C115 1.391 . S
C111 H97 0.941 . S
C111 C110 1.389 . S
C111 C112 1.397 . S
C112 H98 0.939 . S
C112 C111 1.397 . S
C112 C113 1.378 . S
C113 C112 1.378 . S
C113 C114 1.378 . S
C114 H99 0.940 . S
C114 C113 1.378 . S
C114 C115 1.396 . S
C115 H100 0.940 . S
C115 C110 1.391 . S
C115 C114 1.396 . S
C116 P96 1.803 . S
C116 C117 1.378 . S
C116 C121 1.400 . S
C117 H101 0.939 . S
C117 C116 1.378 . S
C117 C118 1.361 . S
C118 H102 0.942 . S
C118 C117 1.361 . S
C118 C119 1.369 . S
C119 C118 1.369 . S
C119 C120 1.404 . S
C120 H103 0.940 . S
C120 C119 1.404 . S
C120 C121 1.389 . S
C121 H104 0.939 . S
C121 C116 1.400 . S
C121 C120 1.389 . S
C122 P96 1.819 . S
C122 C123 1.391 . S
C122 C127 1.391 . S
C123 H105 0.941 . S
C123 C122 1.391 . S
C123 C124 1.396 . S
C124 H108 0.939 . S
C124 C123 1.396 . S
C124 C125 1.397 . S
C125 C124 1.397 . S
C125 C126 1.385 . S
C126 H109 0.940 . S
C126 C125 1.385 . S
C126 C127 1.388 . S
C127 H106 0.939 . S
C127 C122 1.391 . S
C127 C126 1.388 . S
P128 O139 1.490 . S
P128 C142 1.812 . S
P128 C148 1.803 . S
P128 C154 1.819 . S
H129 C143 0.941 . S
H130 C144 0.939 . S
H131 C146 0.940 . S
H132 C147 0.940 . S
H133 C149 0.939 . S
H134 C150 0.942 . S
H135 C152 0.940 . S
H136 C153 0.939 . S
H137 C155 0.941 . S
H138 C159 0.939 . S
O139 P128 1.490 . S
H140 C156 0.939 . S
H141 C158 0.940 . S
C142 P128 1.812 . S
C142 C143 1.389 . S
C142 C147 1.391 . S
C143 H129 0.941 . S
C143 C142 1.389 . S
C143 C144 1.397 . S
C144 H130 0.939 . S
C144 C143 1.397 . S
C144 C145 1.378 . S
C145 C144 1.378 . S
C145 C146 1.378 . S
C146 H131 0.940 . S
C146 C145 1.378 . S
C146 C147 1.396 . S
C147 H132 0.940 . S
C147 C142 1.391 . S
C147 C146 1.396 . S
C148 P128 1.803 . S
C148 C149 1.378 . S
C148 C153 1.400 . S
C149 H133 0.939 . S
C149 C148 1.378 . S
C149 C150 1.361 . S
C150 H134 0.942 . S
C150 C149 1.361 . S
C150 C151 1.369 . S
C151 C150 1.369 . S
C151 C152 1.404 . S
C152 H135 0.940 . S
C152 C151 1.404 . S
C152 C153 1.389 . S
C153 H136 0.939 . S
C153 C148 1.400 . S
C153 C152 1.389 . S
C154 P128 1.819 . S
C154 C155 1.391 . S
C154 C159 1.391 . S
C155 H137 0.941 . S
C155 C154 1.391 . S
C155 C156 1.396 . S
C156 H140 0.939 . S
C156 C155 1.396 . S
C156 C157 1.397 . S
C157 C156 1.397 . S
C157 C158 1.385 . S
C158 H141 0.940 . S
C158 C157 1.385 . S
C158 C159 1.388 . S
C159 H138 0.939 . S
C159 C154 1.391 . S
C159 C158 1.388 . S
P160 O171 1.490 . S
P160 C174 1.812 . S
P160 C180 1.803 . S
P160 C186 1.819 . S
H161 C175 0.941 . S
H162 C176 0.939 . S
H163 C178 0.940 . S
H164 C179 0.940 . S
H165 C181 0.939 . S
H166 C182 0.942 . S
H167 C184 0.940 . S
H168 C185 0.939 . S
H169 C187 0.941 . S
H170 C191 0.939 . S
O171 P160 1.490 . S
H172 C188 0.939 . S
H173 C190 0.940 . S
C174 P160 1.812 . S
C174 C175 1.389 . S
C174 C179 1.391 . S
C175 H161 0.941 . S
C175 C174 1.389 . S
C175 C176 1.397 . S
C176 H162 0.939 . S
C176 C175 1.397 . S
C176 C177 1.378 . S
C177 C176 1.378 . S
C177 C178 1.378 . S
C178 H163 0.940 . S
C178 C177 1.378 . S
C178 C179 1.396 . S
C179 H164 0.940 . S
C179 C174 1.391 . S
C179 C178 1.396 . S
C180 P160 1.803 . S
C180 C181 1.378 . S
C180 C185 1.400 . S
C181 H165 0.939 . S
C181 C180 1.378 . S
C181 C182 1.361 . S
C182 H166 0.942 . S
C182 C181 1.361 . S
C182 C183 1.369 . S
C183 C182 1.369 . S
C183 C184 1.404 . S
C184 H167 0.940 . S
C184 C183 1.404 . S
C184 C185 1.389 . S
C185 H168 0.939 . S
C185 C180 1.400 . S
C185 C184 1.389 . S
C186 P160 1.819 . S
C186 C187 1.391 . S
C186 C191 1.391 . S
C187 H169 0.941 . S
C187 C186 1.391 . S
C187 C188 1.396 . S
C188 H172 0.939 . S
C188 C187 1.396 . S
C188 C189 1.397 . S
C189 C188 1.397 . S
C189 C190 1.385 . S
C190 H173 0.940 . S
C190 C189 1.385 . S
C190 C191 1.388 . S
C191 H170 0.939 . S
C191 C186 1.391 . S
C191 C190 1.388 . S
P192 O203 1.490 . S
P192 C206 1.812 . S
P192 C212 1.803 . S
P192 C218 1.819 . S
H193 C207 0.941 . S
H194 C208 0.939 . S
H195 C210 0.940 . S
H196 C211 0.940 . S
H197 C213 0.939 . S
H198 C214 0.942 . S
H199 C216 0.940 . S
H200 C217 0.939 . S
H201 C219 0.941 . S
H202 C223 0.939 . S
O203 P192 1.490 . S
H204 C220 0.939 . S
H205 C222 0.940 . S
C206 P192 1.812 . S
C206 C207 1.389 . S
C206 C211 1.391 . S
C207 H193 0.941 . S
C207 C206 1.389 . S
C207 C208 1.397 . S
C208 H194 0.939 . S
C208 C207 1.397 . S
C208 C209 1.378 . S
C209 C208 1.378 . S
C209 C210 1.378 . S
C210 H195 0.940 . S
C210 C209 1.378 . S
C210 C211 1.396 . S
C211 H196 0.940 . S
C211 C206 1.391 . S
C211 C210 1.396 . S
C212 P192 1.803 . S
C212 C213 1.378 . S
C212 C217 1.400 . S
C213 H197 0.939 . S
C213 C212 1.378 . S
C213 C214 1.361 . S
C214 H198 0.942 . S
C214 C213 1.361 . S
C214 C215 1.369 . S
C215 C214 1.369 . S
C215 C216 1.404 . S
C216 H199 0.940 . S
C216 C215 1.404 . S
C216 C217 1.389 . S
C217 H200 0.939 . S
C217 C212 1.400 . S
C217 C216 1.389 . S
C218 P192 1.819 . S
C218 C219 1.391 . S
C218 C223 1.391 . S
C219 H201 0.941 . S
C219 C218 1.391 . S
C219 C220 1.396 . S
C220 H204 0.939 . S
C220 C219 1.396 . S
C220 C221 1.397 . S
C221 C220 1.397 . S
C221 C222 1.385 . S
C222 H205 0.940 . S
C222 C221 1.385 . S
C222 C223 1.388 . S
C223 H202 0.939 . S
C223 C218 1.391 . S
C223 C222 1.388 . S
P224 O235 1.490 . S
P224 C238 1.812 . S
P224 C244 1.803 . S
P224 C250 1.819 . S
H225 C239 0.941 . S
H226 C240 0.939 . S
H227 C242 0.940 . S
H228 C243 0.940 . S
H229 C245 0.939 . S
H230 C246 0.942 . S
H231 C248 0.940 . S
H232 C249 0.939 . S
H233 C251 0.941 . S
H234 C255 0.939 . S
O235 P224 1.490 . S
H236 C252 0.939 . S
H237 C254 0.940 . S
C238 P224 1.812 . S
C238 C239 1.389 . S
C238 C243 1.391 . S
C239 H225 0.941 . S
C239 C238 1.389 . S
C239 C240 1.397 . S
C240 H226 0.939 . S
C240 C239 1.397 . S
C240 C241 1.378 . S
C241 C240 1.378 . S
C241 C242 1.378 . S
C242 H227 0.940 . S
C242 C241 1.378 . S
C242 C243 1.396 . S
C243 H228 0.940 . S
C243 C238 1.391 . S
C243 C242 1.396 . S
C244 P224 1.803 . S
C244 C245 1.378 . S
C244 C249 1.400 . S
C245 H229 0.939 . S
C245 C244 1.378 . S
C245 C246 1.361 . S
C246 H230 0.942 . S
C246 C245 1.361 . S
C246 C247 1.369 . S
C247 C246 1.369 . S
C247 C248 1.404 . S
C248 H231 0.940 . S
C248 C247 1.404 . S
C248 C249 1.389 . S
C249 H232 0.939 . S
C249 C244 1.400 . S
C249 C248 1.389 . S
C250 P224 1.819 . S
C250 C251 1.391 . S
C250 C255 1.391 . S
C251 H233 0.941 . S
C251 C250 1.391 . S
C251 C252 1.396 . S
C252 H236 0.939 . S
C252 C251 1.396 . S
C252 C253 1.397 . S
C253 C252 1.397 . S
C253 C254 1.385 . S
C254 H237 0.940 . S
C254 C253 1.385 . S
C254 C255 1.388 . S
C255 H234 0.939 . S
C255 C250 1.391 . S
C255 C254 1.388 . S
Sm256 C258 2.846 . S
Sm256 O276 2.543 . S
Sm256 O277 2.450 . S
Sm256 O278 2.681 1_545 S
Sm256 O279 2.464 1_545 S
Sm256 O280 2.396 . S
Sm256 O284 2.386 1_455 S
Sm256 O287 2.408 1_445 S
Sm257 C267 2.846 . S
Sm257 O278 2.386 1_655 S
Sm257 O281 2.408 1_665 S
Sm257 O282 2.543 . S
Sm257 O283 2.450 . S
Sm257 O284 2.681 1_565 S
Sm257 O285 2.464 1_565 S
Sm257 O286 2.396 . S
C258 Sm256 2.846 . S
C258 C259 1.506 . S
C258 O276 1.261 . S
C258 O277 1.242 . S
C259 C258 1.506 . S
C259 C260 1.358 . S
C259 C264 1.382 . S
C260 C259 1.358 . S
C260 C261 1.385 . S
C260 H288 0.930 . S
C261 C260 1.385 . S
C261 C262 1.395 . S
C261 H289 0.929 . S
C262 C261 1.395 . S
C262 C263 1.335 . S
C263 C262 1.335 . S
C263 C264 1.398 . S
C263 H290 0.930 . S
C264 C259 1.382 . S
C264 C263 1.398 . S
C264 H291 0.929 . S
C265 O278 1.271 . S
C265 O279 1.251 . S
C266 O280 1.252 . S
C266 O281 1.272 . S
C267 Sm257 2.846 . S
C267 C268 1.506 . S
C267 O282 1.261 . S
C267 O283 1.242 . S
C268 C267 1.506 . S
C268 C269 1.358 . S
C268 C273 1.382 . S
C269 C268 1.358 . S
C269 C270 1.385 . S
C269 H292 0.930 . S
C270 C269 1.385 . S
C270 C271 1.395 . S
C270 H293 0.929 . S
C271 C270 1.395 . S
C271 C272 1.335 . S
C272 C271 1.335 . S
C272 C273 1.398 . S
C272 H294 0.930 . S
C273 C268 1.382 . S
C273 C272 1.398 . S
C273 H295 0.929 . S
C274 O284 1.271 . S
C274 O285 1.251 . S
C275 O286 1.252 . S
C275 O287 1.272 . S
O276 Sm256 2.543 . S
O276 C258 1.261 . S
O277 Sm256 2.450 . S
O277 C258 1.242 . S
O278 Sm256 2.681 1_565 S
O278 Sm257 2.386 1_455 S
O278 C265 1.271 . S
O279 Sm256 2.464 1_565 S
O279 C265 1.251 . S
O280 Sm256 2.396 . S
O280 C266 1.252 . S
O281 Sm257 2.408 1_445 S
O281 C266 1.272 . S
O282 Sm257 2.543 . S
O282 C267 1.261 . S
O283 Sm257 2.450 . S
O283 C267 1.242 . S
O284 Sm256 2.386 1_655 S
O284 Sm257 2.681 1_545 S
O284 C274 1.271 . S
O285 Sm257 2.464 1_545 S
O285 C274 1.251 . S
O286 Sm257 2.396 . S
O286 C275 1.252 . S
O287 Sm256 2.408 1_665 S
O287 C275 1.272 . S
H288 C260 0.930 . S
H289 C261 0.929 . S
H290 C263 0.930 . S
H291 C264 0.929 . S
H292 C269 0.930 . S
H293 C270 0.929 . S
H294 C272 0.930 . S
H295 C273 0.929 . S
Sm296 C298 2.846 . S
Sm296 O316 2.543 . S
Sm296 O317 2.450 . S
Sm296 O318 2.681 1_545 S
Sm296 O319 2.464 1_545 S
Sm296 O320 2.396 . S
Sm296 O324 2.386 1_554 S
Sm296 O327 2.408 1_544 S
Sm297 C307 2.846 1_545 S
Sm297 O318 2.386 1_546 S
Sm297 O321 2.408 1_556 S
Sm297 O322 2.543 1_545 S
Sm297 O323 2.450 . S
Sm297 O324 2.681 . S
Sm297 O325 2.464 . S
Sm297 O326 2.396 1_545 S
C298 Sm296 2.846 . S
C298 C299 1.506 . S
C298 O316 1.261 . S
C298 O317 1.242 . S
C299 C298 1.506 . S
C299 C300 1.358 . S
C299 C304 1.382 . S
C300 C299 1.358 . S
C300 C301 1.385 . S
C300 H328 0.930 . S
C301 C300 1.385 . S
C301 C302 1.395 . S
C301 H329 0.929 . S
C302 C301 1.395 . S
C302 C303 1.335 . S
C303 C302 1.335 . S
C303 C304 1.398 . S
C303 H330 0.930 . S
C304 C299 1.382 . S
C304 C303 1.398 . S
C304 H331 0.929 . S
C305 O318 1.271 . S
C305 O319 1.251 . S
C306 O320 1.252 . S
C306 O321 1.272 . S
C307 Sm297 2.846 1_565 S
C307 C308 1.506 . S
C307 O322 1.261 . S
C307 O323 1.237 1_565 S
C308 C307 1.506 . S
C308 C309 1.358 . S
C308 C313 1.382 . S
C309 C308 1.358 . S
C309 C310 1.385 . S
C309 H332 0.930 . S
C310 C309 1.385 . S
C310 C311 1.395 . S
C310 H333 0.929 . S
C311 C310 1.395 . S
C311 C312 1.335 . S
C312 C311 1.335 . S
C312 C313 1.398 . S
C312 H334 0.930 . S
C313 C308 1.382 . S
C313 C312 1.398 . S
C313 H335 0.929 . S
C314 O324 1.271 . S
C314 O325 1.251 . S
C315 O326 1.252 . S
C315 O327 1.272 . S
O316 Sm296 2.543 . S
O316 C298 1.261 . S
O317 Sm296 2.450 . S
O317 C298 1.242 . S
O318 Sm296 2.681 1_565 S
O318 Sm297 2.386 1_564 S
O318 C305 1.271 . S
O319 Sm296 2.464 1_565 S
O319 C305 1.251 . S
O320 Sm296 2.396 . S
O320 C306 1.252 . S
O321 Sm297 2.408 1_554 S
O321 C306 1.272 . S
O322 Sm297 2.543 1_565 S
O322 C307 1.261 . S
O323 Sm297 2.450 . S
O323 C307 1.237 1_545 S
O324 Sm296 2.386 1_556 S
O324 Sm297 2.681 . S
O324 C314 1.271 . S
O325 Sm297 2.464 . S
O325 C314 1.251 . S
O326 Sm297 2.396 1_565 S
O326 C315 1.252 . S
O327 Sm296 2.408 1_566 S
O327 C315 1.272 . S
H328 C300 0.930 . S
H329 C301 0.929 . S
H330 C303 0.930 . S
H331 C304 0.929 . S
H332 C309 0.930 . S
H333 C310 0.929 . S
H334 C312 0.930 . S
H335 C313 0.929 . S
Sm336 C338 2.846 . S
Sm336 O356 2.543 . S
Sm336 O357 2.450 . S
Sm336 O358 2.681 . S
Sm336 O359 2.464 . S
Sm336 O360 2.396 . S
Sm336 O364 2.386 . S
Sm336 O367 2.408 . S
Sm337 C347 2.846 . S
Sm337 O358 2.386 . S
Sm337 O361 2.408 . S
Sm337 O362 2.543 . S
Sm337 O363 2.450 . S
Sm337 O364 2.681 . S
Sm337 O365 2.464 . S
Sm337 O366 2.396 . S
C338 Sm336 2.846 . S
C338 C339 1.506 . S
C338 O356 1.261 . S
C338 O357 1.242 . S
C339 C338 1.506 . S
C339 C340 1.358 . S
C339 C344 1.382 . S
C340 C339 1.358 . S
C340 C341 1.385 . S
C340 H368 0.930 . S
C341 C340 1.385 . S
C341 C342 1.395 . S
C341 H369 0.929 . S
C342 C341 1.395 . S
C342 C343 1.335 . S
C343 C342 1.335 . S
C343 C344 1.398 . S
C343 H370 0.930 . S
C344 C339 1.382 . S
C344 C343 1.398 . S
C344 H371 0.929 . S
C345 O358 1.271 . S
C345 O359 1.251 . S
C346 O360 1.252 . S
C346 O361 1.272 . S
C347 Sm337 2.846 . S
C347 C348 1.506 . S
C347 O362 1.261 . S
C347 O363 1.242 . S
C348 C347 1.506 . S
C348 C349 1.358 . S
C348 C353 1.382 . S
C349 C348 1.358 . S
C349 C350 1.385 . S
C349 H372 0.930 . S
C350 C349 1.385 . S
C350 C351 1.395 . S
C350 H373 0.929 . S
C351 C350 1.395 . S
C351 C352 1.335 . S
C352 C351 1.335 . S
C352 C353 1.398 . S
C352 H374 0.930 . S
C353 C348 1.382 . S
C353 C352 1.398 . S
C353 H375 0.929 . S
C354 O364 1.271 . S
C354 O365 1.251 . S
C355 O366 1.252 . S
C355 O367 1.272 . S
O356 Sm336 2.543 . S
O356 C338 1.261 . S
O357 Sm336 2.450 . S
O357 C338 1.242 . S
O358 Sm336 2.681 . S
O358 Sm337 2.386 . S
O358 C345 1.271 . S
O359 Sm336 2.464 . S
O359 C345 1.251 . S
O360 Sm336 2.396 . S
O360 C346 1.252 . S
O361 Sm337 2.408 . S
O361 C346 1.272 . S
O362 Sm337 2.543 . S
O362 C347 1.261 . S
O363 Sm337 2.450 . S
O363 C347 1.242 . S
O364 Sm336 2.386 . S
O364 Sm337 2.681 . S
O364 C354 1.271 . S
O365 Sm337 2.464 . S
O365 C354 1.251 . S
O366 Sm337 2.396 . S
O366 C355 1.252 . S
O367 Sm336 2.408 . S
O367 C355 1.272 . S
H368 C340 0.930 . S
H369 C341 0.929 . S
H370 C343 0.930 . S
H371 C344 0.929 . S
H372 C349 0.930 . S
H373 C350 0.929 . S
H374 C352 0.930 . S
H375 C353 0.929 . S
Sm376 C378 2.846 . S
Sm376 O396 2.543 . S
Sm376 O397 2.450 . S
Sm376 O398 2.681 1_455 S
Sm376 O399 2.464 1_455 S
Sm376 O400 2.396 . S
Sm376 O404 2.386 1_554 S
Sm376 O407 2.388 1_454 S
Sm377 C387 2.846 . S
Sm377 O398 2.386 1_556 S
Sm377 O401 2.408 1_656 S
Sm377 O402 2.543 . S
Sm377 O403 2.450 . S
Sm377 O404 2.681 1_655 S
Sm377 O405 2.464 1_655 S
Sm377 O406 2.396 . S
C378 Sm376 2.846 . S
C378 C379 1.506 . S
C378 O396 1.261 . S
C378 O397 1.242 . S
C379 C378 1.506 . S
C379 C380 1.358 . S
C379 C384 1.382 . S
C380 C379 1.358 . S
C380 C381 1.385 . S
C380 H408 0.930 . S
C381 C380 1.385 . S
C381 C382 1.395 . S
C381 H409 0.929 . S
C382 C381 1.395 . S
C382 C383 1.335 . S
C383 C382 1.335 . S
C383 C384 1.398 . S
C383 H410 0.930 . S
C384 C379 1.382 . S
C384 C383 1.398 . S
C384 H411 0.929 . S
C385 O398 1.271 . S
C385 O399 1.251 . S
C386 O400 1.252 . S
C386 O401 1.272 . S
C387 Sm377 2.846 . S
C387 C388 1.506 . S
C387 O402 1.261 . S
C387 O403 1.242 . S
C388 C387 1.506 . S
C388 C389 1.358 . S
C388 C393 1.382 . S
C389 C388 1.358 . S
C389 C390 1.385 . S
C389 H412 0.930 . S
C390 C389 1.385 . S
C390 C391 1.395 . S
C390 H413 0.929 . S
C391 C390 1.395 . S
C391 C392 1.335 . S
C392 C391 1.335 . S
C392 C393 1.398 . S
C392 H414 0.930 . S
C393 C388 1.382 . S
C393 C392 1.398 . S
C393 H415 0.929 . S
C394 O404 1.271 . S
C394 O405 1.251 . S
C395 O406 1.252 . S
C395 O407 1.298 . S
O396 Sm376 2.543 . S
O396 C378 1.261 . S
O397 Sm376 2.450 . S
O397 C378 1.242 . S
O398 Sm376 2.681 1_655 S
O398 Sm377 2.386 1_554 S
O398 C385 1.271 . S
O399 Sm376 2.464 1_655 S
O399 C385 1.251 . S
O400 Sm376 2.396 . S
O400 C386 1.252 . S
O401 Sm377 2.408 1_454 S
O401 C386 1.272 . S
O402 Sm377 2.543 . S
O402 C387 1.261 . S
O403 Sm377 2.450 . S
O403 C387 1.242 . S
O404 Sm376 2.386 1_556 S
O404 Sm377 2.681 1_455 S
O404 C394 1.271 . S
O405 Sm377 2.464 1_455 S
O405 C394 1.251 . S
O406 Sm377 2.396 . S
O406 C395 1.252 . S
O407 Sm376 2.388 1_656 S
O407 C395 1.298 . S
H408 C380 0.930 . S
H409 C381 0.929 . S
H410 C383 0.930 . S
H411 C384 0.929 . S
H412 C389 0.930 . S
H413 C390 0.929 . S
H414 C392 0.930 . S
H415 C393 0.929 . S
C416 C417 1.391 . S
C416 C418 1.394 . S
C416 H432 0.931 . S
C417 C416 1.391 . S
C417 C421 1.376 . S
C418 C416 1.394 . S
C418 C419 1.369 . S
C418 C422 1.531 . S
C419 C418 1.369 . S
C419 C420 1.410 . S
C419 C427 1.503 . S
C420 C419 1.410 . S
C420 C421 1.392 . S
C420 C423 1.511 . S
C421 C417 1.376 . S
C421 C420 1.392 . S
C421 H433 0.929 . S
C422 C418 1.531 . S
C422 H434 0.960 . S
C422 H435 0.962 . S
C422 H436 0.960 . S
C423 C420 1.511 . S
C423 H437 0.961 . S
C423 H438 0.961 . S
C423 H439 0.961 . S
C424 C425 1.370 . S
C424 C426 1.363 . S
C424 H440 0.931 . S
C425 C424 1.370 . S
C425 C429 1.408 . S
C426 C424 1.363 . S
C426 C427 1.370 . S
C426 C430 1.524 . S
C427 C419 1.503 . S
C427 C426 1.370 . S
C427 C428 1.403 . S
C428 C427 1.403 . S
C428 C429 1.404 . S
C428 C431 1.539 . S
C429 C425 1.408 . S
C429 C428 1.404 . S
C429 H441 0.930 . S
C430 C426 1.524 . S
C430 H442 0.956 . S
C430 H443 0.961 . S
C430 H444 0.961 . S
C431 C428 1.539 . S
C431 H445 0.958 . S
C431 H446 0.961 . S
C431 H447 0.960 . S
H432 C416 0.931 . S
H433 C421 0.929 . S
H434 C422 0.960 . S
H435 C422 0.962 . S
H436 C422 0.960 . S
H437 C423 0.961 . S
H438 C423 0.961 . S
H439 C423 0.961 . S
H440 C424 0.931 . S
H441 C429 0.930 . S
H442 C430 0.956 . S
H443 C430 0.961 . S
H444 C430 0.961 . S
H445 C431 0.958 . S
H446 C431 0.961 . S
H447 C431 0.960 . S
C448 C449 1.391 . S
C448 C450 1.394 . S
C448 H464 0.931 . S
C449 C448 1.391 . S
C449 C453 1.376 . S
C450 C448 1.394 . S
C450 C451 1.369 . S
C450 C454 1.531 . S
C451 C450 1.369 . S
C451 C452 1.410 . S
C451 C459 1.503 . S
C452 C451 1.410 . S
C452 C453 1.392 . S
C452 C455 1.511 . S
C453 C449 1.376 . S
C453 C452 1.392 . S
C453 H465 0.929 . S
C454 C450 1.531 . S
C454 H466 0.960 . S
C454 H467 0.962 . S
C454 H468 0.960 . S
C455 C452 1.511 . S
C455 H469 0.961 . S
C455 H470 0.961 . S
C455 H471 0.961 . S
C456 C457 1.370 . S
C456 C458 1.363 . S
C456 H472 0.931 . S
C457 C456 1.370 . S
C457 C461 1.408 . S
C458 C456 1.363 . S
C458 C459 1.370 . S
C458 C462 1.524 . S
C459 C451 1.503 . S
C459 C458 1.370 . S
C459 C460 1.403 . S
C460 C459 1.403 . S
C460 C461 1.404 . S
C460 C463 1.539 . S
C461 C457 1.408 . S
C461 C460 1.404 . S
C461 H473 0.930 . S
C462 C458 1.524 . S
C462 H474 0.956 . S
C462 H475 0.961 . S
C462 H476 0.961 . S
C463 C460 1.539 . S
C463 H477 0.958 . S
C463 H478 0.961 . S
C463 H479 0.960 . S
H464 C448 0.931 . S
H465 C453 0.929 . S
H466 C454 0.960 . S
H467 C454 0.962 . S
H468 C454 0.960 . S
H469 C455 0.961 . S
H470 C455 0.961 . S
H471 C455 0.961 . S
H472 C456 0.931 . S
H473 C461 0.930 . S
H474 C462 0.956 . S
H475 C462 0.961 . S
H476 C462 0.961 . S
H477 C463 0.958 . S
H478 C463 0.961 . S
H479 C463 0.960 . S
C480 C481 1.391 . S
C480 C482 1.394 . S
C480 H496 0.931 . S
C481 C480 1.391 . S
C481 C485 1.376 . S
C482 C480 1.394 . S
C482 C483 1.369 . S
C482 C486 1.531 . S
C483 C482 1.369 . S
C483 C484 1.410 . S
C483 C491 1.503 . S
C484 C483 1.410 . S
C484 C485 1.392 . S
C484 C487 1.511 . S
C485 C481 1.376 . S
C485 C484 1.392 . S
C485 H497 0.929 . S
C486 C482 1.531 . S
C486 H498 0.960 . S
C486 H499 0.962 . S
C486 H500 0.960 . S
C487 C484 1.511 . S
C487 H501 0.961 . S
C487 H502 0.961 . S
C487 H503 0.961 . S
C488 C489 1.370 . S
C488 C490 1.363 . S
C488 H504 0.931 . S
C489 C488 1.370 . S
C489 C493 1.408 . S
C490 C488 1.363 . S
C490 C491 1.370 . S
C490 C494 1.524 . S
C491 C483 1.503 . S
C491 C490 1.370 . S
C491 C492 1.403 . S
C492 C491 1.403 . S
C492 C493 1.404 . S
C492 C495 1.539 . S
C493 C489 1.408 . S
C493 C492 1.404 . S
C493 H505 0.930 . S
C494 C490 1.524 . S
C494 H506 0.956 . S
C494 H507 0.961 . S
C494 H508 0.961 . S
C495 C492 1.539 . S
C495 H509 0.958 . S
C495 H510 0.961 . S
C495 H511 0.960 . S
H496 C480 0.931 . S
H497 C485 0.929 . S
H498 C486 0.960 . S
H499 C486 0.962 . S
H500 C486 0.960 . S
H501 C487 0.961 . S
H502 C487 0.961 . S
H503 C487 0.961 . S
H504 C488 0.931 . S
H505 C493 0.930 . S
H506 C494 0.956 . S
H507 C494 0.961 . S
H508 C494 0.961 . S
H509 C495 0.958 . S
H510 C495 0.961 . S
H511 C495 0.960 . S
C512 C513 1.391 . S
C512 C514 1.394 . S
C512 H528 0.931 . S
C513 C512 1.391 . S
C513 C517 1.376 . S
C514 C512 1.394 . S
C514 C515 1.369 . S
C514 C518 1.531 . S
C515 C514 1.369 . S
C515 C516 1.410 . S
C515 C523 1.503 . S
C516 C515 1.410 . S
C516 C517 1.392 . S
C516 C519 1.511 . S
C517 C513 1.376 . S
C517 C516 1.392 . S
C517 H529 0.929 . S
C518 C514 1.531 . S
C518 H530 0.960 . S
C518 H531 0.962 . S
C518 H532 0.960 . S
C519 C516 1.511 . S
C519 H533 0.961 . S
C519 H534 0.961 . S
C519 H535 0.961 . S
C520 C521 1.370 . S
C520 C522 1.363 . S
C520 H536 0.931 . S
C521 C520 1.370 . S
C521 C525 1.408 . S
C522 C520 1.363 . S
C522 C523 1.370 . S
C522 C526 1.524 . S
C523 C515 1.503 . S
C523 C522 1.370 . S
C523 C524 1.403 . S
C524 C523 1.403 . S
C524 C525 1.404 . S
C524 C527 1.539 . S
C525 C521 1.408 . S
C525 C524 1.404 . S
C525 H537 0.930 . S
C526 C522 1.524 . S
C526 H538 0.956 . S
C526 H539 0.961 . S
C526 H540 0.961 . S
C527 C524 1.539 . S
C527 H541 0.958 . S
C527 H542 0.961 . S
C527 H543 0.960 . S
H528 C512 0.931 . S
H529 C517 0.929 . S
H530 C518 0.960 . S
H531 C518 0.962 . S
H532 C518 0.960 . S
H533 C519 0.961 . S
H534 C519 0.961 . S
H535 C519 0.961 . S
H536 C520 0.931 . S
H537 C525 0.930 . S
H538 C526 0.956 . S
H539 C526 0.961 . S
H540 C526 0.961 . S
H541 C527 0.958 . S
H542 C527 0.961 . S
H543 C527 0.960 . S
C544 C545 1.391 . S
C544 C546 1.394 . S
C544 H560 0.931 . S
C545 C544 1.391 . S
C545 C549 1.376 . S
C546 C544 1.394 . S
C546 C547 1.369 . S
C546 C550 1.531 . S
C547 C546 1.369 . S
C547 C548 1.410 . S
C547 C555 1.503 . S
C548 C547 1.410 . S
C548 C549 1.392 . S
C548 C551 1.511 . S
C549 C545 1.376 . S
C549 C548 1.392 . S
C549 H561 0.929 . S
C550 C546 1.531 . S
C550 H562 0.960 . S
C550 H563 0.962 . S
C550 H564 0.960 . S
C551 C548 1.511 . S
C551 H565 0.961 . S
C551 H566 0.961 . S
C551 H567 0.961 . S
C552 C553 1.370 . S
C552 C554 1.363 . S
C552 H568 0.931 . S
C553 C552 1.370 . S
C553 C557 1.408 . S
C554 C552 1.363 . S
C554 C555 1.370 . S
C554 C558 1.524 . S
C555 C547 1.503 . S
C555 C554 1.370 . S
C555 C556 1.403 . S
C556 C555 1.403 . S
C556 C557 1.404 . S
C556 C559 1.539 . S
C557 C553 1.408 . S
C557 C556 1.404 . S
C557 H569 0.930 . S
C558 C554 1.524 . S
C558 H570 0.956 . S
C558 H571 0.961 . S
C558 H572 0.961 . S
C559 C556 1.539 . S
C559 H573 0.958 . S
C559 H574 0.961 . S
C559 H575 0.960 . S
H560 C544 0.931 . S
H561 C549 0.929 . S
H562 C550 0.960 . S
H563 C550 0.962 . S
H564 C550 0.960 . S
H565 C551 0.961 . S
H566 C551 0.961 . S
H567 C551 0.961 . S
H568 C552 0.931 . S
H569 C557 0.930 . S
H570 C558 0.956 . S
H571 C558 0.961 . S
H572 C558 0.961 . S
H573 C559 0.958 . S
H574 C559 0.961 . S
H575 C559 0.960 . S
C576 C577 1.391 . S
C576 C578 1.394 . S
C576 H592 0.931 . S
C577 C576 1.391 . S
C577 C581 1.376 . S
C578 C576 1.394 . S
C578 C579 1.369 . S
C578 C582 1.531 . S
C579 C578 1.369 . S
C579 C580 1.410 . S
C579 C587 1.503 . S
C580 C579 1.410 . S
C580 C581 1.392 . S
C580 C583 1.511 . S
C581 C577 1.376 . S
C581 C580 1.392 . S
C581 H593 0.929 . S
C582 C578 1.531 . S
C582 H594 0.960 . S
C582 H595 0.962 . S
C582 H596 0.960 . S
C583 C580 1.511 . S
C583 H597 0.961 . S
C583 H598 0.961 . S
C583 H599 0.961 . S
C584 C585 1.370 . S
C584 C586 1.363 . S
C584 H600 0.931 . S
C585 C584 1.370 . S
C585 C589 1.408 . S
C586 C584 1.363 . S
C586 C587 1.370 . S
C586 C590 1.524 . S
C587 C579 1.503 . S
C587 C586 1.370 . S
C587 C588 1.403 . S
C588 C587 1.403 . S
C588 C589 1.404 . S
C588 C591 1.539 . S
C589 C585 1.408 . S
C589 C588 1.404 . S
C589 H601 0.930 . S
C590 C586 1.524 . S
C590 H602 0.956 . S
C590 H603 0.961 . S
C590 H604 0.961 . S
C591 C588 1.539 . S
C591 H605 0.958 . S
C591 H606 0.961 . S
C591 H607 0.960 . S
H592 C576 0.931 . S
H593 C581 0.929 . S
H594 C582 0.960 . S
H595 C582 0.962 . S
H596 C582 0.960 . S
H597 C583 0.961 . S
H598 C583 0.961 . S
H599 C583 0.961 . S
H600 C584 0.931 . S
H601 C589 0.930 . S
H602 C590 0.956 . S
H603 C590 0.961 . S
H604 C590 0.961 . S
H605 C591 0.958 . S
H606 C591 0.961 . S
H607 C591 0.960 . S
C608 C609 1.391 . S
C608 C610 1.394 . S
C608 H624 0.931 . S
C609 C608 1.391 . S
C609 C613 1.376 . S
C610 C608 1.394 . S
C610 C611 1.369 . S
C610 C614 1.531 . S
C611 C610 1.369 . S
C611 C612 1.410 . S
C611 C619 1.503 . S
C612 C611 1.410 . S
C612 C613 1.392 . S
C612 C615 1.511 . S
C613 C609 1.376 . S
C613 C612 1.392 . S
C613 H625 0.929 . S
C614 C610 1.531 . S
C614 H626 0.960 . S
C614 H627 0.962 . S
C614 H628 0.960 . S
C615 C612 1.511 . S
C615 H629 0.961 . S
C615 H630 0.961 . S
C615 H631 0.961 . S
C616 C617 1.370 . S
C616 C618 1.363 . S
C616 H632 0.931 . S
C617 C616 1.370 . S
C617 C621 1.408 . S
C618 C616 1.363 . S
C618 C619 1.370 . S
C618 C622 1.524 . S
C619 C611 1.503 . S
C619 C618 1.370 . S
C619 C620 1.403 . S
C620 C619 1.403 . S
C620 C621 1.404 . S
C620 C623 1.539 . S
C621 C617 1.408 . S
C621 C620 1.404 . S
C621 H633 0.930 . S
C622 C618 1.524 . S
C622 H634 0.956 . S
C622 H635 0.961 . S
C622 H636 0.961 . S
C623 C620 1.539 . S
C623 H637 0.958 . S
C623 H638 0.961 . S
C623 H639 0.960 . S
H624 C608 0.931 . S
H625 C613 0.929 . S
H626 C614 0.960 . S
H627 C614 0.962 . S
H628 C614 0.960 . S
H629 C615 0.961 . S
H630 C615 0.961 . S
H631 C615 0.961 . S
H632 C616 0.931 . S
H633 C621 0.930 . S
H634 C622 0.956 . S
H635 C622 0.961 . S
H636 C622 0.961 . S
H637 C623 0.958 . S
H638 C623 0.961 . S
H639 C623 0.960 . S
C640 C641 1.391 . S
C640 C642 1.394 . S
C640 H656 0.931 . S
C641 C640 1.391 . S
C641 C645 1.376 . S
C642 C640 1.394 . S
C642 C643 1.369 . S
C642 C646 1.531 . S
C643 C642 1.369 . S
C643 C644 1.410 . S
C643 C651 1.503 . S
C644 C643 1.410 . S
C644 C645 1.392 . S
C644 C647 1.511 . S
C645 C641 1.376 . S
C645 C644 1.392 . S
C645 H657 0.929 . S
C646 C642 1.531 . S
C646 H658 0.960 . S
C646 H659 0.962 . S
C646 H660 0.960 . S
C647 C644 1.511 . S
C647 H661 0.961 . S
C647 H662 0.961 . S
C647 H663 0.961 . S
C648 C649 1.370 . S
C648 C650 1.363 . S
C648 H664 0.931 . S
C649 C648 1.370 . S
C649 C653 1.408 . S
C650 C648 1.363 . S
C650 C651 1.370 . S
C650 C654 1.524 . S
C651 C643 1.503 . S
C651 C650 1.370 . S
C651 C652 1.403 . S
C652 C651 1.403 . S
C652 C653 1.404 . S
C652 C655 1.539 . S
C653 C649 1.408 . S
C653 C652 1.404 . S
C653 H665 0.930 . S
C654 C650 1.524 . S
C654 H666 0.956 . S
C654 H667 0.961 . S
C654 H668 0.961 . S
C655 C652 1.539 . S
C655 H669 0.958 . S
C655 H670 0.961 . S
C655 H671 0.960 . S
H656 C640 0.931 . S
H657 C645 0.929 . S
H658 C646 0.960 . S
H659 C646 0.962 . S
H660 C646 0.960 . S
H661 C647 0.961 . S
H662 C647 0.961 . S
H663 C647 0.961 . S
H664 C648 0.931 . S
H665 C653 0.930 . S
H666 C654 0.956 . S
H667 C654 0.961 . S
H668 C654 0.961 . S
H669 C655 0.958 . S
H670 C655 0.961 . S
H671 C655 0.960 . S
C672 C673 1.391 . S
C672 C674 1.394 . S
C672 H688 0.931 . S
C673 C672 1.391 . S
C673 C677 1.376 . S
C674 C672 1.394 . S
C674 C675 1.369 . S
C674 C678 1.531 . S
C675 C674 1.369 . S
C675 C676 1.410 . S
C675 C683 1.503 . S
C676 C675 1.410 . S
C676 C677 1.392 . S
C676 C679 1.511 . S
C677 C673 1.376 . S
C677 C676 1.392 . S
C677 H689 0.929 . S
C678 C674 1.531 . S
C678 H690 0.960 . S
C678 H691 0.962 . S
C678 H692 0.960 . S
C679 C676 1.511 . S
C679 H693 0.961 . S
C679 H694 0.961 . S
C679 H695 0.961 . S
C680 C681 1.370 . S
C680 C682 1.363 . S
C680 H696 0.931 . S
C681 C680 1.370 . S
C681 C685 1.408 . S
C682 C680 1.363 . S
C682 C683 1.370 . S
C682 C686 1.524 . S
C683 C675 1.503 . S
C683 C682 1.370 . S
C683 C684 1.403 . S
C684 C683 1.403 . S
C684 C685 1.404 . S
C684 C687 1.539 . S
C685 C681 1.408 . S
C685 C684 1.404 . S
C685 H697 0.930 . S
C686 C682 1.524 . S
C686 H698 0.956 . S
C686 H699 0.961 . S
C686 H700 0.961 . S
C687 C684 1.539 . S
C687 H701 0.958 . S
C687 H702 0.961 . S
C687 H703 0.960 . S
H688 C672 0.931 . S
H689 C677 0.929 . S
H690 C678 0.960 . S
H691 C678 0.962 . S
H692 C678 0.960 . S
H693 C679 0.961 . S
H694 C679 0.961 . S
H695 C679 0.961 . S
H696 C680 0.931 . S
H697 C685 0.930 . S
H698 C686 0.956 . S
H699 C686 0.961 . S
H700 C686 0.961 . S
H701 C687 0.958 . S
H702 C687 0.961 . S
H703 C687 0.960 . S
C704 C705 1.391 . S
C704 C706 1.394 . S
C704 H720 0.931 . S
C705 C704 1.391 . S
C705 C709 1.376 . S
C706 C704 1.394 . S
C706 C707 1.369 . S
C706 C710 1.531 . S
C707 C706 1.369 . S
C707 C708 1.410 . S
C707 C715 1.503 . S
C708 C707 1.410 . S
C708 C709 1.392 . S
C708 C711 1.511 . S
C709 C705 1.376 . S
C709 C708 1.392 . S
C709 H721 0.929 . S
C710 C706 1.531 . S
C710 H722 0.960 . S
C710 H723 0.962 . S
C710 H724 0.960 . S
C711 C708 1.511 . S
C711 H725 0.961 . S
C711 H726 0.961 . S
C711 H727 0.961 . S
C712 C713 1.370 . S
C712 C714 1.363 . S
C712 H728 0.931 . S
C713 C712 1.370 . S
C713 C717 1.408 . S
C714 C712 1.363 . S
C714 C715 1.370 . S
C714 C718 1.524 . S
C715 C707 1.503 . S
C715 C714 1.370 . S
C715 C716 1.403 . S
C716 C715 1.403 . S
C716 C717 1.404 . S
C716 C719 1.539 . S
C717 C713 1.408 . S
C717 C716 1.404 . S
C717 H729 0.930 . S
C718 C714 1.524 . S
C718 H730 0.956 . S
C718 H731 0.961 . S
C718 H732 0.961 . S
C719 C716 1.539 . S
C719 H733 0.958 . S
C719 H734 0.961 . S
C719 H735 0.960 . S
H720 C704 0.931 . S
H721 C709 0.929 . S
H722 C710 0.960 . S
H723 C710 0.962 . S
H724 C710 0.960 . S
H725 C711 0.961 . S
H726 C711 0.961 . S
H727 C711 0.961 . S
H728 C712 0.931 . S
H729 C717 0.930 . S
H730 C718 0.956 . S
H731 C718 0.961 . S
H732 C718 0.961 . S
H733 C719 0.958 . S
H734 C719 0.961 . S
H735 C719 0.960 . S
C736 C737 1.391 . S
C736 C738 1.394 . S
C736 H752 0.931 . S
C737 C736 1.391 . S
C737 C741 1.376 . S
C738 C736 1.394 . S
C738 C739 1.369 . S
C738 C742 1.531 . S
C739 C738 1.369 . S
C739 C740 1.410 . S
C739 C747 1.503 . S
C740 C739 1.410 . S
C740 C741 1.392 . S
C740 C743 1.511 . S
C741 C737 1.376 . S
C741 C740 1.392 . S
C741 H753 0.929 . S
C742 C738 1.531 . S
C742 H754 0.960 . S
C742 H755 0.962 . S
C742 H756 0.960 . S
C743 C740 1.511 . S
C743 H757 0.961 . S
C743 H758 0.961 . S
C743 H759 0.961 . S
C744 C745 1.370 . S
C744 C746 1.363 . S
C744 H760 0.931 . S
C745 C744 1.370 . S
C745 C749 1.408 . S
C746 C744 1.363 . S
C746 C747 1.370 . S
C746 C750 1.524 . S
C747 C739 1.503 . S
C747 C746 1.370 . S
C747 C748 1.403 . S
C748 C747 1.403 . S
C748 C749 1.404 . S
C748 C751 1.539 . S
C749 C745 1.408 . S
C749 C748 1.404 . S
C749 H761 0.930 . S
C750 C746 1.524 . S
C750 H762 0.956 . S
C750 H763 0.961 . S
C750 H764 0.961 . S
C751 C748 1.539 . S
C751 H765 0.958 . S
C751 H766 0.961 . S
C751 H767 0.960 . S
H752 C736 0.931 . S
H753 C741 0.929 . S
H754 C742 0.960 . S
H755 C742 0.962 . S
H756 C742 0.960 . S
H757 C743 0.961 . S
H758 C743 0.961 . S
H759 C743 0.961 . S
H760 C744 0.931 . S
H761 C749 0.930 . S
H762 C750 0.956 . S
H763 C750 0.961 . S
H764 C750 0.961 . S
H765 C751 0.958 . S
H766 C751 0.961 . S
H767 C751 0.960 . S
C768 C769 1.391 . S
C768 C770 1.394 . S
C768 H784 0.931 . S
C769 C768 1.391 . S
C769 C773 1.376 . S
C770 C768 1.394 . S
C770 C771 1.369 . S
C770 C774 1.531 . S
C771 C770 1.369 . S
C771 C772 1.410 . S
C771 C779 1.503 . S
C772 C771 1.410 . S
C772 C773 1.392 . S
C772 C775 1.511 . S
C773 C769 1.376 . S
C773 C772 1.392 . S
C773 H785 0.929 . S
C774 C770 1.531 . S
C774 H786 0.960 . S
C774 H787 0.962 . S
C774 H788 0.960 . S
C775 C772 1.511 . S
C775 H789 0.961 . S
C775 H790 0.961 . S
C775 H791 0.961 . S
C776 C777 1.370 . S
C776 C778 1.363 . S
C776 H792 0.931 . S
C777 C776 1.370 . S
C777 C781 1.408 . S
C778 C776 1.363 . S
C778 C779 1.370 . S
C778 C782 1.524 . S
C779 C771 1.503 . S
C779 C778 1.370 . S
C779 C780 1.403 . S
C780 C779 1.403 . S
C780 C781 1.404 . S
C780 C783 1.539 . S
C781 C777 1.408 . S
C781 C780 1.404 . S
C781 H793 0.930 . S
C782 C778 1.524 . S
C782 H794 0.956 . S
C782 H795 0.961 . S
C782 H796 0.961 . S
C783 C780 1.539 . S
C783 H797 0.958 . S
C783 H798 0.961 . S
C783 H799 0.960 . S
H784 C768 0.931 . S
H785 C773 0.929 . S
H786 C774 0.960 . S
H787 C774 0.962 . S
H788 C774 0.960 . S
H789 C775 0.961 . S
H790 C775 0.961 . S
H791 C775 0.961 . S
H792 C776 0.931 . S
H793 C781 0.930 . S
H794 C782 0.956 . S
H795 C782 0.961 . S
H796 C782 0.961 . S
H797 C783 0.958 . S
H798 C783 0.961 . S
H799 C783 0.960 . S
C800 C801 1.391 . S
C800 C802 1.394 . S
C800 H816 0.931 . S
C801 C800 1.391 . S
C801 C805 1.376 . S
C802 C800 1.394 . S
C802 C803 1.369 . S
C802 C806 1.531 . S
C803 C802 1.369 . S
C803 C804 1.410 . S
C803 C811 1.503 . S
C804 C803 1.410 . S
C804 C805 1.392 . S
C804 C807 1.511 . S
C805 C801 1.376 . S
C805 C804 1.392 . S
C805 H817 0.929 . S
C806 C802 1.531 . S
C806 H818 0.960 . S
C806 H819 0.962 . S
C806 H820 0.960 . S
C807 C804 1.511 . S
C807 H821 0.961 . S
C807 H822 0.961 . S
C807 H823 0.961 . S
C808 C809 1.370 . S
C808 C810 1.363 . S
C808 H824 0.931 . S
C809 C808 1.370 . S
C809 C813 1.408 . S
C810 C808 1.363 . S
C810 C811 1.370 . S
C810 C814 1.524 . S
C811 C803 1.503 . S
C811 C810 1.370 . S
C811 C812 1.403 . S
C812 C811 1.403 . S
C812 C813 1.404 . S
C812 C815 1.539 . S
C813 C809 1.408 . S
C813 C812 1.404 . S
C813 H825 0.930 . S
C814 C810 1.524 . S
C814 H826 0.956 . S
C814 H827 0.961 . S
C814 H828 0.961 . S
C815 C812 1.539 . S
C815 H829 0.958 . S
C815 H830 0.961 . S
C815 H831 0.960 . S
H816 C800 0.931 . S
H817 C805 0.929 . S
H818 C806 0.960 . S
H819 C806 0.962 . S
H820 C806 0.960 . S
H821 C807 0.961 . S
H822 C807 0.961 . S
H823 C807 0.961 . S
H824 C808 0.931 . S
H825 C813 0.930 . S
H826 C814 0.956 . S
H827 C814 0.961 . S
H828 C814 0.961 . S
H829 C815 0.958 . S
H830 C815 0.961 . S
H831 C815 0.960 . S
C832 C833 1.391 . S
C832 C834 1.394 . S
C832 H848 0.931 . S
C833 C832 1.391 . S
C833 C837 1.376 . S
C834 C832 1.394 . S
C834 C835 1.369 . S
C834 C838 1.531 . S
C835 C834 1.369 . S
C835 C836 1.410 . S
C835 C843 1.503 . S
C836 C835 1.410 . S
C836 C837 1.392 . S
C836 C839 1.511 . S
C837 C833 1.376 . S
C837 C836 1.392 . S
C837 H849 0.929 . S
C838 C834 1.531 . S
C838 H850 0.960 . S
C838 H851 0.962 . S
C838 H852 0.960 . S
C839 C836 1.511 . S
C839 H853 0.961 . S
C839 H854 0.961 . S
C839 H855 0.961 . S
C840 C841 1.370 . S
C840 C842 1.363 . S
C840 H856 0.931 . S
C841 C840 1.370 . S
C841 C845 1.408 . S
C842 C840 1.363 . S
C842 C843 1.370 . S
C842 C846 1.524 . S
C843 C835 1.503 . S
C843 C842 1.370 . S
C843 C844 1.403 . S
C844 C843 1.403 . S
C844 C845 1.404 . S
C844 C847 1.539 . S
C845 C841 1.408 . S
C845 C844 1.404 . S
C845 H857 0.930 . S
C846 C842 1.524 . S
C846 H858 0.956 . S
C846 H859 0.961 . S
C846 H860 0.961 . S
C847 C844 1.539 . S
C847 H861 0.958 . S
C847 H862 0.961 . S
C847 H863 0.960 . S
H848 C832 0.931 . S
H849 C837 0.929 . S
H850 C838 0.960 . S
H851 C838 0.962 . S
H852 C838 0.960 . S
H853 C839 0.961 . S
H854 C839 0.961 . S
H855 C839 0.961 . S
H856 C840 0.931 . S
H857 C845 0.930 . S
H858 C846 0.956 . S
H859 C846 0.961 . S
H860 C846 0.961 . S
H861 C847 0.958 . S
H862 C847 0.961 . S
H863 C847 0.960 . S
C864 C865 1.391 . S
C864 C866 1.394 . S
C864 H880 0.931 . S
C865 C864 1.391 . S
C865 C869 1.376 . S
C866 C864 1.394 . S
C866 C867 1.369 . S
C866 C870 1.531 . S
C867 C866 1.369 . S
C867 C868 1.410 . S
C867 C875 1.503 . S
C868 C867 1.410 . S
C868 C869 1.392 . S
C868 C871 1.511 . S
C869 C865 1.376 . S
C869 C868 1.392 . S
C869 H881 0.929 . S
C870 C866 1.531 . S
C870 H882 0.960 . S
C870 H883 0.962 . S
C870 H884 0.960 . S
C871 C868 1.511 . S
C871 H885 0.961 . S
C871 H886 0.961 . S
C871 H887 0.961 . S
C872 C873 1.370 . S
C872 C874 1.363 . S
C872 H888 0.931 . S
C873 C872 1.370 . S
C873 C877 1.408 . S
C874 C872 1.363 . S
C874 C875 1.370 . S
C874 C878 1.524 . S
C875 C867 1.503 . S
C875 C874 1.370 . S
C875 C876 1.403 . S
C876 C875 1.403 . S
C876 C877 1.404 . S
C876 C879 1.539 . S
C877 C873 1.408 . S
C877 C876 1.404 . S
C877 H889 0.930 . S
C878 C874 1.524 . S
C878 H890 0.956 . S
C878 H891 0.961 . S
C878 H892 0.961 . S
C879 C876 1.539 . S
C879 H893 0.958 . S
C879 H894 0.961 . S
C879 H895 0.960 . S
H880 C864 0.931 . S
H881 C869 0.929 . S
H882 C870 0.960 . S
H883 C870 0.962 . S
H884 C870 0.960 . S
H885 C871 0.961 . S
H886 C871 0.961 . S
H887 C871 0.961 . S
H888 C872 0.931 . S
H889 C877 0.930 . S
H890 C878 0.956 . S
H891 C878 0.961 . S
H892 C878 0.961 . S
H893 C879 0.958 . S
H894 C879 0.961 . S
H895 C879 0.960 . S
C896 C897 1.391 . S
C896 C898 1.394 . S
C896 H912 0.931 . S
C897 C896 1.391 . S
C897 C901 1.376 . S
C898 C896 1.394 . S
C898 C899 1.369 . S
C898 C902 1.531 . S
C899 C898 1.369 . S
C899 C900 1.410 . S
C899 C907 1.503 . S
C900 C899 1.410 . S
C900 C901 1.392 . S
C900 C903 1.511 . S
C901 C897 1.376 . S
C901 C900 1.392 . S
C901 H913 0.929 . S
C902 C898 1.531 . S
C902 H914 0.960 . S
C902 H915 0.962 . S
C902 H916 0.960 . S
C903 C900 1.511 . S
C903 H917 0.961 . S
C903 H918 0.961 . S
C903 H919 0.961 . S
C904 C905 1.370 . S
C904 C906 1.363 . S
C904 H920 0.931 . S
C905 C904 1.370 . S
C905 C909 1.408 . S
C906 C904 1.363 . S
C906 C907 1.370 . S
C906 C910 1.524 . S
C907 C899 1.503 . S
C907 C906 1.370 . S
C907 C908 1.403 . S
C908 C907 1.403 . S
C908 C909 1.404 . S
C908 C911 1.539 . S
C909 C905 1.408 . S
C909 C908 1.404 . S
C909 H921 0.930 . S
C910 C906 1.524 . S
C910 H922 0.956 . S
C910 H923 0.961 . S
C910 H924 0.961 . S
C911 C908 1.539 . S
C911 H925 0.958 . S
C911 H926 0.961 . S
C911 H927 0.960 . S
H912 C896 0.931 . S
H913 C901 0.929 . S
H914 C902 0.960 . S
H915 C902 0.962 . S
H916 C902 0.960 . S
H917 C903 0.961 . S
H918 C903 0.961 . S
H919 C903 0.961 . S
H920 C904 0.931 . S
H921 C909 0.930 . S
H922 C910 0.956 . S
H923 C910 0.961 . S
H924 C910 0.961 . S
H925 C911 0.958 . S
H926 C911 0.961 . S
H927 C911 0.960 . S
C928 C929 1.391 . S
C928 C930 1.394 . S
C928 H944 0.931 . S
C929 C928 1.391 . S
C929 C933 1.376 . S
C930 C928 1.394 . S
C930 C931 1.369 . S
C930 C934 1.531 . S
C931 C930 1.369 . S
C931 C932 1.410 . S
C931 C939 1.503 . S
C932 C931 1.410 . S
C932 C933 1.392 . S
C932 C935 1.511 . S
C933 C929 1.376 . S
C933 C932 1.392 . S
C933 H945 0.929 . S
C934 C930 1.531 . S
C934 H946 0.960 . S
C934 H947 0.962 . S
C934 H948 0.960 . S
C935 C932 1.511 . S
C935 H949 0.961 . S
C935 H950 0.961 . S
C935 H951 0.961 . S
C936 C937 1.370 . S
C936 C938 1.363 . S
C936 H952 0.931 . S
C937 C936 1.370 . S
C937 C941 1.408 . S
C938 C936 1.363 . S
C938 C939 1.370 . S
C938 C942 1.524 . S
C939 C931 1.503 . S
C939 C938 1.370 . S
C939 C940 1.403 . S
C940 C939 1.403 . S
C940 C941 1.404 . S
C940 C943 1.539 . S
C941 C937 1.408 . S
C941 C940 1.404 . S
C941 H953 0.930 . S
C942 C938 1.524 . S
C942 H954 0.956 . S
C942 H955 0.961 . S
C942 H956 0.961 . S
C943 C940 1.539 . S
C943 H957 0.958 . S
C943 H958 0.961 . S
C943 H959 0.960 . S
H944 C928 0.931 . S
H945 C933 0.929 . S
H946 C934 0.960 . S
H947 C934 0.962 . S
H948 C934 0.960 . S
H949 C935 0.961 . S
H950 C935 0.961 . S
H951 C935 0.961 . S
H952 C936 0.931 . S
H953 C941 0.930 . S
H954 C942 0.956 . S
H955 C942 0.961 . S
H956 C942 0.961 . S
H957 C943 0.958 . S
H958 C943 0.961 . S
H959 C943 0.960 . S
C960 C961 1.391 . S
C960 C962 1.394 . S
C960 H976 0.931 . S
C961 C960 1.391 . S
C961 C965 1.376 . S
C962 C960 1.394 . S
C962 C963 1.369 . S
C962 C966 1.531 . S
C963 C962 1.369 . S
C963 C964 1.410 . S
C963 C971 1.503 . S
C964 C963 1.410 . S
C964 C965 1.392 . S
C964 C967 1.511 . S
C965 C961 1.376 . S
C965 C964 1.392 . S
C965 H977 0.929 . S
C966 C962 1.531 . S
C966 H978 0.960 . S
C966 H979 0.962 . S
C966 H980 0.960 . S
C967 C964 1.511 . S
C967 H981 0.961 . S
C967 H982 0.961 . S
C967 H983 0.961 . S
C968 C969 1.370 . S
C968 C970 1.363 . S
C968 H984 0.931 . S
C969 C968 1.370 . S
C969 C973 1.408 . S
C970 C968 1.363 . S
C970 C971 1.370 . S
C970 C974 1.524 . S
C971 C963 1.503 . S
C971 C970 1.370 . S
C971 C972 1.403 . S
C972 C971 1.403 . S
C972 C973 1.404 . S
C972 C975 1.539 . S
C973 C969 1.408 . S
C973 C972 1.404 . S
C973 H985 0.930 . S
C974 C970 1.524 . S
C974 H986 0.956 . S
C974 H987 0.961 . S
C974 H988 0.961 . S
C975 C972 1.539 . S
C975 H989 0.958 . S
C975 H990 0.961 . S
C975 H991 0.960 . S
H976 C960 0.931 . S
H977 C965 0.929 . S
H978 C966 0.960 . S
H979 C966 0.962 . S
H980 C966 0.960 . S
H981 C967 0.961 . S
H982 C967 0.961 . S
H983 C967 0.961 . S
H984 C968 0.931 . S
H985 C973 0.930 . S
H986 C974 0.956 . S
H987 C974 0.961 . S
H988 C974 0.961 . S
H989 C975 0.958 . S
H990 C975 0.961 . S
H991 C975 0.960 . S
C992 C993 1.391 . S
C992 C994 1.394 . S
C992 H1008 0.931 . S
C993 C992 1.391 . S
C993 C997 1.376 . S
C994 C992 1.394 . S
C994 C995 1.369 . S
C994 C998 1.531 . S
C995 C994 1.369 . S
C995 C996 1.410 . S
C995 C1003 1.503 . S
C996 C995 1.410 . S
C996 C997 1.392 . S
C996 C999 1.511 . S
C997 C993 1.376 . S
C997 C996 1.392 . S
C997 H1009 0.929 . S
C998 C994 1.531 . S
C998 H1010 0.960 . S
C998 H1011 0.962 . S
C998 H1012 0.960 . S
C999 C996 1.511 . S
C999 H1013 0.961 . S
C999 H1014 0.961 . S
C999 H1015 0.961 . S
C1000 C1001 1.370 . S
C1000 C1002 1.363 . S
C1000 H1016 0.931 . S
C1001 C1000 1.370 . S
C1001 C1005 1.408 . S
C1002 C1000 1.363 . S
C1002 C1003 1.370 . S
C1002 C1006 1.524 . S
C1003 C995 1.503 . S
C1003 C1002 1.370 . S
C1003 C1004 1.403 . S
C1004 C1003 1.403 . S
C1004 C1005 1.404 . S
C1004 C1007 1.539 . S
C1005 C1001 1.408 . S
C1005 C1004 1.404 . S
C1005 H1017 0.930 . S
C1006 C1002 1.524 . S
C1006 H1018 0.956 . S
C1006 H1019 0.961 . S
C1006 H1020 0.961 . S
C1007 C1004 1.539 . S
C1007 H1021 0.958 . S
C1007 H1022 0.961 . S
C1007 H1023 0.960 . S
H1008 C992 0.931 . S
H1009 C997 0.929 . S
H1010 C998 0.960 . S
H1011 C998 0.962 . S
H1012 C998 0.960 . S
H1013 C999 0.961 . S
H1014 C999 0.961 . S
H1015 C999 0.961 . S
H1016 C1000 0.931 . S
H1017 C1005 0.930 . S
H1018 C1006 0.956 . S
H1019 C1006 0.961 . S
H1020 C1006 0.961 . S
H1021 C1007 0.958 . S
H1022 C1007 0.961 . S
H1023 C1007 0.960 . S
C1024 C1025 1.391 . S
C1024 C1026 1.394 . S
C1024 H1040 0.931 . S
C1025 C1024 1.391 . S
C1025 C1029 1.376 . S
C1026 C1024 1.394 . S
C1026 C1027 1.369 . S
C1026 C1030 1.531 . S
C1027 C1026 1.369 . S
C1027 C1028 1.410 . S
C1027 C1035 1.503 . S
C1028 C1027 1.410 . S
C1028 C1029 1.392 . S
C1028 C1031 1.511 . S
C1029 C1025 1.376 . S
C1029 C1028 1.392 . S
C1029 H1041 0.929 . S
C1030 C1026 1.531 . S
C1030 H1042 0.960 . S
C1030 H1043 0.962 . S
C1030 H1044 0.960 . S
C1031 C1028 1.511 . S
C1031 H1045 0.961 . S
C1031 H1046 0.961 . S
C1031 H1047 0.961 . S
C1032 C1033 1.370 . S
C1032 C1034 1.363 . S
C1032 H1048 0.931 . S
C1033 C1032 1.370 . S
C1033 C1037 1.408 . S
C1034 C1032 1.363 . S
C1034 C1035 1.370 . S
C1034 C1038 1.524 . S
C1035 C1027 1.503 . S
C1035 C1034 1.370 . S
C1035 C1036 1.403 . S
C1036 C1035 1.403 . S
C1036 C1037 1.404 . S
C1036 C1039 1.539 . S
C1037 C1033 1.408 . S
C1037 C1036 1.404 . S
C1037 H1049 0.930 . S
C1038 C1034 1.524 . S
C1038 H1050 0.956 . S
C1038 H1051 0.961 . S
C1038 H1052 0.961 . S
C1039 C1036 1.539 . S
C1039 H1053 0.958 . S
C1039 H1054 0.961 . S
C1039 H1055 0.960 . S
H1040 C1024 0.931 . S
H1041 C1029 0.929 . S
H1042 C1030 0.960 . S
H1043 C1030 0.962 . S
H1044 C1030 0.960 . S
H1045 C1031 0.961 . S
H1046 C1031 0.961 . S
H1047 C1031 0.961 . S
H1048 C1032 0.931 . S
H1049 C1037 0.930 . S
H1050 C1038 0.956 . S
H1051 C1038 0.961 . S
H1052 C1038 0.961 . S
H1053 C1039 0.958 . S
H1054 C1039 0.961 . S
H1055 C1039 0.960 . S
C1056 C1057 1.391 . S
C1056 C1058 1.394 . S
C1056 H1072 0.931 . S
C1057 C1056 1.391 . S
C1057 C1061 1.376 . S
C1058 C1056 1.394 . S
C1058 C1059 1.369 . S
C1058 C1062 1.531 . S
C1059 C1058 1.369 . S
C1059 C1060 1.410 . S
C1059 C1067 1.503 . S
C1060 C1059 1.410 . S
C1060 C1061 1.392 . S
C1060 C1063 1.511 . S
C1061 C1057 1.376 . S
C1061 C1060 1.392 . S
C1061 H1073 0.929 . S
C1062 C1058 1.531 . S
C1062 H1074 0.960 . S
C1062 H1075 0.962 . S
C1062 H1076 0.960 . S
C1063 C1060 1.511 . S
C1063 H1077 0.961 . S
C1063 H1078 0.961 . S
C1063 H1079 0.961 . S
C1064 C1065 1.370 . S
C1064 C1066 1.363 . S
C1064 H1080 0.931 . S
C1065 C1064 1.370 . S
C1065 C1069 1.408 . S
C1066 C1064 1.363 . S
C1066 C1067 1.370 . S
C1066 C1070 1.524 . S
C1067 C1059 1.503 . S
C1067 C1066 1.370 . S
C1067 C1068 1.403 . S
C1068 C1067 1.403 . S
C1068 C1069 1.404 . S
C1068 C1071 1.539 . S
C1069 C1065 1.408 . S
C1069 C1068 1.404 . S
C1069 H1081 0.930 . S
C1070 C1066 1.524 . S
C1070 H1082 0.956 . S
C1070 H1083 0.961 . S
C1070 H1084 0.961 . S
C1071 C1068 1.539 . S
C1071 H1085 0.958 . S
C1071 H1086 0.961 . S
C1071 H1087 0.960 . S
H1072 C1056 0.931 . S
H1073 C1061 0.929 . S
H1074 C1062 0.960 . S
H1075 C1062 0.962 . S
H1076 C1062 0.960 . S
H1077 C1063 0.961 . S
H1078 C1063 0.961 . S
H1079 C1063 0.961 . S
H1080 C1064 0.931 . S
H1081 C1069 0.930 . S
H1082 C1070 0.956 . S
H1083 C1070 0.961 . S
H1084 C1070 0.961 . S
H1085 C1071 0.958 . S
H1086 C1071 0.961 . S
H1087 C1071 0.960 . S
C1088 C1089 1.391 . S
C1088 C1090 1.394 . S
C1088 H1104 0.931 . S
C1089 C1088 1.391 . S
C1089 C1093 1.376 . S
C1090 C1088 1.394 . S
C1090 C1091 1.369 . S
C1090 C1094 1.531 . S
C1091 C1090 1.369 . S
C1091 C1092 1.410 . S
C1091 C1099 1.503 . S
C1092 C1091 1.410 . S
C1092 C1093 1.392 . S
C1092 C1095 1.511 . S
C1093 C1089 1.376 . S
C1093 C1092 1.392 . S
C1093 H1105 0.929 . S
C1094 C1090 1.531 . S
C1094 H1106 0.960 . S
C1094 H1107 0.962 . S
C1094 H1108 0.960 . S
C1095 C1092 1.511 . S
C1095 H1109 0.961 . S
C1095 H1110 0.961 . S
C1095 H1111 0.961 . S
C1096 C1097 1.370 . S
C1096 C1098 1.363 . S
C1096 H1112 0.931 . S
C1097 C1096 1.370 . S
C1097 C1101 1.408 . S
C1098 C1096 1.363 . S
C1098 C1099 1.370 . S
C1098 C1102 1.524 . S
C1099 C1091 1.503 . S
C1099 C1098 1.370 . S
C1099 C1100 1.403 . S
C1100 C1099 1.403 . S
C1100 C1101 1.404 . S
C1100 C1103 1.539 . S
C1101 C1097 1.408 . S
C1101 C1100 1.404 . S
C1101 H1113 0.930 . S
C1102 C1098 1.524 . S
C1102 H1114 0.956 . S
C1102 H1115 0.961 . S
C1102 H1116 0.961 . S
C1103 C1100 1.539 . S
C1103 H1117 0.958 . S
C1103 H1118 0.961 . S
C1103 H1119 0.960 . S
H1104 C1088 0.931 . S
H1105 C1093 0.929 . S
H1106 C1094 0.960 . S
H1107 C1094 0.962 . S
H1108 C1094 0.960 . S
H1109 C1095 0.961 . S
H1110 C1095 0.961 . S
H1111 C1095 0.961 . S
H1112 C1096 0.931 . S
H1113 C1101 0.930 . S
H1114 C1102 0.956 . S
H1115 C1102 0.961 . S
H1116 C1102 0.961 . S
H1117 C1103 0.958 . S
H1118 C1103 0.961 . S
H1119 C1103 0.960 . S
C1120 C1121 1.391 . S
C1120 C1122 1.394 . S
C1120 H1136 0.931 . S
C1121 C1120 1.391 . S
C1121 C1125 1.376 . S
C1122 C1120 1.394 . S
C1122 C1123 1.369 . S
C1122 C1126 1.531 . S
C1123 C1122 1.369 . S
C1123 C1124 1.410 . S
C1123 C1131 1.503 . S
C1124 C1123 1.410 . S
C1124 C1125 1.392 . S
C1124 C1127 1.511 . S
C1125 C1121 1.376 . S
C1125 C1124 1.392 . S
C1125 H1137 0.929 . S
C1126 C1122 1.531 . S
C1126 H1138 0.960 . S
C1126 H1139 0.962 . S
C1126 H1140 0.960 . S
C1127 C1124 1.511 . S
C1127 H1141 0.961 . S
C1127 H1142 0.961 . S
C1127 H1143 0.961 . S
C1128 C1129 1.370 . S
C1128 C1130 1.363 . S
C1128 H1144 0.931 . S
C1129 C1128 1.370 . S
C1129 C1133 1.408 . S
C1130 C1128 1.363 . S
C1130 C1131 1.370 . S
C1130 C1134 1.524 . S
C1131 C1123 1.503 . S
C1131 C1130 1.370 . S
C1131 C1132 1.403 . S
C1132 C1131 1.403 . S
C1132 C1133 1.404 . S
C1132 C1135 1.539 . S
C1133 C1129 1.408 . S
C1133 C1132 1.404 . S
C1133 H1145 0.930 . S
C1134 C1130 1.524 . S
C1134 H1146 0.956 . S
C1134 H1147 0.961 . S
C1134 H1148 0.961 . S
C1135 C1132 1.539 . S
C1135 H1149 0.958 . S
C1135 H1150 0.961 . S
C1135 H1151 0.960 . S
H1136 C1120 0.931 . S
H1137 C1125 0.929 . S
H1138 C1126 0.960 . S
H1139 C1126 0.962 . S
H1140 C1126 0.960 . S
H1141 C1127 0.961 . S
H1142 C1127 0.961 . S
H1143 C1127 0.961 . S
H1144 C1128 0.931 . S
H1145 C1133 0.930 . S
H1146 C1134 0.956 . S
H1147 C1134 0.961 . S
H1148 C1134 0.961 . S
H1149 C1135 0.958 . S
H1150 C1135 0.961 . S
H1151 C1135 0.960 . S
C1152 C1153 1.391 . S
C1152 C1154 1.394 . S
C1152 H1168 0.931 . S
C1153 C1152 1.391 . S
C1153 C1157 1.376 . S
C1154 C1152 1.394 . S
C1154 C1155 1.369 . S
C1154 C1158 1.531 . S
C1155 C1154 1.369 . S
C1155 C1156 1.410 . S
C1155 C1163 1.503 . S
C1156 C1155 1.410 . S
C1156 C1157 1.392 . S
C1156 C1159 1.511 . S
C1157 C1153 1.376 . S
C1157 C1156 1.392 . S
C1157 H1169 0.929 . S
C1158 C1154 1.531 . S
C1158 H1170 0.960 . S
C1158 H1171 0.962 . S
C1158 H1172 0.960 . S
C1159 C1156 1.511 . S
C1159 H1173 0.961 . S
C1159 H1174 0.961 . S
C1159 H1175 0.961 . S
C1160 C1161 1.370 . S
C1160 C1162 1.363 . S
C1160 H1176 0.931 . S
C1161 C1160 1.370 . S
C1161 C1165 1.408 . S
C1162 C1160 1.363 . S
C1162 C1163 1.370 . S
C1162 C1166 1.524 . S
C1163 C1155 1.503 . S
C1163 C1162 1.370 . S
C1163 C1164 1.403 . S
C1164 C1163 1.403 . S
C1164 C1165 1.404 . S
C1164 C1167 1.539 . S
C1165 C1161 1.408 . S
C1165 C1164 1.404 . S
C1165 H1177 0.930 . S
C1166 C1162 1.524 . S
C1166 H1178 0.956 . S
C1166 H1179 0.961 . S
C1166 H1180 0.961 . S
C1167 C1164 1.539 . S
C1167 H1181 0.958 . S
C1167 H1182 0.961 . S
C1167 H1183 0.960 . S
H1168 C1152 0.931 . S
H1169 C1157 0.929 . S
H1170 C1158 0.960 . S
H1171 C1158 0.962 . S
H1172 C1158 0.960 . S
H1173 C1159 0.961 . S
H1174 C1159 0.961 . S
H1175 C1159 0.961 . S
H1176 C1160 0.931 . S
H1177 C1165 0.930 . S
H1178 C1166 0.956 . S
H1179 C1166 0.961 . S
H1180 C1166 0.961 . S
H1181 C1167 0.958 . S
H1182 C1167 0.961 . S
H1183 C1167 0.960 . S
C417 C29 1.222 . S
C425 C262 1.202 . S
C449 C49 0.939 . S
C457 C311 0.907 . S
C489 C346 2.511 . S
C481 C93 2.496 . S
C513 C119 2.298 . S
C521 C385 2.294 . S
C553 C306 2.303 . S
C545 C17 2.280 . S
C585 C265 0.832 . S
C577 C61 0.878 . S
C617 C395 1.885 . S
C609 C81 1.906 . S
C649 C354 1.670 . S
C641 C125 1.629 . S
C673 C23 1.583 . S
C681 C382 1.607 . S
C713 C314 2.299 . S
C705 C87 2.323 . S
C737 C113 2.334 . S
C745 C275 2.367 . S
C769 C55 0.776 . S
C777 C351 0.852 . S
C809 C271 1.184 . S
C801 C157 1.130 . S
C833 C189 1.002 . S
C841 C302 0.962 . S
C865 C221 2.477 . S
C873 C355 2.471 . S
C897 C253 2.354 . S
C905 C394 2.388 . S
C929 C145 2.102 . S
C937 C315 2.385 . S
C969 C274 0.828 . S
C961 C183 0.765 . S
C1001 C386 1.940 . S
C993 C209 1.909 . S
C1033 C345 1.621 . S
C1025 C247 1.585 . S
C1057 C151 1.424 . S
C1065 C391 1.620 . S
C1097 C305 2.287 . S
C1089 C215 2.346 . S
C1129 C266 2.324 . S
C1121 C241 2.278 . S
C1153 C177 0.790 . S
C1161 C342 0.832 . S
