# Generated by pormake.
# Topology zzz, (3,6)-cn, num edge types: 1
# Building blocks:
#     Node 0, Type 0, BuildingBlock: KAKCAD_clean_linker_0, # of connection points: 3
#     Node 1, Type 0, BuildingBlock: KAKCAD_clean_linker_0, # of connection points: 3
#     Node 2, Type 0, BuildingBlock: KAKCAD_clean_linker_0, # of connection points: 3
#     Node 3, Type 0, BuildingBlock: KAKCAD_clean_linker_0, # of connection points: 3
#     Node 4, Type 0, BuildingBlock: KAKCAD_clean_linker_0, # of connection points: 3
#     Node 5, Type 0, BuildingBlock: KAKCAD_clean_linker_0, # of connection points: 3
#     Node 6, Type 0, BuildingBlock: KAKCAD_clean_linker_0, # of connection points: 3
#     Node 7, Type 0, BuildingBlock: KAKCAD_clean_linker_0, # of connection points: 3
#     Node 8, Type 1, BuildingBlock: KUMBOL_clean_sbu_0, # of connection points: 6
#     Node 9, Type 1, BuildingBlock: KUMBOL_clean_sbu_0, # of connection points: 6
#     Node 10, Type 1, BuildingBlock: KUMBOL_clean_sbu_0, # of connection points: 6
#     Node 11, Type 1, BuildingBlock: KUMBOL_clean_sbu_0, # of connection points: 6
#     Edge 12, Type (0, 1), BuildingBlock: XIVTED_clean_linker_0, # of connection points: 2
#     Edge 13, Type (0, 1), BuildingBlock: XIVTED_clean_linker_0, # of connection points: 2
#     Edge 14, Type (0, 1), BuildingBlock: XIVTED_clean_linker_0, # of connection points: 2
#     Edge 15, Type (0, 1), BuildingBlock: XIVTED_clean_linker_0, # of connection points: 2
#     Edge 16, Type (0, 1), BuildingBlock: XIVTED_clean_linker_0, # of connection points: 2
#     Edge 17, Type (0, 1), BuildingBlock: XIVTED_clean_linker_0, # of connection points: 2
#     Edge 18, Type (0, 1), BuildingBlock: XIVTED_clean_linker_0, # of connection points: 2
#     Edge 19, Type (0, 1), BuildingBlock: XIVTED_clean_linker_0, # of connection points: 2
#     Edge 20, Type (0, 1), BuildingBlock: XIVTED_clean_linker_0, # of connection points: 2
#     Edge 21, Type (0, 1), BuildingBlock: XIVTED_clean_linker_0, # of connection points: 2
#     Edge 22, Type (0, 1), BuildingBlock: XIVTED_clean_linker_0, # of connection points: 2
#     Edge 23, Type (0, 1), BuildingBlock: XIVTED_clean_linker_0, # of connection points: 2
#     Edge 24, Type (0, 1), BuildingBlock: XIVTED_clean_linker_0, # of connection points: 2
#     Edge 25, Type (0, 1), BuildingBlock: XIVTED_clean_linker_0, # of connection points: 2
#     Edge 26, Type (0, 1), BuildingBlock: XIVTED_clean_linker_0, # of connection points: 2
#     Edge 27, Type (0, 1), BuildingBlock: XIVTED_clean_linker_0, # of connection points: 2
#     Edge 28, Type (0, 1), BuildingBlock: XIVTED_clean_linker_0, # of connection points: 2
#     Edge 29, Type (0, 1), BuildingBlock: XIVTED_clean_linker_0, # of connection points: 2
#     Edge 30, Type (0, 1), BuildingBlock: XIVTED_clean_linker_0, # of connection points: 2
#     Edge 31, Type (0, 1), BuildingBlock: XIVTED_clean_linker_0, # of connection points: 2
#     Edge 32, Type (0, 1), BuildingBlock: XIVTED_clean_linker_0, # of connection points: 2
#     Edge 33, Type (0, 1), BuildingBlock: XIVTED_clean_linker_0, # of connection points: 2
#     Edge 34, Type (0, 1), BuildingBlock: XIVTED_clean_linker_0, # of connection points: 2
#     Edge 35, Type (0, 1), BuildingBlock: XIVTED_clean_linker_0, # of connection points: 2
# Relax obj value: 0.295
# Max RMSD: 0.225
# Mean RMSD: 0.211
data_MOF--net-zzz--node1-KUMBOL_clean_sbu_0--node2-KAKCAD_clean_linker_0--edge1-XIVTED_clean_linker_0
_symmetry_space_group_name_H-M    P1
_symmetry_Int_Tables_number       1
_symmetry_cell_setting            triclinic
loop_
_symmetry_equiv_pos_as_xyz
'x, y, z'
_cell_length_a     57.554751
_cell_length_b     57.472473
_cell_length_c     19.967048
_cell_angle_alpha  90.923638
_cell_angle_beta   90.036287
_cell_angle_gamma 89.909855
loop_
_atom_site_label
_atom_site_type_symbol
_atom_site_fract_x
_atom_site_fract_y
_atom_site_fract_z
_atom_type_partial_charge
C0 C 0.79397 0.60545 0.94996 0.0
C1 C 0.81716 0.59798 0.9497 0.0
C2 C 0.77846 0.59699 0.99809 0.0
C3 C 0.78588 0.58053 0.04537 0.0
C4 C 0.8092 0.57317 0.04386 0.0
C5 C 0.82462 0.58198 0.99729 0.0
C6 C 0.76954 0.56991 0.09419 0.0
C7 C 0.74643 0.56498 0.07666 0.0
C8 C 0.73187 0.55228 0.11933 0.0
C9 C 0.74104 0.54375 0.18014 0.0
C10 C 0.76411 0.54918 0.199 0.0
C11 C 0.77773 0.56274 0.15677 0.0
C12 C 0.77573 0.54006 0.25975 0.0
C13 C 0.77823 0.55445 0.3168 0.0
C14 C 0.79 0.5203 0.25348 0.0
C15 C 0.8073 0.51575 0.30113 0.0
C16 C 0.81088 0.53092 0.35642 0.0
C17 C 0.70751 0.54776 0.09688 0.0
C18 C 0.6937 0.56642 0.07532 0.0
C19 C 0.69905 0.52501 0.08776 0.0
C20 C 0.67782 0.52101 0.05447 0.0
C21 C 0.66451 0.53969 0.02985 0.0
C22 C 0.6725 0.56247 0.0427 0.0
C23 C 0.79543 0.54985 0.3648 0.0
H24 H 0.78788 0.6176 0.91291 0.0
H25 H 0.7607 0.60321 0.99785 0.0
H26 H 0.81556 0.55993 0.07722 0.0
H27 H 0.84235 0.57556 0.99676 0.0
H28 H 0.73989 0.57013 0.02818 0.0
H29 H 0.79528 0.56705 0.17233 0.0
H30 H 0.73035 0.53324 0.21244 0.0
H31 H 0.76788 0.57014 0.32201 0.0
H32 H 0.78898 0.50935 0.20889 0.0
H33 H 0.81886 0.50118 0.2919 0.0
H34 H 0.69971 0.58417 0.08191 0.0
H35 H 0.70943 0.51028 0.10305 0.0
H36 H 0.79719 0.56172 0.40713 0.0
H37 H 0.66258 0.57737 0.02646 0.0
H38 H 0.67242 0.5032 0.04538 0.0
C39 C 0.91053 0.80141 0.94158 0.0
C40 C 0.91667 0.82504 0.94095 0.0
C41 C 0.91906 0.78689 0.99184 0.0
C42 C 0.93445 0.79561 0.04122 0.0
C43 C 0.93964 0.81955 0.04149 0.0
C44 C 0.93066 0.83403 0.99275 0.0
C45 C 0.94696 0.77993 0.08831 0.0
C46 C 0.95346 0.75727 0.06853 0.0
C47 C 0.96831 0.74368 0.10817 0.0
C48 C 0.97777 0.75364 0.16769 0.0
C49 C 0.97076 0.7762 0.18914 0.0
C50 C 0.95478 0.78855 0.15049 0.0
C51 C 0.98086 0.78892 0.2479 0.0
C52 C 0.96682 0.79409 0.30379 0.0
C53 C 1.00148 0.80161 0.2398 0.0
C54 C 1.00724 0.81991 0.28426 0.0
C55 C 0.99254 0.82608 0.33836 0.0
C56 C 0.97369 0.71945 0.08399 0.0
C57 C 0.95535 0.7047 0.06419 0.0
C58 C 0.99659 0.71196 0.07166 0.0
C59 C 1.00091 0.69078 0.03715 0.0
C60 C 0.98242 0.67657 0.01429 0.0
C61 C 0.95962 0.68362 0.0302 0.0
C62 C 0.97268 0.81223 0.34873 0.0
H63 H 0.89985 0.79402 0.90197 0.0
H64 H 0.91419 0.76871 0.99049 0.0
H65 H 0.95188 0.82711 0.0767 0.0
H66 H 0.93628 0.85202 0.9928 0.0
H67 H 0.94784 0.75035 0.02044 0.0
H68 H 0.94932 0.80564 0.16802 0.0
H69 H 0.99007 0.7439 0.1973 0.0
H70 H 0.95052 0.78502 0.31039 0.0
H71 H 0.01222 0.79858 0.19596 0.0
H72 H 0.02251 0.83013 0.27337 0.0
H73 H 0.9375 0.70987 0.07329 0.0
H74 H 0.01109 0.72302 0.08554 0.0
H75 H 0.9611 0.81588 0.3903 0.0
H76 H 0.9449 0.67301 0.01544 0.0
H77 H 0.01872 0.68607 0.02586 0.0
C78 C 0.72327 0.90962 0.95598 0.0
C79 C 0.69953 0.91529 0.95609 0.0
C80 C 0.73743 0.91626 1.01008 0.0
C81 C 0.72824 0.92931 0.06436 0.0
C82 C 0.70409 0.93319 0.06633 0.0
C83 C 0.68994 0.92606 0.01334 0.0
C84 C 0.74369 0.94176 0.1133 0.0
C85 C 0.76502 0.9509 0.09221 0.0
C86 C 0.77784 0.96634 0.13299 0.0
C87 C 0.76873 0.97333 0.19595 0.0
C88 C 0.7474 0.96403 0.21833 0.0
C89 C 0.7357 0.94764 0.17785 0.0
C90 C 0.73483 0.97309 0.27854 0.0
C91 C 0.72782 0.95772 0.3287 0.0
C92 C 0.72493 0.99542 0.27771 0.0
C93 C 0.70729 1.00169 0.32315 0.0
C94 C 0.6992 0.98585 0.37118 0.0
C95 C 0.79992 0.97564 0.10522 0.0
C96 C 0.82154 0.96882 0.13121 0.0
C97 C 0.79941 0.98736 0.044 0.0
C98 C 0.81981 0.9909 1.00747 0.0
C99 C 0.84134 0.98272 0.03091 0.0
C100 C 0.84208 0.97239 0.0945 0.0
C101 C 0.71045 0.96408 0.3748 0.0
H102 H 0.73109 0.90121 0.91257 0.0
H103 H 0.7558 0.91226 1.00748 0.0
H104 H 0.69612 0.94345 0.106 0.0
H105 H 0.67179 0.93107 0.01468 0.0
H106 H 0.77141 0.9469 0.04231 0.0
H107 H 0.71939 0.94061 0.19541 0.0
H108 H 0.77779 0.98621 0.22628 0.0
H109 H 0.73494 0.94027 0.32995 0.0
H110 H 0.72953 1.0074 0.23855 0.0
H111 H 0.69908 0.0185 0.3176 0.0
H112 H 0.82238 0.95939 0.17768 0.0
H113 H 0.78297 0.99269 0.02261 0.0
H114 H 0.70534 0.95154 0.41183 0.0
H115 H 0.85831 0.96582 0.11415 0.0
H116 H 0.81858 0.9994 0.95958 0.0
C117 C 0.52884 0.72215 0.33381 0.0
C118 C 0.54469 0.70848 0.37022 0.0
C119 C 0.53671 0.73806 0.28609 0.0
C120 C 0.56059 0.74058 0.2736 0.0
C121 C 0.5764 0.72808 0.31295 0.0
C122 C 0.5686 0.71227 0.3604 0.0
C123 C 0.56911 0.75252 0.21258 0.0
C124 C 0.56273 0.77551 0.19618 0.0
C125 C 0.57112 0.78555 0.13662 0.0
C126 C 0.58483 0.77204 0.09253 0.0
C127 C 0.59052 0.749 0.1072 0.0
C128 C 0.58307 0.73963 0.16778 0.0
C129 C 0.60104 0.73338 0.05582 0.0
C130 C 0.59066 0.73143 0.99241 0.0
C131 C 0.61859 0.71756 0.07313 0.0
C132 C 0.62388 0.6987 0.03067 0.0
C133 C 0.61132 0.69504 0.97086 0.0
C134 C 0.565 0.80961 0.11644 0.0
C135 C 0.54175 0.81606 0.10614 0.0
C136 C 0.58267 0.82495 0.09686 0.0
C137 C 0.5773 0.84567 0.06436 0.0
C138 C 0.55412 0.85147 0.04988 0.0
C139 C 0.53636 0.83672 0.07286 0.0
C140 C 0.59567 0.71243 0.95046 0.0
H141 H 0.51031 0.72006 0.34066 0.0
H142 H 0.52411 0.7473 0.25617 0.0
H143 H 0.59492 0.72961 0.30436 0.0
H144 H 0.58145 0.70204 0.3865 0.0
H145 H 0.55169 0.78557 0.22974 0.0
H146 H 0.58689 0.72156 0.17823 0.0
H147 H 0.5904 0.77922 0.04528 0.0
H148 H 0.57702 0.74333 0.97785 0.0
H149 H 0.62711 0.71893 0.12142 0.0
H150 H 0.63656 0.68609 0.04716 0.0
H151 H 0.52781 0.80446 0.12012 0.0
H152 H 0.60076 0.82034 0.10394 0.0
H153 H 0.58547 0.71035 0.90521 0.0
H154 H 0.5183 0.8408 0.0632 0.0
H155 H 0.59143 0.85645 0.04709 0.0
C156 C 0.21886 0.44038 0.32743 0.0
C157 C 0.20432 0.42172 0.30802 0.0
C158 C 0.23645 0.44803 0.2851 0.0
C159 C 0.23971 0.43743 0.22215 0.0
C160 C 0.22691 0.41742 0.20531 0.0
C161 C 0.20963 0.40939 0.24835 0.0
C162 C 0.25359 0.44947 0.171 0.0
C163 C 0.27632 0.45661 0.18454 0.0
C164 C 0.28851 0.47062 0.13952 0.0
C165 C 0.27724 0.4781 0.08037 0.0
C166 C 0.25435 0.47045 0.06549 0.0
C167 C 0.24295 0.45609 0.11126 0.0
C168 C 0.24113 0.47732 1.00433 0.0
C169 C 0.23642 0.50077 0.9906 0.0
C170 C 0.22949 0.46008 0.96645 0.0
C171 C 0.21256 0.46597 0.91929 0.0
C172 C 0.20669 0.48938 0.90796 0.0
C173 C 0.31291 0.47686 0.15729 0.0
C174 C 0.31903 0.49981 0.17497 0.0
C175 C 0.329 0.45897 0.16925 0.0
C176 C 0.35017 0.46364 0.20127 0.0
C177 C 0.35584 0.48635 0.22297 0.0
C178 C 0.34029 0.50452 0.20743 0.0
C179 C 0.2194 0.50674 0.94302 0.0
H180 H 0.21547 0.45059 0.37237 0.0
H181 H 0.24609 0.46355 0.2991 0.0
H182 H 0.22941 0.40876 0.15725 0.0
H183 H 0.19942 0.39448 0.23256 0.0
H184 H 0.28448 0.4515 0.23106 0.0
H185 H 0.22509 0.45094 0.10189 0.0
H186 H 0.28633 0.48919 0.04576 0.0
H187 H 0.2449 0.51446 0.01935 0.0
H188 H 0.23262 0.44183 0.976 0.0
H189 H 0.20319 0.45197 0.89451 0.0
H190 H 0.3068 0.51387 0.1675 0.0
H191 H 0.32469 0.4411 0.15647 0.0
H192 H 0.2158 0.52498 0.9351 0.0
H193 H 0.34393 0.52222 0.2235 0.0
H194 H 0.36183 0.44925 0.21063 0.0
C195 C 0.10098 0.22052 0.29925 0.0
C196 C 0.11413 0.2029 0.26739 0.0
C197 C 0.09056 0.23801 0.26205 0.0
C198 C 0.09316 0.23842 0.19211 0.0
C199 C 0.10869 0.22258 0.16147 0.0
C200 C 0.11903 0.20493 0.19875 0.0
C201 C 0.07667 0.25233 0.15136 0.0
C202 C 0.06877 0.27414 0.17413 0.0
C203 C 0.04957 0.28517 0.14441 0.0
C204 C 0.03874 0.27426 0.0882 0.0
C205 C 0.04717 0.25258 0.06331 0.0
C206 C 0.06605 0.24204 0.09516 0.0
C207 C 0.03581 0.23874 1.00865 0.0
C208 C 0.01706 0.22412 0.02377 0.0
C209 C 0.04768 0.23494 0.94793 0.0
C210 C 0.04167 0.21633 0.90484 0.0
C211 C 0.02384 0.20068 0.92175 0.0
C212 C 0.04078 0.30726 0.1767 0.0
C213 C 0.03865 0.30861 0.24695 0.0
C214 C 0.03715 0.32767 0.14012 0.0
C215 C 0.03281 0.34909 0.17348 0.0
C216 C 0.03209 0.35056 0.24415 0.0
C217 C 0.03447 0.32985 0.28005 0.0
C218 C 0.01113 0.20537 0.98098 0.0
H219 H 0.09661 0.21952 0.35186 0.0
H220 H 0.07868 0.24978 0.28758 0.0
H221 H 0.11158 0.22281 0.10789 0.0
H222 H 0.12944 0.19189 0.17294 0.0
H223 H 0.07725 0.28232 0.21689 0.0
H224 H 0.07144 0.22481 0.0784 0.0
H225 H 0.02364 0.28215 0.06541 0.0
H226 H 0.00811 0.22611 0.07124 0.0
H227 H 0.06259 0.24555 0.93574 0.0
H228 H 0.0516 0.21381 0.85928 0.0
H229 H 0.04092 0.29319 0.2768 0.0
H230 H 0.03876 0.3273 0.08608 0.0
H231 H 0.99749 0.19375 0.99673 0.0
H232 H 0.03339 0.33006 0.33421 0.0
H233 H 0.03102 0.36465 0.14404 0.0
C234 C 0.29935 0.10415 0.32977 0.0
C235 C 0.31751 0.11939 0.3134 0.0
C236 C 0.28401 0.09609 0.28072 0.0
C237 C 0.28632 0.10312 0.21399 0.0
C238 C 0.30286 0.12025 0.19896 0.0
C239 C 0.3183 0.12834 0.24825 0.0
C240 C 0.27387 0.09006 0.15998 0.0
C241 C 0.2513 0.08188 0.17048 0.0
C242 C 0.24117 0.06547 0.12684 0.0
C243 C 0.25361 0.0577 0.06954 0.0
C244 C 0.27607 0.06669 0.05633 0.0
C245 C 0.28587 0.08273 0.10226 0.0
C246 C 0.29084 0.05859 0.99869 0.0
C247 C 0.29478 0.03481 0.98563 0.0
C248 C 0.30403 0.07488 0.96303 0.0
C249 C 0.32172 0.0677 0.91918 0.0
C250 C 0.32676 0.04393 0.90896 0.0
C251 C 0.21853 0.05556 0.14789 0.0
C252 C 0.21814 0.04077 0.20323 0.0
C253 C 0.19752 0.06542 0.12622 0.0
C254 C 0.17675 0.06151 0.16147 0.0
C255 C 0.17672 0.04802 0.21979 0.0
C256 C 0.19754 0.03705 0.23871 0.0
C257 C 0.3125 0.02756 0.94133 0.0
H258 H 0.29823 0.09656 0.37894 0.0
H259 H 0.27166 0.08276 0.29428 0.0
H260 H 0.30473 0.12642 0.14828 0.0
H261 H 0.33181 0.14042 0.23423 0.0
H262 H 0.24184 0.08751 0.21485 0.0
H263 H 0.30367 0.08831 0.09525 0.0
H264 H 0.24606 0.04469 0.0363 0.0
H265 H 0.28506 0.02179 0.0124 0.0
H266 H 0.3014 0.09336 0.97155 0.0
H267 H 0.33221 0.08096 0.8961 0.0
H268 H 0.23417 0.03337 0.22188 0.0
H269 H 0.19746 0.07741 0.08491 0.0
H270 H 0.31539 0.00909 0.93389 0.0
H271 H 0.1981 0.0263 0.28274 0.0
H272 H 0.16107 0.0703 0.14566 0.0
C273 C 0.45722 0.30639 0.87023 0.0
C274 C 0.48074 0.31282 0.86448 0.0
C275 C 0.45013 0.29049 0.91844 0.0
C276 C 0.46624 0.28072 0.96294 0.0
C277 C 0.48995 0.2854 0.95342 0.0
C278 C 0.49713 0.30121 0.90466 0.0
C279 C 0.45798 0.27094 0.0275 0.0
C280 C 0.46724 0.25046 0.05532 0.0
C281 C 0.46144 0.24425 0.12148 0.0
C282 C 0.44718 0.25924 0.15999 0.0
C283 C 0.43811 0.27983 0.13342 0.0
C284 C 0.44261 0.28463 0.06596 0.0
C285 C 0.42691 0.29786 0.17786 0.0
C286 C 0.41505 0.29194 0.23709 0.0
C287 C 0.43028 0.32162 0.16466 0.0
C288 C 0.42306 0.33873 0.20995 0.0
C289 C 0.41285 0.33277 0.27106 0.0
C290 C 0.4708 0.22287 0.15336 0.0
C291 C 0.46821 0.20078 0.12303 0.0
C292 C 0.48003 0.22429 0.21849 0.0
C293 C 0.48537 0.2042 0.25385 0.0
C294 C 0.48187 0.18196 0.22508 0.0
C295 C 0.47362 0.18052 0.15858 0.0
C296 C 0.40846 0.30923 0.28381 0.0
H297 H 0.44392 0.31483 0.84094 0.0
H298 H 0.43171 0.28722 0.92445 0.0
H299 H 0.50281 0.27829 0.9871 0.0
H300 H 0.51546 0.30512 0.9007 0.0
H301 H 0.47925 0.2398 0.02643 0.0
H302 H 0.43535 0.30015 0.04413 0.0
H303 H 0.44386 0.25511 0.21178 0.0
H304 H 0.4116 0.27396 0.24876 0.0
H305 H 0.43994 0.3273 0.12149 0.0
H306 H 0.42731 0.35666 0.19934 0.0
H307 H 0.46105 0.19912 0.073 0.0
H308 H 0.48242 0.24104 0.24315 0.0
H309 H 0.40074 0.30418 0.33084 0.0
H310 H 0.47101 0.16376 0.13427 0.0
H311 H 0.49137 0.20623 0.305 0.0
Gd312 Gd 0.98673 0.01816 0.56398 0.0
Gd313 Gd 0.03299 0.00952 0.68844 0.0
C314 C 0.06257 0.06762 0.82301 0.0
C315 C 0.10183 0.07144 0.77998 0.0
C316 C 0.07554 0.04256 0.73194 0.0
C317 C 0.05824 0.0497 0.77543 0.0
C318 C 0.09772 0.05295 0.7347 0.0
C319 C 0.08426 0.07878 0.82403 0.0
C320 C 0.04515 0.07345 0.86909 0.0
C321 C 0.02435 0.06107 0.86822 0.0
N322 N 0.03749 0.0385 0.77306 0.0
C323 C 0.02091 0.04339 0.82028 0.0
H324 H 1.00464 0.0343 0.82065 0.0
C325 C 0.08847 0.01498 0.65118 0.0
N326 N 0.07103 0.02462 0.68914 0.0
C327 C 0.11073 0.0247 0.65199 0.0
C328 C 0.1153 0.04399 0.69324 0.0
H329 H 0.08494 1.0002 0.61862 0.0
H330 H 0.0878 0.09273 0.85973 0.0
H331 H 0.01436 0.99118 0.43446 0.0
H332 H 0.04775 0.08717 0.90621 0.0
H333 H 0.01087 0.0652 0.90428 0.0
H334 H 0.11867 0.07979 0.78241 0.0
H335 H 0.93501 0.03044 0.6315 0.0
H336 H 0.96916 0.93979 0.35022 0.0
H337 H 1.00706 0.95996 0.35238 0.0
H338 H 0.89803 0.95161 0.47064 0.0
H339 H 0.12429 0.01737 0.62058 0.0
H340 H 0.13256 0.05149 0.69387 0.0
H341 H 0.92859 0.93658 0.3953 0.0
H342 H 0.89493 0.01521 0.62931 0.0
N343 N 0.98108 0.98889 0.48081 0.0
C344 C 0.97223 0.95363 0.38661 0.0
C345 C 0.99361 0.96501 0.3876 0.0
C346 C 0.95488 0.96066 0.43156 0.0
C347 C 0.95984 0.9787 0.4782 0.0
C348 C 0.99765 0.98286 0.4346 0.0
N349 N 0.94795 1.00507 0.56217 0.0
C350 C 0.94272 0.98705 0.5204 0.0
C351 C 0.90821 1.00707 0.59854 0.0
C352 C 0.90282 0.9878 0.55801 0.0
C353 C 0.93092 0.01569 0.59946 0.0
C354 C 0.92007 0.97774 0.51752 0.0
H355 H 0.88521 0.98116 0.55729 0.0
O356 O 0.96607 0.04806 0.5361 0.0
O357 O 0.00989 0.03497 0.63998 0.0
O358 O 0.99676 1.00699 0.73565 0.0
O359 O 0.97154 0.99715 0.64816 0.0
O360 O 0.97587 0.04605 0.63945 0.0
O361 O 0.99425 0.03634 0.472 0.0
O362 O 0.05677 0.98208 0.7162 0.0
O363 O 0.00962 0.99264 0.61335 0.0
O364 O 0.02296 0.01946 0.51706 0.0
O365 O 0.04739 0.03109 0.60406 0.0
O366 O 0.04354 0.9814 0.61311 0.0
O367 O 0.02642 0.98936 0.77753 0.0
C368 C 0.99589 0.04929 0.66669 0.0
C369 C 0.91526 0.95915 0.47319 0.0
C370 C 0.93265 0.9506 0.43029 0.0
C371 C 0.98051 0.05358 0.4887 0.0
C372 C 0.99132 0.07684 0.49596 0.0
C373 C 0.97924 0.09488 0.52922 0.0
C374 C 0.01456 0.08048 0.47674 0.0
C375 C 0.02584 0.1016 0.49194 0.0
C376 C 0.99029 0.11586 0.54449 0.0
C377 C 0.01341 0.11922 0.52629 0.0
C378 C 0.97651 0.99897 0.71289 0.0
C379 C 0.02337 0.97805 0.58691 0.0
C380 C 0.04308 0.97465 0.763 0.0
C381 C 0.03679 0.94992 0.75637 0.0
C382 C 0.05439 0.93307 0.758 0.0
C383 C 0.01379 0.94308 0.74255 0.0
C384 C 0.00823 0.91947 0.73229 0.0
C385 C 0.04915 0.90969 0.74628 0.0
C386 C 0.02628 0.90288 0.73379 0.0
C387 C 0.04275 0.02857 0.53937 0.0
H388 H 0.96139 0.09257 0.54493 0.0
H389 H 0.02403 0.06673 0.45107 0.0
H390 H 0.9809 0.12958 0.57061 0.0
H391 H 0.0213 0.13592 0.53752 0.0
H392 H 0.07226 0.93806 0.76741 0.0
H393 H 1.00023 0.95608 0.7397 0.0
H394 H 0.06282 0.89676 0.74768 0.0
H395 H 0.0227 0.88447 0.72775 0.0
Gd396 Gd 0.50776 0.99325 0.5715 0.0
Gd397 Gd 0.51775 0.03823 0.70435 0.0
C398 C 0.45616 0.05471 0.84464 0.0
C399 C 0.44639 0.09422 0.81394 0.0
C400 C 0.47908 0.0742 0.76124 0.0
C401 C 0.47453 0.05462 0.79766 0.0
C402 C 0.46561 0.09456 0.77074 0.0
C403 C 0.44168 0.07431 0.85092 0.0
C404 C 0.4532 0.03536 0.88508 0.0
C405 C 0.46881 0.0169 0.87973 0.0
N406 N 0.48883 0.03595 0.78983 0.0
C407 C 0.48665 0.01753 0.83227 0.0
H408 H 0.4982 1.00287 0.83037 0.0
C409 C 0.50608 0.09449 0.69575 0.0
N410 N 0.49796 0.07403 0.72091 0.0
C411 C 0.49321 0.11503 0.7027 0.0
C412 C 0.47254 0.11494 0.7391 0.0
H413 H 0.52237 0.09479 0.66902 0.0
H414 H 0.42724 0.07448 0.88575 0.0
H415 H 0.53348 0.02727 0.45179 0.0
H416 H 0.4393 0.03473 0.92158 0.0
H417 H 0.46702 1.00202 0.91188 0.0
H418 H 0.43562 0.10955 0.82105 0.0
H419 H 0.49739 0.93809 0.61076 0.0
H420 H 0.58793 0.98848 0.35939 0.0
H421 H 0.56509 0.02468 0.37172 0.0
H422 H 0.58066 0.91278 0.45295 0.0
H423 H 0.49935 0.13093 0.68049 0.0
H424 H 0.46268 0.13092 0.7451 0.0
H425 H 0.59396 0.94696 0.39113 0.0
H426 H 0.51534 0.89928 0.59616 0.0
N427 N 0.53752 0.99256 0.4881 0.0
C428 C 0.57374 0.98934 0.39499 0.0
C429 C 0.56086 0.00976 0.40176 0.0
C430 C 0.56777 0.9701 0.43308 0.0
C431 C 0.54921 0.97219 0.47914 0.0
C432 C 0.54264 0.01103 0.44799 0.0
N433 N 0.52334 0.95553 0.55492 0.0
C434 C 0.54197 0.9531 0.51414 0.0
C435 C 0.52318 0.91429 0.57324 0.0
C436 C 0.54339 0.91181 0.53527 0.0
C437 C 0.51309 0.93629 0.58142 0.0
C438 C 0.55276 0.93125 0.50386 0.0
H439 H 0.55115 0.89474 0.52865 0.0
O440 O 0.47922 0.97068 0.54226 0.0
O441 O 0.49179 0.01707 0.64827 0.0
O442 O 0.52409 1.00192 0.74473 0.0
O443 O 0.52406 0.97409 0.65778 0.0
O444 O 0.48008 0.98305 0.6456 0.0
O445 O 0.48715 1.00084 0.48327 0.0
O446 O 0.54395 0.06353 0.73357 0.0
O447 O 0.53369 0.01437 0.62805 0.0
O448 O 0.50414 0.02938 0.52788 0.0
O449 O 0.50338 0.05716 0.61483 0.0
O450 O 0.54624 0.04805 0.63244 0.0
O451 O 0.53918 0.03261 0.7922 0.0
C452 C 0.47715 1.00328 0.67299 0.0
C453 C 0.57195 0.92934 0.46079 0.0
C454 C 0.57948 0.94876 0.42548 0.0
C455 C 0.47185 0.98489 0.49703 0.0
C456 C 0.44748 0.99239 0.50501 0.0
C457 C 0.43017 0.97566 0.51532 0.0
C458 C 0.4415 0.01613 0.5074 0.0
C459 C 0.41838 0.02317 0.51783 0.0
C460 C 0.40731 0.98252 0.52786 0.0
C461 C 0.40137 1.00607 0.52888 0.0
C462 C 0.5268 0.98033 0.72149 0.0
C463 C 0.54891 0.02783 0.60469 0.0
C464 C 0.55273 0.0501 0.77873 0.0
C465 C 0.57766 0.04506 0.77056 0.0
C466 C 0.59363 0.06344 0.77118 0.0
C467 C 0.5855 0.02227 0.7569 0.0
C468 C 0.60923 0.01765 0.74654 0.0
C469 C 0.61711 0.05913 0.75881 0.0
C470 C 0.62493 0.03643 0.74692 0.0
C471 C 0.50165 0.051 0.5508 0.0
H472 H 0.43442 0.95729 0.51459 0.0
H473 H 0.45479 0.0292 0.5013 0.0
H474 H 0.39406 0.96951 0.53589 0.0
H475 H 0.38331 0.01079 0.53594 0.0
H476 H 0.58787 0.08116 0.78043 0.0
H477 H 0.57314 0.0081 0.75439 0.0
H478 H 0.62936 0.07341 0.75943 0.0
H479 H 0.6434 0.03358 0.74051 0.0
Gd480 Gd 0.48228 0.51626 0.66848 0.0
Gd481 Gd 0.53878 0.50924 0.58252 0.0
C482 C 0.60977 0.52316 0.67813 0.0
C483 C 0.62174 0.55861 0.62322 0.0
C484 C 0.58489 0.54033 0.59455 0.0
C485 C 0.58891 0.52322 0.6409 0.0
C486 C 0.60145 0.55797 0.58413 0.0
C487 C 0.6259 0.54122 0.67012 0.0
C488 C 0.61399 0.50473 0.72139 0.0
C489 C 0.59789 0.48669 0.72535 0.0
N490 N 0.57285 0.50615 0.64777 0.0
C491 C 0.57747 0.48753 0.68743 0.0
H492 H 0.56541 0.47336 0.69116 0.0
C493 C 0.56185 0.55392 0.50524 0.0
N494 N 0.56522 0.53911 0.5574 0.0
C495 C 0.57765 0.57183 0.4933 0.0
C496 C 0.5974 0.57407 0.53353 0.0
H497 H 0.54649 0.55236 0.47435 0.0
H498 H 0.64187 0.54161 0.69893 0.0
H499 H 0.45633 0.55416 0.5633 0.0
H500 H 0.62975 0.50407 0.75103 0.0
H501 H 0.60116 0.47214 0.7578 0.0
H502 H 0.63457 0.57215 0.61645 0.0
H503 H 0.47309 0.47235 0.77302 0.0
H504 H 0.39191 0.52508 0.4983 0.0
H505 H 0.42096 0.55667 0.4958 0.0
H506 H 0.38547 0.45551 0.62566 0.0
H507 H 0.57456 0.58392 0.45325 0.0
H508 H 0.60967 0.58791 0.52408 0.0
H509 H 0.37903 0.48712 0.54604 0.0
H510 H 0.44434 0.44108 0.79031 0.0
N511 N 0.44846 0.5208 0.60261 0.0
C512 C 0.40756 0.52379 0.52822 0.0
C513 C 0.42392 0.54163 0.52663 0.0
C514 C 0.41134 0.50477 0.56963 0.0
C515 C 0.43208 0.5039 0.60733 0.0
C516 C 0.4442 0.54 0.56495 0.0
N517 N 0.45515 0.48662 0.68996 0.0
C518 C 0.43564 0.48616 0.65201 0.0
C519 C 0.44171 0.45357 0.75102 0.0
C520 C 0.42218 0.45206 0.70971 0.0
C521 C 0.4579 0.47131 0.74124 0.0
C522 C 0.4187 0.46873 0.66031 0.0
H523 H 0.4096 0.43837 0.71753 0.0
O524 O 0.46726 0.52134 0.76689 0.0
O525 O 0.52067 0.51885 0.6767 0.0
O526 O 0.52854 0.47663 0.63985 0.0
O527 O 0.48816 0.4783 0.64169 0.0
O528 O 0.50406 0.50589 0.75893 0.0
O529 O 0.47203 0.55093 0.70212 0.0
O530 O 0.55216 0.50297 0.48265 0.0
O531 O 0.50038 0.50648 0.57467 0.0
O532 O 0.49294 0.54894 0.61142 0.0
O533 O 0.53332 0.54703 0.61061 0.0
O534 O 0.51684 0.51913 0.49184 0.0
O535 O 0.55116 0.4748 0.55385 0.0
C536 C 0.52394 0.51181 0.7353 0.0
C537 C 0.39857 0.46889 0.62056 0.0
C538 C 0.39489 0.4869 0.57531 0.0
C539 C 0.46708 0.5439 0.76234 0.0
C540 C 0.47819 0.55619 0.81867 0.0
C541 C 0.46639 0.5578 0.87994 0.0
C542 C 0.50119 0.56421 0.81406 0.0
C543 C 0.51245 0.57354 0.87084 0.0
C544 C 0.47746 0.56716 0.93633 0.0
C545 C 0.50036 0.57491 0.93203 0.0
C546 C 0.50791 0.46668 0.6474 0.0
C547 C 0.497 0.51335 0.51597 0.0
C548 C 0.55422 0.48067 0.49153 0.0
C549 C 0.5428 0.46622 0.44022 0.0
C550 C 0.55364 0.46305 0.37791 0.0
C551 C 0.52023 0.45764 0.45026 0.0
C552 C 0.50843 0.44626 0.39771 0.0
C553 C 0.54201 0.45161 0.32573 0.0
C554 C 0.51948 0.44337 0.33532 0.0
C555 C 0.51368 0.55877 0.60439 0.0
H556 H 0.44876 0.55142 0.88439 0.0
H557 H 0.51045 0.56275 0.76691 0.0
H558 H 0.46829 0.56834 0.98359 0.0
H559 H 0.50845 0.58242 0.97632 0.0
H560 H 0.57092 0.46983 0.36929 0.0
H561 H 0.51163 0.46029 0.49805 0.0
H562 H 0.5504 0.44926 0.27759 0.0
H563 H 0.5108 0.4344 0.29427 0.0
Gd564 Gd 1.00609 0.48776 0.67164 0.0
Gd565 Gd 0.01542 0.54199 0.57934 0.0
C566 C 1.00336 0.61494 0.66845 0.0
C567 C 0.96874 0.62736 0.60915 0.0
C568 C 0.98602 0.58952 0.58464 0.0
C569 C 1.00289 0.59357 0.63254 0.0
C570 C 0.96912 0.60661 0.57104 0.0
C571 C 0.98583 0.63151 0.65784 0.0
C572 C 0.02176 0.61927 0.71259 0.0
C573 C 0.03951 0.60288 0.71821 0.0
N574 N 0.01953 0.57713 0.64159 0.0
C575 C 0.03829 0.58198 0.68151 0.0
H576 H 0.05237 0.56985 0.68627 0.0
C577 C 0.97283 0.56611 0.49403 0.0
N578 N 0.98699 0.56941 0.5485 0.0
C579 C 0.95572 0.58249 0.47868 0.0
C580 C 0.95359 0.60267 0.51809 0.0
H581 H 0.97425 0.55038 0.4639 0.0
H582 H 0.98573 0.64785 0.68566 0.0
H583 H 0.97033 0.45988 0.56193 0.0
H584 H 0.02273 0.63542 0.74122 0.0
H585 H 0.05414 0.6063 0.75095 0.0
H586 H 0.95572 0.64058 0.60004 0.0
H587 H 0.04767 0.48064 0.7866 0.0
H588 H 0.99927 0.39331 0.51466 0.0
H589 H 0.96849 0.42284 0.50005 0.0
H590 H 0.06569 0.38898 0.65852 0.0
H591 H 0.94413 0.57948 0.43675 0.0
H592 H 0.94035 0.61536 0.50607 0.0
H593 H 0.03578 0.38101 0.5731 0.0
H594 H 0.07792 0.45193 0.81544 0.0
N595 N 1.00233 0.45231 0.61074 0.0
C596 C 1.0002 0.40967 0.5423 0.0
C597 C 0.9828 0.42628 0.53394 0.0
C598 C 0.01831 0.41417 0.58731 0.0
C599 C 0.01875 0.43581 0.62179 0.0
C600 C 0.98399 0.44746 0.56928 0.0
N601 N 0.03462 0.46069 0.70416 0.0
C602 C 0.03552 0.44022 0.66972 0.0
C603 C 0.06617 0.44843 0.77418 0.0
C604 C 0.06811 0.42778 0.7368 0.0
C605 C 0.04899 0.4646 0.75785 0.0
C606 C 0.05242 0.42326 0.68462 0.0
H607 H 0.08137 0.41523 0.74967 0.0
O608 O 0.9989 0.47669 0.77257 0.0
O609 O 1.00389 0.52647 0.67429 0.0
O610 O 0.04704 0.53222 0.64352 0.0
O611 O 0.04443 0.49197 0.65022 0.0
O612 O 0.0161 0.51134 0.75995 0.0
O613 O 0.97096 0.47815 0.69959 0.0
O614 O 0.02237 0.55482 0.48011 0.0
O615 O 0.01734 0.50334 0.5765 0.0
O616 O 0.9742 0.49735 0.60868 0.0
O617 O 0.9769 0.53753 0.59874 0.0
O618 O 1.0055 0.51847 0.49062 0.0
O619 O 0.05078 0.55027 0.55015 0.0
C620 C 0.01055 0.5308 0.73331 0.0
C621 C 0.05271 0.40213 0.6483 0.0
C622 C 0.03567 0.39759 0.59973 0.0
C623 C 0.97654 0.47652 0.7628 0.0
C624 C 0.96332 0.49086 0.81096 0.0
C625 C 0.96317 0.48456 0.87849 0.0
C626 C 0.95307 0.51199 0.79183 0.0
C627 C 0.94282 0.52678 0.84007 0.0
C628 C 0.95309 0.49923 0.92659 0.0
C629 C 0.94304 0.52023 0.9077 0.0
C630 C 0.05638 0.51155 0.65593 0.0
C631 C 0.01077 0.49897 0.51743 0.0
C632 C 0.04477 0.55396 0.48814 0.0
C633 C 0.05709 0.54073 0.43573 0.0
C634 C 0.05838 0.54993 0.37129 0.0
C635 C 0.06552 0.51816 0.44744 0.0
C636 C 0.07518 0.50485 0.39479 0.0
C637 C 0.06787 0.53677 0.31884 0.0
C638 C 0.07619 0.51438 0.33031 0.0
C639 C 0.96483 0.51794 0.59552 0.0
H640 H 0.97128 0.46851 0.89413 0.0
H641 H 0.95339 0.51716 0.7399 0.0
H642 H 0.95307 0.49432 0.9787 0.0
H643 H 0.93487 0.53106 0.94588 0.0
H644 H 0.05166 0.56716 0.36137 0.0
H645 H 0.06426 0.51085 0.49701 0.0
H646 H 0.06882 0.54395 0.26913 0.0
H647 H 0.084 0.50477 0.28897 0.0
H648 H 0.13083 0.04055 0.18454 0.0
H649 H 0.08285 0.05365 0.56084 0.0
H650 H 0.17478 0.05333 0.35615 0.0
H651 H 0.04441 0.01845 0.40392 0.0
H652 H 0.11463 0.05997 0.48193 0.0
H653 H 0.09709 0.03835 0.2599 0.0
C654 C 0.13339 0.04297 0.23794 0.0
C655 C 0.15577 0.04684 0.264 0.0
C656 C 0.09925 0.05081 0.46479 0.0
C657 C 0.1172 0.04464 0.35046 0.0
C658 C 0.08111 0.04706 0.51001 0.0
C659 C 0.06116 0.03471 0.48997 0.0
C660 C 0.0974 0.04252 0.39838 0.0
C661 C 0.05958 0.02761 0.42231 0.0
C662 C 0.11414 0.04165 0.28093 0.0
C663 C 0.15797 0.04988 0.33378 0.0
N664 N 0.07747 0.03149 0.37916 0.0
N665 N 0.13901 0.04877 0.37435 0.0
H666 H 0.45709 0.14065 0.2251 0.0
H667 H 0.51676 0.09596 0.55861 0.0
H668 H 0.51581 0.17445 0.31959 0.0
H669 H 0.48059 0.04844 0.42634 0.0
H670 H 0.51225 0.12651 0.477 0.0
H671 H 0.46199 0.10783 0.30108 0.0
C672 C 0.47119 0.14114 0.26101 0.0
C673 C 0.48589 0.16067 0.26605 0.0
C674 C 0.50508 0.10946 0.46589 0.0
C675 C 0.49116 0.12328 0.35425 0.0
C676 C 0.5073 0.09204 0.51329 0.0
C677 C 0.49831 0.06972 0.50093 0.0
C678 C 0.49365 0.10474 0.40511 0.0
C679 C 0.48736 0.06551 0.43887 0.0
C680 C 0.47385 0.12241 0.30465 0.0
C681 C 0.50363 0.16022 0.31454 0.0
N682 N 0.48511 0.0829 0.3935 0.0
N683 N 0.50558 0.14204 0.35691 0.0
H684 H 0.38603 0.52382 0.22139 0.0
H685 H 0.46653 0.47676 0.51979 0.0
H686 H 0.37441 0.45883 0.32129 0.0
H687 H 0.48107 0.5396 0.41312 0.0
H688 H 0.43247 0.47017 0.44825 0.0
H689 H 0.42039 0.53034 0.29183 0.0
C690 C 0.39061 0.51092 0.25807 0.0
C691 C 0.37719 0.49065 0.26472 0.0
C692 C 0.44306 0.48542 0.4403 0.0
C693 C 0.4168 0.49799 0.34573 0.0
C694 C 0.46239 0.48929 0.48166 0.0
C695 C 0.47614 0.50918 0.47383 0.0
C696 C 0.4376 0.50137 0.38987 0.0
C697 C 0.47058 0.52432 0.42169 0.0
C698 C 0.41035 0.5146 0.29812 0.0
C699 C 0.3843 0.47452 0.31307 0.0
N700 N 0.45166 0.52023 0.38211 0.0
N701 N 0.40348 0.47855 0.35154 0.0
H702 H 1.00354 0.38791 0.21548 0.0
H703 H 0.04597 0.46678 0.52933 0.0
H704 H 0.05518 0.36566 0.35748 0.0
H705 H 0.98561 0.48279 0.41108 0.0
H706 H 0.05215 0.43152 0.46038 0.0
H707 H 0.9992 0.42447 0.27963 0.0
C708 C 0.01408 0.39072 0.25981 0.0
C709 C 0.02963 0.37344 0.28109 0.0
C710 C 0.03746 0.44264 0.44965 0.0
C711 C 0.02475 0.41547 0.35513 0.0
C712 C 0.03384 0.46269 0.48939 0.0
C713 C 0.01472 0.47725 0.47751 0.0
C714 C 0.02203 0.43723 0.39688 0.0
C715 C 1.00022 0.4717 0.42297 0.0
C716 C 0.01151 0.41158 0.2967 0.0
C717 C 0.04268 0.37818 0.33948 0.0
N718 N 1.00404 0.4521 0.38511 0.0
N719 N 0.03997 0.39863 0.3742 0.0
H720 H 0.88679 0.99335 0.06516 0.0
H721 H 0.93507 0.97645 0.68967 0.0
H722 H 0.84414 0.97366 0.89585 0.0
H723 H 0.97549 1.0076 0.84937 0.0
H724 H 0.90298 0.97122 0.76793 0.0
H725 H 0.92063 0.9949 0.99037 0.0
C726 C 0.88451 0.98928 0.01243 0.0
C727 C 0.86242 0.98363 0.9869 0.0
C728 C 0.91885 0.97924 0.78593 0.0
C729 C 0.90119 0.98526 0.90084 0.0
C730 C 0.93722 0.98235 0.74105 0.0
C731 C 0.95789 0.99322 0.76205 0.0
C732 C 0.9211 0.98682 0.85294 0.0
C733 C 0.95982 0.99958 0.8302 0.0
C734 C 0.90384 0.99024 0.96967 0.0
C735 C 0.86064 0.97858 0.91786 0.0
N736 N 0.94166 0.99645 0.87296 0.0
N737 N 0.87967 0.97951 0.87753 0.0
H738 H 0.52318 0.85298 0.94586 0.0
H739 H 0.54877 0.98473 0.84373 0.0
H740 H 0.57332 0.89552 0.05161 0.0
H741 H 0.51563 0.93405 0.7145 0.0
H742 H 0.55528 0.95415 0.92643 0.0
H743 H 0.5168 0.88461 0.86776 0.0
C744 C 0.53262 0.8691 0.95332 0.0
C745 C 0.54878 0.87154 1.00569 0.0
C746 C 0.54676 0.94974 0.87957 0.0
C747 C 0.54177 0.90791 0.91533 0.0
C748 C 0.54305 0.96717 0.83227 0.0
C749 C 0.53206 0.96191 0.77096 0.0
C750 C 0.53889 0.92699 0.86619 0.0
C751 C 0.52478 0.93889 0.75955 0.0
C752 C 0.52915 0.8871 0.90817 0.0
C753 C 0.56081 0.89278 0.01177 0.0
N754 N 0.52819 0.9224 0.80661 0.0
N755 N 0.55705 0.91015 0.96726 0.0
H756 H 0.63101 0.50547 0.04242 0.0
H757 H 0.55437 0.54847 0.73096 0.0
H758 H 0.64878 0.56444 0.92152 0.0
H759 H 0.53926 0.48639 0.84059 0.0
H760 H 0.58796 0.55566 0.80379 0.0
H761 H 0.59665 0.49898 0.97226 0.0
C762 C 0.62781 0.51705 1.00119 0.0
C763 C 0.64301 0.53561 0.98847 0.0
C764 C 0.5774 0.54038 0.81189 0.0
C765 C 0.60328 0.52835 0.9079 0.0
C766 C 0.55831 0.53619 0.7699 0.0
C767 C 0.54454 0.51634 0.77824 0.0
C768 C 0.58261 0.52479 0.86345 0.0
C769 C 0.5498 0.50161 0.83156 0.0
C770 C 0.60804 0.51339 0.96126 0.0
C771 C 0.63752 0.55016 0.93451 0.0
N772 N 0.56849 0.50601 0.87175 0.0
N773 N 0.61823 0.54621 0.89644 0.0
H774 H 0.9565 0.65967 0.90785 0.0
H775 H 0.03677 0.54739 0.83677 0.0
H776 H 0.01792 0.64403 0.0229 0.0
H777 H 0.97491 0.5626 0.72418 0.0
H778 H 0.03006 0.58247 0.90581 0.0
H779 H 0.96291 0.62437 0.84071 0.0
C780 C 0.97126 0.64878 0.91961 0.0
C781 C 0.98656 0.65499 0.97208 0.0
C782 C 0.01798 0.57827 0.86585 0.0
C783 C 0.9942 0.61428 0.89373 0.0
C784 C 0.02184 0.55825 0.82637 0.0
C785 C 1.00681 0.55252 0.77327 0.0
C786 C 0.99866 0.59255 0.85307 0.0
C787 C 0.98738 0.56683 0.76311 0.0
C788 C 0.97498 0.6286 0.88069 0.0
C789 C 1.00569 0.64023 0.98303 0.0
N790 N 0.98394 0.58621 0.80231 0.0
N791 N 0.00891 0.62065 0.94447 0.0
H792 H 0.12679 0.19548 0.39871 0.0
H793 H 0.04606 0.08744 0.3732 0.0
H794 H 0.1084 0.15889 0.2159 0.0
H795 H 0.06091 0.12567 0.55612 0.0
H796 H 0.08114 0.10325 0.32377 0.0
H797 H 0.11607 0.1611 0.46198 0.0
C798 C 0.12123 0.17997 0.37165 0.0
C799 C 0.11753 0.18046 0.30214 0.0
C800 C 0.077 0.10787 0.3752 0.0
C801 C 0.10498 0.1412 0.37415 0.0
C802 C 0.05693 0.09873 0.40373 0.0
C803 C 0.04987 0.10612 0.46798 0.0
C804 C 0.08979 0.12486 0.4106 0.0
C805 C 0.06502 0.12047 0.50514 0.0
C806 C 0.11508 0.16033 0.40782 0.0
C807 C 0.11106 0.15961 0.26954 0.0
N808 N 0.08391 0.12991 0.4753 0.0
N809 N 0.10431 0.14107 0.30598 0.0
H810 H 0.31812 0.12286 0.45164 0.0
H811 H 0.43522 0.05442 0.42776 0.0
H812 H 0.36367 0.1196 0.28005 0.0
H813 H 0.38575 0.04855 0.58904 0.0
H814 H 0.41738 0.09097 0.39647 0.0
H815 H 0.35008 0.10937 0.52173 0.0
C816 C 0.335 0.12002 0.42897 0.0
C817 C 0.33785 0.1213 0.3592 0.0
C818 C 0.41071 0.08199 0.43968 0.0
C819 C 0.37442 0.10595 0.43905 0.0
C820 C 0.42103 0.06109 0.45801 0.0
C821 C 0.41148 0.04791 0.50981 0.0
C822 C 0.39039 0.08952 0.47238 0.0
C823 C 0.39306 0.05764 0.54694 0.0
C824 C 0.35326 0.11234 0.46909 0.0
C825 C 0.36036 0.11836 0.3332 0.0
N826 N 0.38271 0.07756 0.52642 0.0
N827 N 0.3776 0.11018 0.37279 0.0
H828 H 0.4305 0.33112 0.3976 0.0
H829 H 0.46971 0.4536 0.32254 0.0
H830 H 0.39339 0.37621 0.26428 0.0
H831 H 0.49405 0.41672 0.4952 0.0
H832 H 0.43428 0.43041 0.3228 0.0
H833 H 0.44481 0.36518 0.45894 0.0
C834 C 0.42442 0.34818 0.38319 0.0
C835 C 0.4115 0.35096 0.32429 0.0
C836 C 0.44705 0.42762 0.36171 0.0
C837 C 0.42853 0.38999 0.39237 0.0
C838 C 0.46733 0.44081 0.3612 0.0
C839 C 0.485 0.43648 0.40761 0.0
C840 C 0.4449 0.40933 0.40723 0.0
C841 C 0.48092 0.42022 0.45782 0.0
C842 C 0.43281 0.36772 0.41788 0.0
C843 C 0.40399 0.37342 0.30827 0.0
N844 N 0.46157 0.40668 0.45511 0.0
N845 N 0.41328 0.39216 0.34061 0.0
H846 H 0.16271 0.40776 0.25211 0.0
H847 H 0.10317 0.49233 0.49951 0.0
H848 H 0.19282 0.42877 0.44195 0.0
H849 H 0.07182 0.46491 0.3186 0.0
H850 H 0.12959 0.4591 0.50038 0.0
H851 H 0.1246 0.41636 0.29622 0.0
C852 C 0.16148 0.41349 0.30385 0.0
C853 C 0.18143 0.41865 0.34202 0.0
C854 C 0.11655 0.45998 0.46138 0.0
C855 C 0.13734 0.42973 0.39184 0.0
C856 C 0.10138 0.47897 0.46097 0.0
C857 C 0.08604 0.4819 0.40708 0.0
C858 C 0.11648 0.44409 0.40709 0.0
C859 C 0.0842 0.46384 0.3593 0.0
C860 C 0.13946 0.41866 0.32896 0.0
C861 C 0.17813 0.42581 0.40908 0.0
N862 N 0.09966 0.446 0.35945 0.0
N863 N 0.1566 0.43196 0.4311 0.0
H864 H 0.92466 0.81362 0.80978 0.0
H865 H 0.9701 0.93797 0.79722 0.0
H866 H 0.90083 0.87005 0.93692 0.0
H867 H 0.9896 0.88333 0.65718 0.0
H868 H 0.93368 0.91812 0.81712 0.0
H869 H 0.93556 0.84163 0.72514 0.0
C870 C 0.92073 0.83185 0.8187 0.0
C871 C 0.91274 0.83965 0.88149 0.0
C872 C 0.94565 0.91065 0.78084 0.0
C873 C 0.92606 0.87186 0.78615 0.0
C874 C 0.96655 0.92211 0.76906 0.0
C875 C 0.9836 0.91167 0.72808 0.0
C876 C 0.94206 0.88832 0.75292 0.0
C877 C 0.97755 0.89133 0.69227 0.0
C878 C 0.9272 0.84793 0.77049 0.0
C879 C 0.90776 0.86343 0.88993 0.0
N880 N 0.95762 0.8799 0.70717 0.0
N881 N 0.91525 0.8788 0.8438 0.0
H882 H 0.65458 0.90063 0.93729 0.0
H883 H 0.64566 0.99944 0.67217 0.0
H884 H 0.71265 0.93051 0.83312 0.0
H885 H 0.59288 0.97992 0.81416 0.0
H886 H 0.66581 0.96275 0.69335 0.0
H887 H 0.62841 0.91644 0.85297 0.0
C888 C 0.6619 0.90973 0.89516 0.0
C889 C 0.68569 0.91503 0.89347 0.0
C890 C 0.64944 0.96627 0.7183 0.0
C891 C 0.65592 0.93358 0.79805 0.0
C892 C 0.63804 0.98731 0.70677 0.0
C893 C 0.618 0.99328 0.74347 0.0
C894 C 0.64071 0.95115 0.76676 0.0
C895 C 0.60838 0.97637 0.78523 0.0
C896 C 0.64696 0.91885 0.8472 0.0
C897 C 0.69435 0.92643 0.8371 0.0
N898 N 0.62008 0.95634 0.79681 0.0
N899 N 0.67939 0.93601 0.79268 0.0
H900 H 0.60505 0.68354 0.8367 0.0
H901 H 0.54885 0.56685 0.95655 0.0
H902 H 0.61507 0.65243 0.03015 0.0
H903 H 0.53035 0.60185 0.77462 0.0
H904 H 0.58435 0.58999 0.96329 0.0
H905 H 0.58956 0.64652 0.79459 0.0
C906 C 0.60457 0.66885 0.86997 0.0
C907 C 0.61046 0.67156 0.93804 0.0
C908 C 0.57275 0.59236 0.9212 0.0
C909 C 0.59297 0.62912 0.88987 0.0
C910 C 0.55244 0.57924 0.91758 0.0
C911 C 0.53626 0.58314 0.86643 0.0
C912 C 0.5766 0.60989 0.87424 0.0
C913 C 0.54216 0.59868 0.81573 0.0
C914 C 0.5958 0.64768 0.84573 0.0
C915 C 0.61041 0.65156 0.9777 0.0
N916 N 0.56158 0.61198 0.82186 0.0
N917 N 0.60122 0.63139 0.9535 0.0
H918 H 0.85458 0.62647 0.96178 0.0
H919 H 0.91183 0.5318 0.73712 0.0
H920 H 0.81844 0.58199 0.82123 0.0
H921 H 0.9449 0.57025 0.89795 0.0
H922 H 0.88262 0.56255 0.729 0.0
H923 H 0.89054 0.62005 0.89924 0.0
C924 C 0.85402 0.61634 0.91556 0.0
C925 C 0.83378 0.60435 0.89711 0.0
C926 C 0.89666 0.56462 0.76476 0.0
C927 C 0.87489 0.59582 0.82774 0.0
C928 C 0.91338 0.54708 0.76932 0.0
C929 C 0.93012 0.54805 0.82041 0.0
C930 C 0.89667 0.58303 0.81202 0.0
C931 C 0.9316 0.5684 0.85983 0.0
C932 C 0.8746 0.61241 0.88024 0.0
C933 C 0.83386 0.59131 0.83726 0.0
N934 N 0.91473 0.58483 0.85597 0.0
N935 N 0.85433 0.58671 0.80582 0.0
H936 H 0.9823 0.17761 0.89802 0.0
H937 H 0.03585 0.07602 0.66283 0.0
H938 H 0.05541 0.17335 0.85077 0.0
H939 H 0.96776 0.07334 0.75164 0.0
H940 H 0.04288 0.11325 0.72243 0.0
H941 H 0.97613 0.14115 0.8362 0.0
C942 C 0.99713 0.16911 0.87494 0.0
C943 C 0.01947 0.1789 0.88036 0.0
C944 C 0.02646 0.10444 0.72922 0.0
C945 C 0.01233 0.13681 0.80778 0.0
C946 C 0.02254 0.0831 0.69563 0.0
C947 C 1.00148 0.07118 0.70411 0.0
C948 C 0.00901 0.11417 0.77056 0.0
C949 C 0.98443 0.08169 0.74483 0.0
C950 C 0.99354 0.14822 0.8392 0.0
C951 C 0.03778 0.16694 0.84756 0.0
N952 N 0.98858 0.10242 0.77659 0.0
N953 N 0.03381 0.14665 0.81292 0.0
H954 H 0.35616 1.0067 0.92939 0.0
H955 H 0.45083 0.04294 0.65593 0.0
H956 H 0.34588 0.06441 0.79664 0.0
H957 H 0.45137 0.97736 0.75726 0.0
H958 H 0.41303 0.05207 0.70798 0.0
H959 H 0.39154 0.99649 0.86852 0.0
C960 C 0.36104 0.01709 0.88692 0.0
C961 C 0.34769 0.03652 0.86861 0.0
C962 C 0.42143 0.0357 0.71892 0.0
C963 C 0.38897 0.02507 0.79898 0.0
C964 C 0.44308 0.03059 0.6897 0.0
C965 C 0.45462 0.00974 0.70445 0.0
C966 C 0.41128 0.01982 0.76323 0.0
C967 C 0.44334 0.9939 0.74608 0.0
C968 C 0.38147 0.01131 0.85236 0.0
C969 C 0.35559 0.04951 0.81376 0.0
N970 N 0.42255 0.99938 0.77471 0.0
N971 N 0.37569 0.04365 0.78131 0.0
H972 H 0.46175 0.32719 0.74423 0.0
H973 H 0.53961 0.44235 0.72125 0.0
H974 H 0.51515 0.3454 0.88786 0.0
H975 H 0.47306 0.43509 0.6239 0.0
H976 H 0.53516 0.4033 0.76679 0.0
H977 H 0.46982 0.36319 0.68502 0.0
C978 C 0.47523 0.33859 0.76342 0.0
C979 C 0.48756 0.33308 0.82206 0.0
C980 C 0.52162 0.41016 0.73496 0.0
C981 C 0.49719 0.37436 0.75301 0.0
C982 C 0.52425 0.4324 0.70844 0.0
C983 C 0.50667 0.44207 0.66882 0.0
C984 C 0.50138 0.3973 0.72117 0.0
C985 C 0.48698 0.4284 0.65466 0.0
C986 C 0.47988 0.35916 0.72922 0.0
C987 C 0.50527 0.3485 0.84277 0.0
N988 N 0.48484 0.40676 0.68088 0.0
N989 N 0.50945 0.36838 0.80857 0.0
H990 H 0.17499 0.52548 0.92129 0.0
H991 H 0.08758 0.47571 0.64261 0.0
H992 H 0.19146 0.46665 0.79259 0.0
H993 H 0.07973 0.5437 0.73411 0.0
H994 H 0.12533 0.47176 0.69825 0.0
H995 H 0.14019 0.53248 0.85425 0.0
C996 C 0.1716 0.51418 0.87853 0.0
C997 C 0.18642 0.49529 0.86342 0.0
C998 C 0.1155 0.48768 0.7056 0.0
C999 C 0.14587 0.50299 0.78684 0.0
C1000 C 0.09392 0.48994 0.6738 0.0
C1001 C 0.08044 0.51013 0.68334 0.0
C1002 C 0.12369 0.5056 0.74823 0.0
C1003 C 0.08958 0.52797 0.72447 0.0
C1004 C 0.15151 0.51813 0.84043 0.0
C1005 C 0.1805 0.48112 0.80765 0.0
N1006 N 0.11046 0.5252 0.75585 0.0
N1007 N 0.16071 0.48514 0.77203 0.0
H1008 H 0.03474 0.84577 0.37479 0.0
H1009 H 0.98246 0.9527 0.59054 0.0
H1010 H 0.96087 0.85627 0.39883 0.0
H1011 H 0.05139 0.95199 0.50659 0.0
H1012 H 0.9746 0.91514 0.53363 0.0
H1013 H 0.04158 0.88224 0.43588 0.0
C1014 C 0.01988 0.85563 0.39259 0.0
C1015 C 0.99712 0.84763 0.3806 0.0
C1016 C 0.99139 0.92329 0.52735 0.0
C1017 C 1.00503 0.88968 0.45262 0.0
C1018 C 0.99581 0.94481 0.55941 0.0
C1019 C 0.01737 0.95587 0.55145 0.0
C1020 C 0.00885 0.9125 0.48832 0.0
C1021 C 0.03438 0.94432 0.51295 0.0
C1022 C 0.02386 0.87651 0.42794 0.0
C1023 C 0.97876 0.86127 0.40714 0.0
N1024 N 0.02976 0.92341 0.48283 0.0
N1025 N 0.9831 0.88151 0.44166 0.0
H1026 H 0.66548 0.95579 0.41818 0.0
H1027 H 0.57791 0.05533 0.53477 0.0
H1028 H 0.68415 0.0286 0.42118 0.0
H1029 H 0.5721 0.9856 0.60879 0.0
H1030 H 0.61551 0.04522 0.48508 0.0
H1031 H 0.63024 0.96548 0.48085 0.0
C1032 C 0.66252 0.97378 0.43262 0.0
C1033 C 0.67818 0.99135 0.41364 0.0
C1034 C 0.60605 0.03207 0.51206 0.0
C1035 C 0.63708 1.00256 0.48434 0.0
C1036 C 0.58452 0.0378 0.54017 0.0
C1037 C 0.57146 0.02104 0.57377 0.0
C1038 C 0.61475 0.00934 0.51751 0.0
C1039 C 0.5812 0.99878 0.58099 0.0
C1040 C 0.64219 0.97927 0.4682 0.0
C1041 C 0.67265 0.01438 0.43297 0.0
N1042 N 0.60212 0.99346 0.55225 0.0
N1043 N 0.65256 0.01929 0.46651 0.0
H1044 H 0.5074 0.6789 0.35163 0.0
H1045 H 0.54848 0.5899 0.6305 0.0
H1046 H 0.56386 0.69318 0.48866 0.0
H1047 H 0.48333 0.58307 0.52537 0.0
H1048 H 0.55391 0.62816 0.58087 0.0
H1049 H 0.49748 0.64461 0.41647 0.0
C1050 C 0.51752 0.67515 0.3959 0.0
C1051 C 0.53669 0.68907 0.414 0.0
C1052 C 0.53825 0.61848 0.56931 0.0
C1053 C 0.52562 0.64922 0.48795 0.0
C1054 C 0.53513 0.59661 0.5977 0.0
C1055 C 0.51539 0.58325 0.58217 0.0
C1056 C 0.52164 0.62704 0.52424 0.0
C1057 C 0.49868 0.59284 0.53932 0.0
C1058 C 0.5119 0.65538 0.43272 0.0
C1059 C 0.54927 0.68284 0.47154 0.0
N1060 N 0.50231 0.614 0.51125 0.0
N1061 N 0.54367 0.66334 0.50586 0.0
H1062 H 0.8324 0.49036 0.39773 0.0
H1063 H 0.93579 0.55593 0.59455 0.0
H1064 H 0.83762 0.5651 0.41741 0.0
H1065 H 0.93743 0.48285 0.54239 0.0
H1066 H 0.89736 0.55884 0.54278 0.0
H1067 H 0.86834 0.48665 0.46221 0.0
C1068 C 0.84096 0.50604 0.41555 0.0
C1069 C 0.83172 0.52812 0.40132 0.0
C1070 C 0.90607 0.54213 0.54282 0.0
C1071 C 0.87307 0.52388 0.47658 0.0
C1072 C 0.92811 0.54045 0.57225 0.0
C1073 C 0.94025 0.5192 0.57168 0.0
C1074 C 0.89581 0.52234 0.51293 0.0
C1075 C 0.92896 0.49964 0.54376 0.0
C1076 C 0.86152 0.50386 0.45276 0.0
C1077 C 0.84364 0.54767 0.42745 0.0
N1078 N 0.90752 0.50171 0.51519 0.0
N1079 N 0.86361 0.54508 0.46335 0.0
loop_
_geom_bond_atom_site_label_1
_geom_bond_atom_site_label_2
_geom_bond_distance
_geom_bond_site_symmetry_2
_ccdc_geom_bond_type
C0 C1 1.387 . S
C0 C2 1.407 . S
C0 H24 0.920 1_554 S
C1 C0 1.387 . S
C1 C5 1.397 . S
C2 C0 1.407 . S
C2 C3 1.384 . S
C2 H25 0.930 . S
C3 C2 1.384 . S
C3 C4 1.377 . S
C3 C6 1.481 . S
C4 C3 1.377 . S
C4 C5 1.389 . S
C4 H26 0.929 . S
C5 C1 1.397 . S
C5 C4 1.389 . S
C5 H27 0.931 . S
C6 C3 1.481 . S
C6 C7 1.387 . S
C6 C11 1.390 . S
C7 C6 1.387 . S
C7 C8 1.401 . S
C7 H28 0.930 . S
C8 C7 1.401 . S
C8 C9 1.376 . S
C8 C17 1.511 . S
C9 C8 1.376 . S
C9 C10 1.392 . S
C9 H30 0.931 . S
C10 C9 1.392 . S
C10 C11 1.361 . S
C10 C12 1.500 . S
C11 C6 1.390 . S
C11 C10 1.361 . S
C11 H29 0.931 . S
C12 C10 1.500 . S
C12 C13 1.371 . S
C12 C14 1.365 . S
C13 C12 1.371 . S
C13 C23 1.386 . S
C13 H31 0.931 . S
C14 C12 1.365 . S
C14 C15 1.409 . S
C14 H32 0.929 . S
C15 C14 1.409 . S
C15 C16 1.380 . S
C15 H33 0.930 . S
C16 C15 1.380 . S
C16 C23 1.357 . S
C17 C8 1.511 . S
C17 C18 1.341 . S
C17 C19 1.371 . S
C18 C17 1.341 . S
C18 C22 1.394 . S
C18 H34 0.930 . S
C19 C17 1.371 . S
C19 C20 1.392 . S
C19 H35 0.931 . S
C20 C19 1.392 . S
C20 C21 1.331 . S
C20 H38 0.932 . S
C21 C20 1.331 . S
C21 C22 1.336 . S
C22 C18 1.394 . S
C22 C21 1.336 . S
C22 H37 0.929 . S
C23 C13 1.386 . S
C23 C16 1.357 . S
C23 H36 0.928 . S
H24 C0 0.920 1_556 S
H25 C2 0.930 . S
H26 C4 0.929 . S
H27 C5 0.931 . S
H28 C7 0.930 . S
H29 C11 0.931 . S
H30 C9 0.931 . S
H31 C13 0.931 . S
H32 C14 0.929 . S
H33 C15 0.930 . S
H34 C18 0.930 . S
H35 C19 0.931 . S
H36 C23 0.928 . S
H37 C22 0.929 . S
H38 C20 0.932 . S
C39 C40 1.386 . S
C39 C41 1.397 . S
C39 H63 0.931 1_554 S
C40 C39 1.386 . S
C40 C44 1.397 . S
C41 C39 1.397 . S
C41 C42 1.384 . S
C41 H64 0.930 . S
C42 C41 1.384 . S
C42 C43 1.377 . S
C42 C45 1.481 . S
C43 C42 1.377 . S
C43 C44 1.389 . S
C43 H65 0.929 . S
C44 C40 1.397 . S
C44 C43 1.389 . S
C44 H66 0.931 . S
C45 C42 1.481 . S
C45 C46 1.387 . S
C45 C50 1.390 . S
C46 C45 1.387 . S
C46 C47 1.401 . S
C46 H67 0.930 . S
C47 C46 1.401 . S
C47 C48 1.376 . S
C47 C56 1.511 . S
C48 C47 1.376 . S
C48 C49 1.392 . S
C48 H69 0.931 . S
C49 C48 1.392 . S
C49 C50 1.361 . S
C49 C51 1.500 . S
C50 C45 1.390 . S
C50 C49 1.361 . S
C50 H68 0.931 . S
C51 C49 1.500 . S
C51 C52 1.371 . S
C51 C53 1.365 . S
C52 C51 1.371 . S
C52 C62 1.386 . S
C52 H70 0.931 . S
C53 C51 1.365 . S
C53 C54 1.409 . S
C53 H71 0.929 . S
C54 C53 1.409 . S
C54 C55 1.380 . S
C54 H72 0.930 . S
C55 C54 1.380 . S
C55 C62 1.357 . S
C56 C47 1.511 . S
C56 C57 1.341 . S
C56 C58 1.371 . S
C57 C56 1.341 . S
C57 C61 1.394 . S
C57 H73 0.930 . S
C58 C56 1.371 . S
C58 C59 1.392 . S
C58 H74 0.931 . S
C59 C58 1.392 . S
C59 C60 1.331 . S
C59 H77 0.932 . S
C60 C59 1.331 . S
C60 C61 1.336 . S
C61 C57 1.394 . S
C61 C60 1.336 . S
C61 H76 0.929 . S
C62 C52 1.386 . S
C62 C55 1.357 . S
C62 H75 0.928 . S
H63 C39 0.931 1_556 S
H64 C41 0.930 . S
H65 C43 0.929 . S
H66 C44 0.931 . S
H67 C46 0.930 . S
H68 C50 0.931 . S
H69 C48 0.931 . S
H70 C52 0.931 . S
H71 C53 0.929 . S
H72 C54 0.930 . S
H73 C57 0.930 . S
H74 C58 0.931 . S
H75 C62 0.928 . S
H76 C61 0.929 . S
H77 C59 0.932 . S
C78 C79 1.386 . S
C78 C80 1.397 . S
C78 H102 0.931 1_554 S
C79 C78 1.386 . S
C79 C83 1.397 . S
C80 C78 1.397 . S
C80 C81 1.384 . S
C80 H103 0.930 . S
C81 C80 1.384 . S
C81 C82 1.377 . S
C81 C84 1.481 . S
C82 C81 1.377 . S
C82 C83 1.389 . S
C82 H104 0.929 . S
C83 C79 1.397 . S
C83 C82 1.389 . S
C83 H105 0.931 . S
C84 C81 1.481 . S
C84 C85 1.387 . S
C84 C89 1.390 . S
C85 C84 1.387 . S
C85 C86 1.401 . S
C85 H106 0.930 . S
C86 C85 1.401 . S
C86 C87 1.376 . S
C86 C95 1.511 . S
C87 C86 1.376 . S
C87 C88 1.392 . S
C87 H108 0.931 . S
C88 C87 1.392 . S
C88 C89 1.361 . S
C88 C90 1.500 . S
C89 C84 1.390 . S
C89 C88 1.361 . S
C89 H107 0.931 . S
C90 C88 1.500 . S
C90 C91 1.371 . S
C90 C92 1.365 . S
C91 C90 1.371 . S
C91 C101 1.386 . S
C91 H109 0.931 . S
C92 C90 1.365 . S
C92 C93 1.409 . S
C92 H110 0.929 . S
C93 C92 1.409 . S
C93 C94 1.380 . S
C93 H111 0.930 . S
C94 C93 1.380 . S
C94 C101 1.357 . S
C95 C86 1.511 . S
C95 C96 1.341 . S
C95 C97 1.371 . S
C96 C95 1.341 . S
C96 C100 1.394 . S
C96 H112 0.930 . S
C97 C95 1.371 . S
C97 C98 1.392 . S
C97 H113 0.931 . S
C98 C97 1.392 . S
C98 C99 1.331 . S
C98 H116 0.932 . S
C99 C98 1.331 . S
C99 C100 1.336 . S
C100 C96 1.394 . S
C100 C99 1.336 . S
C100 H115 0.929 . S
C101 C91 1.386 . S
C101 C94 1.357 . S
C101 H114 0.928 . S
H102 C78 0.931 1_556 S
H103 C80 0.930 . S
H104 C82 0.929 . S
H105 C83 0.931 . S
H106 C85 0.930 . S
H107 C89 0.931 . S
H108 C87 0.931 . S
H109 C91 0.931 . S
H110 C92 0.929 . S
H111 C93 0.930 . S
H112 C96 0.930 . S
H113 C97 0.931 . S
H114 C101 0.928 . S
H115 C100 0.929 . S
H116 C98 0.932 . S
C117 C118 1.386 . S
C117 C119 1.397 . S
C117 H141 0.931 . S
C118 C117 1.386 . S
C118 C122 1.397 . S
C119 C117 1.397 . S
C119 C120 1.384 . S
C119 H142 0.930 . S
C120 C119 1.384 . S
C120 C121 1.377 . S
C120 C123 1.481 . S
C121 C120 1.377 . S
C121 C122 1.389 . S
C121 H143 0.929 . S
C122 C118 1.397 . S
C122 C121 1.389 . S
C122 H144 0.931 . S
C123 C120 1.481 . S
C123 C124 1.387 . S
C123 C128 1.390 . S
C124 C123 1.387 . S
C124 C125 1.401 . S
C124 H145 0.930 . S
C125 C124 1.401 . S
C125 C126 1.376 . S
C125 C134 1.511 . S
C126 C125 1.376 . S
C126 C127 1.392 . S
C126 H147 0.931 . S
C127 C126 1.392 . S
C127 C128 1.361 . S
C127 C129 1.500 . S
C128 C123 1.390 . S
C128 C127 1.361 . S
C128 H146 0.931 . S
C129 C127 1.500 . S
C129 C130 1.371 . S
C129 C131 1.365 . S
C130 C129 1.371 . S
C130 C140 1.386 1_554 S
C130 H148 0.931 . S
C131 C129 1.365 . S
C131 C132 1.409 . S
C131 H149 0.929 . S
C132 C131 1.409 . S
C132 C133 1.380 . S
C132 H150 0.930 . S
C133 C132 1.380 . S
C133 C140 1.357 1_554 S
C134 C125 1.511 . S
C134 C135 1.341 . S
C134 C136 1.371 . S
C135 C134 1.341 . S
C135 C139 1.394 . S
C135 H151 0.930 . S
C136 C134 1.371 . S
C136 C137 1.392 . S
C136 H152 0.931 . S
C137 C136 1.392 . S
C137 C138 1.331 . S
C137 H155 0.932 . S
C138 C137 1.331 . S
C138 C139 1.336 . S
C139 C135 1.394 . S
C139 C138 1.336 . S
C139 H154 0.929 . S
C140 C130 1.386 1_556 S
C140 C133 1.357 1_556 S
C140 H153 0.928 . S
H141 C117 0.931 . S
H142 C119 0.930 . S
H143 C121 0.929 . S
H144 C122 0.931 . S
H145 C124 0.930 . S
H146 C128 0.931 . S
H147 C126 0.931 . S
H148 C130 0.931 . S
H149 C131 0.929 . S
H150 C132 0.930 . S
H151 C135 0.930 . S
H152 C136 0.931 . S
H153 C140 0.928 . S
H154 C139 0.929 . S
H155 C137 0.932 . S
C156 C157 1.386 . S
C156 C158 1.397 . S
C156 H180 0.931 . S
C157 C156 1.386 . S
C157 C161 1.397 . S
C158 C156 1.397 . S
C158 C159 1.384 . S
C158 H181 0.930 . S
C159 C158 1.384 . S
C159 C160 1.377 . S
C159 C162 1.481 . S
C160 C159 1.377 . S
C160 C161 1.389 . S
C160 H182 0.929 . S
C161 C157 1.397 . S
C161 C160 1.389 . S
C161 H183 0.931 . S
C162 C159 1.481 . S
C162 C163 1.387 . S
C162 C167 1.390 . S
C163 C162 1.387 . S
C163 C164 1.401 . S
C163 H184 0.930 . S
C164 C163 1.401 . S
C164 C165 1.376 1_554 S
C164 C173 1.511 . S
C165 C164 1.376 1_556 S
C165 C166 1.392 . S
C165 H186 0.931 . S
C166 C165 1.392 . S
C166 C167 1.361 1_556 S
C166 C168 1.500 . S
C167 C162 1.390 . S
C167 C166 1.361 1_554 S
C167 H185 0.927 1_554 S
C168 C166 1.500 . S
C168 C169 1.371 . S
C168 C170 1.365 . S
C169 C168 1.371 . S
C169 C179 1.386 . S
C169 H187 0.931 . S
C170 C168 1.365 . S
C170 C171 1.409 . S
C170 H188 0.929 . S
C171 C170 1.409 . S
C171 C172 1.380 . S
C171 H189 0.930 . S
C172 C171 1.380 . S
C172 C179 1.357 . S
C173 C164 1.511 . S
C173 C174 1.341 . S
C173 C175 1.371 . S
C174 C173 1.341 . S
C174 C178 1.394 . S
C174 H190 0.930 . S
C175 C173 1.371 . S
C175 C176 1.392 . S
C175 H191 0.931 1_554 S
C176 C175 1.392 . S
C176 C177 1.331 . S
C176 H194 0.932 1_554 S
C177 C176 1.331 . S
C177 C178 1.336 . S
C178 C174 1.394 . S
C178 C177 1.336 . S
C178 H193 0.929 . S
C179 C169 1.386 . S
C179 C172 1.357 . S
C179 H192 0.928 . S
H180 C156 0.931 . S
H181 C158 0.930 . S
H182 C160 0.929 . S
H183 C161 0.931 . S
H184 C163 0.930 . S
H185 C167 0.927 1_556 S
H186 C165 0.931 . S
H187 C169 0.931 . S
H188 C170 0.929 . S
H189 C171 0.930 . S
H190 C174 0.930 . S
H191 C175 0.931 1_556 S
H192 C179 0.928 . S
H193 C178 0.929 . S
H194 C176 0.932 1_556 S
C195 C196 1.386 . S
C195 C197 1.397 . S
C195 H219 0.931 . S
C196 C195 1.386 . S
C196 C200 1.397 . S
C197 C195 1.397 . S
C197 C198 1.384 . S
C197 H220 0.930 . S
C198 C197 1.384 . S
C198 C199 1.377 . S
C198 C201 1.481 . S
C199 C198 1.377 . S
C199 C200 1.389 . S
C199 H221 0.929 . S
C200 C196 1.397 . S
C200 C199 1.389 . S
C200 H222 0.931 . S
C201 C198 1.481 . S
C201 C202 1.387 . S
C201 C206 1.390 . S
C202 C201 1.387 . S
C202 C203 1.401 . S
C202 H223 0.930 . S
C203 C202 1.401 . S
C203 C204 1.376 1_554 S
C203 C212 1.511 . S
C204 C203 1.376 1_556 S
C204 C205 1.392 . S
C204 H225 0.931 . S
C205 C204 1.392 . S
C205 C206 1.361 1_556 S
C205 C207 1.500 . S
C206 C201 1.390 . S
C206 C205 1.361 1_554 S
C206 H224 0.931 1_554 S
C207 C205 1.500 . S
C207 C208 1.371 . S
C207 C209 1.365 . S
C208 C207 1.371 . S
C208 C218 1.386 . S
C208 H226 0.931 . S
C209 C207 1.365 . S
C209 C210 1.409 . S
C209 H227 0.929 . S
C210 C209 1.409 . S
C210 C211 1.380 . S
C210 H228 0.930 . S
C211 C210 1.380 . S
C211 C218 1.357 . S
C212 C203 1.511 . S
C212 C213 1.341 . S
C212 C214 1.371 . S
C213 C212 1.341 . S
C213 C217 1.394 . S
C213 H229 0.930 . S
C214 C212 1.371 . S
C214 C215 1.392 . S
C214 H230 0.931 1_554 S
C215 C214 1.392 . S
C215 C216 1.331 . S
C215 H233 0.932 1_554 S
C216 C215 1.331 . S
C216 C217 1.336 . S
C217 C213 1.394 . S
C217 C216 1.336 . S
C217 H232 0.929 . S
C218 C208 1.386 . S
C218 C211 1.357 . S
C218 H231 0.928 . S
H219 C195 0.931 . S
H220 C197 0.930 . S
H221 C199 0.929 . S
H222 C200 0.931 . S
H223 C202 0.930 . S
H224 C206 0.931 1_556 S
H225 C204 0.931 . S
H226 C208 0.931 . S
H227 C209 0.929 . S
H228 C210 0.930 . S
H229 C213 0.930 . S
H230 C214 0.931 1_556 S
H231 C218 0.928 . S
H232 C217 0.929 . S
H233 C215 0.932 1_556 S
C234 C235 1.386 . S
C234 C236 1.397 . S
C234 H258 0.931 . S
C235 C234 1.386 . S
C235 C239 1.397 . S
C236 C234 1.397 . S
C236 C237 1.384 . S
C236 H259 0.930 . S
C237 C236 1.384 . S
C237 C238 1.377 . S
C237 C240 1.481 . S
C238 C237 1.377 . S
C238 C239 1.389 . S
C238 H260 0.929 . S
C239 C235 1.397 . S
C239 C238 1.389 . S
C239 H261 0.931 . S
C240 C237 1.481 . S
C240 C241 1.387 . S
C240 C245 1.403 . S
C241 C240 1.387 . S
C241 C242 1.401 . S
C241 H262 0.930 . S
C242 C241 1.401 . S
C242 C243 1.376 1_554 S
C242 C251 1.511 . S
C243 C242 1.376 1_556 S
C243 C244 1.392 . S
C243 H264 0.931 . S
C244 C243 1.392 . S
C244 C245 1.352 1_556 S
C244 C246 1.500 . S
C245 C240 1.403 . S
C245 C244 1.352 1_554 S
C245 H263 0.928 1_554 S
C246 C244 1.500 . S
C246 C247 1.371 . S
C246 C248 1.365 . S
C247 C246 1.371 . S
C247 C257 1.386 . S
C247 H265 0.931 . S
C248 C246 1.365 . S
C248 C249 1.409 . S
C248 H266 0.929 . S
C249 C248 1.409 . S
C249 C250 1.380 . S
C249 H267 0.930 . S
C250 C249 1.380 . S
C250 C257 1.357 . S
C251 C242 1.511 . S
C251 C252 1.341 . S
C251 C253 1.371 . S
C252 C251 1.341 . S
C252 C256 1.394 . S
C252 H268 0.930 . S
C253 C251 1.371 . S
C253 C254 1.392 . S
C253 H269 0.931 1_554 S
C254 C253 1.392 . S
C254 C255 1.331 . S
C254 H272 0.932 1_554 S
C255 C254 1.331 . S
C255 C256 1.336 . S
C256 C252 1.394 . S
C256 C255 1.336 . S
C256 H271 0.929 . S
C257 C247 1.386 . S
C257 C250 1.357 . S
C257 H270 0.928 . S
H258 C234 0.931 . S
H259 C236 0.930 . S
H260 C238 0.929 . S
H261 C239 0.931 . S
H262 C241 0.930 . S
H263 C245 0.928 1_556 S
H264 C243 0.931 . S
H265 C247 0.931 . S
H266 C248 0.929 . S
H267 C249 0.930 . S
H268 C252 0.930 . S
H269 C253 0.931 1_556 S
H270 C257 0.928 . S
H271 C256 0.929 . S
H272 C254 0.932 1_556 S
C273 C274 1.386 . S
C273 C275 1.397 . S
C273 H297 0.931 . S
C274 C273 1.386 . S
C274 C278 1.397 . S
C275 C273 1.397 . S
C275 C276 1.384 . S
C275 H298 0.930 . S
C276 C275 1.384 . S
C276 C277 1.377 . S
C276 C279 1.481 . S
C277 C276 1.377 . S
C277 C278 1.389 . S
C277 H299 0.929 . S
C278 C274 1.397 . S
C278 C277 1.389 . S
C278 H300 0.931 . S
C279 C276 1.481 . S
C279 C280 1.387 . S
C279 C284 1.390 1_556 S
C280 C279 1.387 . S
C280 C281 1.401 1_556 S
C280 H301 0.930 . S
C281 C280 1.401 1_554 S
C281 C282 1.376 . S
C281 C290 1.511 . S
C282 C281 1.376 . S
C282 C283 1.392 . S
C282 H303 0.931 . S
C283 C282 1.392 . S
C283 C284 1.361 . S
C283 C285 1.500 . S
C284 C279 1.390 1_554 S
C284 C283 1.361 . S
C284 H302 0.931 1_554 S
C285 C283 1.500 . S
C285 C286 1.371 . S
C285 C287 1.365 . S
C286 C285 1.371 . S
C286 C296 1.386 . S
C286 H304 0.931 . S
C287 C285 1.365 . S
C287 C288 1.409 . S
C287 H305 0.929 . S
C288 C287 1.409 . S
C288 C289 1.380 . S
C288 H306 0.930 . S
C289 C288 1.380 . S
C289 C296 1.357 . S
C290 C281 1.511 . S
C290 C291 1.341 . S
C290 C292 1.371 . S
C291 C290 1.341 . S
C291 C295 1.394 . S
C291 H307 0.930 1_554 S
C292 C290 1.371 . S
C292 C293 1.392 . S
C292 H308 0.931 . S
C293 C292 1.392 . S
C293 C294 1.331 . S
C293 H311 0.932 . S
C294 C293 1.331 . S
C294 C295 1.336 . S
C295 C291 1.394 . S
C295 C294 1.336 . S
C295 H310 0.929 1_554 S
C296 C286 1.386 . S
C296 C289 1.357 . S
C296 H309 0.928 . S
H297 C273 0.931 . S
H298 C275 0.930 . S
H299 C277 0.929 . S
H300 C278 0.931 . S
H301 C280 0.930 . S
H302 C284 0.931 1_556 S
H303 C282 0.931 . S
H304 C286 0.931 . S
H305 C287 0.929 . S
H306 C288 0.930 . S
H307 C291 0.930 1_556 S
H308 C292 0.931 . S
H309 C296 0.928 . S
H310 C295 0.929 1_556 S
H311 C293 0.932 . S
Gd312 N343 2.659 . S
Gd312 N349 2.601 . S
Gd312 O356 2.545 . S
Gd312 O357 2.606 1_655 S
Gd312 O359 2.429 . S
Gd312 O360 2.545 1_655 S
Gd312 O361 2.412 . S
Gd312 O363 2.362 1_545 S
Gd312 O364 2.324 1_655 S
Gd312 C371 2.828 . S
Gd313 N322 2.661 1_565 S
Gd313 N326 2.601 . S
Gd313 O357 2.362 1_565 S
Gd313 O358 2.324 1_455 S
Gd313 O362 2.545 . S
Gd313 O363 2.606 1_455 S
Gd313 O365 2.429 . S
Gd313 O366 2.545 . S
Gd313 O367 2.412 . S
Gd313 C380 2.828 . S
C314 C317 1.417 . S
C314 C319 1.431 . S
C314 C320 1.412 . S
C315 C318 1.437 . S
C315 C319 1.317 . S
C315 H334 0.929 . S
C316 C317 1.426 . S
C316 C318 1.413 . S
C316 N326 1.359 1_545 S
C317 C314 1.417 . S
C317 C316 1.426 . S
C317 N322 1.350 . S
C318 C315 1.437 . S
C318 C316 1.413 . S
C318 C328 1.383 1_545 S
C319 C314 1.431 . S
C319 C315 1.317 . S
C319 H330 0.930 . S
C320 C314 1.412 . S
C320 C321 1.355 . S
C320 H332 0.930 . S
C321 C320 1.355 . S
C321 C323 1.402 . S
C321 H333 0.930 1_455 S
N322 Gd313 2.661 1_545 S
N322 C317 1.350 . S
N322 C323 1.307 . S
C323 C321 1.402 . S
C323 N322 1.307 . S
C323 H324 0.930 1_455 S
H324 C323 0.930 1_655 S
C325 N326 1.334 . S
C325 C327 1.394 . S
C325 H329 0.930 . S
N326 Gd313 2.601 . S
N326 C316 1.359 1_565 S
N326 C325 1.334 . S
C327 C325 1.394 . S
C327 C328 1.369 . S
C327 H339 0.930 . S
C328 C318 1.383 1_565 S
C328 C327 1.369 . S
C328 H340 0.926 1_565 S
H329 C325 0.930 . S
H330 C319 0.930 . S
H331 C348 0.930 . S
H332 C320 0.930 . S
H333 C321 0.930 1_655 S
H334 C315 0.929 . S
H335 C353 0.930 . S
H336 C344 0.930 . S
H337 C345 0.960 . S
H338 C369 0.929 . S
H339 C327 0.930 . S
H340 C328 0.926 1_545 S
H341 C370 0.930 . S
H342 C351 0.930 . S
N343 Gd312 2.659 . S
N343 C347 1.351 1_545 S
N343 C348 1.308 1_645 S
C344 H336 0.930 . S
C344 C345 1.323 1_655 S
C344 C346 1.412 . S
C345 H337 0.960 . S
C345 C344 1.323 1_455 S
C345 C348 1.404 . S
C346 C344 1.412 . S
C346 C347 1.417 . S
C346 C370 1.431 . S
C347 N343 1.351 1_565 S
C347 C346 1.417 . S
C347 C350 1.426 1_565 S
C348 H331 0.930 . S
C348 N343 1.308 1_465 S
C348 C345 1.404 . S
N349 Gd312 2.601 . S
N349 C350 1.359 . S
N349 C353 1.334 . S
C350 C347 1.426 1_545 S
C350 N349 1.359 . S
C350 C354 1.413 . S
C351 H342 0.930 . S
C351 C352 1.359 . S
C351 C353 1.394 . S
C352 C351 1.359 . S
C352 C354 1.391 . S
C352 H355 0.929 . S
C353 H335 0.930 . S
C353 N349 1.334 . S
C353 C351 1.394 . S
C354 C350 1.413 . S
C354 C352 1.391 . S
C354 C369 1.437 1_545 S
H355 C352 0.929 . S
O356 Gd312 2.545 . S
O356 C371 1.258 . S
O357 Gd312 2.606 1_455 S
O357 Gd313 2.362 1_545 S
O357 C368 1.284 . S
O358 Gd313 2.324 1_655 S
O358 C378 1.254 1_565 S
O359 Gd312 2.429 . S
O359 C378 1.268 . S
O360 Gd312 2.545 1_455 S
O360 C368 1.250 . S
O361 Gd312 2.412 . S
O361 C371 1.252 . S
O362 Gd313 2.545 . S
O362 C380 1.258 . S
O363 Gd312 2.362 1_565 S
O363 Gd313 2.606 1_655 S
O363 C379 1.284 . S
O364 Gd312 2.324 1_455 S
O364 C387 1.254 . S
O365 Gd313 2.429 . S
O365 C387 1.268 1_565 S
O366 Gd313 2.545 . S
O366 C379 1.250 1_455 S
O367 Gd313 2.412 . S
O367 C380 1.252 . S
C368 O357 1.284 . S
C368 O360 1.250 . S
C369 H338 0.929 . S
C369 C354 1.437 1_565 S
C369 C370 1.317 . S
C370 H341 0.930 . S
C370 C346 1.431 . S
C370 C369 1.317 . S
C371 Gd312 2.828 . S
C371 O356 1.258 . S
C371 O361 1.252 . S
C371 C372 1.497 . S
C372 C371 1.497 . S
C372 C373 1.395 . S
C372 C374 1.380 . S
C373 C372 1.395 . S
C373 C376 1.398 . S
C373 H388 0.930 . S
C374 C372 1.380 . S
C374 C375 1.391 . S
C374 H389 0.930 1_655 S
C375 C374 1.391 . S
C375 C377 1.387 . S
C376 C373 1.398 . S
C376 C377 1.380 . S
C376 H390 0.930 . S
C377 C375 1.387 . S
C377 C376 1.380 . S
C377 H391 0.930 . S
C378 O358 1.254 1_545 S
C378 O359 1.268 . S
C379 O363 1.284 . S
C379 O366 1.250 1_655 S
C380 Gd313 2.828 . S
C380 O362 1.258 . S
C380 O367 1.252 . S
C380 C381 1.497 . S
C381 C380 1.497 . S
C381 C382 1.395 . S
C381 C383 1.380 . S
C382 C381 1.395 . S
C382 C385 1.398 . S
C382 H392 0.930 . S
C383 C381 1.380 . S
C383 C384 1.391 . S
C383 H393 0.908 1_455 S
C384 C383 1.391 . S
C384 C386 1.387 . S
C385 C382 1.398 . S
C385 C386 1.380 . S
C385 H394 0.930 . S
C386 C384 1.387 . S
C386 C385 1.380 . S
C386 H395 0.930 . S
C387 O364 1.254 . S
C387 O365 1.268 1_545 S
H388 C373 0.930 . S
H389 C374 0.930 1_455 S
H390 C376 0.930 . S
H391 C377 0.930 . S
H392 C382 0.930 . S
H393 C383 0.908 1_655 S
H394 C385 0.930 . S
H395 C386 0.930 . S
Gd396 N427 2.661 . S
Gd396 N433 2.601 . S
Gd396 O440 2.545 . S
Gd396 O441 2.606 1_565 S
Gd396 O443 2.429 . S
Gd396 O444 2.545 1_565 S
Gd396 O445 2.412 . S
Gd396 O447 2.362 . S
Gd396 O448 2.324 1_565 S
Gd396 C455 2.828 . S
Gd397 N406 2.661 . S
Gd397 N410 2.601 . S
Gd397 O441 2.362 . S
Gd397 O442 2.324 1_545 S
Gd397 O446 2.545 . S
Gd397 O447 2.606 1_545 S
Gd397 O449 2.429 . S
Gd397 O450 2.545 . S
Gd397 O451 2.412 . S
Gd397 C464 2.828 . S
C398 C401 1.417 . S
C398 C403 1.431 . S
C398 C404 1.412 . S
C399 C402 1.437 . S
C399 C403 1.317 . S
C399 H418 0.929 . S
C400 C401 1.426 . S
C400 C402 1.413 . S
C400 N410 1.359 . S
C401 C398 1.417 . S
C401 C400 1.426 . S
C401 N406 1.350 . S
C402 C399 1.437 . S
C402 C400 1.413 . S
C402 C412 1.391 . S
C403 C398 1.431 . S
C403 C399 1.317 . S
C403 H414 0.930 . S
C404 C398 1.412 . S
C404 C405 1.355 . S
C404 H416 0.930 . S
C405 C404 1.355 . S
C405 C407 1.402 . S
C405 H417 0.930 1_545 S
N406 Gd397 2.661 . S
N406 C401 1.350 . S
N406 C407 1.307 . S
C407 C405 1.402 . S
C407 N406 1.307 . S
C407 H408 0.930 1_545 S
H408 C407 0.930 1_565 S
C409 N410 1.334 . S
C409 C411 1.394 . S
C409 H413 0.930 . S
N410 Gd397 2.601 . S
N410 C400 1.359 . S
N410 C409 1.334 . S
C411 C409 1.394 . S
C411 C412 1.359 . S
C411 H423 0.930 . S
C412 C402 1.391 . S
C412 C411 1.359 . S
C412 H424 0.929 . S
H413 C409 0.930 . S
H414 C403 0.930 . S
H415 C432 0.930 . S
H416 C404 0.930 . S
H417 C405 0.930 1_565 S
H418 C399 0.929 . S
H419 C437 0.930 . S
H420 C428 0.930 . S
H421 C429 0.930 . S
H422 C453 0.929 . S
H423 C411 0.930 . S
H424 C412 0.929 . S
H425 C454 0.930 . S
H426 C435 0.930 . S
N427 Gd396 2.661 . S
N427 C431 1.350 . S
N427 C432 1.307 1_565 S
C428 H420 0.930 . S
C428 C429 1.355 1_565 S
C428 C430 1.412 . S
C429 H421 0.930 . S
C429 C428 1.355 1_545 S
C429 C432 1.402 . S
C430 C428 1.412 . S
C430 C431 1.417 . S
C430 C454 1.431 . S
C431 N427 1.350 . S
C431 C430 1.417 . S
C431 C434 1.426 . S
C432 H415 0.930 . S
C432 N427 1.307 1_545 S
C432 C429 1.402 . S
N433 Gd396 2.601 . S
N433 C434 1.359 . S
N433 C437 1.334 . S
C434 C431 1.426 . S
C434 N433 1.359 . S
C434 C438 1.413 . S
C435 H426 0.930 . S
C435 C436 1.359 . S
C435 C437 1.394 . S
C436 C435 1.359 . S
C436 C438 1.391 . S
C436 H439 0.929 . S
C437 H419 0.930 . S
C437 N433 1.334 . S
C437 C435 1.394 . S
C438 C434 1.413 . S
C438 C436 1.391 . S
C438 C453 1.437 . S
H439 C436 0.929 . S
O440 Gd396 2.545 . S
O440 C455 1.258 . S
O441 Gd396 2.606 1_545 S
O441 Gd397 2.362 . S
O441 C452 1.284 . S
O442 Gd397 2.324 1_565 S
O442 C462 1.254 . S
O443 Gd396 2.429 . S
O443 C462 1.268 . S
O444 Gd396 2.545 1_545 S
O444 C452 1.250 . S
O445 Gd396 2.412 . S
O445 C455 1.252 . S
O446 Gd397 2.545 . S
O446 C464 1.258 . S
O447 Gd396 2.362 . S
O447 Gd397 2.606 1_565 S
O447 C463 1.284 . S
O448 Gd396 2.324 1_545 S
O448 C471 1.254 . S
O449 Gd397 2.429 . S
O449 C471 1.268 . S
O450 Gd397 2.545 . S
O450 C463 1.250 1_545 S
O451 Gd397 2.412 . S
O451 C464 1.252 . S
C452 O441 1.284 . S
C452 O444 1.250 . S
C453 H422 0.929 . S
C453 C438 1.437 . S
C453 C454 1.317 . S
C454 H425 0.930 . S
C454 C430 1.431 . S
C454 C453 1.317 . S
C455 Gd396 2.828 . S
C455 O440 1.258 . S
C455 O445 1.252 . S
C455 C456 1.497 . S
C456 C455 1.497 . S
C456 C457 1.395 . S
C456 C458 1.380 . S
C457 C456 1.395 . S
C457 C460 1.398 . S
C457 H472 0.930 . S
C458 C456 1.380 . S
C458 C459 1.391 . S
C458 H473 0.930 1_565 S
C459 C458 1.391 . S
C459 C461 1.387 . S
C460 C457 1.398 . S
C460 C461 1.380 . S
C460 H474 0.930 . S
C461 C459 1.387 . S
C461 C460 1.380 . S
C461 H475 0.930 . S
C462 O442 1.254 . S
C462 O443 1.268 . S
C463 O447 1.284 . S
C463 O450 1.250 1_565 S
C464 Gd397 2.828 . S
C464 O446 1.258 . S
C464 O451 1.252 . S
C464 C465 1.497 . S
C465 C464 1.497 . S
C465 C466 1.395 . S
C465 C467 1.380 . S
C466 C465 1.395 . S
C466 C469 1.398 . S
C466 H476 0.930 . S
C467 C465 1.380 . S
C467 C468 1.391 . S
C467 H477 0.930 . S
C468 C467 1.391 . S
C468 C470 1.387 . S
C469 C466 1.398 . S
C469 C470 1.380 . S
C469 H478 0.930 . S
C470 C468 1.387 . S
C470 C469 1.380 . S
C470 H479 0.930 . S
C471 O448 1.254 . S
C471 O449 1.268 . S
H472 C457 0.930 . S
H473 C458 0.930 1_545 S
H474 C460 0.930 . S
H475 C461 0.930 . S
H476 C466 0.930 . S
H477 C467 0.930 . S
H478 C469 0.930 . S
H479 C470 0.930 . S
Gd480 N511 2.661 . S
Gd480 N517 2.601 . S
Gd480 O524 2.545 . S
Gd480 O525 2.606 . S
Gd480 O527 2.429 . S
Gd480 O528 2.545 . S
Gd480 O529 2.412 . S
Gd480 O531 2.362 . S
Gd480 O532 2.324 . S
Gd480 C539 2.828 . S
Gd481 N490 2.661 . S
Gd481 N494 2.601 . S
Gd481 O525 2.362 . S
Gd481 O526 2.324 . S
Gd481 O530 2.545 . S
Gd481 O531 2.606 . S
Gd481 O533 2.429 . S
Gd481 O534 2.545 . S
Gd481 O535 2.412 . S
Gd481 C548 2.828 . S
C482 C485 1.417 . S
C482 C487 1.431 . S
C482 C488 1.412 . S
C483 C486 1.437 . S
C483 C487 1.317 . S
C483 H502 0.929 . S
C484 C485 1.426 . S
C484 C486 1.413 . S
C484 N494 1.359 . S
C485 C482 1.417 . S
C485 C484 1.426 . S
C485 N490 1.350 . S
C486 C483 1.437 . S
C486 C484 1.413 . S
C486 C496 1.391 . S
C487 C482 1.431 . S
C487 C483 1.317 . S
C487 H498 0.930 . S
C488 C482 1.412 . S
C488 C489 1.355 . S
C488 H500 0.930 . S
C489 C488 1.355 . S
C489 C491 1.402 . S
C489 H501 0.930 . S
N490 Gd481 2.661 . S
N490 C485 1.350 . S
N490 C491 1.307 . S
C491 C489 1.402 . S
C491 N490 1.307 . S
C491 H492 0.930 . S
H492 C491 0.930 . S
C493 N494 1.334 . S
C493 C495 1.394 . S
C493 H497 0.930 . S
N494 Gd481 2.601 . S
N494 C484 1.359 . S
N494 C493 1.334 . S
C495 C493 1.394 . S
C495 C496 1.359 . S
C495 H507 0.930 . S
C496 C486 1.391 . S
C496 C495 1.359 . S
C496 H508 0.929 . S
H497 C493 0.930 . S
H498 C487 0.930 . S
H499 C516 0.930 . S
H500 C488 0.930 . S
H501 C489 0.930 . S
H502 C483 0.929 . S
H503 C521 0.930 . S
H504 C512 0.930 . S
H505 C513 0.930 . S
H506 C537 0.929 . S
H507 C495 0.930 . S
H508 C496 0.929 . S
H509 C538 0.930 . S
H510 C519 0.930 . S
N511 Gd480 2.661 . S
N511 C515 1.350 . S
N511 C516 1.307 . S
C512 H504 0.930 . S
C512 C513 1.355 . S
C512 C514 1.412 . S
C513 H505 0.930 . S
C513 C512 1.355 . S
C513 C516 1.402 . S
C514 C512 1.412 . S
C514 C515 1.417 . S
C514 C538 1.431 . S
C515 N511 1.350 . S
C515 C514 1.417 . S
C515 C518 1.426 . S
C516 H499 0.930 . S
C516 N511 1.307 . S
C516 C513 1.402 . S
N517 Gd480 2.601 . S
N517 C518 1.359 . S
N517 C521 1.334 . S
C518 C515 1.426 . S
C518 N517 1.359 . S
C518 C522 1.413 . S
C519 H510 0.930 . S
C519 C520 1.359 . S
C519 C521 1.394 . S
C520 C519 1.359 . S
C520 C522 1.391 . S
C520 H523 0.929 . S
C521 H503 0.930 . S
C521 N517 1.334 . S
C521 C519 1.394 . S
C522 C518 1.413 . S
C522 C520 1.391 . S
C522 C537 1.437 . S
H523 C520 0.929 . S
O524 Gd480 2.545 . S
O524 C539 1.258 . S
O525 Gd480 2.606 . S
O525 Gd481 2.362 . S
O525 C536 1.284 . S
O526 Gd481 2.324 . S
O526 C546 1.254 . S
O527 Gd480 2.429 . S
O527 C546 1.268 . S
O528 Gd480 2.545 . S
O528 C536 1.250 . S
O529 Gd480 2.412 . S
O529 C539 1.252 . S
O530 Gd481 2.545 . S
O530 C548 1.258 . S
O531 Gd480 2.362 . S
O531 Gd481 2.606 . S
O531 C547 1.284 . S
O532 Gd480 2.324 . S
O532 C555 1.254 . S
O533 Gd481 2.429 . S
O533 C555 1.268 . S
O534 Gd481 2.545 . S
O534 C547 1.250 . S
O535 Gd481 2.412 . S
O535 C548 1.252 . S
C536 O525 1.284 . S
C536 O528 1.250 . S
C537 H506 0.929 . S
C537 C522 1.437 . S
C537 C538 1.317 . S
C538 H509 0.930 . S
C538 C514 1.431 . S
C538 C537 1.317 . S
C539 Gd480 2.828 . S
C539 O524 1.258 . S
C539 O529 1.252 . S
C539 C540 1.497 . S
C540 C539 1.497 . S
C540 C541 1.395 . S
C540 C542 1.380 . S
C541 C540 1.395 . S
C541 C544 1.398 . S
C541 H556 0.930 . S
C542 C540 1.380 . S
C542 C543 1.391 . S
C542 H557 0.930 . S
C543 C542 1.391 . S
C543 C545 1.387 . S
C544 C541 1.398 . S
C544 C545 1.380 . S
C544 H558 0.930 . S
C545 C543 1.387 . S
C545 C544 1.380 . S
C545 H559 0.930 . S
C546 O526 1.254 . S
C546 O527 1.268 . S
C547 O531 1.284 . S
C547 O534 1.250 . S
C548 Gd481 2.828 . S
C548 O530 1.258 . S
C548 O535 1.252 . S
C548 C549 1.497 . S
C549 C548 1.497 . S
C549 C550 1.395 . S
C549 C551 1.380 . S
C550 C549 1.395 . S
C550 C553 1.398 . S
C550 H560 0.930 . S
C551 C549 1.380 . S
C551 C552 1.391 . S
C551 H561 0.930 . S
C552 C551 1.391 . S
C552 C554 1.387 . S
C553 C550 1.398 . S
C553 C554 1.380 . S
C553 H562 0.930 . S
C554 C552 1.387 . S
C554 C553 1.380 . S
C554 H563 0.930 . S
C555 O532 1.254 . S
C555 O533 1.268 . S
H556 C541 0.930 . S
H557 C542 0.930 . S
H558 C544 0.930 . S
H559 C545 0.930 . S
H560 C550 0.930 . S
H561 C551 0.930 . S
H562 C553 0.930 . S
H563 C554 0.930 . S
Gd564 N595 2.661 . S
Gd564 N601 2.601 . S
Gd564 O608 2.545 . S
Gd564 O609 2.599 1_655 S
Gd564 O611 2.429 1_655 S
Gd564 O612 2.545 . S
Gd564 O613 2.412 . S
Gd564 O615 2.362 1_655 S
Gd564 O616 2.324 . S
Gd564 C623 2.828 . S
Gd565 N574 2.661 . S
Gd565 N578 2.601 . S
Gd565 O609 2.373 . S
Gd565 O610 2.324 . S
Gd565 O614 2.545 . S
Gd565 O615 2.606 . S
Gd565 O617 2.429 1_455 S
Gd565 O618 2.545 . S
Gd565 O619 2.412 . S
Gd565 C632 2.828 . S
C566 C569 1.417 . S
C566 C571 1.431 . S
C566 C572 1.412 . S
C567 C570 1.437 . S
C567 C571 1.317 . S
C567 H586 0.929 . S
C568 C569 1.426 . S
C568 C570 1.413 . S
C568 N578 1.359 . S
C569 C566 1.417 . S
C569 C568 1.426 . S
C569 N574 1.350 . S
C570 C567 1.437 . S
C570 C568 1.413 . S
C570 C580 1.391 . S
C571 C566 1.431 . S
C571 C567 1.317 . S
C571 H582 0.930 . S
C572 C566 1.412 . S
C572 C573 1.355 . S
C572 H584 0.930 . S
C573 C572 1.355 . S
C573 C575 1.402 . S
C573 H585 0.930 . S
N574 Gd565 2.661 . S
N574 C569 1.350 . S
N574 C575 1.307 . S
C575 C573 1.402 . S
C575 N574 1.307 . S
C575 H576 0.930 . S
H576 C575 0.930 . S
C577 N578 1.334 . S
C577 C579 1.398 . S
C577 H581 0.930 1_455 S
N578 Gd565 2.601 . S
N578 C568 1.359 . S
N578 C577 1.334 . S
C579 C577 1.398 . S
C579 C580 1.377 . S
C579 H591 0.910 1_455 S
C580 C570 1.391 . S
C580 C579 1.377 . S
C580 H592 0.929 . S
H581 C577 0.930 1_655 S
H582 C571 0.930 . S
H583 C600 0.930 . S
H584 C572 0.930 . S
H585 C573 0.930 . S
H586 C567 0.929 . S
H587 C605 0.930 . S
H588 C596 0.930 . S
H589 C597 0.930 . S
H590 C621 0.929 . S
H591 C579 0.910 1_655 S
H592 C580 0.929 . S
H593 C622 0.930 . S
H594 C603 0.930 . S
N595 Gd564 2.661 . S
N595 C599 1.350 . S
N595 C600 1.307 . S
C596 H588 0.930 . S
C596 C597 1.355 . S
C596 C598 1.412 . S
C597 H589 0.930 . S
C597 C596 1.355 . S
C597 C600 1.402 . S
C598 C596 1.412 . S
C598 C599 1.417 . S
C598 C622 1.431 . S
C599 N595 1.350 . S
C599 C598 1.417 . S
C599 C602 1.426 . S
C600 H583 0.930 . S
C600 N595 1.307 . S
C600 C597 1.402 . S
N601 Gd564 2.601 . S
N601 C602 1.359 . S
N601 C605 1.334 1_655 S
C602 C599 1.426 . S
C602 N601 1.359 . S
C602 C606 1.413 . S
C603 H594 0.930 . S
C603 C604 1.359 1_455 S
C603 C605 1.394 . S
C604 C603 1.359 1_655 S
C604 C606 1.391 . S
C604 H607 0.929 . S
C605 H587 0.930 . S
C605 N601 1.334 1_455 S
C605 C603 1.394 . S
C606 C602 1.413 . S
C606 C604 1.391 . S
C606 C621 1.437 . S
H607 C604 0.929 . S
O608 Gd564 2.545 . S
O608 C623 1.258 . S
O609 Gd564 2.599 1_455 S
O609 Gd565 2.373 . S
O609 C620 1.276 1_455 S
O610 Gd565 2.324 . S
O610 C630 1.254 . S
O611 Gd564 2.429 1_455 S
O611 C630 1.268 . S
O612 Gd564 2.545 . S
O612 C620 1.250 . S
O613 Gd564 2.412 . S
O613 C623 1.252 . S
O614 Gd565 2.545 . S
O614 C632 1.258 . S
O615 Gd564 2.362 1_455 S
O615 Gd565 2.606 . S
O615 C631 1.284 . S
O616 Gd564 2.324 . S
O616 C639 1.254 . S
O617 Gd565 2.429 1_655 S
O617 C639 1.268 . S
O618 Gd565 2.545 . S
O618 C631 1.250 . S
O619 Gd565 2.412 . S
O619 C632 1.252 . S
C620 O609 1.276 1_655 S
C620 O612 1.250 . S
C621 H590 0.929 . S
C621 C606 1.437 . S
C621 C622 1.317 . S
C622 H593 0.930 . S
C622 C598 1.431 . S
C622 C621 1.317 . S
C623 Gd564 2.828 . S
C623 O608 1.258 . S
C623 O613 1.252 . S
C623 C624 1.497 . S
C624 C623 1.497 . S
C624 C625 1.395 . S
C624 C626 1.380 . S
C625 C624 1.395 . S
C625 C628 1.398 . S
C625 H640 0.930 . S
C626 C624 1.380 . S
C626 C627 1.391 . S
C626 H641 0.930 . S
C627 C626 1.391 . S
C627 C629 1.387 . S
C628 C625 1.398 . S
C628 C629 1.380 . S
C628 H642 0.930 . S
C629 C627 1.387 . S
C629 C628 1.380 . S
C629 H643 0.930 . S
C630 O610 1.254 . S
C630 O611 1.268 . S
C631 O615 1.284 . S
C631 O618 1.250 . S
C632 Gd565 2.828 . S
C632 O614 1.258 . S
C632 O619 1.252 . S
C632 C633 1.497 . S
C633 C632 1.497 . S
C633 C634 1.395 . S
C633 C635 1.380 . S
C634 C633 1.395 . S
C634 C637 1.398 . S
C634 H644 0.930 . S
C635 C633 1.380 . S
C635 C636 1.391 . S
C635 H645 0.930 . S
C636 C635 1.391 . S
C636 C638 1.387 . S
C637 C634 1.398 . S
C637 C638 1.380 . S
C637 H646 0.930 . S
C638 C636 1.387 . S
C638 C637 1.380 . S
C638 H647 0.930 . S
C639 O616 1.254 . S
C639 O617 1.268 . S
H640 C625 0.930 . S
H641 C626 0.930 . S
H642 C628 0.930 . S
H643 C629 0.930 . S
H644 C634 0.930 . S
H645 C635 0.930 . S
H646 C637 0.930 . S
H647 C638 0.930 . S
H648 C654 0.930 . S
H649 C658 0.930 . S
H650 C663 0.929 . S
H651 C661 0.929 . S
H652 C656 0.929 . S
H653 C662 0.929 . S
C654 H648 0.930 . S
C654 C655 1.367 . S
C654 C662 1.378 . S
C655 C654 1.367 . S
C655 C663 1.433 . S
C656 H652 0.929 . S
C656 C658 1.378 . S
C656 C660 1.350 . S
C657 C660 1.463 . S
C657 C662 1.350 . S
C657 N665 1.427 . S
C658 H649 0.930 . S
C658 C656 1.378 . S
C658 C659 1.367 . S
C659 C658 1.367 . S
C659 C661 1.433 . S
C660 C656 1.350 . S
C660 C657 1.463 . S
C660 N664 1.427 . S
C661 H651 0.929 . S
C661 C659 1.433 . S
C661 N664 1.384 . S
C662 H653 0.929 . S
C662 C654 1.378 . S
C662 C657 1.350 . S
C663 H650 0.929 . S
C663 C655 1.433 . S
C663 N665 1.384 . S
N664 C660 1.427 . S
N664 C661 1.384 . S
N665 C657 1.427 . S
N665 C663 1.384 . S
H666 C672 0.930 . S
H667 C676 0.930 . S
H668 C681 0.929 . S
H669 C679 0.929 . S
H670 C674 0.929 . S
H671 C680 0.929 . S
C672 H666 0.930 . S
C672 C673 1.367 . S
C672 C680 1.378 . S
C673 C672 1.367 . S
C673 C681 1.433 . S
C674 H670 0.929 . S
C674 C676 1.378 . S
C674 C678 1.350 . S
C675 C678 1.463 . S
C675 C680 1.350 . S
C675 N683 1.427 . S
C676 H667 0.930 . S
C676 C674 1.378 . S
C676 C677 1.367 . S
C677 C676 1.367 . S
C677 C679 1.433 . S
C678 C674 1.350 . S
C678 C675 1.463 . S
C678 N682 1.427 . S
C679 H669 0.929 . S
C679 C677 1.433 . S
C679 N682 1.384 . S
C680 H671 0.929 . S
C680 C672 1.378 . S
C680 C675 1.350 . S
C681 H668 0.929 . S
C681 C673 1.433 . S
C681 N683 1.384 . S
N682 C678 1.427 . S
N682 C679 1.384 . S
N683 C675 1.427 . S
N683 C681 1.384 . S
H684 C690 0.930 . S
H685 C694 0.930 . S
H686 C699 0.929 . S
H687 C697 0.929 . S
H688 C692 0.929 . S
H689 C698 0.929 . S
C690 H684 0.930 . S
C690 C691 1.367 . S
C690 C698 1.378 . S
C691 C690 1.367 . S
C691 C699 1.433 . S
C692 H688 0.929 . S
C692 C694 1.378 . S
C692 C696 1.350 . S
C693 C696 1.463 . S
C693 C698 1.350 . S
C693 N701 1.427 . S
C694 H685 0.930 . S
C694 C692 1.378 . S
C694 C695 1.367 . S
C695 C694 1.367 . S
C695 C697 1.433 . S
C696 C692 1.350 . S
C696 C693 1.463 . S
C696 N700 1.427 . S
C697 H687 0.929 . S
C697 C695 1.433 . S
C697 N700 1.384 . S
C698 H689 0.929 . S
C698 C690 1.378 . S
C698 C693 1.350 . S
C699 H686 0.929 . S
C699 C691 1.433 . S
C699 N701 1.384 . S
N700 C696 1.427 . S
N700 C697 1.384 . S
N701 C693 1.427 . S
N701 C699 1.384 . S
H702 C708 0.930 . S
H703 C712 0.930 . S
H704 C717 0.929 . S
H705 C715 0.929 . S
H706 C710 0.929 . S
H707 C716 0.929 . S
C708 H702 0.930 . S
C708 C709 1.367 . S
C708 C716 1.378 . S
C709 C708 1.367 . S
C709 C717 1.433 . S
C710 H706 0.929 . S
C710 C712 1.378 . S
C710 C714 1.350 . S
C711 C714 1.463 . S
C711 C716 1.350 . S
C711 N719 1.427 . S
C712 H703 0.930 . S
C712 C710 1.378 . S
C712 C713 1.367 . S
C713 C712 1.367 . S
C713 C715 1.433 . S
C714 C710 1.350 . S
C714 C711 1.463 . S
C714 N718 1.427 . S
C715 H705 0.929 . S
C715 C713 1.433 . S
C715 N718 1.384 . S
C716 H707 0.929 . S
C716 C708 1.378 . S
C716 C711 1.350 . S
C717 H704 0.929 . S
C717 C709 1.433 . S
C717 N719 1.384 . S
N718 C714 1.427 . S
N718 C715 1.384 . S
N719 C711 1.427 . S
N719 C717 1.384 . S
H720 C726 0.930 . S
H721 C730 0.930 . S
H722 C735 0.929 . S
H723 C733 0.929 . S
H724 C728 0.929 1_545 S
H725 C734 0.929 . S
C726 H720 0.930 . S
C726 C727 1.367 . S
C726 C734 1.378 1_554 S
C727 C726 1.367 . S
C727 C735 1.433 . S
C728 H724 0.929 1_565 S
C728 C730 1.378 1_565 S
C728 C732 1.350 . S
C729 C732 1.463 . S
C729 C734 1.350 . S
C729 N737 1.427 1_556 S
C730 H721 0.930 . S
C730 C728 1.378 1_545 S
C730 C731 1.367 1_545 S
C731 C730 1.367 1_565 S
C731 C733 1.433 . S
C732 C728 1.350 . S
C732 C729 1.463 . S
C732 N736 1.427 . S
C733 H723 0.929 . S
C733 C731 1.433 . S
C733 N736 1.384 . S
C734 H725 0.929 . S
C734 C726 1.378 1_556 S
C734 C729 1.350 . S
C735 H722 0.929 . S
C735 C727 1.433 . S
C735 N737 1.384 . S
N736 C732 1.427 . S
N736 C733 1.384 . S
N737 C729 1.427 1_554 S
N737 C735 1.384 . S
H738 C744 0.930 . S
H739 C748 0.930 . S
H740 C753 0.929 . S
H741 C751 0.929 . S
H742 C746 0.929 . S
H743 C752 0.929 . S
C744 H738 0.930 . S
C744 C745 1.367 . S
C744 C752 1.378 1_554 S
C745 C744 1.367 . S
C745 C753 1.433 . S
C746 H742 0.929 . S
C746 C748 1.378 . S
C746 C750 1.350 . S
C747 C750 1.463 . S
C747 C752 1.350 . S
C747 N755 1.427 . S
C748 H739 0.930 . S
C748 C746 1.378 . S
C748 C749 1.367 . S
C749 C748 1.367 . S
C749 C751 1.433 . S
C750 C746 1.350 . S
C750 C747 1.463 . S
C750 N754 1.427 . S
C751 H741 0.929 . S
C751 C749 1.433 . S
C751 N754 1.384 . S
C752 H743 0.929 . S
C752 C744 1.378 1_556 S
C752 C747 1.350 . S
C753 H740 0.929 . S
C753 C745 1.433 . S
C753 N755 1.384 1_554 S
N754 C750 1.427 . S
N754 C751 1.384 . S
N755 C747 1.427 . S
N755 C753 1.384 1_556 S
H756 C762 0.930 . S
H757 C766 0.930 . S
H758 C771 0.929 . S
H759 C769 0.929 . S
H760 C764 0.929 . S
H761 C770 0.929 . S
C762 H756 0.930 . S
C762 C763 1.367 . S
C762 C770 1.378 . S
C763 C762 1.367 . S
C763 C771 1.423 1_554 S
C764 H760 0.929 . S
C764 C766 1.378 . S
C764 C768 1.350 . S
C765 C768 1.463 . S
C765 C770 1.350 1_556 S
C765 N773 1.427 . S
C766 H757 0.930 . S
C766 C764 1.378 . S
C766 C767 1.367 . S
C767 C766 1.367 . S
C767 C769 1.433 . S
C768 C764 1.350 . S
C768 C765 1.463 . S
C768 N772 1.427 . S
C769 H759 0.929 . S
C769 C767 1.433 . S
C769 N772 1.384 . S
C770 H761 0.929 . S
C770 C762 1.378 . S
C770 C765 1.350 1_554 S
C771 H758 0.929 . S
C771 C763 1.423 1_556 S
C771 N773 1.394 . S
N772 C768 1.427 . S
N772 C769 1.384 . S
N773 C765 1.427 . S
N773 C771 1.394 . S
H774 C780 0.930 . S
H775 C784 0.930 1_455 S
H776 C789 0.929 . S
H777 C787 0.929 . S
H778 C782 0.929 . S
H779 C788 0.929 . S
C780 H774 0.930 . S
C780 C781 1.367 . S
C780 C788 1.378 1_554 S
C781 C780 1.367 . S
C781 C789 1.433 . S
C782 H778 0.929 . S
C782 C784 1.378 . S
C782 C786 1.350 . S
C783 C786 1.463 . S
C783 C788 1.350 . S
C783 N791 1.427 1_556 S
C784 H775 0.930 1_655 S
C784 C782 1.378 . S
C784 C785 1.367 . S
C785 C784 1.367 . S
C785 C787 1.433 . S
C786 C782 1.350 . S
C786 C783 1.463 . S
C786 N790 1.427 . S
C787 H777 0.929 . S
C787 C785 1.433 . S
C787 N790 1.384 . S
C788 H779 0.929 . S
C788 C780 1.378 1_556 S
C788 C783 1.350 . S
C789 H776 0.929 . S
C789 C781 1.433 . S
C789 N791 1.384 . S
N790 C786 1.427 . S
N790 C787 1.384 . S
N791 C783 1.427 1_554 S
N791 C789 1.384 . S
H792 C798 0.930 . S
H793 C802 0.930 . S
H794 C807 0.929 . S
H795 C805 0.929 1_655 S
H796 C800 0.929 . S
H797 C806 0.929 . S
C798 H792 0.930 . S
C798 C799 1.367 . S
C798 C806 1.378 . S
C799 C798 1.367 . S
C799 C807 1.433 . S
C800 H796 0.929 . S
C800 C802 1.378 . S
C800 C804 1.350 . S
C801 C804 1.463 . S
C801 C806 1.350 . S
C801 N809 1.427 . S
C802 H793 0.930 . S
C802 C800 1.378 . S
C802 C803 1.367 . S
C803 C802 1.367 . S
C803 C805 1.433 . S
C804 C800 1.350 . S
C804 C801 1.463 . S
C804 N808 1.427 . S
C805 H795 0.929 1_455 S
C805 C803 1.433 . S
C805 N808 1.384 . S
C806 H797 0.929 . S
C806 C798 1.378 . S
C806 C801 1.350 . S
C807 H794 0.929 . S
C807 C799 1.433 . S
C807 N809 1.384 . S
N808 C804 1.427 . S
N808 C805 1.384 . S
N809 C801 1.427 . S
N809 C807 1.384 . S
H810 C816 0.930 . S
H811 C820 0.930 . S
H812 C825 0.929 . S
H813 C823 0.929 . S
H814 C818 0.929 . S
H815 C824 0.929 . S
C816 H810 0.930 . S
C816 C817 1.367 . S
C816 C824 1.378 . S
C817 C816 1.367 . S
C817 C825 1.433 . S
C818 H814 0.929 . S
C818 C820 1.378 1_545 S
C818 C822 1.350 . S
C819 C822 1.463 . S
C819 C824 1.350 . S
C819 N827 1.427 . S
C820 H811 0.930 . S
C820 C818 1.378 1_565 S
C820 C821 1.367 1_565 S
C821 C820 1.367 1_545 S
C821 C823 1.433 . S
C822 C818 1.350 . S
C822 C819 1.463 . S
C822 N826 1.427 . S
C823 H813 0.929 . S
C823 C821 1.433 . S
C823 N826 1.384 . S
C824 H815 0.929 . S
C824 C816 1.378 . S
C824 C819 1.350 . S
C825 H812 0.929 . S
C825 C817 1.433 . S
C825 N827 1.384 . S
N826 C822 1.427 . S
N826 C823 1.384 . S
N827 C819 1.427 . S
N827 C825 1.384 . S
H828 C834 0.930 . S
H829 C838 0.930 . S
H830 C843 0.929 . S
H831 C841 0.929 . S
H832 C836 0.929 . S
H833 C842 0.929 . S
C834 H828 0.930 . S
C834 C835 1.367 . S
C834 C842 1.378 . S
C835 C834 1.367 . S
C835 C843 1.433 . S
C836 H832 0.929 . S
C836 C838 1.378 . S
C836 C840 1.350 . S
C837 C840 1.463 . S
C837 C842 1.350 . S
C837 N845 1.427 . S
C838 H829 0.930 . S
C838 C836 1.378 . S
C838 C839 1.367 . S
C839 C838 1.367 . S
C839 C841 1.433 . S
C840 C836 1.350 . S
C840 C837 1.463 . S
C840 N844 1.427 . S
C841 H831 0.929 . S
C841 C839 1.433 . S
C841 N844 1.384 . S
C842 H833 0.929 . S
C842 C834 1.378 . S
C842 C837 1.350 . S
C843 H830 0.929 . S
C843 C835 1.433 . S
C843 N845 1.384 . S
N844 C840 1.427 . S
N844 C841 1.384 . S
N845 C837 1.427 . S
N845 C843 1.384 . S
H846 C852 0.930 . S
H847 C856 0.930 . S
H848 C861 0.929 . S
H849 C859 0.929 . S
H850 C854 0.929 . S
H851 C860 0.929 . S
C852 H846 0.930 . S
C852 C853 1.367 . S
C852 C860 1.378 . S
C853 C852 1.367 . S
C853 C861 1.433 . S
C854 H850 0.929 . S
C854 C856 1.378 . S
C854 C858 1.350 . S
C855 C858 1.463 . S
C855 C860 1.350 . S
C855 N863 1.427 . S
C856 H847 0.930 . S
C856 C854 1.378 . S
C856 C857 1.367 . S
C857 C856 1.367 . S
C857 C859 1.433 . S
C858 C854 1.350 . S
C858 C855 1.463 . S
C858 N862 1.427 . S
C859 H849 0.929 . S
C859 C857 1.433 . S
C859 N862 1.384 . S
C860 H851 0.929 . S
C860 C852 1.378 . S
C860 C855 1.350 . S
C861 H848 0.929 . S
C861 C853 1.433 . S
C861 N863 1.384 . S
N862 C858 1.427 . S
N862 C859 1.384 . S
N863 C855 1.427 . S
N863 C861 1.384 . S
H864 C870 0.930 . S
H865 C874 0.930 . S
H866 C879 0.929 . S
H867 C877 0.929 . S
H868 C872 0.929 . S
H869 C878 0.929 . S
C870 H864 0.930 . S
C870 C871 1.367 . S
C870 C878 1.378 . S
C871 C870 1.367 . S
C871 C879 1.433 1_556 S
C872 H868 0.929 . S
C872 C874 1.378 . S
C872 C876 1.350 . S
C873 C876 1.463 . S
C873 C878 1.350 . S
C873 N881 1.427 . S
C874 H865 0.930 . S
C874 C872 1.378 . S
C874 C875 1.367 1_655 S
C875 C874 1.367 1_455 S
C875 C877 1.433 . S
C876 C872 1.350 . S
C876 C873 1.463 . S
C876 N880 1.427 . S
C877 H867 0.929 . S
C877 C875 1.433 . S
C877 N880 1.384 1_455 S
C878 H869 0.929 . S
C878 C870 1.378 . S
C878 C873 1.350 . S
C879 H866 0.929 . S
C879 C871 1.433 1_554 S
C879 N881 1.384 1_554 S
N880 C876 1.427 . S
N880 C877 1.384 1_655 S
N881 C873 1.427 . S
N881 C879 1.384 1_556 S
H882 C888 0.930 . S
H883 C892 0.930 . S
H884 C897 0.929 . S
H885 C895 0.934 . S
H886 C890 0.929 . S
H887 C896 0.929 1_554 S
C888 H882 0.930 . S
C888 C889 1.367 1_554 S
C888 C896 1.378 1_554 S
C889 C888 1.367 1_556 S
C889 C897 1.433 . S
C890 H886 0.929 . S
C890 C892 1.378 1_565 S
C890 C894 1.350 . S
C891 C894 1.463 . S
C891 C896 1.350 . S
C891 N899 1.427 . S
C892 H883 0.930 . S
C892 C890 1.378 1_545 S
C892 C893 1.367 . S
C893 C892 1.367 . S
C893 C895 1.444 . S
C894 C890 1.350 . S
C894 C891 1.463 . S
C894 N898 1.427 . S
C895 H885 0.934 . S
C895 C893 1.444 . S
C895 N898 1.368 1_545 S
C896 H887 0.929 1_556 S
C896 C888 1.378 1_556 S
C896 C891 1.350 . S
C897 H884 0.929 . S
C897 C889 1.433 . S
C897 N899 1.384 . S
N898 C894 1.427 . S
N898 C895 1.368 1_565 S
N899 C891 1.427 . S
N899 C897 1.384 . S
H900 C906 0.930 . S
H901 C910 0.930 . S
H902 C915 0.929 . S
H903 C913 0.929 . S
H904 C908 0.929 . S
H905 C914 0.929 . S
C906 H900 0.930 . S
C906 C907 1.367 . S
C906 C914 1.378 . S
C907 C906 1.367 . S
C907 C915 1.433 1_556 S
C908 H904 0.929 . S
C908 C910 1.378 . S
C908 C912 1.350 . S
C909 C912 1.463 . S
C909 C914 1.350 . S
C909 N917 1.427 . S
C910 H901 0.930 . S
C910 C908 1.378 . S
C910 C911 1.367 . S
C911 C910 1.367 . S
C911 C913 1.433 . S
C912 C908 1.350 . S
C912 C909 1.463 . S
C912 N916 1.427 . S
C913 H903 0.929 . S
C913 C911 1.433 . S
C913 N916 1.384 . S
C914 H905 0.929 . S
C914 C906 1.378 . S
C914 C909 1.350 . S
C915 H902 0.929 . S
C915 C907 1.433 1_554 S
C915 N917 1.384 1_554 S
N916 C912 1.427 . S
N916 C913 1.384 . S
N917 C909 1.427 . S
N917 C915 1.384 1_556 S
H918 C924 0.930 . S
H919 C928 0.930 . S
H920 C933 0.929 . S
H921 C931 0.929 . S
H922 C926 0.929 . S
H923 C932 0.929 . S
C924 H918 0.930 . S
C924 C925 1.367 . S
C924 C932 1.378 . S
C925 C924 1.367 . S
C925 C933 1.433 . S
C926 H922 0.929 . S
C926 C928 1.378 . S
C926 C930 1.350 . S
C927 C930 1.463 . S
C927 C932 1.350 . S
C927 N935 1.427 . S
C928 H919 0.930 . S
C928 C926 1.378 . S
C928 C929 1.367 . S
C929 C928 1.367 . S
C929 C931 1.433 . S
C930 C926 1.350 . S
C930 C927 1.463 . S
C930 N934 1.427 . S
C931 H921 0.929 . S
C931 C929 1.433 . S
C931 N934 1.384 . S
C932 H923 0.929 . S
C932 C924 1.378 . S
C932 C927 1.350 . S
C933 H920 0.929 . S
C933 C925 1.433 . S
C933 N935 1.384 . S
N934 C930 1.427 . S
N934 C931 1.384 . S
N935 C927 1.427 . S
N935 C933 1.384 . S
H936 C942 0.930 . S
H937 C946 0.930 . S
H938 C951 0.929 . S
H939 C949 0.929 . S
H940 C944 0.929 . S
H941 C950 0.929 . S
C942 H936 0.930 . S
C942 C943 1.367 . S
C942 C950 1.378 . S
C943 C942 1.367 . S
C943 C951 1.433 . S
C944 H940 0.929 . S
C944 C946 1.378 . S
C944 C948 1.350 . S
C945 C948 1.463 . S
C945 C950 1.350 . S
C945 N953 1.427 . S
C946 H937 0.930 . S
C946 C944 1.378 . S
C946 C947 1.367 . S
C947 C946 1.367 . S
C947 C949 1.433 . S
C948 C944 1.350 . S
C948 C945 1.463 . S
C948 N952 1.427 . S
C949 H939 0.929 . S
C949 C947 1.433 . S
C949 N952 1.384 . S
C950 H941 0.929 . S
C950 C942 1.378 . S
C950 C945 1.350 . S
C951 H938 0.929 . S
C951 C943 1.433 . S
C951 N953 1.384 . S
N952 C948 1.427 . S
N952 C949 1.384 . S
N953 C945 1.427 . S
N953 C951 1.384 . S
H954 C960 0.930 . S
H955 C964 0.930 . S
H956 C969 0.929 . S
H957 C967 0.929 . S
H958 C962 0.929 . S
H959 C968 0.929 . S
C960 H954 0.930 . S
C960 C961 1.367 . S
C960 C968 1.378 . S
C961 C960 1.367 . S
C961 C969 1.433 . S
C962 H958 0.929 . S
C962 C964 1.378 . S
C962 C966 1.350 . S
C963 C966 1.463 . S
C963 C968 1.350 . S
C963 N971 1.427 . S
C964 H955 0.930 . S
C964 C962 1.378 . S
C964 C965 1.367 . S
C965 C964 1.367 . S
C965 C967 1.433 . S
C966 C962 1.350 . S
C966 C963 1.463 . S
C966 N970 1.427 . S
C967 H957 0.929 . S
C967 C965 1.433 . S
C967 N970 1.384 . S
C968 H959 0.929 . S
C968 C960 1.378 . S
C968 C963 1.350 . S
C969 H956 0.929 . S
C969 C961 1.433 . S
C969 N971 1.384 . S
N970 C966 1.427 . S
N970 C967 1.384 . S
N971 C963 1.427 . S
N971 C969 1.384 . S
H972 C978 0.930 . S
H973 C982 0.930 . S
H974 C987 0.929 . S
H975 C985 0.929 . S
H976 C980 0.929 . S
H977 C986 0.929 . S
C978 H972 0.930 . S
C978 C979 1.367 . S
C978 C986 1.378 . S
C979 C978 1.367 . S
C979 C987 1.433 . S
C980 H976 0.929 . S
C980 C982 1.378 . S
C980 C984 1.350 . S
C981 C984 1.463 . S
C981 C986 1.350 . S
C981 N989 1.427 . S
C982 H973 0.930 . S
C982 C980 1.378 . S
C982 C983 1.367 . S
C983 C982 1.367 . S
C983 C985 1.433 . S
C984 C980 1.350 . S
C984 C981 1.463 . S
C984 N988 1.427 . S
C985 H975 0.929 . S
C985 C983 1.433 . S
C985 N988 1.384 . S
C986 H977 0.929 . S
C986 C978 1.378 . S
C986 C981 1.350 . S
C987 H974 0.929 . S
C987 C979 1.433 . S
C987 N989 1.384 . S
N988 C984 1.427 . S
N988 C985 1.384 . S
N989 C981 1.427 . S
N989 C987 1.384 . S
H990 C996 0.930 . S
H991 C1000 0.930 . S
H992 C1005 0.929 . S
H993 C1003 0.929 . S
H994 C998 0.929 . S
H995 C1004 0.929 . S
C996 H990 0.930 . S
C996 C997 1.367 . S
C996 C1004 1.378 . S
C997 C996 1.367 . S
C997 C1005 1.433 . S
C998 H994 0.929 . S
C998 C1000 1.378 . S
C998 C1002 1.350 . S
C999 C1002 1.463 . S
C999 C1004 1.350 . S
C999 N1007 1.427 . S
C1000 H991 0.930 . S
C1000 C998 1.378 . S
C1000 C1001 1.367 . S
C1001 C1000 1.367 . S
C1001 C1003 1.433 . S
C1002 C998 1.350 . S
C1002 C999 1.463 . S
C1002 N1006 1.427 . S
C1003 H993 0.929 . S
C1003 C1001 1.433 . S
C1003 N1006 1.384 . S
C1004 H995 0.929 . S
C1004 C996 1.378 . S
C1004 C999 1.350 . S
C1005 H992 0.929 . S
C1005 C997 1.433 . S
C1005 N1007 1.384 . S
N1006 C1002 1.427 . S
N1006 C1003 1.384 . S
N1007 C999 1.427 . S
N1007 C1005 1.384 . S
H1008 C1014 0.930 . S
H1009 C1018 0.930 . S
H1010 C1023 0.929 . S
H1011 C1021 0.929 . S
H1012 C1016 0.929 . S
H1013 C1022 0.929 . S
C1014 H1008 0.930 . S
C1014 C1015 1.367 . S
C1014 C1022 1.378 . S
C1015 C1014 1.367 . S
C1015 C1023 1.433 . S
C1016 H1012 0.929 . S
C1016 C1018 1.378 . S
C1016 C1020 1.350 . S
C1017 C1020 1.463 . S
C1017 C1022 1.350 . S
C1017 N1025 1.427 . S
C1018 H1009 0.930 . S
C1018 C1016 1.378 . S
C1018 C1019 1.367 . S
C1019 C1018 1.367 . S
C1019 C1021 1.433 . S
C1020 C1016 1.350 . S
C1020 C1017 1.463 . S
C1020 N1024 1.427 . S
C1021 H1011 0.929 . S
C1021 C1019 1.433 . S
C1021 N1024 1.384 . S
C1022 H1013 0.929 . S
C1022 C1014 1.378 . S
C1022 C1017 1.350 . S
C1023 H1010 0.929 . S
C1023 C1015 1.433 . S
C1023 N1025 1.384 . S
N1024 C1020 1.427 . S
N1024 C1021 1.384 . S
N1025 C1017 1.427 . S
N1025 C1023 1.384 . S
H1026 C1032 0.930 . S
H1027 C1036 0.930 1_545 S
H1028 C1041 0.929 . S
H1029 C1039 0.929 . S
H1030 C1034 0.929 . S
H1031 C1040 0.929 . S
C1032 H1026 0.930 . S
C1032 C1033 1.367 . S
C1032 C1040 1.378 . S
C1033 C1032 1.367 . S
C1033 C1041 1.433 . S
C1034 H1030 0.929 . S
C1034 C1036 1.378 . S
C1034 C1038 1.350 . S
C1035 C1038 1.463 . S
C1035 C1040 1.350 . S
C1035 N1043 1.427 . S
C1036 H1027 0.930 1_565 S
C1036 C1034 1.378 . S
C1036 C1037 1.367 . S
C1037 C1036 1.367 . S
C1037 C1039 1.433 . S
C1038 C1034 1.350 . S
C1038 C1035 1.463 . S
C1038 N1042 1.427 . S
C1039 H1029 0.929 . S
C1039 C1037 1.433 . S
C1039 N1042 1.384 . S
C1040 H1031 0.929 . S
C1040 C1032 1.378 . S
C1040 C1035 1.350 . S
C1041 H1028 0.929 . S
C1041 C1033 1.433 . S
C1041 N1043 1.384 . S
N1042 C1038 1.427 . S
N1042 C1039 1.384 . S
N1043 C1035 1.427 . S
N1043 C1041 1.384 . S
H1044 C1050 0.930 . S
H1045 C1054 0.930 . S
H1046 C1059 0.929 . S
H1047 C1057 0.929 . S
H1048 C1052 0.929 . S
H1049 C1058 0.929 . S
C1050 H1044 0.930 . S
C1050 C1051 1.367 . S
C1050 C1058 1.378 . S
C1051 C1050 1.367 . S
C1051 C1059 1.433 . S
C1052 H1048 0.929 . S
C1052 C1054 1.378 . S
C1052 C1056 1.350 . S
C1053 C1056 1.463 . S
C1053 C1058 1.350 . S
C1053 N1061 1.427 . S
C1054 H1045 0.930 . S
C1054 C1052 1.378 . S
C1054 C1055 1.367 . S
C1055 C1054 1.367 . S
C1055 C1057 1.433 . S
C1056 C1052 1.350 . S
C1056 C1053 1.463 . S
C1056 N1060 1.427 . S
C1057 H1047 0.929 . S
C1057 C1055 1.433 . S
C1057 N1060 1.384 . S
C1058 H1049 0.929 . S
C1058 C1050 1.378 . S
C1058 C1053 1.350 . S
C1059 H1046 0.929 . S
C1059 C1051 1.433 . S
C1059 N1061 1.384 . S
N1060 C1056 1.427 . S
N1060 C1057 1.384 . S
N1061 C1053 1.427 . S
N1061 C1059 1.384 . S
H1062 C1068 0.930 . S
H1063 C1072 0.930 . S
H1064 C1077 0.929 . S
H1065 C1075 0.929 . S
H1066 C1070 0.929 . S
H1067 C1076 0.929 . S
C1068 H1062 0.930 . S
C1068 C1069 1.367 . S
C1068 C1076 1.378 . S
C1069 C1068 1.367 . S
C1069 C1077 1.433 . S
C1070 H1066 0.929 . S
C1070 C1072 1.378 . S
C1070 C1074 1.350 . S
C1071 C1074 1.463 . S
C1071 C1076 1.350 . S
C1071 N1079 1.427 . S
C1072 H1063 0.930 . S
C1072 C1070 1.378 . S
C1072 C1073 1.367 . S
C1073 C1072 1.367 . S
C1073 C1075 1.433 . S
C1074 C1070 1.350 . S
C1074 C1071 1.463 . S
C1074 N1078 1.427 . S
C1075 H1065 0.929 . S
C1075 C1073 1.433 . S
C1075 N1078 1.384 . S
C1076 H1067 0.929 . S
C1076 C1068 1.378 . S
C1076 C1071 1.350 . S
C1077 H1064 0.929 . S
C1077 C1069 1.433 . S
C1077 N1079 1.384 . S
N1078 C1074 1.427 . S
N1078 C1075 1.384 . S
N1079 C1071 1.427 . S
N1079 C1077 1.384 . S
C655 C255 2.278 . S
C659 C387 2.362 . S
C677 C471 2.384 . S
C673 C294 2.288 . S
C695 C547 2.269 . S
C691 C177 2.387 . S
C713 C631 2.273 . S
C709 C216 2.390 . S
C731 C378 2.352 1_565 S
C727 C99 2.285 . S
C745 C138 2.260 . S
C749 C462 2.379 . S
C763 C21 2.408 . S
C767 C536 2.277 . S
C781 C60 2.397 . S
C785 C620 2.263 . S
C803 C375 0.651 1_455 S
C799 C196 0.673 . S
C821 C459 0.585 1_545 S
C817 C235 0.646 . S
C839 C552 0.559 . S
C835 C289 0.609 . S
C853 C157 0.646 . S
C857 C636 0.640 . S
C871 C40 0.667 1_556 S
C875 C384 0.653 . S
C893 C468 0.591 . S
C889 C79 0.618 1_556 S
C911 C543 0.556 . S
C907 C133 0.612 1_556 S
C925 C1 0.662 1_556 S
C929 C627 0.627 . S
C943 C211 2.770 . S
C947 C368 2.922 . S
C961 C250 2.716 . S
C965 C452 2.872 . S
C983 C546 2.957 . S
C979 C274 2.633 . S
C1001 C630 2.985 . S
C997 C172 2.638 . S
C1015 C55 2.766 . S
C1019 C379 2.923 . S
C1037 C463 2.874 . S
C1033 C94 2.723 . S
C1055 C555 2.958 . S
C1051 C118 2.613 . S
C1069 C16 2.645 . S
C1073 C639 2.985 . S
