# Generated by pormake.
# Topology pyr, (3,6)-cn, num edge types: 1
# Building blocks:
#     Node 0, Type 0, BuildingBlock: BETDIP_clean_linker_0, # of connection points: 3
#     Node 1, Type 0, BuildingBlock: BETDIP_clean_linker_0, # of connection points: 3
#     Node 2, Type 0, BuildingBlock: BETDIP_clean_linker_0, # of connection points: 3
#     Node 3, Type 0, BuildingBlock: BETDIP_clean_linker_0, # of connection points: 3
#     Node 4, Type 0, BuildingBlock: BETDIP_clean_linker_0, # of connection points: 3
#     Node 5, Type 0, BuildingBlock: BETDIP_clean_linker_0, # of connection points: 3
#     Node 6, Type 0, BuildingBlock: BETDIP_clean_linker_0, # of connection points: 3
#     Node 7, Type 0, BuildingBlock: BETDIP_clean_linker_0, # of connection points: 3
#     Node 8, Type 1, BuildingBlock: PAMTUU_clean_sbu_0, # of connection points: 6
#     Node 9, Type 1, BuildingBlock: PAMTUU_clean_sbu_0, # of connection points: 6
#     Node 10, Type 1, BuildingBlock: PAMTUU_clean_sbu_0, # of connection points: 6
#     Node 11, Type 1, BuildingBlock: PAMTUU_clean_sbu_0, # of connection points: 6
#     Edge 12, Type (0, 1), BuildingBlock: XIVTED_clean_linker_0, # of connection points: 2
#     Edge 13, Type (0, 1), BuildingBlock: XIVTED_clean_linker_0, # of connection points: 2
#     Edge 14, Type (0, 1), BuildingBlock: XIVTED_clean_linker_0, # of connection points: 2
#     Edge 15, Type (0, 1), BuildingBlock: XIVTED_clean_linker_0, # of connection points: 2
#     Edge 16, Type (0, 1), BuildingBlock: XIVTED_clean_linker_0, # of connection points: 2
#     Edge 17, Type (0, 1), BuildingBlock: XIVTED_clean_linker_0, # of connection points: 2
#     Edge 18, Type (0, 1), BuildingBlock: XIVTED_clean_linker_0, # of connection points: 2
#     Edge 19, Type (0, 1), BuildingBlock: XIVTED_clean_linker_0, # of connection points: 2
#     Edge 20, Type (0, 1), BuildingBlock: XIVTED_clean_linker_0, # of connection points: 2
#     Edge 21, Type (0, 1), BuildingBlock: XIVTED_clean_linker_0, # of connection points: 2
#     Edge 22, Type (0, 1), BuildingBlock: XIVTED_clean_linker_0, # of connection points: 2
#     Edge 23, Type (0, 1), BuildingBlock: XIVTED_clean_linker_0, # of connection points: 2
#     Edge 24, Type (0, 1), BuildingBlock: XIVTED_clean_linker_0, # of connection points: 2
#     Edge 25, Type (0, 1), BuildingBlock: XIVTED_clean_linker_0, # of connection points: 2
#     Edge 26, Type (0, 1), BuildingBlock: XIVTED_clean_linker_0, # of connection points: 2
#     Edge 27, Type (0, 1), BuildingBlock: XIVTED_clean_linker_0, # of connection points: 2
#     Edge 28, Type (0, 1), BuildingBlock: XIVTED_clean_linker_0, # of connection points: 2
#     Edge 29, Type (0, 1), BuildingBlock: XIVTED_clean_linker_0, # of connection points: 2
#     Edge 30, Type (0, 1), BuildingBlock: XIVTED_clean_linker_0, # of connection points: 2
#     Edge 31, Type (0, 1), BuildingBlock: XIVTED_clean_linker_0, # of connection points: 2
#     Edge 32, Type (0, 1), BuildingBlock: XIVTED_clean_linker_0, # of connection points: 2
#     Edge 33, Type (0, 1), BuildingBlock: XIVTED_clean_linker_0, # of connection points: 2
#     Edge 34, Type (0, 1), BuildingBlock: XIVTED_clean_linker_0, # of connection points: 2
#     Edge 35, Type (0, 1), BuildingBlock: XIVTED_clean_linker_0, # of connection points: 2
# Relax obj value: 0.124
# Max RMSD: 0.160
# Mean RMSD: 0.131
data_MOF--net-pyr--node1-PAMTUU_clean_sbu_0--node2-BETDIP_clean_linker_0--edge1-XIVTED_clean_linker_0
_symmetry_space_group_name_H-M    P1
_symmetry_Int_Tables_number       1
_symmetry_cell_setting            triclinic
loop_
_symmetry_equiv_pos_as_xyz
'x, y, z'
_cell_length_a     38.512602
_cell_length_b     38.773237
_cell_length_c     38.074593
_cell_angle_alpha  90.932426
_cell_angle_beta   88.948199
_cell_angle_gamma 106.26154
loop_
_atom_site_label
_atom_site_type_symbol
_atom_site_fract_x
_atom_site_fract_y
_atom_site_fract_z
_atom_type_partial_charge
H0 H 0.32969 0.29876 0.27068 0.0
H1 H 0.39115 0.29929 0.17554 0.0
H2 H 0.40206 0.23234 0.26118 0.0
H3 H 0.34345 0.31462 0.15232 0.0
C4 C 0.33174 0.32813 0.17257 0.0
C5 C 0.35039 0.29011 0.25632 0.0
C6 C 0.36505 0.26416 0.27049 0.0
C7 C 0.35923 0.30257 0.22216 0.0
C8 C 0.3842 0.28986 0.20203 0.0
C9 C 0.4 0.26453 0.21609 0.0
C10 C 0.39081 0.25256 0.25057 0.0
N11 N 0.34021 0.32577 0.20845 0.0
H12 H 0.14056 0.78752 0.76922 0.0
H13 H 0.1657 0.73271 0.67727 0.0
H14 H 0.23374 0.74713 0.76751 0.0
H15 H 0.12998 0.76008 0.64996 0.0
C16 C 0.11562 0.77269 0.66864 0.0
C17 C 0.15753 0.77309 0.75605 0.0
C18 C 0.18809 0.76872 0.77282 0.0
C19 C 0.14966 0.76119 0.72149 0.0
C20 C 0.17161 0.74259 0.70383 0.0
C21 C 0.20131 0.73626 0.72099 0.0
C22 C 0.20942 0.74972 0.75527 0.0
N23 N 0.12082 0.7708 0.70527 0.0
H24 H 0.72013 0.42573 0.8542 0.0
H25 H 0.62395 0.33632 0.85068 0.0
H26 H 0.70437 0.33995 0.92838 0.0
H27 H 0.62626 0.35377 0.79209 0.0
C28 C 0.63427 0.38292 0.79374 0.0
C29 C 0.70408 0.40034 0.86467 0.0
C30 C 0.71698 0.38481 0.89316 0.0
C31 C 0.67094 0.38295 0.84862 0.0
C32 C 0.64997 0.34954 0.86192 0.0
C33 C 0.66179 0.33402 0.89107 0.0
C34 C 0.69528 0.35187 0.90607 0.0
N35 N 0.65911 0.40049 0.82019 0.0
H36 H 0.80482 0.63564 0.35775 0.0
H37 H 0.8913 0.73184 0.3404 0.0
H38 H 0.81878 0.72612 0.42839 0.0
H39 H 0.88276 0.71032 0.28344 0.0
C40 C 0.87982 0.68186 0.28679 0.0
C41 C 0.81936 0.66263 0.36593 0.0
C42 C 0.80726 0.67883 0.39527 0.0
C43 C 0.84944 0.68149 0.3459 0.0
C44 C 0.868 0.71706 0.35555 0.0
C45 C 0.85646 0.73363 0.38489 0.0
C46 C 0.82665 0.71399 0.40485 0.0
N47 N 0.86046 0.66383 0.31644 0.0
H48 H 0.63721 0.76457 0.93466 0.0
H49 H 0.69783 0.7591 0.84021 0.0
H50 H 0.62805 0.82827 0.84578 0.0
H51 H 0.6892 0.69972 0.86001 0.0
C52 C 0.69857 0.70867 0.88627 0.0
C53 C 0.64358 0.77212 0.90751 0.0
C54 C 0.62944 0.79794 0.89224 0.0
C55 C 0.66678 0.75665 0.8882 0.0
C56 C 0.67722 0.76842 0.85384 0.0
C57 C 0.66381 0.79463 0.83831 0.0
C58 C 0.63863 0.80799 0.85729 0.0
N59 N 0.68263 0.73245 0.90506 0.0
H60 H 0.88455 0.27339 0.33751 0.0
H61 H 0.83761 0.31387 0.42687 0.0
H62 H 0.78619 0.30322 0.32648 0.0
H63 H 0.93701 0.29125 0.37193 0.0
C64 C 0.92312 0.27938 0.39579 0.0
C65 C 0.86426 0.28499 0.34866 0.0
C66 C 0.83566 0.28776 0.32758 0.0
C67 C 0.86537 0.29504 0.38443 0.0
C68 C 0.8376 0.30789 0.39897 0.0
C69 C 0.80882 0.31084 0.3782 0.0
C70 C 0.80868 0.30159 0.34242 0.0
N71 N 0.8913 0.28812 0.40731 0.0
H72 H 0.3152 0.64612 0.23667 0.0
H73 H 0.40461 0.74221 0.24128 0.0
H74 H 0.32227 0.73105 0.16366 0.0
H75 H 0.35184 0.62137 0.26555 0.0
C76 C 0.3696 0.64212 0.28156 0.0
C77 C 0.32978 0.67205 0.2264 0.0
C78 C 0.31461 0.6863 0.19855 0.0
C79 C 0.36269 0.69194 0.24172 0.0
C80 C 0.37991 0.72662 0.22902 0.0
C81 C 0.3653 0.74138 0.20112 0.0
C82 C 0.333 0.72061 0.18596 0.0
N83 N 0.37852 0.67872 0.27062 0.0
H84 H 0.12128 0.31543 0.74271 0.0
H85 H 0.20964 0.4116 0.73273 0.0
H86 H 0.20355 0.32223 0.66301 0.0
H87 H 0.16973 0.43788 0.75675 0.0
C88 C 0.15476 0.41858 0.7758 0.0
C89 C 0.14587 0.33035 0.72938 0.0
C90 C 0.16071 0.3141 0.70182 0.0
C91 C 0.16269 0.36586 0.74013 0.0
C92 C 0.19529 0.38495 0.7236 0.0
C93 C 0.21044 0.36915 0.69606 0.0
C94 C 0.19268 0.33399 0.68514 0.0
N95 N 0.14694 0.38107 0.76843 0.0
Tb96 Tb 0.04593 0.03038 0.51795 0.0
Tb97 Tb 0.97163 1.0174 0.5664 0.0
C98 C 0.97365 0.96984 0.49944 0.0
C99 C 0.13617 0.07003 0.47389 0.0
C100 C 0.19845 0.12159 0.44906 0.0
C101 C 0.20132 0.09041 0.46569 0.0
C102 C 0.17044 0.06482 0.47782 0.0
C103 C 0.13331 0.10214 0.45927 0.0
C104 C 0.16422 0.12769 0.4469 0.0
C105 C 0.104 0.04056 0.48294 0.0
O106 O 0.02551 0.07575 0.50716 0.0
O107 O 0.96594 0.04973 0.52182 0.0
O108 O 1.00624 0.06975 0.58064 0.0
O109 O 0.06102 0.06069 0.56692 0.0
O110 O 0.91545 1.00786 0.56997 0.0
O111 O 0.94828 1.01845 0.61662 0.0
O112 O 1.00365 0.98542 0.59011 0.0
O113 O 0.03687 0.9783 0.54132 0.0
O114 O 1.00303 0.99359 0.48772 0.0
O115 O 0.96058 0.97136 0.53136 0.0
C116 C 0.9913 0.07506 0.50632 0.0
O117 O 0.10054 0.03061 0.51567 0.0
O118 O 0.07327 0.04138 0.46959 0.0
C119 C 0.04139 0.07855 0.58385 0.0
C120 C 0.88761 0.98342 0.6233 0.0
C121 C 0.8296 0.93546 0.65877 0.0
C122 C 0.84417 0.97073 0.67146 0.0
C123 C 0.8728 0.99445 0.65383 0.0
C124 C 0.87401 0.94794 0.61092 0.0
C125 C 0.84518 0.92405 0.62862 0.0
C126 C 0.91564 1.0103 0.60416 0.0
C127 C 0.02385 0.96841 0.5727 0.0
H128 H 0.22735 0.08521 0.46831 0.0
H129 H 0.17323 0.04034 0.48927 0.0
H130 H 0.10715 0.10695 0.45618 0.0
H131 H 0.161 0.15126 0.43398 0.0
H132 H 0.83341 0.98009 0.6951 0.0
H133 H 0.88307 0.0217 0.66378 0.0
H134 H 0.88521 0.93894 0.58733 0.0
H135 H 0.83453 0.89703 0.61826 0.0
Tb136 Tb 0.55288 0.04352 0.06705 0.0
Tb137 Tb 0.4786 0.02944 1.02121 0.0
C138 C 0.53419 0.98668 1.00585 0.0
C139 C 0.64116 0.08201 0.11339 0.0
C140 C 0.69862 0.13554 0.14308 0.0
C141 C 0.70492 0.10516 0.12651 0.0
C142 C 0.67642 0.07863 0.11189 0.0
C143 C 0.63476 0.11281 0.12878 0.0
C144 C 0.66329 0.13936 0.14361 0.0
C145 C 0.61186 0.05288 0.09872 0.0
O146 O 0.55949 0.09258 0.03776 0.0
O147 O 0.52093 0.06956 0.9925 0.0
O148 O 0.48253 0.07807 0.05115 0.0
O149 O 0.51978 0.07235 0.09588 0.0
O150 O 0.4531 0.02058 0.97247 0.0
O151 O 0.42317 0.02585 1.02002 0.0
O152 O 0.46366 0.99519 0.06752 0.0
O153 O 0.5196 0.99067 0.08276 0.0
O154 O 0.55879 1.01391 1.01939 0.0
O155 O 0.49976 0.98459 1.00844 0.0
C156 C 0.5473 0.09541 1.00624 0.0
O157 O 0.58033 0.04558 0.11455 0.0
O158 O 0.60912 0.05251 0.06469 0.0
C159 C 0.49641 0.08731 0.08224 0.0
C160 C 0.39158 0.9866 0.97602 0.0
C161 C 0.33385 0.9301 0.95082 0.0
C162 C 0.32718 0.95995 0.96821 0.0
C163 C 0.35581 0.98799 0.98052 0.0
C164 C 0.39832 0.95603 0.96033 0.0
C165 C 0.36972 0.92811 0.94773 0.0
C166 C 0.42129 1.01785 0.98658 0.0
C167 C 0.48414 0.97905 0.08446 0.0
H168 H 0.73186 0.10168 0.12515 0.0
H169 H 0.68186 0.05519 0.0997 0.0
H170 H 0.6077 0.11602 0.12988 0.0
H171 H 0.65745 0.16225 0.1565 0.0
H172 H 0.29986 0.96205 0.97161 0.0
H173 H 0.35005 1.01119 0.99289 0.0
H174 H 0.42571 0.95413 0.95685 0.0
H175 H 0.37594 0.90576 0.93415 0.0
Tb176 Tb 0.50595 0.49099 0.52199 0.0
Tb177 Tb 0.50763 0.56392 0.56776 0.0
C178 C 0.47458 0.55063 0.4915 0.0
C179 C 0.53793 0.42063 0.47889 0.0
C180 C 0.5967 0.39284 0.46302 0.0
C181 C 0.56081 0.37135 0.45892 0.0
C182 C 0.53167 0.38521 0.46671 0.0
C183 C 0.57353 0.44197 0.48362 0.0
C184 C 0.60264 0.42834 0.47552 0.0
C185 C 0.50758 0.43522 0.48774 0.0
O186 O 0.55361 0.53182 0.50399 0.0
O187 O 0.56337 0.57278 0.5499 0.0
O188 O 0.52439 0.52783 0.60359 0.0
O189 O 0.54428 0.49243 0.56367 0.0
O190 O 0.51528 0.61976 0.57155 0.0
O191 O 0.49792 0.58586 0.61647 0.0
O192 O 0.45171 0.53125 0.56722 0.0
O193 O 0.46231 0.47648 0.56045 0.0
O194 O 0.46943 0.51585 0.49527 0.0
O195 O 0.49427 0.57388 0.51391 0.0
C196 C 0.57425 0.55955 0.52104 0.0
O197 O 0.49946 0.43536 0.52107 0.0
O198 O 0.50873 0.46575 0.47324 0.0
C199 C 0.54193 0.50387 0.59607 0.0
C200 C 0.47181 0.63297 0.61022 0.0
C201 C 0.40955 0.65472 0.62767 0.0
C202 C 0.43875 0.66136 0.6509 0.0
C203 C 0.4696 0.65061 0.64222 0.0
C204 C 0.44311 0.627 0.58653 0.0
C205 C 0.41233 0.63804 0.59508 0.0
C206 C 0.50226 0.61766 0.60354 0.0
C207 C 0.44147 0.4963 0.57081 0.0
H208 H 0.55517 0.34371 0.44997 0.0
H209 H 0.50429 0.36826 0.46338 0.0
H210 H 0.57878 0.46926 0.49351 0.0
H211 H 0.62978 0.44589 0.47854 0.0
H212 H 0.43754 0.6745 0.67604 0.0
H213 H 0.49133 0.65516 0.66093 0.0
H214 H 0.44405 0.61289 0.56189 0.0
H215 H 0.39015 0.63226 0.57681 0.0
Tb216 Tb 0.02113 0.57069 1.02171 0.0
Tb217 Tb 0.01543 0.49684 0.06543 0.0
C218 C 0.05426 0.51165 0.9914 0.0
C219 C 0.99056 0.64042 0.97965 0.0
C220 C 0.92975 0.66188 0.95961 0.0
C221 C 0.96191 0.67156 0.93939 0.0
C222 C 0.99214 0.66095 0.94941 0.0
C223 C 0.95859 0.63099 0.99998 0.0
C224 C 0.92857 0.6418 0.9902 0.0
C225 C 0.02097 0.62643 0.98863 0.0
O226 O 0.97487 0.53008 1.00047 0.0
O227 O 0.96097 0.48855 0.04491 0.0
O228 O 0.99669 0.53233 0.10145 0.0
O229 O 0.97938 0.56763 0.06147 0.0
O230 O 1.00522 0.44069 0.06698 0.0
O231 O 0.02317 0.47342 0.11295 0.0
O232 O 0.07163 0.52951 0.06859 0.0
O233 O 0.06257 0.58481 0.06179 0.0
O234 O 0.05961 0.54636 0.99611 0.0
O235 O 0.03256 0.48825 1.01215 0.0
C236 C 0.95255 0.50217 1.0158 0.0
O237 O 0.0279 0.62632 1.02202 0.0
O238 O 0.0209 0.59609 0.97337 0.0
C239 C 0.97956 0.55604 0.09361 0.0
C240 C 0.04822 0.42585 0.10247 0.0
C241 C 0.10956 0.40166 0.11424 0.0
C242 C 0.07913 0.39161 0.13683 0.0
C243 C 0.04871 0.40364 0.13098 0.0
C244 C 0.07819 0.43536 0.07944 0.0
C245 C 0.10852 0.42326 0.08518 0.0
C246 C 0.01811 0.44178 0.09851 0.0
C247 C 0.08218 0.56456 0.07303 0.0
H248 H 0.9636 0.68716 0.91576 0.0
H249 H 0.01648 0.66816 0.93323 0.0
H250 H 0.95653 0.61458 1.02307 0.0
H251 H 0.90403 0.63339 1.00597 0.0
H252 H 0.07896 0.37469 0.15923 0.0
H253 H 0.02593 0.39627 0.14915 0.0
H254 H 0.07852 0.45295 0.05753 0.0
H255 H 0.13164 0.43188 0.06757 0.0
H256 H 0.35204 0.19265 0.28503 0.0
H257 H 0.21876 0.19551 0.44478 0.0
H258 H 0.34077 0.29189 0.33051 0.0
H259 H 0.25001 0.10172 0.41019 0.0
H260 H 0.26634 0.23255 0.40678 0.0
H261 H 0.31907 0.16037 0.33458 0.0
C262 C 0.34349 0.20796 0.30581 0.0
C263 C 0.34935 0.24527 0.30332 0.0
C264 C 0.26313 0.20395 0.40804 0.0
C265 C 0.30982 0.20773 0.35997 0.0
C266 C 0.23587 0.18278 0.42955 0.0
C267 C 0.23018 0.1454 0.43051 0.0
C268 C 0.28452 0.1875 0.38712 0.0
C269 C 0.25349 0.1304 0.41062 0.0
C270 C 0.3242 0.18928 0.3341 0.0
C271 C 0.33638 0.26308 0.3309 0.0
N272 N 0.27927 0.15142 0.38949 0.0
N273 N 0.31676 0.24408 0.35785 0.0
H274 H 0.21963 0.74559 0.82892 0.0
H275 H 0.2772 0.94169 0.91518 0.0
H276 H 0.18549 0.83595 0.79316 0.0
H277 H 0.323 0.85688 0.94498 0.0
H278 H 0.23365 0.89891 0.87915 0.0
H279 H 0.24847 0.78189 0.87921 0.0
C280 C 0.2178 0.77286 0.83183 0.0
C281 C 0.20041 0.7878 0.80648 0.0
C282 C 0.25294 0.88949 0.89386 0.0
C283 C 0.23307 0.8293 0.86403 0.0
C284 C 0.2777 0.91391 0.91477 0.0
C285 C 0.30417 0.90303 0.93292 0.0
C286 C 0.25474 0.85392 0.8907 0.0
C287 C 0.30362 0.86665 0.93082 0.0
C288 C 0.23414 0.7935 0.8606 0.0
C289 C 0.19827 0.82305 0.81203 0.0
N290 N 0.27959 0.84347 0.90971 0.0
N291 N 0.21473 0.84265 0.83995 0.0
H292 H 0.63763 0.45541 0.79069 0.0
H293 H 0.56424 0.44257 0.59372 0.0
H294 H 0.60376 0.35619 0.73167 0.0
H295 H 0.55616 0.52797 0.66466 0.0
H296 H 0.58763 0.41461 0.64157 0.0
H297 H 0.61637 0.48617 0.74283 0.0
C298 C 0.62593 0.44013 0.76764 0.0
C299 C 0.62254 0.4031 0.76518 0.0
C300 C 0.58086 0.43952 0.6467 0.0
C301 C 0.59852 0.43824 0.71016 0.0
C302 C 0.56763 0.45569 0.61927 0.0
C303 C 0.55806 0.48781 0.62496 0.0
C304 C 0.58526 0.45567 0.68027 0.0
C305 C 0.56301 0.50321 0.65893 0.0
C306 C 0.61367 0.45768 0.74039 0.0
C307 C 0.60693 0.38471 0.73472 0.0
N308 N 0.57637 0.48713 0.68518 0.0
N309 N 0.59578 0.40241 0.70845 0.0
H310 H 0.90453 0.70659 0.22231 0.0
H311 H 0.96497 0.53356 0.16188 0.0
H312 H 0.88474 0.61215 0.28634 0.0
H313 H 0.95361 0.61478 0.09026 0.0
H314 H 0.93892 0.5628 0.20899 0.0
H315 H 0.92651 0.67459 0.1748 0.0
C316 C 0.90478 0.67906 0.22629 0.0
C317 C 0.89271 0.66197 0.25818 0.0
C318 C 0.94192 0.57401 0.18287 0.0
C319 C 0.91809 0.62518 0.20409 0.0
C320 C 0.95682 0.55737 0.15596 0.0
C321 C 0.96154 0.5717 0.12198 0.0
C322 C 0.93213 0.60549 0.17589 0.0
C323 C 0.95043 0.60263 0.11593 0.0
C324 C 0.91722 0.66076 0.19916 0.0
C325 C 0.89365 0.62628 0.26207 0.0
N326 N 0.93655 0.61859 0.14263 0.0
N327 N 0.90633 0.6091 0.23539 0.0
H328 H 0.46051 0.24429 0.23383 0.0
H329 H 0.45262 0.12609 0.05885 0.0
H330 H 0.3886 0.24219 0.14766 0.0
H331 H 0.51742 0.11697 0.14781 0.0
H332 H 0.43509 0.17429 0.08882 0.0
H333 H 0.48804 0.20409 0.20025 0.0
C334 C 0.45081 0.23578 0.20768 0.0
C335 C 0.42186 0.24638 0.19373 0.0
C336 C 0.4532 0.16189 0.10188 0.0
C337 C 0.45332 0.20045 0.15524 0.0
C338 C 0.46324 0.13415 0.08479 0.0
C339 C 0.48633 0.11702 0.10095 0.0
C340 C 0.46613 0.17283 0.13561 0.0
C341 C 0.49934 0.12915 0.13446 0.0
C342 C 0.46655 0.21283 0.18858 0.0
C343 C 0.41093 0.23503 0.15949 0.0
N344 N 0.48888 0.15624 0.15081 0.0
N345 N 0.42641 0.21245 0.14163 0.0
H346 H 0.08008 0.8139 0.70675 0.0
H347 H 0.04651 0.91747 0.53677 0.0
H348 H 0.10628 0.788 0.60071 0.0
H349 H 0.0188 0.94571 0.64165 0.0
H350 H 0.06363 0.86688 0.5601 0.0
H351 H 0.0529 0.85877 0.68388 0.0
C352 C 0.07982 0.81739 0.67861 0.0
C353 C 0.09571 0.79735 0.65549 0.0
C354 C 0.05372 0.88394 0.57814 0.0
C355 C 0.06472 0.84877 0.62927 0.0
C356 C 0.04399 0.91304 0.56484 0.0
C357 C 0.03164 0.93627 0.58737 0.0
C358 C 0.05142 0.87786 0.61442 0.0
C359 C 0.02836 0.92861 0.62338 0.0
C360 C 0.0643 0.84307 0.66561 0.0
C361 C 0.09444 0.80296 0.61938 0.0
N362 N 0.03855 0.90019 0.63588 0.0
N363 N 0.07946 0.82828 0.60741 0.0
H364 H 0.76577 0.35284 0.92125 0.0
H365 H 0.91646 0.53368 0.97054 0.0
H366 H 0.75079 0.45748 0.90362 0.0
H367 H 0.9076 0.43323 1.02204 0.0
H368 H 0.85957 0.50593 0.9405 0.0
H369 H 0.82136 0.38138 0.95237 0.0
C370 C 0.77384 0.38181 0.92404 0.0
C371 C 0.75274 0.40255 0.91002 0.0
C372 C 0.86998 0.49 0.95846 0.0
C373 C 0.81771 0.43562 0.94516 0.0
C374 C 0.90256 0.50576 0.97559 0.0
C375 C 0.91699 0.48576 0.9989 0.0
C376 C 0.85182 0.45367 0.96404 0.0
C377 C 0.89751 0.44975 1.00446 0.0
C378 C 0.80587 0.39809 0.94177 0.0
C379 C 0.76592 0.44017 0.91362 0.0
N380 N 0.86617 0.4348 0.98693 0.0
N381 N 0.79747 0.45542 0.93073 0.0
H382 H 0.78107 0.60649 0.41026 0.0
H383 H 0.61718 0.62835 0.53184 0.0
H384 H 0.75673 0.70791 0.42639 0.0
H385 H 0.61419 0.52975 0.47611 0.0
H386 H 0.67544 0.65697 0.50305 0.0
H387 H 0.72581 0.57681 0.44315 0.0
C388 C 0.76424 0.62258 0.42055 0.0
C389 C 0.77393 0.65993 0.41549 0.0
C390 C 0.66202 0.629 0.49735 0.0
C391 C 0.71118 0.62612 0.45399 0.0
C392 C 0.62892 0.61262 0.51389 0.0
C393 C 0.61069 0.57668 0.50621 0.0
C394 C 0.67723 0.60909 0.47348 0.0
C395 C 0.62714 0.55759 0.48262 0.0
C396 C 0.73283 0.6056 0.43953 0.0
C397 C 0.75111 0.67927 0.43016 0.0
N398 N 0.65949 0.574 0.46713 0.0
N399 N 0.72098 0.6622 0.44881 0.0
H400 H 0.29284 0.36115 0.2161 0.0
H401 H 0.15396 0.37842 0.0678 0.0
H402 H 0.30121 0.32761 0.10842 0.0
H403 H 0.14146 0.40139 0.17784 0.0
H404 H 0.20977 0.36302 0.08099 0.0
H405 H 0.23966 0.37995 0.20128 0.0
C406 C 0.28362 0.35791 0.18923 0.0
C407 C 0.30135 0.34257 0.16343 0.0
C408 C 0.19478 0.37138 0.10224 0.0
C409 C 0.24018 0.36396 0.1463 0.0
C410 C 0.16298 0.38028 0.09472 0.0
C411 C 0.14289 0.39108 0.12179 0.0
C412 C 0.20673 0.37349 0.13705 0.0
C413 C 0.15572 0.39268 0.15622 0.0
C414 C 0.25312 0.36859 0.1808 0.0
C415 C 0.28822 0.33926 0.12906 0.0
N416 N 0.18679 0.38406 0.16283 0.0
N417 N 0.25831 0.34972 0.12149 0.0
H418 H 0.64895 0.3187 0.96079 0.0
H419 H 0.53733 0.11158 0.93704 0.0
H420 H 0.62405 0.2705 0.85807 0.0
H421 H 0.59145 0.15837 1.0319 0.0
H422 H 0.56194 0.16975 0.90772 0.0
H423 H 0.61991 0.26093 0.98733 0.0
C424 C 0.63734 0.29593 0.94372 0.0
C425 C 0.63968 0.29953 0.907 0.0
C426 C 0.56839 0.16712 0.93493 0.0
C427 C 0.60571 0.23264 0.9376 0.0
C428 C 0.55436 0.13393 0.95171 0.0
C429 C 0.56238 0.12982 0.98705 0.0
C430 C 0.59014 0.19657 0.95377 0.0
C431 C 0.58458 0.1599 1.00464 0.0
C432 C 0.62066 0.26282 0.95897 0.0
C433 C 0.62302 0.26906 0.88645 0.0
N434 N 0.59743 0.19177 0.98794 0.0
N435 N 0.60695 0.23683 0.902 0.0
H436 H 0.92962 0.76854 0.38547 0.0
H437 H 0.90313 0.9304 0.50204 0.0
H438 H 0.82515 0.78528 0.40756 0.0
H439 H 1.00369 0.93785 0.44668 0.0
H440 H 0.87488 0.87549 0.46919 0.0
H441 H 0.95848 0.8292 0.40835 0.0
C442 C 0.91275 0.78505 0.39468 0.0
C443 C 0.87487 0.77149 0.39515 0.0
C444 C 0.90303 0.88929 0.46389 0.0
C445 C 0.90767 0.8405 0.42176 0.0
C446 C 0.91919 0.9206 0.48272 0.0
C447 C 0.95579 0.93867 0.47706 0.0
C448 C 0.92374 0.87544 0.43967 0.0
C449 C 0.97531 0.9248 0.45165 0.0
C450 C 0.92924 0.81961 0.40782 0.0
C451 C 0.85442 0.79413 0.40757 0.0
N452 N 0.95916 0.89367 0.43417 0.0
N453 N 0.87104 0.82724 0.42073 0.0
H454 H 0.22745 0.68373 0.74732 0.0
H455 H 0.36828 0.68737 0.5889 0.0
H456 H 0.23143 0.74708 0.65449 0.0
H457 H 0.37349 0.64168 0.69055 0.0
H458 H 0.31311 0.70264 0.60825 0.0
H459 H 0.27512 0.66036 0.72219 0.0
C460 C 0.23816 0.69243 0.72142 0.0
C461 C 0.22577 0.7177 0.70314 0.0
C462 C 0.32632 0.68917 0.62622 0.0
C463 C 0.28069 0.69123 0.6742 0.0
C464 C 0.35771 0.68039 0.61519 0.0
C465 C 0.37572 0.6636 0.6383 0.0
C466 C 0.31268 0.68071 0.66046 0.0
C467 C 0.3609 0.65522 0.67208 0.0
C468 C 0.26545 0.67915 0.7071 0.0
C469 C 0.2402 0.72761 0.66944 0.0
N470 N 0.33036 0.66388 0.6821 0.0
N471 N 0.26723 0.71464 0.65617 0.0
H472 H 0.68827 0.76346 0.78049 0.0
H473 H 0.76979 0.95159 0.68568 0.0
H474 H 0.67774 0.86538 0.81978 0.0
H475 H 0.81785 0.86388 0.67393 0.0
H476 H 0.7227 0.91416 0.72328 0.0
H477 H 0.72356 0.79477 0.73043 0.0
C478 C 0.69291 0.79222 0.77853 0.0
C479 C 0.68006 0.81169 0.80481 0.0
C480 C 0.74336 0.90299 0.71219 0.0
C481 C 0.71954 0.84727 0.74716 0.0
C482 C 0.77034 0.92436 0.69088 0.0
C483 C 0.7983 0.91112 0.67737 0.0
C484 C 0.74414 0.86801 0.71997 0.0
C485 C 0.79692 0.87522 0.68399 0.0
C486 C 0.71289 0.80995 0.74986 0.0
C487 C 0.68633 0.84885 0.80022 0.0
N488 N 0.77048 0.85496 0.70524 0.0
N489 N 0.70571 0.86535 0.77213 0.0
H490 H 0.84537 0.22332 0.30634 0.0
H491 H 0.71364 0.2092 0.146 0.0
H492 H 0.81209 0.3132 0.26815 0.0
H493 H 0.75089 0.12145 0.18349 0.0
H494 H 0.75796 0.25054 0.18333 0.0
H495 H 0.82154 0.18942 0.25355 0.0
C496 C 0.83401 0.23637 0.2864 0.0
C497 C 0.8301 0.27096 0.29204 0.0
C498 C 0.7568 0.22232 0.18295 0.0
C499 C 0.80153 0.2317 0.23196 0.0
C500 C 0.73133 0.19868 0.16184 0.0
C501 C 0.72819 0.16172 0.16196 0.0
C502 C 0.77907 0.20885 0.20455 0.0
C503 C 0.75235 0.14969 0.18241 0.0
C504 C 0.82 0.21679 0.25634 0.0
C505 C 0.81482 0.28625 0.26528 0.0
N506 N 0.7764 0.1731 0.20319 0.0
N507 N 0.80041 0.26627 0.23671 0.0
H508 H 0.4162 0.6834 0.33107 0.0
H509 H 0.43058 0.51153 0.44 0.0
H510 H 0.3598 0.57392 0.30402 0.0
H511 H 0.48147 0.62077 0.47286 0.0
H512 H 0.40542 0.53423 0.38968 0.0
H513 H 0.4414 0.66159 0.38239 0.0
C514 C 0.40912 0.6548 0.33586 0.0
C515 C 0.38582 0.63044 0.3131 0.0
C516 C 0.42205 0.5533 0.40789 0.0
C517 C 0.41464 0.6052 0.37191 0.0
C518 C 0.43648 0.5403 0.43676 0.0
C519 C 0.4583 0.56415 0.46097 0.0
C520 C 0.42945 0.59056 0.4028 0.0
C521 C 0.46484 0.60123 0.45506 0.0
C522 C 0.4235 0.64233 0.36523 0.0
C523 C 0.37764 0.59368 0.3208 0.0
N524 N 0.4506 0.61322 0.42667 0.0
N525 N 0.39198 0.58225 0.34934 0.0
H526 H 0.16331 0.48823 0.79445 0.0
H527 H 0.05184 0.4419 0.97559 0.0
H528 H 0.11535 0.38034 0.83083 0.0
H529 H 0.09606 0.55006 0.93794 0.0
H530 H 0.07724 0.41925 0.92403 0.0
H531 H 0.14092 0.51162 0.84776 0.0
C532 C 0.14804 0.46949 0.81371 0.0
C533 C 0.14107 0.43234 0.80818 0.0
C534 C 0.0815 0.44794 0.92704 0.0
C535 C 0.11543 0.45883 0.86929 0.0
C536 C 0.06701 0.46098 0.95656 0.0
C537 C 0.07162 0.49803 0.96113 0.0
C538 C 0.10083 0.47203 0.9017 0.0
C539 C 0.09174 0.52131 0.93556 0.0
C540 C 0.1353 0.48284 0.84413 0.0
C541 C 0.12126 0.40919 0.83395 0.0
N542 N 0.10548 0.50792 0.9069 0.0
N543 N 0.10912 0.42282 0.86336 0.0
H544 H 0.64848 0.83 0.95588 0.0
H545 H 0.49511 0.93269 0.96286 0.0
H546 H 0.56671 0.81446 0.87665 0.0
H547 H 0.59893 0.97195 1.01245 0.0
H548 H 0.51439 0.88197 0.9383 0.0
H549 H 0.62263 0.87362 0.98567 0.0
C550 C 0.62452 0.83512 0.94525 0.0
C551 C 0.60972 0.8187 0.91374 0.0
C552 C 0.53285 0.90176 0.95456 0.0
C553 C 0.58047 0.86899 0.94727 0.0
C554 C 0.52194 0.9307 0.96851 0.0
C555 C 0.54559 0.95675 0.98946 0.0
C556 C 0.56735 0.8986 0.96219 0.0
C557 C 0.57997 0.95275 0.99611 0.0
C558 C 0.61007 0.86032 0.962 0.0
C559 C 0.57902 0.82676 0.90079 0.0
N560 N 0.58974 0.92416 0.98264 0.0
N561 N 0.56546 0.85153 0.91753 0.0
H562 H 0.98352 0.2582 0.38151 0.0
H563 H 0.92593 0.08989 0.50953 0.0
H564 H 0.88924 0.23568 0.44957 0.0
H565 H 0.03335 0.12801 0.46434 0.0
H566 H 0.9102 0.1404 0.48337 0.0
H567 H 1.00098 0.20834 0.40804 0.0
C568 C 0.9667 0.24292 0.40222 0.0
C569 C 0.93502 0.25108 0.41343 0.0
C570 C 0.93722 0.13773 0.47918 0.0
C571 C 0.95437 0.19391 0.44342 0.0
C572 C 0.94619 0.10875 0.49395 0.0
C573 C 0.98105 0.10468 0.48916 0.0
C574 C 0.96316 0.16273 0.45919 0.0
C575 C 1.00618 0.13013 0.4688 0.0
C576 C 0.97661 0.21451 0.41728 0.0
C577 C 0.91398 0.23042 0.44018 0.0
N578 N 0.99671 0.15806 0.45449 0.0
N579 N 0.92393 0.20265 0.45411 0.0
H580 H 0.28896 0.61373 0.18221 0.0
H581 H 0.1109 0.63585 0.0893 0.0
H582 H 0.25928 0.71294 0.17825 0.0
H583 H 0.13205 0.53293 0.09975 0.0
H584 H 0.16616 0.66399 0.12102 0.0
H585 H 0.23237 0.58302 0.15241 0.0
C586 C 0.27052 0.62903 0.17537 0.0
C587 C 0.2793 0.66618 0.18252 0.0
C588 C 0.15883 0.63524 0.11644 0.0
C589 C 0.21456 0.6312 0.14799 0.0
C590 C 0.12718 0.61908 0.09815 0.0
C591 C 0.1166 0.58185 0.09165 0.0
C592 C 0.18051 0.61424 0.12847 0.0
C593 C 0.13904 0.56171 0.10403 0.0
C594 C 0.23828 0.6115 0.15815 0.0
C595 C 0.25427 0.68451 0.17272 0.0
N596 N 0.1699 0.57813 0.12178 0.0
N597 N 0.22335 0.66695 0.15595 0.0
H598 H 0.26683 0.34294 0.67633 0.0
H599 H 0.39005 0.52746 0.59673 0.0
H600 H 0.23311 0.44016 0.6765 0.0
H601 H 0.41312 0.42506 0.58489 0.0
H602 H 0.33369 0.49744 0.62791 0.0
H603 H 0.32218 0.37422 0.64529 0.0
C604 C 0.27099 0.37088 0.66969 0.0
C605 C 0.24506 0.38883 0.67875 0.0
C606 C 0.35109 0.48161 0.61835 0.0
C607 C 0.30887 0.4251 0.64341 0.0
C608 C 0.38323 0.4987 0.60051 0.0
C609 C 0.40641 0.47876 0.58816 0.0
C610 C 0.34223 0.44442 0.62401 0.0
C611 C 0.39619 0.44159 0.5939 0.0
C612 C 0.30272 0.3888 0.65204 0.0
C613 C 0.25244 0.42532 0.67019 0.0
N614 N 0.36499 0.42572 0.61146 0.0
N615 N 0.28365 0.44226 0.65289 0.0
H616 H 0.73146 0.72569 0.95038 0.0
H617 H 0.90176 0.65633 0.89358 0.0
H618 H 0.74102 0.67479 0.85049 0.0
H619 H 0.88261 0.68771 0.99982 0.0
H620 H 0.84527 0.66774 0.87606 0.0
H621 H 0.78855 0.71555 0.96821 0.0
C622 C 0.74549 0.71221 0.93228 0.0
C623 C 0.73161 0.70099 0.8989 0.0
C624 C 0.85344 0.6722 0.9032 0.0
C625 C 0.79696 0.68969 0.91893 0.0
C626 C 0.88585 0.66601 0.91313 0.0
C627 C 0.89685 0.67105 0.9482 0.0
C628 C 0.83197 0.68374 0.92847 0.0
C629 C 0.87492 0.68313 0.97257 0.0
C630 C 0.77808 0.70647 0.94245 0.0
C631 C 0.75086 0.68372 0.87649 0.0
N632 N 0.84352 0.68908 0.96224 0.0
N633 N 0.78266 0.67874 0.88683 0.0
H634 H 0.3331 0.79237 0.17962 0.0
H635 H 0.51766 0.93537 0.11842 0.0
H636 H 0.43829 0.7753 0.19111 0.0
H637 H 0.41155 0.94558 0.09605 0.0
H638 H 0.48952 0.87919 0.14884 0.0
H639 H 0.36171 0.85042 0.15298 0.0
C640 C 0.36225 0.80069 0.1765 0.0
C641 C 0.38315 0.77835 0.18737 0.0
C642 C 0.47236 0.89374 0.1374 0.0
C643 C 0.41637 0.84572 0.15702 0.0
C644 C 0.48842 0.926 0.12001 0.0
C645 C 0.46704 0.94552 0.10448 0.0
C646 C 0.43449 0.88066 0.13955 0.0
C647 C 0.42925 0.93165 0.10751 0.0
C648 C 0.37861 0.83407 0.16136 0.0
C649 C 0.42095 0.79142 0.18336 0.0
N650 N 0.41427 0.90019 0.1246 0.0
N651 N 0.43626 0.82405 0.16841 0.0
H652 H 0.19289 0.2617 0.68251 0.0
H653 H 1.00847 0.1219 0.62082 0.0
H654 H 0.08816 0.28114 0.69296 0.0
H655 H 0.11407 0.10924 0.59573 0.0
H656 H 0.03697 0.1769 0.65313 0.0
H657 H 0.16417 0.20277 0.65665 0.0
C658 C 0.16381 0.25357 0.67943 0.0
C659 C 0.14297 0.27671 0.68957 0.0
C660 C 0.05396 0.16207 0.6407 0.0
C661 C 0.10985 0.2089 0.66024 0.0
C662 C 0.0377 0.13053 0.62221 0.0
C663 C 0.05889 0.11086 0.60527 0.0
C664 C 0.09178 0.17425 0.64248 0.0
C665 C 0.09663 0.12351 0.60825 0.0
C666 C 0.14744 0.21984 0.66475 0.0
C667 C 0.10532 0.26426 0.68571 0.0
N668 N 0.11188 0.15447 0.62638 0.0
N669 N 0.09003 0.23133 0.67115 0.0
H670 H 0.73726 0.27947 0.36547 0.0
H671 H 0.66246 0.4061 0.49576 0.0
H672 H 0.80807 0.36356 0.42746 0.0
H673 H 0.60226 0.34739 0.40853 0.0
H674 H 0.71424 0.38492 0.47754 0.0
H675 H 0.68557 0.29777 0.38811 0.0
C676 C 0.742 0.302 0.3837 0.0
C677 C 0.77721 0.32056 0.39396 0.0
C678 C 0.68961 0.37666 0.46253 0.0
C679 C 0.71779 0.34113 0.42063 0.0
C680 C 0.66006 0.38886 0.47276 0.0
C681 C 0.62784 0.37871 0.45357 0.0
C682 C 0.68684 0.35384 0.43314 0.0
C683 C 0.62621 0.35559 0.42449 0.0
C684 C 0.7124 0.31228 0.39676 0.0
C685 C 0.78144 0.34861 0.41873 0.0
N686 N 0.65526 0.34399 0.41519 0.0
N687 N 0.75204 0.3582 0.43113 0.0
loop_
_geom_bond_atom_site_label_1
_geom_bond_atom_site_label_2
_geom_bond_distance
_geom_bond_site_symmetry_2
_ccdc_geom_bond_type
H0 C5 0.930 . S
H1 C8 0.930 . S
H2 C10 0.930 . S
H3 C4 1.016 . S
C4 H3 1.016 . S
C4 N11 1.286 . S
C5 H0 0.930 . S
C5 C6 1.397 . S
C5 C7 1.361 . S
C6 C5 1.397 . S
C6 C10 1.390 . S
C7 C5 1.361 . S
C7 C8 1.393 . S
C7 N11 1.413 . S
C8 H1 0.930 . S
C8 C7 1.393 . S
C8 C9 1.399 . S
C9 C8 1.399 . S
C9 C10 1.381 . S
C10 H2 0.930 . S
C10 C6 1.390 . S
C10 C9 1.381 . S
N11 C4 1.286 . S
N11 C7 1.413 . S
H12 C17 0.930 . S
H13 C20 0.930 . S
H14 C22 0.930 . S
H15 C16 1.016 . S
C16 H15 1.016 . S
C16 N23 1.286 . S
C17 H12 0.930 . S
C17 C18 1.397 . S
C17 C19 1.361 . S
C18 C17 1.397 . S
C18 C22 1.390 . S
C19 C17 1.361 . S
C19 C20 1.393 . S
C19 N23 1.413 . S
C20 H13 0.930 . S
C20 C19 1.393 . S
C20 C21 1.399 . S
C21 C20 1.399 . S
C21 C22 1.381 . S
C22 H14 0.930 . S
C22 C18 1.390 . S
C22 C21 1.381 . S
N23 C16 1.286 . S
N23 C19 1.413 . S
H24 C29 0.930 . S
H25 C32 0.930 . S
H26 C34 0.930 . S
H27 C28 1.016 . S
C28 H27 1.016 . S
C28 N35 1.286 . S
C29 H24 0.930 . S
C29 C30 1.397 . S
C29 C31 1.361 . S
C30 C29 1.397 . S
C30 C34 1.390 . S
C31 C29 1.361 . S
C31 C32 1.393 . S
C31 N35 1.413 . S
C32 H25 0.930 . S
C32 C31 1.393 . S
C32 C33 1.399 . S
C33 C32 1.399 . S
C33 C34 1.381 . S
C34 H26 0.930 . S
C34 C30 1.390 . S
C34 C33 1.381 . S
N35 C28 1.286 . S
N35 C31 1.413 . S
H36 C41 0.930 . S
H37 C44 0.930 . S
H38 C46 0.930 . S
H39 C40 1.016 . S
C40 H39 1.016 . S
C40 N47 1.286 . S
C41 H36 0.930 . S
C41 C42 1.397 . S
C41 C43 1.361 . S
C42 C41 1.397 . S
C42 C46 1.390 . S
C43 C41 1.361 . S
C43 C44 1.393 . S
C43 N47 1.413 . S
C44 H37 0.930 . S
C44 C43 1.393 . S
C44 C45 1.399 . S
C45 C44 1.399 . S
C45 C46 1.381 . S
C46 H38 0.930 . S
C46 C42 1.390 . S
C46 C45 1.381 . S
N47 C40 1.286 . S
N47 C43 1.413 . S
H48 C53 0.930 . S
H49 C56 0.930 . S
H50 C58 0.930 . S
H51 C52 1.016 . S
C52 H51 1.016 . S
C52 N59 1.286 . S
C53 H48 0.930 . S
C53 C54 1.397 . S
C53 C55 1.361 . S
C54 C53 1.397 . S
C54 C58 1.390 . S
C55 C53 1.361 . S
C55 C56 1.393 . S
C55 N59 1.413 . S
C56 H49 0.930 . S
C56 C55 1.393 . S
C56 C57 1.399 . S
C57 C56 1.399 . S
C57 C58 1.381 . S
C58 H50 0.930 . S
C58 C54 1.390 . S
C58 C57 1.381 . S
N59 C52 1.286 . S
N59 C55 1.413 . S
H60 C65 0.930 . S
H61 C68 0.930 . S
H62 C70 0.930 . S
H63 C64 1.016 . S
C64 H63 1.016 . S
C64 N71 1.286 . S
C65 H60 0.930 . S
C65 C66 1.397 . S
C65 C67 1.361 . S
C66 C65 1.397 . S
C66 C70 1.390 . S
C67 C65 1.361 . S
C67 C68 1.393 . S
C67 N71 1.413 . S
C68 H61 0.930 . S
C68 C67 1.393 . S
C68 C69 1.399 . S
C69 C68 1.399 . S
C69 C70 1.381 . S
C70 H62 0.930 . S
C70 C66 1.390 . S
C70 C69 1.381 . S
N71 C64 1.286 . S
N71 C67 1.413 . S
H72 C77 0.930 . S
H73 C80 0.930 . S
H74 C82 0.930 . S
H75 C76 1.016 . S
C76 H75 1.016 . S
C76 N83 1.286 . S
C77 H72 0.930 . S
C77 C78 1.397 . S
C77 C79 1.361 . S
C78 C77 1.397 . S
C78 C82 1.390 . S
C79 C77 1.361 . S
C79 C80 1.393 . S
C79 N83 1.413 . S
C80 H73 0.930 . S
C80 C79 1.393 . S
C80 C81 1.399 . S
C81 C80 1.399 . S
C81 C82 1.381 . S
C82 H74 0.930 . S
C82 C78 1.390 . S
C82 C81 1.381 . S
N83 C76 1.286 . S
N83 C79 1.413 . S
H84 C89 0.930 . S
H85 C92 0.930 . S
H86 C94 0.930 . S
H87 C88 1.016 . S
C88 H87 1.016 . S
C88 N95 1.286 . S
C89 H84 0.930 . S
C89 C90 1.397 . S
C89 C91 1.361 . S
C90 C89 1.397 . S
C90 C94 1.390 . S
C91 C89 1.361 . S
C91 C92 1.393 . S
C91 N95 1.413 . S
C92 H85 0.930 . S
C92 C91 1.393 . S
C92 C93 1.399 . S
C93 C92 1.399 . S
C93 C94 1.381 . S
C94 H86 0.930 . S
C94 C90 1.390 . S
C94 C93 1.381 . S
N95 C88 1.286 . S
N95 C91 1.413 . S
Tb96 C105 2.764 . S
Tb96 O106 2.325 1_455 S
Tb96 O109 2.303 . S
Tb96 O113 2.322 1_545 S
Tb96 O114 2.349 1_545 S
Tb96 O117 2.415 . S
Tb96 O118 2.399 . S
Tb97 O107 2.308 1_565 S
Tb97 O108 2.335 1_565 S
Tb97 O110 2.431 . S
Tb97 O111 2.402 . S
Tb97 O112 2.338 1_655 S
Tb97 O115 2.315 . S
Tb97 C126 2.775 . S
C98 O114 1.261 1_655 S
C98 O115 1.257 . S
C99 C102 1.358 . S
C99 C103 1.332 . S
C99 C105 1.504 . S
C100 C101 1.373 . S
C100 C104 1.308 . S
C101 C100 1.373 . S
C101 C102 1.429 . S
C101 H128 0.932 . S
C102 C99 1.358 . S
C102 C101 1.429 . S
C102 H129 0.930 . S
C103 C99 1.332 . S
C103 C104 1.394 . S
C103 H130 0.932 . S
C104 C100 1.308 . S
C104 C103 1.394 . S
C104 H131 0.929 . S
C105 Tb96 2.764 . S
C105 C99 1.504 . S
C105 O117 1.239 . S
C105 O118 1.263 . S
O106 Tb96 2.325 1_655 S
O106 C116 1.237 . S
O107 Tb97 2.308 1_545 S
O107 C116 1.257 . S
O108 Tb97 2.335 1_545 S
O108 C119 1.261 1_655 S
O109 Tb96 2.303 . S
O109 C119 1.257 . S
O110 Tb97 2.431 . S
O110 C126 1.239 . S
O111 Tb97 2.402 . S
O111 C126 1.263 . S
O112 Tb97 2.338 1_455 S
O112 C127 1.236 . S
O113 Tb96 2.322 1_565 S
O113 C127 1.257 . S
O114 Tb96 2.349 1_565 S
O114 C98 1.261 1_455 S
O115 Tb97 2.315 . S
O115 C98 1.257 . S
C116 O106 1.237 . S
C116 O107 1.257 . S
O117 Tb96 2.415 . S
O117 C105 1.239 . S
O118 Tb96 2.399 . S
O118 C105 1.263 . S
C119 O108 1.261 1_455 S
C119 O109 1.257 . S
C120 C123 1.358 . S
C120 C124 1.332 . S
C120 C126 1.504 . S
C121 C122 1.373 . S
C121 C125 1.308 . S
C122 C121 1.373 . S
C122 C123 1.429 . S
C122 H132 0.932 . S
C123 C120 1.358 . S
C123 C122 1.429 . S
C123 H133 0.930 . S
C124 C120 1.332 . S
C124 C125 1.394 . S
C124 H134 0.932 . S
C125 C121 1.308 . S
C125 C124 1.394 . S
C125 H135 0.929 . S
C126 Tb97 2.775 . S
C126 O110 1.239 . S
C126 O111 1.263 . S
C126 C120 1.504 . S
C127 O112 1.236 . S
C127 O113 1.257 . S
H128 C101 0.932 . S
H129 C102 0.930 . S
H130 C103 0.932 . S
H131 C104 0.929 . S
H132 C122 0.932 . S
H133 C123 0.930 . S
H134 C124 0.932 . S
H135 C125 0.929 . S
Tb136 C145 2.764 . S
Tb136 O146 2.325 . S
Tb136 O149 2.303 . S
Tb136 O153 2.322 1_545 S
Tb136 O154 2.349 1_545 S
Tb136 O157 2.415 . S
Tb136 O158 2.399 . S
Tb137 O147 2.322 . S
Tb137 O148 2.349 1_556 S
Tb137 O150 2.415 1_545 S
Tb137 O151 2.399 1_545 S
Tb137 O152 2.325 1_546 S
Tb137 O155 2.303 1_545 S
Tb137 C166 2.764 1_545 S
C138 O154 1.261 1_556 S
C138 O155 1.257 . S
C139 C142 1.358 . S
C139 C143 1.332 . S
C139 C145 1.504 . S
C140 C141 1.373 . S
C140 C144 1.308 . S
C141 C140 1.373 . S
C141 C142 1.429 . S
C141 H168 0.932 . S
C142 C139 1.358 . S
C142 C141 1.429 . S
C142 H169 0.930 . S
C143 C139 1.332 . S
C143 C144 1.394 . S
C143 H170 0.932 . S
C144 C140 1.308 . S
C144 C143 1.394 . S
C144 H171 0.929 . S
C145 Tb136 2.764 . S
C145 C139 1.504 . S
C145 O157 1.239 . S
C145 O158 1.263 . S
O146 Tb136 2.325 . S
O146 C156 1.236 1_554 S
O147 Tb137 2.322 . S
O147 C156 1.257 . S
O148 Tb137 2.349 1_554 S
O148 C159 1.261 . S
O149 Tb136 2.303 . S
O149 C159 1.257 . S
O150 Tb137 2.415 1_565 S
O150 C166 1.239 . S
O151 Tb137 2.399 1_565 S
O151 C166 1.263 . S
O152 Tb137 2.325 1_564 S
O152 C167 1.236 . S
O153 Tb136 2.322 1_565 S
O153 C167 1.257 . S
O154 Tb136 2.349 1_565 S
O154 C138 1.261 1_554 S
O155 Tb137 2.303 1_565 S
O155 C138 1.257 . S
C156 O146 1.236 1_556 S
C156 O147 1.257 . S
O157 Tb136 2.415 . S
O157 C145 1.239 . S
O158 Tb136 2.399 . S
O158 C145 1.263 . S
C159 O148 1.261 . S
C159 O149 1.257 . S
C160 C163 1.358 . S
C160 C164 1.332 . S
C160 C166 1.504 . S
C161 C162 1.373 . S
C161 C165 1.308 . S
C162 C161 1.373 . S
C162 C163 1.429 . S
C162 H172 0.932 . S
C163 C160 1.358 . S
C163 C162 1.429 . S
C163 H173 0.930 . S
C164 C160 1.332 . S
C164 C165 1.394 . S
C164 H174 0.932 . S
C165 C161 1.308 . S
C165 C164 1.394 . S
C165 H175 0.929 . S
C166 Tb137 2.764 1_565 S
C166 O150 1.239 . S
C166 O151 1.263 . S
C166 C160 1.504 . S
C167 O152 1.236 . S
C167 O153 1.257 . S
H168 C141 0.932 . S
H169 C142 0.930 . S
H170 C143 0.932 . S
H171 C144 0.929 . S
H172 C162 0.932 . S
H173 C163 0.930 . S
H174 C164 0.932 . S
H175 C165 0.929 . S
Tb176 C185 2.764 . S
Tb176 O186 2.325 . S
Tb176 O189 2.303 . S
Tb176 O193 2.322 . S
Tb176 O194 2.349 . S
Tb176 O197 2.415 . S
Tb176 O198 2.399 . S
Tb177 O187 2.322 . S
Tb177 O188 2.349 . S
Tb177 O190 2.415 . S
Tb177 O191 2.399 . S
Tb177 O192 2.325 . S
Tb177 O195 2.303 . S
Tb177 C206 2.764 . S
C178 O194 1.261 . S
C178 O195 1.257 . S
C179 C182 1.358 . S
C179 C183 1.332 . S
C179 C185 1.504 . S
C180 C181 1.373 . S
C180 C184 1.308 . S
C181 C180 1.373 . S
C181 C182 1.429 . S
C181 H208 0.932 . S
C182 C179 1.358 . S
C182 C181 1.429 . S
C182 H209 0.930 . S
C183 C179 1.332 . S
C183 C184 1.394 . S
C183 H210 0.932 . S
C184 C180 1.308 . S
C184 C183 1.394 . S
C184 H211 0.929 . S
C185 Tb176 2.764 . S
C185 C179 1.504 . S
C185 O197 1.239 . S
C185 O198 1.263 . S
O186 Tb176 2.325 . S
O186 C196 1.236 . S
O187 Tb177 2.322 . S
O187 C196 1.257 . S
O188 Tb177 2.349 . S
O188 C199 1.261 . S
O189 Tb176 2.303 . S
O189 C199 1.257 . S
O190 Tb177 2.415 . S
O190 C206 1.239 . S
O191 Tb177 2.399 . S
O191 C206 1.263 . S
O192 Tb177 2.325 . S
O192 C207 1.236 . S
O193 Tb176 2.322 . S
O193 C207 1.257 . S
O194 Tb176 2.349 . S
O194 C178 1.261 . S
O195 Tb177 2.303 . S
O195 C178 1.257 . S
C196 O186 1.236 . S
C196 O187 1.257 . S
O197 Tb176 2.415 . S
O197 C185 1.239 . S
O198 Tb176 2.399 . S
O198 C185 1.263 . S
C199 O188 1.261 . S
C199 O189 1.257 . S
C200 C203 1.358 . S
C200 C204 1.332 . S
C200 C206 1.504 . S
C201 C202 1.373 . S
C201 C205 1.308 . S
C202 C201 1.373 . S
C202 C203 1.429 . S
C202 H212 0.932 . S
C203 C200 1.358 . S
C203 C202 1.429 . S
C203 H213 0.930 . S
C204 C200 1.332 . S
C204 C205 1.394 . S
C204 H214 0.932 . S
C205 C201 1.308 . S
C205 C204 1.394 . S
C205 H215 0.929 . S
C206 Tb177 2.764 . S
C206 O190 1.239 . S
C206 O191 1.263 . S
C206 C200 1.504 . S
C207 O192 1.236 . S
C207 O193 1.257 . S
H208 C181 0.932 . S
H209 C182 0.930 . S
H210 C183 0.932 . S
H211 C184 0.929 . S
H212 C202 0.932 . S
H213 C203 0.930 . S
H214 C204 0.932 . S
H215 C205 0.929 . S
Tb216 C225 2.764 1_455 S
Tb216 O226 2.325 1_455 S
Tb216 O229 2.303 1_456 S
Tb216 O233 2.322 1_556 S
Tb216 O234 2.349 . S
Tb216 O237 2.415 1_455 S
Tb216 O238 2.399 1_455 S
Tb217 O227 2.322 1_455 S
Tb217 O228 2.349 1_455 S
Tb217 O230 2.415 . S
Tb217 O231 2.399 . S
Tb217 O232 2.325 . S
Tb217 O235 2.303 1_554 S
Tb217 C246 2.764 . S
C218 O234 1.261 . S
C218 O235 1.257 . S
C219 C222 1.358 . S
C219 C223 1.332 . S
C219 C225 1.504 . S
C220 C221 1.373 . S
C220 C224 1.308 . S
C221 C220 1.373 . S
C221 C222 1.429 . S
C221 H248 0.932 . S
C222 C219 1.358 . S
C222 C221 1.429 . S
C222 H249 0.930 . S
C223 C219 1.332 . S
C223 C224 1.394 . S
C223 H250 0.932 . S
C224 C220 1.308 . S
C224 C223 1.394 . S
C224 H251 0.929 . S
C225 Tb216 2.764 1_655 S
C225 C219 1.504 . S
C225 O237 1.239 . S
C225 O238 1.263 . S
O226 Tb216 2.325 1_655 S
O226 C236 1.236 . S
O227 Tb217 2.322 1_655 S
O227 C236 1.257 1_554 S
O228 Tb217 2.349 1_655 S
O228 C239 1.261 . S
O229 Tb216 2.303 1_654 S
O229 C239 1.257 . S
O230 Tb217 2.415 . S
O230 C246 1.239 . S
O231 Tb217 2.399 . S
O231 C246 1.263 . S
O232 Tb217 2.325 . S
O232 C247 1.236 . S
O233 Tb216 2.322 1_554 S
O233 C247 1.257 . S
O234 Tb216 2.349 . S
O234 C218 1.261 . S
O235 Tb217 2.303 1_556 S
O235 C218 1.257 . S
C236 O226 1.236 . S
C236 O227 1.257 1_556 S
O237 Tb216 2.415 1_655 S
O237 C225 1.239 . S
O238 Tb216 2.399 1_655 S
O238 C225 1.263 . S
C239 O228 1.261 . S
C239 O229 1.257 . S
C240 C243 1.358 . S
C240 C244 1.332 . S
C240 C246 1.504 . S
C241 C242 1.373 . S
C241 C245 1.308 . S
C242 C241 1.373 . S
C242 C243 1.429 . S
C242 H252 0.932 . S
C243 C240 1.358 . S
C243 C242 1.429 . S
C243 H253 0.930 . S
C244 C240 1.332 . S
C244 C245 1.394 . S
C244 H254 0.932 . S
C245 C241 1.308 . S
C245 C244 1.394 . S
C245 H255 0.929 . S
C246 Tb217 2.764 . S
C246 O230 1.239 . S
C246 O231 1.263 . S
C246 C240 1.504 . S
C247 O232 1.236 . S
C247 O233 1.257 . S
H248 C221 0.932 . S
H249 C222 0.930 . S
H250 C223 0.932 . S
H251 C224 0.929 . S
H252 C242 0.932 . S
H253 C243 0.930 . S
H254 C244 0.932 . S
H255 C245 0.929 . S
H256 C262 0.930 . S
H257 C266 0.930 . S
H258 C271 0.929 . S
H259 C269 0.929 . S
H260 C264 0.929 . S
H261 C270 0.929 . S
C262 H256 0.930 . S
C262 C263 1.367 . S
C262 C270 1.378 . S
C263 C262 1.367 . S
C263 C271 1.433 . S
C264 H260 0.929 . S
C264 C266 1.378 . S
C264 C268 1.350 . S
C265 C268 1.463 . S
C265 C270 1.350 . S
C265 N273 1.427 . S
C266 H257 0.930 . S
C266 C264 1.378 . S
C266 C267 1.367 . S
C267 C266 1.367 . S
C267 C269 1.433 . S
C268 C264 1.350 . S
C268 C265 1.463 . S
C268 N272 1.427 . S
C269 H259 0.929 . S
C269 C267 1.433 . S
C269 N272 1.384 . S
C270 H261 0.929 . S
C270 C262 1.378 . S
C270 C265 1.350 . S
C271 H258 0.929 . S
C271 C263 1.433 . S
C271 N273 1.384 . S
N272 C268 1.427 . S
N272 C269 1.384 . S
N273 C265 1.427 . S
N273 C271 1.384 . S
H274 C280 0.930 . S
H275 C284 0.930 . S
H276 C289 0.929 . S
H277 C287 0.929 . S
H278 C282 0.929 . S
H279 C288 0.929 . S
C280 H274 0.930 . S
C280 C281 1.367 . S
C280 C288 1.378 . S
C281 C280 1.367 . S
C281 C289 1.433 . S
C282 H278 0.929 . S
C282 C284 1.378 . S
C282 C286 1.350 . S
C283 C286 1.463 . S
C283 C288 1.350 . S
C283 N291 1.427 . S
C284 H275 0.930 . S
C284 C282 1.378 . S
C284 C285 1.367 . S
C285 C284 1.367 . S
C285 C287 1.433 . S
C286 C282 1.350 . S
C286 C283 1.463 . S
C286 N290 1.427 . S
C287 H277 0.929 . S
C287 C285 1.433 . S
C287 N290 1.384 . S
C288 H279 0.929 . S
C288 C280 1.378 . S
C288 C283 1.350 . S
C289 H276 0.929 . S
C289 C281 1.433 . S
C289 N291 1.384 . S
N290 C286 1.427 . S
N290 C287 1.384 . S
N291 C283 1.427 . S
N291 C289 1.384 . S
H292 C298 0.930 . S
H293 C302 0.930 . S
H294 C307 0.929 . S
H295 C305 0.929 . S
H296 C300 0.929 . S
H297 C306 0.929 . S
C298 H292 0.930 . S
C298 C299 1.367 . S
C298 C306 1.378 . S
C299 C298 1.367 . S
C299 C307 1.433 . S
C300 H296 0.929 . S
C300 C302 1.378 . S
C300 C304 1.350 . S
C301 C304 1.463 . S
C301 C306 1.350 . S
C301 N309 1.427 . S
C302 H293 0.930 . S
C302 C300 1.378 . S
C302 C303 1.367 . S
C303 C302 1.367 . S
C303 C305 1.433 . S
C304 C300 1.350 . S
C304 C301 1.463 . S
C304 N308 1.427 . S
C305 H295 0.929 . S
C305 C303 1.433 . S
C305 N308 1.384 . S
C306 H297 0.929 . S
C306 C298 1.378 . S
C306 C301 1.350 . S
C307 H294 0.929 . S
C307 C299 1.433 . S
C307 N309 1.384 . S
N308 C304 1.427 . S
N308 C305 1.384 . S
N309 C301 1.427 . S
N309 C307 1.384 . S
H310 C316 0.930 . S
H311 C320 0.930 . S
H312 C325 0.929 . S
H313 C323 0.929 . S
H314 C318 0.929 . S
H315 C324 0.929 . S
C316 H310 0.930 . S
C316 C317 1.367 . S
C316 C324 1.378 . S
C317 C316 1.367 . S
C317 C325 1.433 . S
C318 H314 0.929 . S
C318 C320 1.378 . S
C318 C322 1.350 . S
C319 C322 1.463 . S
C319 C324 1.350 . S
C319 N327 1.427 . S
C320 H311 0.930 . S
C320 C318 1.378 . S
C320 C321 1.367 . S
C321 C320 1.367 . S
C321 C323 1.433 . S
C322 C318 1.350 . S
C322 C319 1.463 . S
C322 N326 1.427 . S
C323 H313 0.929 . S
C323 C321 1.433 . S
C323 N326 1.384 . S
C324 H315 0.929 . S
C324 C316 1.378 . S
C324 C319 1.350 . S
C325 H312 0.929 . S
C325 C317 1.433 . S
C325 N327 1.384 . S
N326 C322 1.427 . S
N326 C323 1.384 . S
N327 C319 1.427 . S
N327 C325 1.384 . S
H328 C334 0.930 . S
H329 C338 0.930 . S
H330 C343 0.929 . S
H331 C341 0.929 . S
H332 C336 0.929 . S
H333 C342 0.929 . S
C334 H328 0.930 . S
C334 C335 1.367 . S
C334 C342 1.378 . S
C335 C334 1.367 . S
C335 C343 1.433 . S
C336 H332 0.929 . S
C336 C338 1.378 . S
C336 C340 1.350 . S
C337 C340 1.463 . S
C337 C342 1.350 . S
C337 N345 1.427 . S
C338 H329 0.930 . S
C338 C336 1.378 . S
C338 C339 1.367 . S
C339 C338 1.367 . S
C339 C341 1.433 . S
C340 C336 1.350 . S
C340 C337 1.463 . S
C340 N344 1.427 . S
C341 H331 0.929 . S
C341 C339 1.433 . S
C341 N344 1.384 . S
C342 H333 0.929 . S
C342 C334 1.378 . S
C342 C337 1.350 . S
C343 H330 0.929 . S
C343 C335 1.433 . S
C343 N345 1.384 . S
N344 C340 1.427 . S
N344 C341 1.384 . S
N345 C337 1.427 . S
N345 C343 1.384 . S
H346 C352 0.930 . S
H347 C356 0.930 1_655 S
H348 C361 0.929 . S
H349 C359 0.929 . S
H350 C354 0.929 1_655 S
H351 C360 0.929 . S
C352 H346 0.930 . S
C352 C353 1.367 . S
C352 C360 1.378 . S
C353 C352 1.367 . S
C353 C361 1.433 . S
C354 H350 0.929 1_455 S
C354 C356 1.378 . S
C354 C358 1.350 . S
C355 C358 1.463 . S
C355 C360 1.350 . S
C355 N363 1.427 . S
C356 H347 0.930 1_455 S
C356 C354 1.378 . S
C356 C357 1.367 . S
C357 C356 1.367 . S
C357 C359 1.433 . S
C358 C354 1.350 . S
C358 C355 1.463 . S
C358 N362 1.427 . S
C359 H349 0.929 . S
C359 C357 1.433 . S
C359 N362 1.384 . S
C360 H351 0.929 . S
C360 C352 1.378 . S
C360 C355 1.350 . S
C361 H348 0.929 . S
C361 C353 1.433 . S
C361 N363 1.384 . S
N362 C358 1.427 . S
N362 C359 1.384 . S
N363 C355 1.427 . S
N363 C361 1.384 . S
H364 C370 0.930 . S
H365 C374 0.930 . S
H366 C379 0.929 . S
H367 C377 0.929 . S
H368 C372 0.929 . S
H369 C378 0.929 . S
C370 H364 0.930 . S
C370 C371 1.367 . S
C370 C378 1.378 . S
C371 C370 1.367 . S
C371 C379 1.433 . S
C372 H368 0.929 . S
C372 C374 1.378 . S
C372 C376 1.350 . S
C373 C376 1.463 . S
C373 C378 1.350 . S
C373 N381 1.427 . S
C374 H365 0.930 . S
C374 C372 1.378 . S
C374 C375 1.367 . S
C375 C374 1.367 . S
C375 C377 1.433 . S
C376 C372 1.350 . S
C376 C373 1.463 . S
C376 N380 1.427 . S
C377 H367 0.929 . S
C377 C375 1.433 . S
C377 N380 1.384 . S
C378 H369 0.929 . S
C378 C370 1.378 . S
C378 C373 1.350 . S
C379 H366 0.929 . S
C379 C371 1.433 . S
C379 N381 1.384 . S
N380 C376 1.427 . S
N380 C377 1.384 . S
N381 C373 1.427 . S
N381 C379 1.384 . S
H382 C388 0.930 . S
H383 C392 0.930 . S
H384 C397 0.929 . S
H385 C395 0.929 . S
H386 C390 0.929 . S
H387 C396 0.929 . S
C388 H382 0.930 . S
C388 C389 1.367 . S
C388 C396 1.378 . S
C389 C388 1.367 . S
C389 C397 1.433 . S
C390 H386 0.929 . S
C390 C392 1.378 . S
C390 C394 1.350 . S
C391 C394 1.463 . S
C391 C396 1.350 . S
C391 N399 1.427 . S
C392 H383 0.930 . S
C392 C390 1.378 . S
C392 C393 1.367 . S
C393 C392 1.367 . S
C393 C395 1.433 . S
C394 C390 1.350 . S
C394 C391 1.463 . S
C394 N398 1.427 . S
C395 H385 0.929 . S
C395 C393 1.433 . S
C395 N398 1.384 . S
C396 H387 0.929 . S
C396 C388 1.378 . S
C396 C391 1.350 . S
C397 H384 0.929 . S
C397 C389 1.433 . S
C397 N399 1.384 . S
N398 C394 1.427 . S
N398 C395 1.384 . S
N399 C391 1.427 . S
N399 C397 1.384 . S
H400 C406 0.930 . S
H401 C410 0.930 . S
H402 C415 0.929 . S
H403 C413 0.929 . S
H404 C408 0.929 . S
H405 C414 0.929 . S
C406 H400 0.930 . S
C406 C407 1.367 . S
C406 C414 1.378 . S
C407 C406 1.367 . S
C407 C415 1.433 . S
C408 H404 0.929 . S
C408 C410 1.378 . S
C408 C412 1.350 . S
C409 C412 1.463 . S
C409 C414 1.350 . S
C409 N417 1.427 . S
C410 H401 0.930 . S
C410 C408 1.378 . S
C410 C411 1.367 . S
C411 C410 1.367 . S
C411 C413 1.433 . S
C412 C408 1.350 . S
C412 C409 1.463 . S
C412 N416 1.427 . S
C413 H403 0.929 . S
C413 C411 1.433 . S
C413 N416 1.384 . S
C414 H405 0.929 . S
C414 C406 1.378 . S
C414 C409 1.350 . S
C415 H402 0.929 . S
C415 C407 1.433 . S
C415 N417 1.384 . S
N416 C412 1.427 . S
N416 C413 1.384 . S
N417 C409 1.427 . S
N417 C415 1.384 . S
H418 C424 0.930 . S
H419 C428 0.930 . S
H420 C433 0.929 . S
H421 C431 0.929 1_554 S
H422 C426 0.929 . S
H423 C432 0.929 . S
C424 H418 0.930 . S
C424 C425 1.367 . S
C424 C432 1.378 . S
C425 C424 1.367 . S
C425 C433 1.433 . S
C426 H422 0.929 . S
C426 C428 1.378 . S
C426 C430 1.350 . S
C427 C430 1.463 . S
C427 C432 1.350 . S
C427 N435 1.427 . S
C428 H419 0.930 . S
C428 C426 1.378 . S
C428 C429 1.367 . S
C429 C428 1.367 . S
C429 C431 1.433 . S
C430 C426 1.350 . S
C430 C427 1.463 . S
C430 N434 1.427 . S
C431 H421 0.929 1_556 S
C431 C429 1.433 . S
C431 N434 1.384 . S
C432 H423 0.929 . S
C432 C424 1.378 . S
C432 C427 1.350 . S
C433 H420 0.929 . S
C433 C425 1.433 . S
C433 N435 1.384 . S
N434 C430 1.427 . S
N434 C431 1.384 . S
N435 C427 1.427 . S
N435 C433 1.384 . S
H436 C442 0.930 . S
H437 C446 0.930 . S
H438 C451 0.929 . S
H439 C449 0.929 . S
H440 C444 0.929 . S
H441 C450 0.929 . S
C442 H436 0.930 . S
C442 C443 1.367 . S
C442 C450 1.378 . S
C443 C442 1.367 . S
C443 C451 1.433 . S
C444 H440 0.929 . S
C444 C446 1.378 . S
C444 C448 1.350 . S
C445 C448 1.463 . S
C445 C450 1.350 . S
C445 N453 1.427 . S
C446 H437 0.930 . S
C446 C444 1.378 . S
C446 C447 1.367 . S
C447 C446 1.367 . S
C447 C449 1.433 . S
C448 C444 1.350 . S
C448 C445 1.463 . S
C448 N452 1.427 . S
C449 H439 0.929 . S
C449 C447 1.433 . S
C449 N452 1.384 . S
C450 H441 0.929 . S
C450 C442 1.378 . S
C450 C445 1.350 . S
C451 H438 0.929 . S
C451 C443 1.433 . S
C451 N453 1.384 . S
N452 C448 1.427 . S
N452 C449 1.384 . S
N453 C445 1.427 . S
N453 C451 1.384 . S
H454 C460 0.930 . S
H455 C464 0.930 . S
H456 C469 0.929 . S
H457 C467 0.929 . S
H458 C462 0.929 . S
H459 C468 0.929 . S
C460 H454 0.930 . S
C460 C461 1.367 . S
C460 C468 1.378 . S
C461 C460 1.367 . S
C461 C469 1.433 . S
C462 H458 0.929 . S
C462 C464 1.378 . S
C462 C466 1.350 . S
C463 C466 1.463 . S
C463 C468 1.350 . S
C463 N471 1.427 . S
C464 H455 0.930 . S
C464 C462 1.378 . S
C464 C465 1.367 . S
C465 C464 1.367 . S
C465 C467 1.433 . S
C466 C462 1.350 . S
C466 C463 1.463 . S
C466 N470 1.427 . S
C467 H457 0.929 . S
C467 C465 1.433 . S
C467 N470 1.384 . S
C468 H459 0.929 . S
C468 C460 1.378 . S
C468 C463 1.350 . S
C469 H456 0.929 . S
C469 C461 1.433 . S
C469 N471 1.384 . S
N470 C466 1.427 . S
N470 C467 1.384 . S
N471 C463 1.427 . S
N471 C469 1.384 . S
H472 C478 0.930 . S
H473 C482 0.930 . S
H474 C487 0.929 . S
H475 C485 0.929 . S
H476 C480 0.929 . S
H477 C486 0.929 . S
C478 H472 0.930 . S
C478 C479 1.367 . S
C478 C486 1.378 . S
C479 C478 1.367 . S
C479 C487 1.433 . S
C480 H476 0.929 . S
C480 C482 1.378 . S
C480 C484 1.350 . S
C481 C484 1.463 . S
C481 C486 1.350 . S
C481 N489 1.427 . S
C482 H473 0.930 . S
C482 C480 1.378 . S
C482 C483 1.367 . S
C483 C482 1.367 . S
C483 C485 1.433 . S
C484 C480 1.350 . S
C484 C481 1.463 . S
C484 N488 1.427 . S
C485 H475 0.929 . S
C485 C483 1.433 . S
C485 N488 1.384 . S
C486 H477 0.929 . S
C486 C478 1.378 . S
C486 C481 1.350 . S
C487 H474 0.929 . S
C487 C479 1.433 . S
C487 N489 1.384 . S
N488 C484 1.427 . S
N488 C485 1.384 . S
N489 C481 1.427 . S
N489 C487 1.384 . S
H490 C496 0.930 . S
H491 C500 0.930 . S
H492 C505 0.929 . S
H493 C503 0.929 . S
H494 C498 0.929 . S
H495 C504 0.929 . S
C496 H490 0.930 . S
C496 C497 1.367 . S
C496 C504 1.378 . S
C497 C496 1.367 . S
C497 C505 1.433 . S
C498 H494 0.929 . S
C498 C500 1.378 . S
C498 C502 1.350 . S
C499 C502 1.463 . S
C499 C504 1.350 . S
C499 N507 1.427 . S
C500 H491 0.930 . S
C500 C498 1.378 . S
C500 C501 1.367 . S
C501 C500 1.367 . S
C501 C503 1.433 . S
C502 C498 1.350 . S
C502 C499 1.463 . S
C502 N506 1.427 . S
C503 H493 0.929 . S
C503 C501 1.433 . S
C503 N506 1.384 . S
C504 H495 0.929 . S
C504 C496 1.378 . S
C504 C499 1.350 . S
C505 H492 0.929 . S
C505 C497 1.433 . S
C505 N507 1.384 . S
N506 C502 1.427 . S
N506 C503 1.384 . S
N507 C499 1.427 . S
N507 C505 1.384 . S
H508 C514 0.930 . S
H509 C518 0.930 . S
H510 C523 0.929 . S
H511 C521 0.929 . S
H512 C516 0.929 . S
H513 C522 0.929 . S
C514 H508 0.930 . S
C514 C515 1.367 . S
C514 C522 1.378 . S
C515 C514 1.367 . S
C515 C523 1.433 . S
C516 H512 0.929 . S
C516 C518 1.378 . S
C516 C520 1.350 . S
C517 C520 1.463 . S
C517 C522 1.350 . S
C517 N525 1.427 . S
C518 H509 0.930 . S
C518 C516 1.378 . S
C518 C519 1.367 . S
C519 C518 1.367 . S
C519 C521 1.433 . S
C520 C516 1.350 . S
C520 C517 1.463 . S
C520 N524 1.427 . S
C521 H511 0.929 . S
C521 C519 1.433 . S
C521 N524 1.384 . S
C522 H513 0.929 . S
C522 C514 1.378 . S
C522 C517 1.350 . S
C523 H510 0.929 . S
C523 C515 1.433 . S
C523 N525 1.384 . S
N524 C520 1.427 . S
N524 C521 1.384 . S
N525 C517 1.427 . S
N525 C523 1.384 . S
H526 C532 0.930 . S
H527 C536 0.930 . S
H528 C541 0.929 . S
H529 C539 0.929 . S
H530 C534 0.929 . S
H531 C540 0.929 . S
C532 H526 0.930 . S
C532 C533 1.367 . S
C532 C540 1.378 . S
C533 C532 1.367 . S
C533 C541 1.433 . S
C534 H530 0.929 . S
C534 C536 1.378 . S
C534 C538 1.350 . S
C535 C538 1.463 . S
C535 C540 1.350 . S
C535 N543 1.427 . S
C536 H527 0.930 . S
C536 C534 1.378 . S
C536 C537 1.367 . S
C537 C536 1.367 . S
C537 C539 1.433 . S
C538 C534 1.350 . S
C538 C535 1.463 . S
C538 N542 1.427 . S
C539 H529 0.929 . S
C539 C537 1.433 . S
C539 N542 1.384 . S
C540 H531 0.929 . S
C540 C532 1.378 . S
C540 C535 1.350 . S
C541 H528 0.929 . S
C541 C533 1.433 . S
C541 N543 1.384 . S
N542 C538 1.427 . S
N542 C539 1.384 . S
N543 C535 1.427 . S
N543 C541 1.384 . S
H544 C550 0.930 . S
H545 C554 0.930 . S
H546 C559 0.929 . S
H547 C557 0.929 . S
H548 C552 0.929 . S
H549 C558 0.929 . S
C550 H544 0.930 . S
C550 C551 1.367 . S
C550 C558 1.378 . S
C551 C550 1.367 . S
C551 C559 1.433 . S
C552 H548 0.929 . S
C552 C554 1.378 . S
C552 C556 1.350 . S
C553 C556 1.463 . S
C553 C558 1.350 . S
C553 N561 1.427 . S
C554 H545 0.930 . S
C554 C552 1.378 . S
C554 C555 1.367 . S
C555 C554 1.367 . S
C555 C557 1.433 . S
C556 C552 1.350 . S
C556 C553 1.463 . S
C556 N560 1.427 . S
C557 H547 0.929 . S
C557 C555 1.433 . S
C557 N560 1.384 . S
C558 H549 0.929 . S
C558 C550 1.378 . S
C558 C553 1.350 . S
C559 H546 0.929 . S
C559 C551 1.433 . S
C559 N561 1.384 . S
N560 C556 1.427 . S
N560 C557 1.384 . S
N561 C553 1.427 . S
N561 C559 1.384 . S
H562 C568 0.930 . S
H563 C572 0.930 . S
H564 C577 0.929 . S
H565 C575 0.929 1_455 S
H566 C570 0.929 . S
H567 C576 0.950 . S
C568 H562 0.930 . S
C568 C569 1.367 . S
C568 C576 1.378 . S
C569 C568 1.367 . S
C569 C577 1.433 . S
C570 H566 0.929 . S
C570 C572 1.378 . S
C570 C574 1.350 . S
C571 C574 1.463 . S
C571 C576 1.350 . S
C571 N579 1.427 . S
C572 H563 0.930 . S
C572 C570 1.378 . S
C572 C573 1.367 . S
C573 C572 1.367 . S
C573 C575 1.433 . S
C574 C570 1.350 . S
C574 C571 1.463 . S
C574 N578 1.427 . S
C575 H565 0.929 1_655 S
C575 C573 1.433 . S
C575 N578 1.384 . S
C576 H567 0.950 . S
C576 C568 1.378 . S
C576 C571 1.350 . S
C577 H564 0.929 . S
C577 C569 1.433 . S
C577 N579 1.384 . S
N578 C574 1.427 . S
N578 C575 1.384 . S
N579 C571 1.427 . S
N579 C577 1.384 . S
H580 C586 0.930 . S
H581 C590 0.930 . S
H582 C595 0.929 . S
H583 C593 0.929 . S
H584 C588 0.929 . S
H585 C594 0.929 . S
C586 H580 0.930 . S
C586 C587 1.367 . S
C586 C594 1.378 . S
C587 C586 1.367 . S
C587 C595 1.433 . S
C588 H584 0.929 . S
C588 C590 1.378 . S
C588 C592 1.350 . S
C589 C592 1.463 . S
C589 C594 1.350 . S
C589 N597 1.427 . S
C590 H581 0.930 . S
C590 C588 1.378 . S
C590 C591 1.367 . S
C591 C590 1.367 . S
C591 C593 1.433 . S
C592 C588 1.350 . S
C592 C589 1.463 . S
C592 N596 1.427 . S
C593 H583 0.929 . S
C593 C591 1.433 . S
C593 N596 1.384 . S
C594 H585 0.929 . S
C594 C586 1.378 . S
C594 C589 1.350 . S
C595 H582 0.929 . S
C595 C587 1.433 . S
C595 N597 1.384 . S
N596 C592 1.427 . S
N596 C593 1.384 . S
N597 C589 1.427 . S
N597 C595 1.384 . S
H598 C604 0.930 . S
H599 C608 0.930 . S
H600 C613 0.929 . S
H601 C611 0.929 . S
H602 C606 0.929 . S
H603 C612 0.929 . S
C604 H598 0.930 . S
C604 C605 1.367 . S
C604 C612 1.378 . S
C605 C604 1.367 . S
C605 C613 1.433 . S
C606 H602 0.929 . S
C606 C608 1.378 . S
C606 C610 1.350 . S
C607 C610 1.463 . S
C607 C612 1.350 . S
C607 N615 1.427 . S
C608 H599 0.930 . S
C608 C606 1.378 . S
C608 C609 1.367 . S
C609 C608 1.367 . S
C609 C611 1.433 . S
C610 C606 1.350 . S
C610 C607 1.463 . S
C610 N614 1.427 . S
C611 H601 0.929 . S
C611 C609 1.433 . S
C611 N614 1.384 . S
C612 H603 0.929 . S
C612 C604 1.378 . S
C612 C607 1.350 . S
C613 H600 0.929 . S
C613 C605 1.433 . S
C613 N615 1.384 . S
N614 C610 1.427 . S
N614 C611 1.384 . S
N615 C607 1.427 . S
N615 C613 1.384 . S
H616 C622 0.930 . S
H617 C626 0.930 . S
H618 C631 0.929 . S
H619 C629 0.929 . S
H620 C624 0.929 . S
H621 C630 0.929 . S
C622 H616 0.930 . S
C622 C623 1.367 . S
C622 C630 1.378 . S
C623 C622 1.367 . S
C623 C631 1.433 . S
C624 H620 0.929 . S
C624 C626 1.378 . S
C624 C628 1.350 . S
C625 C628 1.463 . S
C625 C630 1.350 . S
C625 N633 1.427 . S
C626 H617 0.930 . S
C626 C624 1.378 . S
C626 C627 1.367 . S
C627 C626 1.367 . S
C627 C629 1.433 . S
C628 C624 1.350 . S
C628 C625 1.463 . S
C628 N632 1.427 . S
C629 H619 0.929 . S
C629 C627 1.433 . S
C629 N632 1.384 . S
C630 H621 0.929 . S
C630 C622 1.378 . S
C630 C625 1.350 . S
C631 H618 0.929 . S
C631 C623 1.433 . S
C631 N633 1.384 . S
N632 C628 1.427 . S
N632 C629 1.384 . S
N633 C625 1.427 . S
N633 C631 1.384 . S
H634 C640 0.930 . S
H635 C644 0.930 . S
H636 C649 0.929 . S
H637 C647 0.929 . S
H638 C642 0.929 . S
H639 C648 0.929 . S
C640 H634 0.930 . S
C640 C641 1.367 . S
C640 C648 1.378 . S
C641 C640 1.367 . S
C641 C649 1.433 . S
C642 H638 0.929 . S
C642 C644 1.378 . S
C642 C646 1.350 . S
C643 C646 1.463 . S
C643 C648 1.350 . S
C643 N651 1.427 . S
C644 H635 0.930 . S
C644 C642 1.378 . S
C644 C645 1.367 . S
C645 C644 1.367 . S
C645 C647 1.433 . S
C646 C642 1.350 . S
C646 C643 1.463 . S
C646 N650 1.427 . S
C647 H637 0.929 . S
C647 C645 1.433 . S
C647 N650 1.384 . S
C648 H639 0.929 . S
C648 C640 1.378 . S
C648 C643 1.350 . S
C649 H636 0.929 . S
C649 C641 1.433 . S
C649 N651 1.384 . S
N650 C646 1.427 . S
N650 C647 1.384 . S
N651 C643 1.427 . S
N651 C649 1.384 . S
H652 C658 0.930 . S
H653 C662 0.930 . S
H654 C667 0.929 . S
H655 C665 0.929 . S
H656 C660 0.929 . S
H657 C666 0.929 . S
C658 H652 0.930 . S
C658 C659 1.367 . S
C658 C666 1.378 . S
C659 C658 1.367 . S
C659 C667 1.433 . S
C660 H656 0.929 . S
C660 C662 1.378 . S
C660 C664 1.350 . S
C661 C664 1.463 . S
C661 C666 1.350 . S
C661 N669 1.427 . S
C662 H653 0.930 . S
C662 C660 1.378 . S
C662 C663 1.367 . S
C663 C662 1.367 . S
C663 C665 1.433 . S
C664 C660 1.350 . S
C664 C661 1.463 . S
C664 N668 1.427 . S
C665 H655 0.929 . S
C665 C663 1.433 . S
C665 N668 1.384 . S
C666 H657 0.929 . S
C666 C658 1.378 . S
C666 C661 1.350 . S
C667 H654 0.929 . S
C667 C659 1.433 . S
C667 N669 1.384 . S
N668 C664 1.427 . S
N668 C665 1.384 . S
N669 C661 1.427 . S
N669 C667 1.384 . S
H670 C676 0.930 . S
H671 C680 0.930 . S
H672 C685 0.929 . S
H673 C683 0.929 . S
H674 C678 0.929 . S
H675 C684 0.929 . S
C676 H670 0.930 . S
C676 C677 1.367 . S
C676 C684 1.378 . S
C677 C676 1.367 . S
C677 C685 1.433 . S
C678 H674 0.929 . S
C678 C680 1.378 . S
C678 C682 1.350 . S
C679 C682 1.463 . S
C679 C684 1.350 . S
C679 N687 1.427 . S
C680 H671 0.930 . S
C680 C678 1.378 . S
C680 C681 1.367 . S
C681 C680 1.367 . S
C681 C683 1.433 . S
C682 C678 1.350 . S
C682 C679 1.463 . S
C682 N686 1.427 . S
C683 H673 0.929 . S
C683 C681 1.433 . S
C683 N686 1.384 . S
C684 H675 0.929 . S
C684 C676 1.378 . S
C684 C679 1.350 . S
C685 H672 0.929 . S
C685 C677 1.433 . S
C685 N687 1.384 . S
N686 C682 1.427 . S
N686 C683 1.384 . S
N687 C679 1.427 . S
N687 C685 1.384 . S
C263 C6 0.890 . S
C267 C100 0.908 . S
C281 C18 1.300 . S
C285 C161 1.306 . S
C303 C199 2.640 . S
C299 C28 2.677 . S
C317 C40 1.763 . S
C321 C239 1.724 . S
C339 C159 1.421 . S
C335 C9 1.411 . S
C357 C127 1.917 . S
C353 C16 1.821 . S
C375 C236 1.777 . S
C371 C30 1.790 . S
C393 C196 1.523 . S
C389 C42 1.542 . S
C407 C4 1.019 . S
C411 C241 1.013 . S
C429 C156 2.595 . S
C425 C33 2.587 . S
C443 C45 1.918 . S
C447 C98 1.891 . S
C461 C21 1.487 . S
C465 C201 1.540 . S
C483 C121 0.934 . S
C479 C57 0.927 . S
C497 C66 1.285 . S
C501 C140 1.314 . S
C515 C76 2.725 . S
C519 C178 2.677 . S
C533 C88 1.678 . S
C537 C218 1.660 . S
C551 C54 1.386 . S
C555 C138 1.412 . S
C573 C116 2.004 . S
C569 C64 1.947 . S
C591 C247 1.659 . S
C587 C78 1.673 . S
C609 C207 1.589 . S
C605 C93 1.600 . S
C623 C52 1.012 . S
C627 C220 1.036 . S
C645 C167 2.591 . S
C641 C81 2.574 . S
C663 C119 1.872 . S
C659 C90 1.899 . S
C677 C69 1.473 . S
C681 C180 1.547 . S
