# Generated by pormake.
# Topology pto, (3,4)-cn, num edge types: 1
# Building blocks:
#     Node 0, Type 0, BuildingBlock: BETDIP_clean_linker_0, # of connection points: 3
#     Node 1, Type 0, BuildingBlock: BETDIP_clean_linker_0, # of connection points: 3
#     Node 2, Type 0, BuildingBlock: BETDIP_clean_linker_0, # of connection points: 3
#     Node 3, Type 0, BuildingBlock: BETDIP_clean_linker_0, # of connection points: 3
#     Node 4, Type 0, BuildingBlock: BETDIP_clean_linker_0, # of connection points: 3
#     Node 5, Type 0, BuildingBlock: BETDIP_clean_linker_0, # of connection points: 3
#     Node 6, Type 0, BuildingBlock: BETDIP_clean_linker_0, # of connection points: 3
#     Node 7, Type 0, BuildingBlock: BETDIP_clean_linker_0, # of connection points: 3
#     Node 8, Type 1, BuildingBlock: NAWXER_clean_sbu_0, # of connection points: 4
#     Node 9, Type 1, BuildingBlock: NAWXER_clean_sbu_0, # of connection points: 4
#     Node 10, Type 1, BuildingBlock: NAWXER_clean_sbu_0, # of connection points: 4
#     Node 11, Type 1, BuildingBlock: NAWXER_clean_sbu_0, # of connection points: 4
#     Node 12, Type 1, BuildingBlock: NAWXER_clean_sbu_0, # of connection points: 4
#     Node 13, Type 1, BuildingBlock: NAWXER_clean_sbu_0, # of connection points: 4
#     Edge 14, Type (0, 1), BuildingBlock: ZUJKAS_clean_linker_0, # of connection points: 2
#     Edge 15, Type (0, 1), BuildingBlock: ZUJKAS_clean_linker_0, # of connection points: 2
#     Edge 16, Type (0, 1), BuildingBlock: ZUJKAS_clean_linker_0, # of connection points: 2
#     Edge 17, Type (0, 1), BuildingBlock: ZUJKAS_clean_linker_0, # of connection points: 2
#     Edge 18, Type (0, 1), BuildingBlock: ZUJKAS_clean_linker_0, # of connection points: 2
#     Edge 19, Type (0, 1), BuildingBlock: ZUJKAS_clean_linker_0, # of connection points: 2
#     Edge 20, Type (0, 1), BuildingBlock: ZUJKAS_clean_linker_0, # of connection points: 2
#     Edge 21, Type (0, 1), BuildingBlock: ZUJKAS_clean_linker_0, # of connection points: 2
#     Edge 22, Type (0, 1), BuildingBlock: ZUJKAS_clean_linker_0, # of connection points: 2
#     Edge 23, Type (0, 1), BuildingBlock: ZUJKAS_clean_linker_0, # of connection points: 2
#     Edge 24, Type (0, 1), BuildingBlock: ZUJKAS_clean_linker_0, # of connection points: 2
#     Edge 25, Type (0, 1), BuildingBlock: ZUJKAS_clean_linker_0, # of connection points: 2
#     Edge 26, Type (0, 1), BuildingBlock: ZUJKAS_clean_linker_0, # of connection points: 2
#     Edge 27, Type (0, 1), BuildingBlock: ZUJKAS_clean_linker_0, # of connection points: 2
#     Edge 28, Type (0, 1), BuildingBlock: ZUJKAS_clean_linker_0, # of connection points: 2
#     Edge 29, Type (0, 1), BuildingBlock: ZUJKAS_clean_linker_0, # of connection points: 2
#     Edge 30, Type (0, 1), BuildingBlock: ZUJKAS_clean_linker_0, # of connection points: 2
#     Edge 31, Type (0, 1), BuildingBlock: ZUJKAS_clean_linker_0, # of connection points: 2
#     Edge 32, Type (0, 1), BuildingBlock: ZUJKAS_clean_linker_0, # of connection points: 2
#     Edge 33, Type (0, 1), BuildingBlock: ZUJKAS_clean_linker_0, # of connection points: 2
#     Edge 34, Type (0, 1), BuildingBlock: ZUJKAS_clean_linker_0, # of connection points: 2
#     Edge 35, Type (0, 1), BuildingBlock: ZUJKAS_clean_linker_0, # of connection points: 2
#     Edge 36, Type (0, 1), BuildingBlock: ZUJKAS_clean_linker_0, # of connection points: 2
#     Edge 37, Type (0, 1), BuildingBlock: ZUJKAS_clean_linker_0, # of connection points: 2
# Relax obj value: 0.015
# Max RMSD: 0.146
# Mean RMSD: 0.064
data_MOF--net-pto--node1-NAWXER_clean_sbu_0--node2-BETDIP_clean_linker_0--edge1-ZUJKAS_clean_linker_0
_symmetry_space_group_name_H-M    P1
_symmetry_Int_Tables_number       1
_symmetry_cell_setting            triclinic
loop_
_symmetry_equiv_pos_as_xyz
'x, y, z'
_cell_length_a     55.335564
_cell_length_b     52.764403
_cell_length_c     49.991053
_cell_angle_alpha  100.81361
_cell_angle_beta   100.70126
_cell_angle_gamma 102.0451
loop_
_atom_site_label
_atom_site_type_symbol
_atom_site_fract_x
_atom_site_fract_y
_atom_site_fract_z
_atom_type_partial_charge
H0 H 0.22216 0.32069 0.32134 0.0
H1 H 0.2764 0.28765 0.28478 0.0
H2 H 0.25229 0.3527 0.25759 0.0
H3 H 0.25584 0.25051 0.29493 0.0
C4 C 0.25349 0.25835 0.31573 0.0
C5 C 0.2344 0.32065 0.30674 0.0
C6 C 0.23551 0.33917 0.2898 0.0
C7 C 0.24842 0.30147 0.30443 0.0
C8 C 0.26433 0.30135 0.2856 0.0
C9 C 0.26569 0.31957 0.26848 0.0
C10 C 0.25122 0.33847 0.27067 0.0
N11 N 0.2468 0.28304 0.32182 0.0
H12 H 0.23655 0.73842 0.67468 0.0
H13 H 0.31748 0.76736 0.70592 0.0
H14 H 0.27521 0.71001 0.74146 0.0
H15 H 0.31642 0.78084 0.66636 0.0
C16 C 0.29842 0.78615 0.662 0.0
C17 C 0.25396 0.73786 0.68843 0.0
C18 C 0.25306 0.72192 0.70798 0.0
C19 C 0.27706 0.75408 0.68722 0.0
C20 C 0.29957 0.7544 0.70595 0.0
C21 C 0.29907 0.73843 0.72548 0.0
C22 C 0.27577 0.72208 0.72617 0.0
N23 N 0.27662 0.77131 0.66851 0.0
H24 H 0.78412 0.73104 0.25203 0.0
H25 H 0.81673 0.77728 0.33647 0.0
H26 H 0.7506 0.79178 0.28813 0.0
H27 H 0.83236 0.74178 0.34074 0.0
C28 C 0.83682 0.7353 0.32072 0.0
C29 C 0.78384 0.74658 0.26946 0.0
C30 C 0.76468 0.76037 0.26711 0.0
C31 C 0.80246 0.75221 0.29445 0.0
C32 C 0.80221 0.77233 0.31724 0.0
C33 C 0.78325 0.78637 0.31521 0.0
C34 C 0.76469 0.7803 0.29008 0.0
N35 N 0.82145 0.73772 0.29563 0.0
H36 H 0.69778 0.26567 0.82433 0.0
H37 H 0.7414 0.34547 0.86603 0.0
H38 H 0.75679 0.30506 0.79029 0.0
H39 H 0.73147 0.32801 0.90525 0.0
C40 C 0.71136 0.31906 0.8961 0.0
C41 C 0.71275 0.283 0.82537 0.0
C42 C 0.72658 0.28285 0.80459 0.0
C43 C 0.71821 0.30528 0.84773 0.0
C44 C 0.73757 0.32791 0.84917 0.0
C45 C 0.75131 0.3282 0.82814 0.0
C46 C 0.74568 0.30549 0.80602 0.0
N47 N 0.70309 0.30464 0.8677 0.0
H48 H 0.81117 0.81562 0.86461 0.0
H49 H 0.85401 0.85132 0.81188 0.0
H50 H 0.78689 0.87508 0.82564 0.0
H51 H 0.87136 0.81786 0.81061 0.0
C52 C 0.869 0.80887 0.82806 0.0
C53 C 0.81389 0.82974 0.85158 0.0
C54 C 0.79665 0.84556 0.84722 0.0
C55 C 0.83431 0.83117 0.83858 0.0
C56 C 0.83783 0.84914 0.82123 0.0
C57 C 0.82065 0.86492 0.81619 0.0
C58 C 0.80021 0.86303 0.8294 0.0
N59 N 0.85061 0.81403 0.84339 0.0
H60 H 0.73338 0.30552 0.3566 0.0
H61 H 0.81247 0.31373 0.35641 0.0
H62 H 0.76894 0.3553 0.30853 0.0
H63 H 0.8143 0.30425 0.39875 0.0
C64 C 0.79678 0.28905 0.3956 0.0
C65 C 0.75002 0.31406 0.34968 0.0
C66 C 0.74842 0.3314 0.33159 0.0
C67 C 0.7732 0.30815 0.35948 0.0
C68 C 0.79474 0.31899 0.35013 0.0
C69 C 0.79324 0.33587 0.3316 0.0
C70 C 0.77011 0.34213 0.3227 0.0
N71 N 0.77407 0.29063 0.37792 0.0
H72 H 0.19245 0.33137 0.79305 0.0
H73 H 0.26305 0.31562 0.82834 0.0
H74 H 0.24221 0.38439 0.86844 0.0
H75 H 0.26069 0.2962 0.78409 0.0
C76 C 0.24064 0.2867 0.77538 0.0
C77 C 0.21004 0.33713 0.80901 0.0
C78 C 0.21492 0.35974 0.83121 0.0
C79 C 0.22765 0.32165 0.80719 0.0
C80 C 0.25006 0.32834 0.82848 0.0
C81 C 0.25543 0.35087 0.85075 0.0
C82 C 0.23783 0.36656 0.85179 0.0
N83 N 0.22201 0.2991 0.7842 0.0
H84 H 0.29541 0.84925 0.22293 0.0
H85 H 0.26619 0.76768 0.17535 0.0
H86 H 0.23254 0.79771 0.2412 0.0
H87 H 0.30579 0.77195 0.17124 0.0
C88 C 0.31295 0.79229 0.16978 0.0
C89 C 0.28189 0.83003 0.21847 0.0
C90 C 0.26366 0.82598 0.23447 0.0
C91 C 0.28361 0.80892 0.19768 0.0
C92 C 0.26582 0.784 0.19186 0.0
C93 C 0.24761 0.77978 0.20777 0.0
C94 C 0.24673 0.80082 0.22901 0.0
N95 N 0.30371 0.81316 0.18354 0.0
C96 C 0.99888 0.50105 0.26047 0.0
C97 C 0.06182 0.56753 0.23677 0.0
O98 O 0.01478 0.51697 0.28209 0.0
Zn99 Zn 0.04702 0.55061 0.29136 0.0
O100 O 1.00067 0.50392 0.23617 0.0
Zn101 Zn 0.02987 0.53431 0.24808 0.0
O102 O 0.05953 0.51736 0.26557 0.0
O103 O 0.07377 0.53752 0.31039 0.0
O104 O 0.04347 0.54959 0.21999 0.0
O105 O 0.06484 0.5697 0.26324 0.0
O106 O 0.03581 0.57869 0.31243 0.0
O107 O 0.01455 0.56487 0.26826 0.0
C108 C 0.07464 0.52024 0.28937 0.0
C109 C 0.01838 0.5801 0.29268 0.0
C110 C 0.96698 0.51972 0.80463 0.0
C111 C 0.03547 0.57618 0.77756 0.0
O112 O 0.98409 0.5346 0.82591 0.0
Zn113 Zn 0.01935 0.56428 0.83368 0.0
O114 O 0.96949 0.52096 0.78012 0.0
Zn115 Zn 0.00123 0.54782 0.79078 0.0
O116 O 0.02803 0.52772 0.80835 0.0
O117 O 0.04379 0.54829 0.85283 0.0
O118 O 0.01587 0.55931 0.76158 0.0
O119 O 0.03871 0.5797 0.80423 0.0
O120 O 0.01208 0.5958 0.85404 0.0
O121 O 0.99082 0.58269 0.80986 0.0
C122 C 0.04298 0.52984 0.83202 0.0
C123 C 0.9962 0.59905 0.83387 0.0
C124 C 0.27473 0.01458 0.55231 0.0
C125 C 0.27095 0.08611 0.50376 0.0
O126 O 0.25197 0.01414 0.54036 0.0
Zn127 Zn 0.23304 0.03669 0.51583 0.0
O128 O 0.29319 0.0329 0.55105 0.0
Zn129 Zn 0.27353 0.05093 0.52867 0.0
O130 O 0.25311 0.06829 0.55651 0.0
O131 O 0.21204 0.0506 0.53911 0.0
O132 O 0.29083 0.08145 0.51711 0.0
O133 O 0.24906 0.07104 0.50211 0.0
O134 O 0.21749 0.01075 0.48022 0.0
O135 O 0.25941 0.02183 0.48974 0.0
C136 C 0.23003 0.06678 0.55822 0.0
C137 C 0.23808 0.00818 0.47348 0.0
C138 C 0.57405 0.76588 0.03425 0.0
C139 C 0.51192 0.76631 0.95176 0.0
O140 O 0.55959 0.74616 0.01546 0.0
Zn141 Zn 0.54288 0.76621 0.99321 0.0
O142 O 0.57281 0.78966 0.03285 0.0
Zn143 Zn 0.55158 0.80823 0.00489 0.0
O144 O 0.53315 0.82622 0.02831 0.0
O145 O 0.52001 0.78241 0.01914 0.0
O146 O 0.52291 0.78996 0.96663 0.0
O147 O 0.51806 0.74648 0.95952 0.0
O148 O 0.57348 0.78646 0.97779 0.0
O149 O 0.57801 0.82969 0.99222 0.0
C150 C 0.51817 0.80551 0.03093 0.0
C151 C 0.58496 0.81056 0.97892 0.0
C152 C 0.8052 0.02444 0.61285 0.0
C153 C 0.7995 0.08363 0.54864 0.0
O154 O 0.78248 0.02107 0.59858 0.0
Zn155 Zn 0.76323 0.03661 0.56619 0.0
O156 O 0.82335 0.04123 0.6086 0.0
Zn157 Zn 0.803 0.05341 0.58018 0.0
O158 O 0.77969 0.07206 0.60344 0.0
O159 O 0.73946 0.0512 0.58395 0.0
O160 O 0.81929 0.08192 0.56506 0.0
O161 O 0.77799 0.0679 0.5472 0.0
O162 O 0.74999 0.00587 0.53522 0.0
O163 O 0.79181 0.01932 0.54542 0.0
C164 C 0.75597 0.0694 0.60273 0.0
C165 C 0.77111 0.00301 0.53038 0.0
C166 C 0.53686 0.3606 0.14349 0.0
C167 C 0.47407 0.36431 0.06204 0.0
O168 O 0.52398 0.33762 0.12846 0.0
Zn169 Zn 0.49477 0.32089 0.09111 0.0
O170 O 0.53274 0.38145 0.13622 0.0
Zn171 Zn 0.50594 0.36356 0.10272 0.0
O172 O 0.47568 0.34526 0.11934 0.0
O173 O 0.46752 0.30155 0.10447 0.0
O174 O 0.48907 0.3841 0.08044 0.0
O175 O 0.47478 0.34054 0.06389 0.0
O176 O 0.51182 0.3015 0.0671 0.0
O177 O 0.52582 0.34524 0.0749 0.0
C178 C 0.46268 0.32185 0.11849 0.0
C179 C 0.52649 0.32171 0.06309 0.0
H180 H 0.22886 0.36974 0.33722 0.0
H181 H 0.20207 0.40133 0.34026 0.0
H182 H 0.18062 0.38498 0.25011 0.0
H183 H 0.207 0.35313 0.24687 0.0
H184 H 0.20436 0.44796 0.3156 0.0
H185 H 0.1123 0.37137 0.27595 0.0
H186 H 0.14168 0.36344 0.2896 0.0
H187 H 0.13505 0.36879 0.25482 0.0
C188 C 0.21831 0.37278 0.31806 0.0
C189 C 0.21994 0.35889 0.29179 0.0
C190 C 0.20316 0.39091 0.31984 0.0
C191 C 0.18921 0.3952 0.29541 0.0
C192 C 0.19105 0.38167 0.26919 0.0
H193 H 0.08386 0.48527 0.24732 0.0
H194 H 0.11258 0.45617 0.25113 0.0
C195 C 0.20628 0.36367 0.26738 0.0
C196 C 0.17265 0.41382 0.29719 0.0
H197 H 0.1108 0.41649 0.27992 0.0
C198 C 0.18388 0.44116 0.30805 0.0
C199 C 0.14598 0.40475 0.28737 0.0
C200 C 0.13293 0.37547 0.27648 0.0
C201 C 0.16913 0.45986 0.30833 0.0
C202 C 0.14247 0.45081 0.29797 0.0
C203 C 0.13125 0.42338 0.28776 0.0
C204 C 0.12586 0.46941 0.29618 0.0
C205 C 0.18229 0.48915 0.31867 0.0
C206 C 0.12376 0.48655 0.3203 0.0
C207 C 0.10737 0.50341 0.3182 0.0
C208 C 0.09265 0.50317 0.29195 0.0
C209 C 0.09487 0.48596 0.26789 0.0
C210 C 0.11128 0.46927 0.27 0.0
H211 H 0.20301 0.49302 0.31975 0.0
H212 H 0.17397 0.50088 0.30487 0.0
H213 H 0.17976 0.4964 0.34003 0.0
H214 H 0.13447 0.48659 0.34078 0.0
H215 H 0.10598 0.51631 0.33714 0.0
H216 H 0.23744 0.71831 0.75605 0.0
H217 H 0.1969 0.69283 0.76086 0.0
H218 H 0.17167 0.66569 0.67102 0.0
H219 H 0.2126 0.69081 0.666 0.0
H220 H 0.14694 0.69804 0.73687 0.0
H221 H 0.16004 0.59631 0.70081 0.0
H222 H 0.18639 0.62562 0.7121 0.0
H223 H 0.16486 0.61918 0.67859 0.0
C224 C 0.22343 0.70665 0.7373 0.0
C225 C 0.22832 0.70635 0.71065 0.0
C226 C 0.2002 0.69228 0.74008 0.0
C227 C 0.18143 0.67721 0.71632 0.0
C228 C 0.18607 0.67696 0.68962 0.0
H229 H 0.03729 0.57172 0.72233 0.0
H230 H 0.07031 0.59682 0.70381 0.0
C231 C 0.20935 0.69145 0.6868 0.0
C232 C 0.15699 0.66211 0.71988 0.0
H233 H 0.12289 0.59918 0.71632 0.0
C234 C 0.14151 0.67641 0.7321 0.0
C235 C 0.14991 0.63393 0.71341 0.0
C236 C 0.16615 0.61771 0.70064 0.0
C237 C 0.11949 0.66328 0.73884 0.0
C238 C 0.1131 0.63514 0.7337 0.0
C239 C 0.12791 0.62076 0.72028 0.0
C240 C 0.09256 0.62049 0.74444 0.0
C241 C 0.10346 0.67967 0.75178 0.0
C242 C 0.09434 0.62531 0.77338 0.0
C243 C 0.07565 0.61108 0.78398 0.0
C244 C 0.0548 0.59156 0.76587 0.0
C245 C 0.05304 0.5867 0.73682 0.0
C246 C 0.07188 0.60098 0.72621 0.0
H247 H 0.10611 0.69935 0.74628 0.0
H248 H 0.08298 0.66912 0.74492 0.0
H249 H 0.10925 0.68332 0.77493 0.0
H250 H 0.11044 0.63988 0.78785 0.0
H251 H 0.0777 0.61527 0.80646 0.0
H252 H 0.85602 0.71843 0.27557 0.0
H253 H 0.88929 0.69432 0.27446 0.0
H254 H 0.8972 0.69658 0.36237 0.0
H255 H 0.86395 0.72088 0.36372 0.0
H256 H 0.94283 0.71098 0.31272 0.0
H257 H 0.88089 0.61494 0.31791 0.0
H258 H 0.86802 0.64071 0.30598 0.0
H259 H 0.88121 0.64475 0.34255 0.0
C260 C 0.86485 0.71384 0.29468 0.0
C261 C 0.8573 0.72132 0.31974 0.0
C262 C 0.8839 0.70017 0.29402 0.0
C263 C 0.89552 0.6936 0.31829 0.0
C264 C 0.8883 0.70138 0.34341 0.0
H265 H 0.02305 0.61861 0.34008 0.0
H266 H 0.9945 0.64774 0.34808 0.0
C267 C 0.86937 0.71522 0.34414 0.0
C268 C 0.91473 0.67798 0.31705 0.0
H269 H 0.92317 0.61555 0.31582 0.0
C270 C 0.93867 0.69019 0.31363 0.0
C271 C 0.90906 0.65085 0.31808 0.0
C272 C 0.88338 0.63683 0.32118 0.0
C273 C 0.95713 0.67579 0.31103 0.0
C274 C 0.95136 0.64861 0.31181 0.0
C275 C 0.92749 0.63648 0.31545 0.0
C276 C 0.96921 0.63191 0.307 0.0
C277 C 0.98244 0.68937 0.30671 0.0
C278 C 0.96432 0.6135 0.28129 0.0
C279 C 0.98055 0.59702 0.27659 0.0
C280 C 0.00189 0.59844 0.29766 0.0
C281 C 0.00679 0.61703 0.32344 0.0
C282 C 0.99057 0.63369 0.32804 0.0
H283 H 0.98326 0.71007 0.30447 0.0
H284 H 0.99776 0.69003 0.32485 0.0
H285 H 0.9863 0.6778 0.2877 0.0
H286 H 0.94785 0.61185 0.26486 0.0
H287 H 0.97614 0.58291 0.25653 0.0
H288 H 0.76065 0.35028 0.78473 0.0
H289 H 0.7971 0.38555 0.78482 0.0
H290 H 0.82442 0.39555 0.87371 0.0
H291 H 0.78837 0.35945 0.8736 0.0
H292 H 0.81444 0.43842 0.81319 0.0
H293 H 0.88483 0.3812 0.8429 0.0
H294 H 0.8511 0.36609 0.83201 0.0
H295 H 0.86486 0.38643 0.86685 0.0
C296 C 0.77445 0.35992 0.80431 0.0
C297 C 0.77184 0.35177 0.82908 0.0
C298 C 0.79518 0.38019 0.80436 0.0
C299 C 0.81373 0.39279 0.82915 0.0
C300 C 0.81059 0.38567 0.85423 0.0
H301 H 0.95786 0.50982 0.85405 0.0
H302 H 0.92043 0.48034 0.8612 0.0
C303 C 0.78983 0.36527 0.85419 0.0
C304 C 0.83661 0.41276 0.82826 0.0
H305 H 0.901 0.42431 0.83706 0.0
C306 C 0.83338 0.4354 0.81851 0.0
C307 C 0.8613 0.40872 0.83515 0.0
C308 C 0.86584 0.38421 0.84459 0.0
C309 C 0.85417 0.45405 0.81535 0.0
C310 C 0.87874 0.44976 0.82179 0.0
C311 C 0.88208 0.42747 0.83212 0.0
C312 C 0.90119 0.46784 0.81733 0.0
C313 C 0.84971 0.47826 0.80522 0.0
C314 C 0.90288 0.47026 0.79022 0.0
C315 C 0.9243 0.487 0.786 0.0
C316 C 0.94442 0.50161 0.80886 0.0
C317 C 0.94269 0.49894 0.83598 0.0
C318 C 0.92133 0.48211 0.84014 0.0
H319 H 0.83113 0.48198 0.80776 0.0
H320 H 0.86505 0.4963 0.81671 0.0
H321 H 0.8497 0.47506 0.78264 0.0
H322 H 0.88771 0.45903 0.77229 0.0
H323 H 0.92505 0.48854 0.76485 0.0
H324 H 0.26891 0.21282 0.30997 0.0
H325 H 0.27501 0.186 0.34448 0.0
H326 H 0.25229 0.24155 0.40374 0.0
H327 H 0.24662 0.26876 0.36946 0.0
H328 H 0.29527 0.22531 0.42726 0.0
H329 H 0.21614 0.13901 0.36541 0.0
H330 H 0.23956 0.14956 0.34659 0.0
H331 H 0.22054 0.17147 0.35763 0.0
C332 C 0.26522 0.21927 0.33037 0.0
C333 C 0.25709 0.24266 0.33699 0.0
C334 C 0.26865 0.20394 0.35 0.0
C335 C 0.26374 0.21162 0.37647 0.0
C336 C 0.2561 0.23529 0.38336 0.0
H337 H 0.23287 0.1085 0.48623 0.0
H338 H 0.23322 0.14119 0.45772 0.0
C339 C 0.25277 0.25073 0.36374 0.0
C340 C 0.26603 0.19459 0.39669 0.0
H341 H 0.24219 0.1325 0.40546 0.0
C342 C 0.28366 0.20503 0.4226 0.0
C343 C 0.25066 0.16826 0.39056 0.0
C344 C 0.23049 0.15644 0.36366 0.0
C345 C 0.28645 0.18966 0.44255 0.0
C346 C 0.27144 0.16314 0.43613 0.0
C347 C 0.25379 0.1528 0.41023 0.0
C348 C 0.27269 0.14587 0.45623 0.0
C349 C 0.30496 0.20207 0.47049 0.0
C350 C 0.29499 0.13805 0.46534 0.0
C351 C 0.29492 0.11939 0.48193 0.0
C352 C 0.27244 0.10807 0.48921 0.0
C353 C 0.25044 0.11666 0.48076 0.0
C354 C 0.2506 0.13537 0.46449 0.0
H355 H 0.3105 0.22418 0.47457 0.0
H356 H 0.29675 0.1963 0.48778 0.0
H357 H 0.32243 0.19485 0.47068 0.0
H358 H 0.31213 0.14558 0.45879 0.0
H359 H 0.31209 0.11302 0.48803 0.0
H360 H 0.33518 0.78319 0.75616 0.0
H361 H 0.37279 0.78607 0.79222 0.0
H362 H 0.3532 0.70044 0.779 0.0
H363 H 0.31578 0.69732 0.74235 0.0
H364 H 0.37146 0.76699 0.84143 0.0
H365 H 0.42933 0.71928 0.77758 0.0
H366 H 0.40338 0.73188 0.76238 0.0
H367 H 0.397 0.70066 0.77243 0.0
C368 C 0.33914 0.76493 0.76051 0.0
C369 C 0.32258 0.74001 0.74631 0.0
C370 C 0.36054 0.76663 0.78122 0.0
C371 C 0.36589 0.74346 0.78802 0.0
C372 C 0.3496 0.71852 0.77372 0.0
H373 H 0.48178 0.71907 0.9176 0.0
H374 H 0.44637 0.71299 0.87748 0.0
C375 C 0.32813 0.71679 0.75301 0.0
C376 C 0.38768 0.74565 0.81127 0.0
H377 H 0.4447 0.73001 0.82687 0.0
C378 C 0.38752 0.75898 0.83826 0.0
C379 C 0.40844 0.73496 0.80702 0.0
C380 C 0.40978 0.72105 0.77828 0.0
C381 C 0.40756 0.76184 0.86124 0.0
C382 C 0.42856 0.75156 0.85697 0.0
C383 C 0.42859 0.73792 0.83002 0.0
C384 C 0.45078 0.75517 0.88025 0.0
C385 C 0.40589 0.77548 0.88997 0.0
C386 C 0.46532 0.78088 0.89459 0.0
C387 C 0.48545 0.78444 0.91751 0.0
C388 C 0.49157 0.76232 0.9264 0.0
C389 C 0.47751 0.73652 0.91137 0.0
C390 C 0.45729 0.733 0.88844 0.0
H391 H 0.386 0.77566 0.89082 0.0
H392 H 0.41356 0.76553 0.90614 0.0
H393 H 0.41728 0.79648 0.89531 0.0
H394 H 0.46092 0.79823 0.8882 0.0
H395 H 0.49602 0.80457 0.92844 0.0
H396 H 0.74207 0.79519 0.33469 0.0
H397 H 0.74072 0.83208 0.37169 0.0
H398 H 0.82197 0.86215 0.38722 0.0
H399 H 0.82339 0.82575 0.34956 0.0
H400 H 0.76514 0.84695 0.4285 0.0
H401 H 0.79498 0.92658 0.37401 0.0
H402 H 0.78476 0.8917 0.35635 0.0
H403 H 0.81629 0.90543 0.3782 0.0
C404 C 0.75964 0.80976 0.34586 0.0
C405 C 0.78281 0.80771 0.33902 0.0
C406 C 0.75885 0.83071 0.36708 0.0
C407 C 0.78117 0.85006 0.38183 0.0
C408 C 0.80446 0.84767 0.37569 0.0
H409 H 0.81315 0.99255 0.5141 0.0
H410 H 0.81517 0.95507 0.47831 0.0
C411 C 0.80528 0.82671 0.35441 0.0
C412 C 0.77994 0.87276 0.40353 0.0
H413 H 0.79099 0.94058 0.42049 0.0
C414 C 0.77073 0.86742 0.42676 0.0
C415 C 0.78718 0.89941 0.40109 0.0
C416 C 0.79615 0.90622 0.37597 0.0
C417 C 0.76893 0.88812 0.44788 0.0
C418 C 0.77619 0.91476 0.44543 0.0
C419 C 0.78544 0.9201 0.42225 0.0
C420 C 0.77463 0.93744 0.4669 0.0
C421 C 0.75976 0.88138 0.47291 0.0
C422 C 0.75109 0.94012 0.472 0.0
C423 C 0.74983 0.96156 0.49245 0.0
C424 C 0.77212 0.98071 0.50806 0.0
C425 C 0.79562 0.97813 0.50253 0.0
C426 C 0.79684 0.95674 0.48208 0.0
H427 H 0.76059 0.86091 0.47478 0.0
H428 H 0.77125 0.89578 0.49257 0.0
H429 H 0.73971 0.88253 0.47066 0.0
H430 H 0.73369 0.92566 0.46011 0.0
H431 H 0.73143 0.96303 0.49611 0.0
H432 H 0.65979 0.3096 0.88006 0.0
H433 H 0.62963 0.30866 0.91006 0.0
H434 H 0.69139 0.32473 0.98279 0.0
H435 H 0.72181 0.32704 0.9528 0.0
H436 H 0.61724 0.2774 0.94265 0.0
H437 H 0.65669 0.38044 0.00806 0.0
H438 H 0.6672 0.36859 0.97711 0.0
H439 H 0.67938 0.36067 0.00967 0.0
C440 C 0.66694 0.31308 0.90247 0.0
C441 C 0.69311 0.31851 0.91422 0.0
C442 C 0.64969 0.31248 0.9196 0.0
C443 C 0.65822 0.317 0.94876 0.0
C444 C 0.68437 0.32192 0.96046 0.0
H445 H 0.54872 0.28031 0.05212 0.0
H446 H 0.58132 0.27762 0.02523 0.0
C447 C 0.70172 0.32307 0.94334 0.0
C448 C 0.63953 0.3163 0.96662 0.0
H449 H 0.62405 0.35285 0.02183 0.0
C450 C 0.61869 0.29393 0.95994 0.0
C451 C 0.6413 0.33797 0.98903 0.0
C452 C 0.6622 0.36337 0.99624 0.0
C453 C 0.59937 0.2928 0.97467 0.0
C454 C 0.60143 0.31423 0.99744 0.0
C455 C 0.62253 0.33636 0.00446 0.0
C456 C 0.5813 0.31506 0.01332 0.0
C457 C 0.57652 0.26914 0.96488 0.0
C458 C 0.57087 0.33721 0.01616 0.0
C459 C 0.55284 0.33908 0.03206 0.0
C460 C 0.54455 0.31864 0.04515 0.0
C461 C 0.55457 0.29618 0.04193 0.0
C462 C 0.57309 0.29458 0.02646 0.0
H463 H 0.57448 0.25865 0.94282 0.0
H464 H 0.5788 0.25472 0.97811 0.0
H465 H 0.55874 0.27527 0.96656 0.0
H466 H 0.57682 0.35324 0.0062 0.0
H467 H 0.54537 0.35658 0.0341 0.0
H468 H 0.33746 0.82023 0.65142 0.0
H469 H 0.33623 0.86007 0.63308 0.0
H470 H 0.25555 0.8446 0.62738 0.0
H471 H 0.25661 0.80482 0.64558 0.0
H472 H 0.27214 0.85642 0.5782 0.0
H473 H 0.32553 0.93092 0.67691 0.0
H474 H 0.33995 0.90463 0.66517 0.0
H475 H 0.31084 0.89681 0.67634 0.0
C476 C 0.31948 0.82535 0.64619 0.0
C477 C 0.29719 0.80953 0.64999 0.0
C478 C 0.31883 0.84814 0.6359 0.0
C479 C 0.29586 0.8554 0.62926 0.0
C480 C 0.27348 0.83936 0.63256 0.0
H481 H 0.23919 0.97588 0.5628 0.0
H482 H 0.24583 0.93786 0.5817 0.0
C483 C 0.27413 0.81665 0.64295 0.0
C484 C 0.29496 0.87953 0.6185 0.0
H485 H 0.31329 0.94757 0.63723 0.0
C486 C 0.28116 0.87636 0.59105 0.0
C487 C 0.30694 0.90545 0.63531 0.0
C488 C 0.32153 0.90985 0.66516 0.0
C489 C 0.27891 0.89849 0.57994 0.0
C490 C 0.29027 0.92446 0.597 0.0
C491 C 0.30455 0.92763 0.62427 0.0
C492 C 0.28668 0.94849 0.58717 0.0
C493 C 0.26456 0.89383 0.54994 0.0
C494 C 0.30758 0.96774 0.58516 0.0
C495 C 0.30388 0.98975 0.57458 0.0
C496 C 0.27919 0.99283 0.56592 0.0
C497 C 0.25843 0.97398 0.56898 0.0
C498 C 0.26216 0.95213 0.57963 0.0
H499 H 0.26361 0.87367 0.53757 0.0
H500 H 0.24479 0.89533 0.54954 0.0
H501 H 0.2735 0.90895 0.5396 0.0
H502 H 0.32668 0.96538 0.59114 0.0
H503 H 0.32026 0.00394 0.57254 0.0
H504 H 0.71407 0.75778 0.26153 0.0
H505 H 0.68235 0.75307 0.21882 0.0
H506 H 0.7379 0.74383 0.16999 0.0
H507 H 0.77026 0.75002 0.21297 0.0
H508 H 0.7137 0.77924 0.15577 0.0
H509 H 0.64202 0.6899 0.15764 0.0
H510 H 0.64919 0.71456 0.1899 0.0
H511 H 0.67363 0.69954 0.18002 0.0
C512 C 0.71959 0.75472 0.24172 0.0
C513 C 0.74479 0.7545 0.24072 0.0
C514 C 0.70128 0.75158 0.21724 0.0
C515 C 0.70759 0.74761 0.19111 0.0
C516 C 0.73255 0.74665 0.18991 0.0
H517 H 0.58862 0.71995 0.03821 0.0
H518 H 0.62197 0.71409 0.07449 0.0
C519 C 0.75098 0.75001 0.21448 0.0
C520 C 0.68868 0.74689 0.16552 0.0
H521 H 0.62705 0.71877 0.12975 0.0
C522 C 0.69488 0.76573 0.14983 0.0
C523 C 0.66424 0.729 0.15744 0.0
C524 C 0.65699 0.70693 0.17198 0.0
C525 C 0.67698 0.76799 0.12713 0.0
C526 C 0.65195 0.75149 0.12044 0.0
C527 C 0.64609 0.73177 0.13523 0.0
C528 C 0.63146 0.75487 0.09869 0.0
C529 C 0.68511 0.78807 0.11057 0.0
C530 C 0.62531 0.77955 0.10061 0.0
C531 C 0.60645 0.78301 0.07984 0.0
C532 C 0.59304 0.76172 0.05696 0.0
C533 C 0.59862 0.73675 0.05556 0.0
C534 C 0.61769 0.73338 0.07624 0.0
H535 H 0.70594 0.79246 0.11219 0.0
H536 H 0.67514 0.78089 0.0881 0.0
H537 H 0.68055 0.80702 0.11909 0.0
H538 H 0.63514 0.79619 0.11818 0.0
H539 H 0.60243 0.80242 0.0817 0.0
H540 H 0.72505 0.23223 0.81017 0.0
H541 H 0.72407 0.19366 0.77363 0.0
H542 H 0.71668 0.24037 0.71175 0.0
H543 H 0.71848 0.27921 0.7484 0.0
H544 H 0.69169 0.1643 0.72402 0.0
H545 H 0.78196 0.21929 0.7058 0.0
H546 H 0.76915 0.23164 0.73479 0.0
H547 H 0.75666 0.23554 0.70033 0.0
C548 C 0.72281 0.23408 0.78868 0.0
C549 C 0.72217 0.25868 0.78205 0.0
C550 C 0.72226 0.21209 0.76785 0.0
C551 C 0.72088 0.21436 0.74011 0.0
C552 C 0.71842 0.23841 0.73316 0.0
H553 H 0.70981 0.08148 0.59938 0.0
H554 H 0.69908 0.11556 0.63247 0.0
C555 C 0.71936 0.26051 0.75403 0.0
C556 C 0.72399 0.19225 0.71901 0.0
H557 H 0.76258 0.17677 0.676 0.0
C558 C 0.70714 0.16696 0.71344 0.0
C559 C 0.74444 0.19574 0.70563 0.0
C560 C 0.76424 0.22193 0.7121 0.0
C561 C 0.71025 0.145 0.69483 0.0
C562 C 0.73041 0.14868 0.68106 0.0
C563 C 0.74706 0.17403 0.68648 0.0
C564 C 0.73566 0.12645 0.66197 0.0
C565 C 0.69247 0.11797 0.69083 0.0
C566 C 0.75979 0.12142 0.66745 0.0
C567 C 0.76609 0.10246 0.64841 0.0
C568 C 0.7483 0.08793 0.62357 0.0
C569 C 0.72383 0.09229 0.61846 0.0
C570 C 0.71763 0.11162 0.63742 0.0
H571 H 0.68251 0.11722 0.70813 0.0
H572 H 0.67786 0.1136 0.67096 0.0
H573 H 0.70288 0.10209 0.68954 0.0
H574 H 0.77398 0.13259 0.68628 0.0
H575 H 0.78504 0.0994 0.65304 0.0
H576 H 0.27154 0.27612 0.23342 0.0
H577 H 0.3038 0.27463 0.20605 0.0
H578 H 0.33091 0.36026 0.23209 0.0
H579 H 0.29902 0.36187 0.26006 0.0
H580 H 0.3151 0.30036 0.16248 0.0
H581 H 0.39366 0.33198 0.25831 0.0
H582 H 0.3608 0.32037 0.25921 0.0
H583 H 0.37275 0.35377 0.25597 0.0
C584 C 0.28433 0.29464 0.23322 0.0
C585 C 0.28299 0.3191 0.24913 0.0
C586 C 0.30263 0.29375 0.21749 0.0
C587 C 0.31995 0.31727 0.2175 0.0
C588 C 0.3179 0.34185 0.23222 0.0
H589 H 0.44971 0.36166 0.15131 0.0
H590 H 0.41451 0.35818 0.17435 0.0
C591 C 0.29956 0.34277 0.24795 0.0
C592 C 0.34083 0.31597 0.20306 0.0
H593 H 0.40543 0.32923 0.21484 0.0
C594 C 0.33487 0.30651 0.17386 0.0
C595 C 0.36652 0.32376 0.21812 0.0
C596 C 0.37391 0.33282 0.24966 0.0
C597 C 0.35408 0.30559 0.15913 0.0
C598 C 0.37979 0.31394 0.17416 0.0
C599 C 0.38568 0.32286 0.20342 0.0
C600 C 0.401 0.31532 0.1599 0.0
C601 C 0.3468 0.29659 0.1276 0.0
C602 C 0.40525 0.29224 0.14439 0.0
C603 C 0.4255 0.29412 0.13109 0.0
C604 C 0.44177 0.31912 0.13322 0.0
C605 C 0.43755 0.34207 0.14914 0.0
C606 C 0.41743 0.34016 0.16236 0.0
H607 H 0.32657 0.29574 0.11893 0.0
H608 H 0.35896 0.31018 0.11816 0.0
H609 H 0.3497 0.27635 0.12121 0.0
H610 H 0.39299 0.27282 0.14267 0.0
H611 H 0.42828 0.27609 0.11903 0.0
H612 H 0.90235 0.79275 0.79967 0.0
H613 H 0.92501 0.75838 0.80646 0.0
H614 H 0.89134 0.74603 0.87568 0.0
H615 H 0.86835 0.78015 0.86875 0.0
H616 H 0.95968 0.75423 0.85306 0.0
H617 H 0.872 0.67126 0.82365 0.0
H618 H 0.87203 0.70373 0.81703 0.0
H619 H 0.87297 0.69858 0.85169 0.0
C620 C 0.89984 0.78274 0.81638 0.0
C621 C 0.88344 0.78895 0.83349 0.0
C622 C 0.91283 0.76317 0.82028 0.0
C623 C 0.90959 0.7494 0.84133 0.0
C624 C 0.89375 0.75608 0.85899 0.0
H625 H 0.00313 0.63869 0.88117 0.0
H626 H 0.98259 0.67575 0.88615 0.0
C627 C 0.8807 0.77565 0.85506 0.0
C628 C 0.92242 0.72767 0.84416 0.0
H629 H 0.91093 0.66026 0.8367 0.0
C630 C 0.94907 0.7337 0.84972 0.0
C631 C 0.90847 0.70089 0.83955 0.0
C632 C 0.87979 0.69306 0.83242 0.0
C633 C 0.96215 0.71358 0.85032 0.0
C634 C 0.94819 0.6868 0.84558 0.0
C635 C 0.92157 0.68085 0.84055 0.0
C636 C 0.96058 0.66437 0.84325 0.0
C637 C 0.99071 0.721 0.85489 0.0
C638 C 0.95465 0.64545 0.8177 0.0
C639 C 0.9662 0.62431 0.81483 0.0
C640 C 0.98392 0.6215 0.83751 0.0
C641 C 0.98966 0.64033 0.86326 0.0
C642 C 0.97804 0.66158 0.86611 0.0
H643 H 0.9981 0.74166 0.85294 0.0
H644 H 0.99941 0.71957 0.87624 0.0
H645 H 0.99689 0.70706 0.8396 0.0
H646 H 0.9412 0.64721 0.79982 0.0
H647 H 0.96124 0.61019 0.7947 0.0
H648 H 0.79521 0.33823 0.27796 0.0
H649 H 0.83107 0.36083 0.26179 0.0
H650 H 0.87754 0.38236 0.34605 0.0
H651 H 0.84176 0.35957 0.36231 0.0
H652 H 0.85421 0.4137 0.27882 0.0
H653 H 0.92494 0.3555 0.30123 0.0
H654 H 0.8918 0.34338 0.30076 0.0
H655 H 0.91301 0.36683 0.33111 0.0
C656 C 0.81317 0.34758 0.29298 0.0
C657 C 0.81569 0.34725 0.32142 0.0
C658 C 0.83364 0.36038 0.2837 0.0
C659 C 0.85706 0.37303 0.30263 0.0
C660 C 0.85983 0.37219 0.33094 0.0
H661 H 0.99281 0.48785 0.30937 0.0
H662 H 0.95818 0.45482 0.31663 0.0
C663 C 0.83936 0.35925 0.34023 0.0
C664 C 0.87783 0.389 0.29323 0.0
H665 H 0.94063 0.39835 0.2925 0.0
C666 C 0.87301 0.41012 0.28143 0.0
C667 C 0.90233 0.38427 0.29666 0.0
C668 C 0.9083 0.3611 0.30788 0.0
C669 C 0.89229 0.42729 0.27399 0.0
C670 C 0.91695 0.423 0.27815 0.0
C671 C 0.92166 0.40153 0.28933 0.0
C672 C 0.93849 0.44176 0.27292 0.0
C673 C 0.88641 0.45055 0.26285 0.0
C674 C 0.93908 0.44504 0.24579 0.0
C675 C 0.95891 0.464 0.24151 0.0
C676 C 0.97844 0.47994 0.26432 0.0
C677 C 0.97802 0.47605 0.29134 0.0
C678 C 0.95829 0.4571 0.29555 0.0
H679 H 0.86775 0.4538 0.26566 0.0
H680 H 0.90141 0.46913 0.27346 0.0
H681 H 0.8859 0.44667 0.24012 0.0
H682 H 0.92409 0.43311 0.22801 0.0
H683 H 0.95874 0.46643 0.22044 0.0
H684 H 0.18588 0.37381 0.78829 0.0
H685 H 0.15578 0.40165 0.79155 0.0
H686 H 0.17204 0.41184 0.88116 0.0
H687 H 0.20157 0.38334 0.87815 0.0
H688 H 0.11136 0.39325 0.82068 0.0
H689 H 0.18493 0.48957 0.86397 0.0
H690 H 0.19155 0.46054 0.8441 0.0
H691 H 0.18844 0.4619 0.87936 0.0
C692 C 0.18285 0.38164 0.80868 0.0
C693 C 0.19627 0.37636 0.83297 0.0
C694 C 0.16576 0.39769 0.8105 0.0
C695 C 0.16193 0.40895 0.83661 0.0
C696 C 0.17502 0.40357 0.86086 0.0
H697 H 0.07506 0.52568 0.87923 0.0
H698 H 0.10294 0.49524 0.88219 0.0
C699 C 0.19197 0.38738 0.85907 0.0
C700 C 0.14418 0.42631 0.83844 0.0
H701 H 0.14213 0.4913 0.85729 0.0
C702 C 0.11802 0.41469 0.82873 0.0
C703 C 0.153 0.45416 0.84927 0.0
C704 C 0.18101 0.46748 0.85969 0.0
C705 C 0.10034 0.43028 0.82943 0.0
C706 C 0.10917 0.45832 0.83937 0.0
C707 C 0.13537 0.46984 0.84964 0.0
C708 C 0.09168 0.47616 0.83794 0.0
C709 C 0.07238 0.41649 0.8198 0.0
C710 C 0.07632 0.47576 0.81209 0.0
C711 C 0.06032 0.49293 0.81037 0.0
C712 C 0.05956 0.51122 0.83443 0.0
C713 C 0.07513 0.51179 0.86033 0.0
C714 C 0.09107 0.49443 0.86204 0.0
H715 H 0.06866 0.39549 0.82182 0.0
H716 H 0.06103 0.427 0.83196 0.0
H717 H 0.06573 0.41618 0.79736 0.0
H718 H 0.07698 0.46241 0.79308 0.0
H719 H 0.04881 0.4921 0.79002 0.0
H720 H 0.23779 0.75249 0.24709 0.0
H721 H 0.20641 0.71046 0.24071 0.0
H722 H 0.18583 0.70496 0.15187 0.0
H723 H 0.21736 0.74744 0.15822 0.0
H724 H 0.1441 0.69844 0.17888 0.0
H725 H 0.20703 0.63348 0.20521 0.0
H726 H 0.21552 0.66489 0.23034 0.0
H727 H 0.218 0.66407 0.19481 0.0
C728 C 0.22672 0.74224 0.22616 0.0
C729 C 0.22991 0.75323 0.20315 0.0
C730 C 0.20897 0.71812 0.2225 0.0
C731 C 0.19406 0.70445 0.19577 0.0
C732 C 0.19736 0.71513 0.17262 0.0
H733 H 0.06155 0.57038 0.18223 0.0
H734 H 0.09267 0.60071 0.16596 0.0
C735 C 0.21536 0.73927 0.17625 0.0
C736 C 0.17387 0.6801 0.1929 0.0
H737 H 0.16442 0.6207 0.21199 0.0
C738 C 0.14841 0.68106 0.18535 0.0
C739 C 0.17962 0.65747 0.20123 0.0
C740 C 0.20654 0.65474 0.20809 0.0
C741 C 0.12864 0.66093 0.18821 0.0
C742 C 0.13463 0.63929 0.19859 0.0
C743 C 0.15992 0.63742 0.20419 0.0
C744 C 0.11566 0.62053 0.20755 0.0
C745 C 0.10175 0.66384 0.18208 0.0
C746 C 0.11848 0.62154 0.23619 0.0
C747 C 0.10089 0.6044 0.2455 0.0
C748 C 0.08009 0.58572 0.22633 0.0
C749 C 0.07732 0.5846 0.19753 0.0
C750 C 0.09501 0.60192 0.1882 0.0
H751 H 0.10066 0.68313 0.1767 0.0
H752 H 0.08995 0.64743 0.16421 0.0
H753 H 0.09344 0.66232 0.20048 0.0
H754 H 0.13429 0.6358 0.25144 0.0
H755 H 0.1037 0.60582 0.26781 0.0
H756 H 0.81214 0.91491 0.82074 0.0
H757 H 0.81297 0.942 0.78616 0.0
H758 H 0.83803 0.88341 0.7331 0.0
H759 H 0.83569 0.85538 0.76667 0.0
H760 H 0.84962 0.9655 0.76364 0.0
H761 H 0.77603 0.88888 0.68034 0.0
H762 H 0.78328 0.88595 0.71613 0.0
H763 H 0.80334 0.8775 0.69314 0.0
C764 C 0.81755 0.90759 0.80158 0.0
C765 C 0.82346 0.8827 0.79639 0.0
C766 C 0.81828 0.92327 0.78195 0.0
C767 C 0.82505 0.9145 0.75675 0.0
C768 C 0.83214 0.8903 0.75207 0.0
H769 H 0.85077 0.01831 0.64027 0.0
H770 H 0.85747 0.99177 0.67506 0.0
C771 C 0.83114 0.87445 0.77154 0.0
C772 C 0.82397 0.9304 0.73515 0.0
H773 H 0.79567 0.92752 0.66749 0.0
C774 C 0.83786 0.95722 0.74259 0.0
C775 C 0.80836 0.91965 0.70778 0.0
C776 C 0.79171 0.89151 0.69889 0.0
C777 C 0.83642 0.97363 0.7235 0.0
C778 C 0.82116 0.96272 0.69599 0.0
C779 C 0.80752 0.93583 0.6885 0.0
C780 C 0.81763 0.9791 0.67508 0.0
C781 C 0.8505 0.0027 0.73334 0.0
C782 C 0.79302 0.98028 0.66296 0.0
C783 C 0.78912 0.99497 0.6428 0.0
C784 C 0.80978 0.00899 0.63434 0.0
C785 C 0.83448 0.0079 0.6465 0.0
C786 C 0.83835 0.99288 0.66653 0.0
H787 H 0.85574 0.00931 0.75656 0.0
H788 H 0.8683 0.00581 0.72583 0.0
H789 H 0.83892 0.01549 0.72489 0.0
H790 H 0.77673 0.96983 0.66918 0.0
H791 H 0.76985 0.99545 0.63396 0.0
H792 H 0.741 0.38056 0.32955 0.0
H793 H 0.70294 0.39089 0.30528 0.0
H794 H 0.66337 0.30761 0.28453 0.0
H795 H 0.7014 0.29721 0.30898 0.0
H796 H 0.68271 0.3716 0.2495 0.0
H797 H 0.60959 0.34311 0.30788 0.0
H798 H 0.64312 0.34803 0.3224 0.0
H799 H 0.62498 0.31713 0.29843 0.0
C800 C 0.72402 0.36452 0.32022 0.0
C801 C 0.72418 0.33804 0.32099 0.0
C802 C 0.70229 0.37046 0.30644 0.0
C803 C 0.68024 0.35008 0.29325 0.0
C804 C 0.67997 0.32376 0.29506 0.0
H805 H 0.54694 0.31943 0.1654 0.0
H806 H 0.58131 0.3207 0.20425 0.0
C807 C 0.70172 0.31781 0.30898 0.0
C808 C 0.6587 0.35588 0.27495 0.0
H809 H 0.59438 0.34758 0.26117 0.0
C810 C 0.66345 0.36679 0.25232 0.0
C811 C 0.6336 0.34957 0.27866 0.0
C812 C 0.62751 0.33906 0.30333 0.0
C813 C 0.64364 0.37033 0.2325 0.0
C814 C 0.61842 0.36317 0.23567 0.0
C815 C 0.61375 0.3531 0.25882 0.0
C816 C 0.59648 0.36344 0.21369 0.0
C817 C 0.64972 0.38039 0.20755 0.0
C818 C 0.59325 0.38719 0.20641 0.0
C819 C 0.57354 0.38657 0.18396 0.0
C820 C 0.55675 0.36215 0.16854 0.0
C821 C 0.5596 0.33859 0.17663 0.0
C822 C 0.5792 0.33925 0.19896 0.0
H823 H 0.66937 0.38029 0.20559 0.0
H824 H 0.63622 0.36804 0.18788 0.0
H825 H 0.64787 0.40118 0.20985 0.0
H826 H 0.60619 0.40614 0.21782 0.0
H827 H 0.57177 0.40507 0.17837 0.0
H828 H 0.19307 0.25791 0.74342 0.0
H829 H 0.18302 0.21611 0.70732 0.0
H830 H 0.26255 0.21713 0.7223 0.0
H831 H 0.27267 0.25869 0.75815 0.0
H832 H 0.20329 0.20696 0.65769 0.0
H833 H 0.22681 0.14164 0.72805 0.0
H834 H 0.22036 0.17343 0.74044 0.0
H835 H 0.25113 0.17197 0.73434 0.0
C836 C 0.20836 0.24912 0.73906 0.0
C837 C 0.23368 0.26145 0.75363 0.0
C838 C 0.20259 0.22528 0.71847 0.0
C839 C 0.222 0.21333 0.71248 0.0
C840 C 0.24724 0.22575 0.72696 0.0
H841 H 0.26456 0.09918 0.60426 0.0
H842 H 0.25749 0.13206 0.64117 0.0
C843 C 0.253 0.24955 0.74732 0.0
C844 C 0.21645 0.1884 0.69045 0.0
H845 H 0.22633 0.12593 0.67959 0.0
C846 C 0.20776 0.18898 0.66241 0.0
C847 C 0.22221 0.16499 0.69675 0.0
C848 C 0.23041 0.16279 0.72656 0.0
C849 C 0.20644 0.16742 0.64038 0.0
C850 C 0.21364 0.14459 0.64668 0.0
C851 C 0.22089 0.14347 0.67479 0.0
C852 C 0.21687 0.12324 0.6247 0.0
C853 C 0.19894 0.16987 0.61056 0.0
C854 C 0.19625 0.10689 0.60337 0.0
C855 C 0.20024 0.08789 0.58204 0.0
C856 C 0.22492 0.085 0.58176 0.0
C857 C 0.24532 0.10091 0.60367 0.0
C858 C 0.24132 0.11973 0.62488 0.0
H859 H 0.19756 0.19036 0.60938 0.0
H860 H 0.21291 0.16444 0.59866 0.0
H861 H 0.18014 0.1559 0.60016 0.0
H862 H 0.17716 0.10901 0.60308 0.0
H863 H 0.18413 0.07592 0.5655 0.0
H864 H 0.34057 0.84061 0.16482 0.0
H865 H 0.37547 0.84775 0.14074 0.0
H866 H 0.36736 0.76289 0.11839 0.0
H867 H 0.33261 0.75566 0.14221 0.0
H868 H 0.42233 0.83141 0.15115 0.0
H869 H 0.36445 0.78514 0.04321 0.0
H870 H 0.35063 0.79577 0.07205 0.0
H871 H 0.35938 0.76454 0.06746 0.0
C872 C 0.34618 0.82351 0.15464 0.0
C873 C 0.33382 0.79753 0.15523 0.0
C874 C 0.36611 0.82762 0.14095 0.0
C875 C 0.37374 0.80582 0.12744 0.0
C876 C 0.36148 0.77996 0.12822 0.0
H877 H 0.48387 0.76495 0.04058 0.0
H878 H 0.44971 0.76808 0.06465 0.0
C879 C 0.34171 0.77586 0.14193 0.0
C880 C 0.39488 0.80977 0.113 0.0
H881 H 0.40937 0.79115 0.04993 0.0
C882 C 0.41952 0.823 0.12894 0.0
C883 C 0.39111 0.79879 0.08402 0.0
C884 C 0.36493 0.78548 0.0656 0.0
C885 C 0.44067 0.82433 0.11691 0.0
C886 C 0.43696 0.81245 0.08813 0.0
C887 C 0.4122 0.8001 0.07203 0.0
C888 C 0.45851 0.81118 0.07454 0.0
C889 C 0.4669 0.83733 0.13533 0.0
C890 C 0.47487 0.83441 0.07208 0.0
C891 C 0.49456 0.83271 0.05832 0.0
C892 C 0.49813 0.80771 0.04664 0.0
C893 C 0.48174 0.78453 0.04932 0.0
C894 C 0.46214 0.78627 0.06305 0.0
H895 H 0.46691 0.84068 0.15795 0.0
H896 H 0.48029 0.82492 0.13101 0.0
H897 H 0.47408 0.85695 0.13079 0.0
H898 H 0.47215 0.85383 0.08038 0.0
H899 H 0.50674 0.85094 0.0565 0.0
H900 H 0.83718 0.28248 0.43084 0.0
H901 H 0.83874 0.24704 0.45606 0.0
H902 H 0.7587 0.2122 0.42062 0.0
H903 H 0.7571 0.24739 0.39507 0.0
H904 H 0.81203 0.23347 0.4954 0.0
H905 H 0.78977 0.14902 0.40238 0.0
H906 H 0.79897 0.18339 0.40038 0.0
H907 H 0.76698 0.16878 0.40184 0.0
C908 C 0.81994 0.2672 0.4284 0.0
C909 C 0.79707 0.26763 0.41094 0.0
C910 C 0.82085 0.247 0.44281 0.0
C911 C 0.79894 0.22675 0.4399 0.0
C912 C 0.77596 0.22731 0.42272 0.0
H913 H 0.76059 0.09134 0.51127 0.0
H914 H 0.76178 0.12623 0.48534 0.0
C915 C 0.77503 0.24753 0.40827 0.0
C916 C 0.80009 0.20539 0.4553 0.0
H917 H 0.7902 0.13792 0.44634 0.0
C918 C 0.80742 0.21258 0.48469 0.0
C919 C 0.79411 0.17816 0.44127 0.0
C920 C 0.78724 0.16931 0.40972 0.0
C921 C 0.80829 0.19323 0.50046 0.0
C922 C 0.80209 0.16599 0.48643 0.0
C923 C 0.79496 0.15882 0.45704 0.0
C924 C 0.80194 0.14454 0.50187 0.0
C925 C 0.81511 0.20205 0.53201 0.0
C926 C 0.82426 0.14295 0.51947 0.0
C927 C 0.82367 0.12295 0.53442 0.0
C928 C 0.80075 0.10413 0.53193 0.0
C929 C 0.77857 0.10551 0.51379 0.0
C930 C 0.77919 0.12545 0.49889 0.0
H931 H 0.81361 0.22275 0.53942 0.0
H932 H 0.80259 0.18855 0.54121 0.0
H933 H 0.83501 0.2014 0.54002 0.0
H934 H 0.84212 0.15719 0.52166 0.0
H935 H 0.8411 0.1224 0.5481 0.0
H936 H 0.30325 0.34844 0.84495 0.0
H937 H 0.34143 0.35603 0.88208 0.0
H938 H 0.30002 0.37731 0.94428 0.0
H939 H 0.26147 0.36871 0.90738 0.0
H940 H 0.36932 0.40044 0.92508 0.0
H941 H 0.32646 0.31593 0.96718 0.0
H942 H 0.31223 0.321 0.93374 0.0
H943 H 0.30875 0.34073 0.96559 0.0
C944 C 0.3022 0.35459 0.86654 0.0
C945 C 0.27918 0.35761 0.87318 0.0
C946 C 0.32411 0.35918 0.88771 0.0
C947 C 0.32346 0.36686 0.91594 0.0
C948 C 0.30083 0.37098 0.92264 0.0
H949 H 0.45727 0.40929 0.05773 0.0
H950 H 0.42151 0.41264 0.02236 0.0
C951 C 0.27886 0.36629 0.90148 0.0
C952 C 0.34614 0.36922 0.93829 0.0
H953 H 0.36756 0.34145 0.99151 0.0
C954 C 0.36896 0.38766 0.93972 0.0
C955 C 0.34565 0.35229 0.95715 0.0
C956 C 0.32206 0.3312 0.95579 0.0
C957 C 0.39139 0.38947 0.95941 0.0
C958 C 0.39081 0.37261 0.97831 0.0
C959 C 0.3679 0.35445 0.97707 0.0
C960 C 0.41396 0.37199 0.99838 0.0
C961 C 0.41566 0.40872 0.95924 0.0
C962 C 0.42161 0.34814 0.99656 0.0
C963 C 0.44175 0.34612 0.01673 0.0
C964 C 0.45475 0.36794 0.03924 0.0
C965 C 0.44772 0.39219 0.04054 0.0
C966 C 0.42735 0.39415 0.02032 0.0
H967 H 0.41406 0.41621 0.9398 0.0
H968 H 0.42015 0.42609 0.97735 0.0
H969 H 0.43177 0.39916 0.96127 0.0
H970 H 0.41159 0.33082 0.97978 0.0
H971 H 0.44675 0.32719 0.01496 0.0
H972 H 0.25892 0.87631 0.23266 0.0
H973 H 0.25209 0.90948 0.27025 0.0
H974 H 0.25892 0.85668 0.32598 0.0
H975 H 0.26489 0.82337 0.28834 0.0
H976 H 0.21839 0.876 0.32826 0.0
H977 H 0.302 0.95928 0.33793 0.0
H978 H 0.28142 0.94775 0.30349 0.0
H979 H 0.29851 0.926 0.31786 0.0
C980 C 0.25933 0.87208 0.2531 0.0
C981 C 0.26245 0.84737 0.25769 0.0
C982 C 0.25547 0.891 0.27456 0.0
C983 C 0.25519 0.88569 0.30106 0.0
C984 C 0.25894 0.86122 0.30572 0.0
H985 H 0.27767 0.98943 0.46084 0.0
H986 H 0.27912 0.96029 0.4176 0.0
C987 C 0.26245 0.84225 0.28426 0.0
C988 C 0.25026 0.905 0.32391 0.0
H989 H 0.27329 0.96785 0.36587 0.0
C990 C 0.23035 0.89613 0.33644 0.0
C991 C 0.2659 0.93123 0.33462 0.0
C992 C 0.2883 0.94162 0.32299 0.0
C993 C 0.22612 0.91242 0.35988 0.0
C994 C 0.24179 0.93864 0.37062 0.0
C995 C 0.2612 0.94779 0.35754 0.0
C996 C 0.24004 0.95611 0.39688 0.0
C997 C 0.2057 0.90092 0.37365 0.0
C998 C 0.21748 0.96348 0.39981 0.0
C999 C 0.21646 0.97997 0.42489 0.0
C1000 C 0.23813 0.98973 0.4472 0.0
C1001 C 0.26064 0.98238 0.44405 0.0
C1002 C 0.26154 0.96573 0.41927 0.0
H1003 H 0.19965 0.8788 0.36699 0.0
H1004 H 0.21236 0.90679 0.39682 0.0
H1005 H 0.1888 0.90863 0.36767 0.0
H1006 H 0.20077 0.95676 0.38263 0.0
H1007 H 0.19892 0.98549 0.4266 0.0
H1008 H 0.79551 0.83899 0.90023 0.0
H1009 H 0.75913 0.83386 0.92171 0.0
H1010 H 0.71208 0.84403 0.84743 0.0
H1011 H 0.74785 0.84741 0.82507 0.0
H1012 H 0.73036 0.86673 0.93518 0.0
H1013 H 0.66974 0.77636 0.85709 0.0
H1014 H 0.70285 0.78905 0.85808 0.0
H1015 H 0.67928 0.80376 0.84166 0.0
C1016 C 0.77734 0.83969 0.88823 0.0
C1017 C 0.77467 0.84339 0.86077 0.0
C1018 C 0.75659 0.83702 0.90068 0.0
C1019 C 0.73273 0.83809 0.88603 0.0
C1020 C 0.73013 0.84249 0.85893 0.0
H1021 H 0.60803 0.85747 0.96764 0.0
H1022 H 0.64358 0.86523 0.94485 0.0
C1023 C 0.75078 0.84485 0.84632 0.0
C1024 C 0.71066 0.83471 0.89923 0.0
H1025 H 0.65012 0.79735 0.89023 0.0
C1026 C 0.71283 0.85152 0.92539 0.0
C1027 C 0.68788 0.81463 0.88663 0.0
C1028 C 0.68483 0.79475 0.85947 0.0
C1029 C 0.69288 0.84884 0.93928 0.0
C1030 C 0.66983 0.8293 0.92626 0.0
C1031 C 0.66768 0.81251 0.90009 0.0
C1032 C 0.64809 0.82493 0.9399 0.0
C1033 C 0.69707 0.86642 0.96812 0.0
C1034 C 0.63822 0.79953 0.94389 0.0
C1035 C 0.61765 0.79494 0.95636 0.0
C1036 C 0.60653 0.81569 0.96531 0.0
C1037 C 0.61632 0.84113 0.96121 0.0
C1038 C 0.63676 0.84564 0.94837 0.0
H1039 H 0.71762 0.87474 0.97814 0.0
H1040 H 0.68844 0.88341 0.96641 0.0
H1041 H 0.6881 0.85527 0.982 0.0
H1042 H 0.64657 0.78322 0.9375 0.0
H1043 H 0.61064 0.77512 0.95926 0.0
loop_
_geom_bond_atom_site_label_1
_geom_bond_atom_site_label_2
_geom_bond_distance
_geom_bond_site_symmetry_2
_ccdc_geom_bond_type
H0 C5 0.930 . S
H1 C8 0.930 . S
H2 C10 0.930 . S
H3 C4 1.016 . S
C4 H3 1.016 . S
C4 N11 1.286 . S
C5 H0 0.930 . S
C5 C6 1.397 . S
C5 C7 1.361 . S
C6 C5 1.397 . S
C6 C10 1.390 . S
C7 C5 1.361 . S
C7 C8 1.393 . S
C7 N11 1.413 . S
C8 H1 0.930 . S
C8 C7 1.393 . S
C8 C9 1.399 . S
C9 C8 1.399 . S
C9 C10 1.381 . S
C10 H2 0.930 . S
C10 C6 1.390 . S
C10 C9 1.381 . S
N11 C4 1.286 . S
N11 C7 1.413 . S
H12 C17 0.930 . S
H13 C20 0.930 . S
H14 C22 0.930 . S
H15 C16 1.016 . S
C16 H15 1.016 . S
C16 N23 1.286 . S
C17 H12 0.930 . S
C17 C18 1.397 . S
C17 C19 1.361 . S
C18 C17 1.397 . S
C18 C22 1.390 . S
C19 C17 1.361 . S
C19 C20 1.393 . S
C19 N23 1.413 . S
C20 H13 0.930 . S
C20 C19 1.393 . S
C20 C21 1.399 . S
C21 C20 1.399 . S
C21 C22 1.381 . S
C22 H14 0.930 . S
C22 C18 1.390 . S
C22 C21 1.381 . S
N23 C16 1.286 . S
N23 C19 1.413 . S
H24 C29 0.930 . S
H25 C32 0.930 . S
H26 C34 0.930 . S
H27 C28 1.016 . S
C28 H27 1.016 . S
C28 N35 1.286 . S
C29 H24 0.930 . S
C29 C30 1.397 . S
C29 C31 1.361 . S
C30 C29 1.397 . S
C30 C34 1.390 . S
C31 C29 1.361 . S
C31 C32 1.393 . S
C31 N35 1.413 . S
C32 H25 0.930 . S
C32 C31 1.393 . S
C32 C33 1.399 . S
C33 C32 1.399 . S
C33 C34 1.381 . S
C34 H26 0.930 . S
C34 C30 1.390 . S
C34 C33 1.381 . S
N35 C28 1.286 . S
N35 C31 1.413 . S
H36 C41 0.930 . S
H37 C44 0.930 . S
H38 C46 0.930 . S
H39 C40 1.016 . S
C40 H39 1.016 . S
C40 N47 1.286 . S
C41 H36 0.930 . S
C41 C42 1.397 . S
C41 C43 1.361 . S
C42 C41 1.397 . S
C42 C46 1.390 . S
C43 C41 1.361 . S
C43 C44 1.393 . S
C43 N47 1.413 . S
C44 H37 0.930 . S
C44 C43 1.393 . S
C44 C45 1.399 . S
C45 C44 1.399 . S
C45 C46 1.381 . S
C46 H38 0.930 . S
C46 C42 1.390 . S
C46 C45 1.381 . S
N47 C40 1.286 . S
N47 C43 1.413 . S
H48 C53 0.930 . S
H49 C56 0.930 . S
H50 C58 0.930 . S
H51 C52 1.016 . S
C52 H51 1.016 . S
C52 N59 1.286 . S
C53 H48 0.930 . S
C53 C54 1.397 . S
C53 C55 1.361 . S
C54 C53 1.397 . S
C54 C58 1.390 . S
C55 C53 1.361 . S
C55 C56 1.393 . S
C55 N59 1.413 . S
C56 H49 0.930 . S
C56 C55 1.393 . S
C56 C57 1.399 . S
C57 C56 1.399 . S
C57 C58 1.381 . S
C58 H50 0.930 . S
C58 C54 1.390 . S
C58 C57 1.381 . S
N59 C52 1.286 . S
N59 C55 1.413 . S
H60 C65 0.930 . S
H61 C68 0.930 . S
H62 C70 0.930 . S
H63 C64 1.016 . S
C64 H63 1.016 . S
C64 N71 1.286 . S
C65 H60 0.930 . S
C65 C66 1.397 . S
C65 C67 1.361 . S
C66 C65 1.397 . S
C66 C70 1.390 . S
C67 C65 1.361 . S
C67 C68 1.393 . S
C67 N71 1.413 . S
C68 H61 0.930 . S
C68 C67 1.393 . S
C68 C69 1.399 . S
C69 C68 1.399 . S
C69 C70 1.381 . S
C70 H62 0.930 . S
C70 C66 1.390 . S
C70 C69 1.381 . S
N71 C64 1.286 . S
N71 C67 1.413 . S
H72 C77 0.930 . S
H73 C80 0.930 . S
H74 C82 0.930 . S
H75 C76 1.016 . S
C76 H75 1.016 . S
C76 N83 1.286 . S
C77 H72 0.930 . S
C77 C78 1.397 . S
C77 C79 1.361 . S
C78 C77 1.397 . S
C78 C82 1.390 . S
C79 C77 1.361 . S
C79 C80 1.393 . S
C79 N83 1.413 . S
C80 H73 0.930 . S
C80 C79 1.393 . S
C80 C81 1.399 . S
C81 C80 1.399 . S
C81 C82 1.381 . S
C82 H74 0.930 . S
C82 C78 1.390 . S
C82 C81 1.381 . S
N83 C76 1.286 . S
N83 C79 1.413 . S
H84 C89 0.930 . S
H85 C92 0.930 . S
H86 C94 0.930 . S
H87 C88 1.016 . S
C88 H87 1.016 . S
C88 N95 1.286 . S
C89 H84 0.930 . S
C89 C90 1.397 . S
C89 C91 1.361 . S
C90 C89 1.397 . S
C90 C94 1.390 . S
C91 C89 1.361 . S
C91 C92 1.393 . S
C91 N95 1.413 . S
C92 H85 0.930 . S
C92 C91 1.393 . S
C92 C93 1.399 . S
C93 C92 1.399 . S
C93 C94 1.381 . S
C94 H86 0.930 . S
C94 C90 1.390 . S
C94 C93 1.381 . S
N95 C88 1.286 . S
N95 C91 1.413 . S
C96 O98 1.247 1_655 S
C96 O100 1.258 . S
C97 O104 1.247 . S
C97 O105 1.258 . S
O98 C96 1.247 1_455 S
O98 Zn99 2.028 . S
Zn99 O98 2.028 . S
Zn99 O103 2.035 . S
Zn99 O105 2.035 . S
Zn99 O106 2.028 . S
O100 C96 1.258 . S
O100 Zn101 2.035 1_655 S
Zn101 O100 2.035 1_455 S
Zn101 O102 2.028 . S
Zn101 O104 2.028 . S
Zn101 O107 2.035 1_455 S
O102 Zn101 2.028 . S
O102 C108 1.247 . S
O103 Zn99 2.035 . S
O103 C108 1.258 . S
O104 C97 1.247 . S
O104 Zn101 2.028 . S
O105 C97 1.258 . S
O105 Zn99 2.035 . S
O106 Zn99 2.028 . S
O106 C109 1.247 1_455 S
O107 Zn101 2.035 1_655 S
O107 C109 1.258 . S
C108 O102 1.247 . S
C108 O103 1.258 . S
C109 O106 1.247 1_655 S
C109 O107 1.258 . S
C110 O112 1.247 . S
C110 O114 1.258 . S
C111 O118 1.247 . S
C111 O119 1.258 . S
O112 C110 1.247 . S
O112 Zn113 2.028 . S
Zn113 O112 2.028 . S
Zn113 O117 2.035 . S
Zn113 O119 2.035 . S
Zn113 O120 2.028 . S
O114 C110 1.258 . S
O114 Zn115 2.035 . S
Zn115 O114 2.035 . S
Zn115 O116 2.028 . S
Zn115 O118 2.028 . S
Zn115 O121 2.035 . S
O116 Zn115 2.028 . S
O116 C122 1.247 . S
O117 Zn113 2.035 . S
O117 C122 1.258 . S
O118 C111 1.247 . S
O118 Zn115 2.028 . S
O119 C111 1.258 . S
O119 Zn113 2.035 . S
O120 Zn113 2.028 . S
O120 C123 1.247 . S
O121 Zn115 2.035 . S
O121 C123 1.258 . S
C122 O116 1.247 . S
C122 O117 1.258 . S
C123 O120 1.247 . S
C123 O121 1.258 . S
C124 O126 1.247 . S
C124 O128 1.258 . S
C125 O132 1.247 . S
C125 O133 1.258 . S
O126 C124 1.247 . S
O126 Zn127 2.028 . S
Zn127 O126 2.028 . S
Zn127 O131 2.035 1_565 S
Zn127 O133 2.035 1_565 S
Zn127 O134 2.028 . S
O128 C124 1.258 . S
O128 Zn129 2.035 1_565 S
Zn129 O128 2.035 1_545 S
Zn129 O130 2.028 . S
Zn129 O132 2.028 . S
Zn129 O135 2.035 1_545 S
O130 Zn129 2.028 . S
O130 C136 1.247 . S
O131 Zn127 2.035 1_545 S
O131 C136 1.258 . S
O132 C125 1.247 . S
O132 Zn129 2.028 . S
O133 C125 1.258 . S
O133 Zn127 2.035 1_545 S
O134 Zn127 2.028 . S
O134 C137 1.247 . S
O135 Zn129 2.035 1_565 S
O135 C137 1.258 . S
C136 O130 1.247 . S
C136 O131 1.258 . S
C137 O134 1.247 . S
C137 O135 1.258 . S
C138 O140 1.247 . S
C138 O142 1.258 . S
C139 O146 1.247 . S
C139 O147 1.258 . S
O140 C138 1.247 . S
O140 Zn141 2.028 1_554 S
Zn141 O140 2.028 1_556 S
Zn141 O145 2.035 1_556 S
Zn141 O147 2.035 . S
Zn141 O148 2.028 . S
O142 C138 1.258 . S
O142 Zn143 2.035 . S
Zn143 O142 2.035 . S
Zn143 O144 2.028 . S
Zn143 O146 2.028 1_554 S
Zn143 O149 2.035 1_554 S
O144 Zn143 2.028 . S
O144 C150 1.247 . S
O145 Zn141 2.035 1_554 S
O145 C150 1.258 . S
O146 C139 1.247 . S
O146 Zn143 2.028 1_556 S
O147 C139 1.258 . S
O147 Zn141 2.035 . S
O148 Zn141 2.028 . S
O148 C151 1.247 . S
O149 Zn143 2.035 1_556 S
O149 C151 1.258 . S
C150 O144 1.247 . S
C150 O145 1.258 . S
C151 O148 1.247 . S
C151 O149 1.258 . S
C152 O154 1.247 . S
C152 O156 1.258 . S
C153 O160 1.247 . S
C153 O161 1.258 . S
O154 C152 1.247 . S
O154 Zn155 2.028 . S
Zn155 O154 2.028 . S
Zn155 O159 2.035 . S
Zn155 O161 2.035 . S
Zn155 O162 2.028 . S
O156 C152 1.258 . S
O156 Zn157 2.035 . S
Zn157 O156 2.035 . S
Zn157 O158 2.028 . S
Zn157 O160 2.028 . S
Zn157 O163 2.035 . S
O158 Zn157 2.028 . S
O158 C164 1.247 . S
O159 Zn155 2.035 . S
O159 C164 1.258 . S
O160 C153 1.247 . S
O160 Zn157 2.028 . S
O161 C153 1.258 . S
O161 Zn155 2.035 . S
O162 Zn155 2.028 . S
O162 C165 1.247 . S
O163 Zn157 2.035 . S
O163 C165 1.258 . S
C164 O158 1.247 . S
C164 O159 1.258 . S
C165 O162 1.247 . S
C165 O163 1.258 . S
C166 O168 1.247 . S
C166 O170 1.258 . S
C167 O174 1.247 . S
C167 O175 1.258 . S
O168 C166 1.247 . S
O168 Zn169 2.028 . S
Zn169 O168 2.028 . S
Zn169 O173 2.035 . S
Zn169 O175 2.035 . S
Zn169 O176 2.028 . S
O170 C166 1.258 . S
O170 Zn171 2.035 . S
Zn171 O170 2.035 . S
Zn171 O172 2.028 . S
Zn171 O174 2.028 . S
Zn171 O177 2.035 . S
O172 Zn171 2.028 . S
O172 C178 1.247 . S
O173 Zn169 2.035 . S
O173 C178 1.258 . S
O174 C167 1.247 . S
O174 Zn171 2.028 . S
O175 C167 1.258 . S
O175 Zn169 2.035 . S
O176 Zn169 2.028 . S
O176 C179 1.247 . S
O177 Zn171 2.035 . S
O177 C179 1.258 . S
C178 O172 1.247 . S
C178 O173 1.258 . S
C179 O176 1.247 . S
C179 O177 1.258 . S
H180 C188 0.929 . S
H181 C190 0.930 . S
H182 C192 0.930 . S
H183 C195 0.929 . S
H184 C198 0.930 . S
H185 C200 0.960 . S
H186 C200 0.960 . S
H187 C200 0.960 . S
C188 H180 0.929 . S
C188 C189 1.377 . S
C188 C190 1.384 . S
C189 C188 1.377 . S
C189 C195 1.390 . S
C190 H181 0.930 . S
C190 C188 1.384 . S
C190 C191 1.372 . S
C191 C190 1.372 . S
C191 C192 1.400 . S
C191 C196 1.490 . S
C192 H182 0.930 . S
C192 C191 1.400 . S
C192 C195 1.386 . S
H193 C209 0.930 . S
H194 C210 0.931 . S
C195 H183 0.929 . S
C195 C189 1.390 . S
C195 C192 1.386 . S
C196 C191 1.490 . S
C196 C198 1.395 . S
C196 C199 1.403 . S
H197 C203 0.930 . S
C198 H184 0.930 . S
C198 C196 1.395 . S
C198 C201 1.403 . S
C199 C196 1.403 . S
C199 C200 1.524 . S
C199 C203 1.400 . S
C200 H185 0.960 . S
C200 H186 0.960 . S
C200 H187 0.960 . S
C200 C199 1.524 . S
C201 C198 1.403 . S
C201 C202 1.392 . S
C201 C205 1.495 . S
C202 C201 1.392 . S
C202 C203 1.385 . S
C202 C204 1.478 . S
C203 H197 0.930 . S
C203 C199 1.400 . S
C203 C202 1.385 . S
C204 C202 1.478 . S
C204 C206 1.381 . S
C204 C210 1.383 . S
C205 C201 1.495 . S
C205 H211 0.959 . S
C205 H212 0.961 . S
C205 H213 0.960 . S
C206 C204 1.381 . S
C206 C207 1.394 . S
C206 H214 0.930 . S
C207 C206 1.394 . S
C207 C208 1.383 . S
C207 H215 0.929 . S
C208 C207 1.383 . S
C208 C209 1.377 . S
C209 H193 0.930 . S
C209 C208 1.377 . S
C209 C210 1.379 . S
C210 H194 0.931 . S
C210 C204 1.383 . S
C210 C209 1.379 . S
H211 C205 0.959 . S
H212 C205 0.961 . S
H213 C205 0.960 . S
H214 C206 0.930 . S
H215 C207 0.929 . S
H216 C224 0.929 . S
H217 C226 0.930 . S
H218 C228 0.930 . S
H219 C231 0.929 . S
H220 C234 0.930 . S
H221 C236 0.960 . S
H222 C236 0.960 . S
H223 C236 0.960 . S
C224 H216 0.929 . S
C224 C225 1.377 . S
C224 C226 1.384 . S
C225 C224 1.377 . S
C225 C231 1.390 . S
C226 H217 0.930 . S
C226 C224 1.384 . S
C226 C227 1.372 . S
C227 C226 1.372 . S
C227 C228 1.400 . S
C227 C232 1.490 . S
C228 H218 0.930 . S
C228 C227 1.400 . S
C228 C231 1.386 . S
H229 C245 0.930 . S
H230 C246 0.931 . S
C231 H219 0.929 . S
C231 C225 1.390 . S
C231 C228 1.386 . S
C232 C227 1.490 . S
C232 C234 1.395 . S
C232 C235 1.403 . S
H233 C239 0.930 . S
C234 H220 0.930 . S
C234 C232 1.395 . S
C234 C237 1.403 . S
C235 C232 1.403 . S
C235 C236 1.524 . S
C235 C239 1.400 . S
C236 H221 0.960 . S
C236 H222 0.960 . S
C236 H223 0.960 . S
C236 C235 1.524 . S
C237 C234 1.403 . S
C237 C238 1.392 . S
C237 C241 1.495 . S
C238 C237 1.392 . S
C238 C239 1.385 . S
C238 C240 1.478 . S
C239 H233 0.930 . S
C239 C235 1.400 . S
C239 C238 1.385 . S
C240 C238 1.478 . S
C240 C242 1.381 . S
C240 C246 1.383 . S
C241 C237 1.495 . S
C241 H247 0.959 . S
C241 H248 0.961 . S
C241 H249 0.960 . S
C242 C240 1.381 . S
C242 C243 1.394 . S
C242 H250 0.930 . S
C243 C242 1.394 . S
C243 C244 1.383 . S
C243 H251 0.929 . S
C244 C243 1.383 . S
C244 C245 1.377 . S
C245 H229 0.930 . S
C245 C244 1.377 . S
C245 C246 1.379 . S
C246 H230 0.931 . S
C246 C240 1.383 . S
C246 C245 1.379 . S
H247 C241 0.959 . S
H248 C241 0.961 . S
H249 C241 0.960 . S
H250 C242 0.930 . S
H251 C243 0.929 . S
H252 C260 0.929 . S
H253 C262 0.930 . S
H254 C264 0.930 . S
H255 C267 0.929 . S
H256 C270 0.930 . S
H257 C272 0.960 . S
H258 C272 0.960 . S
H259 C272 0.960 . S
C260 H252 0.929 . S
C260 C261 1.377 . S
C260 C262 1.384 . S
C261 C260 1.377 . S
C261 C267 1.390 . S
C262 H253 0.930 . S
C262 C260 1.384 . S
C262 C263 1.372 . S
C263 C262 1.372 . S
C263 C264 1.400 . S
C263 C268 1.490 . S
C264 H254 0.930 . S
C264 C263 1.400 . S
C264 C267 1.386 . S
H265 C281 0.930 . S
H266 C282 0.931 . S
C267 H255 0.929 . S
C267 C261 1.390 . S
C267 C264 1.386 . S
C268 C263 1.490 . S
C268 C270 1.395 . S
C268 C271 1.403 . S
H269 C275 0.930 . S
C270 H256 0.930 . S
C270 C268 1.395 . S
C270 C273 1.403 . S
C271 C268 1.403 . S
C271 C272 1.524 . S
C271 C275 1.400 . S
C272 H257 0.960 . S
C272 H258 0.960 . S
C272 H259 0.960 . S
C272 C271 1.524 . S
C273 C270 1.403 . S
C273 C274 1.392 . S
C273 C277 1.495 . S
C274 C273 1.392 . S
C274 C275 1.385 . S
C274 C276 1.478 . S
C275 H269 0.930 . S
C275 C271 1.400 . S
C275 C274 1.385 . S
C276 C274 1.478 . S
C276 C278 1.381 . S
C276 C282 1.383 . S
C277 C273 1.495 . S
C277 H283 0.959 . S
C277 H284 0.961 . S
C277 H285 0.960 . S
C278 C276 1.381 . S
C278 C279 1.394 . S
C278 H286 0.930 . S
C279 C278 1.394 . S
C279 C280 1.383 . S
C279 H287 0.929 . S
C280 C279 1.383 . S
C280 C281 1.377 . S
C281 H265 0.930 . S
C281 C280 1.377 . S
C281 C282 1.379 . S
C282 H266 0.931 . S
C282 C276 1.383 . S
C282 C281 1.379 . S
H283 C277 0.959 . S
H284 C277 0.961 . S
H285 C277 0.960 . S
H286 C278 0.930 . S
H287 C279 0.929 . S
H288 C296 0.929 . S
H289 C298 0.930 . S
H290 C300 0.930 . S
H291 C303 0.929 . S
H292 C306 0.930 . S
H293 C308 0.960 . S
H294 C308 0.960 . S
H295 C308 0.960 . S
C296 H288 0.929 . S
C296 C297 1.377 . S
C296 C298 1.384 . S
C297 C296 1.377 . S
C297 C303 1.390 . S
C298 H289 0.930 . S
C298 C296 1.384 . S
C298 C299 1.372 . S
C299 C298 1.372 . S
C299 C300 1.400 . S
C299 C304 1.490 . S
C300 H290 0.930 . S
C300 C299 1.400 . S
C300 C303 1.386 . S
H301 C317 0.930 1_455 S
H302 C318 0.931 . S
C303 H291 0.929 . S
C303 C297 1.390 . S
C303 C300 1.386 . S
C304 C299 1.490 . S
C304 C306 1.395 . S
C304 C307 1.403 . S
H305 C311 0.930 . S
C306 H292 0.930 . S
C306 C304 1.395 . S
C306 C309 1.403 . S
C307 C304 1.403 . S
C307 C308 1.524 . S
C307 C311 1.400 . S
C308 H293 0.960 . S
C308 H294 0.960 . S
C308 H295 0.960 . S
C308 C307 1.524 . S
C309 C306 1.403 . S
C309 C310 1.392 . S
C309 C313 1.495 . S
C310 C309 1.392 . S
C310 C311 1.385 . S
C310 C312 1.478 . S
C311 H305 0.930 . S
C311 C307 1.400 . S
C311 C310 1.385 . S
C312 C310 1.478 . S
C312 C314 1.381 . S
C312 C318 1.383 . S
C313 C309 1.495 . S
C313 H319 0.959 . S
C313 H320 0.961 . S
C313 H321 0.960 . S
C314 C312 1.381 . S
C314 C315 1.394 . S
C314 H322 0.930 . S
C315 C314 1.394 . S
C315 C316 1.383 . S
C315 H323 0.929 . S
C316 C315 1.383 . S
C316 C317 1.377 . S
C317 H301 0.930 1_655 S
C317 C316 1.377 . S
C317 C318 1.379 . S
C318 H302 0.931 . S
C318 C312 1.383 . S
C318 C317 1.379 . S
H319 C313 0.959 . S
H320 C313 0.961 . S
H321 C313 0.960 . S
H322 C314 0.930 . S
H323 C315 0.929 . S
H324 C332 0.929 . S
H325 C334 0.930 . S
H326 C336 0.930 . S
H327 C339 0.929 . S
H328 C342 0.930 . S
H329 C344 0.960 . S
H330 C344 0.960 . S
H331 C344 0.960 . S
C332 H324 0.929 . S
C332 C333 1.377 . S
C332 C334 1.384 . S
C333 C332 1.377 . S
C333 C339 1.390 . S
C334 H325 0.930 . S
C334 C332 1.384 . S
C334 C335 1.372 . S
C335 C334 1.372 . S
C335 C336 1.400 . S
C335 C340 1.490 . S
C336 H326 0.930 . S
C336 C335 1.400 . S
C336 C339 1.386 . S
H337 C353 0.930 . S
H338 C354 0.931 . S
C339 H327 0.929 . S
C339 C333 1.390 . S
C339 C336 1.386 . S
C340 C335 1.490 . S
C340 C342 1.395 . S
C340 C343 1.403 . S
H341 C347 0.930 . S
C342 H328 0.930 . S
C342 C340 1.395 . S
C342 C345 1.403 . S
C343 C340 1.403 . S
C343 C344 1.524 . S
C343 C347 1.400 . S
C344 H329 0.960 . S
C344 H330 0.960 . S
C344 H331 0.960 . S
C344 C343 1.524 . S
C345 C342 1.403 . S
C345 C346 1.392 . S
C345 C349 1.495 . S
C346 C345 1.392 . S
C346 C347 1.385 . S
C346 C348 1.478 . S
C347 H341 0.930 . S
C347 C343 1.400 . S
C347 C346 1.385 . S
C348 C346 1.478 . S
C348 C350 1.381 . S
C348 C354 1.383 . S
C349 C345 1.495 . S
C349 H355 0.959 . S
C349 H356 0.961 . S
C349 H357 0.960 . S
C350 C348 1.381 . S
C350 C351 1.394 . S
C350 H358 0.930 . S
C351 C350 1.394 . S
C351 C352 1.383 . S
C351 H359 0.929 . S
C352 C351 1.383 . S
C352 C353 1.377 . S
C353 H337 0.930 . S
C353 C352 1.377 . S
C353 C354 1.379 . S
C354 H338 0.931 . S
C354 C348 1.383 . S
C354 C353 1.379 . S
H355 C349 0.959 . S
H356 C349 0.961 . S
H357 C349 0.960 . S
H358 C350 0.930 . S
H359 C351 0.929 . S
H360 C368 0.929 . S
H361 C370 0.930 . S
H362 C372 0.930 . S
H363 C375 0.929 . S
H364 C378 0.930 . S
H365 C380 0.960 . S
H366 C380 0.960 . S
H367 C380 0.960 . S
C368 H360 0.929 . S
C368 C369 1.377 . S
C368 C370 1.384 . S
C369 C368 1.377 . S
C369 C375 1.390 . S
C370 H361 0.930 . S
C370 C368 1.384 . S
C370 C371 1.372 . S
C371 C370 1.372 . S
C371 C372 1.400 . S
C371 C376 1.490 . S
C372 H362 0.930 . S
C372 C371 1.400 . S
C372 C375 1.386 . S
H373 C389 0.930 . S
H374 C390 0.931 . S
C375 H363 0.929 . S
C375 C369 1.390 . S
C375 C372 1.386 . S
C376 C371 1.490 . S
C376 C378 1.395 . S
C376 C379 1.403 . S
H377 C383 0.930 . S
C378 H364 0.930 . S
C378 C376 1.395 . S
C378 C381 1.403 . S
C379 C376 1.403 . S
C379 C380 1.524 . S
C379 C383 1.400 . S
C380 H365 0.960 . S
C380 H366 0.960 . S
C380 H367 0.960 . S
C380 C379 1.524 . S
C381 C378 1.403 . S
C381 C382 1.392 . S
C381 C385 1.495 . S
C382 C381 1.392 . S
C382 C383 1.385 . S
C382 C384 1.478 . S
C383 H377 0.930 . S
C383 C379 1.400 . S
C383 C382 1.385 . S
C384 C382 1.478 . S
C384 C386 1.381 . S
C384 C390 1.383 . S
C385 C381 1.495 . S
C385 H391 0.959 . S
C385 H392 0.961 . S
C385 H393 0.960 . S
C386 C384 1.381 . S
C386 C387 1.394 . S
C386 H394 0.930 . S
C387 C386 1.394 . S
C387 C388 1.383 . S
C387 H395 0.929 . S
C388 C387 1.383 . S
C388 C389 1.377 . S
C389 H373 0.930 . S
C389 C388 1.377 . S
C389 C390 1.379 . S
C390 H374 0.931 . S
C390 C384 1.383 . S
C390 C389 1.379 . S
H391 C385 0.959 . S
H392 C385 0.961 . S
H393 C385 0.960 . S
H394 C386 0.930 . S
H395 C387 0.929 . S
H396 C404 0.929 . S
H397 C406 0.930 . S
H398 C408 0.930 . S
H399 C411 0.929 . S
H400 C414 0.930 . S
H401 C416 0.960 . S
H402 C416 0.960 . S
H403 C416 0.960 . S
C404 H396 0.929 . S
C404 C405 1.377 . S
C404 C406 1.384 . S
C405 C404 1.377 . S
C405 C411 1.390 . S
C406 H397 0.930 . S
C406 C404 1.384 . S
C406 C407 1.372 . S
C407 C406 1.372 . S
C407 C408 1.400 . S
C407 C412 1.490 . S
C408 H398 0.930 . S
C408 C407 1.400 . S
C408 C411 1.386 . S
H409 C425 0.930 . S
H410 C426 0.931 . S
C411 H399 0.929 . S
C411 C405 1.390 . S
C411 C408 1.386 . S
C412 C407 1.490 . S
C412 C414 1.395 . S
C412 C415 1.403 . S
H413 C419 0.930 . S
C414 H400 0.930 . S
C414 C412 1.395 . S
C414 C417 1.403 . S
C415 C412 1.403 . S
C415 C416 1.524 . S
C415 C419 1.400 . S
C416 H401 0.960 . S
C416 H402 0.960 . S
C416 H403 0.960 . S
C416 C415 1.524 . S
C417 C414 1.403 . S
C417 C418 1.392 . S
C417 C421 1.495 . S
C418 C417 1.392 . S
C418 C419 1.385 . S
C418 C420 1.478 . S
C419 H413 0.930 . S
C419 C415 1.400 . S
C419 C418 1.385 . S
C420 C418 1.478 . S
C420 C422 1.381 . S
C420 C426 1.383 . S
C421 C417 1.495 . S
C421 H427 0.959 . S
C421 H428 0.961 . S
C421 H429 0.960 . S
C422 C420 1.381 . S
C422 C423 1.394 . S
C422 H430 0.930 . S
C423 C422 1.394 . S
C423 C424 1.383 . S
C423 H431 0.929 . S
C424 C423 1.383 . S
C424 C425 1.377 . S
C425 H409 0.930 . S
C425 C424 1.377 . S
C425 C426 1.379 . S
C426 H410 0.931 . S
C426 C420 1.383 . S
C426 C425 1.379 . S
H427 C421 0.959 . S
H428 C421 0.961 . S
H429 C421 0.960 . S
H430 C422 0.930 . S
H431 C423 0.929 . S
H432 C440 0.929 . S
H433 C442 0.930 . S
H434 C444 0.930 . S
H435 C447 0.929 . S
H436 C450 0.930 . S
H437 C452 0.960 . S
H438 C452 0.960 . S
H439 C452 0.960 . S
C440 H432 0.929 . S
C440 C441 1.377 . S
C440 C442 1.384 . S
C441 C440 1.377 . S
C441 C447 1.390 . S
C442 H433 0.930 . S
C442 C440 1.384 . S
C442 C443 1.372 . S
C443 C442 1.372 . S
C443 C444 1.400 . S
C443 C448 1.490 . S
C444 H434 0.930 . S
C444 C443 1.400 . S
C444 C447 1.386 . S
H445 C461 0.930 . S
H446 C462 0.931 . S
C447 H435 0.929 . S
C447 C441 1.390 . S
C447 C444 1.386 . S
C448 C443 1.490 . S
C448 C450 1.395 . S
C448 C451 1.403 1_556 S
H449 C455 0.930 . S
C450 H436 0.930 . S
C450 C448 1.395 . S
C450 C453 1.403 . S
C451 C448 1.403 1_554 S
C451 C452 1.524 . S
C451 C455 1.400 . S
C452 H437 0.960 . S
C452 H438 0.960 . S
C452 H439 0.960 . S
C452 C451 1.524 . S
C453 C450 1.403 . S
C453 C454 1.392 1_556 S
C453 C457 1.495 . S
C454 C453 1.392 1_554 S
C454 C455 1.385 . S
C454 C456 1.478 . S
C455 H449 0.930 . S
C455 C451 1.400 . S
C455 C454 1.385 . S
C456 C454 1.478 . S
C456 C458 1.381 . S
C456 C462 1.383 . S
C457 C453 1.495 . S
C457 H463 0.959 . S
C457 H464 0.961 . S
C457 H465 0.960 . S
C458 C456 1.381 . S
C458 C459 1.394 . S
C458 H466 0.930 . S
C459 C458 1.394 . S
C459 C460 1.383 . S
C459 H467 0.929 . S
C460 C459 1.383 . S
C460 C461 1.377 . S
C461 H445 0.930 . S
C461 C460 1.377 . S
C461 C462 1.379 . S
C462 H446 0.931 . S
C462 C456 1.383 . S
C462 C461 1.379 . S
H463 C457 0.959 . S
H464 C457 0.961 . S
H465 C457 0.960 . S
H466 C458 0.930 . S
H467 C459 0.929 . S
H468 C476 0.929 . S
H469 C478 0.930 . S
H470 C480 0.930 . S
H471 C483 0.929 . S
H472 C486 0.930 . S
H473 C488 0.960 . S
H474 C488 0.960 . S
H475 C488 0.960 . S
C476 H468 0.929 . S
C476 C477 1.377 . S
C476 C478 1.384 . S
C477 C476 1.377 . S
C477 C483 1.390 . S
C478 H469 0.930 . S
C478 C476 1.384 . S
C478 C479 1.372 . S
C479 C478 1.372 . S
C479 C480 1.400 . S
C479 C484 1.490 . S
C480 H470 0.930 . S
C480 C479 1.400 . S
C480 C483 1.386 . S
H481 C497 0.930 . S
H482 C498 0.931 . S
C483 H471 0.929 . S
C483 C477 1.390 . S
C483 C480 1.386 . S
C484 C479 1.490 . S
C484 C486 1.395 . S
C484 C487 1.403 . S
H485 C491 0.930 . S
C486 H472 0.930 . S
C486 C484 1.395 . S
C486 C489 1.403 . S
C487 C484 1.403 . S
C487 C488 1.524 . S
C487 C491 1.400 . S
C488 H473 0.960 . S
C488 H474 0.960 . S
C488 H475 0.960 . S
C488 C487 1.524 . S
C489 C486 1.403 . S
C489 C490 1.392 . S
C489 C493 1.495 . S
C490 C489 1.392 . S
C490 C491 1.385 . S
C490 C492 1.478 . S
C491 H485 0.930 . S
C491 C487 1.400 . S
C491 C490 1.385 . S
C492 C490 1.478 . S
C492 C494 1.381 . S
C492 C498 1.383 . S
C493 C489 1.495 . S
C493 H499 0.959 . S
C493 H500 0.961 . S
C493 H501 0.960 . S
C494 C492 1.381 . S
C494 C495 1.394 . S
C494 H502 0.930 . S
C495 C494 1.394 . S
C495 C496 1.383 . S
C495 H503 0.929 . S
C496 C495 1.383 . S
C496 C497 1.377 . S
C497 H481 0.930 . S
C497 C496 1.377 . S
C497 C498 1.379 . S
C498 H482 0.931 . S
C498 C492 1.383 . S
C498 C497 1.379 . S
H499 C493 0.959 . S
H500 C493 0.961 . S
H501 C493 0.960 . S
H502 C494 0.930 . S
H503 C495 0.929 . S
H504 C512 0.929 . S
H505 C514 0.930 . S
H506 C516 0.930 . S
H507 C519 0.929 . S
H508 C522 0.930 . S
H509 C524 0.960 . S
H510 C524 0.960 . S
H511 C524 0.960 . S
C512 H504 0.929 . S
C512 C513 1.377 . S
C512 C514 1.384 . S
C513 C512 1.377 . S
C513 C519 1.390 . S
C514 H505 0.930 . S
C514 C512 1.384 . S
C514 C515 1.372 . S
C515 C514 1.372 . S
C515 C516 1.400 . S
C515 C520 1.490 . S
C516 H506 0.930 . S
C516 C515 1.400 . S
C516 C519 1.386 . S
H517 C533 0.930 . S
H518 C534 0.931 . S
C519 H507 0.929 . S
C519 C513 1.390 . S
C519 C516 1.386 . S
C520 C515 1.490 . S
C520 C522 1.395 . S
C520 C523 1.403 . S
H521 C527 0.930 . S
C522 H508 0.930 . S
C522 C520 1.395 . S
C522 C525 1.403 . S
C523 C520 1.403 . S
C523 C524 1.524 . S
C523 C527 1.400 . S
C524 H509 0.960 . S
C524 H510 0.960 . S
C524 H511 0.960 . S
C524 C523 1.524 . S
C525 C522 1.403 . S
C525 C526 1.392 . S
C525 C529 1.495 . S
C526 C525 1.392 . S
C526 C527 1.385 . S
C526 C528 1.478 . S
C527 H521 0.930 . S
C527 C523 1.400 . S
C527 C526 1.385 . S
C528 C526 1.478 . S
C528 C530 1.381 . S
C528 C534 1.383 . S
C529 C525 1.495 . S
C529 H535 0.959 . S
C529 H536 0.961 . S
C529 H537 0.960 . S
C530 C528 1.381 . S
C530 C531 1.394 . S
C530 H538 0.930 . S
C531 C530 1.394 . S
C531 C532 1.383 . S
C531 H539 0.929 . S
C532 C531 1.383 . S
C532 C533 1.377 . S
C533 H517 0.930 . S
C533 C532 1.377 . S
C533 C534 1.379 . S
C534 H518 0.931 . S
C534 C528 1.383 . S
C534 C533 1.379 . S
H535 C529 0.959 . S
H536 C529 0.961 . S
H537 C529 0.960 . S
H538 C530 0.930 . S
H539 C531 0.929 . S
H540 C548 0.929 . S
H541 C550 0.930 . S
H542 C552 0.930 . S
H543 C555 0.929 . S
H544 C558 0.930 . S
H545 C560 0.960 . S
H546 C560 0.960 . S
H547 C560 0.960 . S
C548 H540 0.929 . S
C548 C549 1.377 . S
C548 C550 1.384 . S
C549 C548 1.377 . S
C549 C555 1.390 . S
C550 H541 0.930 . S
C550 C548 1.384 . S
C550 C551 1.372 . S
C551 C550 1.372 . S
C551 C552 1.400 . S
C551 C556 1.490 . S
C552 H542 0.930 . S
C552 C551 1.400 . S
C552 C555 1.386 . S
H553 C569 0.930 . S
H554 C570 0.931 . S
C555 H543 0.929 . S
C555 C549 1.390 . S
C555 C552 1.386 . S
C556 C551 1.490 . S
C556 C558 1.395 . S
C556 C559 1.403 . S
H557 C563 0.930 . S
C558 H544 0.930 . S
C558 C556 1.395 . S
C558 C561 1.403 . S
C559 C556 1.403 . S
C559 C560 1.524 . S
C559 C563 1.400 . S
C560 H545 0.960 . S
C560 H546 0.960 . S
C560 H547 0.960 . S
C560 C559 1.524 . S
C561 C558 1.403 . S
C561 C562 1.392 . S
C561 C565 1.495 . S
C562 C561 1.392 . S
C562 C563 1.385 . S
C562 C564 1.478 . S
C563 H557 0.930 . S
C563 C559 1.400 . S
C563 C562 1.385 . S
C564 C562 1.478 . S
C564 C566 1.381 . S
C564 C570 1.383 . S
C565 C561 1.495 . S
C565 H571 0.959 . S
C565 H572 0.961 . S
C565 H573 0.960 . S
C566 C564 1.381 . S
C566 C567 1.394 . S
C566 H574 0.930 . S
C567 C566 1.394 . S
C567 C568 1.383 . S
C567 H575 0.929 . S
C568 C567 1.383 . S
C568 C569 1.377 . S
C569 H553 0.930 . S
C569 C568 1.377 . S
C569 C570 1.379 . S
C570 H554 0.931 . S
C570 C564 1.383 . S
C570 C569 1.379 . S
H571 C565 0.959 . S
H572 C565 0.961 . S
H573 C565 0.960 . S
H574 C566 0.930 . S
H575 C567 0.929 . S
H576 C584 0.929 . S
H577 C586 0.930 . S
H578 C588 0.930 . S
H579 C591 0.929 . S
H580 C594 0.930 . S
H581 C596 0.960 . S
H582 C596 0.960 . S
H583 C596 0.960 . S
C584 H576 0.929 . S
C584 C585 1.377 . S
C584 C586 1.384 . S
C585 C584 1.377 . S
C585 C591 1.390 . S
C586 H577 0.930 . S
C586 C584 1.384 . S
C586 C587 1.372 . S
C587 C586 1.372 . S
C587 C588 1.400 . S
C587 C592 1.490 . S
C588 H578 0.930 . S
C588 C587 1.400 . S
C588 C591 1.386 . S
H589 C605 0.930 . S
H590 C606 0.931 . S
C591 H579 0.929 . S
C591 C585 1.390 . S
C591 C588 1.386 . S
C592 C587 1.490 . S
C592 C594 1.395 . S
C592 C595 1.403 . S
H593 C599 0.930 . S
C594 H580 0.930 . S
C594 C592 1.395 . S
C594 C597 1.403 . S
C595 C592 1.403 . S
C595 C596 1.524 . S
C595 C599 1.400 . S
C596 H581 0.960 . S
C596 H582 0.960 . S
C596 H583 0.960 . S
C596 C595 1.524 . S
C597 C594 1.403 . S
C597 C598 1.392 . S
C597 C601 1.495 . S
C598 C597 1.392 . S
C598 C599 1.385 . S
C598 C600 1.478 . S
C599 H593 0.930 . S
C599 C595 1.400 . S
C599 C598 1.385 . S
C600 C598 1.478 . S
C600 C602 1.381 . S
C600 C606 1.383 . S
C601 C597 1.495 . S
C601 H607 0.959 . S
C601 H608 0.961 . S
C601 H609 0.960 . S
C602 C600 1.381 . S
C602 C603 1.394 . S
C602 H610 0.930 . S
C603 C602 1.394 . S
C603 C604 1.383 . S
C603 H611 0.929 . S
C604 C603 1.383 . S
C604 C605 1.377 . S
C605 H589 0.930 . S
C605 C604 1.377 . S
C605 C606 1.379 . S
C606 H590 0.931 . S
C606 C600 1.383 . S
C606 C605 1.379 . S
H607 C601 0.959 . S
H608 C601 0.961 . S
H609 C601 0.960 . S
H610 C602 0.930 . S
H611 C603 0.929 . S
H612 C620 0.929 . S
H613 C622 0.930 . S
H614 C624 0.930 . S
H615 C627 0.929 . S
H616 C630 0.930 . S
H617 C632 0.960 . S
H618 C632 0.960 . S
H619 C632 0.960 . S
C620 H612 0.929 . S
C620 C621 1.377 . S
C620 C622 1.384 . S
C621 C620 1.377 . S
C621 C627 1.390 . S
C622 H613 0.930 . S
C622 C620 1.384 . S
C622 C623 1.372 . S
C623 C622 1.372 . S
C623 C624 1.400 . S
C623 C628 1.490 . S
C624 H614 0.930 . S
C624 C623 1.400 . S
C624 C627 1.386 . S
H625 C641 0.930 1_455 S
H626 C642 0.931 . S
C627 H615 0.929 . S
C627 C621 1.390 . S
C627 C624 1.386 . S
C628 C623 1.490 . S
C628 C630 1.395 . S
C628 C631 1.403 . S
H629 C635 0.930 . S
C630 H616 0.930 . S
C630 C628 1.395 . S
C630 C633 1.403 . S
C631 C628 1.403 . S
C631 C632 1.524 . S
C631 C635 1.400 . S
C632 H617 0.960 . S
C632 H618 0.960 . S
C632 H619 0.960 . S
C632 C631 1.524 . S
C633 C630 1.403 . S
C633 C634 1.392 . S
C633 C637 1.495 . S
C634 C633 1.392 . S
C634 C635 1.385 . S
C634 C636 1.478 . S
C635 H629 0.930 . S
C635 C631 1.400 . S
C635 C634 1.385 . S
C636 C634 1.478 . S
C636 C638 1.381 . S
C636 C642 1.383 . S
C637 C633 1.495 . S
C637 H643 0.959 . S
C637 H644 0.977 . S
C637 H645 0.960 . S
C638 C636 1.381 . S
C638 C639 1.394 . S
C638 H646 0.930 . S
C639 C638 1.394 . S
C639 C640 1.383 1_655 S
C639 H647 0.929 1_655 S
C640 C639 1.383 1_455 S
C640 C641 1.377 1_455 S
C641 H625 0.930 1_655 S
C641 C640 1.377 1_655 S
C641 C642 1.379 . S
C642 H626 0.931 . S
C642 C636 1.383 . S
C642 C641 1.379 . S
H643 C637 0.959 . S
H644 C637 0.977 . S
H645 C637 0.960 . S
H646 C638 0.930 . S
H647 C639 0.929 1_455 S
H648 C656 0.929 . S
H649 C658 0.930 . S
H650 C660 0.930 . S
H651 C663 0.929 . S
H652 C666 0.930 . S
H653 C668 0.960 . S
H654 C668 0.960 . S
H655 C668 0.960 . S
C656 H648 0.929 . S
C656 C657 1.377 . S
C656 C658 1.384 . S
C657 C656 1.377 . S
C657 C663 1.390 . S
C658 H649 0.930 . S
C658 C656 1.384 . S
C658 C659 1.372 . S
C659 C658 1.372 . S
C659 C660 1.400 . S
C659 C664 1.490 . S
C660 H650 0.930 . S
C660 C659 1.400 . S
C660 C663 1.386 . S
H661 C677 0.930 . S
H662 C678 0.931 . S
C663 H651 0.929 . S
C663 C657 1.390 . S
C663 C660 1.386 . S
C664 C659 1.490 . S
C664 C666 1.395 . S
C664 C667 1.403 . S
H665 C671 0.930 . S
C666 H652 0.930 . S
C666 C664 1.395 . S
C666 C669 1.403 . S
C667 C664 1.403 . S
C667 C668 1.524 . S
C667 C671 1.400 . S
C668 H653 0.960 . S
C668 H654 0.960 . S
C668 H655 0.960 . S
C668 C667 1.524 . S
C669 C666 1.403 . S
C669 C670 1.392 . S
C669 C673 1.495 . S
C670 C669 1.392 . S
C670 C671 1.385 . S
C670 C672 1.478 . S
C671 H665 0.930 . S
C671 C667 1.400 . S
C671 C670 1.385 . S
C672 C670 1.478 . S
C672 C674 1.381 . S
C672 C678 1.383 . S
C673 C669 1.495 . S
C673 H679 0.959 . S
C673 H680 0.961 . S
C673 H681 0.960 . S
C674 C672 1.381 . S
C674 C675 1.394 . S
C674 H682 0.930 . S
C675 C674 1.394 . S
C675 C676 1.383 . S
C675 H683 0.929 . S
C676 C675 1.383 . S
C676 C677 1.377 . S
C677 H661 0.930 . S
C677 C676 1.377 . S
C677 C678 1.379 . S
C678 H662 0.931 . S
C678 C672 1.383 . S
C678 C677 1.379 . S
H679 C673 0.959 . S
H680 C673 0.961 . S
H681 C673 0.960 . S
H682 C674 0.930 . S
H683 C675 0.929 . S
H684 C692 0.929 . S
H685 C694 0.930 . S
H686 C696 0.930 . S
H687 C699 0.929 . S
H688 C702 0.930 . S
H689 C704 0.960 . S
H690 C704 0.960 . S
H691 C704 0.960 . S
C692 H684 0.929 . S
C692 C693 1.377 . S
C692 C694 1.384 . S
C693 C692 1.377 . S
C693 C699 1.390 . S
C694 H685 0.930 . S
C694 C692 1.384 . S
C694 C695 1.372 . S
C695 C694 1.372 . S
C695 C696 1.400 . S
C695 C700 1.490 . S
C696 H686 0.930 . S
C696 C695 1.400 . S
C696 C699 1.386 . S
H697 C713 0.930 . S
H698 C714 0.931 . S
C699 H687 0.929 . S
C699 C693 1.390 . S
C699 C696 1.386 . S
C700 C695 1.490 . S
C700 C702 1.395 . S
C700 C703 1.403 . S
H701 C707 0.930 . S
C702 H688 0.930 . S
C702 C700 1.395 . S
C702 C705 1.403 . S
C703 C700 1.403 . S
C703 C704 1.524 . S
C703 C707 1.400 . S
C704 H689 0.960 . S
C704 H690 0.960 . S
C704 H691 0.960 . S
C704 C703 1.524 . S
C705 C702 1.403 . S
C705 C706 1.392 . S
C705 C709 1.495 . S
C706 C705 1.392 . S
C706 C707 1.385 . S
C706 C708 1.478 . S
C707 H701 0.930 . S
C707 C703 1.400 . S
C707 C706 1.385 . S
C708 C706 1.478 . S
C708 C710 1.381 . S
C708 C714 1.383 . S
C709 C705 1.495 . S
C709 H715 0.959 . S
C709 H716 0.961 . S
C709 H717 0.960 . S
C710 C708 1.381 . S
C710 C711 1.394 . S
C710 H718 0.930 . S
C711 C710 1.394 . S
C711 C712 1.383 . S
C711 H719 0.929 . S
C712 C711 1.383 . S
C712 C713 1.377 . S
C713 H697 0.930 . S
C713 C712 1.377 . S
C713 C714 1.379 . S
C714 H698 0.931 . S
C714 C708 1.383 . S
C714 C713 1.379 . S
H715 C709 0.959 . S
H716 C709 0.961 . S
H717 C709 0.960 . S
H718 C710 0.930 . S
H719 C711 0.929 . S
H720 C728 0.929 . S
H721 C730 0.930 . S
H722 C732 0.930 . S
H723 C735 0.929 . S
H724 C738 0.930 . S
H725 C740 0.960 . S
H726 C740 0.960 . S
H727 C740 0.960 . S
C728 H720 0.929 . S
C728 C729 1.377 . S
C728 C730 1.384 . S
C729 C728 1.377 . S
C729 C735 1.390 . S
C730 H721 0.930 . S
C730 C728 1.384 . S
C730 C731 1.372 . S
C731 C730 1.372 . S
C731 C732 1.400 . S
C731 C736 1.490 . S
C732 H722 0.930 . S
C732 C731 1.400 . S
C732 C735 1.386 . S
H733 C749 0.930 . S
H734 C750 0.931 . S
C735 H723 0.929 . S
C735 C729 1.390 . S
C735 C732 1.386 . S
C736 C731 1.490 . S
C736 C738 1.395 . S
C736 C739 1.403 . S
H737 C743 0.930 . S
C738 H724 0.930 . S
C738 C736 1.395 . S
C738 C741 1.403 . S
C739 C736 1.403 . S
C739 C740 1.524 . S
C739 C743 1.400 . S
C740 H725 0.960 . S
C740 H726 0.960 . S
C740 H727 0.960 . S
C740 C739 1.524 . S
C741 C738 1.403 . S
C741 C742 1.392 . S
C741 C745 1.495 . S
C742 C741 1.392 . S
C742 C743 1.385 . S
C742 C744 1.478 . S
C743 H737 0.930 . S
C743 C739 1.400 . S
C743 C742 1.385 . S
C744 C742 1.478 . S
C744 C746 1.381 . S
C744 C750 1.383 . S
C745 C741 1.495 . S
C745 H751 0.959 . S
C745 H752 0.961 . S
C745 H753 0.960 . S
C746 C744 1.381 . S
C746 C747 1.394 . S
C746 H754 0.930 . S
C747 C746 1.394 . S
C747 C748 1.383 . S
C747 H755 0.929 . S
C748 C747 1.383 . S
C748 C749 1.377 . S
C749 H733 0.930 . S
C749 C748 1.377 . S
C749 C750 1.379 . S
C750 H734 0.931 . S
C750 C744 1.383 . S
C750 C749 1.379 . S
H751 C745 0.959 . S
H752 C745 0.961 . S
H753 C745 0.960 . S
H754 C746 0.930 . S
H755 C747 0.929 . S
H756 C764 0.929 . S
H757 C766 0.930 . S
H758 C768 0.930 . S
H759 C771 0.929 . S
H760 C774 0.930 . S
H761 C776 0.960 . S
H762 C776 0.960 . S
H763 C776 0.960 . S
C764 H756 0.929 . S
C764 C765 1.377 . S
C764 C766 1.384 . S
C765 C764 1.377 . S
C765 C771 1.390 . S
C766 H757 0.930 . S
C766 C764 1.384 . S
C766 C767 1.372 . S
C767 C766 1.372 . S
C767 C768 1.400 . S
C767 C772 1.490 . S
C768 H758 0.930 . S
C768 C767 1.400 . S
C768 C771 1.386 . S
H769 C785 0.930 . S
H770 C786 0.931 . S
C771 H759 0.929 . S
C771 C765 1.390 . S
C771 C768 1.386 . S
C772 C767 1.490 . S
C772 C774 1.395 . S
C772 C775 1.403 . S
H773 C779 0.930 . S
C774 H760 0.930 . S
C774 C772 1.395 . S
C774 C777 1.403 . S
C775 C772 1.403 . S
C775 C776 1.524 . S
C775 C779 1.400 . S
C776 H761 0.960 . S
C776 H762 0.960 . S
C776 H763 0.960 . S
C776 C775 1.524 . S
C777 C774 1.403 . S
C777 C778 1.392 . S
C777 C781 1.495 . S
C778 C777 1.392 . S
C778 C779 1.385 . S
C778 C780 1.478 . S
C779 H773 0.930 . S
C779 C775 1.400 . S
C779 C778 1.385 . S
C780 C778 1.478 . S
C780 C782 1.381 . S
C780 C786 1.383 . S
C781 C777 1.495 . S
C781 H787 0.959 . S
C781 H788 0.961 . S
C781 H789 0.960 . S
C782 C780 1.381 . S
C782 C783 1.394 . S
C782 H790 0.930 . S
C783 C782 1.394 . S
C783 C784 1.383 . S
C783 H791 0.912 1_565 S
C784 C783 1.383 . S
C784 C785 1.377 . S
C785 H769 0.930 . S
C785 C784 1.377 . S
C785 C786 1.379 . S
C786 H770 0.931 . S
C786 C780 1.383 . S
C786 C785 1.379 . S
H787 C781 0.959 . S
H788 C781 0.961 . S
H789 C781 0.960 . S
H790 C782 0.930 . S
H791 C783 0.912 1_545 S
H792 C800 0.929 . S
H793 C802 0.930 . S
H794 C804 0.930 . S
H795 C807 0.929 . S
H796 C810 0.930 . S
H797 C812 0.960 . S
H798 C812 0.960 . S
H799 C812 0.960 . S
C800 H792 0.929 . S
C800 C801 1.377 . S
C800 C802 1.384 . S
C801 C800 1.377 . S
C801 C807 1.390 . S
C802 H793 0.930 . S
C802 C800 1.384 . S
C802 C803 1.372 . S
C803 C802 1.372 . S
C803 C804 1.400 . S
C803 C808 1.490 . S
C804 H794 0.930 . S
C804 C803 1.400 . S
C804 C807 1.386 . S
H805 C821 0.930 . S
H806 C822 0.931 . S
C807 H795 0.929 . S
C807 C801 1.390 . S
C807 C804 1.386 . S
C808 C803 1.490 . S
C808 C810 1.395 . S
C808 C811 1.403 . S
H809 C815 0.930 . S
C810 H796 0.930 . S
C810 C808 1.395 . S
C810 C813 1.403 . S
C811 C808 1.403 . S
C811 C812 1.524 . S
C811 C815 1.400 . S
C812 H797 0.960 . S
C812 H798 0.960 . S
C812 H799 0.960 . S
C812 C811 1.524 . S
C813 C810 1.403 . S
C813 C814 1.392 . S
C813 C817 1.495 . S
C814 C813 1.392 . S
C814 C815 1.385 . S
C814 C816 1.478 . S
C815 H809 0.930 . S
C815 C811 1.400 . S
C815 C814 1.385 . S
C816 C814 1.478 . S
C816 C818 1.381 . S
C816 C822 1.383 . S
C817 C813 1.495 . S
C817 H823 0.959 . S
C817 H824 0.961 . S
C817 H825 0.960 . S
C818 C816 1.381 . S
C818 C819 1.394 . S
C818 H826 0.930 . S
C819 C818 1.394 . S
C819 C820 1.383 . S
C819 H827 0.929 . S
C820 C819 1.383 . S
C820 C821 1.377 . S
C821 H805 0.930 . S
C821 C820 1.377 . S
C821 C822 1.379 . S
C822 H806 0.931 . S
C822 C816 1.383 . S
C822 C821 1.379 . S
H823 C817 0.959 . S
H824 C817 0.961 . S
H825 C817 0.960 . S
H826 C818 0.930 . S
H827 C819 0.929 . S
H828 C836 0.929 . S
H829 C838 0.930 . S
H830 C840 0.930 . S
H831 C843 0.929 . S
H832 C846 0.930 . S
H833 C848 0.960 . S
H834 C848 0.960 . S
H835 C848 0.960 . S
C836 H828 0.929 . S
C836 C837 1.377 . S
C836 C838 1.384 . S
C837 C836 1.377 . S
C837 C843 1.390 . S
C838 H829 0.930 . S
C838 C836 1.384 . S
C838 C839 1.372 . S
C839 C838 1.372 . S
C839 C840 1.400 . S
C839 C844 1.490 . S
C840 H830 0.930 . S
C840 C839 1.400 . S
C840 C843 1.386 . S
H841 C857 0.930 . S
H842 C858 0.931 . S
C843 H831 0.929 . S
C843 C837 1.390 . S
C843 C840 1.386 . S
C844 C839 1.490 . S
C844 C846 1.395 . S
C844 C847 1.403 . S
H845 C851 0.930 . S
C846 H832 0.930 . S
C846 C844 1.395 . S
C846 C849 1.403 . S
C847 C844 1.403 . S
C847 C848 1.524 . S
C847 C851 1.400 . S
C848 H833 0.960 . S
C848 H834 0.960 . S
C848 H835 0.960 . S
C848 C847 1.524 . S
C849 C846 1.403 . S
C849 C850 1.392 . S
C849 C853 1.495 . S
C850 C849 1.392 . S
C850 C851 1.385 . S
C850 C852 1.478 . S
C851 H845 0.930 . S
C851 C847 1.400 . S
C851 C850 1.385 . S
C852 C850 1.478 . S
C852 C854 1.381 . S
C852 C858 1.383 . S
C853 C849 1.495 . S
C853 H859 0.959 . S
C853 H860 0.961 . S
C853 H861 0.960 . S
C854 C852 1.381 . S
C854 C855 1.394 . S
C854 H862 0.930 . S
C855 C854 1.394 . S
C855 C856 1.383 . S
C855 H863 0.929 . S
C856 C855 1.383 . S
C856 C857 1.377 . S
C857 H841 0.930 . S
C857 C856 1.377 . S
C857 C858 1.379 . S
C858 H842 0.931 . S
C858 C852 1.383 . S
C858 C857 1.379 . S
H859 C853 0.959 . S
H860 C853 0.961 . S
H861 C853 0.960 . S
H862 C854 0.930 . S
H863 C855 0.929 . S
H864 C872 0.929 . S
H865 C874 0.930 . S
H866 C876 0.930 . S
H867 C879 0.929 . S
H868 C882 0.930 . S
H869 C884 0.960 . S
H870 C884 0.960 . S
H871 C884 0.960 . S
C872 H864 0.929 . S
C872 C873 1.377 . S
C872 C874 1.384 . S
C873 C872 1.377 . S
C873 C879 1.390 . S
C874 H865 0.930 . S
C874 C872 1.384 . S
C874 C875 1.372 . S
C875 C874 1.372 . S
C875 C876 1.400 . S
C875 C880 1.490 . S
C876 H866 0.930 . S
C876 C875 1.400 . S
C876 C879 1.386 . S
H877 C893 0.930 . S
H878 C894 0.931 . S
C879 H867 0.929 . S
C879 C873 1.390 . S
C879 C876 1.386 . S
C880 C875 1.490 . S
C880 C882 1.395 . S
C880 C883 1.403 . S
H881 C887 0.930 . S
C882 H868 0.930 . S
C882 C880 1.395 . S
C882 C885 1.403 . S
C883 C880 1.403 . S
C883 C884 1.524 . S
C883 C887 1.400 . S
C884 H869 0.960 . S
C884 H870 0.960 . S
C884 H871 0.960 . S
C884 C883 1.524 . S
C885 C882 1.403 . S
C885 C886 1.392 . S
C885 C889 1.495 . S
C886 C885 1.392 . S
C886 C887 1.385 . S
C886 C888 1.478 . S
C887 H881 0.930 . S
C887 C883 1.400 . S
C887 C886 1.385 . S
C888 C886 1.478 . S
C888 C890 1.381 . S
C888 C894 1.383 . S
C889 C885 1.495 . S
C889 H895 0.959 . S
C889 H896 0.961 . S
C889 H897 0.960 . S
C890 C888 1.381 . S
C890 C891 1.394 . S
C890 H898 0.930 . S
C891 C890 1.394 . S
C891 C892 1.383 . S
C891 H899 0.929 . S
C892 C891 1.383 . S
C892 C893 1.377 . S
C893 H877 0.930 . S
C893 C892 1.377 . S
C893 C894 1.379 . S
C894 H878 0.931 . S
C894 C888 1.383 . S
C894 C893 1.379 . S
H895 C889 0.959 . S
H896 C889 0.961 . S
H897 C889 0.960 . S
H898 C890 0.930 . S
H899 C891 0.929 . S
H900 C908 0.929 . S
H901 C910 0.930 . S
H902 C912 0.930 . S
H903 C915 0.929 . S
H904 C918 0.930 . S
H905 C920 0.960 . S
H906 C920 0.960 . S
H907 C920 0.960 . S
C908 H900 0.929 . S
C908 C909 1.377 . S
C908 C910 1.384 . S
C909 C908 1.377 . S
C909 C915 1.390 . S
C910 H901 0.930 . S
C910 C908 1.384 . S
C910 C911 1.372 . S
C911 C910 1.372 . S
C911 C912 1.400 . S
C911 C916 1.490 . S
C912 H902 0.930 . S
C912 C911 1.400 . S
C912 C915 1.386 . S
H913 C929 0.930 . S
H914 C930 0.931 . S
C915 H903 0.929 . S
C915 C909 1.390 . S
C915 C912 1.386 . S
C916 C911 1.490 . S
C916 C918 1.395 . S
C916 C919 1.403 . S
H917 C923 0.930 . S
C918 H904 0.930 . S
C918 C916 1.395 . S
C918 C921 1.403 . S
C919 C916 1.403 . S
C919 C920 1.524 . S
C919 C923 1.400 . S
C920 H905 0.960 . S
C920 H906 0.960 . S
C920 H907 0.960 . S
C920 C919 1.524 . S
C921 C918 1.403 . S
C921 C922 1.392 . S
C921 C925 1.495 . S
C922 C921 1.392 . S
C922 C923 1.385 . S
C922 C924 1.478 . S
C923 H917 0.930 . S
C923 C919 1.400 . S
C923 C922 1.385 . S
C924 C922 1.478 . S
C924 C926 1.381 . S
C924 C930 1.383 . S
C925 C921 1.495 . S
C925 H931 0.959 . S
C925 H932 0.961 . S
C925 H933 0.960 . S
C926 C924 1.381 . S
C926 C927 1.394 . S
C926 H934 0.930 . S
C927 C926 1.394 . S
C927 C928 1.383 . S
C927 H935 0.929 . S
C928 C927 1.383 . S
C928 C929 1.377 . S
C929 H913 0.930 . S
C929 C928 1.377 . S
C929 C930 1.379 . S
C930 H914 0.931 . S
C930 C924 1.383 . S
C930 C929 1.379 . S
H931 C925 0.959 . S
H932 C925 0.961 . S
H933 C925 0.960 . S
H934 C926 0.930 . S
H935 C927 0.929 . S
H936 C944 0.929 . S
H937 C946 0.930 . S
H938 C948 0.930 . S
H939 C951 0.929 . S
H940 C954 0.930 . S
H941 C956 0.960 . S
H942 C956 0.960 . S
H943 C956 0.960 . S
C944 H936 0.929 . S
C944 C945 1.377 . S
C944 C946 1.384 . S
C945 C944 1.377 . S
C945 C951 1.390 . S
C946 H937 0.930 . S
C946 C944 1.384 . S
C946 C947 1.372 . S
C947 C946 1.372 . S
C947 C948 1.400 . S
C947 C952 1.490 . S
C948 H938 0.930 . S
C948 C947 1.400 . S
C948 C951 1.386 . S
H949 C965 0.930 . S
H950 C966 0.931 . S
C951 H939 0.929 . S
C951 C945 1.390 . S
C951 C948 1.386 . S
C952 C947 1.490 . S
C952 C954 1.395 . S
C952 C955 1.403 . S
H953 C959 0.930 . S
C954 H940 0.930 . S
C954 C952 1.395 . S
C954 C957 1.403 . S
C955 C952 1.403 . S
C955 C956 1.524 . S
C955 C959 1.400 . S
C956 H941 0.960 . S
C956 H942 0.960 . S
C956 H943 0.960 . S
C956 C955 1.524 . S
C957 C954 1.403 . S
C957 C958 1.392 . S
C957 C961 1.495 . S
C958 C957 1.392 . S
C958 C959 1.385 . S
C958 C960 1.478 . S
C959 H953 0.930 . S
C959 C955 1.400 . S
C959 C958 1.385 . S
C960 C958 1.478 . S
C960 C962 1.381 . S
C960 C966 1.383 1_556 S
C961 C957 1.495 . S
C961 H967 0.959 . S
C961 H968 0.961 . S
C961 H969 0.960 . S
C962 C960 1.381 . S
C962 C963 1.394 1_556 S
C962 H970 0.930 . S
C963 C962 1.394 1_554 S
C963 C964 1.383 . S
C963 H971 0.929 . S
C964 C963 1.383 . S
C964 C965 1.377 . S
C965 H949 0.930 . S
C965 C964 1.377 . S
C965 C966 1.379 . S
C966 H950 0.931 . S
C966 C960 1.383 1_554 S
C966 C965 1.379 . S
H967 C961 0.959 . S
H968 C961 0.961 . S
H969 C961 0.960 . S
H970 C962 0.930 . S
H971 C963 0.929 . S
H972 C980 0.929 . S
H973 C982 0.930 . S
H974 C984 0.930 . S
H975 C987 0.929 . S
H976 C990 0.930 . S
H977 C992 0.960 . S
H978 C992 0.960 . S
H979 C992 0.960 . S
C980 H972 0.929 . S
C980 C981 1.377 . S
C980 C982 1.384 . S
C981 C980 1.377 . S
C981 C987 1.390 . S
C982 H973 0.930 . S
C982 C980 1.384 . S
C982 C983 1.372 . S
C983 C982 1.372 . S
C983 C984 1.400 . S
C983 C988 1.490 . S
C984 H974 0.930 . S
C984 C983 1.400 . S
C984 C987 1.386 . S
H985 C1001 0.930 . S
H986 C1002 0.931 . S
C987 H975 0.929 . S
C987 C981 1.390 . S
C987 C984 1.386 . S
C988 C983 1.490 . S
C988 C990 1.395 . S
C988 C991 1.403 . S
H989 C995 0.930 . S
C990 H976 0.930 . S
C990 C988 1.395 . S
C990 C993 1.403 . S
C991 C988 1.403 . S
C991 C992 1.524 . S
C991 C995 1.400 . S
C992 H977 0.960 . S
C992 H978 0.960 . S
C992 H979 0.960 . S
C992 C991 1.524 . S
C993 C990 1.403 . S
C993 C994 1.392 . S
C993 C997 1.495 . S
C994 C993 1.392 . S
C994 C995 1.385 . S
C994 C996 1.478 . S
C995 H989 0.930 . S
C995 C991 1.400 . S
C995 C994 1.385 . S
C996 C994 1.478 . S
C996 C998 1.381 . S
C996 C1002 1.383 . S
C997 C993 1.495 . S
C997 H1003 0.959 . S
C997 H1004 0.961 . S
C997 H1005 0.960 . S
C998 C996 1.381 . S
C998 C999 1.394 . S
C998 H1006 0.930 . S
C999 C998 1.394 . S
C999 C1000 1.383 . S
C999 H1007 0.929 . S
C1000 C999 1.383 . S
C1000 C1001 1.377 . S
C1001 H985 0.930 . S
C1001 C1000 1.377 . S
C1001 C1002 1.379 . S
C1002 H986 0.931 . S
C1002 C996 1.383 . S
C1002 C1001 1.379 . S
H1003 C997 0.959 . S
H1004 C997 0.961 . S
H1005 C997 0.960 . S
H1006 C998 0.930 . S
H1007 C999 0.929 . S
H1008 C1016 0.929 . S
H1009 C1018 0.930 . S
H1010 C1020 0.930 . S
H1011 C1023 0.929 . S
H1012 C1026 0.930 . S
H1013 C1028 0.960 . S
H1014 C1028 0.960 . S
H1015 C1028 0.960 . S
C1016 H1008 0.929 . S
C1016 C1017 1.377 . S
C1016 C1018 1.384 . S
C1017 C1016 1.377 . S
C1017 C1023 1.390 . S
C1018 H1009 0.930 . S
C1018 C1016 1.384 . S
C1018 C1019 1.372 . S
C1019 C1018 1.372 . S
C1019 C1020 1.400 . S
C1019 C1024 1.490 . S
C1020 H1010 0.930 . S
C1020 C1019 1.400 . S
C1020 C1023 1.386 . S
H1021 C1037 0.930 . S
H1022 C1038 0.931 . S
C1023 H1011 0.929 . S
C1023 C1017 1.390 . S
C1023 C1020 1.386 . S
C1024 C1019 1.490 . S
C1024 C1026 1.395 . S
C1024 C1027 1.403 . S
H1025 C1031 0.930 . S
C1026 H1012 0.930 . S
C1026 C1024 1.395 . S
C1026 C1029 1.403 . S
C1027 C1024 1.403 . S
C1027 C1028 1.524 . S
C1027 C1031 1.400 . S
C1028 H1013 0.960 . S
C1028 H1014 0.960 . S
C1028 H1015 0.960 . S
C1028 C1027 1.524 . S
C1029 C1026 1.403 . S
C1029 C1030 1.392 . S
C1029 C1033 1.495 . S
C1030 C1029 1.392 . S
C1030 C1031 1.385 . S
C1030 C1032 1.478 . S
C1031 H1025 0.930 . S
C1031 C1027 1.400 . S
C1031 C1030 1.385 . S
C1032 C1030 1.478 . S
C1032 C1034 1.381 . S
C1032 C1038 1.383 . S
C1033 C1029 1.495 . S
C1033 H1039 0.959 . S
C1033 H1040 0.961 . S
C1033 H1041 0.960 . S
C1034 C1032 1.381 . S
C1034 C1035 1.394 . S
C1034 H1042 0.930 . S
C1035 C1034 1.394 . S
C1035 C1036 1.383 . S
C1035 H1043 0.929 . S
C1036 C1035 1.383 . S
C1036 C1037 1.377 . S
C1037 H1021 0.930 . S
C1037 C1036 1.377 . S
C1037 C1038 1.379 . S
C1038 H1022 0.931 . S
C1038 C1032 1.383 . S
C1038 C1037 1.379 . S
H1039 C1033 0.959 . S
H1040 C1033 0.961 . S
H1041 C1033 0.960 . S
H1042 C1034 0.930 . S
H1043 C1035 0.929 . S
C208 C108 1.561 . S
C189 C6 1.569 . S
C244 C111 1.575 . S
C225 C18 1.589 . S
C280 C109 1.535 . S
C261 C28 1.552 . S
C316 C110 1.675 1_655 S
C297 C45 1.672 . S
C352 C125 1.369 . S
C333 C4 1.384 . S
C388 C139 1.622 . S
C369 C21 1.607 . S
C405 C33 1.716 . S
C424 C165 1.736 1_565 S
C460 C179 1.720 . S
C441 C40 1.732 . S
C496 C124 1.528 . S
C477 C16 1.504 . S
C513 C30 1.607 . S
C532 C138 1.605 . S
C568 C164 1.700 . S
C549 C42 1.697 . S
C604 C178 1.704 . S
C585 C9 1.727 . S
C621 C52 1.685 . S
C640 C123 1.664 . S
C676 C96 1.744 . S
C657 C69 1.725 . S
C693 C78 1.556 . S
C712 C122 1.533 . S
C729 C93 1.305 . S
C748 C97 1.319 . S
C784 C152 1.781 1_565 S
C765 C57 1.766 . S
C820 C166 1.782 . S
C801 C66 1.796 . S
C856 C136 1.421 . S
C837 C76 1.410 . S
C873 C88 1.370 . S
C892 C150 1.362 . S
C928 C153 1.708 . S
C909 C64 1.692 . S
C964 C167 1.656 . S
C945 C81 1.670 . S
C1000 C137 1.306 . S
C981 C90 1.299 . S
C1017 C54 1.612 . S
C1036 C151 1.614 . S
