# Generated by pormake.
# Topology zzz, (3,6)-cn, num edge types: 1
# Building blocks:
#     Node 0, Type 0, BuildingBlock: KAKCAD_clean_linker_0, # of connection points: 3
#     Node 1, Type 0, BuildingBlock: KAKCAD_clean_linker_0, # of connection points: 3
#     Node 2, Type 0, BuildingBlock: KAKCAD_clean_linker_0, # of connection points: 3
#     Node 3, Type 0, BuildingBlock: KAKCAD_clean_linker_0, # of connection points: 3
#     Node 4, Type 0, BuildingBlock: KAKCAD_clean_linker_0, # of connection points: 3
#     Node 5, Type 0, BuildingBlock: KAKCAD_clean_linker_0, # of connection points: 3
#     Node 6, Type 0, BuildingBlock: KAKCAD_clean_linker_0, # of connection points: 3
#     Node 7, Type 0, BuildingBlock: KAKCAD_clean_linker_0, # of connection points: 3
#     Node 8, Type 1, BuildingBlock: BETDIP_clean_sbu_0, # of connection points: 6
#     Node 9, Type 1, BuildingBlock: BETDIP_clean_sbu_0, # of connection points: 6
#     Node 10, Type 1, BuildingBlock: BETDIP_clean_sbu_0, # of connection points: 6
#     Node 11, Type 1, BuildingBlock: BETDIP_clean_sbu_0, # of connection points: 6
#     Edge 12, Type (0, 1), BuildingBlock: CIFDUS_clean_linker_0, # of connection points: 2
#     Edge 13, Type (0, 1), BuildingBlock: CIFDUS_clean_linker_0, # of connection points: 2
#     Edge 14, Type (0, 1), BuildingBlock: CIFDUS_clean_linker_0, # of connection points: 2
#     Edge 15, Type (0, 1), BuildingBlock: CIFDUS_clean_linker_0, # of connection points: 2
#     Edge 16, Type (0, 1), BuildingBlock: CIFDUS_clean_linker_0, # of connection points: 2
#     Edge 17, Type (0, 1), BuildingBlock: CIFDUS_clean_linker_0, # of connection points: 2
#     Edge 18, Type (0, 1), BuildingBlock: CIFDUS_clean_linker_0, # of connection points: 2
#     Edge 19, Type (0, 1), BuildingBlock: CIFDUS_clean_linker_0, # of connection points: 2
#     Edge 20, Type (0, 1), BuildingBlock: CIFDUS_clean_linker_0, # of connection points: 2
#     Edge 21, Type (0, 1), BuildingBlock: CIFDUS_clean_linker_0, # of connection points: 2
#     Edge 22, Type (0, 1), BuildingBlock: CIFDUS_clean_linker_0, # of connection points: 2
#     Edge 23, Type (0, 1), BuildingBlock: CIFDUS_clean_linker_0, # of connection points: 2
#     Edge 24, Type (0, 1), BuildingBlock: CIFDUS_clean_linker_0, # of connection points: 2
#     Edge 25, Type (0, 1), BuildingBlock: CIFDUS_clean_linker_0, # of connection points: 2
#     Edge 26, Type (0, 1), BuildingBlock: CIFDUS_clean_linker_0, # of connection points: 2
#     Edge 27, Type (0, 1), BuildingBlock: CIFDUS_clean_linker_0, # of connection points: 2
#     Edge 28, Type (0, 1), BuildingBlock: CIFDUS_clean_linker_0, # of connection points: 2
#     Edge 29, Type (0, 1), BuildingBlock: CIFDUS_clean_linker_0, # of connection points: 2
#     Edge 30, Type (0, 1), BuildingBlock: CIFDUS_clean_linker_0, # of connection points: 2
#     Edge 31, Type (0, 1), BuildingBlock: CIFDUS_clean_linker_0, # of connection points: 2
#     Edge 32, Type (0, 1), BuildingBlock: CIFDUS_clean_linker_0, # of connection points: 2
#     Edge 33, Type (0, 1), BuildingBlock: CIFDUS_clean_linker_0, # of connection points: 2
#     Edge 34, Type (0, 1), BuildingBlock: CIFDUS_clean_linker_0, # of connection points: 2
#     Edge 35, Type (0, 1), BuildingBlock: CIFDUS_clean_linker_0, # of connection points: 2
# Relax obj value: 0.459
# Max RMSD: 0.262
# Mean RMSD: 0.242
data_MOF--net-zzz--node1-BETDIP_clean_sbu_0--node2-KAKCAD_clean_linker_0--edge1-CIFDUS_clean_linker_0
_symmetry_space_group_name_H-M    P1
_symmetry_Int_Tables_number       1
_symmetry_cell_setting            triclinic
loop_
_symmetry_equiv_pos_as_xyz
'x, y, z'
_cell_length_a     53.243529
_cell_length_b     53.214597
_cell_length_c     16.67313
_cell_angle_alpha  89.671603
_cell_angle_beta   89.752312
_cell_angle_gamma 89.981402
loop_
_atom_site_label
_atom_site_type_symbol
_atom_site_fract_x
_atom_site_fract_y
_atom_site_fract_z
_atom_type_partial_charge
C0 C 0.78137 0.41826 0.05561 0.0
C1 C 0.79443 0.398 0.09089 0.0
C2 C 0.7653 0.43312 0.10139 0.0
C3 C 0.76213 0.42827 0.18354 0.0
C4 C 0.77235 0.40621 0.21642 0.0
C5 C 0.788 0.39091 0.16999 0.0
C6 C 0.75311 0.44879 0.23582 0.0
C7 C 0.73159 0.46243 0.21563 0.0
C8 C 0.72641 0.4856 0.25168 0.0
C9 C 0.74325 0.4953 0.30936 0.0
C10 C 0.76461 0.48114 0.33272 0.0
C11 C 0.76899 0.45783 0.29587 0.0
C12 C 0.78436 0.49078 0.38842 0.0
C13 C 0.79602 0.51413 0.3748 0.0
C14 C 0.79481 0.4746 0.44655 0.0
C15 C 0.8172 0.48073 0.48578 0.0
C16 C 0.82993 0.5033 0.46827 0.0
C17 C 0.70464 0.49993 0.21986 0.0
C18 C 0.70794 0.51501 0.15139 0.0
C19 C 0.68011 0.4935 0.2436 0.0
C20 C 0.65933 0.50128 0.19808 0.0
C21 C 0.6626 0.51527 0.12664 0.0
C22 C 0.68726 0.52255 0.10536 0.0
C23 C 0.81851 0.5203 0.41414 0.0
H24 H 0.78551 0.42457 0.99521 0.0
H25 H 0.75764 0.45003 0.07442 0.0
H26 H 0.76978 0.40186 0.27947 0.0
H27 H 0.79677 0.37484 0.19843 0.0
H28 H 0.71952 0.45563 0.16817 0.0
H29 H 0.78617 0.44768 0.30896 0.0
H30 H 0.73991 0.51366 0.33502 0.0
H31 H 0.78864 0.52695 0.33004 0.0
H32 H 0.78632 0.45646 0.45857 0.0
H33 H 0.82526 0.46701 0.52637 0.0
H34 H 0.72669 0.5195 0.13026 0.0
H35 H 0.67711 0.48133 0.29505 0.0
H36 H 0.82739 0.53809 0.40007 0.0
H37 H 0.69091 0.53284 0.05036 0.0
H38 H 0.64076 0.49562 0.2177 0.0
C39 C 0.12682 0.75718 0.10236 0.0
C40 C 0.1392 0.77838 0.13323 0.0
C41 C 0.11122 0.74266 0.15168 0.0
C42 C 0.10859 0.74838 0.23362 0.0
C43 C 0.12488 0.76629 0.26678 0.0
C44 C 0.13974 0.7814 0.21708 0.0
C45 C 0.08627 0.73933 0.27987 0.0
C46 C 0.07538 0.71593 0.2642 0.0
C47 C 0.05174 0.70931 0.29596 0.0
C48 C 0.03906 0.72652 0.34682 0.0
C49 C 0.0506 0.74962 0.36716 0.0
C50 C 0.07384 0.75573 0.33232 0.0
C51 C 0.03913 0.76879 0.42148 0.0
C52 C 0.01668 0.78113 0.40132 0.0
C53 C 0.05367 0.77868 0.48414 0.0
C54 C 0.04703 0.80122 0.5217 0.0
C55 C 0.02547 0.81467 0.49816 0.0
C56 C 0.0407 0.68489 0.26949 0.0
C57 C 0.01746 0.68404 0.22995 0.0
C58 C 0.05574 0.66314 0.26952 0.0
C59 C 0.04883 0.64188 0.2258 0.0
C60 C 0.02644 0.6415 0.18105 0.0
C61 C 1.01039 0.6626 0.1864 0.0
C62 C 1.0099 0.80376 0.43929 0.0
H63 H 0.12701 0.75336 0.03865 0.0
H64 H 0.09949 0.72868 0.12353 0.0
H65 H 0.12441 0.77031 0.33037 0.0
H66 H 0.14938 0.79706 0.2443 0.0
H67 H 0.08491 0.70309 0.22406 0.0
H68 H 0.08157 0.77423 0.3432 0.0
H69 H 0.02076 0.72183 0.37123 0.0
H70 H 1.00523 0.77421 0.35267 0.0
H71 H 0.07123 0.76976 0.50055 0.0
H72 H 0.05977 0.80881 0.56575 0.0
H73 H 1.0055 0.70051 0.22832 0.0
H74 H 0.07376 0.66314 0.29948 0.0
H75 H 0.99286 0.81314 0.4204 0.0
H76 H 0.9927 0.66295 0.1547 0.0
H77 H 0.06194 0.62636 0.22343 0.0
C78 C 0.75441 0.09486 0.06288 0.0
C79 C 0.73263 0.10767 0.088 0.0
C80 C 0.76823 0.08045 0.11735 0.0
C81 C 0.76138 0.07963 0.19898 0.0
C82 C 0.74293 0.09651 0.22597 0.0
C83 C 0.72839 0.10997 0.17121 0.0
C84 C 0.77005 0.05862 0.25188 0.0
C85 C 0.79341 0.0471 0.2399 0.0
C86 C 0.79958 0.02427 0.27806 0.0
C87 C 0.78208 0.01327 0.33233 0.0
C88 C 0.75911 0.02565 0.3493 0.0
C89 C 0.75334 0.04786 0.30762 0.0
C90 C 0.73966 0.01599 0.40668 0.0
C91 C 0.72718 0.99316 0.39327 0.0
C92 C 0.72968 0.03242 0.46453 0.0
C93 C 0.70689 0.02718 0.50343 0.0
C94 C 0.69329 1.00519 0.48615 0.0
C95 C 0.8236 1.01189 0.25339 0.0
C96 C 0.82357 0.98775 0.21981 0.0
C97 C 0.84572 0.02629 0.24748 0.0
C98 C 0.86637 0.01785 0.20281 0.0
C99 C 0.86566 0.99459 0.16308 0.0
C100 C 0.84436 0.97917 0.17537 0.0
C101 C 0.70431 0.98779 0.43265 0.0
H102 H 0.75953 0.09391 1.0001 0.0
H103 H 0.78272 0.0683 0.09356 0.0
H104 H 0.7381 0.09766 0.28899 0.0
H105 H 0.71238 0.12002 0.19488 0.0
H106 H 0.80654 0.05532 0.19746 0.0
H107 H 0.73486 0.05598 0.31598 0.0
H108 H 0.78642 0.99559 0.36167 0.0
H109 H 0.73419 0.98024 0.34845 0.0
H110 H 0.73873 0.0503 0.4757 0.0
H111 H 0.69924 0.04127 0.54318 0.0
H112 H 0.80682 0.97623 0.22288 0.0
H113 H 0.84639 0.04498 0.27286 0.0
H114 H 0.69482 0.97037 0.41878 0.0
H115 H 0.84324 0.96086 0.14768 0.0
H116 H 0.88216 0.03046 0.19508 0.0
C117 C 0.4779 0.7182 0.52293 0.0
C118 C 0.4934 0.69801 0.49928 0.0
C119 C 0.47438 0.73913 0.47257 0.0
C120 C 0.48671 0.74079 0.39809 0.0
C121 C 0.50345 0.72159 0.37652 0.0
C122 C 0.50672 0.70046 0.42623 0.0
C123 C 0.4772 0.75832 0.33539 0.0
C124 C 0.49119 0.77903 0.30576 0.0
C125 C 0.48225 0.79294 0.23913 0.0
C126 C 0.45969 0.78576 0.20257 0.0
C127 C 0.4462 0.76478 0.22973 0.0
C128 C 0.45467 0.75171 0.2976 0.0
C129 C 0.42659 0.75337 0.17859 0.0
C130 C 0.40503 0.7423 0.21242 0.0
C131 C 0.43168 0.74969 0.09685 0.0
C132 C 0.41737 0.73293 0.05238 0.0
C133 C 0.39745 0.71953 0.0884 0.0
C134 C 0.49695 0.81327 0.19927 0.0
C135 C 0.49822 0.8375 0.23194 0.0
C136 C 0.50523 0.80966 0.12011 0.0
C137 C 0.51335 0.82993 0.07305 0.0
C138 C 0.51351 0.85455 0.1037 0.0
C139 C 0.50646 0.85794 0.1847 0.0
C140 C 0.3904 0.72575 0.16741 0.0
H141 H 0.46771 0.71749 0.5792 0.0
H142 H 0.46096 0.75343 0.48991 0.0
H143 H 0.5126 0.72202 0.31835 0.0
H144 H 0.51854 0.68538 0.4046 0.0
H145 H 0.50911 0.78369 0.33231 0.0
H146 H 0.44486 0.73488 0.31721 0.0
H147 H 0.45327 0.79582 0.1497 0.0
H148 H 0.40043 0.74521 0.27503 0.0
H149 H 0.44824 0.7578 0.06899 0.0
H150 H 0.42372 0.72875 0.99218 0.0
H151 H 0.49153 0.84086 0.29238 0.0
H152 H 0.504 0.79124 0.09299 0.0
H153 H 0.37471 0.71645 0.1965 0.0
H154 H 0.50662 0.87649 0.21102 0.0
H155 H 0.51813 0.82635 1.011 0.0
C156 C 0.23611 0.63287 0.23509 0.0
C157 C 0.22801 0.62462 0.31146 0.0
C158 C 0.25411 0.61919 0.19227 0.0
C159 C 0.26495 0.59759 0.2262 0.0
C160 C 0.25957 0.59148 0.30626 0.0
C161 C 0.24119 0.60467 0.34824 0.0
C162 C 0.27719 0.57849 0.17521 0.0
C163 C 0.2994 0.56679 0.19964 0.0
C164 C 0.30799 0.54469 0.16254 0.0
C165 C 0.29334 0.53396 0.10045 0.0
C166 C 0.2713 0.54629 0.0734 0.0
C167 C 0.26381 0.56865 0.11067 0.0
C168 C 0.25391 0.53581 0.01202 0.0
C169 C 0.24647 0.55108 0.94715 0.0
C170 C 0.24016 0.51381 0.02803 0.0
C171 C 0.21843 0.5082 0.98377 0.0
C172 C 0.20994 0.52447 0.92237 0.0
C173 C 0.33119 0.53268 0.19564 0.0
C174 C 0.3522 0.5477 0.21349 0.0
C175 C 0.33111 0.50761 0.22243 0.0
C176 C 0.35061 0.49846 0.27131 0.0
C177 C 0.37064 0.51418 0.29481 0.0
C178 C 0.37156 0.53865 0.26241 0.0
C179 C 0.22488 0.54549 0.90289 0.0
H180 H 0.22721 0.6487 0.20572 0.0
H181 H 0.25825 0.62443 0.13074 0.0
H182 H 0.26759 0.57482 0.33372 0.0
H183 H 0.23575 0.59735 0.4064 0.0
H184 H 0.30934 0.57427 0.25089 0.0
H185 H 0.24616 0.57733 0.09359 0.0
H186 H 0.29908 0.51642 0.07328 0.0
H187 H 0.25645 0.56839 0.93419 0.0
H188 H 0.24514 0.50191 0.07844 0.0
H189 H 0.20776 0.49159 0.99977 0.0
H190 H 0.35294 0.56709 0.19333 0.0
H191 H 0.31523 0.49555 0.21003 0.0
H192 H 0.21904 0.55864 0.85683 0.0
H193 H 0.3864 0.55151 0.27877 0.0
H194 H 0.34944 0.4793 0.29316 0.0
C195 C 0.89921 0.22266 0.31257 0.0
C196 C 0.9057 0.21804 0.39311 0.0
C197 C 0.91392 0.23862 0.26488 0.0
C198 C 0.93497 0.25065 0.29748 0.0
C199 C 0.93929 0.24878 0.38028 0.0
C200 C 0.92485 0.2326 0.42761 0.0
C201 C 0.95487 0.26116 0.2448 0.0
C202 C 0.96701 0.28351 0.26481 0.0
C203 C 0.98912 0.2911 0.22525 0.0
C204 C 0.99933 0.27553 0.16437 0.0
C205 C 0.98649 0.25337 0.14123 0.0
C206 C 0.96431 0.24665 0.18173 0.0
C207 C 0.99586 0.23557 0.07889 0.0
C208 C 0.97991 0.2288 0.01549 0.0
C209 C 0.01757 0.22112 0.09198 0.0
C210 C 0.02235 0.19953 0.04584 0.0
C211 C 1.00554 0.19188 0.98536 0.0
C212 C 1.00128 0.31466 0.25405 0.0
C213 C 0.98667 0.33655 0.26216 0.0
C214 C 0.02515 0.31412 0.28958 0.0
C215 C 0.0333 0.33422 0.3374 0.0
C216 C 0.01774 0.35532 0.351 0.0
C217 C 0.99473 0.35654 0.3099 0.0
C218 C 0.9847 0.20738 0.96929 0.0
H219 H 0.88411 0.21231 0.28462 0.0
H220 H 0.90991 0.24017 0.2014 0.0
H221 H 0.95541 0.25781 0.40711 0.0
H222 H 0.93058 0.22961 0.48916 0.0
H223 H 0.95972 0.29459 0.31413 0.0
H224 H 0.95524 0.22899 0.16741 0.0
H225 H 0.01673 0.28074 0.13478 0.0
H226 H 0.9628 0.23931 1.00484 0.0
H227 H 0.02997 0.22556 0.14126 0.0
H228 H 0.03882 0.18837 0.05937 0.0
H229 H 0.96811 0.33748 0.23587 0.0
H230 H 0.03673 0.29744 0.28514 0.0
H231 H 0.97114 0.20218 0.92413 0.0
H232 H 0.98201 0.37216 0.31875 0.0
H233 H 0.05139 0.33273 0.36641 0.0
C234 C 0.28349 0.08921 0.35913 0.0
C235 C 0.30037 0.10534 0.31883 0.0
C236 C 0.26241 0.08 0.31987 0.0
C237 C 0.2579 0.08668 0.23967 0.0
C238 C 0.27186 0.10646 0.20539 0.0
C239 C 0.29291 0.11588 0.24505 0.0
C240 C 0.24467 0.06842 0.18791 0.0
C241 C 0.22318 0.05593 0.21542 0.0
C242 C 0.21513 0.03349 0.17979 0.0
C243 C 0.22873 0.02367 0.11362 0.0
C244 C 0.24988 0.03684 0.08292 0.0
C245 C 0.25725 0.05922 0.12028 0.0
C246 C 0.26711 0.02693 0.01931 0.0
C247 C 0.27955 1.00379 0.02947 0.0
C248 C 0.27591 0.04348 0.95917 0.0
C249 C 0.29792 0.03826 0.91615 0.0
C250 C 0.31144 0.01608 0.93063 0.0
C251 C 0.19429 0.01986 0.22085 0.0
C252 C 0.19828 1.01081 0.29911 0.0
C253 C 0.16951 0.02154 0.19247 0.0
C254 C 0.14909 0.01573 0.24332 0.0
C255 C 0.15315 1.00857 0.32372 0.0
C256 C 0.17801 1.00529 0.34989 0.0
C257 C 0.30148 0.99836 0.98517 0.0
H258 H 0.28816 0.0808 0.4164 0.0
H259 H 0.25189 0.065 0.34861 0.0
H260 H 0.2683 0.11252 0.14434 0.0
H261 H 0.30489 0.12918 0.21375 0.0
H262 H 0.21357 0.06283 0.26842 0.0
H263 H 0.27458 0.06819 0.10123 0.0
H264 H 0.22333 1.00584 0.08787 0.0
H265 H 0.27355 0.99083 0.07608 0.0
H266 H 0.26684 0.06149 0.94997 0.0
H267 H 0.30509 0.05217 0.87421 0.0
H268 H 0.21716 1.00974 0.32296 0.0
H269 H 0.16589 0.02903 0.1331 0.0
H270 H 0.31161 0.98112 0.99756 0.0
H271 H 0.18179 0.99956 0.41111 0.0
H272 H 0.13015 0.0185 0.22148 0.0
C273 C 0.49511 0.30494 1.00657 0.0
C274 C 0.51425 0.31853 0.96648 0.0
C275 C 0.50055 0.28277 0.0496 0.0
C276 C 0.52528 0.27363 0.0537 0.0
C277 C 0.54398 0.28612 1.00866 0.0
C278 C 0.53859 0.3082 0.96583 0.0
C279 C 0.53273 0.25468 0.11595 0.0
C280 C 0.52031 0.23131 0.12765 0.0
C281 C 0.52796 0.21495 0.19046 0.0
C282 C 0.5469 0.22267 0.24302 0.0
C283 C 0.55873 0.2458 0.2331 0.0
C284 C 0.55204 0.26141 0.16899 0.0
C285 C 0.57526 0.25553 0.29624 0.0
C286 C 0.56498 0.26075 0.37172 0.0
C287 C 0.59999 0.26276 0.27893 0.0
C288 C 0.61363 0.27678 0.33447 0.0
C289 C 0.6023 0.28471 0.40667 0.0
C290 C 0.51656 0.18996 0.20719 0.0
C291 C 0.4936 0.18826 0.24857 0.0
C292 C 0.53204 0.1686 0.20402 0.0
C293 C 0.52588 0.14679 0.24711 0.0
C294 C 0.50397 0.14568 0.29472 0.0
C295 C 0.48729 0.16631 0.2915 0.0
C296 C 0.57824 0.27535 0.42617 0.0
H297 H 0.47601 0.31193 1.00724 0.0
H298 H 0.48574 0.27375 0.08394 0.0
H299 H 0.56324 0.27958 1.01046 0.0
H300 H 0.55393 0.31797 0.93644 0.0
H301 H 0.5052 0.22583 0.08814 0.0
H302 H 0.56086 0.27973 0.16361 0.0
H303 H 0.55203 0.21082 0.29359 0.0
H304 H 0.54585 0.25533 0.38599 0.0
H305 H 0.6083 0.25857 0.2211 0.0
H306 H 0.63241 0.28276 0.31831 0.0
H307 H 0.48152 0.20458 0.25327 0.0
H308 H 0.55011 0.16957 0.17395 0.0
H309 H 0.56851 0.28102 0.4802 0.0
H310 H 0.46995 0.16607 0.32562 0.0
H311 H 0.53942 0.13161 0.24799 0.0
Tb312 Tb 0.03773 0.99303 0.83548 0.0
Tb313 Tb 1.00236 1.00501 0.71535 0.0
C314 C 0.06433 0.97356 0.9435 0.0
C315 C 0.08092 0.95161 0.94246 0.0
C316 C 0.09098 0.94229 0.01402 0.0
C317 C 0.10479 0.91997 0.01394 0.0
C318 C 0.10855 0.90661 0.94221 0.0
C319 C 0.09942 0.91673 0.86999 0.0
C320 C 0.08576 0.93912 0.87011 0.0
C321 C 0.05908 1.01054 0.70197 0.0
C322 C 0.02045 0.94975 0.71703 0.0
C323 C 0.97742 0.02306 0.60087 0.0
C324 C 0.95913 0.04327 0.58669 0.0
C325 C 0.96267 0.06749 0.61749 0.0
C326 C 0.94636 0.08693 0.59591 0.0
C327 C 0.9262 0.08244 0.54351 0.0
C328 C 0.92185 0.05778 0.51711 0.0
C329 C 0.93825 0.03841 0.53833 0.0
C330 C 0.9807 0.98862 0.85083 0.0
C331 C 0.01894 0.04783 0.83944 0.0
O332 O 0.04044 0.96868 0.93451 0.0
O333 O 0.07163 0.99237 0.89875 0.0
O334 O 0.04122 0.99497 0.70569 0.0
O335 O 0.06524 0.0165 0.77407 0.0
O336 O 0.02869 0.95537 0.78932 0.0
O337 O 1.01242 0.9679 0.66945 0.0
O338 O 1.00052 0.02969 0.61715 0.0
O339 O 0.96967 1.00443 0.64566 0.0
O340 O 0.99911 1.00333 0.84453 0.0
O341 O 0.97343 0.98327 0.7792 0.0
O342 O 1.01024 0.04299 0.7665 0.0
O343 O 0.02712 0.02913 0.88456 0.0
H344 H 0.08743 0.95179 0.07026 0.0
H345 H 0.11124 0.91242 0.0707 0.0
H346 H 0.10209 0.90689 0.81391 0.0
H347 H 0.07831 0.94626 0.81408 0.0
H348 H 0.97852 0.07163 0.65566 0.0
H349 H 0.95048 0.10573 0.61657 0.0
H350 H 0.90633 0.05366 0.47754 0.0
H351 H 0.93507 0.01974 0.51479 0.0
Tb352 Tb 0.5125 0.031 0.81258 0.0
Tb353 Tb 0.49898 0.99966 0.67729 0.0
C354 C 0.53165 0.05133 0.93333 0.0
C355 C 0.55275 0.06874 0.94153 0.0
C356 C 0.56599 0.0769 0.87327 0.0
C357 C 0.58688 0.0925 0.88116 0.0
C358 C 0.5948 0.10022 0.95747 0.0
C359 C 0.58071 0.0929 0.02536 0.0
C360 C 0.55984 0.07723 0.01737 0.0
C361 C 0.49776 0.057 0.68483 0.0
C362 C 0.55608 1.01076 0.69409 0.0
C363 C 0.47719 0.98774 0.55108 0.0
C364 C 0.45575 1.0017 0.51628 0.0
C365 C 0.46031 0.02145 0.46158 0.0
C366 C 0.44179 0.03935 0.44576 0.0
C367 C 0.41814 0.03762 0.48305 0.0
C368 C 0.41297 0.0168 0.53279 0.0
C369 C 0.43156 0.99904 0.54927 0.0
C370 C 0.51251 0.97326 0.80541 0.0
C371 C 0.45668 0.01887 0.79803 0.0
O372 O 0.53744 0.02863 0.90948 0.0
O373 O 0.51236 0.06049 0.89499 0.0
O374 O 0.51136 0.03762 0.68519 0.0
O375 O 0.49358 0.0633 0.75825 0.0
O376 O 0.54986 0.02258 0.76116 0.0
O377 O 0.53879 1.00067 0.64783 0.0
O378 O 0.49832 1.00023 0.55182 0.0
O379 O 0.47309 0.97612 0.61943 0.0
O380 O 0.4996 0.99314 0.80446 0.0
O381 O 0.51662 0.96651 0.73175 0.0
O382 O 0.46237 0.01413 0.72216 0.0
O383 O 0.47476 0.02155 0.85098 0.0
H384 H 0.56047 0.07078 0.81405 0.0
H385 H 0.59728 0.09793 0.82785 0.0
H386 H 0.58657 0.09821 0.08504 0.0
H387 H 0.54964 0.07123 0.07049 0.0
H388 H 0.47873 0.02401 0.43489 0.0
H389 H 0.44641 0.0551 0.40699 0.0
H390 H 0.39466 0.01446 0.5604 0.0
H391 H 0.4273 0.98401 0.59124 0.0
Tb392 Tb 0.494 0.51139 0.7797 0.0
Tb393 Tb 0.53301 0.50411 0.6627 0.0
C394 C 0.46769 0.52434 0.89816 0.0
C395 C 0.44985 0.54393 0.92248 0.0
C396 C 0.45043 0.55227 1.00179 0.0
C397 C 0.43403 0.57099 0.02744 0.0
C398 C 0.41645 0.58169 0.97435 0.0
C399 C 0.41557 0.57286 0.89492 0.0
C400 C 0.43222 0.55417 0.86907 0.0
C401 C 0.47615 0.50018 0.63528 0.0
C402 C 0.51358 0.55879 0.67688 0.0
C403 C 0.56079 0.4899 0.54956 0.0
C404 C 0.57742 0.46836 0.53701 0.0
C405 C 0.58203 0.46013 0.45895 0.0
C406 C 0.59615 0.43846 0.4459 0.0
C407 C 0.6061 0.42469 0.51089 0.0
C408 C 0.6022 0.43365 0.58921 0.0
C409 C 0.58781 0.45524 0.6022 0.0
C410 C 0.55045 0.51596 0.807 0.0
C411 C 0.51372 0.45652 0.76335 0.0
O412 O 0.49104 0.53135 0.88765 0.0
O413 O 0.46017 0.50865 0.8433 0.0
O414 O 0.49443 0.51439 0.65063 0.0
O415 O 0.4667 0.4926 0.70271 0.0
O416 O 0.50138 0.55101 0.74215 0.0
O417 O 0.52464 0.54251 0.62909 0.0
O418 O 0.5368 0.48471 0.55407 0.0
O419 O 0.56785 0.50576 0.60449 0.0
O420 O 0.5327 0.50106 0.79163 0.0
O421 O 0.55924 0.52428 0.73965 0.0
O422 O 0.52502 0.46467 0.69724 0.0
O423 O 0.50291 0.47267 0.81228 0.0
H424 H 0.46391 0.54455 0.04379 0.0
H425 H 0.43584 0.57767 0.08835 0.0
H426 H 0.40224 0.58056 0.85255 0.0
H427 H 0.43143 0.54789 0.80745 0.0
H428 H 0.57403 0.47 0.4081 0.0
H429 H 0.59814 0.43191 0.38486 0.0
H430 H 0.60971 0.42368 0.64057 0.0
H431 H 0.58435 0.46136 0.66313 0.0
Tb432 Tb 1.00908 0.49122 0.80486 0.0
Tb433 Tb 0.0206 0.52497 0.67528 0.0
C434 C 0.99221 0.46898 0.92722 0.0
C435 C 0.97227 0.45106 0.94772 0.0
C436 C 0.96269 0.45096 0.02583 0.0
C437 C 0.94339 0.43456 0.04722 0.0
C438 C 0.93335 0.41771 0.99092 0.0
C439 C 0.94336 0.41759 0.9126 0.0
C440 C 0.96265 0.43423 0.89106 0.0
C441 C 0.02297 0.46766 0.67074 0.0
C442 C 0.96487 0.50762 0.68688 0.0
C443 C 0.0383 0.54741 0.55459 0.0
C444 C 0.05923 0.56475 0.54017 0.0
C445 C 0.06947 0.5667 0.4631 0.0
C446 C 0.09 0.58238 0.44865 0.0
C447 C 0.10058 0.59659 0.51107 0.0
C448 C 0.08982 0.59495 0.58817 0.0
C449 C 0.06937 0.57905 0.60269 0.0
C450 C 1.0058 0.54876 0.80753 0.0
C451 C 0.0645 0.50907 0.79584 0.0
O452 O 0.98493 0.49141 0.90473 0.0
O453 O 1.01058 0.46039 0.88306 0.0
O454 O 1.00911 0.4867 0.67634 0.0
O455 O 0.02846 0.46043 0.74259 0.0
O456 O 0.97096 0.49949 0.75952 0.0
O457 O 0.98268 0.5151 0.6367 0.0
O458 O 0.04446 0.52442 0.57465 0.0
O459 O 0.01993 0.55614 0.59842 0.0
O460 O 0.02019 0.52995 0.80416 0.0
O461 O 1.00022 0.55513 0.73497 0.0
O462 O 0.05891 0.5171 0.72259 0.0
O463 O 0.04636 0.50169 0.84453 0.0
H464 H 0.96987 0.46391 0.07013 0.0
H465 H 0.93576 0.43578 0.10738 0.0
H466 H 0.93615 0.40485 0.86784 0.0
H467 H 0.96989 0.43409 0.83024 0.0
H468 H 0.06191 0.5557 0.41434 0.0
H469 H 0.09811 0.58256 0.38899 0.0
H470 H 0.09737 0.60569 0.63747 0.0
H471 H 0.06165 0.57771 0.6628 0.0
H472 H 0.14998 0.03176 0.46705 0.0
H473 H 0.10862 0.98228 0.31263 0.0
H474 H 0.07502 0.97895 0.41393 0.0
H475 H 0.05822 0.98907 0.55062 0.0
H476 H 0.10021 0.03995 0.69969 0.0
H477 H 0.13246 0.04379 0.59678 0.0
C478 C 0.13364 0.02016 0.4556 0.0
C479 C 0.13201 1.00698 0.38289 0.0
C480 C 0.1144 0.01861 0.51348 0.0
C481 C 0.11041 0.99253 0.36825 0.0
C482 C 0.09122 0.99061 0.42629 0.0
C483 C 0.07432 1.00116 0.56001 0.0
C484 C 0.07682 0.01403 0.63342 0.0
C485 C 0.09307 1.00342 0.4997 0.0
C486 C 0.0978 0.02968 0.64435 0.0
C487 C 0.11635 0.03189 0.58544 0.0
H488 H 0.48362 0.148 0.44572 0.0
H489 H 0.51652 0.09547 0.27912 0.0
H490 H 0.5169 0.06308 0.3835 0.0
H491 H 0.51102 0.05058 0.52629 0.0
H492 H 0.47612 0.10297 0.68878 0.0
H493 H 0.47307 0.13412 0.58167 0.0
C494 C 0.4903 0.12934 0.431 0.0
C495 C 0.50034 0.12457 0.35412 0.0
C496 C 0.49036 0.11066 0.49127 0.0
C497 C 0.50919 0.10012 0.33786 0.0
C498 C 0.50935 0.08145 0.39764 0.0
C499 C 0.50248 0.0687 0.53784 0.0
C500 C 0.49412 0.07449 0.61592 0.0
C501 C 0.50058 0.08667 0.4753 0.0
C502 C 0.48296 0.09804 0.62964 0.0
C503 C 0.48118 0.11593 0.56829 0.0
H504 H 0.42101 0.52605 0.30885 0.0
H505 H 0.36158 0.48461 0.42717 0.0
H506 H 0.38949 0.47484 0.53812 0.0
H507 H 0.42967 0.48071 0.60791 0.0
H508 H 0.48856 0.52381 0.49434 0.0
H509 H 0.462 0.5304 0.37642 0.0
C510 C 0.41407 0.51488 0.35879 0.0
C511 C 0.38896 0.50617 0.35862 0.0
C512 C 0.43015 0.50976 0.42414 0.0
C513 C 0.38075 0.49132 0.42392 0.0
C514 C 0.39669 0.4859 0.4883 0.0
C515 C 0.43681 0.49133 0.55702 0.0
C516 C 0.46108 0.50186 0.5603 0.0
C517 C 0.42127 0.49536 0.48982 0.0
C518 C 0.46998 0.51554 0.49363 0.0
C519 C 0.45474 0.51937 0.42618 0.0
H520 H 1.0079 0.4063 0.34998 0.0
H521 H 0.04133 0.34788 0.49536 0.0
H522 H 0.04769 0.3777 0.60354 0.0
H523 H 0.04087 0.41963 0.66215 0.0
H524 H 1.00568 0.47756 0.51996 0.0
H525 H 1.00268 0.44873 0.40653 0.0
C526 C 0.01657 0.39999 0.40522 0.0
C527 C 0.02404 0.3746 0.41357 0.0
C528 C 0.01968 0.4172 0.46864 0.0
C529 C 0.03569 0.3672 0.48571 0.0
C530 C 0.03913 0.38426 0.54841 0.0
C531 C 0.03276 0.42602 0.60607 0.0
C532 C 0.02339 0.45073 0.59986 0.0
C533 C 0.03081 0.40919 0.5412 0.0
C534 C 0.01296 0.45866 0.52662 0.0
C535 C 1.01121 0.44213 0.46167 0.0
H536 H 0.91657 1.0048 0.1672 0.0
H537 H 0.85998 0.96972 0.02049 0.0
H538 H 0.89093 0.9627 0.91532 0.0
H539 H 0.93319 0.96962 0.85895 0.0
H540 H 0.9893 1.00679 1.00125 0.0
H541 H 0.95948 1.01008 0.11295 0.0
C542 C 0.9109 0.99562 0.11233 0.0
C543 C 0.88568 0.98788 0.10277 0.0
C544 C 0.92877 0.99219 0.05042 0.0
C545 C 0.87914 0.97557 0.03119 0.0
C546 C 0.89685 0.97176 0.97014 0.0
C547 C 0.939 0.9782 0.91472 0.0
C548 C 0.96346 0.98806 0.92144 0.0
C549 C 0.92159 0.9804 0.97835 0.0
C550 C 0.97061 0.9991 0.99427 0.0
C551 C 0.95351 1.00104 0.05817 0.0
H552 H 0.49215 0.90169 0.1025 0.0
H553 H 0.54798 0.8569 0.9805 0.0
H554 H 0.55307 0.88973 0.87934 0.0
H555 H 0.53968 0.9301 0.81955 0.0
H556 H 0.48579 0.97594 0.94532 0.0
H557 H 0.48242 0.94413 0.05124 0.0
C558 C 0.50587 0.89923 0.05499 0.0
C559 C 0.51926 0.87639 0.04903 0.0
C560 C 0.50901 0.91844 0.997 0.0
C561 C 0.53681 0.87381 0.98603 0.0
C562 C 0.53988 0.8927 0.92806 0.0
C563 C 0.52741 0.93321 0.87062 0.0
C564 C 0.51281 0.95525 0.87395 0.0
C565 C 0.52569 0.91487 0.93185 0.0
C566 C 0.49718 0.95913 0.94097 0.0
C567 C 0.49518 0.94088 1.00157 0.0
H568 H 0.6204 0.48655 0.0979 0.0
H569 H 0.65544 0.5568 0.03003 0.0
H570 H 0.62346 0.56354 0.92832 0.0
H571 H 0.58702 0.54835 0.85185 0.0
H572 H 0.55031 0.47966 0.92432 0.0
H573 H 0.58094 0.47393 0.03216 0.0
C574 C 0.62086 0.50366 0.06241 0.0
C575 C 0.64092 0.52085 0.07152 0.0
C576 C 0.60199 0.50775 1.00441 0.0
C577 C 0.64091 0.54275 0.02353 0.0
C578 C 0.62243 0.54678 0.96541 0.0
C579 C 0.58553 0.53231 0.89205 0.0
C580 C 0.5665 0.51438 0.87967 0.0
C581 C 0.60317 0.52919 0.95416 0.0
C582 C 0.56471 0.49378 0.93253 0.0
C583 C 0.58235 0.49042 0.99398 0.0
H584 H 1.00299 0.64328 0.0346 0.0
H585 H 0.03817 0.59109 0.19857 0.0
H586 H 0.03468 0.55777 0.09941 0.0
H587 H 0.02361 0.54369 0.96196 0.0
H588 H 0.98619 0.59574 0.80311 0.0
H589 H 0.98808 0.62834 0.90476 0.0
C590 C 1.0094 0.62455 0.04999 0.0
C591 C 0.02117 0.62014 0.12447 0.0
C592 C 1.00702 0.60521 0.99296 0.0
C593 C 0.0296 0.59553 0.14147 0.0
C594 C 0.02748 0.57628 0.08473 0.0
C595 C 0.01566 0.56209 0.95006 0.0
C596 C 1.00502 0.56725 0.8744 0.0
C597 C 0.01662 0.58097 1.00954 0.0
C598 C 0.99465 0.59119 0.86036 0.0
C599 C 0.99574 0.60995 0.91858 0.0
H600 H 0.89781 0.1725 0.32591 0.0
H601 H 0.89582 0.2104 0.55415 0.0
H602 H 0.89784 0.1699 0.62364 0.0
H603 H 0.90905 0.12492 0.61761 0.0
H604 H 0.91282 0.08841 0.3872 0.0
H605 H 0.90009 0.12707 0.321 0.0
C606 C 0.89669 0.17208 0.39084 0.0
C607 C 0.89741 0.19461 0.43458 0.0
C608 C 0.89852 0.14886 0.43022 0.0
C609 C 0.896 0.19338 0.51886 0.0
C610 C 0.89724 0.17021 0.55868 0.0
C611 C 0.90661 0.12535 0.55307 0.0
C612 C 0.9124 0.10392 0.50744 0.0
C613 C 0.90005 0.14798 0.51476 0.0
C614 C 0.90852 0.10455 0.42406 0.0
C615 C 0.90145 0.12678 0.38586 0.0
H616 H 0.32081 0.1037 0.46976 0.0
H617 H 0.34127 0.10449 0.21863 0.0
H618 H 0.38191 0.08685 0.25045 0.0
H619 H 0.4071 0.06188 0.34353 0.0
H620 H 0.38576 0.05775 0.5933 0.0
H621 H 0.3497 0.08489 0.56731 0.0
C622 C 0.33432 0.10046 0.4221 0.0
C623 C 0.3274 0.1047 0.34173 0.0
C624 C 0.3572 0.08864 0.44001 0.0
C625 C 0.34567 0.10139 0.28121 0.0
C626 C 0.36894 0.09078 0.29908 0.0
C627 C 0.39498 0.06743 0.39279 0.0
C628 C 0.39871 0.0572 0.46971 0.0
C629 C 0.37417 0.08283 0.37738 0.0
C630 C 0.3828 0.06466 0.53284 0.0
C631 C 0.3623 0.08037 0.51822 0.0
H632 H 0.63035 0.32391 0.34893 0.0
H633 H 0.59777 0.29497 0.56873 0.0
H634 H 0.59978 0.33674 0.62738 0.0
H635 H 0.60143 0.38225 0.6028 0.0
H636 H 0.63668 0.41041 0.3864 0.0
H637 H 0.64359 0.36755 0.34086 0.0
C638 C 0.62465 0.32616 0.4109 0.0
C639 C 0.61263 0.30637 0.4525 0.0
C640 C 0.62589 0.35019 0.44444 0.0
C641 C 0.60586 0.31008 0.53339 0.0
C642 C 0.60708 0.33399 0.56727 0.0
C643 C 0.61154 0.37917 0.54715 0.0
C644 C 0.6175 0.3996 0.49642 0.0
C645 C 0.61552 0.35445 0.52122 0.0
C646 C 0.63086 0.39502 0.42499 0.0
C647 C 0.63493 0.37051 0.399 0.0
H648 H 0.213 0.62675 0.46956 0.0
H649 H 0.18606 0.64028 0.22876 0.0
H650 H 0.14318 0.63903 0.27668 0.0
H651 H 0.11355 0.62374 0.37805 0.0
H652 H 0.14094 0.60168 0.61149 0.0
H653 H 0.18281 0.61638 0.5756 0.0
C654 C 0.19782 0.62953 0.42731 0.0
C655 C 0.20315 0.63255 0.34489 0.0
C656 C 0.17294 0.62661 0.45382 0.0
C657 C 0.18304 0.63768 0.29245 0.0
C658 C 0.15824 0.63657 0.31957 0.0
C659 C 0.12863 0.62232 0.42138 0.0
C660 C 0.12417 0.61093 0.49648 0.0
C661 C 0.15304 0.62931 0.39875 0.0
C662 C 0.14371 0.61023 0.55304 0.0
C663 C 0.16781 0.61843 0.53229 0.0
H664 H 0.11581 0.7921 0.99472 0.0
H665 H 0.1762 0.81457 0.1512 0.0
H666 H 0.1745 0.85701 0.09521 0.0
H667 H 0.14959 0.88921 0.02319 0.0
H668 H 0.08916 0.86557 0.86925 0.0
H669 H 0.098 0.82181 0.90084 0.0
C670 C 0.12949 0.80572 0.01481 0.0
C671 C 0.14541 0.80017 0.0799 0.0
C672 C 0.12817 0.83011 0.98335 0.0
C673 C 0.16296 0.81847 0.10363 0.0
C674 C 0.16202 0.8428 0.07161 0.0
C675 C 0.13879 0.87439 0.99524 0.0
C676 C 0.11844 0.88062 0.94533 0.0
C677 C 0.14359 0.84916 0.01514 0.0
C678 C 0.1049 0.86131 0.90799 0.0
C679 C 0.1098 0.83624 0.92656 0.0
H680 H 0.69403 0.14242 0.10006 0.0
H681 H 0.72334 0.08482 0.94273 0.0
H682 H 0.68357 0.08242 0.87563 0.0
H683 H 0.63832 0.08763 0.88505 0.0
H684 H 0.60682 0.13985 0.05487 0.0
H685 H 0.64911 0.15241 0.0955 0.0
C686 C 0.69189 0.1293 0.05116 0.0
C687 C 0.71181 0.11305 0.03014 0.0
C688 C 0.66811 0.12633 0.01637 0.0
C689 C 0.70877 0.09755 0.96236 0.0
C690 C 0.68566 0.09576 0.92406 0.0
C691 C 0.64065 0.1024 0.92896 0.0
C692 C 0.61952 0.11251 0.96783 0.0
C693 C 0.66486 0.10871 0.95427 0.0
C694 C 0.62288 0.13148 0.02513 0.0
C695 C 0.64703 0.13865 0.04831 0.0
H696 H 0.38388 0.67566 0.16253 0.0
H697 H 0.39078 0.70957 0.92737 0.0
H698 H 0.39337 0.66799 0.86732 0.0
H699 H 0.40399 0.62343 0.88691 0.0
H700 H 0.39447 0.58959 0.12118 0.0
H701 H 0.38191 0.63006 0.17587 0.0
C702 C 0.38481 0.67423 0.09779 0.0
C703 C 0.38844 0.69591 0.05015 0.0
C704 C 0.38639 0.65028 0.06358 0.0
C705 C 0.3892 0.69325 0.96614 0.0
C706 C 0.39065 0.66944 0.93159 0.0
C707 C 0.39825 0.62457 0.94924 0.0
C708 C 0.40133 0.6037 1.00061 0.0
C709 C 0.391 0.64793 0.98048 0.0
C710 C 0.39341 0.60563 0.08101 0.0
C711 C 0.3861 0.62875 0.11235 0.0
H712 H 0.83739 0.38276 0.16607 0.0
H713 H 0.80602 0.39307 0.92949 0.0
H714 H 0.84823 0.39642 0.87326 0.0
H715 H 0.89261 0.40673 0.89806 0.0
H716 H 0.92365 0.39382 0.13365 0.0
H717 H 0.88262 0.38054 0.18295 0.0
C718 C 0.83944 0.38461 0.10166 0.0
C719 C 0.81829 0.38906 0.05299 0.0
C720 C 0.86373 0.38663 0.06968 0.0
C721 C 0.82188 0.39092 0.96937 0.0
C722 C 0.84606 0.39281 0.93696 0.0
C723 C 0.89072 0.40012 0.95941 0.0
C724 C 0.91097 0.4024 0.013 0.0
C725 C 0.86702 0.39244 0.98757 0.0
C726 C 0.9081 0.39336 0.09199 0.0
C727 C 0.88466 0.38562 0.12021 0.0
H728 H 0.02113 0.14695 0.04877 0.0
H729 H 0.99599 0.18042 0.827 0.0
H730 H 0.99747 0.13934 0.76202 0.0
H731 H 1.00531 0.09319 0.76856 0.0
H732 H 0.03103 0.06087 0.99181 0.0
H733 H 0.03015 0.10191 0.05429 0.0
C734 C 0.01639 0.14547 0.98581 0.0
C735 C 1.00847 0.16704 0.94336 0.0
C736 C 0.01727 0.12173 0.94858 0.0
C737 C 1.00191 0.16429 0.86199 0.0
C738 C 1.00282 0.14071 0.82448 0.0
C739 C 1.01073 0.09513 0.8308 0.0
C740 C 0.01817 0.07365 0.87491 0.0
C741 C 1.01027 0.11916 0.8673 0.0
C742 C 0.02519 0.07679 0.95568 0.0
C743 C 0.02472 0.1004 0.99192 0.0
H744 H 0.35237 0.04411 0.9623 0.0
H745 H 0.32797 0.98127 0.82128 0.0
H746 H 0.37027 0.97749 0.76242 0.0
H747 H 0.41485 0.99195 0.75317 0.0
H748 H 0.43918 0.05247 0.90512 0.0
H749 H 0.39653 0.05745 0.95689 0.0
C750 C 0.35637 0.0296 0.91859 0.0
C751 C 0.3371 1.01307 0.89576 0.0
C752 C 0.38081 0.02722 0.88676 0.0
C753 C 0.34253 0.99418 0.83976 0.0
C754 C 0.3667 0.99209 0.80603 0.0
C755 C 0.41068 1.00631 0.79716 0.0
C756 C 0.43018 0.02194 0.82493 0.0
C757 C 0.38608 1.0085 0.82913 0.0
C758 C 0.42457 0.0402 0.88286 0.0
C759 C 0.40016 0.04306 0.91258 0.0
H760 H 0.53454 0.34058 0.83022 0.0
H761 H 0.4838 0.35542 0.0271 0.0
H762 H 0.47847 0.39849 0.98022 0.0
H763 H 0.4897 0.4329 0.88786 0.0
H764 H 0.541 0.4188 0.69216 0.0
H765 H 0.5448 0.37489 0.73468 0.0
C766 C 0.52231 0.35318 0.86306 0.0
C767 C 0.50957 0.34438 0.9324 0.0
C768 C 0.51956 0.37831 0.83632 0.0
C769 C 0.49355 0.36119 0.97294 0.0
C770 C 0.49066 0.38605 0.94658 0.0
C771 C 0.50166 0.42025 0.85415 0.0
C772 C 0.5151 0.42937 0.78687 0.0
C773 C 0.50378 0.39493 0.87896 0.0
C774 C 0.53038 0.41248 0.74403 0.0
C775 C 0.53261 0.38728 0.76847 0.0
H776 H 0.16615 0.50844 0.99221 0.0
H777 H 0.19646 0.53313 0.76473 0.0
H778 H 0.15463 0.53091 0.70511 0.0
H779 H 0.10871 0.52271 0.71819 0.0
H780 H 0.07963 0.4973 0.94695 0.0
H781 H 0.12142 0.4988 1.004 0.0
C782 C 0.16383 0.51289 0.92915 0.0
C783 C 0.18472 0.52092 0.88349 0.0
C784 C 0.13967 0.51156 0.89502 0.0
C785 C 0.18087 0.52713 0.80209 0.0
C786 C 0.15686 0.5258 0.76767 0.0
C787 C 0.11153 0.51744 0.78041 0.0
C788 C 0.09074 0.50995 0.82776 0.0
C789 C 0.13599 0.51824 0.8137 0.0
C790 C 0.095 0.50318 0.90844 0.0
C791 C 0.11903 0.504 0.94154 0.0
H792 H 0.03499 0.83328 0.64936 0.0
H793 H 1.00547 0.85551 0.41876 0.0
H794 H 1.0005 0.89847 0.46607 0.0
H795 H 1.0063 0.93065 0.57091 0.0
H796 H 0.03755 0.90857 0.79917 0.0
H797 H 0.04057 0.86519 0.75398 0.0
C798 C 0.02758 0.84745 0.60895 0.0
C799 C 0.02063 0.84072 0.53015 0.0
C800 C 0.02528 0.87248 0.63596 0.0
C801 C 1.01061 0.85963 0.48003 0.0
C802 C 1.008 0.88444 0.50682 0.0
C803 C 0.0137 0.91636 0.61094 0.0
C804 C 0.02167 0.92312 0.68857 0.0
C805 C 0.01551 0.8912 0.5844 0.0
C806 C 0.03122 0.90416 0.73923 0.0
C807 C 0.03297 0.8792 0.71339 0.0
H808 H 0.67366 0.0195 0.63273 0.0
H809 H 0.65281 0.98355 0.41117 0.0
H810 H 0.60938 0.98099 0.4569 0.0
H811 H 0.57645 0.99099 0.55635 0.0
H812 H 0.59697 0.02876 0.77497 0.0
H813 H 0.64091 0.02896 0.73292 0.0
C814 C 0.65969 1.01118 0.59397 0.0
C815 C 0.66695 1.00173 0.51816 0.0
C816 C 0.63439 1.01028 0.61985 0.0
C817 C 0.64829 0.99061 0.47025 0.0
C818 C 0.62321 0.98936 0.49605 0.0
C819 C 0.5905 0.99917 0.59514 0.0
C820 C 0.58313 1.00987 0.66894 0.0
C821 C 0.61594 0.99941 0.57029 0.0
C822 C 0.60183 0.02038 0.71792 0.0
C823 C 0.6271 0.02051 0.69387 0.0
H824 H 0.53285 0.66506 0.51843 0.0
H825 H 0.45532 0.67576 0.58729 0.0
H826 H 0.45538 0.63528 0.65622 0.0
H827 H 0.47638 0.59471 0.68834 0.0
H828 H 0.55256 0.58309 0.60804 0.0
H829 H 0.55388 0.62551 0.55209 0.0
C830 C 0.51585 0.65862 0.54798 0.0
C831 C 0.49415 0.67384 0.54688 0.0
C832 C 0.51568 0.6348 0.58558 0.0
C833 C 0.47257 0.66499 0.58763 0.0
C834 C 0.47245 0.64156 0.6267 0.0
C835 C 0.49335 0.60168 0.65974 0.0
C836 C 0.51437 0.58573 0.6526 0.0
C837 C 0.49377 0.62606 0.62514 0.0
C838 C 0.5361 0.59493 0.6142 0.0
C839 C 0.53688 0.61922 0.58199 0.0
H840 H 0.84865 0.4915 0.61802 0.0
H841 H 0.87017 0.52516 0.39174 0.0
H842 H 0.91304 0.53015 0.43961 0.0
H843 H 0.94525 0.52338 0.54331 0.0
H844 H 0.92409 0.48893 0.76861 0.0
H845 H 0.88069 0.48557 0.72303 0.0
C846 C 0.86267 0.49989 0.5789 0.0
C847 C 0.85582 0.50797 0.50105 0.0
C848 C 0.88762 0.50241 0.60647 0.0
C849 C 0.87446 0.51913 0.45228 0.0
C850 C 0.89919 0.52178 0.47938 0.0
C851 C 0.93117 0.51519 0.58269 0.0
C852 C 0.93817 0.50636 0.65943 0.0
C853 C 0.90609 0.51328 0.55604 0.0
C854 C 0.91946 0.49589 0.70933 0.0
C855 C 0.89453 0.49394 0.68323 0.0
loop_
_geom_bond_atom_site_label_1
_geom_bond_atom_site_label_2
_geom_bond_distance
_geom_bond_site_symmetry_2
_ccdc_geom_bond_type
C0 C1 1.386 . S
C0 C2 1.397 . S
C0 H24 0.931 . S
C1 C0 1.386 . S
C1 C5 1.397 . S
C2 C0 1.397 . S
C2 C3 1.384 . S
C2 H25 0.930 . S
C3 C2 1.384 . S
C3 C4 1.377 . S
C3 C6 1.481 . S
C4 C3 1.377 . S
C4 C5 1.389 . S
C4 H26 0.929 . S
C5 C1 1.397 . S
C5 C4 1.389 . S
C5 H27 0.931 . S
C6 C3 1.481 . S
C6 C7 1.387 . S
C6 C11 1.390 . S
C7 C6 1.387 . S
C7 C8 1.401 . S
C7 H28 0.930 . S
C8 C7 1.401 . S
C8 C9 1.376 . S
C8 C17 1.511 . S
C9 C8 1.376 . S
C9 C10 1.392 . S
C9 H30 0.931 . S
C10 C9 1.392 . S
C10 C11 1.361 . S
C10 C12 1.500 . S
C11 C6 1.390 . S
C11 C10 1.361 . S
C11 H29 0.931 . S
C12 C10 1.500 . S
C12 C13 1.371 . S
C12 C14 1.365 . S
C13 C12 1.371 . S
C13 C23 1.386 . S
C13 H31 0.931 . S
C14 C12 1.365 . S
C14 C15 1.409 . S
C14 H32 0.929 . S
C15 C14 1.409 . S
C15 C16 1.380 . S
C15 H33 0.930 . S
C16 C15 1.380 . S
C16 C23 1.357 . S
C17 C8 1.511 . S
C17 C18 1.341 . S
C17 C19 1.371 . S
C18 C17 1.341 . S
C18 C22 1.394 . S
C18 H34 0.930 . S
C19 C17 1.371 . S
C19 C20 1.392 . S
C19 H35 0.931 . S
C20 C19 1.392 . S
C20 C21 1.331 . S
C20 H38 0.932 . S
C21 C20 1.331 . S
C21 C22 1.336 . S
C22 C18 1.394 . S
C22 C21 1.336 . S
C22 H37 0.929 . S
C23 C13 1.386 . S
C23 C16 1.357 . S
C23 H36 0.928 . S
H24 C0 0.931 . S
H25 C2 0.930 . S
H26 C4 0.929 . S
H27 C5 0.931 . S
H28 C7 0.930 . S
H29 C11 0.931 . S
H30 C9 0.931 . S
H31 C13 0.931 . S
H32 C14 0.929 . S
H33 C15 0.930 . S
H34 C18 0.930 . S
H35 C19 0.931 . S
H36 C23 0.928 . S
H37 C22 0.929 . S
H38 C20 0.932 . S
C39 C40 1.394 . S
C39 C41 1.397 . S
C39 H63 0.931 . S
C40 C39 1.394 . S
C40 C44 1.389 1_655 S
C41 C39 1.397 . S
C41 C42 1.389 . S
C41 H64 0.930 . S
C42 C41 1.389 . S
C42 C43 1.373 1_655 S
C42 C45 1.480 . S
C43 C42 1.373 1_455 S
C43 C44 1.389 . S
C43 H65 0.929 . S
C44 C40 1.389 1_455 S
C44 C43 1.389 . S
C44 H66 0.931 . S
C45 C42 1.480 . S
C45 C46 1.388 . S
C45 C50 1.390 . S
C46 C45 1.388 . S
C46 C47 1.402 . S
C46 H67 0.930 . S
C47 C46 1.402 . S
C47 C48 1.376 . S
C47 C56 1.513 . S
C48 C47 1.376 . S
C48 C49 1.392 . S
C48 H69 0.934 . S
C49 C48 1.392 . S
C49 C50 1.361 . S
C49 C51 1.499 1_655 S
C50 C45 1.390 . S
C50 C49 1.361 . S
C50 H68 0.931 . S
C51 C49 1.499 1_455 S
C51 C52 1.362 1_455 S
C51 C53 1.375 . S
C52 C51 1.362 1_655 S
C52 C62 1.386 . S
C52 H70 0.931 . S
C53 C51 1.375 . S
C53 C54 1.409 . S
C53 H71 0.929 . S
C54 C53 1.409 . S
C54 C55 1.379 . S
C54 H72 0.930 . S
C55 C54 1.379 . S
C55 C62 1.358 1_455 S
C56 C47 1.513 . S
C56 C57 1.341 . S
C56 C58 1.371 1_655 S
C57 C56 1.341 . S
C57 C61 1.394 . S
C57 H73 0.930 . S
C58 C56 1.371 1_455 S
C58 C59 1.392 . S
C58 H74 0.931 . S
C59 C58 1.392 . S
C59 C60 1.322 1_455 S
C59 H77 0.932 . S
C60 C59 1.322 1_655 S
C60 C61 1.345 . S
C61 C57 1.394 . S
C61 C60 1.345 . S
C61 H76 0.929 . S
C62 C52 1.386 . S
C62 C55 1.358 1_655 S
C62 H75 0.928 . S
H63 C39 0.931 . S
H64 C41 0.930 . S
H65 C43 0.929 . S
H66 C44 0.931 . S
H67 C46 0.930 . S
H68 C50 0.931 . S
H69 C48 0.934 . S
H70 C52 0.931 . S
H71 C53 0.929 . S
H72 C54 0.930 . S
H73 C57 0.930 . S
H74 C58 0.931 . S
H75 C62 0.928 . S
H76 C61 0.929 . S
H77 C59 0.932 . S
C78 C79 1.394 . S
C78 C80 1.397 . S
C78 H102 0.931 . S
C79 C78 1.394 . S
C79 C83 1.389 1_565 S
C80 C78 1.397 . S
C80 C81 1.389 . S
C80 H103 0.930 . S
C81 C80 1.389 . S
C81 C82 1.373 1_565 S
C81 C84 1.481 . S
C82 C81 1.373 1_545 S
C82 C83 1.389 . S
C82 H104 0.929 . S
C83 C79 1.389 1_545 S
C83 C82 1.389 . S
C83 H105 0.931 . S
C84 C81 1.481 . S
C84 C85 1.389 . S
C84 C89 1.390 . S
C85 C84 1.389 . S
C85 C86 1.403 . S
C85 H106 0.930 . S
C86 C85 1.403 . S
C86 C87 1.376 . S
C86 C95 1.513 . S
C87 C86 1.376 . S
C87 C88 1.391 . S
C87 H108 0.934 . S
C88 C87 1.391 . S
C88 C89 1.361 . S
C88 C90 1.499 1_565 S
C89 C84 1.390 . S
C89 C88 1.361 . S
C89 H107 0.931 . S
C90 C88 1.499 1_545 S
C90 C91 1.362 1_545 S
C90 C92 1.375 . S
C91 C90 1.362 1_565 S
C91 C101 1.386 . S
C91 H109 0.931 . S
C92 C90 1.375 . S
C92 C93 1.409 . S
C92 H110 0.929 . S
C93 C92 1.409 . S
C93 C94 1.379 . S
C93 H111 0.930 . S
C94 C93 1.379 . S
C94 C101 1.358 1_545 S
C95 C86 1.513 . S
C95 C96 1.341 . S
C95 C97 1.371 1_565 S
C96 C95 1.341 . S
C96 C100 1.394 . S
C96 H112 0.930 . S
C97 C95 1.371 1_545 S
C97 C98 1.392 . S
C97 H113 0.931 . S
C98 C97 1.392 . S
C98 C99 1.322 1_545 S
C98 H116 0.932 . S
C99 C98 1.322 1_565 S
C99 C100 1.345 . S
C100 C96 1.394 . S
C100 C99 1.345 . S
C100 H115 0.929 . S
C101 C91 1.386 . S
C101 C94 1.358 1_565 S
C101 H114 0.928 . S
H102 C78 0.931 . S
H103 C80 0.930 . S
H104 C82 0.929 . S
H105 C83 0.931 . S
H106 C85 0.930 . S
H107 C89 0.931 . S
H108 C87 0.934 . S
H109 C91 0.931 . S
H110 C92 0.929 . S
H111 C93 0.930 . S
H112 C96 0.930 . S
H113 C97 0.931 . S
H114 C101 0.928 . S
H115 C100 0.929 . S
H116 C98 0.932 . S
C117 C118 1.386 . S
C117 C119 1.397 . S
C117 H141 0.931 . S
C118 C117 1.386 . S
C118 C122 1.397 . S
C119 C117 1.397 . S
C119 C120 1.384 . S
C119 H142 0.930 . S
C120 C119 1.384 . S
C120 C121 1.377 . S
C120 C123 1.481 . S
C121 C120 1.377 . S
C121 C122 1.389 . S
C121 H143 0.929 . S
C122 C118 1.397 . S
C122 C121 1.389 . S
C122 H144 0.931 . S
C123 C120 1.481 . S
C123 C124 1.387 . S
C123 C128 1.390 . S
C124 C123 1.387 . S
C124 C125 1.401 . S
C124 H145 0.930 . S
C125 C124 1.401 . S
C125 C126 1.376 . S
C125 C134 1.511 . S
C126 C125 1.376 . S
C126 C127 1.392 . S
C126 H147 0.931 . S
C127 C126 1.392 . S
C127 C128 1.361 . S
C127 C129 1.500 . S
C128 C123 1.390 . S
C128 C127 1.361 . S
C128 H146 0.931 . S
C129 C127 1.500 . S
C129 C130 1.371 . S
C129 C131 1.365 . S
C130 C129 1.371 . S
C130 C140 1.386 . S
C130 H148 0.931 . S
C131 C129 1.365 . S
C131 C132 1.409 . S
C131 H149 0.929 . S
C132 C131 1.409 . S
C132 C133 1.380 . S
C132 H150 0.930 . S
C133 C132 1.380 . S
C133 C140 1.357 . S
C134 C125 1.511 . S
C134 C135 1.341 . S
C134 C136 1.371 . S
C135 C134 1.341 . S
C135 C139 1.394 . S
C135 H151 0.930 . S
C136 C134 1.371 . S
C136 C137 1.392 . S
C136 H152 0.931 . S
C137 C136 1.392 . S
C137 C138 1.331 . S
C137 H155 0.932 . S
C138 C137 1.331 . S
C138 C139 1.336 . S
C139 C135 1.394 . S
C139 C138 1.336 . S
C139 H154 0.929 . S
C140 C130 1.386 . S
C140 C133 1.357 . S
C140 H153 0.928 . S
H141 C117 0.931 . S
H142 C119 0.930 . S
H143 C121 0.929 . S
H144 C122 0.931 . S
H145 C124 0.930 . S
H146 C128 0.931 . S
H147 C126 0.931 . S
H148 C130 0.931 . S
H149 C131 0.929 . S
H150 C132 0.930 . S
H151 C135 0.930 . S
H152 C136 0.931 . S
H153 C140 0.928 . S
H154 C139 0.929 . S
H155 C137 0.932 . S
C156 C157 1.386 . S
C156 C158 1.397 . S
C156 H180 0.931 . S
C157 C156 1.386 . S
C157 C161 1.397 . S
C158 C156 1.397 . S
C158 C159 1.384 . S
C158 H181 0.930 . S
C159 C158 1.384 . S
C159 C160 1.377 . S
C159 C162 1.481 . S
C160 C159 1.377 . S
C160 C161 1.389 . S
C160 H182 0.929 . S
C161 C157 1.397 . S
C161 C160 1.389 . S
C161 H183 0.931 . S
C162 C159 1.481 . S
C162 C163 1.387 . S
C162 C167 1.390 . S
C163 C162 1.387 . S
C163 C164 1.401 . S
C163 H184 0.930 . S
C164 C163 1.401 . S
C164 C165 1.376 1_554 S
C164 C173 1.511 . S
C165 C164 1.376 1_556 S
C165 C166 1.392 . S
C165 H186 0.931 . S
C166 C165 1.392 . S
C166 C167 1.361 1_556 S
C166 C168 1.500 . S
C167 C162 1.390 . S
C167 C166 1.361 1_554 S
C167 H185 0.931 . S
C168 C166 1.500 . S
C168 C169 1.371 . S
C168 C170 1.365 . S
C169 C168 1.371 . S
C169 C179 1.386 . S
C169 H187 0.931 . S
C170 C168 1.365 . S
C170 C171 1.409 . S
C170 H188 0.929 . S
C171 C170 1.409 . S
C171 C172 1.380 . S
C171 H189 0.930 . S
C172 C171 1.380 . S
C172 C179 1.357 . S
C173 C164 1.511 . S
C173 C174 1.341 . S
C173 C175 1.371 . S
C174 C173 1.341 . S
C174 C178 1.394 . S
C174 H190 0.930 . S
C175 C173 1.371 . S
C175 C176 1.392 . S
C175 H191 0.931 1_554 S
C176 C175 1.392 . S
C176 C177 1.331 . S
C176 H194 0.932 . S
C177 C176 1.331 . S
C177 C178 1.336 . S
C178 C174 1.394 . S
C178 C177 1.336 . S
C178 H193 0.929 . S
C179 C169 1.386 . S
C179 C172 1.357 . S
C179 H192 0.928 . S
H180 C156 0.931 . S
H181 C158 0.930 . S
H182 C160 0.929 . S
H183 C161 0.931 . S
H184 C163 0.930 . S
H185 C167 0.931 . S
H186 C165 0.931 . S
H187 C169 0.931 . S
H188 C170 0.929 . S
H189 C171 0.930 . S
H190 C174 0.930 . S
H191 C175 0.931 1_556 S
H192 C179 0.928 . S
H193 C178 0.929 . S
H194 C176 0.932 . S
C195 C196 1.388 . S
C195 C197 1.397 . S
C195 H219 0.931 . S
C196 C195 1.388 . S
C196 C200 1.395 1_655 S
C197 C195 1.397 . S
C197 C198 1.382 . S
C197 H220 0.930 . S
C198 C197 1.382 . S
C198 C199 1.379 1_655 S
C198 C201 1.480 . S
C199 C198 1.379 1_455 S
C199 C200 1.389 . S
C199 H221 0.929 . S
C200 C196 1.395 1_455 S
C200 C199 1.389 . S
C200 H222 0.931 . S
C201 C198 1.480 . S
C201 C202 1.388 . S
C201 C206 1.390 . S
C202 C201 1.388 . S
C202 C203 1.402 . S
C202 H223 0.930 . S
C203 C202 1.402 . S
C203 C204 1.376 1_554 S
C203 C212 1.512 . S
C204 C203 1.376 1_556 S
C204 C205 1.392 1_655 S
C204 H225 0.933 . S
C205 C204 1.392 1_455 S
C205 C206 1.361 1_456 S
C205 C207 1.499 . S
C206 C201 1.390 . S
C206 C205 1.361 1_654 S
C206 H224 0.931 . S
C207 C205 1.499 . S
C207 C208 1.357 1_455 S
C207 C209 1.380 . S
C208 C207 1.357 1_655 S
C208 C218 1.386 . S
C208 H226 0.931 . S
C209 C207 1.380 . S
C209 C210 1.409 . S
C209 H227 0.929 . S
C210 C209 1.409 . S
C210 C211 1.384 . S
C210 H228 0.930 . S
C211 C210 1.384 . S
C211 C218 1.353 1_455 S
C212 C203 1.512 . S
C212 C213 1.341 . S
C212 C214 1.371 1_655 S
C213 C212 1.341 . S
C213 C217 1.394 . S
C213 H229 0.930 . S
C214 C212 1.371 1_455 S
C214 C215 1.392 . S
C214 H230 0.931 1_554 S
C215 C214 1.392 . S
C215 C216 1.325 1_455 S
C215 H233 0.932 . S
C216 C215 1.325 1_655 S
C216 C217 1.342 . S
C217 C213 1.394 . S
C217 C216 1.342 . S
C217 H232 0.929 . S
C218 C208 1.386 . S
C218 C211 1.353 1_655 S
C218 H231 0.928 . S
H219 C195 0.931 . S
H220 C197 0.930 . S
H221 C199 0.929 . S
H222 C200 0.931 . S
H223 C202 0.930 . S
H224 C206 0.931 . S
H225 C204 0.933 . S
H226 C208 0.931 . S
H227 C209 0.929 . S
H228 C210 0.930 . S
H229 C213 0.930 . S
H230 C214 0.931 1_556 S
H231 C218 0.928 . S
H232 C217 0.929 . S
H233 C215 0.932 . S
C234 C235 1.388 . S
C234 C236 1.397 . S
C234 H258 0.931 . S
C235 C234 1.388 . S
C235 C239 1.395 1_565 S
C236 C234 1.397 . S
C236 C237 1.382 . S
C236 H259 0.930 . S
C237 C236 1.382 . S
C237 C238 1.379 1_565 S
C237 C240 1.480 . S
C238 C237 1.379 1_545 S
C238 C239 1.389 . S
C238 H260 0.929 . S
C239 C235 1.395 1_545 S
C239 C238 1.389 . S
C239 H261 0.931 . S
C240 C237 1.480 . S
C240 C241 1.388 . S
C240 C245 1.390 . S
C241 C240 1.388 . S
C241 C242 1.402 . S
C241 H262 0.930 . S
C242 C241 1.402 . S
C242 C243 1.376 1_554 S
C242 C251 1.512 . S
C243 C242 1.376 1_556 S
C243 C244 1.392 1_565 S
C243 H264 0.934 . S
C244 C243 1.392 1_545 S
C244 C245 1.361 1_546 S
C244 C246 1.499 . S
C245 C240 1.390 . S
C245 C244 1.361 1_564 S
C245 H263 0.931 . S
C246 C244 1.499 . S
C246 C247 1.357 1_545 S
C246 C248 1.380 . S
C247 C246 1.357 1_565 S
C247 C257 1.386 . S
C247 H265 0.931 . S
C248 C246 1.380 . S
C248 C249 1.409 . S
C248 H266 0.929 . S
C249 C248 1.409 . S
C249 C250 1.384 . S
C249 H267 0.930 . S
C250 C249 1.384 . S
C250 C257 1.353 1_545 S
C251 C242 1.512 . S
C251 C252 1.341 . S
C251 C253 1.371 1_565 S
C252 C251 1.341 . S
C252 C256 1.394 . S
C252 H268 0.930 . S
C253 C251 1.371 1_545 S
C253 C254 1.392 . S
C253 H269 0.931 1_554 S
C254 C253 1.392 . S
C254 C255 1.325 1_545 S
C254 H272 0.932 . S
C255 C254 1.325 1_565 S
C255 C256 1.342 . S
C256 C252 1.394 . S
C256 C255 1.342 . S
C256 H271 0.929 . S
C257 C247 1.386 . S
C257 C250 1.353 1_565 S
C257 H270 0.928 . S
H258 C234 0.931 . S
H259 C236 0.930 . S
H260 C238 0.929 . S
H261 C239 0.931 . S
H262 C241 0.930 . S
H263 C245 0.931 . S
H264 C243 0.934 . S
H265 C247 0.931 . S
H266 C248 0.929 . S
H267 C249 0.930 . S
H268 C252 0.930 . S
H269 C253 0.931 1_556 S
H270 C257 0.928 . S
H271 C256 0.929 . S
H272 C254 0.932 . S
C273 C274 1.386 . S
C273 C275 1.397 . S
C273 H297 0.931 . S
C274 C273 1.386 . S
C274 C278 1.397 . S
C275 C273 1.397 . S
C275 C276 1.384 . S
C275 H298 0.930 . S
C276 C275 1.384 . S
C276 C277 1.377 . S
C276 C279 1.481 . S
C277 C276 1.377 . S
C277 C278 1.389 . S
C277 H299 0.929 . S
C278 C274 1.397 . S
C278 C277 1.389 . S
C278 H300 0.931 . S
C279 C276 1.481 . S
C279 C280 1.387 . S
C279 C284 1.390 1_556 S
C280 C279 1.387 . S
C280 C281 1.401 1_556 S
C280 H301 0.930 . S
C281 C280 1.401 1_554 S
C281 C282 1.376 . S
C281 C290 1.511 . S
C282 C281 1.376 . S
C282 C283 1.392 . S
C282 H303 0.931 . S
C283 C282 1.392 . S
C283 C284 1.361 . S
C283 C285 1.500 . S
C284 C279 1.390 1_554 S
C284 C283 1.361 . S
C284 H302 0.931 . S
C285 C283 1.500 . S
C285 C286 1.371 . S
C285 C287 1.365 . S
C286 C285 1.371 . S
C286 C296 1.386 . S
C286 H304 0.931 . S
C287 C285 1.365 . S
C287 C288 1.409 . S
C287 H305 0.929 . S
C288 C287 1.409 . S
C288 C289 1.380 . S
C288 H306 0.930 . S
C289 C288 1.380 . S
C289 C296 1.357 . S
C290 C281 1.511 . S
C290 C291 1.341 . S
C290 C292 1.371 . S
C291 C290 1.341 . S
C291 C295 1.394 . S
C291 H307 0.930 1_554 S
C292 C290 1.371 . S
C292 C293 1.392 . S
C292 H308 0.931 . S
C293 C292 1.392 . S
C293 C294 1.331 . S
C293 H311 0.932 . S
C294 C293 1.331 . S
C294 C295 1.336 . S
C295 C291 1.394 . S
C295 C294 1.336 . S
C295 H310 0.929 . S
C296 C286 1.386 . S
C296 C289 1.357 . S
C296 H309 0.928 . S
H297 C273 0.931 . S
H298 C275 0.930 . S
H299 C277 0.929 . S
H300 C278 0.931 . S
H301 C280 0.930 . S
H302 C284 0.931 . S
H303 C282 0.931 . S
H304 C286 0.931 . S
H305 C287 0.929 . S
H306 C288 0.930 . S
H307 C291 0.930 1_556 S
H308 C292 0.931 . S
H309 C296 0.928 . S
H310 C295 0.929 . S
H311 C293 0.932 . S
Tb312 C314 2.809 . S
Tb312 O332 2.484 . S
Tb312 O333 2.440 . S
Tb312 O334 2.658 1_565 S
Tb312 O335 2.409 . S
Tb312 O336 2.378 . S
Tb312 O340 2.325 1_455 S
Tb312 O343 2.341 1_565 S
Tb313 C323 2.809 . S
Tb313 O334 2.325 1_655 S
Tb313 O337 2.341 1_545 S
Tb313 O338 2.484 . S
Tb313 O339 2.440 . S
Tb313 O340 2.658 1_545 S
Tb313 O341 2.409 . S
Tb313 O342 2.378 . S
C314 Tb312 2.809 . S
C314 C315 1.514 . S
C314 O332 1.248 . S
C314 O333 1.266 . S
C315 C314 1.514 . S
C315 C316 1.359 . S
C315 C320 1.348 . S
C316 C315 1.359 . S
C316 C317 1.380 . S
C316 H344 0.929 1_455 S
C317 C316 1.380 . S
C317 C318 1.347 . S
C317 H345 0.931 1_456 S
C318 C317 1.347 . S
C318 C319 1.369 . S
C319 C318 1.369 . S
C319 C320 1.408 . S
C319 H346 0.930 . S
C320 C315 1.348 . S
C320 C319 1.408 . S
C320 H347 0.930 . S
C321 O334 1.281 1_565 S
C321 O335 1.254 . S
C322 O336 1.236 1_655 S
C322 O337 1.266 . S
C323 Tb313 2.809 . S
C323 C324 1.514 . S
C323 O338 1.248 . S
C323 O339 1.266 . S
C324 C323 1.514 . S
C324 C325 1.359 . S
C324 C329 1.348 . S
C325 C324 1.359 . S
C325 C326 1.380 . S
C325 H348 0.929 1_655 S
C326 C325 1.380 . S
C326 C327 1.347 . S
C326 H349 0.931 1_655 S
C327 C326 1.347 . S
C327 C328 1.369 . S
C328 C327 1.369 . S
C328 C329 1.408 . S
C328 H350 0.930 . S
C329 C324 1.348 . S
C329 C328 1.408 . S
C329 H351 0.930 . S
C330 O340 1.281 1_545 S
C330 O341 1.254 . S
C331 O342 1.236 1_455 S
C331 O343 1.266 . S
O332 Tb312 2.484 . S
O332 C314 1.248 . S
O333 Tb312 2.440 . S
O333 C314 1.266 . S
O334 Tb312 2.658 1_545 S
O334 Tb313 2.325 1_455 S
O334 C321 1.281 1_545 S
O335 Tb312 2.409 . S
O335 C321 1.254 . S
O336 Tb312 2.378 . S
O336 C322 1.236 1_455 S
O337 Tb313 2.341 1_565 S
O337 C322 1.266 . S
O338 Tb313 2.484 . S
O338 C323 1.248 . S
O339 Tb313 2.440 . S
O339 C323 1.266 . S
O340 Tb312 2.325 1_655 S
O340 Tb313 2.658 1_565 S
O340 C330 1.281 1_565 S
O341 Tb313 2.409 . S
O341 C330 1.254 . S
O342 Tb313 2.378 . S
O342 C331 1.236 1_655 S
O343 Tb312 2.341 1_545 S
O343 C331 1.266 . S
H344 C316 0.929 1_655 S
H345 C317 0.931 1_654 S
H346 C319 0.930 . S
H347 C320 0.930 . S
H348 C325 0.929 1_455 S
H349 C326 0.931 1_455 S
H350 C328 0.930 . S
H351 C329 0.930 . S
Tb352 C354 2.809 . S
Tb352 O372 2.484 . S
Tb352 O373 2.440 . S
Tb352 O374 2.658 . S
Tb352 O375 2.409 . S
Tb352 O376 2.378 . S
Tb352 O380 2.325 1_545 S
Tb352 O383 2.341 . S
Tb353 C363 2.809 . S
Tb353 O374 2.325 1_565 S
Tb353 O377 2.341 . S
Tb353 O378 2.484 . S
Tb353 O379 2.440 . S
Tb353 O380 2.658 . S
Tb353 O381 2.409 . S
Tb353 O382 2.378 . S
C354 Tb352 2.809 . S
C354 C355 1.514 . S
C354 O372 1.248 . S
C354 O373 1.266 . S
C355 C354 1.514 . S
C355 C356 1.359 . S
C355 C360 1.348 . S
C356 C355 1.359 . S
C356 C357 1.380 . S
C356 H384 0.929 1_545 S
C357 C356 1.380 . S
C357 C358 1.347 . S
C357 H385 0.931 1_546 S
C358 C357 1.347 . S
C358 C359 1.369 . S
C359 C358 1.369 . S
C359 C360 1.408 . S
C359 H386 0.930 . S
C360 C355 1.348 . S
C360 C359 1.408 . S
C360 H387 0.930 . S
C361 O374 1.281 . S
C361 O375 1.254 . S
C362 O376 1.236 1_565 S
C362 O377 1.266 . S
C363 Tb353 2.809 . S
C363 C364 1.514 . S
C363 O378 1.248 . S
C363 O379 1.266 . S
C364 C363 1.514 . S
C364 C365 1.359 . S
C364 C369 1.348 . S
C365 C364 1.359 . S
C365 C366 1.380 . S
C365 H388 0.929 1_565 S
C366 C365 1.380 . S
C366 C367 1.347 . S
C366 H389 0.931 1_565 S
C367 C366 1.347 . S
C367 C368 1.369 . S
C368 C367 1.369 . S
C368 C369 1.408 . S
C368 H390 0.930 . S
C369 C364 1.348 . S
C369 C368 1.408 . S
C369 H391 0.930 . S
C370 O380 1.281 . S
C370 O381 1.254 . S
C371 O382 1.236 1_545 S
C371 O383 1.266 . S
O372 Tb352 2.484 . S
O372 C354 1.248 . S
O373 Tb352 2.440 . S
O373 C354 1.266 . S
O374 Tb352 2.658 . S
O374 Tb353 2.325 1_545 S
O374 C361 1.281 . S
O375 Tb352 2.409 . S
O375 C361 1.254 . S
O376 Tb352 2.378 . S
O376 C362 1.236 1_545 S
O377 Tb353 2.341 . S
O377 C362 1.266 . S
O378 Tb353 2.484 . S
O378 C363 1.248 . S
O379 Tb353 2.440 . S
O379 C363 1.266 . S
O380 Tb352 2.325 1_565 S
O380 Tb353 2.658 . S
O380 C370 1.281 . S
O381 Tb353 2.409 . S
O381 C370 1.254 . S
O382 Tb353 2.378 . S
O382 C371 1.236 1_565 S
O383 Tb352 2.341 . S
O383 C371 1.266 . S
H384 C356 0.929 1_565 S
H385 C357 0.931 1_564 S
H386 C359 0.930 . S
H387 C360 0.930 . S
H388 C365 0.929 1_545 S
H389 C366 0.931 1_545 S
H390 C368 0.930 . S
H391 C369 0.930 . S
Tb392 C394 2.809 . S
Tb392 O412 2.484 . S
Tb392 O413 2.440 . S
Tb392 O414 2.658 . S
Tb392 O415 2.409 . S
Tb392 O416 2.378 . S
Tb392 O420 2.325 . S
Tb392 O423 2.341 . S
Tb393 C403 2.809 . S
Tb393 O414 2.325 . S
Tb393 O417 2.341 . S
Tb393 O418 2.484 . S
Tb393 O419 2.440 . S
Tb393 O420 2.658 . S
Tb393 O421 2.409 . S
Tb393 O422 2.378 . S
C394 Tb392 2.809 . S
C394 C395 1.514 . S
C394 O412 1.248 . S
C394 O413 1.266 . S
C395 C394 1.514 . S
C395 C396 1.359 . S
C395 C400 1.348 . S
C396 C395 1.359 . S
C396 C397 1.380 . S
C396 H424 0.929 . S
C397 C396 1.380 . S
C397 C398 1.347 . S
C397 H425 0.931 1_556 S
C398 C397 1.347 . S
C398 C399 1.369 . S
C399 C398 1.369 . S
C399 C400 1.408 . S
C399 H426 0.930 . S
C400 C395 1.348 . S
C400 C399 1.408 . S
C400 H427 0.930 . S
C401 O414 1.281 . S
C401 O415 1.254 . S
C402 O416 1.236 . S
C402 O417 1.266 . S
C403 Tb393 2.809 . S
C403 C404 1.514 . S
C403 O418 1.248 . S
C403 O419 1.266 . S
C404 C403 1.514 . S
C404 C405 1.359 . S
C404 C409 1.348 . S
C405 C404 1.359 . S
C405 C406 1.380 . S
C405 H428 0.929 . S
C406 C405 1.380 . S
C406 C407 1.347 . S
C406 H429 0.931 . S
C407 C406 1.347 . S
C407 C408 1.369 . S
C408 C407 1.369 . S
C408 C409 1.408 . S
C408 H430 0.930 . S
C409 C404 1.348 . S
C409 C408 1.408 . S
C409 H431 0.930 . S
C410 O420 1.281 . S
C410 O421 1.254 . S
C411 O422 1.236 . S
C411 O423 1.266 . S
O412 Tb392 2.484 . S
O412 C394 1.248 . S
O413 Tb392 2.440 . S
O413 C394 1.266 . S
O414 Tb392 2.658 . S
O414 Tb393 2.325 . S
O414 C401 1.281 . S
O415 Tb392 2.409 . S
O415 C401 1.254 . S
O416 Tb392 2.378 . S
O416 C402 1.236 . S
O417 Tb393 2.341 . S
O417 C402 1.266 . S
O418 Tb393 2.484 . S
O418 C403 1.248 . S
O419 Tb393 2.440 . S
O419 C403 1.266 . S
O420 Tb392 2.325 . S
O420 Tb393 2.658 . S
O420 C410 1.281 . S
O421 Tb393 2.409 . S
O421 C410 1.254 . S
O422 Tb393 2.378 . S
O422 C411 1.236 . S
O423 Tb392 2.341 . S
O423 C411 1.266 . S
H424 C396 0.929 . S
H425 C397 0.931 1_554 S
H426 C399 0.930 . S
H427 C400 0.930 . S
H428 C405 0.929 . S
H429 C406 0.931 . S
H430 C408 0.930 . S
H431 C409 0.930 . S
Tb432 C434 2.809 . S
Tb432 O452 2.484 . S
Tb432 O453 2.440 . S
Tb432 O454 2.658 1_655 S
Tb432 O455 2.409 . S
Tb432 O456 2.378 . S
Tb432 O460 2.325 . S
Tb432 O463 2.341 1_655 S
Tb433 C443 2.809 . S
Tb433 O454 2.325 . S
Tb433 O457 2.341 1_455 S
Tb433 O458 2.484 . S
Tb433 O459 2.440 . S
Tb433 O460 2.658 1_455 S
Tb433 O461 2.409 . S
Tb433 O462 2.378 . S
C434 Tb432 2.809 . S
C434 C435 1.514 . S
C434 O452 1.248 . S
C434 O453 1.266 . S
C435 C434 1.514 . S
C435 C436 1.359 . S
C435 C440 1.348 . S
C436 C435 1.359 . S
C436 C437 1.380 . S
C436 H464 0.929 . S
C437 C436 1.380 . S
C437 C438 1.347 . S
C437 H465 0.931 1_556 S
C438 C437 1.347 . S
C438 C439 1.369 . S
C439 C438 1.369 . S
C439 C440 1.408 . S
C439 H466 0.930 . S
C440 C435 1.348 . S
C440 C439 1.408 . S
C440 H467 0.930 . S
C441 O454 1.278 1_655 S
C441 O455 1.258 . S
C442 O456 1.236 . S
C442 O457 1.266 . S
C443 Tb433 2.809 . S
C443 C444 1.514 . S
C443 O458 1.248 . S
C443 O459 1.266 . S
C444 C443 1.514 . S
C444 C445 1.359 . S
C444 C449 1.348 . S
C445 C444 1.359 . S
C445 C446 1.380 . S
C445 H468 0.929 . S
C446 C445 1.380 . S
C446 C447 1.347 . S
C446 H469 0.931 . S
C447 C446 1.347 . S
C447 C448 1.369 . S
C448 C447 1.369 . S
C448 C449 1.408 . S
C448 H470 0.930 . S
C449 C444 1.348 . S
C449 C448 1.408 . S
C449 H471 0.930 . S
C450 O460 1.275 1_455 S
C450 O461 1.262 . S
C451 O462 1.236 . S
C451 O463 1.266 . S
O452 Tb432 2.484 . S
O452 C434 1.248 . S
O453 Tb432 2.440 . S
O453 C434 1.266 . S
O454 Tb432 2.658 1_455 S
O454 Tb433 2.325 . S
O454 C441 1.278 1_455 S
O455 Tb432 2.409 . S
O455 C441 1.258 . S
O456 Tb432 2.378 . S
O456 C442 1.236 . S
O457 Tb433 2.341 1_655 S
O457 C442 1.266 . S
O458 Tb433 2.484 . S
O458 C443 1.248 . S
O459 Tb433 2.440 . S
O459 C443 1.266 . S
O460 Tb432 2.325 . S
O460 Tb433 2.658 1_655 S
O460 C450 1.275 1_655 S
O461 Tb433 2.409 . S
O461 C450 1.262 . S
O462 Tb433 2.378 . S
O462 C451 1.236 . S
O463 Tb432 2.341 1_455 S
O463 C451 1.266 . S
H464 C436 0.929 . S
H465 C437 0.931 1_554 S
H466 C439 0.930 . S
H467 C440 0.930 . S
H468 C445 0.929 . S
H469 C446 0.931 . S
H470 C448 0.930 . S
H471 C449 0.930 . S
H472 C478 0.930 . S
H473 C481 0.930 . S
H474 C482 0.930 . S
H475 C483 0.930 . S
H476 C486 0.930 . S
H477 C487 0.930 . S
C478 H472 0.930 . S
C478 C479 1.355 1_565 S
C478 C480 1.415 . S
C479 C478 1.355 1_545 S
C479 C481 1.419 . S
C480 C478 1.415 . S
C480 C485 1.425 1_565 S
C480 C487 1.409 . S
C481 H473 0.930 . S
C481 C479 1.419 . S
C481 C482 1.362 . S
C482 H474 0.930 . S
C482 C481 1.362 . S
C482 C485 1.409 . S
C483 H475 0.930 . S
C483 C484 1.329 1_545 S
C483 C485 1.415 . S
C484 C483 1.329 1_565 S
C484 C486 1.453 . S
C485 C480 1.425 1_545 S
C485 C482 1.409 . S
C485 C483 1.415 . S
C486 H476 0.930 . S
C486 C484 1.453 . S
C486 C487 1.362 . S
C487 H477 0.930 . S
C487 C480 1.409 . S
C487 C486 1.362 . S
H488 C494 0.930 . S
H489 C497 0.930 . S
H490 C498 0.930 . S
H491 C499 0.930 . S
H492 C502 0.930 . S
H493 C503 0.930 . S
C494 H488 0.930 . S
C494 C495 1.355 . S
C494 C496 1.415 . S
C495 C494 1.355 . S
C495 C497 1.419 . S
C496 C494 1.415 . S
C496 C501 1.425 . S
C496 C503 1.409 . S
C497 H489 0.930 . S
C497 C495 1.419 . S
C497 C498 1.362 . S
C498 H490 0.930 . S
C498 C497 1.362 . S
C498 C501 1.409 . S
C499 H491 0.930 . S
C499 C500 1.355 . S
C499 C501 1.415 . S
C500 C499 1.355 . S
C500 C502 1.419 . S
C501 C496 1.425 . S
C501 C498 1.409 . S
C501 C499 1.415 . S
C502 H492 0.930 . S
C502 C500 1.419 . S
C502 C503 1.362 . S
C503 H493 0.930 . S
C503 C496 1.409 . S
C503 C502 1.362 . S
H504 C510 0.930 . S
H505 C513 0.930 . S
H506 C514 0.930 . S
H507 C515 0.930 . S
H508 C518 0.930 . S
H509 C519 0.930 . S
C510 H504 0.930 . S
C510 C511 1.355 . S
C510 C512 1.415 . S
C511 C510 1.355 . S
C511 C513 1.419 . S
C512 C510 1.415 . S
C512 C517 1.425 . S
C512 C519 1.409 . S
C513 H505 0.930 . S
C513 C511 1.419 . S
C513 C514 1.362 . S
C514 H506 0.930 . S
C514 C513 1.362 . S
C514 C517 1.409 . S
C515 H507 0.930 . S
C515 C516 1.355 . S
C515 C517 1.415 . S
C516 C515 1.355 . S
C516 C518 1.419 . S
C517 C512 1.425 . S
C517 C514 1.409 . S
C517 C515 1.415 . S
C518 H508 0.930 . S
C518 C516 1.419 . S
C518 C519 1.362 . S
C519 H509 0.930 . S
C519 C512 1.409 . S
C519 C518 1.362 . S
H520 C526 0.930 . S
H521 C529 0.930 . S
H522 C530 0.930 . S
H523 C531 0.930 . S
H524 C534 0.930 . S
H525 C535 0.930 . S
C526 H520 0.930 . S
C526 C527 1.355 1_655 S
C526 C528 1.415 . S
C527 C526 1.355 1_455 S
C527 C529 1.419 . S
C528 C526 1.415 . S
C528 C533 1.425 1_655 S
C528 C535 1.409 . S
C529 H521 0.930 . S
C529 C527 1.419 . S
C529 C530 1.362 . S
C530 H522 0.930 . S
C530 C529 1.362 . S
C530 C533 1.409 . S
C531 H523 0.930 . S
C531 C532 1.354 . S
C531 C533 1.415 . S
C532 C531 1.354 . S
C532 C534 1.420 1_455 S
C533 C528 1.425 1_455 S
C533 C530 1.409 . S
C533 C531 1.415 . S
C534 H524 0.930 . S
C534 C532 1.420 1_655 S
C534 C535 1.362 . S
C535 H525 0.930 . S
C535 C528 1.409 . S
C535 C534 1.362 . S
H536 C542 0.930 . S
H537 C545 0.930 . S
H538 C546 0.930 . S
H539 C547 0.930 . S
H540 C550 0.930 . S
H541 C551 0.930 . S
C542 H536 0.930 . S
C542 C543 1.355 1_565 S
C542 C544 1.415 . S
C543 C542 1.355 1_545 S
C543 C545 1.419 . S
C544 C542 1.415 . S
C544 C549 1.425 1_565 S
C544 C551 1.409 . S
C545 H537 0.930 . S
C545 C543 1.419 . S
C545 C546 1.362 . S
C546 H538 0.930 . S
C546 C545 1.362 . S
C546 C549 1.409 . S
C547 H539 0.930 . S
C547 C548 1.355 1_545 S
C547 C549 1.415 1_556 S
C548 C547 1.355 1_565 S
C548 C550 1.419 . S
C549 C544 1.425 1_545 S
C549 C546 1.409 . S
C549 C547 1.415 1_554 S
C550 H540 0.930 . S
C550 C548 1.419 . S
C550 C551 1.362 1_556 S
C551 H541 0.930 . S
C551 C544 1.409 . S
C551 C550 1.362 1_554 S
H552 C558 0.930 . S
H553 C561 0.930 . S
H554 C562 0.930 . S
H555 C563 0.930 . S
H556 C566 0.930 . S
H557 C567 0.930 . S
C558 H552 0.930 . S
C558 C559 1.355 . S
C558 C560 1.415 . S
C559 C558 1.355 . S
C559 C561 1.419 . S
C560 C558 1.415 . S
C560 C565 1.425 . S
C560 C567 1.409 . S
C561 H553 0.930 . S
C561 C559 1.419 . S
C561 C562 1.362 . S
C562 H554 0.930 . S
C562 C561 1.362 . S
C562 C565 1.409 . S
C563 H555 0.930 . S
C563 C564 1.355 . S
C563 C565 1.415 1_556 S
C564 C563 1.355 . S
C564 C566 1.419 . S
C565 C560 1.425 . S
C565 C562 1.409 . S
C565 C563 1.415 1_554 S
C566 H556 0.930 . S
C566 C564 1.419 . S
C566 C567 1.362 1_556 S
C567 H557 0.930 . S
C567 C560 1.409 . S
C567 C566 1.362 1_554 S
H568 C574 0.930 . S
H569 C577 0.930 . S
H570 C578 0.930 . S
H571 C579 0.930 . S
H572 C582 0.930 . S
H573 C583 0.930 . S
C574 H568 0.930 . S
C574 C575 1.355 . S
C574 C576 1.415 . S
C575 C574 1.355 . S
C575 C577 1.419 . S
C576 C574 1.415 . S
C576 C581 1.425 . S
C576 C583 1.409 . S
C577 H569 0.930 . S
C577 C575 1.419 . S
C577 C578 1.362 . S
C578 H570 0.930 . S
C578 C577 1.362 . S
C578 C581 1.409 . S
C579 H571 0.930 . S
C579 C580 1.355 . S
C579 C581 1.415 1_556 S
C580 C579 1.355 . S
C580 C582 1.419 . S
C581 C576 1.425 . S
C581 C578 1.409 . S
C581 C579 1.415 1_554 S
C582 H572 0.930 . S
C582 C580 1.419 . S
C582 C583 1.362 1_556 S
C583 H573 0.930 . S
C583 C576 1.409 . S
C583 C582 1.362 1_554 S
H584 C590 0.930 . S
H585 C593 0.930 . S
H586 C594 0.930 . S
H587 C595 0.930 . S
H588 C598 0.930 . S
H589 C599 0.930 . S
C590 H584 0.930 . S
C590 C591 1.355 1_655 S
C590 C592 1.415 . S
C591 C590 1.355 1_455 S
C591 C593 1.419 . S
C592 C590 1.415 . S
C592 C597 1.425 1_655 S
C592 C599 1.409 . S
C593 H585 0.930 . S
C593 C591 1.419 . S
C593 C594 1.362 . S
C594 H586 0.930 . S
C594 C593 1.362 . S
C594 C597 1.409 . S
C595 H587 0.930 . S
C595 C596 1.355 1_455 S
C595 C597 1.415 1_556 S
C596 C595 1.355 1_655 S
C596 C598 1.419 . S
C597 C592 1.425 1_455 S
C597 C594 1.409 . S
C597 C595 1.415 1_554 S
C598 H588 0.930 . S
C598 C596 1.419 . S
C598 C599 1.362 1_556 S
C599 H589 0.930 . S
C599 C592 1.409 . S
C599 C598 1.362 1_554 S
H600 C606 0.930 . S
H601 C609 0.930 1_455 S
H602 C610 0.930 . S
H603 C611 0.930 . S
H604 C614 0.930 . S
H605 C615 0.930 . S
C606 H600 0.930 . S
C606 C607 1.355 1_655 S
C606 C608 1.415 . S
C607 C606 1.355 1_455 S
C607 C609 1.419 1_455 S
C608 C606 1.415 . S
C608 C613 1.425 . S
C608 C615 1.409 . S
C609 H601 0.930 1_655 S
C609 C607 1.419 1_655 S
C609 C610 1.362 . S
C610 H602 0.930 . S
C610 C609 1.362 . S
C610 C613 1.409 . S
C611 H603 0.930 . S
C611 C612 1.355 . S
C611 C613 1.415 . S
C612 C611 1.355 . S
C612 C614 1.419 . S
C613 C608 1.425 . S
C613 C610 1.409 . S
C613 C611 1.415 . S
C614 H604 0.930 . S
C614 C612 1.419 . S
C614 C615 1.362 . S
C615 H605 0.930 . S
C615 C608 1.409 . S
C615 C614 1.362 . S
H616 C622 0.930 . S
H617 C625 0.930 . S
H618 C626 0.930 . S
H619 C627 0.930 . S
H620 C630 0.930 . S
H621 C631 0.930 . S
C622 H616 0.930 . S
C622 C623 1.355 1_565 S
C622 C624 1.415 . S
C623 C622 1.355 1_545 S
C623 C625 1.419 . S
C624 C622 1.415 . S
C624 C629 1.425 . S
C624 C631 1.409 . S
C625 H617 0.930 . S
C625 C623 1.419 . S
C625 C626 1.362 . S
C626 H618 0.930 . S
C626 C625 1.362 . S
C626 C629 1.409 1_545 S
C627 H619 0.930 . S
C627 C628 1.355 . S
C627 C629 1.415 . S
C628 C627 1.355 . S
C628 C630 1.419 . S
C629 C624 1.425 . S
C629 C626 1.409 1_565 S
C629 C627 1.415 . S
C630 H620 0.930 . S
C630 C628 1.419 . S
C630 C631 1.362 . S
C631 H621 0.930 . S
C631 C624 1.409 . S
C631 C630 1.362 . S
H632 C638 0.930 . S
H633 C641 0.930 . S
H634 C642 0.930 . S
H635 C643 0.930 . S
H636 C646 0.930 . S
H637 C647 0.930 . S
C638 H632 0.930 . S
C638 C639 1.355 . S
C638 C640 1.415 . S
C639 C638 1.355 . S
C639 C641 1.419 . S
C640 C638 1.415 . S
C640 C645 1.425 . S
C640 C647 1.409 . S
C641 H633 0.930 . S
C641 C639 1.419 . S
C641 C642 1.362 . S
C642 H634 0.930 . S
C642 C641 1.362 . S
C642 C645 1.409 . S
C643 H635 0.930 . S
C643 C644 1.355 . S
C643 C645 1.415 . S
C644 C643 1.355 . S
C644 C646 1.419 . S
C645 C640 1.425 . S
C645 C642 1.409 . S
C645 C643 1.415 . S
C646 H636 0.930 . S
C646 C644 1.419 . S
C646 C647 1.362 . S
C647 H637 0.930 . S
C647 C640 1.409 . S
C647 C646 1.362 . S
H648 C654 0.930 . S
H649 C657 0.930 . S
H650 C658 0.930 . S
H651 C659 0.930 . S
H652 C662 0.930 . S
H653 C663 0.930 . S
C654 H648 0.930 . S
C654 C655 1.355 . S
C654 C656 1.415 . S
C655 C654 1.355 . S
C655 C657 1.419 . S
C656 C654 1.415 . S
C656 C661 1.425 . S
C656 C663 1.409 . S
C657 H649 0.930 . S
C657 C655 1.419 . S
C657 C658 1.362 . S
C658 H650 0.930 . S
C658 C657 1.362 . S
C658 C661 1.409 . S
C659 H651 0.930 . S
C659 C660 1.355 . S
C659 C661 1.415 . S
C660 C659 1.355 . S
C660 C662 1.419 . S
C661 C656 1.425 . S
C661 C658 1.409 . S
C661 C659 1.415 . S
C662 H652 0.930 . S
C662 C660 1.419 . S
C662 C663 1.362 . S
C663 H653 0.930 . S
C663 C656 1.409 . S
C663 C662 1.362 . S
H664 C670 0.930 . S
H665 C673 0.930 . S
H666 C674 0.930 . S
H667 C675 0.930 . S
H668 C678 0.930 . S
H669 C679 0.930 . S
C670 H664 0.930 . S
C670 C671 1.360 . S
C670 C672 1.415 1_655 S
C671 C670 1.360 . S
C671 C673 1.405 1_655 S
C672 C670 1.415 1_455 S
C672 C677 1.425 . S
C672 C679 1.409 1_454 S
C673 H665 0.930 . S
C673 C671 1.405 1_455 S
C673 C674 1.362 . S
C674 H666 0.930 . S
C674 C673 1.362 . S
C674 C677 1.409 . S
C675 H667 0.930 . S
C675 C676 1.355 1_554 S
C675 C677 1.415 . S
C676 C675 1.355 1_556 S
C676 C678 1.419 . S
C677 C672 1.425 . S
C677 C674 1.409 . S
C677 C675 1.415 . S
C678 H668 0.930 . S
C678 C676 1.419 . S
C678 C679 1.362 1_455 S
C679 H669 0.930 . S
C679 C672 1.409 1_656 S
C679 C678 1.362 1_655 S
H680 C686 0.930 . S
H681 C689 0.936 . S
H682 C690 0.930 . S
H683 C691 0.930 . S
H684 C694 0.930 . S
H685 C695 0.930 . S
C686 H680 0.930 . S
C686 C687 1.355 1_545 S
C686 C688 1.415 . S
C687 C686 1.355 1_565 S
C687 C689 1.420 . S
C688 C686 1.415 . S
C688 C693 1.425 . S
C688 C695 1.409 1_554 S
C689 H681 0.936 . S
C689 C687 1.420 . S
C689 C690 1.355 1_565 S
C690 H682 0.930 . S
C690 C689 1.355 1_545 S
C690 C693 1.409 . S
C691 H683 0.930 . S
C691 C692 1.355 1_554 S
C691 C693 1.415 . S
C692 C691 1.355 1_556 S
C692 C694 1.419 . S
C693 C688 1.425 . S
C693 C690 1.409 . S
C693 C691 1.415 . S
C694 H684 0.930 . S
C694 C692 1.419 . S
C694 C695 1.362 . S
C695 H685 0.930 . S
C695 C688 1.409 1_556 S
C695 C694 1.362 . S
H696 C702 0.930 . S
H697 C705 0.930 . S
H698 C706 0.930 1_556 S
H699 C707 0.930 . S
H700 C710 0.930 . S
H701 C711 0.930 . S
C702 H696 0.930 . S
C702 C703 1.355 . S
C702 C704 1.415 . S
C703 C702 1.355 . S
C703 C705 1.419 . S
C704 C702 1.415 . S
C704 C709 1.425 . S
C704 C711 1.409 . S
C705 H697 0.930 . S
C705 C703 1.419 . S
C705 C706 1.362 . S
C706 H698 0.930 1_554 S
C706 C705 1.362 . S
C706 C709 1.409 . S
C707 H699 0.930 . S
C707 C708 1.355 1_556 S
C707 C709 1.415 1_556 S
C708 C707 1.355 1_554 S
C708 C710 1.419 . S
C709 C704 1.425 . S
C709 C706 1.409 . S
C709 C707 1.415 1_554 S
C710 H700 0.930 . S
C710 C708 1.419 . S
C710 C711 1.362 . S
C711 H701 0.930 . S
C711 C704 1.409 . S
C711 C710 1.362 . S
H712 C718 0.930 . S
H713 C721 0.930 . S
H714 C722 0.930 . S
H715 C723 0.930 . S
H716 C726 0.930 . S
H717 C727 0.930 . S
C718 H712 0.930 . S
C718 C719 1.355 . S
C718 C720 1.415 . S
C719 C718 1.355 . S
C719 C721 1.419 . S
C720 C718 1.415 . S
C720 C725 1.425 . S
C720 C727 1.409 . S
C721 H713 0.930 . S
C721 C719 1.419 . S
C721 C722 1.362 1_554 S
C722 H714 0.930 . S
C722 C721 1.362 1_556 S
C722 C725 1.409 1_556 S
C723 H715 0.930 . S
C723 C724 1.355 1_556 S
C723 C725 1.415 1_556 S
C724 C723 1.355 1_554 S
C724 C726 1.419 . S
C725 C720 1.425 . S
C725 C722 1.409 1_554 S
C725 C723 1.415 1_554 S
C726 H716 0.930 . S
C726 C724 1.419 . S
C726 C727 1.362 . S
C727 H717 0.930 . S
C727 C720 1.409 . S
C727 C726 1.362 . S
H728 C734 0.930 . S
H729 C737 0.930 . S
H730 C738 0.930 . S
H731 C739 0.930 . S
H732 C742 0.930 . S
H733 C743 0.930 . S
C734 H728 0.930 . S
C734 C735 1.355 1_655 S
C734 C736 1.412 1_655 S
C735 C734 1.355 1_455 S
C735 C737 1.419 . S
C736 C734 1.412 1_455 S
C736 C741 1.437 . S
C736 C743 1.401 1_455 S
C737 H729 0.930 . S
C737 C735 1.419 . S
C737 C738 1.362 . S
C738 H730 0.930 . S
C738 C737 1.362 . S
C738 C741 1.409 . S
C739 H731 0.930 . S
C739 C740 1.355 . S
C739 C741 1.415 . S
C740 C739 1.355 . S
C740 C742 1.419 1_455 S
C741 C736 1.437 . S
C741 C738 1.409 . S
C741 C739 1.415 . S
C742 H732 0.930 . S
C742 C740 1.419 1_655 S
C742 C743 1.362 . S
C743 H733 0.930 . S
C743 C736 1.401 1_655 S
C743 C742 1.362 . S
H744 C750 0.930 . S
H745 C753 0.930 . S
H746 C754 0.930 . S
H747 C755 0.930 . S
H748 C758 0.930 . S
H749 C759 0.930 . S
C750 H744 0.930 . S
C750 C751 1.355 . S
C750 C752 1.415 . S
C751 C750 1.355 . S
C751 C753 1.419 1_545 S
C752 C750 1.415 . S
C752 C757 1.425 1_545 S
C752 C759 1.409 . S
C753 H745 0.930 . S
C753 C751 1.419 1_565 S
C753 C754 1.362 . S
C754 H746 0.930 . S
C754 C753 1.362 . S
C754 C757 1.409 . S
C755 H747 0.930 . S
C755 C756 1.355 1_565 S
C755 C757 1.415 . S
C756 C755 1.355 1_545 S
C756 C758 1.419 . S
C757 C752 1.425 1_565 S
C757 C754 1.409 . S
C757 C755 1.415 . S
C758 H748 0.930 . S
C758 C756 1.419 . S
C758 C759 1.362 . S
C759 H749 0.930 . S
C759 C752 1.409 . S
C759 C758 1.362 . S
H760 C766 0.930 . S
H761 C769 0.930 . S
H762 C770 0.930 . S
H763 C771 0.930 . S
H764 C774 0.930 . S
H765 C775 0.930 . S
C766 H760 0.930 . S
C766 C767 1.355 . S
C766 C768 1.415 . S
C767 C766 1.355 . S
C767 C769 1.419 . S
C768 C766 1.415 . S
C768 C773 1.425 . S
C768 C775 1.409 . S
C769 H761 0.930 . S
C769 C767 1.419 . S
C769 C770 1.362 . S
C770 H762 0.930 . S
C770 C769 1.362 . S
C770 C773 1.409 . S
C771 H763 0.930 . S
C771 C772 1.355 . S
C771 C773 1.415 . S
C772 C771 1.355 . S
C772 C774 1.419 . S
C773 C768 1.425 . S
C773 C770 1.409 . S
C773 C771 1.415 . S
C774 H764 0.930 . S
C774 C772 1.419 . S
C774 C775 1.362 . S
C775 H765 0.930 . S
C775 C768 1.409 . S
C775 C774 1.362 . S
H776 C782 0.930 . S
H777 C785 0.930 . S
H778 C786 0.930 . S
H779 C787 0.930 . S
H780 C790 0.930 . S
H781 C791 0.930 . S
C782 H776 0.930 . S
C782 C783 1.355 . S
C782 C784 1.415 . S
C783 C782 1.355 . S
C783 C785 1.419 . S
C784 C782 1.415 . S
C784 C789 1.425 . S
C784 C791 1.409 . S
C785 H777 0.930 . S
C785 C783 1.419 . S
C785 C786 1.362 . S
C786 H778 0.930 . S
C786 C785 1.362 . S
C786 C789 1.409 . S
C787 H779 0.930 . S
C787 C788 1.355 . S
C787 C789 1.415 . S
C788 C787 1.355 . S
C788 C790 1.419 . S
C789 C784 1.425 . S
C789 C786 1.409 . S
C789 C787 1.415 . S
C790 H780 0.930 . S
C790 C788 1.419 . S
C790 C791 1.362 . S
C791 H781 0.930 . S
C791 C784 1.409 . S
C791 C790 1.362 . S
H792 C798 0.930 . S
H793 C801 0.930 . S
H794 C802 0.930 . S
H795 C803 0.930 . S
H796 C806 0.930 . S
H797 C807 0.930 . S
C798 H792 0.930 . S
C798 C799 1.355 1_455 S
C798 C800 1.415 . S
C799 C798 1.355 1_655 S
C799 C801 1.419 . S
C800 C798 1.415 . S
C800 C805 1.425 1_455 S
C800 C807 1.409 . S
C801 H793 0.930 . S
C801 C799 1.419 . S
C801 C802 1.362 . S
C802 H794 0.930 . S
C802 C801 1.362 . S
C802 C805 1.409 . S
C803 H795 0.930 . S
C803 C804 1.355 . S
C803 C805 1.415 . S
C804 C803 1.355 . S
C804 C806 1.419 1_655 S
C805 C800 1.425 1_655 S
C805 C802 1.409 . S
C805 C803 1.415 . S
C806 H796 0.930 . S
C806 C804 1.419 1_455 S
C806 C807 1.362 . S
C807 H797 0.930 . S
C807 C800 1.409 . S
C807 C806 1.362 . S
H808 C814 0.930 . S
H809 C817 0.930 . S
H810 C818 0.930 . S
H811 C819 0.930 . S
H812 C822 0.930 . S
H813 C823 0.930 . S
C814 H808 0.930 . S
C814 C815 1.355 1_545 S
C814 C816 1.415 . S
C815 C814 1.355 1_565 S
C815 C817 1.419 . S
C816 C814 1.415 . S
C816 C821 1.425 1_545 S
C816 C823 1.409 . S
C817 H809 0.930 . S
C817 C815 1.419 . S
C817 C818 1.362 . S
C818 H810 0.930 . S
C818 C817 1.362 . S
C818 C821 1.409 . S
C819 H811 0.930 . S
C819 C820 1.355 . S
C819 C821 1.415 . S
C820 C819 1.355 . S
C820 C822 1.419 1_565 S
C821 C816 1.425 1_565 S
C821 C818 1.409 . S
C821 C819 1.415 . S
C822 H812 0.930 . S
C822 C820 1.419 1_545 S
C822 C823 1.362 . S
C823 H813 0.930 . S
C823 C816 1.409 . S
C823 C822 1.362 . S
H824 C830 0.930 . S
H825 C833 0.930 . S
H826 C834 0.930 . S
H827 C835 0.930 . S
H828 C838 0.930 . S
H829 C839 0.930 . S
C830 H824 0.930 . S
C830 C831 1.355 . S
C830 C832 1.415 . S
C831 C830 1.355 . S
C831 C833 1.419 . S
C832 C830 1.415 . S
C832 C837 1.425 . S
C832 C839 1.409 . S
C833 H825 0.930 . S
C833 C831 1.419 . S
C833 C834 1.362 . S
C834 H826 0.930 . S
C834 C833 1.362 . S
C834 C837 1.409 . S
C835 H827 0.930 . S
C835 C836 1.355 . S
C835 C837 1.415 . S
C836 C835 1.355 . S
C836 C838 1.419 . S
C837 C832 1.425 . S
C837 C834 1.409 . S
C837 C835 1.415 . S
C838 H828 0.930 . S
C838 C836 1.419 . S
C838 C839 1.362 . S
C839 H829 0.930 . S
C839 C832 1.409 . S
C839 C838 1.362 . S
H840 C846 0.930 . S
H841 C849 0.930 . S
H842 C850 0.930 . S
H843 C851 0.930 . S
H844 C854 0.930 . S
H845 C855 0.930 . S
C846 H840 0.930 . S
C846 C847 1.355 . S
C846 C848 1.415 . S
C847 C846 1.355 . S
C847 C849 1.419 . S
C848 C846 1.415 . S
C848 C853 1.425 . S
C848 C855 1.409 . S
C849 H841 0.930 . S
C849 C847 1.419 . S
C849 C850 1.362 . S
C850 H842 0.930 . S
C850 C849 1.362 . S
C850 C853 1.409 . S
C851 H843 0.930 . S
C851 C852 1.355 . S
C851 C853 1.415 . S
C852 C851 1.355 . S
C852 C854 1.419 . S
C853 C848 1.425 . S
C853 C850 1.409 . S
C853 C851 1.415 . S
C854 H844 0.930 . S
C854 C852 1.419 . S
C854 C855 1.362 . S
C855 H845 0.930 . S
C855 C848 1.409 . S
C855 C854 1.362 . S
C479 C255 2.332 1_545 S
C484 C321 2.551 . S
C500 C361 2.584 . S
C495 C294 2.273 . S
C516 C401 2.570 . S
C511 C177 2.300 . S
C532 C441 2.551 1_455 S
C527 C216 2.279 1_455 S
C548 C330 2.545 1_565 S
C543 C99 2.269 1_545 S
C559 C138 2.313 . S
C564 C370 2.581 . S
C575 C21 2.326 . S
C580 C410 2.571 . S
C591 C60 2.325 1_455 S
C596 C450 2.567 1_655 S
C612 C327 0.526 . S
C607 C196 0.571 1_455 S
C628 C367 0.622 . S
C623 C235 0.564 1_545 S
C644 C407 0.433 . S
C639 C289 0.485 . S
C655 C157 0.417 . S
C660 C447 0.406 . S
C671 C40 0.452 . S
C676 C318 0.432 . S
C692 C358 0.517 . S
C687 C79 0.454 . S
C708 C398 0.526 1_554 S
C703 C133 0.569 . S
C719 C1 0.592 . S
C724 C438 0.595 1_554 S
C735 C211 3.034 . S
C740 C331 3.445 . S
C751 C250 2.992 . S
C756 C371 3.417 . S
C772 C411 3.396 . S
C767 C274 2.928 . S
C788 C451 3.446 . S
C783 C172 2.987 . S
C799 C55 3.020 1_655 S
C804 C322 3.449 . S
C820 C362 3.392 . S
C815 C94 2.948 1_565 S
C836 C402 3.400 . S
C831 C118 2.936 . S
C847 C16 2.965 . S
C852 C442 3.426 . S
