# Generated by pormake.
# Topology llj, (12,3)-cn, num edge types: 1
# Building blocks:
#     Node 0, Type 0, BuildingBlock: QEWDON_clean_sbu_0, # of connection points: 12
#     Node 1, Type 0, BuildingBlock: QEWDON_clean_sbu_0, # of connection points: 12
#     Node 2, Type 1, BuildingBlock: MIDCAF_clean_linker_0, # of connection points: 3
#     Node 3, Type 1, BuildingBlock: MIDCAF_clean_linker_0, # of connection points: 3
#     Node 4, Type 1, BuildingBlock: MIDCAF_clean_linker_0, # of connection points: 3
#     Node 5, Type 1, BuildingBlock: MIDCAF_clean_linker_0, # of connection points: 3
#     Node 6, Type 1, BuildingBlock: MIDCAF_clean_linker_0, # of connection points: 3
#     Node 7, Type 1, BuildingBlock: MIDCAF_clean_linker_0, # of connection points: 3
#     Node 8, Type 1, BuildingBlock: MIDCAF_clean_linker_0, # of connection points: 3
#     Node 9, Type 1, BuildingBlock: MIDCAF_clean_linker_0, # of connection points: 3
#     Edge 10, Type (0, 1), BuildingBlock: EZIPEK_clean_linker_0, # of connection points: 2
#     Edge 11, Type (0, 1), BuildingBlock: EZIPEK_clean_linker_0, # of connection points: 2
#     Edge 12, Type (0, 1), BuildingBlock: EZIPEK_clean_linker_0, # of connection points: 2
#     Edge 13, Type (0, 1), BuildingBlock: EZIPEK_clean_linker_0, # of connection points: 2
#     Edge 14, Type (0, 1), BuildingBlock: EZIPEK_clean_linker_0, # of connection points: 2
#     Edge 15, Type (0, 1), BuildingBlock: EZIPEK_clean_linker_0, # of connection points: 2
#     Edge 16, Type (0, 1), BuildingBlock: EZIPEK_clean_linker_0, # of connection points: 2
#     Edge 17, Type (0, 1), BuildingBlock: EZIPEK_clean_linker_0, # of connection points: 2
#     Edge 18, Type (0, 1), BuildingBlock: EZIPEK_clean_linker_0, # of connection points: 2
#     Edge 19, Type (0, 1), BuildingBlock: EZIPEK_clean_linker_0, # of connection points: 2
#     Edge 20, Type (0, 1), BuildingBlock: EZIPEK_clean_linker_0, # of connection points: 2
#     Edge 21, Type (0, 1), BuildingBlock: EZIPEK_clean_linker_0, # of connection points: 2
#     Edge 22, Type (0, 1), BuildingBlock: EZIPEK_clean_linker_0, # of connection points: 2
#     Edge 23, Type (0, 1), BuildingBlock: EZIPEK_clean_linker_0, # of connection points: 2
#     Edge 24, Type (0, 1), BuildingBlock: EZIPEK_clean_linker_0, # of connection points: 2
#     Edge 25, Type (0, 1), BuildingBlock: EZIPEK_clean_linker_0, # of connection points: 2
#     Edge 26, Type (0, 1), BuildingBlock: EZIPEK_clean_linker_0, # of connection points: 2
#     Edge 27, Type (0, 1), BuildingBlock: EZIPEK_clean_linker_0, # of connection points: 2
#     Edge 28, Type (0, 1), BuildingBlock: EZIPEK_clean_linker_0, # of connection points: 2
#     Edge 29, Type (0, 1), BuildingBlock: EZIPEK_clean_linker_0, # of connection points: 2
#     Edge 30, Type (0, 1), BuildingBlock: EZIPEK_clean_linker_0, # of connection points: 2
#     Edge 31, Type (0, 1), BuildingBlock: EZIPEK_clean_linker_0, # of connection points: 2
#     Edge 32, Type (0, 1), BuildingBlock: EZIPEK_clean_linker_0, # of connection points: 2
#     Edge 33, Type (0, 1), BuildingBlock: EZIPEK_clean_linker_0, # of connection points: 2
# Relax obj value: 0.011
# Max RMSD: 0.058
# Mean RMSD: 0.054
data_MOF--net-llj--node1-QEWDON_clean_sbu_0--node2-MIDCAF_clean_linker_0--edge1-EZIPEK_clean_linker_0
_symmetry_space_group_name_H-M    P1
_symmetry_Int_Tables_number       1
_symmetry_cell_setting            triclinic
loop_
_symmetry_equiv_pos_as_xyz
'x, y, z'
_cell_length_a     36.248451
_cell_length_b     36.170444
_cell_length_c     25.181651
_cell_angle_alpha  89.774285
_cell_angle_beta   90.021703
_cell_angle_gamma 89.733686
loop_
_atom_site_label
_atom_site_type_symbol
_atom_site_fract_x
_atom_site_fract_y
_atom_site_fract_z
_atom_type_partial_charge
Zn0 Zn 0.93638 0.0759 0.95147 0.0
Zn1 Zn 0.94975 0.06707 0.07199 0.0
O2 O 0.97815 0.07336 0.00533 0.0
H3 H 0.00144 0.08606 0.00203 0.0
C4 C 0.91984 0.99225 0.85938 0.0
O5 O 0.94261 0.00881 0.89202 0.0
Zn6 Zn 0.06897 0.90651 0.07505 0.0
Zn7 Zn 0.05815 0.84325 0.99396 0.0
O8 O 0.04269 0.89624 0.00774 0.0
H9 H 0.02183 0.90942 0.9929 0.0
Zn10 Zn 0.93071 0.93058 0.9348 0.0
O11 O 0.94933 0.96039 -0.00297 0.0
Zn12 Zn 0.94073 0.93093 0.06343 0.0
H13 H 0.9608 0.98434 0.99405 0.0
Zn14 Zn 0.04411 0.04184 0.9462 0.0
O15 O 0.03786 0.01535 0.01734 0.0
H16 H 0.02213 0.99457 0.02525 0.0
Zn17 Zn 0.06689 0.04485 0.06947 0.0
C18 C 0.03217 0.97843 0.87368 0.0
O19 O 0.01214 0.96532 0.91283 0.0
O20 O 0.89026 0.10217 0.98147 0.0
O21 O 0.90077 0.09341 0.06759 0.0
O22 O 0.11056 0.83191 0.02151 0.0
O23 O 0.11826 0.87936 0.07669 0.0
O24 O 0.90497 0.88252 0.95853 0.0
O25 O 0.90972 0.88538 0.04702 0.0
C26 C 0.00985 0.09576 0.13937 0.0
O27 O 0.08172 0.08462 0.9489 0.0
O28 O 0.10206 0.07962 0.03238 0.0
O29 O 0.0423 0.82422 0.92035 0.0
C30 C 0.8812 0.10642 0.02988 0.0
O31 O 0.95283 0.09423 0.87789 0.0
C32 C 0.00191 0.89554 0.13016 0.0
O33 O 0.9105 0.95896 0.8684 0.0
C34 C 0.13035 0.85034 0.05371 0.0
O35 O 0.04739 0.00982 0.87819 0.0
C36 C 0.92079 -0.00155 0.11719 0.0
O37 O 0.97546 0.09405 0.13059 0.0
O38 O 0.03201 0.07608 0.11238 0.0
C39 C 0.8987 0.8694 0.00472 0.0
O40 O 0.0362 0.88864 0.13438 0.0
O41 O 0.99084 0.91458 0.09052 0.0
C42 C 0.09225 0.97662 0.11914 0.0
O43 O 0.915 0.96378 0.11703 0.0
O44 O 0.94211 0.01247 0.08276 0.0
C45 C 0.1034 0.09417 0.98619 0.0
O46 O 0.09347 0.01165 0.12195 0.0
O47 O 0.07711 0.96146 0.07943 0.0
C48 C 0.00789 0.82426 0.91118 0.0
O49 O 0.98491 0.833 0.94949 0.0
C50 C 0.96246 0.1279 0.87733 0.0
O51 O 0.96056 0.14725 0.92129 0.0
Zn52 Zn 0.4725 0.6285 0.48471 0.0
Zn53 Zn 0.452 0.58544 0.592 0.0
O54 O 0.48197 0.58125 0.52569 0.0
H55 H 0.49321 0.55901 0.51186 0.0
C56 C 0.45012 0.50722 0.38764 0.0
O57 O 0.46713 0.51646 0.43161 0.0
Zn58 Zn 0.54919 0.42089 0.55979 0.0
Zn59 Zn 0.52769 0.41264 0.4375 0.0
O60 O 0.51995 0.44498 0.50198 0.0
H61 H 0.50628 0.46793 0.50392 0.0
Zn62 Zn 0.42192 0.45571 0.46233 0.0
O63 O 0.42272 0.49455 0.52024 0.0
Zn64 Zn 0.41961 0.45901 0.58052 0.0
H65 H 0.40896 0.51735 0.51634 0.0
Zn66 Zn 0.56993 0.55955 0.46669 0.0
O67 O 0.56751 0.51752 0.51985 0.0
H68 H 0.5769 0.49325 0.51122 0.0
Zn69 Zn 0.57369 0.54339 0.58861 0.0
C70 C 0.56363 0.51115 0.37847 0.0
O71 O 0.53947 0.49705 0.41148 0.0
O72 O 0.42314 0.65347 0.5042 0.0
O73 O 0.41076 0.62332 0.5798 0.0
O74 O 0.56506 0.3699 0.4464 0.0
O75 O 0.58287 0.38052 0.52967 0.0
O76 O 0.379 0.41933 0.47628 0.0
O77 O 0.37703 0.42474 0.56445 0.0
C78 C 0.5169 0.58233 0.64955 0.0
O79 O 0.6041 0.60041 0.49412 0.0
O80 O 0.60778 0.58682 0.58025 0.0
O81 O 0.48825 0.41065 0.37839 0.0
C82 C 0.40252 0.64734 0.5443 0.0
O83 O 0.4967 0.63305 0.41016 0.0
C84 C 0.48175 0.40974 0.61677 0.0
O85 O 0.42886 0.47938 0.38785 0.0
C86 C 0.58521 0.36236 0.48647 0.0
O87 O 0.58031 0.54059 0.39101 0.0
C88 C 0.4192 0.5207 0.64954 0.0
O89 O 0.48549 0.59783 0.65312 0.0
O90 O 0.52396 0.56269 0.60924 0.0
C91 C 0.36456 0.41149 0.5211 0.0
O92 O 0.51458 0.39793 0.61217 0.0
O93 O 0.46915 0.43274 0.58299 0.0
C94 C 0.59666 0.47441 0.63686 0.0
O95 O 0.41012 0.48681 0.64914 0.0
O96 O 0.43201 0.53478 0.60712 0.0
C97 C 0.61678 0.6065 0.54032 0.0
O98 O 0.59752 0.50933 0.6416 0.0
O99 O 0.57564 0.46156 0.6008 0.0
C100 C 0.48633 0.38157 0.35057 0.0
O101 O 0.50902 0.35394 0.36027 0.0
C102 C 0.50652 0.66309 0.38808 0.0
O103 O 0.50071 0.6947 0.41223 0.0
C104 C 0.38593 0.39 0.13099 0.0
C105 C 0.38474 0.36607 0.17489 0.0
C106 C 0.3616 0.33511 0.17355 0.0
C107 C 0.34155 0.32695 0.12763 0.0
H108 H 0.25071 0.2678 0.06207 0.0
H109 H 0.20493 0.21839 0.05699 0.0
H110 H 0.22563 0.20702 0.88939 0.0
H111 H 0.27133 0.25643 0.89357 0.0
H112 H 0.35175 0.294 0.85263 0.0
H113 H 0.38784 0.31202 0.77472 0.0
H114 H 0.39269 0.42408 0.8323 0.0
H115 H 0.35804 0.40571 0.91192 0.0
H116 H 0.36902 0.39978 0.05079 0.0
H117 H 0.40355 0.41411 0.13152 0.0
H118 H 0.36036 0.3164 0.2072 0.0
H119 H 0.32525 0.30194 0.1269 0.0
N120 N 0.30364 0.31 0.0284 0.0
N121 N 0.30794 0.30932 0.93547 0.0
N122 N 0.34394 0.35054 0.98465 0.0
C123 C 0.29249 0.29618 0.98084 0.0
C124 C 0.33342 0.33663 0.9371 0.0
C125 C 0.32934 0.33727 0.03056 0.0
C126 C 0.26475 0.26621 0.97824 0.0
C127 C 0.24562 0.25487 0.02407 0.0
C128 C 0.21943 0.22671 0.02131 0.0
C129 C 0.21206 0.20931 0.97284 0.0
C130 C 0.23105 0.2203 0.92706 0.0
C131 C 0.2571 0.24858 0.92967 0.0
C132 C 0.35217 0.34852 0.88812 0.0
C133 C 0.36024 0.32254 0.84844 0.0
C134 C 0.38089 0.33274 0.80407 0.0
C135 C 0.39285 0.36933 0.79786 0.0
C136 C 0.38372 0.39568 0.83657 0.0
C137 C 0.364 0.38521 0.88184 0.0
C138 C 0.34475 0.34942 0.08212 0.0
C139 C 0.36625 0.38166 0.0849 0.0
C140 C 0.59508 0.4135 0.16085 0.0
C141 C 0.61708 0.42167 0.20503 0.0
C142 C 0.65318 0.40744 0.20795 0.0
C143 C 0.66725 0.38569 0.16686 0.0
H144 H 0.70697 0.26726 0.12219 0.0
H145 H 0.74731 0.21268 0.12919 0.0
H146 H 0.78732 0.23264 0.9706 0.0
H147 H 0.74709 0.28663 0.96271 0.0
H148 H 0.69559 0.33549 0.88564 0.0
H149 H 0.68209 0.36246 0.7984 0.0
H150 H 0.61775 0.44851 0.87223 0.0
H151 H 0.63084 0.42203 0.95962 0.0
H152 H 0.59244 0.38765 0.08458 0.0
H153 H 0.56707 0.42393 0.15823 0.0
H154 H 0.67048 0.41337 0.24194 0.0
H155 H 0.69538 0.37559 0.16938 0.0
N156 N 0.68434 0.33039 0.0806 0.0
N157 N 0.69318 0.32955 0.98818 0.0
N158 N 0.65537 0.37476 0.02636 0.0
C159 C 0.69981 0.31457 0.03692 0.0
C160 C 0.67104 0.35972 0.98263 0.0
C161 C 0.66192 0.36042 0.07524 0.0
C162 C 0.72386 0.28144 0.04192 0.0
C163 C 0.7243 0.26001 0.08876 0.0
C164 C 0.7471 0.22874 0.09279 0.0
C165 C 0.77011 0.21882 0.05035 0.0
C166 C 0.76959 0.23993 0.00362 0.0
C167 C 0.74659 0.27081 -0.0007 0.0
C168 C 0.66407 0.37637 0.92972 0.0
C169 C 0.67868 0.36021 0.8835 0.0
C170 C 0.67111 0.37557 0.83367 0.0
C171 C 0.64894 0.4073 0.82934 0.0
C172 C 0.63491 0.42398 0.87515 0.0
C173 C 0.64238 0.40865 0.92496 0.0
C174 C 0.64573 0.37881 0.12172 0.0
C175 C 0.6095 0.39269 0.11912 0.0
C176 C 0.59798 0.59934 0.8735 0.0
C177 C 0.61633 0.60268 0.82483 0.0
C178 C 0.65387 0.61195 0.82408 0.0
C179 C 0.67238 0.61954 0.87162 0.0
H180 H 0.75658 0.68641 0.92826 0.0
H181 H 0.80457 0.73377 0.92677 0.0
H182 H 0.80566 0.73555 0.09782 0.0
H183 H 0.75777 0.68827 0.1001 0.0
H184 H 0.67863 0.6794 0.15397 0.0
H185 H 0.63803 0.68459 0.23096 0.0
H186 H 0.56208 0.60795 0.15995 0.0
H187 H 0.60225 0.6027 0.08211 0.0
H188 H 0.60102 0.60442 0.95758 0.0
H189 H 0.56906 0.5919 0.87473 0.0
H190 H 0.66848 0.61425 0.7867 0.0
H191 H 0.70106 0.6277 0.86991 0.0
N192 N 0.70456 0.64685 0.97013 0.0
N193 N 0.69962 0.65771 0.06164 0.0
N194 N 0.65266 0.62633 0.01715 0.0
C195 C 0.719 0.66089 0.01567 0.0
C196 C 0.6665 0.64037 0.06279 0.0
C197 C 0.67145 0.62927 0.97069 0.0
C198 C 0.75276 0.68395 0.01431 0.0
C199 C 0.76755 0.69616 0.96564 0.0
C200 C 0.79502 0.72319 0.96463 0.0
C201 C 0.80831 0.73818 0.01219 0.0
C202 C 0.79563 0.72422 0.06078 0.0
C203 C 0.76812 0.69731 0.06188 0.0
C204 C 0.64367 0.64076 0.11161 0.0
C205 C 0.65345 0.6634 0.15463 0.0
C206 C 0.63021 0.66663 0.19855 0.0
C207 C 0.59692 0.64713 0.20048 0.0
C208 C 0.58744 0.62364 0.15857 0.0
C209 C 0.61056 0.62057 0.11434 0.0
C210 C 0.65363 0.61749 0.92054 0.0
C211 C 0.61643 0.60646 0.92086 0.0
C212 C 0.44353 0.6242 0.8631 0.0
C213 C 0.41139 0.61596 0.83417 0.0
C214 C 0.37739 0.63012 0.85159 0.0
C215 C 0.37539 0.65158 0.89744 0.0
H216 H 0.32487 0.74684 0.95902 0.0
H217 H 0.26956 0.78434 0.97264 0.0
H218 H 0.29118 0.78741 0.14082 0.0
H219 H 0.34665 0.74962 0.12799 0.0
H220 H 0.3648 0.6451 0.14538 0.0
H221 H 0.37947 0.60484 0.22056 0.0
H222 H 0.4953 0.61227 0.18319 0.0
H223 H 0.48038 0.65131 0.10522 0.0
H224 H 0.46614 0.64934 0.9331 0.0
H225 H 0.47007 0.61365 0.85024 0.0
H226 H 0.35225 0.62397 0.83015 0.0
H227 H 0.34863 0.66142 0.91052 0.0
N228 N 0.37844 0.70405 0.98635 0.0
N229 N 0.38607 0.70103 0.07853 0.0
N230 N 0.41964 0.66082 0.02356 0.0
C231 C 0.37012 0.71712 0.03545 0.0
C232 C 0.41105 0.67323 0.07292 0.0
C233 C 0.4034 0.67627 0.98005 0.0
C234 C 0.34 0.74461 0.0425 0.0
C235 C 0.31835 0.75587 -0.00111 0.0
C236 C 0.28669 0.77733 0.00652 0.0
C237 C 0.27619 0.78812 0.05774 0.0
C238 C 0.29884 0.77904 0.10105 0.0
C239 C 0.33047 0.75739 0.09353 0.0
C240 C 0.42152 0.65129 0.1199 0.0
C241 C 0.39342 0.63823 0.15325 0.0
C242 C 0.40172 0.61511 0.19594 0.0
C243 C 0.4384 0.60543 0.20714 0.0
C244 C 0.46682 0.61922 0.1747 0.0
C245 C 0.45834 0.64151 0.13058 0.0
C246 C 0.40715 0.65824 0.92786 0.0
C247 C 0.44131 0.64458 0.91021 0.0
C248 C 0.96089 0.82501 0.65312 0.0
C249 C 0.94718 0.80974 0.70044 0.0
C250 C 0.91406 0.79009 0.69971 0.0
C251 C 0.89447 0.78607 0.65247 0.0
H252 H 0.78714 0.7729 0.6002 0.0
H253 H 0.73163 0.7355 0.61169 0.0
H254 H 0.73939 0.69977 0.44902 0.0
H255 H 0.79479 0.73756 0.43666 0.0
H256 H 0.84825 0.79414 0.36296 0.0
H257 H 0.87301 0.81432 0.27708 0.0
H258 H 0.96956 0.8569 0.35514 0.0
H259 H 0.94539 0.83696 0.44108 0.0
H260 H 0.95235 0.83307 0.56953 0.0
H261 H 0.98648 0.84029 0.65325 0.0
H262 H 0.90311 0.77824 0.73598 0.0
H263 H 0.86884 0.77083 0.65365 0.0
N264 N 0.85199 0.78192 0.55748 0.0
N265 N 0.84574 0.78658 0.46514 0.0
N266 N 0.89968 0.80766 0.507 0.0
C267 C 0.83168 0.7765 0.51308 0.0
C268 C 0.87967 0.80247 0.46176 0.0
C269 C 0.88598 0.79726 0.55506 0.0
C270 C 0.79556 0.75788 0.51759 0.0
C271 C 0.77679 0.75752 0.56656 0.0
C272 C 0.74502 0.73634 0.57325 0.0
C273 C 0.7318 0.71486 0.5313 0.0
C274 C 0.7494 0.71629 0.48175 0.0
C275 C 0.78094 0.7379 0.47477 0.0
C276 C 0.89476 0.81393 0.40925 0.0
C277 C 0.87483 0.80767 0.36203 0.0
C278 C 0.8889 0.81908 0.31282 0.0
C279 C 0.92311 0.83691 0.30996 0.0
C280 C 0.94315 0.84302 0.3567 0.0
C281 C 0.9292 0.83161 0.40581 0.0
C282 C 0.90768 0.80155 0.60471 0.0
C283 C 0.94133 0.82086 0.60547 0.0
C284 C 0.05596 0.88803 0.64265 0.0
C285 C 0.07687 0.89637 0.68798 0.0
C286 C 0.11418 0.88575 0.6899 0.0
C287 C 0.1304 0.8673 0.64725 0.0
H288 H 0.2044 0.77995 0.61325 0.0
H289 H 0.25874 0.74025 0.62496 0.0
H290 H 0.26559 0.72516 0.45563 0.0
H291 H 0.21145 0.76476 0.44311 0.0
H292 H 0.14517 0.80942 0.36495 0.0
H293 H 0.13616 0.83877 0.27746 0.0
H294 H 0.11444 0.94309 0.35397 0.0
H295 H 0.12181 0.91386 0.44086 0.0
H296 H 0.05616 0.86512 0.56409 0.0
H297 H 0.02709 0.89576 0.64057 0.0
H298 H 0.13079 0.89183 0.72454 0.0
H299 H 0.15931 0.85973 0.64966 0.0
N300 N 0.15476 0.817 0.56168 0.0
N301 N 0.16509 0.81567 0.46974 0.0
N302 N 0.12069 0.85599 0.50522 0.0
C303 C 0.17308 0.80278 0.51925 0.0
C304 C 0.13911 0.84238 0.46252 0.0
C305 C 0.12817 0.84319 0.55481 0.0
C306 C 0.20367 0.77588 0.52713 0.0
C307 C 0.21713 0.7679 0.57844 0.0
C308 C 0.24818 0.74527 0.58532 0.0
C309 C 0.26608 0.73009 0.54111 0.0
C310 C 0.25204 0.73679 0.49012 0.0
C311 C 0.22114 0.7595 0.48314 0.0
C312 C 0.13372 0.85931 0.40961 0.0
C313 C 0.13843 0.8386 0.3629 0.0
C314 C 0.13356 0.8553 0.31306 0.0
C315 C 0.12502 0.89314 0.3094 0.0
C316 C 0.12121 0.9139 0.35603 0.0
C317 C 0.12508 0.89709 0.40561 0.0
C318 C 0.10992 0.86006 0.6012 0.0
C319 C 0.07254 0.87057 0.59916 0.0
C320 C 0.02384 0.19077 0.35615 0.0
C321 C 0.04627 0.19443 0.31119 0.0
C322 C 0.07648 0.21847 0.3125 0.0
C323 C 0.08548 0.23696 0.35943 0.0
H324 H 0.1581 0.31445 0.43246 0.0
H325 H 0.21781 0.34556 0.43826 0.0
H326 H 0.23 0.30837 0.60012 0.0
H327 H 0.16995 0.27765 0.59524 0.0
H328 H 0.09652 0.2495 0.65476 0.0
H329 H 0.06781 0.22188 0.73336 0.0
H330 H 0.97733 0.18352 0.63758 0.0
H331 H 0.00553 0.21091 0.55867 0.0
H332 H 0.0155 0.20477 0.43753 0.0
H333 H 0.0003 0.17242 0.35558 0.0
H334 H 0.09398 0.22162 0.27793 0.0
H335 H 0.10988 0.25412 0.35991 0.0
N336 N 0.10927 0.26503 0.46158 0.0
N337 N 0.10477 0.26434 0.55461 0.0
N338 N 0.05907 0.23632 0.50293 0.0
C339 C 0.12318 0.27447 0.50982 0.0
C340 C 0.07248 0.24549 0.55145 0.0
C341 C 0.07719 0.2459 0.4578 0.0
C342 C 0.15914 0.29368 0.51346 0.0
C343 C 0.17342 0.31283 0.46933 0.0
C344 C 0.20752 0.33057 0.47248 0.0
C345 C 0.22819 0.32908 0.51951 0.0
C346 C 0.21436 0.30969 0.56348 0.0
C347 C 0.17998 0.29239 0.56065 0.0
C348 C 0.05356 0.23218 0.60014 0.0
C349 C 0.07032 0.23558 0.65033 0.0
C350 C 0.05403 0.2198 0.69531 0.0
C351 C 0.02067 0.20058 0.69093 0.0
C352 C 0.00316 0.19822 0.64149 0.0
C353 C 0.01942 0.21388 0.59649 0.0
C354 C 0.06438 0.2316 0.40578 0.0
C355 C 0.03269 0.20929 0.40296 0.0
C356 C 0.86168 0.05583 0.34102 0.0
C357 C 0.85418 0.07425 0.29311 0.0
C358 C 0.83341 0.10703 0.29356 0.0
C359 C 0.82005 0.12108 0.34156 0.0
H360 H 0.74675 0.19499 0.40225 0.0
H361 H 0.7 0.24375 0.40122 0.0
H362 H 0.68299 0.22938 0.56934 0.0
H363 H 0.73013 0.18054 0.57129 0.0
H364 H 0.77882 0.10431 0.62817 0.0
H365 H 0.80468 0.07543 0.70851 0.0
H366 H 0.91218 0.07267 0.63526 0.0
H367 H 0.88623 0.10001 0.55424 0.0
H368 H 0.85505 0.05514 0.42528 0.0
H369 H 0.87791 0.0306 0.34128 0.0
H370 H 0.82777 0.12176 0.25688 0.0
H371 H 0.80409 0.14647 0.34087 0.0
N372 N 0.78607 0.14278 0.44128 0.0
N373 N 0.7863 0.14279 0.53451 0.0
N374 N 0.82808 0.10537 0.48762 0.0
C375 C 0.77212 0.15559 0.4878 0.0
C376 C 0.81455 0.11789 0.53454 0.0
C377 C 0.8138 0.11751 0.44081 0.0
C378 C 0.74242 0.18391 0.48701 0.0
C379 C 0.733 0.20187 0.4391 0.0
C380 C 0.70628 0.22976 0.43828 0.0
C381 C 0.68824 0.23997 0.48514 0.0
C382 C 0.69674 0.22166 0.53282 0.0
C383 C 0.72375 0.19391 0.53382 0.0
C384 C 0.83047 0.10401 0.58489 0.0
C385 C 0.80801 0.09781 0.62947 0.0
C386 C 0.82272 0.08134 0.67528 0.0
C387 C 0.86029 0.07171 0.67765 0.0
C388 C 0.88309 0.07965 0.63407 0.0
C389 C 0.86822 0.09516 0.58785 0.0
C390 C 0.8278 0.10282 0.38985 0.0
C391 C 0.84877 0.07004 0.38897 0.0
C392 C 0.11951 0.16057 0.97038 0.0
C393 C 0.131 0.12321 0.97615 0.0
C394 C 0.19579 0.14205 0.97698 0.0
C395 C 0.18438 0.17936 0.97035 0.0
N396 N 0.13667 0.2238 0.94987 0.0
N397 N 0.17918 0.0772 0.97304 0.0
C398 C 0.14657 0.18849 0.9635 0.0
C399 C 0.16894 0.11358 0.97584 0.0
N400 N 0.08289 0.16952 0.97408 0.0
N401 N 0.23216 0.13399 0.986 0.0
H402 H 0.1601 0.05569 0.97181 0.0
H403 H 0.20624 0.06838 0.96722 0.0
H404 H 0.25279 0.154 0.98547 0.0
H405 H 0.24168 0.10794 -0.00267 0.0
H406 H 0.07308 0.19656 0.97646 0.0
H407 H 0.06218 0.14982 0.97849 0.0
H408 H 0.11004 0.23141 0.9387 0.0
H409 H 0.15577 0.24509 0.94553 0.0
C410 C 0.8605 0.16755 0.06501 0.0
C411 C 0.85129 0.13272 0.04277 0.0
C412 C 0.787 0.15257 0.03224 0.0
C413 C 0.79626 0.18728 0.05463 0.0
N414 N 0.83895 0.22497 0.10365 0.0
N415 N 0.80536 0.08889 0.01561 0.0
C416 C 0.83207 0.19369 0.07504 0.0
C417 C 0.8143 0.12421 0.02962 0.0
N418 N 0.89668 0.17668 0.07321 0.0
N419 N 0.75241 0.14723 0.01212 0.0
H420 H 0.82491 0.06767 0.01354 0.0
H421 H 0.7784 0.07985 0.01027 0.0
H422 H 0.73133 0.1668 0.01578 0.0
H423 H 0.74501 0.12431 0.98972 0.0
H424 H 0.90535 0.20315 0.08324 0.0
H425 H 0.91868 0.15878 0.06583 0.0
H426 H 0.8633 0.22925 0.12465 0.0
H427 H 0.81908 0.24534 0.11037 0.0
C428 C 0.89191 0.80145 0.02297 0.0
C429 C 0.8756 0.83594 0.00919 0.0
C430 C 0.81492 0.80669 0.00248 0.0
C431 C 0.83179 0.77168 0.01119 0.0
N432 N 0.88634 0.73452 0.02429 0.0
N433 N 0.82248 0.87169 0.98176 0.0
C434 C 0.87032 0.76871 0.02016 0.0
C435 C 0.83735 0.83861 -0.00233 0.0
N436 N 0.9279 0.8001 0.03916 0.0
N437 N 0.77727 0.80958 0.00086 0.0
H438 H 0.83726 0.89636 0.98139 0.0
H439 H 0.79605 0.87446 0.96602 0.0
H440 H 0.75976 0.78687 0.00377 0.0
H441 H 0.7631 0.83468 0.00088 0.0
H442 H 0.94041 0.77657 0.05501 0.0
H443 H 0.94472 0.82338 0.04034 0.0
H444 H 0.91473 0.73013 0.02514 0.0
H445 H 0.8712 0.71008 0.02301 0.0
C446 C 0.17427 0.80271 0.08801 0.0
C447 C 0.16855 0.83765 0.06375 0.0
C448 C 0.23517 0.84387 0.04987 0.0
C449 C 0.23994 0.80652 0.06575 0.0
N450 N 0.21381 0.74892 0.09639 0.0
N451 N 0.19285 0.89117 0.01836 0.0
C452 C 0.20951 0.78562 0.08454 0.0
C453 C 0.19887 0.85848 0.04448 0.0
N454 N 0.14606 0.78619 0.11504 0.0
N455 N 0.26541 0.86532 0.04032 0.0
H456 H 0.16673 0.90294 0.01378 0.0
H457 H 0.21339 0.90543 -0.00196 0.0
H458 H 0.29232 0.85523 0.04391 0.0
H459 H 0.26396 0.89372 0.03367 0.0
H460 H 0.14946 0.76245 0.1381 0.0
H461 H 0.11999 0.7983 0.11867 0.0
H462 H 0.19179 0.73132 0.10416 0.0
H463 H 0.23915 0.73523 0.09467 0.0
C464 C 0.63581 0.67256 0.5349 0.0
C465 C 0.64509 0.63527 0.54631 0.0
C466 C 0.70976 0.65231 0.55897 0.0
C467 C 0.70132 0.68844 0.5403 0.0
N468 N 0.65719 0.73343 0.50867 0.0
N469 N 0.691 0.58828 0.56482 0.0
C470 C 0.66449 0.69881 0.52809 0.0
C471 C 0.682 0.62479 0.558 0.0
N472 N 0.59951 0.68285 0.5318 0.0
N473 N 0.74436 0.64432 0.57758 0.0
H474 H 0.67168 0.56704 0.56441 0.0
H475 H 0.71802 0.5785 0.56693 0.0
H476 H 0.76594 0.66328 0.57696 0.0
H477 H 0.75101 0.61991 0.5975 0.0
H478 H 0.59065 0.71018 0.52859 0.0
H479 H 0.57795 0.66418 0.53714 0.0
H480 H 0.63171 0.74141 0.49323 0.0
H481 H 0.67737 0.75376 0.50515 0.0
C482 C 0.33333 0.64922 0.54258 0.0
C483 C 0.36737 0.66801 0.54876 0.0
C484 C 0.33488 0.72753 0.55152 0.0
C485 C 0.30077 0.70862 0.54753 0.0
N486 N 0.26659 0.6517 0.5498 0.0
N487 N 0.40045 0.72362 0.57012 0.0
C488 C 0.29973 0.66946 0.54647 0.0
C489 C 0.36811 0.70679 0.55653 0.0
N490 N 0.33315 0.61242 0.53024 0.0
N491 N 0.33562 0.76528 0.54864 0.0
H492 H 0.42527 0.70917 0.57443 0.0
H493 H 0.40215 0.75114 0.58176 0.0
H494 H 0.31183 0.78153 0.54622 0.0
H495 H 0.35982 0.78046 0.54491 0.0
H496 H 0.30947 0.59814 0.51935 0.0
H497 H 0.35714 0.59659 0.52678 0.0
H498 H 0.26414 0.62324 0.5549 0.0
H499 H 0.24146 0.66578 0.55203 0.0
C500 C 0.29716 0.40645 0.54064 0.0
C501 C 0.33025 0.3895 0.52256 0.0
C502 C 0.29646 0.33267 0.50206 0.0
C503 C 0.26385 0.34901 0.52294 0.0
N504 N 0.23397 0.39886 0.56984 0.0
N505 N 0.36315 0.33532 0.49306 0.0
C506 C 0.26454 0.38505 0.54485 0.0
C507 C 0.3304 0.35226 0.50509 0.0
N508 N 0.29632 0.44361 0.55074 0.0
N509 N 0.29476 0.29868 0.47863 0.0
H510 H 0.38844 0.34892 0.49457 0.0
H511 H 0.3658 0.30717 0.48548 0.0
H512 H 0.27082 0.2828 0.47809 0.0
H513 H 0.31635 0.28702 0.45711 0.0
H514 H 0.27216 0.45838 0.5581 0.0
H515 H 0.31929 0.46066 0.54703 0.0
H516 H 0.23416 0.42293 0.59237 0.0
H517 H 0.20891 0.38488 0.57154 0.0
C518 C 0.64982 0.33789 0.49019 0.0
C519 C 0.61158 0.33111 0.4836 0.0
C520 C 0.62403 0.26481 0.47286 0.0
C521 C 0.66172 0.27126 0.48455 0.0
N522 N 0.7104 0.3128 0.5101 0.0
N523 N 0.56121 0.28799 0.47588 0.0
C524 C 0.67459 0.30751 0.49488 0.0
C525 C 0.59835 0.29454 0.47648 0.0
N526 N 0.66262 0.37341 0.48981 0.0
N527 N 0.6129 0.23033 0.45778 0.0
H528 H 0.54143 0.30888 0.47901 0.0
H529 H 0.54982 0.26162 0.47669 0.0
H530 H 0.63069 0.20759 0.45668 0.0
H531 H 0.58677 0.22474 0.44274 0.0
H532 H 0.69049 0.38012 0.48844 0.0
H533 H 0.64535 0.39642 0.48617 0.0
H534 H 0.72032 0.33783 0.52438 0.0
H535 H 0.72981 0.29146 0.5121 0.0
C536 C 0.04421 0.10869 0.22447 0.0
C537 C 0.02334 0.12174 0.18042 0.0
C538 C 0.0179 0.18294 0.22172 0.0
C539 C 0.03994 0.17029 0.26459 0.0
N540 N 0.08009 0.1239 0.30263 0.0
N541 N -0.0019 0.17326 0.13093 0.0
C542 C 0.05506 0.13402 0.26453 0.0
C543 C 0.01244 0.1595 0.17726 0.0
N544 N 0.05195 0.07183 0.22962 0.0
N545 N 0.00143 0.21696 0.2241 0.0
H546 H 0.99493 0.15727 0.09685 0.0
H547 H 0.99283 0.20124 0.12442 0.0
H548 H 0.00574 0.23529 0.25537 0.0
H549 H 0.98152 0.22598 0.19712 0.0
H550 H 0.06298 0.06001 0.26392 0.0
H551 H 0.04477 0.05236 0.20118 0.0
H552 H 0.09523 0.09939 0.30138 0.0
H553 H 0.08808 0.14136 0.3334 0.0
C554 C 0.86456 0.02593 0.1595 0.0
C555 C 0.90346 0.02202 0.15798 0.0
C556 C 0.90901 0.06111 0.23655 0.0
C557 C 0.87027 0.05982 0.24317 0.0
N558 N 0.81063 0.03899 0.21323 0.0
N559 N 0.9629 0.03235 0.19857 0.0
C560 C 0.84775 0.04202 0.20495 0.0
C561 C 0.9258 0.03892 0.19716 0.0
N562 N 0.84387 0.01496 0.11705 0.0
N563 N 0.92973 0.0842 0.26726 0.0
H564 H 0.97691 0.01811 0.16885 0.0
H565 H 0.97938 0.03928 0.2309 0.0
H566 H 0.9182 0.10133 0.29615 0.0
H567 H 0.95765 0.08908 0.26042 0.0
H568 H 0.81576 0.02052 0.11344 0.0
H569 H 0.85552 0.00335 0.08305 0.0
H570 H 0.79347 0.0228 0.18979 0.0
H571 H 0.7973 0.05059 0.24589 0.0
C572 C 0.97437 0.84128 0.17756 0.0
C573 C 0.97606 0.88017 0.17027 0.0
C574 C 0.93479 0.88886 0.2464 0.0
C575 C 0.9378 0.85071 0.25846 0.0
N576 N 0.96147 0.79015 0.23744 0.0
N577 N 0.96149 0.94131 0.20151 0.0
C578 C 0.95756 0.82665 0.22423 0.0
C579 C 0.95677 0.90405 0.2052 0.0
N580 N 0.98844 0.8184 0.13943 0.0
N581 N 0.91067 0.91057 0.27417 0.0
H582 H 0.97671 0.95351 0.17119 0.0
H583 H 0.95242 0.95975 0.23041 0.0
H584 H 0.89428 0.90033 0.3049 0.0
H585 H 0.90439 0.93775 0.2635 0.0
H586 H 0.98512 0.78983 0.13976 0.0
H587 H 0.00059 0.82832 0.10464 0.0
H588 H 0.97906 0.77203 0.21765 0.0
H589 H 0.94872 0.77836 0.2705 0.0
C590 C 0.13647 0.93681 0.17154 0.0
C591 C 0.1015 0.95419 0.16645 0.0
C592 C 0.08079 0.92503 0.24873 0.0
C593 C 0.11686 0.91108 0.25746 0.0
N594 N 0.18062 0.90682 0.23038 0.0
N595 N 0.04319 0.97125 0.20561 0.0
C596 C 0.1452 0.91753 0.21951 0.0
C597 C 0.07453 0.9502 0.20665 0.0
N598 N 0.16123 0.93893 0.13075 0.0
N599 N 0.05212 0.91319 0.2796 0.0
H600 H 0.03632 0.98867 0.17404 0.0
H601 H 0.02563 0.97357 0.23821 0.0
H602 H 0.05532 0.89357 0.30975 0.0
H603 H 0.02467 0.91992 0.27167 0.0
H604 H 0.18571 0.92379 0.12958 0.0
H605 H 0.15597 0.95393 0.09606 0.0
H606 H 0.20313 0.91396 0.20689 0.0
H607 H 0.18801 0.8929 0.26514 0.0
C608 C 0.0327 0.97109 0.77472 0.0
C609 C 0.03947 0.95586 0.82581 0.0
C610 C 0.06122 0.89856 0.78478 0.0
C611 C 0.06024 0.91591 0.73422 0.0
N612 N 0.0503 0.97142 0.68211 0.0
N613 N 0.0676 0.90775 0.87925 0.0
C614 C 0.04707 0.95286 0.72924 0.0
C615 C 0.05551 0.92016 0.83094 0.0
N616 N 0.01217 0.00271 0.76955 0.0
N617 N 0.06748 0.86136 0.78862 0.0
H618 H 0.06577 0.92343 0.91375 0.0
H619 H 0.08314 0.88366 0.88399 0.0
H620 H 0.07005 0.8444 0.75539 0.0
H621 H 0.06649 0.84687 0.82436 0.0
H622 H 0.00338 0.01306 0.73298 0.0
H623 H 0.00062 0.01643 0.80195 0.0
H624 H 0.04476 -0.00042 0.67805 0.0
H625 H 0.06182 0.95972 0.64817 0.0
C626 C 0.95811 0.17709 0.80759 0.0
C627 C 0.97624 0.14525 0.82808 0.0
C628 C 0.02037 0.14709 0.75454 0.0
C629 C 0.00491 0.18132 0.73775 0.0
N630 N 0.96214 0.2316 0.75168 0.0
N631 N 0.02797 0.1029 0.82624 0.0
C632 C 0.97456 0.19708 0.76518 0.0
C633 C 0.00819 0.13085 0.80282 0.0
N634 N 0.92447 0.18739 0.82732 0.0
N635 N 0.04614 0.12971 0.7237 0.0
H636 H 0.02044 0.09059 0.86211 0.0
H637 H 0.05365 0.09406 0.81262 0.0
H638 H 0.05605 0.1409 0.68826 0.0
H639 H 0.05531 0.1028 0.7308 0.0
H640 H 0.90812 0.20802 0.81032 0.0
H641 H 0.91119 0.173 0.85773 0.0
H642 H 0.94287 0.24625 0.77401 0.0
H643 H 0.97327 0.24691 0.72041 0.0
C644 C 0.88592 0.04675 0.82043 0.0
C645 C 0.90456 0.01257 0.81296 0.0
C646 C 0.8897 0.01505 0.71817 0.0
C647 C 0.87545 0.05142 0.72451 0.0
N648 N 0.86725 0.10486 0.78058 0.0
N649 N 0.93139 0.96841 0.75239 0.0
C650 C 0.87565 0.0682 0.77537 0.0
C651 C 0.90848 -0.00216 0.76115 0.0
N652 N 0.87642 0.05801 0.87034 0.0
N653 N 0.88419 0.99632 0.67183 0.0
H654 H 0.94704 0.95622 0.78246 0.0
H655 H 0.93802 0.95891 0.71454 0.0
H656 H 0.8694 0.00734 0.63991 0.0
H657 H 0.89094 0.96848 0.66723 0.0
H658 H 0.85967 0.08095 0.87746 0.0
H659 H 0.88208 0.04238 0.90429 0.0
H660 H 0.87063 0.11918 0.81606 0.0
H661 H 0.86042 0.12174 0.74834 0.0
C662 C 0.00157 0.78879 0.82596 0.0
C663 C 0.99433 0.82114 0.85597 0.0
C664 C 0.95772 0.84688 0.78276 0.0
C665 C 0.9663 0.81534 0.75184 0.0
N666 N 0.00182 0.75964 0.73926 0.0
N667 N 0.97376 0.88468 0.85819 0.0
C668 C 0.99007 0.78736 0.77197 0.0
C669 C 0.97471 0.85125 0.83307 0.0
N670 N 0.01785 0.75884 0.84975 0.0
N671 N 0.93241 0.87213 0.76485 0.0
H672 H 0.98683 0.88964 0.89433 0.0
H673 H 0.96344 0.90861 0.84055 0.0
H674 H 0.92055 0.87095 0.72715 0.0
H675 H 0.92114 0.8926 0.78895 0.0
H676 H 0.02033 0.73311 0.83168 0.0
H677 H 0.02626 0.75875 0.88936 0.0
H678 H 0.0221 0.74051 0.74983 0.0
H679 H 0.99351 0.75767 0.6997 0.0
C680 C 0.55447 0.55668 0.72421 0.0
C681 C 0.54498 0.58714 0.6912 0.0
C682 C 0.58475 0.62772 0.74316 0.0
C683 C 0.59531 0.59693 0.77504 0.0
N684 N 0.59737 0.53096 0.78846 0.0
N685 N 0.55702 0.64914 0.66083 0.0
C686 C 0.58239 0.56098 0.76313 0.0
C687 C 0.56198 0.62194 0.69805 0.0
N688 N 0.53592 0.52401 0.71959 0.0
N689 N 0.59491 0.66266 0.75738 0.0
H690 H 0.54037 0.64576 0.62739 0.0
H691 H 0.57193 0.67368 0.66051 0.0
H692 H 0.61164 0.66818 0.79005 0.0
H693 H 0.58454 0.68642 0.73915 0.0
H694 H 0.5386 0.50228 0.74658 0.0
H695 H 0.51593 0.51936 0.69062 0.0
H696 H 0.5915 0.50375 0.77823 0.0
H697 H 0.6184 0.53323 0.81656 0.0
C698 C 0.39541 0.57716 0.69561 0.0
C699 C 0.4151 0.54334 0.6983 0.0
C700 C 0.42594 0.55398 0.79312 0.0
C701 C 0.4128 0.59088 0.78729 0.0
N702 N 0.39071 0.63943 0.72884 0.0
N703 N 0.4525 0.50072 0.74951 0.0
C704 C 0.39907 0.60303 0.73734 0.0
C705 C 0.43124 0.53193 0.74712 0.0
N706 N 0.37151 0.58375 0.65474 0.0
N707 N 0.43177 0.53937 0.84257 0.0
H708 H 0.45772 0.48426 0.71654 0.0
H709 H 0.46781 0.4932 0.7829 0.0
H710 H 0.42665 0.55399 0.87742 0.0
H711 H 0.43778 0.51152 0.84911 0.0
H712 H 0.35368 0.60647 0.65398 0.0
H713 H 0.36702 0.56472 0.6244 0.0
H714 H 0.38367 0.64983 0.69147 0.0
H715 H 0.39452 0.65972 0.75761 0.0
C716 C 0.42585 0.38015 0.65551 0.0
C717 C 0.45973 0.39847 0.66314 0.0
C718 C 0.45269 0.39203 0.75935 0.0
C719 C 0.41596 0.37961 0.75148 0.0
N720 N 0.36532 0.3683 0.69115 0.0
N721 N 0.50427 0.42583 0.72266 0.0
C722 C 0.40185 0.37545 0.69926 0.0
C723 C 0.47299 0.40546 0.71521 0.0
N724 N 0.41743 0.36538 0.60722 0.0
N725 N 0.46871 0.38962 0.80841 0.0
H726 H 0.51932 0.43734 0.6915 0.0
H727 H 0.51322 0.43454 0.75986 0.0
H728 H 0.45519 0.37883 0.84151 0.0
H729 H 0.49659 0.39473 0.81511 0.0
H730 H 0.39479 0.34819 0.60138 0.0
H731 H 0.43482 0.36761 0.57435 0.0
H732 H 0.35332 0.36845 0.6535 0.0
H733 H 0.34637 0.36594 0.72213 0.0
C734 C 0.64773 0.46734 0.70465 0.0
C735 C 0.61733 0.45138 0.6771 0.0
C736 C 0.61063 0.40501 0.74714 0.0
C737 C 0.63905 0.42219 0.77643 0.0
N738 N 0.68912 0.46554 0.78101 0.0
N739 N 0.5871 0.39376 0.65977 0.0
C740 C 0.65909 0.45216 0.75446 0.0
C741 C 0.60354 0.41693 0.69465 0.0
N742 N 0.66617 0.49633 0.68215 0.0
N743 N 0.58995 0.37757 0.76955 0.0
H744 H 0.58886 0.39887 0.61947 0.0
H745 H 0.57859 0.36709 0.66944 0.0
H746 H 0.59451 0.36749 0.80787 0.0
H747 H 0.56631 0.3671 0.75154 0.0
H748 H 0.68519 0.51273 0.7019 0.0
H749 H 0.66289 0.50351 0.64223 0.0
H750 H 0.70653 0.48598 0.76654 0.0
H751 H 0.69779 0.45501 0.81759 0.0
C752 C 0.57611 0.50323 0.28109 0.0
C753 C 0.57696 0.48883 0.33349 0.0
C754 C 0.59919 0.42941 0.30033 0.0
C755 C 0.60229 0.44482 0.24874 0.0
N756 N 0.60047 0.49884 0.19183 0.0
N757 N 0.59921 0.44183 0.39422 0.0
C758 C 0.59255 0.48247 0.23946 0.0
C759 C 0.59119 0.4529 0.34355 0.0
N760 N 0.5588 0.53616 0.27087 0.0
N761 N 0.60283 0.39214 0.30805 0.0
H762 H 0.59517 0.45854 0.42735 0.0
H763 H 0.61391 0.41767 0.40253 0.0
H764 H 0.6075 0.37362 0.2771 0.0
H765 H 0.59722 0.37929 0.34427 0.0
H766 H 0.554 0.54616 0.23262 0.0
H767 H 0.54631 0.55197 0.30048 0.0
H768 H 0.59735 0.5271 0.18488 0.0
H769 H 0.61346 0.48491 0.16081 0.0
C770 C 0.51857 0.67815 0.29162 0.0
C771 C 0.53007 0.66143 0.34002 0.0
C772 C 0.58297 0.63297 0.29533 0.0
C773 C 0.57264 0.65086 0.24751 0.0
N774 N 0.53372 0.69406 0.20027 0.0
N775 N 0.57859 0.63254 0.39093 0.0
C776 C 0.54122 0.67448 0.24561 0.0
C777 C 0.56374 0.64143 0.34268 0.0
N778 N 0.48581 0.69695 0.28951 0.0
N779 N 0.61075 0.60725 0.29531 0.0
H780 H 0.56611 0.63979 0.42673 0.0
H781 H 0.6052 0.62198 0.39534 0.0
H782 H 0.62541 0.60007 0.2612 0.0
H783 H 0.61698 0.59058 0.32794 0.0
H784 H 0.47368 0.70628 0.25445 0.0
H785 H 0.4693 0.70129 0.32281 0.0
H786 H 0.51357 0.71455 0.19753 0.0
H787 H 0.54926 0.69139 0.16563 0.0
C788 C 0.46368 0.52117 0.29189 0.0
C789 C 0.45022 0.53297 0.34192 0.0
C790 C 0.43714 0.59446 0.30529 0.0
C791 C 0.44621 0.58135 0.25385 0.0
N792 N 0.46379 0.53079 0.19662 0.0
N793 N 0.41879 0.57896 0.39494 0.0
C794 C 0.45865 0.54437 0.24668 0.0
C795 C 0.43583 0.56924 0.34849 0.0
N796 N 0.48194 0.48816 0.28788 0.0
N797 N 0.42973 0.63115 0.31281 0.0
H798 H 0.41604 0.56112 0.42728 0.0
H799 H 0.40421 0.60357 0.39995 0.0
H800 H 0.42949 0.65036 0.28185 0.0
H801 H 0.42692 0.64316 0.35011 0.0
H802 H 0.4956 0.47954 0.25369 0.0
H803 H 0.4864 0.47081 0.32041 0.0
H804 H 0.46882 0.50299 0.18868 0.0
H805 H 0.46015 0.54668 0.1624 0.0
C806 C 0.47391 0.37294 0.25381 0.0
C807 C 0.46015 0.37946 0.30562 0.0
C808 C 0.39709 0.38235 0.27042 0.0
C809 C 0.41059 0.37135 0.22 0.0
N810 N 0.46121 0.34935 0.16606 0.0
N811 N 0.40826 0.38488 0.36522 0.0
C812 C 0.44886 0.36477 0.21229 0.0
C813 C 0.4216 0.38289 0.31454 0.0
N814 N 0.51085 0.37592 0.24374 0.0
N815 N 0.3611 0.39308 0.27586 0.0
H816 H 0.42525 0.38483 0.39865 0.0
H817 H 0.38029 0.38326 0.37438 0.0
H818 H 0.34241 0.39295 0.24435 0.0
H819 H 0.35065 0.40507 0.31029 0.0
H820 H 0.52196 0.37517 0.20561 0.0
H821 H 0.53 0.38298 0.27282 0.0
H822 H 0.48828 0.34031 0.1607 0.0
H823 H 0.44378 0.34229 0.13478 0.0
loop_
_geom_bond_atom_site_label_1
_geom_bond_atom_site_label_2
_geom_bond_distance
_geom_bond_site_symmetry_2
_ccdc_geom_bond_type
Zn0 O2 1.933 1_556 S
Zn0 O20 1.985 . S
Zn0 O31 1.955 . S
Zn1 O2 1.911 . S
Zn1 O21 1.970 . S
Zn1 O37 1.945 . S
Zn1 O44 1.981 . S
O2 Zn0 1.933 1_554 S
O2 Zn1 1.911 . S
O2 H3 0.841 1_655 S
H3 O2 0.841 1_455 S
C4 O5 1.246 . S
C4 O33 1.276 1_545 S
O5 C4 1.246 . S
Zn6 O8 1.911 . S
Zn6 O23 1.970 . S
Zn6 O40 1.945 . S
Zn6 O47 1.981 . S
Zn7 O8 1.933 1_556 S
Zn7 O22 1.985 . S
Zn7 O29 1.955 . S
O8 Zn6 1.911 . S
O8 Zn7 1.933 1_554 S
O8 H9 0.841 1_455 S
H9 O8 0.841 1_655 S
Zn10 O11 1.933 1_556 S
Zn10 O24 1.985 . S
Zn10 O33 1.955 . S
O11 Zn10 1.933 1_554 S
O11 Zn12 1.911 . S
O11 H13 0.841 1_565 S
Zn12 O11 1.911 . S
Zn12 O25 1.970 . S
Zn12 O41 1.981 . S
Zn12 O43 1.945 . S
H13 O11 0.841 1_545 S
Zn14 O15 1.933 1_556 S
Zn14 O27 1.985 . S
Zn14 O35 1.955 . S
O15 Zn14 1.933 1_554 S
O15 H16 0.841 1_545 S
O15 Zn17 1.911 . S
H16 O15 0.841 1_565 S
Zn17 O15 1.911 . S
Zn17 O28 1.970 . S
Zn17 O38 1.981 . S
Zn17 O46 1.945 . S
C18 O19 1.246 . S
C18 O35 1.276 1_565 S
O19 C18 1.246 . S
O20 Zn0 1.985 . S
O20 C30 1.245 1_556 S
O21 Zn1 1.970 . S
O21 C30 1.263 . S
O22 Zn7 1.985 . S
O22 C34 1.245 1_556 S
O23 Zn6 1.970 . S
O23 C34 1.263 . S
O24 Zn10 1.985 . S
O24 C39 1.245 1_556 S
O25 Zn12 1.970 . S
O25 C39 1.263 . S
C26 O37 1.262 1_455 S
C26 O38 1.245 . S
O27 Zn14 1.985 . S
O27 C45 1.245 1_556 S
O28 Zn17 1.970 . S
O28 C45 1.263 . S
O29 Zn7 1.955 . S
O29 C48 1.276 1_455 S
C30 O20 1.245 1_554 S
C30 O21 1.263 . S
O31 Zn0 1.955 . S
O31 C50 1.276 1_655 S
C32 O40 1.262 1_655 S
C32 O41 1.245 . S
O33 C4 1.276 1_565 S
O33 Zn10 1.955 . S
C34 O22 1.245 1_554 S
C34 O23 1.263 . S
O35 Zn14 1.955 . S
O35 C18 1.276 1_545 S
C36 O43 1.262 1_545 S
C36 O44 1.245 . S
O37 Zn1 1.945 . S
O37 C26 1.262 1_655 S
O38 Zn17 1.981 . S
O38 C26 1.245 . S
C39 O24 1.245 1_554 S
C39 O25 1.263 . S
O40 Zn6 1.945 . S
O40 C32 1.262 1_455 S
O41 Zn12 1.981 . S
O41 C32 1.245 . S
C42 O46 1.262 1_565 S
C42 O47 1.245 . S
O43 Zn12 1.945 . S
O43 C36 1.262 1_565 S
O44 Zn1 1.981 . S
O44 C36 1.245 . S
C45 O27 1.245 1_554 S
C45 O28 1.263 . S
O46 Zn17 1.945 . S
O46 C42 1.262 1_545 S
O47 Zn6 1.981 . S
O47 C42 1.245 . S
C48 O29 1.276 1_655 S
C48 O49 1.246 . S
O49 C48 1.246 . S
C50 O31 1.276 1_455 S
C50 O51 1.246 . S
O51 C50 1.246 . S
Zn52 O54 1.933 . S
Zn52 O72 1.985 . S
Zn52 O83 1.955 . S
Zn53 O54 1.911 . S
Zn53 O73 1.970 . S
Zn53 O89 1.945 . S
Zn53 O96 1.981 . S
O54 Zn52 1.933 . S
O54 Zn53 1.911 . S
O54 H55 0.841 . S
H55 O54 0.841 . S
C56 O57 1.246 . S
C56 O85 1.276 . S
O57 C56 1.246 . S
Zn58 O60 1.911 . S
Zn58 O75 1.970 . S
Zn58 O92 1.945 . S
Zn58 O99 1.981 . S
Zn59 O60 1.933 . S
Zn59 O74 1.985 . S
Zn59 O81 1.955 . S
O60 Zn58 1.911 . S
O60 Zn59 1.933 . S
O60 H61 0.841 . S
H61 O60 0.841 . S
Zn62 O63 1.933 . S
Zn62 O76 1.985 . S
Zn62 O85 1.955 . S
O63 Zn62 1.933 . S
O63 Zn64 1.911 . S
O63 H65 0.841 . S
Zn64 O63 1.911 . S
Zn64 O77 1.970 . S
Zn64 O93 1.981 . S
Zn64 O95 1.945 . S
H65 O63 0.841 . S
Zn66 O67 1.933 . S
Zn66 O79 1.985 . S
Zn66 O87 1.955 . S
O67 Zn66 1.933 . S
O67 H68 0.841 . S
O67 Zn69 1.911 . S
H68 O67 0.841 . S
Zn69 O67 1.911 . S
Zn69 O80 1.970 . S
Zn69 O90 1.981 . S
Zn69 O98 1.945 . S
C70 O71 1.246 . S
C70 O87 1.276 . S
O71 C70 1.246 . S
O72 Zn52 1.985 . S
O72 C82 1.245 . S
O73 Zn53 1.970 . S
O73 C82 1.263 . S
O74 Zn59 1.985 . S
O74 C86 1.245 . S
O75 Zn58 1.970 . S
O75 C86 1.263 . S
O76 Zn62 1.985 . S
O76 C91 1.245 . S
O77 Zn64 1.970 . S
O77 C91 1.263 . S
C78 O89 1.262 . S
C78 O90 1.245 . S
O79 Zn66 1.985 . S
O79 C97 1.245 . S
O80 Zn69 1.970 . S
O80 C97 1.263 . S
O81 Zn59 1.955 . S
O81 C100 1.276 . S
C82 O72 1.245 . S
C82 O73 1.263 . S
O83 Zn52 1.955 . S
O83 C102 1.276 . S
C84 O92 1.262 . S
C84 O93 1.245 . S
O85 C56 1.276 . S
O85 Zn62 1.955 . S
C86 O74 1.245 . S
C86 O75 1.263 . S
O87 Zn66 1.955 . S
O87 C70 1.276 . S
C88 O95 1.262 . S
C88 O96 1.245 . S
O89 Zn53 1.945 . S
O89 C78 1.262 . S
O90 Zn69 1.981 . S
O90 C78 1.245 . S
C91 O76 1.245 . S
C91 O77 1.263 . S
O92 Zn58 1.945 . S
O92 C84 1.262 . S
O93 Zn64 1.981 . S
O93 C84 1.245 . S
C94 O98 1.262 . S
C94 O99 1.245 . S
O95 Zn64 1.945 . S
O95 C88 1.262 . S
O96 Zn53 1.981 . S
O96 C88 1.245 . S
C97 O79 1.245 . S
C97 O80 1.263 . S
O98 Zn69 1.945 . S
O98 C94 1.262 . S
O99 Zn58 1.981 . S
O99 C94 1.245 . S
C100 O81 1.276 . S
C100 O101 1.246 . S
O101 C100 1.246 . S
C102 O83 1.276 . S
C102 O103 1.246 . S
O103 C102 1.246 . S
C104 C105 1.384 . S
C104 H117 0.947 . S
C104 C139 1.382 . S
C105 C104 1.384 . S
C105 C106 1.378 . S
C106 C105 1.378 . S
C106 C107 1.378 . S
C106 H118 0.952 . S
C107 C106 1.378 . S
C107 H119 0.950 . S
C107 C138 1.383 . S
H108 C127 0.947 . S
H109 C128 0.946 . S
H110 C130 0.953 . S
H111 C131 0.945 . S
H112 C133 0.952 . S
H113 C134 0.949 . S
H114 C136 0.950 . S
H115 C137 0.948 . S
H116 C139 0.951 . S
H117 C104 0.947 . S
H118 C106 0.952 . S
H119 C107 0.950 . S
N120 C123 1.382 . S
N120 C125 1.363 . S
N121 C123 1.371 1_556 S
N121 C124 1.372 . S
N122 C124 1.361 1_554 S
N122 C125 1.377 . S
C123 N120 1.382 . S
C123 N121 1.371 1_554 S
C123 C126 1.480 . S
C124 N121 1.372 . S
C124 N122 1.361 1_556 S
C124 C132 1.457 . S
C125 N120 1.363 . S
C125 N122 1.377 . S
C125 C138 1.479 . S
C126 C123 1.480 . S
C126 C127 1.383 . S
C126 C131 1.385 1_554 S
C127 H108 0.947 . S
C127 C126 1.383 . S
C127 C128 1.388 . S
C128 H109 0.946 . S
C128 C127 1.388 . S
C128 C129 1.384 . S
C129 C128 1.384 . S
C129 C130 1.377 1_554 S
C130 H110 0.953 . S
C130 C129 1.377 1_556 S
C130 C131 1.369 . S
C131 H111 0.945 . S
C131 C126 1.385 1_556 S
C131 C130 1.369 . S
C132 C124 1.457 . S
C132 C133 1.372 . S
C132 C137 1.364 . S
C133 H112 0.952 . S
C133 C132 1.372 . S
C133 C134 1.389 . S
C134 H113 0.949 . S
C134 C133 1.389 . S
C134 C135 1.387 . S
C135 C134 1.387 . S
C135 C136 1.372 . S
C136 H114 0.950 . S
C136 C135 1.372 . S
C136 C137 1.379 . S
C137 H115 0.948 . S
C137 C132 1.364 . S
C137 C136 1.379 . S
C138 C107 1.383 . S
C138 C125 1.479 . S
C138 C139 1.398 . S
C139 C104 1.382 . S
C139 H116 0.951 . S
C139 C138 1.398 . S
C140 C141 1.384 . S
C140 H153 0.947 . S
C140 C175 1.382 . S
C141 C140 1.384 . S
C141 C142 1.378 . S
C142 C141 1.378 . S
C142 C143 1.378 . S
C142 H154 0.952 . S
C143 C142 1.378 . S
C143 H155 0.950 . S
C143 C174 1.383 . S
H144 C163 0.947 . S
H145 C164 0.946 . S
H146 C166 0.953 . S
H147 C167 0.945 . S
H148 C169 0.952 . S
H149 C170 0.949 . S
H150 C172 0.950 . S
H151 C173 0.948 . S
H152 C175 0.951 . S
H153 C140 0.947 . S
H154 C142 0.952 . S
H155 C143 0.950 . S
N156 C159 1.382 . S
N156 C161 1.363 . S
N157 C159 1.371 1_556 S
N157 C160 1.372 . S
N158 C160 1.361 1_554 S
N158 C161 1.377 . S
C159 N156 1.382 . S
C159 N157 1.371 1_554 S
C159 C162 1.480 . S
C160 N157 1.372 . S
C160 N158 1.361 1_556 S
C160 C168 1.457 . S
C161 N156 1.363 . S
C161 N158 1.377 . S
C161 C174 1.479 . S
C162 C159 1.480 . S
C162 C163 1.383 . S
C162 C167 1.385 1_554 S
C163 H144 0.947 . S
C163 C162 1.383 . S
C163 C164 1.388 . S
C164 H145 0.946 . S
C164 C163 1.388 . S
C164 C165 1.384 . S
C165 C164 1.384 . S
C165 C166 1.377 1_554 S
C166 H146 0.953 . S
C166 C165 1.377 1_556 S
C166 C167 1.369 . S
C167 H147 0.945 . S
C167 C162 1.385 1_556 S
C167 C166 1.369 . S
C168 C160 1.457 . S
C168 C169 1.372 . S
C168 C173 1.364 . S
C169 H148 0.952 . S
C169 C168 1.372 . S
C169 C170 1.389 . S
C170 H149 0.949 . S
C170 C169 1.389 . S
C170 C171 1.387 . S
C171 C170 1.387 . S
C171 C172 1.372 . S
C172 H150 0.950 . S
C172 C171 1.372 . S
C172 C173 1.379 . S
C173 H151 0.948 . S
C173 C168 1.364 . S
C173 C172 1.379 . S
C174 C143 1.383 . S
C174 C161 1.479 . S
C174 C175 1.398 . S
C175 C140 1.382 . S
C175 H152 0.951 . S
C175 C174 1.398 . S
C176 C177 1.384 . S
C176 H189 0.947 . S
C176 C211 1.382 . S
C177 C176 1.384 . S
C177 C178 1.378 . S
C178 C177 1.378 . S
C178 C179 1.378 . S
C178 H190 0.952 . S
C179 C178 1.378 . S
C179 H191 0.950 . S
C179 C210 1.383 . S
H180 C199 0.947 . S
H181 C200 0.946 . S
H182 C202 0.953 . S
H183 C203 0.945 . S
H184 C205 0.952 . S
H185 C206 0.949 . S
H186 C208 0.950 . S
H187 C209 0.948 . S
H188 C211 0.951 . S
H189 C176 0.947 . S
H190 C178 0.952 . S
H191 C179 0.950 . S
N192 C195 1.382 1_556 S
N192 C197 1.363 . S
N193 C195 1.371 . S
N193 C196 1.372 . S
N194 C196 1.361 . S
N194 C197 1.377 1_554 S
C195 N192 1.382 1_554 S
C195 N193 1.371 . S
C195 C198 1.480 . S
C196 N193 1.372 . S
C196 N194 1.361 . S
C196 C204 1.457 . S
C197 N192 1.363 . S
C197 N194 1.377 1_556 S
C197 C210 1.479 . S
C198 C195 1.480 . S
C198 C199 1.383 1_554 S
C198 C203 1.385 . S
C199 H180 0.947 . S
C199 C198 1.383 1_556 S
C199 C200 1.388 . S
C200 H181 0.946 . S
C200 C199 1.388 . S
C200 C201 1.384 1_556 S
C201 C200 1.384 1_554 S
C201 C202 1.377 . S
C202 H182 0.953 . S
C202 C201 1.377 . S
C202 C203 1.369 . S
C203 H183 0.945 . S
C203 C198 1.385 . S
C203 C202 1.369 . S
C204 C196 1.457 . S
C204 C205 1.372 . S
C204 C209 1.364 . S
C205 H184 0.952 . S
C205 C204 1.372 . S
C205 C206 1.389 . S
C206 H185 0.949 . S
C206 C205 1.389 . S
C206 C207 1.387 . S
C207 C206 1.387 . S
C207 C208 1.372 . S
C208 H186 0.950 . S
C208 C207 1.372 . S
C208 C209 1.379 . S
C209 H187 0.948 . S
C209 C204 1.364 . S
C209 C208 1.379 . S
C210 C179 1.383 . S
C210 C197 1.479 . S
C210 C211 1.398 . S
C211 C176 1.382 . S
C211 H188 0.951 . S
C211 C210 1.398 . S
C212 C213 1.384 . S
C212 H225 0.947 . S
C212 C247 1.382 . S
C213 C212 1.384 . S
C213 C214 1.378 . S
C214 C213 1.378 . S
C214 C215 1.378 . S
C214 H226 0.952 . S
C215 C214 1.378 . S
C215 H227 0.950 . S
C215 C246 1.383 . S
H216 C235 0.947 . S
H217 C236 0.946 . S
H218 C238 0.953 . S
H219 C239 0.945 . S
H220 C241 0.952 . S
H221 C242 0.949 . S
H222 C244 0.950 . S
H223 C245 0.948 . S
H224 C247 0.951 . S
H225 C212 0.947 . S
H226 C214 0.952 . S
H227 C215 0.950 . S
N228 C231 1.382 1_556 S
N228 C233 1.363 . S
N229 C231 1.371 . S
N229 C232 1.372 . S
N230 C232 1.361 . S
N230 C233 1.377 1_554 S
C231 N228 1.382 1_554 S
C231 N229 1.371 . S
C231 C234 1.480 . S
C232 N229 1.372 . S
C232 N230 1.361 . S
C232 C240 1.457 . S
C233 N228 1.363 . S
C233 N230 1.377 1_556 S
C233 C246 1.479 . S
C234 C231 1.480 . S
C234 C235 1.383 1_554 S
C234 C239 1.385 . S
C235 H216 0.947 . S
C235 C234 1.383 1_556 S
C235 C236 1.388 . S
C236 H217 0.946 . S
C236 C235 1.388 . S
C236 C237 1.384 1_556 S
C237 C236 1.384 1_554 S
C237 C238 1.377 . S
C238 H218 0.953 . S
C238 C237 1.377 . S
C238 C239 1.369 . S
C239 H219 0.945 . S
C239 C234 1.385 . S
C239 C238 1.369 . S
C240 C232 1.457 . S
C240 C241 1.372 . S
C240 C245 1.364 . S
C241 H220 0.952 . S
C241 C240 1.372 . S
C241 C242 1.389 . S
C242 H221 0.949 . S
C242 C241 1.389 . S
C242 C243 1.387 . S
C243 C242 1.387 . S
C243 C244 1.372 . S
C244 H222 0.950 . S
C244 C243 1.372 . S
C244 C245 1.379 . S
C245 H223 0.948 . S
C245 C240 1.364 . S
C245 C244 1.379 . S
C246 C215 1.383 . S
C246 C233 1.479 . S
C246 C247 1.398 . S
C247 C212 1.382 . S
C247 H224 0.951 . S
C247 C246 1.398 . S
C248 C249 1.384 . S
C248 H261 0.947 . S
C248 C283 1.382 . S
C249 C248 1.384 . S
C249 C250 1.378 . S
C250 C249 1.378 . S
C250 C251 1.378 . S
C250 H262 0.952 . S
C251 C250 1.378 . S
C251 H263 0.950 . S
C251 C282 1.383 . S
H252 C271 0.947 . S
H253 C272 0.946 . S
H254 C274 0.953 . S
H255 C275 0.945 . S
H256 C277 0.952 . S
H257 C278 0.949 . S
H258 C280 0.950 . S
H259 C281 0.948 . S
H260 C283 0.951 . S
H261 C248 0.947 . S
H262 C250 0.952 . S
H263 C251 0.950 . S
N264 C267 1.382 . S
N264 C269 1.363 . S
N265 C267 1.371 . S
N265 C268 1.372 . S
N266 C268 1.361 . S
N266 C269 1.377 . S
C267 N264 1.382 . S
C267 N265 1.371 . S
C267 C270 1.480 . S
C268 N265 1.372 . S
C268 N266 1.361 . S
C268 C276 1.457 . S
C269 N264 1.363 . S
C269 N266 1.377 . S
C269 C282 1.479 . S
C270 C267 1.480 . S
C270 C271 1.383 . S
C270 C275 1.385 . S
C271 H252 0.947 . S
C271 C270 1.383 . S
C271 C272 1.388 . S
C272 H253 0.946 . S
C272 C271 1.388 . S
C272 C273 1.384 . S
C273 C272 1.384 . S
C273 C274 1.377 . S
C274 H254 0.953 . S
C274 C273 1.377 . S
C274 C275 1.369 . S
C275 H255 0.945 . S
C275 C270 1.385 . S
C275 C274 1.369 . S
C276 C268 1.457 . S
C276 C277 1.372 . S
C276 C281 1.364 . S
C277 H256 0.952 . S
C277 C276 1.372 . S
C277 C278 1.389 . S
C278 H257 0.949 . S
C278 C277 1.389 . S
C278 C279 1.387 . S
C279 C278 1.387 . S
C279 C280 1.372 . S
C280 H258 0.950 . S
C280 C279 1.372 . S
C280 C281 1.379 . S
C281 H259 0.948 . S
C281 C276 1.364 . S
C281 C280 1.379 . S
C282 C251 1.383 . S
C282 C269 1.479 . S
C282 C283 1.398 . S
C283 C248 1.382 . S
C283 H260 0.951 . S
C283 C282 1.398 . S
C284 C285 1.384 . S
C284 H297 0.947 . S
C284 C319 1.382 . S
C285 C284 1.384 . S
C285 C286 1.378 . S
C286 C285 1.378 . S
C286 C287 1.378 . S
C286 H298 0.952 . S
C287 C286 1.378 . S
C287 H299 0.950 . S
C287 C318 1.383 . S
H288 C307 0.947 . S
H289 C308 0.946 . S
H290 C310 0.953 . S
H291 C311 0.945 . S
H292 C313 0.952 . S
H293 C314 0.949 . S
H294 C316 0.950 . S
H295 C317 0.948 . S
H296 C319 0.951 . S
H297 C284 0.947 . S
H298 C286 0.952 . S
H299 C287 0.950 . S
N300 C303 1.382 . S
N300 C305 1.363 . S
N301 C303 1.371 . S
N301 C304 1.372 . S
N302 C304 1.361 . S
N302 C305 1.377 . S
C303 N300 1.382 . S
C303 N301 1.371 . S
C303 C306 1.480 . S
C304 N301 1.372 . S
C304 N302 1.361 . S
C304 C312 1.457 . S
C305 N300 1.363 . S
C305 N302 1.377 . S
C305 C318 1.479 . S
C306 C303 1.480 . S
C306 C307 1.383 . S
C306 C311 1.385 . S
C307 H288 0.947 . S
C307 C306 1.383 . S
C307 C308 1.388 . S
C308 H289 0.946 . S
C308 C307 1.388 . S
C308 C309 1.384 . S
C309 C308 1.384 . S
C309 C310 1.377 . S
C310 H290 0.953 . S
C310 C309 1.377 . S
C310 C311 1.369 . S
C311 H291 0.945 . S
C311 C306 1.385 . S
C311 C310 1.369 . S
C312 C304 1.457 . S
C312 C313 1.372 . S
C312 C317 1.364 . S
C313 H292 0.952 . S
C313 C312 1.372 . S
C313 C314 1.389 . S
C314 H293 0.949 . S
C314 C313 1.389 . S
C314 C315 1.387 . S
C315 C314 1.387 . S
C315 C316 1.372 . S
C316 H294 0.950 . S
C316 C315 1.372 . S
C316 C317 1.379 . S
C317 H295 0.948 . S
C317 C312 1.364 . S
C317 C316 1.379 . S
C318 C287 1.383 . S
C318 C305 1.479 . S
C318 C319 1.398 . S
C319 C284 1.382 . S
C319 H296 0.951 . S
C319 C318 1.398 . S
C320 C321 1.384 . S
C320 H333 0.947 . S
C320 C355 1.382 . S
C321 C320 1.384 . S
C321 C322 1.378 . S
C322 C321 1.378 . S
C322 C323 1.378 . S
C322 H334 0.952 . S
C323 C322 1.378 . S
C323 H335 0.950 . S
C323 C354 1.383 . S
H324 C343 0.947 . S
H325 C344 0.946 . S
H326 C346 0.953 . S
H327 C347 0.945 . S
H328 C349 0.952 . S
H329 C350 0.949 . S
H330 C352 0.950 . S
H331 C353 0.948 . S
H332 C355 0.951 . S
H333 C320 0.947 . S
H334 C322 0.952 . S
H335 C323 0.950 . S
N336 C339 1.382 . S
N336 C341 1.363 . S
N337 C339 1.371 . S
N337 C340 1.372 . S
N338 C340 1.361 . S
N338 C341 1.377 . S
C339 N336 1.382 . S
C339 N337 1.371 . S
C339 C342 1.480 . S
C340 N337 1.372 . S
C340 N338 1.361 . S
C340 C348 1.457 . S
C341 N336 1.363 . S
C341 N338 1.377 . S
C341 C354 1.479 . S
C342 C339 1.480 . S
C342 C343 1.383 . S
C342 C347 1.385 . S
C343 H324 0.947 . S
C343 C342 1.383 . S
C343 C344 1.388 . S
C344 H325 0.946 . S
C344 C343 1.388 . S
C344 C345 1.384 . S
C345 C344 1.384 . S
C345 C346 1.377 . S
C346 H326 0.953 . S
C346 C345 1.377 . S
C346 C347 1.369 . S
C347 H327 0.945 . S
C347 C342 1.385 . S
C347 C346 1.369 . S
C348 C340 1.457 . S
C348 C349 1.372 . S
C348 C353 1.364 . S
C349 H328 0.952 . S
C349 C348 1.372 . S
C349 C350 1.389 . S
C350 H329 0.949 . S
C350 C349 1.389 . S
C350 C351 1.387 . S
C351 C350 1.387 . S
C351 C352 1.372 . S
C352 H330 0.950 . S
C352 C351 1.372 . S
C352 C353 1.379 . S
C353 H331 0.948 . S
C353 C348 1.364 . S
C353 C352 1.379 . S
C354 C323 1.383 . S
C354 C341 1.479 . S
C354 C355 1.398 . S
C355 C320 1.382 . S
C355 H332 0.951 . S
C355 C354 1.398 . S
C356 C357 1.384 . S
C356 H369 0.947 . S
C356 C391 1.382 . S
C357 C356 1.384 . S
C357 C358 1.378 . S
C358 C357 1.378 . S
C358 C359 1.378 . S
C358 H370 0.952 . S
C359 C358 1.378 . S
C359 H371 0.950 . S
C359 C390 1.383 . S
H360 C379 0.947 . S
H361 C380 0.946 . S
H362 C382 0.953 . S
H363 C383 0.945 . S
H364 C385 0.952 . S
H365 C386 0.949 . S
H366 C388 0.950 . S
H367 C389 0.948 . S
H368 C391 0.951 . S
H369 C356 0.947 . S
H370 C358 0.952 . S
H371 C359 0.950 . S
N372 C375 1.382 . S
N372 C377 1.363 . S
N373 C375 1.371 . S
N373 C376 1.372 . S
N374 C376 1.361 . S
N374 C377 1.377 . S
C375 N372 1.382 . S
C375 N373 1.371 . S
C375 C378 1.480 . S
C376 N373 1.372 . S
C376 N374 1.361 . S
C376 C384 1.457 . S
C377 N372 1.363 . S
C377 N374 1.377 . S
C377 C390 1.479 . S
C378 C375 1.480 . S
C378 C379 1.383 . S
C378 C383 1.385 . S
C379 H360 0.947 . S
C379 C378 1.383 . S
C379 C380 1.388 . S
C380 H361 0.946 . S
C380 C379 1.388 . S
C380 C381 1.384 . S
C381 C380 1.384 . S
C381 C382 1.377 . S
C382 H362 0.953 . S
C382 C381 1.377 . S
C382 C383 1.369 . S
C383 H363 0.945 . S
C383 C378 1.385 . S
C383 C382 1.369 . S
C384 C376 1.457 . S
C384 C385 1.372 . S
C384 C389 1.364 . S
C385 H364 0.952 . S
C385 C384 1.372 . S
C385 C386 1.389 . S
C386 H365 0.949 . S
C386 C385 1.389 . S
C386 C387 1.387 . S
C387 C386 1.387 . S
C387 C388 1.372 . S
C388 H366 0.950 . S
C388 C387 1.372 . S
C388 C389 1.379 . S
C389 H367 0.948 . S
C389 C384 1.364 . S
C389 C388 1.379 . S
C390 C359 1.383 . S
C390 C377 1.479 . S
C390 C391 1.398 . S
C391 C356 1.382 . S
C391 H368 0.951 . S
C391 C390 1.398 . S
C392 C393 1.363 . S
C392 C398 1.379 . S
C392 N400 1.356 . S
C393 C392 1.363 . S
C393 C399 1.363 1_554 S
C394 C395 1.363 1_556 S
C394 C399 1.379 . S
C394 N401 1.356 . S
C395 C394 1.363 1_554 S
C395 C398 1.363 . S
N396 C398 1.356 . S
N396 H408 0.984 . S
N396 H409 0.985 . S
N397 C399 1.356 . S
N397 H402 0.984 . S
N397 H403 0.985 . S
C398 C392 1.379 . S
C398 C395 1.363 . S
C398 N396 1.356 . S
C399 C393 1.363 1_556 S
C399 C394 1.379 . S
C399 N397 1.356 . S
N400 C392 1.356 . S
N400 H406 0.984 . S
N400 H407 0.984 . S
N401 C394 1.356 . S
N401 H404 0.984 . S
N401 H405 0.985 . S
H402 N397 0.984 . S
H403 N397 0.985 . S
H404 N401 0.984 . S
H405 N401 0.985 . S
H406 N400 0.984 . S
H407 N400 0.984 . S
H408 N396 0.984 . S
H409 N396 0.985 . S
C410 C411 1.363 1_556 S
C410 C416 1.379 . S
C410 N418 1.356 . S
C411 C410 1.363 1_554 S
C411 C417 1.363 . S
C412 C413 1.363 . S
C412 C417 1.379 . S
C412 N419 1.356 . S
C413 C412 1.363 . S
C413 C416 1.363 1_554 S
N414 C416 1.356 . S
N414 H426 0.984 . S
N414 H427 0.985 . S
N415 C417 1.356 . S
N415 H420 0.984 . S
N415 H421 0.985 . S
C416 C410 1.379 . S
C416 C413 1.363 1_556 S
C416 N414 1.356 . S
C417 C411 1.363 . S
C417 C412 1.379 . S
C417 N415 1.356 . S
N418 C410 1.356 . S
N418 H424 0.984 . S
N418 H425 0.984 . S
N419 C412 1.356 . S
N419 H422 0.984 . S
N419 H423 0.985 . S
H420 N415 0.984 . S
H421 N415 0.985 . S
H422 N419 0.984 . S
H423 N419 0.985 . S
H424 N418 0.984 . S
H425 N418 0.984 . S
H426 N414 0.984 . S
H427 N414 0.985 . S
C428 C429 1.363 . S
C428 C434 1.379 . S
C428 N436 1.356 . S
C429 C428 1.363 . S
C429 C435 1.363 1_554 S
C430 C431 1.363 1_556 S
C430 C435 1.379 . S
C430 N437 1.356 . S
C431 C430 1.363 1_554 S
C431 C434 1.363 . S
N432 C434 1.356 . S
N432 H444 0.984 . S
N432 H445 0.985 . S
N433 C435 1.356 . S
N433 H438 0.984 . S
N433 H439 0.985 . S
C434 C428 1.379 . S
C434 C431 1.363 . S
C434 N432 1.356 . S
C435 C429 1.363 1_556 S
C435 C430 1.379 . S
C435 N433 1.356 . S
N436 C428 1.356 . S
N436 H442 0.984 . S
N436 H443 0.984 . S
N437 C430 1.356 . S
N437 H440 0.984 . S
N437 H441 0.985 . S
H438 N433 0.984 . S
H439 N433 0.985 . S
H440 N437 0.984 . S
H441 N437 0.985 . S
H442 N436 0.984 . S
H443 N436 0.984 . S
H444 N432 0.984 . S
H445 N432 0.985 . S
C446 C447 1.363 1_556 S
C446 C452 1.379 . S
C446 N454 1.356 . S
C447 C446 1.363 1_554 S
C447 C453 1.363 . S
C448 C449 1.363 . S
C448 C453 1.379 . S
C448 N455 1.356 . S
C449 C448 1.363 . S
C449 C452 1.363 1_554 S
N450 C452 1.356 . S
N450 H462 0.984 . S
N450 H463 0.985 . S
N451 C453 1.356 . S
N451 H456 0.984 . S
N451 H457 0.985 . S
C452 C446 1.379 . S
C452 C449 1.363 1_556 S
C452 N450 1.356 . S
C453 C447 1.363 . S
C453 C448 1.379 . S
C453 N451 1.356 . S
N454 C446 1.356 . S
N454 H460 0.984 . S
N454 H461 0.984 . S
N455 C448 1.356 . S
N455 H458 0.984 . S
N455 H459 0.985 . S
H456 N451 0.984 . S
H457 N451 0.985 . S
H458 N455 0.984 . S
H459 N455 0.985 . S
H460 N454 0.984 . S
H461 N454 0.984 . S
H462 N450 0.984 . S
H463 N450 0.985 . S
C464 C465 1.363 . S
C464 C470 1.379 . S
C464 N472 1.356 . S
C465 C464 1.363 . S
C465 C471 1.363 . S
C466 C467 1.363 . S
C466 C471 1.379 . S
C466 N473 1.356 . S
C467 C466 1.363 . S
C467 C470 1.363 . S
N468 C470 1.356 . S
N468 H480 0.984 . S
N468 H481 0.985 . S
N469 C471 1.356 . S
N469 H474 0.984 . S
N469 H475 0.985 . S
C470 C464 1.379 . S
C470 C467 1.363 . S
C470 N468 1.356 . S
C471 C465 1.363 . S
C471 C466 1.379 . S
C471 N469 1.356 . S
N472 C464 1.356 . S
N472 H478 0.984 . S
N472 H479 0.984 . S
N473 C466 1.356 . S
N473 H476 0.984 . S
N473 H477 0.985 . S
H474 N469 0.984 . S
H475 N469 0.985 . S
H476 N473 0.984 . S
H477 N473 0.985 . S
H478 N472 0.984 . S
H479 N472 0.984 . S
H480 N468 0.984 . S
H481 N468 0.985 . S
C482 C483 1.363 . S
C482 C488 1.379 . S
C482 N490 1.356 . S
C483 C482 1.363 . S
C483 C489 1.363 . S
C484 C485 1.363 . S
C484 C489 1.379 . S
C484 N491 1.356 . S
C485 C484 1.363 . S
C485 C488 1.363 . S
N486 C488 1.356 . S
N486 H498 0.984 . S
N486 H499 0.985 . S
N487 C489 1.356 . S
N487 H492 0.984 . S
N487 H493 0.985 . S
C488 C482 1.379 . S
C488 C485 1.363 . S
C488 N486 1.356 . S
C489 C483 1.363 . S
C489 C484 1.379 . S
C489 N487 1.356 . S
N490 C482 1.356 . S
N490 H496 0.984 . S
N490 H497 0.984 . S
N491 C484 1.356 . S
N491 H494 0.984 . S
N491 H495 0.985 . S
H492 N487 0.984 . S
H493 N487 0.985 . S
H494 N491 0.984 . S
H495 N491 0.985 . S
H496 N490 0.984 . S
H497 N490 0.984 . S
H498 N486 0.984 . S
H499 N486 0.985 . S
C500 C501 1.363 . S
C500 C506 1.379 . S
C500 N508 1.356 . S
C501 C500 1.363 . S
C501 C507 1.363 . S
C502 C503 1.363 . S
C502 C507 1.379 . S
C502 N509 1.356 . S
C503 C502 1.363 . S
C503 C506 1.363 . S
N504 C506 1.356 . S
N504 H516 0.984 . S
N504 H517 0.985 . S
N505 C507 1.356 . S
N505 H510 0.984 . S
N505 H511 0.985 . S
C506 C500 1.379 . S
C506 C503 1.363 . S
C506 N504 1.356 . S
C507 C501 1.363 . S
C507 C502 1.379 . S
C507 N505 1.356 . S
N508 C500 1.356 . S
N508 H514 0.984 . S
N508 H515 0.984 . S
N509 C502 1.356 . S
N509 H512 0.984 . S
N509 H513 0.985 . S
H510 N505 0.984 . S
H511 N505 0.985 . S
H512 N509 0.984 . S
H513 N509 0.985 . S
H514 N508 0.984 . S
H515 N508 0.984 . S
H516 N504 0.984 . S
H517 N504 0.985 . S
C518 C519 1.363 . S
C518 C524 1.379 . S
C518 N526 1.356 . S
C519 C518 1.363 . S
C519 C525 1.363 . S
C520 C521 1.363 . S
C520 C525 1.379 . S
C520 N527 1.356 . S
C521 C520 1.363 . S
C521 C524 1.363 . S
N522 C524 1.356 . S
N522 H534 0.984 . S
N522 H535 0.985 . S
N523 C525 1.356 . S
N523 H528 0.984 . S
N523 H529 0.985 . S
C524 C518 1.379 . S
C524 C521 1.363 . S
C524 N522 1.356 . S
C525 C519 1.363 . S
C525 C520 1.379 . S
C525 N523 1.356 . S
N526 C518 1.356 . S
N526 H532 0.984 . S
N526 H533 0.984 . S
N527 C520 1.356 . S
N527 H530 0.984 . S
N527 H531 0.985 . S
H528 N523 0.984 . S
H529 N523 0.985 . S
H530 N527 0.984 . S
H531 N527 0.985 . S
H532 N526 0.984 . S
H533 N526 0.984 . S
H534 N522 0.984 . S
H535 N522 0.985 . S
C536 C537 1.363 . S
C536 C542 1.379 . S
C536 N544 1.356 . S
C537 C536 1.363 . S
C537 C543 1.363 . S
C538 C539 1.363 . S
C538 C543 1.379 . S
C538 N545 1.356 1_455 S
C539 C538 1.363 . S
C539 C542 1.363 . S
N540 C542 1.356 . S
N540 H552 0.984 . S
N540 H553 0.985 . S
N541 C543 1.356 1_655 S
N541 H546 0.984 . S
N541 H547 0.985 . S
C542 C536 1.379 . S
C542 C539 1.363 . S
C542 N540 1.356 . S
C543 C537 1.363 . S
C543 C538 1.379 . S
C543 N541 1.356 1_455 S
N544 C536 1.356 . S
N544 H550 0.984 . S
N544 H551 0.984 . S
N545 C538 1.356 1_655 S
N545 H548 0.984 1_655 S
N545 H549 0.985 . S
H546 N541 0.984 . S
H547 N541 0.985 . S
H548 N545 0.984 1_455 S
H549 N545 0.985 . S
H550 N544 0.984 . S
H551 N544 0.984 . S
H552 N540 0.984 . S
H553 N540 0.985 . S
C554 C555 1.363 . S
C554 C560 1.379 . S
C554 N562 1.356 1_545 S
C555 C554 1.363 . S
C555 C561 1.363 . S
C556 C557 1.363 . S
C556 C561 1.379 . S
C556 N563 1.356 . S
C557 C556 1.363 . S
C557 C560 1.363 . S
N558 C560 1.356 1_565 S
N558 H570 0.984 . S
N558 H571 0.985 1_565 S
N559 C561 1.356 . S
N559 H564 0.984 . S
N559 H565 0.985 . S
C560 C554 1.379 . S
C560 C557 1.363 . S
C560 N558 1.356 1_545 S
C561 C555 1.363 . S
C561 C556 1.379 . S
C561 N559 1.356 . S
N562 C554 1.356 1_565 S
N562 H568 0.984 . S
N562 H569 0.984 . S
N563 C556 1.356 . S
N563 H566 0.984 . S
N563 H567 0.985 . S
H564 N559 0.984 . S
H565 N559 0.985 . S
H566 N563 0.984 . S
H567 N563 0.985 . S
H568 N562 0.984 . S
H569 N562 0.984 . S
H570 N558 0.984 . S
H571 N558 0.985 1_545 S
C572 C573 1.363 . S
C572 C578 1.379 . S
C572 N580 1.356 . S
C573 C572 1.363 . S
C573 C579 1.363 . S
C574 C575 1.363 . S
C574 C579 1.379 . S
C574 N581 1.356 . S
C575 C574 1.363 . S
C575 C578 1.363 . S
N576 C578 1.356 . S
N576 H588 0.984 . S
N576 H589 0.985 . S
N577 C579 1.356 . S
N577 H582 0.984 . S
N577 H583 0.985 . S
C578 C572 1.379 . S
C578 C575 1.363 . S
C578 N576 1.356 . S
C579 C573 1.363 . S
C579 C574 1.379 . S
C579 N577 1.356 . S
N580 C572 1.356 . S
N580 H586 0.984 . S
N580 H587 0.984 . S
N581 C574 1.356 . S
N581 H584 0.984 . S
N581 H585 0.985 . S
H582 N577 0.984 . S
H583 N577 0.985 . S
H584 N581 0.984 . S
H585 N581 0.985 . S
H586 N580 0.984 . S
H587 N580 0.984 . S
H588 N576 0.984 . S
H589 N576 0.985 . S
C590 C591 1.363 . S
C590 C596 1.379 . S
C590 N598 1.356 1_565 S
C591 C590 1.363 . S
C591 C597 1.363 . S
C592 C593 1.363 . S
C592 C597 1.379 . S
C592 N599 1.356 . S
C593 C592 1.363 . S
C593 C596 1.363 . S
N594 C596 1.356 1_545 S
N594 H606 0.984 . S
N594 H607 0.985 1_545 S
N595 C597 1.356 . S
N595 H600 0.984 . S
N595 H601 0.985 . S
C596 C590 1.379 . S
C596 C593 1.363 . S
C596 N594 1.356 1_565 S
C597 C591 1.363 . S
C597 C592 1.379 . S
C597 N595 1.356 . S
N598 C590 1.356 1_545 S
N598 H604 0.984 . S
N598 H605 0.984 . S
N599 C592 1.356 . S
N599 H602 0.984 . S
N599 H603 0.985 . S
H600 N595 0.984 . S
H601 N595 0.985 . S
H602 N599 0.984 . S
H603 N599 0.985 . S
H604 N598 0.984 . S
H605 N598 0.984 . S
H606 N594 0.984 . S
H607 N594 0.985 1_565 S
C608 C609 1.363 . S
C608 C614 1.379 . S
C608 N616 1.356 1_565 S
C609 C608 1.363 . S
C609 C615 1.363 . S
C610 C611 1.363 . S
C610 C615 1.379 . S
C610 N617 1.356 . S
C611 C610 1.363 . S
C611 C614 1.363 . S
N612 C614 1.368 . S
N612 H624 0.966 1_565 S
N612 H625 0.992 . S
N613 C615 1.356 . S
N613 H618 0.984 . S
N613 H619 0.985 . S
C614 C608 1.379 . S
C614 C611 1.363 . S
C614 N612 1.368 . S
C615 C609 1.363 . S
C615 C610 1.379 . S
C615 N613 1.356 . S
N616 C608 1.356 1_545 S
N616 H622 0.984 . S
N616 H623 0.985 . S
N617 C610 1.356 . S
N617 H620 0.984 . S
N617 H621 0.985 . S
H618 N613 0.984 . S
H619 N613 0.985 . S
H620 N617 0.984 . S
H621 N617 0.985 . S
H622 N616 0.984 . S
H623 N616 0.985 . S
H624 N612 0.966 1_545 S
H625 N612 0.992 . S
C626 C627 1.363 . S
C626 C632 1.379 . S
C626 N634 1.356 . S
C627 C626 1.363 . S
C627 C633 1.363 . S
C628 C629 1.363 . S
C628 C633 1.379 . S
C628 N635 1.356 . S
C629 C628 1.363 . S
C629 C632 1.363 . S
N630 C632 1.356 . S
N630 H642 0.984 . S
N630 H643 0.985 . S
N631 C633 1.356 . S
N631 H636 0.984 . S
N631 H637 0.985 . S
C632 C626 1.379 . S
C632 C629 1.363 . S
C632 N630 1.356 . S
C633 C627 1.363 . S
C633 C628 1.379 . S
C633 N631 1.356 . S
N634 C626 1.356 . S
N634 H640 0.984 . S
N634 H641 0.984 . S
N635 C628 1.356 . S
N635 H638 0.984 . S
N635 H639 0.985 . S
H636 N631 0.984 . S
H637 N631 0.985 . S
H638 N635 0.984 . S
H639 N635 0.985 . S
H640 N634 0.984 . S
H641 N634 0.984 . S
H642 N630 0.984 . S
H643 N630 0.985 . S
C644 C645 1.363 . S
C644 C650 1.379 . S
C644 N652 1.356 . S
C645 C644 1.363 . S
C645 C651 1.363 . S
C646 C647 1.363 . S
C646 C651 1.379 . S
C646 N653 1.356 . S
C647 C646 1.363 . S
C647 C650 1.363 . S
N648 C650 1.356 . S
N648 H660 0.984 . S
N648 H661 0.985 . S
N649 C651 1.360 . S
N649 H654 0.986 . S
N649 H655 0.980 1_545 S
C650 C644 1.379 . S
C650 C647 1.363 . S
C650 N648 1.356 . S
C651 C645 1.363 . S
C651 C646 1.379 . S
C651 N649 1.360 . S
N652 C644 1.356 . S
N652 H658 0.984 . S
N652 H659 0.984 . S
N653 C646 1.356 . S
N653 H656 0.984 . S
N653 H657 0.985 1_545 S
H654 N649 0.986 . S
H655 N649 0.980 1_565 S
H656 N653 0.984 . S
H657 N653 0.985 1_565 S
H658 N652 0.984 . S
H659 N652 0.984 . S
H660 N648 0.984 . S
H661 N648 0.985 . S
C662 C663 1.363 . S
C662 C668 1.379 . S
C662 N670 1.356 . S
C663 C662 1.363 . S
C663 C669 1.363 . S
C664 C665 1.363 . S
C664 C669 1.379 . S
C664 N671 1.356 . S
C665 C664 1.363 . S
C665 C668 1.363 . S
N666 C668 1.356 . S
N666 H678 0.984 . S
N666 H679 0.985 . S
N667 C669 1.356 . S
N667 H672 0.984 . S
N667 H673 0.985 . S
C668 C662 1.379 . S
C668 C665 1.363 . S
C668 N666 1.356 . S
C669 C663 1.363 . S
C669 C664 1.379 . S
C669 N667 1.356 . S
N670 C662 1.356 . S
N670 H676 0.984 . S
N670 H677 0.984 . S
N671 C664 1.356 . S
N671 H674 0.984 . S
N671 H675 0.985 . S
H672 N667 0.984 . S
H673 N667 0.985 . S
H674 N671 0.984 . S
H675 N671 0.985 . S
H676 N670 0.984 . S
H677 N670 0.984 . S
H678 N666 0.984 . S
H679 N666 0.985 . S
C680 C681 1.363 . S
C680 C686 1.379 . S
C680 N688 1.356 . S
C681 C680 1.363 . S
C681 C687 1.363 . S
C682 C683 1.363 . S
C682 C687 1.379 . S
C682 N689 1.356 . S
C683 C682 1.363 . S
C683 C686 1.363 . S
N684 C686 1.356 . S
N684 H696 0.984 . S
N684 H697 0.985 . S
N685 C687 1.356 . S
N685 H690 0.984 . S
N685 H691 0.985 . S
C686 C680 1.379 . S
C686 C683 1.363 . S
C686 N684 1.356 . S
C687 C681 1.363 . S
C687 C682 1.379 . S
C687 N685 1.356 . S
N688 C680 1.356 . S
N688 H694 0.984 . S
N688 H695 0.984 . S
N689 C682 1.356 . S
N689 H692 0.984 . S
N689 H693 0.985 . S
H690 N685 0.984 . S
H691 N685 0.985 . S
H692 N689 0.984 . S
H693 N689 0.985 . S
H694 N688 0.984 . S
H695 N688 0.984 . S
H696 N684 0.984 . S
H697 N684 0.985 . S
C698 C699 1.363 . S
C698 C704 1.379 . S
C698 N706 1.356 . S
C699 C698 1.363 . S
C699 C705 1.363 . S
C700 C701 1.363 . S
C700 C705 1.379 . S
C700 N707 1.356 . S
C701 C700 1.363 . S
C701 C704 1.363 . S
N702 C704 1.356 . S
N702 H714 0.984 . S
N702 H715 0.985 . S
N703 C705 1.356 . S
N703 H708 0.984 . S
N703 H709 0.985 . S
C704 C698 1.379 . S
C704 C701 1.363 . S
C704 N702 1.356 . S
C705 C699 1.363 . S
C705 C700 1.379 . S
C705 N703 1.356 . S
N706 C698 1.356 . S
N706 H712 0.984 . S
N706 H713 0.984 . S
N707 C700 1.356 . S
N707 H710 0.984 . S
N707 H711 0.985 . S
H708 N703 0.984 . S
H709 N703 0.985 . S
H710 N707 0.984 . S
H711 N707 0.985 . S
H712 N706 0.984 . S
H713 N706 0.984 . S
H714 N702 0.984 . S
H715 N702 0.985 . S
C716 C717 1.363 . S
C716 C722 1.379 . S
C716 N724 1.356 . S
C717 C716 1.363 . S
C717 C723 1.363 . S
C718 C719 1.363 . S
C718 C723 1.379 . S
C718 N725 1.356 . S
C719 C718 1.363 . S
C719 C722 1.363 . S
N720 C722 1.356 . S
N720 H732 0.984 . S
N720 H733 0.985 . S
N721 C723 1.356 . S
N721 H726 0.984 . S
N721 H727 0.985 . S
C722 C716 1.379 . S
C722 C719 1.363 . S
C722 N720 1.356 . S
C723 C717 1.363 . S
C723 C718 1.379 . S
C723 N721 1.356 . S
N724 C716 1.356 . S
N724 H730 0.984 . S
N724 H731 0.984 . S
N725 C718 1.356 . S
N725 H728 0.984 . S
N725 H729 0.985 . S
H726 N721 0.984 . S
H727 N721 0.985 . S
H728 N725 0.984 . S
H729 N725 0.985 . S
H730 N724 0.984 . S
H731 N724 0.984 . S
H732 N720 0.984 . S
H733 N720 0.985 . S
C734 C735 1.363 . S
C734 C740 1.379 . S
C734 N742 1.356 . S
C735 C734 1.363 . S
C735 C741 1.363 . S
C736 C737 1.363 . S
C736 C741 1.379 . S
C736 N743 1.356 . S
C737 C736 1.363 . S
C737 C740 1.363 . S
N738 C740 1.356 . S
N738 H750 0.984 . S
N738 H751 0.985 . S
N739 C741 1.356 . S
N739 H744 0.984 . S
N739 H745 0.985 . S
C740 C734 1.379 . S
C740 C737 1.363 . S
C740 N738 1.356 . S
C741 C735 1.363 . S
C741 C736 1.379 . S
C741 N739 1.356 . S
N742 C734 1.356 . S
N742 H748 0.984 . S
N742 H749 0.984 . S
N743 C736 1.356 . S
N743 H746 0.984 . S
N743 H747 0.985 . S
H744 N739 0.984 . S
H745 N739 0.985 . S
H746 N743 0.984 . S
H747 N743 0.985 . S
H748 N742 0.984 . S
H749 N742 0.984 . S
H750 N738 0.984 . S
H751 N738 0.985 . S
C752 C753 1.363 . S
C752 C758 1.379 . S
C752 N760 1.356 . S
C753 C752 1.363 . S
C753 C759 1.363 . S
C754 C755 1.363 . S
C754 C759 1.379 . S
C754 N761 1.356 . S
C755 C754 1.363 . S
C755 C758 1.363 . S
N756 C758 1.356 . S
N756 H768 0.984 . S
N756 H769 0.985 . S
N757 C759 1.356 . S
N757 H762 0.984 . S
N757 H763 0.985 . S
C758 C752 1.379 . S
C758 C755 1.363 . S
C758 N756 1.356 . S
C759 C753 1.363 . S
C759 C754 1.379 . S
C759 N757 1.356 . S
N760 C752 1.356 . S
N760 H766 0.984 . S
N760 H767 0.984 . S
N761 C754 1.356 . S
N761 H764 0.984 . S
N761 H765 0.985 . S
H762 N757 0.984 . S
H763 N757 0.985 . S
H764 N761 0.984 . S
H765 N761 0.985 . S
H766 N760 0.984 . S
H767 N760 0.984 . S
H768 N756 0.984 . S
H769 N756 0.985 . S
C770 C771 1.363 . S
C770 C776 1.379 . S
C770 N778 1.356 . S
C771 C770 1.363 . S
C771 C777 1.363 . S
C772 C773 1.363 . S
C772 C777 1.379 . S
C772 N779 1.356 . S
C773 C772 1.363 . S
C773 C776 1.363 . S
N774 C776 1.356 . S
N774 H786 0.984 . S
N774 H787 0.985 . S
N775 C777 1.356 . S
N775 H780 0.984 . S
N775 H781 0.985 . S
C776 C770 1.379 . S
C776 C773 1.363 . S
C776 N774 1.356 . S
C777 C771 1.363 . S
C777 C772 1.379 . S
C777 N775 1.356 . S
N778 C770 1.356 . S
N778 H784 0.984 . S
N778 H785 0.984 . S
N779 C772 1.356 . S
N779 H782 0.984 . S
N779 H783 0.985 . S
H780 N775 0.984 . S
H781 N775 0.985 . S
H782 N779 0.984 . S
H783 N779 0.985 . S
H784 N778 0.984 . S
H785 N778 0.984 . S
H786 N774 0.984 . S
H787 N774 0.985 . S
C788 C789 1.363 . S
C788 C794 1.379 . S
C788 N796 1.356 . S
C789 C788 1.363 . S
C789 C795 1.363 . S
C790 C791 1.363 . S
C790 C795 1.379 . S
C790 N797 1.356 . S
C791 C790 1.363 . S
C791 C794 1.363 . S
N792 C794 1.356 . S
N792 H804 0.984 . S
N792 H805 0.985 . S
N793 C795 1.356 . S
N793 H798 0.984 . S
N793 H799 0.985 . S
C794 C788 1.379 . S
C794 C791 1.363 . S
C794 N792 1.356 . S
C795 C789 1.363 . S
C795 C790 1.379 . S
C795 N793 1.356 . S
N796 C788 1.356 . S
N796 H802 0.984 . S
N796 H803 0.984 . S
N797 C790 1.356 . S
N797 H800 0.984 . S
N797 H801 0.985 . S
H798 N793 0.984 . S
H799 N793 0.985 . S
H800 N797 0.984 . S
H801 N797 0.985 . S
H802 N796 0.984 . S
H803 N796 0.984 . S
H804 N792 0.984 . S
H805 N792 0.985 . S
C806 C807 1.363 . S
C806 C812 1.379 . S
C806 N814 1.356 . S
C807 C806 1.363 . S
C807 C813 1.363 . S
C808 C809 1.363 . S
C808 C813 1.379 . S
C808 N815 1.356 . S
C809 C808 1.363 . S
C809 C812 1.363 . S
N810 C812 1.356 . S
N810 H822 0.984 . S
N810 H823 0.985 . S
N811 C813 1.356 . S
N811 H816 0.984 . S
N811 H817 0.985 . S
C812 C806 1.379 . S
C812 C809 1.363 . S
C812 N810 1.356 . S
C813 C807 1.363 . S
C813 C808 1.379 . S
C813 N811 1.356 . S
N814 C806 1.356 . S
N814 H820 0.984 . S
N814 H821 0.984 . S
N815 C808 1.356 . S
N815 H818 0.984 . S
N815 H819 0.985 . S
H816 N811 0.984 . S
H817 N811 0.985 . S
H818 N815 0.984 . S
H819 N815 0.985 . S
H820 N814 0.984 . S
H821 N814 0.984 . S
H822 N810 0.984 . S
H823 N810 0.985 . S
C393 C45 1.632 . S
C395 C129 1.673 . S
C411 C30 1.632 . S
C413 C165 1.673 . S
C429 C39 1.632 . S
C431 C201 1.615 . S
C449 C237 1.615 . S
C447 C34 1.632 . S
C465 C97 1.632 . S
C467 C273 1.673 . S
C485 C309 1.673 . S
C483 C82 1.632 . S
C503 C345 1.615 . S
C501 C91 1.632 . S
C521 C381 1.615 . S
C519 C86 1.632 . S
C539 C321 1.554 . S
C537 C26 1.506 . S
C557 C357 1.553 . S
C555 C36 1.506 . S
C575 C279 1.594 . S
C573 C32 1.509 . S
C593 C315 1.595 . S
C591 C42 1.509 . S
C609 C18 1.574 . S
C611 C285 1.688 . S
C629 C351 1.627 . S
C627 C50 1.577 . S
C645 C4 1.577 . S
C647 C387 1.628 . S
C663 C48 1.574 . S
C665 C249 1.689 . S
C683 C177 1.554 . S
C681 C78 1.506 . S
C699 C88 1.506 . S
C701 C213 1.553 . S
C719 C135 1.594 . S
C717 C84 1.509 . S
C737 C171 1.595 . S
C735 C94 1.509 . S
C755 C141 1.688 . S
C753 C70 1.574 . S
C773 C207 1.627 . S
C771 C102 1.577 . S
C789 C56 1.577 . S
C791 C243 1.628 . S
C807 C100 1.574 . S
C809 C105 1.688 . S
