# Generated by pormake.
# Topology pto, (3,4)-cn, num edge types: 1
# Building blocks:
#     Node 0, Type 0, BuildingBlock: ESEHIV_clean_linker_0, # of connection points: 3
#     Node 1, Type 0, BuildingBlock: ESEHIV_clean_linker_0, # of connection points: 3
#     Node 2, Type 0, BuildingBlock: ESEHIV_clean_linker_0, # of connection points: 3
#     Node 3, Type 0, BuildingBlock: ESEHIV_clean_linker_0, # of connection points: 3
#     Node 4, Type 0, BuildingBlock: ESEHIV_clean_linker_0, # of connection points: 3
#     Node 5, Type 0, BuildingBlock: ESEHIV_clean_linker_0, # of connection points: 3
#     Node 6, Type 0, BuildingBlock: ESEHIV_clean_linker_0, # of connection points: 3
#     Node 7, Type 0, BuildingBlock: ESEHIV_clean_linker_0, # of connection points: 3
#     Node 8, Type 1, BuildingBlock: KOZSID_clean_sbu_0, # of connection points: 4
#     Node 9, Type 1, BuildingBlock: KOZSID_clean_sbu_0, # of connection points: 4
#     Node 10, Type 1, BuildingBlock: KOZSID_clean_sbu_0, # of connection points: 4
#     Node 11, Type 1, BuildingBlock: KOZSID_clean_sbu_0, # of connection points: 4
#     Node 12, Type 1, BuildingBlock: KOZSID_clean_sbu_0, # of connection points: 4
#     Node 13, Type 1, BuildingBlock: KOZSID_clean_sbu_0, # of connection points: 4
#     Edge 14, Type (0, 1), BuildingBlock: UVAHIK_clean_linker_0, # of connection points: 2
#     Edge 15, Type (0, 1), BuildingBlock: UVAHIK_clean_linker_0, # of connection points: 2
#     Edge 16, Type (0, 1), BuildingBlock: UVAHIK_clean_linker_0, # of connection points: 2
#     Edge 17, Type (0, 1), BuildingBlock: UVAHIK_clean_linker_0, # of connection points: 2
#     Edge 18, Type (0, 1), BuildingBlock: UVAHIK_clean_linker_0, # of connection points: 2
#     Edge 19, Type (0, 1), BuildingBlock: UVAHIK_clean_linker_0, # of connection points: 2
#     Edge 20, Type (0, 1), BuildingBlock: UVAHIK_clean_linker_0, # of connection points: 2
#     Edge 21, Type (0, 1), BuildingBlock: UVAHIK_clean_linker_0, # of connection points: 2
#     Edge 22, Type (0, 1), BuildingBlock: UVAHIK_clean_linker_0, # of connection points: 2
#     Edge 23, Type (0, 1), BuildingBlock: UVAHIK_clean_linker_0, # of connection points: 2
#     Edge 24, Type (0, 1), BuildingBlock: UVAHIK_clean_linker_0, # of connection points: 2
#     Edge 25, Type (0, 1), BuildingBlock: UVAHIK_clean_linker_0, # of connection points: 2
#     Edge 26, Type (0, 1), BuildingBlock: UVAHIK_clean_linker_0, # of connection points: 2
#     Edge 27, Type (0, 1), BuildingBlock: UVAHIK_clean_linker_0, # of connection points: 2
#     Edge 28, Type (0, 1), BuildingBlock: UVAHIK_clean_linker_0, # of connection points: 2
#     Edge 29, Type (0, 1), BuildingBlock: UVAHIK_clean_linker_0, # of connection points: 2
#     Edge 30, Type (0, 1), BuildingBlock: UVAHIK_clean_linker_0, # of connection points: 2
#     Edge 31, Type (0, 1), BuildingBlock: UVAHIK_clean_linker_0, # of connection points: 2
#     Edge 32, Type (0, 1), BuildingBlock: UVAHIK_clean_linker_0, # of connection points: 2
#     Edge 33, Type (0, 1), BuildingBlock: UVAHIK_clean_linker_0, # of connection points: 2
#     Edge 34, Type (0, 1), BuildingBlock: UVAHIK_clean_linker_0, # of connection points: 2
#     Edge 35, Type (0, 1), BuildingBlock: UVAHIK_clean_linker_0, # of connection points: 2
#     Edge 36, Type (0, 1), BuildingBlock: UVAHIK_clean_linker_0, # of connection points: 2
#     Edge 37, Type (0, 1), BuildingBlock: UVAHIK_clean_linker_0, # of connection points: 2
# Relax obj value: 0.000
# Max RMSD: 0.023
# Mean RMSD: 0.010
data_MOF--net-pto--node1-KOZSID_clean_sbu_0--node2-ESEHIV_clean_linker_0--edge1-UVAHIK_clean_linker_0
_symmetry_space_group_name_H-M    P1
_symmetry_Int_Tables_number       1
_symmetry_cell_setting            triclinic
loop_
_symmetry_equiv_pos_as_xyz
'x, y, z'
_cell_length_a     47.098954
_cell_length_b     63.742461
_cell_length_c     55.501522
_cell_angle_alpha  88.070914
_cell_angle_beta   87.33249
_cell_angle_gamma 92.584952
loop_
_atom_site_label
_atom_site_type_symbol
_atom_site_fract_x
_atom_site_fract_y
_atom_site_fract_z
_atom_type_partial_charge
H0 H 0.2903 0.28846 0.28353 0.0
H1 H 0.29346 0.2219 0.29657 0.0
H2 H 0.23732 0.25749 0.3407 0.0
C3 C 0.28314 0.2744 0.29401 0.0
C4 C 0.26252 0.27554 0.31304 0.0
C5 C 0.29385 0.25504 0.28774 0.0
C6 C 0.28476 0.23678 0.3012 0.0
C7 C 0.26492 0.23767 0.32075 0.0
C8 C 0.25376 0.25705 0.32643 0.0
H9 H 0.26125 0.73397 0.74713 0.0
H10 H 0.28177 0.79918 0.72918 0.0
H11 H 0.22356 0.7641 0.6867 0.0
C12 C 0.25886 0.7478 0.73563 0.0
C13 C 0.24092 0.74665 0.71613 0.0
C14 C 0.27344 0.76675 0.7406 0.0
C15 C 0.27011 0.78462 0.72573 0.0
C16 C 0.25239 0.78376 0.7061 0.0
C17 C 0.23794 0.76469 0.70138 0.0
H18 H 0.74253 0.79379 0.29311 0.0
H19 H 0.8012 0.76135 0.3361 0.0
H20 H 0.76734 0.7322 0.27394 0.0
C21 C 0.75456 0.77999 0.29662 0.0
C22 C 0.75251 0.76289 0.28142 0.0
C23 C 0.77239 0.77955 0.31612 0.0
C24 C 0.78796 0.76173 0.32066 0.0
C25 C 0.78612 0.74438 0.30573 0.0
C26 C 0.76827 0.74513 0.28611 0.0
H27 H 0.74692 0.2351 0.74851 0.0
H28 H 0.80792 0.27208 0.70275 0.0
H29 H 0.76368 0.30021 0.7621 0.0
C30 C 0.75857 0.24983 0.74379 0.0
C31 C 0.7536 0.26733 0.75775 0.0
C32 C 0.77779 0.25139 0.72359 0.0
C33 C 0.79219 0.27083 0.71767 0.0
C34 C 0.78726 0.28855 0.73141 0.0
C35 C 0.7677 0.28668 0.75134 0.0
H36 H 0.73819 0.80011 0.73597 0.0
H37 H 0.75663 0.73609 0.7532 0.0
H38 H 0.79226 0.76673 0.68759 0.0
C39 C 0.74863 0.78588 0.73135 0.0
C40 C 0.7658 0.78557 0.71002 0.0
C41 C 0.74509 0.76805 0.74693 0.0
C42 C 0.759 0.74976 0.741 0.0
C43 C 0.77606 0.74904 0.71958 0.0
C44 C 0.77915 0.76703 0.70413 0.0
H45 H 0.75324 0.22707 0.2994 0.0
H46 H 0.77107 0.29314 0.28433 0.0
H47 H 0.80684 0.26255 0.34532 0.0
C48 C 0.76353 0.24188 0.3039 0.0
C49 C 0.7803 0.24268 0.32414 0.0
C50 C 0.75996 0.26001 0.28943 0.0
C51 C 0.77361 0.27909 0.2954 0.0
C52 C 0.79069 0.28013 0.31545 0.0
C53 C 0.79377 0.26186 0.32977 0.0
H54 H 0.23237 0.26558 0.69513 0.0
H55 H 0.27794 0.22821 0.74486 0.0
H56 H 0.26414 0.2929 0.75892 0.0
C57 C 0.24321 0.26401 0.71184 0.0
C58 C 0.24609 0.28142 0.72657 0.0
C59 C 0.25468 0.24474 0.71819 0.0
C60 C 0.26974 0.24316 0.73939 0.0
C61 C 0.2737 0.26053 0.75399 0.0
C62 C 0.26157 0.27954 0.74754 0.0
H63 H 0.22223 0.75316 0.32665 0.0
H64 H 0.26129 0.72722 0.26355 0.0
H65 H 0.2835 0.79065 0.28176 0.0
C66 C 0.23696 0.75488 0.31106 0.0
C67 C 0.25245 0.77406 0.30619 0.0
C68 C 0.24025 0.73784 0.29594 0.0
C69 C 0.25891 0.74022 0.27547 0.0
C70 C 0.27439 0.75927 0.27015 0.0
C71 C 0.27133 0.77602 0.28574 0.0
C72 C 0.06231 0.53664 0.35948 0.0
C73 C 0.07237 0.54438 0.38071 0.0
C74 C 0.05674 0.53416 0.39919 0.0
C75 C 0.03816 0.52081 0.38821 0.0
N76 N 0.04123 0.52164 0.36383 0.0
Co77 Co 0.01786 0.5056 0.34064 0.0
N78 N 0.99358 0.49161 0.36775 0.0
C79 C 0.99622 0.49403 0.39168 0.0
C80 C 0.97692 0.48192 0.40595 0.0
C81 C 0.96114 0.47092 0.39022 0.0
C82 C 0.97183 0.47699 0.36719 0.0
N83 N 0.99407 0.48995 0.31739 0.0
C84 C 0.97181 0.4759 0.32164 0.0
C85 C 0.96131 0.46866 0.3003 0.0
C86 C 0.97757 0.47841 0.28191 0.0
C87 C 0.99699 0.49098 0.29298 0.0
N88 N 0.04248 0.51929 0.31353 0.0
C89 C 0.04084 0.51599 0.28966 0.0
C90 C 0.06035 0.5279 0.2754 0.0
C91 C 0.07521 0.53968 0.29104 0.0
C92 C 0.06387 0.5342 0.31405 0.0
N93 N 0.04402 0.48203 0.34215 0.0
C94 C 0.08059 0.44835 0.34395 0.0
C95 C 0.06892 0.45455 0.32239 0.0
C96 C 0.05109 0.47139 0.32184 0.0
C97 C 0.0739 0.45928 0.36464 0.0
C98 C 0.05543 0.47581 0.36341 0.0
N99 N 0.99183 0.52914 0.3391 0.0
C100 C 0.9664 0.55404 0.31559 0.0
C101 C 0.95693 0.56385 0.33642 0.0
C102 C 0.96476 0.55564 0.3587 0.0
C103 C 0.98194 0.53834 0.35962 0.0
C104 C 0.98378 0.537 0.31732 0.0
H105 H 0.98723 0.53284 0.37711 0.0
H106 H 0.9906 0.53055 0.30074 0.0
H107 H 0.04334 0.47544 0.30473 0.0
H108 H 0.05063 0.48321 0.3799 0.0
C109 C 0.0171 0.50773 0.40022 0.0
C110 C 0.07298 0.54443 0.33565 0.0
C111 C 0.96083 0.46817 0.34543 0.0
C112 C 0.01922 0.50299 0.28103 0.0
H113 H 0.08904 0.55638 0.3826 0.0
H114 H 0.05838 0.53643 0.41832 0.0
H115 H 0.97472 0.48108 0.42546 0.0
H116 H 0.94384 0.45959 0.39512 0.0
H117 H 0.94403 0.45719 0.29822 0.0
H118 H 0.97586 0.47625 0.26276 0.0
H119 H 0.06284 0.52848 0.2559 0.0
H120 H 0.092 0.55136 0.28598 0.0
H121 H 0.07387 0.4466 0.30586 0.0
H122 H 0.08246 0.45484 0.38177 0.0
H123 H 0.96044 0.55943 0.2979 0.0
H124 H 0.95821 0.56274 0.37539 0.0
C125 C 0.0554 0.55058 0.70865 0.0
C126 C 0.06297 0.55839 0.73063 0.0
C127 C 0.04765 0.54667 0.74812 0.0
C128 C 0.03164 0.53248 0.73588 0.0
N129 N 0.03604 0.53422 0.71161 0.0
Co130 Co 0.01595 0.51758 0.68691 0.0
N131 N 0.99325 0.50045 0.71268 0.0
C132 C 0.99554 0.50147 0.73683 0.0
C133 C 0.97808 0.48713 0.74998 0.0
C134 C 0.96393 0.47613 0.73325 0.0
C135 C 0.97354 0.48453 0.71076 0.0
N136 N 0.99486 0.50166 0.6622 0.0
C137 C 0.97422 0.48615 0.6651 0.0
C138 C 0.96462 0.47979 0.64311 0.0
C139 C 0.97991 0.4916 0.62565 0.0
C140 C 0.99777 0.50451 0.63793 0.0
N141 N 0.03963 0.53402 0.66118 0.0
C142 C 0.03939 0.53154 0.63708 0.0
C143 C 0.05833 0.5449 0.62397 0.0
C144 C 0.07142 0.55666 0.64068 0.0
C145 C 0.05958 0.54979 0.66309 0.0
N146 N 0.04536 0.49621 0.68742 0.0
C147 C 0.08516 0.46457 0.68867 0.0
C148 C 0.07265 0.47014 0.66722 0.0
C149 C 0.05316 0.48601 0.66695 0.0
C150 C 0.0779 0.47534 0.70937 0.0
C151 C 0.05802 0.49089 0.70838 0.0
N152 N 0.98657 0.53891 0.68643 0.0
C153 C 0.96092 0.5651 0.66494 0.0
C154 C 0.94621 0.57016 0.68621 0.0
C155 C 0.95171 0.55916 0.70751 0.0
C156 C 0.97192 0.54383 0.70725 0.0
C157 C 0.98067 0.54941 0.6654 0.0
H158 H 0.97554 0.53634 0.7242 0.0
H159 H 0.99101 0.54613 0.64855 0.0
H160 H 0.04457 0.48962 0.64998 0.0
H161 H 0.05302 0.49816 0.72492 0.0
C162 C 0.01314 0.51682 0.74664 0.0
C163 C 0.06704 0.55935 0.68552 0.0
C164 C 0.96353 0.47665 0.68817 0.0
C165 C 0.01914 0.51811 0.62723 0.0
H166 H 0.078 0.57127 0.73369 0.0
H167 H 0.04817 0.54827 0.76745 0.0
H168 H 0.97577 0.48503 0.76942 0.0
H169 H 0.9483 0.46335 0.73716 0.0
H170 H 0.94851 0.46765 0.64002 0.0
H171 H 0.97861 0.49056 0.6063 0.0
H172 H 0.06157 0.54636 0.60454 0.0
H173 H 0.08743 0.5692 0.63681 0.0
H174 H 0.07795 0.46234 0.65068 0.0
H175 H 0.08692 0.47139 0.72645 0.0
H176 H 0.95709 0.57314 0.64796 0.0
H177 H 0.94098 0.56274 0.72447 0.0
C178 C 0.25403 0.98058 0.54606 0.0
C179 C 0.28098 0.9749 0.55209 0.0
C180 C 0.29994 0.98698 0.5377 0.0
C181 C 0.28356 -0.0007 0.52378 0.0
N182 N 0.25524 0.99604 0.52863 0.0
Co183 Co 0.22369 0.00977 0.51192 0.0
N184 N 0.25162 0.0271 0.49021 0.0
C185 C 0.28038 0.02715 0.49014 0.0
C186 C 0.29381 0.04123 0.47371 0.0
C187 C 0.27238 0.05099 0.46283 0.0
C188 C 0.24704 0.04224 0.47333 0.0
N189 N 0.19216 0.02314 0.49481 0.0
C190 C 0.19331 0.03837 0.47711 0.0
C191 C 0.16636 0.0433 0.47027 0.0
C192 C 0.14745 0.03085 0.48432 0.0
C193 C 0.16386 0.01909 0.49884 0.0
N194 N 0.19578 0.99286 0.53405 0.0
C195 C 0.16706 0.99337 0.53464 0.0
C196 C 0.15361 0.97987 0.55168 0.0
C197 C 0.17498 0.97 0.56254 0.0
C198 C 0.20033 0.97811 0.5514 0.0
N199 N 0.22407 0.03263 0.53532 0.0
C200 C 0.22511 0.06564 0.56793 0.0
C201 C 0.19933 0.05636 0.5612 0.0
C202 C 0.1993 0.04006 0.54494 0.0
C203 C 0.25028 0.05804 0.55803 0.0
C204 C 0.24928 0.04163 0.54208 0.0
N205 N 0.22339 0.98683 0.48856 0.0
C206 C 0.19897 0.95781 0.46993 0.0
C207 C 0.22431 0.95215 0.45827 0.0
C208 C 0.24889 0.96467 0.46138 0.0
C209 C 0.248 0.98164 0.47653 0.0
C210 C 0.19895 0.97517 0.48468 0.0
H211 H 0.26765 0.99012 0.4784 0.0
H212 H 0.17899 0.97863 0.49306 0.0
H213 H 0.179 0.03377 0.54039 0.0
H214 H 0.26925 0.03663 0.53533 0.0
C215 C 0.29415 0.01389 0.50589 0.0
C216 C 0.22801 0.97046 0.55698 0.0
C217 C 0.21924 0.04927 0.46709 0.0
C218 C 0.15334 0.00545 0.51769 0.0
H219 H 0.28634 0.96305 0.56534 0.0
H220 H 0.32292 0.98665 0.53722 0.0
H221 H 0.31646 0.04421 0.47027 0.0
H222 H 0.27508 0.06334 0.44893 0.0
H223 H 0.16095 0.05501 0.45689 0.0
H224 H 0.12446 0.03084 0.48444 0.0
H225 H 0.13095 0.97707 0.55529 0.0
H226 H 0.1722 0.95784 0.57665 0.0
H227 H 0.1792 0.06148 0.56854 0.0
H228 H 0.27085 0.0649 0.5622 0.0
H229 H 0.1793 0.94865 0.46822 0.0
H230 H 0.26895 0.96142 0.45223 0.0
C231 C 0.47054 0.79407 0.04459 0.0
C232 C 0.46072 0.81341 0.05108 0.0
C233 C 0.47682 0.82833 0.03778 0.0
C234 C 0.49531 0.8173 0.02387 0.0
N235 N 0.49189 0.79621 0.02735 0.0
Co236 Co 0.51383 0.77428 0.01046 0.0
N237 N 0.53902 0.79629 0.9924 0.0
C238 C 0.53881 0.81733 0.99481 0.0
C239 C 0.55891 0.82843 0.98027 0.0
C240 C 0.57269 0.81361 0.96767 0.0
C241 C 0.55998 0.79427 0.97518 0.0
N242 N 0.53511 0.75236 0.99289 0.0
C243 C 0.55569 0.75455 0.97496 0.0
C244 C 0.56333 0.7352 0.96656 0.0
C245 C 0.54703 0.72027 0.97962 0.0
C246 C 0.53028 0.73127 0.99505 0.0
N247 N 0.48928 0.75225 0.02919 0.0
C248 C 0.49103 0.73116 0.0282 0.0
C249 C 0.47262 0.72003 0.0442 0.0
C250 C 0.45843 0.73487 0.05639 0.0
C251 C 0.46892 0.7543 0.04693 0.0
N252 N 0.4866 0.77474 0.98425 0.0
C253 C 0.45055 0.7749 0.94514 0.0
C254 C 0.45551 0.75625 0.95786 0.0
C255 C 0.47341 0.75653 0.97717 0.0
C256 C 0.46337 0.79357 0.95274 0.0
C257 C 0.48111 0.79314 0.97222 0.0
N258 N 0.54107 0.77378 0.03667 0.0
C259 C 0.5699 0.75435 0.06369 0.0
C260 C 0.57737 0.77259 0.07563 0.0
C261 C 0.56686 0.79153 0.06734 0.0
C262 C 0.54901 0.79179 0.04794 0.0
C263 C 0.55187 0.75529 0.04449 0.0
H264 H 0.54166 0.80671 0.04259 0.0
H265 H 0.54686 0.74078 0.03641 0.0
H266 H 0.47641 0.74176 0.98593 0.0
H267 H 0.49043 0.80787 0.97697 0.0
C268 C 0.51775 0.82628 0.00912 0.0
C269 C 0.45954 0.77421 0.05594 0.0
C270 C 0.56789 0.77454 0.96479 0.0
C271 C 0.51001 0.72226 0.01189 0.0
H272 H 0.44403 0.81642 0.06441 0.0
H273 H 0.47573 0.84521 0.03865 0.0
H274 H 0.56254 0.84531 0.97851 0.0
H275 H 0.58977 0.8167 0.95412 0.0
H276 H 0.5788 0.73214 0.95224 0.0
H277 H 0.54713 0.70341 0.97789 0.0
H278 H 0.47004 0.70314 0.04686 0.0
H279 H 0.44244 0.73168 0.07084 0.0
H280 H 0.44558 0.74143 0.95299 0.0
H281 H 0.46031 0.80842 0.94339 0.0
H282 H 0.57796 0.73933 0.06905 0.0
H283 H 0.57183 0.8061 0.07607 0.0
C284 C 0.82901 0.98621 0.55474 0.0
C285 C 0.85496 0.98049 0.56313 0.0
C286 C 0.87543 0.99265 0.55037 0.0
C287 C 0.86086 0.00507 0.53504 0.0
N288 N 0.8323 0.00167 0.53735 0.0
Co289 Co 0.80308 0.01644 0.51882 0.0
N290 N 0.83326 0.03209 0.49773 0.0
C291 C 0.86166 0.02983 0.49794 0.0
C292 C 0.87702 0.04247 0.48111 0.0
C293 C 0.85726 0.05352 0.46949 0.0
C294 C 0.83089 0.04697 0.48002 0.0
N295 N 0.77386 0.03211 0.5013 0.0
C296 C 0.77724 0.04776 0.48414 0.0
C297 C 0.75129 0.05518 0.47766 0.0
C298 C 0.73078 0.04404 0.49148 0.0
C299 C 0.74531 0.03053 0.50556 0.0
N300 N 0.77286 -0.00019 0.53886 0.0
C301 C 0.74435 0.00074 0.53734 0.0
C302 C 0.72898 0.98653 0.5524 0.0
C303 C 0.74885 0.97554 0.56392 0.0
C304 C 0.77527 0.98378 0.55518 0.0
N305 N 0.80396 0.03903 0.5426 0.0
C306 C 0.8045 0.07227 0.57466 0.0
C307 C 0.77974 0.05993 0.57198 0.0
C308 C 0.77986 0.04363 0.55584 0.0
C309 C 0.82912 0.06757 0.56141 0.0
C310 C 0.82848 0.05083 0.54582 0.0
N311 N 0.80218 0.9939 0.4951 0.0
C312 C 0.77603 0.97172 0.46855 0.0
C313 C 0.80011 0.96039 0.46351 0.0
C314 C 0.82539 0.96631 0.47408 0.0
C315 C 0.82605 0.98316 0.48949 0.0
C316 C 0.77746 0.98819 0.48443 0.0
H317 H 0.84606 0.98709 0.49679 0.0
H318 H 0.75816 0.99586 0.48803 0.0
H319 H 0.76007 0.03519 0.55422 0.0
H320 H 0.84809 0.04788 0.53649 0.0
C321 C 0.87336 0.01771 0.51606 0.0
C322 C 0.80199 0.97558 0.5626 0.0
C323 C 0.80446 0.0563 0.47371 0.0
C324 C 0.73273 0.01552 0.52205 0.0
H325 H 0.85876 0.96831 0.57649 0.0
H326 H 0.89826 0.99182 0.55135 0.0
H327 H 0.89992 0.04407 0.47827 0.0
H328 H 0.8618 0.06548 0.45537 0.0
H329 H 0.7476 0.06744 0.46435 0.0
H330 H 0.70799 0.04555 0.49125 0.0
H331 H 0.70607 0.98434 0.55463 0.0
H332 H 0.74442 0.96279 0.57712 0.0
H333 H 0.76013 0.06319 0.58186 0.0
H334 H 0.84885 0.07668 0.5632 0.0
H335 H 0.75596 0.96751 0.46078 0.0
H336 H 0.84462 0.95802 0.47038 0.0
C337 C 0.47704 0.26806 0.05683 0.0
C338 C 0.46726 0.28716 0.06422 0.0
C339 C 0.48217 0.30244 0.05053 0.0
C340 C 0.49996 0.29185 0.03551 0.0
N341 N 0.49701 0.27069 0.03848 0.0
Co342 Co 0.51864 0.24926 0.02045 0.0
N343 N 0.54192 0.2718 0.00143 0.0
C344 C 0.54033 0.29284 0.0033 0.0
C345 C 0.55922 0.30436 0.98807 0.0
C346 C 0.5735 0.28985 0.97542 0.0
C347 C 0.56226 0.27022 0.98359 0.0
N348 N 0.54045 0.22784 0.00248 0.0
C349 C 0.56049 0.23043 0.98414 0.0
C350 C 0.56913 0.21125 0.97598 0.0
C351 C 0.55417 0.19602 0.9897 0.0
C352 C 0.53716 0.20668 0.00527 0.0
N353 N 0.49522 0.22673 0.03944 0.0
C354 C 0.49672 0.2057 0.03746 0.0
C355 C 0.47907 0.19417 0.05368 0.0
C356 C 0.46565 0.20864 0.06706 0.0
C357 C 0.4758 0.22831 0.05804 0.0
N358 N 0.49015 0.2492 0.99513 0.0
C359 C 0.45114 0.24928 0.95815 0.0
C360 C 0.46089 0.23046 0.96747 0.0
C361 C 0.48009 0.23077 0.9859 0.0
C362 C 0.46099 0.26803 0.96779 0.0
C363 C 0.4804 0.26764 0.98602 0.0
N364 N 0.54707 0.24932 0.04576 0.0
C365 C 0.57435 0.23063 0.0747 0.0
C366 C 0.58515 0.24952 0.08341 0.0
C367 C 0.57698 0.26828 0.0727 0.0
C368 C 0.55802 0.26783 0.05413 0.0
C369 C 0.55564 0.23089 0.0559 0.0
H370 H 0.55225 0.28267 0.04709 0.0
H371 H 0.54823 0.21599 0.05003 0.0
H372 H 0.48657 0.2159 0.99227 0.0
H373 H 0.48741 0.2825 0.99223 0.0
C374 C 0.52044 0.30134 0.01918 0.0
C375 C 0.46755 0.24797 0.06851 0.0
C376 C 0.57096 0.25064 0.97321 0.0
C377 C 0.51657 0.19725 0.02154 0.0
H378 H 0.45137 0.2898 0.07837 0.0
H379 H 0.48064 0.31927 0.05172 0.0
H380 H 0.56202 0.32129 0.98617 0.0
H381 H 0.59007 0.29334 0.96151 0.0
H382 H 0.58417 0.20842 0.96126 0.0
H383 H 0.55497 0.17919 0.98803 0.0
H384 H 0.47697 0.17723 0.05609 0.0
H385 H 0.45071 0.20501 0.08216 0.0
H386 H 0.45358 0.21552 0.9607 0.0
H387 H 0.45425 0.28303 0.96092 0.0
H388 H 0.5804 0.21569 0.08227 0.0
H389 H 0.58462 0.28332 0.07902 0.0
C390 C 0.23961 0.30062 0.34137 0.0
C391 C 0.24849 0.29558 0.31779 0.0
C392 C 0.22359 0.31821 0.34542 0.0
C393 C 0.17651 0.35319 0.31289 0.0
H394 H 0.17957 0.38534 0.37085 0.0
C395 C 0.09099 0.41138 0.33496 0.0
C396 C 0.09963 0.43058 0.34453 0.0
C397 C 0.10966 0.39506 0.33352 0.0
C398 C 0.17862 0.37666 0.35444 0.0
H399 H 0.24835 0.30583 0.28006 0.0
H400 H 0.22205 0.33696 0.28724 0.0
H401 H 0.21337 0.35803 0.36401 0.0
H402 H 0.13413 0.44778 0.36064 0.0
H403 H 0.16732 0.41947 0.35742 0.0
H404 H 0.14265 0.37222 0.30277 0.0
C405 C 0.22659 0.32694 0.30259 0.0
C406 C 0.1978 0.36081 0.35066 0.0
C407 C 0.2422 0.30921 0.29851 0.0
C408 C 0.127 0.43302 0.3533 0.0
C409 C 0.14592 0.41678 0.35151 0.0
C410 C 0.15764 0.36913 0.31653 0.0
C411 C 0.21636 0.33135 0.326 0.0
C412 C 0.19689 0.34881 0.32986 0.0
C413 C 0.13762 0.39771 0.34119 0.0
C414 C 0.15821 0.38095 0.33745 0.0
H415 H 0.24454 0.29073 0.35673 0.0
H416 H 0.21602 0.32102 0.36369 0.0
H417 H 0.17474 0.34409 0.29686 0.0
H418 H 0.06981 0.40906 0.32839 0.0
H419 H 0.10222 0.38041 0.32612 0.0
C420 C 0.2216 0.71994 0.68812 0.0
C421 C 0.22444 0.72686 0.71171 0.0
C422 C 0.20522 0.70169 0.68398 0.0
C423 C 0.14662 0.66759 0.71177 0.0
H424 H 0.17169 0.62735 0.66537 0.0
C425 C 0.11511 0.57762 0.68494 0.0
C426 C 0.08549 0.57876 0.68494 0.0
C427 C 0.13235 0.59591 0.68642 0.0
C428 C 0.16447 0.63841 0.67845 0.0
H429 H 0.21234 0.72004 0.74945 0.0
H430 H 0.18422 0.68805 0.74227 0.0
H431 H 0.20193 0.65855 0.67219 0.0
H432 H 0.05032 0.59939 0.68592 0.0
H433 H 0.08038 0.63157 0.68819 0.0
H434 H 0.1095 0.64733 0.71846 0.0
C435 C 0.19442 0.69682 0.72695 0.0
C436 C 0.18165 0.65637 0.68219 0.0
C437 C 0.21081 0.71502 0.73108 0.0
C438 C 0.07322 0.59833 0.68589 0.0
C439 C 0.0904 0.61663 0.68736 0.0
C440 C 0.12945 0.6497 0.70801 0.0
C441 C 0.19125 0.69004 0.70335 0.0
C442 C 0.17296 0.67109 0.699 0.0
C443 C 0.12014 0.6156 0.68799 0.0
C444 C 0.13819 0.63488 0.69136 0.0
H445 H 0.23206 0.72863 0.67285 0.0
H446 H 0.20303 0.69695 0.66558 0.0
H447 H 0.13915 0.67877 0.72463 0.0
H448 H 0.1248 0.56253 0.68438 0.0
H449 H 0.15514 0.59457 0.68713 0.0
C450 C 0.83107 0.72831 0.31845 0.0
C451 C 0.80333 0.72576 0.31033 0.0
C452 C 0.84733 0.71091 0.3227 0.0
C453 C 0.84204 0.6527 0.33151 0.0
H454 H 0.923 0.65824 0.31518 0.0
C455 C 0.91734 0.58582 0.35198 0.0
C456 C 0.93941 0.58265 0.33472 0.0
C457 C 0.90083 0.60344 0.35008 0.0
C458 C 0.90039 0.65631 0.31963 0.0
H459 H 0.77089 0.70273 0.30058 0.0
H460 H 0.79973 0.6725 0.30682 0.0
H461 H 0.89381 0.68814 0.30902 0.0
H462 H 0.96171 0.5959 0.30219 0.0
H463 H 0.93221 0.62587 0.29826 0.0
H464 H 0.84847 0.62053 0.34099 0.0
C465 C 0.80871 0.68793 0.31049 0.0
C466 C 0.88366 0.67361 0.31645 0.0
C467 C 0.79229 0.70534 0.30653 0.0
C468 C 0.94461 0.59758 0.31561 0.0
C469 C 0.92794 0.61503 0.31357 0.0
C470 C 0.85874 0.6353 0.33442 0.0
C471 C 0.83647 0.6905 0.3186 0.0
C472 C 0.85425 0.67205 0.32232 0.0
C473 C 0.90585 0.61823 0.33079 0.0
C474 C 0.88812 0.63686 0.32842 0.0
H475 H 0.84049 0.74379 0.32126 0.0
H476 H 0.86843 0.71352 0.3293 0.0
H477 H 0.81955 0.65097 0.33656 0.0
H478 H 0.91254 0.57456 0.36681 0.0
H479 H 0.88424 0.60551 0.36385 0.0
C480 C 0.80737 0.31615 0.70121 0.0
C481 C 0.80314 0.30882 0.72534 0.0
C482 C 0.82294 0.33499 0.69551 0.0
C483 C 0.84902 0.38423 0.72218 0.0
H484 H 0.90425 0.38645 0.66801 0.0
C485 C 0.95364 0.43808 0.68547 0.0
C486 C 0.94342 0.45812 0.68878 0.0
C487 C 0.93505 0.42036 0.68789 0.0
C488 C 0.88897 0.38606 0.68323 0.0
H489 H 0.81215 0.31539 0.76237 0.0
H490 H 0.83932 0.34821 0.75244 0.0
H491 H 0.87464 0.35448 0.67683 0.0
H492 H 0.90623 0.47583 0.69655 0.0
H493 H 0.87335 0.44484 0.70046 0.0
H494 H 0.86397 0.41552 0.7291 0.0
C495 C 0.8302 0.33961 0.73794 0.0
C496 C 0.87179 0.36782 0.68813 0.0
C497 C 0.81464 0.3208 0.74364 0.0
C498 C 0.91436 0.46039 0.69396 0.0
C499 C 0.89571 0.44269 0.69634 0.0
C500 C 0.86618 0.40245 0.71729 0.0
C501 C 0.83461 0.3469 0.71381 0.0
C502 C 0.85182 0.36663 0.70782 0.0
C503 C 0.90591 0.42244 0.69365 0.0
C504 C 0.88655 0.4035 0.6979 0.0
H505 H 0.79846 0.3074 0.68674 0.0
H506 H 0.82563 0.34033 0.67677 0.0
H507 H 0.8336 0.38391 0.73731 0.0
H508 H 0.97611 0.43614 0.68161 0.0
H509 H 0.94366 0.405 0.68602 0.0
C510 C 0.24941 0.19945 0.32347 0.0
C511 C 0.25558 0.21829 0.33502 0.0
C512 C 0.24158 0.18105 0.33697 0.0
C513 C 0.21538 0.16114 0.39786 0.0
H514 H 0.2506 0.11004 0.37878 0.0
C515 C 0.22094 0.08822 0.46147 0.0
C516 C 0.21759 0.06841 0.45154 0.0
C517 C 0.22189 0.10635 0.44658 0.0
C518 C 0.24021 0.12409 0.38414 0.0
H519 H 0.25822 0.23265 0.36975 0.0
H520 H 0.24478 0.20049 0.39336 0.0
H521 H 0.25927 0.14211 0.35395 0.0
H522 H 0.21204 0.05157 0.4188 0.0
H523 H 0.21349 0.08338 0.39252 0.0
H524 H 0.19684 0.14314 0.42836 0.0
C525 C 0.24552 0.2 0.37385 0.0
C526 C 0.24518 0.14248 0.36991 0.0
C527 C 0.25329 0.21842 0.36034 0.0
C528 C 0.21457 0.06683 0.42667 0.0
C529 C 0.21558 0.08496 0.41174 0.0
C530 C 0.21045 0.14274 0.41212 0.0
C531 C 0.23981 0.18107 0.36232 0.0
C532 C 0.23308 0.16127 0.37674 0.0
C533 C 0.21962 0.10491 0.4215 0.0
C534 C 0.22307 0.12408 0.40554 0.0
H535 H 0.25052 0.19896 0.30396 0.0
H536 H 0.23686 0.1668 0.32754 0.0
H537 H 0.20537 0.17529 0.4034 0.0
H538 H 0.22352 0.08959 0.48066 0.0
H539 H 0.2254 0.12145 0.45461 0.0
C540 C 0.31083 0.75213 0.76629 0.0
C541 C 0.29189 0.76799 0.76149 0.0
C542 C 0.32824 0.75338 0.78594 0.0
C543 C 0.33424 0.77781 0.84473 0.0
H544 H 0.41347 0.76412 0.83714 0.0
C545 C 0.41341 0.79066 0.91991 0.0
C546 C 0.43255 0.77474 0.92387 0.0
C547 C 0.39646 0.79037 0.8999 0.0
C548 C 0.39131 0.76778 0.83963 0.0
H549 H 0.27607 0.79745 0.77366 0.0
H550 H 0.30668 0.79973 0.80786 0.0
H551 H 0.38335 0.76239 0.80264 0.0
H552 H 0.44926 0.74626 0.90963 0.0
H553 H 0.41927 0.74547 0.87512 0.0
H554 H 0.3421 0.78303 0.88176 0.0
C555 C 0.30796 0.78629 0.7965 0.0
C556 C 0.37408 0.7668 0.81986 0.0
C557 C 0.29066 0.78509 0.77679 0.0
C558 C 0.43446 0.7586 0.9073 0.0
C559 C 0.41753 0.75831 0.88733 0.0
C560 C 0.35145 0.77874 0.86453 0.0
C561 C 0.32696 0.77046 0.80127 0.0
C562 C 0.34534 0.77174 0.82221 0.0
C563 C 0.39832 0.77417 0.88339 0.0
C564 C 0.38017 0.77366 0.86222 0.0
H565 H 0.3124 0.73885 0.7547 0.0
H566 H 0.34248 0.74084 0.7893 0.0
H567 H 0.31207 0.78146 0.84717 0.0
H568 H 0.41125 0.80322 0.93244 0.0
H569 H 0.38208 0.80293 0.89725 0.0
C570 C 0.80247 0.80694 0.33525 0.0
C571 C 0.77539 0.79797 0.3314 0.0
C572 C 0.80543 0.82462 0.34925 0.0
C573 C 0.76431 0.86786 0.37482 0.0
H574 H 0.82975 0.87431 0.41421 0.0
C575 C 0.78708 0.94398 0.42503 0.0
C576 C 0.79858 0.94216 0.44783 0.0
C577 C 0.78497 0.92657 0.41049 0.0
C578 C 0.81114 0.87269 0.40356 0.0
H579 H 0.73021 0.80002 0.33935 0.0
H580 H 0.73527 0.83041 0.36468 0.0
H581 H 0.82381 0.84319 0.39065 0.0
H582 H 0.81658 0.92087 0.47355 0.0
H583 H 0.81194 0.89023 0.44867 0.0
H584 H 0.75086 0.89682 0.38871 0.0
C585 C 0.75426 0.82429 0.35631 0.0
C586 C 0.80797 0.85494 0.38969 0.0
C587 C 0.7513 0.80682 0.34195 0.0
C588 C 0.80795 0.92268 0.45588 0.0
C589 C 0.80539 0.90517 0.44154 0.0
C590 C 0.76725 0.88545 0.38898 0.0
C591 C 0.78137 0.8335 0.36005 0.0
C592 C 0.78457 0.85232 0.37505 0.0
C593 C 0.79384 0.90687 0.41865 0.0
C594 C 0.79076 0.88814 0.4035 0.0
H595 H 0.82133 0.80049 0.32703 0.0
H596 H 0.82659 0.83148 0.35126 0.0
H597 H 0.74622 0.86659 0.36353 0.0
H598 H 0.77995 0.95893 0.41839 0.0
H599 H 0.77654 0.92863 0.39279 0.0
C600 C 0.73854 0.25008 0.79758 0.0
C601 C 0.73411 0.26523 0.77941 0.0
C602 C 0.7206 0.24831 0.81836 0.0
C603 C 0.66626 0.2774 0.85311 0.0
H604 H 0.65046 0.22286 0.88526 0.0
C605 C 0.57928 0.2603 0.92935 0.0
C606 C 0.58927 0.25147 0.95067 0.0
C607 C 0.59674 0.26186 0.90827 0.0
C608 C 0.65482 0.23817 0.87645 0.0
H609 H 0.70735 0.29011 0.76821 0.0
H610 H 0.67506 0.28647 0.80395 0.0
H611 H 0.68054 0.22563 0.84821 0.0
H612 H 0.62505 0.23744 0.96698 0.0
H613 H 0.65539 0.23941 0.92967 0.0
H614 H 0.63949 0.28965 0.88109 0.0
C615 C 0.69293 0.2764 0.80271 0.0
C616 C 0.6722 0.23984 0.85531 0.0
C617 C 0.71125 0.27843 0.78215 0.0
C618 C 0.61688 0.24406 0.9506 0.0
C619 C 0.63414 0.24521 0.92938 0.0
C620 C 0.64842 0.27563 0.87397 0.0
C621 C 0.69746 0.2614 0.82121 0.0
C622 C 0.67834 0.25951 0.84343 0.0
C623 C 0.62425 0.25427 0.90812 0.0
C624 C 0.64274 0.25603 0.88587 0.0
H625 H 0.75627 0.23988 0.79591 0.0
H626 H 0.72524 0.23689 0.83234 0.0
H627 H 0.6709 0.29287 0.84485 0.0
H628 H 0.55803 0.26613 0.9291 0.0
H629 H 0.58869 0.26883 0.89203 0.0
C630 C 0.24908 0.80182 0.66553 0.0
C631 C 0.24872 0.80287 0.69079 0.0
C632 C 0.24609 0.81992 0.65114 0.0
C633 C 0.25391 0.87776 0.65226 0.0
H634 H 0.20828 0.87579 0.59593 0.0
C635 C 0.22751 0.95245 0.59768 0.0
C636 C 0.22966 0.9513 0.57251 0.0
C637 C 0.22927 0.93431 0.61227 0.0
C638 C 0.2213 0.87654 0.61148 0.0
H639 H 0.24416 0.82356 0.7208 0.0
H640 H 0.2388 0.85513 0.69572 0.0
H641 H 0.21222 0.84406 0.62115 0.0
H642 H 0.23531 0.93085 0.54255 0.0
H643 H 0.23857 0.89897 0.56802 0.0
H644 H 0.26296 0.91024 0.64261 0.0
C645 C 0.24196 0.84041 0.68699 0.0
C646 C 0.22358 0.85836 0.62591 0.0
C647 C 0.245 0.82233 0.70136 0.0
C648 C 0.23353 0.9319 0.56201 0.0
C649 C 0.23522 0.91374 0.57656 0.0
C650 C 0.25157 0.89593 0.63787 0.0
C651 C 0.24261 0.83944 0.66171 0.0
C652 C 0.23995 0.85876 0.64645 0.0
C653 C 0.23315 0.91476 0.60185 0.0
C654 C 0.2353 0.89551 0.6173 0.0
H655 H 0.25222 0.78707 0.65687 0.0
H656 H 0.24707 0.81869 0.63171 0.0
H657 H 0.26706 0.87852 0.66773 0.0
H658 H 0.22448 0.96738 0.60598 0.0
H659 H 0.2273 0.93555 0.63168 0.0
C660 C 0.71623 0.74675 0.25511 0.0
C661 C 0.73453 0.76385 0.26023 0.0
C662 C 0.69924 0.74774 0.23516 0.0
C663 C 0.66967 0.78566 0.19197 0.0
H664 H 0.65795 0.73629 0.15404 0.0
C665 C 0.61621 0.78787 0.10028 0.0
C666 C 0.59562 0.77173 0.09675 0.0
C667 C 0.63323 0.78702 0.12022 0.0
C668 C 0.66087 0.75015 0.16459 0.0
H669 H 0.74992 0.79521 0.24826 0.0
H670 H 0.72066 0.79685 0.21323 0.0
H671 H 0.68768 0.73454 0.1888 0.0
H672 H 0.57646 0.74224 0.11178 0.0
H673 H 0.6065 0.74062 0.14628 0.0
H674 H 0.64311 0.80131 0.16747 0.0
C675 C 0.71885 0.78286 0.22491 0.0
C676 C 0.67782 0.74915 0.18454 0.0
C677 C 0.73566 0.78191 0.24494 0.0
C678 C 0.59248 0.75473 0.11365 0.0
C679 C 0.60963 0.75381 0.13346 0.0
C680 C 0.65289 0.7867 0.17191 0.0
C681 C 0.70037 0.76581 0.2198 0.0
C682 C 0.68238 0.76688 0.19852 0.0
C683 C 0.63016 0.76994 0.13696 0.0
C684 C 0.64826 0.76894 0.15806 0.0
H685 H 0.71473 0.73272 0.26676 0.0
H686 H 0.68492 0.73445 0.23199 0.0
H687 H 0.67233 0.79952 0.20256 0.0
H688 H 0.61949 0.80104 0.08745 0.0
H689 H 0.64912 0.79956 0.12234 0.0
C690 C 0.78733 0.23507 0.6835 0.0
C691 C 0.78278 0.23276 0.70873 0.0
C692 C 0.79149 0.21755 0.66953 0.0
C693 C 0.77366 0.16188 0.66786 0.0
H694 H 0.83819 0.15985 0.62213 0.0
C695 C 0.79361 0.08755 0.61473 0.0
C696 C 0.80437 0.09023 0.59079 0.0
C697 C 0.79256 0.10469 0.62973 0.0
C698 C 0.81981 0.16025 0.63453 0.0
H699 H 0.77982 0.21008 0.73896 0.0
H700 H 0.78591 0.17948 0.71434 0.0
H701 H 0.833 0.19057 0.64678 0.0
H702 H 0.82233 0.11275 0.56356 0.0
H703 H 0.81951 0.14289 0.58933 0.0
H704 H 0.75964 0.13212 0.65516 0.0
C705 C 0.78628 0.19493 0.70554 0.0
C706 C 0.81698 0.17781 0.64872 0.0
C707 C 0.78262 0.21247 0.71958 0.0
C708 C 0.81422 0.11029 0.58208 0.0
C709 C 0.81271 0.12751 0.59692 0.0
C710 C 0.77619 0.1445 0.6534 0.0
C711 C 0.79072 0.19734 0.68041 0.0
C712 C 0.79392 0.17873 0.66552 0.0
C713 C 0.80175 0.12496 0.62094 0.0
C714 C 0.79933 0.14341 0.63656 0.0
H715 H 0.7871 0.25036 0.67443 0.0
H716 H 0.79461 0.21974 0.65012 0.0
H717 H 0.75551 0.16238 0.68052 0.0
H718 H 0.78615 0.07215 0.62188 0.0
H719 H 0.7846 0.10198 0.64823 0.0
C720 C 0.33823 0.26661 0.26335 0.0
C721 C 0.31334 0.25367 0.26626 0.0
C722 C 0.35627 0.26541 0.24276 0.0
C723 C 0.37127 0.23153 0.19041 0.0
H724 H 0.40965 0.28254 0.16295 0.0
C725 C 0.42241 0.23982 0.09348 0.0
C726 C 0.45073 0.24774 0.0918 0.0
C727 C 0.40659 0.23998 0.11539 0.0
C728 C 0.39917 0.26818 0.17056 0.0
H729 H 0.28733 0.22967 0.24997 0.0
H730 H 0.31799 0.22812 0.21362 0.0
H731 H 0.38004 0.284 0.20004 0.0
H732 H 0.48471 0.26241 0.11116 0.0
H733 H 0.45667 0.26331 0.14949 0.0
H734 H 0.38962 0.216 0.16018 0.0
C735 C 0.32437 0.23866 0.22748 0.0
C736 C 0.38234 0.26894 0.19189 0.0
C737 C 0.30666 0.23961 0.24824 0.0
C738 C 0.4629 0.25615 0.11219 0.0
C739 C 0.44692 0.2567 0.13397 0.0
C740 C 0.38767 0.23087 0.16886 0.0
C741 C 0.34946 0.25151 0.22445 0.0
C742 C 0.36809 0.25063 0.20209 0.0
C743 C 0.41868 0.24854 0.13576 0.0
C744 C 0.40171 0.24919 0.15876 0.0
H745 H 0.34387 0.27748 0.27713 0.0
H746 H 0.37562 0.27528 0.24131 0.0
H747 H 0.3612 0.21702 0.19794 0.0
H748 H 0.41257 0.23355 0.07782 0.0
H749 H 0.38475 0.23379 0.11633 0.0
C750 C 0.77817 0.70967 0.71879 0.0
C751 C 0.79119 0.72973 0.71366 0.0
C752 C 0.79282 0.69156 0.71401 0.0
C753 C 0.85202 0.67165 0.67753 0.0
H754 H 0.8552 0.62963 0.72935 0.0
C755 C 0.93361 0.60689 0.67535 0.0
C756 C 0.92589 0.58722 0.68644 0.0
C757 C 0.91528 0.62346 0.67702 0.0
C758 C 0.85414 0.64096 0.71448 0.0
H759 H 0.82999 0.74634 0.69944 0.0
H760 H 0.85515 0.71474 0.69054 0.0
H761 H 0.82627 0.65994 0.73505 0.0
H762 H 0.89254 0.56911 0.70708 0.0
H763 H 0.86009 0.59782 0.70942 0.0
H764 H 0.87964 0.65268 0.65682 0.0
C765 C 0.83354 0.7131 0.69817 0.0
C766 C 0.83762 0.65837 0.71782 0.0
C767 C 0.81905 0.7312 0.70322 0.0
C768 C 0.89914 0.58422 0.69862 0.0
C769 C 0.88064 0.60071 0.70004 0.0
C770 C 0.86829 0.6541 0.67406 0.0
C771 C 0.82067 0.69312 0.70371 0.0
C772 C 0.8367 0.67402 0.6995 0.0
C773 C 0.88864 0.62065 0.68959 0.0
C774 C 0.86987 0.63866 0.69261 0.0
H775 H 0.75657 0.70792 0.72642 0.0
H776 H 0.78232 0.67633 0.71823 0.0
H777 H 0.8514 0.68339 0.66301 0.0
H778 H 0.95426 0.60967 0.66608 0.0
H779 H 0.92242 0.63865 0.66909 0.0
C780 C 0.79213 0.3193 0.31982 0.0
C781 C 0.80579 0.30016 0.32125 0.0
C782 C 0.80658 0.33812 0.32506 0.0
C783 C 0.86897 0.35928 0.35603 0.0
H784 H 0.86357 0.40761 0.31245 0.0
C785 C 0.95026 0.42969 0.35183 0.0
C786 C 0.94042 0.44979 0.34733 0.0
C787 C 0.93166 0.41204 0.3514 0.0
C788 C 0.86494 0.39439 0.32505 0.0
H789 H 0.84544 0.28584 0.32897 0.0
H790 H 0.87056 0.31861 0.33814 0.0
H791 H 0.83498 0.37559 0.30629 0.0
H792 H 0.90378 0.46765 0.33962 0.0
H793 H 0.87087 0.43674 0.33912 0.0
H794 H 0.89927 0.37798 0.37457 0.0
C795 C 0.84854 0.31904 0.33339 0.0
C796 C 0.84858 0.37603 0.3215 0.0
C797 C 0.83414 0.30026 0.32811 0.0
C798 C 0.91163 0.45217 0.34312 0.0
C799 C 0.89297 0.43452 0.34267 0.0
C800 C 0.8853 0.37765 0.35961 0.0
C801 C 0.83496 0.33819 0.33187 0.0
C802 C 0.85073 0.35817 0.33673 0.0
C803 C 0.90288 0.41423 0.34645 0.0
C804 C 0.88379 0.39532 0.34395 0.0
H805 H 0.77017 0.3197 0.3149 0.0
H806 H 0.79545 0.3526 0.32397 0.0
H807 H 0.87073 0.34589 0.36832 0.0
H808 H 0.97252 0.42765 0.35496 0.0
H809 H 0.94007 0.39665 0.35406 0.0
C810 C 0.20542 0.30091 0.71044 0.0
C811 C 0.23243 0.30137 0.72028 0.0
C812 C 0.19217 0.31953 0.70504 0.0
C813 C 0.18847 0.3737 0.72278 0.0
H814 H 0.15235 0.38221 0.66207 0.0
C815 C 0.13048 0.44945 0.70161 0.0
C816 C 0.10491 0.44716 0.68973 0.0
C817 C 0.14841 0.43265 0.70358 0.0
C818 C 0.16204 0.38 0.67923 0.0
H819 H 0.2669 0.322 0.73161 0.0
H820 H 0.24322 0.35451 0.72286 0.0
H821 H 0.17909 0.35083 0.66891 0.0
H822 H 0.07797 0.4256 0.67061 0.0
H823 H 0.10873 0.39611 0.67458 0.0
H824 H 0.17061 0.40232 0.73361 0.0
C825 C 0.23244 0.33963 0.71936 0.0
C826 C 0.17746 0.36207 0.68307 0.0
C827 C 0.24589 0.32099 0.72447 0.0
C828 C 0.09775 0.42786 0.6796 0.0
C829 C 0.11548 0.41099 0.68181 0.0
C830 C 0.17275 0.3915 0.71908 0.0
C831 C 0.20543 0.33905 0.70963 0.0
C832 C 0.19061 0.35867 0.70496 0.0
C833 C 0.14097 0.41311 0.69397 0.0
C834 C 0.1591 0.39479 0.69733 0.0
H835 H 0.19413 0.28613 0.7074 0.0
H836 H 0.17116 0.31864 0.69786 0.0
H837 H 0.19815 0.37132 0.73994 0.0
H838 H 0.13664 0.46426 0.70934 0.0
H839 H 0.16811 0.43501 0.71265 0.0
C840 C 0.19507 0.71728 0.30879 0.0
C841 C 0.22404 0.7176 0.3014 0.0
C842 C 0.17978 0.69822 0.31373 0.0
C843 C 0.18038 0.64193 0.30083 0.0
H844 H 0.12552 0.63601 0.35522 0.0
C845 C 0.12065 0.56289 0.3276 0.0
C846 C 0.09147 0.56386 0.33333 0.0
C847 C 0.13784 0.58134 0.32489 0.0
C848 C 0.1406 0.63748 0.33985 0.0
H849 H 0.25982 0.69819 0.29388 0.0
H850 H 0.23309 0.66488 0.30249 0.0
H851 H 0.15371 0.66889 0.3482 0.0
H852 H 0.05712 0.58433 0.34116 0.0
H853 H 0.08704 0.61675 0.33626 0.0
H854 H 0.16711 0.61061 0.29235 0.0
C855 C 0.22212 0.67937 0.30412 0.0
C856 C 0.15673 0.65631 0.33583 0.0
C857 C 0.23741 0.69844 0.29918 0.0
C858 C 0.07967 0.58338 0.33673 0.0
C859 C 0.09681 0.60184 0.33406 0.0
C860 C 0.16425 0.62311 0.30485 0.0
C861 C 0.19311 0.67905 0.31139 0.0
C862 C 0.17666 0.6588 0.31617 0.0
C863 C 0.12607 0.60104 0.32797 0.0
C864 C 0.14403 0.62073 0.32431 0.0
H865 H 0.18407 0.73177 0.31032 0.0
H866 H 0.15735 0.6985 0.31892 0.0
H867 H 0.19528 0.64345 0.28534 0.0
H868 H 0.13005 0.54786 0.3251 0.0
H869 H 0.16035 0.5802 0.3205 0.0
C870 C 0.76963 0.80371 0.66904 0.0
C871 C 0.77042 0.8048 0.69425 0.0
C872 C 0.77429 0.82184 0.65426 0.0
C873 C 0.80642 0.87576 0.65353 0.0
H874 H 0.75758 0.88548 0.60032 0.0
C875 C 0.80434 0.95592 0.60211 0.0
C876 C 0.80151 0.95567 0.57711 0.0
C877 C 0.80205 0.93715 0.61595 0.0
C878 C 0.77167 0.88287 0.61489 0.0
H879 H 0.77709 0.8257 0.72371 0.0
H880 H 0.78478 0.85738 0.69796 0.0
H881 H 0.75051 0.85331 0.62529 0.0
H882 H 0.79447 0.93615 0.54667 0.0
H883 H 0.79084 0.90313 0.57074 0.0
H884 H 0.8275 0.90537 0.6432 0.0
C885 C 0.78077 0.84249 0.6896 0.0
C886 C 0.76759 0.86444 0.62921 0.0
C887 C 0.77603 0.82439 0.70436 0.0
C888 C 0.79674 0.93652 0.56599 0.0
C889 C 0.79447 0.91774 0.57978 0.0
C890 C 0.81053 0.89418 0.63919 0.0
C891 C 0.77997 0.84143 0.66439 0.0
C892 C 0.78481 0.86074 0.64877 0.0
C893 C 0.79684 0.91785 0.60496 0.0
C894 C 0.7931 0.898 0.61978 0.0
H895 H 0.76517 0.78885 0.66074 0.0
H896 H 0.77375 0.82049 0.63488 0.0
H897 H 0.82032 0.8732 0.66825 0.0
H898 H 0.80779 0.97067 0.61092 0.0
H899 H 0.80361 0.9378 0.63531 0.0
C900 C 0.75086 0.26997 0.24634 0.0
C901 C 0.74219 0.25894 0.268 0.0
C902 C 0.73427 0.2688 0.22616 0.0
C903 C 0.67973 0.2356 0.19878 0.0
H904 H 0.66476 0.28644 0.16211 0.0
C905 C 0.59797 0.23662 0.12446 0.0
C906 C 0.60428 0.24972 0.10388 0.0
C907 C 0.61531 0.23744 0.14419 0.0
C908 C 0.66907 0.27204 0.17191 0.0
H909 H 0.70894 0.23831 0.28549 0.0
H910 H 0.68024 0.23603 0.25012 0.0
H911 H 0.69409 0.28856 0.19707 0.0
H912 H 0.63411 0.2735 0.08749 0.0
H913 H 0.66473 0.27468 0.12171 0.0
H914 H 0.65504 0.21902 0.17354 0.0
C915 C 0.70003 0.24542 0.24875 0.0
C916 C 0.68581 0.27329 0.19199 0.0
C917 C 0.71651 0.24671 0.26898 0.0
C918 C 0.62853 0.26342 0.10326 0.0
C919 C 0.646 0.26413 0.1229 0.0
C920 C 0.66316 0.23433 0.1786 0.0
C921 C 0.70874 0.25646 0.22714 0.0
C922 C 0.69122 0.25509 0.20568 0.0
C923 C 0.63948 0.25128 0.14371 0.0
C924 C 0.65754 0.25254 0.16495 0.0
H925 H 0.77074 0.27925 0.24482 0.0
H926 H 0.74167 0.27728 0.20965 0.0
H927 H 0.68388 0.22129 0.20882 0.0
H928 H 0.5792 0.2261 0.12557 0.0
H929 H 0.60938 0.22756 0.16004 0.0
C930 C 0.22517 0.22237 0.69137 0.0
C931 C 0.25085 0.22625 0.70276 0.0
C932 C 0.22162 0.20502 0.67688 0.0
C933 C 0.26282 0.1656 0.64395 0.0
H934 H 0.18946 0.13539 0.64374 0.0
C935 C 0.24773 0.0851 0.60126 0.0
C936 C 0.22599 0.08331 0.58479 0.0
C937 C 0.24983 0.10238 0.61595 0.0
C938 C 0.20999 0.14379 0.64355 0.0
H939 H 0.29303 0.21487 0.7076 0.0
H940 H 0.28637 0.18417 0.6834 0.0
H941 H 0.19523 0.16584 0.66892 0.0
H942 H 0.18896 0.0982 0.5714 0.0
H943 H 0.19223 0.1281 0.59771 0.0
H944 H 0.27766 0.14311 0.61907 0.0
C945 C 0.26915 0.19479 0.68515 0.0
C946 C 0.21332 0.16129 0.65786 0.0
C947 C 0.27282 0.21226 0.69939 0.0
C948 C 0.20578 0.0989 0.58404 0.0
C949 C 0.20768 0.11608 0.59901 0.0
C950 C 0.25957 0.14795 0.62994 0.0
C951 C 0.24354 0.19096 0.67362 0.0
C952 C 0.23981 0.17242 0.65827 0.0
C953 C 0.23 0.11812 0.61481 0.0
C954 C 0.23316 0.13688 0.62963 0.0
H955 H 0.20762 0.23262 0.6938 0.0
H956 H 0.20174 0.20277 0.66806 0.0
H957 H 0.28334 0.17401 0.64334 0.0
H958 H 0.26325 0.07317 0.6028 0.0
H959 H 0.26697 0.10344 0.62828 0.0
C960 C 0.28388 0.75475 0.22592 0.0
C961 C 0.29332 0.76175 0.24803 0.0
C962 C 0.30162 0.75691 0.20505 0.0
C963 C 0.36622 0.78593 0.17867 0.0
H964 H 0.36634 0.74036 0.13408 0.0
C965 C 0.44992 0.78087 0.09959 0.0
C966 C 0.43987 0.77429 0.07756 0.0
C967 C 0.43172 0.78025 0.12023 0.0
C968 C 0.36631 0.75332 0.14622 0.0
H969 H 0.32879 0.77642 0.26567 0.0
H970 H 0.36001 0.77997 0.22924 0.0
H971 H 0.33554 0.73731 0.17062 0.0
H972 H 0.4032 0.76248 0.05931 0.0
H973 H 0.37116 0.76128 0.09547 0.0
H974 H 0.39737 0.80177 0.1543 0.0
C975 C 0.33869 0.77314 0.22794 0.0
C976 C 0.34864 0.75159 0.16716 0.0
C977 C 0.32085 0.77107 0.24882 0.0
C978 C 0.4113 0.76746 0.07626 0.0
C979 C 0.39312 0.76671 0.09691 0.0
C980 C 0.38403 0.7876 0.15775 0.0
C981 C 0.3293 0.76602 0.20581 0.0
C982 C 0.34831 0.76789 0.18362 0.0
C983 C 0.4032 0.77294 0.11916 0.0
C984 C 0.3842 0.77133 0.14129 0.0
H985 H 0.26259 0.74783 0.22469 0.0
H986 H 0.29349 0.75163 0.18823 0.0
H987 H 0.3662 0.7989 0.19078 0.0
H988 H 0.47196 0.7862 0.10085 0.0
H989 H 0.44014 0.78499 0.13715 0.0
C990 C 0.7823 0.2244 0.36469 0.0
C991 C 0.78382 0.2235 0.33941 0.0
C992 C 0.78563 0.20639 0.37911 0.0
C993 C 0.81465 0.15359 0.37804 0.0
H994 H 0.76432 0.14285 0.43483 0.0
C995 C 0.80816 0.07458 0.43305 0.0
C996 C 0.80519 0.07566 0.4582 0.0
C997 C 0.8069 0.09278 0.41844 0.0
C998 C 0.77878 0.14575 0.41921 0.0
H999 H 0.79035 0.20304 0.3094 0.0
H1000 H 0.79566 0.17147 0.3346 0.0
H1001 H 0.75922 0.17425 0.40949 0.0
H1002 H 0.79908 0.0961 0.48811 0.0
H1003 H 0.79721 0.12809 0.46267 0.0
H1004 H 0.83414 0.125 0.38778 0.0
C1005 C 0.79216 0.18616 0.34327 0.0
C1006 C 0.77585 0.16374 0.40468 0.0
C1007 C 0.78879 0.20419 0.32884 0.0
C1008 C 0.80141 0.09508 0.46868 0.0
C1009 C 0.80015 0.11327 0.45412 0.0
C1010 C 0.8176 0.13557 0.3926 0.0
C1011 C 0.79056 0.18706 0.36856 0.0
C1012 C 0.79375 0.16789 0.38395 0.0
C1013 C 0.80256 0.11229 0.42882 0.0
C1014 C 0.79971 0.13147 0.41337 0.0
H1015 H 0.77825 0.23901 0.37337 0.0
H1016 H 0.78457 0.20764 0.39854 0.0
H1017 H 0.82902 0.15649 0.36236 0.0
H1018 H 0.81089 0.05962 0.42476 0.0
H1019 H 0.80853 0.09148 0.39903 0.0
C1020 C 0.28228 0.26854 0.79726 0.0
C1021 C 0.29065 0.25877 0.77588 0.0
C1022 C 0.29856 0.26708 0.81762 0.0
C1023 C 0.35145 0.23501 0.84613 0.0
H1024 H 0.37026 0.28548 0.88027 0.0
C1025 C 0.43596 0.23704 0.91808 0.0
C1026 C 0.43127 0.24944 0.93821 0.0
C1027 C 0.41783 0.23775 0.89888 0.0
C1028 C 0.36485 0.27117 0.87121 0.0
H1029 H 0.32295 0.24001 0.75916 0.0
H1030 H 0.35099 0.23718 0.79484 0.0
H1031 H 0.34009 0.28747 0.84583 0.0
H1032 H 0.40351 0.27183 0.95435 0.0
H1033 H 0.37149 0.27278 0.92107 0.0
H1034 H 0.37592 0.21863 0.87156 0.0
C1035 C 0.3317 0.24581 0.79585 0.0
C1036 C 0.34762 0.27234 0.85143 0.0
C1037 C 0.31558 0.2474 0.77544 0.0
C1038 C 0.40784 0.26231 0.93891 0.0
C1039 C 0.38957 0.26289 0.9198 0.0
C1040 C 0.36849 0.2338 0.86603 0.0
C1041 C 0.32342 0.25569 0.81712 0.0
C1042 C 0.34091 0.2543 0.83859 0.0
C1043 C 0.39446 0.25075 0.89945 0.0
C1044 C 0.37558 0.25189 0.87873 0.0
H1045 H 0.26297 0.27712 0.79837 0.0
H1046 H 0.29151 0.27466 0.83388 0.0
H1047 H 0.3463 0.22081 0.83676 0.0
H1048 H 0.45408 0.22718 0.91692 0.0
H1049 H 0.42256 0.22846 0.88334 0.0
C1050 C 0.24873 0.81275 0.31265 0.0
C1051 C 0.24861 0.79205 0.32228 0.0
C1052 C 0.24496 0.82961 0.32774 0.0
C1053 C 0.24791 0.84405 0.39198 0.0
H1054 H 0.20828 0.8924 0.36941 0.0
C1055 C 0.24955 0.92093 0.44319 0.0
C1056 C 0.22545 0.93319 0.44336 0.0
C1057 C 0.25114 0.90342 0.42888 0.0
C1058 C 0.21905 0.87892 0.37618 0.0
H1059 H 0.24462 0.773 0.35554 0.0
H1060 H 0.23658 0.80216 0.38162 0.0
H1061 H 0.21252 0.86234 0.34392 0.0
H1062 H 0.18389 0.9363 0.42864 0.0
H1063 H 0.18609 0.90515 0.40455 0.0
H1064 H 0.2534 0.86021 0.42463 0.0
C1065 C 0.24027 0.80549 0.36244 0.0
C1066 C 0.22192 0.86178 0.36135 0.0
C1067 C 0.24445 0.78866 0.34739 0.0
C1068 C 0.2027 0.92717 0.42915 0.0
C1069 C 0.20414 0.90944 0.41504 0.0
C1070 C 0.24469 0.86105 0.40692 0.0
C1071 C 0.24057 0.82621 0.35284 0.0
C1072 C 0.23665 0.8442 0.36894 0.0
C1073 C 0.22847 0.8974 0.4146 0.0
C1074 C 0.23054 0.87883 0.39913 0.0
H1075 H 0.25145 0.81598 0.29339 0.0
H1076 H 0.24579 0.84534 0.31968 0.0
H1077 H 0.25968 0.83095 0.3984 0.0
H1078 H 0.26728 0.92478 0.45423 0.0
H1079 H 0.27041 0.89478 0.42879 0.0
C1080 C 0.73673 0.76064 0.79144 0.0
C1081 C 0.72714 0.76871 0.76955 0.0
C1082 C 0.72001 0.76162 0.81281 0.0
C1083 C 0.66003 0.78961 0.8402 0.0
H1084 H 0.6556 0.74247 0.88646 0.0
C1085 C 0.57751 0.78215 0.92067 0.0
C1086 C 0.5871 0.7749 0.94284 0.0
C1087 C 0.59523 0.78198 0.89979 0.0
C1088 C 0.65688 0.75586 0.87384 0.0
H1089 H 0.69232 0.78373 0.75278 0.0
H1090 H 0.66296 0.78522 0.79 0.0
H1091 H 0.68506 0.74072 0.84934 0.0
H1092 H 0.62249 0.76226 0.96108 0.0
H1093 H 0.65369 0.76188 0.92448 0.0
H1094 H 0.63154 0.80461 0.86462 0.0
C1095 C 0.68365 0.77854 0.79078 0.0
C1096 C 0.67377 0.75487 0.85257 0.0
C1097 C 0.70042 0.77764 0.76944 0.0
C1098 C 0.61474 0.76777 0.94402 0.0
C1099 C 0.63243 0.76748 0.92312 0.0
C1100 C 0.64304 0.79056 0.86142 0.0
C1101 C 0.69328 0.77061 0.81274 0.0
C1102 C 0.67551 0.77172 0.83547 0.0
C1103 C 0.6228 0.77449 0.90076 0.0
C1104 C 0.64125 0.77368 0.87844 0.0
H1105 H 0.75741 0.75392 0.79212 0.0
H1106 H 0.72827 0.75564 0.82945 0.0
H1107 H 0.66127 0.80302 0.82762 0.0
H1108 H 0.55619 0.78769 0.91951 0.0
H1109 H 0.58712 0.78729 0.8828 0.0
loop_
_geom_bond_atom_site_label_1
_geom_bond_atom_site_label_2
_geom_bond_distance
_geom_bond_site_symmetry_2
_ccdc_geom_bond_type
H0 C3 0.931 . S
H1 C6 0.928 . S
H2 C8 0.930 . S
C3 H0 0.931 . S
C3 C4 1.413 . S
C3 C5 1.360 . S
C4 C3 1.413 . S
C4 C8 1.429 . S
C5 C3 1.360 . S
C5 C6 1.372 . S
C6 H1 0.928 . S
C6 C5 1.372 . S
C6 C7 1.404 . S
C7 C6 1.404 . S
C7 C8 1.391 . S
C8 H2 0.930 . S
C8 C4 1.429 . S
C8 C7 1.391 . S
H9 C12 0.931 . S
H10 C15 0.928 . S
H11 C17 0.930 . S
C12 H9 0.931 . S
C12 C13 1.413 . S
C12 C14 1.360 . S
C13 C12 1.413 . S
C13 C17 1.429 . S
C14 C12 1.360 . S
C14 C15 1.372 . S
C15 H10 0.928 . S
C15 C14 1.372 . S
C15 C16 1.404 . S
C16 C15 1.404 . S
C16 C17 1.391 . S
C17 H11 0.930 . S
C17 C13 1.429 . S
C17 C16 1.391 . S
H18 C21 0.931 . S
H19 C24 0.928 . S
H20 C26 0.930 . S
C21 H18 0.931 . S
C21 C22 1.413 . S
C21 C23 1.360 . S
C22 C21 1.413 . S
C22 C26 1.429 . S
C23 C21 1.360 . S
C23 C24 1.372 . S
C24 H19 0.928 . S
C24 C23 1.372 . S
C24 C25 1.404 . S
C25 C24 1.404 . S
C25 C26 1.391 . S
C26 H20 0.930 . S
C26 C22 1.429 . S
C26 C25 1.391 . S
H27 C30 0.931 . S
H28 C33 0.928 . S
H29 C35 0.930 . S
C30 H27 0.931 . S
C30 C31 1.413 . S
C30 C32 1.360 . S
C31 C30 1.413 . S
C31 C35 1.429 . S
C32 C30 1.360 . S
C32 C33 1.372 . S
C33 H28 0.928 . S
C33 C32 1.372 . S
C33 C34 1.404 . S
C34 C33 1.404 . S
C34 C35 1.391 . S
C35 H29 0.930 . S
C35 C31 1.429 . S
C35 C34 1.391 . S
H36 C39 0.931 . S
H37 C42 0.928 . S
H38 C44 0.930 . S
C39 H36 0.931 . S
C39 C40 1.413 . S
C39 C41 1.360 . S
C40 C39 1.413 . S
C40 C44 1.429 . S
C41 C39 1.360 . S
C41 C42 1.372 . S
C42 H37 0.928 . S
C42 C41 1.372 . S
C42 C43 1.404 . S
C43 C42 1.404 . S
C43 C44 1.391 . S
C44 H38 0.930 . S
C44 C40 1.429 . S
C44 C43 1.391 . S
H45 C48 0.931 . S
H46 C51 0.928 . S
H47 C53 0.930 . S
C48 H45 0.931 . S
C48 C49 1.413 . S
C48 C50 1.360 . S
C49 C48 1.413 . S
C49 C53 1.429 . S
C50 C48 1.360 . S
C50 C51 1.372 . S
C51 H46 0.928 . S
C51 C50 1.372 . S
C51 C52 1.404 . S
C52 C51 1.404 . S
C52 C53 1.391 . S
C53 H47 0.930 . S
C53 C49 1.429 . S
C53 C52 1.391 . S
H54 C57 0.931 . S
H55 C60 0.928 . S
H56 C62 0.930 . S
C57 H54 0.931 . S
C57 C58 1.413 . S
C57 C59 1.360 . S
C58 C57 1.413 . S
C58 C62 1.429 . S
C59 C57 1.360 . S
C59 C60 1.372 . S
C60 H55 0.928 . S
C60 C59 1.372 . S
C60 C61 1.404 . S
C61 C60 1.404 . S
C61 C62 1.391 . S
C62 H56 0.930 . S
C62 C58 1.429 . S
C62 C61 1.391 . S
H63 C66 0.931 . S
H64 C69 0.928 . S
H65 C71 0.930 . S
C66 H63 0.931 . S
C66 C67 1.413 . S
C66 C68 1.360 . S
C67 C66 1.413 . S
C67 C71 1.429 . S
C68 C66 1.360 . S
C68 C69 1.372 . S
C69 H64 0.928 . S
C69 C68 1.372 . S
C69 C70 1.404 . S
C70 C69 1.404 . S
C70 C71 1.391 . S
C71 H65 0.930 . S
C71 C67 1.429 . S
C71 C70 1.391 . S
C72 C73 1.443 . S
C72 N76 1.376 . S
C72 C110 1.389 . S
C73 C72 1.443 . S
C73 C74 1.340 . S
C73 H113 0.951 . S
C74 C73 1.340 . S
C74 C75 1.439 . S
C74 H114 0.950 . S
C75 C74 1.439 . S
C75 N76 1.374 . S
C75 C109 1.395 . S
N76 C72 1.376 . S
N76 C75 1.374 . S
N76 Co77 2.008 . S
Co77 N76 2.008 . S
Co77 N78 1.982 1_455 S
Co77 N83 2.008 . S
Co77 N88 1.995 . S
Co77 N93 2.282 . S
Co77 N99 2.282 1_455 S
N78 Co77 1.982 1_655 S
N78 C79 1.377 . S
N78 C82 1.398 . S
C79 N78 1.377 . S
C79 C80 1.467 . S
C79 C109 1.372 1_655 S
C80 C79 1.467 . S
C80 C81 1.339 . S
C80 H115 0.949 . S
C81 C80 1.339 . S
C81 C82 1.439 . S
C81 H116 0.950 . S
C82 N78 1.398 . S
C82 C81 1.439 . S
C82 C111 1.392 . S
N83 Co77 2.008 . S
N83 C84 1.376 1_455 S
N83 C87 1.374 . S
C84 N83 1.376 1_655 S
C84 C85 1.443 . S
C84 C111 1.389 . S
C85 C84 1.443 . S
C85 C86 1.340 . S
C85 H117 0.951 . S
C86 C85 1.340 . S
C86 C87 1.439 1_655 S
C86 H118 0.950 . S
C87 N83 1.374 . S
C87 C86 1.439 1_455 S
C87 C112 1.395 . S
N88 Co77 1.995 . S
N88 C89 1.376 . S
N88 C92 1.383 . S
C89 N88 1.376 . S
C89 C90 1.446 . S
C89 C112 1.391 . S
C90 C89 1.446 . S
C90 C91 1.339 . S
C90 H119 0.949 . S
C91 C90 1.339 . S
C91 C92 1.439 . S
C91 H120 0.950 . S
C92 N88 1.383 . S
C92 C91 1.439 . S
C92 C110 1.392 . S
N93 Co77 2.282 . S
N93 C96 1.332 . S
N93 C98 1.332 . S
C94 C95 1.386 . S
C94 C97 1.388 . S
C95 C94 1.386 . S
C95 C96 1.382 . S
C95 H121 0.950 . S
C96 N93 1.332 . S
C96 C95 1.382 . S
C96 H107 0.952 . S
C97 C94 1.388 . S
C97 C98 1.382 . S
C97 H122 0.950 . S
C98 N93 1.332 . S
C98 C97 1.382 . S
C98 H108 0.948 . S
N99 Co77 2.282 1_655 S
N99 C103 1.332 . S
N99 C104 1.332 . S
C100 C101 1.388 . S
C100 C104 1.382 . S
C100 H123 0.950 . S
C101 C100 1.388 . S
C101 C102 1.386 . S
C102 C101 1.386 . S
C102 C103 1.382 . S
C102 H124 0.950 . S
C103 N99 1.332 . S
C103 C102 1.382 . S
C103 H105 0.952 . S
C104 N99 1.332 . S
C104 C100 1.382 . S
C104 H106 0.948 . S
H105 C103 0.952 . S
H106 C104 0.948 . S
H107 C96 0.952 . S
H108 C98 0.948 . S
C109 C75 1.395 . S
C109 C79 1.372 1_455 S
C110 C72 1.389 . S
C110 C92 1.392 . S
C111 C82 1.392 . S
C111 C84 1.389 . S
C112 C87 1.395 . S
C112 C89 1.391 . S
H113 C73 0.951 . S
H114 C74 0.950 . S
H115 C80 0.949 . S
H116 C81 0.950 . S
H117 C85 0.951 . S
H118 C86 0.950 . S
H119 C90 0.949 . S
H120 C91 0.950 . S
H121 C95 0.950 . S
H122 C97 0.950 . S
H123 C100 0.950 . S
H124 C102 0.950 . S
C125 C126 1.443 . S
C125 N129 1.376 . S
C125 C163 1.389 . S
C126 C125 1.443 . S
C126 C127 1.340 . S
C126 H166 0.951 . S
C127 C126 1.340 . S
C127 C128 1.439 . S
C127 H167 0.950 . S
C128 C127 1.439 . S
C128 N129 1.374 . S
C128 C162 1.395 . S
N129 C125 1.376 . S
N129 C128 1.374 . S
N129 Co130 2.008 . S
Co130 N129 2.008 . S
Co130 N131 1.995 1_455 S
Co130 N136 2.008 1_455 S
Co130 N141 1.995 . S
Co130 N146 2.282 . S
Co130 N152 2.282 1_455 S
N131 Co130 1.995 1_655 S
N131 C132 1.376 . S
N131 C135 1.383 . S
C132 N131 1.376 . S
C132 C133 1.446 . S
C132 C162 1.391 1_655 S
C133 C132 1.446 . S
C133 C134 1.339 . S
C133 H168 0.949 . S
C134 C133 1.339 . S
C134 C135 1.439 . S
C134 H169 0.950 . S
C135 N131 1.383 . S
C135 C134 1.439 . S
C135 C164 1.392 . S
N136 Co130 2.008 1_655 S
N136 C137 1.376 . S
N136 C140 1.374 1_655 S
C137 N136 1.376 . S
C137 C138 1.443 . S
C137 C164 1.389 . S
C138 C137 1.443 . S
C138 C139 1.340 . S
C138 H170 0.951 . S
C139 C138 1.340 . S
C139 C140 1.439 1_655 S
C139 H171 0.950 . S
C140 N136 1.374 1_455 S
C140 C139 1.439 1_455 S
C140 C165 1.395 . S
N141 Co130 1.995 . S
N141 C142 1.376 . S
N141 C145 1.383 . S
C142 N141 1.376 . S
C142 C143 1.446 . S
C142 C165 1.391 . S
C143 C142 1.446 . S
C143 C144 1.339 . S
C143 H172 0.949 . S
C144 C143 1.339 . S
C144 C145 1.439 . S
C144 H173 0.950 . S
C145 N141 1.383 . S
C145 C144 1.439 . S
C145 C163 1.392 . S
N146 Co130 2.282 . S
N146 C149 1.332 . S
N146 C151 1.332 . S
C147 C148 1.386 . S
C147 C150 1.388 . S
C148 C147 1.386 . S
C148 C149 1.382 . S
C148 H174 0.950 . S
C149 N146 1.332 . S
C149 C148 1.382 . S
C149 H160 0.952 . S
C150 C147 1.388 . S
C150 C151 1.382 . S
C150 H175 0.950 . S
C151 N146 1.332 . S
C151 C150 1.382 . S
C151 H161 0.948 . S
N152 Co130 2.282 1_655 S
N152 C156 1.332 . S
N152 C157 1.332 . S
C153 C154 1.388 . S
C153 C157 1.382 . S
C153 H176 0.950 . S
C154 C153 1.388 . S
C154 C155 1.386 . S
C155 C154 1.386 . S
C155 C156 1.382 . S
C155 H177 0.950 . S
C156 N152 1.332 . S
C156 C155 1.382 . S
C156 H158 0.952 . S
C157 N152 1.332 . S
C157 C153 1.382 . S
C157 H159 0.948 . S
H158 C156 0.952 . S
H159 C157 0.948 . S
H160 C149 0.952 . S
H161 C151 0.948 . S
C162 C128 1.395 . S
C162 C132 1.391 1_455 S
C163 C125 1.389 . S
C163 C145 1.392 . S
C164 C135 1.392 . S
C164 C137 1.389 . S
C165 C140 1.395 . S
C165 C142 1.391 . S
H166 C126 0.951 . S
H167 C127 0.950 . S
H168 C133 0.949 . S
H169 C134 0.950 . S
H170 C138 0.951 . S
H171 C139 0.950 . S
H172 C143 0.949 . S
H173 C144 0.950 . S
H174 C148 0.950 . S
H175 C150 0.950 . S
H176 C153 0.950 . S
H177 C155 0.950 . S
C178 C179 1.443 . S
C178 N182 1.376 . S
C178 C216 1.389 . S
C179 C178 1.443 . S
C179 C180 1.340 . S
C179 H219 0.951 . S
C180 C179 1.340 . S
C180 C181 1.439 . S
C180 H220 0.950 . S
C181 C180 1.439 . S
C181 N182 1.374 . S
C181 C215 1.395 1_565 S
N182 C178 1.376 . S
N182 C181 1.374 . S
N182 Co183 2.008 1_565 S
Co183 N182 2.008 1_545 S
Co183 N184 1.995 . S
Co183 N189 2.008 . S
Co183 N194 1.995 1_545 S
Co183 N199 2.282 . S
Co183 N205 2.282 1_545 S
N184 Co183 1.995 . S
N184 C185 1.376 . S
N184 C188 1.383 . S
C185 N184 1.376 . S
C185 C186 1.446 . S
C185 C215 1.391 . S
C186 C185 1.446 . S
C186 C187 1.339 . S
C186 H221 0.949 . S
C187 C186 1.339 . S
C187 C188 1.439 . S
C187 H222 0.950 . S
C188 N184 1.383 . S
C188 C187 1.439 . S
C188 C217 1.392 . S
N189 Co183 2.008 . S
N189 C190 1.376 . S
N189 C193 1.374 . S
C190 N189 1.376 . S
C190 C191 1.443 . S
C190 C217 1.389 . S
C191 C190 1.443 . S
C191 C192 1.340 . S
C191 H223 0.951 . S
C192 C191 1.340 . S
C192 C193 1.439 . S
C192 H224 0.950 . S
C193 N189 1.374 . S
C193 C192 1.439 . S
C193 C218 1.395 . S
N194 Co183 1.995 1_565 S
N194 C195 1.376 . S
N194 C198 1.383 . S
C195 N194 1.376 . S
C195 C196 1.446 . S
C195 C218 1.391 1_565 S
C196 C195 1.446 . S
C196 C197 1.339 . S
C196 H225 0.949 . S
C197 C196 1.339 . S
C197 C198 1.439 . S
C197 H226 0.950 . S
C198 N194 1.383 . S
C198 C197 1.439 . S
C198 C216 1.392 . S
N199 Co183 2.282 . S
N199 C202 1.332 . S
N199 C204 1.332 . S
C200 C201 1.386 . S
C200 C203 1.388 . S
C201 C200 1.386 . S
C201 C202 1.382 . S
C201 H227 0.950 . S
C202 N199 1.332 . S
C202 C201 1.382 . S
C202 H213 0.952 . S
C203 C200 1.388 . S
C203 C204 1.382 . S
C203 H228 0.950 . S
C204 N199 1.332 . S
C204 C203 1.382 . S
C204 H214 0.948 . S
N205 Co183 2.282 1_565 S
N205 C209 1.332 . S
N205 C210 1.332 . S
C206 C207 1.388 . S
C206 C210 1.382 . S
C206 H229 0.950 . S
C207 C206 1.388 . S
C207 C208 1.386 . S
C208 C207 1.386 . S
C208 C209 1.382 . S
C208 H230 0.950 . S
C209 N205 1.332 . S
C209 C208 1.382 . S
C209 H211 0.952 . S
C210 N205 1.332 . S
C210 C206 1.382 . S
C210 H212 0.948 . S
H211 C209 0.952 . S
H212 C210 0.948 . S
H213 C202 0.952 . S
H214 C204 0.948 . S
C215 C181 1.395 1_545 S
C215 C185 1.391 . S
C216 C178 1.389 . S
C216 C198 1.392 . S
C217 C188 1.392 . S
C217 C190 1.389 . S
C218 C193 1.395 . S
C218 C195 1.391 1_545 S
H219 C179 0.951 . S
H220 C180 0.950 . S
H221 C186 0.949 . S
H222 C187 0.950 . S
H223 C191 0.951 . S
H224 C192 0.950 . S
H225 C196 0.949 . S
H226 C197 0.950 . S
H227 C201 0.950 . S
H228 C203 0.950 . S
H229 C206 0.950 . S
H230 C208 0.950 . S
C231 C232 1.443 . S
C231 N235 1.376 . S
C231 C269 1.389 . S
C232 C231 1.443 . S
C232 C233 1.340 . S
C232 H272 0.951 . S
C233 C232 1.340 . S
C233 C234 1.439 . S
C233 H273 0.950 . S
C234 C233 1.439 . S
C234 N235 1.374 . S
C234 C268 1.395 . S
N235 C231 1.376 . S
N235 C234 1.374 . S
N235 Co236 2.008 . S
Co236 N235 2.008 . S
Co236 N237 1.995 1_554 S
Co236 N242 2.008 1_554 S
Co236 N247 1.995 . S
Co236 N252 2.282 1_554 S
Co236 N258 2.282 . S
N237 Co236 1.995 1_556 S
N237 C238 1.376 . S
N237 C241 1.383 . S
C238 N237 1.376 . S
C238 C239 1.446 . S
C238 C268 1.391 1_556 S
C239 C238 1.446 . S
C239 C240 1.339 . S
C239 H274 0.949 . S
C240 C239 1.339 . S
C240 C241 1.439 . S
C240 H275 0.950 . S
C241 N237 1.383 . S
C241 C240 1.439 . S
C241 C270 1.392 . S
N242 Co236 2.008 1_556 S
N242 C243 1.376 . S
N242 C246 1.374 . S
C243 N242 1.376 . S
C243 C244 1.443 . S
C243 C270 1.389 . S
C244 C243 1.443 . S
C244 C245 1.340 . S
C244 H276 0.951 . S
C245 C244 1.340 . S
C245 C246 1.439 . S
C245 H277 0.950 . S
C246 N242 1.374 . S
C246 C245 1.439 . S
C246 C271 1.395 1_556 S
N247 Co236 1.995 . S
N247 C248 1.376 . S
N247 C251 1.383 . S
C248 N247 1.376 . S
C248 C249 1.446 . S
C248 C271 1.391 . S
C249 C248 1.446 . S
C249 C250 1.339 . S
C249 H278 0.949 . S
C250 C249 1.339 . S
C250 C251 1.439 . S
C250 H279 0.950 . S
C251 N247 1.383 . S
C251 C250 1.439 . S
C251 C269 1.392 . S
N252 Co236 2.282 1_556 S
N252 C255 1.332 . S
N252 C257 1.332 . S
C253 C254 1.386 . S
C253 C256 1.388 . S
C254 C253 1.386 . S
C254 C255 1.382 . S
C254 H280 0.950 . S
C255 N252 1.332 . S
C255 C254 1.382 . S
C255 H266 0.952 . S
C256 C253 1.388 . S
C256 C257 1.382 . S
C256 H281 0.950 . S
C257 N252 1.332 . S
C257 C256 1.382 . S
C257 H267 0.948 . S
N258 Co236 2.282 . S
N258 C262 1.332 . S
N258 C263 1.332 . S
C259 C260 1.388 . S
C259 C263 1.382 . S
C259 H282 0.950 . S
C260 C259 1.388 . S
C260 C261 1.386 . S
C261 C260 1.386 . S
C261 C262 1.382 . S
C261 H283 0.950 . S
C262 N258 1.332 . S
C262 C261 1.382 . S
C262 H264 0.952 . S
C263 N258 1.332 . S
C263 C259 1.382 . S
C263 H265 0.948 . S
H264 C262 0.952 . S
H265 C263 0.948 . S
H266 C255 0.952 . S
H267 C257 0.948 . S
C268 C234 1.395 . S
C268 C238 1.391 1_554 S
C269 C231 1.389 . S
C269 C251 1.392 . S
C270 C241 1.392 . S
C270 C243 1.389 . S
C271 C246 1.395 1_554 S
C271 C248 1.391 . S
H272 C232 0.951 . S
H273 C233 0.950 . S
H274 C239 0.949 . S
H275 C240 0.950 . S
H276 C244 0.951 . S
H277 C245 0.950 . S
H278 C249 0.949 . S
H279 C250 0.950 . S
H280 C254 0.950 . S
H281 C256 0.950 . S
H282 C259 0.950 . S
H283 C261 0.950 . S
C284 C285 1.443 . S
C284 N288 1.376 1_565 S
C284 C322 1.389 . S
C285 C284 1.443 . S
C285 C286 1.340 . S
C285 H325 0.951 . S
C286 C285 1.340 . S
C286 C287 1.439 1_565 S
C286 H326 0.950 . S
C287 C286 1.439 1_545 S
C287 N288 1.374 . S
C287 C321 1.395 . S
N288 C284 1.376 1_545 S
N288 C287 1.374 . S
N288 Co289 2.008 . S
Co289 N288 2.008 . S
Co289 N290 1.995 . S
Co289 N295 2.008 . S
Co289 N300 1.995 . S
Co289 N305 2.282 . S
Co289 N311 2.282 1_545 S
N290 Co289 1.995 . S
N290 C291 1.376 . S
N290 C294 1.383 . S
C291 N290 1.376 . S
C291 C292 1.446 . S
C291 C321 1.391 . S
C292 C291 1.446 . S
C292 C293 1.339 . S
C292 H327 0.949 . S
C293 C292 1.339 . S
C293 C294 1.439 . S
C293 H328 0.950 . S
C294 N290 1.383 . S
C294 C293 1.439 . S
C294 C323 1.392 . S
N295 Co289 2.008 . S
N295 C296 1.376 . S
N295 C299 1.374 . S
C296 N295 1.376 . S
C296 C297 1.443 . S
C296 C323 1.389 . S
C297 C296 1.443 . S
C297 C298 1.340 . S
C297 H329 0.951 . S
C298 C297 1.340 . S
C298 C299 1.439 . S
C298 H330 0.950 . S
C299 N295 1.374 . S
C299 C298 1.439 . S
C299 C324 1.395 . S
N300 Co289 1.995 . S
N300 C301 1.376 . S
N300 C304 1.383 1_545 S
C301 N300 1.376 . S
C301 C302 1.446 1_545 S
C301 C324 1.391 . S
C302 C301 1.446 1_565 S
C302 C303 1.339 . S
C302 H331 0.949 . S
C303 C302 1.339 . S
C303 C304 1.439 . S
C303 H332 0.950 . S
C304 N300 1.383 1_565 S
C304 C303 1.439 . S
C304 C322 1.392 . S
N305 Co289 2.282 . S
N305 C308 1.332 . S
N305 C310 1.332 . S
C306 C307 1.386 . S
C306 C309 1.388 . S
C307 C306 1.386 . S
C307 C308 1.382 . S
C307 H333 0.950 . S
C308 N305 1.332 . S
C308 C307 1.382 . S
C308 H319 0.952 . S
C309 C306 1.388 . S
C309 C310 1.382 . S
C309 H334 0.950 . S
C310 N305 1.332 . S
C310 C309 1.382 . S
C310 H320 0.948 . S
N311 Co289 2.282 1_565 S
N311 C315 1.332 . S
N311 C316 1.332 . S
C312 C313 1.388 . S
C312 C316 1.382 . S
C312 H335 0.950 . S
C313 C312 1.388 . S
C313 C314 1.386 . S
C314 C313 1.386 . S
C314 C315 1.382 . S
C314 H336 0.950 . S
C315 N311 1.332 . S
C315 C314 1.382 . S
C315 H317 0.952 . S
C316 N311 1.332 . S
C316 C312 1.382 . S
C316 H318 0.948 . S
H317 C315 0.952 . S
H318 C316 0.948 . S
H319 C308 0.952 . S
H320 C310 0.948 . S
C321 C287 1.395 . S
C321 C291 1.391 . S
C322 C284 1.389 . S
C322 C304 1.392 . S
C323 C294 1.392 . S
C323 C296 1.389 . S
C324 C299 1.395 . S
C324 C301 1.391 . S
H325 C285 0.951 . S
H326 C286 0.950 . S
H327 C292 0.949 . S
H328 C293 0.950 . S
H329 C297 0.951 . S
H330 C298 0.950 . S
H331 C302 0.949 . S
H332 C303 0.950 . S
H333 C307 0.950 . S
H334 C309 0.950 . S
H335 C312 0.950 . S
H336 C314 0.950 . S
C337 C338 1.443 . S
C337 N341 1.376 . S
C337 C375 1.389 . S
C338 C337 1.443 . S
C338 C339 1.340 . S
C338 H378 0.951 . S
C339 C338 1.340 . S
C339 C340 1.439 . S
C339 H379 0.950 . S
C340 C339 1.439 . S
C340 N341 1.374 . S
C340 C374 1.395 . S
N341 C337 1.376 . S
N341 C340 1.374 . S
N341 Co342 2.008 . S
Co342 N341 2.008 . S
Co342 N343 1.995 . S
Co342 N348 2.008 . S
Co342 N353 1.995 . S
Co342 N358 2.282 1_554 S
Co342 N364 2.282 . S
N343 Co342 1.995 . S
N343 C344 1.376 . S
N343 C347 1.383 1_554 S
C344 N343 1.376 . S
C344 C345 1.446 1_554 S
C344 C374 1.391 . S
C345 C344 1.446 1_556 S
C345 C346 1.339 . S
C345 H380 0.949 . S
C346 C345 1.339 . S
C346 C347 1.439 . S
C346 H381 0.950 . S
C347 N343 1.383 1_556 S
C347 C346 1.439 . S
C347 C376 1.392 . S
N348 Co342 2.008 . S
N348 C349 1.376 1_554 S
N348 C352 1.374 . S
C349 N348 1.376 1_556 S
C349 C350 1.443 . S
C349 C376 1.389 . S
C350 C349 1.443 . S
C350 C351 1.340 . S
C350 H382 0.951 . S
C351 C350 1.340 . S
C351 C352 1.439 1_556 S
C351 H383 0.950 . S
C352 N348 1.374 . S
C352 C351 1.439 1_554 S
C352 C377 1.395 . S
N353 Co342 1.995 . S
N353 C354 1.376 . S
N353 C357 1.383 . S
C354 N353 1.376 . S
C354 C355 1.446 . S
C354 C377 1.391 . S
C355 C354 1.446 . S
C355 C356 1.339 . S
C355 H384 0.949 . S
C356 C355 1.339 . S
C356 C357 1.439 . S
C356 H385 0.950 . S
C357 N353 1.383 . S
C357 C356 1.439 . S
C357 C375 1.392 . S
N358 Co342 2.282 1_556 S
N358 C361 1.332 . S
N358 C363 1.332 . S
C359 C360 1.386 . S
C359 C362 1.388 . S
C360 C359 1.386 . S
C360 C361 1.382 . S
C360 H386 0.950 . S
C361 N358 1.332 . S
C361 C360 1.382 . S
C361 H372 0.952 . S
C362 C359 1.388 . S
C362 C363 1.382 . S
C362 H387 0.950 . S
C363 N358 1.332 . S
C363 C362 1.382 . S
C363 H373 0.948 . S
N364 Co342 2.282 . S
N364 C368 1.332 . S
N364 C369 1.332 . S
C365 C366 1.388 . S
C365 C369 1.382 . S
C365 H388 0.950 . S
C366 C365 1.388 . S
C366 C367 1.386 . S
C367 C366 1.386 . S
C367 C368 1.382 . S
C367 H389 0.950 . S
C368 N364 1.332 . S
C368 C367 1.382 . S
C368 H370 0.952 . S
C369 N364 1.332 . S
C369 C365 1.382 . S
C369 H371 0.948 . S
H370 C368 0.952 . S
H371 C369 0.948 . S
H372 C361 0.952 . S
H373 C363 0.948 . S
C374 C340 1.395 . S
C374 C344 1.391 . S
C375 C337 1.389 . S
C375 C357 1.392 . S
C376 C347 1.392 . S
C376 C349 1.389 . S
C377 C352 1.395 . S
C377 C354 1.391 . S
H378 C338 0.951 . S
H379 C339 0.950 . S
H380 C345 0.949 . S
H381 C346 0.950 . S
H382 C350 0.951 . S
H383 C351 0.950 . S
H384 C355 0.949 . S
H385 C356 0.950 . S
H386 C360 0.950 . S
H387 C362 0.950 . S
H388 C365 0.950 . S
H389 C367 0.950 . S
C390 C391 1.349 . S
C390 C392 1.327 . S
C390 H415 0.950 . S
C391 C390 1.349 . S
C391 C407 1.349 . S
C392 C390 1.327 . S
C392 C411 1.429 . S
C392 H416 0.950 . S
C393 C410 1.574 . S
C393 C412 1.368 . S
C393 H417 0.949 . S
H394 C398 0.949 . S
C395 C396 1.349 . S
C395 C397 1.327 . S
C395 H418 0.950 . S
C396 C395 1.349 . S
C396 C408 1.349 . S
C397 C395 1.327 . S
C397 C413 1.429 . S
C397 H419 0.950 . S
C398 H394 0.949 . S
C398 C406 1.574 . S
C398 C414 1.368 . S
H399 C407 0.950 . S
H400 C405 0.950 . S
H401 C406 0.949 . S
H402 C408 0.950 . S
H403 C409 0.950 . S
H404 C410 0.949 . S
C405 H400 0.950 . S
C405 C407 1.327 . S
C405 C411 1.429 . S
C406 C398 1.574 . S
C406 H401 0.949 . S
C406 C412 1.368 . S
C407 C391 1.349 . S
C407 H399 0.950 . S
C407 C405 1.327 . S
C408 C396 1.349 . S
C408 H402 0.950 . S
C408 C409 1.327 . S
C409 H403 0.950 . S
C409 C408 1.327 . S
C409 C413 1.429 . S
C410 C393 1.574 . S
C410 H404 0.949 . S
C410 C414 1.368 . S
C411 C392 1.429 . S
C411 C405 1.429 . S
C411 C412 1.523 . S
C412 C393 1.368 . S
C412 C406 1.368 . S
C412 C411 1.523 . S
C413 C397 1.429 . S
C413 C409 1.429 . S
C413 C414 1.523 . S
C414 C398 1.368 . S
C414 C410 1.368 . S
C414 C413 1.523 . S
H415 C390 0.950 . S
H416 C392 0.950 . S
H417 C393 0.949 . S
H418 C395 0.950 . S
H419 C397 0.950 . S
C420 C421 1.349 . S
C420 C422 1.327 . S
C420 H445 0.950 . S
C421 C420 1.349 . S
C421 C437 1.349 . S
C422 C420 1.327 . S
C422 C441 1.429 . S
C422 H446 0.950 . S
C423 C440 1.574 . S
C423 C442 1.368 . S
C423 H447 0.949 . S
H424 C428 0.949 . S
C425 C426 1.349 . S
C425 C427 1.327 . S
C425 H448 0.950 . S
C426 C425 1.349 . S
C426 C438 1.349 . S
C427 C425 1.327 . S
C427 C443 1.429 . S
C427 H449 0.950 . S
C428 H424 0.949 . S
C428 C436 1.574 . S
C428 C444 1.368 . S
H429 C437 0.950 . S
H430 C435 0.950 . S
H431 C436 0.949 . S
H432 C438 0.950 . S
H433 C439 0.950 . S
H434 C440 0.949 . S
C435 H430 0.950 . S
C435 C437 1.327 . S
C435 C441 1.429 . S
C436 C428 1.574 . S
C436 H431 0.949 . S
C436 C442 1.368 . S
C437 C421 1.349 . S
C437 H429 0.950 . S
C437 C435 1.327 . S
C438 C426 1.349 . S
C438 H432 0.950 . S
C438 C439 1.327 . S
C439 H433 0.950 . S
C439 C438 1.327 . S
C439 C443 1.429 . S
C440 C423 1.574 . S
C440 H434 0.949 . S
C440 C444 1.368 . S
C441 C422 1.429 . S
C441 C435 1.429 . S
C441 C442 1.523 . S
C442 C423 1.368 . S
C442 C436 1.368 . S
C442 C441 1.523 . S
C443 C427 1.429 . S
C443 C439 1.429 . S
C443 C444 1.523 . S
C444 C428 1.368 . S
C444 C440 1.368 . S
C444 C443 1.523 . S
H445 C420 0.950 . S
H446 C422 0.950 . S
H447 C423 0.949 . S
H448 C425 0.950 . S
H449 C427 0.950 . S
C450 C451 1.349 . S
C450 C452 1.327 . S
C450 H475 0.950 . S
C451 C450 1.349 . S
C451 C467 1.349 . S
C452 C450 1.327 . S
C452 C471 1.429 . S
C452 H476 0.950 . S
C453 C470 1.574 . S
C453 C472 1.368 . S
C453 H477 0.949 . S
H454 C458 0.949 . S
C455 C456 1.349 . S
C455 C457 1.327 . S
C455 H478 0.950 . S
C456 C455 1.349 . S
C456 C468 1.349 . S
C457 C455 1.327 . S
C457 C473 1.429 . S
C457 H479 0.950 . S
C458 H454 0.949 . S
C458 C466 1.574 . S
C458 C474 1.368 . S
H459 C467 0.950 . S
H460 C465 0.950 . S
H461 C466 0.949 . S
H462 C468 0.950 . S
H463 C469 0.950 . S
H464 C470 0.949 . S
C465 H460 0.950 . S
C465 C467 1.327 . S
C465 C471 1.429 . S
C466 C458 1.574 . S
C466 H461 0.949 . S
C466 C472 1.368 . S
C467 C451 1.349 . S
C467 H459 0.950 . S
C467 C465 1.327 . S
C468 C456 1.349 . S
C468 H462 0.950 . S
C468 C469 1.327 . S
C469 H463 0.950 . S
C469 C468 1.327 . S
C469 C473 1.429 . S
C470 C453 1.574 . S
C470 H464 0.949 . S
C470 C474 1.368 . S
C471 C452 1.429 . S
C471 C465 1.429 . S
C471 C472 1.523 . S
C472 C453 1.368 . S
C472 C466 1.368 . S
C472 C471 1.523 . S
C473 C457 1.429 . S
C473 C469 1.429 . S
C473 C474 1.523 . S
C474 C458 1.368 . S
C474 C470 1.368 . S
C474 C473 1.523 . S
H475 C450 0.950 . S
H476 C452 0.950 . S
H477 C453 0.949 . S
H478 C455 0.950 . S
H479 C457 0.950 . S
C480 C481 1.349 . S
C480 C482 1.327 . S
C480 H505 0.950 . S
C481 C480 1.349 . S
C481 C497 1.349 . S
C482 C480 1.327 . S
C482 C501 1.429 . S
C482 H506 0.950 . S
C483 C500 1.574 . S
C483 C502 1.368 . S
C483 H507 0.949 . S
H484 C488 0.949 . S
C485 C486 1.349 . S
C485 C487 1.327 . S
C485 H508 0.950 . S
C486 C485 1.349 . S
C486 C498 1.349 . S
C487 C485 1.327 . S
C487 C503 1.429 . S
C487 H509 0.950 . S
C488 H484 0.949 . S
C488 C496 1.574 . S
C488 C504 1.368 . S
H489 C497 0.950 . S
H490 C495 0.950 . S
H491 C496 0.949 . S
H492 C498 0.950 . S
H493 C499 0.950 . S
H494 C500 0.949 . S
C495 H490 0.950 . S
C495 C497 1.327 . S
C495 C501 1.429 . S
C496 C488 1.574 . S
C496 H491 0.949 . S
C496 C502 1.368 . S
C497 C481 1.349 . S
C497 H489 0.950 . S
C497 C495 1.327 . S
C498 C486 1.349 . S
C498 H492 0.950 . S
C498 C499 1.327 . S
C499 H493 0.950 . S
C499 C498 1.327 . S
C499 C503 1.429 . S
C500 C483 1.574 . S
C500 H494 0.949 . S
C500 C504 1.368 . S
C501 C482 1.429 . S
C501 C495 1.429 . S
C501 C502 1.523 . S
C502 C483 1.368 . S
C502 C496 1.368 . S
C502 C501 1.523 . S
C503 C487 1.429 . S
C503 C499 1.429 . S
C503 C504 1.523 . S
C504 C488 1.368 . S
C504 C500 1.368 . S
C504 C503 1.523 . S
H505 C480 0.950 . S
H506 C482 0.950 . S
H507 C483 0.949 . S
H508 C485 0.950 . S
H509 C487 0.950 . S
C510 C511 1.349 . S
C510 C512 1.327 . S
C510 H535 0.950 . S
C511 C510 1.349 . S
C511 C527 1.349 . S
C512 C510 1.327 . S
C512 C531 1.429 . S
C512 H536 0.950 . S
C513 C530 1.574 . S
C513 C532 1.368 . S
C513 H537 0.949 . S
H514 C518 0.949 . S
C515 C516 1.349 . S
C515 C517 1.327 . S
C515 H538 0.950 . S
C516 C515 1.349 . S
C516 C528 1.349 . S
C517 C515 1.327 . S
C517 C533 1.429 . S
C517 H539 0.950 . S
C518 H514 0.949 . S
C518 C526 1.574 . S
C518 C534 1.368 . S
H519 C527 0.950 . S
H520 C525 0.950 . S
H521 C526 0.949 . S
H522 C528 0.950 . S
H523 C529 0.950 . S
H524 C530 0.949 . S
C525 H520 0.950 . S
C525 C527 1.327 . S
C525 C531 1.429 . S
C526 C518 1.574 . S
C526 H521 0.949 . S
C526 C532 1.368 . S
C527 C511 1.349 . S
C527 H519 0.950 . S
C527 C525 1.327 . S
C528 C516 1.349 . S
C528 H522 0.950 . S
C528 C529 1.327 . S
C529 H523 0.950 . S
C529 C528 1.327 . S
C529 C533 1.429 . S
C530 C513 1.574 . S
C530 H524 0.949 . S
C530 C534 1.368 . S
C531 C512 1.429 . S
C531 C525 1.429 . S
C531 C532 1.523 . S
C532 C513 1.368 . S
C532 C526 1.368 . S
C532 C531 1.523 . S
C533 C517 1.429 . S
C533 C529 1.429 . S
C533 C534 1.523 . S
C534 C518 1.368 . S
C534 C530 1.368 . S
C534 C533 1.523 . S
H535 C510 0.950 . S
H536 C512 0.950 . S
H537 C513 0.949 . S
H538 C515 0.950 . S
H539 C517 0.950 . S
C540 C541 1.349 . S
C540 C542 1.327 . S
C540 H565 0.950 . S
C541 C540 1.349 . S
C541 C557 1.349 . S
C542 C540 1.327 . S
C542 C561 1.429 . S
C542 H566 0.950 . S
C543 C560 1.574 . S
C543 C562 1.368 . S
C543 H567 0.949 . S
H544 C548 0.949 . S
C545 C546 1.349 . S
C545 C547 1.327 . S
C545 H568 0.950 . S
C546 C545 1.349 . S
C546 C558 1.349 . S
C547 C545 1.327 . S
C547 C563 1.429 . S
C547 H569 0.950 . S
C548 H544 0.949 . S
C548 C556 1.574 . S
C548 C564 1.368 . S
H549 C557 0.950 . S
H550 C555 0.950 . S
H551 C556 0.949 . S
H552 C558 0.950 . S
H553 C559 0.950 . S
H554 C560 0.949 . S
C555 H550 0.950 . S
C555 C557 1.327 . S
C555 C561 1.429 . S
C556 C548 1.574 . S
C556 H551 0.949 . S
C556 C562 1.368 . S
C557 C541 1.349 . S
C557 H549 0.950 . S
C557 C555 1.327 . S
C558 C546 1.349 . S
C558 H552 0.950 . S
C558 C559 1.327 . S
C559 H553 0.950 . S
C559 C558 1.327 . S
C559 C563 1.429 . S
C560 C543 1.574 . S
C560 H554 0.949 . S
C560 C564 1.368 . S
C561 C542 1.429 . S
C561 C555 1.429 . S
C561 C562 1.523 . S
C562 C543 1.368 . S
C562 C556 1.368 . S
C562 C561 1.523 . S
C563 C547 1.429 . S
C563 C559 1.429 . S
C563 C564 1.523 . S
C564 C548 1.368 . S
C564 C560 1.368 . S
C564 C563 1.523 . S
H565 C540 0.950 . S
H566 C542 0.950 . S
H567 C543 0.949 . S
H568 C545 0.950 . S
H569 C547 0.950 . S
C570 C571 1.349 . S
C570 C572 1.327 . S
C570 H595 0.950 . S
C571 C570 1.349 . S
C571 C587 1.349 . S
C572 C570 1.327 . S
C572 C591 1.429 . S
C572 H596 0.950 . S
C573 C590 1.574 . S
C573 C592 1.368 . S
C573 H597 0.949 . S
H574 C578 0.949 . S
C575 C576 1.349 . S
C575 C577 1.327 . S
C575 H598 0.950 . S
C576 C575 1.349 . S
C576 C588 1.349 . S
C577 C575 1.327 . S
C577 C593 1.429 . S
C577 H599 0.950 . S
C578 H574 0.949 . S
C578 C586 1.574 . S
C578 C594 1.368 . S
H579 C587 0.950 . S
H580 C585 0.950 . S
H581 C586 0.949 . S
H582 C588 0.950 . S
H583 C589 0.950 . S
H584 C590 0.949 . S
C585 H580 0.950 . S
C585 C587 1.327 . S
C585 C591 1.429 . S
C586 C578 1.574 . S
C586 H581 0.949 . S
C586 C592 1.368 . S
C587 C571 1.349 . S
C587 H579 0.950 . S
C587 C585 1.327 . S
C588 C576 1.349 . S
C588 H582 0.950 . S
C588 C589 1.327 . S
C589 H583 0.950 . S
C589 C588 1.327 . S
C589 C593 1.429 . S
C590 C573 1.574 . S
C590 H584 0.949 . S
C590 C594 1.368 . S
C591 C572 1.429 . S
C591 C585 1.429 . S
C591 C592 1.523 . S
C592 C573 1.368 . S
C592 C586 1.368 . S
C592 C591 1.523 . S
C593 C577 1.429 . S
C593 C589 1.429 . S
C593 C594 1.523 . S
C594 C578 1.368 . S
C594 C590 1.368 . S
C594 C593 1.523 . S
H595 C570 0.950 . S
H596 C572 0.950 . S
H597 C573 0.949 . S
H598 C575 0.950 . S
H599 C577 0.950 . S
C600 C601 1.349 . S
C600 C602 1.327 . S
C600 H625 0.950 . S
C601 C600 1.349 . S
C601 C617 1.349 . S
C602 C600 1.327 . S
C602 C621 1.429 . S
C602 H626 0.950 . S
C603 C620 1.574 . S
C603 C622 1.368 . S
C603 H627 0.949 . S
H604 C608 0.949 . S
C605 C606 1.349 . S
C605 C607 1.327 . S
C605 H628 0.950 . S
C606 C605 1.349 . S
C606 C618 1.349 . S
C607 C605 1.327 . S
C607 C623 1.429 . S
C607 H629 0.950 . S
C608 H604 0.949 . S
C608 C616 1.574 . S
C608 C624 1.368 . S
H609 C617 0.950 . S
H610 C615 0.950 . S
H611 C616 0.949 . S
H612 C618 0.950 . S
H613 C619 0.950 . S
H614 C620 0.949 . S
C615 H610 0.950 . S
C615 C617 1.327 . S
C615 C621 1.429 . S
C616 C608 1.574 . S
C616 H611 0.949 . S
C616 C622 1.368 . S
C617 C601 1.349 . S
C617 H609 0.950 . S
C617 C615 1.327 . S
C618 C606 1.349 . S
C618 H612 0.950 . S
C618 C619 1.327 . S
C619 H613 0.950 . S
C619 C618 1.327 . S
C619 C623 1.429 . S
C620 C603 1.574 . S
C620 H614 0.949 . S
C620 C624 1.368 . S
C621 C602 1.429 . S
C621 C615 1.429 . S
C621 C622 1.523 . S
C622 C603 1.368 . S
C622 C616 1.368 . S
C622 C621 1.523 . S
C623 C607 1.429 . S
C623 C619 1.429 . S
C623 C624 1.523 . S
C624 C608 1.368 . S
C624 C620 1.368 . S
C624 C623 1.523 . S
H625 C600 0.950 . S
H626 C602 0.950 . S
H627 C603 0.949 . S
H628 C605 0.950 . S
H629 C607 0.950 . S
C630 C631 1.349 . S
C630 C632 1.327 . S
C630 H655 0.950 . S
C631 C630 1.349 . S
C631 C647 1.349 . S
C632 C630 1.327 . S
C632 C651 1.429 . S
C632 H656 0.950 . S
C633 C650 1.574 . S
C633 C652 1.368 . S
C633 H657 0.949 . S
H634 C638 0.949 . S
C635 C636 1.349 . S
C635 C637 1.327 . S
C635 H658 0.950 . S
C636 C635 1.349 . S
C636 C648 1.349 . S
C637 C635 1.327 . S
C637 C653 1.429 . S
C637 H659 0.950 . S
C638 H634 0.949 . S
C638 C646 1.574 . S
C638 C654 1.368 . S
H639 C647 0.950 . S
H640 C645 0.950 . S
H641 C646 0.949 . S
H642 C648 0.950 . S
H643 C649 0.950 . S
H644 C650 0.949 . S
C645 H640 0.950 . S
C645 C647 1.327 . S
C645 C651 1.429 . S
C646 C638 1.574 . S
C646 H641 0.949 . S
C646 C652 1.368 . S
C647 C631 1.349 . S
C647 H639 0.950 . S
C647 C645 1.327 . S
C648 C636 1.349 . S
C648 H642 0.950 . S
C648 C649 1.327 . S
C649 H643 0.950 . S
C649 C648 1.327 . S
C649 C653 1.429 . S
C650 C633 1.574 . S
C650 H644 0.949 . S
C650 C654 1.368 . S
C651 C632 1.429 . S
C651 C645 1.429 . S
C651 C652 1.523 . S
C652 C633 1.368 . S
C652 C646 1.368 . S
C652 C651 1.523 . S
C653 C637 1.429 . S
C653 C649 1.429 . S
C653 C654 1.523 . S
C654 C638 1.368 . S
C654 C650 1.368 . S
C654 C653 1.523 . S
H655 C630 0.950 . S
H656 C632 0.950 . S
H657 C633 0.949 . S
H658 C635 0.950 . S
H659 C637 0.950 . S
C660 C661 1.349 . S
C660 C662 1.327 . S
C660 H685 0.950 . S
C661 C660 1.349 . S
C661 C677 1.349 . S
C662 C660 1.327 . S
C662 C681 1.429 . S
C662 H686 0.950 . S
C663 C680 1.574 . S
C663 C682 1.368 . S
C663 H687 0.949 . S
H664 C668 0.949 . S
C665 C666 1.349 . S
C665 C667 1.327 . S
C665 H688 0.950 . S
C666 C665 1.349 . S
C666 C678 1.349 . S
C667 C665 1.327 . S
C667 C683 1.429 . S
C667 H689 0.950 . S
C668 H664 0.949 . S
C668 C676 1.574 . S
C668 C684 1.368 . S
H669 C677 0.950 . S
H670 C675 0.950 . S
H671 C676 0.949 . S
H672 C678 0.950 . S
H673 C679 0.950 . S
H674 C680 0.949 . S
C675 H670 0.950 . S
C675 C677 1.327 . S
C675 C681 1.429 . S
C676 C668 1.574 . S
C676 H671 0.949 . S
C676 C682 1.368 . S
C677 C661 1.349 . S
C677 H669 0.950 . S
C677 C675 1.327 . S
C678 C666 1.349 . S
C678 H672 0.950 . S
C678 C679 1.327 . S
C679 H673 0.950 . S
C679 C678 1.327 . S
C679 C683 1.429 . S
C680 C663 1.574 . S
C680 H674 0.949 . S
C680 C684 1.368 . S
C681 C662 1.429 . S
C681 C675 1.429 . S
C681 C682 1.523 . S
C682 C663 1.368 . S
C682 C676 1.368 . S
C682 C681 1.523 . S
C683 C667 1.429 . S
C683 C679 1.429 . S
C683 C684 1.523 . S
C684 C668 1.368 . S
C684 C680 1.368 . S
C684 C683 1.523 . S
H685 C660 0.950 . S
H686 C662 0.950 . S
H687 C663 0.949 . S
H688 C665 0.950 . S
H689 C667 0.950 . S
C690 C691 1.349 . S
C690 C692 1.327 . S
C690 H715 0.950 . S
C691 C690 1.349 . S
C691 C707 1.349 . S
C692 C690 1.327 . S
C692 C711 1.429 . S
C692 H716 0.950 . S
C693 C710 1.574 . S
C693 C712 1.368 . S
C693 H717 0.949 . S
H694 C698 0.949 . S
C695 C696 1.349 . S
C695 C697 1.327 . S
C695 H718 0.950 . S
C696 C695 1.349 . S
C696 C708 1.349 . S
C697 C695 1.327 . S
C697 C713 1.429 . S
C697 H719 0.950 . S
C698 H694 0.949 . S
C698 C706 1.574 . S
C698 C714 1.368 . S
H699 C707 0.950 . S
H700 C705 0.950 . S
H701 C706 0.949 . S
H702 C708 0.950 . S
H703 C709 0.950 . S
H704 C710 0.949 . S
C705 H700 0.950 . S
C705 C707 1.327 . S
C705 C711 1.429 . S
C706 C698 1.574 . S
C706 H701 0.949 . S
C706 C712 1.368 . S
C707 C691 1.349 . S
C707 H699 0.950 . S
C707 C705 1.327 . S
C708 C696 1.349 . S
C708 H702 0.950 . S
C708 C709 1.327 . S
C709 H703 0.950 . S
C709 C708 1.327 . S
C709 C713 1.429 . S
C710 C693 1.574 . S
C710 H704 0.949 . S
C710 C714 1.368 . S
C711 C692 1.429 . S
C711 C705 1.429 . S
C711 C712 1.523 . S
C712 C693 1.368 . S
C712 C706 1.368 . S
C712 C711 1.523 . S
C713 C697 1.429 . S
C713 C709 1.429 . S
C713 C714 1.523 . S
C714 C698 1.368 . S
C714 C710 1.368 . S
C714 C713 1.523 . S
H715 C690 0.950 . S
H716 C692 0.950 . S
H717 C693 0.949 . S
H718 C695 0.950 . S
H719 C697 0.950 . S
C720 C721 1.349 . S
C720 C722 1.327 . S
C720 H745 0.950 . S
C721 C720 1.349 . S
C721 C737 1.349 . S
C722 C720 1.327 . S
C722 C741 1.429 . S
C722 H746 0.950 . S
C723 C740 1.574 . S
C723 C742 1.368 . S
C723 H747 0.949 . S
H724 C728 0.949 . S
C725 C726 1.349 . S
C725 C727 1.327 . S
C725 H748 0.950 . S
C726 C725 1.349 . S
C726 C738 1.349 . S
C727 C725 1.327 . S
C727 C743 1.429 . S
C727 H749 0.950 . S
C728 H724 0.949 . S
C728 C736 1.574 . S
C728 C744 1.368 . S
H729 C737 0.950 . S
H730 C735 0.950 . S
H731 C736 0.949 . S
H732 C738 0.950 . S
H733 C739 0.950 . S
H734 C740 0.949 . S
C735 H730 0.950 . S
C735 C737 1.327 . S
C735 C741 1.429 . S
C736 C728 1.574 . S
C736 H731 0.949 . S
C736 C742 1.368 . S
C737 C721 1.349 . S
C737 H729 0.950 . S
C737 C735 1.327 . S
C738 C726 1.349 . S
C738 H732 0.950 . S
C738 C739 1.327 . S
C739 H733 0.950 . S
C739 C738 1.327 . S
C739 C743 1.429 . S
C740 C723 1.574 . S
C740 H734 0.949 . S
C740 C744 1.368 . S
C741 C722 1.429 . S
C741 C735 1.429 . S
C741 C742 1.523 . S
C742 C723 1.368 . S
C742 C736 1.368 . S
C742 C741 1.523 . S
C743 C727 1.429 . S
C743 C739 1.429 . S
C743 C744 1.523 . S
C744 C728 1.368 . S
C744 C740 1.368 . S
C744 C743 1.523 . S
H745 C720 0.950 . S
H746 C722 0.950 . S
H747 C723 0.949 . S
H748 C725 0.950 . S
H749 C727 0.950 . S
C750 C751 1.349 . S
C750 C752 1.327 . S
C750 H775 0.950 . S
C751 C750 1.349 . S
C751 C767 1.349 . S
C752 C750 1.327 . S
C752 C771 1.429 . S
C752 H776 0.950 . S
C753 C770 1.574 . S
C753 C772 1.368 . S
C753 H777 0.949 . S
H754 C758 0.949 . S
C755 C756 1.349 . S
C755 C757 1.327 . S
C755 H778 0.950 . S
C756 C755 1.349 . S
C756 C768 1.349 . S
C757 C755 1.327 . S
C757 C773 1.429 . S
C757 H779 0.950 . S
C758 H754 0.949 . S
C758 C766 1.574 . S
C758 C774 1.368 . S
H759 C767 0.950 . S
H760 C765 0.950 . S
H761 C766 0.949 . S
H762 C768 0.950 . S
H763 C769 0.950 . S
H764 C770 0.949 . S
C765 H760 0.950 . S
C765 C767 1.327 . S
C765 C771 1.429 . S
C766 C758 1.574 . S
C766 H761 0.949 . S
C766 C772 1.368 . S
C767 C751 1.349 . S
C767 H759 0.950 . S
C767 C765 1.327 . S
C768 C756 1.349 . S
C768 H762 0.950 . S
C768 C769 1.327 . S
C769 H763 0.950 . S
C769 C768 1.327 . S
C769 C773 1.429 . S
C770 C753 1.574 . S
C770 H764 0.949 . S
C770 C774 1.368 . S
C771 C752 1.429 . S
C771 C765 1.429 . S
C771 C772 1.523 . S
C772 C753 1.368 . S
C772 C766 1.368 . S
C772 C771 1.523 . S
C773 C757 1.429 . S
C773 C769 1.429 . S
C773 C774 1.523 . S
C774 C758 1.368 . S
C774 C770 1.368 . S
C774 C773 1.523 . S
H775 C750 0.950 . S
H776 C752 0.950 . S
H777 C753 0.949 . S
H778 C755 0.950 . S
H779 C757 0.950 . S
C780 C781 1.349 . S
C780 C782 1.327 . S
C780 H805 0.950 . S
C781 C780 1.349 . S
C781 C797 1.349 . S
C782 C780 1.327 . S
C782 C801 1.429 . S
C782 H806 0.950 . S
C783 C800 1.574 . S
C783 C802 1.368 . S
C783 H807 0.949 . S
H784 C788 0.949 . S
C785 C786 1.349 . S
C785 C787 1.327 . S
C785 H808 0.950 . S
C786 C785 1.349 . S
C786 C798 1.349 . S
C787 C785 1.327 . S
C787 C803 1.429 . S
C787 H809 0.950 . S
C788 H784 0.949 . S
C788 C796 1.574 . S
C788 C804 1.368 . S
H789 C797 0.950 . S
H790 C795 0.950 . S
H791 C796 0.949 . S
H792 C798 0.950 . S
H793 C799 0.950 . S
H794 C800 0.949 . S
C795 H790 0.950 . S
C795 C797 1.327 . S
C795 C801 1.429 . S
C796 C788 1.574 . S
C796 H791 0.949 . S
C796 C802 1.368 . S
C797 C781 1.349 . S
C797 H789 0.950 . S
C797 C795 1.327 . S
C798 C786 1.349 . S
C798 H792 0.950 . S
C798 C799 1.327 . S
C799 H793 0.950 . S
C799 C798 1.327 . S
C799 C803 1.429 . S
C800 C783 1.574 . S
C800 H794 0.949 . S
C800 C804 1.368 . S
C801 C782 1.429 . S
C801 C795 1.429 . S
C801 C802 1.523 . S
C802 C783 1.368 . S
C802 C796 1.368 . S
C802 C801 1.523 . S
C803 C787 1.429 . S
C803 C799 1.429 . S
C803 C804 1.523 . S
C804 C788 1.368 . S
C804 C800 1.368 . S
C804 C803 1.523 . S
H805 C780 0.950 . S
H806 C782 0.950 . S
H807 C783 0.949 . S
H808 C785 0.950 . S
H809 C787 0.950 . S
C810 C811 1.349 . S
C810 C812 1.327 . S
C810 H835 0.950 . S
C811 C810 1.349 . S
C811 C827 1.349 . S
C812 C810 1.327 . S
C812 C831 1.429 . S
C812 H836 0.950 . S
C813 C830 1.574 . S
C813 C832 1.368 . S
C813 H837 0.949 . S
H814 C818 0.949 . S
C815 C816 1.349 . S
C815 C817 1.327 . S
C815 H838 0.950 . S
C816 C815 1.349 . S
C816 C828 1.349 . S
C817 C815 1.327 . S
C817 C833 1.429 . S
C817 H839 0.950 . S
C818 H814 0.949 . S
C818 C826 1.574 . S
C818 C834 1.368 . S
H819 C827 0.950 . S
H820 C825 0.950 . S
H821 C826 0.949 . S
H822 C828 0.950 . S
H823 C829 0.950 . S
H824 C830 0.949 . S
C825 H820 0.950 . S
C825 C827 1.327 . S
C825 C831 1.429 . S
C826 C818 1.574 . S
C826 H821 0.949 . S
C826 C832 1.368 . S
C827 C811 1.349 . S
C827 H819 0.950 . S
C827 C825 1.327 . S
C828 C816 1.349 . S
C828 H822 0.950 . S
C828 C829 1.327 . S
C829 H823 0.950 . S
C829 C828 1.327 . S
C829 C833 1.429 . S
C830 C813 1.574 . S
C830 H824 0.949 . S
C830 C834 1.368 . S
C831 C812 1.429 . S
C831 C825 1.429 . S
C831 C832 1.523 . S
C832 C813 1.368 . S
C832 C826 1.368 . S
C832 C831 1.523 . S
C833 C817 1.429 . S
C833 C829 1.429 . S
C833 C834 1.523 . S
C834 C818 1.368 . S
C834 C830 1.368 . S
C834 C833 1.523 . S
H835 C810 0.950 . S
H836 C812 0.950 . S
H837 C813 0.949 . S
H838 C815 0.950 . S
H839 C817 0.950 . S
C840 C841 1.349 . S
C840 C842 1.327 . S
C840 H865 0.950 . S
C841 C840 1.349 . S
C841 C857 1.349 . S
C842 C840 1.327 . S
C842 C861 1.429 . S
C842 H866 0.950 . S
C843 C860 1.574 . S
C843 C862 1.368 . S
C843 H867 0.949 . S
H844 C848 0.949 . S
C845 C846 1.349 . S
C845 C847 1.327 . S
C845 H868 0.950 . S
C846 C845 1.349 . S
C846 C858 1.349 . S
C847 C845 1.327 . S
C847 C863 1.429 . S
C847 H869 0.950 . S
C848 H844 0.949 . S
C848 C856 1.574 . S
C848 C864 1.368 . S
H849 C857 0.950 . S
H850 C855 0.950 . S
H851 C856 0.949 . S
H852 C858 0.950 . S
H853 C859 0.950 . S
H854 C860 0.949 . S
C855 H850 0.950 . S
C855 C857 1.327 . S
C855 C861 1.429 . S
C856 C848 1.574 . S
C856 H851 0.949 . S
C856 C862 1.368 . S
C857 C841 1.349 . S
C857 H849 0.950 . S
C857 C855 1.327 . S
C858 C846 1.349 . S
C858 H852 0.950 . S
C858 C859 1.327 . S
C859 H853 0.950 . S
C859 C858 1.327 . S
C859 C863 1.429 . S
C860 C843 1.574 . S
C860 H854 0.949 . S
C860 C864 1.368 . S
C861 C842 1.429 . S
C861 C855 1.429 . S
C861 C862 1.523 . S
C862 C843 1.368 . S
C862 C856 1.368 . S
C862 C861 1.523 . S
C863 C847 1.429 . S
C863 C859 1.429 . S
C863 C864 1.523 . S
C864 C848 1.368 . S
C864 C860 1.368 . S
C864 C863 1.523 . S
H865 C840 0.950 . S
H866 C842 0.950 . S
H867 C843 0.949 . S
H868 C845 0.950 . S
H869 C847 0.950 . S
C870 C871 1.349 . S
C870 C872 1.327 . S
C870 H895 0.950 . S
C871 C870 1.349 . S
C871 C887 1.349 . S
C872 C870 1.327 . S
C872 C891 1.429 . S
C872 H896 0.950 . S
C873 C890 1.574 . S
C873 C892 1.368 . S
C873 H897 0.949 . S
H874 C878 0.949 . S
C875 C876 1.349 . S
C875 C877 1.327 . S
C875 H898 0.950 . S
C876 C875 1.349 . S
C876 C888 1.349 . S
C877 C875 1.327 . S
C877 C893 1.429 . S
C877 H899 0.950 . S
C878 H874 0.949 . S
C878 C886 1.574 . S
C878 C894 1.368 . S
H879 C887 0.950 . S
H880 C885 0.950 . S
H881 C886 0.949 . S
H882 C888 0.950 . S
H883 C889 0.950 . S
H884 C890 0.949 . S
C885 H880 0.950 . S
C885 C887 1.327 . S
C885 C891 1.429 . S
C886 C878 1.574 . S
C886 H881 0.949 . S
C886 C892 1.368 . S
C887 C871 1.349 . S
C887 H879 0.950 . S
C887 C885 1.327 . S
C888 C876 1.349 . S
C888 H882 0.950 . S
C888 C889 1.327 . S
C889 H883 0.950 . S
C889 C888 1.327 . S
C889 C893 1.429 . S
C890 C873 1.574 . S
C890 H884 0.949 . S
C890 C894 1.368 . S
C891 C872 1.429 . S
C891 C885 1.429 . S
C891 C892 1.523 . S
C892 C873 1.368 . S
C892 C886 1.368 . S
C892 C891 1.523 . S
C893 C877 1.429 . S
C893 C889 1.429 . S
C893 C894 1.523 . S
C894 C878 1.368 . S
C894 C890 1.368 . S
C894 C893 1.523 . S
H895 C870 0.950 . S
H896 C872 0.950 . S
H897 C873 0.949 . S
H898 C875 0.950 . S
H899 C877 0.950 . S
C900 C901 1.349 . S
C900 C902 1.327 . S
C900 H925 0.950 . S
C901 C900 1.349 . S
C901 C917 1.349 . S
C902 C900 1.327 . S
C902 C921 1.429 . S
C902 H926 0.950 . S
C903 C920 1.574 . S
C903 C922 1.368 . S
C903 H927 0.949 . S
H904 C908 0.949 . S
C905 C906 1.349 . S
C905 C907 1.327 . S
C905 H928 0.950 . S
C906 C905 1.349 . S
C906 C918 1.349 . S
C907 C905 1.327 . S
C907 C923 1.429 . S
C907 H929 0.950 . S
C908 H904 0.949 . S
C908 C916 1.574 . S
C908 C924 1.368 . S
H909 C917 0.950 . S
H910 C915 0.950 . S
H911 C916 0.949 . S
H912 C918 0.950 . S
H913 C919 0.950 . S
H914 C920 0.949 . S
C915 H910 0.950 . S
C915 C917 1.327 . S
C915 C921 1.429 . S
C916 C908 1.574 . S
C916 H911 0.949 . S
C916 C922 1.368 . S
C917 C901 1.349 . S
C917 H909 0.950 . S
C917 C915 1.327 . S
C918 C906 1.349 . S
C918 H912 0.950 . S
C918 C919 1.327 . S
C919 H913 0.950 . S
C919 C918 1.327 . S
C919 C923 1.429 . S
C920 C903 1.574 . S
C920 H914 0.949 . S
C920 C924 1.368 . S
C921 C902 1.429 . S
C921 C915 1.429 . S
C921 C922 1.523 . S
C922 C903 1.368 . S
C922 C916 1.368 . S
C922 C921 1.523 . S
C923 C907 1.429 . S
C923 C919 1.429 . S
C923 C924 1.523 . S
C924 C908 1.368 . S
C924 C920 1.368 . S
C924 C923 1.523 . S
H925 C900 0.950 . S
H926 C902 0.950 . S
H927 C903 0.949 . S
H928 C905 0.950 . S
H929 C907 0.950 . S
C930 C931 1.349 . S
C930 C932 1.327 . S
C930 H955 0.950 . S
C931 C930 1.349 . S
C931 C947 1.349 . S
C932 C930 1.327 . S
C932 C951 1.429 . S
C932 H956 0.950 . S
C933 C950 1.574 . S
C933 C952 1.368 . S
C933 H957 0.949 . S
H934 C938 0.949 . S
C935 C936 1.349 . S
C935 C937 1.327 . S
C935 H958 0.950 . S
C936 C935 1.349 . S
C936 C948 1.349 . S
C937 C935 1.327 . S
C937 C953 1.429 . S
C937 H959 0.950 . S
C938 H934 0.949 . S
C938 C946 1.574 . S
C938 C954 1.368 . S
H939 C947 0.950 . S
H940 C945 0.950 . S
H941 C946 0.949 . S
H942 C948 0.950 . S
H943 C949 0.950 . S
H944 C950 0.949 . S
C945 H940 0.950 . S
C945 C947 1.327 . S
C945 C951 1.429 . S
C946 C938 1.574 . S
C946 H941 0.949 . S
C946 C952 1.368 . S
C947 C931 1.349 . S
C947 H939 0.950 . S
C947 C945 1.327 . S
C948 C936 1.349 . S
C948 H942 0.950 . S
C948 C949 1.327 . S
C949 H943 0.950 . S
C949 C948 1.327 . S
C949 C953 1.429 . S
C950 C933 1.574 . S
C950 H944 0.949 . S
C950 C954 1.368 . S
C951 C932 1.429 . S
C951 C945 1.429 . S
C951 C952 1.523 . S
C952 C933 1.368 . S
C952 C946 1.368 . S
C952 C951 1.523 . S
C953 C937 1.429 . S
C953 C949 1.429 . S
C953 C954 1.523 . S
C954 C938 1.368 . S
C954 C950 1.368 . S
C954 C953 1.523 . S
H955 C930 0.950 . S
H956 C932 0.950 . S
H957 C933 0.949 . S
H958 C935 0.950 . S
H959 C937 0.950 . S
C960 C961 1.349 . S
C960 C962 1.327 . S
C960 H985 0.950 . S
C961 C960 1.349 . S
C961 C977 1.349 . S
C962 C960 1.327 . S
C962 C981 1.429 . S
C962 H986 0.950 . S
C963 C980 1.574 . S
C963 C982 1.368 . S
C963 H987 0.949 . S
H964 C968 0.949 . S
C965 C966 1.349 . S
C965 C967 1.327 . S
C965 H988 0.950 . S
C966 C965 1.349 . S
C966 C978 1.349 . S
C967 C965 1.327 . S
C967 C983 1.429 . S
C967 H989 0.950 . S
C968 H964 0.949 . S
C968 C976 1.574 . S
C968 C984 1.368 . S
H969 C977 0.950 . S
H970 C975 0.950 . S
H971 C976 0.949 . S
H972 C978 0.950 . S
H973 C979 0.950 . S
H974 C980 0.949 . S
C975 H970 0.950 . S
C975 C977 1.327 . S
C975 C981 1.429 . S
C976 C968 1.574 . S
C976 H971 0.949 . S
C976 C982 1.368 . S
C977 C961 1.349 . S
C977 H969 0.950 . S
C977 C975 1.327 . S
C978 C966 1.349 . S
C978 H972 0.950 . S
C978 C979 1.327 . S
C979 H973 0.950 . S
C979 C978 1.327 . S
C979 C983 1.429 . S
C980 C963 1.574 . S
C980 H974 0.949 . S
C980 C984 1.368 . S
C981 C962 1.429 . S
C981 C975 1.429 . S
C981 C982 1.523 . S
C982 C963 1.368 . S
C982 C976 1.368 . S
C982 C981 1.523 . S
C983 C967 1.429 . S
C983 C979 1.429 . S
C983 C984 1.523 . S
C984 C968 1.368 . S
C984 C980 1.368 . S
C984 C983 1.523 . S
H985 C960 0.950 . S
H986 C962 0.950 . S
H987 C963 0.949 . S
H988 C965 0.950 . S
H989 C967 0.950 . S
C990 C991 1.349 . S
C990 C992 1.327 . S
C990 H1015 0.950 . S
C991 C990 1.349 . S
C991 C1007 1.349 . S
C992 C990 1.327 . S
C992 C1011 1.429 . S
C992 H1016 0.950 . S
C993 C1010 1.574 . S
C993 C1012 1.368 . S
C993 H1017 0.949 . S
H994 C998 0.949 . S
C995 C996 1.349 . S
C995 C997 1.327 . S
C995 H1018 0.950 . S
C996 C995 1.349 . S
C996 C1008 1.349 . S
C997 C995 1.327 . S
C997 C1013 1.429 . S
C997 H1019 0.950 . S
C998 H994 0.949 . S
C998 C1006 1.574 . S
C998 C1014 1.368 . S
H999 C1007 0.950 . S
H1000 C1005 0.950 . S
H1001 C1006 0.949 . S
H1002 C1008 0.950 . S
H1003 C1009 0.950 . S
H1004 C1010 0.949 . S
C1005 H1000 0.950 . S
C1005 C1007 1.327 . S
C1005 C1011 1.429 . S
C1006 C998 1.574 . S
C1006 H1001 0.949 . S
C1006 C1012 1.368 . S
C1007 C991 1.349 . S
C1007 H999 0.950 . S
C1007 C1005 1.327 . S
C1008 C996 1.349 . S
C1008 H1002 0.950 . S
C1008 C1009 1.327 . S
C1009 H1003 0.950 . S
C1009 C1008 1.327 . S
C1009 C1013 1.429 . S
C1010 C993 1.574 . S
C1010 H1004 0.949 . S
C1010 C1014 1.368 . S
C1011 C992 1.429 . S
C1011 C1005 1.429 . S
C1011 C1012 1.523 . S
C1012 C993 1.368 . S
C1012 C1006 1.368 . S
C1012 C1011 1.523 . S
C1013 C997 1.429 . S
C1013 C1009 1.429 . S
C1013 C1014 1.523 . S
C1014 C998 1.368 . S
C1014 C1010 1.368 . S
C1014 C1013 1.523 . S
H1015 C990 0.950 . S
H1016 C992 0.950 . S
H1017 C993 0.949 . S
H1018 C995 0.950 . S
H1019 C997 0.950 . S
C1020 C1021 1.349 . S
C1020 C1022 1.327 . S
C1020 H1045 0.950 . S
C1021 C1020 1.349 . S
C1021 C1037 1.349 . S
C1022 C1020 1.327 . S
C1022 C1041 1.429 . S
C1022 H1046 0.950 . S
C1023 C1040 1.574 . S
C1023 C1042 1.368 . S
C1023 H1047 0.949 . S
H1024 C1028 0.949 . S
C1025 C1026 1.349 . S
C1025 C1027 1.327 . S
C1025 H1048 0.950 . S
C1026 C1025 1.349 . S
C1026 C1038 1.349 . S
C1027 C1025 1.327 . S
C1027 C1043 1.429 . S
C1027 H1049 0.950 . S
C1028 H1024 0.949 . S
C1028 C1036 1.574 . S
C1028 C1044 1.368 . S
H1029 C1037 0.950 . S
H1030 C1035 0.950 . S
H1031 C1036 0.949 . S
H1032 C1038 0.950 . S
H1033 C1039 0.950 . S
H1034 C1040 0.949 . S
C1035 H1030 0.950 . S
C1035 C1037 1.327 . S
C1035 C1041 1.429 . S
C1036 C1028 1.574 . S
C1036 H1031 0.949 . S
C1036 C1042 1.368 . S
C1037 C1021 1.349 . S
C1037 H1029 0.950 . S
C1037 C1035 1.327 . S
C1038 C1026 1.349 . S
C1038 H1032 0.950 . S
C1038 C1039 1.327 . S
C1039 H1033 0.950 . S
C1039 C1038 1.327 . S
C1039 C1043 1.429 . S
C1040 C1023 1.574 . S
C1040 H1034 0.949 . S
C1040 C1044 1.368 . S
C1041 C1022 1.429 . S
C1041 C1035 1.429 . S
C1041 C1042 1.523 . S
C1042 C1023 1.368 . S
C1042 C1036 1.368 . S
C1042 C1041 1.523 . S
C1043 C1027 1.429 . S
C1043 C1039 1.429 . S
C1043 C1044 1.523 . S
C1044 C1028 1.368 . S
C1044 C1040 1.368 . S
C1044 C1043 1.523 . S
H1045 C1020 0.950 . S
H1046 C1022 0.950 . S
H1047 C1023 0.949 . S
H1048 C1025 0.950 . S
H1049 C1027 0.950 . S
C1050 C1051 1.349 . S
C1050 C1052 1.327 . S
C1050 H1075 0.950 . S
C1051 C1050 1.349 . S
C1051 C1067 1.349 . S
C1052 C1050 1.327 . S
C1052 C1071 1.429 . S
C1052 H1076 0.950 . S
C1053 C1070 1.574 . S
C1053 C1072 1.368 . S
C1053 H1077 0.949 . S
H1054 C1058 0.949 . S
C1055 C1056 1.349 . S
C1055 C1057 1.327 . S
C1055 H1078 0.950 . S
C1056 C1055 1.349 . S
C1056 C1068 1.349 . S
C1057 C1055 1.327 . S
C1057 C1073 1.429 . S
C1057 H1079 0.950 . S
C1058 H1054 0.949 . S
C1058 C1066 1.574 . S
C1058 C1074 1.368 . S
H1059 C1067 0.950 . S
H1060 C1065 0.950 . S
H1061 C1066 0.949 . S
H1062 C1068 0.950 . S
H1063 C1069 0.950 . S
H1064 C1070 0.949 . S
C1065 H1060 0.950 . S
C1065 C1067 1.327 . S
C1065 C1071 1.429 . S
C1066 C1058 1.574 . S
C1066 H1061 0.949 . S
C1066 C1072 1.368 . S
C1067 C1051 1.349 . S
C1067 H1059 0.950 . S
C1067 C1065 1.327 . S
C1068 C1056 1.349 . S
C1068 H1062 0.950 . S
C1068 C1069 1.327 . S
C1069 H1063 0.950 . S
C1069 C1068 1.327 . S
C1069 C1073 1.429 . S
C1070 C1053 1.574 . S
C1070 H1064 0.949 . S
C1070 C1074 1.368 . S
C1071 C1052 1.429 . S
C1071 C1065 1.429 . S
C1071 C1072 1.523 . S
C1072 C1053 1.368 . S
C1072 C1066 1.368 . S
C1072 C1071 1.523 . S
C1073 C1057 1.429 . S
C1073 C1069 1.429 . S
C1073 C1074 1.523 . S
C1074 C1058 1.368 . S
C1074 C1070 1.368 . S
C1074 C1073 1.523 . S
H1075 C1050 0.950 . S
H1076 C1052 0.950 . S
H1077 C1053 0.949 . S
H1078 C1055 0.950 . S
H1079 C1057 0.950 . S
C1080 C1081 1.349 . S
C1080 C1082 1.327 . S
C1080 H1105 0.950 . S
C1081 C1080 1.349 . S
C1081 C1097 1.349 . S
C1082 C1080 1.327 . S
C1082 C1101 1.429 . S
C1082 H1106 0.950 . S
C1083 C1100 1.574 . S
C1083 C1102 1.368 . S
C1083 H1107 0.949 . S
H1084 C1088 0.949 . S
C1085 C1086 1.349 . S
C1085 C1087 1.327 . S
C1085 H1108 0.950 . S
C1086 C1085 1.349 . S
C1086 C1098 1.349 . S
C1087 C1085 1.327 . S
C1087 C1103 1.429 . S
C1087 H1109 0.950 . S
C1088 H1084 0.949 . S
C1088 C1096 1.574 . S
C1088 C1104 1.368 . S
H1089 C1097 0.950 . S
H1090 C1095 0.950 . S
H1091 C1096 0.949 . S
H1092 C1098 0.950 . S
H1093 C1099 0.950 . S
H1094 C1100 0.949 . S
C1095 H1090 0.950 . S
C1095 C1097 1.327 . S
C1095 C1101 1.429 . S
C1096 C1088 1.574 . S
C1096 H1091 0.949 . S
C1096 C1102 1.368 . S
C1097 C1081 1.349 . S
C1097 H1089 0.950 . S
C1097 C1095 1.327 . S
C1098 C1086 1.349 . S
C1098 H1092 0.950 . S
C1098 C1099 1.327 . S
C1099 H1093 0.950 . S
C1099 C1098 1.327 . S
C1099 C1103 1.429 . S
C1100 C1083 1.574 . S
C1100 H1094 0.949 . S
C1100 C1104 1.368 . S
C1101 C1082 1.429 . S
C1101 C1095 1.429 . S
C1101 C1102 1.523 . S
C1102 C1083 1.368 . S
C1102 C1096 1.368 . S
C1102 C1101 1.523 . S
C1103 C1087 1.429 . S
C1103 C1099 1.429 . S
C1103 C1104 1.523 . S
C1104 C1088 1.368 . S
C1104 C1100 1.368 . S
C1104 C1103 1.523 . S
H1105 C1080 0.950 . S
H1106 C1082 0.950 . S
H1107 C1083 0.949 . S
H1108 C1085 0.950 . S
H1109 C1087 0.950 . S
C396 C94 1.551 . S
C391 C4 1.555 . S
C426 C163 1.543 . S
C421 C13 1.550 . S
C456 C101 1.547 . S
C451 C25 1.553 . S
C486 C164 1.545 . S
C481 C34 1.548 . S
C516 C217 1.543 . S
C511 C7 1.545 . S
C546 C253 1.523 . S
C541 C14 1.522 . S
C571 C23 1.534 . S
C576 C313 1.532 . S
C606 C376 1.526 . S
C601 C31 1.526 . S
C636 C216 1.537 . S
C631 C16 1.542 . S
C661 C22 1.526 . S
C666 C260 1.525 . S
C696 C306 1.533 . S
C691 C32 1.534 . S
C726 C375 1.526 . S
C721 C5 1.526 . S
C751 C43 1.557 . S
C756 C154 1.553 . S
C786 C111 1.545 . S
C781 C52 1.552 . S
C811 C58 1.555 . S
C816 C147 1.549 . S
C841 C68 1.551 . S
C846 C110 1.546 . S
C876 C322 1.542 . S
C871 C40 1.543 . S
C906 C366 1.517 . S
C901 C50 1.516 . S
C936 C200 1.550 . S
C931 C59 1.555 . S
C961 C70 1.512 . S
C966 C269 1.511 . S
C996 C323 1.538 . S
C991 C49 1.542 . S
C1026 C359 1.513 . S
C1021 C61 1.513 . S
C1056 C207 1.552 . S
C1051 C67 1.555 . S
C1081 C41 1.518 . S
C1086 C270 1.517 . S
