# Generated by pormake.
# Topology pyr, (3,6)-cn, num edge types: 1
# Building blocks:
#     Node 0, Type 0, BuildingBlock: BETDAH_clean_linker_0, # of connection points: 3
#     Node 1, Type 0, BuildingBlock: BETDAH_clean_linker_0, # of connection points: 3
#     Node 2, Type 0, BuildingBlock: BETDAH_clean_linker_0, # of connection points: 3
#     Node 3, Type 0, BuildingBlock: BETDAH_clean_linker_0, # of connection points: 3
#     Node 4, Type 0, BuildingBlock: BETDAH_clean_linker_0, # of connection points: 3
#     Node 5, Type 0, BuildingBlock: BETDAH_clean_linker_0, # of connection points: 3
#     Node 6, Type 0, BuildingBlock: BETDAH_clean_linker_0, # of connection points: 3
#     Node 7, Type 0, BuildingBlock: BETDAH_clean_linker_0, # of connection points: 3
#     Node 8, Type 1, BuildingBlock: BETDIP_clean_sbu_0, # of connection points: 6
#     Node 9, Type 1, BuildingBlock: BETDIP_clean_sbu_0, # of connection points: 6
#     Node 10, Type 1, BuildingBlock: BETDIP_clean_sbu_0, # of connection points: 6
#     Node 11, Type 1, BuildingBlock: BETDIP_clean_sbu_0, # of connection points: 6
#     Edge 12, Type (0, 1), BuildingBlock: KIFKEQ_clean_linker_1, # of connection points: 2
#     Edge 13, Type (0, 1), BuildingBlock: KIFKEQ_clean_linker_1, # of connection points: 2
#     Edge 14, Type (0, 1), BuildingBlock: KIFKEQ_clean_linker_1, # of connection points: 2
#     Edge 15, Type (0, 1), BuildingBlock: KIFKEQ_clean_linker_1, # of connection points: 2
#     Edge 16, Type (0, 1), BuildingBlock: KIFKEQ_clean_linker_1, # of connection points: 2
#     Edge 17, Type (0, 1), BuildingBlock: KIFKEQ_clean_linker_1, # of connection points: 2
#     Edge 18, Type (0, 1), BuildingBlock: KIFKEQ_clean_linker_1, # of connection points: 2
#     Edge 19, Type (0, 1), BuildingBlock: KIFKEQ_clean_linker_1, # of connection points: 2
#     Edge 20, Type (0, 1), BuildingBlock: KIFKEQ_clean_linker_1, # of connection points: 2
#     Edge 21, Type (0, 1), BuildingBlock: KIFKEQ_clean_linker_1, # of connection points: 2
#     Edge 22, Type (0, 1), BuildingBlock: KIFKEQ_clean_linker_1, # of connection points: 2
#     Edge 23, Type (0, 1), BuildingBlock: KIFKEQ_clean_linker_1, # of connection points: 2
#     Edge 24, Type (0, 1), BuildingBlock: KIFKEQ_clean_linker_1, # of connection points: 2
#     Edge 25, Type (0, 1), BuildingBlock: KIFKEQ_clean_linker_1, # of connection points: 2
#     Edge 26, Type (0, 1), BuildingBlock: KIFKEQ_clean_linker_1, # of connection points: 2
#     Edge 27, Type (0, 1), BuildingBlock: KIFKEQ_clean_linker_1, # of connection points: 2
#     Edge 28, Type (0, 1), BuildingBlock: KIFKEQ_clean_linker_1, # of connection points: 2
#     Edge 29, Type (0, 1), BuildingBlock: KIFKEQ_clean_linker_1, # of connection points: 2
#     Edge 30, Type (0, 1), BuildingBlock: KIFKEQ_clean_linker_1, # of connection points: 2
#     Edge 31, Type (0, 1), BuildingBlock: KIFKEQ_clean_linker_1, # of connection points: 2
#     Edge 32, Type (0, 1), BuildingBlock: KIFKEQ_clean_linker_1, # of connection points: 2
#     Edge 33, Type (0, 1), BuildingBlock: KIFKEQ_clean_linker_1, # of connection points: 2
#     Edge 34, Type (0, 1), BuildingBlock: KIFKEQ_clean_linker_1, # of connection points: 2
#     Edge 35, Type (0, 1), BuildingBlock: KIFKEQ_clean_linker_1, # of connection points: 2
# Relax obj value: 0.147
# Max RMSD: 0.219
# Mean RMSD: 0.134
data_MOF--net-pyr--node1-BETDIP_clean_sbu_0--node2-BETDAH_clean_linker_0--edge1-KIFKEQ_clean_linker_1
_symmetry_space_group_name_H-M    P1
_symmetry_Int_Tables_number       1
_symmetry_cell_setting            triclinic
loop_
_symmetry_equiv_pos_as_xyz
'x, y, z'
_cell_length_a     35.099105
_cell_length_b     40.083208
_cell_length_c     40.036221
_cell_angle_alpha  88.953023
_cell_angle_beta   93.680828
_cell_angle_gamma 110.26817
loop_
_atom_site_label
_atom_site_type_symbol
_atom_site_fract_x
_atom_site_fract_y
_atom_site_fract_z
_atom_type_partial_charge
H0 H 0.38202 0.2391 0.28198 0.0
H1 H 0.44317 0.31646 0.20923 0.0
H2 H 0.36699 0.34097 0.27752 0.0
C3 C 0.38868 0.26503 0.27047 0.0
C4 C 0.3714 0.28876 0.28265 0.0
C5 C 0.41453 0.27446 0.2439 0.0
C6 C 0.42405 0.30874 0.23025 0.0
C7 C 0.40671 0.33259 0.24195 0.0
C8 C 0.3805 0.32262 0.26836 0.0
N9 N 0.41478 0.36586 0.22582 0.0
C10 C 0.3846 0.38055 0.2196 0.0
H11 H 0.24675 0.78742 0.78204 0.0
H12 H 0.14646 0.81971 0.74798 0.0
H13 H 0.18533 0.75316 0.6854 0.0
C14 C 0.22274 0.78639 0.76323 0.0
C15 C 0.21955 0.76792 0.73309 0.0
C16 C 0.19668 0.80528 0.7686 0.0
C17 C 0.16637 0.80488 0.74393 0.0
C18 C 0.16177 0.78542 0.71415 0.0
C19 C 0.18801 0.7667 0.70908 0.0
N20 N 0.1325 0.78594 0.6882 0.0
C21 C 0.11871 0.81439 0.6841 0.0
H22 H 0.70913 0.36315 0.94993 0.0
H23 H 0.70443 0.44232 0.87688 0.0
H24 H 0.60478 0.3434 0.88085 0.0
C25 C 0.69318 0.37151 0.92931 0.0
C26 C 0.65473 0.3483 0.91725 0.0
C27 C 0.71149 0.40563 0.91544 0.0
C28 C 0.69083 0.41644 0.88808 0.0
C29 C 0.65251 0.39332 0.87525 0.0
C30 C 0.63483 0.36002 0.89033 0.0
N31 N 0.62955 0.40168 0.84766 0.0
C32 C 0.63964 0.43106 0.82632 0.0
H33 H 0.86158 0.77199 0.4522 0.0
H34 H 0.9513 0.80113 0.37899 0.0
H35 H 0.86338 0.69481 0.37885 0.0
C36 C 0.87472 0.7651 0.43075 0.0
C37 C 0.85836 0.73016 0.41765 0.0
C38 C 0.90825 0.79105 0.41731 0.0
C39 C 0.92533 0.78155 0.38974 0.0
C40 C 0.90934 0.74727 0.37527 0.0
C41 C 0.87541 0.72147 0.38919 0.0
N42 N 0.93031 0.74063 0.34797 0.0
C43 C 0.92022 0.71195 0.32551 0.0
H44 H 0.75258 0.79612 0.87466 0.0
H45 H 0.6634 0.76721 0.94893 0.0
H46 H 0.64477 0.8239 0.86093 0.0
C47 C 0.7237 0.79552 0.88332 0.0
C48 C 0.69989 0.81115 0.86377 0.0
C49 C 0.71128 0.78013 0.91437 0.0
C50 C 0.67348 0.77885 0.92499 0.0
C51 C 0.64977 0.79488 0.90593 0.0
C52 C 0.66319 0.81142 0.87553 0.0
N53 N 0.61314 0.7953 0.91829 0.0
C54 C 0.6071 0.8272 0.92321 0.0
H55 H 0.9077 0.2739 0.37111 0.0
H56 H 0.9474 0.34303 0.45684 0.0
H57 H 0.87198 0.36595 0.37732 0.0
C58 C 0.90946 0.29806 0.3839 0.0
C59 C 0.88848 0.31955 0.36979 0.0
C60 C 0.93035 0.306 0.41537 0.0
C61 C 0.93134 0.33655 0.43246 0.0
C62 C 0.91005 0.35794 0.41902 0.0
C63 C 0.88832 0.34928 0.38777 0.0
N64 N 0.91025 0.38762 0.43774 0.0
C65 C 0.87519 0.39556 0.44091 0.0
H66 H 0.36038 0.76867 0.19802 0.0
H67 H 0.36143 0.69967 0.28149 0.0
H68 H 0.45024 0.80519 0.28013 0.0
C69 C 0.37444 0.76409 0.22172 0.0
C70 C 0.4078 0.79155 0.23666 0.0
C71 C 0.35766 0.73093 0.23745 0.0
C72 C 0.37447 0.72495 0.26907 0.0
C73 C 0.40804 0.75204 0.28446 0.0
C74 C 0.42417 0.78489 0.26811 0.0
N75 N 0.42603 0.74859 0.31677 0.0
C76 C 0.42244 0.71771 0.33509 0.0
H77 H 0.21502 0.37682 0.70749 0.0
H78 H 0.21462 0.45093 0.78419 0.0
H79 H 0.12057 0.34767 0.77687 0.0
C80 C 0.20132 0.38295 0.72898 0.0
C81 C 0.16549 0.35776 0.74001 0.0
C82 C 0.21954 0.41645 0.74461 0.0
C83 C 0.20089 0.42531 0.77194 0.0
C84 C 0.16487 0.40017 0.78365 0.0
C85 C 0.1478 0.36686 0.76745 0.0
N86 N 0.14424 0.40589 0.81157 0.0
C87 C 0.15262 0.43537 0.83279 0.0
Tb88 Tb 0.9857 0.05999 0.58815 0.0
Tb89 Tb 0.07622 0.08996 0.57111 0.0
C90 C 0.91457 0.02495 0.60326 0.0
C91 C 0.89379 0.99393 0.62363 0.0
C92 C 0.85194 0.97608 0.61738 0.0
C93 C 0.82996 0.95118 0.64025 0.0
C94 C 0.84957 0.94413 0.66983 0.0
C95 C 0.89198 0.9604 0.67493 0.0
C96 C 0.91397 0.98504 0.65194 0.0
C97 C 0.03006 0.12306 0.61369 0.0
C98 C 0.0507 0.02975 0.62426 0.0
C99 C 0.14736 0.13243 0.56657 0.0
C100 C 0.1703 0.14928 0.53773 0.0
C101 C 0.20296 0.18146 0.54175 0.0
C102 C 0.22358 0.19844 0.51398 0.0
C103 C 0.21185 0.18333 0.48186 0.0
C104 C 0.17897 0.1511 0.47801 0.0
C105 C 0.15824 0.13433 0.50568 0.0
C106 C 0.03514 0.03343 0.53238 0.0
C107 C 1.00866 0.11231 0.52873 0.0
O108 O 0.92979 1.01933 0.57574 0.0
O109 O 0.93904 0.05254 0.62015 0.0
O110 O 0.04163 0.0967 0.611 0.0
O111 O 0.99238 0.11405 0.60273 0.0
O112 O 1.01202 0.0248 0.61568 0.0
O113 O 0.08099 0.05721 0.61368 0.0
O114 O 0.11658 0.14259 0.57202 0.0
O115 O 0.13817 0.09785 0.56895 0.0
O116 O 0.02272 0.04841 0.55442 0.0
O117 O 0.07342 0.05194 0.53055 0.0
O118 O 0.04746 0.12024 0.53896 0.0
O119 O 0.97917 0.08549 0.54117 0.0
H120 H 0.83589 0.98275 0.59571 0.0
H121 H 0.79728 0.93911 0.6358 0.0
H122 H 0.90787 0.95505 0.69734 0.0
H123 H 0.9463 0.99851 0.65721 0.0
H124 H 0.21234 0.19353 0.5663 0.0
H125 H 0.24896 0.22315 0.51765 0.0
H126 H 0.16889 0.13911 0.4535 0.0
H127 H 0.13257 0.10983 0.50199 0.0
Tb128 Tb 0.57293 0.08499 0.08224 0.0
Tb129 Tb 0.47798 0.04687 0.05659 0.0
C130 C 0.64259 0.13087 0.08857 0.0
C131 C 0.66788 0.15215 0.11663 0.0
C132 C 0.68942 0.1884 0.11191 0.0
C133 C 0.71266 0.20937 0.13852 0.0
C134 C 0.71492 0.19426 0.17019 0.0
C135 C 0.69309 0.15796 0.1749 0.0
C136 C 0.66954 0.13711 0.1484 0.0
C137 C 0.5339 0.02823 0.11889 0.0
C138 C 0.50367 0.10298 0.11673 0.0
C139 C 0.40621 1.00453 0.04932 0.0
C140 C 0.37569 0.98917 1.02183 0.0
C141 C 0.35173 0.95312 1.02323 0.0
C142 C 0.32431 0.937 0.99658 0.0
C143 C 0.32012 0.95672 0.96802 0.0
C144 C 0.34352 0.99319 0.96711 0.0
C145 C 0.37126 1.00925 0.99373 0.0
C146 C 0.51849 0.10421 1.02118 0.0
C147 C 0.54721 0.0261 1.02464 0.0
O148 O 0.60996 0.13847 0.07948 0.0
O149 O 0.63575 0.09646 0.08935 0.0
O150 O 0.52069 0.04221 0.09453 0.0
O151 O 0.57205 0.04783 0.12425 0.0
O152 O 0.54294 0.11256 0.11147 0.0
O153 O 0.47494 0.07574 0.10141 0.0
O154 O 0.43808 0.99447 0.05045 0.0
O155 O 0.41568 0.03865 0.05539 0.0
O156 O 0.52994 0.08911 0.04524 0.0
O157 O 0.4804 0.08534 1.01467 0.0
O158 O 0.50802 1.01734 1.03001 0.0
O159 O 0.57642 0.05363 0.03919 0.0
H160 H 0.68817 0.20051 0.08763 0.0
H161 H 0.72941 0.23722 0.1342 0.0
H162 H 0.69395 0.14579 0.19919 0.0
H163 H 0.65258 0.10932 0.15281 0.0
H164 H 0.35496 0.93718 0.04466 0.0
H165 H 0.3075 0.90874 0.99795 0.0
H166 H 0.34075 1.00926 0.94569 0.0
H167 H 0.38961 0.03715 0.9921 0.0
Tb168 Tb 0.54369 0.60575 0.5919 0.0
Tb169 Tb 0.52727 0.53615 0.56021 0.0
C170 C 0.53662 0.66259 0.61098 0.0
C171 C 0.50427 0.67129 0.62633 0.0
C172 C 0.46311 0.65102 0.61907 0.0
C173 C 0.43263 0.65964 0.63365 0.0
C174 C 0.44273 0.68882 0.65557 0.0
C175 C 0.48401 0.70886 0.66301 0.0
C176 C 0.51452 0.70008 0.64854 0.0
C177 C 0.57867 0.5651 0.62511 0.0
C178 C 0.46207 0.54033 0.60755 0.0
C179 C 0.53426 0.47952 0.54038 0.0
C180 C 0.56848 0.47105 0.52809 0.0
C181 C 0.60862 0.49015 0.53977 0.0
C182 C 0.64097 0.48179 0.52837 0.0
C183 C 0.63386 0.45416 0.50507 0.0
C184 C 0.59367 0.43548 0.49294 0.0
C185 C 0.56122 0.44386 0.50442 0.0
C186 C 0.49232 0.57702 0.52734 0.0
C187 C 0.60954 0.60127 0.54577 0.0
O188 O 0.52837 0.65076 0.58014 0.0
O189 O 0.55431 0.64434 0.62955 0.0
O190 O 0.5436 0.55527 0.61039 0.0
O191 O 0.59494 0.59938 0.62229 0.0
O192 O 0.48193 0.57518 0.60785 0.0
O193 O 0.47591 0.51857 0.59181 0.0
O194 O 0.53812 0.48901 0.57187 0.0
O195 O 0.5203 0.49985 0.52105 0.0
O196 O 0.52753 0.58661 0.54176 0.0
O197 O 0.4758 0.54276 0.53025 0.0
O198 O 0.58987 0.5664 0.54587 0.0
O199 O 0.59514 0.62322 0.56052 0.0
H200 H 0.45443 0.62877 0.60184 0.0
H201 H 0.40113 0.64397 0.6271 0.0
H202 H 0.49273 0.73126 0.68009 0.0
H203 H 0.54613 0.71589 0.65456 0.0
H204 H 0.61504 0.51139 0.55793 0.0
H205 H 0.67161 0.49704 0.53779 0.0
H206 H 0.58724 0.4139 0.47516 0.0
H207 H 0.53044 0.42894 0.49505 0.0
Tb208 Tb 0.03468 0.60167 0.05962 0.0
Tb209 Tb 0.03003 0.53843 0.09896 0.0
C210 C 0.01993 0.65114 1.02832 0.0
C211 C 0.98653 0.66517 1.02772 0.0
C212 C 0.94814 0.64404 0.03802 0.0
C213 C 0.91563 0.6566 1.03486 0.0
C214 C 0.92115 0.69054 1.02159 0.0
C215 C 0.9601 0.71211 1.01258 0.0
C216 C 0.99253 0.69944 1.01557 0.0
C217 C 0.10416 0.60649 0.09312 0.0
C218 C 0.996 0.59172 0.13097 0.0
C219 C 0.04449 0.48948 0.13173 0.0
C220 C 0.07868 0.47645 0.13569 0.0
C221 C 0.11644 0.49606 0.12334 0.0
C222 C 0.14988 0.48513 0.12999 0.0
C223 C 0.14602 0.45445 0.1491 0.0
C224 C 0.10775 0.43442 0.1606 0.0
C225 C 0.07436 0.4454 0.15396 0.0
C226 C 0.9606 0.53328 0.06462 0.0
C227 C 0.06926 0.54896 1.02754 0.0
O228 O 1.01023 0.61886 1.01653 0.0
O229 O 0.04282 0.65604 0.05613 0.0
O230 O 0.06885 0.59262 0.10323 0.0
O231 O 0.10124 0.62012 0.06392 0.0
O232 O 0.9961 0.60489 0.10033 0.0
O233 O 1.01189 0.56672 0.1375 0.0
O234 O 0.05199 0.52147 0.1434 0.0
O235 O 0.02469 0.4846 0.10242 0.0
O236 O 0.99616 0.54738 0.05514 0.0
O237 O 0.96334 0.5195 0.09379 0.0
O238 O 0.06859 0.5352 0.05806 0.0
O239 O 0.05353 0.57409 1.0211 0.0
H240 H 0.94307 0.61752 0.0477 0.0
H241 H 0.88603 0.63957 0.04225 0.0
H242 H 0.96513 0.7382 1.00191 0.0
H243 H 0.02203 0.71605 1.00759 0.0
H244 H 0.12027 0.52022 0.10924 0.0
H245 H 0.17882 0.50087 0.12043 0.0
H246 H 0.10388 0.41092 0.17571 0.0
H247 H 0.04542 0.43014 0.16383 0.0
H248 H 0.30432 0.22941 0.28439 0.0
H249 H 0.37594 0.32206 0.34243 0.0
H250 H 0.26297 0.20598 0.3318 0.0
H251 H 0.33548 0.29814 0.3906 0.0
H252 H 0.23538 0.25367 0.46454 0.0
H253 H 0.27045 0.28175 0.41502 0.0
H254 H 0.27378 0.18013 0.38386 0.0
H255 H 0.23816 0.15224 0.43273 0.0
C256 C 0.31097 0.2448 0.30737 0.0
C257 C 0.34343 0.2773 0.31001 0.0
C258 C 0.28754 0.23132 0.3346 0.0
C259 C 0.29641 0.24982 0.36525 0.0
C260 C 0.3277 0.28327 0.36733 0.0
C261 C 0.35091 0.29698 0.33985 0.0
C262 C 0.24381 0.23748 0.44708 0.0
C263 C 0.2339 0.20076 0.45236 0.0
C264 C 0.26387 0.25352 0.41875 0.0
C265 C 0.27462 0.23316 0.39527 0.0
C266 C 0.26507 0.1965 0.40092 0.0
C267 C 0.24481 0.18049 0.42902 0.0
H268 H 0.20537 0.78639 0.83356 0.0
H269 H 0.20553 0.8754 0.77115 0.0
H270 H 0.22762 0.82588 0.88223 0.0
H271 H 0.22787 0.91502 0.81988 0.0
H272 H 0.33494 0.96851 0.90175 0.0
H273 H 0.29617 0.93363 0.85395 0.0
H274 H 0.20753 0.86767 0.91939 0.0
H275 H 0.24555 0.90332 0.96739 0.0
C276 C 0.20947 0.8143 0.83047 0.0
C277 C 0.20395 0.82795 0.79871 0.0
C278 C 0.22191 0.83684 0.85828 0.0
C279 C 0.22956 0.87349 0.85472 0.0
C280 C 0.22232 0.88688 0.82321 0.0
C281 C 0.20933 0.86423 0.79545 0.0
C282 C 0.30656 0.94732 0.90597 0.0
C283 C 0.29363 0.93853 0.93853 0.0
C284 C 0.28438 0.92728 0.87852 0.0
C285 C 0.24903 0.89786 0.88307 0.0
C286 C 0.23497 0.89002 0.91532 0.0
C287 C 0.25688 0.91032 0.94276 0.0
H288 H 0.573 0.44654 0.8087 0.0
H289 H 0.69591 0.46702 0.78176 0.0
H290 H 0.5603 0.47856 0.75919 0.0
H291 H 0.68341 0.49948 0.73178 0.0
H292 H 0.65044 0.58467 0.66371 0.0
H293 H 0.66804 0.55398 0.71263 0.0
H294 H 0.55231 0.46896 0.69815 0.0
H295 H 0.53487 0.49958 0.64938 0.0
C296 C 0.59757 0.4585 0.79237 0.0
C297 C 0.63556 0.45472 0.79927 0.0
C298 C 0.59015 0.4765 0.76373 0.0
C299 C 0.62062 0.49137 0.74111 0.0
C300 C 0.65925 0.48853 0.74864 0.0
C301 C 0.66653 0.47008 0.77731 0.0
C302 C 0.62896 0.55923 0.67078 0.0
C303 C 0.59115 0.5447 0.65266 0.0
C304 C 0.6391 0.54158 0.69882 0.0
C305 C 0.61147 0.50912 0.70973 0.0
C306 C 0.57413 0.49417 0.69093 0.0
C307 C 0.5642 0.5116 0.66274 0.0
H308 H 0.91389 0.64169 0.32321 0.0
H309 H 0.93466 0.73549 0.26276 0.0
H310 H 0.92741 0.61029 0.2758 0.0
H311 H 0.94978 0.70523 0.21588 0.0
H312 H 0.95371 0.63852 0.12719 0.0
H313 H 0.92976 0.66407 0.17279 0.0
H314 H 0.97844 0.60487 0.24424 0.0
H315 H 1.0008 0.57839 0.19853 0.0
C316 C 0.92076 0.65541 0.29959 0.0
C317 C 0.92251 0.69087 0.29657 0.0
C318 C 0.92915 0.63761 0.27237 0.0
C319 C 0.94005 0.65493 0.24144 0.0
C320 C 0.94088 0.69034 0.23863 0.0
C321 C 0.93224 0.70791 0.26568 0.0
C322 C 0.95902 0.63069 0.15261 0.0
C323 C 0.97934 0.60624 0.15887 0.0
C324 C 0.9455 0.64566 0.17903 0.0
C325 C 0.95212 0.63703 0.21281 0.0
C326 C 0.97192 0.61207 0.21889 0.0
C327 C 0.98511 0.59691 0.19246 0.0
H328 H 0.37342 0.20316 0.2351 0.0
H329 H 0.48905 0.28513 0.21901 0.0
H330 H 0.39631 0.15964 0.20968 0.0
H331 H 0.51078 0.24195 0.19107 0.0
H332 H 0.55134 0.15166 0.16291 0.0
H333 H 0.53086 0.19124 0.19744 0.0
H334 H 0.40716 0.14456 0.15565 0.0
H335 H 0.42724 0.10424 0.12237 0.0
C336 C 0.4039 0.21193 0.2264 0.0
C337 C 0.4294 0.24777 0.22921 0.0
C338 C 0.4168 0.18698 0.21128 0.0
C339 C 0.45525 0.19726 0.198 0.0
C340 C 0.48111 0.23296 0.20132 0.0
C341 C 0.46839 0.25788 0.21689 0.0
C342 C 0.51968 0.1496 0.16144 0.0
C343 C 0.49092 0.12483 0.13987 0.0
C344 C 0.50799 0.17246 0.18105 0.0
C345 C 0.4674 0.17128 0.17924 0.0
C346 C 0.43855 0.14588 0.1582 0.0
C347 C 0.45012 0.12279 0.13893 0.0
H348 H 0.15504 0.86926 0.64471 0.0
H349 H 0.06066 0.83077 0.71419 0.0
H350 H 0.1392 0.92371 0.63682 0.0
H351 H 0.04482 0.88566 0.70688 0.0
H352 H 0.99795 0.96526 0.64349 0.0
H353 H 0.01508 0.91397 0.66264 0.0
H354 H 0.14286 0.97771 0.6659 0.0
H355 H 0.12591 0.02896 0.64612 0.0
C356 C 0.13095 0.87271 0.65834 0.0
C357 C 0.10871 0.84613 0.67974 0.0
C358 C 0.12214 0.90395 0.65417 0.0
C359 C 0.09092 0.90914 0.67142 0.0
C360 C 0.06886 0.88236 0.6931 0.0
C361 C 0.07781 0.85105 0.6973 0.0
C362 C 0.02969 0.96863 0.64896 0.0
C363 C 0.06058 1.00115 0.64274 0.0
C364 C 0.03949 0.93916 0.66004 0.0
C365 C 0.08035 0.94161 0.66519 0.0
C366 C 0.1111 0.9748 0.6614 0.0
C367 C 0.10134 1.00425 0.65029 0.0
H368 H 0.77739 0.38747 0.93706 0.0
H369 H 0.73689 0.47771 0.92954 0.0
H370 H 0.83677 0.42225 0.97211 0.0
H371 H 0.79803 0.51312 0.96363 0.0
H372 H 0.94854 0.55558 1.00062 0.0
H373 H 0.88936 0.52915 0.96096 0.0
H374 H 0.83091 0.45366 1.0361 0.0
H375 H 0.88898 0.48048 0.07589 0.0
C376 C 0.78128 0.41486 0.94252 0.0
C377 C 0.75162 0.42942 0.93096 0.0
C378 C 0.8155 0.4348 0.9625 0.0
C379 C 0.82174 0.4702 0.97088 0.0
C380 C 0.79387 0.48582 0.95753 0.0
C381 C 0.75901 0.46557 0.93786 0.0
C382 C 0.92273 0.53376 1.00881 0.0
C383 C 0.92357 0.52008 0.0414 0.0
C384 C 0.88891 0.51871 0.98613 0.0
C385 C 0.85569 0.48929 0.99547 0.0
C386 C 0.85615 0.47627 1.02825 0.0
C387 C 0.88943 0.49169 0.05103 0.0
H388 H 0.85353 0.71851 0.48482 0.0
H389 H 0.78551 0.68209 0.39085 0.0
H390 H 0.7944 0.68482 0.51507 0.0
H391 H 0.72595 0.6473 0.42155 0.0
H392 H 0.63817 0.5691 0.4976 0.0
H393 H 0.69866 0.59568 0.46537 0.0
H394 H 0.72697 0.69413 0.51968 0.0
H395 H 0.66667 0.66803 0.55133 0.0
C396 C 0.826 0.70297 0.47053 0.0
C397 C 0.82421 0.70368 0.43526 0.0
C398 C 0.79202 0.68364 0.48797 0.0
C399 C 0.75511 0.66384 0.47082 0.0
C400 C 0.7539 0.66235 0.43556 0.0
C401 C 0.78807 0.68216 0.41795 0.0
C402 C 0.65742 0.59638 0.50277 0.0
C403 C 0.64745 0.61636 0.52722 0.0
C404 C 0.69194 0.61166 0.4841 0.0
C405 C 0.71781 0.64704 0.48994 0.0
C406 C 0.70801 0.66673 0.51468 0.0
C407 C 0.67327 0.65175 0.53283 0.0
H408 H 0.38731 0.43828 0.18307 0.0
H409 H 0.3074 0.34977 0.23626 0.0
H410 H 0.32955 0.4567 0.165 0.0
H411 H 0.24958 0.36828 0.2189 0.0
H412 H 0.1507 0.3877 0.14982 0.0
H413 H 0.20915 0.37062 0.16751 0.0
H414 H 0.28112 0.48086 0.18719 0.0
H415 H 0.2227 0.49794 0.16952 0.0
C416 C 0.35734 0.42314 0.19117 0.0
C417 C 0.35138 0.3929 0.21108 0.0
C418 C 0.32436 0.43363 0.18096 0.0
C419 C 0.28497 0.41387 0.19044 0.0
C420 C 0.27942 0.38376 0.21079 0.0
C421 C 0.31242 0.37334 0.22099 0.0
C422 C 0.17897 0.40826 0.15803 0.0
C423 C 0.18206 0.44415 0.15828 0.0
C424 C 0.21242 0.39848 0.16823 0.0
C425 C 0.24971 0.42438 0.17892 0.0
C426 C 0.25296 0.46032 0.17872 0.0
C427 C 0.2195 0.4701 0.16853 0.0
H428 H 0.60051 0.28657 0.88762 0.0
H429 H 0.66447 0.32652 0.98262 0.0
H430 H 0.56783 0.22955 0.91275 0.0
H431 H 0.63626 0.26819 1.00645 0.0
H432 H 0.55332 0.16768 0.05335 0.0
H433 H 0.58509 0.22596 1.02887 0.0
H434 H 0.56794 0.17684 0.93089 0.0
H435 H 0.53295 0.11928 0.95572 0.0
C436 C 0.60797 0.28346 0.91385 0.0
C437 C 0.63546 0.31208 0.93273 0.0
C438 C 0.58971 0.24997 0.92829 0.0
C439 C 0.59911 0.24323 0.96198 0.0
C440 C 0.62711 0.27172 0.98071 0.0
C441 C 0.64436 0.30552 0.96657 0.0
C442 C 0.55676 0.16957 1.02661 0.0
C443 C 0.54109 0.13906 1.00643 0.0
C444 C 0.57526 0.20312 1.01235 0.0
C445 C 0.57964 0.20704 0.97747 0.0
C446 C 0.56457 0.17585 0.95758 0.0
C447 C 0.54489 0.14251 0.97181 0.0
H448 H 0.86775 0.83268 0.44151 0.0
H449 H 0.98889 0.83253 0.42899 0.0
H450 H 0.8963 0.89096 0.46842 0.0
H451 H 0.01748 0.89056 0.45611 0.0
H452 H 0.05943 1.00859 0.47819 0.0
H453 H 0.02823 0.95161 0.44966 0.0
H454 H 0.93146 0.92259 0.5178 0.0
H455 H 0.96276 0.98035 0.54592 0.0
C456 C 0.90052 0.84492 0.44463 0.0
C457 C 0.92588 0.8276 0.43287 0.0
C458 C 0.91697 0.87848 0.46022 0.0
C459 C 0.95939 0.89593 0.46462 0.0
C460 C 0.98471 0.87859 0.45274 0.0
C461 C 0.96825 0.8451 0.43708 0.0
C462 C 0.03126 0.99018 0.48692 0.0
C463 C 1.01339 0.99928 0.51418 0.0
C464 C 0.01347 0.9572 0.4707 0.0
C465 C 0.97727 0.93192 0.48136 0.0
C466 C 0.959 0.94131 0.50842 0.0
C467 C 0.97685 0.97455 0.52461 0.0
H468 H 0.3014 0.79786 0.74764 0.0
H469 H 0.21084 0.70572 0.70025 0.0
H470 H 0.3548 0.77676 0.73227 0.0
H471 H 0.26486 0.68555 0.68313 0.0
H472 H 0.37231 0.64535 0.68159 0.0
H473 H 0.31798 0.66253 0.70288 0.0
H474 H 0.38539 0.77259 0.6815 0.0
H475 H 0.43957 0.75548 0.66067 0.0
C476 C 0.29275 0.77282 0.73429 0.0
C477 C 0.25168 0.75342 0.72531 0.0
C478 C 0.32353 0.76101 0.725 0.0
C479 C 0.31418 0.72968 0.70614 0.0
C480 C 0.2731 0.7097 0.69784 0.0
C481 C 0.24216 0.72145 0.70733 0.0
C482 C 0.3754 0.6732 0.68146 0.0
C483 C 0.41026 0.6991 0.66958 0.0
C484 C 0.34429 0.68302 0.69358 0.0
C485 C 0.34738 0.71894 0.694 0.0
C486 C 0.38236 0.74477 0.68219 0.0
C487 C 0.41344 0.73498 0.67022 0.0
H488 H 0.7275 0.7836 0.81273 0.0
H489 H 0.70704 0.87829 0.84374 0.0
H490 H 0.76076 0.81497 0.7637 0.0
H491 H 0.7403 0.90971 0.79466 0.0
H492 H 0.85575 0.96179 0.73554 0.0
H493 H 0.81465 0.92861 0.7801 0.0
H494 H 0.74705 0.84583 0.70955 0.0
H495 H 0.78844 0.8792 0.6647 0.0
C496 C 0.72967 0.81099 0.80873 0.0
C497 C 0.71494 0.82865 0.83199 0.0
C498 C 0.74846 0.82883 0.78066 0.0
C499 C 0.7533 0.86478 0.77559 0.0
C500 C 0.73722 0.88206 0.7982 0.0
C501 C 0.71794 0.86406 0.82606 0.0
C502 C 0.83236 0.93636 0.7296 0.0
C503 C 0.82546 0.92287 0.69677 0.0
C504 C 0.80851 0.91763 0.75499 0.0
C505 C 0.77752 0.88484 0.74816 0.0
C506 C 0.7708 0.87107 0.71541 0.0
C507 C 0.79436 0.89012 0.68983 0.0
H508 H 0.91342 0.29779 0.31382 0.0
H509 H 0.8108 0.3173 0.35228 0.0
H510 H 0.87181 0.27074 0.26371 0.0
H511 H 0.76919 0.29052 0.30169 0.0
H512 H 0.71886 0.26012 0.19102 0.0
H513 H 0.76234 0.29582 0.23726 0.0
H514 H 0.81237 0.2127 0.25817 0.0
H515 H 0.76935 0.17732 0.21213 0.0
C516 C 0.88208 0.29667 0.31135 0.0
C517 C 0.86515 0.30914 0.33717 0.0
C518 C 0.85831 0.28119 0.28271 0.0
C519 C 0.81718 0.27807 0.27914 0.0
C520 C 0.80088 0.29269 0.30384 0.0
C521 C 0.82469 0.30807 0.33271 0.0
C522 C 0.73936 0.24969 0.20547 0.0
C523 C 0.74081 0.216 0.19808 0.0
C524 C 0.76397 0.26997 0.23195 0.0
C525 C 0.79086 0.25709 0.25104 0.0
C526 C 0.79229 0.22346 0.24355 0.0
C527 C 0.76742 0.20308 0.21744 0.0
H528 H 0.36836 0.67611 0.37802 0.0
H529 H 0.49191 0.70503 0.34956 0.0
H530 H 0.38357 0.64177 0.42531 0.0
H531 H 0.50732 0.67081 0.39641 0.0
H532 H 0.53495 0.64352 0.50441 0.0
H533 H 0.51609 0.6754 0.45723 0.0
H534 H 0.40159 0.58909 0.44148 0.0
H535 H 0.42051 0.55732 0.4889 0.0
C536 C 0.3985 0.67443 0.38149 0.0
C537 C 0.42882 0.69277 0.35992 0.0
C538 C 0.40734 0.65488 0.40864 0.0
C539 C 0.44688 0.6537 0.41506 0.0
C540 C 0.47676 0.67149 0.39275 0.0
C541 C 0.46783 0.69075 0.36559 0.0
C542 C 0.50561 0.63147 0.49107 0.0
C543 C 0.47932 0.59779 0.50043 0.0
C544 C 0.49488 0.64961 0.46376 0.0
C545 C 0.4574 0.63476 0.44511 0.0
C546 C 0.43059 0.60151 0.4552 0.0
C547 C 0.44148 0.58323 0.48238 0.0
H548 H 0.10512 0.47611 0.83091 0.0
H549 H 0.18844 0.44387 0.89595 0.0
H550 H 0.0878 0.5049 0.87797 0.0
H551 H 0.17226 0.47352 0.94328 0.0
H552 H 0.09734 0.49238 1.02765 0.0
H553 H 0.12121 0.46832 0.98082 0.0
H554 H 0.10576 0.55132 0.917 0.0
H555 H 0.08083 0.57451 0.96341 0.0
C556 C 0.12072 0.47617 0.85517 0.0
C557 C 0.14877 0.45835 0.85952 0.0
C558 C 0.11074 0.49268 0.88239 0.0
C559 C 0.12838 0.49177 0.91498 0.0
C560 C 0.15741 0.47459 0.91895 0.0
C561 C 0.16728 0.45801 0.89165 0.0
C562 C 0.09923 0.50563 1.00368 0.0
C563 C 0.08682 0.53542 0.99958 0.0
C564 C 0.11323 0.4919 0.97666 0.0
C565 C 0.11546 0.50753 0.94457 0.0
C566 C 0.1039 0.53784 0.94084 0.0
C567 C 0.08978 0.55144 0.96775 0.0
H568 H 0.55747 0.85826 0.89214 0.0
H569 H 0.64703 0.86986 0.97407 0.0
H570 H 0.54651 0.91214 0.91051 0.0
H571 H 0.63575 0.92305 0.99309 0.0
H572 H 0.62401 0.02822 1.01206 0.0
H573 H 0.64214 0.98432 0.9815 0.0
H574 H 0.51472 0.92601 0.95762 0.0
H575 H 0.49661 0.97003 0.98725 0.0
C576 C 0.57499 0.87268 0.9139 0.0
C577 C 0.60285 0.86029 0.93194 0.0
C578 C 0.56871 0.90333 0.9245 0.0
C579 C 0.59017 0.92184 0.95334 0.0
C580 C 0.61916 0.90981 0.97053 0.0
C581 C 0.62541 0.87926 0.95988 0.0
C582 C 0.5999 1.00638 0.99979 0.0
C583 C 0.55883 1.00245 1.00253 0.0
C584 C 0.6103 0.98112 0.98243 0.0
C585 C 0.57987 0.95147 0.96741 0.0
C586 C 0.53896 0.94865 0.96861 0.0
C587 C 0.52857 0.97383 0.98592 0.0
H588 H 0.91837 0.27883 0.47804 0.0
H589 H 0.9788 0.27402 0.38857 0.0
H590 H 0.93808 0.23039 0.50222 0.0
H591 H 0.99851 0.22532 0.41284 0.0
H592 H 0.0592 0.16597 0.49213 0.0
H593 H 0.04257 0.2139 0.46328 0.0
H594 H 0.91696 0.16435 0.4864 0.0
H595 H 0.93323 0.11643 0.51511 0.0
C596 C 0.93652 0.26784 0.46383 0.0
C597 C 0.94715 0.28015 0.43149 0.0
C598 C 0.94732 0.23985 0.47746 0.0
C599 C 0.9693 0.22388 0.45915 0.0
C600 C 0.98149 0.23717 0.42739 0.0
C601 C 0.97022 0.26492 0.41356 0.0
C602 C 0.02788 0.16495 0.49054 0.0
C603 C 0.99758 0.13751 0.50615 0.0
C604 C 0.01844 0.19238 0.47403 0.0
C605 C 0.97867 0.19304 0.47319 0.0
C606 C 0.94802 0.16472 0.48725 0.0
C607 C 0.95731 0.13711 0.50339 0.0
H608 H 0.35451 0.7 0.1771 0.0
H609 H 0.28011 0.70165 0.2581 0.0
H610 H 0.29431 0.6638 0.14367 0.0
H611 H 0.21913 0.66672 0.22421 0.0
H612 H 0.11486 0.59027 0.15938 0.0
H613 H 0.1768 0.61368 0.19623 0.0
H614 H 0.2404 0.6737 0.11346 0.0
H615 H 0.17938 0.64932 0.07688 0.0
C616 C 0.32516 0.69208 0.18789 0.0
C617 C 0.32197 0.70353 0.22019 0.0
C618 C 0.29047 0.67169 0.16859 0.0
C619 C 0.25138 0.66276 0.18076 0.0
C620 C 0.24852 0.67272 0.21389 0.0
C621 C 0.28346 0.69277 0.23342 0.0
C622 C 0.14234 0.6081 0.14909 0.0
C623 C 0.14217 0.61802 0.11522 0.0
C624 C 0.17783 0.62178 0.17027 0.0
C625 C 0.21399 0.64577 0.15808 0.0
C626 C 0.21371 0.65486 0.1239 0.0
C627 C 0.17845 0.64106 0.10282 0.0
H628 H 0.23668 0.48354 0.71744 0.0
H629 H 0.28958 0.40292 0.74043 0.0
H630 H 0.29525 0.51589 0.68474 0.0
H631 H 0.34795 0.43505 0.70856 0.0
H632 H 0.41525 0.47022 0.61448 0.0
H633 H 0.35891 0.44436 0.65006 0.0
H634 H 0.36923 0.54923 0.68309 0.0
H635 H 0.42575 0.57536 0.64692 0.0
C636 C 0.26139 0.47333 0.71635 0.0
C637 C 0.2585 0.44068 0.73155 0.0
C638 C 0.29489 0.49172 0.69744 0.0
C639 C 0.32613 0.47777 0.69325 0.0
C640 C 0.32415 0.44624 0.71032 0.0
C641 C 0.29087 0.42799 0.72902 0.0
C642 C 0.40554 0.48795 0.62911 0.0
C643 C 0.42544 0.525 0.6277 0.0
C644 C 0.37327 0.47302 0.64988 0.0
C645 C 0.35965 0.49455 0.67006 0.0
C646 C 0.3787 0.53172 0.66797 0.0
C647 C 0.41124 0.54673 0.64718 0.0
H648 H 0.7926 0.81325 0.9274 0.0
H649 H 0.69266 0.71865 0.95107 0.0
H650 H 0.83973 0.79109 0.95955 0.0
H651 H 0.73991 0.69692 0.98468 0.0
H652 H 0.84703 0.6522 0.99227 0.0
H653 H 0.79301 0.67399 0.97238 0.0
H654 H 0.86173 0.7775 1.01458 0.0
H655 H 0.91617 0.7557 1.03401 0.0
C656 C 0.78069 0.78774 0.93967 0.0
C657 C 0.73905 0.76737 0.93621 0.0
C658 C 0.80764 0.77529 0.95859 0.0
C659 C 0.7936 0.74222 0.97471 0.0
C660 C 0.75169 0.72235 0.97227 0.0
C661 C 0.72463 0.73486 0.95324 0.0
C662 C 0.85014 0.67936 0.99801 0.0
C663 C 0.88595 0.70238 1.01437 0.0
C664 C 0.81913 0.69185 0.98666 0.0
C665 C 0.82326 0.7276 0.99157 0.0
C666 C 0.85802 0.75001 1.00981 0.0
C667 C 0.88914 0.73756 1.02098 0.0
H668 H 0.41227 0.80604 0.1688 0.0
H669 H 0.44293 0.85845 0.26536 0.0
H670 H 0.43933 0.86352 0.1414 0.0
H671 H 0.47195 0.91552 0.23764 0.0
H672 H 0.56441 1.0006 0.17215 0.0
H673 H 0.53278 0.94444 0.20096 0.0
H674 H 0.42451 0.9232 0.13546 0.0
H675 H 0.45583 0.98028 0.10751 0.0
C676 C 0.42437 0.82962 0.18435 0.0
C677 C 0.4251 0.82703 0.2196 0.0
C678 C 0.4401 0.86268 0.16848 0.0
C679 C 0.45781 0.89414 0.18729 0.0
C680 C 0.45884 0.89175 0.2224 0.0
C681 C 0.44241 0.8588 0.23831 0.0
C682 C 0.53371 0.98412 0.164 0.0
C683 C 0.51283 0.99475 0.13705 0.0
C684 C 0.51557 0.95194 0.1806 0.0
C685 C 0.47622 0.92915 0.17039 0.0
C686 C 0.45508 0.93992 0.14367 0.0
C687 C 0.47302 0.97258 0.12751 0.0
H688 H 0.08409 0.31854 0.72763 0.0
H689 H 0.20373 0.31585 0.71253 0.0
H690 H 0.05356 0.26205 0.69832 0.0
H691 H 0.17317 0.26034 0.6814 0.0
H692 H 0.10304 0.14265 0.6518 0.0
H693 H 0.1362 0.19827 0.68325 0.0
H694 H 0.04171 0.23724 0.64457 0.0
H695 H 1.00837 0.18163 0.61446 0.0
C696 C 0.10403 0.30597 0.71819 0.0
C697 C 0.14658 0.32227 0.72256 0.0
C698 C 0.08643 0.27361 0.70079 0.0
C699 C 0.1107 0.25641 0.6869 0.0
C700 C 0.15326 0.27238 0.69175 0.0
C701 C 0.17088 0.30469 0.70932 0.0
C702 C 0.08958 0.16325 0.65002 0.0
C703 C 0.05289 0.15757 0.63084 0.0
C704 C 0.10862 0.19527 0.66797 0.0
C705 C 0.09153 0.22247 0.66703 0.0
C706 C 0.05543 0.21686 0.64689 0.0
C707 C 0.0364 0.18494 0.62926 0.0
H708 H 0.84065 0.43719 0.40587 0.0
H709 H 0.8282 0.36849 0.49165 0.0
H710 H 0.78034 0.45042 0.42025 0.0
H711 H 0.7678 0.38104 0.50592 0.0
H712 H 0.69717 0.44749 0.54426 0.0
H713 H 0.75458 0.43258 0.52705 0.0
H714 H 0.70547 0.42266 0.4245 0.0
H715 H 0.6483 0.43864 0.44169 0.0
C716 C 0.82464 0.42476 0.42761 0.0
C717 C 0.83868 0.40206 0.44786 0.0
C718 C 0.79015 0.43212 0.43575 0.0
C719 C 0.76949 0.41693 0.46435 0.0
C720 C 0.7834 0.39357 0.48406 0.0
C721 C 0.81773 0.38623 0.47586 0.0
C722 C 0.69875 0.44241 0.518 0.0
C723 C 0.6683 0.44438 0.49431 0.0
C724 C 0.73142 0.43347 0.50819 0.0
C725 C 0.73447 0.4263 0.47443 0.0
C726 C 0.70406 0.42828 0.45066 0.0
C727 C 0.67118 0.43709 0.46053 0.0
loop_
_geom_bond_atom_site_label_1
_geom_bond_atom_site_label_2
_geom_bond_distance
_geom_bond_site_symmetry_2
_ccdc_geom_bond_type
H0 C3 0.929 . S
H1 C6 0.929 . S
H2 C8 0.930 . S
C3 H0 0.929 . S
C3 C4 1.398 . S
C3 C5 1.396 . S
C4 C3 1.398 . S
C4 C8 1.407 . S
C5 C3 1.396 . S
C5 C6 1.394 . S
C6 H1 0.929 . S
C6 C5 1.394 . S
C6 C7 1.382 . S
C7 C6 1.382 . S
C7 C8 1.392 . S
C7 N9 1.420 . S
C8 H2 0.930 . S
C8 C4 1.407 . S
C8 C7 1.392 . S
N9 C7 1.420 . S
N9 C10 1.244 . S
C10 N9 1.244 . S
H11 C14 0.929 . S
H12 C17 0.929 . S
H13 C19 0.930 . S
C14 H11 0.929 . S
C14 C15 1.398 . S
C14 C16 1.396 . S
C15 C14 1.398 . S
C15 C19 1.407 . S
C16 C14 1.396 . S
C16 C17 1.394 . S
C17 H12 0.929 . S
C17 C16 1.394 . S
C17 C18 1.382 . S
C18 C17 1.382 . S
C18 C19 1.392 . S
C18 N20 1.420 . S
C19 H13 0.930 . S
C19 C15 1.407 . S
C19 C18 1.392 . S
N20 C18 1.420 . S
N20 C21 1.244 . S
C21 N20 1.244 . S
H22 C25 0.929 . S
H23 C28 0.929 . S
H24 C30 0.930 . S
C25 H22 0.929 . S
C25 C26 1.398 . S
C25 C27 1.396 . S
C26 C25 1.398 . S
C26 C30 1.407 . S
C27 C25 1.396 . S
C27 C28 1.394 . S
C28 H23 0.929 . S
C28 C27 1.394 . S
C28 C29 1.382 . S
C29 C28 1.382 . S
C29 C30 1.392 . S
C29 N31 1.420 . S
C30 H24 0.930 . S
C30 C26 1.407 . S
C30 C29 1.392 . S
N31 C29 1.420 . S
N31 C32 1.244 . S
C32 N31 1.244 . S
H33 C36 0.929 . S
H34 C39 0.929 . S
H35 C41 0.930 . S
C36 H33 0.929 . S
C36 C37 1.398 . S
C36 C38 1.396 . S
C37 C36 1.398 . S
C37 C41 1.407 . S
C38 C36 1.396 . S
C38 C39 1.394 . S
C39 H34 0.929 . S
C39 C38 1.394 . S
C39 C40 1.382 . S
C40 C39 1.382 . S
C40 C41 1.392 . S
C40 N42 1.420 . S
C41 H35 0.930 . S
C41 C37 1.407 . S
C41 C40 1.392 . S
N42 C40 1.420 . S
N42 C43 1.244 . S
C43 N42 1.244 . S
H44 C47 0.929 . S
H45 C50 0.929 . S
H46 C52 0.930 . S
C47 H44 0.929 . S
C47 C48 1.398 . S
C47 C49 1.396 . S
C48 C47 1.398 . S
C48 C52 1.407 . S
C49 C47 1.396 . S
C49 C50 1.394 . S
C50 H45 0.929 . S
C50 C49 1.394 . S
C50 C51 1.382 . S
C51 C50 1.382 . S
C51 C52 1.392 . S
C51 N53 1.420 . S
C52 H46 0.930 . S
C52 C48 1.407 . S
C52 C51 1.392 . S
N53 C51 1.420 . S
N53 C54 1.244 . S
C54 N53 1.244 . S
H55 C58 0.929 . S
H56 C61 0.929 . S
H57 C63 0.930 . S
C58 H55 0.929 . S
C58 C59 1.398 . S
C58 C60 1.396 . S
C59 C58 1.398 . S
C59 C63 1.407 . S
C60 C58 1.396 . S
C60 C61 1.394 . S
C61 H56 0.929 . S
C61 C60 1.394 . S
C61 C62 1.382 . S
C62 C61 1.382 . S
C62 C63 1.392 . S
C62 N64 1.420 . S
C63 H57 0.930 . S
C63 C59 1.407 . S
C63 C62 1.392 . S
N64 C62 1.420 . S
N64 C65 1.244 . S
C65 N64 1.244 . S
H66 C69 0.929 . S
H67 C72 0.929 . S
H68 C74 0.930 . S
C69 H66 0.929 . S
C69 C70 1.398 . S
C69 C71 1.396 . S
C70 C69 1.398 . S
C70 C74 1.407 . S
C71 C69 1.396 . S
C71 C72 1.394 . S
C72 H67 0.929 . S
C72 C71 1.394 . S
C72 C73 1.382 . S
C73 C72 1.382 . S
C73 C74 1.392 . S
C73 N75 1.420 . S
C74 H68 0.930 . S
C74 C70 1.407 . S
C74 C73 1.392 . S
N75 C73 1.420 . S
N75 C76 1.244 . S
C76 N75 1.244 . S
H77 C80 0.929 . S
H78 C83 0.929 . S
H79 C85 0.930 . S
C80 H77 0.929 . S
C80 C81 1.398 . S
C80 C82 1.396 . S
C81 C80 1.398 . S
C81 C85 1.407 . S
C82 C80 1.396 . S
C82 C83 1.394 . S
C83 H78 0.929 . S
C83 C82 1.394 . S
C83 C84 1.382 . S
C84 C83 1.382 . S
C84 C85 1.392 . S
C84 N86 1.420 . S
C85 H79 0.930 . S
C85 C81 1.407 . S
C85 C84 1.392 . S
N86 C84 1.420 . S
N86 C87 1.244 . S
C87 N86 1.244 . S
Tb88 C90 2.809 1_545 S
Tb88 O108 2.484 1_545 S
Tb88 O109 2.440 . S
Tb88 O110 2.658 1_655 S
Tb88 O111 2.409 1_655 S
Tb88 O112 2.378 1_655 S
Tb88 O116 2.325 1_545 S
Tb88 O119 2.341 . S
Tb89 C99 2.809 . S
Tb89 O110 2.325 . S
Tb89 O113 2.350 . S
Tb89 O114 2.484 . S
Tb89 O115 2.440 . S
Tb89 O116 2.658 1_445 S
Tb89 O117 2.409 1_545 S
Tb89 O118 2.378 . S
C90 Tb88 2.809 1_565 S
C90 C91 1.514 . S
C90 O108 1.248 . S
C90 O109 1.266 1_565 S
C91 C90 1.514 . S
C91 C92 1.359 . S
C91 C96 1.348 . S
C92 C91 1.359 . S
C92 C93 1.380 . S
C92 H120 0.929 . S
C93 C92 1.380 . S
C93 C94 1.347 . S
C93 H121 0.931 . S
C94 C93 1.347 . S
C94 C95 1.369 . S
C95 C94 1.369 . S
C95 C96 1.408 . S
C95 H122 0.930 . S
C96 C91 1.348 . S
C96 C95 1.408 . S
C96 H123 0.930 . S
C97 O110 1.281 . S
C97 O111 1.254 . S
C98 O112 1.236 1_565 S
C98 O113 1.265 1_565 S
C99 Tb89 2.809 . S
C99 C100 1.514 . S
C99 O114 1.248 . S
C99 O115 1.266 . S
C100 C99 1.514 . S
C100 C101 1.359 . S
C100 C105 1.348 . S
C101 C100 1.359 . S
C101 C102 1.380 . S
C101 H124 0.929 . S
C102 C101 1.380 . S
C102 C103 1.347 . S
C102 H125 0.931 . S
C103 C102 1.347 . S
C103 C104 1.369 . S
C104 C103 1.369 . S
C104 C105 1.408 . S
C104 H126 0.930 . S
C105 C100 1.348 . S
C105 C104 1.408 . S
C105 H127 0.930 . S
C106 O116 1.281 . S
C106 O117 1.254 1_655 S
C107 O118 1.236 1_655 S
C107 O119 1.266 . S
O108 Tb88 2.484 1_565 S
O108 C90 1.248 . S
O109 Tb88 2.440 . S
O109 C90 1.266 1_545 S
O110 Tb88 2.658 1_455 S
O110 Tb89 2.325 . S
O110 C97 1.281 . S
O111 Tb88 2.409 1_455 S
O111 C97 1.254 . S
O112 Tb88 2.378 1_455 S
O112 C98 1.236 1_545 S
O113 Tb89 2.350 . S
O113 C98 1.265 1_545 S
O114 Tb89 2.484 . S
O114 C99 1.248 . S
O115 Tb89 2.440 . S
O115 C99 1.266 . S
O116 Tb88 2.325 1_565 S
O116 Tb89 2.658 1_665 S
O116 C106 1.281 . S
O117 Tb89 2.409 1_565 S
O117 C106 1.254 1_455 S
O118 Tb89 2.378 . S
O118 C107 1.236 1_455 S
O119 Tb88 2.341 . S
O119 C107 1.266 . S
H120 C92 0.929 . S
H121 C93 0.931 . S
H122 C95 0.930 . S
H123 C96 0.930 . S
H124 C101 0.929 . S
H125 C102 0.931 . S
H126 C104 0.930 . S
H127 C105 0.930 . S
Tb128 C130 2.809 . S
Tb128 O148 2.484 . S
Tb128 O149 2.440 . S
Tb128 O150 2.658 1_545 S
Tb128 O151 2.409 1_545 S
Tb128 O152 2.378 . S
Tb128 O156 2.325 . S
Tb128 O159 2.341 . S
Tb129 C139 2.809 1_544 S
Tb129 O150 2.325 1_545 S
Tb129 O153 2.341 . S
Tb129 O154 2.484 1_545 S
Tb129 O155 2.444 1_554 S
Tb129 O156 2.658 . S
Tb129 O157 2.409 1_554 S
Tb129 O158 2.378 . S
C130 Tb128 2.809 . S
C130 C131 1.514 . S
C130 O148 1.248 . S
C130 O149 1.266 . S
C131 C130 1.514 . S
C131 C132 1.359 . S
C131 C136 1.348 . S
C132 C131 1.359 . S
C132 C133 1.380 . S
C132 H160 0.929 . S
C133 C132 1.380 . S
C133 C134 1.347 . S
C133 H161 0.931 . S
C134 C133 1.347 . S
C134 C135 1.369 . S
C135 C134 1.369 . S
C135 C136 1.408 . S
C135 H162 0.930 . S
C136 C131 1.348 . S
C136 C135 1.408 . S
C136 H163 0.930 . S
C137 O150 1.281 . S
C137 O151 1.254 . S
C138 O152 1.236 . S
C138 O153 1.266 . S
C139 Tb129 2.809 1_566 S
C139 C140 1.514 . S
C139 O154 1.248 1_556 S
C139 O155 1.251 1_565 S
C140 C139 1.514 . S
C140 C141 1.359 . S
C140 C145 1.348 . S
C141 C140 1.359 . S
C141 C142 1.380 . S
C141 H164 0.929 . S
C142 C141 1.380 . S
C142 C143 1.347 . S
C142 H165 0.931 . S
C143 C142 1.347 . S
C143 C144 1.369 . S
C144 C143 1.369 . S
C144 C145 1.408 . S
C144 H166 0.930 . S
C145 C140 1.348 . S
C145 C144 1.408 . S
C145 H167 0.930 . S
C146 O156 1.281 . S
C146 O157 1.254 1_554 S
C147 O158 1.236 1_565 S
C147 O159 1.266 1_565 S
O148 Tb128 2.484 . S
O148 C130 1.248 . S
O149 Tb128 2.440 . S
O149 C130 1.266 . S
O150 Tb128 2.658 1_565 S
O150 Tb129 2.325 1_565 S
O150 C137 1.281 . S
O151 Tb128 2.409 1_565 S
O151 C137 1.254 . S
O152 Tb128 2.378 . S
O152 C138 1.236 . S
O153 Tb129 2.341 . S
O153 C138 1.266 . S
O154 Tb129 2.484 1_565 S
O154 C139 1.248 1_554 S
O155 Tb129 2.444 1_556 S
O155 C139 1.251 1_545 S
O156 Tb128 2.325 . S
O156 Tb129 2.658 . S
O156 C146 1.281 . S
O157 Tb129 2.409 1_556 S
O157 C146 1.254 1_556 S
O158 Tb129 2.378 . S
O158 C147 1.236 1_545 S
O159 Tb128 2.341 . S
O159 C147 1.266 1_545 S
H160 C132 0.929 . S
H161 C133 0.931 . S
H162 C135 0.930 . S
H163 C136 0.930 . S
H164 C141 0.929 . S
H165 C142 0.931 . S
H166 C144 0.930 . S
H167 C145 0.930 . S
Tb168 C170 2.809 . S
Tb168 O188 2.484 . S
Tb168 O189 2.440 . S
Tb168 O190 2.658 . S
Tb168 O191 2.409 . S
Tb168 O192 2.378 . S
Tb168 O196 2.325 . S
Tb168 O199 2.341 . S
Tb169 C179 2.809 . S
Tb169 O190 2.325 . S
Tb169 O193 2.341 . S
Tb169 O194 2.484 . S
Tb169 O195 2.440 . S
Tb169 O196 2.658 . S
Tb169 O197 2.409 . S
Tb169 O198 2.378 . S
C170 Tb168 2.809 . S
C170 C171 1.514 . S
C170 O188 1.248 . S
C170 O189 1.266 . S
C171 C170 1.514 . S
C171 C172 1.359 . S
C171 C176 1.348 . S
C172 C171 1.359 . S
C172 C173 1.380 . S
C172 H200 0.929 . S
C173 C172 1.380 . S
C173 C174 1.347 . S
C173 H201 0.931 . S
C174 C173 1.347 . S
C174 C175 1.369 . S
C175 C174 1.369 . S
C175 C176 1.408 . S
C175 H202 0.930 . S
C176 C171 1.348 . S
C176 C175 1.408 . S
C176 H203 0.930 . S
C177 O190 1.281 . S
C177 O191 1.254 . S
C178 O192 1.236 . S
C178 O193 1.266 . S
C179 Tb169 2.809 . S
C179 C180 1.514 . S
C179 O194 1.248 . S
C179 O195 1.266 . S
C180 C179 1.514 . S
C180 C181 1.359 . S
C180 C185 1.348 . S
C181 C180 1.359 . S
C181 C182 1.380 . S
C181 H204 0.929 . S
C182 C181 1.380 . S
C182 C183 1.347 . S
C182 H205 0.931 . S
C183 C182 1.347 . S
C183 C184 1.369 . S
C184 C183 1.369 . S
C184 C185 1.408 . S
C184 H206 0.930 . S
C185 C180 1.348 . S
C185 C184 1.408 . S
C185 H207 0.930 . S
C186 O196 1.281 . S
C186 O197 1.254 . S
C187 O198 1.236 . S
C187 O199 1.266 . S
O188 Tb168 2.484 . S
O188 C170 1.248 . S
O189 Tb168 2.440 . S
O189 C170 1.266 . S
O190 Tb168 2.658 . S
O190 Tb169 2.325 . S
O190 C177 1.281 . S
O191 Tb168 2.409 . S
O191 C177 1.254 . S
O192 Tb168 2.378 . S
O192 C178 1.236 . S
O193 Tb169 2.341 . S
O193 C178 1.266 . S
O194 Tb169 2.484 . S
O194 C179 1.248 . S
O195 Tb169 2.440 . S
O195 C179 1.266 . S
O196 Tb168 2.325 . S
O196 Tb169 2.658 . S
O196 C186 1.281 . S
O197 Tb169 2.409 . S
O197 C186 1.254 . S
O198 Tb169 2.378 . S
O198 C187 1.236 . S
O199 Tb168 2.341 . S
O199 C187 1.266 . S
H200 C172 0.929 . S
H201 C173 0.931 . S
H202 C175 0.930 . S
H203 C176 0.930 . S
H204 C181 0.929 . S
H205 C182 0.931 . S
H206 C184 0.930 . S
H207 C185 0.930 . S
Tb208 C210 2.809 1_455 S
Tb208 O228 2.484 1_455 S
Tb208 O229 2.440 . S
Tb208 O230 2.658 1_556 S
Tb208 O231 2.409 1_556 S
Tb208 O232 2.378 1_556 S
Tb208 O236 2.315 1_455 S
Tb208 O239 2.341 . S
Tb209 C219 2.809 . S
Tb209 O230 2.325 . S
Tb209 O233 2.341 . S
Tb209 O234 2.484 . S
Tb209 O235 2.440 . S
Tb209 O236 2.640 1_454 S
Tb209 O237 2.409 1_455 S
Tb209 O238 2.378 1_554 S
C210 Tb208 2.809 1_655 S
C210 C211 1.514 . S
C210 O228 1.248 . S
C210 O229 1.266 1_655 S
C211 C210 1.514 . S
C211 C212 1.359 . S
C211 C216 1.348 . S
C212 C211 1.359 . S
C212 C213 1.380 . S
C212 H240 0.929 . S
C213 C212 1.380 . S
C213 C214 1.347 . S
C213 H241 0.931 . S
C214 C213 1.347 . S
C214 C215 1.369 . S
C215 C214 1.369 . S
C215 C216 1.408 . S
C215 H242 0.930 . S
C216 C211 1.348 . S
C216 C215 1.408 . S
C216 H243 0.930 1_655 S
C217 O230 1.281 . S
C217 O231 1.254 . S
C218 O232 1.236 1_655 S
C218 O233 1.266 1_655 S
C219 Tb209 2.809 . S
C219 C220 1.514 . S
C219 O234 1.248 . S
C219 O235 1.266 . S
C220 C219 1.514 . S
C220 C221 1.359 . S
C220 C225 1.348 . S
C221 C220 1.359 . S
C221 C222 1.380 . S
C221 H244 0.929 . S
C222 C221 1.380 . S
C222 C223 1.347 . S
C222 H245 0.931 . S
C223 C222 1.347 . S
C223 C224 1.369 . S
C224 C223 1.369 . S
C224 C225 1.408 . S
C224 H246 0.930 . S
C225 C220 1.348 . S
C225 C224 1.408 . S
C225 H247 0.930 . S
C226 O236 1.289 . S
C226 O237 1.254 1_556 S
C227 O238 1.236 . S
C227 O239 1.266 . S
O228 Tb208 2.484 1_655 S
O228 C210 1.248 . S
O229 Tb208 2.440 . S
O229 C210 1.266 1_455 S
O230 Tb208 2.658 1_554 S
O230 Tb209 2.325 . S
O230 C217 1.281 . S
O231 Tb208 2.409 1_554 S
O231 C217 1.254 . S
O232 Tb208 2.378 1_554 S
O232 C218 1.236 1_455 S
O233 Tb209 2.341 . S
O233 C218 1.266 1_455 S
O234 Tb209 2.484 . S
O234 C219 1.248 . S
O235 Tb209 2.440 . S
O235 C219 1.266 . S
O236 Tb208 2.315 1_655 S
O236 Tb209 2.640 1_656 S
O236 C226 1.289 . S
O237 Tb209 2.409 1_655 S
O237 C226 1.254 1_554 S
O238 Tb209 2.378 1_556 S
O238 C227 1.236 . S
O239 Tb208 2.341 . S
O239 C227 1.266 . S
H240 C212 0.929 . S
H241 C213 0.931 . S
H242 C215 0.930 . S
H243 C216 0.930 1_455 S
H244 C221 0.929 . S
H245 C222 0.931 . S
H246 C224 0.930 . S
H247 C225 0.930 . S
H248 C256 0.950 . S
H249 C261 0.950 . S
H250 C258 0.950 . S
H251 C260 0.950 . S
H252 C262 0.950 . S
H253 C264 0.950 . S
H254 C266 0.950 . S
H255 C267 0.950 . S
C256 H248 0.950 . S
C256 C257 1.386 . S
C256 C258 1.391 . S
C257 C256 1.386 . S
C257 C261 1.393 . S
C258 H250 0.950 . S
C258 C256 1.391 . S
C258 C259 1.400 . S
C259 C258 1.400 . S
C259 C260 1.398 . S
C259 C265 1.491 . S
C260 H251 0.950 . S
C260 C259 1.398 . S
C260 C261 1.391 . S
C261 H249 0.950 . S
C261 C257 1.393 . S
C261 C260 1.391 . S
C262 H252 0.950 . S
C262 C263 1.386 . S
C262 C264 1.391 . S
C263 C262 1.386 . S
C263 C267 1.393 . S
C264 H253 0.950 . S
C264 C262 1.391 . S
C264 C265 1.400 . S
C265 C259 1.491 . S
C265 C264 1.400 . S
C265 C266 1.398 . S
C266 H254 0.950 . S
C266 C265 1.398 . S
C266 C267 1.391 . S
C267 H255 0.950 . S
C267 C263 1.393 . S
C267 C266 1.391 . S
H268 C276 0.950 . S
H269 C281 0.950 . S
H270 C278 0.950 . S
H271 C280 0.950 . S
H272 C282 0.950 . S
H273 C284 0.950 . S
H274 C286 0.950 . S
H275 C287 0.950 . S
C276 H268 0.950 . S
C276 C277 1.386 . S
C276 C278 1.391 . S
C277 C276 1.386 . S
C277 C281 1.393 . S
C278 H270 0.950 . S
C278 C276 1.391 . S
C278 C279 1.400 . S
C279 C278 1.400 . S
C279 C280 1.398 . S
C279 C285 1.491 . S
C280 H271 0.950 . S
C280 C279 1.398 . S
C280 C281 1.391 . S
C281 H269 0.950 . S
C281 C277 1.393 . S
C281 C280 1.391 . S
C282 H272 0.950 . S
C282 C283 1.386 . S
C282 C284 1.391 . S
C283 C282 1.386 . S
C283 C287 1.393 . S
C284 H273 0.950 . S
C284 C282 1.391 . S
C284 C285 1.400 . S
C285 C279 1.491 . S
C285 C284 1.400 . S
C285 C286 1.398 . S
C286 H274 0.950 . S
C286 C285 1.398 . S
C286 C287 1.391 . S
C287 H275 0.950 . S
C287 C283 1.393 . S
C287 C286 1.391 . S
H288 C296 0.950 . S
H289 C301 0.950 . S
H290 C298 0.950 . S
H291 C300 0.950 . S
H292 C302 0.950 . S
H293 C304 0.950 . S
H294 C306 0.950 . S
H295 C307 0.950 . S
C296 H288 0.950 . S
C296 C297 1.386 . S
C296 C298 1.391 . S
C297 C296 1.386 . S
C297 C301 1.393 . S
C298 H290 0.950 . S
C298 C296 1.391 . S
C298 C299 1.400 . S
C299 C298 1.400 . S
C299 C300 1.398 . S
C299 C305 1.491 . S
C300 H291 0.950 . S
C300 C299 1.398 . S
C300 C301 1.391 . S
C301 H289 0.950 . S
C301 C297 1.393 . S
C301 C300 1.391 . S
C302 H292 0.950 . S
C302 C303 1.386 . S
C302 C304 1.391 . S
C303 C302 1.386 . S
C303 C307 1.393 . S
C304 H293 0.950 . S
C304 C302 1.391 . S
C304 C305 1.400 . S
C305 C299 1.491 . S
C305 C304 1.400 . S
C305 C306 1.398 . S
C306 H294 0.950 . S
C306 C305 1.398 . S
C306 C307 1.391 . S
C307 H295 0.950 . S
C307 C303 1.393 . S
C307 C306 1.391 . S
H308 C316 0.950 . S
H309 C321 0.950 . S
H310 C318 0.950 . S
H311 C320 0.950 . S
H312 C322 0.950 1_455 S
H313 C324 0.950 . S
H314 C326 0.950 . S
H315 C327 0.950 . S
C316 H308 0.950 . S
C316 C317 1.386 . S
C316 C318 1.391 . S
C317 C316 1.386 . S
C317 C321 1.393 . S
C318 H310 0.950 . S
C318 C316 1.391 . S
C318 C319 1.400 . S
C319 C318 1.400 . S
C319 C320 1.398 . S
C319 C325 1.491 . S
C320 H311 0.950 . S
C320 C319 1.398 . S
C320 C321 1.391 . S
C321 H309 0.950 . S
C321 C317 1.393 . S
C321 C320 1.391 . S
C322 H312 0.950 1_655 S
C322 C323 1.386 . S
C322 C324 1.391 . S
C323 C322 1.386 . S
C323 C327 1.393 . S
C324 H313 0.950 . S
C324 C322 1.391 . S
C324 C325 1.400 . S
C325 C319 1.491 . S
C325 C324 1.400 . S
C325 C326 1.398 . S
C326 H314 0.950 . S
C326 C325 1.398 . S
C326 C327 1.391 . S
C327 H315 0.950 . S
C327 C323 1.393 . S
C327 C326 1.391 . S
H328 C336 0.950 . S
H329 C341 0.950 . S
H330 C338 0.950 . S
H331 C340 0.950 . S
H332 C342 0.950 . S
H333 C344 0.950 . S
H334 C346 0.950 . S
H335 C347 0.950 . S
C336 H328 0.950 . S
C336 C337 1.386 . S
C336 C338 1.391 . S
C337 C336 1.386 . S
C337 C341 1.393 . S
C338 H330 0.950 . S
C338 C336 1.391 . S
C338 C339 1.400 . S
C339 C338 1.400 . S
C339 C340 1.398 . S
C339 C345 1.491 . S
C340 H331 0.950 . S
C340 C339 1.398 . S
C340 C341 1.391 . S
C341 H329 0.950 . S
C341 C337 1.393 . S
C341 C340 1.391 . S
C342 H332 0.950 . S
C342 C343 1.386 . S
C342 C344 1.391 . S
C343 C342 1.386 . S
C343 C347 1.393 . S
C344 H333 0.950 . S
C344 C342 1.391 . S
C344 C345 1.400 . S
C345 C339 1.491 . S
C345 C344 1.400 . S
C345 C346 1.398 . S
C346 H334 0.950 . S
C346 C345 1.398 . S
C346 C347 1.391 . S
C347 H335 0.950 . S
C347 C343 1.393 . S
C347 C346 1.391 . S
H348 C356 0.950 . S
H349 C361 0.950 . S
H350 C358 0.950 . S
H351 C360 0.950 . S
H352 C362 0.950 . S
H353 C364 0.950 . S
H354 C366 0.950 . S
H355 C367 0.950 . S
C356 H348 0.950 . S
C356 C357 1.386 . S
C356 C358 1.391 . S
C357 C356 1.386 . S
C357 C361 1.393 . S
C358 H350 0.950 . S
C358 C356 1.391 . S
C358 C359 1.400 . S
C359 C358 1.400 . S
C359 C360 1.398 . S
C359 C365 1.491 . S
C360 H351 0.950 . S
C360 C359 1.398 . S
C360 C361 1.391 . S
C361 H349 0.950 . S
C361 C357 1.393 . S
C361 C360 1.391 . S
C362 H352 0.950 . S
C362 C363 1.386 . S
C362 C364 1.391 . S
C363 C362 1.386 . S
C363 C367 1.393 . S
C364 H353 0.950 . S
C364 C362 1.391 . S
C364 C365 1.400 . S
C365 C359 1.491 . S
C365 C364 1.400 . S
C365 C366 1.398 . S
C366 H354 0.950 . S
C366 C365 1.398 . S
C366 C367 1.391 . S
C367 H355 0.950 . S
C367 C363 1.393 . S
C367 C366 1.391 . S
H368 C376 0.950 . S
H369 C381 0.950 . S
H370 C378 0.950 . S
H371 C380 0.950 . S
H372 C382 0.950 . S
H373 C384 0.950 . S
H374 C386 0.950 . S
H375 C387 0.950 . S
C376 H368 0.950 . S
C376 C377 1.386 . S
C376 C378 1.391 . S
C377 C376 1.386 . S
C377 C381 1.393 . S
C378 H370 0.950 . S
C378 C376 1.391 . S
C378 C379 1.400 . S
C379 C378 1.400 . S
C379 C380 1.398 . S
C379 C385 1.491 . S
C380 H371 0.950 . S
C380 C379 1.398 . S
C380 C381 1.391 . S
C381 H369 0.950 . S
C381 C377 1.393 . S
C381 C380 1.391 . S
C382 H372 0.950 . S
C382 C383 1.386 . S
C382 C384 1.391 . S
C383 C382 1.386 . S
C383 C387 1.393 . S
C384 H373 0.950 . S
C384 C382 1.391 . S
C384 C385 1.400 . S
C385 C379 1.491 . S
C385 C384 1.400 . S
C385 C386 1.398 . S
C386 H374 0.950 . S
C386 C385 1.398 . S
C386 C387 1.391 . S
C387 H375 0.950 . S
C387 C383 1.393 . S
C387 C386 1.391 . S
H388 C396 0.950 . S
H389 C401 0.950 . S
H390 C398 0.950 . S
H391 C400 0.950 . S
H392 C402 0.950 . S
H393 C404 0.950 . S
H394 C406 0.950 . S
H395 C407 0.950 . S
C396 H388 0.950 . S
C396 C397 1.386 . S
C396 C398 1.391 . S
C397 C396 1.386 . S
C397 C401 1.393 . S
C398 H390 0.950 . S
C398 C396 1.391 . S
C398 C399 1.400 . S
C399 C398 1.400 . S
C399 C400 1.398 . S
C399 C405 1.491 . S
C400 H391 0.950 . S
C400 C399 1.398 . S
C400 C401 1.391 . S
C401 H389 0.950 . S
C401 C397 1.393 . S
C401 C400 1.391 . S
C402 H392 0.950 . S
C402 C403 1.386 . S
C402 C404 1.391 . S
C403 C402 1.386 . S
C403 C407 1.393 . S
C404 H393 0.950 . S
C404 C402 1.391 . S
C404 C405 1.400 . S
C405 C399 1.491 . S
C405 C404 1.400 . S
C405 C406 1.398 . S
C406 H394 0.950 . S
C406 C405 1.398 . S
C406 C407 1.391 . S
C407 H395 0.950 . S
C407 C403 1.393 . S
C407 C406 1.391 . S
H408 C416 0.950 . S
H409 C421 0.950 . S
H410 C418 0.950 . S
H411 C420 0.950 . S
H412 C422 0.950 . S
H413 C424 0.950 . S
H414 C426 0.950 . S
H415 C427 0.950 . S
C416 H408 0.950 . S
C416 C417 1.386 . S
C416 C418 1.391 . S
C417 C416 1.386 . S
C417 C421 1.393 . S
C418 H410 0.950 . S
C418 C416 1.391 . S
C418 C419 1.400 . S
C419 C418 1.400 . S
C419 C420 1.398 . S
C419 C425 1.491 . S
C420 H411 0.950 . S
C420 C419 1.398 . S
C420 C421 1.391 . S
C421 H409 0.950 . S
C421 C417 1.393 . S
C421 C420 1.391 . S
C422 H412 0.950 . S
C422 C423 1.386 . S
C422 C424 1.391 . S
C423 C422 1.386 . S
C423 C427 1.393 . S
C424 H413 0.950 . S
C424 C422 1.391 . S
C424 C425 1.400 . S
C425 C419 1.491 . S
C425 C424 1.400 . S
C425 C426 1.398 . S
C426 H414 0.950 . S
C426 C425 1.398 . S
C426 C427 1.391 . S
C427 H415 0.950 . S
C427 C423 1.393 . S
C427 C426 1.391 . S
H428 C436 0.950 . S
H429 C441 0.950 . S
H430 C438 0.950 . S
H431 C440 0.950 . S
H432 C442 0.950 1_554 S
H433 C444 0.950 . S
H434 C446 0.950 . S
H435 C447 0.950 . S
C436 H428 0.950 . S
C436 C437 1.386 . S
C436 C438 1.391 . S
C437 C436 1.386 . S
C437 C441 1.393 . S
C438 H430 0.950 . S
C438 C436 1.391 . S
C438 C439 1.400 . S
C439 C438 1.400 . S
C439 C440 1.398 . S
C439 C445 1.491 . S
C440 H431 0.950 . S
C440 C439 1.398 . S
C440 C441 1.391 . S
C441 H429 0.950 . S
C441 C437 1.393 . S
C441 C440 1.391 . S
C442 H432 0.950 1_556 S
C442 C443 1.386 . S
C442 C444 1.391 . S
C443 C442 1.386 . S
C443 C447 1.393 . S
C444 H433 0.950 . S
C444 C442 1.391 . S
C444 C445 1.400 . S
C445 C439 1.491 . S
C445 C444 1.400 . S
C445 C446 1.398 . S
C446 H434 0.950 . S
C446 C445 1.398 . S
C446 C447 1.391 . S
C447 H435 0.950 . S
C447 C443 1.393 . S
C447 C446 1.391 . S
H448 C456 0.950 . S
H449 C461 0.950 . S
H450 C458 0.950 . S
H451 C460 0.950 . S
H452 C462 0.964 . S
H453 C464 0.950 . S
H454 C466 0.950 . S
H455 C467 0.950 . S
C456 H448 0.950 . S
C456 C457 1.386 . S
C456 C458 1.391 . S
C457 C456 1.386 . S
C457 C461 1.393 . S
C458 H450 0.950 . S
C458 C456 1.391 . S
C458 C459 1.400 . S
C459 C458 1.400 . S
C459 C460 1.398 . S
C459 C465 1.491 . S
C460 H451 0.950 . S
C460 C459 1.398 . S
C460 C461 1.391 . S
C461 H449 0.950 . S
C461 C457 1.393 . S
C461 C460 1.391 . S
C462 H452 0.964 . S
C462 C463 1.386 . S
C462 C464 1.391 . S
C463 C462 1.386 . S
C463 C467 1.393 . S
C464 H453 0.950 . S
C464 C462 1.391 . S
C464 C465 1.400 . S
C465 C459 1.491 . S
C465 C464 1.400 . S
C465 C466 1.398 . S
C466 H454 0.950 . S
C466 C465 1.398 . S
C466 C467 1.391 . S
C467 H455 0.950 . S
C467 C463 1.393 . S
C467 C466 1.391 . S
H468 C476 0.950 . S
H469 C481 0.950 . S
H470 C478 0.950 . S
H471 C480 0.950 . S
H472 C482 0.950 . S
H473 C484 0.950 . S
H474 C486 0.950 . S
H475 C487 0.950 . S
C476 H468 0.950 . S
C476 C477 1.386 . S
C476 C478 1.391 . S
C477 C476 1.386 . S
C477 C481 1.393 . S
C478 H470 0.950 . S
C478 C476 1.391 . S
C478 C479 1.400 . S
C479 C478 1.400 . S
C479 C480 1.398 . S
C479 C485 1.491 . S
C480 H471 0.950 . S
C480 C479 1.398 . S
C480 C481 1.391 . S
C481 H469 0.950 . S
C481 C477 1.393 . S
C481 C480 1.391 . S
C482 H472 0.950 . S
C482 C483 1.386 . S
C482 C484 1.391 . S
C483 C482 1.386 . S
C483 C487 1.393 . S
C484 H473 0.950 . S
C484 C482 1.391 . S
C484 C485 1.400 . S
C485 C479 1.491 . S
C485 C484 1.400 . S
C485 C486 1.398 . S
C486 H474 0.950 . S
C486 C485 1.398 . S
C486 C487 1.391 . S
C487 H475 0.950 . S
C487 C483 1.393 . S
C487 C486 1.391 . S
H488 C496 0.950 . S
H489 C501 0.950 . S
H490 C498 0.950 . S
H491 C500 0.950 . S
H492 C502 0.950 . S
H493 C504 0.950 . S
H494 C506 0.950 . S
H495 C507 0.950 . S
C496 H488 0.950 . S
C496 C497 1.386 . S
C496 C498 1.391 . S
C497 C496 1.386 . S
C497 C501 1.393 . S
C498 H490 0.950 . S
C498 C496 1.391 . S
C498 C499 1.400 . S
C499 C498 1.400 . S
C499 C500 1.398 . S
C499 C505 1.491 . S
C500 H491 0.950 . S
C500 C499 1.398 . S
C500 C501 1.391 . S
C501 H489 0.950 . S
C501 C497 1.393 . S
C501 C500 1.391 . S
C502 H492 0.950 . S
C502 C503 1.386 . S
C502 C504 1.391 . S
C503 C502 1.386 . S
C503 C507 1.393 . S
C504 H493 0.950 . S
C504 C502 1.391 . S
C504 C505 1.400 . S
C505 C499 1.491 . S
C505 C504 1.400 . S
C505 C506 1.398 . S
C506 H494 0.950 . S
C506 C505 1.398 . S
C506 C507 1.391 . S
C507 H495 0.950 . S
C507 C503 1.393 . S
C507 C506 1.391 . S
H508 C516 0.950 . S
H509 C521 0.950 . S
H510 C518 0.950 . S
H511 C520 0.950 . S
H512 C522 0.950 . S
H513 C524 0.950 . S
H514 C526 0.950 . S
H515 C527 0.950 . S
C516 H508 0.950 . S
C516 C517 1.386 . S
C516 C518 1.391 . S
C517 C516 1.386 . S
C517 C521 1.393 . S
C518 H510 0.950 . S
C518 C516 1.391 . S
C518 C519 1.400 . S
C519 C518 1.400 . S
C519 C520 1.398 . S
C519 C525 1.491 . S
C520 H511 0.950 . S
C520 C519 1.398 . S
C520 C521 1.391 . S
C521 H509 0.950 . S
C521 C517 1.393 . S
C521 C520 1.391 . S
C522 H512 0.950 . S
C522 C523 1.386 . S
C522 C524 1.391 . S
C523 C522 1.386 . S
C523 C527 1.393 . S
C524 H513 0.950 . S
C524 C522 1.391 . S
C524 C525 1.400 . S
C525 C519 1.491 . S
C525 C524 1.400 . S
C525 C526 1.398 . S
C526 H514 0.950 . S
C526 C525 1.398 . S
C526 C527 1.391 . S
C527 H515 0.950 . S
C527 C523 1.393 . S
C527 C526 1.391 . S
H528 C536 0.950 . S
H529 C541 0.950 . S
H530 C538 0.950 . S
H531 C540 0.950 . S
H532 C542 0.950 . S
H533 C544 0.950 . S
H534 C546 0.950 . S
H535 C547 0.950 . S
C536 H528 0.950 . S
C536 C537 1.386 . S
C536 C538 1.391 . S
C537 C536 1.386 . S
C537 C541 1.393 . S
C538 H530 0.950 . S
C538 C536 1.391 . S
C538 C539 1.400 . S
C539 C538 1.400 . S
C539 C540 1.398 . S
C539 C545 1.491 . S
C540 H531 0.950 . S
C540 C539 1.398 . S
C540 C541 1.391 . S
C541 H529 0.950 . S
C541 C537 1.393 . S
C541 C540 1.391 . S
C542 H532 0.950 . S
C542 C543 1.386 . S
C542 C544 1.391 . S
C543 C542 1.386 . S
C543 C547 1.393 . S
C544 H533 0.950 . S
C544 C542 1.391 . S
C544 C545 1.400 . S
C545 C539 1.491 . S
C545 C544 1.400 . S
C545 C546 1.398 . S
C546 H534 0.950 . S
C546 C545 1.398 . S
C546 C547 1.391 . S
C547 H535 0.950 . S
C547 C543 1.393 . S
C547 C546 1.391 . S
H548 C556 0.950 . S
H549 C561 0.950 . S
H550 C558 0.950 . S
H551 C560 0.950 . S
H552 C562 0.950 . S
H553 C564 0.950 . S
H554 C566 0.950 . S
H555 C567 0.950 . S
C556 H548 0.950 . S
C556 C557 1.386 . S
C556 C558 1.391 . S
C557 C556 1.386 . S
C557 C561 1.393 . S
C558 H550 0.950 . S
C558 C556 1.391 . S
C558 C559 1.400 . S
C559 C558 1.400 . S
C559 C560 1.398 . S
C559 C565 1.491 . S
C560 H551 0.950 . S
C560 C559 1.398 . S
C560 C561 1.391 . S
C561 H549 0.950 . S
C561 C557 1.393 . S
C561 C560 1.391 . S
C562 H552 0.950 . S
C562 C563 1.386 . S
C562 C564 1.391 . S
C563 C562 1.386 . S
C563 C567 1.393 . S
C564 H553 0.950 . S
C564 C562 1.391 . S
C564 C565 1.400 . S
C565 C559 1.491 . S
C565 C564 1.400 . S
C565 C566 1.398 . S
C566 H554 0.950 . S
C566 C565 1.398 . S
C566 C567 1.391 . S
C567 H555 0.950 . S
C567 C563 1.393 . S
C567 C566 1.391 . S
H568 C576 0.950 . S
H569 C581 0.950 . S
H570 C578 0.950 . S
H571 C580 0.950 . S
H572 C582 0.950 1_554 S
H573 C584 0.950 . S
H574 C586 0.950 . S
H575 C587 0.950 . S
C576 H568 0.950 . S
C576 C577 1.386 . S
C576 C578 1.391 . S
C577 C576 1.386 . S
C577 C581 1.393 . S
C578 H570 0.950 . S
C578 C576 1.391 . S
C578 C579 1.400 . S
C579 C578 1.400 . S
C579 C580 1.398 . S
C579 C585 1.491 . S
C580 H571 0.950 . S
C580 C579 1.398 . S
C580 C581 1.391 . S
C581 H569 0.950 . S
C581 C577 1.393 . S
C581 C580 1.391 . S
C582 H572 0.950 1_556 S
C582 C583 1.391 . S
C582 C584 1.391 . S
C583 C582 1.391 . S
C583 C587 1.407 . S
C584 H573 0.950 . S
C584 C582 1.391 . S
C584 C585 1.400 . S
C585 C579 1.491 . S
C585 C584 1.400 . S
C585 C586 1.398 . S
C586 H574 0.950 . S
C586 C585 1.398 . S
C586 C587 1.391 . S
C587 H575 0.950 . S
C587 C583 1.407 . S
C587 C586 1.391 . S
H588 C596 0.950 . S
H589 C601 0.950 . S
H590 C598 0.950 . S
H591 C600 0.950 . S
H592 C602 0.950 1_455 S
H593 C604 0.950 . S
H594 C606 0.950 . S
H595 C607 0.950 . S
C596 H588 0.950 . S
C596 C597 1.386 . S
C596 C598 1.391 . S
C597 C596 1.386 . S
C597 C601 1.393 . S
C598 H590 0.950 . S
C598 C596 1.391 . S
C598 C599 1.400 . S
C599 C598 1.400 . S
C599 C600 1.398 . S
C599 C605 1.491 . S
C600 H591 0.950 . S
C600 C599 1.398 . S
C600 C601 1.391 . S
C601 H589 0.950 . S
C601 C597 1.393 . S
C601 C600 1.391 . S
C602 H592 0.950 1_655 S
C602 C603 1.386 . S
C602 C604 1.391 . S
C603 C602 1.386 . S
C603 C607 1.393 . S
C604 H593 0.950 . S
C604 C602 1.391 . S
C604 C605 1.400 . S
C605 C599 1.491 . S
C605 C604 1.400 . S
C605 C606 1.398 . S
C606 H594 0.950 . S
C606 C605 1.398 . S
C606 C607 1.391 . S
C607 H595 0.950 . S
C607 C603 1.393 . S
C607 C606 1.391 . S
H608 C616 0.950 . S
H609 C621 0.950 . S
H610 C618 0.950 . S
H611 C620 0.950 . S
H612 C622 0.950 . S
H613 C624 0.950 . S
H614 C626 0.950 . S
H615 C627 0.950 . S
C616 H608 0.950 . S
C616 C617 1.386 . S
C616 C618 1.391 . S
C617 C616 1.386 . S
C617 C621 1.393 . S
C618 H610 0.950 . S
C618 C616 1.391 . S
C618 C619 1.400 . S
C619 C618 1.400 . S
C619 C620 1.398 . S
C619 C625 1.491 . S
C620 H611 0.950 . S
C620 C619 1.398 . S
C620 C621 1.391 . S
C621 H609 0.950 . S
C621 C617 1.393 . S
C621 C620 1.391 . S
C622 H612 0.950 . S
C622 C623 1.386 . S
C622 C624 1.391 . S
C623 C622 1.386 . S
C623 C627 1.393 . S
C624 H613 0.950 . S
C624 C622 1.391 . S
C624 C625 1.400 . S
C625 C619 1.491 . S
C625 C624 1.400 . S
C625 C626 1.398 . S
C626 H614 0.950 . S
C626 C625 1.398 . S
C626 C627 1.391 . S
C627 H615 0.950 . S
C627 C623 1.393 . S
C627 C626 1.391 . S
H628 C636 0.950 . S
H629 C641 0.950 . S
H630 C638 0.950 . S
H631 C640 0.950 . S
H632 C642 0.950 . S
H633 C644 0.950 . S
H634 C646 0.950 . S
H635 C647 0.950 . S
C636 H628 0.950 . S
C636 C637 1.386 . S
C636 C638 1.391 . S
C637 C636 1.386 . S
C637 C641 1.393 . S
C638 H630 0.950 . S
C638 C636 1.391 . S
C638 C639 1.400 . S
C639 C638 1.400 . S
C639 C640 1.398 . S
C639 C645 1.491 . S
C640 H631 0.950 . S
C640 C639 1.398 . S
C640 C641 1.391 . S
C641 H629 0.950 . S
C641 C637 1.393 . S
C641 C640 1.391 . S
C642 H632 0.950 . S
C642 C643 1.386 . S
C642 C644 1.391 . S
C643 C642 1.386 . S
C643 C647 1.393 . S
C644 H633 0.950 . S
C644 C642 1.391 . S
C644 C645 1.400 . S
C645 C639 1.491 . S
C645 C644 1.400 . S
C645 C646 1.398 . S
C646 H634 0.950 . S
C646 C645 1.398 . S
C646 C647 1.391 . S
C647 H635 0.950 . S
C647 C643 1.393 . S
C647 C646 1.391 . S
H648 C656 0.950 . S
H649 C661 0.950 . S
H650 C658 0.950 . S
H651 C660 0.950 . S
H652 C662 0.950 . S
H653 C664 0.950 . S
H654 C666 0.950 . S
H655 C667 0.950 . S
C656 H648 0.950 . S
C656 C657 1.386 . S
C656 C658 1.391 . S
C657 C656 1.386 . S
C657 C661 1.393 . S
C658 H650 0.950 . S
C658 C656 1.391 . S
C658 C659 1.400 . S
C659 C658 1.400 . S
C659 C660 1.398 . S
C659 C665 1.491 . S
C660 H651 0.950 . S
C660 C659 1.398 . S
C660 C661 1.391 . S
C661 H649 0.950 . S
C661 C657 1.393 . S
C661 C660 1.391 . S
C662 H652 0.950 . S
C662 C663 1.386 . S
C662 C664 1.391 . S
C663 C662 1.386 . S
C663 C667 1.393 . S
C664 H653 0.950 . S
C664 C662 1.391 . S
C664 C665 1.400 . S
C665 C659 1.491 . S
C665 C664 1.400 . S
C665 C666 1.398 . S
C666 H654 0.950 . S
C666 C665 1.398 . S
C666 C667 1.391 . S
C667 H655 0.950 . S
C667 C663 1.393 . S
C667 C666 1.391 . S
H668 C676 0.950 . S
H669 C681 0.950 . S
H670 C678 0.950 . S
H671 C680 0.950 . S
H672 C682 0.950 . S
H673 C684 0.950 . S
H674 C686 0.950 . S
H675 C687 0.950 . S
C676 H668 0.950 . S
C676 C677 1.386 . S
C676 C678 1.391 . S
C677 C676 1.386 . S
C677 C681 1.393 . S
C678 H670 0.950 . S
C678 C676 1.391 . S
C678 C679 1.400 . S
C679 C678 1.400 . S
C679 C680 1.398 . S
C679 C685 1.491 . S
C680 H671 0.950 . S
C680 C679 1.398 . S
C680 C681 1.391 . S
C681 H669 0.950 . S
C681 C677 1.393 . S
C681 C680 1.391 . S
C682 H672 0.950 . S
C682 C683 1.386 . S
C682 C684 1.391 . S
C683 C682 1.386 . S
C683 C687 1.393 . S
C684 H673 0.950 . S
C684 C682 1.391 . S
C684 C685 1.400 . S
C685 C679 1.491 . S
C685 C684 1.400 . S
C685 C686 1.398 . S
C686 H674 0.950 . S
C686 C685 1.398 . S
C686 C687 1.391 . S
C687 H675 0.950 . S
C687 C683 1.393 . S
C687 C686 1.391 . S
H688 C696 0.950 . S
H689 C701 0.950 . S
H690 C698 0.950 . S
H691 C700 0.950 . S
H692 C702 0.950 . S
H693 C704 0.950 . S
H694 C706 0.950 . S
H695 C707 0.950 . S
C696 H688 0.950 . S
C696 C697 1.386 . S
C696 C698 1.391 . S
C697 C696 1.386 . S
C697 C701 1.393 . S
C698 H690 0.950 . S
C698 C696 1.391 . S
C698 C699 1.400 . S
C699 C698 1.400 . S
C699 C700 1.398 . S
C699 C705 1.491 . S
C700 H691 0.950 . S
C700 C699 1.398 . S
C700 C701 1.391 . S
C701 H689 0.950 . S
C701 C697 1.393 . S
C701 C700 1.391 . S
C702 H692 0.950 . S
C702 C703 1.386 . S
C702 C704 1.391 . S
C703 C702 1.386 . S
C703 C707 1.393 . S
C704 H693 0.950 . S
C704 C702 1.391 . S
C704 C705 1.400 . S
C705 C699 1.491 . S
C705 C704 1.400 . S
C705 C706 1.398 . S
C706 H694 0.950 . S
C706 C705 1.398 . S
C706 C707 1.391 . S
C707 H695 0.950 . S
C707 C703 1.393 . S
C707 C706 1.391 . S
H708 C716 0.950 . S
H709 C721 0.950 . S
H710 C718 0.950 . S
H711 C720 0.950 . S
H712 C722 0.950 . S
H713 C724 0.950 . S
H714 C726 0.950 . S
H715 C727 0.950 . S
C716 H708 0.950 . S
C716 C717 1.386 . S
C716 C718 1.391 . S
C717 C716 1.386 . S
C717 C721 1.393 . S
C718 H710 0.950 . S
C718 C716 1.391 . S
C718 C719 1.400 . S
C719 C718 1.400 . S
C719 C720 1.398 . S
C719 C725 1.491 . S
C720 H711 0.950 . S
C720 C719 1.398 . S
C720 C721 1.391 . S
C721 H709 0.950 . S
C721 C717 1.393 . S
C721 C720 1.391 . S
C722 H712 0.950 . S
C722 C723 1.386 . S
C722 C724 1.391 . S
C723 C722 1.386 . S
C723 C727 1.393 . S
C724 H713 0.950 . S
C724 C722 1.391 . S
C724 C725 1.400 . S
C725 C719 1.491 . S
C725 C724 1.400 . S
C725 C726 1.398 . S
C726 H714 0.950 . S
C726 C725 1.398 . S
C726 C727 1.391 . S
C727 H715 0.950 . S
C727 C723 1.393 . S
C727 C726 1.391 . S
C257 C4 1.283 . S
C263 C103 1.286 . S
C277 C16 1.220 . S
C283 C143 1.258 . S
C303 C177 1.922 . S
C297 C32 1.882 . S
C317 C43 2.545 . S
C323 C218 2.495 . S
C343 C138 1.917 . S
C337 C5 1.875 . S
C363 C98 1.729 . S
C357 C21 1.642 . S
C383 C226 1.483 . S
C377 C27 1.532 . S
C403 C187 1.739 . S
C397 C37 1.798 . S
C417 C10 1.221 . S
C423 C223 1.217 . S
C443 C146 2.193 1_556 S
C437 C26 2.266 . S
C457 C38 2.085 . S
C463 C106 2.047 . S
C477 C15 1.719 . S
C483 C174 1.763 . S
C503 C94 1.417 . S
C497 C48 1.419 . S
C517 C59 0.977 . S
C523 C134 0.997 . S
C537 C76 2.170 . S
C543 C186 2.136 . S
C557 C87 2.308 . S
C563 C227 2.250 . S
C577 C54 1.194 . S
C583 C147 1.208 1_556 S
C603 C107 2.397 . S
C597 C60 2.314 . S
C623 C217 1.563 . S
C617 C71 1.518 . S
C643 C178 1.706 . S
C637 C82 1.741 . S
C657 C49 1.649 . S
C663 C214 1.683 . S
C683 C137 1.643 . S
C677 C70 1.693 . S
C703 C97 2.466 . S
C697 C81 2.557 . S
C717 C65 1.395 . S
C723 C183 1.431 . S
