# Generated by pormake.
# Topology pyr, (3,6)-cn, num edge types: 1
# Building blocks:
#     Node 0, Type 0, BuildingBlock: BETDIP_clean_linker_0, # of connection points: 3
#     Node 1, Type 0, BuildingBlock: BETDIP_clean_linker_0, # of connection points: 3
#     Node 2, Type 0, BuildingBlock: BETDIP_clean_linker_0, # of connection points: 3
#     Node 3, Type 0, BuildingBlock: BETDIP_clean_linker_0, # of connection points: 3
#     Node 4, Type 0, BuildingBlock: BETDIP_clean_linker_0, # of connection points: 3
#     Node 5, Type 0, BuildingBlock: BETDIP_clean_linker_0, # of connection points: 3
#     Node 6, Type 0, BuildingBlock: BETDIP_clean_linker_0, # of connection points: 3
#     Node 7, Type 0, BuildingBlock: BETDIP_clean_linker_0, # of connection points: 3
#     Node 8, Type 1, BuildingBlock: BETGAK_clean_sbu_0, # of connection points: 6
#     Node 9, Type 1, BuildingBlock: BETGAK_clean_sbu_0, # of connection points: 6
#     Node 10, Type 1, BuildingBlock: BETGAK_clean_sbu_0, # of connection points: 6
#     Node 11, Type 1, BuildingBlock: BETGAK_clean_sbu_0, # of connection points: 6
#     Edge 12, Type (0, 1), BuildingBlock: TEMPAE_clean_linker_10, # of connection points: 2
#     Edge 13, Type (0, 1), BuildingBlock: TEMPAE_clean_linker_10, # of connection points: 2
#     Edge 14, Type (0, 1), BuildingBlock: TEMPAE_clean_linker_10, # of connection points: 2
#     Edge 15, Type (0, 1), BuildingBlock: TEMPAE_clean_linker_10, # of connection points: 2
#     Edge 16, Type (0, 1), BuildingBlock: TEMPAE_clean_linker_10, # of connection points: 2
#     Edge 17, Type (0, 1), BuildingBlock: TEMPAE_clean_linker_10, # of connection points: 2
#     Edge 18, Type (0, 1), BuildingBlock: TEMPAE_clean_linker_10, # of connection points: 2
#     Edge 19, Type (0, 1), BuildingBlock: TEMPAE_clean_linker_10, # of connection points: 2
#     Edge 20, Type (0, 1), BuildingBlock: TEMPAE_clean_linker_10, # of connection points: 2
#     Edge 21, Type (0, 1), BuildingBlock: TEMPAE_clean_linker_10, # of connection points: 2
#     Edge 22, Type (0, 1), BuildingBlock: TEMPAE_clean_linker_10, # of connection points: 2
#     Edge 23, Type (0, 1), BuildingBlock: TEMPAE_clean_linker_10, # of connection points: 2
#     Edge 24, Type (0, 1), BuildingBlock: TEMPAE_clean_linker_10, # of connection points: 2
#     Edge 25, Type (0, 1), BuildingBlock: TEMPAE_clean_linker_10, # of connection points: 2
#     Edge 26, Type (0, 1), BuildingBlock: TEMPAE_clean_linker_10, # of connection points: 2
#     Edge 27, Type (0, 1), BuildingBlock: TEMPAE_clean_linker_10, # of connection points: 2
#     Edge 28, Type (0, 1), BuildingBlock: TEMPAE_clean_linker_10, # of connection points: 2
#     Edge 29, Type (0, 1), BuildingBlock: TEMPAE_clean_linker_10, # of connection points: 2
#     Edge 30, Type (0, 1), BuildingBlock: TEMPAE_clean_linker_10, # of connection points: 2
#     Edge 31, Type (0, 1), BuildingBlock: TEMPAE_clean_linker_10, # of connection points: 2
#     Edge 32, Type (0, 1), BuildingBlock: TEMPAE_clean_linker_10, # of connection points: 2
#     Edge 33, Type (0, 1), BuildingBlock: TEMPAE_clean_linker_10, # of connection points: 2
#     Edge 34, Type (0, 1), BuildingBlock: TEMPAE_clean_linker_10, # of connection points: 2
#     Edge 35, Type (0, 1), BuildingBlock: TEMPAE_clean_linker_10, # of connection points: 2
# Relax obj value: 0.130
# Max RMSD: 0.168
# Mean RMSD: 0.137
data_MOF--net-pyr--node1-BETGAK_clean_sbu_0--node2-BETDIP_clean_linker_0--edge1-TEMPAE_clean_linker_10
_symmetry_space_group_name_H-M    P1
_symmetry_Int_Tables_number       1
_symmetry_cell_setting            triclinic
loop_
_symmetry_equiv_pos_as_xyz
'x, y, z'
_cell_length_a     38.811592
_cell_length_b     40.06757
_cell_length_c     38.264644
_cell_angle_alpha  93.77407
_cell_angle_beta   85.392913
_cell_angle_gamma 106.19238
loop_
_atom_site_label
_atom_site_type_symbol
_atom_site_fract_x
_atom_site_fract_y
_atom_site_fract_z
_atom_type_partial_charge
H0 H 0.31747 0.33941 0.22626 0.0
H1 H 0.37729 0.2996 0.14246 0.0
H2 H 0.35336 0.25 0.24165 0.0
H3 H 0.3487 0.39257 0.198 0.0
C4 C 0.33879 0.38113 0.17292 0.0
C5 C 0.33275 0.32145 0.21667 0.0
C6 C 0.33347 0.29439 0.23771 0.0
C7 C 0.34953 0.32398 0.18262 0.0
C8 C 0.36649 0.29865 0.16948 0.0
C9 C 0.36822 0.27162 0.19055 0.0
C10 C 0.35256 0.27061 0.22507 0.0
N11 N 0.34612 0.34955 0.16005 0.0
H12 H 0.17325 0.85613 0.6977 0.0
H13 H 0.19273 0.78569 0.61371 0.0
H14 H 0.28147 0.85361 0.66632 0.0
H15 H 0.10458 0.78709 0.61069 0.0
C16 C 0.12773 0.80872 0.61649 0.0
C17 C 0.192 0.84576 0.68088 0.0
C18 C 0.22912 0.85865 0.68452 0.0
C19 C 0.1791 0.82035 0.65457 0.0
C20 C 0.20309 0.80638 0.63299 0.0
C21 C 0.24005 0.81778 0.6377 0.0
C22 C 0.25286 0.84465 0.6627 0.0
N23 N 0.14185 0.80916 0.64967 0.0
H24 H 0.70324 0.43027 0.84779 0.0
H25 H 0.61325 0.33774 0.84852 0.0
H26 H 0.69647 0.35063 0.92052 0.0
H27 H 0.6804 0.44343 0.7984 0.0
C28 C 0.65317 0.42778 0.7945 0.0
C29 C 0.68924 0.40524 0.85802 0.0
C30 C 0.70395 0.39319 0.88641 0.0
C31 C 0.6561 0.38556 0.84386 0.0
C32 C 0.63842 0.35277 0.85874 0.0
C33 C 0.65219 0.33943 0.88681 0.0
C34 C 0.68491 0.3604 0.89992 0.0
N35 N 0.6391 0.39751 0.81584 0.0
H36 H 0.80658 0.65979 0.35391 0.0
H37 H 0.9022 0.74571 0.34914 0.0
H38 H 0.82243 0.74075 0.4353 0.0
H39 H 0.9241 0.69606 0.32367 0.0
C40 C 0.90321 0.68551 0.30548 0.0
C41 C 0.8227 0.68412 0.36514 0.0
C42 C 0.81067 0.6981 0.39693 0.0
C43 C 0.8561 0.70044 0.34831 0.0
C44 C 0.87711 0.7323 0.36277 0.0
C45 C 0.86471 0.74767 0.39384 0.0
C46 C 0.83186 0.72978 0.41097 0.0
N47 N 0.86701 0.6847 0.31632 0.0
H48 H 0.63704 0.79898 0.91582 0.0
H49 H 0.71409 0.77018 0.84268 0.0
H50 H 0.6655 0.84873 0.81696 0.0
H51 H 0.6755 0.71064 0.86956 0.0
C52 C 0.68666 0.72475 0.89317 0.0
C53 C 0.65106 0.80135 0.89008 0.0
C54 C 0.64813 0.82672 0.86752 0.0
C55 C 0.67331 0.77971 0.88025 0.0
C56 C 0.6944 0.78466 0.84848 0.0
C57 C 0.69279 0.81046 0.82606 0.0
C58 C 0.668 0.82987 0.83491 0.0
N59 N 0.67763 0.75594 0.90436 0.0
H60 H 0.78615 0.18382 0.40232 0.0
H61 H 0.79319 0.25786 0.49006 0.0
H62 H 0.71862 0.25271 0.41117 0.0
H63 H 0.81962 0.22249 0.51498 0.0
C64 C 0.8294 0.20672 0.49451 0.0
C65 C 0.77737 0.20478 0.41625 0.0
C66 C 0.75065 0.2167 0.4031 0.0
C67 C 0.79211 0.21866 0.44791 0.0
C68 C 0.78107 0.24599 0.46618 0.0
C69 C 0.755 0.25891 0.45256 0.0
C70 C 0.7394 0.24352 0.42145 0.0
N71 N 0.81806 0.20417 0.45992 0.0
H72 H 0.31247 0.66658 0.22392 0.0
H73 H 0.40491 0.75663 0.23002 0.0
H74 H 0.3257 0.75072 0.15505 0.0
H75 H 0.42377 0.7252 0.27134 0.0
C76 C 0.4032 0.70194 0.27908 0.0
C77 C 0.32771 0.69183 0.21487 0.0
C78 C 0.3149 0.70593 0.18686 0.0
C79 C 0.36029 0.70915 0.23107 0.0
C80 C 0.38029 0.74249 0.21828 0.0
C81 C 0.36775 0.7582 0.19083 0.0
C82 C 0.33532 0.73919 0.17578 0.0
N83 N 0.37074 0.69197 0.25978 0.0
H84 H 0.13336 0.33988 0.73219 0.0
H85 H 0.21797 0.43558 0.72678 0.0
H86 H 0.22215 0.34924 0.655 0.0
H87 H 0.20074 0.43017 0.79092 0.0
C88 C 0.17226 0.42672 0.78828 0.0
C89 C 0.15854 0.355 0.72 0.0
C90 C 0.17638 0.33983 0.69249 0.0
C91 C 0.17364 0.38924 0.73297 0.0
C92 C 0.2065 0.40903 0.71727 0.0
C93 C 0.22433 0.39477 0.68906 0.0
C94 C 0.20904 0.36015 0.67715 0.0
N95 N 0.15486 0.40343 0.76119 0.0
La96 La 0.04976 0.05349 0.51158 0.0
La97 La 0.02049 1.02244 0.58202 0.0
C98 C 0.06144 0.07964 0.45244 0.0
C99 C 0.09154 0.10624 0.4358 0.0
C100 C 0.12484 0.09947 0.42654 0.0
C101 C 0.15297 0.1246 0.4105 0.0
C102 C 0.1485 0.15703 0.40342 0.0
C103 C 0.11548 0.16409 0.4132 0.0
C104 C 0.08718 0.13882 0.4291 0.0
C105 C 0.09246 1.02561 0.54258 0.0
C106 C 0.07505 0.09914 0.57912 0.0
C107 C 1.00721 0.99496 0.64045 0.0
C108 C 0.97542 0.96861 0.65445 0.0
C109 C 0.94073 0.96982 0.64788 0.0
C110 C 0.91061 0.9446 0.66061 0.0
C111 C 0.91442 0.91726 0.67983 0.0
C112 C 0.94927 0.91569 0.68578 0.0
C113 C 0.97952 0.9412 0.67319 0.0
C114 C 0.97795 0.0509 0.55154 0.0
C115 C 0.99456 0.97745 0.51421 0.0
O116 O 0.0678 0.05025 0.4588 0.0
O117 O 0.04284 0.09066 0.47852 0.0
O118 O 0.10403 0.05041 0.52086 0.0
O119 O 0.05895 1.01515 0.54234 0.0
O120 O 0.0709 0.09921 0.54514 0.0
O121 O 0.06186 0.07055 0.59722 0.0
O122 O 1.00234 1.0252 0.63488 0.0
O123 O 0.02591 0.98404 0.61442 0.0
O124 O 0.96646 1.02443 0.57124 0.0
O125 O 0.0115 0.06137 0.55181 0.0
O126 O 0.99938 0.97684 0.54798 0.0
O127 O 1.00758 1.00626 0.49661 0.0
H128 H 0.12924 0.07472 0.43147 0.0
H129 H 0.17827 0.11862 0.4035 0.0
H130 H 0.11125 0.18878 0.40769 0.0
H131 H 0.06178 0.14466 0.43593 0.0
H132 H 0.93676 0.99044 0.6331 0.0
H133 H 0.88426 0.94709 0.65609 0.0
H134 H 0.95316 0.89478 0.70017 0.0
H135 H 1.0061 0.93952 0.67804 0.0
La136 La 0.53837 0.05656 0.05294 0.0
La137 La 0.47375 0.03825 1.01365 0.0
C138 C 0.59801 0.08992 0.07527 0.0
C139 C 0.61232 0.10163 0.10974 0.0
C140 C 0.64258 0.09239 0.11891 0.0
C141 C 0.65689 0.1035 0.15133 0.0
C142 C 0.64134 0.12438 0.17488 0.0
C143 C 0.61098 0.13355 0.16577 0.0
C144 C 0.59642 0.12212 0.13353 0.0
C145 C 0.49355 0.99943 0.0832 0.0
C146 C 0.47198 0.08117 0.08274 0.0
C147 C 0.41681 1.0095 0.98323 0.0
C148 C 0.40344 0.99882 0.94811 0.0
C149 C 0.40262 1.02339 0.9238 0.0
C150 C 0.38572 1.01264 0.89247 0.0
C151 C 0.36946 0.9772 0.88491 0.0
C152 C 0.37125 0.95266 0.90881 0.0
C153 C 0.38797 0.96339 0.94013 0.0
C154 C 0.5184 0.10143 0.99833 0.0
C155 C 0.53761 1.00742 0.98542 0.0
O156 O 0.58905 0.05631 0.06829 0.0
O157 O 0.57448 0.10462 0.0652 0.0
O158 O 0.52431 1.01745 0.09392 0.0
O159 O 0.48799 1.01545 0.05739 0.0
O160 O 0.50729 0.08907 0.08006 0.0
O161 O 0.45261 0.05527 0.06363 0.0
O162 O 0.42784 0.04276 0.99124 0.0
O163 O 0.4373 0.99241 0.99499 0.0
O164 O 0.48369 0.09294 1.00085 0.0
O165 O 0.52738 0.07374 1.00316 0.0
O166 O 0.50509 1.00957 0.98035 0.0
O167 O 0.55643 1.02543 1.01091 0.0
H168 H 0.65524 0.07666 0.1009 0.0
H169 H 0.68049 0.09634 0.15775 0.0
H170 H 0.59836 0.14936 0.18371 0.0
H171 H 0.57286 0.12943 0.12727 0.0
H172 H 0.41421 0.05094 0.92929 0.0
H173 H 0.38501 1.03206 0.87434 0.0
H174 H 0.35853 0.9252 0.90393 0.0
H175 H 0.38784 0.94401 0.95864 0.0
La176 La 0.51592 0.52489 0.51483 0.0
La177 La 0.50992 0.58282 0.56334 0.0
C178 C 0.54094 0.48104 0.47898 0.0
C179 C 0.5643 0.4598 0.48704 0.0
C180 C 0.56208 0.42817 0.46841 0.0
C181 C 0.58365 0.40741 0.47632 0.0
C182 C 0.60741 0.41763 0.50354 0.0
C183 C 0.6094 0.44944 0.52221 0.0
C184 C 0.58835 0.47049 0.51374 0.0
C185 C 0.45192 0.51613 0.5478 0.0
C186 C 0.54128 0.52735 0.59568 0.0
C187 C 0.4843 0.62667 0.59808 0.0
C188 C 0.46011 0.64651 0.58853 0.0
C189 C 0.46516 0.68098 0.60119 0.0
C190 C 0.44222 0.69999 0.59228 0.0
C191 C 0.41391 0.68476 0.57047 0.0
C192 C 0.40957 0.65049 0.55704 0.0
C193 C 0.43245 0.63151 0.56601 0.0
C194 C 0.57438 0.59089 0.53179 0.0
C195 C 0.48476 0.5805 0.48252 0.0
O196 O 0.50897 0.47333 0.49523 0.0
O197 O 0.55589 0.5146 0.47915 0.0
O198 O 0.4572 0.50601 0.51535 0.0
O199 O 0.48196 0.52919 0.56055 0.0
O200 O 0.54128 0.51404 0.56263 0.0
O201 O 0.52774 0.55428 0.60314 0.0
O202 O 0.51628 0.63462 0.58186 0.0
O203 O 0.47024 0.59301 0.59945 0.0
O204 O 0.56836 0.60244 0.56352 0.0
O205 O 0.54464 0.57829 0.51823 0.0
O206 O 0.48409 0.59337 0.51568 0.0
O207 O 0.49871 0.55387 0.47506 0.0
H208 H 0.54385 0.41964 0.44755 0.0
H209 H 0.5821 0.38364 0.46057 0.0
H210 H 0.62713 0.45813 0.54342 0.0
H211 H 0.59102 0.49515 0.52807 0.0
H212 H 0.4865 0.69303 0.61837 0.0
H213 H 0.44584 0.72617 0.60352 0.0
H214 H 0.38816 0.6382 0.54003 0.0
H215 H 0.42821 0.60497 0.55562 0.0
La216 La 0.01079 0.51745 0.04699 0.0
La217 La 0.01153 0.58486 1.02002 0.0
C218 C 0.02852 0.46433 0.06172 0.0
C219 C 0.06198 0.45791 0.072 0.0
C220 C 0.06318 0.44616 0.1055 0.0
C221 C 0.0945 0.43982 0.11563 0.0
C222 C 0.12528 0.44476 0.09233 0.0
C223 C 0.12406 0.45665 0.05879 0.0
C224 C 0.09281 0.46321 0.04875 0.0
C225 C 0.97527 0.55379 0.08857 0.0
C226 C 0.07829 0.58525 0.06251 0.0
C227 C 0.99473 0.63912 1.00698 0.0
C228 C 0.96249 0.64682 0.99572 0.0
C229 C 0.96584 0.67778 0.97912 0.0
C230 C 0.93531 0.68579 0.96904 0.0
C231 C 0.90083 0.66275 0.97511 0.0
C232 C 0.89775 0.63158 0.99161 0.0
C233 C 0.92823 0.62386 1.00207 0.0
C234 C 0.04859 0.54959 0.97919 0.0
C235 C 0.94416 0.51646 1.00413 0.0
O236 O 0.01277 0.48198 0.08452 0.0
O237 O 0.02872 0.4741 1.02977 0.0
O238 O 0.96533 0.52015 0.08405 0.0
O239 O 1.00471 0.56535 0.0711 0.0
O240 O 0.06581 0.55066 0.05948 0.0
O241 O 0.05937 0.60491 0.05109 0.0
O242 O 0.01132 0.6224 0.98401 0.0
O243 O 0.9916 0.62676 0.03819 0.0
O244 O 0.0577 0.58324 0.98375 0.0
O245 O 0.01871 0.53731 0.99583 0.0
O246 O 0.95716 0.55107 1.00601 0.0
O247 O 0.96249 0.49689 1.0167 0.0
H248 H 0.03984 0.44191 0.12392 0.0
H249 H 0.09463 0.43123 0.14186 0.0
H250 H 0.14705 0.46029 0.04 0.0
H251 H 0.09285 0.47223 1.02266 0.0
H252 H 0.99205 0.69597 0.97429 0.0
H253 H 0.93874 0.71031 0.95699 0.0
H254 H 0.87181 0.61298 0.99635 0.0
H255 H 0.92497 0.60009 1.01538 0.0
C256 C 0.3209 0.27568 0.29978 0.0
C257 C 0.30933 0.28691 0.26999 0.0
C258 C 0.29607 0.26017 0.32673 0.0
C259 C 0.25894 0.25562 0.32349 0.0
C260 C 0.24757 0.26998 0.29516 0.0
C261 C 0.27294 0.28551 0.26874 0.0
C262 C 0.30932 0.24581 0.35691 0.0
C263 C 0.20823 0.26569 0.2907 0.0
C264 C 0.19474 0.17144 0.35374 0.0
C265 C 0.17763 0.18253 0.3841 0.0
C266 C 0.22165 0.195 0.33426 0.0
C267 C 0.23191 0.23056 0.34554 0.0
C268 C 0.21523 0.2419 0.37655 0.0
C269 C 0.18799 0.21771 0.3954 0.0
C270 C 0.23854 0.18186 0.30112 0.0
C271 C 0.22586 0.27953 0.38953 0.0
H272 H 0.34911 0.2772 0.30104 0.0
H273 H 0.26376 0.29389 0.24567 0.0
H274 H 0.29479 0.25073 0.38202 0.0
H275 H 0.3041 0.21722 0.35263 0.0
H276 H 0.33864 0.25727 0.35932 0.0
H277 H 0.20429 0.28297 0.27073 0.0
H278 H 0.19526 0.23834 0.28219 0.0
H279 H 0.19425 0.27128 0.31589 0.0
H280 H 0.18642 0.14433 0.34473 0.0
H281 H 0.17494 0.22622 0.41907 0.0
H282 H 0.26809 0.18816 0.30265 0.0
H283 H 0.23346 0.19499 0.27818 0.0
H284 H 0.22787 0.1533 0.29637 0.0
H285 H 0.25534 0.28869 0.392 0.0
H286 H 0.212 0.28369 0.41532 0.0
H287 H 0.21921 0.29591 0.37024 0.0
C288 C 0.27408 0.91235 0.70539 0.0
C289 C 0.24373 0.88452 0.71275 0.0
C290 C 0.29326 0.9325 0.73253 0.0
C291 C 0.28177 0.92444 0.76775 0.0
C292 C 0.24944 0.89824 0.77532 0.0
C293 C 0.23071 0.87857 0.74763 0.0
C294 C 0.32731 0.96052 0.72339 0.0
C295 C 0.23624 0.88902 0.81259 0.0
C296 C 0.35273 0.93604 0.83322 0.0
C297 C 0.34917 0.96567 0.85306 0.0
C298 C 0.33141 0.92286 0.80494 0.0
C299 C 0.30594 0.9398 0.79625 0.0
C300 C 0.30301 0.97041 0.81541 0.0
C301 C 0.32469 0.98301 0.84368 0.0
C302 C 0.33558 0.89029 0.78489 0.0
C303 C 0.27627 0.98921 0.80672 0.0
H304 H 0.28386 0.91721 0.67833 0.0
H305 H 0.20734 0.85695 0.75334 0.0
H306 H 0.32869 0.98444 0.74018 0.0
H307 H 0.35092 0.9514 0.72827 0.0
H308 H 0.32943 0.96718 0.69542 0.0
H309 H 0.20847 0.87139 0.81418 0.0
H310 H 0.25433 0.87586 0.8236 0.0
H311 H 0.2368 0.91283 0.82931 0.0
H312 H 0.37201 0.9229 0.8401 0.0
H313 H 0.32161 1.00575 0.85919 0.0
H314 H 0.34166 0.89525 0.75657 0.0
H315 H 0.31 0.86932 0.78739 0.0
H316 H 0.35731 0.88084 0.79444 0.0
H317 H 0.27932 0.99458 0.7784 0.0
H318 H 0.2794 1.01418 0.82225 0.0
H319 H 0.24854 0.97248 0.81214 0.0
C320 C 0.65344 0.46745 0.74452 0.0
C321 C 0.63402 0.43944 0.76524 0.0
C322 C 0.63805 0.48045 0.71743 0.0
C323 C 0.60141 0.46585 0.7098 0.0
C324 C 0.58144 0.43745 0.73058 0.0
C325 C 0.59772 0.42467 0.75755 0.0
C326 C 0.66141 0.51026 0.69683 0.0
C327 C 0.54246 0.42055 0.72444 0.0
C328 C 0.55527 0.52359 0.66046 0.0
C329 C 0.5562 0.5112 0.62498 0.0
C330 C 0.56889 0.50892 0.6878 0.0
C331 C 0.58452 0.48064 0.6806 0.0
C332 C 0.58537 0.4679 0.64485 0.0
C333 C 0.57136 0.48294 0.61806 0.0
C334 C 0.5667 0.52405 0.72476 0.0
C335 C 0.60164 0.43834 0.63459 0.0
H336 H 0.68136 0.47954 0.74953 0.0
H337 H 0.58177 0.40325 0.77282 0.0
H338 H 0.66195 0.50263 0.66842 0.0
H339 H 0.64999 0.53283 0.70026 0.0
H340 H 0.68946 0.5186 0.70503 0.0
H341 H 0.53024 0.39888 0.74214 0.0
H342 H 0.52706 0.44018 0.72859 0.0
H343 H 0.53977 0.41033 0.69684 0.0
H344 H 0.54378 0.5451 0.6671 0.0
H345 H 0.57248 0.4724 0.59136 0.0
H346 H 0.59418 0.53515 0.73385 0.0
H347 H 0.55237 0.50326 0.74272 0.0
H348 H 0.5526 0.54479 0.72692 0.0
H349 H 0.63061 0.44644 0.63967 0.0
H350 H 0.59893 0.42992 0.60645 0.0
H351 H 0.5886 0.41574 0.65084 0.0
C352 C 0.8903 0.66018 0.24412 0.0
C353 C 0.91198 0.66628 0.27279 0.0
C354 C 0.89918 0.64247 0.21308 0.0
C355 C 0.92988 0.62958 0.21097 0.0
C356 C 0.95149 0.6353 0.24015 0.0
C357 C 0.94262 0.65403 0.27036 0.0
C358 C 0.87602 0.63799 0.18232 0.0
C359 C 0.98388 0.62134 0.2396 0.0
C360 C 0.93595 0.55593 0.14379 0.0
C361 C 0.96181 0.57342 0.11858 0.0
C362 C 0.92511 0.57383 0.17377 0.0
C363 C 0.9397 0.61036 0.17832 0.0
C364 C 0.96496 0.62827 0.15232 0.0
C365 C 0.97617 0.60955 0.12322 0.0
C366 C 0.89892 0.55345 0.20117 0.0
C367 C 0.98063 0.66723 0.15546 0.0
H368 H 0.86676 0.66987 0.24569 0.0
H369 H 0.95939 0.65858 0.29249 0.0
H370 H 0.89266 0.64974 0.15895 0.0
H371 H 0.86453 0.60994 0.17556 0.0
H372 H 0.85362 0.65021 0.18776 0.0
H373 H 0.99694 0.6266 0.26495 0.0
H374 H 0.97585 0.59283 0.23372 0.0
H375 H 1.00397 0.63328 0.21851 0.0
H376 H 0.92491 0.52798 0.14063 0.0
H377 H 0.9966 0.62325 0.10431 0.0
H378 H 0.87511 0.56371 0.20564 0.0
H379 H 0.9118 0.5565 0.2265 0.0
H380 H 0.88966 0.52528 0.1936 0.0
H381 H 0.9588 0.68022 0.1604 0.0
H382 H 0.99716 0.67765 0.13148 0.0
H383 H 0.99778 0.67422 0.17812 0.0
C384 C 0.36887 0.2088 0.187 0.0
C385 C 0.38385 0.243 0.17611 0.0
C386 C 0.38336 0.18163 0.17434 0.0
C387 C 0.41257 0.18825 0.14886 0.0
C388 C 0.42749 0.2224 0.13712 0.0
C389 C 0.41334 0.24945 0.15128 0.0
C390 C 0.36714 0.14573 0.18808 0.0
C391 C 0.45807 0.23027 0.1092 0.0
C392 C 0.47021 0.12541 0.1315 0.0
C393 C 0.45441 0.10543 0.10256 0.0
C394 C 0.4562 0.1518 0.14759 0.0
C395 C 0.42656 0.15912 0.13351 0.0
C396 C 0.41034 0.13873 0.10447 0.0
C397 C 0.42411 0.11176 0.08971 0.0
C398 C 0.47342 0.17217 0.17928 0.0
C399 C 0.37934 0.14629 0.08807 0.0
H400 H 0.34535 0.2029 0.20517 0.0
H401 H 0.42549 0.27567 0.14286 0.0
H402 H 0.35432 0.12758 0.16672 0.0
H403 H 0.38848 0.13553 0.19731 0.0
H404 H 0.34658 0.14555 0.21007 0.0
H405 H 0.46612 0.25802 0.10235 0.0
H406 H 0.48179 0.22385 0.11827 0.0
H407 H 0.45014 0.21384 0.08509 0.0
H408 H 0.49374 0.1206 0.14134 0.0
H409 H 0.41228 0.0968 0.06687 0.0
H410 H 0.45274 0.17172 0.20116 0.0
H411 H 0.48558 0.19977 0.17295 0.0
H412 H 0.49467 0.16172 0.18836 0.0
H413 H 0.35644 0.14452 0.1078 0.0
H414 H 0.36988 0.12808 0.06546 0.0
H415 H 0.38763 0.17324 0.07888 0.0
C416 C 0.10108 0.84641 0.58455 0.0
C417 C 0.1312 0.84171 0.59922 0.0
C418 C 0.10137 0.87879 0.57254 0.0
C419 C 0.13269 0.90707 0.57515 0.0
C420 C 0.164 0.90187 0.58759 0.0
C421 C 0.16298 0.86914 0.59924 0.0
C422 C 0.0675 0.88323 0.55894 0.0
C423 C 0.19801 0.93129 0.59031 0.0
C424 C 0.12922 0.98492 0.52608 0.0
C425 C 0.11314 1.00268 0.5523 0.0
C426 C 0.13837 0.95476 0.5336 0.0
C427 C 0.13115 0.94255 0.56806 0.0
C428 C 0.11801 0.96245 0.59518 0.0
C429 C 0.10905 0.99233 0.58686 0.0
C430 C 0.15249 0.93436 0.50404 0.0
C431 C 0.11032 0.95057 0.63236 0.0
H432 H 0.07663 0.82515 0.58401 0.0
H433 H 0.1871 0.86561 0.60867 0.0
H434 H 0.05633 0.90067 0.57744 0.0
H435 H 0.07356 0.89559 0.53323 0.0
H436 H 0.04655 0.85806 0.55581 0.0
H437 H 0.22115 0.9221 0.59672 0.0
H438 H 0.20502 0.94501 0.56537 0.0
H439 H 0.19366 0.95055 0.61117 0.0
H440 H 0.13178 0.99283 0.49921 0.0
H441 H 0.09671 1.00644 0.60698 0.0
H442 H 0.13038 0.91169 0.49581 0.0
H443 H 0.17411 0.92419 0.51262 0.0
H444 H 0.16303 0.95037 0.48088 0.0
H445 H 0.08674 0.9273 0.63339 0.0
H446 H 0.10438 0.97104 0.65097 0.0
H447 H 0.13348 0.94302 0.64128 0.0
C448 C 0.74174 0.41654 0.93964 0.0
C449 C 0.73902 0.41418 0.90287 0.0
C450 C 0.77429 0.43387 0.95571 0.0
C451 C 0.80629 0.44928 0.93505 0.0
C452 C 0.80375 0.44728 0.8979 0.0
C453 C 0.77053 0.43032 0.88249 0.0
C454 C 0.77437 0.43552 0.9952 0.0
C455 C 0.83656 0.46244 0.87415 0.0
C456 C 0.88542 0.5187 0.9782 0.0
C457 C 0.90878 0.49932 0.98654 0.0
C458 C 0.85258 0.50308 0.96177 0.0
C459 C 0.8421 0.4668 0.95229 0.0
C460 C 0.86579 0.4472 0.96025 0.0
C461 C 0.89814 0.46337 0.97727 0.0
C462 C 0.82873 0.52558 0.95492 0.0
C463 C 0.85702 0.4088 0.95055 0.0
H464 H 0.71802 0.40481 0.9562 0.0
H465 H 0.76959 0.42877 0.8542 0.0
H466 H 0.7931 0.42148 1.00337 0.0
H467 H 0.78414 0.46297 1.00506 0.0
H468 H 0.74726 0.42392 1.0079 0.0
H469 H 0.83066 0.45921 0.84601 0.0
H470 H 0.84756 0.49056 0.88094 0.0
H471 H 0.85781 0.44965 0.87808 0.0
H472 H 0.8926 0.54633 0.98486 0.0
H473 H 0.91547 0.44765 0.98298 0.0
H474 H 0.80204 0.51577 0.96906 0.0
H475 H 0.82427 0.52421 0.92653 0.0
H476 H 0.84032 0.55324 0.9634 0.0
H477 H 0.83148 0.39496 0.96471 0.0
H478 H 0.8785 0.3972 0.95692 0.0
H479 H 0.85304 0.40433 0.92204 0.0
C480 C 0.77429 0.67508 0.45184 0.0
C481 C 0.77597 0.67982 0.41567 0.0
C482 C 0.74163 0.65898 0.47024 0.0
C483 C 0.70961 0.64775 0.4522 0.0
C484 C 0.7112 0.65213 0.41558 0.0
C485 C 0.74437 0.66786 0.39772 0.0
C486 C 0.74134 0.65436 0.50911 0.0
C487 C 0.67769 0.64101 0.39542 0.0
C488 C 0.62805 0.58291 0.49514 0.0
C489 C 0.6085 0.60502 0.51097 0.0
C490 C 0.66097 0.59636 0.47585 0.0
C491 C 0.67433 0.63277 0.47197 0.0
C492 C 0.65426 0.65509 0.48771 0.0
C493 C 0.62178 0.64095 0.50731 0.0
C494 C 0.68172 0.57167 0.46013 0.0
C495 C 0.66714 0.69395 0.48391 0.0
H496 H 0.79868 0.68388 0.46578 0.0
H497 H 0.74544 0.67168 0.36983 0.0
H498 H 0.72469 0.66972 0.52381 0.0
H499 H 0.72902 0.62667 0.51506 0.0
H500 H 0.76877 0.66275 0.51889 0.0
H501 H 0.68354 0.64532 0.36691 0.0
H502 H 0.6641 0.61304 0.39889 0.0
H503 H 0.65851 0.6558 0.40586 0.0
H504 H 0.61801 0.55517 0.4985 0.0
H505 H 0.60653 0.658 0.51958 0.0
H506 H 0.7085 0.57822 0.47116 0.0
H507 H 0.68635 0.57446 0.43135 0.0
H508 H 0.66752 0.54409 0.46523 0.0
H509 H 0.69334 0.70461 0.49582 0.0
H510 H 0.64777 0.70757 0.49664 0.0
H511 H 0.67145 0.69988 0.45571 0.0
C512 C 0.29659 0.41799 0.17746 0.0
C513 C 0.31109 0.39379 0.15785 0.0
C514 C 0.26771 0.42798 0.16581 0.0
C515 C 0.25337 0.41374 0.1335 0.0
C516 C 0.26895 0.39038 0.11286 0.0
C517 C 0.29753 0.38047 0.12541 0.0
C518 C 0.25163 0.45265 0.18878 0.0
C519 C 0.25476 0.37509 0.07801 0.0
C520 C 0.15548 0.40783 0.12241 0.0
C521 C 0.15827 0.43694 0.10276 0.0
C522 C 0.18622 0.40006 0.13256 0.0
C523 C 0.2207 0.42165 0.12244 0.0
C524 C 0.2238 0.4509 0.10236 0.0
C525 C 0.19256 0.45832 0.09294 0.0
C526 C 0.18175 0.36878 0.15425 0.0
C527 C 0.26011 0.47441 0.09092 0.0
H528 H 0.30705 0.42824 0.20259 0.0
H529 H 0.30884 0.36189 0.11006 0.0
H530 H 0.25052 0.47497 0.17366 0.0
H531 H 0.2236 0.43906 0.19774 0.0
H532 H 0.26711 0.46281 0.21224 0.0
H533 H 0.27161 0.35952 0.06391 0.0
H534 H 0.22697 0.35805 0.08221 0.0
H535 H 0.25353 0.39609 0.06105 0.0
H536 H 0.12919 0.39079 0.1296 0.0
H537 H 0.19501 0.48115 0.0782 0.0
H538 H 0.19487 0.377 0.17932 0.0
H539 H 0.19516 0.3503 0.14007 0.0
H540 H 0.15305 0.35489 0.16031 0.0
H541 H 0.27493 0.48634 0.11427 0.0
H542 H 0.25793 0.49554 0.07456 0.0
H543 H 0.27639 0.45901 0.07568 0.0
C544 C 0.61385 0.27476 0.88264 0.0
C545 C 0.63293 0.30388 0.9029 0.0
C546 C 0.59707 0.24167 0.89732 0.0
C547 C 0.59858 0.23647 0.93366 0.0
C548 C 0.61759 0.26575 0.95425 0.0
C549 C 0.63422 0.29842 0.93893 0.0
C550 C 0.57755 0.21201 0.87366 0.0
C551 C 0.62006 0.26273 0.993 0.0
C552 C 0.52425 0.16271 0.97949 0.0
C553 C 0.54073 0.13579 0.98255 0.0
C554 C 0.54247 0.19482 0.96404 0.0
C555 C 0.57883 0.20141 0.95046 0.0
C556 C 0.59589 0.17443 0.95359 0.0
C557 C 0.57694 0.14237 0.9695 0.0
C558 C 0.52245 0.22192 0.96226 0.0
C559 C 0.63436 0.17936 0.93981 0.0
H560 H 0.61245 0.27754 0.85488 0.0
H561 H 0.64789 0.32008 0.95571 0.0
H562 H 0.58877 0.18952 0.87488 0.0
H563 H 0.54874 0.20331 0.88283 0.0
H564 H 0.57952 0.21932 0.84592 0.0
H565 H 0.63664 0.28711 1.0055 0.0
H566 H 0.59273 0.2563 1.00636 0.0
H567 H 0.63187 0.24123 0.99732 0.0
H568 H 0.49649 0.15866 0.98934 0.0
H569 H 0.59045 0.12231 0.97131 0.0
H570 H 0.52144 0.22789 0.93452 0.0
H571 H 0.53684 0.24644 0.97612 0.0
H572 H 0.4945 0.2134 0.97415 0.0
H573 H 0.63699 0.18416 0.91135 0.0
H574 H 0.64412 0.15641 0.94378 0.0
H575 H 0.65196 0.20258 0.95313 0.0
C576 C 0.92258 0.79169 0.41031 0.0
C577 C 0.88509 0.78263 0.40847 0.0
C578 C 0.94131 0.82375 0.42615 0.0
C579 C 0.92219 0.84749 0.44047 0.0
C580 C 0.88451 0.83884 0.43786 0.0
C581 C 0.86654 0.80674 0.42188 0.0
C582 C 0.98148 0.83191 0.42827 0.0
C583 C 0.86297 0.86327 0.45253 0.0
C584 C 0.96174 0.91362 0.51339 0.0
C585 C 0.97536 0.94447 0.49531 0.0
C586 C 0.94478 0.88199 0.49585 0.0
C587 C 0.94123 0.88088 0.45918 0.0
C588 C 0.95488 0.91189 0.44074 0.0
C589 C 0.9717 0.94322 0.45897 0.0
C590 C 0.93053 0.8497 0.51667 0.0
C591 C 0.95171 0.91197 0.40169 0.0
H592 H 0.93719 0.77328 0.40024 0.0
H593 H 0.83771 0.80045 0.41999 0.0
H594 H 0.99499 0.85726 0.41661 0.0
H595 H 0.98808 0.83427 0.45617 0.0
H596 H 0.99267 0.81156 0.41452 0.0
H597 H 0.83401 0.85317 0.44755 0.0
H598 H 0.86546 0.86745 0.48128 0.0
H599 H 0.87369 0.88901 0.44078 0.0
H600 H 0.96442 0.91405 0.5414 0.0
H601 H 0.98221 0.96673 0.44459 0.0
H602 H 0.94305 0.82916 0.50584 0.0
H603 H 0.9011 0.83935 0.51443 0.0
H604 H 0.93584 0.85472 0.54491 0.0
H605 H 0.96478 0.89306 0.38783 0.0
H606 H 0.96422 0.93803 0.39103 0.0
H607 H 0.92297 0.90362 0.39574 0.0
C608 C 0.28897 0.78935 0.63948 0.0
C609 C 0.26503 0.79934 0.61966 0.0
C610 C 0.31247 0.77115 0.62388 0.0
C611 C 0.31201 0.76256 0.58741 0.0
C612 C 0.28814 0.77279 0.56702 0.0
C613 C 0.26463 0.79096 0.5835 0.0
C614 C 0.33735 0.76056 0.64671 0.0
C615 C 0.28716 0.76419 0.52806 0.0
C616 C 0.39752 0.73907 0.55928 0.0
C617 C 0.38686 0.70338 0.56517 0.0
C618 C 0.37234 0.75846 0.5623 0.0
C619 C 0.3359 0.74168 0.57174 0.0
C620 C 0.32449 0.70507 0.57386 0.0
C621 C 0.35018 0.68631 0.57055 0.0
C622 C 0.38543 0.79737 0.5591 0.0
C623 C 0.28585 0.68613 0.58373 0.0
H624 H 0.28881 0.79517 0.66757 0.0
H625 H 0.24612 0.79876 0.56817 0.0
H626 H 0.33155 0.7318 0.6458 0.0
H627 H 0.36571 0.77121 0.63674 0.0
H628 H 0.33463 0.76983 0.67453 0.0
H629 H 0.26963 0.77691 0.51545 0.0
H630 H 0.31466 0.77237 0.51518 0.0
H631 H 0.27696 0.73564 0.52329 0.0
H632 H 0.4258 0.75218 0.55428 0.0
H633 H 0.34176 0.65871 0.57512 0.0
H634 H 0.38796 0.81021 0.58573 0.0
H635 H 0.36603 0.80705 0.54571 0.0
H636 H 0.41212 0.80526 0.54446 0.0
H637 H 0.28019 0.69034 0.61233 0.0
H638 H 0.28016 0.65768 0.5777 0.0
H639 H 0.26717 0.69629 0.56984 0.0
C640 C 0.7363 0.85628 0.79105 0.0
C641 C 0.72076 0.82083 0.7968 0.0
C642 C 0.76634 0.86731 0.76761 0.0
C643 C 0.78184 0.84238 0.74985 0.0
C644 C 0.76544 0.8065 0.7541 0.0
C645 C 0.73491 0.79612 0.77738 0.0
C646 C 0.78271 0.90587 0.76344 0.0
C647 C 0.78124 0.77919 0.7356 0.0
C648 C 0.85047 0.88083 0.67712 0.0
C649 C 0.88193 0.89212 0.69542 0.0
C650 C 0.81787 0.86231 0.69378 0.0
C651 C 0.81685 0.85455 0.72943 0.0
C652 C 0.84908 0.86321 0.7471 0.0
C653 C 0.8812 0.8821 0.72996 0.0
C654 C 0.78412 0.85344 0.674 0.0
C655 C 0.84919 0.8549 0.78501 0.0
H656 H 0.72625 0.87576 0.80627 0.0
H657 H 0.72282 0.76866 0.7812 0.0
H658 H 0.80929 0.91416 0.77497 0.0
H659 H 0.78716 0.91174 0.73523 0.0
H660 H 0.76552 0.92163 0.77652 0.0
H661 H 0.76265 0.75261 0.7377 0.0
H662 H 0.788 0.78461 0.70745 0.0
H663 H 0.80659 0.77977 0.74744 0.0
H664 H 0.85101 0.88767 0.65011 0.0
H665 H 0.90525 0.89077 0.74441 0.0
H666 H 0.76766 0.87127 0.68342 0.0
H667 H 0.76758 0.82654 0.67887 0.0
H668 H 0.7902 0.85605 0.64528 0.0
H669 H 0.83599 0.87187 0.80204 0.0
H670 H 0.87688 0.85899 0.79338 0.0
H671 H 0.83371 0.82754 0.78937 0.0
C672 C 0.6971 0.19056 0.36856 0.0
C673 C 0.73454 0.20137 0.37008 0.0
C674 C 0.68141 0.17686 0.33716 0.0
C675 C 0.70381 0.17438 0.30661 0.0
C676 C 0.74166 0.18504 0.30807 0.0
C677 C 0.7566 0.19826 0.33995 0.0
C678 C 0.64094 0.16532 0.33659 0.0
C679 C 0.76632 0.18313 0.27585 0.0
C680 C 0.66494 0.11384 0.23064 0.0
C681 C 0.6571 0.13703 0.20871 0.0
C682 C 0.67994 0.12561 0.26282 0.0
C683 C 0.68764 0.16141 0.27287 0.0
C684 C 0.67993 0.18495 0.25069 0.0
C685 C 0.6645 0.17239 0.2189 0.0
C686 C 0.68739 0.09976 0.28612 0.0
C687 C 0.6882 0.22339 0.26042 0.0
H688 H 0.68011 0.19269 0.39205 0.0
H689 H 0.78557 0.20695 0.34116 0.0
H690 H 0.63199 0.18114 0.31833 0.0
H691 H 0.63193 0.1378 0.32677 0.0
H692 H 0.62741 0.16783 0.36295 0.0
H693 H 0.79515 0.192 0.28161 0.0
H694 H 0.76037 0.15603 0.26465 0.0
H695 H 0.76163 0.19951 0.25543 0.0
H696 H 0.65888 0.08643 0.22279 0.0
H697 H 0.65874 0.19032 0.20167 0.0
H698 H 0.67261 0.10047 0.31208 0.0
H699 H 0.71645 0.10685 0.29072 0.0
H700 H 0.67941 0.07274 0.27459 0.0
H701 H 0.67338 0.22762 0.28558 0.0
H702 H 0.68087 0.23822 0.24003 0.0
H703 H 0.71731 0.23414 0.26435 0.0
C704 C 0.38828 0.65223 0.32441 0.0
C705 C 0.41214 0.68185 0.30906 0.0
C706 C 0.39806 0.63508 0.35252 0.0
C707 C 0.43286 0.64705 0.36639 0.0
C708 C 0.45687 0.67681 0.35077 0.0
C709 C 0.44637 0.69349 0.32307 0.0
C710 C 0.37083 0.60394 0.3676 0.0
C711 C 0.49422 0.69127 0.36332 0.0
C712 C 0.45331 0.62381 0.4599 0.0
C713 C 0.47031 0.59683 0.45299 0.0
C714 C 0.44047 0.63946 0.43272 0.0
C715 C 0.44453 0.62876 0.39657 0.0
C716 C 0.46154 0.60144 0.38948 0.0
C717 C 0.47382 0.58604 0.41719 0.0
C718 C 0.42265 0.66794 0.44289 0.0
C719 C 0.46735 0.58861 0.35215 0.0
H720 H 0.36173 0.64244 0.31463 0.0
H721 H 0.4655 0.71612 0.31209 0.0
H722 H 0.38154 0.58091 0.36429 0.0
H723 H 0.36579 0.60877 0.3962 0.0
H724 H 0.34489 0.59776 0.35493 0.0
H725 H 0.5101 0.71424 0.34874 0.0
H726 H 0.49264 0.69898 0.39166 0.0
H727 H 0.5088 0.67095 0.36025 0.0
H728 H 0.45002 0.63299 0.48688 0.0
H729 H 0.48673 0.56553 0.41055 0.0
H730 H 0.3958 0.66145 0.432 0.0
H731 H 0.43892 0.69262 0.43151 0.0
H732 H 0.41936 0.67224 0.47181 0.0
H733 H 0.44131 0.57984 0.33965 0.0
H734 H 0.47993 0.56677 0.35045 0.0
H735 H 0.48489 0.6102 0.3368 0.0
C736 C 0.16584 0.45163 0.84931 0.0
C737 C 0.15179 0.44235 0.8163 0.0
C738 C 0.14792 0.46734 0.87622 0.0
C739 C 0.11567 0.47524 0.86969 0.0
C740 C 0.1014 0.466 0.83626 0.0
C741 C 0.11932 0.44919 0.81016 0.0
C742 C 0.16364 0.47565 0.91163 0.0
C743 C 0.06774 0.47478 0.82772 0.0
C744 C 0.0536 0.49394 0.94702 0.0
C745 C 0.06543 0.53031 0.95126 0.0
C746 C 0.06991 0.47564 0.921 0.0
C747 C 0.09773 0.4942 0.89747 0.0
C748 C 0.10901 0.53104 0.90102 0.0
C749 C 0.0932 0.54853 0.92813 0.0
C750 C 0.05768 0.4364 0.91901 0.0
C751 C 0.13776 0.55207 0.87603 0.0
H752 H 0.19089 0.4463 0.85421 0.0
H753 H 0.1085 0.44241 0.78459 0.0
H754 H 0.17203 0.50422 0.91694 0.0
H755 H 0.14303 0.46435 0.93261 0.0
H756 H 0.18733 0.46554 0.91334 0.0
H757 H 0.06 0.4658 0.80064 0.0
H758 H 0.04506 0.46274 0.84647 0.0
H759 H 0.07192 0.50335 0.83052 0.0
H760 H 0.03164 0.47966 0.96412 0.0
H761 H 0.1023 0.57666 0.93089 0.0
H762 H 0.08093 0.42583 0.92131 0.0
H763 H 0.04673 0.42694 0.89318 0.0
H764 H 0.03672 0.42578 0.93999 0.0
H765 H 0.1636 0.546 0.87863 0.0
H766 H 0.14195 0.58052 0.88091 0.0
H767 H 0.13038 0.54506 0.84854 0.0
C768 C 0.64098 0.88732 0.87054 0.0
C769 C 0.62759 0.85233 0.8794 0.0
C770 C 0.6239 0.91248 0.88375 0.0
C771 C 0.59322 0.90281 0.90732 0.0
C772 C 0.57879 0.86748 0.9156 0.0
C773 C 0.59593 0.84262 0.90127 0.0
C774 C 0.63988 0.9498 0.87388 0.0
C775 C 0.54637 0.85623 0.94105 0.0
C776 C 0.58141 0.97212 0.97577 0.0
C777 C 0.55283 0.98231 0.96371 0.0
C778 C 0.59443 0.94611 0.95778 0.0
C779 C 0.57902 0.93023 0.92646 0.0
C780 C 0.55071 0.94087 0.91359 0.0
C781 C 0.53765 0.96658 0.9326 0.0
C782 C 0.62435 0.93524 0.97268 0.0
C783 C 0.53421 0.92502 0.87986 0.0
H784 H 0.66578 0.89555 0.85435 0.0
H785 H 0.58492 0.81566 0.90784 0.0
H786 H 0.61857 0.96116 0.86666 0.0
H787 H 0.65271 0.9655 0.89673 0.0
H788 H 0.66049 0.95221 0.8516 0.0
H789 H 0.53665 0.82749 0.94245 0.0
H790 H 0.55336 0.8676 0.96766 0.0
H791 H 0.5241 0.86603 0.93347 0.0
H792 H 0.59307 0.98378 1.0 0.0
H793 H 0.51553 0.97428 0.92315 0.0
H794 H 0.6481 0.93981 0.95363 0.0
H795 H 0.61555 0.90698 0.97733 0.0
H796 H 0.63279 0.94961 0.99779 0.0
H797 H 0.55532 0.92855 0.85801 0.0
H798 H 0.513 0.93675 0.87296 0.0
H799 H 0.52224 0.89663 0.88217 0.0
C800 C 0.86168 0.18471 0.5377 0.0
C801 C 0.85153 0.18428 0.50337 0.0
C802 C 0.88191 0.16277 0.54655 0.0
C803 C 0.89191 0.13991 0.52039 0.0
C804 C 0.88168 0.1394 0.48571 0.0
C805 C 0.86173 0.16167 0.47758 0.0
C806 C 0.89266 0.16406 0.58377 0.0
C807 C 0.89186 0.11533 0.45713 0.0
C808 C 0.97225 0.10652 0.5312 0.0
C809 C 0.9557 0.07284 0.54232 0.0
C810 C 0.95176 0.1288 0.52444 0.0
C811 C 0.91385 0.11701 0.52885 0.0
C812 C 0.89695 0.08292 0.53988 0.0
C813 C 0.91818 0.06116 0.54654 0.0
C814 C 0.9707 0.16497 0.51263 0.0
C815 C 0.85653 0.06945 0.54453 0.0
H816 H 0.85373 0.20215 0.55759 0.0
H817 H 0.854 0.16108 0.45092 0.0
H818 H 0.88216 0.13798 0.59485 0.0
H819 H 0.92239 0.17123 0.58409 0.0
H820 H 0.88248 0.1831 0.60105 0.0
H821 H 0.88116 0.1177 0.43162 0.0
H822 H 0.92155 0.12115 0.45343 0.0
H823 H 0.88149 0.08794 0.46484 0.0
H824 H 1.00132 0.11574 0.52836 0.0
H825 H 0.90546 1.03513 0.55528 0.0
H826 H 0.96301 0.18464 0.53104 0.0
H827 H 0.96229 0.16844 0.48639 0.0
H828 H 1.00044 0.17027 0.51112 0.0
H829 H 0.84577 0.08665 0.56367 0.0
H830 H 0.84767 0.04251 0.55385 0.0
H831 H 0.84451 0.06978 0.51926 0.0
C832 C 0.2784 0.6864 0.13207 0.0
C833 C 0.28032 0.68636 0.16881 0.0
C834 C 0.24651 0.6693 0.11479 0.0
C835 C 0.21444 0.6517 0.1342 0.0
C836 C 0.21614 0.65147 0.17129 0.0
C837 C 0.24867 0.66823 0.18786 0.0
C838 C 0.24724 0.6701 0.07539 0.0
C839 C 0.18317 0.63395 0.19378 0.0
C840 C 0.12288 0.63767 0.0917 0.0
C841 C 0.11343 0.60221 0.0804 0.0
C842 C 0.15484 0.65364 0.10934 0.0
C843 C 0.17931 0.63436 0.11584 0.0
C844 C 0.17006 0.59858 0.10421 0.0
C845 C 0.13754 0.58309 0.0872 0.0
C846 C 0.16228 0.69143 0.12139 0.0
C847 C 0.1948 0.5765 0.10948 0.0
H848 H 0.30226 0.69962 0.11646 0.0
H849 H 0.24897 0.66788 0.21612 0.0
H850 H 0.23878 0.64318 0.06377 0.0
H851 H 0.22785 0.68379 0.06804 0.0
H852 H 0.27433 0.68338 0.06363 0.0
H853 H 0.18836 0.6358 0.22207 0.0
H854 H 0.16124 0.64604 0.19037 0.0
H855 H 0.17344 0.60609 0.18534 0.0
H856 H 0.10488 0.6531 0.08721 0.0
H857 H 0.13118 0.55579 0.0789 0.0
H858 H 0.18782 0.70668 0.10828 0.0
H859 H 0.16559 0.69427 0.15007 0.0
H860 H 0.14042 0.7028 0.11565 0.0
H861 H 0.22171 0.58812 0.09645 0.0
H862 H 0.18443 0.54936 0.09881 0.0
H863 H 0.19847 0.57583 0.13785 0.0
C864 C 0.26254 0.45022 0.66245 0.0
C865 C 0.25855 0.41579 0.67123 0.0
C866 C 0.29362 0.4692 0.6433 0.0
C867 C 0.32153 0.45349 0.6327 0.0
C868 C 0.31803 0.41907 0.64229 0.0
C869 C 0.28672 0.40074 0.66136 0.0
C870 C 0.2962 0.50578 0.63368 0.0
C871 C 0.34714 0.40132 0.63186 0.0
C872 C 0.38636 0.4841 0.5534 0.0
C873 C 0.41767 0.50303 0.5693 0.0
C874 C 0.3546 0.4688 0.57367 0.0
C875 C 0.35404 0.47245 0.61082 0.0
C876 C 0.38529 0.49255 0.62694 0.0
C877 C 0.41667 0.50758 0.60602 0.0
C878 C 0.32194 0.44778 0.55531 0.0
C879 C 0.38598 0.49721 0.66636 0.0
H880 H 0.24085 0.46202 0.66961 0.0
H881 H 0.28422 0.37438 0.66846 0.0
H882 H 0.32142 0.52397 0.64267 0.0
H883 H 0.29717 0.50699 0.60472 0.0
H884 H 0.27308 0.51492 0.64528 0.0
H885 H 0.3408 0.37486 0.64217 0.0
H886 H 0.35088 0.39912 0.60283 0.0
H887 H 0.37309 0.4171 0.64171 0.0
H888 H 0.38689 0.48057 0.52505 0.0
H889 H 0.44077 0.52214 0.61853 0.0
H890 H 0.29822 0.45711 0.56435 0.0
H891 H 0.31565 0.42012 0.56207 0.0
H892 H 0.32595 0.44919 0.52632 0.0
H893 H 0.36316 0.50705 0.6774 0.0
H894 H 0.41145 0.51552 0.67476 0.0
H895 H 0.3828 0.4717 0.6778 0.0
C896 C 0.73794 0.73698 0.93242 0.0
C897 C 0.7153 0.71429 0.90915 0.0
C898 C 0.76741 0.72836 0.94462 0.0
C899 C 0.77402 0.69612 0.93363 0.0
C900 C 0.75043 0.67264 0.91112 0.0
C901 C 0.72152 0.68217 0.89891 0.0
C902 C 0.79221 0.75427 0.96825 0.0
C903 C 0.75623 0.6378 0.89926 0.0
C904 C 0.86928 0.68805 0.9332 0.0
C905 C 0.86824 0.67129 0.96451 0.0
C906 C 0.83892 0.69655 0.92306 0.0
C907 C 0.80647 0.6876 0.94442 0.0
C908 C 0.80505 0.67042 0.97586 0.0
C909 C 0.83599 0.66273 0.98567 0.0
C910 C 0.84157 0.7151 0.88941 0.0
C911 C 0.77083 0.66014 0.99914 0.0
H912 H 0.7334 0.76198 0.94022 0.0
H913 H 0.704 0.66465 0.88089 0.0
H914 H 0.79492 0.74193 0.99262 0.0
H915 H 0.81943 0.76286 0.95483 0.0
H916 H 0.78253 0.77756 0.97552 0.0
H917 H 0.73412 0.62162 0.88366 0.0
H918 H 0.78188 0.64171 0.88296 0.0
H919 H 0.75841 0.62326 0.9223 0.0
H920 H 0.89378 0.69425 0.91632 0.0
H921 H 0.83496 0.65032 1.01019 0.0
H922 H 0.83407 0.73979 0.8949 0.0
H923 H 0.8224 0.69882 0.87097 0.0
H924 H 0.86904 0.7211 0.87627 0.0
H925 H 0.76229 0.68361 1.00839 0.0
H926 H 0.77396 0.64628 1.02237 0.0
H927 H 0.74889 0.64304 0.984 0.0
C928 C 0.42275 0.8032 0.16232 0.0
C929 C 0.38711 0.7946 0.17728 0.0
C930 C 0.43906 0.83565 0.14616 0.0
C931 C 0.42012 0.86147 0.14527 0.0
C932 C 0.38444 0.85312 0.16113 0.0
C933 C 0.36847 0.82016 0.17612 0.0
C934 C 0.47662 0.84201 0.12924 0.0
C935 C 0.36287 0.87924 0.16245 0.0
C936 C 0.47602 0.95819 0.13373 0.0
C937 C 0.47171 0.96484 0.09876 0.0
C938 C 0.45913 0.9256 0.14899 0.0
C939 C 0.43774 0.89727 0.12894 0.0
C940 C 0.43329 0.90374 0.09347 0.0
C941 C 0.44971 0.93714 0.07911 0.0
C942 C 0.46434 0.92157 0.18697 0.0
C943 C 0.41184 0.8749 0.07017 0.0
H944 H 0.43763 0.78397 0.16216 0.0
H945 H 0.34098 0.81437 0.18722 0.0
H946 H 0.47677 0.84803 0.10132 0.0
H947 H 0.49486 0.8649 0.14238 0.0
H948 H 0.48747 0.81927 0.13052 0.0
H949 H 0.3362 0.86983 0.17683 0.0
H950 H 0.37789 0.90402 0.17545 0.0
H951 H 0.35867 0.88506 0.13544 0.0
H952 H 0.4929 0.97883 0.14953 0.0
H953 H 0.44635 0.9411 0.05199 0.0
H954 H 0.47889 0.90163 0.18895 0.0
H955 H 0.43784 0.91241 0.20165 0.0
H956 H 0.47975 0.94628 0.19985 0.0
H957 H 0.42359 0.85252 0.0686 0.0
H958 H 0.41119 0.8833 0.04319 0.0
H959 H 0.38384 0.86555 0.08157 0.0
C960 C 0.184 0.28132 0.67086 0.0
C961 C 0.16124 0.3029 0.67938 0.0
C962 C 0.17082 0.24726 0.65651 0.0
C963 C 0.13385 0.23415 0.65042 0.0
C964 C 0.11052 0.25542 0.65982 0.0
C965 C 0.12444 0.28942 0.67419 0.0
C966 C 0.19669 0.22558 0.64712 0.0
C967 C 0.07095 0.2426 0.65372 0.0
C968 C 0.10639 0.16312 0.57846 0.0
C969 C 0.09245 0.13298 0.59763 0.0
C970 C 0.12008 0.19593 0.59528 0.0
C971 C 0.12004 0.19904 0.63237 0.0
C972 C 0.10671 0.16869 0.65193 0.0
C973 C 0.0931 0.13609 0.63438 0.0
C974 C 0.13411 0.22742 0.57327 0.0
C975 C 0.10626 0.17076 0.69148 0.0
H976 H 0.21236 0.29115 0.67531 0.0
H977 H 0.10662 0.30585 0.68038 0.0
H978 H 0.18702 0.20025 0.65981 0.0
H979 H 0.1981 0.21994 0.61834 0.0
H980 H 0.22424 0.23881 0.65518 0.0
H981 H 0.056 0.26142 0.66426 0.0
H982 H 0.06734 0.238 0.62517 0.0
H983 H 0.05888 0.21741 0.66623 0.0
H984 H 0.10613 0.16127 0.55009 0.0
H985 H 0.08231 0.11314 0.64955 0.0
H986 H 0.16243 0.2407 0.57871 0.0
H987 H 0.11823 0.24631 0.58028 0.0
H988 H 0.1328 0.22061 0.5447 0.0
H989 H 0.13375 0.18309 0.70004 0.0
H990 H 0.09603 0.14476 0.70286 0.0
H991 H 0.08902 0.18737 0.70237 0.0
C992 C 0.73848 0.3141 0.44939 0.0
C993 C 0.74336 0.28838 0.47002 0.0
C994 C 0.71981 0.33767 0.46311 0.0
C995 C 0.70675 0.33624 0.49877 0.0
C996 C 0.7153 0.31302 0.5208 0.0
C997 C 0.73323 0.28892 0.50601 0.0
C998 C 0.71138 0.36198 0.43854 0.0
C999 C 0.70349 0.31188 0.55933 0.0
C1000 C 0.667 0.41136 0.51912 0.0
C1001 C 0.63126 0.39591 0.51078 0.0
C1002 C 0.69133 0.3913 0.51981 0.0
C1003 C 0.67994 0.35534 0.51064 0.0
C1004 C 0.6432 0.33914 0.50561 0.0
C1005 C 0.6192 0.35958 0.50637 0.0
C1006 C 0.72984 0.4091 0.52745 0.0
C1007 C 0.62981 0.30074 0.496 0.0
H1008 H 0.74739 0.3144 0.42179 0.0
H1009 H 0.73735 0.26931 0.52217 0.0
H1010 H 0.6819 0.35528 0.43611 0.0
H1011 H 0.72011 0.38922 0.44913 0.0
H1012 H 0.72467 0.36057 0.41188 0.0
H1013 H 0.72173 0.30209 0.57434 0.0
H1014 H 0.70266 0.33792 0.57057 0.0
H1015 H 0.67611 0.29389 0.56288 0.0
H1016 H 0.67675 0.43935 0.52299 0.0
H1017 H 0.59128 0.3472 0.50156 0.0
H1018 H 0.74628 0.41511 0.50241 0.0
H1019 H 0.74131 0.39204 0.54193 0.0
H1020 H 0.73213 0.43393 0.54305 0.0
H1021 H 0.64158 0.29523 0.46958 0.0
H1022 H 0.60005 0.29175 0.49562 0.0
H1023 H 0.63847 0.28531 0.51483 0.0
loop_
_geom_bond_atom_site_label_1
_geom_bond_atom_site_label_2
_geom_bond_distance
_geom_bond_site_symmetry_2
_ccdc_geom_bond_type
H0 C5 0.930 . S
H1 C8 0.930 . S
H2 C10 0.930 . S
H3 C4 1.016 . S
C4 H3 1.016 . S
C4 N11 1.286 . S
C5 H0 0.930 . S
C5 C6 1.397 . S
C5 C7 1.361 . S
C6 C5 1.397 . S
C6 C10 1.390 . S
C7 C5 1.361 . S
C7 C8 1.393 . S
C7 N11 1.413 . S
C8 H1 0.930 . S
C8 C7 1.393 . S
C8 C9 1.399 . S
C9 C8 1.399 . S
C9 C10 1.381 . S
C10 H2 0.930 . S
C10 C6 1.390 . S
C10 C9 1.381 . S
N11 C4 1.286 . S
N11 C7 1.413 . S
H12 C17 0.930 . S
H13 C20 0.930 . S
H14 C22 0.930 . S
H15 C16 1.016 . S
C16 H15 1.016 . S
C16 N23 1.286 . S
C17 H12 0.930 . S
C17 C18 1.397 . S
C17 C19 1.361 . S
C18 C17 1.397 . S
C18 C22 1.390 . S
C19 C17 1.361 . S
C19 C20 1.393 . S
C19 N23 1.413 . S
C20 H13 0.930 . S
C20 C19 1.393 . S
C20 C21 1.399 . S
C21 C20 1.399 . S
C21 C22 1.381 . S
C22 H14 0.930 . S
C22 C18 1.390 . S
C22 C21 1.381 . S
N23 C16 1.286 . S
N23 C19 1.413 . S
H24 C29 0.930 . S
H25 C32 0.930 . S
H26 C34 0.930 . S
H27 C28 1.016 . S
C28 H27 1.016 . S
C28 N35 1.286 . S
C29 H24 0.930 . S
C29 C30 1.397 . S
C29 C31 1.361 . S
C30 C29 1.397 . S
C30 C34 1.390 . S
C31 C29 1.361 . S
C31 C32 1.393 . S
C31 N35 1.413 . S
C32 H25 0.930 . S
C32 C31 1.393 . S
C32 C33 1.399 . S
C33 C32 1.399 . S
C33 C34 1.381 . S
C34 H26 0.930 . S
C34 C30 1.390 . S
C34 C33 1.381 . S
N35 C28 1.286 . S
N35 C31 1.413 . S
H36 C41 0.930 . S
H37 C44 0.930 . S
H38 C46 0.930 . S
H39 C40 1.016 . S
C40 H39 1.016 . S
C40 N47 1.286 . S
C41 H36 0.930 . S
C41 C42 1.397 . S
C41 C43 1.361 . S
C42 C41 1.397 . S
C42 C46 1.390 . S
C43 C41 1.361 . S
C43 C44 1.393 . S
C43 N47 1.413 . S
C44 H37 0.930 . S
C44 C43 1.393 . S
C44 C45 1.399 . S
C45 C44 1.399 . S
C45 C46 1.381 . S
C46 H38 0.930 . S
C46 C42 1.390 . S
C46 C45 1.381 . S
N47 C40 1.286 . S
N47 C43 1.413 . S
H48 C53 0.930 . S
H49 C56 0.930 . S
H50 C58 0.930 . S
H51 C52 1.016 . S
C52 H51 1.016 . S
C52 N59 1.286 . S
C53 H48 0.930 . S
C53 C54 1.397 . S
C53 C55 1.361 . S
C54 C53 1.397 . S
C54 C58 1.390 . S
C55 C53 1.361 . S
C55 C56 1.393 . S
C55 N59 1.413 . S
C56 H49 0.930 . S
C56 C55 1.393 . S
C56 C57 1.399 . S
C57 C56 1.399 . S
C57 C58 1.381 . S
C58 H50 0.930 . S
C58 C54 1.390 . S
C58 C57 1.381 . S
N59 C52 1.286 . S
N59 C55 1.413 . S
H60 C65 0.930 . S
H61 C68 0.930 . S
H62 C70 0.930 . S
H63 C64 1.016 . S
C64 H63 1.016 . S
C64 N71 1.286 . S
C65 H60 0.930 . S
C65 C66 1.397 . S
C65 C67 1.361 . S
C66 C65 1.397 . S
C66 C70 1.390 . S
C67 C65 1.361 . S
C67 C68 1.393 . S
C67 N71 1.413 . S
C68 H61 0.930 . S
C68 C67 1.393 . S
C68 C69 1.399 . S
C69 C68 1.399 . S
C69 C70 1.381 . S
C70 H62 0.930 . S
C70 C66 1.390 . S
C70 C69 1.381 . S
N71 C64 1.286 . S
N71 C67 1.413 . S
H72 C77 0.930 . S
H73 C80 0.930 . S
H74 C82 0.930 . S
H75 C76 1.016 . S
C76 H75 1.016 . S
C76 N83 1.286 . S
C77 H72 0.930 . S
C77 C78 1.397 . S
C77 C79 1.361 . S
C78 C77 1.397 . S
C78 C82 1.390 . S
C79 C77 1.361 . S
C79 C80 1.393 . S
C79 N83 1.413 . S
C80 H73 0.930 . S
C80 C79 1.393 . S
C80 C81 1.399 . S
C81 C80 1.399 . S
C81 C82 1.381 . S
C82 H74 0.930 . S
C82 C78 1.390 . S
C82 C81 1.381 . S
N83 C76 1.286 . S
N83 C79 1.413 . S
H84 C89 0.930 . S
H85 C92 0.930 . S
H86 C94 0.930 . S
H87 C88 1.016 . S
C88 H87 1.016 . S
C88 N95 1.286 . S
C89 H84 0.930 . S
C89 C90 1.397 . S
C89 C91 1.361 . S
C90 C89 1.397 . S
C90 C94 1.390 . S
C91 C89 1.361 . S
C91 C92 1.393 . S
C91 N95 1.413 . S
C92 H85 0.930 . S
C92 C91 1.393 . S
C92 C93 1.399 . S
C93 C92 1.399 . S
C93 C94 1.381 . S
C94 H86 0.930 . S
C94 C90 1.390 . S
C94 C93 1.381 . S
N95 C88 1.286 . S
N95 C91 1.413 . S
La96 C98 2.928 . S
La96 O116 2.521 . S
La96 O117 2.628 . S
La96 O118 2.554 1_545 S
La96 O119 2.757 1_545 S
La96 O120 2.470 . S
La96 O125 2.482 1_455 S
La96 O127 2.503 1_445 S
La97 C107 2.936 . S
La97 O119 2.487 1_655 S
La97 O121 2.496 1_665 S
La97 O122 2.524 . S
La97 O123 2.637 . S
La97 O124 2.547 1_565 S
La97 O125 2.751 1_565 S
La97 O126 2.475 . S
C98 La96 2.928 . S
C98 C99 1.503 . S
C98 O116 1.261 . S
C98 O117 1.243 . S
C99 C98 1.503 . S
C99 C100 1.394 . S
C99 C104 1.373 . S
C100 C99 1.394 . S
C100 C101 1.380 . S
C100 H128 0.930 . S
C101 C100 1.380 . S
C101 C102 1.376 . S
C101 H129 0.930 . S
C102 C101 1.376 . S
C102 C103 1.370 . S
C103 C102 1.370 . S
C103 C104 1.396 . S
C103 H130 0.929 . S
C104 C99 1.373 . S
C104 C103 1.396 . S
C104 H131 0.929 . S
C105 O118 1.240 . S
C105 O119 1.289 . S
C106 O120 1.258 . S
C106 O121 1.256 . S
C107 La97 2.936 . S
C107 C108 1.503 . S
C107 O122 1.261 . S
C107 O123 1.243 . S
C108 C107 1.503 . S
C108 C109 1.394 . S
C108 C113 1.373 . S
C109 C108 1.394 . S
C109 C110 1.380 . S
C109 H132 0.930 . S
C110 C109 1.380 . S
C110 C111 1.376 . S
C110 H133 0.930 . S
C111 C110 1.376 . S
C111 C112 1.370 . S
C112 C111 1.370 . S
C112 C113 1.396 . S
C112 H134 0.929 . S
C113 C108 1.373 . S
C113 C112 1.396 . S
C113 H135 0.929 . S
C114 O124 1.240 . S
C114 O125 1.289 . S
C115 O126 1.258 . S
C115 O127 1.256 . S
O116 La96 2.521 . S
O116 C98 1.261 . S
O117 La96 2.628 . S
O117 C98 1.243 . S
O118 La96 2.554 1_565 S
O118 C105 1.240 . S
O119 La96 2.757 1_565 S
O119 La97 2.487 1_455 S
O119 C105 1.289 . S
O120 La96 2.470 . S
O120 C106 1.258 . S
O121 La97 2.496 1_445 S
O121 C106 1.256 . S
O122 La97 2.524 . S
O122 C107 1.261 . S
O123 La97 2.637 . S
O123 C107 1.243 . S
O124 La97 2.547 1_545 S
O124 C114 1.240 . S
O125 La96 2.482 1_655 S
O125 La97 2.751 1_545 S
O125 C114 1.289 . S
O126 La97 2.475 . S
O126 C115 1.258 . S
O127 La96 2.503 1_665 S
O127 C115 1.256 . S
H128 C100 0.930 . S
H129 C101 0.930 . S
H130 C103 0.929 . S
H131 C104 0.929 . S
H132 C109 0.930 . S
H133 C110 0.930 . S
H134 C112 0.929 . S
H135 C113 0.929 . S
La136 C138 2.928 . S
La136 O156 2.521 . S
La136 O157 2.628 . S
La136 O158 2.554 1_545 S
La136 O159 2.757 1_545 S
La136 O160 2.470 . S
La136 O165 2.483 . S
La136 O167 2.503 1_544 S
La137 C147 2.928 1_545 S
La137 O159 2.482 1_546 S
La137 O161 2.503 1_556 S
La137 O162 2.521 1_545 S
La137 O163 2.628 1_545 S
La137 O164 2.554 . S
La137 O165 2.756 1_556 S
La137 O166 2.470 1_545 S
C138 La136 2.928 . S
C138 C139 1.503 . S
C138 O156 1.261 . S
C138 O157 1.243 . S
C139 C138 1.503 . S
C139 C140 1.394 . S
C139 C144 1.373 . S
C140 C139 1.394 . S
C140 C141 1.380 . S
C140 H168 0.930 . S
C141 C140 1.380 . S
C141 C142 1.376 . S
C141 H169 0.930 . S
C142 C141 1.376 . S
C142 C143 1.370 . S
C143 C142 1.370 . S
C143 C144 1.396 . S
C143 H170 0.929 . S
C144 C139 1.373 . S
C144 C143 1.396 . S
C144 H171 0.929 . S
C145 O158 1.240 . S
C145 O159 1.289 . S
C146 O160 1.258 . S
C146 O161 1.256 . S
C147 La137 2.928 1_565 S
C147 C148 1.503 . S
C147 O162 1.261 . S
C147 O163 1.243 . S
C148 C147 1.503 . S
C148 C149 1.394 . S
C148 C153 1.373 . S
C149 C148 1.394 . S
C149 C150 1.380 . S
C149 H172 0.930 . S
C150 C149 1.380 . S
C150 C151 1.376 . S
C150 H173 0.930 . S
C151 C150 1.376 . S
C151 C152 1.370 . S
C152 C151 1.370 . S
C152 C153 1.396 . S
C152 H174 0.929 . S
C153 C148 1.373 . S
C153 C152 1.396 . S
C153 H175 0.929 . S
C154 O164 1.240 . S
C154 O165 1.288 1_556 S
C155 O166 1.258 . S
C155 O167 1.256 . S
O156 La136 2.521 . S
O156 C138 1.261 . S
O157 La136 2.628 . S
O157 C138 1.243 . S
O158 La136 2.554 1_565 S
O158 C145 1.240 . S
O159 La136 2.757 1_565 S
O159 La137 2.482 1_564 S
O159 C145 1.289 . S
O160 La136 2.470 . S
O160 C146 1.258 . S
O161 La137 2.503 1_554 S
O161 C146 1.256 . S
O162 La137 2.521 1_565 S
O162 C147 1.261 . S
O163 La137 2.628 1_565 S
O163 C147 1.243 . S
O164 La137 2.554 . S
O164 C154 1.240 . S
O165 La136 2.483 . S
O165 La137 2.756 1_554 S
O165 C154 1.288 1_554 S
O166 La137 2.470 1_565 S
O166 C155 1.258 . S
O167 La136 2.503 1_566 S
O167 C155 1.256 . S
H168 C140 0.930 . S
H169 C141 0.930 . S
H170 C143 0.929 . S
H171 C144 0.929 . S
H172 C149 0.930 . S
H173 C150 0.930 . S
H174 C152 0.929 . S
H175 C153 0.929 . S
La176 C178 2.928 . S
La176 O196 2.521 . S
La176 O197 2.628 . S
La176 O198 2.554 . S
La176 O199 2.757 . S
La176 O200 2.470 . S
La176 O205 2.482 . S
La176 O207 2.503 . S
La177 C187 2.928 . S
La177 O199 2.482 . S
La177 O201 2.503 . S
La177 O202 2.521 . S
La177 O203 2.628 . S
La177 O204 2.554 . S
La177 O205 2.757 . S
La177 O206 2.470 . S
C178 La176 2.928 . S
C178 C179 1.503 . S
C178 O196 1.261 . S
C178 O197 1.243 . S
C179 C178 1.503 . S
C179 C180 1.394 . S
C179 C184 1.373 . S
C180 C179 1.394 . S
C180 C181 1.380 . S
C180 H208 0.930 . S
C181 C180 1.380 . S
C181 C182 1.376 . S
C181 H209 0.930 . S
C182 C181 1.376 . S
C182 C183 1.370 . S
C183 C182 1.370 . S
C183 C184 1.396 . S
C183 H210 0.929 . S
C184 C179 1.373 . S
C184 C183 1.396 . S
C184 H211 0.929 . S
C185 O198 1.240 . S
C185 O199 1.289 . S
C186 O200 1.258 . S
C186 O201 1.256 . S
C187 La177 2.928 . S
C187 C188 1.503 . S
C187 O202 1.261 . S
C187 O203 1.243 . S
C188 C187 1.503 . S
C188 C189 1.394 . S
C188 C193 1.373 . S
C189 C188 1.394 . S
C189 C190 1.380 . S
C189 H212 0.930 . S
C190 C189 1.380 . S
C190 C191 1.376 . S
C190 H213 0.930 . S
C191 C190 1.376 . S
C191 C192 1.370 . S
C192 C191 1.370 . S
C192 C193 1.396 . S
C192 H214 0.929 . S
C193 C188 1.373 . S
C193 C192 1.396 . S
C193 H215 0.929 . S
C194 O204 1.240 . S
C194 O205 1.289 . S
C195 O206 1.258 . S
C195 O207 1.256 . S
O196 La176 2.521 . S
O196 C178 1.261 . S
O197 La176 2.628 . S
O197 C178 1.243 . S
O198 La176 2.554 . S
O198 C185 1.240 . S
O199 La176 2.757 . S
O199 La177 2.482 . S
O199 C185 1.289 . S
O200 La176 2.470 . S
O200 C186 1.258 . S
O201 La177 2.503 . S
O201 C186 1.256 . S
O202 La177 2.521 . S
O202 C187 1.261 . S
O203 La177 2.628 . S
O203 C187 1.243 . S
O204 La177 2.554 . S
O204 C194 1.240 . S
O205 La176 2.482 . S
O205 La177 2.757 . S
O205 C194 1.289 . S
O206 La177 2.470 . S
O206 C195 1.258 . S
O207 La176 2.503 . S
O207 C195 1.256 . S
H208 C180 0.930 . S
H209 C181 0.930 . S
H210 C183 0.929 . S
H211 C184 0.929 . S
H212 C189 0.930 . S
H213 C190 0.930 . S
H214 C192 0.929 . S
H215 C193 0.929 . S
La216 C218 2.928 . S
La216 O236 2.521 . S
La216 O237 2.628 . S
La216 O238 2.554 1_455 S
La216 O239 2.757 1_455 S
La216 O240 2.470 . S
La216 O245 2.482 1_554 S
La216 O247 2.503 1_454 S
La217 C227 2.928 1_455 S
La217 O239 2.482 1_456 S
La217 O241 2.503 1_556 S
La217 O242 2.521 1_455 S
La217 O243 2.628 1_455 S
La217 O244 2.554 . S
La217 O245 2.757 . S
La217 O246 2.470 1_455 S
C218 La216 2.928 . S
C218 C219 1.503 . S
C218 O236 1.261 . S
C218 O237 1.243 . S
C219 C218 1.503 . S
C219 C220 1.394 . S
C219 C224 1.373 . S
C220 C219 1.394 . S
C220 C221 1.380 . S
C220 H248 0.930 . S
C221 C220 1.380 . S
C221 C222 1.376 . S
C221 H249 0.930 . S
C222 C221 1.376 . S
C222 C223 1.370 . S
C223 C222 1.370 . S
C223 C224 1.396 . S
C223 H250 0.929 . S
C224 C219 1.373 . S
C224 C223 1.396 . S
C224 H251 0.929 . S
C225 O238 1.240 . S
C225 O239 1.289 . S
C226 O240 1.258 . S
C226 O241 1.256 . S
C227 La217 2.928 1_655 S
C227 C228 1.503 . S
C227 O242 1.261 . S
C227 O243 1.243 . S
C228 C227 1.503 . S
C228 C229 1.394 . S
C228 C233 1.373 . S
C229 C228 1.394 . S
C229 C230 1.380 . S
C229 H252 0.930 . S
C230 C229 1.380 . S
C230 C231 1.376 . S
C230 H253 0.930 . S
C231 C230 1.376 . S
C231 C232 1.370 . S
C232 C231 1.370 . S
C232 C233 1.396 . S
C232 H254 0.929 . S
C233 C228 1.373 . S
C233 C232 1.396 . S
C233 H255 0.929 . S
C234 O244 1.240 . S
C234 O245 1.289 . S
C235 O246 1.258 . S
C235 O247 1.256 . S
O236 La216 2.521 . S
O236 C218 1.261 . S
O237 La216 2.628 . S
O237 C218 1.243 . S
O238 La216 2.554 1_655 S
O238 C225 1.240 . S
O239 La216 2.757 1_655 S
O239 La217 2.482 1_654 S
O239 C225 1.289 . S
O240 La216 2.470 . S
O240 C226 1.258 . S
O241 La217 2.503 1_554 S
O241 C226 1.256 . S
O242 La217 2.521 1_655 S
O242 C227 1.261 . S
O243 La217 2.628 1_655 S
O243 C227 1.243 . S
O244 La217 2.554 . S
O244 C234 1.240 . S
O245 La216 2.482 1_556 S
O245 La217 2.757 . S
O245 C234 1.289 . S
O246 La217 2.470 1_655 S
O246 C235 1.258 . S
O247 La216 2.503 1_656 S
O247 C235 1.256 . S
H248 C220 0.930 . S
H249 C221 0.930 . S
H250 C223 0.929 . S
H251 C224 0.929 . S
H252 C229 0.930 . S
H253 C230 0.930 . S
H254 C232 0.929 . S
H255 C233 0.929 . S
C256 C257 1.391 . S
C256 C258 1.394 . S
C256 H272 0.931 . S
C257 C256 1.391 . S
C257 C261 1.376 . S
C258 C256 1.394 . S
C258 C259 1.369 . S
C258 C262 1.531 . S
C259 C258 1.369 . S
C259 C260 1.410 . S
C259 C267 1.503 . S
C260 C259 1.410 . S
C260 C261 1.392 . S
C260 C263 1.511 . S
C261 C257 1.376 . S
C261 C260 1.392 . S
C261 H273 0.929 . S
C262 C258 1.531 . S
C262 H274 0.960 . S
C262 H275 0.962 . S
C262 H276 0.960 . S
C263 C260 1.511 . S
C263 H277 0.961 . S
C263 H278 0.961 . S
C263 H279 0.961 . S
C264 C265 1.370 . S
C264 C266 1.363 . S
C264 H280 0.931 . S
C265 C264 1.370 . S
C265 C269 1.408 . S
C266 C264 1.363 . S
C266 C267 1.370 . S
C266 C270 1.524 . S
C267 C259 1.503 . S
C267 C266 1.370 . S
C267 C268 1.403 . S
C268 C267 1.403 . S
C268 C269 1.404 . S
C268 C271 1.539 . S
C269 C265 1.408 . S
C269 C268 1.404 . S
C269 H281 0.930 . S
C270 C266 1.524 . S
C270 H282 0.956 . S
C270 H283 0.961 . S
C270 H284 0.961 . S
C271 C268 1.539 . S
C271 H285 0.958 . S
C271 H286 0.961 . S
C271 H287 0.960 . S
H272 C256 0.931 . S
H273 C261 0.929 . S
H274 C262 0.960 . S
H275 C262 0.962 . S
H276 C262 0.960 . S
H277 C263 0.961 . S
H278 C263 0.961 . S
H279 C263 0.961 . S
H280 C264 0.931 . S
H281 C269 0.930 . S
H282 C270 0.956 . S
H283 C270 0.961 . S
H284 C270 0.961 . S
H285 C271 0.958 . S
H286 C271 0.961 . S
H287 C271 0.960 . S
C288 C289 1.391 . S
C288 C290 1.394 . S
C288 H304 0.931 . S
C289 C288 1.391 . S
C289 C293 1.376 . S
C290 C288 1.394 . S
C290 C291 1.369 . S
C290 C294 1.531 . S
C291 C290 1.369 . S
C291 C292 1.410 . S
C291 C299 1.503 . S
C292 C291 1.410 . S
C292 C293 1.392 . S
C292 C295 1.511 . S
C293 C289 1.376 . S
C293 C292 1.392 . S
C293 H305 0.929 . S
C294 C290 1.531 . S
C294 H306 0.960 . S
C294 H307 0.962 . S
C294 H308 0.960 . S
C295 C292 1.511 . S
C295 H309 0.961 . S
C295 H310 0.961 . S
C295 H311 0.961 . S
C296 C297 1.370 . S
C296 C298 1.363 . S
C296 H312 0.931 . S
C297 C296 1.370 . S
C297 C301 1.408 . S
C298 C296 1.363 . S
C298 C299 1.370 . S
C298 C302 1.524 . S
C299 C291 1.503 . S
C299 C298 1.370 . S
C299 C300 1.403 . S
C300 C299 1.403 . S
C300 C301 1.404 . S
C300 C303 1.539 . S
C301 C297 1.408 . S
C301 C300 1.404 . S
C301 H313 0.930 . S
C302 C298 1.524 . S
C302 H314 0.956 . S
C302 H315 0.961 . S
C302 H316 0.961 . S
C303 C300 1.539 . S
C303 H317 0.958 . S
C303 H318 0.961 . S
C303 H319 0.960 . S
H304 C288 0.931 . S
H305 C293 0.929 . S
H306 C294 0.960 . S
H307 C294 0.962 . S
H308 C294 0.960 . S
H309 C295 0.961 . S
H310 C295 0.961 . S
H311 C295 0.961 . S
H312 C296 0.931 . S
H313 C301 0.930 . S
H314 C302 0.956 . S
H315 C302 0.961 . S
H316 C302 0.961 . S
H317 C303 0.958 . S
H318 C303 0.961 . S
H319 C303 0.960 . S
C320 C321 1.391 . S
C320 C322 1.394 . S
C320 H336 0.931 . S
C321 C320 1.391 . S
C321 C325 1.376 . S
C322 C320 1.394 . S
C322 C323 1.369 . S
C322 C326 1.531 . S
C323 C322 1.369 . S
C323 C324 1.410 . S
C323 C331 1.503 . S
C324 C323 1.410 . S
C324 C325 1.392 . S
C324 C327 1.511 . S
C325 C321 1.376 . S
C325 C324 1.392 . S
C325 H337 0.929 . S
C326 C322 1.531 . S
C326 H338 0.960 . S
C326 H339 0.962 . S
C326 H340 0.960 . S
C327 C324 1.511 . S
C327 H341 0.961 . S
C327 H342 0.961 . S
C327 H343 0.961 . S
C328 C329 1.370 . S
C328 C330 1.363 . S
C328 H344 0.931 . S
C329 C328 1.370 . S
C329 C333 1.408 . S
C330 C328 1.363 . S
C330 C331 1.370 . S
C330 C334 1.524 . S
C331 C323 1.503 . S
C331 C330 1.370 . S
C331 C332 1.403 . S
C332 C331 1.403 . S
C332 C333 1.404 . S
C332 C335 1.539 . S
C333 C329 1.408 . S
C333 C332 1.404 . S
C333 H345 0.930 . S
C334 C330 1.524 . S
C334 H346 0.956 . S
C334 H347 0.961 . S
C334 H348 0.961 . S
C335 C332 1.539 . S
C335 H349 0.958 . S
C335 H350 0.961 . S
C335 H351 0.960 . S
H336 C320 0.931 . S
H337 C325 0.929 . S
H338 C326 0.960 . S
H339 C326 0.962 . S
H340 C326 0.960 . S
H341 C327 0.961 . S
H342 C327 0.961 . S
H343 C327 0.961 . S
H344 C328 0.931 . S
H345 C333 0.930 . S
H346 C334 0.956 . S
H347 C334 0.961 . S
H348 C334 0.961 . S
H349 C335 0.958 . S
H350 C335 0.961 . S
H351 C335 0.960 . S
C352 C353 1.391 . S
C352 C354 1.394 . S
C352 H368 0.931 . S
C353 C352 1.391 . S
C353 C357 1.376 . S
C354 C352 1.394 . S
C354 C355 1.369 . S
C354 C358 1.531 . S
C355 C354 1.369 . S
C355 C356 1.410 . S
C355 C363 1.503 . S
C356 C355 1.410 . S
C356 C357 1.392 . S
C356 C359 1.511 . S
C357 C353 1.376 . S
C357 C356 1.392 . S
C357 H369 0.929 . S
C358 C354 1.531 . S
C358 H370 0.960 . S
C358 H371 0.962 . S
C358 H372 0.960 . S
C359 C356 1.511 . S
C359 H373 0.961 . S
C359 H374 0.961 . S
C359 H375 0.961 . S
C360 C361 1.370 . S
C360 C362 1.363 . S
C360 H376 0.931 . S
C361 C360 1.370 . S
C361 C365 1.408 . S
C362 C360 1.363 . S
C362 C363 1.370 . S
C362 C366 1.524 . S
C363 C355 1.503 . S
C363 C362 1.370 . S
C363 C364 1.403 . S
C364 C363 1.403 . S
C364 C365 1.404 . S
C364 C367 1.539 . S
C365 C361 1.408 . S
C365 C364 1.404 . S
C365 H377 0.930 . S
C366 C362 1.524 . S
C366 H378 0.956 . S
C366 H379 0.961 . S
C366 H380 0.961 . S
C367 C364 1.539 . S
C367 H381 0.958 . S
C367 H382 0.961 . S
C367 H383 0.960 . S
H368 C352 0.931 . S
H369 C357 0.929 . S
H370 C358 0.960 . S
H371 C358 0.962 . S
H372 C358 0.960 . S
H373 C359 0.961 . S
H374 C359 0.961 . S
H375 C359 0.961 . S
H376 C360 0.931 . S
H377 C365 0.930 . S
H378 C366 0.956 . S
H379 C366 0.961 . S
H380 C366 0.961 . S
H381 C367 0.958 . S
H382 C367 0.961 . S
H383 C367 0.960 . S
C384 C385 1.391 . S
C384 C386 1.394 . S
C384 H400 0.931 . S
C385 C384 1.391 . S
C385 C389 1.376 . S
C386 C384 1.394 . S
C386 C387 1.369 . S
C386 C390 1.531 . S
C387 C386 1.369 . S
C387 C388 1.410 . S
C387 C395 1.503 . S
C388 C387 1.410 . S
C388 C389 1.392 . S
C388 C391 1.511 . S
C389 C385 1.376 . S
C389 C388 1.392 . S
C389 H401 0.929 . S
C390 C386 1.531 . S
C390 H402 0.960 . S
C390 H403 0.962 . S
C390 H404 0.960 . S
C391 C388 1.511 . S
C391 H405 0.961 . S
C391 H406 0.961 . S
C391 H407 0.961 . S
C392 C393 1.370 . S
C392 C394 1.363 . S
C392 H408 0.931 . S
C393 C392 1.370 . S
C393 C397 1.408 . S
C394 C392 1.363 . S
C394 C395 1.370 . S
C394 C398 1.524 . S
C395 C387 1.503 . S
C395 C394 1.370 . S
C395 C396 1.403 . S
C396 C395 1.403 . S
C396 C397 1.404 . S
C396 C399 1.539 . S
C397 C393 1.408 . S
C397 C396 1.404 . S
C397 H409 0.930 . S
C398 C394 1.524 . S
C398 H410 0.956 . S
C398 H411 0.961 . S
C398 H412 0.961 . S
C399 C396 1.539 . S
C399 H413 0.958 . S
C399 H414 0.961 . S
C399 H415 0.960 . S
H400 C384 0.931 . S
H401 C389 0.929 . S
H402 C390 0.960 . S
H403 C390 0.962 . S
H404 C390 0.960 . S
H405 C391 0.961 . S
H406 C391 0.961 . S
H407 C391 0.961 . S
H408 C392 0.931 . S
H409 C397 0.930 . S
H410 C398 0.956 . S
H411 C398 0.961 . S
H412 C398 0.961 . S
H413 C399 0.958 . S
H414 C399 0.961 . S
H415 C399 0.960 . S
C416 C417 1.391 . S
C416 C418 1.394 . S
C416 H432 0.931 . S
C417 C416 1.391 . S
C417 C421 1.376 . S
C418 C416 1.394 . S
C418 C419 1.369 . S
C418 C422 1.531 . S
C419 C418 1.369 . S
C419 C420 1.410 . S
C419 C427 1.503 . S
C420 C419 1.410 . S
C420 C421 1.392 . S
C420 C423 1.511 . S
C421 C417 1.376 . S
C421 C420 1.392 . S
C421 H433 0.929 . S
C422 C418 1.531 . S
C422 H434 0.960 . S
C422 H435 0.962 . S
C422 H436 0.960 . S
C423 C420 1.511 . S
C423 H437 0.961 . S
C423 H438 0.961 . S
C423 H439 0.961 . S
C424 C425 1.370 . S
C424 C426 1.363 . S
C424 H440 0.931 . S
C425 C424 1.370 . S
C425 C429 1.408 . S
C426 C424 1.363 . S
C426 C427 1.370 . S
C426 C430 1.524 . S
C427 C419 1.503 . S
C427 C426 1.370 . S
C427 C428 1.403 . S
C428 C427 1.403 . S
C428 C429 1.404 . S
C428 C431 1.539 . S
C429 C425 1.408 . S
C429 C428 1.404 . S
C429 H441 0.930 . S
C430 C426 1.524 . S
C430 H442 0.956 . S
C430 H443 0.961 . S
C430 H444 0.961 . S
C431 C428 1.539 . S
C431 H445 0.958 . S
C431 H446 0.961 . S
C431 H447 0.960 . S
H432 C416 0.931 . S
H433 C421 0.929 . S
H434 C422 0.960 . S
H435 C422 0.962 . S
H436 C422 0.960 . S
H437 C423 0.961 . S
H438 C423 0.961 . S
H439 C423 0.961 . S
H440 C424 0.931 . S
H441 C429 0.930 . S
H442 C430 0.956 . S
H443 C430 0.961 . S
H444 C430 0.961 . S
H445 C431 0.958 . S
H446 C431 0.961 . S
H447 C431 0.960 . S
C448 C449 1.391 . S
C448 C450 1.394 . S
C448 H464 0.931 . S
C449 C448 1.391 . S
C449 C453 1.376 . S
C450 C448 1.394 . S
C450 C451 1.369 . S
C450 C454 1.531 . S
C451 C450 1.369 . S
C451 C452 1.410 . S
C451 C459 1.503 . S
C452 C451 1.410 . S
C452 C453 1.392 . S
C452 C455 1.511 . S
C453 C449 1.376 . S
C453 C452 1.392 . S
C453 H465 0.929 . S
C454 C450 1.531 . S
C454 H466 0.960 . S
C454 H467 0.962 . S
C454 H468 0.960 . S
C455 C452 1.511 . S
C455 H469 0.961 . S
C455 H470 0.961 . S
C455 H471 0.961 . S
C456 C457 1.370 . S
C456 C458 1.363 . S
C456 H472 0.931 . S
C457 C456 1.370 . S
C457 C461 1.408 . S
C458 C456 1.363 . S
C458 C459 1.370 . S
C458 C462 1.524 . S
C459 C451 1.503 . S
C459 C458 1.370 . S
C459 C460 1.403 . S
C460 C459 1.403 . S
C460 C461 1.404 . S
C460 C463 1.539 . S
C461 C457 1.408 . S
C461 C460 1.404 . S
C461 H473 0.930 . S
C462 C458 1.524 . S
C462 H474 0.956 . S
C462 H475 0.961 . S
C462 H476 0.961 . S
C463 C460 1.539 . S
C463 H477 0.958 . S
C463 H478 0.961 . S
C463 H479 0.960 . S
H464 C448 0.931 . S
H465 C453 0.929 . S
H466 C454 0.960 . S
H467 C454 0.962 . S
H468 C454 0.960 . S
H469 C455 0.961 . S
H470 C455 0.961 . S
H471 C455 0.961 . S
H472 C456 0.931 . S
H473 C461 0.930 . S
H474 C462 0.956 . S
H475 C462 0.961 . S
H476 C462 0.961 . S
H477 C463 0.958 . S
H478 C463 0.961 . S
H479 C463 0.960 . S
C480 C481 1.391 . S
C480 C482 1.394 . S
C480 H496 0.931 . S
C481 C480 1.391 . S
C481 C485 1.376 . S
C482 C480 1.394 . S
C482 C483 1.369 . S
C482 C486 1.531 . S
C483 C482 1.369 . S
C483 C484 1.410 . S
C483 C491 1.503 . S
C484 C483 1.410 . S
C484 C485 1.392 . S
C484 C487 1.511 . S
C485 C481 1.376 . S
C485 C484 1.392 . S
C485 H497 0.929 . S
C486 C482 1.531 . S
C486 H498 0.960 . S
C486 H499 0.962 . S
C486 H500 0.960 . S
C487 C484 1.511 . S
C487 H501 0.961 . S
C487 H502 0.961 . S
C487 H503 0.961 . S
C488 C489 1.370 . S
C488 C490 1.363 . S
C488 H504 0.931 . S
C489 C488 1.370 . S
C489 C493 1.408 . S
C490 C488 1.363 . S
C490 C491 1.370 . S
C490 C494 1.524 . S
C491 C483 1.503 . S
C491 C490 1.370 . S
C491 C492 1.403 . S
C492 C491 1.403 . S
C492 C493 1.404 . S
C492 C495 1.539 . S
C493 C489 1.408 . S
C493 C492 1.404 . S
C493 H505 0.930 . S
C494 C490 1.524 . S
C494 H506 0.956 . S
C494 H507 0.961 . S
C494 H508 0.961 . S
C495 C492 1.539 . S
C495 H509 0.958 . S
C495 H510 0.961 . S
C495 H511 0.960 . S
H496 C480 0.931 . S
H497 C485 0.929 . S
H498 C486 0.960 . S
H499 C486 0.962 . S
H500 C486 0.960 . S
H501 C487 0.961 . S
H502 C487 0.961 . S
H503 C487 0.961 . S
H504 C488 0.931 . S
H505 C493 0.930 . S
H506 C494 0.956 . S
H507 C494 0.961 . S
H508 C494 0.961 . S
H509 C495 0.958 . S
H510 C495 0.961 . S
H511 C495 0.960 . S
C512 C513 1.391 . S
C512 C514 1.394 . S
C512 H528 0.931 . S
C513 C512 1.391 . S
C513 C517 1.376 . S
C514 C512 1.394 . S
C514 C515 1.369 . S
C514 C518 1.531 . S
C515 C514 1.369 . S
C515 C516 1.410 . S
C515 C523 1.503 . S
C516 C515 1.410 . S
C516 C517 1.392 . S
C516 C519 1.511 . S
C517 C513 1.376 . S
C517 C516 1.392 . S
C517 H529 0.929 . S
C518 C514 1.531 . S
C518 H530 0.960 . S
C518 H531 0.962 . S
C518 H532 0.960 . S
C519 C516 1.511 . S
C519 H533 0.961 . S
C519 H534 0.961 . S
C519 H535 0.961 . S
C520 C521 1.370 . S
C520 C522 1.363 . S
C520 H536 0.931 . S
C521 C520 1.370 . S
C521 C525 1.408 . S
C522 C520 1.363 . S
C522 C523 1.370 . S
C522 C526 1.524 . S
C523 C515 1.503 . S
C523 C522 1.370 . S
C523 C524 1.403 . S
C524 C523 1.403 . S
C524 C525 1.404 . S
C524 C527 1.539 . S
C525 C521 1.408 . S
C525 C524 1.404 . S
C525 H537 0.930 . S
C526 C522 1.524 . S
C526 H538 0.956 . S
C526 H539 0.961 . S
C526 H540 0.961 . S
C527 C524 1.539 . S
C527 H541 0.958 . S
C527 H542 0.961 . S
C527 H543 0.960 . S
H528 C512 0.931 . S
H529 C517 0.929 . S
H530 C518 0.960 . S
H531 C518 0.962 . S
H532 C518 0.960 . S
H533 C519 0.961 . S
H534 C519 0.961 . S
H535 C519 0.961 . S
H536 C520 0.931 . S
H537 C525 0.930 . S
H538 C526 0.956 . S
H539 C526 0.961 . S
H540 C526 0.961 . S
H541 C527 0.958 . S
H542 C527 0.961 . S
H543 C527 0.960 . S
C544 C545 1.391 . S
C544 C546 1.394 . S
C544 H560 0.931 . S
C545 C544 1.391 . S
C545 C549 1.376 . S
C546 C544 1.394 . S
C546 C547 1.369 . S
C546 C550 1.531 . S
C547 C546 1.369 . S
C547 C548 1.410 . S
C547 C555 1.503 . S
C548 C547 1.410 . S
C548 C549 1.392 . S
C548 C551 1.511 . S
C549 C545 1.376 . S
C549 C548 1.392 . S
C549 H561 0.929 . S
C550 C546 1.531 . S
C550 H562 0.960 . S
C550 H563 0.962 . S
C550 H564 0.960 . S
C551 C548 1.511 . S
C551 H565 0.961 . S
C551 H566 0.961 . S
C551 H567 0.961 . S
C552 C553 1.370 . S
C552 C554 1.363 . S
C552 H568 0.931 . S
C553 C552 1.370 . S
C553 C557 1.408 . S
C554 C552 1.363 . S
C554 C555 1.370 . S
C554 C558 1.524 . S
C555 C547 1.503 . S
C555 C554 1.370 . S
C555 C556 1.403 . S
C556 C555 1.403 . S
C556 C557 1.404 . S
C556 C559 1.539 . S
C557 C553 1.408 . S
C557 C556 1.404 . S
C557 H569 0.930 . S
C558 C554 1.524 . S
C558 H570 0.956 . S
C558 H571 0.961 . S
C558 H572 0.961 . S
C559 C556 1.539 . S
C559 H573 0.958 . S
C559 H574 0.961 . S
C559 H575 0.960 . S
H560 C544 0.931 . S
H561 C549 0.929 . S
H562 C550 0.960 . S
H563 C550 0.962 . S
H564 C550 0.960 . S
H565 C551 0.961 . S
H566 C551 0.961 . S
H567 C551 0.961 . S
H568 C552 0.931 . S
H569 C557 0.930 . S
H570 C558 0.956 . S
H571 C558 0.961 . S
H572 C558 0.961 . S
H573 C559 0.958 . S
H574 C559 0.961 . S
H575 C559 0.960 . S
C576 C577 1.391 . S
C576 C578 1.394 . S
C576 H592 0.931 . S
C577 C576 1.391 . S
C577 C581 1.376 . S
C578 C576 1.394 . S
C578 C579 1.369 . S
C578 C582 1.531 . S
C579 C578 1.369 . S
C579 C580 1.410 . S
C579 C587 1.503 . S
C580 C579 1.410 . S
C580 C581 1.392 . S
C580 C583 1.511 . S
C581 C577 1.376 . S
C581 C580 1.392 . S
C581 H593 0.929 . S
C582 C578 1.531 . S
C582 H594 0.960 . S
C582 H595 0.962 . S
C582 H596 0.960 . S
C583 C580 1.511 . S
C583 H597 0.961 . S
C583 H598 0.961 . S
C583 H599 0.961 . S
C584 C585 1.370 . S
C584 C586 1.363 . S
C584 H600 0.931 . S
C585 C584 1.370 . S
C585 C589 1.408 . S
C586 C584 1.363 . S
C586 C587 1.370 . S
C586 C590 1.524 . S
C587 C579 1.503 . S
C587 C586 1.370 . S
C587 C588 1.403 . S
C588 C587 1.403 . S
C588 C589 1.404 . S
C588 C591 1.539 . S
C589 C585 1.408 . S
C589 C588 1.404 . S
C589 H601 0.930 . S
C590 C586 1.524 . S
C590 H602 0.956 . S
C590 H603 0.961 . S
C590 H604 0.961 . S
C591 C588 1.539 . S
C591 H605 0.958 . S
C591 H606 0.961 . S
C591 H607 0.960 . S
H592 C576 0.931 . S
H593 C581 0.929 . S
H594 C582 0.960 . S
H595 C582 0.962 . S
H596 C582 0.960 . S
H597 C583 0.961 . S
H598 C583 0.961 . S
H599 C583 0.961 . S
H600 C584 0.931 . S
H601 C589 0.930 . S
H602 C590 0.956 . S
H603 C590 0.961 . S
H604 C590 0.961 . S
H605 C591 0.958 . S
H606 C591 0.961 . S
H607 C591 0.960 . S
C608 C609 1.391 . S
C608 C610 1.394 . S
C608 H624 0.931 . S
C609 C608 1.391 . S
C609 C613 1.376 . S
C610 C608 1.394 . S
C610 C611 1.369 . S
C610 C614 1.531 . S
C611 C610 1.369 . S
C611 C612 1.410 . S
C611 C619 1.503 . S
C612 C611 1.410 . S
C612 C613 1.392 . S
C612 C615 1.511 . S
C613 C609 1.376 . S
C613 C612 1.392 . S
C613 H625 0.929 . S
C614 C610 1.531 . S
C614 H626 0.960 . S
C614 H627 0.962 . S
C614 H628 0.960 . S
C615 C612 1.511 . S
C615 H629 0.961 . S
C615 H630 0.961 . S
C615 H631 0.961 . S
C616 C617 1.370 . S
C616 C618 1.363 . S
C616 H632 0.931 . S
C617 C616 1.370 . S
C617 C621 1.408 . S
C618 C616 1.363 . S
C618 C619 1.370 . S
C618 C622 1.524 . S
C619 C611 1.503 . S
C619 C618 1.370 . S
C619 C620 1.403 . S
C620 C619 1.403 . S
C620 C621 1.404 . S
C620 C623 1.539 . S
C621 C617 1.408 . S
C621 C620 1.404 . S
C621 H633 0.930 . S
C622 C618 1.524 . S
C622 H634 0.956 . S
C622 H635 0.961 . S
C622 H636 0.961 . S
C623 C620 1.539 . S
C623 H637 0.958 . S
C623 H638 0.961 . S
C623 H639 0.960 . S
H624 C608 0.931 . S
H625 C613 0.929 . S
H626 C614 0.960 . S
H627 C614 0.962 . S
H628 C614 0.960 . S
H629 C615 0.961 . S
H630 C615 0.961 . S
H631 C615 0.961 . S
H632 C616 0.931 . S
H633 C621 0.930 . S
H634 C622 0.956 . S
H635 C622 0.961 . S
H636 C622 0.961 . S
H637 C623 0.958 . S
H638 C623 0.961 . S
H639 C623 0.960 . S
C640 C641 1.391 . S
C640 C642 1.394 . S
C640 H656 0.931 . S
C641 C640 1.391 . S
C641 C645 1.376 . S
C642 C640 1.394 . S
C642 C643 1.369 . S
C642 C646 1.531 . S
C643 C642 1.369 . S
C643 C644 1.410 . S
C643 C651 1.503 . S
C644 C643 1.410 . S
C644 C645 1.392 . S
C644 C647 1.511 . S
C645 C641 1.376 . S
C645 C644 1.392 . S
C645 H657 0.929 . S
C646 C642 1.531 . S
C646 H658 0.960 . S
C646 H659 0.962 . S
C646 H660 0.960 . S
C647 C644 1.511 . S
C647 H661 0.961 . S
C647 H662 0.961 . S
C647 H663 0.961 . S
C648 C649 1.370 . S
C648 C650 1.363 . S
C648 H664 0.931 . S
C649 C648 1.370 . S
C649 C653 1.408 . S
C650 C648 1.363 . S
C650 C651 1.370 . S
C650 C654 1.524 . S
C651 C643 1.503 . S
C651 C650 1.370 . S
C651 C652 1.403 . S
C652 C651 1.403 . S
C652 C653 1.404 . S
C652 C655 1.539 . S
C653 C649 1.408 . S
C653 C652 1.404 . S
C653 H665 0.930 . S
C654 C650 1.524 . S
C654 H666 0.956 . S
C654 H667 0.961 . S
C654 H668 0.961 . S
C655 C652 1.539 . S
C655 H669 0.958 . S
C655 H670 0.961 . S
C655 H671 0.960 . S
H656 C640 0.931 . S
H657 C645 0.929 . S
H658 C646 0.960 . S
H659 C646 0.962 . S
H660 C646 0.960 . S
H661 C647 0.961 . S
H662 C647 0.961 . S
H663 C647 0.961 . S
H664 C648 0.931 . S
H665 C653 0.930 . S
H666 C654 0.956 . S
H667 C654 0.961 . S
H668 C654 0.961 . S
H669 C655 0.958 . S
H670 C655 0.961 . S
H671 C655 0.960 . S
C672 C673 1.391 . S
C672 C674 1.394 . S
C672 H688 0.931 . S
C673 C672 1.391 . S
C673 C677 1.376 . S
C674 C672 1.394 . S
C674 C675 1.369 . S
C674 C678 1.531 . S
C675 C674 1.369 . S
C675 C676 1.410 . S
C675 C683 1.503 . S
C676 C675 1.410 . S
C676 C677 1.392 . S
C676 C679 1.511 . S
C677 C673 1.376 . S
C677 C676 1.392 . S
C677 H689 0.929 . S
C678 C674 1.531 . S
C678 H690 0.960 . S
C678 H691 0.962 . S
C678 H692 0.960 . S
C679 C676 1.511 . S
C679 H693 0.961 . S
C679 H694 0.961 . S
C679 H695 0.961 . S
C680 C681 1.370 . S
C680 C682 1.363 . S
C680 H696 0.931 . S
C681 C680 1.370 . S
C681 C685 1.408 . S
C682 C680 1.363 . S
C682 C683 1.370 . S
C682 C686 1.524 . S
C683 C675 1.503 . S
C683 C682 1.370 . S
C683 C684 1.403 . S
C684 C683 1.403 . S
C684 C685 1.404 . S
C684 C687 1.539 . S
C685 C681 1.408 . S
C685 C684 1.404 . S
C685 H697 0.930 . S
C686 C682 1.524 . S
C686 H698 0.956 . S
C686 H699 0.961 . S
C686 H700 0.961 . S
C687 C684 1.539 . S
C687 H701 0.958 . S
C687 H702 0.961 . S
C687 H703 0.960 . S
H688 C672 0.931 . S
H689 C677 0.929 . S
H690 C678 0.960 . S
H691 C678 0.962 . S
H692 C678 0.960 . S
H693 C679 0.961 . S
H694 C679 0.961 . S
H695 C679 0.961 . S
H696 C680 0.931 . S
H697 C685 0.930 . S
H698 C686 0.956 . S
H699 C686 0.961 . S
H700 C686 0.961 . S
H701 C687 0.958 . S
H702 C687 0.961 . S
H703 C687 0.960 . S
C704 C705 1.391 . S
C704 C706 1.394 . S
C704 H720 0.931 . S
C705 C704 1.391 . S
C705 C709 1.376 . S
C706 C704 1.394 . S
C706 C707 1.369 . S
C706 C710 1.531 . S
C707 C706 1.369 . S
C707 C708 1.410 . S
C707 C715 1.503 . S
C708 C707 1.410 . S
C708 C709 1.392 . S
C708 C711 1.511 . S
C709 C705 1.376 . S
C709 C708 1.392 . S
C709 H721 0.929 . S
C710 C706 1.531 . S
C710 H722 0.960 . S
C710 H723 0.962 . S
C710 H724 0.960 . S
C711 C708 1.511 . S
C711 H725 0.961 . S
C711 H726 0.961 . S
C711 H727 0.961 . S
C712 C713 1.370 . S
C712 C714 1.363 . S
C712 H728 0.931 . S
C713 C712 1.370 . S
C713 C717 1.408 . S
C714 C712 1.363 . S
C714 C715 1.370 . S
C714 C718 1.524 . S
C715 C707 1.503 . S
C715 C714 1.370 . S
C715 C716 1.403 . S
C716 C715 1.403 . S
C716 C717 1.404 . S
C716 C719 1.539 . S
C717 C713 1.408 . S
C717 C716 1.404 . S
C717 H729 0.930 . S
C718 C714 1.524 . S
C718 H730 0.956 . S
C718 H731 0.961 . S
C718 H732 0.961 . S
C719 C716 1.539 . S
C719 H733 0.958 . S
C719 H734 0.961 . S
C719 H735 0.960 . S
H720 C704 0.931 . S
H721 C709 0.929 . S
H722 C710 0.960 . S
H723 C710 0.962 . S
H724 C710 0.960 . S
H725 C711 0.961 . S
H726 C711 0.961 . S
H727 C711 0.961 . S
H728 C712 0.931 . S
H729 C717 0.930 . S
H730 C718 0.956 . S
H731 C718 0.961 . S
H732 C718 0.961 . S
H733 C719 0.958 . S
H734 C719 0.961 . S
H735 C719 0.960 . S
C736 C737 1.391 . S
C736 C738 1.394 . S
C736 H752 0.931 . S
C737 C736 1.391 . S
C737 C741 1.376 . S
C738 C736 1.394 . S
C738 C739 1.369 . S
C738 C742 1.531 . S
C739 C738 1.369 . S
C739 C740 1.410 . S
C739 C747 1.503 . S
C740 C739 1.410 . S
C740 C741 1.392 . S
C740 C743 1.511 . S
C741 C737 1.376 . S
C741 C740 1.392 . S
C741 H753 0.929 . S
C742 C738 1.531 . S
C742 H754 0.960 . S
C742 H755 0.962 . S
C742 H756 0.960 . S
C743 C740 1.511 . S
C743 H757 0.961 . S
C743 H758 0.961 . S
C743 H759 0.961 . S
C744 C745 1.370 . S
C744 C746 1.363 . S
C744 H760 0.931 . S
C745 C744 1.370 . S
C745 C749 1.408 . S
C746 C744 1.363 . S
C746 C747 1.370 . S
C746 C750 1.524 . S
C747 C739 1.503 . S
C747 C746 1.370 . S
C747 C748 1.403 . S
C748 C747 1.403 . S
C748 C749 1.404 . S
C748 C751 1.539 . S
C749 C745 1.408 . S
C749 C748 1.404 . S
C749 H761 0.930 . S
C750 C746 1.524 . S
C750 H762 0.956 . S
C750 H763 0.961 . S
C750 H764 0.961 . S
C751 C748 1.539 . S
C751 H765 0.958 . S
C751 H766 0.961 . S
C751 H767 0.960 . S
H752 C736 0.931 . S
H753 C741 0.929 . S
H754 C742 0.960 . S
H755 C742 0.962 . S
H756 C742 0.960 . S
H757 C743 0.961 . S
H758 C743 0.961 . S
H759 C743 0.961 . S
H760 C744 0.931 . S
H761 C749 0.930 . S
H762 C750 0.956 . S
H763 C750 0.961 . S
H764 C750 0.961 . S
H765 C751 0.958 . S
H766 C751 0.961 . S
H767 C751 0.960 . S
C768 C769 1.391 . S
C768 C770 1.394 . S
C768 H784 0.931 . S
C769 C768 1.391 . S
C769 C773 1.376 . S
C770 C768 1.394 . S
C770 C771 1.369 . S
C770 C774 1.531 . S
C771 C770 1.369 . S
C771 C772 1.410 . S
C771 C779 1.503 . S
C772 C771 1.410 . S
C772 C773 1.392 . S
C772 C775 1.511 . S
C773 C769 1.376 . S
C773 C772 1.392 . S
C773 H785 0.929 . S
C774 C770 1.531 . S
C774 H786 0.960 . S
C774 H787 0.962 . S
C774 H788 0.960 . S
C775 C772 1.511 . S
C775 H789 0.961 . S
C775 H790 0.961 . S
C775 H791 0.961 . S
C776 C777 1.370 . S
C776 C778 1.363 . S
C776 H792 0.931 . S
C777 C776 1.370 . S
C777 C781 1.408 . S
C778 C776 1.363 . S
C778 C779 1.370 . S
C778 C782 1.524 . S
C779 C771 1.503 . S
C779 C778 1.370 . S
C779 C780 1.403 . S
C780 C779 1.403 . S
C780 C781 1.404 . S
C780 C783 1.539 . S
C781 C777 1.408 . S
C781 C780 1.404 . S
C781 H793 0.930 . S
C782 C778 1.524 . S
C782 H794 0.956 . S
C782 H795 0.961 . S
C782 H796 0.961 . S
C783 C780 1.539 . S
C783 H797 0.958 . S
C783 H798 0.961 . S
C783 H799 0.960 . S
H784 C768 0.931 . S
H785 C773 0.929 . S
H786 C774 0.960 . S
H787 C774 0.962 . S
H788 C774 0.960 . S
H789 C775 0.961 . S
H790 C775 0.961 . S
H791 C775 0.961 . S
H792 C776 0.931 . S
H793 C781 0.930 . S
H794 C782 0.956 . S
H795 C782 0.961 . S
H796 C782 0.961 . S
H797 C783 0.958 . S
H798 C783 0.961 . S
H799 C783 0.960 . S
C800 C801 1.391 . S
C800 C802 1.394 . S
C800 H816 0.931 . S
C801 C800 1.391 . S
C801 C805 1.376 . S
C802 C800 1.394 . S
C802 C803 1.369 . S
C802 C806 1.531 . S
C803 C802 1.369 . S
C803 C804 1.410 . S
C803 C811 1.503 . S
C804 C803 1.410 . S
C804 C805 1.392 . S
C804 C807 1.511 . S
C805 C801 1.376 . S
C805 C804 1.392 . S
C805 H817 0.929 . S
C806 C802 1.531 . S
C806 H818 0.960 . S
C806 H819 0.962 . S
C806 H820 0.960 . S
C807 C804 1.511 . S
C807 H821 0.961 . S
C807 H822 0.961 . S
C807 H823 0.961 . S
C808 C809 1.370 . S
C808 C810 1.363 . S
C808 H824 0.931 . S
C809 C808 1.370 . S
C809 C813 1.408 . S
C810 C808 1.363 . S
C810 C811 1.370 . S
C810 C814 1.524 . S
C811 C803 1.503 . S
C811 C810 1.370 . S
C811 C812 1.403 . S
C812 C811 1.403 . S
C812 C813 1.404 . S
C812 C815 1.539 . S
C813 C809 1.408 . S
C813 C812 1.404 . S
C813 H825 0.930 . S
C814 C810 1.524 . S
C814 H826 0.956 . S
C814 H827 0.961 . S
C814 H828 0.961 . S
C815 C812 1.539 . S
C815 H829 0.958 . S
C815 H830 0.961 . S
C815 H831 0.960 . S
H816 C800 0.931 . S
H817 C805 0.929 . S
H818 C806 0.960 . S
H819 C806 0.962 . S
H820 C806 0.960 . S
H821 C807 0.961 . S
H822 C807 0.961 . S
H823 C807 0.961 . S
H824 C808 0.931 . S
H825 C813 0.930 . S
H826 C814 0.956 . S
H827 C814 0.961 . S
H828 C814 0.961 . S
H829 C815 0.958 . S
H830 C815 0.961 . S
H831 C815 0.960 . S
C832 C833 1.391 . S
C832 C834 1.394 . S
C832 H848 0.931 . S
C833 C832 1.391 . S
C833 C837 1.376 . S
C834 C832 1.394 . S
C834 C835 1.369 . S
C834 C838 1.531 . S
C835 C834 1.369 . S
C835 C836 1.410 . S
C835 C843 1.503 . S
C836 C835 1.410 . S
C836 C837 1.392 . S
C836 C839 1.511 . S
C837 C833 1.376 . S
C837 C836 1.392 . S
C837 H849 0.929 . S
C838 C834 1.531 . S
C838 H850 0.960 . S
C838 H851 0.962 . S
C838 H852 0.960 . S
C839 C836 1.511 . S
C839 H853 0.961 . S
C839 H854 0.961 . S
C839 H855 0.961 . S
C840 C841 1.370 . S
C840 C842 1.363 . S
C840 H856 0.931 . S
C841 C840 1.370 . S
C841 C845 1.408 . S
C842 C840 1.363 . S
C842 C843 1.370 . S
C842 C846 1.524 . S
C843 C835 1.503 . S
C843 C842 1.370 . S
C843 C844 1.403 . S
C844 C843 1.403 . S
C844 C845 1.404 . S
C844 C847 1.539 . S
C845 C841 1.408 . S
C845 C844 1.404 . S
C845 H857 0.930 . S
C846 C842 1.524 . S
C846 H858 0.956 . S
C846 H859 0.961 . S
C846 H860 0.961 . S
C847 C844 1.539 . S
C847 H861 0.958 . S
C847 H862 0.961 . S
C847 H863 0.960 . S
H848 C832 0.931 . S
H849 C837 0.929 . S
H850 C838 0.960 . S
H851 C838 0.962 . S
H852 C838 0.960 . S
H853 C839 0.961 . S
H854 C839 0.961 . S
H855 C839 0.961 . S
H856 C840 0.931 . S
H857 C845 0.930 . S
H858 C846 0.956 . S
H859 C846 0.961 . S
H860 C846 0.961 . S
H861 C847 0.958 . S
H862 C847 0.961 . S
H863 C847 0.960 . S
C864 C865 1.391 . S
C864 C866 1.394 . S
C864 H880 0.931 . S
C865 C864 1.391 . S
C865 C869 1.376 . S
C866 C864 1.394 . S
C866 C867 1.369 . S
C866 C870 1.531 . S
C867 C866 1.369 . S
C867 C868 1.410 . S
C867 C875 1.503 . S
C868 C867 1.410 . S
C868 C869 1.392 . S
C868 C871 1.511 . S
C869 C865 1.376 . S
C869 C868 1.392 . S
C869 H881 0.929 . S
C870 C866 1.531 . S
C870 H882 0.960 . S
C870 H883 0.962 . S
C870 H884 0.960 . S
C871 C868 1.511 . S
C871 H885 0.961 . S
C871 H886 0.961 . S
C871 H887 0.961 . S
C872 C873 1.370 . S
C872 C874 1.363 . S
C872 H888 0.931 . S
C873 C872 1.370 . S
C873 C877 1.408 . S
C874 C872 1.363 . S
C874 C875 1.370 . S
C874 C878 1.524 . S
C875 C867 1.503 . S
C875 C874 1.370 . S
C875 C876 1.403 . S
C876 C875 1.403 . S
C876 C877 1.404 . S
C876 C879 1.539 . S
C877 C873 1.408 . S
C877 C876 1.404 . S
C877 H889 0.930 . S
C878 C874 1.524 . S
C878 H890 0.956 . S
C878 H891 0.961 . S
C878 H892 0.961 . S
C879 C876 1.539 . S
C879 H893 0.958 . S
C879 H894 0.961 . S
C879 H895 0.960 . S
H880 C864 0.931 . S
H881 C869 0.929 . S
H882 C870 0.960 . S
H883 C870 0.962 . S
H884 C870 0.960 . S
H885 C871 0.961 . S
H886 C871 0.961 . S
H887 C871 0.961 . S
H888 C872 0.931 . S
H889 C877 0.930 . S
H890 C878 0.956 . S
H891 C878 0.961 . S
H892 C878 0.961 . S
H893 C879 0.958 . S
H894 C879 0.961 . S
H895 C879 0.960 . S
C896 C897 1.391 . S
C896 C898 1.394 . S
C896 H912 0.931 . S
C897 C896 1.391 . S
C897 C901 1.376 . S
C898 C896 1.394 . S
C898 C899 1.369 . S
C898 C902 1.531 . S
C899 C898 1.369 . S
C899 C900 1.410 . S
C899 C907 1.503 . S
C900 C899 1.410 . S
C900 C901 1.392 . S
C900 C903 1.511 . S
C901 C897 1.376 . S
C901 C900 1.392 . S
C901 H913 0.929 . S
C902 C898 1.531 . S
C902 H914 0.960 . S
C902 H915 0.962 . S
C902 H916 0.960 . S
C903 C900 1.511 . S
C903 H917 0.961 . S
C903 H918 0.961 . S
C903 H919 0.961 . S
C904 C905 1.370 . S
C904 C906 1.363 . S
C904 H920 0.931 . S
C905 C904 1.370 . S
C905 C909 1.408 . S
C906 C904 1.363 . S
C906 C907 1.370 . S
C906 C910 1.524 . S
C907 C899 1.503 . S
C907 C906 1.370 . S
C907 C908 1.403 . S
C908 C907 1.403 . S
C908 C909 1.404 . S
C908 C911 1.539 . S
C909 C905 1.408 . S
C909 C908 1.404 . S
C909 H921 0.930 . S
C910 C906 1.524 . S
C910 H922 0.956 . S
C910 H923 0.961 . S
C910 H924 0.961 . S
C911 C908 1.539 . S
C911 H925 0.958 . S
C911 H926 0.961 . S
C911 H927 0.960 . S
H912 C896 0.931 . S
H913 C901 0.929 . S
H914 C902 0.960 . S
H915 C902 0.962 . S
H916 C902 0.960 . S
H917 C903 0.961 . S
H918 C903 0.961 . S
H919 C903 0.961 . S
H920 C904 0.931 . S
H921 C909 0.930 . S
H922 C910 0.956 . S
H923 C910 0.961 . S
H924 C910 0.961 . S
H925 C911 0.958 . S
H926 C911 0.961 . S
H927 C911 0.960 . S
C928 C929 1.391 . S
C928 C930 1.394 . S
C928 H944 0.931 . S
C929 C928 1.391 . S
C929 C933 1.376 . S
C930 C928 1.394 . S
C930 C931 1.369 . S
C930 C934 1.531 . S
C931 C930 1.369 . S
C931 C932 1.410 . S
C931 C939 1.503 . S
C932 C931 1.410 . S
C932 C933 1.392 . S
C932 C935 1.511 . S
C933 C929 1.376 . S
C933 C932 1.392 . S
C933 H945 0.929 . S
C934 C930 1.531 . S
C934 H946 0.960 . S
C934 H947 0.962 . S
C934 H948 0.960 . S
C935 C932 1.511 . S
C935 H949 0.961 . S
C935 H950 0.961 . S
C935 H951 0.961 . S
C936 C937 1.370 . S
C936 C938 1.363 . S
C936 H952 0.931 . S
C937 C936 1.370 . S
C937 C941 1.408 . S
C938 C936 1.363 . S
C938 C939 1.370 . S
C938 C942 1.524 . S
C939 C931 1.503 . S
C939 C938 1.370 . S
C939 C940 1.403 . S
C940 C939 1.403 . S
C940 C941 1.404 . S
C940 C943 1.539 . S
C941 C937 1.408 . S
C941 C940 1.404 . S
C941 H953 0.930 . S
C942 C938 1.524 . S
C942 H954 0.956 . S
C942 H955 0.961 . S
C942 H956 0.961 . S
C943 C940 1.539 . S
C943 H957 0.958 . S
C943 H958 0.961 . S
C943 H959 0.960 . S
H944 C928 0.931 . S
H945 C933 0.929 . S
H946 C934 0.960 . S
H947 C934 0.962 . S
H948 C934 0.960 . S
H949 C935 0.961 . S
H950 C935 0.961 . S
H951 C935 0.961 . S
H952 C936 0.931 . S
H953 C941 0.930 . S
H954 C942 0.956 . S
H955 C942 0.961 . S
H956 C942 0.961 . S
H957 C943 0.958 . S
H958 C943 0.961 . S
H959 C943 0.960 . S
C960 C961 1.391 . S
C960 C962 1.394 . S
C960 H976 0.931 . S
C961 C960 1.391 . S
C961 C965 1.376 . S
C962 C960 1.394 . S
C962 C963 1.369 . S
C962 C966 1.531 . S
C963 C962 1.369 . S
C963 C964 1.410 . S
C963 C971 1.503 . S
C964 C963 1.410 . S
C964 C965 1.392 . S
C964 C967 1.511 . S
C965 C961 1.376 . S
C965 C964 1.392 . S
C965 H977 0.929 . S
C966 C962 1.531 . S
C966 H978 0.960 . S
C966 H979 0.962 . S
C966 H980 0.960 . S
C967 C964 1.511 . S
C967 H981 0.961 . S
C967 H982 0.961 . S
C967 H983 0.961 . S
C968 C969 1.370 . S
C968 C970 1.363 . S
C968 H984 0.931 . S
C969 C968 1.370 . S
C969 C973 1.408 . S
C970 C968 1.363 . S
C970 C971 1.370 . S
C970 C974 1.524 . S
C971 C963 1.503 . S
C971 C970 1.370 . S
C971 C972 1.403 . S
C972 C971 1.403 . S
C972 C973 1.404 . S
C972 C975 1.539 . S
C973 C969 1.408 . S
C973 C972 1.404 . S
C973 H985 0.930 . S
C974 C970 1.524 . S
C974 H986 0.956 . S
C974 H987 0.961 . S
C974 H988 0.961 . S
C975 C972 1.539 . S
C975 H989 0.958 . S
C975 H990 0.961 . S
C975 H991 0.960 . S
H976 C960 0.931 . S
H977 C965 0.929 . S
H978 C966 0.960 . S
H979 C966 0.962 . S
H980 C966 0.960 . S
H981 C967 0.961 . S
H982 C967 0.961 . S
H983 C967 0.961 . S
H984 C968 0.931 . S
H985 C973 0.930 . S
H986 C974 0.956 . S
H987 C974 0.961 . S
H988 C974 0.961 . S
H989 C975 0.958 . S
H990 C975 0.961 . S
H991 C975 0.960 . S
C992 C993 1.391 . S
C992 C994 1.394 . S
C992 H1008 0.931 . S
C993 C992 1.391 . S
C993 C997 1.376 . S
C994 C992 1.394 . S
C994 C995 1.369 . S
C994 C998 1.531 . S
C995 C994 1.369 . S
C995 C996 1.410 . S
C995 C1003 1.503 . S
C996 C995 1.410 . S
C996 C997 1.392 . S
C996 C999 1.511 . S
C997 C993 1.376 . S
C997 C996 1.392 . S
C997 H1009 0.929 . S
C998 C994 1.531 . S
C998 H1010 0.960 . S
C998 H1011 0.962 . S
C998 H1012 0.960 . S
C999 C996 1.511 . S
C999 H1013 0.961 . S
C999 H1014 0.961 . S
C999 H1015 0.961 . S
C1000 C1001 1.370 . S
C1000 C1002 1.363 . S
C1000 H1016 0.931 . S
C1001 C1000 1.370 . S
C1001 C1005 1.408 . S
C1002 C1000 1.363 . S
C1002 C1003 1.370 . S
C1002 C1006 1.524 . S
C1003 C995 1.503 . S
C1003 C1002 1.370 . S
C1003 C1004 1.403 . S
C1004 C1003 1.403 . S
C1004 C1005 1.404 . S
C1004 C1007 1.539 . S
C1005 C1001 1.408 . S
C1005 C1004 1.404 . S
C1005 H1017 0.930 . S
C1006 C1002 1.524 . S
C1006 H1018 0.956 . S
C1006 H1019 0.961 . S
C1006 H1020 0.961 . S
C1007 C1004 1.539 . S
C1007 H1021 0.958 . S
C1007 H1022 0.961 . S
C1007 H1023 0.960 . S
H1008 C992 0.931 . S
H1009 C997 0.929 . S
H1010 C998 0.960 . S
H1011 C998 0.962 . S
H1012 C998 0.960 . S
H1013 C999 0.961 . S
H1014 C999 0.961 . S
H1015 C999 0.961 . S
H1016 C1000 0.931 . S
H1017 C1005 0.930 . S
H1018 C1006 0.956 . S
H1019 C1006 0.961 . S
H1020 C1006 0.961 . S
H1021 C1007 0.958 . S
H1022 C1007 0.961 . S
H1023 C1007 0.960 . S
C257 C6 1.055 . S
C265 C102 1.062 . S
C289 C18 1.246 . S
C297 C151 1.208 . S
C329 C186 2.587 . S
C321 C28 2.645 . S
C353 C40 1.800 . S
C361 C225 1.773 . S
C393 C146 2.315 . S
C385 C9 2.191 . S
C425 C105 0.837 . S
C417 C16 0.816 . S
C457 C235 1.877 . S
C449 C30 1.928 . S
C489 C194 1.302 . S
C481 C42 1.340 . S
C513 C4 1.473 . S
C521 C222 1.477 . S
C553 C154 2.518 . S
C545 C33 2.599 . S
C577 C45 2.082 . S
C585 C115 2.059 . S
C609 C21 1.042 . S
C617 C191 1.024 . S
C649 C111 1.075 . S
C641 C57 1.036 . S
C673 C66 1.243 . S
C681 C142 1.247 . S
C705 C76 2.695 . S
C713 C195 2.632 . S
C737 C88 1.745 . S
C745 C234 1.701 . S
C769 C54 2.206 . S
C777 C155 2.304 . S
C809 C114 0.901 . S
C801 C64 0.955 . S
C841 C226 1.790 . S
C833 C78 1.843 . S
C873 C185 1.359 . S
C865 C93 1.381 . S
C897 C52 1.421 . S
C905 C231 1.485 . S
C937 C145 2.509 . S
C929 C81 2.578 . S
C969 C106 2.044 . S
C961 C90 2.052 . S
C993 C69 0.978 . S
C1001 C182 1.053 . S
