# Generated by pormake.
# Topology anh, (6,3)-cn, num edge types: 1
# Building blocks:
#     Node 0, Type 0, BuildingBlock: INOVEN_clean_sbu_0, # of connection points: 6
#     Node 1, Type 0, BuildingBlock: INOVEN_clean_sbu_0, # of connection points: 6
#     Node 2, Type 0, BuildingBlock: INOVEN_clean_sbu_0, # of connection points: 6
#     Node 3, Type 1, BuildingBlock: PAMTOO_clean_linker_0, # of connection points: 3
#     Node 4, Type 1, BuildingBlock: PAMTOO_clean_linker_0, # of connection points: 3
#     Node 5, Type 1, BuildingBlock: PAMTOO_clean_linker_0, # of connection points: 3
#     Node 6, Type 1, BuildingBlock: PAMTOO_clean_linker_0, # of connection points: 3
#     Node 7, Type 1, BuildingBlock: PAMTOO_clean_linker_0, # of connection points: 3
#     Node 8, Type 1, BuildingBlock: PAMTOO_clean_linker_0, # of connection points: 3
#     Edge 9, Type (0, 1), BuildingBlock: XIVTED_clean_linker_0, # of connection points: 2
#     Edge 10, Type (0, 1), BuildingBlock: XIVTED_clean_linker_0, # of connection points: 2
#     Edge 11, Type (0, 1), BuildingBlock: XIVTED_clean_linker_0, # of connection points: 2
#     Edge 12, Type (0, 1), BuildingBlock: XIVTED_clean_linker_0, # of connection points: 2
#     Edge 13, Type (0, 1), BuildingBlock: XIVTED_clean_linker_0, # of connection points: 2
#     Edge 14, Type (0, 1), BuildingBlock: XIVTED_clean_linker_0, # of connection points: 2
#     Edge 15, Type (0, 1), BuildingBlock: XIVTED_clean_linker_0, # of connection points: 2
#     Edge 16, Type (0, 1), BuildingBlock: XIVTED_clean_linker_0, # of connection points: 2
#     Edge 17, Type (0, 1), BuildingBlock: XIVTED_clean_linker_0, # of connection points: 2
#     Edge 18, Type (0, 1), BuildingBlock: XIVTED_clean_linker_0, # of connection points: 2
#     Edge 19, Type (0, 1), BuildingBlock: XIVTED_clean_linker_0, # of connection points: 2
#     Edge 20, Type (0, 1), BuildingBlock: XIVTED_clean_linker_0, # of connection points: 2
#     Edge 21, Type (0, 1), BuildingBlock: XIVTED_clean_linker_0, # of connection points: 2
#     Edge 22, Type (0, 1), BuildingBlock: XIVTED_clean_linker_0, # of connection points: 2
#     Edge 23, Type (0, 1), BuildingBlock: XIVTED_clean_linker_0, # of connection points: 2
#     Edge 24, Type (0, 1), BuildingBlock: XIVTED_clean_linker_0, # of connection points: 2
#     Edge 25, Type (0, 1), BuildingBlock: XIVTED_clean_linker_0, # of connection points: 2
#     Edge 26, Type (0, 1), BuildingBlock: XIVTED_clean_linker_0, # of connection points: 2
# Relax obj value: 0.165
# Max RMSD: 0.188
# Mean RMSD: 0.129
data_MOF--net-anh--node1-INOVEN_clean_sbu_0--node2-PAMTOO_clean_linker_0--edge1-XIVTED_clean_linker_0
_symmetry_space_group_name_H-M    P1
_symmetry_Int_Tables_number       1
_symmetry_cell_setting            triclinic
loop_
_symmetry_equiv_pos_as_xyz
'x, y, z'
_cell_length_a     30.984907
_cell_length_b     37.974088
_cell_length_c     49.189881
_cell_angle_alpha  88.875437
_cell_angle_beta   91.482624
_cell_angle_gamma 129.76976
loop_
_atom_site_label
_atom_site_type_symbol
_atom_site_fract_x
_atom_site_fract_y
_atom_site_fract_z
_atom_type_partial_charge
Gd0 Gd 0.2309 0.56286 0.14278 0.0
Gd1 Gd 0.16167 0.58653 0.16432 0.0
C2 C 0.28789 0.66964 0.1526 0.0
C3 C 0.29538 0.5546 0.11673 0.0
C4 C 0.3009 0.51937 0.11275 0.0
C5 C 0.3547 0.53257 0.11246 0.0
C6 C 0.2536 0.47279 0.11031 0.0
C7 C 0.31425 0.45302 0.10796 0.0
C8 C 0.26027 0.43988 0.10776 0.0
C9 C 0.36137 0.49973 0.11015 0.0
C10 C 0.22189 0.5588 0.19719 0.0
C11 C 0.1031 0.47813 0.15489 0.0
C12 C 0.09422 0.5894 0.19204 0.0
C13 C 1.03282 0.55895 0.19329 0.0
C14 C 1.00009 0.52066 0.17624 0.0
C15 C 1.00653 0.56788 0.21127 0.0
C16 C 0.91486 0.50074 0.19465 0.0
C17 C 0.94784 0.53906 0.21187 0.0
C18 C 0.94169 0.49168 0.17701 0.0
C19 C 0.16624 0.58662 0.10944 0.0
O20 O 0.2855 0.64042 0.13686 0.0
O21 O 0.2468 0.65499 0.16937 0.0
O22 O 0.25149 0.54735 0.10556 0.0
O23 O 0.30689 0.57138 0.14128 0.0
O24 O 0.2221 0.53022 0.18328 0.0
O25 O 0.22925 0.58921 0.18195 0.0
O26 O 0.10107 0.50866 0.16585 0.0
O27 O 0.14843 0.49075 0.1424 0.0
O28 O 0.11567 0.61116 0.16896 0.0
O29 O 0.11679 0.5719 0.20148 0.0
O30 O 0.16454 0.61485 0.12277 0.0
O31 O 0.16166 0.55839 0.12557 0.0
H32 H 0.39165 0.56835 0.11435 0.0
H33 H 0.2116 0.46178 0.11076 0.0
H34 H 0.22323 0.40408 0.10636 0.0
H35 H 0.40346 0.51088 0.11008 0.0
H36 H 1.01971 0.51359 0.16199 0.0
H37 H 1.03134 0.59732 0.2246 0.0
H38 H 0.92825 0.54683 0.22565 0.0
H39 H 0.91756 0.46304 0.16308 0.0
Gd40 Gd 0.71414 0.05143 0.47845 0.0
Gd41 Gd 0.63988 0.072 0.45963 0.0
C42 C 0.58133 0.967 0.46406 0.0
C43 C 0.75657 0.01907 0.50357 0.0
C44 C 0.74421 0.97459 0.50586 0.0
C45 C 0.73821 0.95045 0.48275 0.0
C46 C 0.73833 0.95594 0.53173 0.0
C47 C 0.72089 0.88978 0.51151 0.0
C48 C 0.7266 0.91391 0.53454 0.0
C49 C 0.72695 0.90853 0.48557 0.0
C50 C 0.71357 0.06255 0.4242 0.0
C51 C 0.77398 0.15657 0.47129 0.0
C52 C 0.59801 0.1068 0.4375 0.0
C53 C 0.60631 0.14848 0.4439 0.0
C54 C 0.62867 0.16949 0.46933 0.0
C55 C 0.5923 0.16765 0.42476 0.0
C56 C 0.62115 0.22784 0.45685 0.0
C57 C 0.59974 0.20705 0.43114 0.0
C58 C 0.63573 0.20857 0.4758 0.0
C59 C 0.64413 0.06356 0.51418 0.0
O60 O 0.62664 0.98121 0.47844 0.0
O61 O 0.57984 0.9966 0.45046 0.0
O62 O 0.77446 0.04031 0.48013 0.0
O63 O 0.72054 0.02138 0.51468 0.0
O64 O 0.75747 0.07576 0.43835 0.0
O65 O 0.67087 0.04137 0.43897 0.0
O66 O 0.72717 0.14167 0.45824 0.0
O67 O 0.77714 0.12779 0.48477 0.0
O68 O 0.57222 0.07457 0.45603 0.0
O69 O 0.6417 0.11346 0.42787 0.0
O70 O 0.59928 0.04982 0.50086 0.0
O71 O 0.68494 0.08359 0.49843 0.0
H72 H 0.74213 0.96384 0.4625 0.0
H73 H 0.74292 0.97399 0.54982 0.0
H74 H 0.72283 0.9006 0.55481 0.0
H75 H 0.72227 0.8905 0.46747 0.0
H76 H 0.64011 0.15532 0.48433 0.0
H77 H 0.57552 0.15213 0.40493 0.0
H78 H 0.58895 0.22129 0.41586 0.0
H79 H 0.65151 0.22303 0.49591 0.0
Gd80 Gd 0.66586 0.56883 0.84131 0.0
Gd81 Gd 0.58327 0.46691 0.84404 0.0
C82 C 0.52973 0.51699 0.8426 0.0
C83 C 0.7213 0.654 0.82802 0.0
C84 C 0.7104 0.68601 0.82148 0.0
C85 C 0.70313 0.70687 0.84211 0.0
C86 C 0.70971 0.69755 0.79425 0.0
C87 C 0.69432 0.74984 0.80831 0.0
C88 C 0.70154 0.72891 0.78773 0.0
C89 C 0.69516 0.73843 0.83558 0.0
C90 C 0.64065 0.53275 0.89186 0.0
C91 C 0.72115 0.52019 0.84376 0.0
C92 C 0.52925 0.38161 0.856 0.0
C93 C 0.53759 0.34808 0.85113 0.0
C94 C 0.49375 0.3057 0.83942 0.0
C95 C 0.58936 0.35845 0.85676 0.0
C96 C 0.55366 0.28504 0.83811 0.0
C97 C 0.59726 0.32718 0.85037 0.0
C98 C 0.50167 0.27453 0.83294 0.0
C99 C 0.60499 0.50098 0.79321 0.0
O100 O 0.5809 0.5535 0.83484 0.0
O101 O 0.52137 0.47959 0.85107 0.0
O102 O 0.71475 0.63983 0.85321 0.0
O103 O 0.70305 0.62164 0.81033 0.0
O104 O 0.69123 0.56774 0.88484 0.0
O105 O 0.60678 0.51997 0.87236 0.0
O106 O 0.66863 0.48159 0.84756 0.0
O107 O 0.7308 0.55914 0.83884 0.0
O108 O 0.51792 0.39515 0.83436 0.0
O109 O 0.56434 0.41508 0.87294 0.0
O110 O 0.55569 0.46568 0.80125 0.0
O111 O 0.64113 0.51534 0.812 0.0
H112 H 0.70389 0.69909 0.86332 0.0
H113 H 0.71608 0.68265 0.77791 0.0
H114 H 0.70207 0.73749 0.76655 0.0
H115 H 0.68928 0.75367 0.8519 0.0
H116 H 0.45347 0.29694 0.83494 0.0
H117 H 0.624 0.39095 0.86573 0.0
H118 H 0.63794 0.33649 0.85442 0.0
H119 H 0.46697 0.24209 0.8239 0.0
H120 H 0.78753 0.16586 0.22424 0.0
H121 H 0.65572 0.02163 0.21052 0.0
H122 H 0.74084 0.11323 0.14255 0.0
H123 H 0.61493 0.02142 0.12546 0.0
C124 C 0.60988 0.01131 0.14724 0.0
O125 O 0.66128 0.02683 0.15772 0.0
H126 H 0.59536 0.02784 0.15762 0.0
C127 C 0.76134 0.13731 0.21034 0.0
C128 C 0.76908 0.14539 0.18221 0.0
C129 C 0.72106 0.09296 0.22086 0.0
C130 C 0.68682 0.05616 0.2028 0.0
C131 C 0.69367 0.06332 0.17464 0.0
C132 C 0.73533 0.10789 0.16432 0.0
H133 H 0.67498 0.62485 0.59667 0.0
H134 H 0.67301 0.51201 0.58455 0.0
H135 H 0.68346 0.58843 0.51573 0.0
H136 H 0.60891 0.49053 0.50598 0.0
C137 C 0.62544 0.47983 0.52142 0.0
O138 O 0.67635 0.51848 0.53141 0.0
H139 H 0.59461 0.46136 0.53812 0.0
C140 C 0.67595 0.60325 0.58306 0.0
C141 C 0.67972 0.61134 0.5549 0.0
C142 C 0.67373 0.56776 0.59399 0.0
C143 C 0.67598 0.54025 0.57649 0.0
C144 C 0.679 0.54753 0.54829 0.0
C145 C 0.68178 0.58346 0.53756 0.0
H146 H 1.04254 0.5382 0.90654 0.0
H147 H 0.17262 0.52789 0.90233 0.0
H148 H 1.08067 0.51151 0.82962 0.0
H149 H 0.24117 0.57519 0.8601 0.0
C150 C 0.22122 0.54762 0.8446 0.0
O151 O 0.16453 0.51247 0.85092 0.0
H152 H 0.22227 0.56305 0.82493 0.0
C153 C 1.06731 0.53338 0.89457 0.0
C154 C 1.05539 0.52469 0.8666 0.0
C155 C 0.10908 0.53448 0.90759 0.0
C156 C 0.1403 0.527 0.89239 0.0
C157 C 0.13203 0.51971 0.86428 0.0
C158 C 0.08864 0.51812 0.85123 0.0
H159 H 0.08983 0.46322 0.39639 0.0
H160 H 0.24114 0.60232 0.40857 0.0
H161 H 0.14234 0.51934 0.47721 0.0
H162 H 0.21657 0.62947 0.48927 0.0
C163 C 0.22921 0.63441 0.4677 0.0
O164 O 0.23339 0.60139 0.46107 0.0
H165 H 0.19561 0.63028 0.45528 0.0
C166 C 0.11949 0.49159 0.4099 0.0
C167 C 0.10999 0.48594 0.43801 0.0
C168 C 0.16667 0.53318 0.39899 0.0
C169 C 0.20435 0.57 0.41655 0.0
C170 C 0.19568 0.56528 0.44464 0.0
C171 C 0.14883 0.523 0.45546 0.0
H172 H 0.66886 0.98039 0.71102 0.0
H173 H 0.64526 0.0777 0.72842 0.0
H174 H 0.65581 1.00724 0.7939 0.0
H175 H 0.58384 0.0289 0.80976 0.0
C176 C 0.59175 0.04923 0.79115 0.0
O177 O 0.64365 0.06768 0.78115 0.0
H178 H 0.55764 0.02546 0.77613 0.0
C179 C 0.6638 0.99847 0.72562 0.0
C180 C 0.66291 0.98949 0.75359 0.0
C181 C 0.65739 0.03012 0.71626 0.0
C182 C 0.65031 0.05318 0.73521 0.0
C183 C 0.65037 0.04518 0.7631 0.0
C184 C 0.657 0.01369 0.77227 0.0
H185 H 0.59883 0.40332 0.08874 0.0
H186 H 0.44646 0.29234 0.04743 0.0
H187 H 0.48722 0.27039 0.12646 0.0
H188 H 0.36687 0.20645 0.12112 0.0
C189 C 0.36441 0.21651 0.10012 0.0
O190 O 0.41279 0.23303 0.08652 0.0
H191 H 0.32805 0.18481 0.08983 0.0
C192 C 0.56006 0.36815 0.08832 0.0
C193 C 0.54713 0.33923 0.11052 0.0
C194 C 0.52486 0.35169 0.06513 0.0
C195 C 0.47442 0.30611 0.06504 0.0
C196 C 0.46087 0.27711 0.0872 0.0
C197 C 0.49766 0.29336 0.10965 0.0
H198 H 0.38405 0.4478 0.13924 0.0
H199 H 0.31115 0.23165 0.06202 0.0
H200 H 0.26123 0.37904 0.0739 0.0
H201 H 0.39844 0.28016 0.13938 0.0
H202 H 0.29864 0.28932 0.06336 0.0
H203 H 0.39645 0.39057 0.13694 0.0
C204 C 0.3599 0.42074 0.1243 0.0
C205 C 0.32166 0.41819 0.10669 0.0
C206 C 0.32017 0.28711 0.08012 0.0
C207 C 0.33543 0.35242 0.104 0.0
C208 C 0.32717 0.25427 0.07936 0.0
C209 C 0.35478 0.25077 0.10089 0.0
C210 C 0.34179 0.31702 0.10238 0.0
C211 C 0.37605 0.2814 0.12264 0.0
C212 C 0.36673 0.38793 0.1231 0.0
C213 C 0.29085 0.38202 0.08798 0.0
N214 N 0.36914 0.31327 0.12284 0.0
N215 N 0.29858 0.35061 0.08704 0.0
H216 H 0.88064 0.20266 0.49351 0.0
H217 H 1.00148 0.44078 0.42211 0.0
H218 H 0.78007 0.225 0.44687 0.0
H219 H 0.10247 0.42793 0.4761 0.0
H220 H 0.91928 0.36229 0.4331 0.0
H221 H 0.96159 0.2847 0.48925 0.0
C222 C 0.87537 0.22471 0.48252 0.0
C223 C 0.82328 0.20656 0.4704 0.0
C224 C 0.95914 0.37654 0.44285 0.0
C225 C 0.91597 0.30063 0.46541 0.0
C226 C 1.0061 0.42149 0.43661 0.0
C227 C 1.05889 0.44093 0.4482 0.0
C228 C 0.96473 0.35015 0.4606 0.0
C229 C 1.06245 0.41434 0.46686 0.0
C230 C 0.92166 0.27161 0.48012 0.0
C231 C 0.81922 0.23704 0.45645 0.0
N232 N 1.01616 0.37012 0.47225 0.0
N233 N 0.86478 0.28223 0.45425 0.0
H234 H 0.63048 0.7459 0.76689 0.0
H235 H 0.72222 0.99246 0.79741 0.0
H236 H 0.74097 0.83144 0.83353 0.0
H237 H 0.61118 0.90515 0.73139 0.0
H238 H 0.7278 0.93339 0.81195 0.0
H239 H 0.62158 0.80351 0.75435 0.0
C240 C 0.65301 0.77688 0.77886 0.0
C241 C 0.68675 0.78389 0.80122 0.0
C242 C 0.7022 0.92718 0.79429 0.0
C243 C 0.67643 0.85009 0.78706 0.0
C244 C 0.6988 0.96081 0.78605 0.0
C245 C 0.66648 0.95394 0.76302 0.0
C246 C 0.67295 0.88629 0.77944 0.0
C247 C 0.63745 0.91237 0.74895 0.0
C248 C 0.6477 0.80971 0.77176 0.0
C249 C 0.71412 0.82438 0.81627 0.0
N250 N 0.64144 0.88025 0.75736 0.0
N251 N 0.70855 0.85602 0.80885 0.0
H252 H 0.83576 0.40719 0.19189 0.0
H253 H 0.6023 0.41978 0.13814 0.0
H254 H 0.85307 0.52926 0.1936 0.0
H255 H 0.58674 0.29874 0.134 0.0
H256 H 0.68455 0.4552 0.16808 0.0
H257 H 0.73614 0.36234 0.18036 0.0
C258 C 0.81835 0.42442 0.19022 0.0
C259 C 0.85292 0.47213 0.19317 0.0
C260 C 0.66261 0.42057 0.16105 0.0
C261 C 0.73911 0.42113 0.17988 0.0
C262 C 0.61571 0.40039 0.14396 0.0
C263 C 0.58844 0.35665 0.13321 0.0
C264 C 0.68273 0.39702 0.16718 0.0
C265 C 0.60676 0.33263 0.14175 0.0
C266 C 0.76146 0.39881 0.18372 0.0
C267 C 0.82801 0.49259 0.19139 0.0
N268 N 0.65345 0.35347 0.15784 0.0
N269 N 0.77281 0.46709 0.18438 0.0
H270 H 0.566 0.89635 0.49201 0.0
H271 H 0.25606 0.70094 0.43062 0.0
H272 H 0.48344 0.92325 0.43383 0.0
H273 H 0.32808 0.67709 0.49699 0.0
H274 H 0.34288 0.78079 0.42827 0.0
H275 H 0.48328 0.81492 0.49115 0.0
C276 C 0.53064 0.88523 0.47896 0.0
C277 C 0.53189 0.91704 0.46304 0.0
C278 C 0.33997 0.75813 0.44327 0.0
C279 C 0.43662 0.82329 0.46193 0.0
C280 C 0.29045 0.71246 0.44454 0.0
C281 C 0.28477 0.6824 0.46413 0.0
C282 C 0.38451 0.77404 0.46167 0.0
C283 C 0.33075 0.69918 0.48162 0.0
C284 C 0.48329 0.8386 0.47852 0.0
C285 C 0.48455 0.90023 0.44654 0.0
N286 N 0.37851 0.74384 0.48007 0.0
N287 N 0.43903 0.8547 0.44644 0.0
H288 H 0.51955 0.23524 0.79123 0.0
H289 H 0.62932 0.10075 0.83761 0.0
H290 H 0.608 0.2606 0.86715 0.0
H291 H 0.55264 0.08405 0.75936 0.0
H292 H 0.6237 0.16046 0.84868 0.0
H293 H 0.53205 0.18024 0.77917 0.0
C294 C 0.54142 0.22909 0.80543 0.0
C295 C 0.5624 0.25237 0.83034 0.0
C296 C 0.60812 0.1438 0.82908 0.0
C297 C 0.57734 0.18956 0.81653 0.0
C298 C 0.61128 0.10977 0.82282 0.0
C299 C 0.59033 0.08699 0.79781 0.0
C300 C 0.58401 0.15519 0.81011 0.0
C301 C 0.56832 0.10035 0.77906 0.0
C302 C 0.54888 0.19788 0.79844 0.0
C303 C 0.5914 0.24366 0.84767 0.0
N304 N 0.56532 0.13332 0.78567 0.0
N305 N 0.59774 0.21279 0.84051 0.0
H306 H 0.64487 0.81835 0.54494 0.0
H307 H 0.74682 0.67548 0.51539 0.0
H308 H 0.76974 0.86012 0.48542 0.0
H309 H 0.61323 0.63129 0.56977 0.0
H310 H 0.75229 0.74069 0.50158 0.0
H311 H 0.62976 0.7475 0.55229 0.0
C312 C 0.66911 0.81255 0.53341 0.0
C313 C 0.70898 0.84535 0.51474 0.0
C314 C 0.72153 0.7165 0.51639 0.0
C315 C 0.69186 0.76409 0.52296 0.0
C316 C 0.71822 0.67919 0.52417 0.0
C317 C 0.68011 0.64832 0.54406 0.0
C318 C 0.6864 0.72284 0.5286 0.0
C319 C 0.64414 0.65483 0.55483 0.0
C320 C 0.66028 0.77196 0.53749 0.0
C321 C 0.73846 0.83565 0.49996 0.0
N322 N 0.64848 0.69146 0.54713 0.0
N323 N 0.72968 0.79606 0.50456 0.0
H324 H 0.8353 0.59395 0.84162 0.0
H325 H 0.9448 0.44882 0.85448 0.0
H326 H 0.72198 0.44674 0.84809 0.0
H327 H 1.05422 0.59588 0.857 0.0
H328 H 0.86368 0.44651 0.84785 0.0
H329 H 0.91486 0.59447 0.8436 0.0
C330 C 0.82672 0.56153 0.84341 0.0
C331 C 0.77069 0.52022 0.84476 0.0
C332 C 0.90548 0.4794 0.84931 0.0
C333 C 0.86386 0.52064 0.84694 0.0
C334 C 0.95219 0.48076 0.85268 0.0
C335 C 1.00743 0.5227 0.8554 0.0
C336 C 0.91317 0.52033 0.84881 0.0
C337 C 1.01314 0.56273 0.85418 0.0
C338 C 0.8727 0.56191 0.84456 0.0
C339 C 0.76374 0.47962 0.8471 0.0
N340 N 0.96726 0.56053 0.85102 0.0
N341 N 0.80922 0.48089 0.84807 0.0
H342 H 0.37738 0.71591 0.11769 0.0
H343 H 0.53336 0.96094 0.18789 0.0
H344 H 0.31244 0.73736 0.18619 0.0
H345 H 0.58687 0.94461 0.11267 0.0
H346 H 0.45713 0.87777 0.18987 0.0
H347 H 0.45838 0.79814 0.11735 0.0
C348 C 0.38008 0.73779 0.13268 0.0
C349 C 0.33768 0.71946 0.15193 0.0
C350 C 0.48554 0.89224 0.17293 0.0
C351 C 0.43075 0.81384 0.15177 0.0
C352 C 0.52913 0.9397 0.17186 0.0
C353 C 0.56585 0.95968 0.14987 0.0
C354 C 0.47877 0.86431 0.15195 0.0
C355 C 0.55902 0.93055 0.12982 0.0
C356 C 0.4264 0.7848 0.13247 0.0
C357 C 0.34374 0.74973 0.17086 0.0
N358 N 0.51617 0.88442 0.13124 0.0
N359 N 0.38921 0.79518 0.1703 0.0
H360 H 0.70385 0.30207 0.48809 0.0
H361 H 0.56899 0.42466 0.47725 0.0
H362 H 0.5515 0.24692 0.44265 0.0
H363 H 0.692 0.45844 0.5386 0.0
H364 H 0.57118 0.36598 0.45964 0.0
H365 H 0.70875 0.36584 0.50234 0.0
C366 C 0.67133 0.30319 0.48111 0.0
C367 C 0.62689 0.2686 0.46425 0.0
C368 C 0.59817 0.38654 0.47676 0.0
C369 C 0.63301 0.34227 0.48018 0.0
C370 C 0.59719 0.4202 0.48669 0.0
C371 C 0.63135 0.44715 0.50897 0.0
C372 C 0.63333 0.37949 0.48932 0.0
C373 C 0.66597 0.43911 0.52098 0.0
C374 C 0.67438 0.33982 0.48917 0.0
C375 C 0.58688 0.27283 0.45537 0.0
N376 N 0.66621 0.40608 0.51095 0.0
N377 N 0.59085 0.30885 0.46348 0.0
H378 H 0.52556 0.58168 0.81892 0.0
H379 H 0.22339 0.48433 0.8754 0.0
H380 H 0.42347 0.45716 0.86605 0.0
H381 H 0.31074 0.58427 0.81128 0.0
H382 H 0.29551 0.47485 0.87485 0.0
H383 H 0.44909 0.58505 0.81877 0.0
C384 C 0.48718 0.5549 0.82931 0.0
C385 C 0.48187 0.51895 0.84244 0.0
C386 C 0.29845 0.49838 0.86061 0.0
C387 C 0.39236 0.52297 0.84259 0.0
C388 C 0.25674 0.5035 0.86076 0.0
C389 C 0.25913 0.53406 0.84267 0.0
C390 C 0.34441 0.52494 0.8428 0.0
C391 C 0.30549 0.55927 0.82508 0.0
C392 C 0.44307 0.55683 0.82916 0.0
C393 C 0.43019 0.48553 0.85549 0.0
N394 N 0.34564 0.55433 0.82568 0.0
N395 N 0.38809 0.48848 0.85537 0.0
H396 H 1.0034 0.4406 0.17915 0.0
H397 H 0.85561 0.17836 0.14691 0.0
H398 H 0.08556 0.40247 0.13403 0.0
H399 H 0.78457 0.22186 0.19633 0.0
H400 H 0.93616 0.25939 0.13773 0.0
H401 H 0.92012 0.3604 0.18194 0.0
C402 C 1.00408 0.41544 0.16973 0.0
C403 C 1.05207 0.42871 0.15637 0.0
C404 C 0.90263 0.25113 0.15035 0.0
C405 C 0.95564 0.33562 0.15962 0.0
C406 C 0.85643 0.20491 0.15538 0.0
C407 C 0.81342 0.19334 0.17251 0.0
C408 C 0.90558 0.28595 0.16243 0.0
C409 C 0.81697 0.22917 0.1832 0.0
C410 C 0.95619 0.36936 0.17136 0.0
C411 C 1.04977 0.39401 0.14463 0.0
N412 N 0.86216 0.27358 0.17812 0.0
N413 N 1.00249 0.34911 0.14659 0.0
H414 H 0.16542 0.63985 0.07144 0.0
H415 H 0.12594 0.49011 0.9454 0.0
H416 H 0.15505 0.52135 0.07959 0.0
H417 H 0.11667 0.59851 0.93763 0.0
H418 H 0.14291 0.50448 -0.00573 0.0
H419 H 0.15352 0.62857 0.02204 0.0
C420 C 0.16092 0.61162 0.0628 0.0
C421 C 0.16132 0.58155 0.07957 0.0
C422 C 0.1372 0.52517 0.98189 0.0
C423 C 0.14767 0.56836 0.0232 0.0
C424 C 0.12781 0.51713 0.95395 0.0
C425 C 0.1198 0.5431 0.93736 0.0
C426 C 0.13885 0.55958 -0.00656 0.0
C427 C 0.12194 0.57729 0.94967 0.0
C428 C 0.15404 0.60513 0.03464 0.0
C429 C 0.1553 0.5455 0.06737 0.0
N430 N 0.13131 0.58456 0.97693 0.0
N431 N 0.14869 0.5399 0.03996 0.0
H432 H 0.80299 0.10618 0.3911 0.0
H433 H 0.62609 0.03975 0.25204 0.0
H434 H 0.6234 0.02737 0.38944 0.0
H435 H 0.8069 0.12897 0.2577 0.0
H436 H 0.62214 0.0309 0.30178 0.0
H437 H 0.80336 0.11172 0.34173 0.0
C438 C 0.76353 0.09 0.38027 0.0
C439 C 0.71309 0.06621 0.39431 0.0
C440 C 0.6626 0.05241 0.29208 0.0
C441 C 0.71305 0.07234 0.33757 0.0
C442 C 0.66486 0.05726 0.26373 0.0
C443 C 0.71693 0.08547 0.25075 0.0
C444 C 0.71277 0.07566 0.30744 0.0
C445 C 0.76588 0.10754 0.26686 0.0
C446 C 0.76374 0.09318 0.35204 0.0
C447 C 0.6632 0.04601 0.37929 0.0
N448 N 0.76257 0.10218 0.29426 0.0
N449 N 0.66438 0.04945 0.35164 0.0
H450 H 0.53225 0.48515 0.75372 0.0
H451 H 0.73518 0.55858 0.63009 0.0
H452 H 0.70571 0.54676 0.76734 0.0
H453 H 0.59369 0.55553 0.62487 0.0
H454 H 0.72132 0.54523 0.6795 0.0
H455 H 0.55035 0.50236 0.70525 0.0
C456 C 0.57426 0.50253 0.74645 0.0
C457 C 0.61757 0.51459 0.76442 0.0
C458 C 0.69353 0.54765 0.66747 0.0
C459 C 0.6384 0.53369 0.70899 0.0
C460 C 0.70113 0.55487 0.63937 0.0
C461 C 0.66556 0.55822 0.62355 0.0
C462 C 0.64939 0.54285 0.67953 0.0
C463 C 0.62223 0.55347 0.63644 0.0
C464 C 0.58458 0.51237 0.71883 0.0
C465 C 0.6713 0.5371 0.75404 0.0
N466 N 0.61516 0.54575 0.66363 0.0
N467 N 0.68017 0.54555 0.72686 0.0
H468 H 0.73516 0.08978 0.54489 0.0
H469 H 0.5826 0.03219 0.68712 0.0
H470 H 0.56219 0.03155 0.55116 0.0
H471 H 0.73094 0.04602 0.67813 0.0
H472 H 0.58038 0.04228 0.63788 0.0
H473 H 0.73996 0.08364 0.59439 0.0
C474 C 0.69821 0.07568 0.55671 0.0
C475 C 0.64808 0.06084 0.54398 0.0
C476 C 0.61344 0.04316 0.6467 0.0
C477 C 0.65348 0.05438 0.60049 0.0
C478 C 0.61494 0.03773 0.67478 0.0
C479 C 0.65692 0.03815 0.68666 0.0
C480 C 0.65463 0.04964 0.63043 0.0
C481 C 0.69754 0.04502 0.66972 0.0
C482 C 0.70097 0.07219 0.58491 0.0
C483 C 0.60158 0.04321 0.56021 0.0
N484 N 0.69548 0.05062 0.64247 0.0
N485 N 0.60543 0.04059 0.58765 0.0
H486 H 0.5347 0.46701 0.90978 0.0
H487 H 0.63078 0.41227 0.04444 0.0
H488 H 0.70848 0.54462 0.93404 0.0
H489 H 0.46028 0.35825 0.02938 0.0
H490 H 0.65983 0.45948 0.00369 0.0
H491 H 0.50646 0.42511 0.95279 0.0
C492 C 0.56694 0.47536 0.92428 0.0
C493 C 0.62403 0.50924 0.91841 0.0
C494 C 0.61614 0.43754 0.00939 0.0
C495 C 0.59198 0.4612 0.96761 0.0
C496 C 0.59945 0.4107 0.03279 0.0
C497 C 0.5429 0.3813 0.04056 0.0
C498 C 0.57601 0.43473 -0.00669 0.0
C499 C 0.50416 0.37996 0.02409 0.0
C500 C 0.55077 0.45148 0.94884 0.0
C501 C 0.66404 0.51876 0.93786 0.0
N502 N 0.52141 0.40616 0.0012 0.0
N503 N 0.64724 0.4946 0.96158 0.0
H504 H 0.22854 0.61972 0.22977 0.0
H505 H 0.15589 0.47156 0.36516 0.0
H506 H 0.19944 0.49242 0.23199 0.0
H507 H 0.20008 0.60483 0.36515 0.0
H508 H 0.16962 0.4781 0.31614 0.0
H509 H 0.21631 0.6145 0.27911 0.0
C510 C 0.21961 0.5907 0.24068 0.0
C511 C 0.21502 0.55644 0.22688 0.0
C512 C 0.17643 0.506 0.32682 0.0
C513 C 0.20098 0.5502 0.28318 0.0
C514 C 0.16829 0.50217 0.3548 0.0
C515 C 0.17657 0.53761 0.36927 0.0
C516 C 0.19283 0.54552 0.31304 0.0
C517 C 0.19362 0.57683 0.35484 0.0
C518 C 0.21272 0.58776 0.26882 0.0
C519 C 0.20343 0.5196 0.24191 0.0
N520 N 0.20097 0.57966 0.3275 0.0
N521 N 0.19672 0.51741 0.26924 0.0
loop_
_geom_bond_atom_site_label_1
_geom_bond_atom_site_label_2
_geom_bond_distance
_geom_bond_site_symmetry_2
_ccdc_geom_bond_type
Gd0 C3 2.818 . S
Gd0 O20 2.377 . S
Gd0 O22 2.448 . S
Gd0 O23 2.506 . S
Gd0 O24 2.435 . S
Gd0 O25 2.717 1_455 S
Gd0 O27 2.395 1_455 S
Gd0 O31 2.327 . S
Gd1 C12 2.818 . S
Gd1 O21 2.395 1_655 S
Gd1 O25 2.327 . S
Gd1 O26 2.377 . S
Gd1 O28 2.448 . S
Gd1 O29 2.506 . S
Gd1 O30 2.435 . S
Gd1 O31 2.717 1_655 S
C2 O20 1.240 . S
C2 O21 1.240 . S
C3 Gd0 2.818 . S
C3 C4 1.510 . S
C3 O22 1.249 . S
C3 O23 1.252 . S
C4 C3 1.510 . S
C4 C5 1.404 . S
C4 C6 1.352 . S
C5 C4 1.404 . S
C5 C9 1.389 . S
C5 H32 0.930 . S
C6 C4 1.352 . S
C6 C8 1.374 . S
C6 H33 0.931 . S
C7 C8 1.359 . S
C7 C9 1.364 . S
C8 C6 1.374 . S
C8 C7 1.359 . S
C8 H34 0.931 . S
C9 C5 1.389 . S
C9 C7 1.364 . S
C9 H35 0.931 . S
C10 O24 1.256 . S
C10 O25 1.257 1_455 S
C11 O26 1.240 . S
C11 O27 1.240 . S
C12 Gd1 2.818 . S
C12 C13 1.510 . S
C12 O28 1.249 . S
C12 O29 1.252 . S
C13 C12 1.510 . S
C13 C14 1.404 . S
C13 C15 1.352 . S
C14 C13 1.404 . S
C14 C18 1.389 . S
C14 H36 0.930 . S
C15 C13 1.352 . S
C15 C17 1.374 . S
C15 H37 0.931 . S
C16 C17 1.359 . S
C16 C18 1.364 . S
C17 C15 1.374 . S
C17 C16 1.359 . S
C17 H38 0.931 . S
C18 C14 1.389 . S
C18 C16 1.364 . S
C18 H39 0.931 . S
C19 O30 1.256 1_455 S
C19 O31 1.257 . S
O20 Gd0 2.377 . S
O20 C2 1.240 . S
O21 Gd1 2.395 1_455 S
O21 C2 1.240 . S
O22 Gd0 2.448 . S
O22 C3 1.249 . S
O23 Gd0 2.506 . S
O23 C3 1.252 . S
O24 Gd0 2.435 . S
O24 C10 1.256 . S
O25 Gd0 2.717 1_655 S
O25 Gd1 2.327 . S
O25 C10 1.257 1_655 S
O26 Gd1 2.377 . S
O26 C11 1.240 . S
O27 Gd0 2.395 1_655 S
O27 C11 1.240 . S
O28 Gd1 2.448 . S
O28 C12 1.249 . S
O29 Gd1 2.506 . S
O29 C12 1.252 . S
O30 Gd1 2.435 . S
O30 C19 1.256 1_655 S
O31 Gd0 2.327 . S
O31 Gd1 2.717 1_455 S
O31 C19 1.257 . S
H32 C5 0.930 . S
H33 C6 0.931 . S
H34 C8 0.931 . S
H35 C9 0.931 . S
H36 C14 0.930 . S
H37 C15 0.931 . S
H38 C17 0.931 . S
H39 C18 0.931 . S
Gd40 C43 2.812 1_545 S
Gd40 O60 2.376 1_545 S
Gd40 O62 2.442 1_545 S
Gd40 O63 2.501 1_545 S
Gd40 O64 2.436 . S
Gd40 O65 2.723 . S
Gd40 O67 2.401 . S
Gd40 O71 2.331 . S
Gd41 C52 2.818 . S
Gd41 O61 2.395 1_545 S
Gd41 O65 2.327 . S
Gd41 O66 2.377 . S
Gd41 O68 2.448 . S
Gd41 O69 2.506 . S
Gd41 O70 2.435 . S
Gd41 O71 2.717 . S
C42 O60 1.240 . S
C42 O61 1.240 . S
C43 Gd40 2.812 1_565 S
C43 C44 1.510 . S
C43 O62 1.249 . S
C43 O63 1.252 . S
C44 C43 1.510 . S
C44 C45 1.404 . S
C44 C46 1.352 . S
C45 C44 1.404 . S
C45 C49 1.389 . S
C45 H72 0.930 . S
C46 C44 1.352 . S
C46 C48 1.374 . S
C46 H73 0.931 . S
C47 C48 1.359 . S
C47 C49 1.364 . S
C48 C46 1.374 . S
C48 C47 1.359 . S
C48 H74 0.931 . S
C49 C45 1.389 . S
C49 C47 1.364 . S
C49 H75 0.931 . S
C50 O64 1.256 . S
C50 O65 1.257 . S
C51 O66 1.240 . S
C51 O67 1.240 . S
C52 Gd41 2.818 . S
C52 C53 1.510 . S
C52 O68 1.249 . S
C52 O69 1.252 . S
C53 C52 1.510 . S
C53 C54 1.404 . S
C53 C55 1.352 . S
C54 C53 1.404 . S
C54 C58 1.389 . S
C54 H76 0.930 . S
C55 C53 1.352 . S
C55 C57 1.374 . S
C55 H77 0.931 . S
C56 C57 1.359 . S
C56 C58 1.364 . S
C57 C55 1.374 . S
C57 C56 1.359 . S
C57 H78 0.931 . S
C58 C54 1.389 . S
C58 C56 1.364 . S
C58 H79 0.931 . S
C59 O70 1.256 . S
C59 O71 1.257 . S
O60 Gd40 2.376 1_565 S
O60 C42 1.240 . S
O61 Gd41 2.395 1_565 S
O61 C42 1.240 . S
O62 Gd40 2.442 1_565 S
O62 C43 1.249 . S
O63 Gd40 2.501 1_565 S
O63 C43 1.252 . S
O64 Gd40 2.436 . S
O64 C50 1.256 . S
O65 Gd40 2.723 . S
O65 Gd41 2.327 . S
O65 C50 1.257 . S
O66 Gd41 2.377 . S
O66 C51 1.240 . S
O67 Gd40 2.401 . S
O67 C51 1.240 . S
O68 Gd41 2.448 . S
O68 C52 1.249 . S
O69 Gd41 2.506 . S
O69 C52 1.252 . S
O70 Gd41 2.435 . S
O70 C59 1.256 . S
O71 Gd40 2.331 . S
O71 Gd41 2.717 . S
O71 C59 1.257 . S
H72 C45 0.930 . S
H73 C46 0.931 . S
H74 C48 0.931 . S
H75 C49 0.931 . S
H76 C54 0.930 . S
H77 C55 0.931 . S
H78 C57 0.931 . S
H79 C58 0.931 . S
Gd80 C83 2.818 . S
Gd80 O100 2.377 . S
Gd80 O102 2.448 . S
Gd80 O103 2.506 . S
Gd80 O104 2.435 . S
Gd80 O105 2.717 . S
Gd80 O107 2.395 . S
Gd80 O111 2.327 . S
Gd81 C92 2.818 . S
Gd81 O101 2.395 . S
Gd81 O105 2.327 . S
Gd81 O106 2.377 . S
Gd81 O108 2.448 . S
Gd81 O109 2.506 . S
Gd81 O110 2.435 . S
Gd81 O111 2.717 . S
C82 O100 1.240 . S
C82 O101 1.240 . S
C83 Gd80 2.818 . S
C83 C84 1.510 . S
C83 O102 1.249 . S
C83 O103 1.252 . S
C84 C83 1.510 . S
C84 C85 1.404 . S
C84 C86 1.352 . S
C85 C84 1.404 . S
C85 C89 1.389 . S
C85 H112 0.930 . S
C86 C84 1.352 . S
C86 C88 1.374 . S
C86 H113 0.931 . S
C87 C88 1.359 . S
C87 C89 1.364 . S
C88 C86 1.374 . S
C88 C87 1.359 . S
C88 H114 0.931 . S
C89 C85 1.389 . S
C89 C87 1.364 . S
C89 H115 0.931 . S
C90 O104 1.256 . S
C90 O105 1.257 . S
C91 O106 1.240 . S
C91 O107 1.240 . S
C92 Gd81 2.818 . S
C92 C93 1.510 . S
C92 O108 1.249 . S
C92 O109 1.252 . S
C93 C92 1.510 . S
C93 C94 1.404 . S
C93 C95 1.352 . S
C94 C93 1.404 . S
C94 C98 1.389 . S
C94 H116 0.930 . S
C95 C93 1.352 . S
C95 C97 1.374 . S
C95 H117 0.931 . S
C96 C97 1.359 . S
C96 C98 1.364 . S
C97 C95 1.374 . S
C97 C96 1.359 . S
C97 H118 0.931 . S
C98 C94 1.389 . S
C98 C96 1.364 . S
C98 H119 0.931 . S
C99 O110 1.256 . S
C99 O111 1.257 . S
O100 Gd80 2.377 . S
O100 C82 1.240 . S
O101 Gd81 2.395 . S
O101 C82 1.240 . S
O102 Gd80 2.448 . S
O102 C83 1.249 . S
O103 Gd80 2.506 . S
O103 C83 1.252 . S
O104 Gd80 2.435 . S
O104 C90 1.256 . S
O105 Gd80 2.717 . S
O105 Gd81 2.327 . S
O105 C90 1.257 . S
O106 Gd81 2.377 . S
O106 C91 1.240 . S
O107 Gd80 2.395 . S
O107 C91 1.240 . S
O108 Gd81 2.448 . S
O108 C92 1.249 . S
O109 Gd81 2.506 . S
O109 C92 1.252 . S
O110 Gd81 2.435 . S
O110 C99 1.256 . S
O111 Gd80 2.327 . S
O111 Gd81 2.717 . S
O111 C99 1.257 . S
H112 C85 0.930 . S
H113 C86 0.931 . S
H114 C88 0.931 . S
H115 C89 0.931 . S
H116 C94 0.930 . S
H117 C95 0.931 . S
H118 C97 0.931 . S
H119 C98 0.931 . S
H120 C127 0.929 . S
H121 C130 0.930 . S
H122 C132 0.929 . S
H123 C124 0.969 . S
C124 H123 0.969 . S
C124 O125 1.550 . S
C124 H126 0.973 . S
O125 C124 1.550 . S
O125 C131 1.412 . S
H126 C124 0.973 . S
C127 H120 0.929 . S
C127 C128 1.400 . S
C127 C129 1.364 . S
C128 C127 1.400 . S
C128 C132 1.377 . S
C129 C127 1.364 . S
C129 C130 1.374 1_545 S
C130 H121 0.930 . S
C130 C129 1.374 1_565 S
C130 C131 1.383 . S
C131 O125 1.412 . S
C131 C130 1.383 . S
C131 C132 1.394 1_565 S
C132 H122 0.929 . S
C132 C128 1.377 . S
C132 C131 1.394 1_545 S
H133 C140 0.929 . S
H134 C143 0.930 . S
H135 C145 0.929 . S
H136 C137 0.969 . S
C137 H136 0.969 . S
C137 O138 1.550 . S
C137 H139 0.973 . S
O138 C137 1.550 . S
O138 C144 1.412 . S
H139 C137 0.973 . S
C140 H133 0.929 . S
C140 C141 1.400 . S
C140 C142 1.364 . S
C141 C140 1.400 . S
C141 C145 1.377 . S
C142 C140 1.364 . S
C142 C143 1.374 . S
C143 H134 0.930 . S
C143 C142 1.374 . S
C143 C144 1.383 . S
C144 O138 1.412 . S
C144 C143 1.383 . S
C144 C145 1.394 . S
C145 H135 0.929 . S
C145 C141 1.377 . S
C145 C144 1.394 . S
H146 C153 0.929 . S
H147 C156 0.930 . S
H148 C158 0.929 . S
H149 C150 0.969 . S
C150 H149 0.969 . S
C150 O151 1.550 . S
C150 H152 0.973 . S
O151 C150 1.550 . S
O151 C157 1.412 . S
H152 C150 0.973 . S
C153 H146 0.929 . S
C153 C154 1.400 . S
C153 C155 1.364 . S
C154 C153 1.400 . S
C154 C158 1.377 . S
C155 C153 1.364 . S
C155 C156 1.374 . S
C156 H147 0.930 . S
C156 C155 1.374 . S
C156 C157 1.383 . S
C157 O151 1.412 . S
C157 C156 1.383 . S
C157 C158 1.394 . S
C158 H148 0.929 . S
C158 C154 1.377 . S
C158 C157 1.394 . S
H159 C166 0.929 . S
H160 C169 0.930 . S
H161 C171 0.929 . S
H162 C163 0.969 . S
C163 H162 0.969 . S
C163 O164 1.550 . S
C163 H165 0.973 . S
O164 C163 1.550 . S
O164 C170 1.412 . S
H165 C163 0.973 . S
C166 H159 0.929 . S
C166 C167 1.400 . S
C166 C168 1.364 1_655 S
C167 C166 1.400 . S
C167 C171 1.377 1_655 S
C168 C166 1.364 1_455 S
C168 C169 1.374 . S
C169 H160 0.930 . S
C169 C168 1.374 . S
C169 C170 1.383 . S
C170 O164 1.412 . S
C170 C169 1.383 . S
C170 C171 1.394 . S
C171 H161 0.929 . S
C171 C167 1.377 1_455 S
C171 C170 1.394 . S
H172 C179 0.929 . S
H173 C182 0.930 . S
H174 C184 0.929 . S
H175 C176 0.969 . S
C176 H175 0.969 . S
C176 O177 1.550 . S
C176 H178 0.973 . S
O177 C176 1.550 . S
O177 C183 1.412 . S
H178 C176 0.973 . S
C179 H172 0.929 . S
C179 C180 1.400 . S
C179 C181 1.364 1_565 S
C180 C179 1.400 . S
C180 C184 1.377 1_565 S
C181 C179 1.364 1_545 S
C181 C182 1.374 . S
C182 H173 0.930 . S
C182 C181 1.374 . S
C182 C183 1.383 . S
C183 O177 1.412 . S
C183 C182 1.383 . S
C183 C184 1.394 . S
C184 H174 0.929 . S
C184 C180 1.377 1_545 S
C184 C183 1.394 . S
H185 C192 0.929 . S
H186 C195 0.930 . S
H187 C197 0.929 . S
H188 C189 0.969 . S
C189 H188 0.969 . S
C189 O190 1.550 . S
C189 H191 0.973 . S
O190 C189 1.550 . S
O190 C196 1.412 . S
H191 C189 0.973 . S
C192 H185 0.929 . S
C192 C193 1.400 . S
C192 C194 1.364 . S
C193 C192 1.400 . S
C193 C197 1.377 . S
C194 C192 1.364 . S
C194 C195 1.374 . S
C195 H186 0.930 . S
C195 C194 1.374 . S
C195 C196 1.383 . S
C196 O190 1.412 . S
C196 C195 1.383 . S
C196 C197 1.394 . S
C197 H187 0.929 . S
C197 C193 1.377 . S
C197 C196 1.394 . S
H198 C204 0.930 . S
H199 C208 0.930 . S
H200 C213 0.929 . S
H201 C211 0.929 . S
H202 C206 0.929 . S
H203 C212 0.929 . S
C204 H198 0.930 . S
C204 C205 1.367 . S
C204 C212 1.378 . S
C205 C204 1.367 . S
C205 C213 1.433 . S
C206 H202 0.929 . S
C206 C208 1.378 . S
C206 C210 1.350 . S
C207 C210 1.463 . S
C207 C212 1.350 . S
C207 N215 1.427 . S
C208 H199 0.930 . S
C208 C206 1.378 . S
C208 C209 1.367 . S
C209 C208 1.367 . S
C209 C211 1.433 . S
C210 C206 1.350 . S
C210 C207 1.463 . S
C210 N214 1.427 . S
C211 H201 0.929 . S
C211 C209 1.433 . S
C211 N214 1.384 . S
C212 H203 0.929 . S
C212 C204 1.378 . S
C212 C207 1.350 . S
C213 H200 0.929 . S
C213 C205 1.433 . S
C213 N215 1.384 . S
N214 C210 1.427 . S
N214 C211 1.384 . S
N215 C207 1.427 . S
N215 C213 1.384 . S
H216 C222 0.930 . S
H217 C226 0.930 . S
H218 C231 0.929 . S
H219 C229 0.929 . S
H220 C224 0.929 . S
H221 C230 0.929 . S
C222 H216 0.930 . S
C222 C223 1.367 . S
C222 C230 1.378 . S
C223 C222 1.367 . S
C223 C231 1.433 . S
C224 H220 0.929 . S
C224 C226 1.378 . S
C224 C228 1.350 . S
C225 C228 1.463 . S
C225 C230 1.350 . S
C225 N233 1.427 . S
C226 H217 0.930 . S
C226 C224 1.378 . S
C226 C227 1.367 . S
C227 C226 1.367 . S
C227 C229 1.433 . S
C228 C224 1.350 . S
C228 C225 1.463 . S
C228 N232 1.427 . S
C229 H219 0.929 . S
C229 C227 1.433 . S
C229 N232 1.384 . S
C230 H221 0.929 . S
C230 C222 1.378 . S
C230 C225 1.350 . S
C231 H218 0.929 . S
C231 C223 1.433 . S
C231 N233 1.384 . S
N232 C228 1.427 . S
N232 C229 1.384 . S
N233 C225 1.427 . S
N233 C231 1.384 . S
H234 C240 0.930 . S
H235 C244 0.913 1_545 S
H236 C249 0.929 . S
H237 C247 0.929 . S
H238 C242 0.929 . S
H239 C248 0.929 . S
C240 H234 0.930 . S
C240 C241 1.367 . S
C240 C248 1.378 . S
C241 C240 1.367 . S
C241 C249 1.433 . S
C242 H238 0.929 . S
C242 C244 1.378 . S
C242 C246 1.350 . S
C243 C246 1.463 . S
C243 C248 1.350 . S
C243 N251 1.427 . S
C244 H235 0.913 1_565 S
C244 C242 1.378 . S
C244 C245 1.367 . S
C245 C244 1.367 . S
C245 C247 1.433 . S
C246 C242 1.350 . S
C246 C243 1.463 . S
C246 N250 1.427 . S
C247 H237 0.929 . S
C247 C245 1.433 . S
C247 N250 1.384 . S
C248 H239 0.929 . S
C248 C240 1.378 . S
C248 C243 1.350 . S
C249 H236 0.929 . S
C249 C241 1.433 . S
C249 N251 1.384 . S
N250 C246 1.427 . S
N250 C247 1.384 . S
N251 C243 1.427 . S
N251 C249 1.384 . S
H252 C258 0.930 . S
H253 C262 0.930 . S
H254 C267 0.929 . S
H255 C265 0.929 . S
H256 C260 0.929 . S
H257 C266 0.929 . S
C258 H252 0.930 . S
C258 C259 1.367 . S
C258 C266 1.378 . S
C259 C258 1.367 . S
C259 C267 1.433 . S
C260 H256 0.929 . S
C260 C262 1.378 . S
C260 C264 1.350 . S
C261 C264 1.463 . S
C261 C266 1.350 . S
C261 N269 1.427 . S
C262 H253 0.930 . S
C262 C260 1.378 . S
C262 C263 1.367 . S
C263 C262 1.367 . S
C263 C265 1.433 . S
C264 C260 1.350 . S
C264 C261 1.463 . S
C264 N268 1.427 . S
C265 H255 0.929 . S
C265 C263 1.433 . S
C265 N268 1.384 . S
C266 H257 0.929 . S
C266 C258 1.378 . S
C266 C261 1.350 . S
C267 H254 0.929 . S
C267 C259 1.433 . S
C267 N269 1.384 . S
N268 C264 1.427 . S
N268 C265 1.384 . S
N269 C261 1.427 . S
N269 C267 1.384 . S
H270 C276 0.930 . S
H271 C280 0.930 . S
H272 C285 0.929 . S
H273 C283 0.929 . S
H274 C278 0.929 . S
H275 C284 0.929 . S
C276 H270 0.930 . S
C276 C277 1.367 . S
C276 C284 1.378 . S
C277 C276 1.367 . S
C277 C285 1.433 . S
C278 H274 0.929 . S
C278 C280 1.378 . S
C278 C282 1.350 . S
C279 C282 1.463 . S
C279 C284 1.350 . S
C279 N287 1.427 . S
C280 H271 0.930 . S
C280 C278 1.378 . S
C280 C281 1.367 . S
C281 C280 1.367 . S
C281 C283 1.433 . S
C282 C278 1.350 . S
C282 C279 1.463 . S
C282 N286 1.427 . S
C283 H273 0.929 . S
C283 C281 1.433 . S
C283 N286 1.384 . S
C284 H275 0.929 . S
C284 C276 1.378 . S
C284 C279 1.350 . S
C285 H272 0.929 . S
C285 C277 1.433 . S
C285 N287 1.384 . S
N286 C282 1.427 . S
N286 C283 1.384 . S
N287 C279 1.427 . S
N287 C285 1.384 . S
H288 C294 0.930 . S
H289 C298 0.930 . S
H290 C303 0.929 . S
H291 C301 0.929 . S
H292 C296 0.929 . S
H293 C302 0.929 . S
C294 H288 0.930 . S
C294 C295 1.367 . S
C294 C302 1.378 . S
C295 C294 1.367 . S
C295 C303 1.433 . S
C296 H292 0.929 . S
C296 C298 1.378 . S
C296 C300 1.350 . S
C297 C300 1.463 . S
C297 C302 1.350 . S
C297 N305 1.427 . S
C298 H289 0.930 . S
C298 C296 1.378 . S
C298 C299 1.367 . S
C299 C298 1.367 . S
C299 C301 1.433 . S
C300 C296 1.350 . S
C300 C297 1.463 . S
C300 N304 1.427 . S
C301 H291 0.929 . S
C301 C299 1.433 . S
C301 N304 1.384 . S
C302 H293 0.929 . S
C302 C294 1.378 . S
C302 C297 1.350 . S
C303 H290 0.929 . S
C303 C295 1.433 . S
C303 N305 1.384 . S
N304 C300 1.427 . S
N304 C301 1.384 . S
N305 C297 1.427 . S
N305 C303 1.384 . S
H306 C312 0.930 . S
H307 C316 0.930 . S
H308 C321 0.929 . S
H309 C319 0.929 . S
H310 C314 0.929 . S
H311 C320 0.929 . S
C312 H306 0.930 . S
C312 C313 1.367 . S
C312 C320 1.378 . S
C313 C312 1.367 . S
C313 C321 1.433 . S
C314 H310 0.929 . S
C314 C316 1.378 . S
C314 C318 1.350 . S
C315 C318 1.463 . S
C315 C320 1.350 . S
C315 N323 1.427 . S
C316 H307 0.930 . S
C316 C314 1.378 . S
C316 C317 1.367 . S
C317 C316 1.367 . S
C317 C319 1.433 . S
C318 C314 1.350 . S
C318 C315 1.463 . S
C318 N322 1.427 . S
C319 H309 0.929 . S
C319 C317 1.433 . S
C319 N322 1.384 . S
C320 H311 0.929 . S
C320 C312 1.378 . S
C320 C315 1.350 . S
C321 H308 0.929 . S
C321 C313 1.433 . S
C321 N323 1.384 . S
N322 C318 1.427 . S
N322 C319 1.384 . S
N323 C315 1.427 . S
N323 C321 1.384 . S
H324 C330 0.930 . S
H325 C334 0.930 . S
H326 C339 0.929 . S
H327 C337 0.929 . S
H328 C332 0.929 . S
H329 C338 0.929 . S
C330 H324 0.930 . S
C330 C331 1.367 . S
C330 C338 1.378 . S
C331 C330 1.367 . S
C331 C339 1.433 . S
C332 H328 0.929 . S
C332 C334 1.378 . S
C332 C336 1.350 . S
C333 C336 1.463 . S
C333 C338 1.350 . S
C333 N341 1.427 . S
C334 H325 0.930 . S
C334 C332 1.378 . S
C334 C335 1.367 . S
C335 C334 1.367 . S
C335 C337 1.433 . S
C336 C332 1.350 . S
C336 C333 1.463 . S
C336 N340 1.427 . S
C337 H327 0.929 . S
C337 C335 1.433 . S
C337 N340 1.384 . S
C338 H329 0.929 . S
C338 C330 1.378 . S
C338 C333 1.350 . S
C339 H326 0.929 . S
C339 C331 1.433 . S
C339 N341 1.384 . S
N340 C336 1.427 . S
N340 C337 1.384 . S
N341 C333 1.427 . S
N341 C339 1.384 . S
H342 C348 0.930 . S
H343 C352 0.930 . S
H344 C357 0.929 . S
H345 C355 0.929 . S
H346 C350 0.929 . S
H347 C356 0.929 . S
C348 H342 0.930 . S
C348 C349 1.367 . S
C348 C356 1.378 . S
C349 C348 1.367 . S
C349 C357 1.433 . S
C350 H346 0.929 . S
C350 C352 1.378 . S
C350 C354 1.350 . S
C351 C354 1.463 . S
C351 C356 1.350 . S
C351 N359 1.427 . S
C352 H343 0.930 . S
C352 C350 1.378 . S
C352 C353 1.367 . S
C353 C352 1.367 . S
C353 C355 1.433 . S
C354 C350 1.350 . S
C354 C351 1.463 . S
C354 N358 1.427 . S
C355 H345 0.929 . S
C355 C353 1.433 . S
C355 N358 1.384 . S
C356 H347 0.929 . S
C356 C348 1.378 . S
C356 C351 1.350 . S
C357 H344 0.929 . S
C357 C349 1.433 . S
C357 N359 1.384 . S
N358 C354 1.427 . S
N358 C355 1.384 . S
N359 C351 1.427 . S
N359 C357 1.384 . S
H360 C366 0.930 . S
H361 C370 0.930 . S
H362 C375 0.929 . S
H363 C373 0.929 . S
H364 C368 0.929 . S
H365 C374 0.929 . S
C366 H360 0.930 . S
C366 C367 1.367 . S
C366 C374 1.378 . S
C367 C366 1.367 . S
C367 C375 1.433 . S
C368 H364 0.929 . S
C368 C370 1.378 . S
C368 C372 1.350 . S
C369 C372 1.463 . S
C369 C374 1.350 . S
C369 N377 1.427 . S
C370 H361 0.930 . S
C370 C368 1.378 . S
C370 C371 1.367 . S
C371 C370 1.367 . S
C371 C373 1.433 . S
C372 C368 1.350 . S
C372 C369 1.463 . S
C372 N376 1.427 . S
C373 H363 0.929 . S
C373 C371 1.433 . S
C373 N376 1.384 . S
C374 H365 0.929 . S
C374 C366 1.378 . S
C374 C369 1.350 . S
C375 H362 0.929 . S
C375 C367 1.433 . S
C375 N377 1.384 . S
N376 C372 1.427 . S
N376 C373 1.384 . S
N377 C369 1.427 . S
N377 C375 1.384 . S
H378 C384 0.930 . S
H379 C388 0.930 . S
H380 C393 0.929 . S
H381 C391 0.929 . S
H382 C386 0.929 . S
H383 C392 0.929 . S
C384 H378 0.930 . S
C384 C385 1.367 . S
C384 C392 1.378 . S
C385 C384 1.367 . S
C385 C393 1.433 . S
C386 H382 0.929 . S
C386 C388 1.378 . S
C386 C390 1.350 . S
C387 C390 1.463 . S
C387 C392 1.350 . S
C387 N395 1.427 . S
C388 H379 0.930 . S
C388 C386 1.378 . S
C388 C389 1.367 . S
C389 C388 1.367 . S
C389 C391 1.433 . S
C390 C386 1.350 . S
C390 C387 1.463 . S
C390 N394 1.427 . S
C391 H381 0.929 . S
C391 C389 1.433 . S
C391 N394 1.384 . S
C392 H383 0.929 . S
C392 C384 1.378 . S
C392 C387 1.350 . S
C393 H380 0.929 . S
C393 C385 1.433 . S
C393 N395 1.384 . S
N394 C390 1.427 . S
N394 C391 1.384 . S
N395 C387 1.427 . S
N395 C393 1.384 . S
H396 C402 0.930 . S
H397 C406 0.930 . S
H398 C411 0.929 . S
H399 C409 0.929 . S
H400 C404 0.929 . S
H401 C410 0.929 . S
C402 H396 0.930 . S
C402 C403 1.367 . S
C402 C410 1.378 . S
C403 C402 1.367 . S
C403 C411 1.433 . S
C404 H400 0.929 . S
C404 C406 1.378 . S
C404 C408 1.350 . S
C405 C408 1.463 . S
C405 C410 1.350 . S
C405 N413 1.427 . S
C406 H397 0.930 . S
C406 C404 1.378 . S
C406 C407 1.367 . S
C407 C406 1.367 . S
C407 C409 1.433 . S
C408 C404 1.350 . S
C408 C405 1.463 . S
C408 N412 1.427 . S
C409 H399 0.929 . S
C409 C407 1.433 . S
C409 N412 1.384 . S
C410 H401 0.929 . S
C410 C402 1.378 . S
C410 C405 1.350 . S
C411 H398 0.929 . S
C411 C403 1.433 . S
C411 N413 1.384 . S
N412 C408 1.427 . S
N412 C409 1.384 . S
N413 C405 1.427 . S
N413 C411 1.384 . S
H414 C420 0.930 . S
H415 C424 0.930 . S
H416 C429 0.929 . S
H417 C427 0.929 . S
H418 C422 0.929 1_655 S
H419 C428 0.929 . S
C420 H414 0.930 . S
C420 C421 1.367 . S
C420 C428 1.378 . S
C421 C420 1.367 . S
C421 C429 1.433 1_455 S
C422 H418 0.929 1_455 S
C422 C424 1.378 . S
C422 C426 1.350 . S
C423 C426 1.463 1_554 S
C423 C428 1.350 . S
C423 N431 1.427 1_455 S
C424 H415 0.930 . S
C424 C422 1.378 . S
C424 C425 1.367 . S
C425 C424 1.367 . S
C425 C427 1.433 . S
C426 C422 1.350 . S
C426 C423 1.463 1_556 S
C426 N430 1.427 . S
C427 H417 0.929 . S
C427 C425 1.433 . S
C427 N430 1.384 . S
C428 H419 0.929 . S
C428 C420 1.378 . S
C428 C423 1.350 . S
C429 H416 0.929 . S
C429 C421 1.433 1_655 S
C429 N431 1.384 . S
N430 C426 1.427 . S
N430 C427 1.384 . S
N431 C423 1.427 1_655 S
N431 C429 1.384 . S
H432 C438 0.930 . S
H433 C442 0.930 . S
H434 C447 0.929 . S
H435 C445 0.929 . S
H436 C440 0.929 . S
H437 C446 0.929 . S
C438 H432 0.930 . S
C438 C439 1.367 . S
C438 C446 1.378 . S
C439 C438 1.367 . S
C439 C447 1.433 1_545 S
C440 H436 0.929 . S
C440 C442 1.378 . S
C440 C444 1.350 1_565 S
C441 C444 1.463 . S
C441 C446 1.350 . S
C441 N449 1.427 1_545 S
C442 H433 0.930 . S
C442 C440 1.378 . S
C442 C443 1.367 1_565 S
C443 C442 1.367 1_545 S
C443 C445 1.433 . S
C444 C440 1.350 1_545 S
C444 C441 1.463 . S
C444 N448 1.427 . S
C445 H435 0.929 . S
C445 C443 1.433 . S
C445 N448 1.384 . S
C446 H437 0.929 . S
C446 C438 1.378 . S
C446 C441 1.350 . S
C447 H434 0.929 . S
C447 C439 1.433 1_565 S
C447 N449 1.384 . S
N448 C444 1.427 . S
N448 C445 1.384 . S
N449 C441 1.427 1_565 S
N449 C447 1.384 . S
H450 C456 0.930 . S
H451 C460 0.930 . S
H452 C465 0.929 . S
H453 C463 0.929 . S
H454 C458 0.929 . S
H455 C464 0.929 . S
C456 H450 0.930 . S
C456 C457 1.367 . S
C456 C464 1.378 . S
C457 C456 1.367 . S
C457 C465 1.433 . S
C458 H454 0.929 . S
C458 C460 1.378 . S
C458 C462 1.350 . S
C459 C462 1.463 . S
C459 C464 1.350 . S
C459 N467 1.427 . S
C460 H451 0.930 . S
C460 C458 1.378 . S
C460 C461 1.367 . S
C461 C460 1.367 . S
C461 C463 1.433 . S
C462 C458 1.350 . S
C462 C459 1.463 . S
C462 N466 1.427 . S
C463 H453 0.929 . S
C463 C461 1.433 . S
C463 N466 1.384 . S
C464 H455 0.929 . S
C464 C456 1.378 . S
C464 C459 1.350 . S
C465 H452 0.929 . S
C465 C457 1.433 . S
C465 N467 1.384 . S
N466 C462 1.427 . S
N466 C463 1.384 . S
N467 C459 1.427 . S
N467 C465 1.384 . S
H468 C474 0.930 . S
H469 C478 0.930 . S
H470 C483 0.929 . S
H471 C481 0.929 . S
H472 C476 0.929 . S
H473 C482 0.929 . S
C474 H468 0.930 . S
C474 C475 1.367 1_565 S
C474 C482 1.378 . S
C475 C474 1.367 1_545 S
C475 C483 1.433 . S
C476 H472 0.929 . S
C476 C478 1.378 . S
C476 C480 1.350 . S
C477 C480 1.463 . S
C477 C482 1.350 1_545 S
C477 N485 1.427 . S
C478 H469 0.930 . S
C478 C476 1.378 . S
C478 C479 1.367 . S
C479 C478 1.367 . S
C479 C481 1.433 1_545 S
C480 C476 1.350 . S
C480 C477 1.463 . S
C480 N484 1.427 1_545 S
C481 H471 0.929 . S
C481 C479 1.433 1_565 S
C481 N484 1.384 . S
C482 H473 0.929 . S
C482 C474 1.378 . S
C482 C477 1.350 1_565 S
C483 H470 0.929 . S
C483 C475 1.433 . S
C483 N485 1.384 . S
N484 C480 1.427 1_565 S
N484 C481 1.384 . S
N485 C477 1.427 . S
N485 C483 1.384 . S
H486 C492 0.930 . S
H487 C496 0.930 . S
H488 C501 0.929 . S
H489 C499 0.929 . S
H490 C494 0.929 . S
H491 C500 0.929 . S
C492 H486 0.930 . S
C492 C493 1.367 . S
C492 C500 1.378 . S
C493 C492 1.367 . S
C493 C501 1.433 . S
C494 H490 0.929 . S
C494 C496 1.378 . S
C494 C498 1.350 1_554 S
C495 C498 1.463 . S
C495 C500 1.350 . S
C495 N503 1.427 . S
C496 H487 0.930 . S
C496 C494 1.378 . S
C496 C497 1.367 . S
C497 C496 1.367 . S
C497 C499 1.433 . S
C498 C494 1.350 1_556 S
C498 C495 1.463 . S
C498 N502 1.424 1_556 S
C499 H489 0.929 . S
C499 C497 1.433 . S
C499 N502 1.394 . S
C500 H491 0.929 . S
C500 C492 1.378 . S
C500 C495 1.350 . S
C501 H488 0.929 . S
C501 C493 1.433 . S
C501 N503 1.384 . S
N502 C498 1.424 1_554 S
N502 C499 1.394 . S
N503 C495 1.427 . S
N503 C501 1.384 . S
H504 C510 0.930 . S
H505 C514 0.930 . S
H506 C519 0.929 . S
H507 C517 0.929 . S
H508 C512 0.931 1_655 S
H509 C518 0.929 . S
C510 H504 0.930 . S
C510 C511 1.377 1_455 S
C510 C518 1.378 . S
C511 C510 1.377 1_655 S
C511 C519 1.423 . S
C512 H508 0.931 1_455 S
C512 C514 1.378 . S
C512 C516 1.350 . S
C513 C516 1.463 . S
C513 C518 1.350 . S
C513 N521 1.427 1_455 S
C514 H505 0.930 . S
C514 C512 1.378 . S
C514 C515 1.367 . S
C515 C514 1.367 . S
C515 C517 1.433 . S
C516 C512 1.350 . S
C516 C513 1.463 . S
C516 N520 1.427 . S
C517 H507 0.929 . S
C517 C515 1.433 . S
C517 N520 1.384 . S
C518 H509 0.929 . S
C518 C510 1.378 . S
C518 C513 1.350 . S
C519 H506 0.929 . S
C519 C511 1.423 . S
C519 N521 1.384 . S
N520 C516 1.427 . S
N520 C517 1.384 . S
N521 C513 1.427 1_655 S
N521 C519 1.384 . S
C205 C7 0.660 . S
C209 C189 0.658 . S
C223 C51 1.828 . S
C227 C167 1.794 . S
C241 C87 1.178 . S
C245 C180 1.187 . S
C259 C16 0.382 . S
C263 C193 0.271 . S
C281 C163 1.878 . S
C277 C42 2.040 . S
C299 C176 1.295 . S
C295 C96 1.348 . S
C313 C47 1.087 . S
C317 C141 1.083 . S
C331 C91 3.040 . S
C335 C154 2.997 1_655 S
C349 C2 2.047 . S
C353 C124 1.902 . S
C371 C137 1.337 . S
C367 C56 1.369 . S
C389 C150 2.867 . S
C385 C82 3.046 . S
C403 C11 1.836 . S
C407 C128 1.818 . S
C425 C155 1.748 . S
C421 C19 1.702 . S
C439 C50 1.461 . S
C443 C129 1.495 . S
C457 C99 1.518 . S
C461 C142 1.614 . S
C479 C181 1.548 . S
C475 C59 1.482 . S
C497 C194 1.335 . S
C493 C90 1.324 . S
C511 C10 1.430 1_655 S
C515 C168 1.482 . S
