# Generated by pormake.
# Topology apo, (3,6)-cn, num edge types: 1
# Building blocks:
#     Node 0, Type 0, BuildingBlock: QEWDON_clean_linker_0, # of connection points: 3
#     Node 1, Type 0, BuildingBlock: QEWDON_clean_linker_0, # of connection points: 3
#     Node 2, Type 0, BuildingBlock: QEWDON_clean_linker_0, # of connection points: 3
#     Node 3, Type 0, BuildingBlock: QEWDON_clean_linker_0, # of connection points: 3
#     Node 4, Type 0, BuildingBlock: QEWDON_clean_linker_0, # of connection points: 3
#     Node 5, Type 0, BuildingBlock: QEWDON_clean_linker_0, # of connection points: 3
#     Node 6, Type 0, BuildingBlock: QEWDON_clean_linker_0, # of connection points: 3
#     Node 7, Type 0, BuildingBlock: QEWDON_clean_linker_0, # of connection points: 3
#     Node 8, Type 1, BuildingBlock: KUMJIN_clean_sbu_1, # of connection points: 6
#     Node 9, Type 1, BuildingBlock: KUMJIN_clean_sbu_1, # of connection points: 6
#     Node 10, Type 1, BuildingBlock: KUMJIN_clean_sbu_1, # of connection points: 6
#     Node 11, Type 1, BuildingBlock: KUMJIN_clean_sbu_1, # of connection points: 6
#     Edge 12, Type (0, 1), BuildingBlock: MIFKUJ_clean_linker_0, # of connection points: 2
#     Edge 13, Type (0, 1), BuildingBlock: MIFKUJ_clean_linker_0, # of connection points: 2
#     Edge 14, Type (0, 1), BuildingBlock: MIFKUJ_clean_linker_0, # of connection points: 2
#     Edge 15, Type (0, 1), BuildingBlock: MIFKUJ_clean_linker_0, # of connection points: 2
#     Edge 16, Type (0, 1), BuildingBlock: MIFKUJ_clean_linker_0, # of connection points: 2
#     Edge 17, Type (0, 1), BuildingBlock: MIFKUJ_clean_linker_0, # of connection points: 2
#     Edge 18, Type (0, 1), BuildingBlock: MIFKUJ_clean_linker_0, # of connection points: 2
#     Edge 19, Type (0, 1), BuildingBlock: MIFKUJ_clean_linker_0, # of connection points: 2
#     Edge 20, Type (0, 1), BuildingBlock: MIFKUJ_clean_linker_0, # of connection points: 2
#     Edge 21, Type (0, 1), BuildingBlock: MIFKUJ_clean_linker_0, # of connection points: 2
#     Edge 22, Type (0, 1), BuildingBlock: MIFKUJ_clean_linker_0, # of connection points: 2
#     Edge 23, Type (0, 1), BuildingBlock: MIFKUJ_clean_linker_0, # of connection points: 2
#     Edge 24, Type (0, 1), BuildingBlock: MIFKUJ_clean_linker_0, # of connection points: 2
#     Edge 25, Type (0, 1), BuildingBlock: MIFKUJ_clean_linker_0, # of connection points: 2
#     Edge 26, Type (0, 1), BuildingBlock: MIFKUJ_clean_linker_0, # of connection points: 2
#     Edge 27, Type (0, 1), BuildingBlock: MIFKUJ_clean_linker_0, # of connection points: 2
#     Edge 28, Type (0, 1), BuildingBlock: MIFKUJ_clean_linker_0, # of connection points: 2
#     Edge 29, Type (0, 1), BuildingBlock: MIFKUJ_clean_linker_0, # of connection points: 2
#     Edge 30, Type (0, 1), BuildingBlock: MIFKUJ_clean_linker_0, # of connection points: 2
#     Edge 31, Type (0, 1), BuildingBlock: MIFKUJ_clean_linker_0, # of connection points: 2
#     Edge 32, Type (0, 1), BuildingBlock: MIFKUJ_clean_linker_0, # of connection points: 2
#     Edge 33, Type (0, 1), BuildingBlock: MIFKUJ_clean_linker_0, # of connection points: 2
#     Edge 34, Type (0, 1), BuildingBlock: MIFKUJ_clean_linker_0, # of connection points: 2
#     Edge 35, Type (0, 1), BuildingBlock: MIFKUJ_clean_linker_0, # of connection points: 2
# Relax obj value: 0.074
# Max RMSD: 0.250
# Mean RMSD: 0.202
data_MOF--net-apo--node1-KUMJIN_clean_sbu_1--node2-QEWDON_clean_linker_0--edge1-MIFKUJ_clean_linker_0
_symmetry_space_group_name_H-M    P1
_symmetry_Int_Tables_number       1
_symmetry_cell_setting            triclinic
loop_
_symmetry_equiv_pos_as_xyz
'x, y, z'
_cell_length_a     38.230774
_cell_length_b     56.535752
_cell_length_c     64.857319
_cell_angle_alpha  89.979861
_cell_angle_beta   90.032979
_cell_angle_gamma 90.084557
loop_
_atom_site_label
_atom_site_type_symbol
_atom_site_fract_x
_atom_site_fract_y
_atom_site_fract_z
_atom_type_partial_charge
H0 H 0.27627 0.38282 0.38768 0.0
C1 C 0.28852 0.38226 0.40274 0.0
C2 C 0.31903 0.39564 0.40657 0.0
C3 C 0.27273 0.36909 0.41863 0.0
H4 H 0.35707 0.40563 0.42959 0.0
C5 C 0.33394 0.39515 0.42645 0.0
C6 C 0.31851 0.38214 0.44256 0.0
C7 C 0.28809 0.36901 0.43836 0.0
C8 C 0.23766 0.35811 0.41577 0.0
H9 H 0.27521 0.35952 0.45074 0.0
C10 C 0.23056 0.34161 0.39992 0.0
C11 C 0.19689 0.33132 0.39812 0.0
C12 C 0.21081 0.36433 0.42953 0.0
H13 H 0.21543 0.37712 0.44167 0.0
C14 C 0.17773 0.35426 0.42779 0.0
H15 H 0.25106 0.33674 0.38921 0.0
C16 C 0.17081 0.33785 0.41234 0.0
H17 H 0.14499 0.32995 0.41173 0.0
H18 H 0.15736 0.3591 0.43858 0.0
H19 H 0.22793 0.12787 0.88556 0.0
C20 C 0.2163 0.12836 0.90079 0.0
C21 C 0.18913 0.11253 0.90578 0.0
C22 C 0.23052 0.14325 0.91601 0.0
H23 H 0.15607 0.09901 0.92989 0.0
C24 C 0.17591 0.11196 0.92603 0.0
C25 C 0.18893 0.12731 0.94132 0.0
C26 C 0.2157 0.14324 0.93588 0.0
C27 C 0.26442 0.15567 0.91268 0.0
H28 H 0.22621 0.15526 0.94733 0.0
C29 C 0.27058 0.17094 0.89577 0.0
C30 C 0.30357 0.18203 0.89342 0.0
C31 C 0.2915 0.15162 0.92694 0.0
H32 H 0.28772 0.13974 0.93987 0.0
C33 C 0.32385 0.16255 0.92467 0.0
H34 H 0.24999 0.17417 0.88464 0.0
C35 C 0.32986 0.17765 0.90813 0.0
H36 H 0.35516 0.18622 0.90701 0.0
H37 H 0.34437 0.15934 0.93583 0.0
H38 H 0.78127 0.13138 0.6387 0.0
C39 C 0.79436 0.13285 0.62394 0.0
C40 C 0.82534 0.12005 0.62024 0.0
C41 C 0.77942 0.14674 0.6083 0.0
H42 H 0.86476 0.11131 0.59766 0.0
C43 C 0.84159 0.12173 0.6008 0.0
C44 C 0.82675 0.13542 0.58494 0.0
C45 C 0.79583 0.14798 0.58896 0.0
C46 C 0.74472 0.15801 0.61105 0.0
H47 H 0.78411 0.15863 0.57689 0.0
C48 C 0.73874 0.17543 0.62624 0.0
C49 C 0.70626 0.18725 0.62706 0.0
C50 C 0.71762 0.15193 0.5974 0.0
H51 H 0.72159 0.13851 0.58571 0.0
C52 C 0.68526 0.16312 0.59859 0.0
H53 H 0.7596 0.18046 0.63668 0.0
C54 C 0.67966 0.18077 0.61318 0.0
H55 H 0.6544 0.18944 0.61365 0.0
H56 H 0.66457 0.15828 0.58799 0.0
H57 H 0.72899 0.37931 0.13912 0.0
C58 C 0.71694 0.37848 0.124 0.0
C59 C 0.6881 0.39301 0.11943 0.0
C60 C 0.73194 0.36436 0.10853 0.0
H61 H 0.65168 0.40413 0.09594 0.0
C62 C 0.67353 0.39263 0.09952 0.0
C63 C 0.68775 0.37816 0.08405 0.0
C64 C 0.71692 0.36411 0.08875 0.0
C65 C 0.76566 0.35202 0.11188 0.0
H66 H 0.72839 0.35307 0.07688 0.0
C67 C 0.76987 0.33465 0.12731 0.0
C68 C 0.80148 0.32189 0.12869 0.0
C69 C 0.79371 0.35711 0.09858 0.0
H70 H 0.79115 0.37052 0.08673 0.0
C71 C 0.82521 0.34494 0.10032 0.0
H72 H 0.74832 0.33041 0.13752 0.0
C73 C 0.82903 0.32732 0.11515 0.0
H74 H 0.85363 0.31788 0.11609 0.0
H75 H 0.84662 0.349 0.08999 0.0
H76 H 0.68411 0.64575 0.64085 0.0
C77 C 0.68381 0.6414 0.62458 0.0
C78 C 0.67273 0.61878 0.61813 0.0
C79 C 0.69123 0.65911 0.60995 0.0
H80 H 0.66276 0.59638 0.59187 0.0
C81 C 0.67073 0.61386 0.59691 0.0
C82 C 0.67774 0.63135 0.58212 0.0
C83 C 0.68846 0.65383 0.5888 0.0
C84 C 0.69554 0.68416 0.61635 0.0
H85 H 0.69269 0.66774 0.57756 0.0
C86 C 0.72268 0.69166 0.62964 0.0
C87 C 0.72579 0.71582 0.63505 0.0
C88 C 0.67167 0.70089 0.60871 0.0
H89 H 0.65049 0.69552 0.59862 0.0
C90 C 0.67465 0.72463 0.61402 0.0
H91 H 0.7412 0.67888 0.63561 0.0
C92 C 0.70147 0.73208 0.627 0.0
H93 H 0.70349 0.75077 0.6305 0.0
H94 H 0.65618 0.73736 0.60796 0.0
H95 H 0.81856 0.86544 0.14348 0.0
C96 C 0.81975 0.87003 0.12727 0.0
C97 C 0.83223 0.8925 0.12129 0.0
C98 C 0.8122 0.85272 0.11227 0.0
H99 H 0.84547 0.91488 0.09546 0.0
C100 C 0.83579 0.89767 0.10019 0.0
C101 C 0.82821 0.88069 0.08509 0.0
C102 C 0.81578 0.85844 0.09124 0.0
C103 C 0.80723 0.82753 0.11816 0.0
H104 H 0.81118 0.84494 0.07967 0.0
C105 C 0.78039 0.81994 0.13164 0.0
C106 C 0.77671 0.79563 0.13646 0.0
C107 C 0.8303 0.81071 0.10985 0.0
H108 H 0.85135 0.81609 0.09968 0.0
C109 C 0.82673 0.78685 0.11455 0.0
H110 H 0.76252 0.83277 0.13817 0.0
C111 C 0.80015 0.77932 0.12763 0.0
H112 H 0.79763 0.76054 0.1306 0.0
H113 H 0.84455 0.77408 0.10792 0.0
H114 H 0.18709 0.86079 0.3796 0.0
C115 C 0.18507 0.86443 0.39596 0.0
C116 C 0.17382 0.88685 0.4027 0.0
C117 C 0.19045 0.84604 0.41023 0.0
H118 H 0.16049 0.90808 0.42923 0.0
C119 C 0.16923 0.89089 0.42393 0.0
C120 C 0.17523 0.87285 0.43838 0.0
C121 C 0.18613 0.85057 0.4314 0.0
C122 C 0.19457 0.82126 0.40314 0.0
H123 H 0.18934 0.83626 0.44238 0.0
C124 C 0.22222 0.81419 0.39012 0.0
C125 C 0.22476 0.79041 0.3836 0.0
C126 C 0.16972 0.80442 0.40949 0.0
H127 H 0.14811 0.80947 0.41935 0.0
C128 C 0.17213 0.78101 0.403 0.0
H129 H 0.24154 0.82702 0.38516 0.0
C130 C 0.19938 0.77402 0.39016 0.0
H131 H 0.20092 0.75562 0.38559 0.0
H132 H 0.15282 0.76822 0.40799 0.0
H133 H 0.31971 0.64935 0.87797 0.0
C134 C 0.32232 0.64635 0.8944 0.0
C135 C 0.33272 0.62394 0.90173 0.0
C136 C 0.31859 0.66547 0.90812 0.0
H137 H 0.34645 0.60359 0.92879 0.0
C138 C 0.33785 0.62063 0.92305 0.0
C139 C 0.33405 0.63951 0.93687 0.0
C140 C 0.32407 0.66173 0.92931 0.0
C141 C 0.31417 0.69008 0.90046 0.0
H142 H 0.32165 0.67644 0.93994 0.0
C143 C 0.28705 0.69652 0.88676 0.0
C144 C 0.28334 0.72033 0.88036 0.0
C145 C 0.33767 0.70752 0.90735 0.0
H146 H 0.359 0.70301 0.91764 0.0
C147 C 0.3341 0.73092 0.90111 0.0
H148 H 0.26893 0.68318 0.88128 0.0
C149 C 0.30711 0.73734 0.88785 0.0
H150 H 0.30458 0.75582 0.88372 0.0
H151 H 0.35221 0.74419 0.90668 0.0
Eu152 Eu 0.04063 0.11125 0.23761 0.0
C153 C 0.8993 0.09205 0.27769 0.0
N154 N 0.91736 0.11282 0.27778 0.0
C155 C 0.86537 0.13371 0.26791 0.0
C156 C 0.86377 0.09126 0.27182 0.0
C157 C 0.90033 0.13364 0.27423 0.0
C158 C 0.84716 0.11237 0.26633 0.0
C159 C 0.89716 0.05024 0.28628 0.0
C160 C 0.91565 0.07177 0.28488 0.0
C161 C 0.86227 0.04918 0.27958 0.0
C162 C 0.84559 0.06965 0.27244 0.0
Eu163 Eu 0.97707 0.11043 0.2877 0.0
N164 N 0.94954 0.07326 0.29104 0.0
C165 C 0.91407 0.0306 0.29487 0.0
C166 C 0.96554 0.05462 0.30053 0.0
C167 C 0.94823 0.0329 0.30232 0.0
H168 H 0.91328 0.15033 0.27674 0.0
H169 H 0.96123 0.01798 0.30941 0.0
H170 H 0.11148 0.08662 0.25888 0.0
H171 H 0.02677 0.19573 0.1971 0.0
H172 H 0.99186 0.05651 0.30637 0.0
H173 H 0.90073 0.01375 0.29624 0.0
H174 H 0.00834 0.1563 0.20877 0.0
H175 H 0.8523 0.15028 0.2647 0.0
H176 H 0.84768 0.03276 0.28037 0.0
H177 H 0.81828 0.06875 0.26806 0.0
H178 H 0.17301 0.09714 0.26614 0.0
H179 H 0.8199 0.1125 0.26174 0.0
H180 H 0.08646 0.21011 0.20482 0.0
N181 N 0.09917 0.12008 0.24584 0.0
C182 C 0.11135 0.14143 0.23941 0.0
C183 C 0.15589 0.10981 0.25874 0.0
C184 C 0.14649 0.14797 0.24283 0.0
C185 C 0.12098 0.10397 0.25479 0.0
C186 C 0.16866 0.13197 0.25285 0.0
N187 N 0.05529 0.14942 0.22535 0.0
C188 C 0.03357 0.16286 0.21345 0.0
C189 C 0.10096 0.1786 0.22178 0.0
C190 C 0.0887 0.1566 0.2291 0.0
C191 C 0.07804 0.19306 0.21065 0.0
C192 C 0.04429 0.18505 0.20633 0.0
H193 H 0.1958 0.13638 0.25579 0.0
H194 H 0.18555 0.17519 0.23809 0.0
H195 H 0.14587 0.20179 0.21928 0.0
O196 O 0.05444 0.11136 0.20462 0.0
O197 O 0.05942 0.12813 0.26774 0.0
O198 O 0.00945 0.14351 0.282 0.0
O199 O 0.05676 0.07854 0.22243 0.0
O200 O 0.98732 0.12909 0.23433 0.0
O201 O 0.97274 0.14294 0.26686 0.0
O202 O 0.99491 0.10662 0.3195 0.0
O203 O 0.97792 0.07973 0.26487 0.0
O204 O 0.98447 0.09921 0.23453 0.0
O205 O 0.94567 0.12368 0.31348 0.0
O206 O 0.03153 0.095 0.29107 0.0
O207 O 0.04582 0.07959 0.25914 0.0
C208 C 0.0433 0.14456 0.27848 0.0
C209 C 0.07237 0.07562 0.18603 0.0
C210 C 0.08703 0.07412 0.1493 0.0
C211 C 0.08973 0.0494 0.15069 0.0
C212 C 0.07559 0.05088 0.18699 0.0
C213 C 0.08428 0.03792 0.16944 0.0
C214 C 0.07862 0.08725 0.1671 0.0
C215 C 0.97091 0.14411 0.24654 0.0
C216 C 0.0609 0.08877 0.20458 0.0
C217 C 0.15856 0.16997 0.23577 0.0
C218 C 0.13591 0.18517 0.22518 0.0
C219 C 0.97246 0.08116 0.24496 0.0
C220 C 0.97617 0.13512 0.34355 0.0
C221 C 0.97043 0.14833 0.37927 0.0
C222 C 0.99316 0.16729 0.3749 0.0
C223 C 0.99869 0.15414 0.3395 0.0
C224 C 0.96191 0.13234 0.36337 0.0
C225 C 0.00705 0.17017 0.35512 0.0
C226 C 0.04641 0.07877 0.27948 0.0
C227 C 0.96827 0.11759 0.32747 0.0
H228 H 0.09637 0.03897 0.13723 0.0
H229 H 0.07093 0.04144 0.20127 0.0
H230 H 0.08654 0.01887 0.17034 0.0
H231 H 0.07618 0.10631 0.16606 0.0
H232 H 0.99995 0.18001 0.38673 0.0
H233 H 0.00994 0.15641 0.32435 0.0
H234 H 0.94484 0.11744 0.36652 0.0
H235 H 0.02448 0.18483 0.35191 0.0
Eu236 Eu 0.46634 0.39831 0.73833 0.0
C237 C 0.61208 0.41718 0.77121 0.0
N238 N 0.59345 0.39681 0.77323 0.0
C239 C 0.64332 0.37427 0.76246 0.0
C240 C 0.64676 0.41688 0.7638 0.0
C241 C 0.60936 0.37547 0.77035 0.0
C242 C 0.6619 0.39511 0.75877 0.0
C243 C 0.61707 0.45934 0.77786 0.0
C244 C 0.59756 0.43817 0.77824 0.0
C245 C 0.65095 0.45929 0.76953 0.0
C246 C 0.6658 0.43808 0.76261 0.0
Eu247 Eu 0.53546 0.40095 0.78565 0.0
N248 N 0.56477 0.43767 0.78627 0.0
C249 C 0.60235 0.47972 0.78653 0.0
C250 C 0.55113 0.45703 0.79594 0.0
C251 C 0.56947 0.47846 0.79592 0.0
H252 H 0.59624 0.35929 0.77456 0.0
H253 H 0.55826 0.49397 0.80309 0.0
H254 H 0.39379 0.42047 0.75895 0.0
H255 H 0.48561 0.31266 0.70043 0.0
H256 H 0.5257 0.45596 0.80318 0.0
H257 H 0.61652 0.49633 0.78655 0.0
H258 H 0.49814 0.3545 0.70784 0.0
H259 H 0.65542 0.35727 0.75967 0.0
H260 H 0.6663 0.47541 0.76898 0.0
H261 H 0.69251 0.43804 0.75708 0.0
H262 H 0.33492 0.40674 0.76966 0.0
H263 H 0.68845 0.39414 0.753 0.0
H264 H 0.43234 0.29385 0.71468 0.0
N265 N 0.40997 0.38651 0.7488 0.0
C266 C 0.40079 0.36371 0.74509 0.0
C267 C 0.35327 0.39443 0.76289 0.0
C268 C 0.36771 0.35504 0.75104 0.0
C269 C 0.38653 0.40214 0.75689 0.0
C270 C 0.34396 0.3707 0.76019 0.0
N271 N 0.45509 0.35866 0.72826 0.0
C272 C 0.47602 0.34619 0.71516 0.0
C273 C 0.41532 0.32558 0.73041 0.0
C274 C 0.42435 0.34923 0.7349 0.0
C275 C 0.43835 0.31206 0.71851 0.0
C276 C 0.46849 0.32258 0.7105 0.0
H277 H 0.31827 0.36473 0.76497 0.0
H278 H 0.33425 0.32409 0.75224 0.0
H279 H 0.37593 0.29828 0.73413 0.0
O280 O 0.44703 0.39709 0.70618 0.0
O281 O 0.45153 0.38484 0.77042 0.0
O282 O 0.50194 0.36802 0.78239 0.0
O283 O 0.44585 0.43009 0.7237 0.0
O284 O 0.52025 0.38194 0.73329 0.0
O285 O 0.53624 0.3679 0.76538 0.0
O286 O 0.52015 0.40308 0.81809 0.0
O287 O 0.53016 0.43123 0.76261 0.0
O288 O 0.52107 0.41207 0.73224 0.0
O289 O 0.57171 0.39096 0.81019 0.0
O290 O 0.48314 0.41875 0.79147 0.0
O291 O 0.46161 0.43046 0.75944 0.0
C292 C 0.46769 0.36821 0.78088 0.0
C293 C 0.42293 0.43211 0.68876 0.0
C294 C 0.40601 0.43458 0.65232 0.0
C295 C 0.39248 0.45733 0.65606 0.0
C296 C 0.40943 0.45493 0.69187 0.0
C297 C 0.39424 0.46736 0.67564 0.0
C298 C 0.42095 0.42189 0.66892 0.0
C299 C 0.53729 0.36681 0.74508 0.0
C300 C 0.43882 0.41941 0.7064 0.0
C301 C 0.35932 0.3312 0.74748 0.0
C302 C 0.38311 0.31648 0.73723 0.0
C303 C 0.53451 0.42976 0.7426 0.0
C304 C 0.54723 0.37613 0.84077 0.0
C305 C 0.55772 0.363 0.87603 0.0
C306 C 0.54346 0.34083 0.87101 0.0
C307 C 0.53293 0.35394 0.83601 0.0
C308 C 0.55985 0.38057 0.86074 0.0
C309 C 0.53114 0.33636 0.85109 0.0
C310 C 0.46403 0.43275 0.77969 0.0
C311 C 0.54956 0.39467 0.82499 0.0
H312 H 0.38011 0.46735 0.64383 0.0
H313 H 0.4104 0.4632 0.70693 0.0
H314 H 0.3837 0.48486 0.67827 0.0
H315 H 0.43157 0.40438 0.66631 0.0
H316 H 0.54205 0.32695 0.8825 0.0
H317 H 0.52338 0.35024 0.82064 0.0
H318 H 0.57091 0.39772 0.86446 0.0
H319 H 0.52016 0.31923 0.84733 0.0
Eu320 Eu 0.03523 0.90089 0.73974 0.0
C321 C 0.8828 0.88207 0.77595 0.0
N322 N 0.90225 0.90215 0.77746 0.0
C323 C 0.85134 0.92586 0.77153 0.0
C324 C 0.84661 0.88319 0.77185 0.0
C325 C 0.88714 0.92389 0.77555 0.0
C326 C 0.83099 0.90543 0.76961 0.0
C327 C 0.87987 0.83913 0.77611 0.0
C328 C 0.89927 0.86025 0.77803 0.0
C329 C 0.84382 0.84021 0.77208 0.0
C330 C 0.82724 0.86217 0.76996 0.0
Eu331 Eu 0.96234 0.89688 0.7841 0.0
N332 N 0.9345 0.85969 0.78111 0.0
C333 C 0.89739 0.81752 0.77808 0.0
C334 C 0.95143 0.83872 0.78387 0.0
C335 C 0.93326 0.81733 0.78214 0.0
H336 H 0.90257 0.93976 0.77743 0.0
H337 H 0.94691 0.80072 0.78405 0.0
H338 H 0.09916 0.86294 0.75242 0.0
H339 H 0.03891 0.99729 0.73189 0.0
H340 H 0.97883 0.83835 0.78755 0.0
H341 H 0.88343 0.8009 0.77665 0.0
H342 H 0.01377 0.95745 0.72811 0.0
H343 H 0.83943 0.94312 0.76997 0.0
H344 H 0.82853 0.82416 0.77049 0.0
H345 H 0.79943 0.8627 0.76677 0.0
H346 H 0.16017 0.86443 0.76492 0.0
H347 H 0.80326 0.90703 0.76645 0.0
H348 H 0.09886 1.00214 0.74564 0.0
N349 N 0.09405 0.90029 0.75059 0.0
C350 C 0.11011 0.9217 0.75234 0.0
C351 C 0.14632 0.88066 0.76155 0.0
C352 C 0.14492 0.92338 0.75937 0.0
C353 C 0.11168 0.87988 0.75466 0.0
C354 C 0.16296 0.9025 0.76404 0.0
N355 N 0.05735 0.93997 0.74144 0.0
C356 C 0.03913 0.95934 0.73502 0.0
C357 C 0.10708 0.96452 0.74963 0.0
C358 C 0.09128 0.94208 0.74762 0.0
C359 C 0.08766 0.98459 0.74431 0.0
C360 C 0.05373 0.98194 0.73668 0.0
H361 H 0.18975 0.90304 0.76948 0.0
H362 H 0.1872 0.94736 0.76712 0.0
H363 H 0.15413 0.98334 0.75857 0.0
O364 O 0.03368 0.91289 0.70782 0.0
O365 O 0.04726 0.91455 0.77232 0.0
O366 O 0.99551 0.92999 0.78383 0.0
O367 O 0.06728 0.88378 0.71602 0.0
O368 O 0.98188 0.9178 0.73416 0.0
O369 O 0.96327 0.93112 0.76593 0.0
O370 O 0.97142 0.8842 0.81537 0.0
O371 O 0.94837 0.8814 0.75272 0.0
O372 O 0.99989 0.86855 0.73808 0.0
O373 O 0.93323 0.91168 0.81013 0.0
O374 O 0.01464 0.87799 0.78875 0.0
O375 O 0.03371 0.86596 0.75661 0.0
C376 C 0.02971 0.93051 0.78275 0.0
C377 C 0.04227 0.88379 0.68265 0.0
C378 C 0.04649 0.87566 0.64575 0.0
C379 C 0.01569 0.86208 0.64707 0.0
C380 C 0.01147 0.87034 0.68356 0.0
C381 C 0.99844 0.85939 0.66589 0.0
C382 C 0.05988 0.88632 0.66375 0.0
C383 C 0.96349 0.9324 0.74567 0.0
C384 C 0.05465 0.89653 0.70104 0.0
C385 C 0.16052 0.94573 0.76164 0.0
C386 C 0.14167 0.96623 0.7568 0.0
C387 C 0.96568 0.86756 0.74005 0.0
C388 C 0.96217 0.91127 0.84228 0.0
C389 C 0.95839 0.91804 0.87946 0.0
C390 C 0.98732 0.93343 0.87795 0.0
C391 C 0.99111 0.92644 0.84119 0.0
C392 C 0.946 0.90702 0.86137 0.0
C393 C 0.00367 0.93735 0.85899 0.0
C394 C 0.03288 0.86376 0.77679 0.0
C395 C 0.94952 0.89894 0.82381 0.0
H396 H 0.00502 0.85346 0.63354 0.0
H397 H 0.99723 0.86865 0.69784 0.0
H398 H 0.9747 0.84899 0.66674 0.0
H399 H 0.08328 0.89713 0.66295 0.0
H400 H 0.99732 0.94259 0.89138 0.0
H401 H 0.00414 0.92964 0.82665 0.0
H402 H 0.92429 0.8947 0.86211 0.0
H403 H 0.02626 0.94882 0.85812 0.0
Eu404 Eu 0.46665 0.61184 0.2389 0.0
C405 C 0.61191 0.64196 0.26756 0.0
N406 N 0.59962 0.61938 0.26765 0.0
C407 C 0.65312 0.6054 0.25288 0.0
C408 C 0.64542 0.64715 0.25964 0.0
C409 C 0.61964 0.60111 0.26068 0.0
C410 C 0.66604 0.62852 0.25229 0.0
C411 C 0.60222 0.68369 0.27421 0.0
C412 C 0.59033 0.66005 0.27466 0.0
C413 C 0.6354 0.68893 0.26609 0.0
C414 C 0.65696 0.67071 0.25889 0.0
Eu415 Eu 0.5434 0.61376 0.28159 0.0
N416 N 0.55798 0.65456 0.28215 0.0
C417 C 0.58067 0.70138 0.28229 0.0
C418 C 0.53852 0.67146 0.29181 0.0
C419 C 0.54899 0.69516 0.29149 0.0
H420 H 0.60987 0.58321 0.26131 0.0
H421 H 0.53298 0.70853 0.29878 0.0
H422 H 0.41466 0.65899 0.24654 0.0
H423 H 0.43435 0.51779 0.2356 0.0
H424 H 0.51566 0.66677 0.30053 0.0
H425 H 0.58883 0.71974 0.28221 0.0
H426 H 0.47261 0.55287 0.23298 0.0
H427 H 0.66896 0.59089 0.24736 0.0
H428 H 0.64477 0.70701 0.26549 0.0
H429 H 0.6825 0.67505 0.2527 0.0
H430 H 0.35317 0.66702 0.25589 0.0
H431 H 0.6919 0.63179 0.24607 0.0
H432 H 0.37189 0.5226 0.24463 0.0
N433 N 0.40823 0.62164 0.24671 0.0
C434 C 0.38564 0.60314 0.24845 0.0
C435 C 0.36201 0.64898 0.25394 0.0
C436 C 0.35016 0.60694 0.25335 0.0
C437 C 0.39689 0.64437 0.2489 0.0
C438 C 0.33857 0.63018 0.25629 0.0
N439 N 0.43253 0.57712 0.24106 0.0
C440 C 0.44551 0.55514 0.23705 0.0
C441 C 0.37514 0.56077 0.2468 0.0
C442 C 0.39795 0.5803 0.24519 0.0
C443 C 0.38856 0.53806 0.24347 0.0
C444 C 0.42384 0.53526 0.23843 0.0
H445 H 0.31153 0.63382 0.26013 0.0
H446 H 0.30009 0.59007 0.25893 0.0
H447 H 0.32196 0.5497 0.25323 0.0
O448 O 0.48135 0.60455 0.20693 0.0
O449 O 0.45581 0.59101 0.26844 0.0
O450 O 0.50812 0.5818 0.28491 0.0
O451 O 0.43435 0.62432 0.21336 0.0
O452 O 0.514 0.58829 0.23345 0.0
O453 O 0.54308 0.57906 0.26406 0.0
O454 O 0.54732 0.62139 0.31462 0.0
O455 O 0.55256 0.62493 0.24812 0.0
O456 O 0.50205 0.64393 0.24004 0.0
O457 O 0.58285 0.59656 0.30075 0.0
O458 O 0.48947 0.62869 0.28969 0.0
O459 O 0.47291 0.64431 0.25864 0.0
C460 C 0.47449 0.5785 0.2816 0.0
C461 C 0.46337 0.63283 0.18228 0.0
C462 C 0.45788 0.64403 0.14593 0.0
C463 C 0.47592 0.66521 0.15042 0.0
C464 C 0.48129 0.65394 0.18627 0.0
C465 C 0.48775 0.66996 0.17037 0.0
C466 C 0.45205 0.62779 0.16213 0.0
C467 C 0.53512 0.57489 0.24456 0.0
C468 C 0.4552 0.61634 0.19913 0.0
C469 C 0.32741 0.5875 0.25511 0.0
C470 C 0.33985 0.5645 0.25183 0.0
C471 C 0.53611 0.64214 0.23864 0.0
C472 C 0.56808 0.59043 0.33568 0.0
C473 C 0.57522 0.58296 0.37258 0.0
C474 C 0.56099 0.56021 0.3697 0.0
C475 C 0.55375 0.56777 0.33324 0.0
C476 C 0.57869 0.598 0.35536 0.0
C477 C 0.55017 0.55277 0.35018 0.0
C478 C 0.46985 0.64309 0.27871 0.0
C479 C 0.57231 0.60624 0.31782 0.0
H480 H 0.48031 0.67847 0.13866 0.0
H481 H 0.48978 0.65816 0.20172 0.0
H482 H 0.50146 0.68631 0.1736 0.0
H483 H 0.43871 0.61121 0.15921 0.0
H484 H 0.55867 0.54801 0.38249 0.0
H485 H 0.54573 0.56164 0.31818 0.0
H486 H 0.58938 0.61564 0.35724 0.0
H487 H 0.53924 0.53525 0.34816 0.0
H488 H 0.11409 0.91301 0.40244 0.0
H489 H 0.09708 0.94402 0.37819 0.0
H490 H 0.19318 0.9339 0.34457 0.0
H491 H 0.21045 0.90265 0.36895 0.0
H492 H 0.17704 0.98211 0.35238 0.0
H493 H 0.12229 0.91323 0.32398 0.0
H494 H 0.0864 0.87698 0.32483 0.0
H495 H 0.99681 0.91756 0.34315 0.0
H496 H 0.03231 0.95403 0.34272 0.0
H497 H 0.0663 0.03648 0.26253 0.0
H498 H 0.09256 1.00254 0.28022 0.0
H499 H 0.09193 0.04137 0.33743 0.0
H500 H 0.06569 0.07527 0.31996 0.0
H501 H 0.0659 0.97644 0.31306 0.0
H502 H 0.16588 0.02608 0.36435 0.0
H503 H 0.20144 0.06249 0.36308 0.0
H504 H 0.20207 0.05966 0.29692 0.0
H505 H 0.16708 0.02301 0.2978 0.0
C506 C 0.13172 0.91745 0.38995 0.0
C507 C 0.16371 0.90549 0.38765 0.0
C508 C 0.12185 0.93507 0.37603 0.0
C509 C 0.14378 0.94119 0.35952 0.0
C510 C 0.17587 0.92941 0.3572 0.0
C511 C 0.18562 0.91152 0.37104 0.0
C512 C 0.13292 0.96001 0.34487 0.0
C513 C 0.15288 0.98082 0.34367 0.0
C514 C 0.10157 0.95822 0.33334 0.0
C515 C 0.08005 0.93635 0.33345 0.0
C516 C 0.095 0.91441 0.32833 0.0
C517 C 0.07472 0.89382 0.32872 0.0
C518 C 0.03937 0.89496 0.33407 0.0
C519 C 0.02421 0.9167 0.33901 0.0
C520 C 0.04439 0.93735 0.33867 0.0
C521 C 0.07205 0.03788 0.27883 0.0
C522 C 0.06399 0.05863 0.28981 0.0
C523 C 0.08687 0.01842 0.28893 0.0
C524 C 0.09441 0.01949 0.3101 0.0
C525 C 0.08669 0.04025 0.32104 0.0
C526 C 0.07159 0.0596 0.31102 0.0
C527 C 0.10955 0.99876 0.32098 0.0
C528 C 0.0903 0.97763 0.32155 0.0
C529 C 0.14162 1.00023 0.33184 0.0
C530 C 0.16362 0.02187 0.33116 0.0
C531 C 0.17382 0.03312 0.34954 0.0
C532 C 0.19385 0.05383 0.34888 0.0
C533 C 0.20394 0.06341 0.32993 0.0
C534 C 0.19417 0.05225 0.31159 0.0
C535 C 0.17422 0.03152 0.31216 0.0
H536 H 0.21936 0.07947 0.32946 0.0
H537 H 0.02371 0.879 0.33436 0.0
H538 H 0.39179 0.59713 0.90193 0.0
H539 H 0.40849 0.56587 0.87791 0.0
H540 H 0.31245 0.57605 0.8442 0.0
H541 H 0.29545 0.60758 0.86836 0.0
H542 H 0.32955 0.52736 0.85218 0.0
H543 H 0.38218 0.59711 0.8236 0.0
H544 H 0.4172 0.63375 0.82461 0.0
H545 H 0.5078 0.59403 0.84274 0.0
H546 H 0.47318 0.55718 0.84215 0.0
H547 H 0.43965 0.4736 0.76206 0.0
H548 H 0.41178 0.50717 0.77947 0.0
H549 H 0.41845 0.47024 0.8375 0.0
H550 H 0.4466 0.43682 0.82035 0.0
H551 H 0.43992 0.5346 0.81237 0.0
H552 H 0.3424 0.48365 0.86422 0.0
H553 H 0.30817 0.44664 0.86325 0.0
H554 H 0.30658 0.44911 0.79709 0.0
H555 H 0.3402 0.48634 0.79766 0.0
C556 C 0.37402 0.59259 0.88953 0.0
C557 C 0.34217 0.60471 0.88711 0.0
C558 C 0.38373 0.57483 0.87573 0.0
C559 C 0.3618 0.56871 0.85922 0.0
C560 C 0.32974 0.58053 0.85685 0.0
C561 C 0.32015 0.59857 0.87057 0.0
C562 C 0.37287 0.55007 0.84447 0.0
C563 C 0.35352 0.52899 0.84336 0.0
C564 C 0.404 0.5523 0.83281 0.0
C565 C 0.425 0.5744 0.83296 0.0
C566 C 0.40951 0.5962 0.82794 0.0
C567 C 0.4293 0.61701 0.82842 0.0
C568 C 0.46468 0.61622 0.83377 0.0
C569 C 0.48038 0.59461 0.8386 0.0
C570 C 0.46069 0.57376 0.83818 0.0
C571 C 0.43491 0.47255 0.7785 0.0
C572 C 0.44534 0.45253 0.78982 0.0
C573 C 0.41915 0.49178 0.78842 0.0
C574 C 0.41291 0.49113 0.80974 0.0
C575 C 0.42278 0.47103 0.82101 0.0
C576 C 0.43897 0.45197 0.81118 0.0
C577 C 0.39707 0.51168 0.82048 0.0
C578 C 0.41566 0.53308 0.82095 0.0
C579 C 0.36524 0.50974 0.8315 0.0
C580 C 0.34407 0.48771 0.83101 0.0
C581 C 0.33453 0.47639 0.84947 0.0
C582 C 0.31526 0.45536 0.84899 0.0
C583 C 0.30528 0.4455 0.83012 0.0
C584 C 0.3144 0.45672 0.81169 0.0
C585 C 0.33359 0.47779 0.81209 0.0
H586 H 0.29044 0.42919 0.82978 0.0
H587 H 0.47996 0.63235 0.83413 0.0
H588 H 0.61364 0.59199 0.61521 0.0
H589 H 0.59299 0.56132 0.63862 0.0
H590 H 0.68067 0.57455 0.6789 0.0
H591 H 0.70215 0.60514 0.65505 0.0
H592 H 0.67057 0.52742 0.67302 0.0
H593 H 0.59957 0.59354 0.69191 0.0
H594 H 0.55981 0.62716 0.68595 0.0
H595 H 0.4824 0.58002 0.66108 0.0
H596 H 0.5219 0.54614 0.66661 0.0
H597 H 0.53969 0.47582 0.75471 0.0
H598 H 0.56747 0.50862 0.73643 0.0
H599 H 0.59342 0.46176 0.68627 0.0
H600 H 0.56661 0.42863 0.70491 0.0
H601 H 0.54934 0.52764 0.70033 0.0
H602 H 0.65796 0.47482 0.66493 0.0
H603 H 0.70176 0.44409 0.67314 0.0
H604 H 0.7085 0.46996 0.73525 0.0
H605 H 0.66335 0.49987 0.72769 0.0
C606 C 0.62875 0.58831 0.62897 0.0
C607 C 0.65979 0.60086 0.63316 0.0
C608 C 0.61667 0.5709 0.64247 0.0
C609 C 0.63508 0.56572 0.66062 0.0
C610 C 0.66601 0.57828 0.66498 0.0
C611 C 0.67814 0.59583 0.65144 0.0
C612 C 0.62218 0.54683 0.67469 0.0
C613 C 0.64409 0.52757 0.67904 0.0
C614 C 0.58775 0.54701 0.68277 0.0
C615 C 0.56382 0.56732 0.67954 0.0
C616 C 0.57416 0.59036 0.68503 0.0
C617 C 0.55166 0.60946 0.68175 0.0
C618 C 0.51862 0.60573 0.6731 0.0
C619 C 0.508 0.58288 0.66776 0.0
C620 C 0.53042 0.56372 0.671 0.0
C621 C 0.55201 0.47237 0.74001 0.0
C622 C 0.55142 0.44956 0.7314 0.0
C623 C 0.56764 0.4912 0.72948 0.0
C624 C 0.58302 0.48767 0.71008 0.0
C625 C 0.58243 0.46487 0.70141 0.0
C626 C 0.56675 0.446 0.71196 0.0
C627 C 0.59756 0.5081 0.69838 0.0
C628 C 0.57586 0.5276 0.69438 0.0
C629 C 0.63223 0.50834 0.69084 0.0
C630 C 0.65724 0.48933 0.6958 0.0
C631 C 0.66847 0.47363 0.68041 0.0
C632 C 0.69329 0.45627 0.685 0.0
C633 C 0.70754 0.45483 0.70481 0.0
C634 C 0.69682 0.47067 0.72008 0.0
C635 C 0.6714 0.48768 0.71572 0.0
H636 H 0.72708 0.44158 0.70828 0.0
H637 H 0.50124 0.62055 0.67057 0.0
H638 H 0.89368 0.91681 0.12048 0.0
H639 H 0.91408 0.94726 0.14422 0.0
H640 H 0.82109 0.93816 0.18102 0.0
H641 H 0.80008 0.90766 0.15688 0.0
H642 H 0.83624 0.98526 0.17387 0.0
H643 H 0.89745 0.91699 0.19832 0.0
H644 H 0.93424 0.88138 0.19518 0.0
H645 H 0.01918 0.92372 0.1724 0.0
H646 H 0.98274 0.95954 0.17512 0.0
H647 H 0.96326 0.03583 0.25849 0.0
H648 H 0.93497 1.00305 0.24054 0.0
H649 H 0.91736 0.04799 0.18779 0.0
H650 H 0.94438 0.0812 0.20611 0.0
H651 H 0.95329 0.98089 0.20672 0.0
H652 H 0.84456 0.02982 0.16195 0.0
H653 H 0.80617 0.06459 0.16567 0.0
H654 H 0.81368 0.05956 0.23152 0.0
H655 H 0.852 0.02468 0.22828 0.0
C656 C 0.87746 0.9213 0.13359 0.0
C657 C 0.84509 0.90996 0.13671 0.0
C658 C 0.88931 0.9386 0.14725 0.0
C659 C 0.86925 0.94492 0.16448 0.0
C660 C 0.83701 0.93353 0.16781 0.0
C661 C 0.82514 0.91603 0.15413 0.0
C662 C 0.88198 0.96378 0.17863 0.0
C663 C 0.86174 0.98426 0.18117 0.0
C664 C 0.91515 0.96243 0.18828 0.0
C665 C 0.93726 0.94094 0.1868 0.0
C666 C 0.9239 0.91869 0.19251 0.0
C667 C 0.9447 0.89847 0.19083 0.0
C668 C 0.979 0.90028 0.18357 0.0
C669 C 0.9926 0.92233 0.17802 0.0
C670 C 0.9719 0.94261 0.17966 0.0
C671 C 0.95267 0.03891 0.24327 0.0
C672 C 0.9555 0.06125 0.23391 0.0
C673 C 0.93682 0.02005 0.23291 0.0
C674 C 0.92358 0.02305 0.21289 0.0
C675 C 0.92672 0.04531 0.20338 0.0
C676 C 0.94244 0.06424 0.2138 0.0
C677 C 0.90784 1.00263 0.2017 0.0
C678 C 0.92763 0.98186 0.19962 0.0
C679 C 0.87418 1.00369 0.19259 0.0
C680 C 0.85133 0.02472 0.19483 0.0
C681 C 0.83798 0.0361 0.17723 0.0
C682 C 0.81629 0.05585 0.17927 0.0
C683 C 0.80761 0.0643 0.19884 0.0
C684 C 0.82065 0.05305 0.21641 0.0
C685 C 0.84239 0.03332 0.21448 0.0
H686 H 0.79062 0.07947 0.2004 0.0
H687 H 0.99506 0.8846 0.18227 0.0
H688 H 0.78926 0.08666 0.64196 0.0
H689 H 0.81268 0.05686 0.66549 0.0
H690 H 0.91634 0.08581 0.65754 0.0
H691 H 0.89302 0.11517 0.63338 0.0
H692 H 0.9213 0.04113 0.65587 0.0
H693 H 0.86663 0.09309 0.70339 0.0
H694 H 0.81945 0.11757 0.71803 0.0
H695 H 0.75561 0.05571 0.72612 0.0
H696 H 0.80223 0.03088 0.71126 0.0
H697 H 0.9476 0.97613 0.76116 0.0
H698 H 0.92401 0.01005 0.74216 0.0
H699 H 0.91309 0.96652 0.68787 0.0
H700 H 0.9379 0.93298 0.70653 0.0
H701 H 0.86656 0.02176 0.72316 0.0
H702 H 0.93159 0.99655 0.64517 0.0
H703 H 0.98339 0.97459 0.63309 0.0
H704 H 0.03605 0.98913 0.69018 0.0
H705 H 0.98482 0.01147 0.70251 0.0
C706 C 0.81696 0.08689 0.64549 0.0
C707 C 0.83928 0.10334 0.63594 0.0
C708 C 0.83037 0.06984 0.65899 0.0
C709 C 0.8663 0.06918 0.66361 0.0
C710 C 0.88855 0.08586 0.65426 0.0
C711 C 0.87522 0.10269 0.64051 0.0
C712 C 0.88078 0.0505 0.67748 0.0
C713 C 0.90934 0.03701 0.67061 0.0
C714 C 0.86589 0.04533 0.69699 0.0
C715 C 0.83784 0.06015 0.70606 0.0
C716 C 0.84244 0.08472 0.70816 0.0
C717 C 0.81581 0.09866 0.71652 0.0
C718 C 0.78453 0.08821 0.72296 0.0
C719 C 0.77985 0.06378 0.72111 0.0
C720 C 0.80639 0.04976 0.71274 0.0
C721 C 0.93975 0.97377 0.74525 0.0
C722 C 0.94489 0.95199 0.73525 0.0
C723 C 0.9263 0.99316 0.73439 0.0
C724 C 0.91748 0.99104 0.71342 0.0
C725 C 0.9206 0.96884 0.70385 0.0
C726 C 0.93461 0.94962 0.71456 0.0
C727 C 0.90635 0.0121 0.70126 0.0
C728 C 0.87853 0.02601 0.70846 0.0
C729 C 0.92271 0.01821 0.68238 0.0
C730 C 0.95421 1.00555 0.6748 0.0
C731 C 0.95432 0.99522 0.65509 0.0
C732 C 0.98356 0.98266 0.64822 0.0
C733 C 0.01294 0.9804 0.66089 0.0
C734 C 0.01323 0.99083 0.68042 0.0
C735 C 0.9841 1.00344 0.68735 0.0
H736 H 0.0355 0.9706 0.65557 0.0
H737 H 0.76394 0.09903 0.72942 0.0
H738 H 0.65949 0.38404 0.15731 0.0
H739 H 0.6348 0.41307 0.18161 0.0
H740 H 0.66347 0.46966 0.14032 0.0
H741 H 0.68714 0.44074 0.11586 0.0
H742 H 0.67989 0.47772 0.18394 0.0
H743 H 0.58598 0.45504 0.13796 0.0
H744 H 0.54665 0.42669 0.12067 0.0
H745 H 0.50869 0.40297 0.17946 0.0
H746 H 0.54828 0.43095 0.19711 0.0
H747 H 0.5252 0.5606 0.20472 0.0
H748 H 0.55243 0.52768 0.18681 0.0
H749 H 0.60925 0.50924 0.24194 0.0
H750 H 0.58179 0.5423 0.26027 0.0
H751 H 0.55122 0.48005 0.19382 0.0
H752 H 0.69124 0.48916 0.22508 0.0
H753 H 0.72983 0.51956 0.24027 0.0
H754 H 0.6744 0.57384 0.20748 0.0
H755 H 0.63584 0.54375 0.19189 0.0
C756 C 0.66063 0.4027 0.15357 0.0
C757 C 0.67497 0.41025 0.13476 0.0
C758 C 0.64659 0.41921 0.1674 0.0
C759 C 0.64741 0.44349 0.16275 0.0
C760 C 0.66275 0.45103 0.14423 0.0
C761 C 0.67606 0.43454 0.13026 0.0
C762 C 0.63076 0.46107 0.17657 0.0
C763 C 0.65181 0.47809 0.18632 0.0
C764 C 0.59411 0.46172 0.17942 0.0
C765 C 0.57045 0.44482 0.16885 0.0
C766 C 0.56956 0.44358 0.1472 0.0
C767 C 0.54715 0.42763 0.13734 0.0
C768 C 0.52528 0.41297 0.14896 0.0
C769 C 0.52572 0.41428 0.17048 0.0
C770 C 0.54814 0.43018 0.18042 0.0
C771 C 0.54338 0.5496 0.21319 0.0
C772 C 0.55143 0.55433 0.23399 0.0
C773 C 0.55882 0.53065 0.20288 0.0
C774 C 0.58296 0.51604 0.21298 0.0
C775 C 0.59086 0.52042 0.2338 0.0
C776 C 0.57515 0.53935 0.24424 0.0
C777 C 0.60033 0.49672 0.20132 0.0
C778 C 0.57939 0.4794 0.19188 0.0
C779 C 0.63704 0.49599 0.19856 0.0
C780 C 0.66043 0.51422 0.20753 0.0
C781 C 0.68739 0.50758 0.22107 0.0
C782 C 0.70924 0.52476 0.22975 0.0
C783 C 0.70449 0.54862 0.2249 0.0
C784 C 0.67798 0.55536 0.21128 0.0
C785 C 0.65609 0.53826 0.20254 0.0
H786 H 0.7214 0.56189 0.23166 0.0
H787 H 0.50791 0.40065 0.1413 0.0
H788 H 0.2837 0.42468 0.37973 0.0
H789 H 0.30828 0.45453 0.35656 0.0
H790 H 0.41246 0.43399 0.37462 0.0
H791 H 0.38814 0.40388 0.39758 0.0
H792 H 0.40385 0.4814 0.37703 0.0
H793 H 0.38057 0.4206 0.32703 0.0
H794 H 0.34426 0.39144 0.30852 0.0
H795 H 0.27592 0.44687 0.28799 0.0
H796 H 0.31157 0.47635 0.30663 0.0
H797 H 0.50435 0.54009 0.30024 0.0
H798 H 0.47553 0.50914 0.32034 0.0
H799 H 0.37524 0.54066 0.30759 0.0
H800 H 0.40414 0.57271 0.28868 0.0
H801 H 0.37929 0.48896 0.30219 0.0
H802 H 0.40231 0.54975 0.3509 0.0
H803 H 0.437 0.57947 0.36972 0.0
H804 H 0.5035 0.52475 0.39352 0.0
H805 H 0.4699 0.49473 0.37425 0.0
C806 C 0.31186 0.4261 0.37842 0.0
C807 C 0.3339 0.41185 0.3906 0.0
C808 C 0.3259 0.44329 0.36521 0.0
C809 C 0.36227 0.44656 0.36382 0.0
C810 C 0.38433 0.43193 0.37552 0.0
C811 C 0.37035 0.41472 0.38866 0.0
C812 C 0.37738 0.46593 0.35098 0.0
C813 C 0.39888 0.48281 0.3606 0.0
C814 C 0.36994 0.46832 0.32968 0.0
C815 C 0.34853 0.45064 0.31841 0.0
C816 C 0.35763 0.42655 0.31872 0.0
C817 C 0.3372 0.40997 0.30817 0.0
C818 C 0.30774 0.41729 0.29714 0.0
C819 C 0.29871 0.44122 0.29657 0.0
C820 C 0.31904 0.45787 0.30711 0.0
C821 C 0.47626 0.54078 0.30205 0.0
C822 C 0.45669 0.55914 0.29306 0.0
C823 C 0.45977 0.52288 0.31333 0.0
C824 C 0.42326 0.52263 0.31551 0.0
C825 C 0.40345 0.54047 0.30604 0.0
C826 C 0.42003 0.55873 0.29514 0.0
C827 C 0.40613 0.50407 0.32822 0.0
C828 C 0.38424 0.48745 0.31861 0.0
C829 C 0.41304 0.50196 0.34957 0.0
C830 C 0.43383 0.51999 0.36088 0.0
C831 C 0.42468 0.54406 0.35986 0.0
C832 C 0.44411 0.56097 0.37064 0.0
C833 C 0.47247 0.55401 0.38276 0.0
C834 C 0.48155 0.53012 0.38407 0.0
C835 C 0.46238 0.51315 0.37317 0.0
H836 H 0.48734 0.56714 0.39117 0.0
H837 H 0.29196 0.40442 0.28898 0.0
H838 H 0.18961 0.06458 0.90892 0.0
H839 H 0.16574 0.03561 0.8845 0.0
H840 H 0.13447 0.09222 0.84396 0.0
H841 H 0.15928 0.12132 0.8682 0.0
H842 H 0.08024 0.05582 0.85575 0.0
H843 H 0.19625 0.06342 0.82745 0.0
H844 H 0.26066 0.0638 0.82935 0.0
H845 H 0.26022 0.992 0.85095 0.0
H846 H 0.19575 0.99131 0.84949 0.0
H847 H 0.01348 0.97711 0.78118 0.0
H848 H 0.04379 0.00997 0.79793 0.0
H849 H 0.1171 0.96077 0.82493 0.0
H850 H 0.0887 0.92826 0.80633 0.0
H851 H 0.1511 0.99654 0.81798 0.0
H852 H 0.03975 0.98886 0.85211 0.0
H853 H 0.97527 0.98637 0.85428 0.0
H854 H 0.96661 0.05533 0.82703 0.0
H855 H 0.03094 0.05802 0.82453 0.0
C856 C 0.1779 0.07079 0.89471 0.0
C857 C 0.17621 0.09513 0.89041 0.0
C858 C 0.16437 0.05427 0.88077 0.0
C859 C 0.1484 0.06178 0.86242 0.0
C860 C 0.14677 0.08609 0.85803 0.0
C861 C 0.16099 0.10264 0.8718 0.0
C862 C 0.13221 0.04414 0.84836 0.0
C863 C 0.09565 0.04308 0.84716 0.0
C864 C 0.15236 0.02706 0.8378 0.0
C865 C 0.19114 0.02739 0.83853 0.0
C866 C 0.20987 0.04778 0.83278 0.0
C867 C 0.2464 0.04804 0.83374 0.0
C868 C 0.26452 0.02796 0.84031 0.0
C869 C 0.24615 0.00755 0.84588 0.0
C870 C 0.20961 0.00721 0.84496 0.0
C871 C 0.03618 0.97343 0.79066 0.0
C872 C 0.04856 0.95021 0.79275 0.0
C873 C 0.05335 0.99219 0.80043 0.0
C874 C 0.08213 0.988 0.81348 0.0
C875 C 0.0949 0.96469 0.81514 0.0
C876 C 0.07859 0.94604 0.80462 0.0
C877 C 0.09867 0.00771 0.82553 0.0
C878 C 0.1354 0.00925 0.82639 0.0
C879 C 0.07862 0.02488 0.83631 0.0
C880 C 0.04001 0.02344 0.83789 0.0
C881 C 0.02397 1.00334 0.84644 0.0
C882 C 0.98753 1.00192 0.84775 0.0
C883 C 0.96687 0.02063 0.84071 0.0
C884 C 0.98264 0.04083 0.83243 0.0
C885 C 0.01908 0.04231 0.83109 0.0
H886 H 0.93866 0.01951 0.84172 0.0
H887 H 0.29281 0.0282 0.84105 0.0
H888 H 0.12292 0.11602 0.95577 0.0
H889 H 0.10433 0.11073 0.99139 0.0
H890 H 0.20716 0.13097 0.01247 0.0
H891 H 0.2269 0.13401 0.97702 0.0
H892 H 0.18886 0.09684 0.03401 0.0
H893 H 0.12942 0.16795 0.01577 0.0
H894 H 0.09149 0.1941 0.99514 0.0
H895 H 0.00408 0.14795 1.00588 0.0
H896 H 0.0416 0.12134 0.02636 0.0
H897 H 0.1367 0.10701 0.13934 0.0
H898 H 0.15222 0.12099 0.10457 0.0
H899 H 0.06662 0.0808 0.07902 0.0
H900 H 0.05158 0.06647 0.11361 0.0
H901 H 0.07663 0.12789 0.06107 0.0
H902 H 0.14074 0.05621 0.07815 0.0
H903 H 0.18015 0.03239 0.09992 0.0
H904 H 0.26149 0.08413 0.09235 0.0
H905 H 0.2223 0.10846 0.0708 0.0
C906 C 0.14179 0.11912 0.96792 0.0
C907 C 0.17651 0.12558 0.96323 0.0
C908 C 0.13087 0.11649 0.98842 0.0
C909 C 0.15405 0.12089 1.00484 0.0
C910 C 0.18857 0.12756 1.00021 0.0
C911 C 0.19972 0.12967 0.97976 0.0
C912 C 0.143 0.11748 0.02678 0.0
C913 C 0.1646 0.10409 0.0399 0.0
C914 C 0.11111 0.12655 0.0347 0.0
C915 C 0.08841 0.14254 0.02245 0.0
C916 C 0.10217 0.16329 0.01362 0.0
C917 C 0.08073 0.17821 1.00197 0.0
C918 C 0.04542 0.17266 0.99916 0.0
C919 C 0.03145 0.15221 1.00805 0.0
C920 C 0.05278 0.13722 0.0197 0.0
C921 C 0.12083 0.10162 0.12632 0.0
C922 C 0.09301 0.08567 0.12907 0.0
C923 C 0.12974 0.10952 0.1065 0.0
C924 C 0.11064 0.10184 0.08921 0.0
C925 C 0.08162 0.08699 0.09214 0.0
C926 C 0.07312 0.07878 0.11185 0.0
C927 C 0.12256 0.10745 0.06795 0.0
C928 C 0.10106 0.12105 0.05504 0.0
C929 C 0.15484 0.09902 0.0603 0.0
C930 C 0.17847 0.08427 0.07308 0.0
C931 C 0.16692 0.0626 0.08128 0.0
C932 C 0.18923 0.049 0.09356 0.0
C933 C 0.22327 0.05677 0.09757 0.0
C934 C 0.2351 0.07815 0.08927 0.0
C935 C 0.21285 0.09185 0.07702 0.0
H936 H 0.24052 0.04621 0.10707 0.0
H937 H 0.02887 0.18423 0.99014 0.0
H938 H 0.34526 0.42116 0.4623 0.0
H939 H 0.36587 0.42431 0.49775 0.0
H940 H 0.3424 0.35061 0.50778 0.0
H941 H 0.32262 0.34702 0.47197 0.0
H942 H 0.31692 0.3797 0.53894 0.0
H943 H 0.42544 0.36685 0.50428 0.0
H944 H 0.47043 0.37358 0.47769 0.0
H945 H 0.484 0.44499 0.49879 0.0
H946 H 0.4387 0.4388 0.52532 0.0
H947 H 0.38827 0.38933 0.64038 0.0
H948 H 0.37932 0.37476 0.60511 0.0
H949 H 0.40911 0.44306 0.5811 0.0
H950 H 0.41941 0.45728 0.61602 0.0
H951 H 0.43459 0.41029 0.55725 0.0
H952 H 0.32165 0.42565 0.58789 0.0
H953 H 0.27484 0.42083 0.61372 0.0
H954 H 0.26804 0.34677 0.59956 0.0
H955 H 0.31517 0.35111 0.57383 0.0
C956 C 0.34515 0.40541 0.47181 0.0
C957 C 0.33245 0.38376 0.46408 0.0
C958 C 0.3568 0.40731 0.49218 0.0
C959 C 0.35597 0.38766 0.50541 0.0
C960 C 0.34329 0.36601 0.49786 0.0
C961 C 0.33187 0.36403 0.47738 0.0
C962 C 0.36734 0.39011 0.52727 0.0
C963 C 0.34289 0.38591 0.54299 0.0
C964 C 0.401 0.39865 0.53254 0.0
C965 C 0.42848 0.4024 0.51671 0.0
C966 C 0.43783 0.38404 0.50316 0.0
C967 C 0.46342 0.38775 0.48811 0.0
C968 C 0.48002 0.40971 0.48653 0.0
C969 C 0.47112 0.42799 0.50003 0.0
C970 C 0.44551 0.42438 0.51509 0.0
C971 C 0.39355 0.40106 0.62755 0.0
C972 C 0.40407 0.42459 0.63106 0.0
C973 C 0.38809 0.3928 0.60739 0.0
C974 C 0.39286 0.40794 0.59038 0.0
C975 C 0.40501 0.43103 0.59388 0.0
C976 C 0.41059 0.43923 0.61393 0.0
C977 C 0.3839 0.40042 0.56896 0.0
C978 C 0.4088 0.40369 0.55327 0.0
C979 C 0.35052 0.39126 0.56369 0.0
C980 C 0.32222 0.38864 0.57914 0.0
C981 C 0.31036 0.4083 0.59041 0.0
C982 C 0.28375 0.40567 0.60501 0.0
C983 C 0.26856 0.38349 0.60833 0.0
C984 C 0.27989 0.36392 0.59701 0.0
C985 C 0.30655 0.36646 0.58242 0.0
H986 H 0.24794 0.38149 0.61963 0.0
H987 H 0.49982 0.41255 0.47486 0.0
H988 H 0.72399 0.38044 0.04777 0.0
H989 H 0.70059 0.37998 0.01268 0.0
H990 H 0.59564 0.37655 0.03686 0.0
H991 H 0.61898 0.37665 0.07211 0.0
H992 H 0.60722 0.34425 1.00555 0.0
H993 H 0.62561 0.4274 0.01713 0.0
H994 H 0.66 0.46259 0.02691 0.0
H995 H 0.73293 0.44839 0.97814 0.0
H996 H 0.69923 0.41291 0.96825 0.0
H997 H 0.51971 0.3615 0.91138 0.0
H998 H 0.54057 0.3668 0.94673 0.0
H999 H 0.64493 0.37963 0.92389 0.0
H1000 H 0.62355 0.37522 0.88837 0.0
H1001 H 0.63307 0.40775 0.95494 0.0
H1002 H 0.61834 0.3246 0.94383 0.0
H1003 H 0.58639 0.28855 0.93359 0.0
H1004 H 0.51033 0.3011 0.98102 0.0
H1005 H 0.54157 0.33744 0.99135 0.0
C1006 C 0.69592 0.37947 0.04563 0.0
C1007 C 0.67332 0.37848 0.06273 0.0
C1008 C 0.68258 0.37942 0.02557 0.0
C1009 C 0.64635 0.37842 0.02214 0.0
C1010 C 0.62368 0.3774 0.03916 0.0
C1011 C 0.63702 0.3776 0.05927 0.0
C1012 C 0.63225 0.37793 1.00078 0.0
C1013 C 0.61239 0.35831 0.99457 0.0
C1014 C 0.63995 0.39591 0.98627 0.0
C1015 C 0.66005 0.41739 0.99206 0.0
C1016 C 0.64912 0.43169 1.00858 0.0
C1017 C 0.66846 0.4517 0.01413 0.0
C1018 C 0.69867 0.4577 1.00318 0.0
C1019 C 0.70954 0.44372 0.98662 0.0
C1020 C 0.6903 0.42367 0.98102 0.0
C1021 C 0.54705 0.36549 0.91396 0.0
C1022 C 0.57016 0.36764 0.89726 0.0
C1023 C 0.55901 0.36847 0.93415 0.0
C1024 C 0.59455 0.37303 0.93808 0.0
C1025 C 0.61745 0.37599 0.9213 0.0
C1026 C 0.6053 0.37343 0.90105 0.0
C1027 C 0.60791 0.37405 0.95966 0.0
C1028 C 0.62774 0.39372 0.96591 0.0
C1029 C 0.60061 0.35593 0.97416 0.0
C1030 C 0.58213 0.33385 0.96825 0.0
C1031 C 0.5947 0.31974 0.95201 0.0
C1032 C 0.57672 0.29925 0.94619 0.0
C1033 C 0.5463 0.29257 0.95661 0.0
C1034 C 0.53387 0.30631 0.97294 0.0
C1035 C 0.55172 0.32685 0.9788 0.0
H1036 H 0.53239 0.27672 0.95207 0.0
H1037 H 0.71362 0.47319 1.00751 0.0
H1038 H 0.89603 0.1389 0.57413 0.0
H1039 H 0.92098 0.13947 0.53932 0.0
H1040 H 0.81754 0.13307 0.51334 0.0
H1041 H 0.79255 0.13194 0.548 0.0
H1042 H 0.86339 0.10439 0.49375 0.0
H1043 H 0.85891 0.18604 0.51418 0.0
H1044 H 0.87063 0.22028 0.53671 0.0
H1045 H 0.98118 0.20953 0.52989 0.0
H1046 H 0.97011 0.175 0.50754 0.0
H1047 H 0.90288 0.13826 0.39041 0.0
H1048 H 0.87904 0.13446 0.42528 0.0
H1049 H 0.9817 0.1471 0.45074 0.0
H1050 H 0.00541 0.15141 0.41594 0.0
H1051 H 0.9365 0.17201 0.47089 0.0
H1052 H 0.9412 0.09066 0.4498 0.0
H1053 H 0.92942 0.05626 0.42747 0.0
H1054 H 0.81891 0.06599 0.43555 0.0
H1055 H 0.83002 0.10065 0.45772 0.0
C1056 C 0.87864 0.13745 0.561 0.0
C1057 C 0.84227 0.1356 0.56386 0.0
C1058 C 0.8929 0.13794 0.54111 0.0
C1059 C 0.8711 0.13658 0.52368 0.0
C1060 C 0.83488 0.13424 0.52652 0.0
C1061 C 0.82061 0.13383 0.54636 0.0
C1062 C 0.8859 0.13784 0.50248 0.0
C1063 C 0.87908 0.11929 0.48866 0.0
C1064 C 0.90696 0.15704 0.49595 0.0
C1065 C 0.91367 0.17779 0.50937 0.0
C1066 C 0.88572 0.19086 0.51763 0.0
C1067 C 0.89224 0.21034 0.53034 0.0
C1068 C 0.92663 0.21704 0.53477 0.0
C1069 C 0.95456 0.2043 0.52647 0.0
C1070 C 0.94818 0.18478 0.51377 0.0
C1071 C 0.92039 0.14001 0.40346 0.0
C1072 C 0.95602 0.14518 0.40042 0.0
C1073 C 0.90677 0.13777 0.42341 0.0
C1074 C 0.9286 0.14021 0.44074 0.0
C1075 C 0.96425 0.14518 0.43768 0.0
C1076 C 0.97778 0.14769 0.41777 0.0
C1077 C 0.91423 0.13846 0.46207 0.0
C1078 C 0.921 0.15701 0.47594 0.0
C1079 C 0.89318 0.11921 0.46863 0.0
C1080 C 0.88645 0.0984 0.45526 0.0
C1081 C 0.91438 0.08558 0.44668 0.0
C1082 C 0.90782 0.06601 0.43408 0.0
C1083 C 0.87344 0.05898 0.43005 0.0
C1084 C 0.84553 0.07148 0.43866 0.0
C1085 C 0.85194 0.09107 0.45126 0.0
H1086 H 0.86842 0.04382 0.42029 0.0
H1087 H 0.93163 0.23213 0.54461 0.0
H1088 H 0.78841 0.87271 0.0505 0.0
H1089 H 0.80525 0.87939 0.01443 0.0
H1090 H 0.90645 0.9044 0.03448 0.0
H1091 H 0.88932 0.89848 0.07031 0.0
H1092 H 0.88505 0.93149 1.00551 0.0
H1093 H 0.89086 0.84695 0.01413 0.0
H1094 H 0.86808 0.80731 0.0227 0.0
H1095 H 0.78998 0.8139 0.97545 0.0
H1096 H 0.81202 0.85374 0.96678 0.0
H1097 H 0.99023 0.91422 0.91727 0.0
H1098 H 0.96275 0.90831 0.95081 0.0
H1099 H 0.86156 0.90387 0.92176 0.0
H1100 H 0.88856 0.91087 0.88808 0.0
H1101 H 0.87689 0.86754 0.95333 0.0
H1102 H 0.87649 0.95193 0.94357 0.0
H1103 H 0.9034 0.99034 0.93494 0.0
H1104 H 0.97609 0.98234 0.98495 0.0
H1105 H 0.94995 0.94368 0.99368 0.0
C1106 C 0.81417 0.87971 0.04712 0.0
C1107 C 0.83746 0.88523 0.0632 0.0
C1108 C 0.82386 0.88342 0.02653 0.0
C1109 C 0.85733 0.89217 0.02164 0.0
C1110 C 0.88044 0.89777 0.03776 0.0
C1111 C 0.8706 0.89441 0.05827 0.0
C1112 C 0.8687 0.89554 0.99986 0.0
C1113 C 0.88344 0.91738 0.9942 0.0
C1114 C 0.86602 0.87739 0.98484 0.0
C1115 C 0.85282 0.85342 0.98997 0.0
C1116 C 0.86866 0.84002 1.00567 0.0
C1117 C 0.85591 0.81751 1.01053 0.0
C1118 C 0.82753 0.80813 0.99967 0.0
C1119 C 0.81191 0.82121 0.98388 0.0
C1120 C 0.82453 0.84375 0.97898 0.0
C1121 C 0.96207 0.91232 0.91792 0.0
C1122 C 0.94166 0.91332 0.89986 0.0
C1123 C 0.94646 0.90871 0.93713 0.0
C1124 C 0.91014 0.90577 0.93874 0.0
C1125 C 0.88967 0.90603 0.9208 0.0
C1126 C 0.90523 0.90995 0.90155 0.0
C1127 C 0.89372 0.90321 0.95933 0.0
C1128 C 0.87807 0.88162 0.96468 0.0
C1129 C 0.896 0.92143 0.97419 0.0
C1130 C 0.91143 0.94483 0.96917 0.0
C1131 C 0.89838 0.95828 0.95263 0.0
C1132 C 0.91347 0.98011 0.94774 0.0
C1133 C 0.94148 0.98875 0.95936 0.0
C1134 C 0.9544 0.97561 0.97595 0.0
C1135 C 0.93943 0.95375 0.98089 0.0
H1136 H 0.95314 1.00565 0.95555 0.0
H1137 H 0.8177 0.79069 1.00345 0.0
H1138 H 0.71624 0.64489 0.54823 0.0
H1139 H 0.70218 0.6382 0.51178 0.0
H1140 H 0.60807 0.60126 0.5295 0.0
H1141 H 0.62176 0.60794 0.56572 0.0
H1142 H 0.64165 0.57765 0.50002 0.0
H1143 H 0.60619 0.65831 0.51175 0.0
H1144 H 0.61485 0.69984 0.52223 0.0
H1145 H 0.69395 0.70823 0.47581 0.0
H1146 H 0.6861 0.66662 0.46524 0.0
H1147 H 0.54218 0.57538 0.40942 0.0
H1148 H 0.56287 0.58529 0.44392 0.0
H1149 H 0.65487 0.61789 0.41793 0.0
H1150 H 0.6343 0.60794 0.38318 0.0
H1151 H 0.62804 0.64379 0.45034 0.0
H1152 H 0.66065 0.56337 0.43742 0.0
H1153 H 0.65061 0.52204 0.42681 0.0
H1154 H 0.57599 0.51329 0.47569 0.0
H1155 H 0.5852 0.55471 0.48641 0.0
C1156 C 0.69253 0.63539 0.54433 0.0
C1157 C 0.67029 0.6268 0.55992 0.0
C1158 C 0.68451 0.63159 0.5235 0.0
C1159 C 0.65394 0.61933 0.51788 0.0
C1160 C 0.6319 0.61063 0.53343 0.0
C1161 C 0.63989 0.61437 0.55417 0.0
C1162 C 0.6446 0.6154 0.49588 0.0
C1163 C 0.63841 0.59215 0.48923 0.0
C1164 C 0.64123 0.63424 0.48161 0.0
C1165 C 0.64584 0.65928 0.48787 0.0
C1166 C 0.62563 0.66896 0.50389 0.0
C1167 C 0.63035 0.69252 0.50982 0.0
C1168 C 0.65501 0.70664 0.49973 0.0
C1169 C 0.67491 0.69725 0.48364 0.0
C1170 C 0.67032 0.67369 0.47766 0.0
C1171 C 0.56683 0.58464 0.41098 0.0
C1172 C 0.58673 0.59063 0.3935 0.0
C1173 C 0.5786 0.59035 0.43074 0.0
C1174 C 0.61071 0.60199 0.43353 0.0
C1175 C 0.63006 0.60885 0.41613 0.0
C1176 C 0.61821 0.60319 0.39628 0.0
C1177 C 0.62447 0.60609 0.45467 0.0
C1178 C 0.63158 0.62931 0.46112 0.0
C1179 C 0.62864 0.58723 0.46882 0.0
C1180 C 0.62344 0.5622 0.46262 0.0
C1181 C 0.64195 0.55268 0.44583 0.0
C1182 C 0.63642 0.52923 0.4398 0.0
C1183 C 0.61263 0.51506 0.45054 0.0
C1184 C 0.5944 0.5243 0.46738 0.0
C1185 C 0.59979 0.54775 0.47345 0.0
H1186 H 0.60837 0.49692 0.44585 0.0
H1187 H 0.65863 0.72487 0.50435 0.0
H1188 H 0.37961 0.66686 0.95844 0.0
H1189 H 0.39825 0.66229 0.99432 0.0
H1190 H 0.33049 0.60174 1.0009 0.0
H1191 H 0.31211 0.60598 0.96466 0.0
H1192 H 0.3285 0.64003 0.03424 0.0
H1193 H 0.40634 0.58756 0.99809 0.0
H1194 H 0.44765 0.57706 0.97039 0.0
H1195 H 0.51737 0.63221 0.99012 0.0
H1196 H 0.47619 0.6433 0.01773 0.0
H1197 H 0.39822 0.61983 0.13414 0.0
H1198 H 0.37613 0.61332 0.09941 0.0
H1199 H 0.46305 0.65282 0.07451 0.0
H1200 H 0.48723 0.6573 0.10891 0.0
H1201 H 0.45168 0.61945 0.05023 0.0
H1202 H 0.37437 0.6758 0.08263 0.0
H1203 H 0.33329 0.69021 0.10911 0.0
H1204 H 0.26334 0.63273 0.09568 0.0
H1205 H 0.30423 0.61783 0.06929 0.0
C1206 C 0.36851 0.65266 0.96756 0.0
C1207 C 0.34429 0.63683 0.95883 0.0
C1208 C 0.37928 0.65002 0.988 0.0
C1209 C 0.36577 0.63168 1.0002 0.0
C1210 C 0.34116 0.61602 0.99169 0.0
C1211 C 0.3308 0.6184 0.97104 0.0
C1212 C 0.37796 0.62902 0.02178 0.0
C1213 C 0.35522 0.63508 0.03786 0.0
C1214 C 0.41304 0.62318 0.02633 0.0
C1215 C 0.43804 0.61637 1.00988 0.0
C1216 C 0.43034 0.59758 0.99642 0.0
C1217 C 0.45376 0.59149 0.98075 0.0
C1218 C 0.48508 0.60399 0.97847 0.0
C1219 C 0.49309 0.62256 0.99189 0.0
C1220 C 0.46974 0.62873 1.00757 0.0
C1221 C 0.4132 0.62671 0.12131 0.0
C1222 C 0.44453 0.63935 0.1246 0.0
C1223 C 0.40008 0.62331 0.10137 0.0
C1224 C 0.41731 0.63309 0.08422 0.0
C1225 C 0.44897 0.6452 0.0874 0.0
C1226 C 0.46256 0.64808 0.10725 0.0
C1227 C 0.4025 0.63108 0.06297 0.0
C1228 C 0.42478 0.62413 0.04683 0.0
C1229 C 0.36712 0.6366 0.05834 0.0
C1230 C 0.34253 0.64556 0.07417 0.0
C1231 C 0.35034 0.66615 0.08543 0.0
C1232 C 0.32707 0.67442 0.1004 0.0
C1233 C 0.29577 0.66235 0.10412 0.0
C1234 C 0.28762 0.64203 0.09282 0.0
C1235 C 0.31082 0.63368 0.07785 0.0
H1236 H 0.2778 0.66878 0.11571 0.0
H1237 H 0.50318 0.59926 0.96633 0.0
H1238 H 0.11596 0.89194 0.45464 0.0
H1239 H 0.10001 0.89553 0.49092 0.0
H1240 H 0.19956 0.86575 0.50853 0.0
H1241 H 0.21509 0.86139 0.47204 0.0
H1242 H 0.15175 0.84627 0.53037 0.0
H1243 H 0.17843 0.92655 0.51506 0.0
H1244 H 0.17651 0.96411 0.49576 0.0
H1245 H 0.0662 0.96962 0.50714 0.0
H1246 H 0.06734 0.93191 0.52627 0.0
H1247 H 0.11616 0.87114 0.63664 0.0
H1248 H 0.14394 0.87403 0.60259 0.0
H1249 H 0.04398 0.89033 0.57524 0.0
H1250 H 0.01619 0.88752 0.60913 0.0
H1251 H 0.0988 0.91866 0.56014 0.0
H1252 H 0.07337 0.83575 0.57272 0.0
H1253 H 0.07707 0.79862 0.59258 0.0
H1254 H 0.18899 0.79945 0.58703 0.0
H1255 H 0.18596 0.83679 0.56738 0.0
C1256 C 0.13466 0.88649 0.46625 0.0
C1257 C 0.16688 0.87655 0.46052 0.0
C1258 C 0.12558 0.88862 0.48703 0.0
C1259 C 0.1488 0.88132 0.5026 0.0
C1260 C 0.18119 0.87157 0.49687 0.0
C1261 C 0.19008 0.86911 0.47603 0.0
C1262 C 0.1384 0.88276 0.52472 0.0
C1263 C 0.14089 0.86229 0.53694 0.0
C1264 C 0.12374 0.90353 0.53339 0.0
C1265 C 0.12294 0.9263 0.52199 0.0
C1266 C 0.15371 0.93569 0.51334 0.0
C1267 C 0.15277 0.95702 0.50244 0.0
C1268 C 0.12124 0.96921 0.50019 0.0
C1269 C 0.0906 0.96014 0.50889 0.0
C1270 C 0.09139 0.9388 0.51978 0.0
C1271 C 0.10025 0.87561 0.62338 0.0
C1272 C 0.06398 0.8789 0.6255 0.0
C1273 C 0.11609 0.87716 0.60396 0.0
C1274 C 0.09595 0.88223 0.58637 0.0
C1275 C 0.05999 0.88638 0.58859 0.0
C1276 C 0.04411 0.88459 0.60793 0.0
C1277 C 0.11181 0.88216 0.56547 0.0
C1278 C 0.11024 0.90283 0.55354 0.0
C1279 C 0.12769 0.86171 0.55714 0.0
C1280 C 0.12947 0.83918 0.56879 0.0
C1281 C 0.09878 0.82811 0.57588 0.0
C1282 C 0.10075 0.80701 0.58707 0.0
C1283 C 0.13325 0.79672 0.59112 0.0
C1284 C 0.16384 0.80746 0.58392 0.0
C1285 C 0.16201 0.82858 0.57275 0.0
H1286 H 0.13472 0.78039 0.59978 0.0
H1287 H 0.12056 0.98572 0.49174 0.0
H1288 H 0.13774 0.32866 0.37467 0.0
H1289 H 0.11818 0.2958 0.35319 0.0
H1290 H 0.21629 0.26016 0.36326 0.0
H1291 H 0.2359 0.29297 0.38541 0.0
H1292 H 0.18794 0.25795 0.32078 0.0
H1293 H 0.15412 0.24207 0.39066 0.0
H1294 H 0.1281 0.25162 0.42441 0.0
H1295 H 0.02829 0.26272 0.39563 0.0
H1296 H 0.05386 0.25365 0.36163 0.0
H1297 H 0.11417 0.147 0.28583 0.0
H1298 H 0.14633 0.17847 0.30365 0.0
H1299 H 0.0504 0.21761 0.31106 0.0
H1300 H 0.01837 0.18651 0.29305 0.0
H1301 H 0.08335 0.21511 0.34654 0.0
H1302 H 0.11586 0.23933 0.27797 0.0
H1303 H 0.14033 0.23676 0.24289 0.0
H1304 H 0.2383 0.21279 0.26765 0.0
H1305 H 0.2145 0.21572 0.30296 0.0
C1306 C 0.15534 0.31392 0.37227 0.0
C1307 C 0.18819 0.31329 0.38208 0.0
C1308 C 0.14411 0.29516 0.35993 0.0
C1309 C 0.1655 0.27534 0.35693 0.0
C1310 C 0.19929 0.27526 0.36549 0.0
C1311 C 0.21053 0.29406 0.37805 0.0
C1312 C 0.15136 0.25441 0.34577 0.0
C1313 C 0.16555 0.2482 0.32659 0.0
C1314 C 0.12155 0.24213 0.3531 0.0
C1315 C 0.106 0.24738 0.37356 0.0
C1316 C 0.12669 0.24675 0.39149 0.0
C1317 C 0.11201 0.25205 0.41068 0.0
C1318 C 0.07659 0.25783 0.41216 0.0
C1319 C 0.05574 0.25826 0.39446 0.0
C1320 C 0.07031 0.25303 0.37523 0.0
C1321 C 0.10007 0.16253 0.29088 0.0
C1322 C 0.06365 0.16416 0.28802 0.0
C1323 C 0.1185 0.18053 0.30111 0.0
C1324 C 0.10087 0.20052 0.30874 0.0
C1325 C 0.06465 0.20237 0.30545 0.0
C1326 C 0.04633 0.18451 0.29514 0.0
C1327 C 0.1194 0.21887 0.32122 0.0
C1328 C 0.10606 0.22456 0.34078 0.0
C1329 C 0.14966 0.23085 0.31412 0.0
C1330 C 0.16332 0.22748 0.29301 0.0
C1331 C 0.14249 0.23327 0.27589 0.0
C1332 C 0.15633 0.23195 0.256 0.0
C1333 C 0.19086 0.2246 0.25304 0.0
C1334 C 0.21159 0.21852 0.26998 0.0
C1335 C 0.198 0.22011 0.28993 0.0
H1336 H 0.20152 0.22356 0.23761 0.0
H1337 H 0.06527 0.26192 0.42702 0.0
H1338 H 0.26471 0.21995 0.87976 0.0
H1339 H 0.28535 0.25227 0.85732 0.0
H1340 H 0.38187 0.21479 0.84715 0.0
H1341 H 0.36124 0.18242 0.86891 0.0
H1342 H 0.38442 0.26305 0.86704 0.0
H1343 H 0.33618 0.21928 0.80887 0.0
H1344 H 0.288 0.20071 0.78943 0.0
H1345 H 0.23436 0.26731 0.78663 0.0
H1346 H 0.282 0.28621 0.80636 0.0
H1347 H 0.48993 0.32525 0.79527 0.0
H1348 H 0.45552 0.29509 0.8133 0.0
H1349 H 0.36384 0.3391 0.80885 0.0
H1350 H 0.39873 0.37 0.79215 0.0
H1351 H 0.3519 0.29083 0.79708 0.0
H1352 H 0.39438 0.33584 0.85213 0.0
H1353 H 0.4326 0.35703 0.8765 0.0
H1354 H 0.48786 0.2927 0.88952 0.0
H1355 H 0.45057 0.27116 0.86477 0.0
C1356 C 0.28977 0.21826 0.87213 0.0
C1357 C 0.31154 0.19878 0.87631 0.0
C1358 C 0.3016 0.23677 0.85941 0.0
C1359 C 0.33527 0.23597 0.85075 0.0
C1360 C 0.35589 0.21579 0.85376 0.0
C1361 C 0.34406 0.19733 0.86623 0.0
C1362 C 0.3512 0.25707 0.84082 0.0
C1363 C 0.3777 0.26894 0.85162 0.0
C1364 C 0.34098 0.26548 0.82119 0.0
C1365 C 0.31243 0.25408 0.80934 0.0
C1366 C 0.31392 0.22991 0.80433 0.0
C1367 C 0.28675 0.21933 0.7932 0.0
C1368 C 0.25807 0.2328 0.78687 0.0
C1369 C 0.25655 0.25689 0.79159 0.0
C1370 C 0.28363 0.26754 0.80273 0.0
C1371 C 0.46255 0.32865 0.79833 0.0
C1372 C 0.44693 0.34993 0.79195 0.0
C1373 C 0.44286 0.31133 0.80854 0.0
C1374 C 0.40704 0.31477 0.81231 0.0
C1375 C 0.39134 0.33596 0.80592 0.0
C1376 C 0.41125 0.35352 0.79619 0.0
C1377 C 0.38628 0.2962 0.82302 0.0
C1378 C 0.35877 0.28492 0.81247 0.0
C1379 C 0.3949 0.28865 0.84318 0.0
C1380 C 0.41985 0.30191 0.8564 0.0
C1381 C 0.41518 0.32628 0.8598 0.0
C1382 C 0.43652 0.33833 0.8738 0.0
C1383 C 0.46238 0.32615 0.88467 0.0
C1384 C 0.46761 0.30204 0.88118 0.0
C1385 C 0.44648 0.28993 0.8671 0.0
H1386 H 0.47836 0.3354 0.8958 0.0
H1387 H 0.23707 0.22458 0.77824 0.0
H1388 H 0.6852 0.23174 0.61774 0.0
H1389 H 0.66514 0.26243 0.64145 0.0
H1390 H 0.69048 0.2176 0.69317 0.0
H1391 H 0.71085 0.18669 0.66926 0.0
H1392 H 0.62274 0.23495 0.69462 0.0
H1393 H 0.73727 0.26679 0.68558 0.0
H1394 H 0.7891 0.2803 0.66625 0.0
H1395 H 0.72734 0.33347 0.63615 0.0
H1396 H 0.675 0.32006 0.65507 0.0
H1397 H 0.56098 0.32523 0.7618 0.0
H1398 H 0.59771 0.2953 0.74544 0.0
H1399 H 0.59761 0.33581 0.68902 0.0
H1400 H 0.56309 0.36656 0.70578 0.0
H1401 H 0.65906 0.3192 0.69414 0.0
H1402 H 0.54369 0.28384 0.69815 0.0
H1403 H 0.49032 0.26985 0.71577 0.0
H1404 H 0.55192 0.22356 0.7536 0.0
H1405 H 0.60568 0.23726 0.73621 0.0
C1406 C 0.68712 0.22862 0.63418 0.0
C1407 C 0.69954 0.20688 0.6417 0.0
C1408 C 0.67576 0.24619 0.64773 0.0
C1409 C 0.67641 0.24238 0.66911 0.0
C1410 C 0.68984 0.22093 0.67672 0.0
C1411 C 0.70166 0.20338 0.66311 0.0
C1412 C 0.6603 0.26011 0.68315 0.0
C1413 C 0.63114 0.25329 0.69488 0.0
C1414 C 0.67068 0.28415 0.68308 0.0
C1415 C 0.70213 0.2923 0.67166 0.0
C1416 C 0.73466 0.28124 0.67472 0.0
C1417 C 0.76415 0.2889 0.66386 0.0
C1418 C 0.7615 0.3077 0.64996 0.0
C1419 C 0.72936 0.3189 0.64692 0.0
C1420 C 0.69978 0.3113 0.65773 0.0
C1421 C 0.56911 0.32788 0.74597 0.0
C1422 C 0.55904 0.3483 0.7351 0.0
C1423 C 0.58983 0.31059 0.73653 0.0
C1424 C 0.60005 0.31297 0.7158 0.0
C1425 C 0.59014 0.33345 0.705 0.0
C1426 C 0.57007 0.35095 0.71455 0.0
C1427 C 0.62082 0.2942 0.70521 0.0
C1428 C 0.65087 0.30082 0.69412 0.0
C1429 C 0.611 0.27001 0.70564 0.0
C1430 C 0.5787 0.26175 0.71604 0.0
C1431 C 0.54585 0.27078 0.71031 0.0
C1432 C 0.51554 0.2629 0.72024 0.0
C1433 C 0.51774 0.24595 0.73587 0.0
C1434 C 0.55026 0.23673 0.74152 0.0
C1435 C 0.58064 0.2445 0.73161 0.0
H1436 H 0.49424 0.23991 0.74355 0.0
H1437 H 0.78436 0.31361 0.64156 0.0
H1438 H 0.79854 0.3239 0.17082 0.0
H1439 H 0.81826 0.29319 0.1951 0.0
H1440 H 0.83639 0.24569 0.14418 0.0
H1441 H 0.81694 0.27624 0.12006 0.0
H1442 H 0.80958 0.22243 0.17844 0.0
H1443 H 0.90156 0.27849 0.16169 0.0
H1444 H 0.92732 0.31843 0.15965 0.0
H1445 H 0.91687 0.32633 0.22521 0.0
H1446 H 0.89051 0.28653 0.22758 0.0
H1447 H 0.94222 0.14353 0.208 0.0
H1448 H 0.90558 0.17357 0.19188 0.0
H1449 H 0.91015 0.21552 0.24739 0.0
H1450 H 0.94827 0.18588 0.26332 0.0
H1451 H 0.91919 0.24284 0.21544 0.0
H1452 H 0.83357 0.1847 0.23297 0.0
H1453 H 0.80696 0.145 0.23497 0.0
H1454 H 0.80523 0.14063 0.16892 0.0
H1455 H 0.83172 0.18036 0.16647 0.0
C1456 C 0.80586 0.30667 0.16496 0.0
C1457 C 0.80641 0.30238 0.14364 0.0
C1458 C 0.81729 0.28921 0.17877 0.0
C1459 C 0.82917 0.26723 0.17141 0.0
C1460 C 0.82736 0.26248 0.15021 0.0
C1461 C 0.81634 0.27994 0.13645 0.0
C1462 C 0.84671 0.24998 0.18527 0.0
C1463 C 0.83355 0.22684 0.18654 0.0
C1464 C 0.87759 0.25587 0.19618 0.0
C1465 C 0.89368 0.27968 0.19478 0.0
C1466 C 0.9045 0.28882 0.17565 0.0
C1467 C 0.91924 0.31142 0.17443 0.0
C1468 C 0.92363 0.32494 0.19228 0.0
C1469 C 0.91338 0.31586 0.21139 0.0
C1470 C 0.89853 0.29329 0.21268 0.0
C1471 C 0.93554 0.15918 0.21679 0.0
C1472 C 0.94813 0.16229 0.23697 0.0
C1473 C 0.91419 0.17624 0.20762 0.0
C1474 C 0.90442 0.19665 0.21853 0.0
C1475 C 0.91707 0.19986 0.23869 0.0
C1476 C 0.93874 0.18286 0.24781 0.0
C1477 C 0.88236 0.21506 0.20847 0.0
C1478 C 0.8948 0.23843 0.20778 0.0
C1479 C 0.85074 0.20937 0.19817 0.0
C1480 C 0.8348 0.18547 0.19955 0.0
C1481 C 0.82769 0.17523 0.21887 0.0
C1482 C 0.81262 0.15273 0.22008 0.0
C1483 C 0.8046 0.14027 0.2021 0.0
C1484 C 0.81148 0.15031 0.18284 0.0
C1485 C 0.82639 0.17286 0.18152 0.0
H1486 H 0.79289 0.12288 0.20309 0.0
H1487 H 0.93506 0.34243 0.19131 0.0
H1488 H 0.79633 0.70603 0.63314 0.0
H1489 H 0.84366 0.72742 0.65099 0.0
H1490 H 0.76709 0.76821 0.68428 0.0
H1491 H 0.72009 0.74673 0.66701 0.0
H1492 H 0.81642 0.7953 0.66058 0.0
H1493 H 0.81274 0.72985 0.70949 0.0
H1494 H 0.81773 0.68785 0.71932 0.0
H1495 H 0.92346 0.68643 0.69705 0.0
H1496 H 0.91891 0.72835 0.68681 0.0
H1497 H 0.89532 0.86652 0.73345 0.0
H1498 H 0.86111 0.83648 0.71589 0.0
H1499 H 0.95548 0.79841 0.70097 0.0
H1500 H 0.99003 0.82789 0.71999 0.0
H1501 H 0.90523 0.7678 0.71093 0.0
H1502 H 0.91343 0.83168 0.66415 0.0
H1503 H 0.91202 0.87337 0.65299 0.0
H1504 H 0.80254 0.87702 0.66743 0.0
H1505 H 0.80347 0.83546 0.67902 0.0
C1506 C 0.78968 0.71907 0.64471 0.0
C1507 C 0.75447 0.72492 0.64846 0.0
C1508 C 0.81672 0.73135 0.65481 0.0
C1509 C 0.80884 0.74961 0.66876 0.0
C1510 C 0.77375 0.75437 0.67341 0.0
C1511 C 0.74692 0.74208 0.66351 0.0
C1512 C 0.83648 0.76534 0.67728 0.0
C1513 C 0.83572 0.78931 0.67168 0.0
C1514 C 0.8627 0.75732 0.69099 0.0
C1515 C 0.86533 0.73214 0.69714 0.0
C1516 C 0.83692 0.72051 0.70648 0.0
C1517 C 0.83971 0.69673 0.71218 0.0
C1518 C 0.87085 0.68445 0.70874 0.0
C1519 C 0.89932 0.69594 0.69966 0.0
C1520 C 0.89666 0.71971 0.69392 0.0
C1521 C 0.90893 0.85163 0.72674 0.0
C1522 C 0.94547 0.84959 0.72831 0.0
C1523 C 0.88928 0.83454 0.71643 0.0
C1524 C 0.90567 0.81532 0.70673 0.0
C1525 C 0.9422 0.81309 0.70827 0.0
C1526 C 0.96194 0.83007 0.71899 0.0
C1527 C 0.88424 0.79798 0.69483 0.0
C1528 C 0.88626 0.77376 0.69963 0.0
C1529 C 0.85958 0.80562 0.67995 0.0
C1530 C 0.8586 0.83049 0.67257 0.0
C1531 C 0.88911 0.84142 0.66504 0.0
C1532 C 0.88839 0.86502 0.65864 0.0
C1533 C 0.85721 0.87785 0.65953 0.0
C1534 C 0.82667 0.86706 0.66675 0.0
C1535 C 0.82727 0.84346 0.67321 0.0
H1536 H 0.85671 0.89613 0.65459 0.0
H1537 H 0.87296 0.66605 0.71317 0.0
H1538 H 0.70658 0.80712 0.13639 0.0
H1539 H 0.6592 0.78582 0.15429 0.0
H1540 H 0.73533 0.74125 0.18406 0.0
H1541 H 0.78249 0.76276 0.16698 0.0
H1542 H 0.67694 0.71924 0.15624 0.0
H1543 H 0.70144 0.77397 0.21364 0.0
H1544 H 0.70427 0.81404 0.22858 0.0
H1545 H 0.59584 0.82492 0.21415 0.0
H1546 H 0.59254 0.78502 0.19884 0.0
H1547 H 0.60164 0.63781 0.22273 0.0
H1548 H 0.63722 0.66823 0.20644 0.0
H1549 H 0.5512 0.7174 0.2106 0.0
H1550 H 0.51665 0.68746 0.22889 0.0
H1551 H 0.60647 0.74082 0.2176 0.0
H1552 H 0.57591 0.68852 0.16383 0.0
H1553 H 0.56737 0.65015 0.14651 0.0
H1554 H 0.67795 0.63716 0.14888 0.0
H1555 H 0.68713 0.67532 0.1665 0.0
C1556 C 0.71321 0.79327 0.14724 0.0
C1557 C 0.74829 0.78641 0.15003 0.0
C1558 C 0.68613 0.78103 0.15734 0.0
C1559 C 0.69384 0.76181 0.1703 0.0
C1560 C 0.72885 0.75591 0.174 0.0
C1561 C 0.75575 0.76821 0.16417 0.0
C1562 C 0.66593 0.74626 0.17863 0.0
C1563 C 0.66155 0.72387 0.1697 0.0
C1564 C 0.64477 0.75278 0.19555 0.0
C1565 C 0.64688 0.77665 0.20485 0.0
C1566 C 0.67832 0.785 0.21344 0.0
C1567 C 0.67998 0.80766 0.22204 0.0
C1568 C 0.65029 0.82205 0.22225 0.0
C1569 C 0.61884 0.81378 0.21394 0.0
C1570 C 0.61706 0.79115 0.20532 0.0
C1571 C 0.59044 0.65519 0.22042 0.0
C1572 C 0.55646 0.66026 0.22726 0.0
C1573 C 0.61063 0.67254 0.21077 0.0
C1574 C 0.59678 0.69511 0.20675 0.0
C1575 C 0.56261 0.70018 0.21342 0.0
C1576 C 0.54271 0.68296 0.22367 0.0
C1577 C 0.61823 0.71322 0.19568 0.0
C1578 C 0.62135 0.73614 0.20397 0.0
C1579 C 0.63742 0.70749 0.17765 0.0
C1580 C 0.63219 0.68476 0.16657 0.0
C1581 C 0.59841 0.67746 0.16071 0.0
C1582 C 0.59345 0.65573 0.15085 0.0
C1583 C 0.6221 0.64121 0.14661 0.0
C1584 C 0.65579 0.64843 0.15216 0.0
C1585 C 0.6609 0.67013 0.16206 0.0
H1586 H 0.61821 0.62438 0.139 0.0
H1587 H 0.65163 0.83958 0.22891 0.0
H1588 H 0.29525 0.79666 0.3893 0.0
H1589 H 0.34283 0.7769 0.37051 0.0
H1590 H 0.26706 0.74434 0.33012 0.0
H1591 H 0.21989 0.76419 0.34858 0.0
H1592 H 0.35487 0.73069 0.36752 0.0
H1593 H 0.30048 0.73498 0.28321 0.0
H1594 H 0.27009 0.76356 0.26076 0.0
H1595 H 0.3085 0.82102 0.2977 0.0
H1596 H 0.33953 0.79284 0.32019 0.0
H1597 H 0.42559 0.63561 0.31096 0.0
H1598 H 0.38765 0.66465 0.32781 0.0
H1599 H 0.42832 0.71931 0.28786 0.0
H1600 H 0.46399 0.68986 0.27003 0.0
H1601 H 0.36558 0.72747 0.29137 0.0
H1602 H 0.45253 0.71108 0.34205 0.0
H1603 H 0.48921 0.68599 0.36441 0.0
H1604 H 0.39748 0.66004 0.39523 0.0
H1605 H 0.3602 0.68473 0.37287 0.0
C1606 C 0.28896 0.78576 0.37607 0.0
C1607 C 0.25391 0.78192 0.3704 0.0
C1608 C 0.31607 0.77431 0.36548 0.0
C1609 C 0.30858 0.75914 0.34886 0.0
C1610 C 0.27364 0.75614 0.3427 0.0
C1611 C 0.24665 0.76742 0.35332 0.0
C1612 C 0.33663 0.74507 0.33871 0.0
C1613 C 0.35747 0.73012 0.35087 0.0
C1614 C 0.34068 0.74469 0.31703 0.0
C1615 C 0.32209 0.76174 0.3035 0.0
C1616 C 0.30256 0.75371 0.2865 0.0
C1617 C 0.2852 0.76985 0.27377 0.0
C1618 C 0.28728 0.79408 0.27784 0.0
C1619 C 0.30679 0.80224 0.29461 0.0
C1620 C 0.32421 0.78618 0.30738 0.0
C1621 C 0.42631 0.65386 0.30587 0.0
C1622 C 0.44769 0.6606 0.28933 0.0
C1623 C 0.40486 0.67053 0.31559 0.0
C1624 C 0.40556 0.69446 0.30952 0.0
C1625 C 0.42711 0.70107 0.29292 0.0
C1626 C 0.4476 0.68426 0.28277 0.0
C1627 C 0.38337 0.71251 0.32011 0.0
C1628 C 0.36347 0.72817 0.30803 0.0
C1629 C 0.38117 0.71414 0.34191 0.0
C1630 C 0.40356 0.69967 0.3557 0.0
C1631 C 0.44017 0.69997 0.35356 0.0
C1632 C 0.46107 0.68581 0.36622 0.0
C1633 C 0.44569 0.67141 0.38121 0.0
C1634 C 0.40937 0.67121 0.38362 0.0
C1635 C 0.38834 0.68531 0.37097 0.0
H1636 H 0.4619 0.66042 0.39098 0.0
H1637 H 0.27382 0.80655 0.26796 0.0
H1638 H 0.21386 0.70719 0.88086 0.0
H1639 H 0.16591 0.72454 0.86074 0.0
H1640 H 0.23981 0.76987 0.82954 0.0
H1641 H 0.28751 0.75173 0.84849 0.0
H1642 H 0.14116 0.76647 0.86088 0.0
H1643 H 0.21489 0.78729 0.78384 0.0
H1644 H 0.2582 0.76818 0.76117 0.0
H1645 H 0.22907 0.70004 0.78491 0.0
H1646 H 0.18525 0.71868 0.80752 0.0
H1647 H 0.06615 0.86582 0.81384 0.0
H1648 H 0.10391 0.83596 0.82944 0.0
H1649 H 0.08509 0.78956 0.77771 0.0
H1650 H 0.04901 0.82015 0.76151 0.0
H1651 H 0.14799 0.78567 0.78636 0.0
H1652 H 0.04702 0.78146 0.82821 0.0
H1653 H 0.99864 0.79632 0.8497 0.0
H1654 H 0.07234 0.82238 0.89425 0.0
H1655 H 0.12121 0.80799 0.87287 0.0
C1656 C 0.21992 0.72036 0.86926 0.0
C1657 C 0.25454 0.72817 0.86642 0.0
C1658 C 0.19244 0.73046 0.85792 0.0
C1659 C 0.19908 0.7485 0.84346 0.0
C1660 C 0.2338 0.75572 0.84023 0.0
C1661 C 0.26114 0.7455 0.85133 0.0
C1662 C 0.16996 0.76108 0.83272 0.0
C1663 C 0.14249 0.77046 0.84454 0.0
C1664 C 0.17086 0.7658 0.81126 0.0
C1665 C 0.1969 0.75443 0.79748 0.0
C1666 C 0.21755 0.76822 0.78414 0.0
C1667 C 0.24224 0.75747 0.77132 0.0
C1668 C 0.24643 0.73292 0.77163 0.0
C1669 C 0.22587 0.71906 0.78472 0.0
C1670 C 0.20114 0.72972 0.79757 0.0
C1671 C 0.06994 0.84918 0.80588 0.0
C1672 C 0.05455 0.84522 0.78653 0.0
C1673 C 0.09137 0.832 0.81487 0.0
C1674 C 0.09689 0.81012 0.80505 0.0
C1675 C 0.08133 0.80618 0.78568 0.0
C1676 C 0.06063 0.82364 0.77644 0.0
C1677 C 0.1199 0.79181 0.81465 0.0
C1678 C 0.14626 0.78138 0.80262 0.0
C1679 C 0.11712 0.78539 0.83574 0.0
C1680 C 0.08781 0.79374 0.84886 0.0
C1681 C 0.05292 0.79045 0.84254 0.0
C1682 C 0.02541 0.79879 0.85471 0.0
C1683 C 0.03241 0.81031 0.87331 0.0
C1684 C 0.06695 0.81345 0.87983 0.0
C1685 C 0.09458 0.80517 0.8677 0.0
H1686 H 0.01107 0.81679 0.8827 0.0
H1687 H 0.26558 0.72464 0.7617 0.0
loop_
_geom_bond_atom_site_label_1
_geom_bond_atom_site_label_2
_geom_bond_distance
_geom_bond_site_symmetry_2
_ccdc_geom_bond_type
H0 C1 0.949 . S
C1 H0 0.949 . S
C1 C2 1.395 . S
C1 C3 1.391 . S
C2 C1 1.395 . S
C2 C5 1.390 . S
C3 C1 1.391 . S
C3 C7 1.387 . S
C3 C8 1.491 . S
H4 C5 0.950 . S
C5 C2 1.390 . S
C5 H4 0.950 . S
C5 C6 1.378 . S
C6 C5 1.378 . S
C6 C7 1.409 . S
C7 C3 1.387 . S
C7 C6 1.409 . S
C7 H9 0.951 . S
C8 C3 1.491 . S
C8 C10 1.382 . S
C8 C12 1.404 . S
H9 C7 0.951 . S
C10 C8 1.382 . S
C10 C11 1.390 . S
C10 H15 0.949 . S
C11 C10 1.390 . S
C11 C16 1.399 . S
C12 C8 1.404 . S
C12 H13 0.950 . S
C12 C14 1.375 . S
H13 C12 0.950 . S
C14 C12 1.375 . S
C14 C16 1.382 . S
C14 H18 0.950 . S
H15 C10 0.949 . S
C16 C11 1.399 . S
C16 C14 1.382 . S
C16 H17 0.952 . S
H17 C16 0.952 . S
H18 C14 0.950 . S
H19 C20 0.949 . S
C20 H19 0.949 . S
C20 C21 1.395 . S
C20 C22 1.391 . S
C21 C20 1.395 . S
C21 C24 1.390 . S
C22 C20 1.391 . S
C22 C26 1.387 . S
C22 C27 1.491 . S
H23 C24 0.950 . S
C24 C21 1.390 . S
C24 H23 0.950 . S
C24 C25 1.378 . S
C25 C24 1.378 . S
C25 C26 1.409 . S
C26 C22 1.387 . S
C26 C25 1.409 . S
C26 H28 0.951 . S
C27 C22 1.491 . S
C27 C29 1.382 . S
C27 C31 1.404 . S
H28 C26 0.951 . S
C29 C27 1.382 . S
C29 C30 1.390 . S
C29 H34 0.949 . S
C30 C29 1.390 . S
C30 C35 1.399 . S
C31 C27 1.404 . S
C31 H32 0.950 . S
C31 C33 1.375 . S
H32 C31 0.950 . S
C33 C31 1.375 . S
C33 C35 1.382 . S
C33 H37 0.950 . S
H34 C29 0.949 . S
C35 C30 1.399 . S
C35 C33 1.382 . S
C35 H36 0.952 . S
H36 C35 0.952 . S
H37 C33 0.950 . S
H38 C39 0.949 . S
C39 H38 0.949 . S
C39 C40 1.395 . S
C39 C41 1.391 . S
C40 C39 1.395 . S
C40 C43 1.390 . S
C41 C39 1.391 . S
C41 C45 1.387 . S
C41 C46 1.491 . S
H42 C43 0.950 . S
C43 C40 1.390 . S
C43 H42 0.950 . S
C43 C44 1.378 . S
C44 C43 1.378 . S
C44 C45 1.409 . S
C45 C41 1.387 . S
C45 C44 1.409 . S
C45 H47 0.951 . S
C46 C41 1.491 . S
C46 C48 1.382 . S
C46 C50 1.404 . S
H47 C45 0.951 . S
C48 C46 1.382 . S
C48 C49 1.390 . S
C48 H53 0.949 . S
C49 C48 1.390 . S
C49 C54 1.399 . S
C50 C46 1.404 . S
C50 H51 0.950 . S
C50 C52 1.375 . S
H51 C50 0.950 . S
C52 C50 1.375 . S
C52 C54 1.382 . S
C52 H56 0.950 . S
H53 C48 0.949 . S
C54 C49 1.399 . S
C54 C52 1.382 . S
C54 H55 0.952 . S
H55 C54 0.952 . S
H56 C52 0.950 . S
H57 C58 0.949 . S
C58 H57 0.949 . S
C58 C59 1.395 . S
C58 C60 1.391 . S
C59 C58 1.395 . S
C59 C62 1.390 . S
C60 C58 1.391 . S
C60 C64 1.387 . S
C60 C65 1.491 . S
H61 C62 0.950 . S
C62 C59 1.390 . S
C62 H61 0.950 . S
C62 C63 1.378 . S
C63 C62 1.378 . S
C63 C64 1.409 . S
C64 C60 1.387 . S
C64 C63 1.409 . S
C64 H66 0.951 . S
C65 C60 1.491 . S
C65 C67 1.382 . S
C65 C69 1.404 . S
H66 C64 0.951 . S
C67 C65 1.382 . S
C67 C68 1.390 . S
C67 H72 0.949 . S
C68 C67 1.390 . S
C68 C73 1.399 . S
C69 C65 1.404 . S
C69 H70 0.950 . S
C69 C71 1.375 . S
H70 C69 0.950 . S
C71 C69 1.375 . S
C71 C73 1.382 . S
C71 H75 0.950 . S
H72 C67 0.949 . S
C73 C68 1.399 . S
C73 C71 1.382 . S
C73 H74 0.952 . S
H74 C73 0.952 . S
H75 C71 0.950 . S
H76 C77 0.949 . S
C77 H76 0.949 . S
C77 C78 1.395 . S
C77 C79 1.391 . S
C78 C77 1.395 . S
C78 C81 1.390 . S
C79 C77 1.391 . S
C79 C83 1.387 . S
C79 C84 1.491 . S
H80 C81 0.950 . S
C81 C78 1.390 . S
C81 H80 0.950 . S
C81 C82 1.378 . S
C82 C81 1.378 . S
C82 C83 1.409 . S
C83 C79 1.387 . S
C83 C82 1.409 . S
C83 H85 0.951 . S
C84 C79 1.491 . S
C84 C86 1.382 . S
C84 C88 1.404 . S
H85 C83 0.951 . S
C86 C84 1.382 . S
C86 C87 1.390 . S
C86 H91 0.949 . S
C87 C86 1.390 . S
C87 C92 1.399 . S
C88 C84 1.404 . S
C88 H89 0.950 . S
C88 C90 1.375 . S
H89 C88 0.950 . S
C90 C88 1.375 . S
C90 C92 1.382 . S
C90 H94 0.950 . S
H91 C86 0.949 . S
C92 C87 1.399 . S
C92 C90 1.382 . S
C92 H93 0.952 . S
H93 C92 0.952 . S
H94 C90 0.950 . S
H95 C96 0.949 . S
C96 H95 0.949 . S
C96 C97 1.395 . S
C96 C98 1.391 . S
C97 C96 1.395 . S
C97 C100 1.390 . S
C98 C96 1.391 . S
C98 C102 1.387 . S
C98 C103 1.491 . S
H99 C100 0.950 . S
C100 C97 1.390 . S
C100 H99 0.950 . S
C100 C101 1.378 . S
C101 C100 1.378 . S
C101 C102 1.409 . S
C102 C98 1.387 . S
C102 C101 1.409 . S
C102 H104 0.951 . S
C103 C98 1.491 . S
C103 C105 1.382 . S
C103 C107 1.404 . S
H104 C102 0.951 . S
C105 C103 1.382 . S
C105 C106 1.390 . S
C105 H110 0.949 . S
C106 C105 1.390 . S
C106 C111 1.399 . S
C107 C103 1.404 . S
C107 H108 0.950 . S
C107 C109 1.375 . S
H108 C107 0.950 . S
C109 C107 1.375 . S
C109 C111 1.382 . S
C109 H113 0.950 . S
H110 C105 0.949 . S
C111 C106 1.399 . S
C111 C109 1.382 . S
C111 H112 0.952 . S
H112 C111 0.952 . S
H113 C109 0.950 . S
H114 C115 0.949 . S
C115 H114 0.949 . S
C115 C116 1.395 . S
C115 C117 1.391 . S
C116 C115 1.395 . S
C116 C119 1.390 . S
C117 C115 1.391 . S
C117 C121 1.387 . S
C117 C122 1.491 . S
H118 C119 0.950 . S
C119 C116 1.390 . S
C119 H118 0.950 . S
C119 C120 1.378 . S
C120 C119 1.378 . S
C120 C121 1.409 . S
C121 C117 1.387 . S
C121 C120 1.409 . S
C121 H123 0.951 . S
C122 C117 1.491 . S
C122 C124 1.382 . S
C122 C126 1.404 . S
H123 C121 0.951 . S
C124 C122 1.382 . S
C124 C125 1.390 . S
C124 H129 0.949 . S
C125 C124 1.390 . S
C125 C130 1.399 . S
C126 C122 1.404 . S
C126 H127 0.950 . S
C126 C128 1.375 . S
H127 C126 0.950 . S
C128 C126 1.375 . S
C128 C130 1.382 . S
C128 H132 0.950 . S
H129 C124 0.949 . S
C130 C125 1.399 . S
C130 C128 1.382 . S
C130 H131 0.952 . S
H131 C130 0.952 . S
H132 C128 0.950 . S
H133 C134 0.949 . S
C134 H133 0.949 . S
C134 C135 1.395 . S
C134 C136 1.391 . S
C135 C134 1.395 . S
C135 C138 1.390 . S
C136 C134 1.391 . S
C136 C140 1.387 . S
C136 C141 1.491 . S
H137 C138 0.950 . S
C138 C135 1.390 . S
C138 H137 0.950 . S
C138 C139 1.378 . S
C139 C138 1.378 . S
C139 C140 1.409 . S
C140 C136 1.387 . S
C140 C139 1.409 . S
C140 H142 0.951 . S
C141 C136 1.491 . S
C141 C143 1.382 . S
C141 C145 1.404 . S
H142 C140 0.951 . S
C143 C141 1.382 . S
C143 C144 1.390 . S
C143 H148 0.949 . S
C144 C143 1.390 . S
C144 C149 1.399 . S
C145 C141 1.404 . S
C145 H146 0.950 . S
C145 C147 1.375 . S
H146 C145 0.950 . S
C147 C145 1.375 . S
C147 C149 1.382 . S
C147 H151 0.950 . S
H148 C143 0.949 . S
C149 C144 1.399 . S
C149 C147 1.382 . S
C149 H150 0.952 . S
H150 C149 0.952 . S
H151 C147 0.950 . S
Eu152 N181 2.600 . S
Eu152 N187 2.562 . S
Eu152 O196 2.462 . S
Eu152 O197 2.373 . S
Eu152 O199 2.432 . S
Eu152 O200 2.296 . S
Eu152 O204 2.355 . S
Eu152 O207 2.372 . S
Eu152 C216 2.787 . S
C153 N154 1.365 . S
C153 C156 1.405 . S
C153 C160 1.448 . S
N154 C153 1.365 . S
N154 C157 1.319 . S
N154 Eu163 2.600 . S
C155 C157 1.397 . S
C155 C158 1.367 . S
C155 H175 0.931 . S
C156 C153 1.405 . S
C156 C158 1.403 . S
C156 C162 1.439 . S
C157 N154 1.319 . S
C157 C155 1.397 . S
C157 H168 0.930 . S
C158 C155 1.367 . S
C158 C156 1.403 . S
C158 H179 0.929 . S
C159 C160 1.430 . S
C159 C161 1.387 . S
C159 C165 1.404 . S
C160 C153 1.448 . S
C160 C159 1.430 . S
C160 N164 1.351 . S
C161 C159 1.387 . S
C161 C162 1.374 . S
C161 H176 0.931 . S
C162 C156 1.439 . S
C162 C161 1.374 . S
C162 H177 0.931 . S
Eu163 N154 2.600 . S
Eu163 N164 2.562 . S
Eu163 O198 2.335 1_655 S
Eu163 O201 2.372 . S
Eu163 O202 2.462 . S
Eu163 O203 2.373 . S
Eu163 O205 2.432 . S
Eu163 O206 2.291 1_655 S
Eu163 C227 2.787 . S
N164 C160 1.351 . S
N164 Eu163 2.562 . S
N164 C166 1.325 . S
C165 C159 1.404 . S
C165 C167 1.366 . S
C165 H173 0.930 1_545 S
C166 N164 1.325 . S
C166 C167 1.416 . S
C166 H172 0.929 . S
C167 C165 1.366 . S
C167 C166 1.416 . S
C167 H169 0.930 1_545 S
H168 C157 0.930 . S
H169 C167 0.930 1_565 S
H170 C185 0.930 . S
H171 C192 0.930 . S
H172 C166 0.929 . S
H173 C165 0.930 1_565 S
H174 C188 0.929 . S
H175 C155 0.931 . S
H176 C161 0.931 . S
H177 C162 0.931 . S
H178 C183 0.931 . S
H179 C158 0.929 . S
H180 C191 0.930 . S
N181 Eu152 2.600 . S
N181 C182 1.365 . S
N181 C185 1.319 . S
C182 N181 1.365 . S
C182 C184 1.405 . S
C182 C190 1.448 . S
C183 H178 0.931 . S
C183 C185 1.397 . S
C183 C186 1.367 . S
C184 C182 1.405 . S
C184 C186 1.403 . S
C184 C217 1.439 . S
C185 H170 0.930 . S
C185 N181 1.319 . S
C185 C183 1.397 . S
C186 C183 1.367 . S
C186 C184 1.403 . S
C186 H193 0.929 . S
N187 Eu152 2.562 . S
N187 C188 1.325 . S
N187 C190 1.351 . S
C188 H174 0.929 . S
C188 N187 1.325 . S
C188 C192 1.416 . S
C189 C190 1.430 . S
C189 C191 1.404 . S
C189 C218 1.387 . S
C190 C182 1.448 . S
C190 N187 1.351 . S
C190 C189 1.430 . S
C191 H180 0.930 . S
C191 C189 1.404 . S
C191 C192 1.366 . S
C192 H171 0.930 . S
C192 C188 1.416 . S
C192 C191 1.366 . S
H193 C186 0.929 . S
H194 C217 0.931 . S
H195 C218 0.931 . S
O196 Eu152 2.462 . S
O196 C216 1.252 . S
O197 Eu152 2.373 . S
O197 C208 1.249 . S
O198 Eu163 2.335 1_455 S
O198 C208 1.264 . S
O199 Eu152 2.432 . S
O199 C216 1.268 . S
O200 Eu152 2.296 . S
O200 C215 1.249 1_455 S
O201 Eu163 2.372 . S
O201 C215 1.257 . S
O202 Eu163 2.462 . S
O202 C227 1.252 . S
O203 Eu163 2.373 . S
O203 C219 1.249 . S
O204 Eu152 2.355 . S
O204 C219 1.239 1_455 S
O205 Eu163 2.432 . S
O205 C227 1.268 . S
O206 Eu163 2.291 1_455 S
O206 C226 1.255 . S
O207 Eu152 2.372 . S
O207 C226 1.257 . S
C208 O197 1.249 . S
C208 O198 1.264 . S
C209 C212 1.382 . S
C209 C214 1.390 . S
C209 C216 1.506 . S
C210 C211 1.398 . S
C210 C214 1.392 . S
C211 C210 1.398 . S
C211 C213 1.372 . S
C211 H228 0.931 . S
C212 C209 1.382 . S
C212 C213 1.390 . S
C212 H229 0.931 . S
C213 C211 1.372 . S
C213 C212 1.390 . S
C213 H230 0.929 . S
C214 C209 1.390 . S
C214 C210 1.392 . S
C214 H231 0.930 . S
C215 O200 1.249 1_655 S
C215 O201 1.257 . S
C216 Eu152 2.787 . S
C216 O196 1.252 . S
C216 O199 1.268 . S
C216 C209 1.506 . S
C217 C184 1.439 . S
C217 H194 0.931 . S
C217 C218 1.374 . S
C218 C189 1.387 . S
C218 H195 0.931 . S
C218 C217 1.374 . S
C219 O203 1.249 . S
C219 O204 1.239 1_655 S
C220 C223 1.382 . S
C220 C224 1.390 . S
C220 C227 1.506 . S
C221 C222 1.398 . S
C221 C224 1.392 . S
C222 C221 1.398 . S
C222 C225 1.372 . S
C222 H232 0.931 . S
C223 C220 1.382 . S
C223 C225 1.390 . S
C223 H233 0.931 . S
C224 C220 1.390 . S
C224 C221 1.392 . S
C224 H234 0.930 . S
C225 C222 1.372 . S
C225 C223 1.390 . S
C225 H235 0.929 . S
C226 O206 1.255 . S
C226 O207 1.257 . S
C227 Eu163 2.787 . S
C227 O202 1.252 . S
C227 O205 1.268 . S
C227 C220 1.506 . S
H228 C211 0.931 . S
H229 C212 0.931 . S
H230 C213 0.929 . S
H231 C214 0.930 . S
H232 C222 0.931 . S
H233 C223 0.931 . S
H234 C224 0.930 . S
H235 C225 0.929 . S
Eu236 N265 2.600 . S
Eu236 N271 2.562 . S
Eu236 O280 2.462 . S
Eu236 O281 2.373 . S
Eu236 O283 2.432 . S
Eu236 O284 2.291 . S
Eu236 O288 2.335 . S
Eu236 O291 2.372 . S
Eu236 C300 2.787 . S
C237 N238 1.365 . S
C237 C240 1.405 . S
C237 C244 1.448 . S
N238 C237 1.365 . S
N238 C241 1.319 . S
N238 Eu247 2.600 . S
C239 C241 1.397 . S
C239 C242 1.367 . S
C239 H259 0.931 . S
C240 C237 1.405 . S
C240 C242 1.403 . S
C240 C246 1.439 . S
C241 N238 1.319 . S
C241 C239 1.397 . S
C241 H252 0.930 . S
C242 C239 1.367 . S
C242 C240 1.403 . S
C242 H263 0.929 . S
C243 C244 1.430 . S
C243 C245 1.387 . S
C243 C249 1.404 . S
C244 C237 1.448 . S
C244 C243 1.430 . S
C244 N248 1.351 . S
C245 C243 1.387 . S
C245 C246 1.374 . S
C245 H260 0.931 . S
C246 C240 1.439 . S
C246 C245 1.374 . S
C246 H261 0.931 . S
Eu247 N238 2.600 . S
Eu247 N248 2.562 . S
Eu247 O282 2.335 . S
Eu247 O285 2.372 . S
Eu247 O286 2.462 . S
Eu247 O287 2.373 . S
Eu247 O289 2.432 . S
Eu247 O290 2.291 . S
Eu247 C311 2.787 . S
N248 C244 1.351 . S
N248 Eu247 2.562 . S
N248 C250 1.325 . S
C249 C243 1.404 . S
C249 C251 1.366 . S
C249 H257 0.930 . S
C250 N248 1.325 . S
C250 C251 1.416 . S
C250 H256 0.929 . S
C251 C249 1.366 . S
C251 C250 1.416 . S
C251 H253 0.930 . S
H252 C241 0.930 . S
H253 C251 0.930 . S
H254 C269 0.930 . S
H255 C276 0.930 . S
H256 C250 0.929 . S
H257 C249 0.930 . S
H258 C272 0.929 . S
H259 C239 0.931 . S
H260 C245 0.931 . S
H261 C246 0.931 . S
H262 C267 0.931 . S
H263 C242 0.929 . S
H264 C275 0.930 . S
N265 Eu236 2.600 . S
N265 C266 1.365 . S
N265 C269 1.319 . S
C266 N265 1.365 . S
C266 C268 1.405 . S
C266 C274 1.448 . S
C267 H262 0.931 . S
C267 C269 1.397 . S
C267 C270 1.367 . S
C268 C266 1.405 . S
C268 C270 1.403 . S
C268 C301 1.439 . S
C269 H254 0.930 . S
C269 N265 1.319 . S
C269 C267 1.397 . S
C270 C267 1.367 . S
C270 C268 1.403 . S
C270 H277 0.929 . S
N271 Eu236 2.562 . S
N271 C272 1.325 . S
N271 C274 1.351 . S
C272 H258 0.929 . S
C272 N271 1.325 . S
C272 C276 1.416 . S
C273 C274 1.430 . S
C273 C275 1.404 . S
C273 C302 1.387 . S
C274 C266 1.448 . S
C274 N271 1.351 . S
C274 C273 1.430 . S
C275 H264 0.930 . S
C275 C273 1.404 . S
C275 C276 1.366 . S
C276 H255 0.930 . S
C276 C272 1.416 . S
C276 C275 1.366 . S
H277 C270 0.929 . S
H278 C301 0.931 . S
H279 C302 0.931 . S
O280 Eu236 2.462 . S
O280 C300 1.252 . S
O281 Eu236 2.373 . S
O281 C292 1.249 . S
O282 Eu247 2.335 . S
O282 C292 1.264 . S
O283 Eu236 2.432 . S
O283 C300 1.268 . S
O284 Eu236 2.291 . S
O284 C299 1.255 . S
O285 Eu247 2.372 . S
O285 C299 1.257 . S
O286 Eu247 2.462 . S
O286 C311 1.252 . S
O287 Eu247 2.373 . S
O287 C303 1.249 . S
O288 Eu236 2.335 . S
O288 C303 1.264 . S
O289 Eu247 2.432 . S
O289 C311 1.268 . S
O290 Eu247 2.291 . S
O290 C310 1.255 . S
O291 Eu236 2.372 . S
O291 C310 1.257 . S
C292 O281 1.249 . S
C292 O282 1.264 . S
C293 C296 1.382 . S
C293 C298 1.390 . S
C293 C300 1.506 . S
C294 C295 1.398 . S
C294 C298 1.392 . S
C295 C294 1.398 . S
C295 C297 1.372 . S
C295 H312 0.931 . S
C296 C293 1.382 . S
C296 C297 1.390 . S
C296 H313 0.931 . S
C297 C295 1.372 . S
C297 C296 1.390 . S
C297 H314 0.929 . S
C298 C293 1.390 . S
C298 C294 1.392 . S
C298 H315 0.930 . S
C299 O284 1.255 . S
C299 O285 1.257 . S
C300 Eu236 2.787 . S
C300 O280 1.252 . S
C300 O283 1.268 . S
C300 C293 1.506 . S
C301 C268 1.439 . S
C301 H278 0.931 . S
C301 C302 1.374 . S
C302 C273 1.387 . S
C302 H279 0.931 . S
C302 C301 1.374 . S
C303 O287 1.249 . S
C303 O288 1.264 . S
C304 C307 1.382 . S
C304 C308 1.390 . S
C304 C311 1.506 . S
C305 C306 1.398 . S
C305 C308 1.392 . S
C306 C305 1.398 . S
C306 C309 1.372 . S
C306 H316 0.931 . S
C307 C304 1.382 . S
C307 C309 1.390 . S
C307 H317 0.931 . S
C308 C304 1.390 . S
C308 C305 1.392 . S
C308 H318 0.930 . S
C309 C306 1.372 . S
C309 C307 1.390 . S
C309 H319 0.929 . S
C310 O290 1.255 . S
C310 O291 1.257 . S
C311 Eu247 2.787 . S
C311 O286 1.252 . S
C311 O289 1.268 . S
C311 C304 1.506 . S
H312 C295 0.931 . S
H313 C296 0.931 . S
H314 C297 0.929 . S
H315 C298 0.930 . S
H316 C306 0.931 . S
H317 C307 0.931 . S
H318 C308 0.930 . S
H319 C309 0.929 . S
Eu320 N349 2.600 . S
Eu320 N355 2.562 . S
Eu320 O364 2.462 . S
Eu320 O365 2.373 . S
Eu320 O367 2.432 . S
Eu320 O368 2.291 . S
Eu320 O372 2.335 . S
Eu320 O375 2.372 . S
Eu320 C384 2.787 . S
C321 N322 1.365 . S
C321 C324 1.405 . S
C321 C328 1.448 . S
N322 C321 1.365 . S
N322 C325 1.319 . S
N322 Eu331 2.600 . S
C323 C325 1.397 . S
C323 C326 1.367 . S
C323 H343 0.931 . S
C324 C321 1.405 . S
C324 C326 1.403 . S
C324 C330 1.439 . S
C325 N322 1.319 . S
C325 C323 1.397 . S
C325 H336 0.930 . S
C326 C323 1.367 . S
C326 C324 1.403 . S
C326 H347 0.929 . S
C327 C328 1.430 . S
C327 C329 1.387 . S
C327 C333 1.404 . S
C328 C321 1.448 . S
C328 C327 1.430 . S
C328 N332 1.351 . S
C329 C327 1.387 . S
C329 C330 1.374 . S
C329 H344 0.931 . S
C330 C324 1.439 . S
C330 C329 1.374 . S
C330 H345 0.931 . S
Eu331 N322 2.600 . S
Eu331 N332 2.562 . S
Eu331 O366 2.335 1_655 S
Eu331 O369 2.372 . S
Eu331 O370 2.462 . S
Eu331 O371 2.373 . S
Eu331 O373 2.432 . S
Eu331 O374 2.291 1_655 S
Eu331 C395 2.787 . S
N332 C328 1.351 . S
N332 Eu331 2.562 . S
N332 C334 1.325 . S
C333 C327 1.404 . S
C333 C335 1.366 . S
C333 H341 0.930 . S
C334 N332 1.325 . S
C334 C335 1.416 . S
C334 H340 0.929 . S
C335 C333 1.366 . S
C335 C334 1.416 . S
C335 H337 0.930 . S
H336 C325 0.930 . S
H337 C335 0.930 . S
H338 C353 0.930 . S
H339 C360 0.930 1_545 S
H340 C334 0.929 . S
H341 C333 0.930 . S
H342 C356 0.929 . S
H343 C323 0.931 . S
H344 C329 0.931 . S
H345 C330 0.931 . S
H346 C351 0.931 . S
H347 C326 0.929 . S
H348 C359 0.930 1_545 S
N349 Eu320 2.600 . S
N349 C350 1.365 . S
N349 C353 1.319 . S
C350 N349 1.365 . S
C350 C352 1.405 . S
C350 C358 1.448 . S
C351 H346 0.931 . S
C351 C353 1.397 . S
C351 C354 1.367 . S
C352 C350 1.405 . S
C352 C354 1.403 . S
C352 C385 1.439 . S
C353 H338 0.930 . S
C353 N349 1.319 . S
C353 C351 1.397 . S
C354 C351 1.367 . S
C354 C352 1.403 . S
C354 H361 0.929 . S
N355 Eu320 2.562 . S
N355 C356 1.325 . S
N355 C358 1.351 . S
C356 H342 0.929 . S
C356 N355 1.325 . S
C356 C360 1.416 . S
C357 C358 1.430 . S
C357 C359 1.404 . S
C357 C386 1.387 . S
C358 C350 1.448 . S
C358 N355 1.351 . S
C358 C357 1.430 . S
C359 H348 0.930 1_565 S
C359 C357 1.404 . S
C359 C360 1.366 . S
C360 H339 0.930 1_565 S
C360 C356 1.416 . S
C360 C359 1.366 . S
H361 C354 0.929 . S
H362 C385 0.931 . S
H363 C386 0.931 . S
O364 Eu320 2.462 . S
O364 C384 1.252 . S
O365 Eu320 2.373 . S
O365 C376 1.249 . S
O366 Eu331 2.335 1_455 S
O366 C376 1.264 . S
O367 Eu320 2.432 . S
O367 C384 1.268 . S
O368 Eu320 2.291 . S
O368 C383 1.255 1_455 S
O369 Eu331 2.372 . S
O369 C383 1.257 . S
O370 Eu331 2.462 . S
O370 C395 1.252 . S
O371 Eu331 2.373 . S
O371 C387 1.249 . S
O372 Eu320 2.335 . S
O372 C387 1.264 1_455 S
O373 Eu331 2.432 . S
O373 C395 1.268 . S
O374 Eu331 2.291 1_455 S
O374 C394 1.255 . S
O375 Eu320 2.372 . S
O375 C394 1.257 . S
C376 O365 1.249 . S
C376 O366 1.264 . S
C377 C380 1.382 . S
C377 C382 1.390 . S
C377 C384 1.506 . S
C378 C379 1.398 . S
C378 C382 1.392 . S
C379 C378 1.398 . S
C379 C381 1.372 . S
C379 H396 0.931 . S
C380 C377 1.382 . S
C380 C381 1.390 . S
C380 H397 0.931 . S
C381 C379 1.372 . S
C381 C380 1.390 . S
C381 H398 0.929 . S
C382 C377 1.390 . S
C382 C378 1.392 . S
C382 H399 0.930 . S
C383 O368 1.255 1_655 S
C383 O369 1.257 . S
C384 Eu320 2.787 . S
C384 O364 1.252 . S
C384 O367 1.268 . S
C384 C377 1.506 . S
C385 C352 1.439 . S
C385 H362 0.931 . S
C385 C386 1.374 . S
C386 C357 1.387 . S
C386 H363 0.931 . S
C386 C385 1.374 . S
C387 O371 1.249 . S
C387 O372 1.264 1_655 S
C388 C391 1.382 . S
C388 C392 1.390 . S
C388 C395 1.506 . S
C389 C390 1.398 . S
C389 C392 1.392 . S
C390 C389 1.398 . S
C390 C393 1.372 . S
C390 H400 0.931 . S
C391 C388 1.382 . S
C391 C393 1.390 . S
C391 H401 0.931 . S
C392 C388 1.390 . S
C392 C389 1.392 . S
C392 H402 0.930 . S
C393 C390 1.372 . S
C393 C391 1.390 . S
C393 H403 0.929 . S
C394 O374 1.255 . S
C394 O375 1.257 . S
C395 Eu331 2.787 . S
C395 O370 1.252 . S
C395 O373 1.268 . S
C395 C388 1.506 . S
H396 C379 0.931 . S
H397 C380 0.931 . S
H398 C381 0.929 . S
H399 C382 0.930 . S
H400 C390 0.931 . S
H401 C391 0.931 . S
H402 C392 0.930 . S
H403 C393 0.929 . S
Eu404 N433 2.600 . S
Eu404 N439 2.562 . S
Eu404 O448 2.462 . S
Eu404 O449 2.373 . S
Eu404 O451 2.432 . S
Eu404 O452 2.291 . S
Eu404 O456 2.335 . S
Eu404 O459 2.372 . S
Eu404 C468 2.787 . S
C405 N406 1.365 . S
C405 C408 1.405 . S
C405 C412 1.448 . S
N406 C405 1.365 . S
N406 C409 1.319 . S
N406 Eu415 2.600 . S
C407 C409 1.397 . S
C407 C410 1.367 . S
C407 H427 0.931 . S
C408 C405 1.405 . S
C408 C410 1.403 . S
C408 C414 1.439 . S
C409 N406 1.319 . S
C409 C407 1.397 . S
C409 H420 0.930 . S
C410 C407 1.367 . S
C410 C408 1.403 . S
C410 H431 0.929 . S
C411 C412 1.430 . S
C411 C413 1.387 . S
C411 C417 1.404 . S
C412 C405 1.448 . S
C412 C411 1.430 . S
C412 N416 1.351 . S
C413 C411 1.387 . S
C413 C414 1.374 . S
C413 H428 0.931 . S
C414 C408 1.439 . S
C414 C413 1.374 . S
C414 H429 0.931 . S
Eu415 N406 2.600 . S
Eu415 N416 2.562 . S
Eu415 O450 2.335 . S
Eu415 O453 2.372 . S
Eu415 O454 2.462 . S
Eu415 O455 2.373 . S
Eu415 O457 2.432 . S
Eu415 O458 2.291 . S
Eu415 C479 2.787 . S
N416 C412 1.351 . S
N416 Eu415 2.562 . S
N416 C418 1.325 . S
C417 C411 1.404 . S
C417 C419 1.366 . S
C417 H425 0.930 . S
C418 N416 1.325 . S
C418 C419 1.416 . S
C418 H424 0.929 . S
C419 C417 1.366 . S
C419 C418 1.416 . S
C419 H421 0.930 . S
H420 C409 0.930 . S
H421 C419 0.930 . S
H422 C437 0.930 . S
H423 C444 0.930 . S
H424 C418 0.929 . S
H425 C417 0.930 . S
H426 C440 0.929 . S
H427 C407 0.931 . S
H428 C413 0.931 . S
H429 C414 0.931 . S
H430 C435 0.931 . S
H431 C410 0.929 . S
H432 C443 0.930 . S
N433 Eu404 2.600 . S
N433 C434 1.365 . S
N433 C437 1.319 . S
C434 N433 1.365 . S
C434 C436 1.405 . S
C434 C442 1.448 . S
C435 H430 0.931 . S
C435 C437 1.397 . S
C435 C438 1.367 . S
C436 C434 1.405 . S
C436 C438 1.403 . S
C436 C469 1.439 . S
C437 H422 0.930 . S
C437 N433 1.319 . S
C437 C435 1.397 . S
C438 C435 1.367 . S
C438 C436 1.403 . S
C438 H445 0.929 . S
N439 Eu404 2.562 . S
N439 C440 1.325 . S
N439 C442 1.351 . S
C440 H426 0.929 . S
C440 N439 1.325 . S
C440 C444 1.416 . S
C441 C442 1.430 . S
C441 C443 1.404 . S
C441 C470 1.387 . S
C442 C434 1.448 . S
C442 N439 1.351 . S
C442 C441 1.430 . S
C443 H432 0.930 . S
C443 C441 1.404 . S
C443 C444 1.366 . S
C444 H423 0.930 . S
C444 C440 1.416 . S
C444 C443 1.366 . S
H445 C438 0.929 . S
H446 C469 0.931 . S
H447 C470 0.931 . S
O448 Eu404 2.462 . S
O448 C468 1.252 . S
O449 Eu404 2.373 . S
O449 C460 1.249 . S
O450 Eu415 2.335 . S
O450 C460 1.264 . S
O451 Eu404 2.432 . S
O451 C468 1.268 . S
O452 Eu404 2.291 . S
O452 C467 1.255 . S
O453 Eu415 2.372 . S
O453 C467 1.257 . S
O454 Eu415 2.462 . S
O454 C479 1.252 . S
O455 Eu415 2.373 . S
O455 C471 1.249 . S
O456 Eu404 2.335 . S
O456 C471 1.264 . S
O457 Eu415 2.432 . S
O457 C479 1.268 . S
O458 Eu415 2.291 . S
O458 C478 1.255 . S
O459 Eu404 2.372 . S
O459 C478 1.257 . S
C460 O449 1.249 . S
C460 O450 1.264 . S
C461 C464 1.382 . S
C461 C466 1.390 . S
C461 C468 1.506 . S
C462 C463 1.398 . S
C462 C466 1.392 . S
C463 C462 1.398 . S
C463 C465 1.372 . S
C463 H480 0.931 . S
C464 C461 1.382 . S
C464 C465 1.390 . S
C464 H481 0.931 . S
C465 C463 1.372 . S
C465 C464 1.390 . S
C465 H482 0.929 . S
C466 C461 1.390 . S
C466 C462 1.392 . S
C466 H483 0.930 . S
C467 O452 1.255 . S
C467 O453 1.257 . S
C468 Eu404 2.787 . S
C468 O448 1.252 . S
C468 O451 1.268 . S
C468 C461 1.506 . S
C469 C436 1.439 . S
C469 H446 0.931 . S
C469 C470 1.374 . S
C470 C441 1.387 . S
C470 H447 0.931 . S
C470 C469 1.374 . S
C471 O455 1.249 . S
C471 O456 1.264 . S
C472 C475 1.382 . S
C472 C476 1.390 . S
C472 C479 1.506 . S
C473 C474 1.398 . S
C473 C476 1.392 . S
C474 C473 1.398 . S
C474 C477 1.372 . S
C474 H484 0.931 . S
C475 C472 1.382 . S
C475 C477 1.390 . S
C475 H485 0.931 . S
C476 C472 1.390 . S
C476 C473 1.392 . S
C476 H486 0.930 . S
C477 C474 1.372 . S
C477 C475 1.390 . S
C477 H487 0.929 . S
C478 O458 1.255 . S
C478 O459 1.257 . S
C479 Eu415 2.787 . S
C479 O454 1.252 . S
C479 O457 1.268 . S
C479 C472 1.506 . S
H480 C463 0.931 . S
H481 C464 0.931 . S
H482 C465 0.929 . S
H483 C466 0.930 . S
H484 C474 0.931 . S
H485 C475 0.931 . S
H486 C476 0.930 . S
H487 C477 0.929 . S
H488 C506 0.951 . S
H489 C508 0.951 . S
H490 C510 0.950 . S
H491 C511 0.950 . S
H492 C513 0.950 . S
H493 C516 0.950 . S
H494 C517 0.950 . S
H495 C519 0.950 . S
H496 C520 0.950 . S
H497 C521 0.951 . S
H498 C523 0.951 . S
H499 C525 0.950 1_565 S
H500 C526 0.950 . S
H501 C528 0.950 . S
H502 C531 0.950 . S
H503 C532 0.950 . S
H504 C534 0.950 . S
H505 C535 0.950 . S
C506 H488 0.951 . S
C506 C507 1.366 . S
C506 C508 1.388 . S
C507 C506 1.366 . S
C507 C511 1.385 . S
C508 H489 0.951 . S
C508 C506 1.388 . S
C508 C509 1.366 . S
C509 C508 1.366 . S
C509 C510 1.414 . S
C509 C512 1.499 . S
C510 H490 0.950 . S
C510 C509 1.414 . S
C510 C511 1.374 . S
C511 H491 0.950 . S
C511 C507 1.385 . S
C511 C510 1.374 . S
C512 C509 1.499 . S
C512 C513 1.373 . S
C512 C514 1.389 . S
C513 H492 0.950 . S
C513 C512 1.373 . S
C513 C529 1.377 . S
C514 C512 1.389 . S
C514 C515 1.524 . S
C514 C528 1.377 . S
C515 C514 1.524 . S
C515 C516 1.397 . S
C515 C520 1.363 . S
C516 H493 0.950 . S
C516 C515 1.397 . S
C516 C517 1.334 . S
C517 H494 0.950 . S
C517 C516 1.334 . S
C517 C518 1.287 . S
C518 C517 1.287 . S
C518 C519 1.524 . S
C518 H537 0.913 . S
C519 H495 0.950 . S
C519 C518 1.524 . S
C519 C520 1.415 . S
C520 H496 0.950 . S
C520 C515 1.363 . S
C520 C519 1.415 . S
C521 H497 0.951 . S
C521 C522 1.366 . S
C521 C523 1.388 . S
C522 C521 1.366 . S
C522 C526 1.385 . S
C523 H498 0.951 . S
C523 C521 1.388 . S
C523 C524 1.366 . S
C524 C523 1.366 . S
C524 C525 1.414 . S
C524 C527 1.499 1_545 S
C525 H499 0.950 1_545 S
C525 C524 1.414 . S
C525 C526 1.374 . S
C526 H500 0.950 . S
C526 C522 1.385 . S
C526 C525 1.374 . S
C527 C524 1.499 1_565 S
C527 C528 1.373 . S
C527 C529 1.389 . S
C528 H501 0.950 . S
C528 C514 1.377 . S
C528 C527 1.373 . S
C529 C513 1.377 . S
C529 C527 1.389 . S
C529 C530 1.524 1_565 S
C530 C529 1.524 1_545 S
C530 C531 1.397 . S
C530 C535 1.363 . S
C531 H502 0.950 . S
C531 C530 1.397 . S
C531 C532 1.334 . S
C532 H503 0.950 . S
C532 C531 1.334 . S
C532 C533 1.287 . S
C533 C532 1.287 . S
C533 C534 1.524 . S
C533 H536 0.999 . S
C534 H504 0.950 . S
C534 C533 1.524 . S
C534 C535 1.415 . S
C535 H505 0.950 . S
C535 C530 1.363 . S
C535 C534 1.415 . S
H536 C533 0.999 . S
H537 C518 0.913 . S
H538 C556 0.951 . S
H539 C558 0.951 . S
H540 C560 0.950 . S
H541 C561 0.950 . S
H542 C563 0.950 . S
H543 C566 0.950 . S
H544 C567 0.950 . S
H545 C569 0.950 . S
H546 C570 0.950 . S
H547 C571 0.951 . S
H548 C573 0.951 . S
H549 C575 0.950 . S
H550 C576 0.950 . S
H551 C578 0.950 . S
H552 C581 0.950 . S
H553 C582 0.950 . S
H554 C584 0.950 . S
H555 C585 0.950 . S
C556 H538 0.951 . S
C556 C557 1.366 . S
C556 C558 1.388 . S
C557 C556 1.366 . S
C557 C561 1.385 . S
C558 H539 0.951 . S
C558 C556 1.388 . S
C558 C559 1.366 . S
C559 C558 1.366 . S
C559 C560 1.414 . S
C559 C562 1.499 . S
C560 H540 0.950 . S
C560 C559 1.414 . S
C560 C561 1.374 . S
C561 H541 0.950 . S
C561 C557 1.385 . S
C561 C560 1.374 . S
C562 C559 1.499 . S
C562 C563 1.373 . S
C562 C564 1.389 . S
C563 H542 0.950 . S
C563 C562 1.373 . S
C563 C579 1.377 . S
C564 C562 1.389 . S
C564 C565 1.524 . S
C564 C578 1.377 . S
C565 C564 1.524 . S
C565 C566 1.397 . S
C565 C570 1.363 . S
C566 H543 0.950 . S
C566 C565 1.397 . S
C566 C567 1.334 . S
C567 H544 0.950 . S
C567 C566 1.334 . S
C567 C568 1.287 . S
C568 C567 1.287 . S
C568 C569 1.524 . S
C568 H587 0.913 . S
C569 H545 0.950 . S
C569 C568 1.524 . S
C569 C570 1.415 . S
C570 H546 0.950 . S
C570 C565 1.363 . S
C570 C569 1.415 . S
C571 H547 0.951 . S
C571 C572 1.366 . S
C571 C573 1.388 . S
C572 C571 1.366 . S
C572 C576 1.385 . S
C573 H548 0.951 . S
C573 C571 1.388 . S
C573 C574 1.366 . S
C574 C573 1.366 . S
C574 C575 1.414 . S
C574 C577 1.499 . S
C575 H549 0.950 . S
C575 C574 1.414 . S
C575 C576 1.374 . S
C576 H550 0.950 . S
C576 C572 1.385 . S
C576 C575 1.374 . S
C577 C574 1.499 . S
C577 C578 1.373 . S
C577 C579 1.389 . S
C578 H551 0.950 . S
C578 C564 1.377 . S
C578 C577 1.373 . S
C579 C563 1.377 . S
C579 C577 1.389 . S
C579 C580 1.524 . S
C580 C579 1.524 . S
C580 C581 1.397 . S
C580 C585 1.363 . S
C581 H552 0.950 . S
C581 C580 1.397 . S
C581 C582 1.334 . S
C582 H553 0.950 . S
C582 C581 1.334 . S
C582 C583 1.287 . S
C583 C582 1.287 . S
C583 C584 1.524 . S
C583 H586 0.999 . S
C584 H554 0.950 . S
C584 C583 1.524 . S
C584 C585 1.415 . S
C585 H555 0.950 . S
C585 C580 1.363 . S
C585 C584 1.415 . S
H586 C583 0.999 . S
H587 C568 0.913 . S
H588 C606 0.951 . S
H589 C608 0.951 . S
H590 C610 0.950 . S
H591 C611 0.950 . S
H592 C613 0.950 . S
H593 C616 0.950 . S
H594 C617 0.950 . S
H595 C619 0.950 . S
H596 C620 0.950 . S
H597 C621 0.951 . S
H598 C623 0.951 . S
H599 C625 0.950 . S
H600 C626 0.950 . S
H601 C628 0.950 . S
H602 C631 0.950 . S
H603 C632 0.950 . S
H604 C634 0.950 . S
H605 C635 0.950 . S
C606 H588 0.951 . S
C606 C607 1.366 . S
C606 C608 1.388 . S
C607 C606 1.366 . S
C607 C611 1.385 . S
C608 H589 0.951 . S
C608 C606 1.388 . S
C608 C609 1.366 . S
C609 C608 1.366 . S
C609 C610 1.414 . S
C609 C612 1.499 . S
C610 H590 0.950 . S
C610 C609 1.414 . S
C610 C611 1.374 . S
C611 H591 0.950 . S
C611 C607 1.385 . S
C611 C610 1.374 . S
C612 C609 1.499 . S
C612 C613 1.373 . S
C612 C614 1.389 . S
C613 H592 0.950 . S
C613 C612 1.373 . S
C613 C629 1.377 . S
C614 C612 1.389 . S
C614 C615 1.524 . S
C614 C628 1.377 . S
C615 C614 1.524 . S
C615 C616 1.397 . S
C615 C620 1.363 . S
C616 H593 0.950 . S
C616 C615 1.397 . S
C616 C617 1.334 . S
C617 H594 0.950 . S
C617 C616 1.334 . S
C617 C618 1.287 . S
C618 C617 1.287 . S
C618 C619 1.524 . S
C618 H637 0.913 . S
C619 H595 0.950 . S
C619 C618 1.524 . S
C619 C620 1.415 . S
C620 H596 0.950 . S
C620 C615 1.363 . S
C620 C619 1.415 . S
C621 H597 0.951 . S
C621 C622 1.366 . S
C621 C623 1.388 . S
C622 C621 1.366 . S
C622 C626 1.385 . S
C623 H598 0.951 . S
C623 C621 1.388 . S
C623 C624 1.366 . S
C624 C623 1.366 . S
C624 C625 1.414 . S
C624 C627 1.499 . S
C625 H599 0.950 . S
C625 C624 1.414 . S
C625 C626 1.374 . S
C626 H600 0.950 . S
C626 C622 1.385 . S
C626 C625 1.374 . S
C627 C624 1.499 . S
C627 C628 1.373 . S
C627 C629 1.389 . S
C628 H601 0.950 . S
C628 C614 1.377 . S
C628 C627 1.373 . S
C629 C613 1.377 . S
C629 C627 1.389 . S
C629 C630 1.524 . S
C630 C629 1.524 . S
C630 C631 1.397 . S
C630 C635 1.363 . S
C631 H602 0.950 . S
C631 C630 1.397 . S
C631 C632 1.334 . S
C632 H603 0.950 . S
C632 C631 1.334 . S
C632 C633 1.287 . S
C633 C632 1.287 . S
C633 C634 1.524 . S
C633 H636 0.999 . S
C634 H604 0.950 . S
C634 C633 1.524 . S
C634 C635 1.415 . S
C635 H605 0.950 . S
C635 C630 1.363 . S
C635 C634 1.415 . S
H636 C633 0.999 . S
H637 C618 0.913 . S
H638 C656 0.951 . S
H639 C658 0.951 . S
H640 C660 0.950 . S
H641 C661 0.950 . S
H642 C663 0.950 . S
H643 C666 0.950 . S
H644 C667 0.950 . S
H645 C669 0.950 . S
H646 C670 0.950 . S
H647 C671 0.951 . S
H648 C673 0.951 1_565 S
H649 C675 0.950 . S
H650 C676 0.950 . S
H651 C678 0.950 . S
H652 C681 0.950 . S
H653 C682 0.950 . S
H654 C684 0.950 . S
H655 C685 0.950 . S
C656 H638 0.951 . S
C656 C657 1.366 . S
C656 C658 1.388 . S
C657 C656 1.366 . S
C657 C661 1.385 . S
C658 H639 0.951 . S
C658 C656 1.388 . S
C658 C659 1.366 . S
C659 C658 1.366 . S
C659 C660 1.414 . S
C659 C662 1.499 . S
C660 H640 0.950 . S
C660 C659 1.414 . S
C660 C661 1.374 . S
C661 H641 0.950 . S
C661 C657 1.385 . S
C661 C660 1.374 . S
C662 C659 1.499 . S
C662 C663 1.373 . S
C662 C664 1.389 . S
C663 H642 0.950 . S
C663 C662 1.373 . S
C663 C679 1.377 . S
C664 C662 1.389 . S
C664 C665 1.524 . S
C664 C678 1.377 . S
C665 C664 1.524 . S
C665 C666 1.397 . S
C665 C670 1.363 . S
C666 H643 0.950 . S
C666 C665 1.397 . S
C666 C667 1.334 . S
C667 H644 0.950 . S
C667 C666 1.334 . S
C667 C668 1.287 . S
C668 C667 1.287 . S
C668 C669 1.524 . S
C668 H687 0.913 . S
C669 H645 0.950 . S
C669 C668 1.524 . S
C669 C670 1.415 . S
C670 H646 0.950 . S
C670 C665 1.363 . S
C670 C669 1.415 . S
C671 H647 0.951 . S
C671 C672 1.366 . S
C671 C673 1.388 . S
C672 C671 1.366 . S
C672 C676 1.385 . S
C673 H648 0.951 1_545 S
C673 C671 1.388 . S
C673 C674 1.366 . S
C674 C673 1.366 . S
C674 C675 1.414 . S
C674 C677 1.499 1_545 S
C675 H649 0.950 . S
C675 C674 1.414 . S
C675 C676 1.374 . S
C676 H650 0.950 . S
C676 C672 1.385 . S
C676 C675 1.374 . S
C677 C674 1.499 1_565 S
C677 C678 1.373 . S
C677 C679 1.389 . S
C678 H651 0.950 . S
C678 C664 1.377 . S
C678 C677 1.373 . S
C679 C663 1.377 . S
C679 C677 1.389 . S
C679 C680 1.524 . S
C680 C679 1.524 . S
C680 C681 1.397 1_565 S
C680 C685 1.363 . S
C681 H652 0.950 . S
C681 C680 1.397 1_545 S
C681 C682 1.334 . S
C682 H653 0.950 . S
C682 C681 1.334 . S
C682 C683 1.287 . S
C683 C682 1.287 . S
C683 C684 1.524 . S
C683 H686 0.999 . S
C684 H654 0.950 . S
C684 C683 1.524 . S
C684 C685 1.415 1_545 S
C685 H655 0.950 . S
C685 C680 1.363 . S
C685 C684 1.415 1_565 S
H686 C683 0.999 . S
H687 C668 0.913 . S
H688 C706 0.951 . S
H689 C708 0.951 . S
H690 C710 0.950 . S
H691 C711 0.950 . S
H692 C713 0.950 . S
H693 C716 0.950 . S
H694 C717 0.950 . S
H695 C719 0.950 . S
H696 C720 0.950 . S
H697 C721 0.951 . S
H698 C723 0.951 . S
H699 C725 0.950 . S
H700 C726 0.950 . S
H701 C728 0.950 . S
H702 C731 0.950 . S
H703 C732 0.950 . S
H704 C734 0.950 1_455 S
H705 C735 0.950 . S
C706 H688 0.951 . S
C706 C707 1.366 . S
C706 C708 1.388 . S
C707 C706 1.366 . S
C707 C711 1.385 . S
C708 H689 0.951 . S
C708 C706 1.388 . S
C708 C709 1.366 . S
C709 C708 1.366 . S
C709 C710 1.414 . S
C709 C712 1.499 . S
C710 H690 0.950 . S
C710 C709 1.414 . S
C710 C711 1.374 . S
C711 H691 0.950 . S
C711 C707 1.385 . S
C711 C710 1.374 . S
C712 C709 1.499 . S
C712 C713 1.373 . S
C712 C714 1.389 . S
C713 H692 0.950 . S
C713 C712 1.373 . S
C713 C729 1.377 . S
C714 C712 1.389 . S
C714 C715 1.524 . S
C714 C728 1.377 . S
C715 C714 1.524 . S
C715 C716 1.397 . S
C715 C720 1.363 . S
C716 H693 0.950 . S
C716 C715 1.397 . S
C716 C717 1.334 . S
C717 H694 0.950 . S
C717 C716 1.334 . S
C717 C718 1.287 . S
C718 C717 1.287 . S
C718 C719 1.524 . S
C718 H737 0.913 . S
C719 H695 0.950 . S
C719 C718 1.524 . S
C719 C720 1.415 . S
C720 H696 0.950 . S
C720 C715 1.363 . S
C720 C719 1.415 . S
C721 H697 0.951 . S
C721 C722 1.366 . S
C721 C723 1.388 1_565 S
C722 C721 1.366 . S
C722 C726 1.385 . S
C723 H698 0.951 . S
C723 C721 1.388 1_545 S
C723 C724 1.366 1_545 S
C724 C723 1.366 1_565 S
C724 C725 1.414 . S
C724 C727 1.499 1_565 S
C725 H699 0.950 . S
C725 C724 1.414 . S
C725 C726 1.374 . S
C726 H700 0.950 . S
C726 C722 1.385 . S
C726 C725 1.374 . S
C727 C724 1.499 1_545 S
C727 C728 1.373 . S
C727 C729 1.389 . S
C728 H701 0.950 . S
C728 C714 1.377 . S
C728 C727 1.373 . S
C729 C713 1.377 . S
C729 C727 1.389 . S
C729 C730 1.524 . S
C730 C729 1.524 . S
C730 C731 1.397 1_545 S
C730 C735 1.363 . S
C731 H702 0.950 . S
C731 C730 1.397 1_565 S
C731 C732 1.334 . S
C732 H703 0.950 . S
C732 C731 1.334 . S
C732 C733 1.287 . S
C733 C732 1.287 . S
C733 C734 1.524 1_565 S
C733 H736 0.999 1_655 S
C734 H704 0.950 1_655 S
C734 C733 1.524 1_545 S
C734 C735 1.415 . S
C735 H705 0.950 . S
C735 C730 1.363 . S
C735 C734 1.415 . S
H736 C733 0.999 1_455 S
H737 C718 0.913 . S
H738 C756 0.951 . S
H739 C758 0.951 . S
H740 C760 0.950 . S
H741 C761 0.950 . S
H742 C763 0.950 . S
H743 C766 0.950 . S
H744 C767 0.950 . S
H745 C769 0.950 . S
H746 C770 0.950 . S
H747 C771 0.951 . S
H748 C773 0.951 . S
H749 C775 0.950 . S
H750 C776 0.950 . S
H751 C778 0.950 . S
H752 C781 0.950 . S
H753 C782 0.950 . S
H754 C784 0.950 . S
H755 C785 0.950 . S
C756 H738 0.951 . S
C756 C757 1.366 . S
C756 C758 1.388 . S
C757 C756 1.366 . S
C757 C761 1.385 . S
C758 H739 0.951 . S
C758 C756 1.388 . S
C758 C759 1.366 . S
C759 C758 1.366 . S
C759 C760 1.414 . S
C759 C762 1.499 . S
C760 H740 0.950 . S
C760 C759 1.414 . S
C760 C761 1.374 . S
C761 H741 0.950 . S
C761 C757 1.385 . S
C761 C760 1.374 . S
C762 C759 1.499 . S
C762 C763 1.373 . S
C762 C764 1.389 . S
C763 H742 0.950 . S
C763 C762 1.373 . S
C763 C779 1.377 . S
C764 C762 1.389 . S
C764 C765 1.524 . S
C764 C778 1.377 . S
C765 C764 1.524 . S
C765 C766 1.397 . S
C765 C770 1.363 . S
C766 H743 0.950 . S
C766 C765 1.397 . S
C766 C767 1.334 . S
C767 H744 0.950 . S
C767 C766 1.334 . S
C767 C768 1.287 . S
C768 C767 1.287 . S
C768 C769 1.524 . S
C768 H787 0.913 . S
C769 H745 0.950 . S
C769 C768 1.524 . S
C769 C770 1.415 . S
C770 H746 0.950 . S
C770 C765 1.363 . S
C770 C769 1.415 . S
C771 H747 0.951 . S
C771 C772 1.366 . S
C771 C773 1.388 . S
C772 C771 1.366 . S
C772 C776 1.385 . S
C773 H748 0.951 . S
C773 C771 1.388 . S
C773 C774 1.366 . S
C774 C773 1.366 . S
C774 C775 1.414 . S
C774 C777 1.499 . S
C775 H749 0.950 . S
C775 C774 1.414 . S
C775 C776 1.374 . S
C776 H750 0.950 . S
C776 C772 1.385 . S
C776 C775 1.374 . S
C777 C774 1.499 . S
C777 C778 1.373 . S
C777 C779 1.389 . S
C778 H751 0.950 . S
C778 C764 1.377 . S
C778 C777 1.373 . S
C779 C763 1.377 . S
C779 C777 1.389 . S
C779 C780 1.524 . S
C780 C779 1.524 . S
C780 C781 1.397 . S
C780 C785 1.363 . S
C781 H752 0.950 . S
C781 C780 1.397 . S
C781 C782 1.334 . S
C782 H753 0.950 . S
C782 C781 1.334 . S
C782 C783 1.287 . S
C783 C782 1.287 . S
C783 C784 1.524 . S
C783 H786 0.999 . S
C784 H754 0.950 . S
C784 C783 1.524 . S
C784 C785 1.415 . S
C785 H755 0.950 . S
C785 C780 1.363 . S
C785 C784 1.415 . S
H786 C783 0.999 . S
H787 C768 0.913 . S
H788 C806 0.951 . S
H789 C808 0.951 . S
H790 C810 0.950 . S
H791 C811 0.950 . S
H792 C813 0.950 . S
H793 C816 0.950 . S
H794 C817 0.950 . S
H795 C819 0.950 . S
H796 C820 0.950 . S
H797 C821 0.951 . S
H798 C823 0.951 . S
H799 C825 0.950 . S
H800 C826 0.950 . S
H801 C828 0.950 . S
H802 C831 0.950 . S
H803 C832 0.950 . S
H804 C834 0.950 . S
H805 C835 0.950 . S
C806 H788 0.951 . S
C806 C807 1.366 . S
C806 C808 1.388 . S
C807 C806 1.366 . S
C807 C811 1.385 . S
C808 H789 0.951 . S
C808 C806 1.388 . S
C808 C809 1.366 . S
C809 C808 1.366 . S
C809 C810 1.414 . S
C809 C812 1.499 . S
C810 H790 0.950 . S
C810 C809 1.414 . S
C810 C811 1.374 . S
C811 H791 0.950 . S
C811 C807 1.385 . S
C811 C810 1.374 . S
C812 C809 1.499 . S
C812 C813 1.373 . S
C812 C814 1.389 . S
C813 H792 0.950 . S
C813 C812 1.373 . S
C813 C829 1.377 . S
C814 C812 1.389 . S
C814 C815 1.524 . S
C814 C828 1.377 . S
C815 C814 1.524 . S
C815 C816 1.397 . S
C815 C820 1.363 . S
C816 H793 0.950 . S
C816 C815 1.397 . S
C816 C817 1.334 . S
C817 H794 0.950 . S
C817 C816 1.334 . S
C817 C818 1.287 . S
C818 C817 1.287 . S
C818 C819 1.524 . S
C818 H837 0.913 . S
C819 H795 0.950 . S
C819 C818 1.524 . S
C819 C820 1.415 . S
C820 H796 0.950 . S
C820 C815 1.363 . S
C820 C819 1.415 . S
C821 H797 0.951 . S
C821 C822 1.366 . S
C821 C823 1.388 . S
C822 C821 1.366 . S
C822 C826 1.385 . S
C823 H798 0.951 . S
C823 C821 1.388 . S
C823 C824 1.366 . S
C824 C823 1.366 . S
C824 C825 1.414 . S
C824 C827 1.499 . S
C825 H799 0.950 . S
C825 C824 1.414 . S
C825 C826 1.374 . S
C826 H800 0.950 . S
C826 C822 1.385 . S
C826 C825 1.374 . S
C827 C824 1.499 . S
C827 C828 1.373 . S
C827 C829 1.389 . S
C828 H801 0.950 . S
C828 C814 1.377 . S
C828 C827 1.373 . S
C829 C813 1.377 . S
C829 C827 1.389 . S
C829 C830 1.524 . S
C830 C829 1.524 . S
C830 C831 1.397 . S
C830 C835 1.363 . S
C831 H802 0.950 . S
C831 C830 1.397 . S
C831 C832 1.334 . S
C832 H803 0.950 . S
C832 C831 1.334 . S
C832 C833 1.287 . S
C833 C832 1.287 . S
C833 C834 1.524 . S
C833 H836 0.999 . S
C834 H804 0.950 . S
C834 C833 1.524 . S
C834 C835 1.415 . S
C835 H805 0.950 . S
C835 C830 1.363 . S
C835 C834 1.415 . S
H836 C833 0.999 . S
H837 C818 0.913 . S
H838 C856 0.951 . S
H839 C858 0.951 . S
H840 C860 0.950 . S
H841 C861 0.950 . S
H842 C863 0.950 . S
H843 C866 0.950 . S
H844 C867 0.950 . S
H845 C869 0.950 . S
H846 C870 0.950 1_565 S
H847 C871 0.951 . S
H848 C873 0.951 . S
H849 C875 0.950 . S
H850 C876 0.950 . S
H851 C878 0.914 1_565 S
H852 C881 0.950 . S
H853 C882 0.950 . S
H854 C884 0.950 1_655 S
H855 C885 0.950 . S
C856 H838 0.951 . S
C856 C857 1.366 . S
C856 C858 1.388 . S
C857 C856 1.366 . S
C857 C861 1.385 . S
C858 H839 0.951 . S
C858 C856 1.388 . S
C858 C859 1.366 . S
C859 C858 1.366 . S
C859 C860 1.414 . S
C859 C862 1.499 . S
C860 H840 0.950 . S
C860 C859 1.414 . S
C860 C861 1.374 . S
C861 H841 0.950 . S
C861 C857 1.385 . S
C861 C860 1.374 . S
C862 C859 1.499 . S
C862 C863 1.373 . S
C862 C864 1.389 . S
C863 H842 0.950 . S
C863 C862 1.373 . S
C863 C879 1.377 . S
C864 C862 1.389 . S
C864 C865 1.524 . S
C864 C878 1.377 . S
C865 C864 1.524 . S
C865 C866 1.397 . S
C865 C870 1.363 . S
C866 H843 0.950 . S
C866 C865 1.397 . S
C866 C867 1.334 . S
C867 H844 0.950 . S
C867 C866 1.334 . S
C867 C868 1.287 . S
C868 C867 1.287 . S
C868 C869 1.524 1_545 S
C868 H887 0.913 . S
C869 H845 0.950 . S
C869 C868 1.524 1_565 S
C869 C870 1.415 1_565 S
C870 H846 0.950 1_545 S
C870 C865 1.363 . S
C870 C869 1.415 1_545 S
C871 H847 0.951 . S
C871 C872 1.366 . S
C871 C873 1.388 1_565 S
C872 C871 1.366 . S
C872 C876 1.385 . S
C873 H848 0.951 . S
C873 C871 1.388 1_545 S
C873 C874 1.364 1_545 S
C874 C873 1.364 1_565 S
C874 C875 1.420 . S
C874 C877 1.494 1_565 S
C875 H849 0.950 . S
C875 C874 1.420 . S
C875 C876 1.374 . S
C876 H850 0.950 . S
C876 C872 1.385 . S
C876 C875 1.374 . S
C877 C874 1.494 1_545 S
C877 C878 1.373 . S
C877 C879 1.389 . S
C878 H851 0.914 1_545 S
C878 C864 1.377 . S
C878 C877 1.373 . S
C879 C863 1.377 . S
C879 C877 1.389 . S
C879 C880 1.524 . S
C880 C879 1.524 . S
C880 C881 1.397 . S
C880 C885 1.363 . S
C881 H852 0.950 . S
C881 C880 1.397 . S
C881 C882 1.334 1_455 S
C882 H853 0.950 . S
C882 C881 1.334 1_655 S
C882 C883 1.287 . S
C883 C882 1.287 . S
C883 C884 1.524 1_655 S
C883 H886 0.999 . S
C884 H854 0.950 1_455 S
C884 C883 1.524 1_455 S
C884 C885 1.415 . S
C885 H855 0.950 . S
C885 C880 1.363 . S
C885 C884 1.415 . S
H886 C883 0.999 . S
H887 C868 0.913 . S
H888 C906 0.951 . S
H889 C908 0.951 . S
H890 C910 0.950 1_554 S
H891 C911 0.950 . S
H892 C913 0.950 . S
H893 C916 0.950 1_554 S
H894 C917 0.950 . S
H895 C919 0.950 . S
H896 C920 0.970 . S
H897 C921 0.951 . S
H898 C923 0.951 . S
H899 C925 0.950 . S
H900 C926 0.950 . S
H901 C928 0.950 . S
H902 C931 0.950 . S
H903 C932 0.950 . S
H904 C934 0.950 . S
H905 C935 0.950 . S
C906 H888 0.951 . S
C906 C907 1.366 . S
C906 C908 1.388 . S
C907 C906 1.366 . S
C907 C911 1.385 . S
C908 H889 0.951 . S
C908 C906 1.388 . S
C908 C909 1.366 . S
C909 C908 1.366 . S
C909 C910 1.414 . S
C909 C912 1.499 1_556 S
C910 H890 0.950 1_556 S
C910 C909 1.414 . S
C910 C911 1.374 . S
C911 H891 0.950 . S
C911 C907 1.385 . S
C911 C910 1.374 . S
C912 C909 1.499 1_554 S
C912 C913 1.373 . S
C912 C914 1.389 . S
C913 H892 0.950 . S
C913 C912 1.373 . S
C913 C929 1.377 . S
C914 C912 1.389 . S
C914 C915 1.524 . S
C914 C928 1.377 . S
C915 C914 1.524 . S
C915 C916 1.397 1_554 S
C915 C920 1.374 . S
C916 H893 0.950 1_556 S
C916 C915 1.397 1_556 S
C916 C917 1.334 . S
C917 H894 0.950 . S
C917 C916 1.334 . S
C917 C918 1.287 . S
C918 C917 1.287 . S
C918 C919 1.524 . S
C918 H937 0.913 . S
C919 H895 0.950 . S
C919 C918 1.524 . S
C919 C920 1.386 1_556 S
C920 H896 0.970 . S
C920 C915 1.374 . S
C920 C919 1.386 1_554 S
C921 H897 0.951 . S
C921 C922 1.366 . S
C921 C923 1.388 . S
C922 C921 1.366 . S
C922 C926 1.385 . S
C923 H898 0.951 . S
C923 C921 1.388 . S
C923 C924 1.366 . S
C924 C923 1.366 . S
C924 C925 1.414 . S
C924 C927 1.499 . S
C925 H899 0.950 . S
C925 C924 1.414 . S
C925 C926 1.374 . S
C926 H900 0.950 . S
C926 C922 1.385 . S
C926 C925 1.374 . S
C927 C924 1.499 . S
C927 C928 1.373 . S
C927 C929 1.389 . S
C928 H901 0.950 . S
C928 C914 1.377 . S
C928 C927 1.373 . S
C929 C913 1.377 . S
C929 C927 1.389 . S
C929 C930 1.524 . S
C930 C929 1.524 . S
C930 C931 1.397 . S
C930 C935 1.363 . S
C931 H902 0.950 . S
C931 C930 1.397 . S
C931 C932 1.334 . S
C932 H903 0.950 . S
C932 C931 1.334 . S
C932 C933 1.287 . S
C933 C932 1.287 . S
C933 C934 1.524 . S
C933 H936 0.999 . S
C934 H904 0.950 . S
C934 C933 1.524 . S
C934 C935 1.415 . S
C935 H905 0.950 . S
C935 C930 1.363 . S
C935 C934 1.415 . S
H936 C933 0.999 . S
H937 C918 0.913 . S
H938 C956 0.951 . S
H939 C958 0.951 . S
H940 C960 0.950 . S
H941 C961 0.950 . S
H942 C963 0.950 . S
H943 C966 0.950 . S
H944 C967 0.950 . S
H945 C969 0.950 . S
H946 C970 0.950 . S
H947 C971 0.951 . S
H948 C973 0.951 . S
H949 C975 0.950 . S
H950 C976 0.950 . S
H951 C978 0.950 . S
H952 C981 0.950 . S
H953 C982 0.950 . S
H954 C984 0.950 . S
H955 C985 0.950 . S
C956 H938 0.951 . S
C956 C957 1.366 . S
C956 C958 1.388 . S
C957 C956 1.366 . S
C957 C961 1.385 . S
C958 H939 0.951 . S
C958 C956 1.388 . S
C958 C959 1.366 . S
C959 C958 1.366 . S
C959 C960 1.414 . S
C959 C962 1.499 . S
C960 H940 0.950 . S
C960 C959 1.414 . S
C960 C961 1.374 . S
C961 H941 0.950 . S
C961 C957 1.385 . S
C961 C960 1.374 . S
C962 C959 1.499 . S
C962 C963 1.373 . S
C962 C964 1.389 . S
C963 H942 0.950 . S
C963 C962 1.373 . S
C963 C979 1.377 . S
C964 C962 1.389 . S
C964 C965 1.524 . S
C964 C978 1.377 . S
C965 C964 1.524 . S
C965 C966 1.397 . S
C965 C970 1.363 . S
C966 H943 0.950 . S
C966 C965 1.397 . S
C966 C967 1.334 . S
C967 H944 0.950 . S
C967 C966 1.334 . S
C967 C968 1.287 . S
C968 C967 1.287 . S
C968 C969 1.524 . S
C968 H987 0.913 . S
C969 H945 0.950 . S
C969 C968 1.524 . S
C969 C970 1.415 . S
C970 H946 0.950 . S
C970 C965 1.363 . S
C970 C969 1.415 . S
C971 H947 0.951 . S
C971 C972 1.366 . S
C971 C973 1.388 . S
C972 C971 1.366 . S
C972 C976 1.385 . S
C973 H948 0.951 . S
C973 C971 1.388 . S
C973 C974 1.366 . S
C974 C973 1.366 . S
C974 C975 1.414 . S
C974 C977 1.499 . S
C975 H949 0.950 . S
C975 C974 1.414 . S
C975 C976 1.374 . S
C976 H950 0.950 . S
C976 C972 1.385 . S
C976 C975 1.374 . S
C977 C974 1.499 . S
C977 C978 1.373 . S
C977 C979 1.389 . S
C978 H951 0.950 . S
C978 C964 1.377 . S
C978 C977 1.373 . S
C979 C963 1.377 . S
C979 C977 1.389 . S
C979 C980 1.524 . S
C980 C979 1.524 . S
C980 C981 1.397 . S
C980 C985 1.363 . S
C981 H952 0.950 . S
C981 C980 1.397 . S
C981 C982 1.334 . S
C982 H953 0.950 . S
C982 C981 1.334 . S
C982 C983 1.287 . S
C983 C982 1.287 . S
C983 C984 1.524 . S
C983 H986 0.999 . S
C984 H954 0.950 . S
C984 C983 1.524 . S
C984 C985 1.415 . S
C985 H955 0.950 . S
C985 C980 1.363 . S
C985 C984 1.415 . S
H986 C983 0.999 . S
H987 C968 0.913 . S
H988 C1006 0.951 . S
H989 C1008 0.951 1_556 S
H990 C1010 0.950 . S
H991 C1011 0.950 . S
H992 C1013 0.950 . S
H993 C1016 0.928 1_554 S
H994 C1017 0.950 . S
H995 C1019 0.950 . S
H996 C1020 0.950 . S
H997 C1021 0.951 . S
H998 C1023 0.951 . S
H999 C1025 0.950 . S
H1000 C1026 0.950 . S
H1001 C1028 0.950 . S
H1002 C1031 0.950 . S
H1003 C1032 0.950 . S
H1004 C1034 0.950 . S
H1005 C1035 0.950 . S
C1006 H988 0.951 . S
C1006 C1007 1.366 . S
C1006 C1008 1.388 . S
C1007 C1006 1.366 . S
C1007 C1011 1.385 . S
C1008 H989 0.951 1_554 S
C1008 C1006 1.388 . S
C1008 C1009 1.366 . S
C1009 C1008 1.366 . S
C1009 C1010 1.414 . S
C1009 C1012 1.499 1_554 S
C1010 H990 0.950 . S
C1010 C1009 1.414 . S
C1010 C1011 1.374 . S
C1011 H991 0.950 . S
C1011 C1007 1.385 . S
C1011 C1010 1.374 . S
C1012 C1009 1.499 1_556 S
C1012 C1013 1.373 . S
C1012 C1014 1.389 . S
C1013 H992 0.950 . S
C1013 C1012 1.373 . S
C1013 C1029 1.377 . S
C1014 C1012 1.389 . S
C1014 C1015 1.524 . S
C1014 C1028 1.377 . S
C1015 C1014 1.524 . S
C1015 C1016 1.438 . S
C1015 C1020 1.363 . S
C1016 H993 0.928 1_556 S
C1016 C1015 1.438 . S
C1016 C1017 1.316 1_556 S
C1017 H994 0.950 . S
C1017 C1016 1.316 1_554 S
C1017 C1018 1.287 1_554 S
C1018 C1017 1.287 1_556 S
C1018 C1019 1.524 . S
C1018 H1037 0.913 1_556 S
C1019 H995 0.950 . S
C1019 C1018 1.524 . S
C1019 C1020 1.415 . S
C1020 H996 0.950 . S
C1020 C1015 1.363 . S
C1020 C1019 1.415 . S
C1021 H997 0.951 . S
C1021 C1022 1.366 . S
C1021 C1023 1.388 . S
C1022 C1021 1.366 . S
C1022 C1026 1.385 . S
C1023 H998 0.951 . S
C1023 C1021 1.388 . S
C1023 C1024 1.366 . S
C1024 C1023 1.366 . S
C1024 C1025 1.414 . S
C1024 C1027 1.499 . S
C1025 H999 0.950 . S
C1025 C1024 1.414 . S
C1025 C1026 1.374 . S
C1026 H1000 0.950 . S
C1026 C1022 1.385 . S
C1026 C1025 1.374 . S
C1027 C1024 1.499 . S
C1027 C1028 1.373 . S
C1027 C1029 1.389 . S
C1028 H1001 0.950 . S
C1028 C1014 1.377 . S
C1028 C1027 1.373 . S
C1029 C1013 1.377 . S
C1029 C1027 1.389 . S
C1029 C1030 1.524 . S
C1030 C1029 1.524 . S
C1030 C1031 1.397 . S
C1030 C1035 1.363 . S
C1031 H1002 0.950 . S
C1031 C1030 1.397 . S
C1031 C1032 1.334 . S
C1032 H1003 0.950 . S
C1032 C1031 1.334 . S
C1032 C1033 1.287 . S
C1033 C1032 1.287 . S
C1033 C1034 1.524 . S
C1033 H1036 0.999 . S
C1034 H1004 0.950 . S
C1034 C1033 1.524 . S
C1034 C1035 1.415 . S
C1035 H1005 0.950 . S
C1035 C1030 1.363 . S
C1035 C1034 1.415 . S
H1036 C1033 0.999 . S
H1037 C1018 0.913 1_554 S
H1038 C1056 0.951 . S
H1039 C1058 0.951 . S
H1040 C1060 0.950 . S
H1041 C1061 0.950 . S
H1042 C1063 0.950 . S
H1043 C1066 0.950 . S
H1044 C1067 0.950 . S
H1045 C1069 0.950 . S
H1046 C1070 0.950 . S
H1047 C1071 0.951 . S
H1048 C1073 0.951 . S
H1049 C1075 0.950 . S
H1050 C1076 0.950 . S
H1051 C1078 0.950 . S
H1052 C1081 0.950 . S
H1053 C1082 0.950 . S
H1054 C1084 0.950 . S
H1055 C1085 0.950 . S
C1056 H1038 0.951 . S
C1056 C1057 1.366 . S
C1056 C1058 1.388 . S
C1057 C1056 1.366 . S
C1057 C1061 1.385 . S
C1058 H1039 0.951 . S
C1058 C1056 1.388 . S
C1058 C1059 1.366 . S
C1059 C1058 1.366 . S
C1059 C1060 1.414 . S
C1059 C1062 1.499 . S
C1060 H1040 0.950 . S
C1060 C1059 1.414 . S
C1060 C1061 1.374 . S
C1061 H1041 0.950 . S
C1061 C1057 1.385 . S
C1061 C1060 1.374 . S
C1062 C1059 1.499 . S
C1062 C1063 1.373 . S
C1062 C1064 1.389 . S
C1063 H1042 0.950 . S
C1063 C1062 1.373 . S
C1063 C1079 1.377 . S
C1064 C1062 1.389 . S
C1064 C1065 1.524 . S
C1064 C1078 1.377 . S
C1065 C1064 1.524 . S
C1065 C1066 1.397 . S
C1065 C1070 1.363 . S
C1066 H1043 0.950 . S
C1066 C1065 1.397 . S
C1066 C1067 1.334 . S
C1067 H1044 0.950 . S
C1067 C1066 1.334 . S
C1067 C1068 1.287 . S
C1068 C1067 1.287 . S
C1068 C1069 1.524 . S
C1068 H1087 0.913 . S
C1069 H1045 0.950 . S
C1069 C1068 1.524 . S
C1069 C1070 1.415 . S
C1070 H1046 0.950 . S
C1070 C1065 1.363 . S
C1070 C1069 1.415 . S
C1071 H1047 0.951 . S
C1071 C1072 1.366 . S
C1071 C1073 1.388 . S
C1072 C1071 1.366 . S
C1072 C1076 1.385 . S
C1073 H1048 0.951 . S
C1073 C1071 1.388 . S
C1073 C1074 1.366 . S
C1074 C1073 1.366 . S
C1074 C1075 1.414 . S
C1074 C1077 1.499 . S
C1075 H1049 0.950 . S
C1075 C1074 1.414 . S
C1075 C1076 1.374 . S
C1076 H1050 0.950 . S
C1076 C1072 1.385 . S
C1076 C1075 1.374 . S
C1077 C1074 1.499 . S
C1077 C1078 1.373 . S
C1077 C1079 1.389 . S
C1078 H1051 0.950 . S
C1078 C1064 1.377 . S
C1078 C1077 1.373 . S
C1079 C1063 1.377 . S
C1079 C1077 1.389 . S
C1079 C1080 1.524 . S
C1080 C1079 1.524 . S
C1080 C1081 1.397 . S
C1080 C1085 1.363 . S
C1081 H1052 0.950 . S
C1081 C1080 1.397 . S
C1081 C1082 1.334 . S
C1082 H1053 0.950 . S
C1082 C1081 1.334 . S
C1082 C1083 1.287 . S
C1083 C1082 1.287 . S
C1083 C1084 1.524 . S
C1083 H1086 0.999 . S
C1084 H1054 0.950 . S
C1084 C1083 1.524 . S
C1084 C1085 1.415 . S
C1085 H1055 0.950 . S
C1085 C1080 1.363 . S
C1085 C1084 1.415 . S
H1086 C1083 0.999 . S
H1087 C1068 0.913 . S
H1088 C1106 0.951 . S
H1089 C1108 0.951 1_556 S
H1090 C1110 0.950 . S
H1091 C1111 0.950 . S
H1092 C1113 0.950 . S
H1093 C1116 0.950 . S
H1094 C1117 0.950 . S
H1095 C1119 0.950 . S
H1096 C1120 0.950 . S
H1097 C1121 0.951 . S
H1098 C1123 0.951 . S
H1099 C1125 0.950 . S
H1100 C1126 0.950 . S
H1101 C1128 0.950 . S
H1102 C1131 0.950 . S
H1103 C1132 0.950 . S
H1104 C1134 0.950 . S
H1105 C1135 0.950 . S
C1106 H1088 0.951 . S
C1106 C1107 1.366 . S
C1106 C1108 1.388 . S
C1107 C1106 1.366 . S
C1107 C1111 1.385 . S
C1108 H1089 0.951 1_554 S
C1108 C1106 1.388 . S
C1108 C1109 1.366 . S
C1109 C1108 1.366 . S
C1109 C1110 1.414 . S
C1109 C1112 1.499 1_554 S
C1110 H1090 0.950 . S
C1110 C1109 1.414 . S
C1110 C1111 1.374 . S
C1111 H1091 0.950 . S
C1111 C1107 1.385 . S
C1111 C1110 1.374 . S
C1112 C1109 1.499 1_556 S
C1112 C1113 1.373 . S
C1112 C1114 1.389 . S
C1113 H1092 0.950 . S
C1113 C1112 1.373 . S
C1113 C1129 1.377 . S
C1114 C1112 1.389 . S
C1114 C1115 1.524 . S
C1114 C1128 1.377 . S
C1115 C1114 1.524 . S
C1115 C1116 1.397 . S
C1115 C1120 1.363 . S
C1116 H1093 0.950 . S
C1116 C1115 1.397 . S
C1116 C1117 1.334 . S
C1117 H1094 0.950 . S
C1117 C1116 1.334 . S
C1117 C1118 1.287 . S
C1118 C1117 1.287 . S
C1118 C1119 1.524 . S
C1118 H1137 0.913 . S
C1119 H1095 0.950 . S
C1119 C1118 1.524 . S
C1119 C1120 1.415 . S
C1120 H1096 0.950 . S
C1120 C1115 1.363 . S
C1120 C1119 1.415 . S
C1121 H1097 0.951 . S
C1121 C1122 1.366 . S
C1121 C1123 1.388 . S
C1122 C1121 1.366 . S
C1122 C1126 1.385 . S
C1123 H1098 0.951 . S
C1123 C1121 1.388 . S
C1123 C1124 1.366 . S
C1124 C1123 1.366 . S
C1124 C1125 1.414 . S
C1124 C1127 1.499 . S
C1125 H1099 0.950 . S
C1125 C1124 1.414 . S
C1125 C1126 1.374 . S
C1126 H1100 0.950 . S
C1126 C1122 1.385 . S
C1126 C1125 1.374 . S
C1127 C1124 1.499 . S
C1127 C1128 1.373 . S
C1127 C1129 1.389 . S
C1128 H1101 0.950 . S
C1128 C1114 1.377 . S
C1128 C1127 1.373 . S
C1129 C1113 1.377 . S
C1129 C1127 1.389 . S
C1129 C1130 1.524 . S
C1130 C1129 1.524 . S
C1130 C1131 1.397 . S
C1130 C1135 1.363 . S
C1131 H1102 0.950 . S
C1131 C1130 1.397 . S
C1131 C1132 1.334 . S
C1132 H1103 0.950 . S
C1132 C1131 1.334 . S
C1132 C1133 1.287 . S
C1133 C1132 1.287 . S
C1133 C1134 1.524 . S
C1133 H1136 0.999 . S
C1134 H1104 0.950 . S
C1134 C1133 1.524 . S
C1134 C1135 1.415 . S
C1135 H1105 0.950 . S
C1135 C1130 1.363 . S
C1135 C1134 1.415 . S
H1136 C1133 0.999 . S
H1137 C1118 0.913 . S
H1138 C1156 0.951 . S
H1139 C1158 0.951 . S
H1140 C1160 0.950 . S
H1141 C1161 0.950 . S
H1142 C1163 0.950 . S
H1143 C1166 0.950 . S
H1144 C1167 0.950 . S
H1145 C1169 0.950 . S
H1146 C1170 0.950 . S
H1147 C1171 0.951 . S
H1148 C1173 0.951 . S
H1149 C1175 0.950 . S
H1150 C1176 0.950 . S
H1151 C1178 0.950 . S
H1152 C1181 0.950 . S
H1153 C1182 0.950 . S
H1154 C1184 0.950 . S
H1155 C1185 0.950 . S
C1156 H1138 0.951 . S
C1156 C1157 1.366 . S
C1156 C1158 1.388 . S
C1157 C1156 1.366 . S
C1157 C1161 1.385 . S
C1158 H1139 0.951 . S
C1158 C1156 1.388 . S
C1158 C1159 1.366 . S
C1159 C1158 1.366 . S
C1159 C1160 1.414 . S
C1159 C1162 1.499 . S
C1160 H1140 0.950 . S
C1160 C1159 1.414 . S
C1160 C1161 1.374 . S
C1161 H1141 0.950 . S
C1161 C1157 1.385 . S
C1161 C1160 1.374 . S
C1162 C1159 1.499 . S
C1162 C1163 1.373 . S
C1162 C1164 1.389 . S
C1163 H1142 0.950 . S
C1163 C1162 1.373 . S
C1163 C1179 1.377 . S
C1164 C1162 1.389 . S
C1164 C1165 1.524 . S
C1164 C1178 1.377 . S
C1165 C1164 1.524 . S
C1165 C1166 1.397 . S
C1165 C1170 1.363 . S
C1166 H1143 0.950 . S
C1166 C1165 1.397 . S
C1166 C1167 1.334 . S
C1167 H1144 0.950 . S
C1167 C1166 1.334 . S
C1167 C1168 1.287 . S
C1168 C1167 1.287 . S
C1168 C1169 1.524 . S
C1168 H1187 0.913 . S
C1169 H1145 0.950 . S
C1169 C1168 1.524 . S
C1169 C1170 1.415 . S
C1170 H1146 0.950 . S
C1170 C1165 1.363 . S
C1170 C1169 1.415 . S
C1171 H1147 0.951 . S
C1171 C1172 1.366 . S
C1171 C1173 1.388 . S
C1172 C1171 1.366 . S
C1172 C1176 1.385 . S
C1173 H1148 0.951 . S
C1173 C1171 1.388 . S
C1173 C1174 1.366 . S
C1174 C1173 1.366 . S
C1174 C1175 1.414 . S
C1174 C1177 1.499 . S
C1175 H1149 0.950 . S
C1175 C1174 1.414 . S
C1175 C1176 1.374 . S
C1176 H1150 0.950 . S
C1176 C1172 1.385 . S
C1176 C1175 1.374 . S
C1177 C1174 1.499 . S
C1177 C1178 1.373 . S
C1177 C1179 1.389 . S
C1178 H1151 0.950 . S
C1178 C1164 1.377 . S
C1178 C1177 1.373 . S
C1179 C1163 1.377 . S
C1179 C1177 1.389 . S
C1179 C1180 1.524 . S
C1180 C1179 1.524 . S
C1180 C1181 1.397 . S
C1180 C1185 1.363 . S
C1181 H1152 0.950 . S
C1181 C1180 1.397 . S
C1181 C1182 1.334 . S
C1182 H1153 0.950 . S
C1182 C1181 1.334 . S
C1182 C1183 1.287 . S
C1183 C1182 1.287 . S
C1183 C1184 1.524 . S
C1183 H1186 0.999 . S
C1184 H1154 0.950 . S
C1184 C1183 1.524 . S
C1184 C1185 1.415 . S
C1185 H1155 0.950 . S
C1185 C1180 1.363 . S
C1185 C1184 1.415 . S
H1186 C1183 0.999 . S
H1187 C1168 0.913 . S
H1188 C1206 0.951 . S
H1189 C1208 0.951 . S
H1190 C1210 0.977 . S
H1191 C1211 0.950 . S
H1192 C1213 0.950 . S
H1193 C1216 0.950 . S
H1194 C1217 0.950 . S
H1195 C1219 0.950 . S
H1196 C1220 0.929 1_554 S
H1197 C1221 0.951 . S
H1198 C1223 0.951 . S
H1199 C1225 0.950 . S
H1200 C1226 0.950 . S
H1201 C1228 0.950 . S
H1202 C1231 0.950 . S
H1203 C1232 0.950 . S
H1204 C1234 0.950 . S
H1205 C1235 0.950 . S
C1206 H1188 0.951 . S
C1206 C1207 1.366 . S
C1206 C1208 1.388 . S
C1207 C1206 1.366 . S
C1207 C1211 1.385 . S
C1208 H1189 0.951 . S
C1208 C1206 1.388 . S
C1208 C1209 1.366 . S
C1209 C1208 1.366 . S
C1209 C1210 1.414 . S
C1209 C1212 1.499 1_556 S
C1210 H1190 0.977 . S
C1210 C1209 1.414 . S
C1210 C1211 1.374 . S
C1211 H1191 0.950 . S
C1211 C1207 1.385 . S
C1211 C1210 1.374 . S
C1212 C1209 1.499 1_554 S
C1212 C1213 1.373 . S
C1212 C1214 1.389 . S
C1213 H1192 0.950 . S
C1213 C1212 1.373 . S
C1213 C1229 1.377 . S
C1214 C1212 1.389 . S
C1214 C1215 1.544 . S
C1214 C1228 1.377 . S
C1215 C1214 1.544 . S
C1215 C1216 1.380 1_554 S
C1215 C1220 1.361 1_554 S
C1216 H1193 0.950 . S
C1216 C1215 1.380 1_556 S
C1216 C1217 1.334 . S
C1217 H1194 0.950 . S
C1217 C1216 1.334 . S
C1217 C1218 1.287 . S
C1218 C1217 1.287 . S
C1218 C1219 1.524 . S
C1218 H1237 0.913 . S
C1219 H1195 0.950 . S
C1219 C1218 1.524 . S
C1219 C1220 1.438 . S
C1220 H1196 0.929 1_556 S
C1220 C1215 1.361 1_556 S
C1220 C1219 1.438 . S
C1221 H1197 0.951 . S
C1221 C1222 1.366 . S
C1221 C1223 1.388 . S
C1222 C1221 1.366 . S
C1222 C1226 1.385 . S
C1223 H1198 0.951 . S
C1223 C1221 1.388 . S
C1223 C1224 1.366 . S
C1224 C1223 1.366 . S
C1224 C1225 1.414 . S
C1224 C1227 1.499 . S
C1225 H1199 0.950 . S
C1225 C1224 1.414 . S
C1225 C1226 1.374 . S
C1226 H1200 0.950 . S
C1226 C1222 1.385 . S
C1226 C1225 1.374 . S
C1227 C1224 1.499 . S
C1227 C1228 1.373 . S
C1227 C1229 1.389 . S
C1228 H1201 0.950 . S
C1228 C1214 1.377 . S
C1228 C1227 1.373 . S
C1229 C1213 1.377 . S
C1229 C1227 1.389 . S
C1229 C1230 1.524 . S
C1230 C1229 1.524 . S
C1230 C1231 1.397 . S
C1230 C1235 1.363 . S
C1231 H1202 0.950 . S
C1231 C1230 1.397 . S
C1231 C1232 1.334 . S
C1232 H1203 0.950 . S
C1232 C1231 1.334 . S
C1232 C1233 1.287 . S
C1233 C1232 1.287 . S
C1233 C1234 1.524 . S
C1233 H1236 0.999 . S
C1234 H1204 0.950 . S
C1234 C1233 1.524 . S
C1234 C1235 1.415 . S
C1235 H1205 0.950 . S
C1235 C1230 1.363 . S
C1235 C1234 1.415 . S
H1236 C1233 0.999 . S
H1237 C1218 0.913 . S
H1238 C1256 0.951 . S
H1239 C1258 0.951 . S
H1240 C1260 0.950 . S
H1241 C1261 0.950 . S
H1242 C1263 0.950 . S
H1243 C1266 0.950 . S
H1244 C1267 0.950 . S
H1245 C1269 0.950 . S
H1246 C1270 0.950 . S
H1247 C1271 0.951 . S
H1248 C1273 0.951 . S
H1249 C1275 0.950 . S
H1250 C1276 0.950 . S
H1251 C1278 0.950 . S
H1252 C1281 0.950 . S
H1253 C1282 0.950 . S
H1254 C1284 0.950 . S
H1255 C1285 0.950 . S
C1256 H1238 0.951 . S
C1256 C1257 1.366 . S
C1256 C1258 1.388 . S
C1257 C1256 1.366 . S
C1257 C1261 1.385 . S
C1258 H1239 0.951 . S
C1258 C1256 1.388 . S
C1258 C1259 1.366 . S
C1259 C1258 1.366 . S
C1259 C1260 1.414 . S
C1259 C1262 1.499 . S
C1260 H1240 0.950 . S
C1260 C1259 1.414 . S
C1260 C1261 1.374 . S
C1261 H1241 0.950 . S
C1261 C1257 1.385 . S
C1261 C1260 1.374 . S
C1262 C1259 1.499 . S
C1262 C1263 1.373 . S
C1262 C1264 1.389 . S
C1263 H1242 0.950 . S
C1263 C1262 1.373 . S
C1263 C1279 1.377 . S
C1264 C1262 1.389 . S
C1264 C1265 1.524 . S
C1264 C1278 1.377 . S
C1265 C1264 1.524 . S
C1265 C1266 1.397 . S
C1265 C1270 1.363 . S
C1266 H1243 0.950 . S
C1266 C1265 1.397 . S
C1266 C1267 1.334 . S
C1267 H1244 0.950 . S
C1267 C1266 1.334 . S
C1267 C1268 1.287 . S
C1268 C1267 1.287 . S
C1268 C1269 1.524 . S
C1268 H1287 0.913 . S
C1269 H1245 0.950 . S
C1269 C1268 1.524 . S
C1269 C1270 1.415 . S
C1270 H1246 0.950 . S
C1270 C1265 1.363 . S
C1270 C1269 1.415 . S
C1271 H1247 0.951 . S
C1271 C1272 1.366 . S
C1271 C1273 1.388 . S
C1272 C1271 1.366 . S
C1272 C1276 1.385 . S
C1273 H1248 0.951 . S
C1273 C1271 1.388 . S
C1273 C1274 1.366 . S
C1274 C1273 1.366 . S
C1274 C1275 1.414 . S
C1274 C1277 1.499 . S
C1275 H1249 0.950 . S
C1275 C1274 1.414 . S
C1275 C1276 1.374 . S
C1276 H1250 0.950 . S
C1276 C1272 1.385 . S
C1276 C1275 1.374 . S
C1277 C1274 1.499 . S
C1277 C1278 1.373 . S
C1277 C1279 1.389 . S
C1278 H1251 0.950 . S
C1278 C1264 1.377 . S
C1278 C1277 1.373 . S
C1279 C1263 1.377 . S
C1279 C1277 1.389 . S
C1279 C1280 1.524 . S
C1280 C1279 1.524 . S
C1280 C1281 1.397 . S
C1280 C1285 1.363 . S
C1281 H1252 0.950 . S
C1281 C1280 1.397 . S
C1281 C1282 1.334 . S
C1282 H1253 0.950 . S
C1282 C1281 1.334 . S
C1282 C1283 1.287 . S
C1283 C1282 1.287 . S
C1283 C1284 1.524 . S
C1283 H1286 0.999 . S
C1284 H1254 0.950 . S
C1284 C1283 1.524 . S
C1284 C1285 1.415 . S
C1285 H1255 0.950 . S
C1285 C1280 1.363 . S
C1285 C1284 1.415 . S
H1286 C1283 0.999 . S
H1287 C1268 0.913 . S
H1288 C1306 0.951 . S
H1289 C1308 0.951 . S
H1290 C1310 0.950 . S
H1291 C1311 0.950 . S
H1292 C1313 0.950 . S
H1293 C1316 0.950 . S
H1294 C1317 0.950 . S
H1295 C1319 0.950 1_655 S
H1296 C1320 0.950 . S
H1297 C1321 0.951 . S
H1298 C1323 0.951 . S
H1299 C1325 0.950 . S
H1300 C1326 0.950 . S
H1301 C1328 0.950 . S
H1302 C1331 0.950 . S
H1303 C1332 0.950 . S
H1304 C1334 0.950 . S
H1305 C1335 0.950 . S
C1306 H1288 0.951 . S
C1306 C1307 1.366 . S
C1306 C1308 1.388 . S
C1307 C1306 1.366 . S
C1307 C1311 1.385 . S
C1308 H1289 0.951 . S
C1308 C1306 1.388 . S
C1308 C1309 1.366 . S
C1309 C1308 1.366 . S
C1309 C1310 1.414 . S
C1309 C1312 1.499 . S
C1310 H1290 0.950 . S
C1310 C1309 1.414 . S
C1310 C1311 1.374 . S
C1311 H1291 0.950 . S
C1311 C1307 1.385 . S
C1311 C1310 1.374 . S
C1312 C1309 1.499 . S
C1312 C1313 1.373 . S
C1312 C1314 1.389 . S
C1313 H1292 0.950 . S
C1313 C1312 1.373 . S
C1313 C1329 1.377 . S
C1314 C1312 1.389 . S
C1314 C1315 1.524 . S
C1314 C1328 1.377 . S
C1315 C1314 1.524 . S
C1315 C1316 1.397 . S
C1315 C1320 1.363 . S
C1316 H1293 0.950 . S
C1316 C1315 1.397 . S
C1316 C1317 1.334 . S
C1317 H1294 0.950 . S
C1317 C1316 1.334 . S
C1317 C1318 1.287 . S
C1318 C1317 1.287 . S
C1318 C1319 1.524 . S
C1318 H1337 0.913 . S
C1319 H1295 0.950 1_455 S
C1319 C1318 1.524 . S
C1319 C1320 1.415 . S
C1320 H1296 0.950 . S
C1320 C1315 1.363 . S
C1320 C1319 1.415 . S
C1321 H1297 0.951 . S
C1321 C1322 1.366 . S
C1321 C1323 1.388 . S
C1322 C1321 1.366 . S
C1322 C1326 1.385 . S
C1323 H1298 0.951 . S
C1323 C1321 1.388 . S
C1323 C1324 1.366 . S
C1324 C1323 1.366 . S
C1324 C1325 1.414 . S
C1324 C1327 1.499 . S
C1325 H1299 0.950 . S
C1325 C1324 1.414 . S
C1325 C1326 1.374 . S
C1326 H1300 0.950 . S
C1326 C1322 1.385 . S
C1326 C1325 1.374 . S
C1327 C1324 1.499 . S
C1327 C1328 1.373 . S
C1327 C1329 1.389 . S
C1328 H1301 0.950 . S
C1328 C1314 1.377 . S
C1328 C1327 1.373 . S
C1329 C1313 1.377 . S
C1329 C1327 1.389 . S
C1329 C1330 1.524 . S
C1330 C1329 1.524 . S
C1330 C1331 1.397 . S
C1330 C1335 1.363 . S
C1331 H1302 0.950 . S
C1331 C1330 1.397 . S
C1331 C1332 1.334 . S
C1332 H1303 0.950 . S
C1332 C1331 1.334 . S
C1332 C1333 1.287 . S
C1333 C1332 1.287 . S
C1333 C1334 1.524 . S
C1333 H1336 0.999 . S
C1334 H1304 0.950 . S
C1334 C1333 1.524 . S
C1334 C1335 1.415 . S
C1335 H1305 0.950 . S
C1335 C1330 1.363 . S
C1335 C1334 1.415 . S
H1336 C1333 0.999 . S
H1337 C1318 0.913 . S
H1338 C1356 0.951 . S
H1339 C1358 0.951 . S
H1340 C1360 0.950 . S
H1341 C1361 0.950 . S
H1342 C1363 0.950 . S
H1343 C1366 0.950 . S
H1344 C1367 0.950 . S
H1345 C1369 0.950 . S
H1346 C1370 0.950 . S
H1347 C1371 0.951 . S
H1348 C1373 0.951 . S
H1349 C1375 0.950 . S
H1350 C1376 0.950 . S
H1351 C1378 0.950 . S
H1352 C1381 0.950 . S
H1353 C1382 0.950 . S
H1354 C1384 0.950 . S
H1355 C1385 0.950 . S
C1356 H1338 0.951 . S
C1356 C1357 1.366 . S
C1356 C1358 1.388 . S
C1357 C1356 1.366 . S
C1357 C1361 1.385 . S
C1358 H1339 0.951 . S
C1358 C1356 1.388 . S
C1358 C1359 1.366 . S
C1359 C1358 1.366 . S
C1359 C1360 1.414 . S
C1359 C1362 1.499 . S
C1360 H1340 0.950 . S
C1360 C1359 1.414 . S
C1360 C1361 1.374 . S
C1361 H1341 0.950 . S
C1361 C1357 1.385 . S
C1361 C1360 1.374 . S
C1362 C1359 1.499 . S
C1362 C1363 1.373 . S
C1362 C1364 1.389 . S
C1363 H1342 0.950 . S
C1363 C1362 1.373 . S
C1363 C1379 1.377 . S
C1364 C1362 1.389 . S
C1364 C1365 1.524 . S
C1364 C1378 1.377 . S
C1365 C1364 1.524 . S
C1365 C1366 1.397 . S
C1365 C1370 1.363 . S
C1366 H1343 0.950 . S
C1366 C1365 1.397 . S
C1366 C1367 1.334 . S
C1367 H1344 0.950 . S
C1367 C1366 1.334 . S
C1367 C1368 1.287 . S
C1368 C1367 1.287 . S
C1368 C1369 1.524 . S
C1368 H1387 0.913 . S
C1369 H1345 0.950 . S
C1369 C1368 1.524 . S
C1369 C1370 1.415 . S
C1370 H1346 0.950 . S
C1370 C1365 1.363 . S
C1370 C1369 1.415 . S
C1371 H1347 0.951 . S
C1371 C1372 1.366 . S
C1371 C1373 1.388 . S
C1372 C1371 1.366 . S
C1372 C1376 1.385 . S
C1373 H1348 0.951 . S
C1373 C1371 1.388 . S
C1373 C1374 1.366 . S
C1374 C1373 1.366 . S
C1374 C1375 1.414 . S
C1374 C1377 1.499 . S
C1375 H1349 0.950 . S
C1375 C1374 1.414 . S
C1375 C1376 1.374 . S
C1376 H1350 0.950 . S
C1376 C1372 1.385 . S
C1376 C1375 1.374 . S
C1377 C1374 1.499 . S
C1377 C1378 1.373 . S
C1377 C1379 1.389 . S
C1378 H1351 0.950 . S
C1378 C1364 1.377 . S
C1378 C1377 1.373 . S
C1379 C1363 1.377 . S
C1379 C1377 1.389 . S
C1379 C1380 1.524 . S
C1380 C1379 1.524 . S
C1380 C1381 1.397 . S
C1380 C1385 1.363 . S
C1381 H1352 0.950 . S
C1381 C1380 1.397 . S
C1381 C1382 1.334 . S
C1382 H1353 0.950 . S
C1382 C1381 1.334 . S
C1382 C1383 1.287 . S
C1383 C1382 1.287 . S
C1383 C1384 1.524 . S
C1383 H1386 0.999 . S
C1384 H1354 0.950 . S
C1384 C1383 1.524 . S
C1384 C1385 1.415 . S
C1385 H1355 0.950 . S
C1385 C1380 1.363 . S
C1385 C1384 1.415 . S
H1386 C1383 0.999 . S
H1387 C1368 0.913 . S
H1388 C1406 0.951 . S
H1389 C1408 0.951 . S
H1390 C1410 0.950 . S
H1391 C1411 0.950 . S
H1392 C1413 0.950 . S
H1393 C1416 0.950 . S
H1394 C1417 0.950 . S
H1395 C1419 0.950 . S
H1396 C1420 0.950 . S
H1397 C1421 0.951 . S
H1398 C1423 0.951 . S
H1399 C1425 0.950 . S
H1400 C1426 0.950 . S
H1401 C1428 0.950 . S
H1402 C1431 0.950 . S
H1403 C1432 0.950 . S
H1404 C1434 0.950 . S
H1405 C1435 0.950 . S
C1406 H1388 0.951 . S
C1406 C1407 1.366 . S
C1406 C1408 1.388 . S
C1407 C1406 1.366 . S
C1407 C1411 1.385 . S
C1408 H1389 0.951 . S
C1408 C1406 1.388 . S
C1408 C1409 1.366 . S
C1409 C1408 1.366 . S
C1409 C1410 1.414 . S
C1409 C1412 1.499 . S
C1410 H1390 0.950 . S
C1410 C1409 1.414 . S
C1410 C1411 1.374 . S
C1411 H1391 0.950 . S
C1411 C1407 1.385 . S
C1411 C1410 1.374 . S
C1412 C1409 1.499 . S
C1412 C1413 1.373 . S
C1412 C1414 1.389 . S
C1413 H1392 0.950 . S
C1413 C1412 1.373 . S
C1413 C1429 1.377 . S
C1414 C1412 1.389 . S
C1414 C1415 1.524 . S
C1414 C1428 1.377 . S
C1415 C1414 1.524 . S
C1415 C1416 1.397 . S
C1415 C1420 1.363 . S
C1416 H1393 0.950 . S
C1416 C1415 1.397 . S
C1416 C1417 1.334 . S
C1417 H1394 0.950 . S
C1417 C1416 1.334 . S
C1417 C1418 1.287 . S
C1418 C1417 1.287 . S
C1418 C1419 1.524 . S
C1418 H1437 0.913 . S
C1419 H1395 0.950 . S
C1419 C1418 1.524 . S
C1419 C1420 1.415 . S
C1420 H1396 0.950 . S
C1420 C1415 1.363 . S
C1420 C1419 1.415 . S
C1421 H1397 0.951 . S
C1421 C1422 1.366 . S
C1421 C1423 1.388 . S
C1422 C1421 1.366 . S
C1422 C1426 1.385 . S
C1423 H1398 0.951 . S
C1423 C1421 1.388 . S
C1423 C1424 1.366 . S
C1424 C1423 1.366 . S
C1424 C1425 1.414 . S
C1424 C1427 1.499 . S
C1425 H1399 0.950 . S
C1425 C1424 1.414 . S
C1425 C1426 1.374 . S
C1426 H1400 0.950 . S
C1426 C1422 1.385 . S
C1426 C1425 1.374 . S
C1427 C1424 1.499 . S
C1427 C1428 1.373 . S
C1427 C1429 1.389 . S
C1428 H1401 0.950 . S
C1428 C1414 1.377 . S
C1428 C1427 1.373 . S
C1429 C1413 1.377 . S
C1429 C1427 1.389 . S
C1429 C1430 1.524 . S
C1430 C1429 1.524 . S
C1430 C1431 1.397 . S
C1430 C1435 1.363 . S
C1431 H1402 0.950 . S
C1431 C1430 1.397 . S
C1431 C1432 1.334 . S
C1432 H1403 0.950 . S
C1432 C1431 1.334 . S
C1432 C1433 1.287 . S
C1433 C1432 1.287 . S
C1433 C1434 1.524 . S
C1433 H1436 0.999 . S
C1434 H1404 0.950 . S
C1434 C1433 1.524 . S
C1434 C1435 1.415 . S
C1435 H1405 0.950 . S
C1435 C1430 1.363 . S
C1435 C1434 1.415 . S
H1436 C1433 0.999 . S
H1437 C1418 0.913 . S
H1438 C1456 0.951 . S
H1439 C1458 0.951 . S
H1440 C1460 0.950 . S
H1441 C1461 0.950 . S
H1442 C1463 0.950 . S
H1443 C1466 0.950 . S
H1444 C1467 0.950 . S
H1445 C1469 0.950 . S
H1446 C1470 0.950 . S
H1447 C1471 0.951 . S
H1448 C1473 0.951 . S
H1449 C1475 0.950 . S
H1450 C1476 0.950 . S
H1451 C1478 0.950 . S
H1452 C1481 0.950 . S
H1453 C1482 0.950 . S
H1454 C1484 0.950 . S
H1455 C1485 0.950 . S
C1456 H1438 0.951 . S
C1456 C1457 1.366 . S
C1456 C1458 1.388 . S
C1457 C1456 1.366 . S
C1457 C1461 1.385 . S
C1458 H1439 0.951 . S
C1458 C1456 1.388 . S
C1458 C1459 1.366 . S
C1459 C1458 1.366 . S
C1459 C1460 1.414 . S
C1459 C1462 1.499 . S
C1460 H1440 0.950 . S
C1460 C1459 1.414 . S
C1460 C1461 1.374 . S
C1461 H1441 0.950 . S
C1461 C1457 1.385 . S
C1461 C1460 1.374 . S
C1462 C1459 1.499 . S
C1462 C1463 1.373 . S
C1462 C1464 1.389 . S
C1463 H1442 0.950 . S
C1463 C1462 1.373 . S
C1463 C1479 1.377 . S
C1464 C1462 1.389 . S
C1464 C1465 1.524 . S
C1464 C1478 1.377 . S
C1465 C1464 1.524 . S
C1465 C1466 1.397 . S
C1465 C1470 1.363 . S
C1466 H1443 0.950 . S
C1466 C1465 1.397 . S
C1466 C1467 1.334 . S
C1467 H1444 0.950 . S
C1467 C1466 1.334 . S
C1467 C1468 1.287 . S
C1468 C1467 1.287 . S
C1468 C1469 1.524 . S
C1468 H1487 0.913 . S
C1469 H1445 0.950 . S
C1469 C1468 1.524 . S
C1469 C1470 1.415 . S
C1470 H1446 0.950 . S
C1470 C1465 1.363 . S
C1470 C1469 1.415 . S
C1471 H1447 0.951 . S
C1471 C1472 1.366 . S
C1471 C1473 1.388 . S
C1472 C1471 1.366 . S
C1472 C1476 1.385 . S
C1473 H1448 0.951 . S
C1473 C1471 1.388 . S
C1473 C1474 1.366 . S
C1474 C1473 1.366 . S
C1474 C1475 1.414 . S
C1474 C1477 1.499 . S
C1475 H1449 0.950 . S
C1475 C1474 1.414 . S
C1475 C1476 1.374 . S
C1476 H1450 0.950 . S
C1476 C1472 1.385 . S
C1476 C1475 1.374 . S
C1477 C1474 1.499 . S
C1477 C1478 1.373 . S
C1477 C1479 1.389 . S
C1478 H1451 0.950 . S
C1478 C1464 1.377 . S
C1478 C1477 1.373 . S
C1479 C1463 1.377 . S
C1479 C1477 1.389 . S
C1479 C1480 1.524 . S
C1480 C1479 1.524 . S
C1480 C1481 1.397 . S
C1480 C1485 1.363 . S
C1481 H1452 0.950 . S
C1481 C1480 1.397 . S
C1481 C1482 1.334 . S
C1482 H1453 0.950 . S
C1482 C1481 1.334 . S
C1482 C1483 1.287 . S
C1483 C1482 1.287 . S
C1483 C1484 1.524 . S
C1483 H1486 0.999 . S
C1484 H1454 0.950 . S
C1484 C1483 1.524 . S
C1484 C1485 1.415 . S
C1485 H1455 0.950 . S
C1485 C1480 1.363 . S
C1485 C1484 1.415 . S
H1486 C1483 0.999 . S
H1487 C1468 0.913 . S
H1488 C1506 0.951 . S
H1489 C1508 0.951 . S
H1490 C1510 0.950 . S
H1491 C1511 0.950 . S
H1492 C1513 0.950 . S
H1493 C1516 0.950 . S
H1494 C1517 0.950 . S
H1495 C1519 0.950 . S
H1496 C1520 0.950 . S
H1497 C1521 0.951 . S
H1498 C1523 0.951 . S
H1499 C1525 0.950 . S
H1500 C1526 0.953 . S
H1501 C1528 0.950 . S
H1502 C1531 0.950 . S
H1503 C1532 0.950 . S
H1504 C1534 0.950 . S
H1505 C1535 0.950 . S
C1506 H1488 0.951 . S
C1506 C1507 1.366 . S
C1506 C1508 1.388 . S
C1507 C1506 1.366 . S
C1507 C1511 1.385 . S
C1508 H1489 0.951 . S
C1508 C1506 1.388 . S
C1508 C1509 1.366 . S
C1509 C1508 1.366 . S
C1509 C1510 1.414 . S
C1509 C1512 1.499 . S
C1510 H1490 0.950 . S
C1510 C1509 1.414 . S
C1510 C1511 1.374 . S
C1511 H1491 0.950 . S
C1511 C1507 1.385 . S
C1511 C1510 1.374 . S
C1512 C1509 1.499 . S
C1512 C1513 1.373 . S
C1512 C1514 1.389 . S
C1513 H1492 0.950 . S
C1513 C1512 1.373 . S
C1513 C1529 1.377 . S
C1514 C1512 1.389 . S
C1514 C1515 1.524 . S
C1514 C1528 1.377 . S
C1515 C1514 1.524 . S
C1515 C1516 1.397 . S
C1515 C1520 1.363 . S
C1516 H1493 0.950 . S
C1516 C1515 1.397 . S
C1516 C1517 1.334 . S
C1517 H1494 0.950 . S
C1517 C1516 1.334 . S
C1517 C1518 1.287 . S
C1518 C1517 1.287 . S
C1518 C1519 1.524 . S
C1518 H1537 0.913 . S
C1519 H1495 0.950 . S
C1519 C1518 1.524 . S
C1519 C1520 1.415 . S
C1520 H1496 0.950 . S
C1520 C1515 1.363 . S
C1520 C1519 1.415 . S
C1521 H1497 0.951 . S
C1521 C1522 1.366 . S
C1521 C1523 1.388 . S
C1522 C1521 1.366 . S
C1522 C1526 1.385 . S
C1523 H1498 0.951 . S
C1523 C1521 1.388 . S
C1523 C1524 1.366 . S
C1524 C1523 1.366 . S
C1524 C1525 1.414 . S
C1524 C1527 1.499 . S
C1525 H1499 0.950 . S
C1525 C1524 1.414 . S
C1525 C1526 1.374 . S
C1526 H1500 0.953 . S
C1526 C1522 1.385 . S
C1526 C1525 1.374 . S
C1527 C1524 1.499 . S
C1527 C1528 1.373 . S
C1527 C1529 1.389 . S
C1528 H1501 0.950 . S
C1528 C1514 1.377 . S
C1528 C1527 1.373 . S
C1529 C1513 1.377 . S
C1529 C1527 1.389 . S
C1529 C1530 1.524 . S
C1530 C1529 1.524 . S
C1530 C1531 1.397 . S
C1530 C1535 1.363 . S
C1531 H1502 0.950 . S
C1531 C1530 1.397 . S
C1531 C1532 1.334 . S
C1532 H1503 0.950 . S
C1532 C1531 1.334 . S
C1532 C1533 1.287 . S
C1533 C1532 1.287 . S
C1533 C1534 1.524 . S
C1533 H1536 0.999 . S
C1534 H1504 0.950 . S
C1534 C1533 1.524 . S
C1534 C1535 1.415 . S
C1535 H1505 0.950 . S
C1535 C1530 1.363 . S
C1535 C1534 1.415 . S
H1536 C1533 0.999 . S
H1537 C1518 0.913 . S
H1538 C1556 0.951 . S
H1539 C1558 0.951 . S
H1540 C1560 0.950 . S
H1541 C1561 0.950 . S
H1542 C1563 0.950 . S
H1543 C1566 0.950 . S
H1544 C1567 0.950 . S
H1545 C1569 0.950 . S
H1546 C1570 0.950 . S
H1547 C1571 0.951 . S
H1548 C1573 0.951 . S
H1549 C1575 0.950 . S
H1550 C1576 0.950 . S
H1551 C1578 0.950 . S
H1552 C1581 0.950 . S
H1553 C1582 0.950 . S
H1554 C1584 0.950 . S
H1555 C1585 0.950 . S
C1556 H1538 0.951 . S
C1556 C1557 1.366 . S
C1556 C1558 1.388 . S
C1557 C1556 1.366 . S
C1557 C1561 1.385 . S
C1558 H1539 0.951 . S
C1558 C1556 1.388 . S
C1558 C1559 1.366 . S
C1559 C1558 1.366 . S
C1559 C1560 1.414 . S
C1559 C1562 1.499 . S
C1560 H1540 0.950 . S
C1560 C1559 1.414 . S
C1560 C1561 1.374 . S
C1561 H1541 0.950 . S
C1561 C1557 1.385 . S
C1561 C1560 1.374 . S
C1562 C1559 1.499 . S
C1562 C1563 1.373 . S
C1562 C1564 1.389 . S
C1563 H1542 0.950 . S
C1563 C1562 1.373 . S
C1563 C1579 1.377 . S
C1564 C1562 1.389 . S
C1564 C1565 1.524 . S
C1564 C1578 1.377 . S
C1565 C1564 1.524 . S
C1565 C1566 1.397 . S
C1565 C1570 1.363 . S
C1566 H1543 0.950 . S
C1566 C1565 1.397 . S
C1566 C1567 1.334 . S
C1567 H1544 0.950 . S
C1567 C1566 1.334 . S
C1567 C1568 1.287 . S
C1568 C1567 1.287 . S
C1568 C1569 1.524 . S
C1568 H1587 0.913 . S
C1569 H1545 0.950 . S
C1569 C1568 1.524 . S
C1569 C1570 1.415 . S
C1570 H1546 0.950 . S
C1570 C1565 1.363 . S
C1570 C1569 1.415 . S
C1571 H1547 0.951 . S
C1571 C1572 1.366 . S
C1571 C1573 1.388 . S
C1572 C1571 1.366 . S
C1572 C1576 1.385 . S
C1573 H1548 0.951 . S
C1573 C1571 1.388 . S
C1573 C1574 1.366 . S
C1574 C1573 1.366 . S
C1574 C1575 1.414 . S
C1574 C1577 1.499 . S
C1575 H1549 0.950 . S
C1575 C1574 1.414 . S
C1575 C1576 1.374 . S
C1576 H1550 0.950 . S
C1576 C1572 1.385 . S
C1576 C1575 1.374 . S
C1577 C1574 1.499 . S
C1577 C1578 1.373 . S
C1577 C1579 1.389 . S
C1578 H1551 0.950 . S
C1578 C1564 1.377 . S
C1578 C1577 1.373 . S
C1579 C1563 1.377 . S
C1579 C1577 1.389 . S
C1579 C1580 1.524 . S
C1580 C1579 1.524 . S
C1580 C1581 1.397 . S
C1580 C1585 1.363 . S
C1581 H1552 0.950 . S
C1581 C1580 1.397 . S
C1581 C1582 1.334 . S
C1582 H1553 0.950 . S
C1582 C1581 1.334 . S
C1582 C1583 1.287 . S
C1583 C1582 1.287 . S
C1583 C1584 1.524 . S
C1583 H1586 0.999 . S
C1584 H1554 0.950 . S
C1584 C1583 1.524 . S
C1584 C1585 1.415 . S
C1585 H1555 0.950 . S
C1585 C1580 1.363 . S
C1585 C1584 1.415 . S
H1586 C1583 0.999 . S
H1587 C1568 0.913 . S
H1588 C1606 0.951 . S
H1589 C1608 0.951 . S
H1590 C1610 0.950 . S
H1591 C1611 0.950 . S
H1592 C1613 0.950 . S
H1593 C1616 0.950 . S
H1594 C1617 0.950 . S
H1595 C1619 0.950 . S
H1596 C1620 0.950 . S
H1597 C1621 0.951 . S
H1598 C1623 0.951 . S
H1599 C1625 0.950 . S
H1600 C1626 0.950 . S
H1601 C1628 0.950 . S
H1602 C1631 0.950 . S
H1603 C1632 0.950 . S
H1604 C1634 0.950 . S
H1605 C1635 0.950 . S
C1606 H1588 0.951 . S
C1606 C1607 1.366 . S
C1606 C1608 1.388 . S
C1607 C1606 1.366 . S
C1607 C1611 1.385 . S
C1608 H1589 0.951 . S
C1608 C1606 1.388 . S
C1608 C1609 1.366 . S
C1609 C1608 1.366 . S
C1609 C1610 1.414 . S
C1609 C1612 1.499 . S
C1610 H1590 0.950 . S
C1610 C1609 1.414 . S
C1610 C1611 1.374 . S
C1611 H1591 0.950 . S
C1611 C1607 1.385 . S
C1611 C1610 1.374 . S
C1612 C1609 1.499 . S
C1612 C1613 1.373 . S
C1612 C1614 1.389 . S
C1613 H1592 0.950 . S
C1613 C1612 1.373 . S
C1613 C1629 1.377 . S
C1614 C1612 1.389 . S
C1614 C1615 1.524 . S
C1614 C1628 1.377 . S
C1615 C1614 1.524 . S
C1615 C1616 1.397 . S
C1615 C1620 1.363 . S
C1616 H1593 0.950 . S
C1616 C1615 1.397 . S
C1616 C1617 1.334 . S
C1617 H1594 0.950 . S
C1617 C1616 1.334 . S
C1617 C1618 1.287 . S
C1618 C1617 1.287 . S
C1618 C1619 1.524 . S
C1618 H1637 0.913 . S
C1619 H1595 0.950 . S
C1619 C1618 1.524 . S
C1619 C1620 1.415 . S
C1620 H1596 0.950 . S
C1620 C1615 1.363 . S
C1620 C1619 1.415 . S
C1621 H1597 0.951 . S
C1621 C1622 1.366 . S
C1621 C1623 1.388 . S
C1622 C1621 1.366 . S
C1622 C1626 1.385 . S
C1623 H1598 0.951 . S
C1623 C1621 1.388 . S
C1623 C1624 1.366 . S
C1624 C1623 1.366 . S
C1624 C1625 1.414 . S
C1624 C1627 1.499 . S
C1625 H1599 0.950 . S
C1625 C1624 1.414 . S
C1625 C1626 1.374 . S
C1626 H1600 0.950 . S
C1626 C1622 1.385 . S
C1626 C1625 1.374 . S
C1627 C1624 1.499 . S
C1627 C1628 1.373 . S
C1627 C1629 1.389 . S
C1628 H1601 0.950 . S
C1628 C1614 1.377 . S
C1628 C1627 1.373 . S
C1629 C1613 1.377 . S
C1629 C1627 1.389 . S
C1629 C1630 1.524 . S
C1630 C1629 1.524 . S
C1630 C1631 1.397 . S
C1630 C1635 1.363 . S
C1631 H1602 0.950 . S
C1631 C1630 1.397 . S
C1631 C1632 1.334 . S
C1632 H1603 0.950 . S
C1632 C1631 1.334 . S
C1632 C1633 1.287 . S
C1633 C1632 1.287 . S
C1633 C1634 1.524 . S
C1633 H1636 0.999 . S
C1634 H1604 0.950 . S
C1634 C1633 1.524 . S
C1634 C1635 1.415 . S
C1635 H1605 0.950 . S
C1635 C1630 1.363 . S
C1635 C1634 1.415 . S
H1636 C1633 0.999 . S
H1637 C1618 0.913 . S
H1638 C1656 0.951 . S
H1639 C1658 0.951 . S
H1640 C1660 0.950 . S
H1641 C1661 0.950 . S
H1642 C1663 0.950 . S
H1643 C1666 0.950 . S
H1644 C1667 0.950 . S
H1645 C1669 0.950 . S
H1646 C1670 0.950 . S
H1647 C1671 0.951 . S
H1648 C1673 0.951 . S
H1649 C1675 0.950 . S
H1650 C1676 0.950 . S
H1651 C1678 0.950 . S
H1652 C1681 0.950 . S
H1653 C1682 0.930 1_655 S
H1654 C1684 0.950 . S
H1655 C1685 0.950 . S
C1656 H1638 0.951 . S
C1656 C1657 1.366 . S
C1656 C1658 1.388 . S
C1657 C1656 1.366 . S
C1657 C1661 1.385 . S
C1658 H1639 0.951 . S
C1658 C1656 1.388 . S
C1658 C1659 1.366 . S
C1659 C1658 1.366 . S
C1659 C1660 1.414 . S
C1659 C1662 1.499 . S
C1660 H1640 0.950 . S
C1660 C1659 1.414 . S
C1660 C1661 1.374 . S
C1661 H1641 0.950 . S
C1661 C1657 1.385 . S
C1661 C1660 1.374 . S
C1662 C1659 1.499 . S
C1662 C1663 1.373 . S
C1662 C1664 1.389 . S
C1663 H1642 0.950 . S
C1663 C1662 1.373 . S
C1663 C1679 1.377 . S
C1664 C1662 1.389 . S
C1664 C1665 1.524 . S
C1664 C1678 1.377 . S
C1665 C1664 1.524 . S
C1665 C1666 1.397 . S
C1665 C1670 1.363 . S
C1666 H1643 0.950 . S
C1666 C1665 1.397 . S
C1666 C1667 1.334 . S
C1667 H1644 0.950 . S
C1667 C1666 1.334 . S
C1667 C1668 1.287 . S
C1668 C1667 1.287 . S
C1668 C1669 1.524 . S
C1668 H1687 0.913 . S
C1669 H1645 0.950 . S
C1669 C1668 1.524 . S
C1669 C1670 1.415 . S
C1670 H1646 0.950 . S
C1670 C1665 1.363 . S
C1670 C1669 1.415 . S
C1671 H1647 0.951 . S
C1671 C1672 1.366 . S
C1671 C1673 1.388 . S
C1672 C1671 1.366 . S
C1672 C1676 1.385 . S
C1673 H1648 0.951 . S
C1673 C1671 1.388 . S
C1673 C1674 1.366 . S
C1674 C1673 1.366 . S
C1674 C1675 1.414 . S
C1674 C1677 1.499 . S
C1675 H1649 0.950 . S
C1675 C1674 1.414 . S
C1675 C1676 1.374 . S
C1676 H1650 0.950 . S
C1676 C1672 1.385 . S
C1676 C1675 1.374 . S
C1677 C1674 1.499 . S
C1677 C1678 1.373 . S
C1677 C1679 1.389 . S
C1678 H1651 0.950 . S
C1678 C1664 1.377 . S
C1678 C1677 1.373 . S
C1679 C1663 1.377 . S
C1679 C1677 1.389 . S
C1679 C1680 1.524 . S
C1680 C1679 1.524 . S
C1680 C1681 1.397 . S
C1680 C1685 1.363 . S
C1681 H1652 0.950 . S
C1681 C1680 1.397 . S
C1681 C1682 1.334 . S
C1682 H1653 0.930 1_455 S
C1682 C1681 1.334 . S
C1682 C1683 1.287 . S
C1683 C1682 1.287 . S
C1683 C1684 1.524 . S
C1683 H1686 0.999 . S
C1684 H1654 0.950 . S
C1684 C1683 1.524 . S
C1684 C1685 1.415 . S
C1685 H1655 0.950 . S
C1685 C1680 1.363 . S
C1685 C1684 1.415 . S
H1686 C1683 0.999 . S
H1687 C1668 0.913 . S
C507 C116 1.839 . S
C522 C226 1.830 . S
C572 C310 1.830 . S
C557 C135 1.839 . S
C622 C303 1.838 . S
C607 C78 1.833 . S
C657 C97 1.833 . S
C672 C219 1.838 . S
C722 C383 1.830 . S
C707 C40 1.840 . S
C772 C467 1.830 . S
C757 C59 1.840 . S
C807 C2 1.833 . S
C822 C460 1.838 . S
C857 C21 1.833 . S
C872 C376 1.838 . S
C922 C210 1.599 . S
C907 C25 1.767 . S
C972 C294 1.599 . S
C957 C6 1.768 . S
C1022 C305 1.517 . S
C1007 C63 1.774 . S
C1072 C221 1.516 . S
C1057 C44 1.774 . S
C1122 C389 1.598 . S
C1107 C101 1.765 . S
C1157 C82 1.765 . S
C1172 C473 1.599 . S
C1222 C462 1.517 . S
C1207 C139 1.772 . S
C1257 C120 1.772 . S
C1272 C378 1.517 . S
C1322 C208 1.542 . S
C1307 C11 1.469 . S
C1372 C292 1.542 . S
C1357 C30 1.468 . S
C1407 C49 1.462 . S
C1422 C299 1.511 . S
C1472 C215 1.510 . S
C1457 C68 1.462 . S
C1522 C387 1.542 . S
C1507 C87 1.423 . S
C1557 C106 1.423 . S
C1572 C471 1.542 . S
C1607 C125 1.421 . S
C1622 C478 1.510 . S
C1657 C144 1.421 . S
C1672 C394 1.510 . S
