# Generated by pormake.
# Topology pyr, (3,6)-cn, num edge types: 1
# Building blocks:
#     Node 0, Type 0, BuildingBlock: BETDAH_clean_linker_0, # of connection points: 3
#     Node 1, Type 0, BuildingBlock: BETDAH_clean_linker_0, # of connection points: 3
#     Node 2, Type 0, BuildingBlock: BETDAH_clean_linker_0, # of connection points: 3
#     Node 3, Type 0, BuildingBlock: BETDAH_clean_linker_0, # of connection points: 3
#     Node 4, Type 0, BuildingBlock: BETDAH_clean_linker_0, # of connection points: 3
#     Node 5, Type 0, BuildingBlock: BETDAH_clean_linker_0, # of connection points: 3
#     Node 6, Type 0, BuildingBlock: BETDAH_clean_linker_0, # of connection points: 3
#     Node 7, Type 0, BuildingBlock: BETDAH_clean_linker_0, # of connection points: 3
#     Node 8, Type 1, BuildingBlock: GEDQOX_clean_sbu_0, # of connection points: 6
#     Node 9, Type 1, BuildingBlock: GEDQOX_clean_sbu_0, # of connection points: 6
#     Node 10, Type 1, BuildingBlock: GEDQOX_clean_sbu_0, # of connection points: 6
#     Node 11, Type 1, BuildingBlock: GEDQOX_clean_sbu_0, # of connection points: 6
#     Edge 12, Type (0, 1), BuildingBlock: KIFKEQ_clean_linker_1, # of connection points: 2
#     Edge 13, Type (0, 1), BuildingBlock: KIFKEQ_clean_linker_1, # of connection points: 2
#     Edge 14, Type (0, 1), BuildingBlock: KIFKEQ_clean_linker_1, # of connection points: 2
#     Edge 15, Type (0, 1), BuildingBlock: KIFKEQ_clean_linker_1, # of connection points: 2
#     Edge 16, Type (0, 1), BuildingBlock: KIFKEQ_clean_linker_1, # of connection points: 2
#     Edge 17, Type (0, 1), BuildingBlock: KIFKEQ_clean_linker_1, # of connection points: 2
#     Edge 18, Type (0, 1), BuildingBlock: KIFKEQ_clean_linker_1, # of connection points: 2
#     Edge 19, Type (0, 1), BuildingBlock: KIFKEQ_clean_linker_1, # of connection points: 2
#     Edge 20, Type (0, 1), BuildingBlock: KIFKEQ_clean_linker_1, # of connection points: 2
#     Edge 21, Type (0, 1), BuildingBlock: KIFKEQ_clean_linker_1, # of connection points: 2
#     Edge 22, Type (0, 1), BuildingBlock: KIFKEQ_clean_linker_1, # of connection points: 2
#     Edge 23, Type (0, 1), BuildingBlock: KIFKEQ_clean_linker_1, # of connection points: 2
#     Edge 24, Type (0, 1), BuildingBlock: KIFKEQ_clean_linker_1, # of connection points: 2
#     Edge 25, Type (0, 1), BuildingBlock: KIFKEQ_clean_linker_1, # of connection points: 2
#     Edge 26, Type (0, 1), BuildingBlock: KIFKEQ_clean_linker_1, # of connection points: 2
#     Edge 27, Type (0, 1), BuildingBlock: KIFKEQ_clean_linker_1, # of connection points: 2
#     Edge 28, Type (0, 1), BuildingBlock: KIFKEQ_clean_linker_1, # of connection points: 2
#     Edge 29, Type (0, 1), BuildingBlock: KIFKEQ_clean_linker_1, # of connection points: 2
#     Edge 30, Type (0, 1), BuildingBlock: KIFKEQ_clean_linker_1, # of connection points: 2
#     Edge 31, Type (0, 1), BuildingBlock: KIFKEQ_clean_linker_1, # of connection points: 2
#     Edge 32, Type (0, 1), BuildingBlock: KIFKEQ_clean_linker_1, # of connection points: 2
#     Edge 33, Type (0, 1), BuildingBlock: KIFKEQ_clean_linker_1, # of connection points: 2
#     Edge 34, Type (0, 1), BuildingBlock: KIFKEQ_clean_linker_1, # of connection points: 2
#     Edge 35, Type (0, 1), BuildingBlock: KIFKEQ_clean_linker_1, # of connection points: 2
# Relax obj value: 0.193
# Max RMSD: 0.206
# Mean RMSD: 0.150
data_MOF--net-pyr--node1-GEDQOX_clean_sbu_0--node2-BETDAH_clean_linker_0--edge1-KIFKEQ_clean_linker_1
_symmetry_space_group_name_H-M    P1
_symmetry_Int_Tables_number       1
_symmetry_cell_setting            triclinic
loop_
_symmetry_equiv_pos_as_xyz
'x, y, z'
_cell_length_a     38.722193
_cell_length_b     38.994329
_cell_length_c     35.578189
_cell_angle_alpha  86.570185
_cell_angle_beta   88.467406
_cell_angle_gamma 88.560588
loop_
_atom_site_label
_atom_site_type_symbol
_atom_site_fract_x
_atom_site_fract_y
_atom_site_fract_z
_atom_type_partial_charge
H0 H 0.26092 0.13505 0.25533 0.0
H1 H 0.28292 0.21629 0.17155 0.0
H2 H 0.19502 0.22614 0.24637 0.0
C3 C 0.25458 0.15992 0.24172 0.0
C4 C 0.22547 0.1789 0.2549 0.0
C5 C 0.27561 0.17289 0.21136 0.0
C6 C 0.26683 0.20526 0.19432 0.0
C7 C 0.23793 0.22443 0.20628 0.0
C8 C 0.2173 0.21137 0.23685 0.0
N9 N 0.23163 0.25679 0.18653 0.0
C10 C 0.20388 0.27996 0.19027 0.0
H11 H 0.44512 0.82014 0.84537 0.0
H12 H 0.35077 0.84125 0.90772 0.0
H13 H 0.35068 0.77129 0.8196 0.0
C14 C 0.4178 0.81609 0.85064 0.0
C15 C 0.40042 0.79265 0.8296 0.0
C16 C 0.39999 0.83436 0.87847 0.0
C17 C 0.36479 0.82815 0.88581 0.0
C18 C 0.34699 0.80592 0.86437 0.0
C19 C 0.36474 0.78842 0.83618 0.0
N20 N 0.31108 0.80187 0.87134 0.0
C21 C 0.28841 0.79897 0.84221 0.0
H22 H 0.78866 0.41866 0.97359 0.0
H23 H 0.78821 0.52723 0.94398 0.0
H24 H 0.69366 0.47265 0.94359 0.0
C25 C 0.77458 0.44208 0.96505 0.0
C26 C 0.73859 0.44169 0.96006 0.0
C27 C 0.79259 0.47279 0.9586 0.0
C28 C 0.7745 0.50338 0.94862 0.0
C29 C 0.73903 0.50333 0.9432 0.0
C30 C 0.72115 0.47251 0.94854 0.0
N31 N 0.72198 0.53442 0.93126 0.0
C32 C 0.69756 0.53521 0.90346 0.0
H33 H 0.86956 0.85161 0.38759 0.0
H34 H 0.88105 0.91532 0.28531 0.0
H35 H 0.81696 0.82682 0.28843 0.0
C36 C 0.86409 0.85672 0.35803 0.0
C37 C 0.84206 0.83517 0.34016 0.0
C38 C 0.87805 0.88575 0.33862 0.0
C39 C 0.87001 0.89322 0.3007 0.0
C40 C 0.84896 0.87134 0.28206 0.0
C41 C 0.83438 0.84289 0.30223 0.0
N42 N 0.84349 0.8778 0.24292 0.0
C43 C 0.8368 0.85144 0.21966 0.0
H44 H 0.96045 0.8578 0.86214 0.0
H45 H 0.87319 0.83833 0.93662 0.0
H46 H 0.8713 0.9272 0.86003 0.0
C47 C 0.93555 0.866 0.8734 0.0
C48 C 0.9186 0.89584 0.85734 0.0
C49 C 0.91967 0.84512 0.90229 0.0
C50 C 0.88629 0.85443 0.91511 0.0
C51 C 0.86902 0.88403 0.90042 0.0
C52 C 0.88528 0.90488 0.87183 0.0
N53 N 0.83326 0.88812 0.90993 0.0
C54 C 0.81671 0.91704 0.92406 0.0
H55 H 0.72112 0.22552 0.32379 0.0
H56 H 0.69824 0.31244 0.39032 0.0
H57 H 0.63431 0.29244 0.2975 0.0
C58 C 0.70499 0.24764 0.33016 0.0
C59 C 0.67649 0.25608 0.30764 0.0
C60 C 0.71328 0.26781 0.36002 0.0
C61 C 0.69248 0.29699 0.36709 0.0
C62 C 0.66409 0.30602 0.34431 0.0
C63 C 0.65652 0.28566 0.31457 0.0
N64 N 0.64238 0.33516 0.3505 0.0
C65 C 0.64335 0.35473 0.38186 0.0
H66 H 0.30786 0.70157 0.19523 0.0
H67 H 0.27448 0.62505 0.27983 0.0
H68 H 0.36376 0.68396 0.298 0.0
C69 C 0.31124 0.68788 0.22234 0.0
C70 C 0.33849 0.69629 0.24535 0.0
C71 C 0.2883 0.66181 0.2343 0.0
C72 C 0.29243 0.64465 0.26976 0.0
C73 C 0.31936 0.65244 0.29276 0.0
C74 C 0.34252 0.67814 0.28043 0.0
N75 N 0.32224 0.6339 0.32811 0.0
C76 C 0.35011 0.63616 0.35145 0.0
H77 H 0.26707 0.22151 0.72388 0.0
H78 H 0.27736 0.26124 0.83264 0.0
H79 H 0.20964 0.17751 0.81958 0.0
C80 C 0.25996 0.22093 0.75356 0.0
C81 C 0.236 0.19693 0.76846 0.0
C82 C 0.27433 0.24478 0.77624 0.0
C83 C 0.26638 0.24289 0.81498 0.0
C84 C 0.2434 0.21826 0.83078 0.0
C85 C 0.22846 0.19533 0.80743 0.0
N86 N 0.23342 0.2174 0.86955 0.0
C87 C 0.23676 0.24575 0.89094 0.0
Nd88 Nd 0.08089 1.01077 0.54558 0.0
Nd89 Nd 0.03779 0.07296 0.55554 0.0
C90 C 0.10656 0.9478 0.53982 0.0
C91 C 0.11821 0.92028 0.56712 0.0
C92 C 0.15166 0.90612 0.56326 0.0
C93 C 0.16526 0.88397 0.59175 0.0
C94 C 0.14558 0.87551 0.62467 0.0
C95 C 0.11134 0.88823 0.62747 0.0
C96 C 0.09781 0.91048 0.59903 0.0
C97 C 0.11233 0.05822 0.58654 0.0
C98 C 1.0284 1.0126 0.62043 0.0
C99 C 1.00835 0.13478 0.55963 0.0
C100 C 0.98162 0.15291 0.53705 0.0
C101 C 0.97427 0.18793 0.54071 0.0
C102 C 0.9475 0.20443 0.52034 0.0
C103 C 0.92759 0.18602 0.49617 0.0
C104 C 0.93551 0.15093 0.49247 0.0
C105 C 0.96236 0.13466 0.51246 0.0
C106 C 1.00683 0.02591 0.5133 0.0
C107 C 0.09443 0.07249 0.48465 0.0
O108 O 0.07339 0.95522 0.53931 0.0
O109 O 0.12552 0.97513 0.53738 0.0
O110 O 0.12841 0.04028 0.56178 0.0
O111 O 0.08116 0.05011 0.59015 0.0
O112 O 0.04494 0.99312 0.59627 0.0
O113 O 1.0266 0.04626 0.61385 0.0
O114 O 0.03808 0.1295 0.54249 0.0
O115 O 0.9979 0.10758 0.57943 0.0
O116 O 0.99042 0.04427 0.53728 0.0
O117 O 0.03798 0.03401 0.51059 0.0
O118 O 0.07908 0.09143 0.51022 0.0
O119 O 0.09348 0.03869 0.48864 0.0
H120 H 0.16786 0.91343 0.53893 0.0
H121 H 0.19183 0.87499 0.58881 0.0
H122 H 0.0953 0.88179 0.65217 0.0
H123 H 0.07185 0.9209 0.60267 0.0
H124 H 0.989 0.20241 0.55952 0.0
H125 H 0.94243 0.23154 0.52354 0.0
H126 H 0.92042 0.13565 0.47483 0.0
H127 H 0.96766 0.10757 0.50926 0.0
Nd128 Nd 0.56193 0.02586 0.10291 0.0
Nd129 Nd 0.54743 0.07827 0.04604 0.0
C130 C 0.57433 0.96769 0.14302 0.0
C131 C 0.55423 0.93645 0.15257 0.0
C132 C 0.54424 0.915 0.12457 0.0
C133 C 0.52268 0.88734 0.13366 0.0
C134 C 0.51071 0.88045 0.17096 0.0
C135 C 0.52157 0.90135 0.19908 0.0
C136 C 0.54315 0.92897 0.18998 0.0
C137 C 0.50327 0.06458 0.12053 0.0
C138 C 0.51438 1.00751 1.03213 0.0
C139 C 0.53514 0.13709 1.0072 0.0
C140 C 0.55578 0.16802 0.99872 0.0
C141 C 0.54135 0.20054 1.00516 0.0
C142 C 0.5614 0.22987 1.00001 0.0
C143 C 0.59631 0.22726 0.98813 0.0
C144 C 0.61048 0.19462 0.98109 0.0
C145 C 0.59052 0.16531 0.98654 0.0
C146 C 0.6055 0.03934 1.02757 0.0
C147 C 0.59454 0.09641 0.11723 0.0
O148 O 0.58476 0.9731 0.10796 0.0
O149 O 0.56278 0.99573 0.1578 0.0
O150 O 0.52741 0.05579 0.14387 0.0
O151 O 0.5103 0.05321 0.0886 0.0
O152 O 0.53717 0.99591 0.05693 0.0
O153 O 0.50839 0.04074 1.0266 0.0
O154 O 0.52536 0.13148 1.04239 0.0
O155 O 0.54573 0.10906 0.99169 0.0
O156 O 0.58143 0.04903 1.0045 0.0
O157 O 0.59901 0.05048 0.0598 0.0
O158 O 0.57131 0.10788 0.0929 0.0
O159 O 0.60126 0.06327 0.12189 0.0
H160 H 0.55259 0.91985 0.0955 0.0
H161 H 0.51531 0.87142 0.11142 0.0
H162 H 0.51257 0.89703 0.22802 0.0
H163 H 0.5505 0.94506 0.2121 0.0
H164 H 0.51473 0.20317 1.01495 0.0
H165 H 0.54973 0.25447 1.00628 0.0
H166 H 0.63707 0.19165 0.97137 0.0
H167 H 0.60246 0.1405 0.98166 0.0
Nd168 Nd 0.51431 0.56515 0.6136 0.0
Nd169 Nd 0.58069 0.60438 0.60004 0.0
C170 C 0.4503 0.5434 0.62151 0.0
C171 C 0.43286 0.51172 0.63434 0.0
C172 C 0.40079 0.5141 0.6532 0.0
C173 C 0.38454 0.48448 0.66774 0.0
C174 C 0.40004 0.45186 0.66351 0.0
C175 C 0.4322 0.44961 0.6443 0.0
C176 C 0.44857 0.47934 0.62997 0.0
C177 C 0.56317 0.55072 0.66708 0.0
C178 C 0.51932 0.64139 0.64298 0.0
C179 C 0.64428 0.62757 0.5957 0.0
C180 C 0.66939 0.63718 0.56554 0.0
C181 C 0.70455 0.63821 0.57346 0.0
C182 C 0.72808 0.65129 0.5461 0.0
C183 C 0.71669 0.66385 0.51049 0.0
C184 C 0.68156 0.66111 0.50221 0.0
C185 C 0.65817 0.64774 0.52944 0.0
C186 C 0.53259 0.61738 0.54525 0.0
C187 C 0.57528 0.52553 0.56973 0.0
O188 O 0.46599 0.55881 0.64759 0.0
O189 O 0.46808 0.54312 0.58971 0.0
O190 O 0.54265 0.52786 0.65574 0.0
O191 O 0.55597 0.57995 0.65214 0.0
O192 O 0.50014 0.62176 0.62345 0.0
O193 O 0.55284 0.63517 0.64488 0.0
O194 O 0.63756 0.59489 0.60099 0.0
O195 O 0.61663 0.64743 0.59735 0.0
O196 O 0.55337 0.64051 0.5553 0.0
O197 O 0.53977 0.58882 0.56147 0.0
O198 O 0.59542 0.55083 0.57823 0.0
O199 O 0.54183 0.52603 0.57783 0.0
H200 H 0.38856 0.53896 0.65723 0.0
H201 H 0.36012 0.48723 0.68296 0.0
H202 H 0.44466 0.4249 0.64018 0.0
H203 H 0.47356 0.47705 0.61578 0.0
H204 H 0.71364 0.62989 0.60114 0.0
H205 H 0.75504 0.65238 0.55318 0.0
H206 H 0.6717 0.67085 0.47535 0.0
H207 H 0.63106 0.64696 0.52278 0.0
Nd208 Nd 1.0227 0.55474 0.07885 0.0
Nd209 Nd 0.08854 0.5661 1.03052 0.0
C210 C 0.95729 0.54986 0.10066 0.0
C211 C 0.92844 0.57523 0.10089 0.0
C212 C 0.92212 0.59756 0.06918 0.0
C213 C 0.89968 0.62595 0.07203 0.0
C214 C 0.88317 0.63247 0.1066 0.0
C215 C 0.88747 0.60856 0.13745 0.0
C216 C 0.90994 0.5802 0.13459 0.0
C217 C 0.07357 0.58775 0.11297 0.0
C218 C 1.02991 0.62531 1.02057 0.0
C219 C 0.15287 0.56825 1.00448 0.0
C220 C 0.17905 0.54053 0.99986 0.0
C221 C 0.18851 0.51825 1.03062 0.0
C222 C 0.2065 0.48745 1.02473 0.0
C223 C 0.2155 0.47847 0.98801 0.0
C224 C 0.20868 0.50224 0.95763 0.0
C225 C 0.19065 0.53299 0.96354 0.0
C226 C 0.03743 0.53071 0.9988 0.0
C227 C 0.08259 0.49697 0.09101 0.0
O228 O 0.96894 0.54113 0.06758 0.0
O229 O 0.98205 0.555 0.12391 0.0
O230 O 0.05321 0.566 0.13091 0.0
O231 O 0.06522 0.59308 0.07909 0.0
O232 O 1.00948 0.60318 1.03958 0.0
O233 O 0.06351 0.61908 1.01697 0.0
O234 O 0.14399 0.5752 1.03904 0.0
O235 O 0.12629 0.56735 0.98262 0.0
O236 O 0.05528 0.55397 0.97994 0.0
O237 O 0.0474 0.52684 1.03201 0.0
O238 O 0.10269 0.51912 0.07153 0.0
O239 O 0.04882 0.50251 0.09404 0.0
H240 H 0.93585 0.59422 1.04268 0.0
H241 H 0.89653 0.6437 0.04769 0.0
H242 H 0.87538 0.61299 0.16459 0.0
H243 H 0.91444 0.5633 0.15936 0.0
H244 H 0.1804 0.52362 0.05905 0.0
H245 H 0.21193 0.46996 0.04877 0.0
H246 H 0.21503 0.49606 0.92895 0.0
H247 H 0.18375 0.5498 0.9394 0.0
H248 H 0.2022 0.21123 0.31776 0.0
H249 H 0.20025 0.114 0.26634 0.0
H250 H 0.17074 0.18654 0.37293 0.0
H251 H 0.16757 0.08956 0.32038 0.0
H252 H 0.14059 0.04261 0.4363 0.0
H253 H 0.17118 0.06881 0.38192 0.0
H254 H 0.11976 0.16616 0.401 0.0
H255 H 0.09042 0.13998 0.45679 0.0
C256 C 0.19457 0.18468 0.318 0.0
C257 C 0.20404 0.16457 0.28765 0.0
C258 C 0.17634 0.17042 0.3497 0.0
C259 C 0.16656 0.1357 0.35182 0.0
C260 C 0.17526 0.11602 0.32076 0.0
C261 C 0.1939 0.13012 0.28942 0.0
C262 C 0.13577 0.06963 0.42896 0.0
C263 C 0.1129 0.08907 0.45109 0.0
C264 C 0.15321 0.08475 0.39734 0.0
C265 C 0.14802 0.11981 0.38626 0.0
C266 C 0.12506 0.13928 0.40854 0.0
C267 C 0.10795 0.12419 0.44058 0.0
H268 H 0.46501 0.83053 0.90778 0.0
H269 H 0.37476 0.89743 0.89671 0.0
H270 H 0.4928 0.87312 0.94362 0.0
H271 H 0.40176 0.93913 0.93396 0.0
H272 H 0.47365 1.02127 0.97096 0.0
H273 H 0.44718 0.97996 0.93235 0.0
H274 H 0.48804 0.89649 1.00469 0.0
H275 H 0.51512 0.93763 1.04254 0.0
C276 C 0.45114 0.85433 0.91289 0.0
C277 C 0.41758 0.86044 0.89957 0.0
C278 C 0.46689 0.87859 0.93383 0.0
C279 C 0.44943 0.9095 0.94191 0.0
C280 C 0.4161 0.91579 0.92803 0.0
C281 C 0.40043 0.89163 0.90707 0.0
C282 C 0.47684 0.99411 0.97869 0.0
C283 C 0.49657 0.98277 1.00979 0.0
C284 C 0.46161 0.9704 0.95661 0.0
C285 C 0.46563 0.93484 0.96526 0.0
C286 C 0.48497 0.92361 0.99672 0.0
C287 C 0.5003 0.94727 1.01864 0.0
H288 H 0.65524 0.58668 0.87821 0.0
H289 H 0.69135 0.48389 0.85743 0.0
H290 H 0.62196 0.58865 0.82054 0.0
H291 H 0.65874 0.48581 0.7992 0.0
H292 H 0.56899 0.49357 0.71512 0.0
H293 H 0.60003 0.48831 0.77432 0.0
H294 H 0.63637 0.59177 0.75334 0.0
H295 H 0.60498 0.59716 0.69485 0.0
C296 C 0.65567 0.56445 0.8613 0.0
C297 C 0.67546 0.53514 0.87177 0.0
C298 C 0.63697 0.56561 0.82824 0.0
C299 C 0.63804 0.53749 0.80514 0.0
C300 C 0.65721 0.50774 0.81652 0.0
C301 C 0.67588 0.50664 0.84964 0.0
C302 C 0.58386 0.51501 0.72314 0.0
C303 C 0.58441 0.54585 0.7007 0.0
C304 C 0.60163 0.51202 0.75694 0.0
C305 C 0.62021 0.53982 0.76872 0.0
C306 C 0.6216 0.5702 0.74549 0.0
C307 C 0.60387 0.57319 0.71185 0.0
H308 H 0.82631 0.78656 0.24676 0.0
H309 H 0.84067 0.84935 0.14382 0.0
H310 H 0.82812 0.73526 0.21165 0.0
H311 H 0.84221 0.79744 0.10787 0.0
H312 H 0.90526 0.69579 0.0816 0.0
H313 H 0.88492 0.75092 0.10288 0.0
H314 H 0.80179 0.70091 0.16643 0.0
H315 H 0.82252 0.64541 0.14535 0.0
C316 C 0.82886 0.78946 0.21643 0.0
C317 C 0.83317 0.8218 0.19788 0.0
C318 C 0.82972 0.75996 0.19615 0.0
C319 C 0.83517 0.76218 0.15686 0.0
C320 C 0.83812 0.79487 0.13813 0.0
C321 C 0.83713 0.82451 0.15857 0.0
C322 C 0.88193 0.69662 0.09906 0.0
C323 C 0.86579 0.66617 0.11229 0.0
C324 C 0.87022 0.72834 0.11127 0.0
C325 C 0.84208 0.73025 0.13688 0.0
C326 C 0.82402 0.70015 0.14733 0.0
C327 C 0.83584 0.6684 0.13526 0.0
H328 H 0.32285 0.133 0.25262 0.0
H329 H 0.3005 0.16873 0.13842 0.0
H330 H 0.37589 0.10512 0.23028 0.0
H331 H 0.35446 0.14295 0.11646 0.0
H332 H 0.44263 0.07059 0.08158 0.0
H333 H 0.38668 0.09348 0.10338 0.0
H334 H 0.43191 0.11695 0.20834 0.0
H335 H 0.48706 0.09284 0.187 0.0
C336 C 0.32904 0.13484 0.22272 0.0
C337 C 0.30719 0.15357 0.19755 0.0
C338 C 0.35994 0.11923 0.20987 0.0
C339 C 0.37015 0.12196 0.17142 0.0
C340 C 0.34775 0.13988 0.14617 0.0
C341 C 0.3168 0.15522 0.15897 0.0
C342 C 0.44051 0.08066 0.10929 0.0
C343 C 0.46932 0.07977 0.13256 0.0
C344 C 0.4084 0.09398 0.12185 0.0
C345 C 0.40428 0.10711 0.15791 0.0
C346 C 0.43345 0.10648 0.18083 0.0
C347 C 0.46535 0.0929 0.16842 0.0
H348 H 0.21889 0.79985 0.84553 0.0
H349 H 0.30707 0.80264 0.76895 0.0
H350 H 0.1803 0.81105 0.79246 0.0
H351 H 0.26889 0.81448 0.71582 0.0
H352 H 0.19086 0.82008 0.62411 0.0
H353 H 0.22308 0.79409 0.67712 0.0
H354 H 0.16969 0.86234 0.75163 0.0
H355 H 0.13784 0.88832 0.69901 0.0
C356 C 0.22981 0.80225 0.81716 0.0
C357 C 0.26562 0.8004 0.8109 0.0
C358 C 0.20787 0.80886 0.78687 0.0
C359 C 0.22154 0.81388 0.74994 0.0
C360 C 0.25748 0.81032 0.7438 0.0
C361 C 0.27936 0.80371 0.77412 0.0
C362 C 0.18583 0.82931 0.65189 0.0
C363 C 0.16186 0.85639 0.65726 0.0
C364 C 0.20425 0.8144 0.68222 0.0
C365 C 0.19902 0.82621 0.71856 0.0
C366 C 0.17396 0.85222 0.72415 0.0
C367 C 0.15564 0.86714 0.69389 0.0
H368 H 0.8386 0.4903 0.90264 0.0
H369 H 0.83116 0.45804 1.02053 0.0
H370 H 0.90045 0.49892 0.90798 0.0
H371 H 0.89265 0.46828 1.02679 0.0
H372 H 1.00746 0.47235 1.02645 0.0
H373 H 0.9502 0.45229 1.01316 0.0
H374 H 0.93598 0.5392 0.93315 0.0
H375 H 0.99402 0.55799 0.94524 0.0
C376 C 0.85048 0.48481 0.92964 0.0
C377 C 0.83046 0.47354 0.96121 0.0
C378 C 0.88576 0.49004 0.93284 0.0
C379 C 0.9016 0.48472 0.96789 0.0
C380 C 0.88156 0.47219 0.9992 0.0
C381 C 0.84633 0.46641 0.99579 0.0
C382 C 0.99223 0.48667 1.00545 0.0
C383 C 1.00495 0.51664 0.9868 0.0
C384 C 0.95931 0.47541 0.9981 0.0
C385 C 0.93817 0.49428 0.97239 0.0
C386 C 0.95161 0.52366 0.95271 0.0
C387 C 0.98484 0.53458 0.95965 0.0
H388 H 0.87338 0.79022 0.39147 0.0
H389 H 0.77603 0.81194 0.33718 0.0
H390 H 0.8468 0.74393 0.43043 0.0
H391 H 0.74986 0.76514 0.37549 0.0
H392 H 0.71925 0.66306 0.43321 0.0
H393 H 0.75241 0.70057 0.38904 0.0
H394 H 0.80111 0.7444 0.48219 0.0
H395 H 0.76747 0.70791 0.52631 0.0
C396 C 0.84637 0.78508 0.38774 0.0
C397 C 0.82674 0.80506 0.36147 0.0
C398 C 0.83125 0.75846 0.40991 0.0
C399 C 0.79629 0.75102 0.406 0.0
C400 C 0.777 0.77003 0.37874 0.0
C401 C 0.79202 0.79685 0.35679 0.0
C402 C 0.73712 0.68061 0.44428 0.0
C403 C 0.74043 0.68262 0.48338 0.0
C404 C 0.75614 0.70197 0.41897 0.0
C405 C 0.77917 0.72546 0.43223 0.0
C406 C 0.78383 0.72624 0.47116 0.0
C407 C 0.76459 0.70518 0.49646 0.0
H408 H 0.14194 0.28376 0.15601 0.0
H409 H 0.21633 0.34417 0.20895 0.0
H410 H 0.11059 0.33653 0.13447 0.0
H411 H 0.18517 0.39691 0.18781 0.0
H412 H 0.15134 0.48037 0.09864 0.0
H413 H 0.17752 0.42785 0.12665 0.0
H414 H 0.07616 0.38782 0.1526 0.0
H415 H 0.04983 0.44047 0.124 0.0
C416 C 0.15091 0.30833 0.164 0.0
C417 C 0.18117 0.30998 0.18461 0.0
C418 C 0.13308 0.33859 0.15156 0.0
C419 C 0.14549 0.37112 0.15903 0.0
C420 C 0.1751 0.37243 0.18103 0.0
C421 C 0.19271 0.34221 0.19361 0.0
C422 C 0.13453 0.46046 0.11023 0.0
C423 C 0.09841 0.46485 0.10886 0.0
C424 C 0.1496 0.43034 0.12668 0.0
C425 C 0.12902 0.40351 0.14221 0.0
C426 C 0.09285 0.40779 0.14078 0.0
C427 C 0.07774 0.43812 0.12451 0.0
H428 H 0.67438 0.43336 0.99283 0.0
H429 H 0.75845 0.37669 0.94099 0.0
H430 H 0.64065 0.38137 0.99915 0.0
H431 H 0.7248 0.32442 0.94824 0.0
H432 H 0.66436 0.233 1.00608 0.0
H433 H 0.69964 0.28406 0.99959 0.0
H434 H 0.61266 0.34317 0.95499 0.0
H435 H 0.57752 0.29204 0.96046 0.0
C436 C 0.68566 0.40986 0.98265 0.0
C437 C 0.71906 0.40934 0.96609 0.0
C438 C 0.66631 0.38007 0.98634 0.0
C439 C 0.67999 0.34892 0.97393 0.0
C440 C 0.7137 0.34805 0.95829 0.0
C441 C 0.733 0.37797 0.95428 0.0
C442 C 0.65283 0.25673 0.99434 0.0
C443 C 0.61801 0.25832 0.9838 0.0
C444 C 0.67307 0.28599 0.99077 0.0
C445 C 0.65887 0.3176 0.97694 0.0
C446 C 0.62416 0.31924 0.96627 0.0
C447 C 0.60401 0.28994 0.96952 0.0
H448 H 0.93437 0.86631 0.37935 0.0
H449 H 0.87224 0.95519 0.34365 0.0
H450 H 0.96753 0.90168 0.41913 0.0
H451 H 0.90546 0.99072 0.38354 0.0
H452 H 0.93787 1.02294 0.50179 0.0
H453 H 0.90921 0.99092 0.45512 0.0
H454 H 1.0083 0.95217 0.41562 0.0
H455 H 0.03708 0.98447 0.46229 0.0
C456 C 0.92817 0.89355 0.37972 0.0
C457 C 0.90072 0.90809 0.35868 0.0
C458 C 0.94722 0.91377 0.40227 0.0
C459 C 0.93888 0.94884 0.40455 0.0
C460 C 0.91218 0.96365 0.38249 0.0
C461 C 0.8934 0.94347 0.3595 0.0
C462 C 0.95351 1.00761 0.48311 0.0
C463 C 0.98964 1.00607 0.4856 0.0
C464 C 0.93715 0.98956 0.45621 0.0
C465 C 0.95659 0.9693 0.43164 0.0
C466 C 0.99274 0.96759 0.43429 0.0
C467 C 1.00916 0.98603 0.46091 0.0
H468 H 0.39132 0.7254 0.81544 0.0
H469 H 0.45234 0.81325 0.77928 0.0
H470 H 0.41999 0.69212 0.76759 0.0
H471 H 0.48182 0.77927 0.73185 0.0
H472 H 0.55027 0.68781 0.68537 0.0
H473 H 0.52211 0.72652 0.72901 0.0
H474 H 0.4223 0.69282 0.69693 0.0
H475 H 0.4502 0.65421 0.65347 0.0
C476 C 0.41064 0.73777 0.79709 0.0
C477 C 0.41918 0.77221 0.80104 0.0
C478 C 0.42713 0.71861 0.7697 0.0
C479 C 0.45289 0.7332 0.74573 0.0
C480 C 0.46211 0.76735 0.75005 0.0
C481 C 0.44531 0.78672 0.77732 0.0
C482 C 0.5223 0.68898 0.68728 0.0
C483 C 0.5025 0.66772 0.66612 0.0
C484 C 0.50621 0.71124 0.71218 0.0
C485 C 0.47004 0.7124 0.71665 0.0
C486 C 0.45026 0.69208 0.69447 0.0
C487 C 0.46628 0.67011 0.6694 0.0
H488 H 0.88652 0.9303 0.79685 0.0
H489 H 0.98796 0.90685 0.84092 0.0
H490 H 0.91306 0.95969 0.74139 0.0
H491 H 1.01419 0.93471 0.78441 0.0
H492 H 0.04445 0.95006 0.65616 0.0
H493 H 1.01835 0.92373 0.71393 0.0
H494 H 0.95014 1.01222 0.72279 0.0
H495 H 0.97661 0.03883 0.66525 0.0
C496 C 0.9144 0.93162 0.79522 0.0
C497 C 0.93482 0.91578 0.82393 0.0
C498 C 0.92964 0.94838 0.76306 0.0
C499 C 0.96579 0.94937 0.7582 0.0
C500 C 0.98627 0.934 0.78691 0.0
C501 C 0.97107 0.9178 0.81938 0.0
C502 C 1.02388 0.96393 0.67035 0.0
C503 C 1.01263 0.99658 0.65587 0.0
C504 C 1.00905 0.94891 0.70367 0.0
C505 C 0.98208 0.96581 0.72308 0.0
C506 C 0.97068 0.99837 0.70848 0.0
C507 C 0.98599 1.0137 0.67557 0.0
H508 H 0.67132 0.18645 0.31347 0.0
H509 H 0.66043 0.27419 0.23451 0.0
H510 H 0.65443 0.1487 0.26547 0.0
H511 H 0.64467 0.23636 0.18575 0.0
H512 H 0.57725 0.16402 0.12391 0.0
H513 H 0.59897 0.2027 0.16823 0.0
H514 H 0.67087 0.12331 0.20916 0.0
H515 H 0.6479 0.08403 0.16573 0.0
C516 C 0.66578 0.19758 0.28558 0.0
C517 C 0.66712 0.23326 0.27773 0.0
C518 C 0.65628 0.17591 0.25792 0.0
C519 C 0.64822 0.18933 0.22152 0.0
C520 C 0.6501 0.22508 0.21357 0.0
C521 C 0.65922 0.24681 0.24144 0.0
C522 C 0.59791 0.15485 0.14213 0.0
C523 C 0.61067 0.12081 0.14146 0.0
C524 C 0.61056 0.17719 0.16749 0.0
C525 C 0.63661 0.16622 0.1926 0.0
C526 C 0.65029 0.13251 0.19086 0.0
C527 C 0.63733 0.11001 0.16574 0.0
H528 H 0.36099 0.68196 0.4034 0.0
H529 H 0.40318 0.59084 0.35475 0.0
H530 H 0.40751 0.67937 0.44907 0.0
H531 H 0.45001 0.58829 0.39976 0.0
H532 H 0.49451 0.56816 0.51703 0.0
H533 H 0.45208 0.57491 0.46785 0.0
H534 H 0.47117 0.68378 0.45576 0.0
H535 H 0.51363 0.67699 0.5058 0.0
C536 C 0.3806 0.66169 0.40233 0.0
C537 C 0.37882 0.63647 0.3761 0.0
C538 C 0.40723 0.66027 0.4282 0.0
C539 C 0.43224 0.63348 0.42814 0.0
C540 C 0.43082 0.60893 0.40084 0.0
C541 C 0.40424 0.61042 0.37503 0.0
C542 C 0.48969 0.59355 0.50388 0.0
C543 C 0.50728 0.62209 0.51515 0.0
C544 C 0.46559 0.59737 0.47549 0.0
C545 C 0.45849 0.62983 0.45775 0.0
C546 C 0.47603 0.65848 0.4691 0.0
C547 C 0.50035 0.65461 0.49755 0.0
H548 H 0.23778 0.30779 0.85502 0.0
H549 H 0.24152 0.25588 0.96535 0.0
H550 H 0.23989 0.36323 0.88298 0.0
H551 H 0.24386 0.31167 0.99386 0.0
H552 H 0.19196 0.41841 1.02146 0.0
H553 H 0.2032 0.36059 1.00135 0.0
H554 H 0.27672 0.40013 0.91719 0.0
H555 H 0.2655 0.45821 0.93738 0.0
C556 C 0.23956 0.3084 0.88532 0.0
C557 C 0.23958 0.27796 0.9082 0.0
C558 C 0.24102 0.34007 0.90134 0.0
C559 C 0.24233 0.34185 0.94064 0.0
C560 C 0.24278 0.3111 0.96352 0.0
C561 C 0.24149 0.27929 0.94734 0.0
C562 C 0.21135 0.41471 0.99945 0.0
C563 C 0.22758 0.44299 0.98071 0.0
C564 C 0.21774 0.3815 0.98789 0.0
C565 C 0.24047 0.37586 0.95733 0.0
C566 C 0.25853 0.40379 0.94035 0.0
C567 C 0.25215 0.43702 0.95192 0.0
H568 H 0.78287 0.97211 0.89073 0.0
H569 H 0.7934 0.91305 0.99618 0.0
H570 H 0.7342 1.00466 0.91756 0.0
H571 H 0.74424 0.94474 1.02305 0.0
H572 H 0.66439 1.02305 0.06803 0.0
H573 H 0.71892 0.99757 1.04459 0.0
H574 H 0.67555 0.99372 0.93435 0.0
H575 H 0.622 1.01948 0.95747 0.0
C576 C 0.77514 0.96662 0.91992 0.0
C577 C 0.79206 0.94041 0.94154 0.0
C578 C 0.74695 0.98492 0.93526 0.0
C579 C 0.73476 0.97719 0.97252 0.0
C580 C 0.75287 0.9518 0.9945 0.0
C581 C 0.7811 0.93358 0.97912 0.0
C582 C 0.66669 1.01681 1.0388 0.0
C583 C 0.63884 1.02345 1.01463 0.0
C584 C 0.69791 1.0021 1.02531 0.0
C585 C 0.70204 0.99378 0.98732 0.0
C586 C 0.67394 1.0004 0.96345 0.0
C587 C 0.64294 1.01497 0.97688 0.0
H588 H 0.73574 0.20321 0.38378 0.0
H589 H 0.76006 0.31042 0.38938 0.0
H590 H 0.78879 0.18681 0.41609 0.0
H591 H 0.81255 0.29362 0.4235 0.0
H592 H 0.88087 0.2347 0.52079 0.0
H593 H 0.82914 0.25745 0.48898 0.0
H594 H 0.85457 0.1966 0.39434 0.0
H595 H 0.90695 0.17505 0.42492 0.0
C596 C 0.75233 0.22332 0.39185 0.0
C597 C 0.74383 0.25817 0.38331 0.0
C598 C 0.78261 0.21387 0.41054 0.0
C599 C 0.8048 0.23898 0.42182 0.0
C600 C 0.79574 0.27383 0.41503 0.0
C601 C 0.76562 0.28337 0.39569 0.0
C602 C 0.87594 0.22677 0.49282 0.0
C603 C 0.89794 0.20262 0.47568 0.0
C604 C 0.84623 0.23969 0.47477 0.0
C605 C 0.83778 0.22834 0.43955 0.0
C606 C 0.8603 0.20527 0.42182 0.0
C607 C 0.89018 0.19281 0.43949 0.0
H608 H 0.24292 0.70451 0.19485 0.0
H609 H 0.26883 0.59738 0.22023 0.0
H610 H 0.19122 0.68791 0.1627 0.0
H611 H 0.21728 0.58095 0.18864 0.0
H612 H 0.10085 0.5688 0.18065 0.0
H613 H 0.15436 0.58791 0.20624 0.0
H614 H 0.17092 0.65537 0.10697 0.0
H615 H 0.117 0.63617 0.08124 0.0
C616 C 0.23791 0.67748 0.19297 0.0
C617 C 0.25959 0.65225 0.21053 0.0
C618 C 0.20833 0.668 0.17468 0.0
C619 C 0.2 0.63318 0.17381 0.0
C620 C 0.22268 0.608 0.18964 0.0
C621 C 0.25217 0.61742 0.2077 0.0
C622 C 0.11579 0.58784 0.16437 0.0
C623 C 0.10491 0.60097 0.12898 0.0
C624 C 0.14653 0.59859 0.17888 0.0
C625 C 0.16693 0.62286 0.15839 0.0
C626 C 0.15563 0.63668 0.12334 0.0
C627 C 0.12491 0.62566 0.10864 0.0
H628 H 0.26299 0.28122 0.70966 0.0
H629 H 0.33206 0.27373 0.80345 0.0
H630 H 0.29503 0.3292 0.68151 0.0
H631 H 0.36292 0.32349 0.77627 0.0
H632 H 0.42964 0.39442 0.69892 0.0
H633 H 0.40083 0.34306 0.72495 0.0
H634 H 0.30224 0.38805 0.69198 0.0
H635 H 0.33113 0.43828 0.66408 0.0
C636 C 0.28523 0.2896 0.72419 0.0
C637 C 0.29505 0.2734 0.75876 0.0
C638 C 0.30327 0.31756 0.70829 0.0
C639 C 0.33137 0.33043 0.72677 0.0
C640 C 0.34156 0.31404 0.76113 0.0
C641 C 0.32363 0.28577 0.77694 0.0
C642 C 0.40187 0.39309 0.69673 0.0
C643 C 0.3827 0.42046 0.67933 0.0
C644 C 0.38532 0.36384 0.71211 0.0
C645 C 0.34923 0.36139 0.71053 0.0
C646 C 0.33013 0.38882 0.69321 0.0
C647 C 0.34666 0.41788 0.67765 0.0
H648 H 0.89095 0.7821 0.91835 0.0
H649 H 0.98761 0.83436 0.922 0.0
H650 H 0.91787 0.73003 0.94641 0.0
H651 H 1.01469 0.78218 0.95066 0.0
H652 H 0.0603 0.67242 0.97019 0.0
H653 H 1.03461 0.7249 0.94094 0.0
H654 H 0.93938 0.70541 1.00377 0.0
H655 H 0.96486 0.65273 1.03217 0.0
C656 C 0.91794 0.78262 0.92546 0.0
C657 C 0.93695 0.81271 0.91813 0.0
C658 C 0.93345 0.75263 0.94172 0.0
C659 C 0.96853 0.75167 0.95132 0.0
C660 C 0.98775 0.78162 0.94339 0.0
C661 C 0.9722 0.81166 0.92694 0.0
C662 C 1.03388 0.67933 0.9778 0.0
C663 C 1.01461 0.65799 1.00339 0.0
C664 C 1.01914 0.70964 0.96111 0.0
C665 C 0.9847 0.71962 0.96963 0.0
C666 C 0.96567 0.69843 0.9957 0.0
C667 C 0.98036 0.66811 1.01221 0.0
H668 H 0.36776 0.70981 0.17506 0.0
H669 H 0.36442 0.74525 0.28791 0.0
H670 H 0.40963 0.75381 0.15599 0.0
H671 H 0.40643 0.78878 0.26897 0.0
H672 H 0.50998 0.83535 0.23303 0.0
H673 H 0.46809 0.79106 0.24997 0.0
H674 H 0.41409 0.81722 0.14715 0.0
H675 H 0.45575 0.86183 0.13033 0.0
C676 C 0.37568 0.72717 0.19569 0.0
C677 C 0.3629 0.72385 0.23307 0.0
C678 C 0.39972 0.7523 0.18479 0.0
C679 C 0.41156 0.77456 0.21107 0.0
C680 C 0.39835 0.77158 0.24825 0.0
C681 C 0.37427 0.74661 0.25909 0.0
C682 C 0.48907 0.83182 0.21412 0.0
C683 C 0.48619 0.85226 0.18039 0.0
C684 C 0.46508 0.80642 0.22382 0.0
C685 C 0.43768 0.80077 0.19998 0.0
C686 C 0.43513 0.82071 0.16591 0.0
C687 C 0.45906 0.84623 0.15626 0.0
H688 H 0.21414 0.21566 0.69746 0.0
H689 H 0.21443 0.13018 0.78091 0.0
H690 H 0.1853 0.18081 0.65402 0.0
H691 H 0.18341 0.0961 0.73762 0.0
H692 H 0.08927 0.07424 0.65649 0.0
H693 H 0.11971 0.10636 0.70212 0.0
H694 H 0.20526 0.1199 0.62284 0.0
H695 H 0.17534 0.08697 0.57754 0.0
C696 C 0.20845 0.18936 0.70654 0.0
C697 C 0.21733 0.17559 0.74261 0.0
C698 C 0.19162 0.16959 0.68167 0.0
C699 C 0.18245 0.13589 0.69256 0.0
C700 C 0.19029 0.12216 0.72878 0.0
C701 C 0.20786 0.14174 0.75353 0.0
C702 C 0.1146 0.08405 0.64889 0.0
C703 C 0.13006 0.07827 0.61358 0.0
C704 C 0.13201 0.10214 0.67502 0.0
C705 C 0.16473 0.11533 0.66584 0.0
C706 C 0.18002 0.10986 0.63041 0.0
C707 C 0.16296 0.09112 0.60461 0.0
H708 H 0.66198 0.42073 0.3824 0.0
H709 H 0.61705 0.3378 0.45111 0.0
H710 H 0.64959 0.46005 0.43243 0.0
H711 H 0.60506 0.37675 0.50169 0.0
H712 H 0.54313 0.46744 0.5515 0.0
H713 H 0.56434 0.42416 0.50971 0.0
H714 H 0.66184 0.4755 0.49626 0.0
H715 H 0.64035 0.51941 0.53777 0.0
C716 C 0.65012 0.41087 0.40866 0.0
C717 C 0.64042 0.3765 0.41323 0.0
C718 C 0.64314 0.43326 0.43737 0.0
C719 C 0.62615 0.42161 0.47106 0.0
C720 C 0.61775 0.38666 0.47595 0.0
C721 C 0.62479 0.36432 0.44721 0.0
C722 C 0.56925 0.4694 0.54002 0.0
C723 C 0.58991 0.49713 0.54782 0.0
C724 C 0.58152 0.44436 0.5162 0.0
C725 C 0.61478 0.44637 0.49948 0.0
C726 C 0.63594 0.47342 0.50832 0.0
C727 C 0.62369 0.49847 0.53231 0.0
loop_
_geom_bond_atom_site_label_1
_geom_bond_atom_site_label_2
_geom_bond_distance
_geom_bond_site_symmetry_2
_ccdc_geom_bond_type
H0 C3 0.929 . S
H1 C6 0.929 . S
H2 C8 0.930 . S
C3 H0 0.929 . S
C3 C4 1.398 . S
C3 C5 1.396 . S
C4 C3 1.398 . S
C4 C8 1.407 . S
C5 C3 1.396 . S
C5 C6 1.394 . S
C6 H1 0.929 . S
C6 C5 1.394 . S
C6 C7 1.382 . S
C7 C6 1.382 . S
C7 C8 1.392 . S
C7 N9 1.420 . S
C8 H2 0.930 . S
C8 C4 1.407 . S
C8 C7 1.392 . S
N9 C7 1.420 . S
N9 C10 1.244 . S
C10 N9 1.244 . S
H11 C14 0.929 . S
H12 C17 0.929 . S
H13 C19 0.930 . S
C14 H11 0.929 . S
C14 C15 1.398 . S
C14 C16 1.396 . S
C15 C14 1.398 . S
C15 C19 1.407 . S
C16 C14 1.396 . S
C16 C17 1.394 . S
C17 H12 0.929 . S
C17 C16 1.394 . S
C17 C18 1.382 . S
C18 C17 1.382 . S
C18 C19 1.392 . S
C18 N20 1.420 . S
C19 H13 0.930 . S
C19 C15 1.407 . S
C19 C18 1.392 . S
N20 C18 1.420 . S
N20 C21 1.244 . S
C21 N20 1.244 . S
H22 C25 0.929 . S
H23 C28 0.929 . S
H24 C30 0.930 . S
C25 H22 0.929 . S
C25 C26 1.398 . S
C25 C27 1.396 . S
C26 C25 1.398 . S
C26 C30 1.407 . S
C27 C25 1.396 . S
C27 C28 1.394 . S
C28 H23 0.929 . S
C28 C27 1.394 . S
C28 C29 1.382 . S
C29 C28 1.382 . S
C29 C30 1.392 . S
C29 N31 1.420 . S
C30 H24 0.930 . S
C30 C26 1.407 . S
C30 C29 1.392 . S
N31 C29 1.420 . S
N31 C32 1.244 . S
C32 N31 1.244 . S
H33 C36 0.929 . S
H34 C39 0.929 . S
H35 C41 0.930 . S
C36 H33 0.929 . S
C36 C37 1.398 . S
C36 C38 1.396 . S
C37 C36 1.398 . S
C37 C41 1.407 . S
C38 C36 1.396 . S
C38 C39 1.394 . S
C39 H34 0.929 . S
C39 C38 1.394 . S
C39 C40 1.382 . S
C40 C39 1.382 . S
C40 C41 1.392 . S
C40 N42 1.420 . S
C41 H35 0.930 . S
C41 C37 1.407 . S
C41 C40 1.392 . S
N42 C40 1.420 . S
N42 C43 1.244 . S
C43 N42 1.244 . S
H44 C47 0.929 . S
H45 C50 0.929 . S
H46 C52 0.930 . S
C47 H44 0.929 . S
C47 C48 1.398 . S
C47 C49 1.396 . S
C48 C47 1.398 . S
C48 C52 1.407 . S
C49 C47 1.396 . S
C49 C50 1.394 . S
C50 H45 0.929 . S
C50 C49 1.394 . S
C50 C51 1.382 . S
C51 C50 1.382 . S
C51 C52 1.392 . S
C51 N53 1.420 . S
C52 H46 0.930 . S
C52 C48 1.407 . S
C52 C51 1.392 . S
N53 C51 1.420 . S
N53 C54 1.244 . S
C54 N53 1.244 . S
H55 C58 0.929 . S
H56 C61 0.929 . S
H57 C63 0.930 . S
C58 H55 0.929 . S
C58 C59 1.398 . S
C58 C60 1.396 . S
C59 C58 1.398 . S
C59 C63 1.407 . S
C60 C58 1.396 . S
C60 C61 1.394 . S
C61 H56 0.929 . S
C61 C60 1.394 . S
C61 C62 1.382 . S
C62 C61 1.382 . S
C62 C63 1.392 . S
C62 N64 1.420 . S
C63 H57 0.930 . S
C63 C59 1.407 . S
C63 C62 1.392 . S
N64 C62 1.420 . S
N64 C65 1.244 . S
C65 N64 1.244 . S
H66 C69 0.929 . S
H67 C72 0.929 . S
H68 C74 0.930 . S
C69 H66 0.929 . S
C69 C70 1.398 . S
C69 C71 1.396 . S
C70 C69 1.398 . S
C70 C74 1.407 . S
C71 C69 1.396 . S
C71 C72 1.394 . S
C72 H67 0.929 . S
C72 C71 1.394 . S
C72 C73 1.382 . S
C73 C72 1.382 . S
C73 C74 1.392 . S
C73 N75 1.420 . S
C74 H68 0.930 . S
C74 C70 1.407 . S
C74 C73 1.392 . S
N75 C73 1.420 . S
N75 C76 1.244 . S
C76 N75 1.244 . S
H77 C80 0.929 . S
H78 C83 0.929 . S
H79 C85 0.930 . S
C80 H77 0.929 . S
C80 C81 1.398 . S
C80 C82 1.396 . S
C81 C80 1.398 . S
C81 C85 1.407 . S
C82 C80 1.396 . S
C82 C83 1.394 . S
C83 H78 0.929 . S
C83 C82 1.394 . S
C83 C84 1.382 . S
C84 C83 1.382 . S
C84 C85 1.392 . S
C84 N86 1.420 . S
C85 H79 0.930 . S
C85 C81 1.407 . S
C85 C84 1.392 . S
N86 C84 1.420 . S
N86 C87 1.244 . S
C87 N86 1.244 . S
Nd88 C90 2.836 . S
Nd88 O108 2.500 . S
Nd88 O109 2.492 . S
Nd88 O110 2.487 1_565 S
Nd88 O111 2.682 1_565 S
Nd88 O112 2.410 . S
Nd88 O117 2.414 1_455 S
Nd88 O119 2.424 1_565 S
Nd89 C99 2.836 . S
Nd89 O111 2.414 1_655 S
Nd89 O113 2.436 . S
Nd89 O114 2.500 . S
Nd89 O115 2.492 . S
Nd89 O116 2.487 1_545 S
Nd89 O117 2.682 1_545 S
Nd89 O118 2.410 . S
C90 Nd88 2.836 . S
C90 C91 1.498 . S
C90 O108 1.258 . S
C90 O109 1.239 . S
C91 C90 1.498 . S
C91 C92 1.366 . S
C91 C96 1.407 . S
C92 C91 1.366 . S
C92 C93 1.392 . S
C92 H120 0.930 . S
C93 C92 1.392 . S
C93 C94 1.398 . S
C93 H121 0.929 . S
C94 C93 1.398 . S
C94 C95 1.352 . S
C95 C94 1.352 . S
C95 C96 1.384 . S
C95 H122 0.930 . S
C96 C91 1.407 . S
C96 C95 1.384 . S
C96 H123 0.929 . S
C97 O110 1.241 . S
C97 O111 1.273 . S
C98 O112 1.251 1_655 S
C98 O113 1.257 1_565 S
C99 Nd89 2.836 . S
C99 C100 1.498 . S
C99 O114 1.258 . S
C99 O115 1.239 . S
C100 C99 1.498 . S
C100 C101 1.366 . S
C100 C105 1.407 . S
C101 C100 1.366 . S
C101 C102 1.392 . S
C101 H124 0.930 . S
C102 C101 1.392 . S
C102 C103 1.398 . S
C102 H125 0.929 . S
C103 C102 1.398 . S
C103 C104 1.352 . S
C104 C103 1.352 . S
C104 C105 1.384 . S
C104 H126 0.930 . S
C105 C100 1.407 . S
C105 C104 1.384 . S
C105 H127 0.929 . S
C106 O116 1.241 . S
C106 O117 1.273 . S
C107 O118 1.251 1_455 S
C107 O119 1.268 . S
O108 Nd88 2.500 . S
O108 C90 1.258 . S
O109 Nd88 2.492 . S
O109 C90 1.239 . S
O110 Nd88 2.487 1_545 S
O110 C97 1.241 . S
O111 Nd88 2.682 1_545 S
O111 Nd89 2.414 1_455 S
O111 C97 1.273 . S
O112 Nd88 2.410 . S
O112 C98 1.251 1_455 S
O113 Nd89 2.436 . S
O113 C98 1.257 1_545 S
O114 Nd89 2.500 . S
O114 C99 1.258 . S
O115 Nd89 2.492 . S
O115 C99 1.239 . S
O116 Nd89 2.487 1_565 S
O116 C106 1.241 . S
O117 Nd88 2.414 1_655 S
O117 Nd89 2.682 1_565 S
O117 C106 1.273 . S
O118 Nd89 2.410 . S
O118 C107 1.251 1_655 S
O119 Nd88 2.424 1_545 S
O119 C107 1.268 . S
H120 C92 0.930 . S
H121 C93 0.929 . S
H122 C95 0.930 . S
H123 C96 0.929 . S
H124 C101 0.930 . S
H125 C102 0.929 . S
H126 C104 0.930 . S
H127 C105 0.929 . S
Nd128 C130 2.836 . S
Nd128 O148 2.500 . S
Nd128 O149 2.492 . S
Nd128 O150 2.487 1_565 S
Nd128 O151 2.682 1_565 S
Nd128 O152 2.410 . S
Nd128 O157 2.414 1_565 S
Nd128 O159 2.424 1_565 S
Nd129 C139 2.836 1_554 S
Nd129 O151 2.414 . S
Nd129 O153 2.424 1_544 S
Nd129 O154 2.500 . S
Nd129 O155 2.492 1_554 S
Nd129 O156 2.487 . S
Nd129 O157 2.682 . S
Nd129 O158 2.410 . S
C130 Nd128 2.836 . S
C130 C131 1.498 . S
C130 O148 1.258 . S
C130 O149 1.239 . S
C131 C130 1.498 . S
C131 C132 1.366 . S
C131 C136 1.407 . S
C132 C131 1.366 . S
C132 C133 1.392 . S
C132 H160 0.930 . S
C133 C132 1.392 . S
C133 C134 1.398 . S
C133 H161 0.929 . S
C134 C133 1.398 . S
C134 C135 1.352 . S
C135 C134 1.352 . S
C135 C136 1.384 . S
C135 H162 0.930 . S
C136 C131 1.407 . S
C136 C135 1.384 . S
C136 H163 0.929 . S
C137 O150 1.241 . S
C137 O151 1.273 . S
C138 O152 1.251 . S
C138 O153 1.268 1_554 S
C139 Nd129 2.836 1_556 S
C139 C140 1.498 . S
C139 O154 1.258 1_556 S
C139 O155 1.239 . S
C140 C139 1.498 . S
C140 C141 1.366 1_556 S
C140 C145 1.407 . S
C141 C140 1.366 1_554 S
C141 C142 1.392 1_554 S
C141 H164 0.930 . S
C142 C141 1.392 1_556 S
C142 C143 1.398 . S
C142 H165 0.929 1_556 S
C143 C142 1.398 . S
C143 C144 1.352 . S
C144 C143 1.352 . S
C144 C145 1.384 . S
C144 H166 0.930 . S
C145 C140 1.407 . S
C145 C144 1.384 . S
C145 H167 0.929 . S
C146 O156 1.241 . S
C146 O157 1.273 . S
C147 O158 1.251 . S
C147 O159 1.268 . S
O148 Nd128 2.500 . S
O148 C130 1.258 . S
O149 Nd128 2.492 . S
O149 C130 1.239 . S
O150 Nd128 2.487 1_545 S
O150 C137 1.241 . S
O151 Nd128 2.682 1_545 S
O151 Nd129 2.414 . S
O151 C137 1.273 . S
O152 Nd128 2.410 . S
O152 C138 1.251 . S
O153 Nd129 2.424 1_566 S
O153 C138 1.268 1_556 S
O154 Nd129 2.500 . S
O154 C139 1.258 1_554 S
O155 Nd129 2.492 1_556 S
O155 C139 1.239 . S
O156 Nd129 2.487 . S
O156 C146 1.241 . S
O157 Nd128 2.414 1_545 S
O157 Nd129 2.682 . S
O157 C146 1.273 . S
O158 Nd129 2.410 . S
O158 C147 1.251 . S
O159 Nd128 2.424 1_545 S
O159 C147 1.268 . S
H160 C132 0.930 . S
H161 C133 0.929 . S
H162 C135 0.930 . S
H163 C136 0.929 . S
H164 C141 0.930 . S
H165 C142 0.929 1_554 S
H166 C144 0.930 . S
H167 C145 0.929 . S
Nd168 C170 2.836 . S
Nd168 O188 2.500 . S
Nd168 O189 2.492 . S
Nd168 O190 2.487 . S
Nd168 O191 2.682 . S
Nd168 O192 2.410 . S
Nd168 O197 2.414 . S
Nd168 O199 2.424 . S
Nd169 C179 2.836 . S
Nd169 O191 2.414 . S
Nd169 O193 2.424 . S
Nd169 O194 2.500 . S
Nd169 O195 2.492 . S
Nd169 O196 2.487 . S
Nd169 O197 2.682 . S
Nd169 O198 2.410 . S
C170 Nd168 2.836 . S
C170 C171 1.498 . S
C170 O188 1.258 . S
C170 O189 1.239 . S
C171 C170 1.498 . S
C171 C172 1.366 . S
C171 C176 1.407 . S
C172 C171 1.366 . S
C172 C173 1.392 . S
C172 H200 0.930 . S
C173 C172 1.392 . S
C173 C174 1.398 . S
C173 H201 0.929 . S
C174 C173 1.398 . S
C174 C175 1.352 . S
C175 C174 1.352 . S
C175 C176 1.384 . S
C175 H202 0.930 . S
C176 C171 1.407 . S
C176 C175 1.384 . S
C176 H203 0.929 . S
C177 O190 1.241 . S
C177 O191 1.273 . S
C178 O192 1.251 . S
C178 O193 1.268 . S
C179 Nd169 2.836 . S
C179 C180 1.498 . S
C179 O194 1.258 . S
C179 O195 1.239 . S
C180 C179 1.498 . S
C180 C181 1.366 . S
C180 C185 1.407 . S
C181 C180 1.366 . S
C181 C182 1.392 . S
C181 H204 0.930 . S
C182 C181 1.392 . S
C182 C183 1.398 . S
C182 H205 0.929 . S
C183 C182 1.398 . S
C183 C184 1.352 . S
C184 C183 1.352 . S
C184 C185 1.384 . S
C184 H206 0.930 . S
C185 C180 1.407 . S
C185 C184 1.384 . S
C185 H207 0.929 . S
C186 O196 1.241 . S
C186 O197 1.273 . S
C187 O198 1.251 . S
C187 O199 1.268 . S
O188 Nd168 2.500 . S
O188 C170 1.258 . S
O189 Nd168 2.492 . S
O189 C170 1.239 . S
O190 Nd168 2.487 . S
O190 C177 1.241 . S
O191 Nd168 2.682 . S
O191 Nd169 2.414 . S
O191 C177 1.273 . S
O192 Nd168 2.410 . S
O192 C178 1.251 . S
O193 Nd169 2.424 . S
O193 C178 1.268 . S
O194 Nd169 2.500 . S
O194 C179 1.258 . S
O195 Nd169 2.492 . S
O195 C179 1.239 . S
O196 Nd169 2.487 . S
O196 C186 1.241 . S
O197 Nd168 2.414 . S
O197 Nd169 2.682 . S
O197 C186 1.273 . S
O198 Nd169 2.410 . S
O198 C187 1.251 . S
O199 Nd168 2.424 . S
O199 C187 1.268 . S
H200 C172 0.930 . S
H201 C173 0.929 . S
H202 C175 0.930 . S
H203 C176 0.929 . S
H204 C181 0.930 . S
H205 C182 0.929 . S
H206 C184 0.930 . S
H207 C185 0.929 . S
Nd208 C210 2.836 1_455 S
Nd208 O228 2.500 1_455 S
Nd208 O229 2.492 . S
Nd208 O230 2.487 . S
Nd208 O231 2.682 . S
Nd208 O232 2.410 . S
Nd208 O237 2.437 1_455 S
Nd208 O239 2.424 . S
Nd209 C219 2.836 . S
Nd209 O231 2.414 1_556 S
Nd209 O233 2.424 . S
Nd209 O234 2.500 . S
Nd209 O235 2.492 . S
Nd209 O236 2.487 1_455 S
Nd209 O237 2.665 1_456 S
Nd209 O238 2.410 . S
C210 Nd208 2.836 1_655 S
C210 C211 1.498 . S
C210 O228 1.258 . S
C210 O229 1.239 1_655 S
C211 C210 1.498 . S
C211 C212 1.366 . S
C211 C216 1.407 . S
C212 C211 1.366 . S
C212 C213 1.392 . S
C212 H240 0.930 . S
C213 C212 1.392 . S
C213 C214 1.398 . S
C213 H241 0.929 . S
C214 C213 1.398 . S
C214 C215 1.352 . S
C215 C214 1.352 . S
C215 C216 1.384 . S
C215 H242 0.930 . S
C216 C211 1.407 . S
C216 C215 1.384 . S
C216 H243 0.929 1_655 S
C217 O230 1.241 . S
C217 O231 1.273 . S
C218 O232 1.251 1_556 S
C218 O233 1.268 . S
C219 Nd209 2.836 . S
C219 C220 1.498 . S
C219 O234 1.258 . S
C219 O235 1.239 . S
C220 C219 1.498 . S
C220 C221 1.366 . S
C220 C225 1.407 . S
C221 C220 1.366 . S
C221 C222 1.392 . S
C221 H244 0.930 . S
C222 C221 1.392 . S
C222 C223 1.398 . S
C222 H245 0.929 . S
C223 C222 1.398 . S
C223 C224 1.352 . S
C224 C223 1.352 . S
C224 C225 1.384 . S
C224 H246 0.930 . S
C225 C220 1.407 . S
C225 C224 1.384 . S
C225 H247 0.929 . S
C226 O236 1.241 . S
C226 O237 1.255 1_556 S
C227 O238 1.251 1_554 S
C227 O239 1.268 . S
O228 Nd208 2.500 1_655 S
O228 C210 1.258 . S
O229 Nd208 2.492 . S
O229 C210 1.239 1_455 S
O230 Nd208 2.487 . S
O230 C217 1.241 . S
O231 Nd208 2.682 . S
O231 Nd209 2.414 1_554 S
O231 C217 1.273 . S
O232 Nd208 2.410 . S
O232 C218 1.251 1_554 S
O233 Nd209 2.424 . S
O233 C218 1.268 . S
O234 Nd209 2.500 . S
O234 C219 1.258 . S
O235 Nd209 2.492 . S
O235 C219 1.239 . S
O236 Nd209 2.487 1_655 S
O236 C226 1.241 . S
O237 Nd208 2.437 1_655 S
O237 Nd209 2.665 1_654 S
O237 C226 1.255 1_554 S
O238 Nd209 2.410 . S
O238 C227 1.251 1_556 S
O239 Nd208 2.424 . S
O239 C227 1.268 . S
H240 C212 0.930 . S
H241 C213 0.929 . S
H242 C215 0.930 . S
H243 C216 0.929 1_455 S
H244 C221 0.930 . S
H245 C222 0.929 . S
H246 C224 0.930 . S
H247 C225 0.929 . S
H248 C256 0.950 . S
H249 C261 0.950 . S
H250 C258 0.950 . S
H251 C260 0.950 . S
H252 C262 0.950 . S
H253 C264 0.950 . S
H254 C266 0.950 . S
H255 C267 0.950 . S
C256 H248 0.950 . S
C256 C257 1.386 . S
C256 C258 1.391 . S
C257 C256 1.386 . S
C257 C261 1.393 . S
C258 H250 0.950 . S
C258 C256 1.391 . S
C258 C259 1.400 . S
C259 C258 1.400 . S
C259 C260 1.398 . S
C259 C265 1.491 . S
C260 H251 0.950 . S
C260 C259 1.398 . S
C260 C261 1.391 . S
C261 H249 0.950 . S
C261 C257 1.393 . S
C261 C260 1.391 . S
C262 H252 0.950 . S
C262 C263 1.386 . S
C262 C264 1.391 . S
C263 C262 1.386 . S
C263 C267 1.393 . S
C264 H253 0.950 . S
C264 C262 1.391 . S
C264 C265 1.400 . S
C265 C259 1.491 . S
C265 C264 1.400 . S
C265 C266 1.398 . S
C266 H254 0.950 . S
C266 C265 1.398 . S
C266 C267 1.391 . S
C267 H255 0.950 . S
C267 C263 1.393 . S
C267 C266 1.391 . S
H268 C276 0.950 . S
H269 C281 0.950 . S
H270 C278 0.950 . S
H271 C280 0.950 . S
H272 C282 0.950 . S
H273 C284 0.950 . S
H274 C286 0.950 . S
H275 C287 0.950 . S
C276 H268 0.950 . S
C276 C277 1.386 . S
C276 C278 1.391 . S
C277 C276 1.386 . S
C277 C281 1.393 . S
C278 H270 0.950 . S
C278 C276 1.391 . S
C278 C279 1.400 . S
C279 C278 1.400 . S
C279 C280 1.398 . S
C279 C285 1.491 . S
C280 H271 0.950 . S
C280 C279 1.398 . S
C280 C281 1.391 . S
C281 H269 0.950 . S
C281 C277 1.393 . S
C281 C280 1.391 . S
C282 H272 0.950 . S
C282 C283 1.386 . S
C282 C284 1.391 . S
C283 C282 1.386 . S
C283 C287 1.393 . S
C284 H273 0.950 . S
C284 C282 1.391 . S
C284 C285 1.400 . S
C285 C279 1.491 . S
C285 C284 1.400 . S
C285 C286 1.398 . S
C286 H274 0.950 . S
C286 C285 1.398 . S
C286 C287 1.391 . S
C287 H275 0.950 . S
C287 C283 1.393 . S
C287 C286 1.391 . S
H288 C296 0.950 . S
H289 C301 0.950 . S
H290 C298 0.950 . S
H291 C300 0.950 . S
H292 C302 0.950 . S
H293 C304 0.950 . S
H294 C306 0.950 . S
H295 C307 0.950 . S
C296 H288 0.950 . S
C296 C297 1.386 . S
C296 C298 1.391 . S
C297 C296 1.386 . S
C297 C301 1.393 . S
C298 H290 0.950 . S
C298 C296 1.391 . S
C298 C299 1.400 . S
C299 C298 1.400 . S
C299 C300 1.398 . S
C299 C305 1.491 . S
C300 H291 0.950 . S
C300 C299 1.398 . S
C300 C301 1.391 . S
C301 H289 0.950 . S
C301 C297 1.393 . S
C301 C300 1.391 . S
C302 H292 0.950 . S
C302 C303 1.386 . S
C302 C304 1.391 . S
C303 C302 1.386 . S
C303 C307 1.393 . S
C304 H293 0.950 . S
C304 C302 1.391 . S
C304 C305 1.400 . S
C305 C299 1.491 . S
C305 C304 1.400 . S
C305 C306 1.398 . S
C306 H294 0.950 . S
C306 C305 1.398 . S
C306 C307 1.391 . S
C307 H295 0.950 . S
C307 C303 1.393 . S
C307 C306 1.391 . S
H308 C316 0.950 . S
H309 C321 0.950 . S
H310 C318 0.950 . S
H311 C320 0.950 . S
H312 C322 0.950 . S
H313 C324 0.950 . S
H314 C326 0.950 . S
H315 C327 0.950 . S
C316 H308 0.950 . S
C316 C317 1.386 . S
C316 C318 1.391 . S
C317 C316 1.386 . S
C317 C321 1.393 . S
C318 H310 0.950 . S
C318 C316 1.391 . S
C318 C319 1.400 . S
C319 C318 1.400 . S
C319 C320 1.398 . S
C319 C325 1.491 . S
C320 H311 0.950 . S
C320 C319 1.398 . S
C320 C321 1.391 . S
C321 H309 0.950 . S
C321 C317 1.393 . S
C321 C320 1.391 . S
C322 H312 0.950 . S
C322 C323 1.386 . S
C322 C324 1.391 . S
C323 C322 1.386 . S
C323 C327 1.393 . S
C324 H313 0.950 . S
C324 C322 1.391 . S
C324 C325 1.400 . S
C325 C319 1.491 . S
C325 C324 1.400 . S
C325 C326 1.398 . S
C326 H314 0.950 . S
C326 C325 1.398 . S
C326 C327 1.391 . S
C327 H315 0.950 . S
C327 C323 1.393 . S
C327 C326 1.391 . S
H328 C336 0.950 . S
H329 C341 0.950 . S
H330 C338 0.950 . S
H331 C340 0.950 . S
H332 C342 0.950 . S
H333 C344 0.950 . S
H334 C346 0.950 . S
H335 C347 0.950 . S
C336 H328 0.950 . S
C336 C337 1.386 . S
C336 C338 1.391 . S
C337 C336 1.386 . S
C337 C341 1.393 . S
C338 H330 0.950 . S
C338 C336 1.391 . S
C338 C339 1.400 . S
C339 C338 1.400 . S
C339 C340 1.398 . S
C339 C345 1.491 . S
C340 H331 0.950 . S
C340 C339 1.398 . S
C340 C341 1.391 . S
C341 H329 0.950 . S
C341 C337 1.393 . S
C341 C340 1.391 . S
C342 H332 0.950 . S
C342 C343 1.386 . S
C342 C344 1.391 . S
C343 C342 1.386 . S
C343 C347 1.393 . S
C344 H333 0.950 . S
C344 C342 1.391 . S
C344 C345 1.400 . S
C345 C339 1.491 . S
C345 C344 1.400 . S
C345 C346 1.398 . S
C346 H334 0.950 . S
C346 C345 1.398 . S
C346 C347 1.391 . S
C347 H335 0.950 . S
C347 C343 1.393 . S
C347 C346 1.391 . S
H348 C356 0.950 . S
H349 C361 0.950 . S
H350 C358 0.950 . S
H351 C360 0.950 . S
H352 C362 0.950 . S
H353 C364 0.950 . S
H354 C366 0.950 . S
H355 C367 0.950 . S
C356 H348 0.950 . S
C356 C357 1.386 . S
C356 C358 1.391 . S
C357 C356 1.386 . S
C357 C361 1.393 . S
C358 H350 0.950 . S
C358 C356 1.391 . S
C358 C359 1.400 . S
C359 C358 1.400 . S
C359 C360 1.398 . S
C359 C365 1.491 . S
C360 H351 0.950 . S
C360 C359 1.398 . S
C360 C361 1.391 . S
C361 H349 0.950 . S
C361 C357 1.393 . S
C361 C360 1.391 . S
C362 H352 0.950 . S
C362 C363 1.386 . S
C362 C364 1.391 . S
C363 C362 1.386 . S
C363 C367 1.393 . S
C364 H353 0.950 . S
C364 C362 1.391 . S
C364 C365 1.400 . S
C365 C359 1.491 . S
C365 C364 1.400 . S
C365 C366 1.398 . S
C366 H354 0.950 . S
C366 C365 1.398 . S
C366 C367 1.391 . S
C367 H355 0.950 . S
C367 C363 1.393 . S
C367 C366 1.391 . S
H368 C376 0.950 . S
H369 C381 0.950 . S
H370 C378 0.950 . S
H371 C380 0.950 . S
H372 C382 0.950 1_554 S
H373 C384 0.950 . S
H374 C386 0.950 . S
H375 C387 0.950 . S
C376 H368 0.950 . S
C376 C377 1.386 . S
C376 C378 1.391 . S
C377 C376 1.386 . S
C377 C381 1.393 . S
C378 H370 0.950 . S
C378 C376 1.391 . S
C378 C379 1.400 . S
C379 C378 1.400 . S
C379 C380 1.398 . S
C379 C385 1.491 . S
C380 H371 0.950 . S
C380 C379 1.398 . S
C380 C381 1.391 . S
C381 H369 0.950 . S
C381 C377 1.393 . S
C381 C380 1.391 . S
C382 H372 0.950 1_556 S
C382 C383 1.386 . S
C382 C384 1.391 . S
C383 C382 1.386 . S
C383 C387 1.393 . S
C384 H373 0.950 . S
C384 C382 1.391 . S
C384 C385 1.400 . S
C385 C379 1.491 . S
C385 C384 1.400 . S
C385 C386 1.398 . S
C386 H374 0.950 . S
C386 C385 1.398 . S
C386 C387 1.391 . S
C387 H375 0.950 . S
C387 C383 1.393 . S
C387 C386 1.391 . S
H388 C396 0.950 . S
H389 C401 0.950 . S
H390 C398 0.950 . S
H391 C400 0.950 . S
H392 C402 0.950 . S
H393 C404 0.950 . S
H394 C406 0.950 . S
H395 C407 0.950 . S
C396 H388 0.950 . S
C396 C397 1.386 . S
C396 C398 1.391 . S
C397 C396 1.386 . S
C397 C401 1.393 . S
C398 H390 0.950 . S
C398 C396 1.391 . S
C398 C399 1.400 . S
C399 C398 1.400 . S
C399 C400 1.398 . S
C399 C405 1.491 . S
C400 H391 0.950 . S
C400 C399 1.398 . S
C400 C401 1.391 . S
C401 H389 0.950 . S
C401 C397 1.393 . S
C401 C400 1.391 . S
C402 H392 0.950 . S
C402 C403 1.386 . S
C402 C404 1.391 . S
C403 C402 1.386 . S
C403 C407 1.393 . S
C404 H393 0.950 . S
C404 C402 1.391 . S
C404 C405 1.400 . S
C405 C399 1.491 . S
C405 C404 1.400 . S
C405 C406 1.398 . S
C406 H394 0.950 . S
C406 C405 1.398 . S
C406 C407 1.391 . S
C407 H395 0.950 . S
C407 C403 1.393 . S
C407 C406 1.391 . S
H408 C416 0.950 . S
H409 C421 0.950 . S
H410 C418 0.950 . S
H411 C420 0.950 . S
H412 C422 0.950 . S
H413 C424 0.950 . S
H414 C426 0.950 . S
H415 C427 0.950 . S
C416 H408 0.950 . S
C416 C417 1.386 . S
C416 C418 1.391 . S
C417 C416 1.386 . S
C417 C421 1.393 . S
C418 H410 0.950 . S
C418 C416 1.391 . S
C418 C419 1.400 . S
C419 C418 1.400 . S
C419 C420 1.398 . S
C419 C425 1.491 . S
C420 H411 0.950 . S
C420 C419 1.398 . S
C420 C421 1.391 . S
C421 H409 0.950 . S
C421 C417 1.393 . S
C421 C420 1.391 . S
C422 H412 0.950 . S
C422 C423 1.386 . S
C422 C424 1.391 . S
C423 C422 1.386 . S
C423 C427 1.393 . S
C424 H413 0.950 . S
C424 C422 1.391 . S
C424 C425 1.400 . S
C425 C419 1.491 . S
C425 C424 1.400 . S
C425 C426 1.398 . S
C426 H414 0.950 . S
C426 C425 1.398 . S
C426 C427 1.391 . S
C427 H415 0.950 . S
C427 C423 1.393 . S
C427 C426 1.391 . S
H428 C436 0.950 . S
H429 C441 0.950 . S
H430 C438 0.950 . S
H431 C440 0.950 . S
H432 C442 0.950 . S
H433 C444 0.950 . S
H434 C446 0.950 . S
H435 C447 0.950 . S
C436 H428 0.950 . S
C436 C437 1.386 . S
C436 C438 1.391 . S
C437 C436 1.386 . S
C437 C441 1.393 . S
C438 H430 0.950 . S
C438 C436 1.391 . S
C438 C439 1.400 . S
C439 C438 1.400 . S
C439 C440 1.398 . S
C439 C445 1.491 . S
C440 H431 0.950 . S
C440 C439 1.398 . S
C440 C441 1.391 . S
C441 H429 0.950 . S
C441 C437 1.393 . S
C441 C440 1.391 . S
C442 H432 0.950 . S
C442 C443 1.386 . S
C442 C444 1.391 . S
C443 C442 1.386 . S
C443 C447 1.393 . S
C444 H433 0.950 . S
C444 C442 1.391 . S
C444 C445 1.400 . S
C445 C439 1.491 . S
C445 C444 1.400 . S
C445 C446 1.398 . S
C446 H434 0.950 . S
C446 C445 1.398 . S
C446 C447 1.391 . S
C447 H435 0.950 . S
C447 C443 1.393 . S
C447 C446 1.391 . S
H448 C456 0.950 . S
H449 C461 0.950 . S
H450 C458 0.950 . S
H451 C460 0.950 . S
H452 C462 0.950 . S
H453 C464 0.950 . S
H454 C466 0.950 . S
H455 C467 0.950 1_455 S
C456 H448 0.950 . S
C456 C457 1.386 . S
C456 C458 1.391 . S
C457 C456 1.386 . S
C457 C461 1.393 . S
C458 H450 0.950 . S
C458 C456 1.391 . S
C458 C459 1.400 . S
C459 C458 1.400 . S
C459 C460 1.398 . S
C459 C465 1.491 . S
C460 H451 0.950 . S
C460 C459 1.398 . S
C460 C461 1.391 . S
C461 H449 0.950 . S
C461 C457 1.393 . S
C461 C460 1.391 . S
C462 H452 0.950 . S
C462 C463 1.386 . S
C462 C464 1.391 . S
C463 C462 1.386 . S
C463 C467 1.393 . S
C464 H453 0.950 . S
C464 C462 1.391 . S
C464 C465 1.400 . S
C465 C459 1.491 . S
C465 C464 1.400 . S
C465 C466 1.398 . S
C466 H454 0.950 . S
C466 C465 1.398 . S
C466 C467 1.391 . S
C467 H455 0.950 1_655 S
C467 C463 1.393 . S
C467 C466 1.391 . S
H468 C476 0.950 . S
H469 C481 0.950 . S
H470 C478 0.950 . S
H471 C480 0.950 . S
H472 C482 0.950 . S
H473 C484 0.950 . S
H474 C486 0.950 . S
H475 C487 0.950 . S
C476 H468 0.950 . S
C476 C477 1.386 . S
C476 C478 1.391 . S
C477 C476 1.386 . S
C477 C481 1.393 . S
C478 H470 0.950 . S
C478 C476 1.391 . S
C478 C479 1.400 . S
C479 C478 1.400 . S
C479 C480 1.398 . S
C479 C485 1.491 . S
C480 H471 0.950 . S
C480 C479 1.398 . S
C480 C481 1.391 . S
C481 H469 0.950 . S
C481 C477 1.393 . S
C481 C480 1.391 . S
C482 H472 0.950 . S
C482 C483 1.386 . S
C482 C484 1.391 . S
C483 C482 1.386 . S
C483 C487 1.393 . S
C484 H473 0.950 . S
C484 C482 1.391 . S
C484 C485 1.400 . S
C485 C479 1.491 . S
C485 C484 1.400 . S
C485 C486 1.398 . S
C486 H474 0.950 . S
C486 C485 1.398 . S
C486 C487 1.391 . S
C487 H475 0.950 . S
C487 C483 1.393 . S
C487 C486 1.391 . S
H488 C496 0.950 . S
H489 C501 0.950 . S
H490 C498 0.950 . S
H491 C500 0.950 . S
H492 C502 0.920 1_455 S
H493 C504 0.950 . S
H494 C506 0.950 . S
H495 C507 0.950 . S
C496 H488 0.950 . S
C496 C497 1.386 . S
C496 C498 1.391 . S
C497 C496 1.386 . S
C497 C501 1.393 . S
C498 H490 0.950 . S
C498 C496 1.391 . S
C498 C499 1.400 . S
C499 C498 1.400 . S
C499 C500 1.398 . S
C499 C505 1.491 . S
C500 H491 0.950 . S
C500 C499 1.398 . S
C500 C501 1.391 . S
C501 H489 0.950 . S
C501 C497 1.393 . S
C501 C500 1.391 . S
C502 H492 0.920 1_655 S
C502 C503 1.386 . S
C502 C504 1.391 . S
C503 C502 1.386 . S
C503 C507 1.393 . S
C504 H493 0.950 . S
C504 C502 1.391 . S
C504 C505 1.400 . S
C505 C499 1.491 . S
C505 C504 1.400 . S
C505 C506 1.398 . S
C506 H494 0.950 . S
C506 C505 1.398 . S
C506 C507 1.391 . S
C507 H495 0.950 . S
C507 C503 1.393 . S
C507 C506 1.391 . S
H508 C516 0.950 . S
H509 C521 0.950 . S
H510 C518 0.950 . S
H511 C520 0.950 . S
H512 C522 0.950 . S
H513 C524 0.950 . S
H514 C526 0.950 . S
H515 C527 0.950 . S
C516 H508 0.950 . S
C516 C517 1.386 . S
C516 C518 1.391 . S
C517 C516 1.386 . S
C517 C521 1.393 . S
C518 H510 0.950 . S
C518 C516 1.391 . S
C518 C519 1.400 . S
C519 C518 1.400 . S
C519 C520 1.398 . S
C519 C525 1.491 . S
C520 H511 0.950 . S
C520 C519 1.398 . S
C520 C521 1.391 . S
C521 H509 0.950 . S
C521 C517 1.393 . S
C521 C520 1.391 . S
C522 H512 0.950 . S
C522 C523 1.386 . S
C522 C524 1.391 . S
C523 C522 1.386 . S
C523 C527 1.393 . S
C524 H513 0.950 . S
C524 C522 1.391 . S
C524 C525 1.400 . S
C525 C519 1.491 . S
C525 C524 1.400 . S
C525 C526 1.398 . S
C526 H514 0.950 . S
C526 C525 1.398 . S
C526 C527 1.391 . S
C527 H515 0.950 . S
C527 C523 1.393 . S
C527 C526 1.391 . S
H528 C536 0.950 . S
H529 C541 0.950 . S
H530 C538 0.950 . S
H531 C540 0.950 . S
H532 C542 0.950 . S
H533 C544 0.950 . S
H534 C546 0.950 . S
H535 C547 0.950 . S
C536 H528 0.950 . S
C536 C537 1.386 . S
C536 C538 1.391 . S
C537 C536 1.386 . S
C537 C541 1.393 . S
C538 H530 0.950 . S
C538 C536 1.391 . S
C538 C539 1.400 . S
C539 C538 1.400 . S
C539 C540 1.398 . S
C539 C545 1.491 . S
C540 H531 0.950 . S
C540 C539 1.398 . S
C540 C541 1.391 . S
C541 H529 0.950 . S
C541 C537 1.393 . S
C541 C540 1.391 . S
C542 H532 0.950 . S
C542 C543 1.386 . S
C542 C544 1.391 . S
C543 C542 1.386 . S
C543 C547 1.393 . S
C544 H533 0.950 . S
C544 C542 1.391 . S
C544 C545 1.400 . S
C545 C539 1.491 . S
C545 C544 1.400 . S
C545 C546 1.398 . S
C546 H534 0.950 . S
C546 C545 1.398 . S
C546 C547 1.391 . S
C547 H535 0.950 . S
C547 C543 1.393 . S
C547 C546 1.391 . S
H548 C556 0.950 . S
H549 C561 0.950 . S
H550 C558 0.950 . S
H551 C560 0.950 . S
H552 C562 0.950 . S
H553 C564 0.950 . S
H554 C566 0.950 . S
H555 C567 0.950 . S
C556 H548 0.950 . S
C556 C557 1.386 . S
C556 C558 1.391 . S
C557 C556 1.386 . S
C557 C561 1.393 . S
C558 H550 0.950 . S
C558 C556 1.391 . S
C558 C559 1.400 . S
C559 C558 1.400 . S
C559 C560 1.398 . S
C559 C565 1.491 . S
C560 H551 0.950 . S
C560 C559 1.398 . S
C560 C561 1.391 . S
C561 H549 0.950 . S
C561 C557 1.393 . S
C561 C560 1.391 . S
C562 H552 0.950 . S
C562 C563 1.386 . S
C562 C564 1.391 . S
C563 C562 1.386 . S
C563 C567 1.393 . S
C564 H553 0.950 . S
C564 C562 1.391 . S
C564 C565 1.400 . S
C565 C559 1.491 . S
C565 C564 1.400 . S
C565 C566 1.398 . S
C566 H554 0.950 . S
C566 C565 1.398 . S
C566 C567 1.391 . S
C567 H555 0.950 . S
C567 C563 1.393 . S
C567 C566 1.391 . S
H568 C576 0.950 . S
H569 C581 0.950 . S
H570 C578 0.950 . S
H571 C580 0.950 . S
H572 C582 0.950 . S
H573 C584 0.950 . S
H574 C586 0.950 . S
H575 C587 0.950 1_545 S
C576 H568 0.950 . S
C576 C577 1.386 . S
C576 C578 1.391 . S
C577 C576 1.386 . S
C577 C581 1.393 . S
C578 H570 0.950 . S
C578 C576 1.391 . S
C578 C579 1.400 . S
C579 C578 1.400 . S
C579 C580 1.398 . S
C579 C585 1.491 . S
C580 H571 0.950 . S
C580 C579 1.398 . S
C580 C581 1.391 . S
C581 H569 0.950 . S
C581 C577 1.393 . S
C581 C580 1.391 . S
C582 H572 0.950 . S
C582 C583 1.386 . S
C582 C584 1.391 . S
C583 C582 1.386 . S
C583 C587 1.393 1_554 S
C584 H573 0.950 . S
C584 C582 1.391 . S
C584 C585 1.400 1_554 S
C585 C579 1.491 . S
C585 C584 1.400 1_556 S
C585 C586 1.398 . S
C586 H574 0.950 . S
C586 C585 1.398 . S
C586 C587 1.391 . S
C587 H575 0.950 1_565 S
C587 C583 1.393 1_556 S
C587 C586 1.391 . S
H588 C596 0.950 . S
H589 C601 0.950 . S
H590 C598 0.950 . S
H591 C600 0.950 . S
H592 C602 0.950 . S
H593 C604 0.950 . S
H594 C606 0.950 . S
H595 C607 0.950 . S
C596 H588 0.950 . S
C596 C597 1.386 . S
C596 C598 1.391 . S
C597 C596 1.386 . S
C597 C601 1.393 . S
C598 H590 0.950 . S
C598 C596 1.391 . S
C598 C599 1.400 . S
C599 C598 1.400 . S
C599 C600 1.398 . S
C599 C605 1.491 . S
C600 H591 0.950 . S
C600 C599 1.398 . S
C600 C601 1.391 . S
C601 H589 0.950 . S
C601 C597 1.393 . S
C601 C600 1.391 . S
C602 H592 0.950 . S
C602 C603 1.386 . S
C602 C604 1.391 . S
C603 C602 1.386 . S
C603 C607 1.393 . S
C604 H593 0.950 . S
C604 C602 1.391 . S
C604 C605 1.400 . S
C605 C599 1.491 . S
C605 C604 1.400 . S
C605 C606 1.398 . S
C606 H594 0.950 . S
C606 C605 1.398 . S
C606 C607 1.391 . S
C607 H595 0.950 . S
C607 C603 1.393 . S
C607 C606 1.391 . S
H608 C616 0.950 . S
H609 C621 0.950 . S
H610 C618 0.950 . S
H611 C620 0.950 . S
H612 C622 0.950 . S
H613 C624 0.950 . S
H614 C626 0.950 . S
H615 C627 0.950 . S
C616 H608 0.950 . S
C616 C617 1.386 . S
C616 C618 1.391 . S
C617 C616 1.386 . S
C617 C621 1.393 . S
C618 H610 0.950 . S
C618 C616 1.391 . S
C618 C619 1.400 . S
C619 C618 1.400 . S
C619 C620 1.398 . S
C619 C625 1.491 . S
C620 H611 0.950 . S
C620 C619 1.398 . S
C620 C621 1.391 . S
C621 H609 0.950 . S
C621 C617 1.393 . S
C621 C620 1.391 . S
C622 H612 0.950 . S
C622 C623 1.386 . S
C622 C624 1.391 . S
C623 C622 1.386 . S
C623 C627 1.393 . S
C624 H613 0.950 . S
C624 C622 1.391 . S
C624 C625 1.400 . S
C625 C619 1.491 . S
C625 C624 1.400 . S
C625 C626 1.398 . S
C626 H614 0.950 . S
C626 C625 1.398 . S
C626 C627 1.391 . S
C627 H615 0.950 . S
C627 C623 1.393 . S
C627 C626 1.391 . S
H628 C636 0.950 . S
H629 C641 0.950 . S
H630 C638 0.950 . S
H631 C640 0.950 . S
H632 C642 0.950 . S
H633 C644 0.950 . S
H634 C646 0.950 . S
H635 C647 0.950 . S
C636 H628 0.950 . S
C636 C637 1.386 . S
C636 C638 1.391 . S
C637 C636 1.386 . S
C637 C641 1.393 . S
C638 H630 0.950 . S
C638 C636 1.391 . S
C638 C639 1.400 . S
C639 C638 1.400 . S
C639 C640 1.398 . S
C639 C645 1.491 . S
C640 H631 0.950 . S
C640 C639 1.398 . S
C640 C641 1.391 . S
C641 H629 0.950 . S
C641 C637 1.393 . S
C641 C640 1.391 . S
C642 H632 0.950 . S
C642 C643 1.386 . S
C642 C644 1.391 . S
C643 C642 1.386 . S
C643 C647 1.393 . S
C644 H633 0.950 . S
C644 C642 1.391 . S
C644 C645 1.400 . S
C645 C639 1.491 . S
C645 C644 1.400 . S
C645 C646 1.398 . S
C646 H634 0.950 . S
C646 C645 1.398 . S
C646 C647 1.391 . S
C647 H635 0.950 . S
C647 C643 1.393 . S
C647 C646 1.391 . S
H648 C656 0.950 . S
H649 C661 0.950 . S
H650 C658 0.950 . S
H651 C660 0.950 . S
H652 C662 0.950 1_455 S
H653 C664 0.950 . S
H654 C666 0.950 . S
H655 C667 0.931 1_554 S
C656 H648 0.950 . S
C656 C657 1.386 . S
C656 C658 1.391 . S
C657 C656 1.386 . S
C657 C661 1.393 . S
C658 H650 0.950 . S
C658 C656 1.391 . S
C658 C659 1.400 . S
C659 C658 1.400 . S
C659 C660 1.398 . S
C659 C665 1.491 . S
C660 H651 0.950 . S
C660 C659 1.398 . S
C660 C661 1.391 . S
C661 H649 0.950 . S
C661 C657 1.393 . S
C661 C660 1.391 . S
C662 H652 0.950 1_655 S
C662 C663 1.386 . S
C662 C664 1.391 . S
C663 C662 1.386 . S
C663 C667 1.393 . S
C664 H653 0.950 . S
C664 C662 1.391 . S
C664 C665 1.400 . S
C665 C659 1.491 . S
C665 C664 1.400 . S
C665 C666 1.398 . S
C666 H654 0.950 . S
C666 C665 1.398 . S
C666 C667 1.391 . S
C667 H655 0.931 1_556 S
C667 C663 1.393 . S
C667 C666 1.391 . S
H668 C676 0.950 . S
H669 C681 0.950 . S
H670 C678 0.950 . S
H671 C680 0.950 . S
H672 C682 0.950 . S
H673 C684 0.950 . S
H674 C686 0.950 . S
H675 C687 0.950 . S
C676 H668 0.950 . S
C676 C677 1.386 . S
C676 C678 1.391 . S
C677 C676 1.386 . S
C677 C681 1.393 . S
C678 H670 0.950 . S
C678 C676 1.391 . S
C678 C679 1.400 . S
C679 C678 1.400 . S
C679 C680 1.398 . S
C679 C685 1.491 . S
C680 H671 0.950 . S
C680 C679 1.398 . S
C680 C681 1.391 . S
C681 H669 0.950 . S
C681 C677 1.393 . S
C681 C680 1.391 . S
C682 H672 0.950 . S
C682 C683 1.386 . S
C682 C684 1.391 . S
C683 C682 1.386 . S
C683 C687 1.393 . S
C684 H673 0.950 . S
C684 C682 1.391 . S
C684 C685 1.400 . S
C685 C679 1.491 . S
C685 C684 1.400 . S
C685 C686 1.398 . S
C686 H674 0.950 . S
C686 C685 1.398 . S
C686 C687 1.391 . S
C687 H675 0.950 . S
C687 C683 1.393 . S
C687 C686 1.391 . S
H688 C696 0.950 . S
H689 C701 0.950 . S
H690 C698 0.950 . S
H691 C700 0.950 . S
H692 C702 0.950 . S
H693 C704 0.950 . S
H694 C706 0.950 . S
H695 C707 0.950 . S
C696 H688 0.950 . S
C696 C697 1.386 . S
C696 C698 1.391 . S
C697 C696 1.386 . S
C697 C701 1.393 . S
C698 H690 0.950 . S
C698 C696 1.391 . S
C698 C699 1.400 . S
C699 C698 1.400 . S
C699 C700 1.398 . S
C699 C705 1.491 . S
C700 H691 0.950 . S
C700 C699 1.398 . S
C700 C701 1.391 . S
C701 H689 0.950 . S
C701 C697 1.393 . S
C701 C700 1.391 . S
C702 H692 0.950 . S
C702 C703 1.386 . S
C702 C704 1.391 . S
C703 C702 1.386 . S
C703 C707 1.393 . S
C704 H693 0.950 . S
C704 C702 1.391 . S
C704 C705 1.400 . S
C705 C699 1.491 . S
C705 C704 1.400 . S
C705 C706 1.398 . S
C706 H694 0.950 . S
C706 C705 1.398 . S
C706 C707 1.391 . S
C707 H695 0.950 . S
C707 C703 1.393 . S
C707 C706 1.391 . S
H708 C716 0.950 . S
H709 C721 0.950 . S
H710 C718 0.950 . S
H711 C720 0.950 . S
H712 C722 0.950 . S
H713 C724 0.950 . S
H714 C726 0.950 . S
H715 C727 0.950 . S
C716 H708 0.950 . S
C716 C717 1.386 . S
C716 C718 1.391 . S
C717 C716 1.386 . S
C717 C721 1.393 . S
C718 H710 0.950 . S
C718 C716 1.391 . S
C718 C719 1.400 . S
C719 C718 1.400 . S
C719 C720 1.398 . S
C719 C725 1.491 . S
C720 H711 0.950 . S
C720 C719 1.398 . S
C720 C721 1.391 . S
C721 H709 0.950 . S
C721 C717 1.393 . S
C721 C720 1.391 . S
C722 H712 0.950 . S
C722 C723 1.386 . S
C722 C724 1.391 . S
C723 C722 1.386 . S
C723 C727 1.393 . S
C724 H713 0.950 . S
C724 C722 1.391 . S
C724 C725 1.400 . S
C725 C719 1.491 . S
C725 C724 1.400 . S
C725 C726 1.398 . S
C726 H714 0.950 . S
C726 C725 1.398 . S
C726 C727 1.391 . S
C727 H715 0.950 . S
C727 C723 1.393 . S
C727 C726 1.391 . S
C257 C4 3.081 . S
C263 C107 3.043 . S
C277 C16 2.415 . S
C283 C138 2.475 1_556 S
C303 C177 0.869 . S
C297 C32 0.905 . S
C317 C43 0.409 . S
C323 C214 0.431 . S
C343 C137 3.284 . S
C337 C5 3.350 . S
C363 C94 1.196 . S
C357 C21 1.196 . S
C383 C226 1.205 . S
C377 C27 1.234 . S
C403 C183 0.971 . S
C397 C37 0.972 . S
C417 C10 2.449 . S
C423 C227 2.452 . S
C443 C143 1.454 . S
C437 C26 1.452 . S
C457 C38 0.274 . S
C463 C106 0.489 . S
C477 C15 2.436 . S
C483 C178 2.475 . S
C503 C98 3.073 . S
C497 C48 3.109 . S
C517 C59 2.180 . S
C523 C147 2.224 . S
C537 C76 1.202 . S
C543 C186 1.175 . S
C557 C87 0.500 . S
C563 C223 0.447 . S
C577 C54 2.768 . S
C583 C146 2.668 1_565 S
C603 C103 1.665 . S
C597 C60 1.658 . S
C623 C217 1.221 . S
C617 C71 1.285 . S
C643 C174 0.972 . S
C637 C82 0.991 . S
C657 C49 2.571 . S
C663 C218 2.583 1_655 S
C683 C134 1.268 . S
C677 C70 1.271 . S
C703 C97 0.633 . S
C697 C81 0.590 . S
C717 C65 2.286 . S
C723 C187 2.323 . S
