# Generated by pormake.
# Topology zzz, (3,6)-cn, num edge types: 1
# Building blocks:
#     Node 0, Type 0, BuildingBlock: CUQRIR_clean_linker_1, # of connection points: 3
#     Node 1, Type 0, BuildingBlock: CUQRIR_clean_linker_1, # of connection points: 3
#     Node 2, Type 0, BuildingBlock: CUQRIR_clean_linker_1, # of connection points: 3
#     Node 3, Type 0, BuildingBlock: CUQRIR_clean_linker_1, # of connection points: 3
#     Node 4, Type 0, BuildingBlock: CUQRIR_clean_linker_1, # of connection points: 3
#     Node 5, Type 0, BuildingBlock: CUQRIR_clean_linker_1, # of connection points: 3
#     Node 6, Type 0, BuildingBlock: CUQRIR_clean_linker_1, # of connection points: 3
#     Node 7, Type 0, BuildingBlock: CUQRIR_clean_linker_1, # of connection points: 3
#     Node 8, Type 1, BuildingBlock: MIFKUJ_clean_sbu_0, # of connection points: 6
#     Node 9, Type 1, BuildingBlock: MIFKUJ_clean_sbu_0, # of connection points: 6
#     Node 10, Type 1, BuildingBlock: MIFKUJ_clean_sbu_0, # of connection points: 6
#     Node 11, Type 1, BuildingBlock: MIFKUJ_clean_sbu_0, # of connection points: 6
#     Edge 12, Type (0, 1), BuildingBlock: AJUNOK_clean_linker_0, # of connection points: 2
#     Edge 13, Type (0, 1), BuildingBlock: AJUNOK_clean_linker_0, # of connection points: 2
#     Edge 14, Type (0, 1), BuildingBlock: AJUNOK_clean_linker_0, # of connection points: 2
#     Edge 15, Type (0, 1), BuildingBlock: AJUNOK_clean_linker_0, # of connection points: 2
#     Edge 16, Type (0, 1), BuildingBlock: AJUNOK_clean_linker_0, # of connection points: 2
#     Edge 17, Type (0, 1), BuildingBlock: AJUNOK_clean_linker_0, # of connection points: 2
#     Edge 18, Type (0, 1), BuildingBlock: AJUNOK_clean_linker_0, # of connection points: 2
#     Edge 19, Type (0, 1), BuildingBlock: AJUNOK_clean_linker_0, # of connection points: 2
#     Edge 20, Type (0, 1), BuildingBlock: AJUNOK_clean_linker_0, # of connection points: 2
#     Edge 21, Type (0, 1), BuildingBlock: AJUNOK_clean_linker_0, # of connection points: 2
#     Edge 22, Type (0, 1), BuildingBlock: AJUNOK_clean_linker_0, # of connection points: 2
#     Edge 23, Type (0, 1), BuildingBlock: AJUNOK_clean_linker_0, # of connection points: 2
#     Edge 24, Type (0, 1), BuildingBlock: AJUNOK_clean_linker_0, # of connection points: 2
#     Edge 25, Type (0, 1), BuildingBlock: AJUNOK_clean_linker_0, # of connection points: 2
#     Edge 26, Type (0, 1), BuildingBlock: AJUNOK_clean_linker_0, # of connection points: 2
#     Edge 27, Type (0, 1), BuildingBlock: AJUNOK_clean_linker_0, # of connection points: 2
#     Edge 28, Type (0, 1), BuildingBlock: AJUNOK_clean_linker_0, # of connection points: 2
#     Edge 29, Type (0, 1), BuildingBlock: AJUNOK_clean_linker_0, # of connection points: 2
#     Edge 30, Type (0, 1), BuildingBlock: AJUNOK_clean_linker_0, # of connection points: 2
#     Edge 31, Type (0, 1), BuildingBlock: AJUNOK_clean_linker_0, # of connection points: 2
#     Edge 32, Type (0, 1), BuildingBlock: AJUNOK_clean_linker_0, # of connection points: 2
#     Edge 33, Type (0, 1), BuildingBlock: AJUNOK_clean_linker_0, # of connection points: 2
#     Edge 34, Type (0, 1), BuildingBlock: AJUNOK_clean_linker_0, # of connection points: 2
#     Edge 35, Type (0, 1), BuildingBlock: AJUNOK_clean_linker_0, # of connection points: 2
# Relax obj value: 0.137
# Max RMSD: 0.129
# Mean RMSD: 0.094
data_MOF--net-zzz--node1-MIFKUJ_clean_sbu_0--node2-CUQRIR_clean_linker_1--edge1-AJUNOK_clean_linker_0
_symmetry_space_group_name_H-M    P1
_symmetry_Int_Tables_number       1
_symmetry_cell_setting            triclinic
loop_
_symmetry_equiv_pos_as_xyz
'x, y, z'
_cell_length_a     34.236353
_cell_length_b     34.373887
_cell_length_c     10.461424
_cell_angle_alpha  89.920781
_cell_angle_beta   90.242302
_cell_angle_gamma 89.958985
loop_
_atom_site_label
_atom_site_type_symbol
_atom_site_fract_x
_atom_site_fract_y
_atom_site_fract_z
_atom_type_partial_charge
C0 C 0.70468 0.52106 0.13764 0.0
N1 N 0.74389 0.52762 0.13627 0.0
N2 N 0.68863 0.52913 0.02145 0.0
C3 C 0.68198 0.50593 0.24937 0.0
C4 C 0.7193 0.54084 0.95047 0.0
N5 N 0.75257 0.53948 0.01917 0.0
C6 C 0.71778 0.54765 0.80817 0.0
H7 H 0.67572 0.47459 0.23461 0.0
H8 H 0.65352 0.52129 0.25521 0.0
H9 H 0.69845 0.50976 0.34008 0.0
H10 H 0.68803 0.55633 0.77667 0.0
H11 H 0.72606 0.52042 0.75821 0.0
H12 H 0.73891 0.57057 0.78037 0.0
C13 C 0.97603 0.69556 0.15209 0.0
N14 N 0.96727 0.73403 0.14495 0.0
N15 N 0.96934 0.678 0.03792 0.0
C16 C 0.99448 0.67581 0.26509 0.0
C17 C 0.95652 0.7072 0.96191 0.0
N18 N 0.95602 0.74114 0.02574 0.0
C19 C 0.95001 0.70373 0.8199 0.0
H20 H 0.0263 0.6728 0.24794 0.0
H21 H 0.9822 0.64615 0.27647 0.0
H22 H 0.98986 0.69275 0.35396 0.0
H23 H 0.94149 0.67363 0.79353 0.0
H24 H 0.97742 0.71133 0.76947 0.0
H25 H 0.92696 0.72433 0.78803 0.0
C26 C 0.80205 0.97712 0.1447 0.0
N27 N 0.76295 0.97118 0.13871 0.0
N28 N 0.81854 0.97053 0.0289 0.0
C29 C 0.8235 0.99231 0.25929 0.0
C30 C 0.78799 0.96142 0.95249 0.0
N31 N 0.75447 0.96181 0.01912 0.0
C32 C 0.79019 0.95845 0.8091 0.0
H33 H 0.82391 0.02456 0.25517 0.0
H34 H 0.85414 0.98175 0.25947 0.0
H35 H 0.80863 0.98329 0.34863 0.0
H36 H 0.81675 0.94219 0.78045 0.0
H37 H 0.79215 0.98818 0.76809 0.0
H38 H 0.76398 0.94385 0.76903 0.0
C39 C 0.51637 0.7991 0.14094 0.0
N40 N 0.52462 0.76058 0.13735 0.0
N41 N 0.52852 0.81678 0.03196 0.0
C42 C 0.49231 0.8183 0.24221 0.0
C43 C 0.54381 0.78735 0.96257 0.0
N44 N 0.54042 0.75315 0.02468 0.0
C45 C 0.55599 0.79109 0.82492 0.0
H46 H 0.46093 0.81434 0.21879 0.0
H47 H 0.49864 0.84994 0.2461 0.0
H48 H 0.49806 0.8047 0.33673 0.0
H49 H 0.57288 0.81829 0.81095 0.0
H50 H 0.52958 0.79264 0.76324 0.0
H51 H 0.5739 0.76578 0.79512 0.0
C52 C 0.29112 0.47048 0.03673 0.0
N53 N 0.25188 0.47636 0.03589 0.0
N54 N 0.30538 0.47222 0.15758 0.0
C55 C 0.31525 0.46278 0.92018 0.0
C56 C 0.27346 0.47836 0.22923 0.0
N57 N 0.24166 0.48516 0.15541 0.0
C58 C 0.27172 0.46408 0.36547 0.0
H59 H 0.30229 0.43847 0.86466 0.0
H60 H 0.34588 0.4556 0.94609 0.0
H61 H 0.31485 0.48898 0.85811 0.0
H62 H 0.28941 0.4832 0.42849 0.0
H63 H 0.28519 0.43472 0.37099 0.0
H64 H 0.24122 0.46203 0.40037 0.0
C65 C 0.02853 0.30344 0.01642 0.0
N66 N 0.02297 0.26436 0.01105 0.0
N67 N 0.02789 0.31581 0.13996 0.0
C68 C 0.03408 0.32941 0.90289 0.0
C69 C 0.02064 0.28323 0.20814 0.0
N70 N 0.01749 0.2524 0.12991 0.0
C71 C 0.01658 0.28164 0.35153 0.0
H72 H 0.05567 0.3525 0.92566 0.0
H73 H 0.00588 0.34375 0.87971 0.0
H74 H 0.04383 0.31252 0.8185 0.0
H75 H 0.00209 0.30828 0.38784 0.0
H76 H 0.04611 0.27989 0.3952 0.0
H77 H -0.00025 0.25584 0.38286 0.0
C78 C 0.19731 0.01878 0.01161 0.0
N79 N 0.23551 0.02939 0.01082 0.0
N80 N 0.18063 0.02822 0.12504 0.0
C81 C 0.17723 -0.00373 0.90774 0.0
C82 C 0.20999 0.04497 0.19183 0.0
N83 N 0.24338 0.04458 0.12453 0.0
C84 C 0.20769 0.05576 0.33137 0.0
H85 H 0.14629 0.00556 0.89915 0.0
H86 H 0.17756 0.96491 0.93294 0.0
H87 H 0.19217 0.00035 0.81475 0.0
H88 H 0.21911 0.03133 0.39016 0.0
H89 H 0.17715 0.06199 0.36004 0.0
H90 H 0.22593 0.08168 0.35136 0.0
C91 C 0.48307 0.19427 0.00228 0.0
N92 N 0.48239 0.23367 0.00671 0.0
N93 N 0.47902 0.17924 0.12201 0.0
C94 C 0.48685 0.17095 0.88203 0.0
C95 C 0.47692 0.21086 0.19829 0.0
N96 N 0.47887 0.2435 0.12819 0.0
C97 C 0.47574 0.20971 0.34234 0.0
H98 H 0.45845 0.17154 0.8305 0.0
H99 H 0.49463 0.14026 0.90282 0.0
H100 H 0.50902 0.18429 0.81852 0.0
H101 H 0.49668 0.18772 0.3794 0.0
H102 H 0.44604 0.201 0.37314 0.0
H103 H 0.48263 0.23837 0.38537 0.0
Zn104 Zn -0.00168 0.06078 0.5661 0.0
Zn105 Zn 0.00303 0.93647 0.58722 0.0
C106 C 0.99692 0.1324 0.68855 0.0
O107 O 0.96144 0.12697 0.64364 0.0
C108 C 0.00498 0.87217 0.43157 0.0
O109 O 0.03959 0.87398 0.4861 0.0
O110 O 0.98065 0.08898 0.41152 0.0
O111 O 0.03446 0.01737 0.5031 0.0
O112 O 0.05241 0.95586 0.50777 0.0
C113 C 0.01124 0.10485 0.36769 0.0
O114 O 0.04518 0.09553 0.41857 0.0
O115 O 0.02206 0.1053 0.67267 0.0
C116 C 0.97803 0.88184 0.74495 0.0
O117 O 0.94808 0.89243 0.67398 0.0
O118 O 0.01054 0.89917 0.7304 0.0
O119 O 0.96862 0.97944 0.6622 0.0
O120 O 0.95372 0.04146 0.67084 0.0
O121 O 0.98104 0.90013 0.45035 0.0
C122 C 0.05676 0.9901 0.46473 0.0
C123 C 0.94761 0.00682 0.70723 0.0
Zn124 Zn 0.43654 0.99204 0.56547 0.0
Zn125 Zn 0.55971 -0.00092 0.58091 0.0
C126 C 0.37324 0.98767 0.72729 0.0
O127 O 0.37389 0.95385 0.66888 0.0
C128 C 0.62586 0.005 0.43408 0.0
O129 O 0.62172 0.03901 0.48953 0.0
O130 O 0.39925 0.98777 0.42102 0.0
O131 O 0.47858 0.02852 0.49789 0.0
O132 O 0.53967 0.04715 0.49531 0.0
C133 C 0.38233 0.02068 0.41443 0.0
O134 O 0.39125 0.04745 0.4987 0.0
O135 O 0.40159 0.01112 0.70928 0.0
C136 C 0.60995 0.97651 0.75425 0.0
O137 O 0.60041 0.94614 0.68466 0.0
O138 O 0.59327 0.00887 0.73197 0.0
O139 O 0.51737 0.96109 0.64085 0.0
O140 O 0.45642 0.94164 0.63368 0.0
O141 O 0.59975 0.97911 0.45279 0.0
C142 C 0.50492 0.05129 0.45582 0.0
C143 C 0.49077 0.93763 0.67731 0.0
Zn144 Zn 0.50506 0.43755 0.56813 0.0
Zn145 Zn 0.4969 0.5592 0.58566 0.0
C146 C 0.5116 0.37107 0.71372 0.0
O147 O 0.54658 0.37643 0.6656 0.0
C148 C 0.48971 0.6227 0.4263 0.0
O149 O 0.4546 0.61755 0.47349 0.0
O150 O 0.51772 0.40447 0.41878 0.0
O151 O 0.4636 0.47424 0.49544 0.0
O152 O 0.44894 0.53654 0.50315 0.0
C153 C 0.48605 0.38674 0.39333 0.0
O154 O 0.45521 0.39366 0.46396 0.0
O155 O 0.48557 0.397 0.69429 0.0
C156 C 0.51868 0.61013 0.75958 0.0
O157 O 0.5504 0.59919 0.69927 0.0
O158 O 0.48611 0.59461 0.7304 0.0
O159 O 0.53698 0.52153 0.65874 0.0
O160 O 0.55249 0.45953 0.65409 0.0
O161 O 0.51655 0.59842 0.45558 0.0
C162 C 0.44155 0.50247 0.46334 0.0
C163 C 0.55911 0.49371 0.69347 0.0
Zn164 Zn 0.06606 0.50309 0.57241 0.0
Zn165 Zn 0.94766 0.49313 0.5856 0.0
C166 C 0.11274 0.46025 0.76063 0.0
O167 O 0.08674 0.47293 0.84264 0.0
C168 C 0.88208 0.48884 0.4302 0.0
O169 O 0.88556 0.4546 0.48498 0.0
O170 O 0.10151 0.53621 0.47294 0.0
O171 O 0.02568 0.48013 0.44979 0.0
O172 O 0.97564 0.44589 0.51739 0.0
C173 C 0.10003 0.54218 0.35381 0.0
O174 O 0.06791 0.53336 0.29112 0.0
O175 O 0.10679 0.46566 0.64208 0.0
C176 C 0.89402 0.51737 0.74269 0.0
O177 O 0.90788 0.54715 0.6785 0.0
O178 O 0.90839 0.48367 0.72245 0.0
O179 O 0.98324 0.52917 0.6866 0.0
O180 O 0.04657 0.53912 0.70638 0.0
O181 O 0.90975 0.5134 0.4466 0.0
C182 C 0.0084 0.44759 0.46031 0.0
C183 C 0.01178 0.54713 0.73712 0.0
C184 C 0.15231 0.98463 0.28502 0.0
C185 C 0.14686 0.01136 0.18451 0.0
C186 C 0.12283 0.97771 0.37448 0.0
C187 C 0.08663 -0.0032 0.36516 0.0
H188 H 0.1807 0.97142 0.29994 0.0
H189 H 0.12899 0.9585 0.45427 0.0
S190 S 0.05382 0.05838 0.09323 0.0
N191 N 0.1007 0.05077 0.06569 0.0
N192 N 0.04371 0.03488 0.22715 0.0
C193 C 0.07926 0.01959 0.25555 0.0
C194 C 0.10975 0.02745 0.16636 0.0
C195 C 0.4523 0.12528 0.24524 0.0
C196 C 0.48244 0.14011 0.16883 0.0
C197 C 0.45954 0.09611 0.33594 0.0
C198 C 0.49684 0.0798 0.35148 0.0
H199 H 0.42391 0.13922 0.24368 0.0
H200 H 0.43652 0.08863 0.40041 0.0
S201 S 0.58434 0.1045 0.15806 0.0
N202 N 0.55002 0.13426 0.10479 0.0
N203 N 0.56338 0.0775 0.26903 0.0
C204 C 0.52646 0.09206 0.26678 0.0
C205 C 0.51919 0.12239 0.17617 0.0
C206 C 0.37216 0.45373 0.22353 0.0
C207 C 0.34381 0.48242 0.20271 0.0
C208 C 0.40446 0.46099 0.30376 0.0
C209 C 0.40864 0.49645 0.37068 0.0
H210 H 0.36835 0.42509 0.18241 0.0
H211 H 0.4259 0.43839 0.31437 0.0
S212 S 0.34412 0.58276 0.33157 0.0
N213 N 0.32435 0.54923 0.23907 0.0
N214 N 0.38305 0.56219 0.39626 0.0
C215 C 0.38153 0.52619 0.34284 0.0
C216 C 0.34967 0.51926 0.25757 0.0
C217 C 0.99522 0.37775 0.18341 0.0
C218 C 0.02878 0.35441 0.19235 0.0
C219 C 0.98925 0.40872 0.26853 0.0
C220 C 0.01688 0.41742 0.36433 0.0
H221 H 0.97218 0.37005 0.11691 0.0
H222 H 0.96224 0.4251 0.26239 0.0
S223 S 0.11071 0.3667 0.42103 0.0
N224 N 0.09077 0.34328 0.29927 0.0
N225 N 0.08004 0.4021 0.45736 0.0
C226 C 0.0517 0.39603 0.36839 0.0
C227 C 0.05757 0.36436 0.2826 0.0
C228 C 0.88302 0.95342 0.94623 0.0
C229 C 0.85611 0.98204 0.98226 0.0
C230 C 0.91369 0.96219 0.86261 0.0
C231 C 0.91765 -0.00061 0.80775 0.0
H232 H 0.87895 0.92364 0.97742 0.0
H233 H 0.93385 0.93944 0.83917 0.0
S234 S 0.85769 0.08597 0.89144 0.0
N235 N 0.83786 0.04993 0.97296 0.0
N236 N 0.89475 0.06669 0.81323 0.0
C237 C 0.89253 0.02903 0.85227 0.0
C238 C 0.86188 0.02019 0.9397 0.0
C239 C 0.5391 0.88321 0.95445 0.0
C240 C 0.51383 0.85178 0.97411 0.0
C241 C 0.53084 0.91147 0.86109 0.0
C242 C 0.498 0.90832 0.78008 0.0
H243 H 0.56622 0.88484 0.00771 0.0
H244 H 0.55039 0.9358 0.85242 0.0
S245 S 0.41966 0.83399 0.8101 0.0
N246 N 0.45203 0.82185 0.92052 0.0
N247 N 0.4372 0.8733 0.73992 0.0
C248 C 0.47103 0.87834 0.80634 0.0
C249 C 0.47886 0.85049 0.9044 0.0
C250 C 0.61994 0.53945 0.96077 0.0
C251 C 0.6527 0.51503 0.96706 0.0
C252 C 0.58925 0.53176 0.87466 0.0
C253 C 0.59095 0.50021 0.78865 0.0
H254 H 0.61899 0.56556 0.01845 0.0
H255 H 0.56424 0.55087 0.87507 0.0
S256 S 0.66976 0.42601 0.77669 0.0
N257 N 0.68384 0.45642 0.88988 0.0
N258 N 0.62734 0.44262 0.72424 0.0
C259 C 0.62278 0.47442 0.79979 0.0
C260 C 0.65336 0.48174 0.88968 0.0
C261 C 0.01725 0.644 0.90565 0.0
C262 C 0.98561 0.64233 0.99068 0.0
C263 C 0.02664 0.61226 0.828 0.0
C264 C 0.00466 0.5778 0.83299 0.0
H265 H 0.03297 0.67106 0.89302 0.0
H266 H 0.0498 0.61553 0.75854 0.0
S267 S 0.92588 0.55574 0.06455 0.0
N268 N 0.9366 0.60192 0.09103 0.0
N269 N 0.9551 0.5413 0.94835 0.0
C270 C 0.97545 0.57452 0.92675 0.0
C271 C 0.96579 0.60705 0.00526 0.0
C272 C 0.04632 0.18913 0.17348 0.0
C273 C 0.01325 0.21282 0.16802 0.0
C274 C 0.04439 0.15238 0.22883 0.0
C275 C 0.00929 0.13847 0.28144 0.0
H276 H 0.07424 0.20005 0.14124 0.0
H277 H 0.07121 0.1358 0.23725 0.0
S278 S 0.91352 0.18909 0.2764 0.0
N279 N 0.9439 0.21973 0.20656 0.0
N280 N 0.93975 0.15028 0.3136 0.0
C281 C 0.97523 0.16107 0.26792 0.0
C282 C 0.97738 0.19854 0.21071 0.0
C283 C 0.29548 0.00228 0.20336 0.0
C284 C 0.28057 0.03995 0.18514 0.0
C285 C 0.32991 -0.00373 0.2719 0.0
C286 C 0.3499 0.02784 0.32604 0.0
H287 H 0.27955 0.97732 0.16769 0.0
H288 H 0.33979 0.96669 0.28757 0.0
S289 S 0.32356 0.13239 0.29566 0.0
N290 N 0.28872 0.10909 0.21754 0.0
N291 N 0.35359 0.09844 0.34942 0.0
C292 C 0.33585 0.06587 0.30408 0.0
C293 C 0.30096 0.07179 0.23311 0.0
C294 C 0.51716 0.29806 0.21066 0.0
C295 C 0.48096 0.28218 0.17614 0.0
C296 C 0.51908 0.3339 0.2732 0.0
C297 C 0.4847 0.35429 0.30299 0.0
H298 H 0.54375 0.28179 0.19398 0.0
H299 H 0.54731 0.34442 0.30501 0.0
S300 S 0.38338 0.32587 0.21597 0.0
N301 N 0.4109 0.28977 0.16418 0.0
N302 N 0.4138 0.35766 0.2801 0.0
C303 C 0.44856 0.33952 0.26046 0.0
C304 C 0.44684 0.30313 0.19751 0.0
C305 C 0.17487 0.51386 0.11388 0.0
C306 C 0.20848 0.50973 0.19198 0.0
C307 C 0.13997 0.52889 0.16155 0.0
C308 C 0.13784 0.5424 0.28721 0.0
H309 H 0.17379 0.50515 0.01627 0.0
H310 H 0.11402 0.52725 0.10215 0.0
S311 S 0.22234 0.56334 0.49888 0.0
N312 N 0.24096 0.53946 0.37688 0.0
N313 N 0.17505 0.56603 0.46951 0.0
C314 C 0.17292 0.54728 0.35525 0.0
C315 C 0.20846 0.53177 0.30651 0.0
C316 C 0.9299 0.80006 0.92462 0.0
C317 C 0.96185 0.77786 0.96449 0.0
C318 C 0.93568 0.83492 0.85886 0.0
C319 C 0.97362 0.84824 0.83027 0.0
H320 H 0.90048 0.79 0.94273 0.0
H321 H 0.91015 0.85102 0.82754 0.0
S322 S 0.06666 0.79969 0.91842 0.0
N323 N 0.03224 0.77083 0.97484 0.0
N324 N 0.04356 0.83664 0.85089 0.0
C325 C 0.00583 0.82656 0.87347 0.0
C326 C -0.0002 0.79111 0.94028 0.0
C327 C 0.70341 0.00231 0.92314 0.0
C328 C 0.71646 0.96569 0.96431 0.0
C329 C 0.66721 0.00632 0.86244 0.0
C330 C 0.64356 0.97358 0.84059 0.0
H331 H 0.7219 0.02761 0.93506 0.0
H332 H 0.65875 0.0347 0.82661 0.0
S333 S 0.66389 0.87227 0.94468 0.0
N334 N 0.70273 0.89721 0.99044 0.0
N335 N 0.63445 0.90404 0.87516 0.0
C336 C 0.65576 0.93716 0.88771 0.0
C337 C 0.69244 0.93334 0.94985 0.0
C338 C 0.56099 0.68625 0.97712 0.0
C339 C 0.53447 0.71682 0.96099 0.0
C340 C 0.55455 0.65059 0.91629 0.0
C341 C 0.52096 0.64455 0.84072 0.0
H342 H 0.58696 0.69029 0.03502 0.0
H343 H 0.57631 0.62787 0.92617 0.0
S344 S 0.44213 0.71573 0.77536 0.0
N345 N 0.4732 0.73898 0.86902 0.0
N346 N 0.4606 0.67175 0.75598 0.0
C347 C 0.49356 0.67458 0.82832 0.0
C348 C 0.5005 0.71089 0.88818 0.0
C349 C 0.8042 0.497 0.93902 0.0
C350 C 0.79014 0.53461 0.96286 0.0
C351 C 0.83894 0.49142 0.87205 0.0
C352 C 0.8603 0.52345 0.8268 0.0
H353 H 0.78742 0.47192 0.969 0.0
H354 H 0.84827 0.46196 0.85171 0.0
S355 S 0.83673 0.6279 0.87996 0.0
N356 N 0.80048 0.60393 0.94747 0.0
N357 N 0.8662 0.59437 0.82148 0.0
C358 C 0.84707 0.56135 0.85604 0.0
C359 C 0.81178 0.56673 0.92424 0.0
C360 C 0.98096 0.22765 0.86578 0.0
C361 C 0.01868 0.23892 0.90257 0.0
C362 C 0.97463 0.19385 0.79376 0.0
C363 C 0.00581 0.16941 0.75717 0.0
H364 H 0.956 0.24379 0.90058 0.0
H365 H 0.94471 0.18599 0.77183 0.0
S366 S 0.11069 0.18795 0.8233 0.0
N367 N 0.08787 0.22478 0.89168 0.0
N368 N 0.07634 0.1608 0.75697 0.0
C369 C 0.04395 0.1814 0.78873 0.0
C370 C 0.05028 0.21625 0.86101 0.0
C371 C 0.27314 0.98187 0.8833 0.0
C372 C 0.26584 0.02048 0.91963 0.0
C373 C 0.30805 0.97165 0.82188 0.0
C374 C 0.33732 -0.0005 0.79637 0.0
H375 H 0.25276 0.95912 0.90869 0.0
H376 H 0.31245 0.94139 0.79696 0.0
S377 S 0.33171 0.10479 0.87171 0.0
N378 N 0.28978 0.08684 0.92224 0.0
N379 N 0.35595 0.06764 0.81125 0.0
C380 C 0.33003 0.03832 0.83084 0.0
C381 C 0.29416 0.04876 0.89079 0.0
C382 C 0.52721 0.27549 0.88869 0.0
C383 C 0.48913 0.26175 0.90746 0.0
C384 C 0.53403 0.31079 0.82544 0.0
C385 C 0.50291 0.33392 0.77991 0.0
H386 H 0.55166 0.25993 0.93038 0.0
H387 H 0.56395 0.32059 0.81611 0.0
S388 S 0.39765 0.30929 0.80059 0.0
N389 N 0.42007 0.27266 0.87243 0.0
N390 N 0.43246 0.33914 0.75271 0.0
C391 C 0.46465 0.31978 0.79484 0.0
C392 C 0.45789 0.28364 0.85858 0.0
C393 C 0.21974 0.47814 0.82376 0.0
C394 C 0.22477 0.46028 0.94363 0.0
C395 C 0.18442 0.47396 0.75553 0.0
C396 C 0.15299 0.45247 0.80671 0.0
H397 H 0.24128 0.49866 0.78959 0.0
H398 H 0.18025 0.49111 0.66956 0.0
S399 S 0.15514 0.39368 0.10313 0.0
N400 N 0.19878 0.41404 0.0971 0.0
N401 N 0.13167 0.40841 0.97355 0.0
C402 C 0.15963 0.43076 0.91821 0.0
C403 C 0.19597 0.43381 0.9849 0.0
C404 C 0.01285 0.77193 0.27917 0.0
C405 C 0.97474 0.76468 0.23603 0.0
C406 C 0.02217 0.80682 0.34176 0.0
C407 C 0.99377 0.83598 0.36274 0.0
H408 H 0.03599 0.75144 0.25842 0.0
H409 H 0.05218 0.81121 0.37139 0.0
S410 S 0.88918 0.82982 0.2711 0.0
N411 N 0.90812 0.78822 0.22236 0.0
N412 N 0.92548 0.85415 0.33782 0.0
C413 C 0.95531 0.82852 0.32229 0.0
C414 C 0.94586 0.79279 0.25991 0.0
C415 C 0.70962 0.95005 0.27837 0.0
C416 C 0.73343 0.98011 0.23162 0.0
C417 C 0.67466 0.95814 0.34294 0.0
C418 C 0.66218 -0.0033 0.36196 0.0
H419 H 0.71751 0.92005 0.26045 0.0
H420 H 0.65724 0.93404 0.37737 0.0
S421 S 0.71301 0.08558 0.24711 0.0
N422 N 0.74157 0.0494 0.20231 0.0
N423 N 0.67608 0.06526 0.32317 0.0
C424 C 0.68594 0.02703 0.31509 0.0
C425 C 0.72153 0.0186 0.25016 0.0
C426 C 0.54287 0.71103 0.2952 0.0
C427 C 0.51357 0.73041 0.22549 0.0
C428 C 0.53525 0.67582 0.35854 0.0
C429 C 0.49802 0.65864 0.35313 0.0
H430 H 0.57225 0.72267 0.29679 0.0
H431 H 0.55863 0.66202 0.41199 0.0
S432 S 0.41233 0.6964 0.17277 0.0
N433 N 0.44676 0.72925 0.14914 0.0
N434 N 0.43201 0.66296 0.26662 0.0
C435 C 0.46849 0.67778 0.28287 0.0
C436 C 0.47634 0.7137 0.21938 0.0
C437 C 0.80298 0.54699 0.25546 0.0
C438 C 0.77368 0.51914 0.2311 0.0
C439 C 0.83785 0.53719 0.31947 0.0
C440 C 0.84479 0.49904 0.36282 0.0
H441 H 0.79955 0.5763 0.21905 0.0
H442 H 0.85971 0.55958 0.33309 0.0
S443 S 0.77634 0.41551 0.32737 0.0
N444 N 0.75367 0.45205 0.25645 0.0
N445 N 0.81789 0.43352 0.38162 0.0
C446 C 0.81485 0.47123 0.34345 0.0
C447 C 0.77961 0.48128 0.27686 0.0
loop_
_geom_bond_atom_site_label_1
_geom_bond_atom_site_label_2
_geom_bond_distance
_geom_bond_site_symmetry_2
_ccdc_geom_bond_type
C0 N1 1.317 . S
C0 N2 1.348 1_554 S
C0 C3 1.485 . S
N1 C0 1.317 . S
N1 N5 1.370 1_554 S
N2 C0 1.348 1_556 S
N2 C4 1.346 . S
C3 C0 1.485 . S
C3 H7 0.960 . S
C3 H8 0.961 . S
C3 H9 0.960 . S
C4 N2 1.346 . S
C4 N5 1.307 . S
C4 C6 1.486 . S
N5 N1 1.370 1_556 S
N5 C4 1.307 . S
C6 C4 1.486 . S
C6 H10 0.960 . S
C6 H11 0.960 . S
C6 H12 0.959 . S
H7 C3 0.960 . S
H8 C3 0.961 . S
H9 C3 0.960 . S
H10 C6 0.960 . S
H11 C6 0.960 . S
H12 C6 0.959 . S
C13 N14 1.317 . S
C13 N15 1.348 1_554 S
C13 C16 1.485 . S
N14 C13 1.317 . S
N14 N18 1.370 1_554 S
N15 C13 1.348 1_556 S
N15 C17 1.346 . S
C16 C13 1.485 . S
C16 H20 0.960 1_655 S
C16 H21 0.961 . S
C16 H22 0.960 . S
C17 N15 1.346 . S
C17 N18 1.307 . S
C17 C19 1.486 . S
N18 N14 1.370 1_556 S
N18 C17 1.307 . S
C19 C17 1.486 . S
C19 H23 0.960 . S
C19 H24 0.960 1_655 S
C19 H25 0.959 . S
H20 C16 0.960 1_455 S
H21 C16 0.961 . S
H22 C16 0.960 . S
H23 C19 0.960 . S
H24 C19 0.960 1_455 S
H25 C19 0.959 . S
C26 N27 1.317 . S
C26 N28 1.348 1_554 S
C26 C29 1.485 . S
N27 C26 1.317 . S
N27 N31 1.370 1_554 S
N28 C26 1.348 1_556 S
N28 C30 1.346 . S
C29 C26 1.485 . S
C29 H33 0.960 1_565 S
C29 H34 0.961 . S
C29 H35 0.960 . S
C30 N28 1.346 . S
C30 N31 1.307 . S
C30 C32 1.486 . S
N31 N27 1.370 1_556 S
N31 C30 1.307 . S
C32 C30 1.486 . S
C32 H36 0.960 . S
C32 H37 0.960 1_565 S
C32 H38 0.959 . S
H33 C29 0.960 1_545 S
H34 C29 0.961 . S
H35 C29 0.960 . S
H36 C32 0.960 . S
H37 C32 0.960 1_545 S
H38 C32 0.959 . S
C39 N40 1.317 . S
C39 N41 1.348 1_554 S
C39 C42 1.485 . S
N40 C39 1.317 . S
N40 N44 1.370 1_554 S
N41 C39 1.348 1_556 S
N41 C43 1.346 . S
C42 C39 1.485 . S
C42 H46 0.960 . S
C42 H47 0.961 . S
C42 H48 0.960 . S
C43 N41 1.346 . S
C43 N44 1.307 . S
C43 C45 1.486 . S
N44 N40 1.370 1_556 S
N44 C43 1.307 . S
C45 C43 1.486 . S
C45 H49 0.960 . S
C45 H50 0.960 . S
C45 H51 0.959 . S
H46 C42 0.960 . S
H47 C42 0.961 . S
H48 C42 0.960 . S
H49 C45 0.960 . S
H50 C45 0.960 . S
H51 C45 0.959 . S
C52 N53 1.317 . S
C52 N54 1.348 . S
C52 C55 1.485 1_554 S
N53 C52 1.317 . S
N53 N57 1.370 . S
N54 C52 1.348 . S
N54 C56 1.346 . S
C55 C52 1.485 1_556 S
C55 H59 0.960 . S
C55 H60 0.961 . S
C55 H61 0.960 . S
C56 N54 1.346 . S
C56 N57 1.307 . S
C56 C58 1.486 . S
N57 N53 1.370 . S
N57 C56 1.307 . S
C58 C56 1.486 . S
C58 H62 0.960 . S
C58 H63 0.960 . S
C58 H64 0.959 . S
H59 C55 0.960 . S
H60 C55 0.961 . S
H61 C55 0.960 . S
H62 C58 0.960 . S
H63 C58 0.960 . S
H64 C58 0.959 . S
C65 N66 1.317 . S
C65 N67 1.348 . S
C65 C68 1.485 1_554 S
N66 C65 1.317 . S
N66 N70 1.370 . S
N67 C65 1.348 . S
N67 C69 1.346 . S
C68 C65 1.485 1_556 S
C68 H72 0.960 . S
C68 H73 0.961 . S
C68 H74 0.960 . S
C69 N67 1.346 . S
C69 N70 1.307 . S
C69 C71 1.486 . S
N70 N66 1.370 . S
N70 C69 1.307 . S
C71 C69 1.486 . S
C71 H75 0.935 1_455 S
C71 H76 0.960 . S
C71 H77 0.959 . S
H72 C68 0.960 . S
H73 C68 0.961 . S
H74 C68 0.960 . S
H75 C71 0.935 1_655 S
H76 C71 0.960 . S
H77 C71 0.959 . S
C78 N79 1.317 . S
C78 N80 1.348 . S
C78 C81 1.485 1_554 S
N79 C78 1.317 . S
N79 N83 1.370 . S
N80 C78 1.348 . S
N80 C82 1.346 . S
C81 C78 1.485 1_556 S
C81 H85 0.960 . S
C81 H86 0.961 . S
C81 H87 0.960 . S
C82 N80 1.346 . S
C82 N83 1.307 . S
C82 C84 1.486 . S
N83 N79 1.370 . S
N83 C82 1.307 . S
C84 C82 1.486 . S
C84 H88 0.957 . S
C84 H89 0.960 . S
C84 H90 0.959 . S
H85 C81 0.960 . S
H86 C81 0.961 . S
H87 C81 0.960 . S
H88 C84 0.957 . S
H89 C84 0.960 . S
H90 C84 0.959 . S
C91 N92 1.317 . S
C91 N93 1.348 . S
C91 C94 1.485 1_554 S
N92 C91 1.317 . S
N92 N96 1.370 . S
N93 C91 1.348 . S
N93 C95 1.346 . S
C94 C91 1.485 1_556 S
C94 H98 0.960 . S
C94 H99 0.961 . S
C94 H100 0.960 . S
C95 N93 1.346 . S
C95 N96 1.307 . S
C95 C97 1.486 . S
N96 N92 1.370 . S
N96 C95 1.307 . S
C97 C95 1.486 . S
C97 H101 0.960 . S
C97 H102 0.960 . S
C97 H103 0.959 . S
H98 C94 0.960 . S
H99 C94 0.961 . S
H100 C94 0.960 . S
H101 C97 0.960 . S
H102 C97 0.960 . S
H103 C97 0.959 . S
Zn104 O110 1.965 1_455 S
Zn104 O111 1.970 . S
Zn104 O115 2.029 . S
Zn104 O120 1.961 1_455 S
Zn105 O112 1.969 . S
Zn105 O118 1.969 . S
Zn105 O119 1.965 1_455 S
Zn105 O121 2.024 1_455 S
C106 O107 1.229 1_455 S
C106 O115 1.058 . S
O107 C106 1.229 1_655 S
C108 O109 1.229 1_655 S
C108 O121 1.058 . S
O109 C108 1.229 1_455 S
O110 Zn104 1.965 1_655 S
O110 C113 1.279 . S
O111 Zn104 1.970 . S
O111 C122 1.260 . S
O112 Zn105 1.969 . S
O112 C122 1.258 1_565 S
C113 O110 1.279 . S
C113 O114 1.211 1_655 S
O114 C113 1.211 1_455 S
O115 Zn104 2.029 . S
O115 C106 1.058 . S
C116 O117 1.228 1_455 S
C116 O118 1.267 . S
O117 C116 1.228 1_655 S
O118 Zn105 1.969 . S
O118 C116 1.267 . S
O119 Zn105 1.965 1_655 S
O119 C123 1.260 1_565 S
O120 Zn104 1.961 1_655 S
O120 C123 1.258 . S
O121 Zn105 2.024 1_655 S
O121 C108 1.058 . S
C122 O111 1.260 . S
C122 O112 1.258 1_545 S
C123 O119 1.260 1_545 S
C123 O120 1.258 . S
Zn124 O130 1.969 1_545 S
Zn124 O131 1.965 . S
Zn124 O135 2.024 . S
Zn124 O140 1.969 1_545 S
Zn125 O132 1.969 . S
Zn125 O138 1.969 . S
Zn125 O139 1.965 1_545 S
Zn125 O141 2.024 1_545 S
C126 O127 1.229 1_545 S
C126 O135 1.058 . S
O127 C126 1.229 1_565 S
C128 O129 1.229 1_565 S
C128 O141 1.058 . S
O129 C128 1.229 1_545 S
O130 Zn124 1.969 1_565 S
O130 C133 1.257 1_565 S
O131 Zn124 1.965 . S
O131 C142 1.260 . S
O132 Zn125 1.969 . S
O132 C142 1.258 . S
C133 O130 1.257 1_545 S
C133 O134 1.244 . S
O134 C133 1.244 . S
O135 Zn124 2.024 . S
O135 C126 1.058 . S
C136 O137 1.228 1_545 S
C136 O138 1.267 . S
O137 C136 1.228 1_565 S
O138 Zn125 1.969 . S
O138 C136 1.267 . S
O139 Zn125 1.965 1_565 S
O139 C143 1.260 . S
O140 Zn124 1.969 1_565 S
O140 C143 1.258 . S
O141 Zn125 2.024 1_565 S
O141 C128 1.058 . S
C142 O131 1.260 . S
C142 O132 1.258 . S
C143 O139 1.260 . S
C143 O140 1.258 . S
Zn144 O150 1.969 . S
Zn144 O151 1.965 . S
Zn144 O155 2.024 . S
Zn144 O160 1.969 . S
Zn145 O152 1.969 . S
Zn145 O158 1.969 . S
Zn145 O159 1.965 . S
Zn145 O161 2.024 . S
C146 O147 1.229 . S
C146 O155 1.058 . S
O147 C146 1.229 . S
C148 O149 1.229 . S
C148 O161 1.058 . S
O149 C148 1.229 . S
O150 Zn144 1.969 . S
O150 C153 1.267 . S
O151 Zn144 1.965 . S
O151 C162 1.260 . S
O152 Zn145 1.969 . S
O152 C162 1.258 . S
C153 O150 1.267 . S
C153 O154 1.228 . S
O154 C153 1.228 . S
O155 Zn144 2.024 . S
O155 C146 1.058 . S
C156 O157 1.228 . S
C156 O158 1.267 . S
O157 C156 1.228 . S
O158 Zn145 1.969 . S
O158 C156 1.267 . S
O159 Zn145 1.965 . S
O159 C163 1.260 . S
O160 Zn144 1.969 . S
O160 C163 1.258 . S
O161 Zn145 2.024 . S
O161 C148 1.058 . S
C162 O151 1.260 . S
C162 O152 1.258 . S
C163 O159 1.260 . S
C163 O160 1.258 . S
Zn164 O170 1.969 . S
Zn164 O171 1.965 . S
Zn164 O175 2.024 . S
Zn164 O180 1.969 . S
Zn165 O172 1.969 . S
Zn165 O178 1.969 . S
Zn165 O179 1.965 . S
Zn165 O181 2.024 . S
C166 O167 1.229 . S
C166 O175 1.058 . S
O167 C166 1.229 . S
C168 O169 1.229 . S
C168 O181 1.058 . S
O169 C168 1.229 . S
O170 Zn164 1.969 . S
O170 C173 1.267 . S
O171 Zn164 1.965 . S
O171 C182 1.257 1_455 S
O172 Zn165 1.969 . S
O172 C182 1.263 . S
C173 O170 1.267 . S
C173 O174 1.228 . S
O174 C173 1.228 . S
O175 Zn164 2.024 . S
O175 C166 1.058 . S
C176 O177 1.228 . S
C176 O178 1.267 . S
O177 C176 1.228 . S
O178 Zn165 1.969 . S
O178 C176 1.267 . S
O179 Zn165 1.965 . S
O179 C183 1.260 1_655 S
O180 Zn164 1.969 . S
O180 C183 1.258 . S
O181 Zn165 2.024 . S
O181 C168 1.058 . S
C182 O171 1.257 1_655 S
C182 O172 1.263 . S
C183 O179 1.260 1_455 S
C183 O180 1.258 . S
C184 C185 1.369 . S
C184 C186 1.419 . S
C184 H188 0.930 . S
C185 C184 1.369 . S
C185 C194 1.429 . S
C186 C184 1.419 . S
C186 C187 1.363 . S
C186 H189 0.929 . S
C187 C186 1.363 . S
C187 C193 1.428 . S
H188 C184 0.930 . S
H189 C186 0.929 . S
S190 N191 1.613 . S
S190 N192 1.610 . S
N191 S190 1.613 . S
N191 C194 1.350 . S
N192 S190 1.610 . S
N192 C193 1.351 . S
C193 C187 1.428 . S
C193 N192 1.351 . S
C193 C194 1.434 . S
C194 C185 1.429 . S
C194 N191 1.350 . S
C194 C193 1.434 . S
C195 C196 1.369 . S
C195 C197 1.419 . S
C195 H199 0.930 . S
C196 C195 1.369 . S
C196 C205 1.429 . S
C197 C195 1.419 . S
C197 C198 1.363 . S
C197 H200 0.929 . S
C198 C197 1.363 . S
C198 C204 1.428 . S
H199 C195 0.930 . S
H200 C197 0.929 . S
S201 N202 1.613 . S
S201 N203 1.610 . S
N202 S201 1.613 . S
N202 C205 1.350 . S
N203 S201 1.610 . S
N203 C204 1.351 . S
C204 C198 1.428 . S
C204 N203 1.351 . S
C204 C205 1.434 . S
C205 C196 1.429 . S
C205 N202 1.350 . S
C205 C204 1.434 . S
C206 C207 1.369 . S
C206 C208 1.419 . S
C206 H210 0.930 . S
C207 C206 1.369 . S
C207 C216 1.429 . S
C208 C206 1.419 . S
C208 C209 1.363 . S
C208 H211 0.929 . S
C209 C208 1.363 . S
C209 C215 1.428 . S
H210 C206 0.930 . S
H211 C208 0.929 . S
S212 N213 1.613 . S
S212 N214 1.610 . S
N213 S212 1.613 . S
N213 C216 1.350 . S
N214 S212 1.610 . S
N214 C215 1.351 . S
C215 C209 1.428 . S
C215 N214 1.351 . S
C215 C216 1.434 . S
C216 C207 1.429 . S
C216 N213 1.350 . S
C216 C215 1.434 . S
C217 C218 1.369 . S
C217 C219 1.416 1_455 S
C217 H221 0.930 1_455 S
C218 C217 1.369 . S
C218 C227 1.429 . S
C219 C217 1.416 1_655 S
C219 C220 1.357 1_655 S
C219 H222 0.939 . S
C220 C219 1.357 1_455 S
C220 C226 1.428 . S
H221 C217 0.930 1_655 S
H222 C219 0.939 . S
S223 N224 1.613 . S
S223 N225 1.610 . S
N224 S223 1.613 . S
N224 C227 1.350 . S
N225 S223 1.610 . S
N225 C226 1.351 . S
C226 C220 1.428 . S
C226 N225 1.351 . S
C226 C227 1.434 . S
C227 C218 1.429 . S
C227 N224 1.350 . S
C227 C226 1.434 . S
C228 C229 1.369 . S
C228 C230 1.419 . S
C228 H232 0.930 . S
C229 C228 1.369 . S
C229 C238 1.429 1_565 S
C230 C228 1.419 . S
C230 C231 1.363 . S
C230 H233 0.929 . S
C231 C230 1.363 . S
C231 C237 1.428 1_565 S
H232 C228 0.930 . S
H233 C230 0.929 . S
S234 N235 1.613 . S
S234 N236 1.610 . S
N235 S234 1.613 . S
N235 C238 1.350 . S
N236 S234 1.610 . S
N236 C237 1.351 . S
C237 C231 1.428 1_545 S
C237 N236 1.351 . S
C237 C238 1.434 . S
C238 C229 1.429 1_545 S
C238 N235 1.350 . S
C238 C237 1.434 . S
C239 C240 1.369 . S
C239 C241 1.419 . S
C239 H243 0.924 1_556 S
C240 C239 1.369 . S
C240 C249 1.429 . S
C241 C239 1.419 . S
C241 C242 1.363 . S
C241 H244 0.929 . S
C242 C241 1.363 . S
C242 C248 1.428 . S
H243 C239 0.924 1_554 S
H244 C241 0.929 . S
S245 N246 1.613 . S
S245 N247 1.610 . S
N246 S245 1.613 . S
N246 C249 1.350 . S
N247 S245 1.610 . S
N247 C248 1.351 . S
C248 C242 1.428 . S
C248 N247 1.351 . S
C248 C249 1.434 . S
C249 C240 1.429 . S
C249 N246 1.350 . S
C249 C248 1.434 . S
C250 C251 1.369 . S
C250 C252 1.419 . S
C250 H254 0.930 1_556 S
C251 C250 1.369 . S
C251 C260 1.429 . S
C252 C250 1.419 . S
C252 C253 1.363 . S
C252 H255 0.929 . S
C253 C252 1.363 . S
C253 C259 1.428 . S
H254 C250 0.930 1_554 S
H255 C252 0.929 . S
S256 N257 1.613 . S
S256 N258 1.610 . S
N257 S256 1.613 . S
N257 C260 1.350 . S
N258 S256 1.610 . S
N258 C259 1.351 . S
C259 C253 1.428 . S
C259 N258 1.351 . S
C259 C260 1.434 . S
C260 C251 1.429 . S
C260 N257 1.350 . S
C260 C259 1.434 . S
C261 C262 1.369 . S
C261 C263 1.419 1_655 S
C261 H265 0.930 1_655 S
C262 C261 1.369 . S
C262 C271 1.429 . S
C263 C261 1.419 1_455 S
C263 C264 1.363 1_455 S
C263 H266 0.929 . S
C264 C263 1.363 1_655 S
C264 C270 1.428 . S
H265 C261 0.930 1_455 S
H266 C263 0.929 . S
S267 N268 1.613 . S
S267 N269 1.610 1_554 S
N268 S267 1.613 . S
N268 C271 1.350 1_554 S
N269 S267 1.610 1_556 S
N269 C270 1.351 . S
C270 C264 1.428 . S
C270 N269 1.351 . S
C270 C271 1.434 . S
C271 C262 1.429 . S
C271 N268 1.350 1_556 S
C271 C270 1.434 . S
C272 C273 1.369 . S
C272 C274 1.419 . S
C272 H276 0.930 . S
C273 C272 1.369 . S
C273 C282 1.429 1_455 S
C274 C272 1.419 . S
C274 C275 1.363 1_455 S
C274 H277 0.929 . S
C275 C274 1.363 1_655 S
C275 C281 1.428 . S
H276 C272 0.930 . S
H277 C274 0.929 . S
S278 N279 1.613 . S
S278 N280 1.610 . S
N279 S278 1.613 . S
N279 C282 1.350 . S
N280 S278 1.610 . S
N280 C281 1.351 . S
C281 C275 1.428 . S
C281 N280 1.351 . S
C281 C282 1.434 . S
C282 C273 1.429 1_655 S
C282 N279 1.350 . S
C282 C281 1.434 . S
C283 C284 1.369 1_565 S
C283 C285 1.419 . S
C283 H287 0.930 . S
C284 C283 1.369 1_545 S
C284 C293 1.429 . S
C285 C283 1.419 . S
C285 C286 1.363 . S
C285 H288 0.929 . S
C286 C285 1.363 . S
C286 C292 1.428 1_565 S
H287 C283 0.930 . S
H288 C285 0.929 . S
S289 N290 1.613 . S
S289 N291 1.610 . S
N290 S289 1.613 . S
N290 C293 1.350 . S
N291 S289 1.610 . S
N291 C292 1.351 . S
C292 C286 1.428 1_545 S
C292 N291 1.351 . S
C292 C293 1.434 . S
C293 C284 1.429 . S
C293 N290 1.350 . S
C293 C292 1.434 . S
C294 C295 1.369 . S
C294 C296 1.419 . S
C294 H298 0.930 . S
C295 C294 1.369 . S
C295 C304 1.429 . S
C296 C294 1.419 . S
C296 C297 1.363 . S
C296 H299 0.929 . S
C297 C296 1.363 . S
C297 C303 1.428 . S
H298 C294 0.930 . S
H299 C296 0.929 . S
S300 N301 1.613 . S
S300 N302 1.610 . S
N301 S300 1.613 . S
N301 C304 1.350 . S
N302 S300 1.610 . S
N302 C303 1.351 . S
C303 C297 1.428 . S
C303 N302 1.351 . S
C303 C304 1.434 . S
C304 C295 1.429 . S
C304 N301 1.350 . S
C304 C303 1.434 . S
C305 C306 1.369 . S
C305 C307 1.419 . S
C305 H309 0.930 . S
C306 C305 1.369 . S
C306 C315 1.429 . S
C307 C305 1.419 . S
C307 C308 1.363 . S
C307 H310 0.929 . S
C308 C307 1.363 . S
C308 C314 1.428 . S
H309 C305 0.930 . S
H310 C307 0.929 . S
S311 N312 1.613 . S
S311 N313 1.610 . S
N312 S311 1.613 . S
N312 C315 1.350 . S
N313 S311 1.610 . S
N313 C314 1.351 . S
C314 C308 1.428 . S
C314 N313 1.351 . S
C314 C315 1.434 . S
C315 C306 1.429 . S
C315 N312 1.350 . S
C315 C314 1.434 . S
C316 C317 1.369 . S
C316 C318 1.419 . S
C316 H320 0.930 . S
C317 C316 1.369 . S
C317 C326 1.429 1_655 S
C318 C316 1.419 . S
C318 C319 1.363 1_655 S
C318 H321 0.929 . S
C319 C318 1.363 1_455 S
C319 C325 1.428 . S
H320 C316 0.930 . S
H321 C318 0.929 . S
S322 N323 1.613 . S
S322 N324 1.610 . S
N323 S322 1.613 . S
N323 C326 1.350 . S
N324 S322 1.610 . S
N324 C325 1.351 . S
C325 C319 1.428 . S
C325 N324 1.351 . S
C325 C326 1.434 . S
C326 C317 1.429 1_455 S
C326 N323 1.350 . S
C326 C325 1.434 . S
C327 C328 1.369 1_545 S
C327 C329 1.419 . S
C327 H331 0.930 . S
C328 C327 1.369 1_565 S
C328 C337 1.429 . S
C329 C327 1.419 . S
C329 C330 1.363 . S
C329 H332 0.929 . S
C330 C329 1.363 . S
C330 C336 1.428 1_545 S
H331 C327 0.930 . S
H332 C329 0.929 . S
S333 N334 1.613 . S
S333 N335 1.610 . S
N334 S333 1.613 . S
N334 C337 1.350 . S
N335 S333 1.610 . S
N335 C336 1.351 . S
C336 C330 1.428 1_565 S
C336 N335 1.351 . S
C336 C337 1.434 . S
C337 C328 1.429 . S
C337 N334 1.350 . S
C337 C336 1.434 . S
C338 C339 1.369 . S
C338 C340 1.419 . S
C338 H342 0.930 . S
C339 C338 1.369 . S
C339 C348 1.429 . S
C340 C338 1.419 . S
C340 C341 1.363 . S
C340 H343 0.929 . S
C341 C340 1.363 . S
C341 C347 1.428 . S
H342 C338 0.930 . S
H343 C340 0.929 . S
S344 N345 1.613 . S
S344 N346 1.610 . S
N345 S344 1.613 . S
N345 C348 1.350 . S
N346 S344 1.610 . S
N346 C347 1.351 . S
C347 C341 1.428 . S
C347 N346 1.351 . S
C347 C348 1.434 . S
C348 C339 1.429 . S
C348 N345 1.350 . S
C348 C347 1.434 . S
C349 C350 1.369 . S
C349 C351 1.419 . S
C349 H353 0.930 . S
C350 C349 1.369 . S
C350 C359 1.429 . S
C351 C349 1.419 . S
C351 C352 1.363 . S
C351 H354 0.929 . S
C352 C351 1.363 . S
C352 C358 1.428 . S
H353 C349 0.930 . S
H354 C351 0.929 . S
S355 N356 1.613 . S
S355 N357 1.610 . S
N356 S355 1.613 . S
N356 C359 1.350 . S
N357 S355 1.610 . S
N357 C358 1.351 . S
C358 C352 1.428 . S
C358 N357 1.351 . S
C358 C359 1.434 . S
C359 C350 1.429 . S
C359 N356 1.350 . S
C359 C358 1.434 . S
C360 C361 1.369 1_655 S
C360 C362 1.419 . S
C360 H364 0.930 . S
C361 C360 1.369 1_455 S
C361 C370 1.429 . S
C362 C360 1.419 . S
C362 C363 1.363 1_655 S
C362 H365 0.929 . S
C363 C362 1.363 1_455 S
C363 C369 1.428 . S
H364 C360 0.930 . S
H365 C362 0.929 . S
S366 N367 1.613 . S
S366 N368 1.610 . S
N367 S366 1.613 . S
N367 C370 1.350 . S
N368 S366 1.610 . S
N368 C369 1.351 . S
C369 C363 1.428 . S
C369 N368 1.351 . S
C369 C370 1.434 . S
C370 C361 1.429 . S
C370 N367 1.350 . S
C370 C369 1.434 . S
C371 C372 1.369 . S
C371 C373 1.419 . S
C371 H375 0.930 1_545 S
C372 C371 1.369 . S
C372 C381 1.429 1_556 S
C373 C371 1.419 . S
C373 C374 1.363 . S
C373 H376 0.929 1_545 S
C374 C373 1.363 . S
C374 C380 1.428 . S
H375 C371 0.930 1_565 S
H376 C373 0.929 1_565 S
S377 N378 1.613 . S
S377 N379 1.610 . S
N378 S377 1.613 . S
N378 C381 1.350 . S
N379 S377 1.610 . S
N379 C380 1.351 1_554 S
C380 C374 1.428 . S
C380 N379 1.351 1_556 S
C380 C381 1.434 1_556 S
C381 C372 1.429 1_554 S
C381 N378 1.350 . S
C381 C380 1.434 1_554 S
C382 C383 1.369 1_554 S
C382 C384 1.419 1_554 S
C382 H386 0.930 . S
C383 C382 1.369 1_556 S
C383 C392 1.429 . S
C384 C382 1.419 1_556 S
C384 C385 1.363 . S
C384 H387 0.929 . S
C385 C384 1.363 . S
C385 C391 1.428 . S
H386 C382 0.930 . S
H387 C384 0.929 . S
S388 N389 1.613 . S
S388 N390 1.610 . S
N389 S388 1.613 . S
N389 C392 1.350 . S
N390 S388 1.610 . S
N390 C391 1.351 . S
C391 C385 1.428 . S
C391 N390 1.351 . S
C391 C392 1.434 . S
C392 C383 1.429 . S
C392 N389 1.350 . S
C392 C391 1.434 . S
C393 C394 1.369 . S
C393 C395 1.419 . S
C393 H397 0.930 . S
C394 C393 1.369 . S
C394 C403 1.429 1_556 S
C395 C393 1.419 . S
C395 C396 1.363 . S
C395 H398 0.929 . S
C396 C395 1.363 . S
C396 C402 1.428 . S
H397 C393 0.930 . S
H398 C395 0.929 . S
S399 N400 1.613 . S
S399 N401 1.610 . S
N400 S399 1.613 . S
N400 C403 1.350 . S
N401 S399 1.610 . S
N401 C402 1.351 1_554 S
C402 C396 1.428 . S
C402 N401 1.351 1_556 S
C402 C403 1.434 1_556 S
C403 C394 1.429 1_554 S
C403 N400 1.350 . S
C403 C402 1.434 1_554 S
C404 C405 1.369 1_455 S
C404 C406 1.419 . S
C404 H408 0.930 . S
C405 C404 1.369 1_655 S
C405 C414 1.429 . S
C406 C404 1.419 . S
C406 C407 1.363 1_455 S
C406 H409 0.929 . S
C407 C406 1.363 1_655 S
C407 C413 1.428 . S
H408 C404 0.930 . S
H409 C406 0.929 . S
S410 N411 1.613 . S
S410 N412 1.610 . S
N411 S410 1.613 . S
N411 C414 1.350 . S
N412 S410 1.610 . S
N412 C413 1.351 . S
C413 C407 1.428 . S
C413 N412 1.351 . S
C413 C414 1.434 . S
C414 C405 1.429 . S
C414 N411 1.350 . S
C414 C413 1.434 . S
C415 C416 1.369 . S
C415 C417 1.419 . S
C415 H419 0.930 . S
C416 C415 1.369 . S
C416 C425 1.429 1_565 S
C417 C415 1.419 . S
C417 C418 1.363 . S
C417 H420 0.929 . S
C418 C417 1.363 . S
C418 C424 1.428 1_565 S
H419 C415 0.930 . S
H420 C417 0.929 . S
S421 N422 1.613 . S
S421 N423 1.610 . S
N422 S421 1.613 . S
N422 C425 1.350 . S
N423 S421 1.610 . S
N423 C424 1.351 . S
C424 C418 1.428 1_545 S
C424 N423 1.351 . S
C424 C425 1.434 . S
C425 C416 1.429 1_545 S
C425 N422 1.350 . S
C425 C424 1.434 . S
C426 C427 1.369 . S
C426 C428 1.419 . S
C426 H430 0.930 . S
C427 C426 1.369 . S
C427 C436 1.429 . S
C428 C426 1.419 . S
C428 C429 1.363 . S
C428 H431 0.929 . S
C429 C428 1.363 . S
C429 C435 1.428 . S
H430 C426 0.930 . S
H431 C428 0.929 . S
S432 N433 1.613 1_556 S
S432 N434 1.610 1_556 S
N433 S432 1.613 1_554 S
N433 C436 1.350 . S
N434 S432 1.610 1_554 S
N434 C435 1.351 . S
C435 C429 1.428 . S
C435 N434 1.351 . S
C435 C436 1.434 . S
C436 C427 1.429 . S
C436 N433 1.350 . S
C436 C435 1.434 . S
C437 C438 1.369 . S
C437 C439 1.419 . S
C437 H441 0.930 . S
C438 C437 1.369 . S
C438 C447 1.429 . S
C439 C437 1.419 . S
C439 C440 1.363 . S
C439 H442 0.929 . S
C440 C439 1.363 . S
C440 C446 1.428 . S
H441 C437 0.930 . S
H442 C439 0.929 . S
S443 N444 1.613 . S
S443 N445 1.610 . S
N444 S443 1.613 . S
N444 C447 1.350 . S
N445 S443 1.610 . S
N445 C446 1.351 . S
C446 C440 1.428 . S
C446 N445 1.351 . S
C446 C447 1.434 . S
C447 C438 1.429 . S
C447 N444 1.350 . S
C447 C446 1.434 . S
C185 N80 1.566 . S
C187 C122 1.548 . S
C198 C142 1.547 . S
C196 N93 1.565 . S
C209 C162 1.552 . S
C207 N54 1.558 . S
C220 C182 1.553 1_455 S
C218 N67 1.558 . S
C231 C123 1.550 1_565 S
C229 N28 1.565 . S
C240 N41 1.563 . S
C242 C143 1.553 . S
C251 N2 1.563 . S
C253 C163 1.554 . S
C262 N15 1.571 . S
C264 C183 1.547 1_655 S
C275 C113 0.989 . S
C273 N70 1.040 . S
C286 C133 0.976 1_565 S
C284 N83 1.046 . S
C297 C153 0.978 . S
C295 N96 1.046 . S
C306 N57 1.044 . S
C308 C173 0.978 . S
C317 N18 1.041 . S
C319 C116 0.991 . S
C330 C136 0.977 . S
C328 N31 1.047 . S
C341 C156 0.990 . S
C339 N44 1.041 . S
C350 N5 1.048 . S
C352 C176 0.978 . S
C361 N66 1.585 1_556 S
C363 C106 1.443 . S
C372 N79 1.581 1_556 S
C374 C126 1.448 . S
C385 C146 1.440 . S
C383 N92 1.586 1_556 S
C396 C166 1.449 . S
C394 N53 1.579 1_556 S
C405 N14 1.577 . S
C407 C108 1.449 . S
C418 C128 1.441 . S
C416 N27 1.581 . S
C429 C148 1.444 . S
C427 N40 1.579 . S
C438 N1 1.583 . S
C440 C168 1.438 . S
