# Generated by pormake.
# Topology tsx, (6,3)-cn, num edge types: 1
# Building blocks:
#     Node 0, Type 0, BuildingBlock: MIDCAF_clean_sbu_0, # of connection points: 6
#     Node 1, Type 0, BuildingBlock: MIDCAF_clean_sbu_0, # of connection points: 6
#     Node 2, Type 1, BuildingBlock: BETDAH_clean_linker_0, # of connection points: 3
#     Node 3, Type 1, BuildingBlock: BETDAH_clean_linker_0, # of connection points: 3
#     Node 4, Type 1, BuildingBlock: BETDAH_clean_linker_0, # of connection points: 3
#     Node 5, Type 1, BuildingBlock: BETDAH_clean_linker_0, # of connection points: 3
#     Edge 6, Type (0, 1), BuildingBlock: TEMPAE_clean_linker_10, # of connection points: 2
#     Edge 7, Type (0, 1), BuildingBlock: TEMPAE_clean_linker_10, # of connection points: 2
#     Edge 8, Type (0, 1), BuildingBlock: TEMPAE_clean_linker_10, # of connection points: 2
#     Edge 9, Type (0, 1), BuildingBlock: TEMPAE_clean_linker_10, # of connection points: 2
#     Edge 10, Type (0, 1), BuildingBlock: TEMPAE_clean_linker_10, # of connection points: 2
#     Edge 11, Type (0, 1), BuildingBlock: TEMPAE_clean_linker_10, # of connection points: 2
#     Edge 12, Type (0, 1), BuildingBlock: TEMPAE_clean_linker_10, # of connection points: 2
#     Edge 13, Type (0, 1), BuildingBlock: TEMPAE_clean_linker_10, # of connection points: 2
#     Edge 14, Type (0, 1), BuildingBlock: TEMPAE_clean_linker_10, # of connection points: 2
#     Edge 15, Type (0, 1), BuildingBlock: TEMPAE_clean_linker_10, # of connection points: 2
#     Edge 16, Type (0, 1), BuildingBlock: TEMPAE_clean_linker_10, # of connection points: 2
#     Edge 17, Type (0, 1), BuildingBlock: TEMPAE_clean_linker_10, # of connection points: 2
# Relax obj value: 0.079
# Max RMSD: 0.148
# Mean RMSD: 0.108
data_MOF--net-tsx--node1-MIDCAF_clean_sbu_0--node2-BETDAH_clean_linker_0--edge1-TEMPAE_clean_linker_10
_symmetry_space_group_name_H-M    P1
_symmetry_Int_Tables_number       1
_symmetry_cell_setting            triclinic
loop_
_symmetry_equiv_pos_as_xyz
'x, y, z'
_cell_length_a     20.637324
_cell_length_b     21.205772
_cell_length_c     35.503948
_cell_angle_alpha  90.496672
_cell_angle_beta   103.57011
_cell_angle_gamma 90.086274
loop_
_atom_site_label
_atom_site_type_symbol
_atom_site_fract_x
_atom_site_fract_y
_atom_site_fract_z
_atom_type_partial_charge
Zn0 Zn 0.93919 0.9944 0.96018 0.0
Zn1 Zn 0.16891 0.01602 0.05023 0.0
Zn2 Zn 0.05185 0.0118 0.00646 0.0
C3 C 0.13984 0.13743 0.02234 0.0
C4 C 0.18007 0.92778 0.99632 0.0
O5 O 0.98562 0.95932 0.03759 0.0
O6 O 0.8937 0.94375 0.99197 0.0
C7 C 0.95691 0.12527 0.96952 0.0
O8 O 0.08111 0.11328 0.01074 0.0
O9 O 0.18857 0.10337 0.03805 0.0
O10 O 0.21368 0.94811 0.02848 0.0
O11 O 0.12076 0.94926 0.98255 0.0
O12 O 0.91507 0.08387 0.95377 0.0
O13 O 0.01394 0.1086 0.99055 0.0
O14 O 0.06565 0.9636 0.95249 0.0
O15 O 0.96385 0.95453 0.9156 0.0
C16 C 0.02586 0.9481 0.91987 0.0
O17 O 0.04287 0.9794 0.06432 0.0
O18 O 0.14378 0.00041 0.09973 0.0
C19 C 0.92631 0.93598 0.02637 0.0
C20 C 0.08455 0.98281 0.09761 0.0
Zn21 Zn 0.65125 0.51034 0.57124 0.0
Zn22 Zn 0.43808 0.51385 0.45773 0.0
Zn23 Zn 0.54506 0.51448 0.51386 0.0
C24 C 0.53406 0.4537 0.4281 0.0
C25 C 0.47144 0.63982 0.47386 0.0
O26 O 0.51878 0.47183 0.56551 0.0
O27 O 0.61438 0.46351 0.60911 0.0
C28 C 0.68522 0.4472 0.51005 0.0
O29 O 0.5693 0.46825 0.46215 0.0
O30 O 0.4724 0.46516 0.41936 0.0
O31 O 0.43059 0.60604 0.45005 0.0
O32 O 0.51721 0.61403 0.50015 0.0
O33 O 0.711 0.46575 0.54415 0.0
O34 O 0.62392 0.46038 0.49415 0.0
O35 O 0.57758 0.61283 0.52796 0.0
O36 O 0.66215 0.60286 0.57893 0.0
C37 C 0.62389 0.63754 0.55479 0.0
O38 O 0.46389 0.46462 0.53356 0.0
O39 O 0.37604 0.47224 0.48434 0.0
C40 C 0.55206 0.45573 0.59953 0.0
C41 C 0.40178 0.45353 0.51817 0.0
H42 H 0.14104 0.93911 0.37013 0.0
H43 H 0.01935 0.10162 0.37685 0.0
H44 H 0.18125 0.05448 0.47303 0.0
C45 C 0.12757 0.97843 0.38646 0.0
C46 C 0.1662 0.99123 0.42383 0.0
C47 C 0.07512 0.01844 0.36896 0.0
C48 C 0.05947 0.0703 0.39016 0.0
C49 C 0.0974 0.08287 0.42798 0.0
C50 C 0.15146 0.04407 0.44418 0.0
N51 N 0.08412 0.13517 0.45011 0.0
C52 C 0.02311 0.16576 0.44391 0.0
H53 H 0.96275 0.93284 0.64986 0.0
H54 H 0.07348 0.10497 0.65053 0.0
H55 H 0.90716 0.06209 0.55528 0.0
C56 C 0.9725 0.97556 0.63548 0.0
C57 C 0.92992 0.99188 0.59999 0.0
C58 C 0.02378 0.01641 0.65418 0.0
C59 C 0.03457 0.0728 0.63599 0.0
C60 C 0.99301 0.08881 0.59991 0.0
C61 C 0.93999 0.04895 0.58261 0.0
N62 N 0.0014 0.14574 0.58098 0.0
C63 C 0.06186 0.1773 0.5861 0.0
H64 H 0.63503 0.44351 0.86795 0.0
H65 H 0.442 0.50682 0.87827 0.0
H66 H 0.59093 0.45688 0.98027 0.0
C67 C 0.60135 0.45667 0.88598 0.0
C68 C 0.62151 0.44915 0.92626 0.0
C69 C 0.5364 0.47638 0.86844 0.0
C70 C 0.49215 0.49164 0.89171 0.0
C71 C 0.51235 0.4857 0.93223 0.0
C72 C 0.57629 0.46309 0.94914 0.0
N73 N 0.46883 0.49986 0.95666 0.0
C74 C 0.41878 0.54487 0.94801 0.0
H75 H 0.48575 0.41156 0.16318 0.0
H76 H 0.63813 0.54624 0.1566 0.0
H77 H 0.48513 0.50113 0.05468 0.0
C78 C 0.5084 0.44295 0.14595 0.0
C79 C 0.47807 0.45174 0.10657 0.0
C80 C 0.56608 0.47663 0.16394 0.0
C81 C 0.59428 0.5195 0.14241 0.0
C82 C 0.5651 0.52798 0.10277 0.0
C83 C 0.50714 0.49432 0.08524 0.0
N84 N 0.59174 0.57026 0.0795 0.0
C85 C 0.64941 0.60609 0.09191 0.0
C86 C 0.19638 0.22061 0.99453 0.0
C87 C 0.15391 0.20461 0.01847 0.0
C88 C 0.23826 0.2736 0.00282 0.0
C89 C 0.23786 0.31068 0.0361 0.0
C90 C 0.18798 0.2999 0.05682 0.0
C91 C 0.14657 0.24648 0.04784 0.0
C92 C 0.28906 0.28452 0.97914 0.0
C93 C 0.1841 0.33983 0.09155 0.0
C94 C 0.41002 0.35262 0.09644 0.0
C95 C 0.41609 0.41648 0.08806 0.0
C96 C 0.35197 0.31845 0.08 0.0
C97 C 0.29817 0.34867 0.05431 0.0
C98 C 0.30371 0.41327 0.04571 0.0
C99 C 0.36279 0.44634 0.06254 0.0
C100 C 0.34864 0.24952 0.08996 0.0
C101 C 0.24817 0.44746 0.01831 0.0
H102 H 0.2023 0.18782 0.97196 0.0
H103 H 0.1141 0.23374 0.06658 0.0
H104 H 0.29462 0.3356 0.97417 0.0
H105 H 0.33825 0.26668 0.99521 0.0
H106 H 0.27526 0.25973 0.95067 0.0
H107 H 0.13523 0.33431 0.09925 0.0
H108 H 0.22394 0.32529 0.11676 0.0
H109 H 0.19206 0.39037 0.08609 0.0
H110 H 0.45129 0.32895 0.11559 0.0
H111 H 0.36683 0.49586 0.05614 0.0
H112 H 0.34172 0.22016 0.06328 0.0
H113 H 0.30523 0.24092 0.1027 0.0
H114 H 0.39437 0.23347 0.11087 0.0
H115 H 0.25217 0.43855 0.9881 0.0
H116 H 0.25138 0.4992 0.02355 0.0
H117 H 0.19845 0.43068 0.02086 0.0
C118 C 0.27789 0.86658 0.98706 0.0
C119 C 0.20881 0.87651 0.97676 0.0
C120 C 0.30624 0.81213 0.97527 0.0
C121 C 0.26463 0.76644 0.95215 0.0
C122 C 0.19547 0.77841 0.93904 0.0
C123 C 0.16818 0.83315 0.95182 0.0
C124 C 0.38027 0.8016 0.98992 0.0
C125 C 0.14961 0.73172 0.91355 0.0
C126 C 0.36465 0.63975 0.91521 0.0
C127 C 0.37079 0.59507 0.94456 0.0
C128 C 0.32558 0.69403 0.91542 0.0
C129 C 0.29319 0.7037 0.94606 0.0
C130 C 0.29655 0.65644 0.97447 0.0
C131 C 0.33542 0.60258 0.97332 0.0
C132 C 0.32231 0.74266 0.88427 0.0
C133 C 0.26294 0.66473 0.00765 0.0
H134 H 0.30979 0.90023 0.00596 0.0
H135 H 0.11474 0.84002 0.94401 0.0
H136 H 0.38877 0.76143 0.01031 0.0
H137 H 0.40324 0.78926 0.96557 0.0
H138 H 0.40629 0.84374 0.00519 0.0
H139 H 0.10141 0.75366 0.8991 0.0
H140 H 0.17317 0.7117 0.89106 0.0
H141 H 0.13913 0.69213 0.93149 0.0
H142 H 0.39239 0.63352 0.89301 0.0
H143 H 0.34064 0.56768 0.99598 0.0
H144 H 0.35403 0.7837 0.89639 0.0
H145 H 0.2706 0.76013 0.87379 0.0
H146 H 0.34003 0.72355 0.85924 0.0
H147 H 0.28674 0.70438 0.02653 0.0
H148 H 0.26623 0.62168 0.0256 0.0
H149 H 0.20964 0.67677 0.99652 0.0
C150 C 0.8259 0.89312 0.044 0.0
C151 C 0.89558 0.89687 0.05185 0.0
C152 C 0.79392 0.8463 0.0605 0.0
C153 C 0.83258 0.80232 0.08601 0.0
C154 C 0.90277 0.81002 0.09734 0.0
C155 C 0.93371 0.85696 0.07971 0.0
C156 C 0.71891 0.84057 0.0477 0.0
C157 C 0.9457 0.76604 0.12575 0.0
C158 C 0.71778 0.69491 0.12534 0.0
C159 C 0.70646 0.64735 0.09697 0.0
C160 C 0.76483 0.74291 0.12493 0.0
C161 C 0.79953 0.7436 0.09488 0.0
C162 C 0.79169 0.69245 0.06816 0.0
C163 C 0.74515 0.64487 0.06961 0.0
C164 C 0.77351 0.79526 0.15475 0.0
C165 C 0.82772 0.69093 0.03573 0.0
H166 H 0.79617 0.92469 0.02298 0.0
H167 H 0.98763 0.8597 0.08598 0.0
H168 H 0.70555 0.79716 0.02985 0.0
H169 H 0.69674 0.83651 0.07315 0.0
H170 H 0.69599 0.88153 0.03028 0.0
H171 H 0.99386 0.78871 0.14011 0.0
H172 H 0.91997 0.75071 0.14829 0.0
H173 H 0.95674 0.72339 0.11008 0.0
H174 H 0.68765 0.6964 0.14658 0.0
H175 H 0.73603 0.60777 0.04774 0.0
H176 H 0.74331 0.83648 0.14215 0.0
H177 H 0.82634 0.81078 0.16356 0.0
H178 H 0.75682 0.78045 0.1809 0.0
H179 H 0.808 0.72869 0.01471 0.0
H180 H 0.82149 0.64498 0.01999 0.0
H181 H 0.88171 0.7 0.0472 0.0
C182 C 0.94913 0.23481 0.99568 0.0
C183 C 0.93547 0.19172 0.96465 0.0
C184 C 0.91151 0.29061 0.99425 0.0
C185 C 0.85897 0.3024 0.96133 0.0
C186 C 0.85043 0.26216 0.92848 0.0
C187 C 0.88917 0.20777 0.93051 0.0
C188 C 0.9246 0.33386 0.02914 0.0
C189 C 0.79566 0.27272 0.89251 0.0
C190 C 0.69013 0.36555 0.96551 0.0
C191 C 0.68716 0.42024 0.94339 0.0
C192 C 0.7486 0.32956 0.97499 0.0
C193 C 0.80582 0.34939 0.96256 0.0
C194 C 0.80514 0.40824 0.94395 0.0
C195 C 0.74538 0.44253 0.93395 0.0
C196 C 0.74684 0.26714 0.99488 0.0
C197 C 0.86586 0.43269 0.93191 0.0
H198 H 0.9852 0.22273 0.02208 0.0
H199 H 0.87947 0.17496 0.9062 0.0
H200 H 0.91377 0.38368 0.02063 0.0
H201 H 0.89187 0.32016 0.04844 0.0
H202 H 0.97715 0.33028 0.04594 0.0
H203 H 0.79863 0.2393 0.86871 0.0
H204 H 0.74637 0.26668 0.89953 0.0
H205 H 0.79804 0.32142 0.88184 0.0
H206 H 0.6452 0.34825 0.97285 0.0
H207 H 0.74346 0.48549 0.91739 0.0
H208 H 0.79111 0.26225 0.01934 0.0
H209 H 0.74818 0.22811 0.97404 0.0
H210 H 0.70126 0.26162 0.00613 0.0
H211 H 0.91217 0.4209 0.95371 0.0
H212 H 0.8635 0.4846 0.92786 0.0
H213 H 0.86885 0.41038 0.904 0.0
C214 C 0.6649 0.73533 0.5911 0.0
C215 C 0.63914 0.70542 0.55543 0.0
C216 C 0.69939 0.79258 0.59312 0.0
C217 C 0.70944 0.81967 0.55862 0.0
C218 C 0.67678 0.79341 0.52227 0.0
C219 C 0.64141 0.73643 0.52109 0.0
C220 C 0.73141 0.82007 0.63248 0.0
C221 C 0.68524 0.82135 0.4848 0.0
C222 C 0.8075 0.97317 0.57486 0.0
C223 C 0.87297 0.95025 0.58267 0.0
C224 C 0.75281 0.93175 0.56441 0.0
C225 C 0.76435 0.86628 0.56151 0.0
C226 C 0.8305 0.84384 0.5666 0.0
C227 C 0.88397 0.88606 0.57744 0.0
C228 C 0.68324 0.95761 0.55923 0.0
C229 C 0.84514 0.77453 0.56307 0.0
H230 H 0.66224 0.71161 0.61765 0.0
H231 H 0.62131 0.7133 0.49344 0.0
H232 H 0.78567 0.80998 0.63945 0.0
H233 H 0.72531 0.87202 0.63263 0.0
H234 H 0.70997 0.79979 0.65566 0.0
H235 H 0.64492 0.80565 0.45987 0.0
H236 H 0.68579 0.87362 0.48622 0.0
H237 H 0.73364 0.80579 0.47944 0.0
H238 H 0.79908 0.02294 0.57904 0.0
H239 H 0.93469 0.86862 0.58309 0.0
H240 H 0.66574 0.94956 0.58606 0.0
H241 H 0.64788 0.93328 0.53509 0.0
H242 H 0.68167 0.0091 0.55356 0.0
H243 H 0.83223 0.74859 0.58734 0.0
H244 H 0.89848 0.7658 0.56379 0.0
H245 H 0.8143 0.7547 0.53565 0.0
C246 C 0.79598 0.41796 0.49944 0.0
C247 C 0.72672 0.40912 0.48977 0.0
C248 C 0.83823 0.37718 0.48535 0.0
C249 C 0.81057 0.32624 0.46074 0.0
C250 C 0.74038 0.31928 0.44889 0.0
C251 C 0.69917 0.36048 0.46397 0.0
C252 C 0.91276 0.38666 0.49862 0.0
C253 C 0.70887 0.26641 0.4221 0.0
C254 C 0.93923 0.24592 0.41618 0.0
C255 C 0.96242 0.19935 0.44366 0.0
C256 C 0.88574 0.28493 0.41952 0.0
C257 C 0.85601 0.27722 0.45136 0.0
C258 C 0.87721 0.2275 0.47781 0.0
C259 C 0.93037 0.18916 0.47361 0.0
C260 C 0.86387 0.33675 0.39045 0.0
C261 C 0.84701 0.21754 0.51215 0.0
H262 H 0.81745 0.45582 0.51919 0.0
H263 H 0.64574 0.3529 0.45687 0.0
H264 H 0.93507 0.34666 0.51713 0.0
H265 H 0.93575 0.38753 0.47336 0.0
H266 H 0.92598 0.43113 0.51547 0.0
H267 H 0.65505 0.27501 0.40956 0.0
H268 H 0.73442 0.26009 0.3981 0.0
H269 H 0.71382 0.22167 0.43849 0.0
H270 H 0.96448 0.25343 0.39302 0.0
H271 H 0.94881 0.1529 0.49478 0.0
H272 H 0.88173 0.38288 0.40398 0.0
H273 H 0.80867 0.33898 0.38142 0.0
H274 H 0.88398 0.33011 0.36428 0.0
H275 H 0.86215 0.25682 0.53326 0.0
H276 H 0.86325 0.17248 0.52711 0.0
H277 H 0.79181 0.21765 0.50293 0.0
C278 C 0.38647 0.36973 0.5649 0.0
C279 C 0.35961 0.41726 0.5387 0.0
C280 C 0.3447 0.32966 0.58007 0.0
C281 C 0.27463 0.33668 0.568 0.0
C282 C 0.24764 0.38669 0.5431 0.0
C283 C 0.29046 0.42635 0.52886 0.0
C284 C 0.37553 0.27769 0.60712 0.0
C285 C 0.17324 0.39622 0.52964 0.0
C286 C 0.15395 0.19961 0.55581 0.0
C287 C 0.12218 0.21119 0.5858 0.0
C288 C 0.20716 0.23765 0.55131 0.0
C289 C 0.22864 0.28848 0.57751 0.0
C290 C 0.19905 0.29774 0.60934 0.0
C291 C 0.14554 0.25898 0.61298 0.0
C292 C 0.23728 0.22596 0.51702 0.0
C293 C 0.22119 0.35079 0.63813 0.0
H294 H 0.43972 0.36162 0.57196 0.0
H295 H 0.26949 0.46339 0.50884 0.0
H296 H 0.34957 0.27241 0.63096 0.0
H297 H 0.3705 0.23234 0.59084 0.0
H298 H 0.42934 0.28653 0.61985 0.0
H299 H 0.16059 0.44011 0.51267 0.0
H300 H 0.15064 0.35566 0.51119 0.0
H301 H 0.15005 0.39826 0.55481 0.0
H302 H 0.13536 0.16237 0.53489 0.0
H303 H 0.1205 0.26751 0.63619 0.0
H304 H 0.29248 0.22564 0.52634 0.0
H305 H 0.22296 0.26466 0.49588 0.0
H306 H 0.22029 0.18054 0.50207 0.0
H307 H 0.2764 0.35312 0.64719 0.0
H308 H 0.20098 0.3455 0.66431 0.0
H309 H 0.20365 0.39636 0.62433 0.0
C310 C 0.45131 0.73854 0.50745 0.0
C311 C 0.45922 0.70813 0.47366 0.0
C312 C 0.41541 0.79525 0.50522 0.0
C313 C 0.38825 0.82195 0.46845 0.0
C314 C 0.40468 0.79577 0.43508 0.0
C315 C 0.43929 0.73861 0.43804 0.0
C316 C 0.39989 0.82204 0.54159 0.0
C317 C 0.37885 0.82383 0.39547 0.0
C318 C 0.21224 0.88486 0.44272 0.0
C319 C 0.22295 0.94973 0.44069 0.0
C320 C 0.26581 0.84338 0.45426 0.0
C321 C 0.33193 0.8673 0.46327 0.0
C322 C 0.34289 0.93322 0.46302 0.0
C323 C 0.28801 0.97386 0.45188 0.0
C324 C 0.25159 0.77351 0.45484 0.0
C325 C 0.4124 0.96061 0.47211 0.0
H326 H 0.46678 0.71483 0.53503 0.0
H327 H 0.44607 0.71515 0.41197 0.0
H328 H 0.39982 0.87434 0.54128 0.0
H329 H 0.34944 0.80615 0.54336 0.0
H330 H 0.43625 0.80582 0.56796 0.0
H331 H 0.40567 0.80509 0.37406 0.0
H332 H 0.32512 0.81226 0.38501 0.0
H333 H 0.3838 0.87593 0.39672 0.0
H334 H 0.16178 0.86646 0.43437 0.0
H335 H 0.29615 0.02416 0.45012 0.0
H336 H 0.27869 0.75291 0.4827 0.0
H337 H 0.26938 0.74942 0.4313 0.0
H338 H 0.19756 0.76331 0.45079 0.0
H339 H 0.44515 0.93625 0.49695 0.0
H340 H 0.41235 0.01189 0.47877 0.0
H341 H 0.43435 0.95391 0.44668 0.0
C342 C 0.11319 0.95968 0.16795 0.0
C343 C 0.06394 0.97143 0.13423 0.0
C344 C 0.09865 0.9615 0.20449 0.0
C345 C 0.0327 0.97429 0.2075 0.0
C346 C 0.9814 0.98053 0.17335 0.0
C347 C 0.99784 0.98007 0.13703 0.0
C348 C 0.15512 0.9541 0.24 0.0
C349 C 0.90995 0.99153 0.17499 0.0
C350 C 0.02558 0.94976 0.31146 0.0
C351 C 0.04399 0.01004 0.32704 0.0
C352 C 0.01319 0.93849 0.27134 0.0
C353 C 0.02097 0.98837 0.24653 0.0
C354 C 0.03228 0.05049 0.26173 0.0
C355 C 0.04339 0.06062 0.30185 0.0
C356 C 0.99799 0.8722 0.25602 0.0
C357 C 0.04006 0.10525 0.23625 0.0
H358 H 0.16425 0.95214 0.16598 0.0
H359 H 0.95952 0.98979 0.11119 0.0
H360 H 0.16248 -0.00113 0.25692 0.0
H361 H 0.14293 0.91692 0.25902 0.0
H362 H 0.20288 0.94159 0.23254 0.0
H363 H 0.87504 0.97456 0.14801 0.0
H364 H 0.89771 0.96761 0.20013 0.0
H365 H 0.90174 0.04285 0.17793 0.0
H366 H 0.02475 0.9107 0.33085 0.0
H367 H 0.05751 0.10728 0.31371 0.0
H368 H 0.04429 0.85002 0.25154 0.0
H369 H 0.96119 0.87232 0.22765 0.0
H370 H 0.97838 0.8427 0.27659 0.0
H371 H 0.0878 0.10054 0.22719 0.0
H372 H 0.04022 0.15132 0.25142 0.0
H373 H 0.99921 0.10524 0.20964 0.0
C374 C 0.11491 0.95254 0.88233 0.0
C375 C 0.05107 0.93325 0.88501 0.0
C376 C 0.13079 0.9574 0.846 0.0
C377 C 0.08106 0.94431 0.81188 0.0
C378 C 0.01951 0.91775 0.81493 0.0
C379 C 0.0058 0.91165 0.8515 0.0
C380 C 0.19862 0.98182 0.84419 0.0
C381 C 0.96496 0.90238 0.77947 0.0
C382 C 0.05024 0.04753 0.72364 0.0
C383 C 0.05753 0.00407 0.69507 0.0
C384 C 0.06392 0.03035 0.76275 0.0
C385 C 0.08692 0.96859 0.77356 0.0
C386 C 0.10211 0.92726 0.74532 0.0
C387 C 0.08591 0.94502 0.70617 0.0
C388 C 0.0468 0.07611 0.79177 0.0
C389 C 0.13027 0.86247 0.75582 0.0
H390 H 0.1507 0.96855 0.90809 0.0
H391 H 0.95693 0.89517 0.85344 0.0
H392 H 0.21461 0.96211 0.81877 0.0
H393 H 0.19679 0.0339 0.84155 0.0
H394 H 0.23657 0.97009 0.87097 0.0
H395 H 0.92172 0.87847 0.78689 0.0
H396 H 0.9471 0.94653 0.76388 0.0
H397 H 0.98421 0.87151 0.75927 0.0
H398 H 0.02802 0.09306 0.71505 0.0
H399 H 0.09216 0.91154 0.68405 0.0
H400 H 0.08897 0.08068 0.81754 0.0
H401 H 0.00321 0.05804 0.80175 0.0
H402 H 0.03448 0.12372 0.77935 0.0
H403 H 0.16364 0.86221 0.78531 0.0
H404 H 0.15846 0.84531 0.73469 0.0
H405 H 0.08892 0.82879 0.75537 0.0
C406 C 0.54964 0.39744 0.6593 0.0
C407 C 0.51844 0.43926 0.63045 0.0
C408 C 0.53441 0.39788 0.69572 0.0
C409 C 0.48792 0.44223 0.70357 0.0
C410 C 0.45013 0.47869 0.67293 0.0
C411 C 0.46566 0.4765 0.63644 0.0
C412 C 0.57404 0.35628 0.72708 0.0
C413 C 0.39907 0.5255 0.67975 0.0
C414 C 0.46282 0.43694 0.80629 0.0
C415 C 0.51475 0.47654 0.82564 0.0
C416 C 0.45027 0.42777 0.76591 0.0
C417 C 0.49039 0.45943 0.74466 0.0
C418 C 0.53964 0.50296 0.76392 0.0
C419 C 0.55159 0.51048 0.80421 0.0
C420 C 0.39747 0.38094 0.74664 0.0
C421 C 0.58276 0.53879 0.74236 0.0
H422 H 0.58997 0.3681 0.65444 0.0
H423 H 0.44134 0.50881 0.61406 0.0
H424 H 0.61296 0.38498 0.74678 0.0
H425 H 0.54149 0.33577 0.74465 0.0
H426 H 0.59897 0.31729 0.7149 0.0
H427 H 0.36363 0.53832 0.65221 0.0
H428 H 0.37058 0.50666 0.70009 0.0
H429 H 0.42496 0.56909 0.69291 0.0
H430 H 0.43465 0.4103 0.823 0.0
H431 H 0.59152 0.54127 0.81926 0.0
H432 H 0.42156 0.33541 0.74267 0.0
H433 H 0.37052 0.3972 0.71756 0.0
H434 H 0.36078 0.37233 0.76447 0.0
H435 H 0.61642 0.50549 0.73204 0.0
H436 H 0.6138 0.57537 0.76082 0.0
H437 H 0.5514 0.56196 0.71654 0.0
C438 C 0.52475 0.403 0.36396 0.0
C439 C 0.5649 0.43327 0.3964 0.0
C440 C 0.54258 0.40229 0.32829 0.0
C441 C 0.6031 0.4311 0.32528 0.0
C442 C 0.6483 0.45335 0.35923 0.0
C443 C 0.62804 0.45549 0.3944 0.0
C444 C 0.49289 0.37727 0.29305 0.0
C445 C 0.71538 0.48019 0.3579 0.0
C446 C 0.62249 0.41538 0.22222 0.0
C447 C 0.59162 0.47097 0.2062 0.0
C448 C 0.63396 0.40441 0.26226 0.0
C449 C 0.61119 0.4489 0.28615 0.0
C450 C 0.58428 0.50706 0.27025 0.0
C451 C 0.57544 0.51756 0.23045 0.0
C452 C 0.66607 0.34339 0.27828 0.0
C453 C 0.55903 0.55589 0.29451 0.0
H454 H 0.47633 0.38482 0.36558 0.0
H455 H 0.65945 0.47907 0.4193 0.0
H456 H 0.47232 0.41705 0.27383 0.0
H457 H 0.51748 0.34464 0.27625 0.0
H458 H 0.45078 0.35192 0.30083 0.0
H459 H 0.75131 0.47602 0.38648 0.0
H460 H 0.73624 0.45597 0.33556 0.0
H461 H 0.70998 0.53095 0.35056 0.0
H462 H 0.63509 0.37945 0.20325 0.0
H463 H 0.55126 0.56031 0.21777 0.0
H464 H 0.62686 0.30749 0.27808 0.0
H465 H 0.69537 0.34942 0.30859 0.0
H466 H 0.69935 0.32491 0.2603 0.0
H467 H 0.51567 0.53655 0.3042 0.0
H468 H 0.54332 0.60001 0.27831 0.0
H469 H 0.5982 0.56773 0.3208 0.0
loop_
_geom_bond_atom_site_label_1
_geom_bond_atom_site_label_2
_geom_bond_distance
_geom_bond_site_symmetry_2
_ccdc_geom_bond_type
Zn0 O6 1.920 1_545 S
Zn0 O12 1.898 . S
Zn0 O15 1.905 1_545 S
Zn1 O9 1.905 . S
Zn1 O10 1.898 1_545 S
Zn1 O18 1.920 1_545 S
Zn2 O5 2.080 1_445 S
Zn2 O8 2.114 . S
Zn2 O11 2.120 1_545 S
Zn2 O13 2.120 1_455 S
Zn2 O14 2.114 1_554 S
Zn2 O17 2.080 . S
C3 O8 1.166 . S
C3 O9 1.182 . S
C4 O10 1.167 . S
C4 O11 1.299 . S
O5 Zn2 2.080 1_665 S
O5 C19 1.305 . S
O6 Zn0 1.920 1_565 S
O6 C19 1.234 1_556 S
C7 O12 1.167 . S
C7 O13 1.299 1_556 S
O8 Zn2 2.114 . S
O8 C3 1.166 . S
O9 Zn1 1.905 . S
O9 C3 1.182 . S
O10 Zn1 1.898 1_565 S
O10 C4 1.167 . S
O11 Zn2 2.120 1_565 S
O11 C4 1.299 . S
O12 Zn0 1.898 . S
O12 C7 1.167 . S
O13 Zn2 2.120 1_655 S
O13 C7 1.299 1_554 S
O14 Zn2 2.114 1_556 S
O14 C16 1.163 1_445 S
O15 Zn0 1.905 1_565 S
O15 C16 1.191 . S
C16 O14 1.163 1_665 S
C16 O15 1.191 . S
O17 Zn2 2.080 . S
O17 C20 1.305 1_545 S
O18 Zn1 1.920 1_565 S
O18 C20 1.234 . S
C19 O5 1.305 . S
C19 O6 1.234 1_554 S
C20 O17 1.305 1_565 S
C20 O18 1.234 . S
Zn21 O27 1.920 . S
Zn21 O33 1.898 . S
Zn21 O36 1.905 . S
Zn22 O30 1.905 . S
Zn22 O31 1.898 . S
Zn22 O39 1.920 . S
Zn23 O26 2.080 . S
Zn23 O29 2.114 . S
Zn23 O32 2.120 . S
Zn23 O34 2.120 . S
Zn23 O35 2.114 . S
Zn23 O38 2.080 . S
C24 O29 1.166 . S
C24 O30 1.182 . S
C25 O31 1.167 . S
C25 O32 1.299 . S
O26 Zn23 2.080 . S
O26 C40 1.305 . S
O27 Zn21 1.920 . S
O27 C40 1.234 . S
C28 O33 1.167 . S
C28 O34 1.299 . S
O29 Zn23 2.114 . S
O29 C24 1.166 . S
O30 Zn22 1.905 . S
O30 C24 1.182 . S
O31 Zn22 1.898 . S
O31 C25 1.167 . S
O32 Zn23 2.120 . S
O32 C25 1.299 . S
O33 Zn21 1.898 . S
O33 C28 1.167 . S
O34 Zn23 2.120 . S
O34 C28 1.299 . S
O35 Zn23 2.114 . S
O35 C37 1.166 . S
O36 Zn21 1.905 . S
O36 C37 1.182 . S
C37 O35 1.166 . S
C37 O36 1.182 . S
O38 Zn23 2.080 . S
O38 C41 1.305 . S
O39 Zn22 1.920 . S
O39 C41 1.234 . S
C40 O26 1.305 . S
C40 O27 1.234 . S
C41 O38 1.305 . S
C41 O39 1.234 . S
H42 C45 0.929 . S
H43 C48 0.929 . S
H44 C50 0.930 1_565 S
C45 H42 0.929 . S
C45 C46 1.398 . S
C45 C47 1.396 1_565 S
C46 C45 1.398 . S
C46 C50 1.407 1_565 S
C47 C45 1.396 1_545 S
C47 C48 1.394 . S
C48 H43 0.929 . S
C48 C47 1.394 . S
C48 C49 1.382 . S
C49 C48 1.382 . S
C49 C50 1.392 . S
C49 N51 1.420 . S
C50 H44 0.930 1_545 S
C50 C46 1.407 1_545 S
C50 C49 1.392 . S
N51 C49 1.420 . S
N51 C52 1.244 . S
C52 N51 1.244 . S
H53 C56 0.929 . S
H54 C59 0.929 . S
H55 C61 0.930 . S
C56 H53 0.929 . S
C56 C57 1.398 . S
C56 C58 1.396 1_565 S
C57 C56 1.398 . S
C57 C61 1.407 . S
C58 C56 1.396 1_545 S
C58 C59 1.394 1_655 S
C59 H54 0.929 . S
C59 C58 1.394 1_455 S
C59 C60 1.382 . S
C60 C59 1.382 . S
C60 C61 1.392 1_445 S
C60 N62 1.420 . S
C61 H55 0.930 . S
C61 C57 1.407 . S
C61 C60 1.392 1_665 S
N62 C60 1.420 . S
N62 C63 1.244 . S
C63 N62 1.244 . S
H64 C67 0.929 . S
H65 C70 0.929 . S
H66 C72 0.930 . S
C67 H64 0.929 . S
C67 C68 1.398 . S
C67 C69 1.396 . S
C68 C67 1.398 . S
C68 C72 1.407 . S
C69 C67 1.396 . S
C69 C70 1.394 . S
C70 H65 0.929 . S
C70 C69 1.394 . S
C70 C71 1.382 . S
C71 C70 1.382 . S
C71 C72 1.392 . S
C71 N73 1.420 . S
C72 H66 0.930 . S
C72 C68 1.407 . S
C72 C71 1.392 . S
N73 C71 1.420 . S
N73 C74 1.244 . S
C74 N73 1.244 . S
H75 C78 0.929 . S
H76 C81 0.929 . S
H77 C83 0.930 . S
C78 H75 0.929 . S
C78 C79 1.398 . S
C78 C80 1.396 . S
C79 C78 1.398 . S
C79 C83 1.407 . S
C80 C78 1.396 . S
C80 C81 1.394 . S
C81 H76 0.929 . S
C81 C80 1.394 . S
C81 C82 1.382 . S
C82 C81 1.382 . S
C82 C83 1.392 . S
C82 N84 1.420 . S
C83 H77 0.930 . S
C83 C79 1.407 . S
C83 C82 1.392 . S
N84 C82 1.420 . S
N84 C85 1.244 . S
C85 N84 1.244 . S
C86 C87 1.391 . S
C86 C88 1.394 . S
C86 H102 0.931 . S
C87 C86 1.391 . S
C87 C91 1.376 . S
C88 C86 1.394 . S
C88 C89 1.369 . S
C88 C92 1.531 . S
C89 C88 1.369 . S
C89 C90 1.410 . S
C89 C97 1.503 . S
C90 C89 1.410 . S
C90 C91 1.392 . S
C90 C93 1.511 . S
C91 C87 1.376 . S
C91 C90 1.392 . S
C91 H103 0.929 . S
C92 C88 1.531 . S
C92 H104 0.960 . S
C92 H105 0.962 . S
C92 H106 0.960 1_554 S
C93 C90 1.511 . S
C93 H107 0.961 . S
C93 H108 0.961 . S
C93 H109 0.961 . S
C94 C95 1.370 . S
C94 C96 1.363 . S
C94 H110 0.931 . S
C95 C94 1.370 . S
C95 C99 1.408 . S
C96 C94 1.363 . S
C96 C97 1.370 . S
C96 C100 1.524 . S
C97 C89 1.503 . S
C97 C96 1.370 . S
C97 C98 1.403 . S
C98 C97 1.403 . S
C98 C99 1.404 . S
C98 C101 1.539 1_554 S
C99 C95 1.408 . S
C99 C98 1.404 . S
C99 H111 0.930 . S
C100 C96 1.524 . S
C100 H112 0.956 . S
C100 H113 0.961 . S
C100 H114 0.961 . S
C101 C98 1.539 1_556 S
C101 H115 0.958 . S
C101 H116 0.961 . S
C101 H117 0.960 . S
H102 C86 0.931 . S
H103 C91 0.929 . S
H104 C92 0.960 . S
H105 C92 0.962 . S
H106 C92 0.960 1_556 S
H107 C93 0.961 . S
H108 C93 0.961 . S
H109 C93 0.961 . S
H110 C94 0.931 . S
H111 C99 0.930 . S
H112 C100 0.956 . S
H113 C100 0.961 . S
H114 C100 0.961 . S
H115 C101 0.958 . S
H116 C101 0.961 . S
H117 C101 0.960 . S
C118 C119 1.391 1_554 S
C118 C120 1.394 . S
C118 H134 0.931 . S
C119 C118 1.391 1_556 S
C119 C123 1.376 . S
C120 C118 1.394 . S
C120 C121 1.369 1_554 S
C120 C124 1.531 . S
C121 C120 1.369 1_556 S
C121 C122 1.410 . S
C121 C129 1.503 . S
C122 C121 1.410 . S
C122 C123 1.392 . S
C122 C125 1.511 . S
C123 C119 1.376 . S
C123 C122 1.392 . S
C123 H135 0.929 . S
C124 C120 1.531 . S
C124 H136 0.960 . S
C124 H137 0.962 . S
C124 H138 0.960 . S
C125 C122 1.511 . S
C125 H139 0.961 . S
C125 H140 0.961 . S
C125 H141 0.961 . S
C126 C127 1.370 . S
C126 C128 1.363 . S
C126 H142 0.931 . S
C127 C126 1.370 . S
C127 C131 1.408 . S
C128 C126 1.363 . S
C128 C129 1.370 . S
C128 C132 1.524 . S
C129 C121 1.503 . S
C129 C128 1.370 . S
C129 C130 1.403 . S
C130 C129 1.403 . S
C130 C131 1.404 . S
C130 C133 1.539 . S
C131 C127 1.408 . S
C131 C130 1.404 . S
C131 H143 0.930 . S
C132 C128 1.524 . S
C132 H144 0.956 1_556 S
C132 H145 0.961 . S
C132 H146 0.961 . S
C133 C130 1.539 . S
C133 H147 0.958 . S
C133 H148 0.961 . S
C133 H149 0.960 . S
H134 C118 0.931 . S
H135 C123 0.929 . S
H136 C124 0.960 . S
H137 C124 0.962 . S
H138 C124 0.960 . S
H139 C125 0.961 . S
H140 C125 0.961 . S
H141 C125 0.961 . S
H142 C126 0.931 . S
H143 C131 0.930 . S
H144 C132 0.956 1_554 S
H145 C132 0.961 . S
H146 C132 0.961 . S
H147 C133 0.958 . S
H148 C133 0.961 . S
H149 C133 0.960 . S
C150 C151 1.391 1_556 S
C150 C152 1.394 1_556 S
C150 H166 0.931 . S
C151 C150 1.391 1_554 S
C151 C155 1.376 . S
C152 C150 1.394 1_554 S
C152 C153 1.369 . S
C152 C156 1.531 1_554 S
C153 C152 1.369 . S
C153 C154 1.410 . S
C153 C161 1.503 . S
C154 C153 1.410 . S
C154 C155 1.392 . S
C154 C157 1.511 . S
C155 C151 1.376 . S
C155 C154 1.392 . S
C155 H167 0.929 . S
C156 C152 1.531 1_556 S
C156 H168 0.960 . S
C156 H169 0.962 . S
C156 H170 0.960 . S
C157 C154 1.511 . S
C157 H171 0.961 . S
C157 H172 0.961 . S
C157 H173 0.961 . S
C158 C159 1.370 . S
C158 C160 1.363 . S
C158 H174 0.931 . S
C159 C158 1.370 . S
C159 C163 1.408 . S
C160 C158 1.363 . S
C160 C161 1.370 . S
C160 C164 1.524 . S
C161 C153 1.503 . S
C161 C160 1.370 . S
C161 C162 1.403 . S
C162 C161 1.403 . S
C162 C163 1.404 . S
C162 C165 1.561 . S
C163 C159 1.408 . S
C163 C162 1.404 . S
C163 H175 0.930 . S
C164 C160 1.524 . S
C164 H176 0.956 . S
C164 H177 0.961 . S
C164 H178 0.961 . S
C165 C162 1.561 . S
C165 H179 0.930 1_554 S
C165 H180 0.967 . S
C165 H181 0.962 . S
H166 C150 0.931 . S
H167 C155 0.929 . S
H168 C156 0.960 . S
H169 C156 0.962 . S
H170 C156 0.960 . S
H171 C157 0.961 . S
H172 C157 0.961 . S
H173 C157 0.961 . S
H174 C158 0.931 . S
H175 C163 0.930 . S
H176 C164 0.956 . S
H177 C164 0.961 . S
H178 C164 0.961 . S
H179 C165 0.930 1_556 S
H180 C165 0.967 . S
H181 C165 0.962 . S
C182 C183 1.391 1_554 S
C182 C184 1.393 1_554 S
C182 H198 0.931 . S
C183 C182 1.391 1_556 S
C183 C187 1.376 . S
C184 C182 1.393 1_556 S
C184 C185 1.374 . S
C184 C188 1.526 1_556 S
C185 C184 1.374 . S
C185 C186 1.410 . S
C185 C193 1.503 . S
C186 C185 1.410 . S
C186 C187 1.392 . S
C186 C189 1.511 . S
C187 C183 1.376 . S
C187 C186 1.392 . S
C187 H199 0.929 . S
C188 C184 1.526 1_554 S
C188 H200 0.960 . S
C188 H201 0.962 . S
C188 H202 0.960 . S
C189 C186 1.511 . S
C189 H203 0.961 . S
C189 H204 0.961 . S
C189 H205 0.961 . S
C190 C191 1.370 . S
C190 C192 1.363 . S
C190 H206 0.931 . S
C191 C190 1.370 . S
C191 C195 1.408 . S
C192 C190 1.363 . S
C192 C193 1.370 . S
C192 C196 1.524 . S
C193 C185 1.503 . S
C193 C192 1.370 . S
C193 C194 1.403 . S
C194 C193 1.403 . S
C194 C195 1.404 . S
C194 C197 1.539 . S
C195 C191 1.408 . S
C195 C194 1.404 . S
C195 H207 0.930 . S
C196 C192 1.524 . S
C196 H208 0.956 1_556 S
C196 H209 0.961 . S
C196 H210 0.961 1_556 S
C197 C194 1.539 . S
C197 H211 0.958 . S
C197 H212 0.961 . S
C197 H213 0.960 . S
H198 C182 0.931 . S
H199 C187 0.929 . S
H200 C188 0.960 . S
H201 C188 0.962 . S
H202 C188 0.960 . S
H203 C189 0.961 . S
H204 C189 0.961 . S
H205 C189 0.961 . S
H206 C190 0.931 . S
H207 C195 0.930 . S
H208 C196 0.956 1_554 S
H209 C196 0.961 . S
H210 C196 0.961 1_554 S
H211 C197 0.958 . S
H212 C197 0.961 . S
H213 C197 0.960 . S
C214 C215 1.391 . S
C214 C216 1.394 . S
C214 H230 0.931 . S
C215 C214 1.391 . S
C215 C219 1.376 . S
C216 C214 1.394 . S
C216 C217 1.369 . S
C216 C220 1.531 . S
C217 C216 1.369 . S
C217 C218 1.410 . S
C217 C225 1.503 . S
C218 C217 1.410 . S
C218 C219 1.392 . S
C218 C221 1.511 . S
C219 C215 1.376 . S
C219 C218 1.392 . S
C219 H231 0.929 . S
C220 C216 1.531 . S
C220 H232 0.960 . S
C220 H233 0.962 . S
C220 H234 0.960 . S
C221 C218 1.511 . S
C221 H235 0.961 . S
C221 H236 0.961 . S
C221 H237 0.961 . S
C222 C223 1.370 . S
C222 C224 1.363 . S
C222 H238 0.931 . S
C223 C222 1.370 . S
C223 C227 1.408 . S
C224 C222 1.363 . S
C224 C225 1.370 . S
C224 C228 1.524 . S
C225 C217 1.503 . S
C225 C224 1.370 . S
C225 C226 1.403 . S
C226 C225 1.403 . S
C226 C227 1.404 . S
C226 C229 1.539 . S
C227 C223 1.408 . S
C227 C226 1.404 . S
C227 H239 0.930 . S
C228 C224 1.524 . S
C228 H240 0.956 . S
C228 H241 0.961 . S
C228 H242 0.961 . S
C229 C226 1.539 . S
C229 H243 0.958 . S
C229 H244 0.961 . S
C229 H245 0.960 . S
H230 C214 0.931 . S
H231 C219 0.929 . S
H232 C220 0.960 . S
H233 C220 0.962 . S
H234 C220 0.960 . S
H235 C221 0.961 . S
H236 C221 0.961 . S
H237 C221 0.961 . S
H238 C222 0.931 . S
H239 C227 0.930 . S
H240 C228 0.956 . S
H241 C228 0.961 . S
H242 C228 0.961 . S
H243 C229 0.958 . S
H244 C229 0.961 . S
H245 C229 0.960 . S
C246 C247 1.391 . S
C246 C248 1.394 . S
C246 H262 0.931 . S
C247 C246 1.391 . S
C247 C251 1.376 . S
C248 C246 1.394 . S
C248 C249 1.369 . S
C248 C252 1.531 . S
C249 C248 1.369 . S
C249 C250 1.410 . S
C249 C257 1.503 . S
C250 C249 1.410 . S
C250 C251 1.392 . S
C250 C253 1.511 . S
C251 C247 1.376 . S
C251 C250 1.392 . S
C251 H263 0.929 . S
C252 C248 1.531 . S
C252 H264 0.960 . S
C252 H265 0.962 . S
C252 H266 0.960 . S
C253 C250 1.511 . S
C253 H267 0.961 . S
C253 H268 0.961 . S
C253 H269 0.961 . S
C254 C255 1.370 . S
C254 C256 1.363 . S
C254 H270 0.931 . S
C255 C254 1.370 . S
C255 C259 1.408 . S
C256 C254 1.363 . S
C256 C257 1.370 . S
C256 C260 1.524 . S
C257 C249 1.503 . S
C257 C256 1.370 . S
C257 C258 1.403 . S
C258 C257 1.403 . S
C258 C259 1.404 . S
C258 C261 1.539 . S
C259 C255 1.408 . S
C259 C258 1.404 . S
C259 H271 0.930 1_655 S
C260 C256 1.524 . S
C260 H272 0.956 . S
C260 H273 0.961 . S
C260 H274 0.961 . S
C261 C258 1.539 . S
C261 H275 0.958 . S
C261 H276 0.961 . S
C261 H277 0.960 . S
H262 C246 0.931 . S
H263 C251 0.929 . S
H264 C252 0.960 . S
H265 C252 0.962 . S
H266 C252 0.960 . S
H267 C253 0.961 . S
H268 C253 0.961 . S
H269 C253 0.961 . S
H270 C254 0.931 . S
H271 C259 0.930 1_455 S
H272 C260 0.956 . S
H273 C260 0.961 . S
H274 C260 0.961 . S
H275 C261 0.958 . S
H276 C261 0.961 . S
H277 C261 0.960 . S
C278 C279 1.391 . S
C278 C280 1.394 . S
C278 H294 0.931 . S
C279 C278 1.391 . S
C279 C283 1.376 . S
C280 C278 1.394 . S
C280 C281 1.369 . S
C280 C284 1.531 . S
C281 C280 1.369 . S
C281 C282 1.410 . S
C281 C289 1.503 . S
C282 C281 1.410 . S
C282 C283 1.392 . S
C282 C285 1.511 . S
C283 C279 1.376 . S
C283 C282 1.392 . S
C283 H295 0.929 . S
C284 C280 1.531 . S
C284 H296 0.960 . S
C284 H297 0.962 . S
C284 H298 0.960 . S
C285 C282 1.511 . S
C285 H299 0.961 . S
C285 H300 0.961 . S
C285 H301 0.961 . S
C286 C287 1.370 . S
C286 C288 1.363 . S
C286 H302 0.931 . S
C287 C286 1.370 . S
C287 C291 1.408 . S
C288 C286 1.363 . S
C288 C289 1.370 . S
C288 C292 1.524 . S
C289 C281 1.503 . S
C289 C288 1.370 . S
C289 C290 1.403 . S
C290 C289 1.403 . S
C290 C291 1.404 . S
C290 C293 1.539 . S
C291 C287 1.408 . S
C291 C290 1.404 . S
C291 H303 0.930 . S
C292 C288 1.524 . S
C292 H304 0.956 . S
C292 H305 0.961 . S
C292 H306 0.961 . S
C293 C290 1.539 . S
C293 H307 0.958 . S
C293 H308 0.961 . S
C293 H309 0.960 . S
H294 C278 0.931 . S
H295 C283 0.929 . S
H296 C284 0.960 . S
H297 C284 0.962 . S
H298 C284 0.960 . S
H299 C285 0.961 . S
H300 C285 0.961 . S
H301 C285 0.961 . S
H302 C286 0.931 . S
H303 C291 0.930 . S
H304 C292 0.956 . S
H305 C292 0.961 . S
H306 C292 0.961 . S
H307 C293 0.958 . S
H308 C293 0.961 . S
H309 C293 0.960 . S
C310 C311 1.391 . S
C310 C312 1.394 . S
C310 H326 0.931 . S
C311 C310 1.391 . S
C311 C315 1.376 . S
C312 C310 1.394 . S
C312 C313 1.369 . S
C312 C316 1.531 . S
C313 C312 1.369 . S
C313 C314 1.410 . S
C313 C321 1.503 . S
C314 C313 1.410 . S
C314 C315 1.392 . S
C314 C317 1.511 . S
C315 C311 1.376 . S
C315 C314 1.392 . S
C315 H327 0.929 . S
C316 C312 1.531 . S
C316 H328 0.960 . S
C316 H329 0.962 . S
C316 H330 0.960 . S
C317 C314 1.511 . S
C317 H331 0.961 . S
C317 H332 0.961 . S
C317 H333 0.961 . S
C318 C319 1.370 . S
C318 C320 1.363 . S
C318 H334 0.931 . S
C319 C318 1.370 . S
C319 C323 1.408 . S
C320 C318 1.363 . S
C320 C321 1.370 . S
C320 C324 1.524 . S
C321 C313 1.503 . S
C321 C320 1.370 . S
C321 C322 1.403 . S
C322 C321 1.403 . S
C322 C323 1.404 . S
C322 C325 1.539 . S
C323 C319 1.408 . S
C323 C322 1.404 . S
C323 H335 0.930 . S
C324 C320 1.524 . S
C324 H336 0.956 . S
C324 H337 0.961 . S
C324 H338 0.961 . S
C325 C322 1.539 . S
C325 H339 0.958 . S
C325 H340 0.961 . S
C325 H341 0.960 . S
H326 C310 0.931 . S
H327 C315 0.929 . S
H328 C316 0.960 . S
H329 C316 0.962 . S
H330 C316 0.960 . S
H331 C317 0.961 . S
H332 C317 0.961 . S
H333 C317 0.961 . S
H334 C318 0.931 . S
H335 C323 0.930 . S
H336 C324 0.956 . S
H337 C324 0.961 . S
H338 C324 0.961 . S
H339 C325 0.958 . S
H340 C325 0.961 . S
H341 C325 0.960 . S
C342 C343 1.391 1_545 S
C342 C344 1.394 . S
C342 H358 0.931 . S
C343 C342 1.391 1_565 S
C343 C347 1.376 . S
C344 C342 1.394 . S
C344 C345 1.369 . S
C344 C348 1.531 . S
C345 C344 1.369 . S
C345 C346 1.410 . S
C345 C353 1.503 . S
C346 C345 1.410 . S
C346 C347 1.392 1_545 S
C346 C349 1.511 1_455 S
C347 C343 1.376 . S
C347 C346 1.392 1_565 S
C347 H359 0.929 1_455 S
C348 C344 1.531 . S
C348 H360 0.960 . S
C348 H361 0.962 1_545 S
C348 H362 0.960 . S
C349 C346 1.511 1_655 S
C349 H363 0.961 1_545 S
C349 H364 0.961 1_545 S
C349 H365 0.961 . S
C350 C351 1.370 1_565 S
C350 C352 1.363 . S
C350 H366 0.931 . S
C351 C350 1.370 1_545 S
C351 C355 1.408 . S
C352 C350 1.363 . S
C352 C353 1.370 1_565 S
C352 C356 1.524 . S
C353 C345 1.503 . S
C353 C352 1.370 1_545 S
C353 C354 1.403 . S
C354 C353 1.403 . S
C354 C355 1.404 . S
C354 C357 1.539 . S
C355 C351 1.408 . S
C355 C354 1.404 . S
C355 H367 0.930 . S
C356 C352 1.524 . S
C356 H368 0.956 . S
C356 H369 0.961 . S
C356 H370 0.961 . S
C357 C354 1.539 . S
C357 H371 0.958 . S
C357 H372 0.961 . S
C357 H373 0.960 . S
H358 C342 0.931 . S
H359 C347 0.929 1_655 S
H360 C348 0.960 . S
H361 C348 0.962 1_565 S
H362 C348 0.960 . S
H363 C349 0.961 1_565 S
H364 C349 0.961 1_565 S
H365 C349 0.961 . S
H366 C350 0.931 . S
H367 C355 0.930 . S
H368 C356 0.956 . S
H369 C356 0.961 . S
H370 C356 0.961 . S
H371 C357 0.958 . S
H372 C357 0.961 . S
H373 C357 0.960 . S
C374 C375 1.391 1_545 S
C374 C376 1.394 . S
C374 H390 0.931 1_455 S
C375 C374 1.391 1_565 S
C375 C379 1.376 . S
C376 C374 1.394 . S
C376 C377 1.369 . S
C376 C380 1.531 1_455 S
C377 C376 1.369 . S
C377 C378 1.410 1_545 S
C377 C385 1.503 . S
C378 C377 1.410 1_565 S
C378 C379 1.392 . S
C378 C381 1.511 . S
C379 C375 1.376 . S
C379 C378 1.392 . S
C379 H391 0.929 . S
C380 C376 1.531 1_655 S
C380 H392 0.961 1_655 S
C380 H393 0.962 . S
C380 H394 0.960 . S
C381 C378 1.511 . S
C381 H395 0.961 . S
C381 H396 0.961 . S
C381 H397 0.961 . S
C382 C383 1.369 1_655 S
C382 C384 1.363 1_545 S
C382 H398 0.931 1_545 S
C383 C382 1.369 1_455 S
C383 C387 1.409 . S
C384 C382 1.363 1_565 S
C384 C385 1.370 1_665 S
C384 C388 1.524 . S
C385 C377 1.503 . S
C385 C384 1.370 1_445 S
C385 C386 1.403 . S
C386 C385 1.403 . S
C386 C387 1.404 . S
C386 C389 1.539 . S
C387 C383 1.409 . S
C387 C386 1.404 . S
C387 H399 0.930 . S
C388 C384 1.524 . S
C388 H400 0.956 . S
C388 H401 0.961 . S
C388 H402 0.961 . S
C389 C386 1.539 . S
C389 H403 0.958 . S
C389 H404 0.961 . S
C389 H405 0.960 . S
H390 C374 0.931 1_655 S
H391 C379 0.929 . S
H392 C380 0.961 1_455 S
H393 C380 0.962 . S
H394 C380 0.960 . S
H395 C381 0.961 . S
H396 C381 0.961 . S
H397 C381 0.961 . S
H398 C382 0.931 1_565 S
H399 C387 0.930 . S
H400 C388 0.956 . S
H401 C388 0.961 . S
H402 C388 0.961 . S
H403 C389 0.958 . S
H404 C389 0.961 . S
H405 C389 0.960 . S
C406 C407 1.391 . S
C406 C408 1.394 . S
C406 H422 0.931 . S
C407 C406 1.391 . S
C407 C411 1.376 . S
C408 C406 1.394 . S
C408 C409 1.369 . S
C408 C412 1.531 . S
C409 C408 1.369 . S
C409 C410 1.410 . S
C409 C417 1.503 . S
C410 C409 1.410 . S
C410 C411 1.392 . S
C410 C413 1.511 . S
C411 C407 1.376 . S
C411 C410 1.392 . S
C411 H423 0.929 . S
C412 C408 1.531 . S
C412 H424 0.960 . S
C412 H425 0.962 . S
C412 H426 0.960 . S
C413 C410 1.511 . S
C413 H427 0.961 . S
C413 H428 0.961 . S
C413 H429 0.961 . S
C414 C415 1.370 . S
C414 C416 1.363 . S
C414 H430 0.931 . S
C415 C414 1.370 . S
C415 C419 1.408 . S
C416 C414 1.363 . S
C416 C417 1.370 . S
C416 C420 1.524 . S
C417 C409 1.503 . S
C417 C416 1.370 . S
C417 C418 1.403 . S
C418 C417 1.403 . S
C418 C419 1.404 . S
C418 C421 1.539 . S
C419 C415 1.408 . S
C419 C418 1.404 . S
C419 H431 0.930 . S
C420 C416 1.524 . S
C420 H432 0.956 . S
C420 H433 0.961 . S
C420 H434 0.961 . S
C421 C418 1.539 . S
C421 H435 0.958 . S
C421 H436 0.961 . S
C421 H437 0.960 . S
H422 C406 0.931 . S
H423 C411 0.929 . S
H424 C412 0.960 . S
H425 C412 0.962 . S
H426 C412 0.960 . S
H427 C413 0.961 . S
H428 C413 0.961 . S
H429 C413 0.961 . S
H430 C414 0.931 . S
H431 C419 0.930 . S
H432 C420 0.956 . S
H433 C420 0.961 . S
H434 C420 0.961 . S
H435 C421 0.958 . S
H436 C421 0.961 . S
H437 C421 0.960 . S
C438 C439 1.391 . S
C438 C440 1.394 . S
C438 H454 0.931 . S
C439 C438 1.391 . S
C439 C443 1.376 . S
C440 C438 1.394 . S
C440 C441 1.369 . S
C440 C444 1.531 . S
C441 C440 1.369 . S
C441 C442 1.410 . S
C441 C449 1.503 . S
C442 C441 1.410 . S
C442 C443 1.392 . S
C442 C445 1.511 . S
C443 C439 1.376 . S
C443 C442 1.392 . S
C443 H455 0.929 . S
C444 C440 1.531 . S
C444 H456 0.960 . S
C444 H457 0.962 . S
C444 H458 0.960 . S
C445 C442 1.511 . S
C445 H459 0.961 . S
C445 H460 0.961 . S
C445 H461 0.961 . S
C446 C447 1.370 . S
C446 C448 1.363 . S
C446 H462 0.931 . S
C447 C446 1.370 . S
C447 C451 1.408 . S
C448 C446 1.363 . S
C448 C449 1.370 . S
C448 C452 1.524 . S
C449 C441 1.503 . S
C449 C448 1.370 . S
C449 C450 1.403 . S
C450 C449 1.403 . S
C450 C451 1.404 . S
C450 C453 1.539 . S
C451 C447 1.408 . S
C451 C450 1.404 . S
C451 H463 0.930 . S
C452 C448 1.524 . S
C452 H464 0.956 . S
C452 H465 0.961 . S
C452 H466 0.961 . S
C453 C450 1.539 . S
C453 H467 0.958 . S
C453 H468 0.961 . S
C453 H469 0.960 . S
H454 C438 0.931 . S
H455 C443 0.929 . S
H456 C444 0.960 . S
H457 C444 0.962 . S
H458 C444 0.960 . S
H459 C445 0.961 . S
H460 C445 0.961 . S
H461 C445 0.961 . S
H462 C446 0.931 . S
H463 C451 0.930 . S
H464 C452 0.956 . S
H465 C452 0.961 . S
H466 C452 0.961 . S
H467 C453 0.958 . S
H468 C453 0.961 . S
H469 C453 0.960 . S
C95 C79 1.335 . S
C87 C3 1.264 . S
C119 C4 1.462 1_556 S
C127 C74 1.523 . S
C151 C19 1.459 . S
C159 C85 1.547 . S
C183 C7 1.237 . S
C191 C68 1.330 . S
C215 C37 1.159 . S
C223 C57 1.320 . S
C247 C28 1.396 . S
C255 C52 1.534 1_655 S
C287 C63 1.540 . S
C279 C41 1.450 . S
C319 C46 1.340 . S
C311 C25 1.273 . S
C343 C20 1.338 . S
C351 C47 1.495 . S
C375 C16 1.423 1_455 S
C383 C58 1.533 1_455 S
C415 C69 1.493 . S
C407 C40 1.302 . S
C439 C24 1.369 . S
C447 C80 1.527 . S
