# Generated by pormake.
# Topology zzz, (3,6)-cn, num edge types: 1
# Building blocks:
#     Node 0, Type 0, BuildingBlock: VETTIZ_charged_linker_0, # of connection points: 3
#     Node 1, Type 0, BuildingBlock: VETTIZ_charged_linker_0, # of connection points: 3
#     Node 2, Type 0, BuildingBlock: VETTIZ_charged_linker_0, # of connection points: 3
#     Node 3, Type 0, BuildingBlock: VETTIZ_charged_linker_0, # of connection points: 3
#     Node 4, Type 0, BuildingBlock: VETTIZ_charged_linker_0, # of connection points: 3
#     Node 5, Type 0, BuildingBlock: VETTIZ_charged_linker_0, # of connection points: 3
#     Node 6, Type 0, BuildingBlock: VETTIZ_charged_linker_0, # of connection points: 3
#     Node 7, Type 0, BuildingBlock: VETTIZ_charged_linker_0, # of connection points: 3
#     Node 8, Type 1, BuildingBlock: KUMBOL_clean_sbu_0, # of connection points: 6
#     Node 9, Type 1, BuildingBlock: KUMBOL_clean_sbu_0, # of connection points: 6
#     Node 10, Type 1, BuildingBlock: KUMBOL_clean_sbu_0, # of connection points: 6
#     Node 11, Type 1, BuildingBlock: KUMBOL_clean_sbu_0, # of connection points: 6
#     Edge 12, Type (0, 1), BuildingBlock: TEMPAE_clean_linker_10, # of connection points: 2
#     Edge 13, Type (0, 1), BuildingBlock: TEMPAE_clean_linker_10, # of connection points: 2
#     Edge 14, Type (0, 1), BuildingBlock: TEMPAE_clean_linker_10, # of connection points: 2
#     Edge 15, Type (0, 1), BuildingBlock: TEMPAE_clean_linker_10, # of connection points: 2
#     Edge 16, Type (0, 1), BuildingBlock: TEMPAE_clean_linker_10, # of connection points: 2
#     Edge 17, Type (0, 1), BuildingBlock: TEMPAE_clean_linker_10, # of connection points: 2
#     Edge 18, Type (0, 1), BuildingBlock: TEMPAE_clean_linker_10, # of connection points: 2
#     Edge 19, Type (0, 1), BuildingBlock: TEMPAE_clean_linker_10, # of connection points: 2
#     Edge 20, Type (0, 1), BuildingBlock: TEMPAE_clean_linker_10, # of connection points: 2
#     Edge 21, Type (0, 1), BuildingBlock: TEMPAE_clean_linker_10, # of connection points: 2
#     Edge 22, Type (0, 1), BuildingBlock: TEMPAE_clean_linker_10, # of connection points: 2
#     Edge 23, Type (0, 1), BuildingBlock: TEMPAE_clean_linker_10, # of connection points: 2
#     Edge 24, Type (0, 1), BuildingBlock: TEMPAE_clean_linker_10, # of connection points: 2
#     Edge 25, Type (0, 1), BuildingBlock: TEMPAE_clean_linker_10, # of connection points: 2
#     Edge 26, Type (0, 1), BuildingBlock: TEMPAE_clean_linker_10, # of connection points: 2
#     Edge 27, Type (0, 1), BuildingBlock: TEMPAE_clean_linker_10, # of connection points: 2
#     Edge 28, Type (0, 1), BuildingBlock: TEMPAE_clean_linker_10, # of connection points: 2
#     Edge 29, Type (0, 1), BuildingBlock: TEMPAE_clean_linker_10, # of connection points: 2
#     Edge 30, Type (0, 1), BuildingBlock: TEMPAE_clean_linker_10, # of connection points: 2
#     Edge 31, Type (0, 1), BuildingBlock: TEMPAE_clean_linker_10, # of connection points: 2
#     Edge 32, Type (0, 1), BuildingBlock: TEMPAE_clean_linker_10, # of connection points: 2
#     Edge 33, Type (0, 1), BuildingBlock: TEMPAE_clean_linker_10, # of connection points: 2
#     Edge 34, Type (0, 1), BuildingBlock: TEMPAE_clean_linker_10, # of connection points: 2
#     Edge 35, Type (0, 1), BuildingBlock: TEMPAE_clean_linker_10, # of connection points: 2
# Relax obj value: 0.302
# Max RMSD: 0.229
# Mean RMSD: 0.215
data_MOF--net-zzz--node1-KUMBOL_clean_sbu_0--node2-VETTIZ_charged_linker_0--edge1-TEMPAE_clean_linker_10
_symmetry_space_group_name_H-M    P1
_symmetry_Int_Tables_number       1
_symmetry_cell_setting            triclinic
loop_
_symmetry_equiv_pos_as_xyz
'x, y, z'
_cell_length_a     56.914186
_cell_length_b     56.860033
_cell_length_c     19.929598
_cell_angle_alpha  90.834171
_cell_angle_beta   90.14003
_cell_angle_gamma 89.990339
loop_
_atom_site_label
_atom_site_type_symbol
_atom_site_fract_x
_atom_site_fract_y
_atom_site_fract_z
_atom_type_partial_charge
C0 C 0.80821 0.54892 0.26283 0.0
C1 C 0.83011 0.55813 0.28585 0.0
C2 C 0.83821 0.57929 0.25878 0.0
C3 C 0.80548 0.58027 0.18107 0.0
C4 C 0.79598 0.56057 0.2103 0.0
C5 C 0.7725 0.55429 0.17712 0.0
H6 H 0.69171 0.58203 0.92898 0.0
C7 C 0.79048 0.58741 0.12432 0.0
C8 C 0.7704 0.57292 0.1221 0.0
H9 H 0.68523 0.5255 0.06937 0.0
H10 H 0.72298 0.53644 0.12035 0.0
H11 H 0.71527 0.6226 0.02675 0.0
H12 H 0.73965 0.56933 0.89048 0.0
H13 H 0.76278 0.58962 0.89211 0.0
H14 H 0.73416 0.59854 0.86249 0.0
H15 H 0.71121 0.62237 0.9373 0.0
H16 H 0.73708 0.63509 0.97538 0.0
C17 C 0.75293 0.55691 0.22994 0.0
C18 C 0.77418 0.52923 0.14708 0.0
C19 C 0.82714 0.6379 0.94645 0.0
C20 C 0.82001 0.64259 0.88036 0.0
C21 C 0.79587 0.64112 0.86462 0.0
C22 C 0.77987 0.63179 0.9107 0.0
C23 C 0.78817 0.62351 0.97261 0.0
C24 C 0.81116 0.62788 0.99104 0.0
C25 C 0.81722 0.6174 0.05771 0.0
C26 C 0.79473 0.60397 0.07304 0.0
C27 C 0.77783 0.60764 0.02315 0.0
C28 C 0.82163 0.63797 0.10838 0.0
C29 C 0.83855 0.60069 0.04746 0.0
C30 C 0.69814 0.57226 0.97158 0.0
C31 C 0.68521 0.55326 0.99595 0.0
C32 C 0.69475 0.54041 0.04994 0.0
C33 C 0.71661 0.54681 0.07956 0.0
C34 C 0.7294 0.56596 0.05408 0.0
C35 C 0.72002 0.57797 1.00012 0.0
C36 C 0.73654 0.59598 0.9733 0.0
C37 C 0.75678 0.59425 0.02255 0.0
C38 C 0.75289 0.57667 0.07079 0.0
C39 C 0.72446 0.62036 0.97786 0.0
C40 C 0.74364 0.5882 0.90089 0.0
H41 H 0.83358 0.60617 0.18885 0.0
H42 H 0.80123 0.53291 0.2837 0.0
H43 H 0.79033 0.52735 0.11616 0.0
H44 H 0.75919 0.52496 0.11388 0.0
H45 H 0.7749 0.51596 0.18743 0.0
H46 H 0.7542 0.57431 0.25592 0.0
H47 H 0.75447 0.54302 0.26838 0.0
H48 H 0.73523 0.5559 0.20749 0.0
H49 H 0.84549 0.63901 0.96056 0.0
H50 H 0.78975 0.64514 0.81456 0.0
H51 H 0.76198 0.62996 0.89457 0.0
H52 H 0.81535 0.65516 0.08923 0.0
H53 H 0.84064 0.64005 0.11973 0.0
H54 H 0.81192 0.63551 0.15601 0.0
H55 H 0.83597 0.58944 1.00192 0.0
H56 H 0.84138 0.58843 0.08886 0.0
H57 H 0.85506 0.61082 0.04111 0.0
H58 H 0.85455 0.58702 0.27638 0.0
C59 C 0.82599 0.59042 0.2076 0.0
C60 C 0.88558 0.80666 0.90799 0.0
C61 C 0.88081 0.83097 0.9125 0.0
C62 C 0.88185 0.84192 0.97658 0.0
C63 C 0.9008 0.80754 0.02167 0.0
C64 C 0.89613 0.79544 0.96276 0.0
C65 C 0.9066 0.7711 0.96307 0.0
H66 H 0.9923 0.69805 0.06221 0.0
C67 C 0.91774 0.79363 0.06118 0.0
C68 C 0.92113 0.77214 0.02781 0.0
H69 H 0.93399 0.68492 0.92684 0.0
H70 H 0.91719 0.72194 0.9573 0.0
H71 H 0.99809 0.75936 0.03994 0.0
H72 H 0.95488 0.72425 0.1881 0.0
H73 H 0.97511 0.74555 0.22036 0.0
H74 H 0.98598 0.71862 0.18388 0.0
H75 H 0.01106 0.73874 0.09694 0.0
H76 H 1.00311 0.76775 0.12549 0.0
C77 C 0.92223 0.76804 0.8999 0.0
C78 C 0.88603 0.75319 0.96693 0.0
C79 C 0.95946 0.83788 0.24707 0.0
C80 C 0.97956 0.83456 0.28647 0.0
C81 C 0.99145 0.81267 0.27959 0.0
C82 C 0.9837 0.7951 0.23246 0.0
C83 C 0.96375 0.79928 0.19189 0.0
C84 C 0.95215 0.82056 0.20083 0.0
C85 C 0.93208 0.82355 0.15357 0.0
C86 C 0.93274 0.80046 0.11496 0.0
C87 C 0.95125 0.78571 0.13644 0.0
C88 C 0.9375 0.84512 0.10856 0.0
C89 C 0.90926 0.82578 0.19568 0.0
C90 C 0.97601 0.70344 0.0389 0.0
C91 C 0.96467 0.68841 0.99068 0.0
C92 C 0.94317 0.69584 0.9634 0.0
C93 C 0.93342 0.71755 0.98082 0.0
C94 C 0.94512 0.73271 0.02578 0.0
C95 C 0.9655 0.72548 0.05696 0.0
C96 C 0.97314 0.74379 0.10998 0.0
C97 C 0.95433 0.76312 0.10293 0.0
C98 C 0.93861 0.75635 0.05112 0.0
C99 C 0.99777 0.75295 0.09238 0.0
C100 C 0.97232 0.73249 0.17962 0.0
H101 H 0.89334 0.8401 0.07706 0.0
H102 H 0.88369 0.7973 0.86063 0.0
H103 H 0.8688 0.7618 0.97683 0.0
H104 H 0.88847 0.74072 1.00876 0.0
H105 H 0.88405 0.74302 0.91922 0.0
H106 H 0.93417 0.78339 0.89467 0.0
H107 H 0.91132 0.76661 0.85375 0.0
H108 H 0.93355 0.75236 0.90119 0.0
H109 H 0.94964 0.85417 0.25092 0.0
H110 H 1.00707 0.80943 0.30915 0.0
H111 H 0.99362 0.77906 0.22825 0.0
H112 H 0.95617 0.85084 0.11221 0.0
H113 H 0.92661 0.8606 0.12283 0.0
H114 H 0.93498 0.84121 0.05444 0.0
H115 H 0.9099 0.81407 0.23992 0.0
H116 H 0.8934 0.82019 0.16751 0.0
H117 H 0.90675 0.84407 0.21463 0.0
H118 H 0.87782 0.8604 0.98345 0.0
C119 C 0.89161 0.83024 0.03116 0.0
C120 C 0.82227 0.97831 0.0555 0.0
C121 C 0.8375 0.96576 1.0107 0.0
C122 C 0.83081 0.94295 0.98933 0.0
C123 C 0.79337 0.94723 0.04396 0.0
C124 C 0.80033 0.96811 0.07331 0.0
C125 C 0.78237 0.97567 0.12671 0.0
H126 H 0.67242 0.9523 0.26169 0.0
C127 C 0.76998 0.94106 0.06711 0.0
C128 C 0.76336 0.95642 0.11955 0.0
H129 H 0.71836 1.00867 0.32513 0.0
H130 H 0.74828 0.99486 0.24503 0.0
H131 H 0.67097 0.95565 0.13539 0.0
H132 H 0.7126 0.91105 0.24609 0.0
H133 H 0.70406 0.89562 0.1724 0.0
H134 H 0.68199 0.90976 0.2238 0.0
H135 H 0.66821 0.9254 0.11644 0.0
H136 H 0.68646 0.94415 0.06577 0.0
C137 C 0.77272 1.00013 0.10945 0.0
C138 C 0.79437 0.97518 0.19599 0.0
C139 C 0.71327 0.9064 0.89966 0.0
C140 C 0.68942 0.90045 0.90672 0.0
C141 C 0.68103 0.8943 0.97065 0.0
C142 C 0.69492 0.89824 0.02778 0.0
C143 C 0.71697 0.90883 0.02041 0.0
C144 C 0.72683 0.91042 0.95758 0.0
C145 C 0.75168 0.9194 0.96109 0.0
C146 C 0.75353 0.92578 0.03615 0.0
C147 C 0.73232 0.92127 0.06877 0.0
C148 C 0.75438 0.94132 0.91677 0.0
C149 C 0.76815 0.89925 0.93787 0.0
C150 C 0.68892 0.96175 0.25893 0.0
C151 C 0.69277 0.9817 0.29962 0.0
C152 C 0.71481 0.99317 0.29457 0.0
C153 C 0.7321 0.98521 0.24794 0.0
C154 C 0.72741 0.96553 0.20596 0.0
C155 C 0.70594 0.95432 0.21255 0.0
C156 C 0.70266 0.93443 0.16343 0.0
C157 C 0.72592 0.93495 0.12628 0.0
C158 C 0.7408 0.95312 0.15093 0.0
C159 C 0.68109 0.94003 0.11782 0.0
C160 C 0.70003 0.91142 0.20325 0.0
H161 H 0.80575 0.91531 0.99628 0.0
H162 H 0.82749 0.99516 0.07658 0.0
H163 H 0.8034 0.95805 0.20329 0.0
H164 H 0.78169 0.97726 0.23738 0.0
H165 H 0.80771 0.98939 0.20058 0.0
H166 H 0.76573 1.00012 0.05728 0.0
H167 H 0.78681 0.01361 0.11334 0.0
H168 H 0.75824 1.00549 0.14314 0.0
H169 H 0.72033 0.91051 0.85085 0.0
H170 H 0.66293 0.88887 0.97699 0.0
H171 H 0.68762 0.89425 0.07581 0.0
H172 H 0.74157 0.95518 0.93185 0.0
H173 H 0.75151 0.93681 0.86299 0.0
H174 H 0.7723 0.94882 0.92104 0.0
H175 H 0.75955 0.88755 0.89995 0.0
H176 H 0.77347 0.88812 0.98071 0.0
H177 H 0.78393 0.90604 0.91205 0.0
H178 H 0.84231 0.93233 0.95799 0.0
C179 C 0.80922 0.93347 1.00758 0.0
C180 C 0.5536 0.7231 0.27597 0.0
C181 C 0.5627 0.701 0.29624 0.0
C182 C 0.58397 0.69311 0.26831 0.0
C183 C 0.58488 0.72616 0.19344 0.0
C184 C 0.56531 0.73562 0.22444 0.0
C185 C 0.55928 0.75945 0.19445 0.0
H186 H 0.58557 0.83996 0.9485 0.0
C187 C 0.59178 0.74123 0.13722 0.0
C188 C 0.57751 0.76148 0.13796 0.0
H189 H 0.53257 0.84866 0.10099 0.0
H190 H 0.54258 0.81004 0.14626 0.0
H191 H 0.62676 0.81571 0.03593 0.0
H192 H 0.57033 0.79223 0.91008 0.0
H193 H 0.59017 0.76872 0.90626 0.0
H194 H 0.59891 0.79723 0.87622 0.0
H195 H 0.62502 0.81934 0.94666 0.0
H196 H 0.63776 0.79333 0.98227 0.0
C197 C 0.56283 0.77854 0.24918 0.0
C198 C 0.53399 0.75862 0.16678 0.0
C199 C 0.6391 0.70383 0.9501 0.0
C200 C 0.64257 0.71071 0.88328 0.0
C201 C 0.64066 0.73476 0.86808 0.0
C202 C 0.63232 0.75096 0.91625 0.0
C203 C 0.62531 0.74291 0.97964 0.0
C204 C 0.62988 0.71995 0.99674 0.0
C205 C 0.62038 0.71403 0.06482 0.0
C206 C 0.60751 0.73671 0.08327 0.0
C207 C 0.61052 0.75348 0.03334 0.0
C208 C 0.64156 0.70928 0.11207 0.0
C209 C 0.60328 0.69292 0.05624 0.0
C210 C 0.57641 0.8339 0.99263 0.0
C211 C 0.55874 0.84769 0.02209 0.0
C212 C 0.54651 0.8385 0.0777 0.0
C213 C 0.55242 0.81618 0.10409 0.0
C214 C 0.57046 0.80271 0.07388 0.0
C215 C 0.58174 0.81177 0.01838 0.0
C216 C 0.59873 0.79484 0.98725 0.0
C217 C 0.59747 0.77471 0.03586 0.0
C218 C 0.58082 0.77894 0.08718 0.0
C219 C 0.62342 0.80633 0.98745 0.0
C220 C 0.58927 0.7879 0.91627 0.0
H221 H 0.61103 0.6983 0.19845 0.0
H222 H 0.53761 0.72999 0.29799 0.0
H223 H 0.53153 0.74285 0.13384 0.0
H224 H 0.5298 0.7741 0.13623 0.0
H225 H 0.52106 0.75772 0.20834 0.0
H226 H 0.58021 0.7764 0.27399 0.0
H227 H 0.54901 0.77729 0.28828 0.0
H228 H 0.56254 0.79645 0.22873 0.0
H229 H 0.64055 0.68555 0.96386 0.0
H230 H 0.6437 0.74067 0.81741 0.0
H231 H 0.63025 0.76882 0.90078 0.0
H232 H 0.65856 0.71498 0.09015 0.0
H233 H 0.64328 0.69025 0.12299 0.0
H234 H 0.6401 0.71929 0.16012 0.0
H235 H 0.59104 0.69597 1.01365 0.0
H236 H 0.59207 0.68986 0.10004 0.0
H237 H 0.61303 0.67634 0.046 0.0
H238 H 0.59168 0.67666 0.28425 0.0
C239 C 0.59517 0.70564 0.21813 0.0
C240 C 0.33131 0.47838 0.21688 0.0
C241 C 0.34554 0.4675 0.26646 0.0
C242 C 0.33756 0.44646 0.29471 0.0
C243 C 0.30144 0.44816 0.23041 0.0
C244 C 0.30943 0.46797 0.19835 0.0
C245 C 0.29204 0.47537 0.144 0.0
H246 H 0.186 0.45065 0.98595 0.0
C247 C 0.27805 0.44178 0.20374 0.0
C248 C 0.27241 0.45696 0.15062 0.0
H249 H 0.23201 0.50819 0.93805 0.0
H250 H 0.25951 0.49579 0.02586 0.0
H251 H 0.22493 0.41024 1.01261 0.0
H252 H 0.18531 0.46016 0.1256 0.0
H253 H 0.19288 0.43998 0.18743 0.0
H254 H 0.17522 0.43058 0.11656 0.0
H255 H 0.19396 0.4089 0.02908 0.0
H256 H 0.21505 0.39567 0.08472 0.0
C257 C 0.30428 0.4736 0.07529 0.0
C258 C 0.28315 0.50036 0.16063 0.0
C259 C 0.22435 0.39185 0.34494 0.0
C260 C 0.2 0.38767 0.33869 0.0
C261 C 0.18991 0.38842 0.27395 0.0
C262 C 0.20265 0.39709 0.21977 0.0
C263 C 0.22552 0.40561 0.23049 0.0
C264 C 0.23663 0.40139 0.29066 0.0
C265 C 0.26121 0.41128 0.29201 0.0
C266 C 0.2615 0.42497 0.2265 0.0
C267 C 0.2405 0.42157 0.19119 0.0
C268 C 0.27873 0.39031 0.29097 0.0
C269 C 0.26375 0.4277 0.3544 0.0
C270 C 0.20224 0.46037 0.99279 0.0
C271 C 0.20696 0.48004 0.95354 0.0
C272 C 0.22793 0.49276 0.96702 0.0
C273 C 0.2439 0.48551 0.01784 0.0
C274 C 0.23868 0.46561 0.05671 0.0
C275 C 0.21783 0.45378 0.04365 0.0
C276 C 0.21309 0.43472 0.0925 0.0
C277 C 0.23506 0.4358 0.13537 0.0
C278 C 0.2505 0.4538 0.11499 0.0
C279 C 0.21148 0.41107 0.05303 0.0
C280 C 0.19049 0.44148 0.1325 0.0
H281 H 0.3109 0.42093 0.3011 0.0
H282 H 0.33719 0.4943 0.19295 0.0
H283 H 0.27699 0.50148 0.21351 0.0
H284 H 0.26817 0.50542 0.12871 0.0
H285 H 0.2974 0.51348 0.15421 0.0
H286 H 0.31266 0.45605 0.06861 0.0
H287 H 0.31817 0.48723 0.07114 0.0
H288 H 0.29184 0.4757 0.03327 0.0
H289 H 0.23296 0.39026 0.39313 0.0
H290 H 0.1714 0.38489 0.26615 0.0
H291 H 0.19354 0.39849 0.17294 0.0
H292 H 0.2699 0.37313 0.28124 0.0
H293 H 0.28811 0.38876 0.33967 0.0
H294 H 0.29189 0.39196 0.25024 0.0
H295 H 0.24879 0.44028 0.35715 0.0
H296 H 0.27989 0.43837 0.35406 0.0
H297 H 0.26397 0.41741 0.40133 0.0
H298 H 0.34802 0.43765 0.33222 0.0
C299 C 0.31586 0.43679 0.2769 0.0
C300 C 0.14002 0.22918 0.33253 0.0
C301 C 0.14478 0.20489 0.32645 0.0
C302 C 0.14476 0.1946 0.26156 0.0
C303 C 0.12633 0.22939 0.21755 0.0
C304 C 0.13028 0.24099 0.27764 0.0
C305 C 0.12028 0.26555 0.27743 0.0
H306 H 0.03057 0.33469 0.20098 0.0
C307 C 0.10943 0.24329 0.17821 0.0
C308 C 0.10613 0.2648 0.21169 0.0
H309 H 0.09515 0.35263 0.30542 0.0
H310 H 0.11272 0.31685 0.2646 0.0
H311 H 0.06433 0.31128 0.06086 0.0
H312 H 0.02959 0.27304 0.22027 0.0
H313 H 0.02157 0.26492 0.13629 0.0
H314 H 0.01321 0.29323 0.16936 0.0
H315 H 0.0333 0.31492 0.07509 0.0
H316 H 0.04439 0.28882 0.03437 0.0
C317 C 0.1412 0.28308 0.27599 0.0
C318 C 0.10432 0.26913 0.33954 0.0
C319 C 0.06419 0.19687 1.00365 0.0
C320 C 0.04283 0.19926 0.96955 0.0
C321 C 0.03026 0.22064 0.97908 0.0
C322 C 0.03869 0.23865 0.02375 0.0
C323 C 0.06002 0.23541 0.05902 0.0
C324 C 0.07216 0.21459 0.04766 0.0
C325 C 0.09362 0.21246 0.0901 0.0
C326 C 0.09333 0.23578 0.12777 0.0
C327 C 0.07366 0.2497 0.11048 0.0
C328 C 0.11521 0.21068 0.04296 0.0
C329 C 0.09028 0.19092 0.13695 0.0
C330 C 0.04827 0.33049 0.21676 0.0
C331 C 0.0611 0.34644 0.25929 0.0
C332 C 0.08456 0.34081 0.27485 0.0
C333 C 0.09468 0.31975 0.25295 0.0
C334 C 0.08128 0.30334 0.21675 0.0
C335 C 0.05915 0.30914 0.1943 0.0
C336 C 0.05054 0.29045 0.14355 0.0
C337 C 0.0707 0.27229 0.1439 0.0
C338 C 0.08788 0.28001 0.19043 0.0
C339 C 0.0479 0.30193 0.07449 0.0
C340 C 0.02738 0.27978 0.16854 0.0
H341 H 0.13528 0.19786 0.15949 0.0
H342 H 0.14141 0.23802 0.38081 0.0
H343 H 0.09054 0.25529 0.34099 0.0
H344 H 0.09542 0.28637 0.33983 0.0
H345 H 0.11469 0.26841 0.38671 0.0
H346 H 0.15852 0.27431 0.28271 0.0
H347 H 0.14006 0.29634 0.31733 0.0
H348 H 0.14213 0.29231 0.22729 0.0
H349 H 0.0745 0.18095 0.9976 0.0
H350 H 0.01364 0.22312 0.95358 0.0
H351 H 0.02824 0.25425 0.03043 0.0
H352 H 0.11309 0.22239 0.99909 0.0
H353 H 0.11754 0.19243 0.02342 0.0
H354 H 0.13167 0.21652 0.06765 0.0
H355 H 0.07258 0.18274 0.13219 0.0
H356 H 0.09163 0.19586 0.19082 0.0
H357 H 0.10309 0.1767 0.12551 0.0
H358 H 0.149 0.1762 0.25379 0.0
C359 C 0.13594 0.20694 0.20686 0.0
C360 C 0.31381 0.05029 0.98578 0.0
C361 C 0.33462 0.06097 0.96086 0.0
C362 C 0.33984 0.08416 0.98135 0.0
C363 C 0.30796 0.08379 0.06106 0.0
C364 C 0.30034 0.06245 0.03551 0.0
C365 C 0.27721 0.05551 0.06872 0.0
H366 H 0.19807 0.0815 0.32375 0.0
C367 C 0.29333 0.0906 0.11898 0.0
C368 C 0.2743 0.07483 0.12303 0.0
H369 H 0.18965 0.02676 0.17405 0.0
H370 H 0.22745 0.0375 0.12378 0.0
H371 H 0.24642 0.06693 0.35559 0.0
H372 H 0.22065 0.12321 0.23692 0.0
H373 H 0.24322 0.13433 0.2897 0.0
H374 H 0.21794 0.12058 0.32634 0.0
H375 H 0.24314 0.0957 0.39122 0.0
H376 H 0.2705 0.0861 0.35383 0.0
C377 C 0.27975 0.03096 0.09949 0.0
C378 C 0.25761 0.05663 0.01538 0.0
C379 C 0.33311 0.13766 0.30268 0.0
C380 C 0.32837 0.13708 0.37191 0.0
C381 C 0.30478 0.13492 0.39229 0.0
C382 C 0.2873 0.1288 0.3455 0.0
C383 C 0.29374 0.12368 0.27877 0.0
C384 C 0.31607 0.12929 0.2574 0.0
C385 C 0.32079 0.12043 0.18711 0.0
C386 C 0.29818 0.10678 0.17226 0.0
C387 C 0.28246 0.10893 0.22592 0.0
C388 C 0.34266 0.10409 0.18926 0.0
C389 C 0.32386 0.14197 0.14093 0.0
C390 C 0.20405 0.07215 0.27918 0.0
C391 C 0.19061 0.05376 0.25189 0.0
C392 C 0.19957 0.04129 0.19551 0.0
C393 C 0.22136 0.04764 0.16613 0.0
C394 C 0.23451 0.06644 0.19402 0.0
C395 C 0.22573 0.07791 0.25054 0.0
C396 C 0.24268 0.09532 0.2798 0.0
C397 C 0.26192 0.09481 0.22741 0.0
C398 C 0.2576 0.07763 0.17687 0.0
C399 C 0.25111 0.08574 0.34866 0.0
C400 C 0.23056 0.1197 0.28392 0.0
H401 H 0.33146 0.11317 0.04433 0.0
H402 H 0.30876 0.03283 0.96893 0.0
H403 H 0.25839 0.07358 0.98832 0.0
H404 H 0.23992 0.05557 0.03745 0.0
H405 H 0.25959 0.04212 0.97785 0.0
H406 H 0.29548 0.03035 0.13262 0.0
H407 H 0.28178 0.01727 0.05958 0.0
H408 H 0.2644 0.02632 0.13037 0.0
H409 H 0.35088 0.14061 0.28546 0.0
H410 H 0.3002 0.13519 0.44499 0.0
H411 H 0.26988 0.12635 0.36431 0.0
H412 H 0.34061 0.0907 0.22895 0.0
H413 H 0.35889 0.11431 0.2001 0.0
H414 H 0.34592 0.09439 0.14216 0.0
H415 H 0.32021 0.15894 0.16736 0.0
H416 H 0.31148 0.14131 0.09777 0.0
H417 H 0.34209 0.14314 0.12144 0.0
H418 H 0.35508 0.09307 0.96137 0.0
C419 C 0.3264 0.0957 0.03009 0.0
C420 C 0.47665 0.31326 0.98073 0.0
C421 C 0.46903 0.33593 0.96082 0.0
C422 C 0.44867 0.34544 0.99033 0.0
C423 C 0.44564 0.31237 0.06472 0.0
C424 C 0.46443 0.30165 0.03296 0.0
C425 C 0.46927 0.27762 0.06319 0.0
H426 H 0.43906 0.19813 0.3075 0.0
C427 C 0.43776 0.29754 0.12047 0.0
C428 C 0.45091 0.27654 0.11948 0.0
H429 H 0.4931 0.18832 0.15846 0.0
H430 H 0.48408 0.22693 0.11207 0.0
H431 H 0.45447 0.2451 0.34771 0.0
H432 H 0.39915 0.22352 0.21534 0.0
H433 H 0.38806 0.2461 0.26808 0.0
H434 H 0.39956 0.21966 0.30464 0.0
H435 H 0.42532 0.24075 0.37835 0.0
H436 H 0.43523 0.26911 0.35019 0.0
C437 C 0.49455 0.27742 0.09115 0.0
C438 C 0.46494 0.25861 1.00867 0.0
C439 C 0.39025 0.33599 0.30568 0.0
C440 C 0.38553 0.32869 0.37143 0.0
C441 C 0.38577 0.30441 0.38477 0.0
C442 C 0.39393 0.28821 0.3364 0.0
C443 C 0.40232 0.29644 0.27463 0.0
C444 C 0.39915 0.31976 0.25872 0.0
C445 C 0.40976 0.32566 0.19198 0.0
C446 C 0.42175 0.3025 0.17343 0.0
C447 C 0.41733 0.28555 0.22198 0.0
C448 C 0.42774 0.34588 0.20333 0.0
C449 C 0.3894 0.33166 0.14305 0.0
C450 C 0.44866 0.20396 0.2639 0.0
C451 C 0.46639 0.18987 0.23584 0.0
C452 C 0.47916 0.19874 0.18081 0.0
C453 C 0.47386 0.2211 0.15384 0.0
C454 C 0.45591 0.23498 0.18295 0.0
C455 C 0.44395 0.22618 0.23765 0.0
C456 C 0.42706 0.24351 0.26752 0.0
C457 C 0.42949 0.26377 0.21964 0.0
C458 C 0.44642 0.25907 0.16942 0.0
C459 C 0.43574 0.24995 0.33966 0.0
C460 C 0.40209 0.23271 0.26432 0.0
H461 H 0.42186 0.34236 0.06196 0.0
H462 H 0.49196 0.30523 0.95786 0.0
H463 H 0.44775 0.26157 0.98345 0.0
H464 H 0.46426 0.24076 0.02939 0.0
H465 H 0.4789 0.25909 0.96984 0.0
H466 H 0.4978 0.2934 0.12268 0.0
H467 H 0.50757 0.27718 0.0497 0.0
H468 H 0.49791 0.26218 0.12338 0.0
H469 H 0.39012 0.35449 0.29355 0.0
H470 H 0.38177 0.29824 0.43463 0.0
H471 H 0.39491 0.27014 0.35076 0.0
H472 H 0.43892 0.34231 0.2479 0.0
H473 H 0.41867 0.36294 0.21194 0.0
H474 H 0.44004 0.3482 0.1615 0.0
H475 H 0.37198 0.32601 0.16226 0.0
H476 H 0.39129 0.32237 0.09399 0.0
H477 H 0.38827 0.35089 0.13446 0.0
H478 H 0.44208 0.36241 0.97485 0.0
C479 C 0.43691 0.33376 0.04116 0.0
Gd480 Gd 0.99083 0.02442 0.57568 0.0
Gd481 Gd 0.03591 1.00591 0.69273 0.0
C482 C 0.0801 0.05478 0.82562 0.0
C483 C 0.11837 0.05268 0.77213 0.0
C484 C 0.0855 0.03009 0.72703 0.0
C485 C 0.0709 0.03952 0.77573 0.0
C486 C 0.10948 0.03631 0.72512 0.0
C487 C 0.10375 0.06175 0.82264 0.0
C488 C 0.06552 0.0618 0.87854 0.0
C489 C 0.04239 0.05371 0.88069 0.0
N490 N 0.04807 0.03264 0.77686 0.0
C491 C 0.0339 0.03908 0.82917 0.0
H492 H 0.01601 0.03293 0.83158 0.0
C493 C 0.09086 1.00209 0.63955 0.0
N494 N 0.07646 0.01394 0.68344 0.0
C495 C 0.11466 1.00794 0.63499 0.0
C496 C 0.12396 0.02536 0.67738 0.0
H497 H 0.08382 0.98872 0.6062 0.0
H498 H 0.11101 0.07373 0.86003 0.0
H499 H 0.01276 1.00054 0.43301 0.0
H500 H 0.07226 0.07281 0.91895 0.0
H501 H 0.03113 0.0585 0.92234 0.0
H502 H 0.1367 0.05783 0.77118 0.0
H503 H 0.94134 0.03998 0.6567 0.0
H504 H 0.95814 0.96299 0.33159 0.0
H505 H 0.99928 0.97705 0.33686 0.0
H506 H 0.8912 0.97508 0.47217 0.0
H507 H 0.12579 0.99906 0.59868 0.0
H508 H 0.14244 0.02977 0.674 0.0
H509 H 0.91836 0.96107 0.38437 0.0
H510 H 0.89935 0.0297 0.65646 0.0
N511 N 0.97983 1.00014 0.48366 0.0
C512 C 0.96413 0.97313 0.37471 0.0
C513 C 0.98728 0.98109 0.37743 0.0
C514 C 0.94866 0.97914 0.42644 0.0
C515 C 0.95702 0.99327 0.48016 0.0
C516 C 0.99487 0.99459 0.43246 0.0
N517 N 0.95002 0.01669 0.57571 0.0
C518 C 0.94168 1.00155 0.52833 0.0
C519 C 0.91104 0.02162 0.6201 0.0
C520 C 0.90242 1.00528 0.57336 0.0
C521 C 0.93491 0.02746 0.61986 0.0
C522 C 0.91766 0.99538 0.52578 0.0
H523 H 0.88389 1.00088 0.57335 0.0
O524 O 0.97327 0.05716 0.55249 0.0
O525 O 0.01602 0.03685 0.65584 0.0
O526 O 0.99962 1.00736 0.74278 0.0
O527 O 0.97353 1.0018 0.6542 0.0
O528 O 0.9828 0.05076 0.65897 0.0
O529 O 1.0028 0.04556 0.49237 0.0
O530 O 0.05422 0.97384 0.71843 0.0
O531 O 1.01006 0.99356 0.61488 0.0
O532 O 0.02725 0.02107 0.52698 0.0
O533 O 0.0526 0.02923 0.61509 0.0
O534 O 0.04204 0.97713 0.61433 0.0
O535 O 0.02907 0.98938 0.78799 0.0
C536 C 1.00313 0.05162 0.68707 0.0
C537 C 0.90953 0.98017 0.4747 0.0
C538 C 0.92498 0.97219 0.42478 0.0
C539 C 0.98993 0.0634 0.51164 0.0
C540 C 1.00267 0.08524 0.53046 0.0
C541 C 0.99223 0.10161 0.57486 0.0
C542 C 0.02629 0.08849 0.5115 0.0
C543 C 0.03949 0.10713 0.53911 0.0
C544 C 1.00532 0.12018 0.60191 0.0
C545 C 0.02889 0.12282 0.58482 0.0
C546 C 0.97836 1.00204 0.71927 0.0
C547 C 0.02185 0.97752 0.58544 0.0
C548 C 0.04253 0.97139 0.77402 0.0
C549 C 0.03281 0.9479 0.78544 0.0
C550 C 0.04839 0.9295 0.79949 0.0
C551 C 1.00847 0.9435 0.78281 0.0
C552 C 0.99986 0.92094 0.79624 0.0
C553 C 0.03988 0.90698 0.81146 0.0
C554 C 0.01577 0.90271 0.81021 0.0
C555 C 0.04811 0.0279 0.55003 0.0
H556 H 0.97412 0.09969 0.59041 0.0
H557 H 0.03462 0.07633 0.47656 0.0
H558 H 0.99712 0.1325 0.6364 0.0
H559 H 0.03869 0.13755 0.60553 0.0
H560 H 0.06717 0.9326 0.80132 0.0
H561 H 0.99628 0.95758 0.77209 0.0
H562 H 0.05199 0.89284 0.82225 0.0
H563 H 1.0095 0.88511 0.82018 0.0
Gd564 Gd 0.50368 0.99469 0.5758 0.0
Gd565 Gd 0.5209 0.04332 0.68435 0.0
C566 C 0.47177 0.08333 0.82669 0.0
C567 C 0.47029 0.122 0.77667 0.0
C568 C 0.49383 0.09084 0.72567 0.0
C569 C 0.48661 0.07543 0.77441 0.0
C570 C 0.4862 0.11446 0.72712 0.0
C571 C 0.46316 0.10648 0.82658 0.0
C572 C 0.46672 0.06801 0.87889 0.0
C573 C 0.4766 0.04557 0.87853 0.0
N574 N 0.49518 0.05312 0.77299 0.0
C575 C 0.49079 0.03836 0.825 0.0
H576 H 0.49807 0.02093 0.82591 0.0
C577 C 0.51978 0.09862 0.63632 0.0
N578 N 0.5095 0.08313 0.67929 0.0
C579 C 0.51273 0.12218 0.63565 0.0
C580 C 0.49554 0.13004 0.68046 0.0
H581 H 0.53294 0.09261 0.60107 0.0
H582 H 0.45148 0.11272 0.86583 0.0
H583 H 0.52667 0.0167 0.43407 0.0
H584 H 0.45582 0.07362 0.92058 0.0
H585 H 0.47342 0.03379 0.91969 0.0
H586 H 0.46403 0.14 0.77819 0.0
H587 H 0.49133 0.94561 0.65984 0.0
H588 H 0.56816 0.96341 0.33931 0.0
H589 H 0.55104 1.00346 0.34008 0.0
H590 H 0.55976 0.89742 0.48297 0.0
H591 H 0.52043 0.13419 0.60027 0.0
H592 H 0.49011 0.14831 0.67992 0.0
H593 H 0.5724 0.92444 0.39477 0.0
H594 H 0.50361 0.90399 0.66137 0.0
N595 N 0.52931 0.98454 0.48726 0.0
C596 C 0.55745 0.96922 0.38117 0.0
C597 C 0.54781 0.99177 0.38142 0.0
C598 C 0.55239 0.95406 0.43371 0.0
C599 C 0.53768 0.96216 0.48602 0.0
C600 C 0.53378 0.9992 0.43507 0.0
N601 N 0.51474 0.95479 0.58124 0.0
C602 C 0.53036 0.94688 0.53496 0.0
C603 C 0.51134 0.91587 0.62568 0.0
C604 C 0.52843 0.90779 0.58084 0.0
C605 C 0.50442 0.93946 0.6246 0.0
C606 C 0.53782 0.92321 0.53383 0.0
H607 H 0.53374 0.8895 0.58166 0.0
O608 O 0.473 0.97294 0.55892 0.0
O609 O 0.49049 0.02174 0.64972 0.0
O610 O 0.52316 1.00808 0.73919 0.0
O611 O 0.52802 0.98001 0.65466 0.0
O612 O 0.47819 0.98809 0.66041 0.0
O613 O 0.48279 0.99897 0.48556 0.0
O614 O 0.55119 0.0656 0.70117 0.0
O615 O 0.53404 0.01627 0.61056 0.0
O616 O 0.5017 0.02989 0.52081 0.0
O617 O 0.49665 0.05797 0.60519 0.0
O618 O 0.54655 0.04978 0.59978 0.0
O619 O 0.54201 0.03929 0.77433 0.0
C620 C 0.47661 1.00921 0.68374 0.0
C621 C 0.55363 0.91547 0.48427 0.0
C622 C 0.56082 0.93084 0.43406 0.0
C623 C 0.46713 0.98365 0.50422 0.0
C624 C 0.44257 0.99097 0.5006 0.0
C625 C 0.42695 0.97747 0.46197 0.0
C626 C 0.43452 0.01093 0.53615 0.0
C627 C 0.41083 0.01794 0.53138 0.0
C628 C 0.40346 0.984 0.45752 0.0
C629 C 0.39549 1.00413 0.4911 0.0
C630 C 0.52894 0.98649 0.71868 0.0
C631 C 0.54803 0.02865 0.57651 0.0
C632 C 0.5573 0.05501 0.75583 0.0
C633 C 0.58203 0.04833 0.75943 0.0
C634 C 0.59733 0.06226 0.7979 0.0
C635 C 0.59055 0.02856 0.72404 0.0
C636 C 0.61435 0.02196 0.7293 0.0
C637 C 0.62095 0.05627 0.80247 0.0
C638 C 0.62937 0.03622 0.76939 0.0
C639 C 0.4958 0.05145 0.54119 0.0
H640 H 0.43297 0.96193 0.43496 0.0
H641 H 0.44683 0.02093 0.56656 0.0
H642 H 0.39146 0.97369 0.42681 0.0
H643 H 0.37738 1.00917 0.48304 0.0
H644 H 0.59095 0.07769 0.8247 0.0
H645 H 0.57844 0.01833 0.69358 0.0
H646 H 0.63271 0.0669 0.83306 0.0
H647 H 0.64755 0.03159 0.77794 0.0
Gd648 Gd 0.49175 0.52575 0.67201 0.0
Gd649 Gd 0.54057 0.50595 0.56847 0.0
C650 C 0.61869 0.51639 0.61061 0.0
C651 C 0.62983 0.54435 0.52529 0.0
C652 C 0.58944 0.53064 0.5327 0.0
C653 C 0.59526 0.51719 0.58759 0.0
C654 C 0.60672 0.54418 0.50045 0.0
C655 C 0.63584 0.53036 0.58 0.0
C656 C 0.62433 0.50115 0.6627 0.0
C657 C 0.60683 0.48714 0.69039 0.0
N658 N 0.57824 0.50409 0.61667 0.0
C659 C 0.58379 0.48875 0.66647 0.0
H660 H 0.57044 0.47774 0.6881 0.0
C661 C 0.56112 0.5409 0.45112 0.0
N662 N 0.56704 0.5298 0.50928 0.0
C663 C 0.57756 0.5548 0.41795 0.0
C664 C 0.6004 0.55666 0.44313 0.0
H665 H 0.5435 0.53969 0.43131 0.0
H666 H 0.65386 0.5302 0.59762 0.0
H667 H 0.46728 0.5595 0.54973 0.0
H668 H 0.64221 0.4998 0.68094 0.0
H669 H 0.61107 0.47499 0.72989 0.0
H670 H 0.6433 0.55477 0.5015 0.0
H671 H 0.48175 0.48947 0.79963 0.0
H672 H 0.3939 0.54576 0.54396 0.0
H673 H 0.42856 0.56723 0.50283 0.0
H674 H 0.3829 0.48683 0.70934 0.0
H675 H 0.57259 0.56409 0.37308 0.0
H676 H 0.61313 0.56737 0.41718 0.0
H677 H 0.37728 0.5148 0.61777 0.0
H678 H 0.44891 0.46674 0.84694 0.0
N679 N 0.45559 0.53315 0.61731 0.0
C680 C 0.4111 0.54185 0.56417 0.0
C681 C 0.43059 0.55416 0.54138 0.0
C682 C 0.41393 0.52502 0.61382 0.0
C683 C 0.43661 0.52122 0.64051 0.0
C684 C 0.45273 0.5497 0.5688 0.0
N685 N 0.46135 0.50349 0.71993 0.0
C686 C 0.43966 0.50568 0.6926 0.0
C687 C 0.44605 0.47756 0.80343 0.0
C688 C 0.42385 0.47874 0.77385 0.0
C689 C 0.4646 0.49043 0.77645 0.0
C690 C 0.4203 0.49328 0.71866 0.0
H691 H 0.40946 0.46885 0.79503 0.0
O692 O 0.47987 0.5382 0.76913 0.0
O693 O 0.53089 0.52299 0.66587 0.0
O694 O 0.52986 0.47748 0.64272 0.0
O695 O 0.49074 0.48592 0.66446 0.0
O696 O 0.5162 0.51467 0.75619 0.0
O697 O 0.49232 0.56317 0.69651 0.0
O698 O 0.54235 0.4886 0.47101 0.0
O699 O 0.50143 0.50753 0.57737 0.0
O700 O 0.50353 0.55406 0.59813 0.0
O701 O 0.54282 0.54558 0.57745 0.0
O702 O 0.51486 0.51375 0.4841 0.0
O703 O 0.55556 0.47107 0.55958 0.0
C704 C 0.53585 0.5173 0.72547 0.0
C705 C 0.39794 0.49631 0.69031 0.0
C706 C 0.39473 0.51226 0.63829 0.0
C707 C 0.4872 0.55952 0.75932 0.0
C708 C 0.5036 0.56873 0.81077 0.0
C709 C 0.50054 0.56228 0.87799 0.0
C710 C 0.52319 0.5824 0.79319 0.0
C711 C 0.53966 0.5894 0.8422 0.0
C712 C 0.51701 0.56882 0.92652 0.0
C713 C 0.53647 0.58218 0.90889 0.0
C714 C 0.50878 0.47121 0.66444 0.0
C715 C 0.49568 0.51208 0.51762 0.0
C716 C 0.55099 0.46931 0.49569 0.0
C717 C 0.53996 0.44729 0.47402 0.0
C718 C 0.55433 0.42917 0.4493 0.0
C719 C 0.51555 0.44391 0.47914 0.0
C720 C 0.50556 0.42247 0.45797 0.0
C721 C 0.54452 0.40775 0.42939 0.0
C722 C 0.52032 0.40438 0.43361 0.0
C723 C 0.52482 0.56035 0.57742 0.0
H724 H 0.48562 0.55174 0.89282 0.0
H725 H 0.52549 0.58782 0.74172 0.0
H726 H 0.51469 0.56348 0.978 0.0
H727 H 0.54898 0.58698 0.94777 0.0
H728 H 0.57317 0.43158 0.44574 0.0
H729 H 0.50445 0.45795 0.4984 0.0
H730 H 0.55568 0.39373 0.41062 0.0
H731 H 0.51312 0.38751 0.41813 0.0
Gd732 Gd 1.00218 0.4913 0.68659 0.0
Gd733 Gd 0.02326 0.53913 0.58407 0.0
C734 C 0.01352 0.61743 0.62783 0.0
C735 C 0.9868 0.62904 0.53898 0.0
C736 C 0.99981 0.5884 0.54668 0.0
C737 C 0.01262 0.59398 0.60385 0.0
C738 C 0.98696 0.60593 0.51316 0.0
C739 C 1.0002 0.63481 0.59592 0.0
C740 C 0.02832 0.62285 0.68198 0.0
C741 C 0.04182 0.60514 0.71072 0.0
N742 N 0.02513 0.57676 0.63413 0.0
C743 C 0.04005 0.5821 0.68599 0.0
H744 H 0.05065 0.56859 0.70853 0.0
C745 C 0.99038 0.56035 0.46197 0.0
N746 N 1.00068 0.56601 0.52224 0.0
C747 C 0.97716 0.57704 0.42752 0.0
C748 C 0.97521 0.59987 0.45361 0.0
H749 H 0.9917 0.54275 0.44139 0.0
H750 H 1.00044 0.65285 0.61422 0.0
H751 H 0.97409 0.4632 0.56056 0.0
H752 H 0.02986 0.64074 0.70074 0.0
H753 H 0.05375 0.60922 0.75161 0.0
H754 H 0.97691 0.6427 0.51421 0.0
H755 H 0.02752 0.48328 0.83583 0.0
H756 H 0.99633 0.39146 0.55611 0.0
H757 H 0.97149 0.42344 0.51151 0.0
H758 H 0.04872 0.38654 0.74293 0.0
H759 H 0.96846 0.57228 0.38092 0.0
H760 H 0.96505 0.6128 0.42662 0.0
H761 H 0.02642 0.37826 0.63933 0.0
H762 H 0.05063 0.45293 0.8942 0.0
N763 N 1.00053 0.45431 0.6317 0.0
C764 C 0.99778 0.40904 0.57713 0.0
C765 C 0.98366 0.42698 0.55219 0.0
C766 C 0.01282 0.41372 0.63121 0.0
C767 C 0.0134 0.43671 0.65873 0.0
C768 C 0.98516 0.44957 0.5804 0.0
N769 N 0.02331 0.46279 0.74654 0.0
C770 C 0.0255 0.44121 0.71755 0.0
C771 C 0.04387 0.44945 0.84421 0.0
C772 C 0.04784 0.4277 0.81285 0.0
C773 C 0.03089 0.46662 0.81093 0.0
C774 C 0.03795 0.42307 0.74967 0.0
H775 H 0.0576 0.41428 0.83908 0.0
O776 O 0.98311 0.49107 0.78076 0.0
O777 O 1.00419 0.53041 0.67756 0.0
O778 O 0.05152 0.52839 0.6602 0.0
O779 O 0.04177 0.49108 0.6992 0.0
O780 O 1.00912 0.51724 0.77199 0.0
O781 O 0.96737 0.47605 0.69086 0.0
O782 O 0.04167 0.53937 0.48882 0.0
O783 O 0.02189 0.49981 0.59324 0.0
O784 O 0.97489 0.50287 0.60816 0.0
O785 O 0.98361 0.54183 0.58596 0.0
O786 O 0.01538 0.51332 0.49965 0.0
O787 O 0.05766 0.55509 0.57782 0.0
C788 C 1.008 0.53636 0.7383 0.0
C789 C 0.03903 0.40063 0.71948 0.0
C790 C 0.02632 0.39591 0.66054 0.0
C791 C 0.96445 0.48165 0.7537 0.0
C792 C 0.94191 0.49249 0.77024 0.0
C793 C 0.9232 0.47782 0.78779 0.0
C794 C 0.93865 0.51697 0.76768 0.0
C795 C 0.91677 0.5267 0.78468 0.0
C796 C 0.90135 0.48742 0.80333 0.0
C797 C 0.89812 0.51169 0.80198 0.0
C798 C 0.05675 0.50875 0.69238 0.0
C799 C 0.01743 0.49412 0.53251 0.0
C800 C 0.0604 0.54905 0.51512 0.0
C801 C 0.08306 0.53828 0.49896 0.0
C802 C 0.10231 0.55308 0.48784 0.0
C803 C 0.08601 0.51371 0.49683 0.0
C804 C 0.10813 0.50416 0.4818 0.0
C805 C 0.12435 0.54356 0.47401 0.0
C806 C 0.12727 0.51924 0.4707 0.0
C807 C 0.9688 0.52387 0.58526 0.0
H808 H 0.92552 0.45891 0.78931 0.0
H809 H 0.95311 0.52834 0.75394 0.0
H810 H 0.88691 0.47604 0.8167 0.0
H811 H 0.88098 0.51879 0.81439 0.0
H812 H 0.10028 0.57202 0.49016 0.0
H813 H 0.07122 0.50217 0.50582 0.0
H814 H 0.13918 0.55505 0.46553 0.0
H815 H 0.1445 0.51214 0.45936 0.0
C816 C 0.1496 0.0646 0.287 0.0
C817 C 0.16777 0.04789 0.28484 0.0
C818 C 0.12932 0.06118 0.32627 0.0
C819 C 0.12727 0.04088 0.36633 0.0
C820 C 0.14541 0.02373 0.36338 0.0
C821 C 0.16532 0.02735 0.32237 0.0
C822 C 0.11038 0.07972 0.3267 0.0
C823 C 0.1442 1.00194 0.40553 0.0
C824 C 0.088 0.04458 0.52258 0.0
C825 C 0.06773 0.03239 0.50174 0.0
C826 C 0.10735 0.04748 0.47934 0.0
C827 C 0.10659 0.03809 0.41293 0.0
C828 C 0.08591 0.02633 0.39104 0.0
C829 C 0.06682 0.02365 0.43547 0.0
C830 C 0.12885 0.06014 0.50557 0.0
C831 C 0.08401 0.01629 0.32072 0.0
H832 H 0.15154 0.08066 0.25888 0.0
H833 H 0.17949 0.01461 0.32203 0.0
H834 H 0.09313 0.07171 0.31403 0.0
H835 H 0.10886 0.08748 0.37785 0.0
H836 H 0.11402 0.09398 0.29069 0.0
H837 H 0.15914 0.98981 0.39571 0.0
H838 H 0.14431 1.00702 0.45951 0.0
H839 H 0.12753 0.99239 0.39555 0.0
H840 H 0.08888 0.05172 0.57326 0.0
H841 H 0.05137 0.0142 0.41847 0.0
H842 H 0.13483 0.07342 0.46923 0.0
H843 H 0.14335 0.04731 0.51189 0.0
H844 H 0.12561 0.06906 0.55467 0.0
H845 H 0.08698 0.03034 0.28361 0.0
H846 H 0.0666 1.00813 0.3107 0.0
H847 H 0.09782 1.00279 0.31255 0.0
C848 C 0.45305 0.15116 0.28196 0.0
C849 C 0.47156 0.16657 0.26699 0.0
C850 C 0.45667 0.13092 0.32061 0.0
C851 C 0.47936 0.12593 0.34627 0.0
C852 C 0.49833 0.14092 0.32908 0.0
C853 C 0.49425 0.16091 0.28931 0.0
C854 C 0.43583 0.11567 0.33702 0.0
C855 C 0.52275 0.13653 0.35571 0.0
C856 C 0.48225 0.09218 0.51079 0.0
C857 C 0.48985 0.06972 0.49015 0.0
C858 C 0.47919 0.11055 0.4649 0.0
C859 C 0.48279 0.10632 0.39545 0.0
C860 C 0.48931 0.08336 0.37359 0.0
C861 C 0.49295 0.06546 0.42105 0.0
C862 C 0.47258 0.13471 0.49114 0.0
C863 C 0.4926 0.07777 0.3 0.0
H864 H 0.43545 0.15534 0.26487 0.0
H865 H 0.50859 0.17282 0.27873 0.0
H866 H 0.44048 0.09674 0.3334 0.0
H867 H 0.43022 0.11944 0.38933 0.0
H868 H 0.42065 0.11904 0.30332 0.0
H869 H 0.53591 0.14871 0.3342 0.0
H870 H 0.52283 0.1388 0.41112 0.0
H871 H 0.52823 0.11818 0.34441 0.0
H872 H 0.47888 0.09558 0.56337 0.0
H873 H 0.4985 0.04818 0.40386 0.0
H874 H 0.45643 0.14101 0.46582 0.0
H875 H 0.48683 0.14735 0.47982 0.0
H876 H 0.46951 0.13498 0.54616 0.0
H877 H 0.47627 0.08195 0.27202 0.0
H878 H 0.49709 0.05899 0.29074 0.0
H879 H 0.50681 0.08887 0.27936 0.0
C880 C 0.36901 0.49906 0.32668 0.0
C881 C 0.36836 0.47741 0.2922 0.0
C882 C 0.38908 0.50624 0.3637 0.0
C883 C 0.40926 0.49147 0.36649 0.0
C884 C 0.40902 0.4701 0.32878 0.0
C885 C 0.38862 0.46326 0.29302 0.0
C886 C 0.38764 0.52904 0.4028 0.0
C887 C 0.4303 0.45425 0.32673 0.0
C888 C 0.4688 0.51769 0.41947 0.0
C889 C 0.4725 0.50812 0.48327 0.0
C890 C 0.44834 0.51271 0.38168 0.0
C891 C 0.43061 0.49806 0.40833 0.0
C892 C 0.434 0.4888 0.47359 0.0
C893 C 0.45512 0.49333 0.50928 0.0
C894 C 0.44589 0.52283 0.31245 0.0
C895 C 0.41543 0.47381 0.50553 0.0
H896 H 0.35332 0.50988 0.3278 0.0
H897 H 0.38827 0.44639 0.26692 0.0
H898 H 0.378 0.52577 0.45004 0.0
H899 H 0.40512 0.53648 0.4153 0.0
H900 H 0.37751 0.54233 0.37443 0.0
H901 H 0.42758 0.4385 0.29397 0.0
H902 H 0.44572 0.46415 0.30821 0.0
H903 H 0.43462 0.44829 0.37799 0.0
H904 H 0.48224 0.52885 0.39833 0.0
H905 H 0.45807 0.48516 0.55734 0.0
H906 H 0.43008 0.53422 0.31035 0.0
H907 H 0.44341 0.50841 0.27494 0.0
H908 H 0.46145 0.53337 0.29795 0.0
H909 H 0.39778 0.48176 0.49871 0.0
H910 H 0.41868 0.47151 0.55998 0.0
H911 H 0.41528 0.45624 0.48088 0.0
C912 C 0.06451 0.38964 0.29061 0.0
C913 C 0.05114 0.36877 0.28996 0.0
C914 C 0.05808 0.40949 0.33 0.0
C915 C 0.03776 0.4088 0.37108 0.0
C916 C 0.02349 0.38818 0.3677 0.0
C917 C 0.03038 0.36855 0.32768 0.0
C918 C 0.0732 0.43128 0.32765 0.0
C919 C 1.00129 0.3859 0.40788 0.0
C920 C 0.03786 0.45418 0.51802 0.0
C921 C 0.02192 0.47124 0.49559 0.0
C922 C 0.0423 0.43335 0.47981 0.0
C923 C 0.03156 0.42985 0.41576 0.0
C924 C 0.01583 0.44732 0.39269 0.0
C925 C 0.01114 0.46749 0.43271 0.0
C926 C 0.05854 0.41505 0.50811 0.0
C927 C 1.00415 0.4449 0.32491 0.0
H928 H 0.08049 0.39025 0.26123 0.0
H929 H 0.01998 0.35258 0.3285 0.0
H930 H 0.06238 0.44655 0.31235 0.0
H931 H 0.08033 0.43539 0.37824 0.0
H932 H 0.08812 0.42931 0.29219 0.0
H933 H 0.98739 0.37721 0.37714 0.0
H934 H 1.00485 0.37437 0.45115 0.0
H935 H 0.9945 0.403 0.42643 0.0
H936 H 0.04686 0.45709 0.5654 0.0
H937 H 0.99905 0.48064 0.4142 0.0
H938 H 0.07523 0.41494 0.47966 0.0
H939 H 0.05057 0.3973 0.50281 0.0
H940 H 0.06258 0.41849 0.5619 0.0
H941 H 0.01767 0.44278 0.28523 0.0
H942 H 0.99301 0.46033 0.31291 0.0
H943 H 0.99299 0.42889 0.32351 0.0
C944 C 0.86119 0.99678 0.95071 0.0
C945 C 0.86032 0.97528 0.98445 0.0
C946 C 0.88101 1.00304 0.91195 0.0
C947 C 0.90046 0.98745 0.90638 0.0
C948 C 0.90014 0.96637 0.94343 0.0
C949 C 0.88032 0.96072 0.98225 0.0
C950 C 0.88057 0.02573 0.87378 0.0
C951 C 0.92015 0.94898 0.93852 0.0
C952 C 0.93761 0.98738 0.74587 0.0
C953 C 0.95873 0.99779 0.76767 0.0
C954 C 0.91844 0.98445 0.78966 0.0
C955 C 0.92023 0.99195 0.85784 0.0
C956 C 0.94147 1.00263 0.88004 0.0
C957 C 0.96043 1.00524 0.83507 0.0
C958 C 0.89611 0.97405 0.76098 0.0
C959 C 0.94399 0.01184 0.95109 0.0
H960 H 0.84583 1.00805 0.95126 0.0
H961 H 0.87997 0.94413 1.00836 0.0
H962 H 0.89746 0.03527 0.88016 0.0
H963 H 0.87834 0.02175 0.81945 0.0
H964 H 0.86598 0.03741 0.89027 0.0
H965 H 0.91719 0.93324 0.96974 0.0
H966 H 0.92241 0.94321 0.8855 0.0
H967 H 0.93683 0.95741 0.9546 0.0
H968 H 0.93593 0.98153 0.69406 0.0
H969 H 0.97645 0.0136 0.85256 0.0
H970 H 0.88637 0.98804 0.73434 0.0
H971 H 0.88435 0.96674 0.79967 0.0
H972 H 0.90016 0.96002 0.72347 0.0
H973 H 0.92962 0.02446 0.96251 0.0
H974 H 0.96111 0.02077 0.95981 0.0
H975 H 0.94239 0.99719 0.98693 0.0
C976 C 0.57161 0.88677 0.97791 0.0
C977 C 0.55326 0.87106 0.9919 0.0
C978 C 0.56788 0.90701 0.93938 0.0
C979 C 0.54525 0.91172 0.91287 0.0
C980 C 0.52641 0.89644 0.92916 0.0
C981 C 0.5306 0.87641 0.96879 0.0
C982 C 0.58858 0.92259 0.92395 0.0
C983 C 0.50206 0.90053 0.90167 0.0
C984 C 0.53146 0.97225 0.83864 0.0
C985 C 0.53483 0.96815 0.76956 0.0
C986 C 0.535 0.95425 0.88588 0.0
C987 C 0.5418 0.93139 0.86385 0.0
C988 C 0.5457 0.92734 0.79444 0.0
C989 C 0.54262 0.94577 0.74875 0.0
C990 C 0.5313 0.95964 0.95942 0.0
C991 C 0.55275 0.90334 0.76803 0.0
H992 H 0.58919 0.88279 0.99552 0.0
H993 H 0.51639 0.86425 0.97857 0.0
H994 H 0.59423 0.91926 0.87145 0.0
H995 H 0.58371 0.94143 0.92866 0.0
H996 H 0.60378 0.91915 0.95749 0.0
H997 H 0.48897 0.88816 0.92262 0.0
H998 H 0.49631 0.91881 0.91291 0.0
H999 H 0.50226 0.89831 0.84626 0.0
H1000 H 0.52574 0.98945 0.85595 0.0
H1001 H 0.54611 0.94249 0.69616 0.0
H1002 H 0.54754 0.95561 0.98797 0.0
H1003 H 0.51714 0.94831 0.97931 0.0
H1004 H 0.52652 0.97834 0.96884 0.0
H1005 H 0.5689 0.89723 0.7937 0.0
H1006 H 0.55601 0.90322 0.7131 0.0
H1007 H 0.53865 0.89046 0.77876 0.0
C1008 C 0.64415 0.56337 0.95824 0.0
C1009 C 0.6624 0.54684 0.96241 0.0
C1010 C 0.62337 0.55855 0.92163 0.0
C1011 C 0.62096 0.537 0.88513 0.0
C1012 C 0.63939 0.52015 0.88984 0.0
C1013 C 0.65968 0.5252 0.92864 0.0
C1014 C 0.6042 0.57685 0.92188 0.0
C1015 C 0.63859 0.49714 0.85138 0.0
C1016 C 0.56065 0.51334 0.82899 0.0
C1017 C 0.55814 0.52223 0.76391 0.0
C1018 C 0.58056 0.51843 0.86906 0.0
C1019 C 0.5992 0.53208 0.84307 0.0
C1020 C 0.59668 0.54136 0.77758 0.0
C1021 C 0.57592 0.53702 0.7399 0.0
C1022 C 0.58148 0.5094 0.93984 0.0
C1023 C 0.61615 0.55552 0.74673 0.0
H1024 H 0.64615 0.58023 0.98374 0.0
H1025 H 0.67389 0.51253 0.93033 0.0
H1026 H 0.60639 0.58827 0.87782 0.0
H1027 H 0.58656 0.56864 0.91903 0.0
H1028 H 0.60507 0.58826 0.96753 0.0
H1029 H 0.64935 0.48348 0.87633 0.0
H1030 H 0.62046 0.49037 0.84511 0.0
H1031 H 0.64608 0.49992 0.80086 0.0
H1032 H 0.54675 0.50253 0.84923 0.0
H1033 H 0.57376 0.54497 0.69123 0.0
H1034 H 0.58502 0.52418 0.9755 0.0
H1035 H 0.59607 0.4966 0.94477 0.0
H1036 H 0.56485 0.50067 0.9546 0.0
H1037 H 0.61919 0.5718 0.77659 0.0
H1038 H 0.61214 0.56041 0.69419 0.0
H1039 H 0.63276 0.54528 0.74749 0.0
C1040 C 0.99586 0.66391 0.93169 0.0
C1041 C 0.97428 0.6652 0.96533 0.0
C1042 C 1.00257 0.64351 0.89468 0.0
C1043 C 0.98734 0.62361 0.89061 0.0
C1044 C 0.96606 0.62447 0.92762 0.0
C1045 C 0.95976 0.64513 0.96361 0.0
C1046 C 0.02557 0.64426 0.85765 0.0
C1047 C 0.94973 0.60355 0.92895 0.0
C1048 C 0.98838 0.57682 0.7475 0.0
C1049 C 1.0035 0.5596 0.77327 0.0
C1050 C 0.98387 0.5981 0.78347 0.0
C1051 C 0.99346 0.60184 0.84885 0.0
C1052 C 1.00814 0.58411 0.8756 0.0
C1053 C 0.01313 0.56355 0.83752 0.0
C1054 C 0.96886 0.61663 0.75117 0.0
C1055 C 0.01838 0.58668 0.94523 0.0
H1056 H 1.00705 0.67935 0.93129 0.0
H1057 H 0.94297 0.64587 0.98917 0.0
H1058 H 0.03221 0.62659 0.84357 0.0
H1059 H 0.02313 0.65465 0.81151 0.0
H1060 H 0.03915 0.65337 0.88859 0.0
H1061 H 0.9347 0.60635 0.96365 0.0
H1062 H 0.94264 0.59994 0.87801 0.0
H1063 H 0.95951 0.58764 0.94455 0.0
H1064 H 0.98011 0.57373 0.69915 0.0
H1065 H 0.02446 0.55024 0.85872 0.0
H1066 H 0.97702 0.63426 0.75775 0.0
H1067 H 0.9514 0.61717 0.77553 0.0
H1068 H 0.96627 0.61307 0.69675 0.0
H1069 H 0.03028 0.60213 0.94748 0.0
H1070 H 0.02843 0.57087 0.96044 0.0
H1071 H 1.00411 0.58987 0.98214 0.0
C1072 C 0.15268 0.16676 0.38555 0.0
C1073 C 0.14256 0.18933 0.38577 0.0
C1074 C 0.14278 0.14861 0.4234 0.0
C1075 C 0.12245 0.1533 0.46208 0.0
C1076 C 0.11507 0.17687 0.47199 0.0
C1077 C 0.12523 0.1946 0.43378 0.0
C1078 C 0.15245 0.12408 0.41529 0.0
C1079 C 0.09408 0.18297 0.51522 0.0
C1080 C 0.06698 0.1179 0.44868 0.0
C1081 C 0.06356 0.11201 0.51573 0.0
C1082 C 0.08758 0.12928 0.42873 0.0
C1083 C 0.10535 0.1343 0.47694 0.0
C1084 C 0.10323 0.12541 0.54262 0.0
C1085 C 0.08206 0.11473 0.56173 0.0
C1086 C 0.08898 0.13831 0.35791 0.0
C1087 C 0.12219 0.12907 0.59464 0.0
H1088 H 0.16687 0.16267 0.35112 0.0
H1089 H 0.11738 0.21194 0.43599 0.0
H1090 H 0.14837 0.11313 0.45934 0.0
H1091 H 0.14461 0.11568 0.36996 0.0
H1092 H 0.17179 0.12449 0.40801 0.0
H1093 H 0.09254 0.20222 0.52455 0.0
H1094 H 0.07777 0.17681 0.48985 0.0
H1095 H 0.09526 0.17409 0.56425 0.0
H1096 H 0.05265 0.11566 0.41319 0.0
H1097 H 0.07948 0.10973 0.61347 0.0
H1098 H 0.10671 0.13534 0.33654 0.0
H1099 H 0.08563 0.15754 0.3584 0.0
H1100 H 0.07583 0.12972 0.3243 0.0
H1101 H 0.13981 0.13057 0.5714 0.0
H1102 H 0.12238 0.11436 0.63074 0.0
H1103 H 0.11859 0.14552 0.62345 0.0
C1104 C 0.34669 0.13598 0.48788 0.0
C1105 C 0.34751 0.13027 0.41908 0.0
C1106 C 0.36038 0.12354 0.53452 0.0
C1107 C 0.37457 0.10456 0.51178 0.0
C1108 C 0.37721 0.10043 0.4418 0.0
C1109 C 0.36398 0.11354 0.39677 0.0
C1110 C 0.35835 0.13003 0.60787 0.0
C1111 C 0.39189 0.08036 0.41376 0.0
C1112 C 0.41727 0.0606 0.56497 0.0
C1113 C 0.4024 0.04083 0.56054 0.0
C1114 C 0.40771 0.0834 0.56655 0.0
C1115 C 0.38326 0.08615 0.55804 0.0
C1116 C 0.36843 0.06672 0.56977 0.0
C1117 C 0.3783 0.0442 0.57238 0.0
C1118 C 0.42385 0.1043 0.56579 0.0
C1119 C 0.34204 0.06917 0.569 0.0
H1120 H 0.33447 0.14928 0.50574 0.0
H1121 H 0.36487 0.1087 0.34409 0.0
H1122 H 0.37166 0.12115 0.63943 0.0
H1123 H 0.36033 0.14936 0.61453 0.0
H1124 H 0.34052 0.12545 0.62597 0.0
H1125 H 0.39204 0.0798 0.35801 0.0
H1126 H 0.41034 0.08195 0.43105 0.0
H1127 H 0.38491 0.06332 0.4314 0.0
H1128 H 0.43611 0.05874 0.56013 0.0
H1129 H 0.36676 0.02914 0.57635 0.0
H1130 H 0.4146 0.12066 0.5816 0.0
H1131 H 0.43057 0.10662 0.51418 0.0
H1132 H 0.43904 0.10143 0.59972 0.0
H1133 H 0.33658 0.08376 0.60298 0.0
H1134 H 0.33312 0.05281 0.58496 0.0
H1135 H 0.336 0.07339 0.51754 0.0
C1136 C 0.37993 0.36931 0.41968 0.0
C1137 C 0.3884 0.34627 0.42678 0.0
C1138 C 0.39232 0.38842 0.44801 0.0
C1139 C 0.41387 0.38414 0.48116 0.0
C1140 C 0.41921 0.36094 0.50121 0.0
C1141 C 0.40613 0.34218 0.47424 0.0
C1142 C 0.38438 0.41311 0.43381 0.0
C1143 C 0.44124 0.35547 0.54042 0.0
C1144 C 0.46898 0.40781 0.4045 0.0
C1145 C 0.47987 0.41845 0.46001 0.0
C1146 C 0.44634 0.39857 0.40904 0.0
C1147 C 0.43397 0.40044 0.47073 0.0
C1148 C 0.44372 0.41395 0.52428 0.0
C1149 C 0.46676 0.4227 0.5185 0.0
C1150 C 0.43673 0.38496 0.34921 0.0
C1151 C 0.43066 0.418 0.5891 0.0
H1152 H 0.36549 0.37257 0.38547 0.0
H1153 H 0.41237 0.32442 0.48205 0.0
H1154 H 0.38751 0.42465 0.47827 0.0
H1155 H 0.39453 0.42025 0.39127 0.0
H1156 H 0.36542 0.41363 0.4207 0.0
H1157 H 0.44163 0.33694 0.55728 0.0
H1158 H 0.4569 0.35854 0.50861 0.0
H1159 H 0.44263 0.36715 0.58517 0.0
H1160 H 0.47884 0.40542 0.35838 0.0
H1161 H 0.47496 0.43151 0.56109 0.0
H1162 H 0.41947 0.39218 0.33395 0.0
H1163 H 0.43417 0.36625 0.36243 0.0
H1164 H 0.4486 0.3856 0.30512 0.0
H1165 H 0.41135 0.41662 0.58214 0.0
H1166 H 0.43493 0.43559 0.61082 0.0
H1167 H 0.43628 0.40478 0.62614 0.0
C1168 C 0.16134 0.38082 0.39681 0.0
C1169 C 0.18427 0.39006 0.39832 0.0
C1170 C 0.14305 0.39231 0.43156 0.0
C1171 C 0.14801 0.41341 0.46721 0.0
C1172 C 0.17169 0.41928 0.48144 0.0
C1173 C 0.18962 0.40742 0.44691 0.0
C1174 C 0.11815 0.38392 0.42205 0.0
C1175 C 0.17802 0.4408 0.52298 0.0
C1176 C 0.12038 0.46985 0.41356 0.0
C1177 C 0.11171 0.47859 0.47443 0.0
C1178 C 0.12988 0.44726 0.40874 0.0
C1179 C 0.13068 0.433 0.46668 0.0
C1180 C 0.11924 0.44074 0.52617 0.0
C1181 C 0.10993 0.46367 0.52951 0.0
C1182 C 0.1412 0.43977 0.34318 0.0
C1183 C 0.11827 0.42577 0.58789 0.0
H1184 H 0.15715 0.36641 0.36267 0.0
H1185 H 0.2073 0.41433 0.45108 0.0
H1186 H 0.10775 0.38714 0.46828 0.0
H1187 H 0.10975 0.39372 0.38067 0.0
H1188 H 0.11759 0.36487 0.40909 0.0
H1189 H 0.19699 0.44121 0.5362 0.0
H1190 H 0.17385 0.45688 0.4943 0.0
H1191 H 0.16768 0.44139 0.56997 0.0
H1192 H 0.1212 0.4814 0.37076 0.0
H1193 H 0.10281 0.47042 0.57642 0.0
H1194 H 0.1344 0.42239 0.32646 0.0
H1195 H 0.16049 0.43817 0.34993 0.0
H1196 H 0.13786 0.4525 0.30247 0.0
H1197 H 0.12035 0.40679 0.57562 0.0
H1198 H 0.10137 0.42849 0.61466 0.0
H1199 H 0.13248 0.43117 0.62305 0.0
C1200 C 0.89958 0.84024 0.80324 0.0
C1201 C 0.88257 0.84604 0.85183 0.0
C1202 C 0.9123 0.85795 0.77142 0.0
C1203 C 0.9078 0.88172 0.789 0.0
C1204 C 0.88672 0.88734 0.82308 0.0
C1205 C 0.87404 0.86925 0.85378 0.0
C1206 C 0.93349 0.85104 0.73024 0.0
C1207 C 0.87962 0.91241 0.83718 0.0
C1208 C 0.96514 0.90525 0.85507 0.0
C1209 C 0.97436 0.91609 0.79848 0.0
C1210 C 0.94239 0.89604 0.8546 0.0
C1211 C 0.92847 0.89765 0.79558 0.0
C1212 C 0.93681 0.91088 0.74078 0.0
C1213 C 0.95983 0.91997 0.74282 0.0
C1214 C 0.93414 0.88294 0.91578 0.0
C1215 C 0.92232 0.91419 0.67823 0.0
H1216 H 0.90573 0.82231 0.79762 0.0
H1217 H 0.85964 0.87383 0.88701 0.0
H1218 H 0.93576 0.86305 0.68745 0.0
H1219 H 0.94949 0.85226 0.76209 0.0
H1220 H 0.93203 0.83272 0.71052 0.0
H1221 H 0.86048 0.91459 0.8283 0.0
H1222 H 0.88295 0.91669 0.89083 0.0
H1223 H 0.88939 0.92492 0.80555 0.0
H1224 H 0.97625 0.90293 0.89877 0.0
H1225 H 0.96688 0.92878 0.69936 0.0
H1226 H 0.93267 0.86389 0.90372 0.0
H1227 H 0.91657 0.8893 0.93163 0.0
H1228 H 0.94635 0.88509 0.95901 0.0
H1229 H 0.92706 0.90045 0.64057 0.0
H1230 H 0.92611 0.93152 0.65553 0.0
H1231 H 0.90321 0.91293 0.68849 0.0
C1232 C 0.65611 0.92533 0.87394 0.0
C1233 C 0.67264 0.90832 0.85483 0.0
C1234 C 0.645 0.93928 0.8264 0.0
C1235 C 0.64956 0.9353 0.75707 0.0
C1236 C 0.66411 0.91621 0.7371 0.0
C1237 C 0.67603 0.90329 0.78642 0.0
C1238 C 0.63035 0.95983 0.8516 0.0
C1239 C 0.66829 0.90997 0.66435 0.0
C1240 C 0.60824 0.97921 0.69592 0.0
C1241 C 0.62312 0.99896 0.70158 0.0
C1242 C 0.61768 0.95639 0.69667 0.0
C1243 C 0.64191 0.95361 0.70909 0.0
C1244 C 0.65707 0.97288 0.69859 0.0
C1245 C 0.64737 0.9954 0.69292 0.0
C1246 C 0.60145 0.93554 0.69574 0.0
C1247 C 0.68339 0.97033 0.70345 0.0
H1248 H 0.65366 0.92947 0.92676 0.0
H1249 H 0.68872 0.89001 0.77147 0.0
H1250 H 0.63789 0.97661 0.83382 0.0
H1251 H 0.61214 0.95843 0.83223 0.0
H1252 H 0.62944 0.96078 0.90725 0.0
H1253 H 0.66589 0.89074 0.65642 0.0
H1254 H 0.65636 0.91939 0.62977 0.0
H1255 H 0.68678 0.91402 0.65121 0.0
H1256 H 0.58934 0.98109 0.69804 0.0
H1257 H 0.65905 1.01036 0.68924 0.0
H1258 H 0.61082 0.91924 0.68001 0.0
H1259 H 0.58651 0.93856 0.661 0.0
H1260 H 0.59436 0.933 0.74684 0.0
H1261 H 0.68843 0.96549 0.75531 0.0
H1262 H 0.6927 0.98681 0.6904 0.0
H1263 H 0.68943 0.9561 0.66906 0.0
C1264 C 0.6501 0.66985 0.84025 0.0
C1265 C 0.64067 0.69231 0.82964 0.0
C1266 C 0.63808 0.64973 0.81715 0.0
C1267 C 0.61648 0.65252 0.78276 0.0
C1268 C 0.61041 0.67492 0.75801 0.0
C1269 C 0.62276 0.69472 0.78165 0.0
C1270 C 0.64605 0.62597 0.84105 0.0
C1271 C 0.58807 0.67875 0.71869 0.0
C1272 C 0.57218 0.60242 0.76505 0.0
C1273 C 0.55948 0.60518 0.82509 0.0
C1274 C 0.59099 0.61751 0.74991 0.0
C1275 C 0.59717 0.63563 0.79613 0.0
C1276 C 0.58422 0.63849 0.85647 0.0
C1277 C 0.56554 0.62339 0.86973 0.0
C1278 C 0.60435 0.61383 0.68527 0.0
C1279 C 0.58993 0.65757 0.90761 0.0
H1280 H 0.66467 0.66787 0.87487 0.0
H1281 H 0.61573 0.71199 0.77101 0.0
H1282 H 0.63782 0.6224 0.89032 0.0
H1283 H 0.64075 0.61177 0.8054 0.0
H1284 H 0.66542 0.6255 0.84791 0.0
H1285 H 0.58937 0.6947 0.68739 0.0
H1286 H 0.58383 0.66343 0.68586 0.0
H1287 H 0.57329 0.68134 0.75429 0.0
H1288 H 0.5676 0.58833 0.73028 0.0
H1289 H 0.55544 0.62605 0.91525 0.0
H1290 H 0.62231 0.60744 0.69668 0.0
H1291 H 0.60632 0.63062 0.65826 0.0
H1292 H 0.59562 0.60081 0.65136 0.0
H1293 H 0.60804 0.65513 0.92691 0.0
H1294 H 0.57776 0.65752 0.9511 0.0
H1295 H 0.58899 0.67513 0.88421 0.0
C1296 C 0.83494 0.62387 0.77612 0.0
C1297 C 0.83807 0.64107 0.82655 0.0
C1298 C 0.8543 0.61186 0.74914 0.0
C1299 C 0.87715 0.61775 0.77224 0.0
C1300 C 0.88044 0.63896 0.80902 0.0
C1301 C 0.86073 0.65027 0.83719 0.0
C1302 C 0.84988 0.59024 0.70599 0.0
C1303 C 0.90472 0.64754 0.8271 0.0
C1304 C 0.90217 0.5624 0.84297 0.0
C1305 C 0.91289 0.5524 0.78647 0.0
C1306 C 0.89253 0.58494 0.84111 0.0
C1307 C 0.89411 0.59809 0.78114 0.0
C1308 C 0.9078 0.58924 0.72697 0.0
C1309 C 0.91694 0.56626 0.73006 0.0
C1310 C 0.87857 0.59342 0.90132 0.0
C1311 C 0.91154 0.60306 0.66393 0.0
H1312 H 0.8175 0.61711 0.7655 0.0
H1313 H 0.86328 0.66436 0.87371 0.0
H1314 H 0.86133 0.59039 0.66118 0.0
H1315 H 0.85406 0.57419 0.73478 0.0
H1316 H 0.83133 0.58905 0.68884 0.0
H1317 H 0.91117 0.63829 0.87216 0.0
H1318 H 0.91717 0.64386 0.78547 0.0
H1319 H 0.90467 0.66671 0.83857 0.0
H1320 H 0.89985 0.55182 0.88734 0.0
H1321 H 0.9258 0.55868 0.68676 0.0
H1322 H 0.85987 0.59583 0.88715 0.0
H1323 H 0.88538 0.61057 0.91984 0.0
H1324 H 0.8793 0.58091 0.94358 0.0
H1325 H 0.89925 0.59673 0.62437 0.0
H1326 H 0.92957 0.60011 0.64432 0.0
H1327 H 0.90877 0.6222 0.67232 0.0
C1328 C 0.03494 0.15586 0.95498 0.0
C1329 C 0.03411 0.17856 0.92796 0.0
C1330 C 0.02992 0.13553 0.91614 0.0
C1331 C 0.02425 0.13738 0.84696 0.0
C1332 C 0.0225 0.16038 0.81985 0.0
C1333 C 0.02739 0.18059 0.86043 0.0
C1334 C 0.03169 0.11207 0.94986 0.0
C1335 C 0.01542 0.16369 0.7478 0.0
C1336 C 0.03233 0.08304 0.72881 0.0
C1337 C 1.00994 0.07261 0.73003 0.0
C1338 C 0.03734 0.10387 0.76667 0.0
C1339 C 0.01933 0.1154 0.8044 0.0
C1340 C 0.99659 0.10521 0.80374 0.0
C1341 C 0.99231 0.08409 0.7675 0.0
C1342 C 0.062 0.1135 0.76648 0.0
C1343 C 0.97663 0.11655 0.84203 0.0
H1344 H 0.03991 0.15392 1.00718 0.0
H1345 H 0.02669 0.19794 0.83868 0.0
H1346 H 0.01927 0.09901 0.92827 0.0
H1347 H 0.04981 0.10542 0.9433 0.0
H1348 H 0.02831 0.11369 1.00462 0.0
H1349 H 0.01508 0.18251 0.73364 0.0
H1350 H 0.02784 0.1542 0.71437 0.0
H1351 H 0.9977 0.15609 0.73927 0.0
H1352 H 0.04589 0.07501 0.69808 0.0
H1353 H 0.9748 0.07658 0.76792 0.0
H1354 H 0.06832 0.11611 0.81881 0.0
H1355 H 0.06217 0.13089 0.742 0.0
H1356 H 0.07443 0.10164 0.73955 0.0
H1357 H 0.98046 0.11623 0.89663 0.0
H1358 H 0.9596 0.1075 0.8328 0.0
H1359 H 0.97482 0.13526 0.82775 0.0
C1360 C 0.37513 0.04504 0.94736 0.0
C1361 C 0.35279 0.04845 0.91938 0.0
C1362 C 0.39453 0.03817 0.90806 0.0
C1363 C 0.39194 0.03463 0.83758 0.0
C1364 C 0.36896 0.03683 0.80955 0.0
C1365 C 0.34981 0.04398 0.85051 0.0
C1366 C 0.41768 0.03551 0.94407 0.0
C1367 C 0.36418 0.03223 0.73613 0.0
C1368 C 0.44544 0.03933 0.71905 0.0
C1369 C 0.45531 0.01675 0.72305 0.0
C1370 C 0.42488 0.04546 0.7555 0.0
C1371 C 0.41307 0.02831 0.79451 0.0
C1372 C 0.42222 1.00511 0.79475 0.0
C1373 C 0.44327 0.99982 0.7605 0.0
C1374 C 0.4159 0.07035 0.75241 0.0
C1375 C 0.40987 0.98575 0.83181 0.0
H1376 H 0.37768 0.04865 1.0005 0.0
H1377 H 0.3327 0.04689 0.82804 0.0
H1378 H 0.432 0.02889 0.91175 0.0
H1379 H 0.42289 0.05274 0.96629 0.0
H1380 H 0.41554 0.02321 0.98643 0.0
H1381 H 0.3475 0.0223 0.7297 0.0
H1382 H 0.3618 0.04933 0.7109 0.0
H1383 H 0.37844 0.02228 0.71072 0.0
H1384 H 0.45383 0.05224 0.68762 0.0
H1385 H 0.45026 0.9821 0.76256 0.0
H1386 H 0.41273 0.07741 0.80384 0.0
H1387 H 0.39894 0.07061 0.72496 0.0
H1388 H 0.42835 0.08216 0.72635 0.0
H1389 H 0.41272 0.98817 0.88655 0.0
H1390 H 0.4165 0.96806 0.81694 0.0
H1391 H 0.39065 0.98639 0.82228 0.0
C1392 C 0.48884 0.37376 0.93426 0.0
C1393 C 0.48193 0.35117 0.91265 0.0
C1394 C 0.49537 0.39117 0.88852 0.0
C1395 C 0.49527 0.38601 0.81874 0.0
C1396 C 0.48981 0.36274 0.79671 0.0
C1397 C 0.48308 0.34561 0.8439 0.0
C1398 C 0.50078 0.41563 0.91486 0.0
C1399 C 0.48979 0.3563 0.72303 0.0
C1400 C 0.48276 0.43944 0.71021 0.0
C1401 C 0.50543 0.44754 0.69512 0.0
C1402 C 0.47921 0.41903 0.7481 0.0
C1403 C 0.49877 0.40565 0.76975 0.0
C1404 C 0.52164 0.4127 0.75015 0.0
C1405 C 0.52472 0.4336 0.71364 0.0
C1406 C 0.45449 0.41255 0.76807 0.0
C1407 C 0.54298 0.39874 0.77037 0.0
H1408 H 0.4878 0.37822 0.98727 0.0
H1409 H 0.47743 0.32835 0.82667 0.0
H1410 H 0.51788 0.42177 0.89509 0.0
H1411 H 0.4871 0.42805 0.89734 0.0
H1412 H 0.50142 0.41648 0.97056 0.0
H1413 H 0.48887 0.33696 0.7146 0.0
H1414 H 0.47439 0.36446 0.69828 0.0
H1415 H 0.50579 0.36315 0.69834 0.0
H1416 H 0.46765 0.44948 0.69408 0.0
H1417 H 0.54233 0.43939 0.70162 0.0
H1418 H 0.45282 0.41346 0.82352 0.0
H1419 H 0.45055 0.39421 0.75205 0.0
H1420 H 0.44113 0.4244 0.74595 0.0
H1421 H 0.54608 0.40101 0.82505 0.0
H1422 H 0.55902 0.40442 0.74338 0.0
H1423 H 0.54011 0.3797 0.76033 0.0
C1424 C 0.17895 0.46987 0.85914 0.0
C1425 C 0.18906 0.48708 0.90171 0.0
C1426 C 0.15916 0.47474 0.81888 0.0
C1427 C 0.14882 0.49743 0.82099 0.0
C1428 C 0.15975 0.51528 0.86085 0.0
C1429 C 0.17972 0.50993 0.90045 0.0
C1430 C 0.14852 0.45515 0.77685 0.0
C1431 C 0.14956 0.53975 0.86462 0.0
C1432 C 0.10112 0.51204 0.69015 0.0
C1433 C 0.08039 0.50682 0.725 0.0
C1434 C 0.12349 0.50935 0.72044 0.0
C1435 C 0.12528 0.50156 0.78775 0.0
C1436 C 0.10428 0.49689 0.82339 0.0
C1437 C 0.08229 0.49968 0.7918 0.0
C1438 C 0.1452 0.51435 0.67984 0.0
C1439 C 0.10498 0.48869 0.8951 0.0
H1440 H 0.18609 0.45219 0.85912 0.0
H1441 H 0.18719 0.52334 0.93331 0.0
H1442 H 0.13126 0.45012 0.79813 0.0
H1443 H 0.14532 0.46111 0.72486 0.0
H1444 H 0.15991 0.43929 0.7749 0.0
H1445 H 0.16142 0.5523 0.89127 0.0
H1446 H 0.14603 0.54638 0.81349 0.0
H1447 H 0.13254 0.53931 0.89157 0.0
H1448 H 0.09987 0.51777 0.63866 0.0
H1449 H 0.06649 0.49674 0.8202 0.0
H1450 H 0.15507 0.49778 0.67097 0.0
H1451 H 0.15699 0.52655 0.70788 0.0
H1452 H 0.14091 0.52213 0.63045 0.0
H1453 H 0.11452 0.47171 0.89781 0.0
H1454 H 0.08713 0.48628 0.91638 0.0
H1455 H 0.11467 0.50161 0.92693 0.0
C1456 C 0.98846 0.87766 0.30428 0.0
C1457 C 0.9879 0.85484 0.33057 0.0
C1458 C 0.99352 0.89767 0.34444 0.0
C1459 C 0.99787 0.89539 0.41427 0.0
C1460 C 0.99813 0.87226 0.44098 0.0
C1461 C 0.99319 0.85236 0.39907 0.0
C1462 C 0.99346 0.92118 0.3106 0.0
C1463 C 1.00371 0.86852 0.51405 0.0
C1464 C 0.03162 0.94616 0.50069 0.0
C1465 C 0.01424 0.95808 0.53799 0.0
C1466 C 0.02658 0.92584 0.46161 0.0
C1467 C 1.00334 0.91691 0.45811 0.0
C1468 C 0.98551 0.92909 0.49489 0.0
C1469 C 0.99123 0.94914 0.53533 0.0
C1470 C 0.04629 0.91392 0.4237 0.0
C1471 C 0.96032 0.92101 0.49118 0.0
H1472 H 0.9847 0.87999 0.25141 0.0
H1473 H 0.99281 0.83494 0.42037 0.0
H1474 H 1.0033 0.93482 0.33902 0.0
H1475 H 1.00114 0.91965 0.25952 0.0
H1476 H 0.97499 0.92693 0.30458 0.0
H1477 H 1.00389 0.8496 0.52712 0.0
H1478 H 0.02114 0.87623 0.52635 0.0
H1479 H 0.99055 0.8777 0.54593 0.0
H1480 H 0.04955 0.95259 0.50288 0.0
H1481 H 0.97775 0.95761 0.56545 0.0
H1482 H 0.04297 0.91505 0.36895 0.0
H1483 H 0.04702 0.89499 0.43637 0.0
H1484 H 0.06367 0.92199 0.4349 0.0
H1485 H 0.95436 0.92079 0.43808 0.0
H1486 H 0.9484 0.93255 0.52101 0.0
H1487 H 0.95886 0.90279 0.50987 0.0
C1488 C 0.6755 0.9958 0.41143 0.0
C1489 C 0.67285 0.99065 0.3427 0.0
C1490 C 0.6559 1.00188 0.45215 0.0
C1491 C 0.63287 1.00274 0.42386 0.0
C1492 C 0.6305 0.99842 0.35369 0.0
C1493 C 0.65026 0.99237 0.31477 0.0
C1494 C 0.66026 1.00699 0.52557 0.0
C1495 C 0.60729 0.99982 0.31742 0.0
C1496 C 0.57906 0.99832 0.54154 0.0
C1497 C 0.56923 0.02091 0.53706 0.0
C1498 C 0.59967 0.99207 0.50539 0.0
C1499 C 0.61152 1.00908 0.46607 0.0
C1500 C 0.60226 0.03223 0.4647 0.0
C1501 C 0.58124 0.03767 0.49894 0.0
C1502 C 0.60866 0.96719 0.50911 0.0
C1503 C 0.6145 0.05138 0.42649 0.0
H1504 H 0.6928 0.9945 0.43393 0.0
H1505 H 0.64791 0.98883 0.26153 0.0
H1506 H 0.64612 0.01771 0.54904 0.0
H1507 H 0.66158 0.99007 0.55229 0.0
H1508 H 0.67725 0.01632 0.5328 0.0
H1509 H 0.60903 0.01138 0.27325 0.0
H1510 H 0.60257 0.98207 0.29783 0.0
H1511 H 0.59283 1.00663 0.34891 0.0
H1512 H 0.57064 0.9855 0.5732 0.0
H1513 H 0.57424 0.05537 0.49631 0.0
H1514 H 0.6257 0.96705 0.53617 0.0
H1515 H 0.61169 0.95996 0.45781 0.0
H1516 H 0.59626 0.95549 0.53573 0.0
H1517 H 0.63361 0.05136 0.4379 0.0
H1518 H 0.60728 0.06908 0.4386 0.0
H1519 H 0.61239 0.04808 0.37181 0.0
C1520 C 0.54425 0.66212 0.31806 0.0
C1521 C 0.55045 0.68456 0.34255 0.0
C1522 C 0.53849 0.6437 0.3615 0.0
C1523 C 0.53872 0.64765 0.43189 0.0
C1524 C 0.54367 0.67067 0.45697 0.0
C1525 C 0.54961 0.68883 0.41204 0.0
C1526 C 0.53352 0.61959 0.33196 0.0
C1527 C 0.54394 0.67583 0.53142 0.0
C1528 C 0.50923 0.59871 0.53174 0.0
C1529 C 0.5284 0.58429 0.54831 0.0
C1530 C 0.51238 0.62 0.49719 0.0
C1531 C 0.53526 0.6272 0.47825 0.0
C1532 C 0.55476 0.61338 0.49827 0.0
C1533 C 0.55111 0.59235 0.53342 0.0
C1534 C 0.49108 0.6343 0.4785 0.0
C1535 C 0.57952 0.62012 0.47959 0.0
H1536 H 0.5452 0.65861 0.26449 0.0
H1537 H 0.55485 0.70594 0.43147 0.0
H1538 H 0.54742 0.60714 0.34782 0.0
H1539 H 0.51654 0.61284 0.3509 0.0
H1540 H 0.53287 0.61964 0.27624 0.0
H1541 H 0.54492 0.695 0.54264 0.0
H1542 H 0.52798 0.66858 0.55543 0.0
H1543 H 0.55937 0.66718 0.55459 0.0
H1544 H 0.49161 0.59309 0.54392 0.0
H1545 H 0.56617 0.58186 0.5476 0.0
H1546 H 0.48834 0.63327 0.4234 0.0
H1547 H 0.49382 0.65309 0.49214 0.0
H1548 H 0.47489 0.62798 0.50352 0.0
H1549 H 0.58175 0.61818 0.42448 0.0
H1550 H 0.59287 0.60899 0.50468 0.0
H1551 H 0.58297 0.63879 0.49308 0.0
C1552 C 0.86864 0.53942 0.31251 0.0
C1553 C 0.84616 0.5462 0.33451 0.0
C1554 C 0.88683 0.53422 0.35803 0.0
C1555 C 0.88267 0.53563 0.4281 0.0
C1556 C 0.85962 0.54122 0.45076 0.0
C1557 C 0.8417 0.54658 0.40378 0.0
C1558 C 0.91098 0.5286 0.33091 0.0
C1559 C 0.8542 0.54275 0.52475 0.0
C1560 C 0.93096 0.50758 0.53575 0.0
C1561 C 0.94523 0.527 0.55239 0.0
C1562 C 0.90994 0.51023 0.49857 0.0
C1563 C 0.90294 0.53282 0.47657 0.0
C1564 C 0.9167 0.5526 0.49614 0.0
C1565 C 0.93738 0.54948 0.5342 0.0
C1566 C 0.89567 0.48868 0.48067 0.0
C1567 C 0.91024 0.57706 0.47417 0.0
H1568 H 0.87236 0.53953 0.25917 0.0
H1569 H 0.82461 0.55234 0.42138 0.0
H1570 H 0.92346 0.54268 0.34634 0.0
H1571 H 0.91753 0.5119 0.35209 0.0
H1572 H 0.91112 0.52702 0.27529 0.0
H1573 H 0.83503 0.54416 0.53434 0.0
H1574 H 0.86113 0.52709 0.55084 0.0
H1575 H 0.86297 0.55843 0.54716 0.0
H1576 H 0.93651 0.49013 0.5501 0.0
H1577 H 0.94774 0.56475 0.54833 0.0
H1578 H 0.89698 0.48502 0.42598 0.0
H1579 H 0.87684 0.49171 0.49228 0.0
H1580 H 0.90176 0.47289 0.50792 0.0
H1581 H 0.91193 0.57817 0.41884 0.0
H1582 H 0.92164 0.59075 0.49767 0.0
H1583 H 0.89169 0.581 0.487 0.0
loop_
_geom_bond_atom_site_label_1
_geom_bond_atom_site_label_2
_geom_bond_distance
_geom_bond_site_symmetry_2
_ccdc_geom_bond_type
C0 C1 1.391 . S
C0 C4 1.391 . S
C0 H42 0.948 . S
C1 C0 1.391 . S
C1 C2 1.391 . S
C2 C1 1.391 . S
C2 H58 0.947 . S
C2 C59 1.392 . S
C3 C4 1.391 . S
C3 C7 1.397 . S
C3 C59 1.419 . S
C4 C0 1.391 . S
C4 C3 1.391 . S
C4 C5 1.399 . S
C5 C4 1.399 . S
C5 C8 1.396 . S
C5 C17 1.453 . S
C5 C18 1.684 . S
H6 C30 0.948 . S
C7 C3 1.397 . S
C7 C8 1.394 . S
C7 C26 1.723 . S
C8 C5 1.396 . S
C8 C7 1.394 . S
C8 C38 1.723 . S
H9 C32 0.947 . S
H10 C33 0.948 . S
H11 C39 0.982 . S
H12 C40 0.979 . S
H13 C40 0.980 . S
H14 C40 0.984 . S
H15 C39 0.979 . S
H16 C39 0.977 . S
C17 C5 1.453 . S
C17 H46 0.982 . S
C17 H47 0.979 . S
C17 H48 0.977 . S
C18 C5 1.684 . S
C18 H43 0.979 . S
C18 H44 0.980 . S
C18 H45 0.983 . S
C19 C20 1.375 1_554 S
C19 C24 1.391 . S
C19 H49 0.948 . S
C20 C19 1.375 1_556 S
C20 C21 1.396 . S
C21 C20 1.396 . S
C21 C22 1.392 1_556 S
C21 H50 0.947 . S
C22 C21 1.392 1_554 S
C22 C23 1.419 . S
C22 H51 0.948 . S
C23 C22 1.419 . S
C23 C24 1.391 . S
C23 C27 1.397 . S
C24 C19 1.391 . S
C24 C23 1.391 . S
C24 C25 1.399 . S
C25 C24 1.399 . S
C25 C26 1.396 . S
C25 C28 1.453 . S
C25 C29 1.684 . S
C26 C7 1.723 . S
C26 C25 1.396 . S
C26 C27 1.394 . S
C27 C23 1.397 . S
C27 C26 1.394 . S
C27 C37 1.723 . S
C28 C25 1.453 . S
C28 H52 0.982 . S
C28 H53 0.979 . S
C28 H54 0.977 . S
C29 C25 1.684 . S
C29 H55 0.979 . S
C29 H56 0.980 . S
C29 H57 0.983 . S
C30 H6 0.948 . S
C30 C31 1.391 . S
C30 C35 1.391 . S
C31 C30 1.391 . S
C31 C32 1.391 . S
C32 H9 0.947 . S
C32 C31 1.391 . S
C32 C33 1.392 . S
C33 H10 0.948 . S
C33 C32 1.392 . S
C33 C34 1.419 . S
C34 C33 1.419 . S
C34 C35 1.391 . S
C34 C38 1.397 . S
C35 C30 1.391 . S
C35 C34 1.391 . S
C35 C36 1.399 . S
C36 C35 1.399 . S
C36 C37 1.396 . S
C36 C39 1.453 . S
C36 C40 1.684 . S
C37 C27 1.723 . S
C37 C36 1.396 . S
C37 C38 1.394 . S
C38 C8 1.723 . S
C38 C34 1.397 . S
C38 C37 1.394 . S
C39 H11 0.982 . S
C39 H15 0.979 . S
C39 H16 0.977 . S
C39 C36 1.453 . S
C40 H12 0.979 . S
C40 H13 0.980 . S
C40 H14 0.984 . S
C40 C36 1.684 . S
H41 C59 0.948 . S
H42 C0 0.948 . S
H43 C18 0.979 . S
H44 C18 0.980 . S
H45 C18 0.983 . S
H46 C17 0.982 . S
H47 C17 0.979 . S
H48 C17 0.977 . S
H49 C19 0.948 . S
H50 C21 0.947 . S
H51 C22 0.948 . S
H52 C28 0.982 . S
H53 C28 0.979 . S
H54 C28 0.977 . S
H55 C29 0.979 . S
H56 C29 0.980 . S
H57 C29 0.983 . S
H58 C2 0.947 . S
C59 C2 1.392 . S
C59 C3 1.419 . S
C59 H41 0.948 . S
C60 C61 1.391 . S
C60 C64 1.391 . S
C60 H102 0.948 1_554 S
C61 C60 1.391 . S
C61 C62 1.391 . S
C62 C61 1.391 . S
C62 H118 0.947 . S
C62 C119 1.392 . S
C63 C64 1.391 . S
C63 C67 1.397 . S
C63 C119 1.419 . S
C64 C60 1.391 . S
C64 C63 1.391 . S
C64 C65 1.399 . S
C65 C64 1.399 . S
C65 C68 1.396 . S
C65 C77 1.453 . S
C65 C78 1.684 . S
H66 C90 0.948 . S
C67 C63 1.397 . S
C67 C68 1.394 . S
C67 C86 1.723 . S
C68 C65 1.396 . S
C68 C67 1.394 . S
C68 C98 1.723 . S
H69 C92 0.947 . S
H70 C93 0.948 . S
H71 C99 0.982 . S
H72 C100 0.979 . S
H73 C100 0.980 . S
H74 C100 0.983 . S
H75 C99 0.979 . S
H76 C99 0.977 . S
C77 C65 1.453 . S
C77 H106 0.982 . S
C77 H107 0.979 1_554 S
C77 H108 0.977 . S
C78 C65 1.684 . S
C78 H103 0.979 . S
C78 H104 0.980 . S
C78 H105 0.983 1_554 S
C79 C80 1.391 . S
C79 C84 1.391 . S
C79 H109 0.948 . S
C80 C79 1.391 . S
C80 C81 1.391 . S
C81 C80 1.391 . S
C81 C82 1.392 . S
C81 H110 0.947 . S
C82 C81 1.392 . S
C82 C83 1.419 . S
C82 H111 0.948 . S
C83 C82 1.419 . S
C83 C84 1.391 . S
C83 C87 1.397 . S
C84 C79 1.391 . S
C84 C83 1.391 . S
C84 C85 1.399 . S
C85 C84 1.399 . S
C85 C86 1.396 . S
C85 C88 1.453 . S
C85 C89 1.684 . S
C86 C67 1.723 . S
C86 C85 1.396 . S
C86 C87 1.394 . S
C87 C83 1.397 . S
C87 C86 1.394 . S
C87 C97 1.723 . S
C88 C85 1.453 . S
C88 H112 0.982 . S
C88 H113 0.979 . S
C88 H114 0.977 . S
C89 C85 1.684 . S
C89 H115 0.979 . S
C89 H116 0.980 . S
C89 H117 0.983 . S
C90 H66 0.948 . S
C90 C91 1.391 . S
C90 C95 1.391 . S
C91 C90 1.391 . S
C91 C92 1.391 . S
C92 H69 0.947 . S
C92 C91 1.391 . S
C92 C93 1.392 . S
C93 H70 0.948 . S
C93 C92 1.392 . S
C93 C94 1.419 . S
C94 C93 1.419 . S
C94 C95 1.391 . S
C94 C98 1.397 . S
C95 C90 1.391 . S
C95 C94 1.391 . S
C95 C96 1.399 . S
C96 C95 1.399 . S
C96 C97 1.396 . S
C96 C99 1.453 . S
C96 C100 1.684 . S
C97 C87 1.723 . S
C97 C96 1.396 . S
C97 C98 1.394 . S
C98 C68 1.723 . S
C98 C94 1.397 . S
C98 C97 1.394 . S
C99 H71 0.982 . S
C99 H75 0.979 . S
C99 H76 0.977 . S
C99 C96 1.453 . S
C100 H72 0.979 . S
C100 H73 0.980 . S
C100 H74 0.983 . S
C100 C96 1.684 . S
H101 C119 0.948 . S
H102 C60 0.948 1_556 S
H103 C78 0.979 . S
H104 C78 0.980 . S
H105 C78 0.983 1_556 S
H106 C77 0.982 . S
H107 C77 0.979 1_556 S
H108 C77 0.977 . S
H109 C79 0.948 . S
H110 C81 0.947 . S
H111 C82 0.948 . S
H112 C88 0.982 . S
H113 C88 0.979 . S
H114 C88 0.977 . S
H115 C89 0.979 . S
H116 C89 0.980 . S
H117 C89 0.983 . S
H118 C62 0.947 . S
C119 C62 1.392 . S
C119 C63 1.419 . S
C119 H101 0.948 . S
C120 C121 1.391 . S
C120 C124 1.391 . S
C120 H162 0.948 . S
C121 C120 1.391 . S
C121 C122 1.391 . S
C122 C121 1.391 . S
C122 H178 0.947 . S
C122 C179 1.392 . S
C123 C124 1.391 . S
C123 C127 1.397 . S
C123 C179 1.419 . S
C124 C120 1.391 . S
C124 C123 1.391 . S
C124 C125 1.399 . S
C125 C124 1.399 . S
C125 C128 1.396 . S
C125 C137 1.453 . S
C125 C138 1.684 . S
H126 C150 0.948 . S
C127 C123 1.397 . S
C127 C128 1.394 . S
C127 C146 1.723 . S
C128 C125 1.396 . S
C128 C127 1.394 . S
C128 C158 1.723 . S
H129 C152 0.947 . S
H130 C153 0.948 . S
H131 C159 0.982 . S
H132 C160 0.979 . S
H133 C160 0.980 . S
H134 C160 0.983 . S
H135 C159 0.979 . S
H136 C159 0.977 . S
C137 C125 1.453 . S
C137 H166 0.982 . S
C137 H167 0.979 . S
C137 H168 0.977 . S
C138 C125 1.684 . S
C138 H163 0.979 . S
C138 H164 0.980 . S
C138 H165 0.983 . S
C139 C140 1.391 . S
C139 C144 1.391 . S
C139 H169 0.948 1_554 S
C140 C139 1.391 . S
C140 C141 1.391 . S
C141 C140 1.391 . S
C141 C142 1.392 . S
C141 H170 0.947 . S
C142 C141 1.392 . S
C142 C143 1.419 . S
C142 H171 0.948 . S
C143 C142 1.419 . S
C143 C144 1.391 . S
C143 C147 1.397 . S
C144 C139 1.391 . S
C144 C143 1.391 . S
C144 C145 1.399 . S
C145 C144 1.399 . S
C145 C146 1.396 . S
C145 C148 1.453 . S
C145 C149 1.684 . S
C146 C127 1.723 . S
C146 C145 1.396 . S
C146 C147 1.394 . S
C147 C143 1.397 . S
C147 C146 1.394 . S
C147 C157 1.723 . S
C148 C145 1.453 . S
C148 H172 0.982 . S
C148 H173 0.979 1_554 S
C148 H174 0.977 . S
C149 C145 1.684 . S
C149 H175 0.979 . S
C149 H176 0.980 . S
C149 H177 0.983 1_554 S
C150 H126 0.948 . S
C150 C151 1.391 . S
C150 C155 1.391 . S
C151 C150 1.391 . S
C151 C152 1.391 . S
C152 H129 0.947 . S
C152 C151 1.391 . S
C152 C153 1.392 . S
C153 H130 0.948 . S
C153 C152 1.392 . S
C153 C154 1.419 . S
C154 C153 1.419 . S
C154 C155 1.391 . S
C154 C158 1.397 . S
C155 C150 1.391 . S
C155 C154 1.391 . S
C155 C156 1.399 . S
C156 C155 1.399 . S
C156 C157 1.396 . S
C156 C159 1.453 . S
C156 C160 1.684 . S
C157 C147 1.723 . S
C157 C156 1.396 . S
C157 C158 1.394 . S
C158 C128 1.723 . S
C158 C154 1.397 . S
C158 C157 1.394 . S
C159 H131 0.982 . S
C159 H135 0.979 . S
C159 H136 0.977 . S
C159 C156 1.453 . S
C160 H132 0.979 . S
C160 H133 0.980 . S
C160 H134 0.983 . S
C160 C156 1.684 . S
H161 C179 0.948 . S
H162 C120 0.948 . S
H163 C138 0.979 . S
H164 C138 0.980 . S
H165 C138 0.983 . S
H166 C137 0.982 . S
H167 C137 0.979 . S
H168 C137 0.977 . S
H169 C139 0.948 1_556 S
H170 C141 0.947 . S
H171 C142 0.948 . S
H172 C148 0.982 . S
H173 C148 0.979 1_556 S
H174 C148 0.977 . S
H175 C149 0.979 . S
H176 C149 0.980 . S
H177 C149 0.983 1_556 S
H178 C122 0.947 . S
C179 C122 1.392 . S
C179 C123 1.419 . S
C179 H161 0.948 . S
C180 C181 1.391 . S
C180 C184 1.391 . S
C180 H222 0.948 . S
C181 C180 1.391 . S
C181 C182 1.391 . S
C182 C181 1.391 . S
C182 H238 0.947 . S
C182 C239 1.392 . S
C183 C184 1.391 . S
C183 C187 1.397 . S
C183 C239 1.419 . S
C184 C180 1.391 . S
C184 C183 1.391 . S
C184 C185 1.399 . S
C185 C184 1.399 . S
C185 C188 1.396 . S
C185 C197 1.453 . S
C185 C198 1.684 . S
H186 C210 0.948 . S
C187 C183 1.397 . S
C187 C188 1.394 . S
C187 C206 1.723 . S
C188 C185 1.396 . S
C188 C187 1.394 . S
C188 C218 1.723 . S
H189 C212 0.947 . S
H190 C213 0.948 . S
H191 C219 0.982 . S
H192 C220 0.979 . S
H193 C220 0.980 . S
H194 C220 0.983 . S
H195 C219 0.979 . S
H196 C219 0.977 . S
C197 C185 1.453 . S
C197 H226 0.982 . S
C197 H227 0.979 . S
C197 H228 0.977 . S
C198 C185 1.684 . S
C198 H223 0.979 . S
C198 H224 0.980 . S
C198 H225 0.983 . S
C199 C200 1.395 . S
C199 C204 1.391 . S
C199 H229 0.948 . S
C200 C199 1.395 . S
C200 C201 1.390 1_554 S
C201 C200 1.390 1_556 S
C201 C202 1.392 1_556 S
C201 H230 0.947 . S
C202 C201 1.392 1_554 S
C202 C203 1.419 . S
C202 H231 0.948 . S
C203 C202 1.419 . S
C203 C204 1.391 . S
C203 C207 1.397 . S
C204 C199 1.391 . S
C204 C203 1.391 . S
C204 C205 1.399 . S
C205 C204 1.399 . S
C205 C206 1.396 . S
C205 C208 1.453 . S
C205 C209 1.684 . S
C206 C187 1.723 . S
C206 C205 1.396 . S
C206 C207 1.394 . S
C207 C203 1.397 . S
C207 C206 1.394 . S
C207 C217 1.723 . S
C208 C205 1.453 . S
C208 H232 0.982 . S
C208 H233 0.979 . S
C208 H234 0.977 . S
C209 C205 1.684 . S
C209 H235 0.979 . S
C209 H236 0.980 . S
C209 H237 0.983 . S
C210 H186 0.948 . S
C210 C211 1.391 . S
C210 C215 1.391 . S
C211 C210 1.391 . S
C211 C212 1.391 . S
C212 H189 0.947 . S
C212 C211 1.391 . S
C212 C213 1.392 . S
C213 H190 0.948 . S
C213 C212 1.392 . S
C213 C214 1.419 . S
C214 C213 1.419 . S
C214 C215 1.391 . S
C214 C218 1.397 . S
C215 C210 1.391 . S
C215 C214 1.391 . S
C215 C216 1.399 . S
C216 C215 1.399 . S
C216 C217 1.396 . S
C216 C219 1.453 . S
C216 C220 1.684 . S
C217 C207 1.723 . S
C217 C216 1.396 . S
C217 C218 1.394 . S
C218 C188 1.723 . S
C218 C214 1.397 . S
C218 C217 1.394 . S
C219 H191 0.982 . S
C219 H195 0.979 . S
C219 H196 0.977 . S
C219 C216 1.453 . S
C220 H192 0.979 . S
C220 H193 0.980 . S
C220 H194 0.983 . S
C220 C216 1.684 . S
H221 C239 0.948 . S
H222 C180 0.948 . S
H223 C198 0.979 . S
H224 C198 0.980 . S
H225 C198 0.983 . S
H226 C197 0.982 . S
H227 C197 0.979 . S
H228 C197 0.977 . S
H229 C199 0.948 . S
H230 C201 0.947 . S
H231 C202 0.948 . S
H232 C208 0.982 . S
H233 C208 0.979 . S
H234 C208 0.977 . S
H235 C209 0.979 . S
H236 C209 0.980 . S
H237 C209 0.983 . S
H238 C182 0.947 . S
C239 C182 1.392 . S
C239 C183 1.419 . S
C239 H221 0.948 . S
C240 C241 1.391 . S
C240 C244 1.391 . S
C240 H282 0.948 1_554 S
C241 C240 1.391 . S
C241 C242 1.391 . S
C242 C241 1.391 . S
C242 H298 0.947 . S
C242 C299 1.392 . S
C243 C244 1.391 . S
C243 C247 1.397 . S
C243 C299 1.419 . S
C244 C240 1.391 . S
C244 C243 1.391 . S
C244 C245 1.399 1_554 S
C245 C244 1.399 1_556 S
C245 C248 1.396 . S
C245 C257 1.453 . S
C245 C258 1.684 . S
H246 C270 0.948 . S
C247 C243 1.397 . S
C247 C248 1.394 1_554 S
C247 C266 1.723 . S
C248 C245 1.396 . S
C248 C247 1.394 1_556 S
C248 C278 1.723 . S
H249 C272 0.947 . S
H250 C273 0.948 . S
H251 C279 0.982 . S
H252 C280 0.979 . S
H253 C280 0.980 . S
H254 C280 0.983 . S
H255 C279 0.979 . S
H256 C279 0.977 . S
C257 C245 1.453 . S
C257 H286 0.982 . S
C257 H287 0.979 . S
C257 H288 0.977 . S
C258 C245 1.684 . S
C258 H283 0.979 . S
C258 H284 0.980 . S
C258 H285 0.983 . S
C259 C260 1.391 . S
C259 C264 1.391 . S
C259 H289 0.948 . S
C260 C259 1.391 . S
C260 C261 1.391 . S
C261 C260 1.391 . S
C261 C262 1.392 . S
C261 H290 0.947 . S
C262 C261 1.392 . S
C262 C263 1.419 . S
C262 H291 0.948 . S
C263 C262 1.419 . S
C263 C264 1.391 . S
C263 C267 1.397 . S
C264 C259 1.391 . S
C264 C263 1.391 . S
C264 C265 1.399 . S
C265 C264 1.399 . S
C265 C266 1.396 . S
C265 C268 1.453 . S
C265 C269 1.684 . S
C266 C247 1.723 . S
C266 C265 1.396 . S
C266 C267 1.394 . S
C267 C263 1.397 . S
C267 C266 1.394 . S
C267 C277 1.723 1_554 S
C268 C265 1.453 . S
C268 H292 0.982 . S
C268 H293 0.979 . S
C268 H294 0.977 . S
C269 C265 1.684 . S
C269 H295 0.979 . S
C269 H296 0.980 . S
C269 H297 0.983 . S
C270 H246 0.948 . S
C270 C271 1.391 . S
C270 C275 1.391 . S
C271 C270 1.391 . S
C271 C272 1.391 . S
C272 H249 0.947 . S
C272 C271 1.391 . S
C272 C273 1.392 . S
C273 H250 0.948 . S
C273 C272 1.392 . S
C273 C274 1.419 . S
C274 C273 1.419 . S
C274 C275 1.391 . S
C274 C278 1.397 . S
C275 C270 1.391 . S
C275 C274 1.391 . S
C275 C276 1.399 . S
C276 C275 1.399 . S
C276 C277 1.396 . S
C276 C279 1.453 . S
C276 C280 1.684 . S
C277 C267 1.723 1_556 S
C277 C276 1.396 . S
C277 C278 1.394 . S
C278 C248 1.723 . S
C278 C274 1.397 . S
C278 C277 1.394 . S
C279 H251 0.982 . S
C279 H255 0.979 . S
C279 H256 0.977 . S
C279 C276 1.453 . S
C280 H252 0.979 . S
C280 H253 0.980 . S
C280 H254 0.983 . S
C280 C276 1.684 . S
H281 C299 0.948 . S
H282 C240 0.948 1_556 S
H283 C258 0.979 . S
H284 C258 0.980 . S
H285 C258 0.983 . S
H286 C257 0.982 . S
H287 C257 0.979 . S
H288 C257 0.977 . S
H289 C259 0.948 . S
H290 C261 0.947 . S
H291 C262 0.948 . S
H292 C268 0.982 . S
H293 C268 0.979 . S
H294 C268 0.977 . S
H295 C269 0.979 . S
H296 C269 0.980 . S
H297 C269 0.983 . S
H298 C242 0.947 . S
C299 C242 1.392 . S
C299 C243 1.419 . S
C299 H281 0.948 . S
C300 C301 1.391 . S
C300 C304 1.391 . S
C300 H342 0.948 . S
C301 C300 1.391 . S
C301 C302 1.391 . S
C302 C301 1.391 . S
C302 H358 0.947 . S
C302 C359 1.392 . S
C303 C304 1.391 . S
C303 C307 1.397 . S
C303 C359 1.419 . S
C304 C300 1.391 . S
C304 C303 1.391 . S
C304 C305 1.399 . S
C305 C304 1.399 . S
C305 C308 1.396 . S
C305 C317 1.453 . S
C305 C318 1.684 . S
H306 C330 0.948 1_556 S
C307 C303 1.397 . S
C307 C308 1.394 . S
C307 C326 1.723 1_554 S
C308 C305 1.396 . S
C308 C307 1.394 . S
C308 C338 1.723 . S
H309 C332 0.947 . S
H310 C333 0.948 . S
H311 C339 0.982 . S
H312 C340 0.979 . S
H313 C340 0.980 . S
H314 C340 0.983 . S
H315 C339 0.979 . S
H316 C339 0.977 . S
C317 C305 1.453 . S
C317 H346 0.982 . S
C317 H347 0.979 . S
C317 H348 0.977 . S
C318 C305 1.684 . S
C318 H343 0.979 . S
C318 H344 0.980 . S
C318 H345 0.983 . S
C319 C320 1.391 . S
C319 C324 1.391 . S
C319 H349 0.948 . S
C320 C319 1.391 . S
C320 C321 1.391 . S
C321 C320 1.391 . S
C321 C322 1.392 . S
C321 H350 0.947 . S
C322 C321 1.392 . S
C322 C323 1.419 . S
C322 H351 0.948 . S
C323 C322 1.419 . S
C323 C324 1.391 . S
C323 C327 1.397 . S
C324 C319 1.391 . S
C324 C323 1.391 . S
C324 C325 1.399 . S
C325 C324 1.399 . S
C325 C326 1.396 . S
C325 C328 1.453 . S
C325 C329 1.684 . S
C326 C307 1.723 1_556 S
C326 C325 1.396 . S
C326 C327 1.394 . S
C327 C323 1.397 . S
C327 C326 1.394 . S
C327 C337 1.723 . S
C328 C325 1.453 . S
C328 H352 0.982 . S
C328 H353 0.979 . S
C328 H354 0.977 . S
C329 C325 1.684 . S
C329 H355 0.979 . S
C329 H356 0.980 . S
C329 H357 0.983 . S
C330 H306 0.948 1_554 S
C330 C331 1.391 . S
C330 C335 1.391 . S
C331 C330 1.391 . S
C331 C332 1.391 . S
C332 H309 0.947 . S
C332 C331 1.391 . S
C332 C333 1.392 . S
C333 H310 0.948 . S
C333 C332 1.392 . S
C333 C334 1.419 . S
C334 C333 1.419 . S
C334 C335 1.391 . S
C334 C338 1.397 . S
C335 C330 1.391 . S
C335 C334 1.391 . S
C335 C336 1.399 1_554 S
C336 C335 1.399 1_556 S
C336 C337 1.396 . S
C336 C339 1.453 . S
C336 C340 1.684 . S
C337 C327 1.723 . S
C337 C336 1.396 . S
C337 C338 1.394 1_556 S
C338 C308 1.723 . S
C338 C334 1.397 . S
C338 C337 1.394 1_554 S
C339 H311 0.982 . S
C339 H315 0.979 . S
C339 H316 0.977 . S
C339 C336 1.453 . S
C340 H312 0.979 . S
C340 H313 0.980 . S
C340 H314 0.983 . S
C340 C336 1.684 . S
H341 C359 0.948 . S
H342 C300 0.948 . S
H343 C318 0.979 . S
H344 C318 0.980 . S
H345 C318 0.983 . S
H346 C317 0.982 . S
H347 C317 0.979 . S
H348 C317 0.977 . S
H349 C319 0.948 . S
H350 C321 0.947 . S
H351 C322 0.948 . S
H352 C328 0.982 . S
H353 C328 0.979 . S
H354 C328 0.977 . S
H355 C329 0.979 . S
H356 C329 0.980 . S
H357 C329 0.983 . S
H358 C302 0.947 . S
C359 C302 1.392 . S
C359 C303 1.419 . S
C359 H341 0.948 . S
C360 C361 1.391 . S
C360 C364 1.391 . S
C360 H402 0.948 . S
C361 C360 1.391 . S
C361 C362 1.391 . S
C362 C361 1.391 . S
C362 H418 0.947 . S
C362 C419 1.392 . S
C363 C364 1.391 . S
C363 C367 1.397 . S
C363 C419 1.419 . S
C364 C360 1.391 . S
C364 C363 1.391 . S
C364 C365 1.399 . S
C365 C364 1.399 . S
C365 C368 1.396 . S
C365 C377 1.453 . S
C365 C378 1.684 . S
H366 C390 0.948 . S
C367 C363 1.397 . S
C367 C368 1.394 . S
C367 C386 1.723 1_556 S
C368 C365 1.396 . S
C368 C367 1.394 . S
C368 C398 1.723 1_556 S
H369 C392 0.942 1_556 S
H370 C393 0.948 . S
H371 C399 0.982 . S
H372 C400 0.979 . S
H373 C400 0.980 . S
H374 C400 0.983 . S
H375 C399 0.979 . S
H376 C399 0.977 . S
C377 C365 1.453 . S
C377 H406 0.982 . S
C377 H407 0.979 . S
C377 H408 0.977 . S
C378 C365 1.684 . S
C378 H403 0.979 . S
C378 H404 0.980 . S
C378 H405 0.983 . S
C379 C380 1.391 . S
C379 C384 1.391 . S
C379 H409 0.948 . S
C380 C379 1.391 . S
C380 C381 1.391 . S
C381 C380 1.391 . S
C381 C382 1.392 . S
C381 H410 0.947 . S
C382 C381 1.392 . S
C382 C383 1.419 . S
C382 H411 0.948 . S
C383 C382 1.419 . S
C383 C384 1.391 . S
C383 C387 1.397 . S
C384 C379 1.391 . S
C384 C383 1.391 . S
C384 C385 1.399 . S
C385 C384 1.399 . S
C385 C386 1.396 . S
C385 C388 1.453 . S
C385 C389 1.684 . S
C386 C367 1.723 1_554 S
C386 C385 1.396 . S
C386 C387 1.394 . S
C387 C383 1.397 . S
C387 C386 1.394 . S
C387 C397 1.723 . S
C388 C385 1.453 . S
C388 H412 0.982 . S
C388 H413 0.979 . S
C388 H414 0.977 1_554 S
C389 C385 1.684 . S
C389 H415 0.979 . S
C389 H416 0.980 1_554 S
C389 H417 0.983 . S
C390 H366 0.948 . S
C390 C391 1.391 . S
C390 C395 1.391 . S
C391 C390 1.391 . S
C391 C392 1.399 . S
C392 H369 0.942 1_554 S
C392 C391 1.399 . S
C392 C393 1.389 1_554 S
C393 H370 0.948 . S
C393 C392 1.389 1_556 S
C393 C394 1.419 1_556 S
C394 C393 1.419 1_554 S
C394 C395 1.391 . S
C394 C398 1.397 . S
C395 C390 1.391 . S
C395 C394 1.391 . S
C395 C396 1.399 . S
C396 C395 1.399 . S
C396 C397 1.396 . S
C396 C399 1.453 . S
C396 C400 1.684 . S
C397 C387 1.723 . S
C397 C396 1.396 . S
C397 C398 1.394 . S
C398 C368 1.723 1_554 S
C398 C394 1.397 . S
C398 C397 1.394 . S
C399 H371 0.982 . S
C399 H375 0.979 . S
C399 H376 0.977 . S
C399 C396 1.453 . S
C400 H372 0.979 . S
C400 H373 0.980 . S
C400 H374 0.983 . S
C400 C396 1.684 . S
H401 C419 0.948 . S
H402 C360 0.948 . S
H403 C378 0.979 . S
H404 C378 0.980 . S
H405 C378 0.983 . S
H406 C377 0.982 . S
H407 C377 0.979 . S
H408 C377 0.977 . S
H409 C379 0.948 . S
H410 C381 0.947 . S
H411 C382 0.948 . S
H412 C388 0.982 . S
H413 C388 0.979 . S
H414 C388 0.977 1_556 S
H415 C389 0.979 . S
H416 C389 0.980 1_556 S
H417 C389 0.983 . S
H418 C362 0.947 . S
C419 C362 1.392 . S
C419 C363 1.419 . S
C419 H401 0.948 . S
C420 C421 1.391 . S
C420 C424 1.391 . S
C420 H462 0.948 . S
C421 C420 1.391 . S
C421 C422 1.391 . S
C422 C421 1.391 . S
C422 H478 0.947 . S
C422 C479 1.392 . S
C423 C424 1.391 . S
C423 C427 1.397 . S
C423 C479 1.419 . S
C424 C420 1.391 . S
C424 C423 1.391 . S
C424 C425 1.399 . S
C425 C424 1.399 . S
C425 C428 1.396 . S
C425 C437 1.453 . S
C425 C438 1.684 . S
H426 C450 0.948 . S
C427 C423 1.397 . S
C427 C428 1.394 . S
C427 C446 1.723 1_556 S
C428 C425 1.396 . S
C428 C427 1.394 . S
C428 C458 1.723 1_556 S
H429 C452 0.947 1_556 S
H430 C453 0.948 . S
H431 C459 0.982 . S
H432 C460 0.979 . S
H433 C460 0.980 . S
H434 C460 0.983 . S
H435 C459 0.979 . S
H436 C459 0.977 . S
C437 C425 1.453 . S
C437 H466 0.982 . S
C437 H467 0.979 . S
C437 H468 0.977 . S
C438 C425 1.684 . S
C438 H463 0.979 . S
C438 H464 0.980 . S
C438 H465 0.983 . S
C439 C440 1.391 . S
C439 C444 1.391 . S
C439 H469 0.948 . S
C440 C439 1.391 . S
C440 C441 1.391 . S
C441 C440 1.391 . S
C441 C442 1.392 . S
C441 H470 0.947 . S
C442 C441 1.392 . S
C442 C443 1.419 . S
C442 H471 0.948 . S
C443 C442 1.419 . S
C443 C444 1.391 . S
C443 C447 1.397 . S
C444 C439 1.391 . S
C444 C443 1.391 . S
C444 C445 1.399 . S
C445 C444 1.399 . S
C445 C446 1.396 . S
C445 C448 1.453 . S
C445 C449 1.684 . S
C446 C427 1.723 1_554 S
C446 C445 1.396 . S
C446 C447 1.394 . S
C447 C443 1.397 . S
C447 C446 1.394 . S
C447 C457 1.723 . S
C448 C445 1.453 . S
C448 H472 0.982 . S
C448 H473 0.979 . S
C448 H474 0.977 1_554 S
C449 C445 1.684 . S
C449 H475 0.979 . S
C449 H476 0.980 1_554 S
C449 H477 0.983 . S
C450 H426 0.948 . S
C450 C451 1.391 . S
C450 C455 1.391 . S
C451 C450 1.391 . S
C451 C452 1.391 . S
C452 H429 0.947 1_554 S
C452 C451 1.391 . S
C452 C453 1.392 1_554 S
C453 H430 0.948 . S
C453 C452 1.392 1_556 S
C453 C454 1.419 1_556 S
C454 C453 1.419 1_554 S
C454 C455 1.391 . S
C454 C458 1.397 . S
C455 C450 1.391 . S
C455 C454 1.391 . S
C455 C456 1.399 . S
C456 C455 1.399 . S
C456 C457 1.396 . S
C456 C459 1.453 . S
C456 C460 1.684 . S
C457 C447 1.723 . S
C457 C456 1.396 . S
C457 C458 1.394 . S
C458 C428 1.723 1_554 S
C458 C454 1.397 . S
C458 C457 1.394 . S
C459 H431 0.982 . S
C459 H435 0.979 . S
C459 H436 0.977 . S
C459 C456 1.453 . S
C460 H432 0.979 . S
C460 H433 0.980 . S
C460 H434 0.983 . S
C460 C456 1.684 . S
H461 C479 0.948 . S
H462 C420 0.948 . S
H463 C438 0.979 . S
H464 C438 0.980 . S
H465 C438 0.983 . S
H466 C437 0.982 . S
H467 C437 0.979 . S
H468 C437 0.977 . S
H469 C439 0.948 . S
H470 C441 0.947 . S
H471 C442 0.948 . S
H472 C448 0.982 . S
H473 C448 0.979 . S
H474 C448 0.977 1_556 S
H475 C449 0.979 . S
H476 C449 0.980 1_556 S
H477 C449 0.983 . S
H478 C422 0.947 . S
C479 C422 1.392 . S
C479 C423 1.419 . S
C479 H461 0.948 . S
Gd480 N511 2.659 1_545 S
Gd480 N517 2.601 . S
Gd480 O524 2.545 . S
Gd480 O525 2.606 1_655 S
Gd480 O527 2.429 . S
Gd480 O528 2.545 1_655 S
Gd480 O529 2.412 . S
Gd480 O531 2.362 1_545 S
Gd480 O532 2.324 1_655 S
Gd480 C539 2.828 . S
Gd481 N490 2.661 1_565 S
Gd481 N494 2.601 . S
Gd481 O525 2.362 1_565 S
Gd481 O526 2.324 1_455 S
Gd481 O530 2.545 . S
Gd481 O531 2.606 1_455 S
Gd481 O533 2.429 . S
Gd481 O534 2.545 . S
Gd481 O535 2.412 . S
Gd481 C548 2.828 . S
C482 C485 1.417 . S
C482 C487 1.431 . S
C482 C488 1.412 . S
C483 C486 1.437 . S
C483 C487 1.317 . S
C483 H502 0.929 . S
C484 C485 1.426 . S
C484 C486 1.413 . S
C484 N494 1.359 1_545 S
C485 C482 1.417 . S
C485 C484 1.426 . S
C485 N490 1.350 . S
C486 C483 1.437 . S
C486 C484 1.413 . S
C486 C496 1.375 1_545 S
C487 C482 1.431 . S
C487 C483 1.317 . S
C487 H498 0.930 . S
C488 C482 1.412 . S
C488 C489 1.355 . S
C488 H500 0.930 . S
C489 C488 1.355 . S
C489 C491 1.402 . S
C489 H501 0.930 1_455 S
N490 Gd481 2.661 1_545 S
N490 C485 1.350 . S
N490 C491 1.307 . S
C491 C489 1.402 . S
C491 N490 1.307 . S
C491 H492 0.930 1_455 S
H492 C491 0.930 1_655 S
C493 N494 1.334 . S
C493 C495 1.394 . S
C493 H497 0.930 . S
N494 Gd481 2.601 . S
N494 C484 1.359 1_565 S
N494 C493 1.334 . S
C495 C493 1.394 . S
C495 C496 1.380 . S
C495 H507 0.930 . S
C496 C486 1.375 1_565 S
C496 C495 1.380 . S
C496 H508 0.926 1_565 S
H497 C493 0.930 . S
H498 C487 0.930 . S
H499 C516 0.930 . S
H500 C488 0.930 . S
H501 C489 0.930 1_655 S
H502 C483 0.929 . S
H503 C521 0.930 . S
H504 C512 0.930 . S
H505 C513 0.937 . S
H506 C537 0.929 . S
H507 C495 0.930 . S
H508 C496 0.926 1_545 S
H509 C538 0.930 . S
H510 C519 0.930 . S
N511 Gd480 2.659 1_565 S
N511 C515 1.351 . S
N511 C516 1.309 1_655 S
C512 H504 0.930 . S
C512 C513 1.347 1_655 S
C512 C514 1.412 . S
C513 H505 0.937 . S
C513 C512 1.347 1_455 S
C513 C516 1.403 . S
C514 C512 1.412 . S
C514 C515 1.417 . S
C514 C538 1.431 . S
C515 N511 1.351 . S
C515 C514 1.417 . S
C515 C518 1.426 1_565 S
C516 H499 0.930 . S
C516 N511 1.309 1_455 S
C516 C513 1.403 . S
N517 Gd480 2.601 . S
N517 C518 1.359 . S
N517 C521 1.334 . S
C518 C515 1.426 1_545 S
C518 N517 1.359 . S
C518 C522 1.413 . S
C519 H510 0.930 . S
C519 C520 1.359 . S
C519 C521 1.394 . S
C520 C519 1.359 . S
C520 C522 1.391 . S
C520 H523 0.929 . S
C521 H503 0.930 . S
C521 N517 1.334 . S
C521 C519 1.394 . S
C522 C518 1.413 . S
C522 C520 1.391 . S
C522 C537 1.437 1_545 S
H523 C520 0.929 . S
O524 Gd480 2.545 . S
O524 C539 1.258 . S
O525 Gd480 2.606 1_455 S
O525 Gd481 2.362 1_545 S
O525 C536 1.284 . S
O526 Gd481 2.324 1_655 S
O526 C546 1.254 1_565 S
O527 Gd480 2.429 . S
O527 C546 1.268 . S
O528 Gd480 2.545 1_455 S
O528 C536 1.250 . S
O529 Gd480 2.412 . S
O529 C539 1.252 . S
O530 Gd481 2.545 . S
O530 C548 1.258 . S
O531 Gd480 2.362 1_565 S
O531 Gd481 2.606 1_655 S
O531 C547 1.284 . S
O532 Gd480 2.324 1_455 S
O532 C555 1.254 . S
O533 Gd481 2.429 . S
O533 C555 1.268 1_565 S
O534 Gd481 2.545 . S
O534 C547 1.250 1_455 S
O535 Gd481 2.412 . S
O535 C548 1.252 . S
C536 O525 1.284 . S
C536 O528 1.250 . S
C537 H506 0.929 . S
C537 C522 1.437 1_565 S
C537 C538 1.317 . S
C538 H509 0.930 . S
C538 C514 1.431 . S
C538 C537 1.317 . S
C539 Gd480 2.828 . S
C539 O524 1.258 . S
C539 O529 1.252 . S
C539 C540 1.497 . S
C540 C539 1.497 . S
C540 C541 1.395 . S
C540 C542 1.380 . S
C541 C540 1.395 . S
C541 C544 1.398 . S
C541 H556 0.930 . S
C542 C540 1.380 . S
C542 C543 1.391 . S
C542 H557 0.930 1_655 S
C543 C542 1.391 . S
C543 C545 1.387 . S
C544 C541 1.398 . S
C544 C545 1.380 . S
C544 H558 0.930 . S
C545 C543 1.387 . S
C545 C544 1.380 . S
C545 H559 0.930 . S
C546 O526 1.254 1_545 S
C546 O527 1.268 . S
C547 O531 1.284 . S
C547 O534 1.250 1_655 S
C548 Gd481 2.828 . S
C548 O530 1.258 . S
C548 O535 1.252 . S
C548 C549 1.497 . S
C549 C548 1.497 . S
C549 C550 1.395 . S
C549 C551 1.380 . S
C550 C549 1.395 . S
C550 C553 1.398 . S
C550 H560 0.930 . S
C551 C549 1.380 . S
C551 C552 1.391 . S
C551 H561 0.918 1_455 S
C552 C551 1.391 . S
C552 C554 1.387 . S
C553 C550 1.398 . S
C553 C554 1.380 . S
C553 H562 0.930 . S
C554 C552 1.387 . S
C554 C553 1.380 . S
C554 H563 0.930 . S
C555 O532 1.254 . S
C555 O533 1.268 1_545 S
H556 C541 0.930 . S
H557 C542 0.930 1_455 S
H558 C544 0.930 . S
H559 C545 0.930 . S
H560 C550 0.930 . S
H561 C551 0.918 1_655 S
H562 C553 0.930 . S
H563 C554 0.930 . S
Gd564 N595 2.661 . S
Gd564 N601 2.601 . S
Gd564 O608 2.545 . S
Gd564 O609 2.606 1_565 S
Gd564 O611 2.429 . S
Gd564 O612 2.545 1_565 S
Gd564 O613 2.412 . S
Gd564 O615 2.362 . S
Gd564 O616 2.324 1_565 S
Gd564 C623 2.828 . S
Gd565 N574 2.661 . S
Gd565 N578 2.601 . S
Gd565 O609 2.362 . S
Gd565 O610 2.324 1_545 S
Gd565 O614 2.545 . S
Gd565 O615 2.606 1_545 S
Gd565 O617 2.429 . S
Gd565 O618 2.545 . S
Gd565 O619 2.412 . S
Gd565 C632 2.828 . S
C566 C569 1.417 . S
C566 C571 1.431 . S
C566 C572 1.412 . S
C567 C570 1.437 . S
C567 C571 1.317 . S
C567 H586 0.929 . S
C568 C569 1.426 . S
C568 C570 1.413 . S
C568 N578 1.359 . S
C569 C566 1.417 . S
C569 C568 1.426 . S
C569 N574 1.350 . S
C570 C567 1.437 . S
C570 C568 1.413 . S
C570 C580 1.391 . S
C571 C566 1.431 . S
C571 C567 1.317 . S
C571 H582 0.930 . S
C572 C566 1.412 . S
C572 C573 1.355 . S
C572 H584 0.930 . S
C573 C572 1.355 . S
C573 C575 1.402 . S
C573 H585 0.930 1_545 S
N574 Gd565 2.661 . S
N574 C569 1.350 . S
N574 C575 1.307 . S
C575 C573 1.402 . S
C575 N574 1.307 . S
C575 H576 0.930 1_545 S
H576 C575 0.930 1_565 S
C577 N578 1.334 . S
C577 C579 1.394 . S
C577 H581 0.930 . S
N578 Gd565 2.601 . S
N578 C568 1.359 . S
N578 C577 1.334 . S
C579 C577 1.394 . S
C579 C580 1.359 . S
C579 H591 0.930 . S
C580 C570 1.391 . S
C580 C579 1.359 . S
C580 H592 0.929 . S
H581 C577 0.930 . S
H582 C571 0.930 . S
H583 C600 0.930 . S
H584 C572 0.930 . S
H585 C573 0.930 1_565 S
H586 C567 0.929 . S
H587 C605 0.930 . S
H588 C596 0.930 . S
H589 C597 0.930 . S
H590 C621 0.929 . S
H591 C579 0.930 . S
H592 C580 0.929 . S
H593 C622 0.930 . S
H594 C603 0.930 . S
N595 Gd564 2.661 . S
N595 C599 1.350 . S
N595 C600 1.307 1_565 S
C596 H588 0.930 . S
C596 C597 1.355 1_565 S
C596 C598 1.412 . S
C597 H589 0.930 . S
C597 C596 1.355 1_545 S
C597 C600 1.402 . S
C598 C596 1.412 . S
C598 C599 1.417 . S
C598 C622 1.431 . S
C599 N595 1.350 . S
C599 C598 1.417 . S
C599 C602 1.426 . S
C600 H583 0.930 . S
C600 N595 1.307 1_545 S
C600 C597 1.402 . S
N601 Gd564 2.601 . S
N601 C602 1.359 . S
N601 C605 1.334 . S
C602 C599 1.426 . S
C602 N601 1.359 . S
C602 C606 1.413 . S
C603 H594 0.930 . S
C603 C604 1.359 . S
C603 C605 1.394 . S
C604 C603 1.359 . S
C604 C606 1.391 . S
C604 H607 0.929 . S
C605 H587 0.930 . S
C605 N601 1.334 . S
C605 C603 1.394 . S
C606 C602 1.413 . S
C606 C604 1.391 . S
C606 C621 1.437 . S
H607 C604 0.929 . S
O608 Gd564 2.545 . S
O608 C623 1.258 . S
O609 Gd564 2.606 1_545 S
O609 Gd565 2.362 . S
O609 C620 1.284 . S
O610 Gd565 2.324 1_565 S
O610 C630 1.254 . S
O611 Gd564 2.429 . S
O611 C630 1.268 . S
O612 Gd564 2.545 1_545 S
O612 C620 1.250 . S
O613 Gd564 2.412 . S
O613 C623 1.252 . S
O614 Gd565 2.545 . S
O614 C632 1.258 . S
O615 Gd564 2.362 . S
O615 Gd565 2.606 1_565 S
O615 C631 1.284 . S
O616 Gd564 2.324 1_545 S
O616 C639 1.254 . S
O617 Gd565 2.429 . S
O617 C639 1.268 . S
O618 Gd565 2.545 . S
O618 C631 1.250 1_545 S
O619 Gd565 2.412 . S
O619 C632 1.252 . S
C620 O609 1.284 . S
C620 O612 1.250 . S
C621 H590 0.929 . S
C621 C606 1.437 . S
C621 C622 1.317 . S
C622 H593 0.930 . S
C622 C598 1.431 . S
C622 C621 1.317 . S
C623 Gd564 2.828 . S
C623 O608 1.258 . S
C623 O613 1.252 . S
C623 C624 1.497 . S
C624 C623 1.497 . S
C624 C625 1.395 . S
C624 C626 1.380 . S
C625 C624 1.395 . S
C625 C628 1.398 . S
C625 H640 0.930 . S
C626 C624 1.380 . S
C626 C627 1.391 . S
C626 H641 0.930 1_565 S
C627 C626 1.391 . S
C627 C629 1.387 . S
C628 C625 1.398 . S
C628 C629 1.380 . S
C628 H642 0.930 . S
C629 C627 1.387 . S
C629 C628 1.380 . S
C629 H643 0.930 . S
C630 O610 1.254 . S
C630 O611 1.268 . S
C631 O615 1.284 . S
C631 O618 1.250 1_565 S
C632 Gd565 2.828 . S
C632 O614 1.258 . S
C632 O619 1.252 . S
C632 C633 1.497 . S
C633 C632 1.497 . S
C633 C634 1.395 . S
C633 C635 1.380 . S
C634 C633 1.395 . S
C634 C637 1.398 . S
C634 H644 0.930 . S
C635 C633 1.380 . S
C635 C636 1.391 . S
C635 H645 0.930 . S
C636 C635 1.391 . S
C636 C638 1.387 . S
C637 C634 1.398 . S
C637 C638 1.380 . S
C637 H646 0.930 . S
C638 C636 1.387 . S
C638 C637 1.380 . S
C638 H647 0.930 . S
C639 O616 1.254 . S
C639 O617 1.268 . S
H640 C625 0.930 . S
H641 C626 0.930 1_545 S
H642 C628 0.930 . S
H643 C629 0.930 . S
H644 C634 0.930 . S
H645 C635 0.930 . S
H646 C637 0.930 . S
H647 C638 0.930 . S
Gd648 N679 2.661 . S
Gd648 N685 2.601 . S
Gd648 O692 2.545 . S
Gd648 O693 2.606 . S
Gd648 O695 2.429 . S
Gd648 O696 2.545 . S
Gd648 O697 2.412 . S
Gd648 O699 2.362 . S
Gd648 O700 2.324 . S
Gd648 C707 2.828 . S
Gd649 N658 2.661 . S
Gd649 N662 2.601 . S
Gd649 O693 2.362 . S
Gd649 O694 2.324 . S
Gd649 O698 2.545 . S
Gd649 O699 2.606 . S
Gd649 O701 2.429 . S
Gd649 O702 2.545 . S
Gd649 O703 2.412 . S
Gd649 C716 2.828 . S
C650 C653 1.417 . S
C650 C655 1.431 . S
C650 C656 1.412 . S
C651 C654 1.437 . S
C651 C655 1.317 . S
C651 H670 0.929 . S
C652 C653 1.426 . S
C652 C654 1.413 . S
C652 N662 1.359 . S
C653 C650 1.417 . S
C653 C652 1.426 . S
C653 N658 1.350 . S
C654 C651 1.437 . S
C654 C652 1.413 . S
C654 C664 1.391 . S
C655 C650 1.431 . S
C655 C651 1.317 . S
C655 H666 0.930 . S
C656 C650 1.412 . S
C656 C657 1.355 . S
C656 H668 0.930 . S
C657 C656 1.355 . S
C657 C659 1.402 . S
C657 H669 0.930 . S
N658 Gd649 2.661 . S
N658 C653 1.350 . S
N658 C659 1.307 . S
C659 C657 1.402 . S
C659 N658 1.307 . S
C659 H660 0.930 . S
H660 C659 0.930 . S
C661 N662 1.334 . S
C661 C663 1.394 . S
C661 H665 0.930 . S
N662 Gd649 2.601 . S
N662 C652 1.359 . S
N662 C661 1.334 . S
C663 C661 1.394 . S
C663 C664 1.359 . S
C663 H675 0.930 . S
C664 C654 1.391 . S
C664 C663 1.359 . S
C664 H676 0.929 . S
H665 C661 0.930 . S
H666 C655 0.930 . S
H667 C684 0.930 . S
H668 C656 0.930 . S
H669 C657 0.930 . S
H670 C651 0.929 . S
H671 C689 0.930 . S
H672 C680 0.930 . S
H673 C681 0.930 . S
H674 C705 0.929 . S
H675 C663 0.930 . S
H676 C664 0.929 . S
H677 C706 0.930 . S
H678 C687 0.930 . S
N679 Gd648 2.661 . S
N679 C683 1.350 . S
N679 C684 1.307 . S
C680 H672 0.930 . S
C680 C681 1.355 . S
C680 C682 1.412 . S
C681 H673 0.930 . S
C681 C680 1.355 . S
C681 C684 1.402 . S
C682 C680 1.412 . S
C682 C683 1.417 . S
C682 C706 1.431 . S
C683 N679 1.350 . S
C683 C682 1.417 . S
C683 C686 1.426 . S
C684 H667 0.930 . S
C684 N679 1.307 . S
C684 C681 1.402 . S
N685 Gd648 2.601 . S
N685 C686 1.359 . S
N685 C689 1.334 . S
C686 C683 1.426 . S
C686 N685 1.359 . S
C686 C690 1.413 . S
C687 H678 0.930 . S
C687 C688 1.359 . S
C687 C689 1.394 . S
C688 C687 1.359 . S
C688 C690 1.391 . S
C688 H691 0.929 . S
C689 H671 0.930 . S
C689 N685 1.334 . S
C689 C687 1.394 . S
C690 C686 1.413 . S
C690 C688 1.391 . S
C690 C705 1.437 . S
H691 C688 0.929 . S
O692 Gd648 2.545 . S
O692 C707 1.258 . S
O693 Gd648 2.606 . S
O693 Gd649 2.362 . S
O693 C704 1.284 . S
O694 Gd649 2.324 . S
O694 C714 1.254 . S
O695 Gd648 2.429 . S
O695 C714 1.268 . S
O696 Gd648 2.545 . S
O696 C704 1.250 . S
O697 Gd648 2.412 . S
O697 C707 1.252 . S
O698 Gd649 2.545 . S
O698 C716 1.258 . S
O699 Gd648 2.362 . S
O699 Gd649 2.606 . S
O699 C715 1.284 . S
O700 Gd648 2.324 . S
O700 C723 1.254 . S
O701 Gd649 2.429 . S
O701 C723 1.268 . S
O702 Gd649 2.545 . S
O702 C715 1.250 . S
O703 Gd649 2.412 . S
O703 C716 1.252 . S
C704 O693 1.284 . S
C704 O696 1.250 . S
C705 H674 0.929 . S
C705 C690 1.437 . S
C705 C706 1.317 . S
C706 H677 0.930 . S
C706 C682 1.431 . S
C706 C705 1.317 . S
C707 Gd648 2.828 . S
C707 O692 1.258 . S
C707 O697 1.252 . S
C707 C708 1.497 . S
C708 C707 1.497 . S
C708 C709 1.395 . S
C708 C710 1.380 . S
C709 C708 1.395 . S
C709 C712 1.398 . S
C709 H724 0.930 . S
C710 C708 1.380 . S
C710 C711 1.391 . S
C710 H725 0.930 . S
C711 C710 1.391 . S
C711 C713 1.387 . S
C712 C709 1.398 . S
C712 C713 1.380 . S
C712 H726 0.930 . S
C713 C711 1.387 . S
C713 C712 1.380 . S
C713 H727 0.930 . S
C714 O694 1.254 . S
C714 O695 1.268 . S
C715 O699 1.284 . S
C715 O702 1.250 . S
C716 Gd649 2.828 . S
C716 O698 1.258 . S
C716 O703 1.252 . S
C716 C717 1.497 . S
C717 C716 1.497 . S
C717 C718 1.395 . S
C717 C719 1.380 . S
C718 C717 1.395 . S
C718 C721 1.398 . S
C718 H728 0.930 . S
C719 C717 1.380 . S
C719 C720 1.391 . S
C719 H729 0.930 . S
C720 C719 1.391 . S
C720 C722 1.387 . S
C721 C718 1.398 . S
C721 C722 1.380 . S
C721 H730 0.930 . S
C722 C720 1.387 . S
C722 C721 1.380 . S
C722 H731 0.930 . S
C723 O700 1.254 . S
C723 O701 1.268 . S
H724 C709 0.930 . S
H725 C710 0.930 . S
H726 C712 0.930 . S
H727 C713 0.930 . S
H728 C718 0.930 . S
H729 C719 0.930 . S
H730 C721 0.930 . S
H731 C722 0.930 . S
Gd732 N763 2.661 . S
Gd732 N769 2.601 . S
Gd732 O776 2.545 . S
Gd732 O777 2.600 1_655 S
Gd732 O779 2.429 1_655 S
Gd732 O780 2.545 . S
Gd732 O781 2.412 . S
Gd732 O783 2.362 1_655 S
Gd732 O784 2.324 . S
Gd732 C791 2.828 . S
Gd733 N742 2.661 . S
Gd733 N746 2.601 . S
Gd733 O777 2.372 . S
Gd733 O778 2.324 . S
Gd733 O782 2.545 . S
Gd733 O783 2.606 . S
Gd733 O785 2.429 1_455 S
Gd733 O786 2.545 . S
Gd733 O787 2.412 . S
Gd733 C800 2.828 . S
C734 C737 1.417 . S
C734 C739 1.431 . S
C734 C740 1.412 . S
C735 C738 1.437 . S
C735 C739 1.317 . S
C735 H754 0.929 . S
C736 C737 1.426 . S
C736 C738 1.413 . S
C736 N746 1.359 . S
C737 C734 1.417 . S
C737 C736 1.426 . S
C737 N742 1.350 . S
C738 C735 1.437 . S
C738 C736 1.413 . S
C738 C748 1.391 . S
C739 C734 1.431 . S
C739 C735 1.317 . S
C739 H750 0.930 . S
C740 C734 1.412 . S
C740 C741 1.355 . S
C740 H752 0.930 . S
C741 C740 1.355 . S
C741 C743 1.402 . S
C741 H753 0.930 . S
N742 Gd733 2.661 . S
N742 C737 1.350 . S
N742 C743 1.307 . S
C743 C741 1.402 . S
C743 N742 1.307 . S
C743 H744 0.930 . S
H744 C743 0.930 . S
C745 N746 1.334 . S
C745 C747 1.398 . S
C745 H749 0.930 1_455 S
N746 Gd733 2.601 . S
N746 C736 1.359 . S
N746 C745 1.334 . S
C747 C745 1.398 . S
C747 C748 1.377 . S
C747 H759 0.910 1_455 S
C748 C738 1.391 . S
C748 C747 1.377 . S
C748 H760 0.929 . S
H749 C745 0.930 1_655 S
H750 C739 0.930 . S
H751 C768 0.930 . S
H752 C740 0.930 . S
H753 C741 0.930 . S
H754 C735 0.929 . S
H755 C773 0.930 . S
H756 C764 0.930 . S
H757 C765 0.930 . S
H758 C789 0.929 . S
H759 C747 0.910 1_655 S
H760 C748 0.929 . S
H761 C790 0.930 . S
H762 C771 0.930 . S
N763 Gd732 2.661 . S
N763 C767 1.350 . S
N763 C768 1.307 . S
C764 H756 0.930 . S
C764 C765 1.355 . S
C764 C766 1.412 . S
C765 H757 0.930 . S
C765 C764 1.355 . S
C765 C768 1.402 . S
C766 C764 1.412 . S
C766 C767 1.417 . S
C766 C790 1.431 . S
C767 N763 1.350 . S
C767 C766 1.417 . S
C767 C770 1.426 . S
C768 H751 0.930 . S
C768 N763 1.307 . S
C768 C765 1.402 . S
N769 Gd732 2.601 . S
N769 C770 1.359 . S
N769 C773 1.334 1_655 S
C770 C767 1.426 . S
C770 N769 1.359 . S
C770 C774 1.413 . S
C771 H762 0.930 . S
C771 C772 1.359 1_455 S
C771 C773 1.394 . S
C772 C771 1.359 1_655 S
C772 C774 1.391 . S
C772 H775 0.929 . S
C773 H755 0.930 . S
C773 N769 1.334 1_455 S
C773 C771 1.394 . S
C774 C770 1.413 . S
C774 C772 1.391 . S
C774 C789 1.437 . S
H775 C772 0.929 . S
O776 Gd732 2.545 . S
O776 C791 1.258 . S
O777 Gd732 2.600 1_455 S
O777 Gd733 2.372 . S
O777 C788 1.277 1_455 S
O778 Gd733 2.324 . S
O778 C798 1.254 . S
O779 Gd732 2.429 1_455 S
O779 C798 1.268 . S
O780 Gd732 2.545 . S
O780 C788 1.250 . S
O781 Gd732 2.412 . S
O781 C791 1.252 . S
O782 Gd733 2.545 . S
O782 C800 1.258 . S
O783 Gd732 2.362 1_455 S
O783 Gd733 2.606 . S
O783 C799 1.284 . S
O784 Gd732 2.324 . S
O784 C807 1.254 . S
O785 Gd733 2.429 1_655 S
O785 C807 1.268 . S
O786 Gd733 2.545 . S
O786 C799 1.250 . S
O787 Gd733 2.412 . S
O787 C800 1.252 . S
C788 O777 1.277 1_655 S
C788 O780 1.250 . S
C789 H758 0.929 . S
C789 C774 1.437 . S
C789 C790 1.317 . S
C790 H761 0.930 . S
C790 C766 1.431 . S
C790 C789 1.317 . S
C791 Gd732 2.828 . S
C791 O776 1.258 . S
C791 O781 1.252 . S
C791 C792 1.497 . S
C792 C791 1.497 . S
C792 C793 1.395 . S
C792 C794 1.380 . S
C793 C792 1.395 . S
C793 C796 1.398 . S
C793 H808 0.930 . S
C794 C792 1.380 . S
C794 C795 1.391 . S
C794 H809 0.930 . S
C795 C794 1.391 . S
C795 C797 1.387 . S
C796 C793 1.398 . S
C796 C797 1.380 . S
C796 H810 0.930 . S
C797 C795 1.387 . S
C797 C796 1.380 . S
C797 H811 0.930 . S
C798 O778 1.254 . S
C798 O779 1.268 . S
C799 O783 1.284 . S
C799 O786 1.250 . S
C800 Gd733 2.828 . S
C800 O782 1.258 . S
C800 O787 1.252 . S
C800 C801 1.497 . S
C801 C800 1.497 . S
C801 C802 1.395 . S
C801 C803 1.380 . S
C802 C801 1.395 . S
C802 C805 1.398 . S
C802 H812 0.930 . S
C803 C801 1.380 . S
C803 C804 1.391 . S
C803 H813 0.930 . S
C804 C803 1.391 . S
C804 C806 1.387 . S
C805 C802 1.398 . S
C805 C806 1.380 . S
C805 H814 0.930 . S
C806 C804 1.387 . S
C806 C805 1.380 . S
C806 H815 0.930 . S
C807 O784 1.254 . S
C807 O785 1.268 . S
H808 C793 0.930 . S
H809 C794 0.930 . S
H810 C796 0.930 . S
H811 C797 0.930 . S
H812 C802 0.930 . S
H813 C803 0.930 . S
H814 C805 0.930 . S
H815 C806 0.930 . S
C816 C817 1.391 . S
C816 C818 1.394 . S
C816 H832 0.931 . S
C817 C816 1.391 . S
C817 C821 1.376 . S
C818 C816 1.394 . S
C818 C819 1.369 . S
C818 C822 1.531 . S
C819 C818 1.369 . S
C819 C820 1.410 . S
C819 C827 1.503 . S
C820 C819 1.410 . S
C820 C821 1.392 . S
C820 C823 1.511 . S
C821 C817 1.376 . S
C821 C820 1.392 . S
C821 H833 0.929 . S
C822 C818 1.531 . S
C822 H834 0.960 . S
C822 H835 0.962 . S
C822 H836 0.960 . S
C823 C820 1.511 . S
C823 H837 0.961 1_545 S
C823 H838 0.961 . S
C823 H839 0.961 1_545 S
C824 C825 1.370 . S
C824 C826 1.363 . S
C824 H840 0.931 . S
C825 C824 1.370 . S
C825 C829 1.408 . S
C826 C824 1.363 . S
C826 C827 1.370 . S
C826 C830 1.524 . S
C827 C819 1.503 . S
C827 C826 1.370 . S
C827 C828 1.403 . S
C828 C827 1.403 . S
C828 C829 1.404 . S
C828 C831 1.539 . S
C829 C825 1.408 . S
C829 C828 1.404 . S
C829 H841 0.930 . S
C830 C826 1.524 . S
C830 H842 0.956 . S
C830 H843 0.961 . S
C830 H844 0.961 . S
C831 C828 1.539 . S
C831 H845 0.958 . S
C831 H846 0.961 . S
C831 H847 0.960 . S
H832 C816 0.931 . S
H833 C821 0.929 . S
H834 C822 0.960 . S
H835 C822 0.962 . S
H836 C822 0.960 . S
H837 C823 0.961 1_565 S
H838 C823 0.961 . S
H839 C823 0.961 1_565 S
H840 C824 0.931 . S
H841 C829 0.930 . S
H842 C830 0.956 . S
H843 C830 0.961 . S
H844 C830 0.961 . S
H845 C831 0.958 . S
H846 C831 0.961 . S
H847 C831 0.960 . S
C848 C849 1.391 . S
C848 C850 1.394 . S
C848 H864 0.931 . S
C849 C848 1.391 . S
C849 C853 1.376 . S
C850 C848 1.394 . S
C850 C851 1.369 . S
C850 C854 1.531 . S
C851 C850 1.369 . S
C851 C852 1.410 . S
C851 C859 1.503 . S
C852 C851 1.410 . S
C852 C853 1.392 . S
C852 C855 1.511 . S
C853 C849 1.376 . S
C853 C852 1.392 . S
C853 H865 0.929 . S
C854 C850 1.531 . S
C854 H866 0.960 . S
C854 H867 0.962 . S
C854 H868 0.960 . S
C855 C852 1.511 . S
C855 H869 0.961 . S
C855 H870 0.961 . S
C855 H871 0.961 . S
C856 C857 1.370 . S
C856 C858 1.363 . S
C856 H872 0.931 . S
C857 C856 1.370 . S
C857 C861 1.408 . S
C858 C856 1.363 . S
C858 C859 1.370 . S
C858 C862 1.524 . S
C859 C851 1.503 . S
C859 C858 1.370 . S
C859 C860 1.403 . S
C860 C859 1.403 . S
C860 C861 1.404 . S
C860 C863 1.539 . S
C861 C857 1.408 . S
C861 C860 1.404 . S
C861 H873 0.930 . S
C862 C858 1.524 . S
C862 H874 0.956 . S
C862 H875 0.961 . S
C862 H876 0.961 . S
C863 C860 1.539 . S
C863 H877 0.958 . S
C863 H878 0.961 . S
C863 H879 0.960 . S
H864 C848 0.931 . S
H865 C853 0.929 . S
H866 C854 0.960 . S
H867 C854 0.962 . S
H868 C854 0.960 . S
H869 C855 0.961 . S
H870 C855 0.961 . S
H871 C855 0.961 . S
H872 C856 0.931 . S
H873 C861 0.930 . S
H874 C862 0.956 . S
H875 C862 0.961 . S
H876 C862 0.961 . S
H877 C863 0.958 . S
H878 C863 0.961 . S
H879 C863 0.960 . S
C880 C881 1.391 . S
C880 C882 1.394 . S
C880 H896 0.931 . S
C881 C880 1.391 . S
C881 C885 1.376 . S
C882 C880 1.394 . S
C882 C883 1.369 . S
C882 C886 1.531 . S
C883 C882 1.369 . S
C883 C884 1.410 . S
C883 C891 1.503 . S
C884 C883 1.410 . S
C884 C885 1.392 . S
C884 C887 1.511 . S
C885 C881 1.376 . S
C885 C884 1.392 . S
C885 H897 0.929 . S
C886 C882 1.531 . S
C886 H898 0.960 . S
C886 H899 0.962 . S
C886 H900 0.960 . S
C887 C884 1.511 . S
C887 H901 0.961 . S
C887 H902 0.961 . S
C887 H903 0.961 . S
C888 C889 1.370 . S
C888 C890 1.363 . S
C888 H904 0.931 . S
C889 C888 1.370 . S
C889 C893 1.408 . S
C890 C888 1.363 . S
C890 C891 1.370 . S
C890 C894 1.524 . S
C891 C883 1.503 . S
C891 C890 1.370 . S
C891 C892 1.403 . S
C892 C891 1.403 . S
C892 C893 1.404 . S
C892 C895 1.539 . S
C893 C889 1.408 . S
C893 C892 1.404 . S
C893 H905 0.930 . S
C894 C890 1.524 . S
C894 H906 0.956 . S
C894 H907 0.961 . S
C894 H908 0.961 . S
C895 C892 1.539 . S
C895 H909 0.958 . S
C895 H910 0.961 . S
C895 H911 0.960 . S
H896 C880 0.931 . S
H897 C885 0.929 . S
H898 C886 0.960 . S
H899 C886 0.962 . S
H900 C886 0.960 . S
H901 C887 0.961 . S
H902 C887 0.961 . S
H903 C887 0.961 . S
H904 C888 0.931 . S
H905 C893 0.930 . S
H906 C894 0.956 . S
H907 C894 0.961 . S
H908 C894 0.961 . S
H909 C895 0.958 . S
H910 C895 0.961 . S
H911 C895 0.960 . S
C912 C913 1.391 . S
C912 C914 1.394 . S
C912 H928 0.931 . S
C913 C912 1.391 . S
C913 C917 1.376 . S
C914 C912 1.394 . S
C914 C915 1.369 . S
C914 C918 1.531 . S
C915 C914 1.369 . S
C915 C916 1.410 . S
C915 C923 1.503 . S
C916 C915 1.410 . S
C916 C917 1.392 . S
C916 C919 1.511 . S
C917 C913 1.376 . S
C917 C916 1.392 . S
C917 H929 0.929 . S
C918 C914 1.531 . S
C918 H930 0.960 . S
C918 H931 0.962 . S
C918 H932 0.960 . S
C919 C916 1.511 . S
C919 H933 0.956 1_455 S
C919 H934 0.961 . S
C919 H935 0.946 1_455 S
C920 C921 1.370 . S
C920 C922 1.363 . S
C920 H936 0.931 . S
C921 C920 1.370 . S
C921 C925 1.408 . S
C922 C920 1.363 . S
C922 C923 1.370 . S
C922 C926 1.524 . S
C923 C915 1.503 . S
C923 C922 1.370 . S
C923 C924 1.403 . S
C924 C923 1.403 . S
C924 C925 1.404 . S
C924 C927 1.539 . S
C925 C921 1.408 . S
C925 C924 1.404 . S
C925 H937 0.930 . S
C926 C922 1.524 . S
C926 H938 0.956 . S
C926 H939 0.961 . S
C926 H940 0.961 . S
C927 C924 1.539 . S
C927 H941 0.958 . S
C927 H942 0.961 . S
C927 H943 0.960 . S
H928 C912 0.931 . S
H929 C917 0.929 . S
H930 C918 0.960 . S
H931 C918 0.962 . S
H932 C918 0.960 . S
H933 C919 0.956 1_655 S
H934 C919 0.961 . S
H935 C919 0.946 1_655 S
H936 C920 0.931 . S
H937 C925 0.930 . S
H938 C926 0.956 . S
H939 C926 0.961 . S
H940 C926 0.961 . S
H941 C927 0.958 . S
H942 C927 0.961 . S
H943 C927 0.960 . S
C944 C945 1.391 . S
C944 C946 1.394 1_554 S
C944 H960 0.931 . S
C945 C944 1.391 . S
C945 C949 1.376 . S
C946 C944 1.394 1_556 S
C946 C947 1.369 . S
C946 C950 1.531 . S
C947 C946 1.369 . S
C947 C948 1.401 1_556 S
C947 C955 1.503 . S
C948 C947 1.401 1_554 S
C948 C949 1.405 . S
C948 C951 1.508 1_554 S
C949 C945 1.376 . S
C949 C948 1.405 . S
C949 H961 0.929 . S
C950 C946 1.531 . S
C950 H962 0.960 1_565 S
C950 H963 0.962 . S
C950 H964 0.960 1_565 S
C951 C948 1.508 1_556 S
C951 H965 0.961 1_556 S
C951 H966 0.961 . S
C951 H967 0.958 1_556 S
C952 C953 1.370 . S
C952 C954 1.363 . S
C952 H968 0.931 . S
C953 C952 1.370 . S
C953 C957 1.381 1_565 S
C954 C952 1.363 . S
C954 C955 1.370 . S
C954 C958 1.524 . S
C955 C947 1.503 . S
C955 C954 1.370 . S
C955 C956 1.403 . S
C956 C955 1.403 . S
C956 C957 1.393 1_565 S
C956 C959 1.539 1_565 S
C957 C953 1.381 1_545 S
C957 C956 1.393 1_545 S
C957 H969 0.968 . S
C958 C954 1.524 . S
C958 H970 0.956 . S
C958 H971 0.961 . S
C958 H972 0.961 . S
C959 C956 1.539 1_545 S
C959 H973 0.958 . S
C959 H974 0.961 . S
C959 H975 0.974 . S
H960 C944 0.931 . S
H961 C949 0.929 . S
H962 C950 0.960 1_545 S
H963 C950 0.962 . S
H964 C950 0.960 1_545 S
H965 C951 0.961 1_554 S
H966 C951 0.961 . S
H967 C951 0.958 1_554 S
H968 C952 0.931 . S
H969 C957 0.968 . S
H970 C958 0.956 . S
H971 C958 0.961 . S
H972 C958 0.961 . S
H973 C959 0.958 . S
H974 C959 0.961 . S
H975 C959 0.974 . S
C976 C977 1.391 . S
C976 C978 1.394 1_554 S
C976 H992 0.931 . S
C977 C976 1.391 . S
C977 C981 1.376 . S
C978 C976 1.394 1_556 S
C978 C979 1.369 . S
C978 C982 1.531 . S
C979 C978 1.369 . S
C979 C980 1.410 1_556 S
C979 C987 1.503 . S
C980 C979 1.410 1_554 S
C980 C981 1.392 . S
C980 C983 1.511 . S
C981 C977 1.376 . S
C981 C980 1.392 . S
C981 H993 0.929 . S
C982 C978 1.531 . S
C982 H994 0.960 . S
C982 H995 0.962 . S
C982 H996 0.960 . S
C983 C980 1.511 . S
C983 H997 0.961 . S
C983 H998 0.961 1_554 S
C983 H999 0.961 . S
C984 C985 1.370 . S
C984 C986 1.363 . S
C984 H1000 0.931 . S
C985 C984 1.370 . S
C985 C989 1.408 . S
C986 C984 1.363 . S
C986 C987 1.370 . S
C986 C990 1.524 . S
C987 C979 1.503 . S
C987 C986 1.370 . S
C987 C988 1.403 . S
C988 C987 1.403 . S
C988 C989 1.404 . S
C988 C991 1.539 . S
C989 C985 1.408 . S
C989 C988 1.404 . S
C989 H1001 0.930 . S
C990 C986 1.524 . S
C990 H1002 0.956 . S
C990 H1003 0.961 . S
C990 H1004 0.961 . S
C991 C988 1.539 . S
C991 H1005 0.958 . S
C991 H1006 0.961 . S
C991 H1007 0.960 . S
H992 C976 0.931 . S
H993 C981 0.929 . S
H994 C982 0.960 . S
H995 C982 0.962 . S
H996 C982 0.960 . S
H997 C983 0.961 . S
H998 C983 0.961 1_556 S
H999 C983 0.961 . S
H1000 C984 0.931 . S
H1001 C989 0.930 . S
H1002 C990 0.956 . S
H1003 C990 0.961 . S
H1004 C990 0.961 . S
H1005 C991 0.958 . S
H1006 C991 0.961 . S
H1007 C991 0.960 . S
C1008 C1009 1.391 . S
C1008 C1010 1.394 1_554 S
C1008 H1024 0.931 . S
C1009 C1008 1.391 . S
C1009 C1013 1.376 . S
C1010 C1008 1.394 1_556 S
C1010 C1011 1.369 . S
C1010 C1014 1.531 . S
C1011 C1010 1.369 . S
C1011 C1012 1.410 . S
C1011 C1019 1.503 . S
C1012 C1011 1.410 . S
C1012 C1013 1.392 1_556 S
C1012 C1015 1.511 . S
C1013 C1009 1.376 . S
C1013 C1012 1.392 1_554 S
C1013 H1025 0.929 . S
C1014 C1010 1.531 . S
C1014 H1026 0.960 . S
C1014 H1027 0.962 . S
C1014 H1028 0.960 . S
C1015 C1012 1.511 . S
C1015 H1029 0.961 . S
C1015 H1030 0.961 . S
C1015 H1031 0.961 . S
C1016 C1017 1.370 . S
C1016 C1018 1.363 . S
C1016 H1032 0.931 . S
C1017 C1016 1.370 . S
C1017 C1021 1.408 . S
C1018 C1016 1.363 . S
C1018 C1019 1.370 . S
C1018 C1022 1.524 . S
C1019 C1011 1.503 . S
C1019 C1018 1.370 . S
C1019 C1020 1.403 . S
C1020 C1019 1.403 . S
C1020 C1021 1.404 . S
C1020 C1023 1.539 . S
C1021 C1017 1.408 . S
C1021 C1020 1.404 . S
C1021 H1033 0.930 . S
C1022 C1018 1.524 . S
C1022 H1034 0.956 . S
C1022 H1035 0.961 . S
C1022 H1036 0.961 . S
C1023 C1020 1.539 . S
C1023 H1037 0.958 . S
C1023 H1038 0.961 . S
C1023 H1039 0.960 . S
H1024 C1008 0.931 . S
H1025 C1013 0.929 . S
H1026 C1014 0.960 . S
H1027 C1014 0.962 . S
H1028 C1014 0.960 . S
H1029 C1015 0.961 . S
H1030 C1015 0.961 . S
H1031 C1015 0.961 . S
H1032 C1016 0.931 . S
H1033 C1021 0.930 . S
H1034 C1022 0.956 . S
H1035 C1022 0.961 . S
H1036 C1022 0.961 . S
H1037 C1023 0.958 . S
H1038 C1023 0.961 . S
H1039 C1023 0.960 . S
C1040 C1041 1.391 . S
C1040 C1042 1.394 . S
C1040 H1056 0.931 . S
C1041 C1040 1.391 . S
C1041 C1045 1.376 . S
C1042 C1040 1.394 . S
C1042 C1043 1.369 1_554 S
C1042 C1046 1.531 1_654 S
C1043 C1042 1.369 1_556 S
C1043 C1044 1.410 . S
C1043 C1051 1.503 . S
C1044 C1043 1.410 . S
C1044 C1045 1.392 1_556 S
C1044 C1047 1.511 . S
C1045 C1041 1.376 . S
C1045 C1044 1.392 1_554 S
C1045 H1057 0.929 . S
C1046 C1042 1.531 1_456 S
C1046 H1058 0.960 . S
C1046 H1059 0.962 . S
C1046 H1060 0.960 1_556 S
C1047 C1044 1.511 . S
C1047 H1061 0.961 . S
C1047 H1062 0.961 . S
C1047 H1063 0.961 . S
C1048 C1049 1.370 . S
C1048 C1050 1.363 . S
C1048 H1064 0.931 . S
C1049 C1048 1.370 . S
C1049 C1053 1.408 . S
C1050 C1048 1.363 . S
C1050 C1051 1.370 . S
C1050 C1054 1.524 . S
C1051 C1043 1.503 . S
C1051 C1050 1.370 . S
C1051 C1052 1.403 . S
C1052 C1051 1.403 . S
C1052 C1053 1.404 . S
C1052 C1055 1.539 . S
C1053 C1049 1.408 . S
C1053 C1052 1.404 . S
C1053 H1065 0.930 . S
C1054 C1050 1.524 . S
C1054 H1066 0.956 . S
C1054 H1067 0.961 . S
C1054 H1068 0.961 . S
C1055 C1052 1.539 . S
C1055 H1069 0.958 . S
C1055 H1070 0.961 . S
C1055 H1071 0.960 . S
H1056 C1040 0.931 . S
H1057 C1045 0.929 . S
H1058 C1046 0.960 . S
H1059 C1046 0.962 . S
H1060 C1046 0.960 1_554 S
H1061 C1047 0.961 . S
H1062 C1047 0.961 . S
H1063 C1047 0.961 . S
H1064 C1048 0.931 . S
H1065 C1053 0.930 . S
H1066 C1054 0.956 . S
H1067 C1054 0.961 . S
H1068 C1054 0.961 . S
H1069 C1055 0.958 . S
H1070 C1055 0.961 . S
H1071 C1055 0.960 . S
C1072 C1073 1.391 . S
C1072 C1074 1.394 . S
C1072 H1088 0.931 . S
C1073 C1072 1.391 . S
C1073 C1077 1.376 . S
C1074 C1072 1.394 . S
C1074 C1075 1.369 . S
C1074 C1078 1.531 . S
C1075 C1074 1.369 . S
C1075 C1076 1.410 . S
C1075 C1083 1.503 . S
C1076 C1075 1.410 . S
C1076 C1077 1.392 . S
C1076 C1079 1.511 . S
C1077 C1073 1.376 . S
C1077 C1076 1.392 . S
C1077 H1089 0.929 . S
C1078 C1074 1.531 . S
C1078 H1090 0.960 . S
C1078 H1091 0.962 . S
C1078 H1092 0.960 . S
C1079 C1076 1.511 . S
C1079 H1093 0.961 . S
C1079 H1094 0.961 . S
C1079 H1095 0.961 . S
C1080 C1081 1.411 . S
C1080 C1082 1.363 . S
C1080 H1096 0.931 . S
C1081 C1080 1.411 . S
C1081 C1085 1.399 1_455 S
C1082 C1080 1.363 . S
C1082 C1083 1.370 . S
C1082 C1086 1.524 . S
C1083 C1075 1.503 . S
C1083 C1082 1.370 . S
C1083 C1084 1.403 . S
C1084 C1083 1.403 . S
C1084 C1085 1.404 1_455 S
C1084 C1087 1.539 . S
C1085 C1081 1.399 1_655 S
C1085 C1084 1.404 1_655 S
C1085 H1097 0.930 . S
C1086 C1082 1.524 . S
C1086 H1098 0.956 . S
C1086 H1099 0.961 . S
C1086 H1100 0.961 . S
C1087 C1084 1.539 . S
C1087 H1101 0.958 . S
C1087 H1102 0.961 1_455 S
C1087 H1103 0.960 . S
H1088 C1072 0.931 . S
H1089 C1077 0.929 . S
H1090 C1078 0.960 . S
H1091 C1078 0.962 . S
H1092 C1078 0.960 . S
H1093 C1079 0.961 . S
H1094 C1079 0.961 . S
H1095 C1079 0.961 . S
H1096 C1080 0.931 . S
H1097 C1085 0.930 . S
H1098 C1086 0.956 . S
H1099 C1086 0.961 . S
H1100 C1086 0.961 . S
H1101 C1087 0.958 . S
H1102 C1087 0.961 1_655 S
H1103 C1087 0.960 . S
C1104 C1105 1.391 . S
C1104 C1106 1.394 . S
C1104 H1120 0.931 . S
C1105 C1104 1.391 . S
C1105 C1109 1.376 . S
C1106 C1104 1.394 . S
C1106 C1107 1.369 . S
C1106 C1110 1.531 . S
C1107 C1106 1.369 . S
C1107 C1108 1.410 . S
C1107 C1115 1.503 . S
C1108 C1107 1.410 . S
C1108 C1109 1.392 . S
C1108 C1111 1.511 . S
C1109 C1105 1.376 . S
C1109 C1108 1.392 . S
C1109 H1121 0.929 . S
C1110 C1106 1.531 . S
C1110 H1122 0.960 . S
C1110 H1123 0.962 . S
C1110 H1124 0.960 . S
C1111 C1108 1.511 . S
C1111 H1125 0.961 . S
C1111 H1126 0.961 . S
C1111 H1127 0.961 1_545 S
C1112 C1113 1.372 . S
C1112 C1114 1.363 . S
C1112 H1128 0.931 . S
C1113 C1112 1.372 . S
C1113 C1117 1.408 1_545 S
C1114 C1112 1.363 . S
C1114 C1115 1.370 . S
C1114 C1118 1.524 . S
C1115 C1107 1.503 . S
C1115 C1114 1.370 . S
C1115 C1116 1.403 . S
C1116 C1115 1.403 . S
C1116 C1117 1.404 1_545 S
C1116 C1119 1.539 . S
C1117 C1113 1.408 1_565 S
C1117 C1116 1.404 1_565 S
C1117 H1129 0.930 . S
C1118 C1114 1.524 . S
C1118 H1130 0.956 . S
C1118 H1131 0.961 . S
C1118 H1132 0.961 . S
C1119 C1116 1.539 . S
C1119 H1133 0.958 . S
C1119 H1134 0.961 1_545 S
C1119 H1135 0.960 . S
H1120 C1104 0.931 . S
H1121 C1109 0.929 . S
H1122 C1110 0.960 . S
H1123 C1110 0.962 . S
H1124 C1110 0.960 . S
H1125 C1111 0.961 . S
H1126 C1111 0.961 . S
H1127 C1111 0.961 1_565 S
H1128 C1112 0.931 . S
H1129 C1117 0.930 . S
H1130 C1118 0.956 . S
H1131 C1118 0.961 . S
H1132 C1118 0.961 . S
H1133 C1119 0.958 . S
H1134 C1119 0.961 1_565 S
H1135 C1119 0.960 . S
C1136 C1137 1.391 . S
C1136 C1138 1.394 . S
C1136 H1152 0.931 . S
C1137 C1136 1.391 . S
C1137 C1141 1.376 . S
C1138 C1136 1.394 . S
C1138 C1139 1.369 . S
C1138 C1142 1.531 . S
C1139 C1138 1.369 . S
C1139 C1140 1.410 . S
C1139 C1147 1.503 . S
C1140 C1139 1.410 . S
C1140 C1141 1.392 . S
C1140 C1143 1.511 . S
C1141 C1137 1.376 . S
C1141 C1140 1.392 . S
C1141 H1153 0.929 . S
C1142 C1138 1.531 . S
C1142 H1154 0.960 . S
C1142 H1155 0.962 . S
C1142 H1156 0.960 . S
C1143 C1140 1.511 . S
C1143 H1157 0.961 . S
C1143 H1158 0.961 . S
C1143 H1159 0.961 . S
C1144 C1145 1.370 . S
C1144 C1146 1.363 . S
C1144 H1160 0.931 . S
C1145 C1144 1.370 . S
C1145 C1149 1.408 . S
C1146 C1144 1.363 . S
C1146 C1147 1.370 . S
C1146 C1150 1.524 . S
C1147 C1139 1.503 . S
C1147 C1146 1.370 . S
C1147 C1148 1.403 . S
C1148 C1147 1.403 . S
C1148 C1149 1.404 . S
C1148 C1151 1.539 . S
C1149 C1145 1.408 . S
C1149 C1148 1.404 . S
C1149 H1161 0.930 . S
C1150 C1146 1.524 . S
C1150 H1162 0.956 . S
C1150 H1163 0.961 . S
C1150 H1164 0.961 . S
C1151 C1148 1.539 . S
C1151 H1165 0.958 . S
C1151 H1166 0.961 . S
C1151 H1167 0.960 . S
H1152 C1136 0.931 . S
H1153 C1141 0.929 . S
H1154 C1142 0.960 . S
H1155 C1142 0.962 . S
H1156 C1142 0.960 . S
H1157 C1143 0.961 . S
H1158 C1143 0.961 . S
H1159 C1143 0.961 . S
H1160 C1144 0.931 . S
H1161 C1149 0.930 . S
H1162 C1150 0.956 . S
H1163 C1150 0.961 . S
H1164 C1150 0.961 . S
H1165 C1151 0.958 . S
H1166 C1151 0.961 . S
H1167 C1151 0.960 . S
C1168 C1169 1.391 . S
C1168 C1170 1.394 . S
C1168 H1184 0.931 . S
C1169 C1168 1.391 . S
C1169 C1173 1.376 . S
C1170 C1168 1.394 . S
C1170 C1171 1.369 . S
C1170 C1174 1.531 . S
C1171 C1170 1.369 . S
C1171 C1172 1.410 . S
C1171 C1179 1.503 . S
C1172 C1171 1.410 . S
C1172 C1173 1.392 . S
C1172 C1175 1.511 . S
C1173 C1169 1.376 . S
C1173 C1172 1.392 . S
C1173 H1185 0.929 . S
C1174 C1170 1.531 . S
C1174 H1186 0.960 . S
C1174 H1187 0.962 . S
C1174 H1188 0.960 . S
C1175 C1172 1.511 . S
C1175 H1189 0.961 . S
C1175 H1190 0.961 . S
C1175 H1191 0.961 . S
C1176 C1177 1.370 . S
C1176 C1178 1.363 . S
C1176 H1192 0.931 . S
C1177 C1176 1.370 . S
C1177 C1181 1.408 . S
C1178 C1176 1.363 . S
C1178 C1179 1.370 . S
C1178 C1182 1.524 . S
C1179 C1171 1.503 . S
C1179 C1178 1.370 . S
C1179 C1180 1.403 . S
C1180 C1179 1.403 . S
C1180 C1181 1.404 . S
C1180 C1183 1.539 . S
C1181 C1177 1.408 . S
C1181 C1180 1.404 . S
C1181 H1193 0.930 . S
C1182 C1178 1.524 . S
C1182 H1194 0.956 . S
C1182 H1195 0.961 . S
C1182 H1196 0.961 . S
C1183 C1180 1.539 . S
C1183 H1197 0.958 . S
C1183 H1198 0.961 . S
C1183 H1199 0.960 . S
H1184 C1168 0.931 . S
H1185 C1173 0.929 . S
H1186 C1174 0.960 . S
H1187 C1174 0.962 . S
H1188 C1174 0.960 . S
H1189 C1175 0.961 . S
H1190 C1175 0.961 . S
H1191 C1175 0.961 . S
H1192 C1176 0.931 . S
H1193 C1181 0.930 . S
H1194 C1182 0.956 . S
H1195 C1182 0.961 . S
H1196 C1182 0.961 . S
H1197 C1183 0.958 . S
H1198 C1183 0.961 . S
H1199 C1183 0.960 . S
C1200 C1201 1.391 . S
C1200 C1202 1.394 . S
C1200 H1216 0.931 . S
C1201 C1200 1.391 . S
C1201 C1205 1.376 . S
C1202 C1200 1.394 . S
C1202 C1203 1.369 . S
C1202 C1206 1.531 . S
C1203 C1202 1.369 . S
C1203 C1204 1.410 . S
C1203 C1211 1.503 . S
C1204 C1203 1.410 . S
C1204 C1205 1.392 . S
C1204 C1207 1.511 . S
C1205 C1201 1.376 . S
C1205 C1204 1.392 . S
C1205 H1217 0.929 . S
C1206 C1202 1.531 . S
C1206 H1218 0.960 . S
C1206 H1219 0.962 1_655 S
C1206 H1220 0.960 . S
C1207 C1204 1.511 . S
C1207 H1221 0.961 . S
C1207 H1222 0.961 . S
C1207 H1223 0.961 . S
C1208 C1209 1.370 . S
C1208 C1210 1.363 1_455 S
C1208 H1224 0.931 . S
C1209 C1208 1.370 . S
C1209 C1213 1.408 1_455 S
C1210 C1208 1.363 1_655 S
C1210 C1211 1.370 . S
C1210 C1214 1.524 1_556 S
C1211 C1203 1.503 . S
C1211 C1210 1.370 . S
C1211 C1212 1.403 . S
C1212 C1211 1.403 . S
C1212 C1213 1.404 . S
C1212 C1215 1.539 . S
C1213 C1209 1.408 1_655 S
C1213 C1212 1.404 . S
C1213 H1225 0.930 . S
C1214 C1210 1.524 1_554 S
C1214 H1226 0.956 . S
C1214 H1227 0.961 . S
C1214 H1228 0.961 . S
C1215 C1212 1.539 . S
C1215 H1229 0.958 . S
C1215 H1230 0.961 . S
C1215 H1231 0.960 . S
H1216 C1200 0.931 . S
H1217 C1205 0.929 . S
H1218 C1206 0.960 . S
H1219 C1206 0.962 1_455 S
H1220 C1206 0.960 . S
H1221 C1207 0.961 . S
H1222 C1207 0.961 . S
H1223 C1207 0.961 . S
H1224 C1208 0.931 . S
H1225 C1213 0.930 . S
H1226 C1214 0.956 . S
H1227 C1214 0.961 . S
H1228 C1214 0.961 . S
H1229 C1215 0.958 . S
H1230 C1215 0.961 . S
H1231 C1215 0.960 . S
C1232 C1233 1.391 1_554 S
C1232 C1234 1.394 . S
C1232 H1248 0.931 . S
C1233 C1232 1.391 1_556 S
C1233 C1237 1.376 . S
C1234 C1232 1.394 . S
C1234 C1235 1.369 1_554 S
C1234 C1238 1.531 . S
C1235 C1234 1.369 1_556 S
C1235 C1236 1.410 . S
C1235 C1243 1.503 . S
C1236 C1235 1.410 . S
C1236 C1237 1.392 . S
C1236 C1239 1.511 . S
C1237 C1233 1.376 . S
C1237 C1236 1.392 . S
C1237 H1249 0.929 . S
C1238 C1234 1.531 . S
C1238 H1250 0.960 . S
C1238 H1251 0.962 . S
C1238 H1252 0.960 . S
C1239 C1236 1.511 . S
C1239 H1253 0.961 . S
C1239 H1254 0.961 . S
C1239 H1255 0.961 . S
C1240 C1241 1.370 1_565 S
C1240 C1242 1.363 . S
C1240 H1256 0.931 . S
C1241 C1240 1.370 1_545 S
C1241 C1245 1.408 . S
C1242 C1240 1.363 . S
C1242 C1243 1.370 . S
C1242 C1246 1.524 . S
C1243 C1235 1.503 . S
C1243 C1242 1.370 . S
C1243 C1244 1.403 1_565 S
C1244 C1243 1.403 1_545 S
C1244 C1245 1.404 . S
C1244 C1247 1.539 . S
C1245 C1241 1.408 . S
C1245 C1244 1.404 . S
C1245 H1257 0.930 . S
C1246 C1242 1.524 . S
C1246 H1258 0.956 . S
C1246 H1259 0.961 . S
C1246 H1260 0.961 . S
C1247 C1244 1.539 . S
C1247 H1261 0.958 . S
C1247 H1262 0.961 . S
C1247 H1263 0.960 . S
H1248 C1232 0.931 . S
H1249 C1237 0.929 . S
H1250 C1238 0.960 . S
H1251 C1238 0.962 . S
H1252 C1238 0.960 . S
H1253 C1239 0.961 . S
H1254 C1239 0.961 . S
H1255 C1239 0.961 . S
H1256 C1240 0.931 . S
H1257 C1245 0.930 . S
H1258 C1246 0.956 . S
H1259 C1246 0.961 . S
H1260 C1246 0.961 . S
H1261 C1247 0.958 . S
H1262 C1247 0.961 . S
H1263 C1247 0.960 . S
C1264 C1265 1.391 1_554 S
C1264 C1266 1.394 1_554 S
C1264 H1280 0.931 . S
C1265 C1264 1.391 1_556 S
C1265 C1269 1.376 . S
C1266 C1264 1.394 1_556 S
C1266 C1267 1.369 . S
C1266 C1270 1.531 1_556 S
C1267 C1266 1.369 . S
C1267 C1268 1.410 . S
C1267 C1275 1.503 . S
C1268 C1267 1.410 . S
C1268 C1269 1.392 . S
C1268 C1271 1.511 . S
C1269 C1265 1.376 . S
C1269 C1268 1.392 . S
C1269 H1281 0.929 . S
C1270 C1266 1.531 1_554 S
C1270 H1282 0.960 . S
C1270 H1283 0.962 1_554 S
C1270 H1284 0.960 . S
C1271 C1268 1.511 . S
C1271 H1285 0.961 . S
C1271 H1286 0.961 . S
C1271 H1287 0.961 . S
C1272 C1273 1.370 . S
C1272 C1274 1.363 . S
C1272 H1288 0.931 . S
C1273 C1272 1.370 . S
C1273 C1277 1.408 . S
C1274 C1272 1.363 . S
C1274 C1275 1.370 . S
C1274 C1278 1.524 . S
C1275 C1267 1.503 . S
C1275 C1274 1.370 . S
C1275 C1276 1.403 . S
C1276 C1275 1.403 . S
C1276 C1277 1.404 . S
C1276 C1279 1.539 1_556 S
C1277 C1273 1.408 . S
C1277 C1276 1.404 . S
C1277 H1289 0.930 . S
C1278 C1274 1.524 . S
C1278 H1290 0.956 . S
C1278 H1291 0.961 . S
C1278 H1292 0.961 . S
C1279 C1276 1.539 1_554 S
C1279 H1293 0.958 . S
C1279 H1294 0.961 . S
C1279 H1295 0.960 . S
H1280 C1264 0.931 . S
H1281 C1269 0.929 . S
H1282 C1270 0.960 . S
H1283 C1270 0.962 1_556 S
H1284 C1270 0.960 . S
H1285 C1271 0.961 . S
H1286 C1271 0.961 . S
H1287 C1271 0.961 . S
H1288 C1272 0.931 . S
H1289 C1277 0.930 . S
H1290 C1278 0.956 . S
H1291 C1278 0.961 . S
H1292 C1278 0.961 . S
H1293 C1279 0.958 . S
H1294 C1279 0.961 . S
H1295 C1279 0.960 . S
C1296 C1297 1.391 . S
C1296 C1298 1.394 . S
C1296 H1312 0.931 . S
C1297 C1296 1.391 . S
C1297 C1301 1.376 . S
C1298 C1296 1.394 . S
C1298 C1299 1.369 . S
C1298 C1302 1.531 . S
C1299 C1298 1.369 . S
C1299 C1300 1.410 . S
C1299 C1307 1.503 . S
C1300 C1299 1.410 . S
C1300 C1301 1.392 . S
C1300 C1303 1.511 . S
C1301 C1297 1.376 . S
C1301 C1300 1.392 . S
C1301 H1313 0.929 . S
C1302 C1298 1.531 . S
C1302 H1314 0.960 . S
C1302 H1315 0.962 . S
C1302 H1316 0.960 . S
C1303 C1300 1.511 . S
C1303 H1317 0.961 . S
C1303 H1318 0.961 . S
C1303 H1319 0.961 . S
C1304 C1305 1.370 . S
C1304 C1306 1.363 . S
C1304 H1320 0.931 . S
C1305 C1304 1.370 . S
C1305 C1309 1.408 . S
C1306 C1304 1.363 . S
C1306 C1307 1.370 . S
C1306 C1310 1.524 1_556 S
C1307 C1299 1.503 . S
C1307 C1306 1.370 . S
C1307 C1308 1.403 . S
C1308 C1307 1.403 . S
C1308 C1309 1.404 . S
C1308 C1311 1.539 . S
C1309 C1305 1.408 . S
C1309 C1308 1.404 . S
C1309 H1321 0.930 . S
C1310 C1306 1.524 1_554 S
C1310 H1322 0.956 . S
C1310 H1323 0.961 . S
C1310 H1324 0.961 . S
C1311 C1308 1.539 . S
C1311 H1325 0.958 . S
C1311 H1326 0.961 . S
C1311 H1327 0.960 . S
H1312 C1296 0.931 . S
H1313 C1301 0.929 . S
H1314 C1302 0.960 . S
H1315 C1302 0.962 . S
H1316 C1302 0.960 . S
H1317 C1303 0.961 . S
H1318 C1303 0.961 . S
H1319 C1303 0.961 . S
H1320 C1304 0.931 . S
H1321 C1309 0.930 . S
H1322 C1310 0.956 . S
H1323 C1310 0.961 . S
H1324 C1310 0.961 . S
H1325 C1311 0.958 . S
H1326 C1311 0.961 . S
H1327 C1311 0.960 . S
C1328 C1329 1.391 . S
C1328 C1330 1.394 . S
C1328 H1344 0.931 . S
C1329 C1328 1.391 . S
C1329 C1333 1.376 . S
C1330 C1328 1.394 . S
C1330 C1331 1.369 . S
C1330 C1334 1.531 . S
C1331 C1330 1.369 . S
C1331 C1332 1.410 . S
C1331 C1339 1.503 . S
C1332 C1331 1.410 . S
C1332 C1333 1.392 . S
C1332 C1335 1.511 . S
C1333 C1329 1.376 . S
C1333 C1332 1.392 . S
C1333 H1345 0.929 . S
C1334 C1330 1.531 . S
C1334 H1346 0.960 . S
C1334 H1347 0.962 . S
C1334 H1348 0.960 . S
C1335 C1332 1.511 . S
C1335 H1349 0.961 . S
C1335 H1350 0.961 . S
C1335 H1351 0.961 . S
C1336 C1337 1.370 . S
C1336 C1338 1.363 . S
C1336 H1352 0.931 . S
C1337 C1336 1.370 . S
C1337 C1341 1.408 . S
C1338 C1336 1.363 . S
C1338 C1339 1.370 . S
C1338 C1342 1.524 . S
C1339 C1331 1.503 . S
C1339 C1338 1.370 . S
C1339 C1340 1.403 . S
C1340 C1339 1.403 . S
C1340 C1341 1.404 . S
C1340 C1343 1.539 1_455 S
C1341 C1337 1.408 . S
C1341 C1340 1.404 . S
C1341 H1353 0.925 1_455 S
C1342 C1338 1.524 . S
C1342 H1354 0.956 . S
C1342 H1355 0.961 . S
C1342 H1356 0.961 . S
C1343 C1340 1.539 1_655 S
C1343 H1357 0.958 . S
C1343 H1358 0.961 . S
C1343 H1359 0.960 1_655 S
H1344 C1328 0.931 . S
H1345 C1333 0.929 . S
H1346 C1334 0.960 . S
H1347 C1334 0.962 . S
H1348 C1334 0.960 . S
H1349 C1335 0.961 . S
H1350 C1335 0.961 . S
H1351 C1335 0.961 . S
H1352 C1336 0.931 . S
H1353 C1341 0.925 1_655 S
H1354 C1342 0.956 . S
H1355 C1342 0.961 . S
H1356 C1342 0.961 . S
H1357 C1343 0.958 . S
H1358 C1343 0.961 . S
H1359 C1343 0.960 1_455 S
C1360 C1361 1.391 . S
C1360 C1362 1.394 . S
C1360 H1376 0.931 . S
C1361 C1360 1.391 . S
C1361 C1365 1.376 . S
C1362 C1360 1.394 . S
C1362 C1363 1.369 . S
C1362 C1366 1.531 . S
C1363 C1362 1.369 . S
C1363 C1364 1.410 . S
C1363 C1371 1.503 . S
C1364 C1363 1.410 . S
C1364 C1365 1.392 . S
C1364 C1367 1.511 . S
C1365 C1361 1.376 . S
C1365 C1364 1.392 . S
C1365 H1377 0.929 . S
C1366 C1362 1.531 . S
C1366 H1378 0.960 . S
C1366 H1379 0.962 . S
C1366 H1380 0.960 . S
C1367 C1364 1.511 . S
C1367 H1381 0.961 . S
C1367 H1382 0.961 . S
C1367 H1383 0.961 . S
C1368 C1369 1.370 . S
C1368 C1370 1.363 . S
C1368 H1384 0.931 . S
C1369 C1368 1.370 . S
C1369 C1373 1.408 . S
C1370 C1368 1.363 . S
C1370 C1371 1.370 . S
C1370 C1374 1.524 . S
C1371 C1363 1.503 . S
C1371 C1370 1.370 . S
C1371 C1372 1.403 . S
C1372 C1371 1.403 . S
C1372 C1373 1.404 . S
C1372 C1375 1.539 1_545 S
C1373 C1369 1.408 . S
C1373 C1372 1.404 . S
C1373 H1385 0.930 1_545 S
C1374 C1370 1.524 . S
C1374 H1386 0.956 . S
C1374 H1387 0.961 . S
C1374 H1388 0.961 . S
C1375 C1372 1.539 1_565 S
C1375 H1389 0.958 . S
C1375 H1390 0.961 . S
C1375 H1391 0.960 1_565 S
H1376 C1360 0.931 . S
H1377 C1365 0.929 . S
H1378 C1366 0.960 . S
H1379 C1366 0.962 . S
H1380 C1366 0.960 . S
H1381 C1367 0.961 . S
H1382 C1367 0.961 . S
H1383 C1367 0.961 . S
H1384 C1368 0.931 . S
H1385 C1373 0.930 1_565 S
H1386 C1374 0.956 . S
H1387 C1374 0.961 . S
H1388 C1374 0.961 . S
H1389 C1375 0.958 . S
H1390 C1375 0.961 . S
H1391 C1375 0.960 1_545 S
C1392 C1393 1.391 . S
C1392 C1394 1.394 . S
C1392 H1408 0.931 . S
C1393 C1392 1.391 . S
C1393 C1397 1.376 . S
C1394 C1392 1.394 . S
C1394 C1395 1.369 . S
C1394 C1398 1.531 . S
C1395 C1394 1.369 . S
C1395 C1396 1.410 . S
C1395 C1403 1.503 . S
C1396 C1395 1.410 . S
C1396 C1397 1.392 . S
C1396 C1399 1.511 . S
C1397 C1393 1.376 . S
C1397 C1396 1.392 . S
C1397 H1409 0.929 . S
C1398 C1394 1.531 . S
C1398 H1410 0.960 . S
C1398 H1411 0.962 . S
C1398 H1412 0.960 . S
C1399 C1396 1.511 . S
C1399 H1413 0.961 . S
C1399 H1414 0.961 . S
C1399 H1415 0.961 . S
C1400 C1401 1.370 . S
C1400 C1402 1.363 . S
C1400 H1416 0.931 . S
C1401 C1400 1.370 . S
C1401 C1405 1.408 . S
C1402 C1400 1.363 . S
C1402 C1403 1.370 . S
C1402 C1406 1.524 . S
C1403 C1395 1.503 . S
C1403 C1402 1.370 . S
C1403 C1404 1.403 . S
C1404 C1403 1.403 . S
C1404 C1405 1.404 . S
C1404 C1407 1.539 . S
C1405 C1401 1.408 . S
C1405 C1404 1.404 . S
C1405 H1417 0.930 . S
C1406 C1402 1.524 . S
C1406 H1418 0.956 . S
C1406 H1419 0.961 . S
C1406 H1420 0.961 . S
C1407 C1404 1.539 . S
C1407 H1421 0.958 . S
C1407 H1422 0.961 . S
C1407 H1423 0.960 . S
H1408 C1392 0.931 . S
H1409 C1397 0.929 . S
H1410 C1398 0.960 . S
H1411 C1398 0.962 . S
H1412 C1398 0.960 . S
H1413 C1399 0.961 . S
H1414 C1399 0.961 . S
H1415 C1399 0.961 . S
H1416 C1400 0.931 . S
H1417 C1405 0.930 . S
H1418 C1406 0.956 . S
H1419 C1406 0.961 . S
H1420 C1406 0.961 . S
H1421 C1407 0.958 . S
H1422 C1407 0.961 . S
H1423 C1407 0.960 . S
C1424 C1425 1.391 . S
C1424 C1426 1.394 . S
C1424 H1440 0.931 . S
C1425 C1424 1.391 . S
C1425 C1429 1.376 . S
C1426 C1424 1.394 . S
C1426 C1427 1.369 . S
C1426 C1430 1.531 . S
C1427 C1426 1.369 . S
C1427 C1428 1.410 . S
C1427 C1435 1.503 . S
C1428 C1427 1.410 . S
C1428 C1429 1.392 . S
C1428 C1431 1.511 . S
C1429 C1425 1.376 . S
C1429 C1428 1.392 . S
C1429 H1441 0.929 . S
C1430 C1426 1.531 . S
C1430 H1442 0.960 . S
C1430 H1443 0.962 . S
C1430 H1444 0.960 . S
C1431 C1428 1.511 . S
C1431 H1445 0.961 . S
C1431 H1446 0.961 . S
C1431 H1447 0.961 . S
C1432 C1433 1.370 . S
C1432 C1434 1.363 . S
C1432 H1448 0.931 . S
C1433 C1432 1.370 . S
C1433 C1437 1.408 . S
C1434 C1432 1.363 . S
C1434 C1435 1.370 . S
C1434 C1438 1.524 . S
C1435 C1427 1.503 . S
C1435 C1434 1.370 . S
C1435 C1436 1.403 . S
C1436 C1435 1.403 . S
C1436 C1437 1.404 . S
C1436 C1439 1.539 . S
C1437 C1433 1.408 . S
C1437 C1436 1.404 . S
C1437 H1449 0.930 . S
C1438 C1434 1.524 . S
C1438 H1450 0.956 . S
C1438 H1451 0.961 . S
C1438 H1452 0.961 . S
C1439 C1436 1.539 . S
C1439 H1453 0.958 . S
C1439 H1454 0.961 . S
C1439 H1455 0.960 . S
H1440 C1424 0.931 . S
H1441 C1429 0.929 . S
H1442 C1430 0.960 . S
H1443 C1430 0.962 . S
H1444 C1430 0.960 . S
H1445 C1431 0.961 . S
H1446 C1431 0.961 . S
H1447 C1431 0.961 . S
H1448 C1432 0.931 . S
H1449 C1437 0.930 . S
H1450 C1438 0.956 . S
H1451 C1438 0.961 . S
H1452 C1438 0.961 . S
H1453 C1439 0.958 . S
H1454 C1439 0.961 . S
H1455 C1439 0.960 . S
C1456 C1457 1.391 . S
C1456 C1458 1.394 . S
C1456 H1472 0.931 . S
C1457 C1456 1.391 . S
C1457 C1461 1.376 . S
C1458 C1456 1.394 . S
C1458 C1459 1.369 . S
C1458 C1462 1.531 . S
C1459 C1458 1.369 . S
C1459 C1460 1.410 . S
C1459 C1467 1.503 . S
C1460 C1459 1.410 . S
C1460 C1461 1.392 . S
C1460 C1463 1.511 . S
C1461 C1457 1.376 . S
C1461 C1460 1.392 . S
C1461 H1473 0.929 . S
C1462 C1458 1.531 . S
C1462 H1474 0.960 . S
C1462 H1475 0.962 1_655 S
C1462 H1476 0.960 . S
C1463 C1460 1.511 . S
C1463 H1477 0.961 . S
C1463 H1478 0.961 . S
C1463 H1479 0.961 . S
C1464 C1465 1.370 . S
C1464 C1466 1.363 . S
C1464 H1480 0.931 . S
C1465 C1464 1.370 . S
C1465 C1469 1.408 . S
C1466 C1464 1.363 . S
C1466 C1467 1.370 . S
C1466 C1470 1.524 . S
C1467 C1459 1.503 . S
C1467 C1466 1.370 . S
C1467 C1468 1.403 . S
C1468 C1467 1.403 . S
C1468 C1469 1.404 . S
C1468 C1471 1.539 . S
C1469 C1465 1.408 . S
C1469 C1468 1.404 . S
C1469 H1481 0.930 . S
C1470 C1466 1.524 . S
C1470 H1482 0.956 . S
C1470 H1483 0.961 . S
C1470 H1484 0.961 . S
C1471 C1468 1.539 . S
C1471 H1485 0.958 . S
C1471 H1486 0.961 . S
C1471 H1487 0.960 . S
H1472 C1456 0.931 . S
H1473 C1461 0.929 . S
H1474 C1462 0.960 . S
H1475 C1462 0.962 1_455 S
H1476 C1462 0.960 . S
H1477 C1463 0.961 . S
H1478 C1463 0.961 . S
H1479 C1463 0.961 . S
H1480 C1464 0.931 . S
H1481 C1469 0.930 . S
H1482 C1470 0.956 . S
H1483 C1470 0.961 . S
H1484 C1470 0.961 . S
H1485 C1471 0.958 . S
H1486 C1471 0.961 . S
H1487 C1471 0.960 . S
C1488 C1489 1.391 . S
C1488 C1490 1.394 . S
C1488 H1504 0.931 . S
C1489 C1488 1.391 . S
C1489 C1493 1.376 . S
C1490 C1488 1.394 . S
C1490 C1491 1.369 . S
C1490 C1494 1.531 . S
C1491 C1490 1.369 . S
C1491 C1492 1.410 . S
C1491 C1499 1.503 . S
C1492 C1491 1.410 . S
C1492 C1493 1.392 . S
C1492 C1495 1.511 . S
C1493 C1489 1.376 . S
C1493 C1492 1.392 . S
C1493 H1505 0.929 . S
C1494 C1490 1.531 . S
C1494 H1506 0.960 . S
C1494 H1507 0.962 . S
C1494 H1508 0.960 . S
C1495 C1492 1.511 . S
C1495 H1509 0.961 . S
C1495 H1510 0.961 . S
C1495 H1511 0.961 1_565 S
C1496 C1497 1.370 . S
C1496 C1498 1.363 . S
C1496 H1512 0.931 . S
C1497 C1496 1.370 . S
C1497 C1501 1.408 . S
C1498 C1496 1.363 . S
C1498 C1499 1.370 . S
C1498 C1502 1.524 . S
C1499 C1491 1.503 . S
C1499 C1498 1.370 . S
C1499 C1500 1.403 . S
C1500 C1499 1.403 . S
C1500 C1501 1.404 . S
C1500 C1503 1.539 1_565 S
C1501 C1497 1.408 . S
C1501 C1500 1.404 . S
C1501 H1513 0.930 1_565 S
C1502 C1498 1.524 . S
C1502 H1514 0.956 . S
C1502 H1515 0.961 . S
C1502 H1516 0.961 . S
C1503 C1500 1.539 1_545 S
C1503 H1517 0.958 1_545 S
C1503 H1518 0.961 . S
C1503 H1519 0.960 . S
H1504 C1488 0.931 . S
H1505 C1493 0.929 . S
H1506 C1494 0.960 . S
H1507 C1494 0.962 . S
H1508 C1494 0.960 . S
H1509 C1495 0.961 . S
H1510 C1495 0.961 . S
H1511 C1495 0.961 1_545 S
H1512 C1496 0.931 . S
H1513 C1501 0.930 1_545 S
H1514 C1502 0.956 . S
H1515 C1502 0.961 . S
H1516 C1502 0.961 . S
H1517 C1503 0.958 1_565 S
H1518 C1503 0.961 . S
H1519 C1503 0.960 . S
C1520 C1521 1.391 . S
C1520 C1522 1.394 . S
C1520 H1536 0.931 . S
C1521 C1520 1.391 . S
C1521 C1525 1.376 . S
C1522 C1520 1.394 . S
C1522 C1523 1.369 . S
C1522 C1526 1.531 . S
C1523 C1522 1.369 . S
C1523 C1524 1.410 . S
C1523 C1531 1.503 . S
C1524 C1523 1.410 . S
C1524 C1525 1.392 . S
C1524 C1527 1.511 . S
C1525 C1521 1.376 . S
C1525 C1524 1.392 . S
C1525 H1537 0.929 . S
C1526 C1522 1.531 . S
C1526 H1538 0.960 . S
C1526 H1539 0.962 . S
C1526 H1540 0.960 . S
C1527 C1524 1.511 . S
C1527 H1541 0.961 . S
C1527 H1542 0.961 . S
C1527 H1543 0.961 . S
C1528 C1529 1.370 . S
C1528 C1530 1.363 . S
C1528 H1544 0.931 . S
C1529 C1528 1.370 . S
C1529 C1533 1.408 . S
C1530 C1528 1.363 . S
C1530 C1531 1.370 . S
C1530 C1534 1.524 . S
C1531 C1523 1.503 . S
C1531 C1530 1.370 . S
C1531 C1532 1.403 . S
C1532 C1531 1.403 . S
C1532 C1533 1.404 . S
C1532 C1535 1.539 . S
C1533 C1529 1.408 . S
C1533 C1532 1.404 . S
C1533 H1545 0.930 . S
C1534 C1530 1.524 . S
C1534 H1546 0.956 . S
C1534 H1547 0.961 . S
C1534 H1548 0.961 . S
C1535 C1532 1.539 . S
C1535 H1549 0.958 . S
C1535 H1550 0.961 . S
C1535 H1551 0.960 . S
H1536 C1520 0.931 . S
H1537 C1525 0.929 . S
H1538 C1526 0.960 . S
H1539 C1526 0.962 . S
H1540 C1526 0.960 . S
H1541 C1527 0.961 . S
H1542 C1527 0.961 . S
H1543 C1527 0.961 . S
H1544 C1528 0.931 . S
H1545 C1533 0.930 . S
H1546 C1534 0.956 . S
H1547 C1534 0.961 . S
H1548 C1534 0.961 . S
H1549 C1535 0.958 . S
H1550 C1535 0.961 . S
H1551 C1535 0.960 . S
C1552 C1553 1.391 . S
C1552 C1554 1.394 . S
C1552 H1568 0.931 . S
C1553 C1552 1.391 . S
C1553 C1557 1.376 . S
C1554 C1552 1.394 . S
C1554 C1555 1.369 . S
C1554 C1558 1.531 . S
C1555 C1554 1.369 . S
C1555 C1556 1.410 . S
C1555 C1563 1.503 . S
C1556 C1555 1.410 . S
C1556 C1557 1.392 . S
C1556 C1559 1.511 . S
C1557 C1553 1.376 . S
C1557 C1556 1.392 . S
C1557 H1569 0.929 . S
C1558 C1554 1.531 . S
C1558 H1570 0.960 . S
C1558 H1571 0.962 . S
C1558 H1572 0.960 . S
C1559 C1556 1.511 . S
C1559 H1573 0.961 . S
C1559 H1574 0.961 . S
C1559 H1575 0.961 . S
C1560 C1561 1.370 . S
C1560 C1562 1.363 . S
C1560 H1576 0.931 . S
C1561 C1560 1.370 . S
C1561 C1565 1.408 . S
C1562 C1560 1.363 . S
C1562 C1563 1.370 . S
C1562 C1566 1.524 . S
C1563 C1555 1.503 . S
C1563 C1562 1.370 . S
C1563 C1564 1.403 . S
C1564 C1563 1.403 . S
C1564 C1565 1.404 . S
C1564 C1567 1.539 . S
C1565 C1561 1.408 . S
C1565 C1564 1.404 . S
C1565 H1577 0.930 . S
C1566 C1562 1.524 . S
C1566 H1578 0.956 . S
C1566 H1579 0.961 . S
C1566 H1580 0.961 . S
C1567 C1564 1.539 . S
C1567 H1581 0.958 . S
C1567 H1582 0.961 . S
C1567 H1583 0.960 . S
H1568 C1552 0.931 . S
H1569 C1557 0.929 . S
H1570 C1558 0.960 . S
H1571 C1558 0.962 . S
H1572 C1558 0.960 . S
H1573 C1559 0.961 . S
H1574 C1559 0.961 . S
H1575 C1559 0.961 . S
H1576 C1560 0.931 . S
H1577 C1565 0.930 . S
H1578 C1566 0.956 . S
H1579 C1566 0.961 . S
H1580 C1566 0.961 . S
H1581 C1567 0.958 . S
H1582 C1567 0.961 . S
H1583 C1567 0.960 . S
C817 C391 2.404 . S
C825 C555 2.331 . S
C857 C639 2.351 . S
C849 C451 2.417 . S
C889 C715 2.273 . S
C881 C241 2.144 . S
C921 C799 2.236 . S
C913 C331 2.197 . S
C953 C546 2.331 1_565 S
C945 C121 2.146 . S
C977 C211 2.309 . S
C985 C630 2.362 . S
C1009 C31 2.437 . S
C1017 C704 2.270 . S
C1041 C91 2.270 . S
C1049 C788 2.234 . S
C1081 C543 0.585 1_455 S
C1073 C301 0.699 . S
C1113 C627 0.566 1_545 S
C1105 C380 0.552 . S
C1145 C720 0.598 . S
C1137 C440 0.613 . S
C1169 C260 0.752 . S
C1177 C804 0.638 . S
C1201 C61 0.749 1_556 S
C1209 C552 0.650 . S
C1241 C636 0.562 . S
C1233 C140 0.590 1_556 S
C1273 C711 0.546 . S
C1265 C200 0.544 1_556 S
C1297 C20 0.682 . S
C1305 C795 0.642 . S
C1329 C320 2.848 . S
C1337 C536 2.894 . S
C1361 C361 2.535 . S
C1369 C620 2.858 . S
C1401 C714 2.933 . S
C1393 C421 2.441 . S
C1433 C798 2.966 . S
C1425 C271 2.715 . S
C1457 C80 2.894 . S
C1465 C547 2.911 . S
C1497 C631 2.856 . S
C1489 C151 2.894 . S
C1529 C723 2.940 . S
C1521 C181 2.326 . S
C1553 C1 2.360 . S
C1561 C807 2.971 . S
