# Generated by pormake.
# Topology ssb, (4,4)-cn, num edge types: 1
# Building blocks:
#     Node 0, Type 0, BuildingBlock: NAWXER_clean_linker_0, # of connection points: 4
#     Node 1, Type 0, BuildingBlock: NAWXER_clean_linker_0, # of connection points: 4
#     Node 2, Type 0, BuildingBlock: NAWXER_clean_linker_0, # of connection points: 4
#     Node 3, Type 0, BuildingBlock: NAWXER_clean_linker_0, # of connection points: 4
#     Node 4, Type 0, BuildingBlock: NAWXER_clean_linker_0, # of connection points: 4
#     Node 5, Type 0, BuildingBlock: NAWXER_clean_linker_0, # of connection points: 4
#     Node 6, Type 0, BuildingBlock: NAWXER_clean_linker_0, # of connection points: 4
#     Node 7, Type 0, BuildingBlock: NAWXER_clean_linker_0, # of connection points: 4
#     Node 8, Type 1, BuildingBlock: KOZSID_clean_sbu_0, # of connection points: 4
#     Node 9, Type 1, BuildingBlock: KOZSID_clean_sbu_0, # of connection points: 4
#     Node 10, Type 1, BuildingBlock: KOZSID_clean_sbu_0, # of connection points: 4
#     Node 11, Type 1, BuildingBlock: KOZSID_clean_sbu_0, # of connection points: 4
#     Node 12, Type 1, BuildingBlock: KOZSID_clean_sbu_0, # of connection points: 4
#     Node 13, Type 1, BuildingBlock: KOZSID_clean_sbu_0, # of connection points: 4
#     Node 14, Type 1, BuildingBlock: KOZSID_clean_sbu_0, # of connection points: 4
#     Node 15, Type 1, BuildingBlock: KOZSID_clean_sbu_0, # of connection points: 4
#     Edge 16, Type (0, 1), BuildingBlock: AJUNOK_clean_linker_0, # of connection points: 2
#     Edge 17, Type (0, 1), BuildingBlock: AJUNOK_clean_linker_0, # of connection points: 2
#     Edge 18, Type (0, 1), BuildingBlock: AJUNOK_clean_linker_0, # of connection points: 2
#     Edge 19, Type (0, 1), BuildingBlock: AJUNOK_clean_linker_0, # of connection points: 2
#     Edge 20, Type (0, 1), BuildingBlock: AJUNOK_clean_linker_0, # of connection points: 2
#     Edge 21, Type (0, 1), BuildingBlock: AJUNOK_clean_linker_0, # of connection points: 2
#     Edge 22, Type (0, 1), BuildingBlock: AJUNOK_clean_linker_0, # of connection points: 2
#     Edge 23, Type (0, 1), BuildingBlock: AJUNOK_clean_linker_0, # of connection points: 2
#     Edge 24, Type (0, 1), BuildingBlock: AJUNOK_clean_linker_0, # of connection points: 2
#     Edge 25, Type (0, 1), BuildingBlock: AJUNOK_clean_linker_0, # of connection points: 2
#     Edge 26, Type (0, 1), BuildingBlock: AJUNOK_clean_linker_0, # of connection points: 2
#     Edge 27, Type (0, 1), BuildingBlock: AJUNOK_clean_linker_0, # of connection points: 2
#     Edge 28, Type (0, 1), BuildingBlock: AJUNOK_clean_linker_0, # of connection points: 2
#     Edge 29, Type (0, 1), BuildingBlock: AJUNOK_clean_linker_0, # of connection points: 2
#     Edge 30, Type (0, 1), BuildingBlock: AJUNOK_clean_linker_0, # of connection points: 2
#     Edge 31, Type (0, 1), BuildingBlock: AJUNOK_clean_linker_0, # of connection points: 2
#     Edge 32, Type (0, 1), BuildingBlock: AJUNOK_clean_linker_0, # of connection points: 2
#     Edge 33, Type (0, 1), BuildingBlock: AJUNOK_clean_linker_0, # of connection points: 2
#     Edge 34, Type (0, 1), BuildingBlock: AJUNOK_clean_linker_0, # of connection points: 2
#     Edge 35, Type (0, 1), BuildingBlock: AJUNOK_clean_linker_0, # of connection points: 2
#     Edge 36, Type (0, 1), BuildingBlock: AJUNOK_clean_linker_0, # of connection points: 2
#     Edge 37, Type (0, 1), BuildingBlock: AJUNOK_clean_linker_0, # of connection points: 2
#     Edge 38, Type (0, 1), BuildingBlock: AJUNOK_clean_linker_0, # of connection points: 2
#     Edge 39, Type (0, 1), BuildingBlock: AJUNOK_clean_linker_0, # of connection points: 2
#     Edge 40, Type (0, 1), BuildingBlock: AJUNOK_clean_linker_0, # of connection points: 2
#     Edge 41, Type (0, 1), BuildingBlock: AJUNOK_clean_linker_0, # of connection points: 2
#     Edge 42, Type (0, 1), BuildingBlock: AJUNOK_clean_linker_0, # of connection points: 2
#     Edge 43, Type (0, 1), BuildingBlock: AJUNOK_clean_linker_0, # of connection points: 2
#     Edge 44, Type (0, 1), BuildingBlock: AJUNOK_clean_linker_0, # of connection points: 2
#     Edge 45, Type (0, 1), BuildingBlock: AJUNOK_clean_linker_0, # of connection points: 2
#     Edge 46, Type (0, 1), BuildingBlock: AJUNOK_clean_linker_0, # of connection points: 2
#     Edge 47, Type (0, 1), BuildingBlock: AJUNOK_clean_linker_0, # of connection points: 2
# Relax obj value: 0.004
# Max RMSD: 0.037
# Mean RMSD: 0.023
data_MOF--net-ssb--node1-KOZSID_clean_sbu_0--node2-NAWXER_clean_linker_0--edge1-AJUNOK_clean_linker_0
_symmetry_space_group_name_H-M    P1
_symmetry_Int_Tables_number       1
_symmetry_cell_setting            triclinic
loop_
_symmetry_equiv_pos_as_xyz
'x, y, z'
_cell_length_a     50.441977
_cell_length_b     50.28108
_cell_length_c     37.099605
_cell_angle_alpha  92.589225
_cell_angle_beta   95.31755
_cell_angle_gamma 90.018244
loop_
_atom_site_label
_atom_site_type_symbol
_atom_site_fract_x
_atom_site_fract_y
_atom_site_fract_z
_atom_type_partial_charge
C0 C 0.32166 0.2513 0.17683 0.0
C1 C 0.34772 0.2498 0.1937 0.0
C2 C 0.29968 0.25011 0.19717 0.0
C3 C 0.30327 0.24766 0.23493 0.0
C4 C 0.35123 0.24618 0.23124 0.0
C5 C 0.32923 0.24504 0.2516 0.0
C6 C 0.28017 0.24793 0.25712 0.0
C7 C 0.28483 0.32889 0.20751 0.0
C8 C 0.26194 0.33639 0.18558 0.0
C9 C 0.28436 0.30703 0.22998 0.0
C10 C 0.26107 0.29162 0.231 0.0
C11 C 0.23841 0.32156 0.1877 0.0
C12 C 0.23799 0.29963 0.21002 0.0
C13 C 0.2602 0.26785 0.25449 0.0
C14 C 0.19576 0.24726 0.37917 0.0
C15 C 0.16979 0.25004 0.36235 0.0
C16 C 0.21764 0.24567 0.35851 0.0
C17 C 0.21397 0.24649 0.32055 0.0
C18 C 0.16623 0.2509 0.32436 0.0
C19 C 0.1881 0.24942 0.30375 0.0
C20 C 0.23693 0.24539 0.29822 0.0
C21 C 0.23109 0.16592 0.35075 0.0
C22 C 0.25461 0.15605 0.36869 0.0
C23 C 0.2317 0.18775 0.32826 0.0
C24 C 0.25573 0.20131 0.32417 0.0
C25 C 0.27876 0.16877 0.36352 0.0
C26 C 0.2793 0.19105 0.34176 0.0
C27 C 0.2568 0.22529 0.3008 0.0
H28 H 0.31827 0.25388 0.14794 0.0
H29 H 0.27985 0.25144 0.18343 0.0
H30 H 0.371 0.24417 0.2449 0.0
H31 H 0.33253 0.24269 0.28055 0.0
H32 H 0.30331 0.33978 0.20707 0.0
H33 H 0.30233 0.30226 0.24668 0.0
H34 H 0.22008 0.32706 0.17239 0.0
H35 H 0.21954 0.2887 0.21058 0.0
H36 H 0.19918 0.2467 0.40838 0.0
H37 H 0.23745 0.24397 0.37219 0.0
H38 H 0.14648 0.25243 0.31046 0.0
H39 H 0.18477 0.25019 0.27455 0.0
H40 H 0.21219 0.15634 0.35352 0.0
H41 H 0.21322 0.19374 0.3138 0.0
H42 H 0.29729 0.16168 0.37678 0.0
H43 H 0.29827 0.20047 0.33898 0.0
N44 N 0.27773 0.22772 0.2802 0.0
N45 N 0.23936 0.26548 0.27508 0.0
C46 C 0.65997 0.28503 0.22389 0.0
C47 C 0.65302 0.26348 0.19934 0.0
C48 C 0.68476 0.28578 0.24436 0.0
C49 C 0.70326 0.26516 0.24034 0.0
C50 C 0.67139 0.24273 0.19577 0.0
C51 C 0.69613 0.24349 0.21619 0.0
C52 C 0.72958 0.2653 0.26208 0.0
C53 C 0.73318 0.33386 0.19061 0.0
C54 C 0.73341 0.35884 0.20918 0.0
C55 C 0.73703 0.31074 0.20962 0.0
C56 C 0.74129 0.3122 0.24753 0.0
C57 C 0.73788 0.36029 0.24717 0.0
C58 C 0.74195 0.33708 0.26622 0.0
C59 C 0.74654 0.28778 0.26728 0.0
C60 C 0.84749 0.24133 0.33983 0.0
C61 C 0.85483 0.26154 0.36632 0.0
C62 C 0.82283 0.24202 0.31925 0.0
C63 C 0.80469 0.26265 0.32517 0.0
C64 C 0.83693 0.2825 0.37162 0.0
C65 C 0.8122 0.28313 0.3511 0.0
C66 C 0.77806 0.26314 0.30426 0.0
C67 C 0.77523 0.19053 0.37062 0.0
C68 C 0.77074 0.16652 0.35013 0.0
C69 C 0.77307 0.21477 0.35386 0.0
C70 C 0.7667 0.2153 0.31628 0.0
C71 C 0.76493 0.16705 0.31245 0.0
C72 C 0.76286 0.19129 0.29567 0.0
C73 C 0.76114 0.24063 0.29881 0.0
H74 H 0.64638 0.30148 0.22693 0.0
H75 H 0.68937 0.30241 0.26349 0.0
H76 H 0.66655 0.22578 0.17724 0.0
H77 H 0.70986 0.22719 0.21281 0.0
H78 H 0.7308 0.33221 0.16127 0.0
H79 H 0.73728 0.29175 0.19465 0.0
H80 H 0.7384 0.37936 0.26204 0.0
H81 H 0.74556 0.33852 0.2955 0.0
H82 H 0.86063 0.22472 0.33538 0.0
H83 H 0.8179 0.22631 0.29879 0.0
H84 H 0.84209 0.29846 0.39163 0.0
H85 H 0.79873 0.2994 0.35595 0.0
H86 H 0.77963 0.19054 0.39977 0.0
H87 H 0.77538 0.23307 0.37043 0.0
H88 H 0.76082 0.14881 0.29622 0.0
H89 H 0.75758 0.19135 0.26669 0.0
N90 N 0.7377 0.24257 0.27795 0.0
N91 N 0.77001 0.28597 0.28832 0.0
C92 C 0.67806 0.75441 0.16318 0.0
C93 C 0.65395 0.7477 0.17695 0.0
C94 C 0.70196 0.75515 0.18552 0.0
C95 C 0.70218 0.7497 0.22224 0.0
C96 C 0.65449 0.74165 0.21374 0.0
C97 C 0.67829 0.74323 0.23633 0.0
C98 C 0.72726 0.75153 0.24602 0.0
C99 C 0.72365 0.66877 0.19041 0.0
C100 C 0.74543 0.66145 0.17089 0.0
C101 C 0.72444 0.69195 0.2133 0.0
C102 C 0.7468 0.70904 0.21692 0.0
C103 C 0.76783 0.67849 0.17464 0.0
C104 C 0.76855 0.70175 0.19741 0.0
C105 C 0.74848 0.73347 0.24235 0.0
C106 C 0.82823 0.76905 0.3676 0.0
C107 C 0.85163 0.76302 0.35102 0.0
C108 C 0.80337 0.76802 0.34742 0.0
C109 C 0.80142 0.7618 0.30993 0.0
C110 C 0.84947 0.75572 0.31383 0.0
C111 C 0.82473 0.75534 0.29353 0.0
C112 C 0.77531 0.75974 0.28787 0.0
C113 C 0.77907 0.84398 0.33959 0.0
C114 C 0.75813 0.851 0.36089 0.0
C115 C 0.77782 0.82061 0.31697 0.0
C116 C 0.75587 0.80308 0.31544 0.0
C117 C 0.73603 0.83362 0.35888 0.0
C118 C 0.73485 0.81021 0.3364 0.0
C119 C 0.75402 0.778 0.29127 0.0
H120 H 0.67846 0.75945 0.13516 0.0
H121 H 0.72023 0.76042 0.1743 0.0
H122 H 0.63662 0.73542 0.22511 0.0
H123 H 0.67818 0.73883 0.26463 0.0
H124 H 0.70581 0.65661 0.18798 0.0
H125 H 0.70766 0.69605 0.22878 0.0
H126 H 0.78511 0.6736 0.16041 0.0
H127 H 0.78627 0.71412 0.19973 0.0
H128 H 0.8291 0.77452 0.39626 0.0
H129 H 0.78571 0.77182 0.3613 0.0
H130 H 0.86684 0.74983 0.3004 0.0
H131 H 0.82382 0.74978 0.26488 0.0
H132 H 0.79667 0.8564 0.34063 0.0
H133 H 0.79412 0.81631 0.3006 0.0
H134 H 0.71937 0.83827 0.37445 0.0
H135 H 0.71747 0.79747 0.33565 0.0
N136 N 0.7308 0.77286 0.27017 0.0
N137 N 0.77162 0.73853 0.26349 0.0
C138 C 0.33211 0.72946 0.17876 0.0
C139 C 0.33926 0.75129 0.15935 0.0
C140 C 0.30918 0.7304 0.19742 0.0
C141 C 0.29253 0.75286 0.19594 0.0
C142 C 0.32285 0.77382 0.15825 0.0
C143 C 0.29975 0.77459 0.17635 0.0
C144 C 0.26888 0.75516 0.21701 0.0
C145 C 0.25602 0.68257 0.14341 0.0
C146 C 0.2505 0.65922 0.16086 0.0
C147 C 0.25495 0.70737 0.1616 0.0
C148 C 0.24972 0.70914 0.19815 0.0
C149 C 0.24401 0.6612 0.19688 0.0
C150 C 0.24375 0.68589 0.21537 0.0
C151 C 0.24959 0.73494 0.21872 0.0
C152 C 0.16949 0.7888 0.31134 0.0
C153 C 0.1633 0.76674 0.33111 0.0
C154 C 0.18997 0.78735 0.28822 0.0
C155 C 0.20507 0.76397 0.2849 0.0
C156 C 0.17755 0.743 0.32629 0.0
C157 C 0.1982 0.74168 0.30362 0.0
C158 C 0.2275 0.76196 0.26142 0.0
C159 C 0.252 0.82909 0.34218 0.0
C160 C 0.25776 0.85321 0.32678 0.0
C161 C 0.24792 0.80589 0.3204 0.0
C162 C 0.24863 0.80666 0.28275 0.0
C163 C 0.2586 0.8539 0.28915 0.0
C164 C 0.25411 0.83079 0.26733 0.0
C165 C 0.24685 0.78209 0.25965 0.0
H166 H 0.34464 0.71197 0.18025 0.0
H167 H 0.30473 0.71375 0.21341 0.0
H168 H 0.3279 0.79085 0.14332 0.0
H169 H 0.28751 0.79229 0.17514 0.0
H170 H 0.2616 0.68173 0.1159 0.0
H171 H 0.25855 0.72507 0.14718 0.0
H172 H 0.23925 0.64362 0.21088 0.0
H173 H 0.2392 0.68677 0.24337 0.0
H174 H 0.1587 0.80729 0.31407 0.0
H175 H 0.194 0.80456 0.27305 0.0
H176 H 0.17268 0.72531 0.33996 0.0
H177 H 0.20905 0.7232 0.30106 0.0
H178 H 0.25062 0.82814 0.37105 0.0
H179 H 0.24465 0.78733 0.33307 0.0
H180 H 0.26305 0.87225 0.27667 0.0
H181 H 0.25522 0.83168 0.23837 0.0
N182 N 0.26649 0.77793 0.2374 0.0
N183 N 0.22983 0.73916 0.24092 0.0
C184 C 0.17018 0.79156 0.68354 0.0
C185 C 0.1629 0.76896 0.66114 0.0
C186 C 0.19395 0.79197 0.70619 0.0
C187 C 0.21089 0.76979 0.70681 0.0
C188 C 0.17987 0.7468 0.66176 0.0
C189 C 0.20357 0.74718 0.68453 0.0
C190 C 0.23494 0.76902 0.73283 0.0
C191 C 0.25836 0.8315 0.65337 0.0
C192 C 0.25217 0.85743 0.66643 0.0
C193 C 0.25866 0.80955 0.67578 0.0
C194 C 0.25363 0.81278 0.71236 0.0
C195 C 0.24716 0.86044 0.70329 0.0
C196 C 0.24822 0.83858 0.72592 0.0
C197 C 0.2545 0.78942 0.73642 0.0
C198 C 0.34311 0.73733 0.82697 0.0
C199 C 0.3525 0.7586 0.85057 0.0
C200 C 0.31917 0.73949 0.80516 0.0
C201 C 0.30405 0.76292 0.80663 0.0
C202 C 0.33761 0.78222 0.85157 0.0
C203 C 0.31366 0.78441 0.82962 0.0
C204 C 0.27882 0.76533 0.78316 0.0
C205 C 0.26443 0.70385 0.86538 0.0
C206 C 0.25897 0.67779 0.85094 0.0
C207 C 0.26445 0.72562 0.84274 0.0
C208 C 0.25914 0.72208 0.80483 0.0
C209 C 0.25365 0.67426 0.81304 0.0
C210 C 0.25343 0.69609 0.79041 0.0
C211 C 0.25877 0.74534 0.78039 0.0
H212 H 0.15737 0.80884 0.68372 0.0
H213 H 0.19863 0.80931 0.72402 0.0
H214 H 0.17449 0.72893 0.64532 0.0
H215 H 0.21611 0.72968 0.68499 0.0
H216 H 0.26359 0.82804 0.62595 0.0
H217 H 0.26332 0.79001 0.66462 0.0
H218 H 0.24214 0.87975 0.71478 0.0
H219 H 0.24432 0.84177 0.75401 0.0
H220 H 0.35426 0.71897 0.8255 0.0
H221 H 0.31259 0.72289 0.7869 0.0
H222 H 0.34468 0.79913 0.86893 0.0
H223 H 0.30254 0.8028 0.83079 0.0
H224 H 0.26894 0.70744 0.89429 0.0
H225 H 0.26841 0.74533 0.85504 0.0
H226 H 0.24925 0.65459 0.80086 0.0
H227 H 0.24907 0.69257 0.76145 0.0
N228 N 0.23782 0.74793 0.75486 0.0
N229 N 0.27578 0.78664 0.76145 0.0
C230 C 0.33971 0.27974 0.86532 0.0
C231 C 0.34468 0.2606 0.89157 0.0
C232 C 0.31545 0.28 0.84379 0.0
C233 C 0.29544 0.26129 0.8482 0.0
C234 C 0.3247 0.24179 0.8959 0.0
C235 C 0.30039 0.24206 0.87429 0.0
C236 C 0.27035 0.26033 0.82373 0.0
C237 C 0.25519 0.33806 0.88781 0.0
C238 C 0.26482 0.35954 0.86969 0.0
C239 C 0.25296 0.31277 0.87088 0.0
C240 C 0.25986 0.30873 0.83542 0.0
C241 C 0.27275 0.35502 0.83458 0.0
C242 C 0.2697 0.32988 0.81726 0.0
C243 C 0.25462 0.28296 0.81634 0.0
C244 C 0.15828 0.23549 0.72598 0.0
C245 C 0.15317 0.25587 0.70155 0.0
C246 C 0.18142 0.23596 0.74995 0.0
C247 C 0.20028 0.25654 0.74957 0.0
C248 C 0.17187 0.27663 0.70154 0.0
C249 C 0.19507 0.27703 0.72542 0.0
C250 C 0.2251 0.25724 0.77475 0.0
C251 C 0.23402 0.18629 0.70106 0.0
C252 C 0.23182 0.16195 0.71769 0.0
C253 C 0.23668 0.20996 0.7219 0.0
C254 C 0.2373 0.20968 0.75971 0.0
C255 C 0.2328 0.16163 0.75562 0.0
C256 C 0.23568 0.18541 0.77656 0.0
C257 C 0.24119 0.23468 0.78147 0.0
H258 H 0.35475 0.29439 0.86117 0.0
H259 H 0.31273 0.29436 0.82292 0.0
H260 H 0.32814 0.22641 0.91529 0.0
H261 H 0.28549 0.2271 0.87777 0.0
H262 H 0.24871 0.34092 0.91474 0.0
H263 H 0.24501 0.29656 0.88495 0.0
H264 H 0.28112 0.3709 0.82038 0.0
H265 H 0.27507 0.32689 0.78976 0.0
H266 H 0.1445 0.21901 0.72636 0.0
H267 H 0.18448 0.22024 0.76889 0.0
H268 H 0.16843 0.29271 0.68323 0.0
H269 H 0.20912 0.29326 0.72472 0.0
H270 H 0.23436 0.18699 0.67197 0.0
H271 H 0.23877 0.22846 0.70853 0.0
H272 H 0.23143 0.14303 0.76899 0.0
H273 H 0.23653 0.18492 0.80581 0.0
N274 N 0.26302 0.23694 0.80588 0.0
N275 N 0.23259 0.28064 0.7924 0.0
C276 C 0.83365 0.23142 0.70072 0.0
C277 C 0.84032 0.25449 0.6835 0.0
C278 C 0.81129 0.23099 0.72042 0.0
C279 C 0.79463 0.25338 0.72243 0.0
C280 C 0.82387 0.27693 0.68573 0.0
C281 C 0.80131 0.27638 0.70501 0.0
C282 C 0.77159 0.2539 0.74486 0.0
C283 C 0.75213 0.18552 0.66066 0.0
C284 C 0.75511 0.16009 0.67526 0.0
C285 C 0.75186 0.20884 0.68323 0.0
C286 C 0.75421 0.20756 0.72121 0.0
C287 C 0.75799 0.15908 0.71345 0.0
C288 C 0.75702 0.18234 0.73596 0.0
C289 C 0.75354 0.23229 0.74555 0.0
C290 C 0.66947 0.28069 0.83514 0.0
C291 C 0.66311 0.25832 0.85403 0.0
C292 C 0.6913 0.28026 0.81442 0.0
C293 C 0.70776 0.2577 0.81297 0.0
C294 C 0.67915 0.23555 0.85197 0.0
C295 C 0.7012 0.23523 0.83158 0.0
C296 C 0.73087 0.25682 0.79068 0.0
C297 C 0.75043 0.32475 0.87533 0.0
C298 C 0.74789 0.35027 0.86093 0.0
C299 C 0.75057 0.30152 0.85258 0.0
C300 C 0.74849 0.30299 0.81462 0.0
C301 C 0.74532 0.35149 0.82277 0.0
C302 C 0.74613 0.32831 0.80009 0.0
C303 C 0.74901 0.27835 0.79011 0.0
H304 H 0.8462 0.21397 0.6998 0.0
H305 H 0.80754 0.21336 0.73486 0.0
H306 H 0.82846 0.29491 0.67248 0.0
H307 H 0.78907 0.29404 0.70639 0.0
H308 H 0.74965 0.18749 0.63161 0.0
H309 H 0.74946 0.22793 0.67093 0.0
H310 H 0.76149 0.14035 0.72628 0.0
H311 H 0.75914 0.18066 0.76509 0.0
H312 H 0.65725 0.29839 0.83592 0.0
H313 H 0.695 0.29748 0.79911 0.0
H314 H 0.67485 0.2181 0.86653 0.0
H315 H 0.7133 0.21746 0.83064 0.0
H316 H 0.75267 0.32264 0.90436 0.0
H317 H 0.75263 0.28235 0.86471 0.0
H318 H 0.7422 0.37033 0.81011 0.0
H319 H 0.74425 0.33014 0.77099 0.0
N320 N 0.76846 0.27598 0.76698 0.0
N321 N 0.73403 0.23468 0.76865 0.0
C322 C 0.81857 0.76281 0.65423 0.0
C323 C 0.84459 0.75743 0.66905 0.0
C324 C 0.797 0.76099 0.67519 0.0
C325 C 0.80103 0.7542 0.71165 0.0
C326 C 0.84858 0.75053 0.70546 0.0
C327 C 0.827 0.74874 0.72643 0.0
C328 C 0.77825 0.7517 0.73405 0.0
C329 C 0.78096 0.83774 0.70792 0.0
C330 C 0.7578 0.84687 0.68852 0.0
C331 C 0.78113 0.81293 0.72324 0.0
C332 C 0.75831 0.79668 0.71855 0.0
C333 C 0.73484 0.83089 0.6845 0.0
C334 C 0.73508 0.806 0.69952 0.0
C335 C 0.75776 0.7708 0.73548 0.0
C336 C 0.69366 0.73743 0.8535 0.0
C337 C 0.66774 0.74145 0.83715 0.0
C338 C 0.71557 0.73736 0.83287 0.0
C339 C 0.71197 0.74118 0.79546 0.0
C340 C 0.66421 0.74455 0.79952 0.0
C341 C 0.6861 0.74476 0.77902 0.0
C342 C 0.73503 0.74354 0.7737 0.0
C343 C 0.73243 0.65945 0.80625 0.0
C344 C 0.75518 0.65169 0.82784 0.0
C345 C 0.7326 0.68297 0.78778 0.0
C346 C 0.75534 0.69932 0.7913 0.0
C347 C 0.77823 0.66754 0.83029 0.0
C348 C 0.77833 0.69115 0.812 0.0
C349 C 0.75564 0.72458 0.77275 0.0
H350 H 0.81487 0.7685 0.62642 0.0
H351 H 0.77715 0.76469 0.66276 0.0
H352 H 0.86837 0.74612 0.71755 0.0
H353 H 0.83063 0.74322 0.75435 0.0
H354 H 0.79883 0.8499 0.71143 0.0
H355 H 0.79897 0.80657 0.73897 0.0
H356 H 0.71689 0.83747 0.66918 0.0
H357 H 0.71717 0.79388 0.69599 0.0
H358 H 0.69707 0.73508 0.88244 0.0
H359 H 0.73537 0.73505 0.84632 0.0
H360 H 0.64449 0.74691 0.78586 0.0
H361 H 0.68284 0.74774 0.7502 0.0
H362 H 0.71452 0.64735 0.80382 0.0
H363 H 0.71494 0.68838 0.77087 0.0
H364 H 0.79588 0.66205 0.84717 0.0
H365 H 0.79617 0.70337 0.81472 0.0
N366 N 0.77647 0.72941 0.75309 0.0
N367 N 0.73692 0.76585 0.75491 0.0
C368 C 0.04668 0.28027 0.58772 0.0
C369 C 0.05523 0.30464 0.60375 0.0
C370 C 0.04113 0.32373 0.58538 0.0
C371 C 0.02475 0.31001 0.55943 0.0
N372 N 0.02736 0.28326 0.56025 0.0
Co373 Co 0.00728 0.25586 0.52738 0.0
N374 N 0.98835 0.28404 0.49832 0.0
C375 C 0.9923 0.31066 0.50246 0.0
C376 C 0.97622 0.32501 0.47874 0.0
C377 C 0.96084 0.30649 0.45847 0.0
C378 C 0.9684 0.28183 0.47121 0.0
N379 N 0.98646 0.22849 0.49526 0.0
C380 C 0.96614 0.2316 0.46915 0.0
C381 C 0.95595 0.20727 0.45505 0.0
C382 C 0.9701 0.18809 0.47317 0.0
C383 C 0.98797 0.20174 0.49729 0.0
N384 N 0.02687 0.22767 0.55573 0.0
C385 C 0.02444 0.201 0.54974 0.0
C386 C 0.04144 0.18664 0.57229 0.0
C387 C 0.0559 0.20523 0.59369 0.0
C388 C 0.04678 0.22995 0.58297 0.0
N389 N 0.97835 0.25623 0.56051 0.0
C390 C 0.9348 0.25629 0.60343 0.0
C391 C 0.948 0.2327 0.59494 0.0
C392 C 0.96949 0.23311 0.57366 0.0
C393 C 0.94408 0.2799 0.59039 0.0
C394 C 0.96583 0.27947 0.56954 0.0
N395 N 0.0362 0.25544 0.49416 0.0
C396 C 0.06526 0.23121 0.4559 0.0
C397 C 0.07885 0.25453 0.44965 0.0
C398 C 0.07063 0.27833 0.46598 0.0
C399 C 0.04938 0.27837 0.4877 0.0
C400 C 0.04418 0.23211 0.47794 0.0
H401 H 0.04421 0.29718 0.49931 0.0
H402 H 0.0348 0.2136 0.48163 0.0
H403 H 0.97841 0.21439 0.56788 0.0
H404 H 0.97187 0.29816 0.56055 0.0
C405 C 0.00879 0.32164 0.53168 0.0
C406 C 0.05823 0.25498 0.59872 0.0
C407 C 0.95513 0.25707 0.45792 0.0
C408 C 0.006 0.19007 0.5227 0.0
H409 H 0.07052 0.30823 0.6259 0.0
H410 H 0.04322 0.34509 0.58966 0.0
H411 H 0.97501 0.34644 0.47737 0.0
H412 H 0.94528 0.31067 0.43742 0.0
H413 H 0.93965 0.20378 0.43428 0.0
H414 H 0.96731 0.16675 0.46972 0.0
H415 H 0.04331 0.16521 0.57281 0.0
H416 H 0.07164 0.20107 0.61451 0.0
H417 H 0.94176 0.2139 0.60464 0.0
H418 H 0.93426 0.29866 0.59548 0.0
H419 H 0.07079 0.21228 0.44369 0.0
H420 H 0.08085 0.29688 0.46263 0.0
C421 C 0.73279 0.05132 0.56003 0.0
C422 C 0.70788 0.06177 0.56524 0.0
C423 C 0.68956 0.04557 0.5458 0.0
C424 C 0.70414 0.02632 0.52947 0.0
N425 N 0.73076 0.02923 0.53712 0.0
Co426 Co 0.75892 0.00597 0.51703 0.0
N427 N 0.73177 0.9829 0.48693 0.0
C428 C 0.70506 0.98624 0.48441 0.0
C429 C 0.69131 0.96778 0.46163 0.0
C430 C 0.71031 0.95155 0.44878 0.0
C431 C 0.73471 0.96097 0.46465 0.0
N432 N 0.78703 0.98233 0.49753 0.0
C433 C 0.78492 0.96023 0.47465 0.0
C434 C 0.80972 0.9495 0.46962 0.0
C435 C 0.8281 0.96525 0.48978 0.0
C436 C 0.81361 0.98461 0.50614 0.0
N437 N 0.78609 0.02945 0.54645 0.0
C438 C 0.81285 0.02673 0.54776 0.0
C439 C 0.82664 0.04541 0.57013 0.0
C440 C 0.80762 0.06121 0.58379 0.0
C441 C 0.78312 0.05138 0.56879 0.0
N442 N 0.75749 0.98239 0.55803 0.0
C443 C 0.75683 0.94345 0.60967 0.0
C444 C 0.78038 0.95658 0.60439 0.0
C445 C 0.78027 0.97582 0.57864 0.0
C446 C 0.73326 0.95132 0.59046 0.0
C447 C 0.73399 0.97101 0.56528 0.0
N448 N 0.7605 0.02956 0.47607 0.0
C449 C 0.78638 0.05699 0.44059 0.0
C450 C 0.7633 0.06903 0.42565 0.0
C451 C 0.73873 0.05977 0.43432 0.0
C452 C 0.73779 0.04001 0.45927 0.0
C453 C 0.78451 0.03721 0.46531 0.0
H454 H 0.71851 0.03414 0.4653 0.0
H455 H 0.80281 0.02912 0.47624 0.0
H456 H 0.79902 0.98449 0.57531 0.0
H457 H 0.71545 0.97608 0.55126 0.0
C458 C 0.69348 0.00632 0.50494 0.0
C459 C 0.75769 0.06343 0.57713 0.0
C460 C 0.76002 0.94831 0.45751 0.0
C461 C 0.82437 0.00555 0.52906 0.0
H462 H 0.70333 0.07949 0.58109 0.0
H463 H 0.66814 0.04792 0.54323 0.0
H464 H 0.66996 0.96615 0.45537 0.0
H465 H 0.7066 0.93462 0.42992 0.0
H466 H 0.81407 0.93199 0.45318 0.0
H467 H 0.84951 0.96287 0.49225 0.0
H468 H 0.84799 0.04711 0.5762 0.0
H469 H 0.81144 0.07794 0.60294 0.0
H470 H 0.79904 0.9514 0.61927 0.0
H471 H 0.71451 0.94156 0.59354 0.0
H472 H 0.80588 0.06368 0.43471 0.0
H473 H 0.72033 0.06836 0.42278 0.0
C474 C 0.04847 0.79125 0.56329 0.0
C475 C 0.05788 0.81595 0.57716 0.0
C476 C 0.04247 0.83459 0.55983 0.0
C477 C 0.02473 0.82029 0.53634 0.0
N478 N 0.02751 0.79361 0.53797 0.0
Co479 Co 0.00737 0.76557 0.50628 0.0
N480 N 0.98582 0.79312 0.47921 0.0
C481 C 0.98726 0.81984 0.48537 0.0
C482 C 0.96841 0.8336 0.46493 0.0
C483 C 0.95372 0.81457 0.4448 0.0
C484 C 0.96473 0.79015 0.45385 0.0
N485 N 0.98777 0.73755 0.474 0.0
C486 C 0.96735 0.7399 0.44789 0.0
C487 C 0.95963 0.71535 0.43168 0.0
C488 C 0.97528 0.69674 0.44876 0.0
C489 C 0.99174 0.71093 0.47413 0.0
N490 N 0.02836 0.738 0.53402 0.0
C491 C 0.02581 0.71123 0.52944 0.0
C492 C 0.04316 0.69747 0.55228 0.0
C493 C 0.0579 0.71655 0.57238 0.0
C494 C 0.04874 0.74094 0.56041 0.0
N495 N 0.97941 0.7642 0.54075 0.0
C496 C 0.93615 0.7623 0.58381 0.0
C497 C 0.9467 0.73904 0.56904 0.0
C498 C 0.96813 0.74042 0.54788 0.0
C499 C 0.94841 0.78647 0.57808 0.0
C500 C 0.96985 0.78698 0.55663 0.0
N501 N 0.03528 0.76686 0.47167 0.0
C502 C 0.06884 0.74454 0.43885 0.0
C503 C 0.07694 0.76856 0.4259 0.0
C504 C 0.06339 0.79168 0.43538 0.0
C505 C 0.04287 0.79043 0.45832 0.0
C506 C 0.04809 0.74411 0.46126 0.0
H507 H 0.03365 0.80881 0.46519 0.0
H508 H 0.04295 0.7251 0.47001 0.0
H509 H 0.97495 0.72195 0.53717 0.0
H510 H 0.97806 0.80605 0.55279 0.0
C511 C 0.00576 0.83135 0.51176 0.0
C512 C 0.06095 0.76623 0.57362 0.0
C513 C 0.95384 0.76469 0.43872 0.0
C514 C 0.00908 0.69972 0.50081 0.0
H515 H 0.07454 0.82016 0.59713 0.0
H516 H 0.04439 0.85601 0.56331 0.0
H517 H 0.96522 0.8549 0.46542 0.0
H518 H 0.93646 0.81835 0.42623 0.0
H519 H 0.94383 0.71126 0.41036 0.0
H520 H 0.97414 0.67534 0.44412 0.0
H521 H 0.04553 0.67611 0.55321 0.0
H522 H 0.07411 0.71296 0.59279 0.0
H523 H 0.93839 0.71975 0.57368 0.0
H524 H 0.94107 0.80501 0.58932 0.0
H525 H 0.07844 0.72604 0.43159 0.0
H526 H 0.06899 0.81075 0.42582 0.0
C527 C 0.27609 0.96622 0.57071 0.0
C528 C 0.3007 0.95803 0.58614 0.0
C529 C 0.31915 0.97558 0.57655 0.0
C530 C 0.30499 0.99337 0.5556 0.0
N531 N 0.27852 0.98829 0.55104 0.0
Co532 Co 0.25121 0.00904 0.52084 0.0
N533 N 0.27877 0.03416 0.50536 0.0
C534 C 0.30521 0.03361 0.51557 0.0
C535 C 0.31932 0.05349 0.50191 0.0
C536 C 0.30089 0.06757 0.48144 0.0
C537 C 0.27643 0.05528 0.4834 0.0
N538 N 0.22387 0.03 0.49092 0.0
C539 C 0.22652 0.05121 0.46972 0.0
C540 C 0.20206 0.0588 0.45314 0.0
C541 C 0.18337 0.04227 0.46451 0.0
C542 C 0.19731 0.02537 0.48714 0.0
N543 N 0.2237 0.98363 0.53585 0.0
C544 C 0.1972 0.9844 0.52603 0.0
C545 C 0.18297 0.96524 0.54104 0.0
C546 C 0.20143 0.95118 0.56152 0.0
C547 C 0.22611 0.96237 0.55757 0.0
N548 N 0.24611 0.03291 0.56351 0.0
C549 C 0.23822 0.07006 0.62017 0.0
C550 C 0.2168 0.05603 0.60206 0.0
C551 C 0.22114 0.03792 0.57381 0.0
C552 C 0.26383 0.06405 0.61107 0.0
C553 C 0.26731 0.04532 0.58308 0.0
N554 N 0.25618 0.98518 0.47834 0.0
C555 C 0.23717 0.95577 0.42974 0.0
C556 C 0.2624 0.94684 0.4227 0.0
C557 C 0.28462 0.95852 0.44243 0.0
C558 C 0.28106 0.97759 0.47003 0.0
C559 C 0.23456 0.97492 0.45727 0.0
H560 H 0.29866 0.98551 0.48465 0.0
H561 H 0.21479 0.98058 0.46155 0.0
H562 H 0.20384 0.02862 0.56049 0.0
H563 H 0.28728 0.04164 0.57741 0.0
C564 C 0.31609 0.01442 0.53867 0.0
C565 C 0.25114 0.95205 0.57523 0.0
C566 C 0.25167 0.0646 0.46389 0.0
C567 C 0.18619 1.00411 0.50376 0.0
H568 H 0.30503 0.94095 0.60236 0.0
H569 H 0.34046 0.97517 0.58357 0.0
H570 H 0.3405 0.05741 0.50649 0.0
H571 H 0.30506 0.08499 0.46681 0.0
H572 H 0.19806 0.07446 0.43436 0.0
H573 H 0.16216 0.04227 0.45667 0.0
H574 H 0.16163 0.96208 0.53786 0.0
H575 H 0.1971 0.93463 0.5777 0.0
H576 H 0.19667 0.05939 0.60912 0.0
H577 H 0.28108 0.07434 0.62467 0.0
H578 H 0.21938 0.94728 0.41497 0.0
H579 H 0.30459 0.95265 0.43707 0.0
C580 C 0.54647 0.77265 0.06554 0.0
C581 C 0.55614 0.79709 0.08013 0.0
C582 C 0.54237 0.81621 0.06151 0.0
C583 C 0.52528 0.80253 0.03646 0.0
N584 N 0.52722 0.77574 0.03798 0.0
Co585 Co 0.50691 0.74844 0.00515 0.0
N586 N 0.48856 0.77674 0.97578 0.0
C587 C 0.49307 0.80328 0.97937 0.0
C588 C 0.47719 0.81772 0.95552 0.0
C589 C 0.4613 0.79933 0.93582 0.0
C590 C 0.46839 0.77469 0.94904 0.0
N591 N 0.48577 0.72123 0.97317 0.0
C592 C 0.46521 0.72456 0.94753 0.0
C593 C 0.45454 0.70035 0.9337 0.0
C594 C 0.46865 0.68102 0.95153 0.0
C595 C 0.48694 0.69447 0.97524 0.0
N596 N 0.52596 0.7201 0.03375 0.0
C597 C 0.52317 0.69345 0.02788 0.0
C598 C 0.53924 0.67893 0.05138 0.0
C599 C 0.55349 0.69739 0.07325 0.0
C600 C 0.54535 0.72222 0.06164 0.0
N601 N 0.47791 0.74943 0.03804 0.0
C602 C 0.43428 0.75035 0.08068 0.0
C603 C 0.4472 0.72655 0.07258 0.0
C604 C 0.46873 0.72652 0.05138 0.0
C605 C 0.44381 0.77374 0.06734 0.0
C606 C 0.46564 0.77289 0.04666 0.0
N607 N 0.53594 0.7474 0.97206 0.0
C608 C 0.56399 0.72273 0.9328 0.0
C609 C 0.57806 0.74578 0.92666 0.0
C610 C 0.57077 0.7696 0.94385 0.0
C611 C 0.54975 0.77 0.96591 0.0
C612 C 0.54323 0.72397 0.95538 0.0
H613 H 0.54526 0.78887 0.9779 0.0
H614 H 0.53348 0.70564 0.95898 0.0
H615 H 0.47742 0.70765 0.04583 0.0
H616 H 0.47199 0.79143 0.03745 0.0
C617 C 0.50969 0.81419 0.00843 0.0
C618 C 0.55705 0.74712 0.07758 0.0
C619 C 0.45427 0.75018 0.93691 0.0
C620 C 0.50473 0.68265 1.00076 0.0
H621 H 0.57208 0.80087 0.10132 0.0
H622 H 0.54531 0.83754 0.06477 0.0
H623 H 0.47637 0.83914 0.95384 0.0
H624 H 0.44563 0.80362 0.91496 0.0
H625 H 0.43786 0.69701 0.91347 0.0
H626 H 0.46545 0.65972 0.94835 0.0
H627 H 0.54044 0.65749 0.05248 0.0
H628 H 0.56834 0.69304 0.09513 0.0
H629 H 0.44073 0.70791 0.0825 0.0
H630 H 0.43417 0.79265 0.0721 0.0
H631 H 0.56885 0.70377 0.92005 0.0
H632 H 0.58148 0.78791 0.94081 0.0
C633 C 0.23532 0.54066 0.0763 0.0
C634 C 0.21067 0.54608 0.08868 0.0
C635 C 0.19233 0.5321 0.06598 0.0
C636 C 0.20685 0.51888 0.04139 0.0
N637 N 0.23336 0.52323 0.0474 0.0
Co638 Co 0.26198 0.5077 0.01917 0.0
N639 N 0.23496 0.49001 0.98285 0.0
C640 C 0.20814 0.49176 0.98206 0.0
C641 C 0.19481 0.47677 0.95441 0.0
C642 C 0.21423 0.46455 0.9366 0.0
C643 C 0.23844 0.47298 0.95439 0.0
N644 N 0.29067 0.49152 0.99156 0.0
C645 C 0.28876 0.47451 0.96216 0.0
C646 C 0.3136 0.46761 0.95149 0.0
C647 C 0.33195 0.48025 0.97564 0.0
C648 C 0.31728 0.49411 0.99942 0.0
N649 N 0.28895 0.52617 0.05487 0.0
C650 C 0.31576 0.52516 0.05515 0.0
C651 C 0.32897 0.54168 0.08118 0.0
C652 C 0.30943 0.55446 0.09812 0.0
C653 C 0.28533 0.54474 0.08151 0.0
N654 N 0.26271 0.47535 0.04967 0.0
C655 C 0.26324 0.42952 0.09285 0.0
C656 C 0.2865 0.44413 0.08942 0.0
C657 C 0.28585 0.46655 0.06775 0.0
C658 C 0.23974 0.43854 0.07429 0.0
C659 C 0.2399 0.46112 0.05323 0.0
N660 N 0.26115 0.53995 0.98871 0.0
C661 C 0.28383 0.5727 0.95584 0.0
C662 C 0.25987 0.58533 0.94479 0.0
C663 C 0.23655 0.57467 0.95634 0.0
C664 C 0.23761 0.55226 0.97793 0.0
C665 C 0.28406 0.55049 0.97775 0.0
H666 H 0.21905 0.54517 0.98553 0.0
H667 H 0.3031 0.54221 0.98559 0.0
H668 H 0.3044 0.47638 0.06595 0.0
H669 H 0.22118 0.46667 0.04011 0.0
C670 C 0.19609 0.50483 0.01019 0.0
C671 C 0.25951 0.55486 0.09006 0.0
C672 C 0.26411 0.46283 0.94508 0.0
C673 C 0.32787 0.50991 0.02907 0.0
H674 H 0.20637 0.55975 0.11075 0.0
H675 H 0.1709 0.53252 0.0663 0.0
H676 H 0.17351 0.47404 0.94891 0.0
H677 H 0.21077 0.45033 0.91393 0.0
H678 H 0.31794 0.45431 0.92904 0.0
H679 H 0.35342 0.47922 0.97607 0.0
H680 H 0.35024 0.54483 0.08628 0.0
H681 H 0.31274 0.56976 0.11947 0.0
H682 H 0.30531 0.43805 0.10299 0.0
H683 H 0.22102 0.42843 0.07639 0.0
H684 H 0.30251 0.58015 0.94802 0.0
H685 H 0.21737 0.58328 0.94825 0.0
C686 C 0.46376 0.28431 0.97995 0.0
C687 C 0.45559 0.30841 0.96599 0.0
C688 C 0.47468 0.32683 0.9787 0.0
C689 C 0.49333 0.31297 0.99964 0.0
N690 N 0.48715 0.28703 1.0008 0.0
Co691 Co 0.50797 0.25991 0.02836 0.0
N692 N 0.52759 0.28771 0.06014 0.0
C693 C 0.52893 0.31377 0.05332 0.0
C694 C 0.54461 0.32826 0.07929 0.0
C695 C 0.55417 0.31017 0.10369 0.0
C696 C 0.54378 0.28549 0.09116 0.0
N697 N 0.52888 0.23257 0.05555 0.0
C698 C 0.54502 0.23496 0.08688 0.0
C699 C 0.55621 0.21059 0.09574 0.0
C700 C 0.54742 0.19258 0.06847 0.0
C701 C 0.53125 0.20679 0.04465 0.0
N702 N 0.48823 0.23238 0.99648 0.0
C703 C 0.49544 0.20686 0.99121 0.0
C704 C 0.4773 0.19255 0.96808 0.0
C705 C 0.45746 0.21022 0.95829 0.0
C706 C 0.46468 0.23434 0.97611 0.0
N707 N 0.53555 0.26102 0.9943 0.0
C708 C 0.5753 0.26101 0.94608 0.0
C709 C 0.54829 0.26005 0.93314 0.0
C710 C 0.52874 0.26025 0.95767 0.0
C711 C 0.58193 0.26232 0.98355 0.0
C712 C 0.56188 0.26214 0.00706 0.0
N713 N 0.48039 0.25867 0.0622 0.0
C714 C 0.44993 0.23325 0.09353 0.0
C715 C 0.43838 0.25663 0.10671 0.0
C716 C 0.44852 0.2811 0.09734 0.0
C717 C 0.46954 0.28168 0.07523 0.0
C718 C 0.4709 0.23469 0.07153 0.0
H719 H 0.47666 0.30078 0.06813 0.0
H720 H 0.47917 0.21632 0.06163 0.0
H721 H 0.50811 0.25963 0.94698 0.0
H722 H 0.56788 0.26269 0.03562 0.0
C723 C 0.51335 0.32426 0.02416 0.0
C724 C 0.44954 0.25903 0.97204 0.0
C725 C 0.55314 0.26025 0.1062 0.0
C726 C 0.516 0.19613 0.0139 0.0
H727 H 0.43763 0.31232 0.94877 0.0
H728 H 0.47422 0.34803 0.97476 0.0
H729 H 0.54857 0.34945 0.08045 0.0
H730 H 0.56804 0.31451 0.12726 0.0
H731 H 0.57002 0.20647 0.1189 0.0
H732 H 0.55209 0.17159 0.06644 0.0
H733 H 0.4777 0.17149 0.96073 0.0
H734 H 0.43967 0.20584 0.94039 0.0
H735 H 0.54232 0.25938 0.9043 0.0
H736 H 0.60256 0.26299 0.99468 0.0
H737 H 0.44282 0.21391 0.10021 0.0
H738 H 0.43992 0.29969 0.10634 0.0
C739 C 0.7199 0.55287 0.05678 0.0
C740 C 0.69539 0.56493 0.05964 0.0
C741 C 0.67691 0.54943 0.03926 0.0
C742 C 0.69107 0.52892 0.0249 0.0
N743 N 0.71751 0.53023 0.035 0.0
Co744 Co 0.74521 0.50479 0.01836 0.0
N745 N 0.71784 0.48141 0.98929 0.0
C746 C 0.69114 0.48473 0.98753 0.0
C747 C 0.67713 0.46588 0.96573 0.0
C748 C 0.69592 0.44938 0.9529 0.0
C749 C 0.72053 0.459 0.96776 0.0
N750 N 0.77304 0.48009 1.00036 0.0
C751 C 0.7708 0.45799 0.97751 0.0
C752 C 0.79556 0.44685 0.97312 0.0
C753 C 0.81402 0.46265 0.99298 0.0
C754 C 0.79965 0.4824 0.00866 0.0
N755 N 0.77249 0.52748 0.04871 0.0
C756 C 0.79896 0.52281 0.05322 0.0
C757 C 0.81283 0.54105 0.07625 0.0
C758 C 0.79412 0.55844 0.08729 0.0
C759 C 0.76979 0.54991 0.07013 0.0
N760 N 0.74171 0.48267 0.0605 0.0
C761 C 0.7358 0.44764 0.11611 0.0
C762 C 0.76074 0.45215 0.10406 0.0
C763 C 0.76327 0.46978 0.07667 0.0
C764 C 0.71416 0.46207 0.10139 0.0
C765 C 0.71749 0.47921 0.07365 0.0
N766 N 0.74855 0.52692 0.9763 0.0
C767 C 0.7746 0.55602 0.94329 0.0
C768 C 0.75194 0.56279 0.92116 0.0
C769 C 0.7279 0.55033 0.92584 0.0
C770 C 0.72665 0.5326 0.95335 0.0
C771 C 0.77252 0.53791 0.97028 0.0
H772 H 0.70759 0.52425 0.95593 0.0
H773 H 0.79042 0.53364 0.98649 0.0
H774 H 0.78278 0.47221 0.06863 0.0
H775 H 0.70004 0.48907 0.06301 0.0
C776 C 0.68004 0.50722 0.00378 0.0
C777 C 0.74477 0.56382 0.07529 0.0
C778 C 0.74583 0.44651 0.95975 0.0
C779 C 0.81035 0.50213 0.03358 0.0
H780 H 0.69129 0.58302 0.07502 0.0
H781 H 0.65562 0.55257 0.03567 0.0
H782 H 0.65579 0.46471 0.95911 0.0
H783 H 0.69189 0.43245 0.93416 0.0
H784 H 0.79989 0.42895 0.95749 0.0
H785 H 0.83535 0.45974 0.99625 0.0
H786 H 0.83408 0.54182 0.08375 0.0
H787 H 0.79798 0.57556 0.10578 0.0
H788 H 0.77815 0.44148 0.11487 0.0
H789 H 0.6946 0.45986 0.11077 0.0
H790 H 0.79364 0.5654 0.94082 0.0
H791 H 0.70992 0.55474 0.90887 0.0
C792 C 0.14374 0.23355 0.41154 0.0
C793 C 0.1465 0.25177 0.38439 0.0
C794 C 0.1218 0.2345 0.43227 0.0
C795 C 0.10179 0.25383 0.42691 0.0
H796 H 0.15853 0.2182 0.41654 0.0
H797 H 0.12066 0.22012 0.45296 0.0
S798 S 0.09964 0.3063 0.35947 0.0
N799 N 0.1275 0.29006 0.35375 0.0
N800 N 0.08603 0.29143 0.39204 0.0
C801 C 0.10431 0.2722 0.39989 0.0
C802 C 0.12666 0.27123 0.37878 0.0
C803 C 0.7533 0.13964 0.39725 0.0
C804 C 0.76945 0.14125 0.36855 0.0
C805 C 0.75103 0.11596 0.41491 0.0
C806 C 0.76489 0.09304 0.40455 0.0
H807 H 0.74214 0.1568 0.40597 0.0
H808 H 0.73872 0.11574 0.43733 0.0
S809 S 0.80953 0.08679 0.33071 0.0
N810 N 0.79948 0.11805 0.33036 0.0
N811 N 0.79494 0.07315 0.36346 0.0
C812 C 0.78099 0.09427 0.37573 0.0
C813 C 0.78327 0.11846 0.35766 0.0
C814 C 0.88077 0.75295 0.4074 0.0
C815 C 0.87806 0.76356 0.37272 0.0
C816 C 0.90537 0.7532 0.4284 0.0
C817 C 0.92819 0.76386 0.4154 0.0
H818 H 0.86381 0.74418 0.41837 0.0
H819 H 0.90657 0.7451 0.45508 0.0
S820 S 0.93225 0.79416 0.32697 0.0
N821 N 0.90061 0.78573 0.327 0.0
N822 N 0.94703 0.78472 0.36587 0.0
C823 C 0.92602 0.7741 0.38074 0.0
C824 C 0.90092 0.77433 0.35956 0.0
C825 C 0.24817 0.90105 0.33982 0.0
C826 C 0.26197 0.87784 0.34977 0.0
C827 C 0.24963 0.92389 0.36277 0.0
C828 C 0.26488 0.92427 0.39647 0.0
H829 H 0.23528 0.90125 0.31479 0.0
H830 H 0.23803 0.9411 0.35462 0.0
S831 S 0.30668 0.8694 0.43358 0.0
N832 N 0.29327 0.8573 0.39393 0.0
N833 N 0.29518 0.90001 0.4379 0.0
C834 C 0.27977 0.90161 0.40602 0.0
C835 C 0.27843 0.8784 0.3825 0.0
C836 C 0.11338 0.77472 0.65375 0.0
C837 C 0.13713 0.76814 0.63827 0.0
C838 C 0.08874 0.77378 0.63282 0.0
C839 C 0.08709 0.7665 0.59569 0.0
H840 H 0.11384 0.78034 0.68234 0.0
H841 H 0.07087 0.77888 0.64565 0.0
S842 S 0.14313 0.7483 0.54189 0.0
N843 N 0.1573 0.75454 0.58336 0.0
N844 N 0.11089 0.75298 0.54408 0.0
C845 C 0.11054 0.75994 0.57985 0.0
C846 C 0.1356 0.76073 0.60113 0.0
C847 C 0.24846 0.11638 0.70356 0.0
C848 C 0.23035 0.13694 0.69526 0.0
C849 C 0.25021 0.09423 0.67973 0.0
C850 C 0.2339 0.09194 0.64688 0.0
H851 H 0.2622 0.11799 0.72781 0.0
H852 H 0.26489 0.07912 0.68663 0.0
S853 S 0.18176 0.13952 0.61418 0.0
N854 N 0.1943 0.15269 0.65366 0.0
N855 N 0.19829 0.11161 0.60802 0.0
C856 C 0.21492 0.11185 0.63905 0.0
C857 C 0.213 0.13424 0.66345 0.0
C858 C 0.86855 0.23584 0.63622 0.0
C859 C 0.86462 0.25522 0.66371 0.0
C860 C 0.89125 0.23631 0.61701 0.0
C861 C 0.91109 0.25605 0.62476 0.0
H862 H 0.85373 0.22042 0.62913 0.0
H863 H 0.89307 0.2213 0.59552 0.0
S864 S 0.91136 0.30976 0.69688 0.0
N865 N 0.88299 0.2938 0.69916 0.0
N866 N 0.92594 0.2944 0.66379 0.0
C867 C 0.90761 0.2752 0.65283 0.0
C868 C 0.88436 0.27484 0.67211 0.0
C869 C 0.77713 0.87695 0.64661 0.0
C870 C 0.758 0.87245 0.67082 0.0
C871 C 0.77682 0.90026 0.62755 0.0
C872 C 0.75748 0.91997 0.63225 0.0
H873 H 0.79196 0.86198 0.64158 0.0
H874 H 0.7914 0.9025 0.6082 0.0
S875 S 0.70463 0.91864 0.69527 0.0
N876 N 0.72021 0.88996 0.70028 0.0
N877 N 0.71986 0.93425 0.66475 0.0
C878 C 0.73871 0.91604 0.65724 0.0
C879 C 0.73893 0.89216 0.67648 0.0
C880 C 0.89072 0.77307 0.65974 0.0
C881 C 0.86755 0.75875 0.64661 0.0
C882 C 0.91267 0.77445 0.63914 0.0
C883 C 0.91241 0.76128 0.60482 0.0
H884 H 0.89184 0.78344 0.68608 0.0
H885 H 0.93013 0.78556 0.65042 0.0
S886 S 0.85656 0.72129 0.55795 0.0
N887 N 0.84577 0.73112 0.59705 0.0
N888 N 0.88677 0.734 0.55825 0.0
C889 C 0.88932 0.74702 0.59131 0.0
C890 C 0.86696 0.74572 0.61218 0.0
C891 C 0.26025 0.90671 0.65673 0.0
C892 C 0.25151 0.88129 0.64238 0.0
C893 C 0.2599 0.92923 0.63519 0.0
C894 C 0.25123 0.92758 0.59792 0.0
H895 H 0.26779 0.90932 0.68494 0.0
H896 H 0.26665 0.94818 0.64784 0.0
S897 S 0.22551 0.86662 0.54622 0.0
N898 N 0.23248 0.85676 0.58788 0.0
N899 N 0.2337 0.89846 0.54748 0.0
C900 C 0.24257 0.90246 0.58302 0.0
C901 C 0.24232 0.87959 0.60506 0.0
C902 C 0.1303 0.26005 0.63891 0.0
C903 C 0.1286 0.25542 0.67583 0.0
C904 C 0.10749 0.25974 0.61412 0.0
C905 C 0.08219 0.25481 0.62535 0.0
H906 H 0.14946 0.26368 0.62902 0.0
H907 H 0.10961 0.26335 0.58596 0.0
S908 S 0.0664 0.24289 0.71872 0.0
N909 N 0.09908 0.24677 0.72233 0.0
N910 N 0.05638 0.24595 0.67544 0.0
C911 C 0.08006 0.25035 0.66199 0.0
C912 C 0.10323 0.25067 0.68729 0.0
C913 C 0.76771 0.13511 0.61785 0.0
C914 C 0.75554 0.13501 0.65073 0.0
C915 C 0.76832 0.11217 0.59444 0.0
C916 C 0.75712 0.08778 0.60283 0.0
H917 H 0.77716 0.15305 0.61011 0.0
H918 H 0.7777 0.11352 0.56948 0.0
S919 S 0.72218 0.07614 0.68441 0.0
N920 N 0.73079 0.10789 0.68903 0.0
N921 N 0.73359 0.06483 0.64636 0.0
C922 C 0.74508 0.0872 0.63553 0.0
C923 C 0.74393 0.11065 0.65907 0.0
C924 C 0.88166 0.26473 0.42694 0.0
C925 C 0.88079 0.26049 0.38902 0.0
C926 C 0.90576 0.26348 0.44903 0.0
C927 C 0.9298 0.25795 0.434 0.0
H928 H 0.86353 0.26871 0.43971 0.0
H929 H 0.90561 0.26678 0.47808 0.0
S930 S 0.93895 0.24683 0.33666 0.0
N931 N 0.90661 0.25165 0.33754 0.0
N932 N 0.95173 0.24907 0.37933 0.0
C933 C 0.92939 0.25395 0.39633 0.0
C934 C 0.90492 0.25522 0.37377 0.0
C935 C 0.75098 0.87574 0.42064 0.0
C936 C 0.75923 0.8761 0.38525 0.0
C937 C 0.75152 0.89889 0.44379 0.0
C938 C 0.76031 0.92357 0.43273 0.0
H939 H 0.74421 0.85729 0.43075 0.0
H940 H 0.74494 0.8975 0.47063 0.0
S941 S 0.78269 0.93632 0.34269 0.0
N942 N 0.77554 0.90418 0.34024 0.0
N943 N 0.77673 0.94722 0.38382 0.0
C944 C 0.76849 0.92438 0.39758 0.0
C945 C 0.76795 0.90085 0.37393 0.0
C946 C 0.11714 0.77997 0.34584 0.0
C947 C 0.1419 0.76829 0.3564 0.0
C948 C 0.09639 0.78054 0.36871 0.0
C949 C 0.09954 0.76928 0.40287 0.0
H950 H 0.11353 0.78818 0.31935 0.0
H951 H 0.07751 0.78923 0.35921 0.0
S952 S 0.16118 0.7391 0.44518 0.0
N953 N 0.16896 0.74743 0.40493 0.0
N954 N 0.12981 0.74792 0.44725 0.0
C955 C 0.12435 0.75825 0.41417 0.0
C956 C 0.14554 0.75789 0.39113 0.0
C957 C 0.23921 0.1334 0.42307 0.0
C958 C 0.25389 0.13248 0.39244 0.0
C959 C 0.23862 0.11164 0.44592 0.0
C960 C 0.25214 0.08766 0.43875 0.0
H961 H 0.22843 0.1513 0.42977 0.0
H962 H 0.22751 0.11361 0.46951 0.0
S963 S 0.29204 0.07424 0.36075 0.0
N964 N 0.28177 0.10519 0.35588 0.0
N965 N 0.2797 0.06417 0.39757 0.0
C966 C 0.26639 0.08634 0.40777 0.0
C967 C 0.2675 0.10868 0.38501 0.0
C968 C 0.64152 0.72382 0.88548 0.0
C969 C 0.64456 0.74282 0.85941 0.0
C970 C 0.61989 0.72477 0.90679 0.0
C971 C 0.60048 0.74485 0.90306 0.0
H972 H 0.65587 0.70794 0.88929 0.0
H973 H 0.61859 0.70985 0.92673 0.0
S974 S 0.59918 0.79939 0.83873 0.0
N975 N 0.62646 0.78262 0.83155 0.0
N976 N 0.58545 0.78384 0.8706 0.0
C977 C 0.60322 0.76389 0.87696 0.0
C978 C 0.62528 0.76299 0.85538 0.0
C979 C 0.273 0.63094 0.86746 0.0
C980 C 0.25883 0.65441 0.87521 0.0
C981 C 0.27343 0.609 0.89007 0.0
C982 C 0.25929 0.60917 0.92122 0.0
H983 H 0.28419 0.62963 0.84391 0.0
H984 H 0.2847 0.59155 0.88279 0.0
S985 S 0.21867 0.66549 0.95353 0.0
N986 N 0.23006 0.67617 0.91642 0.0
N987 N 0.23076 0.63522 0.95844 0.0
C988 C 0.24489 0.63244 0.92909 0.0
C989 C 0.24473 0.6549 0.90634 0.0
C990 C 0.39458 0.26077 0.89499 0.0
C991 C 0.37118 0.25962 0.9129 0.0
C992 C 0.41985 0.26024 0.91423 0.0
C993 C 0.42263 0.25865 0.95207 0.0
H994 H 0.39336 0.26193 0.8658 0.0
H995 H 0.43737 0.26125 0.8995 0.0
S996 S 0.36823 0.25572 0.01217 0.0
N997 N 0.35274 0.25717 0.97104 0.0
N998 N 0.4004 0.25608 0.00697 0.0
C999 C 0.39963 0.2574 0.97039 0.0
C1000 C 0.37385 0.25787 0.95087 0.0
C1001 C 0.73505 0.37517 0.91822 0.0
C1002 C 0.7476 0.37523 0.88564 0.0
C1003 C 0.73455 0.39801 0.94181 0.0
C1004 C 0.74623 0.42228 0.93387 0.0
H1005 H 0.72522 0.35733 0.92558 0.0
H1006 H 0.72488 0.39669 0.96654 0.0
S1007 S 0.78242 0.43371 0.85334 0.0
N1008 N 0.77329 0.40213 0.84819 0.0
N1009 N 0.77075 0.44504 0.8912 0.0
C1010 C 0.7587 0.42281 0.90151 0.0
C1011 C 0.75972 0.39944 0.87779 0.0
C1012 C 0.62664 0.25705 0.13895 0.0
C1013 C 0.6271 0.26282 0.1765 0.0
C1014 C 0.60265 0.25615 0.11662 0.0
C1015 C 0.57816 0.26077 0.131 0.0
H1016 H 0.64504 0.25351 0.12662 0.0
H1017 H 0.60323 0.25191 0.08782 0.0
S1018 S 0.56806 0.27608 0.22724 0.0
N1019 N 0.60065 0.27281 0.22703 0.0
N1020 N 0.55554 0.27116 0.1847 0.0
C1021 C 0.57818 0.26652 0.16831 0.0
C1022 C 0.60265 0.26755 0.19115 0.0
C1023 C 0.7546 0.63626 0.11226 0.0
C1024 C 0.74493 0.63625 0.14684 0.0
C1025 C 0.75441 0.613 0.08935 0.0
C1026 C 0.74457 0.5886 0.09992 0.0
H1027 H 0.76216 0.65452 0.10256 0.0
H1028 H 0.76198 0.6141 0.06307 0.0
S1029 S 0.71852 0.57677 0.188 0.0
N1030 N 0.72635 0.60875 0.19074 0.0
N1031 N 0.72576 0.56554 0.14756 0.0
C1032 C 0.73508 0.58813 0.13432 0.0
C1033 C 0.73528 0.61174 0.15771 0.0
C1034 C 0.36776 0.73105 0.11359 0.0
C1035 C 0.36399 0.75084 0.14057 0.0
C1036 C 0.39055 0.73098 0.09452 0.0
C1037 C 0.41058 0.75056 0.102 0.0
H1038 H 0.35269 0.71584 0.10664 0.0
H1039 H 0.39223 0.71574 0.07329 0.0
S1040 S 0.41124 0.80509 0.17302 0.0
N1041 N 0.38264 0.78957 0.17536 0.0
N1042 N 0.42583 0.78909 0.14043 0.0
C1043 C 0.4073 0.77002 0.12973 0.0
C1044 C 0.38395 0.77023 0.1488 0.0
C1045 C 0.27587 0.38369 0.17326 0.0
C1046 C 0.26254 0.35974 0.16112 0.0
C1047 C 0.27631 0.40585 0.1511 0.0
C1048 C 0.26334 0.4053 0.11568 0.0
H1049 H 0.28571 0.38555 0.20046 0.0
H1050 H 0.28648 0.42379 0.16215 0.0
S1051 S 0.22818 0.34669 0.06894 0.0
N1052 N 0.23788 0.33645 0.10971 0.0
N1053 N 0.23846 0.37785 0.06867 0.0
C1054 C 0.25048 0.38132 0.10288 0.0
C1055 C 0.25013 0.35872 0.12534 0.0
C1056 C 0.37191 0.23684 0.13924 0.0
C1057 C 0.37111 0.25191 0.17206 0.0
C1058 C 0.39371 0.23843 0.11844 0.0
C1059 C 0.41553 0.25534 0.12941 0.0
H1060 H 0.35566 0.22347 0.12971 0.0
H1061 H 0.39336 0.2265 0.09334 0.0
S1062 S 0.42307 0.29936 0.21277 0.0
N1063 N 0.39388 0.28475 0.2141 0.0
N1064 N 0.43498 0.28738 0.17538 0.0
C1065 C 0.41493 0.27062 0.16205 0.0
C1066 C 0.39276 0.26895 0.18329 0.0
C1067 C 0.75024 0.4036 0.19564 0.0
C1068 C 0.73106 0.3833 0.18847 0.0
C1069 C 0.75092 0.42503 0.17297 0.0
C1070 C 0.73244 0.4269 0.14239 0.0
H1071 H 0.7656 0.4023 0.2179 0.0
H1072 H 0.76649 0.43986 0.17884 0.0
S1073 S 0.67675 0.38003 0.11385 0.0
N1074 N 0.69172 0.36754 0.15074 0.0
N1075 N 0.69357 0.40728 0.10722 0.0
C1076 C 0.71237 0.40737 0.13594 0.0
C1077 C 0.71158 0.38567 0.15919 0.0
C1078 C 0.62838 0.73656 0.1167 0.0
C1079 C 0.62855 0.7469 0.15272 0.0
C1080 C 0.60518 0.73655 0.09277 0.0
C1081 C 0.58112 0.74644 0.10403 0.0
H1082 H 0.64634 0.7284 0.1068 0.0
H1083 H 0.60607 0.72888 0.06515 0.0
S1084 S 0.57016 0.77524 0.19504 0.0
N1085 N 0.60215 0.76777 0.19794 0.0
N1086 N 0.55825 0.76586 0.15345 0.0
C1087 C 0.58064 0.7561 0.14003 0.0
C1088 C 0.60439 0.75676 0.16424 0.0
C1089 C 0.26468 0.61161 0.16093 0.0
C1090 C 0.25228 0.63271 0.14219 0.0
C1091 C 0.26679 0.58638 0.14407 0.0
C1092 C 0.25729 0.58162 0.10765 0.0
H1093 H 0.27301 0.61463 0.18879 0.0
H1094 H 0.27603 0.57051 0.15952 0.0
S1095 S 0.2217 0.62913 0.04715 0.0
N1096 N 0.22853 0.64632 0.08588 0.0
N1097 N 0.2343 0.59923 0.05353 0.0
C1098 C 0.24472 0.6023 0.0886 0.0
C1099 C 0.2419 0.62781 0.10598 0.0
C1100 C 0.40108 0.74745 0.85732 0.0
C1101 C 0.37817 0.75626 0.87328 0.0
C1102 C 0.42564 0.74529 0.87806 0.0
C1103 C 0.428 0.75163 0.91545 0.0
H1104 H 0.4001 0.74257 0.82849 0.0
H1105 H 0.44292 0.7388 0.8648 0.0
S1106 S 0.37417 0.77431 0.97072 0.0
N1107 N 0.35947 0.77051 0.9291 0.0
N1108 N 0.40572 0.76639 0.96791 0.0
C1109 C 0.40536 0.76018 0.93184 0.0
C1110 C 0.3804 0.76251 0.91079 0.0
C1111 C 0.2748 0.38971 0.92452 0.0
C1112 C 0.26599 0.38654 0.88745 0.0
C1113 C 0.27428 0.41457 0.94278 0.0
C1114 C 0.26535 0.43713 0.92448 0.0
H1115 H 0.28195 0.37282 0.93968 0.0
H1116 H 0.28065 0.41614 0.97152 0.0
S1117 S 0.24132 0.44023 0.82752 0.0
N1118 N 0.24806 0.40846 0.83317 0.0
N1119 N 0.24899 0.45558 0.86741 0.0
C1120 C 0.25749 0.43465 0.8873 0.0
C1121 C 0.25737 0.40923 0.86877 0.0
C1122 C 0.63795 0.27953 0.90291 0.0
C1123 C 0.64002 0.25899 0.87628 0.0
C1124 C 0.61683 0.28017 0.92507 0.0
C1125 C 0.5967 0.26056 0.92103 0.0
H1126 H 0.65308 0.29494 0.90713 0.0
H1127 H 0.61623 0.29614 0.94558 0.0
S1128 S 0.59244 0.20303 0.85456 0.0
N1129 N 0.61985 0.21889 0.8466 0.0
N1130 N 0.58006 0.22021 0.88807 0.0
C1131 C 0.59827 0.2402 0.89407 0.0
C1132 C 0.61997 0.23936 0.87181 0.0
C1133 C 0.73408 0.62592 0.87312 0.0
C1134 C 0.75424 0.62803 0.84972 0.0
C1135 C 0.73337 0.60451 0.89568 0.0
C1136 C 0.7527 0.58435 0.89549 0.0
H1137 H 0.71914 0.64131 0.87466 0.0
H1138 H 0.71791 0.60409 0.91407 0.0
S1139 S 0.80829 0.57961 0.83677 0.0
N1140 N 0.79316 0.60771 0.82612 0.0
N1141 N 0.79163 0.56703 0.86837 0.0
C1142 C 0.77262 0.5859 0.87157 0.0
C1143 C 0.77342 0.60785 0.84869 0.0
loop_
_geom_bond_atom_site_label_1
_geom_bond_atom_site_label_2
_geom_bond_distance
_geom_bond_site_symmetry_2
_ccdc_geom_bond_type
C0 C1 1.384 . S
C0 C2 1.384 . S
C0 H28 0.931 . S
C1 C0 1.384 . S
C1 C4 1.382 . S
C2 C0 1.384 . S
C2 C3 1.381 . S
C2 H29 0.930 . S
C3 C2 1.381 . S
C3 C5 1.381 . S
C3 C6 1.487 . S
C4 C1 1.382 . S
C4 C5 1.387 . S
C4 H30 0.930 . S
C5 C3 1.381 . S
C5 C4 1.387 . S
C5 H31 0.931 . S
C6 C3 1.487 . S
C6 C13 1.399 . S
C6 N44 1.343 . S
C7 C8 1.384 . S
C7 C9 1.384 . S
C7 H32 0.931 . S
C8 C7 1.384 . S
C8 C11 1.382 . S
C9 C7 1.384 . S
C9 C10 1.381 . S
C9 H33 0.930 . S
C10 C9 1.381 . S
C10 C12 1.381 . S
C10 C13 1.487 . S
C11 C8 1.382 . S
C11 C12 1.387 . S
C11 H34 0.930 . S
C12 C10 1.381 . S
C12 C11 1.387 . S
C12 H35 0.931 . S
C13 C6 1.399 . S
C13 C10 1.487 . S
C13 N45 1.343 . S
C14 C15 1.384 . S
C14 C16 1.384 . S
C14 H36 0.931 . S
C15 C14 1.384 . S
C15 C18 1.382 . S
C16 C14 1.384 . S
C16 C17 1.381 . S
C16 H37 0.930 . S
C17 C16 1.381 . S
C17 C19 1.381 . S
C17 C20 1.487 . S
C18 C15 1.382 . S
C18 C19 1.387 . S
C18 H38 0.930 . S
C19 C17 1.381 . S
C19 C18 1.387 . S
C19 H39 0.931 . S
C20 C17 1.487 . S
C20 C27 1.399 . S
C20 N45 1.343 . S
C21 C22 1.384 . S
C21 C23 1.384 . S
C21 H40 0.931 . S
C22 C21 1.384 . S
C22 C25 1.382 . S
C23 C21 1.384 . S
C23 C24 1.381 . S
C23 H41 0.930 . S
C24 C23 1.381 . S
C24 C26 1.381 . S
C24 C27 1.487 . S
C25 C22 1.382 . S
C25 C26 1.387 . S
C25 H42 0.930 . S
C26 C24 1.381 . S
C26 C25 1.387 . S
C26 H43 0.931 . S
C27 C20 1.399 . S
C27 C24 1.487 . S
C27 N44 1.343 . S
H28 C0 0.931 . S
H29 C2 0.930 . S
H30 C4 0.930 . S
H31 C5 0.931 . S
H32 C7 0.931 . S
H33 C9 0.930 . S
H34 C11 0.930 . S
H35 C12 0.931 . S
H36 C14 0.931 . S
H37 C16 0.930 . S
H38 C18 0.930 . S
H39 C19 0.931 . S
H40 C21 0.931 . S
H41 C23 0.930 . S
H42 C25 0.930 . S
H43 C26 0.931 . S
N44 C6 1.343 . S
N44 C27 1.343 . S
N45 C13 1.343 . S
N45 C20 1.343 . S
C46 C47 1.384 . S
C46 C48 1.384 . S
C46 H74 0.931 . S
C47 C46 1.384 . S
C47 C50 1.382 . S
C48 C46 1.384 . S
C48 C49 1.381 . S
C48 H75 0.930 . S
C49 C48 1.381 . S
C49 C51 1.381 . S
C49 C52 1.487 . S
C50 C47 1.382 . S
C50 C51 1.387 . S
C50 H76 0.930 . S
C51 C49 1.381 . S
C51 C50 1.387 . S
C51 H77 0.931 . S
C52 C49 1.487 . S
C52 C59 1.399 . S
C52 N90 1.343 . S
C53 C54 1.384 . S
C53 C55 1.384 . S
C53 H78 0.931 . S
C54 C53 1.384 . S
C54 C57 1.382 . S
C55 C53 1.384 . S
C55 C56 1.381 . S
C55 H79 0.930 . S
C56 C55 1.381 . S
C56 C58 1.381 . S
C56 C59 1.487 . S
C57 C54 1.382 . S
C57 C58 1.387 . S
C57 H80 0.930 . S
C58 C56 1.381 . S
C58 C57 1.387 . S
C58 H81 0.931 . S
C59 C52 1.399 . S
C59 C56 1.487 . S
C59 N91 1.343 . S
C60 C61 1.384 . S
C60 C62 1.384 . S
C60 H82 0.931 . S
C61 C60 1.384 . S
C61 C64 1.382 . S
C62 C60 1.384 . S
C62 C63 1.381 . S
C62 H83 0.930 . S
C63 C62 1.381 . S
C63 C65 1.381 . S
C63 C66 1.487 . S
C64 C61 1.382 . S
C64 C65 1.387 . S
C64 H84 0.930 . S
C65 C63 1.381 . S
C65 C64 1.387 . S
C65 H85 0.931 . S
C66 C63 1.487 . S
C66 C73 1.399 . S
C66 N91 1.343 . S
C67 C68 1.384 . S
C67 C69 1.384 . S
C67 H86 0.931 . S
C68 C67 1.384 . S
C68 C71 1.382 . S
C69 C67 1.384 . S
C69 C70 1.381 . S
C69 H87 0.930 . S
C70 C69 1.381 . S
C70 C72 1.381 . S
C70 C73 1.487 . S
C71 C68 1.382 . S
C71 C72 1.387 . S
C71 H88 0.930 . S
C72 C70 1.381 . S
C72 C71 1.387 . S
C72 H89 0.931 . S
C73 C66 1.399 . S
C73 C70 1.487 . S
C73 N90 1.343 . S
H74 C46 0.931 . S
H75 C48 0.930 . S
H76 C50 0.930 . S
H77 C51 0.931 . S
H78 C53 0.931 . S
H79 C55 0.930 . S
H80 C57 0.930 . S
H81 C58 0.931 . S
H82 C60 0.931 . S
H83 C62 0.930 . S
H84 C64 0.930 . S
H85 C65 0.931 . S
H86 C67 0.931 . S
H87 C69 0.930 . S
H88 C71 0.930 . S
H89 C72 0.931 . S
N90 C52 1.343 . S
N90 C73 1.343 . S
N91 C59 1.343 . S
N91 C66 1.343 . S
C92 C93 1.384 . S
C92 C94 1.384 . S
C92 H120 0.931 . S
C93 C92 1.384 . S
C93 C96 1.382 . S
C94 C92 1.384 . S
C94 C95 1.381 . S
C94 H121 0.930 . S
C95 C94 1.381 . S
C95 C97 1.381 . S
C95 C98 1.487 . S
C96 C93 1.382 . S
C96 C97 1.387 . S
C96 H122 0.930 . S
C97 C95 1.381 . S
C97 C96 1.387 . S
C97 H123 0.931 . S
C98 C95 1.487 . S
C98 C105 1.399 . S
C98 N136 1.343 . S
C99 C100 1.384 . S
C99 C101 1.384 . S
C99 H124 0.931 . S
C100 C99 1.384 . S
C100 C103 1.382 . S
C101 C99 1.384 . S
C101 C102 1.381 . S
C101 H125 0.930 . S
C102 C101 1.381 . S
C102 C104 1.381 . S
C102 C105 1.487 . S
C103 C100 1.382 . S
C103 C104 1.387 . S
C103 H126 0.930 . S
C104 C102 1.381 . S
C104 C103 1.387 . S
C104 H127 0.931 . S
C105 C98 1.399 . S
C105 C102 1.487 . S
C105 N137 1.343 . S
C106 C107 1.384 . S
C106 C108 1.384 . S
C106 H128 0.931 . S
C107 C106 1.384 . S
C107 C110 1.382 . S
C108 C106 1.384 . S
C108 C109 1.381 . S
C108 H129 0.930 . S
C109 C108 1.381 . S
C109 C111 1.381 . S
C109 C112 1.487 . S
C110 C107 1.382 . S
C110 C111 1.387 . S
C110 H130 0.930 . S
C111 C109 1.381 . S
C111 C110 1.387 . S
C111 H131 0.931 . S
C112 C109 1.487 . S
C112 C119 1.399 . S
C112 N137 1.343 . S
C113 C114 1.384 . S
C113 C115 1.384 . S
C113 H132 0.931 . S
C114 C113 1.384 . S
C114 C117 1.382 . S
C115 C113 1.384 . S
C115 C116 1.381 . S
C115 H133 0.930 . S
C116 C115 1.381 . S
C116 C118 1.381 . S
C116 C119 1.487 . S
C117 C114 1.382 . S
C117 C118 1.387 . S
C117 H134 0.930 . S
C118 C116 1.381 . S
C118 C117 1.387 . S
C118 H135 0.931 . S
C119 C112 1.399 . S
C119 C116 1.487 . S
C119 N136 1.343 . S
H120 C92 0.931 . S
H121 C94 0.930 . S
H122 C96 0.930 . S
H123 C97 0.931 . S
H124 C99 0.931 . S
H125 C101 0.930 . S
H126 C103 0.930 . S
H127 C104 0.931 . S
H128 C106 0.931 . S
H129 C108 0.930 . S
H130 C110 0.930 . S
H131 C111 0.931 . S
H132 C113 0.931 . S
H133 C115 0.930 . S
H134 C117 0.930 . S
H135 C118 0.931 . S
N136 C98 1.343 . S
N136 C119 1.343 . S
N137 C105 1.343 . S
N137 C112 1.343 . S
C138 C139 1.384 . S
C138 C140 1.384 . S
C138 H166 0.931 . S
C139 C138 1.384 . S
C139 C142 1.382 . S
C140 C138 1.384 . S
C140 C141 1.381 . S
C140 H167 0.930 . S
C141 C140 1.381 . S
C141 C143 1.381 . S
C141 C144 1.487 . S
C142 C139 1.382 . S
C142 C143 1.387 . S
C142 H168 0.930 . S
C143 C141 1.381 . S
C143 C142 1.387 . S
C143 H169 0.931 . S
C144 C141 1.487 . S
C144 C151 1.399 . S
C144 N182 1.343 . S
C145 C146 1.384 . S
C145 C147 1.384 . S
C145 H170 0.931 . S
C146 C145 1.384 . S
C146 C149 1.382 . S
C147 C145 1.384 . S
C147 C148 1.381 . S
C147 H171 0.930 . S
C148 C147 1.381 . S
C148 C150 1.381 . S
C148 C151 1.487 . S
C149 C146 1.382 . S
C149 C150 1.387 . S
C149 H172 0.930 . S
C150 C148 1.381 . S
C150 C149 1.387 . S
C150 H173 0.931 . S
C151 C144 1.399 . S
C151 C148 1.487 . S
C151 N183 1.343 . S
C152 C153 1.384 . S
C152 C154 1.384 . S
C152 H174 0.931 . S
C153 C152 1.384 . S
C153 C156 1.382 . S
C154 C152 1.384 . S
C154 C155 1.381 . S
C154 H175 0.930 . S
C155 C154 1.381 . S
C155 C157 1.381 . S
C155 C158 1.487 . S
C156 C153 1.382 . S
C156 C157 1.387 . S
C156 H176 0.930 . S
C157 C155 1.381 . S
C157 C156 1.387 . S
C157 H177 0.931 . S
C158 C155 1.487 . S
C158 C165 1.399 . S
C158 N183 1.343 . S
C159 C160 1.384 . S
C159 C161 1.384 . S
C159 H178 0.931 . S
C160 C159 1.384 . S
C160 C163 1.382 . S
C161 C159 1.384 . S
C161 C162 1.381 . S
C161 H179 0.930 . S
C162 C161 1.381 . S
C162 C164 1.381 . S
C162 C165 1.487 . S
C163 C160 1.382 . S
C163 C164 1.387 . S
C163 H180 0.930 . S
C164 C162 1.381 . S
C164 C163 1.387 . S
C164 H181 0.931 . S
C165 C158 1.399 . S
C165 C162 1.487 . S
C165 N182 1.343 . S
H166 C138 0.931 . S
H167 C140 0.930 . S
H168 C142 0.930 . S
H169 C143 0.931 . S
H170 C145 0.931 . S
H171 C147 0.930 . S
H172 C149 0.930 . S
H173 C150 0.931 . S
H174 C152 0.931 . S
H175 C154 0.930 . S
H176 C156 0.930 . S
H177 C157 0.931 . S
H178 C159 0.931 . S
H179 C161 0.930 . S
H180 C163 0.930 . S
H181 C164 0.931 . S
N182 C144 1.343 . S
N182 C165 1.343 . S
N183 C151 1.343 . S
N183 C158 1.343 . S
C184 C185 1.384 . S
C184 C186 1.384 . S
C184 H212 0.931 . S
C185 C184 1.384 . S
C185 C188 1.382 . S
C186 C184 1.384 . S
C186 C187 1.381 . S
C186 H213 0.930 . S
C187 C186 1.381 . S
C187 C189 1.381 . S
C187 C190 1.487 . S
C188 C185 1.382 . S
C188 C189 1.387 . S
C188 H214 0.930 . S
C189 C187 1.381 . S
C189 C188 1.387 . S
C189 H215 0.931 . S
C190 C187 1.487 . S
C190 C197 1.399 . S
C190 N228 1.343 . S
C191 C192 1.384 . S
C191 C193 1.384 . S
C191 H216 0.931 . S
C192 C191 1.384 . S
C192 C195 1.382 . S
C193 C191 1.384 . S
C193 C194 1.381 . S
C193 H217 0.930 . S
C194 C193 1.381 . S
C194 C196 1.381 . S
C194 C197 1.487 . S
C195 C192 1.382 . S
C195 C196 1.387 . S
C195 H218 0.930 . S
C196 C194 1.381 . S
C196 C195 1.387 . S
C196 H219 0.931 . S
C197 C190 1.399 . S
C197 C194 1.487 . S
C197 N229 1.343 . S
C198 C199 1.384 . S
C198 C200 1.384 . S
C198 H220 0.931 . S
C199 C198 1.384 . S
C199 C202 1.382 . S
C200 C198 1.384 . S
C200 C201 1.381 . S
C200 H221 0.930 . S
C201 C200 1.381 . S
C201 C203 1.381 . S
C201 C204 1.487 . S
C202 C199 1.382 . S
C202 C203 1.387 . S
C202 H222 0.930 . S
C203 C201 1.381 . S
C203 C202 1.387 . S
C203 H223 0.931 . S
C204 C201 1.487 . S
C204 C211 1.399 . S
C204 N229 1.343 . S
C205 C206 1.384 . S
C205 C207 1.384 . S
C205 H224 0.931 . S
C206 C205 1.384 . S
C206 C209 1.382 . S
C207 C205 1.384 . S
C207 C208 1.381 . S
C207 H225 0.930 . S
C208 C207 1.381 . S
C208 C210 1.381 . S
C208 C211 1.487 . S
C209 C206 1.382 . S
C209 C210 1.387 . S
C209 H226 0.930 . S
C210 C208 1.381 . S
C210 C209 1.387 . S
C210 H227 0.931 . S
C211 C204 1.399 . S
C211 C208 1.487 . S
C211 N228 1.343 . S
H212 C184 0.931 . S
H213 C186 0.930 . S
H214 C188 0.930 . S
H215 C189 0.931 . S
H216 C191 0.931 . S
H217 C193 0.930 . S
H218 C195 0.930 . S
H219 C196 0.931 . S
H220 C198 0.931 . S
H221 C200 0.930 . S
H222 C202 0.930 . S
H223 C203 0.931 . S
H224 C205 0.931 . S
H225 C207 0.930 . S
H226 C209 0.930 . S
H227 C210 0.931 . S
N228 C190 1.343 . S
N228 C211 1.343 . S
N229 C197 1.343 . S
N229 C204 1.343 . S
C230 C231 1.384 . S
C230 C232 1.384 . S
C230 H258 0.931 . S
C231 C230 1.384 . S
C231 C234 1.382 . S
C232 C230 1.384 . S
C232 C233 1.381 . S
C232 H259 0.930 . S
C233 C232 1.381 . S
C233 C235 1.381 . S
C233 C236 1.487 . S
C234 C231 1.382 . S
C234 C235 1.387 . S
C234 H260 0.930 . S
C235 C233 1.381 . S
C235 C234 1.387 . S
C235 H261 0.931 . S
C236 C233 1.487 . S
C236 C243 1.399 . S
C236 N274 1.343 . S
C237 C238 1.384 . S
C237 C239 1.384 . S
C237 H262 0.931 . S
C238 C237 1.384 . S
C238 C241 1.382 . S
C239 C237 1.384 . S
C239 C240 1.381 . S
C239 H263 0.930 . S
C240 C239 1.381 . S
C240 C242 1.381 . S
C240 C243 1.487 . S
C241 C238 1.382 . S
C241 C242 1.387 . S
C241 H264 0.930 . S
C242 C240 1.381 . S
C242 C241 1.387 . S
C242 H265 0.931 . S
C243 C236 1.399 . S
C243 C240 1.487 . S
C243 N275 1.343 . S
C244 C245 1.384 . S
C244 C246 1.384 . S
C244 H266 0.931 . S
C245 C244 1.384 . S
C245 C248 1.382 . S
C246 C244 1.384 . S
C246 C247 1.381 . S
C246 H267 0.930 . S
C247 C246 1.381 . S
C247 C249 1.381 . S
C247 C250 1.487 . S
C248 C245 1.382 . S
C248 C249 1.387 . S
C248 H268 0.930 . S
C249 C247 1.381 . S
C249 C248 1.387 . S
C249 H269 0.931 . S
C250 C247 1.487 . S
C250 C257 1.399 . S
C250 N275 1.343 . S
C251 C252 1.384 . S
C251 C253 1.384 . S
C251 H270 0.931 . S
C252 C251 1.384 . S
C252 C255 1.382 . S
C253 C251 1.384 . S
C253 C254 1.381 . S
C253 H271 0.930 . S
C254 C253 1.381 . S
C254 C256 1.381 . S
C254 C257 1.487 . S
C255 C252 1.382 . S
C255 C256 1.387 . S
C255 H272 0.930 . S
C256 C254 1.381 . S
C256 C255 1.387 . S
C256 H273 0.931 . S
C257 C250 1.399 . S
C257 C254 1.487 . S
C257 N274 1.343 . S
H258 C230 0.931 . S
H259 C232 0.930 . S
H260 C234 0.930 . S
H261 C235 0.931 . S
H262 C237 0.931 . S
H263 C239 0.930 . S
H264 C241 0.930 . S
H265 C242 0.931 . S
H266 C244 0.931 . S
H267 C246 0.930 . S
H268 C248 0.930 . S
H269 C249 0.931 . S
H270 C251 0.931 . S
H271 C253 0.930 . S
H272 C255 0.930 . S
H273 C256 0.931 . S
N274 C236 1.343 . S
N274 C257 1.343 . S
N275 C243 1.343 . S
N275 C250 1.343 . S
C276 C277 1.384 . S
C276 C278 1.384 . S
C276 H304 0.931 . S
C277 C276 1.384 . S
C277 C280 1.382 . S
C278 C276 1.384 . S
C278 C279 1.381 . S
C278 H305 0.930 . S
C279 C278 1.381 . S
C279 C281 1.381 . S
C279 C282 1.487 . S
C280 C277 1.382 . S
C280 C281 1.387 . S
C280 H306 0.930 . S
C281 C279 1.381 . S
C281 C280 1.387 . S
C281 H307 0.931 . S
C282 C279 1.487 . S
C282 C289 1.399 . S
C282 N320 1.343 . S
C283 C284 1.384 . S
C283 C285 1.384 . S
C283 H308 0.931 . S
C284 C283 1.384 . S
C284 C287 1.382 . S
C285 C283 1.384 . S
C285 C286 1.381 . S
C285 H309 0.930 . S
C286 C285 1.381 . S
C286 C288 1.381 . S
C286 C289 1.487 . S
C287 C284 1.382 . S
C287 C288 1.387 . S
C287 H310 0.930 . S
C288 C286 1.381 . S
C288 C287 1.387 . S
C288 H311 0.931 . S
C289 C282 1.399 . S
C289 C286 1.487 . S
C289 N321 1.343 . S
C290 C291 1.384 . S
C290 C292 1.384 . S
C290 H312 0.931 . S
C291 C290 1.384 . S
C291 C294 1.382 . S
C292 C290 1.384 . S
C292 C293 1.381 . S
C292 H313 0.930 . S
C293 C292 1.381 . S
C293 C295 1.381 . S
C293 C296 1.487 . S
C294 C291 1.382 . S
C294 C295 1.387 . S
C294 H314 0.930 . S
C295 C293 1.381 . S
C295 C294 1.387 . S
C295 H315 0.931 . S
C296 C293 1.487 . S
C296 C303 1.399 . S
C296 N321 1.343 . S
C297 C298 1.384 . S
C297 C299 1.384 . S
C297 H316 0.931 . S
C298 C297 1.384 . S
C298 C301 1.382 . S
C299 C297 1.384 . S
C299 C300 1.381 . S
C299 H317 0.930 . S
C300 C299 1.381 . S
C300 C302 1.381 . S
C300 C303 1.487 . S
C301 C298 1.382 . S
C301 C302 1.387 . S
C301 H318 0.930 . S
C302 C300 1.381 . S
C302 C301 1.387 . S
C302 H319 0.931 . S
C303 C296 1.399 . S
C303 C300 1.487 . S
C303 N320 1.343 . S
H304 C276 0.931 . S
H305 C278 0.930 . S
H306 C280 0.930 . S
H307 C281 0.931 . S
H308 C283 0.931 . S
H309 C285 0.930 . S
H310 C287 0.930 . S
H311 C288 0.931 . S
H312 C290 0.931 . S
H313 C292 0.930 . S
H314 C294 0.930 . S
H315 C295 0.931 . S
H316 C297 0.931 . S
H317 C299 0.930 . S
H318 C301 0.930 . S
H319 C302 0.931 . S
N320 C282 1.343 . S
N320 C303 1.343 . S
N321 C289 1.343 . S
N321 C296 1.343 . S
C322 C323 1.384 . S
C322 C324 1.384 . S
C322 H350 0.931 . S
C323 C322 1.384 . S
C323 C326 1.382 . S
C324 C322 1.384 . S
C324 C325 1.381 . S
C324 H351 0.930 . S
C325 C324 1.381 . S
C325 C327 1.381 . S
C325 C328 1.487 . S
C326 C323 1.382 . S
C326 C327 1.387 . S
C326 H352 0.930 . S
C327 C325 1.381 . S
C327 C326 1.387 . S
C327 H353 0.931 . S
C328 C325 1.487 . S
C328 C335 1.399 . S
C328 N366 1.343 . S
C329 C330 1.384 . S
C329 C331 1.384 . S
C329 H354 0.931 . S
C330 C329 1.384 . S
C330 C333 1.382 . S
C331 C329 1.384 . S
C331 C332 1.381 . S
C331 H355 0.930 . S
C332 C331 1.381 . S
C332 C334 1.381 . S
C332 C335 1.487 . S
C333 C330 1.382 . S
C333 C334 1.387 . S
C333 H356 0.930 . S
C334 C332 1.381 . S
C334 C333 1.387 . S
C334 H357 0.931 . S
C335 C328 1.399 . S
C335 C332 1.487 . S
C335 N367 1.343 . S
C336 C337 1.384 . S
C336 C338 1.384 . S
C336 H358 0.931 . S
C337 C336 1.384 . S
C337 C340 1.382 . S
C338 C336 1.384 . S
C338 C339 1.381 . S
C338 H359 0.930 . S
C339 C338 1.381 . S
C339 C341 1.381 . S
C339 C342 1.487 . S
C340 C337 1.382 . S
C340 C341 1.387 . S
C340 H360 0.930 . S
C341 C339 1.381 . S
C341 C340 1.387 . S
C341 H361 0.931 . S
C342 C339 1.487 . S
C342 C349 1.399 . S
C342 N367 1.343 . S
C343 C344 1.384 . S
C343 C345 1.384 . S
C343 H362 0.931 . S
C344 C343 1.384 . S
C344 C347 1.382 . S
C345 C343 1.384 . S
C345 C346 1.381 . S
C345 H363 0.930 . S
C346 C345 1.381 . S
C346 C348 1.381 . S
C346 C349 1.487 . S
C347 C344 1.382 . S
C347 C348 1.387 . S
C347 H364 0.930 . S
C348 C346 1.381 . S
C348 C347 1.387 . S
C348 H365 0.931 . S
C349 C342 1.399 . S
C349 C346 1.487 . S
C349 N366 1.343 . S
H350 C322 0.931 . S
H351 C324 0.930 . S
H352 C326 0.930 . S
H353 C327 0.931 . S
H354 C329 0.931 . S
H355 C331 0.930 . S
H356 C333 0.930 . S
H357 C334 0.931 . S
H358 C336 0.931 . S
H359 C338 0.930 . S
H360 C340 0.930 . S
H361 C341 0.931 . S
H362 C343 0.931 . S
H363 C345 0.930 . S
H364 C347 0.930 . S
H365 C348 0.931 . S
N366 C328 1.343 . S
N366 C349 1.343 . S
N367 C335 1.343 . S
N367 C342 1.343 . S
C368 C369 1.443 . S
C368 N372 1.376 . S
C368 C406 1.389 . S
C369 C368 1.443 . S
C369 C370 1.340 . S
C369 H409 0.951 . S
C370 C369 1.340 . S
C370 C371 1.439 . S
C370 H410 0.950 . S
C371 C370 1.439 . S
C371 N372 1.374 . S
C371 C405 1.395 . S
N372 C368 1.376 . S
N372 C371 1.374 . S
N372 Co373 2.008 . S
Co373 N372 2.008 . S
Co373 N374 1.995 1_455 S
Co373 N379 2.008 1_455 S
Co373 N384 1.995 . S
Co373 N389 2.282 1_455 S
Co373 N395 2.282 . S
N374 Co373 1.995 1_655 S
N374 C375 1.376 . S
N374 C378 1.383 . S
C375 N374 1.376 . S
C375 C376 1.446 . S
C375 C405 1.391 1_655 S
C376 C375 1.446 . S
C376 C377 1.339 . S
C376 H411 0.949 . S
C377 C376 1.339 . S
C377 C378 1.439 . S
C377 H412 0.950 . S
C378 N374 1.383 . S
C378 C377 1.439 . S
C378 C407 1.392 . S
N379 Co373 2.008 1_655 S
N379 C380 1.376 . S
N379 C383 1.374 . S
C380 N379 1.376 . S
C380 C381 1.443 . S
C380 C407 1.389 . S
C381 C380 1.443 . S
C381 C382 1.340 . S
C381 H413 0.951 . S
C382 C381 1.340 . S
C382 C383 1.439 . S
C382 H414 0.950 . S
C383 N379 1.374 . S
C383 C382 1.439 . S
C383 C408 1.395 . S
N384 Co373 1.995 . S
N384 C385 1.376 . S
N384 C388 1.383 . S
C385 N384 1.376 . S
C385 C386 1.446 . S
C385 C408 1.391 1_455 S
C386 C385 1.446 . S
C386 C387 1.339 . S
C386 H415 0.949 . S
C387 C386 1.339 . S
C387 C388 1.439 . S
C387 H416 0.950 . S
C388 N384 1.383 . S
C388 C387 1.439 . S
C388 C406 1.392 . S
N389 Co373 2.282 1_655 S
N389 C392 1.332 . S
N389 C394 1.332 . S
C390 C391 1.386 . S
C390 C393 1.388 . S
C391 C390 1.386 . S
C391 C392 1.382 . S
C391 H417 0.950 . S
C392 N389 1.332 . S
C392 C391 1.382 . S
C392 H403 0.952 . S
C393 C390 1.388 . S
C393 C394 1.382 . S
C393 H418 0.950 . S
C394 N389 1.332 . S
C394 C393 1.382 . S
C394 H404 0.948 . S
N395 Co373 2.282 . S
N395 C399 1.332 . S
N395 C400 1.332 . S
C396 C397 1.388 . S
C396 C400 1.382 . S
C396 H419 0.950 . S
C397 C396 1.388 . S
C397 C398 1.386 . S
C398 C397 1.386 . S
C398 C399 1.382 . S
C398 H420 0.950 . S
C399 N395 1.332 . S
C399 C398 1.382 . S
C399 H401 0.952 . S
C400 N395 1.332 . S
C400 C396 1.382 . S
C400 H402 0.948 . S
H401 C399 0.952 . S
H402 C400 0.948 . S
H403 C392 0.952 . S
H404 C394 0.948 . S
C405 C371 1.395 . S
C405 C375 1.391 1_455 S
C406 C368 1.389 . S
C406 C388 1.392 . S
C407 C378 1.392 . S
C407 C380 1.389 . S
C408 C383 1.395 . S
C408 C385 1.391 1_655 S
H409 C369 0.951 . S
H410 C370 0.950 . S
H411 C376 0.949 . S
H412 C377 0.950 . S
H413 C381 0.951 . S
H414 C382 0.950 . S
H415 C386 0.949 . S
H416 C387 0.950 . S
H417 C391 0.950 . S
H418 C393 0.950 . S
H419 C396 0.950 . S
H420 C398 0.950 . S
C421 C422 1.443 . S
C421 N425 1.376 . S
C421 C459 1.389 . S
C422 C421 1.443 . S
C422 C423 1.340 . S
C422 H462 0.951 . S
C423 C422 1.340 . S
C423 C424 1.439 . S
C423 H463 0.950 . S
C424 C423 1.439 . S
C424 N425 1.374 . S
C424 C458 1.395 . S
N425 C421 1.376 . S
N425 C424 1.374 . S
N425 Co426 2.008 . S
Co426 N425 2.008 . S
Co426 N427 1.995 1_545 S
Co426 N432 2.008 1_545 S
Co426 N437 1.995 . S
Co426 N442 2.282 1_545 S
Co426 N448 2.282 . S
N427 Co426 1.995 1_565 S
N427 C428 1.376 . S
N427 C431 1.383 . S
C428 N427 1.376 . S
C428 C429 1.446 . S
C428 C458 1.391 1_565 S
C429 C428 1.446 . S
C429 C430 1.339 . S
C429 H464 0.949 . S
C430 C429 1.339 . S
C430 C431 1.439 . S
C430 H465 0.950 . S
C431 N427 1.383 . S
C431 C430 1.439 . S
C431 C460 1.392 . S
N432 Co426 2.008 1_565 S
N432 C433 1.376 . S
N432 C436 1.374 . S
C433 N432 1.376 . S
C433 C434 1.443 . S
C433 C460 1.389 . S
C434 C433 1.443 . S
C434 C435 1.340 . S
C434 H466 0.951 . S
C435 C434 1.340 . S
C435 C436 1.439 . S
C435 H467 0.950 . S
C436 N432 1.374 . S
C436 C435 1.439 . S
C436 C461 1.421 . S
N437 Co426 1.995 . S
N437 C438 1.376 . S
N437 C441 1.383 . S
C438 N437 1.376 . S
C438 C439 1.446 . S
C438 C461 1.364 1_545 S
C439 C438 1.446 . S
C439 C440 1.339 . S
C439 H468 0.949 . S
C440 C439 1.339 . S
C440 C441 1.439 . S
C440 H469 0.950 . S
C441 N437 1.383 . S
C441 C440 1.439 . S
C441 C459 1.392 . S
N442 Co426 2.282 1_565 S
N442 C445 1.332 . S
N442 C447 1.332 . S
C443 C444 1.386 . S
C443 C446 1.388 . S
C444 C443 1.386 . S
C444 C445 1.382 . S
C444 H470 0.950 . S
C445 N442 1.332 . S
C445 C444 1.382 . S
C445 H456 0.952 . S
C446 C443 1.388 . S
C446 C447 1.382 . S
C446 H471 0.950 . S
C447 N442 1.332 . S
C447 C446 1.382 . S
C447 H457 0.948 . S
N448 Co426 2.282 . S
N448 C452 1.332 . S
N448 C453 1.332 . S
C449 C450 1.388 . S
C449 C453 1.382 . S
C449 H472 0.950 . S
C450 C449 1.388 . S
C450 C451 1.386 . S
C451 C450 1.386 . S
C451 C452 1.382 . S
C451 H473 0.950 . S
C452 N448 1.332 . S
C452 C451 1.382 . S
C452 H454 0.952 . S
C453 N448 1.332 . S
C453 C449 1.382 . S
C453 H455 0.948 . S
H454 C452 0.952 . S
H455 C453 0.948 . S
H456 C445 0.952 . S
H457 C447 0.948 . S
C458 C424 1.395 . S
C458 C428 1.391 1_545 S
C459 C421 1.389 . S
C459 C441 1.392 . S
C460 C431 1.392 . S
C460 C433 1.389 . S
C461 C436 1.421 . S
C461 C438 1.364 1_565 S
H462 C422 0.951 . S
H463 C423 0.950 . S
H464 C429 0.949 . S
H465 C430 0.950 . S
H466 C434 0.951 . S
H467 C435 0.950 . S
H468 C439 0.949 . S
H469 C440 0.950 . S
H470 C444 0.950 . S
H471 C446 0.950 . S
H472 C449 0.950 . S
H473 C451 0.950 . S
C474 C475 1.443 . S
C474 N478 1.376 . S
C474 C512 1.389 . S
C475 C474 1.443 . S
C475 C476 1.340 . S
C475 H515 0.951 . S
C476 C475 1.340 . S
C476 C477 1.439 . S
C476 H516 0.950 . S
C477 C476 1.439 . S
C477 N478 1.374 . S
C477 C511 1.395 . S
N478 C474 1.376 . S
N478 C477 1.374 . S
N478 Co479 2.032 . S
Co479 N478 2.032 . S
Co479 N480 1.975 1_455 S
Co479 N485 1.985 1_455 S
Co479 N490 2.015 . S
Co479 N495 2.250 1_455 S
Co479 N501 2.316 . S
N480 Co479 1.975 1_655 S
N480 C481 1.376 . S
N480 C484 1.383 . S
C481 N480 1.376 . S
C481 C482 1.446 . S
C481 C511 1.391 1_655 S
C482 C481 1.446 . S
C482 C483 1.339 . S
C482 H517 0.949 . S
C483 C482 1.339 . S
C483 C484 1.439 . S
C483 H518 0.950 . S
C484 N480 1.383 . S
C484 C483 1.439 . S
C484 C513 1.392 . S
N485 Co479 1.985 1_655 S
N485 C486 1.376 . S
N485 C489 1.374 . S
C486 N485 1.376 . S
C486 C487 1.443 . S
C486 C513 1.389 . S
C487 C486 1.443 . S
C487 C488 1.340 . S
C487 H519 0.951 . S
C488 C487 1.340 . S
C488 C489 1.439 . S
C488 H520 0.950 . S
C489 N485 1.374 . S
C489 C488 1.439 . S
C489 C514 1.395 . S
N490 Co479 2.015 . S
N490 C491 1.376 . S
N490 C494 1.383 . S
C491 N490 1.376 . S
C491 C492 1.446 . S
C491 C514 1.391 1_455 S
C492 C491 1.446 . S
C492 C493 1.339 . S
C492 H521 0.949 . S
C493 C492 1.339 . S
C493 C494 1.439 . S
C493 H522 0.950 . S
C494 N490 1.383 . S
C494 C493 1.439 . S
C494 C512 1.392 . S
N495 Co479 2.250 1_655 S
N495 C498 1.332 . S
N495 C500 1.332 . S
C496 C497 1.386 . S
C496 C499 1.388 . S
C497 C496 1.386 . S
C497 C498 1.382 . S
C497 H523 0.950 . S
C498 N495 1.332 . S
C498 C497 1.382 . S
C498 H509 0.952 . S
C499 C496 1.388 . S
C499 C500 1.382 . S
C499 H524 0.950 . S
C500 N495 1.332 . S
C500 C499 1.382 . S
C500 H510 0.948 . S
N501 Co479 2.316 . S
N501 C505 1.332 . S
N501 C506 1.332 . S
C502 C503 1.388 . S
C502 C506 1.382 . S
C502 H525 0.950 . S
C503 C502 1.388 . S
C503 C504 1.386 . S
C504 C503 1.386 . S
C504 C505 1.382 . S
C504 H526 0.950 . S
C505 N501 1.332 . S
C505 C504 1.382 . S
C505 H507 0.952 . S
C506 N501 1.332 . S
C506 C502 1.382 . S
C506 H508 0.948 . S
H507 C505 0.952 . S
H508 C506 0.948 . S
H509 C498 0.952 . S
H510 C500 0.948 . S
C511 C477 1.395 . S
C511 C481 1.391 1_455 S
C512 C474 1.389 . S
C512 C494 1.392 . S
C513 C484 1.392 . S
C513 C486 1.389 . S
C514 C489 1.395 . S
C514 C491 1.391 1_655 S
H515 C475 0.951 . S
H516 C476 0.950 . S
H517 C482 0.949 . S
H518 C483 0.950 . S
H519 C487 0.951 . S
H520 C488 0.950 . S
H521 C492 0.949 . S
H522 C493 0.950 . S
H523 C497 0.950 . S
H524 C499 0.950 . S
H525 C502 0.950 . S
H526 C504 0.950 . S
C527 C528 1.443 . S
C527 N531 1.376 . S
C527 C565 1.389 . S
C528 C527 1.443 . S
C528 C529 1.340 . S
C528 H568 0.951 . S
C529 C528 1.340 . S
C529 C530 1.439 . S
C529 H569 0.950 . S
C530 C529 1.439 . S
C530 N531 1.374 . S
C530 C564 1.425 . S
N531 C527 1.376 . S
N531 C530 1.374 . S
N531 Co532 2.008 1_565 S
Co532 N531 2.008 1_545 S
Co532 N533 1.995 . S
Co532 N538 2.008 . S
Co532 N543 1.995 1_545 S
Co532 N548 2.282 . S
Co532 N554 2.282 1_545 S
N533 Co532 1.995 . S
N533 C534 1.376 . S
N533 C537 1.383 . S
C534 N533 1.376 . S
C534 C535 1.446 . S
C534 C564 1.360 1_545 S
C535 C534 1.446 . S
C535 C536 1.339 . S
C535 H570 0.949 . S
C536 C535 1.339 . S
C536 C537 1.439 . S
C536 H571 0.950 . S
C537 N533 1.383 . S
C537 C536 1.439 . S
C537 C566 1.392 . S
N538 Co532 2.008 . S
N538 C539 1.376 . S
N538 C542 1.374 . S
C539 N538 1.376 . S
C539 C540 1.443 . S
C539 C566 1.389 . S
C540 C539 1.443 . S
C540 C541 1.340 . S
C540 H572 0.951 . S
C541 C540 1.340 . S
C541 C542 1.439 . S
C541 H573 0.950 . S
C542 N538 1.374 . S
C542 C541 1.439 . S
C542 C567 1.395 . S
N543 Co532 1.995 1_565 S
N543 C544 1.376 . S
N543 C547 1.383 . S
C544 N543 1.376 . S
C544 C545 1.446 . S
C544 C567 1.391 1_565 S
C545 C544 1.446 . S
C545 C546 1.339 . S
C545 H574 0.949 . S
C546 C545 1.339 . S
C546 C547 1.439 . S
C546 H575 0.950 . S
C547 N543 1.383 . S
C547 C546 1.439 . S
C547 C565 1.392 . S
N548 Co532 2.282 . S
N548 C551 1.332 . S
N548 C553 1.332 . S
C549 C550 1.386 . S
C549 C552 1.388 . S
C550 C549 1.386 . S
C550 C551 1.382 . S
C550 H576 0.950 . S
C551 N548 1.332 . S
C551 C550 1.382 . S
C551 H562 0.952 . S
C552 C549 1.388 . S
C552 C553 1.382 . S
C552 H577 0.950 . S
C553 N548 1.332 . S
C553 C552 1.382 . S
C553 H563 0.948 . S
N554 Co532 2.282 1_565 S
N554 C558 1.332 . S
N554 C559 1.332 . S
C555 C556 1.388 . S
C555 C559 1.382 . S
C555 H578 0.950 . S
C556 C555 1.388 . S
C556 C557 1.386 . S
C557 C556 1.386 . S
C557 C558 1.382 . S
C557 H579 0.950 . S
C558 N554 1.332 . S
C558 C557 1.382 . S
C558 H560 0.952 . S
C559 N554 1.332 . S
C559 C555 1.382 . S
C559 H561 0.948 . S
H560 C558 0.952 . S
H561 C559 0.948 . S
H562 C551 0.952 . S
H563 C553 0.948 . S
C564 C530 1.425 . S
C564 C534 1.360 1_565 S
C565 C527 1.389 . S
C565 C547 1.392 . S
C566 C537 1.392 . S
C566 C539 1.389 . S
C567 C542 1.395 . S
C567 C544 1.391 1_545 S
H568 C528 0.951 . S
H569 C529 0.950 . S
H570 C535 0.949 . S
H571 C536 0.950 . S
H572 C540 0.951 . S
H573 C541 0.950 . S
H574 C545 0.949 . S
H575 C546 0.950 . S
H576 C550 0.950 . S
H577 C552 0.950 . S
H578 C555 0.950 . S
H579 C557 0.950 . S
C580 C581 1.443 . S
C580 N584 1.376 . S
C580 C618 1.389 . S
C581 C580 1.443 . S
C581 C582 1.340 . S
C581 H621 0.951 . S
C582 C581 1.340 . S
C582 C583 1.439 . S
C582 H622 0.950 . S
C583 C582 1.439 . S
C583 N584 1.374 . S
C583 C617 1.383 1_554 S
N584 C580 1.376 . S
N584 C583 1.374 . S
N584 Co585 2.008 . S
Co585 N584 2.008 . S
Co585 N586 1.995 1_554 S
Co585 N591 2.008 1_554 S
Co585 N596 1.995 . S
Co585 N601 2.282 . S
Co585 N607 2.282 1_554 S
N586 Co585 1.995 1_556 S
N586 C587 1.376 . S
N586 C590 1.383 . S
C587 N586 1.376 . S
C587 C588 1.446 . S
C587 C617 1.403 . S
C588 C587 1.446 . S
C588 C589 1.339 . S
C588 H623 0.949 . S
C589 C588 1.339 . S
C589 C590 1.439 . S
C589 H624 0.950 . S
C590 N586 1.383 . S
C590 C589 1.439 . S
C590 C619 1.392 . S
N591 Co585 2.008 1_556 S
N591 C592 1.376 . S
N591 C595 1.374 . S
C592 N591 1.376 . S
C592 C593 1.443 . S
C592 C619 1.389 . S
C593 C592 1.443 . S
C593 C594 1.340 . S
C593 H625 0.951 . S
C594 C593 1.340 . S
C594 C595 1.439 . S
C594 H626 0.950 . S
C595 N591 1.374 . S
C595 C594 1.439 . S
C595 C620 1.379 1_556 S
N596 Co585 1.995 . S
N596 C597 1.376 . S
N596 C600 1.383 . S
C597 N596 1.376 . S
C597 C598 1.446 . S
C597 C620 1.406 . S
C598 C597 1.446 . S
C598 C599 1.339 . S
C598 H627 0.949 . S
C599 C598 1.339 . S
C599 C600 1.439 . S
C599 H628 0.950 . S
C600 N596 1.383 . S
C600 C599 1.439 . S
C600 C618 1.392 . S
N601 Co585 2.282 . S
N601 C604 1.332 . S
N601 C606 1.332 . S
C602 C603 1.386 . S
C602 C605 1.388 . S
C603 C602 1.386 . S
C603 C604 1.382 . S
C603 H629 0.950 . S
C604 N601 1.332 . S
C604 C603 1.382 . S
C604 H615 0.952 . S
C605 C602 1.388 . S
C605 C606 1.382 . S
C605 H630 0.950 . S
C606 N601 1.332 . S
C606 C605 1.382 . S
C606 H616 0.948 . S
N607 Co585 2.282 1_556 S
N607 C611 1.332 . S
N607 C612 1.332 . S
C608 C609 1.388 . S
C608 C612 1.382 . S
C608 H631 0.950 . S
C609 C608 1.388 . S
C609 C610 1.386 . S
C610 C609 1.386 . S
C610 C611 1.382 . S
C610 H632 0.950 . S
C611 N607 1.332 . S
C611 C610 1.382 . S
C611 H613 0.952 . S
C612 N607 1.332 . S
C612 C608 1.382 . S
C612 H614 0.948 . S
H613 C611 0.952 . S
H614 C612 0.948 . S
H615 C604 0.952 . S
H616 C606 0.948 . S
C617 C583 1.383 1_556 S
C617 C587 1.403 . S
C618 C580 1.389 . S
C618 C600 1.392 . S
C619 C590 1.392 . S
C619 C592 1.389 . S
C620 C595 1.379 1_554 S
C620 C597 1.406 . S
H621 C581 0.951 . S
H622 C582 0.950 . S
H623 C588 0.949 . S
H624 C589 0.950 . S
H625 C593 0.951 . S
H626 C594 0.950 . S
H627 C598 0.949 . S
H628 C599 0.950 . S
H629 C603 0.950 . S
H630 C605 0.950 . S
H631 C608 0.950 . S
H632 C610 0.950 . S
C633 C634 1.443 . S
C633 N637 1.376 . S
C633 C671 1.389 . S
C634 C633 1.443 . S
C634 C635 1.340 . S
C634 H674 0.951 . S
C635 C634 1.340 . S
C635 C636 1.439 . S
C635 H675 0.950 . S
C636 C635 1.439 . S
C636 N637 1.374 . S
C636 C670 1.381 1_554 S
N637 C633 1.376 . S
N637 C636 1.374 . S
N637 Co638 2.008 . S
Co638 N637 2.008 . S
Co638 N639 1.995 1_554 S
Co638 N644 2.008 1_554 S
Co638 N649 1.995 . S
Co638 N654 2.282 . S
Co638 N660 2.282 1_554 S
N639 Co638 1.995 1_556 S
N639 C640 1.376 . S
N639 C643 1.383 . S
C640 N639 1.376 . S
C640 C641 1.446 . S
C640 C670 1.403 . S
C641 C640 1.446 . S
C641 C642 1.339 . S
C641 H676 0.949 . S
C642 C641 1.339 . S
C642 C643 1.439 . S
C642 H677 0.950 . S
C643 N639 1.383 . S
C643 C642 1.439 . S
C643 C672 1.392 . S
N644 Co638 2.008 1_556 S
N644 C645 1.376 . S
N644 C648 1.374 1_556 S
C645 N644 1.376 . S
C645 C646 1.443 . S
C645 C672 1.389 . S
C646 C645 1.443 . S
C646 C647 1.340 . S
C646 H678 0.951 . S
C647 C646 1.340 . S
C647 C648 1.439 1_556 S
C647 H679 0.950 . S
C648 N644 1.374 1_554 S
C648 C647 1.439 1_554 S
C648 C673 1.395 . S
N649 Co638 1.995 . S
N649 C650 1.376 . S
N649 C653 1.383 . S
C650 N649 1.376 . S
C650 C651 1.446 . S
C650 C673 1.391 . S
C651 C650 1.446 . S
C651 C652 1.339 . S
C651 H680 0.949 . S
C652 C651 1.339 . S
C652 C653 1.439 . S
C652 H681 0.950 . S
C653 N649 1.383 . S
C653 C652 1.439 . S
C653 C671 1.392 . S
N654 Co638 2.282 . S
N654 C657 1.332 . S
N654 C659 1.332 . S
C655 C656 1.386 . S
C655 C658 1.388 . S
C656 C655 1.386 . S
C656 C657 1.382 . S
C656 H682 0.950 . S
C657 N654 1.332 . S
C657 C656 1.382 . S
C657 H668 0.952 . S
C658 C655 1.388 . S
C658 C659 1.382 . S
C658 H683 0.950 . S
C659 N654 1.332 . S
C659 C658 1.382 . S
C659 H669 0.948 . S
N660 Co638 2.282 1_556 S
N660 C664 1.332 . S
N660 C665 1.332 . S
C661 C662 1.388 . S
C661 C665 1.382 . S
C661 H684 0.950 . S
C662 C661 1.388 . S
C662 C663 1.386 . S
C663 C662 1.386 . S
C663 C664 1.382 . S
C663 H685 0.950 . S
C664 N660 1.332 . S
C664 C663 1.382 . S
C664 H666 0.952 . S
C665 N660 1.332 . S
C665 C661 1.382 . S
C665 H667 0.948 . S
H666 C664 0.952 . S
H667 C665 0.948 . S
H668 C657 0.952 . S
H669 C659 0.948 . S
C670 C636 1.381 1_556 S
C670 C640 1.403 . S
C671 C633 1.389 . S
C671 C653 1.392 . S
C672 C643 1.392 . S
C672 C645 1.389 . S
C673 C648 1.395 . S
C673 C650 1.391 . S
H674 C634 0.951 . S
H675 C635 0.950 . S
H676 C641 0.949 . S
H677 C642 0.950 . S
H678 C646 0.951 . S
H679 C647 0.950 . S
H680 C651 0.949 . S
H681 C652 0.950 . S
H682 C656 0.950 . S
H683 C658 0.950 . S
H684 C661 0.950 . S
H685 C663 0.950 . S
C686 C687 1.443 . S
C686 N690 1.376 1_556 S
C686 C724 1.389 . S
C687 C686 1.443 . S
C687 C688 1.352 . S
C687 H727 0.951 . S
C688 C687 1.352 . S
C688 C689 1.429 1_556 S
C688 H728 0.949 1_556 S
C689 C688 1.429 1_554 S
C689 N690 1.374 . S
C689 C723 1.395 . S
N690 C686 1.376 1_554 S
N690 C689 1.374 . S
N690 Co691 2.008 . S
Co691 N690 2.008 . S
Co691 N692 1.995 . S
Co691 N697 2.008 . S
Co691 N702 1.995 1_554 S
Co691 N707 2.282 1_554 S
Co691 N713 2.282 . S
N692 Co691 1.995 . S
N692 C693 1.376 . S
N692 C696 1.383 . S
C693 N692 1.376 . S
C693 C694 1.446 . S
C693 C723 1.391 . S
C694 C693 1.446 . S
C694 C695 1.339 . S
C694 H729 0.949 . S
C695 C694 1.339 . S
C695 C696 1.439 . S
C695 H730 0.950 . S
C696 N692 1.383 . S
C696 C695 1.439 . S
C696 C725 1.392 . S
N697 Co691 2.008 . S
N697 C698 1.376 . S
N697 C701 1.374 . S
C698 N697 1.376 . S
C698 C699 1.443 . S
C698 C725 1.389 . S
C699 C698 1.443 . S
C699 C700 1.340 . S
C699 H731 0.951 . S
C700 C699 1.340 . S
C700 C701 1.439 . S
C700 H732 0.950 . S
C701 N697 1.374 . S
C701 C700 1.439 . S
C701 C726 1.395 . S
N702 Co691 1.995 1_556 S
N702 C703 1.376 . S
N702 C706 1.383 . S
C703 N702 1.376 . S
C703 C704 1.446 . S
C703 C726 1.391 1_556 S
C704 C703 1.446 . S
C704 C705 1.339 . S
C704 H733 0.949 . S
C705 C704 1.339 . S
C705 C706 1.439 . S
C705 H734 0.950 . S
C706 N702 1.383 . S
C706 C705 1.439 . S
C706 C724 1.392 . S
N707 Co691 2.282 1_556 S
N707 C710 1.332 . S
N707 C712 1.332 . S
C708 C709 1.386 . S
C708 C711 1.388 . S
C709 C708 1.386 . S
C709 C710 1.382 . S
C709 H735 0.950 . S
C710 N707 1.332 . S
C710 C709 1.382 . S
C710 H721 0.952 . S
C711 C708 1.388 . S
C711 C712 1.382 . S
C711 H736 0.950 . S
C712 N707 1.332 . S
C712 C711 1.382 . S
C712 H722 0.948 1_556 S
N713 Co691 2.282 . S
N713 C717 1.332 . S
N713 C718 1.332 . S
C714 C715 1.388 . S
C714 C718 1.382 . S
C714 H737 0.950 . S
C715 C714 1.388 . S
C715 C716 1.386 . S
C716 C715 1.386 . S
C716 C717 1.382 . S
C716 H738 0.950 . S
C717 N713 1.332 . S
C717 C716 1.382 . S
C717 H719 0.952 . S
C718 N713 1.332 . S
C718 C714 1.382 . S
C718 H720 0.948 . S
H719 C717 0.952 . S
H720 C718 0.948 . S
H721 C710 0.952 . S
H722 C712 0.948 1_554 S
C723 C689 1.395 . S
C723 C693 1.391 . S
C724 C686 1.389 . S
C724 C706 1.392 . S
C725 C696 1.392 . S
C725 C698 1.389 . S
C726 C701 1.395 . S
C726 C703 1.391 1_554 S
H727 C687 0.951 . S
H728 C688 0.949 1_554 S
H729 C694 0.949 . S
H730 C695 0.950 . S
H731 C699 0.951 . S
H732 C700 0.950 . S
H733 C704 0.949 . S
H734 C705 0.950 . S
H735 C709 0.950 . S
H736 C711 0.950 . S
H737 C714 0.950 . S
H738 C716 0.950 . S
C739 C740 1.443 . S
C739 N743 1.376 . S
C739 C777 1.389 . S
C740 C739 1.443 . S
C740 C741 1.340 . S
C740 H780 0.951 . S
C741 C740 1.340 . S
C741 C742 1.439 . S
C741 H781 0.950 . S
C742 C741 1.439 . S
C742 N743 1.374 . S
C742 C776 1.395 1_554 S
N743 C739 1.376 . S
N743 C742 1.374 . S
N743 Co744 2.008 . S
Co744 N743 2.008 . S
Co744 N745 1.995 1_554 S
Co744 N750 2.008 1_554 S
Co744 N755 1.995 . S
Co744 N760 2.282 . S
Co744 N766 2.282 1_554 S
N745 Co744 1.995 1_556 S
N745 C746 1.376 . S
N745 C749 1.383 . S
C746 N745 1.376 . S
C746 C747 1.446 . S
C746 C776 1.391 . S
C747 C746 1.446 . S
C747 C748 1.339 . S
C747 H782 0.949 . S
C748 C747 1.339 . S
C748 C749 1.439 . S
C748 H783 0.950 . S
C749 N745 1.383 . S
C749 C748 1.439 . S
C749 C778 1.392 . S
N750 Co744 2.008 1_556 S
N750 C751 1.376 . S
N750 C754 1.374 1_556 S
C751 N750 1.376 . S
C751 C752 1.443 . S
C751 C778 1.389 . S
C752 C751 1.443 . S
C752 C753 1.340 . S
C752 H784 0.951 . S
C753 C752 1.340 . S
C753 C754 1.439 1_556 S
C753 H785 0.950 . S
C754 N750 1.374 1_554 S
C754 C753 1.439 1_554 S
C754 C779 1.395 . S
N755 Co744 1.995 . S
N755 C756 1.376 . S
N755 C759 1.383 . S
C756 N755 1.376 . S
C756 C757 1.446 . S
C756 C779 1.391 . S
C757 C756 1.446 . S
C757 C758 1.339 . S
C757 H786 0.949 . S
C758 C757 1.339 . S
C758 C759 1.439 . S
C758 H787 0.950 . S
C759 N755 1.383 . S
C759 C758 1.439 . S
C759 C777 1.392 . S
N760 Co744 2.282 . S
N760 C763 1.332 . S
N760 C765 1.332 . S
C761 C762 1.386 . S
C761 C764 1.388 . S
C762 C761 1.386 . S
C762 C763 1.382 . S
C762 H788 0.950 . S
C763 N760 1.332 . S
C763 C762 1.382 . S
C763 H774 0.952 . S
C764 C761 1.388 . S
C764 C765 1.382 . S
C764 H789 0.950 . S
C765 N760 1.332 . S
C765 C764 1.382 . S
C765 H775 0.948 . S
N766 Co744 2.282 1_556 S
N766 C770 1.332 . S
N766 C771 1.332 . S
C767 C768 1.388 . S
C767 C771 1.382 . S
C767 H790 0.950 . S
C768 C767 1.388 . S
C768 C769 1.386 . S
C769 C768 1.386 . S
C769 C770 1.382 . S
C769 H791 0.950 . S
C770 N766 1.332 . S
C770 C769 1.382 . S
C770 H772 0.952 . S
C771 N766 1.332 . S
C771 C767 1.382 . S
C771 H773 0.948 . S
H772 C770 0.952 . S
H773 C771 0.948 . S
H774 C763 0.952 . S
H775 C765 0.948 . S
C776 C742 1.395 1_556 S
C776 C746 1.391 . S
C777 C739 1.389 . S
C777 C759 1.392 . S
C778 C749 1.392 . S
C778 C751 1.389 . S
C779 C754 1.395 . S
C779 C756 1.391 . S
H780 C740 0.951 . S
H781 C741 0.950 . S
H782 C747 0.949 . S
H783 C748 0.950 . S
H784 C752 0.951 . S
H785 C753 0.950 . S
H786 C757 0.949 . S
H787 C758 0.950 . S
H788 C762 0.950 . S
H789 C764 0.950 . S
H790 C767 0.950 . S
H791 C769 0.950 . S
C792 C793 1.369 . S
C792 C794 1.419 . S
C792 H796 0.930 . S
C793 C792 1.369 . S
C793 C802 1.429 . S
C794 C792 1.419 . S
C794 C795 1.363 . S
C794 H797 0.929 . S
C795 C794 1.363 . S
C795 C801 1.428 . S
H796 C792 0.930 . S
H797 C794 0.929 . S
S798 N799 1.613 . S
S798 N800 1.610 . S
N799 S798 1.613 . S
N799 C802 1.350 . S
N800 S798 1.610 . S
N800 C801 1.351 . S
C801 C795 1.428 . S
C801 N800 1.351 . S
C801 C802 1.434 . S
C802 C793 1.429 . S
C802 N799 1.350 . S
C802 C801 1.434 . S
C803 C804 1.369 . S
C803 C805 1.419 . S
C803 H807 0.930 . S
C804 C803 1.369 . S
C804 C813 1.429 . S
C805 C803 1.419 . S
C805 C806 1.363 . S
C805 H808 0.929 . S
C806 C805 1.363 . S
C806 C812 1.428 . S
H807 C803 0.930 . S
H808 C805 0.929 . S
S809 N810 1.613 . S
S809 N811 1.610 . S
N810 S809 1.613 . S
N810 C813 1.350 . S
N811 S809 1.610 . S
N811 C812 1.351 . S
C812 C806 1.428 . S
C812 N811 1.351 . S
C812 C813 1.434 . S
C813 C804 1.429 . S
C813 N810 1.350 . S
C813 C812 1.434 . S
C814 C815 1.369 . S
C814 C816 1.419 . S
C814 H818 0.930 . S
C815 C814 1.369 . S
C815 C824 1.429 . S
C816 C814 1.419 . S
C816 C817 1.363 . S
C816 H819 0.929 . S
C817 C816 1.363 . S
C817 C823 1.428 . S
H818 C814 0.930 . S
H819 C816 0.929 . S
S820 N821 1.613 . S
S820 N822 1.610 . S
N821 S820 1.613 . S
N821 C824 1.350 . S
N822 S820 1.610 . S
N822 C823 1.351 . S
C823 C817 1.428 . S
C823 N822 1.351 . S
C823 C824 1.434 . S
C824 C815 1.429 . S
C824 N821 1.350 . S
C824 C823 1.434 . S
C825 C826 1.369 . S
C825 C827 1.419 . S
C825 H829 0.930 . S
C826 C825 1.369 . S
C826 C835 1.429 . S
C827 C825 1.419 . S
C827 C828 1.363 . S
C827 H830 0.929 . S
C828 C827 1.363 . S
C828 C834 1.428 . S
H829 C825 0.930 . S
H830 C827 0.929 . S
S831 N832 1.613 . S
S831 N833 1.610 . S
N832 S831 1.613 . S
N832 C835 1.350 . S
N833 S831 1.610 . S
N833 C834 1.351 . S
C834 C828 1.428 . S
C834 N833 1.351 . S
C834 C835 1.434 . S
C835 C826 1.429 . S
C835 N832 1.350 . S
C835 C834 1.434 . S
C836 C837 1.369 . S
C836 C838 1.419 . S
C836 H840 0.930 . S
C837 C836 1.369 . S
C837 C846 1.429 . S
C838 C836 1.419 . S
C838 C839 1.363 . S
C838 H841 0.929 . S
C839 C838 1.363 . S
C839 C845 1.428 . S
H840 C836 0.930 . S
H841 C838 0.929 . S
S842 N843 1.613 . S
S842 N844 1.610 . S
N843 S842 1.613 . S
N843 C846 1.350 . S
N844 S842 1.610 . S
N844 C845 1.351 . S
C845 C839 1.428 . S
C845 N844 1.351 . S
C845 C846 1.434 . S
C846 C837 1.429 . S
C846 N843 1.350 . S
C846 C845 1.434 . S
C847 C848 1.369 . S
C847 C849 1.419 . S
C847 H851 0.930 . S
C848 C847 1.369 . S
C848 C857 1.429 . S
C849 C847 1.419 . S
C849 C850 1.363 . S
C849 H852 0.929 . S
C850 C849 1.363 . S
C850 C856 1.428 . S
H851 C847 0.930 . S
H852 C849 0.929 . S
S853 N854 1.613 . S
S853 N855 1.610 . S
N854 S853 1.613 . S
N854 C857 1.350 . S
N855 S853 1.610 . S
N855 C856 1.351 . S
C856 C850 1.428 . S
C856 N855 1.351 . S
C856 C857 1.434 . S
C857 C848 1.429 . S
C857 N854 1.350 . S
C857 C856 1.434 . S
C858 C859 1.369 . S
C858 C860 1.419 . S
C858 H862 0.930 . S
C859 C858 1.369 . S
C859 C868 1.429 . S
C860 C858 1.419 . S
C860 C861 1.363 . S
C860 H863 0.929 . S
C861 C860 1.363 . S
C861 C867 1.428 . S
H862 C858 0.930 . S
H863 C860 0.929 . S
S864 N865 1.613 . S
S864 N866 1.610 . S
N865 S864 1.613 . S
N865 C868 1.350 . S
N866 S864 1.610 . S
N866 C867 1.351 . S
C867 C861 1.428 . S
C867 N866 1.351 . S
C867 C868 1.434 . S
C868 C859 1.429 . S
C868 N865 1.350 . S
C868 C867 1.434 . S
C869 C870 1.369 . S
C869 C871 1.419 . S
C869 H873 0.930 . S
C870 C869 1.369 . S
C870 C879 1.429 . S
C871 C869 1.419 . S
C871 C872 1.363 . S
C871 H874 0.929 . S
C872 C871 1.363 . S
C872 C878 1.428 . S
H873 C869 0.930 . S
H874 C871 0.929 . S
S875 N876 1.613 . S
S875 N877 1.610 . S
N876 S875 1.613 . S
N876 C879 1.350 . S
N877 S875 1.610 . S
N877 C878 1.351 . S
C878 C872 1.428 . S
C878 N877 1.351 . S
C878 C879 1.434 . S
C879 C870 1.429 . S
C879 N876 1.350 . S
C879 C878 1.434 . S
C880 C881 1.369 . S
C880 C882 1.419 . S
C880 H884 0.930 . S
C881 C880 1.369 . S
C881 C890 1.429 . S
C882 C880 1.419 . S
C882 C883 1.363 . S
C882 H885 0.929 . S
C883 C882 1.363 . S
C883 C889 1.428 . S
H884 C880 0.930 . S
H885 C882 0.929 . S
S886 N887 1.613 . S
S886 N888 1.610 . S
N887 S886 1.613 . S
N887 C890 1.350 . S
N888 S886 1.610 . S
N888 C889 1.351 . S
C889 C883 1.428 . S
C889 N888 1.351 . S
C889 C890 1.434 . S
C890 C881 1.429 . S
C890 N887 1.350 . S
C890 C889 1.434 . S
C891 C892 1.369 . S
C891 C893 1.419 . S
C891 H895 0.930 . S
C892 C891 1.369 . S
C892 C901 1.429 . S
C893 C891 1.419 . S
C893 C894 1.363 . S
C893 H896 0.929 . S
C894 C893 1.363 . S
C894 C900 1.428 . S
H895 C891 0.930 . S
H896 C893 0.929 . S
S897 N898 1.613 . S
S897 N899 1.610 . S
N898 S897 1.613 . S
N898 C901 1.350 . S
N899 S897 1.610 . S
N899 C900 1.351 . S
C900 C894 1.428 . S
C900 N899 1.351 . S
C900 C901 1.434 . S
C901 C892 1.429 . S
C901 N898 1.350 . S
C901 C900 1.434 . S
C902 C903 1.369 . S
C902 C904 1.419 . S
C902 H906 0.930 . S
C903 C902 1.369 . S
C903 C912 1.429 . S
C904 C902 1.419 . S
C904 C905 1.363 . S
C904 H907 0.929 . S
C905 C904 1.363 . S
C905 C911 1.428 . S
H906 C902 0.930 . S
H907 C904 0.929 . S
S908 N909 1.613 . S
S908 N910 1.610 . S
N909 S908 1.613 . S
N909 C912 1.350 . S
N910 S908 1.610 . S
N910 C911 1.351 . S
C911 C905 1.428 . S
C911 N910 1.351 . S
C911 C912 1.434 . S
C912 C903 1.429 . S
C912 N909 1.350 . S
C912 C911 1.434 . S
C913 C914 1.369 . S
C913 C915 1.419 . S
C913 H917 0.930 . S
C914 C913 1.369 . S
C914 C923 1.429 . S
C915 C913 1.419 . S
C915 C916 1.363 . S
C915 H918 0.929 . S
C916 C915 1.363 . S
C916 C922 1.428 . S
H917 C913 0.930 . S
H918 C915 0.929 . S
S919 N920 1.613 . S
S919 N921 1.610 . S
N920 S919 1.613 . S
N920 C923 1.350 . S
N921 S919 1.610 . S
N921 C922 1.351 . S
C922 C916 1.428 . S
C922 N921 1.351 . S
C922 C923 1.434 . S
C923 C914 1.429 . S
C923 N920 1.350 . S
C923 C922 1.434 . S
C924 C925 1.369 . S
C924 C926 1.419 . S
C924 H928 0.930 . S
C925 C924 1.369 . S
C925 C934 1.429 . S
C926 C924 1.419 . S
C926 C927 1.363 . S
C926 H929 0.929 . S
C927 C926 1.363 . S
C927 C933 1.428 . S
H928 C924 0.930 . S
H929 C926 0.929 . S
S930 N931 1.613 . S
S930 N932 1.610 . S
N931 S930 1.613 . S
N931 C934 1.350 . S
N932 S930 1.610 . S
N932 C933 1.351 . S
C933 C927 1.428 . S
C933 N932 1.351 . S
C933 C934 1.434 . S
C934 C925 1.429 . S
C934 N931 1.350 . S
C934 C933 1.434 . S
C935 C936 1.369 . S
C935 C937 1.419 . S
C935 H939 0.930 . S
C936 C935 1.369 . S
C936 C945 1.429 . S
C937 C935 1.419 . S
C937 C938 1.363 . S
C937 H940 0.929 . S
C938 C937 1.363 . S
C938 C944 1.428 . S
H939 C935 0.930 . S
H940 C937 0.929 . S
S941 N942 1.613 . S
S941 N943 1.610 . S
N942 S941 1.613 . S
N942 C945 1.350 . S
N943 S941 1.610 . S
N943 C944 1.351 . S
C944 C938 1.428 . S
C944 N943 1.351 . S
C944 C945 1.434 . S
C945 C936 1.429 . S
C945 N942 1.350 . S
C945 C944 1.434 . S
C946 C947 1.369 . S
C946 C948 1.419 . S
C946 H950 0.930 . S
C947 C946 1.369 . S
C947 C956 1.429 . S
C948 C946 1.419 . S
C948 C949 1.363 . S
C948 H951 0.929 . S
C949 C948 1.363 . S
C949 C955 1.428 . S
H950 C946 0.930 . S
H951 C948 0.929 . S
S952 N953 1.613 . S
S952 N954 1.610 . S
N953 S952 1.613 . S
N953 C956 1.350 . S
N954 S952 1.610 . S
N954 C955 1.351 . S
C955 C949 1.428 . S
C955 N954 1.351 . S
C955 C956 1.434 . S
C956 C947 1.429 . S
C956 N953 1.350 . S
C956 C955 1.434 . S
C957 C958 1.369 . S
C957 C959 1.419 . S
C957 H961 0.930 . S
C958 C957 1.369 . S
C958 C967 1.429 . S
C959 C957 1.419 . S
C959 C960 1.363 . S
C959 H962 0.929 . S
C960 C959 1.363 . S
C960 C966 1.428 . S
H961 C957 0.930 . S
H962 C959 0.929 . S
S963 N964 1.613 . S
S963 N965 1.610 . S
N964 S963 1.613 . S
N964 C967 1.350 . S
N965 S963 1.610 . S
N965 C966 1.351 . S
C966 C960 1.428 . S
C966 N965 1.351 . S
C966 C967 1.434 . S
C967 C958 1.429 . S
C967 N964 1.350 . S
C967 C966 1.434 . S
C968 C969 1.369 . S
C968 C970 1.419 . S
C968 H972 0.930 . S
C969 C968 1.369 . S
C969 C978 1.429 . S
C970 C968 1.419 . S
C970 C971 1.363 . S
C970 H973 0.929 . S
C971 C970 1.363 . S
C971 C977 1.428 . S
H972 C968 0.930 . S
H973 C970 0.929 . S
S974 N975 1.613 . S
S974 N976 1.610 . S
N975 S974 1.613 . S
N975 C978 1.350 . S
N976 S974 1.610 . S
N976 C977 1.351 . S
C977 C971 1.428 . S
C977 N976 1.351 . S
C977 C978 1.434 . S
C978 C969 1.429 . S
C978 N975 1.350 . S
C978 C977 1.434 . S
C979 C980 1.369 . S
C979 C981 1.419 . S
C979 H983 0.930 . S
C980 C979 1.369 . S
C980 C989 1.429 . S
C981 C979 1.419 . S
C981 C982 1.363 . S
C981 H984 0.929 . S
C982 C981 1.363 . S
C982 C988 1.428 . S
H983 C979 0.930 . S
H984 C981 0.929 . S
S985 N986 1.613 . S
S985 N987 1.610 . S
N986 S985 1.613 . S
N986 C989 1.350 . S
N987 S985 1.610 . S
N987 C988 1.351 . S
C988 C982 1.428 . S
C988 N987 1.351 . S
C988 C989 1.434 . S
C989 C980 1.429 . S
C989 N986 1.350 . S
C989 C988 1.434 . S
C990 C991 1.369 . S
C990 C992 1.419 . S
C990 H994 0.930 . S
C991 C990 1.369 . S
C991 C1000 1.429 . S
C992 C990 1.419 . S
C992 C993 1.363 . S
C992 H995 0.929 . S
C993 C992 1.363 . S
C993 C999 1.428 . S
H994 C990 0.930 . S
H995 C992 0.929 . S
S996 N997 1.613 . S
S996 N998 1.610 . S
N997 S996 1.613 . S
N997 C1000 1.350 . S
N998 S996 1.610 . S
N998 C999 1.351 . S
C999 C993 1.428 . S
C999 N998 1.351 . S
C999 C1000 1.434 . S
C1000 C991 1.429 . S
C1000 N997 1.350 . S
C1000 C999 1.434 . S
C1001 C1002 1.369 . S
C1001 C1003 1.419 . S
C1001 H1005 0.930 . S
C1002 C1001 1.369 . S
C1002 C1011 1.429 . S
C1003 C1001 1.419 . S
C1003 C1004 1.363 . S
C1003 H1006 0.929 . S
C1004 C1003 1.363 . S
C1004 C1010 1.428 . S
H1005 C1001 0.930 . S
H1006 C1003 0.929 . S
S1007 N1008 1.613 . S
S1007 N1009 1.610 . S
N1008 S1007 1.613 . S
N1008 C1011 1.350 . S
N1009 S1007 1.610 . S
N1009 C1010 1.351 . S
C1010 C1004 1.428 . S
C1010 N1009 1.351 . S
C1010 C1011 1.434 . S
C1011 C1002 1.429 . S
C1011 N1008 1.350 . S
C1011 C1010 1.434 . S
C1012 C1013 1.369 . S
C1012 C1014 1.419 . S
C1012 H1016 0.930 . S
C1013 C1012 1.369 . S
C1013 C1022 1.429 . S
C1014 C1012 1.419 . S
C1014 C1015 1.363 . S
C1014 H1017 0.929 . S
C1015 C1014 1.363 . S
C1015 C1021 1.428 . S
H1016 C1012 0.930 . S
H1017 C1014 0.929 . S
S1018 N1019 1.613 . S
S1018 N1020 1.610 . S
N1019 S1018 1.613 . S
N1019 C1022 1.350 . S
N1020 S1018 1.610 . S
N1020 C1021 1.351 . S
C1021 C1015 1.428 . S
C1021 N1020 1.351 . S
C1021 C1022 1.434 . S
C1022 C1013 1.429 . S
C1022 N1019 1.350 . S
C1022 C1021 1.434 . S
C1023 C1024 1.369 . S
C1023 C1025 1.419 . S
C1023 H1027 0.930 . S
C1024 C1023 1.369 . S
C1024 C1033 1.429 . S
C1025 C1023 1.419 . S
C1025 C1026 1.363 . S
C1025 H1028 0.929 . S
C1026 C1025 1.363 . S
C1026 C1032 1.428 . S
H1027 C1023 0.930 . S
H1028 C1025 0.929 . S
S1029 N1030 1.613 . S
S1029 N1031 1.610 . S
N1030 S1029 1.613 . S
N1030 C1033 1.350 . S
N1031 S1029 1.610 . S
N1031 C1032 1.351 . S
C1032 C1026 1.428 . S
C1032 N1031 1.351 . S
C1032 C1033 1.434 . S
C1033 C1024 1.429 . S
C1033 N1030 1.350 . S
C1033 C1032 1.434 . S
C1034 C1035 1.369 . S
C1034 C1036 1.419 . S
C1034 H1038 0.930 . S
C1035 C1034 1.369 . S
C1035 C1044 1.429 . S
C1036 C1034 1.419 . S
C1036 C1037 1.363 . S
C1036 H1039 0.929 . S
C1037 C1036 1.363 . S
C1037 C1043 1.428 . S
H1038 C1034 0.930 . S
H1039 C1036 0.929 . S
S1040 N1041 1.613 . S
S1040 N1042 1.610 . S
N1041 S1040 1.613 . S
N1041 C1044 1.350 . S
N1042 S1040 1.610 . S
N1042 C1043 1.351 . S
C1043 C1037 1.428 . S
C1043 N1042 1.351 . S
C1043 C1044 1.434 . S
C1044 C1035 1.429 . S
C1044 N1041 1.350 . S
C1044 C1043 1.434 . S
C1045 C1046 1.369 . S
C1045 C1047 1.419 . S
C1045 H1049 0.930 . S
C1046 C1045 1.369 . S
C1046 C1055 1.429 . S
C1047 C1045 1.419 . S
C1047 C1048 1.363 . S
C1047 H1050 0.929 . S
C1048 C1047 1.363 . S
C1048 C1054 1.428 . S
H1049 C1045 0.930 . S
H1050 C1047 0.929 . S
S1051 N1052 1.613 . S
S1051 N1053 1.610 . S
N1052 S1051 1.613 . S
N1052 C1055 1.350 . S
N1053 S1051 1.610 . S
N1053 C1054 1.351 . S
C1054 C1048 1.428 . S
C1054 N1053 1.351 . S
C1054 C1055 1.434 . S
C1055 C1046 1.429 . S
C1055 N1052 1.350 . S
C1055 C1054 1.434 . S
C1056 C1057 1.369 . S
C1056 C1058 1.419 . S
C1056 H1060 0.930 . S
C1057 C1056 1.369 . S
C1057 C1066 1.429 . S
C1058 C1056 1.419 . S
C1058 C1059 1.363 . S
C1058 H1061 0.929 . S
C1059 C1058 1.363 . S
C1059 C1065 1.428 . S
H1060 C1056 0.930 . S
H1061 C1058 0.929 . S
S1062 N1063 1.613 . S
S1062 N1064 1.610 . S
N1063 S1062 1.613 . S
N1063 C1066 1.350 . S
N1064 S1062 1.610 . S
N1064 C1065 1.351 . S
C1065 C1059 1.428 . S
C1065 N1064 1.351 . S
C1065 C1066 1.434 . S
C1066 C1057 1.429 . S
C1066 N1063 1.350 . S
C1066 C1065 1.434 . S
C1067 C1068 1.369 . S
C1067 C1069 1.419 . S
C1067 H1071 0.930 . S
C1068 C1067 1.369 . S
C1068 C1077 1.429 . S
C1069 C1067 1.419 . S
C1069 C1070 1.363 . S
C1069 H1072 0.929 . S
C1070 C1069 1.363 . S
C1070 C1076 1.428 . S
H1071 C1067 0.930 . S
H1072 C1069 0.929 . S
S1073 N1074 1.613 . S
S1073 N1075 1.610 . S
N1074 S1073 1.613 . S
N1074 C1077 1.350 . S
N1075 S1073 1.610 . S
N1075 C1076 1.351 . S
C1076 C1070 1.428 . S
C1076 N1075 1.351 . S
C1076 C1077 1.434 . S
C1077 C1068 1.429 . S
C1077 N1074 1.350 . S
C1077 C1076 1.434 . S
C1078 C1079 1.369 . S
C1078 C1080 1.419 . S
C1078 H1082 0.930 . S
C1079 C1078 1.369 . S
C1079 C1088 1.429 . S
C1080 C1078 1.419 . S
C1080 C1081 1.363 . S
C1080 H1083 0.929 . S
C1081 C1080 1.363 . S
C1081 C1087 1.428 . S
H1082 C1078 0.930 . S
H1083 C1080 0.929 . S
S1084 N1085 1.613 . S
S1084 N1086 1.610 . S
N1085 S1084 1.613 . S
N1085 C1088 1.350 . S
N1086 S1084 1.610 . S
N1086 C1087 1.351 . S
C1087 C1081 1.428 . S
C1087 N1086 1.351 . S
C1087 C1088 1.434 . S
C1088 C1079 1.429 . S
C1088 N1085 1.350 . S
C1088 C1087 1.434 . S
C1089 C1090 1.369 . S
C1089 C1091 1.419 . S
C1089 H1093 0.930 . S
C1090 C1089 1.369 . S
C1090 C1099 1.429 . S
C1091 C1089 1.419 . S
C1091 C1092 1.363 . S
C1091 H1094 0.929 . S
C1092 C1091 1.363 . S
C1092 C1098 1.428 . S
H1093 C1089 0.930 . S
H1094 C1091 0.929 . S
S1095 N1096 1.613 . S
S1095 N1097 1.610 . S
N1096 S1095 1.613 . S
N1096 C1099 1.350 . S
N1097 S1095 1.610 . S
N1097 C1098 1.351 . S
C1098 C1092 1.428 . S
C1098 N1097 1.351 . S
C1098 C1099 1.434 . S
C1099 C1090 1.429 . S
C1099 N1096 1.350 . S
C1099 C1098 1.434 . S
C1100 C1101 1.369 . S
C1100 C1102 1.419 . S
C1100 H1104 0.930 . S
C1101 C1100 1.369 . S
C1101 C1110 1.429 . S
C1102 C1100 1.419 . S
C1102 C1103 1.363 . S
C1102 H1105 0.929 . S
C1103 C1102 1.363 . S
C1103 C1109 1.428 . S
H1104 C1100 0.930 . S
H1105 C1102 0.929 . S
S1106 N1107 1.613 . S
S1106 N1108 1.610 . S
N1107 S1106 1.613 . S
N1107 C1110 1.350 . S
N1108 S1106 1.610 . S
N1108 C1109 1.351 . S
C1109 C1103 1.428 . S
C1109 N1108 1.351 . S
C1109 C1110 1.434 . S
C1110 C1101 1.429 . S
C1110 N1107 1.350 . S
C1110 C1109 1.434 . S
C1111 C1112 1.369 . S
C1111 C1113 1.419 . S
C1111 H1115 0.930 . S
C1112 C1111 1.369 . S
C1112 C1121 1.429 . S
C1113 C1111 1.419 . S
C1113 C1114 1.363 . S
C1113 H1116 0.929 . S
C1114 C1113 1.363 . S
C1114 C1120 1.428 . S
H1115 C1111 0.930 . S
H1116 C1113 0.929 . S
S1117 N1118 1.613 . S
S1117 N1119 1.610 . S
N1118 S1117 1.613 . S
N1118 C1121 1.350 . S
N1119 S1117 1.610 . S
N1119 C1120 1.351 . S
C1120 C1114 1.428 . S
C1120 N1119 1.351 . S
C1120 C1121 1.434 . S
C1121 C1112 1.429 . S
C1121 N1118 1.350 . S
C1121 C1120 1.434 . S
C1122 C1123 1.369 . S
C1122 C1124 1.419 . S
C1122 H1126 0.930 . S
C1123 C1122 1.369 . S
C1123 C1132 1.429 . S
C1124 C1122 1.419 . S
C1124 C1125 1.363 . S
C1124 H1127 0.929 . S
C1125 C1124 1.363 . S
C1125 C1131 1.428 . S
H1126 C1122 0.930 . S
H1127 C1124 0.929 . S
S1128 N1129 1.613 . S
S1128 N1130 1.610 . S
N1129 S1128 1.613 . S
N1129 C1132 1.350 . S
N1130 S1128 1.610 . S
N1130 C1131 1.351 . S
C1131 C1125 1.428 . S
C1131 N1130 1.351 . S
C1131 C1132 1.434 . S
C1132 C1123 1.429 . S
C1132 N1129 1.350 . S
C1132 C1131 1.434 . S
C1133 C1134 1.369 . S
C1133 C1135 1.419 . S
C1133 H1137 0.930 . S
C1134 C1133 1.369 . S
C1134 C1143 1.429 . S
C1135 C1133 1.419 . S
C1135 C1136 1.363 . S
C1135 H1138 0.929 . S
C1136 C1135 1.363 . S
C1136 C1142 1.428 . S
H1137 C1133 0.930 . S
H1138 C1135 0.929 . S
S1139 N1140 1.613 . S
S1139 N1141 1.610 . S
N1140 S1139 1.613 . S
N1140 C1143 1.350 . S
N1141 S1139 1.610 . S
N1141 C1142 1.351 . S
C1142 C1136 1.428 . S
C1142 N1141 1.351 . S
C1142 C1143 1.434 . S
C1143 C1134 1.429 . S
C1143 N1140 1.350 . S
C1143 C1142 1.434 . S
C795 C397 1.473 . S
C793 C15 1.477 . S
C806 C450 1.312 . S
C804 C68 1.308 . S
C817 C513 1.546 . S
C815 C107 1.551 . S
C828 C556 1.251 . S
C826 C160 1.251 . S
C837 C185 1.551 . S
C839 C512 1.546 . S
C850 C549 1.322 . S
C848 C252 1.323 . S
C861 C390 1.470 . S
C859 C277 1.469 . S
C872 C443 1.243 . S
C870 C330 1.243 . S
C883 C496 1.482 . S
C881 C323 1.476 . S
C894 C565 1.802 . S
C892 C192 1.805 . S
C905 C406 1.561 . S
C903 C245 1.560 . S
C916 C459 1.738 . S
C914 C284 1.741 . S
C927 C407 1.547 . S
C925 C61 1.545 . S
C938 C460 1.811 . S
C936 C114 1.813 . S
C949 C503 1.494 . S
C947 C153 1.492 . S
C960 C566 1.722 . S
C958 C22 1.724 . S
C971 C609 1.440 . S
C969 C337 1.446 . S
C980 C206 1.668 . S
C982 C662 1.667 . S
C991 C231 1.595 . S
C993 C724 1.594 . S
C1002 C298 1.683 . S
C1004 C778 1.687 . S
C1013 C47 1.515 . S
C1015 C725 1.513 . S
C1024 C100 1.764 . S
C1026 C777 1.763 . S
C1035 C139 1.510 . S
C1037 C602 1.511 . S
C1048 C655 1.602 . S
C1046 C8 1.600 . S
C1059 C715 1.467 . S
C1057 C1 1.457 . S
C1068 C54 1.372 . S
C1070 C761 1.368 . S
C1079 C93 1.587 . S
C1081 C618 1.589 . S
C1090 C146 1.318 . S
C1092 C671 1.316 . S
C1103 C619 1.529 . S
C1101 C199 1.528 . S
C1114 C672 1.402 . S
C1112 C238 1.407 . S
C1123 C291 1.514 . S
C1125 C708 1.516 . S
C1136 C768 1.301 . S
C1134 C344 1.299 . S
