# Generated by pormake.
# Topology anh, (6,3)-cn, num edge types: 1
# Building blocks:
#     Node 0, Type 0, BuildingBlock: BETDIP_clean_sbu_0, # of connection points: 6
#     Node 1, Type 0, BuildingBlock: BETDIP_clean_sbu_0, # of connection points: 6
#     Node 2, Type 0, BuildingBlock: BETDIP_clean_sbu_0, # of connection points: 6
#     Node 3, Type 1, BuildingBlock: CUQRIR_clean_linker_1, # of connection points: 3
#     Node 4, Type 1, BuildingBlock: CUQRIR_clean_linker_1, # of connection points: 3
#     Node 5, Type 1, BuildingBlock: CUQRIR_clean_linker_1, # of connection points: 3
#     Node 6, Type 1, BuildingBlock: CUQRIR_clean_linker_1, # of connection points: 3
#     Node 7, Type 1, BuildingBlock: CUQRIR_clean_linker_1, # of connection points: 3
#     Node 8, Type 1, BuildingBlock: CUQRIR_clean_linker_1, # of connection points: 3
#     Edge 9, Type (0, 1), BuildingBlock: XUDNAN_clean_linker_2, # of connection points: 2
#     Edge 10, Type (0, 1), BuildingBlock: XUDNAN_clean_linker_2, # of connection points: 2
#     Edge 11, Type (0, 1), BuildingBlock: XUDNAN_clean_linker_2, # of connection points: 2
#     Edge 12, Type (0, 1), BuildingBlock: XUDNAN_clean_linker_2, # of connection points: 2
#     Edge 13, Type (0, 1), BuildingBlock: XUDNAN_clean_linker_2, # of connection points: 2
#     Edge 14, Type (0, 1), BuildingBlock: XUDNAN_clean_linker_2, # of connection points: 2
#     Edge 15, Type (0, 1), BuildingBlock: XUDNAN_clean_linker_2, # of connection points: 2
#     Edge 16, Type (0, 1), BuildingBlock: XUDNAN_clean_linker_2, # of connection points: 2
#     Edge 17, Type (0, 1), BuildingBlock: XUDNAN_clean_linker_2, # of connection points: 2
#     Edge 18, Type (0, 1), BuildingBlock: XUDNAN_clean_linker_2, # of connection points: 2
#     Edge 19, Type (0, 1), BuildingBlock: XUDNAN_clean_linker_2, # of connection points: 2
#     Edge 20, Type (0, 1), BuildingBlock: XUDNAN_clean_linker_2, # of connection points: 2
#     Edge 21, Type (0, 1), BuildingBlock: XUDNAN_clean_linker_2, # of connection points: 2
#     Edge 22, Type (0, 1), BuildingBlock: XUDNAN_clean_linker_2, # of connection points: 2
#     Edge 23, Type (0, 1), BuildingBlock: XUDNAN_clean_linker_2, # of connection points: 2
#     Edge 24, Type (0, 1), BuildingBlock: XUDNAN_clean_linker_2, # of connection points: 2
#     Edge 25, Type (0, 1), BuildingBlock: XUDNAN_clean_linker_2, # of connection points: 2
#     Edge 26, Type (0, 1), BuildingBlock: XUDNAN_clean_linker_2, # of connection points: 2
# Relax obj value: 0.299
# Max RMSD: 0.205
# Mean RMSD: 0.154
data_MOF--net-anh--node1-BETDIP_clean_sbu_0--node2-CUQRIR_clean_linker_1--edge1-XUDNAN_clean_linker_2
_symmetry_space_group_name_H-M    P1
_symmetry_Int_Tables_number       1
_symmetry_cell_setting            triclinic
loop_
_symmetry_equiv_pos_as_xyz
'x, y, z'
_cell_length_a     29.56104
_cell_length_b     29.504864
_cell_length_c     46.937397
_cell_angle_alpha  86.336813
_cell_angle_beta   90.40799
_cell_angle_gamma 120.07266
loop_
_atom_site_label
_atom_site_type_symbol
_atom_site_fract_x
_atom_site_fract_y
_atom_site_fract_z
_atom_type_partial_charge
Tb0 Tb 0.13967 0.62067 0.14995 0.0
Tb1 Tb 0.09384 0.51569 0.15831 0.0
C2 C 0.19205 0.71884 0.15179 0.0
C3 C 0.23878 0.76561 0.13898 0.0
C4 C 0.28901 0.78085 0.14884 0.0
C5 C 0.33111 0.83025 0.1402 0.0
C6 C 0.32347 0.86521 0.12174 0.0
C7 C 0.27406 0.84834 0.11029 0.0
C8 C 0.23209 0.79908 0.1189 0.0
C9 C 0.11612 0.57376 0.10132 0.0
C10 C 0.22053 0.5718 0.1472 0.0
C11 C 1.03852 0.41724 0.16269 0.0
C12 C 1.00207 0.38431 0.18599 0.0
C13 C 0.96581 0.33156 0.18271 0.0
C14 C 0.92812 0.30217 0.20424 0.0
C15 C 0.92649 0.32541 0.22925 0.0
C16 C 0.96488 0.3775 0.23301 0.0
C17 C 1.00211 0.40681 0.21146 0.0
C18 C 0.11638 0.55931 0.20916 0.0
C19 C 1.0142 0.56667 0.14841 0.0
O20 O 0.19787 0.68636 0.16971 0.0
O21 O 0.15375 0.6945 0.1346 0.0
O22 O 0.13583 0.56368 0.12256 0.0
O23 O 0.11152 0.61387 0.10577 0.0
O24 O 0.21504 0.61373 0.15168 0.0
O25 O 0.17456 0.52707 0.14517 0.0
O26 O 1.02529 0.44743 0.14779 0.0
O27 O 1.08712 0.44284 0.16995 0.0
O28 O 0.09667 0.5716 0.18794 0.0
O29 O 0.12515 0.52354 0.2013 0.0
O30 O 1.02031 0.52431 0.14625 0.0
O31 O 1.05829 0.60967 0.15482 0.0
H32 H 0.29533 0.75596 0.16439 0.0
H33 H 0.36868 0.84252 0.14968 0.0
H34 H 0.26722 0.87448 0.096 0.0
H35 H 0.19371 0.78842 0.11102 0.0
H36 H 0.96538 0.31376 0.16314 0.0
H37 H 0.89838 0.26234 0.20052 0.0
H38 H 0.96459 0.39629 0.25205 0.0
H39 H 1.02978 0.44763 0.21431 0.0
Tb40 Tb 0.67705 1.05786 0.4879 0.0
Tb41 Tb 0.61372 0.10503 0.49054 0.0
C42 C 0.72328 1.00889 0.50331 0.0
C43 C 0.71744 0.96702 0.52428 0.0
C44 C 0.67355 0.91625 0.52564 0.0
C45 C 0.67201 0.87699 0.54473 0.0
C46 C 0.71415 0.88813 0.56273 0.0
C47 C 0.75667 0.93968 0.56211 0.0
C48 C 0.75828 0.97857 0.54307 0.0
C49 C 0.65618 0.08521 0.43776 0.0
C50 C 0.54506 0.97784 0.48623 0.0
C51 C 0.57967 0.16642 0.47891 0.0
C52 C 0.60934 0.22408 0.47707 0.0
C53 C 0.60459 0.25268 0.45327 0.0
C54 C 0.64174 0.30594 0.44772 0.0
C55 C 0.68394 0.33054 0.46588 0.0
C56 C 0.68654 0.30277 0.49059 0.0
C57 C 0.64973 0.25003 0.49613 0.0
C58 C 0.63132 0.07514 0.54244 0.0
C59 C 0.74598 0.18561 0.47981 0.0
O60 O 0.73095 1.05164 0.51428 0.0
O61 O 0.69203 0.99651 0.48168 0.0
O62 O 0.62583 0.06487 0.45912 0.0
O63 O 0.69947 0.08541 0.44292 0.0
O64 O 0.59294 0.98339 0.49175 0.0
O65 O 0.54437 1.02319 0.48303 0.0
O66 O 0.59396 0.14592 0.45951 0.0
O67 O 0.57427 0.14275 0.50428 0.0
O68 O 0.66383 0.09671 0.52143 0.0
O69 O 0.58739 0.07123 0.53453 0.0
O70 O 0.69772 0.1791 0.4847 0.0
O71 O 0.74744 0.14091 0.47948 0.0
H72 H 0.64122 0.90659 0.51157 0.0
H73 H 0.63865 0.83762 0.54482 0.0
H74 H 0.79028 0.94948 0.57518 0.0
H75 H 0.79242 1.01757 0.5424 0.0
H76 H 0.57361 0.23326 0.43837 0.0
H77 H 0.63861 0.32728 0.42887 0.0
H78 H 0.71793 0.32178 0.50535 0.0
H79 H 0.65458 0.22902 0.51458 0.0
Tb80 Tb 0.61166 0.57705 0.82945 0.0
Tb81 Tb 0.72038 0.63189 0.82016 0.0
C82 C 0.52343 0.53907 0.85372 0.0
C83 C 0.49618 0.55144 0.87545 0.0
C84 C 0.45703 0.56263 0.86709 0.0
C85 C 0.42251 0.56195 0.88743 0.0
C86 C 0.42615 0.54942 0.91649 0.0
C87 C 0.46815 0.54285 0.92512 0.0
C88 C 0.503 0.544 0.90476 0.0
C89 C 0.63564 0.57569 0.77625 0.0
C90 C 0.66861 0.70825 0.81538 0.0
C91 C 0.81556 0.66849 0.80718 0.0
C92 C 0.84478 0.64467 0.79629 0.0
C93 C 0.88632 0.6728 0.77635 0.0
C94 C 0.91598 0.65095 0.76745 0.0
C95 C 0.90464 0.60079 0.7786 0.0
C96 C 0.8619 0.57244 0.79798 0.0
C97 C 0.83229 0.59396 0.80656 0.0
C98 C 0.69201 0.62846 0.87517 0.0
C99 C 0.66051 0.50018 0.81911 0.0
O100 O 0.56026 0.53014 0.86282 0.0
O101 O 0.53546 0.56584 0.82891 0.0
O102 O 0.65895 0.61401 0.79172 0.0
O103 O 0.59386 0.53862 0.7894 0.0
O104 O 0.62605 0.66322 0.82599 0.0
O105 O 0.71058 0.70345 0.8097 0.0
O106 O 0.78272 0.6723 0.78989 0.0
O107 O 0.79555 0.65168 0.83298 0.0
O108 O 0.67294 0.59126 0.85866 0.0
O109 O 0.72669 0.66941 0.86013 0.0
O110 O 0.70429 0.5472 0.81323 0.0
O111 O 0.6188 0.50303 0.82804 0.0
H112 H 0.45072 0.56824 0.84469 0.0
H113 H 0.3901 0.56645 0.88 0.0
H114 H 0.47192 0.5333 0.94736 0.0
H115 H 0.53303 0.53554 0.91191 0.0
H116 H 0.89637 0.71194 0.76808 0.0
H117 H 0.94844 0.67375 0.75243 0.0
H118 H 0.85258 0.53446 0.80783 0.0
H119 H 0.8007 0.5714 0.8221 0.0
C120 C 0.56449 0.19962 0.22152 0.0
N121 N 0.57293 0.19352 0.24943 0.0
N122 N 0.51543 0.16328 0.21461 0.0
C123 C 0.60687 0.23623 0.20009 0.0
C124 C 0.49313 0.1373 0.24018 0.0
N125 N 0.52816 0.15532 0.26125 0.0
C126 C 0.4388 0.09051 0.24384 0.0
H127 H 0.62787 0.27626 0.20788 0.0
H128 H 0.59049 0.23784 0.17894 0.0
H129 H 0.63587 0.22318 0.19784 0.0
H130 H 0.43736 1.05672 0.23387 0.0
H131 H 0.41052 0.09944 0.23293 0.0
H132 H 0.42652 0.07957 0.26669 0.0
C133 C 0.87315 0.65954 0.56652 0.0
N134 N 0.84966 0.65805 0.59146 0.0
N135 N 0.87058 0.61315 0.563 0.0
C136 C 0.89081 0.70306 0.54334 0.0
C137 C 0.84559 0.58373 0.58729 0.0
N138 N 0.83309 0.61098 0.6045 0.0
C139 C 0.82405 0.52547 0.5914 0.0
H140 H 0.85795 0.69471 0.52897 0.0
H141 H 0.92334 0.70553 0.53039 0.0
H142 H 0.90351 0.74116 0.55263 0.0
H143 H 0.81828 0.51244 0.61445 0.0
H144 H 0.85072 0.51452 0.58129 0.0
H145 H 0.78564 0.50498 0.58105 0.0
C146 C 1.07785 0.41631 0.88185 0.0
N147 N 1.07746 0.41182 0.91068 0.0
N148 N 1.03851 0.4237 0.87247 0.0
C149 C 0.12123 0.42111 0.86304 0.0
C150 C 1.01384 0.42323 0.89686 0.0
N151 N 1.03758 0.41605 0.92001 0.0
C152 C 0.97147 0.43723 0.89797 0.0
H153 H 0.15496 0.46171 0.86292 0.0
H154 H 0.1082 0.41238 0.84081 0.0
H155 H 0.13457 0.39396 0.8716 0.0
H156 H 0.94054 0.41448 0.88281 0.0
H157 H 0.9883 0.47953 0.89134 0.0
H158 H 0.95349 0.42913 0.91971 0.0
C159 C 0.14401 0.58394 0.46385 0.0
N160 N 0.10611 0.54844 0.44556 0.0
N161 N 0.18797 0.6278 0.44997 0.0
C162 C 0.13814 0.5759 0.49572 0.0
C163 C 0.17477 0.61608 0.42227 0.0
N164 N 0.12757 0.57032 0.41946 0.0
C165 C 0.20908 0.64936 0.39695 0.0
H166 H 0.11576 0.59402 0.50324 0.0
H167 H 0.17684 0.59501 0.50576 0.0
H168 H 0.11639 0.5334 0.50251 0.0
H169 H 0.22257 0.62639 0.38546 0.0
H170 H 0.24402 0.68571 0.40298 0.0
H171 H 0.18615 0.65986 0.38187 0.0
C172 C 0.65862 0.10075 0.79627 0.0
N173 N 0.66016 0.06582 0.7774 0.0
N174 N 0.65973 0.14598 0.78295 0.0
C175 C 0.65815 0.09175 0.82799 0.0
C176 C 0.66114 0.13563 0.75506 0.0
N177 N 0.66166 0.08966 0.75162 0.0
C178 C 0.66193 0.17152 0.7304 0.0
H179 H 0.61696 0.06845 0.83601 0.0
H180 H 0.67718 0.1297 0.83817 0.0
H181 H 0.6781 0.06928 0.83395 0.0
H182 H 0.70285 0.20341 0.72592 0.0
H183 H 0.63804 0.18935 0.73569 0.0
H184 H 0.64701 0.15123 0.71055 0.0
C185 C 0.6193 0.57043 0.12919 0.0
N186 N 0.65718 0.5693 0.1113 0.0
N187 N 0.57557 0.56783 0.11517 0.0
C188 C 0.62414 0.57285 0.16088 0.0
C189 C 0.59002 0.56667 0.0877 0.0
N190 N 0.63703 0.56709 0.08518 0.0
C191 C 0.5608 0.572 0.06235 0.0
H192 H 0.5849 0.55431 0.17153 0.0
H193 H 0.64624 0.61458 0.16603 0.0
H194 H 0.64554 0.55303 0.16916 0.0
H195 H 0.53603 0.58864 0.06796 0.0
H196 H 0.53539 0.53269 0.0543 0.0
H197 H 0.58813 0.59809 0.04479 0.0
H198 H 0.26185 0.50847 0.12034 0.0
H199 H 0.31724 0.64654 0.16805 0.0
H200 H 0.40598 0.65798 0.16707 0.0
H201 H 0.348 0.4609 0.15153 0.0
H202 H 0.36121 0.44105 0.11853 0.0
H203 H 0.30115 0.44181 0.12353 0.0
H204 H 0.3222 0.50248 0.07775 0.0
H205 H 0.38225 0.50177 0.07261 0.0
H206 H 0.38366 0.56333 0.07414 0.0
H207 H 0.49781 0.65348 0.16206 0.0
H208 H 0.57106 0.63903 0.15007 0.0
H209 H 0.46508 0.50822 0.10186 0.0
C210 C 0.29221 0.54135 0.1308 0.0
C211 C 0.27821 0.57622 0.14479 0.0
C212 C 0.32281 0.61829 0.15725 0.0
C213 C 0.375 0.62522 0.15681 0.0
C214 C 0.38693 0.59074 0.14319 0.0
C215 C 0.34627 0.54976 0.12992 0.0
C216 C 0.37048 0.51962 0.11557 0.0
C217 C 0.34358 0.46241 0.12801 0.0
C218 C 0.36424 0.52188 0.08308 0.0
C219 C 0.43015 0.54894 0.1229 0.0
C220 C 0.43856 0.58977 0.13925 0.0
C221 C 0.49009 0.62145 0.14911 0.0
C222 C 0.53279 0.61255 0.14223 0.0
C223 C 0.52757 0.57209 0.12482 0.0
C224 C 0.47353 0.53991 0.11524 0.0
H225 H 0.84857 0.23348 0.44603 0.0
H226 H 0.76997 0.27741 0.50643 0.0
H227 H 0.84688 0.36698 0.50465 0.0
H228 H 0.98417 0.31621 0.4711 0.0
H229 H 1.01521 0.33577 0.43606 0.0
H230 H 0.95476 0.27433 0.44215 0.0
H231 H 0.91269 0.30226 0.40176 0.0
H232 H 0.97303 0.36379 0.39557 0.0
H233 H 0.91305 0.3634 0.40283 0.0
H234 H 0.9412 0.46012 0.49705 0.0
H235 H 1.02821 0.53607 0.48349 0.0
H236 H 1.05245 0.44224 0.42485 0.0
C237 C 0.84682 0.26154 0.45905 0.0
C238 C 0.79898 0.24417 0.47668 0.0
C239 C 0.80262 0.28586 0.49249 0.0
C240 C 0.84778 0.33838 0.49169 0.0
C241 C 0.8929 0.35373 0.47428 0.0
C242 C 0.89239 0.31608 0.45788 0.0
C243 C 0.94594 0.34384 0.44031 0.0
C244 C 0.97686 0.31584 0.44783 0.0
C245 C 0.93558 0.34325 0.4082 0.0
C246 C 0.97682 0.40214 0.44935 0.0
C247 C 0.94507 0.40647 0.4693 0.0
C248 C 0.96501 0.45564 0.48134 0.0
C249 C 1.01626 0.49994 0.47341 0.0
C250 C 1.05144 0.49911 0.45281 0.0
C251 C 1.02925 0.44755 0.44057 0.0
H252 H 0.59471 0.75164 0.82373 0.0
H253 H 0.75106 0.80267 0.79144 0.0
H254 H 0.76428 0.89107 0.7798 0.0
H255 H 0.56672 0.83418 0.77028 0.0
H256 H 0.53185 0.8509 0.79497 0.0
H257 H 0.53294 0.79047 0.80114 0.0
H258 H 0.56924 0.81703 0.85104 0.0
H259 H 0.56828 0.87755 0.84499 0.0
H260 H 0.62811 0.87905 0.85464 0.0
H261 H 0.76276 0.98275 0.77004 0.0
H262 H 0.74664 1.05728 0.76489 0.0
H263 H 0.59162 0.95778 0.80263 0.0
C264 C 0.63211 0.78098 0.81421 0.0
C265 C 0.67178 0.7656 0.80899 0.0
C266 C 0.71901 0.80901 0.79632 0.0
C267 C 0.72716 0.86116 0.78938 0.0
C268 C 0.68825 0.87442 0.7947 0.0
C269 C 0.64124 0.83512 0.80701 0.0
C270 C 0.60614 0.861 0.81047 0.0
C271 C 0.55641 0.83241 0.79321 0.0
C272 C 0.59205 0.85846 0.84218 0.0
C273 C 0.64003 0.92011 0.79837 0.0
C274 C 0.68749 0.92641 0.78933 0.0
C275 C 0.72532 0.9767 0.77723 0.0
C276 C 0.71554 1.02019 0.77413 0.0
C277 C 0.66777 1.01739 0.78281 0.0
C278 C 0.62937 0.96462 0.79547 0.0
H279 H 0.91136 0.50605 0.11667 0.0
H280 H 0.98757 0.63507 0.17143 0.0
H281 H 0.91157 0.64798 0.16839 0.0
H282 H 0.85008 0.56821 0.07031 0.0
H283 H 0.7897 0.50823 0.06551 0.0
H284 H 0.84896 0.50643 0.07229 0.0
H285 H 0.80372 0.44045 0.11547 0.0
H286 H 0.74433 0.44205 0.10878 0.0
H287 H 0.77355 0.45664 0.14327 0.0
H288 H 0.81963 0.6481 0.16005 0.0
H289 H 0.73434 0.6378 0.14633 0.0
H290 H 0.7096 0.51233 0.09379 0.0
C291 C 0.91258 0.53699 0.12841 0.0
C292 C 0.95957 0.56891 0.14504 0.0
C293 C 0.95534 0.60887 0.15875 0.0
C294 C 0.91082 0.6168 0.15708 0.0
C295 C 0.86653 0.58551 0.14091 0.0
C296 C 0.86728 0.54632 0.12648 0.0
C297 C 0.81447 0.51953 0.1098 0.0
C298 C 0.82651 0.52592 0.07755 0.0
C299 C 0.78209 0.46116 0.1199 0.0
C300 C 0.78406 0.54891 0.11709 0.0
C301 C 0.81533 0.58674 0.13542 0.0
C302 C 0.79602 0.61825 0.14568 0.0
C303 C 0.74575 0.61179 0.13767 0.0
C304 C 0.71094 0.57402 0.1187 0.0
C305 C 0.73255 0.54229 0.10822 0.0
H306 H 0.4394 0.94138 0.46079 0.0
H307 H 0.5255 0.87641 0.50475 0.0
H308 H 0.4489 0.7873 0.50227 0.0
H309 H 0.30741 0.84558 0.49221 0.0
H310 H 0.27274 0.84055 0.45975 0.0
H311 H 0.33343 0.89976 0.46545 0.0
H312 H 0.37144 0.8918 0.41813 0.0
H313 H 0.3108 0.83263 0.41227 0.0
H314 H 0.37147 0.83204 0.4122 0.0
H315 H 0.35349 0.69577 0.49536 0.0
H316 H 0.26589 0.62478 0.48254 0.0
H317 H 0.23631 0.74157 0.44015 0.0
C318 C 0.4428 0.90879 0.47016 0.0
C319 C 0.49235 0.9201 0.48355 0.0
C320 C 0.49103 0.87289 0.49454 0.0
C321 C 0.44623 0.82049 0.49318 0.0
C322 C 0.3991 0.81122 0.48016 0.0
C323 C 0.39755 0.85475 0.46847 0.0
C324 C 0.34248 0.83355 0.45467 0.0
C325 C 0.31222 0.85625 0.46884 0.0
C326 C 0.34945 0.84843 0.4224 0.0
C327 C 0.31308 0.77212 0.46047 0.0
C328 C 0.3467 0.76021 0.47551 0.0
C329 C 0.32814 0.70632 0.48357 0.0
C330 C 0.2766 0.66491 0.47625 0.0
C331 C 0.23995 0.67392 0.46032 0.0
C332 C 0.26052 0.73023 0.45251 0.0
H333 H 0.71766 0.45994 0.78422 0.0
H334 H 0.59293 0.40301 0.84813 0.0
H335 H 0.58151 0.31423 0.84755 0.0
H336 H 0.65363 0.33792 0.74389 0.0
H337 H 0.71362 0.33966 0.73476 0.0
H338 H 0.71414 0.39977 0.74061 0.0
H339 H 0.78338 0.42092 0.77899 0.0
H340 H 0.78321 0.36105 0.77286 0.0
H341 H 0.7704 0.37286 0.8083 0.0
H342 H 0.58438 0.22196 0.84069 0.0
H343 H 0.59626 0.14907 0.82613 0.0
H344 H 0.71589 0.25786 0.76455 0.0
C345 C 0.6878 0.42925 0.79837 0.0
C346 C 0.65672 0.44287 0.81677 0.0
C347 C 0.61828 0.39778 0.83384 0.0
C348 C 0.61133 0.34551 0.83365 0.0
C349 C 0.642 0.33388 0.81567 0.0
C350 C 0.67927 0.37502 0.79791 0.0
C351 C 0.70559 0.35107 0.77968 0.0
C352 C 0.69624 0.35753 0.74783 0.0
C353 C 0.76423 0.3782 0.78523 0.0
C354 C 0.67866 0.29118 0.78999 0.0
C355 C 0.64205 0.28219 0.81105 0.0
C356 C 0.61317 0.2302 0.82406 0.0
C357 C 0.62064 0.18769 0.81565 0.0
C358 C 0.65702 0.19362 0.79365 0.0
C359 C 0.68663 0.24826 0.78108 0.0
H360 H 0.69048 0.79373 0.54397 0.0
H361 H 0.75109 0.88843 0.61672 0.0
H362 H 0.7824 0.82977 0.6364 0.0
H363 H 0.65675 0.66183 0.58414 0.0
H364 H 0.67634 0.64253 0.55297 0.0
H365 H 0.6465 0.68288 0.54898 0.0
H366 H 0.72612 0.75124 0.51742 0.0
H367 H 0.75701 0.71229 0.522 0.0
H368 H 0.79079 0.77937 0.53168 0.0
H369 H 0.82446 0.77386 0.64211 0.0
H370 H 0.86672 0.72051 0.63484 0.0
H371 H 0.77664 0.66206 0.55931 0.0
C372 C 0.70764 0.80046 0.56483 0.0
C373 C 0.7184 0.84558 0.57879 0.0
C374 C 0.74272 0.85412 0.60559 0.0
C375 C 0.76042 0.82088 0.617 0.0
C376 C 0.75249 0.77876 0.60163 0.0
C377 C 0.72538 0.76764 0.57646 0.0
C378 C 0.72793 0.7246 0.56201 0.0
C379 C 0.67365 0.67501 0.56204 0.0
C380 C 0.75191 0.74304 0.5315 0.0
C381 C 0.76386 0.7161 0.58178 0.0
C382 C 0.77686 0.74672 0.60487 0.0
C383 C 0.81368 0.74892 0.62443 0.0
C384 C 0.83787 0.71921 0.62006 0.0
C385 C 0.8255 0.68879 0.59618 0.0
C386 C 0.78718 0.68617 0.57736 0.0
H387 H 0.87845 0.49885 0.7737 0.0
H388 H 1.012 0.65605 0.77439 0.0
H389 H 1.06921 0.61928 0.78423 0.0
H390 H 0.90923 0.46344 0.83685 0.0
H391 H 0.88059 0.39536 0.82944 0.0
H392 H 0.85881 0.43591 0.81131 0.0
H393 H 0.88098 0.40728 0.76297 0.0
H394 H 0.90617 0.37109 0.78321 0.0
H395 H 0.94703 0.42174 0.75637 0.0
H396 H 0.10473 0.57114 0.8108 0.0
H397 H 0.11449 0.51714 0.84987 0.0
H398 H 0.95873 0.38978 0.83664 0.0
C399 C 0.92011 0.52545 0.77487 0.0
C400 C 0.94049 0.58023 0.77369 0.0
C401 C 0.99523 0.6139 0.77489 0.0
C402 C 1.02815 0.59319 0.78066 0.0
C403 C 1.00575 0.53886 0.78533 0.0
C404 C 0.95276 0.50533 0.78228 0.0
C405 C 0.93548 0.45097 0.79586 0.0
C406 C 0.89359 0.43547 0.81974 0.0
C407 C 0.91629 0.41035 0.77325 0.0
C408 C 0.98621 0.45956 0.80828 0.0
C409 C 1.02669 0.51023 0.80141 0.0
C410 C 1.07414 0.5308 0.81529 0.0
C411 C 1.07947 0.49991 0.83746 0.0
C412 C 1.03761 0.44909 0.84554 0.0
C413 C 0.99155 0.42794 0.82997 0.0
H414 H 0.30905 0.94733 0.12904 0.0
H415 H 0.42865 0.90855 0.11096 0.0
H416 H 0.4967 0.99837 0.12062 0.0
H417 H 0.39285 0.0982 0.10598 0.0
H418 H 0.36307 0.11187 0.1351 0.0
H419 H 0.3255 1.05315 0.11642 0.0
H420 H 0.30317 0.99743 0.16457 0.0
H421 H 0.34114 1.05533 0.18325 0.0
H422 H 0.35564 1.00276 0.18664 0.0
H423 H 0.54617 0.07489 0.14718 0.0
H424 H 0.57405 0.13394 0.18594 0.0
H425 H 0.42649 0.1315 0.18514 0.0
C426 C 0.34966 0.95889 0.12538 0.0
C427 C 0.36383 0.92143 0.11901 0.0
C428 C 0.41719 0.93692 0.11567 0.0
C429 C 0.45602 0.98798 0.12093 0.0
C430 C 0.44074 1.02305 0.12925 0.0
C431 C 0.38872 1.00958 0.13087 0.0
C432 C 0.3819 1.05005 0.14572 0.0
C433 C 0.36484 0.08011 0.12453 0.0
C434 C 0.34324 1.02485 0.17156 0.0
C435 C 0.43726 0.08519 0.15496 0.0
C436 C 0.47084 0.06988 0.14438 0.0
C437 C 0.52116 0.08914 0.15439 0.0
C438 C 0.53687 0.12309 0.1764 0.0
C439 C 0.50287 0.13851 0.18796 0.0
C440 C 0.45339 0.12108 0.17619 0.0
H441 H 0.67396 0.41622 0.46762 0.0
H442 H 0.78661 0.36654 0.45495 0.0
H443 H 0.85805 0.45339 0.46675 0.0
H444 H 0.77274 0.56898 0.44754 0.0
H445 H 0.74084 0.58413 0.47488 0.0
H446 H 0.70314 0.52855 0.45395 0.0
H447 H 0.66735 0.46861 0.50059 0.0
H448 H 0.70523 0.5232 0.52149 0.0
H449 H 0.71276 0.46619 0.52569 0.0
H450 H 0.90759 0.52581 0.49734 0.0
H451 H 0.93217 0.58246 0.5381 0.0
H452 H 0.79092 0.5903 0.52922 0.0
C453 C 0.71416 0.4254 0.46535 0.0
C454 C 0.72538 0.38556 0.46045 0.0
C455 C 0.77785 0.39723 0.45864 0.0
C456 C 0.81857 0.44649 0.46523 0.0
C457 C 0.80602 0.48382 0.47295 0.0
C458 C 0.75511 0.47458 0.47198 0.0
C459 C 0.75003 0.51626 0.48646 0.0
C460 C 0.74119 0.55159 0.46438 0.0
C461 C 0.70635 0.49207 0.50994 0.0
C462 C 0.80373 0.54595 0.49887 0.0
C463 C 0.83622 0.528 0.4901 0.0
C464 C 0.88367 0.54212 0.50329 0.0
C465 C 0.89738 0.574 0.52643 0.0
C466 C 0.86382 0.59129 0.53586 0.0
C467 C 0.81777 0.57888 0.52124 0.0
H468 H 0.36919 0.59771 0.92312 0.0
H469 H 0.37779 0.4597 0.95113 0.0
H470 H 0.28545 0.41427 0.96654 0.0
H471 H 0.25251 0.56976 0.97718 0.0
H472 H 0.22682 0.59461 0.9493 0.0
H473 H 0.29658 0.62374 0.95282 0.0
H474 H 0.30413 0.60774 0.89985 0.0
H475 H 0.23487 0.57734 0.89649 0.0
H476 H 0.2676 0.54184 0.88838 0.0
H477 H 0.1912 0.37375 0.96017 0.0
H478 H 0.10485 0.34702 0.93907 0.0
H479 H 0.15365 0.50938 0.91656 0.0
C480 C 0.35214 0.55911 0.93415 0.0
C481 C 0.3803 0.53217 0.93585 0.0
C482 C 0.35713 0.48141 0.94995 0.0
C483 C 0.30441 0.45512 0.95872 0.0
C484 C 0.27582 0.48057 0.95381 0.0
C485 C 0.29935 0.53238 0.94282 0.0
C486 C 0.25887 0.54745 0.9343 0.0
C487 C 0.25869 0.58618 0.95463 0.0
C488 C 0.26686 0.56981 0.90291 0.0
C489 C 0.20964 0.49456 0.93861 0.0
C490 C 0.21981 0.45673 0.95081 0.0
C491 C 0.18221 0.4033 0.95185 0.0
C492 C 0.13364 0.38827 0.93966 0.0
C493 C 0.12365 0.42659 0.92669 0.0
C494 C 0.16107 0.48012 0.9271 0.0
H495 H 0.87117 0.36731 0.24964 0.0
H496 H 0.87531 0.22256 0.25029 0.0
H497 H 0.7846 0.17357 0.2693 0.0
H498 H 0.76724 0.32137 0.31372 0.0
H499 H 0.73932 0.35686 0.29555 0.0
H500 H 0.809 0.38254 0.29345 0.0
H501 H 0.80535 0.38748 0.23825 0.0
H502 H 0.73601 0.36054 0.24004 0.0
H503 H 0.76322 0.32861 0.22057 0.0
H504 H 0.69155 0.13939 0.27011 0.0
H505 H 0.60371 0.12267 0.25818 0.0
H506 H 0.65563 0.28779 0.26004 0.0
C507 C 0.85405 0.32578 0.25556 0.0
C508 C 0.87998 0.29856 0.24861 0.0
C509 C 0.85587 0.24396 0.25547 0.0
C510 C 0.80452 0.21597 0.26649 0.0
C511 C 0.77832 0.24337 0.27086 0.0
C512 C 0.8027 0.29743 0.2664 0.0
C513 C 0.76359 0.31636 0.26724 0.0
C514 C 0.77019 0.34604 0.2941 0.0
C515 C 0.76729 0.35016 0.2399 0.0
C516 C 0.71312 0.26432 0.26915 0.0
C517 C 0.72259 0.22278 0.27227 0.0
C518 C 0.68332 0.17128 0.26924 0.0
C519 C 0.63358 0.16208 0.26245 0.0
C520 C 0.6231 0.20389 0.25937 0.0
C521 C 0.66293 0.2554 0.26332 0.0
H522 H 0.09825 0.60041 0.04688 0.0
H523 H 1.09003 0.47196 0.10135 0.0
H524 H 1.05586 0.41386 0.06173 0.0
H525 H 0.98471 0.52386 0.00289 0.0
H526 H 1.01718 0.56174 0.97022 0.0
H527 H 1.03432 0.59202 0.00378 0.0
H528 H 0.13153 0.61999 -0.00569 0.0
H529 H 0.11478 0.59032 0.96066 0.0
H530 H 0.14811 0.57087 0.98663 0.0
H531 H 1.02833 0.37117 0.01622 0.0
H532 H 1.01854 0.34941 0.96563 0.0
H533 H 1.04974 0.50581 0.93935 0.0
C534 C 1.08829 0.55978 0.05045 0.0
C535 C 0.09559 0.54016 0.07722 0.0
C536 C 1.08388 0.48739 0.08106 0.0
C537 C 1.06426 0.45404 0.05874 0.0
C538 C 1.05745 0.47435 0.03255 0.0
C539 C 1.06991 0.52619 0.02807 0.0
C540 C 1.06491 0.53951 -0.00309 0.0
C541 C 1.02276 0.55521 0.99324 0.0
C542 C 0.11798 0.58272 0.98386 0.0
C543 C 1.04797 0.4872 0.98468 0.0
C544 C 1.04309 0.44997 0.00575 0.0
C545 C 1.03115 0.39965 -0.00043 0.0
C546 C 1.02539 0.38748 0.97096 0.0
C547 C 1.03184 0.42543 0.94905 0.0
C548 C 1.04249 0.47562 0.95598 0.0
H549 H 0.65763 0.16815 0.40857 0.0
H550 H 0.60617 1.00306 0.40485 0.0
H551 H 0.55721 0.9999 0.36119 0.0
H552 H 0.54013 0.16189 0.38759 0.0
H553 H 0.5701 0.22285 0.36571 0.0
H554 H 0.60454 0.21407 0.39538 0.0
H555 H 0.68332 0.23538 0.36291 0.0
H556 H 0.65104 0.24635 0.33284 0.0
H557 H 0.67332 0.19976 0.33151 0.0
H558 H 0.5164 1.01595 0.31746 0.0
H559 H 0.49371 1.05178 0.27445 0.0
H560 H 0.56341 0.2039 0.30951 0.0
C561 C 0.63695 0.13178 0.39807 0.0
C562 C 0.63624 0.08608 0.40932 0.0
C563 C 0.60787 1.03863 0.39581 0.0
C564 C 0.57958 1.03639 0.37133 0.0
C565 C 0.57981 0.08189 0.36104 0.0
C566 C 0.60831 0.12885 0.37374 0.0
C567 C 0.60252 0.17214 0.35827 0.0
C568 C 0.57776 0.19397 0.37792 0.0
C569 C 0.65568 0.21598 0.34562 0.0
C570 C 0.56581 0.14208 0.33509 0.0
C571 C 0.55339 0.09016 0.33695 0.0
C572 C 0.52471 1.05617 0.31613 0.0
C573 C 0.51085 0.07656 0.292 0.0
C574 C 0.52514 0.13024 0.28915 0.0
C575 C 0.55053 0.16239 0.31173 0.0
H576 H 0.73448 0.60302 0.76041 0.0
H577 H 0.57744 0.53461 0.72934 0.0
H578 H 0.60962 0.52729 0.68203 0.0
H579 H 0.801 0.68341 0.69688 0.0
H580 H 0.8562 0.6739 0.70234 0.0
H581 H 0.81707 0.67069 0.73242 0.0
H582 H 0.80195 0.57574 0.74709 0.0
H583 H 0.84121 0.58176 0.71633 0.0
H584 H 0.77555 0.5269 0.72135 0.0
H585 H 0.66174 0.53409 0.63715 0.0
H586 H 0.72878 0.55618 0.59889 0.0
H587 H 0.85092 0.62151 0.66031 0.0
C588 C 0.70732 0.58836 0.74346 0.0
C589 C 0.65418 0.57165 0.74804 0.0
C590 C 0.61868 0.5485 0.72594 0.0
C591 C 0.63658 0.54405 0.69913 0.0
C592 C 0.68987 0.56213 0.69518 0.0
C593 C 0.72459 0.58372 0.71685 0.0
C594 C 0.78003 0.60149 0.70731 0.0
C595 C 0.81569 0.66087 0.70989 0.0
C596 C 0.80097 0.5696 0.72399 0.0
C597 C 0.77167 0.58823 0.67652 0.0
C598 C 0.71931 0.56478 0.66992 0.0
C599 C 0.70263 0.55159 0.64224 0.0
C600 C 0.74063 0.56384 0.62076 0.0
C601 C 0.79426 0.58915 0.6272 0.0
C602 C 0.80984 0.60075 0.65536 0.0
H603 H 0.56638 1.04297 0.59115 0.0
H604 H 0.72772 0.10232 0.56488 0.0
H605 H 0.75133 0.10263 0.6157 0.0
H606 H 0.59302 0.11859 0.65204 0.0
H607 H 0.53956 0.06758 0.67378 0.0
H608 H 0.53543 0.06956 0.63548 0.0
H609 H 0.51763 0.97416 0.63636 0.0
H610 H 0.52235 0.97223 0.67469 0.0
H611 H 0.56338 0.9581 0.65311 0.0
H612 H 0.75875 0.10445 0.67081 0.0
H613 H 0.74893 0.10802 0.72284 0.0
H614 H 0.58242 1.04201 0.7144 0.0
C615 C 0.60665 1.0555 0.59602 0.0
C616 C 0.64512 0.07252 0.57354 0.0
C617 C 0.69731 0.08889 0.5813 0.0
C618 C 0.71111 0.08917 0.6103 0.0
C619 C 0.67239 0.07253 0.63186 0.0
C620 C 0.62107 1.05575 0.62499 0.0
C621 C 0.58714 1.04148 0.65219 0.0
C622 C 0.56233 0.07638 0.65344 0.0
C623 C 0.54513 0.98301 0.6542 0.0
C624 C 0.62722 1.05336 0.67548 0.0
C625 C 0.67627 0.07129 0.6633 0.0
C626 C 0.72019 0.08903 0.68041 0.0
C627 C 0.71421 0.08999 0.71025 0.0
C628 C 0.66461 0.07248 0.7234 0.0
C629 C 0.62047 1.05286 0.70548 0.0
H630 H 0.62682 0.54433 0.91541 0.0
H631 H 0.7598 0.70276 0.90938 0.0
H632 H 0.76671 0.69941 0.96165 0.0
H633 H 0.56977 0.56022 0.97904 0.0
H634 H 0.54733 0.49527 -0.00458 0.0
H635 H 0.5534 0.50624 0.95717 0.0
H636 H 0.61428 0.46781 0.95485 0.0
H637 H 0.60796 0.455 0.99312 0.0
H638 H 0.67186 0.49346 0.97613 0.0
H639 H 0.75866 0.68077 0.01587 0.0
H640 H 0.72902 0.65168 0.06643 0.0
H641 H 0.60171 0.50566 0.03952 0.0
C642 C 0.65751 0.57821 0.92507 0.0
C643 C 0.69308 0.62382 0.90764 0.0
C644 C 0.7321 0.66721 0.92169 0.0
C645 C 0.73656 0.66566 0.95163 0.0
C646 C 0.70151 0.62043 0.96812 0.0
C647 C 0.66224 0.57758 0.9554 0.0
C648 C 0.62806 0.535 0.97851 0.0
C649 C 0.5713 0.52356 0.97747 0.0
C650 C 0.6307 0.48483 0.97546 0.0
C651 C 0.65394 0.56075 0.00595 0.0
C652 C 0.69666 0.60988 -0.00059 0.0
C653 C 0.72546 0.6421 0.02111 0.0
C654 C 0.70892 0.62495 0.04999 0.0
C655 C 0.66368 0.57593 0.0574 0.0
C656 C 0.63721 0.54282 0.03482 0.0
H657 H 0.15866 0.53267 0.25532 0.0
H658 H 1.05617 0.59481 0.23505 0.0
H659 H 1.03972 0.59477 0.28699 0.0
H660 H 1.0861 0.44788 0.31707 0.0
H661 H 0.14347 0.46112 0.33684 0.0
H662 H 0.14631 0.46534 0.29835 0.0
H663 H 0.22357 0.56097 0.29766 0.0
H664 H 0.22159 0.55653 0.33612 0.0
H665 H 0.21666 0.60848 0.31667 0.0
H666 H 1.03535 0.58777 0.34338 0.0
H667 H 1.05188 0.58493 0.39528 0.0
H668 H 0.15743 0.52795 0.37859 0.0
C669 C 0.13281 0.54651 0.26172 0.0
C670 C 0.1088 0.56386 0.24064 0.0
C671 C 1.07542 0.58164 0.25038 0.0
C672 C 1.06557 0.58134 0.28003 0.0
C673 C 1.08941 0.56333 0.30016 0.0
C674 C 0.12295 0.54686 0.29122 0.0
C675 C 0.14552 0.53126 0.31687 0.0
C676 C 0.12939 0.47294 0.3173 0.0
C677 C 0.20538 0.5664 0.31682 0.0
C678 C 0.11974 0.54142 0.34182 0.0
C679 C 1.08704 0.55947 0.33184 0.0
C680 C 1.06059 0.57319 0.35111 0.0
C681 C 1.06943 0.5706 0.38079 0.0
C682 C 0.10453 0.55448 0.3915 0.0
C683 C 0.12882 0.53851 0.37145 0.0
loop_
_geom_bond_atom_site_label_1
_geom_bond_atom_site_label_2
_geom_bond_distance
_geom_bond_site_symmetry_2
_ccdc_geom_bond_type
Tb0 C2 2.809 . S
Tb0 O20 2.484 . S
Tb0 O21 2.440 . S
Tb0 O22 2.658 . S
Tb0 O23 2.409 . S
Tb0 O24 2.378 . S
Tb0 O28 2.325 . S
Tb0 O31 2.341 1_455 S
Tb1 C11 2.809 . S
Tb1 O22 2.325 1_655 S
Tb1 O25 2.341 1_655 S
Tb1 O26 2.484 . S
Tb1 O27 2.440 . S
Tb1 O28 2.658 1_655 S
Tb1 O29 2.409 1_655 S
Tb1 O30 2.378 . S
C2 Tb0 2.809 . S
C2 C3 1.514 . S
C2 O20 1.248 . S
C2 O21 1.266 . S
C3 C2 1.514 . S
C3 C4 1.359 . S
C3 C8 1.348 . S
C4 C3 1.359 . S
C4 C5 1.380 . S
C4 H32 0.929 . S
C5 C4 1.380 . S
C5 C6 1.347 . S
C5 H33 0.931 . S
C6 C5 1.347 . S
C6 C7 1.369 . S
C7 C6 1.369 . S
C7 C8 1.408 . S
C7 H34 0.930 . S
C8 C3 1.348 . S
C8 C7 1.408 . S
C8 H35 0.930 . S
C9 O22 1.281 . S
C9 O23 1.254 . S
C10 O24 1.236 . S
C10 O25 1.266 . S
C11 Tb1 2.809 . S
C11 C12 1.514 . S
C11 O26 1.248 . S
C11 O27 1.266 . S
C12 C11 1.514 . S
C12 C13 1.359 . S
C12 C17 1.348 . S
C13 C12 1.359 . S
C13 C14 1.380 . S
C13 H36 0.929 . S
C14 C13 1.380 . S
C14 C15 1.347 . S
C14 H37 0.931 . S
C15 C14 1.347 . S
C15 C16 1.369 . S
C16 C15 1.369 . S
C16 C17 1.408 . S
C16 H38 0.930 . S
C17 C12 1.348 . S
C17 C16 1.408 . S
C17 H39 0.930 . S
C18 O28 1.281 . S
C18 O29 1.255 . S
C19 O30 1.236 . S
C19 O31 1.266 . S
O20 Tb0 2.484 . S
O20 C2 1.248 . S
O21 Tb0 2.440 . S
O21 C2 1.266 . S
O22 Tb0 2.658 . S
O22 Tb1 2.325 1_455 S
O22 C9 1.281 . S
O23 Tb0 2.409 . S
O23 C9 1.254 . S
O24 Tb0 2.378 . S
O24 C10 1.236 . S
O25 Tb1 2.341 1_455 S
O25 C10 1.266 . S
O26 Tb1 2.484 . S
O26 C11 1.248 . S
O27 Tb1 2.440 . S
O27 C11 1.266 . S
O28 Tb0 2.325 . S
O28 Tb1 2.658 1_455 S
O28 C18 1.281 . S
O29 Tb1 2.409 1_455 S
O29 C18 1.255 . S
O30 Tb1 2.378 . S
O30 C19 1.236 . S
O31 Tb0 2.341 1_655 S
O31 C19 1.266 . S
H32 C4 0.929 . S
H33 C5 0.931 . S
H34 C7 0.930 . S
H35 C8 0.930 . S
H36 C13 0.929 . S
H37 C14 0.931 . S
H38 C16 0.930 . S
H39 C17 0.930 . S
Tb40 C42 2.805 1_545 S
Tb40 O60 2.481 1_545 S
Tb40 O61 2.436 1_545 S
Tb40 O62 2.662 . S
Tb40 O63 2.409 . S
Tb40 O64 2.378 1_545 S
Tb40 O68 2.327 . S
Tb40 O71 2.345 . S
Tb41 C51 2.809 . S
Tb41 O62 2.325 . S
Tb41 O65 2.341 1_545 S
Tb41 O66 2.484 . S
Tb41 O67 2.440 . S
Tb41 O68 2.658 . S
Tb41 O69 2.409 . S
Tb41 O70 2.378 . S
C42 Tb40 2.805 1_565 S
C42 C43 1.514 . S
C42 O60 1.248 . S
C42 O61 1.266 . S
C43 C42 1.514 . S
C43 C44 1.359 . S
C43 C48 1.348 . S
C44 C43 1.359 . S
C44 C45 1.380 . S
C44 H72 0.929 . S
C45 C44 1.380 . S
C45 C46 1.347 . S
C45 H73 0.931 . S
C46 C45 1.347 . S
C46 C47 1.369 . S
C47 C46 1.369 . S
C47 C48 1.408 . S
C47 H74 0.930 . S
C48 C43 1.348 . S
C48 C47 1.408 . S
C48 H75 0.930 . S
C49 O62 1.281 . S
C49 O63 1.254 . S
C50 O64 1.236 . S
C50 O65 1.266 . S
C51 Tb41 2.809 . S
C51 C52 1.514 . S
C51 O66 1.248 . S
C51 O67 1.266 . S
C52 C51 1.514 . S
C52 C53 1.359 . S
C52 C57 1.348 . S
C53 C52 1.359 . S
C53 C54 1.380 . S
C53 H76 0.929 . S
C54 C53 1.380 . S
C54 C55 1.347 . S
C54 H77 0.931 . S
C55 C54 1.347 . S
C55 C56 1.369 . S
C56 C55 1.369 . S
C56 C57 1.408 . S
C56 H78 0.930 . S
C57 C52 1.348 . S
C57 C56 1.408 . S
C57 H79 0.930 . S
C58 O68 1.281 . S
C58 O69 1.254 . S
C59 O70 1.236 . S
C59 O71 1.266 . S
O60 Tb40 2.481 1_565 S
O60 C42 1.248 . S
O61 Tb40 2.436 1_565 S
O61 C42 1.266 . S
O62 Tb40 2.662 . S
O62 Tb41 2.325 . S
O62 C49 1.281 . S
O63 Tb40 2.409 . S
O63 C49 1.254 . S
O64 Tb40 2.378 1_565 S
O64 C50 1.236 . S
O65 Tb41 2.341 1_565 S
O65 C50 1.266 . S
O66 Tb41 2.484 . S
O66 C51 1.248 . S
O67 Tb41 2.440 . S
O67 C51 1.266 . S
O68 Tb40 2.327 . S
O68 Tb41 2.658 . S
O68 C58 1.281 . S
O69 Tb41 2.409 . S
O69 C58 1.254 . S
O70 Tb41 2.378 . S
O70 C59 1.236 . S
O71 Tb40 2.345 . S
O71 C59 1.266 . S
H72 C44 0.929 . S
H73 C45 0.931 . S
H74 C47 0.930 . S
H75 C48 0.930 . S
H76 C53 0.929 . S
H77 C54 0.931 . S
H78 C56 0.930 . S
H79 C57 0.930 . S
Tb80 C82 2.809 . S
Tb80 O100 2.484 . S
Tb80 O101 2.440 . S
Tb80 O102 2.658 . S
Tb80 O103 2.409 . S
Tb80 O104 2.378 . S
Tb80 O108 2.325 . S
Tb80 O111 2.341 . S
Tb81 C91 2.809 . S
Tb81 O102 2.325 . S
Tb81 O105 2.341 . S
Tb81 O106 2.484 . S
Tb81 O107 2.440 . S
Tb81 O108 2.658 . S
Tb81 O109 2.409 . S
Tb81 O110 2.378 . S
C82 Tb80 2.809 . S
C82 C83 1.514 . S
C82 O100 1.248 . S
C82 O101 1.266 . S
C83 C82 1.514 . S
C83 C84 1.359 . S
C83 C88 1.348 . S
C84 C83 1.359 . S
C84 C85 1.380 . S
C84 H112 0.929 . S
C85 C84 1.380 . S
C85 C86 1.347 . S
C85 H113 0.931 . S
C86 C85 1.347 . S
C86 C87 1.369 . S
C87 C86 1.369 . S
C87 C88 1.408 . S
C87 H114 0.930 . S
C88 C83 1.348 . S
C88 C87 1.408 . S
C88 H115 0.930 . S
C89 O102 1.281 . S
C89 O103 1.254 . S
C90 O104 1.236 . S
C90 O105 1.266 . S
C91 Tb81 2.809 . S
C91 C92 1.514 . S
C91 O106 1.248 . S
C91 O107 1.266 . S
C92 C91 1.514 . S
C92 C93 1.359 . S
C92 C97 1.348 . S
C93 C92 1.359 . S
C93 C94 1.380 . S
C93 H116 0.929 . S
C94 C93 1.380 . S
C94 C95 1.347 . S
C94 H117 0.931 . S
C95 C94 1.347 . S
C95 C96 1.369 . S
C96 C95 1.369 . S
C96 C97 1.408 . S
C96 H118 0.930 . S
C97 C92 1.348 . S
C97 C96 1.408 . S
C97 H119 0.930 . S
C98 O108 1.281 . S
C98 O109 1.254 . S
C99 O110 1.236 . S
C99 O111 1.266 . S
O100 Tb80 2.484 . S
O100 C82 1.248 . S
O101 Tb80 2.440 . S
O101 C82 1.266 . S
O102 Tb80 2.658 . S
O102 Tb81 2.325 . S
O102 C89 1.281 . S
O103 Tb80 2.409 . S
O103 C89 1.254 . S
O104 Tb80 2.378 . S
O104 C90 1.236 . S
O105 Tb81 2.341 . S
O105 C90 1.266 . S
O106 Tb81 2.484 . S
O106 C91 1.248 . S
O107 Tb81 2.440 . S
O107 C91 1.266 . S
O108 Tb80 2.325 . S
O108 Tb81 2.658 . S
O108 C98 1.281 . S
O109 Tb81 2.409 . S
O109 C98 1.254 . S
O110 Tb81 2.378 . S
O110 C99 1.236 . S
O111 Tb80 2.341 . S
O111 C99 1.266 . S
H112 C84 0.929 . S
H113 C85 0.931 . S
H114 C87 0.930 . S
H115 C88 0.930 . S
H116 C93 0.929 . S
H117 C94 0.931 . S
H118 C96 0.930 . S
H119 C97 0.930 . S
C120 N121 1.317 . S
C120 N122 1.348 1_545 S
C120 C123 1.485 . S
N121 C120 1.317 . S
N121 N125 1.370 . S
N122 C120 1.348 1_565 S
N122 C124 1.346 . S
C123 C120 1.485 . S
C123 H127 0.960 . S
C123 H128 0.961 . S
C123 H129 0.960 . S
C124 N122 1.346 . S
C124 N125 1.307 1_565 S
C124 C126 1.486 . S
N125 N121 1.370 . S
N125 C124 1.307 1_545 S
C126 C124 1.486 . S
C126 H130 0.960 . S
C126 H131 0.960 . S
C126 H132 0.959 . S
H127 C123 0.960 . S
H128 C123 0.961 . S
H129 C123 0.960 . S
H130 C126 0.960 . S
H131 C126 0.960 . S
H132 C126 0.959 . S
C133 N134 1.317 . S
C133 N135 1.348 . S
C133 C136 1.485 . S
N134 C133 1.317 . S
N134 N138 1.370 . S
N135 C133 1.348 . S
N135 C137 1.346 . S
C136 C133 1.485 . S
C136 H140 0.960 . S
C136 H141 0.961 . S
C136 H142 0.960 . S
C137 N135 1.346 . S
C137 N138 1.307 . S
C137 C139 1.486 . S
N138 N134 1.370 . S
N138 C137 1.307 . S
C139 C137 1.486 . S
C139 H143 0.960 . S
C139 H144 0.960 . S
C139 H145 0.959 . S
H140 C136 0.960 . S
H141 C136 0.961 . S
H142 C136 0.960 . S
H143 C139 0.960 . S
H144 C139 0.960 . S
H145 C139 0.959 . S
C146 N147 1.317 . S
C146 N148 1.348 1_455 S
C146 C149 1.485 . S
N147 C146 1.317 . S
N147 N151 1.370 . S
N148 C146 1.348 1_655 S
N148 C150 1.346 . S
C149 C146 1.485 . S
C149 H153 0.960 . S
C149 H154 0.961 1_455 S
C149 H155 0.960 . S
C150 N148 1.346 . S
C150 N151 1.307 1_655 S
C150 C152 1.486 . S
N151 N147 1.370 . S
N151 C150 1.307 1_455 S
C152 C150 1.486 . S
C152 H156 0.960 . S
C152 H157 0.960 . S
C152 H158 0.959 . S
H153 C149 0.960 . S
H154 C149 0.961 1_655 S
H155 C149 0.960 . S
H156 C152 0.960 . S
H157 C152 0.960 . S
H158 C152 0.959 . S
C159 N160 1.317 . S
C159 N161 1.348 . S
C159 C162 1.485 . S
N160 C159 1.317 . S
N160 N164 1.370 . S
N161 C159 1.348 . S
N161 C163 1.346 . S
C162 C159 1.485 . S
C162 H166 0.960 . S
C162 H167 0.961 . S
C162 H168 0.960 . S
C163 N161 1.346 . S
C163 N164 1.307 . S
C163 C165 1.486 . S
N164 N160 1.370 . S
N164 C163 1.307 . S
C165 C163 1.486 . S
C165 H169 0.960 . S
C165 H170 0.960 . S
C165 H171 0.959 . S
H166 C162 0.960 . S
H167 C162 0.961 . S
H168 C162 0.960 . S
H169 C165 0.960 . S
H170 C165 0.960 . S
H171 C165 0.959 . S
C172 N173 1.317 . S
C172 N174 1.348 . S
C172 C175 1.485 . S
N173 C172 1.317 . S
N173 N177 1.370 . S
N174 C172 1.348 . S
N174 C176 1.346 . S
C175 C172 1.485 . S
C175 H179 0.960 . S
C175 H180 0.961 . S
C175 H181 0.960 . S
C176 N174 1.346 . S
C176 N177 1.307 . S
C176 C178 1.486 . S
N177 N173 1.370 . S
N177 C176 1.307 . S
C178 C176 1.486 . S
C178 H182 0.960 . S
C178 H183 0.960 . S
C178 H184 0.959 . S
H179 C175 0.960 . S
H180 C175 0.961 . S
H181 C175 0.960 . S
H182 C178 0.960 . S
H183 C178 0.960 . S
H184 C178 0.959 . S
C185 N186 1.317 . S
C185 N187 1.348 . S
C185 C188 1.485 . S
N186 C185 1.317 . S
N186 N190 1.370 . S
N187 C185 1.348 . S
N187 C189 1.346 . S
C188 C185 1.485 . S
C188 H192 0.960 . S
C188 H193 0.961 . S
C188 H194 0.960 . S
C189 N187 1.346 . S
C189 N190 1.307 . S
C189 C191 1.486 . S
N190 N186 1.370 . S
N190 C189 1.307 . S
C191 C189 1.486 . S
C191 H195 0.960 . S
C191 H196 0.960 . S
C191 H197 0.959 . S
H192 C188 0.960 . S
H193 C188 0.961 . S
H194 C188 0.960 . S
H195 C191 0.960 . S
H196 C191 0.960 . S
H197 C191 0.959 . S
H198 C210 0.930 . S
H199 C212 0.930 . S
H200 C213 0.930 . S
H201 C217 0.959 . S
H202 C217 0.959 . S
H203 C217 0.961 . S
H204 C218 0.960 . S
H205 C218 0.961 . S
H206 C218 0.959 . S
H207 C221 0.929 . S
H208 C222 0.931 . S
H209 C224 0.930 . S
C210 H198 0.930 . S
C210 C211 1.399 . S
C210 C215 1.399 . S
C211 C210 1.399 . S
C211 C212 1.376 . S
C212 H199 0.930 . S
C212 C211 1.376 . S
C212 C213 1.388 . S
C213 H200 0.930 . S
C213 C212 1.388 . S
C213 C214 1.390 . S
C214 C213 1.390 . S
C214 C215 1.394 . S
C214 C220 1.465 . S
C215 C210 1.399 . S
C215 C214 1.394 . S
C215 C216 1.516 . S
C216 C215 1.516 . S
C216 C217 1.502 . S
C216 C218 1.561 . S
C216 C219 1.526 . S
C217 H201 0.959 . S
C217 H202 0.959 . S
C217 H203 0.961 . S
C217 C216 1.502 . S
C218 H204 0.960 . S
C218 H205 0.961 . S
C218 H206 0.959 . S
C218 C216 1.561 . S
C219 C216 1.526 . S
C219 C220 1.396 . S
C219 C224 1.390 . S
C220 C214 1.465 . S
C220 C219 1.396 . S
C220 C221 1.399 . S
C221 H207 0.929 . S
C221 C220 1.399 . S
C221 C222 1.385 . S
C222 H208 0.931 . S
C222 C221 1.385 . S
C222 C223 1.389 . S
C223 C222 1.389 . S
C223 C224 1.387 . S
C224 H209 0.930 . S
C224 C219 1.390 . S
C224 C223 1.387 . S
H225 C237 0.930 . S
H226 C239 0.930 . S
H227 C240 0.930 . S
H228 C244 0.959 . S
H229 C244 0.959 . S
H230 C244 0.961 . S
H231 C245 0.960 . S
H232 C245 0.961 . S
H233 C245 0.959 . S
H234 C248 0.929 . S
H235 C249 0.931 . S
H236 C251 0.930 . S
C237 H225 0.930 . S
C237 C238 1.399 . S
C237 C242 1.399 . S
C238 C237 1.399 . S
C238 C239 1.376 . S
C239 H226 0.930 . S
C239 C238 1.376 . S
C239 C240 1.388 . S
C240 H227 0.930 . S
C240 C239 1.388 . S
C240 C241 1.390 . S
C241 C240 1.390 . S
C241 C242 1.394 . S
C241 C247 1.465 . S
C242 C237 1.399 . S
C242 C241 1.394 . S
C242 C243 1.516 . S
C243 C242 1.516 . S
C243 C244 1.502 . S
C243 C245 1.561 . S
C243 C246 1.526 . S
C244 H228 0.959 . S
C244 H229 0.959 . S
C244 H230 0.961 . S
C244 C243 1.502 . S
C245 H231 0.960 . S
C245 H232 0.961 . S
C245 H233 0.959 . S
C245 C243 1.561 . S
C246 C243 1.526 . S
C246 C247 1.396 . S
C246 C251 1.390 . S
C247 C241 1.465 . S
C247 C246 1.396 . S
C247 C248 1.399 . S
C248 H234 0.929 . S
C248 C247 1.399 . S
C248 C249 1.385 . S
C249 H235 0.931 . S
C249 C248 1.385 . S
C249 C250 1.389 . S
C250 C249 1.389 . S
C250 C251 1.387 . S
C251 H236 0.930 . S
C251 C246 1.390 . S
C251 C250 1.387 . S
H252 C264 0.930 . S
H253 C266 0.930 . S
H254 C267 0.930 . S
H255 C271 0.959 . S
H256 C271 0.959 . S
H257 C271 0.961 . S
H258 C272 0.960 . S
H259 C272 0.961 . S
H260 C272 0.959 . S
H261 C275 0.929 . S
H262 C276 0.931 . S
H263 C278 0.930 . S
C264 H252 0.930 . S
C264 C265 1.399 . S
C264 C269 1.399 . S
C265 C264 1.399 . S
C265 C266 1.376 . S
C266 H253 0.930 . S
C266 C265 1.376 . S
C266 C267 1.388 . S
C267 H254 0.930 . S
C267 C266 1.388 . S
C267 C268 1.390 . S
C268 C267 1.390 . S
C268 C269 1.394 . S
C268 C274 1.465 . S
C269 C264 1.399 . S
C269 C268 1.394 . S
C269 C270 1.516 . S
C270 C269 1.516 . S
C270 C271 1.502 . S
C270 C272 1.561 . S
C270 C273 1.526 . S
C271 H255 0.959 . S
C271 H256 0.959 . S
C271 H257 0.961 . S
C271 C270 1.502 . S
C272 H258 0.960 . S
C272 H259 0.961 . S
C272 H260 0.959 . S
C272 C270 1.561 . S
C273 C270 1.526 . S
C273 C274 1.396 . S
C273 C278 1.390 . S
C274 C268 1.465 . S
C274 C273 1.396 . S
C274 C275 1.399 . S
C275 H261 0.929 . S
C275 C274 1.399 . S
C275 C276 1.385 . S
C276 H262 0.931 . S
C276 C275 1.385 . S
C276 C277 1.389 . S
C277 C276 1.389 . S
C277 C278 1.387 . S
C278 H263 0.930 . S
C278 C273 1.390 . S
C278 C277 1.387 . S
H279 C291 0.930 . S
H280 C293 0.930 . S
H281 C294 0.930 . S
H282 C298 0.959 . S
H283 C298 0.959 . S
H284 C298 0.961 . S
H285 C299 0.960 . S
H286 C299 0.961 . S
H287 C299 0.959 . S
H288 C302 0.929 . S
H289 C303 0.931 . S
H290 C305 0.930 . S
C291 H279 0.930 . S
C291 C292 1.399 . S
C291 C296 1.399 . S
C292 C291 1.399 . S
C292 C293 1.376 . S
C293 H280 0.930 . S
C293 C292 1.376 . S
C293 C294 1.388 . S
C294 H281 0.930 . S
C294 C293 1.388 . S
C294 C295 1.390 . S
C295 C294 1.390 . S
C295 C296 1.394 . S
C295 C301 1.465 . S
C296 C291 1.399 . S
C296 C295 1.394 . S
C296 C297 1.516 . S
C297 C296 1.516 . S
C297 C298 1.502 . S
C297 C299 1.561 . S
C297 C300 1.526 . S
C298 H282 0.959 . S
C298 H283 0.959 . S
C298 H284 0.961 . S
C298 C297 1.502 . S
C299 H285 0.960 . S
C299 H286 0.961 . S
C299 H287 0.959 . S
C299 C297 1.561 . S
C300 C297 1.526 . S
C300 C301 1.396 . S
C300 C305 1.390 . S
C301 C295 1.465 . S
C301 C300 1.396 . S
C301 C302 1.399 . S
C302 H288 0.929 . S
C302 C301 1.399 . S
C302 C303 1.385 . S
C303 H289 0.931 . S
C303 C302 1.385 . S
C303 C304 1.389 . S
C304 C303 1.389 . S
C304 C305 1.387 . S
C305 H290 0.930 . S
C305 C300 1.390 . S
C305 C304 1.387 . S
H306 C318 0.930 . S
H307 C320 0.930 . S
H308 C321 0.930 . S
H309 C325 0.959 . S
H310 C325 0.959 . S
H311 C325 0.961 . S
H312 C326 0.960 . S
H313 C326 0.961 . S
H314 C326 0.959 . S
H315 C329 0.929 . S
H316 C330 0.931 . S
H317 C332 0.930 . S
C318 H306 0.930 . S
C318 C319 1.399 . S
C318 C323 1.399 . S
C319 C318 1.399 . S
C319 C320 1.376 . S
C320 H307 0.930 . S
C320 C319 1.376 . S
C320 C321 1.388 . S
C321 H308 0.930 . S
C321 C320 1.388 . S
C321 C322 1.390 . S
C322 C321 1.390 . S
C322 C323 1.394 . S
C322 C328 1.465 . S
C323 C318 1.399 . S
C323 C322 1.394 . S
C323 C324 1.516 . S
C324 C323 1.516 . S
C324 C325 1.502 . S
C324 C326 1.561 . S
C324 C327 1.526 . S
C325 H309 0.959 . S
C325 H310 0.959 . S
C325 H311 0.961 . S
C325 C324 1.502 . S
C326 H312 0.960 . S
C326 H313 0.961 . S
C326 H314 0.959 . S
C326 C324 1.561 . S
C327 C324 1.526 . S
C327 C328 1.396 . S
C327 C332 1.390 . S
C328 C322 1.465 . S
C328 C327 1.396 . S
C328 C329 1.399 . S
C329 H315 0.929 . S
C329 C328 1.399 . S
C329 C330 1.385 . S
C330 H316 0.931 . S
C330 C329 1.385 . S
C330 C331 1.389 . S
C331 C330 1.389 . S
C331 C332 1.387 . S
C332 H317 0.930 . S
C332 C327 1.390 . S
C332 C331 1.387 . S
H333 C345 0.930 . S
H334 C347 0.930 . S
H335 C348 0.930 . S
H336 C352 0.959 . S
H337 C352 0.959 . S
H338 C352 0.961 . S
H339 C353 0.960 . S
H340 C353 0.961 . S
H341 C353 0.959 . S
H342 C356 0.929 . S
H343 C357 0.931 . S
H344 C359 0.930 . S
C345 H333 0.930 . S
C345 C346 1.399 . S
C345 C350 1.399 . S
C346 C345 1.399 . S
C346 C347 1.376 . S
C347 H334 0.930 . S
C347 C346 1.376 . S
C347 C348 1.388 . S
C348 H335 0.930 . S
C348 C347 1.388 . S
C348 C349 1.390 . S
C349 C348 1.390 . S
C349 C350 1.394 . S
C349 C355 1.465 . S
C350 C345 1.399 . S
C350 C349 1.394 . S
C350 C351 1.516 . S
C351 C350 1.516 . S
C351 C352 1.502 . S
C351 C353 1.561 . S
C351 C354 1.526 . S
C352 H336 0.959 . S
C352 H337 0.959 . S
C352 H338 0.961 . S
C352 C351 1.502 . S
C353 H339 0.960 . S
C353 H340 0.961 . S
C353 H341 0.959 . S
C353 C351 1.561 . S
C354 C351 1.526 . S
C354 C355 1.396 . S
C354 C359 1.390 . S
C355 C349 1.465 . S
C355 C354 1.396 . S
C355 C356 1.399 . S
C356 H342 0.929 . S
C356 C355 1.399 . S
C356 C357 1.385 . S
C357 H343 0.931 . S
C357 C356 1.385 . S
C357 C358 1.389 . S
C358 C357 1.389 . S
C358 C359 1.387 . S
C359 H344 0.930 . S
C359 C354 1.390 . S
C359 C358 1.387 . S
H360 C372 0.930 . S
H361 C374 0.930 . S
H362 C375 0.930 . S
H363 C379 0.959 . S
H364 C379 0.959 . S
H365 C379 0.961 . S
H366 C380 0.960 . S
H367 C380 0.961 . S
H368 C380 0.959 . S
H369 C383 0.929 . S
H370 C384 0.931 . S
H371 C386 0.930 . S
C372 H360 0.930 . S
C372 C373 1.399 . S
C372 C377 1.399 . S
C373 C372 1.399 . S
C373 C374 1.376 . S
C374 H361 0.930 . S
C374 C373 1.376 . S
C374 C375 1.388 . S
C375 H362 0.930 . S
C375 C374 1.388 . S
C375 C376 1.390 . S
C376 C375 1.390 . S
C376 C377 1.394 . S
C376 C382 1.465 . S
C377 C372 1.399 . S
C377 C376 1.394 . S
C377 C378 1.516 . S
C378 C377 1.516 . S
C378 C379 1.502 . S
C378 C380 1.561 . S
C378 C381 1.526 . S
C379 H363 0.959 . S
C379 H364 0.959 . S
C379 H365 0.961 . S
C379 C378 1.502 . S
C380 H366 0.960 . S
C380 H367 0.961 . S
C380 H368 0.959 . S
C380 C378 1.561 . S
C381 C378 1.526 . S
C381 C382 1.396 . S
C381 C386 1.390 . S
C382 C376 1.465 . S
C382 C381 1.396 . S
C382 C383 1.399 . S
C383 H369 0.929 . S
C383 C382 1.399 . S
C383 C384 1.385 . S
C384 H370 0.931 . S
C384 C383 1.385 . S
C384 C385 1.389 . S
C385 C384 1.389 . S
C385 C386 1.387 . S
C386 H371 0.930 . S
C386 C381 1.390 . S
C386 C385 1.387 . S
H387 C399 0.930 . S
H388 C401 0.930 . S
H389 C402 0.930 . S
H390 C406 0.959 . S
H391 C406 0.959 . S
H392 C406 0.961 . S
H393 C407 0.960 . S
H394 C407 0.961 . S
H395 C407 0.959 . S
H396 C410 0.929 . S
H397 C411 0.931 1_455 S
H398 C413 0.930 . S
C399 H387 0.930 . S
C399 C400 1.399 . S
C399 C404 1.399 . S
C400 C399 1.399 . S
C400 C401 1.376 . S
C401 H388 0.930 . S
C401 C400 1.376 . S
C401 C402 1.388 . S
C402 H389 0.930 . S
C402 C401 1.388 . S
C402 C403 1.390 . S
C403 C402 1.390 . S
C403 C404 1.394 . S
C403 C409 1.465 . S
C404 C399 1.399 . S
C404 C403 1.394 . S
C404 C405 1.516 . S
C405 C404 1.516 . S
C405 C406 1.502 . S
C405 C407 1.561 . S
C405 C408 1.526 . S
C406 H390 0.959 . S
C406 H391 0.959 . S
C406 H392 0.961 . S
C406 C405 1.502 . S
C407 H393 0.960 . S
C407 H394 0.961 . S
C407 H395 0.959 . S
C407 C405 1.561 . S
C408 C405 1.526 . S
C408 C409 1.396 . S
C408 C413 1.390 . S
C409 C403 1.465 . S
C409 C408 1.396 . S
C409 C410 1.399 . S
C410 H396 0.929 . S
C410 C409 1.399 . S
C410 C411 1.385 . S
C411 H397 0.931 1_655 S
C411 C410 1.385 . S
C411 C412 1.389 . S
C412 C411 1.389 . S
C412 C413 1.387 . S
C413 H398 0.930 . S
C413 C408 1.390 . S
C413 C412 1.387 . S
H414 C426 0.930 . S
H415 C428 0.930 . S
H416 C429 0.930 . S
H417 C433 0.959 . S
H418 C433 0.959 . S
H419 C433 0.961 . S
H420 C434 0.960 . S
H421 C434 0.961 . S
H422 C434 0.959 . S
H423 C437 0.929 . S
H424 C438 0.931 . S
H425 C440 0.930 . S
C426 H414 0.930 . S
C426 C427 1.399 . S
C426 C431 1.399 . S
C427 C426 1.399 . S
C427 C428 1.376 . S
C428 H415 0.930 . S
C428 C427 1.376 . S
C428 C429 1.388 . S
C429 H416 0.930 . S
C429 C428 1.388 . S
C429 C430 1.390 . S
C430 C429 1.390 . S
C430 C431 1.394 . S
C430 C436 1.465 . S
C431 C426 1.399 . S
C431 C430 1.394 . S
C431 C432 1.516 . S
C432 C431 1.516 . S
C432 C433 1.502 . S
C432 C434 1.561 . S
C432 C435 1.526 . S
C433 H417 0.959 . S
C433 H418 0.959 . S
C433 H419 0.961 . S
C433 C432 1.502 . S
C434 H420 0.960 . S
C434 H421 0.961 . S
C434 H422 0.959 . S
C434 C432 1.561 . S
C435 C432 1.526 . S
C435 C436 1.396 . S
C435 C440 1.390 . S
C436 C430 1.465 . S
C436 C435 1.396 . S
C436 C437 1.399 . S
C437 H423 0.929 . S
C437 C436 1.399 . S
C437 C438 1.385 . S
C438 H424 0.931 . S
C438 C437 1.385 . S
C438 C439 1.389 . S
C439 C438 1.389 . S
C439 C440 1.387 . S
C440 H425 0.930 . S
C440 C435 1.390 . S
C440 C439 1.387 . S
H441 C453 0.930 . S
H442 C455 0.930 . S
H443 C456 0.930 . S
H444 C460 0.959 . S
H445 C460 0.959 . S
H446 C460 0.961 . S
H447 C461 0.960 . S
H448 C461 0.961 . S
H449 C461 0.959 . S
H450 C464 0.929 . S
H451 C465 0.931 . S
H452 C467 0.930 . S
C453 H441 0.930 . S
C453 C454 1.399 . S
C453 C458 1.399 . S
C454 C453 1.399 . S
C454 C455 1.376 . S
C455 H442 0.930 . S
C455 C454 1.376 . S
C455 C456 1.388 . S
C456 H443 0.930 . S
C456 C455 1.388 . S
C456 C457 1.390 . S
C457 C456 1.390 . S
C457 C458 1.394 . S
C457 C463 1.465 . S
C458 C453 1.399 . S
C458 C457 1.394 . S
C458 C459 1.516 . S
C459 C458 1.516 . S
C459 C460 1.502 . S
C459 C461 1.561 . S
C459 C462 1.526 . S
C460 H444 0.959 . S
C460 H445 0.959 . S
C460 H446 0.961 . S
C460 C459 1.502 . S
C461 H447 0.960 . S
C461 H448 0.961 . S
C461 H449 0.959 . S
C461 C459 1.561 . S
C462 C459 1.526 . S
C462 C463 1.396 . S
C462 C467 1.390 . S
C463 C457 1.465 . S
C463 C462 1.396 . S
C463 C464 1.399 . S
C464 H450 0.929 . S
C464 C463 1.399 . S
C464 C465 1.385 . S
C465 H451 0.931 . S
C465 C464 1.385 . S
C465 C466 1.389 . S
C466 C465 1.389 . S
C466 C467 1.387 . S
C467 H452 0.930 . S
C467 C462 1.390 . S
C467 C466 1.387 . S
H468 C480 0.930 . S
H469 C482 0.930 . S
H470 C483 0.930 . S
H471 C487 0.959 . S
H472 C487 0.959 . S
H473 C487 0.961 . S
H474 C488 0.960 . S
H475 C488 0.961 . S
H476 C488 0.959 . S
H477 C491 0.929 . S
H478 C492 0.931 . S
H479 C494 0.930 . S
C480 H468 0.930 . S
C480 C481 1.399 . S
C480 C485 1.399 . S
C481 C480 1.399 . S
C481 C482 1.376 . S
C482 H469 0.930 . S
C482 C481 1.376 . S
C482 C483 1.388 . S
C483 H470 0.930 . S
C483 C482 1.388 . S
C483 C484 1.390 . S
C484 C483 1.390 . S
C484 C485 1.394 . S
C484 C490 1.465 . S
C485 C480 1.399 . S
C485 C484 1.394 . S
C485 C486 1.516 . S
C486 C485 1.516 . S
C486 C487 1.502 . S
C486 C488 1.561 . S
C486 C489 1.526 . S
C487 H471 0.959 . S
C487 H472 0.959 . S
C487 H473 0.961 . S
C487 C486 1.502 . S
C488 H474 0.960 . S
C488 H475 0.961 . S
C488 H476 0.959 . S
C488 C486 1.561 . S
C489 C486 1.526 . S
C489 C490 1.396 . S
C489 C494 1.390 . S
C490 C484 1.465 . S
C490 C489 1.396 . S
C490 C491 1.399 . S
C491 H477 0.929 . S
C491 C490 1.399 . S
C491 C492 1.385 . S
C492 H478 0.931 . S
C492 C491 1.385 . S
C492 C493 1.389 . S
C493 C492 1.389 . S
C493 C494 1.387 . S
C494 H479 0.930 . S
C494 C489 1.390 . S
C494 C493 1.387 . S
H495 C507 0.930 . S
H496 C509 0.930 . S
H497 C510 0.930 . S
H498 C514 0.959 . S
H499 C514 0.959 . S
H500 C514 0.961 . S
H501 C515 0.960 . S
H502 C515 0.961 . S
H503 C515 0.959 . S
H504 C518 0.929 . S
H505 C519 0.931 . S
H506 C521 0.930 . S
C507 H495 0.930 . S
C507 C508 1.399 . S
C507 C512 1.399 . S
C508 C507 1.399 . S
C508 C509 1.376 . S
C509 H496 0.930 . S
C509 C508 1.376 . S
C509 C510 1.388 . S
C510 H497 0.930 . S
C510 C509 1.388 . S
C510 C511 1.390 . S
C511 C510 1.390 . S
C511 C512 1.394 . S
C511 C517 1.465 . S
C512 C507 1.399 . S
C512 C511 1.394 . S
C512 C513 1.516 . S
C513 C512 1.516 . S
C513 C514 1.502 . S
C513 C515 1.561 . S
C513 C516 1.526 . S
C514 H498 0.959 . S
C514 H499 0.959 . S
C514 H500 0.961 . S
C514 C513 1.502 . S
C515 H501 0.960 . S
C515 H502 0.961 . S
C515 H503 0.959 . S
C515 C513 1.561 . S
C516 C513 1.526 . S
C516 C517 1.396 . S
C516 C521 1.390 . S
C517 C511 1.465 . S
C517 C516 1.396 . S
C517 C518 1.399 . S
C518 H504 0.929 . S
C518 C517 1.399 . S
C518 C519 1.385 . S
C519 H505 0.931 . S
C519 C518 1.385 . S
C519 C520 1.389 . S
C520 C519 1.389 . S
C520 C521 1.387 . S
C521 H506 0.930 . S
C521 C516 1.390 . S
C521 C520 1.387 . S
H522 C534 0.930 . S
H523 C536 0.930 . S
H524 C537 0.930 . S
H525 C541 0.959 . S
H526 C541 0.959 1_456 S
H527 C541 0.961 . S
H528 C542 0.960 . S
H529 C542 0.961 1_556 S
H530 C542 0.959 . S
H531 C545 0.929 . S
H532 C546 0.931 . S
H533 C548 0.930 . S
C534 H522 0.930 . S
C534 C535 1.399 . S
C534 C539 1.399 . S
C535 C534 1.399 . S
C535 C536 1.376 . S
C536 H523 0.930 . S
C536 C535 1.376 . S
C536 C537 1.388 . S
C537 H524 0.930 . S
C537 C536 1.388 . S
C537 C538 1.390 . S
C538 C537 1.390 . S
C538 C539 1.394 . S
C538 C544 1.465 . S
C539 C534 1.399 . S
C539 C538 1.394 . S
C539 C540 1.516 . S
C540 C539 1.516 . S
C540 C541 1.502 1_455 S
C540 C542 1.561 . S
C540 C543 1.526 1_554 S
C541 H525 0.959 . S
C541 H526 0.959 1_654 S
C541 H527 0.961 . S
C541 C540 1.502 1_655 S
C542 H528 0.960 . S
C542 H529 0.961 1_554 S
C542 H530 0.959 . S
C542 C540 1.561 . S
C543 C540 1.526 1_556 S
C543 C544 1.396 1_556 S
C543 C548 1.390 . S
C544 C538 1.465 . S
C544 C543 1.396 1_554 S
C544 C545 1.399 1_554 S
C545 H531 0.929 . S
C545 C544 1.399 1_556 S
C545 C546 1.385 . S
C546 H532 0.931 . S
C546 C545 1.385 . S
C546 C547 1.389 . S
C547 C546 1.389 . S
C547 C548 1.387 . S
C548 H533 0.930 . S
C548 C543 1.390 . S
C548 C547 1.387 . S
H549 C561 0.930 . S
H550 C563 0.930 . S
H551 C564 0.930 . S
H552 C568 0.959 . S
H553 C568 0.959 . S
H554 C568 0.961 . S
H555 C569 0.960 . S
H556 C569 0.961 . S
H557 C569 0.959 . S
H558 C572 0.929 . S
H559 C573 0.931 . S
H560 C575 0.930 . S
C561 H549 0.930 . S
C561 C562 1.399 . S
C561 C566 1.399 . S
C562 C561 1.399 . S
C562 C563 1.376 1_545 S
C563 H550 0.930 . S
C563 C562 1.376 1_565 S
C563 C564 1.388 . S
C564 H551 0.930 . S
C564 C563 1.388 . S
C564 C565 1.390 1_565 S
C565 C564 1.390 1_545 S
C565 C566 1.394 . S
C565 C571 1.465 . S
C566 C561 1.399 . S
C566 C565 1.394 . S
C566 C567 1.516 . S
C567 C566 1.516 . S
C567 C568 1.502 . S
C567 C569 1.561 . S
C567 C570 1.526 . S
C568 H552 0.959 . S
C568 H553 0.959 . S
C568 H554 0.961 . S
C568 C567 1.502 . S
C569 H555 0.960 . S
C569 H556 0.961 . S
C569 H557 0.959 . S
C569 C567 1.561 . S
C570 C567 1.526 . S
C570 C571 1.396 . S
C570 C575 1.390 . S
C571 C565 1.465 . S
C571 C570 1.396 . S
C571 C572 1.399 1_545 S
C572 H558 0.929 . S
C572 C571 1.399 1_565 S
C572 C573 1.385 . S
C573 H559 0.931 . S
C573 C572 1.385 . S
C573 C574 1.389 1_565 S
C574 C573 1.389 1_545 S
C574 C575 1.387 . S
C575 H560 0.930 . S
C575 C570 1.390 . S
C575 C574 1.387 . S
H576 C588 0.930 . S
H577 C590 0.930 . S
H578 C591 0.930 . S
H579 C595 0.959 . S
H580 C595 0.959 . S
H581 C595 0.961 . S
H582 C596 0.960 . S
H583 C596 0.961 . S
H584 C596 0.959 . S
H585 C599 0.929 . S
H586 C600 0.931 . S
H587 C602 0.930 . S
C588 H576 0.930 . S
C588 C589 1.399 . S
C588 C593 1.399 . S
C589 C588 1.399 . S
C589 C590 1.376 . S
C590 H577 0.930 . S
C590 C589 1.376 . S
C590 C591 1.388 . S
C591 H578 0.930 . S
C591 C590 1.388 . S
C591 C592 1.390 . S
C592 C591 1.390 . S
C592 C593 1.394 . S
C592 C598 1.465 . S
C593 C588 1.399 . S
C593 C592 1.394 . S
C593 C594 1.516 . S
C594 C593 1.516 . S
C594 C595 1.502 . S
C594 C596 1.561 . S
C594 C597 1.526 . S
C595 H579 0.959 . S
C595 H580 0.959 . S
C595 H581 0.961 . S
C595 C594 1.502 . S
C596 H582 0.960 . S
C596 H583 0.961 . S
C596 H584 0.959 . S
C596 C594 1.561 . S
C597 C594 1.526 . S
C597 C598 1.396 . S
C597 C602 1.390 . S
C598 C592 1.465 . S
C598 C597 1.396 . S
C598 C599 1.399 . S
C599 H585 0.929 . S
C599 C598 1.399 . S
C599 C600 1.385 . S
C600 H586 0.931 . S
C600 C599 1.385 . S
C600 C601 1.389 . S
C601 C600 1.389 . S
C601 C602 1.387 . S
C602 H587 0.930 . S
C602 C597 1.390 . S
C602 C601 1.387 . S
H603 C615 0.930 . S
H604 C617 0.930 . S
H605 C618 0.930 . S
H606 C622 0.959 . S
H607 C622 0.959 . S
H608 C622 0.961 . S
H609 C623 0.960 . S
H610 C623 0.961 . S
H611 C623 0.959 . S
H612 C626 0.929 . S
H613 C627 0.931 . S
H614 C629 0.930 . S
C615 H603 0.930 . S
C615 C616 1.399 1_565 S
C615 C620 1.399 1_565 S
C616 C615 1.399 1_545 S
C616 C617 1.376 . S
C617 H604 0.930 . S
C617 C616 1.376 . S
C617 C618 1.388 . S
C618 H605 0.930 . S
C618 C617 1.388 . S
C618 C619 1.390 . S
C619 C618 1.390 . S
C619 C620 1.394 . S
C619 C625 1.465 . S
C620 C615 1.399 1_545 S
C620 C619 1.394 . S
C620 C621 1.516 1_545 S
C621 C620 1.516 1_565 S
C621 C622 1.502 . S
C621 C623 1.561 . S
C621 C624 1.526 1_565 S
C622 H606 0.959 . S
C622 H607 0.959 . S
C622 H608 0.961 . S
C622 C621 1.502 . S
C623 H609 0.960 . S
C623 H610 0.961 . S
C623 H611 0.959 . S
C623 C621 1.561 . S
C624 C621 1.526 1_545 S
C624 C625 1.396 . S
C624 C629 1.390 1_545 S
C625 C619 1.465 . S
C625 C624 1.396 . S
C625 C626 1.399 . S
C626 H612 0.929 . S
C626 C625 1.399 . S
C626 C627 1.385 . S
C627 H613 0.931 . S
C627 C626 1.385 . S
C627 C628 1.389 . S
C628 C627 1.389 . S
C628 C629 1.387 1_545 S
C629 H614 0.930 . S
C629 C624 1.390 1_565 S
C629 C628 1.387 1_565 S
H630 C642 0.930 . S
H631 C644 0.930 . S
H632 C645 0.930 . S
H633 C649 0.965 . S
H634 C649 0.982 . S
H635 C649 0.935 1_556 S
H636 C650 0.960 . S
H637 C650 0.961 1_554 S
H638 C650 0.959 . S
H639 C653 0.929 . S
H640 C654 0.931 . S
H641 C656 0.930 . S
C642 H630 0.930 . S
C642 C643 1.399 . S
C642 C647 1.399 . S
C643 C642 1.399 . S
C643 C644 1.376 . S
C644 H631 0.930 . S
C644 C643 1.376 . S
C644 C645 1.388 . S
C645 H632 0.930 . S
C645 C644 1.388 . S
C645 C646 1.390 . S
C646 C645 1.390 . S
C646 C647 1.394 . S
C646 C652 1.465 1_556 S
C647 C642 1.399 . S
C647 C646 1.394 . S
C647 C648 1.516 . S
C648 C647 1.516 . S
C648 C649 1.501 1_556 S
C648 C650 1.561 . S
C648 C651 1.526 1_556 S
C649 H633 0.965 . S
C649 H634 0.982 . S
C649 H635 0.935 1_554 S
C649 C648 1.501 1_554 S
C650 H636 0.960 . S
C650 H637 0.961 1_556 S
C650 H638 0.959 . S
C650 C648 1.561 . S
C651 C648 1.526 1_554 S
C651 C652 1.396 . S
C651 C656 1.390 . S
C652 C646 1.465 1_554 S
C652 C651 1.396 . S
C652 C653 1.399 . S
C653 H639 0.929 . S
C653 C652 1.399 . S
C653 C654 1.385 . S
C654 H640 0.931 . S
C654 C653 1.385 . S
C654 C655 1.389 . S
C655 C654 1.389 . S
C655 C656 1.387 . S
C656 H641 0.930 . S
C656 C651 1.390 . S
C656 C655 1.387 . S
H657 C669 0.930 . S
H658 C671 0.930 . S
H659 C672 0.930 . S
H660 C676 0.959 . S
H661 C676 0.959 . S
H662 C676 0.961 . S
H663 C677 0.960 . S
H664 C677 0.961 . S
H665 C677 0.959 . S
H666 C680 0.929 1_655 S
H667 C681 0.931 . S
H668 C683 0.930 . S
C669 H657 0.930 . S
C669 C670 1.399 . S
C669 C674 1.399 . S
C670 C669 1.399 . S
C670 C671 1.376 1_455 S
C671 H658 0.930 . S
C671 C670 1.376 1_655 S
C671 C672 1.388 . S
C672 H659 0.930 . S
C672 C671 1.388 . S
C672 C673 1.390 1_655 S
C673 C672 1.390 1_455 S
C673 C674 1.394 . S
C673 C679 1.465 . S
C674 C669 1.399 . S
C674 C673 1.394 . S
C674 C675 1.516 . S
C675 C674 1.516 . S
C675 C676 1.502 . S
C675 C677 1.561 . S
C675 C678 1.526 . S
C676 H660 0.959 . S
C676 H661 0.959 . S
C676 H662 0.961 . S
C676 C675 1.502 . S
C677 H663 0.960 . S
C677 H664 0.961 . S
C677 H665 0.959 . S
C677 C675 1.561 . S
C678 C675 1.526 . S
C678 C679 1.396 . S
C678 C683 1.390 . S
C679 C673 1.465 . S
C679 C678 1.396 . S
C679 C680 1.399 . S
C680 H666 0.929 1_455 S
C680 C679 1.399 . S
C680 C681 1.385 . S
C681 H667 0.931 . S
C681 C680 1.385 . S
C681 C682 1.389 . S
C682 C681 1.389 . S
C682 C683 1.387 . S
C683 H668 0.930 . S
C683 C678 1.390 . S
C683 C682 1.387 . S
C211 C10 2.733 . S
C223 N187 2.701 . S
C238 C59 2.954 . S
C250 N160 2.962 1_655 S
C265 C90 2.878 . S
C277 N173 2.906 1_565 S
C292 C19 3.314 . S
C304 N186 3.326 . S
C331 N161 3.032 . S
C319 C50 3.023 . S
C358 N174 3.104 . S
C346 C99 3.124 . S
C373 C46 0.195 . S
C385 N134 0.301 . S
C400 C95 0.425 . S
C412 N148 0.114 . S
C427 C6 0.679 . S
C439 N122 0.519 . S
C466 N135 0.441 . S
C454 C55 0.643 . S
C493 N147 0.687 . S
C481 C86 0.790 . S
C508 C15 0.260 . S
C520 N121 0.386 . S
C547 N151 1.212 . S
C535 C9 1.205 . S
C562 C49 1.237 . S
C574 N125 1.241 . S
C589 C89 1.156 . S
C601 N138 1.213 . S
C628 N177 1.793 . S
C616 C58 1.713 . S
C655 N190 1.740 . S
C643 C98 1.652 . S
C670 C18 1.685 . S
C682 N164 1.745 . S
