# Generated by pormake.
# Topology anh, (6,3)-cn, num edge types: 1
# Building blocks:
#     Node 0, Type 0, BuildingBlock: PAMTOO_clean_sbu_0, # of connection points: 6
#     Node 1, Type 0, BuildingBlock: PAMTOO_clean_sbu_0, # of connection points: 6
#     Node 2, Type 0, BuildingBlock: PAMTOO_clean_sbu_0, # of connection points: 6
#     Node 3, Type 1, BuildingBlock: BELTOD_clean_linker_0, # of connection points: 3
#     Node 4, Type 1, BuildingBlock: BELTOD_clean_linker_0, # of connection points: 3
#     Node 5, Type 1, BuildingBlock: BELTOD_clean_linker_0, # of connection points: 3
#     Node 6, Type 1, BuildingBlock: BELTOD_clean_linker_0, # of connection points: 3
#     Node 7, Type 1, BuildingBlock: BELTOD_clean_linker_0, # of connection points: 3
#     Node 8, Type 1, BuildingBlock: BELTOD_clean_linker_0, # of connection points: 3
#     Edge 9, Type (0, 1), BuildingBlock: EZIPEK_clean_linker_0, # of connection points: 2
#     Edge 10, Type (0, 1), BuildingBlock: EZIPEK_clean_linker_0, # of connection points: 2
#     Edge 11, Type (0, 1), BuildingBlock: EZIPEK_clean_linker_0, # of connection points: 2
#     Edge 12, Type (0, 1), BuildingBlock: EZIPEK_clean_linker_0, # of connection points: 2
#     Edge 13, Type (0, 1), BuildingBlock: EZIPEK_clean_linker_0, # of connection points: 2
#     Edge 14, Type (0, 1), BuildingBlock: EZIPEK_clean_linker_0, # of connection points: 2
#     Edge 15, Type (0, 1), BuildingBlock: EZIPEK_clean_linker_0, # of connection points: 2
#     Edge 16, Type (0, 1), BuildingBlock: EZIPEK_clean_linker_0, # of connection points: 2
#     Edge 17, Type (0, 1), BuildingBlock: EZIPEK_clean_linker_0, # of connection points: 2
#     Edge 18, Type (0, 1), BuildingBlock: EZIPEK_clean_linker_0, # of connection points: 2
#     Edge 19, Type (0, 1), BuildingBlock: EZIPEK_clean_linker_0, # of connection points: 2
#     Edge 20, Type (0, 1), BuildingBlock: EZIPEK_clean_linker_0, # of connection points: 2
#     Edge 21, Type (0, 1), BuildingBlock: EZIPEK_clean_linker_0, # of connection points: 2
#     Edge 22, Type (0, 1), BuildingBlock: EZIPEK_clean_linker_0, # of connection points: 2
#     Edge 23, Type (0, 1), BuildingBlock: EZIPEK_clean_linker_0, # of connection points: 2
#     Edge 24, Type (0, 1), BuildingBlock: EZIPEK_clean_linker_0, # of connection points: 2
#     Edge 25, Type (0, 1), BuildingBlock: EZIPEK_clean_linker_0, # of connection points: 2
#     Edge 26, Type (0, 1), BuildingBlock: EZIPEK_clean_linker_0, # of connection points: 2
# Relax obj value: 0.220
# Max RMSD: 0.210
# Mean RMSD: 0.160
data_MOF--net-anh--node1-PAMTOO_clean_sbu_0--node2-BELTOD_clean_linker_0--edge1-EZIPEK_clean_linker_0
_symmetry_space_group_name_H-M    P1
_symmetry_Int_Tables_number       1
_symmetry_cell_setting            triclinic
loop_
_symmetry_equiv_pos_as_xyz
'x, y, z'
_cell_length_a     26.236118
_cell_length_b     25.340982
_cell_length_c     47.147018
_cell_angle_alpha  90.025882
_cell_angle_beta   95.171908
_cell_angle_gamma 100.79093
loop_
_atom_site_label
_atom_site_type_symbol
_atom_site_fract_x
_atom_site_fract_y
_atom_site_fract_z
_atom_type_partial_charge
Dy0 Dy 0.0863 0.62388 0.14344 0.0
Dy1 Dy 1.05699 0.49186 0.13062 0.0
C2 C 1.07057 0.57582 0.08044 0.0
O3 O 0.9989 0.61059 0.14142 0.0
O4 O 0.98004 0.51841 0.13432 0.0
O5 O 0.11347 0.70198 0.1263 0.0
O6 O 0.10187 0.69459 0.171 0.0
O7 O 1.07671 0.50115 0.1776 0.0
O8 O 1.07083 0.58928 0.18579 0.0
O9 O 0.14354 0.50738 0.12825 0.0
O10 O 0.16376 0.59582 0.14405 0.0
O11 O 1.06229 0.40984 0.14069 0.0
O12 O 1.0084 0.42645 0.10583 0.0
C13 C 0.96535 0.56482 0.13797 0.0
O14 O 1.0589 0.61163 0.09746 0.0
O15 O 1.07956 0.5293 0.08956 0.0
C16 C 0.17331 0.75837 0.15847 0.0
C17 C 0.27321 0.81926 0.17387 0.0
C18 C 0.26757 0.76952 0.1597 0.0
C19 C 0.21799 0.73923 0.15209 0.0
C20 C 0.17893 0.80819 0.17252 0.0
C21 C 0.22861 0.83846 0.18023 0.0
C22 C 0.12104 0.72599 0.15117 0.0
C23 C 1.07566 0.54149 0.19485 0.0
C24 C 0.17784 0.55106 0.13602 0.0
C25 C 0.98084 0.35221 0.13438 0.0
C26 C 0.9028 0.27986 0.15895 0.0
C27 C 0.91179 0.33474 0.16618 0.0
C28 C 0.95052 0.3707 0.15393 0.0
C29 C 0.9715 0.29746 0.12692 0.0
C30 C 0.93261 0.26145 0.13911 0.0
C31 C 1.02301 0.38985 0.12249 0.0
H32 H 0.30159 0.75393 0.15485 0.0
H33 H 0.21457 0.70075 0.14137 0.0
H34 H 0.14492 0.82344 0.17772 0.0
H35 H 0.23234 0.87665 0.1913 0.0
H36 H 0.88918 0.34955 0.18148 0.0
H37 H 0.95719 0.41287 0.1599 0.0
H38 H 0.99459 0.28252 0.11191 0.0
H39 H 0.92617 0.21917 0.13337 0.0
Dy40 Dy 0.54497 0.013 0.52275 0.0
Dy41 Dy 0.67382 0.04308 0.52951 0.0
C42 C 0.60888 0.02729 0.58316 0.0
O43 O 0.56305 0.10177 0.51574 0.0
O44 O 0.64809 0.1211 0.53581 0.0
O45 O 0.47233 0.9832 0.54047 0.0
O46 O 0.47205 0.00832 0.49658 0.0
O47 O 0.64671 0.05894 0.48477 0.0
O48 O 0.57387 0.99332 0.48159 0.0
O49 O 0.65529 0.9538 0.5226 0.0
O50 O 0.57023 0.93545 0.53403 0.0
O51 O 0.74736 0.03881 0.51327 0.0
O52 O 0.74563 0.0811 0.55305 0.0
C53 C 0.60476 0.13612 0.52583 0.0
O54 O 0.56982 0.04158 0.56761 0.0
O55 O 0.64862 0.01454 0.5716 0.0
C56 C 0.41096 0.93207 0.50693 0.0
C57 C 0.34822 0.83441 0.48729 0.0
C58 C 0.39737 0.83492 0.50176 0.0
C59 C 0.42864 0.88344 0.51142 0.0
C60 C 0.36159 0.9315 0.49264 0.0
C61 C 0.33035 0.88286 0.48281 0.0
C62 C 0.44481 0.98336 0.51603 0.0
C63 C 0.61075 0.0252 0.46956 0.0
C64 C 0.61371 0.91992 0.5291 0.0
C65 C 0.81022 0.11698 0.52318 0.0
C66 C 0.87853 0.20294 0.50138 0.0
C67 C 0.82695 0.20756 0.50479 0.0
C68 C 0.79288 0.16468 0.51552 0.0
C69 C 0.86192 0.11272 0.52016 0.0
C70 C 0.89592 0.15548 0.50932 0.0
C71 C 0.77414 0.07084 0.53319 0.0
H72 H 0.41179 0.79783 0.50517 0.0
H73 H 0.46682 0.88301 0.52217 0.0
H74 H 0.34753 0.96866 0.48881 0.0
H75 H 0.29254 0.88297 0.47151 0.0
H76 H 0.81298 0.24395 0.49875 0.0
H77 H 0.75294 0.16848 0.51759 0.0
H78 H 0.87578 0.07611 0.52585 0.0
H79 H 0.93564 0.15139 0.50679 0.0
Dy80 Dy 0.61758 0.49226 0.84787 0.0
Dy81 Dy 0.49004 0.46927 0.83228 0.0
C82 C 0.56671 0.4915 0.78312 0.0
O83 O 0.59929 0.57463 0.84806 0.0
O84 O 0.51223 0.55893 0.83158 0.0
O85 O 0.69345 0.53962 0.84395 0.0
O86 O 0.68558 0.46676 0.86863 0.0
O87 O 0.50543 0.45576 0.87919 0.0
O88 O 0.58647 0.50841 0.88832 0.0
O89 O 0.51306 0.39029 0.82481 0.0
O90 O 0.58963 0.40449 0.85385 0.0
O91 O 0.4153 0.47503 0.84622 0.0
O92 O 0.41978 0.43796 0.80523 0.0
C93 C 0.55643 0.59161 0.83921 0.0
O94 O 0.60447 0.47943 0.80066 0.0
O95 O 0.52182 0.49694 0.79163 0.0
C96 C 0.7611 0.49176 0.8445 0.0
C97 C 0.84657 0.48413 0.81423 0.0
C98 C 0.79635 0.45866 0.80348 0.0
C99 C 0.75354 0.46294 0.81849 0.0
C100 C 0.81141 0.51352 0.85614 0.0
C101 C 0.85379 0.50985 0.84113 0.0
C102 C 0.71748 0.50585 0.858 0.0
C103 C 0.54299 0.48234 0.89696 0.0
C104 C 0.55177 0.3725 0.83879 0.0
C105 C 0.36413 0.50084 0.8079 0.0
C106 C 0.33204 0.59839 0.79525 0.0
C107 C 0.30634 0.56296 0.81453 0.0
C108 C 0.32221 0.51443 0.82078 0.0
C109 C 0.38715 0.53441 0.78687 0.0
C110 C 0.37073 0.58273 0.78034 0.0
C111 C 0.39125 0.46021 0.82124 0.0
H112 H 0.79004 0.43793 0.78301 0.0
H113 H 0.71458 0.44609 0.80925 0.0
H114 H 0.81775 0.536 0.87612 0.0
H115 H 0.89218 0.52982 0.84987 0.0
H116 H 0.27597 0.57437 0.82601 0.0
H117 H 0.30448 0.48956 0.83728 0.0
H118 H 0.42017 0.52524 0.77693 0.0
H119 H 0.39052 0.60946 0.7652 0.0
P120 P 0.64946 0.98207 0.25426 0.0
H121 H 0.59495 0.87583 0.23366 0.0
H122 H 0.50567 0.84277 0.21301 0.0
H123 H 0.47643 1.0046 0.21155 0.0
H124 H 0.56616 0.03803 0.23243 0.0
H125 H 0.73125 0.98459 0.21612 0.0
H126 H 0.78776 0.05796 0.1939 0.0
H127 H 0.70913 0.1727 0.23056 0.0
H128 H 0.65257 0.09901 0.25323 0.0
H129 H 0.56288 0.94737 0.28925 0.0
H130 H 0.71446 0.05062 0.29902 0.0
O131 O 0.68183 0.93123 0.25673 0.0
H132 H 0.553 0.96096 0.33966 0.0
H133 H 0.70419 0.06417 0.34971 0.0
C134 C 0.58744 0.95953 0.2342 0.0
C135 C 0.56994 0.90452 0.22834 0.0
C136 C 0.51897 0.88555 0.21666 0.0
C137 C 0.48477 0.92131 0.21076 0.0
C138 C 0.50257 0.97657 0.21582 0.0
C139 C 0.55368 0.99557 0.22758 0.0
C140 C 0.68836 0.03648 0.23674 0.0
C141 C 0.72601 0.02544 0.21945 0.0
C142 C 0.75818 0.06719 0.2067 0.0
C143 C 0.75271 0.12056 0.21076 0.0
C144 C 0.7139 0.13166 0.2273 0.0
C145 C 0.68178 0.08974 0.24019 0.0
C146 C 0.63891 0.99916 0.29011 0.0
C147 C 0.59351 0.97406 0.30196 0.0
C148 C 0.58783 0.98155 0.33077 0.0
C149 C 0.62769 0.0138 0.34822 0.0
C150 C 0.67284 0.03959 0.3364 0.0
C151 C 0.67855 0.032 0.30752 0.0
P152 P 0.67207 0.53897 0.57619 0.0
H153 H 0.72899 0.45171 0.57652 0.0
H154 H 0.70547 0.35819 0.56008 0.0
H155 H 0.55744 0.38704 0.5225 0.0
H156 H 0.58129 0.4818 0.53899 0.0
H157 H 0.71283 0.61319 0.53283 0.0
H158 H 0.69374 0.70106 0.51856 0.0
H159 H 0.55935 0.67408 0.56662 0.0
H160 H 0.57842 0.58619 0.58104 0.0
H161 H 0.71164 0.59311 0.63059 0.0
H162 H 0.58247 0.46955 0.59888 0.0
O163 O 0.73688 0.55717 0.58032 0.0
H164 H 0.68338 0.5813 0.67884 0.0
H165 H 0.55447 0.45785 0.64706 0.0
C166 C 0.65736 0.47407 0.55845 0.0
C167 C 0.69201 0.4386 0.56407 0.0
C168 C 0.67852 0.38508 0.55486 0.0
C169 C 0.62978 0.36574 0.54015 0.0
C170 C 0.59535 0.4014 0.53375 0.0
C171 C 0.60905 0.45537 0.54297 0.0
C172 C 0.64755 0.59344 0.55834 0.0
C173 C 0.67829 0.62529 0.53959 0.0
C174 C 0.66749 0.67546 0.53146 0.0
C175 C 0.62543 0.69414 0.54175 0.0
C176 C 0.59196 0.66027 0.55847 0.0
C177 C 0.60291 0.61012 0.56668 0.0
C178 C 0.64994 0.53131 0.61128 0.0
C179 C 0.67741 0.56338 0.63399 0.0
C180 C 0.66131 0.55679 0.66143 0.0
C181 C 0.61725 0.51835 0.66641 0.0
C182 C 0.58885 0.48736 0.64357 0.0
C183 C 0.60498 0.49396 0.61613 0.0
P184 P 0.1052 0.74587 0.8816 0.0
H185 H 0.14841 0.82427 0.8407 0.0
H186 H 0.21758 0.81799 0.80983 0.0
H187 H 0.26897 0.69906 0.86514 0.0
H188 H 0.20218 0.7072 0.89648 0.0
H189 H 0.99549 0.69762 0.87272 0.0
H190 H 0.94733 0.62353 0.84196 0.0
H191 H 0.0877 0.61123 0.80346 0.0
H192 H 0.13612 0.68386 0.83448 0.0
H193 H 0.09698 0.78549 0.93916 0.0
H194 H 0.11139 0.63629 0.89931 0.0
O195 O 1.07634 0.79918 0.88202 0.0
H196 H 0.09005 0.74037 0.98519 0.0
H197 H 0.10461 0.59142 0.94532 0.0
C198 C 0.16965 0.76553 0.87062 0.0
C199 C 0.17667 0.79944 0.84716 0.0
C200 C 0.21572 0.79545 0.82935 0.0
C201 C 0.24657 0.7563 0.8346 0.0
C202 C 0.24464 0.7287 0.86042 0.0
C203 C 0.20654 0.73356 0.87846 0.0
C204 C 1.06925 0.6971 0.85581 0.0
C205 C 1.01581 0.67962 0.85741 0.0
C206 C 0.9885 0.63729 0.83998 0.0
C207 C 1.01428 0.61182 0.8207 0.0
C208 C 1.06734 0.63031 0.81831 0.0
C209 C 0.09481 0.67225 0.83602 0.0
C210 C 0.1041 0.71413 0.9158 0.0
C211 C 0.0988 0.74321 0.94031 0.0
C212 C 0.09473 0.71752 0.96649 0.0
C213 C 0.0962 0.66252 0.96846 0.0
C214 C 0.10288 0.63375 0.94409 0.0
C215 C 0.10681 0.65941 0.91793 0.0
P216 P 0.16646 0.45931 0.40664 0.0
H217 H 0.2611 0.4996 0.44387 0.0
H218 H 0.3 0.58942 0.46323 0.0
H219 H 0.16689 0.65073 0.42627 0.0
H220 H 0.12802 0.56102 0.40655 0.0
H221 H 0.12738 0.34475 0.40791 0.0
H222 H 1.05641 0.28989 0.4312 0.0
H223 H 1.01833 0.43318 0.46643 0.0
H224 H 0.08983 0.4883 0.44333 0.0
H225 H 0.21811 0.46253 0.35436 0.0
H226 H 1.06764 0.48041 0.37889 0.0
O227 O 0.21446 0.42428 0.40708 0.0
H228 H 0.19102 0.48174 0.30493 0.0
H229 H 1.04096 0.50093 0.3294 0.0
C230 C 0.19198 0.52379 0.42345 0.0
C231 C 0.24002 0.53215 0.44002 0.0
C232 C 0.26221 0.58326 0.4511 0.0
C233 C 0.23631 0.62641 0.44598 0.0
C234 C 0.18734 0.61773 0.43033 0.0
C235 C 0.16533 0.56666 0.41907 0.0
C236 C 0.11452 0.42043 0.42438 0.0
C237 C 0.10412 0.36443 0.42083 0.0
C238 C 1.06364 0.33318 0.434 0.0
C239 C 1.03265 0.35759 0.45067 0.0
C240 C 1.04227 0.41377 0.45381 0.0
C241 C 1.08306 0.44509 0.44069 0.0
C242 C 0.14457 0.4692 0.37014 0.0
C243 C 0.17906 0.4699 0.34906 0.0
C244 C 0.16371 0.48097 0.32093 0.0
C245 C 0.11393 0.49235 0.31358 0.0
C246 C 1.07934 0.49172 0.33468 0.0
C247 C 0.09456 0.48002 0.36282 0.0
P248 P 0.63028 0.9995 0.8039 0.0
H249 H 0.67288 0.08268 0.84714 0.0
H250 H 0.64681 0.16773 0.85777 0.0
H251 H 0.5026 0.1182 0.8051 0.0
H252 H 0.52841 0.03224 0.79468 0.0
H253 H 0.67437 0.93025 0.84491 0.0
H254 H 0.6502 0.83442 0.85463 0.0
H255 H 0.50823 0.82516 0.79965 0.0
H256 H 0.5326 0.92169 0.78969 0.0
H257 H 0.61931 0.08837 0.76531 0.0
H258 H 0.6259 0.91997 0.75789 0.0
O259 O 0.69467 0.01281 0.81214 0.0
H260 H 0.61113 0.09465 0.71345 0.0
H261 H 0.61911 0.92691 0.70579 0.0
C262 C 0.60293 0.0515 0.81972 0.0
C263 C 0.63483 0.08905 0.83863 0.0
C264 C 0.62001 0.13767 0.84473 0.0
C265 C 0.57311 0.1494 0.83196 0.0
C266 C 0.53892 0.10979 0.81517 0.0
C267 C 0.55358 0.06077 0.8093 0.0
C268 C 0.6057 0.93289 0.81617 0.0
C269 C 0.6375 0.90812 0.83535 0.0
C270 C 0.62372 0.85344 0.84099 0.0
C271 C 0.57768 0.82279 0.82772 0.0
C272 C 0.5439 0.84829 0.81011 0.0
C273 C 0.55778 0.90322 0.80444 0.0
C274 C 0.62083 1.00305 0.7656 0.0
C275 C 0.61779 0.05241 0.75265 0.0
C276 C 0.6136 0.05624 0.72302 0.0
C277 C 0.614 0.01114 0.70586 0.0
C278 C 0.61809 0.96197 0.71874 0.0
C279 C 0.6217 0.95802 0.74843 0.0
P280 P 0.55914 0.49462 0.11795 0.0
H281 H 0.6362 0.4667 0.16201 0.0
H282 H 0.73158 0.48828 0.16734 0.0
H283 H 0.72906 0.61102 0.10438 0.0
H284 H 0.63313 0.58909 0.0988 0.0
H285 H 0.46857 0.43702 0.14467 0.0
H286 H 0.38207 0.45606 0.14934 0.0
H287 H 0.4323 0.61788 0.12174 0.0
H288 H 0.52002 0.59852 0.11656 0.0
H289 H 0.62853 0.47275 0.07619 0.0
H290 H 0.47356 0.50861 0.07438 0.0
O291 O 0.5543 0.43018 0.12675 0.0
H292 H 0.62023 0.46846 0.02399 0.0
H293 H 0.46588 0.50452 0.0224 0.0
C294 C 0.62664 0.52601 0.1299 0.0
C295 C 0.65569 0.49952 0.14993 0.0
C296 C 0.71055 0.51157 0.15286 0.0
C297 C 0.73812 0.55079 0.13599 0.0
C298 C 0.70907 0.58036 0.11758 0.0
C299 C 0.65403 0.5682 0.11462 0.0
C300 C 0.50198 0.51645 0.13058 0.0
C301 C 0.46215 0.47729 0.14034 0.0
C302 C 0.41209 0.48795 0.14281 0.0
C303 C 0.39997 0.5382 0.13564 0.0
C304 C 0.4404 0.57868 0.1274 0.0
C305 C 0.49083 0.56785 0.12479 0.0
C306 C 0.55263 0.49316 0.07942 0.0
C307 C 0.5931 0.48047 0.06471 0.0
C308 C 0.5883 0.47757 0.03497 0.0
C309 C 0.54262 0.48659 0.01951 0.0
C310 C 0.50156 0.4979 0.03409 0.0
C311 C 0.50634 0.50076 0.06385 0.0
C312 C 0.26868 0.5569 0.16171 0.0
C313 C 0.23539 0.54997 0.13581 0.0
C314 C 0.31142 0.54185 0.10946 0.0
C315 C 0.34413 0.54641 0.13551 0.0
N316 N 0.35468 0.55737 0.18646 0.0
N317 N 0.22431 0.53419 0.08503 0.0
C318 C 0.32289 0.55409 0.16161 0.0
C319 C 0.25671 0.5421 0.10969 0.0
N320 N 0.24805 0.56549 0.18656 0.0
N321 N 0.33302 0.53777 0.08438 0.0
H322 H 0.18522 0.53755 0.08393 0.0
H323 H 0.23496 0.52227 0.06567 0.0
H324 H 0.37196 0.53496 0.0834 0.0
H325 H 0.31367 0.53983 0.0643 0.0
H326 H 0.26985 0.5768 0.20584 0.0
H327 H 0.2082 0.56236 0.18793 0.0
H328 H 0.34199 0.55768 0.2067 0.0
H329 H 0.39468 0.55834 0.18698 0.0
C330 C 0.95573 0.27843 0.5067 0.0
C331 C 0.91452 0.24727 0.48893 0.0
C332 C 0.94466 0.29803 0.44746 0.0
C333 C 0.98984 0.32356 0.46451 0.0
N334 N 1.04152 0.33495 0.50986 0.0
N335 N 0.87206 0.22299 0.44192 0.0
C336 C 0.99608 0.31331 0.49409 0.0
C337 C 0.90928 0.25615 0.45917 0.0
N338 N 0.95573 0.27524 0.53565 0.0
N339 N 0.93531 0.31447 0.42018 0.0
H340 H 0.84526 0.19187 0.44963 0.0
H341 H 0.87022 0.22357 0.41977 0.0
H342 H 0.96046 0.34521 0.411 0.0
H343 H 0.90053 0.30125 0.40761 0.0
H344 H 0.98175 0.30087 0.5498 0.0
H345 H 0.92665 0.25008 0.54556 0.0
H346 H 1.0508 0.32399 0.5307 0.0
H347 H 1.07186 0.36108 0.50149 0.0
C348 C 0.52882 0.67896 0.85117 0.0
C349 C 0.55942 0.65052 0.83556 0.0
C350 C 0.5948 0.73403 0.81179 0.0
C351 C 0.56873 0.76316 0.82959 0.0
N352 N 0.5154 0.76544 0.86831 0.0
N353 N 0.62575 0.65209 0.80281 0.0
C354 C 0.53681 0.73617 0.84982 0.0
C355 C 0.59369 0.67843 0.81644 0.0
N356 N 0.49197 0.65147 0.86717 0.0
N357 N 0.61942 0.75931 0.78975 0.0
H358 H 0.62372 0.61068 0.80336 0.0
H359 H 0.6565 0.67171 0.79196 0.0
H360 H 0.62171 0.80014 0.78579 0.0
H361 H 0.63365 0.73911 0.77387 0.0
H362 H 0.46488 0.66917 0.87665 0.0
H363 H 0.48563 0.60994 0.86937 0.0
H364 H 0.4967 0.74911 0.88573 0.0
H365 H 0.51923 0.80712 0.86731 0.0
C366 C 0.87463 0.54795 0.11191 0.0
C367 C 0.90761 0.56482 0.13716 0.0
C368 C 0.83033 0.57969 0.16036 0.0
C369 C 0.79686 0.55753 0.1361 0.0
N370 N 0.7874 0.51197 0.09044 0.0
N371 N 0.91568 0.58966 0.1869 0.0
C372 C 0.81917 0.53949 0.11229 0.0
C373 C 0.88512 0.57904 0.16177 0.0
N374 N 0.8964 0.54165 0.08716 0.0
N375 N 0.80991 0.60269 0.18184 0.0
H376 H 0.95558 0.58956 0.18878 0.0
H377 H 0.90092 0.59424 0.20634 0.0
H378 H 0.77034 0.60394 0.18151 0.0
H379 H 0.83259 0.62451 0.19872 0.0
H380 H 0.87496 0.53514 0.06737 0.0
H381 H 0.93658 0.54816 0.08593 0.0
H382 H 0.80119 0.49246 0.07412 0.0
H383 H 0.74686 0.50436 0.08988 0.0
C384 C 0.32404 0.7642 0.44853 0.0
C385 C 0.31644 0.7829 0.47592 0.0
C386 C 0.25562 0.6992 0.48367 0.0
C387 C 0.26194 0.68128 0.45592 0.0
N388 N 0.29525 0.69865 0.41013 0.0
N389 N 0.2703 0.77309 0.5181 0.0
C390 C 0.29406 0.71447 0.43778 0.0
C391 C 0.28069 0.75183 0.49306 0.0
N392 N 0.36111 0.79334 0.43319 0.0
N393 N 0.22678 0.66524 0.50127 0.0
H394 H 0.28897 0.81097 0.52592 0.0
H395 H 0.24078 0.7551 0.53023 0.0
H396 H 0.2064 0.62718 0.49472 0.0
H397 H 0.22533 0.6732 0.5228 0.0
H398 H 0.37322 0.7791 0.41471 0.0
H399 H 0.38242 0.83096 0.43984 0.0
H400 H 0.3131 0.7234 0.39485 0.0
H401 H 0.27511 0.66173 0.40173 0.0
C402 C 0.52078 0.27534 0.85035 0.0
C403 C 0.55499 0.31488 0.83629 0.0
C404 C 0.5944 0.24458 0.81615 0.0
C405 C 0.5643 0.20573 0.8326 0.0
N406 N 0.50236 0.18379 0.86745 0.0
N407 N 0.62948 0.33839 0.80905 0.0
C408 C 0.52813 0.22093 0.85017 0.0
C409 C 0.59333 0.29985 0.82016 0.0
N410 N 0.48148 0.28987 0.86392 0.0
N411 N 0.62274 0.22842 0.7959 0.0
H412 H 0.62917 0.37934 0.8105 0.0
H413 H 0.66214 0.33012 0.80019 0.0
H414 H 0.62421 0.18823 0.79203 0.0
H415 H 0.64076 0.25423 0.78107 0.0
H416 H 0.45192 0.26241 0.87202 0.0
H417 H 0.47641 0.32957 0.86554 0.0
H418 H 0.47975 0.19325 0.88306 0.0
H419 H 0.50641 0.14361 0.86749 0.0
C420 C 0.65012 0.84581 0.5544 0.0
C421 C 0.61653 0.86199 0.53207 0.0
C422 C 0.58964 0.76792 0.51528 0.0
C423 C 0.62117 0.75171 0.53846 0.0
N424 N 0.67563 0.77317 0.58246 0.0
N425 N 0.55057 0.83883 0.49268 0.0
C426 C 0.64987 0.79015 0.55865 0.0
C427 C 0.585 0.82306 0.51298 0.0
N428 N 0.68264 0.88368 0.57155 0.0
N429 N 0.56539 0.7307 0.49504 0.0
H430 H 0.54857 0.87897 0.48898 0.0
H431 H 0.522 0.81226 0.48041 0.0
H432 H 0.56699 0.68995 0.49654 0.0
H433 H 0.54637 0.74023 0.47594 0.0
H434 H 0.71292 0.87527 0.58558 0.0
H435 H 0.68164 0.92451 0.57073 0.0
H436 H 0.69182 0.79811 0.59977 0.0
H437 H 0.6777 0.73299 0.58606 0.0
C438 C 0.93635 0.47422 0.81004 0.0
C439 C 0.89188 0.49125 0.79707 0.0
C440 C 0.94563 0.57418 0.78279 0.0
C441 C 0.98441 0.56488 0.804 0.0
N442 N 1.02425 0.50233 0.83267 0.0
N443 N 0.85693 0.54462 0.76107 0.0
C444 C 0.98309 0.51277 0.81518 0.0
C445 C 0.89806 0.53636 0.77923 0.0
N446 N 0.93125 0.4231 0.81983 0.0
N447 N 0.95368 0.62064 0.76783 0.0
H448 H 0.82268 0.51597 0.75815 0.0
H449 H 0.85705 0.57806 0.7483 0.0
H450 H 0.98902 0.64787 0.77058 0.0
H451 H 0.92712 0.63122 0.75215 0.0
H452 H 0.96208 0.40651 0.82901 0.0
H453 H 0.89557 0.39641 0.81669 0.0
H454 H 1.024 0.46674 0.84368 0.0
H455 H 1.05899 0.53011 0.83625 0.0
C456 C 0.35916 0.87485 0.16278 0.0
C457 C 0.32615 0.85003 0.1831 0.0
C458 C 0.39439 0.88022 0.22175 0.0
C459 C 0.42928 0.89993 0.20118 0.0
N460 N 0.44726 0.91298 0.15217 0.0
N461 N 0.31123 0.82334 0.23026 0.0
C462 C 0.41226 0.89669 0.17166 0.0
C463 C 0.34364 0.85173 0.21231 0.0
N464 N 0.33924 0.87871 0.13522 0.0
N465 N 0.40967 0.88961 0.2501 0.0
H466 H 0.32104 0.81799 0.25184 0.0
H467 H 0.32104 0.81799 0.25184 0.0
H468 H 0.4469 0.90956 0.25765 0.0
H469 H 0.38456 0.88177 0.26608 0.0
H470 H 0.35968 0.90082 0.11987 0.0
H471 H 0.30043 0.8633 0.12822 0.0
H472 H 0.4389 0.9062 0.13032 0.0
H473 H 0.48606 0.9305 0.15796 0.0
C474 C 0.63451 0.22941 0.50812 0.0
C475 C 0.60365 0.19456 0.52622 0.0
C476 C 0.58422 0.27248 0.55129 0.0
C477 C 0.61483 0.30723 0.53307 0.0
N478 N 0.65975 0.3199 0.49062 0.0
N479 N 0.54122 0.18189 0.56134 0.0
C480 C 0.63697 0.28591 0.51032 0.0
C481 C 0.5756 0.21584 0.54646 0.0
N482 N 0.6625 0.20851 0.48931 0.0
N483 N 0.56589 0.29351 0.5742 0.0
H484 H 0.53559 0.14019 0.5594 0.0
H485 H 0.51538 0.19488 0.57404 0.0
H486 H 0.57044 0.33469 0.57817 0.0
H487 H 0.54905 0.27038 0.59036 0.0
H488 H 0.6908 0.2317 0.4781 0.0
H489 H 0.65953 0.16735 0.48597 0.0
H490 H 0.67235 0.30697 0.47197 0.0
H491 H 0.66199 0.36142 0.49173 0.0
C492 C 0.27018 0.65819 0.78067 0.0
C493 C 0.31996 0.6531 0.79303 0.0
C494 C 0.32861 0.7397 0.81759 0.0
C495 C 0.2743 0.73602 0.81208 0.0
N496 N 0.19368 0.69721 0.78459 0.0
N497 N 0.4008 0.69213 0.81994 0.0
C498 C 0.24548 0.69807 0.79161 0.0
C499 C 0.35125 0.69578 0.80973 0.0
N500 N 0.24634 0.62342 0.75927 0.0
N501 N 0.35731 0.7841 0.83162 0.0
H502 H 0.41896 0.6611 0.81408 0.0
H503 H 0.42333 0.71892 0.83487 0.0
H504 H 0.34006 0.81586 0.83762 0.0
H505 H 0.39781 0.79156 0.83493 0.0
H506 H 0.2114 0.62687 0.74774 0.0
H507 H 0.26452 0.59388 0.7514 0.0
H508 H 0.16895 0.66605 0.77308 0.0
H509 H 0.1748 0.72732 0.79084 0.0
C510 C 0.81282 0.2238 0.15843 0.0
C511 C 0.86308 0.24126 0.17282 0.0
C512 C 0.83753 0.18611 0.21384 0.0
C513 C 0.78918 0.16466 0.19831 0.0
N514 N 0.73156 0.15892 0.15518 0.0
N515 N 0.9259 0.23577 0.21279 0.0
C516 C 0.77693 0.18253 0.17043 0.0
C517 C 0.87608 0.22172 0.20023 0.0
N518 N 0.79912 0.24764 0.1336 0.0
N519 N 0.84619 0.17293 0.24176 0.0
H520 H 0.95498 0.26249 0.20373 0.0
H521 H 0.93964 0.21822 0.23117 0.0
H522 H 0.81931 0.14607 0.25224 0.0
H523 H 0.87809 0.19157 0.25524 0.0
H524 H 0.76145 0.24101 0.12355 0.0
H525 H 0.82471 0.27742 0.12404 0.0
H526 H 0.72292 0.16542 0.13364 0.0
H527 H 0.70356 0.12999 0.16367 0.0
C528 C 0.12642 0.62712 0.04567 0.0
C529 C 1.07954 0.59179 0.05088 0.0
C530 C 1.04382 0.60123 0.00171 0.0
C531 C 0.09131 0.63535 -0.00372 0.0
N532 N 0.18165 0.67106 0.01073 0.0
N533 N 0.99812 0.53642 0.03309 0.0
C534 C 0.13384 0.64532 0.01758 0.0
C535 C 1.03971 0.57585 0.02857 0.0
N536 N 0.16333 0.64442 0.06774 0.0
N537 N 1.00198 0.59504 0.98169 0.0
H538 H 0.99401 0.51747 0.05261 0.0
H539 H 0.97012 0.51928 0.01699 0.0
H540 H 1.00353 0.61279 0.96175 0.0
H541 H 0.96468 0.57562 0.98549 0.0
H542 H 0.19526 0.67518 0.06603 0.0
H543 H 0.16051 0.63023 0.0884 0.0
H544 H 0.21552 0.67453 0.02448 0.0
H545 H 0.18848 0.68488 0.99032 0.0
C546 C 0.62837 0.97612 0.42641 0.0
C547 C 0.61342 0.02171 0.43839 0.0
C548 C 0.60519 0.0611 0.39096 0.0
C549 C 0.62349 0.01724 0.37935 0.0
N550 N 0.65908 0.93655 0.38585 0.0
N551 N 0.59116 0.10953 0.43316 0.0
C552 C 0.63673 0.9756 0.39703 0.0
C553 C 0.603 0.06488 0.42096 0.0
N554 N 0.63435 0.93316 0.4431 0.0
N555 N 0.58838 0.09814 0.37313 0.0
H556 H 0.58533 0.11209 0.45467 0.0
H557 H 0.58948 0.1451 0.42241 0.0
H558 H 0.59044 0.09713 0.35115 0.0
H559 H 0.56931 0.12788 0.37967 0.0
H560 H 0.63868 0.89614 0.43509 0.0
H561 H 0.63173 0.9331 0.46502 0.0
H562 H 0.67521 0.90857 0.39807 0.0
H563 H 0.66519 0.93436 0.36436 0.0
C564 C 0.56663 0.54374 0.73738 0.0
C565 C 0.57455 0.49672 0.75235 0.0
C566 C 0.6113 0.46463 0.71108 0.0
C567 C 0.60118 0.51018 0.69571 0.0
N568 N 0.55947 0.58719 0.69172 0.0
N569 N 0.58926 0.40572 0.75028 0.0
C570 C 0.57583 0.54797 0.70812 0.0
C571 C 0.59259 0.45519 0.73828 0.0
N572 N 0.55247 0.58537 0.75125 0.0
N573 N 0.63999 0.43109 0.70006 0.0
H574 H 0.57218 0.3963 0.76922 0.0
H575 H 0.59757 0.37246 0.7399 0.0
H576 H 0.65417 0.43638 0.68008 0.0
H577 H 0.65344 0.40073 0.71172 0.0
H578 H 0.5528 0.62307 0.74242 0.0
H579 H 0.54398 0.58399 0.7724 0.0
H580 H 0.53563 0.61223 0.69863 0.0
H581 H 0.5659 0.59174 0.67027 0.0
C582 C 0.56778 0.99045 0.62696 0.0
C583 C 0.60848 0.02507 0.61453 0.0
C584 C 0.65488 0.04653 0.66178 0.0
C585 C 0.61193 0.01602 0.67438 0.0
N586 N 0.52318 0.96741 0.66935 0.0
N587 N 0.68522 0.09483 0.62036 0.0
C588 C 0.56703 0.99047 0.65707 0.0
C589 C 0.6505 0.05566 0.63202 0.0
N590 N 0.53129 0.95557 0.61019 0.0
N591 N 0.70056 0.06516 0.67804 0.0
H592 H 0.68245 0.10375 0.59874 0.0
H593 H 0.71351 0.12203 0.6325 0.0
H594 H 0.70569 0.05864 0.69986 0.0
H595 H 0.73482 0.08267 0.66945 0.0
H596 H 0.50411 0.92548 0.61837 0.0
H597 H 0.53117 0.95321 0.58812 0.0
H598 H 0.48758 0.95324 0.65769 0.0
H599 H 0.52104 0.96683 0.69134 0.0
C600 C 0.54302 0.53261 0.94268 0.0
C601 C 0.53739 0.4826 0.92798 0.0
C602 C 0.52667 0.43515 0.97303 0.0
C603 C 0.53839 0.48523 0.98791 0.0
N604 N 0.5637 0.58174 0.98763 0.0
N605 N 0.53165 0.3864 0.92946 0.0
C606 C 0.54798 0.53406 0.97293 0.0
C607 C 0.5308 0.43376 0.94317 0.0
N608 N 0.54226 0.57864 0.92766 0.0
N609 N 0.51103 0.389 0.98743 0.0
H610 H 0.53575 0.38365 0.90775 0.0
H611 H 0.53289 0.35048 0.93997 0.0
H612 H 0.5083 0.38853 0.00938 0.0
H613 H 0.49659 0.35194 0.97738 0.0
H614 H 0.54036 0.61538 0.937 0.0
H615 H 0.53888 0.5792 0.90549 0.0
H616 H 0.5773 0.61798 0.97799 0.0
H617 H 0.56699 0.58462 0.00981 0.0
C618 C 1.04925 0.48792 0.2376 0.0
C619 C 1.08138 0.53253 0.22597 0.0
C620 C 0.12555 0.55688 0.27349 0.0
C621 C 0.09954 0.50763 0.28395 0.0
N622 N 1.04061 0.42274 0.27524 0.0
N623 N 0.1558 0.60566 0.23238 0.0
C624 C 1.06221 0.4722 0.26586 0.0
C625 C 0.12081 0.56639 0.2438 0.0
N626 N 1.00537 0.46174 0.22199 0.0
N627 N 0.15416 0.59502 0.29202 0.0
H628 H 0.15495 0.61388 0.21073 0.0
H629 H 0.18883 0.62695 0.24409 0.0
H630 H 0.15805 0.58969 0.314 0.0
H631 H 0.16956 0.63383 0.28591 0.0
H632 H 0.97798 0.43199 0.23026 0.0
H633 H 0.99344 0.4738 0.2017 0.0
H634 H 1.01759 0.39306 0.26193 0.0
H635 H 1.04914 0.40965 0.29579 0.0
loop_
_geom_bond_atom_site_label_1
_geom_bond_atom_site_label_2
_geom_bond_distance
_geom_bond_site_symmetry_2
_ccdc_geom_bond_type
Dy0 O3 2.307 1_455 S
Dy0 O5 2.395 . S
Dy0 O6 2.379 . S
Dy0 O8 2.339 . S
Dy0 O10 2.298 . S
Dy0 O14 2.275 . S
Dy0 C22 2.738 . S
Dy1 O4 2.298 . S
Dy1 O7 2.274 1_655 S
Dy1 O9 2.307 1_655 S
Dy1 O11 2.395 . S
Dy1 O12 2.379 . S
Dy1 O15 2.339 . S
Dy1 C31 2.738 . S
C2 O14 1.254 . S
C2 O15 1.257 1_455 S
O3 Dy0 2.307 1_655 S
O3 C13 1.266 . S
O4 Dy1 2.298 . S
O4 C13 1.236 . S
O5 Dy0 2.395 . S
O5 C22 1.255 . S
O6 Dy0 2.379 . S
O6 C22 1.249 . S
O7 Dy1 2.274 1_455 S
O7 C23 1.254 . S
O8 Dy0 2.339 . S
O8 C23 1.257 . S
O9 Dy1 2.307 1_455 S
O9 C24 1.266 . S
O10 Dy0 2.298 . S
O10 C24 1.236 . S
O11 Dy1 2.395 . S
O11 C31 1.255 . S
O12 Dy1 2.379 . S
O12 C31 1.249 . S
C13 O3 1.266 . S
C13 O4 1.236 . S
O14 Dy0 2.275 . S
O14 C2 1.254 . S
O15 Dy1 2.339 . S
O15 C2 1.257 1_655 S
C16 C19 1.344 . S
C16 C20 1.328 . S
C16 C22 1.516 . S
C17 C18 1.304 . S
C17 C21 1.323 . S
C18 C17 1.304 . S
C18 C19 1.371 . S
C18 H32 0.930 . S
C19 C16 1.344 . S
C19 C18 1.371 . S
C19 H33 0.931 . S
C20 C16 1.328 . S
C20 C21 1.433 . S
C20 H34 0.931 . S
C21 C17 1.323 . S
C21 C20 1.433 . S
C21 H35 0.933 . S
C22 Dy0 2.738 . S
C22 O5 1.255 . S
C22 O6 1.249 . S
C22 C16 1.516 . S
C23 O7 1.254 . S
C23 O8 1.257 . S
C24 O9 1.266 . S
C24 O10 1.236 . S
C25 C28 1.344 . S
C25 C29 1.328 . S
C25 C31 1.516 . S
C26 C27 1.304 . S
C26 C30 1.323 . S
C27 C26 1.304 . S
C27 C28 1.371 . S
C27 H36 0.930 . S
C28 C25 1.344 . S
C28 C27 1.371 . S
C28 H37 0.931 . S
C29 C25 1.328 . S
C29 C30 1.433 . S
C29 H38 0.931 . S
C30 C26 1.323 . S
C30 C29 1.433 . S
C30 H39 0.933 . S
C31 Dy1 2.738 . S
C31 O11 1.255 . S
C31 O12 1.249 . S
C31 C25 1.516 . S
H32 C18 0.930 . S
H33 C19 0.931 . S
H34 C20 0.931 . S
H35 C21 0.933 . S
H36 C27 0.930 . S
H37 C28 0.931 . S
H38 C29 0.931 . S
H39 C30 0.933 . S
Dy40 O43 2.307 1_565 S
Dy40 O45 2.395 . S
Dy40 O46 2.379 . S
Dy40 O48 2.339 1_565 S
Dy40 O50 2.298 . S
Dy40 O54 2.275 1_565 S
Dy40 C62 2.738 . S
Dy41 O44 2.298 . S
Dy41 O47 2.275 . S
Dy41 O49 2.307 1_545 S
Dy41 O51 2.395 . S
Dy41 O52 2.379 . S
Dy41 O55 2.339 . S
Dy41 C71 2.738 . S
C42 O54 1.254 . S
C42 O55 1.257 . S
O43 Dy40 2.307 1_545 S
O43 C53 1.266 . S
O44 Dy41 2.298 . S
O44 C53 1.236 . S
O45 Dy40 2.395 . S
O45 C62 1.255 . S
O46 Dy40 2.379 . S
O46 C62 1.249 . S
O47 Dy41 2.275 . S
O47 C63 1.254 . S
O48 Dy40 2.339 1_545 S
O48 C63 1.257 . S
O49 Dy41 2.307 1_565 S
O49 C64 1.266 . S
O50 Dy40 2.298 . S
O50 C64 1.236 . S
O51 Dy41 2.395 . S
O51 C71 1.255 . S
O52 Dy41 2.379 . S
O52 C71 1.249 . S
C53 O43 1.266 . S
C53 O44 1.236 . S
O54 Dy40 2.275 1_545 S
O54 C42 1.254 . S
O55 Dy41 2.339 . S
O55 C42 1.257 . S
C56 C59 1.344 . S
C56 C60 1.328 . S
C56 C62 1.516 . S
C57 C58 1.304 . S
C57 C61 1.323 . S
C58 C57 1.304 . S
C58 C59 1.371 . S
C58 H72 0.930 . S
C59 C56 1.344 . S
C59 C58 1.371 . S
C59 H73 0.931 . S
C60 C56 1.328 . S
C60 C61 1.433 . S
C60 H74 0.931 . S
C61 C57 1.323 . S
C61 C60 1.433 . S
C61 H75 0.933 . S
C62 Dy40 2.738 . S
C62 O45 1.255 . S
C62 O46 1.249 . S
C62 C56 1.516 . S
C63 O47 1.254 . S
C63 O48 1.257 . S
C64 O49 1.266 . S
C64 O50 1.236 . S
C65 C68 1.344 . S
C65 C69 1.328 . S
C65 C71 1.516 . S
C66 C67 1.304 . S
C66 C70 1.323 . S
C67 C66 1.304 . S
C67 C68 1.371 . S
C67 H76 0.930 . S
C68 C65 1.344 . S
C68 C67 1.371 . S
C68 H77 0.931 . S
C69 C65 1.328 . S
C69 C70 1.433 . S
C69 H78 0.931 . S
C70 C66 1.323 . S
C70 C69 1.433 . S
C70 H79 0.933 . S
C71 Dy41 2.738 . S
C71 O51 1.255 . S
C71 O52 1.249 . S
C71 C65 1.516 . S
H72 C58 0.930 . S
H73 C59 0.931 . S
H74 C60 0.931 . S
H75 C61 0.933 . S
H76 C67 0.930 . S
H77 C68 0.931 . S
H78 C69 0.931 . S
H79 C70 0.933 . S
Dy80 O83 2.307 . S
Dy80 O85 2.395 . S
Dy80 O86 2.379 . S
Dy80 O88 2.339 . S
Dy80 O90 2.298 . S
Dy80 O94 2.275 . S
Dy80 C102 2.738 . S
Dy81 O84 2.298 . S
Dy81 O87 2.275 . S
Dy81 O89 2.307 . S
Dy81 O91 2.395 . S
Dy81 O92 2.379 . S
Dy81 O95 2.339 . S
Dy81 C111 2.738 . S
C82 O94 1.254 . S
C82 O95 1.257 . S
O83 Dy80 2.307 . S
O83 C93 1.266 . S
O84 Dy81 2.298 . S
O84 C93 1.236 . S
O85 Dy80 2.395 . S
O85 C102 1.255 . S
O86 Dy80 2.379 . S
O86 C102 1.249 . S
O87 Dy81 2.275 . S
O87 C103 1.254 . S
O88 Dy80 2.339 . S
O88 C103 1.257 . S
O89 Dy81 2.307 . S
O89 C104 1.266 . S
O90 Dy80 2.298 . S
O90 C104 1.236 . S
O91 Dy81 2.395 . S
O91 C111 1.255 . S
O92 Dy81 2.379 . S
O92 C111 1.249 . S
C93 O83 1.266 . S
C93 O84 1.236 . S
O94 Dy80 2.275 . S
O94 C82 1.254 . S
O95 Dy81 2.339 . S
O95 C82 1.257 . S
C96 C99 1.344 . S
C96 C100 1.328 . S
C96 C102 1.516 . S
C97 C98 1.304 . S
C97 C101 1.323 . S
C98 C97 1.304 . S
C98 C99 1.371 . S
C98 H112 0.930 . S
C99 C96 1.344 . S
C99 C98 1.371 . S
C99 H113 0.931 . S
C100 C96 1.328 . S
C100 C101 1.433 . S
C100 H114 0.931 . S
C101 C97 1.323 . S
C101 C100 1.433 . S
C101 H115 0.933 . S
C102 Dy80 2.738 . S
C102 O85 1.255 . S
C102 O86 1.249 . S
C102 C96 1.516 . S
C103 O87 1.254 . S
C103 O88 1.257 . S
C104 O89 1.266 . S
C104 O90 1.236 . S
C105 C108 1.344 . S
C105 C109 1.328 . S
C105 C111 1.516 . S
C106 C107 1.304 . S
C106 C110 1.323 . S
C107 C106 1.304 . S
C107 C108 1.371 . S
C107 H116 0.930 . S
C108 C105 1.344 . S
C108 C107 1.371 . S
C108 H117 0.931 . S
C109 C105 1.328 . S
C109 C110 1.433 . S
C109 H118 0.931 . S
C110 C106 1.323 . S
C110 C109 1.433 . S
C110 H119 0.933 . S
C111 Dy81 2.738 . S
C111 O91 1.255 . S
C111 O92 1.249 . S
C111 C105 1.516 . S
H112 C98 0.930 . S
H113 C99 0.931 . S
H114 C100 0.931 . S
H115 C101 0.933 . S
H116 C107 0.930 . S
H117 C108 0.931 . S
H118 C109 0.931 . S
H119 C110 0.933 . S
P120 O131 1.490 . S
P120 C134 1.812 . S
P120 C140 1.803 1_565 S
P120 C146 1.819 1_565 S
H121 C135 0.941 . S
H122 C136 0.939 . S
H123 C138 0.940 . S
H124 C139 0.940 1_545 S
H125 C141 0.939 . S
H126 C142 0.942 . S
H127 C144 0.940 . S
H128 C145 0.939 . S
H129 C147 0.941 . S
H130 C151 0.939 . S
O131 P120 1.490 . S
H132 C148 0.939 . S
H133 C150 0.940 . S
C134 P120 1.812 . S
C134 C135 1.389 . S
C134 C139 1.391 . S
C135 H121 0.941 . S
C135 C134 1.389 . S
C135 C136 1.397 . S
C136 H122 0.939 . S
C136 C135 1.397 . S
C136 C137 1.378 . S
C137 C136 1.378 . S
C137 C138 1.378 . S
C138 H123 0.940 . S
C138 C137 1.378 . S
C138 C139 1.396 . S
C139 H124 0.940 1_565 S
C139 C134 1.391 . S
C139 C138 1.396 . S
C140 P120 1.803 1_545 S
C140 C141 1.378 . S
C140 C145 1.400 . S
C141 H125 0.939 . S
C141 C140 1.378 . S
C141 C142 1.361 . S
C142 H126 0.942 . S
C142 C141 1.361 . S
C142 C143 1.369 . S
C143 C142 1.369 . S
C143 C144 1.404 . S
C144 H127 0.940 . S
C144 C143 1.404 . S
C144 C145 1.389 . S
C145 H128 0.939 . S
C145 C140 1.400 . S
C145 C144 1.389 . S
C146 P120 1.819 1_545 S
C146 C147 1.391 1_545 S
C146 C151 1.391 . S
C147 H129 0.941 . S
C147 C146 1.391 1_565 S
C147 C148 1.396 . S
C148 H132 0.939 . S
C148 C147 1.396 . S
C148 C149 1.397 1_565 S
C149 C148 1.397 1_545 S
C149 C150 1.385 . S
C150 H133 0.940 . S
C150 C149 1.385 . S
C150 C151 1.388 . S
C151 H130 0.939 . S
C151 C146 1.391 . S
C151 C150 1.388 . S
P152 O163 1.490 . S
P152 C166 1.812 . S
P152 C172 1.803 . S
P152 C178 1.819 . S
H153 C167 0.941 . S
H154 C168 0.939 . S
H155 C170 0.940 . S
H156 C171 0.940 . S
H157 C173 0.939 . S
H158 C174 0.942 . S
H159 C176 0.940 . S
H160 C177 0.939 . S
H161 C179 0.941 . S
H162 C183 0.939 . S
O163 P152 1.490 . S
H164 C180 0.939 . S
H165 C182 0.940 . S
C166 P152 1.812 . S
C166 C167 1.389 . S
C166 C171 1.391 . S
C167 H153 0.941 . S
C167 C166 1.389 . S
C167 C168 1.397 . S
C168 H154 0.939 . S
C168 C167 1.397 . S
C168 C169 1.378 . S
C169 C168 1.378 . S
C169 C170 1.378 . S
C170 H155 0.940 . S
C170 C169 1.378 . S
C170 C171 1.396 . S
C171 H156 0.940 . S
C171 C166 1.391 . S
C171 C170 1.396 . S
C172 P152 1.803 . S
C172 C173 1.378 . S
C172 C177 1.400 . S
C173 H157 0.939 . S
C173 C172 1.378 . S
C173 C174 1.361 . S
C174 H158 0.942 . S
C174 C173 1.361 . S
C174 C175 1.369 . S
C175 C174 1.369 . S
C175 C176 1.404 . S
C176 H159 0.940 . S
C176 C175 1.404 . S
C176 C177 1.389 . S
C177 H160 0.939 . S
C177 C172 1.400 . S
C177 C176 1.389 . S
C178 P152 1.819 . S
C178 C179 1.391 . S
C178 C183 1.391 . S
C179 H161 0.941 . S
C179 C178 1.391 . S
C179 C180 1.396 . S
C180 H164 0.939 . S
C180 C179 1.396 . S
C180 C181 1.397 . S
C181 C180 1.397 . S
C181 C182 1.385 . S
C182 H165 0.940 . S
C182 C181 1.385 . S
C182 C183 1.388 . S
C183 H162 0.939 . S
C183 C178 1.391 . S
C183 C182 1.388 . S
P184 O195 1.490 . S
P184 C198 1.812 . S
P184 C204 1.803 1_455 S
P184 C210 1.819 . S
H185 C199 0.941 . S
H186 C200 0.939 . S
H187 C202 0.940 . S
H188 C203 0.940 . S
H189 C205 0.939 . S
H190 C206 0.942 . S
H191 C208 0.940 . S
H192 C209 0.939 . S
H193 C211 0.941 . S
H194 C215 0.939 . S
O195 P184 1.490 . S
H196 C212 0.939 1_554 S
H197 C214 0.940 . S
C198 P184 1.812 . S
C198 C199 1.389 . S
C198 C203 1.391 . S
C199 H185 0.941 . S
C199 C198 1.389 . S
C199 C200 1.397 . S
C200 H186 0.939 . S
C200 C199 1.397 . S
C200 C201 1.378 . S
C201 C200 1.378 . S
C201 C202 1.378 . S
C202 H187 0.940 . S
C202 C201 1.378 . S
C202 C203 1.396 . S
C203 H188 0.940 . S
C203 C198 1.391 . S
C203 C202 1.396 . S
C204 P184 1.803 1_655 S
C204 C205 1.378 . S
C204 C209 1.400 . S
C205 H189 0.939 . S
C205 C204 1.378 . S
C205 C206 1.361 . S
C206 H190 0.942 . S
C206 C205 1.361 . S
C206 C207 1.369 . S
C207 C206 1.369 . S
C207 C208 1.404 . S
C208 H191 0.940 . S
C208 C207 1.404 . S
C208 C209 1.389 . S
C209 H192 0.939 . S
C209 C204 1.400 . S
C209 C208 1.389 . S
C210 P184 1.819 . S
C210 C211 1.391 . S
C210 C215 1.391 1_455 S
C211 H193 0.941 . S
C211 C210 1.391 . S
C211 C212 1.396 . S
C212 H196 0.939 1_556 S
C212 C211 1.396 . S
C212 C213 1.397 1_556 S
C213 C212 1.397 1_554 S
C213 C214 1.385 1_454 S
C214 H197 0.940 . S
C214 C213 1.385 1_656 S
C214 C215 1.388 . S
C215 H194 0.939 . S
C215 C210 1.391 1_655 S
C215 C214 1.388 . S
P216 O227 1.490 . S
P216 C230 1.812 . S
P216 C236 1.803 1_455 S
P216 C242 1.819 . S
H217 C231 0.941 . S
H218 C232 0.939 . S
H219 C234 0.940 . S
H220 C235 0.940 . S
H221 C237 0.939 . S
H222 C238 0.942 . S
H223 C240 0.940 . S
H224 C241 0.939 . S
H225 C243 0.941 . S
H226 C247 0.939 . S
O227 P216 1.490 . S
H228 C244 0.939 . S
H229 C246 0.940 . S
C230 P216 1.812 . S
C230 C231 1.389 . S
C230 C235 1.391 . S
C231 H217 0.941 . S
C231 C230 1.389 . S
C231 C232 1.397 . S
C232 H218 0.939 . S
C232 C231 1.397 . S
C232 C233 1.378 . S
C233 C232 1.378 . S
C233 C234 1.378 . S
C234 H219 0.940 . S
C234 C233 1.378 . S
C234 C235 1.396 . S
C235 H220 0.940 . S
C235 C230 1.391 . S
C235 C234 1.396 . S
C236 P216 1.803 1_655 S
C236 C237 1.378 . S
C236 C241 1.400 . S
C237 H221 0.939 . S
C237 C236 1.378 . S
C237 C238 1.361 . S
C238 H222 0.942 . S
C238 C237 1.361 . S
C238 C239 1.369 . S
C239 C238 1.369 . S
C239 C240 1.404 . S
C240 H223 0.940 . S
C240 C239 1.404 . S
C240 C241 1.389 . S
C241 H224 0.939 . S
C241 C236 1.400 . S
C241 C240 1.389 . S
C242 P216 1.819 . S
C242 C243 1.391 . S
C242 C247 1.391 1_455 S
C243 H225 0.941 . S
C243 C242 1.391 . S
C243 C244 1.396 . S
C244 H228 0.939 . S
C244 C243 1.396 . S
C244 C245 1.416 . S
C245 C244 1.416 . S
C245 C246 1.370 1_455 S
C246 H229 0.940 . S
C246 C245 1.370 1_655 S
C246 C247 1.388 . S
C247 H226 0.939 . S
C247 C242 1.391 1_655 S
C247 C246 1.388 . S
P248 O259 1.490 . S
P248 C262 1.812 . S
P248 C268 1.803 1_545 S
P248 C274 1.819 . S
H249 C263 0.941 . S
H250 C264 0.939 . S
H251 C266 0.940 . S
H252 C267 0.940 . S
H253 C269 0.939 . S
H254 C270 0.942 . S
H255 C272 0.940 . S
H256 C273 0.939 . S
H257 C275 0.941 . S
H258 C279 0.939 . S
O259 P248 1.490 . S
H260 C276 0.939 . S
H261 C278 0.940 . S
C262 P248 1.812 . S
C262 C263 1.389 . S
C262 C267 1.391 . S
C263 H249 0.941 . S
C263 C262 1.389 . S
C263 C264 1.397 . S
C264 H250 0.939 . S
C264 C263 1.397 . S
C264 C265 1.378 . S
C265 C264 1.378 . S
C265 C266 1.378 . S
C266 H251 0.940 . S
C266 C265 1.378 . S
C266 C267 1.396 . S
C267 H252 0.940 . S
C267 C262 1.391 . S
C267 C266 1.396 . S
C268 P248 1.803 1_565 S
C268 C269 1.378 . S
C268 C273 1.400 . S
C269 H253 0.939 . S
C269 C268 1.378 . S
C269 C270 1.361 . S
C270 H254 0.942 . S
C270 C269 1.361 . S
C270 C271 1.369 . S
C271 C270 1.369 . S
C271 C272 1.404 . S
C272 H255 0.940 . S
C272 C271 1.404 . S
C272 C273 1.389 . S
C273 H256 0.939 . S
C273 C268 1.400 . S
C273 C272 1.389 . S
C274 P248 1.819 . S
C274 C275 1.391 . S
C274 C279 1.391 1_545 S
C275 H257 0.941 . S
C275 C274 1.391 . S
C275 C276 1.396 . S
C276 H260 0.939 . S
C276 C275 1.396 . S
C276 C277 1.397 . S
C277 C276 1.397 . S
C277 C278 1.385 1_545 S
C278 H261 0.940 . S
C278 C277 1.385 1_565 S
C278 C279 1.388 . S
C279 H258 0.939 . S
C279 C274 1.391 1_565 S
C279 C278 1.388 . S
P280 O291 1.490 . S
P280 C294 1.812 . S
P280 C300 1.803 . S
P280 C306 1.819 . S
H281 C295 0.941 . S
H282 C296 0.939 . S
H283 C298 0.940 . S
H284 C299 0.940 . S
H285 C301 0.939 . S
H286 C302 0.942 . S
H287 C304 0.940 . S
H288 C305 0.939 . S
H289 C307 0.941 . S
H290 C311 0.939 . S
O291 P280 1.490 . S
H292 C308 0.939 . S
H293 C310 0.940 . S
C294 P280 1.812 . S
C294 C295 1.389 . S
C294 C299 1.391 . S
C295 H281 0.941 . S
C295 C294 1.389 . S
C295 C296 1.397 . S
C296 H282 0.939 . S
C296 C295 1.397 . S
C296 C297 1.378 . S
C297 C296 1.378 . S
C297 C298 1.378 . S
C298 H283 0.940 . S
C298 C297 1.378 . S
C298 C299 1.396 . S
C299 H284 0.940 . S
C299 C294 1.391 . S
C299 C298 1.396 . S
C300 P280 1.803 . S
C300 C301 1.378 . S
C300 C305 1.400 . S
C301 H285 0.939 . S
C301 C300 1.378 . S
C301 C302 1.361 . S
C302 H286 0.942 . S
C302 C301 1.361 . S
C302 C303 1.369 . S
C303 C302 1.369 . S
C303 C304 1.404 . S
C304 H287 0.940 . S
C304 C303 1.404 . S
C304 C305 1.389 . S
C305 H288 0.939 . S
C305 C300 1.400 . S
C305 C304 1.389 . S
C306 P280 1.819 . S
C306 C307 1.391 . S
C306 C311 1.391 . S
C307 H289 0.941 . S
C307 C306 1.391 . S
C307 C308 1.396 . S
C308 H292 0.939 . S
C308 C307 1.396 . S
C308 C309 1.397 . S
C309 C308 1.397 . S
C309 C310 1.385 . S
C310 H293 0.940 . S
C310 C309 1.385 . S
C310 C311 1.388 . S
C311 H290 0.939 . S
C311 C306 1.391 . S
C311 C310 1.388 . S
C312 C313 1.363 . S
C312 C318 1.379 . S
C312 N320 1.356 . S
C313 C312 1.363 . S
C313 C319 1.363 . S
C314 C315 1.363 . S
C314 C319 1.379 . S
C314 N321 1.356 . S
C315 C314 1.363 . S
C315 C318 1.363 . S
N316 C318 1.356 . S
N316 H328 0.984 . S
N316 H329 0.985 . S
N317 C319 1.356 . S
N317 H322 0.984 . S
N317 H323 0.985 . S
C318 C312 1.379 . S
C318 C315 1.363 . S
C318 N316 1.356 . S
C319 C313 1.363 . S
C319 C314 1.379 . S
C319 N317 1.356 . S
N320 C312 1.356 . S
N320 H326 0.984 . S
N320 H327 0.984 . S
N321 C314 1.356 . S
N321 H324 0.984 . S
N321 H325 0.985 . S
H322 N317 0.984 . S
H323 N317 0.985 . S
H324 N321 0.984 . S
H325 N321 0.985 . S
H326 N320 0.984 . S
H327 N320 0.984 . S
H328 N316 0.984 . S
H329 N316 0.985 . S
C330 C331 1.363 . S
C330 C336 1.379 . S
C330 N338 1.356 . S
C331 C330 1.363 . S
C331 C337 1.363 . S
C332 C333 1.363 . S
C332 C337 1.379 . S
C332 N339 1.356 . S
C333 C332 1.363 . S
C333 C336 1.363 . S
N334 C336 1.356 . S
N334 H346 0.984 . S
N334 H347 0.985 . S
N335 C337 1.356 . S
N335 H340 0.984 . S
N335 H341 0.985 . S
C336 C330 1.379 . S
C336 C333 1.363 . S
C336 N334 1.356 . S
C337 C331 1.363 . S
C337 C332 1.379 . S
C337 N335 1.356 . S
N338 C330 1.356 . S
N338 H344 0.984 . S
N338 H345 0.984 . S
N339 C332 1.356 . S
N339 H342 0.984 . S
N339 H343 0.985 . S
H340 N335 0.984 . S
H341 N335 0.985 . S
H342 N339 0.984 . S
H343 N339 0.985 . S
H344 N338 0.984 . S
H345 N338 0.984 . S
H346 N334 0.984 . S
H347 N334 0.985 . S
C348 C349 1.363 . S
C348 C354 1.379 . S
C348 N356 1.356 . S
C349 C348 1.363 . S
C349 C355 1.363 . S
C350 C351 1.363 . S
C350 C355 1.379 . S
C350 N357 1.356 . S
C351 C350 1.363 . S
C351 C354 1.363 . S
N352 C354 1.356 . S
N352 H364 0.984 . S
N352 H365 0.985 . S
N353 C355 1.356 . S
N353 H358 0.984 . S
N353 H359 0.985 . S
C354 C348 1.379 . S
C354 C351 1.363 . S
C354 N352 1.356 . S
C355 C349 1.363 . S
C355 C350 1.379 . S
C355 N353 1.356 . S
N356 C348 1.356 . S
N356 H362 0.984 . S
N356 H363 0.984 . S
N357 C350 1.356 . S
N357 H360 0.984 . S
N357 H361 0.985 . S
H358 N353 0.984 . S
H359 N353 0.985 . S
H360 N357 0.984 . S
H361 N357 0.985 . S
H362 N356 0.984 . S
H363 N356 0.984 . S
H364 N352 0.984 . S
H365 N352 0.985 . S
C366 C367 1.363 . S
C366 C372 1.379 . S
C366 N374 1.356 . S
C367 C366 1.363 . S
C367 C373 1.363 . S
C368 C369 1.363 . S
C368 C373 1.379 . S
C368 N375 1.356 . S
C369 C368 1.363 . S
C369 C372 1.363 . S
N370 C372 1.356 . S
N370 H382 0.984 . S
N370 H383 0.985 . S
N371 C373 1.356 . S
N371 H376 0.984 . S
N371 H377 0.985 . S
C372 C366 1.379 . S
C372 C369 1.363 . S
C372 N370 1.356 . S
C373 C367 1.363 . S
C373 C368 1.379 . S
C373 N371 1.356 . S
N374 C366 1.356 . S
N374 H380 0.984 . S
N374 H381 0.984 . S
N375 C368 1.356 . S
N375 H378 0.984 . S
N375 H379 0.985 . S
H376 N371 0.984 . S
H377 N371 0.985 . S
H378 N375 0.984 . S
H379 N375 0.985 . S
H380 N374 0.984 . S
H381 N374 0.984 . S
H382 N370 0.984 . S
H383 N370 0.985 . S
C384 C385 1.363 . S
C384 C390 1.379 . S
C384 N392 1.356 . S
C385 C384 1.363 . S
C385 C391 1.363 . S
C386 C387 1.363 . S
C386 C391 1.379 . S
C386 N393 1.356 . S
C387 C386 1.363 . S
C387 C390 1.363 . S
N388 C390 1.356 . S
N388 H400 0.984 . S
N388 H401 0.985 . S
N389 C391 1.356 . S
N389 H394 0.984 . S
N389 H395 0.985 . S
C390 C384 1.379 . S
C390 C387 1.363 . S
C390 N388 1.356 . S
C391 C385 1.363 . S
C391 C386 1.379 . S
C391 N389 1.356 . S
N392 C384 1.356 . S
N392 H398 0.984 . S
N392 H399 0.984 . S
N393 C386 1.356 . S
N393 H396 0.984 . S
N393 H397 0.985 . S
H394 N389 0.984 . S
H395 N389 0.985 . S
H396 N393 0.984 . S
H397 N393 0.985 . S
H398 N392 0.984 . S
H399 N392 0.984 . S
H400 N388 0.984 . S
H401 N388 0.985 . S
C402 C403 1.363 . S
C402 C408 1.379 . S
C402 N410 1.356 . S
C403 C402 1.363 . S
C403 C409 1.363 . S
C404 C405 1.363 . S
C404 C409 1.379 . S
C404 N411 1.356 . S
C405 C404 1.363 . S
C405 C408 1.363 . S
N406 C408 1.356 . S
N406 H418 0.984 . S
N406 H419 0.985 . S
N407 C409 1.356 . S
N407 H412 0.984 . S
N407 H413 0.985 . S
C408 C402 1.379 . S
C408 C405 1.363 . S
C408 N406 1.356 . S
C409 C403 1.363 . S
C409 C404 1.379 . S
C409 N407 1.356 . S
N410 C402 1.356 . S
N410 H416 0.984 . S
N410 H417 0.984 . S
N411 C404 1.356 . S
N411 H414 0.984 . S
N411 H415 0.985 . S
H412 N407 0.984 . S
H413 N407 0.985 . S
H414 N411 0.984 . S
H415 N411 0.985 . S
H416 N410 0.984 . S
H417 N410 0.984 . S
H418 N406 0.984 . S
H419 N406 0.985 . S
C420 C421 1.363 . S
C420 C426 1.379 . S
C420 N428 1.356 . S
C421 C420 1.363 . S
C421 C427 1.363 . S
C422 C423 1.363 . S
C422 C427 1.379 . S
C422 N429 1.356 . S
C423 C422 1.363 . S
C423 C426 1.363 . S
N424 C426 1.356 . S
N424 H436 0.984 . S
N424 H437 0.985 . S
N425 C427 1.356 . S
N425 H430 0.984 . S
N425 H431 0.985 . S
C426 C420 1.379 . S
C426 C423 1.363 . S
C426 N424 1.356 . S
C427 C421 1.363 . S
C427 C422 1.379 . S
C427 N425 1.356 . S
N428 C420 1.356 . S
N428 H434 0.984 . S
N428 H435 0.984 . S
N429 C422 1.356 . S
N429 H432 0.984 . S
N429 H433 0.985 . S
H430 N425 0.984 . S
H431 N425 0.985 . S
H432 N429 0.984 . S
H433 N429 0.985 . S
H434 N428 0.984 . S
H435 N428 0.984 . S
H436 N424 0.984 . S
H437 N424 0.985 . S
C438 C439 1.363 . S
C438 C444 1.379 . S
C438 N446 1.356 . S
C439 C438 1.363 . S
C439 C445 1.363 . S
C440 C441 1.363 . S
C440 C445 1.379 . S
C440 N447 1.356 . S
C441 C440 1.363 . S
C441 C444 1.363 . S
N442 C444 1.356 . S
N442 H454 0.984 . S
N442 H455 0.985 . S
N443 C445 1.356 . S
N443 H448 0.984 . S
N443 H449 0.985 . S
C444 C438 1.379 . S
C444 C441 1.363 . S
C444 N442 1.356 . S
C445 C439 1.363 . S
C445 C440 1.379 . S
C445 N443 1.356 . S
N446 C438 1.356 . S
N446 H452 0.984 . S
N446 H453 0.984 . S
N447 C440 1.356 . S
N447 H450 0.984 . S
N447 H451 0.985 . S
H448 N443 0.984 . S
H449 N443 0.985 . S
H450 N447 0.984 . S
H451 N447 0.985 . S
H452 N446 0.984 . S
H453 N446 0.984 . S
H454 N442 0.984 . S
H455 N442 0.985 . S
C456 C457 1.363 . S
C456 C462 1.379 . S
C456 N464 1.356 . S
C457 C456 1.363 . S
C457 C463 1.363 . S
C458 C459 1.363 . S
C458 C463 1.379 . S
C458 N465 1.356 . S
C459 C458 1.363 . S
C459 C462 1.363 . S
N460 C462 1.356 . S
N460 H472 0.984 . S
N460 H473 0.985 . S
N461 C463 1.356 . S
N461 H466 0.984 . S
N461 H467 0.985 . S
C462 C456 1.379 . S
C462 C459 1.363 . S
C462 N460 1.356 . S
C463 C457 1.363 . S
C463 C458 1.379 . S
C463 N461 1.356 . S
N464 C456 1.356 . S
N464 H470 0.984 . S
N464 H471 0.984 . S
N465 C458 1.356 . S
N465 H468 0.984 . S
N465 H469 0.985 . S
H466 N461 0.984 . S
H467 N461 0.985 . S
H468 N465 0.984 . S
H469 N465 0.985 . S
H470 N464 0.984 . S
H471 N464 0.984 . S
H472 N460 0.984 . S
H473 N460 0.985 . S
C474 C475 1.363 . S
C474 C480 1.379 . S
C474 N482 1.356 . S
C475 C474 1.363 . S
C475 C481 1.363 . S
C476 C477 1.363 . S
C476 C481 1.379 . S
C476 N483 1.356 . S
C477 C476 1.363 . S
C477 C480 1.363 . S
N478 C480 1.356 . S
N478 H490 0.984 . S
N478 H491 0.985 . S
N479 C481 1.356 . S
N479 H484 0.984 . S
N479 H485 0.985 . S
C480 C474 1.379 . S
C480 C477 1.363 . S
C480 N478 1.356 . S
C481 C475 1.363 . S
C481 C476 1.379 . S
C481 N479 1.356 . S
N482 C474 1.356 . S
N482 H488 0.984 . S
N482 H489 0.984 . S
N483 C476 1.356 . S
N483 H486 0.984 . S
N483 H487 0.985 . S
H484 N479 0.984 . S
H485 N479 0.985 . S
H486 N483 0.984 . S
H487 N483 0.985 . S
H488 N482 0.984 . S
H489 N482 0.984 . S
H490 N478 0.984 . S
H491 N478 0.985 . S
C492 C493 1.363 . S
C492 C498 1.379 . S
C492 N500 1.356 . S
C493 C492 1.363 . S
C493 C499 1.363 . S
C494 C495 1.363 . S
C494 C499 1.379 . S
C494 N501 1.356 . S
C495 C494 1.363 . S
C495 C498 1.363 . S
N496 C498 1.356 . S
N496 H508 0.984 . S
N496 H509 0.985 . S
N497 C499 1.356 . S
N497 H502 0.984 . S
N497 H503 0.985 . S
C498 C492 1.379 . S
C498 C495 1.363 . S
C498 N496 1.356 . S
C499 C493 1.363 . S
C499 C494 1.379 . S
C499 N497 1.356 . S
N500 C492 1.356 . S
N500 H506 0.984 . S
N500 H507 0.984 . S
N501 C494 1.356 . S
N501 H504 0.984 . S
N501 H505 0.985 . S
H502 N497 0.984 . S
H503 N497 0.985 . S
H504 N501 0.984 . S
H505 N501 0.985 . S
H506 N500 0.984 . S
H507 N500 0.984 . S
H508 N496 0.984 . S
H509 N496 0.985 . S
C510 C511 1.363 . S
C510 C516 1.379 . S
C510 N518 1.356 . S
C511 C510 1.363 . S
C511 C517 1.363 . S
C512 C513 1.363 . S
C512 C517 1.379 . S
C512 N519 1.356 . S
C513 C512 1.363 . S
C513 C516 1.363 . S
N514 C516 1.356 . S
N514 H526 0.984 . S
N514 H527 0.985 . S
N515 C517 1.356 . S
N515 H520 0.984 . S
N515 H521 0.985 . S
C516 C510 1.379 . S
C516 C513 1.363 . S
C516 N514 1.356 . S
C517 C511 1.363 . S
C517 C512 1.379 . S
C517 N515 1.356 . S
N518 C510 1.356 . S
N518 H524 0.984 . S
N518 H525 0.984 . S
N519 C512 1.356 . S
N519 H522 0.984 . S
N519 H523 0.985 . S
H520 N515 0.984 . S
H521 N515 0.985 . S
H522 N519 0.984 . S
H523 N519 0.985 . S
H524 N518 0.984 . S
H525 N518 0.984 . S
H526 N514 0.984 . S
H527 N514 0.985 . S
C528 C529 1.363 . S
C528 C534 1.379 . S
C528 N536 1.356 . S
C529 C528 1.363 . S
C529 C535 1.363 . S
C530 C531 1.363 . S
C530 C535 1.379 . S
C530 N537 1.356 . S
C531 C530 1.363 . S
C531 C534 1.363 . S
N532 C534 1.356 . S
N532 H544 0.984 . S
N532 H545 0.985 1_554 S
N533 C535 1.356 1_655 S
N533 H538 0.984 . S
N533 H539 0.985 . S
C534 C528 1.379 . S
C534 C531 1.363 . S
C534 N532 1.356 . S
C535 C529 1.363 . S
C535 C530 1.379 . S
C535 N533 1.356 1_455 S
N536 C528 1.356 . S
N536 H542 0.984 . S
N536 H543 0.984 . S
N537 C530 1.356 . S
N537 H540 0.984 . S
N537 H541 0.985 . S
H538 N533 0.984 . S
H539 N533 0.985 . S
H540 N537 0.984 . S
H541 N537 0.985 . S
H542 N536 0.984 . S
H543 N536 0.984 . S
H544 N532 0.984 . S
H545 N532 0.985 1_556 S
C546 C547 1.363 1_565 S
C546 C552 1.379 1_565 S
C546 N554 1.356 . S
C547 C546 1.363 1_545 S
C547 C553 1.363 . S
C548 C549 1.363 . S
C548 C553 1.379 . S
C548 N555 1.356 . S
C549 C548 1.363 . S
C549 C552 1.363 . S
N550 C552 1.356 1_565 S
N550 H562 0.984 . S
N550 H563 0.985 . S
N551 C553 1.356 . S
N551 H556 0.984 . S
N551 H557 0.985 . S
C552 C546 1.379 1_545 S
C552 C549 1.363 . S
C552 N550 1.356 1_545 S
C553 C547 1.363 . S
C553 C548 1.379 . S
C553 N551 1.356 . S
N554 C546 1.356 . S
N554 H560 0.984 . S
N554 H561 0.984 . S
N555 C548 1.356 . S
N555 H558 0.984 . S
N555 H559 0.985 . S
H556 N551 0.984 . S
H557 N551 0.985 . S
H558 N555 0.984 . S
H559 N555 0.985 . S
H560 N554 0.984 . S
H561 N554 0.984 . S
H562 N550 0.984 . S
H563 N550 0.985 . S
C564 C565 1.363 . S
C564 C570 1.379 . S
C564 N572 1.356 . S
C565 C564 1.363 . S
C565 C571 1.363 . S
C566 C567 1.363 . S
C566 C571 1.379 . S
C566 N573 1.356 . S
C567 C566 1.363 . S
C567 C570 1.363 . S
N568 C570 1.356 . S
N568 H580 0.984 . S
N568 H581 0.985 . S
N569 C571 1.356 . S
N569 H574 0.984 . S
N569 H575 0.985 . S
C570 C564 1.379 . S
C570 C567 1.363 . S
C570 N568 1.356 . S
C571 C565 1.363 . S
C571 C566 1.379 . S
C571 N569 1.356 . S
N572 C564 1.356 . S
N572 H578 0.984 . S
N572 H579 0.984 . S
N573 C566 1.356 . S
N573 H576 0.984 . S
N573 H577 0.985 . S
H574 N569 0.984 . S
H575 N569 0.985 . S
H576 N573 0.984 . S
H577 N573 0.985 . S
H578 N572 0.984 . S
H579 N572 0.984 . S
H580 N568 0.984 . S
H581 N568 0.985 . S
C582 C583 1.363 1_565 S
C582 C588 1.379 . S
C582 N590 1.356 . S
C583 C582 1.363 1_545 S
C583 C589 1.363 . S
C584 C585 1.363 . S
C584 C589 1.379 . S
C584 N591 1.356 . S
C585 C584 1.363 . S
C585 C588 1.363 1_545 S
N586 C588 1.356 . S
N586 H598 0.984 . S
N586 H599 0.985 . S
N587 C589 1.356 . S
N587 H592 0.984 . S
N587 H593 0.985 . S
C588 C582 1.379 . S
C588 C585 1.363 1_565 S
C588 N586 1.356 . S
C589 C583 1.363 . S
C589 C584 1.379 . S
C589 N587 1.356 . S
N590 C582 1.356 . S
N590 H596 0.984 . S
N590 H597 0.984 . S
N591 C584 1.356 . S
N591 H594 0.984 . S
N591 H595 0.985 . S
H592 N587 0.984 . S
H593 N587 0.985 . S
H594 N591 0.984 . S
H595 N591 0.985 . S
H596 N590 0.984 . S
H597 N590 0.984 . S
H598 N586 0.984 . S
H599 N586 0.985 . S
C600 C601 1.363 . S
C600 C606 1.379 . S
C600 N608 1.356 . S
C601 C600 1.363 . S
C601 C607 1.363 . S
C602 C603 1.363 . S
C602 C607 1.379 . S
C602 N609 1.356 . S
C603 C602 1.363 . S
C603 C606 1.363 . S
N604 C606 1.356 . S
N604 H616 0.984 . S
N604 H617 0.997 . S
N605 C607 1.356 . S
N605 H610 0.984 . S
N605 H611 0.985 . S
C606 C600 1.379 . S
C606 C603 1.363 . S
C606 N604 1.356 . S
C607 C601 1.363 . S
C607 C602 1.379 . S
C607 N605 1.356 . S
N608 C600 1.356 . S
N608 H614 0.984 . S
N608 H615 0.984 . S
N609 C602 1.356 . S
N609 H612 0.984 1_556 S
N609 H613 0.985 . S
H610 N605 0.984 . S
H611 N605 0.985 . S
H612 N609 0.984 1_554 S
H613 N609 0.985 . S
H614 N608 0.984 . S
H615 N608 0.984 . S
H616 N604 0.984 . S
H617 N604 0.997 . S
C618 C619 1.363 1_655 S
C618 C624 1.379 . S
C618 N626 1.356 . S
C619 C618 1.363 1_455 S
C619 C625 1.363 . S
C620 C621 1.363 1_455 S
C620 C625 1.379 . S
C620 N627 1.356 . S
C621 C620 1.363 1_655 S
C621 C624 1.363 . S
N622 C624 1.356 . S
N622 H634 0.984 . S
N622 H635 0.985 . S
N623 C625 1.356 . S
N623 H628 0.984 . S
N623 H629 0.985 . S
C624 C618 1.379 . S
C624 C621 1.363 . S
C624 N622 1.356 . S
C625 C619 1.363 . S
C625 C620 1.379 . S
C625 N623 1.356 . S
N626 C618 1.356 . S
N626 H632 0.984 . S
N626 H633 0.984 . S
N627 C620 1.356 . S
N627 H630 0.984 . S
N627 H631 0.985 . S
H628 N623 0.984 . S
H629 N623 0.985 . S
H630 N627 0.984 . S
H631 N627 0.985 . S
H632 N626 0.984 . S
H633 N626 0.984 . S
H634 N622 0.984 . S
H635 N622 0.985 . S
C313 C24 3.010 . S
C315 C303 2.925 . S
C331 C66 1.282 . S
C333 C239 1.320 . S
C349 C93 1.928 . S
C351 C271 1.857 . S
C367 C13 3.141 . S
C369 C297 3.085 . S
C387 C233 1.346 . S
C385 C57 1.349 . S
C405 C265 1.923 . S
C403 C104 2.003 . S
C421 C64 1.998 . S
C423 C175 1.923 . S
C439 C97 0.902 . S
C441 C207 0.980 . S
C457 C17 1.429 . S
C459 C137 1.503 . S
C477 C169 1.860 . S
C475 C53 1.917 . S
C495 C201 0.636 . S
C493 C106 0.693 . S
C511 C26 1.321 . S
C513 C143 1.344 . S
C531 C213 1.040 . S
C529 C2 1.045 . S
C547 C63 1.445 . S
C549 C149 1.451 . S
C565 C82 1.364 . S
C567 C181 1.365 . S
C585 C277 1.347 . S
C583 C42 1.379 . S
C603 C309 1.767 1_556 S
C601 C103 1.749 . S
C619 C23 1.468 . S
C621 C245 1.458 1_655 S
