# Generated by pormake.
# Topology zzz, (3,6)-cn, num edge types: 1
# Building blocks:
#     Node 0, Type 0, BuildingBlock: BELTOD_clean_linker_0, # of connection points: 3
#     Node 1, Type 0, BuildingBlock: BELTOD_clean_linker_0, # of connection points: 3
#     Node 2, Type 0, BuildingBlock: BELTOD_clean_linker_0, # of connection points: 3
#     Node 3, Type 0, BuildingBlock: BELTOD_clean_linker_0, # of connection points: 3
#     Node 4, Type 0, BuildingBlock: BELTOD_clean_linker_0, # of connection points: 3
#     Node 5, Type 0, BuildingBlock: BELTOD_clean_linker_0, # of connection points: 3
#     Node 6, Type 0, BuildingBlock: BELTOD_clean_linker_0, # of connection points: 3
#     Node 7, Type 0, BuildingBlock: BELTOD_clean_linker_0, # of connection points: 3
#     Node 8, Type 1, BuildingBlock: PAMTOO_clean_sbu_0, # of connection points: 6
#     Node 9, Type 1, BuildingBlock: PAMTOO_clean_sbu_0, # of connection points: 6
#     Node 10, Type 1, BuildingBlock: PAMTOO_clean_sbu_0, # of connection points: 6
#     Node 11, Type 1, BuildingBlock: PAMTOO_clean_sbu_0, # of connection points: 6
#     Edge 12, Type (0, 1), BuildingBlock: AJUNOK_clean_linker_0, # of connection points: 2
#     Edge 13, Type (0, 1), BuildingBlock: AJUNOK_clean_linker_0, # of connection points: 2
#     Edge 14, Type (0, 1), BuildingBlock: AJUNOK_clean_linker_0, # of connection points: 2
#     Edge 15, Type (0, 1), BuildingBlock: AJUNOK_clean_linker_0, # of connection points: 2
#     Edge 16, Type (0, 1), BuildingBlock: AJUNOK_clean_linker_0, # of connection points: 2
#     Edge 17, Type (0, 1), BuildingBlock: AJUNOK_clean_linker_0, # of connection points: 2
#     Edge 18, Type (0, 1), BuildingBlock: AJUNOK_clean_linker_0, # of connection points: 2
#     Edge 19, Type (0, 1), BuildingBlock: AJUNOK_clean_linker_0, # of connection points: 2
#     Edge 20, Type (0, 1), BuildingBlock: AJUNOK_clean_linker_0, # of connection points: 2
#     Edge 21, Type (0, 1), BuildingBlock: AJUNOK_clean_linker_0, # of connection points: 2
#     Edge 22, Type (0, 1), BuildingBlock: AJUNOK_clean_linker_0, # of connection points: 2
#     Edge 23, Type (0, 1), BuildingBlock: AJUNOK_clean_linker_0, # of connection points: 2
#     Edge 24, Type (0, 1), BuildingBlock: AJUNOK_clean_linker_0, # of connection points: 2
#     Edge 25, Type (0, 1), BuildingBlock: AJUNOK_clean_linker_0, # of connection points: 2
#     Edge 26, Type (0, 1), BuildingBlock: AJUNOK_clean_linker_0, # of connection points: 2
#     Edge 27, Type (0, 1), BuildingBlock: AJUNOK_clean_linker_0, # of connection points: 2
#     Edge 28, Type (0, 1), BuildingBlock: AJUNOK_clean_linker_0, # of connection points: 2
#     Edge 29, Type (0, 1), BuildingBlock: AJUNOK_clean_linker_0, # of connection points: 2
#     Edge 30, Type (0, 1), BuildingBlock: AJUNOK_clean_linker_0, # of connection points: 2
#     Edge 31, Type (0, 1), BuildingBlock: AJUNOK_clean_linker_0, # of connection points: 2
#     Edge 32, Type (0, 1), BuildingBlock: AJUNOK_clean_linker_0, # of connection points: 2
#     Edge 33, Type (0, 1), BuildingBlock: AJUNOK_clean_linker_0, # of connection points: 2
#     Edge 34, Type (0, 1), BuildingBlock: AJUNOK_clean_linker_0, # of connection points: 2
#     Edge 35, Type (0, 1), BuildingBlock: AJUNOK_clean_linker_0, # of connection points: 2
# Relax obj value: 0.380
# Max RMSD: 0.283
# Mean RMSD: 0.214
data_MOF--net-zzz--node1-PAMTOO_clean_sbu_0--node2-BELTOD_clean_linker_0--edge1-AJUNOK_clean_linker_0
_symmetry_space_group_name_H-M    P1
_symmetry_Int_Tables_number       1
_symmetry_cell_setting            triclinic
loop_
_symmetry_equiv_pos_as_xyz
'x, y, z'
_cell_length_a     47.665229
_cell_length_b     39.641005
_cell_length_c     15.057226
_cell_angle_alpha  93.054954
_cell_angle_beta   79.414535
_cell_angle_gamma 84.362555
loop_
_atom_site_label
_atom_site_type_symbol
_atom_site_fract_x
_atom_site_fract_y
_atom_site_fract_z
_atom_type_partial_charge
P0 P 0.77051 0.46845 0.60528 0.0
H1 H 0.77821 0.49375 0.78562 0.0
H2 H 0.82156 0.50688 0.84003 0.0
H3 H 0.86675 0.50588 0.56406 0.0
H4 H 0.82329 0.4932 0.50959 0.0
H5 H 0.71235 0.45563 0.59537 0.0
H6 H 0.68061 0.47193 0.49204 0.0
H7 H 0.73935 0.54102 0.37565 0.0
H8 H 0.77145 0.52432 0.48047 0.0
H9 H 0.80364 0.40564 0.63705 0.0
H10 H 0.78414 0.45715 0.4068 0.0
O11 O 0.75276 0.45128 0.69477 0.0
H12 H 0.83966 0.36595 0.53529 0.0
H13 H 0.82034 0.41916 0.30688 0.0
C14 C 0.79739 0.49215 0.64326 0.0
C15 C 0.79703 0.49767 0.7365 0.0
C16 C 0.82191 0.50505 0.76778 0.0
C17 C 0.84769 0.5067 0.70635 0.0
C18 C 0.84728 0.50428 0.613 0.0
C19 C 0.82231 0.49733 0.5818 0.0
C20 C 0.7441 0.48923 0.5474 0.0
C21 C 0.71801 0.47531 0.55029 0.0
C22 C 0.69976 0.48466 0.49077 0.0
C23 C 0.7072 0.50807 0.4259 0.0
C24 C 0.7329 0.52304 0.42511 0.0
C25 C 0.75113 0.51382 0.48565 0.0
C26 C 0.79095 0.43428 0.52983 0.0
C27 C 0.80651 0.40788 0.56465 0.0
C28 C 0.82729 0.38546 0.50658 0.0
C29 C 0.83315 0.38964 0.41304 0.0
C30 C 0.8162 0.41484 0.37832 0.0
C31 C 0.7954 0.43691 0.43602 0.0
P32 P 0.03608 0.69566 0.52054 0.0
H33 H 0.03968 0.72477 0.69958 0.0
H34 H 0.0295 0.7834 0.7614 0.0
H35 H 0.978 0.80566 0.55947 0.0
H36 H 0.98996 0.74717 0.49391 0.0
H37 H 0.05989 0.63138 0.42773 0.0
H38 H 0.04255 0.59145 0.32752 0.0
H39 H 0.95914 0.64956 0.38434 0.0
H40 H 0.97665 0.68961 0.48692 0.0
H41 H 0.08246 0.73804 0.51905 0.0
H42 H 0.03043 0.70462 0.33202 0.0
O43 O 0.05958 0.67651 0.57625 0.0
H44 H 0.09557 0.78436 0.42382 0.0
H45 H 0.04407 0.7501 0.23654 0.0
C46 C 0.01542 0.73107 0.59221 0.0
C47 C 0.02522 0.74174 0.67044 0.0
C48 C 0.01954 0.77564 0.70564 0.0
C49 C 1.00371 0.79978 0.66378 0.0
C50 C 0.99119 0.78816 0.59158 0.0
C51 C 0.99726 0.75427 0.55554 0.0
C52 C 0.01947 0.66307 0.46676 0.0
C53 C 0.03751 0.63486 0.42191 0.0
C54 C 0.02762 0.61205 0.36417 0.0
C55 C 0.99949 0.61717 0.34829 0.0
C56 C 0.98095 0.64491 0.39544 0.0
C57 C 0.99089 0.66774 0.45437 0.0
C58 C 0.05554 0.71781 0.43274 0.0
C59 C 0.07507 0.73954 0.45536 0.0
C60 C 0.08245 0.76605 0.40131 0.0
C61 C 0.0703 0.77092 0.32433 0.0
C62 C 0.05333 0.74694 0.29655 0.0
C63 C 0.04576 0.7207 0.35086 0.0
P64 P 0.76929 0.04038 0.40952 0.0
H65 H 0.74474 0.04098 0.60188 0.0
H66 H 0.6989 0.0251 0.67577 0.0
H67 H 0.69314 0.96498 0.43336 0.0
H68 H 0.73876 0.98288 0.35746 0.0
H69 H 0.79934 0.07582 0.26603 0.0
H70 H 0.84388 0.06345 0.15684 0.0
H71 H 0.85648 0.96382 0.2551 0.0
H72 H 0.81102 0.9767 0.36664 0.0
H73 H 0.7242 0.09569 0.47696 0.0
H74 H 0.75559 0.03294 0.22879 0.0
O75 O 0.7798 0.06734 0.48259 0.0
H76 H 0.68127 0.11614 0.41886 0.0
H77 H 0.71332 0.05381 0.17025 0.0
C78 C 0.74575 0.01303 0.47362 0.0
C79 C 0.73438 0.02326 0.56508 0.0
C80 C 0.70769 0.01432 0.60759 0.0
C81 C 0.69146 0.99457 0.56024 0.0
C82 C 0.70428 0.98135 0.47142 0.0
C83 C 0.73095 0.99072 0.42842 0.0
C84 C 0.80112 0.02683 0.323 0.0
C85 C 0.81121 0.05092 0.26335 0.0
C86 C 0.83691 0.04386 0.20068 0.0
C87 C 0.8539 0.01257 0.19626 0.0
C88 C 0.84405 0.98829 0.25675 0.0
C89 C 0.8179 0.99543 0.31993 0.0
C90 C 0.74354 0.06364 0.35607 0.0
C91 C 0.72254 0.08757 0.40848 0.0
C92 C 0.69798 0.09902 0.37571 0.0
C93 C 0.69432 0.08686 0.28981 0.0
C94 C 0.71604 0.06423 0.23575 0.0
C95 C 0.7403 0.05242 0.26904 0.0
P96 P 0.4841 0.7595 0.36039 0.0
H97 H 0.49415 0.75809 0.54691 0.0
H98 H 0.51344 0.71078 0.62338 0.0
H99 H 0.54814 0.65652 0.3645 0.0
H100 H 0.5295 0.70434 0.28786 0.0
H101 H 0.45225 0.80813 0.27149 0.0
H102 H 0.46574 0.85019 0.16342 0.0
H103 H 0.55488 0.82534 0.17781 0.0
H104 H 0.54118 0.78233 0.2862 0.0
H105 H 0.4499 0.70506 0.41821 0.0
H106 H 0.48835 0.7423 0.1651 0.0
O107 O 0.45776 0.77781 0.44244 0.0
H108 H 0.44118 0.65311 0.3363 0.0
H109 H 0.47903 0.6911 0.08374 0.0
C110 C 0.51006 0.73473 0.41149 0.0
C111 C 0.50719 0.73688 0.50616 0.0
C112 C 0.51818 0.70969 0.55005 0.0
C113 C 0.53201 0.67981 0.49989 0.0
C114 C 0.53751 0.67922 0.4048 0.0
C115 C 0.52702 0.70671 0.36095 0.0
C116 C 0.49567 0.79221 0.28716 0.0
C117 C 0.47472 0.81184 0.25219 0.0
C118 C 0.48243 0.83577 0.19012 0.0
C119 C 0.51132 0.84097 0.16216 0.0
C120 C 0.53243 0.82189 0.19872 0.0
C121 C 0.52465 0.79738 0.26045 0.0
C122 C 0.46941 0.72781 0.29786 0.0
C123 C 0.4553 0.70277 0.3449 0.0
C124 C 0.45044 0.67309 0.29833 0.0
C125 C 0.45941 0.66831 0.20398 0.0
C126 C 0.47157 0.69449 0.15642 0.0
C127 C 0.47685 0.72386 0.20308 0.0
P128 P 0.25696 0.43406 0.0675 0.0
H129 H 0.24158 0.41025 0.89611 0.0
H130 H 0.19908 0.42887 0.8349 0.0
H131 H 0.18706 0.52224 1.00425 0.0
H132 H 0.23018 0.50407 0.06343 0.0
H133 H 0.30119 0.39245 0.13162 0.0
H134 H 0.33854 0.40618 0.21224 0.0
H135 H 0.32514 0.51105 0.15118 0.0
H136 H 0.28668 0.49697 0.07093 0.0
H137 H 0.19805 0.41893 0.11764 0.0
H138 H 0.25679 0.47395 0.24023 0.0
O139 O 0.25902 0.39223 0.04267 0.0
H140 H 0.15766 0.45078 0.22232 0.0
H141 H 0.21682 0.50611 0.34156 0.0
C142 C 0.23929 0.45554 0.98527 0.0
C143 C 0.23095 0.43562 0.91647 0.0
C144 C 0.20633 0.44616 0.88184 0.0
C145 C 0.18941 0.47679 0.91574 0.0
C146 C 0.19957 0.49842 0.97701 0.0
C147 C 0.22459 0.4882 0.00995 0.0
C148 C 0.29137 0.44344 0.09294 0.0
C149 C 0.30699 0.41818 0.13161 0.0
C150 C 0.32853 0.42613 0.17832 0.0
C151 C 0.33525 0.45972 0.18789 0.0
C152 C 0.32061 0.48488 0.14504 0.0
C153 C 0.29891 0.4768 0.09775 0.0
C154 C 0.2305 0.44443 0.1693 0.0
C155 C 0.20239 0.43686 0.16894 0.0
C156 C 0.17933 0.45552 0.22738 0.0
C157 C 0.18425 0.48174 0.28713 0.0
C158 C 0.21249 0.48639 0.29488 0.0
C159 C 0.23547 0.46784 0.23643 0.0
P160 P 0.06285 0.30392 0.10196 0.0
H161 H 0.06086 0.28479 0.91275 0.0
H162 H 0.04565 0.23338 0.85028 0.0
H163 H 0.99598 0.2186 0.11238 0.0
H164 H 1.01286 0.26865 0.17582 0.0
H165 H 0.08842 0.36407 0.15238 0.0
H166 H 0.07838 0.40311 0.28824 0.0
H167 H 1.00003 0.35892 0.381 0.0
H168 H 1.00989 0.3202 0.24455 0.0
H169 H 0.09448 0.23888 0.02761 0.0
H170 H 0.06689 0.29178 0.29218 0.0
O171 O 0.08747 0.3169 0.02107 0.0
H172 H 0.08887 0.1847 0.09516 0.0
H173 H 0.06212 0.23784 0.35916 0.0
C174 C 0.03789 0.2814 0.04946 0.0
C175 C 0.0455 0.27165 0.95625 0.0
C176 C 0.03682 0.24185 0.92025 0.0
C177 C 0.01984 0.22137 0.97643 0.0
C178 C 1.00941 0.23343 0.06732 0.0
C179 C 0.01843 0.26294 0.10345 0.0
C180 C 0.0499 0.33906 0.18699 0.0
C181 C 0.06854 0.36342 0.20015 0.0
C182 C 0.0629 0.38568 0.2783 0.0
C183 C 0.03872 0.38365 0.34605 0.0
C184 C 0.01912 0.36068 0.33057 0.0
C185 C 0.02464 0.33863 0.25178 0.0
C186 C 0.07953 0.26949 0.15403 0.0
C187 C 0.08899 0.23888 0.10068 0.0
C188 C 0.0857 0.20785 0.1391 0.0
C189 C 0.07406 0.20757 0.23144 0.0
C190 C 0.07047 0.23778 0.28716 0.0
C191 C 0.07319 0.26872 0.24854 0.0
P192 P 0.24837 0.05532 0.22745 0.0
H193 H 0.26882 0.06145 0.03307 0.0
H194 H 0.31666 0.0459 0.94333 0.0
H195 H 0.33623 0.97777 0.14302 0.0
H196 H 0.28815 0.99383 0.23365 0.0
H197 H 0.18789 0.08299 0.26043 0.0
H198 H 0.14517 0.06958 0.36209 0.0
H199 H 0.19344 0.98146 0.43733 0.0
H200 H 0.23652 0.99435 0.33186 0.0
H201 H 0.29883 0.09085 0.19901 0.0
H202 H 0.25024 0.0444 0.42135 0.0
O203 O 0.2383 0.09074 0.1809 0.0
H204 H 0.34171 0.08034 0.26235 0.0
H205 H 0.29282 0.03571 0.48835 0.0
C206 C 0.2744 0.0289 0.1409 0.0
C207 C 0.28268 0.04181 0.05586 0.0
C208 C 0.31042 0.03301 1.0043 0.0
C209 C 0.33068 0.01084 0.03604 0.0
C210 C 0.32138 0.99521 0.11667 0.0
C211 C 0.2935 0.00384 0.16787 0.0
C212 C 0.21576 0.03972 0.28758 0.0
C213 C 0.18942 0.0602 0.29653 0.0
C214 C 0.16483 0.05262 0.35532 0.0
C215 C 0.16588 0.02459 0.40833 0.0
C216 C 0.19198 0.00335 0.39768 0.0
C217 C 0.21656 0.01054 0.33678 0.0
C218 C 0.27157 0.06706 0.30304 0.0
C219 C 0.29693 0.0802 0.26437 0.0
C220 C 0.32162 0.07417 0.30093 0.0
C221 C 0.32086 0.05639 0.37941 0.0
C222 C 0.29422 0.04848 0.42609 0.0
C223 C 0.26973 0.05359 0.38783 0.0
P224 P 0.46127 0.26969 0.36424 0.0
H225 H 0.45353 0.26747 0.17375 0.0
H226 H 0.46768 0.30537 0.05476 0.0
H227 H 0.52116 0.35091 0.22038 0.0
H228 H 0.51103 0.30957 0.32867 0.0
H229 H 0.4254 0.22453 0.46427 0.0
H230 H 0.43607 0.17224 0.53508 0.0
H231 H 0.52504 0.16772 0.40451 0.0
H232 H 0.51397 0.22028 0.33151 0.0
H233 H 0.43589 0.33724 0.43969 0.0
H234 H 0.50339 0.26292 0.48429 0.0
O235 O 0.42631 0.27633 0.36156 0.0
H236 H 0.45506 0.38065 0.5251 0.0
H237 H 0.52332 0.3063 0.56527 0.0
C238 C 0.48031 0.28613 0.2624 0.0
C239 C 0.4693 0.28465 0.18222 0.0
C240 C 0.47669 0.30743 0.11539 0.0
C241 C 0.49414 0.33334 0.12944 0.0
C242 C 0.50737 0.33208 0.20578 0.0
C243 C 0.50121 0.30824 0.2696 0.0
C244 C 0.46876 0.22612 0.39105 0.0
C245 C 0.44705 0.21177 0.44793 0.0
C246 C 0.45324 0.18203 0.48961 0.0
C247 C 0.48141 0.16593 0.4762 0.0
C248 C 0.50303 0.17931 0.41551 0.0
C249 C 0.49673 0.20924 0.3733 0.0
C250 C 0.46793 0.29668 0.45629 0.0
C251 C 0.45408 0.32988 0.47093 0.0
C252 C 0.46535 0.35479 0.51848 0.0
C253 C 0.49088 0.34693 0.55101 0.0
C254 C 0.50339 0.31307 0.54242 0.0
C255 C 0.49188 0.2881 0.49592 0.0
Dy256 Dy 0.99447 0.02121 0.73219 0.0
Dy257 Dy 0.03205 1.00119 0.88419 0.0
C258 C 0.06256 0.01231 0.68226 0.0
O259 O 0.98871 0.96651 0.7458 0.0
O260 O 0.027 0.95111 0.81441 0.0
O261 O 0.98428 0.0108 0.60017 0.0
O262 O 0.96546 0.0571 0.68034 0.0
O263 O 0.98722 0.99177 0.94901 0.0
O264 O 0.96114 0.02178 0.85891 0.0
O265 O 0.01691 0.05624 0.91703 0.0
O266 O 1.01211 0.06898 0.77483 0.0
O267 O 0.03939 0.00264 0.02173 0.0
O268 O 0.07258 0.97964 0.91145 0.0
C269 C 1.00665 0.94329 0.77095 0.0
O270 O 0.03909 0.00392 0.65792 0.0
O271 O 0.06249 0.01988 0.76833 0.0
C272 C 0.98636 0.06128 0.52922 0.0
C273 C 0.01589 0.10028 0.40052 0.0
C274 C 0.02758 0.09097 0.47557 0.0
C275 C 1.01294 0.07175 0.53924 0.0
C276 C 0.97491 0.06937 0.4528 0.0
C277 C 0.98965 0.08889 0.38852 0.0
C278 C 0.9718 0.0415 0.59947 0.0
C279 C 0.96254 0.00578 0.93287 0.0
C280 C 0.01433 0.07876 0.85773 0.0
C281 C 0.06924 0.95515 0.05253 0.0
C282 C 0.0743 0.89776 0.1524 0.0
C283 C 0.06018 0.92871 0.1953 0.0
C284 C 0.05777 0.95726 0.14577 0.0
C285 C 0.08471 0.92456 0.01096 0.0
C286 C 0.08723 0.89611 0.06064 0.0
C287 C 0.06431 0.98451 0.99908 0.0
H288 H 0.04757 0.09967 0.48703 0.0
H289 H 0.02228 0.06541 0.59728 0.0
H290 H 0.95459 0.06107 0.44359 0.0
H291 H 0.98034 0.09565 0.33059 0.0
H292 H 0.05039 0.93053 0.26653 0.0
H293 H 0.04624 0.98071 0.17982 0.0
H294 H 0.0942 0.92222 0.93951 0.0
H295 H 0.0982 0.87241 0.02644 0.0
Dy296 Dy 0.50742 0.97404 0.7187 0.0
Dy297 Dy 0.51584 0.02575 0.88351 0.0
C298 C 0.50358 0.05304 0.69939 0.0
O299 O 0.55512 0.96708 0.7071 0.0
O300 O 0.55969 0.01555 0.79288 0.0
O301 O 0.51647 0.95699 0.57639 0.0
O302 O 0.48295 0.93671 0.6677 0.0
O303 O 0.53148 0.9748 0.92441 0.0
O304 O 0.51069 0.94069 0.83255 0.0
O305 O 0.47175 0.00992 0.92602 0.0
O306 O 0.46344 0.99954 0.78414 0.0
O307 O 0.50901 0.04252 0.02523 0.0
O308 O 0.52924 0.07382 0.924 0.0
C309 C 0.57084 0.98975 0.73366 0.0
O310 O 0.51598 0.02361 0.66202 0.0
O311 O 0.49498 0.05686 0.7876 0.0
C312 C 0.4714 0.95846 0.53695 0.0
C313 C 0.42613 0.99113 0.46614 0.0
C314 C 0.43861 0.00856 0.52952 0.0
C315 C 0.46115 0.99256 0.56337 0.0
C316 C 0.45938 0.94071 0.47301 0.0
C317 C 0.43686 0.95706 0.43738 0.0
C318 C 0.49295 0.94231 0.58384 0.0
C319 C 0.52288 0.94535 0.90337 0.0
C320 C 0.45375 0.00492 0.87174 0.0
C321 C 0.54402 0.07591 0.06463 0.0
C322 C 0.58862 0.0884 0.15644 0.0
C323 C 0.57947 0.05585 0.15206 0.0
C324 C 0.55743 0.04956 0.10603 0.0
C325 C 0.55235 0.10875 0.07231 0.0
C326 C 0.57456 0.11496 0.11771 0.0
C327 C 0.52224 0.06951 0.01014 0.0
H328 H 0.43026 0.03423 0.55611 0.0
H329 H 0.46991 0.00667 0.61309 0.0
H330 H 0.46692 0.9143 0.45224 0.0
H331 H 0.4275 0.94296 0.38874 0.0
H332 H 0.59015 0.03496 0.18117 0.0
H333 H 0.55143 0.02398 0.10098 0.0
H334 H 0.54212 0.12942 0.0412 0.0
H335 H 0.58116 0.14032 0.12108 0.0
Dy336 Dy 0.54928 0.50898 0.8507 0.0
Dy337 Dy 0.48495 0.50552 0.77888 0.0
C338 C 0.50593 0.456 0.92786 0.0
O339 O 0.5518 0.46258 0.75665 0.0
O340 O 0.52366 0.48983 0.67403 0.0
O341 O 0.58953 0.48413 0.87585 0.0
O342 O 0.58045 0.5388 0.89507 0.0
O343 O 0.50137 0.55257 0.72562 0.0
O344 O 0.54949 0.54387 0.73652 0.0
O345 O 0.47199 0.53527 0.91262 0.0
O346 O 0.51657 0.5431 0.94859 0.0
O347 O 0.44495 0.52458 0.73996 0.0
O348 O 0.45989 0.47078 0.72086 0.0
C349 C 0.53966 0.4625 0.68553 0.0
O350 O 0.52506 0.47591 0.94591 0.0
O351 O 0.49152 0.46102 0.86204 0.0
C352 C 0.6109 0.5122 0.98736 0.0
C353 C 0.64025 0.51422 0.13571 0.0
C354 C 0.61703 0.53868 0.13205 0.0
C355 C 0.60249 0.53766 0.0589 0.0
C356 C 0.63384 0.48761 0.99157 0.0
C357 C 0.64828 0.48856 0.06468 0.0
C358 C 0.59792 0.51238 0.90454 0.0
C359 C 0.52786 0.56064 0.70781 0.0
C360 C 0.48831 0.54861 0.96388 0.0
C361 C 0.42966 0.4916 0.62131 0.0
C362 C 0.40334 0.48436 0.46727 0.0
C363 C 0.40935 0.5165 0.49865 0.0
C364 C 0.42236 0.5201 0.5748 0.0
C365 C 0.4238 0.45955 0.58946 0.0
C366 C 0.4108 0.45598 0.51386 0.0
C367 C 0.44056 0.49469 0.70773 0.0
H368 H 0.61056 0.5592 0.18444 0.0
H369 H 0.58507 0.55724 0.05762 0.0
H370 H 0.641 0.46789 0.93723 0.0
H371 H 0.66589 0.46916 0.0654 0.0
H372 H 0.40385 0.53889 0.46453 0.0
H373 H 0.42623 0.54525 0.59802 0.0
H374 H 0.42857 0.43719 0.62472 0.0
H375 H 0.40579 0.43098 0.49363 0.0
Dy376 Dy 0.01499 0.53456 0.8087 0.0
Dy377 Dy 1.0095 0.46339 0.90669 0.0
C378 C 0.02705 0.46309 0.69255 0.0
O379 O 0.96763 0.53186 0.84841 0.0
O380 O 0.96969 0.47406 0.84891 0.0
O381 O 1.00041 0.57081 0.72033 0.0
O382 O 0.03536 0.58054 0.78798 0.0
O383 O 0.98839 0.50381 0.01609 0.0
O384 O 1.00951 0.54926 0.95564 0.0
O385 O 0.05209 0.47888 0.92411 0.0
O386 O 0.06052 0.51034 0.80093 0.0
O387 O 1.01139 0.43234 0.01973 0.0
O388 O 1.00289 0.41041 0.8944 0.0
C389 C 0.9558 0.50362 0.84003 0.0
O390 O 0.01573 0.49478 0.69714 0.0
O391 O 0.03355 0.44941 0.76483 0.0
C392 C 0.04166 0.58941 0.63379 0.0
C393 C 0.08846 0.57036 0.49225 0.0
C394 C 0.06178 0.55883 0.48878 0.0
C395 C 0.03845 0.56855 0.55856 0.0
C396 C 0.06738 0.60406 0.6318 0.0
C397 C 0.0907 0.59454 0.56139 0.0
C398 C 0.02233 0.588 0.72139 0.0
C399 C 0.99527 0.53509 0.02407 0.0
C400 C 0.06979 0.49369 0.86526 0.0
C401 C 0.97956 0.39077 0.02918 0.0
C402 C 0.93325 0.36688 0.1423 0.0
C403 C 0.96118 0.35057 0.13526 0.0
C404 C 0.98424 0.36247 0.07862 0.0
C405 C 0.95154 0.40591 0.03249 0.0
C406 C 0.92854 0.39395 0.08831 0.0
C407 C 1.00388 0.40587 0.97875 0.0
H408 H 0.05956 0.53994 0.43653 0.0
H409 H 0.01887 0.55692 0.55748 0.0
H410 H 0.07035 0.62022 0.68893 0.0
H411 H 0.11112 0.60388 0.56483 0.0
H412 H 0.96524 0.3296 0.17609 0.0
H413 H 1.00578 0.35043 0.07569 0.0
H414 H 0.94758 0.42781 0.99463 0.0
H415 H 0.90726 0.40724 0.09348 0.0
C416 C 0.1409 0.01888 0.56954 0.0
C417 C 0.13992 0.01877 0.47653 0.0
C418 C 0.11598 0.01674 0.63541 0.0
C419 C 0.08904 0.01381 0.61109 0.0
H420 H 0.16096 0.02162 0.59183 0.0
H421 H 0.11788 0.01752 0.70605 0.0
S422 S 0.07543 0.01033 0.37513 0.0
N423 N 0.11001 0.01456 0.36322 0.0
N424 N 0.06363 0.00947 0.48507 0.0
C425 C 0.08808 0.01269 0.51763 0.0
C426 C 0.11332 0.01547 0.45106 0.0
C427 C 0.47794 0.13954 0.62543 0.0
C428 C 0.48811 0.13688 0.531 0.0
C429 C 0.48325 0.11258 0.67915 0.0
C430 C 0.49885 0.0816 0.64086 0.0
H431 H 0.46584 0.16284 0.65839 0.0
H432 H 0.47485 0.11607 0.7513 0.0
S433 S 0.52992 0.0614 0.39597 0.0
N434 N 0.51433 0.10072 0.4012 0.0
N435 N 0.52445 0.05001 0.50114 0.0
C436 C 0.50924 0.07863 0.54617 0.0
C437 C 0.50391 0.10624 0.49164 0.0
C438 C 0.34715 0.49609 0.31614 0.0
C439 C 0.35517 0.46848 0.25023 0.0
C440 C 0.36335 0.50189 0.38387 0.0
C441 C 0.38826 0.48031 0.38882 0.0
H442 H 0.32743 0.51245 0.31814 0.0
H443 H 0.35556 0.52258 0.4351 0.0
S444 S 0.42083 0.4073 0.22615 0.0
N445 N 0.39152 0.42141 0.18965 0.0
N446 N 0.42173 0.43238 0.31629 0.0
C447 C 0.39734 0.45375 0.32067 0.0
C448 C 0.38091 0.44784 0.25177 0.0
C449 C 0.03627 0.43903 0.43909 0.0
C450 C 0.0353 0.40361 0.43503 0.0
C451 C 0.03387 0.45799 0.5224 0.0
C452 C 0.03108 0.4422 0.60487 0.0
H453 H 0.03861 0.45223 0.37742 0.0
H454 H 0.03433 0.48525 0.52204 0.0
S455 S 0.02822 0.34988 0.63064 0.0
N456 N 0.03177 0.35342 0.52047 0.0
N457 N 0.02761 0.38879 0.67642 0.0
C458 C 0.03047 0.40671 0.60141 0.0
C459 C 0.03245 0.38752 0.5168 0.0
C460 C 0.88253 0.01582 0.03914 0.0
C461 C 0.88171 0.00652 0.12859 0.0
C462 C 0.90851 0.01468 0.97662 0.0
C463 C 0.93518 0.00411 1.0 0.0
H464 H 0.86282 0.02471 0.01743 0.0
H465 H 0.90759 0.02271 0.9095 0.0
S466 S 0.94512 0.97602 0.22506 0.0
N467 N 0.91005 0.9856 0.23682 0.0
N468 N 0.95882 0.98301 0.11955 0.0
C469 C 0.93466 0.99363 0.08851 0.0
C470 C 0.90804 0.99487 0.15247 0.0
C471 C 0.50962 0.86187 0.00937 0.0
C472 C 0.51873 0.86564 0.09263 0.0
C473 C 0.51253 0.88692 0.94697 0.0
C474 C 0.52438 0.91719 0.96538 0.0
H475 H 0.49939 0.83968 0.99337 0.0
H476 H 0.50435 0.88292 0.88517 0.0
S477 S 0.55301 0.93842 0.17284 0.0
N478 N 0.54137 0.90091 0.18904 0.0
N479 N 0.54679 0.94833 0.07252 0.0
C480 C 0.53471 0.92059 0.04723 0.0
C481 C 0.5319 0.89478 0.11058 0.0
C482 C 0.70309 0.51012 0.26194 0.0
C483 C 0.68966 0.51375 0.35391 0.0
C484 C 0.68699 0.51092 0.19243 0.0
C485 C 0.65671 0.51559 0.21156 0.0
H486 H 0.72626 0.50536 0.24336 0.0
H487 H 0.69843 0.5075 0.12286 0.0
S488 S 0.61104 0.52866 0.4414 0.0
N489 N 0.64421 0.52421 0.46034 0.0
N490 N 0.614 0.52517 0.33017 0.0
C491 C 0.64301 0.52041 0.3033 0.0
C492 C 0.65943 0.51953 0.37416 0.0
C493 C 0.99711 0.56008 0.26953 0.0
C494 C 0.99148 0.59582 0.27415 0.0
C495 C 0.99573 0.53992 0.19081 0.0
C496 C 0.98924 0.55488 0.11334 0.0
H497 H 1.004 0.54777 0.32564 0.0
H498 H 1.00184 0.51278 0.1884 0.0
S499 S 0.9704 0.64684 0.09277 0.0
N500 N 0.97704 0.64484 0.19631 0.0
N501 N 0.9748 0.60719 0.04873 0.0
C502 C 0.98192 0.59031 0.11908 0.0
C503 C 0.98293 0.61072 0.19936 0.0
C504 C 0.07413 0.1469 0.27073 0.0
C505 C 0.05909 0.17868 0.26504 0.0
C506 C 0.05968 0.12054 0.30972 0.0
C507 C 0.02976 0.12516 0.34251 0.0
H508 H 0.09722 0.14288 0.24832 0.0
H509 H 0.07207 0.0968 0.3173 0.0
S510 S 0.98063 0.20295 0.33404 0.0
N511 N 1.01272 0.21267 0.28809 0.0
N512 N 0.9856 0.16332 0.36138 0.0
C513 C 0.01442 0.15628 0.33206 0.0
C514 C 0.0291 0.18304 0.29334 0.0
C515 C 0.35043 0.00662 0.42233 0.0
C516 C 0.34792 0.0411 0.40341 0.0
C517 C 0.37607 0.9904 0.43947 0.0
C518 C 0.4004 0.00787 0.43739 0.0
H519 H 0.33249 0.99178 0.42291 0.0
H520 H 0.37661 0.96416 0.45645 0.0
S521 S 0.40568 0.09806 0.38765 0.0
N522 N 0.3721 0.0922 0.38354 0.0
N523 N 0.42092 0.06114 0.4105 0.0
C524 C 0.39848 0.04215 0.41641 0.0
C525 C 0.37215 0.05887 0.40057 0.0
C526 C 0.50907 0.40351 0.53411 0.0
C527 C 0.50602 0.37461 0.58381 0.0
C528 C 0.52222 0.43075 0.56423 0.0
C529 C 0.53304 0.43015 0.64496 0.0
H530 H 0.50081 0.40537 0.47192 0.0
H531 H 0.52286 0.45309 0.52574 0.0
S532 S 0.5324 0.35917 0.79656 0.0
N533 N 0.51607 0.34618 0.71545 0.0
N534 N 0.54169 0.39704 0.771 0.0
C535 C 0.53169 0.40054 0.6927 0.0
C536 C 0.51791 0.37288 0.66247 0.0
C537 C 0.15843 0.51412 0.4297 0.0
C538 C 0.16028 0.50585 0.33689 0.0
C539 C 0.13589 0.53678 0.47833 0.0
C540 C 0.11448 0.55194 0.43569 0.0
H541 H 0.17418 0.50239 0.46529 0.0
H542 H 0.13454 0.54139 0.55061 0.0
S543 S 0.11195 0.5427 0.19145 0.0
N544 N 0.14072 0.51753 0.20196 0.0
N545 N 0.09792 0.5598 0.29434 0.0
C546 C 0.11679 0.54515 0.3422 0.0
C547 C 0.1398 0.52215 0.29253 0.0
C548 C 0.09781 0.81489 0.24558 0.0
C549 C 0.0714 0.80347 0.28172 0.0
C550 C 0.09873 0.84581 0.20459 0.0
C551 C 0.07329 0.86639 0.20055 0.0
H552 H 0.11776 0.79958 0.24773 0.0
H553 H 0.1194 0.85367 0.17575 0.0
S554 S 0.99885 0.84813 0.28813 0.0
N555 N 0.01935 0.81537 0.31336 0.0
N556 N 0.02112 0.87336 0.23613 0.0
C557 C 0.04683 0.85548 0.23799 0.0
C558 C 0.04588 0.82401 0.27873 0.0
C559 C 0.64159 0.08389 0.31516 0.0
C560 C 0.66643 0.09355 0.26114 0.0
C561 C 0.61596 0.08371 0.28237 0.0
C562 C 0.6143 0.0936 0.19507 0.0
H563 H 0.64242 0.07459 0.38112 0.0
H564 H 0.59759 0.07471 0.32429 0.0
S565 S 0.67278 0.12336 0.03005 0.0
N566 N 0.68744 0.11506 0.11883 0.0
N567 N 0.63916 0.11486 0.05701 0.0
C568 C 0.63857 0.10496 0.14232 0.0
C569 C 0.6647 0.10486 0.1754 0.0
C570 C 0.44858 0.6308 0.07843 0.0
C571 C 0.4608 0.63447 0.15612 0.0
C572 C 0.45532 0.60105 0.02041 0.0
C573 C 0.47503 0.57449 0.03735 0.0
H574 H 0.43499 0.65178 0.05992 0.0
H575 H 0.44692 0.60005 0.95828 0.0
S576 S 0.51074 0.57044 0.23608 0.0
N577 N 0.49146 0.60796 0.25105 0.0
N578 N 0.50457 0.5524 0.14112 0.0
C579 C 0.48586 0.57699 0.11785 0.0
C580 C 0.47864 0.60694 0.17755 0.0
C581 C 0.85769 0.36151 0.2625 0.0
C582 C 0.85918 0.372 0.35224 0.0
C583 C 0.88245 0.35604 0.19493 0.0
C584 C 0.90957 0.36022 0.21522 0.0
H585 H 0.83703 0.36041 0.24281 0.0
H586 H 0.88015 0.35122 0.12526 0.0
S587 S 0.92591 0.38061 0.44177 0.0
N588 N 0.89061 0.38159 0.45957 0.0
N589 N 0.93712 0.37018 0.33262 0.0
C590 C 0.91176 0.3664 0.3062 0.0
C591 C 0.88654 0.37251 0.37493 0.0
C592 C 0.02121 0.15901 1.00068 0.0
C593 C 0.01657 0.18563 0.94484 0.0
C594 C 0.02029 0.12492 0.97191 0.0
C595 C 0.01481 0.11557 0.88553 0.0
H596 H 0.02635 0.16439 0.06682 0.0
H597 H 0.0243 0.10571 0.01794 0.0
S598 S 0.99985 0.17551 0.71407 0.0
N599 N 1.00513 0.20029 0.79983 0.0
N600 N 1.00382 0.13626 0.7451 0.0
C601 C 1.00981 0.14193 0.82908 0.0
C602 C 1.01064 0.17683 0.85872 0.0
C603 C 0.38313 0.01076 0.04475 0.0
C604 C 0.36198 0.00729 0.99153 0.0
C605 C 0.41241 0.01004 1.00546 0.0
C606 C 0.4222 0.00569 0.91076 0.0
H607 H 0.37694 0.01493 0.11774 0.0
H608 H 0.42749 0.01311 0.05028 0.0
S609 S 0.37587 0.99373 0.74044 0.0
N610 N 0.3532 0.9981 0.83854 0.0
N611 N 0.40796 0.99682 0.76483 0.0
C612 C 0.40132 1.00168 0.85662 0.0
C613 C 0.37141 0.00252 0.89679 0.0
C614 C 0.52242 0.37969 0.06083 0.0
C615 C 0.49725 0.36298 0.07042 0.0
C616 C 0.52467 0.41001 0.01711 0.0
C617 C 0.50221 0.42482 0.97824 0.0
H618 H 0.5408 0.36938 0.0874 0.0
H619 H 0.54453 0.42155 0.01223 0.0
S620 S 0.4324 0.39098 0.97622 0.0
N621 N 0.44949 0.36391 0.03285 0.0
N622 N 0.45448 0.41977 0.94753 0.0
C623 C 0.47737 0.40795 0.98354 0.0
C624 C 0.47478 0.37733 0.02971 0.0
C625 C 0.13629 0.48672 0.97326 0.0
C626 C 0.15938 0.48344 0.89916 0.0
C627 C 0.10762 0.4905 0.96123 0.0
C628 C 0.10063 0.49153 0.87436 0.0
H629 H 0.14045 0.48513 0.04121 0.0
H630 H 0.09074 0.49241 0.02083 0.0
S631 S 0.1531 0.48262 0.6574 0.0
N632 N 0.17334 0.48044 0.7354 0.0
N633 N 0.11945 0.48821 0.71248 0.0
C634 C 0.12351 0.48854 0.79942 0.0
C635 C 0.15282 0.48416 0.81182 0.0
C636 C 0.99959 0.84866 0.78248 0.0
C637 C 1.0027 0.83699 0.6905 0.0
C638 C 1.00099 0.88304 0.80845 0.0
C639 C 1.00499 0.9072 0.74364 0.0
H640 H 0.99618 0.83106 0.83501 0.0
H641 H 0.9987 0.89081 0.87973 0.0
S642 S 0.01674 0.89033 0.49455 0.0
N643 N 1.01222 0.85283 0.53443 0.0
N644 N 1.01321 0.91736 0.58417 0.0
C645 C 1.00802 0.89617 0.65194 0.0
C646 C 1.00724 0.86114 0.62514 0.0
C647 C 0.65272 0.98631 0.69566 0.0
C648 C 0.66071 0.99034 0.60185 0.0
C649 C 0.62377 0.98575 0.73795 0.0
C650 C 0.60154 0.98836 0.68808 0.0
H651 H 0.66895 0.98394 0.73735 0.0
H652 H 0.61875 0.98328 0.8103 0.0
S653 S 0.60969 1.00148 0.44311 0.0
N654 N 0.64283 0.99907 0.46228 0.0
N655 N 0.58906 0.99612 0.54101 0.0
C656 C 0.60902 0.99193 0.59458 0.0
C657 C 0.63836 0.9933 0.55169 0.0
C658 C 0.52088 0.62034 0.52281 0.0
C659 C 0.53544 0.64776 0.54599 0.0
C660 C 0.51951 0.59175 0.57377 0.0
C661 C 0.53317 0.58902 0.64877 0.0
H662 H 0.50921 0.62174 0.46753 0.0
H663 H 0.50706 0.57191 0.55552 0.0
S664 S 0.57585 0.65257 0.73368 0.0
N665 N 0.56484 0.66973 0.64666 0.0
N666 N 0.56302 0.61534 0.74085 0.0
C667 C 0.54904 0.61539 0.66997 0.0
C668 C 0.54991 0.64496 0.61916 0.0
C669 C 0.87994 0.53202 0.80239 0.0
C670 C 0.87547 0.50653 0.73912 0.0
C671 C 0.90597 0.53125 0.83484 0.0
C672 C 0.92805 0.50437 0.80746 0.0
H673 H 0.86331 0.55283 0.82625 0.0
H674 H 0.90867 0.55156 0.88254 0.0
S675 S 0.92688 0.43137 0.64377 0.0
N676 N 0.8954 0.45382 0.65049 0.0
N677 N 0.9437 0.45198 0.71236 0.0
C678 C 0.92365 0.4787 0.7448 0.0
C679 C 0.89755 0.47987 0.71049 0.0
loop_
_geom_bond_atom_site_label_1
_geom_bond_atom_site_label_2
_geom_bond_distance
_geom_bond_site_symmetry_2
_ccdc_geom_bond_type
P0 O11 1.490 . S
P0 C14 1.812 . S
P0 C20 1.803 . S
P0 C26 1.819 . S
H1 C15 0.941 . S
H2 C16 0.939 . S
H3 C18 0.940 . S
H4 C19 0.940 . S
H5 C21 0.939 . S
H6 C22 0.942 . S
H7 C24 0.940 . S
H8 C25 0.939 . S
H9 C27 0.941 . S
H10 C31 0.939 . S
O11 P0 1.490 . S
H12 C28 0.939 . S
H13 C30 0.940 . S
C14 P0 1.812 . S
C14 C15 1.389 . S
C14 C19 1.391 . S
C15 H1 0.941 . S
C15 C14 1.389 . S
C15 C16 1.397 . S
C16 H2 0.939 . S
C16 C15 1.397 . S
C16 C17 1.378 . S
C17 C16 1.378 . S
C17 C18 1.378 . S
C18 H3 0.940 . S
C18 C17 1.378 . S
C18 C19 1.396 . S
C19 H4 0.940 . S
C19 C14 1.391 . S
C19 C18 1.396 . S
C20 P0 1.803 . S
C20 C21 1.378 . S
C20 C25 1.400 . S
C21 H5 0.939 . S
C21 C20 1.378 . S
C21 C22 1.361 . S
C22 H6 0.942 . S
C22 C21 1.361 . S
C22 C23 1.369 . S
C23 C22 1.369 . S
C23 C24 1.404 . S
C24 H7 0.940 . S
C24 C23 1.404 . S
C24 C25 1.389 . S
C25 H8 0.939 . S
C25 C20 1.400 . S
C25 C24 1.389 . S
C26 P0 1.819 . S
C26 C27 1.391 . S
C26 C31 1.391 . S
C27 H9 0.941 . S
C27 C26 1.391 . S
C27 C28 1.396 . S
C28 H12 0.939 . S
C28 C27 1.396 . S
C28 C29 1.397 . S
C29 C28 1.397 . S
C29 C30 1.385 . S
C30 H13 0.940 . S
C30 C29 1.385 . S
C30 C31 1.388 . S
C31 H10 0.939 . S
C31 C26 1.391 . S
C31 C30 1.388 . S
P32 O43 1.490 . S
P32 C46 1.812 . S
P32 C52 1.803 . S
P32 C58 1.819 . S
H33 C47 0.941 . S
H34 C48 0.939 . S
H35 C50 0.940 . S
H36 C51 0.953 . S
H37 C53 0.939 . S
H38 C54 0.942 . S
H39 C56 0.940 . S
H40 C57 0.953 . S
H41 C59 0.941 . S
H42 C63 0.926 1_655 S
O43 P32 1.490 . S
H44 C60 0.939 . S
H45 C62 0.940 . S
C46 P32 1.812 . S
C46 C47 1.389 . S
C46 C51 1.376 1_455 S
C47 H33 0.941 . S
C47 C46 1.389 . S
C47 C48 1.397 . S
C48 H34 0.939 . S
C48 C47 1.397 . S
C48 C49 1.378 . S
C49 C48 1.378 . S
C49 C50 1.378 1_455 S
C50 H35 0.940 . S
C50 C49 1.378 1_655 S
C50 C51 1.399 . S
C51 H36 0.953 . S
C51 C46 1.376 1_655 S
C51 C50 1.399 . S
C52 P32 1.803 . S
C52 C53 1.378 . S
C52 C57 1.369 1_455 S
C53 H37 0.939 . S
C53 C52 1.378 . S
C53 C54 1.361 . S
C54 H38 0.942 . S
C54 C53 1.361 . S
C54 C55 1.369 . S
C55 C54 1.369 . S
C55 C56 1.404 1_455 S
C56 H39 0.940 . S
C56 C55 1.404 1_655 S
C56 C57 1.407 . S
C57 H40 0.953 . S
C57 C52 1.369 1_655 S
C57 C56 1.407 . S
C58 P32 1.819 . S
C58 C59 1.391 . S
C58 C63 1.391 . S
C59 H41 0.941 . S
C59 C58 1.391 . S
C59 C60 1.396 . S
C60 H44 0.939 . S
C60 C59 1.396 . S
C60 C61 1.397 . S
C61 C60 1.397 . S
C61 C62 1.385 1_455 S
C62 H45 0.940 . S
C62 C61 1.385 1_655 S
C62 C63 1.388 1_655 S
C63 H42 0.926 1_455 S
C63 C58 1.391 . S
C63 C62 1.388 1_455 S
P64 O75 1.490 . S
P64 C78 1.812 . S
P64 C84 1.803 . S
P64 C90 1.819 . S
H65 C79 0.941 . S
H66 C80 0.939 . S
H67 C82 0.940 . S
H68 C83 0.949 . S
H69 C85 0.939 . S
H70 C86 0.942 . S
H71 C88 0.940 . S
H72 C89 0.963 . S
H73 C91 0.941 . S
H74 C95 0.932 1_565 S
O75 P64 1.490 . S
H76 C92 0.939 . S
H77 C94 0.940 . S
C78 P64 1.812 . S
C78 C79 1.389 . S
C78 C83 1.374 1_545 S
C79 H65 0.941 . S
C79 C78 1.389 . S
C79 C80 1.397 . S
C80 H66 0.939 . S
C80 C79 1.397 . S
C80 C81 1.378 . S
C81 C80 1.378 . S
C81 C82 1.378 1_545 S
C82 H67 0.940 . S
C82 C81 1.378 1_565 S
C82 C83 1.404 . S
C83 H68 0.949 . S
C83 C78 1.374 1_565 S
C83 C82 1.404 . S
C84 P64 1.803 . S
C84 C85 1.378 . S
C84 C89 1.369 1_545 S
C85 H69 0.939 . S
C85 C84 1.378 . S
C85 C86 1.361 . S
C86 H70 0.942 . S
C86 C85 1.361 . S
C86 C87 1.369 . S
C87 C86 1.369 . S
C87 C88 1.404 1_545 S
C88 H71 0.940 . S
C88 C87 1.404 1_565 S
C88 C89 1.398 . S
C89 H72 0.963 . S
C89 C84 1.369 1_565 S
C89 C88 1.398 . S
C90 P64 1.819 . S
C90 C91 1.391 . S
C90 C95 1.391 . S
C91 H73 0.941 . S
C91 C90 1.391 . S
C91 C92 1.396 . S
C92 H76 0.939 . S
C92 C91 1.396 . S
C92 C93 1.397 . S
C93 C92 1.397 . S
C93 C94 1.385 1_545 S
C94 H77 0.940 . S
C94 C93 1.385 1_565 S
C94 C95 1.388 1_565 S
C95 H74 0.932 1_545 S
C95 C90 1.391 . S
C95 C94 1.388 1_545 S
P96 O107 1.490 . S
P96 C110 1.812 . S
P96 C116 1.803 . S
P96 C122 1.819 . S
H97 C111 0.941 . S
H98 C112 0.939 . S
H99 C114 0.940 . S
H100 C115 0.940 . S
H101 C117 0.939 . S
H102 C118 0.942 . S
H103 C120 0.940 . S
H104 C121 0.939 . S
H105 C123 0.941 . S
H106 C127 0.939 . S
O107 P96 1.490 . S
H108 C124 0.939 . S
H109 C126 0.940 1_556 S
C110 P96 1.812 . S
C110 C111 1.389 . S
C110 C115 1.391 . S
C111 H97 0.941 . S
C111 C110 1.389 . S
C111 C112 1.397 . S
C112 H98 0.939 . S
C112 C111 1.397 . S
C112 C113 1.378 . S
C113 C112 1.378 . S
C113 C114 1.378 . S
C114 H99 0.940 . S
C114 C113 1.378 . S
C114 C115 1.396 . S
C115 H100 0.940 . S
C115 C110 1.391 . S
C115 C114 1.396 . S
C116 P96 1.803 . S
C116 C117 1.378 . S
C116 C121 1.400 . S
C117 H101 0.939 . S
C117 C116 1.378 . S
C117 C118 1.361 . S
C118 H102 0.942 . S
C118 C117 1.361 . S
C118 C119 1.369 . S
C119 C118 1.369 . S
C119 C120 1.404 . S
C120 H103 0.940 . S
C120 C119 1.404 . S
C120 C121 1.389 . S
C121 H104 0.939 . S
C121 C116 1.400 . S
C121 C120 1.389 . S
C122 P96 1.819 . S
C122 C123 1.391 . S
C122 C127 1.391 . S
C123 H105 0.941 . S
C123 C122 1.391 . S
C123 C124 1.396 . S
C124 H108 0.939 . S
C124 C123 1.396 . S
C124 C125 1.397 . S
C125 C124 1.397 . S
C125 C126 1.385 . S
C126 H109 0.940 1_554 S
C126 C125 1.385 . S
C126 C127 1.388 . S
C127 H106 0.939 . S
C127 C122 1.391 . S
C127 C126 1.388 . S
P128 O139 1.490 . S
P128 C142 1.812 . S
P128 C148 1.803 1_556 S
P128 C154 1.819 1_556 S
H129 C143 0.941 . S
H130 C144 0.939 . S
H131 C146 0.940 . S
H132 C147 0.940 . S
H133 C149 0.939 . S
H134 C150 0.942 . S
H135 C152 0.940 1_556 S
H136 C153 0.939 . S
H137 C155 0.941 . S
H138 C159 0.939 . S
O139 P128 1.490 . S
H140 C156 0.939 . S
H141 C158 0.940 . S
C142 P128 1.812 . S
C142 C143 1.389 . S
C142 C147 1.391 . S
C143 H129 0.941 . S
C143 C142 1.389 . S
C143 C144 1.397 . S
C144 H130 0.939 . S
C144 C143 1.397 . S
C144 C145 1.378 . S
C145 C144 1.378 . S
C145 C146 1.378 . S
C146 H131 0.940 . S
C146 C145 1.378 . S
C146 C147 1.396 . S
C147 H132 0.940 . S
C147 C142 1.391 . S
C147 C146 1.396 . S
C148 P128 1.803 1_554 S
C148 C149 1.378 . S
C148 C153 1.400 1_554 S
C149 H133 0.939 . S
C149 C148 1.378 . S
C149 C150 1.361 . S
C150 H134 0.942 . S
C150 C149 1.361 . S
C150 C151 1.369 . S
C151 C150 1.369 . S
C151 C152 1.404 . S
C152 H135 0.940 1_554 S
C152 C151 1.404 . S
C152 C153 1.389 1_554 S
C153 H136 0.939 . S
C153 C148 1.400 1_556 S
C153 C152 1.389 1_556 S
C154 P128 1.819 1_554 S
C154 C155 1.391 . S
C154 C159 1.391 . S
C155 H137 0.941 . S
C155 C154 1.391 . S
C155 C156 1.396 . S
C156 H140 0.939 . S
C156 C155 1.396 . S
C156 C157 1.397 . S
C157 C156 1.397 . S
C157 C158 1.385 . S
C158 H141 0.940 . S
C158 C157 1.385 . S
C158 C159 1.388 . S
C159 H138 0.939 . S
C159 C154 1.391 . S
C159 C158 1.388 . S
P160 O171 1.490 . S
P160 C174 1.812 . S
P160 C180 1.803 . S
P160 C186 1.819 . S
H161 C175 0.941 . S
H162 C176 0.939 . S
H163 C178 0.940 . S
H164 C179 0.943 . S
H165 C181 0.939 . S
H166 C182 0.942 . S
H167 C184 0.940 . S
H168 C185 0.958 . S
H169 C187 0.941 . S
H170 C191 0.935 1_655 S
O171 P160 1.490 . S
H172 C188 0.939 . S
H173 C190 0.940 . S
C174 P160 1.812 . S
C174 C175 1.389 1_554 S
C174 C179 1.383 1_455 S
C175 H161 0.941 . S
C175 C174 1.389 1_556 S
C175 C176 1.397 . S
C176 H162 0.939 . S
C176 C175 1.397 . S
C176 C177 1.378 . S
C177 C176 1.378 . S
C177 C178 1.378 1_455 S
C178 H163 0.940 . S
C178 C177 1.378 1_655 S
C178 C179 1.401 1_556 S
C179 H164 0.943 . S
C179 C174 1.383 1_655 S
C179 C178 1.401 1_554 S
C180 P160 1.803 . S
C180 C181 1.378 . S
C180 C185 1.377 1_455 S
C181 H165 0.939 . S
C181 C180 1.378 . S
C181 C182 1.361 . S
C182 H166 0.942 . S
C182 C181 1.361 . S
C182 C183 1.369 . S
C183 C182 1.369 . S
C183 C184 1.404 1_455 S
C184 H167 0.940 . S
C184 C183 1.404 1_655 S
C184 C185 1.395 . S
C185 H168 0.958 . S
C185 C180 1.377 1_655 S
C185 C184 1.395 . S
C186 P160 1.819 . S
C186 C187 1.391 . S
C186 C191 1.391 . S
C187 H169 0.941 . S
C187 C186 1.391 . S
C187 C188 1.396 . S
C188 H172 0.939 . S
C188 C187 1.396 . S
C188 C189 1.397 . S
C189 C188 1.397 . S
C189 C190 1.385 1_455 S
C190 H173 0.940 . S
C190 C189 1.385 1_655 S
C190 C191 1.388 1_655 S
C191 H170 0.935 1_455 S
C191 C186 1.391 . S
C191 C190 1.388 1_455 S
P192 O203 1.490 . S
P192 C206 1.812 . S
P192 C212 1.803 . S
P192 C218 1.819 . S
H193 C207 0.941 . S
H194 C208 0.939 . S
H195 C210 0.940 . S
H196 C211 0.946 . S
H197 C213 0.939 . S
H198 C214 0.942 . S
H199 C216 0.940 . S
H200 C217 0.952 . S
H201 C219 0.941 . S
H202 C223 0.929 1_565 S
O203 P192 1.490 . S
H204 C220 0.939 . S
H205 C222 0.940 . S
C206 P192 1.812 . S
C206 C207 1.389 . S
C206 C211 1.383 1_545 S
C207 H193 0.941 . S
C207 C206 1.389 . S
C207 C208 1.397 1_554 S
C208 H194 0.939 . S
C208 C207 1.397 1_556 S
C208 C209 1.378 . S
C209 C208 1.378 . S
C209 C210 1.378 1_546 S
C210 H195 0.940 . S
C210 C209 1.378 1_564 S
C210 C211 1.399 . S
C211 H196 0.946 . S
C211 C206 1.383 1_565 S
C211 C210 1.399 . S
C212 P192 1.803 . S
C212 C213 1.378 . S
C212 C217 1.375 1_545 S
C213 H197 0.939 . S
C213 C212 1.378 . S
C213 C214 1.361 . S
C214 H198 0.942 . S
C214 C213 1.361 . S
C214 C215 1.369 . S
C215 C214 1.369 . S
C215 C216 1.404 1_545 S
C216 H199 0.940 . S
C216 C215 1.404 1_565 S
C216 C217 1.402 . S
C217 H200 0.952 . S
C217 C212 1.375 1_565 S
C217 C216 1.402 . S
C218 P192 1.819 . S
C218 C219 1.391 . S
C218 C223 1.391 . S
C219 H201 0.941 . S
C219 C218 1.391 . S
C219 C220 1.396 . S
C220 H204 0.939 . S
C220 C219 1.396 . S
C220 C221 1.397 . S
C221 C220 1.397 . S
C221 C222 1.385 1_545 S
C222 H205 0.940 . S
C222 C221 1.385 1_565 S
C222 C223 1.388 1_565 S
C223 H202 0.929 1_545 S
C223 C218 1.391 . S
C223 C222 1.388 1_545 S
P224 O235 1.490 . S
P224 C238 1.812 . S
P224 C244 1.803 . S
P224 C250 1.819 . S
H225 C239 0.941 . S
H226 C240 0.939 . S
H227 C242 0.940 . S
H228 C243 0.940 . S
H229 C245 0.939 . S
H230 C246 0.942 . S
H231 C248 0.940 . S
H232 C249 0.939 . S
H233 C251 0.941 . S
H234 C255 0.939 . S
O235 P224 1.490 . S
H236 C252 0.939 . S
H237 C254 0.940 . S
C238 P224 1.812 . S
C238 C239 1.389 . S
C238 C243 1.391 . S
C239 H225 0.941 . S
C239 C238 1.389 . S
C239 C240 1.397 . S
C240 H226 0.939 . S
C240 C239 1.397 . S
C240 C241 1.378 . S
C241 C240 1.378 . S
C241 C242 1.378 . S
C242 H227 0.940 . S
C242 C241 1.378 . S
C242 C243 1.396 . S
C243 H228 0.940 . S
C243 C238 1.391 . S
C243 C242 1.396 . S
C244 P224 1.803 . S
C244 C245 1.378 . S
C244 C249 1.400 . S
C245 H229 0.939 . S
C245 C244 1.378 . S
C245 C246 1.361 . S
C246 H230 0.942 . S
C246 C245 1.361 . S
C246 C247 1.369 . S
C247 C246 1.369 . S
C247 C248 1.404 . S
C248 H231 0.940 . S
C248 C247 1.404 . S
C248 C249 1.389 . S
C249 H232 0.939 . S
C249 C244 1.400 . S
C249 C248 1.389 . S
C250 P224 1.819 . S
C250 C251 1.391 . S
C250 C255 1.391 . S
C251 H233 0.941 . S
C251 C250 1.391 . S
C251 C252 1.396 . S
C252 H236 0.939 . S
C252 C251 1.396 . S
C252 C253 1.397 . S
C253 C252 1.397 . S
C253 C254 1.385 . S
C254 H237 0.940 . S
C254 C253 1.385 . S
C254 C255 1.388 . S
C255 H234 0.939 . S
C255 C250 1.391 . S
C255 C254 1.388 . S
Dy256 O259 2.307 1_545 S
Dy256 O261 2.395 1_655 S
Dy256 O262 2.379 . S
Dy256 O264 2.339 . S
Dy256 O266 2.298 . S
Dy256 O270 2.275 1_655 S
Dy256 C278 2.738 . S
Dy257 O260 2.298 . S
Dy257 O263 2.275 1_455 S
Dy257 O265 2.307 1_565 S
Dy257 O267 2.395 1_455 S
Dy257 O268 2.379 . S
Dy257 O271 2.339 . S
Dy257 C287 2.738 . S
C258 O270 1.254 1_565 S
C258 O271 1.257 . S
O259 Dy256 2.307 1_565 S
O259 C269 1.266 . S
O260 Dy257 2.298 . S
O260 C269 1.236 1_455 S
O261 Dy256 2.395 1_455 S
O261 C278 1.255 1_455 S
O262 Dy256 2.379 . S
O262 C278 1.249 . S
O263 Dy257 2.275 1_655 S
O263 C279 1.254 1_565 S
O264 Dy256 2.339 . S
O264 C279 1.257 . S
O265 Dy257 2.307 1_545 S
O265 C280 1.266 . S
O266 Dy256 2.298 . S
O266 C280 1.236 1_655 S
O267 Dy257 2.395 1_655 S
O267 C287 1.255 1_655 S
O268 Dy257 2.379 . S
O268 C287 1.249 . S
C269 O259 1.266 . S
C269 O260 1.236 1_655 S
O270 Dy256 2.275 1_455 S
O270 C258 1.254 1_545 S
O271 Dy257 2.339 . S
O271 C258 1.257 . S
C272 C275 1.344 . S
C272 C276 1.328 . S
C272 C278 1.516 . S
C273 C274 1.304 . S
C273 C277 1.323 . S
C274 C273 1.304 . S
C274 C275 1.371 . S
C274 H288 0.930 1_655 S
C275 C272 1.344 . S
C275 C274 1.371 . S
C275 H289 0.931 1_655 S
C276 C272 1.328 . S
C276 C277 1.433 . S
C276 H290 0.931 . S
C277 C273 1.323 . S
C277 C276 1.433 . S
C277 H291 0.933 . S
C278 Dy256 2.738 . S
C278 O261 1.255 1_655 S
C278 O262 1.249 . S
C278 C272 1.516 . S
C279 O263 1.254 1_545 S
C279 O264 1.257 . S
C280 O265 1.266 . S
C280 O266 1.236 1_455 S
C281 C284 1.344 . S
C281 C285 1.328 . S
C281 C287 1.516 1_554 S
C282 C283 1.304 . S
C282 C286 1.323 . S
C283 C282 1.304 . S
C283 C284 1.371 . S
C283 H292 0.930 1_455 S
C284 C281 1.344 . S
C284 C283 1.371 . S
C284 H293 0.931 1_455 S
C285 C281 1.328 . S
C285 C286 1.433 . S
C285 H294 0.931 . S
C286 C282 1.323 . S
C286 C285 1.433 . S
C286 H295 0.933 . S
C287 Dy257 2.738 . S
C287 O267 1.255 1_455 S
C287 O268 1.249 . S
C287 C281 1.516 1_556 S
H288 C274 0.930 1_455 S
H289 C275 0.931 1_455 S
H290 C276 0.931 . S
H291 C277 0.933 . S
H292 C283 0.930 1_655 S
H293 C284 0.931 1_655 S
H294 C285 0.931 . S
H295 C286 0.933 . S
Dy296 O299 2.307 . S
Dy296 O301 2.395 1_565 S
Dy296 O302 2.379 . S
Dy296 O304 2.339 . S
Dy296 O306 2.298 . S
Dy296 O310 2.275 1_565 S
Dy296 C318 2.738 . S
Dy297 O300 2.298 . S
Dy297 O303 2.275 1_545 S
Dy297 O305 2.307 . S
Dy297 O307 2.395 1_545 S
Dy297 O308 2.379 . S
Dy297 O311 2.339 . S
Dy297 C327 2.738 . S
C298 O310 1.254 . S
C298 O311 1.257 . S
O299 Dy296 2.307 . S
O299 C309 1.266 . S
O300 Dy297 2.298 . S
O300 C309 1.236 1_545 S
O301 Dy296 2.395 1_545 S
O301 C318 1.255 1_545 S
O302 Dy296 2.379 . S
O302 C318 1.249 . S
O303 Dy297 2.275 1_565 S
O303 C319 1.254 . S
O304 Dy296 2.339 . S
O304 C319 1.257 . S
O305 Dy297 2.307 . S
O305 C320 1.266 . S
O306 Dy296 2.298 . S
O306 C320 1.236 1_565 S
O307 Dy297 2.395 1_565 S
O307 C327 1.255 1_565 S
O308 Dy297 2.379 . S
O308 C327 1.249 . S
C309 O299 1.266 . S
C309 O300 1.236 1_565 S
O310 Dy296 2.275 1_545 S
O310 C298 1.254 . S
O311 Dy297 2.339 . S
O311 C298 1.257 . S
C312 C315 1.344 . S
C312 C316 1.328 . S
C312 C318 1.516 . S
C313 C314 1.304 . S
C313 C317 1.323 . S
C314 C313 1.304 . S
C314 C315 1.371 . S
C314 H328 0.930 1_565 S
C315 C312 1.344 . S
C315 C314 1.371 . S
C315 H329 0.931 1_565 S
C316 C312 1.328 . S
C316 C317 1.433 . S
C316 H330 0.931 . S
C317 C313 1.323 . S
C317 C316 1.433 . S
C317 H331 0.933 . S
C318 Dy296 2.738 . S
C318 O301 1.255 1_565 S
C318 O302 1.249 . S
C318 C312 1.516 . S
C319 O303 1.254 . S
C319 O304 1.257 . S
C320 O305 1.266 . S
C320 O306 1.236 1_545 S
C321 C324 1.344 . S
C321 C325 1.328 . S
C321 C327 1.516 1_554 S
C322 C323 1.304 . S
C322 C326 1.323 . S
C323 C322 1.304 . S
C323 C324 1.371 . S
C323 H332 0.930 1_545 S
C324 C321 1.344 . S
C324 C323 1.371 . S
C324 H333 0.931 1_545 S
C325 C321 1.328 . S
C325 C326 1.433 . S
C325 H334 0.931 . S
C326 C322 1.323 . S
C326 C325 1.433 . S
C326 H335 0.933 . S
C327 Dy297 2.738 . S
C327 O307 1.255 1_545 S
C327 O308 1.249 . S
C327 C321 1.516 1_556 S
H328 C314 0.930 1_545 S
H329 C315 0.931 1_545 S
H330 C316 0.931 . S
H331 C317 0.933 . S
H332 C323 0.930 1_565 S
H333 C324 0.931 1_565 S
H334 C325 0.931 . S
H335 C326 0.933 . S
Dy336 O339 2.307 . S
Dy336 O341 2.395 . S
Dy336 O342 2.379 . S
Dy336 O344 2.339 . S
Dy336 O346 2.298 . S
Dy336 O350 2.275 . S
Dy336 C358 2.738 . S
Dy337 O340 2.298 . S
Dy337 O343 2.275 . S
Dy337 O345 2.307 . S
Dy337 O347 2.395 . S
Dy337 O348 2.379 . S
Dy337 O351 2.339 . S
Dy337 C367 2.738 . S
C338 O350 1.254 . S
C338 O351 1.257 . S
O339 Dy336 2.307 . S
O339 C349 1.266 . S
O340 Dy337 2.298 . S
O340 C349 1.236 . S
O341 Dy336 2.395 . S
O341 C358 1.255 . S
O342 Dy336 2.379 . S
O342 C358 1.249 . S
O343 Dy337 2.275 . S
O343 C359 1.254 . S
O344 Dy336 2.339 . S
O344 C359 1.257 . S
O345 Dy337 2.307 . S
O345 C360 1.266 . S
O346 Dy336 2.298 . S
O346 C360 1.236 . S
O347 Dy337 2.395 . S
O347 C367 1.255 . S
O348 Dy337 2.379 . S
O348 C367 1.249 . S
C349 O339 1.266 . S
C349 O340 1.236 . S
O350 Dy336 2.275 . S
O350 C338 1.254 . S
O351 Dy337 2.339 . S
O351 C338 1.257 . S
C352 C355 1.344 1_556 S
C352 C356 1.328 . S
C352 C358 1.516 . S
C353 C354 1.304 . S
C353 C357 1.323 1_554 S
C354 C353 1.304 . S
C354 C355 1.371 . S
C354 H368 0.930 . S
C355 C352 1.344 1_554 S
C355 C354 1.371 . S
C355 H369 0.931 . S
C356 C352 1.328 . S
C356 C357 1.433 . S
C356 H370 0.931 . S
C357 C353 1.323 1_556 S
C357 C356 1.433 . S
C357 H371 0.933 . S
C358 Dy336 2.738 . S
C358 O341 1.255 . S
C358 O342 1.249 . S
C358 C352 1.516 . S
C359 O343 1.254 . S
C359 O344 1.257 . S
C360 O345 1.266 . S
C360 O346 1.236 . S
C361 C364 1.344 . S
C361 C365 1.328 . S
C361 C367 1.516 . S
C362 C363 1.304 . S
C362 C366 1.323 . S
C363 C362 1.304 . S
C363 C364 1.371 . S
C363 H372 0.930 . S
C364 C361 1.344 . S
C364 C363 1.371 . S
C364 H373 0.931 . S
C365 C361 1.328 . S
C365 C366 1.433 . S
C365 H374 0.931 . S
C366 C362 1.323 . S
C366 C365 1.433 . S
C366 H375 0.933 . S
C367 Dy337 2.738 . S
C367 O347 1.255 . S
C367 O348 1.249 . S
C367 C361 1.516 . S
H368 C354 0.930 . S
H369 C355 0.931 . S
H370 C356 0.931 . S
H371 C357 0.933 . S
H372 C363 0.930 . S
H373 C364 0.931 . S
H374 C365 0.931 . S
H375 C366 0.933 . S
Dy376 O379 2.307 1_455 S
Dy376 O381 2.395 . S
Dy376 O382 2.379 . S
Dy376 O384 2.339 . S
Dy376 O386 2.298 . S
Dy376 O390 2.275 . S
Dy376 C398 2.738 . S
Dy377 O380 2.298 . S
Dy377 O383 2.275 . S
Dy377 O385 2.307 1_655 S
Dy377 O387 2.395 1_556 S
Dy377 O388 2.379 . S
Dy377 O391 2.339 . S
Dy377 C407 2.738 1_556 S
C378 O390 1.254 1_655 S
C378 O391 1.257 . S
O379 Dy376 2.307 1_655 S
O379 C389 1.266 . S
O380 Dy377 2.298 . S
O380 C389 1.236 . S
O381 Dy376 2.395 . S
O381 C398 1.255 . S
O382 Dy376 2.379 . S
O382 C398 1.249 . S
O383 Dy377 2.275 . S
O383 C399 1.254 1_655 S
O384 Dy376 2.339 . S
O384 C399 1.257 . S
O385 Dy377 2.307 1_455 S
O385 C400 1.266 . S
O386 Dy376 2.298 . S
O386 C400 1.236 . S
O387 Dy377 2.395 1_554 S
O387 C407 1.255 . S
O388 Dy377 2.379 . S
O388 C407 1.249 1_556 S
C389 O379 1.266 . S
C389 O380 1.236 . S
O390 Dy376 2.275 . S
O390 C378 1.254 1_455 S
O391 Dy377 2.339 . S
O391 C378 1.257 . S
C392 C395 1.344 . S
C392 C396 1.328 . S
C392 C398 1.516 . S
C393 C394 1.304 . S
C393 C397 1.323 . S
C394 C393 1.304 . S
C394 C395 1.371 . S
C394 H408 0.930 . S
C395 C392 1.344 . S
C395 C394 1.371 . S
C395 H409 0.931 . S
C396 C392 1.328 . S
C396 C397 1.433 . S
C396 H410 0.931 . S
C397 C393 1.323 . S
C397 C396 1.433 . S
C397 H411 0.933 . S
C398 Dy376 2.738 . S
C398 O381 1.255 . S
C398 O382 1.249 . S
C398 C392 1.516 . S
C399 O383 1.254 1_455 S
C399 O384 1.257 . S
C400 O385 1.266 . S
C400 O386 1.236 . S
C401 C404 1.344 . S
C401 C405 1.328 . S
C401 C407 1.516 . S
C402 C403 1.304 . S
C402 C406 1.323 . S
C403 C402 1.304 . S
C403 C404 1.371 . S
C403 H412 0.930 . S
C404 C401 1.344 . S
C404 C403 1.371 . S
C404 H413 0.931 . S
C405 C401 1.328 . S
C405 C406 1.433 . S
C405 H414 0.931 . S
C406 C402 1.323 . S
C406 C405 1.433 . S
C406 H415 0.933 . S
C407 Dy377 2.738 1_554 S
C407 O387 1.255 . S
C407 O388 1.249 1_554 S
C407 C401 1.516 . S
H408 C394 0.930 . S
H409 C395 0.931 . S
H410 C396 0.931 . S
H411 C397 0.933 . S
H412 C403 0.930 . S
H413 C404 0.931 . S
H414 C405 0.931 . S
H415 C406 0.933 . S
C416 C417 1.352 1_565 S
C416 C418 1.419 . S
C416 H420 0.930 . S
C417 C416 1.352 1_545 S
C417 C426 1.444 . S
C418 C416 1.419 . S
C418 C419 1.344 1_565 S
C418 H421 0.929 . S
C419 C418 1.344 1_545 S
C419 C425 1.453 . S
H420 C416 0.930 . S
H421 C418 0.929 . S
S422 N423 1.613 . S
S422 N424 1.610 . S
N423 S422 1.613 . S
N423 C426 1.350 . S
N424 S422 1.610 . S
N424 C425 1.351 . S
C425 C419 1.453 . S
C425 N424 1.351 . S
C425 C426 1.434 . S
C426 C417 1.444 . S
C426 N423 1.350 . S
C426 C425 1.434 . S
C427 C428 1.369 . S
C427 C429 1.419 . S
C427 H431 0.930 . S
C428 C427 1.369 . S
C428 C437 1.429 . S
C429 C427 1.419 . S
C429 C430 1.363 . S
C429 H432 0.929 . S
C430 C429 1.363 . S
C430 C436 1.428 . S
H431 C427 0.930 . S
H432 C429 0.929 . S
S433 N434 1.613 . S
S433 N435 1.610 . S
N434 S433 1.613 . S
N434 C437 1.350 . S
N435 S433 1.610 . S
N435 C436 1.351 . S
C436 C430 1.428 . S
C436 N435 1.351 . S
C436 C437 1.434 . S
C437 C428 1.429 . S
C437 N434 1.350 . S
C437 C436 1.434 . S
C438 C439 1.369 . S
C438 C440 1.419 . S
C438 H442 0.930 . S
C439 C438 1.369 . S
C439 C448 1.429 . S
C440 C438 1.419 . S
C440 C441 1.363 . S
C440 H443 0.929 . S
C441 C440 1.363 . S
C441 C447 1.428 . S
H442 C438 0.930 . S
H443 C440 0.929 . S
S444 N445 1.613 . S
S444 N446 1.610 . S
N445 S444 1.613 . S
N445 C448 1.350 . S
N446 S444 1.610 . S
N446 C447 1.351 . S
C447 C441 1.428 . S
C447 N446 1.351 . S
C447 C448 1.434 . S
C448 C439 1.429 . S
C448 N445 1.350 . S
C448 C447 1.434 . S
C449 C450 1.371 1_655 S
C449 C451 1.419 . S
C449 H453 0.930 . S
C450 C449 1.371 1_455 S
C450 C459 1.433 . S
C451 C449 1.419 . S
C451 C452 1.363 1_655 S
C451 H454 0.929 . S
C452 C451 1.363 1_455 S
C452 C458 1.428 . S
H453 C449 0.930 . S
H454 C451 0.929 . S
S455 N456 1.613 . S
S455 N457 1.610 . S
N456 S455 1.613 . S
N456 C459 1.350 . S
N457 S455 1.610 . S
N457 C458 1.351 . S
C458 C452 1.428 . S
C458 N457 1.351 . S
C458 C459 1.434 . S
C459 C450 1.433 . S
C459 N456 1.350 . S
C459 C458 1.434 . S
C460 C461 1.362 1_545 S
C460 C462 1.419 . S
C460 H464 0.930 . S
C461 C460 1.362 1_565 S
C461 C470 1.435 . S
C462 C460 1.419 . S
C462 C463 1.350 1_545 S
C462 H465 0.929 . S
C463 C462 1.350 1_565 S
C463 C469 1.444 . S
H464 C460 0.930 . S
H465 C462 0.929 . S
S466 N467 1.613 . S
S466 N468 1.610 . S
N467 S466 1.613 . S
N467 C470 1.350 . S
N468 S466 1.610 . S
N468 C469 1.351 . S
C469 C463 1.444 . S
C469 N468 1.351 . S
C469 C470 1.434 . S
C470 C461 1.435 . S
C470 N467 1.350 . S
C470 C469 1.434 . S
C471 C472 1.369 . S
C471 C473 1.419 1_554 S
C471 H475 0.930 . S
C472 C471 1.369 . S
C472 C481 1.429 . S
C473 C471 1.419 1_556 S
C473 C474 1.363 . S
C473 H476 0.929 . S
C474 C473 1.363 . S
C474 C480 1.428 . S
H475 C471 0.930 . S
H476 C473 0.929 . S
S477 N478 1.613 . S
S477 N479 1.610 1_554 S
N478 S477 1.613 . S
N478 C481 1.350 . S
N479 S477 1.610 1_556 S
N479 C480 1.351 . S
C480 C474 1.428 . S
C480 N479 1.351 . S
C480 C481 1.434 1_556 S
C481 C472 1.429 . S
C481 N478 1.350 . S
C481 C480 1.434 1_554 S
C482 C483 1.369 . S
C482 C484 1.419 . S
C482 H486 0.930 . S
C483 C482 1.369 . S
C483 C492 1.429 . S
C484 C482 1.419 . S
C484 C485 1.363 . S
C484 H487 0.929 . S
C485 C484 1.363 . S
C485 C491 1.428 . S
H486 C482 0.930 . S
H487 C484 0.929 . S
S488 N489 1.613 . S
S488 N490 1.610 . S
N489 S488 1.613 . S
N489 C492 1.350 . S
N490 S488 1.610 . S
N490 C491 1.351 . S
C491 C485 1.428 . S
C491 N490 1.351 . S
C491 C492 1.434 . S
C492 C483 1.429 . S
C492 N489 1.350 . S
C492 C491 1.434 . S
C493 C494 1.389 . S
C493 C495 1.419 . S
C493 H497 0.930 . S
C494 C493 1.389 . S
C494 C503 1.415 1_655 S
C495 C493 1.419 . S
C495 C496 1.363 . S
C495 H498 0.929 . S
C496 C495 1.363 . S
C496 C502 1.428 1_655 S
H497 C493 0.930 . S
H498 C495 0.929 . S
S499 N500 1.613 . S
S499 N501 1.610 . S
N500 S499 1.613 . S
N500 C503 1.350 . S
N501 S499 1.610 . S
N501 C502 1.351 . S
C502 C496 1.428 1_455 S
C502 N501 1.351 . S
C502 C503 1.434 . S
C503 C494 1.415 1_455 S
C503 N500 1.350 . S
C503 C502 1.434 . S
C504 C505 1.369 . S
C504 C506 1.419 1_455 S
C504 H508 0.930 . S
C505 C504 1.369 . S
C505 C514 1.429 1_455 S
C506 C504 1.419 1_655 S
C506 C507 1.363 . S
C506 H509 0.928 . S
C507 C506 1.363 . S
C507 C513 1.428 . S
H508 C504 0.930 . S
H509 C506 0.928 . S
S510 N511 1.613 . S
S510 N512 1.610 . S
N511 S510 1.613 . S
N511 C514 1.350 . S
N512 S510 1.610 . S
N512 C513 1.351 . S
C513 C507 1.428 . S
C513 N512 1.351 . S
C513 C514 1.434 . S
C514 C505 1.429 1_655 S
C514 N511 1.350 . S
C514 C513 1.434 . S
C515 C516 1.369 . S
C515 C517 1.419 . S
C515 H519 0.930 . S
C516 C515 1.369 . S
C516 C525 1.429 1_565 S
C517 C515 1.419 . S
C517 C518 1.363 . S
C517 H520 0.929 . S
C518 C517 1.363 . S
C518 C524 1.428 . S
H519 C515 0.930 . S
H520 C517 0.929 . S
S521 N522 1.613 . S
S521 N523 1.610 . S
N522 S521 1.613 . S
N522 C525 1.350 . S
N523 S521 1.610 . S
N523 C524 1.351 1_545 S
C524 C518 1.428 . S
C524 N523 1.351 1_565 S
C524 C525 1.434 1_565 S
C525 C516 1.429 1_545 S
C525 N522 1.350 . S
C525 C524 1.434 1_545 S
C526 C527 1.369 . S
C526 C528 1.419 . S
C526 H530 0.930 . S
C527 C526 1.369 . S
C527 C536 1.429 . S
C528 C526 1.419 . S
C528 C529 1.363 . S
C528 H531 0.929 . S
C529 C528 1.363 . S
C529 C535 1.428 . S
H530 C526 0.930 . S
H531 C528 0.929 . S
S532 N533 1.613 . S
S532 N534 1.610 . S
N533 S532 1.613 . S
N533 C536 1.350 . S
N534 S532 1.610 . S
N534 C535 1.351 . S
C535 C529 1.428 . S
C535 N534 1.351 . S
C535 C536 1.434 . S
C536 C527 1.429 . S
C536 N533 1.350 . S
C536 C535 1.434 . S
C537 C538 1.369 . S
C537 C539 1.419 . S
C537 H541 0.930 . S
C538 C537 1.369 . S
C538 C547 1.429 . S
C539 C537 1.419 . S
C539 C540 1.363 . S
C539 H542 0.929 . S
C540 C539 1.363 . S
C540 C546 1.428 . S
H541 C537 0.930 . S
H542 C539 0.929 . S
S543 N544 1.613 . S
S543 N545 1.610 . S
N544 S543 1.613 . S
N544 C547 1.350 . S
N545 S543 1.610 . S
N545 C546 1.351 . S
C546 C540 1.428 . S
C546 N545 1.351 . S
C546 C547 1.434 . S
C547 C538 1.429 . S
C547 N544 1.350 . S
C547 C546 1.434 . S
C548 C549 1.369 1_455 S
C548 C550 1.419 . S
C548 H552 0.930 . S
C549 C548 1.369 1_655 S
C549 C558 1.429 . S
C550 C548 1.419 . S
C550 C551 1.363 . S
C550 H553 0.929 . S
C551 C550 1.363 . S
C551 C557 1.428 . S
H552 C548 0.930 . S
H553 C550 0.929 . S
S554 N555 1.613 . S
S554 N556 1.610 . S
N555 S554 1.613 . S
N555 C558 1.350 . S
N556 S554 1.610 . S
N556 C557 1.351 1_655 S
C557 C551 1.428 . S
C557 N556 1.351 1_455 S
C557 C558 1.434 1_455 S
C558 C549 1.429 . S
C558 N555 1.350 . S
C558 C557 1.434 1_655 S
C559 C560 1.369 . S
C559 C561 1.419 . S
C559 H563 0.930 1_545 S
C560 C559 1.369 . S
C560 C569 1.429 . S
C561 C559 1.419 . S
C561 C562 1.363 . S
C561 H564 0.929 . S
C562 C561 1.363 . S
C562 C568 1.428 . S
H563 C559 0.930 1_565 S
H564 C561 0.929 . S
S565 N566 1.613 1_556 S
S565 N567 1.612 . S
N566 S565 1.613 1_554 S
N566 C569 1.350 . S
N567 S565 1.612 . S
N567 C568 1.344 1_556 S
C568 C562 1.428 . S
C568 N567 1.344 1_554 S
C568 C569 1.434 . S
C569 C560 1.429 . S
C569 N566 1.350 . S
C569 C568 1.434 . S
C570 C571 1.369 . S
C570 C572 1.419 . S
C570 H574 0.930 . S
C571 C570 1.369 . S
C571 C580 1.429 1_556 S
C572 C570 1.419 . S
C572 C573 1.363 . S
C572 H575 0.929 . S
C573 C572 1.363 . S
C573 C579 1.428 1_556 S
H574 C570 0.930 . S
H575 C572 0.929 . S
S576 N577 1.613 . S
S576 N578 1.610 . S
N577 S576 1.613 . S
N577 C580 1.350 . S
N578 S576 1.610 . S
N578 C579 1.351 . S
C579 C573 1.428 1_554 S
C579 N578 1.351 . S
C579 C580 1.434 . S
C580 C571 1.429 1_554 S
C580 N577 1.350 . S
C580 C579 1.434 . S
C581 C582 1.369 . S
C581 C583 1.419 . S
C581 H585 0.930 . S
C582 C581 1.369 . S
C582 C591 1.429 . S
C583 C581 1.419 . S
C583 C584 1.363 . S
C583 H586 0.929 . S
C584 C583 1.363 . S
C584 C590 1.428 . S
H585 C581 0.930 . S
H586 C583 0.929 . S
S587 N588 1.613 . S
S587 N589 1.610 . S
N588 S587 1.613 . S
N588 C591 1.350 . S
N589 S587 1.610 . S
N589 C590 1.351 . S
C590 C584 1.428 . S
C590 N589 1.351 . S
C590 C591 1.434 . S
C591 C582 1.429 . S
C591 N588 1.350 . S
C591 C590 1.434 . S
C592 C593 1.369 1_655 S
C592 C594 1.419 . S
C592 H596 0.930 . S
C593 C592 1.369 1_455 S
C593 C602 1.429 . S
C594 C592 1.419 . S
C594 C595 1.363 1_655 S
C594 H597 0.929 . S
C595 C594 1.363 1_455 S
C595 C601 1.428 . S
H596 C592 0.930 . S
H597 C594 0.929 . S
S598 N599 1.613 . S
S598 N600 1.610 . S
N599 S598 1.613 . S
N599 C602 1.350 . S
N600 S598 1.610 . S
N600 C601 1.351 . S
C601 C595 1.428 . S
C601 N600 1.351 . S
C601 C602 1.434 . S
C602 C593 1.429 . S
C602 N599 1.350 . S
C602 C601 1.434 . S
C603 C604 1.369 . S
C603 C605 1.419 . S
C603 H607 0.930 1_556 S
C604 C603 1.369 . S
C604 C613 1.429 1_545 S
C605 C603 1.419 . S
C605 C606 1.363 . S
C605 H608 0.929 1_556 S
C606 C605 1.363 . S
C606 C612 1.428 1_545 S
H607 C603 0.930 1_554 S
H608 C605 0.929 1_554 S
S609 N610 1.613 . S
S609 N611 1.610 . S
N610 S609 1.613 . S
N610 C613 1.350 . S
N611 S609 1.610 . S
N611 C612 1.351 . S
C612 C606 1.428 1_565 S
C612 N611 1.351 . S
C612 C613 1.434 . S
C613 C604 1.429 1_565 S
C613 N610 1.350 . S
C613 C612 1.434 . S
C614 C615 1.369 . S
C614 C616 1.419 . S
C614 H618 0.930 . S
C615 C614 1.369 . S
C615 C624 1.429 . S
C616 C614 1.419 . S
C616 C617 1.363 . S
C616 H619 0.929 . S
C617 C616 1.363 . S
C617 C623 1.428 . S
H618 C614 0.930 . S
H619 C616 0.929 . S
S620 N621 1.613 . S
S620 N622 1.610 . S
N621 S620 1.613 . S
N621 C624 1.350 . S
N622 S620 1.610 . S
N622 C623 1.351 . S
C623 C617 1.428 . S
C623 N622 1.351 . S
C623 C624 1.434 . S
C624 C615 1.429 . S
C624 N621 1.350 . S
C624 C623 1.434 . S
C625 C626 1.369 . S
C625 C627 1.419 . S
C625 H629 0.930 . S
C626 C625 1.369 . S
C626 C635 1.429 . S
C627 C625 1.419 . S
C627 C628 1.363 . S
C627 H630 0.929 . S
C628 C627 1.363 . S
C628 C634 1.428 . S
H629 C625 0.930 . S
H630 C627 0.929 . S
S631 N632 1.613 . S
S631 N633 1.610 . S
N632 S631 1.613 . S
N632 C635 1.350 . S
N633 S631 1.610 . S
N633 C634 1.351 . S
C634 C628 1.428 . S
C634 N633 1.351 . S
C634 C635 1.434 . S
C635 C626 1.429 . S
C635 N632 1.350 . S
C635 C634 1.434 . S
C636 C637 1.369 . S
C636 C638 1.419 . S
C636 H640 0.930 . S
C637 C636 1.369 . S
C637 C646 1.429 . S
C638 C636 1.419 . S
C638 C639 1.363 . S
C638 H641 0.929 . S
C639 C638 1.363 . S
C639 C645 1.428 . S
H640 C636 0.930 . S
H641 C638 0.929 . S
S642 N643 1.612 . S
S642 N644 1.610 1_455 S
N643 S642 1.612 . S
N643 C646 1.354 1_455 S
N644 S642 1.610 1_655 S
N644 C645 1.351 . S
C645 C639 1.428 . S
C645 N644 1.351 . S
C645 C646 1.434 . S
C646 C637 1.429 . S
C646 N643 1.354 1_655 S
C646 C645 1.434 . S
C647 C648 1.369 1_545 S
C647 C649 1.419 . S
C647 H651 0.930 . S
C648 C647 1.369 1_565 S
C648 C657 1.429 . S
C649 C647 1.419 . S
C649 C650 1.363 1_545 S
C649 H652 0.929 . S
C650 C649 1.363 1_565 S
C650 C656 1.428 . S
H651 C647 0.930 . S
H652 C649 0.929 . S
S653 N654 1.613 . S
S653 N655 1.610 . S
N654 S653 1.613 . S
N654 C657 1.350 . S
N655 S653 1.610 . S
N655 C656 1.351 . S
C656 C650 1.428 . S
C656 N655 1.351 . S
C656 C657 1.434 . S
C657 C648 1.429 . S
C657 N654 1.350 . S
C657 C656 1.434 . S
C658 C659 1.369 . S
C658 C660 1.419 . S
C658 H662 0.930 . S
C659 C658 1.369 . S
C659 C668 1.429 . S
C660 C658 1.419 . S
C660 C661 1.363 . S
C660 H663 0.929 . S
C661 C660 1.363 . S
C661 C667 1.428 . S
H662 C658 0.930 . S
H663 C660 0.929 . S
S664 N665 1.613 . S
S664 N666 1.610 . S
N665 S664 1.613 . S
N665 C668 1.350 . S
N666 S664 1.610 . S
N666 C667 1.351 . S
C667 C661 1.428 . S
C667 N666 1.351 . S
C667 C668 1.434 . S
C668 C659 1.429 . S
C668 N665 1.350 . S
C668 C667 1.434 . S
C669 C670 1.369 . S
C669 C671 1.419 . S
C669 H673 0.930 1_556 S
C670 C669 1.369 . S
C670 C679 1.429 . S
C671 C669 1.419 . S
C671 C672 1.363 . S
C671 H674 0.929 . S
C672 C671 1.363 . S
C672 C678 1.428 . S
H673 C669 0.930 1_554 S
H674 C671 0.929 . S
S675 N676 1.613 . S
S675 N677 1.610 . S
N676 S675 1.613 . S
N676 C679 1.350 . S
N677 S675 1.610 . S
N677 C678 1.351 . S
C678 C672 1.428 . S
C678 N677 1.351 . S
C678 C679 1.434 . S
C679 C670 1.429 . S
C679 N676 1.350 . S
C679 C678 1.434 . S
C417 C215 2.198 . S
C419 C258 2.333 1_545 S
C430 C298 2.167 . S
C428 C247 2.107 . S
C441 C362 2.576 . S
C439 C151 2.531 . S
C452 C378 2.455 1_455 S
C450 C183 2.142 . S
C463 C279 2.336 1_564 S
C461 C87 2.201 1_565 S
C472 C119 2.024 . S
C474 C319 2.171 . S
C483 C23 2.424 . S
C485 C353 2.575 . S
C494 C55 2.141 1_655 S
C496 C399 2.452 1_654 S
C507 C273 0.671 . S
C505 C189 0.589 . S
C518 C313 0.851 . S
C516 C221 0.877 1_565 S
C529 C349 0.862 . S
C527 C253 0.924 . S
C538 C157 1.173 . S
C540 C393 0.983 . S
C549 C61 0.702 1_655 S
C551 C282 0.650 . S
C562 C322 0.853 . S
C560 C93 0.830 . S
C573 C360 0.871 . S
C571 C125 0.835 1_556 S
C582 C29 0.929 . S
C584 C402 0.977 . S
C593 C177 2.515 . S
C595 C280 2.891 . S
C604 C209 2.464 . S
C606 C320 2.789 . S
C617 C338 2.019 1_554 S
C615 C241 2.005 . S
C628 C400 3.318 . S
C626 C145 2.923 . S
C637 C49 2.535 1_655 S
C639 C269 2.899 . S
C650 C309 2.792 . S
C648 C81 2.487 1_565 S
C661 C359 2.019 . S
C659 C113 1.940 . S
C670 C17 2.874 . S
C672 C389 3.325 . S
