# Generated by pormake.
# Topology apo, (3,6)-cn, num edge types: 1
# Building blocks:
#     Node 0, Type 0, BuildingBlock: VETTIZ_charged_linker_0, # of connection points: 3
#     Node 1, Type 0, BuildingBlock: VETTIZ_charged_linker_0, # of connection points: 3
#     Node 2, Type 0, BuildingBlock: VETTIZ_charged_linker_0, # of connection points: 3
#     Node 3, Type 0, BuildingBlock: VETTIZ_charged_linker_0, # of connection points: 3
#     Node 4, Type 0, BuildingBlock: VETTIZ_charged_linker_0, # of connection points: 3
#     Node 5, Type 0, BuildingBlock: VETTIZ_charged_linker_0, # of connection points: 3
#     Node 6, Type 0, BuildingBlock: VETTIZ_charged_linker_0, # of connection points: 3
#     Node 7, Type 0, BuildingBlock: VETTIZ_charged_linker_0, # of connection points: 3
#     Node 8, Type 1, BuildingBlock: MIDCAF_clean_sbu_0, # of connection points: 6
#     Node 9, Type 1, BuildingBlock: MIDCAF_clean_sbu_0, # of connection points: 6
#     Node 10, Type 1, BuildingBlock: MIDCAF_clean_sbu_0, # of connection points: 6
#     Node 11, Type 1, BuildingBlock: MIDCAF_clean_sbu_0, # of connection points: 6
#     Edge 12, Type (0, 1), BuildingBlock: EZIPEK_clean_linker_0, # of connection points: 2
#     Edge 13, Type (0, 1), BuildingBlock: EZIPEK_clean_linker_0, # of connection points: 2
#     Edge 14, Type (0, 1), BuildingBlock: EZIPEK_clean_linker_0, # of connection points: 2
#     Edge 15, Type (0, 1), BuildingBlock: EZIPEK_clean_linker_0, # of connection points: 2
#     Edge 16, Type (0, 1), BuildingBlock: EZIPEK_clean_linker_0, # of connection points: 2
#     Edge 17, Type (0, 1), BuildingBlock: EZIPEK_clean_linker_0, # of connection points: 2
#     Edge 18, Type (0, 1), BuildingBlock: EZIPEK_clean_linker_0, # of connection points: 2
#     Edge 19, Type (0, 1), BuildingBlock: EZIPEK_clean_linker_0, # of connection points: 2
#     Edge 20, Type (0, 1), BuildingBlock: EZIPEK_clean_linker_0, # of connection points: 2
#     Edge 21, Type (0, 1), BuildingBlock: EZIPEK_clean_linker_0, # of connection points: 2
#     Edge 22, Type (0, 1), BuildingBlock: EZIPEK_clean_linker_0, # of connection points: 2
#     Edge 23, Type (0, 1), BuildingBlock: EZIPEK_clean_linker_0, # of connection points: 2
#     Edge 24, Type (0, 1), BuildingBlock: EZIPEK_clean_linker_0, # of connection points: 2
#     Edge 25, Type (0, 1), BuildingBlock: EZIPEK_clean_linker_0, # of connection points: 2
#     Edge 26, Type (0, 1), BuildingBlock: EZIPEK_clean_linker_0, # of connection points: 2
#     Edge 27, Type (0, 1), BuildingBlock: EZIPEK_clean_linker_0, # of connection points: 2
#     Edge 28, Type (0, 1), BuildingBlock: EZIPEK_clean_linker_0, # of connection points: 2
#     Edge 29, Type (0, 1), BuildingBlock: EZIPEK_clean_linker_0, # of connection points: 2
#     Edge 30, Type (0, 1), BuildingBlock: EZIPEK_clean_linker_0, # of connection points: 2
#     Edge 31, Type (0, 1), BuildingBlock: EZIPEK_clean_linker_0, # of connection points: 2
#     Edge 32, Type (0, 1), BuildingBlock: EZIPEK_clean_linker_0, # of connection points: 2
#     Edge 33, Type (0, 1), BuildingBlock: EZIPEK_clean_linker_0, # of connection points: 2
#     Edge 34, Type (0, 1), BuildingBlock: EZIPEK_clean_linker_0, # of connection points: 2
#     Edge 35, Type (0, 1), BuildingBlock: EZIPEK_clean_linker_0, # of connection points: 2
# Relax obj value: 0.090
# Max RMSD: 0.101
# Mean RMSD: 0.093
data_MOF--net-apo--node1-MIDCAF_clean_sbu_0--node2-VETTIZ_charged_linker_0--edge1-EZIPEK_clean_linker_0
_symmetry_space_group_name_H-M    P1
_symmetry_Int_Tables_number       1
_symmetry_cell_setting            triclinic
loop_
_symmetry_equiv_pos_as_xyz
'x, y, z'
_cell_length_a     32.926184
_cell_length_b     39.383522
_cell_length_c     35.069583
_cell_angle_alpha  90.109601
_cell_angle_beta   89.98058
_cell_angle_gamma 90.230945
loop_
_atom_site_label
_atom_site_type_symbol
_atom_site_fract_x
_atom_site_fract_y
_atom_site_fract_z
_atom_type_partial_charge
C0 C 0.34933 0.2964 0.52173 0.0
C1 C 0.37795 0.31398 0.54422 0.0
C2 C 0.40188 0.33957 0.52743 0.0
C3 C 0.3687 0.33043 0.46666 0.0
C4 C 0.34547 0.3049 0.48291 0.0
C5 C 0.31732 0.28866 0.45417 0.0
H6 H 0.24145 0.28551 0.27348 0.0
C7 C 0.35715 0.33356 0.42609 0.0
C8 C 0.32728 0.3089 0.41835 0.0
H9 H 0.20754 0.22143 0.36798 0.0
H10 H 0.25797 0.2488 0.40811 0.0
H11 H 0.24189 0.3505 0.3176 0.0
H12 H 0.34093 0.28479 0.2892 0.0
H13 H 0.35701 0.32684 0.28084 0.0
H14 H 0.31378 0.31019 0.25531 0.0
H15 H 0.26794 0.35407 0.27293 0.0
H16 H 0.28411 0.37755 0.31457 0.0
C17 C 0.27311 0.29449 0.4676 0.0
C18 C 0.32912 0.25083 0.45003 0.0
C19 C 0.41287 0.43134 0.34708 0.0
C20 C 0.40178 0.44389 0.31107 0.0
C21 C 0.37644 0.4243 0.28736 0.0
C22 C 0.36068 0.39327 0.30004 0.0
C23 C 0.36945 0.38217 0.33723 0.0
C24 C 0.39575 0.40078 0.35986 0.0
C25 C 0.39903 0.38641 0.39951 0.0
C26 C 0.36971 0.35655 0.39712 0.0
C27 C 0.35276 0.35419 0.36052 0.0
C28 C 0.38432 0.41387 0.42807 0.0
C29 C 0.44338 0.37464 0.40567 0.0
C30 C 0.24536 0.27729 0.30271 0.0
C31 C 0.22073 0.2516 0.31789 0.0
C32 C 0.2263 0.24142 0.35601 0.0
C33 C 0.25544 0.25736 0.37919 0.0
C34 C 0.27915 0.28386 0.36405 0.0
C35 C 0.27402 0.29319 0.3263 0.0
C36 C 0.30045 0.32268 0.31537 0.0
C37 C 0.32295 0.32913 0.35244 0.0
C38 C 0.31036 0.30647 0.38104 0.0
C39 C 0.27246 0.35279 0.30427 0.0
C40 C 0.32953 0.31083 0.28331 0.0
H41 H 0.41671 0.36759 0.47794 0.0
H42 H 0.33072 0.27651 0.53405 0.0
H43 H 0.36263 0.24767 0.45182 0.0
H44 H 0.32058 0.23999 0.42209 0.0
H45 H 0.31521 0.23527 0.47301 0.0
H46 H 0.26954 0.32055 0.47944 0.0
H47 H 0.26453 0.27618 0.49029 0.0
H48 H 0.25078 0.29272 0.44424 0.0
H49 H 0.43174 0.44642 0.36598 0.0
H50 H 0.36743 0.43381 0.25967 0.0
H51 H 0.34085 0.37989 0.28095 0.0
H52 H 0.35828 0.42827 0.41609 0.0
H53 H 0.4089 0.43239 0.43455 0.0
H54 H 0.37279 0.40325 0.45507 0.0
H55 H 0.45692 0.3652 0.37859 0.0
H56 H 0.44568 0.35301 0.42558 0.0
H57 H 0.46278 0.39584 0.41613 0.0
H58 H 0.42412 0.35325 0.54436 0.0
C59 C 0.39754 0.34781 0.48888 0.0
C60 C 0.25874 0.2167 0.80375 0.0
C61 C 0.28261 0.24246 0.81993 0.0
C62 C 0.27621 0.25193 0.8582 0.0
C63 C 0.22388 0.2088 0.86435 0.0
C64 C 0.22983 0.20015 0.82647 0.0
C65 C 0.20371 0.17081 0.81428 0.0
H66 H 0.07188 0.0458 0.85923 0.0
C67 C 0.19259 0.18569 0.88024 0.0
C68 C 0.18064 0.16351 0.85084 0.0
H69 H 0.13646 0.06147 0.7536 0.0
H70 H 0.16351 0.11451 0.77736 0.0
H71 H 0.14495 0.06262 0.91063 0.0
H72 H 0.0468 0.12686 0.87474 0.0
H73 H 0.05721 0.13715 0.92251 0.0
H74 H 0.04037 0.09475 0.91048 0.0
H75 H 0.09425 0.05818 0.92882 0.0
H76 H 0.13034 0.08686 0.95033 0.0
C77 C 0.23201 0.14104 0.80268 0.0
C78 C 0.17509 0.18325 0.7822 0.0
C79 C 0.15132 0.19312 0.02057 0.0
C80 C 0.12277 0.17483 0.04234 0.0
C81 C 0.09965 0.1491 0.02474 0.0
C82 C 0.10466 0.14148 0.98604 0.0
C83 C 0.13336 0.15965 0.96451 0.0
C84 C 0.15589 0.18522 0.98162 0.0
C85 C 0.18423 0.2022 0.95365 0.0
C86 C 0.17515 0.18242 0.91725 0.0
C87 C 0.14552 0.15735 0.92397 0.0
C88 C 0.22831 0.19664 0.96756 0.0
C89 C 0.17188 0.23996 0.95023 0.0
C90 C 0.09091 0.06137 0.84103 0.0
C91 C 0.10187 0.04997 0.80445 0.0
C92 C 0.12746 0.07015 0.78169 0.0
C93 C 0.14346 0.10067 0.79579 0.0
C94 C 0.13455 0.11069 0.83339 0.0
C95 C 0.10807 0.0915 0.85514 0.0
C96 C 0.10435 0.10489 0.89525 0.0
C97 C 0.13355 0.13488 0.89416 0.0
C98 C 0.15094 0.13812 0.85781 0.0
C99 C 0.11889 0.07681 0.92298 0.0
C100 C 0.05989 0.11636 0.90147 0.0
H101 H 0.2437 0.24335 0.9096 0.0
H102 H 0.26327 0.20904 0.77437 0.0
H103 H 0.16391 0.20931 0.78844 0.0
H104 H 0.14743 0.16752 0.77923 0.0
H105 H 0.19113 0.18408 0.75434 0.0
H106 H 0.26195 0.14273 0.8173 0.0
H107 H 0.23792 0.14097 0.7715 0.0
H108 H 0.21986 0.11595 0.81119 0.0
H109 H 0.16935 0.21309 0.03352 0.0
H110 H 0.07751 0.13485 0.04113 0.0
H111 H 0.0861 0.12156 0.97445 0.0
H112 H 0.23204 0.17053 0.97908 0.0
H113 H 0.23634 0.21485 0.99061 0.0
H114 H 0.25096 0.19876 0.9445 0.0
H115 H 0.13829 0.24271 0.95165 0.0
H116 H 0.18067 0.25131 0.92267 0.0
H117 H 0.18517 0.25532 0.97375 0.0
H118 H 0.29438 0.27195 0.87093 0.0
C119 C 0.24692 0.23528 0.88052 0.0
C120 C 0.84672 0.19493 0.49009 0.0
C121 C 0.87477 0.17708 0.46741 0.0
C122 C 0.89779 0.15093 0.48392 0.0
C123 C 0.86506 0.16026 0.54486 0.0
C124 C 0.84261 0.18623 0.52886 0.0
C125 C 0.81509 0.20278 0.55781 0.0
H126 H 0.74105 0.20681 0.73925 0.0
C127 C 0.85363 0.15719 0.58549 0.0
C128 C 0.82457 0.18227 0.59349 0.0
H129 H 0.70779 0.27132 0.64515 0.0
H130 H 0.75695 0.24328 0.60442 0.0
H131 H 0.73895 0.14183 0.69489 0.0
H132 H 0.84003 0.20622 0.72262 0.0
H133 H 0.85525 0.16401 0.73054 0.0
H134 H 0.81273 0.18092 0.75668 0.0
H135 H 0.76513 0.13801 0.73944 0.0
H136 H 0.78037 0.1142 0.69778 0.0
C137 C 0.77066 0.19767 0.54456 0.0
C138 C 0.82807 0.24041 0.56207 0.0
C139 C 0.90823 0.0593 0.66461 0.0
C140 C 0.89755 0.04713 0.70094 0.0
C141 C 0.87244 0.06683 0.72458 0.0
C142 C 0.85678 0.09771 0.71169 0.0
C143 C 0.86542 0.10856 0.67437 0.0
C144 C 0.89126 0.08975 0.65166 0.0
C145 C 0.89451 0.10397 0.61192 0.0
C146 C 0.8658 0.13405 0.61439 0.0
C147 C 0.84917 0.13661 0.65109 0.0
C148 C 0.87905 0.07653 0.58358 0.0
C149 C 0.93904 0.11539 0.60538 0.0
C150 C 0.74485 0.215 0.70999 0.0
C151 C 0.72077 0.241 0.6951 0.0
C152 C 0.72614 0.2511 0.6569 0.0
C153 C 0.75454 0.23477 0.63338 0.0
C154 C 0.77766 0.20796 0.64825 0.0
C155 C 0.7727 0.1987 0.68606 0.0
C156 C 0.79832 0.16883 0.69672 0.0
C157 C 0.8202 0.16207 0.65942 0.0
C158 C 0.80801 0.18491 0.63094 0.0
C159 C 0.76952 0.13914 0.70806 0.0
C160 C 0.8281 0.18027 0.72849 0.0
H161 H 0.9117 0.12231 0.53314 0.0
H162 H 0.82879 0.21523 0.478 0.0
H163 H 0.86169 0.24303 0.56045 0.0
H164 H 0.81968 0.25136 0.58996 0.0
H165 H 0.81481 0.2562 0.53904 0.0
H166 H 0.76622 0.17173 0.53259 0.0
H167 H 0.76254 0.21621 0.52201 0.0
H168 H 0.7485 0.19968 0.56804 0.0
H169 H 0.92692 0.04413 0.64575 0.0
H170 H 0.8637 0.05759 0.7525 0.0
H171 H 0.83725 0.11122 0.73083 0.0
H172 H 0.85292 0.06224 0.59586 0.0
H173 H 0.90326 0.05789 0.57687 0.0
H174 H 0.86737 0.08718 0.55668 0.0
H175 H 0.95283 0.1251 0.63226 0.0
H176 H 0.94167 0.13673 0.5851 0.0
H177 H 0.95802 0.09394 0.5952 0.0
H178 H 0.91956 0.13701 0.46684 0.0
C179 C 0.8932 0.14249 0.52241 0.0
C180 C 0.75911 0.27994 0.20801 0.0
C181 C 0.78258 0.25405 0.19185 0.0
C182 C 0.77626 0.24476 0.1535 0.0
C183 C 0.72481 0.28826 0.14728 0.0
C184 C 0.7307 0.29677 0.18521 0.0
C185 C 0.7051 0.32627 0.19737 0.0
H186 H 0.57419 0.45123 0.15267 0.0
C187 C 0.69401 0.31158 0.13135 0.0
C188 C 0.68233 0.33377 0.16076 0.0
H189 H 0.63911 0.43586 0.25806 0.0
H190 H 0.66606 0.38301 0.23414 0.0
H191 H 0.64743 0.43495 0.10118 0.0
H192 H 0.54902 0.3702 0.13686 0.0
H193 H 0.55929 0.36024 0.08898 0.0
H194 H 0.54271 0.40252 0.10139 0.0
H195 H 0.59682 0.43913 0.08284 0.0
H196 H 0.63295 0.41064 0.06144 0.0
C197 C 0.73392 0.35585 0.20909 0.0
C198 C 0.67613 0.31399 0.22936 0.0
C199 C 0.65297 0.30445 0.99096 0.0
C200 C 0.62464 0.32276 0.9692 0.0
C201 C 0.60177 0.3485 0.98683 0.0
C202 C 0.60683 0.35608 0.02553 0.0
C203 C 0.63529 0.33785 0.04706 0.0
C204 C 0.65756 0.31228 0.02992 0.0
C205 C 0.68559 0.29518 0.0579 0.0
C206 C 0.6767 0.31494 0.09432 0.0
C207 C 0.6474 0.34009 0.0876 0.0
C208 C 0.72979 0.30063 0.04408 0.0
C209 C 0.67271 0.25745 0.06122 0.0
C210 C 0.59331 0.43578 0.17077 0.0
C211 C 0.60431 0.44718 0.20737 0.0
C212 C 0.63005 0.42718 0.22998 0.0
C213 C 0.64599 0.39677 0.21579 0.0
C214 C 0.63688 0.38669 0.17823 0.0
C215 C 0.61044 0.40579 0.15656 0.0
C216 C 0.60665 0.39247 0.11642 0.0
C217 C 0.63566 0.36254 0.11744 0.0
C218 C 0.65302 0.35928 0.15377 0.0
C219 C 0.62139 0.42063 0.08875 0.0
C220 C 0.56212 0.3809 0.11019 0.0
H221 H 0.74427 0.25374 0.10198 0.0
H222 H 0.7636 0.28746 0.23745 0.0
H223 H 0.66424 0.28812 0.22289 0.0
H224 H 0.64892 0.33007 0.23248 0.0
H225 H 0.69213 0.31279 0.2572 0.0
H226 H 0.76397 0.35388 0.19473 0.0
H227 H 0.73952 0.35596 0.24032 0.0
H228 H 0.72236 0.381 0.20039 0.0
H229 H 0.67081 0.28447 0.97799 0.0
H230 H 0.57979 0.36278 0.97044 0.0
H231 H 0.58845 0.376 0.03714 0.0
H232 H 0.73393 0.32677 0.03269 0.0
H233 H 0.73759 0.28248 0.02095 0.0
H234 H 0.75236 0.29832 0.06715 0.0
H235 H 0.63909 0.25478 0.0596 0.0
H236 H 0.68113 0.24607 0.08884 0.0
H237 H 0.68597 0.24206 0.03778 0.0
H238 H 0.79412 0.22465 0.14079 0.0
C239 C 0.74745 0.26169 0.13111 0.0
C240 C 0.60657 0.57111 0.67976 0.0
C241 C 0.56878 0.5587 0.66688 0.0
C242 C 0.54565 0.57884 0.64177 0.0
C243 C 0.60208 0.61784 0.63538 0.0
C244 C 0.62174 0.60152 0.66474 0.0
C245 C 0.65889 0.62079 0.67765 0.0
H246 H 0.79573 0.74595 0.64355 0.0
C247 C 0.62851 0.64543 0.62182 0.0
C248 C 0.66095 0.64846 0.64745 0.0
H249 H 0.78217 0.68597 0.74568 0.0
H250 H 0.72508 0.65595 0.7174 0.0
H251 H 0.78199 0.68365 0.58658 0.0
H252 H 0.69916 0.76018 0.62679 0.0
H253 H 0.69515 0.7561 0.57664 0.0
H254 H 0.74271 0.76893 0.59743 0.0
H255 H 0.78035 0.72503 0.56545 0.0
H256 H 0.74745 0.69106 0.54949 0.0
C257 C 0.69611 0.59703 0.67572 0.0
C258 C 0.65054 0.63536 0.71809 0.0
C259 C 0.61399 0.68224 0.48444 0.0
C260 C 0.6388 0.70131 0.46003 0.0
C261 C 0.67272 0.71865 0.47497 0.0
C262 C 0.68237 0.71604 0.51396 0.0
C263 C 0.65808 0.69558 0.53785 0.0
C264 C 0.62427 0.67939 0.52294 0.0
C265 C 0.60243 0.65788 0.55184 0.0
C266 C 0.62976 0.66267 0.58635 0.0
C267 C 0.66214 0.68486 0.57813 0.0
C268 C 0.60221 0.62073 0.53728 0.0
C269 C 0.55934 0.67258 0.55844 0.0
C270 C 0.78008 0.72647 0.65972 0.0
C271 C 0.79273 0.71826 0.69681 0.0
C272 C 0.77239 0.69261 0.71717 0.0
C273 C 0.73928 0.67549 0.70084 0.0
C274 C 0.72652 0.68421 0.6639 0.0
C275 C 0.74688 0.7092 0.64384 0.0
C276 C 0.72923 0.71449 0.60464 0.0
C277 C 0.69294 0.69058 0.60586 0.0
C278 C 0.69213 0.67252 0.64035 0.0
C279 C 0.76127 0.70326 0.57479 0.0
C280 C 0.71595 0.75194 0.60085 0.0
H281 H 0.54464 0.6217 0.60496 0.0
H282 H 0.62413 0.55718 0.70057 0.0
H283 H 0.61781 0.63403 0.72592 0.0
H284 H 0.65853 0.66269 0.72014 0.0
H285 H 0.66749 0.62121 0.74031 0.0
H286 H 0.6975 0.58409 0.64753 0.0
H287 H 0.69436 0.57722 0.69817 0.0
H288 H 0.72512 0.61082 0.67928 0.0
H289 H 0.58761 0.66899 0.47335 0.0
H290 H 0.692 0.73358 0.45636 0.0
H291 H 0.70868 0.72956 0.52393 0.0
H292 H 0.63372 0.612 0.53155 0.0
H293 H 0.58456 0.6184 0.51042 0.0
H294 H 0.58854 0.60277 0.55761 0.0
H295 H 0.5563 0.69875 0.54691 0.0
H296 H 0.55208 0.67491 0.58923 0.0
H297 H 0.53568 0.65668 0.54446 0.0
H298 H 0.51567 0.57061 0.63289 0.0
C299 C 0.56246 0.60812 0.62542 0.0
C300 C 0.74092 0.78283 0.20381 0.0
C301 C 0.71274 0.76026 0.18768 0.0
C302 C 0.71593 0.75147 0.14889 0.0
C303 C 0.77412 0.78879 0.14218 0.0
C304 C 0.77135 0.79671 0.18058 0.0
C305 C 0.8032 0.82185 0.19282 0.0
H306 H 0.94144 0.93974 0.14308 0.0
C307 C 0.80794 0.80875 0.12573 0.0
C308 C 0.82531 0.82795 0.15543 0.0
H309 H 0.89708 0.91652 0.25585 0.0
H310 H 0.86169 0.86695 0.23127 0.0
H311 H 0.96297 0.86231 0.12173 0.0
H312 H 0.86133 0.92661 0.09776 0.0
H313 H 0.8744 0.90537 0.0553 0.0
H314 H 0.91122 0.93242 0.07803 0.0
H315 H 0.96322 0.89059 0.08179 0.0
H316 H 0.9439 0.84769 0.07791 0.0
C317 C 0.8309 0.80475 0.22287 0.0
C318 C 0.78116 0.85411 0.20726 0.0
C319 C 0.83811 0.80386 0.98284 0.0
C320 C 0.86761 0.82032 0.96039 0.0
C321 C 0.89453 0.84353 0.97758 0.0
C322 C 0.89257 0.85028 0.01663 0.0
C323 C 0.86322 0.83373 0.03895 0.0
C324 C 0.8367 0.81081 0.0222 0.0
C325 C 0.80827 0.79525 0.05108 0.0
C326 C 0.82263 0.8123 0.08776 0.0
C327 C 0.85446 0.83509 0.08018 0.0
C328 C 0.81545 0.75642 0.0517 0.0
C329 C 0.76444 0.8057 0.04042 0.0
C330 C 0.92469 0.92346 0.16243 0.0
C331 C 0.92101 0.93205 0.20107 0.0
C332 C 0.89973 0.91027 0.22586 0.0
C333 C 0.87893 0.88187 0.21142 0.0
C334 C 0.87972 0.87533 0.17195 0.0
C335 C 0.90395 0.89499 0.14851 0.0
C336 C 0.90247 0.88351 0.10764 0.0
C337 C 0.87157 0.85487 0.11005 0.0
C338 C 0.85783 0.85064 0.14763 0.0
C339 C 0.94527 0.87051 0.09637 0.0
C340 C 0.88678 0.91343 0.0831 0.0
H341 H 0.74727 0.75811 0.09661 0.0
H342 H 0.7389 0.78978 0.23364 0.0
H343 H 0.75577 0.86087 0.1878 0.0
H344 H 0.8008 0.87678 0.20831 0.0
H345 H 0.76814 0.84994 0.23611 0.0
H346 H 0.83193 0.77673 0.21879 0.0
H347 H 0.81984 0.80964 0.25229 0.0
H348 H 0.86294 0.81309 0.22055 0.0
H349 H 0.81715 0.78585 0.97013 0.0
H350 H 0.91738 0.85639 0.9606 0.0
H351 H 0.91395 0.86827 0.02787 0.0
H352 H 0.84813 0.75052 0.04724 0.0
H353 H 0.79794 0.74349 0.02878 0.0
H354 H 0.80775 0.74477 0.0794 0.0
H355 H 0.76367 0.83249 0.03041 0.0
H356 H 0.74326 0.80483 0.06477 0.0
H357 H 0.75229 0.78945 0.01712 0.0
H358 H 0.69429 0.73398 0.13623 0.0
C359 C 0.74654 0.76556 0.12603 0.0
C360 C 0.09756 0.91368 0.31824 0.0
C361 C 0.07209 0.93678 0.33717 0.0
C362 C 0.06058 0.93045 0.37512 0.0
C363 C 0.1049 0.88163 0.37692 0.0
C364 C 0.1143 0.88668 0.33891 0.0
C365 C 0.14698 0.86291 0.32532 0.0
H366 H 0.28985 0.7456 0.36713 0.0
C367 C 0.13136 0.85449 0.39166 0.0
C368 C 0.15613 0.84337 0.36166 0.0
H369 H 0.26415 0.79102 0.25795 0.0
H370 H 0.20781 0.82203 0.28551 0.0
H371 H 0.27865 0.81324 0.41665 0.0
H372 H 0.19396 0.73233 0.39132 0.0
H373 H 0.18982 0.74275 0.43999 0.0
H374 H 0.23712 0.7264 0.42186 0.0
H375 H 0.2837 0.77156 0.43673 0.0
H376 H 0.25191 0.80325 0.45858 0.0
C377 C 0.18379 0.88458 0.31206 0.0
C378 C 0.12859 0.83971 0.29403 0.0
C379 C 0.12475 0.82492 0.53191 0.0
C380 C 0.14691 0.80299 0.55531 0.0
C381 C 0.17831 0.78336 0.53938 0.0
C382 C 0.18714 0.7855 0.50015 0.0
C383 C 0.16453 0.80773 0.47696 0.0
C384 C 0.13399 0.82694 0.49315 0.0
C385 C 0.1138 0.85002 0.46504 0.0
C386 C 0.13652 0.84111 0.42886 0.0
C387 C 0.16629 0.81642 0.43583 0.0
C388 C 0.12169 0.88727 0.47784 0.0
C389 C 0.06834 0.83988 0.46249 0.0
C390 C 0.27175 0.76215 0.34935 0.0
C391 C 0.28102 0.76621 0.31055 0.0
C392 C 0.25722 0.7878 0.28793 0.0
C393 C 0.22473 0.80571 0.30404 0.0
C394 C 0.21633 0.80217 0.34321 0.0
C395 C 0.23936 0.78032 0.36508 0.0
C396 C 0.22601 0.77974 0.40615 0.0
C397 C 0.19133 0.80499 0.40541 0.0
C398 C 0.18599 0.81817 0.36849 0.0
C399 C 0.26182 0.79236 0.43112 0.0
C400 C 0.21112 0.74342 0.4157 0.0
H401 H 0.06758 0.90003 0.42421 0.0
H402 H 0.10686 0.91825 0.28905 0.0
H403 H 0.09617 0.8338 0.30021 0.0
H404 H 0.14358 0.8147 0.29235 0.0
H405 H 0.12991 0.85213 0.26565 0.0
H406 H 0.18785 0.9072 0.33077 0.0
H407 H 0.17945 0.89382 0.28244 0.0
H408 H 0.21295 0.871 0.31375 0.0
H409 H 0.1007 0.84044 0.54373 0.0
H410 H 0.19577 0.76643 0.55725 0.0
H411 H 0.21131 0.76996 0.48943 0.0
H412 H 0.15008 0.88956 0.49488 0.0
H413 H 0.09643 0.89695 0.49577 0.0
H414 H 0.12649 0.90472 0.45358 0.0
H415 H 0.06467 0.81181 0.46384 0.0
H416 H 0.0541 0.84737 0.43528 0.0
H417 H 0.05074 0.851 0.48645 0.0
H418 H 0.04075 0.94794 0.38998 0.0
C419 C 0.07658 0.90285 0.39501 0.0
C420 C 0.24198 0.71318 0.81072 0.0
C421 C 0.21386 0.73572 0.82665 0.0
C422 C 0.21597 0.74373 0.8657 0.0
C423 C 0.27243 0.70517 0.87321 0.0
C424 C 0.27094 0.69815 0.83452 0.0
C425 C 0.30224 0.67254 0.82268 0.0
H426 H 0.42481 0.54511 0.87463 0.0
C427 C 0.30395 0.68352 0.89042 0.0
C428 C 0.32148 0.6643 0.86091 0.0
H429 H 0.40273 0.58139 0.76041 0.0
H430 H 0.36469 0.62908 0.78593 0.0
H431 H 0.45276 0.61587 0.90141 0.0
H432 H 0.34001 0.56294 0.91656 0.0
H433 H 0.35522 0.58041 0.9608 0.0
H434 H 0.3879 0.55081 0.93688 0.0
H435 H 0.44439 0.58942 0.94212 0.0
H436 H 0.43177 0.63404 0.94268 0.0
C437 C 0.33274 0.68989 0.79511 0.0
C438 C 0.27983 0.64157 0.80524 0.0
C439 C 0.33053 0.68646 0.03387 0.0
C440 C 0.35814 0.66848 0.05676 0.0
C441 C 0.38125 0.64222 0.04049 0.0
C442 C 0.37812 0.6345 1.00175 0.0
C443 C 0.35173 0.65336 0.97876 0.0
C444 C 0.32822 0.6787 0.99476 0.0
C445 C 0.30237 0.69614 0.96524 0.0
C446 C 0.3159 0.67814 0.92892 0.0
C447 C 0.34437 0.65286 0.93732 0.0
C448 C 0.31377 0.73431 0.96477 0.0
C449 C 0.25724 0.6888 0.97484 0.0
C450 C 0.41156 0.56327 0.85513 0.0
C451 C 0.41496 0.55883 0.81551 0.0
C452 C 0.39922 0.58386 0.79101 0.0
C453 C 0.37723 0.61134 0.80583 0.0
C454 C 0.37212 0.61427 0.84552 0.0
C455 C 0.3911 0.59153 0.86942 0.0
C456 C 0.388 0.60163 0.91064 0.0
C457 C 0.36109 0.63272 0.90771 0.0
C458 C 0.35094 0.63934 0.86961 0.0
C459 C 0.43133 0.61056 0.92523 0.0
C460 C 0.36686 0.57246 0.93267 0.0
H461 H 0.2451 0.73544 0.91873 0.0
H462 H 0.24079 0.70693 0.78065 0.0
H463 H 0.25505 0.6329 0.82452 0.0
H464 H 0.29968 0.61951 0.80065 0.0
H465 H 0.26605 0.64821 0.77734 0.0
H466 H 0.33263 0.71801 0.79832 0.0
H467 H 0.32537 0.68406 0.76488 0.0
H468 H 0.36453 0.68239 0.80096 0.0
H469 H 0.31226 0.70662 0.04591 0.0
H470 H 0.4024 0.62797 0.05785 0.0
H471 H 0.39664 0.61427 0.9912 0.0
H472 H 0.34719 0.73772 0.96764 0.0
H473 H 0.2991 0.74804 0.98877 0.0
H474 H 0.30568 0.74695 0.93778 0.0
H475 H 0.25354 0.66321 0.98782 0.0
H476 H 0.23757 0.68822 0.94936 0.0
H477 H 0.24519 0.70769 0.99546 0.0
H478 H 0.19438 0.76123 0.87818 0.0
C479 C 0.2452 0.72863 0.8891 0.0
Zn480 Zn 0.03279 0.14053 0.3248 0.0
Zn481 Zn 0.96682 0.13507 0.18893 0.0
Zn482 Zn 7e-05 0.14081 0.25685 0.0
C483 C 0.04315 0.16446 0.17812 0.0
C484 C 0.96945 0.07044 0.21653 0.0
O485 O 0.95625 0.16608 0.29665 0.0
O486 O 0.98596 0.15874 0.35269 0.0
C487 C 0.08352 0.17883 0.27807 0.0
O488 O 0.04333 0.16406 0.21494 0.0
O489 O 0.01353 0.15228 0.15978 0.0
O490 O 0.9549 0.08596 0.1883 0.0
O491 O 0.98806 0.08679 0.24321 0.0
O492 O 0.07806 0.17109 0.31256 0.0
O493 O 0.05837 0.16892 0.25214 0.0
O494 O 0.01211 0.08797 0.27531 0.0
O495 O 0.04536 0.09186 0.33 0.0
C496 C 0.03087 0.07398 0.30341 0.0
O497 O 0.94204 0.16909 0.25903 0.0
O498 O 0.92134 0.16599 0.19895 0.0
C499 C 0.95609 0.16885 0.33336 0.0
C500 C 0.91656 0.17675 0.23253 0.0
Zn501 Zn 0.53601 0.35089 0.68693 0.0
Zn502 Zn 0.46931 0.36101 0.82099 0.0
Zn503 Zn 0.50251 0.35414 0.75332 0.0
C504 C 0.47336 0.42531 0.79167 0.0
C505 C 0.41823 0.3189 0.77887 0.0
O506 O 0.56082 0.32613 0.75955 0.0
O507 O 0.58091 0.32083 0.69951 0.0
C508 C 0.53304 0.41865 0.70266 0.0
O509 O 0.49127 0.40857 0.76494 0.0
O510 O 0.45947 0.4103 0.8206 0.0
O511 O 0.42272 0.33076 0.81202 0.0
O512 O 0.44423 0.32556 0.75239 0.0
O513 O 0.54906 0.39907 0.67854 0.0
O514 O 0.5133 0.40634 0.73129 0.0
O515 O 0.45855 0.32748 0.71478 0.0
O516 O 0.48946 0.33194 0.65894 0.0
C517 C 0.45891 0.32316 0.67828 0.0
O518 O 0.54571 0.33253 0.79626 0.0
O519 O 0.51504 0.34376 0.8511 0.0
C520 C 0.58603 0.31482 0.73443 0.0
C521 C 0.54507 0.33212 0.83309 0.0
Zn522 Zn 0.02656 0.85225 0.8185 0.0
Zn523 Zn 0.97506 0.84924 0.68826 0.0
Zn524 Zn 0.00066 0.84862 0.75387 0.0
C525 C 0.95268 0.91103 0.72163 0.0
C526 C 0.92865 0.8022 0.72635 0.0
O527 O 0.05785 0.8203 0.75457 0.0
O528 O 0.06208 0.81166 0.81664 0.0
C529 C 0.04748 0.91345 0.7834 0.0
O530 O 0.98116 0.90149 0.74436 0.0
O531 O 0.94473 0.89258 0.69309 0.0
O532 O 0.94099 0.80763 0.69283 0.0
O533 O 0.94479 0.81808 0.75466 0.0
O534 O 0.05596 0.89591 0.81239 0.0
O535 O 0.01928 0.90258 0.76093 0.0
O536 O 0.95443 0.826 0.79257 0.0
O537 O 0.97477 0.84924 0.84671 0.0
C538 C 0.94862 0.83256 0.82815 0.0
O539 O 0.04676 0.82496 0.71632 0.0
O540 O 0.02742 0.84554 0.66065 0.0
C541 C 0.07489 0.80604 0.78332 0.0
C542 C 0.05303 0.82964 0.68047 0.0
Zn543 Zn 0.5249 0.64346 0.19507 0.0
Zn544 Zn 0.47189 0.64496 0.32605 0.0
Zn545 Zn 0.49879 0.64595 0.26018 0.0
C546 C 0.54889 0.66835 0.33408 0.0
C547 C 0.45365 0.58178 0.29269 0.0
O548 O 0.45195 0.66701 0.22138 0.0
O549 O 0.4734 0.64611 0.16645 0.0
C550 C 0.5724 0.69039 0.23093 0.0
O551 O 0.54334 0.67166 0.29794 0.0
O552 O 0.52346 0.6522 0.35404 0.0
O553 O 0.44506 0.59982 0.32136 0.0
O554 O 0.48147 0.59245 0.26976 0.0
O555 O 0.56003 0.68443 0.19753 0.0
O556 O 0.55522 0.67596 0.25961 0.0
O557 O 0.51955 0.59269 0.25273 0.0
O558 O 0.55488 0.60018 0.2005 0.0
C559 C 0.54746 0.58247 0.22965 0.0
O560 O 0.44119 0.6739 0.25908 0.0
O561 O 0.43441 0.68416 0.32075 0.0
C562 C 0.44653 0.66126 0.18558 0.0
C563 C 0.42288 0.68877 0.28685 0.0
C564 C 0.09225 0.99479 0.31389 0.0
C565 C 0.06146 0.96993 0.3198 0.0
C566 C 0.00899 0.0129 0.30949 0.0
C567 C 0.03991 0.03734 0.30305 0.0
N568 N 0.10948 0.04935 0.28655 0.0
N569 N 0.99145 0.95306 0.31287 0.0
C570 C 0.08106 0.02742 0.3009 0.0
C571 C 0.02002 0.97827 0.31405 0.0
N572 N 0.13174 0.98835 0.32345 0.0
N573 N 0.96951 0.02293 0.31312 0.0
H574 H 0.99898 0.92747 0.31572 0.0
H575 H 0.96127 0.9572 0.30533 0.0
H576 H 0.96042 0.04806 0.30954 0.0
H577 H 0.9462 0.00671 0.32173 0.0
H578 H 0.15424 0.00702 0.32362 0.0
H579 H 0.14159 0.96537 0.33471 0.0
H580 H 0.13937 0.04229 0.28101 0.0
H581 H 0.10202 0.07344 0.27641 0.0
C582 C 0.47424 0.51926 0.81399 0.0
C583 C 0.43486 0.52762 0.80058 0.0
C584 C 0.43131 0.47276 0.76767 0.0
C585 C 0.46593 0.46202 0.78813 0.0
N586 N 0.51972 0.4741 0.83275 0.0
N587 N 0.37315 0.50979 0.76838 0.0
C588 C 0.48755 0.48512 0.81159 0.0
C589 C 0.41286 0.50404 0.77765 0.0
N590 N 0.49864 0.54397 0.82914 0.0
N591 N 0.4151 0.45247 0.73989 0.0
H592 H 0.35713 0.53121 0.77698 0.0
H593 H 0.35472 0.49162 0.75533 0.0
H594 H 0.42747 0.42901 0.73255 0.0
H595 H 0.392 0.46044 0.72172 0.0
H596 H 0.5286 0.5398 0.83736 0.0
H597 H 0.49011 0.56946 0.82991 0.0
H598 H 0.53371 0.48882 0.8537 0.0
H599 H 0.53109 0.44946 0.8306 0.0
C600 C 0.54342 0.50028 0.64854 0.0
C601 C 0.55491 0.52381 0.67745 0.0
C602 C 0.55242 0.4778 0.7243 0.0
C603 C 0.53613 0.4557 0.6962 0.0
N604 N 0.50448 0.44976 0.63444 0.0
N605 N 0.55901 0.53617 0.7449 0.0
C606 C 0.52756 0.46831 0.65931 0.0
C607 C 0.5557 0.513 0.71608 0.0
N608 N 0.55056 0.50696 0.6109 0.0
N609 N 0.56739 0.4652 0.75765 0.0
H610 H 0.55886 0.5623 0.74008 0.0
H611 H 0.55765 0.52939 0.77355 0.0
H612 H 0.56706 0.43941 0.76428 0.0
H613 H 0.58359 0.48011 0.77701 0.0
H614 H 0.54553 0.48904 0.58947 0.0
H615 H 0.56627 0.52835 0.60144 0.0
H616 H 0.49498 0.45931 0.60821 0.0
H617 H 0.49114 0.42661 0.64188 0.0
C618 C 0.9765 0.9741 0.21509 0.0
C619 C 0.93444 0.96622 0.2137 0.0
C620 C 0.91813 0.02549 0.2274 0.0
C621 C 0.9593 0.03423 0.22125 0.0
N622 N 0.02855 0.01773 0.20963 0.0
N623 N 0.86452 0.98512 0.2148 0.0
C624 C 0.98896 0.00874 0.21572 0.0
C625 C 0.90498 0.99198 0.21949 0.0
N626 N 0.00423 0.94841 0.21605 0.0
N627 N 0.89168 0.0493 0.241 0.0
H628 H 0.8531 0.96111 0.20826 0.0
H629 H 0.84237 0.00393 0.2142 0.0
H630 H 0.90063 0.0741 0.2475 0.0
H631 H 0.86216 0.04353 0.2496 0.0
H632 H 0.03514 0.95229 0.22064 0.0
H633 H 0.99562 0.92288 0.21581 0.0
H634 H 0.05097 0.00059 0.20155 0.0
H635 H 0.03862 0.04286 0.21094 0.0
C636 C 0.88678 0.98463 0.69293 0.0
C637 C 0.90719 0.01166 0.71185 0.0
C638 C 0.94406 0.97033 0.75095 0.0
C639 C 0.93093 0.94433 0.72573 0.0
N640 N 0.87128 0.92457 0.69263 0.0
N641 N 0.95216 0.03095 0.76181 0.0
C642 C 0.89669 0.95073 0.70235 0.0
C643 C 0.93459 0.00474 0.74216 0.0
N644 N 0.85802 0.99128 0.66584 0.0
N645 N 0.96175 0.96196 0.78481 0.0
H646 H 0.94637 0.05638 0.75574 0.0
H647 H 0.97441 0.02771 0.78253 0.0
H648 H 0.96204 0.93706 0.79478 0.0
H649 H 0.97036 0.97955 0.80547 0.0
H650 H 0.84658 0.97284 0.64736 0.0
H651 H 0.84667 0.01551 0.66062 0.0
H652 H 0.84393 0.92779 0.67822 0.0
H653 H 0.87458 0.90024 0.70393 0.0
C654 C 0.56669 0.48874 0.24955 0.0
C655 C 0.59455 0.48241 0.21938 0.0
C656 C 0.6044 0.54351 0.21116 0.0
C657 C 0.56964 0.54938 0.23409 0.0
N658 N 0.53768 0.53089 0.29222 0.0
N659 N 0.6441 0.50373 0.17436 0.0
C660 C 0.55635 0.52299 0.25865 0.0
C661 C 0.61493 0.50982 0.20127 0.0
N662 N 0.5496 0.46212 0.26876 0.0
N663 N 0.62948 0.57004 0.20208 0.0
H664 H 0.65569 0.47963 0.16872 0.0
H665 H 0.65563 0.52249 0.15643 0.0
H666 H 0.62533 0.59432 0.21336 0.0
H667 H 0.65719 0.56723 0.18813 0.0
H668 H 0.52721 0.4648 0.28946 0.0
H669 H 0.55622 0.43685 0.26251 0.0
H670 H 0.52872 0.51305 0.3124 0.0
H671 H 0.53668 0.5557 0.30248 0.0
C672 C 0.38998 0.506 0.32061 0.0
C673 C 0.41076 0.47974 0.30094 0.0
C674 C 0.4465 0.52252 0.26251 0.0
C675 C 0.43298 0.54784 0.28836 0.0
N676 N 0.3729 0.56559 0.32202 0.0
N677 N 0.45564 0.46226 0.25021 0.0
C678 C 0.39903 0.54026 0.3118 0.0
C679 C 0.43778 0.48776 0.2706 0.0
N680 N 0.36162 0.4983 0.34779 0.0
N681 N 0.46365 0.53182 0.22866 0.0
H682 H 0.45028 0.43662 0.25571 0.0
H683 H 0.47768 0.46629 0.22943 0.0
H684 H 0.46317 0.55684 0.21912 0.0
H685 H 0.47251 0.51474 0.20761 0.0
H686 H 0.35006 0.51619 0.3668 0.0
H687 H 0.35074 0.47378 0.35257 0.0
H688 H 0.3457 0.56144 0.33646 0.0
H689 H 0.37537 0.59012 0.31105 0.0
C690 C 0.06435 0.00757 0.76297 0.0
C691 C 0.09253 0.01454 0.79272 0.0
C692 C 0.10383 0.9537 0.80086 0.0
C693 C 0.06879 0.94704 0.77853 0.0
N694 N 0.03522 0.96471 0.721 0.0
N695 N 0.14308 0.99434 0.83719 0.0
C696 C 0.05446 0.97309 0.75417 0.0
C697 C 0.11372 0.98761 0.81061 0.0
N698 N 0.04662 0.03382 0.74382 0.0
N699 N 0.12972 0.92778 0.80948 0.0
H700 H 0.15416 0.01869 0.84278 0.0
H701 H 0.15525 0.97583 0.85497 0.0
H702 H 0.12595 0.90342 0.79824 0.0
H703 H 0.15762 0.93125 0.82294 0.0
H704 H 0.02409 0.0307 0.72333 0.0
H705 H 0.053 0.05922 0.74985 0.0
H706 H 0.02536 0.98229 0.70098 0.0
H707 H 0.03453 0.93987 0.71082 0.0
C708 C 0.08846 0.2073 0.09518 0.0
C709 C 0.11602 0.18162 0.0837 0.0
C710 C 0.10924 0.1538 0.14585 0.0
C711 C 0.07792 0.1769 0.15522 0.0
N712 N 0.04759 0.23138 0.14643 0.0
N713 N 0.16275 0.13777 0.10149 0.0
C714 C 0.07141 0.20594 0.13248 0.0
C715 C 0.13015 0.15753 0.11054 0.0
N716 N 0.07655 0.23139 0.0696 0.0
N717 N 0.11647 0.12686 0.16931 0.0
H718 H 0.17817 0.14031 0.07562 0.0
H719 H 0.17656 0.12118 0.12051 0.0
H720 H 0.10198 0.12422 0.1956 0.0
H721 H 0.13554 0.10676 0.1624 0.0
H722 H 0.05322 0.24857 0.07463 0.0
H723 H 0.08929 0.23343 0.04247 0.0
H724 H 0.04326 0.25449 0.13269 0.0
H725 H 0.03507 0.23016 0.17378 0.0
C726 C 0.37069 0.33102 0.61248 0.0
C727 C 0.38402 0.30666 0.58551 0.0
C728 C 0.42827 0.28167 0.63395 0.0
C729 C 0.42305 0.31106 0.65657 0.0
N730 N 0.38587 0.36193 0.67084 0.0
N731 N 0.42181 0.25599 0.57119 0.0
C732 C 0.39212 0.33463 0.64754 0.0
C733 C 0.41084 0.28045 0.59682 0.0
N734 N 0.33842 0.35122 0.60373 0.0
N735 N 0.45137 0.25579 0.64782 0.0
H736 H 0.40874 0.25409 0.54419 0.0
H737 H 0.44466 0.23835 0.57609 0.0
H738 H 0.4642 0.25697 0.67505 0.0
H739 H 0.45476 0.23248 0.63417 0.0
H740 H 0.32514 0.36806 0.6229 0.0
H741 H 0.32269 0.34877 0.57801 0.0
H742 H 0.36731 0.38233 0.66392 0.0
H743 H 0.40056 0.36456 0.69701 0.0
C744 C 0.63171 0.34039 0.90108 0.0
C745 C 0.61785 0.31601 0.92784 0.0
C746 C 0.5736 0.29115 0.87895 0.0
C747 C 0.57979 0.32035 0.8563 0.0
N748 N 0.61748 0.37122 0.84263 0.0
N749 N 0.57876 0.26571 0.94179 0.0
C750 C 0.61072 0.34396 0.86583 0.0
C751 C 0.59056 0.28998 0.91627 0.0
N752 N 0.66414 0.36055 0.91014 0.0
N753 N 0.55019 0.26534 0.86488 0.0
H754 H 0.59138 0.26381 0.96897 0.0
H755 H 0.55557 0.24826 0.93668 0.0
H756 H 0.53771 0.2664 0.83752 0.0
H757 H 0.54623 0.24211 0.87853 0.0
H758 H 0.67777 0.37735 0.89112 0.0
H759 H 0.67963 0.35813 0.93597 0.0
H760 H 0.63615 0.39164 0.84978 0.0
H761 H 0.60295 0.37382 0.81637 0.0
C762 C 0.86753 0.16093 0.3988 0.0
C763 C 0.88132 0.1848 0.42624 0.0
C764 C 0.92632 0.21004 0.37832 0.0
C765 C 0.92045 0.18104 0.35516 0.0
N766 N 0.88209 0.13085 0.33978 0.0
N767 N 0.92032 0.23487 0.44151 0.0
C768 C 0.88895 0.15766 0.3637 0.0
C769 C 0.90881 0.2109 0.41544 0.0
N770 N 0.83481 0.14086 0.40715 0.0
N771 N 0.95009 0.23587 0.36496 0.0
H772 H 0.90727 0.23653 0.46855 0.0
H773 H 0.94361 0.25234 0.43696 0.0
H774 H 0.96298 0.23494 0.33774 0.0
H775 H 0.95399 0.25895 0.37902 0.0
H776 H 0.82126 0.12437 0.3877 0.0
H777 H 0.81907 0.14309 0.43289 0.0
H778 H 0.86295 0.11056 0.34617 0.0
H779 H 0.89687 0.12854 0.31361 0.0
C780 C 0.8604 0.84022 0.89347 0.0
C781 C 0.87199 0.81403 0.9188 0.0
C782 C 0.9158 0.78982 0.86944 0.0
C783 C 0.91243 0.82053 0.84902 0.0
N784 N 0.8774 0.87255 0.8365 0.0
N785 N 0.90591 0.76095 0.92994 0.0
C786 C 0.88241 0.84456 0.85891 0.0
C787 C 0.89728 0.78726 0.90599 0.0
N788 N 0.82952 0.86146 0.90356 0.0
N789 N 0.93818 0.764 0.85428 0.0
H790 H 0.89181 0.75814 0.95638 0.0
H791 H 0.92759 0.74249 0.92421 0.0
H792 H 0.9518 0.76607 0.82748 0.0
H793 H 0.9403 0.73996 0.86637 0.0
H794 H 0.81785 0.8802 0.88585 0.0
H795 H 0.81341 0.85828 0.92897 0.0
H796 H 0.85907 0.89306 0.84364 0.0
H797 H 0.89272 0.8753 0.81059 0.0
C798 C 0.60105 0.72446 0.40382 0.0
C799 C 0.62923 0.70082 0.41867 0.0
C800 C 0.61615 0.66207 0.36541 0.0
C801 C 0.58422 0.68357 0.35367 0.0
N802 N 0.55466 0.7391 0.35235 0.0
N803 N 0.67311 0.65309 0.40839 0.0
C804 C 0.57992 0.71638 0.36956 0.0
C805 C 0.64032 0.67175 0.39725 0.0
N806 N 0.59276 0.75336 0.4239 0.0
N807 N 0.62139 0.63158 0.34743 0.0
H808 H 0.69092 0.65998 0.4318 0.0
H809 H 0.68459 0.63263 0.39305 0.0
H810 H 0.60476 0.62482 0.32321 0.0
H811 H 0.64119 0.61282 0.3567 0.0
H812 H 0.56943 0.77003 0.41715 0.0
H813 H 0.60897 0.76018 0.44833 0.0
H814 H 0.55168 0.76428 0.36088 0.0
H815 H 0.53915 0.73324 0.3272 0.0
C816 C 0.3922 0.70344 0.10753 0.0
C817 C 0.36514 0.67668 0.09762 0.0
C818 C 0.37864 0.64827 0.15821 0.0
C819 C 0.40969 0.67235 0.16532 0.0
N820 N 0.43607 0.72844 0.15604 0.0
N821 N 0.32186 0.63107 0.11806 0.0
C822 C 0.41253 0.70218 0.14325 0.0
C823 C 0.35431 0.65186 0.125 0.0
N824 N 0.40092 0.72828 0.08164 0.0
N825 N 0.37475 0.62084 0.18171 0.0
H826 H 0.3041 0.63367 0.09357 0.0
H827 H 0.31063 0.61354 0.1376 0.0
H828 H 0.39194 0.61842 0.20657 0.0
H829 H 0.35566 0.60029 0.17621 0.0
H830 H 0.42392 0.74619 0.08528 0.0
H831 H 0.38585 0.73031 0.05562 0.0
H832 H 0.43766 0.75202 0.14276 0.0
H833 H 0.45112 0.72731 0.18223 0.0
C834 C 0.14628 0.83024 0.61938 0.0
C835 C 0.13628 0.80176 0.59645 0.0
C836 C 0.0861 0.78359 0.6438 0.0
C837 C 0.0892 0.81597 0.66102 0.0
N838 N 0.12491 0.86862 0.66995 0.0
N839 N 0.10009 0.74905 0.58791 0.0
C840 C 0.12092 0.83852 0.65086 0.0
C841 C 0.10801 0.77716 0.60959 0.0
N842 N 0.17924 0.84966 0.61002 0.0
N843 N 0.06119 0.75968 0.65968 0.0
H844 H 0.11653 0.74332 0.56332 0.0
H845 H 0.07653 0.73207 0.59342 0.0
H846 H 0.04499 0.76434 0.68474 0.0
H847 H 0.05934 0.73466 0.65023 0.0
H848 H 0.18996 0.86974 0.62657 0.0
H849 H 0.19793 0.84367 0.58692 0.0
H850 H 0.14453 0.88805 0.66175 0.0
H851 H 0.10737 0.87438 0.69391 0.0
C852 C 0.15074 0.25276 0.2889 0.0
C853 C 0.18818 0.23563 0.29458 0.0
C854 C 0.15823 0.18258 0.2713 0.0
C855 C 0.12012 0.19896 0.26927 0.0
N856 N 0.08213 0.25031 0.26308 0.0
N857 N 0.23116 0.18801 0.28024 0.0
C858 C 0.11735 0.23452 0.27318 0.0
C859 C 0.19316 0.20174 0.28178 0.0
N860 N 0.14631 0.28556 0.30099 0.0
N861 N 0.16019 0.14829 0.26571 0.0
H862 H 0.25712 0.20175 0.28782 0.0
H863 H 0.23738 0.1643 0.26851 0.0
H864 H 0.13501 0.13416 0.25682 0.0
H865 H 0.18591 0.13379 0.27108 0.0
H866 H 0.11861 0.29818 0.30151 0.0
H867 H 0.17007 0.29979 0.31255 0.0
H868 H 0.07864 0.27656 0.26253 0.0
H869 H 0.05756 0.23682 0.25173 0.0
C870 C 0.35324 0.24313 0.79236 0.0
C871 C 0.31511 0.25932 0.79742 0.0
C872 C 0.34338 0.31288 0.77395 0.0
C873 C 0.3821 0.29744 0.77218 0.0
N874 N 0.42202 0.24686 0.76721 0.0
N875 N 0.27059 0.30575 0.78253 0.0
C876 C 0.38619 0.262 0.77675 0.0
C877 C 0.30907 0.29298 0.78443 0.0
N878 N 0.35863 0.21058 0.80479 0.0
N879 N 0.34014 0.34701 0.76775 0.0
H880 H 0.24505 0.2915 0.79011 0.0
H881 H 0.26361 0.32917 0.77055 0.0
H882 H 0.36473 0.36168 0.75857 0.0
H883 H 0.31389 0.36092 0.77289 0.0
H884 H 0.38676 0.19867 0.8059 0.0
H885 H 0.33516 0.19587 0.81609 0.0
H886 H 0.42633 0.22069 0.76704 0.0
H887 H 0.44637 0.26059 0.7559 0.0
C888 C 0.65113 0.24047 0.72487 0.0
C889 C 0.68888 0.25726 0.71878 0.0
C890 C 0.66041 0.31055 0.74247 0.0
C891 C 0.62193 0.29458 0.74454 0.0
N892 N 0.58278 0.24368 0.75121 0.0
N893 N 0.73313 0.30442 0.73282 0.0
C894 C 0.61833 0.25905 0.74084 0.0
C895 C 0.69479 0.29107 0.73164 0.0
N896 N 0.6458 0.20771 0.71288 0.0
N897 N 0.66318 0.34478 0.74824 0.0
H898 H 0.75867 0.29043 0.72497 0.0
H899 H 0.74003 0.32808 0.74446 0.0
H900 H 0.63831 0.35905 0.7573 0.0
H901 H 0.68923 0.35906 0.74298 0.0
H902 H 0.61781 0.19534 0.7127 0.0
H903 H 0.66908 0.19324 0.70106 0.0
H904 H 0.57861 0.21747 0.75186 0.0
H905 H 0.55865 0.25752 0.76263 0.0
C906 C 0.80788 0.20304 0.22687 0.0
C907 C 0.81455 0.23684 0.21447 0.0
C908 C 0.88533 0.23363 0.23576 0.0
C909 C 0.8807 0.19816 0.23966 0.0
N910 N 0.83802 0.14867 0.24277 0.0
N911 N 0.85891 0.28549 0.20823 0.0
C912 C 0.84179 0.18287 0.23727 0.0
C913 C 0.85286 0.25283 0.22014 0.0
N914 N 0.7692 0.19038 0.22824 0.0
N915 N 0.92128 0.24851 0.24592 0.0
H916 H 0.83583 0.30042 0.19687 0.0
H917 H 0.88724 0.29729 0.2076 0.0
H918 H 0.94526 0.23451 0.25724 0.0
H919 H 0.92597 0.27466 0.24659 0.0
H920 H 0.76177 0.16683 0.23976 0.0
H921 H 0.74394 0.20482 0.22071 0.0
H922 H 0.81163 0.13492 0.23713 0.0
H923 H 0.86232 0.1338 0.25186 0.0
C924 C 0.86728 0.72346 0.71059 0.0
C925 C 0.82748 0.73677 0.71402 0.0
C926 C 0.85473 0.79103 0.73703 0.0
C927 C 0.89451 0.77829 0.7315 0.0
N928 N 0.93922 0.73074 0.7241 0.0
N929 N 0.78236 0.77898 0.73974 0.0
C930 C 0.90087 0.74378 0.72209 0.0
C931 C 0.82093 0.76918 0.73056 0.0
N932 N 0.87298 0.69215 0.69458 0.0
N933 N 0.84932 0.8245 0.74601 0.0
H934 H 0.75704 0.76357 0.73484 0.0
H935 H 0.77571 0.80096 0.75501 0.0
H936 H 0.87344 0.84091 0.75191 0.0
H937 H 0.82122 0.8365 0.7459 0.0
H938 H 0.90133 0.68258 0.6872 0.0
H939 H 0.84897 0.67625 0.68676 0.0
H940 H 0.94585 0.70511 0.72061 0.0
H941 H 0.96409 0.74536 0.73284 0.0
C942 C 0.64081 0.76343 0.21076 0.0
C943 C 0.6787 0.74639 0.21058 0.0
C944 C 0.64738 0.69585 0.23867 0.0
C945 C 0.609 0.71173 0.23527 0.0
N946 N 0.56972 0.76257 0.2299 0.0
N947 N 0.72081 0.70118 0.23389 0.0
C948 C 0.60606 0.74641 0.22547 0.0
C949 C 0.6829 0.7142 0.22808 0.0
N950 N 0.63784 0.79508 0.19508 0.0
N951 N 0.64942 0.66256 0.24945 0.0
H952 H 0.7472 0.71407 0.22587 0.0
H953 H 0.7264 0.67912 0.24928 0.0
H954 H 0.62404 0.64892 0.25861 0.0
H955 H 0.6757 0.64804 0.2481 0.0
H956 H 0.61045 0.80746 0.19038 0.0
H957 H 0.66306 0.80865 0.18534 0.0
H958 H 0.56564 0.7885 0.22587 0.0
H959 H 0.54424 0.75018 0.24102 0.0
C960 C 0.35538 0.76459 0.29533 0.0
C961 C 0.31674 0.74852 0.29435 0.0
C962 C 0.34809 0.69433 0.27722 0.0
C963 C 0.38678 0.71 0.28044 0.0
N964 N 0.42765 0.76059 0.28171 0.0
N965 N 0.27483 0.70133 0.27504 0.0
C966 C 0.39046 0.74548 0.28575 0.0
C967 C 0.31264 0.71441 0.28193 0.0
N968 N 0.35862 0.79757 0.30725 0.0
N969 N 0.34544 0.65998 0.27203 0.0
H970 H 0.24838 0.71546 0.27878 0.0
H971 H 0.2697 0.67763 0.26274 0.0
H972 H 0.37086 0.6448 0.26747 0.0
H973 H 0.31847 0.64623 0.27393 0.0
H974 H 0.38616 0.80962 0.3129 0.0
H975 H 0.33343 0.81262 0.31332 0.0
H976 H 0.43226 0.78674 0.28215 0.0
H977 H 0.45358 0.74683 0.27442 0.0
C978 C 0.14254 0.73273 0.80217 0.0
C979 C 0.18049 0.7499 0.80339 0.0
C980 C 0.14992 0.80099 0.77643 0.0
C981 C 0.11142 0.78493 0.77901 0.0
N982 N 0.07174 0.73389 0.78225 0.0
N983 N 0.22325 0.79577 0.78214 0.0
C984 C 0.10811 0.75002 0.78763 0.0
C985 C 0.18517 0.78251 0.78697 0.0
N986 N 0.13917 0.70069 0.81679 0.0
N987 N 0.15226 0.83446 0.76641 0.0
H988 H 0.24941 0.78269 0.79008 0.0
H989 H 0.22925 0.81828 0.76768 0.0
H990 H 0.12705 0.84813 0.75724 0.0
H991 H 0.17861 0.84903 0.76825 0.0
H992 H 0.11164 0.68812 0.82077 0.0
H993 H 0.16416 0.68693 0.8264 0.0
H994 H 0.06746 0.70785 0.78537 0.0
H995 H 0.04648 0.74649 0.77125 0.0
loop_
_geom_bond_atom_site_label_1
_geom_bond_atom_site_label_2
_geom_bond_distance
_geom_bond_site_symmetry_2
_ccdc_geom_bond_type
C0 C1 1.391 . S
C0 C4 1.391 . S
C0 H42 0.948 . S
C1 C0 1.391 . S
C1 C2 1.391 . S
C2 C1 1.391 . S
C2 H58 0.947 . S
C2 C59 1.392 . S
C3 C4 1.391 . S
C3 C7 1.397 . S
C3 C59 1.419 . S
C4 C0 1.391 . S
C4 C3 1.391 . S
C4 C5 1.399 . S
C5 C4 1.399 . S
C5 C8 1.396 . S
C5 C17 1.453 . S
C5 C18 1.684 . S
H6 C30 0.948 . S
C7 C3 1.397 . S
C7 C8 1.394 . S
C7 C26 1.723 . S
C8 C5 1.396 . S
C8 C7 1.394 . S
C8 C38 1.723 . S
H9 C32 0.947 . S
H10 C33 0.948 . S
H11 C39 0.982 . S
H12 C40 0.979 . S
H13 C40 0.980 . S
H14 C40 0.983 . S
H15 C39 0.979 . S
H16 C39 0.977 . S
C17 C5 1.453 . S
C17 H46 0.982 . S
C17 H47 0.979 . S
C17 H48 0.977 . S
C18 C5 1.684 . S
C18 H43 0.979 . S
C18 H44 0.980 . S
C18 H45 0.983 . S
C19 C20 1.391 . S
C19 C24 1.391 . S
C19 H49 0.948 . S
C20 C19 1.391 . S
C20 C21 1.391 . S
C21 C20 1.391 . S
C21 C22 1.392 . S
C21 H50 0.947 . S
C22 C21 1.392 . S
C22 C23 1.419 . S
C22 H51 0.948 . S
C23 C22 1.419 . S
C23 C24 1.391 . S
C23 C27 1.397 . S
C24 C19 1.391 . S
C24 C23 1.391 . S
C24 C25 1.399 . S
C25 C24 1.399 . S
C25 C26 1.396 . S
C25 C28 1.453 . S
C25 C29 1.684 . S
C26 C7 1.723 . S
C26 C25 1.396 . S
C26 C27 1.394 . S
C27 C23 1.397 . S
C27 C26 1.394 . S
C27 C37 1.723 . S
C28 C25 1.453 . S
C28 H52 0.982 . S
C28 H53 0.979 . S
C28 H54 0.977 . S
C29 C25 1.684 . S
C29 H55 0.979 . S
C29 H56 0.980 . S
C29 H57 0.983 . S
C30 H6 0.948 . S
C30 C31 1.391 . S
C30 C35 1.391 . S
C31 C30 1.391 . S
C31 C32 1.391 . S
C32 H9 0.947 . S
C32 C31 1.391 . S
C32 C33 1.392 . S
C33 H10 0.948 . S
C33 C32 1.392 . S
C33 C34 1.419 . S
C34 C33 1.419 . S
C34 C35 1.391 . S
C34 C38 1.397 . S
C35 C30 1.391 . S
C35 C34 1.391 . S
C35 C36 1.399 . S
C36 C35 1.399 . S
C36 C37 1.396 . S
C36 C39 1.453 . S
C36 C40 1.684 . S
C37 C27 1.723 . S
C37 C36 1.396 . S
C37 C38 1.394 . S
C38 C8 1.723 . S
C38 C34 1.397 . S
C38 C37 1.394 . S
C39 H11 0.982 . S
C39 H15 0.979 . S
C39 H16 0.977 . S
C39 C36 1.453 . S
C40 H12 0.979 . S
C40 H13 0.980 . S
C40 H14 0.983 . S
C40 C36 1.684 . S
H41 C59 0.948 . S
H42 C0 0.948 . S
H43 C18 0.979 . S
H44 C18 0.980 . S
H45 C18 0.983 . S
H46 C17 0.982 . S
H47 C17 0.979 . S
H48 C17 0.977 . S
H49 C19 0.948 . S
H50 C21 0.947 . S
H51 C22 0.948 . S
H52 C28 0.982 . S
H53 C28 0.979 . S
H54 C28 0.977 . S
H55 C29 0.979 . S
H56 C29 0.980 . S
H57 C29 0.983 . S
H58 C2 0.947 . S
C59 C2 1.392 . S
C59 C3 1.419 . S
C59 H41 0.948 . S
C60 C61 1.391 . S
C60 C64 1.391 . S
C60 H102 0.948 . S
C61 C60 1.391 . S
C61 C62 1.391 . S
C62 C61 1.391 . S
C62 H118 0.947 . S
C62 C119 1.392 . S
C63 C64 1.391 . S
C63 C67 1.397 . S
C63 C119 1.419 . S
C64 C60 1.391 . S
C64 C63 1.391 . S
C64 C65 1.399 . S
C65 C64 1.399 . S
C65 C68 1.396 . S
C65 C77 1.453 . S
C65 C78 1.684 . S
H66 C90 0.948 . S
C67 C63 1.397 . S
C67 C68 1.394 . S
C67 C86 1.723 . S
C68 C65 1.396 . S
C68 C67 1.394 . S
C68 C98 1.723 . S
H69 C92 0.947 . S
H70 C93 0.948 . S
H71 C99 0.982 . S
H72 C100 0.979 . S
H73 C100 0.980 . S
H74 C100 0.983 . S
H75 C99 0.979 . S
H76 C99 0.977 . S
C77 C65 1.453 . S
C77 H106 0.982 . S
C77 H107 0.979 . S
C77 H108 0.977 . S
C78 C65 1.684 . S
C78 H103 0.979 . S
C78 H104 0.980 . S
C78 H105 0.983 . S
C79 C80 1.391 . S
C79 C84 1.391 1_554 S
C79 H109 0.948 . S
C80 C79 1.391 . S
C80 C81 1.391 . S
C81 C80 1.391 . S
C81 C82 1.392 1_554 S
C81 H110 0.947 . S
C82 C81 1.392 1_556 S
C82 C83 1.419 . S
C82 H111 0.948 . S
C83 C82 1.419 . S
C83 C84 1.391 . S
C83 C87 1.397 . S
C84 C79 1.391 1_556 S
C84 C83 1.391 . S
C84 C85 1.399 . S
C85 C84 1.399 . S
C85 C86 1.396 . S
C85 C88 1.453 . S
C85 C89 1.684 . S
C86 C67 1.723 . S
C86 C85 1.396 . S
C86 C87 1.394 . S
C87 C83 1.397 . S
C87 C86 1.394 . S
C87 C97 1.723 . S
C88 C85 1.453 . S
C88 H112 0.982 . S
C88 H113 0.979 . S
C88 H114 0.977 . S
C89 C85 1.684 . S
C89 H115 0.979 . S
C89 H116 0.980 . S
C89 H117 0.983 . S
C90 H66 0.948 . S
C90 C91 1.391 . S
C90 C95 1.391 . S
C91 C90 1.391 . S
C91 C92 1.391 . S
C92 H69 0.947 . S
C92 C91 1.391 . S
C92 C93 1.392 . S
C93 H70 0.948 . S
C93 C92 1.392 . S
C93 C94 1.419 . S
C94 C93 1.419 . S
C94 C95 1.391 . S
C94 C98 1.397 . S
C95 C90 1.391 . S
C95 C94 1.391 . S
C95 C96 1.399 . S
C96 C95 1.399 . S
C96 C97 1.396 . S
C96 C99 1.453 . S
C96 C100 1.684 . S
C97 C87 1.723 . S
C97 C96 1.396 . S
C97 C98 1.394 . S
C98 C68 1.723 . S
C98 C94 1.397 . S
C98 C97 1.394 . S
C99 H71 0.982 . S
C99 H75 0.979 . S
C99 H76 0.977 . S
C99 C96 1.453 . S
C100 H72 0.979 . S
C100 H73 0.980 . S
C100 H74 0.983 . S
C100 C96 1.684 . S
H101 C119 0.948 . S
H102 C60 0.948 . S
H103 C78 0.979 . S
H104 C78 0.980 . S
H105 C78 0.983 . S
H106 C77 0.982 . S
H107 C77 0.979 . S
H108 C77 0.977 . S
H109 C79 0.948 . S
H110 C81 0.947 . S
H111 C82 0.948 . S
H112 C88 0.982 . S
H113 C88 0.979 . S
H114 C88 0.977 . S
H115 C89 0.979 . S
H116 C89 0.980 . S
H117 C89 0.983 . S
H118 C62 0.947 . S
C119 C62 1.392 . S
C119 C63 1.419 . S
C119 H101 0.948 . S
C120 C121 1.391 . S
C120 C124 1.391 . S
C120 H162 0.948 . S
C121 C120 1.391 . S
C121 C122 1.391 . S
C122 C121 1.391 . S
C122 H178 0.947 . S
C122 C179 1.392 . S
C123 C124 1.391 . S
C123 C127 1.397 . S
C123 C179 1.419 . S
C124 C120 1.391 . S
C124 C123 1.391 . S
C124 C125 1.399 . S
C125 C124 1.399 . S
C125 C128 1.396 . S
C125 C137 1.453 . S
C125 C138 1.684 . S
H126 C150 0.948 . S
C127 C123 1.397 . S
C127 C128 1.394 . S
C127 C146 1.723 . S
C128 C125 1.396 . S
C128 C127 1.394 . S
C128 C158 1.723 . S
H129 C152 0.947 . S
H130 C153 0.948 . S
H131 C159 0.982 . S
H132 C160 0.979 . S
H133 C160 0.980 . S
H134 C160 0.983 . S
H135 C159 0.979 . S
H136 C159 0.977 . S
C137 C125 1.453 . S
C137 H166 0.982 . S
C137 H167 0.979 . S
C137 H168 0.977 . S
C138 C125 1.684 . S
C138 H163 0.979 . S
C138 H164 0.980 . S
C138 H165 0.983 . S
C139 C140 1.391 . S
C139 C144 1.391 . S
C139 H169 0.948 . S
C140 C139 1.391 . S
C140 C141 1.391 . S
C141 C140 1.391 . S
C141 C142 1.392 . S
C141 H170 0.947 . S
C142 C141 1.392 . S
C142 C143 1.419 . S
C142 H171 0.948 . S
C143 C142 1.419 . S
C143 C144 1.391 . S
C143 C147 1.397 . S
C144 C139 1.391 . S
C144 C143 1.391 . S
C144 C145 1.399 . S
C145 C144 1.399 . S
C145 C146 1.396 . S
C145 C148 1.453 . S
C145 C149 1.684 . S
C146 C127 1.723 . S
C146 C145 1.396 . S
C146 C147 1.394 . S
C147 C143 1.397 . S
C147 C146 1.394 . S
C147 C157 1.723 . S
C148 C145 1.453 . S
C148 H172 0.982 . S
C148 H173 0.979 . S
C148 H174 0.977 . S
C149 C145 1.684 . S
C149 H175 0.979 . S
C149 H176 0.980 . S
C149 H177 0.983 . S
C150 H126 0.948 . S
C150 C151 1.391 . S
C150 C155 1.391 . S
C151 C150 1.391 . S
C151 C152 1.391 . S
C152 H129 0.947 . S
C152 C151 1.391 . S
C152 C153 1.392 . S
C153 H130 0.948 . S
C153 C152 1.392 . S
C153 C154 1.419 . S
C154 C153 1.419 . S
C154 C155 1.391 . S
C154 C158 1.397 . S
C155 C150 1.391 . S
C155 C154 1.391 . S
C155 C156 1.399 . S
C156 C155 1.399 . S
C156 C157 1.396 . S
C156 C159 1.453 . S
C156 C160 1.684 . S
C157 C147 1.723 . S
C157 C156 1.396 . S
C157 C158 1.394 . S
C158 C128 1.723 . S
C158 C154 1.397 . S
C158 C157 1.394 . S
C159 H131 0.982 . S
C159 H135 0.979 . S
C159 H136 0.977 . S
C159 C156 1.453 . S
C160 H132 0.979 . S
C160 H133 0.980 . S
C160 H134 0.983 . S
C160 C156 1.684 . S
H161 C179 0.948 . S
H162 C120 0.948 . S
H163 C138 0.979 . S
H164 C138 0.980 . S
H165 C138 0.983 . S
H166 C137 0.982 . S
H167 C137 0.979 . S
H168 C137 0.977 . S
H169 C139 0.948 . S
H170 C141 0.947 . S
H171 C142 0.948 . S
H172 C148 0.982 . S
H173 C148 0.979 . S
H174 C148 0.977 . S
H175 C149 0.979 . S
H176 C149 0.980 . S
H177 C149 0.983 . S
H178 C122 0.947 . S
C179 C122 1.392 . S
C179 C123 1.419 . S
C179 H161 0.948 . S
C180 C181 1.391 . S
C180 C184 1.391 . S
C180 H222 0.948 . S
C181 C180 1.391 . S
C181 C182 1.391 . S
C182 C181 1.391 . S
C182 H238 0.947 . S
C182 C239 1.392 . S
C183 C184 1.391 . S
C183 C187 1.397 . S
C183 C239 1.419 . S
C184 C180 1.391 . S
C184 C183 1.391 . S
C184 C185 1.399 . S
C185 C184 1.399 . S
C185 C188 1.396 . S
C185 C197 1.453 . S
C185 C198 1.684 . S
H186 C210 0.948 . S
C187 C183 1.397 . S
C187 C188 1.394 . S
C187 C206 1.723 . S
C188 C185 1.396 . S
C188 C187 1.394 . S
C188 C218 1.723 . S
H189 C212 0.947 . S
H190 C213 0.948 . S
H191 C219 0.982 . S
H192 C220 0.979 . S
H193 C220 0.980 . S
H194 C220 0.983 . S
H195 C219 0.979 . S
H196 C219 0.977 . S
C197 C185 1.453 . S
C197 H226 0.982 . S
C197 H227 0.979 . S
C197 H228 0.977 . S
C198 C185 1.684 . S
C198 H223 0.979 . S
C198 H224 0.980 . S
C198 H225 0.983 . S
C199 C200 1.391 . S
C199 C204 1.391 1_556 S
C199 H229 0.948 . S
C200 C199 1.391 . S
C200 C201 1.391 . S
C201 C200 1.391 . S
C201 C202 1.392 1_556 S
C201 H230 0.947 . S
C202 C201 1.392 1_554 S
C202 C203 1.419 . S
C202 H231 0.948 . S
C203 C202 1.419 . S
C203 C204 1.391 . S
C203 C207 1.397 . S
C204 C199 1.391 1_554 S
C204 C203 1.391 . S
C204 C205 1.399 . S
C205 C204 1.399 . S
C205 C206 1.396 . S
C205 C208 1.453 . S
C205 C209 1.684 . S
C206 C187 1.723 . S
C206 C205 1.396 . S
C206 C207 1.394 . S
C207 C203 1.397 . S
C207 C206 1.394 . S
C207 C217 1.723 . S
C208 C205 1.453 . S
C208 H232 0.982 . S
C208 H233 0.979 . S
C208 H234 0.977 . S
C209 C205 1.684 . S
C209 H235 0.979 . S
C209 H236 0.980 . S
C209 H237 0.983 . S
C210 H186 0.948 . S
C210 C211 1.391 . S
C210 C215 1.391 . S
C211 C210 1.391 . S
C211 C212 1.391 . S
C212 H189 0.947 . S
C212 C211 1.391 . S
C212 C213 1.392 . S
C213 H190 0.948 . S
C213 C212 1.392 . S
C213 C214 1.419 . S
C214 C213 1.419 . S
C214 C215 1.391 . S
C214 C218 1.397 . S
C215 C210 1.391 . S
C215 C214 1.391 . S
C215 C216 1.399 . S
C216 C215 1.399 . S
C216 C217 1.396 . S
C216 C219 1.453 . S
C216 C220 1.684 . S
C217 C207 1.723 . S
C217 C216 1.396 . S
C217 C218 1.394 . S
C218 C188 1.723 . S
C218 C214 1.397 . S
C218 C217 1.394 . S
C219 H191 0.982 . S
C219 H195 0.979 . S
C219 H196 0.977 . S
C219 C216 1.453 . S
C220 H192 0.979 . S
C220 H193 0.980 . S
C220 H194 0.983 . S
C220 C216 1.684 . S
H221 C239 0.948 . S
H222 C180 0.948 . S
H223 C198 0.979 . S
H224 C198 0.980 . S
H225 C198 0.983 . S
H226 C197 0.982 . S
H227 C197 0.979 . S
H228 C197 0.977 . S
H229 C199 0.948 . S
H230 C201 0.947 . S
H231 C202 0.948 . S
H232 C208 0.982 . S
H233 C208 0.979 . S
H234 C208 0.977 . S
H235 C209 0.979 . S
H236 C209 0.980 . S
H237 C209 0.983 . S
H238 C182 0.947 . S
C239 C182 1.392 . S
C239 C183 1.419 . S
C239 H221 0.948 . S
C240 C241 1.391 . S
C240 C244 1.391 . S
C240 H282 0.948 . S
C241 C240 1.391 . S
C241 C242 1.391 . S
C242 C241 1.391 . S
C242 H298 0.947 . S
C242 C299 1.392 . S
C243 C244 1.391 . S
C243 C247 1.397 . S
C243 C299 1.419 . S
C244 C240 1.391 . S
C244 C243 1.391 . S
C244 C245 1.399 . S
C245 C244 1.399 . S
C245 C248 1.396 . S
C245 C257 1.453 . S
C245 C258 1.684 . S
H246 C270 0.948 . S
C247 C243 1.397 . S
C247 C248 1.394 . S
C247 C266 1.723 . S
C248 C245 1.396 . S
C248 C247 1.394 . S
C248 C278 1.723 . S
H249 C272 0.947 . S
H250 C273 0.948 . S
H251 C279 0.982 . S
H252 C280 0.979 . S
H253 C280 0.980 . S
H254 C280 0.983 . S
H255 C279 0.979 . S
H256 C279 0.977 . S
C257 C245 1.453 . S
C257 H286 0.982 . S
C257 H287 0.979 . S
C257 H288 0.977 . S
C258 C245 1.684 . S
C258 H283 0.979 . S
C258 H284 0.980 . S
C258 H285 0.983 . S
C259 C260 1.391 . S
C259 C264 1.391 . S
C259 H289 0.948 . S
C260 C259 1.391 . S
C260 C261 1.391 . S
C261 C260 1.391 . S
C261 C262 1.392 . S
C261 H290 0.947 . S
C262 C261 1.392 . S
C262 C263 1.419 . S
C262 H291 0.948 . S
C263 C262 1.419 . S
C263 C264 1.391 . S
C263 C267 1.397 . S
C264 C259 1.391 . S
C264 C263 1.391 . S
C264 C265 1.399 . S
C265 C264 1.399 . S
C265 C266 1.396 . S
C265 C268 1.453 . S
C265 C269 1.684 . S
C266 C247 1.723 . S
C266 C265 1.396 . S
C266 C267 1.394 . S
C267 C263 1.397 . S
C267 C266 1.394 . S
C267 C277 1.723 . S
C268 C265 1.453 . S
C268 H292 0.982 . S
C268 H293 0.979 . S
C268 H294 0.977 . S
C269 C265 1.684 . S
C269 H295 0.979 . S
C269 H296 0.980 . S
C269 H297 0.983 . S
C270 H246 0.948 . S
C270 C271 1.391 . S
C270 C275 1.391 . S
C271 C270 1.391 . S
C271 C272 1.391 . S
C272 H249 0.947 . S
C272 C271 1.391 . S
C272 C273 1.392 . S
C273 H250 0.948 . S
C273 C272 1.392 . S
C273 C274 1.419 . S
C274 C273 1.419 . S
C274 C275 1.391 . S
C274 C278 1.397 . S
C275 C270 1.391 . S
C275 C274 1.391 . S
C275 C276 1.399 . S
C276 C275 1.399 . S
C276 C277 1.396 . S
C276 C279 1.453 . S
C276 C280 1.684 . S
C277 C267 1.723 . S
C277 C276 1.396 . S
C277 C278 1.394 . S
C278 C248 1.723 . S
C278 C274 1.397 . S
C278 C277 1.394 . S
C279 H251 0.982 . S
C279 H255 0.979 . S
C279 H256 0.977 . S
C279 C276 1.453 . S
C280 H252 0.979 . S
C280 H253 0.980 . S
C280 H254 0.983 . S
C280 C276 1.684 . S
H281 C299 0.948 . S
H282 C240 0.948 . S
H283 C258 0.979 . S
H284 C258 0.980 . S
H285 C258 0.983 . S
H286 C257 0.982 . S
H287 C257 0.979 . S
H288 C257 0.977 . S
H289 C259 0.948 . S
H290 C261 0.947 . S
H291 C262 0.948 . S
H292 C268 0.982 . S
H293 C268 0.979 . S
H294 C268 0.977 . S
H295 C269 0.979 . S
H296 C269 0.980 . S
H297 C269 0.983 . S
H298 C242 0.947 . S
C299 C242 1.392 . S
C299 C243 1.419 . S
C299 H281 0.948 . S
C300 C301 1.391 . S
C300 C304 1.391 . S
C300 H342 0.948 . S
C301 C300 1.391 . S
C301 C302 1.391 . S
C302 C301 1.391 . S
C302 H358 0.947 . S
C302 C359 1.392 . S
C303 C304 1.391 . S
C303 C307 1.397 . S
C303 C359 1.419 . S
C304 C300 1.391 . S
C304 C303 1.391 . S
C304 C305 1.399 . S
C305 C304 1.399 . S
C305 C308 1.396 . S
C305 C317 1.453 . S
C305 C318 1.684 . S
H306 C330 0.948 . S
C307 C303 1.397 . S
C307 C308 1.394 . S
C307 C326 1.723 . S
C308 C305 1.396 . S
C308 C307 1.394 . S
C308 C338 1.723 . S
H309 C332 0.947 . S
H310 C333 0.948 . S
H311 C339 0.982 . S
H312 C340 0.979 . S
H313 C340 0.980 . S
H314 C340 0.983 . S
H315 C339 0.979 . S
H316 C339 0.977 . S
C317 C305 1.453 . S
C317 H346 0.982 . S
C317 H347 0.979 . S
C317 H348 0.977 . S
C318 C305 1.684 . S
C318 H343 0.979 . S
C318 H344 0.980 . S
C318 H345 0.983 . S
C319 C320 1.391 . S
C319 C324 1.391 1_556 S
C319 H349 0.948 . S
C320 C319 1.391 . S
C320 C321 1.391 . S
C321 C320 1.391 . S
C321 C322 1.392 1_556 S
C321 H350 0.947 . S
C322 C321 1.392 1_554 S
C322 C323 1.419 . S
C322 H351 0.948 . S
C323 C322 1.419 . S
C323 C324 1.391 . S
C323 C327 1.397 . S
C324 C319 1.391 1_554 S
C324 C323 1.391 . S
C324 C325 1.399 . S
C325 C324 1.399 . S
C325 C326 1.396 . S
C325 C328 1.453 . S
C325 C329 1.684 . S
C326 C307 1.723 . S
C326 C325 1.396 . S
C326 C327 1.394 . S
C327 C323 1.397 . S
C327 C326 1.394 . S
C327 C337 1.723 . S
C328 C325 1.453 . S
C328 H352 0.982 . S
C328 H353 0.979 . S
C328 H354 0.977 . S
C329 C325 1.684 . S
C329 H355 0.979 . S
C329 H356 0.980 . S
C329 H357 0.983 1_554 S
C330 H306 0.948 . S
C330 C331 1.391 . S
C330 C335 1.391 . S
C331 C330 1.391 . S
C331 C332 1.391 . S
C332 H309 0.947 . S
C332 C331 1.391 . S
C332 C333 1.392 . S
C333 H310 0.948 . S
C333 C332 1.392 . S
C333 C334 1.419 . S
C334 C333 1.419 . S
C334 C335 1.391 . S
C334 C338 1.397 . S
C335 C330 1.391 . S
C335 C334 1.391 . S
C335 C336 1.399 . S
C336 C335 1.399 . S
C336 C337 1.396 . S
C336 C339 1.453 . S
C336 C340 1.684 . S
C337 C327 1.723 . S
C337 C336 1.396 . S
C337 C338 1.394 . S
C338 C308 1.723 . S
C338 C334 1.397 . S
C338 C337 1.394 . S
C339 H311 0.982 . S
C339 H315 0.979 . S
C339 H316 0.977 . S
C339 C336 1.453 . S
C340 H312 0.979 . S
C340 H313 0.980 . S
C340 H314 0.983 . S
C340 C336 1.684 . S
H341 C359 0.948 . S
H342 C300 0.948 . S
H343 C318 0.979 . S
H344 C318 0.980 . S
H345 C318 0.983 . S
H346 C317 0.982 . S
H347 C317 0.979 . S
H348 C317 0.977 . S
H349 C319 0.948 . S
H350 C321 0.947 . S
H351 C322 0.948 . S
H352 C328 0.982 . S
H353 C328 0.979 . S
H354 C328 0.977 . S
H355 C329 0.979 . S
H356 C329 0.980 . S
H357 C329 0.983 1_556 S
H358 C302 0.947 . S
C359 C302 1.392 . S
C359 C303 1.419 . S
C359 H341 0.948 . S
C360 C361 1.391 . S
C360 C364 1.391 . S
C360 H402 0.948 . S
C361 C360 1.391 . S
C361 C362 1.391 . S
C362 C361 1.391 . S
C362 H418 0.947 . S
C362 C419 1.392 . S
C363 C364 1.391 . S
C363 C367 1.397 . S
C363 C419 1.419 . S
C364 C360 1.391 . S
C364 C363 1.391 . S
C364 C365 1.399 . S
C365 C364 1.399 . S
C365 C368 1.396 . S
C365 C377 1.453 . S
C365 C378 1.684 . S
H366 C390 0.948 . S
C367 C363 1.397 . S
C367 C368 1.394 . S
C367 C386 1.723 . S
C368 C365 1.396 . S
C368 C367 1.394 . S
C368 C398 1.723 . S
H369 C392 0.947 . S
H370 C393 0.948 . S
H371 C399 0.982 . S
H372 C400 0.979 . S
H373 C400 0.980 . S
H374 C400 0.983 . S
H375 C399 0.979 . S
H376 C399 0.977 . S
C377 C365 1.453 . S
C377 H406 0.982 . S
C377 H407 0.979 . S
C377 H408 0.977 . S
C378 C365 1.684 . S
C378 H403 0.979 . S
C378 H404 0.980 . S
C378 H405 0.983 . S
C379 C380 1.391 . S
C379 C384 1.391 . S
C379 H409 0.948 . S
C380 C379 1.391 . S
C380 C381 1.391 . S
C381 C380 1.391 . S
C381 C382 1.392 . S
C381 H410 0.947 . S
C382 C381 1.392 . S
C382 C383 1.419 . S
C382 H411 0.948 . S
C383 C382 1.419 . S
C383 C384 1.391 . S
C383 C387 1.397 . S
C384 C379 1.391 . S
C384 C383 1.391 . S
C384 C385 1.399 . S
C385 C384 1.399 . S
C385 C386 1.396 . S
C385 C388 1.453 . S
C385 C389 1.684 . S
C386 C367 1.723 . S
C386 C385 1.396 . S
C386 C387 1.394 . S
C387 C383 1.397 . S
C387 C386 1.394 . S
C387 C397 1.723 . S
C388 C385 1.453 . S
C388 H412 0.982 . S
C388 H413 0.979 . S
C388 H414 0.977 . S
C389 C385 1.684 . S
C389 H415 0.979 . S
C389 H416 0.980 . S
C389 H417 0.983 . S
C390 H366 0.948 . S
C390 C391 1.391 . S
C390 C395 1.391 . S
C391 C390 1.391 . S
C391 C392 1.391 . S
C392 H369 0.947 . S
C392 C391 1.391 . S
C392 C393 1.392 . S
C393 H370 0.948 . S
C393 C392 1.392 . S
C393 C394 1.419 . S
C394 C393 1.419 . S
C394 C395 1.391 . S
C394 C398 1.397 . S
C395 C390 1.391 . S
C395 C394 1.391 . S
C395 C396 1.399 . S
C396 C395 1.399 . S
C396 C397 1.396 . S
C396 C399 1.453 . S
C396 C400 1.684 . S
C397 C387 1.723 . S
C397 C396 1.396 . S
C397 C398 1.394 . S
C398 C368 1.723 . S
C398 C394 1.397 . S
C398 C397 1.394 . S
C399 H371 0.982 . S
C399 H375 0.979 . S
C399 H376 0.977 . S
C399 C396 1.453 . S
C400 H372 0.979 . S
C400 H373 0.980 . S
C400 H374 0.983 . S
C400 C396 1.684 . S
H401 C419 0.948 . S
H402 C360 0.948 . S
H403 C378 0.979 . S
H404 C378 0.980 . S
H405 C378 0.983 . S
H406 C377 0.982 . S
H407 C377 0.979 . S
H408 C377 0.977 . S
H409 C379 0.948 . S
H410 C381 0.947 . S
H411 C382 0.948 . S
H412 C388 0.982 . S
H413 C388 0.979 . S
H414 C388 0.977 . S
H415 C389 0.979 . S
H416 C389 0.980 . S
H417 C389 0.983 . S
H418 C362 0.947 . S
C419 C362 1.392 . S
C419 C363 1.419 . S
C419 H401 0.948 . S
C420 C421 1.391 . S
C420 C424 1.391 . S
C420 H462 0.948 . S
C421 C420 1.391 . S
C421 C422 1.391 . S
C422 C421 1.391 . S
C422 H478 0.947 . S
C422 C479 1.392 . S
C423 C424 1.391 . S
C423 C427 1.397 . S
C423 C479 1.419 . S
C424 C420 1.391 . S
C424 C423 1.391 . S
C424 C425 1.399 . S
C425 C424 1.399 . S
C425 C428 1.396 . S
C425 C437 1.453 . S
C425 C438 1.684 . S
H426 C450 0.948 . S
C427 C423 1.397 . S
C427 C428 1.394 . S
C427 C446 1.723 . S
C428 C425 1.396 . S
C428 C427 1.394 . S
C428 C458 1.723 . S
H429 C452 0.947 . S
H430 C453 0.948 . S
H431 C459 0.982 . S
H432 C460 0.979 . S
H433 C460 0.980 . S
H434 C460 0.983 . S
H435 C459 0.979 . S
H436 C459 0.977 . S
C437 C425 1.453 . S
C437 H466 0.982 . S
C437 H467 0.979 . S
C437 H468 0.977 . S
C438 C425 1.684 . S
C438 H463 0.979 . S
C438 H464 0.980 . S
C438 H465 0.983 . S
C439 C440 1.391 . S
C439 C444 1.391 1_554 S
C439 H469 0.948 . S
C440 C439 1.391 . S
C440 C441 1.391 . S
C441 C440 1.391 . S
C441 C442 1.392 1_554 S
C441 H470 0.947 . S
C442 C441 1.392 1_556 S
C442 C443 1.419 . S
C442 H471 0.948 . S
C443 C442 1.419 . S
C443 C444 1.391 . S
C443 C447 1.397 . S
C444 C439 1.391 1_556 S
C444 C443 1.391 . S
C444 C445 1.399 . S
C445 C444 1.399 . S
C445 C446 1.396 . S
C445 C448 1.453 . S
C445 C449 1.684 . S
C446 C427 1.723 . S
C446 C445 1.396 . S
C446 C447 1.394 . S
C447 C443 1.397 . S
C447 C446 1.394 . S
C447 C457 1.723 . S
C448 C445 1.453 . S
C448 H472 0.982 . S
C448 H473 0.979 . S
C448 H474 0.977 . S
C449 C445 1.684 . S
C449 H475 0.979 . S
C449 H476 0.980 . S
C449 H477 0.983 . S
C450 H426 0.948 . S
C450 C451 1.391 . S
C450 C455 1.391 . S
C451 C450 1.391 . S
C451 C452 1.391 . S
C452 H429 0.947 . S
C452 C451 1.391 . S
C452 C453 1.392 . S
C453 H430 0.948 . S
C453 C452 1.392 . S
C453 C454 1.419 . S
C454 C453 1.419 . S
C454 C455 1.391 . S
C454 C458 1.397 . S
C455 C450 1.391 . S
C455 C454 1.391 . S
C455 C456 1.399 . S
C456 C455 1.399 . S
C456 C457 1.396 . S
C456 C459 1.453 . S
C456 C460 1.684 . S
C457 C447 1.723 . S
C457 C456 1.396 . S
C457 C458 1.394 . S
C458 C428 1.723 . S
C458 C454 1.397 . S
C458 C457 1.394 . S
C459 H431 0.982 . S
C459 H435 0.979 . S
C459 H436 0.977 . S
C459 C456 1.453 . S
C460 H432 0.979 . S
C460 H433 0.980 . S
C460 H434 0.983 . S
C460 C456 1.684 . S
H461 C479 0.948 . S
H462 C420 0.948 . S
H463 C438 0.979 . S
H464 C438 0.980 . S
H465 C438 0.983 . S
H466 C437 0.982 . S
H467 C437 0.979 . S
H468 C437 0.977 . S
H469 C439 0.948 . S
H470 C441 0.947 . S
H471 C442 0.948 . S
H472 C448 0.982 . S
H473 C448 0.979 . S
H474 C448 0.977 . S
H475 C449 0.979 . S
H476 C449 0.980 . S
H477 C449 0.983 . S
H478 C422 0.947 . S
C479 C422 1.392 . S
C479 C423 1.419 . S
C479 H461 0.948 . S
Zn480 O486 1.920 1_455 S
Zn480 O492 1.898 . S
Zn480 O495 1.905 . S
Zn481 O489 1.905 1_655 S
Zn481 O490 1.898 . S
Zn481 O498 1.920 . S
Zn482 O485 2.080 1_455 S
Zn482 O488 2.114 . S
Zn482 O491 2.120 1_455 S
Zn482 O493 2.120 . S
Zn482 O494 2.114 . S
Zn482 O497 2.080 1_455 S
C483 O488 1.166 . S
C483 O489 1.182 . S
C484 O490 1.167 . S
C484 O491 1.299 . S
O485 Zn482 2.080 1_655 S
O485 C499 1.305 . S
O486 Zn480 1.920 1_655 S
O486 C499 1.234 . S
C487 O492 1.167 . S
C487 O493 1.299 . S
O488 Zn482 2.114 . S
O488 C483 1.166 . S
O489 Zn481 1.905 1_455 S
O489 C483 1.182 . S
O490 Zn481 1.898 . S
O490 C484 1.167 . S
O491 Zn482 2.120 1_655 S
O491 C484 1.299 . S
O492 Zn480 1.898 . S
O492 C487 1.167 . S
O493 Zn482 2.120 . S
O493 C487 1.299 . S
O494 Zn482 2.114 . S
O494 C496 1.166 . S
O495 Zn480 1.905 . S
O495 C496 1.182 . S
C496 O494 1.166 . S
C496 O495 1.182 . S
O497 Zn482 2.080 1_655 S
O497 C500 1.305 . S
O498 Zn481 1.920 . S
O498 C500 1.234 . S
C499 O485 1.305 . S
C499 O486 1.234 . S
C500 O497 1.305 . S
C500 O498 1.234 . S
Zn501 O507 1.920 . S
Zn501 O513 1.898 . S
Zn501 O516 1.905 . S
Zn502 O510 1.905 . S
Zn502 O511 1.898 . S
Zn502 O519 1.920 . S
Zn503 O506 2.080 . S
Zn503 O509 2.114 . S
Zn503 O512 2.120 . S
Zn503 O514 2.120 . S
Zn503 O515 2.114 . S
Zn503 O518 2.080 . S
C504 O509 1.166 . S
C504 O510 1.182 . S
C505 O511 1.167 . S
C505 O512 1.299 . S
O506 Zn503 2.080 . S
O506 C520 1.305 . S
O507 Zn501 1.920 . S
O507 C520 1.234 . S
C508 O513 1.167 . S
C508 O514 1.299 . S
O509 Zn503 2.114 . S
O509 C504 1.166 . S
O510 Zn502 1.905 . S
O510 C504 1.182 . S
O511 Zn502 1.898 . S
O511 C505 1.167 . S
O512 Zn503 2.120 . S
O512 C505 1.299 . S
O513 Zn501 1.898 . S
O513 C508 1.167 . S
O514 Zn503 2.120 . S
O514 C508 1.299 . S
O515 Zn503 2.114 . S
O515 C517 1.166 . S
O516 Zn501 1.905 . S
O516 C517 1.182 . S
C517 O515 1.166 . S
C517 O516 1.182 . S
O518 Zn503 2.080 . S
O518 C521 1.305 . S
O519 Zn502 1.920 . S
O519 C521 1.234 . S
C520 O506 1.305 . S
C520 O507 1.234 . S
C521 O518 1.305 . S
C521 O519 1.234 . S
Zn522 O528 1.920 . S
Zn522 O534 1.898 . S
Zn522 O537 1.905 1_455 S
Zn523 O531 1.905 . S
Zn523 O532 1.898 . S
Zn523 O540 1.920 1_655 S
Zn524 O527 2.080 . S
Zn524 O530 2.114 1_455 S
Zn524 O533 2.120 1_455 S
Zn524 O535 2.120 . S
Zn524 O536 2.114 1_455 S
Zn524 O539 2.080 . S
C525 O530 1.166 . S
C525 O531 1.182 . S
C526 O532 1.167 . S
C526 O533 1.299 . S
O527 Zn524 2.080 . S
O527 C541 1.305 . S
O528 Zn522 1.920 . S
O528 C541 1.234 . S
C529 O534 1.167 . S
C529 O535 1.299 . S
O530 Zn524 2.114 1_655 S
O530 C525 1.166 . S
O531 Zn523 1.905 . S
O531 C525 1.182 . S
O532 Zn523 1.898 . S
O532 C526 1.167 . S
O533 Zn524 2.120 1_655 S
O533 C526 1.299 . S
O534 Zn522 1.898 . S
O534 C529 1.167 . S
O535 Zn524 2.120 . S
O535 C529 1.299 . S
O536 Zn524 2.114 1_655 S
O536 C538 1.166 . S
O537 Zn522 1.905 1_655 S
O537 C538 1.182 . S
C538 O536 1.166 . S
C538 O537 1.182 . S
O539 Zn524 2.080 . S
O539 C542 1.305 . S
O540 Zn523 1.920 1_455 S
O540 C542 1.234 . S
C541 O527 1.305 . S
C541 O528 1.234 . S
C542 O539 1.305 . S
C542 O540 1.234 . S
Zn543 O549 1.920 . S
Zn543 O555 1.898 . S
Zn543 O558 1.905 . S
Zn544 O552 1.905 . S
Zn544 O553 1.898 . S
Zn544 O561 1.920 . S
Zn545 O548 2.080 . S
Zn545 O551 2.114 . S
Zn545 O554 2.120 . S
Zn545 O556 2.120 . S
Zn545 O557 2.114 . S
Zn545 O560 2.080 . S
C546 O551 1.166 . S
C546 O552 1.182 . S
C547 O553 1.167 . S
C547 O554 1.299 . S
O548 Zn545 2.080 . S
O548 C562 1.305 . S
O549 Zn543 1.920 . S
O549 C562 1.234 . S
C550 O555 1.167 . S
C550 O556 1.299 . S
O551 Zn545 2.114 . S
O551 C546 1.166 . S
O552 Zn544 1.905 . S
O552 C546 1.182 . S
O553 Zn544 1.898 . S
O553 C547 1.167 . S
O554 Zn545 2.120 . S
O554 C547 1.299 . S
O555 Zn543 1.898 . S
O555 C550 1.167 . S
O556 Zn545 2.120 . S
O556 C550 1.299 . S
O557 Zn545 2.114 . S
O557 C559 1.166 . S
O558 Zn543 1.905 . S
O558 C559 1.182 . S
C559 O557 1.166 . S
C559 O558 1.182 . S
O560 Zn545 2.080 . S
O560 C563 1.305 . S
O561 Zn544 1.920 . S
O561 C563 1.234 . S
C562 O548 1.305 . S
C562 O549 1.234 . S
C563 O560 1.305 . S
C563 O561 1.234 . S
C564 C565 1.363 1_545 S
C564 C570 1.379 . S
C564 N572 1.356 1_545 S
C565 C564 1.363 1_565 S
C565 C571 1.363 1_565 S
C566 C567 1.363 . S
C566 C571 1.379 . S
C566 N573 1.356 . S
C567 C566 1.363 . S
C567 C570 1.363 . S
N568 C570 1.356 . S
N568 H580 0.984 . S
N568 H581 0.985 . S
N569 C571 1.356 1_565 S
N569 H574 0.984 . S
N569 H575 0.985 . S
C570 C564 1.379 . S
C570 C567 1.363 . S
C570 N568 1.356 . S
C571 C565 1.363 1_545 S
C571 C566 1.379 . S
C571 N569 1.356 1_545 S
N572 C564 1.356 1_565 S
N572 H578 0.984 1_565 S
N572 H579 0.984 . S
N573 C566 1.356 . S
N573 H576 0.984 . S
N573 H577 0.985 . S
H574 N569 0.984 . S
H575 N569 0.985 . S
H576 N573 0.984 . S
H577 N573 0.985 . S
H578 N572 0.984 1_545 S
H579 N572 0.984 . S
H580 N568 0.984 . S
H581 N568 0.985 . S
C582 C583 1.363 . S
C582 C588 1.379 . S
C582 N590 1.356 . S
C583 C582 1.363 . S
C583 C589 1.363 . S
C584 C585 1.363 . S
C584 C589 1.379 . S
C584 N591 1.356 . S
C585 C584 1.363 . S
C585 C588 1.363 . S
N586 C588 1.356 . S
N586 H598 0.984 . S
N586 H599 0.985 . S
N587 C589 1.356 . S
N587 H592 0.984 . S
N587 H593 0.985 . S
C588 C582 1.379 . S
C588 C585 1.363 . S
C588 N586 1.356 . S
C589 C583 1.363 . S
C589 C584 1.379 . S
C589 N587 1.356 . S
N590 C582 1.356 . S
N590 H596 0.984 . S
N590 H597 0.984 . S
N591 C584 1.356 . S
N591 H594 0.984 . S
N591 H595 0.985 . S
H592 N587 0.984 . S
H593 N587 0.985 . S
H594 N591 0.984 . S
H595 N591 0.985 . S
H596 N590 0.984 . S
H597 N590 0.984 . S
H598 N586 0.984 . S
H599 N586 0.985 . S
C600 C601 1.363 . S
C600 C606 1.379 . S
C600 N608 1.356 . S
C601 C600 1.363 . S
C601 C607 1.363 . S
C602 C603 1.363 . S
C602 C607 1.379 . S
C602 N609 1.356 . S
C603 C602 1.363 . S
C603 C606 1.363 . S
N604 C606 1.356 . S
N604 H616 0.984 . S
N604 H617 0.985 . S
N605 C607 1.356 . S
N605 H610 0.984 . S
N605 H611 0.985 . S
C606 C600 1.379 . S
C606 C603 1.363 . S
C606 N604 1.356 . S
C607 C601 1.363 . S
C607 C602 1.379 . S
C607 N605 1.356 . S
N608 C600 1.356 . S
N608 H614 0.984 . S
N608 H615 0.984 . S
N609 C602 1.356 . S
N609 H612 0.984 . S
N609 H613 0.985 . S
H610 N605 0.984 . S
H611 N605 0.985 . S
H612 N609 0.984 . S
H613 N609 0.985 . S
H614 N608 0.984 . S
H615 N608 0.984 . S
H616 N604 0.984 . S
H617 N604 0.985 . S
C618 C619 1.363 1_545 S
C618 C624 1.379 . S
C618 N626 1.356 1_545 S
C619 C618 1.363 1_565 S
C619 C625 1.363 1_565 S
C620 C621 1.363 . S
C620 C625 1.379 . S
C620 N627 1.356 . S
C621 C620 1.363 . S
C621 C624 1.363 . S
N622 C624 1.356 . S
N622 H634 0.984 . S
N622 H635 0.985 . S
N623 C625 1.356 1_565 S
N623 H628 0.984 . S
N623 H629 0.985 . S
C624 C618 1.379 . S
C624 C621 1.363 . S
C624 N622 1.356 . S
C625 C619 1.363 1_545 S
C625 C620 1.379 . S
C625 N623 1.356 1_545 S
N626 C618 1.356 1_565 S
N626 H632 0.984 . S
N626 H633 0.984 . S
N627 C620 1.356 . S
N627 H630 0.984 . S
N627 H631 0.985 . S
H628 N623 0.984 . S
H629 N623 0.985 . S
H630 N627 0.984 . S
H631 N627 0.985 . S
H632 N626 0.984 . S
H633 N626 0.984 . S
H634 N622 0.984 . S
H635 N622 0.985 . S
C636 C637 1.363 1_565 S
C636 C642 1.379 . S
C636 N644 1.356 . S
C637 C636 1.363 1_545 S
C637 C643 1.363 1_545 S
C638 C639 1.363 . S
C638 C643 1.379 . S
C638 N645 1.356 . S
C639 C638 1.363 . S
C639 C642 1.363 . S
N640 C642 1.356 . S
N640 H652 0.984 . S
N640 H653 0.985 . S
N641 C643 1.356 1_545 S
N641 H646 0.984 . S
N641 H647 0.985 . S
C642 C636 1.379 . S
C642 C639 1.363 . S
C642 N640 1.356 . S
C643 C637 1.363 1_565 S
C643 C638 1.379 . S
C643 N641 1.356 1_565 S
N644 C636 1.356 . S
N644 H650 0.984 . S
N644 H651 0.984 1_565 S
N645 C638 1.356 . S
N645 H648 0.984 . S
N645 H649 0.985 . S
H646 N641 0.984 . S
H647 N641 0.985 . S
H648 N645 0.984 . S
H649 N645 0.985 . S
H650 N644 0.984 . S
H651 N644 0.984 1_545 S
H652 N640 0.984 . S
H653 N640 0.985 . S
C654 C655 1.363 . S
C654 C660 1.379 . S
C654 N662 1.356 . S
C655 C654 1.363 . S
C655 C661 1.363 . S
C656 C657 1.363 . S
C656 C661 1.379 . S
C656 N663 1.356 . S
C657 C656 1.363 . S
C657 C660 1.363 . S
N658 C660 1.356 . S
N658 H670 0.984 . S
N658 H671 0.985 . S
N659 C661 1.356 . S
N659 H664 0.984 . S
N659 H665 0.985 . S
C660 C654 1.379 . S
C660 C657 1.363 . S
C660 N658 1.356 . S
C661 C655 1.363 . S
C661 C656 1.379 . S
C661 N659 1.356 . S
N662 C654 1.356 . S
N662 H668 0.984 . S
N662 H669 0.984 . S
N663 C656 1.356 . S
N663 H666 0.984 . S
N663 H667 0.985 . S
H664 N659 0.984 . S
H665 N659 0.985 . S
H666 N663 0.984 . S
H667 N663 0.985 . S
H668 N662 0.984 . S
H669 N662 0.984 . S
H670 N658 0.984 . S
H671 N658 0.985 . S
C672 C673 1.363 . S
C672 C678 1.379 . S
C672 N680 1.356 . S
C673 C672 1.363 . S
C673 C679 1.363 . S
C674 C675 1.363 . S
C674 C679 1.379 . S
C674 N681 1.356 . S
C675 C674 1.363 . S
C675 C678 1.363 . S
N676 C678 1.356 . S
N676 H688 0.984 . S
N676 H689 0.985 . S
N677 C679 1.356 . S
N677 H682 0.984 . S
N677 H683 0.985 . S
C678 C672 1.379 . S
C678 C675 1.363 . S
C678 N676 1.356 . S
C679 C673 1.363 . S
C679 C674 1.379 . S
C679 N677 1.356 . S
N680 C672 1.356 . S
N680 H686 0.984 . S
N680 H687 0.984 . S
N681 C674 1.356 . S
N681 H684 0.984 . S
N681 H685 0.985 . S
H682 N677 0.984 . S
H683 N677 0.985 . S
H684 N681 0.984 . S
H685 N681 0.985 . S
H686 N680 0.984 . S
H687 N680 0.984 . S
H688 N676 0.984 . S
H689 N676 0.985 . S
C690 C691 1.363 . S
C690 C696 1.379 1_545 S
C690 N698 1.356 . S
C691 C690 1.363 . S
C691 C697 1.363 1_545 S
C692 C693 1.363 . S
C692 C697 1.379 . S
C692 N699 1.356 . S
C693 C692 1.363 . S
C693 C696 1.363 . S
N694 C696 1.356 . S
N694 H706 0.984 . S
N694 H707 0.985 . S
N695 C697 1.356 1_545 S
N695 H700 0.984 . S
N695 H701 0.985 1_545 S
C696 C690 1.379 1_565 S
C696 C693 1.363 . S
C696 N694 1.356 . S
C697 C691 1.363 1_565 S
C697 C692 1.379 . S
C697 N695 1.356 1_565 S
N698 C690 1.356 . S
N698 H704 0.984 . S
N698 H705 0.984 . S
N699 C692 1.356 . S
N699 H702 0.984 . S
N699 H703 0.985 . S
H700 N695 0.984 . S
H701 N695 0.985 1_565 S
H702 N699 0.984 . S
H703 N699 0.985 . S
H704 N698 0.984 . S
H705 N698 0.984 . S
H706 N694 0.984 . S
H707 N694 0.985 . S
C708 C709 1.363 . S
C708 C714 1.379 . S
C708 N716 1.356 . S
C709 C708 1.363 . S
C709 C715 1.363 . S
C710 C711 1.363 . S
C710 C715 1.379 . S
C710 N717 1.356 . S
C711 C710 1.363 . S
C711 C714 1.363 . S
N712 C714 1.356 . S
N712 H724 0.984 . S
N712 H725 0.985 . S
N713 C715 1.356 . S
N713 H718 0.984 . S
N713 H719 0.985 . S
C714 C708 1.379 . S
C714 C711 1.363 . S
C714 N712 1.356 . S
C715 C709 1.363 . S
C715 C710 1.379 . S
C715 N713 1.356 . S
N716 C708 1.356 . S
N716 H722 0.984 . S
N716 H723 0.984 . S
N717 C710 1.356 . S
N717 H720 0.984 . S
N717 H721 0.985 . S
H718 N713 0.984 . S
H719 N713 0.985 . S
H720 N717 0.984 . S
H721 N717 0.985 . S
H722 N716 0.984 . S
H723 N716 0.984 . S
H724 N712 0.984 . S
H725 N712 0.985 . S
C726 C727 1.363 . S
C726 C732 1.379 . S
C726 N734 1.356 . S
C727 C726 1.363 . S
C727 C733 1.363 . S
C728 C729 1.363 . S
C728 C733 1.379 . S
C728 N735 1.356 . S
C729 C728 1.363 . S
C729 C732 1.363 . S
N730 C732 1.356 . S
N730 H742 0.984 . S
N730 H743 0.985 . S
N731 C733 1.356 . S
N731 H736 0.984 . S
N731 H737 0.985 . S
C732 C726 1.379 . S
C732 C729 1.363 . S
C732 N730 1.356 . S
C733 C727 1.363 . S
C733 C728 1.379 . S
C733 N731 1.356 . S
N734 C726 1.356 . S
N734 H740 0.984 . S
N734 H741 0.984 . S
N735 C728 1.356 . S
N735 H738 0.984 . S
N735 H739 0.985 . S
H736 N731 0.984 . S
H737 N731 0.985 . S
H738 N735 0.984 . S
H739 N735 0.985 . S
H740 N734 0.984 . S
H741 N734 0.984 . S
H742 N730 0.984 . S
H743 N730 0.985 . S
C744 C745 1.363 . S
C744 C750 1.379 . S
C744 N752 1.356 . S
C745 C744 1.363 . S
C745 C751 1.363 . S
C746 C747 1.363 . S
C746 C751 1.379 . S
C746 N753 1.356 . S
C747 C746 1.363 . S
C747 C750 1.363 . S
N748 C750 1.356 . S
N748 H760 0.984 . S
N748 H761 0.985 . S
N749 C751 1.356 . S
N749 H754 0.984 . S
N749 H755 0.985 . S
C750 C744 1.379 . S
C750 C747 1.363 . S
C750 N748 1.356 . S
C751 C745 1.363 . S
C751 C746 1.379 . S
C751 N749 1.356 . S
N752 C744 1.356 . S
N752 H758 0.984 . S
N752 H759 0.984 . S
N753 C746 1.356 . S
N753 H756 0.984 . S
N753 H757 0.985 . S
H754 N749 0.984 . S
H755 N749 0.985 . S
H756 N753 0.984 . S
H757 N753 0.985 . S
H758 N752 0.984 . S
H759 N752 0.984 . S
H760 N748 0.984 . S
H761 N748 0.985 . S
C762 C763 1.363 . S
C762 C768 1.379 . S
C762 N770 1.356 . S
C763 C762 1.363 . S
C763 C769 1.363 . S
C764 C765 1.363 . S
C764 C769 1.379 . S
C764 N771 1.356 . S
C765 C764 1.363 . S
C765 C768 1.363 . S
N766 C768 1.356 . S
N766 H778 0.984 . S
N766 H779 0.985 . S
N767 C769 1.356 . S
N767 H772 0.984 . S
N767 H773 0.985 . S
C768 C762 1.379 . S
C768 C765 1.363 . S
C768 N766 1.356 . S
C769 C763 1.363 . S
C769 C764 1.379 . S
C769 N767 1.356 . S
N770 C762 1.356 . S
N770 H776 0.984 . S
N770 H777 0.984 . S
N771 C764 1.356 . S
N771 H774 0.984 . S
N771 H775 0.985 . S
H772 N767 0.984 . S
H773 N767 0.985 . S
H774 N771 0.984 . S
H775 N771 0.985 . S
H776 N770 0.984 . S
H777 N770 0.984 . S
H778 N766 0.984 . S
H779 N766 0.985 . S
C780 C781 1.363 . S
C780 C786 1.379 . S
C780 N788 1.356 . S
C781 C780 1.363 . S
C781 C787 1.363 . S
C782 C783 1.363 . S
C782 C787 1.379 . S
C782 N789 1.356 . S
C783 C782 1.363 . S
C783 C786 1.363 . S
N784 C786 1.356 . S
N784 H796 0.984 . S
N784 H797 0.985 . S
N785 C787 1.356 . S
N785 H790 0.984 . S
N785 H791 0.985 . S
C786 C780 1.379 . S
C786 C783 1.363 . S
C786 N784 1.356 . S
C787 C781 1.363 . S
C787 C782 1.379 . S
C787 N785 1.356 . S
N788 C780 1.356 . S
N788 H794 0.984 . S
N788 H795 0.984 . S
N789 C782 1.356 . S
N789 H792 0.984 . S
N789 H793 0.985 . S
H790 N785 0.984 . S
H791 N785 0.985 . S
H792 N789 0.984 . S
H793 N789 0.985 . S
H794 N788 0.984 . S
H795 N788 0.984 . S
H796 N784 0.984 . S
H797 N784 0.985 . S
C798 C799 1.363 . S
C798 C804 1.379 . S
C798 N806 1.356 . S
C799 C798 1.363 . S
C799 C805 1.363 . S
C800 C801 1.363 . S
C800 C805 1.379 . S
C800 N807 1.356 . S
C801 C800 1.363 . S
C801 C804 1.363 . S
N802 C804 1.356 . S
N802 H814 0.984 . S
N802 H815 0.985 . S
N803 C805 1.356 . S
N803 H808 0.984 . S
N803 H809 0.985 . S
C804 C798 1.379 . S
C804 C801 1.363 . S
C804 N802 1.356 . S
C805 C799 1.363 . S
C805 C800 1.379 . S
C805 N803 1.356 . S
N806 C798 1.356 . S
N806 H812 0.984 . S
N806 H813 0.984 . S
N807 C800 1.356 . S
N807 H810 0.984 . S
N807 H811 0.985 . S
H808 N803 0.984 . S
H809 N803 0.985 . S
H810 N807 0.984 . S
H811 N807 0.985 . S
H812 N806 0.984 . S
H813 N806 0.984 . S
H814 N802 0.984 . S
H815 N802 0.985 . S
C816 C817 1.363 . S
C816 C822 1.379 . S
C816 N824 1.356 . S
C817 C816 1.363 . S
C817 C823 1.363 . S
C818 C819 1.363 . S
C818 C823 1.379 . S
C818 N825 1.356 . S
C819 C818 1.363 . S
C819 C822 1.363 . S
N820 C822 1.356 . S
N820 H832 0.984 . S
N820 H833 0.985 . S
N821 C823 1.356 . S
N821 H826 0.984 . S
N821 H827 0.985 . S
C822 C816 1.379 . S
C822 C819 1.363 . S
C822 N820 1.356 . S
C823 C817 1.363 . S
C823 C818 1.379 . S
C823 N821 1.356 . S
N824 C816 1.356 . S
N824 H830 0.984 . S
N824 H831 0.984 . S
N825 C818 1.356 . S
N825 H828 0.984 . S
N825 H829 0.985 . S
H826 N821 0.984 . S
H827 N821 0.985 . S
H828 N825 0.984 . S
H829 N825 0.985 . S
H830 N824 0.984 . S
H831 N824 0.984 . S
H832 N820 0.984 . S
H833 N820 0.985 . S
C834 C835 1.363 . S
C834 C840 1.379 . S
C834 N842 1.356 . S
C835 C834 1.363 . S
C835 C841 1.363 . S
C836 C837 1.363 . S
C836 C841 1.379 . S
C836 N843 1.356 . S
C837 C836 1.363 . S
C837 C840 1.363 . S
N838 C840 1.356 . S
N838 H850 0.984 . S
N838 H851 0.985 . S
N839 C841 1.356 . S
N839 H844 0.984 . S
N839 H845 0.985 . S
C840 C834 1.379 . S
C840 C837 1.363 . S
C840 N838 1.356 . S
C841 C835 1.363 . S
C841 C836 1.379 . S
C841 N839 1.356 . S
N842 C834 1.356 . S
N842 H848 0.984 . S
N842 H849 0.984 . S
N843 C836 1.356 . S
N843 H846 0.984 . S
N843 H847 0.985 . S
H844 N839 0.984 . S
H845 N839 0.985 . S
H846 N843 0.984 . S
H847 N843 0.985 . S
H848 N842 0.984 . S
H849 N842 0.984 . S
H850 N838 0.984 . S
H851 N838 0.985 . S
C852 C853 1.363 . S
C852 C858 1.379 . S
C852 N860 1.356 . S
C853 C852 1.363 . S
C853 C859 1.363 . S
C854 C855 1.363 . S
C854 C859 1.379 . S
C854 N861 1.356 . S
C855 C854 1.363 . S
C855 C858 1.363 . S
N856 C858 1.356 . S
N856 H868 0.984 . S
N856 H869 0.985 . S
N857 C859 1.356 . S
N857 H862 0.984 . S
N857 H863 0.985 . S
C858 C852 1.379 . S
C858 C855 1.363 . S
C858 N856 1.356 . S
C859 C853 1.363 . S
C859 C854 1.379 . S
C859 N857 1.356 . S
N860 C852 1.356 . S
N860 H866 0.984 . S
N860 H867 0.984 . S
N861 C854 1.356 . S
N861 H864 0.984 . S
N861 H865 0.985 . S
H862 N857 0.984 . S
H863 N857 0.985 . S
H864 N861 0.984 . S
H865 N861 0.985 . S
H866 N860 0.984 . S
H867 N860 0.984 . S
H868 N856 0.984 . S
H869 N856 0.985 . S
C870 C871 1.363 . S
C870 C876 1.379 . S
C870 N878 1.356 . S
C871 C870 1.363 . S
C871 C877 1.363 . S
C872 C873 1.363 . S
C872 C877 1.379 . S
C872 N879 1.356 . S
C873 C872 1.363 . S
C873 C876 1.363 . S
N874 C876 1.356 . S
N874 H886 0.984 . S
N874 H887 0.985 . S
N875 C877 1.356 . S
N875 H880 0.984 . S
N875 H881 0.985 . S
C876 C870 1.379 . S
C876 C873 1.363 . S
C876 N874 1.356 . S
C877 C871 1.363 . S
C877 C872 1.379 . S
C877 N875 1.356 . S
N878 C870 1.356 . S
N878 H884 0.984 . S
N878 H885 0.984 . S
N879 C872 1.356 . S
N879 H882 0.984 . S
N879 H883 0.985 . S
H880 N875 0.984 . S
H881 N875 0.985 . S
H882 N879 0.984 . S
H883 N879 0.985 . S
H884 N878 0.984 . S
H885 N878 0.984 . S
H886 N874 0.984 . S
H887 N874 0.985 . S
C888 C889 1.363 . S
C888 C894 1.379 . S
C888 N896 1.356 . S
C889 C888 1.363 . S
C889 C895 1.363 . S
C890 C891 1.363 . S
C890 C895 1.379 . S
C890 N897 1.356 . S
C891 C890 1.363 . S
C891 C894 1.363 . S
N892 C894 1.356 . S
N892 H904 0.984 . S
N892 H905 0.985 . S
N893 C895 1.356 . S
N893 H898 0.984 . S
N893 H899 0.985 . S
C894 C888 1.379 . S
C894 C891 1.363 . S
C894 N892 1.356 . S
C895 C889 1.363 . S
C895 C890 1.379 . S
C895 N893 1.356 . S
N896 C888 1.356 . S
N896 H902 0.984 . S
N896 H903 0.984 . S
N897 C890 1.356 . S
N897 H900 0.984 . S
N897 H901 0.985 . S
H898 N893 0.984 . S
H899 N893 0.985 . S
H900 N897 0.984 . S
H901 N897 0.985 . S
H902 N896 0.984 . S
H903 N896 0.984 . S
H904 N892 0.984 . S
H905 N892 0.985 . S
C906 C907 1.363 . S
C906 C912 1.379 . S
C906 N914 1.356 . S
C907 C906 1.363 . S
C907 C913 1.363 . S
C908 C909 1.363 . S
C908 C913 1.379 . S
C908 N915 1.356 . S
C909 C908 1.363 . S
C909 C912 1.363 . S
N910 C912 1.356 . S
N910 H922 0.984 . S
N910 H923 0.985 . S
N911 C913 1.356 . S
N911 H916 0.984 . S
N911 H917 0.985 . S
C912 C906 1.379 . S
C912 C909 1.363 . S
C912 N910 1.356 . S
C913 C907 1.363 . S
C913 C908 1.379 . S
C913 N911 1.356 . S
N914 C906 1.356 . S
N914 H920 0.984 . S
N914 H921 0.984 . S
N915 C908 1.356 . S
N915 H918 0.984 . S
N915 H919 0.985 . S
H916 N911 0.984 . S
H917 N911 0.985 . S
H918 N915 0.984 . S
H919 N915 0.985 . S
H920 N914 0.984 . S
H921 N914 0.984 . S
H922 N910 0.984 . S
H923 N910 0.985 . S
C924 C925 1.363 . S
C924 C930 1.379 . S
C924 N932 1.356 . S
C925 C924 1.363 . S
C925 C931 1.363 . S
C926 C927 1.363 . S
C926 C931 1.379 . S
C926 N933 1.356 . S
C927 C926 1.363 . S
C927 C930 1.363 . S
N928 C930 1.356 . S
N928 H940 0.984 . S
N928 H941 0.985 . S
N929 C931 1.356 . S
N929 H934 0.984 . S
N929 H935 0.985 . S
C930 C924 1.379 . S
C930 C927 1.363 . S
C930 N928 1.356 . S
C931 C925 1.363 . S
C931 C926 1.379 . S
C931 N929 1.356 . S
N932 C924 1.356 . S
N932 H938 0.984 . S
N932 H939 0.984 . S
N933 C926 1.356 . S
N933 H936 0.984 . S
N933 H937 0.985 . S
H934 N929 0.984 . S
H935 N929 0.985 . S
H936 N933 0.984 . S
H937 N933 0.985 . S
H938 N932 0.984 . S
H939 N932 0.984 . S
H940 N928 0.984 . S
H941 N928 0.985 . S
C942 C943 1.363 . S
C942 C948 1.379 . S
C942 N950 1.356 . S
C943 C942 1.363 . S
C943 C949 1.363 . S
C944 C945 1.363 . S
C944 C949 1.379 . S
C944 N951 1.356 . S
C945 C944 1.363 . S
C945 C948 1.363 . S
N946 C948 1.356 . S
N946 H958 0.984 . S
N946 H959 0.985 . S
N947 C949 1.356 . S
N947 H952 0.984 . S
N947 H953 0.985 . S
C948 C942 1.379 . S
C948 C945 1.363 . S
C948 N946 1.356 . S
C949 C943 1.363 . S
C949 C944 1.379 . S
C949 N947 1.356 . S
N950 C942 1.356 . S
N950 H956 0.984 . S
N950 H957 0.984 . S
N951 C944 1.356 . S
N951 H954 0.984 . S
N951 H955 0.985 . S
H952 N947 0.984 . S
H953 N947 0.985 . S
H954 N951 0.984 . S
H955 N951 0.985 . S
H956 N950 0.984 . S
H957 N950 0.984 . S
H958 N946 0.984 . S
H959 N946 0.985 . S
C960 C961 1.363 . S
C960 C966 1.379 . S
C960 N968 1.356 . S
C961 C960 1.363 . S
C961 C967 1.363 . S
C962 C963 1.363 . S
C962 C967 1.379 . S
C962 N969 1.356 . S
C963 C962 1.363 . S
C963 C966 1.363 . S
N964 C966 1.356 . S
N964 H976 0.984 . S
N964 H977 0.985 . S
N965 C967 1.356 . S
N965 H970 0.984 . S
N965 H971 0.985 . S
C966 C960 1.379 . S
C966 C963 1.363 . S
C966 N964 1.356 . S
C967 C961 1.363 . S
C967 C962 1.379 . S
C967 N965 1.356 . S
N968 C960 1.356 . S
N968 H974 0.984 . S
N968 H975 0.984 . S
N969 C962 1.356 . S
N969 H972 0.984 . S
N969 H973 0.985 . S
H970 N965 0.984 . S
H971 N965 0.985 . S
H972 N969 0.984 . S
H973 N969 0.985 . S
H974 N968 0.984 . S
H975 N968 0.984 . S
H976 N964 0.984 . S
H977 N964 0.985 . S
C978 C979 1.363 . S
C978 C984 1.379 . S
C978 N986 1.356 . S
C979 C978 1.363 . S
C979 C985 1.363 . S
C980 C981 1.363 . S
C980 C985 1.379 . S
C980 N987 1.356 . S
C981 C980 1.363 . S
C981 C984 1.363 . S
N982 C984 1.356 . S
N982 H994 0.984 . S
N982 H995 0.985 . S
N983 C985 1.356 . S
N983 H988 0.984 . S
N983 H989 0.985 . S
C984 C978 1.379 . S
C984 C981 1.363 . S
C984 N982 1.356 . S
C985 C979 1.363 . S
C985 C980 1.379 . S
C985 N983 1.356 . S
N986 C978 1.356 . S
N986 H992 0.984 . S
N986 H993 0.984 . S
N987 C980 1.356 . S
N987 H990 0.984 . S
N987 H991 0.985 . S
H988 N983 0.984 . S
H989 N983 0.985 . S
H990 N987 0.984 . S
H991 N987 0.985 . S
H992 N986 0.984 . S
H993 N986 0.984 . S
H994 N982 0.984 . S
H995 N982 0.985 . S
C565 C361 1.423 . S
C567 C496 1.493 . S
C585 C504 1.493 . S
C583 C451 1.507 . S
C603 C508 1.475 . S
C601 C241 1.418 . S
C619 C331 1.492 . S
C621 C484 1.475 . S
C639 C525 1.493 . S
C637 C140 1.535 . S
C657 C559 1.493 . S
C655 C211 1.535 . S
C673 C20 1.522 . S
C675 C547 1.475 . S
C691 C91 1.523 . S
C693 C529 1.475 . S
C711 C483 1.344 . S
C709 C80 1.438 . S
C729 C517 1.344 . S
C727 C1 1.438 . S
C747 C521 1.344 . S
C745 C200 1.438 . S
C765 C499 1.344 . S
C763 C121 1.438 . S
C783 C538 1.344 . S
C781 C320 1.417 . S
C799 C260 1.502 . S
C801 C546 1.344 . S
C819 C562 1.344 . S
C817 C440 1.421 . S
C835 C380 1.501 . S
C837 C542 1.344 . S
C855 C487 1.309 . S
C853 C31 1.510 . S
C873 C505 1.309 . S
C871 C61 1.510 . S
C889 C151 1.493 . S
C891 C520 1.308 . S
C909 C500 1.308 . S
C907 C181 1.493 . S
C927 C526 1.309 . S
C925 C271 1.488 . S
C943 C301 1.490 . S
C945 C550 1.309 . S
C961 C391 1.476 . S
C963 C563 1.308 . S
C979 C421 1.476 . S
C981 C541 1.308 . S
