# Generated by pormake.
# Topology ptr, (4,4)-cn, num edge types: 1
# Building blocks:
#     Node 0, Type 0, BuildingBlock: KUFVIS_clean_sbu_0, # of connection points: 4
#     Node 1, Type 0, BuildingBlock: KUFVIS_clean_sbu_0, # of connection points: 4
#     Node 2, Type 0, BuildingBlock: KUFVIS_clean_sbu_0, # of connection points: 4
#     Node 3, Type 0, BuildingBlock: KUFVIS_clean_sbu_0, # of connection points: 4
#     Node 4, Type 0, BuildingBlock: KUFVIS_clean_sbu_0, # of connection points: 4
#     Node 5, Type 0, BuildingBlock: KUFVIS_clean_sbu_0, # of connection points: 4
#     Node 6, Type 0, BuildingBlock: KUFVIS_clean_sbu_0, # of connection points: 4
#     Node 7, Type 0, BuildingBlock: KUFVIS_clean_sbu_0, # of connection points: 4
#     Node 8, Type 0, BuildingBlock: KUFVIS_clean_sbu_0, # of connection points: 4
#     Node 9, Type 0, BuildingBlock: KUFVIS_clean_sbu_0, # of connection points: 4
#     Node 10, Type 0, BuildingBlock: KUFVIS_clean_sbu_0, # of connection points: 4
#     Node 11, Type 0, BuildingBlock: KUFVIS_clean_sbu_0, # of connection points: 4
#     Node 12, Type 0, BuildingBlock: KUFVIS_clean_sbu_0, # of connection points: 4
#     Node 13, Type 0, BuildingBlock: KUFVIS_clean_sbu_0, # of connection points: 4
#     Node 14, Type 0, BuildingBlock: KUFVIS_clean_sbu_0, # of connection points: 4
#     Node 15, Type 0, BuildingBlock: KUFVIS_clean_sbu_0, # of connection points: 4
#     Node 16, Type 0, BuildingBlock: KUFVIS_clean_sbu_0, # of connection points: 4
#     Node 17, Type 0, BuildingBlock: KUFVIS_clean_sbu_0, # of connection points: 4
#     Node 18, Type 1, BuildingBlock: NAHDIM_clean_linker_0, # of connection points: 4
#     Node 19, Type 1, BuildingBlock: NAHDIM_clean_linker_0, # of connection points: 4
#     Node 20, Type 1, BuildingBlock: NAHDIM_clean_linker_0, # of connection points: 4
#     Node 21, Type 1, BuildingBlock: NAHDIM_clean_linker_0, # of connection points: 4
#     Node 22, Type 1, BuildingBlock: NAHDIM_clean_linker_0, # of connection points: 4
#     Node 23, Type 1, BuildingBlock: NAHDIM_clean_linker_0, # of connection points: 4
#     Node 24, Type 1, BuildingBlock: NAHDIM_clean_linker_0, # of connection points: 4
#     Node 25, Type 1, BuildingBlock: NAHDIM_clean_linker_0, # of connection points: 4
#     Node 26, Type 1, BuildingBlock: NAHDIM_clean_linker_0, # of connection points: 4
#     Node 27, Type 1, BuildingBlock: NAHDIM_clean_linker_0, # of connection points: 4
#     Node 28, Type 1, BuildingBlock: NAHDIM_clean_linker_0, # of connection points: 4
#     Node 29, Type 1, BuildingBlock: NAHDIM_clean_linker_0, # of connection points: 4
#     Node 30, Type 1, BuildingBlock: NAHDIM_clean_linker_0, # of connection points: 4
#     Node 31, Type 1, BuildingBlock: NAHDIM_clean_linker_0, # of connection points: 4
#     Node 32, Type 1, BuildingBlock: NAHDIM_clean_linker_0, # of connection points: 4
#     Node 33, Type 1, BuildingBlock: NAHDIM_clean_linker_0, # of connection points: 4
#     Node 34, Type 1, BuildingBlock: NAHDIM_clean_linker_0, # of connection points: 4
#     Node 35, Type 1, BuildingBlock: NAHDIM_clean_linker_0, # of connection points: 4
#     Edge 36, Type (0, 1), BuildingBlock: MIFKUJ_clean_linker_0, # of connection points: 2
#     Edge 37, Type (0, 1), BuildingBlock: MIFKUJ_clean_linker_0, # of connection points: 2
#     Edge 38, Type (0, 1), BuildingBlock: MIFKUJ_clean_linker_0, # of connection points: 2
#     Edge 39, Type (0, 1), BuildingBlock: MIFKUJ_clean_linker_0, # of connection points: 2
#     Edge 40, Type (0, 1), BuildingBlock: MIFKUJ_clean_linker_0, # of connection points: 2
#     Edge 41, Type (0, 1), BuildingBlock: MIFKUJ_clean_linker_0, # of connection points: 2
#     Edge 42, Type (0, 1), BuildingBlock: MIFKUJ_clean_linker_0, # of connection points: 2
#     Edge 43, Type (0, 1), BuildingBlock: MIFKUJ_clean_linker_0, # of connection points: 2
#     Edge 44, Type (0, 1), BuildingBlock: MIFKUJ_clean_linker_0, # of connection points: 2
#     Edge 45, Type (0, 1), BuildingBlock: MIFKUJ_clean_linker_0, # of connection points: 2
#     Edge 46, Type (0, 1), BuildingBlock: MIFKUJ_clean_linker_0, # of connection points: 2
#     Edge 47, Type (0, 1), BuildingBlock: MIFKUJ_clean_linker_0, # of connection points: 2
#     Edge 48, Type (0, 1), BuildingBlock: MIFKUJ_clean_linker_0, # of connection points: 2
#     Edge 49, Type (0, 1), BuildingBlock: MIFKUJ_clean_linker_0, # of connection points: 2
#     Edge 50, Type (0, 1), BuildingBlock: MIFKUJ_clean_linker_0, # of connection points: 2
#     Edge 51, Type (0, 1), BuildingBlock: MIFKUJ_clean_linker_0, # of connection points: 2
#     Edge 52, Type (0, 1), BuildingBlock: MIFKUJ_clean_linker_0, # of connection points: 2
#     Edge 53, Type (0, 1), BuildingBlock: MIFKUJ_clean_linker_0, # of connection points: 2
#     Edge 54, Type (0, 1), BuildingBlock: MIFKUJ_clean_linker_0, # of connection points: 2
#     Edge 55, Type (0, 1), BuildingBlock: MIFKUJ_clean_linker_0, # of connection points: 2
#     Edge 56, Type (0, 1), BuildingBlock: MIFKUJ_clean_linker_0, # of connection points: 2
#     Edge 57, Type (0, 1), BuildingBlock: MIFKUJ_clean_linker_0, # of connection points: 2
#     Edge 58, Type (0, 1), BuildingBlock: MIFKUJ_clean_linker_0, # of connection points: 2
#     Edge 59, Type (0, 1), BuildingBlock: MIFKUJ_clean_linker_0, # of connection points: 2
#     Edge 60, Type (0, 1), BuildingBlock: MIFKUJ_clean_linker_0, # of connection points: 2
#     Edge 61, Type (0, 1), BuildingBlock: MIFKUJ_clean_linker_0, # of connection points: 2
#     Edge 62, Type (0, 1), BuildingBlock: MIFKUJ_clean_linker_0, # of connection points: 2
#     Edge 63, Type (0, 1), BuildingBlock: MIFKUJ_clean_linker_0, # of connection points: 2
#     Edge 64, Type (0, 1), BuildingBlock: MIFKUJ_clean_linker_0, # of connection points: 2
#     Edge 65, Type (0, 1), BuildingBlock: MIFKUJ_clean_linker_0, # of connection points: 2
#     Edge 66, Type (0, 1), BuildingBlock: MIFKUJ_clean_linker_0, # of connection points: 2
#     Edge 67, Type (0, 1), BuildingBlock: MIFKUJ_clean_linker_0, # of connection points: 2
#     Edge 68, Type (0, 1), BuildingBlock: MIFKUJ_clean_linker_0, # of connection points: 2
#     Edge 69, Type (0, 1), BuildingBlock: MIFKUJ_clean_linker_0, # of connection points: 2
#     Edge 70, Type (0, 1), BuildingBlock: MIFKUJ_clean_linker_0, # of connection points: 2
#     Edge 71, Type (0, 1), BuildingBlock: MIFKUJ_clean_linker_0, # of connection points: 2
#     Edge 72, Type (0, 1), BuildingBlock: MIFKUJ_clean_linker_0, # of connection points: 2
#     Edge 73, Type (0, 1), BuildingBlock: MIFKUJ_clean_linker_0, # of connection points: 2
#     Edge 74, Type (0, 1), BuildingBlock: MIFKUJ_clean_linker_0, # of connection points: 2
#     Edge 75, Type (0, 1), BuildingBlock: MIFKUJ_clean_linker_0, # of connection points: 2
#     Edge 76, Type (0, 1), BuildingBlock: MIFKUJ_clean_linker_0, # of connection points: 2
#     Edge 77, Type (0, 1), BuildingBlock: MIFKUJ_clean_linker_0, # of connection points: 2
#     Edge 78, Type (0, 1), BuildingBlock: MIFKUJ_clean_linker_0, # of connection points: 2
#     Edge 79, Type (0, 1), BuildingBlock: MIFKUJ_clean_linker_0, # of connection points: 2
#     Edge 80, Type (0, 1), BuildingBlock: MIFKUJ_clean_linker_0, # of connection points: 2
#     Edge 81, Type (0, 1), BuildingBlock: MIFKUJ_clean_linker_0, # of connection points: 2
#     Edge 82, Type (0, 1), BuildingBlock: MIFKUJ_clean_linker_0, # of connection points: 2
#     Edge 83, Type (0, 1), BuildingBlock: MIFKUJ_clean_linker_0, # of connection points: 2
#     Edge 84, Type (0, 1), BuildingBlock: MIFKUJ_clean_linker_0, # of connection points: 2
#     Edge 85, Type (0, 1), BuildingBlock: MIFKUJ_clean_linker_0, # of connection points: 2
#     Edge 86, Type (0, 1), BuildingBlock: MIFKUJ_clean_linker_0, # of connection points: 2
#     Edge 87, Type (0, 1), BuildingBlock: MIFKUJ_clean_linker_0, # of connection points: 2
#     Edge 88, Type (0, 1), BuildingBlock: MIFKUJ_clean_linker_0, # of connection points: 2
#     Edge 89, Type (0, 1), BuildingBlock: MIFKUJ_clean_linker_0, # of connection points: 2
#     Edge 90, Type (0, 1), BuildingBlock: MIFKUJ_clean_linker_0, # of connection points: 2
#     Edge 91, Type (0, 1), BuildingBlock: MIFKUJ_clean_linker_0, # of connection points: 2
#     Edge 92, Type (0, 1), BuildingBlock: MIFKUJ_clean_linker_0, # of connection points: 2
#     Edge 93, Type (0, 1), BuildingBlock: MIFKUJ_clean_linker_0, # of connection points: 2
#     Edge 94, Type (0, 1), BuildingBlock: MIFKUJ_clean_linker_0, # of connection points: 2
#     Edge 95, Type (0, 1), BuildingBlock: MIFKUJ_clean_linker_0, # of connection points: 2
#     Edge 96, Type (0, 1), BuildingBlock: MIFKUJ_clean_linker_0, # of connection points: 2
#     Edge 97, Type (0, 1), BuildingBlock: MIFKUJ_clean_linker_0, # of connection points: 2
#     Edge 98, Type (0, 1), BuildingBlock: MIFKUJ_clean_linker_0, # of connection points: 2
#     Edge 99, Type (0, 1), BuildingBlock: MIFKUJ_clean_linker_0, # of connection points: 2
#     Edge 100, Type (0, 1), BuildingBlock: MIFKUJ_clean_linker_0, # of connection points: 2
#     Edge 101, Type (0, 1), BuildingBlock: MIFKUJ_clean_linker_0, # of connection points: 2
#     Edge 102, Type (0, 1), BuildingBlock: MIFKUJ_clean_linker_0, # of connection points: 2
#     Edge 103, Type (0, 1), BuildingBlock: MIFKUJ_clean_linker_0, # of connection points: 2
#     Edge 104, Type (0, 1), BuildingBlock: MIFKUJ_clean_linker_0, # of connection points: 2
#     Edge 105, Type (0, 1), BuildingBlock: MIFKUJ_clean_linker_0, # of connection points: 2
#     Edge 106, Type (0, 1), BuildingBlock: MIFKUJ_clean_linker_0, # of connection points: 2
#     Edge 107, Type (0, 1), BuildingBlock: MIFKUJ_clean_linker_0, # of connection points: 2
# Relax obj value: 0.038
# Max RMSD: 0.203
# Mean RMSD: 0.072
data_MOF--net-ptr--node1-KUFVIS_clean_sbu_0--node2-NAHDIM_clean_linker_0--edge1-MIFKUJ_clean_linker_0
_symmetry_space_group_name_H-M    P1
_symmetry_Int_Tables_number       1
_symmetry_cell_setting            triclinic
loop_
_symmetry_equiv_pos_as_xyz
'x, y, z'
_cell_length_a     114.42041
_cell_length_b     113.38627
_cell_length_c     97.460614
_cell_angle_alpha  90.471863
_cell_angle_beta   90.870639
_cell_angle_gamma 119.60153
loop_
_atom_site_label
_atom_site_type_symbol
_atom_site_fract_x
_atom_site_fract_y
_atom_site_fract_z
_atom_type_partial_charge
Mn0 Mn 0.00222 0.33902 0.00377 0.0
Mn1 Mn 0.03198 0.36821 0.00446 0.0
C2 C 0.00526 0.35625 0.98941 0.0
C3 C 0.98924 0.31681 0.99544 0.0
C4 C 0.01059 0.36142 0.02574 0.0
O5 O 0.01455 0.33404 0.01423 0.0
O6 O 0.03422 0.35357 0.01319 0.0
C7 C 0.04637 0.35977 0.98524 0.0
N8 N 0.04195 0.36852 0.98879 0.0
C9 C 0.05185 0.38202 0.96889 0.0
C10 C 0.05659 0.3732 0.96507 0.0
C11 C 0.0538 0.36201 0.97326 0.0
C12 C 0.04452 0.37928 0.98095 0.0
H13 H 0.04421 0.35113 0.99149 0.0
C14 C 0.02713 0.34118 0.01674 0.0
O15 O 0.98641 0.32067 0.00692 0.0
O16 O 0.9996 0.32579 0.98898 0.0
N17 N 0.03159 0.38337 0.99643 0.0
C18 C 0.02587 0.3906 0.00129 0.0
C19 C 0.02745 0.40197 0.9941 0.0
C20 C 0.03503 0.40588 0.98211 0.0
C21 C 0.04103 0.39843 0.97745 0.0
C22 C 0.03915 0.38723 0.98508 0.0
H23 H 0.02007 0.38766 0.01052 0.0
O24 O 0.99326 0.34666 0.99216 0.0
O25 O 0.01523 0.35525 0.9948 0.0
O26 O 0.00176 0.35 0.0205 0.0
O27 O 0.02218 0.36881 0.02066 0.0
C28 C 0.0486 0.40154 0.96542 0.0
C29 C 0.05396 0.3933 0.96112 0.0
H30 H 0.06229 0.37487 0.95582 0.0
H31 H 0.05737 0.35513 0.97035 0.0
H32 H 0.02281 0.40768 0.99777 0.0
H33 H 0.03612 0.41458 0.97652 0.0
H34 H 0.05025 0.41014 0.95932 0.0
H35 H 0.05961 0.39569 0.95175 0.0
Mn36 Mn 0.65147 0.65249 0.01647 0.0
Mn37 Mn 0.65302 0.62469 0.00674 0.0
C38 C 0.63874 0.63231 0.02777 0.0
C39 C 0.6605 0.67298 0.02867 0.0
C40 C 0.63727 0.63539 0.99093 0.0
O41 O 0.66809 0.66001 0.00464 0.0
O42 O 0.66955 0.64117 0.00097 0.0
C43 C 0.67581 0.62826 0.0245 0.0
N44 N 0.66279 0.62057 0.02012 0.0
C45 C 0.65964 0.60215 0.03454 0.0
C46 C 0.67304 0.60984 0.03917 0.0
C47 C 0.68115 0.62296 0.03416 0.0
C48 C 0.65489 0.60797 0.02491 0.0
H49 H 0.68206 0.63834 0.02066 0.0
C50 C 0.67414 0.65396 1.0 0.0
O51 O 0.65311 0.67074 0.01767 0.0
O52 O 0.66258 0.66326 0.03267 0.0
N53 N 0.63778 0.60798 0.01169 0.0
C54 C 0.62487 0.60226 0.00679 0.0
C55 C 0.61542 0.58919 0.01089 0.0
C56 C 0.61938 0.58215 0.01989 0.0
C57 C 0.63266 0.58828 0.02493 0.0
C58 C 0.64167 0.60126 0.02035 0.0
H59 H 0.62182 0.60758 0.99974 0.0
O60 O 0.63579 0.64199 0.02849 0.0
O61 O 0.64937 0.63493 0.02082 0.0
O62 O 0.63927 0.64482 0.99944 0.0
O63 O 0.6425 0.62778 0.99235 0.0
C64 C 0.63727 0.58208 0.03439 0.0
C65 C 0.65074 0.58905 0.03925 0.0
H66 H 0.67719 0.6058 0.04664 0.0
H67 H 0.69148 0.62897 0.03772 0.0
H68 H 0.60515 0.5845 0.00703 0.0
H69 H 0.61218 0.57202 0.02276 0.0
H70 H 0.63052 0.57204 0.03812 0.0
H71 H 0.65413 0.58426 0.04668 0.0
Mn72 Mn 0.34435 0.00146 0.01263 0.0
Mn73 Mn 0.3713 0.03257 0.00968 0.0
C74 C 0.36385 0.00694 0.02504 0.0
C75 C 0.32371 0.98766 0.02273 0.0
C76 C 0.36299 0.01002 0.98834 0.0
O77 O 0.33682 0.01221 0.0029 0.0
O78 O 0.35483 0.03317 0.00421 0.0
C79 C 0.36529 0.04693 0.03154 0.0
N80 N 0.37377 0.0431 0.02595 0.0
C81 C 0.39062 0.05527 0.04349 0.0
C82 C 0.38212 0.05943 0.04941 0.0
C83 C 0.36937 0.05518 0.04343 0.0
C84 C 0.38598 0.04698 0.0317 0.0
H85 H 0.3555 0.0437 0.02695 0.0
C86 C 0.34245 0.02499 0.00118 0.0
O87 O 0.32652 0.98458 0.01081 0.0
O88 O 0.33284 0.99876 0.02867 0.0
N89 N 0.38802 0.03366 0.01464 0.0
C90 C 0.39478 0.02834 0.00794 0.0
C91 C 0.40767 0.03152 0.01266 0.0
C92 C 0.41352 0.04026 0.02406 0.0
C93 C 0.40636 0.04558 0.03081 0.0
C94 C 0.39358 0.04209 0.02562 0.0
H95 H 0.39042 0.0218 0.99902 0.0
O96 O 0.35457 0.99439 0.02317 0.0
O97 O 0.36112 0.01599 0.02014 0.0
O98 O 0.35344 0.00063 0.99498 0.0
O99 O 0.36972 0.02234 0.99258 0.0
C100 C 0.41141 0.05425 0.04243 0.0
C101 C 0.40351 0.05898 0.04886 0.0
H102 H 0.38525 0.06583 0.05856 0.0
H103 H 0.36273 0.0583 0.04796 0.0
H104 H 0.41314 0.02736 0.00742 0.0
H105 H 0.42355 0.04288 0.02745 0.0
H106 H 0.42134 0.05735 0.04651 0.0
H107 H 0.40745 0.06549 0.05791 0.0
Mn108 Mn 0.99902 0.66114 0.00783 0.0
Mn109 Mn 0.02872 0.66173 0.01022 0.0
C110 C 0.00289 0.64731 0.99346 0.0
C111 C 0.98686 0.671 0.99913 0.0
C112 C 0.00619 0.6475 0.03052 0.0
O113 O 0.01084 0.67793 0.01942 0.0
O114 O 0.0311 0.67933 0.01744 0.0
C115 C 0.04421 0.6831 0.9902 0.0
N116 N 0.03935 0.67017 0.99458 0.0
C117 C 0.04965 0.66491 0.97592 0.0
C118 C 0.05488 0.67822 0.9713 0.0
C119 C 0.05212 0.68735 0.97846 0.0
C120 C 0.04192 0.6613 0.98776 0.0
H121 H 0.04201 0.69011 0.99562 0.0
C122 C 0.02354 0.68405 0.02136 0.0
O123 O 0.9833 0.66402 0.01032 0.0
O124 O 0.99746 0.67228 0.99315 0.0
N125 N 0.02797 0.64545 0.00349 0.0
C126 C 0.02143 0.63274 0.00875 0.0
C127 C 0.02269 0.62226 0.00244 0.0
C128 C 0.03074 0.62496 0.99087 0.0
C129 C 0.03751 0.63815 0.98575 0.0
C130 C 0.03595 0.64822 0.99252 0.0
H131 H 0.01521 0.63057 0.01763 0.0
O132 O 0.99072 0.64496 0.99533 0.0
O133 O 0.01247 0.65801 0.99968 0.0
O134 O 0.99733 0.64917 0.0241 0.0
O135 O 0.01834 0.6525 0.02664 0.0
C136 C 0.04548 0.64164 0.97398 0.0
C137 C 0.05153 0.655 0.96907 0.0
H138 H 0.0609 0.68151 0.96218 0.0
H139 H 0.05604 0.69761 0.97489 0.0
H140 H 0.01742 0.6121 0.00645 0.0
H141 H 0.03157 0.61682 0.98593 0.0
H142 H 0.04682 0.63406 0.9685 0.0
H143 H 0.05745 0.6575 0.95988 0.0
Mn144 Mn 0.35188 0.35591 0.00763 0.0
Mn145 Mn 0.38054 0.35624 0.99912 0.0
C146 C 0.37085 0.36749 0.02138 0.0
C147 C 0.3312 0.34551 0.0183 0.0
C148 C 0.37061 0.37352 0.98511 0.0
O149 O 0.34547 0.34033 0.99394 0.0
O150 O 0.36493 0.34072 0.98946 0.0
C151 C 0.37551 0.33072 0.01219 0.0
N152 N 0.38337 0.34436 0.01078 0.0
C153 C 0.39964 0.34516 0.02724 0.0
C154 C 0.39176 0.33109 0.0288 0.0
C155 C 0.37964 0.32385 0.02125 0.0
C156 C 0.39508 0.35143 0.01796 0.0
H157 H 0.36614 0.32512 0.00646 0.0
C158 C 0.35216 0.33558 0.98802 0.0
O159 O 0.33349 0.35369 0.00816 0.0
O160 O 0.34086 0.34333 0.02214 0.0
N161 N 0.39638 0.37055 0.00783 0.0
C162 C 0.40226 0.38419 0.00594 0.0
C163 C 0.41419 0.39296 0.01322 0.0
C164 C 0.41999 0.38763 0.02228 0.0
C165 C 0.41383 0.37356 0.02395 0.0
C166 C 0.402 0.3653 0.01636 0.0
H167 H 0.39781 0.38835 0.99905 0.0
O168 O 0.36132 0.37055 0.02177 0.0
O169 O 0.36897 0.35771 0.01295 0.0
O170 O 0.36008 0.36965 0.99219 0.0
O171 O 0.37877 0.369 0.98678 0.0
C172 C 0.41875 0.36743 0.03315 0.0
C173 C 0.41166 0.35324 0.03479 0.0
H174 H 0.39486 0.32577 0.03586 0.0
H175 H 0.37347 0.313 0.02245 0.0
H176 H 0.41886 0.40381 0.0119 0.0
H177 H 0.4291 0.39444 0.02799 0.0
H178 H 0.42785 0.37356 0.03919 0.0
H179 H 0.41543 0.34867 0.04206 0.0
Mn180 Mn 0.65657 0.99779 0.00902 0.0
Mn181 Mn 0.63001 0.96677 0.01355 0.0
C182 C 0.63721 0.99091 0.99591 0.0
C183 C 0.6773 0.0111 0.99892 0.0
C184 C 0.63782 0.99067 0.03306 0.0
O185 O 0.66419 0.98806 0.02035 0.0
O186 O 0.64664 0.96676 0.01972 0.0
C187 C 0.6361 0.95106 0.99332 0.0
N188 N 0.62763 0.95528 0.9981 0.0
C189 C 0.61082 0.94198 0.9809 0.0
C190 C 0.61931 0.9374 0.97583 0.0
C191 C 0.63205 0.94203 0.98202 0.0
C192 C 0.61548 0.95111 0.99206 0.0
H193 H 0.64586 0.95455 0.9981 0.0
C194 C 0.6589 0.97542 0.02273 0.0
O195 O 0.67417 0.01495 0.01022 0.0
O196 O 0.6684 0.99954 0.99357 0.0
N197 N 0.61325 0.96529 0.00792 0.0
C198 C 0.60636 0.97087 0.01387 0.0
C199 C 0.59356 0.96754 0.00865 0.0
C200 C 0.58786 0.95827 0.99762 0.0
C201 C 0.59504 0.95248 0.99184 0.0
C202 C 0.60782 0.95633 0.99732 0.0
H203 H 0.61058 0.97784 0.0225 0.0
O204 O 0.64619 0.00366 0.99696 0.0
O205 O 0.64014 0.98255 0.00208 0.0
O206 O 0.64714 0.99968 0.02588 0.0
O207 O 0.63148 0.97805 0.0298 0.0
C208 C 0.58995 0.94291 0.98096 0.0
C209 C 0.59787 0.93775 0.9754 0.0
H210 H 0.61617 0.93035 0.96719 0.0
H211 H 0.63868 0.93859 0.97814 0.0
H212 H 0.58809 0.97206 0.01316 0.0
H213 H 0.57796 0.95566 0.99367 0.0
H214 H 0.5799 0.93937 0.97695 0.0
H215 H 0.59387 0.93043 0.96699 0.0
Mn216 Mn 0.66519 0.67724 0.3428 0.0
Mn217 Mn 0.69441 0.70489 0.35259 0.0
C218 C 0.67362 0.69669 0.33009 0.0
C219 C 0.6536 0.65658 0.33101 0.0
C220 C 0.6679 0.69674 0.36619 0.0
O221 O 0.67337 0.66956 0.35618 0.0
O222 O 0.69294 0.68848 0.36147 0.0
C223 C 0.71315 0.6977 0.33916 0.0
N224 N 0.7084 0.70649 0.34095 0.0
C225 C 0.72452 0.72234 0.32538 0.0
C226 C 0.72963 0.71348 0.32342 0.0
C227 C 0.72389 0.70109 0.33032 0.0
C228 C 0.7138 0.7184 0.33431 0.0
H229 H 0.70878 0.68817 0.34446 0.0
C230 C 0.68477 0.67573 0.3624 0.0
O231 O 0.64822 0.65952 0.34117 0.0
O232 O 0.66574 0.66554 0.32784 0.0
N233 N 0.69733 0.72152 0.34473 0.0
C234 C 0.69095 0.72872 0.34739 0.0
C235 C 0.69529 0.74125 0.34106 0.0
C236 C 0.70625 0.74633 0.33222 0.0
C237 C 0.7128 0.73884 0.32982 0.0
C238 C 0.70801 0.72641 0.3364 0.0
H239 H 0.68257 0.7249 0.35423 0.0
O240 O 0.66097 0.68766 0.32917 0.0
O241 O 0.68106 0.69398 0.33827 0.0
O242 O 0.66071 0.68629 0.35861 0.0
O243 O 0.68058 0.70425 0.36489 0.0
C244 C 0.72381 0.74317 0.32107 0.0
C245 C 0.72961 0.73488 0.31877 0.0
H246 H 0.73791 0.71605 0.3166 0.0
H247 H 0.72775 0.69418 0.32884 0.0
H248 H 0.69021 0.74698 0.34298 0.0
H249 H 0.70953 0.75597 0.3273 0.0
H250 H 0.72784 0.75281 0.31596 0.0
H251 H 0.73794 0.73824 0.31185 0.0
Mn252 Mn 0.31429 0.98583 0.35627 0.0
Mn253 Mn 0.31209 0.95544 0.35 0.0
C254 C 0.30245 0.96806 0.37087 0.0
C255 C 0.32561 0.00756 0.36592 0.0
C256 C 0.29604 0.96579 0.33408 0.0
O257 O 0.32901 0.99024 0.34245 0.0
O258 O 0.32816 0.96991 0.34093 0.0
C259 C 0.33637 0.95965 0.36544 0.0
N260 N 0.32285 0.95233 0.36307 0.0
C261 C 0.32042 0.93627 0.38035 0.0
C262 C 0.33434 0.94359 0.38292 0.0
C263 C 0.34234 0.95535 0.37546 0.0
C264 C 0.31505 0.94104 0.37025 0.0
H265 H 0.34254 0.96871 0.35975 0.0
C266 C 0.33338 0.98251 0.33812 0.0
O267 O 0.31711 0.00459 0.35574 0.0
O268 O 0.3278 0.99802 0.37026 0.0
N269 N 0.29704 0.94049 0.35825 0.0
C270 C 0.28371 0.93493 0.35495 0.0
C271 C 0.27432 0.92317 0.36159 0.0
C272 C 0.27872 0.91719 0.37146 0.0
C273 C 0.29248 0.92306 0.37466 0.0
C274 C 0.30139 0.93469 0.36759 0.0
H275 H 0.28027 0.93941 0.3473 0.0
O276 O 0.30029 0.97826 0.37063 0.0
O277 O 0.31163 0.96867 0.36276 0.0
O278 O 0.29993 0.97666 0.34114 0.0
O279 O 0.30037 0.9575 0.33622 0.0
C280 C 0.29769 0.91793 0.3847 0.0
C281 C 0.31164 0.92457 0.38758 0.0
H282 H 0.33898 0.94034 0.39066 0.0
H283 H 0.35308 0.96109 0.37743 0.0
H284 H 0.26371 0.9187 0.35907 0.0
H285 H 0.27144 0.9081 0.37653 0.0
H286 H 0.29103 0.90901 0.3904 0.0
H287 H 0.31551 0.92064 0.39546 0.0
Mn288 Mn 0.01675 0.32801 0.34192 0.0
Mn289 Mn 0.04696 0.35584 0.33709 0.0
C290 C 0.0345 0.33289 0.35705 0.0
C291 C 0.99512 0.31765 0.35066 0.0
C292 C 0.03655 0.3299 0.32018 0.0
O293 O 0.01224 0.33911 0.32868 0.0
O294 O 0.0326 0.35773 0.32759 0.0
C295 C 0.04285 0.37629 0.35196 0.0
N296 N 0.04984 0.36954 0.35037 0.0
C297 C 0.06655 0.384 0.36714 0.0
C298 C 0.05961 0.3912 0.36885 0.0
C299 C 0.04762 0.38723 0.36135 0.0
C300 C 0.06116 0.37301 0.35783 0.0
H301 H 0.03382 0.3735 0.34595 0.0
C302 C 0.02005 0.35108 0.32453 0.0
O303 O 0.99808 0.31256 0.34018 0.0
O304 O 0.0047 0.32891 0.35595 0.0
N305 N 0.06208 0.35577 0.34561 0.0
C306 C 0.06868 0.34923 0.34121 0.0
C307 C 0.0809 0.35209 0.34762 0.0
C308 C 0.0865 0.36205 0.35809 0.0
C309 C 0.07995 0.36922 0.36187 0.0
C310 C 0.06766 0.36575 0.3553 0.0
H311 H 0.06461 0.34181 0.33294 0.0
O312 O 0.02425 0.32074 0.35599 0.0
O313 O 0.03397 0.34196 0.34935 0.0
O314 O 0.02564 0.32305 0.32659 0.0
O315 O 0.04501 0.34228 0.32307 0.0
C316 C 0.08543 0.38008 0.37147 0.0
C317 C 0.07879 0.38754 0.37401 0.0
H318 H 0.06342 0.39984 0.37586 0.0
H319 H 0.0422 0.39272 0.36263 0.0
H320 H 0.08606 0.34674 0.3444 0.0
H321 H 0.09601 0.36435 0.36289 0.0
H322 H 0.0949 0.38298 0.37673 0.0
H323 H 0.08321 0.396 0.38125 0.0
Mn324 Mn 0.66299 0.97907 0.34246 0.0
Mn325 Mn 0.69258 0.98012 0.34879 0.0
C326 C 0.6697 0.96712 0.32839 0.0
C327 C 0.65051 0.98801 0.33237 0.0
C328 C 0.66761 0.96372 0.36552 0.0
O329 O 0.67292 0.9954 0.35544 0.0
O330 O 0.69315 0.99653 0.357 0.0
C331 C 0.71036 0.00385 0.33217 0.0
N332 N 0.70531 0.99053 0.3352 0.0
C333 C 0.71868 0.98784 0.31793 0.0
C334 C 0.72413 0.00158 0.31473 0.0
C335 C 0.71992 0.0096 0.32185 0.0
C336 C 0.70925 0.9827 0.32837 0.0
H337 H 0.70707 0.01002 0.33754 0.0
C338 C 0.68521 0.00121 0.35951 0.0
O339 O 0.64632 0.98041 0.34308 0.0
O340 O 0.66214 0.99072 0.32772 0.0
N341 N 0.69341 0.96492 0.34122 0.0
C342 C 0.68652 0.95166 0.34491 0.0
C343 C 0.68919 0.94217 0.33841 0.0
C344 C 0.69897 0.94642 0.32825 0.0
C345 C 0.70599 0.96012 0.32468 0.0
C346 C 0.70299 0.96914 0.3316 0.0
H347 H 0.67899 0.94833 0.35271 0.0
O348 O 0.65711 0.96379 0.32882 0.0
O349 O 0.67795 0.97738 0.33609 0.0
O350 O 0.65976 0.96621 0.35826 0.0
O351 O 0.68015 0.96886 0.36322 0.0
C352 C 0.71566 0.96514 0.31434 0.0
C353 C 0.72198 0.97898 0.31095 0.0
H354 H 0.73143 0.00603 0.30671 0.0
H355 H 0.724 0.02018 0.31935 0.0
H356 H 0.68371 0.93161 0.3412 0.0
H357 H 0.70093 0.93905 0.3232 0.0
H358 H 0.71814 0.95839 0.30877 0.0
H359 H 0.72923 0.98267 0.30282 0.0
Mn360 Mn 0.02221 0.69338 0.34438 0.0
Mn361 Mn 0.05259 0.69605 0.33957 0.0
C362 C 0.03949 0.70526 0.36014 0.0
C363 C 0.00043 0.68182 0.35269 0.0
C364 C 0.04234 0.71202 0.32348 0.0
O365 O 0.01821 0.67836 0.33035 0.0
O366 O 0.03858 0.67984 0.32933 0.0
C367 C 0.04867 0.67144 0.35382 0.0
N368 N 0.05565 0.68515 0.3524 0.0
C369 C 0.07109 0.68762 0.37072 0.0
C370 C 0.06412 0.67352 0.37231 0.0
C371 C 0.05285 0.6654 0.36384 0.0
C372 C 0.06654 0.69306 0.36047 0.0
H373 H 0.03997 0.66517 0.34736 0.0
C374 C 0.02602 0.67412 0.32611 0.0
O375 O 0.00357 0.69031 0.34272 0.0
O376 O 0.00989 0.67981 0.35764 0.0
N377 N 0.06694 0.71125 0.34915 0.0
C378 C 0.07192 0.72474 0.34699 0.0
C379 C 0.08288 0.73428 0.35503 0.0
C380 C 0.08864 0.72986 0.36515 0.0
C381 C 0.0834 0.71593 0.36713 0.0
C382 C 0.07253 0.70689 0.35874 0.0
H383 H 0.0675 0.7282 0.33926 0.0
O384 O 0.02945 0.70754 0.35931 0.0
O385 O 0.03909 0.6961 0.35173 0.0
O386 O 0.0314 0.70788 0.32987 0.0
O387 O 0.05069 0.70789 0.32598 0.0
C388 C 0.08832 0.71067 0.37733 0.0
C389 C 0.08217 0.69652 0.37911 0.0
H390 H 0.06723 0.66882 0.38011 0.0
H391 H 0.04737 0.65451 0.36507 0.0
H392 H 0.08684 0.74502 0.35347 0.0
H393 H 0.09699 0.73726 0.37143 0.0
H394 H 0.09667 0.71742 0.38401 0.0
H395 H 0.0859 0.69261 0.38714 0.0
Mn396 Mn 0.32149 0.33969 0.34421 0.0
Mn397 Mn 0.29266 0.3106 0.34973 0.0
C398 C 0.30334 0.33299 0.32931 0.0
C399 C 0.34288 0.35077 0.33489 0.0
C400 C 0.30158 0.33664 0.36623 0.0
O401 O 0.32714 0.32978 0.35776 0.0
O402 O 0.3079 0.30977 0.35893 0.0
C403 C 0.29802 0.29131 0.33415 0.0
N404 N 0.29016 0.29702 0.33644 0.0
C405 C 0.2744 0.28319 0.31862 0.0
C406 C 0.28228 0.2771 0.31613 0.0
C407 C 0.29414 0.2812 0.32392 0.0
C408 C 0.27872 0.29315 0.32902 0.0
H409 H 0.30717 0.29448 0.34007 0.0
C410 C 0.32041 0.31759 0.36188 0.0
O411 O 0.33978 0.35601 0.34515 0.0
O412 O 0.33362 0.33905 0.33021 0.0
N413 N 0.27717 0.31002 0.34126 0.0
C414 C 0.27119 0.31752 0.34433 0.0
C415 C 0.25944 0.31502 0.33713 0.0
C416 C 0.25391 0.30479 0.32692 0.0
C417 C 0.26018 0.29713 0.32401 0.0
C418 C 0.2718 0.3 0.33161 0.0
H419 H 0.27539 0.3254 0.35216 0.0
O420 O 0.31284 0.34557 0.3299 0.0
O421 O 0.30486 0.32472 0.33734 0.0
O422 O 0.31207 0.34416 0.35944 0.0
O423 O 0.29406 0.32396 0.36372 0.0
C424 C 0.2555 0.28696 0.31368 0.0
C425 C 0.26262 0.28 0.31098 0.0
H426 H 0.27938 0.26936 0.30818 0.0
H427 H 0.30031 0.27659 0.322 0.0
H428 H 0.25467 0.32099 0.33943 0.0
H429 H 0.24492 0.30298 0.3213 0.0
H430 H 0.24658 0.28457 0.30759 0.0
H431 H 0.25905 0.27236 0.30286 0.0
Mn432 Mn 0.33386 0.0187 0.66818 0.0
Mn433 Mn 0.3609 0.04923 0.67597 0.0
C434 C 0.33935 0.03672 0.6537 0.0
C435 C 0.32406 0.99683 0.65874 0.0
C436 C 0.3342 0.03833 0.69004 0.0
O437 O 0.34412 0.01415 0.6825 0.0
O438 O 0.3624 0.03473 0.68567 0.0
C439 C 0.38197 0.04542 0.66277 0.0
N440 N 0.37553 0.05271 0.66439 0.0
C441 C 0.39086 0.07012 0.64949 0.0
C442 C 0.3977 0.06282 0.64767 0.0
C443 C 0.39319 0.0504 0.6543 0.0
C444 C 0.37972 0.06462 0.658 0.0
H445 H 0.37858 0.03592 0.66794 0.0
C446 C 0.35564 0.02201 0.68798 0.0
O447 O 0.3185 0.99994 0.66857 0.0
O448 O 0.33547 0.00645 0.6544 0.0
N449 N 0.36108 0.06442 0.66748 0.0
C450 C 0.35303 0.06988 0.66989 0.0
C451 C 0.35625 0.08244 0.66424 0.0
C452 C 0.36772 0.08924 0.65618 0.0
C453 C 0.3757 0.0833 0.65361 0.0
C454 C 0.37215 0.07091 0.65977 0.0
H455 H 0.34436 0.06483 0.67631 0.0
O456 O 0.32732 0.02629 0.65355 0.0
O457 O 0.34805 0.03622 0.66217 0.0
O458 O 0.32793 0.02743 0.68291 0.0
O459 O 0.34658 0.04695 0.68849 0.0
C460 C 0.38707 0.08919 0.64524 0.0
C461 C 0.39458 0.08255 0.64309 0.0
H462 H 0.40637 0.06663 0.64116 0.0
H463 H 0.3984 0.0447 0.65294 0.0
H464 H 0.35004 0.08696 0.6663 0.0
H465 H 0.37038 0.0991 0.65214 0.0
H466 H 0.39003 0.09876 0.6403 0.0
H467 H 0.40319 0.08709 0.63649 0.0
Mn468 Mn 0.98057 0.31394 0.67603 0.0
Mn469 Mn 0.98254 0.28588 0.6683 0.0
C470 C 0.96883 0.29461 0.68871 0.0
C471 C 0.98873 0.33463 0.6876 0.0
C472 C 0.96545 0.29466 0.65193 0.0
O473 O 0.99692 0.32121 0.66388 0.0
O474 O 0.99814 0.30216 0.66063 0.0
C475 C 0.00695 0.29217 0.68478 0.0
N476 N 0.99373 0.28366 0.68158 0.0
C477 C 0.99261 0.2672 0.69771 0.0
C478 C 0.00624 0.27574 0.70111 0.0
C479 C 0.01342 0.2883 0.69465 0.0
C480 C 0.9867 0.27159 0.68778 0.0
H481 H 0.0125 0.30183 0.67985 0.0
C482 C 0.00268 0.31491 0.65914 0.0
O483 O 0.98121 0.33179 0.67659 0.0
O484 O 0.99184 0.32563 0.69163 0.0
N485 N 0.96824 0.26937 0.67522 0.0
C486 C 0.95497 0.26271 0.67141 0.0
C487 C 0.94627 0.2502 0.67732 0.0
C488 C 0.95131 0.24457 0.68693 0.0
C489 C 0.96503 0.25153 0.69056 0.0
C490 C 0.97322 0.26397 0.68434 0.0
H491 H 0.95105 0.26696 0.664 0.0
O492 O 0.96534 0.30389 0.6886 0.0
O493 O 0.9793 0.29701 0.68159 0.0
O494 O 0.96806 0.30501 0.65938 0.0
O495 O 0.97056 0.28705 0.6542 0.0
C496 C 0.97085 0.24672 0.70028 0.0
C497 C 0.98461 0.25459 0.70391 0.0
H498 H 0.01126 0.27281 0.70874 0.0
H499 H 0.02392 0.29498 0.69727 0.0
H500 H 0.93569 0.24489 0.67448 0.0
H501 H 0.94455 0.23495 0.69153 0.0
H502 H 0.96481 0.23707 0.70516 0.0
H503 H 0.98891 0.25089 0.71157 0.0
Mn504 Mn 0.67801 0.65867 0.67342 0.0
Mn505 Mn 0.70407 0.68869 0.66403 0.0
C506 C 0.698 0.66826 0.68612 0.0
C507 C 0.65797 0.64633 0.68511 0.0
C508 C 0.69655 0.66206 0.64957 0.0
O509 O 0.66912 0.66607 0.66049 0.0
O510 O 0.68709 0.68622 0.65569 0.0
C511 C 0.69658 0.70707 0.67826 0.0
N512 N 0.70553 0.70261 0.67628 0.0
C513 C 0.72196 0.72016 0.69119 0.0
C514 C 0.71294 0.72497 0.69337 0.0
C515 C 0.70016 0.71832 0.68696 0.0
C516 C 0.71771 0.7087 0.68269 0.0
H517 H 0.68685 0.70217 0.67313 0.0
C518 C 0.67457 0.6775 0.6546 0.0
O519 O 0.66083 0.64116 0.67462 0.0
O520 O 0.66672 0.65867 0.68875 0.0
N521 N 0.72131 0.69271 0.67122 0.0
C522 C 0.72938 0.68784 0.66678 0.0
C523 C 0.74257 0.69347 0.67211 0.0
C524 C 0.74748 0.70437 0.68156 0.0
C525 C 0.73922 0.70967 0.68543 0.0
C526 C 0.72609 0.7035 0.67996 0.0
H527 H 0.72578 0.67967 0.65927 0.0
O528 O 0.68946 0.65539 0.68676 0.0
O529 O 0.69448 0.67521 0.6782 0.0
O530 O 0.68678 0.6545 0.65723 0.0
O531 O 0.70346 0.67493 0.65111 0.0
C532 C 0.7437 0.72119 0.69406 0.0
C533 C 0.73511 0.72648 0.69686 0.0
H534 H 0.71576 0.73382 0.69985 0.0
H535 H 0.69316 0.72199 0.68856 0.0
H536 H 0.74897 0.6895 0.66883 0.0
H537 H 0.7577 0.70878 0.68553 0.0
H538 H 0.75381 0.7262 0.69841 0.0
H539 H 0.73877 0.73549 0.70331 0.0
Mn540 Mn 0.33082 0.3164 0.67376 0.0
Mn541 Mn 0.36045 0.31762 0.67975 0.0
C542 C 0.33719 0.30427 0.65958 0.0
C543 C 0.3192 0.3265 0.66438 0.0
C544 C 0.33561 0.30136 0.69673 0.0
O545 O 0.34083 0.33236 0.68709 0.0
O546 O 0.3615 0.33451 0.68727 0.0
C547 C 0.37768 0.34043 0.66184 0.0
N548 N 0.37274 0.32728 0.66556 0.0
C549 C 0.38551 0.32369 0.64828 0.0
C550 C 0.39087 0.33724 0.64439 0.0
C551 C 0.38689 0.34562 0.65116 0.0
C552 C 0.37636 0.31908 0.65899 0.0
H553 H 0.37455 0.34686 0.66694 0.0
C554 C 0.35332 0.33872 0.69036 0.0
O555 O 0.31454 0.31847 0.67475 0.0
O556 O 0.33052 0.32859 0.65945 0.0
N557 N 0.36093 0.30201 0.67282 0.0
C558 C 0.35429 0.289 0.67732 0.0
C559 C 0.35688 0.27923 0.67135 0.0
C560 C 0.36634 0.28294 0.66092 0.0
C561 C 0.37312 0.2964 0.65653 0.0
C562 C 0.37019 0.30572 0.66291 0.0
H563 H 0.34708 0.28609 0.68539 0.0
O564 O 0.32469 0.30133 0.65982 0.0
O565 O 0.34554 0.31447 0.6673 0.0
O566 O 0.32748 0.30316 0.68914 0.0
O567 O 0.34828 0.30707 0.69479 0.0
C568 C 0.38259 0.30091 0.64599 0.0
C569 C 0.38871 0.31452 0.6418 0.0
H570 H 0.39795 0.34127 0.63612 0.0
H571 H 0.39089 0.35606 0.64813 0.0
H572 H 0.3516 0.26886 0.6748 0.0
H573 H 0.36827 0.27536 0.65633 0.0
H574 H 0.38514 0.29397 0.64092 0.0
H575 H 0.39579 0.3178 0.63352 0.0
Mn576 Mn 0.6906 0.02579 0.66944 0.0
Mn577 Mn 0.71781 0.02262 0.6629 0.0
C578 C 0.71003 0.0377 0.68263 0.0
C579 C 0.6702 0.01843 0.68024 0.0
C580 C 0.70969 0.0397 0.64577 0.0
O581 O 0.68283 0.00863 0.65753 0.0
O582 O 0.70145 0.00699 0.65456 0.0
C583 C 0.71059 0.99828 0.67947 0.0
N584 N 0.71938 0.01146 0.67658 0.0
C585 C 0.73498 0.01265 0.69411 0.0
C586 C 0.72613 0.99906 0.69722 0.0
C587 C 0.71387 0.99187 0.68989 0.0
C588 C 0.73116 0.01851 0.68363 0.0
H589 H 0.70115 0.99271 0.67388 0.0
C590 C 0.68882 0.00255 0.65281 0.0
O591 O 0.67298 0.02538 0.66906 0.0
O592 O 0.67914 0.01556 0.68499 0.0
N593 N 0.73435 0.0369 0.67052 0.0
C594 C 0.74157 0.05005 0.66655 0.0
C595 C 0.75403 0.0587 0.67302 0.0
C596 C 0.759 0.05371 0.68338 0.0
C597 C 0.75147 0.0401 0.68718 0.0
C598 C 0.73914 0.03195 0.68035 0.0
H599 H 0.73782 0.05391 0.65855 0.0
O600 O 0.70121 0.04172 0.68205 0.0
O601 O 0.70714 0.02679 0.67557 0.0
O602 O 0.69947 0.03744 0.65275 0.0
O603 O 0.71715 0.03452 0.64852 0.0
C604 C 0.75567 0.03431 0.69753 0.0
C605 C 0.74739 0.02063 0.70106 0.0
H606 H 0.72862 0.99408 0.70526 0.0
H607 H 0.70696 0.98139 0.69227 0.0
H608 H 0.75979 0.06918 0.67003 0.0
H609 H 0.7686 0.06042 0.68837 0.0
H610 H 0.76522 0.0403 0.7029 0.0
H611 H 0.75065 0.01635 0.70916 0.0
Mn612 Mn 0.97833 0.67293 0.67613 0.0
Mn613 Mn 0.95205 0.64419 0.68752 0.0
C614 C 0.95841 0.66218 0.66332 0.0
C615 C 0.9986 0.68409 0.66462 0.0
C616 C 0.96008 0.6721 0.69911 0.0
O617 O 0.98689 0.66674 0.6909 0.0
O618 O 0.96888 0.64681 0.69632 0.0
C619 C 0.95851 0.62407 0.67556 0.0
N620 N 0.94985 0.62898 0.67693 0.0
C621 C 0.93265 0.61029 0.66374 0.0
C622 C 0.94134 0.60499 0.66219 0.0
C623 C 0.95437 0.61198 0.66804 0.0
C624 C 0.93743 0.62253 0.67107 0.0
H625 H 0.96845 0.6293 0.68025 0.0
C626 C 0.98137 0.65566 0.69748 0.0
O627 O 0.99544 0.69021 0.67393 0.0
O628 O 0.98999 0.67143 0.66199 0.0
N629 N 0.93506 0.64036 0.67983 0.0
C630 C 0.92803 0.64699 0.68201 0.0
C631 C 0.91493 0.64154 0.67651 0.0
C632 C 0.90909 0.62917 0.66914 0.0
C633 C 0.91647 0.62245 0.66722 0.0
C634 C 0.92957 0.62851 0.67268 0.0
H635 H 0.93237 0.65636 0.68791 0.0
O636 O 0.96703 0.67487 0.66142 0.0
O637 O 0.96186 0.65608 0.6724 0.0
O638 O 0.96949 0.67885 0.69079 0.0
O639 O 0.95328 0.65917 0.69899 0.0
C640 C 0.91123 0.60984 0.66037 0.0
C641 C 0.91935 0.60381 0.65851 0.0
H642 H 0.93811 0.59557 0.65656 0.0
H643 H 0.96113 0.60795 0.66687 0.0
H644 H 0.90929 0.64677 0.67808 0.0
H645 H 0.89892 0.6249 0.66504 0.0
H646 H 0.90091 0.60462 0.65674 0.0
H647 H 0.91522 0.59409 0.65324 0.0
C648 C 0.20739 0.26744 0.09989 0.0
C649 C 0.20734 0.27904 0.09191 0.0
C650 C 0.19569 0.28766 0.10652 0.0
C651 C 0.19729 0.2991 0.1137 0.0
C652 C 0.1864 0.29916 0.12003 0.0
C653 C 0.17364 0.28727 0.11954 0.0
C654 C 0.17189 0.27566 0.11222 0.0
C655 C 0.18289 0.27602 0.10564 0.0
C656 C 0.18857 0.31191 0.12731 0.0
C657 C 0.15843 0.2628 0.1115 0.0
C658 C 0.08511 0.29247 0.08002 0.0
C659 C 0.09228 0.28637 0.08736 0.0
C660 C 0.11394 0.29348 0.09896 0.0
C661 C 0.11073 0.28052 0.10357 0.0
C662 C 0.11973 0.27874 0.11208 0.0
C663 C 0.13202 0.29017 0.11636 0.0
C664 C 0.13521 0.30323 0.11184 0.0
C665 C 0.12617 0.30468 0.10307 0.0
C666 C 0.11615 0.26462 0.11642 0.0
C667 C 0.14817 0.31567 0.11625 0.0
C668 C 0.10391 0.28368 0.20384 0.0
C669 C 0.10263 0.27129 0.19924 0.0
C670 C 0.11322 0.27094 0.1925 0.0
C671 C 0.1253 0.28319 0.19033 0.0
C672 C 0.12666 0.29564 0.19504 0.0
C673 C 0.11592 0.2957 0.20173 0.0
C674 C 0.1115 0.2575 0.1876 0.0
C675 C 0.13941 0.30888 0.19292 0.0
C676 C 0.21782 0.28389 0.20106 0.0
C677 C 0.2131 0.29021 0.21211 0.0
C678 C 0.18916 0.28188 0.20818 0.0
C679 C 0.17789 0.26962 0.2042 0.0
C680 C 0.16717 0.26942 0.19677 0.0
C681 C 0.16776 0.28182 0.19342 0.0
C682 C 0.17882 0.29423 0.19809 0.0
C683 C 0.18936 0.29413 0.20553 0.0
C684 C 0.15539 0.25602 0.19217 0.0
C685 C 0.17959 0.30762 0.19502 0.0
C686 C 0.16216 0.28693 0.12682 0.0
C687 C 0.1526 0.28842 0.11909 0.0
C688 C 0.14169 0.28846 0.1253 0.0
C689 C 0.14025 0.28703 0.13968 0.0
C690 C 0.12952 0.28725 0.14632 0.0
C691 C 0.12819 0.28581 0.16048 0.0
C692 C 0.13762 0.28427 0.16856 0.0
C693 C 0.13648 0.28301 0.18298 0.0
C694 C 0.14625 0.28191 0.19076 0.0
C695 C 0.15717 0.28192 0.18452 0.0
C696 C 0.15829 0.2828 0.17008 0.0
C697 C 0.16898 0.28251 0.16344 0.0
C698 C 0.17014 0.28362 0.14927 0.0
C699 C 0.16081 0.28533 0.14119 0.0
C700 C 0.14985 0.28545 0.14764 0.0
C701 C 0.14855 0.28411 0.1621 0.0
C702 C 0.07193 0.27014 0.20054 0.0
C703 C 0.08118 0.27429 0.21331 0.0
O704 O 0.20678 0.28832 0.10083 0.0
O705 O 0.19961 0.28155 0.21462 0.0
O706 O 0.09392 0.28463 0.21023 0.0
O707 O 0.10561 0.29563 0.09054 0.0
H708 H 0.19844 0.27467 0.08478 0.0
H709 H 0.19783 0.26152 0.10536 0.0
H710 H 0.21573 0.27141 0.10764 0.0
H711 H 0.20851 0.26041 0.09272 0.0
H712 H 0.20717 0.30806 0.11426 0.0
H713 H 0.18139 0.26711 0.10002 0.0
H714 H 0.1805 0.31421 0.12436 0.0
H715 H 0.19846 0.32081 0.12496 0.0
H716 H 0.18813 0.3104 0.13856 0.0
H717 H 0.15901 0.25427 0.1065 0.0
H718 H 0.15114 0.26465 0.10558 0.0
H719 H 0.15446 0.25976 0.12198 0.0
H720 H 0.09083 0.27671 0.0827 0.0
H721 H 0.08232 0.28727 0.06964 0.0
H722 H 0.09307 0.30249 0.07598 0.0
H723 H 0.07066 0.29088 0.09403 0.0
H724 H 0.10131 0.27175 0.10045 0.0
H725 H 0.12855 0.31463 0.09948 0.0
H726 H 0.12453 0.26265 0.1142 0.0
H727 H 0.10685 0.25668 0.11116 0.0
H728 H 0.11459 0.26372 0.12766 0.0
H729 H 0.14853 0.3252 0.11297 0.0
H730 H 0.15678 0.31519 0.11173 0.0
H731 H 0.14945 0.31597 0.12759 0.0
H732 H 0.08177 0.26537 0.21711 0.0
H733 H 0.09342 0.26187 0.20076 0.0
H734 H 0.11683 0.30519 0.20532 0.0
H735 H 0.11258 0.25761 0.17629 0.0
H736 H 0.10156 0.24884 0.19023 0.0
H737 H 0.11952 0.2559 0.19225 0.0
H738 H 0.13885 0.31771 0.19715 0.0
H739 H 0.14148 0.31039 0.18179 0.0
H740 H 0.14802 0.30856 0.19794 0.0
H741 H 0.21477 0.29996 0.2078 0.0
H742 H 0.22888 0.29003 0.19989 0.0
H743 H 0.2129 0.28363 0.19105 0.0
H744 H 0.21505 0.2733 0.20357 0.0
H745 H 0.17769 0.26021 0.20656 0.0
H746 H 0.19768 0.30363 0.20928 0.0
H747 H 0.15486 0.25537 0.18078 0.0
H748 H 0.14588 0.25529 0.1957 0.0
H749 H 0.15614 0.24725 0.19614 0.0
H750 H 0.18877 0.31639 0.19956 0.0
H751 H 0.17063 0.30772 0.19909 0.0
H752 H 0.17954 0.30891 0.18374 0.0
H753 H 0.15371 0.28964 0.10807 0.0
H754 H 0.12203 0.28853 0.14065 0.0
H755 H 0.11971 0.28601 0.16501 0.0
H756 H 0.14546 0.28125 0.20184 0.0
H757 H 0.17656 0.28138 0.16912 0.0
H758 H 0.17853 0.28325 0.14474 0.0
H759 H 0.06168 0.26194 0.20305 0.0
H760 H 0.07581 0.26628 0.1923 0.0
H761 H 0.07126 0.27895 0.19656 0.0
C762 C 0.74323 0.93306 0.10818 0.0
C763 C 0.73095 0.92268 0.09964 0.0
C764 C 0.71985 0.90213 0.11364 0.0
C765 C 0.70784 0.89337 0.12004 0.0
C766 C 0.70599 0.88147 0.12626 0.0
C767 C 0.71666 0.87853 0.1265 0.0
C768 C 0.72881 0.88727 0.11991 0.0
C769 C 0.7302 0.89886 0.11336 0.0
C770 C 0.69273 0.87219 0.13278 0.0
C771 C 0.74042 0.88449 0.11994 0.0
C772 C 0.70339 0.78343 0.08342 0.0
C773 C 0.7082 0.79732 0.0892 0.0
C774 C 0.70393 0.80883 0.10814 0.0
C775 C 0.71666 0.82056 0.10825 0.0
C776 C 0.7194 0.83184 0.11657 0.0
C777 C 0.70907 0.8316 0.1246 0.0
C778 C 0.69614 0.8199 0.12425 0.0
C779 C 0.69386 0.80856 0.11627 0.0
C780 C 0.73335 0.84403 0.11667 0.0
C781 C 0.68469 0.81935 0.13225 0.0
C782 C 0.7136 0.80975 0.21247 0.0
C783 C 0.72621 0.81964 0.20776 0.0
C784 C 0.72764 0.83118 0.20104 0.0
C785 C 0.71624 0.83275 0.19884 0.0
C786 C 0.70358 0.82287 0.20364 0.0
C787 C 0.70247 0.81153 0.21046 0.0
C788 C 0.7413 0.84163 0.19614 0.0
C789 C 0.69121 0.82421 0.20143 0.0
C790 C 0.72612 0.93039 0.20699 0.0
C791 C 0.71742 0.91928 0.21708 0.0
C792 C 0.72285 0.90112 0.21491 0.0
C793 C 0.73442 0.9003 0.21247 0.0
C794 C 0.7337 0.88915 0.2053 0.0
C795 C 0.72103 0.87851 0.20071 0.0
C796 C 0.70921 0.87894 0.20384 0.0
C797 C 0.71024 0.89023 0.21096 0.0
C798 C 0.74646 0.88889 0.2023 0.0
C799 C 0.6955 0.86757 0.19945 0.0
C800 C 0.71537 0.86666 0.13414 0.0
C801 C 0.7127 0.85497 0.12669 0.0
C802 C 0.71179 0.84362 0.13323 0.0
C803 C 0.71356 0.84389 0.14767 0.0
C804 C 0.71308 0.83282 0.15459 0.0
C805 C 0.71439 0.83302 0.16882 0.0
C806 C 0.71639 0.84435 0.17669 0.0
C807 C 0.71746 0.84455 0.19118 0.0
C808 C 0.71923 0.85589 0.1987 0.0
C809 C 0.7201 0.86719 0.19212 0.0
C810 C 0.71939 0.86732 0.17763 0.0
C811 C 0.72065 0.87869 0.17067 0.0
C812 C 0.71959 0.87859 0.15643 0.0
C813 C 0.71695 0.86703 0.14859 0.0
C814 C 0.71593 0.85555 0.15537 0.0
C815 C 0.7173 0.85576 0.1699 0.0
C816 C 0.72246 0.78739 0.20834 0.0
C817 C 0.72082 0.79399 0.22149 0.0
O818 O 0.72103 0.91367 0.10817 0.0
O819 O 0.72415 0.91249 0.22113 0.0
O820 O 0.71159 0.79828 0.21883 0.0
O821 O 0.70101 0.79762 0.10041 0.0
H822 H 0.73437 0.91715 0.09275 0.0
H823 H 0.74853 0.92815 0.11299 0.0
H824 H 0.74012 0.93754 0.11658 0.0
H825 H 0.75048 0.94126 0.10154 0.0
H826 H 0.69986 0.8959 0.12013 0.0
H827 H 0.7395 0.90539 0.10831 0.0
H828 H 0.68929 0.86145 0.12993 0.0
H829 H 0.6848 0.87465 0.1297 0.0
H830 H 0.69399 0.87319 0.14412 0.0
H831 H 0.74973 0.89312 0.11591 0.0
H832 H 0.73769 0.87539 0.11343 0.0
H833 H 0.74256 0.88234 0.13049 0.0
H834 H 0.70975 0.8052 0.08154 0.0
H835 H 0.71982 0.78034 0.08667 0.0
H836 H 0.6993 0.78354 0.07287 0.0
H837 H 0.6932 0.77667 0.08785 0.0
H838 H 0.72457 0.82095 0.10201 0.0
H839 H 0.68406 0.79949 0.11611 0.0
H840 H 0.73322 0.8521 0.11044 0.0
H841 H 0.74082 0.84159 0.11225 0.0
H842 H 0.7367 0.84811 0.12727 0.0
H843 H 0.67482 0.8107 0.12887 0.0
H844 H 0.68434 0.82891 0.13112 0.0
H845 H 0.68623 0.81817 0.14331 0.0
H846 H 0.73068 0.80272 0.22476 0.0
H847 H 0.73494 0.81843 0.20915 0.0
H848 H 0.6928 0.80386 0.21413 0.0
H849 H 0.74107 0.84201 0.18476 0.0
H850 H 0.74933 0.83937 0.19937 0.0
H851 H 0.74387 0.85184 0.20018 0.0
H852 H 0.68202 0.8154 0.2054 0.0
H853 H 0.68965 0.82515 0.19031 0.0
H854 H 0.69265 0.83358 0.20667 0.0
H855 H 0.70795 0.91244 0.21131 0.0
H856 H 0.72135 0.93656 0.20426 0.0
H857 H 0.72717 0.92564 0.19742 0.0
H858 H 0.73637 0.93706 0.2114 0.0
H859 H 0.74409 0.90865 0.21581 0.0
H860 H 0.70118 0.89048 0.21347 0.0
H861 H 0.74755 0.88852 0.19103 0.0
H862 H 0.74591 0.8796 0.20659 0.0
H863 H 0.75553 0.89791 0.20668 0.0
H864 H 0.68724 0.869 0.20348 0.0
H865 H 0.69417 0.85773 0.20308 0.0
H866 H 0.69465 0.86697 0.18808 0.0
H867 H 0.71138 0.85474 0.11562 0.0
H868 H 0.7116 0.82384 0.1491 0.0
H869 H 0.71375 0.82413 0.17358 0.0
H870 H 0.71973 0.85584 0.20983 0.0
H871 H 0.7225 0.88781 0.17615 0.0
H872 H 0.72073 0.88768 0.15167 0.0
H873 H 0.71318 0.77761 0.20601 0.0
H874 H 0.73114 0.78562 0.20934 0.0
H875 H 0.72441 0.79416 0.19948 0.0
C876 C 0.20094 0.88464 0.0901 0.0
C877 C 0.20022 0.8978 0.08992 0.0
C878 C 0.18808 0.89515 0.1107 0.0
C879 C 0.17749 0.89785 0.10899 0.0
C880 C 0.16577 0.89094 0.11667 0.0
C881 C 0.1646 0.88093 0.12605 0.0
C882 C 0.17539 0.87823 0.12776 0.0
C883 C 0.18713 0.88563 0.12026 0.0
C884 C 0.15461 0.89424 0.11466 0.0
C885 C 0.17447 0.86739 0.13729 0.0
C886 C 0.06553 0.81473 0.09808 0.0
C887 C 0.07697 0.81255 0.09294 0.0
C888 C 0.0954 0.8224 0.11022 0.0
C889 C 0.1035 0.81931 0.11859 0.0
C890 C 0.11478 0.82953 0.12566 0.0
C891 C 0.11768 0.84317 0.12478 0.0
C892 C 0.10957 0.8464 0.11626 0.0
C893 C 0.09864 0.83601 0.1089 0.0
C894 C 0.12348 0.82569 0.13419 0.0
C895 C 0.11234 0.86082 0.11505 0.0
C896 C 0.09113 0.82949 0.21127 0.0
C897 C 0.10148 0.82675 0.20803 0.0
C898 C 0.11314 0.83652 0.20165 0.0
C899 C 0.11447 0.84929 0.19846 0.0
C900 C 0.10433 0.85228 0.20231 0.0
C901 C 0.09284 0.84236 0.20881 0.0
C902 C 0.12395 0.83313 0.1981 0.0
C903 C 0.10549 0.86583 0.19922 0.0
C904 C 0.19868 0.94306 0.21752 0.0
C905 C 0.19489 0.93145 0.22759 0.0
C906 C 0.18227 0.91018 0.21409 0.0
C907 C 0.1824 0.89846 0.20982 0.0
C908 C 0.17139 0.88797 0.20266 0.0
C909 C 0.16011 0.88946 0.19934 0.0
C910 C 0.15984 0.90125 0.2037 0.0
C911 C 0.17086 0.91144 0.21115 0.0
C912 C 0.1719 0.87537 0.19853 0.0
C913 C 0.14797 0.90317 0.20034 0.0
C914 C 0.15194 0.87289 0.13363 0.0
C915 C 0.14094 0.8625 0.12645 0.0
C916 C 0.12895 0.85399 0.13305 0.0
C917 C 0.12794 0.85565 0.14731 0.0
C918 C 0.11609 0.84719 0.15433 0.0
C919 C 0.11546 0.84838 0.16847 0.0
C920 C 0.12655 0.85828 0.17613 0.0
C921 C 0.12618 0.85924 0.19058 0.0
C922 C 0.13724 0.86948 0.19782 0.0
C923 C 0.14874 0.87884 0.19101 0.0
C924 C 0.14939 0.87786 0.17658 0.0
C925 C 0.16083 0.88704 0.16939 0.0
C926 C 0.16163 0.88556 0.1553 0.0
C927 C 0.15098 0.87491 0.14783 0.0
C928 C 0.13906 0.86604 0.15474 0.0
C929 C 0.13831 0.86743 0.16915 0.0
C930 C 0.05898 0.80263 0.20682 0.0
C931 C 0.07263 0.80629 0.21336 0.0
O932 O 0.1993 0.90174 0.10318 0.0
O933 O 0.19341 0.91999 0.22079 0.0
O934 O 0.07945 0.82 0.21681 0.0
O935 O 0.0845 0.81193 0.10388 0.0
H936 H 0.19114 0.89599 0.08382 0.0
H937 H 0.19153 0.87624 0.09422 0.0
H938 H 0.20958 0.88598 0.09661 0.0
H939 H 0.20207 0.88161 0.07955 0.0
H940 H 0.17844 0.90537 0.10163 0.0
H941 H 0.19549 0.88374 0.12154 0.0
H942 H 0.14619 0.88584 0.10878 0.0
H943 H 0.15797 0.90377 0.10891 0.0
H944 H 0.15072 0.89524 0.12471 0.0
H945 H 0.1827 0.86503 0.1357 0.0
H946 H 0.16468 0.85792 0.1358 0.0
H947 H 0.17513 0.87088 0.14809 0.0
H948 H 0.08343 0.82118 0.08624 0.0
H949 H 0.05888 0.81409 0.08934 0.0
H950 H 0.06962 0.82489 0.10301 0.0
H951 H 0.05944 0.80707 0.10578 0.0
H952 H 0.10099 0.8088 0.11949 0.0
H953 H 0.09256 0.83862 0.10238 0.0
H954 H 0.1343 0.83293 0.13263 0.0
H955 H 0.12148 0.81527 0.13165 0.0
H956 H 0.12143 0.82609 0.14522 0.0
H957 H 0.10422 0.86145 0.10929 0.0
H958 H 0.12192 0.86688 0.10963 0.0
H959 H 0.11351 0.86549 0.1254 0.0
H960 H 0.07806 0.80387 0.20542 0.0
H961 H 0.10048 0.817 0.2105 0.0
H962 H 0.0849 0.84445 0.2116 0.0
H963 H 0.12445 0.83246 0.18677 0.0
H964 H 0.12206 0.82335 0.2025 0.0
H965 H 0.13391 0.84131 0.20191 0.0
H966 H 0.09655 0.86644 0.20252 0.0
H967 H 0.10675 0.8677 0.18803 0.0
H968 H 0.11455 0.87402 0.20455 0.0
H969 H 0.1853 0.92916 0.23251 0.0
H970 H 0.20043 0.95239 0.22313 0.0
H971 H 0.19046 0.94038 0.20984 0.0
H972 H 0.2079 0.94528 0.2119 0.0
H973 H 0.19119 0.89753 0.21218 0.0
H974 H 0.17052 0.9204 0.21442 0.0
H975 H 0.17297 0.87517 0.18725 0.0
H976 H 0.1624 0.86614 0.20121 0.0
H977 H 0.18047 0.87496 0.20356 0.0
H978 H 0.14975 0.91337 0.20349 0.0
H979 H 0.13899 0.8954 0.20567 0.0
H980 H 0.14567 0.90171 0.18914 0.0
H981 H 0.14175 0.86091 0.11559 0.0
H982 H 0.10723 0.83938 0.149 0.0
H983 H 0.10616 0.84141 0.17334 0.0
H984 H 0.13691 0.87013 0.20891 0.0
H985 H 0.16938 0.89537 0.1746 0.0
H986 H 0.17074 0.89281 0.15034 0.0
H987 H 0.05324 0.79162 0.20417 0.0
H988 H 0.06051 0.80841 0.19724 0.0
H989 H 0.05297 0.80517 0.21387 0.0
C990 C 0.29309 0.11035 0.93871 0.0
C991 C 0.28585 0.09678 0.93068 0.0
C992 C 0.28652 0.1067 0.90836 0.0
C993 C 0.27413 0.10645 0.90833 0.0
C994 C 0.27187 0.1151 0.89985 0.0
C995 C 0.2823 0.12438 0.89144 0.0
C996 C 0.29475 0.12451 0.89135 0.0
C997 C 0.29656 0.11542 0.8996 0.0
C998 C 0.25839 0.11448 0.90004 0.0
C999 C 0.30628 0.13449 0.88286 0.0
C1000 C 0.27208 0.20956 0.90241 0.0
C1001 C 0.28002 0.20798 0.9144 0.0
C1002 C 0.28655 0.19214 0.90414 0.0
C1003 C 0.29723 0.19147 0.89819 0.0
C1004 C 0.29533 0.17953 0.89174 0.0
C1005 C 0.28236 0.16795 0.89128 0.0
C1006 C 0.27156 0.16838 0.89767 0.0
C1007 C 0.27376 0.18048 0.90408 0.0
C1008 C 0.30711 0.17939 0.88514 0.0
C1009 C 0.25765 0.15614 0.89744 0.0
C1010 C 0.26627 0.18176 0.80511 0.0
C1011 C 0.27922 0.18446 0.80901 0.0
C1012 C 0.2812 0.17444 0.81526 0.0
C1013 C 0.26995 0.16159 0.81787 0.0
C1014 C 0.25696 0.15871 0.81342 0.0
C1015 C 0.25534 0.16881 0.80689 0.0
C1016 C 0.29528 0.17768 0.8193 0.0
C1017 C 0.24475 0.14509 0.81585 0.0
C1018 C 0.26418 0.06809 0.80278 0.0
C1019 C 0.26899 0.07799 0.79083 0.0
C1020 C 0.27671 0.10023 0.80228 0.0
C1021 C 0.28816 0.11232 0.80628 0.0
C1022 C 0.28717 0.12243 0.81367 0.0
C1023 C 0.27435 0.12033 0.81719 0.0
C1024 C 0.26267 0.10821 0.81302 0.0
C1025 C 0.26395 0.09826 0.80558 0.0
C1026 C 0.29984 0.13529 0.81786 0.0
C1027 C 0.24886 0.10572 0.81661 0.0
C1028 C 0.28041 0.13439 0.88334 0.0
C1029 C 0.28148 0.14571 0.89035 0.0
C1030 C 0.28004 0.15568 0.88345 0.0
C1031 C 0.27733 0.15435 0.86915 0.0
C1032 C 0.27548 0.16403 0.86197 0.0
C1033 C 0.2733 0.1629 0.84783 0.0
C1034 C 0.27317 0.15222 0.84027 0.0
C1035 C 0.27165 0.15137 0.8258 0.0
C1036 C 0.27183 0.14074 0.8186 0.0
C1037 C 0.27326 0.13075 0.8255 0.0
C1038 C 0.27443 0.13123 0.83999 0.0
C1039 C 0.27548 0.12112 0.84728 0.0
C1040 C 0.27709 0.12193 0.86151 0.0
C1041 C 0.27802 0.13304 0.86896 0.0
C1042 C 0.27659 0.14314 0.86185 0.0
C1043 C 0.27466 0.14216 0.84737 0.0
C1044 C 0.2596 0.20861 0.80745 0.0
C1045 C 0.27032 0.20495 0.80355 0.0
O1046 O 0.28923 0.09893 0.91695 0.0
O1047 O 0.27858 0.09083 0.79542 0.0
O1048 O 0.26399 0.19138 0.79953 0.0
O1049 O 0.28912 0.20428 0.9096 0.0
H1050 H 0.2748 0.09233 0.93169 0.0
H1051 H 0.29006 0.11757 0.9346 0.0
H1052 H 0.30417 0.11494 0.93787 0.0
H1053 H 0.29046 0.10893 0.94972 0.0
H1054 H 0.2662 0.09948 0.91485 0.0
H1055 H 0.30606 0.11548 0.89968 0.0
H1056 H 0.2595 0.12373 0.90526 0.0
H1057 H 0.25076 0.10546 0.90553 0.0
H1058 H 0.25464 0.11422 0.8894 0.0
H1059 H 0.31582 0.13459 0.88546 0.0
H1060 H 0.30784 0.14489 0.88438 0.0
H1061 H 0.3039 0.13175 0.87182 0.0
H1062 H 0.27296 0.20013 0.92149 0.0
H1063 H 0.26506 0.21287 0.90629 0.0
H1064 H 0.26604 0.19977 0.89679 0.0
H1065 H 0.27901 0.21717 0.89508 0.0
H1066 H 0.30708 0.20047 0.89839 0.0
H1067 H 0.26542 0.18075 0.90884 0.0
H1068 H 0.30527 0.17784 0.87388 0.0
H1069 H 0.30819 0.17081 0.88908 0.0
H1070 H 0.3167 0.18899 0.8871 0.0
H1071 H 0.25036 0.15798 0.90315 0.0
H1072 H 0.25801 0.14738 0.902 0.0
H1073 H 0.25397 0.15331 0.88665 0.0
H1074 H 0.27678 0.20676 0.81288 0.0
H1075 H 0.28777 0.19435 0.80714 0.0
H1076 H 0.24542 0.16679 0.80359 0.0
H1077 H 0.29658 0.17888 0.83062 0.0
H1078 H 0.30303 0.1872 0.81461 0.0
H1079 H 0.29702 0.16924 0.81616 0.0
H1080 H 0.23527 0.14475 0.8125 0.0
H1081 H 0.24415 0.14267 0.82692 0.0
H1082 H 0.24567 0.13709 0.81013 0.0
H1083 H 0.2603 0.07839 0.78607 0.0
H1084 H 0.25664 0.05775 0.79904 0.0
H1085 H 0.25938 0.07132 0.81064 0.0
H1086 H 0.27277 0.06765 0.80773 0.0
H1087 H 0.29795 0.11376 0.80366 0.0
H1088 H 0.25496 0.08899 0.8025 0.0
H1089 H 0.30081 0.13608 0.82923 0.0
H1090 H 0.29928 0.14425 0.8142 0.0
H1091 H 0.309 0.13565 0.81371 0.0
H1092 H 0.24074 0.09571 0.81274 0.0
H1093 H 0.24722 0.1138 0.81218 0.0
H1094 H 0.24812 0.10623 0.82792 0.0
H1095 H 0.28366 0.14688 0.90131 0.0
H1096 H 0.27571 0.17261 0.86719 0.0
H1097 H 0.27192 0.17066 0.84288 0.0
H1098 H 0.27096 0.14031 0.80749 0.0
H1099 H 0.27508 0.11246 0.84206 0.0
H1100 H 0.27782 0.11385 0.86657 0.0
H1101 H 0.25275 0.20702 0.79854 0.0
H1102 H 0.26437 0.21938 0.81096 0.0
H1103 H 0.25354 0.2021 0.81595 0.0
C1104 C 0.81572 0.09702 0.9486 0.0
C1105 C 0.80543 0.09511 0.93733 0.0
C1106 C 0.81547 0.09805 0.91506 0.0
C1107 C 0.8123 0.10731 0.90898 0.0
C1108 C 0.82068 0.11638 0.89913 0.0
C1109 C 0.83245 0.11615 0.89532 0.0
C1110 C 0.83524 0.10628 0.90088 0.0
C1111 C 0.82658 0.09722 0.9106 0.0
C1112 C 0.81722 0.12654 0.89316 0.0
C1113 C 0.84765 0.10569 0.89695 0.0
C1114 C 0.91962 0.21397 0.92715 0.0
C1115 C 0.91267 0.20178 0.91799 0.0
C1116 C 0.89014 0.18548 0.90933 0.0
C1117 C 0.89377 0.17627 0.90382 0.0
C1118 C 0.8844 0.16473 0.89632 0.0
C1119 C 0.87119 0.16246 0.89406 0.0
C1120 C 0.8675 0.17171 0.8996 0.0
C1121 C 0.87701 0.18304 0.90727 0.0
C1122 C 0.8886 0.15491 0.89086 0.0
C1123 C 0.85352 0.16962 0.89742 0.0
C1124 C 0.88913 0.18025 0.804 0.0
C1125 C 0.89328 0.17209 0.81099 0.0
C1126 C 0.88415 0.16102 0.81867 0.0
C1127 C 0.8707 0.15825 0.81967 0.0
C1128 C 0.86649 0.1664 0.8126 0.0
C1129 C 0.87575 0.1772 0.80473 0.0
C1130 C 0.8889 0.1523 0.82576 0.0
C1131 C 0.85224 0.16376 0.81344 0.0
C1132 C 0.79855 0.05194 0.79886 0.0
C1133 C 0.79925 0.06575 0.79776 0.0
C1134 C 0.81952 0.08678 0.80467 0.0
C1135 C 0.83293 0.09105 0.80805 0.0
C1136 C 0.84059 0.10266 0.81626 0.0
C1137 C 0.83478 0.11046 0.82081 0.0
C1138 C 0.82126 0.10637 0.81712 0.0
C1139 C 0.81371 0.09447 0.80918 0.0
C1140 C 0.85496 0.10666 0.81995 0.0
C1141 C 0.81491 0.11473 0.82131 0.0
C1142 C 0.84247 0.12712 0.88672 0.0
C1143 C 0.85191 0.1391 0.89344 0.0
C1144 C 0.86118 0.15027 0.88613 0.0
C1145 C 0.86096 0.14961 0.87162 0.0
C1146 C 0.8697 0.16088 0.8639 0.0
C1147 C 0.86961 0.16006 0.84965 0.0
C1148 C 0.86088 0.1479 0.84257 0.0
C1149 C 0.86104 0.14684 0.82812 0.0
C1150 C 0.85219 0.13463 0.82141 0.0
C1151 C 0.84315 0.12328 0.82872 0.0
C1152 C 0.84281 0.12413 0.8432 0.0
C1153 C 0.83386 0.11295 0.85093 0.0
C1154 C 0.83359 0.11394 0.86518 0.0
C1155 C 0.84251 0.12604 0.87225 0.0
C1156 C 0.85173 0.13738 0.86468 0.0
C1157 C 0.85177 0.13648 0.85014 0.0
C1158 C 0.91745 0.20592 0.80959 0.0
C1159 C 0.91152 0.19755 0.79632 0.0
O1160 O 0.80814 0.09011 0.92548 0.0
O1161 O 0.81267 0.0755 0.79663 0.0
O1162 O 0.89759 0.1911 0.79646 0.0
O1163 O 0.89892 0.19674 0.91669 0.0
H1164 H 0.80652 0.1053 0.93557 0.0
H1165 H 0.82596 0.10463 0.94538 0.0
H1166 H 0.81563 0.08734 0.9506 0.0
H1167 H 0.81351 0.10075 0.95826 0.0
H1168 H 0.80339 0.10758 0.91211 0.0
H1169 H 0.8288 0.08987 0.91523 0.0
H1170 H 0.82479 0.1369 0.89675 0.0
H1171 H 0.8071 0.12458 0.89619 0.0
H1172 H 0.81756 0.1263 0.88179 0.0
H1173 H 0.84804 0.097 0.90166 0.0
H1174 H 0.85675 0.11524 0.90029 0.0
H1175 H 0.84795 0.10484 0.88562 0.0
H1176 H 0.91753 0.20262 0.90792 0.0
H1177 H 0.92689 0.20737 0.94352 0.0
H1178 H 0.91245 0.21799 0.92857 0.0
H1179 H 0.92646 0.22229 0.92016 0.0
H1180 H 0.90386 0.17794 0.90545 0.0
H1181 H 0.87428 0.19015 0.9116 0.0
H1182 H 0.88127 0.1444 0.89385 0.0
H1183 H 0.89877 0.15737 0.89469 0.0
H1184 H 0.88868 0.15516 0.87948 0.0
H1185 H 0.85268 0.17848 0.90106 0.0
H1186 H 0.84626 0.16055 0.90309 0.0
H1187 H 0.85058 0.16773 0.88637 0.0
H1188 H 0.91487 0.1899 0.79532 0.0
H1189 H 0.90356 0.1742 0.81049 0.0
H1190 H 0.87263 0.1835 0.79927 0.0
H1191 H 0.88914 0.1539 0.83703 0.0
H1192 H 0.89912 0.15472 0.82257 0.0
H1193 H 0.88182 0.1414 0.82351 0.0
H1194 H 0.85084 0.17166 0.80822 0.0
H1195 H 0.84941 0.16335 0.82435 0.0
H1196 H 0.84527 0.15376 0.80858 0.0
H1197 H 0.79502 0.06739 0.80735 0.0
H1198 H 0.78818 0.04378 0.80095 0.0
H1199 H 0.80518 0.05224 0.80746 0.0
H1200 H 0.80196 0.0494 0.78922 0.0
H1201 H 0.83734 0.0851 0.80435 0.0
H1202 H 0.80342 0.09137 0.80619 0.0
H1203 H 0.85693 0.10901 0.83111 0.0
H1204 H 0.86186 0.11596 0.81435 0.0
H1205 H 0.85735 0.09856 0.81725 0.0
H1206 H 0.80466 0.11073 0.81675 0.0
H1207 H 0.82128 0.12539 0.81811 0.0
H1208 H 0.81422 0.11481 0.83265 0.0
H1209 H 0.85198 0.13975 0.90456 0.0
H1210 H 0.87671 0.17048 0.86879 0.0
H1211 H 0.87656 0.16907 0.84425 0.0
H1212 H 0.8525 0.13387 0.81033 0.0
H1213 H 0.82691 0.10334 0.84605 0.0
H1214 H 0.82643 0.10506 0.87061 0.0
H1215 H 0.92861 0.21111 0.80958 0.0
H1216 H 0.91401 0.19926 0.81864 0.0
H1217 H 0.91425 0.21367 0.81067 0.0
C1218 C 0.81217 0.72818 0.94426 0.0
C1219 C 0.80146 0.72195 0.93271 0.0
C1220 C 0.81295 0.71456 0.91637 0.0
C1221 C 0.82256 0.72757 0.91211 0.0
C1222 C 0.83303 0.72933 0.90352 0.0
C1223 C 0.83382 0.71787 0.89896 0.0
C1224 C 0.82393 0.70474 0.90287 0.0
C1225 C 0.81362 0.70328 0.91152 0.0
C1226 C 0.84341 0.74347 0.89948 0.0
C1227 C 0.82438 0.6923 0.89807 0.0
C1228 C 0.93174 0.74651 0.92304 0.0
C1229 C 0.92055 0.7339 0.92987 0.0
C1230 C 0.90131 0.72459 0.91344 0.0
C1231 C 0.89283 0.71317 0.90542 0.0
C1232 C 0.88175 0.71232 0.89818 0.0
C1233 C 0.87941 0.72347 0.89854 0.0
C1234 C 0.88794 0.73509 0.90668 0.0
C1235 C 0.89867 0.73544 0.91422 0.0
C1236 C 0.87257 0.69948 0.89014 0.0
C1237 C 0.88579 0.74719 0.90734 0.0
C1238 C 0.90422 0.73607 0.81068 0.0
C1239 C 0.89534 0.72265 0.81437 0.0
C1240 C 0.8834 0.71937 0.82118 0.0
C1241 C 0.88038 0.72976 0.82443 0.0
C1242 C 0.88912 0.7432 0.82029 0.0
C1243 C 0.90085 0.74613 0.81328 0.0
C1244 C 0.8741 0.70486 0.82506 0.0
C1245 C 0.88621 0.75453 0.82347 0.0
C1246 C 0.79274 0.73222 0.80676 0.0
C1247 C 0.79657 0.72436 0.79654 0.0
C1248 C 0.8103 0.71713 0.80992 0.0
C1249 C 0.8109 0.70586 0.8147 0.0
C1250 C 0.82233 0.70732 0.82178 0.0
C1251 C 0.83332 0.72047 0.82446 0.0
C1252 C 0.83282 0.73194 0.81963 0.0
C1253 C 0.8214 0.73016 0.81228 0.0
C1254 C 0.82261 0.69482 0.8265 0.0
C1255 C 0.84433 0.74613 0.8223 0.0
C1256 C 0.84532 0.71968 0.89062 0.0
C1257 C 0.85658 0.72071 0.89756 0.0
C1258 C 0.86801 0.72293 0.8905 0.0
C1259 C 0.86832 0.72429 0.87606 0.0
C1260 C 0.87988 0.72719 0.86868 0.0
C1261 C 0.87995 0.72809 0.85445 0.0
C1262 C 0.86844 0.72608 0.84703 0.0
C1263 C 0.86832 0.72669 0.83253 0.0
C1264 C 0.85671 0.72466 0.8255 0.0
C1265 C 0.8452 0.72226 0.83257 0.0
C1266 C 0.8452 0.72179 0.84708 0.0
C1267 C 0.83392 0.71971 0.85455 0.0
C1268 C 0.83395 0.71907 0.8688 0.0
C1269 C 0.84525 0.72047 0.87615 0.0
C1270 C 0.85679 0.72276 0.86885 0.0
C1271 C 0.8568 0.72352 0.85431 0.0
C1272 C 0.93809 0.74639 0.81288 0.0
C1273 C 0.92465 0.73467 0.80764 0.0
O1274 O 0.80302 0.71237 0.92523 0.0
O1275 O 0.79881 0.71493 0.80329 0.0
O1276 O 0.91604 0.73964 0.8045 0.0
O1277 O 0.91192 0.72468 0.92004 0.0
H1278 H 0.80233 0.73008 0.92578 0.0
H1279 H 0.82241 0.73365 0.94001 0.0
H1280 H 0.81163 0.72015 0.95112 0.0
H1281 H 0.81065 0.73557 0.95044 0.0
H1282 H 0.82209 0.73641 0.91553 0.0
H1283 H 0.80611 0.69328 0.91475 0.0
H1284 H 0.85354 0.7456 0.90304 0.0
H1285 H 0.8414 0.75136 0.90386 0.0
H1286 H 0.84358 0.74422 0.88813 0.0
H1287 H 0.81553 0.68276 0.90139 0.0
H1288 H 0.83365 0.69265 0.90221 0.0
H1289 H 0.82481 0.69214 0.88669 0.0
H1290 H 0.91485 0.73709 0.9367 0.0
H1291 H 0.93891 0.7536 0.93096 0.0
H1292 H 0.92752 0.75198 0.91726 0.0
H1293 H 0.93732 0.74366 0.91572 0.0
H1294 H 0.89487 0.7048 0.90495 0.0
H1295 H 0.90499 0.7443 0.92052 0.0
H1296 H 0.87446 0.70131 0.87902 0.0
H1297 H 0.86187 0.6964 0.89183 0.0
H1298 H 0.87425 0.69096 0.893 0.0
H1299 H 0.89434 0.75611 0.91254 0.0
H1300 H 0.87653 0.74449 0.9131 0.0
H1301 H 0.88438 0.7501 0.89685 0.0
H1302 H 0.92064 0.72726 0.81611 0.0
H1303 H 0.89767 0.71473 0.81186 0.0
H1304 H 0.90768 0.75641 0.81016 0.0
H1305 H 0.87406 0.70403 0.8364 0.0
H1306 H 0.87716 0.69778 0.82059 0.0
H1307 H 0.86365 0.70166 0.82156 0.0
H1308 H 0.89452 0.76459 0.82046 0.0
H1309 H 0.88447 0.75484 0.83461 0.0
H1310 H 0.87689 0.7526 0.81787 0.0
H1311 H 0.80587 0.73181 0.79133 0.0
H1312 H 0.78983 0.73893 0.80118 0.0
H1313 H 0.80136 0.73871 0.81372 0.0
H1314 H 0.78427 0.72521 0.81322 0.0
H1315 H 0.80235 0.69584 0.8128 0.0
H1316 H 0.82124 0.73904 0.8086 0.0
H1317 H 0.82218 0.69437 0.83786 0.0
H1318 H 0.83215 0.69527 0.82349 0.0
H1319 H 0.81403 0.68534 0.82216 0.0
H1320 H 0.84176 0.75402 0.81931 0.0
H1321 H 0.85312 0.74761 0.81633 0.0
H1322 H 0.84736 0.7476 0.83333 0.0
H1323 H 0.85643 0.71978 0.90864 0.0
H1324 H 0.88901 0.72878 0.87382 0.0
H1325 H 0.88912 0.7303 0.84934 0.0
H1326 H 0.85667 0.7251 0.81439 0.0
H1327 H 0.82493 0.71854 0.84945 0.0
H1328 H 0.82496 0.71737 0.87399 0.0
H1329 H 0.94267 0.75438 0.80503 0.0
H1330 H 0.94518 0.74266 0.81549 0.0
H1331 H 0.93651 0.75098 0.82229 0.0
C1332 C 0.85898 0.61459 0.39745 0.0
C1333 C 0.86764 0.62663 0.40707 0.0
C1334 C 0.85707 0.62327 0.42911 0.0
C1335 C 0.8579 0.6358 0.43194 0.0
C1336 C 0.84861 0.63667 0.44054 0.0
C1337 C 0.83821 0.62471 0.44629 0.0
C1338 C 0.83751 0.61208 0.44359 0.0
C1339 C 0.84715 0.61158 0.43522 0.0
C1340 C 0.84984 0.65034 0.44339 0.0
C1341 C 0.82645 0.59907 0.44931 0.0
C1342 C 0.74672 0.62624 0.41261 0.0
C1343 C 0.75576 0.62125 0.41778 0.0
C1344 C 0.77695 0.62989 0.43091 0.0
C1345 C 0.77545 0.61708 0.43373 0.0
C1346 C 0.78521 0.6159 0.44158 0.0
C1347 C 0.79668 0.62776 0.44668 0.0
C1348 C 0.79822 0.64065 0.44383 0.0
C1349 C 0.7883 0.64153 0.43599 0.0
C1350 C 0.78328 0.602 0.44445 0.0
C1351 C 0.81035 0.6535 0.44905 0.0
C1352 C 0.77508 0.62428 0.53607 0.0
C1353 C 0.77409 0.612 0.53151 0.0
C1354 C 0.78446 0.61193 0.52403 0.0
C1355 C 0.79607 0.62436 0.52109 0.0
C1356 C 0.79719 0.6367 0.52583 0.0
C1357 C 0.78667 0.63648 0.53326 0.0
C1358 C 0.78297 0.59858 0.51915 0.0
C1359 C 0.80946 0.65013 0.52292 0.0
C1360 C 0.8861 0.61351 0.53146 0.0
C1361 C 0.8808 0.62215 0.53816 0.0
C1362 C 0.85756 0.61693 0.53325 0.0
C1363 C 0.84505 0.60589 0.52961 0.0
C1364 C 0.83505 0.60775 0.52319 0.0
C1365 C 0.83759 0.62106 0.52059 0.0
C1366 C 0.84999 0.63233 0.52488 0.0
C1367 C 0.85987 0.63016 0.53121 0.0
C1368 C 0.82188 0.5955 0.51892 0.0
C1369 C 0.85286 0.64664 0.52256 0.0
C1370 C 0.82777 0.62536 0.45464 0.0
C1371 C 0.81743 0.62618 0.44769 0.0
C1372 C 0.80718 0.62669 0.45481 0.0
C1373 C 0.80709 0.62625 0.4693 0.0
C1374 C 0.79683 0.62658 0.47678 0.0
C1375 C 0.79679 0.62605 0.49105 0.0
C1376 C 0.807 0.62516 0.49839 0.0
C1377 C 0.80695 0.62443 0.51288 0.0
C1378 C 0.81719 0.62341 0.51984 0.0
C1379 C 0.82754 0.62308 0.5127 0.0
C1380 C 0.82783 0.62395 0.49823 0.0
C1381 C 0.83817 0.62376 0.49075 0.0
C1382 C 0.83827 0.6244 0.4765 0.0
C1383 C 0.82795 0.62506 0.46915 0.0
C1384 C 0.81751 0.62542 0.47649 0.0
C1385 C 0.81748 0.6249 0.49105 0.0
C1386 C 0.74322 0.6097 0.53359 0.0
C1387 C 0.75262 0.61427 0.54629 0.0
O1388 O 0.86575 0.62226 0.42052 0.0
O1389 O 0.86694 0.61432 0.53891 0.0
O1390 O 0.76518 0.6249 0.54307 0.0
O1391 O 0.76775 0.6315 0.4234 0.0
H1392 H 0.86438 0.63432 0.40559 0.0
H1393 H 0.8482 0.61027 0.39996 0.0
H1394 H 0.86174 0.60652 0.39856 0.0
H1395 H 0.86029 0.61789 0.38661 0.0
H1396 H 0.86584 0.64488 0.42744 0.0
H1397 H 0.84671 0.60198 0.43303 0.0
H1398 H 0.84132 0.65077 0.43828 0.0
H1399 H 0.85939 0.6588 0.43958 0.0
H1400 H 0.84928 0.65184 0.45459 0.0
H1401 H 0.82654 0.58998 0.44512 0.0
H1402 H 0.81649 0.59813 0.44693 0.0
H1403 H 0.82762 0.59924 0.46064 0.0
H1404 H 0.7572 0.61438 0.4106 0.0
H1405 H 0.73011 0.61706 0.42545 0.0
H1406 H 0.74588 0.62425 0.40119 0.0
H1407 H 0.75306 0.63759 0.4117 0.0
H1408 H 0.76672 0.60797 0.42984 0.0
H1409 H 0.78936 0.65136 0.43377 0.0
H1410 H 0.79167 0.60106 0.44003 0.0
H1411 H 0.77363 0.59375 0.4401 0.0
H1412 H 0.78353 0.60065 0.45571 0.0
H1413 H 0.81016 0.66276 0.44576 0.0
H1414 H 0.81966 0.65393 0.44527 0.0
H1415 H 0.81083 0.65348 0.46044 0.0
H1416 H 0.75364 0.60559 0.5501 0.0
H1417 H 0.76527 0.60242 0.53363 0.0
H1418 H 0.78739 0.6459 0.53683 0.0
H1419 H 0.78362 0.59849 0.5078 0.0
H1420 H 0.77327 0.58977 0.52218 0.0
H1421 H 0.79132 0.59735 0.52349 0.0
H1422 H 0.80892 0.65883 0.52755 0.0
H1423 H 0.81055 0.65152 0.51166 0.0
H1424 H 0.8186 0.65019 0.527 0.0
H1425 H 0.88376 0.63109 0.53153 0.0
H1426 H 0.89715 0.61953 0.5302 0.0
H1427 H 0.88131 0.60993 0.52113 0.0
H1428 H 0.88373 0.60452 0.53779 0.0
H1429 H 0.84328 0.59573 0.5315 0.0
H1430 H 0.8693 0.63879 0.53462 0.0
H1431 H 0.82029 0.59551 0.50766 0.0
H1432 H 0.81347 0.59597 0.52394 0.0
H1433 H 0.82149 0.58582 0.52167 0.0
H1434 H 0.86262 0.65432 0.52727 0.0
H1435 H 0.84471 0.64806 0.5269 0.0
H1436 H 0.85304 0.64846 0.51136 0.0
H1437 H 0.81736 0.62644 0.43656 0.0
H1438 H 0.78868 0.6272 0.47168 0.0
H1439 H 0.78861 0.62629 0.49624 0.0
H1440 H 0.81699 0.62265 0.53093 0.0
H1441 H 0.84631 0.62313 0.49582 0.0
H1442 H 0.84651 0.62428 0.47131 0.0
H1443 H 0.73311 0.60133 0.53625 0.0
H1444 H 0.7422 0.61827 0.52951 0.0
H1445 H 0.74719 0.60592 0.52537 0.0
C1446 C 0.39514 0.24883 0.40329 0.0
C1447 C 0.38481 0.24641 0.4143 0.0
C1448 C 0.38805 0.23905 0.43665 0.0
C1449 C 0.37472 0.22955 0.43963 0.0
C1450 C 0.37184 0.21891 0.44864 0.0
C1451 C 0.38253 0.21776 0.45475 0.0
C1452 C 0.39599 0.2277 0.45223 0.0
C1453 C 0.39857 0.23836 0.44333 0.0
C1454 C 0.35737 0.20869 0.45136 0.0
C1455 C 0.40763 0.22678 0.45855 0.0
C1456 C 0.37154 0.11754 0.42583 0.0
C1457 C 0.37694 0.13049 0.43381 0.0
C1458 C 0.37134 0.14825 0.43888 0.0
C1459 C 0.38242 0.15593 0.44774 0.0
C1460 C 0.38351 0.16706 0.45523 0.0
C1461 C 0.37305 0.17031 0.45423 0.0
C1462 C 0.36186 0.16258 0.44534 0.0
C1463 C 0.36127 0.15176 0.43763 0.0
C1464 C 0.39589 0.17535 0.46416 0.0
C1465 C 0.35049 0.16566 0.44402 0.0
C1466 C 0.36187 0.14482 0.54322 0.0
C1467 C 0.37396 0.15186 0.5362 0.0
C1468 C 0.37697 0.16364 0.52894 0.0
C1469 C 0.36739 0.1681 0.52816 0.0
C1470 C 0.35515 0.16095 0.53521 0.0
C1471 C 0.3527 0.14958 0.5429 0.0
C1472 C 0.3905 0.17137 0.52229 0.0
C1473 C 0.34464 0.16531 0.53464 0.0
C1474 C 0.4072 0.27503 0.54902 0.0
C1475 C 0.39317 0.26281 0.55109 0.0
C1476 C 0.39038 0.24047 0.54592 0.0
C1477 C 0.39894 0.23519 0.54378 0.0
C1478 C 0.39491 0.22363 0.53545 0.0
C1479 C 0.38178 0.21693 0.52953 0.0
C1480 C 0.37287 0.22196 0.5321 0.0
C1481 C 0.37733 0.23379 0.54018 0.0
C1482 C 0.40471 0.21859 0.53298 0.0
C1483 C 0.35865 0.21477 0.52642 0.0
C1484 C 0.37956 0.20559 0.46286 0.0
C1485 C 0.37746 0.19397 0.45565 0.0
C1486 C 0.37397 0.18189 0.4624 0.0
C1487 C 0.3722 0.18124 0.47676 0.0
C1488 C 0.36777 0.16902 0.48377 0.0
C1489 C 0.36676 0.16863 0.49798 0.0
C1490 C 0.37037 0.1805 0.50575 0.0
C1491 C 0.3703 0.1804 0.52026 0.0
C1492 C 0.37375 0.19235 0.52762 0.0
C1493 C 0.37737 0.2045 0.52092 0.0
C1494 C 0.37757 0.20482 0.50641 0.0
C1495 C 0.38123 0.21686 0.4993 0.0
C1496 C 0.38159 0.21709 0.48502 0.0
C1497 C 0.37871 0.20538 0.47733 0.0
C1498 C 0.37498 0.19313 0.48429 0.0
C1499 C 0.37421 0.19279 0.49882 0.0
C1500 C 0.35835 0.11341 0.55832 0.0
C1501 C 0.36087 0.12311 0.54701 0.0
O1502 O 0.39099 0.24877 0.42716 0.0
O1503 O 0.39485 0.25177 0.55394 0.0
O1504 O 0.35904 0.13387 0.55096 0.0
O1505 O 0.37002 0.13747 0.43139 0.0
H1506 H 0.37686 0.23558 0.413 0.0
H1507 H 0.39881 0.24147 0.40448 0.0
H1508 H 0.40392 0.25924 0.40422 0.0
H1509 H 0.39047 0.24736 0.39288 0.0
H1510 H 0.36657 0.23038 0.43478 0.0
H1511 H 0.40883 0.24587 0.44108 0.0
H1512 H 0.35497 0.19869 0.44686 0.0
H1513 H 0.35027 0.21171 0.4469 0.0
H1514 H 0.3558 0.20739 0.46259 0.0
H1515 H 0.41751 0.23532 0.45555 0.0
H1516 H 0.40705 0.21708 0.45533 0.0
H1517 H 0.40703 0.22678 0.46991 0.0
H1518 H 0.38808 0.13705 0.43354 0.0
H1519 H 0.37992 0.119 0.41891 0.0
H1520 H 0.36504 0.11808 0.41732 0.0
H1521 H 0.36396 0.10263 0.44091 0.0
H1522 H 0.39037 0.15342 0.44875 0.0
H1523 H 0.35277 0.14581 0.43075 0.0
H1524 H 0.39965 0.18637 0.46293 0.0
H1525 H 0.40412 0.17321 0.46174 0.0
H1526 H 0.39333 0.17292 0.47509 0.0
H1527 H 0.34169 0.15754 0.43827 0.0
H1528 H 0.35403 0.17532 0.43849 0.0
H1529 H 0.34724 0.16697 0.45432 0.0
H1530 H 0.35583 0.11845 0.53696 0.0
H1531 H 0.38131 0.14852 0.53671 0.0
H1532 H 0.34347 0.14417 0.54852 0.0
H1533 H 0.38931 0.16907 0.51111 0.0
H1534 H 0.39782 0.16851 0.52651 0.0
H1535 H 0.39476 0.18248 0.52373 0.0
H1536 H 0.33492 0.15754 0.53886 0.0
H1537 H 0.3429 0.16736 0.5239 0.0
H1538 H 0.34826 0.17485 0.54072 0.0
H1539 H 0.38728 0.26112 0.54136 0.0
H1540 H 0.40659 0.28375 0.54476 0.0
H1541 H 0.41275 0.27228 0.54156 0.0
H1542 H 0.41304 0.27816 0.55887 0.0
H1543 H 0.40893 0.24036 0.54845 0.0
H1544 H 0.37056 0.23767 0.54225 0.0
H1545 H 0.40528 0.21693 0.52182 0.0
H1546 H 0.40113 0.2087 0.53807 0.0
H1547 H 0.41496 0.22578 0.53704 0.0
H1548 H 0.35261 0.21923 0.53042 0.0
H1549 H 0.35362 0.20385 0.52904 0.0
H1550 H 0.35877 0.2154 0.51506 0.0
H1551 H 0.37865 0.19437 0.4446 0.0
H1552 H 0.36509 0.15962 0.47835 0.0
H1553 H 0.36333 0.15894 0.50282 0.0
H1554 H 0.37391 0.19227 0.53876 0.0
H1555 H 0.38385 0.22626 0.50469 0.0
H1556 H 0.38442 0.22662 0.48009 0.0
H1557 H 0.37716 0.11486 0.56186 0.0
H1558 H 0.34921 0.10371 0.55478 0.0
H1559 H 0.35289 0.11572 0.56653 0.0
C1560 C 0.85506 0.23096 0.39712 0.0
C1561 C 0.86336 0.24115 0.40864 0.0
C1562 C 0.85244 0.22627 0.42809 0.0
C1563 C 0.84126 0.22822 0.42898 0.0
C1564 C 0.83008 0.21949 0.4367 0.0
C1565 C 0.82996 0.20843 0.44346 0.0
C1566 C 0.84126 0.20651 0.44267 0.0
C1567 C 0.85246 0.21564 0.43521 0.0
C1568 C 0.81834 0.22202 0.43751 0.0
C1569 C 0.84143 0.19467 0.44944 0.0
C1570 C 0.74812 0.14547 0.389 0.0
C1571 C 0.75333 0.14023 0.40064 0.0
C1572 C 0.76217 0.15315 0.42204 0.0
C1573 C 0.77251 0.15023 0.42495 0.0
C1574 C 0.78316 0.15855 0.43402 0.0
C1575 C 0.78348 0.17005 0.4402 0.0
C1576 C 0.77291 0.17285 0.43745 0.0
C1577 C 0.76226 0.16419 0.42858 0.0
C1578 C 0.79409 0.15509 0.43697 0.0
C1579 C 0.77298 0.18512 0.44368 0.0
C1580 C 0.75599 0.14818 0.52573 0.0
C1581 C 0.76674 0.14575 0.5236 0.0
C1582 C 0.77876 0.15575 0.51795 0.0
C1583 C 0.78007 0.16844 0.51449 0.0
C1584 C 0.76952 0.17115 0.51732 0.0
C1585 C 0.75764 0.16098 0.52301 0.0
C1586 C 0.78996 0.15268 0.5154 0.0
C1587 C 0.77068 0.18464 0.51397 0.0
C1588 C 0.87014 0.25788 0.53133 0.0
C1589 C 0.86398 0.24943 0.54414 0.0
C1590 C 0.84827 0.22697 0.53387 0.0
C1591 C 0.84663 0.21416 0.53089 0.0
C1592 C 0.83567 0.2046 0.5229 0.0
C1593 C 0.82603 0.20794 0.51786 0.0
C1594 C 0.82742 0.22076 0.5211 0.0
C1595 C 0.83855 0.23018 0.52904 0.0
C1596 C 0.83448 0.19101 0.51968 0.0
C1597 C 0.81721 0.22455 0.516 0.0
C1598 C 0.81781 0.19858 0.45088 0.0
C1599 C 0.80678 0.18901 0.44306 0.0
C1600 C 0.79502 0.17937 0.44926 0.0
C1601 C 0.79427 0.17901 0.46374 0.0
C1602 C 0.78276 0.16919 0.47033 0.0
C1603 C 0.78204 0.16903 0.48457 0.0
C1604 C 0.79282 0.17867 0.49278 0.0
C1605 C 0.79216 0.1786 0.50727 0.0
C1606 C 0.80307 0.18829 0.51513 0.0
C1607 C 0.81471 0.19813 0.5089 0.0
C1608 C 0.81555 0.19839 0.49442 0.0
C1609 C 0.82708 0.20819 0.48781 0.0
C1610 C 0.82781 0.20836 0.47357 0.0
C1611 C 0.8171 0.19863 0.46537 0.0
C1612 C 0.80532 0.18874 0.47181 0.0
C1613 C 0.80456 0.1886 0.48634 0.0
C1614 C 0.72423 0.11974 0.52076 0.0
C1615 C 0.73798 0.12465 0.52773 0.0
O1616 O 0.86328 0.23424 0.42038 0.0
O1617 O 0.8594 0.23582 0.54131 0.0
O1618 O 0.74394 0.13849 0.53039 0.0
O1619 O 0.75198 0.14553 0.41301 0.0
H1620 H 0.85904 0.24782 0.41087 0.0
H1621 H 0.84447 0.22458 0.40022 0.0
H1622 H 0.85928 0.22422 0.39476 0.0
H1623 H 0.855 0.23632 0.38765 0.0
H1624 H 0.84118 0.23654 0.42373 0.0
H1625 H 0.86115 0.21425 0.43452 0.0
H1626 H 0.80968 0.21403 0.4315 0.0
H1627 H 0.82074 0.23206 0.43339 0.0
H1628 H 0.81517 0.22148 0.44832 0.0
H1629 H 0.85021 0.19365 0.4464 0.0
H1630 H 0.83208 0.18507 0.44674 0.0
H1631 H 0.84183 0.19604 0.46076 0.0
H1632 H 0.76413 0.14388 0.39858 0.0
H1633 H 0.74914 0.1414 0.37895 0.0
H1634 H 0.75407 0.15672 0.3888 0.0
H1635 H 0.73738 0.14244 0.39044 0.0
H1636 H 0.77221 0.1414 0.42022 0.0
H1637 H 0.75414 0.16626 0.42635 0.0
H1638 H 0.79564 0.15491 0.44822 0.0
H1639 H 0.80369 0.16303 0.43271 0.0
H1640 H 0.79172 0.14511 0.43242 0.0
H1641 H 0.76468 0.18654 0.43951 0.0
H1642 H 0.7827 0.1944 0.44175 0.0
H1643 H 0.77193 0.18399 0.45497 0.0
H1644 H 0.74391 0.12236 0.52028 0.0
H1645 H 0.76578 0.13608 0.52631 0.0
H1646 H 0.74938 0.16284 0.52495 0.0
H1647 H 0.79181 0.15301 0.50422 0.0
H1648 H 0.78763 0.14255 0.51921 0.0
H1649 H 0.7994 0.16053 0.52051 0.0
H1650 H 0.76176 0.18532 0.51722 0.0
H1651 H 0.77181 0.18625 0.50273 0.0
H1652 H 0.7798 0.19296 0.5191 0.0
H1653 H 0.85549 0.25079 0.54759 0.0
H1654 H 0.87397 0.26881 0.53367 0.0
H1655 H 0.86249 0.25475 0.52292 0.0
H1656 H 0.87857 0.25653 0.52768 0.0
H1657 H 0.85413 0.21174 0.53471 0.0
H1658 H 0.83956 0.23999 0.53132 0.0
H1659 H 0.83425 0.18949 0.50839 0.0
H1660 H 0.82489 0.18279 0.52367 0.0
H1661 H 0.84293 0.19005 0.52422 0.0
H1662 H 0.8193 0.23462 0.52001 0.0
H1663 H 0.80698 0.21678 0.51909 0.0
H1664 H 0.81721 0.22477 0.50461 0.0
H1665 H 0.80731 0.18914 0.43195 0.0
H1666 H 0.77417 0.1615 0.46455 0.0
H1667 H 0.7729 0.16125 0.48905 0.0
H1668 H 0.8025 0.18815 0.52623 0.0
H1669 H 0.83568 0.21588 0.49358 0.0
H1670 H 0.8369 0.21619 0.46906 0.0
H1671 H 0.71916 0.10862 0.51873 0.0
H1672 H 0.72553 0.12489 0.5108 0.0
H1673 H 0.7177 0.12207 0.52724 0.0
C1674 C 0.97788 0.44761 0.274 0.0
C1675 C 0.98078 0.44076 0.26192 0.0
C1676 C 0.991 0.45957 0.24564 0.0
C1677 C 0.97898 0.45908 0.24133 0.0
C1678 C 0.97916 0.46888 0.23252 0.0
C1679 C 0.9916 0.4795 0.22804 0.0
C1680 C 0.00371 0.47999 0.23225 0.0
C1681 C 0.00323 0.46994 0.24093 0.0
C1682 C 0.96602 0.46793 0.22805 0.0
C1683 C 0.01713 0.49117 0.22762 0.0
C1684 C 0.98596 0.56718 0.26354 0.0
C1685 C 0.98145 0.55404 0.25616 0.0
C1686 C 0.98983 0.54392 0.23947 0.0
C1687 C 0.00106 0.54612 0.23205 0.0
C1688 C 0.00147 0.5354 0.2252 0.0
C1689 C 0.99013 0.5222 0.22539 0.0
C1690 C 0.97865 0.51993 0.23278 0.0
C1691 C 0.97868 0.53077 0.23987 0.0
C1692 C 0.01406 0.53821 0.21779 0.0
C1693 C 0.96633 0.50604 0.23323 0.0
C1694 C 0.9723 0.5306 0.13976 0.0
C1695 C 0.9859 0.53456 0.14199 0.0
C1696 C 0.98963 0.52561 0.14789 0.0
C1697 C 0.97953 0.51252 0.15171 0.0
C1698 C 0.96585 0.50827 0.14868 0.0
C1699 C 0.96244 0.51735 0.14256 0.0
C1700 C 0.00432 0.53031 0.15051 0.0
C1701 C 0.95482 0.49432 0.15239 0.0
C1702 C 0.97475 0.41911 0.14832 0.0
C1703 C 0.9782 0.42654 0.13456 0.0
C1704 C 0.98735 0.45045 0.14179 0.0
C1705 C 0.99909 0.463 0.14329 0.0
C1706 C 0.9989 0.47423 0.14925 0.0
C1707 C 0.98662 0.47282 0.15386 0.0
C1708 C 0.97463 0.46026 0.15209 0.0
C1709 C 0.97509 0.44922 0.14604 0.0
C1710 C 0.01185 0.48752 0.15089 0.0
C1711 C 0.96135 0.45842 0.15688 0.0
C1712 C 0.9918 0.49016 0.21915 0.0
C1713 C 0.99186 0.50128 0.22552 0.0
C1714 C 0.99026 0.5108 0.21789 0.0
C1715 C 0.98845 0.50913 0.20346 0.0
C1716 C 0.98586 0.51793 0.19554 0.0
C1717 C 0.98406 0.51619 0.18138 0.0
C1718 C 0.98491 0.50567 0.17453 0.0
C1719 C 0.98308 0.50383 0.16012 0.0
C1720 C 0.98398 0.49326 0.15364 0.0
C1721 C 0.9864 0.48423 0.16124 0.0
C1722 C 0.98802 0.48578 0.17569 0.0
C1723 C 0.99006 0.47665 0.18369 0.0
C1724 C 0.99129 0.47804 0.19792 0.0
C1725 C 0.99078 0.48877 0.20469 0.0
C1726 C 0.98898 0.49824 0.19683 0.0
C1727 C 0.98739 0.49662 0.18233 0.0
C1728 C 0.96253 0.55268 0.14932 0.0
C1729 C 0.97314 0.55244 0.14012 0.0
O1730 O 0.99131 0.45039 0.25435 0.0
O1731 O 0.98838 0.43986 0.13644 0.0
O1732 O 0.96841 0.53937 0.135 0.0
O1733 O 0.99018 0.5547 0.24608 0.0
H1734 H 0.97163 0.4353 0.25524 0.0
H1735 H 0.97486 0.45495 0.27023 0.0
H1736 H 0.98696 0.45315 0.28075 0.0
H1737 H 0.96952 0.43992 0.28013 0.0
H1738 H 0.96939 0.45113 0.24476 0.0
H1739 H 0.01246 0.47024 0.24425 0.0
H1740 H 0.96573 0.47708 0.23168 0.0
H1741 H 0.95716 0.45881 0.23207 0.0
H1742 H 0.96521 0.46762 0.21667 0.0
H1743 H 0.02566 0.49013 0.2318 0.0
H1744 H 0.01846 0.50116 0.23095 0.0
H1745 H 0.01742 0.4911 0.21624 0.0
H1746 H 0.9707 0.54873 0.25266 0.0
H1747 H 0.99001 0.56343 0.28362 0.0
H1748 H 0.97801 0.57 0.26106 0.0
H1749 H 0.99381 0.57531 0.25701 0.0
H1750 H 0.00963 0.55629 0.23184 0.0
H1751 H 0.96991 0.52889 0.24559 0.0
H1752 H 0.01214 0.53767 0.20655 0.0
H1753 H 0.01695 0.53044 0.22031 0.0
H1754 H 0.02264 0.54841 0.22045 0.0
H1755 H 0.9575 0.50643 0.23726 0.0
H1756 H 0.96848 0.49951 0.24003 0.0
H1757 H 0.9637 0.50121 0.22285 0.0
H1758 H 0.98232 0.55576 0.14669 0.0
H1759 H 0.99357 0.54466 0.13925 0.0
H1760 H 0.95199 0.51434 0.1405 0.0
H1761 H 0.00659 0.53203 0.1617 0.0
H1762 H 0.01095 0.53989 0.14518 0.0
H1763 H 0.00671 0.52238 0.1471 0.0
H1764 H 0.94466 0.49271 0.14967 0.0
H1765 H 0.95531 0.49277 0.16357 0.0
H1766 H 0.95627 0.48653 0.14692 0.0
H1767 H 0.96893 0.42629 0.13052 0.0
H1768 H 0.96793 0.40806 0.1466 0.0
H1769 H 0.96954 0.42293 0.15501 0.0
H1770 H 0.98399 0.4208 0.15391 0.0
H1771 H 0.00849 0.46393 0.13993 0.0
H1772 H 0.96583 0.43969 0.14486 0.0
H1773 H 0.01414 0.49017 0.16197 0.0
H1774 H 0.01073 0.49574 0.14603 0.0
H1775 H 0.02047 0.48715 0.14624 0.0
H1776 H 0.95285 0.4481 0.15447 0.0
H1777 H 0.95927 0.466 0.15196 0.0
H1778 H 0.96188 0.46021 0.16814 0.0
H1779 H 0.99281 0.50235 0.23662 0.0
H1780 H 0.98509 0.52621 0.20021 0.0
H1781 H 0.98201 0.52325 0.17589 0.0
H1782 H 0.98251 0.49187 0.1426 0.0
H1783 H 0.99061 0.46823 0.17906 0.0
H1784 H 0.99271 0.47064 0.20355 0.0
H1785 H 0.96606 0.56313 0.15333 0.0
H1786 H 0.96074 0.54593 0.15818 0.0
H1787 H 0.95286 0.54906 0.14359 0.0
C1788 C 0.4799 0.41464 0.27608 0.0
C1789 C 0.47202 0.42141 0.27078 0.0
C1790 C 0.48 0.43112 0.24872 0.0
C1791 C 0.47815 0.44226 0.24659 0.0
C1792 C 0.48728 0.45325 0.23882 0.0
C1793 C 0.49856 0.45308 0.23326 0.0
C1794 C 0.50034 0.4417 0.23532 0.0
C1795 C 0.4909 0.43075 0.24291 0.0
C1796 C 0.48495 0.4651 0.23666 0.0
C1797 C 0.51232 0.44123 0.2297 0.0
C1798 C 0.58932 0.54926 0.26721 0.0
C1799 C 0.58195 0.53639 0.25908 0.0
C1800 C 0.55886 0.51944 0.25283 0.0
C1801 C 0.56198 0.5109 0.24507 0.0
C1802 C 0.55209 0.50029 0.23694 0.0
C1803 C 0.53893 0.4985 0.23613 0.0
C1804 C 0.53578 0.50709 0.24396 0.0
C1805 C 0.54575 0.5173 0.2524 0.0
C1806 C 0.55575 0.49098 0.22926 0.0
C1807 C 0.5219 0.50555 0.2434 0.0
C1808 C 0.55982 0.52425 0.14768 0.0
C1809 C 0.5627 0.51453 0.15326 0.0
C1810 C 0.55284 0.50325 0.16016 0.0
C1811 C 0.53991 0.50177 0.16175 0.0
C1812 C 0.537 0.51156 0.15625 0.0
C1813 C 0.54699 0.52264 0.14923 0.0
C1814 C 0.55624 0.49291 0.16576 0.0
C1815 C 0.52335 0.51033 0.15781 0.0
C1816 C 0.45432 0.40211 0.15039 0.0
C1817 C 0.45821 0.4139 0.14055 0.0
C1818 C 0.48129 0.43208 0.14457 0.0
C1819 C 0.49357 0.43327 0.14868 0.0
C1820 C 0.50328 0.44484 0.15589 0.0
C1821 C 0.50061 0.45551 0.15889 0.0
C1822 C 0.48852 0.4547 0.15405 0.0
C1823 C 0.47901 0.44303 0.14683 0.0
C1824 C 0.51621 0.44552 0.16063 0.0
C1825 C 0.48554 0.46606 0.15676 0.0
C1826 C 0.50875 0.46501 0.22575 0.0
C1827 C 0.51864 0.4759 0.2335 0.0
C1828 C 0.52847 0.48756 0.22721 0.0
C1829 C 0.52844 0.48848 0.21274 0.0
C1830 C 0.53787 0.50024 0.20607 0.0
C1831 C 0.53813 0.50081 0.19181 0.0
C1832 C 0.52895 0.48966 0.18367 0.0
C1833 C 0.52944 0.48996 0.16916 0.0
C1834 C 0.52007 0.47872 0.16139 0.0
C1835 C 0.51013 0.46715 0.16771 0.0
C1836 C 0.50948 0.46667 0.18219 0.0
C1837 C 0.49953 0.45523 0.18887 0.0
C1838 C 0.49914 0.45473 0.20313 0.0
C1839 C 0.50878 0.46559 0.21126 0.0
C1840 C 0.51873 0.47734 0.20474 0.0
C1841 C 0.51903 0.47791 0.19019 0.0
C1842 C 0.59134 0.54622 0.15047 0.0
C1843 C 0.58218 0.53887 0.13802 0.0
O1844 O 0.47138 0.42076 0.25657 0.0
O1845 O 0.47193 0.42031 0.1384 0.0
O1846 O 0.569 0.5353 0.14079 0.0
O1847 O 0.56815 0.52976 0.26087 0.0
H1848 H 0.47744 0.43222 0.27439 0.0
H1849 H 0.49033 0.42011 0.27228 0.0
H1850 H 0.47507 0.4039 0.27245 0.0
H1851 H 0.48038 0.41497 0.28748 0.0
H1852 H 0.46959 0.44234 0.2511 0.0
H1853 H 0.49214 0.422 0.24463 0.0
H1854 H 0.49299 0.4742 0.24211 0.0
H1855 H 0.47506 0.46311 0.24051 0.0
H1856 H 0.48547 0.46746 0.22557 0.0
H1857 H 0.51263 0.43199 0.23286 0.0
H1858 H 0.52176 0.45032 0.2333 0.0
H1859 H 0.512 0.44143 0.21832 0.0
H1860 H 0.58637 0.52959 0.25976 0.0
H1861 H 0.59599 0.54753 0.27457 0.0
H1862 H 0.58222 0.54887 0.2753 0.0
H1863 H 0.59701 0.56429 0.25224 0.0
H1864 H 0.57204 0.51232 0.24548 0.0
H1865 H 0.54343 0.5239 0.25848 0.0
H1866 H 0.54774 0.48023 0.23017 0.0
H1867 H 0.56541 0.49201 0.23307 0.0
H1868 H 0.55677 0.4935 0.21821 0.0
H1869 H 0.52167 0.51431 0.24831 0.0
H1870 H 0.51485 0.49622 0.24885 0.0
H1871 H 0.51822 0.50447 0.2326 0.0
H1872 H 0.58285 0.52962 0.13559 0.0
H1873 H 0.57258 0.51561 0.15235 0.0
H1874 H 0.54484 0.53017 0.14494 0.0
H1875 H 0.55606 0.4931 0.17714 0.0
H1876 H 0.56633 0.49486 0.16261 0.0
H1877 H 0.5486 0.48256 0.16218 0.0
H1878 H 0.52296 0.51927 0.15377 0.0
H1879 H 0.52064 0.50917 0.1688 0.0
H1880 H 0.51566 0.5011 0.15222 0.0
H1881 H 0.45526 0.42076 0.14577 0.0
H1882 H 0.44321 0.39608 0.15125 0.0
H1883 H 0.45873 0.40618 0.16075 0.0
H1884 H 0.45822 0.39537 0.14694 0.0
H1885 H 0.49536 0.42489 0.14661 0.0
H1886 H 0.46985 0.44251 0.14296 0.0
H1887 H 0.51666 0.44556 0.17202 0.0
H1888 H 0.52494 0.4551 0.15721 0.0
H1889 H 0.51716 0.43682 0.15668 0.0
H1890 H 0.47574 0.46397 0.15216 0.0
H1891 H 0.49363 0.47564 0.15252 0.0
H1892 H 0.48539 0.46766 0.168 0.0
H1893 H 0.51872 0.47525 0.2446 0.0
H1894 H 0.54522 0.50911 0.21179 0.0
H1895 H 0.54569 0.51009 0.18725 0.0
H1896 H 0.52056 0.47895 0.15028 0.0
H1897 H 0.49193 0.4465 0.18316 0.0
H1898 H 0.49128 0.44566 0.2077 0.0
H1899 H 0.60193 0.54923 0.14819 0.0
H1900 H 0.58828 0.53946 0.15945 0.0
H1901 H 0.59076 0.55544 0.15324 0.0
C1902 C 0.43858 0.976 0.26769 0.0
C1903 C 0.44246 0.9907 0.26457 0.0
C1904 C 0.45468 0.99567 0.24353 0.0
C1905 C 0.46411 0.00916 0.24099 0.0
C1906 C 0.47566 0.01238 0.23349 0.0
C1907 C 0.47777 0.00181 0.22855 0.0
C1908 C 0.46819 0.98813 0.23117 0.0
C1909 C 0.45661 0.98522 0.23844 0.0
C1910 C 0.48556 0.02705 0.23074 0.0
C1911 C 0.47017 0.97659 0.22624 0.0
C1912 C 0.56227 0.03813 0.27622 0.0
C1913 C 0.55894 0.02487 0.26877 0.0
C1914 C 0.54881 0.02312 0.24636 0.0
C1915 C 0.53895 0.00946 0.2449 0.0
C1916 C 0.52759 0.00556 0.23635 0.0
C1917 C 0.52601 0.01561 0.22935 0.0
C1918 C 0.53604 0.02943 0.23083 0.0
C1919 C 0.54748 0.03297 0.23912 0.0
C1920 C 0.51724 0.99072 0.23488 0.0
C1921 C 0.53457 0.04049 0.22387 0.0
C1922 C 0.549 0.01838 0.14191 0.0
C1923 C 0.54068 0.00508 0.14633 0.0
C1924 C 0.5285 0.0015 0.15277 0.0
C1925 C 0.52462 0.01144 0.15483 0.0
C1926 C 0.53271 0.02469 0.14983 0.0
C1927 C 0.54475 0.02794 0.14328 0.0
C1928 C 0.51989 0.98717 0.15758 0.0
C1929 C 0.52879 0.03549 0.15171 0.0
C1930 C 0.41658 0.97465 0.14603 0.0
C1931 C 0.4288 0.98618 0.13922 0.0
C1932 C 0.45047 0.98694 0.14164 0.0
C1933 C 0.45524 0.97798 0.14441 0.0
C1934 C 0.46783 0.98253 0.15085 0.0
C1935 C 0.47594 0.99646 0.15431 0.0
C1936 C 0.47152 0.00572 0.15075 0.0
C1937 C 0.4588 0.00085 0.14444 0.0
C1938 C 0.4723 0.9724 0.15435 0.0
C1939 C 0.48011 0.02069 0.1539 0.0
C1940 C 0.48989 0.00502 0.22055 0.0
C1941 C 0.50192 0.00882 0.22775 0.0
C1942 C 0.51366 0.0117 0.2209 0.0
C1943 C 0.51346 0.01079 0.2064 0.0
C1944 C 0.52502 0.01348 0.19915 0.0
C1945 C 0.52476 0.01277 0.18487 0.0
C1946 C 0.51284 0.00906 0.17728 0.0
C1947 C 0.51244 0.00819 0.16277 0.0
C1948 C 0.50036 0.00421 0.15556 0.0
C1949 C 0.48859 0.00114 0.16247 0.0
C1950 C 0.48886 0.00219 0.17697 0.0
C1951 C 0.47725 0.99936 0.18423 0.0
C1952 C 0.4776 0.00044 0.19847 0.0
C1953 C 0.48951 0.00415 0.20605 0.0
C1954 C 0.50134 0.00704 0.19895 0.0
C1955 C 0.50102 0.00611 0.18439 0.0
C1956 C 0.58102 0.03126 0.15004 0.0
C1957 C 0.5707 0.01928 0.14123 0.0
O1958 O 0.44347 0.99274 0.25054 0.0
O1959 O 0.43787 0.98181 0.13618 0.0
O1960 O 0.56105 0.02222 0.13614 0.0
O1961 O 0.5597 0.02696 0.25474 0.0
H1962 H 0.45235 0.99759 0.2697 0.0
H1963 H 0.44682 0.97403 0.26487 0.0
H1964 H 0.42928 0.96882 0.26186 0.0
H1965 H 0.43686 0.97405 0.27884 0.0
H1966 H 0.46236 0.01713 0.24486 0.0
H1967 H 0.44906 0.97479 0.24019 0.0
H1968 H 0.49534 0.02989 0.2359 0.0
H1969 H 0.48201 0.034 0.23448 0.0
H1970 H 0.48734 0.02849 0.21956 0.0
H1971 H 0.46258 0.96669 0.23041 0.0
H1972 H 0.48036 0.97851 0.22928 0.0
H1973 H 0.46939 0.97589 0.21487 0.0
H1974 H 0.54853 0.0171 0.27153 0.0
H1975 H 0.56149 0.03666 0.2875 0.0
H1976 H 0.55506 0.04148 0.2729 0.0
H1977 H 0.57261 0.04622 0.27385 0.0
H1978 H 0.54021 0.00188 0.2504 0.0
H1979 H 0.55524 0.0435 0.24034 0.0
H1980 H 0.50788 0.98882 0.23999 0.0
H1981 H 0.52076 0.98408 0.23955 0.0
H1982 H 0.51471 0.98784 0.22387 0.0
H1983 H 0.54241 0.05078 0.22741 0.0
H1984 H 0.52451 0.0393 0.22587 0.0
H1985 H 0.53537 0.03969 0.21261 0.0
H1986 H 0.56611 0.01032 0.14799 0.0
H1987 H 0.54364 0.99747 0.14468 0.0
H1988 H 0.55114 0.0381 0.13959 0.0
H1989 H 0.51959 0.98717 0.16896 0.0
H1990 H 0.52374 0.98036 0.15421 0.0
H1991 H 0.50942 0.98302 0.15362 0.0
H1992 H 0.53622 0.04533 0.14731 0.0
H1993 H 0.52784 0.03705 0.16281 0.0
H1994 H 0.51882 0.03212 0.1467 0.0
H1995 H 0.43323 0.99479 0.14678 0.0
H1996 H 0.40915 0.9779 0.14857 0.0
H1997 H 0.4198 0.97185 0.1557 0.0
H1998 H 0.41168 0.96554 0.13915 0.0
H1999 H 0.44883 0.9673 0.14194 0.0
H2000 H 0.4554 0.00792 0.14171 0.0
H2001 H 0.47396 0.9725 0.16561 0.0
H2002 H 0.48201 0.97531 0.14941 0.0
H2003 H 0.46482 0.96192 0.15095 0.0
H2004 H 0.47584 0.02671 0.14931 0.0
H2005 H 0.4904 0.02444 0.15 0.0
H2006 H 0.481 0.02241 0.16519 0.0
H2007 H 0.50212 0.00948 0.23888 0.0
H2008 H 0.53444 0.01624 0.20443 0.0
H2009 H 0.53402 0.01509 0.17987 0.0
H2010 H 0.50009 0.00343 0.14445 0.0
H2011 H 0.46775 0.99634 0.179 0.0
H2012 H 0.46837 0.99824 0.20347 0.0
H2013 H 0.58893 0.02915 0.15406 0.0
H2014 H 0.57597 0.0329 0.15891 0.0
H2015 H 0.58582 0.04071 0.144 0.0
C2016 C 0.55131 0.97058 0.76892 0.0
C2017 C 0.55145 0.98085 0.75863 0.0
C2018 C 0.54156 0.99256 0.77137 0.0
C2019 C 0.54422 0.005 0.7771 0.0
C2020 C 0.53418 0.00648 0.78368 0.0
C2021 C 0.5212 0.99506 0.78492 0.0
C2022 C 0.51836 0.98245 0.77901 0.0
C2023 C 0.52849 0.98137 0.77212 0.0
C2024 C 0.53751 0.02022 0.7894 0.0
C2025 C 0.50464 0.97004 0.78012 0.0
C2026 C 0.42476 0.98735 0.75102 0.0
C2027 C 0.43433 0.98384 0.75783 0.0
C2028 C 0.45741 0.99514 0.7671 0.0
C2029 C 0.45626 0.98363 0.77366 0.0
C2030 C 0.46696 0.98441 0.78159 0.0
C2031 C 0.47899 0.997 0.78317 0.0
C2032 C 0.48019 0.0086 0.77658 0.0
C2033 C 0.46938 0.00749 0.76857 0.0
C2034 C 0.46541 0.97178 0.78832 0.0
C2035 C 0.49285 0.02216 0.7781 0.0
C2036 C 0.46097 0.00512 0.87245 0.0
C2037 C 0.45802 0.99253 0.86674 0.0
C2038 C 0.46775 0.99112 0.85941 0.0
C2039 C 0.48058 0.00261 0.85755 0.0
C2040 C 0.48358 0.01528 0.86343 0.0
C2041 C 0.47378 0.0163 0.871 0.0
C2042 C 0.46436 0.97731 0.8538 0.0
C2043 C 0.49713 0.02775 0.8617 0.0
C2044 C 0.5691 0.9984 0.86812 0.0
C2045 C 0.56455 0.002 0.88147 0.0
C2046 C 0.54139 0.99616 0.87479 0.0
C2047 C 0.52828 0.98525 0.87397 0.0
C2048 C 0.51825 0.98596 0.86617 0.0
C2049 C 0.52137 0.9981 0.85934 0.0
C2050 C 0.53451 0.00941 0.86058 0.0
C2051 C 0.54445 0.00826 0.8681 0.0
C2052 C 0.50439 0.97367 0.86507 0.0
C2053 C 0.53809 0.02271 0.85391 0.0
C2054 C 0.51069 0.99625 0.7926 0.0
C2055 C 0.50045 0.99679 0.7851 0.0
C2056 C 0.49028 0.99792 0.7917 0.0
C2057 C 0.49055 0.99909 0.80618 0.0
C2058 C 0.48086 0.00095 0.8131 0.0
C2059 C 0.48107 0.00185 0.82736 0.0
C2060 C 0.49086 0.00074 0.83526 0.0
C2061 C 0.49097 0.0013 0.84978 0.0
C2062 C 0.50105 0.00047 0.85728 0.0
C2063 C 0.51097 0.99887 0.85071 0.0
C2064 C 0.51083 0.99797 0.83621 0.0
C2065 C 0.52038 0.99589 0.82928 0.0
C2066 C 0.52034 0.9953 0.81502 0.0
C2067 C 0.5107 0.99666 0.80712 0.0
C2068 C 0.50072 0.99832 0.81391 0.0
C2069 C 0.50082 0.99904 0.82847 0.0
C2070 C 0.43822 0.01208 0.86549 0.0
C2071 C 0.43861 0.0022 0.87589 0.0
O2072 O 0.5519 0.99185 0.76544 0.0
O2073 O 0.55065 0.99452 0.88217 0.0
O2074 O 0.45187 0.00671 0.87984 0.0
O2075 O 0.44725 0.99479 0.75935 0.0
H2076 H 0.54221 0.97572 0.75201 0.0
H2077 H 0.54203 0.96614 0.775 0.0
H2078 H 0.56004 0.9755 0.77619 0.0
H2079 H 0.55165 0.96215 0.76338 0.0
H2080 H 0.55427 0.01362 0.77638 0.0
H2081 H 0.52611 0.97171 0.76754 0.0
H2082 H 0.52946 0.02259 0.78659 0.0
H2083 H 0.54724 0.02842 0.78564 0.0
H2084 H 0.53817 0.02016 0.80077 0.0
H2085 H 0.5045 0.96066 0.77643 0.0
H2086 H 0.49722 0.97143 0.7739 0.0
H2087 H 0.50136 0.96864 0.79093 0.0
H2088 H 0.43408 0.97451 0.75371 0.0
H2089 H 0.42165 0.98127 0.74113 0.0
H2090 H 0.431 0.99738 0.74588 0.0
H2091 H 0.41104 0.98459 0.76643 0.0
H2092 H 0.44707 0.97399 0.7726 0.0
H2093 H 0.47017 0.01631 0.76348 0.0
H2094 H 0.46564 0.97305 0.79964 0.0
H2095 H 0.47392 0.97018 0.78562 0.0
H2096 H 0.45584 0.96258 0.78523 0.0
H2097 H 0.49194 0.03037 0.7729 0.0
H2098 H 0.50139 0.0215 0.77367 0.0
H2099 H 0.49527 0.02491 0.78915 0.0
H2100 H 0.43409 0.99196 0.87096 0.0
H2101 H 0.44828 0.98373 0.8683 0.0
H2102 H 0.47599 0.02593 0.87564 0.0
H2103 H 0.46383 0.97732 0.84243 0.0
H2104 H 0.45458 0.96916 0.85752 0.0
H2105 H 0.47236 0.97492 0.85678 0.0
H2106 H 0.49735 0.03711 0.86555 0.0
H2107 H 0.49985 0.02902 0.8507 0.0
H2108 H 0.50492 0.02652 0.86742 0.0
H2109 H 0.56794 0.01303 0.88181 0.0
H2110 H 0.5802 0.00446 0.86725 0.0
H2111 H 0.56452 0.00067 0.85912 0.0
H2112 H 0.56598 0.98744 0.86778 0.0
H2113 H 0.526 0.976 0.87925 0.0
H2114 H 0.55449 0.01688 0.86875 0.0
H2115 H 0.5011 0.97128 0.85413 0.0
H2116 H 0.49712 0.97586 0.87033 0.0
H2117 H 0.504 0.96459 0.86979 0.0
H2118 H 0.5479 0.03111 0.85778 0.0
H2119 H 0.53019 0.02549 0.85575 0.0
H2120 H 0.53872 0.02168 0.84265 0.0
H2121 H 0.50028 0.9961 0.77398 0.0
H2122 H 0.47304 0.00178 0.80756 0.0
H2123 H 0.47341 0.00335 0.83213 0.0
H2124 H 0.50115 0.00102 0.8684 0.0
H2125 H 0.52802 0.99473 0.83479 0.0
H2126 H 0.52796 0.99371 0.81027 0.0
H2127 H 0.42778 0.00855 0.86174 0.0
H2128 H 0.44434 0.01278 0.85647 0.0
H2129 H 0.44236 0.02237 0.87023 0.0
C2130 C 0.99585 0.54962 0.74312 0.0
C2131 C 0.00051 0.55826 0.75638 0.0
C2132 C 0.01072 0.54745 0.77015 0.0
C2133 C 0.99856 0.53574 0.77327 0.0
C2134 C 0.9985 0.52543 0.78117 0.0
C2135 C 0.0108 0.52678 0.78606 0.0
C2136 C 0.02304 0.5385 0.78298 0.0
C2137 C 0.02282 0.5487 0.77508 0.0
C2138 C 0.98525 0.51304 0.7843 0.0
C2139 C 0.03633 0.54024 0.78807 0.0
C2140 C 0.01602 0.434 0.75822 0.0
C2141 C 0.01991 0.44645 0.76663 0.0
C2142 C 0.01231 0.4628 0.77093 0.0
C2143 C 0.02317 0.47175 0.77945 0.0
C2144 C 0.02272 0.48216 0.7869 0.0
C2145 C 0.01094 0.4833 0.78623 0.0
C2146 C 0.99997 0.47426 0.77768 0.0
C2147 C 0.00092 0.46429 0.76994 0.0
C2148 C 0.03488 0.49194 0.79542 0.0
C2149 C 0.9872 0.47506 0.77671 0.0
C2150 C 0.00057 0.45787 0.87499 0.0
C2151 C 0.01326 0.46793 0.87077 0.0
C2152 C 0.0147 0.47918 0.86348 0.0
C2153 C 0.00317 0.48027 0.86021 0.0
C2154 C 0.99041 0.47027 0.86473 0.0
C2155 C 0.98932 0.45929 0.87225 0.0
C2156 C 0.02853 0.48992 0.8593 0.0
C2157 C 0.97791 0.47113 0.86155 0.0
C2158 C 0.98833 0.5627 0.87305 0.0
C2159 C 0.99349 0.55789 0.88521 0.0
C2160 C 0.00423 0.54596 0.8746 0.0
C2161 C 0.01652 0.54652 0.87233 0.0
C2162 C 0.01714 0.53605 0.86518 0.0
C2163 C 0.00513 0.52478 0.86012 0.0
C2164 C 0.99263 0.52406 0.86245 0.0
C2165 C 0.99229 0.53464 0.86968 0.0
C2166 C 0.03063 0.53709 0.8629 0.0
C2167 C 0.97964 0.51218 0.85715 0.0
C2168 C 0.01076 0.51582 0.79432 0.0
C2169 C 0.01133 0.50529 0.78736 0.0
C2170 C 0.01018 0.49406 0.79434 0.0
C2171 C 0.00839 0.49324 0.80871 0.0
C2172 C 0.00655 0.48182 0.816 0.0
C2173 C 0.00517 0.48129 0.83018 0.0
C2174 C 0.00555 0.49216 0.83762 0.0
C2175 C 0.00445 0.49186 0.85208 0.0
C2176 C 0.00453 0.5027 0.8591 0.0
C2177 C 0.00563 0.51388 0.85207 0.0
C2178 C 0.00689 0.51445 0.83765 0.0
C2179 C 0.00802 0.52557 0.83028 0.0
C2180 C 0.00926 0.52603 0.81609 0.0
C2181 C 0.00949 0.51543 0.80873 0.0
C2182 C 0.00831 0.5041 0.81595 0.0
C2183 C 0.00694 0.50358 0.83042 0.0
C2184 C 0.99556 0.42835 0.8677 0.0
C2185 C 0.00439 0.43878 0.87875 0.0
O2186 O 0.01126 0.55767 0.76242 0.0
O2187 O 0.00443 0.55659 0.88143 0.0
O2188 O 0.99889 0.44691 0.88208 0.0
O2189 O 0.01248 0.45274 0.76343 0.0
H2190 H 0.992 0.55433 0.76358 0.0
H2191 H 0.99226 0.5388 0.74535 0.0
H2192 H 0.00422 0.55308 0.73581 0.0
H2193 H 0.98741 0.55032 0.73817 0.0
H2194 H 0.98905 0.53446 0.76958 0.0
H2195 H 0.03215 0.55772 0.77265 0.0
H2196 H 0.98514 0.5038 0.78026 0.0
H2197 H 0.97652 0.51351 0.77976 0.0
H2198 H 0.98404 0.51199 0.79558 0.0
H2199 H 0.04498 0.54999 0.78484 0.0
H2200 H 0.03761 0.53175 0.7841 0.0
H2201 H 0.03642 0.53984 0.79945 0.0
H2202 H 0.03095 0.45356 0.76747 0.0
H2203 H 0.02523 0.43634 0.75221 0.0
H2204 H 0.01015 0.43444 0.74903 0.0
H2205 H 0.0078 0.41832 0.7725 0.0
H2206 H 0.03214 0.47085 0.78015 0.0
H2207 H 0.99262 0.45737 0.76329 0.0
H2208 H 0.0329 0.48952 0.80644 0.0
H2209 H 0.03701 0.50253 0.79404 0.0
H2210 H 0.04398 0.49135 0.79274 0.0
H2211 H 0.97889 0.46598 0.77148 0.0
H2212 H 0.98911 0.48414 0.7708 0.0
H2213 H 0.98393 0.47613 0.78709 0.0
H2214 H 0.01464 0.44498 0.87462 0.0
H2215 H 0.0221 0.4672 0.87342 0.0
H2216 H 0.97961 0.45157 0.87578 0.0
H2217 H 0.02924 0.48972 0.84796 0.0
H2218 H 0.03659 0.48838 0.86394 0.0
H2219 H 0.03031 0.50014 0.86238 0.0
H2220 H 0.9686 0.46185 0.86456 0.0
H2221 H 0.97721 0.47274 0.8504 0.0
H2222 H 0.97847 0.47997 0.86715 0.0
H2223 H 0.98523 0.54794 0.88859 0.0
H2224 H 0.97983 0.56414 0.87625 0.0
H2225 H 0.98468 0.55507 0.86455 0.0
H2226 H 0.99645 0.57242 0.86908 0.0
H2227 H 0.02567 0.55526 0.87615 0.0
H2228 H 0.98266 0.53396 0.87128 0.0
H2229 H 0.03242 0.53727 0.85172 0.0
H2230 H 0.03067 0.52803 0.86707 0.0
H2231 H 0.03902 0.54634 0.86782 0.0
H2232 H 0.97072 0.51309 0.85985 0.0
H2233 H 0.97848 0.50263 0.86145 0.0
H2234 H 0.97991 0.51137 0.84581 0.0
H2235 H 0.01249 0.50577 0.77631 0.0
H2236 H 0.00619 0.47315 0.81083 0.0
H2237 H 0.00384 0.47226 0.83524 0.0
H2238 H 0.00363 0.50238 0.87017 0.0
H2239 H 0.00797 0.53405 0.83539 0.0
H2240 H 0.01012 0.53485 0.81097 0.0
H2241 H 0.99982 0.42175 0.86488 0.0
H2242 H 0.99508 0.43363 0.85834 0.0
H2243 H 0.98518 0.42192 0.87143 0.0
C2244 C 0.52108 0.55836 0.73842 0.0
C2245 C 0.52949 0.56937 0.74924 0.0
C2246 C 0.51878 0.5565 0.76994 0.0
C2247 C 0.50762 0.55855 0.76991 0.0
C2248 C 0.49666 0.55096 0.77838 0.0
C2249 C 0.4967 0.54091 0.78687 0.0
C2250 C 0.50798 0.5389 0.78701 0.0
C2251 C 0.51897 0.54692 0.77873 0.0
C2252 C 0.48495 0.5536 0.77814 0.0
C2253 C 0.50833 0.52813 0.79572 0.0
C2254 C 0.39728 0.4715 0.76635 0.0
C2255 C 0.40775 0.46885 0.75937 0.0
C2256 C 0.42794 0.47983 0.77452 0.0
C2257 C 0.43664 0.47738 0.78268 0.0
C2258 C 0.44809 0.48807 0.7891 0.0
C2259 C 0.45063 0.50155 0.78771 0.0
C2260 C 0.44199 0.50414 0.77929 0.0
C2261 C 0.43086 0.49329 0.7726 0.0
C2262 C 0.45733 0.48487 0.79752 0.0
C2263 C 0.4444 0.51837 0.77746 0.0
C2264 C 0.42502 0.49141 0.87372 0.0
C2265 C 0.43551 0.48862 0.87146 0.0
C2266 C 0.44734 0.49812 0.86512 0.0
C2267 C 0.44871 0.51069 0.86104 0.0
C2268 C 0.43848 0.51383 0.86404 0.0
C2269 C 0.42679 0.50416 0.87047 0.0
C2270 C 0.45823 0.49461 0.86246 0.0
C2271 C 0.43973 0.52722 0.86003 0.0
C2272 C 0.53768 0.60141 0.87507 0.0
C2273 C 0.53265 0.59144 0.88698 0.0
C2274 C 0.51789 0.56932 0.87552 0.0
C2275 C 0.51677 0.55685 0.87192 0.0
C2276 C 0.50546 0.5469 0.86463 0.0
C2277 C 0.49507 0.54959 0.86071 0.0
C2278 C 0.49604 0.56214 0.8644 0.0
C2279 C 0.50742 0.57187 0.87182 0.0
C2280 C 0.50467 0.53355 0.86105 0.0
C2281 C 0.4851 0.56529 0.86039 0.0
C2282 C 0.48474 0.53218 0.79517 0.0
C2283 C 0.47366 0.52143 0.78843 0.0
C2284 C 0.462 0.51284 0.79548 0.0
C2285 C 0.46134 0.51495 0.80972 0.0
C2286 C 0.44969 0.50669 0.81709 0.0
C2287 C 0.44933 0.50843 0.83119 0.0
C2288 C 0.46056 0.5186 0.83846 0.0
C2289 C 0.46043 0.52013 0.85287 0.0
C2290 C 0.47173 0.5304 0.85977 0.0
C2291 C 0.48323 0.53928 0.85264 0.0
C2292 C 0.48353 0.53792 0.83822 0.0
C2293 C 0.49486 0.54676 0.8307 0.0
C2294 C 0.49521 0.54505 0.81657 0.0
C2295 C 0.4843 0.53435 0.80943 0.0
C2296 C 0.47261 0.52559 0.81675 0.0
C2297 C 0.47221 0.52741 0.83114 0.0
C2298 C 0.39408 0.46554 0.86609 0.0
C2299 C 0.4062 0.46839 0.87532 0.0
O2300 O 0.52946 0.5634 0.76164 0.0
O2301 O 0.52927 0.57851 0.8824 0.0
O2302 O 0.41313 0.48205 0.879 0.0
O2303 O 0.41683 0.46891 0.76898 0.0
H2304 H 0.52522 0.57622 0.7506 0.0
H2305 H 0.51051 0.55231 0.74169 0.0
H2306 H 0.52524 0.55142 0.73693 0.0
H2307 H 0.52102 0.56301 0.72845 0.0
H2308 H 0.50736 0.56606 0.76335 0.0
H2309 H 0.52763 0.54545 0.77875 0.0
H2310 H 0.47623 0.545 0.77281 0.0
H2311 H 0.48732 0.56307 0.7727 0.0
H2312 H 0.48193 0.55431 0.78875 0.0
H2313 H 0.51713 0.52684 0.79351 0.0
H2314 H 0.499 0.51825 0.79397 0.0
H2315 H 0.50883 0.53093 0.80673 0.0
H2316 H 0.41311 0.477 0.7518 0.0
H2317 H 0.38905 0.46969 0.75894 0.0
H2318 H 0.40192 0.48217 0.77006 0.0
H2319 H 0.39295 0.46491 0.77535 0.0
H2320 H 0.43441 0.467 0.78401 0.0
H2321 H 0.42444 0.49545 0.76613 0.0
H2322 H 0.4557 0.48574 0.80859 0.0
H2323 H 0.46801 0.4922 0.79543 0.0
H2324 H 0.45546 0.47443 0.7954 0.0
H2325 H 0.43583 0.51852 0.7721 0.0
H2326 H 0.45354 0.5242 0.77134 0.0
H2327 H 0.44614 0.52363 0.78758 0.0
H2328 H 0.41245 0.46555 0.86895 0.0
H2329 H 0.43446 0.47901 0.8746 0.0
H2330 H 0.41874 0.50631 0.87252 0.0
H2331 H 0.45914 0.49368 0.85123 0.0
H2332 H 0.45614 0.48493 0.86728 0.0
H2333 H 0.46806 0.50286 0.86647 0.0
H2334 H 0.431 0.52822 0.86331 0.0
H2335 H 0.44055 0.52825 0.84871 0.0
H2336 H 0.44905 0.53568 0.8647 0.0
H2337 H 0.52371 0.59131 0.89149 0.0
H2338 H 0.5406 0.6118 0.87883 0.0
H2339 H 0.52968 0.59845 0.86706 0.0
H2340 H 0.54651 0.60157 0.87028 0.0
H2341 H 0.52485 0.55494 0.87485 0.0
H2342 H 0.50804 0.58143 0.87457 0.0
H2343 H 0.50487 0.53249 0.84974 0.0
H2344 H 0.49505 0.52501 0.8646 0.0
H2345 H 0.51313 0.53266 0.86571 0.0
H2346 H 0.4876 0.57573 0.86353 0.0
H2347 H 0.47556 0.55795 0.86524 0.0
H2348 H 0.48336 0.56413 0.84909 0.0
H2349 H 0.47411 0.51972 0.77752 0.0
H2350 H 0.44073 0.49868 0.81209 0.0
H2351 H 0.44013 0.50165 0.83631 0.0
H2352 H 0.47164 0.5314 0.87084 0.0
H2353 H 0.50362 0.55508 0.83567 0.0
H2354 H 0.50422 0.55214 0.81134 0.0
H2355 H 0.38792 0.46952 0.87079 0.0
H2356 H 0.38771 0.45447 0.86403 0.0
H2357 H 0.39767 0.47065 0.85612 0.0
C2358 C 0.62835 0.77148 0.61101 0.0
C2359 C 0.62324 0.75995 0.60025 0.0
C2360 C 0.62567 0.77339 0.57979 0.0
C2361 C 0.61292 0.77236 0.57944 0.0
C2362 C 0.61045 0.78119 0.57147 0.0
C2363 C 0.62101 0.79144 0.56392 0.0
C2364 C 0.63386 0.79246 0.56424 0.0
C2365 C 0.63591 0.7832 0.57193 0.0
C2366 C 0.59655 0.77962 0.5712 0.0
C2367 C 0.64551 0.80348 0.55669 0.0
C2368 C 0.61618 0.85724 0.61826 0.0
C2369 C 0.62405 0.86494 0.60571 0.0
C2370 C 0.61611 0.85144 0.58462 0.0
C2371 C 0.62828 0.85344 0.5793 0.0
C2372 C 0.62849 0.84398 0.57008 0.0
C2373 C 0.61627 0.83232 0.56607 0.0
C2374 C 0.60395 0.83058 0.57099 0.0
C2375 C 0.60403 0.84029 0.58009 0.0
C2376 C 0.64176 0.84631 0.56475 0.0
C2377 C 0.59074 0.81831 0.56687 0.0
C2378 C 0.60456 0.851 0.4809 0.0
C2379 C 0.61761 0.85303 0.48293 0.0
C2380 C 0.61964 0.84276 0.48844 0.0
C2381 C 0.6084 0.83024 0.49191 0.0
C2382 C 0.59525 0.82791 0.4891 0.0
C2383 C 0.59351 0.83832 0.4835 0.0
C2384 C 0.63379 0.84542 0.49093 0.0
C2385 C 0.58305 0.81459 0.49245 0.0
C2386 C 0.60892 0.73965 0.47925 0.0
C2387 C 0.61046 0.74705 0.46571 0.0
C2388 C 0.61705 0.77006 0.47444 0.0
C2389 C 0.62811 0.78291 0.47701 0.0
C2390 C 0.62687 0.7928 0.48457 0.0
C2391 C 0.61416 0.78977 0.48957 0.0
C2392 C 0.6028 0.77693 0.48665 0.0
C2393 C 0.60435 0.76717 0.47914 0.0
C2394 C 0.63918 0.80641 0.48743 0.0
C2395 C 0.58908 0.77347 0.49167 0.0
C2396 C 0.61875 0.80142 0.55622 0.0
C2397 C 0.61845 0.81182 0.56374 0.0
C2398 C 0.61645 0.82165 0.55728 0.0
C2399 C 0.61479 0.82124 0.54285 0.0
C2400 C 0.61286 0.83103 0.53601 0.0
C2401 C 0.6113 0.83058 0.5218 0.0
C2402 C 0.61173 0.82038 0.51385 0.0
C2403 C 0.61036 0.81996 0.49937 0.0
C2404 C 0.611 0.80979 0.49177 0.0
C2405 C 0.6129 0.79989 0.49826 0.0
C2406 C 0.61409 0.80002 0.51275 0.0
C2407 C 0.61582 0.79011 0.51963 0.0
C2408 C 0.61711 0.7904 0.53387 0.0
C2409 C 0.61701 0.80078 0.54177 0.0
C2410 C 0.61512 0.81078 0.53507 0.0
C2411 C 0.61361 0.81037 0.52055 0.0
C2412 C 0.6014 0.87967 0.48685 0.0
C2413 C 0.61011 0.87473 0.47981 0.0
O2414 O 0.62852 0.76519 0.58756 0.0
O2415 O 0.61919 0.76085 0.46752 0.0
O2416 O 0.60226 0.86104 0.47653 0.0
O2417 O 0.61575 0.86008 0.59411 0.0
H2418 H 0.61208 0.75469 0.59965 0.0
H2419 H 0.6251 0.77889 0.60814 0.0
H2420 H 0.63951 0.77686 0.61177 0.0
H2421 H 0.62421 0.76747 0.62124 0.0
H2422 H 0.60481 0.76461 0.58521 0.0
H2423 H 0.64569 0.78387 0.57222 0.0
H2424 H 0.59678 0.78823 0.57694 0.0
H2425 H 0.58902 0.77002 0.57594 0.0
H2426 H 0.59326 0.77985 0.56048 0.0
H2427 H 0.65521 0.80405 0.55954 0.0
H2428 H 0.64633 0.8135 0.55887 0.0
H2429 H 0.64379 0.80149 0.54547 0.0
H2430 H 0.63264 0.86298 0.60498 0.0
H2431 H 0.62258 0.86123 0.62772 0.0
H2432 H 0.61303 0.84631 0.61705 0.0
H2433 H 0.60701 0.85815 0.61947 0.0
H2434 H 0.6376 0.86239 0.58236 0.0
H2435 H 0.59468 0.83897 0.5841 0.0
H2436 H 0.64135 0.84572 0.55336 0.0
H2437 H 0.64374 0.83822 0.56849 0.0
H2438 H 0.65027 0.85632 0.56811 0.0
H2439 H 0.58203 0.81842 0.57164 0.0
H2440 H 0.59081 0.80894 0.56994 0.0
H2441 H 0.58937 0.81788 0.55554 0.0
H2442 H 0.61818 0.87648 0.48744 0.0
H2443 H 0.62621 0.86263 0.4803 0.0
H2444 H 0.58349 0.83678 0.48163 0.0
H2445 H 0.63573 0.84543 0.50213 0.0
H2446 H 0.64144 0.85529 0.48676 0.0
H2447 H 0.635 0.83718 0.48614 0.0
H2448 H 0.57352 0.81421 0.48921 0.0
H2449 H 0.58287 0.81296 0.50369 0.0
H2450 H 0.58362 0.80611 0.48731 0.0
H2451 H 0.60047 0.74531 0.46204 0.0
H2452 H 0.60212 0.72856 0.47772 0.0
H2453 H 0.60451 0.74327 0.48717 0.0
H2454 H 0.61885 0.74144 0.48315 0.0
H2455 H 0.63783 0.78509 0.47326 0.0
H2456 H 0.59563 0.75735 0.4771 0.0
H2457 H 0.64083 0.80826 0.49868 0.0
H2458 H 0.63762 0.81457 0.48312 0.0
H2459 H 0.64838 0.80712 0.48295 0.0
H2460 H 0.5811 0.76337 0.48784 0.0
H2461 H 0.58654 0.78129 0.48834 0.0
H2462 H 0.58918 0.77349 0.50307 0.0
H2463 H 0.61982 0.81228 0.57482 0.0
H2464 H 0.61254 0.83916 0.54158 0.0
H2465 H 0.60984 0.83839 0.51712 0.0
H2466 H 0.61011 0.80964 0.48067 0.0
H2467 H 0.61615 0.78197 0.51408 0.0
H2468 H 0.61832 0.78245 0.53859 0.0
H2469 H 0.60743 0.8907 0.48931 0.0
H2470 H 0.59757 0.87417 0.49659 0.0
H2471 H 0.59264 0.87778 0.48022 0.0
C2472 C 0.13857 0.7696 0.62409 0.0
C2473 C 0.1298 0.76868 0.61166 0.0
C2474 C 0.14394 0.77393 0.59171 0.0
C2475 C 0.14358 0.78526 0.58655 0.0
C2476 C 0.15387 0.79456 0.57824 0.0
C2477 C 0.16474 0.79246 0.57502 0.0
C2478 C 0.16492 0.78082 0.5799 0.0
C2479 C 0.1544 0.77161 0.58806 0.0
C2480 C 0.15316 0.80664 0.57289 0.0
C2481 C 0.17628 0.77821 0.57657 0.0
C2482 C 0.26052 0.8878 0.6012 0.0
C2483 C 0.25228 0.87498 0.59319 0.0
C2484 C 0.22875 0.859 0.58724 0.0
C2485 C 0.2309 0.84845 0.58267 0.0
C2486 C 0.22048 0.83675 0.57626 0.0
C2487 C 0.20776 0.83576 0.57401 0.0
C2488 C 0.20553 0.84629 0.57879 0.0
C2489 C 0.21602 0.85769 0.58551 0.0
C2490 C 0.22312 0.82553 0.57174 0.0
C2491 C 0.19212 0.84562 0.57664 0.0
C2492 C 0.22734 0.85256 0.48511 0.0
C2493 C 0.22883 0.84136 0.48866 0.0
C2494 C 0.21885 0.83055 0.49599 0.0
C2495 C 0.20713 0.83091 0.49976 0.0
C2496 C 0.20546 0.84198 0.49589 0.0
C2497 C 0.21562 0.85268 0.48865 0.0
C2498 C 0.2209 0.81885 0.49994 0.0
C2499 C 0.19302 0.84261 0.4996 0.0
C2500 C 0.11453 0.73498 0.49378 0.0
C2501 C 0.12058 0.74695 0.48396 0.0
C2502 C 0.14445 0.76301 0.48804 0.0
C2503 C 0.156 0.76288 0.49267 0.0
C2504 C 0.16664 0.77435 0.49913 0.0
C2505 C 0.16569 0.78624 0.50089 0.0
C2506 C 0.15433 0.78667 0.49556 0.0
C2507 C 0.14388 0.77508 0.48906 0.0
C2508 C 0.17878 0.77369 0.50436 0.0
C2509 C 0.15317 0.79932 0.49694 0.0
C2510 C 0.17594 0.80252 0.56666 0.0
C2511 C 0.18648 0.81374 0.57346 0.0
C2512 C 0.19698 0.824 0.56618 0.0
C2513 C 0.197 0.82308 0.55169 0.0
C2514 C 0.20715 0.83341 0.544 0.0
C2515 C 0.20715 0.83238 0.52977 0.0
C2516 C 0.19696 0.82103 0.52264 0.0
C2517 C 0.19683 0.81995 0.50816 0.0
C2518 C 0.18662 0.80848 0.5014 0.0
C2519 C 0.17632 0.79807 0.50871 0.0
C2520 C 0.17614 0.79907 0.52318 0.0
C2521 C 0.16575 0.78894 0.53083 0.0
C2522 C 0.16563 0.79006 0.54505 0.0
C2523 C 0.17596 0.80129 0.5522 0.0
C2524 C 0.18653 0.81162 0.5447 0.0
C2525 C 0.18656 0.81055 0.53017 0.0
C2526 C 0.25935 0.87039 0.48641 0.0
C2527 C 0.24936 0.86585 0.47421 0.0
O2528 O 0.13426 0.76503 0.60007 0.0
O2529 O 0.13416 0.75138 0.48257 0.0
O2530 O 0.2369 0.86352 0.47846 0.0
O2531 O 0.23861 0.87055 0.59334 0.0
H2532 H 0.13073 0.77885 0.61044 0.0
H2533 H 0.14916 0.7775 0.62241 0.0
H2534 H 0.13824 0.75975 0.62571 0.0
H2535 H 0.13507 0.77242 0.63348 0.0
H2536 H 0.13518 0.78677 0.58886 0.0
H2537 H 0.15447 0.76271 0.59194 0.0
H2538 H 0.16184 0.81612 0.57704 0.0
H2539 H 0.14373 0.8065 0.57578 0.0
H2540 H 0.15382 0.80688 0.56153 0.0
H2541 H 0.17509 0.76884 0.58137 0.0
H2542 H 0.18599 0.78695 0.58016 0.0
H2543 H 0.17679 0.77725 0.56527 0.0
H2544 H 0.25595 0.87474 0.5827 0.0
H2545 H 0.2689 0.88196 0.61723 0.0
H2546 H 0.2539 0.8924 0.60304 0.0
H2547 H 0.26683 0.89547 0.59337 0.0
H2548 H 0.24066 0.84924 0.58413 0.0
H2549 H 0.21443 0.86582 0.58918 0.0
H2550 H 0.21474 0.81551 0.57473 0.0
H2551 H 0.23268 0.82681 0.57621 0.0
H2552 H 0.22375 0.82549 0.56039 0.0
H2553 H 0.19246 0.85527 0.57961 0.0
H2554 H 0.18448 0.83736 0.58292 0.0
H2555 H 0.18879 0.84321 0.56572 0.0
H2556 H 0.24838 0.85641 0.46952 0.0
H2557 H 0.23777 0.84101 0.48591 0.0
H2558 H 0.21452 0.86131 0.48582 0.0
H2559 H 0.22071 0.81794 0.51128 0.0
H2560 H 0.23057 0.82007 0.49627 0.0
H2561 H 0.21254 0.80924 0.49559 0.0
H2562 H 0.19289 0.85154 0.49514 0.0
H2563 H 0.19248 0.84315 0.51093 0.0
H2564 H 0.1839 0.83324 0.49592 0.0
H2565 H 0.11888 0.75484 0.48887 0.0
H2566 H 0.10345 0.7306 0.49421 0.0
H2567 H 0.11886 0.73854 0.50427 0.0
H2568 H 0.11683 0.72693 0.49061 0.0
H2569 H 0.15648 0.75362 0.49154 0.0
H2570 H 0.13533 0.77553 0.48478 0.0
H2571 H 0.17938 0.77462 0.51573 0.0
H2572 H 0.18809 0.78231 0.50036 0.0
H2573 H 0.17842 0.76404 0.50134 0.0
H2574 H 0.14359 0.79795 0.49245 0.0
H2575 H 0.16167 0.80783 0.49172 0.0
H2576 H 0.15383 0.80224 0.50795 0.0
H2577 H 0.18643 0.81458 0.58455 0.0
H2578 H 0.21522 0.84243 0.54888 0.0
H2579 H 0.21527 0.84062 0.52443 0.0
H2580 H 0.1866 0.8077 0.49029 0.0
H2581 H 0.15755 0.78004 0.5259 0.0
H2582 H 0.15736 0.78197 0.55038 0.0
H2583 H 0.2694 0.87254 0.48289 0.0
H2584 H 0.26031 0.87968 0.49142 0.0
H2585 H 0.25597 0.86232 0.49417 0.0
C2586 C 0.1434 0.39032 0.61235 0.0
C2587 C 0.13385 0.38441 0.59983 0.0
C2588 C 0.14675 0.37743 0.58495 0.0
C2589 C 0.15683 0.39054 0.58148 0.0
C2590 C 0.16782 0.39243 0.57366 0.0
C2591 C 0.16867 0.38101 0.56907 0.0
C2592 C 0.15841 0.36782 0.57231 0.0
C2593 C 0.1476 0.36622 0.58021 0.0
C2594 C 0.17858 0.40664 0.57032 0.0
C2595 C 0.15892 0.35541 0.56747 0.0
C2596 C 0.26648 0.40549 0.58961 0.0
C2597 C 0.25575 0.39381 0.59793 0.0
C2598 C 0.23521 0.38461 0.58328 0.0
C2599 C 0.22582 0.37312 0.57589 0.0
C2600 C 0.21484 0.37285 0.569 0.0
C2601 C 0.21351 0.38462 0.56911 0.0
C2602 C 0.22284 0.39624 0.57678 0.0
C2603 C 0.23347 0.39604 0.58398 0.0
C2604 C 0.20477 0.36001 0.56151 0.0
C2605 C 0.22169 0.40894 0.57722 0.0
C2606 C 0.23631 0.38964 0.4811 0.0
C2607 C 0.22556 0.37688 0.48445 0.0
C2608 C 0.2144 0.37579 0.49137 0.0
C2609 C 0.21392 0.38768 0.49484 0.0
C2610 C 0.22444 0.40049 0.49091 0.0
C2611 C 0.23547 0.40128 0.48398 0.0
C2612 C 0.20318 0.36195 0.49511 0.0
C2613 C 0.22413 0.41334 0.49426 0.0
C2614 C 0.12847 0.39542 0.47707 0.0
C2615 C 0.13128 0.38634 0.46746 0.0
C2616 C 0.14505 0.37926 0.48097 0.0
C2617 C 0.14534 0.36802 0.48633 0.0
C2618 C 0.15688 0.36936 0.49302 0.0
C2619 C 0.16832 0.38239 0.49474 0.0
C2620 C 0.16821 0.39382 0.48917 0.0
C2621 C 0.15662 0.39213 0.48223 0.0
C2622 C 0.15676 0.35687 0.49845 0.0
C2623 C 0.18024 0.40786 0.4908 0.0
C2624 C 0.18031 0.38284 0.56096 0.0
C2625 C 0.19129 0.38337 0.56802 0.0
C2626 C 0.20249 0.38481 0.56102 0.0
C2627 C 0.20284 0.38586 0.54655 0.0
C2628 C 0.21408 0.38767 0.53919 0.0
C2629 C 0.21407 0.38806 0.52493 0.0
C2630 C 0.20287 0.38676 0.51746 0.0
C2631 C 0.20259 0.38672 0.50294 0.0
C2632 C 0.19127 0.38537 0.49584 0.0
C2633 C 0.18017 0.38414 0.50287 0.0
C2634 C 0.1803 0.38427 0.51739 0.0
C2635 C 0.16938 0.38324 0.52479 0.0
C2636 C 0.16939 0.38286 0.53905 0.0
C2637 C 0.18036 0.38359 0.54648 0.0
C2638 C 0.19163 0.38502 0.53926 0.0
C2639 C 0.19162 0.38541 0.52469 0.0
C2640 C 0.26607 0.39237 0.48758 0.0
C2641 C 0.25403 0.38383 0.47795 0.0
O2642 O 0.13614 0.37505 0.59287 0.0
O2643 O 0.13338 0.37719 0.47492 0.0
O2644 O 0.24748 0.39106 0.47489 0.0
O2645 O 0.24579 0.38419 0.58933 0.0
H2646 H 0.13537 0.39272 0.59281 0.0
H2647 H 0.15403 0.39583 0.60916 0.0
H2648 H 0.14212 0.3821 0.61936 0.0
H2649 H 0.14135 0.3976 0.61805 0.0
H2650 H 0.15625 0.39934 0.58486 0.0
H2651 H 0.13975 0.35615 0.58286 0.0
H2652 H 0.1885 0.40841 0.57421 0.0
H2653 H 0.1766 0.41449 0.57484 0.0
H2654 H 0.17923 0.40783 0.55901 0.0
H2655 H 0.14996 0.34583 0.57052 0.0
H2656 H 0.16806 0.35564 0.57181 0.0
H2657 H 0.15962 0.35543 0.55611 0.0
H2658 H 0.25125 0.39798 0.60522 0.0
H2659 H 0.27475 0.4128 0.59653 0.0
H2660 H 0.26216 0.41108 0.58423 0.0
H2661 H 0.27074 0.40162 0.58174 0.0
H2662 H 0.22713 0.36428 0.57554 0.0
H2663 H 0.24044 0.40493 0.58991 0.0
H2664 H 0.20636 0.36133 0.5503 0.0
H2665 H 0.19435 0.35779 0.56348 0.0
H2666 H 0.20577 0.35114 0.5646 0.0
H2667 H 0.23051 0.41756 0.58245 0.0
H2668 H 0.2125 0.4069 0.58279 0.0
H2669 H 0.22069 0.41196 0.56665 0.0
H2670 H 0.24742 0.37444 0.48358 0.0
H2671 H 0.22577 0.36775 0.48159 0.0
H2672 H 0.24368 0.41106 0.48109 0.0
H2673 H 0.2023 0.36128 0.50644 0.0
H2674 H 0.20485 0.35365 0.49129 0.0
H2675 H 0.19348 0.3604 0.49079 0.0
H2676 H 0.23299 0.42251 0.49031 0.0
H2677 H 0.22384 0.41448 0.50556 0.0
H2678 H 0.21485 0.41272 0.48979 0.0
H2679 H 0.14039 0.39299 0.46152 0.0
H2680 H 0.1257 0.40196 0.47099 0.0
H2681 H 0.13753 0.40213 0.48341 0.0
H2682 H 0.12022 0.38927 0.48416 0.0
H2683 H 0.13642 0.35812 0.48524 0.0
H2684 H 0.15668 0.40096 0.47807 0.0
H2685 H 0.15644 0.35699 0.50983 0.0
H2686 H 0.16608 0.3568 0.49559 0.0
H2687 H 0.14793 0.34738 0.49452 0.0
H2688 H 0.17828 0.41582 0.48662 0.0
H2689 H 0.1889 0.40827 0.48539 0.0
H2690 H 0.18318 0.41019 0.50183 0.0
H2691 H 0.19105 0.38248 0.5791 0.0
H2692 H 0.22298 0.3887 0.54437 0.0
H2693 H 0.22294 0.38931 0.51982 0.0
H2694 H 0.19105 0.38517 0.4847 0.0
H2695 H 0.16064 0.38261 0.51964 0.0
H2696 H 0.16064 0.3819 0.54418 0.0
H2697 H 0.27296 0.40236 0.48308 0.0
H2698 H 0.27174 0.38693 0.48972 0.0
H2699 H 0.26248 0.39419 0.49747 0.0
H2700 H 0.02814 0.38119 0.04344 0.0
H2701 H 0.02302 0.39137 0.06285 0.0
H2702 H 0.98059 0.3646 0.05531 0.0
H2703 H 0.98568 0.35406 0.03596 0.0
H2704 H 0.01079 0.40542 0.06328 0.0
H2705 H 0.96378 0.35963 0.08529 0.0
H2706 H 0.95401 0.33487 0.08733 0.0
H2707 H 0.99342 0.33919 0.08574 0.0
H2708 H 0.00344 0.36399 0.08387 0.0
H2709 H 0.97319 0.42462 0.10695 0.0
H2710 H 0.9795 0.41342 0.0893 0.0
H2711 H 0.99942 0.40216 0.12011 0.0
H2712 H 0.99362 0.4137 0.13772 0.0
H2713 H 0.98118 0.38024 0.10164 0.0
H2714 H 0.01857 0.42536 0.10147 0.0
H2715 H 0.02991 0.4503 0.10047 0.0
H2716 H 0.01266 0.44753 0.06032 0.0
H2717 H 0.00103 0.42253 0.06118 0.0
C2718 C 0.0177 0.37736 0.04595 0.0
C2719 C 0.00731 0.3668 0.03812 0.0
C2720 C 0.01479 0.38323 0.05705 0.0
C2721 C 0.00143 0.37876 0.06058 0.0
C2722 C 0.991 0.3681 0.05292 0.0
C2723 C 0.99391 0.36209 0.04184 0.0
C2724 C 0.99853 0.38569 0.07196 0.0
C2725 C 0.0043 0.39987 0.07165 0.0
C2726 C 0.99022 0.37853 0.08301 0.0
C2727 C 0.98433 0.36365 0.08431 0.0
C2728 C 0.97036 0.3553 0.08543 0.0
C2729 C 0.96478 0.34126 0.08655 0.0
C2730 C 0.97308 0.33546 0.08662 0.0
C2731 C 0.98699 0.34369 0.08563 0.0
C2732 C 0.99263 0.35774 0.08453 0.0
C2733 C 0.97887 0.41971 0.10998 0.0
C2734 C 0.98242 0.41964 0.12385 0.0
C2735 C 0.98248 0.41335 0.09989 0.0
C2736 C 0.98974 0.40681 0.10346 0.0
C2737 C 0.99361 0.40698 0.11721 0.0
C2738 C 0.99022 0.41355 0.12728 0.0
C2739 C 0.99332 0.39985 0.0928 0.0
C2740 C 0.98765 0.38571 0.09324 0.0
C2741 C 0.00191 0.40705 0.08199 0.0
C2742 C 0.00879 0.42207 0.08146 0.0
C2743 C 0.01707 0.43006 0.09249 0.0
C2744 C 0.02358 0.44421 0.09194 0.0
C2745 C 0.02197 0.4505 0.08036 0.0
C2746 C 0.01387 0.44264 0.0693 0.0
C2747 C 0.00732 0.42848 0.06981 0.0
H2748 H 0.02703 0.46145 0.07994 0.0
H2749 H 0.96874 0.32458 0.08747 0.0
H2750 H 0.64979 0.62207 0.04556 0.0
H2751 H 0.63811 0.60376 0.06188 0.0
H2752 H 0.60021 0.59952 0.04817 0.0
H2753 H 0.61179 0.61688 0.03096 0.0
H2754 H 0.62219 0.6073 0.08209 0.0
H2755 H 0.58485 0.57716 0.04756 0.0
H2756 H 0.57537 0.56282 0.02678 0.0
H2757 H 0.5987 0.54339 0.03529 0.0
H2758 H 0.60902 0.55834 0.05563 0.0
H2759 H 0.57898 0.56091 0.13229 0.0
H2760 H 0.5872 0.57591 0.1125 0.0
H2761 H 0.60452 0.55252 0.09648 0.0
H2762 H 0.59627 0.53751 0.11614 0.0
H2763 H 0.59105 0.55785 0.07675 0.0
H2764 H 0.62398 0.58276 0.11248 0.0
H2765 H 0.63167 0.59376 0.13528 0.0
H2766 H 0.6161 0.62046 0.12623 0.0
H2767 H 0.60814 0.60948 0.10343 0.0
C2768 C 0.63891 0.61665 0.0455 0.0
C2769 C 0.63163 0.62035 0.03652 0.0
C2770 C 0.63223 0.60628 0.0549 0.0
C2771 C 0.61816 0.59974 0.05586 0.0
C2772 C 0.61091 0.60368 0.04708 0.0
C2773 C 0.61757 0.61381 0.03742 0.0
C2774 C 0.61161 0.59072 0.06761 0.0
C2775 C 0.61526 0.59651 0.08089 0.0
C2776 C 0.60266 0.57659 0.06613 0.0
C2777 C 0.59825 0.5694 0.05271 0.0
C2778 C 0.58852 0.57038 0.0446 0.0
C2779 C 0.58285 0.56199 0.03299 0.0
C2780 C 0.58649 0.55225 0.02966 0.0
C2781 C 0.59593 0.55099 0.03784 0.0
C2782 C 0.60187 0.55958 0.04926 0.0
C2783 C 0.58446 0.55895 0.12447 0.0
C2784 C 0.58682 0.54793 0.12564 0.0
C2785 C 0.58922 0.56755 0.11324 0.0
C2786 C 0.59651 0.56535 0.10304 0.0
C2787 C 0.59886 0.55436 0.10419 0.0
C2788 C 0.59414 0.5458 0.11542 0.0
C2789 C 0.60172 0.57443 0.09111 0.0
C2790 C 0.59789 0.56868 0.0779 0.0
C2791 C 0.6105 0.58856 0.09264 0.0
C2792 C 0.61533 0.5952 0.10632 0.0
C2793 C 0.62209 0.5909 0.1154 0.0
C2794 C 0.62652 0.59715 0.12831 0.0
C2795 C 0.62434 0.60778 0.13222 0.0
C2796 C 0.61776 0.61221 0.1232 0.0
C2797 C 0.6133 0.60598 0.11028 0.0
H2798 H 0.62778 0.6126 0.14222 0.0
H2799 H 0.58196 0.54565 0.02077 0.0
H2800 H 0.37252 0.0232 0.04797 0.0
H2801 H 0.3883 0.0238 0.06569 0.0
H2802 H 0.39576 0.99659 0.04101 0.0
H2803 H 0.38039 0.99639 0.0231 0.0
H2804 H 0.38186 0.98737 0.06817 0.0
H2805 H 0.42431 0.02067 0.04861 0.0
H2806 H 0.44286 0.04223 0.04032 0.0
H2807 H 0.43882 0.06352 0.07494 0.0
H2808 H 0.42048 0.042 0.0836 0.0
H2809 H 0.42184 0.9732 0.11397 0.0
H2810 H 0.41333 0.97924 0.09355 0.0
H2811 H 0.41676 0.01421 0.11519 0.0
H2812 H 0.42545 0.00829 0.13557 0.0
H2813 H 0.42588 0.02037 0.08937 0.0
H2814 H 0.38652 0.98583 0.11078 0.0
H2815 H 0.3721 0.96347 0.12089 0.0
H2816 H 0.37093 0.94384 0.08262 0.0
H2817 H 0.38551 0.96609 0.07233 0.0
C2818 C 0.37811 0.01798 0.04603 0.0
C2819 C 0.37554 0.01003 0.03404 0.0
C2820 C 0.38708 0.01828 0.05616 0.0
C2821 C 0.39331 0.01035 0.05459 0.0
C2822 C 0.39124 0.00296 0.04232 0.0
C2823 C 0.38242 0.00279 0.03214 0.0
C2824 C 0.39921 0.00726 0.06672 0.0
C2825 C 0.39157 0.99452 0.07271 0.0
C2826 C 0.41166 0.01672 0.07287 0.0
C2827 C 0.42088 0.02981 0.06659 0.0
C2828 C 0.4272 0.03 0.05429 0.0
C2829 C 0.43783 0.04217 0.04966 0.0
C2830 C 0.44203 0.05423 0.0571 0.0
C2831 C 0.43557 0.05417 0.06918 0.0
C2832 C 0.42508 0.04199 0.07397 0.0
C2833 C 0.42093 0.98226 0.11429 0.0
C2834 C 0.42446 0.99038 0.12628 0.0
C2835 C 0.41596 0.98564 0.10268 0.0
C2836 C 0.41427 0.9971 0.1029 0.0
C2837 C 0.41799 0.00533 0.11479 0.0
C2838 C 0.42296 0.00196 0.12641 0.0
C2839 C 0.40858 0.00047 0.09075 0.0
C2840 C 0.41614 0.01323 0.08486 0.0
C2841 C 0.39604 0.99102 0.08468 0.0
C2842 C 0.38722 0.97763 0.09082 0.0
C2843 C 0.38327 0.97675 0.10455 0.0
C2844 C 0.37506 0.96409 0.11031 0.0
C2845 C 0.37063 0.95224 0.10241 0.0
C2846 C 0.37438 0.95303 0.08873 0.0
C2847 C 0.38261 0.96566 0.08292 0.0
H2848 H 0.36427 0.94246 0.10689 0.0
H2849 H 0.45023 0.06364 0.05347 0.0
H2850 H 0.36569 0.98782 0.98343 0.0
H2851 H 0.37757 0.98449 0.96438 0.0
H2852 H 0.38198 0.02076 0.94555 0.0
H2853 H 0.37086 0.02451 0.96496 0.0
H2854 H 0.37608 0.98072 0.93833 0.0
H2855 H 0.41165 0.03876 0.93159 0.0
H2856 H 0.42107 0.05977 0.94569 0.0
H2857 H 0.41625 0.03692 0.98214 0.0
H2858 H 0.40698 0.01581 0.96826 0.0
H2859 H 0.41133 0.99098 0.87677 0.0
H2860 H 0.39757 0.99051 0.89588 0.0
H2861 H 0.43299 0.00972 0.92223 0.0
H2862 H 0.44688 0.01118 0.90297 0.0
H2863 H 0.41978 0.02089 0.92744 0.0
H2864 H 0.4074 0.9745 0.92404 0.0
H2865 H 0.39977 0.95212 0.91309 0.0
H2866 H 0.36194 0.94926 0.90221 0.0
H2867 H 0.36941 0.97172 0.91295 0.0
C2868 C 0.36899 0.99491 0.97507 0.0
C2869 C 0.36749 0.00647 0.97567 0.0
C2870 C 0.37579 0.99302 0.9642 0.0
C2871 C 0.381 0.00257 0.95369 0.0
C2872 C 0.37844 0.01348 0.95374 0.0
C2873 C 0.37199 0.01557 0.96476 0.0
C2874 C 0.38991 0.00172 0.94323 0.0
C2875 C 0.38563 0.98949 0.93593 0.0
C2876 C 0.40265 0.01299 0.94047 0.0
C2877 C 0.40851 0.02569 0.94888 0.0
C2878 C 0.41267 0.03823 0.94261 0.0
C2879 C 0.41797 0.05015 0.95057 0.0
C2880 C 0.41921 0.04967 0.96481 0.0
C2881 C 0.41523 0.03727 0.97112 0.0
C2882 C 0.40995 0.02533 0.96321 0.0
C2883 C 0.41618 0.99512 0.88665 0.0
C2884 C 0.43022 0.00114 0.88825 0.0
C2885 C 0.40827 0.9947 0.89763 0.0
C2886 C 0.41416 0.99989 0.91063 0.0
C2887 C 0.42816 0.00567 0.91233 0.0
C2888 C 0.43612 0.00641 0.90126 0.0
C2889 C 0.40586 0.99994 0.92225 0.0
C2890 C 0.41026 0.01205 0.92981 0.0
C2891 C 0.39356 0.98836 0.92569 0.0
C2892 C 0.38901 0.97485 0.9192 0.0
C2893 C 0.39749 0.96914 0.91923 0.0
C2894 C 0.39319 0.95644 0.91307 0.0
C2895 C 0.38039 0.94929 0.90693 0.0
C2896 C 0.37185 0.95482 0.90696 0.0
C2897 C 0.37611 0.96753 0.91309 0.0
H2898 H 0.37708 0.93945 0.90217 0.0
H2899 H 0.42329 0.05891 0.97095 0.0
H2900 H 0.99336 0.37172 0.98912 0.0
H2901 H 0.99399 0.38677 0.97084 0.0
H2902 H 0.02039 0.37743 0.94781 0.0
H2903 H 0.01955 0.36216 0.96601 0.0
H2904 H 0.02806 0.40603 0.94923 0.0
H2905 H 0.98967 0.36206 0.93847 0.0
H2906 H 0.96833 0.34155 0.94373 0.0
H2907 H 0.94999 0.36597 0.95171 0.0
H2908 H 0.97129 0.38667 0.9467 0.0
H2909 H 0.02221 0.42983 0.88384 0.0
H2910 H 0.02319 0.41686 0.90332 0.0
H2911 H 0.98967 0.41829 0.92135 0.0
H2912 H 0.98828 0.4307 0.9016 0.0
H2913 H 0.98593 0.39418 0.9233 0.0
H2914 H 0.02324 0.43801 0.93357 0.0
H2915 H 0.04448 0.45911 0.92966 0.0
H2916 H 0.06487 0.43625 0.92424 0.0
H2917 H 0.04371 0.41497 0.92792 0.0
C2918 C 0.99943 0.37306 0.98021 0.0
C2919 C 0.00683 0.36626 0.97911 0.0
C2920 C 0.99976 0.38159 0.96981 0.0
C2921 C 0.00729 0.38323 0.95804 0.0
C2922 C 0.01465 0.37639 0.9569 0.0
C2923 C 0.01425 0.36778 0.96729 0.0
C2924 C 0.00701 0.39164 0.94668 0.0
C2925 C 0.01892 0.4034 0.94341 0.0
C2926 C 0.99495 0.38837 0.93946 0.0
C2927 C 0.98211 0.37592 0.94234 0.0
C2928 C 0.98112 0.36307 0.94146 0.0
C2929 C 0.96903 0.35141 0.94437 0.0
C2930 C 0.95782 0.35246 0.94809 0.0
C2931 C 0.95868 0.36517 0.94885 0.0
C2932 C 0.97075 0.37687 0.94596 0.0
C2933 C 0.01517 0.4275 0.89206 0.0
C2934 C 0.00541 0.43159 0.89135 0.0
C2935 C 0.01576 0.42015 0.90322 0.0
C2936 C 0.00669 0.41684 0.91398 0.0
C2937 C 0.99686 0.42081 0.91324 0.0
C2938 C 0.99614 0.42801 0.90199 0.0
C2939 C 0.00706 0.4087 0.9257 0.0
C2940 C 0.99513 0.39693 0.92908 0.0
C2941 C 0.01909 0.41209 0.93314 0.0
C2942 C 0.03183 0.42487 0.93085 0.0
C2943 C 0.03222 0.43746 0.93141 0.0
C2944 C 0.04426 0.44946 0.92926 0.0
C2945 C 0.05601 0.44902 0.92665 0.0
C2946 C 0.05576 0.43657 0.92623 0.0
C2947 C 0.04374 0.42454 0.92835 0.0
H2948 H 0.06532 0.45832 0.925 0.0
H2949 H 0.94847 0.34341 0.95034 0.0
H2950 H 0.61814 0.64304 0.98829 0.0
H2951 H 0.60089 0.63627 0.97016 0.0
H2952 H 0.61736 0.61432 0.94918 0.0
H2953 H 0.63458 0.6209 0.96735 0.0
H2954 H 0.61001 0.63036 0.93172 0.0
H2955 H 0.59206 0.59675 0.96679 0.0
H2956 H 0.58647 0.58907 0.9906 0.0
H2957 H 0.56039 0.60619 0.99249 0.0
H2958 H 0.56604 0.61421 0.96877 0.0
H2959 H 0.55519 0.58861 0.88721 0.0
H2960 H 0.57327 0.59675 0.90461 0.0
H2961 H 0.55322 0.61336 0.92855 0.0
H2962 H 0.53499 0.60504 0.91124 0.0
H2963 H 0.56257 0.60044 0.94465 0.0
H2964 H 0.58006 0.63379 0.90963 0.0
H2965 H 0.58605 0.64219 0.88609 0.0
H2966 H 0.61308 0.6262 0.88418 0.0
H2967 H 0.6071 0.61753 0.90765 0.0
C2968 C 0.61822 0.63693 0.97973 0.0
C2969 C 0.62771 0.63246 0.97929 0.0
C2970 C 0.60833 0.63303 0.96942 0.0
C2971 C 0.60783 0.62473 0.95842 0.0
C2972 C 0.6176 0.62073 0.95761 0.0
C2973 C 0.62739 0.62446 0.96802 0.0
C2974 C 0.5967 0.61967 0.94812 0.0
C2975 C 0.59965 0.62369 0.93447 0.0
C2976 C 0.58318 0.61122 0.95186 0.0
C2977 C 0.57959 0.60621 0.96605 0.0
C2978 C 0.58523 0.59898 0.97232 0.0
C2979 C 0.58203 0.59455 0.9858 0.0
C2980 C 0.5731 0.59717 0.99307 0.0
C2981 C 0.56732 0.60419 0.98686 0.0
C2982 C 0.57051 0.60868 0.97339 0.0
C2983 C 0.55459 0.59388 0.89626 0.0
C2984 C 0.54358 0.59602 0.89798 0.0
C2985 C 0.56496 0.59861 0.90614 0.0
C2986 C 0.56464 0.60576 0.91783 0.0
C2987 C 0.55364 0.60784 0.91963 0.0
C2988 C 0.54325 0.6031 0.90975 0.0
C2989 C 0.57584 0.6111 0.92815 0.0
C2990 C 0.57291 0.60713 0.94184 0.0
C2991 C 0.58938 0.61964 0.92445 0.0
C2992 C 0.59303 0.62489 0.91035 0.0
C2993 C 0.5872 0.63197 0.90415 0.0
C2994 C 0.59061 0.6368 0.89083 0.0
C2995 C 0.59991 0.6347 0.88363 0.0
C2996 C 0.60586 0.6278 0.88976 0.0
C2997 C 0.60248 0.62294 0.90308 0.0
H2998 H 0.60254 0.63845 0.87331 0.0
H2999 H 0.57064 0.59373 0.0035 0.0
H3000 H 0.01892 0.65653 0.97135 0.0
H3001 H 0.02167 0.64289 0.95337 0.0
H3002 H 0.99316 0.60632 0.97353 0.0
H3003 H 0.99113 0.62002 0.99189 0.0
H3004 H 0.0122 0.60273 0.96421 0.0
H3005 H 0.9849 0.62072 0.94509 0.0
H3006 H 0.98025 0.63902 0.93864 0.0
H3007 H 0.01463 0.65607 0.91276 0.0
H3008 H 0.01956 0.63794 0.91919 0.0
H3009 H 0.98144 0.55433 0.91015 0.0
H3010 H 0.98723 0.57092 0.92886 0.0
H3011 H 0.0203 0.60076 0.90569 0.0
H3012 H 0.01467 0.58408 0.88696 0.0
H3013 H 0.00326 0.60983 0.91587 0.0
H3014 H 0.02761 0.58858 0.93262 0.0
H3015 H 0.03093 0.56942 0.93898 0.0
H3016 H 0.00045 0.55741 0.96931 0.0
H3017 H 0.9968 0.57638 0.96299 0.0
C3018 C 0.01357 0.64557 0.97207 0.0
C3019 C 0.00523 0.63925 0.98317 0.0
C3020 C 0.01496 0.63779 0.96171 0.0
C3021 C 0.00754 0.62355 0.96202 0.0
C3022 C 0.99909 0.61727 0.97311 0.0
C3023 C 0.99788 0.62506 0.98355 0.0
C3024 C 0.00799 0.61509 0.95055 0.0
C3025 C 0.01016 0.60424 0.95365 0.0
C3026 C 0.00572 0.61727 0.93671 0.0
C3027 C 0.00267 0.62807 0.93273 0.0
C3028 C 0.9915 0.62841 0.93808 0.0
C3029 C 0.98881 0.63875 0.93442 0.0
C3030 C 0.99716 0.64872 0.92532 0.0
C3031 C 0.00818 0.64835 0.91982 0.0
C3032 C 0.01093 0.63805 0.92346 0.0
C3033 C 0.99005 0.56437 0.90911 0.0
C3034 C 0.9976 0.56792 0.8971 0.0
C3035 C 0.99337 0.57382 0.91982 0.0
C3036 C 0.00425 0.58702 0.91868 0.0
C3037 C 0.0119 0.5906 0.90676 0.0
C3038 C 0.00867 0.58109 0.8961 0.0
C3039 C 0.00702 0.59725 0.92962 0.0
C3040 C 0.00549 0.60845 0.92641 0.0
C3041 C 0.00966 0.59526 0.94337 0.0
C3042 C 0.01187 0.58386 0.94725 0.0
C3043 C 0.02154 0.58179 0.94057 0.0
C3044 C 0.02349 0.57098 0.94418 0.0
C3045 C 0.01589 0.56219 0.95452 0.0
C3046 C 0.00633 0.56422 0.96129 0.0
C3047 C 0.00433 0.57502 0.95771 0.0
H3048 H 0.01742 0.55382 0.95731 0.0
H3049 H 0.99507 0.65672 0.92251 0.0
H3050 H 0.355 0.38427 0.97612 0.0
H3051 H 0.36047 0.40153 0.95867 0.0
H3052 H 0.39873 0.40366 0.95272 0.0
H3053 H 0.39347 0.38658 0.97016 0.0
H3054 H 0.40145 0.42866 0.95405 0.0
H3055 H 0.37306 0.38647 0.93018 0.0
H3056 H 0.3526 0.36436 0.92607 0.0
H3057 H 0.32895 0.38414 0.92285 0.0
H3058 H 0.34925 0.40637 0.92714 0.0
H3059 H 0.41872 0.45562 0.88692 0.0
H3060 H 0.41224 0.44111 0.90704 0.0
H3061 H 0.37856 0.44758 0.91293 0.0
H3062 H 0.38522 0.4625 0.89315 0.0
H3063 H 0.37236 0.41928 0.91251 0.0
H3064 H 0.40172 0.46191 0.93456 0.0
H3065 H 0.42261 0.48375 0.93802 0.0
H3066 H 0.4449 0.46283 0.94402 0.0
H3067 H 0.42417 0.44084 0.94037 0.0
C3068 C 0.36459 0.38841 0.97112 0.0
C3069 C 0.37375 0.38396 0.97453 0.0
C3070 C 0.36768 0.39826 0.96112 0.0
C3071 C 0.37997 0.40382 0.95434 0.0
C3072 C 0.38919 0.39952 0.95784 0.0
C3073 C 0.38611 0.38968 0.96778 0.0
C3074 C 0.38326 0.41402 0.94348 0.0
C3075 C 0.39514 0.42657 0.94492 0.0
C3076 C 0.37487 0.4114 0.93171 0.0
C3077 C 0.36265 0.39806 0.92916 0.0
C3078 C 0.36347 0.38609 0.92873 0.0
C3079 C 0.35191 0.37354 0.92634 0.0
C3080 C 0.33948 0.37284 0.92425 0.0
C3081 C 0.33858 0.3847 0.92451 0.0
C3082 C 0.35012 0.39727 0.92691 0.0
C3083 C 0.40994 0.45397 0.89251 0.0
C3084 C 0.40223 0.45983 0.88811 0.0
C3085 C 0.40629 0.44572 0.90401 0.0
C3086 C 0.39485 0.44319 0.91135 0.0
C3087 C 0.38733 0.44931 0.90727 0.0
C3088 C 0.39113 0.45777 0.89591 0.0
C3089 C 0.3906 0.43381 0.92304 0.0
C3090 C 0.37857 0.42142 0.92173 0.0
C3091 C 0.39889 0.43652 0.93487 0.0
C3092 C 0.4114 0.44972 0.93705 0.0
C3093 C 0.4111 0.46196 0.93648 0.0
C3094 C 0.42291 0.47437 0.9385 0.0
C3095 C 0.43508 0.47468 0.9412 0.0
C3096 C 0.43547 0.46257 0.9419 0.0
C3097 C 0.42368 0.45013 0.93987 0.0
H3098 H 0.44421 0.4843 0.94277 0.0
H3099 H 0.33054 0.36312 0.92239 0.0
H3100 H 0.61745 0.99738 0.99692 0.0
H3101 H 0.60178 0.99489 0.97831 0.0
H3102 H 0.61761 0.97456 0.95341 0.0
H3103 H 0.63233 0.97597 0.97251 0.0
H3104 H 0.61051 0.00792 0.9567 0.0
H3105 H 0.60532 0.96232 0.93234 0.0
H3106 H 0.5966 0.93759 0.93286 0.0
H3107 H 0.56267 0.93251 0.95573 0.0
H3108 H 0.57164 0.95729 0.95598 0.0
H3109 H 0.59087 0.016 0.88992 0.0
H3110 H 0.60183 0.01162 0.9094 0.0
H3111 H 0.56375 0.97766 0.92054 0.0
H3112 H 0.55298 0.98135 0.90063 0.0
H3113 H 0.58146 0.97085 0.92399 0.0
H3114 H 0.57914 0.01052 0.93744 0.0
H3115 H 0.58292 0.0338 0.93517 0.0
H3116 H 0.62558 0.04936 0.93477 0.0
H3117 H 0.62204 0.02615 0.93688 0.0
C3118 C 0.61707 0.99181 0.98767 0.0
C3119 C 0.62585 0.98664 0.98617 0.0
C3120 C 0.60817 0.99042 0.97701 0.0
C3121 C 0.60835 0.98444 0.96435 0.0
C3122 C 0.61678 0.97875 0.9631 0.0
C3123 C 0.62535 0.97971 0.97399 0.0
C3124 C 0.60172 0.98652 0.95205 0.0
C3125 C 0.60409 0.99974 0.94963 0.0
C3126 C 0.59338 0.97601 0.94264 0.0
C3127 C 0.58941 0.96165 0.94463 0.0
C3128 C 0.59626 0.95595 0.93789 0.0
C3129 C 0.59124 0.94194 0.93799 0.0
C3130 C 0.57912 0.93349 0.94438 0.0
C3131 C 0.57211 0.93907 0.95086 0.0
C3132 C 0.57729 0.95312 0.95112 0.0
C3133 C 0.58487 0.00756 0.89651 0.0
C3134 C 0.57104 0.99917 0.89377 0.0
C3135 C 0.59111 0.00513 0.90771 0.0
C3136 C 0.58357 0.99448 0.91666 0.0
C3137 C 0.56979 0.98597 0.91384 0.0
C3138 C 0.56361 0.98819 0.90246 0.0
C3139 C 0.58999 0.99212 0.92892 0.0
C3140 C 0.58776 0.97897 0.93119 0.0
C3141 C 0.59817 0.00263 0.9384 0.0
C3142 C 0.60032 0.01659 0.93719 0.0
C3143 C 0.58932 0.0189 0.93679 0.0
C3144 C 0.59142 0.03208 0.93554 0.0
C3145 C 0.60448 0.04304 0.93479 0.0
C3146 C 0.61547 0.04085 0.93533 0.0
C3147 C 0.61343 0.0277 0.93657 0.0
H3148 H 0.60608 0.05324 0.93382 0.0
H3149 H 0.57515 0.92262 0.9443 0.0
H3150 H 0.62669 0.97622 0.05605 0.0
H3151 H 0.61651 0.98215 0.07479 0.0
H3152 H 0.62766 0.02046 0.05586 0.0
H3153 H 0.63843 0.01481 0.03739 0.0
H3154 H 0.6299 0.024 0.08239 0.0
H3155 H 0.5954 0.99219 0.05181 0.0
H3156 H 0.58306 0.97098 0.03817 0.0
H3157 H 0.57405 0.94775 0.07494 0.0
H3158 H 0.58647 0.96882 0.08881 0.0
H3159 H 0.58129 0.03423 0.11798 0.0
H3160 H 0.59344 0.03021 0.09966 0.0
H3161 H 0.58796 0.99422 0.11998 0.0
H3162 H 0.57581 0.99819 0.13828 0.0
H3163 H 0.58259 0.99013 0.09218 0.0
H3164 H 0.61758 0.0231 0.12251 0.0
H3165 H 0.62948 0.04484 0.13537 0.0
H3166 H 0.63676 0.0666 0.09774 0.0
H3167 H 0.62473 0.04498 0.08468 0.0
C3168 C 0.62714 0.98599 0.056 0.0
C3169 C 0.63326 0.99501 0.04522 0.0
C3170 C 0.62124 0.98934 0.06666 0.0
C3171 C 0.62096 0.00159 0.06654 0.0
C3172 C 0.62766 0.01091 0.05614 0.0
C3173 C 0.63382 0.00768 0.0456 0.0
C3174 C 0.61317 0.00435 0.07691 0.0
C3175 C 0.6195 0.01666 0.08439 0.0
C3176 C 0.59961 0.99476 0.07962 0.0
C3177 C 0.59196 0.98208 0.07134 0.0
C3178 C 0.59084 0.98255 0.05698 0.0
C3179 C 0.58384 0.97056 0.04921 0.0
C3180 C 0.57781 0.95803 0.05567 0.0
C3181 C 0.57874 0.95747 0.06994 0.0
C3182 C 0.58574 0.96943 0.07777 0.0
C3183 C 0.58262 0.02542 0.11846 0.0
C3184 C 0.57754 0.01647 0.12949 0.0
C3185 C 0.5896 0.02317 0.10805 0.0
C3186 C 0.59169 0.01197 0.10853 0.0
C3187 C 0.58645 0.00292 0.11942 0.0
C3188 C 0.57952 0.00519 0.12985 0.0
C3189 C 0.59937 0.00966 0.09774 0.0
C3190 C 0.59299 0.99746 0.09014 0.0
C3191 C 0.61279 0.01943 0.09479 0.0
C3192 C 0.62014 0.03242 0.10263 0.0
C3193 C 0.62164 0.03252 0.11699 0.0
C3194 C 0.62842 0.04482 0.12432 0.0
C3195 C 0.63384 0.05709 0.11738 0.0
C3196 C 0.63254 0.05709 0.1031 0.0
C3197 C 0.62575 0.04481 0.09573 0.0
H3198 H 0.63909 0.06661 0.12307 0.0
H3199 H 0.57241 0.94875 0.04963 0.0
H3200 H 0.98102 0.62727 0.03677 0.0
H3201 H 0.97486 0.61126 0.05555 0.0
H3202 H 0.01602 0.63194 0.07053 0.0
H3203 H 0.02232 0.6476 0.05147 0.0
H3204 H 0.00741 0.60638 0.07036 0.0
H3205 H 0.98948 0.63405 0.08688 0.0
H3206 H 0.97595 0.64551 0.08583 0.0
H3207 H 0.93994 0.60704 0.08025 0.0
H3208 H 0.95328 0.59535 0.08109 0.0
H3209 H 0.99641 0.57636 0.13598 0.0
H3210 H 0.00139 0.59247 0.11742 0.0
H3211 H 0.96194 0.5667 0.09949 0.0
H3212 H 0.95694 0.55048 0.11804 0.0
H3213 H 0.96907 0.59423 0.10108 0.0
H3214 H 0.98774 0.56687 0.08516 0.0
H3215 H 0.00171 0.55595 0.08715 0.0
H3216 H 0.03709 0.59495 0.09268 0.0
H3217 H 0.02329 0.6061 0.09093 0.0
C3218 C 0.98872 0.62851 0.04418 0.0
C3219 C 0.00215 0.6387 0.04265 0.0
C3220 C 0.98518 0.61937 0.05494 0.0
C3221 C 0.99495 0.62045 0.06457 0.0
C3222 C 0.00831 0.63085 0.06323 0.0
C3223 C 0.01189 0.63983 0.05235 0.0
C3224 C 0.99144 0.61038 0.07565 0.0
C3225 C 0.99914 0.60391 0.07719 0.0
C3226 C 0.98044 0.60684 0.08438 0.0
C3227 C 0.9724 0.61384 0.08391 0.0
C3228 C 0.97869 0.62804 0.08533 0.0
C3229 C 0.97105 0.63458 0.08478 0.0
C3230 C 0.9571 0.62701 0.08294 0.0
C3231 C 0.95075 0.61289 0.08166 0.0
C3232 C 0.95834 0.6063 0.08218 0.0
C3233 C 0.98884 0.5741 0.12803 0.0
C3234 C 0.97632 0.56214 0.12839 0.0
C3235 C 0.99169 0.58329 0.11745 0.0
C3236 C 0.98205 0.58072 0.10706 0.0
C3237 C 0.9695 0.56886 0.10743 0.0
C3238 C 0.96668 0.5596 0.11797 0.0
C3239 C 0.98514 0.59045 0.0958 0.0
C3240 C 0.97733 0.59678 0.09422 0.0
C3241 C 0.99613 0.59399 0.08712 0.0
C3242 C 0.00446 0.58731 0.08803 0.0
C3243 C 0.99848 0.57311 0.0869 0.0
C3244 C 0.00638 0.56688 0.08797 0.0
C3245 C 0.02027 0.57474 0.09007 0.0
C3246 C 0.02632 0.58886 0.09107 0.0
C3247 C 0.01847 0.59515 0.09002 0.0
H3248 H 0.02637 0.5699 0.0909 0.0
H3249 H 0.95121 0.63209 0.08252 0.0
H3250 H 0.37769 0.3525 0.03754 0.0
H3251 H 0.3944 0.36047 0.05624 0.0
H3252 H 0.40207 0.4014 0.05035 0.0
H3253 H 0.38618 0.39347 0.03074 0.0
H3254 H 0.42437 0.40294 0.05612 0.0
H3255 H 0.38111 0.37896 0.07684 0.0
H3256 H 0.35848 0.35958 0.08056 0.0
H3257 H 0.37582 0.33497 0.09213 0.0
H3258 H 0.39854 0.35417 0.08832 0.0
H3259 H 0.44662 0.42609 0.12599 0.0
H3260 H 0.4337 0.41857 0.1043 0.0
H3261 H 0.44029 0.38432 0.10238 0.0
H3262 H 0.45365 0.39202 0.12372 0.0
H3263 H 0.41175 0.37906 0.10047 0.0
H3264 H 0.45568 0.40539 0.08101 0.0
H3265 H 0.47761 0.42605 0.07831 0.0
H3266 H 0.45771 0.44802 0.06583 0.0
H3267 H 0.43564 0.42753 0.06865 0.0
C3268 C 0.38328 0.36325 0.04001 0.0
C3269 C 0.38116 0.37248 0.0324 0.0
C3270 C 0.39261 0.36777 0.05089 0.0
C3271 C 0.39941 0.38154 0.0549 0.0
C3272 C 0.39705 0.39075 0.04743 0.0
C3273 C 0.38795 0.38624 0.03629 0.0
C3274 C 0.40873 0.38628 0.06705 0.0
C3275 C 0.4215 0.39779 0.06585 0.0
C3276 C 0.40516 0.37948 0.07975 0.0
C3277 C 0.39151 0.36797 0.08219 0.0
C3278 C 0.38009 0.3694 0.08012 0.0
C3279 C 0.36725 0.35844 0.08224 0.0
C3280 C 0.36571 0.34604 0.08655 0.0
C3281 C 0.37702 0.34458 0.08878 0.0
C3282 C 0.38988 0.35549 0.08666 0.0
C3283 C 0.44534 0.41697 0.12092 0.0
C3284 C 0.4507 0.40936 0.12687 0.0
C3285 C 0.43803 0.41274 0.10853 0.0
C3286 C 0.43597 0.40084 0.10188 0.0
C3287 C 0.44169 0.39347 0.10749 0.0
C3288 C 0.44923 0.39783 0.11974 0.0
C3289 C 0.42719 0.3957 0.08949 0.0
C3290 C 0.41454 0.38413 0.09069 0.0
C3291 C 0.43074 0.40265 0.07695 0.0
C3292 C 0.444 0.41495 0.07518 0.0
C3293 C 0.45597 0.41466 0.07782 0.0
C3294 C 0.46843 0.42633 0.07624 0.0
C3295 C 0.46906 0.43835 0.07194 0.0
C3296 C 0.45722 0.43871 0.06917 0.0
C3297 C 0.44473 0.42706 0.07075 0.0
H3298 H 0.47871 0.44738 0.07071 0.0
H3299 H 0.35576 0.33757 0.08818 0.0
H3300 H 0.64094 0.68486 0.37154 0.0
H3301 H 0.63018 0.69201 0.38868 0.0
H3302 H 0.66898 0.72462 0.402 0.0
H3303 H 0.67983 0.71756 0.38506 0.0
H3304 H 0.65322 0.71149 0.42361 0.0
H3305 H 0.64889 0.73065 0.38097 0.0
H3306 H 0.64203 0.72963 0.35669 0.0
H3307 H 0.60083 0.70301 0.36684 0.0
H3308 H 0.60749 0.70372 0.39117 0.0
H3309 H 0.63691 0.75474 0.46047 0.0
H3310 H 0.6455 0.74497 0.44372 0.0
H3311 H 0.6049 0.716 0.43085 0.0
H3312 H 0.59626 0.72613 0.44731 0.0
H3313 H 0.62009 0.72541 0.40919 0.0
H3314 H 0.6239 0.70712 0.45193 0.0
H3315 H 0.6305 0.7077 0.47624 0.0
H3316 H 0.67211 0.73179 0.46613 0.0
H3317 H 0.66575 0.73152 0.44178 0.0
C3318 C 0.6472 0.69352 0.37815 0.0
C3319 C 0.66127 0.70065 0.37686 0.0
C3320 C 0.64102 0.69762 0.38791 0.0
C3321 C 0.64878 0.70892 0.39652 0.0
C3322 C 0.66281 0.71587 0.39546 0.0
C3323 C 0.66899 0.71182 0.38571 0.0
C3324 C 0.64235 0.71372 0.40654 0.0
C3325 C 0.64606 0.71464 0.42046 0.0
C3326 C 0.63272 0.71746 0.40246 0.0
C3327 C 0.62871 0.71713 0.38786 0.0
C3328 C 0.63838 0.7245 0.37801 0.0
C3329 C 0.63453 0.72399 0.36424 0.0
C3330 C 0.62101 0.71623 0.36022 0.0
C3331 C 0.61131 0.709 0.36997 0.0
C3332 C 0.61511 0.70946 0.38375 0.0
C3333 C 0.62982 0.74643 0.45393 0.0
C3334 C 0.6159 0.7414 0.45498 0.0
C3335 C 0.63473 0.74073 0.44447 0.0
C3336 C 0.62585 0.72963 0.43612 0.0
C3337 C 0.61195 0.72457 0.43715 0.0
C3338 C 0.60703 0.73036 0.44653 0.0
C3339 C 0.63109 0.72337 0.42629 0.0
C3340 C 0.62716 0.72215 0.4124 0.0
C3341 C 0.64046 0.71928 0.43041 0.0
C3342 C 0.64433 0.71939 0.44504 0.0
C3343 C 0.63445 0.71262 0.4549 0.0
C3344 C 0.63816 0.71288 0.46869 0.0
C3345 C 0.65172 0.7198 0.47273 0.0
C3346 C 0.66161 0.72644 0.46298 0.0
C3347 C 0.65796 0.72623 0.44919 0.0
H3348 H 0.65456 0.71999 0.4834 0.0
H3349 H 0.61804 0.71585 0.34955 0.0
H3350 H 0.27609 0.9528 0.377 0.0
H3351 H 0.26647 0.93623 0.39541 0.0
H3352 H 0.30635 0.94479 0.40777 0.0
H3353 H 0.3159 0.96157 0.38963 0.0
H3354 H 0.26668 0.91344 0.39928 0.0
H3355 H 0.30783 0.94032 0.44171 0.0
H3356 H 0.32417 0.96364 0.44942 0.0
H3357 H 0.29886 0.97813 0.43239 0.0
H3358 H 0.28229 0.95488 0.42476 0.0
H3359 H 0.2617 0.86662 0.44999 0.0
H3360 H 0.27033 0.88451 0.43286 0.0
H3361 H 0.25758 0.90776 0.45744 0.0
H3362 H 0.24911 0.88998 0.47466 0.0
H3363 H 0.28226 0.92366 0.44791 0.0
H3364 H 0.23941 0.8899 0.42927 0.0
H3365 H 0.22215 0.86705 0.42131 0.0
H3366 H 0.24887 0.86706 0.39084 0.0
H3367 H 0.26638 0.88984 0.39875 0.0
C3368 C 0.28273 0.9511 0.38371 0.0
C3369 C 0.29663 0.95802 0.38172 0.0
C3370 C 0.27727 0.94166 0.39417 0.0
C3371 C 0.28569 0.93928 0.40298 0.0
C3372 C 0.29966 0.94655 0.40121 0.0
C3373 C 0.30509 0.95597 0.39075 0.0
C3374 C 0.27986 0.92892 0.41378 0.0
C3375 C 0.27013 0.91567 0.40989 0.0
C3376 C 0.28415 0.9319 0.4277 0.0
C3377 C 0.29388 0.94587 0.43257 0.0
C3378 C 0.30572 0.94847 0.43969 0.0
C3379 C 0.31502 0.96168 0.44402 0.0
C3380 C 0.31257 0.97236 0.44136 0.0
C3381 C 0.30077 0.96985 0.43441 0.0
C3382 C 0.29142 0.95666 0.43007 0.0
C3383 C 0.26068 0.87551 0.45167 0.0
C3384 C 0.25449 0.87679 0.46351 0.0
C3385 C 0.26559 0.88572 0.44189 0.0
C3386 C 0.26442 0.89738 0.44379 0.0
C3387 C 0.25853 0.89882 0.45575 0.0
C3388 C 0.25362 0.88863 0.46552 0.0
C3389 C 0.26933 0.9081 0.4333 0.0
C3390 C 0.27888 0.92142 0.43726 0.0
C3391 C 0.26477 0.90523 0.41946 0.0
C3392 C 0.25426 0.89152 0.41471 0.0
C3393 C 0.24165 0.88498 0.42095 0.0
C3394 C 0.23182 0.87205 0.41644 0.0
C3395 C 0.23443 0.86559 0.40561 0.0
C3396 C 0.24687 0.87207 0.39925 0.0
C3397 C 0.25675 0.88499 0.40374 0.0
H3398 H 0.22679 0.85558 0.40212 0.0
H3399 H 0.31981 0.98259 0.44469 0.0
H3400 H 0.02852 0.33896 0.38175 0.0
H3401 H 0.04097 0.34292 0.40332 0.0
H3402 H 0.07241 0.3403 0.38166 0.0
H3403 H 0.05782 0.33236 0.36136 0.0
H3404 H 0.07482 0.33368 0.40267 0.0
H3405 H 0.06736 0.37368 0.3968 0.0
H3406 H 0.05318 0.38458 0.396 0.0
H3407 H 0.03571 0.36646 0.43421 0.0
H3408 H 0.04979 0.35557 0.43521 0.0
H3409 H 0.1319 0.38521 0.43935 0.0
H3410 H 0.11314 0.37261 0.42307 0.0
H3411 H 0.08572 0.35699 0.45661 0.0
H3412 H 0.1045 0.36914 0.47301 0.0
H3413 H 0.07859 0.36978 0.43442 0.0
H3414 H 0.09028 0.33548 0.44248 0.0
H3415 H 0.10567 0.32619 0.44464 0.0
H3416 H 0.11631 0.33503 0.40241 0.0
H3417 H 0.10114 0.34457 0.40006 0.0
C3418 C 0.03816 0.33931 0.38173 0.0
C3419 C 0.04292 0.33662 0.36961 0.0
C3420 C 0.0455 0.34191 0.39407 0.0
C3421 C 0.05836 0.34309 0.39432 0.0
C3422 C 0.06275 0.33983 0.38211 0.0
C3423 C 0.05472 0.33587 0.37017 0.0
C3424 C 0.06725 0.34744 0.40703 0.0
C3425 C 0.07575 0.34187 0.40924 0.0
C3426 C 0.06803 0.35734 0.4167 0.0
C3427 C 0.05949 0.36374 0.41594 0.0
C3428 C 0.06046 0.37206 0.40495 0.0
C3429 C 0.05245 0.3782 0.40447 0.0
C3430 C 0.04351 0.37615 0.41498 0.0
C3431 C 0.0426 0.36801 0.42605 0.0
C3432 C 0.0506 0.36187 0.42658 0.0
C3433 C 0.12189 0.37907 0.44326 0.0
C3434 C 0.11964 0.37847 0.45745 0.0
C3435 C 0.11121 0.37184 0.43397 0.0
C3436 C 0.09809 0.36393 0.43869 0.0
C3437 C 0.09579 0.36312 0.45282 0.0
C3438 C 0.10651 0.37014 0.46214 0.0
C3439 C 0.08675 0.35703 0.42873 0.0
C3440 C 0.07767 0.36185 0.42742 0.0
C3441 C 0.08559 0.34668 0.41978 0.0
C3442 C 0.09465 0.34084 0.42113 0.0
C3443 C 0.09599 0.33555 0.43369 0.0
C3444 C 0.10466 0.33022 0.43494 0.0
C3445 C 0.11199 0.33004 0.42368 0.0
C3446 C 0.11064 0.33518 0.41113 0.0
C3447 C 0.10199 0.34053 0.40983 0.0
H3448 H 0.11869 0.32591 0.42466 0.0
H3449 H 0.03733 0.38092 0.41458 0.0
H3450 H 0.0263 0.30266 0.31549 0.0
H3451 H 0.03223 0.29175 0.29717 0.0
H3452 H 0.05967 0.33098 0.28101 0.0
H3453 H 0.05398 0.34198 0.29934 0.0
H3454 H 0.04218 0.31082 0.26088 0.0
H3455 H 0.0725 0.31686 0.29897 0.0
H3456 H 0.07778 0.3141 0.32295 0.0
H3457 H 0.05526 0.27078 0.31774 0.0
H3458 H 0.04966 0.27329 0.29378 0.0
H3459 H 0.08389 0.29965 0.21697 0.0
H3460 H 0.0746 0.30743 0.235 0.0
H3461 H 0.05543 0.26746 0.25236 0.0
H3462 H 0.06515 0.25975 0.23453 0.0
H3463 H 0.06649 0.28591 0.2721 0.0
H3464 H 0.03734 0.27909 0.23396 0.0
H3465 H 0.03104 0.28101 0.21012 0.0
H3466 H 0.04958 0.32424 0.21529 0.0
H3467 H 0.05617 0.32261 0.23911 0.0
C3468 C 0.03354 0.30896 0.308 0.0
C3469 C 0.0397 0.32319 0.30889 0.0
C3470 C 0.03693 0.30272 0.29758 0.0
C3471 C 0.0464 0.31059 0.2878 0.0
C3472 C 0.05233 0.32475 0.28847 0.0
C3473 C 0.04911 0.33101 0.29899 0.0
C3474 C 0.05043 0.30414 0.27703 0.0
C3475 C 0.04758 0.30545 0.26328 0.0
C3476 C 0.05708 0.29677 0.28027 0.0
C3477 C 0.06053 0.29526 0.29464 0.0
C3478 C 0.06857 0.30675 0.30297 0.0
C3479 C 0.07164 0.30523 0.31656 0.0
C3480 C 0.06683 0.29227 0.32188 0.0
C3481 C 0.05896 0.28081 0.31362 0.0
C3482 C 0.05584 0.28227 0.30003 0.0
C3483 C 0.07781 0.29256 0.22471 0.0
C3484 C 0.07549 0.27916 0.22453 0.0
C3485 C 0.07238 0.29697 0.23492 0.0
C3486 C 0.06419 0.28799 0.24496 0.0
C3487 C 0.06174 0.27457 0.24474 0.0
C3488 C 0.06728 0.27018 0.23457 0.0
C3489 C 0.05845 0.29276 0.25581 0.0
C3490 C 0.06096 0.29113 0.26962 0.0
C3491 C 0.05133 0.29969 0.25261 0.0
C3492 C 0.04734 0.30073 0.2383 0.0
C3493 C 0.04016 0.28902 0.22998 0.0
C3494 C 0.03653 0.29005 0.21648 0.0
C3495 C 0.03993 0.30274 0.21118 0.0
C3496 C 0.04696 0.31442 0.2194 0.0
C3497 C 0.05063 0.31344 0.23292 0.0
H3498 H 0.03711 0.30352 0.20072 0.0
H3499 H 0.06921 0.29112 0.33239 0.0
H3500 H 0.66541 0.71489 0.32457 0.0
H3501 H 0.67385 0.73219 0.30678 0.0
H3502 H 0.70203 0.71936 0.29461 0.0
H3503 H 0.69375 0.70228 0.31258 0.0
H3504 H 0.71378 0.74618 0.29517 0.0
H3505 H 0.67243 0.70967 0.27639 0.0
H3506 H 0.64816 0.6931 0.27618 0.0
H3507 H 0.63911 0.72557 0.27845 0.0
H3508 H 0.66334 0.74234 0.27885 0.0
H3509 H 0.73094 0.77768 0.23069 0.0
H3510 H 0.72318 0.7617 0.2494 0.0
H3511 H 0.69361 0.77332 0.25933 0.0
H3512 H 0.70071 0.78874 0.24019 0.0
H3513 H 0.68247 0.74726 0.26016 0.0
H3514 H 0.72378 0.78399 0.27839 0.0
H3515 H 0.74803 0.80061 0.27907 0.0
H3516 H 0.75725 0.76822 0.27867 0.0
H3517 H 0.73306 0.75139 0.27779 0.0
C3518 C 0.6735 0.71592 0.31815 0.0
C3519 C 0.67925 0.70763 0.32011 0.0
C3520 C 0.67825 0.72571 0.30796 0.0
C3521 C 0.6885 0.72699 0.29928 0.0
C3522 C 0.69417 0.7186 0.30122 0.0
C3523 C 0.6895 0.70891 0.3115 0.0
C3524 C 0.69321 0.73694 0.28806 0.0
C3525 C 0.70697 0.74637 0.28746 0.0
C3526 C 0.68426 0.73732 0.27812 0.0
C3527 C 0.66969 0.72725 0.27777 0.0
C3528 C 0.66526 0.71327 0.27693 0.0
C3529 C 0.65152 0.70385 0.27677 0.0
C3530 C 0.6421 0.70828 0.27733 0.0
C3531 C 0.64641 0.72215 0.27803 0.0
C3532 C 0.66015 0.73162 0.27821 0.0
C3533 C 0.72259 0.77667 0.23661 0.0
C3534 C 0.71611 0.78415 0.23339 0.0
C3535 C 0.71831 0.76766 0.24751 0.0
C3536 C 0.70783 0.76632 0.25584 0.0
C3537 C 0.70162 0.77406 0.25297 0.0
C3538 C 0.70572 0.7829 0.24194 0.0
C3539 C 0.7031 0.75664 0.26735 0.0
C3540 C 0.68931 0.7472 0.26796 0.0
C3541 C 0.71203 0.75632 0.27736 0.0
C3542 C 0.7266 0.76643 0.27786 0.0
C3543 C 0.73098 0.78041 0.27832 0.0
C3544 C 0.74471 0.78987 0.27877 0.0
C3545 C 0.75418 0.78547 0.27887 0.0
C3546 C 0.74992 0.77161 0.27857 0.0
C3547 C 0.73619 0.76211 0.2781 0.0
H3548 H 0.76481 0.79281 0.27922 0.0
H3549 H 0.63146 0.70097 0.27721 0.0
H3550 H 0.28536 0.94388 0.31638 0.0
H3551 H 0.26857 0.93845 0.2981 0.0
H3552 H 0.26649 0.97441 0.30844 0.0
H3553 H 0.28345 0.9801 0.32661 0.0
H3554 H 0.24307 0.93292 0.29871 0.0
H3555 H 0.26018 0.98689 0.27921 0.0
H3556 H 0.28094 0.00904 0.27782 0.0
H3557 H 0.30455 0.9891 0.27732 0.0
H3558 H 0.28392 0.96684 0.27852 0.0
H3559 H 0.19296 0.93434 0.25541 0.0
H3560 H 0.21037 0.94031 0.2733 0.0
H3561 H 0.23854 0.9437 0.24257 0.0
H3562 H 0.22113 0.93749 0.22467 0.0
H3563 H 0.24928 0.96531 0.26182 0.0
H3564 H 0.22528 0.91662 0.26038 0.0
H3565 H 0.20517 0.89391 0.26086 0.0
H3566 H 0.19677 0.90215 0.30152 0.0
H3567 H 0.21673 0.92501 0.30119 0.0
C3568 C 0.28139 0.95069 0.31476 0.0
C3569 C 0.28584 0.96248 0.32295 0.0
C3570 C 0.27174 0.94752 0.30433 0.0
C3571 C 0.26636 0.95608 0.30182 0.0
C3572 C 0.27066 0.96777 0.31005 0.0
C3573 C 0.28034 0.97098 0.32047 0.0
C3574 C 0.25622 0.9527 0.29063 0.0
C3575 C 0.24443 0.94002 0.29067 0.0
C3576 C 0.25805 0.9619 0.28004 0.0
C3577 C 0.27051 0.97521 0.2791 0.0
C3578 C 0.2698 0.98724 0.27875 0.0
C3579 C 0.28154 0.99981 0.278 0.0
C3580 C 0.29406 0.00048 0.27753 0.0
C3581 C 0.29485 0.98857 0.27774 0.0
C3582 C 0.28314 0.97597 0.27847 0.0
C3583 C 0.20287 0.93639 0.25248 0.0
C3584 C 0.20571 0.93552 0.23864 0.0
C3585 C 0.21279 0.93978 0.26269 0.0
C3586 C 0.22571 0.94243 0.25923 0.0
C3587 C 0.22864 0.94176 0.24542 0.0
C3588 C 0.2187 0.93822 0.23523 0.0
C3589 C 0.23613 0.94563 0.27004 0.0
C3590 C 0.24793 0.95826 0.26992 0.0
C3591 C 0.2344 0.93633 0.28045 0.0
C3592 C 0.22241 0.92258 0.2807 0.0
C3593 C 0.21907 0.91364 0.26937 0.0
C3594 C 0.20772 0.90073 0.26963 0.0
C3595 C 0.19968 0.89661 0.2812 0.0
C3596 C 0.203 0.90537 0.29255 0.0
C3597 C 0.21433 0.9183 0.29234 0.0
H3598 H 0.19089 0.8866 0.28138 0.0
H3599 H 0.30314 0.01022 0.27696 0.0
H3600 H 0.68824 0.98153 0.30961 0.0
H3601 H 0.69639 0.97291 0.29119 0.0
H3602 H 0.66877 0.93184 0.303 0.0
H3603 H 0.66099 0.94061 0.32186 0.0
H3604 H 0.69238 0.93424 0.29797 0.0
H3605 H 0.66315 0.94635 0.27408 0.0
H3606 H 0.65404 0.96121 0.26737 0.0
H3607 H 0.69217 0.98976 0.25088 0.0
H3608 H 0.70156 0.97516 0.25767 0.0
H3609 H 0.69707 0.90437 0.23419 0.0
H3610 H 0.6893 0.91189 0.25398 0.0
H3611 H 0.72112 0.95294 0.24843 0.0
H3612 H 0.72915 0.94559 0.22898 0.0
H3613 H 0.69493 0.94991 0.25017 0.0
H3614 H 0.72385 0.93714 0.27425 0.0
H3615 H 0.73238 0.9218 0.28091 0.0
H3616 H 0.69379 0.89361 0.29672 0.0
H3617 H 0.68496 0.90869 0.28996 0.0
C3618 C 0.68405 0.97067 0.30833 0.0
C3619 C 0.67437 0.9617 0.31734 0.0
C3620 C 0.68855 0.96574 0.29771 0.0
C3621 C 0.68313 0.95171 0.29563 0.0
C3622 C 0.67315 0.9427 0.30445 0.0
C3623 C 0.66869 0.94768 0.31516 0.0
C3624 C 0.68802 0.94651 0.28434 0.0
C3625 C 0.69274 0.9375 0.28748 0.0
C3626 C 0.68873 0.95096 0.27069 0.0
C3627 C 0.68308 0.95971 0.26648 0.0
C3628 C 0.66961 0.95584 0.2691 0.0
C3629 C 0.6644 0.96421 0.26527 0.0
C3630 C 0.67253 0.97643 0.25873 0.0
C3631 C 0.68588 0.9803 0.25596 0.0
C3632 C 0.69115 0.97197 0.25978 0.0
C3633 C 0.70244 0.915 0.23724 0.0
C3634 C 0.71348 0.92437 0.22969 0.0
C3635 C 0.69803 0.91925 0.24856 0.0
C3636 C 0.70459 0.93298 0.25257 0.0
C3637 C 0.71586 0.94231 0.24538 0.0
C3638 C 0.7204 0.93805 0.23419 0.0
C3639 C 0.69932 0.93772 0.26384 0.0
C3640 C 0.69453 0.94663 0.26067 0.0
C3641 C 0.69842 0.93308 0.27741 0.0
C3642 C 0.70369 0.92397 0.28144 0.0
C3643 C 0.71714 0.9276 0.27901 0.0
C3644 C 0.72204 0.91897 0.28283 0.0
C3645 C 0.71362 0.90672 0.28919 0.0
C3646 C 0.70029 0.90309 0.29177 0.0
C3647 C 0.69533 0.91168 0.28795 0.0
H3648 H 0.71744 0.90005 0.29215 0.0
H3649 H 0.66847 0.9829 0.25578 0.0
H3650 H 0.0332 0.7301 0.32066 0.0
H3651 H 0.03901 0.74719 0.30302 0.0
H3652 H 0.06434 0.73379 0.28394 0.0
H3653 H 0.05906 0.71713 0.30192 0.0
H3654 H 0.07658 0.75965 0.28365 0.0
H3655 H 0.03158 0.72536 0.27119 0.0
H3656 H 0.00741 0.70993 0.27468 0.0
H3657 H 0.00182 0.74401 0.28317 0.0
H3658 H 0.026 0.75964 0.2799 0.0
H3659 H 0.07938 0.78639 0.21699 0.0
H3660 H 0.07498 0.77165 0.23671 0.0
H3661 H 0.05708 0.79222 0.25772 0.0
H3662 H 0.0616 0.80713 0.23804 0.0
H3663 H 0.04124 0.7638 0.2576 0.0
H3664 H 0.08683 0.79797 0.26828 0.0
H3665 H 0.11086 0.8126 0.26345 0.0
H3666 H 0.11504 0.77741 0.2567 0.0
H3667 H 0.09098 0.76256 0.26129 0.0
C3668 C 0.03998 0.73078 0.31268 0.0
C3669 C 0.04562 0.72222 0.31265 0.0
C3670 C 0.04326 0.74052 0.30255 0.0
C3671 C 0.05195 0.74166 0.29196 0.0
C3672 C 0.05763 0.73315 0.29197 0.0
C3673 C 0.05456 0.72359 0.30225 0.0
C3674 C 0.05524 0.75177 0.28092 0.0
C3675 C 0.06881 0.76041 0.27787 0.0
C3676 C 0.04517 0.75303 0.2735 0.0
C3677 C 0.03062 0.74366 0.27544 0.0
C3678 C 0.02522 0.72955 0.2739 0.0
C3679 C 0.01151 0.72077 0.27582 0.0
C3680 C 0.00309 0.72598 0.27918 0.0
C3681 C 0.00835 0.73999 0.28059 0.0
C3682 C 0.02205 0.74881 0.27869 0.0
C3683 C 0.07465 0.78787 0.22588 0.0
C3684 C 0.07083 0.7979 0.22599 0.0
C3685 C 0.07215 0.77946 0.23713 0.0
C3686 C 0.06574 0.78088 0.24868 0.0
C3687 C 0.06203 0.79096 0.24889 0.0
C3688 C 0.06464 0.79948 0.23769 0.0
C3689 C 0.0625 0.77149 0.26033 0.0
C3690 C 0.04896 0.76302 0.26347 0.0
C3691 C 0.07257 0.77023 0.26767 0.0
C3692 C 0.08707 0.77915 0.26502 0.0
C3693 C 0.09285 0.79335 0.26566 0.0
C3694 C 0.10648 0.80169 0.26298 0.0
C3695 C 0.11447 0.79594 0.25974 0.0
C3696 C 0.10885 0.78185 0.2592 0.0
C3697 C 0.09521 0.77347 0.26186 0.0
H3698 H 0.12502 0.80241 0.25767 0.0
H3699 H 0.99249 0.71917 0.28067 0.0
H3700 H 0.29842 0.31308 0.3109 0.0
H3701 H 0.28211 0.30492 0.29178 0.0
H3702 H 0.27104 0.33522 0.30188 0.0
H3703 H 0.28694 0.34288 0.32154 0.0
H3704 H 0.2494 0.31269 0.29583 0.0
H3705 H 0.29182 0.33807 0.27411 0.0
H3706 H 0.31529 0.34473 0.2689 0.0
H3707 H 0.30258 0.30461 0.25319 0.0
H3708 H 0.27905 0.29765 0.25847 0.0
H3709 H 0.22118 0.3123 0.22903 0.0
H3710 H 0.23516 0.31844 0.25002 0.0
H3711 H 0.23689 0.28142 0.24651 0.0
H3712 H 0.22256 0.27496 0.22585 0.0
H3713 H 0.26278 0.30678 0.2492 0.0
H3714 H 0.21969 0.28235 0.27039 0.0
H3715 H 0.19649 0.27697 0.27514 0.0
H3716 H 0.21103 0.31736 0.29108 0.0
H3717 H 0.23432 0.32306 0.28623 0.0
C3718 C 0.29232 0.31781 0.30913 0.0
C3719 C 0.29348 0.32821 0.3179 0.0
C3720 C 0.28316 0.31331 0.29809 0.0
C3721 C 0.27539 0.31952 0.29529 0.0
C3722 C 0.27684 0.3302 0.30388 0.0
C3723 C 0.28593 0.33461 0.31505 0.0
C3724 C 0.26576 0.31483 0.28342 0.0
C3725 C 0.2524 0.31158 0.2856 0.0
C3726 C 0.26956 0.31313 0.27009 0.0
C3727 C 0.28369 0.31731 0.26679 0.0
C3728 C 0.29404 0.33064 0.26962 0.0
C3729 C 0.30735 0.33448 0.26665 0.0
C3730 C 0.31043 0.32509 0.26075 0.0
C3731 C 0.30019 0.31186 0.25777 0.0
C3732 C 0.28686 0.30798 0.26074 0.0
C3733 C 0.22452 0.30546 0.23275 0.0
C3734 C 0.22121 0.29342 0.22543 0.0
C3735 C 0.23244 0.30894 0.24476 0.0
C3736 C 0.23715 0.30044 0.24968 0.0
C3737 C 0.23345 0.28817 0.24275 0.0
C3738 C 0.22533 0.28455 0.23087 0.0
C3739 C 0.24654 0.30472 0.26165 0.0
C3740 C 0.25984 0.30789 0.25945 0.0
C3741 C 0.24274 0.30658 0.27487 0.0
C3742 C 0.22874 0.30317 0.2778 0.0
C3743 C 0.21794 0.29013 0.27477 0.0
C3744 C 0.20477 0.28701 0.27752 0.0
C3745 C 0.20228 0.29683 0.28337 0.0
C3746 C 0.21297 0.30977 0.28653 0.0
C3747 C 0.22615 0.31295 0.28379 0.0
H3748 H 0.19208 0.29439 0.28549 0.0
H3749 H 0.32074 0.32807 0.25845 0.0
H3750 H 0.28144 0.32361 0.38448 0.0
H3751 H 0.27393 0.33362 0.40198 0.0
H3752 H 0.30458 0.37365 0.39064 0.0
H3753 H 0.31241 0.36369 0.37314 0.0
H3754 H 0.30268 0.37162 0.41805 0.0
H3755 H 0.27221 0.36183 0.3805 0.0
H3756 H 0.25658 0.34798 0.36177 0.0
H3757 H 0.22988 0.31987 0.39105 0.0
H3758 H 0.24547 0.33341 0.40996 0.0
H3759 H 0.27093 0.40078 0.45823 0.0
H3760 H 0.27931 0.39457 0.43796 0.0
H3761 H 0.25509 0.35226 0.44759 0.0
H3762 H 0.24691 0.3584 0.46799 0.0
H3763 H 0.25431 0.35812 0.41932 0.0
H3764 H 0.28663 0.3674 0.45642 0.0
H3765 H 0.30257 0.38165 0.47477 0.0
H3766 H 0.32593 0.41183 0.44534 0.0
H3767 H 0.30999 0.39783 0.42683 0.0
C3768 C 0.28665 0.33456 0.38567 0.0
C3769 C 0.2975 0.34284 0.3773 0.0
C3770 C 0.28228 0.34027 0.39567 0.0
C3771 C 0.28851 0.3544 0.39745 0.0
C3772 C 0.29957 0.36272 0.38939 0.0
C3773 C 0.30402 0.357 0.37938 0.0
C3774 C 0.28337 0.36033 0.40776 0.0
C3775 C 0.29216 0.36888 0.41816 0.0
C3776 C 0.26961 0.35668 0.40797 0.0
C3777 C 0.26007 0.3486 0.39665 0.0
C3778 C 0.26305 0.35265 0.38295 0.0
C3779 C 0.25419 0.34485 0.37229 0.0
C3780 C 0.24225 0.33304 0.37521 0.0
C3781 C 0.23913 0.32902 0.3888 0.0
C3782 C 0.24797 0.33676 0.3995 0.0
C3783 C 0.26741 0.39017 0.45601 0.0
C3784 C 0.25845 0.38008 0.46483 0.0
C3785 C 0.27217 0.38664 0.44443 0.0
C3786 C 0.2679 0.37297 0.44137 0.0
C3787 C 0.25852 0.36287 0.4498 0.0
C3788 C 0.25389 0.36639 0.46147 0.0
C3789 C 0.27356 0.36913 0.4297 0.0
C3790 C 0.26486 0.36099 0.41905 0.0
C3791 C 0.28741 0.37327 0.42917 0.0
C3792 C 0.29703 0.38165 0.44028 0.0
C3793 C 0.2951 0.37713 0.45388 0.0
C3794 C 0.30414 0.38515 0.46431 0.0
C3795 C 0.31523 0.39766 0.46123 0.0
C3796 C 0.31732 0.40215 0.44771 0.0
C3797 C 0.30829 0.39418 0.43725 0.0
H3798 H 0.32223 0.40385 0.46932 0.0
H3799 H 0.23541 0.32701 0.36695 0.0
H3800 H 0.64104 0.94711 0.37104 0.0
H3801 H 0.63154 0.93137 0.38988 0.0
H3802 H 0.67146 0.94304 0.40512 0.0
H3803 H 0.6811 0.95858 0.38603 0.0
H3804 H 0.6561 0.91661 0.40659 0.0
H3805 H 0.65188 0.9549 0.42025 0.0
H3806 H 0.64541 0.97257 0.41785 0.0
H3807 H 0.60388 0.9419 0.41363 0.0
H3808 H 0.61011 0.92404 0.41581 0.0
H3809 H 0.63676 0.89204 0.47479 0.0
H3810 H 0.64656 0.90615 0.45468 0.0
H3811 H 0.60704 0.8897 0.436 0.0
H3812 H 0.59721 0.87539 0.456 0.0
H3813 H 0.6222 0.91836 0.43639 0.0
H3814 H 0.62715 0.88007 0.42351 0.0
H3815 H 0.63428 0.86301 0.42688 0.0
H3816 H 0.67545 0.89465 0.43093 0.0
H3817 H 0.66854 0.91193 0.42779 0.0
C3818 C 0.64783 0.94638 0.3784 0.0
C3819 C 0.66185 0.95421 0.37706 0.0
C3820 C 0.64237 0.93738 0.38921 0.0
C3821 C 0.65078 0.93617 0.39906 0.0
C3822 C 0.66477 0.94382 0.39766 0.0
C3823 C 0.67026 0.95274 0.38676 0.0
C3824 C 0.64495 0.92692 0.41081 0.0
C3825 C 0.64883 0.91712 0.41322 0.0
C3826 C 0.63527 0.92741 0.41934 0.0
C3827 C 0.63148 0.93813 0.41806 0.0
C3828 C 0.64137 0.95192 0.4187 0.0
C3829 C 0.63775 0.96197 0.4174 0.0
C3830 C 0.62425 0.95836 0.41555 0.0
C3831 C 0.61434 0.94468 0.41504 0.0
C3832 C 0.61791 0.93459 0.41632 0.0
C3833 C 0.63019 0.89134 0.46633 0.0
C3834 C 0.61622 0.88269 0.46698 0.0
C3835 C 0.63579 0.89938 0.45486 0.0
C3836 C 0.62751 0.89896 0.44388 0.0
C3837 C 0.61358 0.89019 0.4444 0.0
C3838 C 0.608 0.88203 0.45579 0.0
C3839 C 0.63333 0.90808 0.4321 0.0
C3840 C 0.62946 0.91786 0.42973 0.0
C3841 C 0.64312 0.90767 0.42374 0.0
C3842 C 0.64731 0.8973 0.42555 0.0
C3843 C 0.63771 0.8834 0.42524 0.0
C3844 C 0.64172 0.87369 0.42709 0.0
C3845 C 0.6553 0.87775 0.42916 0.0
C3846 C 0.66492 0.89153 0.42935 0.0
C3847 C 0.66097 0.90128 0.42752 0.0
H3848 H 0.65838 0.87021 0.43059 0.0
H3849 H 0.62146 0.96616 0.41455 0.0
H3850 H 0.04472 0.69004 0.37757 0.0
H3851 H 0.05969 0.69768 0.39775 0.0
H3852 H 0.0681 0.73875 0.3912 0.0
H3853 H 0.05368 0.73111 0.37039 0.0
H3854 H 0.09025 0.73946 0.39828 0.0
H3855 H 0.04601 0.7174 0.41665 0.0
H3856 H 0.02275 0.69885 0.41943 0.0
H3857 H 0.03747 0.67264 0.43329 0.0
H3858 H 0.06083 0.69099 0.43042 0.0
H3859 H 0.11118 0.76102 0.46904 0.0
H3860 H 0.09896 0.7547 0.44691 0.0
H3861 H 0.10234 0.71851 0.4451 0.0
H3862 H 0.11502 0.725 0.4669 0.0
H3863 H 0.07472 0.71558 0.44237 0.0
H3864 H 0.11947 0.73922 0.42434 0.0
H3865 H 0.1423 0.75874 0.42213 0.0
H3866 H 0.12567 0.78343 0.40862 0.0
H3867 H 0.10273 0.7641 0.41096 0.0
C3868 C 0.04999 0.70074 0.38033 0.0
C3869 C 0.04853 0.7101 0.37224 0.0
C3870 C 0.05835 0.70507 0.39199 0.0
C3871 C 0.06495 0.71879 0.39612 0.0
C3872 C 0.0632 0.72813 0.38818 0.0
C3873 C 0.05495 0.72379 0.37637 0.0
C3874 C 0.07363 0.72333 0.40873 0.0
C3875 C 0.08676 0.73436 0.40796 0.0
C3876 C 0.0692 0.71655 0.42135 0.0
C3877 C 0.05516 0.70554 0.42322 0.0
C3878 C 0.04428 0.70765 0.42022 0.0
C3879 C 0.03108 0.69718 0.42182 0.0
C3880 C 0.02863 0.68456 0.42651 0.0
C3881 C 0.03939 0.68241 0.42965 0.0
C3882 C 0.05261 0.69285 0.42806 0.0
C3883 C 0.10937 0.75175 0.46389 0.0
C3884 C 0.11363 0.74326 0.46997 0.0
C3885 C 0.10246 0.7482 0.45125 0.0
C3886 C 0.09968 0.73609 0.4445 0.0
C3887 C 0.10432 0.72783 0.45026 0.0
C3888 C 0.11146 0.73151 0.46276 0.0
C3889 C 0.09121 0.73165 0.43185 0.0
C3890 C 0.07813 0.72066 0.43266 0.0
C3891 C 0.0956 0.73863 0.41939 0.0
C3892 C 0.10938 0.75026 0.41799 0.0
C3893 C 0.12068 0.74885 0.42105 0.0
C3894 C 0.13364 0.75987 0.41973 0.0
C3895 C 0.13543 0.77233 0.41528 0.0
C3896 C 0.12427 0.77378 0.41209 0.0
C3897 C 0.11128 0.76279 0.4134 0.0
H3898 H 0.14547 0.78085 0.41426 0.0
H3899 H 0.01841 0.67646 0.42773 0.0
H3900 H 0.30699 0.02789 0.69161 0.0
H3901 H 0.29489 0.03348 0.70867 0.0
H3902 H 0.33243 0.06087 0.7293 0.0
H3903 H 0.34463 0.05552 0.71221 0.0
H3904 H 0.31114 0.04267 0.74695 0.0
H3905 H 0.31977 0.0743 0.7104 0.0
H3906 H 0.31905 0.08049 0.68633 0.0
H3907 H 0.27591 0.05747 0.6859 0.0
H3908 H 0.27639 0.05095 0.70992 0.0
H3909 H 0.29472 0.0819 0.79022 0.0
H3910 H 0.30455 0.07392 0.77296 0.0
H3911 H 0.26669 0.05421 0.75047 0.0
H3912 H 0.25692 0.06263 0.76756 0.0
H3913 H 0.28666 0.06681 0.73333 0.0
H3914 H 0.27749 0.03606 0.76997 0.0
H3915 H 0.27772 0.02907 0.79381 0.0
H3916 H 0.32085 0.04911 0.79399 0.0
H3917 H 0.32089 0.05639 0.77021 0.0
C3918 C 0.31266 0.03505 0.69981 0.0
C3919 C 0.32677 0.04129 0.70055 0.0
C3920 C 0.30574 0.03825 0.70951 0.0
C3921 C 0.3128 0.0476 0.72018 0.0
C3922 C 0.32683 0.05362 0.72112 0.0
C3923 C 0.33378 0.0506 0.71132 0.0
C3924 C 0.3056 0.05134 0.73025 0.0
C3925 C 0.30588 0.04805 0.74404 0.0
C3926 C 0.29843 0.05799 0.72629 0.0
C3927 C 0.29812 0.06201 0.7119 0.0
C3928 C 0.31013 0.07045 0.70513 0.0
C3929 C 0.30977 0.07404 0.69151 0.0
C3930 C 0.29744 0.06934 0.68458 0.0
C3931 C 0.28545 0.06108 0.69128 0.0
C3932 C 0.28577 0.05744 0.7049 0.0
C3933 C 0.28853 0.07599 0.78152 0.0
C3934 C 0.27513 0.07313 0.78007 0.0
C3935 C 0.29411 0.07131 0.77173 0.0
C3936 C 0.28632 0.06334 0.76048 0.0
C3937 C 0.2729 0.06037 0.75905 0.0
C3938 C 0.26733 0.06516 0.76879 0.0
C3939 C 0.29229 0.05829 0.75016 0.0
C3940 C 0.2918 0.06132 0.7363 0.0
C3941 C 0.29917 0.05128 0.75403 0.0
C3942 C 0.29919 0.04687 0.76833 0.0
C3943 C 0.28703 0.03906 0.77512 0.0
C3944 C 0.28711 0.03503 0.78863 0.0
C3945 C 0.2993 0.03867 0.79542 0.0
C3946 C 0.31142 0.04631 0.78872 0.0
C3947 C 0.3114 0.05038 0.77522 0.0
H3948 H 0.29934 0.03554 0.80588 0.0
H3949 H 0.29718 0.07213 0.67403 0.0
H3950 H 0.94223 0.27827 0.6929 0.0
H3951 H 0.93188 0.26105 0.71066 0.0
H3952 H 0.97122 0.26955 0.72484 0.0
H3953 H 0.98157 0.28714 0.70746 0.0
H3954 H 0.94973 0.24007 0.72036 0.0
H3955 H 0.95908 0.28234 0.74288 0.0
H3956 H 0.95774 0.30334 0.74473 0.0
H3957 H 0.91463 0.27994 0.74445 0.0
H3958 H 0.91572 0.25879 0.74239 0.0
H3959 H 0.93582 0.20712 0.78421 0.0
H3960 H 0.94507 0.22291 0.76526 0.0
H3961 H 0.90821 0.2245 0.76186 0.0
H3962 H 0.89927 0.20939 0.78128 0.0
H3963 H 0.92765 0.2484 0.75973 0.0
H3964 H 0.9175 0.2062 0.73854 0.0
H3965 H 0.91777 0.18475 0.73525 0.0
H3966 H 0.96065 0.20686 0.73122 0.0
H3967 H 0.96068 0.22844 0.73469 0.0
C3968 C 0.94861 0.27633 0.69975 0.0
C3969 C 0.96263 0.28356 0.69854 0.0
C3970 C 0.94272 0.26655 0.70985 0.0
C3971 C 0.95081 0.26399 0.71892 0.0
C3972 C 0.96483 0.27129 0.71779 0.0
C3973 C 0.97071 0.2812 0.70783 0.0
C3974 C 0.94466 0.25403 0.72992 0.0
C3975 C 0.94506 0.24191 0.72909 0.0
C3976 C 0.93814 0.25631 0.74096 0.0
C3977 C 0.93748 0.269 0.74232 0.0
C3978 C 0.94932 0.28168 0.74308 0.0
C3979 C 0.9486 0.29361 0.7442 0.0
C3980 C 0.9361 0.29298 0.74467 0.0
C3981 C 0.9243 0.28041 0.74407 0.0
C3982 C 0.92496 0.26845 0.74293 0.0
C3983 C 0.92967 0.21078 0.77933 0.0
C3984 C 0.91671 0.20674 0.78405 0.0
C3985 C 0.93493 0.21973 0.76845 0.0
C3986 C 0.92723 0.22467 0.76188 0.0
C3987 C 0.91432 0.22076 0.76667 0.0
C3988 C 0.90916 0.21201 0.77772 0.0
C3989 C 0.93282 0.23431 0.75037 0.0
C3990 C 0.9323 0.24643 0.75105 0.0
C3991 C 0.93908 0.23192 0.73906 0.0
C3992 C 0.9391 0.21893 0.73705 0.0
C3993 C 0.92701 0.20648 0.73709 0.0
C3994 C 0.9271 0.1943 0.73516 0.0
C3995 C 0.93922 0.19444 0.73308 0.0
C3996 C 0.95127 0.20676 0.73287 0.0
C3997 C 0.95124 0.21897 0.73482 0.0
H3998 H 0.93927 0.18499 0.73158 0.0
H3999 H 0.93557 0.30222 0.74553 0.0
H4000 H 0.69414 0.67717 0.7103 0.0
H4001 H 0.70873 0.6841 0.73058 0.0
H4002 H 0.73936 0.6818 0.70703 0.0
H4003 H 0.72315 0.67138 0.68815 0.0
H4004 H 0.74288 0.67555 0.72794 0.0
H4005 H 0.73639 0.71609 0.72292 0.0
H4006 H 0.72282 0.72768 0.72225 0.0
H4007 H 0.70409 0.70873 0.75973 0.0
H4008 H 0.71762 0.69725 0.76072 0.0
H4009 H 0.79885 0.7256 0.7685 0.0
H4010 H 0.78107 0.7143 0.75091 0.0
H4011 H 0.75181 0.69532 0.78242 0.0
H4012 H 0.76959 0.7061 0.80009 0.0
H4013 H 0.74641 0.71088 0.76064 0.0
H4014 H 0.75701 0.67531 0.76749 0.0
H4015 H 0.77221 0.66578 0.76937 0.0
H4016 H 0.78475 0.6773 0.728 0.0
H4017 H 0.76977 0.6871 0.72595 0.0
C4018 C 0.70409 0.67832 0.70953 0.0
C4019 C 0.70795 0.67465 0.69737 0.0
C4020 C 0.71265 0.68261 0.72111 0.0
C4021 C 0.72572 0.68438 0.7205 0.0
C4022 C 0.72948 0.68072 0.70812 0.0
C4023 C 0.72041 0.67522 0.69701 0.0
C4024 C 0.73522 0.68915 0.73275 0.0
C4025 C 0.74377 0.68359 0.73471 0.0
C4026 C 0.7361 0.699 0.74253 0.0
C4027 C 0.72782 0.70568 0.74172 0.0
C4028 C 0.72926 0.71433 0.73089 0.0
C4029 C 0.72163 0.72089 0.73049 0.0
C4030 C 0.71251 0.71881 0.74082 0.0
C4031 C 0.7111 0.71028 0.75169 0.0
C4032 C 0.71878 0.7038 0.75221 0.0
C4033 C 0.78864 0.71898 0.77169 0.0
C4034 C 0.78558 0.71706 0.78571 0.0
C4035 C 0.77852 0.71252 0.76164 0.0
C4036 C 0.76516 0.70409 0.76542 0.0
C4037 C 0.76207 0.7019 0.77935 0.0
C4038 C 0.77223 0.70813 0.78941 0.0
C4039 C 0.75438 0.69802 0.75478 0.0
C4040 C 0.74554 0.70313 0.75342 0.0
C4041 C 0.75341 0.68802 0.74543 0.0
C4042 C 0.76236 0.68206 0.74662 0.0
C4043 C 0.7631 0.67593 0.75884 0.0
C4044 C 0.77166 0.67045 0.75993 0.0
C4045 C 0.77947 0.67096 0.74882 0.0
C4046 C 0.77871 0.67693 0.7366 0.0
C4047 C 0.77018 0.68243 0.73546 0.0
H4048 H 0.78609 0.66672 0.74968 0.0
H4049 H 0.70661 0.72388 0.74046 0.0
H4050 H 0.7115 0.67437 0.62719 0.0
H4051 H 0.71923 0.66449 0.60967 0.0
H4052 H 0.69863 0.62574 0.62937 0.0
H4053 H 0.69071 0.63555 0.64701 0.0
H4054 H 0.7257 0.63418 0.62298 0.0
H4055 H 0.68585 0.62879 0.60062 0.0
H4056 H 0.66999 0.63605 0.59223 0.0
H4057 H 0.7004 0.66538 0.56648 0.0
H4058 H 0.71651 0.65844 0.57487 0.0
H4059 H 0.7382 0.5998 0.56837 0.0
H4060 H 0.72745 0.60657 0.58591 0.0
H4061 H 0.74228 0.64542 0.56675 0.0
H4062 H 0.75284 0.63859 0.54907 0.0
H4063 H 0.71655 0.63513 0.57319 0.0
H4064 H 0.75679 0.64203 0.59641 0.0
H4065 H 0.77327 0.6357 0.60507 0.0
H4066 H 0.74288 0.60452 0.62936 0.0
H4067 H 0.72616 0.61054 0.62069 0.0
C4068 C 0.70851 0.66371 0.62778 0.0
C4069 C 0.70047 0.65574 0.63851 0.0
C4070 C 0.71291 0.65808 0.61772 0.0
C4071 C 0.70945 0.64438 0.61819 0.0
C4072 C 0.70138 0.63633 0.62882 0.0
C4073 C 0.69682 0.64193 0.63884 0.0
C4074 C 0.7147 0.6387 0.60778 0.0
C4075 C 0.72351 0.63412 0.6121 0.0
C4076 C 0.7121 0.63899 0.59359 0.0
C4077 C 0.70242 0.64317 0.58847 0.0
C4078 C 0.68919 0.63687 0.59326 0.0
C4079 C 0.68015 0.64091 0.58848 0.0
C4080 C 0.68419 0.65119 0.57885 0.0
C4081 C 0.69728 0.65742 0.57395 0.0
C4082 C 0.70637 0.65343 0.5787 0.0
C4083 C 0.73928 0.60984 0.56801 0.0
C4084 C 0.74662 0.61879 0.55754 0.0
C4085 C 0.73314 0.6137 0.57803 0.0
C4086 C 0.73421 0.62658 0.57776 0.0
C4087 C 0.74137 0.63546 0.5672 0.0
C4088 C 0.74749 0.6316 0.55718 0.0
C4089 C 0.7277 0.63074 0.58836 0.0
C4090 C 0.71866 0.63505 0.58406 0.0
C4091 C 0.73017 0.6303 0.60258 0.0
C4092 C 0.74019 0.62663 0.60778 0.0
C4093 C 0.75359 0.63374 0.6035 0.0
C4094 C 0.76298 0.63022 0.60843 0.0
C4095 C 0.75911 0.61968 0.61772 0.0
C4096 C 0.74585 0.61266 0.62214 0.0
C4097 C 0.73642 0.61613 0.61723 0.0
H4098 H 0.7664 0.61698 0.62153 0.0
H4099 H 0.67717 0.6543 0.57516 0.0
H4100 H 0.3621 0.04833 0.63876 0.0
H4101 H 0.36799 0.06489 0.6207 0.0
H4102 H 0.32833 0.06055 0.62279 0.0
H4103 H 0.32375 0.04626 0.64274 0.0
H4104 H 0.36175 0.06392 0.59779 0.0
H4105 H 0.32268 0.0791 0.60678 0.0
H4106 H 0.31153 0.08494 0.62502 0.0
H4107 H 0.34785 0.10226 0.64963 0.0
H4108 H 0.35907 0.09633 0.63145 0.0
H4109 H 0.36959 0.10516 0.53264 0.0
H4110 H 0.36085 0.08542 0.55414 0.0
H4111 H 0.37224 0.12159 0.5901 0.0
H4112 H 0.38119 0.1423 0.5695 0.0
H4113 H 0.34972 0.10025 0.59511 0.0
H4114 H 0.38928 0.09991 0.58031 0.0
H4115 H 0.40437 0.09772 0.56395 0.0
H4116 H 0.37391 0.05678 0.55422 0.0
H4117 H 0.35858 0.05878 0.57042 0.0
C4118 C 0.35511 0.05179 0.63603 0.0
C4119 C 0.34299 0.04695 0.64291 0.0
C4120 C 0.35823 0.0609 0.6253 0.0
C4121 C 0.3488 0.06453 0.62038 0.0
C4122 C 0.33624 0.05886 0.62674 0.0
C4123 C 0.33349 0.05042 0.63805 0.0
C4124 C 0.35196 0.07349 0.60816 0.0
C4125 C 0.35914 0.07189 0.59736 0.0
C4126 C 0.34843 0.08384 0.60712 0.0
C4127 C 0.34156 0.08693 0.61809 0.0
C4128 C 0.3282 0.08402 0.61617 0.0
C4129 C 0.32187 0.08733 0.62646 0.0
C4130 C 0.32892 0.09379 0.63858 0.0
C4131 C 0.34232 0.09701 0.64038 0.0
C4132 C 0.34863 0.09359 0.63016 0.0
C4133 C 0.37078 0.1083 0.54332 0.0
C4134 C 0.37407 0.1255 0.54868 0.0
C4135 C 0.36478 0.09601 0.55676 0.0
C4136 C 0.3649 0.1012 0.57439 0.0
C4137 C 0.37177 0.11882 0.57938 0.0
C4138 C 0.37798 0.13186 0.56675 0.0
C4139 C 0.36012 0.09109 0.5854 0.0
C4140 C 0.35239 0.09232 0.59572 0.0
C4141 C 0.36359 0.08076 0.58625 0.0
C4142 C 0.37272 0.07956 0.57642 0.0
C4143 C 0.38576 0.09048 0.57459 0.0
C4144 C 0.39436 0.08927 0.56537 0.0
C4145 C 0.39008 0.07714 0.55801 0.0
C4146 C 0.3772 0.06618 0.55989 0.0
C4147 C 0.36855 0.06735 0.5691 0.0
H4148 H 0.39676 0.07622 0.55087 0.0
H4149 H 0.32403 0.09641 0.64651 0.0
H4150 H 0.94977 0.30598 0.64538 0.0
H4151 H 0.93294 0.29914 0.62683 0.0
H4152 H 0.942 0.26818 0.61369 0.0
H4153 H 0.95887 0.27493 0.63216 0.0
H4154 H 0.93955 0.28257 0.592 0.0
H4155 H 0.91496 0.25956 0.63214 0.0
H4156 H 0.9078 0.25833 0.65607 0.0
H4157 H 0.89132 0.28419 0.64667 0.0
H4158 H 0.89858 0.28574 0.62272 0.0
H4159 H 0.88308 0.24181 0.54943 0.0
H4160 H 0.90042 0.25027 0.56756 0.0
H4161 H 0.88676 0.27737 0.58208 0.0
H4162 H 0.86904 0.26855 0.5642 0.0
H4163 H 0.8918 0.266 0.60309 0.0
H4164 H 0.91552 0.28869 0.56301 0.0
H4165 H 0.92292 0.29061 0.53911 0.0
H4166 H 0.94134 0.26643 0.5482 0.0
H4167 H 0.93388 0.2642 0.57213 0.0
C4168 C 0.94826 0.29777 0.63851 0.0
C4169 C 0.95566 0.29098 0.64032 0.0
C4170 C 0.9386 0.29384 0.62794 0.0
C4171 C 0.93615 0.28308 0.61898 0.0
C4172 C 0.94373 0.27651 0.62052 0.0
C4173 C 0.95335 0.28037 0.63112 0.0
C4174 C 0.92549 0.27845 0.60815 0.0
C4175 C 0.92909 0.27881 0.5944 0.0
C4176 C 0.91191 0.27391 0.61131 0.0
C4177 C 0.90743 0.27288 0.62567 0.0
C4178 C 0.9099 0.26507 0.6352 0.0
C4179 C 0.90581 0.2643 0.64876 0.0
C4180 C 0.89914 0.27121 0.65289 0.0
C4181 C 0.89651 0.27886 0.64346 0.0
C4182 C 0.9006 0.27969 0.62989 0.0
C4183 C 0.88365 0.24943 0.55661 0.0
C4184 C 0.8745 0.2543 0.5556 0.0
C4185 C 0.89367 0.25438 0.56687 0.0
C4186 C 0.89499 0.26456 0.57611 0.0
C4187 C 0.88591 0.26948 0.5751 0.0
C4188 C 0.8758 0.26444 0.56491 0.0
C4189 C 0.90581 0.27001 0.58687 0.0
C4190 C 0.90226 0.26982 0.60062 0.0
C4191 C 0.91946 0.27481 0.5837 0.0
C4192 C 0.92403 0.27618 0.56934 0.0
C4193 C 0.92106 0.2837 0.55989 0.0
C4194 C 0.92528 0.28485 0.54634 0.0
C4195 C 0.93257 0.27862 0.54213 0.0
C4196 C 0.93568 0.27124 0.55148 0.0
C4197 C 0.93147 0.27004 0.56504 0.0
H4198 H 0.93583 0.27952 0.53164 0.0
H4199 H 0.89598 0.2706 0.6634 0.0
H4200 H 0.35443 0.31762 0.63943 0.0
H4201 H 0.36145 0.30791 0.62087 0.0
H4202 H 0.33657 0.26785 0.63677 0.0
H4203 H 0.32934 0.2776 0.65529 0.0
H4204 H 0.36427 0.27511 0.63025 0.0
H4205 H 0.32527 0.27388 0.61002 0.0
H4206 H 0.31073 0.28341 0.60362 0.0
H4207 H 0.34211 0.31329 0.57914 0.0
H4208 H 0.35692 0.30407 0.58556 0.0
H4209 H 0.37923 0.24631 0.57295 0.0
H4210 H 0.36752 0.25088 0.59107 0.0
H4211 H 0.37839 0.28962 0.57333 0.0
H4212 H 0.38923 0.28472 0.55466 0.0
H4213 H 0.35487 0.2799 0.58139 0.0
H4214 H 0.39508 0.28481 0.60297 0.0
H4215 H 0.41161 0.27805 0.61033 0.0
H4216 H 0.38127 0.24519 0.63308 0.0
H4217 H 0.3645 0.25166 0.6257 0.0
C4218 C 0.35054 0.30676 0.63897 0.0
C4219 C 0.34166 0.29833 0.64888 0.0
C4220 C 0.35446 0.30123 0.62835 0.0
C4221 C 0.34949 0.28718 0.62748 0.0
C4222 C 0.34051 0.27872 0.63733 0.0
C4223 C 0.33641 0.28426 0.64785 0.0
C4224 C 0.35388 0.2815 0.61627 0.0
C4225 C 0.36213 0.27599 0.61956 0.0
C4226 C 0.35118 0.28286 0.60236 0.0
C4227 C 0.34224 0.28834 0.59835 0.0
C4228 C 0.32911 0.28255 0.60335 0.0
C4229 C 0.32081 0.28788 0.59971 0.0
C4230 C 0.3255 0.29896 0.591 0.0
C4231 C 0.33849 0.30471 0.58589 0.0
C4232 C 0.34683 0.29942 0.58951 0.0
C4233 C 0.37924 0.25586 0.57289 0.0
C4234 C 0.38581 0.26544 0.56258 0.0
C4235 C 0.37254 0.25848 0.58335 0.0
C4236 C 0.3724 0.27079 0.58387 0.0
C4237 C 0.37847 0.2801 0.57331 0.0
C4238 C 0.38488 0.27736 0.5627 0.0
C4239 C 0.36591 0.27406 0.5953 0.0
C4240 C 0.35712 0.27901 0.59206 0.0
C4241 C 0.36848 0.2726 0.60929 0.0
C4242 C 0.3785 0.26859 0.61361 0.0
C4243 C 0.3919 0.27606 0.60943 0.0
C4244 C 0.40132 0.2723 0.61363 0.0
C4245 C 0.39748 0.26117 0.62212 0.0
C4246 C 0.38422 0.25379 0.62646 0.0
C4247 C 0.37476 0.2575 0.62228 0.0
H4248 H 0.40479 0.25828 0.62537 0.0
H4249 H 0.31906 0.30308 0.58819 0.0
H4250 H 0.70062 0.05742 0.64004 0.0
H4251 H 0.70633 0.07262 0.62066 0.0
H4252 H 0.73204 0.05796 0.60519 0.0
H4253 H 0.72674 0.04303 0.62484 0.0
H4254 H 0.74391 0.08419 0.60255 0.0
H4255 H 0.69991 0.04751 0.5912 0.0
H4256 H 0.67591 0.03144 0.59479 0.0
H4257 H 0.66798 0.0646 0.59835 0.0
H4258 H 0.69198 0.08089 0.59496 0.0
H4259 H 0.74638 0.10631 0.53349 0.0
H4260 H 0.7426 0.09296 0.55425 0.0
H4261 H 0.72225 0.11253 0.57232 0.0
H4262 H 0.72616 0.12603 0.55161 0.0
H4263 H 0.70784 0.0842 0.57365 0.0
H4264 H 0.7524 0.12076 0.58402 0.0
H4265 H 0.77634 0.13618 0.57947 0.0
H4266 H 0.78308 0.10221 0.57655 0.0
H4267 H 0.75912 0.08655 0.58089 0.0
C4268 C 0.70747 0.05739 0.63251 0.0
C4269 C 0.71314 0.04891 0.63396 0.0
C4270 C 0.7107 0.06607 0.62139 0.0
C4271 C 0.71944 0.06628 0.61131 0.0
C4272 C 0.72525 0.05797 0.61282 0.0
C4273 C 0.72217 0.0494 0.62404 0.0
C4274 C 0.7225 0.07517 0.59921 0.0
C4275 C 0.73601 0.08405 0.59614 0.0
C4276 C 0.71222 0.0752 0.59095 0.0
C4277 C 0.69777 0.06543 0.59296 0.0
C4278 C 0.69307 0.05138 0.59285 0.0
C4279 C 0.67946 0.04223 0.59483 0.0
C4280 C 0.67044 0.04699 0.59683 0.0
C4281 C 0.67499 0.06092 0.59682 0.0
C4282 C 0.68859 0.07012 0.59485 0.0
C4283 C 0.74124 0.10787 0.54195 0.0
C4284 C 0.73654 0.11718 0.54094 0.0
C4285 C 0.7391 0.10026 0.5538 0.0
C4286 C 0.73217 0.10179 0.56482 0.0
C4287 C 0.72761 0.1112 0.56391 0.0
C4288 C 0.72986 0.11891 0.55212 0.0
C4289 C 0.7292 0.09317 0.57705 0.0
C4290 C 0.71572 0.08433 0.58011 0.0
C4291 C 0.7395 0.09307 0.58518 0.0
C4292 C 0.75393 0.10247 0.58265 0.0
C4293 C 0.75896 0.11656 0.5823 0.0
C4294 C 0.77254 0.12535 0.57977 0.0
C4295 C 0.78122 0.12018 0.57769 0.0
C4296 C 0.77634 0.1062 0.57816 0.0
C4297 C 0.76276 0.09737 0.58066 0.0
H4298 H 0.79173 0.12699 0.57573 0.0
H4299 H 0.65991 0.03989 0.59836 0.0
H4300 H 0.9386 0.66797 0.65726 0.0
H4301 H 0.92223 0.65868 0.63818 0.0
H4302 H 0.93795 0.63238 0.62692 0.0
H4303 H 0.95341 0.64083 0.64669 0.0
H4304 H 0.92888 0.66286 0.6137 0.0
H4305 H 0.92566 0.61369 0.61112 0.0
H4306 H 0.91759 0.59063 0.61984 0.0
H4307 H 0.88304 0.5906 0.63644 0.0
H4308 H 0.8914 0.61401 0.62856 0.0
H4309 H 0.9064 0.64205 0.54452 0.0
H4310 H 0.91793 0.64819 0.56695 0.0
H4311 H 0.88113 0.61942 0.58614 0.0
H4312 H 0.86986 0.61267 0.56376 0.0
H4313 H 0.8999 0.61613 0.59555 0.0
H4314 H 0.89563 0.65569 0.58892 0.0
H4315 H 0.89807 0.6757 0.57666 0.0
H4316 H 0.94097 0.69287 0.57725 0.0
H4317 H 0.93878 0.67288 0.58937 0.0
C4318 C 0.93812 0.6598 0.65099 0.0
C4319 C 0.94705 0.65493 0.65352 0.0
C4320 C 0.9288 0.6545 0.64006 0.0
C4321 C 0.92861 0.64462 0.63105 0.0
C4322 C 0.93734 0.63949 0.63389 0.0
C4323 C 0.94635 0.64448 0.64512 0.0
C4324 C 0.92102 0.64157 0.61768 0.0
C4325 C 0.92246 0.65259 0.60984 0.0
C4326 C 0.91265 0.62826 0.61237 0.0
C4327 C 0.90949 0.61582 0.61986 0.0
C4328 C 0.91668 0.609 0.6172 0.0
C4329 C 0.91199 0.59582 0.62187 0.0
C4330 C 0.89984 0.58917 0.62875 0.0
C4331 C 0.8925 0.59579 0.63119 0.0
C4332 C 0.89737 0.60913 0.62692 0.0
C4333 C 0.90076 0.63717 0.55357 0.0
C4334 C 0.88721 0.62697 0.55232 0.0
C4335 C 0.90733 0.64074 0.5664 0.0
C4336 C 0.90038 0.6344 0.57831 0.0
C4337 C 0.88673 0.62447 0.57712 0.0
C4338 C 0.88025 0.62068 0.56428 0.0
C4339 C 0.90747 0.63734 0.59189 0.0
C4340 C 0.90614 0.62638 0.59958 0.0
C4341 C 0.91567 0.65067 0.59717 0.0
C4342 C 0.91703 0.66273 0.58995 0.0
C4343 C 0.90558 0.66369 0.58636 0.0
C4344 C 0.90692 0.67504 0.57945 0.0
C4345 C 0.91967 0.68554 0.57615 0.0
C4346 C 0.9311 0.68473 0.5798 0.0
C4347 C 0.92982 0.6734 0.5867 0.0
H4348 H 0.92068 0.69431 0.5708 0.0
H4349 H 0.8961 0.57889 0.63217 0.0
H4350 H 0.96197 0.69708 0.69712 0.0
H4351 H 0.95508 0.7084 0.71409 0.0
H4352 H 0.94428 0.67515 0.7417 0.0
H4353 H 0.95044 0.66356 0.72453 0.0
H4354 H 0.92586 0.68132 0.74216 0.0
H4355 H 0.97439 0.7081 0.74499 0.0
H4356 H 0.99709 0.72243 0.73593 0.0
H4357 H 0.98598 0.75171 0.72288 0.0
H4358 H 0.96317 0.73747 0.73173 0.0
H4359 H 0.92542 0.71094 0.80618 0.0
H4360 H 0.93063 0.70102 0.78643 0.0
H4361 H 0.93444 0.73381 0.76126 0.0
H4362 H 0.92937 0.74386 0.78109 0.0
H4363 H 0.95525 0.72894 0.75792 0.0
H4364 H 0.90711 0.70249 0.75751 0.0
H4365 H 0.8849 0.68811 0.76755 0.0
H4366 H 0.89592 0.65794 0.77706 0.0
H4367 H 0.91827 0.67222 0.76726 0.0
C4368 C 0.95819 0.69226 0.70685 0.0
C4369 C 0.95674 0.67945 0.70952 0.0
C4370 C 0.9543 0.69875 0.71657 0.0
C4371 C 0.94929 0.69273 0.72929 0.0
C4372 C 0.94803 0.68 0.73197 0.0
C4373 C 0.9516 0.67339 0.72216 0.0
C4374 C 0.94504 0.69939 0.73979 0.0
C4375 C 0.93238 0.69169 0.74569 0.0
C4376 C 0.95332 0.71307 0.74415 0.0
C4377 C 0.96704 0.72165 0.73889 0.0
C4378 C 0.97677 0.71755 0.74011 0.0
C4379 C 0.98965 0.72567 0.73503 0.0
C4380 C 0.99296 0.73795 0.7288 0.0
C4381 C 0.9834 0.74218 0.72769 0.0
C4382 C 0.9705 0.7341 0.73274 0.0
C4383 C 0.92718 0.71592 0.79638 0.0
C4384 C 0.92675 0.72803 0.7951 0.0
C4385 C 0.93014 0.71025 0.78511 0.0
C4386 C 0.93275 0.71659 0.77232 0.0
C4387 C 0.93239 0.72872 0.77101 0.0
C4388 C 0.9294 0.73439 0.78229 0.0
C4389 C 0.93628 0.71072 0.76048 0.0
C4390 C 0.94874 0.71859 0.7543 0.0
C4391 C 0.9279 0.69715 0.75597 0.0
C4392 C 0.9144 0.68847 0.76173 0.0
C4393 C 0.90483 0.69283 0.76182 0.0
C4394 C 0.89221 0.68469 0.76746 0.0
C4395 C 0.88901 0.67213 0.77296 0.0
C4396 C 0.89841 0.66767 0.7728 0.0
C4397 C 0.91105 0.67577 0.76719 0.0
H4398 H 0.87923 0.66585 0.77733 0.0
H4399 H 0.00294 0.74422 0.72487 0.0
H4400 H 0.34529 0.30374 0.72301 0.0
H4401 H 0.33513 0.28743 0.7415 0.0
H4402 H 0.30347 0.26012 0.71344 0.0
H4403 H 0.31307 0.27682 0.69537 0.0
H4404 H 0.29271 0.25986 0.73551 0.0
H4405 H 0.33223 0.25651 0.72543 0.0
H4406 H 0.35652 0.26534 0.72255 0.0
H4407 H 0.36416 0.2795 0.76449 0.0
H4408 H 0.33993 0.27091 0.76756 0.0
H4409 H 0.2657 0.20117 0.77549 0.0
H4410 H 0.27809 0.21714 0.75742 0.0
H4411 H 0.30556 0.24554 0.78788 0.0
H4412 H 0.29344 0.22938 0.80595 0.0
H4413 H 0.31877 0.24544 0.76528 0.0
H4414 H 0.27887 0.2482 0.77498 0.0
H4415 H 0.25447 0.23884 0.7776 0.0
H4416 H 0.24753 0.22502 0.73556 0.0
H4417 H 0.27188 0.23414 0.73275 0.0
C4418 C 0.33616 0.29424 0.72088 0.0
C4419 C 0.3299 0.29151 0.70784 0.0
C4420 C 0.33041 0.28486 0.73139 0.0
C4421 C 0.31862 0.27237 0.72887 0.0
C4422 C 0.31251 0.26966 0.71573 0.0
C4423 C 0.318 0.27919 0.70539 0.0
C4424 C 0.31231 0.26223 0.7399 0.0
C4425 C 0.29843 0.25658 0.74184 0.0
C4426 C 0.31974 0.25815 0.74849 0.0
C4427 C 0.33428 0.26317 0.74669 0.0
C4428 C 0.3391 0.26157 0.73401 0.0
C4429 C 0.35286 0.26652 0.73235 0.0
C4430 C 0.36188 0.273 0.74332 0.0
C4431 C 0.35716 0.27449 0.75599 0.0
C4432 C 0.34342 0.26957 0.75771 0.0
C4433 C 0.27456 0.21068 0.7783 0.0
C4434 C 0.27874 0.21396 0.79212 0.0
C4435 C 0.28156 0.21985 0.76798 0.0
C4436 C 0.29265 0.23261 0.77132 0.0
C4437 C 0.29706 0.23575 0.78506 0.0
C4438 C 0.29014 0.22653 0.79537 0.0
C4439 C 0.29922 0.24296 0.7606 0.0
C4440 C 0.31311 0.2487 0.75882 0.0
C4441 C 0.2918 0.24704 0.75205 0.0
C4442 C 0.27718 0.24176 0.75369 0.0
C4443 C 0.27213 0.24311 0.76632 0.0
C4444 C 0.25832 0.23785 0.76784 0.0
C4445 C 0.24945 0.23132 0.75676 0.0
C4446 C 0.2544 0.23007 0.74413 0.0
C4447 C 0.26821 0.23529 0.74257 0.0
H4448 H 0.23876 0.22725 0.75796 0.0
H4449 H 0.37253 0.27684 0.74201 0.0
H4450 H 0.71321 0.02339 0.70282 0.0
H4451 H 0.72965 0.03203 0.72193 0.0
H4452 H 0.74634 0.07259 0.70646 0.0
H4453 H 0.72957 0.06396 0.68742 0.0
H4454 H 0.76469 0.05874 0.71508 0.0
H4455 H 0.73324 0.07301 0.72992 0.0
H4456 H 0.71035 0.0691 0.73381 0.0
H4457 H 0.70289 0.03661 0.76099 0.0
H4458 H 0.72568 0.0402 0.75708 0.0
H4459 H 0.80715 0.08187 0.77435 0.0
H4460 H 0.79316 0.0808 0.75475 0.0
H4461 H 0.75843 0.04828 0.77365 0.0
H4462 H 0.77214 0.05011 0.79376 0.0
H4463 H 0.75039 0.06223 0.762 0.0
H4464 H 0.77819 0.04419 0.74676 0.0
H4465 H 0.79917 0.0439 0.74205 0.0
H4466 H 0.81147 0.07767 0.71521 0.0
H4467 H 0.79064 0.07827 0.7199 0.0
C4468 C 0.72047 0.03413 0.70346 0.0
C4469 C 0.72043 0.04301 0.69355 0.0
C4470 C 0.72977 0.03905 0.71438 0.0
C4471 C 0.73916 0.05292 0.71554 0.0
C4472 C 0.73915 0.06185 0.70566 0.0
C4473 C 0.72964 0.05694 0.69485 0.0
C4474 C 0.74883 0.05788 0.72725 0.0
C4475 C 0.76171 0.05971 0.72533 0.0
C4476 C 0.74473 0.05885 0.74059 0.0
C4477 C 0.73111 0.0568 0.74311 0.0
C4478 C 0.72667 0.06496 0.73663 0.0
C4479 C 0.71373 0.06281 0.73885 0.0
C4480 C 0.70516 0.05259 0.74761 0.0
C4481 C 0.70954 0.04452 0.7542 0.0
C4482 C 0.72247 0.04662 0.75199 0.0
C4483 C 0.79652 0.07455 0.77442 0.0
C4484 C 0.79082 0.06582 0.78557 0.0
C4485 C 0.78852 0.07387 0.7631 0.0
C4486 C 0.77476 0.06419 0.76246 0.0
C4487 C 0.76901 0.0558 0.77377 0.0
C4488 C 0.7769 0.05675 0.78523 0.0
C4489 C 0.76628 0.06256 0.75003 0.0
C4490 C 0.75356 0.06137 0.75178 0.0
C4491 C 0.77036 0.06164 0.73655 0.0
C4492 C 0.78297 0.06142 0.73386 0.0
C4493 C 0.78544 0.05164 0.73997 0.0
C4494 C 0.79729 0.0514 0.73728 0.0
C4495 C 0.80667 0.0608 0.72839 0.0
C4496 C 0.80421 0.07043 0.72213 0.0
C4497 C 0.79239 0.07073 0.72481 0.0
H4498 H 0.81583 0.06059 0.72631 0.0
H4499 H 0.69514 0.05094 0.74932 0.0
H4500 H 0.05019 0.35399 0.03243 0.0
H4501 H 0.06026 0.34358 0.04662 0.0
H4502 H 0.02947 0.30385 0.03263 0.0
H4503 H 0.019 0.31421 0.0189 0.0
H4504 H 0.03243 0.3031 0.05841 0.0
H4505 H 0.06354 0.31967 0.02191 0.0
H4506 H 0.07923 0.3364 0.00572 0.0
H4507 H 0.10457 0.36069 0.03939 0.0
H4508 H 0.08894 0.3442 0.0558 0.0
H4509 H 0.06419 0.26227 0.08808 0.0
H4510 H 0.05246 0.27441 0.07069 0.0
H4511 H 0.08462 0.32078 0.08954 0.0
H4512 H 0.09719 0.30989 0.10759 0.0
H4513 H 0.08122 0.31832 0.05973 0.0
H4514 H 0.04936 0.30096 0.09588 0.0
H4515 H 0.0336 0.28354 0.11149 0.0
H4516 H 0.00957 0.25958 0.07699 0.0
H4517 H 0.02529 0.27677 0.06115 0.0
C4518 C 0.04563 0.34304 0.03227 0.0
C4519 C 0.03379 0.33492 0.02454 0.0
C4520 C 0.05145 0.33709 0.04035 0.0
C4521 C 0.04576 0.32291 0.04058 0.0
C4522 C 0.03405 0.3148 0.03266 0.0
C4523 C 0.02809 0.32074 0.02479 0.0
C4524 C 0.05161 0.3165 0.04957 0.0
C4525 C 0.04306 0.30626 0.05845 0.0
C4526 C 0.06555 0.32081 0.04993 0.0
C4527 C 0.075 0.33075 0.04009 0.0
C4528 C 0.07241 0.32863 0.02587 0.0
C4529 C 0.0813 0.33806 0.01665 0.0
C4530 C 0.09287 0.34962 0.02153 0.0
C4531 C 0.09559 0.35174 0.03563 0.0
C4532 C 0.08673 0.34235 0.0449 0.0
C4533 C 0.06752 0.27299 0.08887 0.0
C4534 C 0.08353 0.28515 0.09788 0.0
C4535 C 0.06075 0.28073 0.07762 0.0
C4536 C 0.06778 0.29893 0.07764 0.0
C4537 C 0.08109 0.31 0.08947 0.0
C4538 C 0.08855 0.30328 0.10118 0.0
C4539 C 0.06199 0.30493 0.06831 0.0
C4540 C 0.07057 0.31513 0.05949 0.0
C4541 C 0.04806 0.30042 0.06781 0.0
C4542 C 0.03859 0.29008 0.07732 0.0
C4543 C 0.04078 0.29192 0.09161 0.0
C4544 C 0.03184 0.2821 0.1005 0.0
C4545 C 0.02061 0.27044 0.09523 0.0
C4546 C 0.01828 0.2686 0.08106 0.0
C4547 C 0.0272 0.27838 0.07212 0.0
H4548 H 0.0137 0.26285 0.10213 0.0
H4549 H 0.09974 0.35691 0.01437 0.0
H4550 H 0.66999 0.67864 0.05519 0.0
H4551 H 0.68048 0.70078 0.06715 0.0
H4552 H 0.67568 0.71926 0.03061 0.0
H4553 H 0.66485 0.69715 0.01871 0.0
H4554 H 0.70362 0.73139 0.04535 0.0
H4555 H 0.65625 0.71692 0.05155 0.0
H4556 H 0.63337 0.70077 0.059 0.0
H4557 H 0.64835 0.70268 0.1001 0.0
H4558 H 0.67137 0.7187 0.09284 0.0
H4559 H 0.73001 0.80478 0.06886 0.0
H4560 H 0.71759 0.77828 0.056 0.0
H4561 H 0.69876 0.756 0.10082 0.0
H4562 H 0.71061 0.78212 0.11485 0.0
H4563 H 0.68153 0.74402 0.0815 0.0
H4564 H 0.72756 0.75728 0.07766 0.0
H4565 H 0.75147 0.77166 0.07217 0.0
H4566 H 0.7409 0.77 0.02946 0.0
H4567 H 0.7169 0.75575 0.03471 0.0
C4568 C 0.67111 0.68741 0.04975 0.0
C4569 C 0.66659 0.68619 0.03604 0.0
C4570 C 0.67706 0.70001 0.05659 0.0
C4571 C 0.67879 0.71158 0.04973 0.0
C4572 C 0.67438 0.71041 0.03604 0.0
C4573 C 0.66817 0.69778 0.02929 0.0
C4574 C 0.68558 0.72501 0.05672 0.0
C4575 C 0.69876 0.7343 0.05311 0.0
C4576 C 0.67939 0.72844 0.06724 0.0
C4577 C 0.66555 0.71888 0.07161 0.0
C4578 C 0.65469 0.71379 0.06214 0.0
C4579 C 0.64169 0.70468 0.06634 0.0
C4580 C 0.63941 0.70066 0.08001 0.0
C4581 C 0.65013 0.70578 0.08952 0.0
C4582 C 0.66315 0.71488 0.08536 0.0
C4583 C 0.72489 0.79574 0.07493 0.0
C4584 C 0.71961 0.79632 0.09276 0.0
C4585 C 0.7166 0.77916 0.06691 0.0
C4586 C 0.70627 0.76422 0.0768 0.0
C4587 C 0.70452 0.76518 0.09513 0.0
C4588 C 0.71238 0.78132 0.1041 0.0
C4589 C 0.69962 0.75067 0.06998 0.0
C4590 C 0.68647 0.74126 0.07371 0.0
C4591 C 0.706 0.74698 0.05981 0.0
C4592 C 0.72041 0.75559 0.05661 0.0
C4593 C 0.73032 0.76007 0.06711 0.0
C4594 C 0.74389 0.76819 0.06404 0.0
C4595 C 0.7477 0.77178 0.05048 0.0
C4596 C 0.73794 0.76723 0.03996 0.0
C4597 C 0.72435 0.75912 0.04297 0.0
H4598 H 0.75821 0.77807 0.04813 0.0
H4599 H 0.62933 0.69362 0.08324 0.0
H4600 H 0.3012 0.96584 0.01159 0.0
H4601 H 0.27988 0.95139 0.02292 0.0
H4602 H 0.29575 0.97518 0.06024 0.0
H4603 H 0.317 0.98968 0.04901 0.0
H4604 H 0.28307 0.94716 0.0643 0.0
H4605 H 0.27448 0.97962 0.04123 0.0
H4606 H 0.27361 0.99215 0.02107 0.0
H4607 H 0.2448 0.95475 0.00124 0.0
H4608 H 0.24572 0.94195 0.0212 0.0
H4609 H 0.22359 0.91898 0.10177 0.0
H4610 H 0.2439 0.93525 0.09024 0.0
H4611 H 0.22562 0.91686 0.05104 0.0
H4612 H 0.20492 0.90109 0.06251 0.0
H4613 H 0.23972 0.94251 0.0478 0.0
H4614 H 0.24855 0.90973 0.0694 0.0
H4615 H 0.24977 0.89629 0.08858 0.0
H4616 H 0.27814 0.93288 0.10997 0.0
H4617 H 0.27694 0.94654 0.09099 0.0
C4618 C 0.30013 0.968 0.0222 0.0
C4619 C 0.31077 0.97891 0.0294 0.0
C4620 C 0.28795 0.95977 0.02864 0.0
C4621 C 0.28624 0.96227 0.0424 0.0
C4622 C 0.29688 0.97308 0.04962 0.0
C4623 C 0.30899 0.98138 0.04317 0.0
C4624 C 0.2734 0.95355 0.04935 0.0
C4625 C 0.2736 0.94626 0.06081 0.0
C4626 C 0.26103 0.95212 0.04455 0.0
C4627 C 0.26028 0.95982 0.03265 0.0
C4628 C 0.26803 0.97405 0.03253 0.0
C4629 C 0.26752 0.98121 0.02114 0.0
C4630 C 0.25917 0.97425 0.00986 0.0
C4631 C 0.25128 0.96012 0.00998 0.0
C4632 C 0.25179 0.95291 0.02132 0.0
C4633 C 0.22377 0.91856 0.09067 0.0
C4634 C 0.21256 0.9088 0.08302 0.0
C4635 C 0.23548 0.92779 0.08409 0.0
C4636 C 0.23645 0.92713 0.06977 0.0
C4637 C 0.22517 0.9176 0.06209 0.0
C4638 C 0.21335 0.90858 0.06864 0.0
C4639 C 0.24932 0.93603 0.06282 0.0
C4640 C 0.24916 0.94338 0.05133 0.0
C4641 C 0.26172 0.93736 0.06747 0.0
C4642 C 0.26256 0.92916 0.07883 0.0
C4643 C 0.25499 0.91491 0.07823 0.0
C4644 C 0.25568 0.90725 0.08906 0.0
C4645 C 0.264 0.91373 0.1005 0.0
C4646 C 0.27168 0.92788 0.10111 0.0
C4647 C 0.27101 0.93558 0.09032 0.0
H4648 H 0.26452 0.90779 0.10888 0.0
H4649 H 0.25879 0.97979 0.00103 0.0
H4650 H 0.34796 0.05124 0.00258 0.0
H4651 H 0.33632 0.0614 0.99071 0.0
H4652 H 0.30783 0.0223 0.97319 0.0
H4653 H 0.31924 0.01194 0.98545 0.0
H4654 H 0.33415 0.06406 0.965 0.0
H4655 H 0.27809 0.02187 0.96515 0.0
H4656 H 0.26216 0.00367 0.98001 0.0
H4657 H 0.28679 0.02448 0.01544 0.0
H4658 H 0.30276 0.04288 0.00083 0.0
H4659 H 0.30097 0.08589 0.9195 0.0
H4660 H 0.30803 0.0712 0.93057 0.0
H4661 H 0.28734 0.07125 0.96722 0.0
H4662 H 0.27926 0.085 0.95576 0.0
H4663 H 0.28527 0.04821 0.96518 0.0
H4664 H 0.323 0.09347 0.96185 0.0
H4665 H 0.33905 0.11413 0.94984 0.0
H4666 H 0.35206 0.09087 0.92602 0.0
H4667 H 0.33596 0.07005 0.93778 0.0
C4668 C 0.33913 0.04475 0.99632 0.0
C4669 C 0.33457 0.03078 0.99491 0.0
C4670 C 0.3325 0.05059 0.9895 0.0
C4671 C 0.32121 0.04265 0.98101 0.0
C4672 C 0.31641 0.02863 0.97982 0.0
C4673 C 0.32296 0.02272 0.9868 0.0
C4674 C 0.315 0.0493 0.97293 0.0
C4675 C 0.32344 0.06056 0.96505 0.0
C4676 C 0.30106 0.04485 0.97302 0.0
C4677 C 0.29169 0.03367 0.98186 0.0
C4678 C 0.28011 0.02255 0.97611 0.0
C4679 C 0.27106 0.01221 0.98449 0.0
C4680 C 0.27347 0.01292 0.99865 0.0
C4681 C 0.28496 0.02393 0.00446 0.0
C4682 C 0.29403 0.0343 0.99613 0.0
C4683 C 0.29771 0.08262 0.92983 0.0
C4684 C 0.28967 0.08683 0.93683 0.0
C4685 C 0.30188 0.07429 0.93622 0.0
C4686 C 0.29858 0.07041 0.94991 0.0
C4687 C 0.29012 0.07413 0.95669 0.0
C4688 C 0.2856 0.08211 0.95017 0.0
C4689 C 0.30445 0.0631 0.95744 0.0
C4690 C 0.29595 0.05166 0.96509 0.0
C4691 C 0.31843 0.06767 0.95757 0.0
C4692 C 0.32819 0.0802 0.95059 0.0
C4693 C 0.32924 0.09276 0.954 0.0
C4694 C 0.33834 0.1045 0.94725 0.0
C4695 C 0.34654 0.10381 0.93715 0.0
C4696 C 0.34568 0.09139 0.93383 0.0
C4697 C 0.33658 0.07962 0.94053 0.0
H4698 H 0.35358 0.1129 0.93193 0.0
H4699 H 0.26638 0.00499 0.00513 0.0
H4700 H 0.96377 0.29754 0.00243 0.0
H4701 H 0.94963 0.27536 0.99125 0.0
H4702 H 0.98206 0.28265 0.96434 0.0
H4703 H 0.99597 0.3049 0.97511 0.0
H4704 H 0.96028 0.27354 0.9499 0.0
H4705 H 0.97218 0.25984 0.99185 0.0
H4706 H 0.97431 0.25839 0.01691 0.0
H4707 H 0.93146 0.23969 0.02037 0.0
H4708 H 0.92909 0.2412 0.99533 0.0
H4709 H 0.93999 0.2039 0.91858 0.0
H4710 H 0.95301 0.22955 0.93352 0.0
H4711 H 0.91111 0.21716 0.95936 0.0
H4712 H 0.89691 0.19105 0.94522 0.0
H4713 H 0.93587 0.23006 0.9744 0.0
H4714 H 0.92465 0.24554 0.93262 0.0
H4715 H 0.92276 0.24696 0.90749 0.0
H4716 H 0.96514 0.26183 0.90409 0.0
H4717 H 0.96723 0.26045 0.92921 0.0
C4718 C 0.96789 0.29433 0.99421 0.0
C4719 C 0.98095 0.30296 0.98961 0.0
C4720 C 0.95982 0.28164 0.98785 0.0
C4721 C 0.96479 0.27726 0.97698 0.0
C4722 C 0.97795 0.28579 0.97264 0.0
C4723 C 0.98592 0.29851 0.97884 0.0
C4724 C 0.9562 0.26408 0.96969 0.0
C4725 C 0.95511 0.26404 0.95531 0.0
C4726 C 0.94907 0.25166 0.97668 0.0
C4727 C 0.95047 0.25078 0.99174 0.0
C4728 C 0.96322 0.25553 0.99797 0.0
C4729 C 0.96447 0.25467 0.01217 0.0
C4730 C 0.95303 0.24899 0.02023 0.0
C4731 C 0.94032 0.24412 0.01411 0.0
C4732 C 0.93901 0.24496 0.99992 0.0
C4733 C 0.93482 0.20609 0.92655 0.0
C4734 C 0.91629 0.19579 0.92856 0.0
C4735 C 0.94258 0.22232 0.93532 0.0
C4736 C 0.9332 0.22652 0.94724 0.0
C4737 C 0.91613 0.21449 0.95164 0.0
C4738 C 0.90743 0.19798 0.94342 0.0
C4739 C 0.94027 0.23963 0.95473 0.0
C4740 C 0.94102 0.23962 0.9691 0.0
C4741 C 0.94725 0.25199 0.94778 0.0
C4742 C 0.94606 0.25273 0.93271 0.0
C4743 C 0.93354 0.24906 0.92648 0.0
C4744 C 0.93244 0.24988 0.91226 0.0
C4745 C 0.94382 0.25444 0.90419 0.0
C4746 C 0.95633 0.25825 0.91034 0.0
C4747 C 0.95748 0.25747 0.92457 0.0
H4748 H 0.94295 0.25504 0.89318 0.0
H4749 H 0.95402 0.24833 0.03122 0.0
H4750 H 0.69205 0.64575 0.99294 0.0
H4751 H 0.71354 0.65884 0.9818 0.0
H4752 H 0.70759 0.69352 0.9805 0.0
H4753 H 0.68591 0.68045 0.99169 0.0
H4754 H 0.71658 0.6884 0.95568 0.0
H4755 H 0.72904 0.69391 0.0033 0.0
H4756 H 0.72928 0.68639 0.02691 0.0
H4757 H 0.74683 0.66273 0.0129 0.0
H4758 H 0.74652 0.66995 0.98916 0.0
H4759 H 0.7846 0.73247 0.93612 0.0
H4760 H 0.76294 0.72225 0.94761 0.0
H4761 H 0.76588 0.68637 0.95531 0.0
H4762 H 0.78764 0.69667 0.94414 0.0
H4763 H 0.7585 0.69408 0.97766 0.0
H4764 H 0.74463 0.68715 0.92998 0.0
H4765 H 0.74399 0.69409 0.90619 0.0
H4766 H 0.72889 0.71996 0.92011 0.0
H4767 H 0.72961 0.7133 0.94402 0.0
C4768 C 0.69525 0.65615 0.9903 0.0
C4769 C 0.68723 0.66204 0.99324 0.0
C4770 C 0.70759 0.66364 0.98397 0.0
C4771 C 0.7122 0.67717 0.98044 0.0
C4772 C 0.7042 0.68308 0.98318 0.0
C4773 C 0.69185 0.67561 0.98962 0.0
C4774 C 0.7254 0.68502 0.97384 0.0
C4775 C 0.7258 0.68988 0.96056 0.0
C4776 C 0.73736 0.68669 0.98013 0.0
C4777 C 0.73765 0.68239 0.99442 0.0
C4778 C 0.73286 0.68702 0.00523 0.0
C4779 C 0.73302 0.68283 0.01864 0.0
C4780 C 0.73804 0.67407 0.0214 0.0
C4781 C 0.74294 0.66951 0.01075 0.0
C4782 C 0.74278 0.67367 0.99731 0.0
C4783 C 0.78051 0.72233 0.94011 0.0
C4784 C 0.78764 0.71523 0.93893 0.0
C4785 C 0.76815 0.7165 0.94667 0.0
C4786 C 0.76269 0.70346 0.95215 0.0
C4787 C 0.76986 0.69641 0.95109 0.0
C4788 C 0.78223 0.70225 0.94461 0.0
C4789 C 0.74968 0.69725 0.95935 0.0
C4790 C 0.74932 0.69272 0.97278 0.0
C4791 C 0.73777 0.69585 0.95317 0.0
C4792 C 0.73732 0.69985 0.9388 0.0
C4793 C 0.74128 0.69441 0.92798 0.0
C4794 C 0.74088 0.69827 0.91448 0.0
C4795 C 0.73644 0.70749 0.91165 0.0
C4796 C 0.73235 0.71284 0.92232 0.0
C4797 C 0.73275 0.70901 0.93585 0.0
H4798 H 0.73614 0.71047 0.90118 0.0
H4799 H 0.73816 0.67083 0.03179 0.0
H4800 H 0.9688 0.67645 0.01186 0.0
H4801 H 0.95696 0.68755 0.00195 0.0
H4802 H 0.97561 0.69007 0.96308 0.0
H4803 H 0.98784 0.6796 0.97308 0.0
H4804 H 0.9767 0.71269 0.96791 0.0
H4805 H 0.94149 0.66605 0.97026 0.0
H4806 H 0.92688 0.64442 0.98161 0.0
H4807 H 0.91205 0.66442 0.00793 0.0
H4808 H 0.9267 0.68621 0.99684 0.0
H4809 H 0.93391 0.72091 0.92084 0.0
H4810 H 0.94456 0.71065 0.93451 0.0
H4811 H 0.93131 0.72092 0.97164 0.0
H4812 H 0.92081 0.73147 0.958 0.0
H4813 H 0.92727 0.69332 0.96994 0.0
H4814 H 0.96182 0.73983 0.96517 0.0
H4815 H 0.97584 0.76059 0.95225 0.0
H4816 H 0.99146 0.7395 0.9287 0.0
H4817 H 0.97735 0.71854 0.94133 0.0
C4818 C 0.97031 0.67936 0.0012 0.0
C4819 C 0.97924 0.67719 0.99325 0.0
C4820 C 0.96351 0.68564 0.99552 0.0
C4821 C 0.96528 0.68955 0.9817 0.0
C4822 C 0.97411 0.68723 0.97377 0.0
C4823 C 0.98108 0.68121 0.97949 0.0
C4824 C 0.95822 0.69628 0.97543 0.0
C4825 C 0.96587 0.70835 0.96828 0.0
C4826 C 0.94412 0.69087 0.97617 0.0
C4827 C 0.9353 0.67778 0.98283 0.0
C4828 C 0.93519 0.66585 0.97854 0.0
C4829 C 0.92688 0.65356 0.98491 0.0
C4830 C 0.91857 0.65305 0.99551 0.0
C4831 C 0.91851 0.66483 0.99974 0.0
C4832 C 0.9268 0.67715 0.99341 0.0
C4833 C 0.93329 0.721 0.93192 0.0
C4834 C 0.92662 0.72708 0.93836 0.0
C4835 C 0.93934 0.71513 0.9397 0.0
C4836 C 0.93877 0.71512 0.95406 0.0
C4837 C 0.93184 0.72085 0.96055 0.0
C4838 C 0.9259 0.72688 0.95276 0.0
C4839 C 0.94576 0.70942 0.96221 0.0
C4840 C 0.93811 0.69765 0.96972 0.0
C4841 C 0.95984 0.71495 0.96164 0.0
C4842 C 0.96844 0.72759 0.95413 0.0
C4843 C 0.96816 0.73959 0.95716 0.0
C4844 C 0.97614 0.7514 0.9499 0.0
C4845 C 0.98452 0.75136 0.93964 0.0
C4846 C 0.98496 0.73951 0.93665 0.0
C4847 C 0.97698 0.72767 0.94386 0.0
H4848 H 0.99069 0.76051 0.93403 0.0
H4849 H 0.91215 0.64353 0.00043 0.0
H4850 H 0.32556 0.31671 0.98936 0.0
H4851 H 0.31337 0.29529 0.97645 0.0
H4852 H 0.34935 0.30461 0.95464 0.0
H4853 H 0.36176 0.32601 0.96772 0.0
H4854 H 0.32381 0.29428 0.93803 0.0
H4855 H 0.34309 0.28427 0.97766 0.0
H4856 H 0.34767 0.28426 0.00246 0.0
H4857 H 0.30532 0.2607 0.00958 0.0
H4858 H 0.30048 0.26078 0.98483 0.0
H4859 H 0.30441 0.23011 0.90837 0.0
H4860 H 0.3164 0.25187 0.92067 0.0
H4861 H 0.28431 0.2382 0.94966 0.0
H4862 H 0.27246 0.21618 0.93759 0.0
H4863 H 0.30775 0.25105 0.96277 0.0
H4864 H 0.2878 0.26034 0.92409 0.0
H4865 H 0.28212 0.26071 0.89966 0.0
H4866 H 0.32396 0.28581 0.89097 0.0
H4867 H 0.32992 0.28541 0.91533 0.0
C4868 C 0.33087 0.31428 0.98174 0.0
C4869 C 0.34464 0.32305 0.97957 0.0
C4870 C 0.3239 0.30203 0.97441 0.0
C4871 C 0.3305 0.29841 0.96466 0.0
C4872 C 0.34411 0.30728 0.96214 0.0
C4873 C 0.35118 0.31945 0.96965 0.0
C4874 C 0.32324 0.28513 0.95743 0.0
C4875 C 0.32044 0.2848 0.94335 0.0
C4876 C 0.31852 0.27284 0.96455 0.0
C4877 C 0.32142 0.27266 0.97941 0.0
C4878 C 0.33475 0.27919 0.98453 0.0
C4879 C 0.33739 0.27916 0.99857 0.0
C4880 C 0.32679 0.27251 0.00759 0.0
C4881 C 0.31352 0.26586 0.00258 0.0
C4882 C 0.31082 0.26589 0.98854 0.0
C4883 C 0.29999 0.23168 0.91747 0.0
C4884 C 0.28763 0.22134 0.92221 0.0
C4885 C 0.30678 0.24417 0.92441 0.0
C4886 C 0.3012 0.24672 0.93602 0.0
C4887 C 0.28883 0.23644 0.94075 0.0
C4888 C 0.28208 0.22388 0.93387 0.0
C4889 C 0.30832 0.2601 0.94324 0.0
C4890 C 0.31109 0.26048 0.95737 0.0
C4891 C 0.31285 0.27244 0.93618 0.0
C4892 C 0.30932 0.27273 0.92152 0.0
C4893 C 0.2958 0.26585 0.91695 0.0
C4894 C 0.29253 0.26608 0.90312 0.0
C4895 C 0.30267 0.27325 0.89376 0.0
C4896 C 0.31611 0.28024 0.89823 0.0
C4897 C 0.31945 0.28002 0.91205 0.0
H4898 H 0.30011 0.27342 0.88305 0.0
H4899 H 0.32886 0.27249 0.01847 0.0
H4900 H 0.69877 0.03471 0.00867 0.0
H4901 H 0.72028 0.04862 0.99749 0.0
H4902 H 0.70693 0.02029 0.96327 0.0
H4903 H 0.68544 0.00637 0.97432 0.0
H4904 H 0.73974 0.04261 0.98929 0.0
H4905 H 0.71937 0.03873 0.93397 0.0
H4906 H 0.69874 0.03526 0.92194 0.0
H4907 H 0.68927 0.05257 0.95644 0.0
H4908 H 0.70992 0.0563 0.96859 0.0
H4909 H 0.79366 0.06774 0.9424 0.0
H4910 H 0.7715 0.05295 0.95206 0.0
H4911 H 0.76328 0.0862 0.95223 0.0
H4912 H 0.78541 0.10103 0.94274 0.0
H4913 H 0.74127 0.06174 0.94329 0.0
H4914 H 0.77374 0.07934 0.98076 0.0
H4915 H 0.79451 0.08375 0.99313 0.0
H4916 H 0.77991 0.04092 0.99539 0.0
H4917 H 0.75913 0.03626 0.98283 0.0
C4918 C 0.70042 0.03145 0.99877 0.0
C4919 C 0.69039 0.01947 0.99235 0.0
C4920 C 0.71272 0.03937 0.99243 0.0
C4921 C 0.71515 0.03553 0.97951 0.0
C4922 C 0.70521 0.02351 0.97316 0.0
C4923 C 0.69294 0.01555 0.97952 0.0
C4924 C 0.72803 0.04417 0.97261 0.0
C4925 C 0.74007 0.04676 0.97922 0.0
C4926 C 0.72846 0.04966 0.95952 0.0
C4927 C 0.71612 0.04766 0.95223 0.0
C4928 C 0.7129 0.04184 0.93896 0.0
C4929 C 0.70121 0.03982 0.93213 0.0
C4930 C 0.69268 0.04365 0.93844 0.0
C4931 C 0.69585 0.04956 0.95158 0.0
C4932 C 0.70754 0.05161 0.95845 0.0
C4933 C 0.78706 0.07183 0.9444 0.0
C4934 C 0.79128 0.08555 0.94191 0.0
C4935 C 0.77444 0.06341 0.94992 0.0
C4936 C 0.76582 0.06854 0.95296 0.0
C4937 C 0.76979 0.08206 0.94995 0.0
C4938 C 0.78243 0.09051 0.94456 0.0
C4939 C 0.75294 0.06005 0.9599 0.0
C4940 C 0.74092 0.05749 0.95331 0.0
C4941 C 0.75253 0.05469 0.97306 0.0
C4942 C 0.76495 0.05746 0.98073 0.0
C4943 C 0.77501 0.07087 0.9838 0.0
C4944 C 0.78677 0.07341 0.99086 0.0
C4945 C 0.78854 0.06262 0.99502 0.0
C4946 C 0.77853 0.04926 0.99215 0.0
C4947 C 0.76676 0.04667 0.98507 0.0
H4948 H 0.79766 0.06461 0.00048 0.0
H4949 H 0.68362 0.04207 0.93314 0.0
H4950 H 0.65554 0.94989 0.02129 0.0
H4951 H 0.66871 0.94134 0.03311 0.0
H4952 H 0.69394 0.98088 0.05171 0.0
H4953 H 0.68115 0.98966 0.03936 0.0
H4954 H 0.70887 0.97076 0.04522 0.0
H4955 H 0.66772 0.95375 0.06926 0.0
H4956 H 0.64315 0.94206 0.07205 0.0
H4957 H 0.63996 0.90486 0.057 0.0
H4958 H 0.66451 0.91638 0.05394 0.0
H4959 H 0.73126 0.94757 0.1028 0.0
H4960 H 0.72007 0.9565 0.08831 0.0
H4961 H 0.70418 0.92083 0.06221 0.0
H4962 H 0.71575 0.91186 0.07646 0.0
H4963 H 0.68494 0.92879 0.07224 0.0
H4964 H 0.72746 0.94713 0.04951 0.0
H4965 H 0.7522 0.95971 0.0486 0.0
H4966 H 0.75282 0.99567 0.06383 0.0
H4967 H 0.72807 0.98323 0.06502 0.0
C4968 C 0.66392 0.95678 0.02786 0.0
C4969 C 0.66724 0.97043 0.02949 0.0
C4970 C 0.67141 0.95187 0.03467 0.0
C4971 C 0.68214 0.96037 0.04358 0.0
C4972 C 0.68568 0.97409 0.04494 0.0
C4973 C 0.67836 0.9791 0.0379 0.0
C4974 C 0.68951 0.9549 0.0516 0.0
C4975 C 0.70362 0.96167 0.05124 0.0
C4976 C 0.68269 0.94295 0.05937 0.0
C4977 C 0.66793 0.93597 0.06124 0.0
C4978 C 0.66177 0.9431 0.06645 0.0
C4979 C 0.64785 0.9365 0.0681 0.0
C4980 C 0.64 0.92273 0.06467 0.0
C4981 C 0.64606 0.91553 0.05963 0.0
C4982 C 0.65997 0.92209 0.05795 0.0
C4983 C 0.7257 0.94168 0.09384 0.0
C4984 C 0.72481 0.92911 0.09054 0.0
C4985 C 0.71923 0.94682 0.08559 0.0
C4986 C 0.71146 0.93939 0.07413 0.0
C4987 C 0.71026 0.92676 0.07096 0.0
C4988 C 0.71692 0.9217 0.07905 0.0
C4989 C 0.70419 0.94463 0.06577 0.0
C4990 C 0.69012 0.93784 0.06613 0.0
C4991 C 0.71104 0.9567 0.05827 0.0
C4992 C 0.72592 0.96421 0.05748 0.0
C4993 C 0.73287 0.95768 0.05278 0.0
C4994 C 0.7469 0.9648 0.05219 0.0
C4995 C 0.75408 0.97847 0.05618 0.0
C4996 C 0.74724 0.98507 0.06075 0.0
C4997 C 0.73322 0.978 0.06137 0.0
H4998 H 0.76494 0.98396 0.05572 0.0
H4999 H 0.62922 0.91764 0.06595 0.0
H5000 H 0.04759 0.7065 0.01612 0.0
H5001 H 0.05718 0.72888 0.02723 0.0
H5002 H 0.02346 0.71358 0.05439 0.0
H5003 H 0.01345 0.69154 0.0426 0.0
H5004 H 0.02801 0.73639 0.04734 0.0
H5005 H 0.05726 0.72033 0.06389 0.0
H5006 H 0.07278 0.71118 0.06222 0.0
H5007 H 0.10032 0.74603 0.03965 0.0
H5008 H 0.08488 0.75531 0.04103 0.0
H5009 H 0.0589 0.7866 0.10084 0.0
H5010 H 0.0503 0.76544 0.08754 0.0
H5011 H 0.07495 0.7875 0.05364 0.0
H5012 H 0.08327 0.80885 0.0667 0.0
H5013 H 0.07569 0.76252 0.0631 0.0
H5014 H 0.04527 0.77849 0.04873 0.0
H5015 H 0.02951 0.787 0.05291 0.0
H5016 H 0.00374 0.75084 0.07477 0.0
H5017 H 0.01946 0.7422 0.0709 0.0
C5018 C 0.04229 0.70795 0.02449 0.0
C5019 C 0.0298 0.69734 0.02852 0.0
C5020 C 0.0478 0.72072 0.03092 0.0
C5021 C 0.04118 0.72294 0.04185 0.0
C5022 C 0.02877 0.71221 0.04596 0.0
C5023 C 0.02307 0.6996 0.03927 0.0
C5024 C 0.0469 0.73647 0.04879 0.0
C5025 C 0.0384 0.74196 0.05091 0.0
C5026 C 0.06054 0.74399 0.05328 0.0
C5027 C 0.06985 0.73844 0.05244 0.0
C5028 C 0.06658 0.72599 0.05848 0.0
C5029 C 0.07537 0.72079 0.0576 0.0
C5030 C 0.08751 0.728 0.0508 0.0
C5031 C 0.0909 0.74044 0.04489 0.0
C5032 C 0.08214 0.74569 0.04573 0.0
C5033 C 0.0623 0.787 0.09046 0.0
C5034 C 0.07148 0.79946 0.08467 0.0
C5035 C 0.05745 0.7749 0.08293 0.0
C5036 C 0.06193 0.77499 0.06961 0.0
C5037 C 0.07135 0.7873 0.0639 0.0
C5038 C 0.07603 0.79946 0.07134 0.0
C5039 C 0.05673 0.76213 0.06171 0.0
C5040 C 0.06533 0.75685 0.05944 0.0
C5041 C 0.04312 0.75463 0.05741 0.0
C5042 C 0.0336 0.75976 0.05963 0.0
C5043 C 0.0363 0.77241 0.05453 0.0
C5044 C 0.02736 0.77724 0.05682 0.0
C5045 C 0.01565 0.76948 0.06413 0.0
C5046 C 0.01283 0.75685 0.06912 0.0
C5047 C 0.02174 0.75197 0.06687 0.0
H5048 H 0.00874 0.77324 0.06589 0.0
H5049 H 0.0943 0.72395 0.05013 0.0
H5050 H 0.30656 0.33948 0.00783 0.0
H5051 H 0.285 0.32801 0.01943 0.0
H5052 H 0.30528 0.32611 0.05638 0.0
H5053 H 0.32664 0.33675 0.04453 0.0
H5054 H 0.28415 0.30382 0.05367 0.0
H5055 H 0.29293 0.3497 0.05097 0.0
H5056 H 0.29808 0.37108 0.0397 0.0
H5057 H 0.26183 0.35011 0.01516 0.0
H5058 H 0.25655 0.32857 0.02617 0.0
H5059 H 0.23354 0.29361 0.10133 0.0
H5060 H 0.25404 0.30476 0.08792 0.0
H5061 H 0.23015 0.29268 0.05046 0.0
H5062 H 0.20958 0.28116 0.06381 0.0
H5063 H 0.25207 0.32132 0.0527 0.0
H5064 H 0.2436 0.27533 0.05756 0.0
H5065 H 0.23896 0.25511 0.07084 0.0
H5066 H 0.27587 0.27831 0.09388 0.0
H5067 H 0.28063 0.29873 0.08088 0.0
C5068 C 0.30637 0.33661 0.01844 0.0
C5069 C 0.31823 0.339 0.02531 0.0
C5070 C 0.29406 0.33014 0.0251 0.0
C5071 C 0.29348 0.32637 0.0389 0.0
C5072 C 0.3054 0.32885 0.04575 0.0
C5073 C 0.31762 0.33498 0.03898 0.0
C5074 C 0.28049 0.31959 0.04618 0.0
C5075 C 0.27726 0.3078 0.05356 0.0
C5076 C 0.27128 0.32456 0.0459 0.0
C5077 C 0.27442 0.3375 0.03929 0.0
C5078 C 0.28611 0.34963 0.0431 0.0
C5079 C 0.28904 0.36178 0.03677 0.0
C5080 C 0.28031 0.36195 0.02669 0.0
C5081 C 0.2686 0.34997 0.02295 0.0
C5082 C 0.26562 0.33778 0.02924 0.0
C5083 C 0.23267 0.29326 0.09024 0.0
C5084 C 0.21997 0.28635 0.08361 0.0
C5085 C 0.24435 0.29967 0.08261 0.0
C5086 C 0.24356 0.29945 0.06823 0.0
C5087 C 0.23093 0.29292 0.06157 0.0
C5088 C 0.21922 0.28633 0.06919 0.0
C5089 C 0.25599 0.3058 0.0602 0.0
C5090 C 0.25904 0.31744 0.05271 0.0
C5091 C 0.26518 0.3009 0.06062 0.0
C5092 C 0.2624 0.28858 0.06833 0.0
C5093 C 0.25067 0.27615 0.06554 0.0
C5094 C 0.24803 0.26464 0.073 0.0
C5095 C 0.2571 0.26543 0.08322 0.0
C5096 C 0.26885 0.27772 0.08597 0.0
C5097 C 0.27153 0.28925 0.07855 0.0
H5098 H 0.25503 0.25651 0.08899 0.0
H5099 H 0.2826 0.37137 0.02181 0.0
H5100 H 0.70052 0.68379 0.38556 0.0
H5101 H 0.7097 0.6714 0.39787 0.0
H5102 H 0.68908 0.63762 0.36937 0.0
H5103 H 0.67925 0.64973 0.35751 0.0
H5104 H 0.6886 0.62813 0.39322 0.0
H5105 H 0.7235 0.66219 0.3669 0.0
H5106 H 0.73819 0.68523 0.35838 0.0
H5107 H 0.75438 0.69897 0.39911 0.0
H5108 H 0.7396 0.67606 0.40792 0.0
H5109 H 0.73127 0.59409 0.41126 0.0
H5110 H 0.71643 0.60563 0.39828 0.0
H5111 H 0.73782 0.64613 0.43006 0.0
H5112 H 0.75321 0.63564 0.44398 0.0
H5113 H 0.73782 0.65229 0.40257 0.0
H5114 H 0.70202 0.61705 0.42816 0.0
H5115 H 0.6874 0.59351 0.43546 0.0
H5116 H 0.67355 0.58131 0.39382 0.0
H5117 H 0.68822 0.60474 0.38624 0.0
C5118 C 0.69783 0.67365 0.38203 0.0
C5119 C 0.68925 0.66774 0.37055 0.0
C5120 C 0.70316 0.66662 0.389 0.0
C5121 C 0.70042 0.65372 0.38432 0.0
C5122 C 0.69142 0.64758 0.37315 0.0
C5123 C 0.6858 0.6545 0.36638 0.0
C5124 C 0.70721 0.64684 0.39087 0.0
C5125 C 0.69939 0.63336 0.39504 0.0
C5126 C 0.7213 0.65366 0.39338 0.0
C5127 C 0.73035 0.66742 0.38809 0.0
C5128 C 0.73013 0.67014 0.37405 0.0
C5129 C 0.73848 0.68318 0.36917 0.0
C5130 C 0.7472 0.69356 0.37821 0.0
C5131 C 0.74761 0.69092 0.39213 0.0
C5132 C 0.73926 0.67791 0.39707 0.0
C5133 C 0.73191 0.60333 0.41525 0.0
C5134 C 0.7456 0.61487 0.42743 0.0
C5135 C 0.72319 0.61091 0.40684 0.0
C5136 C 0.72602 0.62742 0.41228 0.0
C5137 C 0.73679 0.63651 0.42683 0.0
C5138 C 0.74595 0.62981 0.43594 0.0
C5139 C 0.71919 0.6337 0.40496 0.0
C5140 C 0.72704 0.64708 0.40065 0.0
C5141 C 0.70521 0.62668 0.40204 0.0
C5142 C 0.69633 0.61262 0.40662 0.0
C5143 C 0.69593 0.60933 0.42055 0.0
C5144 C 0.68762 0.59601 0.42474 0.0
C5145 C 0.67958 0.58591 0.4151 0.0
C5146 C 0.6798 0.58913 0.40127 0.0
C5147 C 0.6881 0.60243 0.39702 0.0
H5148 H 0.67316 0.57561 0.41837 0.0
H5149 H 0.75365 0.70365 0.37441 0.0
H5150 H 0.34943 0.02024 0.38023 0.0
H5151 H 0.3588 0.04156 0.39336 0.0
H5152 H 0.32452 0.04572 0.38143 0.0
H5153 H 0.31564 0.02489 0.36756 0.0
H5154 H 0.34454 0.06912 0.38204 0.0
H5155 H 0.32829 0.03309 0.41408 0.0
H5156 H 0.32584 0.01251 0.4251 0.0
H5157 H 0.36794 0.03339 0.43582 0.0
H5158 H 0.37067 0.05405 0.4247 0.0
H5159 H 0.34683 0.11576 0.44213 0.0
H5160 H 0.33913 0.09291 0.42347 0.0
H5161 H 0.38434 0.09654 0.42902 0.0
H5162 H 0.39341 0.11957 0.44765 0.0
H5163 H 0.35955 0.06957 0.43017 0.0
H5164 H 0.37471 0.10493 0.3954 0.0
H5165 H 0.3756 0.12521 0.38518 0.0
H5166 H 0.33249 0.1044 0.3817 0.0
H5167 H 0.33139 0.08403 0.39194 0.0
C5168 C 0.34401 0.02581 0.38031 0.0
C5169 C 0.3318 0.02092 0.37296 0.0
C5170 C 0.34929 0.03794 0.38791 0.0
C5171 C 0.3422 0.04511 0.38875 0.0
C5172 C 0.33019 0.0404 0.38103 0.0
C5173 C 0.3251 0.02848 0.3731 0.0
C5174 C 0.34711 0.05732 0.39787 0.0
C5175 C 0.34763 0.06908 0.3926 0.0
C5176 C 0.35132 0.05747 0.41167 0.0
C5177 C 0.34971 0.04508 0.41843 0.0
C5178 C 0.33704 0.03327 0.4187 0.0
C5179 C 0.3356 0.02159 0.42498 0.0
C5180 C 0.34673 0.02163 0.43113 0.0
C5181 C 0.35933 0.03337 0.43104 0.0
C5182 C 0.36083 0.04507 0.42476 0.0
C5183 C 0.3536 0.11189 0.44009 0.0
C5184 C 0.37185 0.12163 0.44488 0.0
C5185 C 0.34915 0.09817 0.42797 0.0
C5186 C 0.3612 0.09296 0.42348 0.0
C5187 C 0.37769 0.10044 0.4315 0.0
C5188 C 0.38317 0.11427 0.44368 0.0
C5189 C 0.35687 0.08111 0.41427 0.0
C5190 C 0.35646 0.06948 0.41957 0.0
C5191 C 0.35237 0.08092 0.40069 0.0
C5192 C 0.35297 0.09307 0.39454 0.0
C5193 C 0.36544 0.10473 0.39248 0.0
C5194 C 0.36598 0.11622 0.38667 0.0
C5195 C 0.35411 0.11611 0.38283 0.0
C5196 C 0.34168 0.10448 0.38471 0.0
C5197 C 0.34109 0.09296 0.3905 0.0
H5198 H 0.35454 0.12502 0.37836 0.0
H5199 H 0.34559 0.01258 0.43598 0.0
H5200 H 0.97255 0.29588 0.33988 0.0
H5201 H 0.95029 0.28386 0.3499 0.0
H5202 H 0.96484 0.31121 0.38497 0.0
H5203 H 0.98704 0.32354 0.37479 0.0
H5204 H 0.94189 0.26988 0.37185 0.0
H5205 H 0.93955 0.31464 0.39859 0.0
H5206 H 0.94788 0.33903 0.39516 0.0
H5207 H 0.95039 0.33367 0.35184 0.0
H5208 H 0.94191 0.30923 0.35499 0.0
H5209 H 0.88696 0.24091 0.41604 0.0
H5210 H 0.90942 0.25497 0.40715 0.0
H5211 H 0.89431 0.27501 0.3807 0.0
H5212 H 0.872 0.26163 0.39032 0.0
H5213 H 0.91741 0.29273 0.38904 0.0
H5214 H 0.90003 0.24798 0.36964 0.0
H5215 H 0.8902 0.22312 0.37002 0.0
H5216 H 0.92456 0.22767 0.39298 0.0
H5217 H 0.93452 0.25256 0.39289 0.0
C5218 C 0.97099 0.2994 0.34968 0.0
C5219 C 0.98154 0.31068 0.35653 0.0
C5220 C 0.95826 0.29248 0.35543 0.0
C5221 C 0.95583 0.29666 0.36816 0.0
C5222 C 0.96638 0.30793 0.37503 0.0
C5223 C 0.97908 0.31494 0.36922 0.0
C5224 C 0.94234 0.289 0.37436 0.0
C5225 C 0.93655 0.27489 0.3756 0.0
C5226 C 0.93522 0.29546 0.37907 0.0
C5227 C 0.94024 0.31014 0.37706 0.0
C5228 C 0.94185 0.31866 0.38833 0.0
C5229 C 0.94659 0.3325 0.38643 0.0
C5230 C 0.94971 0.3379 0.3733 0.0
C5231 C 0.94803 0.32948 0.36202 0.0
C5232 C 0.94327 0.31564 0.36386 0.0
C5233 C 0.88843 0.24846 0.40851 0.0
C5234 C 0.87764 0.25019 0.40392 0.0
C5235 C 0.90129 0.25641 0.4033 0.0
C5236 C 0.90356 0.26589 0.39301 0.0
C5237 C 0.89287 0.26779 0.38862 0.0
C5238 C 0.8801 0.26009 0.39407 0.0
C5239 C 0.91695 0.27359 0.38655 0.0
C5240 C 0.92276 0.28771 0.38531 0.0
C5241 C 0.92387 0.26708 0.38139 0.0
C5242 C 0.91796 0.25212 0.38136 0.0
C5243 C 0.90545 0.24367 0.37483 0.0
C5244 C 0.89986 0.22958 0.37499 0.0
C5245 C 0.90674 0.22382 0.38155 0.0
C5246 C 0.91924 0.23214 0.38792 0.0
C5247 C 0.92487 0.24624 0.38781 0.0
H5248 H 0.90239 0.2129 0.38167 0.0
H5249 H 0.95339 0.34862 0.37185 0.0
H5250 H 0.03417 0.37463 0.31076 0.0
H5251 H 0.02563 0.38789 0.29936 0.0
H5252 H 0.985 0.35726 0.30794 0.0
H5253 H 0.99349 0.34371 0.3195 0.0
H5254 H 0.98913 0.36918 0.28065 0.0
H5255 H 0.99809 0.38274 0.32833 0.0
H5256 H 0.01214 0.38954 0.34949 0.0
H5257 H 0.0424 0.42495 0.32968 0.0
H5258 H 0.02864 0.41822 0.3083 0.0
H5259 H 0.96359 0.41407 0.26718 0.0
H5260 H 0.96873 0.3974 0.27722 0.0
H5261 H 0.01087 0.42747 0.27923 0.0
H5262 H 0.0057 0.44428 0.2697 0.0
H5263 H 0.00414 0.41444 0.30206 0.0
H5264 H 0.9971 0.40104 0.25447 0.0
H5265 H 0.98481 0.39421 0.23223 0.0
H5266 H 0.95269 0.35908 0.25061 0.0
H5267 H 0.96472 0.3658 0.27302 0.0
C5268 C 0.02339 0.37057 0.31017 0.0
C5269 C 0.01452 0.35816 0.31624 0.0
C5270 C 0.01854 0.37819 0.30361 0.0
C5271 C 0.00472 0.37364 0.30301 0.0
C5272 C 0.99572 0.36093 0.30836 0.0
C5273 C 0.00059 0.35323 0.31497 0.0
C5274 C 0.99997 0.3827 0.29757 0.0
C5275 C 0.99216 0.37898 0.28543 0.0
C5276 C 0.00427 0.3956 0.30368 0.0
C5277 C 0.01236 0.39993 0.31668 0.0
C5278 C 0.00777 0.39194 0.32846 0.0
C5279 C 0.01568 0.39578 0.3405 0.0
C5280 C 0.02816 0.40765 0.34092 0.0
C5281 C 0.03273 0.41575 0.32933 0.0
C5282 C 0.02487 0.41194 0.31726 0.0
C5283 C 0.97396 0.41705 0.26962 0.0
C5284 C 0.98427 0.43037 0.26729 0.0
C5285 C 0.9769 0.40752 0.27532 0.0
C5286 C 0.99022 0.41109 0.27874 0.0
C5287 C 0.00052 0.42444 0.27658 0.0
C5288 C 0.99757 0.43401 0.27102 0.0
C5289 C 0.99342 0.40107 0.28493 0.0
C5290 C 0.00095 0.40461 0.29728 0.0
C5291 C 0.98899 0.38807 0.27891 0.0
C5292 C 0.98174 0.38401 0.26545 0.0
C5293 C 0.98737 0.39192 0.25379 0.0
C5294 C 0.98046 0.38805 0.24115 0.0
C5295 C 0.96796 0.37624 0.24001 0.0
C5296 C 0.96236 0.36824 0.25151 0.0
C5297 C 0.96922 0.37207 0.26418 0.0
H5298 H 0.96262 0.37326 0.23022 0.0
H5299 H 0.03429 0.41059 0.35024 0.0
H5300 H 0.66388 0.64319 0.3168 0.0
H5301 H 0.65161 0.6227 0.30254 0.0
H5302 H 0.61422 0.62127 0.31217 0.0
H5303 H 0.62645 0.64129 0.32716 0.0
H5304 H 0.60964 0.59718 0.31132 0.0
H5305 H 0.63159 0.63382 0.28054 0.0
H5306 H 0.65037 0.65411 0.27051 0.0
H5307 H 0.67014 0.63132 0.26105 0.0
H5308 H 0.65155 0.61094 0.27119 0.0
H5309 H 0.56711 0.55183 0.24948 0.0
H5310 H 0.58177 0.57442 0.26854 0.0
H5311 H 0.62286 0.56962 0.26562 0.0
H5312 H 0.60935 0.5468 0.24666 0.0
H5313 H 0.62552 0.59678 0.26432 0.0
H5314 H 0.6037 0.56117 0.29856 0.0
H5315 H 0.58389 0.54119 0.3078 0.0
H5316 H 0.56237 0.56328 0.30859 0.0
H5317 H 0.58207 0.58336 0.29932 0.0
C5318 C 0.65303 0.63842 0.31593 0.0
C5319 C 0.6461 0.64383 0.323 0.0
C5320 C 0.64602 0.62677 0.30769 0.0
C5321 C 0.63199 0.6206 0.30593 0.0
C5322 C 0.62503 0.62584 0.31329 0.0
C5323 C 0.63202 0.63729 0.32184 0.0
C5324 C 0.6246 0.60877 0.29637 0.0
C5325 C 0.61305 0.59725 0.30099 0.0
C5326 C 0.62903 0.60866 0.28287 0.0
C5327 C 0.64023 0.62089 0.27675 0.0
C5328 C 0.63998 0.63316 0.27641 0.0
C5329 C 0.65059 0.64468 0.27069 0.0
C5330 C 0.66146 0.64401 0.26518 0.0
C5331 C 0.66172 0.63182 0.26534 0.0
C5332 C 0.65115 0.62028 0.27106 0.0
C5333 C 0.57757 0.55543 0.25209 0.0
C5334 C 0.58599 0.54535 0.24804 0.0
C5335 C 0.58654 0.56899 0.26444 0.0
C5336 C 0.60349 0.57377 0.26987 0.0
C5337 C 0.61249 0.56599 0.26257 0.0
C5338 C 0.60444 0.55229 0.25021 0.0
C5339 C 0.61074 0.58542 0.27935 0.0
C5340 C 0.62221 0.59685 0.27468 0.0
C5341 C 0.60605 0.58563 0.29259 0.0
C5342 C 0.59425 0.57365 0.29814 0.0
C5343 C 0.59471 0.56172 0.30068 0.0
C5344 C 0.58353 0.5504 0.30593 0.0
C5345 C 0.57186 0.55095 0.30874 0.0
C5346 C 0.57139 0.56286 0.30637 0.0
C5347 C 0.58256 0.57421 0.30114 0.0
H5348 H 0.5632 0.54217 0.31278 0.0
H5349 H 0.66966 0.65293 0.26076 0.0
H5350 H 0.35906 0.99129 0.34632 0.0
H5351 H 0.37825 0.997 0.33157 0.0
H5352 H 0.35326 0.99136 0.29575 0.0
H5353 H 0.33404 0.98565 0.31059 0.0
H5354 H 0.36589 0.97634 0.29456 0.0
H5355 H 0.37857 0.02257 0.30389 0.0
H5356 H 0.38345 0.0425 0.31832 0.0
H5357 H 0.41566 0.04004 0.33876 0.0
H5358 H 0.41086 0.01996 0.32459 0.0
H5359 H 0.41966 0.98859 0.25173 0.0
H5360 H 0.40187 0.99143 0.26208 0.0
H5361 H 0.42321 0.00119 0.3011 0.0
H5362 H 0.44135 0.99903 0.29061 0.0
H5363 H 0.41182 0.01617 0.29822 0.0
H5364 H 0.39728 0.96855 0.29212 0.0
H5365 H 0.39232 0.94788 0.27893 0.0
H5366 H 0.36346 0.95217 0.25391 0.0
H5367 H 0.3684 0.97299 0.26685 0.0
C5368 C 0.35783 0.99166 0.33532 0.0
C5369 C 0.34525 0.98823 0.3295 0.0
C5370 C 0.36876 0.99493 0.32691 0.0
C5371 C 0.3672 0.99471 0.31256 0.0
C5372 C 0.35468 0.99167 0.30679 0.0
C5373 C 0.34376 0.98849 0.31522 0.0
C5374 C 0.37824 0.99619 0.30368 0.0
C5375 C 0.37586 0.98519 0.29511 0.0
C5376 C 0.39132 0.00756 0.30471 0.0
C5377 C 0.39429 0.01969 0.31322 0.0
C5378 C 0.38663 0.02621 0.31153 0.0
C5379 C 0.38939 0.03755 0.31965 0.0
C5380 C 0.39984 0.04252 0.32946 0.0
C5381 C 0.40757 0.03617 0.33115 0.0
C5382 C 0.40484 0.02482 0.32306 0.0
C5383 C 0.42073 0.99168 0.26243 0.0
C5384 C 0.43202 0.99379 0.27033 0.0
C5385 C 0.41048 0.99318 0.26837 0.0
C5386 C 0.41109 0.99633 0.28243 0.0
C5387 C 0.42252 0.9988 0.29023 0.0
C5388 C 0.43287 0.99754 0.28425 0.0
C5389 C 0.39951 0.99623 0.28926 0.0
C5390 C 0.40179 0.00743 0.29748 0.0
C5391 C 0.38634 0.98495 0.28807 0.0
C5392 C 0.38332 0.9724 0.28034 0.0
C5393 C 0.38994 0.96514 0.28374 0.0
C5394 C 0.38713 0.95339 0.27632 0.0
C5395 C 0.37761 0.94874 0.26556 0.0
C5396 C 0.37086 0.9558 0.26223 0.0
C5397 C 0.37365 0.96757 0.2696 0.0
H5398 H 0.37544 0.93964 0.25983 0.0
H5399 H 0.40196 0.0513 0.33574 0.0
H5400 H 0.65515 0.00129 0.30801 0.0
H5401 H 0.64027 0.00752 0.29565 0.0
H5402 H 0.61191 0.99163 0.32844 0.0
H5403 H 0.62659 0.98512 0.34069 0.0
H5404 H 0.59955 0.98283 0.30393 0.0
H5405 H 0.63324 0.02636 0.32362 0.0
H5406 H 0.65638 0.04527 0.32729 0.0
H5407 H 0.66017 0.05219 0.28396 0.0
H5408 H 0.63713 0.03318 0.27998 0.0
H5409 H 0.55657 0.00941 0.29092 0.0
H5410 H 0.57265 0.0031 0.30011 0.0
H5411 H 0.59924 0.02353 0.26679 0.0
H5412 H 0.58339 0.03038 0.25791 0.0
H5413 H 0.61323 0.02958 0.28922 0.0
H5414 H 0.58053 0.98789 0.26866 0.0
H5415 H 0.55799 0.96862 0.26325 0.0
H5416 H 0.55294 0.95755 0.30567 0.0
H5417 H 0.57538 0.97688 0.31137 0.0
C5418 C 0.6458 0.99923 0.31264 0.0
C5419 C 0.64205 0.99272 0.32534 0.0
C5420 C 0.63731 0.00283 0.30557 0.0
C5421 C 0.625 1.00013 0.31116 0.0
C5422 C 0.62134 0.99379 0.32392 0.0
C5423 C 0.62977 0.99012 0.33094 0.0
C5424 C 0.61569 0.00352 0.30362 0.0
C5425 C 0.60249 0.99309 0.30085 0.0
C5426 C 0.6197 0.01677 0.29903 0.0
C5427 C 0.63351 0.02826 0.30149 0.0
C5428 C 0.63904 0.03185 0.31487 0.0
C5429 C 0.65213 0.04259 0.31701 0.0
C5430 C 0.65974 0.0499 0.30588 0.0
C5431 C 0.65427 0.04651 0.29258 0.0
C5432 C 0.6412 0.03575 0.29037 0.0
C5433 C 0.56576 0.01238 0.28545 0.0
C5434 C 0.56854 0.02007 0.2735 0.0
C5435 C 0.57494 0.00873 0.29068 0.0
C5436 C 0.58706 0.01256 0.28399 0.0
C5437 C 0.58991 0.02034 0.27208 0.0
C5438 C 0.5808 0.02415 0.26694 0.0
C5439 C 0.59695 0.00895 0.28982 0.0
C5440 C 0.61028 0.0193 0.29222 0.0
C5441 C 0.59313 0.99556 0.29384 0.0
C5442 C 0.57961 0.98391 0.29046 0.0
C5443 C 0.57458 0.98141 0.27686 0.0
C5444 C 0.56182 0.97047 0.27373 0.0
C5445 C 0.55402 0.96189 0.28411 0.0
C5446 C 0.55898 0.96422 0.29764 0.0
C5447 C 0.57173 0.97516 0.30082 0.0
H5448 H 0.54415 0.95342 0.28167 0.0
H5449 H 0.66988 0.05821 0.30758 0.0
H5450 H 0.03953 0.66439 0.31114 0.0
H5451 H 0.03035 0.64234 0.29963 0.0
H5452 H 0.99032 0.63274 0.31083 0.0
H5453 H 0.99944 0.65486 0.32248 0.0
H5454 H 0.99575 0.61268 0.31753 0.0
H5455 H 0.99895 0.63805 0.2779 0.0
H5456 H 0.00945 0.65673 0.26153 0.0
H5457 H 0.03932 0.64547 0.25267 0.0
H5458 H 0.02912 0.62683 0.26916 0.0
H5459 H 0.96074 0.54381 0.27842 0.0
H5460 H 0.96864 0.57056 0.28937 0.0
H5461 H 0.01668 0.58735 0.27749 0.0
H5462 H 0.01015 0.56097 0.26632 0.0
H5463 H 0.00556 0.60491 0.26993 0.0
H5464 H 0.00319 0.58073 0.31063 0.0
H5465 H 0.99292 0.56218 0.32717 0.0
H5466 H 0.96128 0.57142 0.3339 0.0
H5467 H 0.97128 0.58992 0.31723 0.0
C5468 C 0.02874 0.65769 0.31102 0.0
C5469 C 0.02023 0.6614 0.31778 0.0
C5470 C 0.0235 0.6451 0.30437 0.0
C5471 C 0.00964 0.63592 0.30431 0.0
C5472 C 0.00105 0.63969 0.31073 0.0
C5473 C 0.00628 0.65236 0.31733 0.0
C5474 C 0.00435 0.62208 0.29837 0.0
C5475 C 0.99759 0.61096 0.30701 0.0
C5476 C 0.0071 0.61988 0.28476 0.0
C5477 C 0.01333 0.63111 0.27487 0.0
C5478 C 0.00783 0.63963 0.27256 0.0
C5479 C 0.01372 0.6502 0.26324 0.0
C5480 C 0.02506 0.65231 0.25609 0.0
C5481 C 0.03053 0.64383 0.25823 0.0
C5482 C 0.0247 0.63326 0.26756 0.0
C5483 C 0.97119 0.55166 0.27887 0.0
C5484 C 0.98425 0.55029 0.26896 0.0
C5485 C 0.9761 0.56851 0.28501 0.0
C5486 C 0.99329 0.58201 0.28382 0.0
C5487 C 0.00641 0.57911 0.27745 0.0
C5488 C 0.00257 0.56261 0.27109 0.0
C5489 C 0.99699 0.59564 0.28909 0.0
C5490 C 0.00353 0.60667 0.28036 0.0
C5491 C 0.99397 0.59776 0.30257 0.0
C5492 C 0.98788 0.58659 0.31254 0.0
C5493 C 0.99397 0.57871 0.31552 0.0
C5494 C 0.98821 0.56823 0.32495 0.0
C5495 C 0.97642 0.56559 0.33154 0.0
C5496 C 0.97039 0.57345 0.32875 0.0
C5497 C 0.9761 0.58395 0.31933 0.0
H5498 H 0.97199 0.55747 0.33885 0.0
H5499 H 0.0296 0.66049 0.24887 0.0
H5500 H 0.36461 0.37505 0.34281 0.0
H5501 H 0.38639 0.38708 0.3317 0.0
H5502 H 0.37295 0.35487 0.30129 0.0
H5503 H 0.35129 0.34269 0.31249 0.0
H5504 H 0.39784 0.36249 0.30956 0.0
H5505 H 0.37421 0.38522 0.29418 0.0
H5506 H 0.36147 0.39738 0.29677 0.0
H5507 H 0.39463 0.42936 0.31943 0.0
H5508 H 0.4075 0.41729 0.31713 0.0
H5509 H 0.44972 0.39761 0.26197 0.0
H5510 H 0.42759 0.38576 0.27247 0.0
H5511 H 0.441 0.41729 0.30363 0.0
H5512 H 0.46304 0.42927 0.29301 0.0
H5513 H 0.416 0.41002 0.29469 0.0
H5514 H 0.43957 0.38702 0.30997 0.0
H5515 H 0.45222 0.3748 0.30702 0.0
H5516 H 0.41895 0.34318 0.28415 0.0
H5517 H 0.40618 0.35532 0.28679 0.0
C5518 C 0.36631 0.37052 0.33378 0.0
C5519 C 0.35621 0.35794 0.3285 0.0
C5520 C 0.37874 0.37743 0.3274 0.0
C5521 C 0.38124 0.37197 0.31554 0.0
C5522 C 0.37125 0.3593 0.31041 0.0
C5523 C 0.35886 0.35236 0.31681 0.0
C5524 C 0.39427 0.37942 0.30846 0.0
C5525 C 0.40173 0.37282 0.30615 0.0
C5526 C 0.39948 0.39299 0.30423 0.0
C5527 C 0.39177 0.40028 0.3056 0.0
C5528 C 0.37874 0.39479 0.29981 0.0
C5529 C 0.37151 0.40168 0.30121 0.0
C5530 C 0.37722 0.41412 0.30829 0.0
C5531 C 0.39021 0.41971 0.31396 0.0
C5532 C 0.39748 0.41286 0.3126 0.0
C5533 C 0.44786 0.40209 0.27094 0.0
C5534 C 0.45802 0.41448 0.27655 0.0
C5535 C 0.43526 0.39527 0.27699 0.0
C5536 C 0.43268 0.40058 0.28891 0.0
C5537 C 0.44275 0.41303 0.29442 0.0
C5538 C 0.45532 0.41986 0.28835 0.0
C5539 C 0.41957 0.39309 0.29582 0.0
C5540 C 0.4121 0.39968 0.2981 0.0
C5541 C 0.41433 0.37949 0.29999 0.0
C5542 C 0.42197 0.37215 0.29846 0.0
C5543 C 0.43499 0.37751 0.30422 0.0
C5544 C 0.44218 0.37059 0.30262 0.0
C5545 C 0.4364 0.35824 0.29537 0.0
C5546 C 0.42342 0.35276 0.28974 0.0
C5547 C 0.4162 0.35965 0.2913 0.0
H5548 H 0.44198 0.3529 0.29414 0.0
H5549 H 0.37161 0.41944 0.30936 0.0
H5550 H 0.3469 0.33045 0.37051 0.0
H5551 H 0.35879 0.32052 0.3825 0.0
H5552 H 0.32212 0.28201 0.38341 0.0
H5553 H 0.31009 0.29183 0.37164 0.0
H5554 H 0.33596 0.28703 0.4073 0.0
H5555 H 0.34548 0.28846 0.35912 0.0
H5556 H 0.35337 0.29953 0.33686 0.0
H5557 H 0.39267 0.32533 0.35455 0.0
H5558 H 0.38495 0.31454 0.37699 0.0
H5559 H 0.35835 0.23873 0.40914 0.0
H5560 H 0.34859 0.25311 0.4037 0.0
H5561 H 0.38757 0.28877 0.40913 0.0
H5562 H 0.39737 0.27441 0.4149 0.0
H5563 H 0.37453 0.28766 0.38402 0.0
H5564 H 0.36521 0.2837 0.43174 0.0
H5565 H 0.35692 0.27191 0.45358 0.0
H5566 H 0.31686 0.25004 0.43639 0.0
H5567 H 0.32495 0.26155 0.41436 0.0
C5568 C 0.34131 0.31989 0.37335 0.0
C5569 C 0.32753 0.31193 0.36999 0.0
C5570 C 0.34815 0.31423 0.38019 0.0
C5571 C 0.34138 0.30048 0.3837 0.0
C5572 C 0.32755 0.29264 0.3808 0.0
C5573 C 0.32069 0.29828 0.37401 0.0
C5574 C 0.34877 0.29402 0.38978 0.0
C5575 C 0.34434 0.2871 0.40217 0.0
C5576 C 0.35991 0.29437 0.38326 0.0
C5577 C 0.36459 0.30081 0.36976 0.0
C5578 C 0.35577 0.29657 0.35829 0.0
C5579 C 0.36022 0.30278 0.34563 0.0
C5580 C 0.3735 0.31316 0.3443 0.0
C5581 C 0.38237 0.31731 0.35561 0.0
C5582 C 0.37797 0.31115 0.3683 0.0
C5583 C 0.36481 0.24964 0.40935 0.0
C5584 C 0.37866 0.25544 0.41225 0.0
C5585 C 0.35922 0.25784 0.40628 0.0
C5586 C 0.36737 0.272 0.406 0.0
C5587 C 0.38113 0.27786 0.40926 0.0
C5588 C 0.3867 0.26966 0.41253 0.0
C5589 C 0.36159 0.28051 0.40141 0.0
C5590 C 0.36629 0.28778 0.38926 0.0
C5591 C 0.35064 0.28037 0.40811 0.0
C5592 C 0.34572 0.27341 0.42134 0.0
C5593 C 0.35465 0.27629 0.43257 0.0
C5594 C 0.34999 0.26967 0.445 0.0
C5595 C 0.33638 0.26021 0.44636 0.0
C5596 C 0.3274 0.25737 0.43531 0.0
C5597 C 0.33202 0.26394 0.42285 0.0
H5598 H 0.33278 0.2551 0.456 0.0
H5599 H 0.37692 0.31796 0.3345 0.0
H5600 H 0.67187 0.01146 0.37432 0.0
H5601 H 0.68158 0.03363 0.38601 0.0
H5602 H 0.72102 0.04307 0.37262 0.0
H5603 H 0.71153 0.0208 0.36167 0.0
H5604 H 0.72321 0.05202 0.39733 0.0
H5605 H 0.6988 0.054 0.35604 0.0
H5606 H 0.67809 0.04637 0.34198 0.0
H5607 H 0.65961 0.0553 0.37551 0.0
H5608 H 0.68015 0.06283 0.38978 0.0
H5609 H 0.76133 0.1227 0.39091 0.0
H5610 H 0.74813 0.09803 0.38845 0.0
H5611 H 0.71451 0.09847 0.40742 0.0
H5612 H 0.72771 0.12327 0.40974 0.0
H5613 H 0.70664 0.08352 0.38455 0.0
H5614 H 0.73172 0.08529 0.42429 0.0
H5615 H 0.75178 0.09274 0.43927 0.0
H5616 H 0.76835 0.07662 0.41023 0.0
H5617 H 0.74848 0.06926 0.39497 0.0
C5618 C 0.68262 0.01826 0.37395 0.0
C5619 C 0.69091 0.0144 0.36698 0.0
C5620 C 0.68816 0.03096 0.38059 0.0
C5621 C 0.70203 0.04018 0.38 0.0
C5622 C 0.7103 0.03618 0.37326 0.0
C5623 C 0.70484 0.02342 0.36693 0.0
C5624 C 0.70809 0.05417 0.38596 0.0
C5625 C 0.71963 0.05893 0.39445 0.0
C5626 C 0.70311 0.06307 0.38276 0.0
C5627 C 0.69093 0.05883 0.37401 0.0
C5628 C 0.6903 0.05428 0.36041 0.0
C5629 C 0.67859 0.04998 0.35241 0.0
C5630 C 0.66752 0.0503 0.35788 0.0
C5631 C 0.66817 0.05502 0.3713 0.0
C5632 C 0.67984 0.05931 0.37934 0.0
C5633 C 0.75122 0.11751 0.3948 0.0
C5634 C 0.74561 0.12488 0.40069 0.0
C5635 C 0.74368 0.10341 0.39342 0.0
C5636 C 0.73037 0.09636 0.39792 0.0
C5637 C 0.72478 0.10368 0.40396 0.0
C5638 C 0.73234 0.11781 0.40535 0.0
C5639 C 0.72211 0.0815 0.39535 0.0
C5640 C 0.71014 0.07658 0.38757 0.0
C5641 C 0.72665 0.07243 0.39927 0.0
C5642 C 0.73862 0.07679 0.40844 0.0
C5643 C 0.73968 0.08341 0.42105 0.0
C5644 C 0.75102 0.08761 0.4296 0.0
C5645 C 0.76134 0.08517 0.4257 0.0
C5646 C 0.76034 0.07851 0.41324 0.0
C5647 C 0.74903 0.0743 0.40465 0.0
H5648 H 0.77011 0.08843 0.43233 0.0
H5649 H 0.65843 0.04689 0.35175 0.0
H5650 H 0.97988 0.68672 0.34663 0.0
H5651 H 0.95795 0.67695 0.35737 0.0
H5652 H 0.9683 0.65242 0.38287 0.0
H5653 H 0.99034 0.66219 0.37218 0.0
H5654 H 0.94216 0.63812 0.37166 0.0
H5655 H 0.96981 0.67944 0.39679 0.0
H5656 H 0.98564 0.70394 0.3997 0.0
H5657 H 0.95702 0.71293 0.38043 0.0
H5658 H 0.94108 0.68847 0.37721 0.0
H5659 H 0.88598 0.61857 0.41469 0.0
H5660 H 0.90914 0.62772 0.40705 0.0
H5661 H 0.90502 0.65709 0.38262 0.0
H5662 H 0.88203 0.6482 0.39051 0.0
H5663 H 0.92894 0.66864 0.39512 0.0
H5664 H 0.90194 0.6276 0.36858 0.0
H5665 H 0.88608 0.60315 0.36522 0.0
H5666 H 0.91338 0.59368 0.38669 0.0
H5667 H 0.92933 0.61809 0.39035 0.0
C5668 C 0.97748 0.67919 0.35446 0.0
C5669 C 0.98686 0.67526 0.3586 0.0
C5670 C 0.96496 0.67366 0.36063 0.0
C5671 C 0.96157 0.66408 0.37102 0.0
C5672 C 0.97075 0.65983 0.3749 0.0
C5673 C 0.98333 0.66544 0.3688 0.0
C5674 C 0.9485 0.6587 0.37793 0.0
C5675 C 0.93933 0.64475 0.37699 0.0
C5676 C 0.94476 0.6674 0.38468 0.0
C5677 C 0.9543 0.68212 0.38665 0.0
C5678 C 0.96693 0.68664 0.39307 0.0
C5679 C 0.97592 0.70052 0.39479 0.0
C5680 C 0.97235 0.70999 0.39023 0.0
C5681 C 0.95977 0.70559 0.38395 0.0
C5682 C 0.95075 0.69172 0.38218 0.0
C5683 C 0.89012 0.62713 0.40789 0.0
C5684 C 0.8823 0.63284 0.40339 0.0
C5685 C 0.9033 0.63227 0.40343 0.0
C5686 C 0.90879 0.64302 0.39416 0.0
C5687 C 0.90104 0.64884 0.38981 0.0
C5688 C 0.88791 0.64376 0.39433 0.0
C5689 C 0.92246 0.64806 0.38867 0.0
C5690 C 0.93178 0.66198 0.38989 0.0
C5691 C 0.9263 0.63933 0.38213 0.0
C5692 C 0.91676 0.62466 0.37987 0.0
C5693 C 0.90452 0.6203 0.37268 0.0
C5694 C 0.89552 0.60645 0.37071 0.0
C5695 C 0.8987 0.59687 0.37577 0.0
C5696 C 0.91091 0.60111 0.38279 0.0
C5697 C 0.91994 0.61495 0.38481 0.0
H5698 H 0.89172 0.58615 0.37423 0.0
H5699 H 0.97932 0.72073 0.39157 0.0
H5700 H 0.3758 0.03586 0.7068 0.0
H5701 H 0.38699 0.0271 0.72152 0.0
H5702 H 0.361 0.9867 0.70527 0.0
H5703 H 0.34939 0.9954 0.69064 0.0
H5704 H 0.36488 0.98617 0.73238 0.0
H5705 H 0.39316 0.00559 0.69418 0.0
H5706 H 0.40589 0.02312 0.6772 0.0
H5707 H 0.43102 0.05023 0.70946 0.0
H5708 H 0.41829 0.03294 0.72667 0.0
H5709 H 0.40879 0.95732 0.76206 0.0
H5710 H 0.39222 0.96454 0.74541 0.0
H5711 H 0.42009 0.01345 0.75955 0.0
H5712 H 0.43738 0.00755 0.77671 0.0
H5713 H 0.41465 0.00852 0.73099 0.0
H5714 H 0.38552 0.98909 0.76904 0.0
H5715 H 0.37255 0.97148 0.78586 0.0
H5716 H 0.34909 0.94384 0.75317 0.0
H5717 H 0.36205 0.96124 0.73613 0.0
C5718 C 0.3724 0.02509 0.70634 0.0
C5719 C 0.36179 0.01634 0.69742 0.0
C5720 C 0.37886 0.0201 0.71475 0.0
C5721 C 0.37505 0.0063 0.71426 0.0
C5722 C 0.36416 0.99741 0.70573 0.0
C5723 C 0.35755 0.00239 0.69738 0.0
C5724 C 0.38267 0.00133 0.72257 0.0
C5725 C 0.37573 0.99086 0.73187 0.0
C5726 C 0.39687 0.00761 0.72207 0.0
C5727 C 0.40469 0.01799 0.71173 0.0
C5728 C 0.40134 0.01532 0.69767 0.0
C5729 C 0.40856 0.02521 0.688 0.0
C5730 C 0.41924 0.03779 0.69225 0.0
C5731 C 0.42274 0.04049 0.70618 0.0
C5732 C 0.41553 0.03064 0.7159 0.0
C5733 C 0.41044 0.96757 0.7622 0.0
C5734 C 0.42628 0.98211 0.76921 0.0
C5735 C 0.40059 0.97228 0.75137 0.0
C5736 C 0.40478 0.98982 0.7501 0.0
C5737 C 0.41823 0.00316 0.76024 0.0
C5738 C 0.42867 0.99951 0.7714 0.0
C5739 C 0.39686 0.99348 0.74082 0.0
C5740 C 0.40378 0.00374 0.73137 0.0
C5741 C 0.38267 0.98688 0.74107 0.0
C5742 C 0.37487 0.97641 0.7513 0.0
C5743 C 0.37768 0.97921 0.76543 0.0
C5744 C 0.37031 0.96928 0.77501 0.0
C5745 C 0.36004 0.95653 0.77059 0.0
C5746 C 0.35708 0.95371 0.75658 0.0
C5747 C 0.36442 0.96361 0.74695 0.0
H5748 H 0.35434 0.94885 0.77802 0.0
H5749 H 0.42481 0.04544 0.68475 0.0
H5750 H 0.97552 0.34898 0.68941 0.0
H5751 H 0.98041 0.36769 0.70529 0.0
H5752 H 0.016 0.36724 0.71998 0.0
H5753 H 0.01056 0.34789 0.70473 0.0
H5754 H 0.00421 0.36901 0.74052 0.0
H5755 H 0.01596 0.39347 0.69864 0.0
H5756 H 0.01297 0.39865 0.67474 0.0
H5757 H 0.97914 0.40288 0.68631 0.0
H5758 H 0.98182 0.39755 0.71025 0.0
H5759 H 0.03633 0.43641 0.78208 0.0
H5760 H 0.03043 0.41465 0.76266 0.0
H5761 H 0.98462 0.40826 0.75255 0.0
H5762 H 0.98915 0.42976 0.77187 0.0
H5763 H 0.00178 0.41016 0.72845 0.0
H5764 H 0.99119 0.38599 0.77068 0.0
H5765 H 0.9954 0.38166 0.79449 0.0
H5766 H 0.02935 0.37826 0.78161 0.0
H5767 H 0.02546 0.38276 0.75774 0.0
C5768 C 0.98449 0.35302 0.6959 0.0
C5769 C 0.99269 0.34703 0.69585 0.0
C5770 C 0.98733 0.36379 0.70494 0.0
C5771 C 0.99871 0.36909 0.71376 0.0
C5772 C 0.00714 0.36335 0.71334 0.0
C5773 C 0.00408 0.35234 0.70458 0.0
C5774 C 0.00134 0.37998 0.72403 0.0
C5775 C 0.00396 0.37813 0.73775 0.0
C5776 C 0.00065 0.39177 0.7206 0.0
C5777 C 0.99902 0.39498 0.70622 0.0
C5778 C 0.00782 0.39541 0.69607 0.0
C5779 C 0.00619 0.39839 0.68252 0.0
C5780 C 0.99585 0.40106 0.67901 0.0
C5781 C 0.98714 0.40079 0.68905 0.0
C5782 C 0.98871 0.39781 0.70261 0.0
C5783 C 0.02651 0.43075 0.77716 0.0
C5784 C 0.01423 0.437 0.77715 0.0
C5785 C 0.02299 0.41768 0.76456 0.0
C5786 C 0.00728 0.40973 0.75494 0.0
C5787 C 0.99409 0.41368 0.75815 0.0
C5788 C 0.99657 0.42659 0.77058 0.0
C5789 C 0.00485 0.39917 0.74465 0.0
C5790 C 0.00216 0.40107 0.73104 0.0
C5791 C 0.00577 0.38759 0.74809 0.0
C5792 C 0.00812 0.38487 0.76244 0.0
C5793 C 0.99963 0.38445 0.77294 0.0
C5794 C 0.00194 0.38193 0.78645 0.0
C5795 C 0.01266 0.37972 0.78957 0.0
C5796 C 0.02107 0.37999 0.77918 0.0
C5797 C 0.01881 0.38251 0.76566 0.0
H5798 H 0.01443 0.37777 0.80004 0.0
H5799 H 0.99461 0.40337 0.66851 0.0
H5800 H 0.65167 0.65248 0.71008 0.0
H5801 H 0.63091 0.63949 0.72265 0.0
H5802 H 0.61475 0.60992 0.68946 0.0
H5803 H 0.63571 0.6226 0.67712 0.0
H5804 H 0.60669 0.6336 0.71835 0.0
H5805 H 0.59293 0.57895 0.70061 0.0
H5806 H 0.60446 0.5662 0.69445 0.0
H5807 H 0.63919 0.59419 0.71838 0.0
H5808 H 0.62781 0.607 0.72483 0.0
H5809 H 0.53824 0.58925 0.73024 0.0
H5810 H 0.56061 0.60237 0.72071 0.0
H5811 H 0.57529 0.58217 0.74745 0.0
H5812 H 0.55273 0.56841 0.75636 0.0
H5813 H 0.58546 0.58388 0.72437 0.0
H5814 H 0.58251 0.61648 0.75287 0.0
H5815 H 0.57263 0.62977 0.76229 0.0
H5816 H 0.57436 0.64687 0.72272 0.0
H5817 H 0.5841 0.63355 0.71302 0.0
C5818 C 0.64371 0.64317 0.70549 0.0
C5819 C 0.64534 0.63852 0.69264 0.0
C5820 C 0.63182 0.63576 0.71268 0.0
C5821 C 0.62128 0.6236 0.70712 0.0
C5822 C 0.62283 0.61908 0.69416 0.0
C5823 C 0.63479 0.62638 0.68706 0.0
C5824 C 0.60856 0.61584 0.71473 0.0
C5825 C 0.60208 0.62273 0.7197 0.0
C5826 C 0.60266 0.60171 0.71686 0.0
C5827 C 0.60956 0.59401 0.71309 0.0
C5828 C 0.60301 0.58236 0.70459 0.0
C5829 C 0.60952 0.57512 0.70105 0.0
C5830 C 0.62257 0.57941 0.70598 0.0
C5831 C 0.62911 0.59091 0.71452 0.0
C5832 C 0.62264 0.59817 0.71811 0.0
C5833 C 0.54628 0.58769 0.73414 0.0
C5834 C 0.54373 0.57798 0.74425 0.0
C5835 C 0.5591 0.59526 0.72875 0.0
C5836 C 0.56979 0.59353 0.73356 0.0
C5837 C 0.56726 0.58378 0.74361 0.0
C5838 C 0.55436 0.57599 0.7488 0.0
C5839 C 0.58346 0.6016 0.72778 0.0
C5840 C 0.5901 0.59476 0.72311 0.0
C5841 C 0.58976 0.61586 0.7264 0.0
C5842 C 0.58394 0.62393 0.7322 0.0
C5843 C 0.5807 0.62301 0.74616 0.0
C5844 C 0.57514 0.63056 0.75155 0.0
C5845 C 0.57284 0.63914 0.7431 0.0
C5846 C 0.57614 0.64021 0.72925 0.0
C5847 C 0.5817 0.63268 0.7238 0.0
H5848 H 0.56853 0.64497 0.7473 0.0
H5849 H 0.62759 0.57379 0.70322 0.0
H5850 H 0.67963 0.68902 0.62964 0.0
H5851 H 0.66839 0.70013 0.61865 0.0
H5852 H 0.63999 0.68741 0.65147 0.0
H5853 H 0.65086 0.67562 0.66212 0.0
H5854 H 0.62818 0.68825 0.62779 0.0
H5855 H 0.66894 0.71846 0.65276 0.0
H5856 H 0.69302 0.72832 0.65877 0.0
H5857 H 0.70334 0.74223 0.61753 0.0
H5858 H 0.6793 0.73228 0.61123 0.0
H5859 H 0.61224 0.74123 0.62036 0.0
H5860 H 0.61917 0.7253 0.62874 0.0
H5861 H 0.6499 0.7391 0.5982 0.0
H5862 H 0.64361 0.75561 0.59042 0.0
H5863 H 0.65994 0.73718 0.62106 0.0
H5864 H 0.61851 0.707 0.59637 0.0
H5865 H 0.59428 0.69693 0.59098 0.0
H5866 H 0.58503 0.68317 0.63239 0.0
H5867 H 0.60922 0.69329 0.63805 0.0
C5868 C 0.67075 0.68828 0.63427 0.0
C5869 C 0.66613 0.68158 0.64673 0.0
C5870 C 0.66439 0.69469 0.62805 0.0
C5871 C 0.65361 0.69496 0.63447 0.0
C5872 C 0.64835 0.68741 0.64639 0.0
C5873 C 0.65453 0.68068 0.65246 0.0
C5874 C 0.6488 0.7042 0.62948 0.0
C5875 C 0.63509 0.69897 0.62641 0.0
C5876 C 0.65783 0.71819 0.62762 0.0
C5877 C 0.67231 0.72455 0.63151 0.0
C5878 C 0.67634 0.72359 0.64497 0.0
C5879 C 0.68998 0.72918 0.64842 0.0
C5880 C 0.6997 0.73588 0.63853 0.0
C5881 C 0.6958 0.73704 0.62518 0.0
C5882 C 0.68217 0.73144 0.62167 0.0
C5883 C 0.62042 0.74079 0.6154 0.0
C5884 C 0.6272 0.74956 0.6046 0.0
C5885 C 0.62431 0.7316 0.62012 0.0
C5886 C 0.63487 0.73074 0.61391 0.0
C5887 C 0.64166 0.73949 0.60311 0.0
C5888 C 0.63798 0.74888 0.59859 0.0
C5889 C 0.63931 0.72122 0.61903 0.0
C5890 C 0.653 0.72644 0.62229 0.0
C5891 C 0.63022 0.70727 0.62114 0.0
C5892 C 0.61568 0.70099 0.61765 0.0
C5893 C 0.61131 0.70188 0.60433 0.0
C5894 C 0.59758 0.69615 0.60123 0.0
C5895 C 0.58812 0.68944 0.61134 0.0
C5896 C 0.59237 0.68838 0.62456 0.0
C5897 C 0.60608 0.69408 0.62772 0.0
H5898 H 0.5775 0.68503 0.60893 0.0
H5899 H 0.71026 0.74017 0.64122 0.0
H5900 H 0.33418 0.9862 0.64002 0.0
H5901 H 0.32305 0.96308 0.63034 0.0
H5902 H 0.28789 0.95319 0.654 0.0
H5903 H 0.29905 0.97605 0.66394 0.0
H5904 H 0.29333 0.93349 0.65549 0.0
H5905 H 0.28951 0.95957 0.61883 0.0
H5906 H 0.29777 0.97792 0.60198 0.0
H5907 H 0.32167 0.96274 0.5835 0.0
H5908 H 0.31369 0.94439 0.60037 0.0
H5909 H 0.23923 0.86699 0.62192 0.0
H5910 H 0.25534 0.89397 0.63363 0.0
H5911 H 0.29415 0.90256 0.6041 0.0
H5912 H 0.27901 0.87587 0.59142 0.0
H5913 H 0.28848 0.92409 0.60531 0.0
H5914 H 0.29099 0.89721 0.64131 0.0
H5915 H 0.28237 0.87877 0.65806 0.0
H5916 H 0.26036 0.89554 0.67771 0.0
H5917 H 0.2687 0.91399 0.66095 0.0
C5918 C 0.32408 0.97908 0.64314 0.0
C5919 C 0.31749 0.98295 0.65273 0.0
C5920 C 0.3177 0.96589 0.63756 0.0
C5921 C 0.30455 0.95641 0.64132 0.0
C5922 C 0.29802 0.96029 0.65094 0.0
C5923 C 0.30442 0.97339 0.65659 0.0
C5924 C 0.29758 0.94238 0.63545 0.0
C5925 C 0.2921 0.93147 0.64451 0.0
C5926 C 0.29631 0.93969 0.62112 0.0
C5927 C 0.30112 0.9507 0.61096 0.0
C5928 C 0.29662 0.96021 0.61125 0.0
C5929 C 0.30123 0.9706 0.60168 0.0
C5930 C 0.31027 0.97152 0.5917 0.0
C5931 C 0.31469 0.96203 0.59125 0.0
C5932 C 0.31011 0.95163 0.60081 0.0
C5933 C 0.24959 0.87334 0.61906 0.0
C5934 C 0.25666 0.86953 0.60365 0.0
C5935 C 0.2595 0.89035 0.62585 0.0
C5936 C 0.27618 0.90144 0.61962 0.0
C5937 C 0.28396 0.89577 0.60717 0.0
C5938 C 0.27489 0.87894 0.59973 0.0
C5939 C 0.284 0.91533 0.62536 0.0
C5940 C 0.28971 0.92617 0.61628 0.0
C5941 C 0.28537 0.91798 0.63966 0.0
C5942 C 0.28036 0.90691 0.64978 0.0
C5943 C 0.28422 0.89691 0.64913 0.0
C5944 C 0.2794 0.88647 0.65864 0.0
C5945 C 0.27079 0.88596 0.66892 0.0
C5946 C 0.26702 0.89593 0.66973 0.0
C5947 C 0.2718 0.90639 0.66024 0.0
H5948 H 0.26707 0.87787 0.67627 0.0
H5949 H 0.31384 0.97957 0.5843 0.0
H5950 H 0.01472 0.34136 0.65061 0.0
H5951 H 0.03661 0.35426 0.63979 0.0
H5952 H 0.04184 0.31914 0.64096 0.0
H5953 H 0.02011 0.30619 0.65169 0.0
H5954 H 0.06397 0.34244 0.65115 0.0
H5955 H 0.03391 0.32813 0.61144 0.0
H5956 H 0.0149 0.32626 0.59746 0.0
H5957 H 0.03388 0.36968 0.59585 0.0
H5958 H 0.05293 0.37181 0.60999 0.0
H5959 H 0.11866 0.35844 0.60935 0.0
H5960 H 0.09606 0.34787 0.61857 0.0
H5961 H 0.09437 0.38451 0.61147 0.0
H5962 H 0.11693 0.39503 0.6018 0.0
H5963 H 0.07062 0.36257 0.60494 0.0
H5964 H 0.10105 0.37736 0.64334 0.0
H5965 H 0.12018 0.37991 0.65759 0.0
H5966 H 0.10067 0.33676 0.6625 0.0
H5967 H 0.0815 0.33392 0.64809 0.0
C5968 C 0.02049 0.33635 0.6485 0.0
C5969 C 0.01562 0.32272 0.65203 0.0
C5970 C 0.03298 0.34374 0.64228 0.0
C5971 C 0.04081 0.33763 0.63955 0.0
C5972 C 0.03595 0.32404 0.64299 0.0
C5973 C 0.02347 0.31664 0.64909 0.0
C5974 C 0.05427 0.34541 0.63347 0.0
C5975 C 0.06542 0.34674 0.64099 0.0
C5976 C 0.05619 0.35141 0.62043 0.0
C5977 C 0.04477 0.35013 0.6119 0.0
C5978 C 0.03397 0.33728 0.6082 0.0
C5979 C 0.0232 0.33617 0.60023 0.0
C5980 C 0.02316 0.34784 0.5958 0.0
C5981 C 0.03391 0.36065 0.5993 0.0
C5982 C 0.0447 0.36181 0.60729 0.0
C5983 C 0.11338 0.36416 0.60952 0.0
C5984 C 0.11947 0.37749 0.60461 0.0
C5985 C 0.10052 0.35816 0.61491 0.0
C5986 C 0.09358 0.36546 0.61587 0.0
C5987 C 0.09952 0.37869 0.61081 0.0
C5988 C 0.11239 0.38468 0.6053 0.0
C5989 C 0.0803 0.35932 0.6225 0.0
C5990 C 0.0692 0.35836 0.61514 0.0
C5991 C 0.07842 0.35376 0.63578 0.0
C5992 C 0.08988 0.35542 0.64454 0.0
C5993 C 0.10088 0.3684 0.64738 0.0
C5994 C 0.11172 0.3699 0.65549 0.0
C5995 C 0.11165 0.3585 0.66092 0.0
C5996 C 0.10071 0.34558 0.65827 0.0
C5997 C 0.08985 0.34402 0.65015 0.0
H5998 H 0.12006 0.35969 0.6672 0.0
H5999 H 0.01481 0.34696 0.58963 0.0
H6000 H 0.31955 0.33409 0.63801 0.0
H6001 H 0.30837 0.34574 0.62819 0.0
H6002 H 0.29236 0.34649 0.66784 0.0
H6003 H 0.30289 0.33399 0.67748 0.0
H6004 H 0.27426 0.34188 0.64988 0.0
H6005 H 0.32038 0.37538 0.65364 0.0
H6006 H 0.34484 0.38531 0.65105 0.0
H6007 H 0.33966 0.38227 0.60719 0.0
H6008 H 0.31514 0.37216 0.60951 0.0
H6009 H 0.25876 0.39306 0.626 0.0
H6010 H 0.26928 0.38204 0.63881 0.0
H6011 H 0.27776 0.36842 0.60073 0.0
H6012 H 0.26704 0.37913 0.58791 0.0
H6013 H 0.30011 0.38135 0.62005 0.0
H6014 H 0.25276 0.34652 0.6181 0.0
H6015 H 0.22872 0.33798 0.62233 0.0
H6016 H 0.23733 0.34607 0.66551 0.0
H6017 H 0.26146 0.35483 0.66151 0.0
C6018 C 0.3136 0.3367 0.6446 0.0
C6019 C 0.31211 0.33322 0.65849 0.0
C6020 C 0.3073 0.34346 0.63902 0.0
C6021 C 0.2998 0.34736 0.64734 0.0
C6022 C 0.29813 0.34366 0.66121 0.0
C6023 C 0.30414 0.33654 0.66671 0.0
C6024 C 0.2937 0.3552 0.64147 0.0
C6025 C 0.28 0.35065 0.64356 0.0
C6026 C 0.30113 0.36669 0.63321 0.0
C6027 C 0.3159 0.37293 0.63175 0.0
C6028 C 0.32444 0.37677 0.64344 0.0
C6029 C 0.33832 0.38243 0.64202 0.0
C6030 C 0.3438 0.3844 0.62896 0.0
C6031 C 0.33541 0.38074 0.6173 0.0
C6032 C 0.32152 0.37506 0.61866 0.0
C6033 C 0.26283 0.38767 0.62039 0.0
C6034 C 0.26213 0.38698 0.60596 0.0
C6035 C 0.26882 0.38139 0.6277 0.0
C6036 C 0.27427 0.37444 0.62069 0.0
C6037 C 0.27364 0.37379 0.60631 0.0
C6038 C 0.26753 0.3799 0.59901 0.0
C6039 C 0.28072 0.36782 0.62825 0.0
C6040 C 0.29447 0.37265 0.6265 0.0
C6041 C 0.27344 0.35686 0.6371 0.0
C6042 C 0.25892 0.35146 0.63949 0.0
C6043 C 0.24954 0.34658 0.62848 0.0
C6044 C 0.23589 0.34168 0.63084 0.0
C6045 C 0.2315 0.34152 0.64418 0.0
C6046 C 0.24074 0.34622 0.65519 0.0
C6047 C 0.2544 0.35114 0.65288 0.0
H6048 H 0.22094 0.33772 0.64598 0.0
H6049 H 0.35454 0.38877 0.62788 0.0
H6050 H 0.66148 0.98833 0.64776 0.0
H6051 H 0.6484 0.9659 0.63681 0.0
H6052 H 0.68486 0.96441 0.63034 0.0
H6053 H 0.69799 0.98678 0.64102 0.0
H6054 H 0.66839 0.95448 0.60831 0.0
H6055 H 0.66473 0.94875 0.6575 0.0
H6056 H 0.65913 0.95278 0.68078 0.0
H6057 H 0.61804 0.93749 0.66782 0.0
H6058 H 0.62345 0.93355 0.64439 0.0
H6059 H 0.65033 0.88524 0.60771 0.0
H6060 H 0.65906 0.90938 0.61251 0.0
H6061 H 0.6186 0.90285 0.61291 0.0
H6062 H 0.60979 0.87862 0.60789 0.0
H6063 H 0.63405 0.91722 0.63588 0.0
H6064 H 0.63752 0.91967 0.5873 0.0
H6065 H 0.64356 0.91524 0.56441 0.0
H6066 H 0.68534 0.9363 0.57643 0.0
H6067 H 0.67955 0.94069 0.59947 0.0
C6068 C 0.66674 0.98329 0.6439 0.0
C6069 C 0.68081 0.98937 0.64538 0.0
C6070 C 0.65923 0.97045 0.63767 0.0
C6071 C 0.66564 0.96341 0.63288 0.0
C6072 C 0.6797 0.96964 0.63394 0.0
C6073 C 0.68719 0.98245 0.64012 0.0
C6074 C 0.65781 0.94931 0.62736 0.0
C6075 C 0.66091 0.94633 0.61435 0.0
C6076 C 0.6478 0.93871 0.63509 0.0
C6077 C 0.64453 0.94102 0.64917 0.0
C6078 C 0.65453 0.94635 0.65959 0.0
C6079 C 0.65139 0.9486 0.67282 0.0
C6080 C 0.63825 0.94544 0.67577 0.0
C6081 C 0.62822 0.93997 0.66551 0.0
C6082 C 0.63131 0.93772 0.65226 0.0
C6083 C 0.6433 0.88897 0.60865 0.0
C6084 C 0.62938 0.88003 0.60752 0.0
C6085 C 0.64829 0.90277 0.61135 0.0
C6086 C 0.63947 0.90791 0.61302 0.0
C6087 C 0.62556 0.89908 0.61166 0.0
C6088 C 0.62056 0.88527 0.6088 0.0
C6089 C 0.64486 0.92236 0.61698 0.0
C6090 C 0.64133 0.9254 0.62971 0.0
C6091 C 0.65453 0.93299 0.60903 0.0
C6092 C 0.65808 0.93043 0.59516 0.0
C6093 C 0.64799 0.92327 0.5851 0.0
C6094 C 0.65137 0.92078 0.57209 0.0
C6095 C 0.66482 0.92546 0.56897 0.0
C6096 C 0.67492 0.93267 0.57886 0.0
C6097 C 0.6716 0.93518 0.5919 0.0
H6098 H 0.66741 0.92353 0.55889 0.0
H6099 H 0.63583 0.94718 0.68601 0.0
H6100 H 0.0148 0.71139 0.66264 0.0
H6101 H 0.03616 0.72349 0.65081 0.0
H6102 H 0.03307 0.68539 0.63865 0.0
H6103 H 0.01146 0.67314 0.65026 0.0
H6104 H 0.05894 0.7057 0.65095 0.0
H6105 H 0.02804 0.70051 0.61485 0.0
H6106 H 0.00888 0.70142 0.60409 0.0
H6107 H 0.02891 0.74454 0.61097 0.0
H6108 H 0.04812 0.74386 0.62197 0.0
H6109 H 0.11733 0.7407 0.61039 0.0
H6110 H 0.09426 0.72432 0.61672 0.0
H6111 H 0.08673 0.75727 0.62573 0.0
H6112 H 0.10965 0.7736 0.61926 0.0
H6113 H 0.06539 0.73683 0.6127 0.0
H6114 H 0.09481 0.74185 0.65098 0.0
H6115 H 0.11395 0.74141 0.66243 0.0
H6116 H 0.09668 0.69907 0.65217 0.0
H6117 H 0.07751 0.69932 0.64047 0.0
C6118 C 0.01864 0.70557 0.65742 0.0
C6119 C 0.01146 0.69132 0.65736 0.0
C6120 C 0.03081 0.7125 0.65064 0.0
C6121 C 0.03614 0.70533 0.64382 0.0
C6122 C 0.02909 0.69109 0.64384 0.0
C6123 C 0.01675 0.68413 0.65043 0.0
C6124 C 0.04921 0.71285 0.63692 0.0
C6125 C 0.06033 0.71229 0.64239 0.0
C6126 C 0.05101 0.72164 0.62595 0.0
C6127 C 0.03948 0.72211 0.61935 0.0
C6128 C 0.02831 0.71017 0.61419 0.0
C6129 C 0.01745 0.71065 0.60802 0.0
C6130 C 0.01766 0.72303 0.60688 0.0
C6131 C 0.02875 0.73496 0.61188 0.0
C6132 C 0.03964 0.73453 0.61807 0.0
C6133 C 0.11065 0.7444 0.6135 0.0
C6134 C 0.11523 0.75842 0.61419 0.0
C6135 C 0.09752 0.73506 0.61719 0.0
C6136 C 0.08879 0.73957 0.6218 0.0
C6137 C 0.09325 0.75354 0.62215 0.0
C6138 C 0.10635 0.76287 0.61846 0.0
C6139 C 0.07522 0.72989 0.62688 0.0
C6140 C 0.064 0.73007 0.6211 0.0
C6141 C 0.07334 0.72082 0.63764 0.0
C6142 C 0.08482 0.72064 0.64471 0.0
C6143 C 0.09515 0.73247 0.65107 0.0
C6144 C 0.10599 0.73225 0.65762 0.0
C6145 C 0.10655 0.72022 0.65799 0.0
C6146 C 0.09624 0.70838 0.65185 0.0
C6147 C 0.08539 0.70856 0.64526 0.0
H6148 H 0.11495 0.72007 0.66307 0.0
H6149 H 0.00924 0.72338 0.60209 0.0
H6150 H 0.00755 0.66165 0.69433 0.0
H6151 H 0.01906 0.65149 0.70697 0.0
H6152 H 0.98501 0.63145 0.73338 0.0
H6153 H 0.9736 0.6415 0.72092 0.0
H6154 H 0.00866 0.63916 0.74743 0.0
H6155 H 0.98642 0.61628 0.70393 0.0
H6156 H 0.9835 0.61564 0.67876 0.0
H6157 H 0.02469 0.62596 0.67392 0.0
H6158 H 0.02791 0.62686 0.6991 0.0
H6159 H 0.98691 0.57179 0.7624 0.0
H6160 H 0.99171 0.59421 0.75506 0.0
H6161 H 0.02761 0.59988 0.73537 0.0
H6162 H 0.02281 0.57729 0.7428 0.0
H6163 H 0.01179 0.6048 0.71825 0.0
H6164 H 0.03076 0.61999 0.76263 0.0
H6165 H 0.03251 0.61963 0.78784 0.0
H6166 H 0.99704 0.62321 0.79146 0.0
H6167 H 0.99494 0.62338 0.76626 0.0
C6168 C 0.00274 0.65541 0.7031 0.0
C6169 C 0.98963 0.65219 0.70655 0.0
C6170 C 0.0093 0.64958 0.71027 0.0
C6171 C 0.00282 0.64059 0.72101 0.0
C6172 C 0.99021 0.63836 0.72515 0.0
C6173 C 0.98366 0.64403 0.71795 0.0
C6174 C 0.00797 0.63193 0.72679 0.0
C6175 C 0.00949 0.63172 0.74109 0.0
C6176 C 0.00942 0.62248 0.71846 0.0
C6177 C 0.00746 0.62182 0.70336 0.0
C6178 C 0.99488 0.6185 0.69749 0.0
C6179 C 0.99316 0.61808 0.68323 0.0
C6180 C 0.00391 0.6208 0.67474 0.0
C6181 C 0.01639 0.6239 0.6805 0.0
C6182 C 0.01817 0.62437 0.69477 0.0
C6183 C 0.99599 0.57792 0.75678 0.0
C6184 C 0.00453 0.57282 0.75325 0.0
C6185 C 0.99877 0.59077 0.75264 0.0
C6186 C 0.01013 0.59881 0.74483 0.0
C6187 C 0.01886 0.59389 0.7415 0.0
C6188 C 0.01612 0.58102 0.74575 0.0
C6189 C 0.01187 0.61161 0.73899 0.0
C6190 C 0.01157 0.61257 0.72465 0.0
C6191 C 0.01146 0.62169 0.74731 0.0
C6192 C 0.01268 0.62167 0.76251 0.0
C6193 C 0.02328 0.62062 0.76879 0.0
C6194 C 0.02434 0.62046 0.78308 0.0
C6195 C 0.01489 0.62139 0.79124 0.0
C6196 C 0.00436 0.62251 0.78512 0.0
C6197 C 0.00325 0.62266 0.77083 0.0
H6198 H 0.01572 0.62126 0.80231 0.0
H6199 H 0.00256 0.62046 0.6637 0.0
H6200 H 0.34081 0.34633 0.70922 0.0
H6201 H 0.34981 0.36834 0.72097 0.0
H6202 H 0.38672 0.38316 0.69878 0.0
H6203 H 0.37812 0.36088 0.68786 0.0
H6204 H 0.39328 0.39263 0.72235 0.0
H6205 H 0.36035 0.39126 0.69084 0.0
H6206 H 0.33808 0.38186 0.67937 0.0
H6207 H 0.32062 0.38333 0.71759 0.0
H6208 H 0.34275 0.39258 0.72933 0.0
H6209 H 0.41311 0.4632 0.73356 0.0
H6210 H 0.40353 0.44115 0.7216 0.0
H6211 H 0.37844 0.42182 0.75612 0.0
H6212 H 0.38832 0.44362 0.76839 0.0
H6213 H 0.36596 0.41548 0.72592 0.0
H6214 H 0.40126 0.41703 0.75645 0.0
H6215 H 0.42463 0.42818 0.76541 0.0
H6216 H 0.43883 0.42855 0.72479 0.0
H6217 H 0.41554 0.41759 0.71557 0.0
C6218 C 0.35086 0.3543 0.70691 0.0
C6219 C 0.35875 0.35193 0.6976 0.0
C6220 C 0.35597 0.36693 0.71354 0.0
C6221 C 0.36886 0.3776 0.71055 0.0
C6222 C 0.37676 0.37516 0.7013 0.0
C6223 C 0.37182 0.36241 0.69502 0.0
C6224 C 0.37421 0.39125 0.71718 0.0
C6225 C 0.3873 0.39763 0.72293 0.0
C6226 C 0.3665 0.39791 0.71804 0.0
C6227 C 0.35319 0.3925 0.71099 0.0
C6228 C 0.35174 0.38951 0.69682 0.0
C6229 C 0.33915 0.38421 0.69026 0.0
C6230 C 0.32794 0.38197 0.69776 0.0
C6231 C 0.32931 0.38506 0.7118 0.0
C6232 C 0.34188 0.39035 0.71841 0.0
C6233 C 0.40544 0.45428 0.73854 0.0
C6234 C 0.40119 0.45528 0.75176 0.0
C6235 C 0.40001 0.44172 0.73171 0.0
C6236 C 0.39018 0.42996 0.73794 0.0
C6237 C 0.38587 0.43086 0.75109 0.0
C6238 C 0.3915 0.44335 0.75805 0.0
C6239 C 0.38483 0.41659 0.73101 0.0
C6240 C 0.37182 0.41035 0.72523 0.0
C6241 C 0.39273 0.41025 0.72971 0.0
C6242 C 0.40668 0.41663 0.73531 0.0
C6243 C 0.40938 0.4196 0.74942 0.0
C6244 C 0.42261 0.42586 0.75454 0.0
C6245 C 0.43321 0.42911 0.74567 0.0
C6246 C 0.43061 0.42605 0.73165 0.0
C6247 C 0.4174 0.41981 0.72647 0.0
H6248 H 0.44345 0.43396 0.74966 0.0
H6249 H 0.3182 0.37785 0.69267 0.0
H6250 H 0.64588 0.01312 0.66946 0.0
H6251 H 0.62518 0.00659 0.68188 0.0
H6252 H 0.64598 0.00919 0.72013 0.0
H6253 H 0.66632 0.01474 0.70761 0.0
H6254 H 0.6233 0.98906 0.72162 0.0
H6255 H 0.6377 0.03461 0.7078 0.0
H6256 H 0.6447 0.0535 0.69172 0.0
H6257 H 0.60676 0.03181 0.67006 0.0
H6258 H 0.59959 0.01271 0.68592 0.0
H6259 H 0.57817 0.99596 0.76624 0.0
H6260 H 0.59788 0.00249 0.75206 0.0
H6261 H 0.57198 0.98399 0.71655 0.0
H6262 H 0.55219 0.97707 0.73076 0.0
H6263 H 0.59627 0.0117 0.71327 0.0
H6264 H 0.58254 0.96632 0.7293 0.0
H6265 H 0.57642 0.94924 0.74733 0.0
H6266 H 0.61496 0.97349 0.76722 0.0
H6267 H 0.62123 0.99083 0.74942 0.0
C6268 C 0.64596 0.01224 0.68052 0.0
C6269 C 0.65766 0.01443 0.6876 0.0
C6270 C 0.63417 0.00862 0.68764 0.0
C6271 C 0.63401 0.00766 0.70203 0.0
C6272 C 0.64575 0.00983 0.70906 0.0
C6273 C 0.65741 0.01303 0.7019 0.0
C6274 C 0.62165 0.00423 0.70983 0.0
C6275 C 0.61754 0.99419 0.71986 0.0
C6276 C 0.6139 0.0107 0.70749 0.0
C6277 C 0.61817 0.02218 0.69796 0.0
C6278 C 0.63089 0.03383 0.69955 0.0
C6279 C 0.63488 0.04458 0.69049 0.0
C6280 C 0.6262 0.04384 0.67985 0.0
C6281 C 0.61349 0.03236 0.67829 0.0
C6282 C 0.60945 0.02158 0.68732 0.0
C6283 C 0.57669 0.99331 0.75541 0.0
C6284 C 0.56364 0.98587 0.74964 0.0
C6285 C 0.58793 0.99707 0.74733 0.0
C6286 C 0.58633 0.99364 0.73331 0.0
C6287 C 0.57338 0.98671 0.72737 0.0
C6288 C 0.5621 0.98275 0.73549 0.0
C6289 C 0.5982 0.99676 0.725 0.0
C6290 C 0.60213 0.00667 0.71492 0.0
C6291 C 0.606 0.99045 0.72752 0.0
C6292 C 0.6023 0.97993 0.7381 0.0
C6293 C 0.58967 0.96806 0.73758 0.0
C6294 C 0.58618 0.95832 0.74775 0.0
C6295 C 0.59529 0.96029 0.75843 0.0
C6296 C 0.60792 0.97199 0.75894 0.0
C6297 C 0.61144 0.98177 0.74882 0.0
H6298 H 0.59257 0.95274 0.76629 0.0
H6299 H 0.62931 0.05217 0.67284 0.0
loop_
_geom_bond_atom_site_label_1
_geom_bond_atom_site_label_2
_geom_bond_distance
_geom_bond_site_symmetry_2
_ccdc_geom_bond_type
Mn0 O5 2.095 1_655 S
Mn0 O15 2.162 . S
Mn0 O16 2.297 1_554 S
Mn0 O24 2.385 1_554 S
Mn0 O25 2.209 1_654 S
Mn0 O26 2.094 . S
Mn1 O6 2.121 . S
Mn1 N8 2.245 1_554 S
Mn1 N17 2.282 . S
Mn1 O25 2.215 1_554 S
Mn1 O27 2.117 . S
C2 O24 1.234 1_455 S
C2 O25 1.283 . S
C3 O15 1.281 1_556 S
C3 O16 1.236 . S
C4 O26 1.243 1_455 S
C4 O27 1.257 . S
O5 Mn0 2.095 1_455 S
O5 C14 1.250 . S
O6 Mn1 2.121 . S
O6 C14 1.258 . S
C7 N8 1.330 . S
C7 C11 1.460 . S
C7 H13 0.929 1_556 S
N8 Mn1 2.245 1_556 S
N8 C7 1.330 . S
N8 C12 1.370 . S
C9 C10 1.258 . S
C9 C12 1.431 . S
C9 C29 1.449 . S
C10 C9 1.258 . S
C10 C11 1.477 . S
C10 H30 0.931 . S
C11 C7 1.460 . S
C11 C10 1.477 . S
C11 H31 0.930 . S
C12 N8 1.370 . S
C12 C9 1.431 . S
C12 C22 1.476 . S
H13 C7 0.929 1_554 S
C14 O5 1.250 . S
C14 O6 1.258 . S
O15 Mn0 2.162 . S
O15 C3 1.281 1_554 S
O16 Mn0 2.297 1_556 S
O16 C3 1.236 . S
N17 Mn1 2.282 . S
N17 C18 1.328 . S
N17 C22 1.318 1_554 S
C18 N17 1.328 . S
C18 C19 1.471 . S
C18 H23 0.929 . S
C19 C18 1.471 . S
C19 C20 1.273 1_554 S
C19 H32 0.935 . S
C20 C19 1.273 1_556 S
C20 C21 1.373 . S
C20 H33 0.929 . S
C21 C20 1.373 . S
C21 C22 1.396 . S
C21 C28 1.403 . S
C22 C12 1.476 . S
C22 N17 1.318 1_556 S
C22 C21 1.396 . S
H23 C18 0.929 . S
O24 Mn0 2.385 1_556 S
O24 C2 1.234 1_655 S
O25 Mn0 2.209 1_456 S
O25 Mn1 2.215 1_556 S
O25 C2 1.283 . S
O26 Mn0 2.094 . S
O26 C4 1.243 1_655 S
O27 Mn1 2.117 . S
O27 C4 1.257 . S
C28 C21 1.403 . S
C28 C29 1.399 . S
C28 H34 0.929 . S
C29 C9 1.449 . S
C29 C28 1.399 . S
C29 H35 0.930 . S
H30 C10 0.931 . S
H31 C11 0.930 . S
H32 C19 0.935 . S
H33 C20 0.929 . S
H34 C28 0.929 . S
H35 C29 0.930 . S
Mn36 O41 2.091 1_554 S
Mn36 O51 2.162 . S
Mn36 O52 2.297 . S
Mn36 O60 2.385 . S
Mn36 O61 2.209 . S
Mn36 O62 2.039 1_554 S
Mn37 O42 2.123 . S
Mn37 N44 2.257 . S
Mn37 N53 2.282 . S
Mn37 O61 2.215 . S
Mn37 O63 2.117 1_554 S
C38 O60 1.234 . S
C38 O61 1.283 . S
C39 O51 1.281 . S
C39 O52 1.236 . S
C40 O62 1.285 . S
C40 O63 1.264 . S
O41 Mn36 2.091 1_556 S
O41 C50 1.251 . S
O42 Mn37 2.123 . S
O42 C50 1.257 1_554 S
C43 N44 1.326 . S
C43 C47 1.460 . S
C43 H49 0.929 . S
N44 Mn37 2.257 . S
N44 C43 1.326 . S
N44 C48 1.362 . S
C45 C46 1.258 . S
C45 C48 1.431 . S
C45 C65 1.449 . S
C46 C45 1.258 . S
C46 C47 1.477 . S
C46 H66 0.931 . S
C47 C43 1.460 . S
C47 C46 1.477 . S
C47 H67 0.930 . S
C48 N44 1.362 . S
C48 C45 1.431 . S
C48 C58 1.476 . S
H49 C43 0.929 . S
C50 O41 1.251 . S
C50 O42 1.257 1_556 S
O51 Mn36 2.162 . S
O51 C39 1.281 . S
O52 Mn36 2.297 . S
O52 C39 1.236 . S
N53 Mn37 2.282 . S
N53 C54 1.328 . S
N53 C58 1.318 . S
C54 N53 1.328 . S
C54 C55 1.457 . S
C54 H59 0.929 . S
C55 C54 1.457 . S
C55 C56 1.291 . S
C55 H68 0.931 . S
C56 C55 1.291 . S
C56 C57 1.373 . S
C56 H69 0.929 . S
C57 C56 1.373 . S
C57 C58 1.396 . S
C57 C64 1.403 . S
C58 C48 1.476 . S
C58 N53 1.318 . S
C58 C57 1.396 . S
H59 C54 0.929 . S
O60 Mn36 2.385 . S
O60 C38 1.234 . S
O61 Mn36 2.209 . S
O61 Mn37 2.215 . S
O61 C38 1.283 . S
O62 Mn36 2.039 1_556 S
O62 C40 1.285 . S
O63 Mn37 2.117 1_556 S
O63 C40 1.264 . S
C64 C57 1.403 . S
C64 C65 1.399 . S
C64 H70 0.929 . S
C65 C45 1.449 . S
C65 C64 1.399 . S
C65 H71 0.930 . S
H66 C46 0.931 . S
H67 C47 0.930 . S
H68 C55 0.931 . S
H69 C56 0.929 . S
H70 C64 0.929 . S
H71 C65 0.930 . S
Mn72 O77 2.095 1_564 S
Mn72 O87 2.162 . S
Mn72 O88 2.297 . S
Mn72 O96 2.385 . S
Mn72 O97 2.209 1_565 S
Mn72 O98 2.094 1_554 S
Mn73 O78 2.121 1_554 S
Mn73 N80 2.257 . S
Mn73 N89 2.282 . S
Mn73 O97 2.215 . S
Mn73 O99 2.117 1_554 S
C74 O96 1.234 1_545 S
C74 O97 1.283 . S
C75 O87 1.281 . S
C75 O88 1.236 . S
C76 O98 1.240 . S
C76 O99 1.264 1_565 S
O77 Mn72 2.095 1_546 S
O77 C86 1.250 . S
O78 Mn73 2.121 1_556 S
O78 C86 1.258 . S
C79 N80 1.326 . S
C79 C83 1.460 . S
C79 H85 0.929 . S
N80 Mn73 2.257 . S
N80 C79 1.326 . S
N80 C84 1.362 . S
C81 C82 1.258 . S
C81 C84 1.431 . S
C81 C101 1.449 . S
C82 C81 1.258 . S
C82 C83 1.477 . S
C82 H102 0.931 . S
C83 C79 1.460 . S
C83 C82 1.477 . S
C83 H103 0.930 . S
C84 N80 1.362 . S
C84 C81 1.431 . S
C84 C94 1.476 . S
H85 C79 0.929 . S
C86 O77 1.250 . S
C86 O78 1.258 . S
O87 Mn72 2.162 . S
O87 C75 1.281 . S
O88 Mn72 2.297 . S
O88 C75 1.236 . S
N89 Mn73 2.282 . S
N89 C90 1.328 . S
N89 C94 1.318 . S
C90 N89 1.328 . S
C90 C91 1.457 . S
C90 H95 0.929 . S
C91 C90 1.457 . S
C91 C92 1.291 . S
C91 H104 0.931 . S
C92 C91 1.291 . S
C92 C93 1.373 . S
C92 H105 0.929 . S
C93 C92 1.373 . S
C93 C94 1.396 . S
C93 C100 1.403 . S
C94 C84 1.476 . S
C94 N89 1.318 . S
C94 C93 1.396 . S
H95 C90 0.929 . S
O96 Mn72 2.385 . S
O96 C74 1.234 1_565 S
O97 Mn72 2.209 1_545 S
O97 Mn73 2.215 . S
O97 C74 1.283 . S
O98 Mn72 2.094 1_556 S
O98 C76 1.240 . S
O99 Mn73 2.117 1_556 S
O99 C76 1.264 1_545 S
C100 C93 1.403 . S
C100 C101 1.399 . S
C100 H106 0.929 . S
C101 C81 1.449 . S
C101 C100 1.399 . S
C101 H107 0.930 . S
H102 C82 0.931 . S
H103 C83 0.930 . S
H104 C91 0.931 . S
H105 C92 0.929 . S
H106 C100 0.929 . S
H107 C101 0.930 . S
Mn108 O113 2.095 1_655 S
Mn108 O123 2.162 . S
Mn108 O124 2.297 1_554 S
Mn108 O132 2.385 1_554 S
Mn108 O133 2.245 1_655 S
Mn108 O134 2.094 . S
Mn109 O114 2.121 . S
Mn109 N116 2.257 . S
Mn109 N125 2.282 . S
Mn109 O133 2.266 . S
Mn109 O135 2.117 . S
C110 O132 1.234 1_455 S
C110 O133 1.244 1_556 S
C111 O123 1.281 1_556 S
C111 O124 1.236 . S
C112 O134 1.240 . S
C112 O135 1.264 1_655 S
O113 Mn108 2.095 1_455 S
O113 C122 1.250 . S
O114 Mn109 2.121 . S
O114 C122 1.258 . S
C115 N116 1.326 . S
C115 C119 1.460 1_554 S
C115 H121 0.929 . S
N116 Mn109 2.257 . S
N116 C115 1.326 . S
N116 C120 1.362 1_554 S
C117 C118 1.258 . S
C117 C120 1.431 . S
C117 C137 1.449 . S
C118 C117 1.258 . S
C118 C119 1.477 . S
C118 H138 0.931 . S
C119 C115 1.460 1_556 S
C119 C118 1.477 . S
C119 H139 0.930 . S
C120 N116 1.362 1_556 S
C120 C117 1.431 . S
C120 C130 1.467 1_556 S
H121 C115 0.929 . S
C122 O113 1.250 . S
C122 O114 1.258 . S
O123 Mn108 2.162 . S
O123 C111 1.281 1_554 S
O124 Mn108 2.297 1_556 S
O124 C111 1.236 . S
N125 Mn109 2.282 . S
N125 C126 1.328 . S
N125 C130 1.356 . S
C126 N125 1.328 . S
C126 C127 1.457 . S
C126 H131 0.929 . S
C127 C126 1.457 . S
C127 C128 1.291 1_554 S
C127 H140 0.931 . S
C128 C127 1.291 1_556 S
C128 C129 1.373 . S
C128 H141 0.929 . S
C129 C128 1.373 . S
C129 C130 1.371 1_556 S
C129 C136 1.403 . S
C130 C120 1.467 1_554 S
C130 N125 1.356 . S
C130 C129 1.371 1_554 S
H131 C126 0.929 . S
O132 Mn108 2.385 1_556 S
O132 C110 1.234 1_655 S
O133 Mn108 2.245 1_455 S
O133 Mn109 2.266 . S
O133 C110 1.244 1_554 S
O134 Mn108 2.094 . S
O134 C112 1.240 . S
O135 Mn109 2.117 . S
O135 C112 1.264 1_455 S
C136 C129 1.403 . S
C136 C137 1.399 . S
C136 H142 0.929 . S
C137 C117 1.449 . S
C137 C136 1.399 . S
C137 H143 0.930 . S
H138 C118 0.931 . S
H139 C119 0.930 . S
H140 C127 0.931 . S
H141 C128 0.929 . S
H142 C136 0.929 . S
H143 C137 0.930 . S
Mn144 O149 2.095 1_554 S
Mn144 O159 2.162 . S
Mn144 O160 2.297 . S
Mn144 O168 2.385 . S
Mn144 O169 2.209 . S
Mn144 O170 2.094 1_554 S
Mn145 O150 2.121 . S
Mn145 N152 2.257 1_556 S
Mn145 N161 2.282 1_556 S
Mn145 O169 2.215 1_556 S
Mn145 O171 2.117 . S
C146 O168 1.234 . S
C146 O169 1.283 . S
C147 O159 1.281 . S
C147 O160 1.236 . S
C148 O170 1.240 . S
C148 O171 1.264 . S
O149 Mn144 2.095 1_556 S
O149 C158 1.250 . S
O150 Mn145 2.121 . S
O150 C158 1.258 . S
C151 N152 1.326 . S
C151 C155 1.460 . S
C151 H157 0.929 . S
N152 Mn145 2.257 1_554 S
N152 C151 1.326 . S
N152 C156 1.362 . S
C153 C154 1.258 . S
C153 C156 1.431 . S
C153 C173 1.449 . S
C154 C153 1.258 . S
C154 C155 1.477 . S
C154 H174 0.931 . S
C155 C151 1.460 . S
C155 C154 1.477 . S
C155 H175 0.930 . S
C156 N152 1.362 . S
C156 C153 1.431 . S
C156 C166 1.476 . S
H157 C151 0.929 . S
C158 O149 1.250 . S
C158 O150 1.258 . S
O159 Mn144 2.162 . S
O159 C147 1.281 . S
O160 Mn144 2.297 . S
O160 C147 1.236 . S
N161 Mn145 2.282 1_554 S
N161 C162 1.328 . S
N161 C166 1.318 . S
C162 N161 1.328 . S
C162 C163 1.457 . S
C162 H167 0.929 1_554 S
C163 C162 1.457 . S
C163 C164 1.291 . S
C163 H176 0.931 . S
C164 C163 1.291 . S
C164 C165 1.373 . S
C164 H177 0.929 . S
C165 C164 1.373 . S
C165 C166 1.396 . S
C165 C172 1.403 . S
C166 C156 1.476 . S
C166 N161 1.318 . S
C166 C165 1.396 . S
H167 C162 0.929 1_556 S
O168 Mn144 2.385 . S
O168 C146 1.234 . S
O169 Mn144 2.209 . S
O169 Mn145 2.215 1_554 S
O169 C146 1.283 . S
O170 Mn144 2.094 1_556 S
O170 C148 1.240 . S
O171 Mn145 2.117 . S
O171 C148 1.264 . S
C172 C165 1.403 . S
C172 C173 1.399 . S
C172 H178 0.929 . S
C173 C153 1.449 . S
C173 C172 1.399 . S
C173 H179 0.930 . S
H174 C154 0.931 . S
H175 C155 0.930 . S
H176 C163 0.931 . S
H177 C164 0.929 . S
H178 C172 0.929 . S
H179 C173 0.930 . S
Mn180 O185 2.095 1_545 S
Mn180 O195 2.162 . S
Mn180 O196 2.297 1_554 S
Mn180 O204 2.385 1_554 S
Mn180 O205 2.209 1_545 S
Mn180 O206 2.094 . S
Mn181 O186 2.121 . S
Mn181 N188 2.257 . S
Mn181 N197 2.282 . S
Mn181 O205 2.215 . S
Mn181 O207 2.117 . S
C182 O204 1.153 1_565 S
C182 O205 1.359 1_556 S
C183 O195 1.294 . S
C183 O196 1.231 1_554 S
C184 O206 1.240 . S
C184 O207 1.264 1_545 S
O185 Mn180 2.095 1_565 S
O185 C194 1.250 . S
O186 Mn181 2.121 . S
O186 C194 1.258 . S
C187 N188 1.326 . S
C187 C191 1.460 1_554 S
C187 H193 0.929 . S
N188 Mn181 2.257 . S
N188 C187 1.326 . S
N188 C192 1.362 1_554 S
C189 C190 1.258 . S
C189 C192 1.431 . S
C189 C209 1.449 . S
C190 C189 1.258 . S
C190 C191 1.477 . S
C190 H210 0.931 . S
C191 C187 1.460 1_556 S
C191 C190 1.477 . S
C191 H211 0.930 . S
C192 N188 1.362 1_556 S
C192 C189 1.431 . S
C192 C202 1.476 1_556 S
H193 C187 0.929 . S
C194 O185 1.250 . S
C194 O186 1.258 . S
O195 Mn180 2.162 . S
O195 C183 1.294 . S
O196 Mn180 2.297 1_556 S
O196 C183 1.231 1_556 S
N197 Mn181 2.282 . S
N197 C198 1.328 . S
N197 C202 1.318 . S
C198 N197 1.328 . S
C198 C199 1.457 . S
C198 H203 0.929 . S
C199 C198 1.457 . S
C199 C200 1.291 1_554 S
C199 H212 0.931 . S
C200 C199 1.291 1_556 S
C200 C201 1.373 . S
C200 H213 0.929 . S
C201 C200 1.373 . S
C201 C202 1.396 1_556 S
C201 C208 1.403 . S
C202 C192 1.476 1_554 S
C202 N197 1.318 . S
C202 C201 1.396 1_554 S
H203 C198 0.929 . S
O204 Mn180 2.385 1_556 S
O204 C182 1.153 1_545 S
O205 Mn180 2.209 1_565 S
O205 Mn181 2.215 . S
O205 C182 1.359 1_554 S
O206 Mn180 2.094 . S
O206 C184 1.240 . S
O207 Mn181 2.117 . S
O207 C184 1.264 1_565 S
C208 C201 1.403 . S
C208 C209 1.399 . S
C208 H214 0.929 . S
C209 C189 1.449 . S
C209 C208 1.399 . S
C209 H215 0.930 . S
H210 C190 0.931 . S
H211 C191 0.930 . S
H212 C199 0.931 . S
H213 C200 0.929 . S
H214 C208 0.929 . S
H215 C209 0.930 . S
Mn216 O221 2.095 . S
Mn216 O231 2.162 . S
Mn216 O232 2.297 . S
Mn216 O240 2.385 . S
Mn216 O241 2.209 . S
Mn216 O242 2.094 . S
Mn217 O222 2.121 . S
Mn217 N224 2.257 . S
Mn217 N233 2.282 . S
Mn217 O241 2.215 . S
Mn217 O243 2.117 . S
C218 O240 1.234 . S
C218 O241 1.283 . S
C219 O231 1.281 . S
C219 O232 1.236 . S
C220 O242 1.240 . S
C220 O243 1.264 . S
O221 Mn216 2.095 . S
O221 C230 1.250 . S
O222 Mn217 2.121 . S
O222 C230 1.258 . S
C223 N224 1.326 . S
C223 C227 1.460 . S
C223 H229 0.929 . S
N224 Mn217 2.257 . S
N224 C223 1.326 . S
N224 C228 1.362 . S
C225 C226 1.258 . S
C225 C228 1.431 . S
C225 C245 1.449 . S
C226 C225 1.258 . S
C226 C227 1.477 . S
C226 H246 0.931 . S
C227 C223 1.460 . S
C227 C226 1.477 . S
C227 H247 0.930 . S
C228 N224 1.362 . S
C228 C225 1.431 . S
C228 C238 1.476 . S
H229 C223 0.929 . S
C230 O221 1.250 . S
C230 O222 1.258 . S
O231 Mn216 2.162 . S
O231 C219 1.281 . S
O232 Mn216 2.297 . S
O232 C219 1.236 . S
N233 Mn217 2.282 . S
N233 C234 1.328 . S
N233 C238 1.318 . S
C234 N233 1.328 . S
C234 C235 1.457 . S
C234 H239 0.929 . S
C235 C234 1.457 . S
C235 C236 1.291 . S
C235 H248 0.931 . S
C236 C235 1.291 . S
C236 C237 1.373 . S
C236 H249 0.929 . S
C237 C236 1.373 . S
C237 C238 1.396 . S
C237 C244 1.403 . S
C238 C228 1.476 . S
C238 N233 1.318 . S
C238 C237 1.396 . S
H239 C234 0.929 . S
O240 Mn216 2.385 . S
O240 C218 1.234 . S
O241 Mn216 2.209 . S
O241 Mn217 2.215 . S
O241 C218 1.283 . S
O242 Mn216 2.094 . S
O242 C220 1.240 . S
O243 Mn217 2.117 . S
O243 C220 1.264 . S
C244 C237 1.403 . S
C244 C245 1.399 . S
C244 H250 0.929 . S
C245 C225 1.449 . S
C245 C244 1.399 . S
C245 H251 0.930 . S
H246 C226 0.931 . S
H247 C227 0.930 . S
H248 C235 0.931 . S
H249 C236 0.929 . S
H250 C244 0.929 . S
H251 C245 0.930 . S
Mn252 O257 2.095 . S
Mn252 O267 2.162 1_565 S
Mn252 O268 2.298 . S
Mn252 O276 2.385 . S
Mn252 O277 2.209 . S
Mn252 O278 2.094 . S
Mn253 O258 2.121 . S
Mn253 N260 2.257 . S
Mn253 N269 2.282 . S
Mn253 O277 2.215 . S
Mn253 O279 2.117 . S
C254 O276 1.234 . S
C254 O277 1.283 . S
C255 O267 1.281 . S
C255 O268 1.232 1_545 S
C256 O278 1.240 . S
C256 O279 1.264 . S
O257 Mn252 2.095 . S
O257 C266 1.250 . S
O258 Mn253 2.121 . S
O258 C266 1.258 . S
C259 N260 1.326 . S
C259 C263 1.460 . S
C259 H265 0.929 . S
N260 Mn253 2.257 . S
N260 C259 1.326 . S
N260 C264 1.362 . S
C261 C262 1.258 . S
C261 C264 1.431 . S
C261 C281 1.449 . S
C262 C261 1.258 . S
C262 C263 1.477 . S
C262 H282 0.931 . S
C263 C259 1.460 . S
C263 C262 1.477 . S
C263 H283 0.930 . S
C264 N260 1.362 . S
C264 C261 1.431 . S
C264 C274 1.476 . S
H265 C259 0.929 . S
C266 O257 1.250 . S
C266 O258 1.258 . S
O267 Mn252 2.162 1_545 S
O267 C255 1.281 . S
O268 Mn252 2.298 . S
O268 C255 1.232 1_565 S
N269 Mn253 2.282 . S
N269 C270 1.328 . S
N269 C274 1.318 . S
C270 N269 1.328 . S
C270 C271 1.457 . S
C270 H275 0.929 . S
C271 C270 1.457 . S
C271 C272 1.291 . S
C271 H284 0.931 . S
C272 C271 1.291 . S
C272 C273 1.373 . S
C272 H285 0.929 . S
C273 C272 1.373 . S
C273 C274 1.396 . S
C273 C280 1.403 . S
C274 C264 1.476 . S
C274 N269 1.318 . S
C274 C273 1.396 . S
H275 C270 0.929 . S
O276 Mn252 2.385 . S
O276 C254 1.234 . S
O277 Mn252 2.209 . S
O277 Mn253 2.215 . S
O277 C254 1.283 . S
O278 Mn252 2.094 . S
O278 C256 1.240 . S
O279 Mn253 2.117 . S
O279 C256 1.264 . S
C280 C273 1.403 . S
C280 C281 1.399 . S
C280 H286 0.929 . S
C281 C261 1.449 . S
C281 C280 1.399 . S
C281 H287 0.930 . S
H282 C262 0.931 . S
H283 C263 0.930 . S
H284 C271 0.931 . S
H285 C272 0.929 . S
H286 C280 0.929 . S
H287 C281 0.930 . S
Mn288 O293 2.095 . S
Mn288 O303 2.162 1_455 S
Mn288 O304 2.359 . S
Mn288 O312 2.385 . S
Mn288 O313 2.209 . S
Mn288 O314 2.094 . S
Mn289 O294 2.121 . S
Mn289 N296 2.257 . S
Mn289 N305 2.282 . S
Mn289 O313 2.215 . S
Mn289 O315 2.117 . S
C290 O312 1.234 . S
C290 O313 1.283 . S
C291 O303 1.281 . S
C291 O304 1.221 1_655 S
C292 O314 1.240 . S
C292 O315 1.264 . S
O293 Mn288 2.095 . S
O293 C302 1.250 . S
O294 Mn289 2.121 . S
O294 C302 1.258 . S
C295 N296 1.326 . S
C295 C299 1.460 . S
C295 H301 0.929 . S
N296 Mn289 2.257 . S
N296 C295 1.326 . S
N296 C300 1.362 . S
C297 C298 1.258 . S
C297 C300 1.431 . S
C297 C317 1.449 . S
C298 C297 1.258 . S
C298 C299 1.477 . S
C298 H318 0.931 . S
C299 C295 1.460 . S
C299 C298 1.477 . S
C299 H319 0.930 . S
C300 N296 1.362 . S
C300 C297 1.431 . S
C300 C310 1.476 . S
H301 C295 0.929 . S
C302 O293 1.250 . S
C302 O294 1.258 . S
O303 Mn288 2.162 1_655 S
O303 C291 1.281 . S
O304 Mn288 2.359 . S
O304 C291 1.221 1_455 S
N305 Mn289 2.282 . S
N305 C306 1.328 . S
N305 C310 1.318 . S
C306 N305 1.328 . S
C306 C307 1.457 . S
C306 H311 0.929 . S
C307 C306 1.457 . S
C307 C308 1.291 . S
C307 H320 0.931 . S
C308 C307 1.291 . S
C308 C309 1.373 . S
C308 H321 0.929 . S
C309 C308 1.373 . S
C309 C310 1.396 . S
C309 C316 1.403 . S
C310 C300 1.476 . S
C310 N305 1.318 . S
C310 C309 1.396 . S
H311 C306 0.929 . S
O312 Mn288 2.385 . S
O312 C290 1.234 . S
O313 Mn288 2.209 . S
O313 Mn289 2.215 . S
O313 C290 1.283 . S
O314 Mn288 2.094 . S
O314 C292 1.240 . S
O315 Mn289 2.117 . S
O315 C292 1.264 . S
C316 C309 1.403 . S
C316 C317 1.399 . S
C316 H322 0.929 . S
C317 C297 1.449 . S
C317 C316 1.399 . S
C317 H323 0.930 . S
H318 C298 0.931 . S
H319 C299 0.930 . S
H320 C307 0.931 . S
H321 C308 0.929 . S
H322 C316 0.929 . S
H323 C317 0.930 . S
Mn324 O329 2.095 . S
Mn324 O339 2.162 . S
Mn324 O340 2.297 . S
Mn324 O348 2.385 . S
Mn324 O349 2.209 . S
Mn324 O350 2.094 . S
Mn325 O330 2.112 . S
Mn325 N332 2.257 . S
Mn325 N341 2.282 . S
Mn325 O349 2.215 . S
Mn325 O351 2.117 . S
C326 O348 1.234 . S
C326 O349 1.283 . S
C327 O339 1.281 . S
C327 O340 1.236 . S
C328 O350 1.240 . S
C328 O351 1.264 . S
O329 Mn324 2.095 . S
O329 C338 1.250 1_565 S
O330 Mn325 2.112 . S
O330 C338 1.265 1_565 S
C331 N332 1.326 1_545 S
C331 C335 1.460 . S
C331 H337 0.929 . S
N332 Mn325 2.257 . S
N332 C331 1.326 1_565 S
N332 C336 1.362 . S
C333 C334 1.258 . S
C333 C336 1.431 . S
C333 C353 1.449 . S
C334 C333 1.258 . S
C334 C335 1.477 1_565 S
C334 H354 0.927 . S
C335 C331 1.460 . S
C335 C334 1.477 1_545 S
C335 H355 0.930 . S
C336 N332 1.362 . S
C336 C333 1.431 . S
C336 C346 1.476 . S
H337 C331 0.929 . S
C338 O329 1.250 1_545 S
C338 O330 1.265 1_545 S
O339 Mn324 2.162 . S
O339 C327 1.281 . S
O340 Mn324 2.297 . S
O340 C327 1.236 . S
N341 Mn325 2.282 . S
N341 C342 1.328 . S
N341 C346 1.318 . S
C342 N341 1.328 . S
C342 C343 1.457 . S
C342 H347 0.929 . S
C343 C342 1.457 . S
C343 C344 1.291 . S
C343 H356 0.931 . S
C344 C343 1.291 . S
C344 C345 1.373 . S
C344 H357 0.929 . S
C345 C344 1.373 . S
C345 C346 1.396 . S
C345 C352 1.403 . S
C346 C336 1.476 . S
C346 N341 1.318 . S
C346 C345 1.396 . S
H347 C342 0.929 . S
O348 Mn324 2.385 . S
O348 C326 1.234 . S
O349 Mn324 2.209 . S
O349 Mn325 2.215 . S
O349 C326 1.283 . S
O350 Mn324 2.094 . S
O350 C328 1.240 . S
O351 Mn325 2.117 . S
O351 C328 1.264 . S
C352 C345 1.403 . S
C352 C353 1.399 . S
C352 H358 0.929 . S
C353 C333 1.449 . S
C353 C352 1.399 . S
C353 H359 0.930 . S
H354 C334 0.927 . S
H355 C335 0.930 . S
H356 C343 0.931 . S
H357 C344 0.929 . S
H358 C352 0.929 . S
H359 C353 0.930 . S
Mn360 O365 2.095 . S
Mn360 O375 2.162 1_455 S
Mn360 O376 2.297 . S
Mn360 O384 2.385 . S
Mn360 O385 2.209 . S
Mn360 O386 2.094 . S
Mn361 O366 2.121 . S
Mn361 N368 2.257 . S
Mn361 N377 2.282 . S
Mn361 O385 2.215 . S
Mn361 O387 2.117 . S
C362 O384 1.234 . S
C362 O385 1.283 . S
C363 O375 1.281 . S
C363 O376 1.236 1_655 S
C364 O386 1.240 . S
C364 O387 1.264 . S
O365 Mn360 2.095 . S
O365 C374 1.250 . S
O366 Mn361 2.121 . S
O366 C374 1.258 . S
C367 N368 1.326 . S
C367 C371 1.460 . S
C367 H373 0.929 . S
N368 Mn361 2.257 . S
N368 C367 1.326 . S
N368 C372 1.362 . S
C369 C370 1.258 . S
C369 C372 1.431 . S
C369 C389 1.449 . S
C370 C369 1.258 . S
C370 C371 1.477 . S
C370 H390 0.931 . S
C371 C367 1.460 . S
C371 C370 1.477 . S
C371 H391 0.930 . S
C372 N368 1.362 . S
C372 C369 1.431 . S
C372 C382 1.476 . S
H373 C367 0.929 . S
C374 O365 1.250 . S
C374 O366 1.258 . S
O375 Mn360 2.162 1_655 S
O375 C363 1.281 . S
O376 Mn360 2.297 . S
O376 C363 1.236 1_455 S
N377 Mn361 2.282 . S
N377 C378 1.328 . S
N377 C382 1.318 . S
C378 N377 1.328 . S
C378 C379 1.457 . S
C378 H383 0.929 . S
C379 C378 1.457 . S
C379 C380 1.291 . S
C379 H392 0.931 . S
C380 C379 1.291 . S
C380 C381 1.373 . S
C380 H393 0.929 . S
C381 C380 1.373 . S
C381 C382 1.396 . S
C381 C388 1.403 . S
C382 C372 1.476 . S
C382 N377 1.318 . S
C382 C381 1.396 . S
H383 C378 0.929 . S
O384 Mn360 2.385 . S
O384 C362 1.234 . S
O385 Mn360 2.209 . S
O385 Mn361 2.215 . S
O385 C362 1.283 . S
O386 Mn360 2.094 . S
O386 C364 1.240 . S
O387 Mn361 2.117 . S
O387 C364 1.264 . S
C388 C381 1.403 . S
C388 C389 1.399 . S
C388 H394 0.929 . S
C389 C369 1.449 . S
C389 C388 1.399 . S
C389 H395 0.930 . S
H390 C370 0.931 . S
H391 C371 0.930 . S
H392 C379 0.931 . S
H393 C380 0.929 . S
H394 C388 0.929 . S
H395 C389 0.930 . S
Mn396 O401 2.095 . S
Mn396 O411 2.162 . S
Mn396 O412 2.297 . S
Mn396 O420 2.385 . S
Mn396 O421 2.209 . S
Mn396 O422 2.094 . S
Mn397 O402 2.121 . S
Mn397 N404 2.257 . S
Mn397 N413 2.282 . S
Mn397 O421 2.215 . S
Mn397 O423 2.117 . S
C398 O420 1.234 . S
C398 O421 1.283 . S
C399 O411 1.281 . S
C399 O412 1.236 . S
C400 O422 1.240 . S
C400 O423 1.264 . S
O401 Mn396 2.095 . S
O401 C410 1.250 . S
O402 Mn397 2.121 . S
O402 C410 1.258 . S
C403 N404 1.326 . S
C403 C407 1.460 . S
C403 H409 0.929 . S
N404 Mn397 2.257 . S
N404 C403 1.326 . S
N404 C408 1.362 . S
C405 C406 1.258 . S
C405 C408 1.431 . S
C405 C425 1.449 . S
C406 C405 1.258 . S
C406 C407 1.477 . S
C406 H426 0.931 . S
C407 C403 1.460 . S
C407 C406 1.477 . S
C407 H427 0.930 . S
C408 N404 1.362 . S
C408 C405 1.431 . S
C408 C418 1.476 . S
H409 C403 0.929 . S
C410 O401 1.250 . S
C410 O402 1.258 . S
O411 Mn396 2.162 . S
O411 C399 1.281 . S
O412 Mn396 2.297 . S
O412 C399 1.236 . S
N413 Mn397 2.282 . S
N413 C414 1.328 . S
N413 C418 1.318 . S
C414 N413 1.328 . S
C414 C415 1.457 . S
C414 H419 0.929 . S
C415 C414 1.457 . S
C415 C416 1.291 . S
C415 H428 0.931 . S
C416 C415 1.291 . S
C416 C417 1.373 . S
C416 H429 0.929 . S
C417 C416 1.373 . S
C417 C418 1.396 . S
C417 C424 1.403 . S
C418 C408 1.476 . S
C418 N413 1.318 . S
C418 C417 1.396 . S
H419 C414 0.929 . S
O420 Mn396 2.385 . S
O420 C398 1.234 . S
O421 Mn396 2.209 . S
O421 Mn397 2.215 . S
O421 C398 1.283 . S
O422 Mn396 2.094 . S
O422 C400 1.240 . S
O423 Mn397 2.117 . S
O423 C400 1.264 . S
C424 C417 1.403 . S
C424 C425 1.399 . S
C424 H430 0.929 . S
C425 C405 1.449 . S
C425 C424 1.399 . S
C425 H431 0.930 . S
H426 C406 0.931 . S
H427 C407 0.930 . S
H428 C415 0.931 . S
H429 C416 0.929 . S
H430 C424 0.929 . S
H431 C425 0.930 . S
Mn432 O437 2.095 . S
Mn432 O447 2.162 1_545 S
Mn432 O448 2.297 . S
Mn432 O456 2.385 . S
Mn432 O457 2.209 . S
Mn432 O458 2.094 . S
Mn433 O438 2.121 . S
Mn433 N440 2.257 . S
Mn433 N449 2.282 . S
Mn433 O457 2.215 . S
Mn433 O459 2.117 . S
C434 O456 1.234 . S
C434 O457 1.283 . S
C435 O447 1.281 . S
C435 O448 1.236 1_565 S
C436 O458 1.240 . S
C436 O459 1.264 . S
O437 Mn432 2.095 . S
O437 C446 1.250 . S
O438 Mn433 2.121 . S
O438 C446 1.258 . S
C439 N440 1.326 . S
C439 C443 1.460 . S
C439 H445 0.929 . S
N440 Mn433 2.257 . S
N440 C439 1.326 . S
N440 C444 1.362 . S
C441 C442 1.258 . S
C441 C444 1.431 . S
C441 C461 1.449 . S
C442 C441 1.258 . S
C442 C443 1.477 . S
C442 H462 0.931 . S
C443 C439 1.460 . S
C443 C442 1.477 . S
C443 H463 0.930 . S
C444 N440 1.362 . S
C444 C441 1.431 . S
C444 C454 1.476 . S
H445 C439 0.929 . S
C446 O437 1.250 . S
C446 O438 1.258 . S
O447 Mn432 2.162 1_565 S
O447 C435 1.281 . S
O448 Mn432 2.297 . S
O448 C435 1.236 1_545 S
N449 Mn433 2.282 . S
N449 C450 1.328 . S
N449 C454 1.318 . S
C450 N449 1.328 . S
C450 C451 1.457 . S
C450 H455 0.929 . S
C451 C450 1.457 . S
C451 C452 1.291 . S
C451 H464 0.931 . S
C452 C451 1.291 . S
C452 C453 1.373 . S
C452 H465 0.929 . S
C453 C452 1.373 . S
C453 C454 1.396 . S
C453 C460 1.403 . S
C454 C444 1.476 . S
C454 N449 1.318 . S
C454 C453 1.396 . S
H455 C450 0.929 . S
O456 Mn432 2.385 . S
O456 C434 1.234 . S
O457 Mn432 2.209 . S
O457 Mn433 2.215 . S
O457 C434 1.283 . S
O458 Mn432 2.094 . S
O458 C436 1.240 . S
O459 Mn433 2.117 . S
O459 C436 1.264 . S
C460 C453 1.403 . S
C460 C461 1.399 . S
C460 H466 0.929 . S
C461 C441 1.449 . S
C461 C460 1.399 . S
C461 H467 0.930 . S
H462 C442 0.931 . S
H463 C443 0.930 . S
H464 C451 0.931 . S
H465 C452 0.929 . S
H466 C460 0.929 . S
H467 C461 0.930 . S
Mn468 O473 2.095 . S
Mn468 O483 2.162 . S
Mn468 O484 2.297 . S
Mn468 O492 2.385 . S
Mn468 O493 2.209 . S
Mn468 O494 2.094 . S
Mn469 O474 2.121 . S
Mn469 N476 2.257 . S
Mn469 N485 2.282 . S
Mn469 O493 2.215 . S
Mn469 O495 2.117 . S
C470 O492 1.234 . S
C470 O493 1.283 . S
C471 O483 1.281 . S
C471 O484 1.236 . S
C472 O494 1.240 . S
C472 O495 1.264 . S
O473 Mn468 2.095 . S
O473 C482 1.157 1_655 S
O474 Mn469 2.121 . S
O474 C482 1.293 1_655 S
C475 N476 1.326 1_455 S
C475 C479 1.460 . S
C475 H481 0.929 . S
N476 Mn469 2.257 . S
N476 C475 1.326 1_655 S
N476 C480 1.362 . S
C477 C478 1.258 . S
C477 C480 1.431 . S
C477 C497 1.449 . S
C478 C477 1.258 . S
C478 C479 1.477 1_655 S
C478 H498 0.931 . S
C479 C475 1.460 . S
C479 C478 1.477 1_455 S
C479 H499 0.930 . S
C480 N476 1.362 . S
C480 C477 1.431 . S
C480 C490 1.476 . S
H481 C475 0.929 . S
C482 O473 1.157 1_455 S
C482 O474 1.293 1_455 S
O483 Mn468 2.162 . S
O483 C471 1.281 . S
O484 Mn468 2.297 . S
O484 C471 1.236 . S
N485 Mn469 2.282 . S
N485 C486 1.328 . S
N485 C490 1.318 . S
C486 N485 1.328 . S
C486 C487 1.457 . S
C486 H491 0.929 . S
C487 C486 1.457 . S
C487 C488 1.291 . S
C487 H500 0.931 . S
C488 C487 1.291 . S
C488 C489 1.373 . S
C488 H501 0.929 . S
C489 C488 1.373 . S
C489 C490 1.396 . S
C489 C496 1.403 . S
C490 C480 1.476 . S
C490 N485 1.318 . S
C490 C489 1.396 . S
H491 C486 0.929 . S
O492 Mn468 2.385 . S
O492 C470 1.234 . S
O493 Mn468 2.209 . S
O493 Mn469 2.215 . S
O493 C470 1.283 . S
O494 Mn468 2.094 . S
O494 C472 1.240 . S
O495 Mn469 2.117 . S
O495 C472 1.264 . S
C496 C489 1.403 . S
C496 C497 1.399 . S
C496 H502 0.929 . S
C497 C477 1.449 . S
C497 C496 1.399 . S
C497 H503 0.930 . S
H498 C478 0.931 . S
H499 C479 0.930 . S
H500 C487 0.931 . S
H501 C488 0.929 . S
H502 C496 0.929 . S
H503 C497 0.930 . S
Mn504 O509 2.095 . S
Mn504 O519 2.162 . S
Mn504 O520 2.297 . S
Mn504 O528 2.385 . S
Mn504 O529 2.209 . S
Mn504 O530 2.094 . S
Mn505 O510 2.121 . S
Mn505 N512 2.257 . S
Mn505 N521 2.282 . S
Mn505 O529 2.215 . S
Mn505 O531 2.117 . S
C506 O528 1.234 . S
C506 O529 1.283 . S
C507 O519 1.281 . S
C507 O520 1.236 . S
C508 O530 1.240 . S
C508 O531 1.264 . S
O509 Mn504 2.095 . S
O509 C518 1.250 . S
O510 Mn505 2.121 . S
O510 C518 1.258 . S
C511 N512 1.326 . S
C511 C515 1.460 . S
C511 H517 0.929 . S
N512 Mn505 2.257 . S
N512 C511 1.326 . S
N512 C516 1.362 . S
C513 C514 1.258 . S
C513 C516 1.431 . S
C513 C533 1.449 . S
C514 C513 1.258 . S
C514 C515 1.477 . S
C514 H534 0.931 . S
C515 C511 1.460 . S
C515 C514 1.477 . S
C515 H535 0.930 . S
C516 N512 1.362 . S
C516 C513 1.431 . S
C516 C526 1.476 . S
H517 C511 0.929 . S
C518 O509 1.250 . S
C518 O510 1.258 . S
O519 Mn504 2.162 . S
O519 C507 1.281 . S
O520 Mn504 2.297 . S
O520 C507 1.236 . S
N521 Mn505 2.282 . S
N521 C522 1.328 . S
N521 C526 1.318 . S
C522 N521 1.328 . S
C522 C523 1.457 . S
C522 H527 0.929 . S
C523 C522 1.457 . S
C523 C524 1.291 . S
C523 H536 0.931 . S
C524 C523 1.291 . S
C524 C525 1.373 . S
C524 H537 0.929 . S
C525 C524 1.373 . S
C525 C526 1.396 . S
C525 C532 1.403 . S
C526 C516 1.476 . S
C526 N521 1.318 . S
C526 C525 1.396 . S
H527 C522 0.929 . S
O528 Mn504 2.385 . S
O528 C506 1.234 . S
O529 Mn504 2.209 . S
O529 Mn505 2.215 . S
O529 C506 1.283 . S
O530 Mn504 2.094 . S
O530 C508 1.240 . S
O531 Mn505 2.117 . S
O531 C508 1.264 . S
C532 C525 1.403 . S
C532 C533 1.399 . S
C532 H538 0.929 . S
C533 C513 1.449 . S
C533 C532 1.399 . S
C533 H539 0.930 . S
H534 C514 0.931 . S
H535 C515 0.930 . S
H536 C523 0.931 . S
H537 C524 0.929 . S
H538 C532 0.929 . S
H539 C533 0.930 . S
Mn540 O545 2.095 . S
Mn540 O555 2.162 . S
Mn540 O556 2.297 . S
Mn540 O564 2.385 . S
Mn540 O565 2.209 . S
Mn540 O566 2.094 . S
Mn541 O546 2.121 . S
Mn541 N548 2.257 . S
Mn541 N557 2.282 . S
Mn541 O565 2.215 . S
Mn541 O567 2.117 . S
C542 O564 1.234 . S
C542 O565 1.283 . S
C543 O555 1.281 . S
C543 O556 1.236 . S
C544 O566 1.240 . S
C544 O567 1.264 . S
O545 Mn540 2.095 . S
O545 C554 1.250 . S
O546 Mn541 2.121 . S
O546 C554 1.258 . S
C547 N548 1.326 . S
C547 C551 1.460 . S
C547 H553 0.929 . S
N548 Mn541 2.257 . S
N548 C547 1.326 . S
N548 C552 1.362 . S
C549 C550 1.258 . S
C549 C552 1.431 . S
C549 C569 1.449 . S
C550 C549 1.258 . S
C550 C551 1.477 . S
C550 H570 0.931 . S
C551 C547 1.460 . S
C551 C550 1.477 . S
C551 H571 0.930 . S
C552 N548 1.362 . S
C552 C549 1.431 . S
C552 C562 1.476 . S
H553 C547 0.929 . S
C554 O545 1.250 . S
C554 O546 1.258 . S
O555 Mn540 2.162 . S
O555 C543 1.281 . S
O556 Mn540 2.297 . S
O556 C543 1.236 . S
N557 Mn541 2.282 . S
N557 C558 1.328 . S
N557 C562 1.318 . S
C558 N557 1.328 . S
C558 C559 1.457 . S
C558 H563 0.929 . S
C559 C558 1.457 . S
C559 C560 1.291 . S
C559 H572 0.931 . S
C560 C559 1.291 . S
C560 C561 1.373 . S
C560 H573 0.929 . S
C561 C560 1.373 . S
C561 C562 1.396 . S
C561 C568 1.403 . S
C562 C552 1.476 . S
C562 N557 1.318 . S
C562 C561 1.396 . S
H563 C558 0.929 . S
O564 Mn540 2.385 . S
O564 C542 1.234 . S
O565 Mn540 2.209 . S
O565 Mn541 2.215 . S
O565 C542 1.283 . S
O566 Mn540 2.094 . S
O566 C544 1.240 . S
O567 Mn541 2.117 . S
O567 C544 1.264 . S
C568 C561 1.403 . S
C568 C569 1.399 . S
C568 H574 0.929 . S
C569 C549 1.449 . S
C569 C568 1.399 . S
C569 H575 0.930 . S
H570 C550 0.931 . S
H571 C551 0.930 . S
H572 C559 0.931 . S
H573 C560 0.929 . S
H574 C568 0.929 . S
H575 C569 0.930 . S
Mn576 O581 2.095 . S
Mn576 O591 2.162 . S
Mn576 O592 2.297 . S
Mn576 O600 2.385 . S
Mn576 O601 2.209 . S
Mn576 O602 2.094 . S
Mn577 O582 2.096 1_545 S
Mn577 N584 2.257 . S
Mn577 N593 2.282 . S
Mn577 O601 2.215 . S
Mn577 O603 2.117 . S
C578 O600 1.234 . S
C578 O601 1.283 . S
C579 O591 1.281 . S
C579 O592 1.236 . S
C580 O602 1.240 . S
C580 O603 1.264 . S
O581 Mn576 2.095 . S
O581 C590 1.250 1_545 S
O582 Mn577 2.096 1_565 S
O582 C590 1.245 . S
C583 N584 1.326 1_565 S
C583 C587 1.460 . S
C583 H589 0.929 . S
N584 Mn577 2.257 . S
N584 C583 1.326 1_545 S
N584 C588 1.362 . S
C585 C586 1.258 . S
C585 C588 1.431 . S
C585 C605 1.449 . S
C586 C585 1.258 . S
C586 C587 1.477 1_545 S
C586 H606 0.869 1_545 S
C587 C583 1.460 . S
C587 C586 1.477 1_565 S
C587 H607 0.930 . S
C588 N584 1.362 . S
C588 C585 1.431 . S
C588 C598 1.476 . S
H589 C583 0.929 . S
C590 O581 1.250 1_565 S
C590 O582 1.245 . S
O591 Mn576 2.162 . S
O591 C579 1.281 . S
O592 Mn576 2.297 . S
O592 C579 1.236 . S
N593 Mn577 2.282 . S
N593 C594 1.328 . S
N593 C598 1.318 . S
C594 N593 1.328 . S
C594 C595 1.457 . S
C594 H599 0.929 . S
C595 C594 1.457 . S
C595 C596 1.291 . S
C595 H608 0.931 . S
C596 C595 1.291 . S
C596 C597 1.373 . S
C596 H609 0.929 . S
C597 C596 1.373 . S
C597 C598 1.396 . S
C597 C604 1.403 . S
C598 C588 1.476 . S
C598 N593 1.318 . S
C598 C597 1.396 . S
H599 C594 0.929 . S
O600 Mn576 2.385 . S
O600 C578 1.234 . S
O601 Mn576 2.209 . S
O601 Mn577 2.215 . S
O601 C578 1.283 . S
O602 Mn576 2.094 . S
O602 C580 1.240 . S
O603 Mn577 2.117 . S
O603 C580 1.264 . S
C604 C597 1.403 . S
C604 C605 1.399 . S
C604 H610 0.929 . S
C605 C585 1.449 . S
C605 C604 1.399 . S
C605 H611 0.930 . S
H606 C586 0.869 1_565 S
H607 C587 0.930 . S
H608 C595 0.931 . S
H609 C596 0.929 . S
H610 C604 0.929 . S
H611 C605 0.930 . S
Mn612 O617 2.095 . S
Mn612 O627 2.162 1_655 S
Mn612 O628 2.297 . S
Mn612 O636 2.385 . S
Mn612 O637 2.209 . S
Mn612 O638 2.094 . S
Mn613 O618 2.121 . S
Mn613 N620 2.257 . S
Mn613 N629 2.282 . S
Mn613 O637 2.215 . S
Mn613 O639 2.117 . S
C614 O636 1.234 . S
C614 O637 1.283 . S
C615 O627 1.281 . S
C615 O628 1.236 1_455 S
C616 O638 1.240 . S
C616 O639 1.264 . S
O617 Mn612 2.095 . S
O617 C626 1.250 . S
O618 Mn613 2.121 . S
O618 C626 1.258 . S
C619 N620 1.326 . S
C619 C623 1.460 . S
C619 H625 0.929 . S
N620 Mn613 2.257 . S
N620 C619 1.326 . S
N620 C624 1.362 . S
C621 C622 1.258 . S
C621 C624 1.431 . S
C621 C641 1.449 . S
C622 C621 1.258 . S
C622 C623 1.477 . S
C622 H642 0.931 . S
C623 C619 1.460 . S
C623 C622 1.477 . S
C623 H643 0.930 . S
C624 N620 1.362 . S
C624 C621 1.431 . S
C624 C634 1.476 . S
H625 C619 0.929 . S
C626 O617 1.250 . S
C626 O618 1.258 . S
O627 Mn612 2.162 1_455 S
O627 C615 1.281 . S
O628 Mn612 2.297 . S
O628 C615 1.236 1_655 S
N629 Mn613 2.282 . S
N629 C630 1.328 . S
N629 C634 1.318 . S
C630 N629 1.328 . S
C630 C631 1.457 . S
C630 H635 0.929 . S
C631 C630 1.457 . S
C631 C632 1.291 . S
C631 H644 0.931 . S
C632 C631 1.291 . S
C632 C633 1.373 . S
C632 H645 0.929 . S
C633 C632 1.373 . S
C633 C634 1.396 . S
C633 C640 1.403 . S
C634 C624 1.476 . S
C634 N629 1.318 . S
C634 C633 1.396 . S
H635 C630 0.929 . S
O636 Mn612 2.385 . S
O636 C614 1.234 . S
O637 Mn612 2.209 . S
O637 Mn613 2.215 . S
O637 C614 1.283 . S
O638 Mn612 2.094 . S
O638 C616 1.240 . S
O639 Mn613 2.117 . S
O639 C616 1.264 . S
C640 C633 1.403 . S
C640 C641 1.399 . S
C640 H646 0.929 . S
C641 C621 1.449 . S
C641 C640 1.399 . S
C641 H647 0.930 . S
H642 C622 0.931 . S
H643 C623 0.930 . S
H644 C631 0.931 . S
H645 C632 0.929 . S
H646 C640 0.929 . S
H647 C641 0.930 . S
C648 C649 1.560 . S
C648 H709 0.959 . S
C648 H710 0.959 . S
C648 H711 0.960 . S
C649 C648 1.560 . S
C649 O704 1.426 . S
C649 H708 0.980 . S
C650 C651 1.407 . S
C650 C655 1.418 . S
C650 O704 1.334 . S
C651 C650 1.407 . S
C651 C652 1.360 . S
C651 H712 0.929 . S
C652 C651 1.360 . S
C652 C653 1.401 . S
C652 C656 1.527 . S
C653 C652 1.401 . S
C653 C654 1.405 . S
C653 C686 1.587 . S
C654 C653 1.405 . S
C654 C655 1.332 . S
C654 C657 1.496 . S
C655 C650 1.418 . S
C655 C654 1.332 . S
C655 H713 0.929 . S
C656 C652 1.527 . S
C656 H714 0.959 . S
C656 H715 0.961 . S
C656 H716 0.961 . S
C657 C654 1.496 . S
C657 H717 0.960 . S
C657 H718 0.960 . S
C657 H719 0.961 . S
C658 C659 1.517 . S
C658 H721 0.961 . S
C658 H722 0.960 . S
C658 H723 0.959 . S
C659 C658 1.517 . S
C659 O707 1.468 . S
C659 H720 0.980 . S
C660 C661 1.349 . S
C660 C665 1.367 . S
C660 O707 1.408 . S
C661 C660 1.349 . S
C661 C662 1.407 . S
C661 H724 0.930 . S
C662 C661 1.407 . S
C662 C663 1.449 . S
C662 C666 1.535 . S
C663 C662 1.449 . S
C663 C664 1.384 . S
C663 C688 1.553 . S
C664 C663 1.384 . S
C664 C665 1.364 . S
C664 C667 1.450 . S
C665 C660 1.367 . S
C665 C664 1.364 . S
C665 H725 0.931 . S
C666 C662 1.535 . S
C666 H726 0.959 . S
C666 H727 0.961 . S
C666 H728 0.959 . S
C667 C664 1.450 . S
C667 H729 0.960 . S
C667 H730 0.960 . S
C667 H731 0.960 . S
C668 C669 1.309 . S
C668 C673 1.304 . S
C668 O706 1.435 . S
C669 C668 1.309 . S
C669 C670 1.476 . S
C669 H733 0.930 . S
C670 C669 1.476 . S
C670 C671 1.400 . S
C670 C674 1.567 . S
C671 C670 1.400 . S
C671 C672 1.373 . S
C671 C693 1.432 . S
C672 C671 1.373 . S
C672 C673 1.339 . S
C672 C675 1.530 . S
C673 C668 1.304 . S
C673 C672 1.339 . S
C673 H734 0.930 . S
C674 C670 1.567 . S
C674 H735 0.961 . S
C674 H736 0.960 . S
C674 H737 0.958 . S
C675 C672 1.530 . S
C675 H738 0.961 . S
C675 H739 0.960 . S
C675 H740 0.960 . S
C676 C677 1.530 . S
C676 H742 0.961 . S
C676 H743 0.961 . S
C676 H744 0.959 . S
C677 C676 1.530 . S
C677 O705 1.412 . S
C677 H741 0.980 . S
C678 C679 1.288 . S
C678 C683 1.377 . S
C678 O705 1.393 . S
C679 C678 1.288 . S
C679 C680 1.369 . S
C679 H745 0.932 . S
C680 C679 1.369 . S
C680 C681 1.398 . S
C680 C684 1.527 . S
C681 C680 1.398 . S
C681 C682 1.380 . S
C681 C695 1.497 . S
C682 C681 1.380 . S
C682 C683 1.383 . S
C682 C685 1.603 . S
C683 C678 1.377 . S
C683 C682 1.383 . S
C683 H746 0.929 . S
C684 C680 1.527 . S
C684 H747 0.961 . S
C684 H748 0.959 . S
C684 H749 0.959 . S
C685 C682 1.603 . S
C685 H750 0.960 . S
C685 H751 0.962 . S
C685 H752 0.961 . S
C686 C653 1.587 . S
C686 C687 1.360 . S
C686 C699 1.412 . S
C687 C686 1.360 . S
C687 C688 1.365 . S
C687 H753 0.929 . S
C688 C663 1.553 . S
C688 C687 1.365 . S
C688 C689 1.404 . S
C689 C688 1.404 . S
C689 C690 1.395 . S
C689 C700 1.451 . S
C690 C689 1.395 . S
C690 C691 1.322 . S
C690 H754 0.930 . S
C691 C690 1.322 . S
C691 C692 1.459 . S
C691 H755 0.929 . S
C692 C691 1.459 . S
C692 C693 1.445 . S
C692 C701 1.395 . S
C693 C671 1.432 . S
C693 C692 1.445 . S
C693 C694 1.370 . S
C694 C693 1.370 . S
C694 C695 1.438 . S
C694 H756 0.930 . S
C695 C681 1.497 . S
C695 C694 1.438 . S
C695 C696 1.360 . S
C696 C695 1.360 . S
C696 C697 1.401 . S
C696 C701 1.446 . S
C697 C696 1.401 . S
C697 C698 1.347 . S
C697 H757 0.929 . S
C698 C697 1.347 . S
C698 C699 1.455 . S
C698 H758 0.930 . S
C699 C686 1.412 . S
C699 C698 1.455 . S
C699 C700 1.331 . S
C700 C689 1.451 . S
C700 C699 1.331 . S
C700 C701 1.497 . S
C701 C692 1.395 . S
C701 C696 1.446 . S
C701 C700 1.497 . S
C702 C703 1.582 . S
C702 H759 0.962 . S
C702 H760 0.959 . S
C702 H761 0.958 . S
C703 C702 1.582 . S
C703 O706 1.458 . S
C703 H732 0.980 . S
O704 C649 1.426 . S
O704 C650 1.334 . S
O705 C677 1.412 . S
O705 C678 1.393 . S
O706 C668 1.435 . S
O706 C703 1.458 . S
O707 C659 1.468 . S
O707 C660 1.408 . S
H708 C649 0.980 . S
H709 C648 0.959 . S
H710 C648 0.959 . S
H711 C648 0.960 . S
H712 C651 0.929 . S
H713 C655 0.929 . S
H714 C656 0.959 . S
H715 C656 0.961 . S
H716 C656 0.961 . S
H717 C657 0.960 . S
H718 C657 0.960 . S
H719 C657 0.961 . S
H720 C659 0.980 . S
H721 C658 0.961 . S
H722 C658 0.960 . S
H723 C658 0.959 . S
H724 C661 0.930 . S
H725 C665 0.931 . S
H726 C666 0.959 . S
H727 C666 0.961 . S
H728 C666 0.959 . S
H729 C667 0.960 . S
H730 C667 0.960 . S
H731 C667 0.960 . S
H732 C703 0.980 . S
H733 C669 0.930 . S
H734 C673 0.930 . S
H735 C674 0.961 . S
H736 C674 0.960 . S
H737 C674 0.958 . S
H738 C675 0.961 . S
H739 C675 0.960 . S
H740 C675 0.960 . S
H741 C677 0.980 . S
H742 C676 0.961 . S
H743 C676 0.961 . S
H744 C676 0.959 . S
H745 C679 0.932 . S
H746 C683 0.929 . S
H747 C684 0.961 . S
H748 C684 0.959 . S
H749 C684 0.959 . S
H750 C685 0.960 . S
H751 C685 0.962 . S
H752 C685 0.961 . S
H753 C687 0.929 . S
H754 C690 0.930 . S
H755 C691 0.929 . S
H756 C694 0.930 . S
H757 C697 0.929 . S
H758 C698 0.930 . S
H759 C702 0.962 . S
H760 C702 0.959 . S
H761 C702 0.958 . S
C762 C763 1.560 . S
C762 H823 0.959 . S
C762 H824 0.959 . S
C762 H825 0.960 . S
C763 C762 1.560 . S
C763 O818 1.426 . S
C763 H822 0.980 . S
C764 C765 1.407 . S
C764 C769 1.418 . S
C764 O818 1.334 . S
C765 C764 1.407 . S
C765 C766 1.360 . S
C765 H826 0.929 . S
C766 C765 1.360 . S
C766 C767 1.401 . S
C766 C770 1.527 . S
C767 C766 1.401 . S
C767 C768 1.405 . S
C767 C800 1.587 . S
C768 C767 1.405 . S
C768 C769 1.332 . S
C768 C771 1.496 . S
C769 C764 1.418 . S
C769 C768 1.332 . S
C769 H827 0.929 . S
C770 C766 1.527 . S
C770 H828 0.959 . S
C770 H829 0.961 . S
C770 H830 0.961 . S
C771 C768 1.496 . S
C771 H831 0.960 . S
C771 H832 0.960 . S
C771 H833 0.961 . S
C772 C773 1.517 . S
C772 H835 0.961 . S
C772 H836 0.960 . S
C772 H837 0.959 . S
C773 C772 1.517 . S
C773 O821 1.468 . S
C773 H834 0.980 . S
C774 C775 1.349 . S
C774 C779 1.367 . S
C774 O821 1.408 . S
C775 C774 1.349 . S
C775 C776 1.407 . S
C775 H838 0.930 . S
C776 C775 1.407 . S
C776 C777 1.449 . S
C776 C780 1.535 . S
C777 C776 1.449 . S
C777 C778 1.384 . S
C777 C802 1.553 . S
C778 C777 1.384 . S
C778 C779 1.364 . S
C778 C781 1.450 . S
C779 C774 1.367 . S
C779 C778 1.364 . S
C779 H839 0.931 . S
C780 C776 1.535 . S
C780 H840 0.959 . S
C780 H841 0.961 . S
C780 H842 0.959 . S
C781 C778 1.450 . S
C781 H843 0.960 . S
C781 H844 0.960 . S
C781 H845 0.960 . S
C782 C783 1.309 . S
C782 C787 1.304 . S
C782 O820 1.435 . S
C783 C782 1.309 . S
C783 C784 1.476 . S
C783 H847 0.930 . S
C784 C783 1.476 . S
C784 C785 1.400 . S
C784 C788 1.567 . S
C785 C784 1.400 . S
C785 C786 1.373 . S
C785 C807 1.432 . S
C786 C785 1.373 . S
C786 C787 1.339 . S
C786 C789 1.530 . S
C787 C782 1.304 . S
C787 C786 1.339 . S
C787 H848 0.930 . S
C788 C784 1.567 . S
C788 H849 0.961 . S
C788 H850 0.960 . S
C788 H851 0.958 . S
C789 C786 1.530 . S
C789 H852 0.961 . S
C789 H853 0.960 . S
C789 H854 0.960 . S
C790 C791 1.530 . S
C790 H856 0.961 . S
C790 H857 0.961 . S
C790 H858 0.959 . S
C791 C790 1.530 . S
C791 O819 1.412 . S
C791 H855 0.980 . S
C792 C793 1.288 . S
C792 C797 1.377 . S
C792 O819 1.393 . S
C793 C792 1.288 . S
C793 C794 1.369 . S
C793 H859 0.932 . S
C794 C793 1.369 . S
C794 C795 1.398 . S
C794 C798 1.527 . S
C795 C794 1.398 . S
C795 C796 1.380 . S
C795 C809 1.497 . S
C796 C795 1.380 . S
C796 C797 1.383 . S
C796 C799 1.603 . S
C797 C792 1.377 . S
C797 C796 1.383 . S
C797 H860 0.929 . S
C798 C794 1.527 . S
C798 H861 0.961 . S
C798 H862 0.959 . S
C798 H863 0.959 . S
C799 C796 1.603 . S
C799 H864 0.960 . S
C799 H865 0.962 . S
C799 H866 0.961 . S
C800 C767 1.587 . S
C800 C801 1.360 . S
C800 C813 1.412 . S
C801 C800 1.360 . S
C801 C802 1.365 . S
C801 H867 0.929 . S
C802 C777 1.553 . S
C802 C801 1.365 . S
C802 C803 1.404 . S
C803 C802 1.404 . S
C803 C804 1.395 . S
C803 C814 1.451 . S
C804 C803 1.395 . S
C804 C805 1.322 . S
C804 H868 0.930 . S
C805 C804 1.322 . S
C805 C806 1.459 . S
C805 H869 0.929 . S
C806 C805 1.459 . S
C806 C807 1.445 . S
C806 C815 1.395 . S
C807 C785 1.432 . S
C807 C806 1.445 . S
C807 C808 1.370 . S
C808 C807 1.370 . S
C808 C809 1.438 . S
C808 H870 0.930 . S
C809 C795 1.497 . S
C809 C808 1.438 . S
C809 C810 1.360 . S
C810 C809 1.360 . S
C810 C811 1.401 . S
C810 C815 1.446 . S
C811 C810 1.401 . S
C811 C812 1.347 . S
C811 H871 0.929 . S
C812 C811 1.347 . S
C812 C813 1.455 . S
C812 H872 0.930 . S
C813 C800 1.412 . S
C813 C812 1.455 . S
C813 C814 1.331 . S
C814 C803 1.451 . S
C814 C813 1.331 . S
C814 C815 1.497 . S
C815 C806 1.395 . S
C815 C810 1.446 . S
C815 C814 1.497 . S
C816 C817 1.582 . S
C816 H873 0.962 . S
C816 H874 0.959 . S
C816 H875 0.958 . S
C817 C816 1.582 . S
C817 O820 1.458 . S
C817 H846 0.980 . S
O818 C763 1.426 . S
O818 C764 1.334 . S
O819 C791 1.412 . S
O819 C792 1.393 . S
O820 C782 1.435 . S
O820 C817 1.458 . S
O821 C773 1.468 . S
O821 C774 1.408 . S
H822 C763 0.980 . S
H823 C762 0.959 . S
H824 C762 0.959 . S
H825 C762 0.960 . S
H826 C765 0.929 . S
H827 C769 0.929 . S
H828 C770 0.959 . S
H829 C770 0.961 . S
H830 C770 0.961 . S
H831 C771 0.960 . S
H832 C771 0.960 . S
H833 C771 0.961 . S
H834 C773 0.980 . S
H835 C772 0.961 . S
H836 C772 0.960 . S
H837 C772 0.959 . S
H838 C775 0.930 . S
H839 C779 0.931 . S
H840 C780 0.959 . S
H841 C780 0.961 . S
H842 C780 0.959 . S
H843 C781 0.960 . S
H844 C781 0.960 . S
H845 C781 0.960 . S
H846 C817 0.980 . S
H847 C783 0.930 . S
H848 C787 0.930 . S
H849 C788 0.961 . S
H850 C788 0.960 . S
H851 C788 0.958 . S
H852 C789 0.961 . S
H853 C789 0.960 . S
H854 C789 0.960 . S
H855 C791 0.980 . S
H856 C790 0.961 . S
H857 C790 0.961 . S
H858 C790 0.959 . S
H859 C793 0.932 . S
H860 C797 0.929 . S
H861 C798 0.961 . S
H862 C798 0.959 . S
H863 C798 0.959 . S
H864 C799 0.960 . S
H865 C799 0.962 . S
H866 C799 0.961 . S
H867 C801 0.929 . S
H868 C804 0.930 . S
H869 C805 0.929 . S
H870 C808 0.930 . S
H871 C811 0.929 . S
H872 C812 0.930 . S
H873 C816 0.962 . S
H874 C816 0.959 . S
H875 C816 0.958 . S
C876 C877 1.560 . S
C876 H937 0.959 . S
C876 H938 0.959 . S
C876 H939 0.960 . S
C877 C876 1.560 . S
C877 O932 1.426 . S
C877 H936 0.980 . S
C878 C879 1.407 . S
C878 C883 1.418 . S
C878 O932 1.334 . S
C879 C878 1.407 . S
C879 C880 1.360 . S
C879 H940 0.929 . S
C880 C879 1.360 . S
C880 C881 1.401 . S
C880 C884 1.527 . S
C881 C880 1.401 . S
C881 C882 1.405 . S
C881 C914 1.587 . S
C882 C881 1.405 . S
C882 C883 1.332 . S
C882 C885 1.496 . S
C883 C878 1.418 . S
C883 C882 1.332 . S
C883 H941 0.929 . S
C884 C880 1.527 . S
C884 H942 0.959 . S
C884 H943 0.961 . S
C884 H944 0.961 . S
C885 C882 1.496 . S
C885 H945 0.960 . S
C885 H946 0.960 . S
C885 H947 0.961 . S
C886 C887 1.517 . S
C886 H949 0.961 . S
C886 H950 0.960 . S
C886 H951 0.959 . S
C887 C886 1.517 . S
C887 O935 1.468 . S
C887 H948 0.980 . S
C888 C889 1.349 . S
C888 C893 1.367 . S
C888 O935 1.408 . S
C889 C888 1.349 . S
C889 C890 1.407 . S
C889 H952 0.930 . S
C890 C889 1.407 . S
C890 C891 1.449 . S
C890 C894 1.535 . S
C891 C890 1.449 . S
C891 C892 1.384 . S
C891 C916 1.553 . S
C892 C891 1.384 . S
C892 C893 1.364 . S
C892 C895 1.450 . S
C893 C888 1.367 . S
C893 C892 1.364 . S
C893 H953 0.931 . S
C894 C890 1.535 . S
C894 H954 0.959 . S
C894 H955 0.961 . S
C894 H956 0.959 . S
C895 C892 1.450 . S
C895 H957 0.960 . S
C895 H958 0.960 . S
C895 H959 0.960 . S
C896 C897 1.309 . S
C896 C901 1.304 . S
C896 O934 1.435 . S
C897 C896 1.309 . S
C897 C898 1.476 . S
C897 H961 0.930 . S
C898 C897 1.476 . S
C898 C899 1.400 . S
C898 C902 1.567 . S
C899 C898 1.400 . S
C899 C900 1.373 . S
C899 C921 1.432 . S
C900 C899 1.373 . S
C900 C901 1.339 . S
C900 C903 1.530 . S
C901 C896 1.304 . S
C901 C900 1.339 . S
C901 H962 0.930 . S
C902 C898 1.567 . S
C902 H963 0.961 . S
C902 H964 0.960 . S
C902 H965 0.958 . S
C903 C900 1.530 . S
C903 H966 0.961 . S
C903 H967 0.960 . S
C903 H968 0.960 . S
C904 C905 1.530 . S
C904 H970 0.961 . S
C904 H971 0.961 . S
C904 H972 0.959 . S
C905 C904 1.530 . S
C905 O933 1.412 . S
C905 H969 0.980 . S
C906 C907 1.288 . S
C906 C911 1.377 . S
C906 O933 1.393 . S
C907 C906 1.288 . S
C907 C908 1.369 . S
C907 H973 0.932 . S
C908 C907 1.369 . S
C908 C909 1.398 . S
C908 C912 1.527 . S
C909 C908 1.398 . S
C909 C910 1.380 . S
C909 C923 1.497 . S
C910 C909 1.380 . S
C910 C911 1.383 . S
C910 C913 1.603 . S
C911 C906 1.377 . S
C911 C910 1.383 . S
C911 H974 0.929 . S
C912 C908 1.527 . S
C912 H975 0.961 . S
C912 H976 0.959 . S
C912 H977 0.959 . S
C913 C910 1.603 . S
C913 H978 0.960 . S
C913 H979 0.962 . S
C913 H980 0.961 . S
C914 C881 1.587 . S
C914 C915 1.360 . S
C914 C927 1.412 . S
C915 C914 1.360 . S
C915 C916 1.365 . S
C915 H981 0.929 . S
C916 C891 1.553 . S
C916 C915 1.365 . S
C916 C917 1.404 . S
C917 C916 1.404 . S
C917 C918 1.395 . S
C917 C928 1.451 . S
C918 C917 1.395 . S
C918 C919 1.322 . S
C918 H982 0.930 . S
C919 C918 1.322 . S
C919 C920 1.459 . S
C919 H983 0.929 . S
C920 C919 1.459 . S
C920 C921 1.445 . S
C920 C929 1.395 . S
C921 C899 1.432 . S
C921 C920 1.445 . S
C921 C922 1.370 . S
C922 C921 1.370 . S
C922 C923 1.438 . S
C922 H984 0.930 . S
C923 C909 1.497 . S
C923 C922 1.438 . S
C923 C924 1.360 . S
C924 C923 1.360 . S
C924 C925 1.401 . S
C924 C929 1.446 . S
C925 C924 1.401 . S
C925 C926 1.347 . S
C925 H985 0.929 . S
C926 C925 1.347 . S
C926 C927 1.455 . S
C926 H986 0.930 . S
C927 C914 1.412 . S
C927 C926 1.455 . S
C927 C928 1.331 . S
C928 C917 1.451 . S
C928 C927 1.331 . S
C928 C929 1.497 . S
C929 C920 1.395 . S
C929 C924 1.446 . S
C929 C928 1.497 . S
C930 C931 1.582 . S
C930 H987 0.962 . S
C930 H988 0.959 . S
C930 H989 0.958 . S
C931 C930 1.582 . S
C931 O934 1.458 . S
C931 H960 0.980 . S
O932 C877 1.426 . S
O932 C878 1.334 . S
O933 C905 1.412 . S
O933 C906 1.393 . S
O934 C896 1.435 . S
O934 C931 1.458 . S
O935 C887 1.468 . S
O935 C888 1.408 . S
H936 C877 0.980 . S
H937 C876 0.959 . S
H938 C876 0.959 . S
H939 C876 0.960 . S
H940 C879 0.929 . S
H941 C883 0.929 . S
H942 C884 0.959 . S
H943 C884 0.961 . S
H944 C884 0.961 . S
H945 C885 0.960 . S
H946 C885 0.960 . S
H947 C885 0.961 . S
H948 C887 0.980 . S
H949 C886 0.961 . S
H950 C886 0.960 . S
H951 C886 0.959 . S
H952 C889 0.930 . S
H953 C893 0.931 . S
H954 C894 0.959 . S
H955 C894 0.961 . S
H956 C894 0.959 . S
H957 C895 0.960 . S
H958 C895 0.960 . S
H959 C895 0.960 . S
H960 C931 0.980 . S
H961 C897 0.930 . S
H962 C901 0.930 . S
H963 C902 0.961 . S
H964 C902 0.960 . S
H965 C902 0.958 . S
H966 C903 0.961 . S
H967 C903 0.960 . S
H968 C903 0.960 . S
H969 C905 0.980 . S
H970 C904 0.961 . S
H971 C904 0.961 . S
H972 C904 0.959 . S
H973 C907 0.932 . S
H974 C911 0.929 . S
H975 C912 0.961 . S
H976 C912 0.959 . S
H977 C912 0.959 . S
H978 C913 0.960 . S
H979 C913 0.962 . S
H980 C913 0.961 . S
H981 C915 0.929 . S
H982 C918 0.930 . S
H983 C919 0.929 . S
H984 C922 0.930 . S
H985 C925 0.929 . S
H986 C926 0.930 . S
H987 C930 0.962 . S
H988 C930 0.959 . S
H989 C930 0.958 . S
C990 C991 1.560 . S
C990 H1051 0.959 . S
C990 H1052 0.959 . S
C990 H1053 0.960 . S
C991 C990 1.560 . S
C991 O1046 1.426 . S
C991 H1050 0.980 . S
C992 C993 1.407 . S
C992 C997 1.418 . S
C992 O1046 1.334 . S
C993 C992 1.407 . S
C993 C994 1.360 . S
C993 H1054 0.929 . S
C994 C993 1.360 . S
C994 C995 1.401 . S
C994 C998 1.527 . S
C995 C994 1.401 . S
C995 C996 1.405 . S
C995 C1028 1.587 . S
C996 C995 1.405 . S
C996 C997 1.332 . S
C996 C999 1.496 . S
C997 C992 1.418 . S
C997 C996 1.332 . S
C997 H1055 0.929 . S
C998 C994 1.527 . S
C998 H1056 0.959 . S
C998 H1057 0.961 . S
C998 H1058 0.961 . S
C999 C996 1.496 . S
C999 H1059 0.960 . S
C999 H1060 0.960 . S
C999 H1061 0.961 . S
C1000 C1001 1.517 . S
C1000 H1063 0.961 . S
C1000 H1064 0.960 . S
C1000 H1065 0.959 . S
C1001 C1000 1.517 . S
C1001 O1049 1.468 . S
C1001 H1062 0.980 . S
C1002 C1003 1.349 . S
C1002 C1007 1.367 . S
C1002 O1049 1.408 . S
C1003 C1002 1.349 . S
C1003 C1004 1.407 . S
C1003 H1066 0.930 . S
C1004 C1003 1.407 . S
C1004 C1005 1.449 . S
C1004 C1008 1.535 . S
C1005 C1004 1.449 . S
C1005 C1006 1.384 . S
C1005 C1030 1.553 . S
C1006 C1005 1.384 . S
C1006 C1007 1.364 . S
C1006 C1009 1.450 . S
C1007 C1002 1.367 . S
C1007 C1006 1.364 . S
C1007 H1067 0.931 . S
C1008 C1004 1.535 . S
C1008 H1068 0.959 . S
C1008 H1069 0.961 . S
C1008 H1070 0.959 . S
C1009 C1006 1.450 . S
C1009 H1071 0.960 . S
C1009 H1072 0.960 . S
C1009 H1073 0.960 . S
C1010 C1011 1.309 . S
C1010 C1015 1.304 . S
C1010 O1048 1.435 . S
C1011 C1010 1.309 . S
C1011 C1012 1.476 . S
C1011 H1075 0.930 . S
C1012 C1011 1.476 . S
C1012 C1013 1.400 . S
C1012 C1016 1.567 . S
C1013 C1012 1.400 . S
C1013 C1014 1.373 . S
C1013 C1035 1.432 . S
C1014 C1013 1.373 . S
C1014 C1015 1.339 . S
C1014 C1017 1.530 . S
C1015 C1010 1.304 . S
C1015 C1014 1.339 . S
C1015 H1076 0.930 . S
C1016 C1012 1.567 . S
C1016 H1077 0.961 . S
C1016 H1078 0.960 . S
C1016 H1079 0.958 . S
C1017 C1014 1.530 . S
C1017 H1080 0.961 . S
C1017 H1081 0.960 . S
C1017 H1082 0.960 . S
C1018 C1019 1.530 . S
C1018 H1084 0.961 . S
C1018 H1085 0.961 . S
C1018 H1086 0.959 . S
C1019 C1018 1.530 . S
C1019 O1047 1.412 . S
C1019 H1083 0.980 . S
C1020 C1021 1.288 . S
C1020 C1025 1.377 . S
C1020 O1047 1.393 . S
C1021 C1020 1.288 . S
C1021 C1022 1.369 . S
C1021 H1087 0.932 . S
C1022 C1021 1.369 . S
C1022 C1023 1.398 . S
C1022 C1026 1.527 . S
C1023 C1022 1.398 . S
C1023 C1024 1.380 . S
C1023 C1037 1.497 . S
C1024 C1023 1.380 . S
C1024 C1025 1.383 . S
C1024 C1027 1.603 . S
C1025 C1020 1.377 . S
C1025 C1024 1.383 . S
C1025 H1088 0.929 . S
C1026 C1022 1.527 . S
C1026 H1089 0.961 . S
C1026 H1090 0.959 . S
C1026 H1091 0.959 . S
C1027 C1024 1.603 . S
C1027 H1092 0.960 . S
C1027 H1093 0.962 . S
C1027 H1094 0.961 . S
C1028 C995 1.587 . S
C1028 C1029 1.360 . S
C1028 C1041 1.412 . S
C1029 C1028 1.360 . S
C1029 C1030 1.365 . S
C1029 H1095 0.929 . S
C1030 C1005 1.553 . S
C1030 C1029 1.365 . S
C1030 C1031 1.404 . S
C1031 C1030 1.404 . S
C1031 C1032 1.395 . S
C1031 C1042 1.451 . S
C1032 C1031 1.395 . S
C1032 C1033 1.322 . S
C1032 H1096 0.930 . S
C1033 C1032 1.322 . S
C1033 C1034 1.459 . S
C1033 H1097 0.929 . S
C1034 C1033 1.459 . S
C1034 C1035 1.445 . S
C1034 C1043 1.395 . S
C1035 C1013 1.432 . S
C1035 C1034 1.445 . S
C1035 C1036 1.370 . S
C1036 C1035 1.370 . S
C1036 C1037 1.438 . S
C1036 H1098 0.930 . S
C1037 C1023 1.497 . S
C1037 C1036 1.438 . S
C1037 C1038 1.360 . S
C1038 C1037 1.360 . S
C1038 C1039 1.401 . S
C1038 C1043 1.446 . S
C1039 C1038 1.401 . S
C1039 C1040 1.347 . S
C1039 H1099 0.929 . S
C1040 C1039 1.347 . S
C1040 C1041 1.455 . S
C1040 H1100 0.930 . S
C1041 C1028 1.412 . S
C1041 C1040 1.455 . S
C1041 C1042 1.331 . S
C1042 C1031 1.451 . S
C1042 C1041 1.331 . S
C1042 C1043 1.497 . S
C1043 C1034 1.395 . S
C1043 C1038 1.446 . S
C1043 C1042 1.497 . S
C1044 C1045 1.582 . S
C1044 H1101 0.962 . S
C1044 H1102 0.959 . S
C1044 H1103 0.958 . S
C1045 C1044 1.582 . S
C1045 O1048 1.458 . S
C1045 H1074 0.980 . S
O1046 C991 1.426 . S
O1046 C992 1.334 . S
O1047 C1019 1.412 . S
O1047 C1020 1.393 . S
O1048 C1010 1.435 . S
O1048 C1045 1.458 . S
O1049 C1001 1.468 . S
O1049 C1002 1.408 . S
H1050 C991 0.980 . S
H1051 C990 0.959 . S
H1052 C990 0.959 . S
H1053 C990 0.960 . S
H1054 C993 0.929 . S
H1055 C997 0.929 . S
H1056 C998 0.959 . S
H1057 C998 0.961 . S
H1058 C998 0.961 . S
H1059 C999 0.960 . S
H1060 C999 0.960 . S
H1061 C999 0.961 . S
H1062 C1001 0.980 . S
H1063 C1000 0.961 . S
H1064 C1000 0.960 . S
H1065 C1000 0.959 . S
H1066 C1003 0.930 . S
H1067 C1007 0.931 . S
H1068 C1008 0.959 . S
H1069 C1008 0.961 . S
H1070 C1008 0.959 . S
H1071 C1009 0.960 . S
H1072 C1009 0.960 . S
H1073 C1009 0.960 . S
H1074 C1045 0.980 . S
H1075 C1011 0.930 . S
H1076 C1015 0.930 . S
H1077 C1016 0.961 . S
H1078 C1016 0.960 . S
H1079 C1016 0.958 . S
H1080 C1017 0.961 . S
H1081 C1017 0.960 . S
H1082 C1017 0.960 . S
H1083 C1019 0.980 . S
H1084 C1018 0.961 . S
H1085 C1018 0.961 . S
H1086 C1018 0.959 . S
H1087 C1021 0.932 . S
H1088 C1025 0.929 . S
H1089 C1026 0.961 . S
H1090 C1026 0.959 . S
H1091 C1026 0.959 . S
H1092 C1027 0.960 . S
H1093 C1027 0.962 . S
H1094 C1027 0.961 . S
H1095 C1029 0.929 . S
H1096 C1032 0.930 . S
H1097 C1033 0.929 . S
H1098 C1036 0.930 . S
H1099 C1039 0.929 . S
H1100 C1040 0.930 . S
H1101 C1044 0.962 . S
H1102 C1044 0.959 . S
H1103 C1044 0.958 . S
C1104 C1105 1.560 . S
C1104 H1165 0.959 . S
C1104 H1166 0.959 . S
C1104 H1167 0.960 . S
C1105 C1104 1.560 . S
C1105 O1160 1.426 . S
C1105 H1164 0.980 . S
C1106 C1107 1.407 . S
C1106 C1111 1.418 . S
C1106 O1160 1.334 . S
C1107 C1106 1.407 . S
C1107 C1108 1.360 . S
C1107 H1168 0.929 . S
C1108 C1107 1.360 . S
C1108 C1109 1.401 . S
C1108 C1112 1.527 . S
C1109 C1108 1.401 . S
C1109 C1110 1.405 . S
C1109 C1142 1.587 . S
C1110 C1109 1.405 . S
C1110 C1111 1.332 . S
C1110 C1113 1.496 . S
C1111 C1106 1.418 . S
C1111 C1110 1.332 . S
C1111 H1169 0.929 . S
C1112 C1108 1.527 . S
C1112 H1170 0.959 . S
C1112 H1171 0.961 . S
C1112 H1172 0.961 . S
C1113 C1110 1.496 . S
C1113 H1173 0.960 . S
C1113 H1174 0.960 . S
C1113 H1175 0.961 . S
C1114 C1115 1.517 . S
C1114 H1177 0.961 . S
C1114 H1178 0.960 . S
C1114 H1179 0.959 . S
C1115 C1114 1.517 . S
C1115 O1163 1.468 . S
C1115 H1176 0.980 . S
C1116 C1117 1.349 . S
C1116 C1121 1.367 . S
C1116 O1163 1.408 . S
C1117 C1116 1.349 . S
C1117 C1118 1.407 . S
C1117 H1180 0.930 . S
C1118 C1117 1.407 . S
C1118 C1119 1.449 . S
C1118 C1122 1.535 . S
C1119 C1118 1.449 . S
C1119 C1120 1.384 . S
C1119 C1144 1.553 . S
C1120 C1119 1.384 . S
C1120 C1121 1.364 . S
C1120 C1123 1.450 . S
C1121 C1116 1.367 . S
C1121 C1120 1.364 . S
C1121 H1181 0.931 . S
C1122 C1118 1.535 . S
C1122 H1182 0.959 . S
C1122 H1183 0.961 . S
C1122 H1184 0.959 . S
C1123 C1120 1.450 . S
C1123 H1185 0.960 . S
C1123 H1186 0.960 . S
C1123 H1187 0.960 . S
C1124 C1125 1.309 . S
C1124 C1129 1.304 . S
C1124 O1162 1.435 . S
C1125 C1124 1.309 . S
C1125 C1126 1.476 . S
C1125 H1189 0.930 . S
C1126 C1125 1.476 . S
C1126 C1127 1.400 . S
C1126 C1130 1.567 . S
C1127 C1126 1.400 . S
C1127 C1128 1.373 . S
C1127 C1149 1.432 . S
C1128 C1127 1.373 . S
C1128 C1129 1.339 . S
C1128 C1131 1.530 . S
C1129 C1124 1.304 . S
C1129 C1128 1.339 . S
C1129 H1190 0.930 . S
C1130 C1126 1.567 . S
C1130 H1191 0.961 . S
C1130 H1192 0.960 . S
C1130 H1193 0.958 . S
C1131 C1128 1.530 . S
C1131 H1194 0.961 . S
C1131 H1195 0.960 . S
C1131 H1196 0.960 . S
C1132 C1133 1.530 . S
C1132 H1198 0.961 . S
C1132 H1199 0.961 . S
C1132 H1200 0.959 . S
C1133 C1132 1.530 . S
C1133 O1161 1.412 . S
C1133 H1197 0.980 . S
C1134 C1135 1.288 . S
C1134 C1139 1.377 . S
C1134 O1161 1.393 . S
C1135 C1134 1.288 . S
C1135 C1136 1.369 . S
C1135 H1201 0.932 . S
C1136 C1135 1.369 . S
C1136 C1137 1.398 . S
C1136 C1140 1.527 . S
C1137 C1136 1.398 . S
C1137 C1138 1.380 . S
C1137 C1151 1.497 . S
C1138 C1137 1.380 . S
C1138 C1139 1.383 . S
C1138 C1141 1.603 . S
C1139 C1134 1.377 . S
C1139 C1138 1.383 . S
C1139 H1202 0.929 . S
C1140 C1136 1.527 . S
C1140 H1203 0.961 . S
C1140 H1204 0.959 . S
C1140 H1205 0.959 . S
C1141 C1138 1.603 . S
C1141 H1206 0.960 . S
C1141 H1207 0.962 . S
C1141 H1208 0.961 . S
C1142 C1109 1.587 . S
C1142 C1143 1.360 . S
C1142 C1155 1.412 . S
C1143 C1142 1.360 . S
C1143 C1144 1.365 . S
C1143 H1209 0.929 . S
C1144 C1119 1.553 . S
C1144 C1143 1.365 . S
C1144 C1145 1.404 . S
C1145 C1144 1.404 . S
C1145 C1146 1.395 . S
C1145 C1156 1.451 . S
C1146 C1145 1.395 . S
C1146 C1147 1.322 . S
C1146 H1210 0.930 . S
C1147 C1146 1.322 . S
C1147 C1148 1.459 . S
C1147 H1211 0.929 . S
C1148 C1147 1.459 . S
C1148 C1149 1.445 . S
C1148 C1157 1.395 . S
C1149 C1127 1.432 . S
C1149 C1148 1.445 . S
C1149 C1150 1.370 . S
C1150 C1149 1.370 . S
C1150 C1151 1.438 . S
C1150 H1212 0.930 . S
C1151 C1137 1.497 . S
C1151 C1150 1.438 . S
C1151 C1152 1.360 . S
C1152 C1151 1.360 . S
C1152 C1153 1.401 . S
C1152 C1157 1.446 . S
C1153 C1152 1.401 . S
C1153 C1154 1.347 . S
C1153 H1213 0.929 . S
C1154 C1153 1.347 . S
C1154 C1155 1.455 . S
C1154 H1214 0.930 . S
C1155 C1142 1.412 . S
C1155 C1154 1.455 . S
C1155 C1156 1.331 . S
C1156 C1145 1.451 . S
C1156 C1155 1.331 . S
C1156 C1157 1.497 . S
C1157 C1148 1.395 . S
C1157 C1152 1.446 . S
C1157 C1156 1.497 . S
C1158 C1159 1.582 . S
C1158 H1215 0.962 . S
C1158 H1216 0.959 . S
C1158 H1217 0.958 . S
C1159 C1158 1.582 . S
C1159 O1162 1.458 . S
C1159 H1188 0.980 . S
O1160 C1105 1.426 . S
O1160 C1106 1.334 . S
O1161 C1133 1.412 . S
O1161 C1134 1.393 . S
O1162 C1124 1.435 . S
O1162 C1159 1.458 . S
O1163 C1115 1.468 . S
O1163 C1116 1.408 . S
H1164 C1105 0.980 . S
H1165 C1104 0.959 . S
H1166 C1104 0.959 . S
H1167 C1104 0.960 . S
H1168 C1107 0.929 . S
H1169 C1111 0.929 . S
H1170 C1112 0.959 . S
H1171 C1112 0.961 . S
H1172 C1112 0.961 . S
H1173 C1113 0.960 . S
H1174 C1113 0.960 . S
H1175 C1113 0.961 . S
H1176 C1115 0.980 . S
H1177 C1114 0.961 . S
H1178 C1114 0.960 . S
H1179 C1114 0.959 . S
H1180 C1117 0.930 . S
H1181 C1121 0.931 . S
H1182 C1122 0.959 . S
H1183 C1122 0.961 . S
H1184 C1122 0.959 . S
H1185 C1123 0.960 . S
H1186 C1123 0.960 . S
H1187 C1123 0.960 . S
H1188 C1159 0.980 . S
H1189 C1125 0.930 . S
H1190 C1129 0.930 . S
H1191 C1130 0.961 . S
H1192 C1130 0.960 . S
H1193 C1130 0.958 . S
H1194 C1131 0.961 . S
H1195 C1131 0.960 . S
H1196 C1131 0.960 . S
H1197 C1133 0.980 . S
H1198 C1132 0.961 . S
H1199 C1132 0.961 . S
H1200 C1132 0.959 . S
H1201 C1135 0.932 . S
H1202 C1139 0.929 . S
H1203 C1140 0.961 . S
H1204 C1140 0.959 . S
H1205 C1140 0.959 . S
H1206 C1141 0.960 . S
H1207 C1141 0.962 . S
H1208 C1141 0.961 . S
H1209 C1143 0.929 . S
H1210 C1146 0.930 . S
H1211 C1147 0.929 . S
H1212 C1150 0.930 . S
H1213 C1153 0.929 . S
H1214 C1154 0.930 . S
H1215 C1158 0.962 . S
H1216 C1158 0.959 . S
H1217 C1158 0.958 . S
C1218 C1219 1.560 . S
C1218 H1279 0.959 . S
C1218 H1280 0.959 . S
C1218 H1281 0.960 . S
C1219 C1218 1.560 . S
C1219 O1274 1.426 . S
C1219 H1278 0.980 . S
C1220 C1221 1.407 . S
C1220 C1225 1.418 . S
C1220 O1274 1.334 . S
C1221 C1220 1.407 . S
C1221 C1222 1.360 . S
C1221 H1282 0.929 . S
C1222 C1221 1.360 . S
C1222 C1223 1.401 . S
C1222 C1226 1.527 . S
C1223 C1222 1.401 . S
C1223 C1224 1.405 . S
C1223 C1256 1.587 . S
C1224 C1223 1.405 . S
C1224 C1225 1.332 . S
C1224 C1227 1.496 . S
C1225 C1220 1.418 . S
C1225 C1224 1.332 . S
C1225 H1283 0.929 . S
C1226 C1222 1.527 . S
C1226 H1284 0.959 . S
C1226 H1285 0.961 . S
C1226 H1286 0.961 . S
C1227 C1224 1.496 . S
C1227 H1287 0.960 . S
C1227 H1288 0.960 . S
C1227 H1289 0.961 . S
C1228 C1229 1.517 . S
C1228 H1291 0.961 . S
C1228 H1292 0.960 . S
C1228 H1293 0.959 . S
C1229 C1228 1.517 . S
C1229 O1277 1.468 . S
C1229 H1290 0.980 . S
C1230 C1231 1.349 . S
C1230 C1235 1.367 . S
C1230 O1277 1.408 . S
C1231 C1230 1.349 . S
C1231 C1232 1.407 . S
C1231 H1294 0.930 . S
C1232 C1231 1.407 . S
C1232 C1233 1.449 . S
C1232 C1236 1.535 . S
C1233 C1232 1.449 . S
C1233 C1234 1.384 . S
C1233 C1258 1.553 . S
C1234 C1233 1.384 . S
C1234 C1235 1.364 . S
C1234 C1237 1.450 . S
C1235 C1230 1.367 . S
C1235 C1234 1.364 . S
C1235 H1295 0.931 . S
C1236 C1232 1.535 . S
C1236 H1296 0.959 . S
C1236 H1297 0.961 . S
C1236 H1298 0.959 . S
C1237 C1234 1.450 . S
C1237 H1299 0.960 . S
C1237 H1300 0.960 . S
C1237 H1301 0.960 . S
C1238 C1239 1.309 . S
C1238 C1243 1.304 . S
C1238 O1276 1.435 . S
C1239 C1238 1.309 . S
C1239 C1240 1.476 . S
C1239 H1303 0.930 . S
C1240 C1239 1.476 . S
C1240 C1241 1.400 . S
C1240 C1244 1.567 . S
C1241 C1240 1.400 . S
C1241 C1242 1.373 . S
C1241 C1263 1.432 . S
C1242 C1241 1.373 . S
C1242 C1243 1.339 . S
C1242 C1245 1.530 . S
C1243 C1238 1.304 . S
C1243 C1242 1.339 . S
C1243 H1304 0.930 . S
C1244 C1240 1.567 . S
C1244 H1305 0.961 . S
C1244 H1306 0.960 . S
C1244 H1307 0.958 . S
C1245 C1242 1.530 . S
C1245 H1308 0.961 . S
C1245 H1309 0.960 . S
C1245 H1310 0.960 . S
C1246 C1247 1.530 . S
C1246 H1312 0.961 . S
C1246 H1313 0.961 . S
C1246 H1314 0.959 . S
C1247 C1246 1.530 . S
C1247 O1275 1.412 . S
C1247 H1311 0.980 . S
C1248 C1249 1.288 . S
C1248 C1253 1.377 . S
C1248 O1275 1.393 . S
C1249 C1248 1.288 . S
C1249 C1250 1.369 . S
C1249 H1315 0.932 . S
C1250 C1249 1.369 . S
C1250 C1251 1.398 . S
C1250 C1254 1.527 . S
C1251 C1250 1.398 . S
C1251 C1252 1.380 . S
C1251 C1265 1.497 . S
C1252 C1251 1.380 . S
C1252 C1253 1.383 . S
C1252 C1255 1.603 . S
C1253 C1248 1.377 . S
C1253 C1252 1.383 . S
C1253 H1316 0.929 . S
C1254 C1250 1.527 . S
C1254 H1317 0.961 . S
C1254 H1318 0.959 . S
C1254 H1319 0.959 . S
C1255 C1252 1.603 . S
C1255 H1320 0.960 . S
C1255 H1321 0.962 . S
C1255 H1322 0.961 . S
C1256 C1223 1.587 . S
C1256 C1257 1.360 . S
C1256 C1269 1.412 . S
C1257 C1256 1.360 . S
C1257 C1258 1.365 . S
C1257 H1323 0.929 . S
C1258 C1233 1.553 . S
C1258 C1257 1.365 . S
C1258 C1259 1.404 . S
C1259 C1258 1.404 . S
C1259 C1260 1.395 . S
C1259 C1270 1.451 . S
C1260 C1259 1.395 . S
C1260 C1261 1.322 . S
C1260 H1324 0.930 . S
C1261 C1260 1.322 . S
C1261 C1262 1.459 . S
C1261 H1325 0.929 . S
C1262 C1261 1.459 . S
C1262 C1263 1.445 . S
C1262 C1271 1.395 . S
C1263 C1241 1.432 . S
C1263 C1262 1.445 . S
C1263 C1264 1.370 . S
C1264 C1263 1.370 . S
C1264 C1265 1.438 . S
C1264 H1326 0.930 . S
C1265 C1251 1.497 . S
C1265 C1264 1.438 . S
C1265 C1266 1.360 . S
C1266 C1265 1.360 . S
C1266 C1267 1.401 . S
C1266 C1271 1.446 . S
C1267 C1266 1.401 . S
C1267 C1268 1.347 . S
C1267 H1327 0.929 . S
C1268 C1267 1.347 . S
C1268 C1269 1.455 . S
C1268 H1328 0.930 . S
C1269 C1256 1.412 . S
C1269 C1268 1.455 . S
C1269 C1270 1.331 . S
C1270 C1259 1.451 . S
C1270 C1269 1.331 . S
C1270 C1271 1.497 . S
C1271 C1262 1.395 . S
C1271 C1266 1.446 . S
C1271 C1270 1.497 . S
C1272 C1273 1.582 . S
C1272 H1329 0.962 . S
C1272 H1330 0.959 . S
C1272 H1331 0.958 . S
C1273 C1272 1.582 . S
C1273 O1276 1.458 . S
C1273 H1302 0.980 . S
O1274 C1219 1.426 . S
O1274 C1220 1.334 . S
O1275 C1247 1.412 . S
O1275 C1248 1.393 . S
O1276 C1238 1.435 . S
O1276 C1273 1.458 . S
O1277 C1229 1.468 . S
O1277 C1230 1.408 . S
H1278 C1219 0.980 . S
H1279 C1218 0.959 . S
H1280 C1218 0.959 . S
H1281 C1218 0.960 . S
H1282 C1221 0.929 . S
H1283 C1225 0.929 . S
H1284 C1226 0.959 . S
H1285 C1226 0.961 . S
H1286 C1226 0.961 . S
H1287 C1227 0.960 . S
H1288 C1227 0.960 . S
H1289 C1227 0.961 . S
H1290 C1229 0.980 . S
H1291 C1228 0.961 . S
H1292 C1228 0.960 . S
H1293 C1228 0.959 . S
H1294 C1231 0.930 . S
H1295 C1235 0.931 . S
H1296 C1236 0.959 . S
H1297 C1236 0.961 . S
H1298 C1236 0.959 . S
H1299 C1237 0.960 . S
H1300 C1237 0.960 . S
H1301 C1237 0.960 . S
H1302 C1273 0.980 . S
H1303 C1239 0.930 . S
H1304 C1243 0.930 . S
H1305 C1244 0.961 . S
H1306 C1244 0.960 . S
H1307 C1244 0.958 . S
H1308 C1245 0.961 . S
H1309 C1245 0.960 . S
H1310 C1245 0.960 . S
H1311 C1247 0.980 . S
H1312 C1246 0.961 . S
H1313 C1246 0.961 . S
H1314 C1246 0.959 . S
H1315 C1249 0.932 . S
H1316 C1253 0.929 . S
H1317 C1254 0.961 . S
H1318 C1254 0.959 . S
H1319 C1254 0.959 . S
H1320 C1255 0.960 . S
H1321 C1255 0.962 . S
H1322 C1255 0.961 . S
H1323 C1257 0.929 . S
H1324 C1260 0.930 . S
H1325 C1261 0.929 . S
H1326 C1264 0.930 . S
H1327 C1267 0.929 . S
H1328 C1268 0.930 . S
H1329 C1272 0.962 . S
H1330 C1272 0.959 . S
H1331 C1272 0.958 . S
C1332 C1333 1.560 . S
C1332 H1393 0.959 . S
C1332 H1394 0.959 . S
C1332 H1395 0.960 . S
C1333 C1332 1.560 . S
C1333 O1388 1.426 . S
C1333 H1392 0.980 . S
C1334 C1335 1.407 . S
C1334 C1339 1.418 . S
C1334 O1388 1.334 . S
C1335 C1334 1.407 . S
C1335 C1336 1.360 . S
C1335 H1396 0.929 . S
C1336 C1335 1.360 . S
C1336 C1337 1.401 . S
C1336 C1340 1.527 . S
C1337 C1336 1.401 . S
C1337 C1338 1.405 . S
C1337 C1370 1.587 . S
C1338 C1337 1.405 . S
C1338 C1339 1.332 . S
C1338 C1341 1.496 . S
C1339 C1334 1.418 . S
C1339 C1338 1.332 . S
C1339 H1397 0.929 . S
C1340 C1336 1.527 . S
C1340 H1398 0.959 . S
C1340 H1399 0.961 . S
C1340 H1400 0.961 . S
C1341 C1338 1.496 . S
C1341 H1401 0.960 . S
C1341 H1402 0.960 . S
C1341 H1403 0.961 . S
C1342 C1343 1.517 . S
C1342 H1405 0.961 . S
C1342 H1406 0.960 . S
C1342 H1407 0.959 . S
C1343 C1342 1.517 . S
C1343 O1391 1.468 . S
C1343 H1404 0.980 . S
C1344 C1345 1.349 . S
C1344 C1349 1.367 . S
C1344 O1391 1.408 . S
C1345 C1344 1.349 . S
C1345 C1346 1.407 . S
C1345 H1408 0.930 . S
C1346 C1345 1.407 . S
C1346 C1347 1.449 . S
C1346 C1350 1.535 . S
C1347 C1346 1.449 . S
C1347 C1348 1.384 . S
C1347 C1372 1.553 . S
C1348 C1347 1.384 . S
C1348 C1349 1.364 . S
C1348 C1351 1.450 . S
C1349 C1344 1.367 . S
C1349 C1348 1.364 . S
C1349 H1409 0.931 . S
C1350 C1346 1.535 . S
C1350 H1410 0.959 . S
C1350 H1411 0.961 . S
C1350 H1412 0.959 . S
C1351 C1348 1.450 . S
C1351 H1413 0.960 . S
C1351 H1414 0.960 . S
C1351 H1415 0.960 . S
C1352 C1353 1.309 . S
C1352 C1357 1.304 . S
C1352 O1390 1.435 . S
C1353 C1352 1.309 . S
C1353 C1354 1.476 . S
C1353 H1417 0.930 . S
C1354 C1353 1.476 . S
C1354 C1355 1.400 . S
C1354 C1358 1.567 . S
C1355 C1354 1.400 . S
C1355 C1356 1.373 . S
C1355 C1377 1.432 . S
C1356 C1355 1.373 . S
C1356 C1357 1.339 . S
C1356 C1359 1.530 . S
C1357 C1352 1.304 . S
C1357 C1356 1.339 . S
C1357 H1418 0.930 . S
C1358 C1354 1.567 . S
C1358 H1419 0.961 . S
C1358 H1420 0.960 . S
C1358 H1421 0.958 . S
C1359 C1356 1.530 . S
C1359 H1422 0.961 . S
C1359 H1423 0.960 . S
C1359 H1424 0.960 . S
C1360 C1361 1.530 . S
C1360 H1426 0.961 . S
C1360 H1427 0.961 . S
C1360 H1428 0.959 . S
C1361 C1360 1.530 . S
C1361 O1389 1.412 . S
C1361 H1425 0.980 . S
C1362 C1363 1.288 . S
C1362 C1367 1.377 . S
C1362 O1389 1.393 . S
C1363 C1362 1.288 . S
C1363 C1364 1.369 . S
C1363 H1429 0.932 . S
C1364 C1363 1.369 . S
C1364 C1365 1.398 . S
C1364 C1368 1.527 . S
C1365 C1364 1.398 . S
C1365 C1366 1.380 . S
C1365 C1379 1.497 . S
C1366 C1365 1.380 . S
C1366 C1367 1.383 . S
C1366 C1369 1.603 . S
C1367 C1362 1.377 . S
C1367 C1366 1.383 . S
C1367 H1430 0.929 . S
C1368 C1364 1.527 . S
C1368 H1431 0.961 . S
C1368 H1432 0.959 . S
C1368 H1433 0.959 . S
C1369 C1366 1.603 . S
C1369 H1434 0.960 . S
C1369 H1435 0.962 . S
C1369 H1436 0.961 . S
C1370 C1337 1.587 . S
C1370 C1371 1.360 . S
C1370 C1383 1.412 . S
C1371 C1370 1.360 . S
C1371 C1372 1.365 . S
C1371 H1437 0.929 . S
C1372 C1347 1.553 . S
C1372 C1371 1.365 . S
C1372 C1373 1.404 . S
C1373 C1372 1.404 . S
C1373 C1374 1.395 . S
C1373 C1384 1.451 . S
C1374 C1373 1.395 . S
C1374 C1375 1.322 . S
C1374 H1438 0.930 . S
C1375 C1374 1.322 . S
C1375 C1376 1.459 . S
C1375 H1439 0.929 . S
C1376 C1375 1.459 . S
C1376 C1377 1.445 . S
C1376 C1385 1.395 . S
C1377 C1355 1.432 . S
C1377 C1376 1.445 . S
C1377 C1378 1.370 . S
C1378 C1377 1.370 . S
C1378 C1379 1.438 . S
C1378 H1440 0.930 . S
C1379 C1365 1.497 . S
C1379 C1378 1.438 . S
C1379 C1380 1.360 . S
C1380 C1379 1.360 . S
C1380 C1381 1.401 . S
C1380 C1385 1.446 . S
C1381 C1380 1.401 . S
C1381 C1382 1.347 . S
C1381 H1441 0.929 . S
C1382 C1381 1.347 . S
C1382 C1383 1.455 . S
C1382 H1442 0.930 . S
C1383 C1370 1.412 . S
C1383 C1382 1.455 . S
C1383 C1384 1.331 . S
C1384 C1373 1.451 . S
C1384 C1383 1.331 . S
C1384 C1385 1.497 . S
C1385 C1376 1.395 . S
C1385 C1380 1.446 . S
C1385 C1384 1.497 . S
C1386 C1387 1.582 . S
C1386 H1443 0.962 . S
C1386 H1444 0.959 . S
C1386 H1445 0.958 . S
C1387 C1386 1.582 . S
C1387 O1390 1.458 . S
C1387 H1416 0.980 . S
O1388 C1333 1.426 . S
O1388 C1334 1.334 . S
O1389 C1361 1.412 . S
O1389 C1362 1.393 . S
O1390 C1352 1.435 . S
O1390 C1387 1.458 . S
O1391 C1343 1.468 . S
O1391 C1344 1.408 . S
H1392 C1333 0.980 . S
H1393 C1332 0.959 . S
H1394 C1332 0.959 . S
H1395 C1332 0.960 . S
H1396 C1335 0.929 . S
H1397 C1339 0.929 . S
H1398 C1340 0.959 . S
H1399 C1340 0.961 . S
H1400 C1340 0.961 . S
H1401 C1341 0.960 . S
H1402 C1341 0.960 . S
H1403 C1341 0.961 . S
H1404 C1343 0.980 . S
H1405 C1342 0.961 . S
H1406 C1342 0.960 . S
H1407 C1342 0.959 . S
H1408 C1345 0.930 . S
H1409 C1349 0.931 . S
H1410 C1350 0.959 . S
H1411 C1350 0.961 . S
H1412 C1350 0.959 . S
H1413 C1351 0.960 . S
H1414 C1351 0.960 . S
H1415 C1351 0.960 . S
H1416 C1387 0.980 . S
H1417 C1353 0.930 . S
H1418 C1357 0.930 . S
H1419 C1358 0.961 . S
H1420 C1358 0.960 . S
H1421 C1358 0.958 . S
H1422 C1359 0.961 . S
H1423 C1359 0.960 . S
H1424 C1359 0.960 . S
H1425 C1361 0.980 . S
H1426 C1360 0.961 . S
H1427 C1360 0.961 . S
H1428 C1360 0.959 . S
H1429 C1363 0.932 . S
H1430 C1367 0.929 . S
H1431 C1368 0.961 . S
H1432 C1368 0.959 . S
H1433 C1368 0.959 . S
H1434 C1369 0.960 . S
H1435 C1369 0.962 . S
H1436 C1369 0.961 . S
H1437 C1371 0.929 . S
H1438 C1374 0.930 . S
H1439 C1375 0.929 . S
H1440 C1378 0.930 . S
H1441 C1381 0.929 . S
H1442 C1382 0.930 . S
H1443 C1386 0.962 . S
H1444 C1386 0.959 . S
H1445 C1386 0.958 . S
C1446 C1447 1.560 . S
C1446 H1507 0.959 . S
C1446 H1508 0.959 . S
C1446 H1509 0.960 . S
C1447 C1446 1.560 . S
C1447 O1502 1.426 . S
C1447 H1506 0.980 . S
C1448 C1449 1.407 . S
C1448 C1453 1.418 . S
C1448 O1502 1.334 . S
C1449 C1448 1.407 . S
C1449 C1450 1.360 . S
C1449 H1510 0.929 . S
C1450 C1449 1.360 . S
C1450 C1451 1.401 . S
C1450 C1454 1.527 . S
C1451 C1450 1.401 . S
C1451 C1452 1.405 . S
C1451 C1484 1.587 . S
C1452 C1451 1.405 . S
C1452 C1453 1.332 . S
C1452 C1455 1.496 . S
C1453 C1448 1.418 . S
C1453 C1452 1.332 . S
C1453 H1511 0.929 . S
C1454 C1450 1.527 . S
C1454 H1512 0.959 . S
C1454 H1513 0.961 . S
C1454 H1514 0.961 . S
C1455 C1452 1.496 . S
C1455 H1515 0.960 . S
C1455 H1516 0.960 . S
C1455 H1517 0.961 . S
C1456 C1457 1.517 . S
C1456 H1519 0.961 . S
C1456 H1520 0.960 . S
C1456 H1521 0.959 . S
C1457 C1456 1.517 . S
C1457 O1505 1.468 . S
C1457 H1518 0.980 . S
C1458 C1459 1.349 . S
C1458 C1463 1.367 . S
C1458 O1505 1.408 . S
C1459 C1458 1.349 . S
C1459 C1460 1.407 . S
C1459 H1522 0.930 . S
C1460 C1459 1.407 . S
C1460 C1461 1.449 . S
C1460 C1464 1.535 . S
C1461 C1460 1.449 . S
C1461 C1462 1.384 . S
C1461 C1486 1.553 . S
C1462 C1461 1.384 . S
C1462 C1463 1.364 . S
C1462 C1465 1.450 . S
C1463 C1458 1.367 . S
C1463 C1462 1.364 . S
C1463 H1523 0.931 . S
C1464 C1460 1.535 . S
C1464 H1524 0.959 . S
C1464 H1525 0.961 . S
C1464 H1526 0.959 . S
C1465 C1462 1.450 . S
C1465 H1527 0.960 . S
C1465 H1528 0.960 . S
C1465 H1529 0.960 . S
C1466 C1467 1.309 . S
C1466 C1471 1.304 . S
C1466 O1504 1.435 . S
C1467 C1466 1.309 . S
C1467 C1468 1.476 . S
C1467 H1531 0.930 . S
C1468 C1467 1.476 . S
C1468 C1469 1.400 . S
C1468 C1472 1.567 . S
C1469 C1468 1.400 . S
C1469 C1470 1.373 . S
C1469 C1491 1.432 . S
C1470 C1469 1.373 . S
C1470 C1471 1.339 . S
C1470 C1473 1.530 . S
C1471 C1466 1.304 . S
C1471 C1470 1.339 . S
C1471 H1532 0.930 . S
C1472 C1468 1.567 . S
C1472 H1533 0.961 . S
C1472 H1534 0.960 . S
C1472 H1535 0.958 . S
C1473 C1470 1.530 . S
C1473 H1536 0.961 . S
C1473 H1537 0.960 . S
C1473 H1538 0.960 . S
C1474 C1475 1.530 . S
C1474 H1540 0.961 . S
C1474 H1541 0.961 . S
C1474 H1542 0.959 . S
C1475 C1474 1.530 . S
C1475 O1503 1.412 . S
C1475 H1539 0.980 . S
C1476 C1477 1.288 . S
C1476 C1481 1.377 . S
C1476 O1503 1.393 . S
C1477 C1476 1.288 . S
C1477 C1478 1.369 . S
C1477 H1543 0.932 . S
C1478 C1477 1.369 . S
C1478 C1479 1.398 . S
C1478 C1482 1.527 . S
C1479 C1478 1.398 . S
C1479 C1480 1.380 . S
C1479 C1493 1.497 . S
C1480 C1479 1.380 . S
C1480 C1481 1.383 . S
C1480 C1483 1.603 . S
C1481 C1476 1.377 . S
C1481 C1480 1.383 . S
C1481 H1544 0.929 . S
C1482 C1478 1.527 . S
C1482 H1545 0.961 . S
C1482 H1546 0.959 . S
C1482 H1547 0.959 . S
C1483 C1480 1.603 . S
C1483 H1548 0.960 . S
C1483 H1549 0.962 . S
C1483 H1550 0.961 . S
C1484 C1451 1.587 . S
C1484 C1485 1.360 . S
C1484 C1497 1.412 . S
C1485 C1484 1.360 . S
C1485 C1486 1.365 . S
C1485 H1551 0.929 . S
C1486 C1461 1.553 . S
C1486 C1485 1.365 . S
C1486 C1487 1.404 . S
C1487 C1486 1.404 . S
C1487 C1488 1.395 . S
C1487 C1498 1.451 . S
C1488 C1487 1.395 . S
C1488 C1489 1.322 . S
C1488 H1552 0.930 . S
C1489 C1488 1.322 . S
C1489 C1490 1.459 . S
C1489 H1553 0.929 . S
C1490 C1489 1.459 . S
C1490 C1491 1.445 . S
C1490 C1499 1.395 . S
C1491 C1469 1.432 . S
C1491 C1490 1.445 . S
C1491 C1492 1.370 . S
C1492 C1491 1.370 . S
C1492 C1493 1.438 . S
C1492 H1554 0.930 . S
C1493 C1479 1.497 . S
C1493 C1492 1.438 . S
C1493 C1494 1.360 . S
C1494 C1493 1.360 . S
C1494 C1495 1.401 . S
C1494 C1499 1.446 . S
C1495 C1494 1.401 . S
C1495 C1496 1.347 . S
C1495 H1555 0.929 . S
C1496 C1495 1.347 . S
C1496 C1497 1.455 . S
C1496 H1556 0.930 . S
C1497 C1484 1.412 . S
C1497 C1496 1.455 . S
C1497 C1498 1.331 . S
C1498 C1487 1.451 . S
C1498 C1497 1.331 . S
C1498 C1499 1.497 . S
C1499 C1490 1.395 . S
C1499 C1494 1.446 . S
C1499 C1498 1.497 . S
C1500 C1501 1.582 . S
C1500 H1557 0.962 . S
C1500 H1558 0.959 . S
C1500 H1559 0.958 . S
C1501 C1500 1.582 . S
C1501 O1504 1.458 . S
C1501 H1530 0.980 . S
O1502 C1447 1.426 . S
O1502 C1448 1.334 . S
O1503 C1475 1.412 . S
O1503 C1476 1.393 . S
O1504 C1466 1.435 . S
O1504 C1501 1.458 . S
O1505 C1457 1.468 . S
O1505 C1458 1.408 . S
H1506 C1447 0.980 . S
H1507 C1446 0.959 . S
H1508 C1446 0.959 . S
H1509 C1446 0.960 . S
H1510 C1449 0.929 . S
H1511 C1453 0.929 . S
H1512 C1454 0.959 . S
H1513 C1454 0.961 . S
H1514 C1454 0.961 . S
H1515 C1455 0.960 . S
H1516 C1455 0.960 . S
H1517 C1455 0.961 . S
H1518 C1457 0.980 . S
H1519 C1456 0.961 . S
H1520 C1456 0.960 . S
H1521 C1456 0.959 . S
H1522 C1459 0.930 . S
H1523 C1463 0.931 . S
H1524 C1464 0.959 . S
H1525 C1464 0.961 . S
H1526 C1464 0.959 . S
H1527 C1465 0.960 . S
H1528 C1465 0.960 . S
H1529 C1465 0.960 . S
H1530 C1501 0.980 . S
H1531 C1467 0.930 . S
H1532 C1471 0.930 . S
H1533 C1472 0.961 . S
H1534 C1472 0.960 . S
H1535 C1472 0.958 . S
H1536 C1473 0.961 . S
H1537 C1473 0.960 . S
H1538 C1473 0.960 . S
H1539 C1475 0.980 . S
H1540 C1474 0.961 . S
H1541 C1474 0.961 . S
H1542 C1474 0.959 . S
H1543 C1477 0.932 . S
H1544 C1481 0.929 . S
H1545 C1482 0.961 . S
H1546 C1482 0.959 . S
H1547 C1482 0.959 . S
H1548 C1483 0.960 . S
H1549 C1483 0.962 . S
H1550 C1483 0.961 . S
H1551 C1485 0.929 . S
H1552 C1488 0.930 . S
H1553 C1489 0.929 . S
H1554 C1492 0.930 . S
H1555 C1495 0.929 . S
H1556 C1496 0.930 . S
H1557 C1500 0.962 . S
H1558 C1500 0.959 . S
H1559 C1500 0.958 . S
C1560 C1561 1.560 . S
C1560 H1621 0.959 . S
C1560 H1622 0.959 . S
C1560 H1623 0.960 . S
C1561 C1560 1.560 . S
C1561 O1616 1.426 . S
C1561 H1620 0.980 . S
C1562 C1563 1.407 . S
C1562 C1567 1.418 . S
C1562 O1616 1.334 . S
C1563 C1562 1.407 . S
C1563 C1564 1.360 . S
C1563 H1624 0.929 . S
C1564 C1563 1.360 . S
C1564 C1565 1.401 . S
C1564 C1568 1.527 . S
C1565 C1564 1.401 . S
C1565 C1566 1.405 . S
C1565 C1598 1.587 . S
C1566 C1565 1.405 . S
C1566 C1567 1.332 . S
C1566 C1569 1.496 . S
C1567 C1562 1.418 . S
C1567 C1566 1.332 . S
C1567 H1625 0.929 . S
C1568 C1564 1.527 . S
C1568 H1626 0.959 . S
C1568 H1627 0.961 . S
C1568 H1628 0.961 . S
C1569 C1566 1.496 . S
C1569 H1629 0.960 . S
C1569 H1630 0.960 . S
C1569 H1631 0.961 . S
C1570 C1571 1.517 . S
C1570 H1633 0.961 . S
C1570 H1634 0.960 . S
C1570 H1635 0.959 . S
C1571 C1570 1.517 . S
C1571 O1619 1.468 . S
C1571 H1632 0.980 . S
C1572 C1573 1.349 . S
C1572 C1577 1.367 . S
C1572 O1619 1.408 . S
C1573 C1572 1.349 . S
C1573 C1574 1.407 . S
C1573 H1636 0.930 . S
C1574 C1573 1.407 . S
C1574 C1575 1.449 . S
C1574 C1578 1.535 . S
C1575 C1574 1.449 . S
C1575 C1576 1.384 . S
C1575 C1600 1.553 . S
C1576 C1575 1.384 . S
C1576 C1577 1.364 . S
C1576 C1579 1.450 . S
C1577 C1572 1.367 . S
C1577 C1576 1.364 . S
C1577 H1637 0.931 . S
C1578 C1574 1.535 . S
C1578 H1638 0.959 . S
C1578 H1639 0.961 . S
C1578 H1640 0.959 . S
C1579 C1576 1.450 . S
C1579 H1641 0.960 . S
C1579 H1642 0.960 . S
C1579 H1643 0.960 . S
C1580 C1581 1.309 . S
C1580 C1585 1.304 . S
C1580 O1618 1.435 . S
C1581 C1580 1.309 . S
C1581 C1582 1.476 . S
C1581 H1645 0.930 . S
C1582 C1581 1.476 . S
C1582 C1583 1.400 . S
C1582 C1586 1.567 . S
C1583 C1582 1.400 . S
C1583 C1584 1.373 . S
C1583 C1605 1.432 . S
C1584 C1583 1.373 . S
C1584 C1585 1.339 . S
C1584 C1587 1.530 . S
C1585 C1580 1.304 . S
C1585 C1584 1.339 . S
C1585 H1646 0.930 . S
C1586 C1582 1.567 . S
C1586 H1647 0.961 . S
C1586 H1648 0.960 . S
C1586 H1649 0.958 . S
C1587 C1584 1.530 . S
C1587 H1650 0.961 . S
C1587 H1651 0.960 . S
C1587 H1652 0.960 . S
C1588 C1589 1.530 . S
C1588 H1654 0.961 . S
C1588 H1655 0.961 . S
C1588 H1656 0.959 . S
C1589 C1588 1.530 . S
C1589 O1617 1.412 . S
C1589 H1653 0.980 . S
C1590 C1591 1.288 . S
C1590 C1595 1.377 . S
C1590 O1617 1.393 . S
C1591 C1590 1.288 . S
C1591 C1592 1.369 . S
C1591 H1657 0.932 . S
C1592 C1591 1.369 . S
C1592 C1593 1.398 . S
C1592 C1596 1.527 . S
C1593 C1592 1.398 . S
C1593 C1594 1.380 . S
C1593 C1607 1.497 . S
C1594 C1593 1.380 . S
C1594 C1595 1.383 . S
C1594 C1597 1.603 . S
C1595 C1590 1.377 . S
C1595 C1594 1.383 . S
C1595 H1658 0.929 . S
C1596 C1592 1.527 . S
C1596 H1659 0.961 . S
C1596 H1660 0.959 . S
C1596 H1661 0.959 . S
C1597 C1594 1.603 . S
C1597 H1662 0.960 . S
C1597 H1663 0.962 . S
C1597 H1664 0.961 . S
C1598 C1565 1.587 . S
C1598 C1599 1.360 . S
C1598 C1611 1.412 . S
C1599 C1598 1.360 . S
C1599 C1600 1.365 . S
C1599 H1665 0.929 . S
C1600 C1575 1.553 . S
C1600 C1599 1.365 . S
C1600 C1601 1.404 . S
C1601 C1600 1.404 . S
C1601 C1602 1.395 . S
C1601 C1612 1.451 . S
C1602 C1601 1.395 . S
C1602 C1603 1.322 . S
C1602 H1666 0.930 . S
C1603 C1602 1.322 . S
C1603 C1604 1.459 . S
C1603 H1667 0.929 . S
C1604 C1603 1.459 . S
C1604 C1605 1.445 . S
C1604 C1613 1.395 . S
C1605 C1583 1.432 . S
C1605 C1604 1.445 . S
C1605 C1606 1.370 . S
C1606 C1605 1.370 . S
C1606 C1607 1.438 . S
C1606 H1668 0.930 . S
C1607 C1593 1.497 . S
C1607 C1606 1.438 . S
C1607 C1608 1.360 . S
C1608 C1607 1.360 . S
C1608 C1609 1.401 . S
C1608 C1613 1.446 . S
C1609 C1608 1.401 . S
C1609 C1610 1.347 . S
C1609 H1669 0.929 . S
C1610 C1609 1.347 . S
C1610 C1611 1.455 . S
C1610 H1670 0.930 . S
C1611 C1598 1.412 . S
C1611 C1610 1.455 . S
C1611 C1612 1.331 . S
C1612 C1601 1.451 . S
C1612 C1611 1.331 . S
C1612 C1613 1.497 . S
C1613 C1604 1.395 . S
C1613 C1608 1.446 . S
C1613 C1612 1.497 . S
C1614 C1615 1.582 . S
C1614 H1671 0.962 . S
C1614 H1672 0.959 . S
C1614 H1673 0.958 . S
C1615 C1614 1.582 . S
C1615 O1618 1.458 . S
C1615 H1644 0.980 . S
O1616 C1561 1.426 . S
O1616 C1562 1.334 . S
O1617 C1589 1.412 . S
O1617 C1590 1.393 . S
O1618 C1580 1.435 . S
O1618 C1615 1.458 . S
O1619 C1571 1.468 . S
O1619 C1572 1.408 . S
H1620 C1561 0.980 . S
H1621 C1560 0.959 . S
H1622 C1560 0.959 . S
H1623 C1560 0.960 . S
H1624 C1563 0.929 . S
H1625 C1567 0.929 . S
H1626 C1568 0.959 . S
H1627 C1568 0.961 . S
H1628 C1568 0.961 . S
H1629 C1569 0.960 . S
H1630 C1569 0.960 . S
H1631 C1569 0.961 . S
H1632 C1571 0.980 . S
H1633 C1570 0.961 . S
H1634 C1570 0.960 . S
H1635 C1570 0.959 . S
H1636 C1573 0.930 . S
H1637 C1577 0.931 . S
H1638 C1578 0.959 . S
H1639 C1578 0.961 . S
H1640 C1578 0.959 . S
H1641 C1579 0.960 . S
H1642 C1579 0.960 . S
H1643 C1579 0.960 . S
H1644 C1615 0.980 . S
H1645 C1581 0.930 . S
H1646 C1585 0.930 . S
H1647 C1586 0.961 . S
H1648 C1586 0.960 . S
H1649 C1586 0.958 . S
H1650 C1587 0.961 . S
H1651 C1587 0.960 . S
H1652 C1587 0.960 . S
H1653 C1589 0.980 . S
H1654 C1588 0.961 . S
H1655 C1588 0.961 . S
H1656 C1588 0.959 . S
H1657 C1591 0.932 . S
H1658 C1595 0.929 . S
H1659 C1596 0.961 . S
H1660 C1596 0.959 . S
H1661 C1596 0.959 . S
H1662 C1597 0.960 . S
H1663 C1597 0.962 . S
H1664 C1597 0.961 . S
H1665 C1599 0.929 . S
H1666 C1602 0.930 . S
H1667 C1603 0.929 . S
H1668 C1606 0.930 . S
H1669 C1609 0.929 . S
H1670 C1610 0.930 . S
H1671 C1614 0.962 . S
H1672 C1614 0.959 . S
H1673 C1614 0.958 . S
C1674 C1675 1.560 . S
C1674 H1735 0.959 . S
C1674 H1736 0.959 . S
C1674 H1737 0.960 . S
C1675 C1674 1.560 . S
C1675 O1730 1.426 . S
C1675 H1734 0.980 . S
C1676 C1677 1.407 1_455 S
C1676 C1681 1.418 . S
C1676 O1730 1.334 . S
C1677 C1676 1.407 1_655 S
C1677 C1678 1.360 . S
C1677 H1738 0.929 . S
C1678 C1677 1.360 . S
C1678 C1679 1.382 1_655 S
C1678 C1682 1.527 . S
C1679 C1678 1.382 1_455 S
C1679 C1680 1.497 . S
C1679 C1712 1.520 1_455 S
C1680 C1679 1.497 . S
C1680 C1681 1.332 . S
C1680 C1683 1.496 . S
C1681 C1676 1.418 . S
C1681 C1680 1.332 . S
C1681 H1739 0.929 . S
C1682 C1678 1.527 . S
C1682 H1740 0.959 . S
C1682 H1741 0.961 . S
C1682 H1742 0.961 . S
C1683 C1680 1.496 . S
C1683 H1743 0.960 . S
C1683 H1744 0.960 . S
C1683 H1745 0.961 . S
C1684 C1685 1.517 . S
C1684 H1747 0.973 . S
C1684 H1748 0.960 . S
C1684 H1749 0.959 . S
C1685 C1684 1.517 . S
C1685 O1733 1.468 . S
C1685 H1746 0.980 1_655 S
C1686 C1687 1.349 . S
C1686 C1691 1.367 . S
C1686 O1733 1.408 . S
C1687 C1686 1.349 . S
C1687 C1688 1.369 1_655 S
C1687 H1750 0.930 1_655 S
C1688 C1687 1.369 1_455 S
C1688 C1689 1.415 1_455 S
C1688 C1692 1.603 . S
C1689 C1688 1.415 1_655 S
C1689 C1690 1.384 . S
C1689 C1714 1.553 . S
C1690 C1689 1.384 . S
C1690 C1691 1.364 . S
C1690 C1693 1.450 . S
C1691 C1686 1.367 . S
C1691 C1690 1.364 . S
C1691 H1751 0.931 . S
C1692 C1688 1.603 . S
C1692 H1752 0.959 . S
C1692 H1753 0.961 . S
C1692 H1754 0.959 . S
C1693 C1690 1.450 . S
C1693 H1755 0.960 . S
C1693 H1756 0.960 . S
C1693 H1757 0.960 . S
C1694 C1695 1.309 . S
C1694 C1699 1.304 . S
C1694 O1732 1.435 . S
C1695 C1694 1.309 . S
C1695 C1696 1.446 1_655 S
C1695 H1759 0.930 1_655 S
C1696 C1695 1.446 1_455 S
C1696 C1697 1.380 1_455 S
C1696 C1700 1.617 . S
C1697 C1696 1.380 1_655 S
C1697 C1698 1.373 . S
C1697 C1719 1.432 . S
C1698 C1697 1.373 . S
C1698 C1699 1.339 . S
C1698 C1701 1.530 . S
C1699 C1694 1.304 . S
C1699 C1698 1.339 . S
C1699 H1760 0.930 . S
C1700 C1696 1.617 . S
C1700 H1761 0.961 . S
C1700 H1762 0.960 . S
C1700 H1763 0.958 . S
C1701 C1698 1.530 . S
C1701 H1764 0.961 . S
C1701 H1765 0.960 . S
C1701 H1766 0.960 . S
C1702 C1703 1.516 1_455 S
C1702 H1768 0.961 . S
C1702 H1769 0.961 . S
C1702 H1770 0.959 . S
C1703 C1702 1.516 1_655 S
C1703 O1731 1.408 1_655 S
C1703 H1767 0.985 . S
C1704 C1705 1.288 . S
C1704 C1709 1.377 1_455 S
C1704 O1731 1.393 . S
C1705 C1704 1.288 . S
C1705 C1706 1.369 . S
C1705 H1771 0.932 . S
C1706 C1705 1.369 . S
C1706 C1707 1.398 1_455 S
C1706 C1710 1.527 . S
C1707 C1706 1.398 1_655 S
C1707 C1708 1.380 . S
C1707 C1721 1.497 . S
C1708 C1707 1.380 . S
C1708 C1709 1.383 . S
C1708 C1711 1.603 . S
C1709 C1704 1.377 1_655 S
C1709 C1708 1.383 . S
C1709 H1772 0.929 . S
C1710 C1706 1.527 . S
C1710 H1773 0.961 . S
C1710 H1774 0.959 . S
C1710 H1775 0.959 . S
C1711 C1708 1.603 . S
C1711 H1776 0.960 . S
C1711 H1777 0.962 . S
C1711 H1778 0.961 . S
C1712 C1679 1.520 1_655 S
C1712 C1713 1.360 . S
C1712 C1725 1.412 . S
C1713 C1712 1.360 . S
C1713 C1714 1.365 . S
C1713 H1779 0.929 . S
C1714 C1689 1.553 . S
C1714 C1713 1.365 . S
C1714 C1715 1.404 . S
C1715 C1714 1.404 . S
C1715 C1716 1.395 . S
C1715 C1726 1.451 . S
C1716 C1715 1.395 . S
C1716 C1717 1.322 . S
C1716 H1780 0.930 . S
C1717 C1716 1.322 . S
C1717 C1718 1.459 . S
C1717 H1781 0.929 . S
C1718 C1717 1.459 . S
C1718 C1719 1.445 . S
C1718 C1727 1.395 . S
C1719 C1697 1.432 . S
C1719 C1718 1.445 . S
C1719 C1720 1.370 . S
C1720 C1719 1.370 . S
C1720 C1721 1.438 . S
C1720 H1782 0.930 . S
C1721 C1707 1.497 . S
C1721 C1720 1.438 . S
C1721 C1722 1.360 . S
C1722 C1721 1.360 . S
C1722 C1723 1.401 . S
C1722 C1727 1.446 . S
C1723 C1722 1.401 . S
C1723 C1724 1.347 . S
C1723 H1783 0.929 . S
C1724 C1723 1.347 . S
C1724 C1725 1.455 . S
C1724 H1784 0.930 . S
C1725 C1712 1.412 . S
C1725 C1724 1.455 . S
C1725 C1726 1.331 . S
C1726 C1715 1.451 . S
C1726 C1725 1.331 . S
C1726 C1727 1.497 . S
C1727 C1718 1.395 . S
C1727 C1722 1.446 . S
C1727 C1726 1.497 . S
C1728 C1729 1.582 . S
C1728 H1785 0.962 . S
C1728 H1786 0.959 . S
C1728 H1787 0.958 . S
C1729 C1728 1.582 . S
C1729 O1732 1.458 . S
C1729 H1758 0.980 . S
O1730 C1675 1.426 . S
O1730 C1676 1.334 . S
O1731 C1703 1.408 1_455 S
O1731 C1704 1.393 . S
O1732 C1694 1.435 . S
O1732 C1729 1.458 . S
O1733 C1685 1.468 . S
O1733 C1686 1.408 . S
H1734 C1675 0.980 . S
H1735 C1674 0.959 . S
H1736 C1674 0.959 . S
H1737 C1674 0.960 . S
H1738 C1677 0.929 . S
H1739 C1681 0.929 . S
H1740 C1682 0.959 . S
H1741 C1682 0.961 . S
H1742 C1682 0.961 . S
H1743 C1683 0.960 . S
H1744 C1683 0.960 . S
H1745 C1683 0.961 . S
H1746 C1685 0.980 1_455 S
H1747 C1684 0.973 . S
H1748 C1684 0.960 . S
H1749 C1684 0.959 . S
H1750 C1687 0.930 1_455 S
H1751 C1691 0.931 . S
H1752 C1692 0.959 . S
H1753 C1692 0.961 . S
H1754 C1692 0.959 . S
H1755 C1693 0.960 . S
H1756 C1693 0.960 . S
H1757 C1693 0.960 . S
H1758 C1729 0.980 . S
H1759 C1695 0.930 1_455 S
H1760 C1699 0.930 . S
H1761 C1700 0.961 . S
H1762 C1700 0.960 . S
H1763 C1700 0.958 . S
H1764 C1701 0.961 . S
H1765 C1701 0.960 . S
H1766 C1701 0.960 . S
H1767 C1703 0.985 . S
H1768 C1702 0.961 . S
H1769 C1702 0.961 . S
H1770 C1702 0.959 . S
H1771 C1705 0.932 . S
H1772 C1709 0.929 . S
H1773 C1710 0.961 . S
H1774 C1710 0.959 . S
H1775 C1710 0.959 . S
H1776 C1711 0.960 . S
H1777 C1711 0.962 . S
H1778 C1711 0.961 . S
H1779 C1713 0.929 . S
H1780 C1716 0.930 . S
H1781 C1717 0.929 . S
H1782 C1720 0.930 . S
H1783 C1723 0.929 . S
H1784 C1724 0.930 . S
H1785 C1728 0.962 . S
H1786 C1728 0.959 . S
H1787 C1728 0.958 . S
C1788 C1789 1.560 . S
C1788 H1849 0.959 . S
C1788 H1850 0.959 . S
C1788 H1851 0.960 . S
C1789 C1788 1.560 . S
C1789 O1844 1.426 . S
C1789 H1848 0.980 . S
C1790 C1791 1.407 . S
C1790 C1795 1.418 . S
C1790 O1844 1.334 . S
C1791 C1790 1.407 . S
C1791 C1792 1.360 . S
C1791 H1852 0.929 . S
C1792 C1791 1.360 . S
C1792 C1793 1.401 . S
C1792 C1796 1.527 . S
C1793 C1792 1.401 . S
C1793 C1794 1.405 . S
C1793 C1826 1.587 . S
C1794 C1793 1.405 . S
C1794 C1795 1.332 . S
C1794 C1797 1.496 . S
C1795 C1790 1.418 . S
C1795 C1794 1.332 . S
C1795 H1853 0.929 . S
C1796 C1792 1.527 . S
C1796 H1854 0.959 . S
C1796 H1855 0.961 . S
C1796 H1856 0.961 . S
C1797 C1794 1.496 . S
C1797 H1857 0.960 . S
C1797 H1858 0.960 . S
C1797 H1859 0.961 . S
C1798 C1799 1.517 . S
C1798 H1861 0.961 . S
C1798 H1862 0.960 . S
C1798 H1863 0.959 . S
C1799 C1798 1.517 . S
C1799 O1847 1.468 . S
C1799 H1860 0.980 . S
C1800 C1801 1.349 . S
C1800 C1805 1.367 . S
C1800 O1847 1.408 . S
C1801 C1800 1.349 . S
C1801 C1802 1.407 . S
C1801 H1864 0.930 . S
C1802 C1801 1.407 . S
C1802 C1803 1.449 . S
C1802 C1806 1.535 . S
C1803 C1802 1.449 . S
C1803 C1804 1.384 . S
C1803 C1828 1.553 . S
C1804 C1803 1.384 . S
C1804 C1805 1.364 . S
C1804 C1807 1.450 . S
C1805 C1800 1.367 . S
C1805 C1804 1.364 . S
C1805 H1865 0.931 . S
C1806 C1802 1.535 . S
C1806 H1866 0.959 . S
C1806 H1867 0.961 . S
C1806 H1868 0.959 . S
C1807 C1804 1.450 . S
C1807 H1869 0.960 . S
C1807 H1870 0.960 . S
C1807 H1871 0.960 . S
C1808 C1809 1.309 . S
C1808 C1813 1.304 . S
C1808 O1846 1.435 . S
C1809 C1808 1.309 . S
C1809 C1810 1.476 . S
C1809 H1873 0.930 . S
C1810 C1809 1.476 . S
C1810 C1811 1.400 . S
C1810 C1814 1.567 . S
C1811 C1810 1.400 . S
C1811 C1812 1.373 . S
C1811 C1833 1.432 . S
C1812 C1811 1.373 . S
C1812 C1813 1.339 . S
C1812 C1815 1.530 . S
C1813 C1808 1.304 . S
C1813 C1812 1.339 . S
C1813 H1874 0.930 . S
C1814 C1810 1.567 . S
C1814 H1875 0.961 . S
C1814 H1876 0.960 . S
C1814 H1877 0.958 . S
C1815 C1812 1.530 . S
C1815 H1878 0.961 . S
C1815 H1879 0.960 . S
C1815 H1880 0.960 . S
C1816 C1817 1.530 . S
C1816 H1882 0.961 . S
C1816 H1883 0.961 . S
C1816 H1884 0.959 . S
C1817 C1816 1.530 . S
C1817 O1845 1.412 . S
C1817 H1881 0.980 . S
C1818 C1819 1.288 . S
C1818 C1823 1.377 . S
C1818 O1845 1.393 . S
C1819 C1818 1.288 . S
C1819 C1820 1.369 . S
C1819 H1885 0.932 . S
C1820 C1819 1.369 . S
C1820 C1821 1.398 . S
C1820 C1824 1.527 . S
C1821 C1820 1.398 . S
C1821 C1822 1.380 . S
C1821 C1835 1.497 . S
C1822 C1821 1.380 . S
C1822 C1823 1.383 . S
C1822 C1825 1.603 . S
C1823 C1818 1.377 . S
C1823 C1822 1.383 . S
C1823 H1886 0.929 . S
C1824 C1820 1.527 . S
C1824 H1887 0.961 . S
C1824 H1888 0.959 . S
C1824 H1889 0.959 . S
C1825 C1822 1.603 . S
C1825 H1890 0.960 . S
C1825 H1891 0.962 . S
C1825 H1892 0.961 . S
C1826 C1793 1.587 . S
C1826 C1827 1.360 . S
C1826 C1839 1.412 . S
C1827 C1826 1.360 . S
C1827 C1828 1.365 . S
C1827 H1893 0.929 . S
C1828 C1803 1.553 . S
C1828 C1827 1.365 . S
C1828 C1829 1.404 . S
C1829 C1828 1.404 . S
C1829 C1830 1.395 . S
C1829 C1840 1.451 . S
C1830 C1829 1.395 . S
C1830 C1831 1.322 . S
C1830 H1894 0.930 . S
C1831 C1830 1.322 . S
C1831 C1832 1.459 . S
C1831 H1895 0.929 . S
C1832 C1831 1.459 . S
C1832 C1833 1.445 . S
C1832 C1841 1.395 . S
C1833 C1811 1.432 . S
C1833 C1832 1.445 . S
C1833 C1834 1.370 . S
C1834 C1833 1.370 . S
C1834 C1835 1.438 . S
C1834 H1896 0.930 . S
C1835 C1821 1.497 . S
C1835 C1834 1.438 . S
C1835 C1836 1.360 . S
C1836 C1835 1.360 . S
C1836 C1837 1.401 . S
C1836 C1841 1.446 . S
C1837 C1836 1.401 . S
C1837 C1838 1.347 . S
C1837 H1897 0.929 . S
C1838 C1837 1.347 . S
C1838 C1839 1.455 . S
C1838 H1898 0.930 . S
C1839 C1826 1.412 . S
C1839 C1838 1.455 . S
C1839 C1840 1.331 . S
C1840 C1829 1.451 . S
C1840 C1839 1.331 . S
C1840 C1841 1.497 . S
C1841 C1832 1.395 . S
C1841 C1836 1.446 . S
C1841 C1840 1.497 . S
C1842 C1843 1.582 . S
C1842 H1899 0.962 . S
C1842 H1900 0.959 . S
C1842 H1901 0.958 . S
C1843 C1842 1.582 . S
C1843 O1846 1.458 . S
C1843 H1872 0.980 . S
O1844 C1789 1.426 . S
O1844 C1790 1.334 . S
O1845 C1817 1.412 . S
O1845 C1818 1.393 . S
O1846 C1808 1.435 . S
O1846 C1843 1.458 . S
O1847 C1799 1.468 . S
O1847 C1800 1.408 . S
H1848 C1789 0.980 . S
H1849 C1788 0.959 . S
H1850 C1788 0.959 . S
H1851 C1788 0.960 . S
H1852 C1791 0.929 . S
H1853 C1795 0.929 . S
H1854 C1796 0.959 . S
H1855 C1796 0.961 . S
H1856 C1796 0.961 . S
H1857 C1797 0.960 . S
H1858 C1797 0.960 . S
H1859 C1797 0.961 . S
H1860 C1799 0.980 . S
H1861 C1798 0.961 . S
H1862 C1798 0.960 . S
H1863 C1798 0.959 . S
H1864 C1801 0.930 . S
H1865 C1805 0.931 . S
H1866 C1806 0.959 . S
H1867 C1806 0.961 . S
H1868 C1806 0.959 . S
H1869 C1807 0.960 . S
H1870 C1807 0.960 . S
H1871 C1807 0.960 . S
H1872 C1843 0.980 . S
H1873 C1809 0.930 . S
H1874 C1813 0.930 . S
H1875 C1814 0.961 . S
H1876 C1814 0.960 . S
H1877 C1814 0.958 . S
H1878 C1815 0.961 . S
H1879 C1815 0.960 . S
H1880 C1815 0.960 . S
H1881 C1817 0.980 . S
H1882 C1816 0.961 . S
H1883 C1816 0.961 . S
H1884 C1816 0.959 . S
H1885 C1819 0.932 . S
H1886 C1823 0.929 . S
H1887 C1824 0.961 . S
H1888 C1824 0.959 . S
H1889 C1824 0.959 . S
H1890 C1825 0.960 . S
H1891 C1825 0.962 . S
H1892 C1825 0.961 . S
H1893 C1827 0.929 . S
H1894 C1830 0.930 . S
H1895 C1831 0.929 . S
H1896 C1834 0.930 . S
H1897 C1837 0.929 . S
H1898 C1838 0.930 . S
H1899 C1842 0.962 . S
H1900 C1842 0.959 . S
H1901 C1842 0.958 . S
C1902 C1903 1.560 . S
C1902 H1963 0.959 . S
C1902 H1964 0.959 . S
C1902 H1965 0.960 . S
C1903 C1902 1.560 . S
C1903 O1958 1.426 . S
C1903 H1962 0.980 . S
C1904 C1905 1.407 1_565 S
C1904 C1909 1.418 . S
C1904 O1958 1.334 . S
C1905 C1904 1.407 1_545 S
C1905 C1906 1.360 . S
C1905 H1966 0.929 . S
C1906 C1905 1.360 . S
C1906 C1907 1.401 1_545 S
C1906 C1910 1.527 . S
C1907 C1906 1.401 1_565 S
C1907 C1908 1.405 . S
C1907 C1940 1.587 1_565 S
C1908 C1907 1.405 . S
C1908 C1909 1.332 . S
C1908 C1911 1.496 . S
C1909 C1904 1.418 . S
C1909 C1908 1.332 . S
C1909 H1967 0.929 . S
C1910 C1906 1.527 . S
C1910 H1968 0.959 . S
C1910 H1969 0.961 . S
C1910 H1970 0.961 . S
C1911 C1908 1.496 . S
C1911 H1971 0.960 . S
C1911 H1972 0.960 . S
C1911 H1973 0.961 . S
C1912 C1913 1.517 . S
C1912 H1975 0.910 1_545 S
C1912 H1976 0.960 . S
C1912 H1977 0.959 . S
C1913 C1912 1.517 . S
C1913 O1961 1.468 . S
C1913 H1974 0.980 1_545 S
C1914 C1915 1.401 . S
C1914 C1919 1.367 . S
C1914 O1961 1.408 . S
C1915 C1914 1.401 . S
C1915 C1916 1.436 1_545 S
C1915 H1978 0.851 1_545 S
C1916 C1915 1.436 1_565 S
C1916 C1917 1.449 1_565 S
C1916 C1920 1.535 . S
C1917 C1916 1.449 1_545 S
C1917 C1918 1.384 . S
C1917 C1942 1.553 . S
C1918 C1917 1.384 . S
C1918 C1919 1.364 . S
C1918 C1921 1.450 . S
C1919 C1914 1.367 . S
C1919 C1918 1.364 . S
C1919 H1979 0.931 . S
C1920 C1916 1.535 . S
C1920 H1980 0.959 . S
C1920 H1981 0.961 . S
C1920 H1982 0.959 . S
C1921 C1918 1.450 . S
C1921 H1983 0.960 . S
C1921 H1984 0.960 . S
C1921 H1985 0.960 . S
C1922 C1923 1.309 . S
C1922 C1927 1.304 . S
C1922 O1960 1.435 . S
C1923 C1922 1.309 . S
C1923 C1924 1.487 1_545 S
C1923 H1987 0.930 1_545 S
C1924 C1923 1.487 1_565 S
C1924 C1925 1.363 1_565 S
C1924 C1928 1.593 . S
C1925 C1924 1.363 1_545 S
C1925 C1926 1.373 . S
C1925 C1947 1.432 . S
C1926 C1925 1.373 . S
C1926 C1927 1.339 . S
C1926 C1929 1.530 . S
C1927 C1922 1.304 . S
C1927 C1926 1.339 . S
C1927 H1988 0.930 . S
C1928 C1924 1.593 . S
C1928 H1989 0.961 . S
C1928 H1990 0.960 . S
C1928 H1991 0.958 . S
C1929 C1926 1.530 . S
C1929 H1992 0.961 . S
C1929 H1993 0.960 . S
C1929 H1994 0.960 . S
C1930 C1931 1.519 1_565 S
C1930 H1996 0.961 . S
C1930 H1997 0.961 . S
C1930 H1998 0.959 . S
C1931 C1930 1.519 1_545 S
C1931 O1959 1.318 1_545 S
C1931 H1995 1.033 . S
C1932 C1933 1.288 . S
C1932 C1937 1.377 1_565 S
C1932 O1959 1.393 . S
C1933 C1932 1.288 . S
C1933 C1934 1.369 . S
C1933 H1999 0.932 . S
C1934 C1933 1.369 . S
C1934 C1935 1.398 1_565 S
C1934 C1938 1.527 . S
C1935 C1934 1.398 1_545 S
C1935 C1936 1.380 . S
C1935 C1949 1.497 . S
C1936 C1935 1.380 . S
C1936 C1937 1.383 . S
C1936 C1939 1.603 . S
C1937 C1932 1.377 1_545 S
C1937 C1936 1.383 . S
C1937 H2000 0.929 . S
C1938 C1934 1.527 . S
C1938 H2001 0.961 . S
C1938 H2002 0.959 . S
C1938 H2003 0.959 . S
C1939 C1936 1.603 . S
C1939 H2004 0.960 . S
C1939 H2005 0.962 . S
C1939 H2006 0.961 . S
C1940 C1907 1.587 1_545 S
C1940 C1941 1.360 . S
C1940 C1953 1.412 . S
C1941 C1940 1.360 . S
C1941 C1942 1.365 . S
C1941 H2007 0.929 . S
C1942 C1917 1.553 . S
C1942 C1941 1.365 . S
C1942 C1943 1.404 . S
C1943 C1942 1.404 . S
C1943 C1944 1.395 . S
C1943 C1954 1.451 . S
C1944 C1943 1.395 . S
C1944 C1945 1.322 . S
C1944 H2008 0.930 . S
C1945 C1944 1.322 . S
C1945 C1946 1.459 . S
C1945 H2009 0.929 . S
C1946 C1945 1.459 . S
C1946 C1947 1.445 . S
C1946 C1955 1.395 . S
C1947 C1925 1.432 . S
C1947 C1946 1.445 . S
C1947 C1948 1.370 . S
C1948 C1947 1.370 . S
C1948 C1949 1.438 . S
C1948 H2010 0.930 . S
C1949 C1935 1.497 . S
C1949 C1948 1.438 . S
C1949 C1950 1.360 . S
C1950 C1949 1.360 . S
C1950 C1951 1.401 . S
C1950 C1955 1.446 . S
C1951 C1950 1.401 . S
C1951 C1952 1.347 . S
C1951 H2011 0.929 . S
C1952 C1951 1.347 . S
C1952 C1953 1.455 . S
C1952 H2012 0.930 . S
C1953 C1940 1.412 . S
C1953 C1952 1.455 . S
C1953 C1954 1.331 . S
C1954 C1943 1.451 . S
C1954 C1953 1.331 . S
C1954 C1955 1.497 . S
C1955 C1946 1.395 . S
C1955 C1950 1.446 . S
C1955 C1954 1.497 . S
C1956 C1957 1.582 . S
C1956 H2013 0.962 . S
C1956 H2014 0.959 . S
C1956 H2015 0.958 . S
C1957 C1956 1.582 . S
C1957 O1960 1.458 . S
C1957 H1986 0.980 . S
O1958 C1903 1.426 . S
O1958 C1904 1.334 . S
O1959 C1931 1.318 1_565 S
O1959 C1932 1.393 . S
O1960 C1922 1.435 . S
O1960 C1957 1.458 . S
O1961 C1913 1.468 . S
O1961 C1914 1.408 . S
H1962 C1903 0.980 . S
H1963 C1902 0.959 . S
H1964 C1902 0.959 . S
H1965 C1902 0.960 . S
H1966 C1905 0.929 . S
H1967 C1909 0.929 . S
H1968 C1910 0.959 . S
H1969 C1910 0.961 . S
H1970 C1910 0.961 . S
H1971 C1911 0.960 . S
H1972 C1911 0.960 . S
H1973 C1911 0.961 . S
H1974 C1913 0.980 1_565 S
H1975 C1912 0.910 1_565 S
H1976 C1912 0.960 . S
H1977 C1912 0.959 . S
H1978 C1915 0.851 1_565 S
H1979 C1919 0.931 . S
H1980 C1920 0.959 . S
H1981 C1920 0.961 . S
H1982 C1920 0.959 . S
H1983 C1921 0.960 . S
H1984 C1921 0.960 . S
H1985 C1921 0.960 . S
H1986 C1957 0.980 . S
H1987 C1923 0.930 1_565 S
H1988 C1927 0.930 . S
H1989 C1928 0.961 . S
H1990 C1928 0.960 . S
H1991 C1928 0.958 . S
H1992 C1929 0.961 . S
H1993 C1929 0.960 . S
H1994 C1929 0.960 . S
H1995 C1931 1.033 . S
H1996 C1930 0.961 . S
H1997 C1930 0.961 . S
H1998 C1930 0.959 . S
H1999 C1933 0.932 . S
H2000 C1937 0.929 . S
H2001 C1938 0.961 . S
H2002 C1938 0.959 . S
H2003 C1938 0.959 . S
H2004 C1939 0.960 . S
H2005 C1939 0.962 . S
H2006 C1939 0.961 . S
H2007 C1941 0.929 . S
H2008 C1944 0.930 . S
H2009 C1945 0.929 . S
H2010 C1948 0.930 . S
H2011 C1951 0.929 . S
H2012 C1952 0.930 . S
H2013 C1956 0.962 . S
H2014 C1956 0.959 . S
H2015 C1956 0.958 . S
C2016 C2017 1.560 . S
C2016 H2077 0.959 . S
C2016 H2078 0.959 . S
C2016 H2079 0.960 . S
C2017 C2016 1.560 . S
C2017 O2072 1.426 . S
C2017 H2076 0.980 1_565 S
C2018 C2019 1.407 1_565 S
C2018 C2023 1.418 . S
C2018 O2072 1.334 . S
C2019 C2018 1.407 1_545 S
C2019 C2020 1.360 . S
C2019 H2080 0.929 . S
C2020 C2019 1.360 . S
C2020 C2021 1.401 . S
C2020 C2024 1.527 . S
C2021 C2020 1.401 . S
C2021 C2022 1.405 1_545 S
C2021 C2054 1.587 . S
C2022 C2021 1.405 1_565 S
C2022 C2023 1.332 . S
C2022 C2025 1.496 . S
C2023 C2018 1.418 . S
C2023 C2022 1.332 . S
C2023 H2081 0.929 . S
C2024 C2020 1.527 . S
C2024 H2082 0.959 . S
C2024 H2083 0.961 . S
C2024 H2084 0.961 . S
C2025 C2022 1.496 . S
C2025 H2085 0.960 . S
C2025 H2086 0.960 . S
C2025 H2087 0.961 . S
C2026 C2027 1.517 . S
C2026 H2089 0.961 . S
C2026 H2090 0.960 . S
C2026 H2091 0.959 . S
C2027 C2026 1.517 . S
C2027 O2075 1.468 . S
C2027 H2088 0.980 . S
C2028 C2029 1.349 . S
C2028 C2033 1.367 . S
C2028 O2075 1.408 . S
C2029 C2028 1.349 . S
C2029 C2030 1.407 . S
C2029 H2092 0.917 1_545 S
C2030 C2029 1.407 . S
C2030 C2031 1.449 . S
C2030 C2034 1.535 1_545 S
C2031 C2030 1.449 . S
C2031 C2032 1.384 . S
C2031 C2056 1.553 . S
C2032 C2031 1.384 . S
C2032 C2033 1.364 . S
C2032 C2035 1.450 . S
C2033 C2028 1.367 . S
C2033 C2032 1.364 . S
C2033 H2093 0.931 . S
C2034 C2030 1.535 1_565 S
C2034 H2094 0.959 . S
C2034 H2095 0.961 . S
C2034 H2096 0.959 . S
C2035 C2032 1.450 . S
C2035 H2097 0.960 . S
C2035 H2098 0.960 . S
C2035 H2099 0.960 . S
C2036 C2037 1.309 1_545 S
C2036 C2041 1.304 . S
C2036 O2074 1.435 . S
C2037 C2036 1.309 1_565 S
C2037 C2038 1.476 . S
C2037 H2101 0.930 . S
C2038 C2037 1.476 . S
C2038 C2039 1.400 1_565 S
C2038 C2042 1.567 . S
C2039 C2038 1.400 1_545 S
C2039 C2040 1.373 . S
C2039 C2061 1.432 . S
C2040 C2039 1.373 . S
C2040 C2041 1.339 . S
C2040 C2043 1.530 . S
C2041 C2036 1.304 . S
C2041 C2040 1.339 . S
C2041 H2102 0.930 . S
C2042 C2038 1.567 . S
C2042 H2103 0.961 . S
C2042 H2104 0.960 . S
C2042 H2105 0.958 . S
C2043 C2040 1.530 . S
C2043 H2106 0.961 . S
C2043 H2107 0.960 . S
C2043 H2108 0.960 . S
C2044 C2045 1.530 . S
C2044 H2110 0.961 . S
C2044 H2111 0.961 . S
C2044 H2112 0.959 . S
C2045 C2044 1.530 . S
C2045 O2073 1.412 . S
C2045 H2109 0.977 . S
C2046 C2047 1.288 . S
C2046 C2051 1.377 1_565 S
C2046 O2073 1.393 . S
C2047 C2046 1.288 . S
C2047 C2048 1.369 . S
C2047 H2113 0.932 . S
C2048 C2047 1.369 . S
C2048 C2049 1.398 . S
C2048 C2052 1.527 . S
C2049 C2048 1.398 . S
C2049 C2050 1.380 1_565 S
C2049 C2063 1.497 1_565 S
C2050 C2049 1.380 1_545 S
C2050 C2051 1.383 . S
C2050 C2053 1.603 . S
C2051 C2046 1.377 1_545 S
C2051 C2050 1.383 . S
C2051 H2114 0.929 . S
C2052 C2048 1.527 . S
C2052 H2115 0.961 . S
C2052 H2116 0.959 . S
C2052 H2117 0.959 . S
C2053 C2050 1.603 . S
C2053 H2118 0.960 . S
C2053 H2119 0.962 . S
C2053 H2120 0.961 . S
C2054 C2021 1.587 . S
C2054 C2055 1.360 . S
C2054 C2067 1.412 . S
C2055 C2054 1.360 . S
C2055 C2056 1.365 . S
C2055 H2121 0.929 . S
C2056 C2031 1.553 . S
C2056 C2055 1.365 . S
C2056 C2057 1.404 . S
C2057 C2056 1.404 . S
C2057 C2058 1.395 . S
C2057 C2068 1.451 . S
C2058 C2057 1.395 . S
C2058 C2059 1.322 . S
C2058 H2122 0.930 . S
C2059 C2058 1.322 . S
C2059 C2060 1.459 . S
C2059 H2123 0.929 . S
C2060 C2059 1.459 . S
C2060 C2061 1.445 . S
C2060 C2069 1.395 . S
C2061 C2039 1.432 . S
C2061 C2060 1.445 . S
C2061 C2062 1.370 . S
C2062 C2061 1.370 . S
C2062 C2063 1.438 . S
C2062 H2124 0.930 . S
C2063 C2049 1.497 1_545 S
C2063 C2062 1.438 . S
C2063 C2064 1.360 . S
C2064 C2063 1.360 . S
C2064 C2065 1.401 . S
C2064 C2069 1.446 . S
C2065 C2064 1.401 . S
C2065 C2066 1.347 . S
C2065 H2125 0.980 . S
C2066 C2065 1.347 . S
C2066 C2067 1.455 . S
C2066 H2126 0.930 . S
C2067 C2054 1.412 . S
C2067 C2066 1.455 . S
C2067 C2068 1.331 . S
C2068 C2057 1.451 . S
C2068 C2067 1.331 . S
C2068 C2069 1.497 . S
C2069 C2060 1.395 . S
C2069 C2064 1.446 . S
C2069 C2068 1.497 . S
C2070 C2071 1.598 . S
C2070 H2127 0.962 . S
C2070 H2128 0.959 . S
C2070 H2129 0.958 . S
C2071 C2070 1.598 . S
C2071 O2074 1.465 . S
C2071 H2100 0.980 1_545 S
O2072 C2017 1.426 . S
O2072 C2018 1.334 . S
O2073 C2045 1.412 . S
O2073 C2046 1.393 . S
O2074 C2036 1.435 . S
O2074 C2071 1.465 . S
O2075 C2027 1.468 . S
O2075 C2028 1.408 . S
H2076 C2017 0.980 1_545 S
H2077 C2016 0.959 . S
H2078 C2016 0.959 . S
H2079 C2016 0.960 . S
H2080 C2019 0.929 . S
H2081 C2023 0.929 . S
H2082 C2024 0.959 . S
H2083 C2024 0.961 . S
H2084 C2024 0.961 . S
H2085 C2025 0.960 . S
H2086 C2025 0.960 . S
H2087 C2025 0.961 . S
H2088 C2027 0.980 . S
H2089 C2026 0.961 . S
H2090 C2026 0.960 . S
H2091 C2026 0.959 . S
H2092 C2029 0.917 1_565 S
H2093 C2033 0.931 . S
H2094 C2034 0.959 . S
H2095 C2034 0.961 . S
H2096 C2034 0.959 . S
H2097 C2035 0.960 . S
H2098 C2035 0.960 . S
H2099 C2035 0.960 . S
H2100 C2071 0.980 1_565 S
H2101 C2037 0.930 . S
H2102 C2041 0.930 . S
H2103 C2042 0.961 . S
H2104 C2042 0.960 . S
H2105 C2042 0.958 . S
H2106 C2043 0.961 . S
H2107 C2043 0.960 . S
H2108 C2043 0.960 . S
H2109 C2045 0.977 . S
H2110 C2044 0.961 . S
H2111 C2044 0.961 . S
H2112 C2044 0.959 . S
H2113 C2047 0.932 . S
H2114 C2051 0.929 . S
H2115 C2052 0.961 . S
H2116 C2052 0.959 . S
H2117 C2052 0.959 . S
H2118 C2053 0.960 . S
H2119 C2053 0.962 . S
H2120 C2053 0.961 . S
H2121 C2055 0.929 . S
H2122 C2058 0.930 . S
H2123 C2059 0.929 . S
H2124 C2062 0.930 . S
H2125 C2065 0.980 . S
H2126 C2066 0.930 . S
H2127 C2070 0.962 . S
H2128 C2070 0.959 . S
H2129 C2070 0.958 . S
C2130 C2131 1.560 . S
C2130 H2191 0.959 . S
C2130 H2192 0.959 . S
C2130 H2193 0.960 . S
C2131 C2130 1.560 . S
C2131 O2186 1.426 . S
C2131 H2190 0.980 1_455 S
C2132 C2133 1.407 1_455 S
C2132 C2137 1.418 . S
C2132 O2186 1.334 . S
C2133 C2132 1.407 1_655 S
C2133 C2134 1.360 . S
C2133 H2194 0.929 . S
C2134 C2133 1.360 . S
C2134 C2135 1.401 . S
C2134 C2138 1.527 . S
C2135 C2134 1.401 . S
C2135 C2136 1.405 1_655 S
C2135 C2168 1.587 . S
C2136 C2135 1.405 1_455 S
C2136 C2137 1.332 . S
C2136 C2139 1.496 . S
C2137 C2132 1.418 . S
C2137 C2136 1.332 . S
C2137 H2195 0.929 . S
C2138 C2134 1.527 . S
C2138 H2196 0.959 . S
C2138 H2197 0.961 . S
C2138 H2198 0.961 . S
C2139 C2136 1.496 . S
C2139 H2199 0.960 . S
C2139 H2200 0.960 . S
C2139 H2201 0.961 . S
C2140 C2141 1.517 . S
C2140 H2203 0.961 . S
C2140 H2204 0.960 . S
C2140 H2205 0.959 . S
C2141 C2140 1.517 . S
C2141 O2189 1.468 . S
C2141 H2202 0.980 . S
C2142 C2143 1.349 . S
C2142 C2147 1.367 . S
C2142 O2189 1.408 . S
C2143 C2142 1.349 . S
C2143 C2144 1.407 . S
C2143 H2206 0.958 . S
C2144 C2143 1.407 . S
C2144 C2145 1.449 . S
C2144 C2148 1.535 1_655 S
C2145 C2144 1.449 . S
C2145 C2146 1.384 . S
C2145 C2170 1.553 . S
C2146 C2145 1.384 . S
C2146 C2147 1.364 . S
C2146 C2149 1.450 . S
C2147 C2142 1.367 . S
C2147 C2146 1.364 . S
C2147 H2207 0.931 . S
C2148 C2144 1.535 1_455 S
C2148 H2208 0.959 . S
C2148 H2209 0.961 . S
C2148 H2210 0.959 . S
C2149 C2146 1.450 . S
C2149 H2211 0.960 . S
C2149 H2212 0.960 . S
C2149 H2213 0.960 . S
C2150 C2151 1.309 1_655 S
C2150 C2155 1.304 . S
C2150 O2188 1.435 . S
C2151 C2150 1.309 1_455 S
C2151 C2152 1.476 . S
C2151 H2215 0.930 . S
C2152 C2151 1.476 . S
C2152 C2153 1.400 1_455 S
C2152 C2156 1.567 . S
C2153 C2152 1.400 1_655 S
C2153 C2154 1.373 . S
C2153 C2175 1.432 . S
C2154 C2153 1.373 . S
C2154 C2155 1.339 . S
C2154 C2157 1.530 . S
C2155 C2150 1.304 . S
C2155 C2154 1.339 . S
C2155 H2216 0.930 . S
C2156 C2152 1.567 . S
C2156 H2217 0.961 . S
C2156 H2218 0.960 . S
C2156 H2219 0.958 . S
C2157 C2154 1.530 . S
C2157 H2220 0.961 . S
C2157 H2221 0.960 . S
C2157 H2222 0.960 . S
C2158 C2159 1.530 . S
C2158 H2224 0.961 . S
C2158 H2225 0.961 . S
C2158 H2226 0.959 . S
C2159 C2158 1.530 . S
C2159 O2187 1.412 . S
C2159 H2223 1.026 . S
C2160 C2161 1.288 . S
C2160 C2165 1.377 1_455 S
C2160 O2187 1.393 . S
C2161 C2160 1.288 . S
C2161 C2162 1.369 . S
C2161 H2227 0.932 . S
C2162 C2161 1.369 . S
C2162 C2163 1.398 . S
C2162 C2166 1.527 . S
C2163 C2162 1.398 . S
C2163 C2164 1.380 1_455 S
C2163 C2177 1.497 1_455 S
C2164 C2163 1.380 1_655 S
C2164 C2165 1.383 . S
C2164 C2167 1.603 . S
C2165 C2160 1.377 1_655 S
C2165 C2164 1.383 . S
C2165 H2228 0.929 . S
C2166 C2162 1.527 . S
C2166 H2229 0.961 . S
C2166 H2230 0.959 . S
C2166 H2231 0.959 . S
C2167 C2164 1.603 . S
C2167 H2232 0.960 . S
C2167 H2233 0.962 . S
C2167 H2234 0.961 . S
C2168 C2135 1.587 . S
C2168 C2169 1.360 . S
C2168 C2181 1.412 . S
C2169 C2168 1.360 . S
C2169 C2170 1.365 . S
C2169 H2235 0.929 . S
C2170 C2145 1.553 . S
C2170 C2169 1.365 . S
C2170 C2171 1.404 . S
C2171 C2170 1.404 . S
C2171 C2172 1.395 . S
C2171 C2182 1.451 . S
C2172 C2171 1.395 . S
C2172 C2173 1.322 . S
C2172 H2236 0.930 . S
C2173 C2172 1.322 . S
C2173 C2174 1.459 . S
C2173 H2237 0.929 . S
C2174 C2173 1.459 . S
C2174 C2175 1.445 . S
C2174 C2183 1.395 . S
C2175 C2153 1.432 . S
C2175 C2174 1.445 . S
C2175 C2176 1.370 . S
C2176 C2175 1.370 . S
C2176 C2177 1.438 . S
C2176 H2238 0.930 . S
C2177 C2163 1.497 1_655 S
C2177 C2176 1.438 . S
C2177 C2178 1.360 . S
C2178 C2177 1.360 . S
C2178 C2179 1.401 . S
C2178 C2183 1.446 . S
C2179 C2178 1.401 . S
C2179 C2180 1.347 . S
C2179 H2239 0.916 . S
C2180 C2179 1.347 . S
C2180 C2181 1.455 . S
C2180 H2240 0.930 . S
C2181 C2168 1.412 . S
C2181 C2180 1.455 . S
C2181 C2182 1.331 . S
C2182 C2171 1.451 . S
C2182 C2181 1.331 . S
C2182 C2183 1.497 . S
C2183 C2174 1.395 . S
C2183 C2178 1.446 . S
C2183 C2182 1.497 . S
C2184 C2185 1.581 1_655 S
C2184 H2241 0.996 . S
C2184 H2242 0.959 . S
C2184 H2243 0.958 . S
C2185 C2184 1.581 1_455 S
C2185 O2188 1.444 1_455 S
C2185 H2214 0.986 . S
O2186 C2131 1.426 . S
O2186 C2132 1.334 . S
O2187 C2159 1.412 . S
O2187 C2160 1.393 . S
O2188 C2150 1.435 . S
O2188 C2185 1.444 1_655 S
O2189 C2141 1.468 . S
O2189 C2142 1.408 . S
H2190 C2131 0.980 1_655 S
H2191 C2130 0.959 . S
H2192 C2130 0.959 . S
H2193 C2130 0.960 . S
H2194 C2133 0.929 . S
H2195 C2137 0.929 . S
H2196 C2138 0.959 . S
H2197 C2138 0.961 . S
H2198 C2138 0.961 . S
H2199 C2139 0.960 . S
H2200 C2139 0.960 . S
H2201 C2139 0.961 . S
H2202 C2141 0.980 . S
H2203 C2140 0.961 . S
H2204 C2140 0.960 . S
H2205 C2140 0.959 . S
H2206 C2143 0.958 . S
H2207 C2147 0.931 . S
H2208 C2148 0.959 . S
H2209 C2148 0.961 . S
H2210 C2148 0.959 . S
H2211 C2149 0.960 . S
H2212 C2149 0.960 . S
H2213 C2149 0.960 . S
H2214 C2185 0.986 . S
H2215 C2151 0.930 . S
H2216 C2155 0.930 . S
H2217 C2156 0.961 . S
H2218 C2156 0.960 . S
H2219 C2156 0.958 . S
H2220 C2157 0.961 . S
H2221 C2157 0.960 . S
H2222 C2157 0.960 . S
H2223 C2159 1.026 . S
H2224 C2158 0.961 . S
H2225 C2158 0.961 . S
H2226 C2158 0.959 . S
H2227 C2161 0.932 . S
H2228 C2165 0.929 . S
H2229 C2166 0.961 . S
H2230 C2166 0.959 . S
H2231 C2166 0.959 . S
H2232 C2167 0.960 . S
H2233 C2167 0.962 . S
H2234 C2167 0.961 . S
H2235 C2169 0.929 . S
H2236 C2172 0.930 . S
H2237 C2173 0.929 . S
H2238 C2176 0.930 . S
H2239 C2179 0.916 . S
H2240 C2180 0.930 . S
H2241 C2184 0.996 . S
H2242 C2184 0.959 . S
H2243 C2184 0.958 . S
C2244 C2245 1.560 . S
C2244 H2305 0.959 . S
C2244 H2306 0.959 . S
C2244 H2307 0.960 . S
C2245 C2244 1.560 . S
C2245 O2300 1.426 . S
C2245 H2304 0.980 . S
C2246 C2247 1.407 . S
C2246 C2251 1.418 . S
C2246 O2300 1.334 . S
C2247 C2246 1.407 . S
C2247 C2248 1.360 . S
C2247 H2308 0.929 . S
C2248 C2247 1.360 . S
C2248 C2249 1.401 . S
C2248 C2252 1.527 . S
C2249 C2248 1.401 . S
C2249 C2250 1.405 . S
C2249 C2282 1.587 . S
C2250 C2249 1.405 . S
C2250 C2251 1.332 . S
C2250 C2253 1.496 . S
C2251 C2246 1.418 . S
C2251 C2250 1.332 . S
C2251 H2309 0.929 . S
C2252 C2248 1.527 . S
C2252 H2310 0.959 . S
C2252 H2311 0.961 . S
C2252 H2312 0.961 . S
C2253 C2250 1.496 . S
C2253 H2313 0.960 . S
C2253 H2314 0.960 . S
C2253 H2315 0.961 . S
C2254 C2255 1.517 . S
C2254 H2317 0.961 . S
C2254 H2318 0.960 . S
C2254 H2319 0.959 . S
C2255 C2254 1.517 . S
C2255 O2303 1.468 . S
C2255 H2316 0.980 . S
C2256 C2257 1.349 . S
C2256 C2261 1.367 . S
C2256 O2303 1.408 . S
C2257 C2256 1.349 . S
C2257 C2258 1.407 . S
C2257 H2320 0.930 . S
C2258 C2257 1.407 . S
C2258 C2259 1.449 . S
C2258 C2262 1.535 . S
C2259 C2258 1.449 . S
C2259 C2260 1.384 . S
C2259 C2284 1.553 . S
C2260 C2259 1.384 . S
C2260 C2261 1.364 . S
C2260 C2263 1.450 . S
C2261 C2256 1.367 . S
C2261 C2260 1.364 . S
C2261 H2321 0.931 . S
C2262 C2258 1.535 . S
C2262 H2322 0.959 . S
C2262 H2323 0.961 . S
C2262 H2324 0.959 . S
C2263 C2260 1.450 . S
C2263 H2325 0.960 . S
C2263 H2326 0.960 . S
C2263 H2327 0.960 . S
C2264 C2265 1.309 . S
C2264 C2269 1.304 . S
C2264 O2302 1.435 . S
C2265 C2264 1.309 . S
C2265 C2266 1.476 . S
C2265 H2329 0.930 . S
C2266 C2265 1.476 . S
C2266 C2267 1.400 . S
C2266 C2270 1.567 . S
C2267 C2266 1.400 . S
C2267 C2268 1.373 . S
C2267 C2289 1.432 . S
C2268 C2267 1.373 . S
C2268 C2269 1.339 . S
C2268 C2271 1.530 . S
C2269 C2264 1.304 . S
C2269 C2268 1.339 . S
C2269 H2330 0.930 . S
C2270 C2266 1.567 . S
C2270 H2331 0.961 . S
C2270 H2332 0.960 . S
C2270 H2333 0.958 . S
C2271 C2268 1.530 . S
C2271 H2334 0.961 . S
C2271 H2335 0.960 . S
C2271 H2336 0.960 . S
C2272 C2273 1.530 . S
C2272 H2338 0.961 . S
C2272 H2339 0.961 . S
C2272 H2340 0.959 . S
C2273 C2272 1.530 . S
C2273 O2301 1.412 . S
C2273 H2337 0.980 . S
C2274 C2275 1.288 . S
C2274 C2279 1.377 . S
C2274 O2301 1.393 . S
C2275 C2274 1.288 . S
C2275 C2276 1.369 . S
C2275 H2341 0.932 . S
C2276 C2275 1.369 . S
C2276 C2277 1.398 . S
C2276 C2280 1.527 . S
C2277 C2276 1.398 . S
C2277 C2278 1.380 . S
C2277 C2291 1.497 . S
C2278 C2277 1.380 . S
C2278 C2279 1.383 . S
C2278 C2281 1.603 . S
C2279 C2274 1.377 . S
C2279 C2278 1.383 . S
C2279 H2342 0.929 . S
C2280 C2276 1.527 . S
C2280 H2343 0.961 . S
C2280 H2344 0.959 . S
C2280 H2345 0.959 . S
C2281 C2278 1.603 . S
C2281 H2346 0.960 . S
C2281 H2347 0.962 . S
C2281 H2348 0.961 . S
C2282 C2249 1.587 . S
C2282 C2283 1.360 . S
C2282 C2295 1.412 . S
C2283 C2282 1.360 . S
C2283 C2284 1.365 . S
C2283 H2349 0.929 . S
C2284 C2259 1.553 . S
C2284 C2283 1.365 . S
C2284 C2285 1.404 . S
C2285 C2284 1.404 . S
C2285 C2286 1.395 . S
C2285 C2296 1.451 . S
C2286 C2285 1.395 . S
C2286 C2287 1.322 . S
C2286 H2350 0.930 . S
C2287 C2286 1.322 . S
C2287 C2288 1.459 . S
C2287 H2351 0.929 . S
C2288 C2287 1.459 . S
C2288 C2289 1.445 . S
C2288 C2297 1.395 . S
C2289 C2267 1.432 . S
C2289 C2288 1.445 . S
C2289 C2290 1.370 . S
C2290 C2289 1.370 . S
C2290 C2291 1.438 . S
C2290 H2352 0.930 . S
C2291 C2277 1.497 . S
C2291 C2290 1.438 . S
C2291 C2292 1.360 . S
C2292 C2291 1.360 . S
C2292 C2293 1.401 . S
C2292 C2297 1.446 . S
C2293 C2292 1.401 . S
C2293 C2294 1.347 . S
C2293 H2353 0.929 . S
C2294 C2293 1.347 . S
C2294 C2295 1.455 . S
C2294 H2354 0.930 . S
C2295 C2282 1.412 . S
C2295 C2294 1.455 . S
C2295 C2296 1.331 . S
C2296 C2285 1.451 . S
C2296 C2295 1.331 . S
C2296 C2297 1.497 . S
C2297 C2288 1.395 . S
C2297 C2292 1.446 . S
C2297 C2296 1.497 . S
C2298 C2299 1.582 . S
C2298 H2355 0.962 . S
C2298 H2356 0.959 . S
C2298 H2357 0.958 . S
C2299 C2298 1.582 . S
C2299 O2302 1.458 . S
C2299 H2328 0.980 . S
O2300 C2245 1.426 . S
O2300 C2246 1.334 . S
O2301 C2273 1.412 . S
O2301 C2274 1.393 . S
O2302 C2264 1.435 . S
O2302 C2299 1.458 . S
O2303 C2255 1.468 . S
O2303 C2256 1.408 . S
H2304 C2245 0.980 . S
H2305 C2244 0.959 . S
H2306 C2244 0.959 . S
H2307 C2244 0.960 . S
H2308 C2247 0.929 . S
H2309 C2251 0.929 . S
H2310 C2252 0.959 . S
H2311 C2252 0.961 . S
H2312 C2252 0.961 . S
H2313 C2253 0.960 . S
H2314 C2253 0.960 . S
H2315 C2253 0.961 . S
H2316 C2255 0.980 . S
H2317 C2254 0.961 . S
H2318 C2254 0.960 . S
H2319 C2254 0.959 . S
H2320 C2257 0.930 . S
H2321 C2261 0.931 . S
H2322 C2262 0.959 . S
H2323 C2262 0.961 . S
H2324 C2262 0.959 . S
H2325 C2263 0.960 . S
H2326 C2263 0.960 . S
H2327 C2263 0.960 . S
H2328 C2299 0.980 . S
H2329 C2265 0.930 . S
H2330 C2269 0.930 . S
H2331 C2270 0.961 . S
H2332 C2270 0.960 . S
H2333 C2270 0.958 . S
H2334 C2271 0.961 . S
H2335 C2271 0.960 . S
H2336 C2271 0.960 . S
H2337 C2273 0.980 . S
H2338 C2272 0.961 . S
H2339 C2272 0.961 . S
H2340 C2272 0.959 . S
H2341 C2275 0.932 . S
H2342 C2279 0.929 . S
H2343 C2280 0.961 . S
H2344 C2280 0.959 . S
H2345 C2280 0.959 . S
H2346 C2281 0.960 . S
H2347 C2281 0.962 . S
H2348 C2281 0.961 . S
H2349 C2283 0.929 . S
H2350 C2286 0.930 . S
H2351 C2287 0.929 . S
H2352 C2290 0.930 . S
H2353 C2293 0.929 . S
H2354 C2294 0.930 . S
H2355 C2298 0.962 . S
H2356 C2298 0.959 . S
H2357 C2298 0.958 . S
C2358 C2359 1.560 . S
C2358 H2419 0.959 . S
C2358 H2420 0.959 . S
C2358 H2421 0.960 . S
C2359 C2358 1.560 . S
C2359 O2414 1.426 . S
C2359 H2418 0.980 . S
C2360 C2361 1.407 . S
C2360 C2365 1.418 . S
C2360 O2414 1.334 . S
C2361 C2360 1.407 . S
C2361 C2362 1.360 . S
C2361 H2422 0.929 . S
C2362 C2361 1.360 . S
C2362 C2363 1.401 . S
C2362 C2366 1.527 . S
C2363 C2362 1.401 . S
C2363 C2364 1.405 . S
C2363 C2396 1.587 . S
C2364 C2363 1.405 . S
C2364 C2365 1.332 . S
C2364 C2367 1.496 . S
C2365 C2360 1.418 . S
C2365 C2364 1.332 . S
C2365 H2423 0.929 . S
C2366 C2362 1.527 . S
C2366 H2424 0.959 . S
C2366 H2425 0.961 . S
C2366 H2426 0.961 . S
C2367 C2364 1.496 . S
C2367 H2427 0.960 . S
C2367 H2428 0.960 . S
C2367 H2429 0.961 . S
C2368 C2369 1.517 . S
C2368 H2431 0.961 . S
C2368 H2432 0.960 . S
C2368 H2433 0.959 . S
C2369 C2368 1.517 . S
C2369 O2417 1.468 . S
C2369 H2430 0.980 . S
C2370 C2371 1.349 . S
C2370 C2375 1.367 . S
C2370 O2417 1.408 . S
C2371 C2370 1.349 . S
C2371 C2372 1.407 . S
C2371 H2434 0.930 . S
C2372 C2371 1.407 . S
C2372 C2373 1.449 . S
C2372 C2376 1.535 . S
C2373 C2372 1.449 . S
C2373 C2374 1.384 . S
C2373 C2398 1.553 . S
C2374 C2373 1.384 . S
C2374 C2375 1.364 . S
C2374 C2377 1.450 . S
C2375 C2370 1.367 . S
C2375 C2374 1.364 . S
C2375 H2435 0.931 . S
C2376 C2372 1.535 . S
C2376 H2436 0.959 . S
C2376 H2437 0.961 . S
C2376 H2438 0.959 . S
C2377 C2374 1.450 . S
C2377 H2439 0.960 . S
C2377 H2440 0.960 . S
C2377 H2441 0.960 . S
C2378 C2379 1.309 . S
C2378 C2383 1.304 . S
C2378 O2416 1.435 . S
C2379 C2378 1.309 . S
C2379 C2380 1.476 . S
C2379 H2443 0.930 . S
C2380 C2379 1.476 . S
C2380 C2381 1.400 . S
C2380 C2384 1.567 . S
C2381 C2380 1.400 . S
C2381 C2382 1.373 . S
C2381 C2403 1.432 . S
C2382 C2381 1.373 . S
C2382 C2383 1.339 . S
C2382 C2385 1.530 . S
C2383 C2378 1.304 . S
C2383 C2382 1.339 . S
C2383 H2444 0.930 . S
C2384 C2380 1.567 . S
C2384 H2445 0.961 . S
C2384 H2446 0.960 . S
C2384 H2447 0.958 . S
C2385 C2382 1.530 . S
C2385 H2448 0.961 . S
C2385 H2449 0.960 . S
C2385 H2450 0.960 . S
C2386 C2387 1.530 . S
C2386 H2452 0.961 . S
C2386 H2453 0.961 . S
C2386 H2454 0.959 . S
C2387 C2386 1.530 . S
C2387 O2415 1.412 . S
C2387 H2451 0.980 . S
C2388 C2389 1.288 . S
C2388 C2393 1.377 . S
C2388 O2415 1.393 . S
C2389 C2388 1.288 . S
C2389 C2390 1.369 . S
C2389 H2455 0.932 . S
C2390 C2389 1.369 . S
C2390 C2391 1.398 . S
C2390 C2394 1.527 . S
C2391 C2390 1.398 . S
C2391 C2392 1.380 . S
C2391 C2405 1.497 . S
C2392 C2391 1.380 . S
C2392 C2393 1.383 . S
C2392 C2395 1.603 . S
C2393 C2388 1.377 . S
C2393 C2392 1.383 . S
C2393 H2456 0.929 . S
C2394 C2390 1.527 . S
C2394 H2457 0.961 . S
C2394 H2458 0.959 . S
C2394 H2459 0.959 . S
C2395 C2392 1.603 . S
C2395 H2460 0.960 . S
C2395 H2461 0.962 . S
C2395 H2462 0.961 . S
C2396 C2363 1.587 . S
C2396 C2397 1.360 . S
C2396 C2409 1.412 . S
C2397 C2396 1.360 . S
C2397 C2398 1.365 . S
C2397 H2463 0.929 . S
C2398 C2373 1.553 . S
C2398 C2397 1.365 . S
C2398 C2399 1.404 . S
C2399 C2398 1.404 . S
C2399 C2400 1.395 . S
C2399 C2410 1.451 . S
C2400 C2399 1.395 . S
C2400 C2401 1.322 . S
C2400 H2464 0.930 . S
C2401 C2400 1.322 . S
C2401 C2402 1.459 . S
C2401 H2465 0.929 . S
C2402 C2401 1.459 . S
C2402 C2403 1.445 . S
C2402 C2411 1.395 . S
C2403 C2381 1.432 . S
C2403 C2402 1.445 . S
C2403 C2404 1.370 . S
C2404 C2403 1.370 . S
C2404 C2405 1.438 . S
C2404 H2466 0.930 . S
C2405 C2391 1.497 . S
C2405 C2404 1.438 . S
C2405 C2406 1.360 . S
C2406 C2405 1.360 . S
C2406 C2407 1.401 . S
C2406 C2411 1.446 . S
C2407 C2406 1.401 . S
C2407 C2408 1.347 . S
C2407 H2467 0.929 . S
C2408 C2407 1.347 . S
C2408 C2409 1.455 . S
C2408 H2468 0.930 . S
C2409 C2396 1.412 . S
C2409 C2408 1.455 . S
C2409 C2410 1.331 . S
C2410 C2399 1.451 . S
C2410 C2409 1.331 . S
C2410 C2411 1.497 . S
C2411 C2402 1.395 . S
C2411 C2406 1.446 . S
C2411 C2410 1.497 . S
C2412 C2413 1.582 . S
C2412 H2469 0.962 . S
C2412 H2470 0.959 . S
C2412 H2471 0.958 . S
C2413 C2412 1.582 . S
C2413 O2416 1.458 . S
C2413 H2442 0.980 . S
O2414 C2359 1.426 . S
O2414 C2360 1.334 . S
O2415 C2387 1.412 . S
O2415 C2388 1.393 . S
O2416 C2378 1.435 . S
O2416 C2413 1.458 . S
O2417 C2369 1.468 . S
O2417 C2370 1.408 . S
H2418 C2359 0.980 . S
H2419 C2358 0.959 . S
H2420 C2358 0.959 . S
H2421 C2358 0.960 . S
H2422 C2361 0.929 . S
H2423 C2365 0.929 . S
H2424 C2366 0.959 . S
H2425 C2366 0.961 . S
H2426 C2366 0.961 . S
H2427 C2367 0.960 . S
H2428 C2367 0.960 . S
H2429 C2367 0.961 . S
H2430 C2369 0.980 . S
H2431 C2368 0.961 . S
H2432 C2368 0.960 . S
H2433 C2368 0.959 . S
H2434 C2371 0.930 . S
H2435 C2375 0.931 . S
H2436 C2376 0.959 . S
H2437 C2376 0.961 . S
H2438 C2376 0.959 . S
H2439 C2377 0.960 . S
H2440 C2377 0.960 . S
H2441 C2377 0.960 . S
H2442 C2413 0.980 . S
H2443 C2379 0.930 . S
H2444 C2383 0.930 . S
H2445 C2384 0.961 . S
H2446 C2384 0.960 . S
H2447 C2384 0.958 . S
H2448 C2385 0.961 . S
H2449 C2385 0.960 . S
H2450 C2385 0.960 . S
H2451 C2387 0.980 . S
H2452 C2386 0.961 . S
H2453 C2386 0.961 . S
H2454 C2386 0.959 . S
H2455 C2389 0.932 . S
H2456 C2393 0.929 . S
H2457 C2394 0.961 . S
H2458 C2394 0.959 . S
H2459 C2394 0.959 . S
H2460 C2395 0.960 . S
H2461 C2395 0.962 . S
H2462 C2395 0.961 . S
H2463 C2397 0.929 . S
H2464 C2400 0.930 . S
H2465 C2401 0.929 . S
H2466 C2404 0.930 . S
H2467 C2407 0.929 . S
H2468 C2408 0.930 . S
H2469 C2412 0.962 . S
H2470 C2412 0.959 . S
H2471 C2412 0.958 . S
C2472 C2473 1.560 . S
C2472 H2533 0.959 . S
C2472 H2534 0.959 . S
C2472 H2535 0.960 . S
C2473 C2472 1.560 . S
C2473 O2528 1.426 . S
C2473 H2532 0.980 . S
C2474 C2475 1.407 . S
C2474 C2479 1.418 . S
C2474 O2528 1.334 . S
C2475 C2474 1.407 . S
C2475 C2476 1.360 . S
C2475 H2536 0.929 . S
C2476 C2475 1.360 . S
C2476 C2477 1.401 . S
C2476 C2480 1.527 . S
C2477 C2476 1.401 . S
C2477 C2478 1.405 . S
C2477 C2510 1.587 . S
C2478 C2477 1.405 . S
C2478 C2479 1.332 . S
C2478 C2481 1.496 . S
C2479 C2474 1.418 . S
C2479 C2478 1.332 . S
C2479 H2537 0.929 . S
C2480 C2476 1.527 . S
C2480 H2538 0.959 . S
C2480 H2539 0.961 . S
C2480 H2540 0.961 . S
C2481 C2478 1.496 . S
C2481 H2541 0.960 . S
C2481 H2542 0.960 . S
C2481 H2543 0.961 . S
C2482 C2483 1.517 . S
C2482 H2545 0.961 . S
C2482 H2546 0.960 . S
C2482 H2547 0.959 . S
C2483 C2482 1.517 . S
C2483 O2531 1.468 . S
C2483 H2544 0.980 . S
C2484 C2485 1.349 . S
C2484 C2489 1.367 . S
C2484 O2531 1.408 . S
C2485 C2484 1.349 . S
C2485 C2486 1.407 . S
C2485 H2548 0.930 . S
C2486 C2485 1.407 . S
C2486 C2487 1.449 . S
C2486 C2490 1.535 . S
C2487 C2486 1.449 . S
C2487 C2488 1.384 . S
C2487 C2512 1.553 . S
C2488 C2487 1.384 . S
C2488 C2489 1.364 . S
C2488 C2491 1.450 . S
C2489 C2484 1.367 . S
C2489 C2488 1.364 . S
C2489 H2549 0.931 . S
C2490 C2486 1.535 . S
C2490 H2550 0.959 . S
C2490 H2551 0.961 . S
C2490 H2552 0.959 . S
C2491 C2488 1.450 . S
C2491 H2553 0.960 . S
C2491 H2554 0.960 . S
C2491 H2555 0.960 . S
C2492 C2493 1.309 . S
C2492 C2497 1.304 . S
C2492 O2530 1.435 . S
C2493 C2492 1.309 . S
C2493 C2494 1.476 . S
C2493 H2557 0.930 . S
C2494 C2493 1.476 . S
C2494 C2495 1.400 . S
C2494 C2498 1.567 . S
C2495 C2494 1.400 . S
C2495 C2496 1.373 . S
C2495 C2517 1.432 . S
C2496 C2495 1.373 . S
C2496 C2497 1.339 . S
C2496 C2499 1.530 . S
C2497 C2492 1.304 . S
C2497 C2496 1.339 . S
C2497 H2558 0.930 . S
C2498 C2494 1.567 . S
C2498 H2559 0.961 . S
C2498 H2560 0.960 . S
C2498 H2561 0.958 . S
C2499 C2496 1.530 . S
C2499 H2562 0.961 . S
C2499 H2563 0.960 . S
C2499 H2564 0.960 . S
C2500 C2501 1.530 . S
C2500 H2566 0.961 . S
C2500 H2567 0.961 . S
C2500 H2568 0.959 . S
C2501 C2500 1.530 . S
C2501 O2529 1.412 . S
C2501 H2565 0.980 . S
C2502 C2503 1.288 . S
C2502 C2507 1.377 . S
C2502 O2529 1.393 . S
C2503 C2502 1.288 . S
C2503 C2504 1.369 . S
C2503 H2569 0.932 . S
C2504 C2503 1.369 . S
C2504 C2505 1.398 . S
C2504 C2508 1.527 . S
C2505 C2504 1.398 . S
C2505 C2506 1.380 . S
C2505 C2519 1.497 . S
C2506 C2505 1.380 . S
C2506 C2507 1.383 . S
C2506 C2509 1.603 . S
C2507 C2502 1.377 . S
C2507 C2506 1.383 . S
C2507 H2570 0.929 . S
C2508 C2504 1.527 . S
C2508 H2571 0.961 . S
C2508 H2572 0.959 . S
C2508 H2573 0.959 . S
C2509 C2506 1.603 . S
C2509 H2574 0.960 . S
C2509 H2575 0.962 . S
C2509 H2576 0.961 . S
C2510 C2477 1.587 . S
C2510 C2511 1.360 . S
C2510 C2523 1.412 . S
C2511 C2510 1.360 . S
C2511 C2512 1.365 . S
C2511 H2577 0.929 . S
C2512 C2487 1.553 . S
C2512 C2511 1.365 . S
C2512 C2513 1.404 . S
C2513 C2512 1.404 . S
C2513 C2514 1.395 . S
C2513 C2524 1.451 . S
C2514 C2513 1.395 . S
C2514 C2515 1.322 . S
C2514 H2578 0.930 . S
C2515 C2514 1.322 . S
C2515 C2516 1.459 . S
C2515 H2579 0.929 . S
C2516 C2515 1.459 . S
C2516 C2517 1.445 . S
C2516 C2525 1.395 . S
C2517 C2495 1.432 . S
C2517 C2516 1.445 . S
C2517 C2518 1.370 . S
C2518 C2517 1.370 . S
C2518 C2519 1.438 . S
C2518 H2580 0.930 . S
C2519 C2505 1.497 . S
C2519 C2518 1.438 . S
C2519 C2520 1.360 . S
C2520 C2519 1.360 . S
C2520 C2521 1.401 . S
C2520 C2525 1.446 . S
C2521 C2520 1.401 . S
C2521 C2522 1.347 . S
C2521 H2581 0.929 . S
C2522 C2521 1.347 . S
C2522 C2523 1.455 . S
C2522 H2582 0.930 . S
C2523 C2510 1.412 . S
C2523 C2522 1.455 . S
C2523 C2524 1.331 . S
C2524 C2513 1.451 . S
C2524 C2523 1.331 . S
C2524 C2525 1.497 . S
C2525 C2516 1.395 . S
C2525 C2520 1.446 . S
C2525 C2524 1.497 . S
C2526 C2527 1.582 . S
C2526 H2583 0.962 . S
C2526 H2584 0.959 . S
C2526 H2585 0.958 . S
C2527 C2526 1.582 . S
C2527 O2530 1.458 . S
C2527 H2556 0.980 . S
O2528 C2473 1.426 . S
O2528 C2474 1.334 . S
O2529 C2501 1.412 . S
O2529 C2502 1.393 . S
O2530 C2492 1.435 . S
O2530 C2527 1.458 . S
O2531 C2483 1.468 . S
O2531 C2484 1.408 . S
H2532 C2473 0.980 . S
H2533 C2472 0.959 . S
H2534 C2472 0.959 . S
H2535 C2472 0.960 . S
H2536 C2475 0.929 . S
H2537 C2479 0.929 . S
H2538 C2480 0.959 . S
H2539 C2480 0.961 . S
H2540 C2480 0.961 . S
H2541 C2481 0.960 . S
H2542 C2481 0.960 . S
H2543 C2481 0.961 . S
H2544 C2483 0.980 . S
H2545 C2482 0.961 . S
H2546 C2482 0.960 . S
H2547 C2482 0.959 . S
H2548 C2485 0.930 . S
H2549 C2489 0.931 . S
H2550 C2490 0.959 . S
H2551 C2490 0.961 . S
H2552 C2490 0.959 . S
H2553 C2491 0.960 . S
H2554 C2491 0.960 . S
H2555 C2491 0.960 . S
H2556 C2527 0.980 . S
H2557 C2493 0.930 . S
H2558 C2497 0.930 . S
H2559 C2498 0.961 . S
H2560 C2498 0.960 . S
H2561 C2498 0.958 . S
H2562 C2499 0.961 . S
H2563 C2499 0.960 . S
H2564 C2499 0.960 . S
H2565 C2501 0.980 . S
H2566 C2500 0.961 . S
H2567 C2500 0.961 . S
H2568 C2500 0.959 . S
H2569 C2503 0.932 . S
H2570 C2507 0.929 . S
H2571 C2508 0.961 . S
H2572 C2508 0.959 . S
H2573 C2508 0.959 . S
H2574 C2509 0.960 . S
H2575 C2509 0.962 . S
H2576 C2509 0.961 . S
H2577 C2511 0.929 . S
H2578 C2514 0.930 . S
H2579 C2515 0.929 . S
H2580 C2518 0.930 . S
H2581 C2521 0.929 . S
H2582 C2522 0.930 . S
H2583 C2526 0.962 . S
H2584 C2526 0.959 . S
H2585 C2526 0.958 . S
C2586 C2587 1.560 . S
C2586 H2647 0.959 . S
C2586 H2648 0.959 . S
C2586 H2649 0.960 . S
C2587 C2586 1.560 . S
C2587 O2642 1.426 . S
C2587 H2646 0.980 . S
C2588 C2589 1.407 . S
C2588 C2593 1.418 . S
C2588 O2642 1.334 . S
C2589 C2588 1.407 . S
C2589 C2590 1.360 . S
C2589 H2650 0.929 . S
C2590 C2589 1.360 . S
C2590 C2591 1.401 . S
C2590 C2594 1.527 . S
C2591 C2590 1.401 . S
C2591 C2592 1.405 . S
C2591 C2624 1.587 . S
C2592 C2591 1.405 . S
C2592 C2593 1.332 . S
C2592 C2595 1.496 . S
C2593 C2588 1.418 . S
C2593 C2592 1.332 . S
C2593 H2651 0.929 . S
C2594 C2590 1.527 . S
C2594 H2652 0.959 . S
C2594 H2653 0.961 . S
C2594 H2654 0.961 . S
C2595 C2592 1.496 . S
C2595 H2655 0.960 . S
C2595 H2656 0.960 . S
C2595 H2657 0.961 . S
C2596 C2597 1.517 . S
C2596 H2659 0.961 . S
C2596 H2660 0.960 . S
C2596 H2661 0.959 . S
C2597 C2596 1.517 . S
C2597 O2645 1.468 . S
C2597 H2658 0.980 . S
C2598 C2599 1.349 . S
C2598 C2603 1.367 . S
C2598 O2645 1.408 . S
C2599 C2598 1.349 . S
C2599 C2600 1.407 . S
C2599 H2662 0.930 . S
C2600 C2599 1.407 . S
C2600 C2601 1.449 . S
C2600 C2604 1.535 . S
C2601 C2600 1.449 . S
C2601 C2602 1.384 . S
C2601 C2626 1.553 . S
C2602 C2601 1.384 . S
C2602 C2603 1.364 . S
C2602 C2605 1.450 . S
C2603 C2598 1.367 . S
C2603 C2602 1.364 . S
C2603 H2663 0.931 . S
C2604 C2600 1.535 . S
C2604 H2664 0.959 . S
C2604 H2665 0.961 . S
C2604 H2666 0.959 . S
C2605 C2602 1.450 . S
C2605 H2667 0.960 . S
C2605 H2668 0.960 . S
C2605 H2669 0.960 . S
C2606 C2607 1.309 . S
C2606 C2611 1.304 . S
C2606 O2644 1.435 . S
C2607 C2606 1.309 . S
C2607 C2608 1.476 . S
C2607 H2671 0.930 . S
C2608 C2607 1.476 . S
C2608 C2609 1.400 . S
C2608 C2612 1.567 . S
C2609 C2608 1.400 . S
C2609 C2610 1.373 . S
C2609 C2631 1.432 . S
C2610 C2609 1.373 . S
C2610 C2611 1.339 . S
C2610 C2613 1.530 . S
C2611 C2606 1.304 . S
C2611 C2610 1.339 . S
C2611 H2672 0.930 . S
C2612 C2608 1.567 . S
C2612 H2673 0.961 . S
C2612 H2674 0.960 . S
C2612 H2675 0.958 . S
C2613 C2610 1.530 . S
C2613 H2676 0.961 . S
C2613 H2677 0.960 . S
C2613 H2678 0.960 . S
C2614 C2615 1.530 . S
C2614 H2680 0.961 . S
C2614 H2681 0.961 . S
C2614 H2682 0.959 . S
C2615 C2614 1.530 . S
C2615 O2643 1.412 . S
C2615 H2679 0.980 . S
C2616 C2617 1.288 . S
C2616 C2621 1.377 . S
C2616 O2643 1.393 . S
C2617 C2616 1.288 . S
C2617 C2618 1.369 . S
C2617 H2683 0.932 . S
C2618 C2617 1.369 . S
C2618 C2619 1.398 . S
C2618 C2622 1.527 . S
C2619 C2618 1.398 . S
C2619 C2620 1.380 . S
C2619 C2633 1.497 . S
C2620 C2619 1.380 . S
C2620 C2621 1.383 . S
C2620 C2623 1.603 . S
C2621 C2616 1.377 . S
C2621 C2620 1.383 . S
C2621 H2684 0.929 . S
C2622 C2618 1.527 . S
C2622 H2685 0.961 . S
C2622 H2686 0.959 . S
C2622 H2687 0.959 . S
C2623 C2620 1.603 . S
C2623 H2688 0.960 . S
C2623 H2689 0.962 . S
C2623 H2690 0.961 . S
C2624 C2591 1.587 . S
C2624 C2625 1.360 . S
C2624 C2637 1.412 . S
C2625 C2624 1.360 . S
C2625 C2626 1.365 . S
C2625 H2691 0.929 . S
C2626 C2601 1.553 . S
C2626 C2625 1.365 . S
C2626 C2627 1.404 . S
C2627 C2626 1.404 . S
C2627 C2628 1.395 . S
C2627 C2638 1.451 . S
C2628 C2627 1.395 . S
C2628 C2629 1.322 . S
C2628 H2692 0.930 . S
C2629 C2628 1.322 . S
C2629 C2630 1.459 . S
C2629 H2693 0.929 . S
C2630 C2629 1.459 . S
C2630 C2631 1.445 . S
C2630 C2639 1.395 . S
C2631 C2609 1.432 . S
C2631 C2630 1.445 . S
C2631 C2632 1.370 . S
C2632 C2631 1.370 . S
C2632 C2633 1.438 . S
C2632 H2694 0.930 . S
C2633 C2619 1.497 . S
C2633 C2632 1.438 . S
C2633 C2634 1.360 . S
C2634 C2633 1.360 . S
C2634 C2635 1.401 . S
C2634 C2639 1.446 . S
C2635 C2634 1.401 . S
C2635 C2636 1.347 . S
C2635 H2695 0.929 . S
C2636 C2635 1.347 . S
C2636 C2637 1.455 . S
C2636 H2696 0.930 . S
C2637 C2624 1.412 . S
C2637 C2636 1.455 . S
C2637 C2638 1.331 . S
C2638 C2627 1.451 . S
C2638 C2637 1.331 . S
C2638 C2639 1.497 . S
C2639 C2630 1.395 . S
C2639 C2634 1.446 . S
C2639 C2638 1.497 . S
C2640 C2641 1.582 . S
C2640 H2697 0.962 . S
C2640 H2698 0.959 . S
C2640 H2699 0.958 . S
C2641 C2640 1.582 . S
C2641 O2644 1.458 . S
C2641 H2670 0.980 . S
O2642 C2587 1.426 . S
O2642 C2588 1.334 . S
O2643 C2615 1.412 . S
O2643 C2616 1.393 . S
O2644 C2606 1.435 . S
O2644 C2641 1.458 . S
O2645 C2597 1.468 . S
O2645 C2598 1.408 . S
H2646 C2587 0.980 . S
H2647 C2586 0.959 . S
H2648 C2586 0.959 . S
H2649 C2586 0.960 . S
H2650 C2589 0.929 . S
H2651 C2593 0.929 . S
H2652 C2594 0.959 . S
H2653 C2594 0.961 . S
H2654 C2594 0.961 . S
H2655 C2595 0.960 . S
H2656 C2595 0.960 . S
H2657 C2595 0.961 . S
H2658 C2597 0.980 . S
H2659 C2596 0.961 . S
H2660 C2596 0.960 . S
H2661 C2596 0.959 . S
H2662 C2599 0.930 . S
H2663 C2603 0.931 . S
H2664 C2604 0.959 . S
H2665 C2604 0.961 . S
H2666 C2604 0.959 . S
H2667 C2605 0.960 . S
H2668 C2605 0.960 . S
H2669 C2605 0.960 . S
H2670 C2641 0.980 . S
H2671 C2607 0.930 . S
H2672 C2611 0.930 . S
H2673 C2612 0.961 . S
H2674 C2612 0.960 . S
H2675 C2612 0.958 . S
H2676 C2613 0.961 . S
H2677 C2613 0.960 . S
H2678 C2613 0.960 . S
H2679 C2615 0.980 . S
H2680 C2614 0.961 . S
H2681 C2614 0.961 . S
H2682 C2614 0.959 . S
H2683 C2617 0.932 . S
H2684 C2621 0.929 . S
H2685 C2622 0.961 . S
H2686 C2622 0.959 . S
H2687 C2622 0.959 . S
H2688 C2623 0.960 . S
H2689 C2623 0.962 . S
H2690 C2623 0.961 . S
H2691 C2625 0.929 . S
H2692 C2628 0.930 . S
H2693 C2629 0.929 . S
H2694 C2632 0.930 . S
H2695 C2635 0.929 . S
H2696 C2636 0.930 . S
H2697 C2640 0.962 . S
H2698 C2640 0.959 . S
H2699 C2640 0.958 . S
H2700 C2718 0.993 . S
H2701 C2720 0.952 1_455 S
H2702 C2722 0.950 . S
H2703 C2723 0.950 . S
H2704 C2725 0.950 . S
H2705 C2728 0.950 . S
H2706 C2729 0.950 . S
H2707 C2731 0.950 . S
H2708 C2732 0.950 . S
H2709 C2733 0.951 . S
H2710 C2735 0.951 . S
H2711 C2737 0.950 1_455 S
H2712 C2738 0.933 1_455 S
H2713 C2740 0.950 . S
H2714 C2743 0.950 . S
H2715 C2744 0.950 . S
H2716 C2746 0.950 . S
H2717 C2747 0.950 . S
C2718 H2700 0.993 . S
C2718 C2719 1.350 1_455 S
C2718 C2720 1.366 1_455 S
C2719 C2718 1.350 1_655 S
C2719 C2723 1.385 . S
C2720 H2701 0.952 1_655 S
C2720 C2718 1.366 1_655 S
C2720 C2721 1.363 . S
C2721 C2720 1.363 . S
C2721 C2722 1.414 . S
C2721 C2724 1.499 . S
C2722 H2702 0.950 . S
C2722 C2721 1.414 . S
C2722 C2723 1.374 . S
C2723 H2703 0.950 . S
C2723 C2719 1.385 . S
C2723 C2722 1.374 . S
C2724 C2721 1.499 . S
C2724 C2725 1.373 1_655 S
C2724 C2726 1.389 . S
C2725 H2704 0.950 . S
C2725 C2724 1.373 1_455 S
C2725 C2741 1.377 . S
C2726 C2724 1.389 . S
C2726 C2727 1.524 . S
C2726 C2740 1.377 . S
C2727 C2726 1.524 . S
C2727 C2728 1.397 . S
C2727 C2732 1.363 . S
C2728 H2705 0.950 . S
C2728 C2727 1.397 . S
C2728 C2729 1.334 . S
C2729 H2706 0.950 . S
C2729 C2728 1.334 . S
C2729 C2730 1.287 . S
C2730 C2729 1.287 . S
C2730 C2731 1.524 . S
C2730 H2749 0.913 . S
C2731 H2707 0.950 . S
C2731 C2730 1.524 . S
C2731 C2732 1.415 . S
C2732 H2708 0.950 . S
C2732 C2727 1.363 . S
C2732 C2731 1.415 . S
C2733 H2709 0.951 . S
C2733 C2734 1.366 . S
C2733 C2735 1.388 . S
C2734 C2733 1.366 . S
C2734 C2738 1.385 . S
C2735 H2710 0.951 . S
C2735 C2733 1.388 . S
C2735 C2736 1.366 . S
C2736 C2735 1.366 . S
C2736 C2737 1.414 . S
C2736 C2739 1.499 . S
C2737 H2711 0.950 1_655 S
C2737 C2736 1.414 . S
C2737 C2738 1.374 . S
C2738 H2712 0.933 1_655 S
C2738 C2734 1.385 . S
C2738 C2737 1.374 . S
C2739 C2736 1.499 . S
C2739 C2740 1.373 . S
C2739 C2741 1.389 1_655 S
C2740 H2713 0.950 . S
C2740 C2726 1.377 . S
C2740 C2739 1.373 . S
C2741 C2725 1.377 . S
C2741 C2739 1.389 1_455 S
C2741 C2742 1.524 . S
C2742 C2741 1.524 . S
C2742 C2743 1.397 . S
C2742 C2747 1.363 . S
C2743 H2714 0.950 . S
C2743 C2742 1.397 . S
C2743 C2744 1.334 . S
C2744 H2715 0.950 . S
C2744 C2743 1.334 . S
C2744 C2745 1.287 . S
C2745 C2744 1.287 . S
C2745 C2746 1.524 . S
C2745 H2748 0.999 . S
C2746 H2716 0.950 . S
C2746 C2745 1.524 . S
C2746 C2747 1.415 . S
C2747 H2717 0.950 . S
C2747 C2742 1.363 . S
C2747 C2746 1.415 . S
H2748 C2745 0.999 . S
H2749 C2730 0.913 . S
H2750 C2768 0.951 . S
H2751 C2770 0.951 . S
H2752 C2772 0.950 . S
H2753 C2773 0.950 . S
H2754 C2775 0.950 . S
H2755 C2778 0.950 . S
H2756 C2779 0.950 . S
H2757 C2781 0.950 . S
H2758 C2782 0.950 . S
H2759 C2783 0.951 . S
H2760 C2785 0.951 . S
H2761 C2787 0.950 . S
H2762 C2788 0.950 . S
H2763 C2790 0.950 . S
H2764 C2793 0.950 . S
H2765 C2794 0.950 . S
H2766 C2796 0.950 . S
H2767 C2797 0.950 . S
C2768 H2750 0.951 . S
C2768 C2769 1.366 . S
C2768 C2770 1.388 . S
C2769 C2768 1.366 . S
C2769 C2773 1.385 . S
C2770 H2751 0.951 . S
C2770 C2768 1.388 . S
C2770 C2771 1.366 . S
C2771 C2770 1.366 . S
C2771 C2772 1.414 . S
C2771 C2774 1.499 . S
C2772 H2752 0.950 . S
C2772 C2771 1.414 . S
C2772 C2773 1.374 . S
C2773 H2753 0.950 . S
C2773 C2769 1.385 . S
C2773 C2772 1.374 . S
C2774 C2771 1.499 . S
C2774 C2775 1.373 . S
C2774 C2776 1.389 . S
C2775 H2754 0.950 . S
C2775 C2774 1.373 . S
C2775 C2791 1.377 . S
C2776 C2774 1.389 . S
C2776 C2777 1.524 . S
C2776 C2790 1.377 . S
C2777 C2776 1.524 . S
C2777 C2778 1.397 . S
C2777 C2782 1.363 . S
C2778 H2755 0.950 . S
C2778 C2777 1.397 . S
C2778 C2779 1.334 . S
C2779 H2756 0.950 . S
C2779 C2778 1.334 . S
C2779 C2780 1.287 . S
C2780 C2779 1.287 . S
C2780 C2781 1.524 . S
C2780 H2799 0.913 . S
C2781 H2757 0.950 . S
C2781 C2780 1.524 . S
C2781 C2782 1.415 . S
C2782 H2758 0.950 . S
C2782 C2777 1.363 . S
C2782 C2781 1.415 . S
C2783 H2759 0.951 . S
C2783 C2784 1.366 . S
C2783 C2785 1.388 . S
C2784 C2783 1.366 . S
C2784 C2788 1.385 . S
C2785 H2760 0.951 . S
C2785 C2783 1.388 . S
C2785 C2786 1.366 . S
C2786 C2785 1.366 . S
C2786 C2787 1.414 . S
C2786 C2789 1.499 . S
C2787 H2761 0.950 . S
C2787 C2786 1.414 . S
C2787 C2788 1.374 . S
C2788 H2762 0.950 . S
C2788 C2784 1.385 . S
C2788 C2787 1.374 . S
C2789 C2786 1.499 . S
C2789 C2790 1.373 . S
C2789 C2791 1.389 . S
C2790 H2763 0.950 . S
C2790 C2776 1.377 . S
C2790 C2789 1.373 . S
C2791 C2775 1.377 . S
C2791 C2789 1.389 . S
C2791 C2792 1.524 . S
C2792 C2791 1.524 . S
C2792 C2793 1.397 . S
C2792 C2797 1.363 . S
C2793 H2764 0.950 . S
C2793 C2792 1.397 . S
C2793 C2794 1.334 . S
C2794 H2765 0.950 . S
C2794 C2793 1.334 . S
C2794 C2795 1.287 . S
C2795 C2794 1.287 . S
C2795 C2796 1.524 . S
C2795 H2798 0.999 . S
C2796 H2766 0.950 . S
C2796 C2795 1.524 . S
C2796 C2797 1.415 . S
C2797 H2767 0.950 . S
C2797 C2792 1.363 . S
C2797 C2796 1.415 . S
H2798 C2795 0.999 . S
H2799 C2780 0.913 . S
H2800 C2818 0.951 . S
H2801 C2820 0.951 . S
H2802 C2822 0.950 . S
H2803 C2823 0.950 . S
H2804 C2825 0.950 . S
H2805 C2828 0.950 . S
H2806 C2829 0.950 . S
H2807 C2831 0.950 . S
H2808 C2832 0.950 . S
H2809 C2833 0.951 . S
H2810 C2835 0.951 . S
H2811 C2837 0.950 . S
H2812 C2838 0.950 . S
H2813 C2840 0.950 . S
H2814 C2843 0.950 . S
H2815 C2844 0.950 . S
H2816 C2846 0.950 . S
H2817 C2847 0.950 . S
C2818 H2800 0.951 . S
C2818 C2819 1.366 . S
C2818 C2820 1.388 . S
C2819 C2818 1.366 . S
C2819 C2823 1.385 1_545 S
C2820 H2801 0.951 . S
C2820 C2818 1.388 . S
C2820 C2821 1.366 . S
C2821 C2820 1.366 . S
C2821 C2822 1.414 1_545 S
C2821 C2824 1.499 . S
C2822 H2802 0.950 . S
C2822 C2821 1.414 1_565 S
C2822 C2823 1.374 . S
C2823 H2803 0.950 . S
C2823 C2819 1.385 1_565 S
C2823 C2822 1.374 . S
C2824 C2821 1.499 . S
C2824 C2825 1.373 1_545 S
C2824 C2826 1.389 . S
C2825 H2804 0.950 . S
C2825 C2824 1.373 1_565 S
C2825 C2841 1.377 . S
C2826 C2824 1.389 . S
C2826 C2827 1.524 . S
C2826 C2840 1.377 . S
C2827 C2826 1.524 . S
C2827 C2828 1.397 . S
C2827 C2832 1.363 . S
C2828 H2805 0.950 . S
C2828 C2827 1.397 . S
C2828 C2829 1.334 . S
C2829 H2806 0.950 . S
C2829 C2828 1.334 . S
C2829 C2830 1.287 . S
C2830 C2829 1.287 . S
C2830 C2831 1.524 . S
C2830 H2849 0.913 . S
C2831 H2807 0.950 . S
C2831 C2830 1.524 . S
C2831 C2832 1.415 . S
C2832 H2808 0.950 . S
C2832 C2827 1.363 . S
C2832 C2831 1.415 . S
C2833 H2809 0.951 . S
C2833 C2834 1.366 1_565 S
C2833 C2835 1.388 . S
C2834 C2833 1.366 1_545 S
C2834 C2838 1.385 . S
C2835 H2810 0.951 . S
C2835 C2833 1.388 . S
C2835 C2836 1.366 1_565 S
C2836 C2835 1.366 1_545 S
C2836 C2837 1.414 . S
C2836 C2839 1.499 . S
C2837 H2811 0.950 . S
C2837 C2836 1.414 . S
C2837 C2838 1.374 . S
C2838 H2812 0.950 . S
C2838 C2834 1.385 . S
C2838 C2837 1.374 . S
C2839 C2836 1.499 . S
C2839 C2840 1.373 . S
C2839 C2841 1.389 1_545 S
C2840 H2813 0.950 . S
C2840 C2826 1.377 . S
C2840 C2839 1.373 . S
C2841 C2825 1.377 . S
C2841 C2839 1.389 1_565 S
C2841 C2842 1.524 . S
C2842 C2841 1.524 . S
C2842 C2843 1.397 . S
C2842 C2847 1.363 . S
C2843 H2814 0.950 . S
C2843 C2842 1.397 . S
C2843 C2844 1.334 . S
C2844 H2815 0.950 . S
C2844 C2843 1.334 . S
C2844 C2845 1.287 . S
C2845 C2844 1.287 . S
C2845 C2846 1.524 . S
C2845 H2848 0.999 . S
C2846 H2816 0.950 . S
C2846 C2845 1.524 . S
C2846 C2847 1.415 . S
C2847 H2817 0.950 . S
C2847 C2842 1.363 . S
C2847 C2846 1.415 . S
H2848 C2845 0.999 . S
H2849 C2830 0.913 . S
H2850 C2868 0.942 1_545 S
H2851 C2870 0.951 1_545 S
H2852 C2872 0.950 . S
H2853 C2873 0.950 . S
H2854 C2875 0.950 . S
H2855 C2878 0.950 . S
H2856 C2879 0.950 . S
H2857 C2881 0.950 . S
H2858 C2882 0.950 . S
H2859 C2883 0.951 . S
H2860 C2885 0.951 . S
H2861 C2887 0.950 1_545 S
H2862 C2888 0.950 1_545 S
H2863 C2890 0.950 . S
H2864 C2893 0.950 . S
H2865 C2894 0.950 . S
H2866 C2896 0.950 . S
H2867 C2897 0.950 . S
C2868 H2850 0.942 1_565 S
C2868 C2869 1.366 . S
C2868 C2870 1.388 . S
C2869 C2868 1.366 . S
C2869 C2873 1.385 . S
C2870 H2851 0.951 1_565 S
C2870 C2868 1.388 . S
C2870 C2871 1.366 . S
C2871 C2870 1.366 . S
C2871 C2872 1.414 . S
C2871 C2874 1.499 . S
C2872 H2852 0.950 . S
C2872 C2871 1.414 . S
C2872 C2873 1.374 . S
C2873 H2853 0.950 . S
C2873 C2869 1.385 . S
C2873 C2872 1.374 . S
C2874 C2871 1.499 . S
C2874 C2875 1.373 . S
C2874 C2876 1.389 1_565 S
C2875 H2854 0.950 . S
C2875 C2874 1.373 . S
C2875 C2891 1.377 . S
C2876 C2874 1.389 1_545 S
C2876 C2877 1.524 . S
C2876 C2890 1.377 . S
C2877 C2876 1.524 . S
C2877 C2878 1.397 . S
C2877 C2882 1.363 . S
C2878 H2855 0.950 . S
C2878 C2877 1.397 . S
C2878 C2879 1.334 . S
C2879 H2856 0.950 . S
C2879 C2878 1.334 . S
C2879 C2880 1.287 . S
C2880 C2879 1.287 . S
C2880 C2881 1.524 . S
C2880 H2899 0.913 . S
C2881 H2857 0.950 . S
C2881 C2880 1.524 . S
C2881 C2882 1.415 . S
C2882 H2858 0.950 . S
C2882 C2877 1.363 . S
C2882 C2881 1.415 . S
C2883 H2859 0.951 . S
C2883 C2884 1.366 . S
C2883 C2885 1.388 . S
C2884 C2883 1.366 . S
C2884 C2888 1.385 . S
C2885 H2860 0.951 . S
C2885 C2883 1.388 . S
C2885 C2886 1.366 . S
C2886 C2885 1.366 . S
C2886 C2887 1.414 . S
C2886 C2889 1.499 . S
C2887 H2861 0.950 1_565 S
C2887 C2886 1.414 . S
C2887 C2888 1.374 . S
C2888 H2862 0.950 1_565 S
C2888 C2884 1.385 . S
C2888 C2887 1.374 . S
C2889 C2886 1.499 . S
C2889 C2890 1.373 1_565 S
C2889 C2891 1.389 . S
C2890 H2863 0.950 . S
C2890 C2876 1.377 . S
C2890 C2889 1.373 1_545 S
C2891 C2875 1.377 . S
C2891 C2889 1.389 . S
C2891 C2892 1.524 . S
C2892 C2891 1.524 . S
C2892 C2893 1.397 . S
C2892 C2897 1.363 . S
C2893 H2864 0.950 . S
C2893 C2892 1.397 . S
C2893 C2894 1.334 . S
C2894 H2865 0.950 . S
C2894 C2893 1.334 . S
C2894 C2895 1.287 . S
C2895 C2894 1.287 . S
C2895 C2896 1.524 . S
C2895 H2898 0.999 . S
C2896 H2866 0.950 . S
C2896 C2895 1.524 . S
C2896 C2897 1.415 . S
C2897 H2867 0.950 . S
C2897 C2892 1.363 . S
C2897 C2896 1.415 . S
H2898 C2895 0.999 . S
H2899 C2880 0.913 . S
H2900 C2918 0.951 . S
H2901 C2920 0.969 . S
H2902 C2922 0.950 . S
H2903 C2923 0.950 . S
H2904 C2925 0.950 . S
H2905 C2928 0.950 . S
H2906 C2929 0.950 . S
H2907 C2931 0.950 . S
H2908 C2932 0.950 . S
H2909 C2933 0.951 . S
H2910 C2935 0.951 . S
H2911 C2937 0.950 1_655 S
H2912 C2938 0.950 1_655 S
H2913 C2940 0.950 . S
H2914 C2943 0.950 . S
H2915 C2944 0.950 . S
H2916 C2946 0.950 . S
H2917 C2947 0.950 . S
C2918 H2900 0.951 . S
C2918 C2919 1.366 . S
C2918 C2920 1.388 . S
C2919 C2918 1.366 . S
C2919 C2923 1.385 . S
C2920 H2901 0.969 . S
C2920 C2918 1.388 . S
C2920 C2921 1.366 . S
C2921 C2920 1.366 . S
C2921 C2922 1.414 . S
C2921 C2924 1.499 . S
C2922 H2902 0.950 . S
C2922 C2921 1.414 . S
C2922 C2923 1.374 . S
C2923 H2903 0.950 . S
C2923 C2919 1.385 . S
C2923 C2922 1.374 . S
C2924 C2921 1.499 . S
C2924 C2925 1.373 . S
C2924 C2926 1.389 1_455 S
C2925 H2904 0.950 . S
C2925 C2924 1.373 . S
C2925 C2941 1.377 . S
C2926 C2924 1.389 1_655 S
C2926 C2927 1.524 . S
C2926 C2940 1.377 . S
C2927 C2926 1.524 . S
C2927 C2928 1.397 . S
C2927 C2932 1.363 . S
C2928 H2905 0.950 . S
C2928 C2927 1.397 . S
C2928 C2929 1.334 . S
C2929 H2906 0.950 . S
C2929 C2928 1.334 . S
C2929 C2930 1.287 . S
C2930 C2929 1.287 . S
C2930 C2931 1.524 . S
C2930 H2949 0.913 . S
C2931 H2907 0.950 . S
C2931 C2930 1.524 . S
C2931 C2932 1.415 . S
C2932 H2908 0.950 . S
C2932 C2927 1.363 . S
C2932 C2931 1.415 . S
C2933 H2909 0.951 . S
C2933 C2934 1.366 . S
C2933 C2935 1.388 . S
C2934 C2933 1.366 . S
C2934 C2938 1.385 . S
C2935 H2910 0.951 . S
C2935 C2933 1.388 . S
C2935 C2936 1.366 . S
C2936 C2935 1.366 . S
C2936 C2937 1.414 . S
C2936 C2939 1.499 . S
C2937 H2911 0.950 1_455 S
C2937 C2936 1.414 . S
C2937 C2938 1.374 . S
C2938 H2912 0.950 1_455 S
C2938 C2934 1.385 . S
C2938 C2937 1.374 . S
C2939 C2936 1.499 . S
C2939 C2940 1.373 1_455 S
C2939 C2941 1.389 . S
C2940 H2913 0.950 . S
C2940 C2926 1.377 . S
C2940 C2939 1.373 1_655 S
C2941 C2925 1.377 . S
C2941 C2939 1.389 . S
C2941 C2942 1.524 . S
C2942 C2941 1.524 . S
C2942 C2943 1.397 . S
C2942 C2947 1.363 . S
C2943 H2914 0.950 . S
C2943 C2942 1.397 . S
C2943 C2944 1.334 . S
C2944 H2915 0.950 . S
C2944 C2943 1.334 . S
C2944 C2945 1.287 . S
C2945 C2944 1.287 . S
C2945 C2946 1.524 . S
C2945 H2948 0.999 . S
C2946 H2916 0.950 . S
C2946 C2945 1.524 . S
C2946 C2947 1.415 . S
C2947 H2917 0.950 . S
C2947 C2942 1.363 . S
C2947 C2946 1.415 . S
H2948 C2945 0.999 . S
H2949 C2930 0.913 . S
H2950 C2968 0.951 . S
H2951 C2970 0.951 . S
H2952 C2972 0.950 . S
H2953 C2973 0.950 . S
H2954 C2975 0.950 . S
H2955 C2978 0.950 . S
H2956 C2979 0.950 . S
H2957 C2981 0.950 . S
H2958 C2982 0.950 . S
H2959 C2983 0.951 . S
H2960 C2985 0.951 . S
H2961 C2987 0.950 . S
H2962 C2988 0.950 . S
H2963 C2990 0.950 . S
H2964 C2993 0.950 . S
H2965 C2994 0.950 . S
H2966 C2996 0.950 . S
H2967 C2997 0.950 . S
C2968 H2950 0.951 . S
C2968 C2969 1.366 . S
C2968 C2970 1.388 . S
C2969 C2968 1.366 . S
C2969 C2973 1.385 . S
C2970 H2951 0.951 . S
C2970 C2968 1.388 . S
C2970 C2971 1.366 . S
C2971 C2970 1.366 . S
C2971 C2972 1.414 . S
C2971 C2974 1.499 . S
C2972 H2952 0.950 . S
C2972 C2971 1.414 . S
C2972 C2973 1.374 . S
C2973 H2953 0.950 . S
C2973 C2969 1.385 . S
C2973 C2972 1.374 . S
C2974 C2971 1.499 . S
C2974 C2975 1.373 . S
C2974 C2976 1.389 . S
C2975 H2954 0.950 . S
C2975 C2974 1.373 . S
C2975 C2991 1.377 . S
C2976 C2974 1.389 . S
C2976 C2977 1.524 . S
C2976 C2990 1.377 . S
C2977 C2976 1.524 . S
C2977 C2978 1.397 . S
C2977 C2982 1.363 . S
C2978 H2955 0.950 . S
C2978 C2977 1.397 . S
C2978 C2979 1.334 . S
C2979 H2956 0.950 . S
C2979 C2978 1.334 . S
C2979 C2980 1.287 . S
C2980 C2979 1.287 . S
C2980 C2981 1.524 . S
C2980 H2999 0.913 . S
C2981 H2957 0.950 . S
C2981 C2980 1.524 . S
C2981 C2982 1.415 . S
C2982 H2958 0.950 . S
C2982 C2977 1.363 . S
C2982 C2981 1.415 . S
C2983 H2959 0.951 . S
C2983 C2984 1.366 . S
C2983 C2985 1.388 . S
C2984 C2983 1.366 . S
C2984 C2988 1.385 . S
C2985 H2960 0.951 . S
C2985 C2983 1.388 . S
C2985 C2986 1.366 . S
C2986 C2985 1.366 . S
C2986 C2987 1.414 . S
C2986 C2989 1.499 . S
C2987 H2961 0.950 . S
C2987 C2986 1.414 . S
C2987 C2988 1.374 . S
C2988 H2962 0.950 . S
C2988 C2984 1.385 . S
C2988 C2987 1.374 . S
C2989 C2986 1.499 . S
C2989 C2990 1.373 . S
C2989 C2991 1.389 . S
C2990 H2963 0.950 . S
C2990 C2976 1.377 . S
C2990 C2989 1.373 . S
C2991 C2975 1.377 . S
C2991 C2989 1.389 . S
C2991 C2992 1.524 . S
C2992 C2991 1.524 . S
C2992 C2993 1.397 . S
C2992 C2997 1.363 . S
C2993 H2964 0.950 . S
C2993 C2992 1.397 . S
C2993 C2994 1.334 . S
C2994 H2965 0.950 . S
C2994 C2993 1.334 . S
C2994 C2995 1.287 . S
C2995 C2994 1.287 . S
C2995 C2996 1.524 . S
C2995 H2998 0.999 . S
C2996 H2966 0.950 . S
C2996 C2995 1.524 . S
C2996 C2997 1.415 . S
C2997 H2967 0.950 . S
C2997 C2992 1.363 . S
C2997 C2996 1.415 . S
H2998 C2995 0.999 . S
H2999 C2980 0.913 . S
H3000 C3018 0.951 . S
H3001 C3020 0.951 . S
H3002 C3022 0.950 . S
H3003 C3023 0.950 . S
H3004 C3025 0.950 . S
H3005 C3028 0.950 . S
H3006 C3029 0.950 . S
H3007 C3031 0.950 . S
H3008 C3032 0.950 . S
H3009 C3033 0.951 . S
H3010 C3035 0.951 . S
H3011 C3037 0.950 . S
H3012 C3038 0.950 . S
H3013 C3040 0.950 . S
H3014 C3043 0.950 . S
H3015 C3044 0.950 . S
H3016 C3046 0.950 . S
H3017 C3047 0.950 . S
C3018 H3000 0.951 . S
C3018 C3019 1.366 . S
C3018 C3020 1.388 . S
C3019 C3018 1.366 . S
C3019 C3023 1.385 1_455 S
C3020 H3001 0.951 . S
C3020 C3018 1.388 . S
C3020 C3021 1.366 . S
C3021 C3020 1.366 . S
C3021 C3022 1.414 1_455 S
C3021 C3024 1.499 . S
C3022 H3002 0.950 . S
C3022 C3021 1.414 1_655 S
C3022 C3023 1.374 . S
C3023 H3003 0.950 . S
C3023 C3019 1.385 1_655 S
C3023 C3022 1.374 . S
C3024 C3021 1.499 . S
C3024 C3025 1.373 1_455 S
C3024 C3026 1.389 . S
C3025 H3004 0.950 . S
C3025 C3024 1.373 1_655 S
C3025 C3041 1.377 . S
C3026 C3024 1.389 . S
C3026 C3027 1.524 . S
C3026 C3040 1.377 . S
C3027 C3026 1.524 . S
C3027 C3028 1.397 . S
C3027 C3032 1.363 . S
C3028 H3005 0.950 . S
C3028 C3027 1.397 . S
C3028 C3029 1.334 . S
C3029 H3006 0.950 . S
C3029 C3028 1.334 . S
C3029 C3030 1.287 . S
C3030 C3029 1.287 . S
C3030 C3031 1.524 . S
C3030 H3049 0.913 . S
C3031 H3007 0.950 . S
C3031 C3030 1.524 . S
C3031 C3032 1.415 . S
C3032 H3008 0.950 . S
C3032 C3027 1.363 . S
C3032 C3031 1.415 . S
C3033 H3009 0.951 . S
C3033 C3034 1.366 1_655 S
C3033 C3035 1.388 . S
C3034 C3033 1.366 1_455 S
C3034 C3038 1.385 . S
C3035 H3010 0.951 . S
C3035 C3033 1.388 . S
C3035 C3036 1.366 1_655 S
C3036 C3035 1.366 1_455 S
C3036 C3037 1.414 . S
C3036 C3039 1.499 . S
C3037 H3011 0.950 . S
C3037 C3036 1.414 . S
C3037 C3038 1.374 . S
C3038 H3012 0.950 . S
C3038 C3034 1.385 . S
C3038 C3037 1.374 . S
C3039 C3036 1.499 . S
C3039 C3040 1.373 . S
C3039 C3041 1.389 1_455 S
C3040 H3013 0.950 . S
C3040 C3026 1.377 . S
C3040 C3039 1.373 . S
C3041 C3025 1.377 . S
C3041 C3039 1.389 1_655 S
C3041 C3042 1.524 . S
C3042 C3041 1.524 . S
C3042 C3043 1.397 . S
C3042 C3047 1.363 . S
C3043 H3014 0.950 . S
C3043 C3042 1.397 . S
C3043 C3044 1.334 . S
C3044 H3015 0.950 . S
C3044 C3043 1.334 . S
C3044 C3045 1.287 . S
C3045 C3044 1.287 . S
C3045 C3046 1.524 . S
C3045 H3048 0.999 . S
C3046 H3016 0.950 . S
C3046 C3045 1.524 . S
C3046 C3047 1.415 . S
C3047 H3017 0.950 . S
C3047 C3042 1.363 . S
C3047 C3046 1.415 . S
H3048 C3045 0.999 . S
H3049 C3030 0.913 . S
H3050 C3068 0.951 . S
H3051 C3070 0.951 . S
H3052 C3072 0.950 . S
H3053 C3073 0.950 . S
H3054 C3075 0.950 . S
H3055 C3078 0.950 . S
H3056 C3079 0.950 . S
H3057 C3081 0.950 . S
H3058 C3082 0.950 . S
H3059 C3083 0.951 . S
H3060 C3085 0.951 . S
H3061 C3087 0.950 . S
H3062 C3088 0.950 . S
H3063 C3090 0.950 . S
H3064 C3093 0.950 . S
H3065 C3094 0.950 . S
H3066 C3096 0.950 . S
H3067 C3097 0.950 . S
C3068 H3050 0.951 . S
C3068 C3069 1.366 . S
C3068 C3070 1.388 . S
C3069 C3068 1.366 . S
C3069 C3073 1.385 . S
C3070 H3051 0.951 . S
C3070 C3068 1.388 . S
C3070 C3071 1.366 . S
C3071 C3070 1.366 . S
C3071 C3072 1.414 . S
C3071 C3074 1.499 . S
C3072 H3052 0.950 . S
C3072 C3071 1.414 . S
C3072 C3073 1.374 . S
C3073 H3053 0.950 . S
C3073 C3069 1.385 . S
C3073 C3072 1.374 . S
C3074 C3071 1.499 . S
C3074 C3075 1.373 . S
C3074 C3076 1.389 . S
C3075 H3054 0.950 . S
C3075 C3074 1.373 . S
C3075 C3091 1.377 . S
C3076 C3074 1.389 . S
C3076 C3077 1.524 . S
C3076 C3090 1.377 . S
C3077 C3076 1.524 . S
C3077 C3078 1.397 . S
C3077 C3082 1.363 . S
C3078 H3055 0.950 . S
C3078 C3077 1.397 . S
C3078 C3079 1.334 . S
C3079 H3056 0.950 . S
C3079 C3078 1.334 . S
C3079 C3080 1.287 . S
C3080 C3079 1.287 . S
C3080 C3081 1.524 . S
C3080 H3099 0.913 . S
C3081 H3057 0.950 . S
C3081 C3080 1.524 . S
C3081 C3082 1.415 . S
C3082 H3058 0.950 . S
C3082 C3077 1.363 . S
C3082 C3081 1.415 . S
C3083 H3059 0.951 . S
C3083 C3084 1.366 . S
C3083 C3085 1.388 . S
C3084 C3083 1.366 . S
C3084 C3088 1.385 . S
C3085 H3060 0.951 . S
C3085 C3083 1.388 . S
C3085 C3086 1.366 . S
C3086 C3085 1.366 . S
C3086 C3087 1.414 . S
C3086 C3089 1.499 . S
C3087 H3061 0.950 . S
C3087 C3086 1.414 . S
C3087 C3088 1.374 . S
C3088 H3062 0.950 . S
C3088 C3084 1.385 . S
C3088 C3087 1.374 . S
C3089 C3086 1.499 . S
C3089 C3090 1.373 . S
C3089 C3091 1.389 . S
C3090 H3063 0.950 . S
C3090 C3076 1.377 . S
C3090 C3089 1.373 . S
C3091 C3075 1.377 . S
C3091 C3089 1.389 . S
C3091 C3092 1.524 . S
C3092 C3091 1.524 . S
C3092 C3093 1.397 . S
C3092 C3097 1.363 . S
C3093 H3064 0.950 . S
C3093 C3092 1.397 . S
C3093 C3094 1.334 . S
C3094 H3065 0.950 . S
C3094 C3093 1.334 . S
C3094 C3095 1.287 . S
C3095 C3094 1.287 . S
C3095 C3096 1.524 . S
C3095 H3098 0.999 . S
C3096 H3066 0.950 . S
C3096 C3095 1.524 . S
C3096 C3097 1.415 . S
C3097 H3067 0.950 . S
C3097 C3092 1.363 . S
C3097 C3096 1.415 . S
H3098 C3095 0.999 . S
H3099 C3080 0.913 . S
H3100 C3118 0.951 . S
H3101 C3120 0.951 . S
H3102 C3122 0.948 1_545 S
H3103 C3123 0.971 1_545 S
H3104 C3125 0.950 . S
H3105 C3128 0.950 . S
H3106 C3129 0.950 . S
H3107 C3131 0.950 . S
H3108 C3132 0.950 . S
H3109 C3133 0.951 . S
H3110 C3135 0.951 . S
H3111 C3137 0.950 . S
H3112 C3138 0.950 . S
H3113 C3140 0.950 . S
H3114 C3143 0.950 . S
H3115 C3144 0.950 . S
H3116 C3146 0.950 . S
H3117 C3147 0.950 . S
C3118 H3100 0.951 . S
C3118 C3119 1.366 . S
C3118 C3120 1.388 . S
C3119 C3118 1.366 . S
C3119 C3123 1.385 . S
C3120 H3101 0.951 . S
C3120 C3118 1.388 . S
C3120 C3121 1.366 . S
C3121 C3120 1.366 . S
C3121 C3122 1.391 . S
C3121 C3124 1.499 . S
C3122 H3102 0.948 1_565 S
C3122 C3121 1.391 . S
C3122 C3123 1.408 . S
C3123 H3103 0.971 1_565 S
C3123 C3119 1.385 . S
C3123 C3122 1.408 . S
C3124 C3121 1.499 . S
C3124 C3125 1.373 1_565 S
C3124 C3126 1.389 . S
C3125 H3104 0.950 . S
C3125 C3124 1.373 1_545 S
C3125 C3141 1.377 . S
C3126 C3124 1.389 . S
C3126 C3127 1.524 . S
C3126 C3140 1.377 . S
C3127 C3126 1.524 . S
C3127 C3128 1.397 . S
C3127 C3132 1.363 . S
C3128 H3105 0.950 . S
C3128 C3127 1.397 . S
C3128 C3129 1.334 . S
C3129 H3106 0.950 . S
C3129 C3128 1.334 . S
C3129 C3130 1.287 . S
C3130 C3129 1.287 . S
C3130 C3131 1.524 . S
C3130 H3149 0.913 . S
C3131 H3107 0.950 . S
C3131 C3130 1.524 . S
C3131 C3132 1.415 . S
C3132 H3108 0.950 . S
C3132 C3127 1.363 . S
C3132 C3131 1.415 . S
C3133 H3109 0.951 . S
C3133 C3134 1.389 1_545 S
C3133 C3135 1.388 . S
C3134 C3133 1.389 1_565 S
C3134 C3138 1.390 . S
C3135 H3110 0.951 . S
C3135 C3133 1.388 . S
C3135 C3136 1.363 1_545 S
C3136 C3135 1.363 1_565 S
C3136 C3137 1.393 . S
C3136 C3139 1.529 . S
C3137 H3111 0.950 . S
C3137 C3136 1.393 . S
C3137 C3138 1.374 . S
C3138 H3112 0.950 . S
C3138 C3134 1.390 . S
C3138 C3137 1.374 . S
C3139 C3136 1.529 . S
C3139 C3140 1.373 . S
C3139 C3141 1.389 1_565 S
C3140 H3113 0.950 . S
C3140 C3126 1.377 . S
C3140 C3139 1.373 . S
C3141 C3125 1.377 . S
C3141 C3139 1.389 1_545 S
C3141 C3142 1.524 . S
C3142 C3141 1.524 . S
C3142 C3143 1.397 . S
C3142 C3147 1.363 . S
C3143 H3114 0.950 . S
C3143 C3142 1.397 . S
C3143 C3144 1.334 . S
C3144 H3115 0.950 . S
C3144 C3143 1.334 . S
C3144 C3145 1.287 . S
C3145 C3144 1.287 . S
C3145 C3146 1.524 . S
C3145 H3148 0.999 . S
C3146 H3116 0.950 . S
C3146 C3145 1.524 . S
C3146 C3147 1.415 . S
C3147 H3117 0.950 . S
C3147 C3142 1.363 . S
C3147 C3146 1.415 . S
H3148 C3145 0.999 . S
H3149 C3130 0.913 . S
H3150 C3168 0.938 1_565 S
H3151 C3170 0.951 1_565 S
H3152 C3172 0.950 . S
H3153 C3173 0.950 . S
H3154 C3175 0.950 . S
H3155 C3178 0.950 . S
H3156 C3179 0.950 . S
H3157 C3181 0.950 . S
H3158 C3182 0.950 . S
H3159 C3183 0.951 . S
H3160 C3185 0.951 . S
H3161 C3187 0.950 . S
H3162 C3188 0.950 . S
H3163 C3190 0.950 . S
H3164 C3193 0.950 . S
H3165 C3194 0.950 . S
H3166 C3196 0.950 . S
H3167 C3197 0.950 . S
C3168 H3150 0.938 1_545 S
C3168 C3169 1.366 . S
C3168 C3170 1.388 . S
C3169 C3168 1.366 . S
C3169 C3173 1.385 . S
C3170 H3151 0.951 1_545 S
C3170 C3168 1.388 . S
C3170 C3171 1.366 . S
C3171 C3170 1.366 . S
C3171 C3172 1.414 . S
C3171 C3174 1.499 . S
C3172 H3152 0.950 . S
C3172 C3171 1.414 . S
C3172 C3173 1.374 . S
C3173 H3153 0.950 . S
C3173 C3169 1.385 . S
C3173 C3172 1.374 . S
C3174 C3171 1.499 . S
C3174 C3175 1.373 . S
C3174 C3176 1.389 1_545 S
C3175 H3154 0.950 . S
C3175 C3174 1.373 . S
C3175 C3191 1.377 . S
C3176 C3174 1.389 1_565 S
C3176 C3177 1.524 . S
C3176 C3190 1.377 . S
C3177 C3176 1.524 . S
C3177 C3178 1.397 . S
C3177 C3182 1.363 . S
C3178 H3155 0.950 . S
C3178 C3177 1.397 . S
C3178 C3179 1.334 . S
C3179 H3156 0.950 . S
C3179 C3178 1.334 . S
C3179 C3180 1.287 . S
C3180 C3179 1.287 . S
C3180 C3181 1.524 . S
C3180 H3199 0.913 . S
C3181 H3157 0.950 . S
C3181 C3180 1.524 . S
C3181 C3182 1.415 . S
C3182 H3158 0.950 . S
C3182 C3177 1.363 . S
C3182 C3181 1.415 . S
C3183 H3159 0.951 . S
C3183 C3184 1.366 . S
C3183 C3185 1.388 . S
C3184 C3183 1.366 . S
C3184 C3188 1.385 1_545 S
C3185 H3160 0.951 . S
C3185 C3183 1.388 . S
C3185 C3186 1.366 . S
C3186 C3185 1.366 . S
C3186 C3187 1.414 1_545 S
C3186 C3189 1.499 . S
C3187 H3161 0.950 . S
C3187 C3186 1.414 1_565 S
C3187 C3188 1.374 . S
C3188 H3162 0.950 . S
C3188 C3184 1.385 1_565 S
C3188 C3187 1.374 . S
C3189 C3186 1.499 . S
C3189 C3190 1.373 1_545 S
C3189 C3191 1.389 . S
C3190 H3163 0.950 . S
C3190 C3176 1.377 . S
C3190 C3189 1.373 1_565 S
C3191 C3175 1.377 . S
C3191 C3189 1.389 . S
C3191 C3192 1.524 . S
C3192 C3191 1.524 . S
C3192 C3193 1.397 . S
C3192 C3197 1.363 . S
C3193 H3164 0.950 . S
C3193 C3192 1.397 . S
C3193 C3194 1.334 . S
C3194 H3165 0.950 . S
C3194 C3193 1.334 . S
C3194 C3195 1.287 . S
C3195 C3194 1.287 . S
C3195 C3196 1.524 . S
C3195 H3198 0.999 . S
C3196 H3166 0.950 . S
C3196 C3195 1.524 . S
C3196 C3197 1.415 . S
C3197 H3167 0.950 . S
C3197 C3192 1.363 . S
C3197 C3196 1.415 . S
H3198 C3195 0.999 . S
H3199 C3180 0.913 . S
H3200 C3218 0.951 . S
H3201 C3220 0.951 . S
H3202 C3222 0.950 . S
H3203 C3223 0.950 . S
H3204 C3225 0.950 . S
H3205 C3228 0.950 . S
H3206 C3229 0.950 . S
H3207 C3231 0.950 . S
H3208 C3232 0.950 . S
H3209 C3233 0.951 . S
H3210 C3235 0.951 . S
H3211 C3237 0.950 . S
H3212 C3238 0.950 . S
H3213 C3240 0.950 . S
H3214 C3243 0.950 . S
H3215 C3244 0.950 . S
H3216 C3246 0.950 . S
H3217 C3247 0.950 . S
C3218 H3200 0.951 . S
C3218 C3219 1.366 . S
C3218 C3220 1.388 . S
C3219 C3218 1.366 . S
C3219 C3223 1.385 1_655 S
C3220 H3201 0.951 . S
C3220 C3218 1.388 . S
C3220 C3221 1.366 . S
C3221 C3220 1.366 . S
C3221 C3222 1.414 1_655 S
C3221 C3224 1.499 . S
C3222 H3202 0.950 . S
C3222 C3221 1.414 1_455 S
C3222 C3223 1.374 . S
C3223 H3203 0.950 . S
C3223 C3219 1.385 1_455 S
C3223 C3222 1.374 . S
C3224 C3221 1.499 . S
C3224 C3225 1.373 1_655 S
C3224 C3226 1.389 . S
C3225 H3204 0.950 . S
C3225 C3224 1.373 1_455 S
C3225 C3241 1.377 . S
C3226 C3224 1.389 . S
C3226 C3227 1.524 . S
C3226 C3240 1.377 . S
C3227 C3226 1.524 . S
C3227 C3228 1.397 . S
C3227 C3232 1.363 . S
C3228 H3205 0.950 . S
C3228 C3227 1.397 . S
C3228 C3229 1.334 . S
C3229 H3206 0.950 . S
C3229 C3228 1.334 . S
C3229 C3230 1.287 . S
C3230 C3229 1.287 . S
C3230 C3231 1.524 . S
C3230 H3249 0.913 . S
C3231 H3207 0.950 . S
C3231 C3230 1.524 . S
C3231 C3232 1.415 . S
C3232 H3208 0.950 . S
C3232 C3227 1.363 . S
C3232 C3231 1.415 . S
C3233 H3209 0.951 . S
C3233 C3234 1.337 1_455 S
C3233 C3235 1.388 . S
C3234 C3233 1.337 1_655 S
C3234 C3238 1.450 . S
C3235 H3210 0.951 . S
C3235 C3233 1.388 . S
C3235 C3236 1.366 1_455 S
C3236 C3235 1.366 1_655 S
C3236 C3237 1.414 . S
C3236 C3239 1.499 . S
C3237 H3211 0.950 . S
C3237 C3236 1.414 . S
C3237 C3238 1.374 . S
C3238 H3212 0.950 . S
C3238 C3234 1.450 . S
C3238 C3237 1.374 . S
C3239 C3236 1.499 . S
C3239 C3240 1.373 . S
C3239 C3241 1.389 1_655 S
C3240 H3213 0.950 . S
C3240 C3226 1.377 . S
C3240 C3239 1.373 . S
C3241 C3225 1.377 . S
C3241 C3239 1.389 1_455 S
C3241 C3242 1.524 . S
C3242 C3241 1.524 . S
C3242 C3243 1.397 . S
C3242 C3247 1.363 . S
C3243 H3214 0.950 . S
C3243 C3242 1.397 . S
C3243 C3244 1.334 . S
C3244 H3215 0.950 . S
C3244 C3243 1.334 . S
C3244 C3245 1.287 . S
C3245 C3244 1.287 . S
C3245 C3246 1.524 . S
C3245 H3248 0.999 . S
C3246 H3216 0.950 . S
C3246 C3245 1.524 . S
C3246 C3247 1.415 . S
C3247 H3217 0.950 . S
C3247 C3242 1.363 . S
C3247 C3246 1.415 . S
H3248 C3245 0.999 . S
H3249 C3230 0.913 . S
H3250 C3268 0.951 . S
H3251 C3270 0.951 . S
H3252 C3272 0.950 . S
H3253 C3273 0.950 . S
H3254 C3275 0.950 . S
H3255 C3278 0.950 . S
H3256 C3279 0.950 . S
H3257 C3281 0.950 . S
H3258 C3282 0.950 . S
H3259 C3283 0.951 . S
H3260 C3285 0.951 . S
H3261 C3287 0.950 . S
H3262 C3288 0.950 . S
H3263 C3290 0.950 . S
H3264 C3293 0.950 . S
H3265 C3294 0.950 . S
H3266 C3296 0.950 . S
H3267 C3297 0.950 . S
C3268 H3250 0.951 . S
C3268 C3269 1.366 . S
C3268 C3270 1.388 . S
C3269 C3268 1.366 . S
C3269 C3273 1.385 . S
C3270 H3251 0.951 . S
C3270 C3268 1.388 . S
C3270 C3271 1.366 . S
C3271 C3270 1.366 . S
C3271 C3272 1.414 . S
C3271 C3274 1.499 . S
C3272 H3252 0.950 . S
C3272 C3271 1.414 . S
C3272 C3273 1.374 . S
C3273 H3253 0.950 . S
C3273 C3269 1.385 . S
C3273 C3272 1.374 . S
C3274 C3271 1.499 . S
C3274 C3275 1.373 . S
C3274 C3276 1.389 . S
C3275 H3254 0.950 . S
C3275 C3274 1.373 . S
C3275 C3291 1.377 . S
C3276 C3274 1.389 . S
C3276 C3277 1.524 . S
C3276 C3290 1.377 . S
C3277 C3276 1.524 . S
C3277 C3278 1.397 . S
C3277 C3282 1.363 . S
C3278 H3255 0.950 . S
C3278 C3277 1.397 . S
C3278 C3279 1.334 . S
C3279 H3256 0.950 . S
C3279 C3278 1.334 . S
C3279 C3280 1.287 . S
C3280 C3279 1.287 . S
C3280 C3281 1.524 . S
C3280 H3299 0.913 . S
C3281 H3257 0.950 . S
C3281 C3280 1.524 . S
C3281 C3282 1.415 . S
C3282 H3258 0.950 . S
C3282 C3277 1.363 . S
C3282 C3281 1.415 . S
C3283 H3259 0.951 . S
C3283 C3284 1.366 . S
C3283 C3285 1.388 . S
C3284 C3283 1.366 . S
C3284 C3288 1.385 . S
C3285 H3260 0.951 . S
C3285 C3283 1.388 . S
C3285 C3286 1.366 . S
C3286 C3285 1.366 . S
C3286 C3287 1.414 . S
C3286 C3289 1.499 . S
C3287 H3261 0.950 . S
C3287 C3286 1.414 . S
C3287 C3288 1.374 . S
C3288 H3262 0.950 . S
C3288 C3284 1.385 . S
C3288 C3287 1.374 . S
C3289 C3286 1.499 . S
C3289 C3290 1.373 . S
C3289 C3291 1.389 . S
C3290 H3263 0.950 . S
C3290 C3276 1.377 . S
C3290 C3289 1.373 . S
C3291 C3275 1.377 . S
C3291 C3289 1.389 . S
C3291 C3292 1.524 . S
C3292 C3291 1.524 . S
C3292 C3293 1.397 . S
C3292 C3297 1.363 . S
C3293 H3264 0.950 . S
C3293 C3292 1.397 . S
C3293 C3294 1.334 . S
C3294 H3265 0.950 . S
C3294 C3293 1.334 . S
C3294 C3295 1.287 . S
C3295 C3294 1.287 . S
C3295 C3296 1.524 . S
C3295 H3298 0.999 . S
C3296 H3266 0.950 . S
C3296 C3295 1.524 . S
C3296 C3297 1.415 . S
C3297 H3267 0.950 . S
C3297 C3292 1.363 . S
C3297 C3296 1.415 . S
H3298 C3295 0.999 . S
H3299 C3280 0.913 . S
H3300 C3318 0.951 . S
H3301 C3320 0.951 . S
H3302 C3322 0.950 . S
H3303 C3323 0.950 . S
H3304 C3325 0.950 . S
H3305 C3328 0.950 . S
H3306 C3329 0.950 . S
H3307 C3331 0.950 . S
H3308 C3332 0.950 . S
H3309 C3333 0.951 . S
H3310 C3335 0.951 . S
H3311 C3337 0.950 . S
H3312 C3338 0.950 . S
H3313 C3340 0.950 . S
H3314 C3343 0.950 . S
H3315 C3344 0.950 . S
H3316 C3346 0.950 . S
H3317 C3347 0.950 . S
C3318 H3300 0.951 . S
C3318 C3319 1.366 . S
C3318 C3320 1.388 . S
C3319 C3318 1.366 . S
C3319 C3323 1.385 . S
C3320 H3301 0.951 . S
C3320 C3318 1.388 . S
C3320 C3321 1.366 . S
C3321 C3320 1.366 . S
C3321 C3322 1.414 . S
C3321 C3324 1.499 . S
C3322 H3302 0.950 . S
C3322 C3321 1.414 . S
C3322 C3323 1.374 . S
C3323 H3303 0.950 . S
C3323 C3319 1.385 . S
C3323 C3322 1.374 . S
C3324 C3321 1.499 . S
C3324 C3325 1.373 . S
C3324 C3326 1.389 . S
C3325 H3304 0.950 . S
C3325 C3324 1.373 . S
C3325 C3341 1.377 . S
C3326 C3324 1.389 . S
C3326 C3327 1.524 . S
C3326 C3340 1.377 . S
C3327 C3326 1.524 . S
C3327 C3328 1.397 . S
C3327 C3332 1.363 . S
C3328 H3305 0.950 . S
C3328 C3327 1.397 . S
C3328 C3329 1.334 . S
C3329 H3306 0.950 . S
C3329 C3328 1.334 . S
C3329 C3330 1.287 . S
C3330 C3329 1.287 . S
C3330 C3331 1.524 . S
C3330 H3349 0.913 . S
C3331 H3307 0.950 . S
C3331 C3330 1.524 . S
C3331 C3332 1.415 . S
C3332 H3308 0.950 . S
C3332 C3327 1.363 . S
C3332 C3331 1.415 . S
C3333 H3309 0.951 . S
C3333 C3334 1.366 . S
C3333 C3335 1.388 . S
C3334 C3333 1.366 . S
C3334 C3338 1.385 . S
C3335 H3310 0.951 . S
C3335 C3333 1.388 . S
C3335 C3336 1.366 . S
C3336 C3335 1.366 . S
C3336 C3337 1.414 . S
C3336 C3339 1.499 . S
C3337 H3311 0.950 . S
C3337 C3336 1.414 . S
C3337 C3338 1.374 . S
C3338 H3312 0.950 . S
C3338 C3334 1.385 . S
C3338 C3337 1.374 . S
C3339 C3336 1.499 . S
C3339 C3340 1.373 . S
C3339 C3341 1.389 . S
C3340 H3313 0.950 . S
C3340 C3326 1.377 . S
C3340 C3339 1.373 . S
C3341 C3325 1.377 . S
C3341 C3339 1.389 . S
C3341 C3342 1.524 . S
C3342 C3341 1.524 . S
C3342 C3343 1.397 . S
C3342 C3347 1.363 . S
C3343 H3314 0.950 . S
C3343 C3342 1.397 . S
C3343 C3344 1.334 . S
C3344 H3315 0.950 . S
C3344 C3343 1.334 . S
C3344 C3345 1.287 . S
C3345 C3344 1.287 . S
C3345 C3346 1.524 . S
C3345 H3348 0.999 . S
C3346 H3316 0.950 . S
C3346 C3345 1.524 . S
C3346 C3347 1.415 . S
C3347 H3317 0.950 . S
C3347 C3342 1.363 . S
C3347 C3346 1.415 . S
H3348 C3345 0.999 . S
H3349 C3330 0.913 . S
H3350 C3368 0.951 . S
H3351 C3370 0.951 . S
H3352 C3372 0.950 . S
H3353 C3373 0.950 . S
H3354 C3375 0.950 . S
H3355 C3378 0.950 . S
H3356 C3379 0.950 . S
H3357 C3381 0.950 . S
H3358 C3382 0.950 . S
H3359 C3383 0.951 . S
H3360 C3385 0.951 . S
H3361 C3387 0.950 . S
H3362 C3388 0.950 . S
H3363 C3390 0.950 . S
H3364 C3393 0.950 . S
H3365 C3394 0.950 . S
H3366 C3396 0.950 . S
H3367 C3397 0.950 . S
C3368 H3350 0.951 . S
C3368 C3369 1.366 . S
C3368 C3370 1.388 . S
C3369 C3368 1.366 . S
C3369 C3373 1.385 . S
C3370 H3351 0.951 . S
C3370 C3368 1.388 . S
C3370 C3371 1.366 . S
C3371 C3370 1.366 . S
C3371 C3372 1.414 . S
C3371 C3374 1.499 . S
C3372 H3352 0.950 . S
C3372 C3371 1.414 . S
C3372 C3373 1.374 . S
C3373 H3353 0.950 . S
C3373 C3369 1.385 . S
C3373 C3372 1.374 . S
C3374 C3371 1.499 . S
C3374 C3375 1.373 . S
C3374 C3376 1.389 . S
C3375 H3354 0.950 . S
C3375 C3374 1.373 . S
C3375 C3391 1.377 . S
C3376 C3374 1.389 . S
C3376 C3377 1.524 . S
C3376 C3390 1.377 . S
C3377 C3376 1.524 . S
C3377 C3378 1.397 . S
C3377 C3382 1.363 . S
C3378 H3355 0.950 . S
C3378 C3377 1.397 . S
C3378 C3379 1.334 . S
C3379 H3356 0.950 . S
C3379 C3378 1.334 . S
C3379 C3380 1.287 . S
C3380 C3379 1.287 . S
C3380 C3381 1.524 . S
C3380 H3399 0.913 . S
C3381 H3357 0.950 . S
C3381 C3380 1.524 . S
C3381 C3382 1.415 . S
C3382 H3358 0.950 . S
C3382 C3377 1.363 . S
C3382 C3381 1.415 . S
C3383 H3359 0.951 . S
C3383 C3384 1.366 . S
C3383 C3385 1.388 . S
C3384 C3383 1.366 . S
C3384 C3388 1.385 . S
C3385 H3360 0.951 . S
C3385 C3383 1.388 . S
C3385 C3386 1.366 . S
C3386 C3385 1.366 . S
C3386 C3387 1.414 . S
C3386 C3389 1.499 . S
C3387 H3361 0.950 . S
C3387 C3386 1.414 . S
C3387 C3388 1.374 . S
C3388 H3362 0.950 . S
C3388 C3384 1.385 . S
C3388 C3387 1.374 . S
C3389 C3386 1.499 . S
C3389 C3390 1.373 . S
C3389 C3391 1.389 . S
C3390 H3363 0.950 . S
C3390 C3376 1.377 . S
C3390 C3389 1.373 . S
C3391 C3375 1.377 . S
C3391 C3389 1.389 . S
C3391 C3392 1.524 . S
C3392 C3391 1.524 . S
C3392 C3393 1.397 . S
C3392 C3397 1.363 . S
C3393 H3364 0.950 . S
C3393 C3392 1.397 . S
C3393 C3394 1.334 . S
C3394 H3365 0.950 . S
C3394 C3393 1.334 . S
C3394 C3395 1.287 . S
C3395 C3394 1.287 . S
C3395 C3396 1.524 . S
C3395 H3398 0.999 . S
C3396 H3366 0.950 . S
C3396 C3395 1.524 . S
C3396 C3397 1.415 . S
C3397 H3367 0.950 . S
C3397 C3392 1.363 . S
C3397 C3396 1.415 . S
H3398 C3395 0.999 . S
H3399 C3380 0.913 . S
H3400 C3418 0.951 . S
H3401 C3420 0.951 . S
H3402 C3422 0.950 . S
H3403 C3423 0.950 . S
H3404 C3425 0.950 . S
H3405 C3428 0.950 . S
H3406 C3429 0.950 . S
H3407 C3431 0.950 . S
H3408 C3432 0.950 . S
H3409 C3433 0.951 . S
H3410 C3435 0.951 . S
H3411 C3437 0.950 . S
H3412 C3438 0.950 . S
H3413 C3440 0.950 . S
H3414 C3443 0.950 . S
H3415 C3444 0.950 . S
H3416 C3446 0.950 . S
H3417 C3447 0.950 . S
C3418 H3400 0.951 . S
C3418 C3419 1.366 . S
C3418 C3420 1.388 . S
C3419 C3418 1.366 . S
C3419 C3423 1.385 . S
C3420 H3401 0.951 . S
C3420 C3418 1.388 . S
C3420 C3421 1.366 . S
C3421 C3420 1.366 . S
C3421 C3422 1.414 . S
C3421 C3424 1.499 . S
C3422 H3402 0.950 . S
C3422 C3421 1.414 . S
C3422 C3423 1.374 . S
C3423 H3403 0.950 . S
C3423 C3419 1.385 . S
C3423 C3422 1.374 . S
C3424 C3421 1.499 . S
C3424 C3425 1.373 . S
C3424 C3426 1.389 . S
C3425 H3404 0.950 . S
C3425 C3424 1.373 . S
C3425 C3441 1.377 . S
C3426 C3424 1.389 . S
C3426 C3427 1.524 . S
C3426 C3440 1.377 . S
C3427 C3426 1.524 . S
C3427 C3428 1.397 . S
C3427 C3432 1.363 . S
C3428 H3405 0.950 . S
C3428 C3427 1.397 . S
C3428 C3429 1.334 . S
C3429 H3406 0.950 . S
C3429 C3428 1.334 . S
C3429 C3430 1.287 . S
C3430 C3429 1.287 . S
C3430 C3431 1.524 . S
C3430 H3449 0.913 . S
C3431 H3407 0.950 . S
C3431 C3430 1.524 . S
C3431 C3432 1.415 . S
C3432 H3408 0.950 . S
C3432 C3427 1.363 . S
C3432 C3431 1.415 . S
C3433 H3409 0.951 . S
C3433 C3434 1.366 . S
C3433 C3435 1.388 . S
C3434 C3433 1.366 . S
C3434 C3438 1.385 . S
C3435 H3410 0.951 . S
C3435 C3433 1.388 . S
C3435 C3436 1.366 . S
C3436 C3435 1.366 . S
C3436 C3437 1.414 . S
C3436 C3439 1.499 . S
C3437 H3411 0.950 . S
C3437 C3436 1.414 . S
C3437 C3438 1.374 . S
C3438 H3412 0.950 . S
C3438 C3434 1.385 . S
C3438 C3437 1.374 . S
C3439 C3436 1.499 . S
C3439 C3440 1.373 . S
C3439 C3441 1.389 . S
C3440 H3413 0.950 . S
C3440 C3426 1.377 . S
C3440 C3439 1.373 . S
C3441 C3425 1.377 . S
C3441 C3439 1.389 . S
C3441 C3442 1.524 . S
C3442 C3441 1.524 . S
C3442 C3443 1.397 . S
C3442 C3447 1.363 . S
C3443 H3414 0.950 . S
C3443 C3442 1.397 . S
C3443 C3444 1.334 . S
C3444 H3415 0.950 . S
C3444 C3443 1.334 . S
C3444 C3445 1.287 . S
C3445 C3444 1.287 . S
C3445 C3446 1.524 . S
C3445 H3448 0.999 . S
C3446 H3416 0.950 . S
C3446 C3445 1.524 . S
C3446 C3447 1.415 . S
C3447 H3417 0.950 . S
C3447 C3442 1.363 . S
C3447 C3446 1.415 . S
H3448 C3445 0.999 . S
H3449 C3430 0.913 . S
H3450 C3468 0.951 . S
H3451 C3470 0.951 . S
H3452 C3472 0.950 . S
H3453 C3473 0.950 . S
H3454 C3475 0.950 . S
H3455 C3478 0.950 . S
H3456 C3479 0.950 . S
H3457 C3481 0.950 . S
H3458 C3482 0.950 . S
H3459 C3483 0.951 . S
H3460 C3485 0.951 . S
H3461 C3487 0.950 . S
H3462 C3488 0.950 . S
H3463 C3490 0.950 . S
H3464 C3493 0.950 . S
H3465 C3494 0.950 . S
H3466 C3496 0.950 . S
H3467 C3497 0.950 . S
C3468 H3450 0.951 . S
C3468 C3469 1.366 . S
C3468 C3470 1.388 . S
C3469 C3468 1.366 . S
C3469 C3473 1.385 . S
C3470 H3451 0.951 . S
C3470 C3468 1.388 . S
C3470 C3471 1.366 . S
C3471 C3470 1.366 . S
C3471 C3472 1.414 . S
C3471 C3474 1.499 . S
C3472 H3452 0.950 . S
C3472 C3471 1.414 . S
C3472 C3473 1.374 . S
C3473 H3453 0.950 . S
C3473 C3469 1.385 . S
C3473 C3472 1.374 . S
C3474 C3471 1.499 . S
C3474 C3475 1.373 . S
C3474 C3476 1.389 . S
C3475 H3454 0.950 . S
C3475 C3474 1.373 . S
C3475 C3491 1.377 . S
C3476 C3474 1.389 . S
C3476 C3477 1.524 . S
C3476 C3490 1.377 . S
C3477 C3476 1.524 . S
C3477 C3478 1.397 . S
C3477 C3482 1.363 . S
C3478 H3455 0.950 . S
C3478 C3477 1.397 . S
C3478 C3479 1.334 . S
C3479 H3456 0.950 . S
C3479 C3478 1.334 . S
C3479 C3480 1.287 . S
C3480 C3479 1.287 . S
C3480 C3481 1.524 . S
C3480 H3499 0.913 . S
C3481 H3457 0.950 . S
C3481 C3480 1.524 . S
C3481 C3482 1.415 . S
C3482 H3458 0.950 . S
C3482 C3477 1.363 . S
C3482 C3481 1.415 . S
C3483 H3459 0.951 . S
C3483 C3484 1.366 . S
C3483 C3485 1.388 . S
C3484 C3483 1.366 . S
C3484 C3488 1.385 . S
C3485 H3460 0.951 . S
C3485 C3483 1.388 . S
C3485 C3486 1.366 . S
C3486 C3485 1.366 . S
C3486 C3487 1.414 . S
C3486 C3489 1.499 . S
C3487 H3461 0.950 . S
C3487 C3486 1.414 . S
C3487 C3488 1.374 . S
C3488 H3462 0.950 . S
C3488 C3484 1.385 . S
C3488 C3487 1.374 . S
C3489 C3486 1.499 . S
C3489 C3490 1.373 . S
C3489 C3491 1.389 . S
C3490 H3463 0.950 . S
C3490 C3476 1.377 . S
C3490 C3489 1.373 . S
C3491 C3475 1.377 . S
C3491 C3489 1.389 . S
C3491 C3492 1.524 . S
C3492 C3491 1.524 . S
C3492 C3493 1.397 . S
C3492 C3497 1.363 . S
C3493 H3464 0.950 . S
C3493 C3492 1.397 . S
C3493 C3494 1.334 . S
C3494 H3465 0.950 . S
C3494 C3493 1.334 . S
C3494 C3495 1.287 . S
C3495 C3494 1.287 . S
C3495 C3496 1.524 . S
C3495 H3498 0.999 . S
C3496 H3466 0.950 . S
C3496 C3495 1.524 . S
C3496 C3497 1.415 . S
C3497 H3467 0.950 . S
C3497 C3492 1.363 . S
C3497 C3496 1.415 . S
H3498 C3495 0.999 . S
H3499 C3480 0.913 . S
H3500 C3518 0.951 . S
H3501 C3520 0.951 . S
H3502 C3522 0.950 . S
H3503 C3523 0.950 . S
H3504 C3525 0.950 . S
H3505 C3528 0.950 . S
H3506 C3529 0.950 . S
H3507 C3531 0.950 . S
H3508 C3532 0.950 . S
H3509 C3533 0.951 . S
H3510 C3535 0.951 . S
H3511 C3537 0.950 . S
H3512 C3538 0.950 . S
H3513 C3540 0.950 . S
H3514 C3543 0.950 . S
H3515 C3544 0.950 . S
H3516 C3546 0.950 . S
H3517 C3547 0.950 . S
C3518 H3500 0.951 . S
C3518 C3519 1.366 . S
C3518 C3520 1.388 . S
C3519 C3518 1.366 . S
C3519 C3523 1.385 . S
C3520 H3501 0.951 . S
C3520 C3518 1.388 . S
C3520 C3521 1.366 . S
C3521 C3520 1.366 . S
C3521 C3522 1.414 . S
C3521 C3524 1.499 . S
C3522 H3502 0.950 . S
C3522 C3521 1.414 . S
C3522 C3523 1.374 . S
C3523 H3503 0.950 . S
C3523 C3519 1.385 . S
C3523 C3522 1.374 . S
C3524 C3521 1.499 . S
C3524 C3525 1.373 . S
C3524 C3526 1.389 . S
C3525 H3504 0.950 . S
C3525 C3524 1.373 . S
C3525 C3541 1.377 . S
C3526 C3524 1.389 . S
C3526 C3527 1.524 . S
C3526 C3540 1.377 . S
C3527 C3526 1.524 . S
C3527 C3528 1.397 . S
C3527 C3532 1.363 . S
C3528 H3505 0.950 . S
C3528 C3527 1.397 . S
C3528 C3529 1.334 . S
C3529 H3506 0.950 . S
C3529 C3528 1.334 . S
C3529 C3530 1.287 . S
C3530 C3529 1.287 . S
C3530 C3531 1.524 . S
C3530 H3549 0.913 . S
C3531 H3507 0.950 . S
C3531 C3530 1.524 . S
C3531 C3532 1.415 . S
C3532 H3508 0.950 . S
C3532 C3527 1.363 . S
C3532 C3531 1.415 . S
C3533 H3509 0.951 . S
C3533 C3534 1.366 . S
C3533 C3535 1.388 . S
C3534 C3533 1.366 . S
C3534 C3538 1.385 . S
C3535 H3510 0.951 . S
C3535 C3533 1.388 . S
C3535 C3536 1.366 . S
C3536 C3535 1.366 . S
C3536 C3537 1.414 . S
C3536 C3539 1.499 . S
C3537 H3511 0.950 . S
C3537 C3536 1.414 . S
C3537 C3538 1.374 . S
C3538 H3512 0.950 . S
C3538 C3534 1.385 . S
C3538 C3537 1.374 . S
C3539 C3536 1.499 . S
C3539 C3540 1.373 . S
C3539 C3541 1.389 . S
C3540 H3513 0.950 . S
C3540 C3526 1.377 . S
C3540 C3539 1.373 . S
C3541 C3525 1.377 . S
C3541 C3539 1.389 . S
C3541 C3542 1.524 . S
C3542 C3541 1.524 . S
C3542 C3543 1.397 . S
C3542 C3547 1.363 . S
C3543 H3514 0.950 . S
C3543 C3542 1.397 . S
C3543 C3544 1.334 . S
C3544 H3515 0.950 . S
C3544 C3543 1.334 . S
C3544 C3545 1.287 . S
C3545 C3544 1.287 . S
C3545 C3546 1.524 . S
C3545 H3548 0.999 . S
C3546 H3516 0.950 . S
C3546 C3545 1.524 . S
C3546 C3547 1.415 . S
C3547 H3517 0.950 . S
C3547 C3542 1.363 . S
C3547 C3546 1.415 . S
H3548 C3545 0.999 . S
H3549 C3530 0.913 . S
H3550 C3568 0.951 . S
H3551 C3570 0.951 . S
H3552 C3572 0.950 . S
H3553 C3573 0.950 . S
H3554 C3575 0.950 . S
H3555 C3578 0.950 . S
H3556 C3579 0.950 . S
H3557 C3581 0.950 1_545 S
H3558 C3582 0.950 . S
H3559 C3583 0.951 . S
H3560 C3585 0.951 . S
H3561 C3587 0.950 . S
H3562 C3588 0.950 . S
H3563 C3590 0.950 . S
H3564 C3593 0.950 . S
H3565 C3594 0.950 . S
H3566 C3596 0.950 . S
H3567 C3597 0.950 . S
C3568 H3550 0.951 . S
C3568 C3569 1.366 . S
C3568 C3570 1.388 . S
C3569 C3568 1.366 . S
C3569 C3573 1.385 . S
C3570 H3551 0.951 . S
C3570 C3568 1.388 . S
C3570 C3571 1.366 . S
C3571 C3570 1.366 . S
C3571 C3572 1.414 . S
C3571 C3574 1.499 . S
C3572 H3552 0.950 . S
C3572 C3571 1.414 . S
C3572 C3573 1.374 . S
C3573 H3553 0.950 . S
C3573 C3569 1.385 . S
C3573 C3572 1.374 . S
C3574 C3571 1.499 . S
C3574 C3575 1.373 . S
C3574 C3576 1.389 . S
C3575 H3554 0.950 . S
C3575 C3574 1.373 . S
C3575 C3591 1.377 . S
C3576 C3574 1.389 . S
C3576 C3577 1.524 . S
C3576 C3590 1.377 . S
C3577 C3576 1.524 . S
C3577 C3578 1.397 . S
C3577 C3582 1.363 . S
C3578 H3555 0.950 . S
C3578 C3577 1.397 . S
C3578 C3579 1.334 . S
C3579 H3556 0.950 . S
C3579 C3578 1.334 . S
C3579 C3580 1.287 1_565 S
C3580 C3579 1.287 1_545 S
C3580 C3581 1.524 1_545 S
C3580 H3599 0.913 . S
C3581 H3557 0.950 1_565 S
C3581 C3580 1.524 1_565 S
C3581 C3582 1.415 . S
C3582 H3558 0.950 . S
C3582 C3577 1.363 . S
C3582 C3581 1.415 . S
C3583 H3559 0.951 . S
C3583 C3584 1.366 . S
C3583 C3585 1.388 . S
C3584 C3583 1.366 . S
C3584 C3588 1.385 . S
C3585 H3560 0.951 . S
C3585 C3583 1.388 . S
C3585 C3586 1.366 . S
C3586 C3585 1.366 . S
C3586 C3587 1.414 . S
C3586 C3589 1.499 . S
C3587 H3561 0.950 . S
C3587 C3586 1.414 . S
C3587 C3588 1.374 . S
C3588 H3562 0.950 . S
C3588 C3584 1.385 . S
C3588 C3587 1.374 . S
C3589 C3586 1.499 . S
C3589 C3590 1.373 . S
C3589 C3591 1.389 . S
C3590 H3563 0.950 . S
C3590 C3576 1.377 . S
C3590 C3589 1.373 . S
C3591 C3575 1.377 . S
C3591 C3589 1.389 . S
C3591 C3592 1.524 . S
C3592 C3591 1.524 . S
C3592 C3593 1.397 . S
C3592 C3597 1.363 . S
C3593 H3564 0.950 . S
C3593 C3592 1.397 . S
C3593 C3594 1.334 . S
C3594 H3565 0.950 . S
C3594 C3593 1.334 . S
C3594 C3595 1.287 . S
C3595 C3594 1.287 . S
C3595 C3596 1.524 . S
C3595 H3598 0.999 . S
C3596 H3566 0.950 . S
C3596 C3595 1.524 . S
C3596 C3597 1.415 . S
C3597 H3567 0.950 . S
C3597 C3592 1.363 . S
C3597 C3596 1.415 . S
H3598 C3595 0.999 . S
H3599 C3580 0.913 . S
H3600 C3618 0.951 . S
H3601 C3620 0.951 . S
H3602 C3622 0.950 . S
H3603 C3623 0.950 . S
H3604 C3625 0.950 . S
H3605 C3628 0.950 . S
H3606 C3629 0.950 . S
H3607 C3631 0.950 . S
H3608 C3632 0.950 . S
H3609 C3633 0.951 . S
H3610 C3635 0.951 . S
H3611 C3637 0.950 . S
H3612 C3638 0.950 . S
H3613 C3640 0.950 . S
H3614 C3643 0.950 . S
H3615 C3644 0.950 . S
H3616 C3646 0.950 . S
H3617 C3647 0.950 . S
C3618 H3600 0.951 . S
C3618 C3619 1.366 . S
C3618 C3620 1.388 . S
C3619 C3618 1.366 . S
C3619 C3623 1.385 . S
C3620 H3601 0.951 . S
C3620 C3618 1.388 . S
C3620 C3621 1.366 . S
C3621 C3620 1.366 . S
C3621 C3622 1.414 . S
C3621 C3624 1.499 . S
C3622 H3602 0.950 . S
C3622 C3621 1.414 . S
C3622 C3623 1.374 . S
C3623 H3603 0.950 . S
C3623 C3619 1.385 . S
C3623 C3622 1.374 . S
C3624 C3621 1.499 . S
C3624 C3625 1.373 . S
C3624 C3626 1.389 . S
C3625 H3604 0.950 . S
C3625 C3624 1.373 . S
C3625 C3641 1.377 . S
C3626 C3624 1.389 . S
C3626 C3627 1.524 . S
C3626 C3640 1.377 . S
C3627 C3626 1.524 . S
C3627 C3628 1.397 . S
C3627 C3632 1.363 . S
C3628 H3605 0.950 . S
C3628 C3627 1.397 . S
C3628 C3629 1.334 . S
C3629 H3606 0.950 . S
C3629 C3628 1.334 . S
C3629 C3630 1.287 . S
C3630 C3629 1.287 . S
C3630 C3631 1.524 . S
C3630 H3649 0.913 . S
C3631 H3607 0.950 . S
C3631 C3630 1.524 . S
C3631 C3632 1.415 . S
C3632 H3608 0.950 . S
C3632 C3627 1.363 . S
C3632 C3631 1.415 . S
C3633 H3609 0.951 . S
C3633 C3634 1.366 . S
C3633 C3635 1.388 . S
C3634 C3633 1.366 . S
C3634 C3638 1.385 . S
C3635 H3610 0.951 . S
C3635 C3633 1.388 . S
C3635 C3636 1.366 . S
C3636 C3635 1.366 . S
C3636 C3637 1.414 . S
C3636 C3639 1.499 . S
C3637 H3611 0.950 . S
C3637 C3636 1.414 . S
C3637 C3638 1.374 . S
C3638 H3612 0.950 . S
C3638 C3634 1.385 . S
C3638 C3637 1.374 . S
C3639 C3636 1.499 . S
C3639 C3640 1.373 . S
C3639 C3641 1.389 . S
C3640 H3613 0.950 . S
C3640 C3626 1.377 . S
C3640 C3639 1.373 . S
C3641 C3625 1.377 . S
C3641 C3639 1.389 . S
C3641 C3642 1.524 . S
C3642 C3641 1.524 . S
C3642 C3643 1.397 . S
C3642 C3647 1.363 . S
C3643 H3614 0.950 . S
C3643 C3642 1.397 . S
C3643 C3644 1.334 . S
C3644 H3615 0.950 . S
C3644 C3643 1.334 . S
C3644 C3645 1.287 . S
C3645 C3644 1.287 . S
C3645 C3646 1.524 . S
C3645 H3648 0.999 . S
C3646 H3616 0.950 . S
C3646 C3645 1.524 . S
C3646 C3647 1.415 . S
C3647 H3617 0.950 . S
C3647 C3642 1.363 . S
C3647 C3646 1.415 . S
H3648 C3645 0.999 . S
H3649 C3630 0.913 . S
H3650 C3668 0.951 . S
H3651 C3670 0.951 . S
H3652 C3672 0.950 . S
H3653 C3673 0.950 . S
H3654 C3675 0.950 . S
H3655 C3678 0.950 . S
H3656 C3679 0.950 . S
H3657 C3681 0.950 . S
H3658 C3682 0.950 . S
H3659 C3683 0.951 . S
H3660 C3685 0.951 . S
H3661 C3687 0.950 . S
H3662 C3688 0.950 . S
H3663 C3690 0.950 . S
H3664 C3693 0.950 . S
H3665 C3694 0.950 . S
H3666 C3696 0.950 . S
H3667 C3697 0.950 . S
C3668 H3650 0.951 . S
C3668 C3669 1.366 . S
C3668 C3670 1.388 . S
C3669 C3668 1.366 . S
C3669 C3673 1.385 . S
C3670 H3651 0.951 . S
C3670 C3668 1.388 . S
C3670 C3671 1.366 . S
C3671 C3670 1.366 . S
C3671 C3672 1.414 . S
C3671 C3674 1.499 . S
C3672 H3652 0.950 . S
C3672 C3671 1.414 . S
C3672 C3673 1.374 . S
C3673 H3653 0.950 . S
C3673 C3669 1.385 . S
C3673 C3672 1.374 . S
C3674 C3671 1.499 . S
C3674 C3675 1.373 . S
C3674 C3676 1.389 . S
C3675 H3654 0.950 . S
C3675 C3674 1.373 . S
C3675 C3691 1.377 . S
C3676 C3674 1.389 . S
C3676 C3677 1.524 . S
C3676 C3690 1.377 . S
C3677 C3676 1.524 . S
C3677 C3678 1.397 . S
C3677 C3682 1.363 . S
C3678 H3655 0.950 . S
C3678 C3677 1.397 . S
C3678 C3679 1.334 . S
C3679 H3656 0.950 . S
C3679 C3678 1.334 . S
C3679 C3680 1.287 . S
C3680 C3679 1.287 . S
C3680 C3681 1.524 . S
C3680 H3699 0.913 1_455 S
C3681 H3657 0.950 . S
C3681 C3680 1.524 . S
C3681 C3682 1.415 . S
C3682 H3658 0.950 . S
C3682 C3677 1.363 . S
C3682 C3681 1.415 . S
C3683 H3659 0.951 . S
C3683 C3684 1.366 . S
C3683 C3685 1.388 . S
C3684 C3683 1.366 . S
C3684 C3688 1.385 . S
C3685 H3660 0.951 . S
C3685 C3683 1.388 . S
C3685 C3686 1.366 . S
C3686 C3685 1.366 . S
C3686 C3687 1.414 . S
C3686 C3689 1.499 . S
C3687 H3661 0.950 . S
C3687 C3686 1.414 . S
C3687 C3688 1.374 . S
C3688 H3662 0.950 . S
C3688 C3684 1.385 . S
C3688 C3687 1.374 . S
C3689 C3686 1.499 . S
C3689 C3690 1.373 . S
C3689 C3691 1.389 . S
C3690 H3663 0.950 . S
C3690 C3676 1.377 . S
C3690 C3689 1.373 . S
C3691 C3675 1.377 . S
C3691 C3689 1.389 . S
C3691 C3692 1.524 . S
C3692 C3691 1.524 . S
C3692 C3693 1.397 . S
C3692 C3697 1.363 . S
C3693 H3664 0.950 . S
C3693 C3692 1.397 . S
C3693 C3694 1.334 . S
C3694 H3665 0.950 . S
C3694 C3693 1.334 . S
C3694 C3695 1.287 . S
C3695 C3694 1.287 . S
C3695 C3696 1.524 . S
C3695 H3698 0.999 . S
C3696 H3666 0.950 . S
C3696 C3695 1.524 . S
C3696 C3697 1.415 . S
C3697 H3667 0.950 . S
C3697 C3692 1.363 . S
C3697 C3696 1.415 . S
H3698 C3695 0.999 . S
H3699 C3680 0.913 1_655 S
H3700 C3718 0.951 . S
H3701 C3720 0.951 . S
H3702 C3722 0.950 . S
H3703 C3723 0.950 . S
H3704 C3725 0.950 . S
H3705 C3728 0.950 . S
H3706 C3729 0.950 . S
H3707 C3731 0.950 . S
H3708 C3732 0.950 . S
H3709 C3733 0.951 . S
H3710 C3735 0.951 . S
H3711 C3737 0.950 . S
H3712 C3738 0.950 . S
H3713 C3740 0.950 . S
H3714 C3743 0.950 . S
H3715 C3744 0.950 . S
H3716 C3746 0.950 . S
H3717 C3747 0.950 . S
C3718 H3700 0.951 . S
C3718 C3719 1.366 . S
C3718 C3720 1.388 . S
C3719 C3718 1.366 . S
C3719 C3723 1.385 . S
C3720 H3701 0.951 . S
C3720 C3718 1.388 . S
C3720 C3721 1.366 . S
C3721 C3720 1.366 . S
C3721 C3722 1.414 . S
C3721 C3724 1.499 . S
C3722 H3702 0.950 . S
C3722 C3721 1.414 . S
C3722 C3723 1.374 . S
C3723 H3703 0.950 . S
C3723 C3719 1.385 . S
C3723 C3722 1.374 . S
C3724 C3721 1.499 . S
C3724 C3725 1.373 . S
C3724 C3726 1.389 . S
C3725 H3704 0.950 . S
C3725 C3724 1.373 . S
C3725 C3741 1.377 . S
C3726 C3724 1.389 . S
C3726 C3727 1.524 . S
C3726 C3740 1.377 . S
C3727 C3726 1.524 . S
C3727 C3728 1.397 . S
C3727 C3732 1.363 . S
C3728 H3705 0.950 . S
C3728 C3727 1.397 . S
C3728 C3729 1.334 . S
C3729 H3706 0.950 . S
C3729 C3728 1.334 . S
C3729 C3730 1.287 . S
C3730 C3729 1.287 . S
C3730 C3731 1.524 . S
C3730 H3749 0.913 . S
C3731 H3707 0.950 . S
C3731 C3730 1.524 . S
C3731 C3732 1.415 . S
C3732 H3708 0.950 . S
C3732 C3727 1.363 . S
C3732 C3731 1.415 . S
C3733 H3709 0.951 . S
C3733 C3734 1.366 . S
C3733 C3735 1.388 . S
C3734 C3733 1.366 . S
C3734 C3738 1.385 . S
C3735 H3710 0.951 . S
C3735 C3733 1.388 . S
C3735 C3736 1.366 . S
C3736 C3735 1.366 . S
C3736 C3737 1.414 . S
C3736 C3739 1.499 . S
C3737 H3711 0.950 . S
C3737 C3736 1.414 . S
C3737 C3738 1.374 . S
C3738 H3712 0.950 . S
C3738 C3734 1.385 . S
C3738 C3737 1.374 . S
C3739 C3736 1.499 . S
C3739 C3740 1.373 . S
C3739 C3741 1.389 . S
C3740 H3713 0.950 . S
C3740 C3726 1.377 . S
C3740 C3739 1.373 . S
C3741 C3725 1.377 . S
C3741 C3739 1.389 . S
C3741 C3742 1.524 . S
C3742 C3741 1.524 . S
C3742 C3743 1.397 . S
C3742 C3747 1.363 . S
C3743 H3714 0.950 . S
C3743 C3742 1.397 . S
C3743 C3744 1.334 . S
C3744 H3715 0.950 . S
C3744 C3743 1.334 . S
C3744 C3745 1.287 . S
C3745 C3744 1.287 . S
C3745 C3746 1.524 . S
C3745 H3748 0.999 . S
C3746 H3716 0.950 . S
C3746 C3745 1.524 . S
C3746 C3747 1.415 . S
C3747 H3717 0.950 . S
C3747 C3742 1.363 . S
C3747 C3746 1.415 . S
H3748 C3745 0.999 . S
H3749 C3730 0.913 . S
H3750 C3768 0.951 . S
H3751 C3770 0.951 . S
H3752 C3772 0.950 . S
H3753 C3773 0.950 . S
H3754 C3775 0.950 . S
H3755 C3778 0.950 . S
H3756 C3779 0.950 . S
H3757 C3781 0.950 . S
H3758 C3782 0.950 . S
H3759 C3783 0.951 . S
H3760 C3785 0.951 . S
H3761 C3787 0.950 . S
H3762 C3788 0.950 . S
H3763 C3790 0.950 . S
H3764 C3793 0.950 . S
H3765 C3794 0.950 . S
H3766 C3796 0.950 . S
H3767 C3797 0.950 . S
C3768 H3750 0.951 . S
C3768 C3769 1.366 . S
C3768 C3770 1.388 . S
C3769 C3768 1.366 . S
C3769 C3773 1.385 . S
C3770 H3751 0.951 . S
C3770 C3768 1.388 . S
C3770 C3771 1.366 . S
C3771 C3770 1.366 . S
C3771 C3772 1.414 . S
C3771 C3774 1.499 . S
C3772 H3752 0.950 . S
C3772 C3771 1.414 . S
C3772 C3773 1.374 . S
C3773 H3753 0.950 . S
C3773 C3769 1.385 . S
C3773 C3772 1.374 . S
C3774 C3771 1.499 . S
C3774 C3775 1.373 . S
C3774 C3776 1.389 . S
C3775 H3754 0.950 . S
C3775 C3774 1.373 . S
C3775 C3791 1.377 . S
C3776 C3774 1.389 . S
C3776 C3777 1.524 . S
C3776 C3790 1.377 . S
C3777 C3776 1.524 . S
C3777 C3778 1.397 . S
C3777 C3782 1.363 . S
C3778 H3755 0.950 . S
C3778 C3777 1.397 . S
C3778 C3779 1.334 . S
C3779 H3756 0.950 . S
C3779 C3778 1.334 . S
C3779 C3780 1.287 . S
C3780 C3779 1.287 . S
C3780 C3781 1.524 . S
C3780 H3799 0.913 . S
C3781 H3757 0.950 . S
C3781 C3780 1.524 . S
C3781 C3782 1.415 . S
C3782 H3758 0.950 . S
C3782 C3777 1.363 . S
C3782 C3781 1.415 . S
C3783 H3759 0.951 . S
C3783 C3784 1.366 . S
C3783 C3785 1.388 . S
C3784 C3783 1.366 . S
C3784 C3788 1.385 . S
C3785 H3760 0.951 . S
C3785 C3783 1.388 . S
C3785 C3786 1.366 . S
C3786 C3785 1.366 . S
C3786 C3787 1.414 . S
C3786 C3789 1.499 . S
C3787 H3761 0.950 . S
C3787 C3786 1.414 . S
C3787 C3788 1.374 . S
C3788 H3762 0.950 . S
C3788 C3784 1.385 . S
C3788 C3787 1.374 . S
C3789 C3786 1.499 . S
C3789 C3790 1.373 . S
C3789 C3791 1.389 . S
C3790 H3763 0.950 . S
C3790 C3776 1.377 . S
C3790 C3789 1.373 . S
C3791 C3775 1.377 . S
C3791 C3789 1.389 . S
C3791 C3792 1.524 . S
C3792 C3791 1.524 . S
C3792 C3793 1.397 . S
C3792 C3797 1.363 . S
C3793 H3764 0.950 . S
C3793 C3792 1.397 . S
C3793 C3794 1.334 . S
C3794 H3765 0.950 . S
C3794 C3793 1.334 . S
C3794 C3795 1.287 . S
C3795 C3794 1.287 . S
C3795 C3796 1.524 . S
C3795 H3798 0.999 . S
C3796 H3766 0.950 . S
C3796 C3795 1.524 . S
C3796 C3797 1.415 . S
C3797 H3767 0.950 . S
C3797 C3792 1.363 . S
C3797 C3796 1.415 . S
H3798 C3795 0.999 . S
H3799 C3780 0.913 . S
H3800 C3818 0.951 . S
H3801 C3820 0.951 . S
H3802 C3822 0.950 . S
H3803 C3823 0.950 . S
H3804 C3825 0.950 . S
H3805 C3828 0.950 . S
H3806 C3829 0.950 . S
H3807 C3831 0.950 . S
H3808 C3832 0.950 . S
H3809 C3833 0.951 . S
H3810 C3835 0.951 . S
H3811 C3837 0.950 . S
H3812 C3838 0.950 . S
H3813 C3840 0.950 . S
H3814 C3843 0.950 . S
H3815 C3844 0.950 . S
H3816 C3846 0.950 . S
H3817 C3847 0.950 . S
C3818 H3800 0.951 . S
C3818 C3819 1.366 . S
C3818 C3820 1.388 . S
C3819 C3818 1.366 . S
C3819 C3823 1.385 . S
C3820 H3801 0.951 . S
C3820 C3818 1.388 . S
C3820 C3821 1.366 . S
C3821 C3820 1.366 . S
C3821 C3822 1.414 . S
C3821 C3824 1.499 . S
C3822 H3802 0.950 . S
C3822 C3821 1.414 . S
C3822 C3823 1.374 . S
C3823 H3803 0.950 . S
C3823 C3819 1.385 . S
C3823 C3822 1.374 . S
C3824 C3821 1.499 . S
C3824 C3825 1.373 . S
C3824 C3826 1.389 . S
C3825 H3804 0.950 . S
C3825 C3824 1.373 . S
C3825 C3841 1.377 . S
C3826 C3824 1.389 . S
C3826 C3827 1.524 . S
C3826 C3840 1.377 . S
C3827 C3826 1.524 . S
C3827 C3828 1.397 . S
C3827 C3832 1.363 . S
C3828 H3805 0.950 . S
C3828 C3827 1.397 . S
C3828 C3829 1.334 . S
C3829 H3806 0.950 . S
C3829 C3828 1.334 . S
C3829 C3830 1.287 . S
C3830 C3829 1.287 . S
C3830 C3831 1.524 . S
C3830 H3849 0.913 . S
C3831 H3807 0.950 . S
C3831 C3830 1.524 . S
C3831 C3832 1.415 . S
C3832 H3808 0.950 . S
C3832 C3827 1.363 . S
C3832 C3831 1.415 . S
C3833 H3809 0.951 . S
C3833 C3834 1.366 . S
C3833 C3835 1.388 . S
C3834 C3833 1.366 . S
C3834 C3838 1.385 . S
C3835 H3810 0.951 . S
C3835 C3833 1.388 . S
C3835 C3836 1.366 . S
C3836 C3835 1.366 . S
C3836 C3837 1.414 . S
C3836 C3839 1.499 . S
C3837 H3811 0.950 . S
C3837 C3836 1.414 . S
C3837 C3838 1.374 . S
C3838 H3812 0.950 . S
C3838 C3834 1.385 . S
C3838 C3837 1.374 . S
C3839 C3836 1.499 . S
C3839 C3840 1.373 . S
C3839 C3841 1.389 . S
C3840 H3813 0.950 . S
C3840 C3826 1.377 . S
C3840 C3839 1.373 . S
C3841 C3825 1.377 . S
C3841 C3839 1.389 . S
C3841 C3842 1.524 . S
C3842 C3841 1.524 . S
C3842 C3843 1.397 . S
C3842 C3847 1.363 . S
C3843 H3814 0.950 . S
C3843 C3842 1.397 . S
C3843 C3844 1.334 . S
C3844 H3815 0.950 . S
C3844 C3843 1.334 . S
C3844 C3845 1.287 . S
C3845 C3844 1.287 . S
C3845 C3846 1.524 . S
C3845 H3848 0.999 . S
C3846 H3816 0.950 . S
C3846 C3845 1.524 . S
C3846 C3847 1.415 . S
C3847 H3817 0.950 . S
C3847 C3842 1.363 . S
C3847 C3846 1.415 . S
H3848 C3845 0.999 . S
H3849 C3830 0.913 . S
H3850 C3868 0.951 . S
H3851 C3870 0.951 . S
H3852 C3872 0.950 . S
H3853 C3873 0.950 . S
H3854 C3875 0.950 . S
H3855 C3878 0.950 . S
H3856 C3879 0.950 . S
H3857 C3881 0.950 . S
H3858 C3882 0.950 . S
H3859 C3883 0.951 . S
H3860 C3885 0.951 . S
H3861 C3887 0.950 . S
H3862 C3888 0.950 . S
H3863 C3890 0.950 . S
H3864 C3893 0.950 . S
H3865 C3894 0.950 . S
H3866 C3896 0.950 . S
H3867 C3897 0.950 . S
C3868 H3850 0.951 . S
C3868 C3869 1.366 . S
C3868 C3870 1.388 . S
C3869 C3868 1.366 . S
C3869 C3873 1.385 . S
C3870 H3851 0.951 . S
C3870 C3868 1.388 . S
C3870 C3871 1.366 . S
C3871 C3870 1.366 . S
C3871 C3872 1.414 . S
C3871 C3874 1.499 . S
C3872 H3852 0.950 . S
C3872 C3871 1.414 . S
C3872 C3873 1.374 . S
C3873 H3853 0.950 . S
C3873 C3869 1.385 . S
C3873 C3872 1.374 . S
C3874 C3871 1.499 . S
C3874 C3875 1.373 . S
C3874 C3876 1.389 . S
C3875 H3854 0.950 . S
C3875 C3874 1.373 . S
C3875 C3891 1.377 . S
C3876 C3874 1.389 . S
C3876 C3877 1.524 . S
C3876 C3890 1.377 . S
C3877 C3876 1.524 . S
C3877 C3878 1.397 . S
C3877 C3882 1.363 . S
C3878 H3855 0.950 . S
C3878 C3877 1.397 . S
C3878 C3879 1.334 . S
C3879 H3856 0.950 . S
C3879 C3878 1.334 . S
C3879 C3880 1.287 . S
C3880 C3879 1.287 . S
C3880 C3881 1.524 . S
C3880 H3899 0.913 . S
C3881 H3857 0.950 . S
C3881 C3880 1.524 . S
C3881 C3882 1.415 . S
C3882 H3858 0.950 . S
C3882 C3877 1.363 . S
C3882 C3881 1.415 . S
C3883 H3859 0.951 . S
C3883 C3884 1.366 . S
C3883 C3885 1.388 . S
C3884 C3883 1.366 . S
C3884 C3888 1.385 . S
C3885 H3860 0.951 . S
C3885 C3883 1.388 . S
C3885 C3886 1.366 . S
C3886 C3885 1.366 . S
C3886 C3887 1.414 . S
C3886 C3889 1.499 . S
C3887 H3861 0.950 . S
C3887 C3886 1.414 . S
C3887 C3888 1.374 . S
C3888 H3862 0.950 . S
C3888 C3884 1.385 . S
C3888 C3887 1.374 . S
C3889 C3886 1.499 . S
C3889 C3890 1.373 . S
C3889 C3891 1.389 . S
C3890 H3863 0.950 . S
C3890 C3876 1.377 . S
C3890 C3889 1.373 . S
C3891 C3875 1.377 . S
C3891 C3889 1.389 . S
C3891 C3892 1.524 . S
C3892 C3891 1.524 . S
C3892 C3893 1.397 . S
C3892 C3897 1.363 . S
C3893 H3864 0.950 . S
C3893 C3892 1.397 . S
C3893 C3894 1.334 . S
C3894 H3865 0.950 . S
C3894 C3893 1.334 . S
C3894 C3895 1.287 . S
C3895 C3894 1.287 . S
C3895 C3896 1.524 . S
C3895 H3898 0.999 . S
C3896 H3866 0.950 . S
C3896 C3895 1.524 . S
C3896 C3897 1.415 . S
C3897 H3867 0.950 . S
C3897 C3892 1.363 . S
C3897 C3896 1.415 . S
H3898 C3895 0.999 . S
H3899 C3880 0.913 . S
H3900 C3918 0.951 . S
H3901 C3920 0.951 . S
H3902 C3922 0.950 . S
H3903 C3923 0.950 . S
H3904 C3925 0.950 . S
H3905 C3928 0.950 . S
H3906 C3929 0.950 . S
H3907 C3931 0.950 . S
H3908 C3932 0.950 . S
H3909 C3933 0.951 . S
H3910 C3935 0.951 . S
H3911 C3937 0.950 . S
H3912 C3938 0.950 . S
H3913 C3940 0.950 . S
H3914 C3943 0.950 . S
H3915 C3944 0.950 . S
H3916 C3946 0.950 . S
H3917 C3947 0.950 . S
C3918 H3900 0.951 . S
C3918 C3919 1.366 . S
C3918 C3920 1.388 . S
C3919 C3918 1.366 . S
C3919 C3923 1.385 . S
C3920 H3901 0.951 . S
C3920 C3918 1.388 . S
C3920 C3921 1.366 . S
C3921 C3920 1.366 . S
C3921 C3922 1.414 . S
C3921 C3924 1.499 . S
C3922 H3902 0.950 . S
C3922 C3921 1.414 . S
C3922 C3923 1.374 . S
C3923 H3903 0.950 . S
C3923 C3919 1.385 . S
C3923 C3922 1.374 . S
C3924 C3921 1.499 . S
C3924 C3925 1.373 . S
C3924 C3926 1.389 . S
C3925 H3904 0.950 . S
C3925 C3924 1.373 . S
C3925 C3941 1.377 . S
C3926 C3924 1.389 . S
C3926 C3927 1.524 . S
C3926 C3940 1.377 . S
C3927 C3926 1.524 . S
C3927 C3928 1.397 . S
C3927 C3932 1.363 . S
C3928 H3905 0.950 . S
C3928 C3927 1.397 . S
C3928 C3929 1.334 . S
C3929 H3906 0.950 . S
C3929 C3928 1.334 . S
C3929 C3930 1.287 . S
C3930 C3929 1.287 . S
C3930 C3931 1.524 . S
C3930 H3949 0.913 . S
C3931 H3907 0.950 . S
C3931 C3930 1.524 . S
C3931 C3932 1.415 . S
C3932 H3908 0.950 . S
C3932 C3927 1.363 . S
C3932 C3931 1.415 . S
C3933 H3909 0.951 . S
C3933 C3934 1.366 . S
C3933 C3935 1.388 . S
C3934 C3933 1.366 . S
C3934 C3938 1.385 . S
C3935 H3910 0.951 . S
C3935 C3933 1.388 . S
C3935 C3936 1.366 . S
C3936 C3935 1.366 . S
C3936 C3937 1.414 . S
C3936 C3939 1.499 . S
C3937 H3911 0.950 . S
C3937 C3936 1.414 . S
C3937 C3938 1.374 . S
C3938 H3912 0.950 . S
C3938 C3934 1.385 . S
C3938 C3937 1.374 . S
C3939 C3936 1.499 . S
C3939 C3940 1.373 . S
C3939 C3941 1.389 . S
C3940 H3913 0.950 . S
C3940 C3926 1.377 . S
C3940 C3939 1.373 . S
C3941 C3925 1.377 . S
C3941 C3939 1.389 . S
C3941 C3942 1.524 . S
C3942 C3941 1.524 . S
C3942 C3943 1.397 . S
C3942 C3947 1.363 . S
C3943 H3914 0.950 . S
C3943 C3942 1.397 . S
C3943 C3944 1.334 . S
C3944 H3915 0.950 . S
C3944 C3943 1.334 . S
C3944 C3945 1.287 . S
C3945 C3944 1.287 . S
C3945 C3946 1.524 . S
C3945 H3948 0.999 . S
C3946 H3916 0.950 . S
C3946 C3945 1.524 . S
C3946 C3947 1.415 . S
C3947 H3917 0.950 . S
C3947 C3942 1.363 . S
C3947 C3946 1.415 . S
H3948 C3945 0.999 . S
H3949 C3930 0.913 . S
H3950 C3968 0.951 . S
H3951 C3970 0.951 . S
H3952 C3972 0.950 . S
H3953 C3973 0.950 . S
H3954 C3975 0.950 . S
H3955 C3978 0.950 . S
H3956 C3979 0.950 . S
H3957 C3981 0.950 . S
H3958 C3982 0.950 . S
H3959 C3983 0.951 . S
H3960 C3985 0.951 . S
H3961 C3987 0.950 . S
H3962 C3988 0.950 . S
H3963 C3990 0.950 . S
H3964 C3993 0.950 . S
H3965 C3994 0.950 . S
H3966 C3996 0.950 . S
H3967 C3997 0.950 . S
C3968 H3950 0.951 . S
C3968 C3969 1.366 . S
C3968 C3970 1.388 . S
C3969 C3968 1.366 . S
C3969 C3973 1.385 . S
C3970 H3951 0.951 . S
C3970 C3968 1.388 . S
C3970 C3971 1.366 . S
C3971 C3970 1.366 . S
C3971 C3972 1.414 . S
C3971 C3974 1.499 . S
C3972 H3952 0.950 . S
C3972 C3971 1.414 . S
C3972 C3973 1.374 . S
C3973 H3953 0.950 . S
C3973 C3969 1.385 . S
C3973 C3972 1.374 . S
C3974 C3971 1.499 . S
C3974 C3975 1.373 . S
C3974 C3976 1.389 . S
C3975 H3954 0.950 . S
C3975 C3974 1.373 . S
C3975 C3991 1.377 . S
C3976 C3974 1.389 . S
C3976 C3977 1.524 . S
C3976 C3990 1.377 . S
C3977 C3976 1.524 . S
C3977 C3978 1.397 . S
C3977 C3982 1.363 . S
C3978 H3955 0.950 . S
C3978 C3977 1.397 . S
C3978 C3979 1.334 . S
C3979 H3956 0.950 . S
C3979 C3978 1.334 . S
C3979 C3980 1.287 . S
C3980 C3979 1.287 . S
C3980 C3981 1.524 . S
C3980 H3999 0.913 . S
C3981 H3957 0.950 . S
C3981 C3980 1.524 . S
C3981 C3982 1.415 . S
C3982 H3958 0.950 . S
C3982 C3977 1.363 . S
C3982 C3981 1.415 . S
C3983 H3959 0.951 . S
C3983 C3984 1.366 . S
C3983 C3985 1.388 . S
C3984 C3983 1.366 . S
C3984 C3988 1.385 . S
C3985 H3960 0.951 . S
C3985 C3983 1.388 . S
C3985 C3986 1.366 . S
C3986 C3985 1.366 . S
C3986 C3987 1.414 . S
C3986 C3989 1.499 . S
C3987 H3961 0.950 . S
C3987 C3986 1.414 . S
C3987 C3988 1.374 . S
C3988 H3962 0.950 . S
C3988 C3984 1.385 . S
C3988 C3987 1.374 . S
C3989 C3986 1.499 . S
C3989 C3990 1.373 . S
C3989 C3991 1.389 . S
C3990 H3963 0.950 . S
C3990 C3976 1.377 . S
C3990 C3989 1.373 . S
C3991 C3975 1.377 . S
C3991 C3989 1.389 . S
C3991 C3992 1.524 . S
C3992 C3991 1.524 . S
C3992 C3993 1.397 . S
C3992 C3997 1.363 . S
C3993 H3964 0.950 . S
C3993 C3992 1.397 . S
C3993 C3994 1.334 . S
C3994 H3965 0.950 . S
C3994 C3993 1.334 . S
C3994 C3995 1.287 . S
C3995 C3994 1.287 . S
C3995 C3996 1.524 . S
C3995 H3998 0.999 . S
C3996 H3966 0.950 . S
C3996 C3995 1.524 . S
C3996 C3997 1.415 . S
C3997 H3967 0.950 . S
C3997 C3992 1.363 . S
C3997 C3996 1.415 . S
H3998 C3995 0.999 . S
H3999 C3980 0.913 . S
H4000 C4018 0.951 . S
H4001 C4020 0.951 . S
H4002 C4022 0.950 . S
H4003 C4023 0.950 . S
H4004 C4025 0.950 . S
H4005 C4028 0.950 . S
H4006 C4029 0.950 . S
H4007 C4031 0.950 . S
H4008 C4032 0.950 . S
H4009 C4033 0.951 . S
H4010 C4035 0.951 . S
H4011 C4037 0.950 . S
H4012 C4038 0.950 . S
H4013 C4040 0.950 . S
H4014 C4043 0.950 . S
H4015 C4044 0.950 . S
H4016 C4046 0.950 . S
H4017 C4047 0.950 . S
C4018 H4000 0.951 . S
C4018 C4019 1.366 . S
C4018 C4020 1.388 . S
C4019 C4018 1.366 . S
C4019 C4023 1.385 . S
C4020 H4001 0.951 . S
C4020 C4018 1.388 . S
C4020 C4021 1.366 . S
C4021 C4020 1.366 . S
C4021 C4022 1.414 . S
C4021 C4024 1.499 . S
C4022 H4002 0.950 . S
C4022 C4021 1.414 . S
C4022 C4023 1.374 . S
C4023 H4003 0.950 . S
C4023 C4019 1.385 . S
C4023 C4022 1.374 . S
C4024 C4021 1.499 . S
C4024 C4025 1.373 . S
C4024 C4026 1.389 . S
C4025 H4004 0.950 . S
C4025 C4024 1.373 . S
C4025 C4041 1.377 . S
C4026 C4024 1.389 . S
C4026 C4027 1.524 . S
C4026 C4040 1.377 . S
C4027 C4026 1.524 . S
C4027 C4028 1.397 . S
C4027 C4032 1.363 . S
C4028 H4005 0.950 . S
C4028 C4027 1.397 . S
C4028 C4029 1.334 . S
C4029 H4006 0.950 . S
C4029 C4028 1.334 . S
C4029 C4030 1.287 . S
C4030 C4029 1.287 . S
C4030 C4031 1.524 . S
C4030 H4049 0.913 . S
C4031 H4007 0.950 . S
C4031 C4030 1.524 . S
C4031 C4032 1.415 . S
C4032 H4008 0.950 . S
C4032 C4027 1.363 . S
C4032 C4031 1.415 . S
C4033 H4009 0.951 . S
C4033 C4034 1.366 . S
C4033 C4035 1.388 . S
C4034 C4033 1.366 . S
C4034 C4038 1.385 . S
C4035 H4010 0.951 . S
C4035 C4033 1.388 . S
C4035 C4036 1.366 . S
C4036 C4035 1.366 . S
C4036 C4037 1.414 . S
C4036 C4039 1.499 . S
C4037 H4011 0.950 . S
C4037 C4036 1.414 . S
C4037 C4038 1.374 . S
C4038 H4012 0.950 . S
C4038 C4034 1.385 . S
C4038 C4037 1.374 . S
C4039 C4036 1.499 . S
C4039 C4040 1.373 . S
C4039 C4041 1.389 . S
C4040 H4013 0.950 . S
C4040 C4026 1.377 . S
C4040 C4039 1.373 . S
C4041 C4025 1.377 . S
C4041 C4039 1.389 . S
C4041 C4042 1.524 . S
C4042 C4041 1.524 . S
C4042 C4043 1.397 . S
C4042 C4047 1.363 . S
C4043 H4014 0.950 . S
C4043 C4042 1.397 . S
C4043 C4044 1.334 . S
C4044 H4015 0.950 . S
C4044 C4043 1.334 . S
C4044 C4045 1.287 . S
C4045 C4044 1.287 . S
C4045 C4046 1.524 . S
C4045 H4048 0.999 . S
C4046 H4016 0.950 . S
C4046 C4045 1.524 . S
C4046 C4047 1.415 . S
C4047 H4017 0.950 . S
C4047 C4042 1.363 . S
C4047 C4046 1.415 . S
H4048 C4045 0.999 . S
H4049 C4030 0.913 . S
H4050 C4068 0.951 . S
H4051 C4070 0.951 . S
H4052 C4072 0.950 . S
H4053 C4073 0.950 . S
H4054 C4075 0.950 . S
H4055 C4078 0.950 . S
H4056 C4079 0.950 . S
H4057 C4081 0.950 . S
H4058 C4082 0.950 . S
H4059 C4083 0.951 . S
H4060 C4085 0.951 . S
H4061 C4087 0.950 . S
H4062 C4088 0.950 . S
H4063 C4090 0.950 . S
H4064 C4093 0.950 . S
H4065 C4094 0.950 . S
H4066 C4096 0.950 . S
H4067 C4097 0.950 . S
C4068 H4050 0.951 . S
C4068 C4069 1.366 . S
C4068 C4070 1.388 . S
C4069 C4068 1.366 . S
C4069 C4073 1.385 . S
C4070 H4051 0.951 . S
C4070 C4068 1.388 . S
C4070 C4071 1.366 . S
C4071 C4070 1.366 . S
C4071 C4072 1.414 . S
C4071 C4074 1.499 . S
C4072 H4052 0.950 . S
C4072 C4071 1.414 . S
C4072 C4073 1.374 . S
C4073 H4053 0.950 . S
C4073 C4069 1.385 . S
C4073 C4072 1.374 . S
C4074 C4071 1.499 . S
C4074 C4075 1.373 . S
C4074 C4076 1.389 . S
C4075 H4054 0.950 . S
C4075 C4074 1.373 . S
C4075 C4091 1.377 . S
C4076 C4074 1.389 . S
C4076 C4077 1.524 . S
C4076 C4090 1.377 . S
C4077 C4076 1.524 . S
C4077 C4078 1.397 . S
C4077 C4082 1.363 . S
C4078 H4055 0.950 . S
C4078 C4077 1.397 . S
C4078 C4079 1.334 . S
C4079 H4056 0.950 . S
C4079 C4078 1.334 . S
C4079 C4080 1.287 . S
C4080 C4079 1.287 . S
C4080 C4081 1.524 . S
C4080 H4099 0.913 . S
C4081 H4057 0.950 . S
C4081 C4080 1.524 . S
C4081 C4082 1.415 . S
C4082 H4058 0.950 . S
C4082 C4077 1.363 . S
C4082 C4081 1.415 . S
C4083 H4059 0.951 . S
C4083 C4084 1.366 . S
C4083 C4085 1.388 . S
C4084 C4083 1.366 . S
C4084 C4088 1.385 . S
C4085 H4060 0.951 . S
C4085 C4083 1.388 . S
C4085 C4086 1.366 . S
C4086 C4085 1.366 . S
C4086 C4087 1.414 . S
C4086 C4089 1.499 . S
C4087 H4061 0.950 . S
C4087 C4086 1.414 . S
C4087 C4088 1.374 . S
C4088 H4062 0.950 . S
C4088 C4084 1.385 . S
C4088 C4087 1.374 . S
C4089 C4086 1.499 . S
C4089 C4090 1.373 . S
C4089 C4091 1.389 . S
C4090 H4063 0.950 . S
C4090 C4076 1.377 . S
C4090 C4089 1.373 . S
C4091 C4075 1.377 . S
C4091 C4089 1.389 . S
C4091 C4092 1.524 . S
C4092 C4091 1.524 . S
C4092 C4093 1.397 . S
C4092 C4097 1.363 . S
C4093 H4064 0.950 . S
C4093 C4092 1.397 . S
C4093 C4094 1.334 . S
C4094 H4065 0.950 . S
C4094 C4093 1.334 . S
C4094 C4095 1.287 . S
C4095 C4094 1.287 . S
C4095 C4096 1.524 . S
C4095 H4098 0.999 . S
C4096 H4066 0.950 . S
C4096 C4095 1.524 . S
C4096 C4097 1.415 . S
C4097 H4067 0.950 . S
C4097 C4092 1.363 . S
C4097 C4096 1.415 . S
H4098 C4095 0.999 . S
H4099 C4080 0.913 . S
H4100 C4118 0.951 . S
H4101 C4120 0.951 . S
H4102 C4122 0.950 . S
H4103 C4123 0.950 . S
H4104 C4125 0.950 . S
H4105 C4128 0.950 . S
H4106 C4129 0.950 . S
H4107 C4131 0.950 . S
H4108 C4132 0.950 . S
H4109 C4133 0.951 . S
H4110 C4135 0.951 . S
H4111 C4137 0.950 . S
H4112 C4138 0.950 . S
H4113 C4140 0.950 . S
H4114 C4143 0.950 . S
H4115 C4144 0.950 . S
H4116 C4146 0.950 . S
H4117 C4147 0.950 . S
C4118 H4100 0.951 . S
C4118 C4119 1.366 . S
C4118 C4120 1.388 . S
C4119 C4118 1.366 . S
C4119 C4123 1.385 . S
C4120 H4101 0.951 . S
C4120 C4118 1.388 . S
C4120 C4121 1.366 . S
C4121 C4120 1.366 . S
C4121 C4122 1.414 . S
C4121 C4124 1.499 . S
C4122 H4102 0.950 . S
C4122 C4121 1.414 . S
C4122 C4123 1.374 . S
C4123 H4103 0.950 . S
C4123 C4119 1.385 . S
C4123 C4122 1.374 . S
C4124 C4121 1.499 . S
C4124 C4125 1.373 . S
C4124 C4126 1.389 . S
C4125 H4104 0.950 . S
C4125 C4124 1.373 . S
C4125 C4141 1.377 . S
C4126 C4124 1.389 . S
C4126 C4127 1.524 . S
C4126 C4140 1.377 . S
C4127 C4126 1.524 . S
C4127 C4128 1.397 . S
C4127 C4132 1.363 . S
C4128 H4105 0.950 . S
C4128 C4127 1.397 . S
C4128 C4129 1.334 . S
C4129 H4106 0.950 . S
C4129 C4128 1.334 . S
C4129 C4130 1.287 . S
C4130 C4129 1.287 . S
C4130 C4131 1.524 . S
C4130 H4149 0.913 . S
C4131 H4107 0.950 . S
C4131 C4130 1.524 . S
C4131 C4132 1.415 . S
C4132 H4108 0.950 . S
C4132 C4127 1.363 . S
C4132 C4131 1.415 . S
C4133 H4109 0.951 . S
C4133 C4134 1.366 . S
C4133 C4135 1.388 . S
C4134 C4133 1.366 . S
C4134 C4138 1.385 . S
C4135 H4110 0.951 . S
C4135 C4133 1.388 . S
C4135 C4136 1.366 . S
C4136 C4135 1.366 . S
C4136 C4137 1.414 . S
C4136 C4139 1.499 . S
C4137 H4111 0.950 . S
C4137 C4136 1.414 . S
C4137 C4138 1.374 . S
C4138 H4112 0.950 . S
C4138 C4134 1.385 . S
C4138 C4137 1.374 . S
C4139 C4136 1.499 . S
C4139 C4140 1.373 . S
C4139 C4141 1.389 . S
C4140 H4113 0.950 . S
C4140 C4126 1.377 . S
C4140 C4139 1.373 . S
C4141 C4125 1.377 . S
C4141 C4139 1.389 . S
C4141 C4142 1.524 . S
C4142 C4141 1.524 . S
C4142 C4143 1.397 . S
C4142 C4147 1.363 . S
C4143 H4114 0.950 . S
C4143 C4142 1.397 . S
C4143 C4144 1.334 . S
C4144 H4115 0.950 . S
C4144 C4143 1.334 . S
C4144 C4145 1.287 . S
C4145 C4144 1.287 . S
C4145 C4146 1.524 . S
C4145 H4148 0.999 . S
C4146 H4116 0.950 . S
C4146 C4145 1.524 . S
C4146 C4147 1.415 . S
C4147 H4117 0.950 . S
C4147 C4142 1.363 . S
C4147 C4146 1.415 . S
H4148 C4145 0.999 . S
H4149 C4130 0.913 . S
H4150 C4168 0.951 . S
H4151 C4170 0.951 . S
H4152 C4172 0.950 . S
H4153 C4173 0.950 . S
H4154 C4175 0.950 . S
H4155 C4178 0.950 . S
H4156 C4179 0.950 . S
H4157 C4181 0.950 . S
H4158 C4182 0.950 . S
H4159 C4183 0.951 . S
H4160 C4185 0.951 . S
H4161 C4187 0.950 . S
H4162 C4188 0.950 . S
H4163 C4190 0.950 . S
H4164 C4193 0.950 . S
H4165 C4194 0.950 . S
H4166 C4196 0.950 . S
H4167 C4197 0.950 . S
C4168 H4150 0.951 . S
C4168 C4169 1.366 . S
C4168 C4170 1.388 . S
C4169 C4168 1.366 . S
C4169 C4173 1.385 . S
C4170 H4151 0.951 . S
C4170 C4168 1.388 . S
C4170 C4171 1.366 . S
C4171 C4170 1.366 . S
C4171 C4172 1.414 . S
C4171 C4174 1.499 . S
C4172 H4152 0.950 . S
C4172 C4171 1.414 . S
C4172 C4173 1.374 . S
C4173 H4153 0.950 . S
C4173 C4169 1.385 . S
C4173 C4172 1.374 . S
C4174 C4171 1.499 . S
C4174 C4175 1.373 . S
C4174 C4176 1.389 . S
C4175 H4154 0.950 . S
C4175 C4174 1.373 . S
C4175 C4191 1.377 . S
C4176 C4174 1.389 . S
C4176 C4177 1.524 . S
C4176 C4190 1.377 . S
C4177 C4176 1.524 . S
C4177 C4178 1.397 . S
C4177 C4182 1.363 . S
C4178 H4155 0.950 . S
C4178 C4177 1.397 . S
C4178 C4179 1.334 . S
C4179 H4156 0.950 . S
C4179 C4178 1.334 . S
C4179 C4180 1.287 . S
C4180 C4179 1.287 . S
C4180 C4181 1.524 . S
C4180 H4199 0.913 . S
C4181 H4157 0.950 . S
C4181 C4180 1.524 . S
C4181 C4182 1.415 . S
C4182 H4158 0.950 . S
C4182 C4177 1.363 . S
C4182 C4181 1.415 . S
C4183 H4159 0.951 . S
C4183 C4184 1.366 . S
C4183 C4185 1.388 . S
C4184 C4183 1.366 . S
C4184 C4188 1.385 . S
C4185 H4160 0.951 . S
C4185 C4183 1.388 . S
C4185 C4186 1.366 . S
C4186 C4185 1.366 . S
C4186 C4187 1.414 . S
C4186 C4189 1.499 . S
C4187 H4161 0.950 . S
C4187 C4186 1.414 . S
C4187 C4188 1.374 . S
C4188 H4162 0.950 . S
C4188 C4184 1.385 . S
C4188 C4187 1.374 . S
C4189 C4186 1.499 . S
C4189 C4190 1.373 . S
C4189 C4191 1.389 . S
C4190 H4163 0.950 . S
C4190 C4176 1.377 . S
C4190 C4189 1.373 . S
C4191 C4175 1.377 . S
C4191 C4189 1.389 . S
C4191 C4192 1.524 . S
C4192 C4191 1.524 . S
C4192 C4193 1.397 . S
C4192 C4197 1.363 . S
C4193 H4164 0.950 . S
C4193 C4192 1.397 . S
C4193 C4194 1.334 . S
C4194 H4165 0.950 . S
C4194 C4193 1.334 . S
C4194 C4195 1.287 . S
C4195 C4194 1.287 . S
C4195 C4196 1.524 . S
C4195 H4198 0.999 . S
C4196 H4166 0.950 . S
C4196 C4195 1.524 . S
C4196 C4197 1.415 . S
C4197 H4167 0.950 . S
C4197 C4192 1.363 . S
C4197 C4196 1.415 . S
H4198 C4195 0.999 . S
H4199 C4180 0.913 . S
H4200 C4218 0.951 . S
H4201 C4220 0.951 . S
H4202 C4222 0.950 . S
H4203 C4223 0.950 . S
H4204 C4225 0.950 . S
H4205 C4228 0.950 . S
H4206 C4229 0.950 . S
H4207 C4231 0.950 . S
H4208 C4232 0.950 . S
H4209 C4233 0.951 . S
H4210 C4235 0.951 . S
H4211 C4237 0.950 . S
H4212 C4238 0.950 . S
H4213 C4240 0.950 . S
H4214 C4243 0.950 . S
H4215 C4244 0.950 . S
H4216 C4246 0.950 . S
H4217 C4247 0.950 . S
C4218 H4200 0.951 . S
C4218 C4219 1.366 . S
C4218 C4220 1.388 . S
C4219 C4218 1.366 . S
C4219 C4223 1.385 . S
C4220 H4201 0.951 . S
C4220 C4218 1.388 . S
C4220 C4221 1.366 . S
C4221 C4220 1.366 . S
C4221 C4222 1.414 . S
C4221 C4224 1.499 . S
C4222 H4202 0.950 . S
C4222 C4221 1.414 . S
C4222 C4223 1.374 . S
C4223 H4203 0.950 . S
C4223 C4219 1.385 . S
C4223 C4222 1.374 . S
C4224 C4221 1.499 . S
C4224 C4225 1.373 . S
C4224 C4226 1.389 . S
C4225 H4204 0.950 . S
C4225 C4224 1.373 . S
C4225 C4241 1.377 . S
C4226 C4224 1.389 . S
C4226 C4227 1.524 . S
C4226 C4240 1.377 . S
C4227 C4226 1.524 . S
C4227 C4228 1.397 . S
C4227 C4232 1.363 . S
C4228 H4205 0.950 . S
C4228 C4227 1.397 . S
C4228 C4229 1.334 . S
C4229 H4206 0.950 . S
C4229 C4228 1.334 . S
C4229 C4230 1.287 . S
C4230 C4229 1.287 . S
C4230 C4231 1.524 . S
C4230 H4249 0.913 . S
C4231 H4207 0.950 . S
C4231 C4230 1.524 . S
C4231 C4232 1.415 . S
C4232 H4208 0.950 . S
C4232 C4227 1.363 . S
C4232 C4231 1.415 . S
C4233 H4209 0.951 . S
C4233 C4234 1.366 . S
C4233 C4235 1.388 . S
C4234 C4233 1.366 . S
C4234 C4238 1.385 . S
C4235 H4210 0.951 . S
C4235 C4233 1.388 . S
C4235 C4236 1.366 . S
C4236 C4235 1.366 . S
C4236 C4237 1.414 . S
C4236 C4239 1.499 . S
C4237 H4211 0.950 . S
C4237 C4236 1.414 . S
C4237 C4238 1.374 . S
C4238 H4212 0.950 . S
C4238 C4234 1.385 . S
C4238 C4237 1.374 . S
C4239 C4236 1.499 . S
C4239 C4240 1.373 . S
C4239 C4241 1.389 . S
C4240 H4213 0.950 . S
C4240 C4226 1.377 . S
C4240 C4239 1.373 . S
C4241 C4225 1.377 . S
C4241 C4239 1.389 . S
C4241 C4242 1.524 . S
C4242 C4241 1.524 . S
C4242 C4243 1.397 . S
C4242 C4247 1.363 . S
C4243 H4214 0.950 . S
C4243 C4242 1.397 . S
C4243 C4244 1.334 . S
C4244 H4215 0.950 . S
C4244 C4243 1.334 . S
C4244 C4245 1.287 . S
C4245 C4244 1.287 . S
C4245 C4246 1.524 . S
C4245 H4248 0.999 . S
C4246 H4216 0.950 . S
C4246 C4245 1.524 . S
C4246 C4247 1.415 . S
C4247 H4217 0.950 . S
C4247 C4242 1.363 . S
C4247 C4246 1.415 . S
H4248 C4245 0.999 . S
H4249 C4230 0.913 . S
H4250 C4268 0.951 . S
H4251 C4270 0.951 . S
H4252 C4272 0.950 . S
H4253 C4273 0.950 . S
H4254 C4275 0.950 . S
H4255 C4278 0.950 . S
H4256 C4279 0.950 . S
H4257 C4281 0.950 . S
H4258 C4282 0.950 . S
H4259 C4283 0.951 . S
H4260 C4285 0.951 . S
H4261 C4287 0.950 . S
H4262 C4288 0.950 . S
H4263 C4290 0.950 . S
H4264 C4293 0.950 . S
H4265 C4294 0.950 . S
H4266 C4296 0.950 . S
H4267 C4297 0.950 . S
C4268 H4250 0.951 . S
C4268 C4269 1.366 . S
C4268 C4270 1.388 . S
C4269 C4268 1.366 . S
C4269 C4273 1.385 . S
C4270 H4251 0.951 . S
C4270 C4268 1.388 . S
C4270 C4271 1.366 . S
C4271 C4270 1.366 . S
C4271 C4272 1.414 . S
C4271 C4274 1.499 . S
C4272 H4252 0.950 . S
C4272 C4271 1.414 . S
C4272 C4273 1.374 . S
C4273 H4253 0.950 . S
C4273 C4269 1.385 . S
C4273 C4272 1.374 . S
C4274 C4271 1.499 . S
C4274 C4275 1.373 . S
C4274 C4276 1.389 . S
C4275 H4254 0.950 . S
C4275 C4274 1.373 . S
C4275 C4291 1.377 . S
C4276 C4274 1.389 . S
C4276 C4277 1.524 . S
C4276 C4290 1.377 . S
C4277 C4276 1.524 . S
C4277 C4278 1.397 . S
C4277 C4282 1.363 . S
C4278 H4255 0.950 . S
C4278 C4277 1.397 . S
C4278 C4279 1.334 . S
C4279 H4256 0.950 . S
C4279 C4278 1.334 . S
C4279 C4280 1.287 . S
C4280 C4279 1.287 . S
C4280 C4281 1.524 . S
C4280 H4299 0.913 . S
C4281 H4257 0.950 . S
C4281 C4280 1.524 . S
C4281 C4282 1.415 . S
C4282 H4258 0.950 . S
C4282 C4277 1.363 . S
C4282 C4281 1.415 . S
C4283 H4259 0.951 . S
C4283 C4284 1.366 . S
C4283 C4285 1.388 . S
C4284 C4283 1.366 . S
C4284 C4288 1.385 . S
C4285 H4260 0.951 . S
C4285 C4283 1.388 . S
C4285 C4286 1.366 . S
C4286 C4285 1.366 . S
C4286 C4287 1.414 . S
C4286 C4289 1.499 . S
C4287 H4261 0.950 . S
C4287 C4286 1.414 . S
C4287 C4288 1.374 . S
C4288 H4262 0.950 . S
C4288 C4284 1.385 . S
C4288 C4287 1.374 . S
C4289 C4286 1.499 . S
C4289 C4290 1.373 . S
C4289 C4291 1.389 . S
C4290 H4263 0.950 . S
C4290 C4276 1.377 . S
C4290 C4289 1.373 . S
C4291 C4275 1.377 . S
C4291 C4289 1.389 . S
C4291 C4292 1.524 . S
C4292 C4291 1.524 . S
C4292 C4293 1.397 . S
C4292 C4297 1.363 . S
C4293 H4264 0.950 . S
C4293 C4292 1.397 . S
C4293 C4294 1.334 . S
C4294 H4265 0.950 . S
C4294 C4293 1.334 . S
C4294 C4295 1.287 . S
C4295 C4294 1.287 . S
C4295 C4296 1.524 . S
C4295 H4298 0.999 . S
C4296 H4266 0.950 . S
C4296 C4295 1.524 . S
C4296 C4297 1.415 . S
C4297 H4267 0.950 . S
C4297 C4292 1.363 . S
C4297 C4296 1.415 . S
H4298 C4295 0.999 . S
H4299 C4280 0.913 . S
H4300 C4318 0.951 . S
H4301 C4320 0.951 . S
H4302 C4322 0.950 . S
H4303 C4323 0.950 . S
H4304 C4325 0.950 . S
H4305 C4328 0.950 . S
H4306 C4329 0.950 . S
H4307 C4331 0.950 . S
H4308 C4332 0.950 . S
H4309 C4333 0.951 . S
H4310 C4335 0.951 . S
H4311 C4337 0.950 . S
H4312 C4338 0.950 . S
H4313 C4340 0.950 . S
H4314 C4343 0.950 . S
H4315 C4344 0.950 . S
H4316 C4346 0.950 . S
H4317 C4347 0.950 . S
C4318 H4300 0.951 . S
C4318 C4319 1.366 . S
C4318 C4320 1.388 . S
C4319 C4318 1.366 . S
C4319 C4323 1.385 . S
C4320 H4301 0.951 . S
C4320 C4318 1.388 . S
C4320 C4321 1.366 . S
C4321 C4320 1.366 . S
C4321 C4322 1.414 . S
C4321 C4324 1.499 . S
C4322 H4302 0.950 . S
C4322 C4321 1.414 . S
C4322 C4323 1.374 . S
C4323 H4303 0.950 . S
C4323 C4319 1.385 . S
C4323 C4322 1.374 . S
C4324 C4321 1.499 . S
C4324 C4325 1.373 . S
C4324 C4326 1.389 . S
C4325 H4304 0.950 . S
C4325 C4324 1.373 . S
C4325 C4341 1.377 . S
C4326 C4324 1.389 . S
C4326 C4327 1.524 . S
C4326 C4340 1.377 . S
C4327 C4326 1.524 . S
C4327 C4328 1.397 . S
C4327 C4332 1.363 . S
C4328 H4305 0.950 . S
C4328 C4327 1.397 . S
C4328 C4329 1.334 . S
C4329 H4306 0.950 . S
C4329 C4328 1.334 . S
C4329 C4330 1.287 . S
C4330 C4329 1.287 . S
C4330 C4331 1.524 . S
C4330 H4349 0.913 . S
C4331 H4307 0.950 . S
C4331 C4330 1.524 . S
C4331 C4332 1.415 . S
C4332 H4308 0.950 . S
C4332 C4327 1.363 . S
C4332 C4331 1.415 . S
C4333 H4309 0.951 . S
C4333 C4334 1.366 . S
C4333 C4335 1.388 . S
C4334 C4333 1.366 . S
C4334 C4338 1.385 . S
C4335 H4310 0.951 . S
C4335 C4333 1.388 . S
C4335 C4336 1.366 . S
C4336 C4335 1.366 . S
C4336 C4337 1.414 . S
C4336 C4339 1.499 . S
C4337 H4311 0.950 . S
C4337 C4336 1.414 . S
C4337 C4338 1.374 . S
C4338 H4312 0.950 . S
C4338 C4334 1.385 . S
C4338 C4337 1.374 . S
C4339 C4336 1.499 . S
C4339 C4340 1.373 . S
C4339 C4341 1.389 . S
C4340 H4313 0.950 . S
C4340 C4326 1.377 . S
C4340 C4339 1.373 . S
C4341 C4325 1.377 . S
C4341 C4339 1.389 . S
C4341 C4342 1.524 . S
C4342 C4341 1.524 . S
C4342 C4343 1.397 . S
C4342 C4347 1.363 . S
C4343 H4314 0.950 . S
C4343 C4342 1.397 . S
C4343 C4344 1.334 . S
C4344 H4315 0.950 . S
C4344 C4343 1.334 . S
C4344 C4345 1.287 . S
C4345 C4344 1.287 . S
C4345 C4346 1.524 . S
C4345 H4348 0.999 . S
C4346 H4316 0.950 . S
C4346 C4345 1.524 . S
C4346 C4347 1.415 . S
C4347 H4317 0.950 . S
C4347 C4342 1.363 . S
C4347 C4346 1.415 . S
H4348 C4345 0.999 . S
H4349 C4330 0.913 . S
H4350 C4368 0.951 . S
H4351 C4370 0.951 . S
H4352 C4372 0.950 . S
H4353 C4373 0.950 . S
H4354 C4375 0.950 . S
H4355 C4378 0.950 . S
H4356 C4379 0.950 . S
H4357 C4381 0.950 . S
H4358 C4382 0.950 . S
H4359 C4383 0.951 . S
H4360 C4385 0.951 . S
H4361 C4387 0.950 . S
H4362 C4388 0.950 . S
H4363 C4390 0.950 . S
H4364 C4393 0.950 . S
H4365 C4394 0.950 . S
H4366 C4396 0.950 . S
H4367 C4397 0.950 . S
C4368 H4350 0.951 . S
C4368 C4369 1.366 . S
C4368 C4370 1.388 . S
C4369 C4368 1.366 . S
C4369 C4373 1.385 . S
C4370 H4351 0.951 . S
C4370 C4368 1.388 . S
C4370 C4371 1.366 . S
C4371 C4370 1.366 . S
C4371 C4372 1.414 . S
C4371 C4374 1.499 . S
C4372 H4352 0.950 . S
C4372 C4371 1.414 . S
C4372 C4373 1.374 . S
C4373 H4353 0.950 . S
C4373 C4369 1.385 . S
C4373 C4372 1.374 . S
C4374 C4371 1.499 . S
C4374 C4375 1.373 . S
C4374 C4376 1.389 . S
C4375 H4354 0.950 . S
C4375 C4374 1.373 . S
C4375 C4391 1.377 . S
C4376 C4374 1.389 . S
C4376 C4377 1.524 . S
C4376 C4390 1.377 . S
C4377 C4376 1.524 . S
C4377 C4378 1.397 . S
C4377 C4382 1.363 . S
C4378 H4355 0.950 . S
C4378 C4377 1.397 . S
C4378 C4379 1.334 . S
C4379 H4356 0.950 . S
C4379 C4378 1.334 . S
C4379 C4380 1.287 . S
C4380 C4379 1.287 . S
C4380 C4381 1.524 . S
C4380 H4399 0.913 . S
C4381 H4357 0.950 . S
C4381 C4380 1.524 . S
C4381 C4382 1.415 . S
C4382 H4358 0.950 . S
C4382 C4377 1.363 . S
C4382 C4381 1.415 . S
C4383 H4359 0.951 . S
C4383 C4384 1.366 . S
C4383 C4385 1.388 . S
C4384 C4383 1.366 . S
C4384 C4388 1.385 . S
C4385 H4360 0.951 . S
C4385 C4383 1.388 . S
C4385 C4386 1.366 . S
C4386 C4385 1.366 . S
C4386 C4387 1.414 . S
C4386 C4389 1.499 . S
C4387 H4361 0.950 . S
C4387 C4386 1.414 . S
C4387 C4388 1.374 . S
C4388 H4362 0.950 . S
C4388 C4384 1.385 . S
C4388 C4387 1.374 . S
C4389 C4386 1.499 . S
C4389 C4390 1.373 . S
C4389 C4391 1.389 . S
C4390 H4363 0.950 . S
C4390 C4376 1.377 . S
C4390 C4389 1.373 . S
C4391 C4375 1.377 . S
C4391 C4389 1.389 . S
C4391 C4392 1.524 . S
C4392 C4391 1.524 . S
C4392 C4393 1.397 . S
C4392 C4397 1.363 . S
C4393 H4364 0.950 . S
C4393 C4392 1.397 . S
C4393 C4394 1.334 . S
C4394 H4365 0.950 . S
C4394 C4393 1.334 . S
C4394 C4395 1.287 . S
C4395 C4394 1.287 . S
C4395 C4396 1.524 . S
C4395 H4398 0.999 . S
C4396 H4366 0.950 . S
C4396 C4395 1.524 . S
C4396 C4397 1.415 . S
C4397 H4367 0.950 . S
C4397 C4392 1.363 . S
C4397 C4396 1.415 . S
H4398 C4395 0.999 . S
H4399 C4380 0.913 . S
H4400 C4418 0.951 . S
H4401 C4420 0.951 . S
H4402 C4422 0.950 . S
H4403 C4423 0.950 . S
H4404 C4425 0.950 . S
H4405 C4428 0.950 . S
H4406 C4429 0.950 . S
H4407 C4431 0.950 . S
H4408 C4432 0.950 . S
H4409 C4433 0.951 . S
H4410 C4435 0.951 . S
H4411 C4437 0.950 . S
H4412 C4438 0.950 . S
H4413 C4440 0.950 . S
H4414 C4443 0.950 . S
H4415 C4444 0.950 . S
H4416 C4446 0.950 . S
H4417 C4447 0.950 . S
C4418 H4400 0.951 . S
C4418 C4419 1.366 . S
C4418 C4420 1.388 . S
C4419 C4418 1.366 . S
C4419 C4423 1.385 . S
C4420 H4401 0.951 . S
C4420 C4418 1.388 . S
C4420 C4421 1.366 . S
C4421 C4420 1.366 . S
C4421 C4422 1.414 . S
C4421 C4424 1.499 . S
C4422 H4402 0.950 . S
C4422 C4421 1.414 . S
C4422 C4423 1.374 . S
C4423 H4403 0.950 . S
C4423 C4419 1.385 . S
C4423 C4422 1.374 . S
C4424 C4421 1.499 . S
C4424 C4425 1.373 . S
C4424 C4426 1.389 . S
C4425 H4404 0.950 . S
C4425 C4424 1.373 . S
C4425 C4441 1.377 . S
C4426 C4424 1.389 . S
C4426 C4427 1.524 . S
C4426 C4440 1.377 . S
C4427 C4426 1.524 . S
C4427 C4428 1.397 . S
C4427 C4432 1.363 . S
C4428 H4405 0.950 . S
C4428 C4427 1.397 . S
C4428 C4429 1.334 . S
C4429 H4406 0.950 . S
C4429 C4428 1.334 . S
C4429 C4430 1.287 . S
C4430 C4429 1.287 . S
C4430 C4431 1.524 . S
C4430 H4449 0.913 . S
C4431 H4407 0.950 . S
C4431 C4430 1.524 . S
C4431 C4432 1.415 . S
C4432 H4408 0.950 . S
C4432 C4427 1.363 . S
C4432 C4431 1.415 . S
C4433 H4409 0.951 . S
C4433 C4434 1.366 . S
C4433 C4435 1.388 . S
C4434 C4433 1.366 . S
C4434 C4438 1.385 . S
C4435 H4410 0.951 . S
C4435 C4433 1.388 . S
C4435 C4436 1.366 . S
C4436 C4435 1.366 . S
C4436 C4437 1.414 . S
C4436 C4439 1.499 . S
C4437 H4411 0.950 . S
C4437 C4436 1.414 . S
C4437 C4438 1.374 . S
C4438 H4412 0.950 . S
C4438 C4434 1.385 . S
C4438 C4437 1.374 . S
C4439 C4436 1.499 . S
C4439 C4440 1.373 . S
C4439 C4441 1.389 . S
C4440 H4413 0.950 . S
C4440 C4426 1.377 . S
C4440 C4439 1.373 . S
C4441 C4425 1.377 . S
C4441 C4439 1.389 . S
C4441 C4442 1.524 . S
C4442 C4441 1.524 . S
C4442 C4443 1.397 . S
C4442 C4447 1.363 . S
C4443 H4414 0.950 . S
C4443 C4442 1.397 . S
C4443 C4444 1.334 . S
C4444 H4415 0.950 . S
C4444 C4443 1.334 . S
C4444 C4445 1.287 . S
C4445 C4444 1.287 . S
C4445 C4446 1.524 . S
C4445 H4448 0.999 . S
C4446 H4416 0.950 . S
C4446 C4445 1.524 . S
C4446 C4447 1.415 . S
C4447 H4417 0.950 . S
C4447 C4442 1.363 . S
C4447 C4446 1.415 . S
H4448 C4445 0.999 . S
H4449 C4430 0.913 . S
H4450 C4468 0.951 . S
H4451 C4470 0.951 . S
H4452 C4472 0.950 . S
H4453 C4473 0.950 . S
H4454 C4475 0.950 . S
H4455 C4478 0.950 . S
H4456 C4479 0.950 . S
H4457 C4481 0.950 . S
H4458 C4482 0.950 . S
H4459 C4483 0.951 . S
H4460 C4485 0.951 . S
H4461 C4487 0.950 . S
H4462 C4488 0.950 . S
H4463 C4490 0.950 . S
H4464 C4493 0.950 . S
H4465 C4494 0.950 . S
H4466 C4496 0.950 . S
H4467 C4497 0.950 . S
C4468 H4450 0.951 . S
C4468 C4469 1.366 . S
C4468 C4470 1.388 . S
C4469 C4468 1.366 . S
C4469 C4473 1.385 . S
C4470 H4451 0.951 . S
C4470 C4468 1.388 . S
C4470 C4471 1.366 . S
C4471 C4470 1.366 . S
C4471 C4472 1.414 . S
C4471 C4474 1.499 . S
C4472 H4452 0.950 . S
C4472 C4471 1.414 . S
C4472 C4473 1.374 . S
C4473 H4453 0.950 . S
C4473 C4469 1.385 . S
C4473 C4472 1.374 . S
C4474 C4471 1.499 . S
C4474 C4475 1.373 . S
C4474 C4476 1.389 . S
C4475 H4454 0.950 . S
C4475 C4474 1.373 . S
C4475 C4491 1.377 . S
C4476 C4474 1.389 . S
C4476 C4477 1.524 . S
C4476 C4490 1.377 . S
C4477 C4476 1.524 . S
C4477 C4478 1.397 . S
C4477 C4482 1.363 . S
C4478 H4455 0.950 . S
C4478 C4477 1.397 . S
C4478 C4479 1.334 . S
C4479 H4456 0.950 . S
C4479 C4478 1.334 . S
C4479 C4480 1.287 . S
C4480 C4479 1.287 . S
C4480 C4481 1.524 . S
C4480 H4499 0.913 . S
C4481 H4457 0.950 . S
C4481 C4480 1.524 . S
C4481 C4482 1.415 . S
C4482 H4458 0.950 . S
C4482 C4477 1.363 . S
C4482 C4481 1.415 . S
C4483 H4459 0.951 . S
C4483 C4484 1.366 . S
C4483 C4485 1.388 . S
C4484 C4483 1.366 . S
C4484 C4488 1.385 . S
C4485 H4460 0.951 . S
C4485 C4483 1.388 . S
C4485 C4486 1.366 . S
C4486 C4485 1.366 . S
C4486 C4487 1.414 . S
C4486 C4489 1.499 . S
C4487 H4461 0.950 . S
C4487 C4486 1.414 . S
C4487 C4488 1.374 . S
C4488 H4462 0.950 . S
C4488 C4484 1.385 . S
C4488 C4487 1.374 . S
C4489 C4486 1.499 . S
C4489 C4490 1.373 . S
C4489 C4491 1.389 . S
C4490 H4463 0.950 . S
C4490 C4476 1.377 . S
C4490 C4489 1.373 . S
C4491 C4475 1.377 . S
C4491 C4489 1.389 . S
C4491 C4492 1.524 . S
C4492 C4491 1.524 . S
C4492 C4493 1.397 . S
C4492 C4497 1.363 . S
C4493 H4464 0.950 . S
C4493 C4492 1.397 . S
C4493 C4494 1.334 . S
C4494 H4465 0.950 . S
C4494 C4493 1.334 . S
C4494 C4495 1.287 . S
C4495 C4494 1.287 . S
C4495 C4496 1.524 . S
C4495 H4498 0.999 . S
C4496 H4466 0.950 . S
C4496 C4495 1.524 . S
C4496 C4497 1.415 . S
C4497 H4467 0.950 . S
C4497 C4492 1.363 . S
C4497 C4496 1.415 . S
H4498 C4495 0.999 . S
H4499 C4480 0.913 . S
H4500 C4518 0.951 . S
H4501 C4520 0.951 . S
H4502 C4522 0.950 . S
H4503 C4523 0.950 . S
H4504 C4525 0.950 . S
H4505 C4528 0.950 . S
H4506 C4529 0.950 . S
H4507 C4531 0.950 . S
H4508 C4532 0.950 . S
H4509 C4533 0.951 . S
H4510 C4535 0.951 . S
H4511 C4537 0.950 . S
H4512 C4538 0.950 . S
H4513 C4540 0.950 . S
H4514 C4543 0.950 . S
H4515 C4544 0.950 . S
H4516 C4546 0.950 . S
H4517 C4547 0.950 . S
C4518 H4500 0.951 . S
C4518 C4519 1.366 . S
C4518 C4520 1.388 . S
C4519 C4518 1.366 . S
C4519 C4523 1.385 . S
C4520 H4501 0.951 . S
C4520 C4518 1.388 . S
C4520 C4521 1.366 . S
C4521 C4520 1.366 . S
C4521 C4522 1.414 . S
C4521 C4524 1.499 . S
C4522 H4502 0.950 . S
C4522 C4521 1.414 . S
C4522 C4523 1.374 . S
C4523 H4503 0.950 . S
C4523 C4519 1.385 . S
C4523 C4522 1.374 . S
C4524 C4521 1.499 . S
C4524 C4525 1.373 . S
C4524 C4526 1.389 . S
C4525 H4504 0.950 . S
C4525 C4524 1.373 . S
C4525 C4541 1.377 . S
C4526 C4524 1.389 . S
C4526 C4527 1.524 . S
C4526 C4540 1.377 . S
C4527 C4526 1.524 . S
C4527 C4528 1.397 . S
C4527 C4532 1.363 . S
C4528 H4505 0.950 . S
C4528 C4527 1.397 . S
C4528 C4529 1.334 . S
C4529 H4506 0.950 . S
C4529 C4528 1.334 . S
C4529 C4530 1.287 . S
C4530 C4529 1.287 . S
C4530 C4531 1.524 . S
C4530 H4549 0.913 . S
C4531 H4507 0.950 . S
C4531 C4530 1.524 . S
C4531 C4532 1.415 . S
C4532 H4508 0.950 . S
C4532 C4527 1.363 . S
C4532 C4531 1.415 . S
C4533 H4509 0.951 . S
C4533 C4534 1.366 . S
C4533 C4535 1.388 . S
C4534 C4533 1.366 . S
C4534 C4538 1.385 . S
C4535 H4510 0.951 . S
C4535 C4533 1.388 . S
C4535 C4536 1.366 . S
C4536 C4535 1.366 . S
C4536 C4537 1.414 . S
C4536 C4539 1.499 . S
C4537 H4511 0.950 . S
C4537 C4536 1.414 . S
C4537 C4538 1.374 . S
C4538 H4512 0.950 . S
C4538 C4534 1.385 . S
C4538 C4537 1.374 . S
C4539 C4536 1.499 . S
C4539 C4540 1.373 . S
C4539 C4541 1.389 . S
C4540 H4513 0.950 . S
C4540 C4526 1.377 . S
C4540 C4539 1.373 . S
C4541 C4525 1.377 . S
C4541 C4539 1.389 . S
C4541 C4542 1.524 . S
C4542 C4541 1.524 . S
C4542 C4543 1.397 . S
C4542 C4547 1.363 . S
C4543 H4514 0.950 . S
C4543 C4542 1.397 . S
C4543 C4544 1.334 . S
C4544 H4515 0.950 . S
C4544 C4543 1.334 . S
C4544 C4545 1.287 . S
C4545 C4544 1.287 . S
C4545 C4546 1.524 . S
C4545 H4548 0.999 . S
C4546 H4516 0.950 . S
C4546 C4545 1.524 . S
C4546 C4547 1.415 . S
C4547 H4517 0.950 . S
C4547 C4542 1.363 . S
C4547 C4546 1.415 . S
H4548 C4545 0.999 . S
H4549 C4530 0.913 . S
H4550 C4568 0.951 . S
H4551 C4570 0.951 . S
H4552 C4572 0.950 . S
H4553 C4573 0.950 . S
H4554 C4575 0.950 . S
H4555 C4578 0.950 . S
H4556 C4579 0.950 . S
H4557 C4581 0.950 . S
H4558 C4582 0.950 . S
H4559 C4583 0.951 . S
H4560 C4585 0.951 . S
H4561 C4587 0.950 . S
H4562 C4588 0.950 . S
H4563 C4590 0.950 . S
H4564 C4593 0.950 . S
H4565 C4594 0.950 . S
H4566 C4596 0.950 . S
H4567 C4597 0.950 . S
C4568 H4550 0.951 . S
C4568 C4569 1.366 . S
C4568 C4570 1.388 . S
C4569 C4568 1.366 . S
C4569 C4573 1.385 . S
C4570 H4551 0.951 . S
C4570 C4568 1.388 . S
C4570 C4571 1.366 . S
C4571 C4570 1.366 . S
C4571 C4572 1.414 . S
C4571 C4574 1.499 . S
C4572 H4552 0.950 . S
C4572 C4571 1.414 . S
C4572 C4573 1.374 . S
C4573 H4553 0.950 . S
C4573 C4569 1.385 . S
C4573 C4572 1.374 . S
C4574 C4571 1.499 . S
C4574 C4575 1.373 . S
C4574 C4576 1.389 . S
C4575 H4554 0.950 . S
C4575 C4574 1.373 . S
C4575 C4591 1.377 . S
C4576 C4574 1.389 . S
C4576 C4577 1.524 . S
C4576 C4590 1.377 . S
C4577 C4576 1.524 . S
C4577 C4578 1.397 . S
C4577 C4582 1.363 . S
C4578 H4555 0.950 . S
C4578 C4577 1.397 . S
C4578 C4579 1.334 . S
C4579 H4556 0.950 . S
C4579 C4578 1.334 . S
C4579 C4580 1.287 . S
C4580 C4579 1.287 . S
C4580 C4581 1.524 . S
C4580 H4599 0.913 . S
C4581 H4557 0.950 . S
C4581 C4580 1.524 . S
C4581 C4582 1.415 . S
C4582 H4558 0.950 . S
C4582 C4577 1.363 . S
C4582 C4581 1.415 . S
C4583 H4559 0.951 . S
C4583 C4584 1.366 . S
C4583 C4585 1.388 . S
C4584 C4583 1.366 . S
C4584 C4588 1.385 . S
C4585 H4560 0.951 . S
C4585 C4583 1.388 . S
C4585 C4586 1.366 . S
C4586 C4585 1.366 . S
C4586 C4587 1.414 . S
C4586 C4589 1.499 . S
C4587 H4561 0.950 . S
C4587 C4586 1.414 . S
C4587 C4588 1.374 . S
C4588 H4562 0.950 . S
C4588 C4584 1.385 . S
C4588 C4587 1.374 . S
C4589 C4586 1.499 . S
C4589 C4590 1.373 . S
C4589 C4591 1.389 . S
C4590 H4563 0.950 . S
C4590 C4576 1.377 . S
C4590 C4589 1.373 . S
C4591 C4575 1.377 . S
C4591 C4589 1.389 . S
C4591 C4592 1.524 . S
C4592 C4591 1.524 . S
C4592 C4593 1.397 . S
C4592 C4597 1.363 . S
C4593 H4564 0.950 . S
C4593 C4592 1.397 . S
C4593 C4594 1.334 . S
C4594 H4565 0.950 . S
C4594 C4593 1.334 . S
C4594 C4595 1.287 . S
C4595 C4594 1.287 . S
C4595 C4596 1.524 . S
C4595 H4598 0.999 . S
C4596 H4566 0.950 . S
C4596 C4595 1.524 . S
C4596 C4597 1.415 . S
C4597 H4567 0.950 . S
C4597 C4592 1.363 . S
C4597 C4596 1.415 . S
H4598 C4595 0.999 . S
H4599 C4580 0.913 . S
H4600 C4618 0.951 . S
H4601 C4620 0.951 . S
H4602 C4622 0.950 . S
H4603 C4623 0.950 . S
H4604 C4625 0.950 . S
H4605 C4628 0.950 . S
H4606 C4629 0.950 . S
H4607 C4631 0.950 . S
H4608 C4632 0.950 . S
H4609 C4633 0.951 . S
H4610 C4635 0.951 . S
H4611 C4637 0.950 . S
H4612 C4638 0.950 . S
H4613 C4640 0.950 . S
H4614 C4643 0.950 . S
H4615 C4644 0.950 . S
H4616 C4646 0.950 . S
H4617 C4647 0.950 . S
C4618 H4600 0.951 . S
C4618 C4619 1.366 . S
C4618 C4620 1.388 . S
C4619 C4618 1.366 . S
C4619 C4623 1.385 . S
C4620 H4601 0.951 . S
C4620 C4618 1.388 . S
C4620 C4621 1.366 . S
C4621 C4620 1.366 . S
C4621 C4622 1.414 . S
C4621 C4624 1.499 . S
C4622 H4602 0.950 . S
C4622 C4621 1.414 . S
C4622 C4623 1.374 . S
C4623 H4603 0.950 . S
C4623 C4619 1.385 . S
C4623 C4622 1.374 . S
C4624 C4621 1.499 . S
C4624 C4625 1.373 . S
C4624 C4626 1.389 . S
C4625 H4604 0.950 . S
C4625 C4624 1.373 . S
C4625 C4641 1.377 . S
C4626 C4624 1.389 . S
C4626 C4627 1.524 . S
C4626 C4640 1.377 . S
C4627 C4626 1.524 . S
C4627 C4628 1.397 . S
C4627 C4632 1.363 . S
C4628 H4605 0.950 . S
C4628 C4627 1.397 . S
C4628 C4629 1.334 . S
C4629 H4606 0.950 . S
C4629 C4628 1.334 . S
C4629 C4630 1.287 . S
C4630 C4629 1.287 . S
C4630 C4631 1.524 . S
C4630 H4649 0.913 1_554 S
C4631 H4607 0.950 . S
C4631 C4630 1.524 . S
C4631 C4632 1.415 . S
C4632 H4608 0.950 . S
C4632 C4627 1.363 . S
C4632 C4631 1.415 . S
C4633 H4609 0.951 . S
C4633 C4634 1.366 . S
C4633 C4635 1.388 . S
C4634 C4633 1.366 . S
C4634 C4638 1.385 . S
C4635 H4610 0.951 . S
C4635 C4633 1.388 . S
C4635 C4636 1.366 . S
C4636 C4635 1.366 . S
C4636 C4637 1.414 . S
C4636 C4639 1.499 . S
C4637 H4611 0.950 . S
C4637 C4636 1.414 . S
C4637 C4638 1.374 . S
C4638 H4612 0.950 . S
C4638 C4634 1.385 . S
C4638 C4637 1.374 . S
C4639 C4636 1.499 . S
C4639 C4640 1.373 . S
C4639 C4641 1.389 . S
C4640 H4613 0.950 . S
C4640 C4626 1.377 . S
C4640 C4639 1.373 . S
C4641 C4625 1.377 . S
C4641 C4639 1.389 . S
C4641 C4642 1.524 . S
C4642 C4641 1.524 . S
C4642 C4643 1.397 . S
C4642 C4647 1.363 . S
C4643 H4614 0.950 . S
C4643 C4642 1.397 . S
C4643 C4644 1.334 . S
C4644 H4615 0.950 . S
C4644 C4643 1.334 . S
C4644 C4645 1.287 . S
C4645 C4644 1.287 . S
C4645 C4646 1.524 . S
C4645 H4648 0.999 . S
C4646 H4616 0.950 . S
C4646 C4645 1.524 . S
C4646 C4647 1.415 . S
C4647 H4617 0.950 . S
C4647 C4642 1.363 . S
C4647 C4646 1.415 . S
H4648 C4645 0.999 . S
H4649 C4630 0.913 1_556 S
H4650 C4668 0.951 1_554 S
H4651 C4670 0.951 . S
H4652 C4672 0.950 . S
H4653 C4673 0.950 . S
H4654 C4675 0.950 . S
H4655 C4678 0.950 . S
H4656 C4679 0.950 . S
H4657 C4681 0.950 . S
H4658 C4682 0.950 . S
H4659 C4683 0.951 . S
H4660 C4685 0.951 . S
H4661 C4687 0.950 . S
H4662 C4688 0.950 . S
H4663 C4690 0.950 . S
H4664 C4693 0.950 . S
H4665 C4694 0.950 . S
H4666 C4696 0.950 . S
H4667 C4697 0.950 . S
C4668 H4650 0.951 1_556 S
C4668 C4669 1.366 . S
C4668 C4670 1.388 . S
C4669 C4668 1.366 . S
C4669 C4673 1.385 . S
C4670 H4651 0.951 . S
C4670 C4668 1.388 . S
C4670 C4671 1.366 . S
C4671 C4670 1.366 . S
C4671 C4672 1.414 . S
C4671 C4674 1.499 . S
C4672 H4652 0.950 . S
C4672 C4671 1.414 . S
C4672 C4673 1.374 . S
C4673 H4653 0.950 . S
C4673 C4669 1.385 . S
C4673 C4672 1.374 . S
C4674 C4671 1.499 . S
C4674 C4675 1.373 . S
C4674 C4676 1.389 . S
C4675 H4654 0.950 . S
C4675 C4674 1.373 . S
C4675 C4691 1.377 . S
C4676 C4674 1.389 . S
C4676 C4677 1.524 . S
C4676 C4690 1.377 . S
C4677 C4676 1.524 . S
C4677 C4678 1.397 . S
C4677 C4682 1.363 . S
C4678 H4655 0.950 . S
C4678 C4677 1.397 . S
C4678 C4679 1.334 . S
C4679 H4656 0.950 . S
C4679 C4678 1.334 . S
C4679 C4680 1.287 1_556 S
C4680 C4679 1.287 1_554 S
C4680 C4681 1.524 . S
C4680 H4699 0.913 . S
C4681 H4657 0.950 . S
C4681 C4680 1.524 . S
C4681 C4682 1.415 1_554 S
C4682 H4658 0.950 . S
C4682 C4677 1.363 . S
C4682 C4681 1.415 1_556 S
C4683 H4659 0.951 . S
C4683 C4684 1.366 . S
C4683 C4685 1.388 . S
C4684 C4683 1.366 . S
C4684 C4688 1.385 . S
C4685 H4660 0.951 . S
C4685 C4683 1.388 . S
C4685 C4686 1.366 . S
C4686 C4685 1.366 . S
C4686 C4687 1.414 . S
C4686 C4689 1.499 . S
C4687 H4661 0.950 . S
C4687 C4686 1.414 . S
C4687 C4688 1.374 . S
C4688 H4662 0.950 . S
C4688 C4684 1.385 . S
C4688 C4687 1.374 . S
C4689 C4686 1.499 . S
C4689 C4690 1.373 . S
C4689 C4691 1.389 . S
C4690 H4663 0.950 . S
C4690 C4676 1.377 . S
C4690 C4689 1.373 . S
C4691 C4675 1.377 . S
C4691 C4689 1.389 . S
C4691 C4692 1.524 . S
C4692 C4691 1.524 . S
C4692 C4693 1.397 . S
C4692 C4697 1.363 . S
C4693 H4664 0.950 . S
C4693 C4692 1.397 . S
C4693 C4694 1.334 . S
C4694 H4665 0.950 . S
C4694 C4693 1.334 . S
C4694 C4695 1.287 . S
C4695 C4694 1.287 . S
C4695 C4696 1.524 . S
C4695 H4698 0.999 . S
C4696 H4666 0.950 . S
C4696 C4695 1.524 . S
C4696 C4697 1.415 . S
C4697 H4667 0.950 . S
C4697 C4692 1.363 . S
C4697 C4696 1.415 . S
H4698 C4695 0.999 . S
H4699 C4680 0.913 . S
H4700 C4718 0.951 . S
H4701 C4720 0.951 . S
H4702 C4722 0.950 . S
H4703 C4723 0.950 . S
H4704 C4725 0.950 . S
H4705 C4728 0.950 . S
H4706 C4729 0.950 1_554 S
H4707 C4731 0.950 . S
H4708 C4732 0.950 . S
H4709 C4733 0.951 . S
H4710 C4735 0.951 . S
H4711 C4737 0.950 . S
H4712 C4738 0.950 . S
H4713 C4740 0.950 . S
H4714 C4743 0.950 . S
H4715 C4744 0.950 . S
H4716 C4746 0.950 . S
H4717 C4747 0.950 . S
C4718 H4700 0.951 . S
C4718 C4719 1.366 . S
C4718 C4720 1.388 . S
C4719 C4718 1.366 . S
C4719 C4723 1.385 . S
C4720 H4701 0.951 . S
C4720 C4718 1.388 . S
C4720 C4721 1.366 . S
C4721 C4720 1.366 . S
C4721 C4722 1.414 . S
C4721 C4724 1.499 . S
C4722 H4702 0.950 . S
C4722 C4721 1.414 . S
C4722 C4723 1.374 . S
C4723 H4703 0.950 . S
C4723 C4719 1.385 . S
C4723 C4722 1.374 . S
C4724 C4721 1.499 . S
C4724 C4725 1.373 . S
C4724 C4726 1.389 . S
C4725 H4704 0.950 . S
C4725 C4724 1.373 . S
C4725 C4741 1.377 . S
C4726 C4724 1.389 . S
C4726 C4727 1.524 . S
C4726 C4740 1.377 . S
C4727 C4726 1.524 . S
C4727 C4728 1.397 . S
C4727 C4732 1.363 . S
C4728 H4705 0.950 . S
C4728 C4727 1.397 . S
C4728 C4729 1.334 . S
C4729 H4706 0.950 1_556 S
C4729 C4728 1.334 . S
C4729 C4730 1.287 1_556 S
C4730 C4729 1.287 1_554 S
C4730 C4731 1.524 . S
C4730 H4749 0.913 . S
C4731 H4707 0.950 . S
C4731 C4730 1.524 . S
C4731 C4732 1.415 1_554 S
C4732 H4708 0.950 . S
C4732 C4727 1.363 . S
C4732 C4731 1.415 1_556 S
C4733 H4709 0.951 . S
C4733 C4734 1.366 . S
C4733 C4735 1.388 . S
C4734 C4733 1.366 . S
C4734 C4738 1.385 . S
C4735 H4710 0.951 . S
C4735 C4733 1.388 . S
C4735 C4736 1.366 . S
C4736 C4735 1.366 . S
C4736 C4737 1.414 . S
C4736 C4739 1.499 . S
C4737 H4711 0.950 . S
C4737 C4736 1.414 . S
C4737 C4738 1.374 . S
C4738 H4712 0.950 . S
C4738 C4734 1.385 . S
C4738 C4737 1.374 . S
C4739 C4736 1.499 . S
C4739 C4740 1.373 . S
C4739 C4741 1.389 . S
C4740 H4713 0.950 . S
C4740 C4726 1.377 . S
C4740 C4739 1.373 . S
C4741 C4725 1.377 . S
C4741 C4739 1.389 . S
C4741 C4742 1.524 . S
C4742 C4741 1.524 . S
C4742 C4743 1.397 . S
C4742 C4747 1.363 . S
C4743 H4714 0.950 . S
C4743 C4742 1.397 . S
C4743 C4744 1.334 . S
C4744 H4715 0.950 . S
C4744 C4743 1.334 . S
C4744 C4745 1.287 . S
C4745 C4744 1.287 . S
C4745 C4746 1.524 . S
C4745 H4748 0.999 . S
C4746 H4716 0.950 . S
C4746 C4745 1.524 . S
C4746 C4747 1.415 . S
C4747 H4717 0.950 . S
C4747 C4742 1.363 . S
C4747 C4746 1.415 . S
H4748 C4745 0.999 . S
H4749 C4730 0.913 . S
H4750 C4768 0.951 . S
H4751 C4770 0.951 . S
H4752 C4772 0.950 . S
H4753 C4773 0.950 . S
H4754 C4775 0.950 . S
H4755 C4778 0.959 . S
H4756 C4779 0.950 . S
H4757 C4781 0.950 . S
H4758 C4782 0.950 . S
H4759 C4783 0.951 . S
H4760 C4785 0.951 . S
H4761 C4787 0.950 . S
H4762 C4788 0.950 . S
H4763 C4790 0.950 . S
H4764 C4793 0.950 . S
H4765 C4794 0.950 . S
H4766 C4796 0.950 . S
H4767 C4797 0.950 . S
C4768 H4750 0.951 . S
C4768 C4769 1.366 . S
C4768 C4770 1.388 . S
C4769 C4768 1.366 . S
C4769 C4773 1.385 . S
C4770 H4751 0.951 . S
C4770 C4768 1.388 . S
C4770 C4771 1.366 . S
C4771 C4770 1.366 . S
C4771 C4772 1.414 . S
C4771 C4774 1.499 . S
C4772 H4752 0.950 . S
C4772 C4771 1.414 . S
C4772 C4773 1.374 . S
C4773 H4753 0.950 . S
C4773 C4769 1.385 . S
C4773 C4772 1.374 . S
C4774 C4771 1.499 . S
C4774 C4775 1.373 . S
C4774 C4776 1.389 . S
C4775 H4754 0.950 . S
C4775 C4774 1.373 . S
C4775 C4791 1.377 . S
C4776 C4774 1.389 . S
C4776 C4777 1.524 . S
C4776 C4790 1.377 . S
C4777 C4776 1.524 . S
C4777 C4778 1.419 . S
C4777 C4782 1.363 . S
C4778 H4755 0.959 . S
C4778 C4777 1.419 . S
C4778 C4779 1.303 1_556 S
C4779 H4756 0.950 . S
C4779 C4778 1.303 1_554 S
C4779 C4780 1.287 . S
C4780 C4779 1.287 . S
C4780 C4781 1.524 . S
C4780 H4799 0.913 . S
C4781 H4757 0.950 . S
C4781 C4780 1.524 . S
C4781 C4782 1.415 1_554 S
C4782 H4758 0.950 . S
C4782 C4777 1.363 . S
C4782 C4781 1.415 1_556 S
C4783 H4759 0.951 . S
C4783 C4784 1.366 . S
C4783 C4785 1.388 . S
C4784 C4783 1.366 . S
C4784 C4788 1.385 . S
C4785 H4760 0.951 . S
C4785 C4783 1.388 . S
C4785 C4786 1.366 . S
C4786 C4785 1.366 . S
C4786 C4787 1.414 . S
C4786 C4789 1.499 . S
C4787 H4761 0.950 . S
C4787 C4786 1.414 . S
C4787 C4788 1.374 . S
C4788 H4762 0.950 . S
C4788 C4784 1.385 . S
C4788 C4787 1.374 . S
C4789 C4786 1.499 . S
C4789 C4790 1.373 . S
C4789 C4791 1.389 . S
C4790 H4763 0.950 . S
C4790 C4776 1.377 . S
C4790 C4789 1.373 . S
C4791 C4775 1.377 . S
C4791 C4789 1.389 . S
C4791 C4792 1.524 . S
C4792 C4791 1.524 . S
C4792 C4793 1.397 . S
C4792 C4797 1.363 . S
C4793 H4764 0.950 . S
C4793 C4792 1.397 . S
C4793 C4794 1.334 . S
C4794 H4765 0.950 . S
C4794 C4793 1.334 . S
C4794 C4795 1.287 . S
C4795 C4794 1.287 . S
C4795 C4796 1.524 . S
C4795 H4798 0.999 . S
C4796 H4766 0.950 . S
C4796 C4795 1.524 . S
C4796 C4797 1.415 . S
C4797 H4767 0.950 . S
C4797 C4792 1.363 . S
C4797 C4796 1.415 . S
H4798 C4795 0.999 . S
H4799 C4780 0.913 . S
H4800 C4818 0.951 1_554 S
H4801 C4820 0.951 . S
H4802 C4822 0.950 . S
H4803 C4823 0.950 . S
H4804 C4825 0.950 . S
H4805 C4828 0.950 . S
H4806 C4829 0.950 . S
H4807 C4831 0.950 1_554 S
H4808 C4832 0.950 . S
H4809 C4833 0.951 . S
H4810 C4835 0.951 . S
H4811 C4837 0.950 . S
H4812 C4838 0.950 . S
H4813 C4840 0.950 . S
H4814 C4843 0.950 . S
H4815 C4844 0.950 . S
H4816 C4846 0.950 . S
H4817 C4847 0.950 . S
C4818 H4800 0.951 1_556 S
C4818 C4819 1.366 . S
C4818 C4820 1.388 . S
C4819 C4818 1.366 . S
C4819 C4823 1.385 . S
C4820 H4801 0.951 . S
C4820 C4818 1.388 . S
C4820 C4821 1.366 . S
C4821 C4820 1.366 . S
C4821 C4822 1.414 . S
C4821 C4824 1.499 . S
C4822 H4802 0.950 . S
C4822 C4821 1.414 . S
C4822 C4823 1.374 . S
C4823 H4803 0.950 . S
C4823 C4819 1.385 . S
C4823 C4822 1.374 . S
C4824 C4821 1.499 . S
C4824 C4825 1.373 . S
C4824 C4826 1.389 . S
C4825 H4804 0.950 . S
C4825 C4824 1.373 . S
C4825 C4841 1.377 . S
C4826 C4824 1.389 . S
C4826 C4827 1.524 . S
C4826 C4840 1.377 . S
C4827 C4826 1.524 . S
C4827 C4828 1.397 . S
C4827 C4832 1.363 . S
C4828 H4805 0.950 . S
C4828 C4827 1.397 . S
C4828 C4829 1.334 . S
C4829 H4806 0.950 . S
C4829 C4828 1.334 . S
C4829 C4830 1.287 . S
C4830 C4829 1.287 . S
C4830 C4831 1.524 . S
C4830 H4849 0.913 . S
C4831 H4807 0.950 1_556 S
C4831 C4830 1.524 . S
C4831 C4832 1.415 . S
C4832 H4808 0.950 . S
C4832 C4827 1.363 . S
C4832 C4831 1.415 . S
C4833 H4809 0.951 . S
C4833 C4834 1.366 . S
C4833 C4835 1.388 . S
C4834 C4833 1.366 . S
C4834 C4838 1.385 . S
C4835 H4810 0.951 . S
C4835 C4833 1.388 . S
C4835 C4836 1.366 . S
C4836 C4835 1.366 . S
C4836 C4837 1.414 . S
C4836 C4839 1.499 . S
C4837 H4811 0.950 . S
C4837 C4836 1.414 . S
C4837 C4838 1.374 . S
C4838 H4812 0.950 . S
C4838 C4834 1.385 . S
C4838 C4837 1.374 . S
C4839 C4836 1.499 . S
C4839 C4840 1.373 . S
C4839 C4841 1.389 . S
C4840 H4813 0.950 . S
C4840 C4826 1.377 . S
C4840 C4839 1.373 . S
C4841 C4825 1.377 . S
C4841 C4839 1.389 . S
C4841 C4842 1.524 . S
C4842 C4841 1.524 . S
C4842 C4843 1.397 . S
C4842 C4847 1.363 . S
C4843 H4814 0.950 . S
C4843 C4842 1.397 . S
C4843 C4844 1.334 . S
C4844 H4815 0.950 . S
C4844 C4843 1.334 . S
C4844 C4845 1.287 . S
C4845 C4844 1.287 . S
C4845 C4846 1.524 . S
C4845 H4848 0.999 . S
C4846 H4816 0.950 . S
C4846 C4845 1.524 . S
C4846 C4847 1.415 . S
C4847 H4817 0.950 . S
C4847 C4842 1.363 . S
C4847 C4846 1.415 . S
H4848 C4845 0.999 . S
H4849 C4830 0.913 . S
H4850 C4868 0.951 . S
H4851 C4870 0.951 . S
H4852 C4872 0.950 . S
H4853 C4873 0.950 . S
H4854 C4875 0.950 . S
H4855 C4878 0.950 . S
H4856 C4879 0.950 . S
H4857 C4881 0.950 . S
H4858 C4882 0.950 . S
H4859 C4883 0.951 . S
H4860 C4885 0.951 . S
H4861 C4887 0.950 . S
H4862 C4888 0.950 . S
H4863 C4890 0.950 . S
H4864 C4893 0.950 . S
H4865 C4894 0.950 . S
H4866 C4896 0.950 . S
H4867 C4897 0.950 . S
C4868 H4850 0.951 . S
C4868 C4869 1.366 . S
C4868 C4870 1.388 . S
C4869 C4868 1.366 . S
C4869 C4873 1.385 . S
C4870 H4851 0.951 . S
C4870 C4868 1.388 . S
C4870 C4871 1.366 . S
C4871 C4870 1.366 . S
C4871 C4872 1.414 . S
C4871 C4874 1.499 . S
C4872 H4852 0.950 . S
C4872 C4871 1.414 . S
C4872 C4873 1.374 . S
C4873 H4853 0.950 . S
C4873 C4869 1.385 . S
C4873 C4872 1.374 . S
C4874 C4871 1.499 . S
C4874 C4875 1.373 . S
C4874 C4876 1.389 . S
C4875 H4854 0.950 . S
C4875 C4874 1.373 . S
C4875 C4891 1.377 . S
C4876 C4874 1.389 . S
C4876 C4877 1.524 . S
C4876 C4890 1.377 . S
C4877 C4876 1.524 . S
C4877 C4878 1.397 . S
C4877 C4882 1.363 . S
C4878 H4855 0.950 . S
C4878 C4877 1.397 . S
C4878 C4879 1.334 . S
C4879 H4856 0.950 . S
C4879 C4878 1.334 . S
C4879 C4880 1.287 1_556 S
C4880 C4879 1.287 1_554 S
C4880 C4881 1.524 . S
C4880 H4899 0.913 . S
C4881 H4857 0.950 . S
C4881 C4880 1.524 . S
C4881 C4882 1.415 1_554 S
C4882 H4858 0.950 . S
C4882 C4877 1.363 . S
C4882 C4881 1.415 1_556 S
C4883 H4859 0.951 . S
C4883 C4884 1.366 . S
C4883 C4885 1.388 . S
C4884 C4883 1.366 . S
C4884 C4888 1.385 . S
C4885 H4860 0.951 . S
C4885 C4883 1.388 . S
C4885 C4886 1.366 . S
C4886 C4885 1.366 . S
C4886 C4887 1.414 . S
C4886 C4889 1.499 . S
C4887 H4861 0.950 . S
C4887 C4886 1.414 . S
C4887 C4888 1.374 . S
C4888 H4862 0.950 . S
C4888 C4884 1.385 . S
C4888 C4887 1.374 . S
C4889 C4886 1.499 . S
C4889 C4890 1.373 . S
C4889 C4891 1.389 . S
C4890 H4863 0.950 . S
C4890 C4876 1.377 . S
C4890 C4889 1.373 . S
C4891 C4875 1.377 . S
C4891 C4889 1.389 . S
C4891 C4892 1.524 . S
C4892 C4891 1.524 . S
C4892 C4893 1.397 . S
C4892 C4897 1.363 . S
C4893 H4864 0.950 . S
C4893 C4892 1.397 . S
C4893 C4894 1.334 . S
C4894 H4865 0.950 . S
C4894 C4893 1.334 . S
C4894 C4895 1.287 . S
C4895 C4894 1.287 . S
C4895 C4896 1.524 . S
C4895 H4898 0.999 . S
C4896 H4866 0.950 . S
C4896 C4895 1.524 . S
C4896 C4897 1.415 . S
C4897 H4867 0.950 . S
C4897 C4892 1.363 . S
C4897 C4896 1.415 . S
H4898 C4895 0.999 . S
H4899 C4880 0.913 . S
H4900 C4918 0.951 . S
H4901 C4920 0.951 . S
H4902 C4922 0.950 . S
H4903 C4923 0.950 . S
H4904 C4925 0.950 . S
H4905 C4928 0.950 . S
H4906 C4929 0.950 . S
H4907 C4931 0.950 . S
H4908 C4932 0.950 . S
H4909 C4933 0.951 . S
H4910 C4935 0.951 . S
H4911 C4937 0.950 . S
H4912 C4938 0.950 . S
H4913 C4940 0.950 . S
H4914 C4943 0.950 . S
H4915 C4944 0.950 . S
H4916 C4946 0.950 . S
H4917 C4947 0.950 . S
C4918 H4900 0.951 . S
C4918 C4919 1.366 . S
C4918 C4920 1.388 . S
C4919 C4918 1.366 . S
C4919 C4923 1.385 . S
C4920 H4901 0.951 . S
C4920 C4918 1.388 . S
C4920 C4921 1.366 . S
C4921 C4920 1.366 . S
C4921 C4922 1.414 . S
C4921 C4924 1.499 . S
C4922 H4902 0.950 . S
C4922 C4921 1.414 . S
C4922 C4923 1.374 . S
C4923 H4903 0.950 . S
C4923 C4919 1.385 . S
C4923 C4922 1.374 . S
C4924 C4921 1.499 . S
C4924 C4925 1.373 . S
C4924 C4926 1.389 . S
C4925 H4904 0.950 . S
C4925 C4924 1.373 . S
C4925 C4941 1.377 . S
C4926 C4924 1.389 . S
C4926 C4927 1.524 . S
C4926 C4940 1.377 . S
C4927 C4926 1.524 . S
C4927 C4928 1.397 . S
C4927 C4932 1.363 . S
C4928 H4905 0.950 . S
C4928 C4927 1.397 . S
C4928 C4929 1.334 . S
C4929 H4906 0.950 . S
C4929 C4928 1.334 . S
C4929 C4930 1.287 . S
C4930 C4929 1.287 . S
C4930 C4931 1.524 . S
C4930 H4949 0.913 . S
C4931 H4907 0.950 . S
C4931 C4930 1.524 . S
C4931 C4932 1.415 . S
C4932 H4908 0.950 . S
C4932 C4927 1.363 . S
C4932 C4931 1.415 . S
C4933 H4909 0.951 . S
C4933 C4934 1.366 . S
C4933 C4935 1.388 . S
C4934 C4933 1.366 . S
C4934 C4938 1.385 . S
C4935 H4910 0.951 . S
C4935 C4933 1.388 . S
C4935 C4936 1.366 . S
C4936 C4935 1.366 . S
C4936 C4937 1.414 . S
C4936 C4939 1.499 . S
C4937 H4911 0.950 . S
C4937 C4936 1.414 . S
C4937 C4938 1.374 . S
C4938 H4912 0.950 . S
C4938 C4934 1.385 . S
C4938 C4937 1.374 . S
C4939 C4936 1.499 . S
C4939 C4940 1.373 . S
C4939 C4941 1.389 . S
C4940 H4913 0.950 . S
C4940 C4926 1.377 . S
C4940 C4939 1.373 . S
C4941 C4925 1.377 . S
C4941 C4939 1.389 . S
C4941 C4942 1.524 . S
C4942 C4941 1.524 . S
C4942 C4943 1.397 . S
C4942 C4947 1.363 . S
C4943 H4914 0.950 . S
C4943 C4942 1.397 . S
C4943 C4944 1.334 . S
C4944 H4915 0.950 . S
C4944 C4943 1.334 . S
C4944 C4945 1.287 . S
C4945 C4944 1.287 . S
C4945 C4946 1.524 . S
C4945 H4948 0.999 . S
C4946 H4916 0.950 . S
C4946 C4945 1.524 . S
C4946 C4947 1.415 . S
C4947 H4917 0.950 . S
C4947 C4942 1.363 . S
C4947 C4946 1.415 . S
H4948 C4945 0.999 . S
H4949 C4930 0.913 . S
H4950 C4968 0.951 . S
H4951 C4970 0.951 . S
H4952 C4972 0.950 . S
H4953 C4973 0.950 . S
H4954 C4975 0.950 . S
H4955 C4978 0.950 . S
H4956 C4979 0.950 . S
H4957 C4981 0.950 . S
H4958 C4982 0.950 . S
H4959 C4983 0.951 . S
H4960 C4985 0.951 . S
H4961 C4987 0.950 . S
H4962 C4988 0.950 . S
H4963 C4990 0.950 . S
H4964 C4993 0.950 . S
H4965 C4994 0.950 . S
H4966 C4996 0.950 . S
H4967 C4997 0.950 . S
C4968 H4950 0.951 . S
C4968 C4969 1.366 . S
C4968 C4970 1.388 . S
C4969 C4968 1.366 . S
C4969 C4973 1.385 . S
C4970 H4951 0.951 . S
C4970 C4968 1.388 . S
C4970 C4971 1.366 . S
C4971 C4970 1.366 . S
C4971 C4972 1.414 . S
C4971 C4974 1.499 . S
C4972 H4952 0.950 . S
C4972 C4971 1.414 . S
C4972 C4973 1.374 . S
C4973 H4953 0.950 . S
C4973 C4969 1.385 . S
C4973 C4972 1.374 . S
C4974 C4971 1.499 . S
C4974 C4975 1.373 . S
C4974 C4976 1.389 . S
C4975 H4954 0.950 . S
C4975 C4974 1.373 . S
C4975 C4991 1.377 . S
C4976 C4974 1.389 . S
C4976 C4977 1.524 . S
C4976 C4990 1.377 . S
C4977 C4976 1.524 . S
C4977 C4978 1.397 . S
C4977 C4982 1.363 . S
C4978 H4955 0.950 . S
C4978 C4977 1.397 . S
C4978 C4979 1.334 . S
C4979 H4956 0.950 . S
C4979 C4978 1.334 . S
C4979 C4980 1.287 . S
C4980 C4979 1.287 . S
C4980 C4981 1.524 . S
C4980 H4999 0.913 . S
C4981 H4957 0.950 . S
C4981 C4980 1.524 . S
C4981 C4982 1.415 . S
C4982 H4958 0.950 . S
C4982 C4977 1.363 . S
C4982 C4981 1.415 . S
C4983 H4959 0.951 . S
C4983 C4984 1.366 . S
C4983 C4985 1.388 . S
C4984 C4983 1.366 . S
C4984 C4988 1.385 . S
C4985 H4960 0.951 . S
C4985 C4983 1.388 . S
C4985 C4986 1.366 . S
C4986 C4985 1.366 . S
C4986 C4987 1.414 . S
C4986 C4989 1.499 . S
C4987 H4961 0.950 . S
C4987 C4986 1.414 . S
C4987 C4988 1.374 . S
C4988 H4962 0.950 . S
C4988 C4984 1.385 . S
C4988 C4987 1.374 . S
C4989 C4986 1.499 . S
C4989 C4990 1.373 . S
C4989 C4991 1.389 . S
C4990 H4963 0.950 . S
C4990 C4976 1.377 . S
C4990 C4989 1.373 . S
C4991 C4975 1.377 . S
C4991 C4989 1.389 . S
C4991 C4992 1.524 . S
C4992 C4991 1.524 . S
C4992 C4993 1.397 . S
C4992 C4997 1.363 . S
C4993 H4964 0.950 . S
C4993 C4992 1.397 . S
C4993 C4994 1.334 . S
C4994 H4965 0.950 . S
C4994 C4993 1.334 . S
C4994 C4995 1.287 . S
C4995 C4994 1.287 . S
C4995 C4996 1.524 . S
C4995 H4998 0.999 . S
C4996 H4966 0.950 . S
C4996 C4995 1.524 . S
C4996 C4997 1.415 . S
C4997 H4967 0.950 . S
C4997 C4992 1.363 . S
C4997 C4996 1.415 . S
H4998 C4995 0.999 . S
H4999 C4980 0.913 . S
H5000 C5018 0.951 . S
H5001 C5020 0.951 . S
H5002 C5022 0.950 . S
H5003 C5023 0.950 . S
H5004 C5025 0.950 . S
H5005 C5028 0.950 . S
H5006 C5029 0.950 . S
H5007 C5031 0.950 . S
H5008 C5032 0.950 . S
H5009 C5033 0.951 . S
H5010 C5035 0.951 . S
H5011 C5037 0.950 . S
H5012 C5038 0.950 . S
H5013 C5040 0.950 . S
H5014 C5043 0.950 . S
H5015 C5044 0.950 . S
H5016 C5046 0.950 . S
H5017 C5047 0.950 . S
C5018 H5000 0.951 . S
C5018 C5019 1.366 . S
C5018 C5020 1.388 . S
C5019 C5018 1.366 . S
C5019 C5023 1.385 . S
C5020 H5001 0.951 . S
C5020 C5018 1.388 . S
C5020 C5021 1.366 . S
C5021 C5020 1.366 . S
C5021 C5022 1.414 . S
C5021 C5024 1.499 . S
C5022 H5002 0.950 . S
C5022 C5021 1.414 . S
C5022 C5023 1.374 . S
C5023 H5003 0.950 . S
C5023 C5019 1.385 . S
C5023 C5022 1.374 . S
C5024 C5021 1.499 . S
C5024 C5025 1.373 . S
C5024 C5026 1.389 . S
C5025 H5004 0.950 . S
C5025 C5024 1.373 . S
C5025 C5041 1.377 . S
C5026 C5024 1.389 . S
C5026 C5027 1.524 . S
C5026 C5040 1.377 . S
C5027 C5026 1.524 . S
C5027 C5028 1.397 . S
C5027 C5032 1.363 . S
C5028 H5005 0.950 . S
C5028 C5027 1.397 . S
C5028 C5029 1.334 . S
C5029 H5006 0.950 . S
C5029 C5028 1.334 . S
C5029 C5030 1.287 . S
C5030 C5029 1.287 . S
C5030 C5031 1.524 . S
C5030 H5049 0.913 . S
C5031 H5007 0.950 . S
C5031 C5030 1.524 . S
C5031 C5032 1.415 . S
C5032 H5008 0.950 . S
C5032 C5027 1.363 . S
C5032 C5031 1.415 . S
C5033 H5009 0.951 . S
C5033 C5034 1.366 . S
C5033 C5035 1.388 . S
C5034 C5033 1.366 . S
C5034 C5038 1.385 . S
C5035 H5010 0.951 . S
C5035 C5033 1.388 . S
C5035 C5036 1.366 . S
C5036 C5035 1.366 . S
C5036 C5037 1.414 . S
C5036 C5039 1.499 . S
C5037 H5011 0.950 . S
C5037 C5036 1.414 . S
C5037 C5038 1.374 . S
C5038 H5012 0.950 . S
C5038 C5034 1.385 . S
C5038 C5037 1.374 . S
C5039 C5036 1.499 . S
C5039 C5040 1.373 . S
C5039 C5041 1.389 . S
C5040 H5013 0.950 . S
C5040 C5026 1.377 . S
C5040 C5039 1.373 . S
C5041 C5025 1.377 . S
C5041 C5039 1.389 . S
C5041 C5042 1.524 . S
C5042 C5041 1.524 . S
C5042 C5043 1.397 . S
C5042 C5047 1.363 . S
C5043 H5014 0.950 . S
C5043 C5042 1.397 . S
C5043 C5044 1.334 . S
C5044 H5015 0.950 . S
C5044 C5043 1.334 . S
C5044 C5045 1.287 . S
C5045 C5044 1.287 . S
C5045 C5046 1.524 . S
C5045 H5048 0.999 . S
C5046 H5016 0.950 . S
C5046 C5045 1.524 . S
C5046 C5047 1.415 . S
C5047 H5017 0.950 . S
C5047 C5042 1.363 . S
C5047 C5046 1.415 . S
H5048 C5045 0.999 . S
H5049 C5030 0.913 . S
H5050 C5068 0.951 . S
H5051 C5070 0.951 . S
H5052 C5072 0.950 . S
H5053 C5073 0.950 . S
H5054 C5075 0.950 . S
H5055 C5078 0.950 . S
H5056 C5079 0.950 . S
H5057 C5081 0.950 . S
H5058 C5082 0.950 . S
H5059 C5083 0.951 . S
H5060 C5085 0.951 . S
H5061 C5087 0.950 . S
H5062 C5088 0.950 . S
H5063 C5090 0.950 . S
H5064 C5093 0.950 . S
H5065 C5094 0.950 . S
H5066 C5096 0.950 . S
H5067 C5097 0.950 . S
C5068 H5050 0.951 . S
C5068 C5069 1.366 . S
C5068 C5070 1.388 . S
C5069 C5068 1.366 . S
C5069 C5073 1.385 . S
C5070 H5051 0.951 . S
C5070 C5068 1.388 . S
C5070 C5071 1.366 . S
C5071 C5070 1.366 . S
C5071 C5072 1.414 . S
C5071 C5074 1.499 . S
C5072 H5052 0.950 . S
C5072 C5071 1.414 . S
C5072 C5073 1.374 . S
C5073 H5053 0.950 . S
C5073 C5069 1.385 . S
C5073 C5072 1.374 . S
C5074 C5071 1.499 . S
C5074 C5075 1.373 . S
C5074 C5076 1.389 . S
C5075 H5054 0.950 . S
C5075 C5074 1.373 . S
C5075 C5091 1.377 . S
C5076 C5074 1.389 . S
C5076 C5077 1.524 . S
C5076 C5090 1.377 . S
C5077 C5076 1.524 . S
C5077 C5078 1.397 . S
C5077 C5082 1.363 . S
C5078 H5055 0.950 . S
C5078 C5077 1.397 . S
C5078 C5079 1.334 . S
C5079 H5056 0.950 . S
C5079 C5078 1.334 . S
C5079 C5080 1.287 . S
C5080 C5079 1.287 . S
C5080 C5081 1.524 . S
C5080 H5099 0.913 . S
C5081 H5057 0.950 . S
C5081 C5080 1.524 . S
C5081 C5082 1.415 . S
C5082 H5058 0.950 . S
C5082 C5077 1.363 . S
C5082 C5081 1.415 . S
C5083 H5059 0.951 . S
C5083 C5084 1.366 . S
C5083 C5085 1.388 . S
C5084 C5083 1.366 . S
C5084 C5088 1.385 . S
C5085 H5060 0.951 . S
C5085 C5083 1.388 . S
C5085 C5086 1.366 . S
C5086 C5085 1.366 . S
C5086 C5087 1.414 . S
C5086 C5089 1.499 . S
C5087 H5061 0.950 . S
C5087 C5086 1.414 . S
C5087 C5088 1.374 . S
C5088 H5062 0.950 . S
C5088 C5084 1.385 . S
C5088 C5087 1.374 . S
C5089 C5086 1.499 . S
C5089 C5090 1.373 . S
C5089 C5091 1.389 . S
C5090 H5063 0.950 . S
C5090 C5076 1.377 . S
C5090 C5089 1.373 . S
C5091 C5075 1.377 . S
C5091 C5089 1.389 . S
C5091 C5092 1.524 . S
C5092 C5091 1.524 . S
C5092 C5093 1.397 . S
C5092 C5097 1.363 . S
C5093 H5064 0.950 . S
C5093 C5092 1.397 . S
C5093 C5094 1.334 . S
C5094 H5065 0.950 . S
C5094 C5093 1.334 . S
C5094 C5095 1.287 . S
C5095 C5094 1.287 . S
C5095 C5096 1.524 . S
C5095 H5098 0.999 . S
C5096 H5066 0.950 . S
C5096 C5095 1.524 . S
C5096 C5097 1.415 . S
C5097 H5067 0.950 . S
C5097 C5092 1.363 . S
C5097 C5096 1.415 . S
H5098 C5095 0.999 . S
H5099 C5080 0.913 . S
H5100 C5118 0.951 . S
H5101 C5120 0.951 . S
H5102 C5122 0.950 . S
H5103 C5123 0.950 . S
H5104 C5125 0.950 . S
H5105 C5128 0.950 . S
H5106 C5129 0.950 . S
H5107 C5131 0.950 . S
H5108 C5132 0.950 . S
H5109 C5133 0.951 . S
H5110 C5135 0.951 . S
H5111 C5137 0.950 . S
H5112 C5138 0.950 . S
H5113 C5140 0.950 . S
H5114 C5143 0.950 . S
H5115 C5144 0.950 . S
H5116 C5146 0.950 . S
H5117 C5147 0.950 . S
C5118 H5100 0.951 . S
C5118 C5119 1.366 . S
C5118 C5120 1.388 . S
C5119 C5118 1.366 . S
C5119 C5123 1.385 . S
C5120 H5101 0.951 . S
C5120 C5118 1.388 . S
C5120 C5121 1.366 . S
C5121 C5120 1.366 . S
C5121 C5122 1.414 . S
C5121 C5124 1.499 . S
C5122 H5102 0.950 . S
C5122 C5121 1.414 . S
C5122 C5123 1.374 . S
C5123 H5103 0.950 . S
C5123 C5119 1.385 . S
C5123 C5122 1.374 . S
C5124 C5121 1.499 . S
C5124 C5125 1.373 . S
C5124 C5126 1.389 . S
C5125 H5104 0.950 . S
C5125 C5124 1.373 . S
C5125 C5141 1.377 . S
C5126 C5124 1.389 . S
C5126 C5127 1.524 . S
C5126 C5140 1.377 . S
C5127 C5126 1.524 . S
C5127 C5128 1.397 . S
C5127 C5132 1.363 . S
C5128 H5105 0.950 . S
C5128 C5127 1.397 . S
C5128 C5129 1.334 . S
C5129 H5106 0.950 . S
C5129 C5128 1.334 . S
C5129 C5130 1.287 . S
C5130 C5129 1.287 . S
C5130 C5131 1.524 . S
C5130 H5149 0.913 . S
C5131 H5107 0.950 . S
C5131 C5130 1.524 . S
C5131 C5132 1.415 . S
C5132 H5108 0.950 . S
C5132 C5127 1.363 . S
C5132 C5131 1.415 . S
C5133 H5109 0.951 . S
C5133 C5134 1.366 . S
C5133 C5135 1.388 . S
C5134 C5133 1.366 . S
C5134 C5138 1.385 . S
C5135 H5110 0.951 . S
C5135 C5133 1.388 . S
C5135 C5136 1.366 . S
C5136 C5135 1.366 . S
C5136 C5137 1.414 . S
C5136 C5139 1.499 . S
C5137 H5111 0.950 . S
C5137 C5136 1.414 . S
C5137 C5138 1.374 . S
C5138 H5112 0.950 . S
C5138 C5134 1.385 . S
C5138 C5137 1.374 . S
C5139 C5136 1.499 . S
C5139 C5140 1.373 . S
C5139 C5141 1.389 . S
C5140 H5113 0.950 . S
C5140 C5126 1.377 . S
C5140 C5139 1.373 . S
C5141 C5125 1.377 . S
C5141 C5139 1.389 . S
C5141 C5142 1.524 . S
C5142 C5141 1.524 . S
C5142 C5143 1.397 . S
C5142 C5147 1.363 . S
C5143 H5114 0.950 . S
C5143 C5142 1.397 . S
C5143 C5144 1.334 . S
C5144 H5115 0.950 . S
C5144 C5143 1.334 . S
C5144 C5145 1.287 . S
C5145 C5144 1.287 . S
C5145 C5146 1.524 . S
C5145 H5148 0.999 . S
C5146 H5116 0.950 . S
C5146 C5145 1.524 . S
C5146 C5147 1.415 . S
C5147 H5117 0.950 . S
C5147 C5142 1.363 . S
C5147 C5146 1.415 . S
H5148 C5145 0.999 . S
H5149 C5130 0.913 . S
H5150 C5168 0.951 . S
H5151 C5170 0.951 . S
H5152 C5172 0.950 . S
H5153 C5173 0.950 . S
H5154 C5175 0.950 . S
H5155 C5178 0.950 . S
H5156 C5179 0.950 . S
H5157 C5181 0.950 . S
H5158 C5182 0.950 . S
H5159 C5183 0.951 . S
H5160 C5185 0.951 . S
H5161 C5187 0.950 . S
H5162 C5188 0.950 . S
H5163 C5190 0.950 . S
H5164 C5193 0.950 . S
H5165 C5194 0.950 . S
H5166 C5196 0.950 . S
H5167 C5197 0.950 . S
C5168 H5150 0.951 . S
C5168 C5169 1.366 . S
C5168 C5170 1.388 . S
C5169 C5168 1.366 . S
C5169 C5173 1.385 . S
C5170 H5151 0.951 . S
C5170 C5168 1.388 . S
C5170 C5171 1.366 . S
C5171 C5170 1.366 . S
C5171 C5172 1.414 . S
C5171 C5174 1.499 . S
C5172 H5152 0.950 . S
C5172 C5171 1.414 . S
C5172 C5173 1.374 . S
C5173 H5153 0.950 . S
C5173 C5169 1.385 . S
C5173 C5172 1.374 . S
C5174 C5171 1.499 . S
C5174 C5175 1.373 . S
C5174 C5176 1.389 . S
C5175 H5154 0.950 . S
C5175 C5174 1.373 . S
C5175 C5191 1.377 . S
C5176 C5174 1.389 . S
C5176 C5177 1.524 . S
C5176 C5190 1.377 . S
C5177 C5176 1.524 . S
C5177 C5178 1.397 . S
C5177 C5182 1.363 . S
C5178 H5155 0.950 . S
C5178 C5177 1.397 . S
C5178 C5179 1.334 . S
C5179 H5156 0.950 . S
C5179 C5178 1.334 . S
C5179 C5180 1.287 . S
C5180 C5179 1.287 . S
C5180 C5181 1.524 . S
C5180 H5199 0.913 . S
C5181 H5157 0.950 . S
C5181 C5180 1.524 . S
C5181 C5182 1.415 . S
C5182 H5158 0.950 . S
C5182 C5177 1.363 . S
C5182 C5181 1.415 . S
C5183 H5159 0.951 . S
C5183 C5184 1.366 . S
C5183 C5185 1.388 . S
C5184 C5183 1.366 . S
C5184 C5188 1.385 . S
C5185 H5160 0.951 . S
C5185 C5183 1.388 . S
C5185 C5186 1.366 . S
C5186 C5185 1.366 . S
C5186 C5187 1.414 . S
C5186 C5189 1.499 . S
C5187 H5161 0.950 . S
C5187 C5186 1.414 . S
C5187 C5188 1.374 . S
C5188 H5162 0.950 . S
C5188 C5184 1.385 . S
C5188 C5187 1.374 . S
C5189 C5186 1.499 . S
C5189 C5190 1.373 . S
C5189 C5191 1.389 . S
C5190 H5163 0.950 . S
C5190 C5176 1.377 . S
C5190 C5189 1.373 . S
C5191 C5175 1.377 . S
C5191 C5189 1.389 . S
C5191 C5192 1.524 . S
C5192 C5191 1.524 . S
C5192 C5193 1.397 . S
C5192 C5197 1.363 . S
C5193 H5164 0.950 . S
C5193 C5192 1.397 . S
C5193 C5194 1.334 . S
C5194 H5165 0.950 . S
C5194 C5193 1.334 . S
C5194 C5195 1.287 . S
C5195 C5194 1.287 . S
C5195 C5196 1.524 . S
C5195 H5198 0.999 . S
C5196 H5166 0.950 . S
C5196 C5195 1.524 . S
C5196 C5197 1.415 . S
C5197 H5167 0.950 . S
C5197 C5192 1.363 . S
C5197 C5196 1.415 . S
H5198 C5195 0.999 . S
H5199 C5180 0.913 . S
H5200 C5218 0.951 . S
H5201 C5220 0.951 . S
H5202 C5222 0.950 . S
H5203 C5223 0.950 . S
H5204 C5225 0.950 . S
H5205 C5228 0.950 . S
H5206 C5229 0.950 . S
H5207 C5231 0.950 . S
H5208 C5232 0.950 . S
H5209 C5233 0.951 . S
H5210 C5235 0.951 . S
H5211 C5237 0.950 . S
H5212 C5238 0.950 . S
H5213 C5240 0.950 . S
H5214 C5243 0.950 . S
H5215 C5244 0.950 . S
H5216 C5246 0.950 . S
H5217 C5247 0.950 . S
C5218 H5200 0.951 . S
C5218 C5219 1.366 . S
C5218 C5220 1.388 . S
C5219 C5218 1.366 . S
C5219 C5223 1.385 . S
C5220 H5201 0.951 . S
C5220 C5218 1.388 . S
C5220 C5221 1.366 . S
C5221 C5220 1.366 . S
C5221 C5222 1.414 . S
C5221 C5224 1.499 . S
C5222 H5202 0.950 . S
C5222 C5221 1.414 . S
C5222 C5223 1.374 . S
C5223 H5203 0.950 . S
C5223 C5219 1.385 . S
C5223 C5222 1.374 . S
C5224 C5221 1.499 . S
C5224 C5225 1.373 . S
C5224 C5226 1.389 . S
C5225 H5204 0.950 . S
C5225 C5224 1.373 . S
C5225 C5241 1.377 . S
C5226 C5224 1.389 . S
C5226 C5227 1.524 . S
C5226 C5240 1.377 . S
C5227 C5226 1.524 . S
C5227 C5228 1.397 . S
C5227 C5232 1.363 . S
C5228 H5205 0.950 . S
C5228 C5227 1.397 . S
C5228 C5229 1.334 . S
C5229 H5206 0.950 . S
C5229 C5228 1.334 . S
C5229 C5230 1.287 . S
C5230 C5229 1.287 . S
C5230 C5231 1.524 . S
C5230 H5249 0.913 . S
C5231 H5207 0.950 . S
C5231 C5230 1.524 . S
C5231 C5232 1.415 . S
C5232 H5208 0.950 . S
C5232 C5227 1.363 . S
C5232 C5231 1.415 . S
C5233 H5209 0.951 . S
C5233 C5234 1.366 . S
C5233 C5235 1.388 . S
C5234 C5233 1.366 . S
C5234 C5238 1.385 . S
C5235 H5210 0.951 . S
C5235 C5233 1.388 . S
C5235 C5236 1.366 . S
C5236 C5235 1.366 . S
C5236 C5237 1.414 . S
C5236 C5239 1.499 . S
C5237 H5211 0.950 . S
C5237 C5236 1.414 . S
C5237 C5238 1.374 . S
C5238 H5212 0.950 . S
C5238 C5234 1.385 . S
C5238 C5237 1.374 . S
C5239 C5236 1.499 . S
C5239 C5240 1.373 . S
C5239 C5241 1.389 . S
C5240 H5213 0.950 . S
C5240 C5226 1.377 . S
C5240 C5239 1.373 . S
C5241 C5225 1.377 . S
C5241 C5239 1.389 . S
C5241 C5242 1.524 . S
C5242 C5241 1.524 . S
C5242 C5243 1.397 . S
C5242 C5247 1.363 . S
C5243 H5214 0.950 . S
C5243 C5242 1.397 . S
C5243 C5244 1.334 . S
C5244 H5215 0.950 . S
C5244 C5243 1.334 . S
C5244 C5245 1.287 . S
C5245 C5244 1.287 . S
C5245 C5246 1.524 . S
C5245 H5248 0.999 . S
C5246 H5216 0.950 . S
C5246 C5245 1.524 . S
C5246 C5247 1.415 . S
C5247 H5217 0.950 . S
C5247 C5242 1.363 . S
C5247 C5246 1.415 . S
H5248 C5245 0.999 . S
H5249 C5230 0.913 . S
H5250 C5268 0.951 . S
H5251 C5270 0.951 . S
H5252 C5272 0.995 . S
H5253 C5273 0.935 1_655 S
H5254 C5275 0.957 1_655 S
H5255 C5278 0.950 . S
H5256 C5279 0.950 . S
H5257 C5281 0.950 . S
H5258 C5282 0.950 . S
H5259 C5283 0.951 . S
H5260 C5285 0.951 . S
H5261 C5287 0.950 . S
H5262 C5288 0.950 . S
H5263 C5290 0.950 . S
H5264 C5293 0.950 . S
H5265 C5294 0.966 . S
H5266 C5296 0.950 . S
H5267 C5297 0.950 . S
C5268 H5250 0.951 . S
C5268 C5269 1.366 . S
C5268 C5270 1.388 . S
C5269 C5268 1.366 . S
C5269 C5273 1.416 . S
C5270 H5251 0.951 . S
C5270 C5268 1.388 . S
C5270 C5271 1.366 . S
C5271 C5270 1.366 . S
C5271 C5272 1.393 1_455 S
C5271 C5274 1.499 . S
C5272 H5252 0.995 . S
C5272 C5271 1.393 1_655 S
C5272 C5273 1.336 1_655 S
C5273 H5253 0.935 1_455 S
C5273 C5269 1.416 . S
C5273 C5272 1.336 1_455 S
C5274 C5271 1.499 . S
C5274 C5275 1.373 . S
C5274 C5276 1.389 . S
C5275 H5254 0.957 1_455 S
C5275 C5274 1.373 . S
C5275 C5291 1.377 . S
C5276 C5274 1.389 . S
C5276 C5277 1.524 . S
C5276 C5290 1.377 . S
C5277 C5276 1.524 . S
C5277 C5278 1.397 . S
C5277 C5282 1.363 . S
C5278 H5255 0.950 . S
C5278 C5277 1.397 . S
C5278 C5279 1.334 . S
C5279 H5256 0.950 . S
C5279 C5278 1.334 . S
C5279 C5280 1.287 . S
C5280 C5279 1.287 . S
C5280 C5281 1.524 . S
C5280 H5299 0.913 . S
C5281 H5257 0.950 . S
C5281 C5280 1.524 . S
C5281 C5282 1.415 . S
C5282 H5258 0.950 . S
C5282 C5277 1.363 . S
C5282 C5281 1.415 . S
C5283 H5259 0.951 . S
C5283 C5284 1.366 1_655 S
C5283 C5285 1.388 . S
C5284 C5283 1.366 1_455 S
C5284 C5288 1.385 . S
C5285 H5260 0.951 . S
C5285 C5283 1.388 . S
C5285 C5286 1.366 1_655 S
C5286 C5285 1.366 1_455 S
C5286 C5287 1.414 . S
C5286 C5289 1.499 . S
C5287 H5261 0.950 . S
C5287 C5286 1.414 . S
C5287 C5288 1.374 . S
C5288 H5262 0.950 . S
C5288 C5284 1.385 . S
C5288 C5287 1.374 . S
C5289 C5286 1.499 . S
C5289 C5290 1.373 . S
C5289 C5291 1.389 . S
C5290 H5263 0.950 . S
C5290 C5276 1.377 . S
C5290 C5289 1.373 . S
C5291 C5275 1.377 . S
C5291 C5289 1.389 . S
C5291 C5292 1.524 1_455 S
C5292 C5291 1.524 1_655 S
C5292 C5293 1.397 1_655 S
C5292 C5297 1.363 . S
C5293 H5264 0.950 . S
C5293 C5292 1.397 1_455 S
C5293 C5294 1.344 . S
C5294 H5265 0.966 . S
C5294 C5293 1.344 . S
C5294 C5295 1.262 1_455 S
C5295 C5294 1.262 1_655 S
C5295 C5296 1.524 . S
C5295 H5298 0.999 . S
C5296 H5266 0.950 . S
C5296 C5295 1.524 . S
C5296 C5297 1.415 . S
C5297 H5267 0.950 . S
C5297 C5292 1.363 . S
C5297 C5296 1.415 . S
H5298 C5295 0.999 . S
H5299 C5280 0.913 . S
H5300 C5318 0.951 . S
H5301 C5320 0.951 . S
H5302 C5322 0.950 . S
H5303 C5323 0.950 . S
H5304 C5325 0.950 . S
H5305 C5328 0.950 . S
H5306 C5329 0.950 . S
H5307 C5331 0.950 . S
H5308 C5332 0.950 . S
H5309 C5333 0.951 . S
H5310 C5335 0.951 . S
H5311 C5337 0.950 . S
H5312 C5338 0.950 . S
H5313 C5340 0.950 . S
H5314 C5343 0.950 . S
H5315 C5344 0.950 . S
H5316 C5346 0.950 . S
H5317 C5347 0.950 . S
C5318 H5300 0.951 . S
C5318 C5319 1.366 . S
C5318 C5320 1.388 . S
C5319 C5318 1.366 . S
C5319 C5323 1.385 . S
C5320 H5301 0.951 . S
C5320 C5318 1.388 . S
C5320 C5321 1.366 . S
C5321 C5320 1.366 . S
C5321 C5322 1.414 . S
C5321 C5324 1.499 . S
C5322 H5302 0.950 . S
C5322 C5321 1.414 . S
C5322 C5323 1.374 . S
C5323 H5303 0.950 . S
C5323 C5319 1.385 . S
C5323 C5322 1.374 . S
C5324 C5321 1.499 . S
C5324 C5325 1.373 . S
C5324 C5326 1.389 . S
C5325 H5304 0.950 . S
C5325 C5324 1.373 . S
C5325 C5341 1.377 . S
C5326 C5324 1.389 . S
C5326 C5327 1.524 . S
C5326 C5340 1.377 . S
C5327 C5326 1.524 . S
C5327 C5328 1.397 . S
C5327 C5332 1.363 . S
C5328 H5305 0.950 . S
C5328 C5327 1.397 . S
C5328 C5329 1.334 . S
C5329 H5306 0.950 . S
C5329 C5328 1.334 . S
C5329 C5330 1.287 . S
C5330 C5329 1.287 . S
C5330 C5331 1.524 . S
C5330 H5349 0.913 . S
C5331 H5307 0.950 . S
C5331 C5330 1.524 . S
C5331 C5332 1.415 . S
C5332 H5308 0.950 . S
C5332 C5327 1.363 . S
C5332 C5331 1.415 . S
C5333 H5309 0.951 . S
C5333 C5334 1.366 . S
C5333 C5335 1.388 . S
C5334 C5333 1.366 . S
C5334 C5338 1.385 . S
C5335 H5310 0.951 . S
C5335 C5333 1.388 . S
C5335 C5336 1.366 . S
C5336 C5335 1.366 . S
C5336 C5337 1.414 . S
C5336 C5339 1.499 . S
C5337 H5311 0.950 . S
C5337 C5336 1.414 . S
C5337 C5338 1.374 . S
C5338 H5312 0.950 . S
C5338 C5334 1.385 . S
C5338 C5337 1.374 . S
C5339 C5336 1.499 . S
C5339 C5340 1.373 . S
C5339 C5341 1.389 . S
C5340 H5313 0.950 . S
C5340 C5326 1.377 . S
C5340 C5339 1.373 . S
C5341 C5325 1.377 . S
C5341 C5339 1.389 . S
C5341 C5342 1.524 . S
C5342 C5341 1.524 . S
C5342 C5343 1.397 . S
C5342 C5347 1.363 . S
C5343 H5314 0.950 . S
C5343 C5342 1.397 . S
C5343 C5344 1.334 . S
C5344 H5315 0.950 . S
C5344 C5343 1.334 . S
C5344 C5345 1.287 . S
C5345 C5344 1.287 . S
C5345 C5346 1.524 . S
C5345 H5348 0.999 . S
C5346 H5316 0.950 . S
C5346 C5345 1.524 . S
C5346 C5347 1.415 . S
C5347 H5317 0.950 . S
C5347 C5342 1.363 . S
C5347 C5346 1.415 . S
H5348 C5345 0.999 . S
H5349 C5330 0.913 . S
H5350 C5368 0.951 . S
H5351 C5370 0.951 . S
H5352 C5372 0.950 . S
H5353 C5373 0.950 . S
H5354 C5375 0.950 . S
H5355 C5378 0.950 . S
H5356 C5379 0.950 . S
H5357 C5381 0.950 . S
H5358 C5382 0.950 . S
H5359 C5383 0.951 . S
H5360 C5385 0.951 . S
H5361 C5387 0.950 . S
H5362 C5388 0.950 . S
H5363 C5390 0.967 . S
H5364 C5393 0.950 . S
H5365 C5394 0.950 . S
H5366 C5396 0.950 . S
H5367 C5397 0.950 . S
C5368 H5350 0.951 . S
C5368 C5369 1.366 . S
C5368 C5370 1.388 . S
C5369 C5368 1.366 . S
C5369 C5373 1.385 . S
C5370 H5351 0.951 . S
C5370 C5368 1.388 . S
C5370 C5371 1.366 . S
C5371 C5370 1.366 . S
C5371 C5372 1.414 . S
C5371 C5374 1.499 . S
C5372 H5352 0.950 . S
C5372 C5371 1.414 . S
C5372 C5373 1.374 . S
C5373 H5353 0.950 . S
C5373 C5369 1.385 . S
C5373 C5372 1.374 . S
C5374 C5371 1.499 . S
C5374 C5375 1.373 . S
C5374 C5376 1.373 1_565 S
C5375 H5354 0.950 . S
C5375 C5374 1.373 . S
C5375 C5391 1.377 . S
C5376 C5374 1.373 1_545 S
C5376 C5377 1.575 . S
C5376 C5390 1.371 . S
C5377 C5376 1.575 . S
C5377 C5378 1.397 . S
C5377 C5382 1.363 . S
C5378 H5355 0.950 . S
C5378 C5377 1.397 . S
C5378 C5379 1.334 . S
C5379 H5356 0.950 . S
C5379 C5378 1.334 . S
C5379 C5380 1.287 . S
C5380 C5379 1.287 . S
C5380 C5381 1.524 . S
C5380 H5399 0.913 . S
C5381 H5357 0.950 . S
C5381 C5380 1.524 . S
C5381 C5382 1.415 . S
C5382 H5358 0.950 . S
C5382 C5377 1.363 . S
C5382 C5381 1.415 . S
C5383 H5359 0.951 . S
C5383 C5384 1.366 . S
C5383 C5385 1.388 . S
C5384 C5383 1.366 . S
C5384 C5388 1.385 . S
C5385 H5360 0.951 . S
C5385 C5383 1.388 . S
C5385 C5386 1.366 . S
C5386 C5385 1.366 . S
C5386 C5387 1.414 . S
C5386 C5389 1.499 . S
C5387 H5361 0.950 . S
C5387 C5386 1.414 . S
C5387 C5388 1.374 . S
C5388 H5362 0.950 . S
C5388 C5384 1.385 . S
C5388 C5387 1.374 . S
C5389 C5386 1.499 . S
C5389 C5390 1.337 1_565 S
C5389 C5391 1.389 . S
C5390 H5363 0.967 . S
C5390 C5376 1.371 . S
C5390 C5389 1.337 1_545 S
C5391 C5375 1.377 . S
C5391 C5389 1.389 . S
C5391 C5392 1.524 . S
C5392 C5391 1.524 . S
C5392 C5393 1.397 . S
C5392 C5397 1.363 . S
C5393 H5364 0.950 . S
C5393 C5392 1.397 . S
C5393 C5394 1.334 . S
C5394 H5365 0.950 . S
C5394 C5393 1.334 . S
C5394 C5395 1.287 . S
C5395 C5394 1.287 . S
C5395 C5396 1.524 . S
C5395 H5398 0.999 . S
C5396 H5366 0.950 . S
C5396 C5395 1.524 . S
C5396 C5397 1.415 . S
C5397 H5367 0.950 . S
C5397 C5392 1.363 . S
C5397 C5396 1.415 . S
H5398 C5395 0.999 . S
H5399 C5380 0.913 . S
H5400 C5418 0.951 . S
H5401 C5420 0.951 . S
H5402 C5422 0.950 . S
H5403 C5423 0.950 . S
H5404 C5425 0.950 . S
H5405 C5428 0.950 . S
H5406 C5429 0.950 . S
H5407 C5431 0.950 . S
H5408 C5432 0.950 . S
H5409 C5433 0.951 . S
H5410 C5435 0.951 . S
H5411 C5437 1.016 1_545 S
H5412 C5438 0.966 . S
H5413 C5440 0.950 . S
H5414 C5443 0.950 . S
H5415 C5444 0.950 . S
H5416 C5446 0.950 . S
H5417 C5447 0.950 . S
C5418 H5400 0.951 . S
C5418 C5419 1.366 . S
C5418 C5420 1.388 . S
C5419 C5418 1.366 . S
C5419 C5423 1.385 . S
C5420 H5401 0.951 . S
C5420 C5418 1.388 . S
C5420 C5421 1.366 . S
C5421 C5420 1.366 . S
C5421 C5422 1.414 . S
C5421 C5424 1.499 . S
C5422 H5402 0.950 . S
C5422 C5421 1.414 . S
C5422 C5423 1.374 . S
C5423 H5403 0.950 . S
C5423 C5419 1.385 . S
C5423 C5422 1.374 . S
C5424 C5421 1.499 . S
C5424 C5425 1.373 . S
C5424 C5426 1.389 1_565 S
C5425 H5404 0.950 . S
C5425 C5424 1.373 . S
C5425 C5441 1.377 . S
C5426 C5424 1.389 1_545 S
C5426 C5427 1.524 . S
C5426 C5440 1.377 . S
C5427 C5426 1.524 . S
C5427 C5428 1.397 . S
C5427 C5432 1.363 . S
C5428 H5405 0.950 . S
C5428 C5427 1.397 . S
C5428 C5429 1.334 . S
C5429 H5406 0.950 . S
C5429 C5428 1.334 . S
C5429 C5430 1.287 . S
C5430 C5429 1.287 . S
C5430 C5431 1.524 . S
C5430 H5449 0.913 . S
C5431 H5407 0.950 . S
C5431 C5430 1.524 . S
C5431 C5432 1.415 . S
C5432 H5408 0.950 . S
C5432 C5427 1.363 . S
C5432 C5431 1.415 . S
C5433 H5409 0.951 . S
C5433 C5434 1.366 . S
C5433 C5435 1.388 . S
C5434 C5433 1.366 . S
C5434 C5438 1.408 1_565 S
C5435 H5410 0.951 . S
C5435 C5433 1.388 . S
C5435 C5436 1.366 . S
C5436 C5435 1.366 . S
C5436 C5437 1.434 . S
C5436 C5439 1.499 . S
C5437 H5411 1.016 1_565 S
C5437 C5436 1.434 . S
C5437 C5438 1.305 1_565 S
C5438 H5412 0.966 . S
C5438 C5434 1.408 1_545 S
C5438 C5437 1.305 1_545 S
C5439 C5436 1.499 . S
C5439 C5440 1.373 1_565 S
C5439 C5441 1.389 . S
C5440 H5413 0.950 . S
C5440 C5426 1.377 . S
C5440 C5439 1.373 1_545 S
C5441 C5425 1.377 . S
C5441 C5439 1.389 . S
C5441 C5442 1.524 . S
C5442 C5441 1.524 . S
C5442 C5443 1.397 . S
C5442 C5447 1.363 . S
C5443 H5414 0.950 . S
C5443 C5442 1.397 . S
C5443 C5444 1.334 . S
C5444 H5415 0.950 . S
C5444 C5443 1.334 . S
C5444 C5445 1.287 . S
C5445 C5444 1.287 . S
C5445 C5446 1.524 . S
C5445 H5448 0.999 . S
C5446 H5416 0.950 . S
C5446 C5445 1.524 . S
C5446 C5447 1.415 . S
C5447 H5417 0.950 . S
C5447 C5442 1.363 . S
C5447 C5446 1.415 . S
H5448 C5445 0.999 . S
H5449 C5430 0.913 . S
H5450 C5468 0.951 . S
H5451 C5470 0.951 . S
H5452 C5472 0.950 1_655 S
H5453 C5473 0.975 . S
H5454 C5475 0.950 . S
H5455 C5478 0.950 . S
H5456 C5479 0.950 . S
H5457 C5481 0.950 . S
H5458 C5482 0.950 . S
H5459 C5483 0.951 . S
H5460 C5485 0.951 . S
H5461 C5487 0.950 . S
H5462 C5488 0.950 . S
H5463 C5490 0.950 . S
H5464 C5493 0.950 . S
H5465 C5494 0.950 . S
H5466 C5496 0.950 . S
H5467 C5497 0.939 1_655 S
C5468 H5450 0.951 . S
C5468 C5469 1.366 . S
C5468 C5470 1.388 . S
C5469 C5468 1.366 . S
C5469 C5473 1.385 . S
C5470 H5451 0.951 . S
C5470 C5468 1.388 . S
C5470 C5471 1.366 . S
C5471 C5470 1.366 . S
C5471 C5472 1.414 . S
C5471 C5474 1.499 . S
C5472 H5452 0.950 1_455 S
C5472 C5471 1.414 . S
C5472 C5473 1.374 . S
C5473 H5453 0.975 . S
C5473 C5469 1.385 . S
C5473 C5472 1.374 . S
C5474 C5471 1.499 . S
C5474 C5475 1.373 . S
C5474 C5476 1.389 . S
C5475 H5454 0.950 . S
C5475 C5474 1.373 . S
C5475 C5491 1.377 . S
C5476 C5474 1.389 . S
C5476 C5477 1.524 . S
C5476 C5490 1.377 . S
C5477 C5476 1.524 . S
C5477 C5478 1.397 1_455 S
C5477 C5482 1.363 . S
C5478 H5455 0.950 . S
C5478 C5477 1.397 1_655 S
C5478 C5479 1.334 . S
C5479 H5456 0.950 . S
C5479 C5478 1.334 . S
C5479 C5480 1.287 . S
C5480 C5479 1.287 . S
C5480 C5481 1.524 1_655 S
C5480 H5499 0.913 . S
C5481 H5457 0.950 . S
C5481 C5480 1.524 1_455 S
C5481 C5482 1.415 . S
C5482 H5458 0.950 . S
C5482 C5477 1.363 . S
C5482 C5481 1.415 . S
C5483 H5459 0.951 . S
C5483 C5484 1.331 1_655 S
C5483 C5485 1.388 . S
C5484 C5483 1.331 1_455 S
C5484 C5488 1.399 . S
C5485 H5460 0.951 . S
C5485 C5483 1.388 . S
C5485 C5486 1.366 1_655 S
C5486 C5485 1.366 1_455 S
C5486 C5487 1.414 . S
C5486 C5489 1.499 . S
C5487 H5461 0.950 . S
C5487 C5486 1.414 . S
C5487 C5488 1.374 . S
C5488 H5462 0.950 . S
C5488 C5484 1.399 . S
C5488 C5487 1.374 . S
C5489 C5486 1.499 . S
C5489 C5490 1.373 . S
C5489 C5491 1.389 . S
C5490 H5463 0.950 . S
C5490 C5476 1.377 . S
C5490 C5489 1.373 . S
C5491 C5475 1.377 . S
C5491 C5489 1.389 . S
C5491 C5492 1.524 . S
C5492 C5491 1.524 . S
C5492 C5493 1.397 . S
C5492 C5497 1.363 . S
C5493 H5464 0.950 . S
C5493 C5492 1.397 . S
C5493 C5494 1.334 . S
C5494 H5465 0.950 . S
C5494 C5493 1.334 . S
C5494 C5495 1.287 . S
C5495 C5494 1.287 . S
C5495 C5496 1.524 . S
C5495 H5498 0.999 . S
C5496 H5466 0.950 . S
C5496 C5495 1.524 . S
C5496 C5497 1.415 . S
C5497 H5467 0.939 1_455 S
C5497 C5492 1.363 . S
C5497 C5496 1.415 . S
H5498 C5495 0.999 . S
H5499 C5480 0.913 . S
H5500 C5518 0.951 . S
H5501 C5520 0.951 . S
H5502 C5522 0.950 . S
H5503 C5523 0.950 . S
H5504 C5525 0.950 . S
H5505 C5528 0.950 . S
H5506 C5529 0.950 . S
H5507 C5531 0.950 . S
H5508 C5532 0.950 . S
H5509 C5533 0.951 . S
H5510 C5535 0.951 . S
H5511 C5537 0.950 . S
H5512 C5538 0.950 . S
H5513 C5540 0.950 . S
H5514 C5543 0.950 . S
H5515 C5544 0.950 . S
H5516 C5546 0.950 . S
H5517 C5547 0.950 . S
C5518 H5500 0.951 . S
C5518 C5519 1.366 . S
C5518 C5520 1.388 . S
C5519 C5518 1.366 . S
C5519 C5523 1.385 . S
C5520 H5501 0.951 . S
C5520 C5518 1.388 . S
C5520 C5521 1.366 . S
C5521 C5520 1.366 . S
C5521 C5522 1.414 . S
C5521 C5524 1.499 . S
C5522 H5502 0.950 . S
C5522 C5521 1.414 . S
C5522 C5523 1.374 . S
C5523 H5503 0.950 . S
C5523 C5519 1.385 . S
C5523 C5522 1.374 . S
C5524 C5521 1.499 . S
C5524 C5525 1.373 . S
C5524 C5526 1.389 . S
C5525 H5504 0.950 . S
C5525 C5524 1.373 . S
C5525 C5541 1.377 . S
C5526 C5524 1.389 . S
C5526 C5527 1.524 . S
C5526 C5540 1.377 . S
C5527 C5526 1.524 . S
C5527 C5528 1.397 . S
C5527 C5532 1.363 . S
C5528 H5505 0.950 . S
C5528 C5527 1.397 . S
C5528 C5529 1.334 . S
C5529 H5506 0.950 . S
C5529 C5528 1.334 . S
C5529 C5530 1.287 . S
C5530 C5529 1.287 . S
C5530 C5531 1.524 . S
C5530 H5549 0.913 . S
C5531 H5507 0.950 . S
C5531 C5530 1.524 . S
C5531 C5532 1.415 . S
C5532 H5508 0.950 . S
C5532 C5527 1.363 . S
C5532 C5531 1.415 . S
C5533 H5509 0.951 . S
C5533 C5534 1.366 . S
C5533 C5535 1.388 . S
C5534 C5533 1.366 . S
C5534 C5538 1.385 . S
C5535 H5510 0.951 . S
C5535 C5533 1.388 . S
C5535 C5536 1.366 . S
C5536 C5535 1.366 . S
C5536 C5537 1.414 . S
C5536 C5539 1.499 . S
C5537 H5511 0.950 . S
C5537 C5536 1.414 . S
C5537 C5538 1.374 . S
C5538 H5512 0.950 . S
C5538 C5534 1.385 . S
C5538 C5537 1.374 . S
C5539 C5536 1.499 . S
C5539 C5540 1.373 . S
C5539 C5541 1.389 . S
C5540 H5513 0.950 . S
C5540 C5526 1.377 . S
C5540 C5539 1.373 . S
C5541 C5525 1.377 . S
C5541 C5539 1.389 . S
C5541 C5542 1.524 . S
C5542 C5541 1.524 . S
C5542 C5543 1.397 . S
C5542 C5547 1.363 . S
C5543 H5514 0.950 . S
C5543 C5542 1.397 . S
C5543 C5544 1.334 . S
C5544 H5515 0.950 . S
C5544 C5543 1.334 . S
C5544 C5545 1.287 . S
C5545 C5544 1.287 . S
C5545 C5546 1.524 . S
C5545 H5548 0.999 . S
C5546 H5516 0.950 . S
C5546 C5545 1.524 . S
C5546 C5547 1.415 . S
C5547 H5517 0.950 . S
C5547 C5542 1.363 . S
C5547 C5546 1.415 . S
H5548 C5545 0.999 . S
H5549 C5530 0.913 . S
H5550 C5568 0.951 . S
H5551 C5570 0.951 . S
H5552 C5572 0.950 . S
H5553 C5573 0.950 . S
H5554 C5575 0.950 . S
H5555 C5578 0.950 . S
H5556 C5579 0.950 . S
H5557 C5581 0.950 . S
H5558 C5582 0.950 . S
H5559 C5583 0.951 . S
H5560 C5585 0.951 . S
H5561 C5587 0.950 . S
H5562 C5588 0.950 . S
H5563 C5590 0.950 . S
H5564 C5593 0.950 . S
H5565 C5594 0.950 . S
H5566 C5596 0.950 . S
H5567 C5597 0.950 . S
C5568 H5550 0.951 . S
C5568 C5569 1.366 . S
C5568 C5570 1.388 . S
C5569 C5568 1.366 . S
C5569 C5573 1.385 . S
C5570 H5551 0.951 . S
C5570 C5568 1.388 . S
C5570 C5571 1.366 . S
C5571 C5570 1.366 . S
C5571 C5572 1.414 . S
C5571 C5574 1.499 . S
C5572 H5552 0.950 . S
C5572 C5571 1.414 . S
C5572 C5573 1.374 . S
C5573 H5553 0.950 . S
C5573 C5569 1.385 . S
C5573 C5572 1.374 . S
C5574 C5571 1.499 . S
C5574 C5575 1.373 . S
C5574 C5576 1.389 . S
C5575 H5554 0.950 . S
C5575 C5574 1.373 . S
C5575 C5591 1.377 . S
C5576 C5574 1.389 . S
C5576 C5577 1.524 . S
C5576 C5590 1.377 . S
C5577 C5576 1.524 . S
C5577 C5578 1.397 . S
C5577 C5582 1.363 . S
C5578 H5555 0.950 . S
C5578 C5577 1.397 . S
C5578 C5579 1.334 . S
C5579 H5556 0.950 . S
C5579 C5578 1.334 . S
C5579 C5580 1.287 . S
C5580 C5579 1.287 . S
C5580 C5581 1.524 . S
C5580 H5599 0.913 . S
C5581 H5557 0.950 . S
C5581 C5580 1.524 . S
C5581 C5582 1.415 . S
C5582 H5558 0.950 . S
C5582 C5577 1.363 . S
C5582 C5581 1.415 . S
C5583 H5559 0.951 . S
C5583 C5584 1.366 . S
C5583 C5585 1.388 . S
C5584 C5583 1.366 . S
C5584 C5588 1.385 . S
C5585 H5560 0.951 . S
C5585 C5583 1.388 . S
C5585 C5586 1.366 . S
C5586 C5585 1.366 . S
C5586 C5587 1.414 . S
C5586 C5589 1.499 . S
C5587 H5561 0.950 . S
C5587 C5586 1.414 . S
C5587 C5588 1.374 . S
C5588 H5562 0.950 . S
C5588 C5584 1.385 . S
C5588 C5587 1.374 . S
C5589 C5586 1.499 . S
C5589 C5590 1.373 . S
C5589 C5591 1.389 . S
C5590 H5563 0.950 . S
C5590 C5576 1.377 . S
C5590 C5589 1.373 . S
C5591 C5575 1.377 . S
C5591 C5589 1.389 . S
C5591 C5592 1.524 . S
C5592 C5591 1.524 . S
C5592 C5593 1.397 . S
C5592 C5597 1.363 . S
C5593 H5564 0.950 . S
C5593 C5592 1.397 . S
C5593 C5594 1.334 . S
C5594 H5565 0.950 . S
C5594 C5593 1.334 . S
C5594 C5595 1.287 . S
C5595 C5594 1.287 . S
C5595 C5596 1.524 . S
C5595 H5598 0.999 . S
C5596 H5566 0.950 . S
C5596 C5595 1.524 . S
C5596 C5597 1.415 . S
C5597 H5567 0.950 . S
C5597 C5592 1.363 . S
C5597 C5596 1.415 . S
H5598 C5595 0.999 . S
H5599 C5580 0.913 . S
H5600 C5618 0.951 . S
H5601 C5620 0.951 . S
H5602 C5622 0.950 . S
H5603 C5623 0.950 . S
H5604 C5625 0.950 . S
H5605 C5628 0.950 . S
H5606 C5629 0.950 . S
H5607 C5631 0.950 . S
H5608 C5632 0.950 . S
H5609 C5633 0.951 . S
H5610 C5635 0.951 . S
H5611 C5637 0.950 . S
H5612 C5638 0.950 . S
H5613 C5640 0.950 . S
H5614 C5643 0.950 . S
H5615 C5644 0.950 . S
H5616 C5646 0.950 . S
H5617 C5647 0.950 . S
C5618 H5600 0.951 . S
C5618 C5619 1.366 . S
C5618 C5620 1.388 . S
C5619 C5618 1.366 . S
C5619 C5623 1.385 . S
C5620 H5601 0.951 . S
C5620 C5618 1.388 . S
C5620 C5621 1.366 . S
C5621 C5620 1.366 . S
C5621 C5622 1.414 . S
C5621 C5624 1.499 . S
C5622 H5602 0.950 . S
C5622 C5621 1.414 . S
C5622 C5623 1.374 . S
C5623 H5603 0.950 . S
C5623 C5619 1.385 . S
C5623 C5622 1.374 . S
C5624 C5621 1.499 . S
C5624 C5625 1.373 . S
C5624 C5626 1.389 . S
C5625 H5604 0.950 . S
C5625 C5624 1.373 . S
C5625 C5641 1.377 . S
C5626 C5624 1.389 . S
C5626 C5627 1.524 . S
C5626 C5640 1.377 . S
C5627 C5626 1.524 . S
C5627 C5628 1.397 . S
C5627 C5632 1.363 . S
C5628 H5605 0.950 . S
C5628 C5627 1.397 . S
C5628 C5629 1.334 . S
C5629 H5606 0.950 . S
C5629 C5628 1.334 . S
C5629 C5630 1.287 . S
C5630 C5629 1.287 . S
C5630 C5631 1.524 . S
C5630 H5649 0.913 . S
C5631 H5607 0.950 . S
C5631 C5630 1.524 . S
C5631 C5632 1.415 . S
C5632 H5608 0.950 . S
C5632 C5627 1.363 . S
C5632 C5631 1.415 . S
C5633 H5609 0.951 . S
C5633 C5634 1.366 . S
C5633 C5635 1.388 . S
C5634 C5633 1.366 . S
C5634 C5638 1.385 . S
C5635 H5610 0.951 . S
C5635 C5633 1.388 . S
C5635 C5636 1.366 . S
C5636 C5635 1.366 . S
C5636 C5637 1.414 . S
C5636 C5639 1.499 . S
C5637 H5611 0.950 . S
C5637 C5636 1.414 . S
C5637 C5638 1.374 . S
C5638 H5612 0.950 . S
C5638 C5634 1.385 . S
C5638 C5637 1.374 . S
C5639 C5636 1.499 . S
C5639 C5640 1.373 . S
C5639 C5641 1.389 . S
C5640 H5613 0.950 . S
C5640 C5626 1.377 . S
C5640 C5639 1.373 . S
C5641 C5625 1.377 . S
C5641 C5639 1.389 . S
C5641 C5642 1.524 . S
C5642 C5641 1.524 . S
C5642 C5643 1.397 . S
C5642 C5647 1.363 . S
C5643 H5614 0.950 . S
C5643 C5642 1.397 . S
C5643 C5644 1.334 . S
C5644 H5615 0.950 . S
C5644 C5643 1.334 . S
C5644 C5645 1.287 . S
C5645 C5644 1.287 . S
C5645 C5646 1.524 . S
C5645 H5648 0.999 . S
C5646 H5616 0.950 . S
C5646 C5645 1.524 . S
C5646 C5647 1.415 . S
C5647 H5617 0.950 . S
C5647 C5642 1.363 . S
C5647 C5646 1.415 . S
H5648 C5645 0.999 . S
H5649 C5630 0.913 . S
H5650 C5668 0.951 . S
H5651 C5670 0.951 . S
H5652 C5672 0.950 . S
H5653 C5673 0.950 . S
H5654 C5675 0.950 . S
H5655 C5678 0.950 . S
H5656 C5679 0.950 . S
H5657 C5681 0.950 . S
H5658 C5682 0.950 . S
H5659 C5683 0.951 . S
H5660 C5685 0.951 . S
H5661 C5687 0.950 . S
H5662 C5688 0.950 . S
H5663 C5690 0.950 . S
H5664 C5693 0.950 . S
H5665 C5694 0.950 . S
H5666 C5696 0.950 . S
H5667 C5697 0.950 . S
C5668 H5650 0.951 . S
C5668 C5669 1.366 . S
C5668 C5670 1.388 . S
C5669 C5668 1.366 . S
C5669 C5673 1.385 . S
C5670 H5651 0.951 . S
C5670 C5668 1.388 . S
C5670 C5671 1.366 . S
C5671 C5670 1.366 . S
C5671 C5672 1.414 . S
C5671 C5674 1.499 . S
C5672 H5652 0.950 . S
C5672 C5671 1.414 . S
C5672 C5673 1.374 . S
C5673 H5653 0.950 . S
C5673 C5669 1.385 . S
C5673 C5672 1.374 . S
C5674 C5671 1.499 . S
C5674 C5675 1.373 . S
C5674 C5676 1.389 . S
C5675 H5654 0.950 . S
C5675 C5674 1.373 . S
C5675 C5691 1.377 . S
C5676 C5674 1.389 . S
C5676 C5677 1.524 . S
C5676 C5690 1.377 . S
C5677 C5676 1.524 . S
C5677 C5678 1.397 . S
C5677 C5682 1.363 . S
C5678 H5655 0.950 . S
C5678 C5677 1.397 . S
C5678 C5679 1.334 . S
C5679 H5656 0.950 . S
C5679 C5678 1.334 . S
C5679 C5680 1.287 . S
C5680 C5679 1.287 . S
C5680 C5681 1.524 . S
C5680 H5699 0.913 . S
C5681 H5657 0.950 . S
C5681 C5680 1.524 . S
C5681 C5682 1.415 . S
C5682 H5658 0.950 . S
C5682 C5677 1.363 . S
C5682 C5681 1.415 . S
C5683 H5659 0.951 . S
C5683 C5684 1.366 . S
C5683 C5685 1.388 . S
C5684 C5683 1.366 . S
C5684 C5688 1.385 . S
C5685 H5660 0.951 . S
C5685 C5683 1.388 . S
C5685 C5686 1.366 . S
C5686 C5685 1.366 . S
C5686 C5687 1.414 . S
C5686 C5689 1.499 . S
C5687 H5661 0.950 . S
C5687 C5686 1.414 . S
C5687 C5688 1.374 . S
C5688 H5662 0.950 . S
C5688 C5684 1.385 . S
C5688 C5687 1.374 . S
C5689 C5686 1.499 . S
C5689 C5690 1.373 . S
C5689 C5691 1.389 . S
C5690 H5663 0.950 . S
C5690 C5676 1.377 . S
C5690 C5689 1.373 . S
C5691 C5675 1.377 . S
C5691 C5689 1.389 . S
C5691 C5692 1.524 . S
C5692 C5691 1.524 . S
C5692 C5693 1.397 . S
C5692 C5697 1.363 . S
C5693 H5664 0.950 . S
C5693 C5692 1.397 . S
C5693 C5694 1.334 . S
C5694 H5665 0.950 . S
C5694 C5693 1.334 . S
C5694 C5695 1.287 . S
C5695 C5694 1.287 . S
C5695 C5696 1.524 . S
C5695 H5698 0.999 . S
C5696 H5666 0.950 . S
C5696 C5695 1.524 . S
C5696 C5697 1.415 . S
C5697 H5667 0.950 . S
C5697 C5692 1.363 . S
C5697 C5696 1.415 . S
H5698 C5695 0.999 . S
H5699 C5680 0.913 . S
H5700 C5718 0.951 . S
H5701 C5720 0.951 . S
H5702 C5722 0.944 1_565 S
H5703 C5723 0.950 1_565 S
H5704 C5725 0.950 1_565 S
H5705 C5728 0.950 . S
H5706 C5729 0.950 . S
H5707 C5731 0.950 . S
H5708 C5732 0.950 . S
H5709 C5733 0.951 . S
H5710 C5735 0.951 . S
H5711 C5737 0.950 . S
H5712 C5738 0.950 . S
H5713 C5740 0.950 . S
H5714 C5743 0.950 . S
H5715 C5744 0.950 1_545 S
H5716 C5746 0.950 . S
H5717 C5747 0.950 . S
C5718 H5700 0.951 . S
C5718 C5719 1.366 . S
C5718 C5720 1.388 . S
C5719 C5718 1.366 . S
C5719 C5723 1.385 . S
C5720 H5701 0.951 . S
C5720 C5718 1.388 . S
C5720 C5721 1.366 . S
C5721 C5720 1.366 . S
C5721 C5722 1.417 . S
C5721 C5724 1.499 . S
C5722 H5702 0.944 1_545 S
C5722 C5721 1.417 . S
C5722 C5723 1.377 . S
C5723 H5703 0.950 1_545 S
C5723 C5719 1.385 . S
C5723 C5722 1.377 . S
C5724 C5721 1.499 . S
C5724 C5725 1.373 . S
C5724 C5726 1.389 . S
C5725 H5704 0.950 1_545 S
C5725 C5724 1.373 . S
C5725 C5741 1.377 . S
C5726 C5724 1.389 . S
C5726 C5727 1.524 . S
C5726 C5740 1.377 . S
C5727 C5726 1.524 . S
C5727 C5728 1.397 . S
C5727 C5732 1.363 . S
C5728 H5705 0.950 . S
C5728 C5727 1.397 . S
C5728 C5729 1.334 . S
C5729 H5706 0.950 . S
C5729 C5728 1.334 . S
C5729 C5730 1.287 . S
C5730 C5729 1.287 . S
C5730 C5731 1.524 . S
C5730 H5749 0.913 . S
C5731 H5707 0.950 . S
C5731 C5730 1.524 . S
C5731 C5732 1.415 . S
C5732 H5708 0.950 . S
C5732 C5727 1.363 . S
C5732 C5731 1.415 . S
C5733 H5709 0.951 . S
C5733 C5734 1.366 1_565 S
C5733 C5735 1.388 . S
C5734 C5733 1.366 1_545 S
C5734 C5738 1.385 . S
C5735 H5710 0.951 . S
C5735 C5733 1.388 . S
C5735 C5736 1.366 1_565 S
C5736 C5735 1.366 1_545 S
C5736 C5737 1.414 . S
C5736 C5739 1.499 . S
C5737 H5711 0.950 . S
C5737 C5736 1.414 . S
C5737 C5738 1.374 . S
C5738 H5712 0.950 . S
C5738 C5734 1.385 . S
C5738 C5737 1.374 . S
C5739 C5736 1.499 . S
C5739 C5740 1.373 . S
C5739 C5741 1.389 . S
C5740 H5713 0.950 . S
C5740 C5726 1.377 . S
C5740 C5739 1.373 . S
C5741 C5725 1.377 . S
C5741 C5739 1.389 . S
C5741 C5742 1.524 1_545 S
C5742 C5741 1.524 1_565 S
C5742 C5743 1.397 1_565 S
C5742 C5747 1.363 . S
C5743 H5714 0.950 . S
C5743 C5742 1.397 1_545 S
C5743 C5744 1.334 1_545 S
C5744 H5715 0.950 1_565 S
C5744 C5743 1.334 1_565 S
C5744 C5745 1.287 . S
C5745 C5744 1.287 . S
C5745 C5746 1.524 . S
C5745 H5748 0.999 . S
C5746 H5716 0.950 . S
C5746 C5745 1.524 . S
C5746 C5747 1.415 . S
C5747 H5717 0.950 . S
C5747 C5742 1.363 . S
C5747 C5746 1.415 . S
H5748 C5745 0.999 . S
H5749 C5730 0.913 . S
H5750 C5768 0.951 . S
H5751 C5770 0.951 . S
H5752 C5772 0.890 1_455 S
H5753 C5773 0.950 1_455 S
H5754 C5775 0.950 . S
H5755 C5778 0.950 . S
H5756 C5779 0.950 . S
H5757 C5781 0.950 . S
H5758 C5782 0.950 . S
H5759 C5783 0.951 . S
H5760 C5785 0.951 . S
H5761 C5787 0.950 . S
H5762 C5788 0.950 . S
H5763 C5790 0.950 . S
H5764 C5793 0.950 . S
H5765 C5794 0.950 . S
H5766 C5796 0.950 . S
H5767 C5797 0.950 . S
C5768 H5750 0.951 . S
C5768 C5769 1.366 . S
C5768 C5770 1.388 . S
C5769 C5768 1.366 . S
C5769 C5773 1.385 . S
C5770 H5751 0.951 . S
C5770 C5768 1.388 . S
C5770 C5771 1.366 . S
C5771 C5770 1.366 . S
C5771 C5772 1.510 . S
C5771 C5774 1.499 . S
C5772 H5752 0.890 1_655 S
C5772 C5771 1.510 . S
C5772 C5773 1.344 . S
C5773 H5753 0.950 1_655 S
C5773 C5769 1.385 . S
C5773 C5772 1.344 . S
C5774 C5771 1.499 . S
C5774 C5775 1.373 . S
C5774 C5776 1.389 . S
C5775 H5754 0.950 . S
C5775 C5774 1.373 . S
C5775 C5791 1.377 . S
C5776 C5774 1.389 . S
C5776 C5777 1.524 . S
C5776 C5790 1.377 . S
C5777 C5776 1.524 . S
C5777 C5778 1.397 . S
C5777 C5782 1.363 . S
C5778 H5755 0.950 . S
C5778 C5777 1.397 . S
C5778 C5779 1.334 . S
C5779 H5756 0.950 . S
C5779 C5778 1.334 . S
C5779 C5780 1.287 . S
C5780 C5779 1.287 . S
C5780 C5781 1.524 . S
C5780 H5799 0.913 . S
C5781 H5757 0.950 . S
C5781 C5780 1.524 . S
C5781 C5782 1.415 . S
C5782 H5758 0.950 . S
C5782 C5777 1.363 . S
C5782 C5781 1.415 . S
C5783 H5759 0.951 . S
C5783 C5784 1.366 1_455 S
C5783 C5785 1.388 . S
C5784 C5783 1.366 1_655 S
C5784 C5788 1.385 . S
C5785 H5760 0.951 . S
C5785 C5783 1.388 . S
C5785 C5786 1.366 1_455 S
C5786 C5785 1.366 1_655 S
C5786 C5787 1.414 . S
C5786 C5789 1.499 . S
C5787 H5761 0.950 . S
C5787 C5786 1.414 . S
C5787 C5788 1.374 . S
C5788 H5762 0.950 . S
C5788 C5784 1.385 . S
C5788 C5787 1.374 . S
C5789 C5786 1.499 . S
C5789 C5790 1.373 . S
C5789 C5791 1.389 . S
C5790 H5763 0.950 . S
C5790 C5776 1.377 . S
C5790 C5789 1.373 . S
C5791 C5775 1.377 . S
C5791 C5789 1.389 . S
C5791 C5792 1.524 . S
C5792 C5791 1.524 . S
C5792 C5793 1.397 . S
C5792 C5797 1.363 1_655 S
C5793 H5764 0.950 . S
C5793 C5792 1.397 . S
C5793 C5794 1.334 . S
C5794 H5765 0.950 . S
C5794 C5793 1.334 . S
C5794 C5795 1.287 1_655 S
C5795 C5794 1.287 1_455 S
C5795 C5796 1.524 . S
C5795 H5798 0.999 . S
C5796 H5766 0.950 . S
C5796 C5795 1.524 . S
C5796 C5797 1.415 . S
C5797 H5767 0.950 . S
C5797 C5792 1.363 1_455 S
C5797 C5796 1.415 . S
H5798 C5795 0.999 . S
H5799 C5780 0.913 . S
H5800 C5818 0.951 . S
H5801 C5820 0.951 . S
H5802 C5822 0.950 . S
H5803 C5823 0.950 . S
H5804 C5825 0.950 . S
H5805 C5828 0.950 . S
H5806 C5829 0.950 . S
H5807 C5831 0.950 . S
H5808 C5832 0.950 . S
H5809 C5833 0.951 . S
H5810 C5835 0.951 . S
H5811 C5837 0.950 . S
H5812 C5838 0.950 . S
H5813 C5840 0.950 . S
H5814 C5843 0.950 . S
H5815 C5844 0.950 . S
H5816 C5846 0.950 . S
H5817 C5847 0.950 . S
C5818 H5800 0.951 . S
C5818 C5819 1.366 . S
C5818 C5820 1.388 . S
C5819 C5818 1.366 . S
C5819 C5823 1.385 . S
C5820 H5801 0.951 . S
C5820 C5818 1.388 . S
C5820 C5821 1.366 . S
C5821 C5820 1.366 . S
C5821 C5822 1.414 . S
C5821 C5824 1.499 . S
C5822 H5802 0.950 . S
C5822 C5821 1.414 . S
C5822 C5823 1.374 . S
C5823 H5803 0.950 . S
C5823 C5819 1.385 . S
C5823 C5822 1.374 . S
C5824 C5821 1.499 . S
C5824 C5825 1.373 . S
C5824 C5826 1.389 . S
C5825 H5804 0.950 . S
C5825 C5824 1.373 . S
C5825 C5841 1.377 . S
C5826 C5824 1.389 . S
C5826 C5827 1.524 . S
C5826 C5840 1.377 . S
C5827 C5826 1.524 . S
C5827 C5828 1.397 . S
C5827 C5832 1.363 . S
C5828 H5805 0.950 . S
C5828 C5827 1.397 . S
C5828 C5829 1.334 . S
C5829 H5806 0.950 . S
C5829 C5828 1.334 . S
C5829 C5830 1.287 . S
C5830 C5829 1.287 . S
C5830 C5831 1.524 . S
C5830 H5849 0.913 . S
C5831 H5807 0.950 . S
C5831 C5830 1.524 . S
C5831 C5832 1.415 . S
C5832 H5808 0.950 . S
C5832 C5827 1.363 . S
C5832 C5831 1.415 . S
C5833 H5809 0.951 . S
C5833 C5834 1.366 . S
C5833 C5835 1.388 . S
C5834 C5833 1.366 . S
C5834 C5838 1.385 . S
C5835 H5810 0.951 . S
C5835 C5833 1.388 . S
C5835 C5836 1.366 . S
C5836 C5835 1.366 . S
C5836 C5837 1.414 . S
C5836 C5839 1.499 . S
C5837 H5811 0.950 . S
C5837 C5836 1.414 . S
C5837 C5838 1.374 . S
C5838 H5812 0.950 . S
C5838 C5834 1.385 . S
C5838 C5837 1.374 . S
C5839 C5836 1.499 . S
C5839 C5840 1.373 . S
C5839 C5841 1.389 . S
C5840 H5813 0.950 . S
C5840 C5826 1.377 . S
C5840 C5839 1.373 . S
C5841 C5825 1.377 . S
C5841 C5839 1.389 . S
C5841 C5842 1.524 . S
C5842 C5841 1.524 . S
C5842 C5843 1.397 . S
C5842 C5847 1.363 . S
C5843 H5814 0.950 . S
C5843 C5842 1.397 . S
C5843 C5844 1.334 . S
C5844 H5815 0.950 . S
C5844 C5843 1.334 . S
C5844 C5845 1.287 . S
C5845 C5844 1.287 . S
C5845 C5846 1.524 . S
C5845 H5848 0.999 . S
C5846 H5816 0.950 . S
C5846 C5845 1.524 . S
C5846 C5847 1.415 . S
C5847 H5817 0.950 . S
C5847 C5842 1.363 . S
C5847 C5846 1.415 . S
H5848 C5845 0.999 . S
H5849 C5830 0.913 . S
H5850 C5868 0.951 . S
H5851 C5870 0.951 . S
H5852 C5872 0.950 . S
H5853 C5873 0.950 . S
H5854 C5875 0.950 . S
H5855 C5878 0.950 . S
H5856 C5879 0.950 . S
H5857 C5881 0.950 . S
H5858 C5882 0.950 . S
H5859 C5883 0.951 . S
H5860 C5885 0.951 . S
H5861 C5887 0.950 . S
H5862 C5888 0.950 . S
H5863 C5890 0.950 . S
H5864 C5893 0.950 . S
H5865 C5894 0.950 . S
H5866 C5896 0.950 . S
H5867 C5897 0.950 . S
C5868 H5850 0.951 . S
C5868 C5869 1.366 . S
C5868 C5870 1.388 . S
C5869 C5868 1.366 . S
C5869 C5873 1.385 . S
C5870 H5851 0.951 . S
C5870 C5868 1.388 . S
C5870 C5871 1.366 . S
C5871 C5870 1.366 . S
C5871 C5872 1.414 . S
C5871 C5874 1.499 . S
C5872 H5852 0.950 . S
C5872 C5871 1.414 . S
C5872 C5873 1.374 . S
C5873 H5853 0.950 . S
C5873 C5869 1.385 . S
C5873 C5872 1.374 . S
C5874 C5871 1.499 . S
C5874 C5875 1.373 . S
C5874 C5876 1.389 . S
C5875 H5854 0.950 . S
C5875 C5874 1.373 . S
C5875 C5891 1.377 . S
C5876 C5874 1.389 . S
C5876 C5877 1.524 . S
C5876 C5890 1.377 . S
C5877 C5876 1.524 . S
C5877 C5878 1.397 . S
C5877 C5882 1.363 . S
C5878 H5855 0.950 . S
C5878 C5877 1.397 . S
C5878 C5879 1.334 . S
C5879 H5856 0.950 . S
C5879 C5878 1.334 . S
C5879 C5880 1.287 . S
C5880 C5879 1.287 . S
C5880 C5881 1.524 . S
C5880 H5899 0.913 . S
C5881 H5857 0.950 . S
C5881 C5880 1.524 . S
C5881 C5882 1.415 . S
C5882 H5858 0.950 . S
C5882 C5877 1.363 . S
C5882 C5881 1.415 . S
C5883 H5859 0.951 . S
C5883 C5884 1.366 . S
C5883 C5885 1.388 . S
C5884 C5883 1.366 . S
C5884 C5888 1.385 . S
C5885 H5860 0.951 . S
C5885 C5883 1.388 . S
C5885 C5886 1.366 . S
C5886 C5885 1.366 . S
C5886 C5887 1.414 . S
C5886 C5889 1.499 . S
C5887 H5861 0.950 . S
C5887 C5886 1.414 . S
C5887 C5888 1.374 . S
C5888 H5862 0.950 . S
C5888 C5884 1.385 . S
C5888 C5887 1.374 . S
C5889 C5886 1.499 . S
C5889 C5890 1.373 . S
C5889 C5891 1.389 . S
C5890 H5863 0.950 . S
C5890 C5876 1.377 . S
C5890 C5889 1.373 . S
C5891 C5875 1.377 . S
C5891 C5889 1.389 . S
C5891 C5892 1.524 . S
C5892 C5891 1.524 . S
C5892 C5893 1.397 . S
C5892 C5897 1.363 . S
C5893 H5864 0.950 . S
C5893 C5892 1.397 . S
C5893 C5894 1.334 . S
C5894 H5865 0.950 . S
C5894 C5893 1.334 . S
C5894 C5895 1.287 . S
C5895 C5894 1.287 . S
C5895 C5896 1.524 . S
C5895 H5898 0.999 . S
C5896 H5866 0.950 . S
C5896 C5895 1.524 . S
C5896 C5897 1.415 . S
C5897 H5867 0.950 . S
C5897 C5892 1.363 . S
C5897 C5896 1.415 . S
H5898 C5895 0.999 . S
H5899 C5880 0.913 . S
H5900 C5918 0.951 . S
H5901 C5920 0.951 . S
H5902 C5922 0.950 . S
H5903 C5923 0.950 . S
H5904 C5925 0.950 . S
H5905 C5928 0.950 . S
H5906 C5929 0.950 . S
H5907 C5931 0.950 . S
H5908 C5932 0.950 . S
H5909 C5933 0.951 . S
H5910 C5935 0.951 . S
H5911 C5937 0.950 . S
H5912 C5938 0.950 . S
H5913 C5940 0.950 . S
H5914 C5943 0.950 . S
H5915 C5944 0.950 . S
H5916 C5946 0.950 . S
H5917 C5947 0.950 . S
C5918 H5900 0.951 . S
C5918 C5919 1.366 . S
C5918 C5920 1.388 . S
C5919 C5918 1.366 . S
C5919 C5923 1.385 . S
C5920 H5901 0.951 . S
C5920 C5918 1.388 . S
C5920 C5921 1.366 . S
C5921 C5920 1.366 . S
C5921 C5922 1.414 . S
C5921 C5924 1.499 . S
C5922 H5902 0.950 . S
C5922 C5921 1.414 . S
C5922 C5923 1.374 . S
C5923 H5903 0.950 . S
C5923 C5919 1.385 . S
C5923 C5922 1.374 . S
C5924 C5921 1.499 . S
C5924 C5925 1.373 . S
C5924 C5926 1.389 . S
C5925 H5904 0.950 . S
C5925 C5924 1.373 . S
C5925 C5941 1.377 . S
C5926 C5924 1.389 . S
C5926 C5927 1.524 . S
C5926 C5940 1.377 . S
C5927 C5926 1.524 . S
C5927 C5928 1.397 . S
C5927 C5932 1.363 . S
C5928 H5905 0.950 . S
C5928 C5927 1.397 . S
C5928 C5929 1.334 . S
C5929 H5906 0.950 . S
C5929 C5928 1.334 . S
C5929 C5930 1.287 . S
C5930 C5929 1.287 . S
C5930 C5931 1.524 . S
C5930 H5949 0.913 . S
C5931 H5907 0.950 . S
C5931 C5930 1.524 . S
C5931 C5932 1.415 . S
C5932 H5908 0.950 . S
C5932 C5927 1.363 . S
C5932 C5931 1.415 . S
C5933 H5909 0.951 . S
C5933 C5934 1.366 . S
C5933 C5935 1.388 . S
C5934 C5933 1.366 . S
C5934 C5938 1.385 . S
C5935 H5910 0.951 . S
C5935 C5933 1.388 . S
C5935 C5936 1.366 . S
C5936 C5935 1.366 . S
C5936 C5937 1.414 . S
C5936 C5939 1.499 . S
C5937 H5911 0.950 . S
C5937 C5936 1.414 . S
C5937 C5938 1.374 . S
C5938 H5912 0.950 . S
C5938 C5934 1.385 . S
C5938 C5937 1.374 . S
C5939 C5936 1.499 . S
C5939 C5940 1.373 . S
C5939 C5941 1.389 . S
C5940 H5913 0.950 . S
C5940 C5926 1.377 . S
C5940 C5939 1.373 . S
C5941 C5925 1.377 . S
C5941 C5939 1.389 . S
C5941 C5942 1.524 . S
C5942 C5941 1.524 . S
C5942 C5943 1.397 . S
C5942 C5947 1.363 . S
C5943 H5914 0.950 . S
C5943 C5942 1.397 . S
C5943 C5944 1.334 . S
C5944 H5915 0.950 . S
C5944 C5943 1.334 . S
C5944 C5945 1.287 . S
C5945 C5944 1.287 . S
C5945 C5946 1.524 . S
C5945 H5948 0.999 . S
C5946 H5916 0.950 . S
C5946 C5945 1.524 . S
C5946 C5947 1.415 . S
C5947 H5917 0.950 . S
C5947 C5942 1.363 . S
C5947 C5946 1.415 . S
H5948 C5945 0.999 . S
H5949 C5930 0.913 . S
H5950 C5968 0.951 . S
H5951 C5970 0.951 . S
H5952 C5972 0.950 . S
H5953 C5973 0.950 . S
H5954 C5975 0.950 . S
H5955 C5978 0.950 . S
H5956 C5979 0.950 . S
H5957 C5981 0.950 . S
H5958 C5982 0.950 . S
H5959 C5983 0.951 . S
H5960 C5985 0.951 . S
H5961 C5987 0.950 . S
H5962 C5988 0.950 . S
H5963 C5990 0.950 . S
H5964 C5993 0.950 . S
H5965 C5994 0.950 . S
H5966 C5996 0.950 . S
H5967 C5997 0.950 . S
C5968 H5950 0.951 . S
C5968 C5969 1.366 . S
C5968 C5970 1.388 . S
C5969 C5968 1.366 . S
C5969 C5973 1.385 . S
C5970 H5951 0.951 . S
C5970 C5968 1.388 . S
C5970 C5971 1.366 . S
C5971 C5970 1.366 . S
C5971 C5972 1.414 . S
C5971 C5974 1.499 . S
C5972 H5952 0.950 . S
C5972 C5971 1.414 . S
C5972 C5973 1.374 . S
C5973 H5953 0.950 . S
C5973 C5969 1.385 . S
C5973 C5972 1.374 . S
C5974 C5971 1.499 . S
C5974 C5975 1.373 . S
C5974 C5976 1.389 . S
C5975 H5954 0.950 . S
C5975 C5974 1.373 . S
C5975 C5991 1.377 . S
C5976 C5974 1.389 . S
C5976 C5977 1.524 . S
C5976 C5990 1.377 . S
C5977 C5976 1.524 . S
C5977 C5978 1.397 . S
C5977 C5982 1.363 . S
C5978 H5955 0.950 . S
C5978 C5977 1.397 . S
C5978 C5979 1.334 . S
C5979 H5956 0.950 . S
C5979 C5978 1.334 . S
C5979 C5980 1.287 . S
C5980 C5979 1.287 . S
C5980 C5981 1.524 . S
C5980 H5999 0.913 . S
C5981 H5957 0.950 . S
C5981 C5980 1.524 . S
C5981 C5982 1.415 . S
C5982 H5958 0.950 . S
C5982 C5977 1.363 . S
C5982 C5981 1.415 . S
C5983 H5959 0.951 . S
C5983 C5984 1.366 . S
C5983 C5985 1.388 . S
C5984 C5983 1.366 . S
C5984 C5988 1.385 . S
C5985 H5960 0.951 . S
C5985 C5983 1.388 . S
C5985 C5986 1.366 . S
C5986 C5985 1.366 . S
C5986 C5987 1.414 . S
C5986 C5989 1.499 . S
C5987 H5961 0.950 . S
C5987 C5986 1.414 . S
C5987 C5988 1.374 . S
C5988 H5962 0.950 . S
C5988 C5984 1.385 . S
C5988 C5987 1.374 . S
C5989 C5986 1.499 . S
C5989 C5990 1.373 . S
C5989 C5991 1.389 . S
C5990 H5963 0.950 . S
C5990 C5976 1.377 . S
C5990 C5989 1.373 . S
C5991 C5975 1.377 . S
C5991 C5989 1.389 . S
C5991 C5992 1.524 . S
C5992 C5991 1.524 . S
C5992 C5993 1.397 . S
C5992 C5997 1.363 . S
C5993 H5964 0.950 . S
C5993 C5992 1.397 . S
C5993 C5994 1.334 . S
C5994 H5965 0.950 . S
C5994 C5993 1.334 . S
C5994 C5995 1.287 . S
C5995 C5994 1.287 . S
C5995 C5996 1.524 . S
C5995 H5998 0.999 . S
C5996 H5966 0.950 . S
C5996 C5995 1.524 . S
C5996 C5997 1.415 . S
C5997 H5967 0.950 . S
C5997 C5992 1.363 . S
C5997 C5996 1.415 . S
H5998 C5995 0.999 . S
H5999 C5980 0.913 . S
H6000 C6018 0.951 . S
H6001 C6020 0.951 . S
H6002 C6022 0.950 . S
H6003 C6023 0.950 . S
H6004 C6025 0.950 . S
H6005 C6028 0.950 . S
H6006 C6029 0.950 . S
H6007 C6031 0.950 . S
H6008 C6032 0.950 . S
H6009 C6033 0.951 . S
H6010 C6035 0.951 . S
H6011 C6037 0.950 . S
H6012 C6038 0.950 . S
H6013 C6040 0.950 . S
H6014 C6043 0.950 . S
H6015 C6044 0.950 . S
H6016 C6046 0.950 . S
H6017 C6047 0.950 . S
C6018 H6000 0.951 . S
C6018 C6019 1.366 . S
C6018 C6020 1.388 . S
C6019 C6018 1.366 . S
C6019 C6023 1.385 . S
C6020 H6001 0.951 . S
C6020 C6018 1.388 . S
C6020 C6021 1.366 . S
C6021 C6020 1.366 . S
C6021 C6022 1.414 . S
C6021 C6024 1.499 . S
C6022 H6002 0.950 . S
C6022 C6021 1.414 . S
C6022 C6023 1.374 . S
C6023 H6003 0.950 . S
C6023 C6019 1.385 . S
C6023 C6022 1.374 . S
C6024 C6021 1.499 . S
C6024 C6025 1.373 . S
C6024 C6026 1.389 . S
C6025 H6004 0.950 . S
C6025 C6024 1.373 . S
C6025 C6041 1.377 . S
C6026 C6024 1.389 . S
C6026 C6027 1.524 . S
C6026 C6040 1.377 . S
C6027 C6026 1.524 . S
C6027 C6028 1.397 . S
C6027 C6032 1.363 . S
C6028 H6005 0.950 . S
C6028 C6027 1.397 . S
C6028 C6029 1.334 . S
C6029 H6006 0.950 . S
C6029 C6028 1.334 . S
C6029 C6030 1.287 . S
C6030 C6029 1.287 . S
C6030 C6031 1.524 . S
C6030 H6049 0.913 . S
C6031 H6007 0.950 . S
C6031 C6030 1.524 . S
C6031 C6032 1.415 . S
C6032 H6008 0.950 . S
C6032 C6027 1.363 . S
C6032 C6031 1.415 . S
C6033 H6009 0.951 . S
C6033 C6034 1.366 . S
C6033 C6035 1.388 . S
C6034 C6033 1.366 . S
C6034 C6038 1.385 . S
C6035 H6010 0.951 . S
C6035 C6033 1.388 . S
C6035 C6036 1.366 . S
C6036 C6035 1.366 . S
C6036 C6037 1.414 . S
C6036 C6039 1.499 . S
C6037 H6011 0.950 . S
C6037 C6036 1.414 . S
C6037 C6038 1.374 . S
C6038 H6012 0.950 . S
C6038 C6034 1.385 . S
C6038 C6037 1.374 . S
C6039 C6036 1.499 . S
C6039 C6040 1.373 . S
C6039 C6041 1.389 . S
C6040 H6013 0.950 . S
C6040 C6026 1.377 . S
C6040 C6039 1.373 . S
C6041 C6025 1.377 . S
C6041 C6039 1.389 . S
C6041 C6042 1.524 . S
C6042 C6041 1.524 . S
C6042 C6043 1.397 . S
C6042 C6047 1.363 . S
C6043 H6014 0.950 . S
C6043 C6042 1.397 . S
C6043 C6044 1.334 . S
C6044 H6015 0.950 . S
C6044 C6043 1.334 . S
C6044 C6045 1.287 . S
C6045 C6044 1.287 . S
C6045 C6046 1.524 . S
C6045 H6048 0.999 . S
C6046 H6016 0.950 . S
C6046 C6045 1.524 . S
C6046 C6047 1.415 . S
C6047 H6017 0.950 . S
C6047 C6042 1.363 . S
C6047 C6046 1.415 . S
H6048 C6045 0.999 . S
H6049 C6030 0.913 . S
H6050 C6068 0.951 . S
H6051 C6070 0.951 . S
H6052 C6072 0.950 . S
H6053 C6073 0.950 . S
H6054 C6075 0.950 . S
H6055 C6078 0.950 . S
H6056 C6079 0.950 . S
H6057 C6081 0.950 . S
H6058 C6082 0.950 . S
H6059 C6083 0.951 . S
H6060 C6085 0.951 . S
H6061 C6087 0.950 . S
H6062 C6088 0.950 . S
H6063 C6090 0.950 . S
H6064 C6093 0.950 . S
H6065 C6094 0.950 . S
H6066 C6096 0.950 . S
H6067 C6097 0.950 . S
C6068 H6050 0.951 . S
C6068 C6069 1.366 . S
C6068 C6070 1.388 . S
C6069 C6068 1.366 . S
C6069 C6073 1.385 . S
C6070 H6051 0.951 . S
C6070 C6068 1.388 . S
C6070 C6071 1.366 . S
C6071 C6070 1.366 . S
C6071 C6072 1.414 . S
C6071 C6074 1.499 . S
C6072 H6052 0.950 . S
C6072 C6071 1.414 . S
C6072 C6073 1.374 . S
C6073 H6053 0.950 . S
C6073 C6069 1.385 . S
C6073 C6072 1.374 . S
C6074 C6071 1.499 . S
C6074 C6075 1.373 . S
C6074 C6076 1.389 . S
C6075 H6054 0.950 . S
C6075 C6074 1.373 . S
C6075 C6091 1.377 . S
C6076 C6074 1.389 . S
C6076 C6077 1.524 . S
C6076 C6090 1.377 . S
C6077 C6076 1.524 . S
C6077 C6078 1.397 . S
C6077 C6082 1.363 . S
C6078 H6055 0.950 . S
C6078 C6077 1.397 . S
C6078 C6079 1.334 . S
C6079 H6056 0.950 . S
C6079 C6078 1.334 . S
C6079 C6080 1.287 . S
C6080 C6079 1.287 . S
C6080 C6081 1.524 . S
C6080 H6099 0.913 . S
C6081 H6057 0.950 . S
C6081 C6080 1.524 . S
C6081 C6082 1.415 . S
C6082 H6058 0.950 . S
C6082 C6077 1.363 . S
C6082 C6081 1.415 . S
C6083 H6059 0.951 . S
C6083 C6084 1.366 . S
C6083 C6085 1.388 . S
C6084 C6083 1.366 . S
C6084 C6088 1.385 . S
C6085 H6060 0.951 . S
C6085 C6083 1.388 . S
C6085 C6086 1.366 . S
C6086 C6085 1.366 . S
C6086 C6087 1.414 . S
C6086 C6089 1.499 . S
C6087 H6061 0.950 . S
C6087 C6086 1.414 . S
C6087 C6088 1.374 . S
C6088 H6062 0.950 . S
C6088 C6084 1.385 . S
C6088 C6087 1.374 . S
C6089 C6086 1.499 . S
C6089 C6090 1.373 . S
C6089 C6091 1.389 . S
C6090 H6063 0.950 . S
C6090 C6076 1.377 . S
C6090 C6089 1.373 . S
C6091 C6075 1.377 . S
C6091 C6089 1.389 . S
C6091 C6092 1.524 . S
C6092 C6091 1.524 . S
C6092 C6093 1.397 . S
C6092 C6097 1.363 . S
C6093 H6064 0.950 . S
C6093 C6092 1.397 . S
C6093 C6094 1.334 . S
C6094 H6065 0.950 . S
C6094 C6093 1.334 . S
C6094 C6095 1.287 . S
C6095 C6094 1.287 . S
C6095 C6096 1.524 . S
C6095 H6098 0.999 . S
C6096 H6066 0.950 . S
C6096 C6095 1.524 . S
C6096 C6097 1.415 . S
C6097 H6067 0.950 . S
C6097 C6092 1.363 . S
C6097 C6096 1.415 . S
H6098 C6095 0.999 . S
H6099 C6080 0.913 . S
H6100 C6118 0.951 . S
H6101 C6120 0.951 . S
H6102 C6122 0.950 . S
H6103 C6123 0.950 . S
H6104 C6125 0.950 . S
H6105 C6128 0.950 . S
H6106 C6129 0.950 . S
H6107 C6131 0.950 . S
H6108 C6132 0.950 . S
H6109 C6133 0.951 . S
H6110 C6135 0.951 . S
H6111 C6137 0.950 . S
H6112 C6138 0.950 . S
H6113 C6140 0.950 . S
H6114 C6143 0.950 . S
H6115 C6144 0.950 . S
H6116 C6146 0.950 . S
H6117 C6147 0.950 . S
C6118 H6100 0.951 . S
C6118 C6119 1.366 . S
C6118 C6120 1.388 . S
C6119 C6118 1.366 . S
C6119 C6123 1.385 . S
C6120 H6101 0.951 . S
C6120 C6118 1.388 . S
C6120 C6121 1.366 . S
C6121 C6120 1.366 . S
C6121 C6122 1.414 . S
C6121 C6124 1.499 . S
C6122 H6102 0.950 . S
C6122 C6121 1.414 . S
C6122 C6123 1.374 . S
C6123 H6103 0.950 . S
C6123 C6119 1.385 . S
C6123 C6122 1.374 . S
C6124 C6121 1.499 . S
C6124 C6125 1.373 . S
C6124 C6126 1.389 . S
C6125 H6104 0.950 . S
C6125 C6124 1.373 . S
C6125 C6141 1.377 . S
C6126 C6124 1.389 . S
C6126 C6127 1.524 . S
C6126 C6140 1.377 . S
C6127 C6126 1.524 . S
C6127 C6128 1.397 . S
C6127 C6132 1.363 . S
C6128 H6105 0.950 . S
C6128 C6127 1.397 . S
C6128 C6129 1.334 . S
C6129 H6106 0.950 . S
C6129 C6128 1.334 . S
C6129 C6130 1.287 . S
C6130 C6129 1.287 . S
C6130 C6131 1.524 . S
C6130 H6149 0.913 . S
C6131 H6107 0.950 . S
C6131 C6130 1.524 . S
C6131 C6132 1.415 . S
C6132 H6108 0.950 . S
C6132 C6127 1.363 . S
C6132 C6131 1.415 . S
C6133 H6109 0.951 . S
C6133 C6134 1.366 . S
C6133 C6135 1.388 . S
C6134 C6133 1.366 . S
C6134 C6138 1.385 . S
C6135 H6110 0.951 . S
C6135 C6133 1.388 . S
C6135 C6136 1.366 . S
C6136 C6135 1.366 . S
C6136 C6137 1.414 . S
C6136 C6139 1.499 . S
C6137 H6111 0.950 . S
C6137 C6136 1.414 . S
C6137 C6138 1.374 . S
C6138 H6112 0.950 . S
C6138 C6134 1.385 . S
C6138 C6137 1.374 . S
C6139 C6136 1.499 . S
C6139 C6140 1.373 . S
C6139 C6141 1.389 . S
C6140 H6113 0.950 . S
C6140 C6126 1.377 . S
C6140 C6139 1.373 . S
C6141 C6125 1.377 . S
C6141 C6139 1.389 . S
C6141 C6142 1.524 . S
C6142 C6141 1.524 . S
C6142 C6143 1.397 . S
C6142 C6147 1.363 . S
C6143 H6114 0.950 . S
C6143 C6142 1.397 . S
C6143 C6144 1.334 . S
C6144 H6115 0.950 . S
C6144 C6143 1.334 . S
C6144 C6145 1.287 . S
C6145 C6144 1.287 . S
C6145 C6146 1.524 . S
C6145 H6148 0.999 . S
C6146 H6116 0.950 . S
C6146 C6145 1.524 . S
C6146 C6147 1.415 . S
C6147 H6117 0.950 . S
C6147 C6142 1.363 . S
C6147 C6146 1.415 . S
H6148 C6145 0.999 . S
H6149 C6130 0.913 . S
H6150 C6168 0.951 1_455 S
H6151 C6170 0.910 1_455 S
H6152 C6172 0.950 . S
H6153 C6173 0.950 . S
H6154 C6175 0.950 . S
H6155 C6178 0.950 . S
H6156 C6179 0.950 . S
H6157 C6181 0.950 . S
H6158 C6182 0.950 . S
H6159 C6183 0.951 . S
H6160 C6185 0.951 . S
H6161 C6187 0.950 . S
H6162 C6188 0.950 . S
H6163 C6190 0.940 1_455 S
H6164 C6193 0.950 1_455 S
H6165 C6194 0.950 1_455 S
H6166 C6196 0.950 . S
H6167 C6197 0.950 . S
C6168 H6150 0.951 1_655 S
C6168 C6169 1.366 . S
C6168 C6170 1.407 . S
C6169 C6168 1.366 . S
C6169 C6173 1.385 . S
C6170 H6151 0.910 1_655 S
C6170 C6168 1.407 . S
C6170 C6171 1.387 . S
C6171 C6170 1.387 . S
C6171 C6172 1.414 . S
C6171 C6174 1.499 . S
C6172 H6152 0.950 . S
C6172 C6171 1.414 . S
C6172 C6173 1.374 . S
C6173 H6153 0.950 . S
C6173 C6169 1.385 . S
C6173 C6172 1.374 . S
C6174 C6171 1.499 . S
C6174 C6175 1.373 . S
C6174 C6176 1.389 . S
C6175 H6154 0.950 . S
C6175 C6174 1.373 . S
C6175 C6191 1.377 . S
C6176 C6174 1.389 . S
C6176 C6177 1.524 . S
C6176 C6190 1.377 . S
C6177 C6176 1.524 . S
C6177 C6178 1.397 . S
C6177 C6182 1.363 1_655 S
C6178 H6155 0.950 . S
C6178 C6177 1.397 . S
C6178 C6179 1.334 . S
C6179 H6156 0.950 . S
C6179 C6178 1.334 . S
C6179 C6180 1.287 . S
C6180 C6179 1.287 . S
C6180 C6181 1.524 1_655 S
C6180 H6199 0.913 . S
C6181 H6157 0.950 . S
C6181 C6180 1.524 1_455 S
C6181 C6182 1.415 . S
C6182 H6158 0.950 . S
C6182 C6177 1.363 1_455 S
C6182 C6181 1.415 . S
C6183 H6159 0.951 . S
C6183 C6184 1.366 . S
C6183 C6185 1.388 . S
C6184 C6183 1.366 . S
C6184 C6188 1.385 1_655 S
C6185 H6160 0.951 . S
C6185 C6183 1.388 . S
C6185 C6186 1.366 . S
C6186 C6185 1.366 . S
C6186 C6187 1.414 1_655 S
C6186 C6189 1.499 . S
C6187 H6161 0.950 . S
C6187 C6186 1.414 1_455 S
C6187 C6188 1.374 . S
C6188 H6162 0.950 . S
C6188 C6184 1.385 1_455 S
C6188 C6187 1.374 . S
C6189 C6186 1.499 . S
C6189 C6190 1.373 . S
C6189 C6191 1.389 . S
C6190 H6163 0.940 1_655 S
C6190 C6176 1.377 . S
C6190 C6189 1.373 . S
C6191 C6175 1.377 . S
C6191 C6189 1.389 . S
C6191 C6192 1.524 . S
C6192 C6191 1.524 . S
C6192 C6193 1.397 . S
C6192 C6197 1.363 . S
C6193 H6164 0.950 1_655 S
C6193 C6192 1.397 . S
C6193 C6194 1.334 . S
C6194 H6165 0.950 1_655 S
C6194 C6193 1.334 . S
C6194 C6195 1.287 . S
C6195 C6194 1.287 . S
C6195 C6196 1.524 . S
C6195 H6198 0.999 . S
C6196 H6166 0.950 . S
C6196 C6195 1.524 . S
C6196 C6197 1.415 . S
C6197 H6167 0.950 . S
C6197 C6192 1.363 . S
C6197 C6196 1.415 . S
H6198 C6195 0.999 . S
H6199 C6180 0.913 . S
H6200 C6218 0.951 . S
H6201 C6220 0.951 . S
H6202 C6222 0.950 . S
H6203 C6223 0.950 . S
H6204 C6225 0.950 . S
H6205 C6228 0.950 . S
H6206 C6229 0.950 . S
H6207 C6231 0.950 . S
H6208 C6232 0.950 . S
H6209 C6233 0.951 . S
H6210 C6235 0.951 . S
H6211 C6237 0.950 . S
H6212 C6238 0.950 . S
H6213 C6240 0.950 . S
H6214 C6243 0.950 . S
H6215 C6244 0.950 . S
H6216 C6246 0.950 . S
H6217 C6247 0.950 . S
C6218 H6200 0.951 . S
C6218 C6219 1.366 . S
C6218 C6220 1.388 . S
C6219 C6218 1.366 . S
C6219 C6223 1.385 . S
C6220 H6201 0.951 . S
C6220 C6218 1.388 . S
C6220 C6221 1.366 . S
C6221 C6220 1.366 . S
C6221 C6222 1.414 . S
C6221 C6224 1.499 . S
C6222 H6202 0.950 . S
C6222 C6221 1.414 . S
C6222 C6223 1.374 . S
C6223 H6203 0.950 . S
C6223 C6219 1.385 . S
C6223 C6222 1.374 . S
C6224 C6221 1.499 . S
C6224 C6225 1.373 . S
C6224 C6226 1.389 . S
C6225 H6204 0.950 . S
C6225 C6224 1.373 . S
C6225 C6241 1.377 . S
C6226 C6224 1.389 . S
C6226 C6227 1.524 . S
C6226 C6240 1.377 . S
C6227 C6226 1.524 . S
C6227 C6228 1.397 . S
C6227 C6232 1.363 . S
C6228 H6205 0.950 . S
C6228 C6227 1.397 . S
C6228 C6229 1.334 . S
C6229 H6206 0.950 . S
C6229 C6228 1.334 . S
C6229 C6230 1.287 . S
C6230 C6229 1.287 . S
C6230 C6231 1.524 . S
C6230 H6249 0.913 . S
C6231 H6207 0.950 . S
C6231 C6230 1.524 . S
C6231 C6232 1.415 . S
C6232 H6208 0.950 . S
C6232 C6227 1.363 . S
C6232 C6231 1.415 . S
C6233 H6209 0.951 . S
C6233 C6234 1.366 . S
C6233 C6235 1.388 . S
C6234 C6233 1.366 . S
C6234 C6238 1.385 . S
C6235 H6210 0.951 . S
C6235 C6233 1.388 . S
C6235 C6236 1.366 . S
C6236 C6235 1.366 . S
C6236 C6237 1.414 . S
C6236 C6239 1.499 . S
C6237 H6211 0.950 . S
C6237 C6236 1.414 . S
C6237 C6238 1.374 . S
C6238 H6212 0.950 . S
C6238 C6234 1.385 . S
C6238 C6237 1.374 . S
C6239 C6236 1.499 . S
C6239 C6240 1.373 . S
C6239 C6241 1.389 . S
C6240 H6213 0.950 . S
C6240 C6226 1.377 . S
C6240 C6239 1.373 . S
C6241 C6225 1.377 . S
C6241 C6239 1.389 . S
C6241 C6242 1.524 . S
C6242 C6241 1.524 . S
C6242 C6243 1.397 . S
C6242 C6247 1.363 . S
C6243 H6214 0.950 . S
C6243 C6242 1.397 . S
C6243 C6244 1.334 . S
C6244 H6215 0.950 . S
C6244 C6243 1.334 . S
C6244 C6245 1.287 . S
C6245 C6244 1.287 . S
C6245 C6246 1.524 . S
C6245 H6248 0.999 . S
C6246 H6216 0.950 . S
C6246 C6245 1.524 . S
C6246 C6247 1.415 . S
C6247 H6217 0.950 . S
C6247 C6242 1.363 . S
C6247 C6246 1.415 . S
H6248 C6245 0.999 . S
H6249 C6230 0.913 . S
H6250 C6268 0.951 1_565 S
H6251 C6270 0.951 1_565 S
H6252 C6272 0.950 . S
H6253 C6273 0.950 . S
H6254 C6275 0.950 . S
H6255 C6278 0.950 . S
H6256 C6279 0.950 . S
H6257 C6281 0.950 . S
H6258 C6282 0.950 1_565 S
H6259 C6283 0.951 . S
H6260 C6285 0.951 . S
H6261 C6287 0.950 . S
H6262 C6288 0.950 . S
H6263 C6290 0.950 . S
H6264 C6293 0.950 . S
H6265 C6294 0.950 . S
H6266 C6296 0.950 . S
H6267 C6297 0.950 . S
C6268 H6250 0.951 1_545 S
C6268 C6269 1.366 . S
C6268 C6270 1.388 . S
C6269 C6268 1.366 . S
C6269 C6273 1.385 . S
C6270 H6251 0.951 1_545 S
C6270 C6268 1.388 . S
C6270 C6271 1.366 . S
C6271 C6270 1.366 . S
C6271 C6272 1.414 . S
C6271 C6274 1.499 . S
C6272 H6252 0.950 . S
C6272 C6271 1.414 . S
C6272 C6273 1.374 . S
C6273 H6253 0.950 . S
C6273 C6269 1.385 . S
C6273 C6272 1.374 . S
C6274 C6271 1.499 . S
C6274 C6275 1.373 . S
C6274 C6276 1.389 . S
C6275 H6254 0.950 . S
C6275 C6274 1.373 . S
C6275 C6291 1.377 . S
C6276 C6274 1.389 . S
C6276 C6277 1.524 . S
C6276 C6290 1.377 . S
C6277 C6276 1.524 . S
C6277 C6278 1.397 . S
C6277 C6282 1.363 . S
C6278 H6255 0.950 . S
C6278 C6277 1.397 . S
C6278 C6279 1.334 . S
C6279 H6256 0.950 . S
C6279 C6278 1.334 . S
C6279 C6280 1.287 . S
C6280 C6279 1.287 . S
C6280 C6281 1.524 . S
C6280 H6299 0.913 . S
C6281 H6257 0.950 . S
C6281 C6280 1.524 . S
C6281 C6282 1.415 . S
C6282 H6258 0.950 1_545 S
C6282 C6277 1.363 . S
C6282 C6281 1.415 . S
C6283 H6259 0.951 . S
C6283 C6284 1.366 . S
C6283 C6285 1.388 . S
C6284 C6283 1.366 . S
C6284 C6288 1.385 1_545 S
C6285 H6260 0.951 . S
C6285 C6283 1.388 . S
C6285 C6286 1.366 . S
C6286 C6285 1.366 . S
C6286 C6287 1.414 1_545 S
C6286 C6289 1.499 . S
C6287 H6261 0.950 . S
C6287 C6286 1.414 1_565 S
C6287 C6288 1.374 . S
C6288 H6262 0.950 . S
C6288 C6284 1.385 1_565 S
C6288 C6287 1.374 . S
C6289 C6286 1.499 . S
C6289 C6290 1.373 . S
C6289 C6291 1.389 . S
C6290 H6263 0.950 . S
C6290 C6276 1.377 . S
C6290 C6289 1.373 . S
C6291 C6275 1.377 . S
C6291 C6289 1.389 . S
C6291 C6292 1.555 . S
C6292 C6291 1.555 . S
C6292 C6293 1.350 1_545 S
C6292 C6297 1.378 . S
C6293 H6264 0.950 . S
C6293 C6292 1.350 1_565 S
C6293 C6294 1.334 . S
C6294 H6265 0.950 . S
C6294 C6293 1.334 . S
C6294 C6295 1.287 . S
C6295 C6294 1.287 . S
C6295 C6296 1.524 1_565 S
C6295 H6298 0.999 . S
C6296 H6266 0.950 . S
C6296 C6295 1.524 1_545 S
C6296 C6297 1.415 . S
C6297 H6267 0.950 . S
C6297 C6292 1.378 . S
C6297 C6296 1.415 . S
H6298 C6295 0.999 . S
H6299 C6280 0.913 . S
C2719 C4 1.251 1_655 S
C2734 C1703 1.046 . S
C2769 C38 1.845 . S
C2784 C1843 1.210 . S
C2834 C1931 1.133 . S
C2819 C74 1.271 . S
C2869 C76 1.335 . S
C2884 C2071 0.997 1_565 S
C2919 C2 1.403 . S
C2934 C2185 1.086 . S
C2969 C40 1.649 . S
C2984 C2273 1.240 . S
C3019 C110 1.270 . S
C3034 C2159 1.067 . S
C3084 C2299 1.322 . S
C3069 C148 1.573 . S
C3134 C2045 1.163 . S
C3119 C182 1.330 . S
C3169 C184 1.392 . S
C3184 C1957 1.055 . S
C3234 C1729 1.044 . S
C3219 C112 1.303 . S
C3269 C146 1.667 . S
C3284 C1817 1.493 . S
C3319 C220 1.773 . S
C3334 C2387 1.333 . S
C3369 C254 1.953 . S
C3384 C2527 1.294 . S
C3434 C2615 1.319 . S
C3419 C290 1.761 . S
C3469 C292 1.686 . S
C3484 C703 1.104 . S
C3519 C218 1.872 . S
C3534 C817 1.249 . S
C3569 C256 1.712 . S
C3584 C905 1.285 . S
C3619 C326 1.618 . S
C3634 C791 1.454 . S
C3669 C364 1.670 . S
C3684 C931 1.427 . S
C3734 C677 1.582 . S
C3719 C398 1.751 . S
C3784 C2641 1.553 . S
C3769 C400 1.831 . S
C3834 C2413 1.304 . S
C3819 C328 1.550 . S
C3884 C2501 1.609 . S
C3869 C362 1.777 . S
C3919 C436 1.595 . S
C3934 C1019 1.180 . S
C3969 C470 1.933 . S
C3984 C1159 1.276 . S
C4019 C506 1.792 . S
C4034 C1247 1.353 . S
C4069 C508 1.866 . S
C4084 C1387 1.251 . S
C4134 C1501 1.209 . S
C4119 C434 1.827 . S
C4184 C1589 1.311 . S
C4169 C472 1.737 . S
C4234 C1475 1.633 . S
C4219 C542 1.811 . S
C4284 C1615 1.434 . S
C4269 C580 1.680 . S
C4319 C614 1.689 . S
C4334 C1361 1.524 . S
C4384 C1273 1.380 . S
C4369 C616 1.636 . S
C4419 C544 1.609 . S
C4434 C1045 1.353 . S
C4484 C1133 1.567 . S
C4469 C578 1.726 . S
C4534 C659 1.065 . S
C4519 C14 1.853 . S
C4569 C39 1.624 . S
C4584 C773 0.899 . S
C4634 C877 1.212 . S
C4619 C75 1.670 . S
C4684 C991 1.111 . S
C4669 C86 1.472 . S
C4734 C1115 0.996 . S
C4719 C3 1.779 . S
C4784 C1219 1.196 . S
C4769 C50 1.618 . S
C4819 C111 1.914 . S
C4834 C1229 1.445 . S
C4869 C158 1.645 . S
C4884 C1001 1.250 . S
C4919 C183 1.918 1_556 S
C4934 C1105 1.676 . S
C4969 C194 1.748 . S
C4984 C763 1.531 . S
C5034 C887 1.343 . S
C5019 C122 1.767 . S
C5069 C147 1.620 . S
C5084 C649 1.397 . S
C5134 C1343 1.021 . S
C5119 C230 1.758 . S
C5169 C255 1.838 . S
C5184 C1457 1.070 . S
C5219 C291 1.709 . S
C5234 C1561 1.284 . S
C5284 C1675 0.921 . S
C5269 C302 1.046 . S
C5319 C219 1.674 . S
C5334 C1799 0.938 . S
C5369 C266 1.266 . S
C5384 C1903 1.070 . S
C5419 C327 1.325 . S
C5434 C1913 0.869 1_565 S
C5469 C374 1.218 . S
C5484 C1685 0.863 1_455 S
C5534 C1789 1.573 . S
C5519 C399 1.825 . S
C5569 C410 1.660 . S
C5584 C1447 1.458 . S
C5619 C338 1.810 . S
C5634 C1571 1.398 . S
C5684 C1333 1.584 . S
C5669 C363 1.830 . S
C5734 C2027 0.901 . S
C5719 C446 1.357 . S
C5769 C471 1.280 . S
C5784 C2141 0.836 . S
C5819 C507 1.572 . S
C5834 C2245 1.156 . S
C5884 C2359 1.081 . S
C5869 C518 1.413 . S
C5934 C2483 1.071 . S
C5919 C435 1.823 . S
C5969 C482 1.873 . S
C5984 C2587 1.371 . S
C6019 C543 1.786 . S
C6034 C2597 1.338 . S
C6069 C590 1.839 . S
C6084 C2369 1.421 . S
C6134 C2473 1.699 . S
C6119 C615 1.946 . S
C6184 C2131 1.001 1_655 S
C6169 C626 1.157 . S
C6234 C2255 1.282 . S
C6219 C554 1.704 . S
C6269 C579 1.241 . S
C6284 C2017 1.012 1_545 S
