# Generated by pormake.
# Topology pyr, (3,6)-cn, num edge types: 1
# Building blocks:
#     Node 0, Type 0, BuildingBlock: KAKCAD_clean_linker_0, # of connection points: 3
#     Node 1, Type 0, BuildingBlock: KAKCAD_clean_linker_0, # of connection points: 3
#     Node 2, Type 0, BuildingBlock: KAKCAD_clean_linker_0, # of connection points: 3
#     Node 3, Type 0, BuildingBlock: KAKCAD_clean_linker_0, # of connection points: 3
#     Node 4, Type 0, BuildingBlock: KAKCAD_clean_linker_0, # of connection points: 3
#     Node 5, Type 0, BuildingBlock: KAKCAD_clean_linker_0, # of connection points: 3
#     Node 6, Type 0, BuildingBlock: KAKCAD_clean_linker_0, # of connection points: 3
#     Node 7, Type 0, BuildingBlock: KAKCAD_clean_linker_0, # of connection points: 3
#     Node 8, Type 1, BuildingBlock: BETFEN_clean_sbu_0, # of connection points: 6
#     Node 9, Type 1, BuildingBlock: BETFEN_clean_sbu_0, # of connection points: 6
#     Node 10, Type 1, BuildingBlock: BETFEN_clean_sbu_0, # of connection points: 6
#     Node 11, Type 1, BuildingBlock: BETFEN_clean_sbu_0, # of connection points: 6
#     Edge 12, Type (0, 1), None
#     Edge 13, Type (0, 1), None
#     Edge 14, Type (0, 1), None
#     Edge 15, Type (0, 1), None
#     Edge 16, Type (0, 1), None
#     Edge 17, Type (0, 1), None
#     Edge 18, Type (0, 1), None
#     Edge 19, Type (0, 1), None
#     Edge 20, Type (0, 1), None
#     Edge 21, Type (0, 1), None
#     Edge 22, Type (0, 1), None
#     Edge 23, Type (0, 1), None
#     Edge 24, Type (0, 1), None
#     Edge 25, Type (0, 1), None
#     Edge 26, Type (0, 1), None
#     Edge 27, Type (0, 1), None
#     Edge 28, Type (0, 1), None
#     Edge 29, Type (0, 1), None
#     Edge 30, Type (0, 1), None
#     Edge 31, Type (0, 1), None
#     Edge 32, Type (0, 1), None
#     Edge 33, Type (0, 1), None
#     Edge 34, Type (0, 1), None
#     Edge 35, Type (0, 1), None
# Relax obj value: 0.255
# Max RMSD: 0.303
# Mean RMSD: 0.150
data_MOF--net-pyr--node1-BETFEN_clean_sbu_0--node2-KAKCAD_clean_linker_0--edge1-none
_symmetry_space_group_name_H-M    P1
_symmetry_Int_Tables_number       1
_symmetry_cell_setting            triclinic
loop_
_symmetry_equiv_pos_as_xyz
'x, y, z'
_cell_length_a     25.53222
_cell_length_b     28.274458
_cell_length_c     22.871737
_cell_angle_alpha  90.323016
_cell_angle_beta   97.617624
_cell_angle_gamma 111.20533
loop_
_atom_site_label
_atom_site_type_symbol
_atom_site_fract_x
_atom_site_fract_y
_atom_site_fract_z
_atom_type_partial_charge
C0 C 0.33406 0.31497 0.41269 0.0
C1 C 0.34899 0.27569 0.43762 0.0
C2 C 0.37337 0.35422 0.38687 0.0
C3 C 0.42939 0.356 0.38624 0.0
C4 C 0.44369 0.31608 0.41135 0.0
C5 C 0.40431 0.27683 0.43707 0.0
C6 C 0.47072 0.39707 0.35579 0.0
C7 C 0.4614 0.44204 0.3432 0.0
C8 C 0.48338 0.4703 0.29585 0.0
C9 C 0.52502 0.46027 0.26945 0.0
C10 C 0.54217 0.42046 0.28857 0.0
C11 C 0.51397 0.38846 0.33064 0.0
C12 C 0.57537 0.40103 0.25374 0.0
C13 C 0.54904 0.37881 0.19728 0.0
C14 C 0.6169 0.38502 0.28435 0.0
C15 C 0.62134 0.33974 0.26568 0.0
C16 C 0.58466 0.31112 0.2165 0.0
C17 C 0.44645 0.49367 0.26283 0.0
C18 C 0.42872 0.52657 0.29383 0.0
C19 C 0.41153 0.46621 0.21186 0.0
C20 C 0.35558 0.4637 0.19962 0.0
C21 C 0.33459 0.48994 0.23725 0.0
C22 C 0.37312 0.52469 0.28132 0.0
C23 C 0.5533 0.33345 0.17885 0.0
H24 H 0.29123 0.31438 0.41109 0.0
H25 H 0.35825 0.38177 0.36548 0.0
H26 H 0.48533 0.31465 0.41169 0.0
H27 H 0.41718 0.24711 0.45632 0.0
H28 H 0.43022 0.45111 0.36391 0.0
H29 H 0.52191 0.35378 0.33813 0.0
H30 H 0.53992 0.48004 0.23089 0.0
H31 H 0.51733 0.39091 0.17249 0.0
H32 H 0.63809 0.40213 0.32773 0.0
H33 H 0.64623 0.32317 0.29455 0.0
H34 H 0.45469 0.5473 0.3334 0.0
H35 H 0.42415 0.44029 0.18714 0.0
H36 H 0.52553 0.31222 0.13992 0.0
H37 H 0.3591 0.54668 0.31005 0.0
H38 H 0.32767 0.43684 0.16479 0.0
C39 C 0.318 0.95195 0.97882 0.0
C40 C 0.34866 0.93167 1.01967 0.0
C41 C 0.2783 0.92055 0.93382 0.0
C42 C 0.26955 0.86849 0.92862 0.0
C43 C 0.29511 0.84736 0.97417 0.0
C44 C 0.33457 0.87892 1.01959 0.0
C45 C 0.24628 0.84093 0.87005 0.0
C46 C 0.20176 0.84949 0.83473 0.0
C47 C 0.1929 0.83988 0.77334 0.0
C48 C 0.22578 0.81717 0.74762 0.0
C49 C 0.2688 0.80607 0.78287 0.0
C50 C 0.27827 0.81751 0.84407 0.0
C51 C 0.30904 0.7891 0.75559 0.0
C52 C 0.28949 0.74677 0.71522 0.0
C53 C 0.3678 0.81504 0.77095 0.0
C54 C 0.40625 0.79775 0.74845 0.0
C55 C 0.38701 0.75345 0.71098 0.0
C56 C 0.16011 0.86542 0.73682 0.0
C57 C 0.10531 0.86046 0.74698 0.0
C58 C 0.18792 0.90204 0.69896 0.0
C59 C 0.16254 0.93459 0.67368 0.0
C60 C 0.10845 0.93073 0.68502 0.0
C61 C 0.0793 0.89248 0.72058 0.0
C62 C 0.32807 0.72896 0.69333 0.0
H63 H 0.32924 0.99272 0.97771 0.0
H64 H 0.25996 0.93836 0.89931 0.0
H65 H 0.28889 0.80738 0.97146 0.0
H66 H 0.3588 0.86284 1.05033 0.0
H67 H 0.17846 0.86938 0.85414 0.0
H68 H 0.31387 0.81202 0.87063 0.0
H69 H 0.22068 0.81167 0.69995 0.0
H70 H 0.24439 0.72651 0.70212 0.0
H71 H 0.38412 0.84853 0.80101 0.0
H72 H 0.45105 0.81817 0.76244 0.0
H73 H 0.08344 0.83285 0.77668 0.0
H74 H 0.23064 0.90735 0.69138 0.0
H75 H 0.31159 0.69553 0.66325 0.0
H76 H 0.03731 0.88841 0.72949 0.0
H77 H 0.18562 0.96308 0.64553 0.0
C78 C 0.84689 0.45169 1.02583 0.0
C79 C 0.87977 0.42138 1.03787 0.0
C80 C 0.79401 0.43221 0.98992 0.0
C81 C 0.77299 0.38198 0.96554 0.0
C82 C 0.80672 0.35224 0.97654 0.0
C83 C 0.85943 0.37169 1.01235 0.0
C84 C 0.71452 0.35911 0.93239 0.0
C85 C 0.69341 0.38534 0.88924 0.0
C86 C 0.63725 0.36403 0.85946 0.0
C87 C 0.60199 0.31495 0.87399 0.0
C88 C 0.62364 0.28747 0.91608 0.0
C89 C 0.67939 0.31058 0.94517 0.0
C90 C 0.5906 0.23467 0.932 0.0
C91 C 0.53896 0.22292 0.9545 0.0
C92 C 0.61642 0.19812 0.93488 0.0
C93 C 0.5938 0.15294 0.96326 0.0
C94 C 0.54425 0.14254 0.98919 0.0
C95 C 0.61694 0.39429 0.81406 0.0
C96 C 0.56506 0.4011 0.81465 0.0
C97 C 0.65205 0.42055 0.77283 0.0
C98 C 0.63683 0.45394 0.73497 0.0
C99 C 0.58661 0.46289 0.73803 0.0
C100 C 0.55032 0.43527 0.77743 0.0
C101 C 0.51594 0.17722 0.9827 0.0
H102 H 0.86161 0.49011 1.04508 0.0
H103 H 0.76875 0.45581 0.98288 0.0
H104 H 0.79206 0.3136 0.95781 0.0
H105 H 0.88411 0.34764 1.0203 0.0
H106 H 0.72098 0.42267 0.87901 0.0
H107 H 0.69533 0.29075 0.97934 0.0
H108 H 0.55887 0.29772 0.8515 0.0
H109 H 0.51834 0.25036 0.95367 0.0
H110 H 0.65615 0.20583 0.91784 0.0
H111 H 0.61644 0.127 0.96691 0.0
H112 H 0.5371 0.38188 0.84585 0.0
H113 H 0.69201 0.41588 0.7705 0.0
H114 H 0.47756 0.17034 1.00209 0.0
H115 H 0.51093 0.44086 0.78035 0.0
H116 H 0.66539 0.47412 0.70471 0.0
C117 C 0.95858 0.57085 0.28981 0.0
C118 C 0.96408 0.58897 0.23277 0.0
C119 C 0.93939 0.5949 0.33205 0.0
C120 C 0.92648 0.63849 0.31897 0.0
C121 C 0.93236 0.65668 0.26209 0.0
C122 C 0.95025 0.63206 0.21958 0.0
C123 C 0.90711 0.66524 0.36399 0.0
C124 C 0.86305 0.63787 0.39632 0.0
C125 C 0.84279 0.66329 0.43645 0.0
C126 C 0.86775 0.71656 0.44367 0.0
C127 C 0.91304 0.74457 0.41437 0.0
C128 C 0.93227 0.71867 0.37419 0.0
C129 C 0.94195 0.80032 0.43025 0.0
C130 C 0.91025 0.83101 0.43896 0.0
C131 C 1.00126 0.82172 0.44457 0.0
C132 C 0.02789 0.87142 0.46964 0.0
C133 C 0.99604 0.90124 0.48075 0.0
C134 C 0.79484 0.63571 0.47028 0.0
C135 C 0.75 0.59127 0.44595 0.0
C136 C 0.7915 0.65567 0.52604 0.0
C137 C 0.74353 0.6341 0.55434 0.0
C138 C 0.69867 0.59053 0.52916 0.0
C139 C 0.70295 0.56869 0.47537 0.0
C140 C 0.93699 0.8809 0.46393 0.0
H141 H 0.96867 0.5378 0.30175 0.0
H142 H 0.93561 0.57987 0.37539 0.0
H143 H 0.92244 0.68981 0.25014 0.0
H144 H 0.95397 0.64739 0.17637 0.0
H145 H 0.84438 0.5969 0.38966 0.0
H146 H 0.96703 0.74009 0.35104 0.0
H147 H 0.8524 0.73687 0.47324 0.0
H148 H 0.86444 0.81589 0.42796 0.0
H149 H 1.02694 0.79918 0.43925 0.0
H150 H 0.07358 0.88599 0.48185 0.0
H151 H 0.75006 0.57471 0.4032 0.0
H152 H 0.82576 0.68849 0.54806 0.0
H153 H 0.91133 0.90296 0.47157 0.0
H154 H 0.66874 0.53507 0.45475 0.0
H155 H 0.74179 0.65122 0.59619 0.0
C156 C 0.71607 0.7212 0.73225 0.0
C157 C 0.72077 0.77193 0.74026 0.0
C158 C 0.67628 0.68265 0.75872 0.0
C159 C 0.64007 0.69409 0.79311 0.0
C160 C 0.64371 0.74471 0.79923 0.0
C161 C 0.68345 0.78308 0.77302 0.0
C162 C 0.6007 0.65417 0.82534 0.0
C163 C 0.61924 0.61891 0.85495 0.0
C164 C 0.58823 0.58849 0.89611 0.0
C165 C 0.5368 0.59189 0.90647 0.0
C166 C 0.51583 0.62511 0.87431 0.0
C167 C 0.54771 0.65534 0.83317 0.0
C168 C 0.47054 0.63997 0.89326 0.0
C169 C 0.47998 0.66165 0.95091 0.0
C170 C 0.4335 0.65188 0.84992 0.0
C171 C 0.41911 0.69413 0.85968 0.0
C172 C 0.44001 0.72305 0.91348 0.0
C173 C 0.61844 0.56313 0.93551 0.0
C174 C 0.62985 0.52322 0.91064 0.0
C175 C 0.65599 0.593 0.98354 0.0
C176 C 0.70948 0.59004 0.99791 0.0
C177 C 0.72505 0.5561 0.9653 0.0
C178 C 0.68292 0.51959 0.9255 0.0
C179 C 0.46466 0.70329 0.96101 0.0
H180 H 0.7442 0.71155 0.70701 0.0
H181 H 0.67394 0.6439 0.7524 0.0
H182 H 0.61712 0.75514 0.8259 0.0
H183 H 0.68543 0.82175 0.77904 0.0
H184 H 0.66097 0.61863 0.85075 0.0
H185 H 0.53347 0.68313 0.81071 0.0
H186 H 0.51518 0.57129 0.94148 0.0
H187 H 0.50759 0.65261 0.98554 0.0
H188 H 0.42427 0.63444 0.80563 0.0
H189 H 0.39874 0.70812 0.82292 0.0
H190 H 0.60128 0.50001 0.87362 0.0
H191 H 0.64795 0.62426 1.00314 0.0
H192 H 0.48049 0.72467 1.00323 0.0
H193 H 0.69271 0.49166 0.90126 0.0
H194 H 0.74037 0.61847 1.0294 0.0
C195 C 0.72767 0.08097 0.20277 0.0
C196 C 0.69833 0.09859 0.15751 0.0
C197 C 0.76792 0.11514 0.24514 0.0
C198 C 0.77887 0.16763 0.24349 0.0
C199 C 0.753 0.18549 0.19495 0.0
C200 C 0.71304 0.15106 0.15198 0.0
C201 C 0.80837 0.20091 0.29746 0.0
C202 C 0.85371 0.19272 0.33169 0.0
C203 C 0.86888 0.20911 0.39149 0.0
C204 C 0.84166 0.23794 0.4161 0.0
C205 C 0.79899 0.24991 0.38121 0.0
C206 C 0.78278 0.23143 0.32178 0.0
C207 C 0.76552 0.27524 0.40828 0.0
C208 C 0.74231 0.25752 0.45991 0.0
C209 C 0.75313 0.3148 0.38042 0.0
C210 C 0.71707 0.33534 0.40281 0.0
C211 C 0.69114 0.31582 0.45261 0.0
C212 C 0.90275 0.18549 0.42955 0.0
C213 C 0.87719 0.15334 0.47246 0.0
C214 C 0.95567 0.18723 0.41653 0.0
C215 C 0.98192 0.15623 0.4451 0.0
C216 C 0.95467 0.12206 0.48564 0.0
C217 C 0.90265 0.12161 0.49986 0.0
C218 C 0.70545 0.27746 0.48172 0.0
H219 H 0.71574 0.04057 0.20847 0.0
H220 H 0.7861 0.09978 0.28233 0.0
H221 H 0.7606 0.22563 0.19252 0.0
H222 H 0.68956 0.1652 0.11805 0.0
H223 H 0.87281 0.16833 0.31364 0.0
H224 H 0.74635 0.23652 0.29648 0.0
H225 H 0.85213 0.24924 0.46285 0.0
H226 H 0.75096 0.22688 0.48224 0.0
H227 H 0.77076 0.3294 0.34075 0.0
H228 H 0.70811 0.36537 0.37964 0.0
H229 H 0.8359 0.15064 0.48241 0.0
H230 H 0.97567 0.21132 0.38293 0.0
H231 H 0.68783 0.26238 0.52118 0.0
H232 H 0.88122 0.09627 0.53179 0.0
H233 H 1.02229 0.15754 0.43382 0.0
C234 C 0.19812 0.66614 0.18308 0.0
C235 C 0.17851 0.6165 0.15751 0.0
C236 C 0.25073 0.68608 0.21905 0.0
C237 C 0.28505 0.65688 0.23023 0.0
C238 C 0.26463 0.60661 0.20612 0.0
C239 C 0.21188 0.58667 0.16997 0.0
C240 C 0.34399 0.68076 0.26194 0.0
C241 C 0.3665 0.65625 0.30608 0.0
C242 C 0.42344 0.67849 0.33394 0.0
C243 C 0.45777 0.72671 0.31623 0.0
C244 C 0.4347 0.75234 0.27304 0.0
C245 C 0.37835 0.72843 0.24615 0.0
C246 C 0.46697 0.8038 0.25325 0.0
C247 C 0.44146 0.84056 0.24943 0.0
C248 C 0.51647 0.81323 0.22732 0.0
C249 C 0.53749 0.85669 0.19488 0.0
C250 C 0.50912 0.89126 0.18743 0.0
C251 C 0.44584 0.65012 0.38035 0.0
C252 C 0.41127 0.6224 0.42127 0.0
C253 C 0.49984 0.64705 0.3816 0.0
C254 C 0.51702 0.6147 0.41977 0.0
C255 C 0.48096 0.58506 0.45818 0.0
C256 C 0.42874 0.59067 0.45985 0.0
C257 C 0.462 0.88345 0.21674 0.0
H258 H 0.17306 0.68984 0.17484 0.0
H259 H 0.26506 0.72481 0.23745 0.0
H260 H 0.29043 0.5835 0.21324 0.0
H261 H 0.19776 0.54835 0.1506 0.0
H262 H 0.33934 0.61959 0.31843 0.0
H263 H 0.36132 0.74685 0.21115 0.0
H264 H 0.50141 0.74477 0.33698 0.0
H265 H 0.40329 0.83449 0.26896 0.0
H266 H 0.53667 0.78544 0.22879 0.0
H267 H 0.57411 0.86174 0.17302 0.0
H268 H 0.36996 0.6245 0.42282 0.0
H269 H 0.5277 0.66756 0.35094 0.0
H270 H 0.43954 0.90953 0.21253 0.0
H271 H 0.40036 0.56902 0.4895 0.0
H272 H 0.55791 0.61172 0.41798 0.0
C273 C 0.12439 0.16936 0.71141 0.0
C274 C 0.06555 0.14988 0.69313 0.0
C275 C 0.15117 0.21831 0.73893 0.0
C276 C 0.11981 0.24905 0.74885 0.0
C277 C 0.06065 0.22863 0.73268 0.0
C278 C 0.03393 0.17977 0.70499 0.0
C279 C 0.14967 0.30387 0.76927 0.0
C280 C 0.19705 0.33269 0.74341 0.0
C281 C 0.22737 0.38433 0.75974 0.0
C282 C 0.20749 0.40837 0.80157 0.0
C283 C 0.15935 0.38047 0.82838 0.0
C284 C 0.13093 0.32804 0.81185 0.0
C285 C 0.13924 0.40553 0.87441 0.0
C286 C 0.12895 0.45071 0.86395 0.0
C287 C 0.12944 0.38401 0.92918 0.0
C288 C 0.11031 0.40701 0.97226 0.0
C289 C 0.09891 0.45163 0.96149 0.0
C290 C 0.27983 0.41125 0.73233 0.0
C291 C 0.31565 0.38518 0.72121 0.0
C292 C 0.29283 0.46096 0.71337 0.0
C293 C 0.33934 0.48318 0.68268 0.0
C294 C 0.37352 0.456 0.66974 0.0
C295 C 0.36123 0.40692 0.68992 0.0
C296 C 0.10836 0.47304 0.90653 0.0
H297 H 0.14989 0.14728 0.70327 0.0
H298 H 0.19684 0.23267 0.75129 0.0
H299 H 0.03528 0.25125 0.73897 0.0
H300 H 0.98839 0.16584 0.69165 0.0
H301 H 0.20985 0.31467 0.70887 0.0
H302 H 0.09412 0.30615 0.83193 0.0
H303 H 0.23041 0.4482 0.81471 0.0
H304 H 0.13579 0.46827 0.82227 0.0
H305 H 0.13716 0.34946 0.93899 0.0
H306 H 0.10352 0.38921 1.01384 0.0
H307 H 0.3083 0.34744 0.73649 0.0
H308 H 0.2663 0.48219 0.72089 0.0
H309 H 0.10029 0.50739 0.89653 0.0
H310 H 0.38739 0.38533 0.68232 0.0
H311 H 0.34812 0.52144 0.66851 0.0
Pr312 Pr 0.97641 1.00156 0.6077 0.0
Pr313 Pr 0.08562 0.05042 0.5636 0.0
C314 C 0.87784 0.94496 0.64432 0.0
C315 C 0.8437 0.89784 0.66975 0.0
C316 C 0.83483 0.89998 0.7288 0.0
C317 C 0.79633 0.85841 0.75195 0.0
C318 C 0.76544 0.81378 0.71648 0.0
C319 C 0.77594 0.81064 0.65806 0.0
C320 C 0.8146 0.85249 0.63472 0.0
C321 C 0.03651 0.09943 0.66055 0.0
C322 C 0.08264 0.96575 0.65785 0.0
C323 C 0.18546 0.10327 0.52744 0.0
C324 C 0.22493 0.14818 0.50398 0.0
C325 C 0.26192 0.14091 0.46793 0.0
C326 C 0.30214 0.18239 0.44658 0.0
C327 C 0.30608 0.23203 0.46091 0.0
C328 C 0.26834 0.23929 0.49653 0.0
C329 C 0.22801 0.19753 0.51814 0.0
C330 C 1.02527 0.95232 0.51167 0.0
C331 C 0.97999 0.0872 0.51403 0.0
O332 O 0.88666 0.94341 0.58937 0.0
O333 O 0.92063 0.97765 0.67899 0.0
O334 O 0.05899 0.06713 0.65169 0.0
O335 O 0.9824 0.08121 0.64285 0.0
O336 O 0.11599 1.00878 0.63979 0.0
O337 O 1.02702 0.95125 0.64619 0.0
O338 O 0.17627 0.10601 0.58206 0.0
O339 O 0.14131 0.07374 0.49159 0.0
O340 O 1.00301 0.98487 0.51983 0.0
O341 O 0.07928 0.97037 0.52968 0.0
O342 O 0.94622 0.04467 0.53289 0.0
O343 O 0.03563 0.10111 0.52488 0.0
H344 H 0.85626 0.93452 0.75671 0.0
H345 H 0.78989 0.86157 0.79747 0.0
H346 H 0.7526 0.77666 0.62975 0.0
H347 H 0.82023 0.84985 0.58886 0.0
H348 H 0.25996 0.10297 0.4566 0.0
H349 H 0.32985 0.17555 0.41835 0.0
H350 H 0.27062 0.2772 0.50837 0.0
H351 H 0.19972 0.20373 0.54608 0.0
Pr352 Pr 0.50851 0.0389 0.12734 0.0
Pr353 Pr 0.54011 0.99103 1.04488 0.0
C354 C 0.50216 0.09398 0.21929 0.0
C355 C 0.52579 0.14974 0.22689 0.0
C356 C 0.48843 0.17576 0.22675 0.0
C357 C 0.50787 0.22803 0.2214 0.0
C358 C 0.5652 0.25541 0.21668 0.0
C359 C 0.60337 0.22997 0.21956 0.0
C360 C 0.58369 0.17732 0.2239 0.0
C361 C 0.52551 0.09809 1.02673 0.0
C362 C 0.64242 0.06414 0.13024 0.0
C363 C 0.54226 0.93808 0.94832 0.0
C364 C 0.50891 0.8843 0.93263 0.0
C365 C 0.52069 0.85903 0.88643 0.0
C366 C 0.49402 0.8064 0.87738 0.0
C367 C 0.45508 0.77851 0.91422 0.0
C368 C 0.44143 0.80425 0.95883 0.0
C369 C 0.46801 0.85694 0.96778 0.0
C370 C 0.52541 0.93305 0.14611 0.0
C371 C 0.40552 0.96459 1.04583 0.0
O372 O 0.53873 0.07128 0.22174 0.0
O373 O 0.46032 0.07565 0.17592 0.0
O374 O 0.55838 0.07696 1.05003 0.0
O375 O 0.48132 0.08692 1.05336 0.0
O376 O 0.62874 0.05465 1.07302 0.0
O377 O 0.60225 0.04949 0.16375 0.0
O378 O 0.51263 0.96725 0.94773 0.0
O379 O 0.58038 0.9469 0.99526 0.0
O380 O 0.49166 0.95335 0.12288 0.0
O381 O 0.56862 0.94319 0.11799 0.0
O382 O 0.42017 0.97478 0.10267 0.0
O383 O 0.44497 0.97837 1.01143 0.0
H384 H 0.44371 0.15536 0.22858 0.0
H385 H 0.47805 0.24724 0.22157 0.0
H386 H 0.648 0.25066 0.21759 0.0
H387 H 0.61352 0.1582 0.22319 0.0
H388 H 0.55234 0.87954 0.85925 0.0
H389 H 0.50655 0.78706 0.84387 0.0
H390 H 0.41257 0.78339 0.9885 0.0
H391 H 0.45876 0.87609 1.00401 0.0
Pr392 Pr 0.54138 0.57055 0.62971 0.0
Pr393 Pr 0.52791 0.47748 0.56544 0.0
C394 C 0.54983 0.66423 0.66569 0.0
C395 C 0.50802 0.68719 0.6745 0.0
C396 C 0.45243 0.6562 0.68123 0.0
C397 C 0.41293 0.67773 0.69138 0.0
C398 C 0.428 0.73083 0.69468 0.0
C399 C 0.48363 0.76172 0.68645 0.0
C400 C 0.52332 0.74003 0.67668 0.0
C401 C 0.57248 0.50147 0.70151 0.0
C402 C 0.4241 0.47943 0.63914 0.0
C403 C 0.52148 0.38513 0.52747 0.0
C404 C 0.56418 0.3674 0.5076 0.0
C405 C 0.61066 0.4012 0.48395 0.0
C406 C 0.6522 0.3848 0.46697 0.0
C407 C 0.64787 0.33399 0.47262 0.0
C408 C 0.60085 0.30024 0.49617 0.0
C409 C 0.55981 0.31696 0.51404 0.0
C410 C 0.49705 0.54748 0.49477 0.0
C411 C 0.64682 0.5678 0.55743 0.0
O412 O 0.55193 0.65222 0.61104 0.0
O413 O 0.55187 0.6289 0.70136 0.0
O414 O 0.58707 0.51352 0.65129 0.0
O415 O 0.54207 0.5263 0.71686 0.0
O416 O 0.45036 0.45107 0.61995 0.0
O417 O 0.44555 0.52897 0.63626 0.0
O418 O 0.53035 0.39945 0.5834 0.0
O419 O 0.50529 0.41576 0.49341 0.0
O420 O 0.48186 0.53435 0.54445 0.0
O421 O 0.52874 0.52387 0.4796 0.0
O422 O 0.62399 0.59684 0.58186 0.0
O423 O 0.62162 0.51829 0.55316 0.0
H424 H 0.43982 0.61527 0.67991 0.0
H425 H 0.37119 0.65259 0.69884 0.0
H426 H 0.49671 0.80269 0.68779 0.0
H427 H 0.56604 0.7645 0.67129 0.0
H428 H 0.61508 0.44045 0.47893 0.0
H429 H 0.68797 0.41225 0.45002 0.0
H430 H 0.59512 0.2606 0.50008 0.0
H431 H 0.52423 0.29033 0.53223 0.0
Pr432 Pr 1.01568 0.55332 1.053 0.0
Pr433 Pr 0.04331 0.48352 0.14127 0.0
C434 C 0.96032 0.58655 0.96571 0.0
C435 C 0.90244 0.58607 0.96354 0.0
C436 C 0.86374 0.56878 0.91167 0.0
C437 C 0.80608 0.55848 0.91246 0.0
C438 C 0.78593 0.56443 0.96552 0.0
C439 C 0.82515 0.58236 1.01724 0.0
C440 C 0.88279 0.59345 1.01612 0.0
C441 C 0.12336 0.59607 0.11838 0.0
C442 C 0.98451 0.56398 0.18712 0.0
C443 C 0.09638 0.44845 0.22899 0.0
C444 C 0.15459 0.4496 0.23296 0.0
C445 C 0.19081 0.46354 0.28678 0.0
C446 C 0.24915 0.47618 0.28822 0.0
C447 C 0.27244 0.47629 0.23556 0.0
C448 C 0.23552 0.46082 0.18197 0.0
C449 C 0.17723 0.44707 0.18084 0.0
C450 C 0.93525 0.4414 1.07637 0.0
C451 C 0.07682 0.47495 1.00722 0.0
O452 O 0.96271 0.54114 0.96317 0.0
O453 O 0.99913 0.6178 1.00583 0.0
O454 O 0.10082 0.55089 0.09702 0.0
O455 O 0.09242 0.6226 0.10111 0.0
O456 O 1.01236 0.53351 0.20295 0.0
O457 O 0.9745 0.57311 0.13104 0.0
O458 O 0.09348 0.4936 0.23241 0.0
O459 O 0.05921 0.41814 0.18699 0.0
O460 O 0.95829 0.48639 0.09806 0.0
O461 O 0.96607 0.41464 0.09286 0.0
O462 O 0.04906 0.50546 0.99144 0.0
O463 O 0.08556 0.46471 1.06315 0.0
H464 H 0.8779 0.56195 0.87092 0.0
H465 H 0.77745 0.54615 0.87129 0.0
H466 H 0.81133 0.58707 1.05891 0.0
H467 H 0.91164 0.60593 1.05707 0.0
H468 H 0.17423 0.46637 0.32734 0.0
H469 H 0.27587 0.48612 0.33072 0.0
H470 H 0.25155 0.46077 0.14049 0.0
H471 H 0.15024 0.43705 0.13859 0.0
loop_
_geom_bond_atom_site_label_1
_geom_bond_atom_site_label_2
_geom_bond_distance
_geom_bond_site_symmetry_2
_ccdc_geom_bond_type
C0 C1 1.386 . S
C0 C2 1.397 . S
C0 H24 0.931 . S
C1 C0 1.386 . S
C1 C5 1.397 . S
C2 C0 1.397 . S
C2 C3 1.384 . S
C2 H25 0.930 . S
C3 C2 1.384 . S
C3 C4 1.377 . S
C3 C6 1.481 . S
C4 C3 1.377 . S
C4 C5 1.389 . S
C4 H26 0.929 . S
C5 C1 1.397 . S
C5 C4 1.389 . S
C5 H27 0.931 . S
C6 C3 1.481 . S
C6 C7 1.387 . S
C6 C11 1.390 . S
C7 C6 1.387 . S
C7 C8 1.401 . S
C7 H28 0.930 . S
C8 C7 1.401 . S
C8 C9 1.376 . S
C8 C17 1.511 . S
C9 C8 1.376 . S
C9 C10 1.392 . S
C9 H30 0.931 . S
C10 C9 1.392 . S
C10 C11 1.361 . S
C10 C12 1.500 . S
C11 C6 1.390 . S
C11 C10 1.361 . S
C11 H29 0.931 . S
C12 C10 1.500 . S
C12 C13 1.371 . S
C12 C14 1.365 . S
C13 C12 1.371 . S
C13 C23 1.386 . S
C13 H31 0.931 . S
C14 C12 1.365 . S
C14 C15 1.409 . S
C14 H32 0.929 . S
C15 C14 1.409 . S
C15 C16 1.380 . S
C15 H33 0.930 . S
C16 C15 1.380 . S
C16 C23 1.357 . S
C17 C8 1.511 . S
C17 C18 1.341 . S
C17 C19 1.371 . S
C18 C17 1.341 . S
C18 C22 1.394 . S
C18 H34 0.930 . S
C19 C17 1.371 . S
C19 C20 1.392 . S
C19 H35 0.931 . S
C20 C19 1.392 . S
C20 C21 1.331 . S
C20 H38 0.932 . S
C21 C20 1.331 . S
C21 C22 1.336 . S
C22 C18 1.394 . S
C22 C21 1.336 . S
C22 H37 0.929 . S
C23 C13 1.386 . S
C23 C16 1.357 . S
C23 H36 0.928 . S
H24 C0 0.931 . S
H25 C2 0.930 . S
H26 C4 0.929 . S
H27 C5 0.931 . S
H28 C7 0.930 . S
H29 C11 0.931 . S
H30 C9 0.931 . S
H31 C13 0.931 . S
H32 C14 0.929 . S
H33 C15 0.930 . S
H34 C18 0.930 . S
H35 C19 0.931 . S
H36 C23 0.928 . S
H37 C22 0.929 . S
H38 C20 0.932 . S
C39 C40 1.386 . S
C39 C41 1.397 . S
C39 H63 0.931 . S
C40 C39 1.386 . S
C40 C44 1.397 . S
C41 C39 1.397 . S
C41 C42 1.384 . S
C41 H64 0.930 . S
C42 C41 1.384 . S
C42 C43 1.377 . S
C42 C45 1.481 . S
C43 C42 1.377 . S
C43 C44 1.389 . S
C43 H65 0.929 . S
C44 C40 1.397 . S
C44 C43 1.389 . S
C44 H66 0.931 . S
C45 C42 1.481 . S
C45 C46 1.387 . S
C45 C50 1.390 . S
C46 C45 1.387 . S
C46 C47 1.401 . S
C46 H67 0.930 . S
C47 C46 1.401 . S
C47 C48 1.376 . S
C47 C56 1.511 . S
C48 C47 1.376 . S
C48 C49 1.392 . S
C48 H69 0.931 . S
C49 C48 1.392 . S
C49 C50 1.361 . S
C49 C51 1.500 . S
C50 C45 1.390 . S
C50 C49 1.361 . S
C50 H68 0.931 . S
C51 C49 1.500 . S
C51 C52 1.371 . S
C51 C53 1.365 . S
C52 C51 1.371 . S
C52 C62 1.386 . S
C52 H70 0.931 . S
C53 C51 1.365 . S
C53 C54 1.409 . S
C53 H71 0.929 . S
C54 C53 1.409 . S
C54 C55 1.380 . S
C54 H72 0.930 . S
C55 C54 1.380 . S
C55 C62 1.357 . S
C56 C47 1.511 . S
C56 C57 1.341 . S
C56 C58 1.371 . S
C57 C56 1.341 . S
C57 C61 1.394 . S
C57 H73 0.930 . S
C58 C56 1.371 . S
C58 C59 1.392 . S
C58 H74 0.931 . S
C59 C58 1.392 . S
C59 C60 1.331 . S
C59 H77 0.932 . S
C60 C59 1.331 . S
C60 C61 1.336 . S
C61 C57 1.394 . S
C61 C60 1.336 . S
C61 H76 0.929 . S
C62 C52 1.386 . S
C62 C55 1.357 . S
C62 H75 0.928 . S
H63 C39 0.931 . S
H64 C41 0.930 . S
H65 C43 0.929 . S
H66 C44 0.931 . S
H67 C46 0.930 . S
H68 C50 0.931 . S
H69 C48 0.931 . S
H70 C52 0.931 . S
H71 C53 0.929 . S
H72 C54 0.930 . S
H73 C57 0.930 . S
H74 C58 0.931 . S
H75 C62 0.928 . S
H76 C61 0.929 . S
H77 C59 0.932 . S
C78 C79 1.386 . S
C78 C80 1.397 . S
C78 H102 0.931 . S
C79 C78 1.386 . S
C79 C83 1.397 . S
C80 C78 1.397 . S
C80 C81 1.384 . S
C80 H103 0.930 . S
C81 C80 1.384 . S
C81 C82 1.377 . S
C81 C84 1.481 . S
C82 C81 1.377 . S
C82 C83 1.389 . S
C82 H104 0.929 . S
C83 C79 1.397 . S
C83 C82 1.389 . S
C83 H105 0.931 . S
C84 C81 1.481 . S
C84 C85 1.387 . S
C84 C89 1.390 . S
C85 C84 1.387 . S
C85 C86 1.401 . S
C85 H106 0.930 . S
C86 C85 1.401 . S
C86 C87 1.376 . S
C86 C95 1.511 . S
C87 C86 1.376 . S
C87 C88 1.392 . S
C87 H108 0.931 . S
C88 C87 1.392 . S
C88 C89 1.361 . S
C88 C90 1.500 . S
C89 C84 1.390 . S
C89 C88 1.361 . S
C89 H107 0.931 . S
C90 C88 1.500 . S
C90 C91 1.371 . S
C90 C92 1.365 . S
C91 C90 1.371 . S
C91 C101 1.386 . S
C91 H109 0.931 . S
C92 C90 1.365 . S
C92 C93 1.409 . S
C92 H110 0.929 . S
C93 C92 1.409 . S
C93 C94 1.380 . S
C93 H111 0.930 . S
C94 C93 1.380 . S
C94 C101 1.357 . S
C95 C86 1.511 . S
C95 C96 1.341 . S
C95 C97 1.371 . S
C96 C95 1.341 . S
C96 C100 1.394 . S
C96 H112 0.930 . S
C97 C95 1.371 . S
C97 C98 1.392 . S
C97 H113 0.931 . S
C98 C97 1.392 . S
C98 C99 1.331 . S
C98 H116 0.932 . S
C99 C98 1.331 . S
C99 C100 1.336 . S
C100 C96 1.394 . S
C100 C99 1.336 . S
C100 H115 0.929 . S
C101 C91 1.386 . S
C101 C94 1.357 . S
C101 H114 0.928 . S
H102 C78 0.931 . S
H103 C80 0.930 . S
H104 C82 0.929 . S
H105 C83 0.931 . S
H106 C85 0.930 . S
H107 C89 0.931 . S
H108 C87 0.931 . S
H109 C91 0.931 . S
H110 C92 0.929 . S
H111 C93 0.930 . S
H112 C96 0.930 . S
H113 C97 0.931 . S
H114 C101 0.928 . S
H115 C100 0.929 . S
H116 C98 0.932 . S
C117 C118 1.386 . S
C117 C119 1.397 . S
C117 H141 0.931 . S
C118 C117 1.386 . S
C118 C122 1.397 . S
C119 C117 1.397 . S
C119 C120 1.384 . S
C119 H142 0.930 . S
C120 C119 1.384 . S
C120 C121 1.377 . S
C120 C123 1.481 . S
C121 C120 1.377 . S
C121 C122 1.389 . S
C121 H143 0.929 . S
C122 C118 1.397 . S
C122 C121 1.389 . S
C122 H144 0.931 . S
C123 C120 1.481 . S
C123 C124 1.387 . S
C123 C128 1.390 . S
C124 C123 1.387 . S
C124 C125 1.401 . S
C124 H145 0.930 . S
C125 C124 1.401 . S
C125 C126 1.376 . S
C125 C134 1.511 . S
C126 C125 1.376 . S
C126 C127 1.392 . S
C126 H147 0.931 . S
C127 C126 1.392 . S
C127 C128 1.361 . S
C127 C129 1.500 . S
C128 C123 1.390 . S
C128 C127 1.361 . S
C128 H146 0.931 . S
C129 C127 1.500 . S
C129 C130 1.371 . S
C129 C131 1.365 . S
C130 C129 1.371 . S
C130 C140 1.386 . S
C130 H148 0.931 . S
C131 C129 1.365 . S
C131 C132 1.409 . S
C131 H149 0.929 . S
C132 C131 1.409 . S
C132 C133 1.380 . S
C132 H150 0.930 . S
C133 C132 1.380 . S
C133 C140 1.357 . S
C134 C125 1.511 . S
C134 C135 1.341 . S
C134 C136 1.371 . S
C135 C134 1.341 . S
C135 C139 1.394 . S
C135 H151 0.930 . S
C136 C134 1.371 . S
C136 C137 1.392 . S
C136 H152 0.931 . S
C137 C136 1.392 . S
C137 C138 1.331 . S
C137 H155 0.932 . S
C138 C137 1.331 . S
C138 C139 1.336 . S
C139 C135 1.394 . S
C139 C138 1.336 . S
C139 H154 0.929 . S
C140 C130 1.386 . S
C140 C133 1.357 . S
C140 H153 0.928 . S
H141 C117 0.931 . S
H142 C119 0.930 . S
H143 C121 0.929 . S
H144 C122 0.931 . S
H145 C124 0.930 . S
H146 C128 0.931 . S
H147 C126 0.931 . S
H148 C130 0.931 . S
H149 C131 0.929 . S
H150 C132 0.930 . S
H151 C135 0.930 . S
H152 C136 0.931 . S
H153 C140 0.928 . S
H154 C139 0.929 . S
H155 C137 0.932 . S
C156 C157 1.386 . S
C156 C158 1.397 . S
C156 H180 0.931 . S
C157 C156 1.386 . S
C157 C161 1.397 . S
C158 C156 1.397 . S
C158 C159 1.384 . S
C158 H181 0.930 . S
C159 C158 1.384 . S
C159 C160 1.377 . S
C159 C162 1.481 . S
C160 C159 1.377 . S
C160 C161 1.389 . S
C160 H182 0.929 . S
C161 C157 1.397 . S
C161 C160 1.389 . S
C161 H183 0.931 . S
C162 C159 1.481 . S
C162 C163 1.387 . S
C162 C167 1.390 . S
C163 C162 1.387 . S
C163 C164 1.401 . S
C163 H184 0.930 . S
C164 C163 1.401 . S
C164 C165 1.376 . S
C164 C173 1.511 . S
C165 C164 1.376 . S
C165 C166 1.392 . S
C165 H186 0.931 . S
C166 C165 1.392 . S
C166 C167 1.361 . S
C166 C168 1.500 . S
C167 C162 1.390 . S
C167 C166 1.361 . S
C167 H185 0.931 . S
C168 C166 1.500 . S
C168 C169 1.371 . S
C168 C170 1.365 . S
C169 C168 1.371 . S
C169 C179 1.386 . S
C169 H187 0.931 . S
C170 C168 1.365 . S
C170 C171 1.409 . S
C170 H188 0.929 . S
C171 C170 1.409 . S
C171 C172 1.380 . S
C171 H189 0.930 . S
C172 C171 1.380 . S
C172 C179 1.357 . S
C173 C164 1.511 . S
C173 C174 1.341 . S
C173 C175 1.371 . S
C174 C173 1.341 . S
C174 C178 1.394 . S
C174 H190 0.930 . S
C175 C173 1.371 . S
C175 C176 1.392 . S
C175 H191 0.931 . S
C176 C175 1.392 . S
C176 C177 1.331 . S
C176 H194 0.932 . S
C177 C176 1.331 . S
C177 C178 1.336 . S
C178 C174 1.394 . S
C178 C177 1.336 . S
C178 H193 0.929 . S
C179 C169 1.386 . S
C179 C172 1.357 . S
C179 H192 0.928 . S
H180 C156 0.931 . S
H181 C158 0.930 . S
H182 C160 0.929 . S
H183 C161 0.931 . S
H184 C163 0.930 . S
H185 C167 0.931 . S
H186 C165 0.931 . S
H187 C169 0.931 . S
H188 C170 0.929 . S
H189 C171 0.930 . S
H190 C174 0.930 . S
H191 C175 0.931 . S
H192 C179 0.928 . S
H193 C178 0.929 . S
H194 C176 0.932 . S
C195 C196 1.386 . S
C195 C197 1.397 . S
C195 H219 0.931 . S
C196 C195 1.386 . S
C196 C200 1.397 . S
C197 C195 1.397 . S
C197 C198 1.384 . S
C197 H220 0.930 . S
C198 C197 1.384 . S
C198 C199 1.377 . S
C198 C201 1.481 . S
C199 C198 1.377 . S
C199 C200 1.389 . S
C199 H221 0.929 . S
C200 C196 1.397 . S
C200 C199 1.389 . S
C200 H222 0.931 . S
C201 C198 1.481 . S
C201 C202 1.387 . S
C201 C206 1.390 . S
C202 C201 1.387 . S
C202 C203 1.401 . S
C202 H223 0.930 . S
C203 C202 1.401 . S
C203 C204 1.376 . S
C203 C212 1.511 . S
C204 C203 1.376 . S
C204 C205 1.392 . S
C204 H225 0.931 . S
C205 C204 1.392 . S
C205 C206 1.361 . S
C205 C207 1.500 . S
C206 C201 1.390 . S
C206 C205 1.361 . S
C206 H224 0.931 . S
C207 C205 1.500 . S
C207 C208 1.371 . S
C207 C209 1.365 . S
C208 C207 1.371 . S
C208 C218 1.386 . S
C208 H226 0.931 . S
C209 C207 1.365 . S
C209 C210 1.409 . S
C209 H227 0.929 . S
C210 C209 1.409 . S
C210 C211 1.380 . S
C210 H228 0.930 . S
C211 C210 1.380 . S
C211 C218 1.357 . S
C212 C203 1.511 . S
C212 C213 1.341 . S
C212 C214 1.371 . S
C213 C212 1.341 . S
C213 C217 1.394 . S
C213 H229 0.930 . S
C214 C212 1.371 . S
C214 C215 1.392 . S
C214 H230 0.931 . S
C215 C214 1.392 . S
C215 C216 1.331 . S
C215 H233 0.932 1_655 S
C216 C215 1.331 . S
C216 C217 1.336 . S
C217 C213 1.394 . S
C217 C216 1.336 . S
C217 H232 0.929 . S
C218 C208 1.386 . S
C218 C211 1.357 . S
C218 H231 0.928 . S
H219 C195 0.931 . S
H220 C197 0.930 . S
H221 C199 0.929 . S
H222 C200 0.931 . S
H223 C202 0.930 . S
H224 C206 0.931 . S
H225 C204 0.931 . S
H226 C208 0.931 . S
H227 C209 0.929 . S
H228 C210 0.930 . S
H229 C213 0.930 . S
H230 C214 0.931 . S
H231 C218 0.928 . S
H232 C217 0.929 . S
H233 C215 0.932 1_455 S
C234 C235 1.386 . S
C234 C236 1.397 . S
C234 H258 0.931 . S
C235 C234 1.386 . S
C235 C239 1.397 . S
C236 C234 1.397 . S
C236 C237 1.384 . S
C236 H259 0.930 . S
C237 C236 1.384 . S
C237 C238 1.377 . S
C237 C240 1.481 . S
C238 C237 1.377 . S
C238 C239 1.389 . S
C238 H260 0.929 . S
C239 C235 1.397 . S
C239 C238 1.389 . S
C239 H261 0.931 . S
C240 C237 1.481 . S
C240 C241 1.387 . S
C240 C245 1.390 . S
C241 C240 1.387 . S
C241 C242 1.401 . S
C241 H262 0.930 . S
C242 C241 1.401 . S
C242 C243 1.376 . S
C242 C251 1.511 . S
C243 C242 1.376 . S
C243 C244 1.392 . S
C243 H264 0.931 . S
C244 C243 1.392 . S
C244 C245 1.361 . S
C244 C246 1.500 . S
C245 C240 1.390 . S
C245 C244 1.361 . S
C245 H263 0.931 . S
C246 C244 1.500 . S
C246 C247 1.371 . S
C246 C248 1.365 . S
C247 C246 1.371 . S
C247 C257 1.386 . S
C247 H265 0.931 . S
C248 C246 1.365 . S
C248 C249 1.409 . S
C248 H266 0.929 . S
C249 C248 1.409 . S
C249 C250 1.380 . S
C249 H267 0.930 . S
C250 C249 1.380 . S
C250 C257 1.357 . S
C251 C242 1.511 . S
C251 C252 1.341 . S
C251 C253 1.371 . S
C252 C251 1.341 . S
C252 C256 1.394 . S
C252 H268 0.930 . S
C253 C251 1.371 . S
C253 C254 1.392 . S
C253 H269 0.931 . S
C254 C253 1.392 . S
C254 C255 1.331 . S
C254 H272 0.932 . S
C255 C254 1.331 . S
C255 C256 1.336 . S
C256 C252 1.394 . S
C256 C255 1.336 . S
C256 H271 0.929 . S
C257 C247 1.386 . S
C257 C250 1.357 . S
C257 H270 0.928 . S
H258 C234 0.931 . S
H259 C236 0.930 . S
H260 C238 0.929 . S
H261 C239 0.931 . S
H262 C241 0.930 . S
H263 C245 0.931 . S
H264 C243 0.931 . S
H265 C247 0.931 . S
H266 C248 0.929 . S
H267 C249 0.930 . S
H268 C252 0.930 . S
H269 C253 0.931 . S
H270 C257 0.928 . S
H271 C256 0.929 . S
H272 C254 0.932 . S
C273 C274 1.386 . S
C273 C275 1.397 . S
C273 H297 0.931 . S
C274 C273 1.386 . S
C274 C278 1.397 . S
C275 C273 1.397 . S
C275 C276 1.384 . S
C275 H298 0.930 . S
C276 C275 1.384 . S
C276 C277 1.377 . S
C276 C279 1.481 . S
C277 C276 1.377 . S
C277 C278 1.389 . S
C277 H299 0.929 . S
C278 C274 1.397 . S
C278 C277 1.389 . S
C278 H300 0.931 . S
C279 C276 1.481 . S
C279 C280 1.387 . S
C279 C284 1.390 . S
C280 C279 1.387 . S
C280 C281 1.401 . S
C280 H301 0.930 . S
C281 C280 1.401 . S
C281 C282 1.376 . S
C281 C290 1.511 . S
C282 C281 1.376 . S
C282 C283 1.392 . S
C282 H303 0.931 . S
C283 C282 1.392 . S
C283 C284 1.361 . S
C283 C285 1.500 . S
C284 C279 1.390 . S
C284 C283 1.361 . S
C284 H302 0.931 . S
C285 C283 1.500 . S
C285 C286 1.371 . S
C285 C287 1.365 . S
C286 C285 1.371 . S
C286 C296 1.386 . S
C286 H304 0.931 . S
C287 C285 1.365 . S
C287 C288 1.409 . S
C287 H305 0.929 . S
C288 C287 1.409 . S
C288 C289 1.380 . S
C288 H306 0.930 . S
C289 C288 1.380 . S
C289 C296 1.357 . S
C290 C281 1.511 . S
C290 C291 1.341 . S
C290 C292 1.371 . S
C291 C290 1.341 . S
C291 C295 1.394 . S
C291 H307 0.930 . S
C292 C290 1.371 . S
C292 C293 1.392 . S
C292 H308 0.931 . S
C293 C292 1.392 . S
C293 C294 1.331 . S
C293 H311 0.932 . S
C294 C293 1.331 . S
C294 C295 1.336 . S
C295 C291 1.394 . S
C295 C294 1.336 . S
C295 H310 0.929 . S
C296 C286 1.386 . S
C296 C289 1.357 . S
C296 H309 0.928 . S
H297 C273 0.931 . S
H298 C275 0.930 . S
H299 C277 0.929 . S
H300 C278 0.931 . S
H301 C280 0.930 . S
H302 C284 0.931 . S
H303 C282 0.931 . S
H304 C286 0.931 . S
H305 C287 0.929 . S
H306 C288 0.930 . S
H307 C291 0.930 . S
H308 C292 0.931 . S
H309 C296 0.928 . S
H310 C295 0.929 . S
H311 C293 0.932 . S
Pr312 C314 2.880 . S
Pr312 O332 2.562 . S
Pr312 O333 2.490 . S
Pr312 O334 2.695 1_665 S
Pr312 O335 2.512 1_565 S
Pr312 O337 2.437 1_655 S
Pr312 O340 2.436 . S
Pr312 O342 2.438 1_565 S
Pr313 C323 2.880 . S
Pr313 O334 2.436 . S
Pr313 O336 2.438 1_545 S
Pr313 O338 2.562 . S
Pr313 O339 2.490 . S
Pr313 O340 2.695 1_445 S
Pr313 O341 2.512 1_545 S
Pr313 O343 2.437 1_455 S
C314 Pr312 2.880 . S
C314 C315 1.491 . S
C314 O332 1.254 . S
C314 O333 1.225 . S
C315 C314 1.491 . S
C315 C316 1.392 . S
C315 C320 1.356 . S
C316 C315 1.392 . S
C316 C317 1.368 . S
C316 H344 0.929 . S
C317 C316 1.368 . S
C317 C318 1.386 . S
C317 H345 0.929 . S
C318 C317 1.386 . S
C318 C319 1.373 . S
C319 C318 1.373 . S
C319 C320 1.409 . S
C319 H346 0.931 . S
C320 C315 1.356 . S
C320 C319 1.409 . S
C320 H347 0.930 . S
C321 O334 1.270 . S
C321 O335 1.248 1_455 S
C322 O336 1.267 . S
C322 O337 1.278 . S
C323 Pr313 2.880 . S
C323 C324 1.491 . S
C323 O338 1.254 . S
C323 O339 1.225 . S
C324 C323 1.491 . S
C324 C325 1.392 . S
C324 C329 1.356 . S
C325 C324 1.392 . S
C325 C326 1.368 . S
C325 H348 0.929 . S
C326 C325 1.368 . S
C326 C327 1.386 . S
C326 H349 0.929 . S
C327 C326 1.386 . S
C327 C328 1.373 . S
C328 C327 1.373 . S
C328 C329 1.409 . S
C328 H350 0.931 . S
C329 C324 1.356 . S
C329 C328 1.409 . S
C329 H351 0.930 . S
C330 O340 1.270 . S
C330 O341 1.248 1_655 S
C331 O342 1.267 . S
C331 O343 1.278 . S
O332 Pr312 2.562 . S
O332 C314 1.254 . S
O333 Pr312 2.490 . S
O333 C314 1.225 . S
O334 Pr312 2.695 1_445 S
O334 Pr313 2.436 . S
O334 C321 1.270 . S
O335 Pr312 2.512 1_545 S
O335 C321 1.248 1_655 S
O336 Pr313 2.438 1_565 S
O336 C322 1.267 . S
O337 Pr312 2.437 1_455 S
O337 C322 1.278 . S
O338 Pr313 2.562 . S
O338 C323 1.254 . S
O339 Pr313 2.490 . S
O339 C323 1.225 . S
O340 Pr312 2.436 . S
O340 Pr313 2.695 1_665 S
O340 C330 1.270 . S
O341 Pr313 2.512 1_565 S
O341 C330 1.248 1_455 S
O342 Pr312 2.438 1_545 S
O342 C331 1.267 . S
O343 Pr313 2.437 1_655 S
O343 C331 1.278 . S
H344 C316 0.929 . S
H345 C317 0.929 . S
H346 C319 0.931 . S
H347 C320 0.930 . S
H348 C325 0.929 . S
H349 C326 0.929 . S
H350 C328 0.931 . S
H351 C329 0.930 . S
Pr352 C354 2.880 . S
Pr352 O372 2.562 . S
Pr352 O373 2.490 . S
Pr352 O374 2.695 1_554 S
Pr352 O375 2.512 1_554 S
Pr352 O377 2.437 . S
Pr352 O380 2.436 1_545 S
Pr352 O382 2.438 1_544 S
Pr353 C363 2.880 . S
Pr353 O374 2.436 1_565 S
Pr353 O376 2.438 1_566 S
Pr353 O378 2.562 . S
Pr353 O379 2.490 . S
Pr353 O380 2.695 1_556 S
Pr353 O381 2.512 1_556 S
Pr353 O383 2.437 . S
C354 Pr352 2.880 . S
C354 C355 1.491 . S
C354 O372 1.254 . S
C354 O373 1.225 . S
C355 C354 1.491 . S
C355 C356 1.392 . S
C355 C360 1.356 . S
C356 C355 1.392 . S
C356 C357 1.368 . S
C356 H384 0.929 . S
C357 C356 1.368 . S
C357 C358 1.386 . S
C357 H385 0.929 . S
C358 C357 1.386 . S
C358 C359 1.373 . S
C359 C358 1.373 . S
C359 C360 1.409 . S
C359 H386 0.931 . S
C360 C355 1.356 . S
C360 C359 1.409 . S
C360 H387 0.930 . S
C361 O374 1.270 . S
C361 O375 1.248 . S
C362 O376 1.267 . S
C362 O377 1.278 . S
C363 Pr353 2.880 . S
C363 C364 1.491 . S
C363 O378 1.254 . S
C363 O379 1.225 . S
C364 C363 1.491 . S
C364 C365 1.392 . S
C364 C369 1.356 . S
C365 C364 1.392 . S
C365 C366 1.368 . S
C365 H388 0.929 . S
C366 C365 1.368 . S
C366 C367 1.386 . S
C366 H389 0.929 . S
C367 C366 1.386 . S
C367 C368 1.373 . S
C368 C367 1.373 . S
C368 C369 1.409 . S
C368 H390 0.931 . S
C369 C364 1.356 . S
C369 C368 1.409 . S
C369 H391 0.930 . S
C370 O380 1.270 . S
C370 O381 1.248 . S
C371 O382 1.267 . S
C371 O383 1.278 . S
O372 Pr352 2.562 . S
O372 C354 1.254 . S
O373 Pr352 2.490 . S
O373 C354 1.225 . S
O374 Pr352 2.695 1_556 S
O374 Pr353 2.436 1_545 S
O374 C361 1.270 . S
O375 Pr352 2.512 1_556 S
O375 C361 1.248 . S
O376 Pr353 2.438 1_544 S
O376 C362 1.267 . S
O377 Pr352 2.437 . S
O377 C362 1.278 . S
O378 Pr353 2.562 . S
O378 C363 1.254 . S
O379 Pr353 2.490 . S
O379 C363 1.225 . S
O380 Pr352 2.436 1_565 S
O380 Pr353 2.695 1_554 S
O380 C370 1.270 . S
O381 Pr353 2.512 1_554 S
O381 C370 1.248 . S
O382 Pr352 2.438 1_566 S
O382 C371 1.267 . S
O383 Pr353 2.437 . S
O383 C371 1.278 . S
H384 C356 0.929 . S
H385 C357 0.929 . S
H386 C359 0.931 . S
H387 C360 0.930 . S
H388 C365 0.929 . S
H389 C366 0.929 . S
H390 C368 0.931 . S
H391 C369 0.930 . S
Pr392 C394 2.880 . S
Pr392 O412 2.562 . S
Pr392 O413 2.490 . S
Pr392 O414 2.695 . S
Pr392 O415 2.512 . S
Pr392 O417 2.437 . S
Pr392 O420 2.436 . S
Pr392 O422 2.438 . S
Pr393 C403 2.880 . S
Pr393 O414 2.436 . S
Pr393 O416 2.438 . S
Pr393 O418 2.562 . S
Pr393 O419 2.490 . S
Pr393 O420 2.695 . S
Pr393 O421 2.512 . S
Pr393 O423 2.437 . S
C394 Pr392 2.880 . S
C394 C395 1.491 . S
C394 O412 1.254 . S
C394 O413 1.225 . S
C395 C394 1.491 . S
C395 C396 1.392 . S
C395 C400 1.356 . S
C396 C395 1.392 . S
C396 C397 1.368 . S
C396 H424 0.929 . S
C397 C396 1.368 . S
C397 C398 1.386 . S
C397 H425 0.929 . S
C398 C397 1.386 . S
C398 C399 1.373 . S
C399 C398 1.373 . S
C399 C400 1.409 . S
C399 H426 0.931 . S
C400 C395 1.356 . S
C400 C399 1.409 . S
C400 H427 0.930 . S
C401 O414 1.270 . S
C401 O415 1.248 . S
C402 O416 1.267 . S
C402 O417 1.278 . S
C403 Pr393 2.880 . S
C403 C404 1.491 . S
C403 O418 1.254 . S
C403 O419 1.225 . S
C404 C403 1.491 . S
C404 C405 1.392 . S
C404 C409 1.356 . S
C405 C404 1.392 . S
C405 C406 1.368 . S
C405 H428 0.929 . S
C406 C405 1.368 . S
C406 C407 1.386 . S
C406 H429 0.929 . S
C407 C406 1.386 . S
C407 C408 1.373 . S
C408 C407 1.373 . S
C408 C409 1.409 . S
C408 H430 0.931 . S
C409 C404 1.356 . S
C409 C408 1.409 . S
C409 H431 0.930 . S
C410 O420 1.270 . S
C410 O421 1.248 . S
C411 O422 1.267 . S
C411 O423 1.278 . S
O412 Pr392 2.562 . S
O412 C394 1.254 . S
O413 Pr392 2.490 . S
O413 C394 1.225 . S
O414 Pr392 2.695 . S
O414 Pr393 2.436 . S
O414 C401 1.270 . S
O415 Pr392 2.512 . S
O415 C401 1.248 . S
O416 Pr393 2.438 . S
O416 C402 1.267 . S
O417 Pr392 2.437 . S
O417 C402 1.278 . S
O418 Pr393 2.562 . S
O418 C403 1.254 . S
O419 Pr393 2.490 . S
O419 C403 1.225 . S
O420 Pr392 2.436 . S
O420 Pr393 2.695 . S
O420 C410 1.270 . S
O421 Pr393 2.512 . S
O421 C410 1.248 . S
O422 Pr392 2.438 . S
O422 C411 1.267 . S
O423 Pr393 2.437 . S
O423 C411 1.278 . S
H424 C396 0.929 . S
H425 C397 0.929 . S
H426 C399 0.931 . S
H427 C400 0.930 . S
H428 C405 0.929 . S
H429 C406 0.929 . S
H430 C408 0.931 . S
H431 C409 0.930 . S
Pr432 C434 2.880 . S
Pr432 O452 2.562 . S
Pr432 O453 2.490 . S
Pr432 O454 2.695 1_656 S
Pr432 O455 2.512 1_656 S
Pr432 O457 2.437 1_556 S
Pr432 O460 2.436 . S
Pr432 O462 2.438 1_655 S
Pr433 C443 2.880 . S
Pr433 O454 2.436 . S
Pr433 O456 2.438 1_455 S
Pr433 O458 2.562 . S
Pr433 O459 2.490 . S
Pr433 O460 2.695 1_454 S
Pr433 O461 2.512 1_454 S
Pr433 O463 2.437 1_554 S
C434 Pr432 2.880 . S
C434 C435 1.491 . S
C434 O452 1.254 . S
C434 O453 1.225 . S
C435 C434 1.491 . S
C435 C436 1.392 . S
C435 C440 1.356 . S
C436 C435 1.392 . S
C436 C437 1.368 . S
C436 H464 0.929 . S
C437 C436 1.368 . S
C437 C438 1.386 . S
C437 H465 0.929 . S
C438 C437 1.386 . S
C438 C439 1.373 . S
C439 C438 1.373 . S
C439 C440 1.409 . S
C439 H466 0.931 . S
C440 C435 1.356 . S
C440 C439 1.409 . S
C440 H467 0.930 . S
C441 O454 1.270 . S
C441 O455 1.248 . S
C442 O456 1.267 . S
C442 O457 1.278 . S
C443 Pr433 2.880 . S
C443 C444 1.491 . S
C443 O458 1.254 . S
C443 O459 1.225 . S
C444 C443 1.491 . S
C444 C445 1.392 . S
C444 C449 1.356 . S
C445 C444 1.392 . S
C445 C446 1.368 . S
C445 H468 0.929 . S
C446 C445 1.368 . S
C446 C447 1.386 . S
C446 H469 0.929 . S
C447 C446 1.386 . S
C447 C448 1.373 . S
C448 C447 1.373 . S
C448 C449 1.409 . S
C448 H470 0.931 . S
C449 C444 1.356 . S
C449 C448 1.409 . S
C449 H471 0.930 . S
C450 O460 1.270 . S
C450 O461 1.248 . S
C451 O462 1.267 . S
C451 O463 1.278 . S
O452 Pr432 2.562 . S
O452 C434 1.254 . S
O453 Pr432 2.490 . S
O453 C434 1.225 . S
O454 Pr432 2.695 1_454 S
O454 Pr433 2.436 . S
O454 C441 1.270 . S
O455 Pr432 2.512 1_454 S
O455 C441 1.248 . S
O456 Pr433 2.438 1_655 S
O456 C442 1.267 . S
O457 Pr432 2.437 1_554 S
O457 C442 1.278 . S
O458 Pr433 2.562 . S
O458 C443 1.254 . S
O459 Pr433 2.490 . S
O459 C443 1.225 . S
O460 Pr432 2.436 . S
O460 Pr433 2.695 1_656 S
O460 C450 1.270 . S
O461 Pr433 2.512 1_656 S
O461 C450 1.248 . S
O462 Pr432 2.438 1_455 S
O462 C451 1.267 . S
O463 Pr433 2.437 1_556 S
O463 C451 1.278 . S
H464 C436 0.929 . S
H465 C437 0.929 . S
H466 C439 0.931 . S
H467 C440 0.930 . S
H468 C445 0.929 . S
H469 C446 0.929 . S
H470 C448 0.931 . S
H471 C449 0.930 . S
C1 C327 3.593 . S
C40 C371 2.643 . S
C401 C99 4.054 . S
C118 C442 4.015 . S
C358 C16 2.643 . S
C322 C60 3.763 . S
C450 C79 1.674 . S
C411 C138 4.111 . S
C21 C447 4.904 . S
C361 C94 3.311 . S
C133 C330 2.683 . S
C55 C398 3.860 . S
C318 C157 3.628 . S
C196 C362 2.619 . S
C255 C410 4.080 . S
C289 C451 3.999 . S
C172 C367 2.624 . S
C331 C216 3.720 . S
C441 C235 1.686 . S
C402 C294 4.127 . S
C177 C438 4.953 . S
C370 C250 3.304 . S
C321 C274 2.687 . S
C211 C407 3.879 . S
