# Generated by pormake.
# Topology anh, (6,3)-cn, num edge types: 1
# Building blocks:
#     Node 0, Type 0, BuildingBlock: CUWYAW_clean_sbu_0, # of connection points: 6
#     Node 1, Type 0, BuildingBlock: CUWYAW_clean_sbu_0, # of connection points: 6
#     Node 2, Type 0, BuildingBlock: CUWYAW_clean_sbu_0, # of connection points: 6
#     Node 3, Type 1, BuildingBlock: BETDIP_clean_linker_0, # of connection points: 3
#     Node 4, Type 1, BuildingBlock: BETDIP_clean_linker_0, # of connection points: 3
#     Node 5, Type 1, BuildingBlock: BETDIP_clean_linker_0, # of connection points: 3
#     Node 6, Type 1, BuildingBlock: BETDIP_clean_linker_0, # of connection points: 3
#     Node 7, Type 1, BuildingBlock: BETDIP_clean_linker_0, # of connection points: 3
#     Node 8, Type 1, BuildingBlock: BETDIP_clean_linker_0, # of connection points: 3
#     Edge 9, Type (0, 1), BuildingBlock: CIFDUS_clean_linker_0, # of connection points: 2
#     Edge 10, Type (0, 1), BuildingBlock: CIFDUS_clean_linker_0, # of connection points: 2
#     Edge 11, Type (0, 1), BuildingBlock: CIFDUS_clean_linker_0, # of connection points: 2
#     Edge 12, Type (0, 1), BuildingBlock: CIFDUS_clean_linker_0, # of connection points: 2
#     Edge 13, Type (0, 1), BuildingBlock: CIFDUS_clean_linker_0, # of connection points: 2
#     Edge 14, Type (0, 1), BuildingBlock: CIFDUS_clean_linker_0, # of connection points: 2
#     Edge 15, Type (0, 1), BuildingBlock: CIFDUS_clean_linker_0, # of connection points: 2
#     Edge 16, Type (0, 1), BuildingBlock: CIFDUS_clean_linker_0, # of connection points: 2
#     Edge 17, Type (0, 1), BuildingBlock: CIFDUS_clean_linker_0, # of connection points: 2
#     Edge 18, Type (0, 1), BuildingBlock: CIFDUS_clean_linker_0, # of connection points: 2
#     Edge 19, Type (0, 1), BuildingBlock: CIFDUS_clean_linker_0, # of connection points: 2
#     Edge 20, Type (0, 1), BuildingBlock: CIFDUS_clean_linker_0, # of connection points: 2
#     Edge 21, Type (0, 1), BuildingBlock: CIFDUS_clean_linker_0, # of connection points: 2
#     Edge 22, Type (0, 1), BuildingBlock: CIFDUS_clean_linker_0, # of connection points: 2
#     Edge 23, Type (0, 1), BuildingBlock: CIFDUS_clean_linker_0, # of connection points: 2
#     Edge 24, Type (0, 1), BuildingBlock: CIFDUS_clean_linker_0, # of connection points: 2
#     Edge 25, Type (0, 1), BuildingBlock: CIFDUS_clean_linker_0, # of connection points: 2
#     Edge 26, Type (0, 1), BuildingBlock: CIFDUS_clean_linker_0, # of connection points: 2
# Relax obj value: 0.310
# Max RMSD: 0.191
# Mean RMSD: 0.134
data_MOF--net-anh--node1-CUWYAW_clean_sbu_0--node2-BETDIP_clean_linker_0--edge1-CIFDUS_clean_linker_0
_symmetry_space_group_name_H-M    P1
_symmetry_Int_Tables_number       1
_symmetry_cell_setting            triclinic
loop_
_symmetry_equiv_pos_as_xyz
'x, y, z'
_cell_length_a     28.142165
_cell_length_b     27.963732
_cell_length_c     44.105865
_cell_angle_alpha  93.661862
_cell_angle_beta   89.098866
_cell_angle_gamma 120.52137
loop_
_atom_site_label
_atom_site_type_symbol
_atom_site_fract_x
_atom_site_fract_y
_atom_site_fract_z
_atom_type_partial_charge
C0 C 1.05678 0.43652 0.14399 0.0
Eu1 Eu 0.13211 0.5409 0.14785 0.0
C2 C 0.99974 0.41405 0.15411 0.0
C3 C 0.98975 0.43946 0.17995 0.0
C4 C 0.93683 0.42923 0.18587 0.0
C5 C 0.89249 0.39332 0.16613 0.0
C6 C 0.90199 0.36597 0.14093 0.0
C7 C 0.95535 0.37638 0.13494 0.0
C8 C 0.16548 0.59629 0.20376 0.0
C9 C 1.0572 0.60483 0.14114 0.0
C10 C 0.25616 0.76413 0.15053 0.0
Eu11 Eu 0.19227 0.65658 0.14279 0.0
C12 C 0.30962 0.81462 0.14536 0.0
C13 C 0.31537 0.84595 0.12039 0.0
C14 C 0.35893 0.90074 0.11959 0.0
C15 C 0.39748 0.92527 0.14375 0.0
C16 C 0.39461 0.89225 0.16728 0.0
C17 C 0.35093 0.8375 0.16815 0.0
C18 C 0.15854 0.59846 0.08826 0.0
C19 C 0.26669 0.59163 0.13671 0.0
O20 O 1.06918 0.46824 0.12124 0.0
O21 O 1.09513 0.45833 0.16533 0.0
O22 O 0.16948 0.5536 0.19465 0.0
O23 O 0.14477 0.60945 0.18266 0.0
O24 O 1.05701 0.55675 0.14057 0.0
O25 O 0.10647 0.65106 0.14475 0.0
O26 O 0.25324 0.72979 0.17033 0.0
O27 O 0.22276 0.73901 0.12721 0.0
O28 O 0.15766 0.64373 0.0949 0.0
O29 O 0.17926 0.58773 0.10988 0.0
O30 O 0.26819 0.64032 0.14187 0.0
O31 O 0.21627 0.54581 0.13499 0.0
H32 H 1.02341 0.47006 0.19465 0.0
H33 H 0.93134 0.45196 0.20509 0.0
H34 H 0.86852 0.33777 0.12544 0.0
H35 H 0.9624 0.35734 0.11453 0.0
H36 H 0.28409 0.82965 0.10251 0.0
H37 H 0.36041 0.92508 0.10106 0.0
H38 H 0.42334 0.91008 0.18642 0.0
H39 H 0.34743 0.81466 0.1878 0.0
C40 C 0.52097 0.18482 0.46495 0.0
Eu41 Eu 0.56415 0.12653 0.48051 0.0
C42 C 0.5438 0.24381 0.45947 0.0
C43 C 0.52245 0.27358 0.47523 0.0
C44 C 0.54958 0.33135 0.47482 0.0
C45 C 0.59859 0.36041 0.45854 0.0
C46 C 0.61729 0.32997 0.4407 0.0
C47 C 0.5902 0.27212 0.44122 0.0
C48 C 0.58384 0.11386 0.53932 0.0
C49 C 0.70281 0.20996 0.47572 0.0
C50 C 0.68288 1.02566 0.49937 0.0
Eu51 Eu 0.6307 0.07515 0.48378 0.0
C52 C 0.69407 0.9797 0.50027 0.0
C53 C 0.74412 0.98814 0.48851 0.0
C54 C 0.76242 0.95156 0.49382 0.0
C55 C 0.73088 0.90504 0.51091 0.0
C56 C 0.67893 0.89471 0.52114 0.0
C57 C 0.66085 0.93201 0.51608 0.0
C58 C 0.60983 0.09048 0.42682 0.0
C59 C 0.49041 0.9892 0.47457 0.0
O60 O 0.53371 0.15614 0.44547 0.0
O61 O 0.5241 0.17419 0.49305 0.0
O62 O 0.53691 0.10471 0.52882 0.0
O63 O 0.61905 0.12984 0.5183 0.0
O64 O 0.65241 0.20164 0.47016 0.0
O65 O 0.70545 0.16724 0.4856 0.0
O66 O 0.64429 1.02659 0.51602 0.0
O67 O 0.69125 1.05035 0.47404 0.0
O68 O 0.65798 0.1007 0.4356 0.0
O69 O 0.57633 1.07197 0.44794 0.0
O70 O 0.53945 0.99327 0.48042 0.0
O71 O 0.49053 1.03655 0.47225 0.0
H72 H 0.48661 0.25247 0.48932 0.0
H73 H 0.53428 0.35333 0.48913 0.0
H74 H 0.65445 0.35103 0.4276 0.0
H75 H 0.6072 0.25 0.42852 0.0
H76 H 0.7709 1.02508 0.47663 0.0
H77 H 0.80308 0.96206 0.48608 0.0
H78 H 0.65304 0.85888 0.53395 0.0
H79 H 0.62208 0.92464 0.52549 0.0
C80 C 0.79033 0.70794 0.81336 0.0
Eu81 Eu 0.68474 0.66615 0.81788 0.0
C82 C 0.81999 0.67705 0.8144 0.0
C83 C 0.84468 0.67746 0.8419 0.0
C84 C 0.85671 0.63593 0.84667 0.0
C85 C 0.84523 0.59397 0.82383 0.0
C86 C 0.82638 0.59694 0.79521 0.0
C87 C 0.81368 0.63816 0.7905 0.0
C88 C 0.63701 0.64669 0.87371 0.0
C89 C 0.63639 0.52628 0.80907 0.0
C90 C 0.46516 0.53865 0.81856 0.0
Eu91 Eu 0.57169 0.59431 0.81237 0.0
C92 C 0.41044 0.52867 0.80971 0.0
C93 C 0.37609 0.48092 0.79095 0.0
C94 C 0.32016 0.46242 0.7877 0.0
C95 C 0.29756 0.49142 0.80305 0.0
C96 C 0.33243 0.5416 0.81986 0.0
C97 C 0.38861 0.56 0.82336 0.0
C98 C 0.62165 0.61785 0.7579 0.0
C99 C 0.62033 0.73454 0.80924 0.0
O100 O 0.75771 0.69585 0.78979 0.0
O101 O 0.76705 0.71101 0.83869 0.0
O102 O 0.67171 0.69537 0.86456 0.0
O103 O 0.62659 0.60953 0.8525 0.0
O104 O 0.67792 0.57823 0.80533 0.0
O105 O 0.58872 0.5217 0.81699 0.0
O106 O 0.49804 0.5821 0.83651 0.0
O107 O 0.4914 0.52575 0.79806 0.0
O108 O 0.58428 0.56818 0.76429 0.0
O109 O 0.62968 0.65192 0.77983 0.0
O110 O 0.57671 0.68244 0.81076 0.0
O111 O 0.67015 0.73991 0.81027 0.0
H112 H 0.85057 0.70719 0.86058 0.0
H113 H 0.87255 0.63503 0.86873 0.0
H114 H 0.81789 0.56526 0.7772 0.0
H115 H 0.79513 0.63685 0.7689 0.0
H116 H 0.39163 0.45565 0.78036 0.0
H117 H 0.29387 0.42359 0.77466 0.0
H118 H 0.31553 0.56426 0.83212 0.0
H119 H 0.41403 0.59672 0.83812 0.0
H120 H 0.56667 0.26969 0.20334 0.0
H121 H 0.59463 0.31651 0.29917 0.0
H122 H 0.58193 0.16353 0.26393 0.0
H123 H 0.607 0.41021 0.2117 0.0
C124 C 0.61919 0.38557 0.22394 0.0
C125 C 0.57315 0.26094 0.226 0.0
C126 C 0.57374 0.21205 0.23055 0.0
C127 C 0.58074 0.2987 0.25072 0.0
C128 C 0.58851 0.28729 0.28016 0.0
C129 C 0.58965 0.23874 0.28479 0.0
C130 C 0.58227 0.20161 0.26001 0.0
N131 N 0.5832 0.34954 0.24574 0.0
H132 H 0.87247 0.69192 0.5305 0.0
H133 H 0.86017 0.72868 0.62545 0.0
H134 H 0.72784 0.58192 0.57877 0.0
H135 H 0.97947 0.82447 0.54569 0.0
C136 C 0.93692 0.80264 0.55291 0.0
C137 C 0.84936 0.68153 0.55133 0.0
C138 C 0.79784 0.63287 0.55177 0.0
C139 C 0.8713 0.71661 0.57783 0.0
C140 C 0.84229 0.70183 0.60501 0.0
C141 C 0.79006 0.65331 0.60561 0.0
C142 C 0.76807 0.61943 0.57873 0.0
N143 N 0.92254 0.76713 0.57728 0.0
H144 H 0.89261 0.32943 0.87047 0.0
H145 H 1.02039 0.37757 0.93762 0.0
H146 H 0.91077 0.44263 0.94558 0.0
H147 H 0.96109 0.33712 0.84077 0.0
C148 C 0.98727 0.3268 0.85325 0.0
C149 C 0.91269 0.35123 0.89183 0.0
C150 C 0.89684 0.38651 0.9067 0.0
C151 C 0.95709 0.34773 0.90311 0.0
C152 C 0.98398 0.37782 0.93026 0.0
C153 C 0.96824 0.41313 0.94565 0.0
C154 C 0.92283 0.41494 0.93432 0.0
N155 N 0.98143 0.32221 0.88517 0.0
H156 H 0.1545 0.63924 0.47479 0.0
H157 H 1.06481 0.55522 0.39085 0.0
H158 H 0.22022 0.70788 0.38829 0.0
H159 H 0.98625 0.51885 0.42063 0.0
C160 C 0.99903 0.50577 0.44002 0.0
C161 C 0.15091 0.6375 0.45031 0.0
C162 C 0.19505 0.68254 0.43382 0.0
C163 C 1.10142 0.59077 0.43517 0.0
C164 C 1.09926 0.59003 0.40311 0.0
C165 C 0.14198 0.63152 0.38617 0.0
C166 C 0.18829 0.67673 0.40173 0.0
N167 N 1.0564 0.54411 0.45135 0.0
H168 H 0.63521 0.18237 0.81133 0.0
H169 H 0.61542 0.08532 0.7267 0.0
H170 H 0.61625 0.2394 0.72583 0.0
H171 H 0.57778 1.0083 0.75821 0.0
C172 C 0.60916 1.02431 0.7761 0.0
C173 C 0.62982 0.1768 0.78687 0.0
C174 C 0.62718 0.21996 0.77074 0.0
C175 C 0.6257 0.12647 0.77131 0.0
C176 C 0.6186 0.12134 0.73933 0.0
C177 C 0.61504 0.16158 0.7231 0.0
C178 C 0.61979 0.20972 0.73885 0.0
N179 N 0.63092 0.0834 0.78696 0.0
H180 H 0.61176 0.59648 0.14233 0.0
H181 H 0.69372 0.5958 0.05833 0.0
H182 H 0.542 0.59771 0.05568 0.0
H183 H 0.77499 0.63588 0.08833 0.0
C184 C 0.76195 0.60966 0.10743 0.0
C185 C 0.61357 0.5968 0.11782 0.0
C186 C 0.56845 0.59693 0.10115 0.0
C187 C 0.66079 0.59651 0.1027 0.0
C188 C 0.66056 0.59665 0.07063 0.0
C189 C 0.61826 0.59721 0.05377 0.0
C190 C 0.5736 0.59724 0.06916 0.0
N191 N 0.70566 0.5932 0.11875 0.0
H192 H 0.38177 0.65335 0.15972 0.0
H193 H 0.27616 0.51892 0.09536 0.0
H194 H 0.35404 0.50798 0.07992 0.0
H195 H 0.45445 0.53601 0.0827 0.0
H196 H 0.56039 0.66403 0.14969 0.0
H197 H 0.48272 0.67644 0.16547 0.0
C198 C 0.37516 0.62143 0.14227 0.0
C199 C 0.32015 0.58742 0.12883 0.0
C200 C 0.42168 0.61355 0.13373 0.0
C201 C 0.31569 0.54631 0.10659 0.0
C202 C 0.36122 0.53987 0.09754 0.0
C203 C 0.46126 0.56647 0.10112 0.0
C204 C 0.51613 0.59862 0.11469 0.0
C205 C 0.41482 0.57303 0.11071 0.0
C206 C 0.52065 0.63743 0.13853 0.0
C207 C 0.47532 0.64501 0.14752 0.0
H208 H 0.81983 0.26301 0.49337 0.0
H209 H 0.70893 0.29098 0.44104 0.0
H210 H 0.78584 0.3796 0.42699 0.0
H211 H 0.88614 0.45153 0.42749 0.0
H212 H 0.99985 0.43026 0.48096 0.0
H213 H 0.92279 0.34014 0.49601 0.0
C214 C 0.81196 0.28821 0.47892 0.0
C215 C 0.75574 0.26737 0.46858 0.0
C216 C 0.85826 0.34205 0.47082 0.0
C217 C 0.74945 0.30332 0.44993 0.0
C218 C 0.79439 0.35506 0.44162 0.0
C219 C 0.89476 0.42785 0.44274 0.0
C220 C 0.95102 0.45031 0.45281 0.0
C221 C 0.8492 0.37528 0.45169 0.0
C222 C 0.95868 0.41664 0.47257 0.0
C223 C 0.91375 0.36401 0.48117 0.0
H224 H 0.69213 0.85509 0.81941 0.0
H225 H 0.52929 0.73282 0.78533 0.0
H226 H 0.51265 0.80717 0.77325 0.0
H227 H 0.54287 0.90814 0.77045 0.0
H228 H 0.7018 1.03278 0.80761 0.0
H229 H 0.72011 0.95864 0.82006 0.0
C230 C 0.65267 0.84412 0.80944 0.0
C231 C 0.61222 0.78554 0.80343 0.0
C232 C 0.64219 0.88885 0.80293 0.0
C233 C 0.56181 0.77536 0.79062 0.0
C234 C 0.55209 0.81876 0.78351 0.0
C235 C 0.5816 0.91985 0.78167 0.0
C236 C 0.62041 0.9784 0.78796 0.0
C237 C 0.59169 0.87589 0.78936 0.0
C238 C 0.67007 0.98989 0.80245 0.0
C239 C 0.68079 0.94657 0.80949 0.0
H240 H 0.93798 0.53521 0.15469 0.0
H241 H 1.05186 0.68586 0.1123 0.0
H242 H 0.97599 0.69963 0.09943 0.0
H243 H 0.87596 0.67085 0.09842 0.0
H244 H 0.7596 0.52583 0.14373 0.0
H245 H 0.83528 0.50986 0.15707 0.0
C246 C 0.94683 0.57133 0.14265 0.0
C247 C 1.00381 0.60925 0.13461 0.0
C248 C 0.90111 0.58066 0.13568 0.0
C249 C 1.0109 0.65541 0.11924 0.0
C250 C 0.96652 0.66352 0.11166 0.0
C251 C 0.86632 0.63565 0.11154 0.0
C252 C 0.80951 0.60023 0.11983 0.0
C253 C 0.91121 0.62679 0.11958 0.0
C254 C 0.801 0.55507 0.13681 0.0
C255 C 0.8452 0.54549 0.14432 0.0
H256 H 0.43416 0.87621 0.49724 0.0
H257 H 0.41656 0.97234 0.43024 0.0
H258 H 0.32865 0.89225 0.41334 0.0
H259 H 0.25362 0.7938 0.41607 0.0
H260 H 0.26444 0.69485 0.48351 0.0
H261 H 0.35406 0.77483 0.5012 0.0
C262 C 0.41163 0.88 0.47877 0.0
C263 C 0.43514 0.93304 0.46519 0.0
C264 C 0.35784 0.83205 0.46902 0.0
C265 C 0.40216 0.93427 0.44163 0.0
C266 C 0.35075 0.88757 0.43172 0.0
C267 C 0.27495 0.78871 0.4347 0.0
C268 C 0.24952 0.73545 0.44784 0.0
C269 C 0.3276 0.83599 0.44507 0.0
C270 C 0.28022 0.73341 0.47246 0.0
C271 C 0.33274 0.77998 0.48259 0.0
H272 H 0.57964 0.41437 0.83068 0.0
H273 H 0.70736 0.51461 0.76918 0.0
H274 H 0.71718 0.43464 0.75331 0.0
H275 H 0.68796 0.33292 0.75428 0.0
H276 H 0.5667 0.2335 0.81874 0.0
H277 H 0.55702 0.31382 0.83536 0.0
C278 C 0.61004 0.4194 0.81387 0.0
C279 C 0.64251 0.4733 0.80138 0.0
C280 C 0.61692 0.37182 0.80502 0.0
C281 C 0.6815 0.47594 0.77979 0.0
C282 C 0.68711 0.42919 0.77044 0.0
C283 C 0.6598 0.32832 0.7724 0.0
C284 C 0.62848 0.27447 0.78499 0.0
C285 C 0.65498 0.37639 0.78256 0.0
C286 C 0.59249 0.27248 0.8084 0.0
C287 C 0.58649 0.31925 0.81788 0.0
H288 H 0.79948 0.87829 0.47902 0.0
H289 H 0.71896 0.85821 0.56541 0.0
H290 H 0.77159 0.81923 0.58483 0.0
H291 H 0.84907 0.80287 0.57983 0.0
H292 H 0.93628 0.83153 0.49554 0.0
H293 H 0.87409 0.8576 0.47319 0.0
C294 C 0.79337 0.86554 0.50214 0.0
C295 C 0.75556 0.8721 0.52073 0.0
C296 C 0.82592 0.84583 0.51379 0.0
C297 C 0.74714 0.8534 0.5503 0.0
C298 C 0.77789 0.83174 0.56167 0.0
C299 C 0.85367 0.8135 0.55634 0.0
C300 C 0.89672 0.81467 0.53913 0.0
C301 C 0.81858 0.82946 0.54395 0.0
C302 C 0.9033 0.83033 0.5091 0.0
C303 C 0.86773 0.84507 0.49635 0.0
H304 H 0.79672 0.528 0.8699 0.0
H305 H 0.90129 0.55074 0.79318 0.0
H306 H 0.91697 0.47746 0.80923 0.0
H307 H 0.91299 0.41929 0.8495 0.0
H308 H 0.81184 0.39981 0.92757 0.0
H309 H 0.78147 0.45877 0.90624 0.0
C310 C 0.82252 0.51638 0.85662 0.0
C311 C 0.84911 0.5453 0.83094 0.0
C312 C 0.83171 0.47495 0.86619 0.0
C313 C 0.88113 0.52925 0.81326 0.0
C314 C 0.89006 0.48753 0.82245 0.0
C315 C 0.88259 0.4261 0.86129 0.0
C316 C 0.8649 0.40567 0.89016 0.0
C317 C 0.86713 0.4616 0.84946 0.0
C318 C 0.82615 0.41546 0.90539 0.0
C319 C 0.80924 0.44949 0.89333 0.0
H320 H 0.50563 0.98482 0.16192 0.0
H321 H 0.36914 1.00313 0.13528 0.0
H322 H 0.41826 0.10003 0.15469 0.0
H323 H 0.49049 0.1722 0.18878 0.0
H324 H 0.62575 0.15342 0.21714 0.0
H325 H 0.58701 1.06454 0.18739 0.0
C326 C 0.48733 1.01052 0.15973 0.0
C327 C 0.43354 0.98657 0.14765 0.0
C328 C 0.51517 1.06591 0.17175 0.0
C329 C 0.41057 1.02048 0.14442 0.0
C330 C 0.43841 0.07586 0.15583 0.0
C331 C 0.51255 0.14968 0.18754 0.0
C332 C 0.56006 0.16853 0.20571 0.0
C333 C 0.48943 0.09808 0.17092 0.0
C334 C 0.5883 0.13895 0.20386 0.0
C335 C 0.56613 0.0881 0.18692 0.0
H336 H 0.70982 0.41922 0.46684 0.0
H337 H 0.56726 0.43875 0.46471 0.0
H338 H 0.62083 0.53162 0.48992 0.0
H339 H 0.70225 0.59815 0.52127 0.0
H340 H 0.84402 0.57798 0.52351 0.0
H341 H 0.79714 0.49486 0.48871 0.0
C342 C 0.69087 0.44446 0.47074 0.0
C343 C 0.63416 0.42146 0.46464 0.0
C344 C 0.72163 0.49738 0.48563 0.0
C345 C 0.61047 0.45495 0.46996 0.0
C346 C 0.64103 0.50801 0.4844 0.0
C347 C 0.72323 0.57631 0.51331 0.0
C348 C 0.7759 0.5932 0.525 0.0
C349 C 0.69569 0.52826 0.49378 0.0
C350 C 0.80334 0.56533 0.51464 0.0
C351 C 0.7764 0.51769 0.49498 0.0
H352 H 0.2308 0.39205 0.82474 0.0
H353 H 0.23059 0.53151 0.78863 0.0
H354 H 0.13108 0.488 0.79737 0.0
H355 H 1.0463 0.41357 0.81914 0.0
H356 H 1.05033 0.28028 0.86066 0.0
H357 H 0.14629 0.31726 0.84548 0.0
C358 C 0.20859 0.41233 0.81834 0.0
C359 C 0.23725 0.46439 0.80582 0.0
C360 C 0.15237 0.38808 0.82442 0.0
C361 C 0.20886 0.49124 0.79821 0.0
C362 C 0.15222 0.4664 0.80321 0.0
C363 C 1.0681 0.39221 0.82423 0.0
C364 C 1.04179 0.34416 0.8406 0.0
C365 C 0.1238 0.41527 0.81676 0.0
C366 C 1.07018 0.31718 0.84787 0.0
C367 C 0.12488 0.33843 0.83934 0.0
H368 H 0.84162 0.38416 0.21984 0.0
H369 H 0.8208 0.39094 0.1238 0.0
H370 H 0.73473 0.39066 0.13316 0.0
H371 H 0.66655 0.39133 0.16923 0.0
H372 H 0.69128 0.38858 0.26517 0.0
H373 H 0.77556 0.3862 0.2554 0.0
C374 C 0.81843 0.38584 0.20093 0.0
C375 C 0.83768 0.38767 0.17121 0.0
C376 C 0.77002 0.38711 0.20653 0.0
C377 C 0.80648 0.38864 0.14689 0.0
C378 C 0.75759 0.38912 0.15225 0.0
C379 C 0.69086 0.39065 0.18786 0.0
C380 C 0.67265 0.38923 0.21776 0.0
C381 C 0.73931 0.38906 0.18204 0.0
C382 C 0.70412 0.38847 0.2419 0.0
C383 C 0.75228 0.3872 0.23635 0.0
H384 H 0.10614 0.61333 0.04227 0.0
H385 H 0.14638 0.49608 0.07528 0.0
H386 H 1.08984 0.42735 0.03461 0.0
H387 H 1.02568 0.39947 -0.00918 0.0
H388 H 0.99328 0.5212 0.95568 0.0
H389 H 1.04895 0.58846 -0.00372 0.0
C390 C 1.1029 0.5729 0.04037 0.0
C391 C 0.12964 0.55944 0.06188 0.0
C392 C 1.07091 0.53393 0.01682 0.0
C393 C 0.12561 0.50715 0.05907 0.0
C394 C 1.09323 0.4678 0.03587 0.0
C395 C 1.03108 0.44078 -0.00814 0.0
C396 C 1.00358 0.45416 0.97057 0.0
C397 C 1.06508 0.4805 0.0148 0.0
C398 C 1.01162 0.50834 0.97236 0.0
C399 C 1.04428 0.54745 -0.00461 0.0
H400 H 0.67681 0.18872 0.40195 0.0
H401 H 0.51612 1.04055 0.3933 0.0
H402 H 0.49324 0.07632 0.35011 0.0
H403 H 0.52049 0.14778 0.31363 0.0
H404 H 0.67919 0.29803 0.32282 0.0
H405 H 0.70094 0.26466 0.36783 0.0
C406 C 0.63716 0.16425 0.39027 0.0
C407 C 0.59864 0.11152 0.39991 0.0
C408 C 0.62367 0.18596 0.36614 0.0
C409 C 0.54658 0.08076 0.3856 0.0
C410 C 0.53339 0.10134 0.36117 0.0
C411 C 0.55942 0.17349 0.32589 0.0
C412 C 0.59833 0.22499 0.31516 0.0
C413 C 0.5717 0.15367 0.35117 0.0
C414 C 0.6486 0.25837 0.33102 0.0
C415 C 0.66122 0.23898 0.35642 0.0
H416 H 0.63384 0.54875 0.71674 0.0
H417 H 0.68401 0.72094 0.73761 0.0
H418 H 0.74161 0.74754 0.69267 0.0
H419 H 0.77688 0.7217 0.64715 0.0
H420 H 0.73034 0.55003 0.62756 0.0
H421 H 0.6721 0.52338 0.67215 0.0
C422 C 0.65709 0.59197 0.71123 0.0
C423 C 0.65435 0.63277 0.73011 0.0
C424 C 0.69089 0.60708 0.68567 0.0
C425 C 0.68534 0.68879 0.72319 0.0
C426 C 0.71835 0.70404 0.69758 0.0
C427 C 0.75462 0.67859 0.65287 0.0
C428 C 0.75774 0.63795 0.63392 0.0
C429 C 0.72153 0.66356 0.67868 0.0
C430 C 0.72799 0.58209 0.64148 0.0
C431 C 0.6948 0.56678 0.66703 0.0
H432 H 0.52574 0.12549 0.58668 0.0
H433 H 0.67314 0.11923 0.56755 0.0
H434 H 0.69512 0.13103 0.6222 0.0
H435 H 0.67269 0.14428 0.67616 0.0
H436 H 0.52847 0.15721 0.69393 0.0
H437 H 0.50525 0.14184 0.63964 0.0
C438 C 0.56267 0.12654 0.5944 0.0
C439 C 0.59752 0.12105 0.57277 0.0
C440 C 0.57574 0.13473 0.62591 0.0
C441 C 0.64547 0.12324 0.58347 0.0
C442 C 0.65804 0.12999 0.61484 0.0
C443 C 0.63613 0.14357 0.6681 0.0
C444 C 0.60228 0.15181 0.68937 0.0
C445 C 0.62356 0.13591 0.63639 0.0
C446 C 0.55538 0.15126 0.67829 0.0
C447 C 0.542 0.14234 0.64714 0.0
H448 H 0.63959 0.56967 0.90944 0.0
H449 H 0.60974 0.7065 0.91295 0.0
H450 H 0.59898 0.7023 0.968 0.0
H451 H 0.60243 0.66309 0.01605 0.0
H452 H 0.63901 0.53082 0.01362 0.0
H453 H 0.64326 0.53026 0.95809 0.0
C454 C 0.62976 0.59785 0.92223 0.0
C455 C 0.62451 0.63781 0.9068 0.0
C456 C 0.62565 0.5966 0.95444 0.0
C457 C 0.61338 0.67498 0.92403 0.0
C458 C 0.60749 0.67278 0.95565 0.0
C459 C 0.61093 0.6338 0.00341 0.0
C460 C 0.62035 0.59702 0.0194 0.0
C461 C 0.61421 0.6343 0.97126 0.0
C462 C 0.63205 0.56001 0.00227 0.0
C463 C 0.63422 0.55947 0.97034 0.0
H464 H 1.08614 0.59305 0.24297 0.0
H465 H 0.25639 0.63659 0.23944 0.0
H466 H 0.26538 0.65369 0.29473 0.0
H467 H 0.22367 0.65057 0.34482 0.0
H468 H 1.05193 0.60216 0.34916 0.0
H469 H 1.04467 0.59219 0.29363 0.0
C470 C 0.1255 0.6076 0.2543 0.0
C471 C 0.17104 0.6149 0.23682 0.0
C472 C 0.12988 0.6155 0.28659 0.0
C473 C 0.22107 0.63172 0.25213 0.0
C474 C 0.22611 0.64109 0.28388 0.0
C475 C 0.18473 0.63851 0.33372 0.0
C476 C 0.13842 0.62715 0.35168 0.0
C477 C 0.18063 0.6323 0.30149 0.0
C478 C 1.08825 0.61064 0.33636 0.0
C479 C 1.0841 0.6052 0.3044 0.0
loop_
_geom_bond_atom_site_label_1
_geom_bond_atom_site_label_2
_geom_bond_distance
_geom_bond_site_symmetry_2
_ccdc_geom_bond_type
C0 Eu1 2.848 . S
C0 C2 1.500 . S
C0 O20 1.257 . S
C0 O21 1.260 . S
Eu1 C0 2.848 . S
Eu1 O20 2.486 . S
Eu1 O21 2.491 . S
Eu1 O22 2.431 1_655 S
Eu1 O23 2.668 1_655 S
Eu1 O24 2.412 . S
Eu1 O29 2.358 1_655 S
Eu1 O31 2.355 1_655 S
C2 C0 1.500 . S
C2 C3 1.377 . S
C2 C7 1.377 . S
C3 C2 1.377 . S
C3 C4 1.395 . S
C3 H32 0.931 . S
C4 C3 1.395 . S
C4 C5 1.383 . S
C4 H33 0.931 . S
C5 C4 1.383 . S
C5 C6 1.394 . S
C6 C5 1.394 . S
C6 C7 1.378 . S
C6 H34 0.931 . S
C7 C2 1.377 . S
C7 C6 1.378 . S
C7 H35 0.931 . S
C8 O22 1.259 . S
C8 O23 1.270 . S
C9 O24 1.251 . S
C9 O25 1.251 . S
C10 Eu11 2.835 . S
C10 C12 1.500 . S
C10 O26 1.257 . S
C10 O27 1.260 . S
Eu11 C10 2.835 . S
Eu11 O23 2.355 . S
Eu11 O25 2.374 1_455 S
Eu11 O26 2.473 . S
Eu11 O27 2.480 . S
Eu11 O28 2.430 . S
Eu11 O29 2.670 . S
Eu11 O30 2.394 . S
C12 C10 1.500 . S
C12 C13 1.377 . S
C12 C17 1.377 . S
C13 C12 1.377 . S
C13 C14 1.395 . S
C13 H36 0.931 . S
C14 C13 1.395 . S
C14 C15 1.383 . S
C14 H37 0.931 . S
C15 C14 1.383 . S
C15 C16 1.394 . S
C16 C15 1.394 . S
C16 C17 1.378 . S
C16 H38 0.931 . S
C17 C12 1.377 . S
C17 C16 1.378 . S
C17 H39 0.931 . S
C18 O28 1.259 . S
C18 O29 1.270 . S
C19 O30 1.251 . S
C19 O31 1.251 . S
O20 C0 1.257 . S
O20 Eu1 2.486 . S
O21 C0 1.260 . S
O21 Eu1 2.491 . S
O22 Eu1 2.431 1_455 S
O22 C8 1.259 . S
O23 Eu1 2.668 1_455 S
O23 C8 1.270 . S
O23 Eu11 2.355 . S
O24 Eu1 2.412 . S
O24 C9 1.251 . S
O25 C9 1.251 . S
O25 Eu11 2.374 1_655 S
O26 C10 1.257 . S
O26 Eu11 2.473 . S
O27 C10 1.260 . S
O27 Eu11 2.480 . S
O28 Eu11 2.430 . S
O28 C18 1.259 . S
O29 Eu1 2.358 1_455 S
O29 Eu11 2.670 . S
O29 C18 1.270 . S
O30 Eu11 2.394 . S
O30 C19 1.251 . S
O31 Eu1 2.355 1_455 S
O31 C19 1.251 . S
H32 C3 0.931 . S
H33 C4 0.931 . S
H34 C6 0.931 . S
H35 C7 0.931 . S
H36 C13 0.931 . S
H37 C14 0.931 . S
H38 C16 0.931 . S
H39 C17 0.931 . S
C40 Eu41 2.835 . S
C40 C42 1.500 . S
C40 O60 1.257 . S
C40 O61 1.260 . S
Eu41 C40 2.835 . S
Eu41 O60 2.473 . S
Eu41 O61 2.480 . S
Eu41 O62 2.430 . S
Eu41 O63 2.670 . S
Eu41 O64 2.394 . S
Eu41 O69 2.355 . S
Eu41 O71 2.374 1_545 S
C42 C40 1.500 . S
C42 C43 1.377 . S
C42 C47 1.377 . S
C43 C42 1.377 . S
C43 C44 1.395 . S
C43 H72 0.931 . S
C44 C43 1.395 . S
C44 C45 1.383 . S
C44 H73 0.931 . S
C45 C44 1.383 . S
C45 C46 1.394 . S
C46 C45 1.394 . S
C46 C47 1.378 . S
C46 H74 0.931 . S
C47 C42 1.377 . S
C47 C46 1.378 . S
C47 H75 0.931 . S
C48 O62 1.259 . S
C48 O63 1.270 . S
C49 O64 1.251 . S
C49 O65 1.251 . S
C50 Eu51 2.835 1_565 S
C50 C52 1.500 . S
C50 O66 1.257 . S
C50 O67 1.260 . S
Eu51 C50 2.835 1_545 S
Eu51 O63 2.355 . S
Eu51 O65 2.374 . S
Eu51 O66 2.473 1_545 S
Eu51 O67 2.480 1_545 S
Eu51 O68 2.430 . S
Eu51 O69 2.670 . S
Eu51 O70 2.394 1_545 S
C52 C50 1.500 . S
C52 C53 1.377 . S
C52 C57 1.377 . S
C53 C52 1.377 . S
C53 C54 1.395 . S
C53 H76 0.931 . S
C54 C53 1.395 . S
C54 C55 1.383 . S
C54 H77 0.931 . S
C55 C54 1.383 . S
C55 C56 1.394 . S
C56 C55 1.394 . S
C56 C57 1.378 . S
C56 H78 0.931 . S
C57 C52 1.377 . S
C57 C56 1.378 . S
C57 H79 0.931 . S
C58 O68 1.259 . S
C58 O69 1.270 . S
C59 O70 1.251 . S
C59 O71 1.251 . S
O60 C40 1.257 . S
O60 Eu41 2.473 . S
O61 C40 1.260 . S
O61 Eu41 2.480 . S
O62 Eu41 2.430 . S
O62 C48 1.259 . S
O63 Eu41 2.670 . S
O63 C48 1.270 . S
O63 Eu51 2.355 . S
O64 Eu41 2.394 . S
O64 C49 1.251 . S
O65 C49 1.251 . S
O65 Eu51 2.374 . S
O66 C50 1.257 . S
O66 Eu51 2.473 1_565 S
O67 C50 1.260 . S
O67 Eu51 2.480 1_565 S
O68 Eu51 2.430 . S
O68 C58 1.259 . S
O69 Eu41 2.355 . S
O69 Eu51 2.670 . S
O69 C58 1.270 . S
O70 Eu51 2.394 1_565 S
O70 C59 1.251 . S
O71 Eu41 2.374 1_565 S
O71 C59 1.251 . S
H72 C43 0.931 . S
H73 C44 0.931 . S
H74 C46 0.931 . S
H75 C47 0.931 . S
H76 C53 0.931 . S
H77 C54 0.931 . S
H78 C56 0.931 . S
H79 C57 0.931 . S
C80 Eu81 2.835 . S
C80 C82 1.500 . S
C80 O100 1.257 . S
C80 O101 1.260 . S
Eu81 C80 2.835 . S
Eu81 O100 2.473 . S
Eu81 O101 2.480 . S
Eu81 O102 2.430 . S
Eu81 O103 2.670 . S
Eu81 O104 2.394 . S
Eu81 O109 2.355 . S
Eu81 O111 2.374 . S
C82 C80 1.500 . S
C82 C83 1.377 . S
C82 C87 1.377 . S
C83 C82 1.377 . S
C83 C84 1.395 . S
C83 H112 0.931 . S
C84 C83 1.395 . S
C84 C85 1.383 . S
C84 H113 0.931 . S
C85 C84 1.383 . S
C85 C86 1.394 . S
C86 C85 1.394 . S
C86 C87 1.378 . S
C86 H114 0.931 . S
C87 C82 1.377 . S
C87 C86 1.378 . S
C87 H115 0.931 . S
C88 O102 1.259 . S
C88 O103 1.270 . S
C89 O104 1.251 . S
C89 O105 1.251 . S
C90 Eu91 2.835 . S
C90 C92 1.500 . S
C90 O106 1.257 . S
C90 O107 1.260 . S
Eu91 C90 2.835 . S
Eu91 O103 2.355 . S
Eu91 O105 2.374 . S
Eu91 O106 2.473 . S
Eu91 O107 2.480 . S
Eu91 O108 2.430 . S
Eu91 O109 2.670 . S
Eu91 O110 2.394 . S
C92 C90 1.500 . S
C92 C93 1.377 . S
C92 C97 1.377 . S
C93 C92 1.377 . S
C93 C94 1.395 . S
C93 H116 0.931 . S
C94 C93 1.395 . S
C94 C95 1.383 . S
C94 H117 0.931 . S
C95 C94 1.383 . S
C95 C96 1.394 . S
C96 C95 1.394 . S
C96 C97 1.378 . S
C96 H118 0.931 . S
C97 C92 1.377 . S
C97 C96 1.378 . S
C97 H119 0.931 . S
C98 O108 1.259 . S
C98 O109 1.270 . S
C99 O110 1.251 . S
C99 O111 1.251 . S
O100 C80 1.257 . S
O100 Eu81 2.473 . S
O101 C80 1.260 . S
O101 Eu81 2.480 . S
O102 Eu81 2.430 . S
O102 C88 1.259 . S
O103 Eu81 2.670 . S
O103 C88 1.270 . S
O103 Eu91 2.355 . S
O104 Eu81 2.394 . S
O104 C89 1.251 . S
O105 C89 1.251 . S
O105 Eu91 2.374 . S
O106 C90 1.257 . S
O106 Eu91 2.473 . S
O107 C90 1.260 . S
O107 Eu91 2.480 . S
O108 Eu91 2.430 . S
O108 C98 1.259 . S
O109 Eu81 2.355 . S
O109 Eu91 2.670 . S
O109 C98 1.270 . S
O110 Eu91 2.394 . S
O110 C99 1.251 . S
O111 Eu81 2.374 . S
O111 C99 1.251 . S
H112 C83 0.931 . S
H113 C84 0.931 . S
H114 C86 0.931 . S
H115 C87 0.931 . S
H116 C93 0.931 . S
H117 C94 0.931 . S
H118 C96 0.931 . S
H119 C97 0.931 . S
H120 C125 0.930 . S
H121 C128 0.930 . S
H122 C130 0.930 . S
H123 C124 1.016 . S
C124 H123 1.016 . S
C124 N131 1.286 . S
C125 H120 0.930 . S
C125 C126 1.397 . S
C125 C127 1.361 . S
C126 C125 1.397 . S
C126 C130 1.390 . S
C127 C125 1.361 . S
C127 C128 1.393 . S
C127 N131 1.413 . S
C128 H121 0.930 . S
C128 C127 1.393 . S
C128 C129 1.399 . S
C129 C128 1.399 . S
C129 C130 1.381 . S
C130 H122 0.930 . S
C130 C126 1.390 . S
C130 C129 1.381 . S
N131 C124 1.286 . S
N131 C127 1.413 . S
H132 C137 0.930 . S
H133 C140 0.930 . S
H134 C142 0.930 . S
H135 C136 1.016 . S
C136 H135 1.016 . S
C136 N143 1.286 . S
C137 H132 0.930 . S
C137 C138 1.397 . S
C137 C139 1.361 . S
C138 C137 1.397 . S
C138 C142 1.390 . S
C139 C137 1.361 . S
C139 C140 1.393 . S
C139 N143 1.413 . S
C140 H133 0.930 . S
C140 C139 1.393 . S
C140 C141 1.399 . S
C141 C140 1.399 . S
C141 C142 1.381 . S
C142 H134 0.930 . S
C142 C138 1.390 . S
C142 C141 1.381 . S
N143 C136 1.286 . S
N143 C139 1.413 . S
H144 C149 0.930 . S
H145 C152 0.930 . S
H146 C154 0.930 . S
H147 C148 1.016 . S
C148 H147 1.016 . S
C148 N155 1.286 . S
C149 H144 0.930 . S
C149 C150 1.397 . S
C149 C151 1.361 1_655 S
C150 C149 1.397 . S
C150 C154 1.390 . S
C151 C149 1.361 1_455 S
C151 C152 1.393 . S
C151 N155 1.413 . S
C152 H145 0.930 . S
C152 C151 1.393 . S
C152 C153 1.399 1_455 S
C153 C152 1.399 1_655 S
C153 C154 1.381 . S
C154 H146 0.930 . S
C154 C150 1.390 . S
C154 C153 1.381 . S
N155 C148 1.286 . S
N155 C151 1.413 . S
H156 C161 0.930 . S
H157 C164 0.930 1_655 S
H158 C166 0.930 . S
H159 C160 1.016 . S
C160 H159 1.016 . S
C160 N167 1.286 . S
C161 H156 0.930 . S
C161 C162 1.397 . S
C161 C163 1.361 . S
C162 C161 1.397 . S
C162 C166 1.390 . S
C163 C161 1.361 . S
C163 C164 1.393 . S
C163 N167 1.413 1_455 S
C164 H157 0.930 1_455 S
C164 C163 1.393 . S
C164 C165 1.399 . S
C165 C164 1.399 . S
C165 C166 1.381 . S
C166 H158 0.930 . S
C166 C162 1.390 . S
C166 C165 1.381 . S
N167 C160 1.286 . S
N167 C163 1.413 1_655 S
H168 C173 0.930 . S
H169 C176 0.930 . S
H170 C178 0.930 . S
H171 C172 1.016 . S
C172 H171 1.016 . S
C172 N179 1.286 . S
C173 H168 0.930 . S
C173 C174 1.397 . S
C173 C175 1.349 1_545 S
C174 C173 1.397 . S
C174 C178 1.390 . S
C175 C173 1.349 1_565 S
C175 C176 1.394 . S
C175 N179 1.424 . S
C176 H169 0.930 . S
C176 C175 1.394 . S
C176 C177 1.399 1_565 S
C177 C176 1.399 1_545 S
C177 C178 1.381 . S
C178 H170 0.930 . S
C178 C174 1.390 . S
C178 C177 1.381 . S
N179 C172 1.286 . S
N179 C175 1.424 . S
H180 C185 0.930 . S
H181 C188 0.930 . S
H182 C190 0.930 . S
H183 C184 1.016 . S
C184 H183 1.016 . S
C184 N191 1.286 . S
C185 H180 0.930 . S
C185 C186 1.397 . S
C185 C187 1.361 . S
C186 C185 1.397 . S
C186 C190 1.390 . S
C187 C185 1.361 . S
C187 C188 1.393 . S
C187 N191 1.413 . S
C188 H181 0.930 . S
C188 C187 1.393 . S
C188 C189 1.399 . S
C189 C188 1.399 . S
C189 C190 1.381 . S
C190 H182 0.930 . S
C190 C186 1.390 . S
C190 C189 1.381 . S
N191 C184 1.286 . S
N191 C187 1.413 . S
H192 C198 0.930 . S
H193 C201 0.930 . S
H194 C202 0.930 . S
H195 C203 0.930 . S
H196 C206 0.930 . S
H197 C207 0.930 . S
C198 H192 0.930 . S
C198 C199 1.355 . S
C198 C200 1.415 . S
C199 C198 1.355 . S
C199 C201 1.419 . S
C200 C198 1.415 . S
C200 C205 1.425 . S
C200 C207 1.409 . S
C201 H193 0.930 . S
C201 C199 1.419 . S
C201 C202 1.362 . S
C202 H194 0.930 . S
C202 C201 1.362 . S
C202 C205 1.409 . S
C203 H195 0.930 . S
C203 C204 1.355 . S
C203 C205 1.415 . S
C204 C203 1.355 . S
C204 C206 1.419 . S
C205 C200 1.425 . S
C205 C202 1.409 . S
C205 C203 1.415 . S
C206 H196 0.930 . S
C206 C204 1.419 . S
C206 C207 1.362 . S
C207 H197 0.930 . S
C207 C200 1.409 . S
C207 C206 1.362 . S
H208 C214 0.930 . S
H209 C217 0.930 . S
H210 C218 0.930 . S
H211 C219 0.930 . S
H212 C222 0.930 . S
H213 C223 0.930 . S
C214 H208 0.930 . S
C214 C215 1.355 . S
C214 C216 1.415 . S
C215 C214 1.355 . S
C215 C217 1.419 . S
C216 C214 1.415 . S
C216 C221 1.425 . S
C216 C223 1.409 . S
C217 H209 0.930 . S
C217 C215 1.419 . S
C217 C218 1.362 . S
C218 H210 0.930 . S
C218 C217 1.362 . S
C218 C221 1.409 . S
C219 H211 0.930 . S
C219 C220 1.355 . S
C219 C221 1.415 . S
C220 C219 1.355 . S
C220 C222 1.419 . S
C221 C216 1.425 . S
C221 C218 1.409 . S
C221 C219 1.415 . S
C222 H212 0.930 . S
C222 C220 1.419 . S
C222 C223 1.362 . S
C223 H213 0.930 . S
C223 C216 1.409 . S
C223 C222 1.362 . S
H224 C230 0.930 . S
H225 C233 0.930 . S
H226 C234 0.930 . S
H227 C235 0.930 . S
H228 C238 0.930 . S
H229 C239 0.930 . S
C230 H224 0.930 . S
C230 C231 1.355 . S
C230 C232 1.415 . S
C231 C230 1.355 . S
C231 C233 1.419 . S
C232 C230 1.415 . S
C232 C237 1.425 . S
C232 C239 1.409 . S
C233 H225 0.930 . S
C233 C231 1.419 . S
C233 C234 1.362 . S
C234 H226 0.930 . S
C234 C233 1.362 . S
C234 C237 1.409 . S
C235 H227 0.930 . S
C235 C236 1.355 . S
C235 C237 1.415 . S
C236 C235 1.355 . S
C236 C238 1.419 . S
C237 C232 1.425 . S
C237 C234 1.409 . S
C237 C235 1.415 . S
C238 H228 0.930 . S
C238 C236 1.419 . S
C238 C239 1.362 . S
C239 H229 0.930 . S
C239 C232 1.409 . S
C239 C238 1.362 . S
H240 C246 0.930 . S
H241 C249 0.930 . S
H242 C250 0.930 . S
H243 C251 0.930 . S
H244 C254 0.930 . S
H245 C255 0.930 . S
C246 H240 0.930 . S
C246 C247 1.355 . S
C246 C248 1.415 . S
C247 C246 1.355 . S
C247 C249 1.419 . S
C248 C246 1.415 . S
C248 C253 1.425 . S
C248 C255 1.409 . S
C249 H241 0.930 . S
C249 C247 1.419 . S
C249 C250 1.362 . S
C250 H242 0.930 . S
C250 C249 1.362 . S
C250 C253 1.409 . S
C251 H243 0.930 . S
C251 C252 1.355 . S
C251 C253 1.415 . S
C252 C251 1.355 . S
C252 C254 1.419 . S
C253 C248 1.425 . S
C253 C250 1.409 . S
C253 C251 1.415 . S
C254 H244 0.930 . S
C254 C252 1.419 . S
C254 C255 1.362 . S
C255 H245 0.930 . S
C255 C248 1.409 . S
C255 C254 1.362 . S
H256 C262 0.930 . S
H257 C265 0.930 . S
H258 C266 0.930 . S
H259 C267 0.930 . S
H260 C270 0.930 . S
H261 C271 0.930 . S
C262 H256 0.930 . S
C262 C263 1.355 . S
C262 C264 1.415 . S
C263 C262 1.355 . S
C263 C265 1.419 . S
C264 C262 1.415 . S
C264 C269 1.425 . S
C264 C271 1.409 . S
C265 H257 0.930 . S
C265 C263 1.419 . S
C265 C266 1.362 . S
C266 H258 0.930 . S
C266 C265 1.362 . S
C266 C269 1.409 . S
C267 H259 0.930 . S
C267 C268 1.355 . S
C267 C269 1.415 . S
C268 C267 1.355 . S
C268 C270 1.419 . S
C269 C264 1.425 . S
C269 C266 1.409 . S
C269 C267 1.415 . S
C270 H260 0.930 . S
C270 C268 1.419 . S
C270 C271 1.362 . S
C271 H261 0.930 . S
C271 C264 1.409 . S
C271 C270 1.362 . S
H272 C278 0.930 . S
H273 C281 0.930 . S
H274 C282 0.930 . S
H275 C283 0.930 . S
H276 C286 0.930 . S
H277 C287 0.930 . S
C278 H272 0.930 . S
C278 C279 1.355 . S
C278 C280 1.415 . S
C279 C278 1.355 . S
C279 C281 1.419 . S
C280 C278 1.415 . S
C280 C285 1.425 . S
C280 C287 1.409 . S
C281 H273 0.930 . S
C281 C279 1.419 . S
C281 C282 1.362 . S
C282 H274 0.930 . S
C282 C281 1.362 . S
C282 C285 1.409 . S
C283 H275 0.930 . S
C283 C284 1.355 . S
C283 C285 1.415 . S
C284 C283 1.355 . S
C284 C286 1.419 . S
C285 C280 1.425 . S
C285 C282 1.409 . S
C285 C283 1.415 . S
C286 H276 0.930 . S
C286 C284 1.419 . S
C286 C287 1.362 . S
C287 H277 0.930 . S
C287 C280 1.409 . S
C287 C286 1.362 . S
H288 C294 0.930 . S
H289 C297 0.930 . S
H290 C298 0.930 . S
H291 C299 0.930 . S
H292 C302 0.930 . S
H293 C303 0.930 . S
C294 H288 0.930 . S
C294 C295 1.355 . S
C294 C296 1.415 . S
C295 C294 1.355 . S
C295 C297 1.419 . S
C296 C294 1.415 . S
C296 C301 1.425 . S
C296 C303 1.409 . S
C297 H289 0.930 . S
C297 C295 1.419 . S
C297 C298 1.362 . S
C298 H290 0.930 . S
C298 C297 1.362 . S
C298 C301 1.409 . S
C299 H291 0.930 . S
C299 C300 1.355 . S
C299 C301 1.415 . S
C300 C299 1.355 . S
C300 C302 1.419 . S
C301 C296 1.425 . S
C301 C298 1.409 . S
C301 C299 1.415 . S
C302 H292 0.930 . S
C302 C300 1.419 . S
C302 C303 1.362 . S
C303 H293 0.930 . S
C303 C296 1.409 . S
C303 C302 1.362 . S
H304 C310 0.930 . S
H305 C313 0.930 . S
H306 C314 0.930 . S
H307 C315 0.930 . S
H308 C318 0.930 . S
H309 C319 0.930 . S
C310 H304 0.930 . S
C310 C311 1.355 . S
C310 C312 1.415 . S
C311 C310 1.355 . S
C311 C313 1.419 . S
C312 C310 1.415 . S
C312 C317 1.425 . S
C312 C319 1.409 . S
C313 H305 0.930 . S
C313 C311 1.419 . S
C313 C314 1.362 . S
C314 H306 0.930 . S
C314 C313 1.362 . S
C314 C317 1.409 . S
C315 H307 0.930 . S
C315 C316 1.355 . S
C315 C317 1.415 . S
C316 C315 1.355 . S
C316 C318 1.419 . S
C317 C312 1.425 . S
C317 C314 1.409 . S
C317 C315 1.415 . S
C318 H308 0.930 . S
C318 C316 1.419 . S
C318 C319 1.362 . S
C319 H309 0.930 . S
C319 C312 1.409 . S
C319 C318 1.362 . S
H320 C326 0.930 . S
H321 C329 0.930 . S
H322 C330 0.930 . S
H323 C331 0.929 . S
H324 C334 0.930 . S
H325 C335 0.930 . S
C326 H320 0.930 . S
C326 C327 1.355 . S
C326 C328 1.415 . S
C327 C326 1.355 . S
C327 C329 1.419 . S
C328 C326 1.415 . S
C328 C333 1.425 . S
C328 C335 1.409 . S
C329 H321 0.930 . S
C329 C327 1.419 . S
C329 C330 1.362 . S
C330 H322 0.930 . S
C330 C329 1.362 . S
C330 C333 1.409 . S
C331 H323 0.929 . S
C331 C332 1.355 . S
C331 C333 1.415 1_545 S
C332 C331 1.355 . S
C332 C334 1.419 1_545 S
C333 C328 1.425 . S
C333 C330 1.409 . S
C333 C331 1.415 1_565 S
C334 H324 0.930 . S
C334 C332 1.419 1_565 S
C334 C335 1.362 . S
C335 H325 0.930 . S
C335 C328 1.409 . S
C335 C334 1.362 . S
H336 C342 0.930 . S
H337 C345 0.930 . S
H338 C346 0.930 . S
H339 C347 0.930 . S
H340 C350 0.930 . S
H341 C351 0.930 . S
C342 H336 0.930 . S
C342 C343 1.355 . S
C342 C344 1.415 . S
C343 C342 1.355 . S
C343 C345 1.419 . S
C344 C342 1.415 . S
C344 C349 1.425 . S
C344 C351 1.409 . S
C345 H337 0.930 . S
C345 C343 1.419 . S
C345 C346 1.362 . S
C346 H338 0.930 . S
C346 C345 1.362 . S
C346 C349 1.409 . S
C347 H339 0.930 . S
C347 C348 1.355 . S
C347 C349 1.415 . S
C348 C347 1.355 . S
C348 C350 1.419 . S
C349 C344 1.425 . S
C349 C346 1.409 . S
C349 C347 1.415 . S
C350 H340 0.930 . S
C350 C348 1.419 . S
C350 C351 1.362 . S
C351 H341 0.930 . S
C351 C344 1.409 . S
C351 C350 1.362 . S
H352 C358 0.930 . S
H353 C361 0.930 . S
H354 C362 0.930 . S
H355 C363 0.930 . S
H356 C366 0.930 . S
H357 C367 0.930 . S
C358 H352 0.930 . S
C358 C359 1.355 . S
C358 C360 1.415 . S
C359 C358 1.355 . S
C359 C361 1.419 . S
C360 C358 1.415 . S
C360 C365 1.425 . S
C360 C367 1.409 . S
C361 H353 0.930 . S
C361 C359 1.419 . S
C361 C362 1.362 . S
C362 H354 0.930 . S
C362 C361 1.362 . S
C362 C365 1.409 . S
C363 H355 0.930 . S
C363 C364 1.355 . S
C363 C365 1.415 . S
C364 C363 1.355 . S
C364 C366 1.419 . S
C365 C360 1.425 . S
C365 C362 1.409 . S
C365 C363 1.415 . S
C366 H356 0.930 . S
C366 C364 1.419 . S
C366 C367 1.362 . S
C367 H357 0.930 . S
C367 C360 1.409 . S
C367 C366 1.362 . S
H368 C374 0.930 . S
H369 C377 0.930 . S
H370 C378 0.930 . S
H371 C379 0.930 . S
H372 C382 0.930 . S
H373 C383 0.930 . S
C374 H368 0.930 . S
C374 C375 1.355 . S
C374 C376 1.415 . S
C375 C374 1.355 . S
C375 C377 1.419 . S
C376 C374 1.415 . S
C376 C381 1.425 . S
C376 C383 1.409 . S
C377 H369 0.930 . S
C377 C375 1.419 . S
C377 C378 1.362 . S
C378 H370 0.930 . S
C378 C377 1.362 . S
C378 C381 1.409 . S
C379 H371 0.930 . S
C379 C380 1.355 . S
C379 C381 1.415 . S
C380 C379 1.355 . S
C380 C382 1.419 . S
C381 C376 1.425 . S
C381 C378 1.409 . S
C381 C379 1.415 . S
C382 H372 0.930 . S
C382 C380 1.419 . S
C382 C383 1.362 . S
C383 H373 0.930 . S
C383 C376 1.409 . S
C383 C382 1.362 . S
H384 C390 0.930 1_655 S
H385 C393 0.930 . S
H386 C394 0.930 . S
H387 C395 0.930 . S
H388 C398 0.930 . S
H389 C399 0.928 1_554 S
C390 H384 0.930 1_455 S
C390 C391 1.355 . S
C390 C392 1.412 . S
C391 C390 1.355 . S
C391 C393 1.419 . S
C392 C390 1.412 . S
C392 C397 1.437 . S
C392 C399 1.387 1_454 S
C393 H385 0.930 . S
C393 C391 1.419 . S
C393 C394 1.362 . S
C394 H386 0.930 . S
C394 C393 1.362 . S
C394 C397 1.409 . S
C395 H387 0.930 . S
C395 C396 1.355 1_455 S
C395 C397 1.415 1_556 S
C396 C395 1.355 1_655 S
C396 C398 1.419 . S
C397 C392 1.437 . S
C397 C394 1.409 . S
C397 C395 1.415 1_554 S
C398 H388 0.930 . S
C398 C396 1.419 . S
C398 C399 1.378 . S
C399 H389 0.928 1_556 S
C399 C392 1.387 1_656 S
C399 C398 1.378 . S
H400 C406 0.930 1_565 S
H401 C409 0.930 . S
H402 C410 0.930 . S
H403 C411 0.930 . S
H404 C414 0.930 1_565 S
H405 C415 0.930 . S
C406 H400 0.930 1_545 S
C406 C407 1.355 . S
C406 C408 1.415 . S
C407 C406 1.355 . S
C407 C409 1.419 . S
C408 C406 1.415 . S
C408 C413 1.425 . S
C408 C415 1.409 1_545 S
C409 H401 0.930 . S
C409 C407 1.419 . S
C409 C410 1.362 . S
C410 H402 0.930 . S
C410 C409 1.362 . S
C410 C413 1.409 . S
C411 H403 0.930 . S
C411 C412 1.355 . S
C411 C413 1.415 . S
C412 C411 1.355 . S
C412 C414 1.419 . S
C413 C408 1.425 . S
C413 C410 1.409 . S
C413 C411 1.415 . S
C414 H404 0.930 1_545 S
C414 C412 1.419 . S
C414 C415 1.362 1_545 S
C415 H405 0.930 . S
C415 C408 1.409 1_565 S
C415 C414 1.362 1_565 S
H416 C422 0.930 . S
H417 C425 0.930 . S
H418 C426 0.930 . S
H419 C427 0.930 . S
H420 C430 0.930 . S
H421 C431 0.930 . S
C422 H416 0.930 . S
C422 C423 1.355 . S
C422 C424 1.415 . S
C423 C422 1.355 . S
C423 C425 1.419 . S
C424 C422 1.415 . S
C424 C429 1.425 . S
C424 C431 1.409 . S
C425 H417 0.930 . S
C425 C423 1.419 . S
C425 C426 1.362 . S
C426 H418 0.930 . S
C426 C425 1.362 . S
C426 C429 1.409 . S
C427 H419 0.930 . S
C427 C428 1.355 . S
C427 C429 1.415 . S
C428 C427 1.355 . S
C428 C430 1.419 . S
C429 C424 1.425 . S
C429 C426 1.409 . S
C429 C427 1.415 . S
C430 H420 0.930 . S
C430 C428 1.419 . S
C430 C431 1.362 . S
C431 H421 0.930 . S
C431 C424 1.409 . S
C431 C430 1.362 . S
H432 C438 0.930 1_565 S
H433 C441 0.930 . S
H434 C442 0.930 . S
H435 C443 0.930 . S
H436 C446 0.930 . S
H437 C447 0.930 . S
C438 H432 0.930 1_545 S
C438 C439 1.355 . S
C438 C440 1.415 . S
C439 C438 1.355 . S
C439 C441 1.419 . S
C440 C438 1.415 . S
C440 C445 1.425 . S
C440 C447 1.409 1_545 S
C441 H433 0.930 . S
C441 C439 1.419 . S
C441 C442 1.362 . S
C442 H434 0.930 . S
C442 C441 1.362 . S
C442 C445 1.409 . S
C443 H435 0.930 . S
C443 C444 1.355 . S
C443 C445 1.415 . S
C444 C443 1.355 . S
C444 C446 1.419 1_545 S
C445 C440 1.425 . S
C445 C442 1.409 . S
C445 C443 1.415 . S
C446 H436 0.930 . S
C446 C444 1.419 1_565 S
C446 C447 1.362 . S
C447 H437 0.930 . S
C447 C440 1.409 1_565 S
C447 C446 1.362 . S
H448 C454 0.930 . S
H449 C457 0.930 . S
H450 C458 0.930 . S
H451 C459 0.930 . S
H452 C462 0.930 . S
H453 C463 0.934 . S
C454 H448 0.930 . S
C454 C455 1.355 . S
C454 C456 1.415 . S
C455 C454 1.355 . S
C455 C457 1.419 . S
C456 C454 1.415 . S
C456 C461 1.425 . S
C456 C463 1.409 1_556 S
C457 H449 0.930 . S
C457 C455 1.419 . S
C457 C458 1.362 . S
C458 H450 0.930 . S
C458 C457 1.362 . S
C458 C461 1.409 . S
C459 H451 0.930 . S
C459 C460 1.355 . S
C459 C461 1.415 1_554 S
C460 C459 1.355 . S
C460 C462 1.419 . S
C461 C456 1.425 . S
C461 C458 1.409 . S
C461 C459 1.415 1_556 S
C462 H452 0.930 . S
C462 C460 1.419 . S
C462 C463 1.362 . S
C463 H453 0.934 . S
C463 C456 1.409 1_554 S
C463 C462 1.362 . S
H464 C470 0.930 1_655 S
H465 C473 0.930 . S
H466 C474 0.930 . S
H467 C475 0.930 . S
H468 C478 0.930 . S
H469 C479 0.930 . S
C470 H464 0.930 1_455 S
C470 C471 1.355 . S
C470 C472 1.415 . S
C471 C470 1.355 . S
C471 C473 1.419 . S
C472 C470 1.415 . S
C472 C477 1.425 . S
C472 C479 1.409 1_455 S
C473 H465 0.930 . S
C473 C471 1.419 . S
C473 C474 1.362 . S
C474 H466 0.930 . S
C474 C473 1.362 . S
C474 C477 1.409 . S
C475 H467 0.930 . S
C475 C476 1.355 . S
C475 C477 1.415 . S
C476 C475 1.355 . S
C476 C478 1.419 1_455 S
C477 C472 1.425 . S
C477 C474 1.409 . S
C477 C475 1.415 . S
C478 H468 0.930 . S
C478 C476 1.419 1_655 S
C478 C479 1.362 . S
C479 H469 0.930 . S
C479 C472 1.409 1_655 S
C479 C478 1.362 . S
C199 C19 3.216 . S
C204 C186 3.246 . S
C215 C49 3.136 . S
C220 C160 3.033 . S
C231 C99 3.062 . S
C236 C172 2.981 . S
C247 C9 2.877 . S
C252 C184 2.748 . S
C268 C162 2.917 . S
C263 C59 2.936 . S
C284 C174 2.961 . S
C279 C89 3.005 . S
C295 C55 0.624 . S
C300 C136 0.704 . S
C311 C85 0.740 . S
C316 C150 0.629 . S
C327 C15 0.272 . S
C332 C126 0.198 . S
C348 C138 0.438 . S
C343 C45 0.622 . S
C364 C148 0.411 . S
C359 C95 0.354 . S
C375 C5 0.662 . S
C380 C124 0.433 . S
C396 C153 1.193 . S
C391 C18 1.210 . S
C407 C58 1.140 . S
C412 C129 1.157 . S
C423 C98 1.242 . S
C428 C141 1.213 . S
C444 C177 1.754 . S
C439 C48 1.676 . S
C460 C189 1.836 . S
C455 C88 1.748 . S
C471 C8 1.698 . S
C476 C165 1.810 . S
