# Generated by pormake.
# Topology anh, (6,3)-cn, num edge types: 1
# Building blocks:
#     Node 0, Type 0, BuildingBlock: BETDAH_clean_sbu_0, # of connection points: 6
#     Node 1, Type 0, BuildingBlock: BETDAH_clean_sbu_0, # of connection points: 6
#     Node 2, Type 0, BuildingBlock: BETDAH_clean_sbu_0, # of connection points: 6
#     Node 3, Type 1, BuildingBlock: CUQRIR_clean_linker_1, # of connection points: 3
#     Node 4, Type 1, BuildingBlock: CUQRIR_clean_linker_1, # of connection points: 3
#     Node 5, Type 1, BuildingBlock: CUQRIR_clean_linker_1, # of connection points: 3
#     Node 6, Type 1, BuildingBlock: CUQRIR_clean_linker_1, # of connection points: 3
#     Node 7, Type 1, BuildingBlock: CUQRIR_clean_linker_1, # of connection points: 3
#     Node 8, Type 1, BuildingBlock: CUQRIR_clean_linker_1, # of connection points: 3
#     Edge 9, Type (0, 1), BuildingBlock: ZUJKAS_clean_linker_0, # of connection points: 2
#     Edge 10, Type (0, 1), BuildingBlock: ZUJKAS_clean_linker_0, # of connection points: 2
#     Edge 11, Type (0, 1), BuildingBlock: ZUJKAS_clean_linker_0, # of connection points: 2
#     Edge 12, Type (0, 1), BuildingBlock: ZUJKAS_clean_linker_0, # of connection points: 2
#     Edge 13, Type (0, 1), BuildingBlock: ZUJKAS_clean_linker_0, # of connection points: 2
#     Edge 14, Type (0, 1), BuildingBlock: ZUJKAS_clean_linker_0, # of connection points: 2
#     Edge 15, Type (0, 1), BuildingBlock: ZUJKAS_clean_linker_0, # of connection points: 2
#     Edge 16, Type (0, 1), BuildingBlock: ZUJKAS_clean_linker_0, # of connection points: 2
#     Edge 17, Type (0, 1), BuildingBlock: ZUJKAS_clean_linker_0, # of connection points: 2
#     Edge 18, Type (0, 1), BuildingBlock: ZUJKAS_clean_linker_0, # of connection points: 2
#     Edge 19, Type (0, 1), BuildingBlock: ZUJKAS_clean_linker_0, # of connection points: 2
#     Edge 20, Type (0, 1), BuildingBlock: ZUJKAS_clean_linker_0, # of connection points: 2
#     Edge 21, Type (0, 1), BuildingBlock: ZUJKAS_clean_linker_0, # of connection points: 2
#     Edge 22, Type (0, 1), BuildingBlock: ZUJKAS_clean_linker_0, # of connection points: 2
#     Edge 23, Type (0, 1), BuildingBlock: ZUJKAS_clean_linker_0, # of connection points: 2
#     Edge 24, Type (0, 1), BuildingBlock: ZUJKAS_clean_linker_0, # of connection points: 2
#     Edge 25, Type (0, 1), BuildingBlock: ZUJKAS_clean_linker_0, # of connection points: 2
#     Edge 26, Type (0, 1), BuildingBlock: ZUJKAS_clean_linker_0, # of connection points: 2
# Relax obj value: 0.168
# Max RMSD: 0.211
# Mean RMSD: 0.161
data_MOF--net-anh--node1-BETDAH_clean_sbu_0--node2-CUQRIR_clean_linker_1--edge1-ZUJKAS_clean_linker_0
_symmetry_space_group_name_H-M    P1
_symmetry_Int_Tables_number       1
_symmetry_cell_setting            triclinic
loop_
_symmetry_equiv_pos_as_xyz
'x, y, z'
_cell_length_a     37.562531
_cell_length_b     44.287179
_cell_length_c     61.335056
_cell_angle_alpha  88.150755
_cell_angle_beta   90.667343
_cell_angle_gamma 128.25614
loop_
_atom_site_label
_atom_site_type_symbol
_atom_site_fract_x
_atom_site_fract_y
_atom_site_fract_z
_atom_type_partial_charge
Ho0 Ho 0.10875 0.46942 0.15372 0.0
Ho1 Ho 1.04747 0.49416 0.16397 0.0
C2 C 0.15487 0.56078 0.16146 0.0
C3 C 0.17549 0.47199 0.14141 0.0
C4 C 0.22368 0.50311 0.14625 0.0
C5 C 0.25238 0.53154 0.13022 0.0
C6 C 0.29565 0.56432 0.13567 0.0
C7 C 0.311 0.5693 0.15725 0.0
C8 C 0.28259 0.54051 0.17313 0.0
C9 C 0.23955 0.50784 0.16772 0.0
C10 C 0.08421 0.46409 0.19557 0.0
C11 C 1.00258 0.40446 0.15388 0.0
C12 C 0.9906 0.49665 0.18478 0.0
C13 C 0.9419 0.47475 0.18126 0.0
C14 C 0.91332 0.46888 0.19815 0.0
C15 C 0.86659 0.44656 0.19483 0.0
C16 C 0.84792 0.42991 0.17452 0.0
C17 C 0.87687 0.43521 0.15786 0.0
C18 C 0.92335 0.4572 0.16125 0.0
C19 C 1.05439 0.49003 0.12009 0.0
O20 O 0.15924 0.53451 0.15573 0.0
O21 O 0.11525 0.55192 0.16683 0.0
O22 O 0.14953 0.45059 0.15812 0.0
O23 O 0.15624 0.48192 0.12841 0.0
O24 O 0.08811 0.43988 0.18696 0.0
O25 O 0.09564 0.49061 0.18194 0.0
O26 O 0.99975 0.42918 0.16375 0.0
O27 O 1.04103 0.41475 0.14522 0.0
O28 O 1.01712 0.52178 0.16918 0.0
O29 O 1.00236 0.47558 0.19148 0.0
O30 O 1.03158 0.49985 0.12867 0.0
O31 O 0.07053 0.48285 0.13554 0.0
H32 H 0.2409 0.52891 0.11361 0.0
H33 H 0.31694 0.58593 0.12305 0.0
H34 H 0.2939 0.54285 0.18976 0.0
H35 H 0.21844 0.48671 0.18056 0.0
H36 H 0.92709 0.4815 0.21387 0.0
H37 H 0.84516 0.44259 0.2081 0.0
H38 H 0.86391 0.42342 0.14191 0.0
H39 H 0.9449 0.46076 0.14817 0.0
Ho40 Ho 0.67204 0.04389 0.48286 0.0
Ho41 Ho 0.61386 0.06771 0.47128 0.0
C42 C 0.5639 0.9786 0.47419 0.0
C43 C 0.7059 0.01301 0.50062 0.0
C44 C 0.69229 0.97418 0.50533 0.0
C45 C 0.65419 0.94673 0.51842 0.0
C46 C 0.64346 0.91082 0.52335 0.0
C47 C 0.67034 0.90157 0.51513 0.0
C48 C 0.70798 0.92889 0.5018 0.0
C49 C 0.71891 0.96483 0.49704 0.0
C50 C 0.66916 0.05726 0.4399 0.0
C51 C 0.72341 0.13342 0.47725 0.0
C52 C 0.58035 0.10015 0.45564 0.0
C53 C 0.58861 0.13623 0.46058 0.0
C54 C 0.56873 0.14902 0.44795 0.0
C55 C 0.57524 0.18264 0.45322 0.0
C56 C 0.60167 0.20396 0.47128 0.0
C57 C 0.62203 0.19114 0.48369 0.0
C58 C 0.61565 0.15767 0.47835 0.0
C59 C 0.61894 0.05626 0.51439 0.0
O60 O 0.60025 0.98755 0.48462 0.0
O61 O 0.56391 1.00535 0.46399 0.0
O62 O 0.71183 0.02399 0.48006 0.0
O63 O 0.6857 0.02338 0.51171 0.0
O64 O 0.70476 0.06521 0.44965 0.0
O65 O 0.636 0.04026 0.45303 0.0
O66 O 0.68503 0.12405 0.46914 0.0
O67 O 0.72581 0.10729 0.48639 0.0
O68 O 0.56118 0.0739 0.47137 0.0
O69 O 0.61416 0.10381 0.44647 0.0
O70 O 0.58306 0.04817 0.50502 0.0
O71 O 0.65109 0.07255 0.5008 0.0
H72 H 0.63286 0.95303 0.52499 0.0
H73 H 0.61404 0.89021 0.53352 0.0
H74 H 0.72967 0.92281 0.49545 0.0
H75 H 0.74858 0.98557 0.48703 0.0
H76 H 0.54791 0.13286 0.43412 0.0
H77 H 0.55963 0.19195 0.44312 0.0
H78 H 0.64203 0.20642 0.49788 0.0
H79 H 0.63125 0.14814 0.4883 0.0
Ho80 Ho 0.62259 0.60421 0.84634 0.0
Ho81 Ho 0.55879 0.5183 0.85341 0.0
C82 C 0.51222 0.55958 0.85313 0.0
C83 C 0.66365 0.67391 0.83135 0.0
C84 C 0.65424 0.70129 0.82616 0.0
C85 C 0.6321 0.69878 0.80684 0.0
C86 C 0.62696 0.72677 0.80127 0.0
C87 C 0.64393 0.75799 0.81484 0.0
C88 C 0.66524 0.75999 0.83436 0.0
C89 C 0.67052 0.7321 0.83989 0.0
C90 C 0.61192 0.57946 0.88807 0.0
C91 C 0.66994 0.56332 0.84919 0.0
C92 C 0.52068 0.44804 0.86599 0.0
C93 C 0.53102 0.42186 0.86118 0.0
C94 C 0.51124 0.38782 0.87364 0.0
C95 C 0.52043 0.36259 0.86873 0.0
C96 C 0.54954 0.37096 0.85122 0.0
C97 C 0.56974 0.40553 0.83898 0.0
C98 C 0.56067 0.43075 0.84396 0.0
C99 C 0.57144 0.54307 0.81136 0.0
O100 O 0.55206 0.59022 0.84503 0.0
O101 O 0.50801 0.52889 0.86045 0.0
O102 O 0.66332 0.66519 0.85197 0.0
O103 O 0.6453 0.64425 0.81891 0.0
O104 O 0.65022 0.60921 0.87989 0.0
O105 O 0.58092 0.56587 0.8742 0.0
O106 O 0.62867 0.53154 0.85471 0.0
O107 O 0.67592 0.59533 0.84323 0.0
O108 O 0.50668 0.45737 0.84942 0.0
O109 O 0.55083 0.47768 0.87758 0.0
O110 O 0.53301 0.51348 0.81939 0.0
O111 O 0.60158 0.55648 0.82566 0.0
H112 H 0.61957 0.67567 0.79574 0.0
H113 H 0.61089 0.72454 0.78598 0.0
H114 H 0.67812 0.78327 0.84537 0.0
H115 H 0.68805 0.73501 0.85479 0.0
H116 H 0.48855 0.38068 0.8871 0.0
H117 H 0.50485 0.33658 0.87872 0.0
H118 H 0.5918 0.41276 0.82521 0.0
H119 H 0.57638 0.45701 0.83418 0.0
C120 C 0.57755 0.98491 0.18075 0.0
N121 N 0.60434 0.01438 0.19446 0.0
N122 N 0.54106 0.95391 0.19162 0.0
C123 C 0.58543 0.98695 0.15661 0.0
C124 C 0.54666 0.96541 0.21239 0.0
N125 N 0.58471 1.00222 0.2141 0.0
C126 C 0.5171 0.93938 0.23134 0.0
H127 H 0.55303 0.96634 0.14803 0.0
H128 H 0.60799 0.9793 0.15359 0.0
H129 H 0.60211 0.01649 0.14986 0.0
H130 H 0.49951 0.90872 0.22785 0.0
H131 H 0.4911 0.94323 0.23443 0.0
H132 H 0.53739 0.94656 0.24634 0.0
C133 C 0.6355 0.5456 0.54943 0.0
N134 N 0.63627 0.56635 0.56547 0.0
N135 N 0.6392 0.51905 0.55791 0.0
C136 C 0.63433 0.55288 0.5254 0.0
C137 C 0.64237 0.52441 0.57967 0.0
N138 N 0.64107 0.55341 0.58424 0.0
C139 C 0.64278 0.49917 0.59654 0.0
H140 H 0.5985 0.53636 0.52028 0.0
H141 H 0.65046 0.54338 0.51581 0.0
H142 H 0.65191 0.58387 0.52174 0.0
H143 H 0.67846 0.51242 0.60062 0.0
H144 H 0.62646 0.47006 0.59034 0.0
H145 H 0.62503 0.49642 0.61171 0.0
C146 C 0.09002 0.55839 0.85941 0.0
N147 N 0.11321 0.55114 0.87332 0.0
N148 N 1.05331 0.55206 0.86956 0.0
C149 C 0.10165 0.56968 0.83576 0.0
C150 C 1.05565 0.54127 0.8901 0.0
N151 N 0.09086 0.54021 0.89229 0.0
C152 C 1.02497 0.53415 0.90863 0.0
H153 H 0.12826 0.60132 0.83421 0.0
H154 H 0.07153 0.56173 0.82649 0.0
H155 H 0.1152 0.5558 0.82874 0.0
H156 H 0.99636 0.5029 0.91011 0.0
H157 H 1.01096 0.54981 0.90573 0.0
H158 H 1.04337 0.54332 0.92432 0.0
C159 C 0.1419 0.5553 0.45419 0.0
N160 N 0.11658 0.52687 0.43974 0.0
N161 N 0.17463 0.58891 0.44366 0.0
C162 C 0.13549 0.55022 0.47853 0.0
C163 C 0.16866 0.58001 0.42237 0.0
N164 N 0.13371 0.54225 0.41996 0.0
C165 C 0.19684 0.60845 0.40394 0.0
H166 H 0.11013 0.55406 0.48325 0.0
H167 H 0.16765 0.57195 0.48696 0.0
H168 H 0.12274 0.52091 0.48396 0.0
H169 H 0.22547 0.60808 0.40043 0.0
H170 H 0.21123 0.63812 0.40823 0.0
H171 H 0.17639 0.60078 0.38895 0.0
C172 C 0.61795 0.08211 0.77774 0.0
N173 N 0.62038 0.06303 0.76174 0.0
N174 N 0.61363 0.1082 0.76906 0.0
C175 C 0.62008 0.07541 0.80175 0.0
C176 C 0.61305 0.10406 0.74727 0.0
N177 N 0.61683 0.07641 0.74283 0.0
C178 C 0.61031 0.12804 0.73047 0.0
H179 H 0.60149 0.0443 0.80553 0.0
H180 H 0.60595 0.08625 0.81171 0.0
H181 H 0.65604 0.09084 0.80633 0.0
H182 H 0.64464 0.15591 0.72797 0.0
H183 H 0.58761 0.13421 0.73631 0.0
H184 H 0.59813 0.11384 0.71459 0.0
C185 C 0.56242 0.50365 0.15036 0.0
N186 N 0.56247 0.4885 0.13158 0.0
N187 N 0.54834 0.52491 0.14668 0.0
C188 C 0.57559 0.49747 0.1723 0.0
C189 C 0.53974 0.5222 0.12505 0.0
N190 N 0.54818 0.49982 0.11583 0.0
C191 C 0.52731 0.54429 0.11262 0.0
H192 H 0.56774 0.46884 0.17356 0.0
H193 H 0.55779 0.49993 0.18558 0.0
H194 H 0.61262 0.51989 0.17439 0.0
H195 H 0.53382 0.56802 0.12224 0.0
H196 H 0.49072 0.52435 0.10867 0.0
H197 H 0.54671 0.55637 0.09703 0.0
H198 H 0.3409 0.61307 0.19375 0.0
H199 H 0.41806 0.65111 0.20799 0.0
H200 H 0.46346 0.63558 0.14803 0.0
H201 H 0.38766 0.59851 0.13398 0.0
H202 H 0.44748 0.61519 0.2178 0.0
H203 H 0.58147 0.72878 0.16502 0.0
H204 H 0.52577 0.71663 0.16423 0.0
H205 H 0.54097 0.69493 0.14586 0.0
C206 C 0.36793 0.61916 0.18337 0.0
C207 C 0.35813 0.60194 0.16299 0.0
C208 C 0.4121 0.64125 0.19144 0.0
C209 C 0.44699 0.6463 0.17926 0.0
C210 C 0.43793 0.63318 0.15778 0.0
H211 H 0.47273 0.51089 0.16113 0.0
H212 H 0.46739 0.55383 0.18211 0.0
C213 C 0.39403 0.61137 0.14971 0.0
C214 C 0.48698 0.65356 0.19029 0.0
H215 H 0.57992 0.66811 0.1694 0.0
C216 C 0.47787 0.62853 0.20794 0.0
C217 C 0.52867 0.67277 0.17894 0.0
C218 C 0.5448 0.70515 0.16266 0.0
C219 C 0.50237 0.61442 0.21023 0.0
C220 C 0.53567 0.62539 0.19437 0.0
C221 C 0.55244 0.65787 0.18079 0.0
C222 C 0.54006 0.59666 0.18637 0.0
C223 C 0.48777 0.58355 0.22739 0.0
C224 C 0.58255 0.6063 0.18167 0.0
C225 C 0.58529 0.58147 0.1696 0.0
C226 C 0.54569 0.54732 0.16186 0.0
C227 C 0.50339 0.53701 0.16725 0.0
C228 C 0.50053 0.56139 0.17943 0.0
H229 H 0.4801 0.59063 0.24299 0.0
H230 H 0.45618 0.5558 0.22216 0.0
H231 H 0.51428 0.58 0.2302 0.0
H232 H 0.61341 0.63364 0.18646 0.0
H233 H 0.6182 0.58975 0.16529 0.0
H234 H 0.81024 0.16496 0.48997 0.0
H235 H 0.8785 0.2319 0.48491 0.0
H236 H 0.79848 0.2613 0.45535 0.0
H237 H 0.7303 0.19469 0.46017 0.0
H238 H 0.87646 0.28807 0.43119 0.0
H239 H 0.9167 0.32718 0.5181 0.0
H240 H 0.90911 0.28443 0.51111 0.0
H241 H 0.86196 0.28529 0.50951 0.0
C242 C 0.80706 0.18572 0.48258 0.0
C243 C 0.76467 0.17433 0.4755 0.0
C244 C 0.84613 0.22403 0.47977 0.0
C245 C 0.84354 0.25169 0.46991 0.0
C246 C 0.80127 0.24047 0.46301 0.0
H247 H 1.04081 0.50069 0.46234 0.0
H248 H 0.97511 0.43323 0.46988 0.0
C249 C 0.76227 0.20229 0.46583 0.0
C250 C 0.88496 0.29207 0.46601 0.0
H251 H 0.97059 0.37319 0.49176 0.0
C252 C 0.8971 0.30667 0.44442 0.0
C253 C 0.91156 0.31642 0.48331 0.0
C254 C 0.89912 0.30278 0.50684 0.0
C255 C 0.93524 0.34486 0.43966 0.0
C256 C 0.96231 0.369 0.45693 0.0
C257 C 0.95001 0.35452 0.47854 0.0
C258 C 1.00277 0.40972 0.4529 0.0
C259 C 0.94569 0.35933 0.41619 0.0
C260 C 1.04036 0.41888 0.44115 0.0
C261 C 0.07792 0.45733 0.437 0.0
C262 C 0.07853 0.48723 0.44458 0.0
C263 C 1.04121 0.47806 0.45657 0.0
C264 C 1.00373 0.43963 0.46078 0.0
H265 H 0.91618 0.34023 0.40547 0.0
H266 H 0.95597 0.38883 0.41467 0.0
H267 H 0.97426 0.36043 0.41023 0.0
H268 H 1.04067 0.39627 0.43521 0.0
H269 H 0.10658 0.46382 0.42793 0.0
H270 H 0.57284 0.75066 0.79526 0.0
H271 H 0.56903 0.80202 0.78372 0.0
H272 H 0.70302 0.88654 0.80892 0.0
H273 H 0.70794 0.8357 0.81965 0.0
H274 H 0.57393 0.8551 0.80819 0.0
H275 H 0.71496 0.92945 0.74776 0.0
H276 H 0.69012 0.88195 0.75895 0.0
H277 H 0.73132 0.92383 0.77425 0.0
C278 C 0.60177 0.78022 0.79809 0.0
C279 C 0.64078 0.78898 0.80832 0.0
C280 C 0.59941 0.80952 0.7916 0.0
C281 C 0.63606 0.84819 0.79509 0.0
C282 C 0.67472 0.857 0.8056 0.0
H283 H 0.68702 0.0668 0.78195 0.0
H284 H 0.68998 0.01343 0.78907 0.0
C285 C 0.67718 0.82778 0.81203 0.0
C286 C 0.6334 0.87927 0.78835 0.0
H287 H 0.68738 0.9632 0.75806 0.0
C288 C 0.59846 0.87853 0.79706 0.0
C289 C 0.66544 0.90983 0.7738 0.0
C290 C 0.70232 0.91122 0.76297 0.0
C291 C 0.59545 0.90808 0.79212 0.0
C292 C 0.62796 0.93893 0.77791 0.0
C293 C 0.66259 0.93951 0.76899 0.0
C294 C 0.62715 0.97139 0.77258 0.0
C295 C 0.5583 0.90667 0.80262 0.0
C296 C 0.59142 0.96556 0.76056 0.0
C297 C 0.58983 0.99598 0.75651 0.0
C298 C 0.62385 0.03255 0.76446 0.0
C299 C 0.66023 0.03863 0.77593 0.0
C300 C 0.66197 0.0083 0.77989 0.0
H301 H 0.54149 0.88509 0.81635 0.0
H302 H 0.57198 0.93529 0.80879 0.0
H303 H 0.53222 0.89881 0.79027 0.0
H304 H 0.56454 0.93739 0.75453 0.0
H305 H 0.56147 0.9908 0.74769 0.0
H306 H 0.78936 0.36592 0.15007 0.0
H307 H 0.71495 0.34309 0.13654 0.0
H308 H 0.72286 0.42692 0.17492 0.0
H309 H 0.79694 0.45043 0.18797 0.0
H310 H 0.63239 0.35148 0.17222 0.0
H311 H 0.7193 0.4191 0.09196 0.0
H312 H 0.72018 0.3824 0.10481 0.0
H313 H 0.75231 0.42925 0.11616 0.0
C314 C 0.77488 0.37911 0.15583 0.0
C315 C 0.79944 0.41044 0.16985 0.0
C316 C 0.73231 0.36582 0.1482 0.0
C317 C 0.71377 0.38358 0.15461 0.0
C318 C 0.73655 0.41268 0.16991 0.0
H319 H 0.64485 0.50963 0.14006 0.0
H320 H 0.66816 0.46885 0.13924 0.0
C321 C 0.77898 0.42606 0.17741 0.0
C322 C 0.67464 0.377 0.14343 0.0
H323 H 0.65852 0.41865 0.10092 0.0
C324 C 0.63664 0.36435 0.15614 0.0
C325 C 0.68031 0.39358 0.12239 0.0
C326 C 0.72012 0.40692 0.10791 0.0
C327 C 0.60777 0.37287 0.14965 0.0
C328 C 0.61756 0.39452 0.13009 0.0
C329 C 0.65146 0.40216 0.11596 0.0
C330 C 0.60356 0.41898 0.12769 0.0
C331 C 0.57075 0.36327 0.16501 0.0
C332 C 0.5599 0.40447 0.12104 0.0
C333 C 0.54677 0.42794 0.12147 0.0
C334 C 0.57705 0.46566 0.12882 0.0
C335 C 0.62111 0.48042 0.13462 0.0
C336 C 0.63432 0.45728 0.13401 0.0
H337 H 0.56446 0.343 0.17844 0.0
H338 H 0.58046 0.39007 0.17224 0.0
H339 H 0.53878 0.35029 0.15595 0.0
H340 H 0.53584 0.37493 0.11614 0.0
H341 H 0.51263 0.41638 0.11692 0.0
H342 H 0.55449 0.91424 0.48771 0.0
H343 H 0.48716 0.84686 0.48506 0.0
H344 H 0.41295 0.88308 0.45677 0.0
H345 H 0.48017 0.95025 0.45882 0.0
H346 H 0.40172 0.80609 0.50254 0.0
H347 H 0.39309 0.80895 0.41234 0.0
H348 H 0.44182 0.84719 0.42704 0.0
H349 H 0.39252 0.84504 0.42433 0.0
C350 C 0.52388 0.90788 0.48086 0.0
C351 C 0.52294 0.9377 0.47323 0.0
C352 C 0.48537 0.86932 0.4794 0.0
C353 C 0.44521 0.85983 0.47031 0.0
C354 C 0.44386 0.8896 0.46329 0.0
H355 H 0.17691 0.65064 0.44354 0.0
H356 H 0.24233 0.71656 0.45257 0.0
C357 C 0.48235 0.92806 0.46457 0.0
C358 C 0.40469 0.81889 0.46812 0.0
H359 H 0.32891 0.75405 0.43101 0.0
C360 C 0.38595 0.79463 0.48688 0.0
C361 C 0.38423 0.80383 0.44766 0.0
C362 C 0.40419 0.82748 0.42667 0.0
C363 C 0.34667 0.75608 0.48579 0.0
C364 C 0.32578 0.74143 0.46542 0.0
C365 C 0.34474 0.76552 0.44666 0.0
C366 C 0.2845 0.70104 0.46295 0.0
C367 C 0.32722 0.73148 0.50646 0.0
C368 C 0.28629 0.67044 0.46614 0.0
C369 C 0.249 0.63297 0.46096 0.0
C370 C 0.20951 0.62564 0.45259 0.0
C371 C 0.20702 0.65588 0.45025 0.0
C372 C 0.24431 0.69335 0.45529 0.0
H373 H 0.34177 0.74899 0.52127 0.0
H374 H 0.28978 0.71447 0.50699 0.0
H375 H 0.33487 0.71096 0.50684 0.0
H376 H 0.3172 0.67581 0.47166 0.0
H377 H 0.25157 0.60996 0.46251 0.0
H378 H 0.48878 0.29213 0.85163 0.0
H379 H 0.5018 0.24712 0.84067 0.0
H380 H 0.64112 0.3421 0.82504 0.0
H381 H 0.62908 0.38724 0.83701 0.0
H382 H 0.52587 0.24097 0.80086 0.0
H383 H 0.65619 0.27249 0.86045 0.0
H384 H 0.62328 0.28918 0.86354 0.0
H385 H 0.67153 0.31443 0.84534 0.0
C386 C 0.5225 0.30349 0.84636 0.0
C387 C 0.5579 0.34341 0.84531 0.0
C388 C 0.52978 0.27768 0.83992 0.0
C389 C 0.57259 0.29114 0.83231 0.0
C390 C 0.60805 0.33092 0.83129 0.0
H391 H 0.67377 0.18538 0.76832 0.0
H392 H 0.66387 0.22987 0.78464 0.0
C393 C 0.60089 0.35676 0.83786 0.0
C394 C 0.57933 0.26365 0.82432 0.0
H395 H 0.6443 0.23419 0.83049 0.0
C396 C 0.55151 0.23928 0.80748 0.0
C397 C 0.61291 0.26151 0.83291 0.0
C398 C 0.64239 0.28553 0.8517 0.0
C399 C 0.55686 0.21338 0.79875 0.0
C400 C 0.59064 0.21151 0.80722 0.0
C401 C 0.61846 0.23576 0.82405 0.0
C402 C 0.59775 0.18473 0.79856 0.0
C403 C 0.527 0.18876 0.7802 0.0
C404 C 0.56426 0.14477 0.80134 0.0
C405 C 0.57006 0.11958 0.79213 0.0
C406 C 0.60945 0.134 0.78011 0.0
C407 C 0.64331 0.1739 0.77767 0.0
C408 C 0.63765 0.19914 0.78696 0.0
H409 H 0.50918 0.19914 0.77265 0.0
H410 H 0.54724 0.1882 0.7674 0.0
H411 H 0.50105 0.15881 0.78645 0.0
H412 H 0.53341 0.13312 0.8104 0.0
H413 H 0.54347 0.08883 0.79393 0.0
H414 H 0.66959 0.85354 0.48791 0.0
H415 H 0.65802 0.79401 0.49769 0.0
H416 H 0.63807 0.80597 0.56504 0.0
H417 H 0.64896 0.86525 0.55528 0.0
H418 H 0.70885 0.7859 0.52429 0.0
H419 H 0.53229 0.69442 0.5561 0.0
H420 H 0.55684 0.73884 0.54079 0.0
H421 H 0.56887 0.73955 0.56933 0.0
C422 C 0.66241 0.84331 0.50478 0.0
C423 C 0.66015 0.86405 0.52083 0.0
C424 C 0.65569 0.80926 0.51034 0.0
C425 C 0.64664 0.79522 0.53206 0.0
C426 C 0.64388 0.81566 0.5481 0.0
H427 H 0.69553 0.63703 0.58167 0.0
H428 H 0.69674 0.69264 0.57511 0.0
C429 C 0.65023 0.8496 0.54251 0.0
C430 C 0.64301 0.76061 0.53803 0.0
H431 H 0.57423 0.67108 0.56257 0.0
C432 C 0.67933 0.76076 0.5326 0.0
C433 C 0.6043 0.72763 0.54868 0.0
C434 C 0.56316 0.72482 0.55388 0.0
C435 C 0.67821 0.72905 0.53763 0.0
C436 C 0.64019 0.69659 0.54893 0.0
C437 C 0.60361 0.69621 0.55418 0.0
C438 C 0.63723 0.66228 0.55472 0.0
C439 C 0.71735 0.73029 0.5303 0.0
C440 C 0.60219 0.62636 0.54634 0.0
C441 C 0.60112 0.59456 0.5504 0.0
C442 C 0.6351 0.59818 0.56286 0.0
C443 C 0.66904 0.63366 0.57201 0.0
C444 C 0.66998 0.66543 0.56807 0.0
H445 H 0.73747 0.75228 0.51702 0.0
H446 H 0.74027 0.73786 0.54426 0.0
H447 H 0.70523 0.7019 0.52446 0.0
H448 H 0.57633 0.62317 0.53617 0.0
H449 H 0.57418 0.56723 0.54355 0.0
H450 H 0.76134 0.62285 0.84044 0.0
H451 H 0.8258 0.62159 0.84134 0.0
H452 H 0.73581 0.50138 0.86037 0.0
H453 H 0.67131 0.50235 0.85916 0.0
H454 H 0.86596 0.60858 0.87235 0.0
H455 H 0.80165 0.49517 0.8125 0.0
H456 H 0.77503 0.51721 0.81673 0.0
H457 H 0.76322 0.47929 0.83503 0.0
C458 C 0.75496 0.59595 0.84469 0.0
C459 C 0.71023 0.56266 0.84957 0.0
C460 C 0.79229 0.59528 0.84526 0.0
C461 C 0.78667 0.56121 0.85052 0.0
C462 C 0.74201 0.52803 0.85563 0.0
H463 H 0.96293 0.49357 0.86914 0.0
H464 H 0.90106 0.49748 0.86379 0.0
C465 C 0.7047 0.5287 0.8551 0.0
C466 C 0.82723 0.56067 0.85114 0.0
H467 H 0.86608 0.51289 0.83276 0.0
C468 C 0.86587 0.58774 0.8635 0.0
C469 C 0.82834 0.53371 0.83975 0.0
C470 C 0.79008 0.50495 0.82508 0.0
C471 C 0.90386 0.58785 0.86534 0.0
C472 C 0.90487 0.56073 0.85405 0.0
C473 C 0.86636 0.5339 0.84153 0.0
C474 C 0.94412 0.5585 0.85572 0.0
C475 C 0.94183 0.61631 0.88022 0.0
C476 C 0.9902 0.59092 0.85225 0.0
C477 C 1.02607 0.58856 0.85526 0.0
C478 C 1.01727 0.55358 0.86161 0.0
C479 C 0.97126 0.52093 0.86402 0.0
C480 C 0.93559 0.52327 0.86106 0.0
H481 H 0.93049 0.62692 0.89237 0.0
H482 H 0.95557 0.60338 0.88913 0.0
H483 H 0.9696 0.64153 0.87034 0.0
H484 H 0.99872 0.61844 0.84746 0.0
H485 H 1.0608 0.61446 0.85352 0.0
H486 H 0.16107 0.62365 0.17192 0.0
H487 H 0.22943 0.69038 0.17427 0.0
H488 H 0.31153 0.65737 0.1566 0.0
H489 H 0.2433 0.59051 0.15399 0.0
H490 H 0.30413 0.71904 0.20164 0.0
H491 H 0.35689 0.74911 0.11431 0.0
H492 H 0.30062 0.70843 0.12327 0.0
H493 H 0.34726 0.70721 0.12665 0.0
C494 C 0.19357 0.63048 0.16841 0.0
C495 C 0.19647 0.60154 0.16267 0.0
C496 C 0.23268 0.66873 0.16976 0.0
C497 C 0.2756 0.67906 0.1653 0.0
C498 C 0.27876 0.6503 0.15966 0.0
H499 H 0.54684 0.90242 0.17322 0.0
H500 H 0.483 0.83499 0.16559 0.0
C501 C 0.23962 0.61197 0.1583 0.0
C502 C 0.31692 0.7197 0.16746 0.0
H503 H 0.4059 0.79843 0.13888 0.0
C504 C 0.32634 0.73638 0.18791 0.0
C505 C 0.3462 0.74223 0.14959 0.0
C506 C 0.33725 0.72607 0.12715 0.0
C507 C 0.36403 0.7749 0.19099 0.0
C508 C 0.39262 0.79782 0.17299 0.0
C509 C 0.38383 0.78096 0.15262 0.0
C510 C 0.43115 0.83948 0.17511 0.0
C511 C 0.37321 0.79051 0.21362 0.0
C512 C 0.42319 0.86476 0.18207 0.0
C513 C 0.45944 0.90295 0.18641 0.0
C514 C 0.50432 0.91677 0.18359 0.0
C515 C 0.51241 0.89229 0.17534 0.0
C516 C 0.47604 0.85387 0.1711 0.0
H517 H 0.35675 0.76707 0.22636 0.0
H518 H 0.41016 0.81073 0.21682 0.0
H519 H 0.35924 0.80628 0.21516 0.0
H520 H 0.38889 0.85463 0.18478 0.0
H521 H 0.45261 0.9215 0.19269 0.0
H522 H 0.5376 0.21521 0.47041 0.0
H523 H 0.54562 0.27137 0.48204 0.0
H524 H 0.68461 0.32665 0.49941 0.0
H525 H 0.67762 0.27146 0.48682 0.0
H526 H 0.56431 0.29983 0.52245 0.0
H527 H 0.69744 0.41197 0.46477 0.0
H528 H 0.66722 0.36126 0.46092 0.0
H529 H 0.71378 0.38678 0.47961 0.0
C530 C 0.57022 0.23965 0.47622 0.0
C531 C 0.60701 0.23878 0.47758 0.0
C532 C 0.57463 0.27163 0.48304 0.0
C533 C 0.61589 0.30349 0.49131 0.0
C534 C 0.65273 0.30281 0.49264 0.0
H535 H 0.70101 0.50678 0.55911 0.0
H536 H 0.69513 0.45441 0.54192 0.0
C537 C 0.64845 0.27093 0.48572 0.0
C538 C 0.61958 0.33641 0.49969 0.0
H539 H 0.68103 0.43407 0.49517 0.0
C540 C 0.58956 0.32912 0.51633 0.0
C541 C 0.65261 0.37467 0.49173 0.0
C542 C 0.68431 0.38417 0.47313 0.0
C543 C 0.59228 0.35909 0.52555 0.0
C544 C 0.62565 0.39731 0.51778 0.0
C545 C 0.65555 0.40469 0.50109 0.0
C546 C 0.63028 0.43 0.52709 0.0
C547 C 0.56014 0.34982 0.54388 0.0
C548 C 0.59619 0.43391 0.52406 0.0
C549 C 0.59964 0.46374 0.53379 0.0
C550 C 0.63717 0.49001 0.54668 0.0
C551 C 0.67175 0.48662 0.54929 0.0
C552 C 0.66844 0.45692 0.53947 0.0
H553 H 0.54232 0.32013 0.55073 0.0
H554 H 0.57861 0.37044 0.5572 0.0
H555 H 0.53426 0.35241 0.53764 0.0
H556 H 0.56669 0.4136 0.51439 0.0
H557 H 0.57256 0.46583 0.53173 0.0
H558 H 0.42534 0.50295 0.86956 0.0
H559 H 0.36033 0.50314 0.87169 0.0
H560 H 0.44108 0.61741 0.84256 0.0
H561 H 0.50598 0.61708 0.84007 0.0
H562 H 0.34237 0.54382 0.89269 0.0
H563 H 0.3325 0.57105 0.80509 0.0
H564 H 0.36827 0.55944 0.81495 0.0
H565 H 0.38661 0.60772 0.81655 0.0
C566 C 0.42949 0.52818 0.86344 0.0
C567 C 0.47172 0.5599 0.85448 0.0
C568 C 0.39185 0.52829 0.86472 0.0
C569 C 0.39432 0.55996 0.85693 0.0
C570 C 0.43672 0.59189 0.8482 0.0
H571 H 0.19549 0.60924 0.85412 0.0
H572 H 0.26279 0.61202 0.85014 0.0
C573 C 0.47444 0.59182 0.84694 0.0
C574 C 0.35323 0.55969 0.85851 0.0
H575 H 0.28543 0.57376 0.82904 0.0
C576 C 0.33005 0.55022 0.87863 0.0
C577 C 0.33613 0.5682 0.84047 0.0
C578 C 0.35683 0.57681 0.818 0.0
C579 C 0.29192 0.5496 0.88127 0.0
C580 C 0.27448 0.55767 0.86318 0.0
C581 C 0.29786 0.56746 0.84309 0.0
C582 C 0.23211 0.5556 0.86478 0.0
C583 C 0.27163 0.54137 0.90382 0.0
C584 C 0.19081 0.52271 0.8737 0.0
C585 C 0.15216 0.52111 0.8759 0.0
C586 C 0.15258 0.55212 0.86908 0.0
C587 C 0.19327 0.58458 0.85944 0.0
C588 C 0.23215 0.58622 0.85727 0.0
H589 H 0.29669 0.5485 0.91664 0.0
H590 H 0.259 0.55792 0.90664 0.0
H591 H 0.24281 0.51024 0.90573 0.0
H592 H 0.18819 0.49785 0.879 0.0
H593 H 0.12156 0.49528 0.88301 0.0
H594 H 0.99378 0.3408 0.14137 0.0
H595 H 0.9262 0.27306 0.14496 0.0
H596 H 0.85096 0.30757 0.17147 0.0
H597 H 0.91734 0.37476 0.16757 0.0
H598 H 0.87956 0.23199 0.18255 0.0
H599 H 0.76386 0.23291 0.12639 0.0
H600 H 0.82415 0.27156 0.12649 0.0
H601 H 0.78757 0.26938 0.14631 0.0
C602 C 0.96263 0.33399 0.14762 0.0
C603 C 0.96119 0.36341 0.15411 0.0
C604 C 0.92405 0.29522 0.14974 0.0
C605 C 0.88318 0.28511 0.15821 0.0
C606 C 0.88162 0.31449 0.16443 0.0
H607 H 0.62102 0.08147 0.2028 0.0
H608 H 0.69004 0.1467 0.19356 0.0
C609 C 0.91995 0.35307 0.16231 0.0
C610 C 0.84281 0.244 0.16179 0.0
H611 H 0.72924 0.17925 0.15176 0.0
C612 C 0.84683 0.2203 0.17557 0.0
C613 C 0.79995 0.22869 0.15278 0.0
C614 C 0.79364 0.25185 0.137 0.0
C615 C 0.80899 0.18231 0.1812 0.0
C616 C 0.766 0.16733 0.17256 0.0
C617 C 0.76212 0.19077 0.15847 0.0
C618 C 0.72445 0.12769 0.17828 0.0
C619 C 0.81501 0.15896 0.19697 0.0
C620 C 0.72064 0.09529 0.17266 0.0
C621 C 0.6813 0.05811 0.17799 0.0
C622 C 0.64499 0.05266 0.18894 0.0
C623 C 0.64874 0.08503 0.1945 0.0
C624 C 0.688 0.12219 0.18913 0.0
H625 H 0.84744 0.17731 0.20594 0.0
H626 H 0.78661 0.14271 0.20899 0.0
H627 H 0.81523 0.13788 0.1878 0.0
H628 H 0.74799 0.09874 0.16401 0.0
H629 H 0.67927 0.03357 0.17371 0.0
H630 H 1.00492 0.4879 0.08679 0.0
H631 H 1.02108 0.49465 0.04763 0.0
H632 H 0.14131 0.50518 0.06091 0.0
H633 H 0.12461 0.49789 0.10002 0.0
H634 H 0.09329 0.55514 0.02589 0.0
H635 H 0.08447 0.42706 0.01351 0.0
H636 H 0.06382 0.43319 0.03805 0.0
H637 H 0.12353 0.45829 0.03414 0.0
C638 C 1.03443 0.49107 0.08132 0.0
C639 C 1.06311 0.49159 0.09646 0.0
C640 C 1.0437 0.49501 0.05894 0.0
C641 C 0.08206 0.49982 0.05121 0.0
C642 C 0.1108 0.50037 0.06635 0.0
H643 H 0.16578 0.58907 0.91594 0.0
H644 H 0.17371 0.58018 0.95505 0.0
C645 C 0.10122 0.49609 0.08875 0.0
C646 C 0.09293 0.50635 0.02742 0.0
H647 H 0.10841 0.47032 0.98322 0.0
C648 C 0.09682 0.5367 0.01658 0.0
C649 C 0.0974 0.48219 0.01525 0.0
C650 C 0.09171 0.44813 0.02575 0.0
C651 C 0.10388 0.54303 0.99392 0.0
C652 C 0.10859 0.51902 0.98173 0.0
C653 C 0.10558 0.48909 0.99261 0.0
C654 C 0.11104 0.52182 0.95747 0.0
C655 C 0.10393 0.57421 0.98315 0.0
C656 C 0.07543 0.491 0.94552 0.0
C657 C 0.07157 0.4959 0.92324 0.0
C658 C 0.10313 0.53165 0.91255 0.0
C659 C 0.14126 0.56125 0.92392 0.0
C660 C 0.14536 0.5563 0.94626 0.0
H661 H 0.09032 0.58441 0.99415 0.0
H662 H 0.13921 0.59919 0.9786 0.0
H663 H 0.08338 0.56383 0.96808 0.0
H664 H 1.0487 0.46406 0.95372 0.0
H665 H 1.04187 0.47284 0.91468 0.0
H666 H 0.73458 0.08195 0.40935 0.0
H667 H 0.72799 0.08366 0.36963 0.0
H668 H 0.59022 0.04226 0.37689 0.0
H669 H 0.59648 0.04022 0.41672 0.0
H670 H 0.65771 0.0148 0.34568 0.0
H671 H 0.65278 0.1369 0.33205 0.0
H672 H 0.67701 0.13185 0.35619 0.0
H673 H 0.6166 0.10235 0.35341 0.0
C674 C 0.70303 0.07358 0.40249 0.0
C675 C 0.66595 0.06077 0.41608 0.0
C676 C 0.69937 0.07463 0.37983 0.0
C677 C 0.6588 0.06345 0.37037 0.0
C678 C 0.62203 0.05154 0.38391 0.0
H679 H 0.54296 0.01569 0.24292 0.0
H680 H 0.56651 0.03612 0.2805 0.0
C681 C 0.62556 0.05018 0.40661 0.0
C682 C 0.65378 0.06116 0.34636 0.0
H683 H 0.63681 0.09865 0.30164 0.0
C684 C 0.65359 0.03334 0.33597 0.0
C685 C 0.64808 0.08525 0.33388 0.0
C686 C 0.64889 0.11602 0.34434 0.0
C687 C 0.64643 0.02807 0.31346 0.0
C688 C 0.64081 0.05222 0.30085 0.0
C689 C 0.6416 0.08044 0.31125 0.0
C690 C 0.63059 0.04643 0.27719 0.0
C691 C 0.6429 0.99549 0.30361 0.0
C692 C 0.65976 0.04736 0.26251 0.0
C693 C 0.64595 0.03516 0.24115 0.0
C694 C 0.60314 0.02246 0.23413 0.0
C695 C 0.57587 0.02495 0.24818 0.0
C696 C 0.58938 0.0367 0.26957 0.0
H697 H 0.63667 0.97409 0.31624 0.0
H698 H 0.6151 0.98037 0.29156 0.0
H699 H 0.67519 1.00721 0.29511 0.0
H700 H 0.69225 0.05576 0.26787 0.0
H701 H 0.66746 0.03346 0.23054 0.0
H702 H 0.5094 0.52026 0.77957 0.0
H703 H 0.52297 0.53101 0.74015 0.0
H704 H 0.6668 0.59729 0.75057 0.0
H705 H 0.65344 0.58776 0.79015 0.0
H706 H 0.64856 0.62843 0.71735 0.0
H707 H 0.5518 0.4719 0.70635 0.0
H708 H 0.51886 0.48329 0.71908 0.0
H709 H 0.56728 0.49277 0.73288 0.0
C710 C 0.54393 0.53741 0.77343 0.0
C711 C 0.58032 0.55272 0.78782 0.0
C712 C 0.55163 0.54337 0.75093 0.0
C713 C 0.59578 0.56404 0.74238 0.0
C714 C 0.63242 0.58096 0.75679 0.0
H715 H 0.70425 0.58166 0.6154 0.0
H716 H 0.69508 0.59029 0.65382 0.0
C717 C 0.62476 0.57545 0.77937 0.0
C718 C 0.60342 0.56643 0.71848 0.0
H719 H 0.57476 0.51099 0.67414 0.0
C720 C 0.63248 0.60277 0.7079 0.0
C721 C 0.58278 0.53289 0.70619 0.0
C722 C 0.55383 0.49303 0.71672 0.0
C723 C 0.64083 0.60636 0.6853 0.0
C724 C 0.61948 0.57283 0.67309 0.0
C725 C 0.59052 0.5366 0.68361 0.0
C726 C 0.62817 0.57428 0.6495 0.0
C727 C 0.67217 0.64579 0.67451 0.0
C728 C 0.59389 0.56309 0.63442 0.0
C729 C 0.59931 0.55846 0.61256 0.0
C730 C 0.63872 0.56439 0.60566 0.0
C731 C 0.67373 0.5771 0.62054 0.0
C732 C 0.66854 0.58211 0.64234 0.0
H733 H 0.68148 0.66889 0.68567 0.0
H734 H 0.70368 0.65091 0.66914 0.0
H735 H 0.65604 0.6476 0.65977 0.0
H736 H 0.56233 0.55655 0.63974 0.0
H737 H 0.57187 0.54828 0.60128 0.0
H738 H 0.55216 0.02456 0.54497 0.0
H739 H 0.55915 0.02269 0.58457 0.0
H740 H 0.70175 0.07836 0.57721 0.0
H741 H 0.6951 0.08102 0.53743 0.0
H742 H 0.58851 0.98996 0.61162 0.0
H743 H 0.70025 0.14927 0.61767 0.0
H744 H 0.66965 0.12531 0.59319 0.0
H745 H 0.72007 0.1309 0.59992 0.0
C746 C 0.585 0.03633 0.55178 0.0
C747 C 0.62318 0.05325 0.53817 0.0
C748 C 0.5889 0.0351 0.5744 0.0
C749 C 0.63106 0.05084 0.58386 0.0
C750 C 0.66905 0.06665 0.57026 0.0
H751 H 0.69136 0.09368 0.7234 0.0
H752 H 0.69852 0.08303 0.68502 0.0
C753 C 0.66517 0.06797 0.54757 0.0
C754 C 0.635 0.05175 0.60797 0.0
H755 H 0.67944 0.11295 0.65042 0.0
C756 C 0.60875 0.01684 0.62012 0.0
C757 C 0.66153 0.08685 0.61903 0.0
C758 C 0.68925 0.12528 0.60687 0.0
C759 C 0.60747 0.01611 0.64303 0.0
C760 C 0.6326 0.05122 0.65403 0.0
C761 C 0.66029 0.08606 0.64193 0.0
C762 C 0.62752 0.05281 0.67782 0.0
C763 C 0.57884 0.97779 0.65524 0.0
C764 C 0.58525 0.03894 0.68652 0.0
C765 C 0.58137 0.0451 0.70826 0.0
C766 C 0.61966 0.06533 0.72157 0.0
C767 C 0.66154 0.07784 0.71326 0.0
C768 C 0.66555 0.07184 0.69144 0.0
H769 H 0.57372 0.95471 0.64546 0.0
H770 H 0.59453 0.97906 0.671 0.0
H771 H 0.54501 0.96981 0.65873 0.0
H772 H 0.55566 0.02492 0.67624 0.0
H773 H 0.54893 0.03552 0.71453 0.0
H774 H 0.67614 0.60434 0.91909 0.0
H775 H 0.66433 0.58253 0.95739 0.0
H776 H 0.5202 0.50152 0.9468 0.0
H777 H 0.53196 0.52265 0.90838 0.0
H778 H 0.61571 0.58781 0.98709 0.0
H779 H 0.54387 0.43507 0.98023 0.0
H780 H 0.57204 0.46959 0.9577 0.0
H781 H 0.51416 0.4479 0.96453 0.0
C782 C 0.64201 0.5816 0.92491 0.0
C783 C 0.60494 0.56523 0.91086 0.0
C784 C 0.63531 0.56913 0.94674 0.0
C785 C 0.59146 0.54004 0.95488 0.0
C786 C 0.55442 0.52334 0.94077 0.0
H787 H 0.4817 0.47033 0.0862 0.0
H788 H 0.49147 0.47596 0.04626 0.0
C789 C 0.56113 0.53568 0.91889 0.0
C790 C 0.58432 0.52951 0.97848 0.0
H791 H 0.53892 0.45426 0.01534 0.0
C792 C 0.59927 0.55867 0.99325 0.0
C793 C 0.56266 0.4914 0.98647 0.0
C794 C 0.54762 0.45924 0.97143 0.0
C795 C 0.59261 0.55072 0.01576 0.0
C796 C 0.57071 0.51266 0.02372 0.0
C797 C 0.55569 0.48339 0.00906 0.0
C798 C 0.56312 0.50327 0.04734 0.0
C799 C 0.60839 0.58293 0.03094 0.0
C800 C 0.59987 0.51571 0.06094 0.0
C801 C 0.59427 0.51252 0.08357 0.0
C802 C 0.55188 0.49683 0.09284 0.0
C803 C 0.51458 0.48247 0.07923 0.0
C804 C 0.52013 0.48558 0.05657 0.0
H805 H 0.61843 0.60942 0.02201 0.0
H806 H 0.58126 0.57391 0.04293 0.0
H807 H 0.63813 0.58997 0.04019 0.0
H808 H 0.63329 0.52952 0.05404 0.0
H809 H 0.62352 0.52426 0.09384 0.0
H810 H 0.11119 0.52593 0.21905 0.0
H811 H 0.10634 0.52823 0.2586 0.0
H812 H 1.03205 0.40526 0.2642 0.0
H813 H 1.03975 0.40345 0.22472 0.0
H814 H 1.0434 0.50043 0.28745 0.0
H815 H 0.13019 0.437 0.30537 0.0
H816 H 0.12522 0.44999 0.27804 0.0
H817 H 0.07825 0.40546 0.2909 0.0
C818 C 0.09377 0.49942 0.22876 0.0
C819 C 0.0765 0.46461 0.21899 0.0
C820 C 0.09089 0.50069 0.25136 0.0
C821 C 0.06991 0.46706 0.26456 0.0
C822 C 1.04995 0.43183 0.25455 0.0
H823 H 1.04833 0.50017 0.40417 0.0
H824 H 1.02426 0.47337 0.36762 0.0
C825 C 1.05397 0.43073 0.23199 0.0
C826 C 0.07055 0.46955 0.28874 0.0
H827 H 0.10494 0.45081 0.3355 0.0
C828 C 1.05676 0.48949 0.29798 0.0
C829 C 0.08823 0.45546 0.30251 0.0
C830 C 0.10673 0.43613 0.29371 0.0
C831 C 1.06193 0.4972 0.32032 0.0
C832 C 0.07942 0.48295 0.33409 0.0
C833 C 0.09125 0.4615 0.32501 0.0
C834 C 0.09106 0.49388 0.35728 0.0
C835 C 1.0511 0.52248 0.32858 0.0
C836 C 0.13561 0.51171 0.36423 0.0
C837 C 0.14871 0.52556 0.38525 0.0
C838 C 0.1179 0.52262 0.39963 0.0
C839 C 0.07269 0.50294 0.39324 0.0
C840 C 1.0592 0.48822 0.37228 0.0
H841 H 1.04895 0.53859 0.31507 0.0
H842 H 1.0178 0.50429 0.33716 0.0
H843 H 0.07718 0.54357 0.34019 0.0
H844 H 0.16081 0.51615 0.35314 0.0
H845 H 0.18346 0.53986 0.39007 0.0
loop_
_geom_bond_atom_site_label_1
_geom_bond_atom_site_label_2
_geom_bond_distance
_geom_bond_site_symmetry_2
_ccdc_geom_bond_type
Ho0 C3 2.811 . S
Ho0 O20 2.322 . S
Ho0 O22 2.378 . S
Ho0 O23 2.524 . S
Ho0 O24 2.381 . S
Ho0 O25 2.669 1_455 S
Ho0 O27 2.346 1_455 S
Ho0 O31 2.305 . S
Ho1 C12 2.811 . S
Ho1 O21 2.346 1_655 S
Ho1 O25 2.305 . S
Ho1 O26 2.322 . S
Ho1 O28 2.378 . S
Ho1 O29 2.524 . S
Ho1 O30 2.381 . S
Ho1 O31 2.669 1_655 S
C2 O20 1.259 . S
C2 O21 1.268 . S
C3 Ho0 2.811 . S
C3 C4 1.488 . S
C3 O22 1.215 . S
C3 O23 1.289 . S
C4 C3 1.488 . S
C4 C5 1.348 . S
C4 C9 1.413 . S
C5 C4 1.348 . S
C5 C6 1.442 . S
C5 H32 0.930 . S
C6 C5 1.442 . S
C6 C7 1.381 . S
C6 H33 0.931 . S
C7 C6 1.381 . S
C7 C8 1.321 . S
C8 C7 1.321 . S
C8 C9 1.403 . S
C8 H34 0.934 . S
C9 C4 1.413 . S
C9 C8 1.403 . S
C9 H35 0.930 . S
C10 O24 1.276 1_655 S
C10 O25 1.256 . S
C11 O26 1.259 . S
C11 O27 1.268 . S
C12 Ho1 2.811 . S
C12 C13 1.488 . S
C12 O28 1.215 . S
C12 O29 1.289 . S
C13 C12 1.488 . S
C13 C14 1.348 . S
C13 C18 1.413 . S
C14 C13 1.348 . S
C14 C15 1.442 . S
C14 H36 0.930 . S
C15 C14 1.442 . S
C15 C16 1.381 . S
C15 H37 0.931 . S
C16 C15 1.381 . S
C16 C17 1.321 . S
C17 C16 1.321 . S
C17 C18 1.403 . S
C17 H38 0.934 . S
C18 C13 1.413 . S
C18 C17 1.403 . S
C18 H39 0.930 . S
C19 O30 1.275 1_455 S
C19 O31 1.256 . S
O20 Ho0 2.322 . S
O20 C2 1.259 . S
O21 Ho1 2.346 1_455 S
O21 C2 1.268 . S
O22 Ho0 2.378 . S
O22 C3 1.215 . S
O23 Ho0 2.524 . S
O23 C3 1.289 . S
O24 Ho0 2.381 . S
O24 C10 1.276 1_455 S
O25 Ho0 2.669 1_655 S
O25 Ho1 2.305 . S
O25 C10 1.256 . S
O26 Ho1 2.322 . S
O26 C11 1.259 . S
O27 Ho0 2.346 1_655 S
O27 C11 1.268 . S
O28 Ho1 2.378 . S
O28 C12 1.215 . S
O29 Ho1 2.524 . S
O29 C12 1.289 . S
O30 Ho1 2.381 . S
O30 C19 1.275 1_655 S
O31 Ho0 2.305 . S
O31 Ho1 2.669 1_455 S
O31 C19 1.256 . S
H32 C5 0.930 . S
H33 C6 0.931 . S
H34 C8 0.934 . S
H35 C9 0.930 . S
H36 C14 0.930 . S
H37 C15 0.931 . S
H38 C17 0.934 . S
H39 C18 0.930 . S
Ho40 C43 2.811 1_545 S
Ho40 O60 2.322 1_545 S
Ho40 O62 2.378 1_545 S
Ho40 O63 2.524 1_545 S
Ho40 O64 2.381 . S
Ho40 O65 2.669 . S
Ho40 O67 2.346 . S
Ho40 O71 2.305 . S
Ho41 C52 2.811 . S
Ho41 O61 2.346 1_545 S
Ho41 O65 2.305 . S
Ho41 O66 2.322 . S
Ho41 O68 2.378 . S
Ho41 O69 2.524 . S
Ho41 O70 2.381 . S
Ho41 O71 2.669 . S
C42 O60 1.259 . S
C42 O61 1.268 . S
C43 Ho40 2.811 1_565 S
C43 C44 1.488 . S
C43 O62 1.215 . S
C43 O63 1.289 . S
C44 C43 1.488 . S
C44 C45 1.348 . S
C44 C49 1.413 . S
C45 C44 1.348 . S
C45 C46 1.442 . S
C45 H72 0.930 . S
C46 C45 1.442 . S
C46 C47 1.381 . S
C46 H73 0.931 . S
C47 C46 1.381 . S
C47 C48 1.321 . S
C48 C47 1.321 . S
C48 C49 1.403 . S
C48 H74 0.934 . S
C49 C44 1.413 . S
C49 C48 1.403 . S
C49 H75 0.930 . S
C50 O64 1.275 . S
C50 O65 1.256 . S
C51 O66 1.259 . S
C51 O67 1.268 . S
C52 Ho41 2.811 . S
C52 C53 1.488 . S
C52 O68 1.215 . S
C52 O69 1.289 . S
C53 C52 1.488 . S
C53 C54 1.348 . S
C53 C58 1.413 . S
C54 C53 1.348 . S
C54 C55 1.442 . S
C54 H76 0.930 . S
C55 C54 1.442 . S
C55 C56 1.381 . S
C55 H77 0.931 . S
C56 C55 1.381 . S
C56 C57 1.321 . S
C57 C56 1.321 . S
C57 C58 1.403 . S
C57 H78 0.934 . S
C58 C53 1.413 . S
C58 C57 1.403 . S
C58 H79 0.930 . S
C59 O70 1.275 . S
C59 O71 1.256 . S
O60 Ho40 2.322 1_565 S
O60 C42 1.259 . S
O61 Ho41 2.346 1_565 S
O61 C42 1.268 . S
O62 Ho40 2.378 1_565 S
O62 C43 1.215 . S
O63 Ho40 2.524 1_565 S
O63 C43 1.289 . S
O64 Ho40 2.381 . S
O64 C50 1.275 . S
O65 Ho40 2.669 . S
O65 Ho41 2.305 . S
O65 C50 1.256 . S
O66 Ho41 2.322 . S
O66 C51 1.259 . S
O67 Ho40 2.346 . S
O67 C51 1.268 . S
O68 Ho41 2.378 . S
O68 C52 1.215 . S
O69 Ho41 2.524 . S
O69 C52 1.289 . S
O70 Ho41 2.381 . S
O70 C59 1.275 . S
O71 Ho40 2.305 . S
O71 Ho41 2.669 . S
O71 C59 1.256 . S
H72 C45 0.930 . S
H73 C46 0.931 . S
H74 C48 0.934 . S
H75 C49 0.930 . S
H76 C54 0.930 . S
H77 C55 0.931 . S
H78 C57 0.934 . S
H79 C58 0.930 . S
Ho80 C83 2.811 . S
Ho80 O100 2.322 . S
Ho80 O102 2.378 . S
Ho80 O103 2.524 . S
Ho80 O104 2.381 . S
Ho80 O105 2.669 . S
Ho80 O107 2.346 . S
Ho80 O111 2.305 . S
Ho81 C92 2.811 . S
Ho81 O101 2.346 . S
Ho81 O105 2.305 . S
Ho81 O106 2.322 . S
Ho81 O108 2.378 . S
Ho81 O109 2.524 . S
Ho81 O110 2.381 . S
Ho81 O111 2.669 . S
C82 O100 1.259 . S
C82 O101 1.268 . S
C83 Ho80 2.811 . S
C83 C84 1.488 . S
C83 O102 1.215 . S
C83 O103 1.289 . S
C84 C83 1.488 . S
C84 C85 1.348 . S
C84 C89 1.413 . S
C85 C84 1.348 . S
C85 C86 1.442 . S
C85 H112 0.930 . S
C86 C85 1.442 . S
C86 C87 1.381 . S
C86 H113 0.931 . S
C87 C86 1.381 . S
C87 C88 1.321 . S
C88 C87 1.321 . S
C88 C89 1.403 . S
C88 H114 0.934 . S
C89 C84 1.413 . S
C89 C88 1.403 . S
C89 H115 0.930 . S
C90 O104 1.275 . S
C90 O105 1.256 . S
C91 O106 1.259 . S
C91 O107 1.268 . S
C92 Ho81 2.811 . S
C92 C93 1.488 . S
C92 O108 1.215 . S
C92 O109 1.289 . S
C93 C92 1.488 . S
C93 C94 1.348 . S
C93 C98 1.413 . S
C94 C93 1.348 . S
C94 C95 1.442 . S
C94 H116 0.930 . S
C95 C94 1.442 . S
C95 C96 1.381 . S
C95 H117 0.931 . S
C96 C95 1.381 . S
C96 C97 1.321 . S
C97 C96 1.321 . S
C97 C98 1.403 . S
C97 H118 0.934 . S
C98 C93 1.413 . S
C98 C97 1.403 . S
C98 H119 0.930 . S
C99 O110 1.275 . S
C99 O111 1.256 . S
O100 Ho80 2.322 . S
O100 C82 1.259 . S
O101 Ho81 2.346 . S
O101 C82 1.268 . S
O102 Ho80 2.378 . S
O102 C83 1.215 . S
O103 Ho80 2.524 . S
O103 C83 1.289 . S
O104 Ho80 2.381 . S
O104 C90 1.275 . S
O105 Ho80 2.669 . S
O105 Ho81 2.305 . S
O105 C90 1.256 . S
O106 Ho81 2.322 . S
O106 C91 1.259 . S
O107 Ho80 2.346 . S
O107 C91 1.268 . S
O108 Ho81 2.378 . S
O108 C92 1.215 . S
O109 Ho81 2.524 . S
O109 C92 1.289 . S
O110 Ho81 2.381 . S
O110 C99 1.275 . S
O111 Ho80 2.305 . S
O111 Ho81 2.669 . S
O111 C99 1.256 . S
H112 C85 0.930 . S
H113 C86 0.931 . S
H114 C88 0.934 . S
H115 C89 0.930 . S
H116 C94 0.930 . S
H117 C95 0.931 . S
H118 C97 0.934 . S
H119 C98 0.930 . S
C120 N121 1.317 1_565 S
C120 N122 1.348 . S
C120 C123 1.485 1_565 S
N121 C120 1.317 1_545 S
N121 N125 1.370 . S
N122 C120 1.348 . S
N122 C124 1.346 . S
C123 C120 1.485 1_545 S
C123 H127 0.960 . S
C123 H128 0.961 1_545 S
C123 H129 0.960 . S
C124 N122 1.346 . S
C124 N125 1.307 1_565 S
C124 C126 1.486 . S
N125 N121 1.370 . S
N125 C124 1.307 1_545 S
C126 C124 1.486 . S
C126 H130 0.960 . S
C126 H131 0.960 . S
C126 H132 0.959 . S
H127 C123 0.960 . S
H128 C123 0.961 1_565 S
H129 C123 0.960 . S
H130 C126 0.960 . S
H131 C126 0.960 . S
H132 C126 0.959 . S
C133 N134 1.317 . S
C133 N135 1.348 . S
C133 C136 1.485 . S
N134 C133 1.317 . S
N134 N138 1.370 . S
N135 C133 1.348 . S
N135 C137 1.346 . S
C136 C133 1.485 . S
C136 H140 0.960 . S
C136 H141 0.961 . S
C136 H142 0.960 . S
C137 N135 1.346 . S
C137 N138 1.307 . S
C137 C139 1.486 . S
N138 N134 1.370 . S
N138 C137 1.307 . S
C139 C137 1.486 . S
C139 H143 0.960 . S
C139 H144 0.960 . S
C139 H145 0.959 . S
H140 C136 0.960 . S
H141 C136 0.961 . S
H142 C136 0.960 . S
H143 C139 0.960 . S
H144 C139 0.960 . S
H145 C139 0.959 . S
C146 N147 1.317 . S
C146 N148 1.348 . S
C146 C149 1.485 . S
N147 C146 1.317 . S
N147 N151 1.370 . S
N148 C146 1.348 . S
N148 C150 1.346 . S
C149 C146 1.485 . S
C149 H153 0.960 . S
C149 H154 0.961 . S
C149 H155 0.960 . S
C150 N148 1.346 . S
C150 N151 1.307 . S
C150 C152 1.486 1_455 S
N151 N147 1.370 . S
N151 C150 1.307 . S
C152 C150 1.486 1_655 S
C152 H156 0.960 . S
C152 H157 0.960 . S
C152 H158 0.959 1_655 S
H153 C149 0.960 . S
H154 C149 0.961 . S
H155 C149 0.960 . S
H156 C152 0.960 . S
H157 C152 0.960 . S
H158 C152 0.959 1_455 S
C159 N160 1.317 . S
C159 N161 1.348 . S
C159 C162 1.485 . S
N160 C159 1.317 . S
N160 N164 1.370 . S
N161 C159 1.348 . S
N161 C163 1.346 . S
C162 C159 1.485 . S
C162 H166 0.960 . S
C162 H167 0.961 . S
C162 H168 0.960 . S
C163 N161 1.346 . S
C163 N164 1.307 . S
C163 C165 1.486 . S
N164 N160 1.370 . S
N164 C163 1.307 . S
C165 C163 1.486 . S
C165 H169 0.960 . S
C165 H170 0.960 . S
C165 H171 0.959 . S
H166 C162 0.960 . S
H167 C162 0.961 . S
H168 C162 0.960 . S
H169 C165 0.960 . S
H170 C165 0.960 . S
H171 C165 0.959 . S
C172 N173 1.317 . S
C172 N174 1.348 . S
C172 C175 1.485 . S
N173 C172 1.317 . S
N173 N177 1.370 . S
N174 C172 1.348 . S
N174 C176 1.346 . S
C175 C172 1.485 . S
C175 H179 0.960 . S
C175 H180 0.961 . S
C175 H181 0.960 . S
C176 N174 1.346 . S
C176 N177 1.307 . S
C176 C178 1.486 . S
N177 N173 1.370 . S
N177 C176 1.307 . S
C178 C176 1.486 . S
C178 H182 0.960 . S
C178 H183 0.960 . S
C178 H184 0.959 . S
H179 C175 0.960 . S
H180 C175 0.961 . S
H181 C175 0.960 . S
H182 C178 0.960 . S
H183 C178 0.960 . S
H184 C178 0.959 . S
C185 N186 1.317 . S
C185 N187 1.348 . S
C185 C188 1.485 . S
N186 C185 1.317 . S
N186 N190 1.370 . S
N187 C185 1.348 . S
N187 C189 1.346 . S
C188 C185 1.485 . S
C188 H192 0.960 . S
C188 H193 0.961 . S
C188 H194 0.960 . S
C189 N187 1.346 . S
C189 N190 1.307 . S
C189 C191 1.486 . S
N190 N186 1.370 . S
N190 C189 1.307 . S
C191 C189 1.486 . S
C191 H195 0.960 . S
C191 H196 0.960 . S
C191 H197 0.959 . S
H192 C188 0.960 . S
H193 C188 0.961 . S
H194 C188 0.960 . S
H195 C191 0.960 . S
H196 C191 0.960 . S
H197 C191 0.959 . S
H198 C206 0.929 . S
H199 C208 0.930 . S
H200 C210 0.930 . S
H201 C213 0.929 . S
H202 C216 0.930 . S
H203 C218 0.960 . S
H204 C218 0.960 . S
H205 C218 0.960 . S
C206 H198 0.929 . S
C206 C207 1.377 . S
C206 C208 1.384 . S
C207 C206 1.377 . S
C207 C213 1.390 . S
C208 H199 0.930 . S
C208 C206 1.384 . S
C208 C209 1.372 . S
C209 C208 1.372 . S
C209 C210 1.400 . S
C209 C214 1.490 . S
C210 H200 0.930 . S
C210 C209 1.400 . S
C210 C213 1.386 . S
H211 C227 0.930 . S
H212 C228 0.931 . S
C213 H201 0.929 . S
C213 C207 1.390 . S
C213 C210 1.386 . S
C214 C209 1.490 . S
C214 C216 1.395 . S
C214 C217 1.403 . S
H215 C221 0.930 . S
C216 H202 0.930 . S
C216 C214 1.395 . S
C216 C219 1.403 . S
C217 C214 1.403 . S
C217 C218 1.524 . S
C217 C221 1.400 . S
C218 H203 0.960 . S
C218 H204 0.960 . S
C218 H205 0.960 . S
C218 C217 1.524 . S
C219 C216 1.403 . S
C219 C220 1.392 . S
C219 C223 1.495 . S
C220 C219 1.392 . S
C220 C221 1.385 . S
C220 C222 1.478 . S
C221 H215 0.930 . S
C221 C217 1.400 . S
C221 C220 1.385 . S
C222 C220 1.478 . S
C222 C224 1.381 . S
C222 C228 1.383 . S
C223 C219 1.495 . S
C223 H229 0.959 . S
C223 H230 0.961 . S
C223 H231 0.960 . S
C224 C222 1.381 . S
C224 C225 1.394 . S
C224 H232 0.930 . S
C225 C224 1.394 . S
C225 C226 1.383 . S
C225 H233 0.929 . S
C226 C225 1.383 . S
C226 C227 1.377 . S
C227 H211 0.930 . S
C227 C226 1.377 . S
C227 C228 1.379 . S
C228 H212 0.931 . S
C228 C222 1.383 . S
C228 C227 1.379 . S
H229 C223 0.959 . S
H230 C223 0.961 . S
H231 C223 0.960 . S
H232 C224 0.930 . S
H233 C225 0.929 . S
H234 C242 0.929 . S
H235 C244 0.930 . S
H236 C246 0.930 . S
H237 C249 0.929 . S
H238 C252 0.930 . S
H239 C254 0.960 . S
H240 C254 0.960 . S
H241 C254 0.960 . S
C242 H234 0.929 . S
C242 C243 1.377 . S
C242 C244 1.384 . S
C243 C242 1.377 . S
C243 C249 1.390 . S
C244 H235 0.930 . S
C244 C242 1.384 . S
C244 C245 1.372 . S
C245 C244 1.372 . S
C245 C246 1.400 . S
C245 C250 1.490 . S
C246 H236 0.930 . S
C246 C245 1.400 . S
C246 C249 1.386 . S
H247 C263 0.930 . S
H248 C264 0.931 . S
C249 H237 0.929 . S
C249 C243 1.390 . S
C249 C246 1.386 . S
C250 C245 1.490 . S
C250 C252 1.395 . S
C250 C253 1.403 . S
H251 C257 0.930 . S
C252 H238 0.930 . S
C252 C250 1.395 . S
C252 C255 1.403 . S
C253 C250 1.403 . S
C253 C254 1.524 . S
C253 C257 1.400 . S
C254 H239 0.960 . S
C254 H240 0.960 . S
C254 H241 0.960 . S
C254 C253 1.524 . S
C255 C252 1.403 . S
C255 C256 1.392 . S
C255 C259 1.495 . S
C256 C255 1.392 . S
C256 C257 1.385 . S
C256 C258 1.478 . S
C257 H251 0.930 . S
C257 C253 1.400 . S
C257 C256 1.385 . S
C258 C256 1.478 . S
C258 C260 1.381 . S
C258 C264 1.383 . S
C259 C255 1.495 . S
C259 H265 0.959 . S
C259 H266 0.961 . S
C259 H267 0.960 . S
C260 C258 1.381 . S
C260 C261 1.394 . S
C260 H268 0.930 . S
C261 C260 1.394 . S
C261 C262 1.383 . S
C261 H269 0.929 . S
C262 C261 1.383 . S
C262 C263 1.377 . S
C263 H247 0.930 . S
C263 C262 1.377 . S
C263 C264 1.379 . S
C264 H248 0.931 . S
C264 C258 1.383 . S
C264 C263 1.379 . S
H265 C259 0.959 . S
H266 C259 0.961 . S
H267 C259 0.960 . S
H268 C260 0.930 . S
H269 C261 0.929 . S
H270 C278 0.929 . S
H271 C280 0.930 . S
H272 C282 0.930 . S
H273 C285 0.929 . S
H274 C288 0.930 . S
H275 C290 0.960 . S
H276 C290 0.960 . S
H277 C290 0.960 . S
C278 H270 0.929 . S
C278 C279 1.377 . S
C278 C280 1.384 . S
C279 C278 1.377 . S
C279 C285 1.390 . S
C280 H271 0.930 . S
C280 C278 1.384 . S
C280 C281 1.372 . S
C281 C280 1.372 . S
C281 C282 1.400 . S
C281 C286 1.490 . S
C282 H272 0.930 . S
C282 C281 1.400 . S
C282 C285 1.386 . S
H283 C299 0.930 . S
H284 C300 0.931 1_545 S
C285 H273 0.929 . S
C285 C279 1.390 . S
C285 C282 1.386 . S
C286 C281 1.490 . S
C286 C288 1.395 . S
C286 C289 1.403 . S
H287 C293 0.930 . S
C288 H274 0.930 . S
C288 C286 1.395 . S
C288 C291 1.403 . S
C289 C286 1.403 . S
C289 C290 1.524 . S
C289 C293 1.400 . S
C290 H275 0.960 . S
C290 H276 0.960 . S
C290 H277 0.960 . S
C290 C289 1.524 . S
C291 C288 1.403 . S
C291 C292 1.392 . S
C291 C295 1.495 . S
C292 C291 1.392 . S
C292 C293 1.385 . S
C292 C294 1.478 . S
C293 H287 0.930 . S
C293 C289 1.400 . S
C293 C292 1.385 . S
C294 C292 1.478 . S
C294 C296 1.381 . S
C294 C300 1.383 . S
C295 C291 1.495 . S
C295 H301 0.959 . S
C295 H302 0.961 . S
C295 H303 0.960 . S
C296 C294 1.381 . S
C296 C297 1.394 . S
C296 H304 0.930 . S
C297 C296 1.394 . S
C297 C298 1.383 1_565 S
C297 H305 0.929 . S
C298 C297 1.383 1_545 S
C298 C299 1.377 . S
C299 H283 0.930 . S
C299 C298 1.377 . S
C299 C300 1.379 1_545 S
C300 H284 0.931 1_565 S
C300 C294 1.383 . S
C300 C299 1.379 1_565 S
H301 C295 0.959 . S
H302 C295 0.961 . S
H303 C295 0.960 . S
H304 C296 0.930 . S
H305 C297 0.929 . S
H306 C314 0.929 . S
H307 C316 0.930 . S
H308 C318 0.930 . S
H309 C321 0.929 . S
H310 C324 0.930 . S
H311 C326 0.960 . S
H312 C326 0.960 . S
H313 C326 0.960 . S
C314 H306 0.929 . S
C314 C315 1.377 . S
C314 C316 1.384 . S
C315 C314 1.377 . S
C315 C321 1.390 . S
C316 H307 0.930 . S
C316 C314 1.384 . S
C316 C317 1.372 . S
C317 C316 1.372 . S
C317 C318 1.400 . S
C317 C322 1.490 . S
C318 H308 0.930 . S
C318 C317 1.400 . S
C318 C321 1.386 . S
H319 C335 0.930 . S
H320 C336 0.931 . S
C321 H309 0.929 . S
C321 C315 1.390 . S
C321 C318 1.386 . S
C322 C317 1.490 . S
C322 C324 1.395 . S
C322 C325 1.403 . S
H323 C329 0.930 . S
C324 H310 0.930 . S
C324 C322 1.395 . S
C324 C327 1.403 . S
C325 C322 1.403 . S
C325 C326 1.524 . S
C325 C329 1.400 . S
C326 H311 0.960 . S
C326 H312 0.960 . S
C326 H313 0.960 . S
C326 C325 1.524 . S
C327 C324 1.403 . S
C327 C328 1.392 . S
C327 C331 1.495 . S
C328 C327 1.392 . S
C328 C329 1.385 . S
C328 C330 1.478 . S
C329 H323 0.930 . S
C329 C325 1.400 . S
C329 C328 1.385 . S
C330 C328 1.478 . S
C330 C332 1.381 . S
C330 C336 1.383 . S
C331 C327 1.495 . S
C331 H337 0.959 . S
C331 H338 0.961 . S
C331 H339 0.960 . S
C332 C330 1.381 . S
C332 C333 1.394 . S
C332 H340 0.930 . S
C333 C332 1.394 . S
C333 C334 1.383 . S
C333 H341 0.929 . S
C334 C333 1.383 . S
C334 C335 1.377 . S
C335 H319 0.930 . S
C335 C334 1.377 . S
C335 C336 1.379 . S
C336 H320 0.931 . S
C336 C330 1.383 . S
C336 C335 1.379 . S
H337 C331 0.959 . S
H338 C331 0.961 . S
H339 C331 0.960 . S
H340 C332 0.930 . S
H341 C333 0.929 . S
H342 C350 0.929 . S
H343 C352 0.930 . S
H344 C354 0.930 . S
H345 C357 0.929 . S
H346 C360 0.930 . S
H347 C362 0.960 . S
H348 C362 0.960 . S
H349 C362 0.960 . S
C350 H342 0.929 . S
C350 C351 1.377 . S
C350 C352 1.384 . S
C351 C350 1.377 . S
C351 C357 1.390 . S
C352 H343 0.930 . S
C352 C350 1.384 . S
C352 C353 1.372 . S
C353 C352 1.372 . S
C353 C354 1.400 . S
C353 C358 1.490 . S
C354 H344 0.930 . S
C354 C353 1.400 . S
C354 C357 1.386 . S
H355 C371 0.930 . S
H356 C372 0.931 . S
C357 H345 0.929 . S
C357 C351 1.390 . S
C357 C354 1.386 . S
C358 C353 1.490 . S
C358 C360 1.395 . S
C358 C361 1.403 . S
H359 C365 0.930 . S
C360 H346 0.930 . S
C360 C358 1.395 . S
C360 C363 1.403 . S
C361 C358 1.403 . S
C361 C362 1.524 . S
C361 C365 1.400 . S
C362 H347 0.960 . S
C362 H348 0.960 . S
C362 H349 0.960 . S
C362 C361 1.524 . S
C363 C360 1.403 . S
C363 C364 1.392 . S
C363 C367 1.495 . S
C364 C363 1.392 . S
C364 C365 1.385 . S
C364 C366 1.478 . S
C365 H359 0.930 . S
C365 C361 1.400 . S
C365 C364 1.385 . S
C366 C364 1.478 . S
C366 C368 1.381 . S
C366 C372 1.383 . S
C367 C363 1.495 . S
C367 H373 0.959 . S
C367 H374 0.961 . S
C367 H375 0.960 . S
C368 C366 1.381 . S
C368 C369 1.394 . S
C368 H376 0.930 . S
C369 C368 1.394 . S
C369 C370 1.383 . S
C369 H377 0.929 . S
C370 C369 1.383 . S
C370 C371 1.377 . S
C371 H355 0.930 . S
C371 C370 1.377 . S
C371 C372 1.379 . S
C372 H356 0.931 . S
C372 C366 1.383 . S
C372 C371 1.379 . S
H373 C367 0.959 . S
H374 C367 0.961 . S
H375 C367 0.960 . S
H376 C368 0.930 . S
H377 C369 0.929 . S
H378 C386 0.929 . S
H379 C388 0.930 . S
H380 C390 0.930 . S
H381 C393 0.929 . S
H382 C396 0.930 . S
H383 C398 0.960 . S
H384 C398 0.960 . S
H385 C398 0.960 . S
C386 H378 0.929 . S
C386 C387 1.377 . S
C386 C388 1.384 . S
C387 C386 1.377 . S
C387 C393 1.390 . S
C388 H379 0.930 . S
C388 C386 1.384 . S
C388 C389 1.372 . S
C389 C388 1.372 . S
C389 C390 1.400 . S
C389 C394 1.490 . S
C390 H380 0.930 . S
C390 C389 1.400 . S
C390 C393 1.386 . S
H391 C407 0.930 . S
H392 C408 0.931 . S
C393 H381 0.929 . S
C393 C387 1.390 . S
C393 C390 1.386 . S
C394 C389 1.490 . S
C394 C396 1.395 . S
C394 C397 1.403 . S
H395 C401 0.930 . S
C396 H382 0.930 . S
C396 C394 1.395 . S
C396 C399 1.403 . S
C397 C394 1.403 . S
C397 C398 1.524 . S
C397 C401 1.400 . S
C398 H383 0.960 . S
C398 H384 0.960 . S
C398 H385 0.960 . S
C398 C397 1.524 . S
C399 C396 1.403 . S
C399 C400 1.392 . S
C399 C403 1.495 . S
C400 C399 1.392 . S
C400 C401 1.385 . S
C400 C402 1.478 . S
C401 H395 0.930 . S
C401 C397 1.400 . S
C401 C400 1.385 . S
C402 C400 1.478 . S
C402 C404 1.381 . S
C402 C408 1.383 . S
C403 C399 1.495 . S
C403 H409 0.959 . S
C403 H410 0.961 . S
C403 H411 0.960 . S
C404 C402 1.381 . S
C404 C405 1.394 . S
C404 H412 0.930 . S
C405 C404 1.394 . S
C405 C406 1.383 . S
C405 H413 0.929 . S
C406 C405 1.383 . S
C406 C407 1.377 . S
C407 H391 0.930 . S
C407 C406 1.377 . S
C407 C408 1.379 . S
C408 H392 0.931 . S
C408 C402 1.383 . S
C408 C407 1.379 . S
H409 C403 0.959 . S
H410 C403 0.961 . S
H411 C403 0.960 . S
H412 C404 0.930 . S
H413 C405 0.929 . S
H414 C422 0.929 . S
H415 C424 0.930 . S
H416 C426 0.930 . S
H417 C429 0.929 . S
H418 C432 0.930 . S
H419 C434 0.960 . S
H420 C434 0.960 . S
H421 C434 0.960 . S
C422 H414 0.929 . S
C422 C423 1.377 . S
C422 C424 1.384 . S
C423 C422 1.377 . S
C423 C429 1.390 . S
C424 H415 0.930 . S
C424 C422 1.384 . S
C424 C425 1.372 . S
C425 C424 1.372 . S
C425 C426 1.400 . S
C425 C430 1.490 . S
C426 H416 0.930 . S
C426 C425 1.400 . S
C426 C429 1.386 . S
H427 C443 0.930 . S
H428 C444 0.931 . S
C429 H417 0.929 . S
C429 C423 1.390 . S
C429 C426 1.386 . S
C430 C425 1.490 . S
C430 C432 1.395 . S
C430 C433 1.403 . S
H431 C437 0.930 . S
C432 H418 0.930 . S
C432 C430 1.395 . S
C432 C435 1.403 . S
C433 C430 1.403 . S
C433 C434 1.524 . S
C433 C437 1.400 . S
C434 H419 0.960 . S
C434 H420 0.960 . S
C434 H421 0.960 . S
C434 C433 1.524 . S
C435 C432 1.403 . S
C435 C436 1.392 . S
C435 C439 1.495 . S
C436 C435 1.392 . S
C436 C437 1.385 . S
C436 C438 1.478 . S
C437 H431 0.930 . S
C437 C433 1.400 . S
C437 C436 1.385 . S
C438 C436 1.478 . S
C438 C440 1.381 . S
C438 C444 1.383 . S
C439 C435 1.495 . S
C439 H445 0.959 . S
C439 H446 0.961 . S
C439 H447 0.960 . S
C440 C438 1.381 . S
C440 C441 1.394 . S
C440 H448 0.930 . S
C441 C440 1.394 . S
C441 C442 1.383 . S
C441 H449 0.929 . S
C442 C441 1.383 . S
C442 C443 1.377 . S
C443 H427 0.930 . S
C443 C442 1.377 . S
C443 C444 1.379 . S
C444 H428 0.931 . S
C444 C438 1.383 . S
C444 C443 1.379 . S
H445 C439 0.959 . S
H446 C439 0.961 . S
H447 C439 0.960 . S
H448 C440 0.930 . S
H449 C441 0.929 . S
H450 C458 0.929 . S
H451 C460 0.930 . S
H452 C462 0.930 . S
H453 C465 0.929 . S
H454 C468 0.930 . S
H455 C470 0.960 . S
H456 C470 0.960 . S
H457 C470 0.960 . S
C458 H450 0.929 . S
C458 C459 1.377 . S
C458 C460 1.384 . S
C459 C458 1.377 . S
C459 C465 1.390 . S
C460 H451 0.930 . S
C460 C458 1.384 . S
C460 C461 1.372 . S
C461 C460 1.372 . S
C461 C462 1.400 . S
C461 C466 1.490 . S
C462 H452 0.930 . S
C462 C461 1.400 . S
C462 C465 1.386 . S
H463 C479 0.930 . S
H464 C480 0.931 . S
C465 H453 0.929 . S
C465 C459 1.390 . S
C465 C462 1.386 . S
C466 C461 1.490 . S
C466 C468 1.395 . S
C466 C469 1.403 . S
H467 C473 0.930 . S
C468 H454 0.930 . S
C468 C466 1.395 . S
C468 C471 1.403 . S
C469 C466 1.403 . S
C469 C470 1.524 . S
C469 C473 1.400 . S
C470 H455 0.960 . S
C470 H456 0.960 . S
C470 H457 0.960 . S
C470 C469 1.524 . S
C471 C468 1.403 . S
C471 C472 1.392 . S
C471 C475 1.495 . S
C472 C471 1.392 . S
C472 C473 1.385 . S
C472 C474 1.478 . S
C473 H467 0.930 . S
C473 C469 1.400 . S
C473 C472 1.385 . S
C474 C472 1.478 . S
C474 C476 1.381 . S
C474 C480 1.383 . S
C475 C471 1.495 . S
C475 H481 0.959 . S
C475 H482 0.961 . S
C475 H483 0.960 . S
C476 C474 1.381 . S
C476 C477 1.394 . S
C476 H484 0.930 . S
C477 C476 1.394 . S
C477 C478 1.383 . S
C477 H485 0.942 . S
C478 C477 1.383 . S
C478 C479 1.377 . S
C479 H463 0.930 . S
C479 C478 1.377 . S
C479 C480 1.379 . S
C480 H464 0.931 . S
C480 C474 1.383 . S
C480 C479 1.379 . S
H481 C475 0.959 . S
H482 C475 0.961 . S
H483 C475 0.960 . S
H484 C476 0.930 . S
H485 C477 0.942 . S
H486 C494 0.929 . S
H487 C496 0.930 . S
H488 C498 0.930 . S
H489 C501 0.929 . S
H490 C504 0.930 . S
H491 C506 0.960 . S
H492 C506 0.960 . S
H493 C506 0.960 . S
C494 H486 0.929 . S
C494 C495 1.377 . S
C494 C496 1.384 . S
C495 C494 1.377 . S
C495 C501 1.390 . S
C496 H487 0.930 . S
C496 C494 1.384 . S
C496 C497 1.372 . S
C497 C496 1.372 . S
C497 C498 1.400 . S
C497 C502 1.490 . S
C498 H488 0.930 . S
C498 C497 1.400 . S
C498 C501 1.386 . S
H499 C515 0.930 . S
H500 C516 0.931 . S
C501 H489 0.929 . S
C501 C495 1.390 . S
C501 C498 1.386 . S
C502 C497 1.490 . S
C502 C504 1.395 . S
C502 C505 1.403 . S
H503 C509 0.930 . S
C504 H490 0.930 . S
C504 C502 1.395 . S
C504 C507 1.403 . S
C505 C502 1.403 . S
C505 C506 1.524 . S
C505 C509 1.400 . S
C506 H491 0.960 . S
C506 H492 0.960 . S
C506 H493 0.960 . S
C506 C505 1.524 . S
C507 C504 1.403 . S
C507 C508 1.392 . S
C507 C511 1.495 . S
C508 C507 1.392 . S
C508 C509 1.385 . S
C508 C510 1.478 . S
C509 H503 0.930 . S
C509 C505 1.400 . S
C509 C508 1.385 . S
C510 C508 1.478 . S
C510 C512 1.381 . S
C510 C516 1.383 . S
C511 C507 1.495 . S
C511 H517 0.959 . S
C511 H518 0.961 . S
C511 H519 0.960 . S
C512 C510 1.381 . S
C512 C513 1.394 . S
C512 H520 0.930 . S
C513 C512 1.394 . S
C513 C514 1.383 . S
C513 H521 0.929 . S
C514 C513 1.383 . S
C514 C515 1.377 . S
C515 H499 0.930 . S
C515 C514 1.377 . S
C515 C516 1.379 . S
C516 H500 0.931 . S
C516 C510 1.383 . S
C516 C515 1.379 . S
H517 C511 0.959 . S
H518 C511 0.961 . S
H519 C511 0.960 . S
H520 C512 0.930 . S
H521 C513 0.929 . S
H522 C530 0.929 . S
H523 C532 0.930 . S
H524 C534 0.930 . S
H525 C537 0.929 . S
H526 C540 0.930 . S
H527 C542 0.960 . S
H528 C542 0.960 . S
H529 C542 0.960 . S
C530 H522 0.929 . S
C530 C531 1.377 . S
C530 C532 1.384 . S
C531 C530 1.377 . S
C531 C537 1.390 . S
C532 H523 0.930 . S
C532 C530 1.384 . S
C532 C533 1.372 . S
C533 C532 1.372 . S
C533 C534 1.400 . S
C533 C538 1.490 . S
C534 H524 0.930 . S
C534 C533 1.400 . S
C534 C537 1.386 . S
H535 C551 0.930 . S
H536 C552 0.931 . S
C537 H525 0.929 . S
C537 C531 1.390 . S
C537 C534 1.386 . S
C538 C533 1.490 . S
C538 C540 1.395 . S
C538 C541 1.403 . S
H539 C545 0.930 . S
C540 H526 0.930 . S
C540 C538 1.395 . S
C540 C543 1.403 . S
C541 C538 1.403 . S
C541 C542 1.524 . S
C541 C545 1.400 . S
C542 H527 0.960 . S
C542 H528 0.960 . S
C542 H529 0.960 . S
C542 C541 1.524 . S
C543 C540 1.403 . S
C543 C544 1.392 . S
C543 C547 1.495 . S
C544 C543 1.392 . S
C544 C545 1.385 . S
C544 C546 1.478 . S
C545 H539 0.930 . S
C545 C541 1.400 . S
C545 C544 1.385 . S
C546 C544 1.478 . S
C546 C548 1.381 . S
C546 C552 1.383 . S
C547 C543 1.495 . S
C547 H553 0.959 . S
C547 H554 0.961 . S
C547 H555 0.960 . S
C548 C546 1.381 . S
C548 C549 1.394 . S
C548 H556 0.930 . S
C549 C548 1.394 . S
C549 C550 1.383 . S
C549 H557 0.929 . S
C550 C549 1.383 . S
C550 C551 1.377 . S
C551 H535 0.930 . S
C551 C550 1.377 . S
C551 C552 1.379 . S
C552 H536 0.931 . S
C552 C546 1.383 . S
C552 C551 1.379 . S
H553 C547 0.959 . S
H554 C547 0.961 . S
H555 C547 0.960 . S
H556 C548 0.930 . S
H557 C549 0.929 . S
H558 C566 0.929 . S
H559 C568 0.930 . S
H560 C570 0.930 . S
H561 C573 0.929 . S
H562 C576 0.930 . S
H563 C578 0.960 . S
H564 C578 0.960 . S
H565 C578 0.960 . S
C566 H558 0.929 . S
C566 C567 1.377 . S
C566 C568 1.384 . S
C567 C566 1.377 . S
C567 C573 1.390 . S
C568 H559 0.930 . S
C568 C566 1.384 . S
C568 C569 1.372 . S
C569 C568 1.372 . S
C569 C570 1.400 . S
C569 C574 1.490 . S
C570 H560 0.930 . S
C570 C569 1.400 . S
C570 C573 1.386 . S
H571 C587 0.930 . S
H572 C588 0.931 . S
C573 H561 0.929 . S
C573 C567 1.390 . S
C573 C570 1.386 . S
C574 C569 1.490 . S
C574 C576 1.395 . S
C574 C577 1.403 . S
H575 C581 0.930 . S
C576 H562 0.930 . S
C576 C574 1.395 . S
C576 C579 1.403 . S
C577 C574 1.403 . S
C577 C578 1.524 . S
C577 C581 1.400 . S
C578 H563 0.960 . S
C578 H564 0.960 . S
C578 H565 0.960 . S
C578 C577 1.524 . S
C579 C576 1.403 . S
C579 C580 1.392 . S
C579 C583 1.495 . S
C580 C579 1.392 . S
C580 C581 1.385 . S
C580 C582 1.478 . S
C581 H575 0.930 . S
C581 C577 1.400 . S
C581 C580 1.385 . S
C582 C580 1.478 . S
C582 C584 1.381 . S
C582 C588 1.383 . S
C583 C579 1.495 . S
C583 H589 0.959 . S
C583 H590 0.961 . S
C583 H591 0.960 . S
C584 C582 1.381 . S
C584 C585 1.394 . S
C584 H592 0.930 . S
C585 C584 1.394 . S
C585 C586 1.383 . S
C585 H593 0.929 . S
C586 C585 1.383 . S
C586 C587 1.377 . S
C587 H571 0.930 . S
C587 C586 1.377 . S
C587 C588 1.379 . S
C588 H572 0.931 . S
C588 C582 1.383 . S
C588 C587 1.379 . S
H589 C583 0.959 . S
H590 C583 0.961 . S
H591 C583 0.960 . S
H592 C584 0.930 . S
H593 C585 0.929 . S
H594 C602 0.929 . S
H595 C604 0.930 . S
H596 C606 0.930 . S
H597 C609 0.929 . S
H598 C612 0.930 . S
H599 C614 0.960 . S
H600 C614 0.960 . S
H601 C614 0.960 . S
C602 H594 0.929 . S
C602 C603 1.377 . S
C602 C604 1.384 . S
C603 C602 1.377 . S
C603 C609 1.390 . S
C604 H595 0.930 . S
C604 C602 1.384 . S
C604 C605 1.372 . S
C605 C604 1.372 . S
C605 C606 1.400 . S
C605 C610 1.490 . S
C606 H596 0.930 . S
C606 C605 1.400 . S
C606 C609 1.386 . S
H607 C623 0.930 . S
H608 C624 0.931 . S
C609 H597 0.929 . S
C609 C603 1.390 . S
C609 C606 1.386 . S
C610 C605 1.490 . S
C610 C612 1.395 . S
C610 C613 1.403 . S
H611 C617 0.930 . S
C612 H598 0.930 . S
C612 C610 1.395 . S
C612 C615 1.403 . S
C613 C610 1.403 . S
C613 C614 1.524 . S
C613 C617 1.400 . S
C614 H599 0.960 . S
C614 H600 0.960 . S
C614 H601 0.960 . S
C614 C613 1.524 . S
C615 C612 1.403 . S
C615 C616 1.392 . S
C615 C619 1.495 . S
C616 C615 1.392 . S
C616 C617 1.385 . S
C616 C618 1.478 . S
C617 H611 0.930 . S
C617 C613 1.400 . S
C617 C616 1.385 . S
C618 C616 1.478 . S
C618 C620 1.381 . S
C618 C624 1.383 . S
C619 C615 1.495 . S
C619 H625 0.959 . S
C619 H626 0.961 . S
C619 H627 0.960 . S
C620 C618 1.381 . S
C620 C621 1.394 . S
C620 H628 0.930 . S
C621 C620 1.394 . S
C621 C622 1.383 . S
C621 H629 0.929 . S
C622 C621 1.383 . S
C622 C623 1.377 . S
C623 H607 0.930 . S
C623 C622 1.377 . S
C623 C624 1.379 . S
C624 H608 0.931 . S
C624 C618 1.383 . S
C624 C623 1.379 . S
H625 C619 0.959 . S
H626 C619 0.961 . S
H627 C619 0.960 . S
H628 C620 0.930 . S
H629 C621 0.929 . S
H630 C638 0.929 . S
H631 C640 0.930 . S
H632 C642 0.930 . S
H633 C645 0.929 . S
H634 C648 0.930 . S
H635 C650 0.960 . S
H636 C650 0.960 . S
H637 C650 0.960 . S
C638 H630 0.929 . S
C638 C639 1.377 1_655 S
C638 C640 1.384 . S
C639 C638 1.377 1_455 S
C639 C645 1.390 . S
C640 H631 0.930 . S
C640 C638 1.384 . S
C640 C641 1.372 1_655 S
C641 C640 1.372 1_455 S
C641 C642 1.400 . S
C641 C646 1.490 . S
C642 H632 0.930 . S
C642 C641 1.400 . S
C642 C645 1.386 . S
H643 C659 0.930 . S
H644 C660 0.931 . S
C645 H633 0.929 . S
C645 C639 1.390 . S
C645 C642 1.386 . S
C646 C641 1.490 . S
C646 C648 1.395 . S
C646 C649 1.403 . S
H647 C653 0.930 . S
C648 H634 0.930 . S
C648 C646 1.395 . S
C648 C651 1.366 1_554 S
C649 C646 1.403 . S
C649 C650 1.524 . S
C649 C653 1.400 1_554 S
C650 H635 0.960 . S
C650 H636 0.960 . S
C650 H637 0.960 . S
C650 C649 1.524 . S
C651 C648 1.366 1_556 S
C651 C652 1.416 . S
C651 C655 1.509 . S
C652 C651 1.416 . S
C652 C653 1.385 . S
C652 C654 1.478 . S
C653 H647 0.930 . S
C653 C649 1.400 1_556 S
C653 C652 1.385 . S
C654 C652 1.478 . S
C654 C656 1.381 . S
C654 C660 1.383 . S
C655 C651 1.509 . S
C655 H661 0.959 1_556 S
C655 H662 0.961 . S
C655 H663 0.960 1_455 S
C656 C654 1.381 . S
C656 C657 1.394 . S
C656 H664 0.930 1_455 S
C657 C656 1.394 . S
C657 C658 1.383 . S
C657 H665 0.929 1_455 S
C658 C657 1.383 . S
C658 C659 1.377 . S
C659 H643 0.930 . S
C659 C658 1.377 . S
C659 C660 1.379 . S
C660 H644 0.931 . S
C660 C654 1.383 . S
C660 C659 1.379 . S
H661 C655 0.959 1_554 S
H662 C655 0.961 . S
H663 C655 0.960 1_655 S
H664 C656 0.930 1_655 S
H665 C657 0.929 1_655 S
H666 C674 0.929 . S
H667 C676 0.930 . S
H668 C678 0.930 . S
H669 C681 0.929 . S
H670 C684 0.930 . S
H671 C686 0.960 . S
H672 C686 0.960 . S
H673 C686 0.960 . S
C674 H666 0.929 . S
C674 C675 1.377 . S
C674 C676 1.384 . S
C675 C674 1.377 . S
C675 C681 1.390 . S
C676 H667 0.930 . S
C676 C674 1.384 . S
C676 C677 1.372 . S
C677 C676 1.372 . S
C677 C678 1.400 . S
C677 C682 1.490 . S
C678 H668 0.930 . S
C678 C677 1.400 . S
C678 C681 1.386 . S
H679 C695 0.930 . S
H680 C696 0.931 . S
C681 H669 0.929 . S
C681 C675 1.390 . S
C681 C678 1.386 . S
C682 C677 1.490 . S
C682 C684 1.395 1_545 S
C682 C685 1.403 . S
H683 C689 0.930 . S
C684 H670 0.930 . S
C684 C682 1.395 1_565 S
C684 C687 1.403 . S
C685 C682 1.403 . S
C685 C686 1.524 . S
C685 C689 1.400 . S
C686 H671 0.960 . S
C686 H672 0.960 . S
C686 H673 0.960 . S
C686 C685 1.524 . S
C687 C684 1.403 . S
C687 C688 1.392 1_565 S
C687 C691 1.495 . S
C688 C687 1.392 1_545 S
C688 C689 1.385 . S
C688 C690 1.478 . S
C689 H683 0.930 . S
C689 C685 1.400 . S
C689 C688 1.385 . S
C690 C688 1.478 . S
C690 C692 1.381 . S
C690 C696 1.383 . S
C691 C687 1.495 . S
C691 H697 0.959 . S
C691 H698 0.961 . S
C691 H699 0.960 . S
C692 C690 1.381 . S
C692 C693 1.394 . S
C692 H700 0.930 . S
C693 C692 1.394 . S
C693 C694 1.383 . S
C693 H701 0.929 . S
C694 C693 1.383 . S
C694 C695 1.377 . S
C695 H679 0.930 . S
C695 C694 1.377 . S
C695 C696 1.379 . S
C696 H680 0.931 . S
C696 C690 1.383 . S
C696 C695 1.379 . S
H697 C691 0.959 . S
H698 C691 0.961 . S
H699 C691 0.960 . S
H700 C692 0.930 . S
H701 C693 0.929 . S
H702 C710 0.929 . S
H703 C712 0.930 . S
H704 C714 0.930 . S
H705 C717 0.929 . S
H706 C720 0.930 . S
H707 C722 0.960 . S
H708 C722 0.960 . S
H709 C722 0.960 . S
C710 H702 0.929 . S
C710 C711 1.377 . S
C710 C712 1.384 . S
C711 C710 1.377 . S
C711 C717 1.390 . S
C712 H703 0.930 . S
C712 C710 1.384 . S
C712 C713 1.372 . S
C713 C712 1.372 . S
C713 C714 1.400 . S
C713 C718 1.490 . S
C714 H704 0.930 . S
C714 C713 1.400 . S
C714 C717 1.386 . S
H715 C731 0.930 . S
H716 C732 0.931 . S
C717 H705 0.929 . S
C717 C711 1.390 . S
C717 C714 1.386 . S
C718 C713 1.490 . S
C718 C720 1.395 . S
C718 C721 1.403 . S
H719 C725 0.930 . S
C720 H706 0.930 . S
C720 C718 1.395 . S
C720 C723 1.403 . S
C721 C718 1.403 . S
C721 C722 1.524 . S
C721 C725 1.400 . S
C722 H707 0.960 . S
C722 H708 0.960 . S
C722 H709 0.960 . S
C722 C721 1.524 . S
C723 C720 1.403 . S
C723 C724 1.392 . S
C723 C727 1.495 . S
C724 C723 1.392 . S
C724 C725 1.385 . S
C724 C726 1.478 . S
C725 H719 0.930 . S
C725 C721 1.400 . S
C725 C724 1.385 . S
C726 C724 1.478 . S
C726 C728 1.381 . S
C726 C732 1.383 . S
C727 C723 1.495 . S
C727 H733 0.959 . S
C727 H734 0.961 . S
C727 H735 0.960 . S
C728 C726 1.381 . S
C728 C729 1.394 . S
C728 H736 0.930 . S
C729 C728 1.394 . S
C729 C730 1.383 . S
C729 H737 0.929 . S
C730 C729 1.383 . S
C730 C731 1.377 . S
C731 H715 0.930 . S
C731 C730 1.377 . S
C731 C732 1.379 . S
C732 H716 0.931 . S
C732 C726 1.383 . S
C732 C731 1.379 . S
H733 C727 0.959 . S
H734 C727 0.961 . S
H735 C727 0.960 . S
H736 C728 0.930 . S
H737 C729 0.929 . S
H738 C746 0.929 . S
H739 C748 0.930 . S
H740 C750 0.930 . S
H741 C753 0.929 . S
H742 C756 0.930 . S
H743 C758 0.960 . S
H744 C758 0.960 . S
H745 C758 0.960 . S
C746 H738 0.929 . S
C746 C747 1.377 . S
C746 C748 1.384 . S
C747 C746 1.377 . S
C747 C753 1.390 . S
C748 H739 0.930 . S
C748 C746 1.384 . S
C748 C749 1.372 . S
C749 C748 1.372 . S
C749 C750 1.400 . S
C749 C754 1.490 . S
C750 H740 0.930 . S
C750 C749 1.400 . S
C750 C753 1.386 . S
H751 C767 0.930 . S
H752 C768 0.931 . S
C753 H741 0.929 . S
C753 C747 1.390 . S
C753 C750 1.386 . S
C754 C749 1.490 . S
C754 C756 1.395 1_545 S
C754 C757 1.403 . S
H755 C761 0.930 . S
C756 H742 0.930 . S
C756 C754 1.395 1_565 S
C756 C759 1.403 . S
C757 C754 1.403 . S
C757 C758 1.524 . S
C757 C761 1.400 . S
C758 H743 0.960 . S
C758 H744 0.960 . S
C758 H745 0.960 . S
C758 C757 1.524 . S
C759 C756 1.403 . S
C759 C760 1.392 1_565 S
C759 C763 1.495 . S
C760 C759 1.392 1_545 S
C760 C761 1.385 . S
C760 C762 1.478 . S
C761 H755 0.930 . S
C761 C757 1.400 . S
C761 C760 1.385 . S
C762 C760 1.478 . S
C762 C764 1.381 . S
C762 C768 1.383 . S
C763 C759 1.495 . S
C763 H769 0.959 . S
C763 H770 0.961 . S
C763 H771 0.960 . S
C764 C762 1.381 . S
C764 C765 1.394 . S
C764 H772 0.930 . S
C765 C764 1.394 . S
C765 C766 1.383 . S
C765 H773 0.929 . S
C766 C765 1.383 . S
C766 C767 1.377 . S
C767 H751 0.930 . S
C767 C766 1.377 . S
C767 C768 1.379 . S
C768 H752 0.931 . S
C768 C762 1.383 . S
C768 C767 1.379 . S
H769 C763 0.959 . S
H770 C763 0.961 . S
H771 C763 0.960 . S
H772 C764 0.930 . S
H773 C765 0.929 . S
H774 C782 0.929 . S
H775 C784 0.930 . S
H776 C786 0.930 . S
H777 C789 0.929 . S
H778 C792 0.930 . S
H779 C794 0.960 . S
H780 C794 0.960 . S
H781 C794 0.960 . S
C782 H774 0.929 . S
C782 C783 1.377 . S
C782 C784 1.384 . S
C783 C782 1.377 . S
C783 C789 1.390 . S
C784 H775 0.930 . S
C784 C782 1.384 . S
C784 C785 1.372 . S
C785 C784 1.372 . S
C785 C786 1.400 . S
C785 C790 1.490 . S
C786 H776 0.930 . S
C786 C785 1.400 . S
C786 C789 1.386 . S
H787 C803 0.930 . S
H788 C804 0.931 . S
C789 H777 0.929 . S
C789 C783 1.390 . S
C789 C786 1.386 . S
C790 C785 1.490 . S
C790 C792 1.395 . S
C790 C793 1.403 . S
H791 C797 0.930 1_554 S
C792 H778 0.930 . S
C792 C790 1.395 . S
C792 C795 1.403 1_556 S
C793 C790 1.403 . S
C793 C794 1.524 . S
C793 C797 1.400 . S
C794 H779 0.960 . S
C794 H780 0.960 . S
C794 H781 0.960 . S
C794 C793 1.524 . S
C795 C792 1.403 1_554 S
C795 C796 1.392 . S
C795 C799 1.495 . S
C796 C795 1.392 . S
C796 C797 1.385 1_554 S
C796 C798 1.478 . S
C797 H791 0.930 1_556 S
C797 C793 1.400 . S
C797 C796 1.385 1_556 S
C798 C796 1.478 . S
C798 C800 1.381 . S
C798 C804 1.383 . S
C799 C795 1.495 . S
C799 H805 0.959 . S
C799 H806 0.961 . S
C799 H807 0.960 . S
C800 C798 1.381 . S
C800 C801 1.394 . S
C800 H808 0.930 . S
C801 C800 1.394 . S
C801 C802 1.383 . S
C801 H809 0.929 . S
C802 C801 1.383 . S
C802 C803 1.377 . S
C803 H787 0.930 . S
C803 C802 1.377 . S
C803 C804 1.379 . S
C804 H788 0.931 . S
C804 C798 1.383 . S
C804 C803 1.379 . S
H805 C799 0.959 . S
H806 C799 0.961 . S
H807 C799 0.960 . S
H808 C800 0.930 . S
H809 C801 0.929 . S
H810 C818 0.929 . S
H811 C820 0.930 . S
H812 C822 0.930 . S
H813 C825 0.929 . S
H814 C828 0.930 . S
H815 C830 0.960 . S
H816 C830 0.960 . S
H817 C830 0.960 1_655 S
C818 H810 0.929 . S
C818 C819 1.377 1_455 S
C818 C820 1.384 . S
C819 C818 1.377 1_655 S
C819 C825 1.390 . S
C820 H811 0.930 . S
C820 C818 1.384 . S
C820 C821 1.372 . S
C821 C820 1.372 . S
C821 C822 1.400 1_455 S
C821 C826 1.490 . S
C822 H812 0.930 . S
C822 C821 1.400 1_655 S
C822 C825 1.386 . S
H823 C839 0.930 . S
H824 C840 0.931 . S
C825 H813 0.929 . S
C825 C819 1.390 . S
C825 C822 1.386 . S
C826 C821 1.490 . S
C826 C828 1.395 . S
C826 C829 1.403 . S
H827 C833 0.930 . S
C828 H814 0.930 . S
C828 C826 1.395 . S
C828 C831 1.403 . S
C829 C826 1.403 . S
C829 C830 1.524 . S
C829 C833 1.400 . S
C830 H815 0.960 . S
C830 H816 0.960 . S
C830 H817 0.960 1_455 S
C830 C829 1.524 . S
C831 C828 1.403 . S
C831 C832 1.392 . S
C831 C835 1.495 . S
C832 C831 1.392 . S
C832 C833 1.385 . S
C832 C834 1.478 . S
C833 H827 0.930 . S
C833 C829 1.400 . S
C833 C832 1.385 . S
C834 C832 1.478 . S
C834 C836 1.381 . S
C834 C840 1.383 1_455 S
C835 C831 1.495 . S
C835 H841 0.959 . S
C835 H842 0.961 1_455 S
C835 H843 0.960 . S
C836 C834 1.381 . S
C836 C837 1.394 . S
C836 H844 0.930 . S
C837 C836 1.394 . S
C837 C838 1.383 . S
C837 H845 0.929 . S
C838 C837 1.383 . S
C838 C839 1.377 1_455 S
C839 H823 0.930 . S
C839 C838 1.377 1_655 S
C839 C840 1.379 . S
C840 H824 0.931 . S
C840 C834 1.383 1_655 S
C840 C839 1.379 . S
H841 C835 0.959 . S
H842 C835 0.961 1_655 S
H843 C835 0.960 . S
H844 C836 0.930 . S
H845 C837 0.929 . S
C207 C7 0.277 . S
C226 N187 0.362 . S
C243 C51 1.763 . S
C262 N160 1.762 1_655 S
C279 C87 1.074 . S
C298 N173 1.077 . S
C315 C16 0.635 . S
C334 N186 0.587 . S
C370 N161 1.979 . S
C351 C42 1.975 . S
C406 N174 1.324 . S
C387 C96 1.314 . S
C423 C47 1.032 . S
C442 N134 1.016 . S
C459 C91 2.736 . S
C478 N148 2.686 1_655 S
C495 C2 1.988 . S
C514 N122 1.986 . S
C550 N135 1.374 . S
C531 C56 1.354 . S
C586 N147 3.302 . S
C567 C82 3.265 . S
C603 C11 1.758 . S
C622 N121 1.757 . S
C658 N151 1.710 . S
C639 C19 1.711 . S
C675 C50 1.477 . S
C694 N125 1.470 . S
C711 C99 1.514 . S
C730 N138 1.588 . S
C766 N177 1.557 . S
C747 C59 1.482 . S
C802 N190 1.284 . S
C783 C90 1.304 . S
C819 C10 1.450 . S
C838 N164 1.468 . S
