# Generated by pormake.
# Topology zzz, (3,6)-cn, num edge types: 1
# Building blocks:
#     Node 0, Type 0, BuildingBlock: VETTIZ_charged_linker_0, # of connection points: 3
#     Node 1, Type 0, BuildingBlock: VETTIZ_charged_linker_0, # of connection points: 3
#     Node 2, Type 0, BuildingBlock: VETTIZ_charged_linker_0, # of connection points: 3
#     Node 3, Type 0, BuildingBlock: VETTIZ_charged_linker_0, # of connection points: 3
#     Node 4, Type 0, BuildingBlock: VETTIZ_charged_linker_0, # of connection points: 3
#     Node 5, Type 0, BuildingBlock: VETTIZ_charged_linker_0, # of connection points: 3
#     Node 6, Type 0, BuildingBlock: VETTIZ_charged_linker_0, # of connection points: 3
#     Node 7, Type 0, BuildingBlock: VETTIZ_charged_linker_0, # of connection points: 3
#     Node 8, Type 1, BuildingBlock: GEDQOX_clean_sbu_0, # of connection points: 6
#     Node 9, Type 1, BuildingBlock: GEDQOX_clean_sbu_0, # of connection points: 6
#     Node 10, Type 1, BuildingBlock: GEDQOX_clean_sbu_0, # of connection points: 6
#     Node 11, Type 1, BuildingBlock: GEDQOX_clean_sbu_0, # of connection points: 6
#     Edge 12, Type (0, 1), BuildingBlock: OJICUG_clean_linker_0, # of connection points: 2
#     Edge 13, Type (0, 1), BuildingBlock: OJICUG_clean_linker_0, # of connection points: 2
#     Edge 14, Type (0, 1), BuildingBlock: OJICUG_clean_linker_0, # of connection points: 2
#     Edge 15, Type (0, 1), BuildingBlock: OJICUG_clean_linker_0, # of connection points: 2
#     Edge 16, Type (0, 1), BuildingBlock: OJICUG_clean_linker_0, # of connection points: 2
#     Edge 17, Type (0, 1), BuildingBlock: OJICUG_clean_linker_0, # of connection points: 2
#     Edge 18, Type (0, 1), BuildingBlock: OJICUG_clean_linker_0, # of connection points: 2
#     Edge 19, Type (0, 1), BuildingBlock: OJICUG_clean_linker_0, # of connection points: 2
#     Edge 20, Type (0, 1), BuildingBlock: OJICUG_clean_linker_0, # of connection points: 2
#     Edge 21, Type (0, 1), BuildingBlock: OJICUG_clean_linker_0, # of connection points: 2
#     Edge 22, Type (0, 1), BuildingBlock: OJICUG_clean_linker_0, # of connection points: 2
#     Edge 23, Type (0, 1), BuildingBlock: OJICUG_clean_linker_0, # of connection points: 2
#     Edge 24, Type (0, 1), BuildingBlock: OJICUG_clean_linker_0, # of connection points: 2
#     Edge 25, Type (0, 1), BuildingBlock: OJICUG_clean_linker_0, # of connection points: 2
#     Edge 26, Type (0, 1), BuildingBlock: OJICUG_clean_linker_0, # of connection points: 2
#     Edge 27, Type (0, 1), BuildingBlock: OJICUG_clean_linker_0, # of connection points: 2
#     Edge 28, Type (0, 1), BuildingBlock: OJICUG_clean_linker_0, # of connection points: 2
#     Edge 29, Type (0, 1), BuildingBlock: OJICUG_clean_linker_0, # of connection points: 2
#     Edge 30, Type (0, 1), BuildingBlock: OJICUG_clean_linker_0, # of connection points: 2
#     Edge 31, Type (0, 1), BuildingBlock: OJICUG_clean_linker_0, # of connection points: 2
#     Edge 32, Type (0, 1), BuildingBlock: OJICUG_clean_linker_0, # of connection points: 2
#     Edge 33, Type (0, 1), BuildingBlock: OJICUG_clean_linker_0, # of connection points: 2
#     Edge 34, Type (0, 1), BuildingBlock: OJICUG_clean_linker_0, # of connection points: 2
#     Edge 35, Type (0, 1), BuildingBlock: OJICUG_clean_linker_0, # of connection points: 2
# Relax obj value: 0.321
# Max RMSD: 0.324
# Mean RMSD: 0.199
data_MOF--net-zzz--node1-GEDQOX_clean_sbu_0--node2-VETTIZ_charged_linker_0--edge1-OJICUG_clean_linker_0
_symmetry_space_group_name_H-M    P1
_symmetry_Int_Tables_number       1
_symmetry_cell_setting            triclinic
loop_
_symmetry_equiv_pos_as_xyz
'x, y, z'
_cell_length_a     48.4078
_cell_length_b     44.829728
_cell_length_c     17.854258
_cell_angle_alpha  79.852517
_cell_angle_beta   90.467371
_cell_angle_gamma 104.08278
loop_
_atom_site_label
_atom_site_type_symbol
_atom_site_fract_x
_atom_site_fract_y
_atom_site_fract_z
_atom_type_partial_charge
C0 C 0.81149 0.54457 0.36794 0.0
C1 C 0.83372 0.5351 0.40958 0.0
C2 C 0.84415 0.51065 0.3903 0.0
C3 C 0.81397 0.50876 0.28225 0.0
C4 C 0.80141 0.53036 0.30529 0.0
C5 C 0.77694 0.53551 0.25562 0.0
H6 H 0.70519 0.51161 0.93352 0.0
C7 C 0.80174 0.50137 0.21017 0.0
C8 C 0.77931 0.51604 0.19496 0.0
H9 H 0.68169 0.5535 0.11626 0.0
H10 H 0.724 0.54629 0.1824 0.0
H11 H 0.76917 0.5448 0.92519 0.0
H12 H 0.72425 0.45376 0.04016 0.0
H13 H 0.75467 0.45049 0.99109 0.0
H14 H 0.72792 0.46609 0.93859 0.0
H15 H 0.76265 0.51173 0.87824 0.0
H16 H 0.79431 0.52219 0.93167 0.0
C17 C 0.78248 0.57067 0.22133 0.0
C18 C 0.74877 0.52238 0.30415 0.0
C19 C 0.86031 0.46045 0.03841 0.0
C20 C 0.85985 0.46075 0.95967 0.0
C21 C 0.83495 0.46395 0.92087 0.0
C22 C 0.812 0.46969 0.95874 0.0
C23 C 0.81427 0.47292 0.03567 0.0
C24 C 0.83779 0.46736 0.07474 0.0
C25 C 0.83817 0.4748 0.15365 0.0
C26 C 0.81151 0.48695 0.15446 0.0
C27 C 0.79754 0.48563 0.08554 0.0
C28 C 0.86574 0.50055 0.15931 0.0
C29 C 0.83566 0.44407 0.21189 0.0
C30 C 0.70896 0.51903 0.98803 0.0
C31 C 0.68987 0.53301 0.01957 0.0
C32 C 0.6961 0.54298 0.09 0.0
C33 C 0.72046 0.5384 0.12898 0.0
C34 C 0.73881 0.52361 0.09757 0.0
C35 C 0.73301 0.51437 0.02801 0.0
C36 C 0.75492 0.49906 1.00321 0.0
C37 C 0.77359 0.4986 0.07188 0.0
C38 C 0.76441 0.51356 0.12643 0.0
C39 C 0.77108 0.52027 0.93068 0.0
C40 C 0.73979 0.46558 0.99213 0.0
H41 H 0.8436 0.47945 0.31406 0.0
H42 H 0.80252 0.56263 0.38336 0.0
H43 H 0.75111 0.50477 0.35458 0.0
H44 H 0.7314 0.50976 0.27223 0.0
H45 H 0.74168 0.54123 0.32549 0.0
H46 H 0.80444 0.5796 0.19563 0.0
H47 H 0.78027 0.58445 0.26594 0.0
H48 H 0.76782 0.57551 0.17568 0.0
H49 H 0.87926 0.45851 0.06956 0.0
H50 H 0.83402 0.464 0.8602 0.0
H51 H 0.79406 0.4731 0.92569 0.0
H52 H 0.8688 0.51941 0.1082 0.0
H53 H 0.8848 0.49077 0.16301 0.0
H54 H 0.86564 0.51226 0.20839 0.0
H55 H 0.82742 0.42298 0.18584 0.0
H56 H 0.82027 0.44178 0.25948 0.0
H57 H 0.85666 0.44247 0.23551 0.0
H58 H 0.86102 0.50282 0.42211 0.0
C59 C 0.83426 0.49732 0.32725 0.0
C60 C 0.98113 0.83538 0.03941 0.0
C61 C 0.97062 0.86037 0.05504 0.0
C62 C 0.94701 0.85405 0.10648 0.0
C63 C 0.95218 0.80181 0.14468 0.0
C64 C 0.97092 0.80582 0.08426 0.0
C65 C 0.98057 0.77657 0.08256 0.0
H66 H 0.02289 0.65559 0.24425 0.0
C67 C 0.95415 0.77388 0.19828 0.0
C68 C 0.96689 0.75652 0.1579 0.0
H69 H 0.97586 0.66088 0.03643 0.0
H70 H 0.95742 0.70263 0.07268 0.0
H71 H 0.043 0.73871 0.24459 0.0
H72 H 0.96811 0.67138 0.35798 0.0
H73 H 0.99187 0.69413 0.4161 0.0
H74 H 1.00306 0.66484 0.37557 0.0
H75 H 0.04712 0.70513 0.31154 0.0
H76 H 0.03831 0.73743 0.34403 0.0
C77 C 0.01344 0.78345 0.08252 0.0
C78 C 0.96906 0.76344 0.01121 0.0
C79 C 0.96687 0.79722 0.4634 0.0
C80 C 0.98869 0.79543 0.51426 0.0
C81 C 0.00616 0.77495 0.50594 0.0
C82 C 1.00188 0.75716 0.44632 0.0
C83 C 0.98132 0.76162 0.39183 0.0
C84 C 0.96505 0.78243 0.40035 0.0
C85 C 0.95053 0.79227 0.32941 0.0
C86 C 0.95878 0.7721 0.27764 0.0
C87 C 0.97606 0.753 0.31484 0.0
C88 C 0.96291 0.82811 0.3014 0.0
C89 C 0.91806 0.78339 0.34621 0.0
C90 C 0.00942 0.66644 0.20541 0.0
C91 C 1.00204 0.65616 0.13499 0.0
C92 C 0.98312 0.66956 0.08794 0.0
C93 C 0.97341 0.69417 0.10649 0.0
C94 C 0.98382 0.7065 0.17026 0.0
C95 C 0.99931 0.69178 0.22275 0.0
C96 C 1.00274 0.7073 0.29366 0.0
C97 C 0.98488 0.73167 0.27415 0.0
C98 C 0.97675 0.73186 0.19897 0.0
C99 C 0.03454 0.72302 0.29919 0.0
C100 C 0.99078 0.68304 0.36508 0.0
H101 H 0.91984 0.82001 0.19116 0.0
H102 H 0.99788 0.83922 0.99641 0.0
H103 H 0.9725 0.78237 0.96028 0.0
H104 H 0.94582 0.7524 0.01837 0.0
H105 H 0.98057 0.74636 0.99786 0.0
H106 H 0.02176 0.79426 0.13227 0.0
H107 H 0.02314 0.79953 0.02967 0.0
H108 H 0.02063 0.76157 0.08539 0.0
H109 H 0.95386 0.81358 0.46639 0.0
H110 H 0.0234 0.77327 0.54423 0.0
H111 H 0.01553 0.74188 0.44193 0.0
H112 H 0.97927 0.83282 0.25473 0.0
H113 H 0.9739 0.8406 0.34583 0.0
H114 H 0.94595 0.84028 0.28345 0.0
H115 H 0.91086 0.75886 0.37708 0.0
H116 H 0.90604 0.78495 0.29332 0.0
H117 H 0.9121 0.79896 0.38193 0.0
H118 H 0.93759 0.87253 0.11725 0.0
C119 C 0.9372 0.82426 0.15031 0.0
C120 C 0.85824 0.04165 0.06031 0.0
C121 C 0.86956 0.05177 0.98452 0.0
C122 C 0.85366 0.06678 0.93031 0.0
C123 C 0.81799 0.0642 0.02701 0.0
C124 C 0.83235 0.04792 0.0801 0.0
C125 C 0.81652 0.03842 0.15688 0.0
H126 H 0.70784 0.05474 0.37712 0.0
C127 C 0.79333 0.06951 0.06581 0.0
C128 C 0.79241 0.05496 0.14266 0.0
H129 H 0.76 0.98932 0.43648 0.0
H130 H 0.78748 1.01008 0.316 0.0
H131 H 0.75857 0.11512 0.2857 0.0
H132 H 0.69745 0.06452 0.15109 0.0
H133 H 0.68632 0.07799 0.23262 0.0
H134 H 0.69229 0.03983 0.23977 0.0
H135 H 0.72104 0.11252 0.2916 0.0
H136 H 0.74192 0.13003 0.20451 0.0
C137 C 0.83644 0.05082 0.21835 0.0
C138 C 0.80518 1.00245 0.17232 0.0
C139 C 0.72216 0.12029 0.91625 0.0
C140 C 0.69668 0.12633 0.9403 0.0
C141 C 0.6932 0.12847 0.01743 0.0
C142 C 0.71248 0.12031 0.07097 0.0
C143 C 0.73523 0.10946 0.04761 0.0
C144 C 0.74106 0.11167 0.97108 0.0
C145 C 0.76697 0.09994 0.95783 0.0
C146 C 0.77344 0.08722 0.03919 0.0
C147 C 0.75439 0.09241 0.09098 0.0
C148 C 0.79098 0.12825 0.92012 0.0
C149 C 0.75842 0.07356 0.91018 0.0
C150 C 0.72556 0.0453 0.36484 0.0
C151 C 0.73211 0.02084 0.41604 0.0
C152 C 0.75474 1.00837 0.39748 0.0
C153 C 0.77036 0.02019 0.32746 0.0
C154 C 0.76255 0.04391 0.27496 0.0
C155 C 0.74035 0.05584 0.29469 0.0
C156 C 0.73226 0.07807 0.23067 0.0
C157 C 0.75292 0.07746 0.16817 0.0
C158 C 0.77128 0.05813 0.19413 0.0
C159 C 0.73851 0.1107 0.25403 0.0
C160 C 0.70053 0.06473 0.21249 0.0
H161 H 0.8176 0.08513 0.90718 0.0
H162 H 0.86948 0.02977 0.10377 0.0
H163 H 0.79881 0.99365 0.11864 0.0
H164 H 0.78575 0.99449 0.20958 0.0
H165 H 0.82172 0.99081 0.19782 0.0
H166 H 0.84654 0.07614 0.20002 0.0
H167 H 0.85366 0.03826 0.22855 0.0
H168 H 0.82495 0.04826 0.27314 0.0
H169 H 0.72601 0.11952 0.85705 0.0
H170 H 0.67412 0.1333 0.03836 0.0
H171 H 0.70768 0.12053 0.12927 0.0
H172 H 0.78737 0.15081 0.93036 0.0
H173 H 0.79243 0.12965 0.85749 0.0
H174 H 0.81204 0.12754 0.94401 0.0
H175 H 0.73746 0.05766 0.93114 0.0
H176 H 0.77351 0.05849 0.91398 0.0
H177 H 0.75656 0.08335 0.84925 0.0
H178 H 0.86075 0.07365 0.87108 0.0
C179 C 0.82831 0.07332 0.95123 0.0
C180 C 0.57611 0.7368 0.51339 0.0
C181 C 0.59241 0.71526 0.54495 0.0
C182 C 0.62208 0.72359 0.52849 0.0
C183 C 0.6169 0.76652 0.43305 0.0
C184 C 0.58942 0.76321 0.45781 0.0
C185 C 0.57857 0.79105 0.41742 0.0
H186 H 0.599 0.90741 0.09738 0.0
C187 C 0.62374 0.79047 0.36523 0.0
C188 C 0.60254 0.80724 0.35658 0.0
H189 H 0.53759 0.89597 0.28097 0.0
H190 H 0.5543 0.85145 0.34816 0.0
H191 H 0.6521 0.90064 0.20003 0.0
H192 H 0.59142 0.84898 0.07498 0.0
H193 H 0.61123 0.82082 0.09972 0.0
H194 H 0.62739 0.85845 0.04207 0.0
H195 H 0.65018 0.90285 0.09869 0.0
H196 H 0.6699 0.87818 0.15513 0.0
C197 C 0.57655 0.81182 0.47631 0.0
C198 C 0.54985 0.77945 0.38156 0.0
C199 C 0.66502 0.75726 0.14796 0.0
C200 C 0.66457 0.76947 0.06995 0.0
C201 C 0.66811 0.80192 0.04723 0.0
C202 C 0.66597 0.82041 0.10145 0.0
C203 C 0.6589 0.8058 0.17742 0.0
C204 C 0.6612 0.77556 0.20114 0.0
C205 C 0.65278 0.7638 0.28405 0.0
C206 C 0.64187 0.79112 0.30298 0.0
C207 C 0.64395 0.81455 0.23869 0.0
C208 C 0.67958 0.7588 0.32728 0.0
C209 C 0.62884 0.73315 0.29246 0.0
C210 C 0.58947 0.8964 0.15315 0.0
C211 C 0.5674 0.90633 0.18384 0.0
C212 C 0.55482 0.88931 0.25522 0.0
C213 C 0.56473 0.86371 0.29488 0.0
C214 C 0.58759 0.85505 0.26343 0.0
C215 C 0.59929 0.87156 0.19339 0.0
C216 C 0.62286 0.85975 0.16543 0.0
C217 C 0.62524 0.83478 0.23269 0.0
C218 C 0.60416 0.83119 0.2903 0.0
C219 C 0.65027 0.88673 0.15357 0.0
C220 C 0.61297 0.84633 0.09199 0.0
H221 H 0.65718 0.75626 0.46383 0.0
H222 H 0.55376 0.73252 0.5291 0.0
H223 H 0.55188 0.76334 0.3423 0.0
H224 H 0.54237 0.79909 0.34852 0.0
H225 H 0.53327 0.7667 0.42625 0.0
H226 H 0.59679 0.81695 0.50694 0.0
H227 H 0.55905 0.79985 0.51915 0.0
H228 H 0.5728 0.83454 0.44992 0.0
H229 H 0.66352 0.73262 0.16678 0.0
H230 H 0.66909 0.81218 0.98735 0.0
H231 H 0.66739 0.84472 0.08157 0.0
H232 H 0.6953 0.75346 0.28979 0.0
H233 H 0.67434 0.73833 0.37426 0.0
H234 H 0.69052 0.77994 0.35023 0.0
H235 H 0.61038 0.73692 0.25784 0.0
H236 H 0.62104 0.7241 0.35201 0.0
H237 H 0.63658 0.71413 0.27412 0.0
H238 H 0.63563 0.70938 0.55659 0.0
C239 C 0.63445 0.74962 0.47379 0.0
C240 C 0.35572 0.5391 0.64651 0.0
C241 C 0.37027 0.54859 0.71028 0.0
C242 C 0.3586 0.56624 0.75373 0.0
C243 C 0.31994 0.56672 0.66674 0.0
C244 C 0.33082 0.54857 0.62552 0.0
C245 C 0.31346 0.54181 0.55728 0.0
H246 H 0.19716 0.55707 0.35468 0.0
C247 C 0.29548 0.57506 0.62614 0.0
C248 C 0.29187 0.56109 0.56095 0.0
H249 H 0.25269 0.49737 0.328 0.0
H250 H 0.28428 0.51992 0.42141 0.0
H251 H 0.19797 0.54594 0.54373 0.0
H252 H 0.23978 0.6166 0.35854 0.0
H253 H 0.24433 0.63566 0.43778 0.0
H254 H 0.20891 0.62057 0.40631 0.0
H255 H 0.18147 0.56771 0.46994 0.0
H256 H 0.1935 0.58331 0.5521 0.0
C257 C 0.29933 0.50629 0.57053 0.0
C258 C 0.33298 0.55389 0.48459 0.0
C259 C 0.22794 0.62469 0.7471 0.0
C260 C 0.20323 0.6335 0.71859 0.0
C261 C 0.2007 0.64045 0.63895 0.0
C262 C 0.2194 0.63322 0.58991 0.0
C263 C 0.24022 0.61835 0.62099 0.0
C264 C 0.2464 0.61742 0.6967 0.0
C265 C 0.27222 0.60461 0.71572 0.0
C266 C 0.27723 0.59382 0.64167 0.0
C267 C 0.2575 0.6009 0.58785 0.0
C268 C 0.26437 0.57683 0.78319 0.0
C269 C 0.29711 0.63169 0.73149 0.0
C270 C 0.21614 0.54885 0.36923 0.0
C271 C 0.2222 0.52502 0.33595 0.0
C272 C 0.2475 0.51551 0.35396 0.0
C273 C 0.26555 0.52839 0.40858 0.0
C274 C 0.25802 0.5508 0.44542 0.0
C275 C 0.23397 0.56111 0.42394 0.0
C276 C 0.22832 0.58418 0.46964 0.0
C277 C 0.25274 0.58565 0.52401 0.0
C278 C 0.26988 0.56582 0.51032 0.0
C279 C 0.19882 0.56974 0.51123 0.0
C280 C 0.23029 0.61587 0.41559 0.0
H281 H 0.32588 0.58924 0.76651 0.0
H282 H 0.36392 0.52517 0.61255 0.0
H283 H 0.34736 0.57716 0.48721 0.0
H284 H 0.32093 0.55733 0.43234 0.0
H285 H 0.34649 0.53765 0.47817 0.0
H286 H 0.29386 0.49689 0.63198 0.0
H287 H 0.31385 0.49314 0.55145 0.0
H288 H 0.27889 0.5006 0.54208 0.0
H289 H 0.23126 0.62073 0.80771 0.0
H290 H 0.18247 0.64803 0.6145 0.0
H291 H 0.21544 0.63688 0.53032 0.0
H292 H 0.24417 0.56022 0.77274 0.0
H293 H 0.26142 0.58509 0.837 0.0
H294 H 0.28072 0.5633 0.79215 0.0
H295 H 0.29294 0.65502 0.71063 0.0
H296 H 0.31722 0.63219 0.7014 0.0
H297 H 0.30085 0.63005 0.79339 0.0
H298 H 0.36947 0.57403 0.80268 0.0
C299 C 0.33357 0.57543 0.73211 0.0
C300 C 0.08353 0.26134 0.65521 0.0
C301 C 0.0902 0.2341 0.63989 0.0
C302 C 0.11356 0.23693 0.59011 0.0
C303 C 0.11488 0.29118 0.55019 0.0
C304 C 0.09676 0.29004 0.61008 0.0
C305 C 0.09053 0.32128 0.60958 0.0
H306 H 0.04876 0.43937 0.44545 0.0
C307 C 0.11521 0.31937 0.49445 0.0
C308 C 0.10462 0.3391 0.53259 0.0
H309 H 0.09682 0.43566 0.65163 0.0
H310 H 0.11674 0.3951 0.61366 0.0
H311 H 0.1061 0.42438 0.33164 0.0
H312 H 0.02979 0.35878 0.44212 0.0
H313 H 0.03516 0.35907 0.34347 0.0
H314 H 0.02667 0.39215 0.37289 0.0
H315 H 0.07163 0.43206 0.31259 0.0
H316 H 0.08239 0.40252 0.2721 0.0
C317 C 0.1044 0.3344 0.67885 0.0
C318 C 0.058 0.31815 0.61171 0.0
C319 C 0.10126 0.29469 0.23037 0.0
C320 C 0.08098 0.29911 0.17637 0.0
C321 C 0.06567 0.32188 0.18201 0.0
C322 C 0.07057 0.33946 0.24197 0.0
C323 C 0.08952 0.33264 0.29923 0.0
C324 C 0.10371 0.30973 0.29311 0.0
C325 C 0.11676 0.29867 0.36554 0.0
C326 C 0.11056 0.3207 0.41517 0.0
C327 C 0.09515 0.34148 0.37593 0.0
C328 C 0.14912 0.30392 0.35093 0.0
C329 C 0.10128 0.26362 0.39447 0.0
C330 C 0.06291 0.42922 0.48343 0.0
C331 C 0.07 0.43938 0.55412 0.0
C332 C 0.08978 0.42698 0.59997 0.0
C333 C 0.1004 0.40311 0.58041 0.0
C334 C 0.09011 0.39062 0.51677 0.0
C335 C 0.07403 0.40473 0.46498 0.0
C336 C 0.07066 0.38912 0.39427 0.0
C337 C 0.08806 0.36434 0.41469 0.0
C338 C 0.09676 0.36476 0.48933 0.0
C339 C 0.08336 0.41336 0.32341 0.0
C340 C 0.03881 0.37395 0.38736 0.0
H341 H 0.14359 0.2676 0.50614 0.0
H342 H 0.06672 0.25998 0.69616 0.0
H343 H 0.04791 0.30731 0.5636 0.0
H344 H 0.05321 0.34135 0.60764 0.0
H345 H 0.04786 0.30362 0.66595 0.0
H346 H 0.10093 0.31582 0.73054 0.0
H347 H 0.09463 0.35268 0.69332 0.0
H348 H 0.12776 0.34395 0.66858 0.0
H349 H 0.11247 0.27654 0.22932 0.0
H350 H 0.0496 0.32555 0.14125 0.0
H351 H 0.05856 0.35652 0.24414 0.0
H352 H 0.15841 0.32787 0.31868 0.0
H353 H 0.15352 0.28682 0.3174 0.0
H354 H 0.16057 0.30172 0.40468 0.0
H355 H 0.08517 0.26104 0.44063 0.0
H356 H 0.11653 0.24922 0.41346 0.0
H357 H 0.08918 0.25194 0.35018 0.0
H358 H 0.12045 0.21649 0.58156 0.0
C359 C 0.12654 0.26594 0.5461 0.0
C360 C 0.34279 0.12327 0.37089 0.0
C361 C 0.37193 0.12679 0.35242 0.0
C362 C 0.39012 0.11919 0.41062 0.0
C363 C 0.34994 0.09861 0.49925 0.0
C364 C 0.33243 0.10992 0.44615 0.0
C365 C 0.30285 0.10548 0.48084 0.0
H366 H 0.20607 0.03109 0.77106 0.0
C367 C 0.33253 0.08107 0.56706 0.0
C368 C 0.30506 0.08584 0.55907 0.0
H369 H 0.19837 0.10477 0.58533 0.0
H370 H 0.24588 0.10822 0.53883 0.0
H371 H 0.24189 0.99558 0.67089 0.0
H372 H 0.26886 0.06532 0.81315 0.0
H373 H 0.28982 0.03802 0.83164 0.0
H374 H 0.25194 0.02536 0.85262 0.0
H375 H 0.23403 0.98765 0.77166 0.0
H376 H 0.26748 0.98494 0.73396 0.0
C377 C 0.28057 0.08736 0.43228 0.0
C378 C 0.2984 0.13806 0.48735 0.0
C379 C 0.37223 1.0006 0.73714 0.0
C380 C 0.36284 0.9799 0.80538 0.0
C381 C 0.33542 0.97748 0.83575 0.0
C382 C 0.31776 0.99571 0.79788 0.0
C383 C 0.3281 0.01714 0.73042 0.0
C384 C 0.35507 0.01927 0.70199 0.0
C385 C 0.36456 0.04543 0.636 0.0
C386 C 0.33805 0.05782 0.62579 0.0
C387 C 0.31664 0.04114 0.68062 0.0
C388 C 0.37119 0.03091 0.56769 0.0
C389 C 0.39037 0.06969 0.6601 0.0
C390 C 0.21457 0.04827 0.72096 0.0
C391 C 0.19786 0.06724 0.68162 0.0
C392 C 0.21016 0.08915 0.61612 0.0
C393 C 0.23792 0.09149 0.58933 0.0
C394 C 0.25401 0.07212 0.62869 0.0
C395 C 0.24248 0.05124 0.69391 0.0
C396 C 0.26335 0.03352 0.73004 0.0
C397 C 0.28941 0.0479 0.67711 0.0
C398 C 0.28367 0.07019 0.61683 0.0
C399 C 0.25117 0.99849 0.72716 0.0
C400 C 0.26878 0.0406 0.81141 0.0
H401 H 0.39414 0.09919 0.52458 0.0
H402 H 0.32857 0.13005 0.32772 0.0
H403 H 0.31895 0.1561 0.48354 0.0
H404 H 0.28854 0.13804 0.54316 0.0
H405 H 0.28501 0.14632 0.44127 0.0
H406 H 0.28621 0.06552 0.42397 0.0
H407 H 0.27959 0.10169 0.3753 0.0
H408 H 0.25897 0.0805 0.45929 0.0
H409 H 0.39381 1.00443 0.71479 0.0
H410 H 0.32814 0.96239 0.88982 0.0
H411 H 0.29722 0.99327 0.82387 0.0
H412 H 0.35262 1.01208 0.55739 0.0
H413 H 0.38977 0.02052 0.579 0.0
H414 H 0.37618 0.04773 0.51395 0.0
H415 H 0.39331 0.06564 0.72263 0.0
H416 H 0.38751 0.09386 0.64658 0.0
H417 H 0.4106 0.06888 0.63248 0.0
H418 H 0.41263 0.1221 0.39847 0.0
C419 C 0.37931 0.10535 0.48379 0.0
C420 C 0.48116 0.32748 0.15558 0.0
C421 C 0.46534 0.34824 0.11703 0.0
C422 C 0.43527 0.33862 0.12274 0.0
C423 C 0.43793 0.29656 0.22386 0.0
C424 C 0.46643 0.30077 0.20809 0.0
C425 C 0.47681 0.27396 0.2554 0.0
H426 H 0.4534 0.16783 0.59282 0.0
C427 C 0.4297 0.27432 0.29462 0.0
C428 C 0.45149 0.25872 0.31258 0.0
H429 H 0.51628 0.17295 0.41742 0.0
H430 H 0.4996 0.21486 0.33839 0.0
H431 H 0.46379 0.23162 0.59179 0.0
H432 H 0.39897 0.17316 0.48579 0.0
H433 H 0.38337 0.19746 0.53087 0.0
H434 H 0.40345 0.17296 0.58595 0.0
H435 H 0.42861 0.21992 0.63243 0.0
H436 H 0.44097 0.2564 0.56627 0.0
C437 C 0.5044 0.28675 0.295 0.0
C438 C 0.48069 0.25184 0.2014 0.0
C439 C 0.3779 0.31481 0.47955 0.0
C440 C 0.38455 0.31228 0.55694 0.0
C441 C 0.38549 0.28234 0.59636 0.0
C442 C 0.38795 0.25903 0.55569 0.0
C443 C 0.39174 0.26678 0.47615 0.0
C444 C 0.38488 0.29355 0.4385 0.0
C445 C 0.39468 0.3013 0.35589 0.0
C446 C 0.41009 0.27545 0.352 0.0
C447 C 0.40884 0.25599 0.42311 0.0
C448 C 0.41538 0.33442 0.34119 0.0
C449 C 0.36827 0.2993 0.30573 0.0
C450 C 0.46312 0.17672 0.53637 0.0
C451 C 0.48587 0.16604 0.51181 0.0
C452 C 0.49868 0.18037 0.43885 0.0
C453 C 0.48875 0.20441 0.39222 0.0
C454 C 0.46563 0.21424 0.4181 0.0
C455 C 0.45333 0.20013 0.48924 0.0
C456 C 0.43033 0.21422 0.51149 0.0
C457 C 0.42815 0.23651 0.43845 0.0
C458 C 0.44946 0.23753 0.38386 0.0
C459 C 0.44121 0.23135 0.57888 0.0
C460 C 0.40249 0.18813 0.53011 0.0
H461 H 0.39859 0.30537 0.17891 0.0
H462 H 0.5041 0.33278 0.14803 0.0
H463 H 0.46158 0.24633 0.16651 0.0
H464 H 0.48342 0.22926 0.23205 0.0
H465 H 0.49945 0.2629 0.16194 0.0
H466 H 0.50106 0.30377 0.33027 0.0
H467 H 0.52194 0.29876 0.25238 0.0
H468 H 0.51137 0.26781 0.33273 0.0
H469 H 0.37352 0.33613 0.44901 0.0
H470 H 0.38805 0.27785 0.65719 0.0
H471 H 0.38997 0.23719 0.58774 0.0
H472 H 0.43288 0.33577 0.38215 0.0
H473 H 0.40399 0.35265 0.34682 0.0
H474 H 0.42529 0.34145 0.28368 0.0
H475 H 0.34903 0.30029 0.33795 0.0
H476 H 0.36291 0.27717 0.2828 0.0
H477 H 0.37156 0.31934 0.25761 0.0
H478 H 0.42245 0.35241 0.08932 0.0
C479 C 0.42146 0.31228 0.17499 0.0
Nd480 Nd 0.021 0.03789 0.76945 0.0
Nd481 Nd 0.04157 0.05834 0.90985 0.0
C482 C 0.99828 1.00181 0.66999 0.0
C483 C 0.99847 0.96957 0.65935 0.0
C484 C 0.97385 0.95003 0.63624 0.0
C485 C 0.97383 0.91988 0.62425 0.0
C486 C 0.99851 0.90835 0.63487 0.0
C487 C 0.02312 0.92792 0.6588 0.0
C488 C 0.02306 0.95804 0.67127 0.0
C489 C 0.07942 0.05656 0.76682 0.0
C490 C 0.02565 0.98649 0.92197 0.0
C491 C 0.06597 0.09406 1.00819 0.0
C492 C 0.06594 0.12608 0.02178 0.0
C493 C 0.07741 0.15317 0.96751 0.0
C494 C 0.0773 0.18301 0.98193 0.0
C495 C 0.06559 0.18667 0.05083 0.0
C496 C 0.05384 0.15948 0.1045 0.0
C497 C 0.05409 0.12971 0.09026 0.0
C498 C 0.98293 0.0415 0.90901 0.0
C499 C 0.03154 0.10975 0.76186 0.0
O500 O 0.98412 1.0044 0.7295 0.0
O501 O 0.02242 0.02292 0.65768 0.0
O502 O 0.06337 0.06447 0.71253 0.0
O503 O 0.0645 0.03963 0.82436 0.0
O504 O 0.01269 0.99383 0.85925 0.0
O505 O 0.04389 1.00792 0.95113 0.0
O506 O 0.07905 0.09176 0.94642 0.0
O507 O 0.04212 0.07261 0.02337 0.0
O508 O 0.99786 0.0336 0.96614 0.0
O509 O 0.99895 0.0578 0.85323 0.0
O510 O 0.04528 0.10336 0.82402 0.0
O511 O 0.01592 0.08738 0.7296 0.0
H512 H 0.95461 0.95824 0.62659 0.0
H513 H 0.95457 0.90587 0.60471 0.0
H514 H 0.04245 0.9199 0.66829 0.0
H515 H 0.04234 0.97239 0.68985 0.0
H516 H 0.08656 0.15139 0.91381 0.0
H517 H 0.08635 0.20326 0.93888 0.0
H518 H 0.04508 0.1612 0.15874 0.0
H519 H 0.04515 0.10942 0.13335 0.0
Nd520 Nd 0.53875 0.02 0.81327 0.0
Nd521 Nd 0.5187 0.06135 0.90545 0.0
C522 C 0.55858 0.97949 0.75115 0.0
C523 C 0.58596 0.98252 0.7109 0.0
C524 C 0.59443 0.95602 0.69804 0.0
C525 C 0.62048 0.95921 0.65957 0.0
C526 C 0.63857 0.98902 0.63329 0.0
C527 C 0.62994 0.01545 0.64734 0.0
C528 C 0.60405 1.01221 0.68585 0.0
C529 C 0.52563 0.07199 0.72658 0.0
C530 C 0.58572 0.07943 0.84668 0.0
C531 C 0.50336 0.10678 0.95911 0.0
C532 C 0.47993 0.11241 1.00246 0.0
C533 C 0.47872 0.14321 1.00418 0.0
C534 C 0.45765 0.14921 0.04849 0.0
C535 C 0.43733 0.12446 0.09208 0.0
C536 C 0.43813 0.09353 0.08805 0.0
C537 C 0.45921 0.08757 0.04359 0.0
C538 C 0.53165 1.00947 0.99245 0.0
C539 C 0.47216 1.00002 0.88007 0.0
O540 O 0.5601 0.98088 0.82365 0.0
O541 O 0.54181 0.99592 0.71628 0.0
O542 O 0.54772 0.0619 0.71336 0.0
O543 O 0.51122 0.05467 0.78376 0.0
O544 O 0.58164 0.05087 0.83301 0.0
O545 O 0.56429 0.09017 0.86652 0.0
O546 O 0.49785 0.10091 0.89063 0.0
O547 O 0.51891 0.08936 0.99629 0.0
O548 O 0.51024 0.02038 1.00782 0.0
O549 O 0.54602 0.02665 0.93494 0.0
O550 O 0.47602 0.02817 0.89669 0.0
O551 O 0.49313 0.99042 0.85229 0.0
H552 H 0.58089 0.93287 0.71754 0.0
H553 H 0.62644 0.93831 0.6506 0.0
H554 H 0.64283 0.03883 0.62686 0.0
H555 H 0.59799 0.03301 0.69537 0.0
H556 H 0.49442 0.16269 0.97227 0.0
H557 H 0.45754 0.17327 0.04947 0.0
H558 H 0.42317 0.07384 0.12164 0.0
H559 H 0.45974 0.0636 0.04272 0.0
Nd560 Nd 0.52513 0.5469 0.89846 0.0
Nd561 Nd 0.53667 0.51928 0.78035 0.0
C562 C 0.51779 0.58754 0.98064 0.0
C563 C 0.5401 0.61619 0.98142 0.0
C564 C 0.53546 0.64087 0.0137 0.0
C565 C 0.5575 0.66789 0.01174 0.0
C566 C 0.58434 0.67039 0.97753 0.0
C567 C 0.58859 0.64574 0.94424 0.0
C568 C 0.56665 0.619 0.94592 0.0
C569 C 0.57838 0.5348 0.90995 0.0
C570 C 0.55307 0.59245 0.73898 0.0
C571 C 0.54348 0.47983 0.69358 0.0
C572 C 0.5206 0.45294 0.68244 0.0
C573 C 0.52131 0.4382 0.62 0.0
C574 C 0.49733 0.41577 0.60466 0.0
C575 C 0.47232 0.40798 0.65138 0.0
C576 C 0.47215 0.42206 0.7154 0.0
C577 C 0.496 0.44449 0.73044 0.0
C578 C 0.48366 0.53169 0.76814 0.0
C579 C 0.50914 0.47368 0.93962 0.0
O580 O 0.50616 0.5858 0.91483 0.0
O581 O 0.52494 0.56185 0.01049 0.0
O582 O 0.56009 0.52932 0.9658 0.0
O583 O 0.5689 0.54688 0.84909 0.0
O584 O 0.53474 0.58833 0.79614 0.0
O585 O 0.56257 0.56847 0.72695 0.0
O586 O 0.55289 0.4787 0.76253 0.0
O587 O 0.53844 0.50682 0.66592 0.0
O588 O 0.50225 0.53757 0.71296 0.0
O589 O 0.49292 0.51951 0.82931 0.0
O590 O 0.52783 0.4781 0.88311 0.0
O591 O 0.49949 0.49754 0.95194 0.0
H592 H 0.51503 0.63918 0.04063 0.0
H593 H 0.5538 0.68647 0.03872 0.0
H594 H 0.60891 0.64711 0.91711 0.0
H595 H 0.57046 0.60031 0.91959 0.0
H596 H 0.53996 0.44469 0.58196 0.0
H597 H 0.49816 0.4049 0.5554 0.0
H598 H 0.45317 0.41679 0.75188 0.0
H599 H 0.49477 0.45618 0.77797 0.0
Nd600 Nd 0.02473 0.57052 0.79342 0.0
Nd601 Nd 0.0403 0.52029 0.89953 0.0
C602 C 0.99659 0.60974 0.71987 0.0
C603 C 0.97009 0.60236 0.67854 0.0
C604 C 0.95466 0.62482 0.65413 0.0
C605 C 0.92889 0.6166 0.61723 0.0
C606 C 0.91813 0.58571 0.60536 0.0
C607 C 0.93391 0.56349 0.6298 0.0
C608 C 0.95957 0.57174 0.66576 0.0
C609 C 0.04118 0.52813 0.71892 0.0
C610 C 0.97537 0.50682 0.86052 0.0
C611 C 0.0663 0.47896 0.97346 0.0
C612 C 0.08877 0.48068 0.02992 0.0
C613 C 0.11116 0.46625 0.02388 0.0
C614 C 0.13332 0.46925 0.07521 0.0
C615 C 0.13323 0.48652 0.13371 0.0
C616 C 0.11067 0.50078 0.1396 0.0
C617 C 0.08878 0.49803 0.08813 0.0
C618 C 0.02501 0.56351 0.97389 0.0
C619 C 0.08982 0.58416 0.83148 0.0
O620 O 0.99385 0.59992 0.79346 0.0
O621 O 0.0187 0.60358 0.69009 0.0
O622 O 0.04825 0.55814 0.69616 0.0
O623 O 0.02547 0.52106 0.77889 0.0
O624 O 0.98153 0.53731 0.8373 0.0
O625 O 0.99575 0.49237 0.87831 0.0
O626 O 0.07421 0.49433 0.90474 0.0
O627 O 0.04173 0.48223 0.99591 0.0
O628 O 0.01802 0.53361 0.99812 0.0
O629 O 0.04022 0.56991 0.91333 0.0
O630 O 0.08364 0.55369 0.85652 0.0
O631 O 0.06946 0.59858 0.81224 0.0
H632 H 0.96245 0.64857 0.66376 0.0
H633 H 0.91726 0.63425 0.59874 0.0
H634 H 0.92668 0.53971 0.61996 0.0
H635 H 0.97122 0.55407 0.6839 0.0
H636 H 0.11165 0.45297 0.97896 0.0
H637 H 0.15043 0.45802 0.06936 0.0
H638 H 0.11028 0.51479 0.18303 0.0
H639 H 0.07206 0.50988 0.09335 0.0
C640 C 0.15814 0.05588 0.7837 0.0
C641 C 0.1675 0.06369 0.70625 0.0
H642 H 0.12285 0.04725 0.86449 0.0
C643 C 0.14735 0.06807 0.65104 0.0
H644 H 0.17301 0.05246 0.82811 0.0
C645 C 0.11918 0.06577 0.67197 0.0
C646 C 0.10977 0.05829 0.74889 0.0
H647 H 0.15316 0.07303 0.5909 0.0
H648 H 0.10462 0.0696 0.62693 0.0
C649 C 0.12946 0.05302 0.80481 0.0
C650 C 0.52507 0.14003 0.56478 0.0
C651 C 0.49614 0.14088 0.56406 0.0
H652 H 0.55696 0.11777 0.61634 0.0
C653 C 0.47707 0.11815 0.61705 0.0
H654 H 0.54061 0.15708 0.52605 0.0
C655 C 0.48668 0.09632 0.67047 0.0
C656 C 0.51554 0.0958 0.67139 0.0
H657 H 0.45449 0.11702 0.61753 0.0
H658 H 0.47135 0.07948 0.71035 0.0
C659 C 0.53456 0.11764 0.61728 0.0
C660 C 0.41876 0.54744 0.66681 0.0
C661 C 0.39876 0.54261 0.72693 0.0
H662 H 0.46101 0.54788 0.63314 0.0
C663 C 0.40674 0.53354 0.80196 0.0
H664 H 0.41353 0.55502 0.60858 0.0
C665 C 0.43426 0.52941 0.81624 0.0
C666 C 0.45419 0.53463 0.75573 0.0
H667 H 0.39172 0.52961 0.84943 0.0
H668 H 0.44002 0.52256 0.87435 0.0
C669 C 0.44609 0.54357 0.68104 0.0
C670 C 0.04068 0.45174 0.65319 0.0
C671 C 0.05729 0.46203 0.58488 0.0
H672 H 0.0227 0.46432 0.7491 0.0
C673 C 0.06709 0.49431 0.55857 0.0
H674 H 0.03345 0.42696 0.67576 0.0
C675 C 0.06128 0.51579 0.60125 0.0
C676 C 0.04567 0.50541 0.67129 0.0
H677 H 0.08062 0.5029 0.50744 0.0
H678 H 0.06985 0.54053 0.58062 0.0
C679 C 0.03486 0.47312 0.69574 0.0
C680 C 0.91534 0.06983 0.90372 0.0
C681 C 0.89801 0.04774 0.96152 0.0
H682 H 0.95525 0.08469 0.84021 0.0
C683 C 0.90848 0.02234 0.99745 0.0
H684 H 0.90866 0.09021 0.87563 0.0
C685 C 0.9357 0.01977 0.97808 0.0
C686 C 0.95291 0.04211 0.92128 0.0
H687 H 0.89581 1.00447 0.04095 0.0
H688 H 0.94349 1.00047 0.00841 0.0
C689 C 0.94225 0.06681 0.88324 0.0
C690 C 0.57783 0.95798 0.0912 0.0
C691 C 0.55807 0.93396 0.13951 0.0
H692 H 0.58499 0.99962 1.00615 0.0
C693 C 0.52949 0.93606 0.14082 0.0
H694 H 0.60025 0.9583 0.08994 0.0
C695 C 0.52097 0.96077 0.09392 0.0
C696 C 0.54065 0.9837 0.04352 0.0
H697 H 0.51349 0.91821 0.17642 0.0
H698 H 0.49878 0.9615 0.09572 0.0
C699 C 0.56918 0.98204 0.04313 0.0
C700 C 0.65159 0.56164 0.98293 0.0
C701 C 0.6628 0.53556 0.98159 0.0
H702 H 0.61588 0.58193 0.95977 0.0
C703 C 0.64701 0.51091 0.94773 0.0
H704 H 0.66329 0.5812 1.00751 0.0
C705 C 0.62013 0.51169 0.91931 0.0
C706 C 0.60864 0.53712 0.92389 0.0
H707 H 0.65474 0.49026 0.94664 0.0
H708 H 0.60774 0.49174 0.89722 0.0
C709 C 0.62466 0.5623 0.95472 0.0
C710 C 1.00206 0.60017 0.13308 0.0
C711 C 0.01337 0.63219 0.10583 0.0
H712 H 0.9967 0.55328 0.11246 0.0
C713 C 0.03001 0.64119 0.03756 0.0
H714 H 0.98848 0.5926 0.18421 0.0
C715 C 0.03428 0.6189 0.99577 0.0
C716 C 0.02196 0.58694 0.02105 0.0
H717 H 0.0384 0.66576 0.01425 0.0
H718 H 0.0465 0.62681 0.94233 0.0
C719 C 0.0064 0.57775 0.09122 0.0
C720 C 0.06334 0.18109 0.62021 0.0
C721 C 0.07124 0.20307 0.66889 0.0
H722 H 0.04307 0.1337 0.61146 0.0
C723 C 0.06049 0.19535 0.74428 0.0
H724 H 0.0706 0.18687 0.56099 0.0
C725 C 0.04411 0.16535 0.77215 0.0
C726 C 0.03834 0.14261 0.72525 0.0
H727 H 0.06596 0.21188 0.7828 0.0
H728 H 0.03776 0.15921 0.83206 0.0
C729 C 0.04693 0.15099 0.64824 0.0
C730 C 0.39365 0.98045 0.91532 0.0
C731 C 0.38486 0.9678 0.85014 0.0
H732 H 0.42935 1.00073 0.97652 0.0
C733 C 0.40397 0.95561 0.8127 0.0
H734 H 0.37935 0.98977 0.9457 0.0
C735 C 0.43288 0.9624 0.82942 0.0
C736 C 0.44255 0.98093 0.88446 0.0
H737 H 0.39753 0.94543 0.76264 0.0
H738 H 0.44786 0.95681 0.79267 0.0
C739 C 0.42246 0.9872 0.9321 0.0
C740 C 0.40676 0.34021 0.66308 0.0
C741 C 0.40081 0.34092 0.58538 0.0
H742 H 0.43453 0.36039 0.74503 0.0
C743 C 0.416 0.36697 0.53249 0.0
H744 H 0.39515 0.32144 0.7064 0.0
C745 C 0.43828 0.38922 0.55492 0.0
C746 C 0.44615 0.38643 0.63084 0.0
H747 H 0.41264 0.3694 0.47214 0.0
H748 H 0.45015 0.40804 0.51191 0.0
C749 C 0.42932 0.36265 0.68552 0.0
C750 C 0.15645 0.64434 0.75014 0.0
C751 C 0.17714 0.62714 0.76806 0.0
H752 H 0.11219 0.6441 0.75595 0.0
C753 C 0.16963 0.59887 0.82052 0.0
H754 H 0.16168 0.66651 0.71118 0.0
C755 C 0.1414 0.58612 0.84609 0.0
C756 C 0.12008 0.60136 0.81997 0.0
H757 H 0.18484 0.58485 0.83582 0.0
H758 H 0.13604 0.56319 0.88189 0.0
C759 C 0.12808 0.63148 0.77568 0.0
C760 C 0.01541 0.90289 0.02084 0.0
C761 C 0.98537 0.89297 0.02301 0.0
H762 H 0.05228 0.94119 0.9883 0.0
C763 C 0.96944 0.9148 0.99839 0.0
H764 H 0.02817 0.88654 0.04112 0.0
C765 C 0.98312 0.94569 0.97047 0.0
C766 C 0.01303 0.95547 0.96598 0.0
H767 H 0.94637 0.90791 0.99916 0.0
H768 H 0.97021 0.96188 0.94989 0.0
C769 C 0.02922 0.93411 0.9924 0.0
C770 C 0.66554 0.09804 0.85023 0.0
C771 C 0.67121 0.12244 0.89237 0.0
H772 H 0.63399 0.06561 0.80159 0.0
C773 C 0.64939 0.13734 0.90268 0.0
H774 H 0.68162 0.08589 0.8407 0.0
C775 C 0.6216 0.12503 0.88171 0.0
C776 C 0.61537 0.09794 0.84912 0.0
H777 H 0.65322 0.15682 0.93284 0.0
H778 H 0.60476 0.13526 0.89653 0.0
C779 C 0.63794 0.086 0.82864 0.0
C780 C 0.65567 0.71814 0.02563 0.0
C781 C 0.65003 0.74772 0.02031 0.0
H782 H 0.6389 0.67015 0.01698 0.0
C783 C 0.62482 0.75282 0.98637 0.0
H784 H 0.67489 0.71357 0.05151 0.0
C785 C 0.6041 0.72796 0.9676 0.0
C786 C 0.60836 0.69767 0.98139 0.0
H787 H 0.61964 0.77524 0.98197 0.0
H788 H 0.58401 0.73206 0.94681 0.0
C789 C 0.63497 0.69328 1.0063 0.0
C790 C 0.90793 0.44979 0.94734 0.0
C791 C 0.88735 0.46565 0.91768 0.0
H792 H 0.95234 0.45035 0.95185 0.0
C793 C 0.89555 0.49153 0.85845 0.0
H794 H 0.90215 0.42963 0.99271 0.0
C795 C 0.92417 0.50354 0.8359 0.0
C796 C 0.94512 0.4897 0.87138 0.0
H797 H 0.88034 0.50446 0.83467 0.0
H798 H 0.93002 0.52491 0.79425 0.0
C799 C 0.93665 0.46167 0.92409 0.0
C800 C 0.09531 0.27082 0.07957 0.0
C801 C 0.07366 0.27563 0.12484 0.0
H802 H 0.10985 0.23935 0.021 0.0
C803 C 0.04787 0.25251 0.13718 0.0
H804 H 0.11567 0.28787 0.07047 0.0
C805 C 0.04464 0.2243 0.10987 0.0
C806 C 0.06707 0.21854 0.06911 0.0
H807 H 0.03104 0.25514 0.17322 0.0
H808 H 0.02494 0.20645 0.1235 0.0
C809 C 0.09201 0.2428 0.05168 0.0
C810 C 0.37276 0.11288 0.22361 0.0
C811 C 0.38363 0.13371 0.27303 0.0
H812 H 0.38114 0.0937 0.12681 0.0
C813 C 0.41008 0.15527 0.25418 0.0
H814 H 0.35257 0.09581 0.2372 0.0
C815 C 0.42668 0.15375 0.19186 0.0
C816 C 0.41717 0.13062 0.14698 0.0
H817 H 0.41903 0.17146 0.29164 0.0
H818 H 0.4479 0.16905 0.18293 0.0
C819 C 0.3894 0.11129 0.16125 0.0
C820 C 0.50092 0.38667 0.01995 0.0
C821 C 0.47877 0.38059 0.07507 0.0
H822 H 0.52759 0.42058 0.93335 0.0
C823 C 0.46776 0.40579 0.08756 0.0
H824 H 0.50983 0.3679 0.00864 0.0
C825 C 0.47786 0.43591 0.0448 0.0
C826 C 0.4993 0.44188 0.98784 0.0
H827 H 0.45094 0.40212 0.13034 0.0
H828 H 0.46848 0.45441 0.05569 0.0
C829 C 0.51093 0.4169 0.97654 0.0
C830 C 0.20738 0.50896 0.21069 0.0
C831 C 0.20073 0.50942 0.28677 0.0
H832 H 0.19094 0.50135 0.1017 0.0
C833 C 0.17228 0.49834 0.31404 0.0
H834 H 0.22917 0.51751 0.18846 0.0
C835 C 0.15059 0.48919 0.26503 0.0
C836 C 0.15682 0.49089 0.18751 0.0
H837 H 0.16669 0.49812 0.37283 0.0
H838 H 0.12877 0.48197 0.28722 0.0
C839 C 0.18553 0.49974 0.16125 0.0
C840 C 0.97256 0.8233 0.6093 0.0
C841 C 0.99488 0.81939 0.56487 0.0
H842 H 0.95624 0.85388 0.66679 0.0
C843 C 0.02005 0.84348 0.55272 0.0
H844 H 0.95277 0.80535 0.61905 0.0
C845 C 0.02192 0.87171 0.57907 0.0
C846 C 0.9986 0.8766 0.61802 0.0
H847 H 0.03737 0.84157 0.51729 0.0
H848 H 0.04092 0.89047 0.56424 0.0
C849 C 0.97439 0.85142 0.63549 0.0
C850 C 0.71269 0.02498 0.54156 0.0
C851 C 0.7129 1.00736 0.48408 0.0
H852 H 0.68966 0.03238 0.63559 0.0
C853 C 0.6902 0.98121 0.482 0.0
H854 H 0.72974 0.04557 0.54346 0.0
C855 C 0.66674 0.97409 0.53329 0.0
C856 C 0.66552 0.99302 0.5878 0.0
H857 H 0.68957 0.96777 0.4369 0.0
H858 H 0.64877 0.95507 0.52657 0.0
C859 C 0.68943 0.01771 0.59335 0.0
C860 C 0.58902 0.65754 0.57714 0.0
C861 C 0.57985 0.68359 0.59197 0.0
H862 H 0.58815 0.60899 0.61104 0.0
C863 C 0.56084 0.67908 0.65436 0.0
H864 H 0.60336 0.65994 0.52897 0.0
C865 C 0.55211 0.64954 0.70196 0.0
C866 C 0.56201 0.62376 0.68803 0.0
H867 H 0.55348 0.69854 0.66781 0.0
H868 H 0.53786 0.64704 0.75035 0.0
C869 C 0.58031 0.62819 0.62434 0.0
C870 C 0.8515 0.53461 0.54077 0.0
C871 C 0.84846 0.5517 0.46873 0.0
H872 H 0.87548 0.53248 0.64184 0.0
C873 C 0.86513 0.58245 0.44794 0.0
H874 H 0.83891 0.51081 0.55786 0.0
C875 C 0.88653 0.59473 0.49536 0.0
C876 C 0.89144 0.57638 0.56423 0.0
H877 H 0.86339 0.59589 0.39214 0.0
H878 H 0.90065 0.61748 0.47517 0.0
C879 C 0.87265 0.5469 0.58829 0.0
loop_
_geom_bond_atom_site_label_1
_geom_bond_atom_site_label_2
_geom_bond_distance
_geom_bond_site_symmetry_2
_ccdc_geom_bond_type
C0 C1 1.391 . S
C0 C4 1.391 . S
C0 H42 0.948 . S
C1 C0 1.391 . S
C1 C2 1.391 . S
C2 C1 1.391 . S
C2 H58 0.947 . S
C2 C59 1.392 . S
C3 C4 1.391 . S
C3 C7 1.397 . S
C3 C59 1.419 . S
C4 C0 1.391 . S
C4 C3 1.391 . S
C4 C5 1.399 . S
C5 C4 1.399 . S
C5 C8 1.396 . S
C5 C17 1.453 . S
C5 C18 1.684 . S
H6 C30 0.948 . S
C7 C3 1.397 . S
C7 C8 1.394 . S
C7 C26 1.723 . S
C8 C5 1.396 . S
C8 C7 1.394 . S
C8 C38 1.723 . S
H9 C32 0.947 . S
H10 C33 0.948 . S
H11 C39 0.982 . S
H12 C40 0.979 . S
H13 C40 0.980 . S
H14 C40 0.983 . S
H15 C39 0.979 . S
H16 C39 0.977 . S
C17 C5 1.453 . S
C17 H46 0.982 . S
C17 H47 0.979 . S
C17 H48 0.977 . S
C18 C5 1.684 . S
C18 H43 0.979 . S
C18 H44 0.980 . S
C18 H45 0.983 . S
C19 C20 1.391 . S
C19 C24 1.391 . S
C19 H49 0.948 . S
C20 C19 1.391 . S
C20 C21 1.391 . S
C21 C20 1.391 . S
C21 C22 1.392 . S
C21 H50 0.947 . S
C22 C21 1.392 . S
C22 C23 1.419 . S
C22 H51 0.948 . S
C23 C22 1.419 . S
C23 C24 1.391 . S
C23 C27 1.397 . S
C24 C19 1.391 . S
C24 C23 1.391 . S
C24 C25 1.399 1_556 S
C25 C24 1.399 1_554 S
C25 C26 1.396 . S
C25 C28 1.453 . S
C25 C29 1.684 . S
C26 C7 1.723 . S
C26 C25 1.396 . S
C26 C27 1.394 1_554 S
C27 C23 1.397 . S
C27 C26 1.394 1_556 S
C27 C37 1.723 . S
C28 C25 1.453 . S
C28 H52 0.982 . S
C28 H53 0.979 . S
C28 H54 0.977 . S
C29 C25 1.684 . S
C29 H55 0.979 . S
C29 H56 0.980 . S
C29 H57 0.983 . S
C30 H6 0.948 . S
C30 C31 1.391 . S
C30 C35 1.391 . S
C31 C30 1.391 . S
C31 C32 1.391 1_556 S
C32 H9 0.947 . S
C32 C31 1.391 1_554 S
C32 C33 1.392 . S
C33 H10 0.948 . S
C33 C32 1.392 . S
C33 C34 1.419 . S
C34 C33 1.419 . S
C34 C35 1.391 1_554 S
C34 C38 1.397 . S
C35 C30 1.391 . S
C35 C34 1.391 1_556 S
C35 C36 1.399 . S
C36 C35 1.399 . S
C36 C37 1.396 . S
C36 C39 1.453 . S
C36 C40 1.684 . S
C37 C27 1.723 . S
C37 C36 1.396 . S
C37 C38 1.394 1_556 S
C38 C8 1.723 . S
C38 C34 1.397 . S
C38 C37 1.394 1_554 S
C39 H11 0.982 . S
C39 H15 0.979 . S
C39 H16 0.977 . S
C39 C36 1.453 . S
C40 H12 0.979 . S
C40 H13 0.980 . S
C40 H14 0.983 . S
C40 C36 1.684 . S
H41 C59 0.948 . S
H42 C0 0.948 . S
H43 C18 0.979 . S
H44 C18 0.980 . S
H45 C18 0.983 . S
H46 C17 0.982 . S
H47 C17 0.979 . S
H48 C17 0.977 . S
H49 C19 0.948 . S
H50 C21 0.947 . S
H51 C22 0.948 . S
H52 C28 0.982 . S
H53 C28 0.979 . S
H54 C28 0.977 . S
H55 C29 0.979 . S
H56 C29 0.980 . S
H57 C29 0.983 . S
H58 C2 0.947 . S
C59 C2 1.392 . S
C59 C3 1.419 . S
C59 H41 0.948 . S
C60 C61 1.391 . S
C60 C64 1.391 . S
C60 H102 0.948 . S
C61 C60 1.391 . S
C61 C62 1.391 . S
C62 C61 1.391 . S
C62 H118 0.947 . S
C62 C119 1.392 . S
C63 C64 1.391 . S
C63 C67 1.397 1_556 S
C63 C119 1.419 . S
C64 C60 1.391 . S
C64 C63 1.391 . S
C64 C65 1.399 . S
C65 C64 1.399 . S
C65 C68 1.396 . S
C65 C77 1.453 . S
C65 C78 1.684 . S
H66 C90 0.948 . S
C67 C63 1.397 1_554 S
C67 C68 1.394 1_554 S
C67 C86 1.723 . S
C68 C65 1.396 . S
C68 C67 1.394 1_556 S
C68 C98 1.723 1_556 S
H69 C92 0.947 . S
H70 C93 0.948 . S
H71 C99 0.982 . S
H72 C100 0.979 . S
H73 C100 0.980 . S
H74 C100 0.983 . S
H75 C99 0.979 . S
H76 C99 0.977 . S
C77 C65 1.453 . S
C77 H106 0.982 . S
C77 H107 0.979 . S
C77 H108 0.977 . S
C78 C65 1.684 . S
C78 H103 0.979 . S
C78 H104 0.980 . S
C78 H105 0.983 . S
C79 C80 1.391 . S
C79 C84 1.391 . S
C79 H109 0.948 . S
C80 C79 1.391 . S
C80 C81 1.391 . S
C81 C80 1.391 . S
C81 C82 1.392 . S
C81 H110 0.947 . S
C82 C81 1.392 . S
C82 C83 1.419 . S
C82 H111 0.948 . S
C83 C82 1.419 . S
C83 C84 1.391 . S
C83 C87 1.397 . S
C84 C79 1.391 . S
C84 C83 1.391 . S
C84 C85 1.399 . S
C85 C84 1.399 . S
C85 C86 1.396 . S
C85 C88 1.453 . S
C85 C89 1.684 . S
C86 C67 1.723 . S
C86 C85 1.396 . S
C86 C87 1.394 . S
C87 C83 1.397 . S
C87 C86 1.394 . S
C87 C97 1.723 . S
C88 C85 1.453 . S
C88 H112 0.982 . S
C88 H113 0.979 . S
C88 H114 0.977 . S
C89 C85 1.684 . S
C89 H115 0.979 . S
C89 H116 0.980 . S
C89 H117 0.983 . S
C90 H66 0.948 . S
C90 C91 1.391 1_554 S
C90 C95 1.391 . S
C91 C90 1.391 1_556 S
C91 C92 1.391 . S
C92 H69 0.947 . S
C92 C91 1.391 . S
C92 C93 1.392 . S
C93 H70 0.948 . S
C93 C92 1.392 . S
C93 C94 1.419 1_556 S
C94 C93 1.419 1_554 S
C94 C95 1.391 . S
C94 C98 1.397 . S
C95 C90 1.391 . S
C95 C94 1.391 . S
C95 C96 1.399 . S
C96 C95 1.399 . S
C96 C97 1.396 . S
C96 C99 1.453 . S
C96 C100 1.684 . S
C97 C87 1.723 . S
C97 C96 1.396 . S
C97 C98 1.394 . S
C98 C68 1.723 1_554 S
C98 C94 1.397 . S
C98 C97 1.394 . S
C99 H71 0.982 . S
C99 H75 0.979 . S
C99 H76 0.977 . S
C99 C96 1.453 . S
C100 H72 0.979 . S
C100 H73 0.980 . S
C100 H74 0.983 . S
C100 C96 1.684 . S
H101 C119 0.948 1_554 S
H102 C60 0.948 . S
H103 C78 0.979 . S
H104 C78 0.980 . S
H105 C78 0.983 . S
H106 C77 0.982 . S
H107 C77 0.979 . S
H108 C77 0.977 . S
H109 C79 0.948 . S
H110 C81 0.947 . S
H111 C82 0.948 . S
H112 C88 0.982 . S
H113 C88 0.979 . S
H114 C88 0.977 . S
H115 C89 0.979 . S
H116 C89 0.980 . S
H117 C89 0.983 . S
H118 C62 0.947 . S
C119 C62 1.392 . S
C119 C63 1.419 . S
C119 H101 0.948 1_556 S
C120 C121 1.391 . S
C120 C124 1.391 1_556 S
C120 H162 0.948 1_556 S
C121 C120 1.391 . S
C121 C122 1.391 . S
C122 C121 1.391 . S
C122 H178 0.947 . S
C122 C179 1.392 . S
C123 C124 1.391 1_556 S
C123 C127 1.397 . S
C123 C179 1.419 . S
C124 C120 1.391 1_554 S
C124 C123 1.391 1_554 S
C124 C125 1.399 . S
C125 C124 1.399 . S
C125 C128 1.396 . S
C125 C137 1.465 . S
C125 C138 1.684 . S
H126 C150 0.948 . S
C127 C123 1.397 . S
C127 C128 1.394 1_556 S
C127 C146 1.723 . S
C128 C125 1.396 . S
C128 C127 1.394 1_554 S
C128 C158 1.723 . S
H129 C152 0.947 . S
H130 C153 0.948 . S
H131 C159 0.971 1_545 S
H132 C160 0.979 . S
H133 C160 0.980 . S
H134 C160 0.983 . S
H135 C159 0.975 . S
H136 C159 0.979 . S
C137 C125 1.465 . S
C137 H166 0.970 1_565 S
C137 H167 0.983 . S
C137 H168 0.973 . S
C138 C125 1.684 . S
C138 H163 0.979 . S
C138 H164 0.980 . S
C138 H165 0.983 . S
C139 C140 1.391 . S
C139 C144 1.391 . S
C139 H169 0.948 . S
C140 C139 1.391 . S
C140 C141 1.391 . S
C141 C140 1.391 . S
C141 C142 1.392 . S
C141 H170 0.947 . S
C142 C141 1.392 . S
C142 C143 1.419 . S
C142 H171 0.948 . S
C143 C142 1.419 . S
C143 C144 1.391 . S
C143 C147 1.397 . S
C144 C139 1.391 . S
C144 C143 1.391 . S
C144 C145 1.399 . S
C145 C144 1.399 . S
C145 C146 1.396 . S
C145 C148 1.461 . S
C145 C149 1.684 . S
C146 C127 1.723 . S
C146 C145 1.396 . S
C146 C147 1.394 . S
C147 C143 1.397 . S
C147 C146 1.394 . S
C147 C157 1.723 1_556 S
C148 C145 1.461 . S
C148 H172 0.967 1_565 S
C148 H173 0.982 . S
C148 H174 0.981 . S
C149 C145 1.684 . S
C149 H175 0.979 . S
C149 H176 0.980 . S
C149 H177 0.983 . S
C150 H126 0.948 . S
C150 C151 1.391 . S
C150 C155 1.391 . S
C151 C150 1.391 . S
C151 C152 1.391 . S
C152 H129 0.947 . S
C152 C151 1.391 . S
C152 C153 1.392 . S
C153 H130 0.948 . S
C153 C152 1.392 . S
C153 C154 1.419 . S
C154 C153 1.419 . S
C154 C155 1.391 . S
C154 C158 1.397 . S
C155 C150 1.391 . S
C155 C154 1.391 . S
C155 C156 1.399 . S
C156 C155 1.399 . S
C156 C157 1.396 . S
C156 C159 1.466 . S
C156 C160 1.684 . S
C157 C147 1.723 1_554 S
C157 C156 1.396 . S
C157 C158 1.394 . S
C158 C128 1.723 . S
C158 C154 1.397 . S
C158 C157 1.394 . S
C159 H131 0.971 1_565 S
C159 H135 0.975 . S
C159 H136 0.979 . S
C159 C156 1.466 . S
C160 H132 0.979 . S
C160 H133 0.980 . S
C160 H134 0.983 . S
C160 C156 1.684 . S
H161 C179 0.948 . S
H162 C120 0.948 1_554 S
H163 C138 0.979 . S
H164 C138 0.980 . S
H165 C138 0.983 . S
H166 C137 0.970 1_545 S
H167 C137 0.983 . S
H168 C137 0.973 . S
H169 C139 0.948 . S
H170 C141 0.947 . S
H171 C142 0.948 . S
H172 C148 0.967 1_545 S
H173 C148 0.982 . S
H174 C148 0.981 . S
H175 C149 0.979 . S
H176 C149 0.980 . S
H177 C149 0.983 . S
H178 C122 0.947 . S
C179 C122 1.392 . S
C179 C123 1.419 . S
C179 H161 0.948 . S
C180 C181 1.391 . S
C180 C184 1.391 . S
C180 H222 0.948 . S
C181 C180 1.391 . S
C181 C182 1.391 . S
C182 C181 1.391 . S
C182 H238 0.947 . S
C182 C239 1.392 . S
C183 C184 1.391 . S
C183 C187 1.397 . S
C183 C239 1.419 . S
C184 C180 1.391 . S
C184 C183 1.391 . S
C184 C185 1.399 . S
C185 C184 1.399 . S
C185 C188 1.396 . S
C185 C197 1.453 . S
C185 C198 1.684 . S
H186 C210 0.948 . S
C187 C183 1.397 . S
C187 C188 1.394 . S
C187 C206 1.723 . S
C188 C185 1.396 . S
C188 C187 1.394 . S
C188 C218 1.723 . S
H189 C212 0.947 . S
H190 C213 0.948 . S
H191 C219 0.982 . S
H192 C220 0.979 . S
H193 C220 0.980 . S
H194 C220 0.983 . S
H195 C219 0.979 . S
H196 C219 0.977 . S
C197 C185 1.453 . S
C197 H226 0.982 . S
C197 H227 0.979 . S
C197 H228 0.977 . S
C198 C185 1.684 . S
C198 H223 0.979 . S
C198 H224 0.980 . S
C198 H225 0.983 . S
C199 C200 1.391 . S
C199 C204 1.391 . S
C199 H229 0.948 . S
C200 C199 1.391 . S
C200 C201 1.391 . S
C201 C200 1.391 . S
C201 C202 1.392 . S
C201 H230 0.947 . S
C202 C201 1.392 . S
C202 C203 1.419 . S
C202 H231 0.948 . S
C203 C202 1.419 . S
C203 C204 1.391 . S
C203 C207 1.397 . S
C204 C199 1.391 . S
C204 C203 1.391 . S
C204 C205 1.399 . S
C205 C204 1.399 . S
C205 C206 1.396 . S
C205 C208 1.453 . S
C205 C209 1.684 . S
C206 C187 1.723 . S
C206 C205 1.396 . S
C206 C207 1.394 . S
C207 C203 1.397 . S
C207 C206 1.394 . S
C207 C217 1.723 . S
C208 C205 1.453 . S
C208 H232 0.982 . S
C208 H233 0.979 . S
C208 H234 0.977 . S
C209 C205 1.684 . S
C209 H235 0.979 . S
C209 H236 0.980 . S
C209 H237 0.983 . S
C210 H186 0.948 . S
C210 C211 1.391 . S
C210 C215 1.391 . S
C211 C210 1.391 . S
C211 C212 1.391 . S
C212 H189 0.947 . S
C212 C211 1.391 . S
C212 C213 1.392 . S
C213 H190 0.948 . S
C213 C212 1.392 . S
C213 C214 1.419 . S
C214 C213 1.419 . S
C214 C215 1.391 . S
C214 C218 1.397 . S
C215 C210 1.391 . S
C215 C214 1.391 . S
C215 C216 1.399 . S
C216 C215 1.399 . S
C216 C217 1.396 . S
C216 C219 1.453 . S
C216 C220 1.684 . S
C217 C207 1.723 . S
C217 C216 1.396 . S
C217 C218 1.394 . S
C218 C188 1.723 . S
C218 C214 1.397 . S
C218 C217 1.394 . S
C219 H191 0.982 . S
C219 H195 0.979 . S
C219 H196 0.977 . S
C219 C216 1.453 . S
C220 H192 0.979 . S
C220 H193 0.980 . S
C220 H194 0.983 . S
C220 C216 1.684 . S
H221 C239 0.948 . S
H222 C180 0.948 . S
H223 C198 0.979 . S
H224 C198 0.980 . S
H225 C198 0.983 . S
H226 C197 0.982 . S
H227 C197 0.979 . S
H228 C197 0.977 . S
H229 C199 0.948 . S
H230 C201 0.947 . S
H231 C202 0.948 . S
H232 C208 0.982 . S
H233 C208 0.979 . S
H234 C208 0.977 . S
H235 C209 0.979 . S
H236 C209 0.980 . S
H237 C209 0.983 . S
H238 C182 0.947 . S
C239 C182 1.392 . S
C239 C183 1.419 . S
C239 H221 0.948 . S
C240 C241 1.391 . S
C240 C244 1.391 . S
C240 H282 0.948 . S
C241 C240 1.391 . S
C241 C242 1.391 . S
C242 C241 1.391 . S
C242 H298 0.947 . S
C242 C299 1.392 . S
C243 C244 1.391 . S
C243 C247 1.397 . S
C243 C299 1.419 . S
C244 C240 1.391 . S
C244 C243 1.391 . S
C244 C245 1.399 . S
C245 C244 1.399 . S
C245 C248 1.396 . S
C245 C257 1.453 . S
C245 C258 1.684 . S
H246 C270 0.948 . S
C247 C243 1.397 . S
C247 C248 1.394 . S
C247 C266 1.723 . S
C248 C245 1.396 . S
C248 C247 1.394 . S
C248 C278 1.723 . S
H249 C272 0.947 . S
H250 C273 0.948 . S
H251 C279 0.982 . S
H252 C280 0.979 . S
H253 C280 0.980 . S
H254 C280 0.983 . S
H255 C279 0.979 . S
H256 C279 0.977 . S
C257 C245 1.453 . S
C257 H286 0.982 . S
C257 H287 0.979 . S
C257 H288 0.977 . S
C258 C245 1.684 . S
C258 H283 0.979 . S
C258 H284 0.980 . S
C258 H285 0.983 . S
C259 C260 1.391 . S
C259 C264 1.391 . S
C259 H289 0.948 . S
C260 C259 1.391 . S
C260 C261 1.391 . S
C261 C260 1.391 . S
C261 C262 1.392 . S
C261 H290 0.947 . S
C262 C261 1.392 . S
C262 C263 1.419 . S
C262 H291 0.948 . S
C263 C262 1.419 . S
C263 C264 1.391 . S
C263 C267 1.397 . S
C264 C259 1.391 . S
C264 C263 1.391 . S
C264 C265 1.399 . S
C265 C264 1.399 . S
C265 C266 1.396 . S
C265 C268 1.453 . S
C265 C269 1.684 . S
C266 C247 1.723 . S
C266 C265 1.396 . S
C266 C267 1.394 . S
C267 C263 1.397 . S
C267 C266 1.394 . S
C267 C277 1.723 . S
C268 C265 1.453 . S
C268 H292 0.982 . S
C268 H293 0.979 . S
C268 H294 0.977 . S
C269 C265 1.684 . S
C269 H295 0.979 . S
C269 H296 0.980 . S
C269 H297 0.983 . S
C270 H246 0.948 . S
C270 C271 1.391 . S
C270 C275 1.391 . S
C271 C270 1.391 . S
C271 C272 1.391 . S
C272 H249 0.947 . S
C272 C271 1.391 . S
C272 C273 1.392 . S
C273 H250 0.948 . S
C273 C272 1.392 . S
C273 C274 1.419 . S
C274 C273 1.419 . S
C274 C275 1.391 . S
C274 C278 1.397 . S
C275 C270 1.391 . S
C275 C274 1.391 . S
C275 C276 1.399 . S
C276 C275 1.399 . S
C276 C277 1.396 . S
C276 C279 1.453 . S
C276 C280 1.684 . S
C277 C267 1.723 . S
C277 C276 1.396 . S
C277 C278 1.394 . S
C278 C248 1.723 . S
C278 C274 1.397 . S
C278 C277 1.394 . S
C279 H251 0.982 . S
C279 H255 0.979 . S
C279 H256 0.977 . S
C279 C276 1.453 . S
C280 H252 0.979 . S
C280 H253 0.980 . S
C280 H254 0.983 . S
C280 C276 1.684 . S
H281 C299 0.948 . S
H282 C240 0.948 . S
H283 C258 0.979 . S
H284 C258 0.980 . S
H285 C258 0.983 . S
H286 C257 0.982 . S
H287 C257 0.979 . S
H288 C257 0.977 . S
H289 C259 0.948 . S
H290 C261 0.947 . S
H291 C262 0.948 . S
H292 C268 0.982 . S
H293 C268 0.979 . S
H294 C268 0.977 . S
H295 C269 0.979 . S
H296 C269 0.980 . S
H297 C269 0.983 . S
H298 C242 0.947 . S
C299 C242 1.392 . S
C299 C243 1.419 . S
C299 H281 0.948 . S
C300 C301 1.391 . S
C300 C304 1.391 . S
C300 H342 0.948 . S
C301 C300 1.391 . S
C301 C302 1.391 . S
C302 C301 1.391 . S
C302 H358 0.947 . S
C302 C359 1.392 . S
C303 C304 1.391 . S
C303 C307 1.397 . S
C303 C359 1.419 . S
C304 C300 1.391 . S
C304 C303 1.391 . S
C304 C305 1.399 . S
C305 C304 1.399 . S
C305 C308 1.396 . S
C305 C317 1.453 . S
C305 C318 1.684 . S
H306 C330 0.948 . S
C307 C303 1.397 . S
C307 C308 1.394 . S
C307 C326 1.723 . S
C308 C305 1.396 . S
C308 C307 1.394 . S
C308 C338 1.723 . S
H309 C332 0.947 . S
H310 C333 0.948 . S
H311 C339 0.982 . S
H312 C340 0.979 . S
H313 C340 0.980 . S
H314 C340 0.983 . S
H315 C339 0.979 . S
H316 C339 0.977 . S
C317 C305 1.453 . S
C317 H346 0.982 . S
C317 H347 0.979 . S
C317 H348 0.977 . S
C318 C305 1.684 . S
C318 H343 0.979 . S
C318 H344 0.980 . S
C318 H345 0.983 . S
C319 C320 1.391 . S
C319 C324 1.391 . S
C319 H349 0.948 . S
C320 C319 1.391 . S
C320 C321 1.391 . S
C321 C320 1.391 . S
C321 C322 1.392 . S
C321 H350 0.947 . S
C322 C321 1.392 . S
C322 C323 1.419 . S
C322 H351 0.948 . S
C323 C322 1.419 . S
C323 C324 1.391 . S
C323 C327 1.397 . S
C324 C319 1.391 . S
C324 C323 1.391 . S
C324 C325 1.399 . S
C325 C324 1.399 . S
C325 C326 1.396 . S
C325 C328 1.453 . S
C325 C329 1.684 . S
C326 C307 1.723 . S
C326 C325 1.396 . S
C326 C327 1.394 . S
C327 C323 1.397 . S
C327 C326 1.394 . S
C327 C337 1.723 . S
C328 C325 1.453 . S
C328 H352 0.982 . S
C328 H353 0.979 . S
C328 H354 0.977 . S
C329 C325 1.684 . S
C329 H355 0.979 . S
C329 H356 0.980 . S
C329 H357 0.983 . S
C330 H306 0.948 . S
C330 C331 1.391 . S
C330 C335 1.391 . S
C331 C330 1.391 . S
C331 C332 1.391 . S
C332 H309 0.947 . S
C332 C331 1.391 . S
C332 C333 1.392 . S
C333 H310 0.948 . S
C333 C332 1.392 . S
C333 C334 1.419 . S
C334 C333 1.419 . S
C334 C335 1.391 . S
C334 C338 1.397 . S
C335 C330 1.391 . S
C335 C334 1.391 . S
C335 C336 1.399 . S
C336 C335 1.399 . S
C336 C337 1.396 . S
C336 C339 1.453 . S
C336 C340 1.684 . S
C337 C327 1.723 . S
C337 C336 1.396 . S
C337 C338 1.394 . S
C338 C308 1.723 . S
C338 C334 1.397 . S
C338 C337 1.394 . S
C339 H311 0.982 . S
C339 H315 0.979 . S
C339 H316 0.977 . S
C339 C336 1.453 . S
C340 H312 0.979 . S
C340 H313 0.980 . S
C340 H314 0.983 . S
C340 C336 1.684 . S
H341 C359 0.948 . S
H342 C300 0.948 . S
H343 C318 0.979 . S
H344 C318 0.980 . S
H345 C318 0.983 . S
H346 C317 0.982 . S
H347 C317 0.979 . S
H348 C317 0.977 . S
H349 C319 0.948 . S
H350 C321 0.947 . S
H351 C322 0.948 . S
H352 C328 0.982 . S
H353 C328 0.979 . S
H354 C328 0.977 . S
H355 C329 0.979 . S
H356 C329 0.980 . S
H357 C329 0.983 . S
H358 C302 0.947 . S
C359 C302 1.392 . S
C359 C303 1.419 . S
C359 H341 0.948 . S
C360 C361 1.391 . S
C360 C364 1.391 . S
C360 H402 0.948 . S
C361 C360 1.391 . S
C361 C362 1.391 . S
C362 C361 1.391 . S
C362 H418 0.947 . S
C362 C419 1.392 . S
C363 C364 1.391 . S
C363 C367 1.397 . S
C363 C419 1.419 . S
C364 C360 1.391 . S
C364 C363 1.391 . S
C364 C365 1.399 . S
C365 C364 1.399 . S
C365 C368 1.396 . S
C365 C377 1.453 . S
C365 C378 1.684 . S
H366 C390 0.948 . S
C367 C363 1.397 . S
C367 C368 1.394 . S
C367 C386 1.723 . S
C368 C365 1.396 . S
C368 C367 1.394 . S
C368 C398 1.723 . S
H369 C392 0.947 . S
H370 C393 0.948 . S
H371 C399 0.982 . S
H372 C400 0.979 . S
H373 C400 0.980 . S
H374 C400 0.983 . S
H375 C399 0.979 . S
H376 C399 0.977 . S
C377 C365 1.453 . S
C377 H406 0.982 . S
C377 H407 0.979 . S
C377 H408 0.977 . S
C378 C365 1.684 . S
C378 H403 0.979 . S
C378 H404 0.980 . S
C378 H405 0.983 . S
C379 C380 1.391 . S
C379 C384 1.391 . S
C379 H409 0.948 . S
C380 C379 1.391 . S
C380 C381 1.391 . S
C381 C380 1.391 . S
C381 C382 1.392 . S
C381 H410 0.947 . S
C382 C381 1.392 . S
C382 C383 1.419 . S
C382 H411 0.948 . S
C383 C382 1.419 . S
C383 C384 1.391 . S
C383 C387 1.397 . S
C384 C379 1.391 . S
C384 C383 1.391 . S
C384 C385 1.399 . S
C385 C384 1.399 . S
C385 C386 1.396 . S
C385 C388 1.453 . S
C385 C389 1.684 . S
C386 C367 1.723 . S
C386 C385 1.396 . S
C386 C387 1.394 . S
C387 C383 1.397 . S
C387 C386 1.394 . S
C387 C397 1.723 . S
C388 C385 1.453 . S
C388 H412 0.982 . S
C388 H413 0.979 . S
C388 H414 0.977 . S
C389 C385 1.684 . S
C389 H415 0.979 . S
C389 H416 0.980 . S
C389 H417 0.983 . S
C390 H366 0.948 . S
C390 C391 1.391 . S
C390 C395 1.391 . S
C391 C390 1.391 . S
C391 C392 1.391 . S
C392 H369 0.947 . S
C392 C391 1.391 . S
C392 C393 1.392 . S
C393 H370 0.948 . S
C393 C392 1.392 . S
C393 C394 1.419 . S
C394 C393 1.419 . S
C394 C395 1.391 . S
C394 C398 1.397 . S
C395 C390 1.391 . S
C395 C394 1.391 . S
C395 C396 1.399 . S
C396 C395 1.399 . S
C396 C397 1.396 . S
C396 C399 1.453 . S
C396 C400 1.684 . S
C397 C387 1.723 . S
C397 C396 1.396 . S
C397 C398 1.394 . S
C398 C368 1.723 . S
C398 C394 1.397 . S
C398 C397 1.394 . S
C399 H371 0.982 . S
C399 H375 0.979 . S
C399 H376 0.977 . S
C399 C396 1.453 . S
C400 H372 0.979 . S
C400 H373 0.980 . S
C400 H374 0.983 . S
C400 C396 1.684 . S
H401 C419 0.948 . S
H402 C360 0.948 . S
H403 C378 0.979 . S
H404 C378 0.980 . S
H405 C378 0.983 . S
H406 C377 0.982 . S
H407 C377 0.979 . S
H408 C377 0.977 . S
H409 C379 0.948 . S
H410 C381 0.947 . S
H411 C382 0.948 . S
H412 C388 0.982 . S
H413 C388 0.979 . S
H414 C388 0.977 . S
H415 C389 0.979 . S
H416 C389 0.980 . S
H417 C389 0.983 . S
H418 C362 0.947 . S
C419 C362 1.392 . S
C419 C363 1.419 . S
C419 H401 0.948 . S
C420 C421 1.392 . S
C420 C424 1.391 . S
C420 H462 0.948 1_554 S
C421 C420 1.392 . S
C421 C422 1.396 . S
C422 C421 1.396 . S
C422 H478 0.947 . S
C422 C479 1.392 . S
C423 C424 1.391 . S
C423 C427 1.397 . S
C423 C479 1.419 . S
C424 C420 1.391 . S
C424 C423 1.391 . S
C424 C425 1.399 . S
C425 C424 1.399 . S
C425 C428 1.396 . S
C425 C437 1.453 . S
C425 C438 1.684 . S
H426 C450 0.948 . S
C427 C423 1.397 . S
C427 C428 1.394 . S
C427 C446 1.723 . S
C428 C425 1.396 . S
C428 C427 1.394 . S
C428 C458 1.723 . S
H429 C452 0.947 . S
H430 C453 0.948 . S
H431 C459 0.982 . S
H432 C460 0.979 . S
H433 C460 0.980 . S
H434 C460 0.983 . S
H435 C459 0.979 . S
H436 C459 0.977 . S
C437 C425 1.453 . S
C437 H466 0.982 . S
C437 H467 0.979 . S
C437 H468 0.977 . S
C438 C425 1.684 . S
C438 H463 0.979 . S
C438 H464 0.980 . S
C438 H465 0.983 . S
C439 C440 1.391 . S
C439 C444 1.391 . S
C439 H469 0.948 . S
C440 C439 1.391 . S
C440 C441 1.391 . S
C441 C440 1.391 . S
C441 C442 1.392 . S
C441 H470 0.947 . S
C442 C441 1.392 . S
C442 C443 1.419 . S
C442 H471 0.948 . S
C443 C442 1.419 . S
C443 C444 1.391 . S
C443 C447 1.397 . S
C444 C439 1.391 . S
C444 C443 1.391 . S
C444 C445 1.399 . S
C445 C444 1.399 . S
C445 C446 1.396 . S
C445 C448 1.453 . S
C445 C449 1.684 . S
C446 C427 1.723 . S
C446 C445 1.396 . S
C446 C447 1.394 . S
C447 C443 1.397 . S
C447 C446 1.394 . S
C447 C457 1.723 . S
C448 C445 1.453 . S
C448 H472 0.982 . S
C448 H473 0.979 . S
C448 H474 0.977 . S
C449 C445 1.684 . S
C449 H475 0.979 . S
C449 H476 0.980 . S
C449 H477 0.983 . S
C450 H426 0.948 . S
C450 C451 1.391 . S
C450 C455 1.391 . S
C451 C450 1.391 . S
C451 C452 1.391 . S
C452 H429 0.947 . S
C452 C451 1.391 . S
C452 C453 1.392 . S
C453 H430 0.948 . S
C453 C452 1.392 . S
C453 C454 1.419 . S
C454 C453 1.419 . S
C454 C455 1.391 . S
C454 C458 1.397 . S
C455 C450 1.391 . S
C455 C454 1.391 . S
C455 C456 1.399 . S
C456 C455 1.399 . S
C456 C457 1.396 . S
C456 C459 1.453 . S
C456 C460 1.684 . S
C457 C447 1.723 . S
C457 C456 1.396 . S
C457 C458 1.394 . S
C458 C428 1.723 . S
C458 C454 1.397 . S
C458 C457 1.394 . S
C459 H431 0.982 . S
C459 H435 0.979 . S
C459 H436 0.977 . S
C459 C456 1.453 . S
C460 H432 0.979 . S
C460 H433 0.980 . S
C460 H434 0.983 . S
C460 C456 1.684 . S
H461 C479 0.948 . S
H462 C420 0.948 1_556 S
H463 C438 0.979 . S
H464 C438 0.980 . S
H465 C438 0.983 . S
H466 C437 0.982 . S
H467 C437 0.979 . S
H468 C437 0.977 . S
H469 C439 0.948 . S
H470 C441 0.947 . S
H471 C442 0.948 . S
H472 C448 0.982 . S
H473 C448 0.979 . S
H474 C448 0.977 . S
H475 C449 0.979 . S
H476 C449 0.980 . S
H477 C449 0.983 . S
H478 C422 0.947 . S
C479 C422 1.392 . S
C479 C423 1.419 . S
C479 H461 0.948 . S
Nd480 C482 2.836 1_545 S
Nd480 O500 2.500 1_445 S
Nd480 O501 2.492 1_545 S
Nd480 O502 2.487 . S
Nd480 O503 2.682 . S
Nd480 O504 2.410 1_545 S
Nd480 O509 2.414 1_455 S
Nd480 O511 2.424 . S
Nd481 C491 2.836 1_556 S
Nd481 O503 2.414 . S
Nd481 O505 2.424 1_545 S
Nd481 O506 2.500 . S
Nd481 O507 2.492 1_556 S
Nd481 O508 2.487 1_455 S
Nd481 O509 2.682 1_455 S
Nd481 O510 2.410 . S
C482 Nd480 2.836 1_565 S
C482 C483 1.498 1_455 S
C482 O500 1.258 1_455 S
C482 O501 1.239 . S
C483 C482 1.498 1_655 S
C483 C484 1.366 . S
C483 C488 1.407 1_655 S
C484 C483 1.366 . S
C484 C485 1.392 . S
C484 H512 0.930 . S
C485 C484 1.392 . S
C485 C486 1.398 . S
C485 H513 0.929 . S
C486 C485 1.398 . S
C486 C487 1.352 . S
C487 C486 1.352 . S
C487 C488 1.384 1_655 S
C487 H514 0.930 1_655 S
C488 C483 1.407 1_455 S
C488 C487 1.384 1_455 S
C488 H515 0.929 . S
C489 O502 1.241 . S
C489 O503 1.273 . S
C490 O504 1.251 . S
C490 O505 1.268 . S
C491 Nd481 2.836 1_554 S
C491 C492 1.498 . S
C491 O506 1.258 1_554 S
C491 O507 1.239 . S
C492 C491 1.498 . S
C492 C493 1.366 . S
C492 C497 1.407 . S
C493 C492 1.366 . S
C493 C494 1.392 . S
C493 H516 0.930 . S
C494 C493 1.392 . S
C494 C495 1.398 . S
C494 H517 0.929 . S
C495 C494 1.398 . S
C495 C496 1.352 . S
C496 C495 1.352 . S
C496 C497 1.384 . S
C496 H518 0.930 . S
C497 C492 1.407 . S
C497 C496 1.384 . S
C497 H519 0.929 . S
C498 O508 1.241 . S
C498 O509 1.273 . S
C499 O510 1.251 . S
C499 O511 1.268 . S
O500 Nd480 2.500 1_665 S
O500 C482 1.258 1_655 S
O501 Nd480 2.492 1_565 S
O501 C482 1.239 . S
O502 Nd480 2.487 . S
O502 C489 1.241 . S
O503 Nd480 2.682 . S
O503 Nd481 2.414 . S
O503 C489 1.273 . S
O504 Nd480 2.410 1_565 S
O504 C490 1.251 . S
O505 Nd481 2.424 1_565 S
O505 C490 1.268 . S
O506 Nd481 2.500 . S
O506 C491 1.258 1_556 S
O507 Nd481 2.492 1_554 S
O507 C491 1.239 . S
O508 Nd481 2.487 1_655 S
O508 C498 1.241 . S
O509 Nd480 2.414 1_655 S
O509 Nd481 2.682 1_655 S
O509 C498 1.273 . S
O510 Nd481 2.410 . S
O510 C499 1.251 . S
O511 Nd480 2.424 . S
O511 C499 1.268 . S
H512 C484 0.930 . S
H513 C485 0.929 . S
H514 C487 0.930 1_455 S
H515 C488 0.929 . S
H516 C493 0.930 . S
H517 C494 0.929 . S
H518 C496 0.930 . S
H519 C497 0.929 . S
Nd520 C522 2.836 1_545 S
Nd520 O540 2.500 1_545 S
Nd520 O541 2.492 . S
Nd520 O542 2.487 . S
Nd520 O543 2.682 . S
Nd520 O544 2.410 . S
Nd520 O549 2.414 . S
Nd520 O551 2.424 . S
Nd521 C531 2.836 1_556 S
Nd521 O543 2.414 . S
Nd521 O545 2.424 . S
Nd521 O546 2.500 . S
Nd521 O547 2.492 1_556 S
Nd521 O548 2.487 1_546 S
Nd521 O549 2.682 . S
Nd521 O550 2.410 . S
C522 Nd520 2.836 1_565 S
C522 C523 1.498 . S
C522 O540 1.258 . S
C522 O541 1.239 1_565 S
C523 C522 1.498 . S
C523 C524 1.366 . S
C523 C528 1.407 1_565 S
C524 C523 1.366 . S
C524 C525 1.392 . S
C524 H552 0.930 . S
C525 C524 1.392 . S
C525 C526 1.398 . S
C525 H553 0.929 . S
C526 C525 1.398 . S
C526 C527 1.352 . S
C527 C526 1.352 . S
C527 C528 1.383 1_565 S
C527 H554 0.930 . S
C528 C523 1.407 1_545 S
C528 C527 1.383 1_545 S
C528 H555 0.930 . S
C529 O542 1.241 . S
C529 O543 1.273 . S
C530 O544 1.251 . S
C530 O545 1.268 . S
C531 Nd521 2.836 1_554 S
C531 C532 1.498 . S
C531 O546 1.258 1_554 S
C531 O547 1.239 . S
C532 C531 1.498 . S
C532 C533 1.366 . S
C532 C537 1.407 . S
C533 C532 1.366 . S
C533 C534 1.392 . S
C533 H556 0.930 1_554 S
C534 C533 1.392 . S
C534 C535 1.398 . S
C534 H557 0.929 . S
C535 C534 1.398 . S
C535 C536 1.352 . S
C536 C535 1.352 . S
C536 C537 1.384 . S
C536 H558 0.930 . S
C537 C532 1.407 . S
C537 C536 1.384 . S
C537 H559 0.929 . S
C538 O548 1.241 1_556 S
C538 O549 1.273 1_565 S
C539 O550 1.251 . S
C539 O551 1.268 . S
O540 Nd520 2.500 1_565 S
O540 C522 1.258 . S
O541 Nd520 2.492 . S
O541 C522 1.239 1_545 S
O542 Nd520 2.487 . S
O542 C529 1.241 . S
O543 Nd520 2.682 . S
O543 Nd521 2.414 . S
O543 C529 1.273 . S
O544 Nd520 2.410 . S
O544 C530 1.251 . S
O545 Nd521 2.424 . S
O545 C530 1.268 . S
O546 Nd521 2.500 . S
O546 C531 1.258 1_556 S
O547 Nd521 2.492 1_554 S
O547 C531 1.239 . S
O548 Nd521 2.487 1_564 S
O548 C538 1.241 1_554 S
O549 Nd520 2.414 . S
O549 Nd521 2.682 . S
O549 C538 1.273 1_545 S
O550 Nd521 2.410 . S
O550 C539 1.251 . S
O551 Nd520 2.424 . S
O551 C539 1.268 . S
H552 C524 0.930 . S
H553 C525 0.929 . S
H554 C527 0.930 . S
H555 C528 0.930 . S
H556 C533 0.930 1_556 S
H557 C534 0.929 . S
H558 C536 0.930 . S
H559 C537 0.929 . S
Nd560 C562 2.836 . S
Nd560 O580 2.500 . S
Nd560 O581 2.492 . S
Nd560 O582 2.487 . S
Nd560 O583 2.682 . S
Nd560 O584 2.410 . S
Nd560 O589 2.414 . S
Nd560 O591 2.424 . S
Nd561 C571 2.836 . S
Nd561 O583 2.414 . S
Nd561 O585 2.424 . S
Nd561 O586 2.500 . S
Nd561 O587 2.492 . S
Nd561 O588 2.487 . S
Nd561 O589 2.682 . S
Nd561 O590 2.410 . S
C562 Nd560 2.836 . S
C562 C563 1.498 1_556 S
C562 O580 1.258 . S
C562 O581 1.239 . S
C563 C562 1.498 1_554 S
C563 C564 1.366 1_554 S
C563 C568 1.407 . S
C564 C563 1.366 1_556 S
C564 C565 1.392 . S
C564 H592 0.930 . S
C565 C564 1.392 . S
C565 C566 1.398 1_556 S
C565 H593 0.929 . S
C566 C565 1.398 1_554 S
C566 C567 1.352 . S
C567 C566 1.352 . S
C567 C568 1.384 . S
C567 H594 0.930 . S
C568 C563 1.407 . S
C568 C567 1.384 . S
C568 H595 0.929 . S
C569 O582 1.241 . S
C569 O583 1.273 . S
C570 O584 1.251 . S
C570 O585 1.268 . S
C571 Nd561 2.836 . S
C571 C572 1.498 . S
C571 O586 1.258 . S
C571 O587 1.239 . S
C572 C571 1.498 . S
C572 C573 1.366 . S
C572 C577 1.407 . S
C573 C572 1.366 . S
C573 C574 1.392 . S
C573 H596 0.930 . S
C574 C573 1.392 . S
C574 C575 1.398 . S
C574 H597 0.929 . S
C575 C574 1.398 . S
C575 C576 1.352 . S
C576 C575 1.352 . S
C576 C577 1.384 . S
C576 H598 0.930 . S
C577 C572 1.407 . S
C577 C576 1.384 . S
C577 H599 0.929 . S
C578 O588 1.241 . S
C578 O589 1.273 . S
C579 O590 1.251 . S
C579 O591 1.268 . S
O580 Nd560 2.500 . S
O580 C562 1.258 . S
O581 Nd560 2.492 . S
O581 C562 1.239 . S
O582 Nd560 2.487 . S
O582 C569 1.241 . S
O583 Nd560 2.682 . S
O583 Nd561 2.414 . S
O583 C569 1.273 . S
O584 Nd560 2.410 . S
O584 C570 1.251 . S
O585 Nd561 2.424 . S
O585 C570 1.268 . S
O586 Nd561 2.500 . S
O586 C571 1.258 . S
O587 Nd561 2.492 . S
O587 C571 1.239 . S
O588 Nd561 2.487 . S
O588 C578 1.241 . S
O589 Nd560 2.414 . S
O589 Nd561 2.682 . S
O589 C578 1.273 . S
O590 Nd561 2.410 . S
O590 C579 1.251 . S
O591 Nd560 2.424 . S
O591 C579 1.268 . S
H592 C564 0.930 . S
H593 C565 0.929 . S
H594 C567 0.930 . S
H595 C568 0.929 . S
H596 C573 0.930 . S
H597 C574 0.929 . S
H598 C576 0.930 . S
H599 C577 0.929 . S
Nd600 C602 2.836 1_455 S
Nd600 O620 2.500 1_455 S
Nd600 O621 2.492 1_455 S
Nd600 O622 2.487 . S
Nd600 O623 2.682 . S
Nd600 O624 2.410 1_455 S
Nd600 O629 2.414 . S
Nd600 O631 2.424 . S
Nd601 C611 2.836 1_556 S
Nd601 O623 2.414 . S
Nd601 O625 2.424 1_455 S
Nd601 O626 2.502 . S
Nd601 O627 2.492 1_556 S
Nd601 O628 2.487 . S
Nd601 O629 2.682 . S
Nd601 O630 2.410 . S
C602 Nd600 2.836 1_655 S
C602 C603 1.498 . S
C602 O620 1.258 . S
C602 O621 1.239 . S
C603 C602 1.498 . S
C603 C604 1.366 . S
C603 C608 1.407 . S
C604 C603 1.366 . S
C604 C605 1.392 . S
C604 H632 0.930 . S
C605 C604 1.392 . S
C605 C606 1.398 . S
C605 H633 0.929 . S
C606 C605 1.398 . S
C606 C607 1.352 . S
C607 C606 1.352 . S
C607 C608 1.384 . S
C607 H634 0.930 . S
C608 C603 1.407 . S
C608 C607 1.384 . S
C608 H635 0.929 . S
C609 O622 1.241 . S
C609 O623 1.273 . S
C610 O624 1.251 . S
C610 O625 1.268 . S
C611 Nd601 2.836 1_554 S
C611 C612 1.498 . S
C611 O626 1.254 1_554 S
C611 O627 1.239 . S
C612 C611 1.498 . S
C612 C613 1.366 . S
C612 C617 1.407 . S
C613 C612 1.366 . S
C613 C614 1.392 . S
C613 H636 0.930 . S
C614 C613 1.392 . S
C614 C615 1.398 . S
C614 H637 0.929 . S
C615 C614 1.398 . S
C615 C616 1.352 . S
C616 C615 1.352 . S
C616 C617 1.384 . S
C616 H638 0.930 . S
C617 C612 1.407 . S
C617 C616 1.384 . S
C617 H639 0.929 . S
C618 O628 1.241 . S
C618 O629 1.273 . S
C619 O630 1.251 . S
C619 O631 1.268 . S
O620 Nd600 2.500 1_655 S
O620 C602 1.258 . S
O621 Nd600 2.492 1_655 S
O621 C602 1.239 . S
O622 Nd600 2.487 . S
O622 C609 1.241 . S
O623 Nd600 2.682 . S
O623 Nd601 2.414 . S
O623 C609 1.273 . S
O624 Nd600 2.410 1_655 S
O624 C610 1.251 . S
O625 Nd601 2.424 1_655 S
O625 C610 1.268 . S
O626 Nd601 2.502 . S
O626 C611 1.254 1_556 S
O627 Nd601 2.492 1_554 S
O627 C611 1.239 . S
O628 Nd601 2.487 . S
O628 C618 1.241 . S
O629 Nd600 2.414 . S
O629 Nd601 2.682 . S
O629 C618 1.273 . S
O630 Nd601 2.410 . S
O630 C619 1.251 . S
O631 Nd600 2.424 . S
O631 C619 1.268 . S
H632 C604 0.930 . S
H633 C605 0.929 . S
H634 C607 0.930 . S
H635 C608 0.929 . S
H636 C613 0.930 . S
H637 C614 0.929 . S
H638 C616 0.930 . S
H639 C617 0.929 . S
C640 C641 1.387 . S
C640 H644 0.950 . S
C640 C649 1.390 . S
C641 C640 1.387 . S
C641 C643 1.387 . S
H642 C649 0.950 . S
C643 C641 1.387 . S
C643 C645 1.390 . S
C643 H647 0.950 . S
H644 C640 0.950 . S
C645 C643 1.390 . S
C645 C646 1.387 . S
C645 H648 0.950 . S
C646 C645 1.387 . S
C646 C649 1.387 . S
H647 C643 0.950 . S
H648 C645 0.950 . S
C649 C640 1.390 . S
C649 H642 0.950 . S
C649 C646 1.387 . S
C650 C651 1.387 . S
C650 H654 0.950 . S
C650 C659 1.390 . S
C651 C650 1.387 . S
C651 C653 1.387 . S
H652 C659 0.950 . S
C653 C651 1.387 . S
C653 C655 1.390 . S
C653 H657 0.950 . S
H654 C650 0.950 . S
C655 C653 1.390 . S
C655 C656 1.387 . S
C655 H658 0.950 . S
C656 C655 1.387 . S
C656 C659 1.387 . S
H657 C653 0.950 . S
H658 C655 0.950 . S
C659 C650 1.390 . S
C659 H652 0.950 . S
C659 C656 1.387 . S
C660 C661 1.387 . S
C660 H664 0.950 . S
C660 C669 1.390 . S
C661 C660 1.387 . S
C661 C663 1.387 . S
H662 C669 0.950 . S
C663 C661 1.387 . S
C663 C665 1.390 . S
C663 H667 0.950 . S
H664 C660 0.950 . S
C665 C663 1.390 . S
C665 C666 1.387 . S
C665 H668 0.950 . S
C666 C665 1.387 . S
C666 C669 1.387 . S
H667 C663 0.950 . S
H668 C665 0.950 . S
C669 C660 1.390 . S
C669 H662 0.950 . S
C669 C666 1.387 . S
C670 C671 1.387 . S
C670 H674 0.950 . S
C670 C679 1.390 . S
C671 C670 1.387 . S
C671 C673 1.387 . S
H672 C679 0.950 . S
C673 C671 1.387 . S
C673 C675 1.390 . S
C673 H677 0.950 . S
H674 C670 0.950 . S
C675 C673 1.390 . S
C675 C676 1.387 . S
C675 H678 0.950 . S
C676 C675 1.387 . S
C676 C679 1.387 . S
H677 C673 0.950 . S
H678 C675 0.950 . S
C679 C670 1.390 . S
C679 H672 0.950 . S
C679 C676 1.387 . S
C680 C681 1.387 1_545 S
C680 H684 0.950 . S
C680 C689 1.390 . S
C681 C680 1.387 1_565 S
C681 C683 1.387 . S
H682 C689 0.950 . S
C683 C681 1.387 . S
C683 C685 1.390 . S
C683 H687 0.950 . S
H684 C680 0.950 . S
C685 C683 1.390 . S
C685 C686 1.387 1_565 S
C685 H688 0.950 . S
C686 C685 1.387 1_545 S
C686 C689 1.387 . S
H687 C683 0.950 . S
H688 C685 0.950 . S
C689 C680 1.390 . S
C689 H682 0.950 . S
C689 C686 1.387 . S
C690 C691 1.416 . S
C690 H694 0.921 1_565 S
C690 C699 1.392 . S
C691 C690 1.416 . S
C691 C693 1.387 . S
H692 C699 0.950 1_545 S
C693 C691 1.387 . S
C693 C695 1.390 . S
C693 H697 0.950 . S
H694 C690 0.921 1_545 S
C695 C693 1.390 . S
C695 C696 1.387 . S
C695 H698 0.950 . S
C696 C695 1.387 . S
C696 C699 1.387 . S
H697 C693 0.950 . S
H698 C695 0.950 . S
C699 C690 1.392 . S
C699 H692 0.950 1_565 S
C699 C696 1.387 . S
C700 C701 1.387 . S
C700 H704 0.950 1_556 S
C700 C709 1.390 . S
C701 C700 1.387 . S
C701 C703 1.387 . S
H702 C709 0.950 . S
C703 C701 1.387 . S
C703 C705 1.390 . S
C703 H707 0.950 . S
H704 C700 0.950 1_554 S
C705 C703 1.390 . S
C705 C706 1.387 . S
C705 H708 0.950 . S
C706 C705 1.387 . S
C706 C709 1.387 . S
H707 C703 0.950 . S
H708 C705 0.950 . S
C709 C700 1.390 . S
C709 H702 0.950 . S
C709 C706 1.387 . S
C710 C711 1.387 1_554 S
C710 H714 0.950 . S
C710 C719 1.390 1_554 S
C711 C710 1.387 1_556 S
C711 C713 1.387 . S
H712 C719 0.950 1_554 S
C713 C711 1.387 . S
C713 C715 1.390 . S
C713 H717 0.950 . S
H714 C710 0.950 . S
C715 C713 1.390 . S
C715 C716 1.387 . S
C715 H718 0.950 . S
C716 C715 1.387 . S
C716 C719 1.387 . S
H717 C713 0.950 . S
H718 C715 0.950 . S
C719 C710 1.390 1_556 S
C719 H712 0.950 1_556 S
C719 C716 1.387 . S
C720 C721 1.387 . S
C720 H724 0.950 . S
C720 C729 1.390 . S
C721 C720 1.387 . S
C721 C723 1.387 . S
H722 C729 0.950 . S
C723 C721 1.387 . S
C723 C725 1.390 . S
C723 H727 0.950 . S
H724 C720 0.950 . S
C725 C723 1.390 . S
C725 C726 1.387 . S
C725 H728 0.950 . S
C726 C725 1.387 . S
C726 C729 1.387 . S
H727 C723 0.950 . S
H728 C725 0.950 . S
C729 C720 1.390 . S
C729 H722 0.950 . S
C729 C726 1.387 . S
C730 C731 1.387 . S
C730 H734 0.950 1_556 S
C730 C739 1.390 . S
C731 C730 1.387 . S
C731 C733 1.387 . S
H732 C739 0.950 . S
C733 C731 1.387 . S
C733 C735 1.390 . S
C733 H737 0.950 . S
H734 C730 0.950 1_554 S
C735 C733 1.390 . S
C735 C736 1.387 . S
C735 H738 0.950 . S
C736 C735 1.387 . S
C736 C739 1.387 . S
H737 C733 0.950 . S
H738 C735 0.950 . S
C739 C730 1.390 . S
C739 H732 0.950 . S
C739 C736 1.387 . S
C740 C741 1.387 . S
C740 H744 0.950 . S
C740 C749 1.390 . S
C741 C740 1.387 . S
C741 C743 1.387 . S
H742 C749 0.950 . S
C743 C741 1.387 . S
C743 C745 1.390 . S
C743 H747 0.950 . S
H744 C740 0.950 . S
C745 C743 1.390 . S
C745 C746 1.387 . S
C745 H748 0.950 . S
C746 C745 1.387 . S
C746 C749 1.387 . S
H747 C743 0.950 . S
H748 C745 0.950 . S
C749 C740 1.390 . S
C749 H742 0.950 . S
C749 C746 1.387 . S
C750 C751 1.387 . S
C750 H754 0.950 . S
C750 C759 1.390 . S
C751 C750 1.387 . S
C751 C753 1.387 . S
H752 C759 0.950 . S
C753 C751 1.387 . S
C753 C755 1.390 . S
C753 H757 0.950 . S
H754 C750 0.950 . S
C755 C753 1.390 . S
C755 C756 1.387 . S
C755 H758 0.950 . S
C756 C755 1.387 . S
C756 C759 1.387 . S
H757 C753 0.950 . S
H758 C755 0.950 . S
C759 C750 1.390 . S
C759 H752 0.950 . S
C759 C756 1.387 . S
C760 C761 1.387 . S
C760 H764 0.950 . S
C760 C769 1.390 . S
C761 C760 1.387 . S
C761 C763 1.387 . S
H762 C769 0.950 . S
C763 C761 1.387 . S
C763 C765 1.390 . S
C763 H767 0.950 . S
H764 C760 0.950 . S
C765 C763 1.390 . S
C765 C766 1.387 . S
C765 H768 0.950 . S
C766 C765 1.387 . S
C766 C769 1.387 . S
H767 C763 0.950 . S
H768 C765 0.950 . S
C769 C760 1.390 . S
C769 H762 0.950 . S
C769 C766 1.387 . S
C770 C771 1.387 1_545 S
C770 H774 0.950 . S
C770 C779 1.390 . S
C771 C770 1.387 1_565 S
C771 C773 1.387 . S
H772 C779 0.950 . S
C773 C771 1.387 . S
C773 C775 1.390 1_565 S
C773 H777 0.950 . S
H774 C770 0.950 . S
C775 C773 1.390 1_545 S
C775 C776 1.387 . S
C775 H778 0.950 . S
C776 C775 1.387 . S
C776 C779 1.387 . S
H777 C773 0.950 . S
H778 C775 0.950 . S
C779 C770 1.390 . S
C779 H772 0.950 . S
C779 C776 1.387 . S
C780 C781 1.387 . S
C780 H784 0.950 . S
C780 C789 1.390 . S
C781 C780 1.387 . S
C781 C783 1.387 . S
H782 C789 0.950 . S
C783 C781 1.387 . S
C783 C785 1.390 . S
C783 H787 0.950 . S
H784 C780 0.950 . S
C785 C783 1.390 . S
C785 C786 1.387 . S
C785 H788 0.950 1_554 S
C786 C785 1.387 . S
C786 C789 1.387 . S
H787 C783 0.950 . S
H788 C785 0.950 1_556 S
C789 C780 1.390 . S
C789 H782 0.950 . S
C789 C786 1.387 . S
C790 C791 1.387 . S
C790 H794 0.950 . S
C790 C799 1.390 . S
C791 C790 1.387 . S
C791 C793 1.387 . S
H792 C799 0.950 . S
C793 C791 1.387 . S
C793 C795 1.390 . S
C793 H797 0.950 . S
H794 C790 0.950 . S
C795 C793 1.390 . S
C795 C796 1.387 . S
C795 H798 0.950 . S
C796 C795 1.387 . S
C796 C799 1.387 . S
H797 C793 0.950 . S
H798 C795 0.950 . S
C799 C790 1.390 . S
C799 H792 0.950 . S
C799 C796 1.387 . S
C800 C801 1.387 . S
C800 H804 0.950 . S
C800 C809 1.390 . S
C801 C800 1.387 . S
C801 C803 1.387 . S
H802 C809 0.950 . S
C803 C801 1.387 . S
C803 C805 1.390 . S
C803 H807 0.950 . S
H804 C800 0.950 . S
C805 C803 1.390 . S
C805 C806 1.387 . S
C805 H808 0.950 . S
C806 C805 1.387 . S
C806 C809 1.387 . S
H807 C803 0.950 . S
H808 C805 0.950 . S
C809 C800 1.390 . S
C809 H802 0.950 . S
C809 C806 1.387 . S
C810 C811 1.387 . S
C810 H814 0.950 . S
C810 C819 1.390 . S
C811 C810 1.387 . S
C811 C813 1.387 . S
H812 C819 0.950 . S
C813 C811 1.387 . S
C813 C815 1.390 . S
C813 H817 0.950 . S
H814 C810 0.950 . S
C815 C813 1.390 . S
C815 C816 1.387 . S
C815 H818 0.950 . S
C816 C815 1.387 . S
C816 C819 1.387 . S
H817 C813 0.950 . S
H818 C815 0.950 . S
C819 C810 1.390 . S
C819 H812 0.950 . S
C819 C816 1.387 . S
C820 C821 1.387 . S
C820 H824 0.950 . S
C820 C829 1.390 . S
C821 C820 1.387 . S
C821 C823 1.387 1_556 S
H822 C829 0.950 . S
C823 C821 1.387 1_554 S
C823 C825 1.390 . S
C823 H827 0.950 . S
H824 C820 0.950 . S
C825 C823 1.390 . S
C825 C826 1.387 1_554 S
C825 H828 0.950 . S
C826 C825 1.387 1_556 S
C826 C829 1.387 . S
H827 C823 0.950 . S
H828 C825 0.950 . S
C829 C820 1.390 . S
C829 H822 0.950 . S
C829 C826 1.387 . S
C830 C831 1.387 . S
C830 H834 0.950 . S
C830 C839 1.390 . S
C831 C830 1.387 . S
C831 C833 1.387 . S
H832 C839 0.950 . S
C833 C831 1.387 . S
C833 C835 1.390 . S
C833 H837 0.950 . S
H834 C830 0.950 . S
C835 C833 1.390 . S
C835 C836 1.387 . S
C835 H838 0.950 . S
C836 C835 1.387 . S
C836 C839 1.387 . S
H837 C833 0.950 . S
H838 C835 0.950 . S
C839 C830 1.390 . S
C839 H832 0.950 . S
C839 C836 1.387 . S
C840 C841 1.387 . S
C840 H844 0.950 . S
C840 C849 1.390 . S
C841 C840 1.387 . S
C841 C843 1.387 . S
H842 C849 0.950 . S
C843 C841 1.387 . S
C843 C845 1.390 . S
C843 H847 0.950 . S
H844 C840 0.950 . S
C845 C843 1.390 . S
C845 C846 1.387 . S
C845 H848 0.950 . S
C846 C845 1.387 . S
C846 C849 1.387 . S
H847 C843 0.950 . S
H848 C845 0.950 . S
C849 C840 1.390 . S
C849 H842 0.950 . S
C849 C846 1.387 . S
C850 C851 1.387 1_545 S
C850 H854 0.950 . S
C850 C859 1.390 1_545 S
C851 C850 1.387 1_565 S
C851 C853 1.387 . S
H852 C859 0.950 1_545 S
C853 C851 1.387 . S
C853 C855 1.390 . S
C853 H857 0.950 . S
H854 C850 0.950 . S
C855 C853 1.390 . S
C855 C856 1.387 . S
C855 H858 0.950 . S
C856 C855 1.387 . S
C856 C859 1.387 . S
H857 C853 0.950 . S
H858 C855 0.950 . S
C859 C850 1.390 1_565 S
C859 H852 0.950 1_565 S
C859 C856 1.387 . S
C860 C861 1.387 . S
C860 H864 0.950 . S
C860 C869 1.390 . S
C861 C860 1.387 . S
C861 C863 1.387 . S
H862 C869 0.950 . S
C863 C861 1.387 . S
C863 C865 1.390 . S
C863 H867 0.950 . S
H864 C860 0.950 . S
C865 C863 1.390 . S
C865 C866 1.387 . S
C865 H868 0.950 . S
C866 C865 1.387 . S
C866 C869 1.387 . S
H867 C863 0.950 . S
H868 C865 0.950 . S
C869 C860 1.390 . S
C869 H862 0.950 . S
C869 C866 1.387 . S
C870 C871 1.387 . S
C870 H874 0.950 . S
C870 C879 1.390 . S
C871 C870 1.387 . S
C871 C873 1.387 . S
H872 C879 0.950 . S
C873 C871 1.387 . S
C873 C875 1.390 . S
C873 H877 0.950 . S
H874 C870 0.950 . S
C875 C873 1.390 . S
C875 C876 1.387 . S
C875 H878 0.950 . S
C876 C875 1.387 . S
C876 C879 1.387 . S
H877 C873 0.950 . S
H878 C875 0.950 . S
C879 C870 1.390 . S
C879 H872 0.950 . S
C879 C876 1.387 . S
C641 C391 1.380 . S
C646 C489 1.347 . S
C656 C529 2.238 . S
C651 C451 2.499 . S
C666 C578 1.552 . S
C661 C241 1.547 . S
C676 C609 2.071 . S
C671 C331 1.939 . S
C686 C498 1.347 . S
C681 C121 1.388 . S
C691 C211 2.377 . S
C696 C538 2.239 1_554 S
C701 C31 1.549 . S
C706 C569 1.553 . S
C711 C91 2.077 . S
C716 C618 2.068 1_655 S
C726 C499 1.921 . S
C721 C301 1.292 . S
C736 C539 1.824 . S
C731 C380 1.708 . S
C746 C575 0.847 . S
C741 C440 0.848 . S
C751 C260 1.469 . S
C756 C619 1.905 . S
C761 C61 1.480 . S
C766 C490 1.922 1_655 S
C776 C530 1.821 . S
C771 C140 1.429 . S
C786 C566 0.847 . S
C781 C200 0.827 . S
C791 C20 1.760 . S
C796 C610 1.902 . S
C801 C320 2.069 . S
C806 C495 2.180 . S
C811 C361 1.648 . S
C816 C535 1.789 . S
C826 C579 3.157 . S
C821 C421 2.569 1_556 S
C836 C615 1.804 . S
C831 C271 1.810 . S
C841 C80 2.133 . S
C846 C486 2.179 . S
C856 C526 1.789 . S
C851 C151 1.797 . S
C866 C570 3.157 . S
C861 C181 2.483 . S
C871 C1 1.693 . S
C876 C606 1.802 . S
