# Generated by pormake.
# Topology nom, (4,4)-cn, num edge types: 1
# Building blocks:
#     Node 0, Type 0, BuildingBlock: NAWXER_clean_linker_0, # of connection points: 4
#     Node 1, Type 0, BuildingBlock: NAWXER_clean_linker_0, # of connection points: 4
#     Node 2, Type 0, BuildingBlock: NAWXER_clean_linker_0, # of connection points: 4
#     Node 3, Type 0, BuildingBlock: NAWXER_clean_linker_0, # of connection points: 4
#     Node 4, Type 0, BuildingBlock: NAWXER_clean_linker_0, # of connection points: 4
#     Node 5, Type 0, BuildingBlock: NAWXER_clean_linker_0, # of connection points: 4
#     Node 6, Type 1, BuildingBlock: UXUYUI_clean_sbu_0, # of connection points: 4
#     Node 7, Type 1, BuildingBlock: UXUYUI_clean_sbu_0, # of connection points: 4
#     Node 8, Type 1, BuildingBlock: UXUYUI_clean_sbu_0, # of connection points: 4
#     Node 9, Type 1, BuildingBlock: UXUYUI_clean_sbu_0, # of connection points: 4
#     Node 10, Type 1, BuildingBlock: UXUYUI_clean_sbu_0, # of connection points: 4
#     Node 11, Type 1, BuildingBlock: UXUYUI_clean_sbu_0, # of connection points: 4
#     Edge 12, Type (0, 1), None
#     Edge 13, Type (0, 1), None
#     Edge 14, Type (0, 1), None
#     Edge 15, Type (0, 1), None
#     Edge 16, Type (0, 1), None
#     Edge 17, Type (0, 1), None
#     Edge 18, Type (0, 1), None
#     Edge 19, Type (0, 1), None
#     Edge 20, Type (0, 1), None
#     Edge 21, Type (0, 1), None
#     Edge 22, Type (0, 1), None
#     Edge 23, Type (0, 1), None
#     Edge 24, Type (0, 1), None
#     Edge 25, Type (0, 1), None
#     Edge 26, Type (0, 1), None
#     Edge 27, Type (0, 1), None
#     Edge 28, Type (0, 1), None
#     Edge 29, Type (0, 1), None
#     Edge 30, Type (0, 1), None
#     Edge 31, Type (0, 1), None
#     Edge 32, Type (0, 1), None
#     Edge 33, Type (0, 1), None
#     Edge 34, Type (0, 1), None
#     Edge 35, Type (0, 1), None
# Relax obj value: 0.041
# Max RMSD: 0.144
# Mean RMSD: 0.123
data_MOF--net-nom--node1-UXUYUI_clean_sbu_0--node2-NAWXER_clean_linker_0--edge1-none
_symmetry_space_group_name_H-M    P1
_symmetry_Int_Tables_number       1
_symmetry_cell_setting            triclinic
loop_
_symmetry_equiv_pos_as_xyz
'x, y, z'
_cell_length_a     38.496557
_cell_length_b     38.47488
_cell_length_c     42.182328
_cell_angle_alpha  89.940914
_cell_angle_beta   90.053502
_cell_angle_gamma 120.00984
loop_
_atom_site_label
_atom_site_type_symbol
_atom_site_fract_x
_atom_site_fract_y
_atom_site_fract_z
_atom_type_partial_charge
C0 C 0.88058 0.50203 0.35497 0.0
C1 C 0.86246 0.47213 0.37825 0.0
C2 C 0.91871 0.51299 0.34356 0.0
C3 C 0.93954 0.4944 0.35532 0.0
C4 C 0.88314 0.45328 0.38987 0.0
C5 C 0.92165 0.46473 0.37877 0.0
C6 C 0.9813 0.50879 0.34521 0.0
C7 C 0.90745 0.44184 0.26068 0.0
C8 C 0.91393 0.46447 0.23285 0.0
C9 C 0.93261 0.45849 0.28696 0.0
C10 C 0.96458 0.49832 0.28618 0.0
C11 C 0.946 0.50428 0.2321 0.0
C12 C 0.97112 0.52092 0.2584 0.0
C13 C 0.9932 0.51541 0.3131 0.0
C14 C 0.17441 0.59849 0.31801 0.0
C15 C 0.18269 0.63125 0.2982 0.0
C16 C 0.13518 0.5721 0.32812 0.0
C17 C 0.10369 0.5784 0.31895 0.0
C18 C 0.15081 0.63663 0.2884 0.0
C19 C 0.1118 0.61046 0.29861 0.0
C20 C 0.06185 0.55164 0.32927 0.0
C21 C 0.13461 0.60327 0.41926 0.0
C22 C 0.12971 0.57387 0.44151 0.0
C23 C 0.10889 0.59315 0.39312 0.0
C24 C 0.07838 0.55324 0.38831 0.0
C25 C 0.09864 0.53416 0.43699 0.0
C26 C 0.07325 0.524 0.4107 0.0
C27 C 0.05 0.54161 0.3613 0.0
H28 H 0.86513 0.51679 0.34547 0.0
H29 H 0.93231 0.5367 0.32604 0.0
H30 H 0.86982 0.43026 0.40793 0.0
H31 H 0.93748 0.45047 0.38849 0.0
H32 H 0.88346 0.41091 0.26191 0.0
H33 H 0.92763 0.43977 0.30757 0.0
H34 H 0.95152 0.52278 0.21125 0.0
H35 H 0.9957 0.55159 0.25704 0.0
H36 H 0.19831 0.59356 0.32611 0.0
H37 H 0.12951 0.54695 0.34314 0.0
H38 H 0.15592 0.66097 0.27263 0.0
H39 H 0.08788 0.61559 0.29085 0.0
H40 H 0.15776 0.63429 0.42245 0.0
H41 H 0.11259 0.61661 0.37692 0.0
H42 H 0.09418 0.51083 0.45364 0.0
H43 H 0.04962 0.49311 0.40775 0.0
N44 N 0.01008 0.52108 0.36798 0.0
N45 N 0.03298 0.53748 0.30649 0.0
C46 C 0.39899 0.88047 0.52172 0.0
C47 C 0.41081 0.86304 0.54556 0.0
C48 C 0.42607 0.91843 0.50979 0.0
C49 C 0.46545 0.93977 0.52157 0.0
C50 C 0.45031 0.88424 0.55719 0.0
C51 C 0.47725 0.92254 0.54557 0.0
C52 C 0.49273 0.98146 0.51102 0.0
C53 C 0.48571 0.90661 0.42718 0.0
C54 C 0.47158 0.91406 0.39869 0.0
C55 C 0.49357 0.93167 0.45343 0.0
C56 C 0.48673 0.9643 0.45199 0.0
C57 C 0.46493 0.94677 0.3972 0.0
C58 C 0.47248 0.97162 0.42353 0.0
C59 C 0.49794 0.99305 0.47881 0.0
C60 C 0.59569 0.17461 0.48243 0.0
C61 C 0.57144 0.18241 0.46193 0.0
C62 C 0.58288 0.13555 0.49309 0.0
C63 C 0.54532 0.10372 0.48385 0.0
C64 C 0.5344 0.15019 0.4521 0.0
C65 C 0.52157 0.11137 0.4629 0.0
C66 C 0.53039 0.06194 0.49451 0.0
C67 C 0.5517 0.13457 0.58476 0.0
C68 C 0.57741 0.13054 0.60636 0.0
C69 C 0.53593 0.10883 0.55866 0.0
C70 C 0.54611 0.07899 0.55334 0.0
C71 C 0.58702 0.10024 0.60116 0.0
C72 C 0.57143 0.07471 0.57501 0.0
C73 C 0.52889 0.05038 0.52658 0.0
H74 H 0.36882 0.86464 0.51218 0.0
H75 H 0.41592 0.9315 0.49185 0.0
H76 H 0.46008 0.8715 0.57568 0.0
H77 H 0.50729 0.93875 0.55532 0.0
H78 H 0.49166 0.88198 0.42893 0.0
H79 H 0.50609 0.92608 0.47451 0.0
H80 H 0.45357 0.95299 0.37571 0.0
H81 H 0.46727 0.99673 0.42158 0.0
H82 H 0.62432 0.19874 0.4906 0.0
H83 H 0.6023 0.1303 0.50851 0.0
H84 H 0.51534 0.15487 0.43583 0.0
H85 H 0.49272 0.08721 0.45505 0.0
H86 H 0.54304 0.15706 0.58842 0.0
H87 H 0.51541 0.11193 0.54292 0.0
H88 H 0.6069 0.09647 0.61717 0.0
H89 H 0.57934 0.05161 0.57159 0.0
N90 N 0.50948 0.01051 0.53355 0.0
N91 N 0.51558 0.0328 0.47196 0.0
C92 C 0.60068 0.4852 0.59261 0.0
C93 C 0.57869 0.4708 0.56434 0.0
C94 C 0.58395 0.49348 0.61894 0.0
C95 C 0.54456 0.48682 0.61778 0.0
C96 C 0.53938 0.46429 0.56314 0.0
C97 C 0.52256 0.47229 0.58954 0.0
C98 C 0.52749 0.49844 0.64464 0.0
C99 C 0.5409 0.39932 0.68773 0.0
C100 C 0.57047 0.41132 0.71131 0.0
C101 C 0.52999 0.42637 0.67578 0.0
C102 C 0.54831 0.46588 0.68732 0.0
C103 C 0.58904 0.45095 0.72268 0.0
C104 C 0.57765 0.47786 0.71106 0.0
C105 C 0.53391 0.49316 0.67682 0.0
C106 C 0.44002 0.55128 0.7512 0.0
C107 C 0.47002 0.57834 0.77201 0.0
C108 C 0.44992 0.53529 0.72524 0.0
C109 C 0.49007 0.54651 0.71933 0.0
C110 C 0.51008 0.58889 0.76626 0.0
C111 C 0.51993 0.573 0.74028 0.0
C112 C 0.50145 0.52949 0.6925 0.0
C113 C 0.44282 0.59585 0.65063 0.0
C114 C 0.41225 0.57306 0.62855 0.0
C115 C 0.46933 0.58315 0.66075 0.0
C116 C 0.46502 0.54674 0.64979 0.0
C117 C 0.40932 0.53759 0.61662 0.0
C118 C 0.43524 0.52457 0.62719 0.0
C119 C 0.49155 0.53136 0.66043 0.0
H120 H 0.63124 0.49107 0.59412 0.0
H121 H 0.60236 0.50619 0.63984 0.0
H122 H 0.52149 0.45274 0.54183 0.0
H123 H 0.49228 0.4672 0.58783 0.0
H124 H 0.52636 0.36904 0.6784 0.0
H125 H 0.50654 0.41611 0.65804 0.0
H126 H 0.61181 0.46084 0.74096 0.0
H127 H 0.5917 0.50801 0.72062 0.0
H128 H 0.40877 0.54187 0.75532 0.0
H129 H 0.42622 0.51399 0.70993 0.0
H130 H 0.53392 0.6098 0.78166 0.0
H131 H 0.55106 0.58171 0.73636 0.0
H132 H 0.44603 0.62324 0.66054 0.0
H133 H 0.49299 0.60175 0.67721 0.0
H134 H 0.38706 0.51977 0.59895 0.0
H135 H 0.43168 0.49674 0.61786 0.0
N136 N 0.5057 0.51643 0.63785 0.0
N137 N 0.52172 0.50991 0.6994 0.0
C138 C 0.87731 0.3993 0.81796 0.0
C139 C 0.85938 0.41136 0.79472 0.0
C140 C 0.91545 0.4263 0.82955 0.0
C141 C 0.93648 0.46582 0.818 0.0
C142 C 0.88027 0.451 0.78333 0.0
C143 C 0.91877 0.47787 0.79459 0.0
C144 C 0.97827 0.49306 0.82821 0.0
C145 C 0.90435 0.48476 0.91319 0.0
C146 C 0.91237 0.47043 0.94133 0.0
C147 C 0.92905 0.49312 0.88664 0.0
C148 C 0.96188 0.48658 0.88743 0.0
C149 C 0.94527 0.46406 0.94217 0.0
C150 C 0.96975 0.4721 0.91554 0.0
C151 C 0.99026 0.49823 0.86032 0.0
C152 C 0.17209 0.59466 0.85388 0.0
C153 C 0.1798 0.57111 0.87524 0.0
C154 C 0.13291 0.58231 0.84393 0.0
C155 C 0.10081 0.54562 0.85445 0.0
C156 C 0.14728 0.53524 0.88665 0.0
C157 C 0.10836 0.52266 0.87631 0.0
C158 C 0.05892 0.53072 0.84408 0.0
C159 C 0.13065 0.55132 0.75361 0.0
C160 C 0.12754 0.57816 0.73266 0.0
C161 C 0.10453 0.53506 0.77943 0.0
C162 C 0.07525 0.5459 0.78512 0.0
C163 C 0.09758 0.58817 0.73806 0.0
C164 C 0.07166 0.5721 0.76395 0.0
C165 C 0.04695 0.52899 0.81209 0.0
H166 H 0.86171 0.369 0.8273 0.0
H167 H 0.9289 0.41599 0.84704 0.0
H168 H 0.86713 0.46094 0.76529 0.0
H169 H 0.93474 0.50804 0.78502 0.0
H170 H 0.87954 0.49048 0.91196 0.0
H171 H 0.92303 0.50577 0.86585 0.0
H172 H 0.95193 0.45255 0.96336 0.0
H173 H 0.99501 0.46709 0.91698 0.0
H174 H 0.19632 0.62239 0.84442 0.0
H175 H 0.12783 0.60137 0.82795 0.0
H176 H 0.15174 0.51682 0.90374 0.0
H177 H 0.08405 0.49455 0.88524 0.0
H178 H 0.15285 0.54232 0.74973 0.0
H179 H 0.10708 0.51392 0.79484 0.0
H180 H 0.09448 0.60887 0.7225 0.0
H181 H 0.04899 0.58051 0.76767 0.0
N182 N 0.00702 0.50967 0.80544 0.0
N183 N 0.03007 0.51595 0.86684 0.0
C184 C 0.50046 0.87765 0.9836 0.0
C185 C 0.4707 0.86009 0.96016 0.0
C186 C 0.51165 0.91569 0.99542 0.0
C187 C 0.49336 0.93698 0.984 0.0
C188 C 0.45217 0.88125 0.94887 0.0
C189 C 0.46379 0.91962 0.96044 0.0
C190 C 0.50809 0.97875 0.99441 0.0
C191 C 0.4434 0.90472 0.07967 0.0
C192 C 0.4666 0.91154 0.10719 0.0
C193 C 0.45939 0.92975 0.05321 0.0
C194 C 0.49915 0.96188 0.05351 0.0
C195 C 0.50634 0.94372 0.10745 0.0
C196 C 0.52234 0.96867 0.08098 0.0
C197 C 0.51553 0.99053 0.02653 0.0
C198 C 0.59872 0.17191 0.02229 0.0
C199 C 0.63155 0.17994 0.0419 0.0
C200 C 0.57223 0.13277 0.012 0.0
C201 C 0.57849 0.10111 0.02079 0.0
C202 C 0.63695 0.14791 0.05127 0.0
C203 C 0.61069 0.109 0.04088 0.0
C204 C 0.55143 0.05929 0.01048 0.0
C205 C 0.60138 0.13192 0.92023 0.0
C206 C 0.57145 0.12814 0.89897 0.0
C207 C 0.59166 0.10595 0.94617 0.0
C208 C 0.55169 0.07613 0.95171 0.0
C209 C 0.53161 0.09775 0.90428 0.0
C210 C 0.5219 0.07199 0.93031 0.0
C211 C 0.54056 0.04757 0.97854 0.0
H212 H 0.51499 0.86187 0.99288 0.0
H213 H 0.53533 0.92888 0.01297 0.0
H214 H 0.4293 0.86844 0.93067 0.0
H215 H 0.44977 0.93579 0.95094 0.0
H216 H 0.4125 0.88061 0.07883 0.0
H217 H 0.44022 0.92456 0.03288 0.0
H218 H 0.52524 0.9495 0.12807 0.0
H219 H 0.55296 0.99337 0.08198 0.0
H220 H 0.59378 0.19592 0.01452 0.0
H221 H 0.54698 0.12729 0.99722 0.0
H222 H 0.66135 0.15282 0.06688 0.0
H223 H 0.61581 0.08496 0.04834 0.0
H224 H 0.6325 0.15444 0.91645 0.0
H225 H 0.61545 0.10891 0.96166 0.0
H226 H 0.50783 0.09414 0.88849 0.0
H227 H 0.49092 0.0489 0.93387 0.0
N228 N 0.51982 0.00766 0.97177 0.0
N229 N 0.53781 0.03031 0.03317 0.0
C230 C 0.50257 0.64439 0.18674 0.0
C231 C 0.47289 0.63221 0.21022 0.0
C232 C 0.51378 0.61755 0.17496 0.0
C233 C 0.49563 0.57805 0.18653 0.0
C234 C 0.45447 0.59259 0.22161 0.0
C235 C 0.46614 0.56586 0.21013 0.0
C236 C 0.51041 0.55104 0.17625 0.0
C237 C 0.44436 0.55907 0.09128 0.0
C238 C 0.46735 0.57548 0.06367 0.0
C239 C 0.46059 0.55017 0.11767 0.0
C240 C 0.50035 0.55788 0.1172 0.0
C241 C 0.50713 0.58316 0.06327 0.0
C242 C 0.52334 0.57428 0.08966 0.0
C243 C 0.51701 0.54586 0.14413 0.0
C244 C 0.60188 0.44866 0.1507 0.0
C245 C 0.63235 0.47139 0.12853 0.0
C246 C 0.57523 0.46123 0.16064 0.0
C247 C 0.57942 0.49754 0.14953 0.0
C248 C 0.63495 0.50662 0.11629 0.0
C249 C 0.60901 0.51959 0.12679 0.0
C250 C 0.55299 0.51301 0.16017 0.0
C251 C 0.60477 0.4922 0.25049 0.0
C252 C 0.57523 0.46739 0.27251 0.0
C253 C 0.59479 0.50805 0.22441 0.0
C254 C 0.55487 0.49845 0.21937 0.0
C255 C 0.53557 0.45875 0.26787 0.0
C256 C 0.52553 0.47413 0.24159 0.0
C257 C 0.54325 0.5151 0.19226 0.0
H258 H 0.51701 0.67468 0.1774 0.0
H259 H 0.53737 0.62799 0.15735 0.0
H260 H 0.43165 0.58256 0.23984 0.0
H261 H 0.45223 0.53571 0.21972 0.0
H262 H 0.41344 0.55215 0.09225 0.0
H263 H 0.4416 0.53623 0.13809 0.0
H264 H 0.52592 0.59632 0.04262 0.0
H265 H 0.55397 0.58028 0.08854 0.0
H266 H 0.59887 0.42144 0.16085 0.0
H267 H 0.55167 0.44271 0.1772 0.0
H268 H 0.657 0.52433 0.09846 0.0
H269 H 0.61242 0.54731 0.11729 0.0
H270 H 0.63575 0.50001 0.2538 0.0
H271 H 0.61829 0.52793 0.2083 0.0
H272 H 0.51217 0.4397 0.28438 0.0
H273 H 0.49464 0.46676 0.23849 0.0
N274 N 0.52277 0.53453 0.19895 0.0
N275 N 0.53882 0.52789 0.13749 0.0
Li276 Li 0.63896 0.42137 0.44714 0.0
Li277 Li 0.62861 0.35773 0.4253 0.0
Li278 Li 0.68861 0.41969 0.41446 0.0
Li279 Li 0.62822 0.41016 0.39048 0.0
C280 C 0.70456 0.40909 0.4721 0.0
N281 N 0.77831 0.44184 0.50176 0.0
C282 C 0.72151 0.38516 0.47877 0.0
C283 C 0.72503 0.44963 0.48062 0.0
C284 C 0.75886 0.4023 0.49376 0.0
C285 C 0.76229 0.46563 0.49558 0.0
C286 C 0.56039 0.37003 0.44623 0.0
C287 C 0.50221 0.37344 0.46279 0.0
N288 N 0.50264 0.35659 0.49105 0.0
C289 C 0.56009 0.35251 0.47537 0.0
C290 C 0.53112 0.38043 0.43981 0.0
C291 C 0.53071 0.34604 0.49773 0.0
C292 C 0.60662 0.46342 0.47942 0.0
N293 N 0.62621 0.44255 0.48344 0.0
C294 C 0.61805 0.44196 0.53966 0.0
C295 C 0.63246 0.43208 0.5128 0.0
C296 C 0.59656 0.46238 0.53624 0.0
C297 C 0.59134 0.47359 0.50564 0.0
H298 H 0.60152 0.47077 0.45574 0.0
H299 H 0.64715 0.41454 0.5153 0.0
C300 C 0.63622 0.29014 0.43468 0.0
N301 N 0.60873 0.30241 0.43328 0.0
C302 C 0.62466 0.25088 0.44363 0.0
C303 C 0.55638 0.23721 0.44833 0.0
C304 C 0.56926 0.2767 0.43916 0.0
C305 C 0.58433 0.22394 0.4511 0.0
H306 H 0.66728 0.31112 0.42924 0.0
H307 H 0.54789 0.28703 0.43738 0.0
C308 C 0.69022 0.48853 0.39064 0.0
N309 N 0.73083 0.54753 0.3457 0.0
C310 C 0.7045 0.47983 0.36303 0.0
C311 C 0.69657 0.52721 0.39535 0.0
C312 C 0.72496 0.51006 0.34062 0.0
C313 C 0.71719 0.55664 0.37237 0.0
C314 C 0.63608 0.34886 0.36114 0.0
C315 C 0.65832 0.34025 0.33962 0.0
C316 C 0.59419 0.32777 0.35943 0.0
C317 C 0.63827 0.31072 0.31662 0.0
C318 C 0.57526 0.29844 0.3361 0.0
N319 N 0.5975 0.2906 0.31535 0.0
C320 C 0.75278 0.40952 0.39897 0.0
C321 C 0.77282 0.47788 0.40791 0.0
C322 C 0.79178 0.41981 0.39049 0.0
N323 N 0.74399 0.43848 0.40697 0.0
C324 C 0.81213 0.48959 0.39908 0.0
C325 C 0.82178 0.46034 0.38987 0.0
H326 H 0.72919 0.37842 0.3986 0.0
H327 H 0.76514 0.50026 0.41481 0.0
C328 C 0.58376 0.43899 0.35711 0.0
N329 N 0.60781 0.42282 0.35324 0.0
C330 C 0.57198 0.45296 0.33091 0.0
C331 C 0.61057 0.43414 0.29721 0.0
C332 C 0.62117 0.42007 0.32398 0.0
C333 C 0.58583 0.45105 0.30051 0.0
H334 H 0.57482 0.44229 0.38067 0.0
H335 H 0.64127 0.4083 0.32143 0.0
O336 O 0.66857 0.39327 0.45665 0.0
O337 O 0.58985 0.37793 0.42452 0.0
O338 O 0.66953 0.45939 0.41282 0.0
O339 O 0.65556 0.37775 0.38372 0.0
H340 H 0.70609 0.35374 0.47241 0.0
H341 H 0.71248 0.46866 0.47534 0.0
H342 H 0.7724 0.38417 0.49899 0.0
H343 H 0.77856 0.497 0.50215 0.0
H344 H 0.47948 0.38148 0.45818 0.0
H345 H 0.58283 0.34474 0.48089 0.0
H346 H 0.53075 0.39384 0.41738 0.0
H347 H 0.53037 0.33286 0.52047 0.0
H348 H 0.62228 0.4323 0.56275 0.0
H349 H 0.57524 0.48966 0.50198 0.0
H350 H 0.64708 0.24176 0.44469 0.0
H351 H 0.52502 0.21765 0.45399 0.0
H352 H 0.6999 0.4501 0.35892 0.0
H353 H 0.68556 0.53437 0.41654 0.0
H354 H 0.73615 0.50373 0.31916 0.0
H355 H 0.7223 0.58672 0.37571 0.0
H356 H 0.69078 0.35632 0.34066 0.0
H357 H 0.57638 0.33393 0.3758 0.0
H358 H 0.65512 0.3038 0.29978 0.0
H359 H 0.54288 0.28192 0.33447 0.0
H360 H 0.79808 0.39647 0.38342 0.0
H361 H 0.83469 0.52114 0.39922 0.0
H362 H 0.55338 0.46637 0.33455 0.0
H363 H 0.62183 0.43204 0.27419 0.0
Li364 Li 0.24013 0.63793 0.61647 0.0
Li365 Li 0.29191 0.62825 0.59432 0.0
Li366 Li 0.29044 0.68956 0.58379 0.0
Li367 Li 0.23921 0.62766 0.55991 0.0
C368 C 0.3072 0.69827 0.64771 0.0
N369 N 0.32493 0.75575 0.69379 0.0
C370 C 0.33829 0.70773 0.66924 0.0
C371 C 0.28515 0.71808 0.64957 0.0
C372 C 0.34677 0.73686 0.69239 0.0
C373 C 0.29459 0.74705 0.67304 0.0
C374 C 0.21335 0.55931 0.61547 0.0
C375 C 0.15245 0.50164 0.63386 0.0
N376 N 0.17205 0.50028 0.66026 0.0
C377 C 0.2329 0.55728 0.64276 0.0
C378 C 0.17281 0.53125 0.61094 0.0
C379 C 0.21151 0.52724 0.66512 0.0
C380 C 0.16707 0.61297 0.64935 0.0
N381 N 0.20645 0.62455 0.65317 0.0
C382 C 0.1962 0.60828 0.70839 0.0
C383 C 0.22139 0.62288 0.68202 0.0
C384 C 0.15519 0.59534 0.70512 0.0
C385 C 0.14079 0.59832 0.67516 0.0
H386 H 0.15586 0.61394 0.62603 0.0
H387 H 0.25265 0.63149 0.68436 0.0
C388 C 0.36682 0.63779 0.60736 0.0
N389 N 0.32811 0.60934 0.60167 0.0
C390 C 0.39504 0.62666 0.61554 0.0
C391 C 0.34296 0.55708 0.61161 0.0
C392 C 0.3159 0.56959 0.603 0.0
C393 C 0.38318 0.58577 0.6183 0.0
H394 H 0.37558 0.66921 0.60596 0.0
H395 H 0.28493 0.54761 0.59818 0.0
C396 C 0.22183 0.68899 0.56094 0.0
N397 N 0.20196 0.7293 0.51681 0.0
C398 C 0.24428 0.70368 0.53313 0.0
C399 C 0.18927 0.69476 0.56628 0.0
C400 C 0.23377 0.72399 0.51111 0.0
C401 C 0.1797 0.71524 0.5437 0.0
C402 C 0.30936 0.63764 0.53025 0.0
C403 C 0.34132 0.66091 0.50988 0.0
C404 C 0.28863 0.59584 0.52731 0.0
C405 C 0.35197 0.64194 0.48677 0.0
C406 C 0.30021 0.57802 0.50392 0.0
N407 N 0.33137 0.60123 0.4843 0.0
C408 C 0.36449 0.75402 0.56878 0.0
C409 C 0.31555 0.77354 0.57605 0.0
C410 C 0.39297 0.79288 0.55964 0.0
N411 N 0.32653 0.745 0.5762 0.0
C412 C 0.34294 0.81272 0.56655 0.0
C413 C 0.38204 0.82255 0.5578 0.0
H414 H 0.3723 0.73064 0.56921 0.0
H415 H 0.28531 0.76572 0.58247 0.0
C416 C 0.16615 0.58248 0.52628 0.0
N417 N 0.20629 0.6073 0.52261 0.0
C418 C 0.14061 0.57044 0.49997 0.0
C419 C 0.19805 0.61021 0.46656 0.0
C420 C 0.2225 0.62113 0.49344 0.0
C421 C 0.15647 0.58471 0.46964 0.0
H422 H 0.1538 0.57307 0.54977 0.0
H423 H 0.25428 0.64176 0.49105 0.0
O424 O 0.29869 0.66974 0.625 0.0
O425 O 0.23365 0.58908 0.59364 0.0
O426 O 0.23102 0.66844 0.58273 0.0
O427 O 0.29876 0.65594 0.55298 0.0
H428 H 0.35563 0.69265 0.66808 0.0
H429 H 0.26096 0.71119 0.63318 0.0
H430 H 0.37072 0.74445 0.70925 0.0
H431 H 0.27777 0.7626 0.67477 0.0
H432 H 0.12105 0.47976 0.63067 0.0
H433 H 0.26407 0.5792 0.64698 0.0
H434 H 0.15718 0.53228 0.58999 0.0
H435 H 0.22621 0.52552 0.68645 0.0
H436 H 0.20866 0.60688 0.73106 0.0
H437 H 0.10931 0.58825 0.67147 0.0
H438 H 0.42576 0.64992 0.61971 0.0
H439 H 0.33207 0.52524 0.6138 0.0
H440 H 0.26963 0.69959 0.52856 0.0
H441 H 0.17151 0.68344 0.58766 0.0
H442 H 0.25089 0.73552 0.4895 0.0
H443 H 0.15455 0.71992 0.54752 0.0
H444 H 0.35766 0.6933 0.51187 0.0
H445 H 0.2638 0.57729 0.54281 0.0
H446 H 0.37661 0.65957 0.47081 0.0
H447 H 0.28442 0.54571 0.50135 0.0
H448 H 0.42277 0.79929 0.55296 0.0
H449 H 0.33362 0.835 0.56578 0.0
H450 H 0.10864 0.55126 0.50347 0.0
H451 H 0.21152 0.6218 0.44362 0.0
Li452 Li 0.68548 0.29095 0.75814 0.0
Li453 Li 0.62431 0.23968 0.78184 0.0
Li454 Li 0.63394 0.24014 0.72451 0.0
Li455 Li 0.62362 0.2909 0.74865 0.0
C456 C 0.68509 0.22109 0.77935 0.0
N457 N 0.72442 0.19818 0.82202 0.0
C458 C 0.70147 0.24319 0.80709 0.0
C459 C 0.68867 0.18732 0.77333 0.0
C460 C 0.72125 0.23114 0.82836 0.0
C461 C 0.70869 0.17623 0.79519 0.0
C462 C 0.63252 0.30752 0.81254 0.0
C463 C 0.57175 0.29553 0.83857 0.0
N464 N 0.59391 0.32603 0.85904 0.0
C465 C 0.65469 0.33876 0.83379 0.0
C466 C 0.59069 0.28569 0.81489 0.0
C467 C 0.63462 0.34765 0.85716 0.0
C468 C 0.74988 0.36497 0.77338 0.0
N469 N 0.74088 0.32719 0.76527 0.0
C470 C 0.80885 0.34376 0.77347 0.0
C471 C 0.76952 0.31638 0.76438 0.0
C472 C 0.8187 0.38267 0.78288 0.0
C473 C 0.78888 0.39345 0.78213 0.0
H474 H 0.7264 0.37262 0.77378 0.0
H475 H 0.76167 0.28628 0.75745 0.0
C476 C 0.57676 0.16663 0.81511 0.0
N477 N 0.60421 0.20618 0.81874 0.0
C478 C 0.56496 0.14062 0.84117 0.0
C479 C 0.6096 0.19661 0.87422 0.0
C480 C 0.62035 0.22151 0.84762 0.0
C481 C 0.58189 0.15546 0.87117 0.0
H482 H 0.56486 0.15509 0.7918 0.0
H483 H 0.64254 0.25292 0.84994 0.0
C484 C 0.69362 0.3086 0.69442 0.0
N485 N 0.75118 0.32823 0.64807 0.0
C486 C 0.70279 0.34026 0.67355 0.0
C487 C 0.71375 0.28693 0.69176 0.0
C488 C 0.73197 0.34971 0.65025 0.0
C489 C 0.74275 0.29733 0.66817 0.0
C490 C 0.55446 0.22128 0.72682 0.0
C491 C 0.56043 0.24369 0.6992 0.0
C492 C 0.51703 0.18752 0.73264 0.0
C493 C 0.52876 0.23195 0.67784 0.0
C494 C 0.48609 0.17675 0.7107 0.0
N495 N 0.49255 0.19899 0.68398 0.0
C496 C 0.60897 0.16771 0.69066 0.0
C497 C 0.62059 0.22305 0.65853 0.0
C498 C 0.59524 0.14213 0.66437 0.0
N499 N 0.62103 0.20729 0.68732 0.0
C500 C 0.60695 0.19859 0.6317 0.0
C501 C 0.59363 0.15742 0.63443 0.0
H502 H 0.60903 0.15583 0.7139 0.0
H503 H 0.62974 0.25447 0.65645 0.0
C504 C 0.63329 0.36497 0.73372 0.0
N505 N 0.60441 0.32712 0.7416 0.0
C506 C 0.62287 0.39346 0.72473 0.0
C507 C 0.55311 0.34367 0.73273 0.0
C508 C 0.56495 0.31628 0.74208 0.0
C509 C 0.58229 0.38263 0.7235 0.0
H510 H 0.66444 0.37265 0.73363 0.0
H511 H 0.5426 0.28611 0.74882 0.0
O512 O 0.665 0.23182 0.75835 0.0
O513 O 0.65195 0.29865 0.78957 0.0
O514 O 0.66512 0.29919 0.71732 0.0
O515 O 0.58513 0.23172 0.74793 0.0
H516 H 0.69896 0.26939 0.81217 0.0
H517 H 0.67601 0.16981 0.75201 0.0
H518 H 0.73404 0.24797 0.84992 0.0
H519 H 0.71167 0.15014 0.79084 0.0
H520 H 0.53941 0.27889 0.84069 0.0
H521 H 0.68709 0.35593 0.83226 0.0
H522 H 0.57297 0.26139 0.79873 0.0
H523 H 0.6514 0.37174 0.87379 0.0
H524 H 0.83124 0.33457 0.77342 0.0
H525 H 0.79533 0.4231 0.78935 0.0
H526 H 0.54382 0.10903 0.83765 0.0
H527 H 0.62307 0.20944 0.89692 0.0
H528 H 0.68746 0.35732 0.67531 0.0
H529 H 0.70709 0.2623 0.70763 0.0
H530 H 0.73934 0.37412 0.63391 0.0
H531 H 0.75855 0.28081 0.66583 0.0
H532 H 0.5892 0.2699 0.69429 0.0
H533 H 0.512 0.16979 0.75388 0.0
H534 H 0.53298 0.24902 0.65637 0.0
H535 H 0.45695 0.15067 0.71489 0.0
H536 H 0.58484 0.1105 0.66766 0.0
H537 H 0.60665 0.21176 0.60907 0.0
H538 H 0.64618 0.42315 0.71766 0.0
H539 H 0.52152 0.33444 0.73241 0.0
Li540 Li 0.40676 0.62468 0.94535 0.0
Li541 Li 0.41737 0.68679 0.92159 0.0
Li542 Li 0.35471 0.62537 0.91026 0.0
Li543 Li 0.4164 0.63559 0.8891 0.0
C544 C 0.34533 0.6352 0.97407 0.0
N545 N 0.28514 0.60037 0.01885 0.0
C546 C 0.33743 0.65926 0.99417 0.0
C547 C 0.32254 0.59341 0.97665 0.0
C548 C 0.30691 0.64108 0.0167 0.0
C549 C 0.29226 0.57639 0.99946 0.0
C550 C 0.48475 0.68669 0.94521 0.0
C551 C 0.55326 0.71584 0.96301 0.0
N552 N 0.54336 0.72749 0.99036 0.0
C553 C 0.47525 0.69895 0.97352 0.0
C554 C 0.52404 0.69516 0.93991 0.0
C555 C 0.5053 0.71954 0.99604 0.0
C556 C 0.44358 0.588 0.97843 0.0
N557 N 0.41996 0.60462 0.98261 0.0
C558 C 0.42533 0.6016 0.03901 0.0
C559 C 0.41084 0.61168 0.01222 0.0
C560 C 0.44998 0.5846 0.03543 0.0
C561 C 0.45877 0.57751 1.00457 0.0
H562 H 0.45181 0.58421 0.95473 0.0
H563 H 0.39379 0.62671 0.01526 0.0
C564 C 0.40771 0.75119 0.93679 0.0
N565 N 0.43658 0.74204 0.92948 0.0
C566 C 0.41819 0.79005 0.94598 0.0
C567 C 0.48801 0.80961 0.93925 0.0
C568 C 0.47614 0.77044 0.92977 0.0
C569 C 0.45882 0.81958 0.94792 0.0
H570 H 0.37649 0.72793 0.9362 0.0
H571 H 0.49849 0.76253 0.9234 0.0
C572 C 0.36919 0.55703 0.89071 0.0
N573 N 0.36164 0.49962 0.84758 0.0
C574 C 0.3468 0.55051 0.86299 0.0
C575 C 0.38743 0.5341 0.89661 0.0
C576 C 0.34341 0.5214 0.84145 0.0
C577 C 0.38334 0.50528 0.87448 0.0
C578 C 0.41021 0.69637 0.85782 0.0
C579 C 0.38888 0.70629 0.83634 0.0
C580 C 0.45208 0.71618 0.85625 0.0
C581 C 0.40983 0.73587 0.81354 0.0
C582 C 0.47192 0.74561 0.83313 0.0
N583 N 0.45057 0.75476 0.81242 0.0
C584 C 0.28944 0.63515 0.89788 0.0
C585 C 0.27265 0.56691 0.89946 0.0
C586 C 0.2502 0.62424 0.88953 0.0
N587 N 0.29986 0.60658 0.90232 0.0
C588 C 0.23319 0.55464 0.89071 0.0
C589 C 0.22149 0.5835 0.88538 0.0
H590 H 0.31187 0.6665 0.90044 0.0
H591 H 0.2818 0.54485 0.90328 0.0
C592 C 0.46598 0.61281 0.85554 0.0
N593 N 0.43719 0.62315 0.85224 0.0
C594 C 0.47771 0.59869 0.82947 0.0
C595 C 0.43056 0.60696 0.79703 0.0
C596 C 0.41981 0.62094 0.82366 0.0
C597 C 0.45952 0.5951 0.79978 0.0
H598 H 0.47879 0.61422 0.87867 0.0
H599 H 0.39641 0.62858 0.82176 0.0
O600 O 0.37492 0.65265 0.95175 0.0
O601 O 0.45586 0.6659 0.92289 0.0
O602 O 0.37371 0.58613 0.91167 0.0
O603 O 0.38989 0.66741 0.8802 0.0
H604 H 0.35478 0.69165 0.99243 0.0
H605 H 0.32818 0.57429 0.96129 0.0
H606 H 0.30051 0.65933 0.03247 0.0
H607 H 0.27441 0.54411 1.00175 0.0
H608 H 0.58379 0.72258 0.95922 0.0
H609 H 0.44506 0.69273 0.97813 0.0
H610 H 0.53183 0.68573 0.91817 0.0
H611 H 0.49835 0.72918 0.01803 0.0
H612 H 0.4185 0.60849 0.06227 0.0
H613 H 0.47753 0.56434 1.00061 0.0
H614 H 0.39485 0.79655 0.9526 0.0
H615 H 0.51965 0.83179 0.94005 0.0
H616 H 0.33299 0.5684 0.85779 0.0
H617 H 0.40468 0.53856 0.91797 0.0
H618 H 0.32653 0.51635 0.81976 0.0
H619 H 0.39748 0.48747 0.87868 0.0
H620 H 0.35645 0.69122 0.83728 0.0
H621 H 0.46916 0.70894 0.8726 0.0
H622 H 0.3937 0.74382 0.79673 0.0
H623 H 0.50431 0.76116 0.83163 0.0
H624 H 0.24254 0.64754 0.88637 0.0
H625 H 0.21242 0.52293 0.88743 0.0
H626 H 0.49981 0.58944 0.83278 0.0
H627 H 0.41607 0.60511 0.77457 0.0
Li628 Li 0.75283 0.41644 0.09273 0.0
Li629 Li 0.8032 0.4052 0.11548 0.0
Li630 Li 0.80371 0.4187 0.05922 0.0
Li631 Li 0.7501 0.35452 0.07961 0.0
C632 C 0.82013 0.48351 0.11775 0.0
N633 N 0.83871 0.5402 0.1647 0.0
C634 C 0.79806 0.47308 0.14594 0.0
C635 C 0.85168 0.52274 0.11349 0.0
C636 C 0.80791 0.50217 0.16937 0.0
C637 C 0.86059 0.55098 0.13749 0.0
C638 C 0.73269 0.3427 0.14353 0.0
C639 C 0.74061 0.28959 0.16638 0.0
N640 N 0.71048 0.28154 0.18713 0.0
C641 C 0.70172 0.33382 0.16501 0.0
C642 C 0.75228 0.32037 0.14413 0.0
C643 C 0.69098 0.30283 0.18691 0.0
C644 C 0.67862 0.4072 0.1082 0.0
N645 N 0.71697 0.4358 0.10149 0.0
C646 C 0.70153 0.48773 0.11095 0.0
C647 C 0.72867 0.47546 0.1021 0.0
C648 C 0.66163 0.45889 0.11845 0.0
C649 C 0.65026 0.41807 0.11649 0.0
H650 H 0.67013 0.37584 0.10717 0.0
H651 H 0.75922 0.49763 0.09627 0.0
C652 C 0.87689 0.43993 0.14789 0.0
N653 N 0.83664 0.41694 0.15236 0.0
C654 C 0.90285 0.45504 0.17386 0.0
C655 C 0.84555 0.42247 0.20868 0.0
C656 C 0.82072 0.40807 0.18206 0.0
C657 C 0.88722 0.44676 0.20481 0.0
H658 H 0.88871 0.44788 0.12409 0.0
H659 H 0.78864 0.3915 0.18529 0.0
C660 C 0.72603 0.40825 0.03523 0.0
N661 N 0.68522 0.44249 1.00756 0.0
C662 C 0.68504 0.38483 0.02883 0.0
C663 C 0.74633 0.44904 0.02744 0.0
C664 C 0.66493 0.40272 0.01486 0.0
C665 C 0.72515 0.4658 0.01349 0.0
C666 C 0.83332 0.36943 0.05948 0.0
C667 C 0.81876 0.35251 0.02966 0.0
C668 C 0.87321 0.38239 0.06742 0.0
C669 C 0.84456 0.34935 0.0081 0.0
C670 C 0.89806 0.37865 0.04521 0.0
N671 N 0.88336 0.36241 0.01625 0.0
C672 C 0.87792 0.46244 0.02659 0.0
C673 C 0.82041 0.43052 0.99363 0.0
C674 C 0.90309 0.47309 1.00015 0.0
N675 N 0.83744 0.44096 0.02289 0.0
C676 C 0.84442 0.44089 0.96656 0.0
C677 C 0.88636 0.46178 0.96966 0.0
H678 H 0.89062 0.46983 0.05018 0.0
H679 H 0.78818 0.41257 0.99137 0.0
C680 C 0.67472 0.28725 0.07005 0.0
N681 N 0.71455 0.29973 0.07044 0.0
C682 C 0.64693 0.24809 0.061 0.0
C683 C 0.70171 0.23506 0.0539 0.0
C684 C 0.7284 0.27444 0.06318 0.0
C685 C 0.66036 0.22151 0.0524 0.0
H686 H 0.66462 0.30794 0.07652 0.0
H687 H 0.76019 0.28498 0.06414 0.0
O688 O 0.81175 0.45548 0.09461 0.0
O689 O 0.74321 0.37285 0.1219 0.0
O690 O 0.7461 0.39167 0.04976 0.0
O691 O 0.80886 0.37402 0.08049 0.0
H692 H 0.77359 0.44289 0.14975 0.0
H693 H 0.86919 0.53122 0.09188 0.0
H694 H 0.79109 0.4945 0.19128 0.0
H695 H 0.88494 0.58146 0.13451 0.0
H696 H 0.75553 0.2721 0.16715 0.0
H697 H 0.68622 0.35079 0.16477 0.0
H698 H 0.77626 0.32668 0.12772 0.0
H699 H 0.66712 0.29569 0.20372 0.0
H700 H 0.71212 0.51956 0.11249 0.0
H701 H 0.61979 0.39463 0.12122 0.0
H702 H 0.93478 0.47346 0.1697 0.0
H703 H 0.83206 0.41602 0.23202 0.0
H704 H 0.66888 0.35323 0.03468 0.0
H705 H 0.778 0.46766 0.03253 0.0
H706 H 0.63317 0.385 0.00986 0.0
H707 H 0.74042 0.49737 1.0075 0.0
H708 H 0.78806 0.34272 0.023 0.0
H709 H 0.88492 0.39533 0.09043 0.0
H710 H 0.83381 0.33673 0.98483 0.0
H711 H 0.92905 0.38874 0.05098 0.0
H712 H 0.93529 0.48951 1.00355 0.0
H713 H 0.8303 0.43117 0.94356 0.0
H714 H 0.61532 0.23872 0.06087 0.0
H715 H 0.71349 0.21575 0.04731 0.0
Li716 Li 0.42171 0.80353 0.282 0.0
Li717 Li 0.35766 0.74967 0.26167 0.0
Li718 Li 0.41953 0.75211 0.24929 0.0
Li719 Li 0.40869 0.80228 0.22562 0.0
C720 C 0.4109 0.72588 0.30679 0.0
N721 N 0.44483 0.68499 0.33484 0.0
C722 C 0.38749 0.6848 0.31291 0.0
C723 C 0.45152 0.74623 0.31503 0.0
C724 C 0.40522 0.66465 0.32708 0.0
C725 C 0.46812 0.725 0.32918 0.0
C726 C 0.37242 0.83321 0.28065 0.0
C727 C 0.38125 0.89811 0.2939 0.0
N728 N 0.36483 0.88386 0.3229 0.0
C729 C 0.35531 0.81911 0.31049 0.0
C730 C 0.38528 0.87295 0.27218 0.0
C731 C 0.35186 0.84522 0.33155 0.0
C732 C 0.46486 0.87833 0.31395 0.0
N733 N 0.44362 0.83787 0.31805 0.0
C734 C 0.44287 0.84572 0.37423 0.0
C735 C 0.43298 0.82129 0.34744 0.0
C736 C 0.46346 0.88763 0.3707 0.0
C737 C 0.47501 0.90392 0.3401 0.0
H738 H 0.47238 0.89067 0.29025 0.0
H739 H 0.41522 0.78906 0.34999 0.0
C740 C 0.29029 0.67438 0.27102 0.0
N741 N 0.30279 0.71424 0.27057 0.0
C742 C 0.25102 0.64659 0.27978 0.0
C743 C 0.23795 0.70144 0.28644 0.0
C744 C 0.27745 0.72813 0.27747 0.0
C745 C 0.22436 0.66005 0.288 0.0
H746 H 0.31102 0.66425 0.26481 0.0
H747 H 0.28801 0.75993 0.27644 0.0
C748 C 0.4868 0.81861 0.22397 0.0
N749 N 0.54356 0.83551 0.17742 0.0
C750 C 0.47622 0.79609 0.196 0.0
C751 C 0.52622 0.84974 0.22822 0.0
C752 C 0.50535 0.80509 0.17277 0.0
C753 C 0.55449 0.85781 0.20442 0.0
C754 C 0.34628 0.73158 0.19787 0.0
C755 C 0.33766 0.70056 0.17651 0.0
C756 C 0.3239 0.75112 0.19694 0.0
C757 C 0.30689 0.68969 0.1544 0.0
C758 C 0.29335 0.73934 0.17449 0.0
N759 N 0.28555 0.70914 0.15386 0.0
C760 C 0.40982 0.67808 0.23307 0.0
C761 C 0.47818 0.72703 0.24102 0.0
C762 C 0.42034 0.64976 0.22387 0.0
N763 N 0.43865 0.71595 0.24093 0.0
C764 C 0.4901 0.69981 0.23148 0.0
C765 C 0.46096 0.66079 0.22239 0.0
H766 H 0.37862 0.67016 0.23338 0.0
H767 H 0.50048 0.75718 0.24781 0.0
C768 C 0.44336 0.87557 0.19249 0.0
N769 N 0.42053 0.83521 0.18837 0.0
C770 C 0.45808 0.9012 0.16629 0.0
C771 C 0.4255 0.84337 0.13197 0.0
C772 C 0.41154 0.81887 0.15881 0.0
C773 C 0.44952 0.88513 0.13547 0.0
H774 H 0.45139 0.88774 0.21618 0.0
H775 H 0.39509 0.78673 0.15584 0.0
O776 O 0.3945 0.74601 0.29209 0.0
O777 O 0.37728 0.80846 0.26012 0.0
O778 O 0.45879 0.81096 0.24696 0.0
O779 O 0.37621 0.74221 0.21972 0.0
H780 H 0.35602 0.6686 0.30671 0.0
H781 H 0.47014 0.77797 0.31015 0.0
H782 H 0.3875 0.63281 0.33188 0.0
H783 H 0.49956 0.74031 0.33553 0.0
H784 H 0.39127 0.929 0.28772 0.0
H785 H 0.34558 0.78853 0.31754 0.0
H786 H 0.39837 0.88431 0.24914 0.0
H787 H 0.33909 0.83482 0.35483 0.0
H788 H 0.43298 0.83194 0.39733 0.0
H789 H 0.49122 0.93609 0.33638 0.0
H790 H 0.24162 0.61495 0.27998 0.0
H791 H 0.21857 0.71323 0.29274 0.0
H792 H 0.4459 0.77191 0.19219 0.0
H793 H 0.53482 0.86756 0.24967 0.0
H794 H 0.49757 0.78791 0.15103 0.0
H795 H 0.58512 0.88183 0.2074 0.0
H796 H 0.35467 0.6851 0.17698 0.0
H797 H 0.33001 0.77515 0.21324 0.0
H798 H 0.29995 0.66579 0.13767 0.0
H799 H 0.27583 0.75421 0.17347 0.0
H800 H 0.39706 0.62 0.21693 0.0
H801 H 0.52172 0.70919 0.231 0.0
H802 H 0.47634 0.93322 0.17015 0.0
H803 H 0.41886 0.82958 0.10873 0.0
loop_
_geom_bond_atom_site_label_1
_geom_bond_atom_site_label_2
_geom_bond_distance
_geom_bond_site_symmetry_2
_ccdc_geom_bond_type
C0 C1 1.384 . S
C0 C2 1.384 . S
C0 H28 0.931 . S
C1 C0 1.384 . S
C1 C4 1.382 . S
C2 C0 1.384 . S
C2 C3 1.381 . S
C2 H29 0.930 . S
C3 C2 1.381 . S
C3 C5 1.381 . S
C3 C6 1.487 . S
C4 C1 1.382 . S
C4 C5 1.387 . S
C4 H30 0.930 . S
C5 C3 1.381 . S
C5 C4 1.387 . S
C5 H31 0.931 . S
C6 C3 1.487 . S
C6 C13 1.399 . S
C6 N44 1.343 1_655 S
C7 C8 1.384 . S
C7 C9 1.384 . S
C7 H32 0.931 . S
C8 C7 1.384 . S
C8 C11 1.382 . S
C9 C7 1.384 . S
C9 C10 1.381 . S
C9 H33 0.930 . S
C10 C9 1.381 . S
C10 C12 1.381 . S
C10 C13 1.487 . S
C11 C8 1.382 . S
C11 C12 1.387 . S
C11 H34 0.930 . S
C12 C10 1.381 . S
C12 C11 1.387 . S
C12 H35 0.931 . S
C13 C6 1.399 . S
C13 C10 1.487 . S
C13 N45 1.343 1_655 S
C14 C15 1.384 . S
C14 C16 1.384 . S
C14 H36 0.931 . S
C15 C14 1.384 . S
C15 C18 1.382 . S
C16 C14 1.384 . S
C16 C17 1.381 . S
C16 H37 0.930 . S
C17 C16 1.381 . S
C17 C19 1.381 . S
C17 C20 1.487 . S
C18 C15 1.382 . S
C18 C19 1.387 . S
C18 H38 0.930 . S
C19 C17 1.381 . S
C19 C18 1.387 . S
C19 H39 0.931 . S
C20 C17 1.487 . S
C20 C27 1.399 . S
C20 N45 1.343 . S
C21 C22 1.384 . S
C21 C23 1.384 . S
C21 H40 0.931 . S
C22 C21 1.384 . S
C22 C25 1.382 . S
C23 C21 1.384 . S
C23 C24 1.381 . S
C23 H41 0.930 . S
C24 C23 1.381 . S
C24 C26 1.381 . S
C24 C27 1.487 . S
C25 C22 1.382 . S
C25 C26 1.387 . S
C25 H42 0.930 . S
C26 C24 1.381 . S
C26 C25 1.387 . S
C26 H43 0.931 . S
C27 C20 1.399 . S
C27 C24 1.487 . S
C27 N44 1.343 . S
H28 C0 0.931 . S
H29 C2 0.930 . S
H30 C4 0.930 . S
H31 C5 0.931 . S
H32 C7 0.931 . S
H33 C9 0.930 . S
H34 C11 0.930 . S
H35 C12 0.931 . S
H36 C14 0.931 . S
H37 C16 0.930 . S
H38 C18 0.930 . S
H39 C19 0.931 . S
H40 C21 0.931 . S
H41 C23 0.930 . S
H42 C25 0.930 . S
H43 C26 0.931 . S
N44 C6 1.343 1_455 S
N44 C27 1.343 . S
N45 C13 1.343 1_455 S
N45 C20 1.343 . S
C46 C47 1.384 . S
C46 C48 1.384 . S
C46 H74 0.931 . S
C47 C46 1.384 . S
C47 C50 1.382 . S
C48 C46 1.384 . S
C48 C49 1.381 . S
C48 H75 0.930 . S
C49 C48 1.381 . S
C49 C51 1.381 . S
C49 C52 1.487 . S
C50 C47 1.382 . S
C50 C51 1.387 . S
C50 H76 0.930 . S
C51 C49 1.381 . S
C51 C50 1.387 . S
C51 H77 0.931 . S
C52 C49 1.487 . S
C52 C59 1.399 . S
C52 N90 1.343 1_565 S
C53 C54 1.384 . S
C53 C55 1.384 . S
C53 H78 0.931 . S
C54 C53 1.384 . S
C54 C57 1.382 . S
C55 C53 1.384 . S
C55 C56 1.381 . S
C55 H79 0.930 . S
C56 C55 1.381 . S
C56 C58 1.381 . S
C56 C59 1.487 . S
C57 C54 1.382 . S
C57 C58 1.387 . S
C57 H80 0.930 . S
C58 C56 1.381 . S
C58 C57 1.387 . S
C58 H81 0.931 . S
C59 C52 1.399 . S
C59 C56 1.487 . S
C59 N91 1.343 1_565 S
C60 C61 1.384 . S
C60 C62 1.384 . S
C60 H82 0.931 . S
C61 C60 1.384 . S
C61 C64 1.382 . S
C62 C60 1.384 . S
C62 C63 1.381 . S
C62 H83 0.930 . S
C63 C62 1.381 . S
C63 C65 1.381 . S
C63 C66 1.487 . S
C64 C61 1.382 . S
C64 C65 1.387 . S
C64 H84 0.930 . S
C65 C63 1.381 . S
C65 C64 1.387 . S
C65 H85 0.931 . S
C66 C63 1.487 . S
C66 C73 1.399 . S
C66 N91 1.343 . S
C67 C68 1.384 . S
C67 C69 1.384 . S
C67 H86 0.931 . S
C68 C67 1.384 . S
C68 C71 1.382 . S
C69 C67 1.384 . S
C69 C70 1.381 . S
C69 H87 0.930 . S
C70 C69 1.381 . S
C70 C72 1.381 . S
C70 C73 1.487 . S
C71 C68 1.382 . S
C71 C72 1.387 . S
C71 H88 0.930 . S
C72 C70 1.381 . S
C72 C71 1.387 . S
C72 H89 0.931 . S
C73 C66 1.399 . S
C73 C70 1.487 . S
C73 N90 1.343 . S
H74 C46 0.931 . S
H75 C48 0.930 . S
H76 C50 0.930 . S
H77 C51 0.931 . S
H78 C53 0.931 . S
H79 C55 0.930 . S
H80 C57 0.930 . S
H81 C58 0.931 . S
H82 C60 0.931 . S
H83 C62 0.930 . S
H84 C64 0.930 . S
H85 C65 0.931 . S
H86 C67 0.931 . S
H87 C69 0.930 . S
H88 C71 0.930 . S
H89 C72 0.931 . S
N90 C52 1.343 1_545 S
N90 C73 1.343 . S
N91 C59 1.343 1_545 S
N91 C66 1.343 . S
C92 C93 1.384 . S
C92 C94 1.384 . S
C92 H120 0.931 . S
C93 C92 1.384 . S
C93 C96 1.382 . S
C94 C92 1.384 . S
C94 C95 1.381 . S
C94 H121 0.930 . S
C95 C94 1.381 . S
C95 C97 1.381 . S
C95 C98 1.487 . S
C96 C93 1.382 . S
C96 C97 1.387 . S
C96 H122 0.930 . S
C97 C95 1.381 . S
C97 C96 1.387 . S
C97 H123 0.931 . S
C98 C95 1.487 . S
C98 C105 1.399 . S
C98 N136 1.343 . S
C99 C100 1.384 . S
C99 C101 1.384 . S
C99 H124 0.931 . S
C100 C99 1.384 . S
C100 C103 1.382 . S
C101 C99 1.384 . S
C101 C102 1.381 . S
C101 H125 0.930 . S
C102 C101 1.381 . S
C102 C104 1.381 . S
C102 C105 1.487 . S
C103 C100 1.382 . S
C103 C104 1.387 . S
C103 H126 0.930 . S
C104 C102 1.381 . S
C104 C103 1.387 . S
C104 H127 0.931 . S
C105 C98 1.399 . S
C105 C102 1.487 . S
C105 N137 1.343 . S
C106 C107 1.384 . S
C106 C108 1.384 . S
C106 H128 0.931 . S
C107 C106 1.384 . S
C107 C110 1.382 . S
C108 C106 1.384 . S
C108 C109 1.381 . S
C108 H129 0.930 . S
C109 C108 1.381 . S
C109 C111 1.381 . S
C109 C112 1.487 . S
C110 C107 1.382 . S
C110 C111 1.387 . S
C110 H130 0.930 . S
C111 C109 1.381 . S
C111 C110 1.387 . S
C111 H131 0.931 . S
C112 C109 1.487 . S
C112 C119 1.399 . S
C112 N137 1.343 . S
C113 C114 1.384 . S
C113 C115 1.384 . S
C113 H132 0.931 . S
C114 C113 1.384 . S
C114 C117 1.382 . S
C115 C113 1.384 . S
C115 C116 1.381 . S
C115 H133 0.930 . S
C116 C115 1.381 . S
C116 C118 1.381 . S
C116 C119 1.487 . S
C117 C114 1.382 . S
C117 C118 1.387 . S
C117 H134 0.930 . S
C118 C116 1.381 . S
C118 C117 1.387 . S
C118 H135 0.931 . S
C119 C112 1.399 . S
C119 C116 1.487 . S
C119 N136 1.343 . S
H120 C92 0.931 . S
H121 C94 0.930 . S
H122 C96 0.930 . S
H123 C97 0.931 . S
H124 C99 0.931 . S
H125 C101 0.930 . S
H126 C103 0.930 . S
H127 C104 0.931 . S
H128 C106 0.931 . S
H129 C108 0.930 . S
H130 C110 0.930 . S
H131 C111 0.931 . S
H132 C113 0.931 . S
H133 C115 0.930 . S
H134 C117 0.930 . S
H135 C118 0.931 . S
N136 C98 1.343 . S
N136 C119 1.343 . S
N137 C105 1.343 . S
N137 C112 1.343 . S
C138 C139 1.384 . S
C138 C140 1.384 . S
C138 H166 0.931 . S
C139 C138 1.384 . S
C139 C142 1.382 . S
C140 C138 1.384 . S
C140 C141 1.381 . S
C140 H167 0.930 . S
C141 C140 1.381 . S
C141 C143 1.381 . S
C141 C144 1.487 . S
C142 C139 1.382 . S
C142 C143 1.387 . S
C142 H168 0.930 . S
C143 C141 1.381 . S
C143 C142 1.387 . S
C143 H169 0.931 . S
C144 C141 1.487 . S
C144 C151 1.399 . S
C144 N182 1.343 1_655 S
C145 C146 1.384 . S
C145 C147 1.384 . S
C145 H170 0.931 . S
C146 C145 1.384 . S
C146 C149 1.382 . S
C147 C145 1.384 . S
C147 C148 1.381 . S
C147 H171 0.930 . S
C148 C147 1.381 . S
C148 C150 1.381 . S
C148 C151 1.487 . S
C149 C146 1.382 . S
C149 C150 1.387 . S
C149 H172 0.930 . S
C150 C148 1.381 . S
C150 C149 1.387 . S
C150 H173 0.931 . S
C151 C144 1.399 . S
C151 C148 1.487 . S
C151 N183 1.343 1_655 S
C152 C153 1.384 . S
C152 C154 1.384 . S
C152 H174 0.931 . S
C153 C152 1.384 . S
C153 C156 1.382 . S
C154 C152 1.384 . S
C154 C155 1.381 . S
C154 H175 0.930 . S
C155 C154 1.381 . S
C155 C157 1.381 . S
C155 C158 1.487 . S
C156 C153 1.382 . S
C156 C157 1.387 . S
C156 H176 0.930 . S
C157 C155 1.381 . S
C157 C156 1.387 . S
C157 H177 0.931 . S
C158 C155 1.487 . S
C158 C165 1.399 . S
C158 N183 1.343 . S
C159 C160 1.384 . S
C159 C161 1.384 . S
C159 H178 0.931 . S
C160 C159 1.384 . S
C160 C163 1.382 . S
C161 C159 1.384 . S
C161 C162 1.381 . S
C161 H179 0.930 . S
C162 C161 1.381 . S
C162 C164 1.381 . S
C162 C165 1.487 . S
C163 C160 1.382 . S
C163 C164 1.387 . S
C163 H180 0.930 . S
C164 C162 1.381 . S
C164 C163 1.387 . S
C164 H181 0.931 . S
C165 C158 1.399 . S
C165 C162 1.487 . S
C165 N182 1.343 . S
H166 C138 0.931 . S
H167 C140 0.930 . S
H168 C142 0.930 . S
H169 C143 0.931 . S
H170 C145 0.931 . S
H171 C147 0.930 . S
H172 C149 0.930 . S
H173 C150 0.931 . S
H174 C152 0.931 . S
H175 C154 0.930 . S
H176 C156 0.930 . S
H177 C157 0.931 . S
H178 C159 0.931 . S
H179 C161 0.930 . S
H180 C163 0.930 . S
H181 C164 0.931 . S
N182 C144 1.343 1_455 S
N182 C165 1.343 . S
N183 C151 1.343 1_455 S
N183 C158 1.343 . S
C184 C185 1.384 . S
C184 C186 1.384 . S
C184 H212 0.931 . S
C185 C184 1.384 . S
C185 C188 1.382 . S
C186 C184 1.384 . S
C186 C187 1.381 . S
C186 H213 0.930 1_556 S
C187 C186 1.381 . S
C187 C189 1.381 . S
C187 C190 1.487 . S
C188 C185 1.382 . S
C188 C189 1.387 . S
C188 H214 0.930 . S
C189 C187 1.381 . S
C189 C188 1.387 . S
C189 H215 0.931 . S
C190 C187 1.487 . S
C190 C197 1.399 1_556 S
C190 N228 1.343 1_565 S
C191 C192 1.384 . S
C191 C193 1.384 . S
C191 H216 0.931 . S
C192 C191 1.384 . S
C192 C195 1.382 . S
C193 C191 1.384 . S
C193 C194 1.381 . S
C193 H217 0.930 . S
C194 C193 1.381 . S
C194 C196 1.381 . S
C194 C197 1.487 . S
C195 C192 1.382 . S
C195 C196 1.387 . S
C195 H218 0.930 . S
C196 C194 1.381 . S
C196 C195 1.387 . S
C196 H219 0.931 . S
C197 C190 1.399 1_554 S
C197 C194 1.487 . S
C197 N229 1.343 1_565 S
C198 C199 1.384 . S
C198 C200 1.386 . S
C198 H220 0.931 . S
C199 C198 1.384 . S
C199 C202 1.382 . S
C200 C198 1.386 . S
C200 C201 1.384 . S
C200 H221 0.925 1_554 S
C201 C200 1.384 . S
C201 C203 1.381 . S
C201 C204 1.487 . S
C202 C199 1.382 . S
C202 C203 1.387 . S
C202 H222 0.930 . S
C203 C201 1.381 . S
C203 C202 1.387 . S
C203 H223 0.931 . S
C204 C201 1.487 . S
C204 C211 1.399 1_554 S
C204 N229 1.343 . S
C205 C206 1.384 . S
C205 C207 1.384 . S
C205 H224 0.931 . S
C206 C205 1.384 . S
C206 C209 1.382 . S
C207 C205 1.384 . S
C207 C208 1.381 . S
C207 H225 0.930 . S
C208 C207 1.381 . S
C208 C210 1.381 . S
C208 C211 1.487 . S
C209 C206 1.382 . S
C209 C210 1.387 . S
C209 H226 0.930 . S
C210 C208 1.381 . S
C210 C209 1.387 . S
C210 H227 0.931 . S
C211 C204 1.399 1_556 S
C211 C208 1.487 . S
C211 N228 1.343 . S
H212 C184 0.931 . S
H213 C186 0.930 1_554 S
H214 C188 0.930 . S
H215 C189 0.931 . S
H216 C191 0.931 . S
H217 C193 0.930 . S
H218 C195 0.930 . S
H219 C196 0.931 . S
H220 C198 0.931 . S
H221 C200 0.925 1_556 S
H222 C202 0.930 . S
H223 C203 0.931 . S
H224 C205 0.931 . S
H225 C207 0.930 . S
H226 C209 0.930 . S
H227 C210 0.931 . S
N228 C190 1.343 1_545 S
N228 C211 1.343 . S
N229 C197 1.343 1_545 S
N229 C204 1.343 . S
C230 C231 1.384 . S
C230 C232 1.384 . S
C230 H258 0.931 . S
C231 C230 1.384 . S
C231 C234 1.382 . S
C232 C230 1.384 . S
C232 C233 1.381 . S
C232 H259 0.930 . S
C233 C232 1.381 . S
C233 C235 1.381 . S
C233 C236 1.487 . S
C234 C231 1.382 . S
C234 C235 1.387 . S
C234 H260 0.930 . S
C235 C233 1.381 . S
C235 C234 1.387 . S
C235 H261 0.931 . S
C236 C233 1.487 . S
C236 C243 1.399 . S
C236 N274 1.343 . S
C237 C238 1.384 . S
C237 C239 1.384 . S
C237 H262 0.931 . S
C238 C237 1.384 . S
C238 C241 1.382 . S
C239 C237 1.384 . S
C239 C240 1.381 . S
C239 H263 0.930 . S
C240 C239 1.381 . S
C240 C242 1.381 . S
C240 C243 1.487 . S
C241 C238 1.382 . S
C241 C242 1.387 . S
C241 H264 0.930 . S
C242 C240 1.381 . S
C242 C241 1.387 . S
C242 H265 0.931 . S
C243 C236 1.399 . S
C243 C240 1.487 . S
C243 N275 1.343 . S
C244 C245 1.384 . S
C244 C246 1.384 . S
C244 H266 0.931 . S
C245 C244 1.384 . S
C245 C248 1.382 . S
C246 C244 1.384 . S
C246 C247 1.381 . S
C246 H267 0.930 . S
C247 C246 1.381 . S
C247 C249 1.381 . S
C247 C250 1.487 . S
C248 C245 1.382 . S
C248 C249 1.387 . S
C248 H268 0.930 . S
C249 C247 1.381 . S
C249 C248 1.387 . S
C249 H269 0.931 . S
C250 C247 1.487 . S
C250 C257 1.399 . S
C250 N275 1.343 . S
C251 C252 1.384 . S
C251 C253 1.384 . S
C251 H270 0.931 . S
C252 C251 1.384 . S
C252 C255 1.382 . S
C253 C251 1.384 . S
C253 C254 1.381 . S
C253 H271 0.930 . S
C254 C253 1.381 . S
C254 C256 1.381 . S
C254 C257 1.487 . S
C255 C252 1.382 . S
C255 C256 1.387 . S
C255 H272 0.930 . S
C256 C254 1.381 . S
C256 C255 1.387 . S
C256 H273 0.931 . S
C257 C250 1.399 . S
C257 C254 1.487 . S
C257 N274 1.343 . S
H258 C230 0.931 . S
H259 C232 0.930 . S
H260 C234 0.930 . S
H261 C235 0.931 . S
H262 C237 0.931 . S
H263 C239 0.930 . S
H264 C241 0.930 . S
H265 C242 0.931 . S
H266 C244 0.931 . S
H267 C246 0.930 . S
H268 C248 0.930 . S
H269 C249 0.931 . S
H270 C251 0.931 . S
H271 C253 0.930 . S
H272 C255 0.930 . S
H273 C256 0.931 . S
N274 C236 1.343 . S
N274 C257 1.343 . S
N275 C243 1.343 . S
N275 C250 1.343 . S
Li276 N293 1.990 . S
Li276 O336 1.956 . S
Li276 O337 1.970 . S
Li276 O338 1.961 . S
Li277 N301 1.990 . S
Li277 O336 1.970 . S
Li277 O337 1.956 . S
Li277 O339 1.961 . S
Li278 N323 1.990 . S
Li278 O336 1.961 . S
Li278 O338 1.956 . S
Li278 O339 1.970 . S
Li279 N329 1.990 . S
Li279 O337 1.961 . S
Li279 O338 1.970 . S
Li279 O339 1.956 . S
C280 C282 1.348 . S
C280 C283 1.356 . S
C280 O336 1.325 . S
N281 C284 1.314 . S
N281 C285 1.279 . S
C282 C280 1.348 . S
C282 C284 1.353 . S
C282 H340 0.929 . S
C283 C280 1.356 . S
C283 C285 1.358 . S
C283 H341 0.930 . S
C284 N281 1.314 . S
C284 C282 1.353 . S
C284 H342 0.930 . S
C285 N281 1.279 . S
C285 C283 1.358 . S
C285 H343 0.930 . S
C286 C289 1.348 . S
C286 C290 1.356 . S
C286 O337 1.325 . S
C287 N288 1.279 . S
C287 C290 1.358 . S
C287 H344 0.930 . S
N288 C287 1.279 . S
N288 C291 1.314 . S
C289 C286 1.348 . S
C289 C291 1.353 . S
C289 H345 0.929 . S
C290 C286 1.356 . S
C290 C287 1.358 . S
C290 H346 0.930 . S
C291 N288 1.314 . S
C291 C289 1.353 . S
C291 H347 0.930 . S
C292 N293 1.314 . S
C292 C297 1.353 . S
C292 H298 0.930 . S
N293 Li276 1.990 . S
N293 C292 1.314 . S
N293 C295 1.279 . S
C294 C295 1.358 . S
C294 C296 1.356 . S
C294 H348 0.930 . S
C295 N293 1.279 . S
C295 C294 1.358 . S
C295 H299 0.930 . S
C296 C294 1.356 . S
C296 C297 1.348 . S
C297 C292 1.353 . S
C297 C296 1.348 . S
C297 H349 0.929 . S
H298 C292 0.930 . S
H299 C295 0.930 . S
C300 N301 1.314 . S
C300 C302 1.353 . S
C300 H306 0.930 . S
N301 Li277 1.990 . S
N301 C300 1.314 . S
N301 C304 1.279 . S
C302 C300 1.353 . S
C302 C305 1.348 . S
C302 H350 0.929 . S
C303 C304 1.358 . S
C303 C305 1.356 . S
C303 H351 0.930 . S
C304 N301 1.279 . S
C304 C303 1.358 . S
C304 H307 0.930 . S
C305 C302 1.348 . S
C305 C303 1.356 . S
H306 C300 0.930 . S
H307 C304 0.930 . S
C308 C310 1.348 . S
C308 C311 1.356 . S
C308 O338 1.325 . S
N309 C312 1.314 . S
N309 C313 1.279 . S
C310 C308 1.348 . S
C310 C312 1.353 . S
C310 H352 0.929 . S
C311 C308 1.356 . S
C311 C313 1.358 . S
C311 H353 0.930 . S
C312 N309 1.314 . S
C312 C310 1.353 . S
C312 H354 0.930 . S
C313 N309 1.279 . S
C313 C311 1.358 . S
C313 H355 0.930 . S
C314 C315 1.348 . S
C314 C316 1.356 . S
C314 O339 1.325 . S
C315 C314 1.348 . S
C315 C317 1.353 . S
C315 H356 0.929 . S
C316 C314 1.356 . S
C316 C318 1.358 . S
C316 H357 0.930 . S
C317 C315 1.353 . S
C317 N319 1.314 . S
C317 H358 0.930 . S
C318 C316 1.358 . S
C318 N319 1.279 . S
C318 H359 0.930 . S
N319 C317 1.314 . S
N319 C318 1.279 . S
C320 C322 1.353 . S
C320 N323 1.314 . S
C320 H326 0.930 . S
C321 N323 1.279 . S
C321 C324 1.358 . S
C321 H327 0.930 . S
C322 C320 1.353 . S
C322 C325 1.348 . S
C322 H360 0.929 . S
N323 Li278 1.990 . S
N323 C320 1.314 . S
N323 C321 1.279 . S
C324 C321 1.358 . S
C324 C325 1.356 . S
C324 H361 0.930 . S
C325 C322 1.348 . S
C325 C324 1.356 . S
H326 C320 0.930 . S
H327 C321 0.930 . S
C328 N329 1.314 . S
C328 C330 1.353 . S
C328 H334 0.930 . S
N329 Li279 1.990 . S
N329 C328 1.314 . S
N329 C332 1.279 . S
C330 C328 1.353 . S
C330 C333 1.348 . S
C330 H362 0.929 . S
C331 C332 1.358 . S
C331 C333 1.356 . S
C331 H363 0.930 . S
C332 N329 1.279 . S
C332 C331 1.358 . S
C332 H335 0.930 . S
C333 C330 1.348 . S
C333 C331 1.356 . S
H334 C328 0.930 . S
H335 C332 0.930 . S
O336 Li276 1.956 . S
O336 Li277 1.970 . S
O336 Li278 1.961 . S
O336 C280 1.325 . S
O337 Li276 1.970 . S
O337 Li277 1.956 . S
O337 Li279 1.961 . S
O337 C286 1.325 . S
O338 Li276 1.961 . S
O338 Li278 1.956 . S
O338 Li279 1.970 . S
O338 C308 1.325 . S
O339 Li277 1.961 . S
O339 Li278 1.970 . S
O339 Li279 1.956 . S
O339 C314 1.325 . S
H340 C282 0.929 . S
H341 C283 0.930 . S
H342 C284 0.930 . S
H343 C285 0.930 . S
H344 C287 0.930 . S
H345 C289 0.929 . S
H346 C290 0.930 . S
H347 C291 0.930 . S
H348 C294 0.930 . S
H349 C297 0.929 . S
H350 C302 0.929 . S
H351 C303 0.930 . S
H352 C310 0.929 . S
H353 C311 0.930 . S
H354 C312 0.930 . S
H355 C313 0.930 . S
H356 C315 0.929 . S
H357 C316 0.930 . S
H358 C317 0.930 . S
H359 C318 0.930 . S
H360 C322 0.929 . S
H361 C324 0.930 . S
H362 C330 0.929 . S
H363 C331 0.930 . S
Li364 N381 1.990 . S
Li364 O424 1.956 . S
Li364 O425 1.970 . S
Li364 O426 1.961 . S
Li365 N389 1.990 . S
Li365 O424 1.970 . S
Li365 O425 1.956 . S
Li365 O427 1.961 . S
Li366 N411 1.990 . S
Li366 O424 1.961 . S
Li366 O426 1.956 . S
Li366 O427 1.970 . S
Li367 N417 1.990 . S
Li367 O425 1.961 . S
Li367 O426 1.970 . S
Li367 O427 1.956 . S
C368 C370 1.348 . S
C368 C371 1.356 . S
C368 O424 1.325 . S
N369 C372 1.314 . S
N369 C373 1.279 . S
C370 C368 1.348 . S
C370 C372 1.353 . S
C370 H428 0.929 . S
C371 C368 1.356 . S
C371 C373 1.358 . S
C371 H429 0.930 . S
C372 N369 1.314 . S
C372 C370 1.353 . S
C372 H430 0.930 . S
C373 N369 1.279 . S
C373 C371 1.358 . S
C373 H431 0.930 . S
C374 C377 1.348 . S
C374 C378 1.356 . S
C374 O425 1.325 . S
C375 N376 1.279 . S
C375 C378 1.358 . S
C375 H432 0.930 . S
N376 C375 1.279 . S
N376 C379 1.314 . S
C377 C374 1.348 . S
C377 C379 1.353 . S
C377 H433 0.929 . S
C378 C374 1.356 . S
C378 C375 1.358 . S
C378 H434 0.930 . S
C379 N376 1.314 . S
C379 C377 1.353 . S
C379 H435 0.930 . S
C380 N381 1.314 . S
C380 C385 1.353 . S
C380 H386 0.930 . S
N381 Li364 1.990 . S
N381 C380 1.314 . S
N381 C383 1.279 . S
C382 C383 1.358 . S
C382 C384 1.356 . S
C382 H436 0.930 . S
C383 N381 1.279 . S
C383 C382 1.358 . S
C383 H387 0.930 . S
C384 C382 1.356 . S
C384 C385 1.348 . S
C385 C380 1.353 . S
C385 C384 1.348 . S
C385 H437 0.929 . S
H386 C380 0.930 . S
H387 C383 0.930 . S
C388 N389 1.314 . S
C388 C390 1.353 . S
C388 H394 0.930 . S
N389 Li365 1.990 . S
N389 C388 1.314 . S
N389 C392 1.279 . S
C390 C388 1.353 . S
C390 C393 1.348 . S
C390 H438 0.929 . S
C391 C392 1.358 . S
C391 C393 1.356 . S
C391 H439 0.930 . S
C392 N389 1.279 . S
C392 C391 1.358 . S
C392 H395 0.930 . S
C393 C390 1.348 . S
C393 C391 1.356 . S
H394 C388 0.930 . S
H395 C392 0.930 . S
C396 C398 1.348 . S
C396 C399 1.356 . S
C396 O426 1.325 . S
N397 C400 1.314 . S
N397 C401 1.279 . S
C398 C396 1.348 . S
C398 C400 1.353 . S
C398 H440 0.929 . S
C399 C396 1.356 . S
C399 C401 1.358 . S
C399 H441 0.930 . S
C400 N397 1.314 . S
C400 C398 1.353 . S
C400 H442 0.930 . S
C401 N397 1.279 . S
C401 C399 1.358 . S
C401 H443 0.930 . S
C402 C403 1.348 . S
C402 C404 1.356 . S
C402 O427 1.325 . S
C403 C402 1.348 . S
C403 C405 1.353 . S
C403 H444 0.929 . S
C404 C402 1.356 . S
C404 C406 1.358 . S
C404 H445 0.930 . S
C405 C403 1.353 . S
C405 N407 1.314 . S
C405 H446 0.930 . S
C406 C404 1.358 . S
C406 N407 1.279 . S
C406 H447 0.930 . S
N407 C405 1.314 . S
N407 C406 1.279 . S
C408 C410 1.353 . S
C408 N411 1.314 . S
C408 H414 0.930 . S
C409 N411 1.279 . S
C409 C412 1.358 . S
C409 H415 0.930 . S
C410 C408 1.353 . S
C410 C413 1.348 . S
C410 H448 0.929 . S
N411 Li366 1.990 . S
N411 C408 1.314 . S
N411 C409 1.279 . S
C412 C409 1.358 . S
C412 C413 1.356 . S
C412 H449 0.930 . S
C413 C410 1.348 . S
C413 C412 1.356 . S
H414 C408 0.930 . S
H415 C409 0.930 . S
C416 N417 1.314 . S
C416 C418 1.353 . S
C416 H422 0.930 . S
N417 Li367 1.990 . S
N417 C416 1.314 . S
N417 C420 1.279 . S
C418 C416 1.353 . S
C418 C421 1.348 . S
C418 H450 0.929 . S
C419 C420 1.358 . S
C419 C421 1.356 . S
C419 H451 0.930 . S
C420 N417 1.279 . S
C420 C419 1.358 . S
C420 H423 0.930 . S
C421 C418 1.348 . S
C421 C419 1.356 . S
H422 C416 0.930 . S
H423 C420 0.930 . S
O424 Li364 1.956 . S
O424 Li365 1.970 . S
O424 Li366 1.961 . S
O424 C368 1.325 . S
O425 Li364 1.970 . S
O425 Li365 1.956 . S
O425 Li367 1.961 . S
O425 C374 1.325 . S
O426 Li364 1.961 . S
O426 Li366 1.956 . S
O426 Li367 1.970 . S
O426 C396 1.325 . S
O427 Li365 1.961 . S
O427 Li366 1.970 . S
O427 Li367 1.956 . S
O427 C402 1.325 . S
H428 C370 0.929 . S
H429 C371 0.930 . S
H430 C372 0.930 . S
H431 C373 0.930 . S
H432 C375 0.930 . S
H433 C377 0.929 . S
H434 C378 0.930 . S
H435 C379 0.930 . S
H436 C382 0.930 . S
H437 C385 0.929 . S
H438 C390 0.929 . S
H439 C391 0.930 . S
H440 C398 0.929 . S
H441 C399 0.930 . S
H442 C400 0.930 . S
H443 C401 0.930 . S
H444 C403 0.929 . S
H445 C404 0.930 . S
H446 C405 0.930 . S
H447 C406 0.930 . S
H448 C410 0.929 . S
H449 C412 0.930 . S
H450 C418 0.929 . S
H451 C419 0.930 . S
Li452 N469 1.990 . S
Li452 O512 1.956 . S
Li452 O513 1.970 . S
Li452 O514 1.961 . S
Li453 N477 1.990 . S
Li453 O512 1.970 . S
Li453 O513 1.956 . S
Li453 O515 1.961 . S
Li454 N499 1.990 . S
Li454 O512 1.961 . S
Li454 O514 1.956 . S
Li454 O515 1.970 . S
Li455 N505 1.990 . S
Li455 O513 1.961 . S
Li455 O514 1.970 . S
Li455 O515 1.956 . S
C456 C458 1.348 . S
C456 C459 1.356 . S
C456 O512 1.325 . S
N457 C460 1.314 . S
N457 C461 1.279 . S
C458 C456 1.348 . S
C458 C460 1.353 . S
C458 H516 0.929 . S
C459 C456 1.356 . S
C459 C461 1.358 . S
C459 H517 0.930 . S
C460 N457 1.314 . S
C460 C458 1.353 . S
C460 H518 0.930 . S
C461 N457 1.279 . S
C461 C459 1.358 . S
C461 H519 0.930 . S
C462 C465 1.348 . S
C462 C466 1.356 . S
C462 O513 1.325 . S
C463 N464 1.279 . S
C463 C466 1.358 . S
C463 H520 0.930 . S
N464 C463 1.279 . S
N464 C467 1.314 . S
C465 C462 1.348 . S
C465 C467 1.353 . S
C465 H521 0.929 . S
C466 C462 1.356 . S
C466 C463 1.358 . S
C466 H522 0.930 . S
C467 N464 1.314 . S
C467 C465 1.353 . S
C467 H523 0.930 . S
C468 N469 1.314 . S
C468 C473 1.353 . S
C468 H474 0.930 . S
N469 Li452 1.990 . S
N469 C468 1.314 . S
N469 C471 1.279 . S
C470 C471 1.358 . S
C470 C472 1.356 . S
C470 H524 0.930 . S
C471 N469 1.279 . S
C471 C470 1.358 . S
C471 H475 0.930 . S
C472 C470 1.356 . S
C472 C473 1.348 . S
C473 C468 1.353 . S
C473 C472 1.348 . S
C473 H525 0.929 . S
H474 C468 0.930 . S
H475 C471 0.930 . S
C476 N477 1.314 . S
C476 C478 1.353 . S
C476 H482 0.930 . S
N477 Li453 1.990 . S
N477 C476 1.314 . S
N477 C480 1.279 . S
C478 C476 1.353 . S
C478 C481 1.348 . S
C478 H526 0.929 . S
C479 C480 1.358 . S
C479 C481 1.356 . S
C479 H527 0.930 . S
C480 N477 1.279 . S
C480 C479 1.358 . S
C480 H483 0.930 . S
C481 C478 1.348 . S
C481 C479 1.356 . S
H482 C476 0.930 . S
H483 C480 0.930 . S
C484 C486 1.348 . S
C484 C487 1.356 . S
C484 O514 1.325 . S
N485 C488 1.314 . S
N485 C489 1.279 . S
C486 C484 1.348 . S
C486 C488 1.353 . S
C486 H528 0.929 . S
C487 C484 1.356 . S
C487 C489 1.358 . S
C487 H529 0.930 . S
C488 N485 1.314 . S
C488 C486 1.353 . S
C488 H530 0.930 . S
C489 N485 1.279 . S
C489 C487 1.358 . S
C489 H531 0.930 . S
C490 C491 1.348 . S
C490 C492 1.356 . S
C490 O515 1.325 . S
C491 C490 1.348 . S
C491 C493 1.353 . S
C491 H532 0.929 . S
C492 C490 1.356 . S
C492 C494 1.358 . S
C492 H533 0.930 . S
C493 C491 1.353 . S
C493 N495 1.314 . S
C493 H534 0.930 . S
C494 C492 1.358 . S
C494 N495 1.279 . S
C494 H535 0.930 . S
N495 C493 1.314 . S
N495 C494 1.279 . S
C496 C498 1.353 . S
C496 N499 1.314 . S
C496 H502 0.930 . S
C497 N499 1.279 . S
C497 C500 1.358 . S
C497 H503 0.930 . S
C498 C496 1.353 . S
C498 C501 1.348 . S
C498 H536 0.929 . S
N499 Li454 1.990 . S
N499 C496 1.314 . S
N499 C497 1.279 . S
C500 C497 1.358 . S
C500 C501 1.356 . S
C500 H537 0.930 . S
C501 C498 1.348 . S
C501 C500 1.356 . S
H502 C496 0.930 . S
H503 C497 0.930 . S
C504 N505 1.314 . S
C504 C506 1.353 . S
C504 H510 0.930 . S
N505 Li455 1.990 . S
N505 C504 1.314 . S
N505 C508 1.279 . S
C506 C504 1.353 . S
C506 C509 1.348 . S
C506 H538 0.929 . S
C507 C508 1.358 . S
C507 C509 1.356 . S
C507 H539 0.930 . S
C508 N505 1.279 . S
C508 C507 1.358 . S
C508 H511 0.930 . S
C509 C506 1.348 . S
C509 C507 1.356 . S
H510 C504 0.930 . S
H511 C508 0.930 . S
O512 Li452 1.956 . S
O512 Li453 1.970 . S
O512 Li454 1.961 . S
O512 C456 1.325 . S
O513 Li452 1.970 . S
O513 Li453 1.956 . S
O513 Li455 1.961 . S
O513 C462 1.325 . S
O514 Li452 1.961 . S
O514 Li454 1.956 . S
O514 Li455 1.970 . S
O514 C484 1.325 . S
O515 Li453 1.961 . S
O515 Li454 1.970 . S
O515 Li455 1.956 . S
O515 C490 1.325 . S
H516 C458 0.929 . S
H517 C459 0.930 . S
H518 C460 0.930 . S
H519 C461 0.930 . S
H520 C463 0.930 . S
H521 C465 0.929 . S
H522 C466 0.930 . S
H523 C467 0.930 . S
H524 C470 0.930 . S
H525 C473 0.929 . S
H526 C478 0.929 . S
H527 C479 0.930 . S
H528 C486 0.929 . S
H529 C487 0.930 . S
H530 C488 0.930 . S
H531 C489 0.930 . S
H532 C491 0.929 . S
H533 C492 0.930 . S
H534 C493 0.930 . S
H535 C494 0.930 . S
H536 C498 0.929 . S
H537 C500 0.930 . S
H538 C506 0.929 . S
H539 C507 0.930 . S
Li540 N557 1.990 . S
Li540 O600 1.956 . S
Li540 O601 1.970 . S
Li540 O602 1.961 . S
Li541 N565 1.990 . S
Li541 O600 1.970 . S
Li541 O601 1.956 . S
Li541 O603 1.961 . S
Li542 N587 1.990 . S
Li542 O600 1.961 . S
Li542 O602 1.956 . S
Li542 O603 1.970 . S
Li543 N593 1.990 . S
Li543 O601 1.961 . S
Li543 O602 1.970 . S
Li543 O603 1.956 . S
C544 C546 1.348 . S
C544 C547 1.356 . S
C544 O600 1.325 . S
N545 C548 1.314 . S
N545 C549 1.279 . S
C546 C544 1.348 . S
C546 C548 1.353 1_556 S
C546 H604 0.929 . S
C547 C544 1.356 . S
C547 C549 1.358 1_556 S
C547 H605 0.930 . S
C548 N545 1.314 . S
C548 C546 1.353 1_554 S
C548 H606 0.930 . S
C549 N545 1.279 . S
C549 C547 1.358 1_554 S
C549 H607 0.930 . S
C550 C553 1.348 . S
C550 C554 1.356 . S
C550 O601 1.325 . S
C551 N552 1.279 . S
C551 C554 1.358 . S
C551 H608 0.930 . S
N552 C551 1.279 . S
N552 C555 1.314 . S
C553 C550 1.348 . S
C553 C555 1.353 . S
C553 H609 0.929 . S
C554 C550 1.356 . S
C554 C551 1.358 . S
C554 H610 0.930 . S
C555 N552 1.314 . S
C555 C553 1.353 . S
C555 H611 0.930 . S
C556 N557 1.314 . S
C556 C561 1.353 1_556 S
C556 H562 0.930 . S
N557 Li540 1.990 . S
N557 C556 1.314 . S
N557 C559 1.279 1_556 S
C558 C559 1.358 . S
C558 C560 1.356 . S
C558 H612 0.930 . S
C559 N557 1.279 1_554 S
C559 C558 1.358 . S
C559 H563 0.930 . S
C560 C558 1.356 . S
C560 C561 1.348 . S
C561 C556 1.353 1_554 S
C561 C560 1.348 . S
C561 H613 0.929 1_554 S
H562 C556 0.930 . S
H563 C559 0.930 . S
C564 N565 1.314 . S
C564 C566 1.353 . S
C564 H570 0.930 . S
N565 Li541 1.990 . S
N565 C564 1.314 . S
N565 C568 1.279 . S
C566 C564 1.353 . S
C566 C569 1.348 . S
C566 H614 0.929 . S
C567 C568 1.358 . S
C567 C569 1.356 . S
C567 H615 0.930 . S
C568 N565 1.279 . S
C568 C567 1.358 . S
C568 H571 0.930 . S
C569 C566 1.348 . S
C569 C567 1.356 . S
H570 C564 0.930 . S
H571 C568 0.930 . S
C572 C574 1.348 . S
C572 C575 1.356 . S
C572 O602 1.325 . S
N573 C576 1.314 . S
N573 C577 1.279 . S
C574 C572 1.348 . S
C574 C576 1.353 . S
C574 H616 0.929 . S
C575 C572 1.356 . S
C575 C577 1.358 . S
C575 H617 0.930 . S
C576 N573 1.314 . S
C576 C574 1.353 . S
C576 H618 0.930 . S
C577 N573 1.279 . S
C577 C575 1.358 . S
C577 H619 0.930 . S
C578 C579 1.348 . S
C578 C580 1.356 . S
C578 O603 1.325 . S
C579 C578 1.348 . S
C579 C581 1.353 . S
C579 H620 0.929 . S
C580 C578 1.356 . S
C580 C582 1.358 . S
C580 H621 0.930 . S
C581 C579 1.353 . S
C581 N583 1.314 . S
C581 H622 0.930 . S
C582 C580 1.358 . S
C582 N583 1.279 . S
C582 H623 0.930 . S
N583 C581 1.314 . S
N583 C582 1.279 . S
C584 C586 1.353 . S
C584 N587 1.314 . S
C584 H590 0.930 . S
C585 N587 1.279 . S
C585 C588 1.358 . S
C585 H591 0.930 . S
C586 C584 1.353 . S
C586 C589 1.348 . S
C586 H624 0.929 . S
N587 Li542 1.990 . S
N587 C584 1.314 . S
N587 C585 1.279 . S
C588 C585 1.358 . S
C588 C589 1.356 . S
C588 H625 0.930 . S
C589 C586 1.348 . S
C589 C588 1.356 . S
H590 C584 0.930 . S
H591 C585 0.930 . S
C592 N593 1.314 . S
C592 C594 1.353 . S
C592 H598 0.930 . S
N593 Li543 1.990 . S
N593 C592 1.314 . S
N593 C596 1.279 . S
C594 C592 1.353 . S
C594 C597 1.348 . S
C594 H626 0.929 . S
C595 C596 1.358 . S
C595 C597 1.356 . S
C595 H627 0.930 . S
C596 N593 1.279 . S
C596 C595 1.358 . S
C596 H599 0.930 . S
C597 C594 1.348 . S
C597 C595 1.356 . S
H598 C592 0.930 . S
H599 C596 0.930 . S
O600 Li540 1.956 . S
O600 Li541 1.970 . S
O600 Li542 1.961 . S
O600 C544 1.325 . S
O601 Li540 1.970 . S
O601 Li541 1.956 . S
O601 Li543 1.961 . S
O601 C550 1.325 . S
O602 Li540 1.961 . S
O602 Li542 1.956 . S
O602 Li543 1.970 . S
O602 C572 1.325 . S
O603 Li541 1.961 . S
O603 Li542 1.970 . S
O603 Li543 1.956 . S
O603 C578 1.325 . S
H604 C546 0.929 . S
H605 C547 0.930 . S
H606 C548 0.930 . S
H607 C549 0.930 . S
H608 C551 0.930 . S
H609 C553 0.929 . S
H610 C554 0.930 . S
H611 C555 0.930 . S
H612 C558 0.930 . S
H613 C561 0.929 1_556 S
H614 C566 0.929 . S
H615 C567 0.930 . S
H616 C574 0.929 . S
H617 C575 0.930 . S
H618 C576 0.930 . S
H619 C577 0.930 . S
H620 C579 0.929 . S
H621 C580 0.930 . S
H622 C581 0.930 . S
H623 C582 0.930 . S
H624 C586 0.929 . S
H625 C588 0.930 . S
H626 C594 0.929 . S
H627 C595 0.930 . S
Li628 N645 1.990 . S
Li628 O688 1.956 . S
Li628 O689 1.970 . S
Li628 O690 1.961 . S
Li629 N653 1.990 . S
Li629 O688 1.970 . S
Li629 O689 1.956 . S
Li629 O691 1.961 . S
Li630 N675 1.990 . S
Li630 O688 1.961 . S
Li630 O690 1.956 . S
Li630 O691 1.970 . S
Li631 N681 1.990 . S
Li631 O689 1.961 . S
Li631 O690 1.970 . S
Li631 O691 1.956 . S
C632 C634 1.348 . S
C632 C635 1.356 . S
C632 O688 1.325 . S
N633 C636 1.314 . S
N633 C637 1.279 . S
C634 C632 1.348 . S
C634 C636 1.353 . S
C634 H692 0.929 . S
C635 C632 1.356 . S
C635 C637 1.358 . S
C635 H693 0.930 . S
C636 N633 1.314 . S
C636 C634 1.353 . S
C636 H694 0.930 . S
C637 N633 1.279 . S
C637 C635 1.358 . S
C637 H695 0.930 . S
C638 C641 1.348 . S
C638 C642 1.356 . S
C638 O689 1.325 . S
C639 N640 1.279 . S
C639 C642 1.358 . S
C639 H696 0.930 . S
N640 C639 1.279 . S
N640 C643 1.314 . S
C641 C638 1.348 . S
C641 C643 1.353 . S
C641 H697 0.929 . S
C642 C638 1.356 . S
C642 C639 1.358 . S
C642 H698 0.930 . S
C643 N640 1.314 . S
C643 C641 1.353 . S
C643 H699 0.930 . S
C644 N645 1.314 . S
C644 C649 1.353 . S
C644 H650 0.930 . S
N645 Li628 1.990 . S
N645 C644 1.314 . S
N645 C647 1.279 . S
C646 C647 1.358 . S
C646 C648 1.356 . S
C646 H700 0.930 . S
C647 N645 1.279 . S
C647 C646 1.358 . S
C647 H651 0.930 . S
C648 C646 1.356 . S
C648 C649 1.348 . S
C649 C644 1.353 . S
C649 C648 1.348 . S
C649 H701 0.929 . S
H650 C644 0.930 . S
H651 C647 0.930 . S
C652 N653 1.314 . S
C652 C654 1.353 . S
C652 H658 0.930 . S
N653 Li629 1.990 . S
N653 C652 1.314 . S
N653 C656 1.279 . S
C654 C652 1.353 . S
C654 C657 1.348 . S
C654 H702 0.929 . S
C655 C656 1.358 . S
C655 C657 1.356 . S
C655 H703 0.930 . S
C656 N653 1.279 . S
C656 C655 1.358 . S
C656 H659 0.930 . S
C657 C654 1.348 . S
C657 C655 1.356 . S
H658 C652 0.930 . S
H659 C656 0.930 . S
C660 C662 1.348 . S
C660 C663 1.356 . S
C660 O690 1.325 . S
N661 C664 1.314 . S
N661 C665 1.279 . S
C662 C660 1.348 . S
C662 C664 1.353 1_554 S
C662 H704 0.929 . S
C663 C660 1.356 . S
C663 C665 1.358 1_554 S
C663 H705 0.930 . S
C664 N661 1.314 . S
C664 C662 1.353 1_556 S
C664 H706 0.930 . S
C665 N661 1.279 . S
C665 C663 1.358 1_556 S
C665 H707 0.930 . S
C666 C667 1.348 . S
C666 C668 1.356 . S
C666 O691 1.325 . S
C667 C666 1.348 . S
C667 C669 1.353 . S
C667 H708 0.929 . S
C668 C666 1.356 . S
C668 C670 1.358 . S
C668 H709 0.930 . S
C669 C667 1.353 . S
C669 N671 1.314 . S
C669 H710 0.930 . S
C670 C668 1.358 . S
C670 N671 1.279 . S
C670 H711 0.930 . S
N671 C669 1.314 . S
N671 C670 1.279 . S
C672 C674 1.353 1_554 S
C672 N675 1.314 . S
C672 H678 0.930 . S
C673 N675 1.279 1_556 S
C673 C676 1.358 . S
C673 H679 0.930 . S
C674 C672 1.353 1_556 S
C674 C677 1.348 . S
C674 H712 0.929 . S
N675 Li630 1.990 . S
N675 C672 1.314 . S
N675 C673 1.279 1_554 S
C676 C673 1.358 . S
C676 C677 1.356 . S
C676 H713 0.930 . S
C677 C674 1.348 . S
C677 C676 1.356 . S
H678 C672 0.930 . S
H679 C673 0.930 . S
C680 N681 1.314 . S
C680 C682 1.353 . S
C680 H686 0.930 . S
N681 Li631 1.990 . S
N681 C680 1.314 . S
N681 C684 1.279 . S
C682 C680 1.353 . S
C682 C685 1.348 . S
C682 H714 0.929 . S
C683 C684 1.358 . S
C683 C685 1.356 . S
C683 H715 0.930 . S
C684 N681 1.279 . S
C684 C683 1.358 . S
C684 H687 0.930 . S
C685 C682 1.348 . S
C685 C683 1.356 . S
H686 C680 0.930 . S
H687 C684 0.930 . S
O688 Li628 1.956 . S
O688 Li629 1.970 . S
O688 Li630 1.961 . S
O688 C632 1.325 . S
O689 Li628 1.970 . S
O689 Li629 1.956 . S
O689 Li631 1.961 . S
O689 C638 1.325 . S
O690 Li628 1.961 . S
O690 Li630 1.956 . S
O690 Li631 1.970 . S
O690 C660 1.325 . S
O691 Li629 1.961 . S
O691 Li630 1.970 . S
O691 Li631 1.956 . S
O691 C666 1.325 . S
H692 C634 0.929 . S
H693 C635 0.930 . S
H694 C636 0.930 . S
H695 C637 0.930 . S
H696 C639 0.930 . S
H697 C641 0.929 . S
H698 C642 0.930 . S
H699 C643 0.930 . S
H700 C646 0.930 . S
H701 C649 0.929 . S
H702 C654 0.929 . S
H703 C655 0.930 . S
H704 C662 0.929 . S
H705 C663 0.930 . S
H706 C664 0.930 . S
H707 C665 0.930 . S
H708 C667 0.929 . S
H709 C668 0.930 . S
H710 C669 0.930 . S
H711 C670 0.930 . S
H712 C674 0.929 . S
H713 C676 0.930 . S
H714 C682 0.929 . S
H715 C683 0.930 . S
Li716 N733 1.990 . S
Li716 O776 1.956 . S
Li716 O777 1.970 . S
Li716 O778 1.961 . S
Li717 N741 1.990 . S
Li717 O776 1.970 . S
Li717 O777 1.956 . S
Li717 O779 1.961 . S
Li718 N763 1.990 . S
Li718 O776 1.961 . S
Li718 O778 1.956 . S
Li718 O779 1.970 . S
Li719 N769 1.990 . S
Li719 O777 1.961 . S
Li719 O778 1.970 . S
Li719 O779 1.956 . S
C720 C722 1.348 . S
C720 C723 1.356 . S
C720 O776 1.325 . S
N721 C724 1.314 . S
N721 C725 1.279 . S
C722 C720 1.348 . S
C722 C724 1.353 . S
C722 H780 0.929 . S
C723 C720 1.356 . S
C723 C725 1.358 . S
C723 H781 0.930 . S
C724 N721 1.314 . S
C724 C722 1.353 . S
C724 H782 0.930 . S
C725 N721 1.279 . S
C725 C723 1.358 . S
C725 H783 0.930 . S
C726 C729 1.348 . S
C726 C730 1.356 . S
C726 O777 1.325 . S
C727 N728 1.279 . S
C727 C730 1.358 . S
C727 H784 0.930 . S
N728 C727 1.279 . S
N728 C731 1.314 . S
C729 C726 1.348 . S
C729 C731 1.353 . S
C729 H785 0.929 . S
C730 C726 1.356 . S
C730 C727 1.358 . S
C730 H786 0.930 . S
C731 N728 1.314 . S
C731 C729 1.353 . S
C731 H787 0.930 . S
C732 N733 1.314 . S
C732 C737 1.353 . S
C732 H738 0.930 . S
N733 Li716 1.990 . S
N733 C732 1.314 . S
N733 C735 1.279 . S
C734 C735 1.358 . S
C734 C736 1.356 . S
C734 H788 0.930 . S
C735 N733 1.279 . S
C735 C734 1.358 . S
C735 H739 0.930 . S
C736 C734 1.356 . S
C736 C737 1.348 . S
C737 C732 1.353 . S
C737 C736 1.348 . S
C737 H789 0.929 . S
H738 C732 0.930 . S
H739 C735 0.930 . S
C740 N741 1.314 . S
C740 C742 1.353 . S
C740 H746 0.930 . S
N741 Li717 1.990 . S
N741 C740 1.314 . S
N741 C744 1.279 . S
C742 C740 1.353 . S
C742 C745 1.348 . S
C742 H790 0.929 . S
C743 C744 1.358 . S
C743 C745 1.356 . S
C743 H791 0.930 . S
C744 N741 1.279 . S
C744 C743 1.358 . S
C744 H747 0.930 . S
C745 C742 1.348 . S
C745 C743 1.356 . S
H746 C740 0.930 . S
H747 C744 0.930 . S
C748 C750 1.348 . S
C748 C751 1.356 . S
C748 O778 1.325 . S
N749 C752 1.314 . S
N749 C753 1.279 . S
C750 C748 1.348 . S
C750 C752 1.353 . S
C750 H792 0.929 . S
C751 C748 1.356 . S
C751 C753 1.358 . S
C751 H793 0.930 . S
C752 N749 1.314 . S
C752 C750 1.353 . S
C752 H794 0.930 . S
C753 N749 1.279 . S
C753 C751 1.358 . S
C753 H795 0.930 . S
C754 C755 1.348 . S
C754 C756 1.356 . S
C754 O779 1.325 . S
C755 C754 1.348 . S
C755 C757 1.353 . S
C755 H796 0.929 . S
C756 C754 1.356 . S
C756 C758 1.358 . S
C756 H797 0.930 . S
C757 C755 1.353 . S
C757 N759 1.314 . S
C757 H798 0.930 . S
C758 C756 1.358 . S
C758 N759 1.279 . S
C758 H799 0.930 . S
N759 C757 1.314 . S
N759 C758 1.279 . S
C760 C762 1.353 . S
C760 N763 1.314 . S
C760 H766 0.930 . S
C761 N763 1.279 . S
C761 C764 1.358 . S
C761 H767 0.930 . S
C762 C760 1.353 . S
C762 C765 1.348 . S
C762 H800 0.929 . S
N763 Li718 1.990 . S
N763 C760 1.314 . S
N763 C761 1.279 . S
C764 C761 1.358 . S
C764 C765 1.356 . S
C764 H801 0.930 . S
C765 C762 1.348 . S
C765 C764 1.356 . S
H766 C760 0.930 . S
H767 C761 0.930 . S
C768 N769 1.314 . S
C768 C770 1.353 . S
C768 H774 0.930 . S
N769 Li719 1.990 . S
N769 C768 1.314 . S
N769 C772 1.279 . S
C770 C768 1.353 . S
C770 C773 1.348 . S
C770 H802 0.929 . S
C771 C772 1.358 . S
C771 C773 1.356 . S
C771 H803 0.930 . S
C772 N769 1.279 . S
C772 C771 1.358 . S
C772 H775 0.930 . S
C773 C770 1.348 . S
C773 C771 1.356 . S
H774 C768 0.930 . S
H775 C772 0.930 . S
O776 Li716 1.956 . S
O776 Li717 1.970 . S
O776 Li718 1.961 . S
O776 C720 1.325 . S
O777 Li716 1.970 . S
O777 Li717 1.956 . S
O777 Li719 1.961 . S
O777 C726 1.325 . S
O778 Li716 1.961 . S
O778 Li718 1.956 . S
O778 Li719 1.970 . S
O778 C748 1.325 . S
O779 Li717 1.961 . S
O779 Li718 1.970 . S
O779 Li719 1.956 . S
O779 C754 1.325 . S
H780 C722 0.929 . S
H781 C723 0.930 . S
H782 C724 0.930 . S
H783 C725 0.930 . S
H784 C727 0.930 . S
H785 C729 0.929 . S
H786 C730 0.930 . S
H787 C731 0.930 . S
H788 C734 0.930 . S
H789 C737 0.929 . S
H790 C742 0.929 . S
H791 C743 0.930 . S
H792 C750 0.929 . S
H793 C751 0.930 . S
H794 C752 0.930 . S
H795 C753 0.930 . S
H796 C755 0.929 . S
H797 C756 0.930 . S
H798 C757 0.930 . S
H799 C758 0.930 . S
H800 C762 0.929 . S
H801 C764 0.930 . S
H802 C770 0.929 . S
H803 C771 0.930 . S
C745 C15 2.613 . S
C61 C305 2.613 . S
C114 C393 2.614 . S
C139 C472 2.675 . S
C569 C185 2.677 . S
C245 C648 2.613 . S
C47 C413 2.675 . S
C100 C509 2.676 . S
C153 C589 2.613 . S
C685 C199 2.613 . S
C765 C231 2.675 . S
C325 C1 2.677 . S
C22 C421 1.620 . S
C68 C501 1.619 . S
C597 C107 1.620 . S
C146 C677 1.648 . S
C773 C192 1.647 . S
C333 C252 1.620 . S
C736 C54 1.648 . S
C93 C296 1.648 . S
C384 C160 1.619 . S
C206 C481 1.620 . S
C238 C560 1.648 . S
C8 C657 1.647 . S
